# Generated by pormake.
# Topology umj, (4)-cn, num edge types: 1
# Building blocks:
#     Node 0, Type 0, BuildingBlock: MUDLON_clean_sbu_0, # of connection points: 4
#     Node 1, Type 0, BuildingBlock: MUDLON_clean_sbu_0, # of connection points: 4
#     Node 2, Type 0, BuildingBlock: MUDLON_clean_sbu_0, # of connection points: 4
#     Node 3, Type 0, BuildingBlock: MUDLON_clean_sbu_0, # of connection points: 4
#     Node 4, Type 0, BuildingBlock: MUDLON_clean_sbu_0, # of connection points: 4
#     Node 5, Type 0, BuildingBlock: MUDLON_clean_sbu_0, # of connection points: 4
#     Node 6, Type 0, BuildingBlock: MUDLON_clean_sbu_0, # of connection points: 4
#     Node 7, Type 0, BuildingBlock: MUDLON_clean_sbu_0, # of connection points: 4
#     Node 8, Type 0, BuildingBlock: MUDLON_clean_sbu_0, # of connection points: 4
#     Node 9, Type 0, BuildingBlock: MUDLON_clean_sbu_0, # of connection points: 4
#     Node 10, Type 0, BuildingBlock: MUDLON_clean_sbu_0, # of connection points: 4
#     Node 11, Type 0, BuildingBlock: MUDLON_clean_sbu_0, # of connection points: 4
#     Edge 12, Type (0, 0), BuildingBlock: OJICUG_clean_linker_0, # of connection points: 2
#     Edge 13, Type (0, 0), BuildingBlock: OJICUG_clean_linker_0, # of connection points: 2
#     Edge 14, Type (0, 0), BuildingBlock: OJICUG_clean_linker_0, # of connection points: 2
#     Edge 15, Type (0, 0), BuildingBlock: OJICUG_clean_linker_0, # of connection points: 2
#     Edge 16, Type (0, 0), BuildingBlock: OJICUG_clean_linker_0, # of connection points: 2
#     Edge 17, Type (0, 0), BuildingBlock: OJICUG_clean_linker_0, # of connection points: 2
#     Edge 18, Type (0, 0), BuildingBlock: OJICUG_clean_linker_0, # of connection points: 2
#     Edge 19, Type (0, 0), BuildingBlock: OJICUG_clean_linker_0, # of connection points: 2
#     Edge 20, Type (0, 0), BuildingBlock: OJICUG_clean_linker_0, # of connection points: 2
#     Edge 21, Type (0, 0), BuildingBlock: OJICUG_clean_linker_0, # of connection points: 2
#     Edge 22, Type (0, 0), BuildingBlock: OJICUG_clean_linker_0, # of connection points: 2
#     Edge 23, Type (0, 0), BuildingBlock: OJICUG_clean_linker_0, # of connection points: 2
#     Edge 24, Type (0, 0), BuildingBlock: OJICUG_clean_linker_0, # of connection points: 2
#     Edge 25, Type (0, 0), BuildingBlock: OJICUG_clean_linker_0, # of connection points: 2
#     Edge 26, Type (0, 0), BuildingBlock: OJICUG_clean_linker_0, # of connection points: 2
#     Edge 27, Type (0, 0), BuildingBlock: OJICUG_clean_linker_0, # of connection points: 2
#     Edge 28, Type (0, 0), BuildingBlock: OJICUG_clean_linker_0, # of connection points: 2
#     Edge 29, Type (0, 0), BuildingBlock: OJICUG_clean_linker_0, # of connection points: 2
#     Edge 30, Type (0, 0), BuildingBlock: OJICUG_clean_linker_0, # of connection points: 2
#     Edge 31, Type (0, 0), BuildingBlock: OJICUG_clean_linker_0, # of connection points: 2
#     Edge 32, Type (0, 0), BuildingBlock: OJICUG_clean_linker_0, # of connection points: 2
#     Edge 33, Type (0, 0), BuildingBlock: OJICUG_clean_linker_0, # of connection points: 2
#     Edge 34, Type (0, 0), BuildingBlock: OJICUG_clean_linker_0, # of connection points: 2
#     Edge 35, Type (0, 0), BuildingBlock: OJICUG_clean_linker_0, # of connection points: 2
# Relax obj value: 0.016
# Max RMSD: 0.120
# Mean RMSD: 0.120
data_MOF--net-umj--node1-MUDLON_clean_sbu_0--edge1-OJICUG_clean_linker_0
_symmetry_space_group_name_H-M    P1
_symmetry_Int_Tables_number       1
_symmetry_cell_setting            triclinic
loop_
_symmetry_equiv_pos_as_xyz
'x, y, z'
_cell_length_a     22.578657
_cell_length_b     22.579549
_cell_length_c     64.730992
_cell_angle_alpha  90.004921
_cell_angle_beta   90.00106
_cell_angle_gamma 119.99943
loop_
_atom_site_label
_atom_site_type_symbol
_atom_site_fract_x
_atom_site_fract_y
_atom_site_fract_z
_atom_type_partial_charge
Mg0 Mg 0.05088 0.27689 0.09966 0.0
C1 C 0.0148 0.25385 0.14241 0.0
O2 O 0.95758 0.22583 0.13175 0.0
C3 C 0.10538 0.32411 0.05905 0.0
O4 O 0.04061 0.30706 0.05836 0.0
C5 C 0.04465 0.40014 0.09788 0.0
O6 O 0.10892 0.41773 0.10099 0.0
O7 O 1.00049 0.33676 0.09634 0.0
O8 O 0.07129 0.28321 0.13257 0.0
O9 O 1.00143 0.16789 0.09328 0.0
C10 C 0.04566 0.14847 0.09293 0.0
O11 O 0.11033 0.19464 0.09561 0.0
O12 O 0.13038 0.32008 0.0763 0.0
Mg13 Mg 0.78102 0.04938 0.43304 0.0
C14 C 0.7683 0.01307 0.47575 0.0
O15 O 0.7393 0.95593 0.46506 0.0
C16 C 0.78795 0.10391 0.39246 0.0
O17 O 0.74038 0.03908 0.39178 0.0
C18 C 0.65148 0.04299 0.43133 0.0
O19 O 0.69811 0.10724 0.43447 0.0
O20 O 0.67075 0.99888 0.42974 0.0
O21 O 0.79519 0.06963 0.46595 0.0
O22 O 0.84064 1.00004 0.4266 0.0
C23 C 0.90428 0.04427 0.42624 0.0
O24 O 0.92279 0.10894 0.42893 0.0
O25 O 0.81709 0.12894 0.4097 0.0
Mg26 Mg 0.73652 0.77583 0.76622 0.0
C27 C 0.75988 0.76317 0.80896 0.0
O28 O 0.78794 0.734 0.79831 0.0
C29 C 0.68916 0.78301 0.72561 0.0
O30 O 0.70608 0.73519 0.72492 0.0
C31 C 0.61324 0.64635 0.76449 0.0
O32 O 0.59565 0.69304 0.76757 0.0
O33 O 0.67662 0.66556 0.76294 0.0
O34 O 0.73034 0.79011 0.79912 0.0
O35 O 0.84551 0.83533 0.75984 0.0
C36 C 0.86495 0.89898 0.75951 0.0
O37 O 0.81878 0.91749 0.76219 0.0
O38 O 0.69331 0.81211 0.74285 0.0
Mg39 Mg 0.96532 0.73474 0.09962 0.0
C40 C 1.00136 0.7583 0.14235 0.0
O41 O 0.05858 0.78638 0.13169 0.0
C42 C 0.91089 0.68714 0.05902 0.0
O43 O 0.97571 0.70434 0.05835 0.0
C44 C 0.97165 0.61156 0.09793 0.0
O45 O 0.90739 0.59396 0.10104 0.0
O46 O 0.0158 0.67494 0.09636 0.0
O47 O 0.94487 0.72865 0.13251 0.0
O48 O 0.0147 0.84371 0.0932 0.0
C49 C 0.97046 0.86311 0.09284 0.0
O50 O 0.90578 0.81693 0.0955 0.0
O51 O 0.88585 0.6913 0.07625 0.0
Mg52 Mg 0.23752 0.96365 0.43293 0.0
C53 C 0.2502 0.99946 0.47569 0.0
O54 O 0.27943 0.05675 0.46507 0.0
C55 C 0.23037 0.90921 0.3923 0.0
O56 O 0.27823 0.97393 0.39163 0.0
C57 C 0.36702 0.96988 0.43119 0.0
O58 O 0.32034 0.9056 0.43425 0.0
O59 O 0.34779 0.01404 0.42965 0.0
O60 O 0.22321 0.94303 0.46582 0.0
O61 O 0.17803 0.01317 0.42656 0.0
C62 C 0.11438 0.96897 0.42621 0.0
O63 O 0.09585 0.90428 0.42887 0.0
O64 O 0.20124 0.88423 0.40954 0.0
Mg65 Mg 0.2787 0.23239 0.7664 0.0
C66 C 0.25532 0.2451 0.80913 0.0
O67 O 0.22715 0.27413 0.79847 0.0
C68 C 0.32623 0.22551 0.7258 0.0
O69 O 0.30894 0.27306 0.72514 0.0
C70 C 0.40184 0.36192 0.76467 0.0
O71 O 0.41946 0.31529 0.76781 0.0
O72 O 0.33846 0.34266 0.7631 0.0
O73 O 0.28492 0.2182 0.7993 0.0
O74 O 0.16973 0.17276 0.75997 0.0
C75 C 0.15033 0.10912 0.75959 0.0
O76 O 0.19651 0.09062 0.76225 0.0
O77 O 0.32215 0.19635 0.74303 0.0
Mg78 Mg 0.73772 0.96251 0.60782 0.0
C79 C 0.76118 0.99891 0.56511 0.0
O80 O 0.78916 0.05604 0.57581 0.0
C81 C 0.69012 0.90778 0.64839 0.0
O82 O 0.70733 0.97259 0.6491 0.0
C83 C 0.61452 0.96881 0.60954 0.0
O84 O 0.59694 0.90457 0.60639 0.0
O85 O 0.6779 0.01294 0.61114 0.0
O86 O 0.73166 0.94234 0.5749 0.0
O87 O 0.84668 0.01185 0.61426 0.0
C88 C 0.86608 0.96762 0.61459 0.0
O89 O 0.81991 0.90296 0.61188 0.0
O90 O 0.69425 0.88285 0.63113 0.0
Mg91 Mg 0.77961 0.73351 0.94107 0.0
C92 C 0.76684 0.75673 0.89833 0.0
O93 O 0.73771 0.78483 0.90898 0.0
C94 C 0.7867 0.68628 0.9817 0.0
O95 O 0.739 0.70338 0.98235 0.0
C96 C 0.65012 0.61027 0.94284 0.0
O97 O 0.69679 0.59267 0.93974 0.0
O98 O 0.66935 0.67366 0.94437 0.0
O99 O 0.79382 0.72724 0.90817 0.0
O100 O 0.83916 0.84249 0.94747 0.0
C101 C 0.9028 0.86191 0.94785 0.0
O102 O 0.92132 0.81575 0.94518 0.0
O103 O 0.81581 0.69029 0.96446 0.0
Mg104 Mg 0.05106 0.77866 0.27445 0.0
C105 C 0.01491 0.76571 0.23171 0.0
O106 O 0.95771 0.73662 0.24238 0.0
C107 C 0.10562 0.78572 0.31504 0.0
O108 O 0.04077 0.7382 0.31573 0.0
C109 C 0.0447 0.64915 0.27618 0.0
O110 O 0.10894 0.6958 0.27304 0.0
O111 O 1.00056 0.6684 0.27777 0.0
O112 O 0.07142 0.79274 0.24155 0.0
O113 O 1.00174 0.83832 0.28086 0.0
C114 C 0.04598 0.90195 0.28121 0.0
O115 O 0.11065 0.92043 0.27853 0.0
O116 O 0.13063 0.81478 0.29779 0.0
Mg117 Mg 0.27987 0.04806 0.60782 0.0
C118 C 0.2566 0.01231 0.56506 0.0
O119 O 0.22843 0.95502 0.57568 0.0
C120 C 0.32713 0.10227 0.64846 0.0
O121 O 0.31009 0.0375 0.6491 0.0
C122 C 0.40309 0.0418 0.60955 0.0
O123 O 0.42069 0.10608 0.60649 0.0
O124 O 0.33971 0.99763 0.61108 0.0
O125 O 0.28617 0.06873 0.57494 0.0
O126 O 0.17087 0.99859 0.6142 0.0
C127 C 0.15145 0.04281 0.61459 0.0
O128 O 0.19763 0.10751 0.61195 0.0
O129 O 0.32307 0.12739 0.63124 0.0
Mg130 Mg 0.23619 0.27566 0.94122 0.0
C131 C 0.24889 0.25224 0.89849 0.0
O132 O 0.27808 0.22422 0.90916 0.0
C133 C 0.22919 0.32329 0.98181 0.0
O134 O 0.27685 0.30616 0.98251 0.0
C135 C 0.36569 0.39886 0.94292 0.0
O136 O 0.31902 0.41644 0.9398 0.0
O137 O 0.34646 0.33549 0.9445 0.0
O138 O 0.22192 0.28178 0.90832 0.0
O139 O 0.1766 0.16669 0.94763 0.0
C140 C 0.11296 0.14728 0.94797 0.0
O141 O 0.09447 0.19346 0.94529 0.0
O142 O 0.20005 0.31909 0.96457 0.0
Mg143 Mg 0.96551 0.23527 0.27451 0.0
C144 C 1.00143 0.24769 0.23178 0.0
O145 O 0.05867 0.2768 0.24242 0.0
C146 C 0.91124 0.22824 0.31515 0.0
O147 O 0.976 0.276 0.3158 0.0
C148 C 0.97171 0.36474 0.27625 0.0
O149 O 0.90742 0.31805 0.27318 0.0
O150 O 0.01589 0.34554 0.27778 0.0
O151 O 0.94496 0.22088 0.24162 0.0
O152 O 0.01501 0.17577 0.2809 0.0
C153 C 0.97079 0.11213 0.28126 0.0
O154 O 0.9061 0.09361 0.27859 0.0
O155 O 0.88614 0.19909 0.29792 0.0
C156 C 0.06808 0.27949 0.19874 0.0
C157 C 1.00435 0.24804 0.20891 0.0
H158 H 0.1216 0.30611 0.16984 0.0
C159 C 0.94441 0.218 0.19702 0.0
H160 H 0.11539 0.30318 0.20744 0.0
C161 C 0.94814 0.2197 0.17544 0.0
C162 C 0.01187 0.25154 0.16527 0.0
H163 H 0.89462 0.19339 0.20435 0.0
H164 H 0.90082 0.19622 0.16674 0.0
C165 C 0.0718 0.28126 0.17717 0.0
C166 C 0.73613 0.94613 0.50873 0.0
C167 C 0.76773 0.00995 0.49862 0.0
H168 H 0.70917 0.89236 0.53759 0.0
C169 C 0.79767 0.06978 0.51056 0.0
H170 H 0.71252 0.8989 0.49999 0.0
C171 C 0.79572 0.06587 0.53213 0.0
C172 C 0.76374 1.00205 0.54225 0.0
H173 H 0.82237 0.11964 0.50327 0.0
H174 H 0.81913 0.1131 0.54087 0.0
C175 C 0.73413 0.94222 0.5303 0.0
C176 C 0.73263 0.79291 0.84372 0.0
C177 C 0.7624 0.76275 0.83183 0.0
H178 H 0.71086 0.81473 0.874 0.0
C179 C 0.79449 0.7311 0.84199 0.0
H180 H 0.70758 0.81767 0.8364 0.0
C181 C 0.79639 0.72928 0.86357 0.0
C182 C 0.7663 0.75912 0.87546 0.0
H183 H 0.81802 0.70732 0.83329 0.0
H184 H 0.82119 0.70427 0.8709 0.0
C185 C 0.73459 0.79114 0.8653 0.0
C186 C 0.94442 0.73118 0.17712 0.0
C187 C 1.00433 0.76092 0.16521 0.0
H188 H 0.90089 0.70953 0.2074 0.0
C189 C 0.06808 0.79311 0.17537 0.0
H190 H 0.89461 0.70606 0.16979 0.0
C191 C 0.07185 0.79512 0.19694 0.0
C192 C 0.01194 0.76505 0.20885 0.0
H193 H 0.11538 0.81662 0.16667 0.0
H194 H 0.12166 0.81998 0.20427 0.0
C195 C 0.94818 0.73325 0.19869 0.0
C196 C 0.28417 0.06953 0.53034 0.0
C197 C 0.25422 0.00953 0.5422 0.0
H198 H 0.30621 0.11329 0.50009 0.0
C199 C 0.2221 0.94586 0.53199 0.0
H200 H 0.30924 0.11928 0.53769 0.0
C201 C 0.22034 0.94226 0.51042 0.0
C202 C 0.25061 1.00226 0.49856 0.0
H203 H 0.19844 0.89849 0.54066 0.0
H204 H 0.19551 0.8925 0.50306 0.0
C205 C 0.28235 0.06593 0.50876 0.0
C206 C 0.2208 0.27731 0.84215 0.0
C207 C 0.25293 0.24568 0.83199 0.0
H208 H 0.19421 0.3043 0.87104 0.0
C209 C 0.28287 0.21571 0.8439 0.0
H210 H 0.19714 0.30094 0.83344 0.0
C211 C 0.28105 0.21766 0.86547 0.0
C212 C 0.24931 0.24968 0.87563 0.0
H213 H 0.30795 0.19098 0.83658 0.0
H214 H 0.30491 0.19423 0.87418 0.0
C215 C 0.21904 0.27932 0.86372 0.0
C216 C 0.11337 0.33932 0.02073 0.0
C217 C 0.14368 0.33683 0.03949 0.0
H218 H 0.11685 0.33757 0.98768 0.0
C219 C 0.20694 0.33926 0.039 0.0
H220 H 0.06489 0.33828 0.02058 0.0
C221 C 0.23673 0.33905 1.02011 0.0
C222 C 0.20384 0.3364 1.00135 0.0
H223 H 0.23176 0.33784 0.05316 0.0
H224 H 0.28407 0.33781 1.02026 0.0
C225 C 0.14316 0.3391 1.00184 0.0
C226 C 0.87383 0.20569 0.37238 0.0
C227 C 0.81316 0.1423 0.37291 0.0
H228 H 0.95198 0.28307 0.35359 0.0
C229 C 0.78015 0.112 0.35417 0.0
H230 H 0.90023 0.23052 0.38653 0.0
C231 C 0.80982 0.14193 0.33526 0.0
C232 C 0.87307 0.20276 0.33473 0.0
H233 H 0.73281 0.06342 0.35405 0.0
H234 H 0.7849 0.11563 0.32112 0.0
C235 C 0.90349 0.23563 0.35347 0.0
C236 C 0.67396 0.77584 0.68729 0.0
C237 C 0.67647 0.80862 0.70605 0.0
H238 H 0.67573 0.78111 0.65424 0.0
C239 C 0.67409 0.86947 0.70557 0.0
H240 H 0.67496 0.72838 0.68713 0.0
C241 C 0.67433 0.89951 0.68668 0.0
C242 C 0.67697 0.86929 0.66792 0.0
H243 H 0.67552 0.89571 0.71973 0.0
H244 H 0.67561 0.94811 0.68684 0.0
C245 C 0.67421 0.80588 0.6684 0.0
C246 C 0.80915 0.67128 0.03892 0.0
C247 C 0.87255 0.674 0.03945 0.0
H248 H 0.7318 0.67208 1.02013 0.0
C249 C 0.90289 0.67135 0.02072 0.0
H250 H 0.7843 0.67281 0.05306 0.0
C251 C 0.87298 0.67113 1.00181 0.0
C252 C 0.81216 0.67355 1.00127 0.0
H253 H 0.95147 0.6726 0.0206 0.0
H254 H 0.89932 0.67256 0.98767 0.0
C255 C 0.77925 0.67105 1.02001 0.0
C256 C 0.11378 0.7781 0.35333 0.0
C257 C 0.14408 0.81097 0.33458 0.0
H258 H 0.11752 0.783 0.38638 0.0
C259 C 0.20756 0.87154 0.33508 0.0
H260 H 0.06513 0.73084 0.35347 0.0
C261 C 0.2376 0.90125 0.35398 0.0
C262 C 0.20475 0.87097 0.37273 0.0
H263 H 0.23238 0.89783 0.32093 0.0
H264 H 0.28512 0.94966 0.35384 0.0
C265 C 0.14382 0.80781 0.37223 0.0
C266 C 0.34235 0.11 0.68678 0.0
C267 C 0.33986 0.14043 0.66805 0.0
H268 H 0.34057 0.11324 0.71984 0.0
C269 C 0.34228 0.20368 0.66859 0.0
H270 H 0.34131 0.06152 0.68689 0.0
C271 C 0.34206 0.23334 0.68751 0.0
C272 C 0.33939 0.20032 0.70624 0.0
H273 H 0.34086 0.2286 0.65445 0.0
H274 H 0.34081 0.28067 0.6874 0.0
C275 C 0.34212 0.13965 0.7057 0.0
C276 C 0.05957 0.5748 0.09653 0.0
C277 C 0.99078 0.55785 0.09682 0.0
H278 H 0.1304 0.53814 0.09664 0.0
C279 C 0.93954 0.48838 0.09662 0.0
H280 H 0.10015 0.62774 0.09664 0.0
C281 C 0.95673 0.4369 0.09654 0.0
C282 C 0.02553 0.45385 0.09679 0.0
H283 H 0.88591 0.47355 0.09672 0.0
H284 H 0.91616 0.38396 0.09667 0.0
C285 C 0.07677 0.52332 0.09657 0.0
C286 C 0.56037 0.07506 0.43 0.0
C287 C 0.57864 0.02384 0.43019 0.0
H288 H 0.4793 0.0984 0.43003 0.0
C289 C 0.52681 0.95504 0.42987 0.0
H290 H 0.59916 0.12869 0.43012 0.0
C291 C 0.45814 0.93782 0.4299 0.0
C292 C 0.43987 0.98904 0.43012 0.0
H293 H 0.53921 0.91448 0.42998 0.0
H294 H 0.41935 0.88419 0.42994 0.0
C295 C 0.4917 0.05784 0.4299 0.0
C296 C 0.43858 0.48659 0.76322 0.0
C297 C 0.45554 0.43475 0.76353 0.0
H298 H 0.47521 0.59406 0.76328 0.0
C299 C 0.52502 0.453 0.76331 0.0
H300 H 0.38563 0.4742 0.76334 0.0
C301 C 0.57648 0.52167 0.7632 0.0
C302 C 0.55953 0.57351 0.76343 0.0
H303 H 0.53985 0.4142 0.76343 0.0
H304 H 0.62944 0.53405 0.76332 0.0
C305 C 0.49005 0.55526 0.76323 0.0
C306 C 0.52628 0.07391 0.6109 0.0
C307 C 0.4568 0.02267 0.61066 0.0
H308 H 0.6307 0.09729 0.61087 0.0
C309 C 0.43986 0.95388 0.61088 0.0
H310 H 0.5411 0.12754 0.61084 0.0
C311 C 0.49133 0.93669 0.61082 0.0
C312 C 0.56081 0.98792 0.61065 0.0
H313 H 0.38691 0.91331 0.61074 0.0
H314 H 0.47651 0.88306 0.6107 0.0
C315 C 0.57776 0.05672 0.61096 0.0
C316 C 0.49038 0.43562 0.94427 0.0
C317 C 0.43853 0.45257 0.944 0.0
H318 H 0.59786 0.47227 0.94411 0.0
C319 C 0.45677 0.52204 0.94418 0.0
H320 H 0.47801 0.38267 0.94418 0.0
C321 C 0.52544 0.57351 0.94422 0.0
C322 C 0.57729 0.55657 0.94396 0.0
H323 H 0.41797 0.53687 0.94409 0.0
H324 H 0.53782 0.62646 0.94408 0.0
C325 C 0.55905 0.48709 0.94419 0.0
C326 C 0.07681 0.55809 0.27749 0.0
C327 C 0.02557 0.57633 0.27731 0.0
H328 H 0.1002 0.47705 0.27744 0.0
C329 C 0.95678 0.52448 0.2776 0.0
H330 H 0.13044 0.59689 0.27738 0.0
C331 C 0.93959 0.45581 0.27756 0.0
C332 C 0.99082 0.43757 0.27734 0.0
H333 H 0.9162 0.53685 0.2775 0.0
H334 H 0.88595 0.41701 0.2775 0.0
C335 C 0.05962 0.48943 0.27757 0.0
C336 C 0.07678 0.0566 0.09077 0.0
C337 C 0.02596 0.07544 0.09112 0.0
H338 H 0.09942 0.97501 0.09095 0.0
C339 C 0.95703 0.02386 0.09074 0.0
H340 H 0.13052 0.09508 0.09095 0.0
C341 C 0.93934 0.95499 0.09072 0.0
C342 C 0.99016 0.93615 0.09107 0.0
H343 H 0.9167 0.03659 0.09095 0.0
H344 H 0.8856 0.9165 0.09086 0.0
C345 C 0.05909 0.98773 0.09074 0.0
C346 C 0.94023 0.95562 0.42407 0.0
C347 C 0.9576 0.02455 0.42444 0.0
H348 H 0.97613 0.88417 0.42422 0.0
C349 C 0.02728 0.07536 0.42411 0.0
H350 H 0.88718 0.91531 0.42427 0.0
C351 C 0.07845 0.05764 0.42409 0.0
C352 C 0.06107 0.98871 0.42443 0.0
H353 H 0.04254 0.1291 0.42428 0.0
H354 H 0.1315 0.09795 0.42431 0.0
C355 C 0.9914 0.93791 0.42407 0.0
C356 C 0.05845 0.98613 0.75741 0.0
C357 C 0.0773 0.0558 0.75778 0.0
H358 H 0.97684 0.8819 0.75758 0.0
C359 C 0.02572 0.07315 0.75742 0.0
H360 H 0.09693 0.97088 0.75757 0.0
C361 C 0.95685 0.02197 0.75741 0.0
C362 C 0.93799 0.9523 0.75774 0.0
H363 H 0.03845 0.12619 0.75765 0.0
H364 H 0.91836 0.03723 0.75757 0.0
C365 C 0.98957 0.93495 0.75739 0.0
C366 C 0.95796 0.93648 0.61669 0.0
C367 C 0.93911 0.98731 0.61639 0.0
H368 H 0.03955 0.91385 0.61646 0.0
C369 C 0.99069 0.05623 0.61678 0.0
H370 H 0.91947 0.88275 0.6165 0.0
C371 C 0.05956 0.07392 0.61677 0.0
C372 C 0.07841 0.0231 0.61638 0.0
H373 H 0.97797 0.09656 0.6166 0.0
H374 H 0.09805 0.12765 0.61664 0.0
C375 C 0.02683 0.95417 0.6167 0.0
C376 C 0.02579 0.95379 0.95004 0.0
C377 C 0.95612 0.93494 0.94966 0.0
H378 H 0.13002 0.03539 0.94989 0.0
C379 C 0.93877 0.98652 0.95002 0.0
H380 H 0.04105 0.91531 0.94988 0.0
C381 C 0.98995 0.05539 0.95005 0.0
C382 C 0.05962 0.07424 0.94973 0.0
H383 H 0.88572 0.97379 0.94979 0.0
H384 H 0.9747 0.09387 0.94989 0.0
C385 C 0.07697 0.02266 0.95008 0.0
C386 C 0.95737 0.93795 0.28339 0.0
C387 C 0.0263 0.95529 0.28301 0.0
H388 H 0.88594 0.97389 0.28326 0.0
C389 C 0.07712 0.02496 0.28334 0.0
H390 H 0.91704 0.88491 0.28319 0.0
C391 C 0.05943 0.07615 0.28336 0.0
C392 C 0.9905 0.0588 0.28303 0.0
H393 H 0.13086 0.04021 0.28316 0.0
H394 H 0.09976 0.12919 0.28314 0.0
C395 C 0.93968 0.98913 0.28339 0.0
loop_
_geom_bond_atom_site_label_1
_geom_bond_atom_site_label_2
_geom_bond_distance
_geom_bond_site_symmetry_2
_ccdc_geom_bond_type
Mg0 O7 2.141 . S
Mg0 O8 2.048 . S
Mg0 O9 2.048 . S
Mg0 O12 2.141 . S
C1 O2 1.313 . S
C1 O8 1.195 . S
O2 C1 1.313 . S
C3 O4 1.245 . S
C3 O12 1.289 . S
O4 C3 1.245 . S
C5 O6 1.245 . S
C5 O7 1.289 . S
O6 C5 1.245 . S
O7 Mg0 2.141 . S
O7 C5 1.289 . S
O8 Mg0 2.048 . S
O8 C1 1.195 . S
O9 Mg0 2.048 . S
O9 C10 1.195 . S
C10 O9 1.195 . S
C10 O11 1.313 . S
O11 C10 1.313 . S
O12 Mg0 2.141 . S
O12 C3 1.289 . S
Mg13 O20 2.141 . S
Mg13 O21 2.048 . S
Mg13 O22 2.048 . S
Mg13 O25 2.141 . S
C14 O15 1.313 . S
C14 O21 1.195 . S
O15 C14 1.313 . S
C16 O17 1.245 . S
C16 O25 1.289 . S
O17 C16 1.245 . S
C18 O19 1.245 . S
C18 O20 1.289 . S
O19 C18 1.245 . S
O20 Mg13 2.141 . S
O20 C18 1.289 . S
O21 Mg13 2.048 . S
O21 C14 1.195 . S
O22 Mg13 2.048 . S
O22 C23 1.195 . S
C23 O22 1.195 . S
C23 O24 1.313 . S
O24 C23 1.313 . S
O25 Mg13 2.141 . S
O25 C16 1.289 . S
Mg26 O33 2.141 . S
Mg26 O34 2.048 . S
Mg26 O35 2.048 . S
Mg26 O38 2.141 . S
C27 O28 1.313 . S
C27 O34 1.195 . S
O28 C27 1.313 . S
C29 O30 1.245 . S
C29 O38 1.289 . S
O30 C29 1.245 . S
C31 O32 1.245 . S
C31 O33 1.289 . S
O32 C31 1.245 . S
O33 Mg26 2.141 . S
O33 C31 1.289 . S
O34 Mg26 2.048 . S
O34 C27 1.195 . S
O35 Mg26 2.048 . S
O35 C36 1.195 . S
C36 O35 1.195 . S
C36 O37 1.313 . S
O37 C36 1.313 . S
O38 Mg26 2.141 . S
O38 C29 1.289 . S
Mg39 O46 2.141 . S
Mg39 O47 2.048 . S
Mg39 O48 2.048 . S
Mg39 O51 2.141 . S
C40 O41 1.313 . S
C40 O47 1.195 . S
O41 C40 1.313 . S
C42 O43 1.245 . S
C42 O51 1.289 . S
O43 C42 1.245 . S
C44 O45 1.245 . S
C44 O46 1.289 . S
O45 C44 1.245 . S
O46 Mg39 2.141 . S
O46 C44 1.289 . S
O47 Mg39 2.048 . S
O47 C40 1.195 . S
O48 Mg39 2.048 . S
O48 C49 1.195 . S
C49 O48 1.195 . S
C49 O50 1.313 . S
O50 C49 1.313 . S
O51 Mg39 2.141 . S
O51 C42 1.289 . S
Mg52 O59 2.141 . S
Mg52 O60 2.048 . S
Mg52 O61 2.048 . S
Mg52 O64 2.141 . S
C53 O54 1.313 . S
C53 O60 1.195 . S
O54 C53 1.313 . S
C55 O56 1.245 . S
C55 O64 1.289 . S
O56 C55 1.245 . S
C57 O58 1.245 . S
C57 O59 1.289 . S
O58 C57 1.245 . S
O59 Mg52 2.141 . S
O59 C57 1.289 . S
O60 Mg52 2.048 . S
O60 C53 1.195 . S
O61 Mg52 2.048 . S
O61 C62 1.195 . S
C62 O61 1.195 . S
C62 O63 1.313 . S
O63 C62 1.313 . S
O64 Mg52 2.141 . S
O64 C55 1.289 . S
Mg65 O72 2.141 . S
Mg65 O73 2.048 . S
Mg65 O74 2.048 . S
Mg65 O77 2.141 . S
C66 O67 1.313 . S
C66 O73 1.195 . S
O67 C66 1.313 . S
C68 O69 1.245 . S
C68 O77 1.289 . S
O69 C68 1.245 . S
C70 O71 1.245 . S
C70 O72 1.289 . S
O71 C70 1.245 . S
O72 Mg65 2.141 . S
O72 C70 1.289 . S
O73 Mg65 2.048 . S
O73 C66 1.195 . S
O74 Mg65 2.048 . S
O74 C75 1.195 . S
C75 O74 1.195 . S
C75 O76 1.313 . S
O76 C75 1.313 . S
O77 Mg65 2.141 . S
O77 C68 1.289 . S
Mg78 O85 2.141 . S
Mg78 O86 2.048 . S
Mg78 O87 2.048 . S
Mg78 O90 2.141 . S
C79 O80 1.313 . S
C79 O86 1.195 . S
O80 C79 1.313 . S
C81 O82 1.245 . S
C81 O90 1.289 . S
O82 C81 1.245 . S
C83 O84 1.245 . S
C83 O85 1.289 . S
O84 C83 1.245 . S
O85 Mg78 2.141 . S
O85 C83 1.289 . S
O86 Mg78 2.048 . S
O86 C79 1.195 . S
O87 Mg78 2.048 . S
O87 C88 1.195 . S
C88 O87 1.195 . S
C88 O89 1.313 . S
O89 C88 1.313 . S
O90 Mg78 2.141 . S
O90 C81 1.289 . S
Mg91 O98 2.141 . S
Mg91 O99 2.048 . S
Mg91 O100 2.048 . S
Mg91 O103 2.141 . S
C92 O93 1.313 . S
C92 O99 1.195 . S
O93 C92 1.313 . S
C94 O95 1.245 . S
C94 O103 1.289 . S
O95 C94 1.245 . S
C96 O97 1.245 . S
C96 O98 1.289 . S
O97 C96 1.245 . S
O98 Mg91 2.141 . S
O98 C96 1.289 . S
O99 Mg91 2.048 . S
O99 C92 1.195 . S
O100 Mg91 2.048 . S
O100 C101 1.195 . S
C101 O100 1.195 . S
C101 O102 1.313 . S
O102 C101 1.313 . S
O103 Mg91 2.141 . S
O103 C94 1.289 . S
Mg104 O111 2.141 . S
Mg104 O112 2.048 . S
Mg104 O113 2.048 . S
Mg104 O116 2.141 . S
C105 O106 1.313 . S
C105 O112 1.195 . S
O106 C105 1.313 . S
C107 O108 1.245 . S
C107 O116 1.289 . S
O108 C107 1.245 . S
C109 O110 1.245 . S
C109 O111 1.289 . S
O110 C109 1.245 . S
O111 Mg104 2.141 . S
O111 C109 1.289 . S
O112 Mg104 2.048 . S
O112 C105 1.195 . S
O113 Mg104 2.048 . S
O113 C114 1.195 . S
C114 O113 1.195 . S
C114 O115 1.313 . S
O115 C114 1.313 . S
O116 Mg104 2.141 . S
O116 C107 1.289 . S
Mg117 O124 2.141 . S
Mg117 O125 2.048 . S
Mg117 O126 2.048 . S
Mg117 O129 2.141 . S
C118 O119 1.313 . S
C118 O125 1.195 . S
O119 C118 1.313 . S
C120 O121 1.245 . S
C120 O129 1.289 . S
O121 C120 1.245 . S
C122 O123 1.245 . S
C122 O124 1.289 . S
O123 C122 1.245 . S
O124 Mg117 2.141 . S
O124 C122 1.289 . S
O125 Mg117 2.048 . S
O125 C118 1.195 . S
O126 Mg117 2.048 . S
O126 C127 1.195 . S
C127 O126 1.195 . S
C127 O128 1.313 . S
O128 C127 1.313 . S
O129 Mg117 2.141 . S
O129 C120 1.289 . S
Mg130 O137 2.141 . S
Mg130 O138 2.048 . S
Mg130 O139 2.048 . S
Mg130 O142 2.141 . S
C131 O132 1.313 . S
C131 O138 1.195 . S
O132 C131 1.313 . S
C133 O134 1.245 . S
C133 O142 1.289 . S
O134 C133 1.245 . S
C135 O136 1.245 . S
C135 O137 1.289 . S
O136 C135 1.245 . S
O137 Mg130 2.141 . S
O137 C135 1.289 . S
O138 Mg130 2.048 . S
O138 C131 1.195 . S
O139 Mg130 2.048 . S
O139 C140 1.195 . S
C140 O139 1.195 . S
C140 O141 1.313 . S
O141 C140 1.313 . S
O142 Mg130 2.141 . S
O142 C133 1.289 . S
Mg143 O150 2.141 . S
Mg143 O151 2.048 . S
Mg143 O152 2.048 . S
Mg143 O155 2.141 . S
C144 O145 1.313 . S
C144 O151 1.195 . S
O145 C144 1.313 . S
C146 O147 1.245 . S
C146 O155 1.289 . S
O147 C146 1.245 . S
C148 O149 1.245 . S
C148 O150 1.289 . S
O149 C148 1.245 . S
O150 Mg143 2.141 . S
O150 C148 1.289 . S
O151 Mg143 2.048 . S
O151 C144 1.195 . S
O152 Mg143 2.048 . S
O152 C153 1.195 . S
C153 O152 1.195 . S
C153 O154 1.313 . S
O154 C153 1.313 . S
O155 Mg143 2.141 . S
O155 C146 1.289 . S
C156 C157 1.387 . S
C156 H160 0.950 . S
C156 C165 1.390 . S
C157 C156 1.387 . S
C157 C159 1.387 1_655 S
H158 C165 0.950 . S
C159 C157 1.387 1_455 S
C159 C161 1.390 . S
C159 H163 0.950 . S
H160 C156 0.950 . S
C161 C159 1.390 . S
C161 C162 1.387 . S
C161 H164 0.950 . S
C162 C161 1.387 . S
C162 C165 1.387 1_455 S
H163 C159 0.950 . S
H164 C161 0.950 . S
C165 C156 1.390 . S
C165 H158 0.950 . S
C165 C162 1.387 1_655 S
C166 C167 1.387 . S
C166 H170 0.950 . S
C166 C175 1.390 1_545 S
C167 C166 1.387 . S
C167 C169 1.387 . S
H168 C175 0.950 . S
C169 C167 1.387 . S
C169 C171 1.390 1_545 S
C169 H173 0.950 . S
H170 C166 0.950 . S
C171 C169 1.390 1_565 S
C171 C172 1.387 . S
C171 H174 0.950 . S
C172 C171 1.387 . S
C172 C175 1.387 . S
H173 C169 0.950 . S
H174 C171 0.950 . S
C175 C166 1.390 1_565 S
C175 H168 0.950 . S
C175 C172 1.387 . S
C176 C177 1.387 . S
C176 H180 0.950 . S
C176 C185 1.390 . S
C177 C176 1.387 . S
C177 C179 1.387 . S
H178 C185 0.950 . S
C179 C177 1.387 . S
C179 C181 1.390 . S
C179 H183 0.950 . S
H180 C176 0.950 . S
C181 C179 1.390 . S
C181 C182 1.387 . S
C181 H184 0.950 . S
C182 C181 1.387 . S
C182 C185 1.387 . S
H183 C179 0.950 . S
H184 C181 0.950 . S
C185 C176 1.390 . S
C185 H178 0.950 . S
C185 C182 1.387 . S
C186 C187 1.387 1_455 S
C186 H190 0.950 . S
C186 C195 1.390 . S
C187 C186 1.387 1_655 S
C187 C189 1.387 . S
H188 C195 0.950 . S
C189 C187 1.387 . S
C189 C191 1.390 . S
C189 H193 0.950 . S
H190 C186 0.950 . S
C191 C189 1.390 . S
C191 C192 1.387 1_655 S
C191 H194 0.950 . S
C192 C191 1.387 1_455 S
C192 C195 1.387 . S
H193 C189 0.950 . S
H194 C191 0.950 . S
C195 C186 1.390 . S
C195 H188 0.950 . S
C195 C192 1.387 . S
C196 C197 1.387 . S
C196 H200 0.950 . S
C196 C205 1.390 1_545 S
C197 C196 1.387 . S
C197 C199 1.387 . S
H198 C205 0.950 . S
C199 C197 1.387 . S
C199 C201 1.390 1_545 S
C199 H203 0.950 . S
H200 C196 0.950 . S
C201 C199 1.390 1_565 S
C201 C202 1.387 . S
C201 H204 0.950 . S
C202 C201 1.387 . S
C202 C205 1.387 . S
H203 C199 0.950 . S
H204 C201 0.950 . S
C205 C196 1.390 1_565 S
C205 H198 0.950 . S
C205 C202 1.387 . S
C206 C207 1.387 . S
C206 H210 0.950 . S
C206 C215 1.390 . S
C207 C206 1.387 . S
C207 C209 1.387 . S
H208 C215 0.950 . S
C209 C207 1.387 . S
C209 C211 1.390 . S
C209 H213 0.950 . S
H210 C206 0.950 . S
C211 C209 1.390 . S
C211 C212 1.387 . S
C211 H214 0.950 . S
C212 C211 1.387 . S
C212 C215 1.387 . S
H213 C209 0.950 . S
H214 C211 0.950 . S
C215 C206 1.390 . S
C215 H208 0.950 . S
C215 C212 1.387 . S
C216 C217 1.387 . S
C216 H220 0.950 . S
C216 C225 1.390 1_554 S
C217 C216 1.387 . S
C217 C219 1.387 . S
H218 C225 0.950 . S
C219 C217 1.387 . S
C219 C221 1.390 1_554 S
C219 H223 0.950 . S
H220 C216 0.950 . S
C221 C219 1.390 1_556 S
C221 C222 1.387 . S
C221 H224 0.950 . S
C222 C221 1.387 . S
C222 C225 1.387 . S
H223 C219 0.950 . S
H224 C221 0.950 . S
C225 C216 1.390 1_556 S
C225 H218 0.950 . S
C225 C222 1.387 . S
C226 C227 1.387 . S
C226 H230 0.950 . S
C226 C235 1.390 . S
C227 C226 1.387 . S
C227 C229 1.387 . S
H228 C235 0.950 . S
C229 C227 1.387 . S
C229 C231 1.390 . S
C229 H233 0.950 . S
H230 C226 0.950 . S
C231 C229 1.390 . S
C231 C232 1.387 . S
C231 H234 0.950 . S
C232 C231 1.387 . S
C232 C235 1.387 . S
H233 C229 0.950 . S
H234 C231 0.950 . S
C235 C226 1.390 . S
C235 H228 0.950 . S
C235 C232 1.387 . S
C236 C237 1.387 . S
C236 H240 0.950 . S
C236 C245 1.390 . S
C237 C236 1.387 . S
C237 C239 1.387 . S
H238 C245 0.950 . S
C239 C237 1.387 . S
C239 C241 1.390 . S
C239 H243 0.950 . S
H240 C236 0.950 . S
C241 C239 1.390 . S
C241 C242 1.387 . S
C241 H244 0.950 . S
C242 C241 1.387 . S
C242 C245 1.387 . S
H243 C239 0.950 . S
H244 C241 0.950 . S
C245 C236 1.390 . S
C245 H238 0.950 . S
C245 C242 1.387 . S
C246 C247 1.387 . S
C246 H250 0.950 . S
C246 C255 1.390 1_554 S
C247 C246 1.387 . S
C247 C249 1.387 . S
H248 C255 0.950 . S
C249 C247 1.387 . S
C249 C251 1.390 1_554 S
C249 H253 0.950 . S
H250 C246 0.950 . S
C251 C249 1.390 1_556 S
C251 C252 1.387 . S
C251 H254 0.950 . S
C252 C251 1.387 . S
C252 C255 1.387 . S
H253 C249 0.950 . S
H254 C251 0.950 . S
C255 C246 1.390 1_556 S
C255 H248 0.950 . S
C255 C252 1.387 . S
C256 C257 1.387 . S
C256 H260 0.950 . S
C256 C265 1.390 . S
C257 C256 1.387 . S
C257 C259 1.387 . S
H258 C265 0.950 . S
C259 C257 1.387 . S
C259 C261 1.390 . S
C259 H263 0.950 . S
H260 C256 0.950 . S
C261 C259 1.390 . S
C261 C262 1.387 . S
C261 H264 0.950 . S
C262 C261 1.387 . S
C262 C265 1.387 . S
H263 C259 0.950 . S
H264 C261 0.950 . S
C265 C256 1.390 . S
C265 H258 0.950 . S
C265 C262 1.387 . S
C266 C267 1.387 . S
C266 H270 0.950 . S
C266 C275 1.390 . S
C267 C266 1.387 . S
C267 C269 1.387 . S
H268 C275 0.950 . S
C269 C267 1.387 . S
C269 C271 1.390 . S
C269 H273 0.950 . S
H270 C266 0.950 . S
C271 C269 1.390 . S
C271 C272 1.387 . S
C271 H274 0.950 . S
C272 C271 1.387 . S
C272 C275 1.387 . S
H273 C269 0.950 . S
H274 C271 0.950 . S
C275 C266 1.390 . S
C275 H268 0.950 . S
C275 C272 1.387 . S
C276 C277 1.387 . S
C276 H280 0.950 . S
C276 C285 1.390 1_655 S
C277 C276 1.387 . S
C277 C279 1.387 . S
H278 C285 0.950 . S
C279 C277 1.387 . S
C279 C281 1.390 1_655 S
C279 H283 0.950 . S
H280 C276 0.950 . S
C281 C279 1.390 1_455 S
C281 C282 1.387 . S
C281 H284 0.950 . S
C282 C281 1.387 . S
C282 C285 1.387 . S
H283 C279 0.950 . S
H284 C281 0.950 . S
C285 C276 1.390 1_455 S
C285 H278 0.950 . S
C285 C282 1.387 . S
C286 C287 1.387 . S
C286 H290 0.950 . S
C286 C295 1.390 1_545 S
C287 C286 1.387 . S
C287 C289 1.387 . S
H288 C295 0.950 . S
C289 C287 1.387 . S
C289 C291 1.390 1_545 S
C289 H293 0.950 . S
H290 C286 0.950 . S
C291 C289 1.390 1_565 S
C291 C292 1.387 . S
C291 H294 0.950 . S
C292 C291 1.387 . S
C292 C295 1.387 . S
H293 C289 0.950 . S
H294 C291 0.950 . S
C295 C286 1.390 1_565 S
C295 H288 0.950 . S
C295 C292 1.387 . S
C296 C297 1.387 . S
C296 H300 0.950 . S
C296 C305 1.390 . S
C297 C296 1.387 . S
C297 C299 1.387 . S
H298 C305 0.950 . S
C299 C297 1.387 . S
C299 C301 1.390 . S
C299 H303 0.950 . S
H300 C296 0.950 . S
C301 C299 1.390 . S
C301 C302 1.387 . S
C301 H304 0.950 . S
C302 C301 1.387 . S
C302 C305 1.387 . S
H303 C299 0.950 . S
H304 C301 0.950 . S
C305 C296 1.390 . S
C305 H298 0.950 . S
C305 C302 1.387 . S
C306 C307 1.387 . S
C306 H310 0.950 . S
C306 C315 1.390 1_545 S
C307 C306 1.387 . S
C307 C309 1.387 . S
H308 C315 0.950 . S
C309 C307 1.387 . S
C309 C311 1.390 1_545 S
C309 H313 0.950 . S
H310 C306 0.950 . S
C311 C309 1.390 1_565 S
C311 C312 1.387 . S
C311 H314 0.950 . S
C312 C311 1.387 . S
C312 C315 1.387 . S
H313 C309 0.950 . S
H314 C311 0.950 . S
C315 C306 1.390 1_565 S
C315 H308 0.950 . S
C315 C312 1.387 . S
C316 C317 1.387 . S
C316 H320 0.950 . S
C316 C325 1.390 . S
C317 C316 1.387 . S
C317 C319 1.387 . S
H318 C325 0.950 . S
C319 C317 1.387 . S
C319 C321 1.390 . S
C319 H323 0.950 . S
H320 C316 0.950 . S
C321 C319 1.390 . S
C321 C322 1.387 . S
C321 H324 0.950 . S
C322 C321 1.387 . S
C322 C325 1.387 . S
H323 C319 0.950 . S
H324 C321 0.950 . S
C325 C316 1.390 . S
C325 H318 0.950 . S
C325 C322 1.387 . S
C326 C327 1.387 . S
C326 H330 0.950 . S
C326 C335 1.390 1_455 S
C327 C326 1.387 . S
C327 C329 1.387 . S
H328 C335 0.950 . S
C329 C327 1.387 . S
C329 C331 1.390 1_455 S
C329 H333 0.950 . S
H330 C326 0.950 . S
C331 C329 1.390 1_655 S
C331 C332 1.387 . S
C331 H334 0.950 . S
C332 C331 1.387 . S
C332 C335 1.387 . S
H333 C329 0.950 . S
H334 C331 0.950 . S
C335 C326 1.390 1_655 S
C335 H328 0.950 . S
C335 C332 1.387 . S
C336 C337 1.387 . S
C336 H340 0.950 . S
C336 C345 1.390 1_445 S
C337 C336 1.387 . S
C337 C339 1.387 . S
H338 C345 0.950 . S
C339 C337 1.387 . S
C339 C341 1.390 1_445 S
C339 H343 0.950 . S
H340 C336 0.950 . S
C341 C339 1.390 1_665 S
C341 C342 1.387 . S
C341 H344 0.950 . S
C342 C341 1.387 . S
C342 C345 1.387 . S
H343 C339 0.950 . S
H344 C341 0.950 . S
C345 C336 1.390 1_665 S
C345 H338 0.950 . S
C345 C342 1.387 . S
C346 C347 1.387 . S
C346 H350 0.950 . S
C346 C355 1.390 1_645 S
C347 C346 1.387 . S
C347 C349 1.387 . S
H348 C355 0.950 . S
C349 C347 1.387 . S
C349 C351 1.390 1_645 S
C349 H353 0.950 . S
H350 C346 0.950 . S
C351 C349 1.390 1_465 S
C351 C352 1.387 . S
C351 H354 0.950 . S
C352 C351 1.387 . S
C352 C355 1.387 . S
H353 C349 0.950 . S
H354 C351 0.950 . S
C355 C346 1.390 1_465 S
C355 H348 0.950 . S
C355 C352 1.387 . S
C356 C357 1.387 . S
C356 H360 0.950 . S
C356 C365 1.390 1_445 S
C357 C356 1.387 . S
C357 C359 1.387 . S
H358 C365 0.950 . S
C359 C357 1.387 . S
C359 C361 1.390 1_445 S
C359 H363 0.950 . S
H360 C356 0.950 . S
C361 C359 1.390 1_665 S
C361 C362 1.387 . S
C361 H364 0.950 . S
C362 C361 1.387 . S
C362 C365 1.387 . S
H363 C359 0.950 . S
H364 C361 0.950 . S
C365 C356 1.390 1_665 S
C365 H358 0.950 . S
C365 C362 1.387 . S
C366 C367 1.387 . S
C366 H370 0.950 . S
C366 C375 1.390 1_665 S
C367 C366 1.387 . S
C367 C369 1.387 . S
H368 C375 0.950 . S
C369 C367 1.387 . S
C369 C371 1.390 1_665 S
C369 H373 0.950 . S
H370 C366 0.950 . S
C371 C369 1.390 1_445 S
C371 C372 1.387 . S
C371 H374 0.950 . S
C372 C371 1.387 . S
C372 C375 1.387 . S
H373 C369 0.950 . S
H374 C371 0.950 . S
C375 C366 1.390 1_445 S
C375 H368 0.950 . S
C375 C372 1.387 . S
C376 C377 1.387 . S
C376 H380 0.950 . S
C376 C385 1.390 1_665 S
C377 C376 1.387 . S
C377 C379 1.387 . S
H378 C385 0.950 . S
C379 C377 1.387 . S
C379 C381 1.390 1_665 S
C379 H383 0.950 . S
H380 C376 0.950 . S
C381 C379 1.390 1_445 S
C381 C382 1.387 . S
C381 H384 0.950 . S
C382 C381 1.387 . S
C382 C385 1.387 . S
H383 C379 0.950 . S
H384 C381 0.950 . S
C385 C376 1.390 1_445 S
C385 H378 0.950 . S
C385 C382 1.387 . S
C386 C387 1.387 . S
C386 H390 0.950 . S
C386 C395 1.390 1_465 S
C387 C386 1.387 . S
C387 C389 1.387 . S
H388 C395 0.950 . S
C389 C387 1.387 . S
C389 C391 1.390 1_465 S
C389 H393 0.950 . S
H390 C386 0.950 . S
C391 C389 1.390 1_645 S
C391 C392 1.387 . S
C391 H394 0.950 . S
C392 C391 1.387 . S
C392 C395 1.387 . S
H393 C389 0.950 . S
H394 C391 0.950 . S
C395 C386 1.390 1_645 S
C395 H388 0.950 . S
C395 C392 1.387 . S
C157 C144 1.502 . S
C162 C1 1.503 . S
C167 C14 1.503 . S
C172 C79 1.503 . S
C177 C27 1.501 . S
C182 C92 1.501 . S
C187 C40 1.501 . S
C192 C105 1.501 . S
C197 C118 1.501 . S
C202 C53 1.501 . S
C207 C66 1.502 . S
C212 C131 1.503 . S
C217 C3 1.509 . S
C222 C133 1.509 . S
C227 C16 1.508 . S
C232 C146 1.507 . S
C237 C29 1.509 . S
C242 C81 1.509 . S
C247 C42 1.507 . S
C252 C94 1.507 . S
C257 C107 1.507 . S
C262 C55 1.507 . S
C267 C120 1.508 . S
C272 C68 1.508 . S
C277 C44 1.800 . S
C282 C5 1.800 . S
C287 C18 1.798 . S
C292 C57 1.798 . S
C297 C70 1.798 . S
C302 C31 1.798 . S
C307 C122 1.800 . S
C312 C83 1.800 . S
C317 C135 1.799 . S
C322 C96 1.799 . S
C327 C109 1.799 . S
C332 C148 1.799 . S
C337 C10 1.701 . S
C342 C49 1.701 . S
C347 C23 1.701 . S
C352 C62 1.701 . S
C357 C75 1.701 . S
C362 C36 1.701 . S
C367 C88 1.701 . S
C372 C127 1.701 . S
C377 C101 1.699 . S
C382 C140 1.699 . S
C387 C114 1.699 . S
C392 C153 1.699 . S
