# Generated by pormake.
# Topology unu, (4)-cn, num edge types: 1
# Building blocks:
#     Node 0, Type 0, BuildingBlock: GALJAG_clean_sbu_0, # of connection points: 4
#     Node 1, Type 0, BuildingBlock: GALJAG_clean_sbu_0, # of connection points: 4
#     Node 2, Type 0, BuildingBlock: GALJAG_clean_sbu_0, # of connection points: 4
#     Node 3, Type 0, BuildingBlock: GALJAG_clean_sbu_0, # of connection points: 4
#     Node 4, Type 0, BuildingBlock: GALJAG_clean_sbu_0, # of connection points: 4
#     Node 5, Type 0, BuildingBlock: GALJAG_clean_sbu_0, # of connection points: 4
#     Node 6, Type 0, BuildingBlock: GALJAG_clean_sbu_0, # of connection points: 4
#     Node 7, Type 0, BuildingBlock: GALJAG_clean_sbu_0, # of connection points: 4
#     Node 8, Type 0, BuildingBlock: GALJAG_clean_sbu_0, # of connection points: 4
#     Node 9, Type 0, BuildingBlock: GALJAG_clean_sbu_0, # of connection points: 4
#     Node 10, Type 0, BuildingBlock: GALJAG_clean_sbu_0, # of connection points: 4
#     Node 11, Type 0, BuildingBlock: GALJAG_clean_sbu_0, # of connection points: 4
#     Node 12, Type 0, BuildingBlock: GALJAG_clean_sbu_0, # of connection points: 4
#     Node 13, Type 0, BuildingBlock: GALJAG_clean_sbu_0, # of connection points: 4
#     Node 14, Type 0, BuildingBlock: GALJAG_clean_sbu_0, # of connection points: 4
#     Node 15, Type 0, BuildingBlock: GALJAG_clean_sbu_0, # of connection points: 4
#     Node 16, Type 0, BuildingBlock: GALJAG_clean_sbu_0, # of connection points: 4
#     Node 17, Type 0, BuildingBlock: GALJAG_clean_sbu_0, # of connection points: 4
#     Node 18, Type 0, BuildingBlock: GALJAG_clean_sbu_0, # of connection points: 4
#     Node 19, Type 0, BuildingBlock: GALJAG_clean_sbu_0, # of connection points: 4
#     Node 20, Type 0, BuildingBlock: GALJAG_clean_sbu_0, # of connection points: 4
#     Node 21, Type 0, BuildingBlock: GALJAG_clean_sbu_0, # of connection points: 4
#     Node 22, Type 0, BuildingBlock: GALJAG_clean_sbu_0, # of connection points: 4
#     Node 23, Type 0, BuildingBlock: GALJAG_clean_sbu_0, # of connection points: 4
#     Node 24, Type 0, BuildingBlock: GALJAG_clean_sbu_0, # of connection points: 4
#     Node 25, Type 0, BuildingBlock: GALJAG_clean_sbu_0, # of connection points: 4
#     Node 26, Type 0, BuildingBlock: GALJAG_clean_sbu_0, # of connection points: 4
#     Node 27, Type 0, BuildingBlock: GALJAG_clean_sbu_0, # of connection points: 4
#     Node 28, Type 0, BuildingBlock: GALJAG_clean_sbu_0, # of connection points: 4
#     Node 29, Type 0, BuildingBlock: GALJAG_clean_sbu_0, # of connection points: 4
#     Node 30, Type 0, BuildingBlock: GALJAG_clean_sbu_0, # of connection points: 4
#     Node 31, Type 0, BuildingBlock: GALJAG_clean_sbu_0, # of connection points: 4
#     Node 32, Type 0, BuildingBlock: GALJAG_clean_sbu_0, # of connection points: 4
#     Node 33, Type 0, BuildingBlock: GALJAG_clean_sbu_0, # of connection points: 4
#     Node 34, Type 0, BuildingBlock: GALJAG_clean_sbu_0, # of connection points: 4
#     Node 35, Type 0, BuildingBlock: GALJAG_clean_sbu_0, # of connection points: 4
#     Edge 36, Type (0, 0), BuildingBlock: AJUNOK_clean_linker_0, # of connection points: 2
#     Edge 37, Type (0, 0), BuildingBlock: AJUNOK_clean_linker_0, # of connection points: 2
#     Edge 38, Type (0, 0), BuildingBlock: AJUNOK_clean_linker_0, # of connection points: 2
#     Edge 39, Type (0, 0), BuildingBlock: AJUNOK_clean_linker_0, # of connection points: 2
#     Edge 40, Type (0, 0), BuildingBlock: AJUNOK_clean_linker_0, # of connection points: 2
#     Edge 41, Type (0, 0), BuildingBlock: AJUNOK_clean_linker_0, # of connection points: 2
#     Edge 42, Type (0, 0), BuildingBlock: AJUNOK_clean_linker_0, # of connection points: 2
#     Edge 43, Type (0, 0), BuildingBlock: AJUNOK_clean_linker_0, # of connection points: 2
#     Edge 44, Type (0, 0), BuildingBlock: AJUNOK_clean_linker_0, # of connection points: 2
#     Edge 45, Type (0, 0), BuildingBlock: AJUNOK_clean_linker_0, # of connection points: 2
#     Edge 46, Type (0, 0), BuildingBlock: AJUNOK_clean_linker_0, # of connection points: 2
#     Edge 47, Type (0, 0), BuildingBlock: AJUNOK_clean_linker_0, # of connection points: 2
#     Edge 48, Type (0, 0), BuildingBlock: AJUNOK_clean_linker_0, # of connection points: 2
#     Edge 49, Type (0, 0), BuildingBlock: AJUNOK_clean_linker_0, # of connection points: 2
#     Edge 50, Type (0, 0), BuildingBlock: AJUNOK_clean_linker_0, # of connection points: 2
#     Edge 51, Type (0, 0), BuildingBlock: AJUNOK_clean_linker_0, # of connection points: 2
#     Edge 52, Type (0, 0), BuildingBlock: AJUNOK_clean_linker_0, # of connection points: 2
#     Edge 53, Type (0, 0), BuildingBlock: AJUNOK_clean_linker_0, # of connection points: 2
#     Edge 54, Type (0, 0), BuildingBlock: AJUNOK_clean_linker_0, # of connection points: 2
#     Edge 55, Type (0, 0), BuildingBlock: AJUNOK_clean_linker_0, # of connection points: 2
#     Edge 56, Type (0, 0), BuildingBlock: AJUNOK_clean_linker_0, # of connection points: 2
#     Edge 57, Type (0, 0), BuildingBlock: AJUNOK_clean_linker_0, # of connection points: 2
#     Edge 58, Type (0, 0), BuildingBlock: AJUNOK_clean_linker_0, # of connection points: 2
#     Edge 59, Type (0, 0), BuildingBlock: AJUNOK_clean_linker_0, # of connection points: 2
#     Edge 60, Type (0, 0), BuildingBlock: AJUNOK_clean_linker_0, # of connection points: 2
#     Edge 61, Type (0, 0), BuildingBlock: AJUNOK_clean_linker_0, # of connection points: 2
#     Edge 62, Type (0, 0), BuildingBlock: AJUNOK_clean_linker_0, # of connection points: 2
#     Edge 63, Type (0, 0), BuildingBlock: AJUNOK_clean_linker_0, # of connection points: 2
#     Edge 64, Type (0, 0), BuildingBlock: AJUNOK_clean_linker_0, # of connection points: 2
#     Edge 65, Type (0, 0), BuildingBlock: AJUNOK_clean_linker_0, # of connection points: 2
#     Edge 66, Type (0, 0), BuildingBlock: AJUNOK_clean_linker_0, # of connection points: 2
#     Edge 67, Type (0, 0), BuildingBlock: AJUNOK_clean_linker_0, # of connection points: 2
#     Edge 68, Type (0, 0), BuildingBlock: AJUNOK_clean_linker_0, # of connection points: 2
#     Edge 69, Type (0, 0), BuildingBlock: AJUNOK_clean_linker_0, # of connection points: 2
#     Edge 70, Type (0, 0), BuildingBlock: AJUNOK_clean_linker_0, # of connection points: 2
#     Edge 71, Type (0, 0), BuildingBlock: AJUNOK_clean_linker_0, # of connection points: 2
#     Edge 72, Type (0, 0), BuildingBlock: AJUNOK_clean_linker_0, # of connection points: 2
#     Edge 73, Type (0, 0), BuildingBlock: AJUNOK_clean_linker_0, # of connection points: 2
#     Edge 74, Type (0, 0), BuildingBlock: AJUNOK_clean_linker_0, # of connection points: 2
#     Edge 75, Type (0, 0), BuildingBlock: AJUNOK_clean_linker_0, # of connection points: 2
#     Edge 76, Type (0, 0), BuildingBlock: AJUNOK_clean_linker_0, # of connection points: 2
#     Edge 77, Type (0, 0), BuildingBlock: AJUNOK_clean_linker_0, # of connection points: 2
#     Edge 78, Type (0, 0), BuildingBlock: AJUNOK_clean_linker_0, # of connection points: 2
#     Edge 79, Type (0, 0), BuildingBlock: AJUNOK_clean_linker_0, # of connection points: 2
#     Edge 80, Type (0, 0), BuildingBlock: AJUNOK_clean_linker_0, # of connection points: 2
#     Edge 81, Type (0, 0), BuildingBlock: AJUNOK_clean_linker_0, # of connection points: 2
#     Edge 82, Type (0, 0), BuildingBlock: AJUNOK_clean_linker_0, # of connection points: 2
#     Edge 83, Type (0, 0), BuildingBlock: AJUNOK_clean_linker_0, # of connection points: 2
#     Edge 84, Type (0, 0), BuildingBlock: AJUNOK_clean_linker_0, # of connection points: 2
#     Edge 85, Type (0, 0), BuildingBlock: AJUNOK_clean_linker_0, # of connection points: 2
#     Edge 86, Type (0, 0), BuildingBlock: AJUNOK_clean_linker_0, # of connection points: 2
#     Edge 87, Type (0, 0), BuildingBlock: AJUNOK_clean_linker_0, # of connection points: 2
#     Edge 88, Type (0, 0), BuildingBlock: AJUNOK_clean_linker_0, # of connection points: 2
#     Edge 89, Type (0, 0), BuildingBlock: AJUNOK_clean_linker_0, # of connection points: 2
#     Edge 90, Type (0, 0), BuildingBlock: AJUNOK_clean_linker_0, # of connection points: 2
#     Edge 91, Type (0, 0), BuildingBlock: AJUNOK_clean_linker_0, # of connection points: 2
#     Edge 92, Type (0, 0), BuildingBlock: AJUNOK_clean_linker_0, # of connection points: 2
#     Edge 93, Type (0, 0), BuildingBlock: AJUNOK_clean_linker_0, # of connection points: 2
#     Edge 94, Type (0, 0), BuildingBlock: AJUNOK_clean_linker_0, # of connection points: 2
#     Edge 95, Type (0, 0), BuildingBlock: AJUNOK_clean_linker_0, # of connection points: 2
#     Edge 96, Type (0, 0), BuildingBlock: AJUNOK_clean_linker_0, # of connection points: 2
#     Edge 97, Type (0, 0), BuildingBlock: AJUNOK_clean_linker_0, # of connection points: 2
#     Edge 98, Type (0, 0), BuildingBlock: AJUNOK_clean_linker_0, # of connection points: 2
#     Edge 99, Type (0, 0), BuildingBlock: AJUNOK_clean_linker_0, # of connection points: 2
#     Edge 100, Type (0, 0), BuildingBlock: AJUNOK_clean_linker_0, # of connection points: 2
#     Edge 101, Type (0, 0), BuildingBlock: AJUNOK_clean_linker_0, # of connection points: 2
#     Edge 102, Type (0, 0), BuildingBlock: AJUNOK_clean_linker_0, # of connection points: 2
#     Edge 103, Type (0, 0), BuildingBlock: AJUNOK_clean_linker_0, # of connection points: 2
#     Edge 104, Type (0, 0), BuildingBlock: AJUNOK_clean_linker_0, # of connection points: 2
#     Edge 105, Type (0, 0), BuildingBlock: AJUNOK_clean_linker_0, # of connection points: 2
#     Edge 106, Type (0, 0), BuildingBlock: AJUNOK_clean_linker_0, # of connection points: 2
#     Edge 107, Type (0, 0), BuildingBlock: AJUNOK_clean_linker_0, # of connection points: 2
# Relax obj value: 0.103
# Max RMSD: 0.228
# Mean RMSD: 0.228
data_MOF--net-unu--node1-GALJAG_clean_sbu_0--edge1-AJUNOK_clean_linker_0
_symmetry_space_group_name_H-M    P1
_symmetry_Int_Tables_number       1
_symmetry_cell_setting            triclinic
loop_
_symmetry_equiv_pos_as_xyz
'x, y, z'
_cell_length_a     34.525728
_cell_length_b     34.547189
_cell_length_c     52.061611
_cell_angle_alpha  89.993096
_cell_angle_beta   90.068801
_cell_angle_gamma 120.03519
loop_
_atom_site_label
_atom_site_type_symbol
_atom_site_fract_x
_atom_site_fract_y
_atom_site_fract_z
_atom_type_partial_charge
In0 In 0.17962 0.01591 0.10257 0.0
O1 O 0.22033 0.00477 0.07228 0.0
O2 O 0.21277 0.97623 0.10997 0.0
C3 C 0.14381 0.06735 0.09602 0.0
C4 C 0.24433 0.07736 0.13128 0.0
C5 C 0.1009 0.94083 0.1016 0.0
O6 O 0.16187 0.05875 0.07719 0.0
O7 O 0.14441 0.04995 0.11728 0.0
O8 O 0.12214 0.95726 0.12241 0.0
O9 O 0.12038 0.96196 0.08138 0.0
C10 C 0.22969 0.98207 0.08778 0.0
O11 O 0.21175 0.04261 0.1411 0.0
O12 O 0.24383 0.08031 0.10701 0.0
In13 In 0.94831 0.14016 0.1007 0.0
O14 O 0.96091 0.1953 0.07265 0.0
O15 O -0.00858 0.21174 0.11021 0.0
C16 C 0.89441 0.05317 0.09535 0.0
C17 C 0.88926 0.14704 0.1293 0.0
C18 C 0.02183 0.13462 0.09644 0.0
O19 O 0.90278 0.07935 0.07626 0.0
O20 O 0.91327 0.0715 0.11633 0.0
O21 O 0.00737 0.13906 0.11806 0.0
O22 O -0.00071 0.13394 0.07702 0.0
C23 C 0.98526 0.22546 0.08888 0.0
O24 O 0.92275 0.1465 0.13916 0.0
O25 O 0.88596 0.14367 0.105 0.0
In26 In 0.82337 0.78677 0.10523 0.0
O27 O 0.77374 0.74207 0.07497 0.0
O28 O 0.75 0.75224 0.11118 0.0
C29 C 0.91103 0.82176 0.10149 0.0
C30 C 0.81895 0.72555 0.13728 0.0
C31 C 0.82556 0.86416 0.09883 0.0
O32 O 0.88572 0.80181 0.08237 0.0
O33 O 0.89169 0.82419 0.12154 0.0
O34 O 0.81966 0.84581 0.12075 0.0
O35 O 0.82906 0.84246 0.08025 0.0
C36 C 0.74064 0.73286 0.08958 0.0
O37 O 0.81581 0.75872 0.14519 0.0
O38 O 0.82409 0.72387 0.11326 0.0
In39 In 0.02141 0.19207 0.39337 0.0
O40 O 0.01301 0.2303 0.42626 0.0
O41 O 0.98281 0.22787 0.38976 0.0
C42 C 0.07289 0.15593 0.40037 0.0
C43 C 0.08178 0.25725 0.36424 0.0
C44 C 0.94568 0.11339 0.39331 0.0
O45 O 0.06402 0.17414 0.41895 0.0
O46 O 0.05596 0.15666 0.37896 0.0
O47 O 0.96244 0.13508 0.37269 0.0
O48 O 0.96664 0.13245 0.41362 0.0
C49 C -0.00983 0.2422 0.41262 0.0
O50 O 0.04608 0.2254 0.35469 0.0
O51 O 0.08607 0.25571 0.38831 0.0
In52 In 0.79223 0.83498 0.38774 0.0
O53 O 0.7604 0.822 0.34827 0.0
O54 O 0.72727 0.83217 0.3803 0.0
C55 C 0.87156 0.8401 0.39221 0.0
C56 C 0.74453 0.75495 0.40904 0.0
C57 C 0.82633 0.92294 0.39144 0.0
O58 O 0.85193 0.83334 0.37061 0.0
O59 O 0.85041 0.84323 0.41115 0.0
O60 O 0.80633 0.89729 0.41035 0.0
O61 O 0.82828 0.90369 0.37123 0.0
C62 C 0.72717 0.82476 0.35646 0.0
O63 O 0.75421 0.79043 0.42143 0.0
O64 O 0.75927 0.76056 0.3863 0.0
In65 In 0.1498 0.96283 0.40059 0.0
O66 O 0.16301 0.93757 0.36366 0.0
O67 O 0.15222 0.89957 0.39841 0.0
C68 C 0.14299 0.03586 0.40322 0.0
C69 C 0.23166 0.00063 0.41966 0.0
C70 C 0.06171 0.91055 0.40037 0.0
O71 O 0.15211 0.0231 0.38228 0.0
O72 O 0.13852 0.01201 0.42273 0.0
O73 O 0.08431 0.91597 0.42081 0.0
O74 O 0.08411 0.93131 0.38072 0.0
C75 C 0.15992 0.90303 0.37444 0.0
O76 O 0.19774 0.97555 0.43349 0.0
O77 O 0.22342 0.00619 0.39666 0.0
In78 In 0.79023 0.94142 0.87305 0.0
O79 O 0.75415 0.95613 0.90478 0.0
O80 O 0.75969 0.98471 0.8675 0.0
C81 C 0.82293 0.88986 0.88845 0.0
C82 C 0.72472 0.88171 0.84344 0.0
C83 C 0.87138 0.01381 0.86888 0.0
O84 O 0.80633 0.90522 0.90447 0.0
O85 O 0.82133 0.8996 0.86527 0.0
O86 O 0.84991 -0.00805 0.84919 0.0
O87 O 0.85098 -0.00028 0.88993 0.0
C88 C 0.74559 0.98047 0.89028 0.0
O89 O 0.75848 0.91586 0.83412 0.0
O90 O 0.7245 0.8782 0.86765 0.0
In91 In 0.043 0.85658 0.91117 0.0
O92 O 0.03041 0.80301 0.94132 0.0
O93 O 0.00861 0.78402 0.90246 0.0
C94 C 0.09129 0.94277 0.92357 0.0
C95 C 0.10473 0.85957 0.87935 0.0
C96 C 0.96382 0.85229 0.90687 0.0
O97 O 0.07995 0.91304 0.94088 0.0
O98 O 0.07814 0.92854 0.90112 0.0
O99 O 0.98514 0.85033 0.88762 0.0
O100 O 0.98288 0.85699 0.92832 0.0
C101 C 0.0109 0.77172 0.92493 0.0
O102 O 0.06946 0.85856 0.87149 0.0
O103 O 0.10864 0.85889 0.90355 0.0
In104 In 0.14671 0.19202 0.88578 0.0
O105 O 0.14534 0.2336 0.85396 0.0
O106 O 0.14025 0.253 0.89286 0.0
C107 C 0.14762 0.12428 0.90865 0.0
C108 C 0.2344 0.24115 0.88515 0.0
C109 C 0.06061 0.14148 0.8767 0.0
O110 O 0.15486 0.13225 0.88473 0.0
O111 O 0.14063 0.15168 0.92149 0.0
O112 O 0.07576 0.16268 0.89773 0.0
O113 O 0.08972 0.14589 0.86008 0.0
C114 C 0.14134 0.26073 0.86878 0.0
O115 O 0.211 0.24051 0.90424 0.0
O116 O 0.21292 0.21581 0.8663 0.0
In117 In 0.96756 0.80582 0.58979 0.0
O118 O 0.98345 0.75281 0.57903 0.0
O119 O 0.01035 0.78712 0.61469 0.0
C120 C 0.93883 0.85935 0.60751 0.0
C121 C 0.88739 0.73797 0.60116 0.0
C122 C 0.02457 0.86429 0.55552 0.0
O123 O 0.92707 0.83911 0.58618 0.0
O124 O 0.96786 0.85448 0.62004 0.0
O125 O 0.03476 0.86295 0.57875 0.0
O126 O 0.98524 0.83459 0.54898 0.0
C127 C 0.00541 0.75635 0.59929 0.0
O128 O 0.91634 0.76188 0.61779 0.0
O129 O 0.89947 0.74708 0.57776 0.0
In130 In 0.17294 0.12384 0.55252 0.0
O131 O 0.21313 0.18704 0.52742 0.0
O132 O 0.20818 0.19247 0.56819 0.0
C133 C 0.13668 0.04117 0.5337 0.0
C134 C 0.23338 0.11775 0.58153 0.0
C135 C 0.0972 0.12392 0.56214 0.0
O136 O 0.15634 0.0745 0.51862 0.0
O137 O 0.13605 0.0503 0.55708 0.0
O138 O 0.12187 0.12251 0.57965 0.0
O139 O 0.11033 0.12453 0.5394 0.0
C140 C 0.22378 0.21215 0.54716 0.0
O141 O 0.19715 0.11309 0.59039 0.0
O142 O 0.23875 0.12462 0.55752 0.0
In143 In 0.84552 0.03732 0.61918 0.0
O144 O 0.84453 0.07488 0.6549 0.0
O145 O 0.84336 0.10081 0.61768 0.0
C146 C 0.86163 0.97024 0.62731 0.0
C147 C 0.75826 -0.00822 0.60856 0.0
C148 C 0.92408 0.08499 0.59583 0.0
O149 O 0.86892 -0.00137 0.64487 0.0
O150 O 0.84424 0.97485 0.60705 0.0
O151 O 0.88814 0.06425 0.58291 0.0
O152 O 0.91928 0.08229 0.61992 0.0
C153 C 0.84344 0.10537 0.64177 0.0
O154 O 0.78744 0.01226 0.59128 0.0
O155 O 0.77355 -0.00591 0.63096 0.0
In156 In 0.86046 0.37118 0.47646 0.0
O157 O 0.89872 0.36525 0.44259 0.0
O158 O 0.88862 0.32561 0.4764 0.0
C159 C 0.83225 0.43004 0.47505 0.0
C160 C 0.9263 0.42003 0.50907 0.0
C161 C 0.7788 0.30006 0.47114 0.0
O162 O 0.8493 0.42274 0.45526 0.0
O163 O 0.82996 0.40776 0.49481 0.0
O164 O 0.79916 0.31031 0.4926 0.0
O165 O 0.80031 0.32539 0.45262 0.0
C166 C 0.90519 0.33648 0.45412 0.0
O167 O 0.89091 0.38512 0.51639 0.0
O168 O 0.92786 0.4294 0.48543 0.0
In169 In 0.63641 0.50194 0.47955 0.0
O170 O 0.6146 0.5123 0.51924 0.0
O171 O 0.57592 0.50752 0.4858 0.0
C172 C 0.71242 0.49944 0.47788 0.0
C173 C 0.6653 0.57971 0.45573 0.0
C174 C 0.58139 0.41402 0.47502 0.0
O175 O 0.69854 0.50781 0.49858 0.0
O176 O 0.6882 0.4934 0.45838 0.0
O177 O 0.59023 0.4399 0.45586 0.0
O178 O 0.60067 0.43281 0.49574 0.0
C179 C 0.58051 0.51221 0.5099 0.0
O180 O 0.64011 0.54275 0.44453 0.0
O181 O 0.67592 0.57679 0.47863 0.0
In182 In 0.49983 0.14361 0.47055 0.0
O183 O 0.44902 0.10733 0.43894 0.0
O184 O 0.42642 0.11171 0.47679 0.0
C185 C 0.58787 0.18051 0.46669 0.0
C186 C 0.49365 0.07403 0.49537 0.0
C187 C 0.50559 0.22318 0.47134 0.0
O188 O 0.5629 0.16444 0.44693 0.0
O189 O 0.56783 0.17713 0.48764 0.0
O190 O 0.49883 0.2002 0.49166 0.0
O191 O 0.50783 0.20488 0.45073 0.0
C192 C 0.41621 0.09722 0.45402 0.0
O193 O 0.49102 0.10504 0.50701 0.0
O194 O 0.49909 0.07857 0.47123 0.0
In195 In 0.66539 0.52256 0.67045 0.0
O196 O 0.69574 0.55777 0.63222 0.0
O197 O 0.72654 0.58929 0.66792 0.0
C198 C 0.59152 0.44226 0.66883 0.0
C199 C 0.62762 0.56752 0.68924 0.0
C200 C 0.71817 0.48946 0.68326 0.0
O201 O 0.61001 0.4637 0.64837 0.0
O202 O 0.6098 0.46233 0.68947 0.0
O203 O 0.70567 0.50794 0.6998 0.0
O204 O 0.70462 0.48885 0.66061 0.0
C205 C 0.72697 0.59152 0.64368 0.0
O206 O 0.65171 0.55746 0.70301 0.0
O207 O 0.62252 0.55438 0.66615 0.0
In208 In 0.44597 0.16406 0.68001 0.0
O209 O 0.41355 0.14248 0.64069 0.0
O210 O 0.37875 0.15447 0.67122 0.0
C211 C 0.52579 0.17364 0.69058 0.0
C212 C 0.39931 0.08692 0.70434 0.0
C213 C 0.47668 0.25135 0.67536 0.0
O214 O 0.50784 0.16111 0.66851 0.0
O215 O 0.50284 0.18048 0.70699 0.0
O216 O 0.45725 0.2304 0.69583 0.0
O217 O 0.48011 0.22789 0.65782 0.0
C218 C 0.37855 0.14276 0.64811 0.0
O219 O 0.40693 0.12348 0.71472 0.0
O220 O 0.41623 0.09019 0.68231 0.0
In221 In 0.80171 0.30337 0.70995 0.0
O222 O 0.84388 0.31898 0.74631 0.0
O223 O 0.87523 0.3494 0.71047 0.0
C224 C 0.71417 0.24632 0.70833 0.0
C225 C 0.82065 0.24554 0.68799 0.0
C226 C 0.7915 0.37433 0.70353 0.0
O227 O 0.73475 0.25827 0.72977 0.0
O228 O 0.73808 0.26313 0.68857 0.0
O229 O 0.80365 0.3584 0.68526 0.0
O230 O 0.78584 0.35489 0.72497 0.0
C231 C 0.87983 0.3445 0.73416 0.0
O232 O 0.82287 0.27843 0.67571 0.0
O233 O 0.80898 0.24243 0.71134 0.0
In234 In 0.45427 0.28571 0.21466 0.0
O235 O 0.41149 0.29649 0.24309 0.0
O236 O 0.42142 0.32499 0.20502 0.0
C237 C 0.49405 0.23771 0.21515 0.0
C238 C 0.38769 0.22081 0.18928 0.0
C239 C 0.5308 0.36062 0.22245 0.0
O240 O 0.47485 0.24117 0.23527 0.0
O241 O 0.49317 0.25901 0.1955 0.0
O242 O 0.51334 0.34904 0.20018 0.0
O243 O 0.50864 0.33448 0.2407 0.0
C244 C 0.40286 0.31883 0.22683 0.0
O245 O 0.4182 0.25527 0.17783 0.0
O246 O 0.39134 0.21993 0.21355 0.0
In247 In 0.69209 0.1674 0.21359 0.0
O248 O 0.72275 0.16377 0.17622 0.0
O249 O 0.7558 0.16597 0.21176 0.0
C250 C 0.61763 0.17186 0.2131 0.0
C251 C 0.65492 0.08195 0.22581 0.0
C252 C 0.74297 0.25386 0.22344 0.0
O253 O 0.63616 0.16976 0.19247 0.0
O254 O 0.63642 0.17048 0.23372 0.0
O255 O 0.73195 0.22506 0.24134 0.0
O256 O 0.72866 0.23829 0.20124 0.0
C257 C 0.75549 0.16371 0.18744 0.0
O258 O 0.67659 0.1124 0.24242 0.0
O259 O 0.65144 0.09531 0.20376 0.0
In260 In 0.80675 0.5198 0.23009 0.0
O261 O 0.81576 0.55405 0.19211 0.0
O262 O 0.80677 0.58424 0.2261 0.0
C263 C 0.80429 0.4417 0.23121 0.0
C264 C 0.88977 0.56978 0.2467 0.0
C265 C 0.71877 0.48362 0.23236 0.0
O266 O 0.81107 0.46385 0.21057 0.0
O267 O 0.7998 0.45985 0.25126 0.0
O268 O 0.74252 0.49967 0.25255 0.0
O269 O 0.73975 0.48563 0.21205 0.0
C270 C 0.81257 0.58604 0.20198 0.0
O271 O 0.85671 0.55972 0.26156 0.0
O272 O 0.88006 0.55358 0.22427 0.0
In273 In 0.63415 0.13262 0.94709 0.0
O274 O 0.61017 0.09972 0.98626 0.0
O275 O 0.57096 0.06787 0.95276 0.0
C276 C 0.70689 0.21388 0.9501 0.0
C277 C 0.66799 0.08475 0.92737 0.0
C278 C 0.58054 0.16421 0.93377 0.0
O279 O 0.68677 0.19207 0.97009 0.0
O280 O 0.69123 0.19357 0.92916 0.0
O281 O 0.59498 0.14764 0.91717 0.0
O282 O 0.59249 0.16352 0.95661 0.0
C283 C 0.57532 0.06676 0.97681 0.0
O284 O 0.6435 0.09504 0.91423 0.0
O285 O 0.6759 0.09961 0.95011 0.0
In286 In 0.85329 0.49436 0.9481 0.0
O287 O 0.88318 0.49862 0.98683 0.0
O288 O 0.91695 0.49413 0.95281 0.0
C289 C 0.77951 0.48987 0.9304 0.0
C290 C 0.90506 0.58096 0.94133 0.0
C291 C 0.81571 0.40651 0.94842 0.0
O292 O 0.78977 0.49557 0.95419 0.0
O293 O 0.80766 0.48783 0.91554 0.0
O294 O 0.83967 0.42978 0.92955 0.0
O295 O 0.81085 0.4282 0.96668 0.0
C296 C 0.91644 0.4972 0.97719 0.0
O297 O 0.90231 0.55289 0.92441 0.0
O298 O 0.88004 0.56471 0.9609 0.0
In299 In 0.50639 0.35802 0.91499 0.0
O300 O 0.49359 0.37639 0.95436 0.0
O301 O 0.49988 0.41855 0.92248 0.0
C302 C 0.5136 0.28475 0.91734 0.0
C303 C 0.42472 0.32454 0.89602 0.0
C304 C 0.59348 0.41595 0.91102 0.0
O305 O 0.5051 0.30104 0.9369 0.0
O306 O 0.51745 0.30515 0.89647 0.0
O307 O 0.56896 0.40332 0.891 0.0
O308 O 0.57375 0.39923 0.93193 0.0
C309 C 0.49339 0.41101 0.94636 0.0
O310 O 0.45838 0.35017 0.88226 0.0
O311 O 0.43314 0.31494 0.91793 0.0
In312 In 0.49961 0.69537 0.75823 0.0
O313 O 0.52825 0.68275 0.72172 0.0
O314 O 0.52876 0.65064 0.7569 0.0
C315 C 0.46925 0.75273 0.75756 0.0
C316 C 0.57304 0.7511 0.78407 0.0
C317 C 0.41825 0.62373 0.76329 0.0
O318 O 0.48097 0.74177 0.73687 0.0
O319 O 0.47354 0.735 0.77778 0.0
O320 O 0.44555 0.63928 0.78196 0.0
O321 O 0.43289 0.64383 0.74214 0.0
C322 C 0.53886 0.65696 0.73335 0.0
O323 O 0.54084 0.71709 0.79469 0.0
O324 O 0.56778 0.7562 0.76049 0.0
In325 In 0.2857 0.83853 0.77996 0.0
O326 O 0.27137 0.85835 0.81879 0.0
O327 O 0.22445 0.84228 0.78772 0.0
C328 C 0.35704 0.83063 0.77014 0.0
C329 C 0.31431 0.91495 0.75509 0.0
C330 C 0.23214 0.75094 0.78517 0.0
O331 O 0.35109 0.84319 0.79207 0.0
O332 O 0.32741 0.82331 0.75347 0.0
O333 O 0.23258 0.77092 0.76448 0.0
O334 O 0.25891 0.77544 0.80253 0.0
C335 C 0.23432 0.85388 0.811 0.0
O336 O 0.28614 0.87771 0.74502 0.0
O337 O 0.32771 0.91289 0.77746 0.0
In338 In 0.14343 0.47827 0.79371 0.0
O339 O 0.13772 0.44329 0.83195 0.0
O340 O 0.1394 0.41226 0.79657 0.0
C341 C 0.15274 0.55966 0.79431 0.0
C342 C 0.05993 0.43384 0.77601 0.0
C343 C 0.22911 0.50998 0.78144 0.0
O344 O 0.14951 0.53873 0.81504 0.0
O345 O 0.14953 0.53847 0.7739 0.0
O346 O 0.1983 0.49161 0.76471 0.0
O347 O 0.21604 0.51126 0.80394 0.0
C348 C 0.13721 0.41023 0.82083 0.0
O349 O 0.09338 0.4431 0.76181 0.0
O350 O 0.06907 0.44747 0.79898 0.0
In351 In 0.37041 0.84787 0.0564 0.0
O352 O 0.40321 0.88615 0.02092 0.0
O353 O 0.43645 0.91146 0.05746 0.0
C354 C 0.29521 0.77351 0.06641 0.0
C355 C 0.33297 0.89622 0.06579 0.0
C356 C 0.41354 0.80323 0.054 0.0
O357 O 0.30551 0.7897 0.04381 0.0
O358 O 0.32331 0.79545 0.08406 0.0
O359 O 0.41367 0.82358 0.07454 0.0
O360 O 0.39192 0.80632 0.03507 0.0
C361 C 0.43671 0.91642 0.03319 0.0
O362 O 0.35567 0.89 0.08306 0.0
O363 O 0.32939 0.87747 0.04423 0.0
In364 In 0.12673 0.50209 0.06215 0.0
O365 O 0.08588 0.44527 0.08987 0.0
O366 O 0.09223 0.43124 0.05023 0.0
C367 C 0.1651 0.58873 0.07145 0.0
C368 C 0.06116 0.50261 0.03644 0.0
C369 C 0.20235 0.49995 0.06007 0.0
O370 O 0.14847 0.56083 0.08988 0.0
O371 O 0.16253 0.57236 0.04936 0.0
O372 O 0.18116 0.49935 0.03997 0.0
O373 O 0.18512 0.50183 0.08118 0.0
C374 C 0.07575 0.41625 0.07213 0.0
O375 O 0.09365 0.50231 0.02513 0.0
O376 O 0.06236 0.50285 0.06081 0.0
In377 In 0.47221 0.59625 0.04254 0.0
O378 O 0.47851 0.57209 0.00331 0.0
O379 O 0.47206 0.53225 0.03649 0.0
C380 C 0.46968 0.67186 0.0455 0.0
C381 C 0.5555 0.63003 0.05889 0.0
C382 C 0.38532 0.54553 0.05109 0.0
O383 O 0.47195 0.65565 0.02399 0.0
O384 O 0.46961 0.6501 0.06504 0.0
O385 O 0.41343 0.55413 0.06912 0.0
O386 O 0.40167 0.56222 0.02944 0.0
C387 C 0.47627 0.5368 0.01233 0.0
O388 O 0.5225 0.60544 0.07335 0.0
O389 O 0.54575 0.63701 0.03658 0.0
In390 In 0.13608 0.60766 0.60331 0.0
O391 O 0.09777 0.63098 0.62949 0.0
O392 O 0.10616 0.64718 0.58923 0.0
C393 C 0.1678 0.55463 0.61718 0.0
C394 C 0.07094 0.54416 0.57513 0.0
C395 C 0.21514 0.68163 0.59798 0.0
O396 O 0.15164 0.56918 0.63414 0.0
O397 O 0.16784 0.56729 0.59443 0.0
O398 O 0.1919 0.65908 0.57893 0.0
O399 O 0.19849 0.66636 0.61985 0.0
C400 C 0.09009 0.64958 0.61053 0.0
O401 O 0.10648 0.57552 0.56528 0.0
O402 O 0.06862 0.5449 0.59943 0.0
In403 In 0.34824 0.4886 0.57455 0.0
O404 O 0.33043 0.41889 0.58465 0.0
O405 O 0.30882 0.42994 0.5478 0.0
C406 C 0.38788 0.5763 0.56986 0.0
C407 C 0.42568 0.49954 0.55962 0.0
C408 C 0.28024 0.4853 0.60002 0.0
O409 O 0.39101 0.55713 0.58998 0.0
O410 O 0.36271 0.55044 0.55206 0.0
O411 O 0.28091 0.48227 0.57571 0.0
O412 O 0.31415 0.48885 0.61198 0.0
C413 C 0.31119 0.40257 0.56327 0.0
O414 O 0.39695 0.49946 0.54424 0.0
O415 O 0.41464 0.49283 0.58334 0.0
In416 In 0.48374 0.85088 0.56865 0.0
O417 O 0.48934 0.8906 0.53285 0.0
O418 O 0.48522 0.91613 0.56976 0.0
C419 C 0.47176 0.76895 0.56408 0.0
C420 C 0.56881 0.89329 0.58354 0.0
C421 C 0.39837 0.81611 0.58133 0.0
O422 O 0.47286 0.79119 0.54434 0.0
O423 O 0.47883 0.78926 0.58529 0.0
O424 O 0.42877 0.83184 0.59849 0.0
O425 O 0.41193 0.81949 0.55845 0.0
C426 C 0.48814 0.92138 0.54564 0.0
O427 O 0.53724 0.88434 0.59926 0.0
O428 O 0.55682 0.88018 0.56068 0.0
In429 In 0.27504 0.46072 0.2699 0.0
O430 O 0.28186 0.41804 0.2391 0.0
O431 O 0.31441 0.42705 0.2758 0.0
C432 C 0.22661 0.50044 0.26942 0.0
C433 C 0.21661 0.3974 0.30036 0.0
C434 C 0.35153 0.53653 0.26319 0.0
O435 O 0.22865 0.47992 0.24954 0.0
O436 O 0.24901 0.50043 0.2887 0.0
O437 O 0.33954 0.51771 0.28503 0.0
O438 O 0.32469 0.51654 0.24482 0.0
C439 C 0.30632 0.40943 0.25369 0.0
O440 O 0.25304 0.42974 0.30889 0.0
O441 O 0.2103 0.39738 0.27631 0.0
In442 In 0.51653 0.80943 0.26607 0.0
O443 O 0.55458 0.86131 0.23523 0.0
O444 O 0.54834 0.8823 0.27317 0.0
C445 C 0.48138 0.72231 0.25928 0.0
C446 C 0.58348 0.81445 0.29356 0.0
C447 C 0.43753 0.80548 0.26732 0.0
O448 O 0.49696 0.74887 0.2402 0.0
O449 O 0.48372 0.74021 0.28083 0.0
O450 O 0.4601 0.81027 0.28757 0.0
O451 O 0.45554 0.80345 0.24658 0.0
C452 C 0.56359 0.89342 0.25064 0.0
O453 O 0.55082 0.81581 0.30391 0.0
O454 O 0.58205 0.81093 0.26929 0.0
In455 In 0.16313 0.70169 0.28441 0.0
O456 O 0.10836 0.69152 0.25656 0.0
O457 O 0.09089 0.6622 0.29431 0.0
C458 C 0.2503 0.74921 0.27592 0.0
C459 C 0.16445 0.76415 0.31424 0.0
C460 C 0.16373 0.62569 0.27867 0.0
O461 O 0.22245 0.7437 0.2582 0.0
O462 O 0.2335 0.73131 0.29733 0.0
O463 O 0.16202 0.6406 0.30075 0.0
O464 O 0.16377 0.64882 0.25978 0.0
C465 C 0.07774 0.66839 0.27279 0.0
O466 O 0.16174 0.72878 0.32352 0.0
O467 O 0.16639 0.76732 0.28993 0.0
C468 C 0.3149 0.15049 0.13433 0.0
C469 C 0.28037 0.11291 0.14676 0.0
C470 C 0.34934 0.18524 0.14826 0.0
C471 C 0.35059 0.18372 0.17519 0.0
H472 H 0.31545 0.1533 0.11358 0.0
H473 H 0.37517 0.21341 0.13779 0.0
S474 S 0.26802 0.09271 0.21706 0.0
N475 N 0.24939 0.07616 0.18759 0.0
N476 N 0.31423 0.14153 0.21391 0.0
C477 C 0.31628 0.14632 0.18794 0.0
C478 C 0.28112 0.11086 0.17371 0.0
C479 C 0.78781 0.15618 0.14636 0.0
C480 C 0.79052 0.16029 0.17323 0.0
C481 C 0.81998 0.1519 0.13241 0.0
C482 C 0.85606 0.15158 0.14477 0.0
H483 H 0.76056 0.15604 0.13599 0.0
H484 H 0.81636 0.14875 0.1117 0.0
S485 S 0.87879 0.16185 0.21485 0.0
N486 N 0.83242 0.16418 0.21179 0.0
N487 N 0.89294 0.15611 0.18543 0.0
C488 C 0.85937 0.15587 0.17164 0.0
C489 C 0.82656 0.16024 0.18588 0.0
C490 C 0.82027 0.62221 0.15958 0.0
C491 C 0.81456 0.62249 0.18626 0.0
C492 C 0.82159 0.65575 0.14402 0.0
C493 C 0.81726 0.69091 0.15453 0.0
H494 H 0.82364 0.59581 0.15053 0.0
H495 H 0.82603 0.65394 0.12355 0.0
S496 S 0.80178 0.70725 0.22338 0.0
N497 N 0.80465 0.66098 0.22267 0.0
N498 N 0.80717 0.72419 0.19328 0.0
C499 C 0.81164 0.69177 0.1812 0.0
C500 C 0.81029 0.65751 0.1971 0.0
C501 C 0.11062 0.29392 0.3218 0.0
C502 C 0.11656 0.29346 0.34848 0.0
C503 C 0.14328 0.32765 0.30643 0.0
C504 C 0.18311 0.36216 0.31715 0.0
H505 H 0.08054 0.26805 0.31267 0.0
H506 H 0.13713 0.32658 0.28596 0.0
S507 S 0.21503 0.3762 0.38605 0.0
N508 N 0.16543 0.33049 0.38504 0.0
N509 N 0.22675 0.39381 0.35609 0.0
C510 C 0.18954 0.36212 0.34381 0.0
C511 C 0.15626 0.32778 0.35948 0.0
C512 C 0.65508 0.82353 0.35074 0.0
C513 C 0.69085 0.82087 0.3397 0.0
C514 C 0.62057 0.82132 0.33564 0.0
C515 C 0.62045 0.81641 0.30886 0.0
H516 H 0.65364 0.82757 0.37129 0.0
H517 H 0.5939 0.82367 0.34509 0.0
S518 S 0.70605 0.80714 0.27042 0.0
N519 N 0.72391 0.81254 0.30035 0.0
N520 N 0.65891 0.80837 0.27181 0.0
C521 C 0.65585 0.81338 0.2975 0.0
C522 C 0.69108 0.81558 0.31295 0.0
C523 C 0.16782 0.87155 0.33304 0.0
C524 C 0.16313 0.86808 0.35987 0.0
C525 C 0.16863 0.8379 0.31856 0.0
C526 C 0.16486 0.7995 0.33035 0.0
H527 H 0.17029 0.90019 0.32303 0.0
H528 H 0.17187 0.84197 0.2979 0.0
S529 S 0.15357 0.77495 0.40019 0.0
N530 N 0.15589 0.82371 0.39783 0.0
N531 N 0.15745 0.76043 0.37052 0.0
C532 C 0.16094 0.7959 0.35722 0.0
C533 C 0.16007 0.8302 0.372 0.0
C534 C 0.61517 0.77935 0.82514 0.0
C535 C 0.61316 0.78372 0.79842 0.0
C536 C 0.65165 0.81103 0.83942 0.0
C537 C 0.68758 0.84826 0.82753 0.0
H538 H 0.58807 0.75159 0.83523 0.0
H539 H 0.65137 0.8064 0.86002 0.0
S540 S 0.69949 0.87426 0.75786 0.0
N541 N 0.65096 0.82753 0.76042 0.0
N542 N 0.71956 0.88707 0.78735 0.0
C543 C 0.68646 0.85266 0.80076 0.0
C544 C 0.64924 0.82039 0.78618 0.0
C545 C 0.17691 0.86119 0.8713 0.0
C546 C 0.13865 0.86078 0.86156 0.0
C547 C 0.20859 0.86041 0.85482 0.0
C548 C 0.20299 0.859 0.82803 0.0
H549 H 0.18219 0.86145 0.89184 0.0
H550 H 0.23699 0.85974 0.86317 0.0
S551 S 0.11013 0.86046 0.79274 0.0
N552 N 0.09813 0.8611 0.82335 0.0
N553 N 0.15749 0.85964 0.79243 0.0
C554 C 0.16553 0.85986 0.81803 0.0
C555 C 0.13338 0.86073 0.83477 0.0
C556 C 0.13398 0.30067 0.83127 0.0
C557 C 0.13819 0.29865 0.85801 0.0
C558 C 0.13272 0.33644 0.81979 0.0
C559 C 0.1357 0.37197 0.83448 0.0
H560 H 0.13197 0.27453 0.81889 0.0
H561 H 0.12991 0.33629 0.79905 0.0
S562 S 0.14568 0.38233 0.90543 0.0
N563 N 0.14412 0.3347 0.89914 0.0
N564 N 0.14188 0.40254 0.87737 0.0
C565 C 0.13898 0.37017 0.86135 0.0
C566 C 0.1402 0.33336 0.87314 0.0
C567 C 0.77876 0.62694 0.60615 0.0
C568 C 0.763 0.63079 0.63041 0.0
C569 C 0.8181 0.66268 0.59576 0.0
C570 C 0.84251 0.70298 0.60944 0.0
H571 H 0.76205 0.5955 0.59583 0.0
H572 H 0.83068 0.65794 0.57769 0.0
S573 S 0.81052 0.7323 0.67139 0.0
N574 N 0.7715 0.67997 0.66605 0.0
N575 N 0.84482 0.74662 0.64667 0.0
C576 C 0.82508 0.7081 0.63275 0.0
C577 C 0.78543 0.67209 0.64322 0.0
C578 C 0.34556 0.13534 0.60432 0.0
C579 C 0.34009 0.13149 0.63112 0.0
C580 C 0.31031 0.12931 0.58824 0.0
C581 C 0.26843 0.11889 0.59841 0.0
H582 H 0.37764 0.14469 0.5958 0.0
H583 H 0.31642 0.13414 0.56774 0.0
S584 S 0.2357 0.09974 0.6672 0.0
N585 N 0.28867 0.11284 0.667 0.0
N586 N 0.22256 0.10125 0.63688 0.0
C587 C 0.26198 0.11271 0.62512 0.0
C588 C 0.29786 0.11911 0.64142 0.0
C589 C 0.82604 0.17625 0.69081 0.0
C590 C 0.82937 0.21188 0.67597 0.0
C591 C 0.83173 0.14247 0.67977 0.0
C592 C 0.84077 0.14297 0.65344 0.0
H593 H 0.81832 0.17397 0.71112 0.0
H594 H 0.82804 0.11531 0.69185 0.0
S595 S 0.85564 0.23034 0.60642 0.0
N596 N 0.84439 0.24671 0.6338 0.0
N597 N 0.85504 0.18331 0.61297 0.0
C598 C 0.84536 0.17904 0.63849 0.0
C599 C 0.83969 0.21349 0.64976 0.0
C600 C 0.0374 0.51464 0.53221 0.0
C601 C 0.03428 0.5103 0.55906 0.0
C602 C 0.00255 0.48477 0.51633 0.0
C603 C 0.96315 0.44913 0.52665 0.0
H604 H 0.06677 0.54184 0.52325 0.0
H605 H 0.00648 0.49004 0.49578 0.0
S606 S 0.93891 0.42164 0.59577 0.0
N607 N -0.01086 0.46667 0.59537 0.0
N608 N 0.92349 0.41024 0.5654 0.0
C609 C 0.95988 0.44366 0.55345 0.0
C610 C -0.00457 0.4743 0.56971 0.0
C611 C 0.4816 0.52548 0.5248 0.0
C612 C 0.46909 0.50759 0.54964 0.0
C613 C 0.51934 0.52913 0.5129 0.0
C614 C 0.54636 0.51517 0.52532 0.0
H615 H 0.46137 0.53571 0.51401 0.0
H616 H 0.52654 0.54172 0.4934 0.0
S617 S 0.53102 0.47003 0.59147 0.0
N618 N 0.48864 0.47892 0.58719 0.0
N619 N 0.56027 0.48582 0.56455 0.0
C620 C 0.53607 0.49973 0.55076 0.0
C621 C 0.49721 0.4959 0.56301 0.0
C622 C 0.49455 0.00236 0.49453 0.0
C623 C 0.49152 0.03536 0.5088 0.0
C624 C 0.49346 0.96564 0.50659 0.0
C625 C 0.48935 0.96055 0.53338 0.0
H626 H 0.49792 0.00485 0.47382 0.0
H627 H 0.49593 0.94115 0.49479 0.0
S628 S 0.47983 0.03747 0.57954 0.0
N629 N 0.48393 0.06047 0.55116 0.0
N630 N 0.48189 -0.00848 0.57392 0.0
C631 C 0.48613 -0.00675 0.54792 0.0
C632 C 0.48719 0.03063 0.53561 0.0
C633 C 0.47137 0.95776 0.99294 0.0
C634 C 0.47325 0.95513 0.01979 0.0
C635 C 0.5047 -0.00603 0.97944 0.0
C636 C 0.54138 0.02915 0.99218 0.0
H637 H 0.44384 0.93169 0.98214 0.0
H638 H 0.50145 -0.00575 0.95875 0.0
S639 S 0.56234 0.03844 0.06242 0.0
N640 N 0.51491 0.99078 0.05881 0.0
N641 N 0.57787 0.05918 0.03323 0.0
C642 C 0.54395 0.02704 0.01905 0.0
C643 C 0.50981 0.98995 0.03289 0.0
C644 C -0.0116 0.49766 0.98092 0.0
C645 C 0.95274 0.49906 0.99303 0.0
C646 C 0.02339 0.49913 0.99516 0.0
C647 C 0.02406 0.50201 0.02207 0.0
H648 H -0.01058 0.4953 0.9602 0.0
H649 H 0.04997 0.49777 0.98491 0.0
S650 S 0.93895 0.50732 0.06314 0.0
N651 N 0.92035 0.50397 0.03354 0.0
N652 N 0.98628 0.50672 0.06042 0.0
C653 C -0.01125 0.50369 0.03451 0.0
C654 C 0.95303 0.50222 0.01995 0.0
C655 C 0.48953 0.48028 0.95347 0.0
C656 C 0.48731 0.44146 0.96358 0.0
C657 C 0.48548 0.51071 0.96935 0.0
C658 C 0.47903 0.50343 0.99593 0.0
H659 H 0.49488 0.48759 0.93312 0.0
H660 H 0.48783 0.54033 0.9607 0.0
S661 S 0.46913 0.40594 0.03187 0.0
N662 N 0.47701 0.39668 0.00176 0.0
N663 N 0.46933 0.45381 0.03167 0.0
C664 C 0.47601 0.46434 0.00627 0.0
C665 C 0.48015 0.43335 0.99009 0.0
C666 C 0.27624 0.94941 0.10121 0.0
C667 C 0.25865 0.96353 0.08122 0.0
C668 C 0.30166 0.92913 0.09604 0.0
C669 C 0.30999 0.92172 0.07068 0.0
H670 H 0.26993 0.95358 0.12111 0.0
H671 H 0.31366 0.91797 0.11205 0.0
S672 S 0.27407 0.95512 0.01144 0.0
N673 N 0.25335 0.97095 0.03513 0.0
N674 N 0.30091 0.9323 0.02525 0.0
C675 C 0.29379 0.93687 0.05046 0.0
C676 C 0.26821 0.95798 0.05577 0.0
C677 C 0.04575 0.35009 0.10098 0.0
C678 C 0.04847 0.36777 0.0764 0.0
C679 C 0.02461 0.30388 0.10474 0.0
C680 C 0.00504 0.27375 0.0841 0.0
H681 H 0.06144 0.37204 0.11725 0.0
H682 H 0.02419 0.29179 0.12399 0.0
S683 S -0.00086 0.30343 0.01637 0.0
N684 N 0.02708 0.35192 0.03135 0.0
N685 N -0.01297 0.2649 0.03857 0.0
C686 C 0.00575 0.291 0.05962 0.0
C687 C 0.02758 0.33809 0.05574 0.0
C688 C 0.6368 0.67081 0.04884 0.0
C689 C 0.6025 0.65142 0.06732 0.0
C690 C 0.68177 0.69562 0.05612 0.0
C691 C 0.69386 0.70238 0.08214 0.0
H692 H 0.62885 0.66765 0.02854 0.0
H693 H 0.707 0.71103 0.04131 0.0
S694 S 0.61733 0.65513 0.13798 0.0
N695 N 0.58397 0.63779 0.11268 0.0
N696 N 0.66856 0.68482 0.12648 0.0
C697 C 0.66011 0.68157 0.10082 0.0
C698 C 0.61435 0.65591 0.09338 0.0
C699 C 0.94559 0.29429 0.45914 0.0
C700 C 0.9299 0.31605 0.44286 0.0
C701 C 0.96646 0.27174 0.44926 0.0
C702 C 0.97181 0.26957 0.42269 0.0
H703 H 0.94128 0.29419 0.47976 0.0
H704 H 0.97721 0.25476 0.46249 0.0
S705 S 0.9392 0.32336 0.3719 0.0
N706 N 0.92328 0.33608 0.39898 0.0
N707 N 0.96208 0.29314 0.38023 0.0
C708 C 0.95746 0.29225 0.40619 0.0
C709 C 0.93665 0.31571 0.41632 0.0
C710 C 0.70172 0.66263 0.45846 0.0
C711 C 0.68186 0.62362 0.4433 0.0
C712 C 0.72026 0.70507 0.44731 0.0
C713 C 0.72016 0.71001 0.42057 0.0
H714 H 0.70353 0.66048 0.47915 0.0
H715 H 0.73617 0.73417 0.45968 0.0
S716 S 0.66936 0.61856 0.37242 0.0
N717 N 0.66074 0.59262 0.40026 0.0
N718 N 0.69615 0.67249 0.3792 0.0
C719 C 0.69913 0.67131 0.40521 0.0
C720 C 0.67979 0.62805 0.41659 0.0
C721 C 0.35826 0.06428 0.41961 0.0
C722 C 0.369 0.07057 0.44584 0.0
C723 C 0.31366 0.04104 0.41144 0.0
C724 C 0.27814 0.02275 0.42921 0.0
H725 H 0.38442 0.07816 0.40523 0.0
H726 H 0.30703 0.03764 0.39099 0.0
S727 S 0.28841 0.02789 0.50017 0.0
N728 N 0.34051 0.05523 0.4897 0.0
N729 N 0.25667 0.01122 0.4742 0.0
C730 C 0.28838 0.02771 0.4555 0.0
C731 C 0.33382 0.05176 0.46387 0.0
C732 C 0.72256 0.01318 0.92569 0.0
C733 C 0.72288 0.0044 0.8994 0.0
C734 C 0.70458 0.03913 0.93451 0.0
C735 C 0.68573 0.05672 0.91737 0.0
H736 H 0.73739 0.00094 0.93953 0.0
H737 H 0.70566 0.04558 0.95493 0.0
S738 S 0.67562 0.04069 0.84673 0.0
N739 N 0.70106 0.01354 0.85634 0.0
N740 N 0.66675 0.06189 0.87299 0.0
C741 C 0.68461 0.04704 0.8911 0.0
C742 C 0.70334 0.02099 0.88208 0.0
C743 C 0.95375 0.64716 0.91431 0.0
C744 C 0.9354 0.6296 0.93846 0.0
C745 C 0.97996 0.69327 0.91058 0.0
C746 C -0.01069 0.72361 0.93091 0.0
H747 H 0.94668 0.62528 0.89793 0.0
H748 H -0.00791 0.70528 0.89137 0.0
S749 S 0.95314 0.69455 -0.00146 0.0
N750 N 0.93115 0.6459 0.98359 0.0
N751 N 0.98085 0.73286 0.97642 0.0
C752 C 0.97321 0.70653 0.95547 0.0
C753 C 0.94604 0.65942 0.95926 0.0
C754 C 0.35624 0.28253 0.86897 0.0
C755 C 0.37845 0.31132 0.88959 0.0
C756 C 0.30942 0.26128 0.86692 0.0
C757 C 0.28378 0.26826 0.88548 0.0
H758 H 0.37474 0.27429 0.85536 0.0
H759 H 0.29313 0.23765 0.85142 0.0
S760 S 0.32811 0.34605 0.94101 0.0
N761 N 0.37278 0.34951 0.92727 0.0
N762 N 0.28519 0.31021 0.92345 0.0
C763 C 0.30635 0.29953 0.90514 0.0
C764 C 0.35367 0.3209 0.90718 0.0
C765 C 0.05373 0.73423 0.62455 0.0
C766 C 0.02314 0.72581 0.60439 0.0
C767 C 0.07322 0.7072 0.62808 0.0
C768 C 0.0625 0.67102 0.61159 0.0
H769 H 0.06395 0.7628 0.63704 0.0
H770 H 0.09856 0.71617 0.64277 0.0
S771 S 0.98026 0.63099 0.55826 0.0
N772 N 0.97993 0.67549 0.5695 0.0
N773 N 0.01676 0.62556 0.57612 0.0
C774 C 0.0302 0.66078 0.59243 0.0
C775 C 0.01043 0.68795 0.58883 0.0
C776 C 0.24366 0.28842 0.53122 0.0
C777 C 0.25275 0.26111 0.54716 0.0
C778 C 0.26377 0.33466 0.53599 0.0
C779 C 0.29331 0.35473 0.55687 0.0
H780 H 0.21896 0.27364 0.51607 0.0
H781 H 0.25466 0.3544 0.52392 0.0
S782 S 0.33257 0.29786 0.6017 0.0
N783 N 0.29648 0.25769 0.58271 0.0
N784 N 0.33428 0.34399 0.59164 0.0
C785 C 0.30466 0.3279 0.5718 0.0
C786 C 0.28435 0.28123 0.56693 0.0
C787 C 0.69502 0.95781 0.57733 0.0
C788 C 0.70977 0.96674 0.60293 0.0
C789 C 0.64939 0.93383 0.57138 0.0
C790 C 0.61664 0.9182 0.5908 0.0
H791 H 0.71889 0.96914 0.56169 0.0
H792 H 0.63978 0.92778 0.55134 0.0
S793 S 0.63764 0.93337 0.66096 0.0
N794 N 0.68799 0.95839 0.64797 0.0
N795 N 0.6021 0.91361 0.6367 0.0
C796 C 0.63084 0.92714 0.6165 0.0
C797 C 0.67743 0.9513 0.6226 0.0
C798 C 0.60428 0.59662 0.72629 0.0
C799 C 0.60609 0.59196 0.69961 0.0
C800 C 0.58265 0.61795 0.73681 0.0
C801 C 0.56237 0.63597 0.72107 0.0
H802 H 0.61907 0.58306 0.73926 0.0
H803 H 0.58185 0.62026 0.75753 0.0
S804 S 0.55925 0.63423 0.64989 0.0
N805 N 0.5867 0.60808 0.6575 0.0
N806 N 0.5464 0.64877 0.67742 0.0
C807 C 0.5647 0.63245 0.69433 0.0
C808 C 0.5864 0.61024 0.68355 0.0
C809 C 0.3735 0.03999 0.74388 0.0
C810 C 0.37352 0.04312 0.71702 0.0
C811 C 0.35334 -0.00178 0.75603 0.0
C812 C 0.33182 0.95822 0.74175 0.0
H813 H 0.39062 0.06991 0.75554 0.0
H814 H 0.35523 -0.00269 0.77678 0.0
S815 S 0.3189 0.94875 0.67093 0.0
N816 N 0.34788 0.00306 0.67649 0.0
N817 N 0.3093 0.92457 0.69939 0.0
C818 C 0.32977 0.96101 0.71493 0.0
C819 C 0.35087 0.0035 0.70254 0.0
C820 C 0.96256 0.38498 0.72967 0.0
C821 C 0.92487 0.36622 0.74589 0.0
C822 C 0.00596 0.40611 0.73963 0.0
C823 C 0.01353 0.40984 0.76624 0.0
H824 H 0.95864 0.38328 0.70898 0.0
H825 H 0.03379 0.42019 0.72632 0.0
S826 S 0.92647 0.36545 0.81709 0.0
N827 N 0.89791 0.3518 0.78991 0.0
N828 N 0.97979 0.39217 0.8088 0.0
C829 C 0.97623 0.39099 0.78277 0.0
C830 C 0.93183 0.36897 0.77256 0.0
C831 C 0.36605 0.34344 0.25869 0.0
C832 C 0.37419 0.3379 0.23296 0.0
C833 C 0.34262 0.36534 0.26505 0.0
C834 C 0.32601 0.38202 0.24591 0.0
H835 H 0.37918 0.33219 0.27408 0.0
H836 H 0.33832 0.37002 0.28521 0.0
S837 S 0.33436 0.37188 0.17556 0.0
N838 N 0.361 0.34779 0.18807 0.0
N839 N 0.31653 0.38879 0.20019 0.0
C840 C 0.33188 0.37471 0.22008 0.0
C841 C 0.35618 0.35274 0.21356 0.0
C842 C 0.60483 0.97367 0.26296 0.0
C843 C 0.58952 0.94102 0.24345 0.0
C844 C 0.62704 0.01926 0.25712 0.0
C845 C 0.63432 0.03387 0.23155 0.0
H846 H 0.59922 0.96401 0.28301 0.0
H847 H 0.63751 0.04311 0.27276 0.0
S848 S 0.60357 0.9621 0.17335 0.0
N849 N 0.58527 0.92649 0.19757 0.0
N850 N 0.62683 0.01235 0.18644 0.0
C851 C 0.62034 0.00167 0.21181 0.0
C852 C 0.59803 0.95517 0.21779 0.0
C853 C 0.96997 0.61619 0.23498 0.0
C854 C 0.93698 0.59836 0.25428 0.0
C855 C 0.01546 0.64053 0.24113 0.0
C856 C 0.02967 0.64748 0.2668 0.0
H857 H 0.96069 0.61071 0.21487 0.0
H858 H 0.03964 0.65254 0.22564 0.0
S859 S 0.9567 0.61121 0.32452 0.0
N860 N 0.92152 0.59196 0.30007 0.0
N861 N 0.00725 0.63746 0.31177 0.0
C862 C -0.00296 0.63138 0.28633 0.0
C863 C 0.9506 0.60692 0.28003 0.0
C864 C 0.08164 0.12534 0.11691 0.0
C865 C 0.05939 0.12579 0.09443 0.0
C866 C 0.11145 0.1092 0.11668 0.0
C867 C 0.12029 0.09294 0.09397 0.0
H868 H 0.07442 0.13548 0.13513 0.0
H869 H 0.12612 0.10756 0.13477 0.0
S870 S 0.07597 0.09311 0.02917 0.0
N871 N 0.05217 0.11347 0.04815 0.0
N872 N 0.10847 0.08286 0.04788 0.0
C873 C 0.10121 0.09654 0.07093 0.0
C874 C 0.07062 0.113 0.07114 0.0
C875 C 0.84973 0.97979 0.11659 0.0
C876 C 0.86761 0.00407 0.09378 0.0
C877 C 0.83305 0.93374 0.11756 0.0
C878 C 0.83385 0.91023 0.09576 0.0
H879 H 0.85069 -0.00313 0.13425 0.0
H880 H 0.82182 0.917 0.13591 0.0
S881 S 0.87118 0.95738 0.03037 0.0
N882 N 0.88054 0.00077 0.0482 0.0
N883 N 0.84907 0.91379 0.04983 0.0
C884 C 0.84815 0.93347 0.07225 0.0
C885 C 0.86505 0.98057 0.07129 0.0
C886 C 0.98323 0.86321 0.07775 0.0
C887 C 0.96017 0.84398 0.10064 0.0
C888 C 0.0296 0.89252 0.07797 0.0
C889 C 0.05428 0.90329 0.10105 0.0
H890 H 0.96507 0.85792 0.05991 0.0
H891 H 0.04571 0.90866 0.06013 0.0
S892 S 0.01016 0.85454 0.16522 0.0
N893 N 0.96585 0.83247 0.14627 0.0
N894 N 0.05291 0.88736 0.14667 0.0
C895 C 0.032 0.88113 0.12363 0.0
C896 C 0.98491 0.85151 0.12342 0.0
C897 C 0.11438 0.12221 0.38057 0.0
C898 C 0.09831 0.13222 0.40296 0.0
C899 C 0.13145 0.09314 0.38117 0.0
C900 C 0.13288 0.07268 0.40417 0.0
H901 H 0.11213 0.13555 0.36214 0.0
H902 H 0.14154 0.08503 0.3632 0.0
S903 S 0.10028 0.09236 0.46878 0.0
N904 N 0.089 0.12308 0.44922 0.0
N905 N 0.12108 0.06809 0.45051 0.0
C906 C 0.11983 0.0848 0.42707 0.0
C907 C 0.10257 0.11473 0.42644 0.0
C908 C 0.89316 0.04332 0.37015 0.0
C909 C 0.9083 0.06663 0.39346 0.0
C910 C 0.86441 -0.00298 0.36982 0.0
C911 C 0.84947 0.97226 0.39275 0.0
H912 H 0.90544 0.06048 0.352 0.0
H913 H 0.85536 0.98027 0.35136 0.0
S914 S 0.87416 0.0183 0.45886 0.0
N915 N 0.9023 0.06226 0.44013 0.0
N916 N 0.84812 0.97503 0.43937 0.0
C917 C 0.86154 -0.00448 0.41617 0.0
C918 C 0.89103 0.04279 0.41655 0.0
C919 C -0.00883 0.87679 0.37501 0.0
C920 C 0.0123 0.88491 0.39917 0.0
C921 C 0.945 0.85941 0.37289 0.0
C922 C 0.91818 0.84967 0.39486 0.0
H923 H 0.01066 0.88563 0.35749 0.0
H924 H 0.93072 0.85585 0.35391 0.0
S925 S 0.95593 0.85822 0.46253 0.0
N926 N 0.00217 0.87707 0.44544 0.0
N927 N 0.91514 0.84427 0.44155 0.0
C928 C 0.93832 0.85451 0.41912 0.0
C929 C 0.98546 0.87212 0.42127 0.0
C930 C 0.87328 0.88108 0.91927 0.0
C931 C 0.84981 0.86938 0.89587 0.0
C932 C 0.90867 0.87285 0.92342 0.0
C933 C 0.92161 0.85287 0.90425 0.0
H934 H 0.86661 0.89968 0.93363 0.0
H935 H 0.92777 0.88487 0.94105 0.0
S936 S 0.86425 0.80732 0.84208 0.0
N937 N 0.83702 0.8303 0.85514 0.0
N938 N 0.90365 0.81515 0.86289 0.0
C939 C 0.89563 0.83727 0.88185 0.0
C940 C 0.85958 0.84539 0.8777 0.0
C941 C 0.15106 0.01759 0.91116 0.0
C942 C 0.11598 -0.00877 0.92809 0.0
C943 C 0.16431 0.06248 0.90698 0.0
C944 C 0.14279 0.08256 0.91949 0.0
H945 H 0.16564 0.00234 0.89935 0.0
H946 H 0.1892 0.08056 0.89233 0.0
S947 S 0.0528 0.02912 0.96812 0.0
N948 N 0.06314 0.98915 0.95948 0.0
N949 N 0.08815 0.07406 0.95175 0.0
C950 C 0.1108 0.05785 0.93845 0.0
C951 C 0.0973 0.01188 0.94271 0.0
C952 C 0.98263 0.1058 0.89298 0.0
C953 C 0.01197 0.11218 0.87263 0.0
C954 C 0.93688 0.07549 0.89094 0.0
C955 C 0.91843 0.05037 0.86844 0.0
H956 H -0.00485 0.12335 0.91102 0.0
H957 H 0.91603 0.07082 0.90752 0.0
S958 S 0.97998 0.05761 0.80865 0.0
N959 N 0.01888 0.09326 0.82848 0.0
N960 N 0.9324 0.03601 0.82468 0.0
C961 C 0.94687 0.05794 0.84742 0.0
C962 C -0.00623 0.08886 0.84953 0.0
C963 C 0.85663 0.90069 0.61125 0.0
C964 C 0.87723 0.93748 0.62795 0.0
C965 C 0.87623 0.87481 0.60583 0.0
C966 C 0.91734 0.88452 0.61685 0.0
H967 H 0.82608 0.89308 0.60124 0.0
H968 H 0.85955 0.84776 0.59213 0.0
S969 S 0.98272 0.97438 0.66402 0.0
N970 N 0.93923 0.98037 0.6572 0.0
N971 N 0.97614 0.93101 0.64709 0.0
C972 C 0.93687 0.91921 0.63503 0.0
C973 C 0.91676 0.94587 0.64058 0.0
C974 C 0.13007 0.96738 0.53613 0.0
C975 C 0.11354 -0.00604 0.52595 0.0
C976 C 0.10103 0.92264 0.54278 0.0
C977 C 0.05456 0.90293 0.53928 0.0
H978 H 0.1648 0.98273 0.54199 0.0
H979 H 0.11457 0.9048 0.55309 0.0
S980 S -0.00423 0.95642 0.50921 0.0
N981 N 0.04896 -0.004 0.5094 0.0
N982 N -0.00583 0.91157 0.52157 0.0
C983 C 0.03837 0.92742 0.52601 0.0
C984 C 0.06806 0.97317 0.51937 0.0
C985 C 0.01743 0.09924 0.55213 0.0
C986 C 0.05493 0.12244 0.5682 0.0
C987 C 0.97494 0.09026 0.5602 0.0
C988 C 0.96907 0.10461 0.58444 0.0
H989 H 0.02037 0.08535 0.53407 0.0
H990 H 0.94629 0.0694 0.5482 0.0
S991 S 0.05865 0.17493 0.6309 0.0
N992 N 0.08484 0.16528 0.60744 0.0
N993 N 0.00543 0.14932 0.62243 0.0
C994 C 0.00717 0.13163 0.59942 0.0
C995 C 0.05007 0.14025 0.59136 0.0
C996 C 0.76084 0.47796 0.4533 0.0
C997 C 0.75069 0.49148 0.4767 0.0
C998 C 0.79058 0.46152 0.45238 0.0
C999 C 0.81096 0.45787 0.47486 0.0
H1000 H 0.74382 0.47767 0.43574 0.0
H1001 H 0.79508 0.44868 0.43432 0.0
S1002 S 0.80275 0.49696 0.53994 0.0
N1003 N 0.7687 0.50631 0.52211 0.0
N1004 N 0.82444 0.4752 0.52039 0.0
C1005 C 0.80429 0.475 0.4979 0.0
C1006 C 0.77419 0.49191 0.49883 0.0
C1007 C 0.53203 0.29641 0.44929 0.0
C1008 C 0.51635 0.27035 0.47179 0.0
C1009 C 0.55044 0.34293 0.45006 0.0
C1010 C 0.55394 0.36489 0.47335 0.0
H1011 H 0.53229 0.28118 0.43116 0.0
H1012 H 0.56439 0.36195 0.4326 0.0
S1013 S 0.51015 0.31133 0.53663 0.0
N1014 N 0.49988 0.26943 0.51726 0.0
N1015 N 0.5346 0.3568 0.51871 0.0
C1016 C 0.53513 0.33892 0.49554 0.0
C1017 C 0.51626 0.29162 0.49475 0.0
C1018 C 0.70717 0.24176 0.49044 0.0
C1019 C 0.7316 0.26408 0.46844 0.0
C1020 C 0.66094 0.21277 0.48924 0.0
C1021 C 0.63729 0.20473 0.46597 0.0
H1022 H 0.72344 0.24816 0.50902 0.0
H1023 H 0.64338 0.19781 0.50696 0.0
S1024 S 0.68632 0.25053 0.40217 0.0
N1025 N 0.72936 0.27292 0.42209 0.0
N1026 N 0.6422 0.2182 0.41997 0.0
C1027 C 0.6616 0.22439 0.44348 0.0
C1028 C 0.70884 0.25419 0.44468 0.0
C1029 C 0.75944 0.451 0.6696 0.0
C1030 C 0.74333 0.46641 0.68966 0.0
C1031 C 0.77737 0.42326 0.67442 0.0
C1032 C 0.77966 0.4096 0.69953 0.0
H1033 H 0.75678 0.4591 0.64979 0.0
H1034 H 0.78761 0.41089 0.65821 0.0
S1035 S 0.74682 0.44483 0.75918 0.0
N1036 N 0.73453 0.46925 0.73583 0.0
N1037 N 0.76815 0.41695 0.74501 0.0
C1038 C 0.76618 0.42692 0.71995 0.0
C1039 C 0.74805 0.45541 0.71502 0.0
C1040 C 0.51027 0.32743 0.69482 0.0
C1041 C 0.4983 0.30047 0.67279 0.0
C1042 C 0.53823 0.37385 0.6931 0.0
C1043 C 0.55506 0.39502 0.66925 0.0
H1044 H 0.50018 0.31244 0.71369 0.0
H1045 H 0.54844 0.39293 0.71077 0.0
S1046 S 0.52683 0.34006 0.60545 0.0
N1047 N 0.50033 0.29869 0.62608 0.0
N1048 N 0.55289 0.38601 0.6229 0.0
C1049 C 0.54028 0.36883 0.64691 0.0
C1050 C 0.51193 0.3215 0.64866 0.0
C1051 C 0.63727 0.22064 0.72493 0.0
C1052 C 0.66508 0.21902 0.70585 0.0
C1053 C 0.59153 0.20355 0.72028 0.0
C1054 C 0.57206 0.18412 0.69642 0.0
H1055 H 0.65136 0.23774 0.74292 0.0
H1056 H 0.57184 0.20765 0.73507 0.0
S1057 S 0.62936 0.16448 0.64202 0.0
N1058 N 0.66909 0.19114 0.66361 0.0
N1059 N 0.58319 0.15895 0.6549 0.0
C1060 C 0.59889 0.17902 0.67803 0.0
C1061 C 0.64542 0.19651 0.68275 0.0
C1062 C 0.56671 0.19088 0.23688 0.0
C1063 C 0.58005 0.18081 0.21342 0.0
C1064 C 0.53658 0.20683 0.23751 0.0
C1065 C 0.51895 0.21338 0.2147 0.0
H1066 H 0.5812 0.18849 0.25486 0.0
H1067 H 0.52901 0.21634 0.25585 0.0
S1068 S 0.53695 0.18465 0.14875 0.0
N1069 N 0.5688 0.17309 0.16717 0.0
N1070 N 0.51218 0.2031 0.16833 0.0
C1071 C 0.52939 0.20031 0.19131 0.0
C1072 C 0.55994 0.18397 0.19067 0.0
C1073 C 0.78476 0.33097 0.20619 0.0
C1074 C 0.76705 0.30265 0.22764 0.0
C1075 C 0.79946 0.37659 0.20796 0.0
C1076 C 0.79691 0.39569 0.23125 0.0
H1077 H 0.78538 0.31746 0.18751 0.0
H1078 H 0.8108 0.39649 0.19061 0.0
S1079 S 0.75916 0.33716 0.29392 0.0
N1080 N 0.75226 0.29763 0.27349 0.0
N1081 N 0.78005 0.38375 0.27698 0.0
C1082 C 0.78256 0.36846 0.25334 0.0
C1083 C 0.76762 0.3218 0.25151 0.0
C1084 C 0.64468 0.43351 0.25268 0.0
C1085 C 0.66955 0.46056 0.23201 0.0
C1086 C 0.59877 0.40304 0.24997 0.0
C1087 C 0.57643 0.39885 0.22653 0.0
H1088 H 0.66127 0.43359 0.27037 0.0
H1089 H 0.58137 0.38085 0.26587 0.0
S1090 S 0.62538 0.46897 0.16852 0.0
N1091 N 0.66766 0.48622 0.18878 0.0
N1092 N 0.58153 0.42918 0.1837 0.0
C1093 C 0.60029 0.42868 0.20658 0.0
C1094 C 0.64688 0.45951 0.20933 0.0
C1095 C 0.53534 0.19813 0.94739 0.0
C1096 C 0.55574 0.18745 0.92739 0.0
C1097 C 0.51931 0.22762 0.94349 0.0
C1098 C 0.52315 0.24768 0.91944 0.0
H1099 H 0.5335 0.18519 0.96658 0.0
H1100 H 0.50569 0.23627 0.9598 0.0
S1101 S 0.56884 0.22645 0.85994 0.0
N1102 N 0.57504 0.19569 0.88206 0.0
N1103 N 0.54481 0.25135 0.8746 0.0
C1104 C 0.54053 0.23481 0.89877 0.0
C1105 C 0.55683 0.20457 0.90277 0.0
C1106 C 0.77115 0.33431 0.97174 0.0
C1107 C 0.79335 0.35711 0.94918 0.0
C1108 C 0.74566 0.28758 0.97246 0.0
C1109 C 0.74115 0.26188 0.95057 0.0
H1110 H 0.77227 0.3527 0.98885 0.0
H1111 H 0.72757 0.27172 0.98989 0.0
S1112 S 0.79686 0.30485 0.88763 0.0
N1113 N 0.81251 0.35016 0.90514 0.0
N1114 N 0.76442 0.26228 0.9064 0.0
C1115 C 0.76529 0.28405 0.92834 0.0
C1116 C 0.79144 0.33169 0.92765 0.0
C1117 C 0.70798 0.48865 0.9381 0.0
C1118 C 0.73506 0.48065 0.92137 0.0
C1119 C 0.6625 0.47113 0.93304 0.0
C1120 C 0.64241 0.44505 0.91105 0.0
H1121 H 0.7213 0.50624 0.95606 0.0
H1122 H 0.64226 0.47552 0.94738 0.0
S1123 S 0.69972 0.41976 0.85924 0.0
N1124 N 0.73964 0.44939 0.88027 0.0
N1125 N 0.6536 0.41623 0.87095 0.0
C1126 C 0.66973 0.44033 0.89291 0.0
C1127 C 0.7163 0.4582 0.89805 0.0
C1128 C 0.41671 0.81605 0.78594 0.0
C1129 C 0.3925 0.81938 0.76521 0.0
C1130 C 0.44384 0.79699 0.78276 0.0
C1131 C 0.44807 0.78077 0.75872 0.0
H1132 H 0.4128 0.82589 0.80508 0.0
H1133 H 0.46004 0.79312 0.79961 0.0
S1134 S 0.39737 0.78816 0.69745 0.0
N1135 N 0.37874 0.80985 0.71908 0.0
N1136 N 0.42994 0.774 0.71324 0.0
C1137 C 0.42704 0.78722 0.7374 0.0
C1138 C 0.39914 0.8065 0.74063 0.0
C1139 C 0.18835 0.67403 0.76686 0.0
C1140 C 0.20506 0.70193 0.78846 0.0
C1141 C 0.16893 0.62761 0.76923 0.0
C1142 C 0.16528 0.60735 0.79331 0.0
H1143 H 0.19231 0.68822 0.74783 0.0
H1144 H 0.15849 0.60769 0.75185 0.0
S1145 S 0.19753 0.66527 0.85626 0.0
N1146 N 0.21197 0.70578 0.83507 0.0
N1147 N 0.17544 0.61846 0.83946 0.0
C1148 C 0.17886 0.63461 0.81526 0.0
C1149 C 0.19882 0.68194 0.81284 0.0
C1150 C 0.35428 0.57362 0.79146 0.0
C1151 C 0.37097 0.58839 0.76661 0.0
C1152 C 0.30841 0.54619 0.79578 0.0
C1153 C 0.2774 0.5322 0.77543 0.0
H1154 H 0.3765 0.58499 0.8079 0.0
H1155 H 0.29707 0.53729 0.81543 0.0
S1156 S 0.30436 0.55676 0.70629 0.0
N1157 N 0.35331 0.58338 0.72097 0.0
N1158 N 0.26693 0.53163 0.72921 0.0
C1159 C 0.29381 0.54412 0.75027 0.0
C1160 C 0.34065 0.5723 0.74585 0.0
C1161 C 0.43655 0.75751 0.02815 0.0
C1162 C 0.43438 0.77496 0.05221 0.0
C1163 C 0.45048 0.72597 0.02596 0.0
C1164 C 0.4625 0.71045 0.04777 0.0
H1165 H 0.42604 0.76717 0.01086 0.0
H1166 H 0.44986 0.71223 0.00715 0.0
S1167 S 0.46756 0.74929 0.11489 0.0
N1168 N 0.44916 0.77731 0.09803 0.0
N1169 N 0.47531 0.71788 0.09399 0.0
C1170 C 0.46296 0.72949 0.0718 0.0
C1171 C 0.44892 0.76181 0.07399 0.0
C1172 C 0.22208 0.65773 0.09386 0.0
C1173 C 0.18939 0.63752 0.07465 0.0
C1174 C 0.25471 0.70321 0.09218 0.0
C1175 C 0.25541 0.72941 0.07122 0.0
H1176 H 0.22475 0.63765 0.10898 0.0
H1177 H 0.28133 0.71696 0.10632 0.0
S1178 S 0.17073 0.69376 0.01932 0.0
N1179 N 0.15506 0.64824 0.03661 0.0
N1180 N 0.21614 0.7335 0.03345 0.0
C1181 C 0.2201 0.71042 0.05345 0.0
C1182 C 0.18707 0.66442 0.05519 0.0
C1183 C 0.31957 0.52817 0.07854 0.0
C1184 C 0.33669 0.52328 0.0551 0.0
C1185 C 0.27492 0.51789 0.08046 0.0
C1186 C 0.24623 0.50248 0.05898 0.0
H1187 H 0.34147 0.54304 0.09494 0.0
H1188 H 0.2637 0.52467 0.09845 0.0
S1189 S 0.27284 0.47506 0.99491 0.0
N1190 N 0.32009 0.49545 0.01123 0.0
N1191 N 0.23625 0.4762 0.01482 0.0
C1192 C 0.26197 0.49358 0.03617 0.0
C1193 C 0.30725 0.50394 0.03424 0.0
C1194 C 0.22829 0.5433 0.63508 0.0
C1195 C 0.18703 0.52579 0.62224 0.0
C1196 C 0.25698 0.52609 0.63032 0.0
C1197 C 0.24515 0.49136 0.6124 0.0
H1198 H 0.24055 0.57335 0.64657 0.0
H1199 H 0.29033 0.54323 0.6385 0.0
S1200 S 0.1369 0.42861 0.57814 0.0
N1201 N 0.13285 0.4675 0.59438 0.0
N1202 N 0.18655 0.43543 0.58532 0.0
C1203 C 0.20186 0.47041 0.60195 0.0
C1204 C 0.1728 0.48762 0.60691 0.0
C1205 C 0.4066 0.64649 0.54577 0.0
C1206 C 0.41288 0.62565 0.56735 0.0
C1207 C 0.42822 0.6933 0.54386 0.0
C1208 C 0.45676 0.72074 0.56351 0.0
H1209 H 0.38386 0.62659 0.53057 0.0
H1210 H 0.4208 0.70796 0.52754 0.0
S1211 S 0.48882 0.6831 0.62246 0.0
N1212 N 0.4531 0.63645 0.60764 0.0
N1213 N 0.49339 0.72398 0.604 0.0
C1214 C 0.46515 0.70037 0.58447 0.0
C1215 C 0.44328 0.65293 0.58643 0.0
C1216 C 0.33575 0.76883 0.61122 0.0
C1217 C 0.3502 0.78948 0.58714 0.0
C1218 C 0.29115 0.73532 0.61504 0.0
C1219 C 0.25982 0.72138 0.59486 0.0
H1220 H 0.35949 0.77657 0.62672 0.0
H1221 H 0.28182 0.71862 0.63348 0.0
S1222 S 0.27909 0.77096 0.52969 0.0
N1223 N 0.3283 0.79819 0.544 0.0
N1224 N 0.2448 0.73495 0.55114 0.0
C1225 C 0.2731 0.74423 0.57136 0.0
C1226 C 0.31825 0.77845 0.56752 0.0
C1227 C 0.19304 0.53702 0.29468 0.0
C1228 C 0.20236 0.52545 0.27048 0.0
C1229 C 0.17763 0.5673 0.29704 0.0
C1230 C 0.17117 0.58741 0.27528 0.0
H1231 H 0.19944 0.52397 0.31211 0.0
H1232 H 0.17296 0.57664 0.31616 0.0
S1233 S 0.18514 0.5639 0.20729 0.0
N1234 N 0.19978 0.5328 0.2242 0.0
N1235 N 0.17072 0.59 0.22848 0.0
C1236 C 0.17726 0.57369 0.25082 0.0
C1237 C 0.19285 0.54257 0.24845 0.0
C1238 C 0.42806 0.65215 0.23644 0.0
C1239 C 0.45724 0.67331 0.25711 0.0
C1240 C 0.39556 0.60666 0.2378 0.0
C1241 C 0.39142 0.58119 0.25987 0.0
H1242 H 0.42796 0.67147 0.22007 0.0
H1243 H 0.37176 0.59223 0.22218 0.0
S1244 S 0.46659 0.61946 0.31658 0.0
N1245 N 0.48492 0.66431 0.29832 0.0
N1246 N 0.42401 0.57893 0.30089 0.0
C1247 C 0.42335 0.60113 0.27948 0.0
C1248 C 0.45629 0.64725 0.27808 0.0
C1249 C 0.37235 0.79776 0.29197 0.0
C1250 C 0.39161 0.79844 0.26812 0.0
C1251 C 0.32702 0.78441 0.29394 0.0
C1252 C 0.29915 0.77139 0.27215 0.0
H1253 H 0.39191 0.80573 0.30947 0.0
H1254 H 0.31335 0.78261 0.31292 0.0
S1255 S 0.33415 0.77227 0.20479 0.0
N1256 N 0.38023 0.7889 0.22181 0.0
N1257 N 0.2947 0.76371 0.22569 0.0
C1258 C 0.31847 0.77481 0.24795 0.0
C1259 C 0.36481 0.78831 0.2459 0.0
loop_
_geom_bond_atom_site_label_1
_geom_bond_atom_site_label_2
_geom_bond_distance
_geom_bond_site_symmetry_2
_ccdc_geom_bond_type
In0 O1 2.294 . S
In0 O2 2.326 . S
In0 O6 2.266 . S
In0 O7 2.326 . S
In0 O8 2.266 1_545 S
In0 O9 2.326 1_545 S
In0 O11 2.294 . S
In0 O12 2.326 . S
O1 In0 2.294 . S
O1 C10 1.240 . S
O2 In0 2.326 . S
O2 C10 1.252 . S
C3 O6 1.252 . S
C3 O7 1.260 . S
C4 O11 1.240 . S
C4 O12 1.252 . S
C5 O8 1.252 . S
C5 O9 1.260 . S
O6 In0 2.266 . S
O6 C3 1.252 . S
O7 In0 2.326 . S
O7 C3 1.260 . S
O8 In0 2.266 1_565 S
O8 C5 1.252 . S
O9 In0 2.326 1_565 S
O9 C5 1.260 . S
C10 O1 1.240 . S
C10 O2 1.252 . S
O11 In0 2.294 . S
O11 C4 1.240 . S
O12 In0 2.326 . S
O12 C4 1.252 . S
In13 O14 2.294 . S
In13 O15 2.326 . S
In13 O19 2.266 . S
In13 O20 2.326 . S
In13 O21 2.266 1_655 S
In13 O22 2.326 1_655 S
In13 O24 2.294 . S
In13 O25 2.326 . S
O14 In13 2.294 . S
O14 C23 1.240 . S
O15 In13 2.326 . S
O15 C23 1.252 . S
C16 O19 1.252 . S
C16 O20 1.260 . S
C17 O24 1.240 . S
C17 O25 1.252 . S
C18 O21 1.252 . S
C18 O22 1.260 . S
O19 In13 2.266 . S
O19 C16 1.252 . S
O20 In13 2.326 . S
O20 C16 1.260 . S
O21 In13 2.266 1_455 S
O21 C18 1.252 . S
O22 In13 2.326 1_455 S
O22 C18 1.260 . S
C23 O14 1.240 . S
C23 O15 1.252 . S
O24 In13 2.294 . S
O24 C17 1.240 . S
O25 In13 2.326 . S
O25 C17 1.252 . S
In26 O27 2.294 . S
In26 O28 2.326 . S
In26 O32 2.266 . S
In26 O33 2.326 . S
In26 O34 2.266 . S
In26 O35 2.326 . S
In26 O37 2.294 . S
In26 O38 2.326 . S
O27 In26 2.294 . S
O27 C36 1.240 . S
O28 In26 2.326 . S
O28 C36 1.252 . S
C29 O32 1.252 . S
C29 O33 1.260 . S
C30 O37 1.240 . S
C30 O38 1.252 . S
C31 O34 1.252 . S
C31 O35 1.260 . S
O32 In26 2.266 . S
O32 C29 1.252 . S
O33 In26 2.326 . S
O33 C29 1.260 . S
O34 In26 2.266 . S
O34 C31 1.252 . S
O35 In26 2.326 . S
O35 C31 1.260 . S
C36 O27 1.240 . S
C36 O28 1.252 . S
O37 In26 2.294 . S
O37 C30 1.240 . S
O38 In26 2.326 . S
O38 C30 1.252 . S
In39 O40 2.294 . S
In39 O41 2.326 . S
In39 O45 2.266 . S
In39 O46 2.326 . S
In39 O47 2.266 1_455 S
In39 O48 2.326 1_455 S
In39 O50 2.294 . S
In39 O51 2.326 . S
O40 In39 2.294 . S
O40 C49 1.240 . S
O41 In39 2.326 . S
O41 C49 1.252 . S
C42 O45 1.252 . S
C42 O46 1.260 . S
C43 O50 1.240 . S
C43 O51 1.252 . S
C44 O47 1.252 . S
C44 O48 1.260 . S
O45 In39 2.266 . S
O45 C42 1.252 . S
O46 In39 2.326 . S
O46 C42 1.260 . S
O47 In39 2.266 1_655 S
O47 C44 1.252 . S
O48 In39 2.326 1_655 S
O48 C44 1.260 . S
C49 O40 1.240 . S
C49 O41 1.252 . S
O50 In39 2.294 . S
O50 C43 1.240 . S
O51 In39 2.326 . S
O51 C43 1.252 . S
In52 O53 2.294 . S
In52 O54 2.326 . S
In52 O58 2.266 . S
In52 O59 2.326 . S
In52 O60 2.266 . S
In52 O61 2.326 . S
In52 O63 2.294 . S
In52 O64 2.326 . S
O53 In52 2.294 . S
O53 C62 1.240 . S
O54 In52 2.326 . S
O54 C62 1.252 . S
C55 O58 1.252 . S
C55 O59 1.260 . S
C56 O63 1.240 . S
C56 O64 1.252 . S
C57 O60 1.252 . S
C57 O61 1.260 . S
O58 In52 2.266 . S
O58 C55 1.252 . S
O59 In52 2.326 . S
O59 C55 1.260 . S
O60 In52 2.266 . S
O60 C57 1.252 . S
O61 In52 2.326 . S
O61 C57 1.260 . S
C62 O53 1.240 . S
C62 O54 1.252 . S
O63 In52 2.294 . S
O63 C56 1.240 . S
O64 In52 2.326 . S
O64 C56 1.252 . S
In65 O66 2.294 . S
In65 O67 2.326 . S
In65 O71 2.266 1_565 S
In65 O72 2.326 1_565 S
In65 O73 2.266 . S
In65 O74 2.326 . S
In65 O76 2.294 . S
In65 O77 2.326 . S
O66 In65 2.294 . S
O66 C75 1.240 . S
O67 In65 2.326 . S
O67 C75 1.252 . S
C68 O71 1.252 . S
C68 O72 1.260 . S
C69 O76 1.240 . S
C69 O77 1.252 . S
C70 O73 1.252 . S
C70 O74 1.260 . S
O71 In65 2.266 1_545 S
O71 C68 1.252 . S
O72 In65 2.326 1_545 S
O72 C68 1.260 . S
O73 In65 2.266 . S
O73 C70 1.252 . S
O74 In65 2.326 . S
O74 C70 1.260 . S
C75 O66 1.240 . S
C75 O67 1.252 . S
O76 In65 2.294 . S
O76 C69 1.240 . S
O77 In65 2.326 . S
O77 C69 1.252 . S
In78 O79 2.294 . S
In78 O80 2.326 . S
In78 O84 2.266 . S
In78 O85 2.326 . S
In78 O86 2.266 1_565 S
In78 O87 2.326 1_565 S
In78 O89 2.294 . S
In78 O90 2.326 . S
O79 In78 2.294 . S
O79 C88 1.240 . S
O80 In78 2.326 . S
O80 C88 1.252 . S
C81 O84 1.252 . S
C81 O85 1.260 . S
C82 O89 1.240 . S
C82 O90 1.252 . S
C83 O86 1.252 . S
C83 O87 1.260 . S
O84 In78 2.266 . S
O84 C81 1.252 . S
O85 In78 2.326 . S
O85 C81 1.260 . S
O86 In78 2.266 1_545 S
O86 C83 1.252 . S
O87 In78 2.326 1_545 S
O87 C83 1.260 . S
C88 O79 1.240 . S
C88 O80 1.252 . S
O89 In78 2.294 . S
O89 C82 1.240 . S
O90 In78 2.326 . S
O90 C82 1.252 . S
In91 O92 2.294 . S
In91 O93 2.326 . S
In91 O97 2.266 . S
In91 O98 2.326 . S
In91 O99 2.266 1_455 S
In91 O100 2.326 1_455 S
In91 O102 2.294 . S
In91 O103 2.326 . S
O92 In91 2.294 . S
O92 C101 1.240 . S
O93 In91 2.326 . S
O93 C101 1.252 . S
C94 O97 1.252 . S
C94 O98 1.260 . S
C95 O102 1.240 . S
C95 O103 1.252 . S
C96 O99 1.252 . S
C96 O100 1.260 . S
O97 In91 2.266 . S
O97 C94 1.252 . S
O98 In91 2.326 . S
O98 C94 1.260 . S
O99 In91 2.266 1_655 S
O99 C96 1.252 . S
O100 In91 2.326 1_655 S
O100 C96 1.260 . S
C101 O92 1.240 . S
C101 O93 1.252 . S
O102 In91 2.294 . S
O102 C95 1.240 . S
O103 In91 2.326 . S
O103 C95 1.252 . S
In104 O105 2.294 . S
In104 O106 2.326 . S
In104 O110 2.266 . S
In104 O111 2.326 . S
In104 O112 2.266 . S
In104 O113 2.326 . S
In104 O115 2.294 . S
In104 O116 2.326 . S
O105 In104 2.294 . S
O105 C114 1.240 . S
O106 In104 2.326 . S
O106 C114 1.252 . S
C107 O110 1.252 . S
C107 O111 1.260 . S
C108 O115 1.240 . S
C108 O116 1.252 . S
C109 O112 1.252 . S
C109 O113 1.260 . S
O110 In104 2.266 . S
O110 C107 1.252 . S
O111 In104 2.326 . S
O111 C107 1.260 . S
O112 In104 2.266 . S
O112 C109 1.252 . S
O113 In104 2.326 . S
O113 C109 1.260 . S
C114 O105 1.240 . S
C114 O106 1.252 . S
O115 In104 2.294 . S
O115 C108 1.240 . S
O116 In104 2.326 . S
O116 C108 1.252 . S
In117 O118 2.294 . S
In117 O119 2.326 . S
In117 O123 2.266 . S
In117 O124 2.326 . S
In117 O125 2.266 1_655 S
In117 O126 2.326 1_655 S
In117 O128 2.294 . S
In117 O129 2.326 . S
O118 In117 2.294 . S
O118 C127 1.240 . S
O119 In117 2.326 . S
O119 C127 1.252 . S
C120 O123 1.252 . S
C120 O124 1.260 . S
C121 O128 1.240 . S
C121 O129 1.252 . S
C122 O125 1.252 . S
C122 O126 1.260 . S
O123 In117 2.266 . S
O123 C120 1.252 . S
O124 In117 2.326 . S
O124 C120 1.260 . S
O125 In117 2.266 1_455 S
O125 C122 1.252 . S
O126 In117 2.326 1_455 S
O126 C122 1.260 . S
C127 O118 1.240 . S
C127 O119 1.252 . S
O128 In117 2.294 . S
O128 C121 1.240 . S
O129 In117 2.326 . S
O129 C121 1.252 . S
In130 O131 2.294 . S
In130 O132 2.326 . S
In130 O136 2.266 . S
In130 O137 2.326 . S
In130 O138 2.266 . S
In130 O139 2.326 . S
In130 O141 2.294 . S
In130 O142 2.326 . S
O131 In130 2.294 . S
O131 C140 1.240 . S
O132 In130 2.326 . S
O132 C140 1.252 . S
C133 O136 1.252 . S
C133 O137 1.260 . S
C134 O141 1.240 . S
C134 O142 1.252 . S
C135 O138 1.252 . S
C135 O139 1.260 . S
O136 In130 2.266 . S
O136 C133 1.252 . S
O137 In130 2.326 . S
O137 C133 1.260 . S
O138 In130 2.266 . S
O138 C135 1.252 . S
O139 In130 2.326 . S
O139 C135 1.260 . S
C140 O131 1.240 . S
C140 O132 1.252 . S
O141 In130 2.294 . S
O141 C134 1.240 . S
O142 In130 2.326 . S
O142 C134 1.252 . S
In143 O144 2.294 . S
In143 O145 2.326 . S
In143 O149 2.266 1_545 S
In143 O150 2.326 1_545 S
In143 O151 2.266 . S
In143 O152 2.326 . S
In143 O154 2.294 . S
In143 O155 2.326 . S
O144 In143 2.294 . S
O144 C153 1.240 . S
O145 In143 2.326 . S
O145 C153 1.252 . S
C146 O149 1.252 . S
C146 O150 1.260 . S
C147 O154 1.240 . S
C147 O155 1.252 . S
C148 O151 1.252 . S
C148 O152 1.260 . S
O149 In143 2.266 1_565 S
O149 C146 1.252 . S
O150 In143 2.326 1_565 S
O150 C146 1.260 . S
O151 In143 2.266 . S
O151 C148 1.252 . S
O152 In143 2.326 . S
O152 C148 1.260 . S
C153 O144 1.240 . S
C153 O145 1.252 . S
O154 In143 2.294 . S
O154 C147 1.240 . S
O155 In143 2.326 . S
O155 C147 1.252 . S
In156 O157 2.294 . S
In156 O158 2.326 . S
In156 O162 2.266 . S
In156 O163 2.326 . S
In156 O164 2.266 . S
In156 O165 2.326 . S
In156 O167 2.294 . S
In156 O168 2.326 . S
O157 In156 2.294 . S
O157 C166 1.240 . S
O158 In156 2.326 . S
O158 C166 1.252 . S
C159 O162 1.252 . S
C159 O163 1.260 . S
C160 O167 1.240 . S
C160 O168 1.252 . S
C161 O164 1.252 . S
C161 O165 1.260 . S
O162 In156 2.266 . S
O162 C159 1.252 . S
O163 In156 2.326 . S
O163 C159 1.260 . S
O164 In156 2.266 . S
O164 C161 1.252 . S
O165 In156 2.326 . S
O165 C161 1.260 . S
C166 O157 1.240 . S
C166 O158 1.252 . S
O167 In156 2.294 . S
O167 C160 1.240 . S
O168 In156 2.326 . S
O168 C160 1.252 . S
In169 O170 2.294 . S
In169 O171 2.326 . S
In169 O175 2.266 . S
In169 O176 2.326 . S
In169 O177 2.266 . S
In169 O178 2.326 . S
In169 O180 2.294 . S
In169 O181 2.326 . S
O170 In169 2.294 . S
O170 C179 1.240 . S
O171 In169 2.326 . S
O171 C179 1.252 . S
C172 O175 1.252 . S
C172 O176 1.260 . S
C173 O180 1.240 . S
C173 O181 1.252 . S
C174 O177 1.252 . S
C174 O178 1.260 . S
O175 In169 2.266 . S
O175 C172 1.252 . S
O176 In169 2.326 . S
O176 C172 1.260 . S
O177 In169 2.266 . S
O177 C174 1.252 . S
O178 In169 2.326 . S
O178 C174 1.260 . S
C179 O170 1.240 . S
C179 O171 1.252 . S
O180 In169 2.294 . S
O180 C173 1.240 . S
O181 In169 2.326 . S
O181 C173 1.252 . S
In182 O183 2.294 . S
In182 O184 2.326 . S
In182 O188 2.266 . S
In182 O189 2.326 . S
In182 O190 2.266 . S
In182 O191 2.326 . S
In182 O193 2.294 . S
In182 O194 2.326 . S
O183 In182 2.294 . S
O183 C192 1.240 . S
O184 In182 2.326 . S
O184 C192 1.252 . S
C185 O188 1.252 . S
C185 O189 1.260 . S
C186 O193 1.240 . S
C186 O194 1.252 . S
C187 O190 1.252 . S
C187 O191 1.260 . S
O188 In182 2.266 . S
O188 C185 1.252 . S
O189 In182 2.326 . S
O189 C185 1.260 . S
O190 In182 2.266 . S
O190 C187 1.252 . S
O191 In182 2.326 . S
O191 C187 1.260 . S
C192 O183 1.240 . S
C192 O184 1.252 . S
O193 In182 2.294 . S
O193 C186 1.240 . S
O194 In182 2.326 . S
O194 C186 1.252 . S
In195 O196 2.294 . S
In195 O197 2.326 . S
In195 O201 2.266 . S
In195 O202 2.326 . S
In195 O203 2.266 . S
In195 O204 2.326 . S
In195 O206 2.294 . S
In195 O207 2.326 . S
O196 In195 2.294 . S
O196 C205 1.240 . S
O197 In195 2.326 . S
O197 C205 1.252 . S
C198 O201 1.252 . S
C198 O202 1.260 . S
C199 O206 1.240 . S
C199 O207 1.252 . S
C200 O203 1.252 . S
C200 O204 1.260 . S
O201 In195 2.266 . S
O201 C198 1.252 . S
O202 In195 2.326 . S
O202 C198 1.260 . S
O203 In195 2.266 . S
O203 C200 1.252 . S
O204 In195 2.326 . S
O204 C200 1.260 . S
C205 O196 1.240 . S
C205 O197 1.252 . S
O206 In195 2.294 . S
O206 C199 1.240 . S
O207 In195 2.326 . S
O207 C199 1.252 . S
In208 O209 2.294 . S
In208 O210 2.326 . S
In208 O214 2.266 . S
In208 O215 2.326 . S
In208 O216 2.266 . S
In208 O217 2.326 . S
In208 O219 2.294 . S
In208 O220 2.326 . S
O209 In208 2.294 . S
O209 C218 1.240 . S
O210 In208 2.326 . S
O210 C218 1.252 . S
C211 O214 1.252 . S
C211 O215 1.260 . S
C212 O219 1.240 . S
C212 O220 1.252 . S
C213 O216 1.252 . S
C213 O217 1.260 . S
O214 In208 2.266 . S
O214 C211 1.252 . S
O215 In208 2.326 . S
O215 C211 1.260 . S
O216 In208 2.266 . S
O216 C213 1.252 . S
O217 In208 2.326 . S
O217 C213 1.260 . S
C218 O209 1.240 . S
C218 O210 1.252 . S
O219 In208 2.294 . S
O219 C212 1.240 . S
O220 In208 2.326 . S
O220 C212 1.252 . S
In221 O222 2.294 . S
In221 O223 2.326 . S
In221 O227 2.266 . S
In221 O228 2.326 . S
In221 O229 2.266 . S
In221 O230 2.326 . S
In221 O232 2.294 . S
In221 O233 2.326 . S
O222 In221 2.294 . S
O222 C231 1.240 . S
O223 In221 2.326 . S
O223 C231 1.252 . S
C224 O227 1.252 . S
C224 O228 1.260 . S
C225 O232 1.240 . S
C225 O233 1.252 . S
C226 O229 1.252 . S
C226 O230 1.260 . S
O227 In221 2.266 . S
O227 C224 1.252 . S
O228 In221 2.326 . S
O228 C224 1.260 . S
O229 In221 2.266 . S
O229 C226 1.252 . S
O230 In221 2.326 . S
O230 C226 1.260 . S
C231 O222 1.240 . S
C231 O223 1.252 . S
O232 In221 2.294 . S
O232 C225 1.240 . S
O233 In221 2.326 . S
O233 C225 1.252 . S
In234 O235 2.294 . S
In234 O236 2.326 . S
In234 O240 2.266 . S
In234 O241 2.326 . S
In234 O242 2.266 . S
In234 O243 2.326 . S
In234 O245 2.294 . S
In234 O246 2.326 . S
O235 In234 2.294 . S
O235 C244 1.240 . S
O236 In234 2.326 . S
O236 C244 1.252 . S
C237 O240 1.252 . S
C237 O241 1.260 . S
C238 O245 1.240 . S
C238 O246 1.252 . S
C239 O242 1.252 . S
C239 O243 1.260 . S
O240 In234 2.266 . S
O240 C237 1.252 . S
O241 In234 2.326 . S
O241 C237 1.260 . S
O242 In234 2.266 . S
O242 C239 1.252 . S
O243 In234 2.326 . S
O243 C239 1.260 . S
C244 O235 1.240 . S
C244 O236 1.252 . S
O245 In234 2.294 . S
O245 C238 1.240 . S
O246 In234 2.326 . S
O246 C238 1.252 . S
In247 O248 2.294 . S
In247 O249 2.326 . S
In247 O253 2.266 . S
In247 O254 2.326 . S
In247 O255 2.266 . S
In247 O256 2.326 . S
In247 O258 2.294 . S
In247 O259 2.326 . S
O248 In247 2.294 . S
O248 C257 1.240 . S
O249 In247 2.326 . S
O249 C257 1.252 . S
C250 O253 1.252 . S
C250 O254 1.260 . S
C251 O258 1.240 . S
C251 O259 1.252 . S
C252 O255 1.252 . S
C252 O256 1.260 . S
O253 In247 2.266 . S
O253 C250 1.252 . S
O254 In247 2.326 . S
O254 C250 1.260 . S
O255 In247 2.266 . S
O255 C252 1.252 . S
O256 In247 2.326 . S
O256 C252 1.260 . S
C257 O248 1.240 . S
C257 O249 1.252 . S
O258 In247 2.294 . S
O258 C251 1.240 . S
O259 In247 2.326 . S
O259 C251 1.252 . S
In260 O261 2.294 . S
In260 O262 2.326 . S
In260 O266 2.266 . S
In260 O267 2.326 . S
In260 O268 2.266 . S
In260 O269 2.326 . S
In260 O271 2.294 . S
In260 O272 2.326 . S
O261 In260 2.294 . S
O261 C270 1.240 . S
O262 In260 2.326 . S
O262 C270 1.252 . S
C263 O266 1.252 . S
C263 O267 1.260 . S
C264 O271 1.240 . S
C264 O272 1.252 . S
C265 O268 1.252 . S
C265 O269 1.260 . S
O266 In260 2.266 . S
O266 C263 1.252 . S
O267 In260 2.326 . S
O267 C263 1.260 . S
O268 In260 2.266 . S
O268 C265 1.252 . S
O269 In260 2.326 . S
O269 C265 1.260 . S
C270 O261 1.240 . S
C270 O262 1.252 . S
O271 In260 2.294 . S
O271 C264 1.240 . S
O272 In260 2.326 . S
O272 C264 1.252 . S
In273 O274 2.294 . S
In273 O275 2.326 . S
In273 O279 2.266 . S
In273 O280 2.326 . S
In273 O281 2.266 . S
In273 O282 2.326 . S
In273 O284 2.294 . S
In273 O285 2.326 . S
O274 In273 2.294 . S
O274 C283 1.240 . S
O275 In273 2.326 . S
O275 C283 1.252 . S
C276 O279 1.252 . S
C276 O280 1.260 . S
C277 O284 1.240 . S
C277 O285 1.252 . S
C278 O281 1.252 . S
C278 O282 1.260 . S
O279 In273 2.266 . S
O279 C276 1.252 . S
O280 In273 2.326 . S
O280 C276 1.260 . S
O281 In273 2.266 . S
O281 C278 1.252 . S
O282 In273 2.326 . S
O282 C278 1.260 . S
C283 O274 1.240 . S
C283 O275 1.252 . S
O284 In273 2.294 . S
O284 C277 1.240 . S
O285 In273 2.326 . S
O285 C277 1.252 . S
In286 O287 2.294 . S
In286 O288 2.326 . S
In286 O292 2.266 . S
In286 O293 2.326 . S
In286 O294 2.266 . S
In286 O295 2.326 . S
In286 O297 2.294 . S
In286 O298 2.326 . S
O287 In286 2.294 . S
O287 C296 1.240 . S
O288 In286 2.326 . S
O288 C296 1.252 . S
C289 O292 1.252 . S
C289 O293 1.260 . S
C290 O297 1.240 . S
C290 O298 1.252 . S
C291 O294 1.252 . S
C291 O295 1.260 . S
O292 In286 2.266 . S
O292 C289 1.252 . S
O293 In286 2.326 . S
O293 C289 1.260 . S
O294 In286 2.266 . S
O294 C291 1.252 . S
O295 In286 2.326 . S
O295 C291 1.260 . S
C296 O287 1.240 . S
C296 O288 1.252 . S
O297 In286 2.294 . S
O297 C290 1.240 . S
O298 In286 2.326 . S
O298 C290 1.252 . S
In299 O300 2.294 . S
In299 O301 2.326 . S
In299 O305 2.266 . S
In299 O306 2.326 . S
In299 O307 2.266 . S
In299 O308 2.326 . S
In299 O310 2.294 . S
In299 O311 2.326 . S
O300 In299 2.294 . S
O300 C309 1.240 . S
O301 In299 2.326 . S
O301 C309 1.252 . S
C302 O305 1.252 . S
C302 O306 1.260 . S
C303 O310 1.240 . S
C303 O311 1.252 . S
C304 O307 1.252 . S
C304 O308 1.260 . S
O305 In299 2.266 . S
O305 C302 1.252 . S
O306 In299 2.326 . S
O306 C302 1.260 . S
O307 In299 2.266 . S
O307 C304 1.252 . S
O308 In299 2.326 . S
O308 C304 1.260 . S
C309 O300 1.240 . S
C309 O301 1.252 . S
O310 In299 2.294 . S
O310 C303 1.240 . S
O311 In299 2.326 . S
O311 C303 1.252 . S
In312 O313 2.294 . S
In312 O314 2.326 . S
In312 O318 2.266 . S
In312 O319 2.326 . S
In312 O320 2.266 . S
In312 O321 2.326 . S
In312 O323 2.294 . S
In312 O324 2.326 . S
O313 In312 2.294 . S
O313 C322 1.240 . S
O314 In312 2.326 . S
O314 C322 1.252 . S
C315 O318 1.252 . S
C315 O319 1.260 . S
C316 O323 1.240 . S
C316 O324 1.252 . S
C317 O320 1.252 . S
C317 O321 1.260 . S
O318 In312 2.266 . S
O318 C315 1.252 . S
O319 In312 2.326 . S
O319 C315 1.260 . S
O320 In312 2.266 . S
O320 C317 1.252 . S
O321 In312 2.326 . S
O321 C317 1.260 . S
C322 O313 1.240 . S
C322 O314 1.252 . S
O323 In312 2.294 . S
O323 C316 1.240 . S
O324 In312 2.326 . S
O324 C316 1.252 . S
In325 O326 2.294 . S
In325 O327 2.326 . S
In325 O331 2.266 . S
In325 O332 2.326 . S
In325 O333 2.266 . S
In325 O334 2.326 . S
In325 O336 2.294 . S
In325 O337 2.326 . S
O326 In325 2.294 . S
O326 C335 1.240 . S
O327 In325 2.326 . S
O327 C335 1.252 . S
C328 O331 1.252 . S
C328 O332 1.260 . S
C329 O336 1.240 . S
C329 O337 1.252 . S
C330 O333 1.252 . S
C330 O334 1.260 . S
O331 In325 2.266 . S
O331 C328 1.252 . S
O332 In325 2.326 . S
O332 C328 1.260 . S
O333 In325 2.266 . S
O333 C330 1.252 . S
O334 In325 2.326 . S
O334 C330 1.260 . S
C335 O326 1.240 . S
C335 O327 1.252 . S
O336 In325 2.294 . S
O336 C329 1.240 . S
O337 In325 2.326 . S
O337 C329 1.252 . S
In338 O339 2.294 . S
In338 O340 2.326 . S
In338 O344 2.266 . S
In338 O345 2.326 . S
In338 O346 2.266 . S
In338 O347 2.326 . S
In338 O349 2.294 . S
In338 O350 2.326 . S
O339 In338 2.294 . S
O339 C348 1.240 . S
O340 In338 2.326 . S
O340 C348 1.252 . S
C341 O344 1.252 . S
C341 O345 1.260 . S
C342 O349 1.240 . S
C342 O350 1.252 . S
C343 O346 1.252 . S
C343 O347 1.260 . S
O344 In338 2.266 . S
O344 C341 1.252 . S
O345 In338 2.326 . S
O345 C341 1.260 . S
O346 In338 2.266 . S
O346 C343 1.252 . S
O347 In338 2.326 . S
O347 C343 1.260 . S
C348 O339 1.240 . S
C348 O340 1.252 . S
O349 In338 2.294 . S
O349 C342 1.240 . S
O350 In338 2.326 . S
O350 C342 1.252 . S
In351 O352 2.294 . S
In351 O353 2.326 . S
In351 O357 2.266 . S
In351 O358 2.326 . S
In351 O359 2.266 . S
In351 O360 2.326 . S
In351 O362 2.294 . S
In351 O363 2.326 . S
O352 In351 2.294 . S
O352 C361 1.240 . S
O353 In351 2.326 . S
O353 C361 1.252 . S
C354 O357 1.252 . S
C354 O358 1.260 . S
C355 O362 1.240 . S
C355 O363 1.252 . S
C356 O359 1.252 . S
C356 O360 1.260 . S
O357 In351 2.266 . S
O357 C354 1.252 . S
O358 In351 2.326 . S
O358 C354 1.260 . S
O359 In351 2.266 . S
O359 C356 1.252 . S
O360 In351 2.326 . S
O360 C356 1.260 . S
C361 O352 1.240 . S
C361 O353 1.252 . S
O362 In351 2.294 . S
O362 C355 1.240 . S
O363 In351 2.326 . S
O363 C355 1.252 . S
In364 O365 2.294 . S
In364 O366 2.326 . S
In364 O370 2.266 . S
In364 O371 2.326 . S
In364 O372 2.266 . S
In364 O373 2.326 . S
In364 O375 2.294 . S
In364 O376 2.326 . S
O365 In364 2.294 . S
O365 C374 1.240 . S
O366 In364 2.326 . S
O366 C374 1.252 . S
C367 O370 1.252 . S
C367 O371 1.260 . S
C368 O375 1.240 . S
C368 O376 1.252 . S
C369 O372 1.252 . S
C369 O373 1.260 . S
O370 In364 2.266 . S
O370 C367 1.252 . S
O371 In364 2.326 . S
O371 C367 1.260 . S
O372 In364 2.266 . S
O372 C369 1.252 . S
O373 In364 2.326 . S
O373 C369 1.260 . S
C374 O365 1.240 . S
C374 O366 1.252 . S
O375 In364 2.294 . S
O375 C368 1.240 . S
O376 In364 2.326 . S
O376 C368 1.252 . S
In377 O378 2.294 . S
In377 O379 2.326 . S
In377 O383 2.266 . S
In377 O384 2.326 . S
In377 O385 2.266 . S
In377 O386 2.326 . S
In377 O388 2.294 . S
In377 O389 2.326 . S
O378 In377 2.294 . S
O378 C387 1.240 . S
O379 In377 2.326 . S
O379 C387 1.252 . S
C380 O383 1.252 . S
C380 O384 1.260 . S
C381 O388 1.240 . S
C381 O389 1.252 . S
C382 O385 1.252 . S
C382 O386 1.260 . S
O383 In377 2.266 . S
O383 C380 1.252 . S
O384 In377 2.326 . S
O384 C380 1.260 . S
O385 In377 2.266 . S
O385 C382 1.252 . S
O386 In377 2.326 . S
O386 C382 1.260 . S
C387 O378 1.240 . S
C387 O379 1.252 . S
O388 In377 2.294 . S
O388 C381 1.240 . S
O389 In377 2.326 . S
O389 C381 1.252 . S
In390 O391 2.294 . S
In390 O392 2.326 . S
In390 O396 2.266 . S
In390 O397 2.326 . S
In390 O398 2.266 . S
In390 O399 2.326 . S
In390 O401 2.294 . S
In390 O402 2.326 . S
O391 In390 2.294 . S
O391 C400 1.240 . S
O392 In390 2.326 . S
O392 C400 1.252 . S
C393 O396 1.252 . S
C393 O397 1.260 . S
C394 O401 1.240 . S
C394 O402 1.252 . S
C395 O398 1.252 . S
C395 O399 1.260 . S
O396 In390 2.266 . S
O396 C393 1.252 . S
O397 In390 2.326 . S
O397 C393 1.260 . S
O398 In390 2.266 . S
O398 C395 1.252 . S
O399 In390 2.326 . S
O399 C395 1.260 . S
C400 O391 1.240 . S
C400 O392 1.252 . S
O401 In390 2.294 . S
O401 C394 1.240 . S
O402 In390 2.326 . S
O402 C394 1.252 . S
In403 O404 2.294 . S
In403 O405 2.326 . S
In403 O409 2.266 . S
In403 O410 2.326 . S
In403 O411 2.266 . S
In403 O412 2.326 . S
In403 O414 2.294 . S
In403 O415 2.326 . S
O404 In403 2.294 . S
O404 C413 1.240 . S
O405 In403 2.326 . S
O405 C413 1.252 . S
C406 O409 1.252 . S
C406 O410 1.260 . S
C407 O414 1.240 . S
C407 O415 1.252 . S
C408 O411 1.252 . S
C408 O412 1.260 . S
O409 In403 2.266 . S
O409 C406 1.252 . S
O410 In403 2.326 . S
O410 C406 1.260 . S
O411 In403 2.266 . S
O411 C408 1.252 . S
O412 In403 2.326 . S
O412 C408 1.260 . S
C413 O404 1.240 . S
C413 O405 1.252 . S
O414 In403 2.294 . S
O414 C407 1.240 . S
O415 In403 2.326 . S
O415 C407 1.252 . S
In416 O417 2.294 . S
In416 O418 2.326 . S
In416 O422 2.266 . S
In416 O423 2.326 . S
In416 O424 2.266 . S
In416 O425 2.326 . S
In416 O427 2.294 . S
In416 O428 2.326 . S
O417 In416 2.294 . S
O417 C426 1.240 . S
O418 In416 2.326 . S
O418 C426 1.252 . S
C419 O422 1.252 . S
C419 O423 1.260 . S
C420 O427 1.240 . S
C420 O428 1.252 . S
C421 O424 1.252 . S
C421 O425 1.260 . S
O422 In416 2.266 . S
O422 C419 1.252 . S
O423 In416 2.326 . S
O423 C419 1.260 . S
O424 In416 2.266 . S
O424 C421 1.252 . S
O425 In416 2.326 . S
O425 C421 1.260 . S
C426 O417 1.240 . S
C426 O418 1.252 . S
O427 In416 2.294 . S
O427 C420 1.240 . S
O428 In416 2.326 . S
O428 C420 1.252 . S
In429 O430 2.294 . S
In429 O431 2.326 . S
In429 O435 2.266 . S
In429 O436 2.326 . S
In429 O437 2.266 . S
In429 O438 2.326 . S
In429 O440 2.294 . S
In429 O441 2.326 . S
O430 In429 2.294 . S
O430 C439 1.240 . S
O431 In429 2.326 . S
O431 C439 1.252 . S
C432 O435 1.252 . S
C432 O436 1.260 . S
C433 O440 1.240 . S
C433 O441 1.252 . S
C434 O437 1.252 . S
C434 O438 1.260 . S
O435 In429 2.266 . S
O435 C432 1.252 . S
O436 In429 2.326 . S
O436 C432 1.260 . S
O437 In429 2.266 . S
O437 C434 1.252 . S
O438 In429 2.326 . S
O438 C434 1.260 . S
C439 O430 1.240 . S
C439 O431 1.252 . S
O440 In429 2.294 . S
O440 C433 1.240 . S
O441 In429 2.326 . S
O441 C433 1.252 . S
In442 O443 2.294 . S
In442 O444 2.326 . S
In442 O448 2.266 . S
In442 O449 2.326 . S
In442 O450 2.266 . S
In442 O451 2.326 . S
In442 O453 2.294 . S
In442 O454 2.326 . S
O443 In442 2.294 . S
O443 C452 1.240 . S
O444 In442 2.326 . S
O444 C452 1.252 . S
C445 O448 1.252 . S
C445 O449 1.260 . S
C446 O453 1.240 . S
C446 O454 1.252 . S
C447 O450 1.252 . S
C447 O451 1.260 . S
O448 In442 2.266 . S
O448 C445 1.252 . S
O449 In442 2.326 . S
O449 C445 1.260 . S
O450 In442 2.266 . S
O450 C447 1.252 . S
O451 In442 2.326 . S
O451 C447 1.260 . S
C452 O443 1.240 . S
C452 O444 1.252 . S
O453 In442 2.294 . S
O453 C446 1.240 . S
O454 In442 2.326 . S
O454 C446 1.252 . S
In455 O456 2.294 . S
In455 O457 2.326 . S
In455 O461 2.266 . S
In455 O462 2.326 . S
In455 O463 2.266 . S
In455 O464 2.326 . S
In455 O466 2.294 . S
In455 O467 2.326 . S
O456 In455 2.294 . S
O456 C465 1.240 . S
O457 In455 2.326 . S
O457 C465 1.252 . S
C458 O461 1.252 . S
C458 O462 1.260 . S
C459 O466 1.240 . S
C459 O467 1.252 . S
C460 O463 1.252 . S
C460 O464 1.260 . S
O461 In455 2.266 . S
O461 C458 1.252 . S
O462 In455 2.326 . S
O462 C458 1.260 . S
O463 In455 2.266 . S
O463 C460 1.252 . S
O464 In455 2.326 . S
O464 C460 1.260 . S
C465 O456 1.240 . S
C465 O457 1.252 . S
O466 In455 2.294 . S
O466 C459 1.240 . S
O467 In455 2.326 . S
O467 C459 1.252 . S
C468 C469 1.369 . S
C468 C470 1.419 . S
C468 H472 0.930 . S
C469 C468 1.369 . S
C469 C478 1.429 . S
C470 C468 1.419 . S
C470 C471 1.363 . S
C470 H473 0.929 . S
C471 C470 1.363 . S
C471 C477 1.428 . S
H472 C468 0.930 . S
H473 C470 0.929 . S
S474 N475 1.613 . S
S474 N476 1.610 . S
N475 S474 1.613 . S
N475 C478 1.350 . S
N476 S474 1.610 . S
N476 C477 1.351 . S
C477 C471 1.428 . S
C477 N476 1.351 . S
C477 C478 1.434 . S
C478 C469 1.429 . S
C478 N475 1.350 . S
C478 C477 1.434 . S
C479 C480 1.369 . S
C479 C481 1.419 . S
C479 H483 0.930 . S
C480 C479 1.369 . S
C480 C489 1.429 . S
C481 C479 1.419 . S
C481 C482 1.363 . S
C481 H484 0.929 . S
C482 C481 1.363 . S
C482 C488 1.428 . S
H483 C479 0.930 . S
H484 C481 0.929 . S
S485 N486 1.613 . S
S485 N487 1.610 . S
N486 S485 1.613 . S
N486 C489 1.350 . S
N487 S485 1.610 . S
N487 C488 1.351 . S
C488 C482 1.428 . S
C488 N487 1.351 . S
C488 C489 1.434 . S
C489 C480 1.429 . S
C489 N486 1.350 . S
C489 C488 1.434 . S
C490 C491 1.369 . S
C490 C492 1.419 . S
C490 H494 0.930 . S
C491 C490 1.369 . S
C491 C500 1.429 . S
C492 C490 1.419 . S
C492 C493 1.363 . S
C492 H495 0.929 . S
C493 C492 1.363 . S
C493 C499 1.428 . S
H494 C490 0.930 . S
H495 C492 0.929 . S
S496 N497 1.613 . S
S496 N498 1.610 . S
N497 S496 1.613 . S
N497 C500 1.350 . S
N498 S496 1.610 . S
N498 C499 1.351 . S
C499 C493 1.428 . S
C499 N498 1.351 . S
C499 C500 1.434 . S
C500 C491 1.429 . S
C500 N497 1.350 . S
C500 C499 1.434 . S
C501 C502 1.369 . S
C501 C503 1.419 . S
C501 H505 0.930 . S
C502 C501 1.369 . S
C502 C511 1.429 . S
C503 C501 1.419 . S
C503 C504 1.363 . S
C503 H506 0.929 . S
C504 C503 1.363 . S
C504 C510 1.428 . S
H505 C501 0.930 . S
H506 C503 0.929 . S
S507 N508 1.613 . S
S507 N509 1.610 . S
N508 S507 1.613 . S
N508 C511 1.350 . S
N509 S507 1.610 . S
N509 C510 1.351 . S
C510 C504 1.428 . S
C510 N509 1.351 . S
C510 C511 1.434 . S
C511 C502 1.429 . S
C511 N508 1.350 . S
C511 C510 1.434 . S
C512 C513 1.369 . S
C512 C514 1.419 . S
C512 H516 0.930 . S
C513 C512 1.369 . S
C513 C522 1.429 . S
C514 C512 1.419 . S
C514 C515 1.363 . S
C514 H517 0.929 . S
C515 C514 1.363 . S
C515 C521 1.428 . S
H516 C512 0.930 . S
H517 C514 0.929 . S
S518 N519 1.613 . S
S518 N520 1.610 . S
N519 S518 1.613 . S
N519 C522 1.350 . S
N520 S518 1.610 . S
N520 C521 1.351 . S
C521 C515 1.428 . S
C521 N520 1.351 . S
C521 C522 1.434 . S
C522 C513 1.429 . S
C522 N519 1.350 . S
C522 C521 1.434 . S
C523 C524 1.369 . S
C523 C525 1.419 . S
C523 H527 0.930 . S
C524 C523 1.369 . S
C524 C533 1.429 . S
C525 C523 1.419 . S
C525 C526 1.363 . S
C525 H528 0.929 . S
C526 C525 1.363 . S
C526 C532 1.428 . S
H527 C523 0.930 . S
H528 C525 0.929 . S
S529 N530 1.613 . S
S529 N531 1.610 . S
N530 S529 1.613 . S
N530 C533 1.350 . S
N531 S529 1.610 . S
N531 C532 1.351 . S
C532 C526 1.428 . S
C532 N531 1.351 . S
C532 C533 1.434 . S
C533 C524 1.429 . S
C533 N530 1.350 . S
C533 C532 1.434 . S
C534 C535 1.369 . S
C534 C536 1.419 . S
C534 H538 0.930 . S
C535 C534 1.369 . S
C535 C544 1.429 . S
C536 C534 1.419 . S
C536 C537 1.363 . S
C536 H539 0.929 . S
C537 C536 1.363 . S
C537 C543 1.428 . S
H538 C534 0.930 . S
H539 C536 0.929 . S
S540 N541 1.613 . S
S540 N542 1.610 . S
N541 S540 1.613 . S
N541 C544 1.350 . S
N542 S540 1.610 . S
N542 C543 1.351 . S
C543 C537 1.428 . S
C543 N542 1.351 . S
C543 C544 1.434 . S
C544 C535 1.429 . S
C544 N541 1.350 . S
C544 C543 1.434 . S
C545 C546 1.369 . S
C545 C547 1.419 . S
C545 H549 0.930 . S
C546 C545 1.369 . S
C546 C555 1.429 . S
C547 C545 1.419 . S
C547 C548 1.363 . S
C547 H550 0.929 . S
C548 C547 1.363 . S
C548 C554 1.428 . S
H549 C545 0.930 . S
H550 C547 0.929 . S
S551 N552 1.613 . S
S551 N553 1.610 . S
N552 S551 1.613 . S
N552 C555 1.350 . S
N553 S551 1.610 . S
N553 C554 1.351 . S
C554 C548 1.428 . S
C554 N553 1.351 . S
C554 C555 1.434 . S
C555 C546 1.429 . S
C555 N552 1.350 . S
C555 C554 1.434 . S
C556 C557 1.369 . S
C556 C558 1.419 . S
C556 H560 0.930 . S
C557 C556 1.369 . S
C557 C566 1.429 . S
C558 C556 1.419 . S
C558 C559 1.363 . S
C558 H561 0.929 . S
C559 C558 1.363 . S
C559 C565 1.428 . S
H560 C556 0.930 . S
H561 C558 0.929 . S
S562 N563 1.613 . S
S562 N564 1.610 . S
N563 S562 1.613 . S
N563 C566 1.350 . S
N564 S562 1.610 . S
N564 C565 1.351 . S
C565 C559 1.428 . S
C565 N564 1.351 . S
C565 C566 1.434 . S
C566 C557 1.429 . S
C566 N563 1.350 . S
C566 C565 1.434 . S
C567 C568 1.369 . S
C567 C569 1.419 . S
C567 H571 0.930 . S
C568 C567 1.369 . S
C568 C577 1.429 . S
C569 C567 1.419 . S
C569 C570 1.363 . S
C569 H572 0.929 . S
C570 C569 1.363 . S
C570 C576 1.428 . S
H571 C567 0.930 . S
H572 C569 0.929 . S
S573 N574 1.613 . S
S573 N575 1.610 . S
N574 S573 1.613 . S
N574 C577 1.350 . S
N575 S573 1.610 . S
N575 C576 1.351 . S
C576 C570 1.428 . S
C576 N575 1.351 . S
C576 C577 1.434 . S
C577 C568 1.429 . S
C577 N574 1.350 . S
C577 C576 1.434 . S
C578 C579 1.369 . S
C578 C580 1.419 . S
C578 H582 0.930 . S
C579 C578 1.369 . S
C579 C588 1.429 . S
C580 C578 1.419 . S
C580 C581 1.363 . S
C580 H583 0.929 . S
C581 C580 1.363 . S
C581 C587 1.428 . S
H582 C578 0.930 . S
H583 C580 0.929 . S
S584 N585 1.613 . S
S584 N586 1.610 . S
N585 S584 1.613 . S
N585 C588 1.350 . S
N586 S584 1.610 . S
N586 C587 1.351 . S
C587 C581 1.428 . S
C587 N586 1.351 . S
C587 C588 1.434 . S
C588 C579 1.429 . S
C588 N585 1.350 . S
C588 C587 1.434 . S
C589 C590 1.369 . S
C589 C591 1.419 . S
C589 H593 0.930 . S
C590 C589 1.369 . S
C590 C599 1.429 . S
C591 C589 1.419 . S
C591 C592 1.363 . S
C591 H594 0.929 . S
C592 C591 1.363 . S
C592 C598 1.428 . S
H593 C589 0.930 . S
H594 C591 0.929 . S
S595 N596 1.613 . S
S595 N597 1.610 . S
N596 S595 1.613 . S
N596 C599 1.350 . S
N597 S595 1.610 . S
N597 C598 1.351 . S
C598 C592 1.428 . S
C598 N597 1.351 . S
C598 C599 1.434 . S
C599 C590 1.429 . S
C599 N596 1.350 . S
C599 C598 1.434 . S
C600 C601 1.369 . S
C600 C602 1.419 . S
C600 H604 0.930 . S
C601 C600 1.369 . S
C601 C610 1.429 1_455 S
C602 C600 1.419 . S
C602 C603 1.363 1_455 S
C602 H605 0.929 . S
C603 C602 1.363 1_655 S
C603 C609 1.428 . S
H604 C600 0.930 . S
H605 C602 0.929 . S
S606 N607 1.613 . S
S606 N608 1.610 . S
N607 S606 1.613 . S
N607 C610 1.350 . S
N608 S606 1.610 . S
N608 C609 1.351 . S
C609 C603 1.428 . S
C609 N608 1.351 . S
C609 C610 1.434 . S
C610 C601 1.429 1_655 S
C610 N607 1.350 . S
C610 C609 1.434 . S
C611 C612 1.369 . S
C611 C613 1.419 . S
C611 H615 0.930 . S
C612 C611 1.369 . S
C612 C621 1.429 . S
C613 C611 1.419 . S
C613 C614 1.363 . S
C613 H616 0.929 . S
C614 C613 1.363 . S
C614 C620 1.428 . S
H615 C611 0.930 . S
H616 C613 0.929 . S
S617 N618 1.613 . S
S617 N619 1.610 . S
N618 S617 1.613 . S
N618 C621 1.350 . S
N619 S617 1.610 . S
N619 C620 1.351 . S
C620 C614 1.428 . S
C620 N619 1.351 . S
C620 C621 1.434 . S
C621 C612 1.429 . S
C621 N618 1.350 . S
C621 C620 1.434 . S
C622 C623 1.371 1_565 S
C622 C624 1.417 . S
C622 H626 0.930 . S
C623 C622 1.371 1_545 S
C623 C632 1.429 . S
C624 C622 1.417 . S
C624 C625 1.363 . S
C624 H627 0.929 . S
C625 C624 1.363 . S
C625 C631 1.428 1_565 S
H626 C622 0.930 . S
H627 C624 0.929 . S
S628 N629 1.613 . S
S628 N630 1.610 . S
N629 S628 1.613 . S
N629 C632 1.350 . S
N630 S628 1.610 . S
N630 C631 1.351 . S
C631 C625 1.428 1_545 S
C631 N630 1.351 . S
C631 C632 1.434 . S
C632 C623 1.429 . S
C632 N629 1.350 . S
C632 C631 1.434 . S
C633 C634 1.369 1_556 S
C633 C635 1.419 . S
C633 H637 0.930 . S
C634 C633 1.369 1_554 S
C634 C643 1.429 1_565 S
C635 C633 1.419 . S
C635 C636 1.363 1_565 S
C635 H638 0.929 . S
C636 C635 1.363 1_545 S
C636 C642 1.428 1_556 S
H637 C633 0.930 . S
H638 C635 0.929 . S
S639 N640 1.613 . S
S639 N641 1.610 . S
N640 S639 1.613 . S
N640 C643 1.350 . S
N641 S639 1.610 . S
N641 C642 1.351 . S
C642 C636 1.428 1_554 S
C642 N641 1.351 . S
C642 C643 1.434 . S
C643 C634 1.429 1_545 S
C643 N640 1.350 . S
C643 C642 1.434 . S
C644 C645 1.369 . S
C644 C646 1.419 1_655 S
C644 H648 0.930 . S
C645 C644 1.369 . S
C645 C654 1.429 1_556 S
C646 C644 1.419 1_455 S
C646 C647 1.363 1_556 S
C646 H649 0.929 . S
C647 C646 1.363 1_554 S
C647 C653 1.428 . S
H648 C644 0.930 . S
H649 C646 0.929 . S
S650 N651 1.613 . S
S650 N652 1.610 1_655 S
N651 S650 1.613 . S
N651 C654 1.350 . S
N652 S650 1.610 1_455 S
N652 C653 1.351 . S
C653 C647 1.428 . S
C653 N652 1.351 . S
C653 C654 1.434 1_455 S
C654 C645 1.429 1_554 S
C654 N651 1.350 . S
C654 C653 1.434 1_655 S
C655 C656 1.369 . S
C655 C657 1.419 . S
C655 H659 0.930 . S
C656 C655 1.369 . S
C656 C665 1.429 1_556 S
C657 C655 1.419 . S
C657 C658 1.363 1_556 S
C657 H660 0.929 . S
C658 C657 1.363 1_554 S
C658 C664 1.428 . S
H659 C655 0.930 . S
H660 C657 0.929 . S
S661 N662 1.613 . S
S661 N663 1.610 . S
N662 S661 1.613 . S
N662 C665 1.350 . S
N663 S661 1.610 . S
N663 C664 1.351 . S
C664 C658 1.428 . S
C664 N663 1.351 . S
C664 C665 1.434 . S
C665 C656 1.429 1_554 S
C665 N662 1.350 . S
C665 C664 1.434 . S
C666 C667 1.369 . S
C666 C668 1.419 . S
C666 H670 0.930 . S
C667 C666 1.369 . S
C667 C676 1.429 1_565 S
C668 C666 1.419 . S
C668 C669 1.363 . S
C668 H671 0.929 . S
C669 C668 1.363 . S
C669 C675 1.428 . S
H670 C666 0.930 . S
H671 C668 0.929 . S
S672 N673 1.613 . S
S672 N674 1.610 1_545 S
N673 S672 1.613 . S
N673 C676 1.350 . S
N674 S672 1.610 1_565 S
N674 C675 1.351 . S
C675 C669 1.428 . S
C675 N674 1.351 . S
C675 C676 1.434 1_565 S
C676 C667 1.429 1_545 S
C676 N673 1.350 . S
C676 C675 1.434 1_545 S
C677 C678 1.369 . S
C677 C679 1.419 . S
C677 H681 0.930 . S
C678 C677 1.369 . S
C678 C687 1.429 . S
C679 C677 1.419 . S
C679 C680 1.363 . S
C679 H682 0.929 . S
C680 C679 1.363 . S
C680 C686 1.428 1_455 S
H681 C677 0.930 . S
H682 C679 0.929 . S
S683 N684 1.613 . S
S683 N685 1.610 . S
N684 S683 1.613 . S
N684 C687 1.350 1_655 S
N685 S683 1.610 . S
N685 C686 1.351 . S
C686 C680 1.428 1_655 S
C686 N685 1.351 . S
C686 C687 1.434 1_655 S
C687 C678 1.429 . S
C687 N684 1.350 1_455 S
C687 C686 1.434 1_455 S
C688 C689 1.369 . S
C688 C690 1.419 . S
C688 H692 0.930 . S
C689 C688 1.369 . S
C689 C698 1.429 . S
C690 C688 1.419 . S
C690 C691 1.363 . S
C690 H693 0.929 . S
C691 C690 1.363 . S
C691 C697 1.428 . S
H692 C688 0.930 . S
H693 C690 0.929 . S
S694 N695 1.613 . S
S694 N696 1.610 . S
N695 S694 1.613 . S
N695 C698 1.350 . S
N696 S694 1.610 . S
N696 C697 1.351 . S
C697 C691 1.428 . S
C697 N696 1.351 . S
C697 C698 1.434 . S
C698 C689 1.429 . S
C698 N695 1.350 . S
C698 C697 1.434 . S
C699 C700 1.369 . S
C699 C701 1.419 . S
C699 H703 0.930 . S
C700 C699 1.369 . S
C700 C709 1.429 . S
C701 C699 1.419 . S
C701 C702 1.363 . S
C701 H704 0.929 . S
C702 C701 1.363 . S
C702 C708 1.428 1_655 S
H703 C699 0.930 . S
H704 C701 0.929 . S
S705 N706 1.613 1_455 S
S705 N707 1.610 . S
N706 S705 1.613 1_655 S
N706 C709 1.350 . S
N707 S705 1.610 . S
N707 C708 1.351 . S
C708 C702 1.428 1_455 S
C708 N707 1.351 . S
C708 C709 1.434 1_455 S
C709 C700 1.429 . S
C709 N706 1.350 . S
C709 C708 1.434 1_655 S
C710 C711 1.369 . S
C710 C712 1.419 . S
C710 H714 0.930 . S
C711 C710 1.369 . S
C711 C720 1.429 . S
C712 C710 1.419 . S
C712 C713 1.363 . S
C712 H715 0.929 . S
C713 C712 1.363 . S
C713 C719 1.428 . S
H714 C710 0.930 . S
H715 C712 0.929 . S
S716 N717 1.613 . S
S716 N718 1.610 . S
N717 S716 1.613 . S
N717 C720 1.350 . S
N718 S716 1.610 . S
N718 C719 1.351 . S
C719 C713 1.428 . S
C719 N718 1.351 . S
C719 C720 1.434 . S
C720 C711 1.429 . S
C720 N717 1.350 . S
C720 C719 1.434 . S
C721 C722 1.369 . S
C721 C723 1.419 . S
C721 H725 0.930 . S
C722 C721 1.369 . S
C722 C731 1.429 . S
C723 C721 1.419 . S
C723 C724 1.363 . S
C723 H726 0.929 1_545 S
C724 C723 1.363 . S
C724 C730 1.428 . S
H725 C721 0.930 . S
H726 C723 0.929 1_565 S
S727 N728 1.613 . S
S727 N729 1.610 . S
N728 S727 1.613 . S
N728 C731 1.350 . S
N729 S727 1.610 . S
N729 C730 1.351 . S
C730 C724 1.428 . S
C730 N729 1.351 . S
C730 C731 1.434 . S
C731 C722 1.429 . S
C731 N728 1.350 . S
C731 C730 1.434 . S
C732 C733 1.369 1_565 S
C732 C734 1.419 1_565 S
C732 H736 0.930 . S
C733 C732 1.369 1_545 S
C733 C742 1.429 . S
C734 C732 1.419 1_545 S
C734 C735 1.363 . S
C734 H737 0.929 1_545 S
C735 C734 1.363 . S
C735 C741 1.428 . S
H736 C732 0.930 . S
H737 C734 0.929 1_565 S
S738 N739 1.613 . S
S738 N740 1.610 . S
N739 S738 1.613 . S
N739 C742 1.350 . S
N740 S738 1.610 . S
N740 C741 1.351 . S
C741 C735 1.428 . S
C741 N740 1.351 . S
C741 C742 1.434 . S
C742 C733 1.429 . S
C742 N739 1.350 . S
C742 C741 1.434 . S
C743 C744 1.369 . S
C743 C745 1.419 . S
C743 H747 0.930 . S
C744 C743 1.369 . S
C744 C753 1.429 . S
C745 C743 1.419 . S
C745 C746 1.363 . S
C745 H748 0.929 . S
C746 C745 1.363 . S
C746 C752 1.428 . S
H747 C743 0.930 . S
H748 C745 0.929 . S
S749 N750 1.613 . S
S749 N751 1.610 1_655 S
N750 S749 1.613 . S
N750 C753 1.350 . S
N751 S749 1.610 1_455 S
N751 C752 1.351 1_455 S
C752 C746 1.428 . S
C752 N751 1.351 1_655 S
C752 C753 1.434 . S
C753 C744 1.429 . S
C753 N750 1.350 . S
C753 C752 1.434 . S
C754 C755 1.369 . S
C754 C756 1.419 . S
C754 H758 0.930 . S
C755 C754 1.369 . S
C755 C764 1.429 . S
C756 C754 1.419 . S
C756 C757 1.363 . S
C756 H759 0.929 . S
C757 C756 1.363 . S
C757 C763 1.428 . S
H758 C754 0.930 . S
H759 C756 0.929 . S
S760 N761 1.613 . S
S760 N762 1.610 . S
N761 S760 1.613 . S
N761 C764 1.350 . S
N762 S760 1.610 . S
N762 C763 1.351 . S
C763 C757 1.428 . S
C763 N762 1.351 . S
C763 C764 1.434 . S
C764 C755 1.429 . S
C764 N761 1.350 . S
C764 C763 1.434 . S
C765 C766 1.369 1_655 S
C765 C767 1.419 1_655 S
C765 H769 0.930 . S
C766 C765 1.369 1_455 S
C766 C775 1.429 . S
C767 C765 1.419 1_455 S
C767 C768 1.363 . S
C767 H770 0.929 . S
C768 C767 1.363 . S
C768 C774 1.428 . S
H769 C765 0.930 . S
H770 C767 0.929 . S
S771 N772 1.613 . S
S771 N773 1.610 . S
N772 S771 1.613 . S
N772 C775 1.350 . S
N773 S771 1.610 . S
N773 C774 1.351 . S
C774 C768 1.428 . S
C774 N773 1.351 . S
C774 C775 1.434 . S
C775 C766 1.429 . S
C775 N772 1.350 . S
C775 C774 1.434 . S
C776 C777 1.369 . S
C776 C778 1.419 . S
C776 H780 0.930 . S
C777 C776 1.369 . S
C777 C786 1.429 . S
C778 C776 1.419 . S
C778 C779 1.363 . S
C778 H781 0.929 . S
C779 C778 1.363 . S
C779 C785 1.428 . S
H780 C776 0.930 . S
H781 C778 0.929 . S
S782 N783 1.613 . S
S782 N784 1.610 . S
N783 S782 1.613 . S
N783 C786 1.350 . S
N784 S782 1.610 . S
N784 C785 1.351 . S
C785 C779 1.428 . S
C785 N784 1.351 . S
C785 C786 1.434 . S
C786 C777 1.429 . S
C786 N783 1.350 . S
C786 C785 1.434 . S
C787 C788 1.369 . S
C787 C789 1.419 . S
C787 H791 0.930 . S
C788 C787 1.369 . S
C788 C797 1.429 . S
C789 C787 1.419 . S
C789 C790 1.363 . S
C789 H792 0.929 . S
C790 C789 1.363 . S
C790 C796 1.428 . S
H791 C787 0.930 . S
H792 C789 0.929 . S
S793 N794 1.614 1_565 S
S793 N795 1.611 . S
N794 S793 1.614 1_545 S
N794 C797 1.350 1_545 S
N795 S793 1.611 . S
N795 C796 1.351 . S
C796 C790 1.428 . S
C796 N795 1.351 . S
C796 C797 1.434 . S
C797 C788 1.429 . S
C797 N794 1.350 1_565 S
C797 C796 1.434 . S
C798 C799 1.369 . S
C798 C800 1.419 . S
C798 H802 0.930 . S
C799 C798 1.369 . S
C799 C808 1.429 . S
C800 C798 1.419 . S
C800 C801 1.363 . S
C800 H803 0.929 . S
C801 C800 1.363 . S
C801 C807 1.428 . S
H802 C798 0.930 . S
H803 C800 0.929 . S
S804 N805 1.613 . S
S804 N806 1.610 . S
N805 S804 1.613 . S
N805 C808 1.350 . S
N806 S804 1.610 . S
N806 C807 1.351 . S
C807 C801 1.428 . S
C807 N806 1.351 . S
C807 C808 1.434 . S
C808 C799 1.429 . S
C808 N805 1.350 . S
C808 C807 1.434 . S
C809 C810 1.369 . S
C809 C811 1.419 1_545 S
C809 H813 0.930 . S
C810 C809 1.369 . S
C810 C819 1.429 . S
C811 C809 1.419 1_565 S
C811 C812 1.363 . S
C811 H814 0.929 . S
C812 C811 1.363 . S
C812 C818 1.428 . S
H813 C809 0.930 . S
H814 C811 0.929 . S
S815 N816 1.613 . S
S815 N817 1.610 1_545 S
N816 S815 1.613 . S
N816 C819 1.350 . S
N817 S815 1.610 1_565 S
N817 C818 1.351 . S
C818 C812 1.428 . S
C818 N817 1.351 . S
C818 C819 1.434 1_565 S
C819 C810 1.429 . S
C819 N816 1.350 . S
C819 C818 1.434 1_545 S
C820 C821 1.369 . S
C820 C822 1.419 1_655 S
C820 H824 0.930 . S
C821 C820 1.369 . S
C821 C830 1.429 . S
C822 C820 1.419 1_455 S
C822 C823 1.363 . S
C822 H825 0.929 . S
C823 C822 1.363 . S
C823 C829 1.428 . S
H824 C820 0.930 . S
H825 C822 0.929 . S
S826 N827 1.613 1_455 S
S826 N828 1.610 . S
N827 S826 1.613 1_655 S
N827 C830 1.350 . S
N828 S826 1.610 . S
N828 C829 1.351 . S
C829 C823 1.428 . S
C829 N828 1.351 . S
C829 C830 1.434 1_455 S
C830 C821 1.429 . S
C830 N827 1.350 . S
C830 C829 1.434 1_655 S
C831 C832 1.369 . S
C831 C833 1.419 . S
C831 H835 0.930 . S
C832 C831 1.369 . S
C832 C841 1.429 . S
C833 C831 1.419 . S
C833 C834 1.363 . S
C833 H836 0.929 . S
C834 C833 1.363 . S
C834 C840 1.428 . S
H835 C831 0.930 . S
H836 C833 0.929 . S
S837 N838 1.613 . S
S837 N839 1.610 . S
N838 S837 1.613 . S
N838 C841 1.350 . S
N839 S837 1.610 . S
N839 C840 1.351 . S
C840 C834 1.428 . S
C840 N839 1.351 . S
C840 C841 1.434 . S
C841 C832 1.429 . S
C841 N838 1.350 . S
C841 C840 1.434 . S
C842 C843 1.369 . S
C842 C844 1.419 1_565 S
C842 H846 0.930 . S
C843 C842 1.369 . S
C843 C852 1.429 . S
C844 C842 1.419 1_545 S
C844 C845 1.363 . S
C844 H847 0.929 . S
C845 C844 1.363 . S
C845 C851 1.428 . S
H846 C842 0.930 . S
H847 C844 0.929 . S
S848 N849 1.613 1_545 S
S848 N850 1.610 . S
N849 S848 1.613 1_565 S
N849 C852 1.350 . S
N850 S848 1.610 . S
N850 C851 1.351 . S
C851 C845 1.428 . S
C851 N850 1.351 . S
C851 C852 1.434 1_545 S
C852 C843 1.429 . S
C852 N849 1.350 . S
C852 C851 1.434 1_565 S
C853 C854 1.369 . S
C853 C855 1.419 1_655 S
C853 H857 0.930 . S
C854 C853 1.369 . S
C854 C863 1.429 . S
C855 C853 1.419 1_455 S
C855 C856 1.363 . S
C855 H858 0.929 . S
C856 C855 1.363 . S
C856 C862 1.428 . S
H857 C853 0.930 . S
H858 C855 0.929 . S
S859 N860 1.613 1_455 S
S859 N861 1.610 . S
N860 S859 1.613 1_655 S
N860 C863 1.350 . S
N861 S859 1.610 . S
N861 C862 1.351 . S
C862 C856 1.428 . S
C862 N861 1.351 . S
C862 C863 1.434 1_455 S
C863 C854 1.429 . S
C863 N860 1.350 . S
C863 C862 1.434 1_655 S
C864 C865 1.369 . S
C864 C866 1.419 . S
C864 H868 0.930 . S
C865 C864 1.369 . S
C865 C874 1.429 . S
C866 C864 1.419 . S
C866 C867 1.363 . S
C866 H869 0.929 . S
C867 C866 1.363 . S
C867 C873 1.428 . S
H868 C864 0.930 . S
H869 C866 0.929 . S
S870 N871 1.613 . S
S870 N872 1.610 . S
N871 S870 1.613 . S
N871 C874 1.350 . S
N872 S870 1.610 . S
N872 C873 1.351 . S
C873 C867 1.428 . S
C873 N872 1.351 . S
C873 C874 1.434 . S
C874 C865 1.429 . S
C874 N871 1.350 . S
C874 C873 1.434 . S
C875 C876 1.369 1_565 S
C875 C877 1.419 . S
C875 H879 0.930 . S
C876 C875 1.369 1_545 S
C876 C885 1.429 . S
C877 C875 1.419 . S
C877 C878 1.363 . S
C877 H880 0.929 . S
C878 C877 1.363 . S
C878 C884 1.428 . S
H879 C875 0.930 . S
H880 C877 0.929 . S
S881 N882 1.613 1_565 S
S881 N883 1.610 . S
N882 S881 1.613 1_545 S
N882 C885 1.350 . S
N883 S881 1.610 . S
N883 C884 1.351 . S
C884 C878 1.428 . S
C884 N883 1.351 . S
C884 C885 1.434 1_565 S
C885 C876 1.429 . S
C885 N882 1.350 . S
C885 C884 1.434 1_545 S
C886 C887 1.369 1_455 S
C886 C888 1.419 . S
C886 H890 0.930 . S
C887 C886 1.369 1_655 S
C887 C896 1.429 . S
C888 C886 1.419 . S
C888 C889 1.363 . S
C888 H891 0.929 . S
C889 C888 1.363 . S
C889 C895 1.428 . S
H890 C886 0.930 . S
H891 C888 0.929 . S
S892 N893 1.613 . S
S892 N894 1.610 1_655 S
N893 S892 1.613 . S
N893 C896 1.350 . S
N894 S892 1.610 1_455 S
N894 C895 1.351 . S
C895 C889 1.428 . S
C895 N894 1.351 . S
C895 C896 1.434 1_455 S
C896 C887 1.429 . S
C896 N893 1.350 . S
C896 C895 1.434 1_655 S
C897 C898 1.369 . S
C897 C899 1.419 . S
C897 H901 0.930 . S
C898 C897 1.369 . S
C898 C907 1.429 . S
C899 C897 1.419 . S
C899 C900 1.363 . S
C899 H902 0.929 . S
C900 C899 1.363 . S
C900 C906 1.428 . S
H901 C897 0.930 . S
H902 C899 0.929 . S
S903 N904 1.613 . S
S903 N905 1.610 . S
N904 S903 1.613 . S
N904 C907 1.350 . S
N905 S903 1.610 . S
N905 C906 1.351 . S
C906 C900 1.428 . S
C906 N905 1.351 . S
C906 C907 1.434 . S
C907 C898 1.429 . S
C907 N904 1.350 . S
C907 C906 1.434 . S
C908 C909 1.369 . S
C908 C910 1.419 1_545 S
C908 H912 0.930 . S
C909 C908 1.369 . S
C909 C918 1.429 . S
C910 C908 1.419 1_565 S
C910 C911 1.363 . S
C910 H913 0.929 . S
C911 C910 1.363 . S
C911 C917 1.428 1_565 S
H912 C908 0.930 . S
H913 C910 0.929 . S
S914 N915 1.613 . S
S914 N916 1.610 . S
N915 S914 1.613 . S
N915 C918 1.350 . S
N916 S914 1.610 . S
N916 C917 1.351 . S
C917 C911 1.428 1_545 S
C917 N916 1.351 . S
C917 C918 1.434 . S
C918 C909 1.429 . S
C918 N915 1.350 . S
C918 C917 1.434 . S
C919 C920 1.369 1_655 S
C919 C921 1.419 . S
C919 H923 0.950 . S
C920 C919 1.369 1_455 S
C920 C929 1.448 . S
C921 C919 1.419 . S
C921 C922 1.363 . S
C921 H924 0.929 . S
C922 C921 1.363 . S
C922 C928 1.428 . S
H923 C919 0.950 . S
H924 C921 0.929 . S
S925 N926 1.613 1_655 S
S925 N927 1.610 . S
N926 S925 1.613 1_455 S
N926 C929 1.352 . S
N927 S925 1.610 . S
N927 C928 1.351 . S
C928 C922 1.428 . S
C928 N927 1.351 . S
C928 C929 1.409 1_655 S
C929 C920 1.448 . S
C929 N926 1.352 . S
C929 C928 1.409 1_455 S
C930 C931 1.369 . S
C930 C932 1.419 . S
C930 H934 0.930 . S
C931 C930 1.369 . S
C931 C940 1.429 . S
C932 C930 1.419 . S
C932 C933 1.363 . S
C932 H935 0.929 . S
C933 C932 1.363 . S
C933 C939 1.428 . S
H934 C930 0.930 . S
H935 C932 0.929 . S
S936 N937 1.613 . S
S936 N938 1.610 . S
N937 S936 1.613 . S
N937 C940 1.350 . S
N938 S936 1.610 . S
N938 C939 1.351 . S
C939 C933 1.428 . S
C939 N938 1.351 . S
C939 C940 1.434 . S
C940 C931 1.429 . S
C940 N937 1.350 . S
C940 C939 1.434 . S
C941 C942 1.369 1_545 S
C941 C943 1.419 . S
C941 H945 0.930 1_545 S
C942 C941 1.369 1_565 S
C942 C951 1.429 1_565 S
C943 C941 1.419 . S
C943 C944 1.363 . S
C943 H946 0.929 . S
C944 C943 1.363 . S
C944 C950 1.428 . S
H945 C941 0.930 1_565 S
H946 C943 0.929 . S
S947 N948 1.613 1_545 S
S947 N949 1.610 . S
N948 S947 1.613 1_565 S
N948 C951 1.350 1_565 S
N949 S947 1.610 . S
N949 C950 1.351 . S
C950 C944 1.428 . S
C950 N949 1.351 . S
C950 C951 1.434 . S
C951 C942 1.429 1_545 S
C951 N948 1.350 1_545 S
C951 C950 1.434 . S
C952 C953 1.369 1_655 S
C952 C954 1.419 . S
C952 H956 0.930 . S
C953 C952 1.369 1_455 S
C953 C962 1.429 . S
C954 C952 1.419 . S
C954 C955 1.363 . S
C954 H957 0.929 . S
C955 C954 1.363 . S
C955 C961 1.428 . S
H956 C952 0.930 . S
H957 C954 0.929 . S
S958 N959 1.613 1_655 S
S958 N960 1.610 . S
N959 S958 1.613 1_455 S
N959 C962 1.350 . S
N960 S958 1.610 . S
N960 C961 1.351 . S
C961 C955 1.428 . S
C961 N960 1.351 . S
C961 C962 1.434 1_655 S
C962 C953 1.429 . S
C962 N959 1.350 . S
C962 C961 1.434 1_455 S
C963 C964 1.369 . S
C963 C965 1.419 . S
C963 H967 0.930 . S
C964 C963 1.369 . S
C964 C973 1.429 . S
C965 C963 1.419 . S
C965 C966 1.363 . S
C965 H968 0.929 . S
C966 C965 1.363 . S
C966 C972 1.428 . S
H967 C963 0.930 . S
H968 C965 0.929 . S
S969 N970 1.613 . S
S969 N971 1.610 . S
N970 S969 1.613 . S
N970 C973 1.350 . S
N971 S969 1.610 . S
N971 C972 1.351 . S
C972 C966 1.428 . S
C972 N971 1.351 . S
C972 C973 1.434 . S
C973 C964 1.429 . S
C973 N970 1.350 . S
C973 C972 1.434 . S
C974 C975 1.369 1_565 S
C974 C976 1.419 . S
C974 H978 0.930 1_565 S
C975 C974 1.369 1_545 S
C975 C984 1.429 1_545 S
C976 C974 1.419 . S
C976 C977 1.363 . S
C976 H979 0.929 . S
C977 C976 1.363 . S
C977 C983 1.428 . S
H978 C974 0.930 1_545 S
H979 C976 0.929 . S
S980 N981 1.613 1_565 S
S980 N982 1.610 . S
N981 S980 1.613 1_545 S
N981 C984 1.350 1_545 S
N982 S980 1.610 . S
N982 C983 1.351 . S
C983 C977 1.428 . S
C983 N982 1.351 . S
C983 C984 1.434 . S
C984 C975 1.429 1_565 S
C984 N981 1.350 1_565 S
C984 C983 1.434 . S
C985 C986 1.369 . S
C985 C987 1.419 . S
C985 H989 0.930 . S
C986 C985 1.369 . S
C986 C995 1.429 . S
C987 C985 1.419 . S
C987 C988 1.363 1_455 S
C987 H990 0.929 . S
C988 C987 1.363 1_655 S
C988 C994 1.428 . S
H989 C985 0.930 . S
H990 C987 0.929 . S
S991 N992 1.613 1_655 S
S991 N993 1.610 . S
N992 S991 1.613 1_455 S
N992 C995 1.350 . S
N993 S991 1.610 . S
N993 C994 1.351 . S
C994 C988 1.428 . S
C994 N993 1.351 . S
C994 C995 1.434 1_655 S
C995 C986 1.429 . S
C995 N992 1.350 . S
C995 C994 1.434 1_455 S
C996 C997 1.369 . S
C996 C998 1.419 . S
C996 H1000 0.930 . S
C997 C996 1.369 . S
C997 C1006 1.429 . S
C998 C996 1.419 . S
C998 C999 1.363 . S
C998 H1001 0.929 . S
C999 C998 1.363 . S
C999 C1005 1.428 . S
H1000 C996 0.930 . S
H1001 C998 0.929 . S
S1002 N1003 1.613 . S
S1002 N1004 1.610 . S
N1003 S1002 1.613 . S
N1003 C1006 1.350 . S
N1004 S1002 1.610 . S
N1004 C1005 1.351 . S
C1005 C999 1.428 . S
C1005 N1004 1.351 . S
C1005 C1006 1.434 . S
C1006 C997 1.429 . S
C1006 N1003 1.350 . S
C1006 C1005 1.434 . S
C1007 C1008 1.369 . S
C1007 C1009 1.419 . S
C1007 H1011 0.930 . S
C1008 C1007 1.369 . S
C1008 C1017 1.429 . S
C1009 C1007 1.419 . S
C1009 C1010 1.363 . S
C1009 H1012 0.929 . S
C1010 C1009 1.363 . S
C1010 C1016 1.428 . S
H1011 C1007 0.930 . S
H1012 C1009 0.929 . S
S1013 N1014 1.613 . S
S1013 N1015 1.610 . S
N1014 S1013 1.613 . S
N1014 C1017 1.350 . S
N1015 S1013 1.610 . S
N1015 C1016 1.351 . S
C1016 C1010 1.428 . S
C1016 N1015 1.351 . S
C1016 C1017 1.434 . S
C1017 C1008 1.429 . S
C1017 N1014 1.350 . S
C1017 C1016 1.434 . S
C1018 C1019 1.369 . S
C1018 C1020 1.419 . S
C1018 H1022 0.930 . S
C1019 C1018 1.369 . S
C1019 C1028 1.429 . S
C1020 C1018 1.419 . S
C1020 C1021 1.363 . S
C1020 H1023 0.929 . S
C1021 C1020 1.363 . S
C1021 C1027 1.428 . S
H1022 C1018 0.930 . S
H1023 C1020 0.929 . S
S1024 N1025 1.613 . S
S1024 N1026 1.610 . S
N1025 S1024 1.613 . S
N1025 C1028 1.350 . S
N1026 S1024 1.610 . S
N1026 C1027 1.351 . S
C1027 C1021 1.428 . S
C1027 N1026 1.351 . S
C1027 C1028 1.434 . S
C1028 C1019 1.429 . S
C1028 N1025 1.350 . S
C1028 C1027 1.434 . S
C1029 C1030 1.369 . S
C1029 C1031 1.419 . S
C1029 H1033 0.930 . S
C1030 C1029 1.369 . S
C1030 C1039 1.429 . S
C1031 C1029 1.419 . S
C1031 C1032 1.363 . S
C1031 H1034 0.929 . S
C1032 C1031 1.363 . S
C1032 C1038 1.428 . S
H1033 C1029 0.930 . S
H1034 C1031 0.929 . S
S1035 N1036 1.613 . S
S1035 N1037 1.610 . S
N1036 S1035 1.613 . S
N1036 C1039 1.350 . S
N1037 S1035 1.610 . S
N1037 C1038 1.351 . S
C1038 C1032 1.428 . S
C1038 N1037 1.351 . S
C1038 C1039 1.434 . S
C1039 C1030 1.429 . S
C1039 N1036 1.350 . S
C1039 C1038 1.434 . S
C1040 C1041 1.369 . S
C1040 C1042 1.419 . S
C1040 H1044 0.930 . S
C1041 C1040 1.369 . S
C1041 C1050 1.429 . S
C1042 C1040 1.419 . S
C1042 C1043 1.363 . S
C1042 H1045 0.929 . S
C1043 C1042 1.363 . S
C1043 C1049 1.428 . S
H1044 C1040 0.930 . S
H1045 C1042 0.929 . S
S1046 N1047 1.613 . S
S1046 N1048 1.610 . S
N1047 S1046 1.613 . S
N1047 C1050 1.350 . S
N1048 S1046 1.610 . S
N1048 C1049 1.351 . S
C1049 C1043 1.428 . S
C1049 N1048 1.351 . S
C1049 C1050 1.434 . S
C1050 C1041 1.429 . S
C1050 N1047 1.350 . S
C1050 C1049 1.434 . S
C1051 C1052 1.369 . S
C1051 C1053 1.419 . S
C1051 H1055 0.930 . S
C1052 C1051 1.369 . S
C1052 C1061 1.429 . S
C1053 C1051 1.419 . S
C1053 C1054 1.363 . S
C1053 H1056 0.929 . S
C1054 C1053 1.363 . S
C1054 C1060 1.428 . S
H1055 C1051 0.930 . S
H1056 C1053 0.929 . S
S1057 N1058 1.613 . S
S1057 N1059 1.610 . S
N1058 S1057 1.613 . S
N1058 C1061 1.350 . S
N1059 S1057 1.610 . S
N1059 C1060 1.351 . S
C1060 C1054 1.428 . S
C1060 N1059 1.351 . S
C1060 C1061 1.434 . S
C1061 C1052 1.429 . S
C1061 N1058 1.350 . S
C1061 C1060 1.434 . S
C1062 C1063 1.369 . S
C1062 C1064 1.419 . S
C1062 H1066 0.930 . S
C1063 C1062 1.369 . S
C1063 C1072 1.429 . S
C1064 C1062 1.419 . S
C1064 C1065 1.363 . S
C1064 H1067 0.929 . S
C1065 C1064 1.363 . S
C1065 C1071 1.428 . S
H1066 C1062 0.930 . S
H1067 C1064 0.929 . S
S1068 N1069 1.613 . S
S1068 N1070 1.610 . S
N1069 S1068 1.613 . S
N1069 C1072 1.350 . S
N1070 S1068 1.610 . S
N1070 C1071 1.351 . S
C1071 C1065 1.428 . S
C1071 N1070 1.351 . S
C1071 C1072 1.434 . S
C1072 C1063 1.429 . S
C1072 N1069 1.350 . S
C1072 C1071 1.434 . S
C1073 C1074 1.369 . S
C1073 C1075 1.419 . S
C1073 H1077 0.930 . S
C1074 C1073 1.369 . S
C1074 C1083 1.429 . S
C1075 C1073 1.419 . S
C1075 C1076 1.363 . S
C1075 H1078 0.929 . S
C1076 C1075 1.363 . S
C1076 C1082 1.428 . S
H1077 C1073 0.930 . S
H1078 C1075 0.929 . S
S1079 N1080 1.613 . S
S1079 N1081 1.610 . S
N1080 S1079 1.613 . S
N1080 C1083 1.350 . S
N1081 S1079 1.610 . S
N1081 C1082 1.351 . S
C1082 C1076 1.428 . S
C1082 N1081 1.351 . S
C1082 C1083 1.434 . S
C1083 C1074 1.429 . S
C1083 N1080 1.350 . S
C1083 C1082 1.434 . S
C1084 C1085 1.369 . S
C1084 C1086 1.419 . S
C1084 H1088 0.930 . S
C1085 C1084 1.369 . S
C1085 C1094 1.429 . S
C1086 C1084 1.419 . S
C1086 C1087 1.363 . S
C1086 H1089 0.929 . S
C1087 C1086 1.363 . S
C1087 C1093 1.428 . S
H1088 C1084 0.930 . S
H1089 C1086 0.929 . S
S1090 N1091 1.613 . S
S1090 N1092 1.610 . S
N1091 S1090 1.613 . S
N1091 C1094 1.350 . S
N1092 S1090 1.610 . S
N1092 C1093 1.351 . S
C1093 C1087 1.428 . S
C1093 N1092 1.351 . S
C1093 C1094 1.434 . S
C1094 C1085 1.429 . S
C1094 N1091 1.350 . S
C1094 C1093 1.434 . S
C1095 C1096 1.369 . S
C1095 C1097 1.419 . S
C1095 H1099 0.930 . S
C1096 C1095 1.369 . S
C1096 C1105 1.429 . S
C1097 C1095 1.419 . S
C1097 C1098 1.363 . S
C1097 H1100 0.929 . S
C1098 C1097 1.363 . S
C1098 C1104 1.428 . S
H1099 C1095 0.930 . S
H1100 C1097 0.929 . S
S1101 N1102 1.613 . S
S1101 N1103 1.610 . S
N1102 S1101 1.613 . S
N1102 C1105 1.350 . S
N1103 S1101 1.610 . S
N1103 C1104 1.351 . S
C1104 C1098 1.428 . S
C1104 N1103 1.351 . S
C1104 C1105 1.434 . S
C1105 C1096 1.429 . S
C1105 N1102 1.350 . S
C1105 C1104 1.434 . S
C1106 C1107 1.369 . S
C1106 C1108 1.419 . S
C1106 H1110 0.930 . S
C1107 C1106 1.369 . S
C1107 C1116 1.429 . S
C1108 C1106 1.419 . S
C1108 C1109 1.363 . S
C1108 H1111 0.929 . S
C1109 C1108 1.363 . S
C1109 C1115 1.428 . S
H1110 C1106 0.930 . S
H1111 C1108 0.929 . S
S1112 N1113 1.613 . S
S1112 N1114 1.610 . S
N1113 S1112 1.613 . S
N1113 C1116 1.350 . S
N1114 S1112 1.610 . S
N1114 C1115 1.351 . S
C1115 C1109 1.428 . S
C1115 N1114 1.351 . S
C1115 C1116 1.434 . S
C1116 C1107 1.429 . S
C1116 N1113 1.350 . S
C1116 C1115 1.434 . S
C1117 C1118 1.369 . S
C1117 C1119 1.419 . S
C1117 H1121 0.930 . S
C1118 C1117 1.369 . S
C1118 C1127 1.429 . S
C1119 C1117 1.419 . S
C1119 C1120 1.363 . S
C1119 H1122 0.929 . S
C1120 C1119 1.363 . S
C1120 C1126 1.428 . S
H1121 C1117 0.930 . S
H1122 C1119 0.929 . S
S1123 N1124 1.613 . S
S1123 N1125 1.610 . S
N1124 S1123 1.613 . S
N1124 C1127 1.350 . S
N1125 S1123 1.610 . S
N1125 C1126 1.351 . S
C1126 C1120 1.428 . S
C1126 N1125 1.351 . S
C1126 C1127 1.434 . S
C1127 C1118 1.429 . S
C1127 N1124 1.350 . S
C1127 C1126 1.434 . S
C1128 C1129 1.369 . S
C1128 C1130 1.419 . S
C1128 H1132 0.930 . S
C1129 C1128 1.369 . S
C1129 C1138 1.429 . S
C1130 C1128 1.419 . S
C1130 C1131 1.363 . S
C1130 H1133 0.929 . S
C1131 C1130 1.363 . S
C1131 C1137 1.428 . S
H1132 C1128 0.930 . S
H1133 C1130 0.929 . S
S1134 N1135 1.613 . S
S1134 N1136 1.610 . S
N1135 S1134 1.613 . S
N1135 C1138 1.350 . S
N1136 S1134 1.610 . S
N1136 C1137 1.351 . S
C1137 C1131 1.428 . S
C1137 N1136 1.351 . S
C1137 C1138 1.434 . S
C1138 C1129 1.429 . S
C1138 N1135 1.350 . S
C1138 C1137 1.434 . S
C1139 C1140 1.369 . S
C1139 C1141 1.419 . S
C1139 H1143 0.930 . S
C1140 C1139 1.369 . S
C1140 C1149 1.429 . S
C1141 C1139 1.419 . S
C1141 C1142 1.363 . S
C1141 H1144 0.929 . S
C1142 C1141 1.363 . S
C1142 C1148 1.428 . S
H1143 C1139 0.930 . S
H1144 C1141 0.929 . S
S1145 N1146 1.613 . S
S1145 N1147 1.610 . S
N1146 S1145 1.613 . S
N1146 C1149 1.350 . S
N1147 S1145 1.610 . S
N1147 C1148 1.351 . S
C1148 C1142 1.428 . S
C1148 N1147 1.351 . S
C1148 C1149 1.434 . S
C1149 C1140 1.429 . S
C1149 N1146 1.350 . S
C1149 C1148 1.434 . S
C1150 C1151 1.369 . S
C1150 C1152 1.419 . S
C1150 H1154 0.930 . S
C1151 C1150 1.369 . S
C1151 C1160 1.429 . S
C1152 C1150 1.419 . S
C1152 C1153 1.363 . S
C1152 H1155 0.929 . S
C1153 C1152 1.363 . S
C1153 C1159 1.428 . S
H1154 C1150 0.930 . S
H1155 C1152 0.929 . S
S1156 N1157 1.613 . S
S1156 N1158 1.610 . S
N1157 S1156 1.613 . S
N1157 C1160 1.350 . S
N1158 S1156 1.610 . S
N1158 C1159 1.351 . S
C1159 C1153 1.428 . S
C1159 N1158 1.351 . S
C1159 C1160 1.434 . S
C1160 C1151 1.429 . S
C1160 N1157 1.350 . S
C1160 C1159 1.434 . S
C1161 C1162 1.369 . S
C1161 C1163 1.419 . S
C1161 H1165 0.930 . S
C1162 C1161 1.369 . S
C1162 C1171 1.429 . S
C1163 C1161 1.419 . S
C1163 C1164 1.363 . S
C1163 H1166 0.929 . S
C1164 C1163 1.363 . S
C1164 C1170 1.428 . S
H1165 C1161 0.930 . S
H1166 C1163 0.929 . S
S1167 N1168 1.613 . S
S1167 N1169 1.610 . S
N1168 S1167 1.613 . S
N1168 C1171 1.350 . S
N1169 S1167 1.610 . S
N1169 C1170 1.351 . S
C1170 C1164 1.428 . S
C1170 N1169 1.351 . S
C1170 C1171 1.434 . S
C1171 C1162 1.429 . S
C1171 N1168 1.350 . S
C1171 C1170 1.434 . S
C1172 C1173 1.369 . S
C1172 C1174 1.419 . S
C1172 H1176 0.930 . S
C1173 C1172 1.369 . S
C1173 C1182 1.429 . S
C1174 C1172 1.419 . S
C1174 C1175 1.363 . S
C1174 H1177 0.929 . S
C1175 C1174 1.363 . S
C1175 C1181 1.428 . S
H1176 C1172 0.930 . S
H1177 C1174 0.929 . S
S1178 N1179 1.613 . S
S1178 N1180 1.610 . S
N1179 S1178 1.613 . S
N1179 C1182 1.350 . S
N1180 S1178 1.610 . S
N1180 C1181 1.351 . S
C1181 C1175 1.428 . S
C1181 N1180 1.351 . S
C1181 C1182 1.434 . S
C1182 C1173 1.429 . S
C1182 N1179 1.350 . S
C1182 C1181 1.434 . S
C1183 C1184 1.369 . S
C1183 C1185 1.419 . S
C1183 H1187 0.930 . S
C1184 C1183 1.369 . S
C1184 C1193 1.429 . S
C1185 C1183 1.419 . S
C1185 C1186 1.363 . S
C1185 H1188 0.929 . S
C1186 C1185 1.363 . S
C1186 C1192 1.428 . S
H1187 C1183 0.930 . S
H1188 C1185 0.929 . S
S1189 N1190 1.613 . S
S1189 N1191 1.610 . S
N1190 S1189 1.613 . S
N1190 C1193 1.350 . S
N1191 S1189 1.610 . S
N1191 C1192 1.351 . S
C1192 C1186 1.428 . S
C1192 N1191 1.351 . S
C1192 C1193 1.434 . S
C1193 C1184 1.429 . S
C1193 N1190 1.350 . S
C1193 C1192 1.434 . S
C1194 C1195 1.369 . S
C1194 C1196 1.419 . S
C1194 H1198 0.930 . S
C1195 C1194 1.369 . S
C1195 C1204 1.429 . S
C1196 C1194 1.419 . S
C1196 C1197 1.363 . S
C1196 H1199 0.929 . S
C1197 C1196 1.363 . S
C1197 C1203 1.428 . S
H1198 C1194 0.930 . S
H1199 C1196 0.929 . S
S1200 N1201 1.613 . S
S1200 N1202 1.610 . S
N1201 S1200 1.613 . S
N1201 C1204 1.350 . S
N1202 S1200 1.610 . S
N1202 C1203 1.351 . S
C1203 C1197 1.428 . S
C1203 N1202 1.351 . S
C1203 C1204 1.434 . S
C1204 C1195 1.429 . S
C1204 N1201 1.350 . S
C1204 C1203 1.434 . S
C1205 C1206 1.369 . S
C1205 C1207 1.419 . S
C1205 H1209 0.930 . S
C1206 C1205 1.369 . S
C1206 C1215 1.429 . S
C1207 C1205 1.419 . S
C1207 C1208 1.363 . S
C1207 H1210 0.929 . S
C1208 C1207 1.363 . S
C1208 C1214 1.428 . S
H1209 C1205 0.930 . S
H1210 C1207 0.929 . S
S1211 N1212 1.613 . S
S1211 N1213 1.610 . S
N1212 S1211 1.613 . S
N1212 C1215 1.350 . S
N1213 S1211 1.610 . S
N1213 C1214 1.351 . S
C1214 C1208 1.428 . S
C1214 N1213 1.351 . S
C1214 C1215 1.434 . S
C1215 C1206 1.429 . S
C1215 N1212 1.350 . S
C1215 C1214 1.434 . S
C1216 C1217 1.369 . S
C1216 C1218 1.419 . S
C1216 H1220 0.930 . S
C1217 C1216 1.369 . S
C1217 C1226 1.429 . S
C1218 C1216 1.419 . S
C1218 C1219 1.363 . S
C1218 H1221 0.929 . S
C1219 C1218 1.363 . S
C1219 C1225 1.428 . S
H1220 C1216 0.930 . S
H1221 C1218 0.929 . S
S1222 N1223 1.613 . S
S1222 N1224 1.610 . S
N1223 S1222 1.613 . S
N1223 C1226 1.350 . S
N1224 S1222 1.610 . S
N1224 C1225 1.351 . S
C1225 C1219 1.428 . S
C1225 N1224 1.351 . S
C1225 C1226 1.434 . S
C1226 C1217 1.429 . S
C1226 N1223 1.350 . S
C1226 C1225 1.434 . S
C1227 C1228 1.369 . S
C1227 C1229 1.419 . S
C1227 H1231 0.930 . S
C1228 C1227 1.369 . S
C1228 C1237 1.429 . S
C1229 C1227 1.419 . S
C1229 C1230 1.363 . S
C1229 H1232 0.929 . S
C1230 C1229 1.363 . S
C1230 C1236 1.428 . S
H1231 C1227 0.930 . S
H1232 C1229 0.929 . S
S1233 N1234 1.613 . S
S1233 N1235 1.610 . S
N1234 S1233 1.613 . S
N1234 C1237 1.350 . S
N1235 S1233 1.610 . S
N1235 C1236 1.351 . S
C1236 C1230 1.428 . S
C1236 N1235 1.351 . S
C1236 C1237 1.434 . S
C1237 C1228 1.429 . S
C1237 N1234 1.350 . S
C1237 C1236 1.434 . S
C1238 C1239 1.369 . S
C1238 C1240 1.419 . S
C1238 H1242 0.930 . S
C1239 C1238 1.369 . S
C1239 C1248 1.429 . S
C1240 C1238 1.419 . S
C1240 C1241 1.363 . S
C1240 H1243 0.929 . S
C1241 C1240 1.363 . S
C1241 C1247 1.428 . S
H1242 C1238 0.930 . S
H1243 C1240 0.929 . S
S1244 N1245 1.613 . S
S1244 N1246 1.610 . S
N1245 S1244 1.613 . S
N1245 C1248 1.350 . S
N1246 S1244 1.610 . S
N1246 C1247 1.351 . S
C1247 C1241 1.428 . S
C1247 N1246 1.351 . S
C1247 C1248 1.434 . S
C1248 C1239 1.429 . S
C1248 N1245 1.350 . S
C1248 C1247 1.434 . S
C1249 C1250 1.369 . S
C1249 C1251 1.419 . S
C1249 H1253 0.930 . S
C1250 C1249 1.369 . S
C1250 C1259 1.429 . S
C1251 C1249 1.419 . S
C1251 C1252 1.363 . S
C1251 H1254 0.929 . S
C1252 C1251 1.363 . S
C1252 C1258 1.428 . S
H1253 C1249 0.930 . S
H1254 C1251 0.929 . S
S1255 N1256 1.613 . S
S1255 N1257 1.610 . S
N1256 S1255 1.613 . S
N1256 C1259 1.350 . S
N1257 S1255 1.610 . S
N1257 C1258 1.351 . S
C1258 C1252 1.428 . S
C1258 N1257 1.351 . S
C1258 C1259 1.434 . S
C1259 C1250 1.429 . S
C1259 N1256 1.350 . S
C1259 C1258 1.434 . S
C469 C4 1.507 . S
C471 C238 1.509 . S
C480 C257 1.508 . S
C482 C17 1.508 . S
C491 C270 1.507 . S
C493 C30 1.509 . S
C502 C43 1.508 . S
C504 C433 1.508 . S
C513 C62 1.509 . S
C515 C446 1.508 . S
C524 C75 1.507 . S
C526 C459 1.509 . S
C535 C316 1.509 . S
C537 C82 1.508 . S
C546 C95 1.509 . S
C548 C335 1.508 . S
C557 C114 1.508 . S
C559 C348 1.508 . S
C568 C205 1.509 . S
C570 C121 1.508 . S
C579 C218 1.508 . S
C581 C134 1.508 . S
C590 C225 1.509 . S
C592 C153 1.508 . S
C601 C394 1.508 . S
C603 C160 1.509 . S
C612 C407 1.508 . S
C614 C179 1.509 . S
C623 C186 1.508 . S
C625 C426 1.508 . S
C634 C361 1.508 . S
C636 C283 1.508 . S
C645 C296 1.509 . S
C647 C368 1.508 . S
C656 C309 1.509 . S
C658 C387 1.508 . S
C667 C10 1.641 1_565 S
C669 C355 1.633 . S
C678 C374 1.635 . S
C680 C23 1.638 1_455 S
C689 C381 1.640 . S
C691 C36 1.634 . S
C700 C166 1.641 . S
C702 C49 1.632 1_655 S
C711 C173 1.640 . S
C713 C56 1.632 . S
C722 C192 1.632 . S
C724 C69 1.640 1_545 S
C733 C88 1.635 1_545 S
C735 C277 1.635 . S
C744 C290 1.631 . S
C746 C101 1.640 1_655 S
C755 C303 1.634 . S
C757 C108 1.638 . S
C766 C127 1.640 1_455 S
C768 C400 1.632 . S
C777 C140 1.632 . S
C779 C413 1.639 . S
C788 C147 1.631 1_565 S
C790 C420 1.639 . S
C799 C199 1.633 . S
C801 C322 1.639 . S
C810 C212 1.637 . S
C812 C329 1.636 . S
C821 C231 1.638 . S
C823 C342 1.633 . S
C832 C244 1.634 . S
C834 C439 1.636 . S
C843 C452 1.640 . S
C845 C251 1.632 . S
C854 C264 1.641 . S
C856 C465 1.632 . S
C865 C18 1.388 . S
C867 C3 1.313 . S
C876 C16 1.311 . S
C878 C31 1.389 . S
C887 C29 1.304 . S
C889 C5 1.392 . S
C898 C42 1.315 . S
C900 C68 1.391 . S
C909 C44 1.388 . S
C911 C57 1.313 . S
C920 C70 1.312 . S
C922 C55 1.389 . S
C931 C81 1.315 . S
C933 C96 1.391 . S
C942 C94 1.309 . S
C944 C107 1.389 . S
C953 C109 1.307 . S
C955 C83 1.395 . S
C964 C146 1.392 . S
C966 C120 1.305 . S
C975 C133 1.307 . S
C977 C122 1.390 . S
C986 C135 1.394 . S
C988 C148 1.304 . S
C997 C172 1.396 . S
C999 C159 1.305 . S
C1008 C187 1.393 . S
C1010 C174 1.310 . S
C1019 C161 1.393 . S
C1021 C185 1.304 . S
C1030 C200 1.314 . S
C1032 C226 1.391 . S
C1041 C213 1.302 . S
C1043 C198 1.394 . S
C1052 C224 1.302 . S
C1054 C211 1.394 . S
C1063 C250 1.396 . S
C1065 C237 1.304 . S
C1074 C252 1.304 . S
C1076 C263 1.392 . S
C1085 C265 1.310 . S
C1087 C239 1.394 . S
C1096 C278 1.316 . S
C1098 C302 1.390 . S
C1107 C291 1.316 . S
C1109 C276 1.390 . S
C1118 C289 1.388 . S
C1120 C304 1.313 . S
C1129 C328 1.388 . S
C1131 C315 1.315 . S
C1140 C330 1.302 . S
C1142 C341 1.395 . S
C1151 C317 1.394 . S
C1153 C343 1.304 . S
C1162 C356 1.313 . S
C1164 C380 1.392 . S
C1173 C367 1.305 . S
C1175 C354 1.395 . S
C1184 C382 1.309 . S
C1186 C369 1.394 . S
C1195 C393 1.315 . S
C1197 C408 1.391 . S
C1206 C406 1.315 . S
C1208 C419 1.389 . S
C1217 C421 1.305 . S
C1219 C395 1.395 . S
C1228 C432 1.316 . S
C1230 C460 1.390 . S
C1239 C445 1.315 . S
C1241 C434 1.391 . S
C1250 C447 1.388 . S
C1252 C458 1.313 . S
