# Generated by pormake.
# Topology cha, (4)-cn, num edge types: 1
# Building blocks:
#     Node 0, Type 0, BuildingBlock: AZAVOO_clean_sbu_0, # of connection points: 4
#     Node 1, Type 0, BuildingBlock: AZAVOO_clean_sbu_0, # of connection points: 4
#     Node 2, Type 0, BuildingBlock: AZAVOO_clean_sbu_0, # of connection points: 4
#     Node 3, Type 0, BuildingBlock: AZAVOO_clean_sbu_0, # of connection points: 4
#     Node 4, Type 0, BuildingBlock: AZAVOO_clean_sbu_0, # of connection points: 4
#     Node 5, Type 0, BuildingBlock: AZAVOO_clean_sbu_0, # of connection points: 4
#     Node 6, Type 0, BuildingBlock: AZAVOO_clean_sbu_0, # of connection points: 4
#     Node 7, Type 0, BuildingBlock: AZAVOO_clean_sbu_0, # of connection points: 4
#     Node 8, Type 0, BuildingBlock: AZAVOO_clean_sbu_0, # of connection points: 4
#     Node 9, Type 0, BuildingBlock: AZAVOO_clean_sbu_0, # of connection points: 4
#     Node 10, Type 0, BuildingBlock: AZAVOO_clean_sbu_0, # of connection points: 4
#     Node 11, Type 0, BuildingBlock: AZAVOO_clean_sbu_0, # of connection points: 4
#     Node 12, Type 0, BuildingBlock: AZAVOO_clean_sbu_0, # of connection points: 4
#     Node 13, Type 0, BuildingBlock: AZAVOO_clean_sbu_0, # of connection points: 4
#     Node 14, Type 0, BuildingBlock: AZAVOO_clean_sbu_0, # of connection points: 4
#     Node 15, Type 0, BuildingBlock: AZAVOO_clean_sbu_0, # of connection points: 4
#     Node 16, Type 0, BuildingBlock: AZAVOO_clean_sbu_0, # of connection points: 4
#     Node 17, Type 0, BuildingBlock: AZAVOO_clean_sbu_0, # of connection points: 4
#     Node 18, Type 0, BuildingBlock: AZAVOO_clean_sbu_0, # of connection points: 4
#     Node 19, Type 0, BuildingBlock: AZAVOO_clean_sbu_0, # of connection points: 4
#     Node 20, Type 0, BuildingBlock: AZAVOO_clean_sbu_0, # of connection points: 4
#     Node 21, Type 0, BuildingBlock: AZAVOO_clean_sbu_0, # of connection points: 4
#     Node 22, Type 0, BuildingBlock: AZAVOO_clean_sbu_0, # of connection points: 4
#     Node 23, Type 0, BuildingBlock: AZAVOO_clean_sbu_0, # of connection points: 4
#     Node 24, Type 0, BuildingBlock: AZAVOO_clean_sbu_0, # of connection points: 4
#     Node 25, Type 0, BuildingBlock: AZAVOO_clean_sbu_0, # of connection points: 4
#     Node 26, Type 0, BuildingBlock: AZAVOO_clean_sbu_0, # of connection points: 4
#     Node 27, Type 0, BuildingBlock: AZAVOO_clean_sbu_0, # of connection points: 4
#     Node 28, Type 0, BuildingBlock: AZAVOO_clean_sbu_0, # of connection points: 4
#     Node 29, Type 0, BuildingBlock: AZAVOO_clean_sbu_0, # of connection points: 4
#     Node 30, Type 0, BuildingBlock: AZAVOO_clean_sbu_0, # of connection points: 4
#     Node 31, Type 0, BuildingBlock: AZAVOO_clean_sbu_0, # of connection points: 4
#     Node 32, Type 0, BuildingBlock: AZAVOO_clean_sbu_0, # of connection points: 4
#     Node 33, Type 0, BuildingBlock: AZAVOO_clean_sbu_0, # of connection points: 4
#     Node 34, Type 0, BuildingBlock: AZAVOO_clean_sbu_0, # of connection points: 4
#     Node 35, Type 0, BuildingBlock: AZAVOO_clean_sbu_0, # of connection points: 4
#     Edge 36, Type (0, 0), BuildingBlock: OJICUG_clean_linker_0, # of connection points: 2
#     Edge 37, Type (0, 0), BuildingBlock: OJICUG_clean_linker_0, # of connection points: 2
#     Edge 38, Type (0, 0), BuildingBlock: OJICUG_clean_linker_0, # of connection points: 2
#     Edge 39, Type (0, 0), BuildingBlock: OJICUG_clean_linker_0, # of connection points: 2
#     Edge 40, Type (0, 0), BuildingBlock: OJICUG_clean_linker_0, # of connection points: 2
#     Edge 41, Type (0, 0), BuildingBlock: OJICUG_clean_linker_0, # of connection points: 2
#     Edge 42, Type (0, 0), BuildingBlock: OJICUG_clean_linker_0, # of connection points: 2
#     Edge 43, Type (0, 0), BuildingBlock: OJICUG_clean_linker_0, # of connection points: 2
#     Edge 44, Type (0, 0), BuildingBlock: OJICUG_clean_linker_0, # of connection points: 2
#     Edge 45, Type (0, 0), BuildingBlock: OJICUG_clean_linker_0, # of connection points: 2
#     Edge 46, Type (0, 0), BuildingBlock: OJICUG_clean_linker_0, # of connection points: 2
#     Edge 47, Type (0, 0), BuildingBlock: OJICUG_clean_linker_0, # of connection points: 2
#     Edge 48, Type (0, 0), BuildingBlock: OJICUG_clean_linker_0, # of connection points: 2
#     Edge 49, Type (0, 0), BuildingBlock: OJICUG_clean_linker_0, # of connection points: 2
#     Edge 50, Type (0, 0), BuildingBlock: OJICUG_clean_linker_0, # of connection points: 2
#     Edge 51, Type (0, 0), BuildingBlock: OJICUG_clean_linker_0, # of connection points: 2
#     Edge 52, Type (0, 0), BuildingBlock: OJICUG_clean_linker_0, # of connection points: 2
#     Edge 53, Type (0, 0), BuildingBlock: OJICUG_clean_linker_0, # of connection points: 2
#     Edge 54, Type (0, 0), BuildingBlock: OJICUG_clean_linker_0, # of connection points: 2
#     Edge 55, Type (0, 0), BuildingBlock: OJICUG_clean_linker_0, # of connection points: 2
#     Edge 56, Type (0, 0), BuildingBlock: OJICUG_clean_linker_0, # of connection points: 2
#     Edge 57, Type (0, 0), BuildingBlock: OJICUG_clean_linker_0, # of connection points: 2
#     Edge 58, Type (0, 0), BuildingBlock: OJICUG_clean_linker_0, # of connection points: 2
#     Edge 59, Type (0, 0), BuildingBlock: OJICUG_clean_linker_0, # of connection points: 2
#     Edge 60, Type (0, 0), BuildingBlock: OJICUG_clean_linker_0, # of connection points: 2
#     Edge 61, Type (0, 0), BuildingBlock: OJICUG_clean_linker_0, # of connection points: 2
#     Edge 62, Type (0, 0), BuildingBlock: OJICUG_clean_linker_0, # of connection points: 2
#     Edge 63, Type (0, 0), BuildingBlock: OJICUG_clean_linker_0, # of connection points: 2
#     Edge 64, Type (0, 0), BuildingBlock: OJICUG_clean_linker_0, # of connection points: 2
#     Edge 65, Type (0, 0), BuildingBlock: OJICUG_clean_linker_0, # of connection points: 2
#     Edge 66, Type (0, 0), BuildingBlock: OJICUG_clean_linker_0, # of connection points: 2
#     Edge 67, Type (0, 0), BuildingBlock: OJICUG_clean_linker_0, # of connection points: 2
#     Edge 68, Type (0, 0), BuildingBlock: OJICUG_clean_linker_0, # of connection points: 2
#     Edge 69, Type (0, 0), BuildingBlock: OJICUG_clean_linker_0, # of connection points: 2
#     Edge 70, Type (0, 0), BuildingBlock: OJICUG_clean_linker_0, # of connection points: 2
#     Edge 71, Type (0, 0), BuildingBlock: OJICUG_clean_linker_0, # of connection points: 2
#     Edge 72, Type (0, 0), BuildingBlock: OJICUG_clean_linker_0, # of connection points: 2
#     Edge 73, Type (0, 0), BuildingBlock: OJICUG_clean_linker_0, # of connection points: 2
#     Edge 74, Type (0, 0), BuildingBlock: OJICUG_clean_linker_0, # of connection points: 2
#     Edge 75, Type (0, 0), BuildingBlock: OJICUG_clean_linker_0, # of connection points: 2
#     Edge 76, Type (0, 0), BuildingBlock: OJICUG_clean_linker_0, # of connection points: 2
#     Edge 77, Type (0, 0), BuildingBlock: OJICUG_clean_linker_0, # of connection points: 2
#     Edge 78, Type (0, 0), BuildingBlock: OJICUG_clean_linker_0, # of connection points: 2
#     Edge 79, Type (0, 0), BuildingBlock: OJICUG_clean_linker_0, # of connection points: 2
#     Edge 80, Type (0, 0), BuildingBlock: OJICUG_clean_linker_0, # of connection points: 2
#     Edge 81, Type (0, 0), BuildingBlock: OJICUG_clean_linker_0, # of connection points: 2
#     Edge 82, Type (0, 0), BuildingBlock: OJICUG_clean_linker_0, # of connection points: 2
#     Edge 83, Type (0, 0), BuildingBlock: OJICUG_clean_linker_0, # of connection points: 2
#     Edge 84, Type (0, 0), BuildingBlock: OJICUG_clean_linker_0, # of connection points: 2
#     Edge 85, Type (0, 0), BuildingBlock: OJICUG_clean_linker_0, # of connection points: 2
#     Edge 86, Type (0, 0), BuildingBlock: OJICUG_clean_linker_0, # of connection points: 2
#     Edge 87, Type (0, 0), BuildingBlock: OJICUG_clean_linker_0, # of connection points: 2
#     Edge 88, Type (0, 0), BuildingBlock: OJICUG_clean_linker_0, # of connection points: 2
#     Edge 89, Type (0, 0), BuildingBlock: OJICUG_clean_linker_0, # of connection points: 2
#     Edge 90, Type (0, 0), BuildingBlock: OJICUG_clean_linker_0, # of connection points: 2
#     Edge 91, Type (0, 0), BuildingBlock: OJICUG_clean_linker_0, # of connection points: 2
#     Edge 92, Type (0, 0), BuildingBlock: OJICUG_clean_linker_0, # of connection points: 2
#     Edge 93, Type (0, 0), BuildingBlock: OJICUG_clean_linker_0, # of connection points: 2
#     Edge 94, Type (0, 0), BuildingBlock: OJICUG_clean_linker_0, # of connection points: 2
#     Edge 95, Type (0, 0), BuildingBlock: OJICUG_clean_linker_0, # of connection points: 2
#     Edge 96, Type (0, 0), BuildingBlock: OJICUG_clean_linker_0, # of connection points: 2
#     Edge 97, Type (0, 0), BuildingBlock: OJICUG_clean_linker_0, # of connection points: 2
#     Edge 98, Type (0, 0), BuildingBlock: OJICUG_clean_linker_0, # of connection points: 2
#     Edge 99, Type (0, 0), BuildingBlock: OJICUG_clean_linker_0, # of connection points: 2
#     Edge 100, Type (0, 0), BuildingBlock: OJICUG_clean_linker_0, # of connection points: 2
#     Edge 101, Type (0, 0), BuildingBlock: OJICUG_clean_linker_0, # of connection points: 2
#     Edge 102, Type (0, 0), BuildingBlock: OJICUG_clean_linker_0, # of connection points: 2
#     Edge 103, Type (0, 0), BuildingBlock: OJICUG_clean_linker_0, # of connection points: 2
#     Edge 104, Type (0, 0), BuildingBlock: OJICUG_clean_linker_0, # of connection points: 2
#     Edge 105, Type (0, 0), BuildingBlock: OJICUG_clean_linker_0, # of connection points: 2
#     Edge 106, Type (0, 0), BuildingBlock: OJICUG_clean_linker_0, # of connection points: 2
#     Edge 107, Type (0, 0), BuildingBlock: OJICUG_clean_linker_0, # of connection points: 2
# Relax obj value: 0.175
# Max RMSD: 0.157
# Mean RMSD: 0.157
data_MOF--net-cha--node1-AZAVOO_clean_sbu_0--edge1-OJICUG_clean_linker_0
_symmetry_space_group_name_H-M    P1
_symmetry_Int_Tables_number       1
_symmetry_cell_setting            triclinic
loop_
_symmetry_equiv_pos_as_xyz
'x, y, z'
_cell_length_a     47.354103
_cell_length_b     47.273065
_cell_length_c     53.20645
_cell_angle_alpha  89.570059
_cell_angle_beta   90.224674
_cell_angle_gamma 120.05056
loop_
_atom_site_label
_atom_site_type_symbol
_atom_site_fract_x
_atom_site_fract_y
_atom_site_fract_z
_atom_type_partial_charge
Mg0 Mg 0.04023 0.28915 0.10193 0.0
O1 O 0.0049 0.23343 0.09569 0.0
O2 O 0.0299 0.21877 0.06732 0.0
Mg3 Mg 0.07929 0.26149 0.05627 0.0
C4 C 0.00563 0.21199 0.08154 0.0
C5 C 0.98323 0.28772 0.13132 0.0
O6 O 0.97178 0.28241 0.10827 0.0
O7 O 0.07406 0.27851 0.12688 0.0
O8 O 0.09629 0.26337 0.09656 0.0
O9 O 0.01802 0.30124 0.06893 0.0
O10 O 0.05969 0.2929 0.06603 0.0
C11 C 0.09352 0.26886 0.11959 0.0
C12 C 0.03823 0.29764 0.05496 0.0
O13 O 0.01069 0.28984 0.13552 0.0
Mg14 Mg 0.77433 0.78793 0.06458 0.0
O15 O 0.82402 0.79259 0.05512 0.0
O16 O 0.84326 0.82484 0.02118 0.0
Mg17 Mg 0.80881 0.84367 0.011 0.0
C18 C 0.84574 0.80693 0.03814 0.0
C19 C 0.74151 0.74217 0.10676 0.0
O20 O 0.71884 0.74356 0.09338 0.0
O21 O 0.80091 0.83808 0.08325 0.0
O22 O 0.82202 0.86981 0.04909 0.0
O23 O 0.75043 0.74754 0.03712 0.0
O24 O 0.7687 0.7996 0.02782 0.0
C25 C 0.81816 0.86606 0.07288 0.0
C26 C 0.75623 0.76985 0.02043 0.0
O27 O 0.77116 0.76053 0.10055 0.0
Mg28 Mg 0.19569 0.00786 0.10664 0.0
O29 O 0.20287 0.06002 0.09846 0.0
O30 O 0.16656 0.05519 0.06905 0.0
Mg31 Mg 0.12712 0.00207 0.06986 0.0
C32 C 0.19145 0.07264 0.08283 0.0
C33 C 0.26623 0.04765 0.12643 0.0
O34 O 0.27004 0.0585 0.10318 0.0
O35 O 0.15714 0.99512 0.13754 0.0
O36 O 0.13387 0.01191 0.11171 0.0
O37 O 0.22011 0.00979 0.07094 0.0
O38 O 0.1668 0.99001 0.07315 0.0
C39 C 0.13103 0.98961 0.1266 0.0
C40 C 0.1923 0.99791 0.05964 0.0
O41 O 0.23761 0.02805 0.13445 0.0
Mg42 Mg 0.21262 0.01502 0.90592 0.0
O43 O 0.16287 0.97101 0.89471 0.0
O44 O 0.12532 0.97883 0.91361 0.0
Mg45 Mg 0.14938 0.02461 0.93762 0.0
C46 C 0.13312 0.96217 0.89943 0.0
C47 C 0.26947 0.01884 0.87654 0.0
O48 O 0.28364 0.04224 0.89321 0.0
O49 O 0.20639 0.05073 0.88017 0.0
O50 O 0.1705 0.05733 0.90283 0.0
O51 O 0.2149 0.98821 0.9398 0.0
O52 O 0.19318 0.02001 0.93977 0.0
C53 C 0.1895 0.06458 0.88392 0.0
C54 C 0.19999 0.00054 0.95192 0.0
O55 O 0.2385 0.00246 0.8758 0.0
Mg56 Mg 0.0216 0.26976 0.90168 0.0
O57 O 0.06584 0.26208 0.90884 0.0
O58 O 0.04938 0.22385 0.93903 0.0
Mg59 Mg 0.99715 0.20688 0.95083 0.0
C60 C 0.0711 0.24378 0.92373 0.0
C61 C 0.03857 0.32397 0.86552 0.0
O62 O 0.01878 0.32489 0.88233 0.0
O63 O 0.99545 0.22168 0.87915 0.0
O64 O 0.98102 0.18647 0.91144 0.0
O65 O 0.0383 0.30719 0.93236 0.0
O66 O 0.00537 0.25431 0.93826 0.0
C67 C 0.98147 0.19257 0.888 0.0
C68 C 0.02237 0.283 0.94769 0.0
O69 O 0.04546 0.30125 0.86709 0.0
Mg70 Mg 0.76063 0.7517 0.868 0.0
O71 O 0.78835 0.80778 0.87298 0.0
O72 O 0.82694 0.8188 0.90183 0.0
Mg73 Mg 0.82473 0.7716 0.91461 0.0
C74 C 0.81225 0.82802 0.88653 0.0
C75 C 0.71501 0.72823 0.82394 0.0
O76 O 0.71688 0.70255 0.83111 0.0
O77 O 0.80233 0.75494 0.84379 0.0
O78 O 0.83861 0.76596 0.87467 0.0
O79 O 0.72831 0.74778 0.89968 0.0
O80 O 0.77332 0.74501 0.90421 0.0
C81 C 0.83022 0.76065 0.8516 0.0
C82 C 0.74941 0.74635 0.91434 0.0
O83 O 0.73324 0.75542 0.83453 0.0
Mg84 Mg 0.99651 0.75217 0.87086 0.0
O85 O 0.03002 0.80854 0.87355 0.0
O86 O 0.00371 0.82518 0.89901 0.0
Mg87 Mg 0.95663 0.7821 0.91343 0.0
C88 C 0.02786 0.83118 0.88492 0.0
C89 C 0.01974 0.71924 0.83701 0.0
O90 O 0.99441 0.69626 0.84917 0.0
O91 O 0.96088 0.75788 0.84444 0.0
O92 O 0.93771 0.77396 0.87333 0.0
O93 O 0.02113 0.7451 0.90414 0.0
O94 O 0.97813 0.75161 0.90636 0.0
C95 C 0.94025 0.76642 0.85082 0.0
C96 C 0.00082 0.74906 0.91768 0.0
O97 O 0.02667 0.74871 0.83955 0.0
Mg98 Mg 0.26851 0.26814 0.90207 0.0
O99 O 0.21699 0.26129 0.90926 0.0
O100 O 0.19491 0.2229 0.93929 0.0
Mg101 Mg 0.22959 0.20501 0.95093 0.0
C102 C 0.1934 0.24313 0.92407 0.0
C103 C 0.30657 0.3223 0.86668 0.0
O104 O 0.32679 0.32149 0.88328 0.0
O105 O 0.24573 0.22029 0.87923 0.0
O106 O 0.22474 0.18498 0.91142 0.0
O107 O 0.29008 0.30521 0.93295 0.0
O108 O 0.2693 0.25214 0.9385 0.0
C109 C 0.23023 0.19115 0.888 0.0
C110 C 0.28164 0.28079 0.94811 0.0
O111 O 0.27662 0.30043 0.86789 0.0
Mg112 Mg 0.82342 0.01735 0.90638 0.0
O113 O 0.8274 0.97236 0.89476 0.0
O114 O 0.87289 0.97909 0.91304 0.0
Mg115 Mg 0.89707 0.0255 0.93626 0.0
C116 C 0.84771 0.96263 0.89937 0.0
C117 C 0.7704 0.02377 0.87963 0.0
O118 O 0.78213 0.0471 0.89649 0.0
O119 O 0.86451 0.05242 0.87987 0.0
O120 O 0.90755 0.05814 0.90153 0.0
O121 O 0.79564 0.99103 0.94069 0.0
O122 O 0.84925 0.02188 0.93955 0.0
C123 C 0.89534 0.0658 0.88305 0.0
C124 C 0.8234 0.00276 0.95215 0.0
O125 O 0.78338 0.00598 0.87754 0.0
Mg126 Mg 0.84102 0.00889 0.10619 0.0
O127 O 0.88421 0.06169 0.09745 0.0
O128 O 0.91682 0.05783 0.0688 0.0
Mg129 Mg 0.90375 0.00482 0.06735 0.0
C130 C 0.90851 0.07479 0.08223 0.0
C131 C 0.81046 0.04801 0.1267 0.0
O132 O 0.81818 0.05975 0.10373 0.0
O133 O 0.87046 0.99923 0.13576 0.0
O134 O 0.90942 0.01138 0.10983 0.0
O135 O 0.81591 0.00903 0.07134 0.0
O136 O 0.85194 0.99223 0.07233 0.0
C137 C 0.88701 0.98969 0.12344 0.0
C138 C 0.83255 0.99851 0.05944 0.0
O139 O 0.81912 0.02798 0.13452 0.0
Mg140 Mg 0.02034 0.78778 0.06844 0.0
O141 O 0.97476 0.79233 0.05877 0.0
O142 O 0.99056 0.82881 0.02725 0.0
Mg143 Mg 0.04379 0.84822 0.01755 0.0
C144 C 0.96883 0.80883 0.0425 0.0
C145 C 0.01559 0.7488 0.1138 0.0
O146 O 0.04477 0.75954 0.10419 0.0
O147 O 0.04321 0.83657 0.08926 0.0
O148 O 0.05651 0.87106 0.05658 0.0
O149 O 0.00616 0.74906 0.03958 0.0
O150 O 0.03717 0.80204 0.03206 0.0
C151 C 0.05535 0.8654 0.08015 0.0
C152 C 0.0212 0.77267 0.02359 0.0
O153 O 0.99712 0.75801 0.10377 0.0
Mg154 Mg 0.27349 0.28661 0.10247 0.0
O155 O 0.25213 0.23087 0.09626 0.0
O156 O 0.2122 0.21641 0.06796 0.0
Mg157 Mg 0.20618 0.25967 0.05707 0.0
C158 C 0.22968 0.20948 0.08219 0.0
C159 C 0.33428 0.30773 0.1336 0.0
O160 O 0.34379 0.32789 0.11428 0.0
O161 O 0.2297 0.27689 0.12771 0.0
O162 O 0.19208 0.26202 0.0974 0.0
O163 O 0.30692 0.29758 0.06929 0.0
O164 O 0.25739 0.29075 0.0667 0.0
C165 C 0.20058 0.26752 0.12042 0.0
C166 C 0.28314 0.29475 0.05549 0.0
O167 O 0.30425 0.28618 0.13543 0.0
Mg168 Mg 0.71284 0.62923 0.42834 0.0
O169 O 0.67799 0.57377 0.42201 0.0
O170 O 0.70007 0.55962 0.39099 0.0
Mg171 Mg 0.74926 0.60276 0.37977 0.0
C172 C 0.67721 0.55257 0.40678 0.0
C173 C 0.67954 0.65492 0.45849 0.0
O174 O 0.69647 0.67573 0.44051 0.0
O175 O 0.74803 0.61876 0.45178 0.0
O176 O 0.76764 0.60344 0.41959 0.0
O177 O 0.68817 0.63946 0.39651 0.0
O178 O 0.73233 0.6354 0.3921 0.0
C179 C 0.76655 0.60869 0.44297 0.0
C180 C 0.70963 0.63889 0.38195 0.0
O181 O 0.68231 0.62965 0.46135 0.0
Mg182 Mg 0.45922 0.13012 0.40627 0.0
O183 O 0.50923 0.13437 0.39747 0.0
O184 O 0.53027 0.1698 0.36537 0.0
Mg185 Mg 0.49641 0.18885 0.35434 0.0
C186 C 0.53184 0.15031 0.38131 0.0
C187 C 0.42534 0.09034 0.45198 0.0
O188 O 0.40522 0.09883 0.44198 0.0
O189 O 0.48505 0.17964 0.42619 0.0
O190 O 0.50627 0.21302 0.39291 0.0
O191 O 0.43471 0.09055 0.37796 0.0
O192 O 0.45661 0.14327 0.3694 0.0
C193 C 0.50167 0.20818 0.41655 0.0
C194 C 0.44316 0.11366 0.36149 0.0
O195 O 0.45337 0.10139 0.44218 0.0
Mg196 Mg 0.87469 0.34583 0.4359 0.0
O197 O 0.87943 0.39687 0.42702 0.0
O198 O 0.84075 0.38955 0.399 0.0
Mg199 Mg 0.80306 0.33582 0.40076 0.0
C200 C 0.86626 0.40817 0.4118 0.0
C201 C 0.94608 0.38843 0.45438 0.0
O202 O 0.94926 0.3993 0.43118 0.0
O203 O 0.8372 0.33278 0.4676 0.0
O204 O 0.81033 0.34619 0.44254 0.0
O205 O 0.89784 0.34736 0.39969 0.0
O206 O 0.84441 0.32604 0.40346 0.0
C207 C 0.81019 0.32471 0.45699 0.0
C208 C 0.86938 0.33413 0.38925 0.0
O209 O 0.91777 0.36813 0.46262 0.0
Mg210 Mg 0.87653 0.34381 0.23492 0.0
O211 O 0.82547 0.29962 0.22748 0.0
O212 O 0.79009 0.30769 0.24945 0.0
Mg213 Mg 0.81727 0.35517 0.27135 0.0
C214 C 0.7964 0.29048 0.23463 0.0
C215 C 0.9213 0.32426 0.20793 0.0
O216 O 0.9327 0.32968 0.23101 0.0
O217 O 0.86778 0.37878 0.21018 0.0
O218 O 0.83475 0.38635 0.23561 0.0
O219 O 0.88233 0.31846 0.26846 0.0
O220 O 0.86126 0.35081 0.27002 0.0
C221 C 0.85165 0.39301 0.21552 0.0
C222 C 0.869 0.33164 0.28153 0.0
O223 O 0.89745 0.32851 0.20264 0.0
Mg224 Mg 0.69584 0.60673 0.23047 0.0
O225 O 0.73933 0.59867 0.23935 0.0
O226 O 0.72376 0.56478 0.27248 0.0
Mg227 Mg 0.67139 0.54901 0.28307 0.0
C228 C 0.74501 0.58248 0.25604 0.0
C229 C 0.70148 0.64635 0.18656 0.0
O230 O 0.67414 0.63827 0.19842 0.0
O231 O 0.66908 0.55722 0.21046 0.0
O232 O 0.6557 0.52484 0.2445 0.0
O233 O 0.71434 0.64638 0.25899 0.0
O234 O 0.67847 0.59457 0.26705 0.0
C235 C 0.65585 0.52895 0.22074 0.0
C236 C 0.69669 0.6238 0.27512 0.0
O237 O 0.71902 0.63484 0.19461 0.0
Mg238 Mg 0.44066 0.0869 0.20873 0.0
O239 O 0.46626 0.14349 0.20973 0.0
O240 O 0.50985 0.15979 0.23465 0.0
Mg241 Mg 0.51222 0.11612 0.25004 0.0
C242 C 0.49188 0.16604 0.22039 0.0
C243 C 0.37746 0.0636 0.18309 0.0
O244 O 0.3722 0.04542 0.20326 0.0
O245 O 0.47997 0.08899 0.18191 0.0
O246 O 0.52033 0.10517 0.21007 0.0
O247 O 0.41155 0.08372 0.24273 0.0
O248 O 0.45973 0.08709 0.24425 0.0
C249 C 0.50914 0.09671 0.18787 0.0
C250 C 0.43581 0.08671 0.25592 0.0
O251 O 0.40673 0.08465 0.17747 0.0
Mg252 Mg 0.67108 0.07909 0.2083 0.0
O253 O 0.69876 0.1353 0.21221 0.0
O254 O 0.6709 0.14702 0.24007 0.0
Mg255 Mg 0.62574 0.10006 0.25282 0.0
C256 C 0.69494 0.15589 0.22508 0.0
C257 C 0.71171 0.05981 0.18106 0.0
O258 O 0.69692 0.03929 0.19971 0.0
O259 O 0.63303 0.08131 0.18245 0.0
O260 O 0.60729 0.09297 0.21233 0.0
O261 O 0.69902 0.07666 0.24107 0.0
O262 O 0.65102 0.07344 0.24439 0.0
C263 C 0.61061 0.087 0.18951 0.0
C264 C 0.6763 0.07541 0.25517 0.0
O265 O 0.70432 0.08179 0.17657 0.0
Mg266 Mg 0.93768 0.59929 0.23033 0.0
O267 O 0.8875 0.59379 0.23973 0.0
O268 O 0.86786 0.55981 0.27267 0.0
Mg269 Mg 0.90269 0.54137 0.28272 0.0
C270 C 0.86546 0.57841 0.25633 0.0
C271 C 0.97205 0.6495 0.19131 0.0
O272 O 0.99398 0.64894 0.20619 0.0
O273 O 0.91244 0.54976 0.20997 0.0
O274 O 0.89266 0.51743 0.24397 0.0
O275 O 0.96088 0.6383 0.25932 0.0
O276 O 0.94289 0.58598 0.26686 0.0
C277 C 0.89638 0.5215 0.2202 0.0
C278 C 0.95536 0.61527 0.27521 0.0
O279 O 0.94214 0.62886 0.19519 0.0
Mg280 Mg 0.4963 0.35284 0.2363 0.0
O281 O 0.50098 0.30799 0.22615 0.0
O282 O 0.54546 0.31478 0.24621 0.0
Mg283 Mg 0.56749 0.36051 0.27021 0.0
C284 C 0.52123 0.2985 0.23163 0.0
C285 C 0.42992 0.31978 0.20725 0.0
O286 O 0.42075 0.30226 0.22802 0.0
O287 O 0.53954 0.38769 0.21145 0.0
O288 O 0.58084 0.39342 0.2355 0.0
O289 O 0.46607 0.32689 0.27002 0.0
O290 O 0.51968 0.35729 0.27066 0.0
C291 C 0.57006 0.40105 0.21609 0.0
C292 C 0.49308 0.3386 0.28253 0.0
O293 O 0.4597 0.34173 0.2046 0.0
Mg294 Mg 0.5063 0.35467 0.43654 0.0
O295 O 0.55306 0.40516 0.42742 0.0
O296 O 0.58318 0.39713 0.39894 0.0
Mg297 Mg 0.56698 0.34344 0.40236 0.0
C298 C 0.57698 0.41609 0.41185 0.0
C299 C 0.45553 0.36594 0.45804 0.0
O300 O 0.44103 0.34057 0.4431 0.0
O301 O 0.52972 0.34097 0.46897 0.0
O302 O 0.56981 0.35586 0.44367 0.0
O303 O 0.48528 0.35658 0.40012 0.0
O304 O 0.51577 0.33343 0.40441 0.0
C305 C 0.55015 0.33455 0.45901 0.0
C306 C 0.49939 0.34212 0.39 0.0
O307 O 0.48607 0.37885 0.46164 0.0
Mg308 Mg 0.69947 0.1191 0.40525 0.0
O309 O 0.65665 0.12792 0.39637 0.0
O310 O 0.67106 0.15971 0.36204 0.0
Mg311 Mg 0.72296 0.1742 0.35097 0.0
C312 C 0.65051 0.14326 0.37928 0.0
C313 C 0.69601 0.09146 0.45703 0.0
O314 O 0.72701 0.10564 0.45085 0.0
O315 O 0.7275 0.16975 0.42314 0.0
O316 O 0.73929 0.20109 0.38859 0.0
O317 O 0.67873 0.07788 0.37817 0.0
O318 O 0.71533 0.12893 0.36827 0.0
C319 C 0.73998 0.1977 0.41239 0.0
C320 C 0.69579 0.09944 0.36119 0.0
O321 O 0.67642 0.09418 0.44221 0.0
Mg322 Mg 0.94837 0.62188 0.42866 0.0
O323 O 0.92558 0.56618 0.42244 0.0
O324 O 0.88952 0.55316 0.39123 0.0
Mg325 Mg 0.88575 0.59764 0.37973 0.0
C326 C 0.9047 0.54535 0.40719 0.0
C327 C 0.00667 0.64098 0.46146 0.0
O328 O 0.01675 0.66115 0.44215 0.0
O329 O 0.90329 0.61377 0.45147 0.0
O330 O 0.86818 0.59939 0.41928 0.0
O331 O 0.98286 0.63034 0.39691 0.0
O332 O 0.93574 0.62877 0.3923 0.0
C333 C 0.87485 0.60476 0.44264 0.0
C334 C 0.96132 0.6309 0.38224 0.0
O335 O 0.97651 0.61961 0.46289 0.0
Mg336 Mg 0.36792 0.96093 0.76772 0.0
O337 O 0.33488 0.90434 0.76401 0.0
O338 O 0.36194 0.88967 0.73769 0.0
Mg339 Mg 0.41014 0.93312 0.72544 0.0
C340 C 0.33716 0.88258 0.75139 0.0
C341 C 0.34847 0.99021 0.81043 0.0
O342 O 0.37733 0.01413 0.80362 0.0
O343 O 0.40392 0.95578 0.79429 0.0
O344 O 0.4282 0.94038 0.76588 0.0
O345 O 0.34433 0.96843 0.7335 0.0
O346 O 0.38801 0.96307 0.7325 0.0
C347 C 0.425 0.94763 0.78833 0.0
C348 C 0.36577 0.96559 0.72049 0.0
O349 O 0.33729 0.96259 0.7999 0.0
Mg350 Mg 0.1164 0.45341 0.73667 0.0
O351 O 0.16797 0.46182 0.72831 0.0
O352 O 0.18653 0.49468 0.69463 0.0
Mg353 Mg 0.1498 0.51026 0.68356 0.0
C354 C 0.18989 0.4774 0.71164 0.0
C355 C 0.08892 0.42131 0.78646 0.0
O356 O 0.07106 0.43408 0.77937 0.0
O357 O 0.13892 0.50346 0.75558 0.0
O358 O 0.15938 0.53588 0.72169 0.0
O359 O 0.09601 0.41318 0.70879 0.0
O360 O 0.11123 0.46469 0.69979 0.0
C361 C 0.15472 0.53176 0.7454 0.0
C362 C 0.101 0.43536 0.6922 0.0
O363 O 0.11333 0.42677 0.77311 0.0
Mg364 Mg 0.556 0.71474 0.73373 0.0
O365 O 0.5522 0.75987 0.74426 0.0
O366 O 0.50851 0.75421 0.72362 0.0
Mg367 Mg 0.48638 0.70874 0.69926 0.0
C368 C 0.53243 0.7699 0.7386 0.0
C369 C 0.6065 0.70769 0.76177 0.0
O370 O 0.59638 0.68594 0.74372 0.0
O371 O 0.51266 0.68087 0.75848 0.0
O372 O 0.47174 0.67553 0.73417 0.0
O373 O 0.58767 0.74108 0.70131 0.0
O374 O 0.53396 0.71137 0.69903 0.0
C375 C 0.48222 0.66789 0.75378 0.0
C376 C 0.56136 0.73008 0.68801 0.0
O377 O 0.59279 0.72471 0.76444 0.0
Mg378 Mg 0.56195 0.72336 0.53361 0.0
O379 O 0.51515 0.67196 0.5411 0.0
O380 O 0.48272 0.67928 0.56777 0.0
Mg381 Mg 0.49868 0.73293 0.56654 0.0
C382 C 0.49015 0.66066 0.55565 0.0
C383 C 0.59045 0.68007 0.5152 0.0
O384 O 0.58175 0.66828 0.53808 0.0
O385 O 0.53956 0.73853 0.50148 0.0
O386 O 0.49762 0.72427 0.52463 0.0
O387 O 0.5814 0.72042 0.57058 0.0
O388 O 0.5497 0.74213 0.56557 0.0
C389 C 0.52035 0.74651 0.51165 0.0
C390 C 0.56551 0.73327 0.58041 0.0
O391 O 0.58371 0.70148 0.50725 0.0
Mg392 Mg 0.36259 0.9392 0.56728 0.0
O393 O 0.40852 0.93515 0.57674 0.0
O394 O 0.39236 0.89704 0.60701 0.0
Mg395 Mg 0.33872 0.87608 0.61619 0.0
C396 C 0.41437 0.91802 0.59243 0.0
C397 C 0.37576 0.99081 0.52952 0.0
O398 O 0.35199 0.98781 0.54401 0.0
O399 O 0.34072 0.89159 0.54426 0.0
O400 O 0.32671 0.85619 0.57636 0.0
O401 O 0.3746 0.97571 0.59813 0.0
O402 O 0.34426 0.92233 0.60323 0.0
C403 C 0.32826 0.86246 0.55288 0.0
C404 C 0.35882 0.95096 0.61302 0.0
O405 O 0.38714 0.97183 0.53334 0.0
Mg406 Mg 0.11649 0.42681 0.53971 0.0
O407 O 0.14026 0.48233 0.5465 0.0
O408 O 0.17714 0.49434 0.57701 0.0
Mg409 Mg 0.17843 0.44859 0.5888 0.0
C410 C 0.1623 0.50283 0.56124 0.0
C411 C 0.05885 0.40504 0.50909 0.0
O412 O 0.05399 0.3832 0.5265 0.0
O413 O 0.16134 0.43555 0.51654 0.0
O414 O 0.19561 0.44748 0.54908 0.0
O415 O 0.08161 0.41839 0.57074 0.0
O416 O 0.12825 0.41924 0.57625 0.0
C417 C 0.18935 0.44334 0.52561 0.0
C418 C 0.10268 0.41775 0.58585 0.0
O419 O 0.08745 0.42947 0.50652 0.0
Mg420 Mg 0.36216 0.44483 0.54658 0.0
O421 O 0.39514 0.50103 0.5505 0.0
O422 O 0.37073 0.51568 0.57925 0.0
Mg423 Mg 0.3228 0.47179 0.5918 0.0
C424 C 0.39422 0.52276 0.56409 0.0
C425 C 0.37931 0.41513 0.50485 0.0
O426 O 0.34967 0.39321 0.51194 0.0
O427 O 0.32569 0.45083 0.52159 0.0
O428 O 0.30347 0.46651 0.55161 0.0
O429 O 0.3873 0.43739 0.57937 0.0
O430 O 0.34214 0.44008 0.58218 0.0
C431 C 0.30555 0.45968 0.52874 0.0
C432 C 0.36493 0.43748 0.59318 0.0
O433 O 0.39212 0.44358 0.51415 0.0
Mg434 Mg 0.61399 0.94611 0.5769 0.0
O435 O 0.56247 0.93974 0.58308 0.0
O436 O 0.53991 0.9026 0.61393 0.0
Mg437 Mg 0.57412 0.8846 0.62655 0.0
C438 C 0.53874 0.92235 0.59802 0.0
C439 C 0.65124 0.99957 0.53983 0.0
O440 O 0.6721 0.00213 0.55727 0.0
O441 O 0.59091 0.89756 0.5555 0.0
O442 O 0.56763 0.86211 0.58735 0.0
O443 O 0.63523 0.98455 0.60648 0.0
O444 O 0.61415 0.93171 0.61392 0.0
C445 C 0.57418 0.86841 0.56402 0.0
C446 C 0.62628 0.96092 0.62252 0.0
O447 O 0.62192 0.97626 0.54144 0.0
Mg448 Mg 0.16614 0.69087 0.56764 0.0
O449 O 0.17182 0.64553 0.56172 0.0
O450 O 0.21481 0.65412 0.58492 0.0
Mg451 Mg 0.23594 0.70224 0.60577 0.0
C452 C 0.1915 0.63648 0.56997 0.0
C453 C 0.1008 0.65494 0.53724 0.0
O454 O 0.09106 0.63884 0.55862 0.0
O455 O 0.21044 0.72402 0.54291 0.0
O456 O 0.2506 0.73156 0.56907 0.0
O457 O 0.13432 0.66721 0.60109 0.0
O458 O 0.18787 0.69808 0.60309 0.0
C459 C 0.24075 0.73754 0.54839 0.0
C460 C 0.16071 0.67974 0.61442 0.0
O461 O 0.13064 0.67684 0.53468 0.0
Mg462 Mg 0.1634 0.68241 0.76958 0.0
O463 O 0.21141 0.73361 0.76506 0.0
O464 O 0.24339 0.72755 0.7371 0.0
Mg465 Mg 0.22564 0.67349 0.73561 0.0
C466 C 0.23674 0.74557 0.75082 0.0
C467 C 0.10952 0.68377 0.79476 0.0
O468 O 0.09776 0.65673 0.78166 0.0
O469 O 0.18303 0.6633 0.80122 0.0
O470 O 0.22498 0.67991 0.77764 0.0
O471 O 0.14582 0.68992 0.73326 0.0
O472 O 0.17518 0.66542 0.73622 0.0
C473 C 0.20365 0.65719 0.7912 0.0
C474 C 0.16046 0.67653 0.7223 0.0
O475 O 0.14029 0.70227 0.79598 0.0
Mg476 Mg 0.36517 0.46213 0.74459 0.0
O477 O 0.32055 0.46669 0.73283 0.0
O478 O 0.33563 0.49982 0.69929 0.0
Mg479 Mg 0.38943 0.51907 0.69131 0.0
C480 C 0.31419 0.48139 0.71535 0.0
C481 C 0.35717 0.4253 0.792 0.0
O482 O 0.38763 0.43727 0.78489 0.0
O483 O 0.38757 0.51184 0.7644 0.0
O484 O 0.40067 0.54328 0.72981 0.0
O485 O 0.35138 0.42299 0.71599 0.0
O486 O 0.3854 0.47551 0.70885 0.0
C487 C 0.39936 0.53977 0.75367 0.0
C488 C 0.36945 0.44623 0.70045 0.0
O489 O 0.33917 0.43315 0.77954 0.0
Mg490 Mg 0.6124 0.9787 0.7748 0.0
O491 O 0.58733 0.9227 0.76906 0.0
O492 O 0.54721 0.91054 0.74126 0.0
Mg493 Mg 0.5476 0.95651 0.7278 0.0
C494 C 0.56308 0.90203 0.75595 0.0
C495 C 0.66159 0.00428 0.8176 0.0
O496 O 0.66136 0.03041 0.80927 0.0
O497 O 0.56847 0.97151 0.79886 0.0
O498 O 0.53293 0.96093 0.76748 0.0
O499 O 0.64669 0.98669 0.74302 0.0
O500 O 0.59881 0.98334 0.73828 0.0
C501 C 0.54056 0.96548 0.7907 0.0
C502 C 0.62413 0.98477 0.72819 0.0
O503 O 0.64133 0.97665 0.80842 0.0
C504 C 0.14638 0.296 0.14135 0.0
C505 C 0.11689 0.267 0.13683 0.0
H506 H 0.19849 0.31875 0.14084 0.0
C507 C 0.1165 0.23714 0.13812 0.0
H508 H 0.14735 0.31937 0.14023 0.0
C509 C 0.14583 0.23678 0.13853 0.0
C510 C 0.17568 0.26628 0.13753 0.0
H511 H 0.09407 0.21446 0.13454 0.0
H512 H 0.14508 0.21382 0.13521 0.0
C513 C 0.1758 0.29563 0.14173 0.0
C514 C 0.88588 0.94641 0.09618 0.0
C515 C 0.86953 0.95615 0.11295 0.0
H516 H 0.88201 0.91051 0.07 0.0
C517 C 0.83658 0.93398 0.1187 0.0
H518 H 0.9115 0.96233 0.09197 0.0
C519 C 0.81995 0.90364 0.10663 0.0
C520 C 0.83594 0.89535 0.08848 0.0
H521 H 0.82338 0.94042 0.13188 0.0
H522 H 0.79431 0.8874 0.11059 0.0
C523 C 0.86911 0.91668 0.0837 0.0
C524 C 0.09403 0.89881 0.11415 0.0
C525 C 0.06967 0.89392 0.09676 0.0
H526 H 0.13309 0.93331 0.13736 0.0
C527 C 0.06265 0.91901 0.09228 0.0
H528 H 0.09987 0.87972 0.11776 0.0
C529 C 0.08113 0.94931 0.10367 0.0
C530 C 0.10777 0.95552 0.11909 0.0
H531 H 0.04375 0.91561 0.07905 0.0
H532 H 0.07573 0.9685 0.09918 0.0
C533 C 0.11311 0.92952 0.1252 0.0
C534 C 0.17516 0.1063 0.87074 0.0
C535 C 0.19788 0.09542 0.87063 0.0
H536 H 0.16831 0.14736 0.87541 0.0
C537 C 0.23089 0.11833 0.86604 0.0
H538 H 0.14951 0.08916 0.87395 0.0
C539 C 0.24164 0.15186 0.86676 0.0
C540 C 0.2194 0.16252 0.8718 0.0
H541 H 0.249 0.11073 0.86577 0.0
H542 H 0.26764 0.16901 0.86724 0.0
C543 C 0.1859 0.1397 0.8714 0.0
C544 C 0.93027 0.15337 0.867 0.0
C545 C 0.96323 0.16395 0.87184 0.0
H546 H 0.88177 0.1123 0.86577 0.0
C547 C 0.9739 0.14113 0.87098 0.0
H548 H 0.92144 0.17053 0.86785 0.0
C549 C 0.95123 0.10774 0.86989 0.0
C550 C 0.91762 0.09685 0.86994 0.0
H551 H 0.9992 0.14873 0.87483 0.0
H552 H 0.9598 0.09056 0.8727 0.0
C553 C 0.90748 0.11987 0.86588 0.0
C554 C 0.88302 0.79106 0.83044 0.0
C555 C 0.85453 0.76092 0.83445 0.0
H556 H 0.93515 0.81647 0.83113 0.0
C557 C 0.85603 0.73211 0.83252 0.0
H558 H 0.88245 0.81361 0.83203 0.0
C559 C 0.88638 0.73376 0.83182 0.0
C560 C 0.91514 0.76421 0.8334 0.0
H561 H 0.83438 0.70859 0.83578 0.0
H562 H 0.88716 0.71143 0.83468 0.0
C563 C 0.9133 0.79269 0.82985 0.0
C564 C 0.82044 0.63419 0.46347 0.0
C565 C 0.79055 0.60571 0.45873 0.0
H566 H 0.87252 0.65599 0.46298 0.0
C567 C 0.78957 0.57554 0.45858 0.0
H568 H 0.82189 0.65781 0.46329 0.0
C569 C 0.81855 0.5745 0.45834 0.0
C570 C 0.84877 0.60362 0.45833 0.0
H571 H 0.76686 0.55328 0.45467 0.0
H572 H 0.81731 0.55147 0.45429 0.0
C573 C 0.84954 0.63314 0.46328 0.0
C574 C 0.55986 0.29275 0.43891 0.0
C575 C 0.5392 0.29998 0.45295 0.0
H576 H 0.5638 0.25773 0.4162 0.0
C577 C 0.5075 0.27449 0.45875 0.0
H578 H 0.58466 0.31156 0.43466 0.0
C579 C 0.49587 0.24325 0.44867 0.0
C580 C 0.51569 0.2373 0.43256 0.0
H581 H 0.49109 0.27909 0.46981 0.0
H582 H 0.47073 0.22456 0.45192 0.0
C583 C 0.54806 0.26191 0.42848 0.0
C584 C 0.76192 0.28152 0.43412 0.0
C585 C 0.7896 0.2902 0.44906 0.0
H586 H 0.72496 0.24544 0.41051 0.0
C587 C 0.79806 0.2662 0.45473 0.0
H588 H 0.75411 0.29904 0.43 0.0
C589 C 0.78056 0.23499 0.4441 0.0
C590 C 0.75473 0.22763 0.42749 0.0
H591 H 0.81894 0.27189 0.46649 0.0
H592 H 0.78834 0.21735 0.44769 0.0
C593 C 0.74508 0.25081 0.42308 0.0
C594 C 0.83762 0.43582 0.2055 0.0
C595 C 0.85946 0.42405 0.2028 0.0
H596 H 0.83284 0.4777 0.21271 0.0
C597 C 0.8921 0.44636 0.19648 0.0
H598 H 0.81226 0.4192 0.21011 0.0
C599 C 0.90386 0.48006 0.19784 0.0
C600 C 0.88296 0.49153 0.20521 0.0
H601 H 0.90955 0.4381 0.19426 0.0
H602 H 0.92993 0.49672 0.19666 0.0
C603 C 0.84938 0.46938 0.20692 0.0
C604 C 0.60578 0.48837 0.19902 0.0
C605 C 0.63827 0.49915 0.20575 0.0
H606 H 0.55763 0.44708 0.19596 0.0
C607 C 0.64918 0.47654 0.20681 0.0
H608 H 0.59684 0.50545 0.19833 0.0
C609 C 0.62683 0.44312 0.20542 0.0
C610 C 0.59327 0.43204 0.20341 0.0
H611 H 0.67415 0.48438 0.21209 0.0
H612 H 0.63527 0.4261 0.20953 0.0
C613 C 0.5833 0.45483 0.19768 0.0
C614 C 0.56129 0.12003 0.16576 0.0
C615 C 0.53064 0.09244 0.17043 0.0
H616 H 0.61291 0.13951 0.16723 0.0
C617 C 0.52781 0.06142 0.17 0.0
H618 H 0.56411 0.14423 0.16611 0.0
C619 C 0.55593 0.05871 0.17084 0.0
C620 C 0.58681 0.087 0.17176 0.0
H621 H 0.50445 0.03978 0.1737 0.0
H622 H 0.55333 0.03506 0.17508 0.0
C623 C 0.58936 0.11731 0.16645 0.0
C624 C 0.47753 0.98358 0.80866 0.0
C625 C 0.45089 0.95182 0.80586 0.0
H626 H 0.52958 0.01333 0.80698 0.0
C627 C 0.45593 0.92521 0.80929 0.0
H628 H 0.47431 0.00453 0.80586 0.0
C629 C 0.48766 0.93029 0.81035 0.0
C630 C 0.51449 0.96197 0.80757 0.0
H631 H 0.43581 0.90048 0.80703 0.0
H632 H 0.49097 0.90927 0.80881 0.0
C633 C 0.50933 0.98866 0.80935 0.0
C634 C 0.14904 0.56647 0.77807 0.0
C635 C 0.16848 0.5613 0.76097 0.0
H636 H 0.14474 0.60121 0.80107 0.0
C637 C 0.20053 0.58637 0.75644 0.0
H638 H 0.1242 0.54738 0.78178 0.0
C639 C 0.2125 0.61674 0.76776 0.0
C640 C 0.19228 0.62314 0.78313 0.0
H641 H 0.21606 0.58275 0.74351 0.0
H642 H 0.23721 0.63572 0.76349 0.0
C643 C 0.16079 0.59729 0.78898 0.0
C644 C 0.44714 0.58227 0.77621 0.0
C645 C 0.41488 0.57013 0.76815 0.0
H646 H 0.49475 0.62445 0.77867 0.0
C647 C 0.40337 0.59198 0.76434 0.0
H648 H 0.45656 0.56579 0.77909 0.0
C649 C 0.42518 0.62559 0.76395 0.0
C650 C 0.45876 0.63755 0.76713 0.0
H651 H 0.37853 0.58309 0.75806 0.0
H652 H 0.4164 0.64169 0.75772 0.0
C653 C 0.46908 0.61599 0.77582 0.0
C654 C 0.56768 0.80369 0.51919 0.0
C655 C 0.53425 0.78032 0.52134 0.0
H656 H 0.60669 0.85068 0.53093 0.0
C657 C 0.51389 0.78864 0.53469 0.0
H658 H 0.58401 0.79827 0.50882 0.0
C659 C 0.52694 0.81809 0.54761 0.0
C660 C 0.56048 0.84049 0.54673 0.0
H661 H 0.48794 0.7716 0.53621 0.0
H662 H 0.51092 0.82296 0.55897 0.0
C663 C 0.58068 0.8337 0.53174 0.0
C664 C 0.25616 0.79072 0.52787 0.0
C665 C 0.26479 0.76723 0.53468 0.0
H666 H 0.27144 0.84177 0.52766 0.0
C667 C 0.29805 0.77715 0.53706 0.0
H668 H 0.23075 0.78384 0.52579 0.0
C669 C 0.32132 0.81035 0.53806 0.0
C670 C 0.31158 0.83387 0.53645 0.0
H671 H 0.30546 0.75952 0.54197 0.0
H672 H 0.34591 0.81736 0.54393 0.0
C673 C 0.27956 0.82406 0.52886 0.0
C674 C 0.27525 0.48433 0.51017 0.0
C675 C 0.2797 0.45719 0.51195 0.0
H676 H 0.24069 0.50081 0.51148 0.0
C677 C 0.25299 0.42592 0.50748 0.0
H678 H 0.29548 0.50866 0.51374 0.0
C679 C 0.2214 0.42137 0.50644 0.0
C680 C 0.2166 0.44812 0.50963 0.0
H681 H 0.2558 0.40459 0.50902 0.0
H682 H 0.20082 0.39668 0.50733 0.0
C683 C 0.24378 0.4798 0.5088 0.0
C684 C 0.93796 0.29658 0.1458 0.0
C685 C 0.9661 0.29481 0.15139 0.0
H686 H 0.90184 0.30742 0.15915 0.0
C687 C 0.97871 0.30179 0.17593 0.0
H688 H 0.9276 0.29138 0.12707 0.0
C689 C 0.96392 0.31099 0.19432 0.0
C690 C 0.93625 0.31353 0.18856 0.0
H691 H 0.00034 0.30066 0.18088 0.0
H692 H 0.97449 0.31655 0.21297 0.0
C693 C 0.92324 0.30591 0.16416 0.0
C694 C 0.75439 0.71001 0.13796 0.0
C695 C 0.73205 0.71815 0.12747 0.0
H696 H 0.76212 0.68031 0.1647 0.0
C697 C 0.69975 0.70204 0.13622 0.0
H698 H 0.77941 0.72187 0.13144 0.0
C699 C 0.68995 0.67846 0.15512 0.0
C700 C 0.71212 0.67017 0.16562 0.0
H701 H 0.68193 0.70771 0.12852 0.0
H702 H 0.66488 0.66672 0.16152 0.0
C703 C 0.74444 0.68604 0.15681 0.0
C704 C 0.32682 0.07451 0.1326 0.0
C705 C 0.29497 0.05403 0.14168 0.0
H706 H 0.37806 0.09363 0.1385 0.0
C707 C 0.29074 0.03757 0.16464 0.0
H708 H 0.33088 0.08752 0.11492 0.0
C709 C 0.31762 0.04077 0.17789 0.0
C710 C 0.34942 0.06069 0.16863 0.0
H711 H 0.26659 0.02156 0.17217 0.0
H712 H 0.31334 0.02741 0.19542 0.0
C713 C 0.35383 0.07791 0.14601 0.0
C714 C 0.27532 0.98198 0.84586 0.0
C715 C 0.28948 0.01112 0.85972 0.0
H716 H 0.28297 0.95217 0.81973 0.0
C717 C 0.32326 0.03266 0.85783 0.0
H718 H 0.24939 0.96477 0.84705 0.0
C719 C 0.34241 0.02554 0.84214 0.0
C720 C 0.32831 0.99651 0.82819 0.0
H721 H 0.33493 0.05528 0.8683 0.0
H722 H 0.36831 0.0429 0.84088 0.0
C723 C 0.29459 0.97465 0.83036 0.0
C724 C 0.05352 0.39523 0.82386 0.0
C725 C 0.07814 0.39791 0.80773 0.0
H726 H 0.02182 0.36988 0.8546 0.0
C727 C 0.09038 0.37648 0.81106 0.0
H728 H 0.04358 0.41137 0.8218 0.0
C729 C 0.07757 0.35228 0.8298 0.0
C730 C 0.05256 0.34936 0.84565 0.0
H731 H 0.10924 0.37784 0.79881 0.0
H732 H 0.08715 0.33583 0.83179 0.0
C733 C 0.04098 0.37135 0.84265 0.0
C734 C 0.64515 0.69042 0.7778 0.0
C735 C 0.63454 0.71335 0.77749 0.0
H736 H 0.67907 0.67727 0.79266 0.0
C737 C 0.65159 0.74203 0.79166 0.0
H738 H 0.63256 0.66813 0.76699 0.0
C739 C 0.67863 0.74754 0.80602 0.0
C740 C 0.68877 0.72422 0.80675 0.0
H741 H 0.64415 0.76029 0.79158 0.0
H742 H 0.69105 0.76966 0.81704 0.0
C743 C 0.67185 0.69569 0.79242 0.0
C744 C 0.0755 0.73481 0.82123 0.0
C745 C 0.04247 0.71109 0.82449 0.0
H746 H 0.12299 0.74462 0.80982 0.0
C747 C 0.03186 0.67858 0.81798 0.0
H748 H 0.08442 0.76002 0.82638 0.0
C749 C 0.05381 0.66983 0.80852 0.0
C750 C 0.08695 0.69332 0.8057 0.0
H751 H 0.00658 0.65976 0.82039 0.0
H752 H 0.04482 0.64452 0.80364 0.0
C753 C 0.09764 0.72594 0.81209 0.0
C754 C 0.30976 0.37974 0.81503 0.0
C755 C 0.34363 0.40028 0.81212 0.0
H756 H 0.27131 0.33845 0.83437 0.0
C757 C 0.36487 0.39521 0.82749 0.0
H758 H 0.2928 0.38294 0.80332 0.0
C759 C 0.35264 0.36993 0.84515 0.0
C760 C 0.31886 0.34889 0.84776 0.0
H761 H 0.39107 0.4106 0.82573 0.0
H762 H 0.36982 0.36669 0.85657 0.0
C763 C 0.29747 0.35412 0.83263 0.0
C764 C 0.72365 0.98876 0.85085 0.0
C765 C 0.74203 0.01808 0.8641 0.0
H766 H 0.68321 0.961 0.82618 0.0
C767 C 0.73267 0.04196 0.86287 0.0
H768 H 0.7301 0.96979 0.85161 0.0
C769 C 0.70604 0.03704 0.84826 0.0
C770 C 0.68782 0.00791 0.83482 0.0
H771 H 0.74624 0.06478 0.87291 0.0
H772 H 0.6999 0.05623 0.84733 0.0
C773 C 0.69663 0.98361 0.8365 0.0
C774 C 0.77659 0.0747 0.13277 0.0
C775 C 0.78744 0.0536 0.14159 0.0
H776 H 0.74398 0.09329 0.1383 0.0
C777 C 0.77393 0.03564 0.16376 0.0
H778 H 0.78655 0.08888 0.11571 0.0
C779 C 0.7494 0.03783 0.17638 0.0
C780 C 0.73795 0.05828 0.16731 0.0
H781 H 0.78165 0.01914 0.17107 0.0
H782 H 0.7393 0.02326 0.19325 0.0
C783 C 0.75213 0.07713 0.1456 0.0
C784 C 0.02638 0.7182 0.14715 0.0
C785 C 0.00399 0.7243 0.13433 0.0
H786 H 0.03382 0.68986 0.17497 0.0
C787 C 0.97066 0.70554 0.14036 0.0
H788 H 0.05222 0.7322 0.14295 0.0
C789 C 0.95997 0.68081 0.15866 0.0
C790 C 0.9825 0.67473 0.17137 0.0
H791 H 0.95281 0.70956 0.13066 0.0
H792 H 0.93417 0.66663 0.16293 0.0
C793 C 0.0158 0.69383 0.1655 0.0
C794 C 0.39173 0.33334 0.14911 0.0
C795 C 0.35854 0.3101 0.15237 0.0
H796 H 0.44022 0.35443 0.16366 0.0
C797 C 0.34907 0.28935 0.17351 0.0
H798 H 0.39992 0.34963 0.13299 0.0
C799 C 0.37232 0.29212 0.19116 0.0
C800 C 0.40548 0.31563 0.18799 0.0
H801 H 0.32372 0.27113 0.17651 0.0
H802 H 0.36422 0.276 0.20739 0.0
C803 C 0.41491 0.33604 0.16668 0.0
C804 C 0.61829 0.64728 0.50801 0.0
C805 C 0.61152 0.67178 0.50011 0.0
H806 H 0.6451 0.62248 0.50105 0.0
C807 C 0.62681 0.68994 0.47836 0.0
H808 H 0.6069 0.63286 0.52473 0.0
C809 C 0.64888 0.68434 0.46516 0.0
C810 C 0.65604 0.66019 0.47313 0.0
H811 H 0.62229 0.70905 0.47176 0.0
H812 H 0.66033 0.6991 0.44859 0.0
C813 C 0.64022 0.64138 0.49454 0.0
C814 C 0.38497 0.05784 0.48533 0.0
C815 C 0.41405 0.06604 0.47265 0.0
H816 H 0.35021 0.02778 0.51307 0.0
C817 C 0.43085 0.04945 0.47894 0.0
H818 H 0.37144 0.07015 0.48094 0.0
C819 C 0.41839 0.0247 0.49727 0.0
C820 C 0.38915 0.01644 0.5098 0.0
H821 H 0.45323 0.0551 0.46936 0.0
H822 H 0.43168 0.01215 0.50166 0.0
C823 C 0.37276 0.03347 0.50375 0.0
C824 C 0.97165 0.37698 0.49114 0.0
C825 C 0.97524 0.3952 0.46924 0.0
H826 H 0.99509 0.36552 0.52046 0.0
C827 C 0.00688 0.41773 0.46074 0.0
H828 H 0.94771 0.35937 0.4982 0.0
C829 C 0.03436 0.42142 0.47369 0.0
C830 C 0.03056 0.4023 0.49512 0.0
H831 H 0.01042 0.43212 0.44388 0.0
H832 H 0.05846 0.43873 0.46671 0.0
C833 C 0.99893 0.38033 0.50379 0.0
C834 C 0.43344 0.42275 0.49155 0.0
C835 C 0.39916 0.40469 0.49061 0.0
H836 H 0.47831 0.42438 0.48239 0.0
C837 C 0.38383 0.3745 0.47826 0.0
H838 H 0.44594 0.446 0.50114 0.0
C839 C 0.40227 0.36217 0.4676 0.0
C840 C 0.43649 0.37962 0.46926 0.0
H841 H 0.35747 0.36001 0.47725 0.0
H842 H 0.3896 0.33863 0.45845 0.0
C843 C 0.45196 0.41022 0.48108 0.0
C844 C 0.69539 0.04673 0.51629 0.0
C845 C 0.66208 0.02371 0.51906 0.0
H846 H 0.73211 0.08626 0.4947 0.0
C847 C 0.63964 0.02428 0.50199 0.0
H848 H 0.71333 0.04708 0.52917 0.0
C849 C 0.65045 0.04711 0.48228 0.0
C850 C 0.68391 0.06954 0.47919 0.0
H851 H 0.61378 0.00699 0.50375 0.0
H852 H 0.6327 0.04661 0.46912 0.0
C853 C 0.70618 0.06928 0.49654 0.0
C854 C 0.06386 0.66608 0.4774 0.0
C855 C 0.0305 0.64337 0.48067 0.0
H856 H 0.11211 0.6873 0.49243 0.0
C857 C 0.02056 0.62343 0.50226 0.0
H858 H 0.07245 0.68172 0.46092 0.0
C859 C 0.04347 0.62666 0.52043 0.0
C860 C 0.07677 0.64981 0.51731 0.0
H861 H 0.99507 0.60561 0.50528 0.0
H862 H 0.035 0.61129 0.53706 0.0
C863 C 0.0867 0.66923 0.49546 0.0
C864 C 0.02874 0.31644 0.01324 0.0
C865 C 0.03405 0.29442 0.02752 0.0
H866 H 0.02169 0.33054 0.97622 0.0
C867 C 0.0354 0.26893 0.01536 0.0
H868 H 0.02759 0.33629 0.02227 0.0
C869 C 0.0316 0.2654 -0.01056 0.0
C870 C 0.02661 0.28743 0.97504 0.0
H871 H 0.03873 0.2512 0.02583 0.0
H872 H 0.0332 0.24571 0.98069 0.0
C873 C 0.02554 0.31325 0.98703 0.0
C874 C 0.75862 0.73381 0.95807 0.0
C875 C 0.74879 0.75057 0.94159 0.0
H876 H 0.76773 0.72617 -0.00367 0.0
C877 C 0.74026 0.77281 0.95125 0.0
H878 H 0.76543 0.71665 0.95093 0.0
C879 C 0.74259 0.77902 0.97702 0.0
C880 C 0.75237 0.76222 -0.00649 0.0
H881 H 0.73296 0.78625 0.9388 0.0
H882 H 0.73679 0.79695 0.98408 0.0
C883 C 0.75985 0.73917 0.98393 0.0
C884 C 0.17163 0.00167 -0.00861 0.0
C885 C 0.19415 0.99524 0.97923 0.0
H886 H 0.15282 0.0069 0.02662 0.0
C887 C 0.2138 0.987 -0.00623 0.0
H888 H 0.15611 0.008 0.98067 0.0
C889 C 0.21244 0.98716 0.01994 0.0
C890 C 0.1908 0.99469 0.0321 0.0
H891 H 0.23148 0.98207 0.98498 0.0
H892 H 0.22881 0.98197 0.0307 0.0
C893 C 0.16966 0.00096 0.01767 0.0
C894 C 0.01319 0.73466 0.9599 0.0
C895 C 0.00606 0.75472 0.94476 0.0
H896 H 0.02287 0.72428 -0.00267 0.0
C897 C 0.00442 0.78075 0.95559 0.0
H898 H 0.01463 0.71446 0.95179 0.0
C899 C 0.00982 0.78675 0.9812 0.0
C900 C 0.01648 0.76654 -0.0035 0.0
H901 H -0.00041 0.79692 0.94425 0.0
H902 H 0.00801 0.80679 0.989 0.0
C903 C 0.01783 0.74021 0.98578 0.0
C904 C 0.25626 0.26632 0.01599 0.0
C905 C 0.28351 0.29157 0.02804 0.0
H906 H 0.23417 0.24357 0.98138 0.0
C907 C 0.31056 0.31355 0.01361 0.0
H908 H 0.2354 0.24862 0.02657 0.0
C909 C 0.30988 0.31058 0.98738 0.0
C910 C 0.28254 0.28502 0.97549 0.0
H911 H 0.33186 0.33324 0.02257 0.0
H912 H 0.33081 0.32783 0.97645 0.0
C913 C 0.2558 0.26302 -0.00997 0.0
C914 C 0.85477 0.00414 -0.00927 0.0
C915 C 0.82509 0.99692 0.97925 0.0
H916 H 0.88038 0.00973 0.02537 0.0
C917 C 0.79747 0.98727 -0.00565 0.0
H918 H 0.87644 0.01156 0.9796 0.0
C919 C 0.79994 0.98691 0.02044 0.0
C920 C 0.82985 0.99541 0.03194 0.0
H921 H 0.77429 0.98162 0.9861 0.0
H922 H 0.77854 0.98067 0.03168 0.0
C923 C 0.85704 0.00301 0.01692 0.0
C924 C 0.73044 0.65024 0.31301 0.0
C925 C 0.69973 0.6302 0.3022 0.0
H926 H 0.75764 0.66805 0.34722 0.0
C927 C 0.67204 0.61454 0.31765 0.0
H928 H 0.75212 0.66226 0.3014 0.0
C929 C 0.67504 0.61869 0.34366 0.0
C930 C 0.70591 0.63761 0.35455 0.0
H931 H 0.64814 0.5989 0.3096 0.0
H932 H 0.65345 0.606 0.35531 0.0
C933 C 0.73358 0.65344 0.3391 0.0
C934 C 0.46772 0.12568 0.31883 0.0
C935 C 0.441 0.10661 0.33452 0.0
H936 H 0.48701 0.13406 0.28158 0.0
C937 C 0.41253 0.08062 0.3243 0.0
H938 H 0.4901 0.14548 0.32631 0.0
C939 C 0.41061 0.07432 0.29851 0.0
C940 C 0.43757 0.09321 0.28294 0.0
H941 H 0.39166 0.06561 0.33615 0.0
H942 H 0.38832 0.05445 0.29081 0.0
C943 C 0.46613 0.11883 0.29328 0.0
C944 C 0.88898 0.32428 0.34886 0.0
C945 C 0.86642 0.32976 0.36184 0.0
H946 H 0.9067 0.31952 0.31313 0.0
C947 C 0.84243 0.33251 0.34829 0.0
H948 H 0.90752 0.32174 0.35894 0.0
C949 C 0.84232 0.3318 0.32202 0.0
C950 C 0.86566 0.32749 0.30901 0.0
H951 H 0.82476 0.3367 0.35786 0.0
H952 H 0.82441 0.33528 0.31196 0.0
C953 C 0.88834 0.32273 0.32268 0.0
C954 C 0.71725 0.10693 0.31771 0.0
C955 C 0.69077 0.0917 0.33432 0.0
H956 H 0.7334 0.11295 0.27951 0.0
C957 C 0.65946 0.07049 0.32486 0.0
H958 H 0.74159 0.12347 0.32465 0.0
C959 C 0.65461 0.06528 0.29898 0.0
C960 C 0.68119 0.08034 0.28241 0.0
H961 H 0.63865 0.05879 0.33737 0.0
H962 H 0.63018 0.04937 0.29193 0.0
C963 C 0.71259 0.10087 0.29198 0.0
C964 C 0.95351 0.64733 0.33949 0.0
C965 C 0.9633 0.62947 0.35479 0.0
H966 H 0.94429 0.65752 0.30196 0.0
C967 C 0.97209 0.60816 0.34371 0.0
H968 H 0.94643 0.66374 0.34775 0.0
C969 C 0.96978 0.60377 0.31768 0.0
C970 C 0.95975 0.62148 0.30237 0.0
H971 H 0.97929 0.59385 0.35525 0.0
H972 H 0.97559 0.58638 0.3095 0.0
C973 C 0.95232 0.64382 0.3134 0.0
C974 C 0.46805 0.33039 0.35031 0.0
C975 C 0.49681 0.33665 0.36273 0.0
H976 H 0.44402 0.32497 0.3151 0.0
C977 C 0.52318 0.33967 0.34868 0.0
H978 H 0.44725 0.32763 0.36082 0.0
C979 C 0.52154 0.33873 0.32241 0.0
C980 C 0.49322 0.33393 0.30994 0.0
H981 H 0.54558 0.34447 0.35786 0.0
H982 H 0.54273 0.3427 0.31192 0.0
C983 C 0.46611 0.3286 0.32417 0.0
C984 C 0.36668 0.93706 0.68182 0.0
C985 C 0.36296 0.96172 0.69305 0.0
H986 H 0.36881 0.91476 0.64781 0.0
C987 C 0.35756 0.98293 0.6778 0.0
H988 H 0.37027 0.92003 0.6931 0.0
C989 C 0.35673 0.97989 0.65158 0.0
C990 C 0.36033 0.95502 0.64046 0.0
H991 H 0.35471 0.0022 0.68613 0.0
H992 H 0.35286 0.99663 0.64003 0.0
C993 C 0.36526 0.93367 0.65582 0.0
C994 C 0.11046 0.40861 0.65561 0.0
C995 C 0.09897 0.42854 0.66521 0.0
H996 H 0.12137 0.39022 0.6225 0.0
C997 C 0.08743 0.44371 0.64867 0.0
H998 H 0.11981 0.39699 0.66808 0.0
C999 C 0.08739 0.43907 0.6228 0.0
C1000 C 0.09998 0.42012 0.61312 0.0
H1001 H 0.07858 0.45929 0.65576 0.0
H1002 H 0.07868 0.45129 0.61034 0.0
C1003 C 0.11149 0.40488 0.62966 0.0
C1004 C 0.53547 0.7296 0.64668 0.0
C1005 C 0.56317 0.73558 0.66063 0.0
H1006 H 0.51462 0.72478 0.61001 0.0
C1007 C 0.59214 0.74347 0.64791 0.0
H1008 H 0.51283 0.72349 0.65601 0.0
C1009 C 0.59287 0.74338 0.62175 0.0
C1010 C 0.56494 0.7363 0.60781 0.0
H1011 H 0.61385 0.74805 0.65813 0.0
H1012 H 0.61518 0.7483 0.6124 0.0
C1013 C 0.53648 0.73039 0.62039 0.0
C1014 C 0.39752 0.45699 0.65927 0.0
C1015 C 0.36861 0.44068 0.67335 0.0
H1016 H 0.41907 0.4679 0.62253 0.0
C1017 C 0.33875 0.42189 0.66102 0.0
H1018 H 0.42077 0.47181 0.66853 0.0
C1019 C 0.33767 0.42062 0.6348 0.0
C1020 C 0.36654 0.43722 0.6207 0.0
H1021 H 0.31616 0.40953 0.67157 0.0
H1022 H 0.31425 0.40692 0.62552 0.0
C1023 C 0.39656 0.45477 0.6331 0.0
C1024 C 0.59784 0.95323 0.68951 0.0
C1025 C 0.62503 0.97916 0.70113 0.0
H1026 H 0.5772 0.92686 0.65562 0.0
C1027 C 0.65306 0.99892 0.68681 0.0
H1028 H 0.57614 0.93734 0.70012 0.0
C1029 C 0.65345 0.99323 0.66104 0.0
C1030 C 0.62629 0.96695 0.64959 0.0
H1031 H 0.67435 0.019 0.69545 0.0
H1032 H 0.67505 0.00903 0.65014 0.0
C1033 C 0.5986 0.94694 0.66405 0.0
C1034 C 0.18624 0.67624 0.68135 0.0
C1035 C 0.15991 0.67439 0.69473 0.0
H1036 H 0.20723 0.67947 0.64513 0.0
C1037 C 0.13289 0.67155 0.68151 0.0
H1038 H 0.20729 0.67836 0.69113 0.0
C1039 C 0.13252 0.67146 0.65532 0.0
C1040 C 0.15954 0.67508 0.64186 0.0
H1041 H 0.11211 0.66973 0.69145 0.0
H1042 H 0.11169 0.67004 0.64562 0.0
C1043 C 0.18623 0.67701 0.65505 0.0
C1044 C 0.93085 0.13131 0.10055 0.0
C1045 C 0.92974 0.11085 0.08099 0.0
H1046 H 0.95591 0.17967 0.11624 0.0
C1047 C 0.95163 0.12478 0.06084 0.0
H1048 H 0.91426 0.12132 0.11633 0.0
C1049 C 0.97528 0.15773 0.06086 0.0
C1050 C 0.97783 0.17794 0.08101 0.0
H1051 H 0.9512 0.10996 0.04524 0.0
H1052 H 0.99213 0.16719 0.04519 0.0
C1053 C 0.95473 0.16467 0.10054 0.0
C1054 C 0.91261 0.79005 0.06004 0.0
C1055 C 0.93602 0.80554 0.04098 0.0
H1056 H 0.86553 0.77823 0.07418 0.0
C1057 C 0.92839 0.81931 0.02038 0.0
H1058 H 0.91769 0.77911 0.07612 0.0
C1059 C 0.89875 0.81876 0.01923 0.0
C1060 C 0.87576 0.80445 0.03866 0.0
H1061 H 0.94557 0.83107 0.00514 0.0
H1062 H 0.8942 0.8302 0.00321 0.0
C1063 C 0.88274 0.78954 0.05891 0.0
C1064 C 0.19613 0.12207 0.06184 0.0
C1065 C 0.20539 0.10858 0.08163 0.0
H1066 H 0.19661 0.16403 0.04651 0.0
C1067 C 0.22531 0.12934 0.10089 0.0
H1068 H 0.18122 0.10704 0.04647 0.0
C1069 C 0.23428 0.16255 0.10092 0.0
C1070 C 0.22335 0.17541 0.08173 0.0
H1071 H 0.2329 0.11971 0.11641 0.0
H1072 H 0.24873 0.17779 0.11636 0.0
C1073 C 0.20491 0.1549 0.06191 0.0
C1074 C 0.074 0.92253 0.89296 0.0
C1075 C 0.10658 0.93005 0.89061 0.0
H1076 H 0.02376 0.8856 0.89259 0.0
C1077 C 0.11293 0.90543 0.88263 0.0
H1078 H 0.06813 0.94095 0.89865 0.0
C1079 C 0.08719 0.87337 0.87905 0.0
C1080 C 0.05479 0.86551 0.88348 0.0
H1081 H 0.13777 0.91045 0.88057 0.0
H1082 H 0.09278 0.85445 0.87435 0.0
C1083 C 0.04849 0.89071 0.88949 0.0
C1084 C 0.13829 0.22625 0.94146 0.0
C1085 C 0.16288 0.24481 0.92385 0.0
H1086 H 0.09078 0.21151 0.95525 0.0
C1087 C 0.15744 0.264 0.90627 0.0
H1088 H 0.14148 0.21129 0.95542 0.0
C1089 C 0.1278 0.26413 0.90617 0.0
C1090 C 0.10312 0.24507 0.92365 0.0
H1091 H 0.17587 0.27862 0.89246 0.0
H1092 H 0.12413 0.27886 0.8923 0.0
C1093 C 0.10897 0.22637 0.94135 0.0
C1094 C 0.80102 0.87404 0.87836 0.0
C1095 C 0.82265 0.86323 0.88568 0.0
H1096 H 0.79191 0.91416 0.87686 0.0
C1097 C 0.85387 0.88627 0.89428 0.0
H1098 H 0.77681 0.85684 0.87158 0.0
C1099 C 0.86262 0.91894 0.89704 0.0
C1100 C 0.84026 0.92949 0.89154 0.0
H1101 H 0.87131 0.87886 0.89968 0.0
H1102 H 0.88653 0.93563 0.90461 0.0
C1103 C 0.8097 0.90689 0.88136 0.0
C1104 C 0.62284 0.46363 0.38985 0.0
C1105 C 0.59999 0.45178 0.40955 0.0
H1106 H 0.66457 0.50422 0.3735 0.0
C1107 C 0.60126 0.47399 0.42763 0.0
H1108 H 0.62245 0.44742 0.3754 0.0
C1109 C 0.6258 0.50702 0.42656 0.0
C1110 C 0.64946 0.51841 0.40738 0.0
H1111 H 0.58403 0.46567 0.44305 0.0
H1112 H 0.62675 0.52338 0.4411 0.0
C1113 C 0.64716 0.49637 0.38879 0.0
C1114 C 0.59626 0.12793 0.39912 0.0
C1115 C 0.61911 0.14314 0.37962 0.0
H1116 H 0.5506 0.11814 0.41507 0.0
C1117 C 0.61224 0.15943 0.36046 0.0
H1118 H 0.60076 0.11513 0.41416 0.0
C1119 C 0.58378 0.16119 0.36102 0.0
C1120 C 0.56119 0.14668 0.38072 0.0
H1121 H 0.62906 0.17128 0.34503 0.0
H1122 H 0.5797 0.17426 0.34594 0.0
C1123 C 0.56752 0.12965 0.39965 0.0
C1124 C 0.86771 0.45606 0.39044 0.0
C1125 C 0.87922 0.44394 0.40973 0.0
H1126 H 0.86668 0.49699 0.37452 0.0
C1127 C 0.90099 0.46597 0.42757 0.0
H1128 H 0.85121 0.43999 0.37618 0.0
C1129 C 0.90993 0.49915 0.42665 0.0
C1130 C 0.8973 0.51085 0.40783 0.0
H1131 H 0.9103 0.45745 0.44268 0.0
H1132 H 0.92612 0.51541 0.44097 0.0
C1133 C 0.87659 0.48893 0.38952 0.0
C1134 C 0.71318 0.21431 0.23437 0.0
C1135 C 0.71989 0.1911 0.22391 0.0
H1136 H 0.73168 0.26379 0.24542 0.0
C1137 C 0.75121 0.20173 0.21412 0.0
H1138 H 0.6892 0.20711 0.24174 0.0
C1139 C 0.77583 0.23451 0.21628 0.0
C1140 C 0.76953 0.25728 0.22818 0.0
H1141 H 0.75715 0.18449 0.20584 0.0
H1142 H 0.8001 0.24162 0.20965 0.0
C1143 C 0.73761 0.24694 0.23641 0.0
C1144 C 0.81227 0.56574 0.27558 0.0
C1145 C 0.8356 0.58126 0.2565 0.0
H1146 H 0.76598 0.55413 0.29047 0.0
C1147 C 0.82949 0.59847 0.23755 0.0
H1148 H 0.81611 0.55242 0.2906 0.0
C1149 C 0.80035 0.59946 0.23746 0.0
C1150 C 0.77678 0.58327 0.25633 0.0
H1151 H 0.84695 0.61074 0.22258 0.0
H1152 H 0.79612 0.61247 0.22243 0.0
C1153 C 0.78336 0.56674 0.2755 0.0
C1154 C 0.48371 0.2417 0.21547 0.0
C1155 C 0.51491 0.26595 0.22341 0.0
H1156 H 0.45178 0.19067 0.2081 0.0
C1157 C 0.53935 0.25764 0.22651 0.0
H1158 H 0.46436 0.24734 0.21284 0.0
C1159 C 0.53215 0.22542 0.2239 0.0
C1160 C 0.50035 0.20063 0.21801 0.0
H1161 H 0.5638 0.27577 0.2322 0.0
H1162 H 0.55127 0.21971 0.2276 0.0
C1163 C 0.47649 0.20924 0.21276 0.0
C1164 C 0.28395 0.836 0.76851 0.0
C1165 C 0.31012 0.84803 0.75139 0.0
H1166 H 0.23993 0.79403 0.7819 0.0
C1167 C 0.31062 0.82646 0.73359 0.0
H1168 H 0.28271 0.85201 0.78237 0.0
C1169 C 0.28632 0.79377 0.7332 0.0
C1170 C 0.2606 0.78126 0.75065 0.0
H1171 H 0.32998 0.83472 0.7198 0.0
H1172 H 0.28809 0.77819 0.71921 0.0
C1173 C 0.2594 0.80284 0.76818 0.0
C1174 C 0.27391 0.49301 0.69399 0.0
C1175 C 0.28141 0.47822 0.71395 0.0
H1176 H 0.23949 0.50418 0.67756 0.0
C1177 C 0.25781 0.46171 0.73274 0.0
H1178 H 0.29131 0.50576 0.67907 0.0
C1179 C 0.22776 0.4608 0.73187 0.0
C1180 C 0.22072 0.47639 0.7122 0.0
H1181 H 0.26274 0.45002 0.74837 0.0
H1182 H 0.21032 0.4484 0.74684 0.0
C1183 C 0.24405 0.4921 0.69313 0.0
C1184 C 0.51536 0.81167 0.74318 0.0
C1185 C 0.53874 0.80218 0.74754 0.0
H1186 H 0.50464 0.85043 0.74278 0.0
C1187 C 0.569 0.82496 0.75804 0.0
H1188 H 0.49161 0.79468 0.73551 0.0
C1189 C 0.57648 0.85723 0.76233 0.0
C1190 C 0.55386 0.86715 0.75609 0.0
H1191 H 0.5875 0.81838 0.76172 0.0
H1192 H 0.60056 0.87475 0.76916 0.0
C1193 C 0.52285 0.84372 0.74735 0.0
C1194 C 0.46837 0.60217 0.54169 0.0
C1195 C 0.46784 0.62485 0.5584 0.0
H1196 H 0.44542 0.55192 0.5302 0.0
C1197 C 0.44424 0.61321 0.57758 0.0
H1198 H 0.48626 0.6103 0.52674 0.0
C1199 C 0.42108 0.58017 0.57952 0.0
C1200 C 0.42066 0.5575 0.56237 0.0
H1201 H 0.44323 0.62974 0.59105 0.0
H1202 H 0.40315 0.57254 0.59442 0.0
C1203 C 0.44494 0.56875 0.54365 0.0
C1204 C 0.45453 0.90687 0.61417 0.0
C1205 C 0.44739 0.92177 0.59409 0.0
H1206 H 0.48852 0.89574 0.63123 0.0
C1207 C 0.47155 0.93885 0.57577 0.0
H1208 H 0.43682 0.89387 0.62886 0.0
C1209 C 0.50174 0.93993 0.57715 0.0
C1210 C 0.50823 0.92398 0.59688 0.0
H1211 H 0.46687 0.95068 0.56009 0.0
H1212 H 0.51961 0.95255 0.56249 0.0
C1213 C 0.48439 0.90797 0.61555 0.0
C1214 C 0.15706 0.57994 0.55203 0.0
C1215 C 0.18559 0.60323 0.56437 0.0
H1216 H 0.12722 0.52974 0.54125 0.0
C1217 C 0.20739 0.5936 0.57358 0.0
H1218 H 0.13974 0.58652 0.54469 0.0
C1219 C 0.2001 0.56126 0.57183 0.0
C1220 C 0.17092 0.53759 0.56063 0.0
H1221 H 0.22977 0.61083 0.58298 0.0
H1222 H 0.21717 0.5547 0.57977 0.0
C1223 C 0.14985 0.5474 0.5501 0.0
loop_
_geom_bond_atom_site_label_1
_geom_bond_atom_site_label_2
_geom_bond_distance
_geom_bond_site_symmetry_2
_ccdc_geom_bond_type
Mg0 O1 2.028 1_455 S
Mg0 O7 1.986 . S
Mg0 O9 2.114 . S
Mg0 O10 2.251 . S
Mg0 O13 2.010 . S
O1 Mg0 2.028 1_655 S
O1 C4 1.250 . S
O2 Mg3 2.028 1_655 S
O2 C4 1.248 . S
Mg3 O2 2.028 1_455 S
Mg3 O8 2.032 . S
Mg3 O10 2.079 . S
C4 O1 1.250 . S
C4 O2 1.248 . S
C5 O6 1.264 . S
C5 O13 1.249 . S
O6 C5 1.264 . S
O7 Mg0 1.986 . S
O7 C11 1.246 . S
O8 Mg3 2.032 . S
O8 C11 1.259 . S
O9 Mg0 2.114 . S
O9 C12 1.252 . S
O10 Mg0 2.251 . S
O10 Mg3 2.079 . S
O10 C12 1.273 . S
C11 O7 1.246 . S
C11 O8 1.259 . S
C12 O9 1.252 . S
C12 O10 1.273 . S
O13 Mg0 2.010 . S
O13 C5 1.249 . S
Mg14 O15 2.028 . S
Mg14 O21 1.986 . S
Mg14 O23 2.114 . S
Mg14 O24 2.251 . S
Mg14 O27 2.010 . S
O15 Mg14 2.028 . S
O15 C18 1.250 . S
O16 Mg17 2.028 . S
O16 C18 1.248 . S
Mg17 O16 2.028 . S
Mg17 O22 2.032 . S
Mg17 O24 2.079 . S
C18 O15 1.250 . S
C18 O16 1.248 . S
C19 O20 1.264 . S
C19 O27 1.249 . S
O20 C19 1.264 . S
O21 Mg14 1.986 . S
O21 C25 1.246 . S
O22 Mg17 2.032 . S
O22 C25 1.259 . S
O23 Mg14 2.114 . S
O23 C26 1.252 . S
O24 Mg14 2.251 . S
O24 Mg17 2.079 . S
O24 C26 1.273 . S
C25 O21 1.246 . S
C25 O22 1.259 . S
C26 O23 1.252 . S
C26 O24 1.273 . S
O27 Mg14 2.010 . S
O27 C19 1.249 . S
Mg28 O29 2.028 . S
Mg28 O35 1.986 1_545 S
Mg28 O37 2.114 . S
Mg28 O38 2.251 . S
Mg28 O41 2.010 . S
O29 Mg28 2.028 . S
O29 C32 1.250 . S
O30 Mg31 2.028 . S
O30 C32 1.248 . S
Mg31 O30 2.028 . S
Mg31 O36 2.032 1_545 S
Mg31 O38 2.079 . S
C32 O29 1.250 . S
C32 O30 1.248 . S
C33 O34 1.264 . S
C33 O41 1.249 . S
O34 C33 1.264 . S
O35 Mg28 1.986 1_565 S
O35 C39 1.246 . S
O36 Mg31 2.032 1_565 S
O36 C39 1.259 . S
O37 Mg28 2.114 . S
O37 C40 1.252 . S
O38 Mg28 2.251 . S
O38 Mg31 2.079 . S
O38 C40 1.273 . S
C39 O35 1.246 . S
C39 O36 1.259 . S
C40 O37 1.252 . S
C40 O38 1.273 . S
O41 Mg28 2.010 . S
O41 C33 1.249 . S
Mg42 O43 2.028 1_545 S
Mg42 O49 1.986 . S
Mg42 O51 2.114 . S
Mg42 O52 2.251 . S
Mg42 O55 2.010 . S
O43 Mg42 2.028 1_565 S
O43 C46 1.250 . S
O44 Mg45 2.028 1_565 S
O44 C46 1.248 . S
Mg45 O44 2.028 1_545 S
Mg45 O50 2.032 . S
Mg45 O52 2.079 . S
C46 O43 1.250 . S
C46 O44 1.248 . S
C47 O48 1.264 . S
C47 O55 1.249 . S
O48 C47 1.264 . S
O49 Mg42 1.986 . S
O49 C53 1.246 . S
O50 Mg45 2.032 . S
O50 C53 1.259 . S
O51 Mg42 2.114 . S
O51 C54 1.252 . S
O52 Mg42 2.251 . S
O52 Mg45 2.079 . S
O52 C54 1.273 . S
C53 O49 1.246 . S
C53 O50 1.259 . S
C54 O51 1.252 . S
C54 O52 1.273 . S
O55 Mg42 2.010 . S
O55 C47 1.249 . S
Mg56 O57 2.028 . S
Mg56 O63 1.986 1_455 S
Mg56 O65 2.114 . S
Mg56 O66 2.251 . S
Mg56 O69 2.010 . S
O57 Mg56 2.028 . S
O57 C60 1.250 . S
O58 Mg59 2.028 . S
O58 C60 1.248 . S
Mg59 O58 2.028 . S
Mg59 O64 2.032 1_455 S
Mg59 O66 2.079 . S
C60 O57 1.250 . S
C60 O58 1.248 . S
C61 O62 1.264 . S
C61 O69 1.249 . S
O62 C61 1.264 . S
O63 Mg56 1.986 1_655 S
O63 C67 1.246 . S
O64 Mg59 2.032 1_655 S
O64 C67 1.259 . S
O65 Mg56 2.114 . S
O65 C68 1.252 . S
O66 Mg56 2.251 . S
O66 Mg59 2.079 . S
O66 C68 1.273 . S
C67 O63 1.246 . S
C67 O64 1.259 . S
C68 O65 1.252 . S
C68 O66 1.273 . S
O69 Mg56 2.010 . S
O69 C61 1.249 . S
Mg70 O71 2.028 . S
Mg70 O77 1.986 . S
Mg70 O79 2.114 . S
Mg70 O80 2.251 . S
Mg70 O83 2.010 . S
O71 Mg70 2.028 . S
O71 C74 1.250 . S
O72 Mg73 2.028 . S
O72 C74 1.248 . S
Mg73 O72 2.028 . S
Mg73 O78 2.032 . S
Mg73 O80 2.079 . S
C74 O71 1.250 . S
C74 O72 1.248 . S
C75 O76 1.264 . S
C75 O83 1.249 . S
O76 C75 1.264 . S
O77 Mg70 1.986 . S
O77 C81 1.246 . S
O78 Mg73 2.032 . S
O78 C81 1.259 . S
O79 Mg70 2.114 . S
O79 C82 1.252 . S
O80 Mg70 2.251 . S
O80 Mg73 2.079 . S
O80 C82 1.273 . S
C81 O77 1.246 . S
C81 O78 1.259 . S
C82 O79 1.252 . S
C82 O80 1.273 . S
O83 Mg70 2.010 . S
O83 C75 1.249 . S
Mg84 O85 2.028 . S
Mg84 O91 1.986 1_455 S
Mg84 O93 2.114 . S
Mg84 O94 2.251 . S
Mg84 O97 2.010 . S
O85 Mg84 2.028 . S
O85 C88 1.250 . S
O86 Mg87 2.028 . S
O86 C88 1.248 . S
Mg87 O86 2.028 . S
Mg87 O92 2.032 1_455 S
Mg87 O94 2.079 . S
C88 O85 1.250 . S
C88 O86 1.248 . S
C89 O90 1.264 . S
C89 O97 1.249 . S
O90 C89 1.264 . S
O91 Mg84 1.986 1_655 S
O91 C95 1.246 . S
O92 Mg87 2.032 1_655 S
O92 C95 1.259 . S
O93 Mg84 2.114 . S
O93 C96 1.252 . S
O94 Mg84 2.251 . S
O94 Mg87 2.079 . S
O94 C96 1.273 . S
C95 O91 1.246 . S
C95 O92 1.259 . S
C96 O93 1.252 . S
C96 O94 1.273 . S
O97 Mg84 2.010 . S
O97 C89 1.249 . S
Mg98 O99 2.028 . S
Mg98 O105 1.986 . S
Mg98 O107 2.114 . S
Mg98 O108 2.251 . S
Mg98 O111 2.010 . S
O99 Mg98 2.028 . S
O99 C102 1.250 . S
O100 Mg101 2.028 . S
O100 C102 1.248 . S
Mg101 O100 2.028 . S
Mg101 O106 2.032 . S
Mg101 O108 2.079 . S
C102 O99 1.250 . S
C102 O100 1.248 . S
C103 O104 1.264 . S
C103 O111 1.249 . S
O104 C103 1.264 . S
O105 Mg98 1.986 . S
O105 C109 1.246 . S
O106 Mg101 2.032 . S
O106 C109 1.259 . S
O107 Mg98 2.114 . S
O107 C110 1.252 . S
O108 Mg98 2.251 . S
O108 Mg101 2.079 . S
O108 C110 1.273 . S
C109 O105 1.246 . S
C109 O106 1.259 . S
C110 O107 1.252 . S
C110 O108 1.273 . S
O111 Mg98 2.010 . S
O111 C103 1.249 . S
Mg112 O113 2.028 1_545 S
Mg112 O119 1.986 . S
Mg112 O121 2.114 . S
Mg112 O122 2.251 . S
Mg112 O125 2.010 . S
O113 Mg112 2.028 1_565 S
O113 C116 1.250 . S
O114 Mg115 2.028 1_565 S
O114 C116 1.248 . S
Mg115 O114 2.028 1_545 S
Mg115 O120 2.032 . S
Mg115 O122 2.079 . S
C116 O113 1.250 . S
C116 O114 1.248 . S
C117 O118 1.264 . S
C117 O125 1.249 . S
O118 C117 1.264 . S
O119 Mg112 1.986 . S
O119 C123 1.246 . S
O120 Mg115 2.032 . S
O120 C123 1.259 . S
O121 Mg112 2.114 . S
O121 C124 1.252 . S
O122 Mg112 2.251 . S
O122 Mg115 2.079 . S
O122 C124 1.273 . S
C123 O119 1.246 . S
C123 O120 1.259 . S
C124 O121 1.252 . S
C124 O122 1.273 . S
O125 Mg112 2.010 . S
O125 C117 1.249 . S
Mg126 O127 2.028 . S
Mg126 O133 1.986 1_545 S
Mg126 O135 2.114 . S
Mg126 O136 2.251 . S
Mg126 O139 2.010 . S
O127 Mg126 2.028 . S
O127 C130 1.250 . S
O128 Mg129 2.028 . S
O128 C130 1.248 . S
Mg129 O128 2.028 . S
Mg129 O134 2.032 1_545 S
Mg129 O136 2.079 . S
C130 O127 1.250 . S
C130 O128 1.248 . S
C131 O132 1.264 . S
C131 O139 1.249 . S
O132 C131 1.264 . S
O133 Mg126 1.986 1_565 S
O133 C137 1.246 . S
O134 Mg129 2.032 1_565 S
O134 C137 1.259 . S
O135 Mg126 2.114 . S
O135 C138 1.252 . S
O136 Mg126 2.251 . S
O136 Mg129 2.079 . S
O136 C138 1.273 . S
C137 O133 1.246 . S
C137 O134 1.259 . S
C138 O135 1.252 . S
C138 O136 1.273 . S
O139 Mg126 2.010 . S
O139 C131 1.249 . S
Mg140 O141 2.028 1_455 S
Mg140 O147 1.986 . S
Mg140 O149 2.114 . S
Mg140 O150 2.251 . S
Mg140 O153 2.010 . S
O141 Mg140 2.028 1_655 S
O141 C144 1.250 . S
O142 Mg143 2.028 1_655 S
O142 C144 1.248 . S
Mg143 O142 2.028 1_455 S
Mg143 O148 2.032 . S
Mg143 O150 2.079 . S
C144 O141 1.250 . S
C144 O142 1.248 . S
C145 O146 1.264 . S
C145 O153 1.249 . S
O146 C145 1.264 . S
O147 Mg140 1.986 . S
O147 C151 1.246 . S
O148 Mg143 2.032 . S
O148 C151 1.259 . S
O149 Mg140 2.114 . S
O149 C152 1.252 . S
O150 Mg140 2.251 . S
O150 Mg143 2.079 . S
O150 C152 1.273 . S
C151 O147 1.246 . S
C151 O148 1.259 . S
C152 O149 1.252 . S
C152 O150 1.273 . S
O153 Mg140 2.010 . S
O153 C145 1.249 . S
Mg154 O155 2.028 . S
Mg154 O161 1.986 . S
Mg154 O163 2.114 . S
Mg154 O164 2.251 . S
Mg154 O167 2.010 . S
O155 Mg154 2.028 . S
O155 C158 1.250 . S
O156 Mg157 2.028 . S
O156 C158 1.248 . S
Mg157 O156 2.028 . S
Mg157 O162 2.032 . S
Mg157 O164 2.079 . S
C158 O155 1.250 . S
C158 O156 1.248 . S
C159 O160 1.264 . S
C159 O167 1.249 . S
O160 C159 1.264 . S
O161 Mg154 1.986 . S
O161 C165 1.246 . S
O162 Mg157 2.032 . S
O162 C165 1.259 . S
O163 Mg154 2.114 . S
O163 C166 1.252 . S
O164 Mg154 2.251 . S
O164 Mg157 2.079 . S
O164 C166 1.273 . S
C165 O161 1.246 . S
C165 O162 1.259 . S
C166 O163 1.252 . S
C166 O164 1.273 . S
O167 Mg154 2.010 . S
O167 C159 1.249 . S
Mg168 O169 2.028 . S
Mg168 O175 1.986 . S
Mg168 O177 2.114 . S
Mg168 O178 2.251 . S
Mg168 O181 2.010 . S
O169 Mg168 2.028 . S
O169 C172 1.250 . S
O170 Mg171 2.028 . S
O170 C172 1.248 . S
Mg171 O170 2.028 . S
Mg171 O176 2.032 . S
Mg171 O178 2.079 . S
C172 O169 1.250 . S
C172 O170 1.248 . S
C173 O174 1.264 . S
C173 O181 1.249 . S
O174 C173 1.264 . S
O175 Mg168 1.986 . S
O175 C179 1.246 . S
O176 Mg171 2.032 . S
O176 C179 1.259 . S
O177 Mg168 2.114 . S
O177 C180 1.252 . S
O178 Mg168 2.251 . S
O178 Mg171 2.079 . S
O178 C180 1.273 . S
C179 O175 1.246 . S
C179 O176 1.259 . S
C180 O177 1.252 . S
C180 O178 1.273 . S
O181 Mg168 2.010 . S
O181 C173 1.249 . S
Mg182 O183 2.028 . S
Mg182 O189 1.986 . S
Mg182 O191 2.114 . S
Mg182 O192 2.251 . S
Mg182 O195 2.010 . S
O183 Mg182 2.028 . S
O183 C186 1.250 . S
O184 Mg185 2.028 . S
O184 C186 1.248 . S
Mg185 O184 2.028 . S
Mg185 O190 2.032 . S
Mg185 O192 2.079 . S
C186 O183 1.250 . S
C186 O184 1.248 . S
C187 O188 1.264 . S
C187 O195 1.249 . S
O188 C187 1.264 . S
O189 Mg182 1.986 . S
O189 C193 1.246 . S
O190 Mg185 2.032 . S
O190 C193 1.259 . S
O191 Mg182 2.114 . S
O191 C194 1.252 . S
O192 Mg182 2.251 . S
O192 Mg185 2.079 . S
O192 C194 1.273 . S
C193 O189 1.246 . S
C193 O190 1.259 . S
C194 O191 1.252 . S
C194 O192 1.273 . S
O195 Mg182 2.010 . S
O195 C187 1.249 . S
Mg196 O197 2.028 . S
Mg196 O203 1.986 . S
Mg196 O205 2.114 . S
Mg196 O206 2.251 . S
Mg196 O209 2.010 . S
O197 Mg196 2.028 . S
O197 C200 1.250 . S
O198 Mg199 2.028 . S
O198 C200 1.248 . S
Mg199 O198 2.028 . S
Mg199 O204 2.032 . S
Mg199 O206 2.079 . S
C200 O197 1.250 . S
C200 O198 1.248 . S
C201 O202 1.264 . S
C201 O209 1.249 . S
O202 C201 1.264 . S
O203 Mg196 1.986 . S
O203 C207 1.246 . S
O204 Mg199 2.032 . S
O204 C207 1.259 . S
O205 Mg196 2.114 . S
O205 C208 1.252 . S
O206 Mg196 2.251 . S
O206 Mg199 2.079 . S
O206 C208 1.273 . S
C207 O203 1.246 . S
C207 O204 1.259 . S
C208 O205 1.252 . S
C208 O206 1.273 . S
O209 Mg196 2.010 . S
O209 C201 1.249 . S
Mg210 O211 2.028 . S
Mg210 O217 1.986 . S
Mg210 O219 2.114 . S
Mg210 O220 2.251 . S
Mg210 O223 2.010 . S
O211 Mg210 2.028 . S
O211 C214 1.250 . S
O212 Mg213 2.028 . S
O212 C214 1.248 . S
Mg213 O212 2.028 . S
Mg213 O218 2.032 . S
Mg213 O220 2.079 . S
C214 O211 1.250 . S
C214 O212 1.248 . S
C215 O216 1.264 1_655 S
C215 O223 1.249 . S
O216 C215 1.264 1_455 S
O217 Mg210 1.986 . S
O217 C221 1.246 . S
O218 Mg213 2.032 . S
O218 C221 1.259 . S
O219 Mg210 2.114 . S
O219 C222 1.252 . S
O220 Mg210 2.251 . S
O220 Mg213 2.079 . S
O220 C222 1.273 . S
C221 O217 1.246 . S
C221 O218 1.259 . S
C222 O219 1.252 . S
C222 O220 1.273 . S
O223 Mg210 2.010 . S
O223 C215 1.249 . S
Mg224 O225 2.028 . S
Mg224 O231 1.986 . S
Mg224 O233 2.114 . S
Mg224 O234 2.251 . S
Mg224 O237 2.010 . S
O225 Mg224 2.028 . S
O225 C228 1.250 . S
O226 Mg227 2.028 . S
O226 C228 1.248 . S
Mg227 O226 2.028 . S
Mg227 O232 2.032 . S
Mg227 O234 2.079 . S
C228 O225 1.250 . S
C228 O226 1.248 . S
C229 O230 1.264 . S
C229 O237 1.249 . S
O230 C229 1.264 . S
O231 Mg224 1.986 . S
O231 C235 1.246 . S
O232 Mg227 2.032 . S
O232 C235 1.259 . S
O233 Mg224 2.114 . S
O233 C236 1.252 . S
O234 Mg224 2.251 . S
O234 Mg227 2.079 . S
O234 C236 1.273 . S
C235 O231 1.246 . S
C235 O232 1.259 . S
C236 O233 1.252 . S
C236 O234 1.273 . S
O237 Mg224 2.010 . S
O237 C229 1.249 . S
Mg238 O239 2.028 . S
Mg238 O245 1.986 . S
Mg238 O247 2.114 . S
Mg238 O248 2.251 . S
Mg238 O251 2.010 . S
O239 Mg238 2.028 . S
O239 C242 1.250 . S
O240 Mg241 2.028 . S
O240 C242 1.248 . S
Mg241 O240 2.028 . S
Mg241 O246 2.032 . S
Mg241 O248 2.079 . S
C242 O239 1.250 . S
C242 O240 1.248 . S
C243 O244 1.264 . S
C243 O251 1.249 . S
O244 C243 1.264 . S
O245 Mg238 1.986 . S
O245 C249 1.246 . S
O246 Mg241 2.032 . S
O246 C249 1.259 . S
O247 Mg238 2.114 . S
O247 C250 1.252 . S
O248 Mg238 2.251 . S
O248 Mg241 2.079 . S
O248 C250 1.273 . S
C249 O245 1.246 . S
C249 O246 1.259 . S
C250 O247 1.252 . S
C250 O248 1.273 . S
O251 Mg238 2.010 . S
O251 C243 1.249 . S
Mg252 O253 2.028 . S
Mg252 O259 1.986 . S
Mg252 O261 2.114 . S
Mg252 O262 2.251 . S
Mg252 O265 2.010 . S
O253 Mg252 2.028 . S
O253 C256 1.250 . S
O254 Mg255 2.028 . S
O254 C256 1.248 . S
Mg255 O254 2.028 . S
Mg255 O260 2.032 . S
Mg255 O262 2.079 . S
C256 O253 1.250 . S
C256 O254 1.248 . S
C257 O258 1.264 . S
C257 O265 1.249 . S
O258 C257 1.264 . S
O259 Mg252 1.986 . S
O259 C263 1.246 . S
O260 Mg255 2.032 . S
O260 C263 1.259 . S
O261 Mg252 2.114 . S
O261 C264 1.252 . S
O262 Mg252 2.251 . S
O262 Mg255 2.079 . S
O262 C264 1.273 . S
C263 O259 1.246 . S
C263 O260 1.259 . S
C264 O261 1.252 . S
C264 O262 1.273 . S
O265 Mg252 2.010 . S
O265 C257 1.249 . S
Mg266 O267 2.028 . S
Mg266 O273 1.986 . S
Mg266 O275 2.114 . S
Mg266 O276 2.251 . S
Mg266 O279 2.010 . S
O267 Mg266 2.028 . S
O267 C270 1.250 . S
O268 Mg269 2.028 . S
O268 C270 1.248 . S
Mg269 O268 2.028 . S
Mg269 O274 2.032 . S
Mg269 O276 2.079 . S
C270 O267 1.250 . S
C270 O268 1.248 . S
C271 O272 1.264 1_655 S
C271 O279 1.249 . S
O272 C271 1.264 1_455 S
O273 Mg266 1.986 . S
O273 C277 1.246 . S
O274 Mg269 2.032 . S
O274 C277 1.259 . S
O275 Mg266 2.114 . S
O275 C278 1.252 . S
O276 Mg266 2.251 . S
O276 Mg269 2.079 . S
O276 C278 1.273 . S
C277 O273 1.246 . S
C277 O274 1.259 . S
C278 O275 1.252 . S
C278 O276 1.273 . S
O279 Mg266 2.010 . S
O279 C271 1.249 . S
Mg280 O281 2.028 . S
Mg280 O287 1.986 . S
Mg280 O289 2.114 . S
Mg280 O290 2.251 . S
Mg280 O293 2.010 . S
O281 Mg280 2.028 . S
O281 C284 1.250 . S
O282 Mg283 2.028 . S
O282 C284 1.248 . S
Mg283 O282 2.028 . S
Mg283 O288 2.032 . S
Mg283 O290 2.079 . S
C284 O281 1.250 . S
C284 O282 1.248 . S
C285 O286 1.264 . S
C285 O293 1.249 . S
O286 C285 1.264 . S
O287 Mg280 1.986 . S
O287 C291 1.246 . S
O288 Mg283 2.032 . S
O288 C291 1.259 . S
O289 Mg280 2.114 . S
O289 C292 1.252 . S
O290 Mg280 2.251 . S
O290 Mg283 2.079 . S
O290 C292 1.273 . S
C291 O287 1.246 . S
C291 O288 1.259 . S
C292 O289 1.252 . S
C292 O290 1.273 . S
O293 Mg280 2.010 . S
O293 C285 1.249 . S
Mg294 O295 2.028 . S
Mg294 O301 1.986 . S
Mg294 O303 2.114 . S
Mg294 O304 2.251 . S
Mg294 O307 2.010 . S
O295 Mg294 2.028 . S
O295 C298 1.250 . S
O296 Mg297 2.028 . S
O296 C298 1.248 . S
Mg297 O296 2.028 . S
Mg297 O302 2.032 . S
Mg297 O304 2.079 . S
C298 O295 1.250 . S
C298 O296 1.248 . S
C299 O300 1.264 . S
C299 O307 1.249 . S
O300 C299 1.264 . S
O301 Mg294 1.986 . S
O301 C305 1.246 . S
O302 Mg297 2.032 . S
O302 C305 1.259 . S
O303 Mg294 2.114 . S
O303 C306 1.252 . S
O304 Mg294 2.251 . S
O304 Mg297 2.079 . S
O304 C306 1.273 . S
C305 O301 1.246 . S
C305 O302 1.259 . S
C306 O303 1.252 . S
C306 O304 1.273 . S
O307 Mg294 2.010 . S
O307 C299 1.249 . S
Mg308 O309 2.028 . S
Mg308 O315 1.986 . S
Mg308 O317 2.114 . S
Mg308 O318 2.251 . S
Mg308 O321 2.010 . S
O309 Mg308 2.028 . S
O309 C312 1.250 . S
O310 Mg311 2.028 . S
O310 C312 1.248 . S
Mg311 O310 2.028 . S
Mg311 O316 2.032 . S
Mg311 O318 2.079 . S
C312 O309 1.250 . S
C312 O310 1.248 . S
C313 O314 1.264 . S
C313 O321 1.249 . S
O314 C313 1.264 . S
O315 Mg308 1.986 . S
O315 C319 1.246 . S
O316 Mg311 2.032 . S
O316 C319 1.259 . S
O317 Mg308 2.114 . S
O317 C320 1.252 . S
O318 Mg308 2.251 . S
O318 Mg311 2.079 . S
O318 C320 1.273 . S
C319 O315 1.246 . S
C319 O316 1.259 . S
C320 O317 1.252 . S
C320 O318 1.273 . S
O321 Mg308 2.010 . S
O321 C313 1.249 . S
Mg322 O323 2.028 . S
Mg322 O329 1.986 . S
Mg322 O331 2.114 . S
Mg322 O332 2.251 . S
Mg322 O335 2.010 . S
O323 Mg322 2.028 . S
O323 C326 1.250 . S
O324 Mg325 2.028 . S
O324 C326 1.248 . S
Mg325 O324 2.028 . S
Mg325 O330 2.032 . S
Mg325 O332 2.079 . S
C326 O323 1.250 . S
C326 O324 1.248 . S
C327 O328 1.264 . S
C327 O335 1.249 . S
O328 C327 1.264 . S
O329 Mg322 1.986 . S
O329 C333 1.246 . S
O330 Mg325 2.032 . S
O330 C333 1.259 . S
O331 Mg322 2.114 . S
O331 C334 1.252 . S
O332 Mg322 2.251 . S
O332 Mg325 2.079 . S
O332 C334 1.273 . S
C333 O329 1.246 . S
C333 O330 1.259 . S
C334 O331 1.252 . S
C334 O332 1.273 . S
O335 Mg322 2.010 . S
O335 C327 1.249 . S
Mg336 O337 2.028 . S
Mg336 O343 1.986 . S
Mg336 O345 2.114 . S
Mg336 O346 2.251 . S
Mg336 O349 2.010 . S
O337 Mg336 2.028 . S
O337 C340 1.250 . S
O338 Mg339 2.028 . S
O338 C340 1.248 . S
Mg339 O338 2.028 . S
Mg339 O344 2.032 . S
Mg339 O346 2.079 . S
C340 O337 1.250 . S
C340 O338 1.248 . S
C341 O342 1.264 1_565 S
C341 O349 1.249 . S
O342 C341 1.264 1_545 S
O343 Mg336 1.986 . S
O343 C347 1.246 . S
O344 Mg339 2.032 . S
O344 C347 1.259 . S
O345 Mg336 2.114 . S
O345 C348 1.252 . S
O346 Mg336 2.251 . S
O346 Mg339 2.079 . S
O346 C348 1.273 . S
C347 O343 1.246 . S
C347 O344 1.259 . S
C348 O345 1.252 . S
C348 O346 1.273 . S
O349 Mg336 2.010 . S
O349 C341 1.249 . S
Mg350 O351 2.028 . S
Mg350 O357 1.986 . S
Mg350 O359 2.114 . S
Mg350 O360 2.251 . S
Mg350 O363 2.010 . S
O351 Mg350 2.028 . S
O351 C354 1.250 . S
O352 Mg353 2.028 . S
O352 C354 1.248 . S
Mg353 O352 2.028 . S
Mg353 O358 2.032 . S
Mg353 O360 2.079 . S
C354 O351 1.250 . S
C354 O352 1.248 . S
C355 O356 1.264 . S
C355 O363 1.249 . S
O356 C355 1.264 . S
O357 Mg350 1.986 . S
O357 C361 1.246 . S
O358 Mg353 2.032 . S
O358 C361 1.259 . S
O359 Mg350 2.114 . S
O359 C362 1.252 . S
O360 Mg350 2.251 . S
O360 Mg353 2.079 . S
O360 C362 1.273 . S
C361 O357 1.246 . S
C361 O358 1.259 . S
C362 O359 1.252 . S
C362 O360 1.273 . S
O363 Mg350 2.010 . S
O363 C355 1.249 . S
Mg364 O365 2.028 . S
Mg364 O371 1.986 . S
Mg364 O373 2.114 . S
Mg364 O374 2.251 . S
Mg364 O377 2.010 . S
O365 Mg364 2.028 . S
O365 C368 1.250 . S
O366 Mg367 2.028 . S
O366 C368 1.248 . S
Mg367 O366 2.028 . S
Mg367 O372 2.032 . S
Mg367 O374 2.079 . S
C368 O365 1.250 . S
C368 O366 1.248 . S
C369 O370 1.264 . S
C369 O377 1.249 . S
O370 C369 1.264 . S
O371 Mg364 1.986 . S
O371 C375 1.246 . S
O372 Mg367 2.032 . S
O372 C375 1.259 . S
O373 Mg364 2.114 . S
O373 C376 1.252 . S
O374 Mg364 2.251 . S
O374 Mg367 2.079 . S
O374 C376 1.273 . S
C375 O371 1.246 . S
C375 O372 1.259 . S
C376 O373 1.252 . S
C376 O374 1.273 . S
O377 Mg364 2.010 . S
O377 C369 1.249 . S
Mg378 O379 2.028 . S
Mg378 O385 1.986 . S
Mg378 O387 2.114 . S
Mg378 O388 2.251 . S
Mg378 O391 2.010 . S
O379 Mg378 2.028 . S
O379 C382 1.250 . S
O380 Mg381 2.028 . S
O380 C382 1.248 . S
Mg381 O380 2.028 . S
Mg381 O386 2.032 . S
Mg381 O388 2.079 . S
C382 O379 1.250 . S
C382 O380 1.248 . S
C383 O384 1.264 . S
C383 O391 1.249 . S
O384 C383 1.264 . S
O385 Mg378 1.986 . S
O385 C389 1.246 . S
O386 Mg381 2.032 . S
O386 C389 1.259 . S
O387 Mg378 2.114 . S
O387 C390 1.252 . S
O388 Mg378 2.251 . S
O388 Mg381 2.079 . S
O388 C390 1.273 . S
C389 O385 1.246 . S
C389 O386 1.259 . S
C390 O387 1.252 . S
C390 O388 1.273 . S
O391 Mg378 2.010 . S
O391 C383 1.249 . S
Mg392 O393 2.028 . S
Mg392 O399 1.986 . S
Mg392 O401 2.114 . S
Mg392 O402 2.251 . S
Mg392 O405 2.010 . S
O393 Mg392 2.028 . S
O393 C396 1.250 . S
O394 Mg395 2.028 . S
O394 C396 1.248 . S
Mg395 O394 2.028 . S
Mg395 O400 2.032 . S
Mg395 O402 2.079 . S
C396 O393 1.250 . S
C396 O394 1.248 . S
C397 O398 1.264 . S
C397 O405 1.249 . S
O398 C397 1.264 . S
O399 Mg392 1.986 . S
O399 C403 1.246 . S
O400 Mg395 2.032 . S
O400 C403 1.259 . S
O401 Mg392 2.114 . S
O401 C404 1.252 . S
O402 Mg392 2.251 . S
O402 Mg395 2.079 . S
O402 C404 1.273 . S
C403 O399 1.246 . S
C403 O400 1.259 . S
C404 O401 1.252 . S
C404 O402 1.273 . S
O405 Mg392 2.010 . S
O405 C397 1.249 . S
Mg406 O407 2.028 . S
Mg406 O413 1.986 . S
Mg406 O415 2.114 . S
Mg406 O416 2.251 . S
Mg406 O419 2.010 . S
O407 Mg406 2.028 . S
O407 C410 1.250 . S
O408 Mg409 2.028 . S
O408 C410 1.248 . S
Mg409 O408 2.028 . S
Mg409 O414 2.032 . S
Mg409 O416 2.079 . S
C410 O407 1.250 . S
C410 O408 1.248 . S
C411 O412 1.264 . S
C411 O419 1.249 . S
O412 C411 1.264 . S
O413 Mg406 1.986 . S
O413 C417 1.246 . S
O414 Mg409 2.032 . S
O414 C417 1.259 . S
O415 Mg406 2.114 . S
O415 C418 1.252 . S
O416 Mg406 2.251 . S
O416 Mg409 2.079 . S
O416 C418 1.273 . S
C417 O413 1.246 . S
C417 O414 1.259 . S
C418 O415 1.252 . S
C418 O416 1.273 . S
O419 Mg406 2.010 . S
O419 C411 1.249 . S
Mg420 O421 2.028 . S
Mg420 O427 1.986 . S
Mg420 O429 2.114 . S
Mg420 O430 2.251 . S
Mg420 O433 2.010 . S
O421 Mg420 2.028 . S
O421 C424 1.250 . S
O422 Mg423 2.028 . S
O422 C424 1.248 . S
Mg423 O422 2.028 . S
Mg423 O428 2.032 . S
Mg423 O430 2.079 . S
C424 O421 1.250 . S
C424 O422 1.248 . S
C425 O426 1.264 . S
C425 O433 1.249 . S
O426 C425 1.264 . S
O427 Mg420 1.986 . S
O427 C431 1.246 . S
O428 Mg423 2.032 . S
O428 C431 1.259 . S
O429 Mg420 2.114 . S
O429 C432 1.252 . S
O430 Mg420 2.251 . S
O430 Mg423 2.079 . S
O430 C432 1.273 . S
C431 O427 1.246 . S
C431 O428 1.259 . S
C432 O429 1.252 . S
C432 O430 1.273 . S
O433 Mg420 2.010 . S
O433 C425 1.249 . S
Mg434 O435 2.028 . S
Mg434 O441 1.986 . S
Mg434 O443 2.114 . S
Mg434 O444 2.251 . S
Mg434 O447 2.010 . S
O435 Mg434 2.028 . S
O435 C438 1.250 . S
O436 Mg437 2.028 . S
O436 C438 1.248 . S
Mg437 O436 2.028 . S
Mg437 O442 2.032 . S
Mg437 O444 2.079 . S
C438 O435 1.250 . S
C438 O436 1.248 . S
C439 O440 1.264 . S
C439 O447 1.249 . S
O440 C439 1.264 . S
O441 Mg434 1.986 . S
O441 C445 1.246 . S
O442 Mg437 2.032 . S
O442 C445 1.259 . S
O443 Mg434 2.114 . S
O443 C446 1.252 . S
O444 Mg434 2.251 . S
O444 Mg437 2.079 . S
O444 C446 1.273 . S
C445 O441 1.246 . S
C445 O442 1.259 . S
C446 O443 1.252 . S
C446 O444 1.273 . S
O447 Mg434 2.010 . S
O447 C439 1.249 . S
Mg448 O449 2.028 . S
Mg448 O455 1.986 . S
Mg448 O457 2.114 . S
Mg448 O458 2.251 . S
Mg448 O461 2.010 . S
O449 Mg448 2.028 . S
O449 C452 1.250 . S
O450 Mg451 2.028 . S
O450 C452 1.248 . S
Mg451 O450 2.028 . S
Mg451 O456 2.032 . S
Mg451 O458 2.079 . S
C452 O449 1.250 . S
C452 O450 1.248 . S
C453 O454 1.264 . S
C453 O461 1.249 . S
O454 C453 1.264 . S
O455 Mg448 1.986 . S
O455 C459 1.246 . S
O456 Mg451 2.032 . S
O456 C459 1.259 . S
O457 Mg448 2.114 . S
O457 C460 1.252 . S
O458 Mg448 2.251 . S
O458 Mg451 2.079 . S
O458 C460 1.273 . S
C459 O455 1.246 . S
C459 O456 1.259 . S
C460 O457 1.252 . S
C460 O458 1.273 . S
O461 Mg448 2.010 . S
O461 C453 1.249 . S
Mg462 O463 2.028 . S
Mg462 O469 1.986 . S
Mg462 O471 2.114 . S
Mg462 O472 2.251 . S
Mg462 O475 2.010 . S
O463 Mg462 2.028 . S
O463 C466 1.250 . S
O464 Mg465 2.028 . S
O464 C466 1.248 . S
Mg465 O464 2.028 . S
Mg465 O470 2.032 . S
Mg465 O472 2.079 . S
C466 O463 1.250 . S
C466 O464 1.248 . S
C467 O468 1.264 . S
C467 O475 1.249 . S
O468 C467 1.264 . S
O469 Mg462 1.986 . S
O469 C473 1.246 . S
O470 Mg465 2.032 . S
O470 C473 1.259 . S
O471 Mg462 2.114 . S
O471 C474 1.252 . S
O472 Mg462 2.251 . S
O472 Mg465 2.079 . S
O472 C474 1.273 . S
C473 O469 1.246 . S
C473 O470 1.259 . S
C474 O471 1.252 . S
C474 O472 1.273 . S
O475 Mg462 2.010 . S
O475 C467 1.249 . S
Mg476 O477 2.028 . S
Mg476 O483 1.986 . S
Mg476 O485 2.114 . S
Mg476 O486 2.251 . S
Mg476 O489 2.010 . S
O477 Mg476 2.028 . S
O477 C480 1.250 . S
O478 Mg479 2.028 . S
O478 C480 1.248 . S
Mg479 O478 2.028 . S
Mg479 O484 2.032 . S
Mg479 O486 2.079 . S
C480 O477 1.250 . S
C480 O478 1.248 . S
C481 O482 1.264 . S
C481 O489 1.249 . S
O482 C481 1.264 . S
O483 Mg476 1.986 . S
O483 C487 1.246 . S
O484 Mg479 2.032 . S
O484 C487 1.259 . S
O485 Mg476 2.114 . S
O485 C488 1.252 . S
O486 Mg476 2.251 . S
O486 Mg479 2.079 . S
O486 C488 1.273 . S
C487 O483 1.246 . S
C487 O484 1.259 . S
C488 O485 1.252 . S
C488 O486 1.273 . S
O489 Mg476 2.010 . S
O489 C481 1.249 . S
Mg490 O491 2.028 . S
Mg490 O497 1.986 . S
Mg490 O499 2.114 . S
Mg490 O500 2.251 . S
Mg490 O503 2.010 . S
O491 Mg490 2.028 . S
O491 C494 1.250 . S
O492 Mg493 2.028 . S
O492 C494 1.248 . S
Mg493 O492 2.028 . S
Mg493 O498 2.032 . S
Mg493 O500 2.079 . S
C494 O491 1.250 . S
C494 O492 1.248 . S
C495 O496 1.264 1_565 S
C495 O503 1.249 . S
O496 C495 1.264 1_545 S
O497 Mg490 1.986 . S
O497 C501 1.246 . S
O498 Mg493 2.032 . S
O498 C501 1.259 . S
O499 Mg490 2.114 . S
O499 C502 1.252 . S
O500 Mg490 2.251 . S
O500 Mg493 2.079 . S
O500 C502 1.273 . S
C501 O497 1.246 . S
C501 O498 1.259 . S
C502 O499 1.252 . S
C502 O500 1.273 . S
O503 Mg490 2.010 . S
O503 C495 1.249 . S
C504 C505 1.387 . S
C504 H508 0.950 . S
C504 C513 1.390 . S
C505 C504 1.387 . S
C505 C507 1.387 . S
H506 C513 0.950 . S
C507 C505 1.387 . S
C507 C509 1.390 . S
C507 H511 0.950 . S
H508 C504 0.950 . S
C509 C507 1.390 . S
C509 C510 1.387 . S
C509 H512 0.950 . S
C510 C509 1.387 . S
C510 C513 1.387 . S
H511 C507 0.950 . S
H512 C509 0.950 . S
C513 C504 1.390 . S
C513 H506 0.950 . S
C513 C510 1.387 . S
C514 C515 1.387 . S
C514 H518 0.950 . S
C514 C523 1.390 . S
C515 C514 1.387 . S
C515 C517 1.387 . S
H516 C523 0.950 . S
C517 C515 1.387 . S
C517 C519 1.390 . S
C517 H521 0.950 . S
H518 C514 0.950 . S
C519 C517 1.390 . S
C519 C520 1.387 . S
C519 H522 0.950 . S
C520 C519 1.387 . S
C520 C523 1.387 . S
H521 C517 0.950 . S
H522 C519 0.950 . S
C523 C514 1.390 . S
C523 H516 0.950 . S
C523 C520 1.387 . S
C524 C525 1.387 . S
C524 H528 0.950 . S
C524 C533 1.390 . S
C525 C524 1.387 . S
C525 C527 1.387 . S
H526 C533 0.950 . S
C527 C525 1.387 . S
C527 C529 1.390 . S
C527 H531 0.950 . S
H528 C524 0.950 . S
C529 C527 1.390 . S
C529 C530 1.387 . S
C529 H532 0.950 . S
C530 C529 1.387 . S
C530 C533 1.387 . S
H531 C527 0.950 . S
H532 C529 0.950 . S
C533 C524 1.390 . S
C533 H526 0.950 . S
C533 C530 1.387 . S
C534 C535 1.387 . S
C534 H538 0.950 . S
C534 C543 1.390 . S
C535 C534 1.387 . S
C535 C537 1.387 . S
H536 C543 0.950 . S
C537 C535 1.387 . S
C537 C539 1.390 . S
C537 H541 0.950 . S
H538 C534 0.950 . S
C539 C537 1.390 . S
C539 C540 1.387 . S
C539 H542 0.950 . S
C540 C539 1.387 . S
C540 C543 1.387 . S
H541 C537 0.950 . S
H542 C539 0.950 . S
C543 C534 1.390 . S
C543 H536 0.950 . S
C543 C540 1.387 . S
C544 C545 1.387 . S
C544 H548 0.950 . S
C544 C553 1.390 . S
C545 C544 1.387 . S
C545 C547 1.387 . S
H546 C553 0.950 . S
C547 C545 1.387 . S
C547 C549 1.390 . S
C547 H551 0.950 . S
H548 C544 0.950 . S
C549 C547 1.390 . S
C549 C550 1.387 . S
C549 H552 0.950 . S
C550 C549 1.387 . S
C550 C553 1.387 . S
H551 C547 0.950 . S
H552 C549 0.950 . S
C553 C544 1.390 . S
C553 H546 0.950 . S
C553 C550 1.387 . S
C554 C555 1.387 . S
C554 H558 0.950 . S
C554 C563 1.390 . S
C555 C554 1.387 . S
C555 C557 1.387 . S
H556 C563 0.950 . S
C557 C555 1.387 . S
C557 C559 1.390 . S
C557 H561 0.950 . S
H558 C554 0.950 . S
C559 C557 1.390 . S
C559 C560 1.387 . S
C559 H562 0.950 . S
C560 C559 1.387 . S
C560 C563 1.387 . S
H561 C557 0.950 . S
H562 C559 0.950 . S
C563 C554 1.390 . S
C563 H556 0.950 . S
C563 C560 1.387 . S
C564 C565 1.387 . S
C564 H568 0.950 . S
C564 C573 1.390 . S
C565 C564 1.387 . S
C565 C567 1.387 . S
H566 C573 0.950 . S
C567 C565 1.387 . S
C567 C569 1.390 . S
C567 H571 0.950 . S
H568 C564 0.950 . S
C569 C567 1.390 . S
C569 C570 1.387 . S
C569 H572 0.950 . S
C570 C569 1.387 . S
C570 C573 1.387 . S
H571 C567 0.950 . S
H572 C569 0.950 . S
C573 C564 1.390 . S
C573 H566 0.950 . S
C573 C570 1.387 . S
C574 C575 1.387 . S
C574 H578 0.950 . S
C574 C583 1.390 . S
C575 C574 1.387 . S
C575 C577 1.387 . S
H576 C583 0.950 . S
C577 C575 1.387 . S
C577 C579 1.390 . S
C577 H581 0.950 . S
H578 C574 0.950 . S
C579 C577 1.390 . S
C579 C580 1.387 . S
C579 H582 0.950 . S
C580 C579 1.387 . S
C580 C583 1.387 . S
H581 C577 0.950 . S
H582 C579 0.950 . S
C583 C574 1.390 . S
C583 H576 0.950 . S
C583 C580 1.387 . S
C584 C585 1.387 . S
C584 H588 0.950 . S
C584 C593 1.390 . S
C585 C584 1.387 . S
C585 C587 1.387 . S
H586 C593 0.950 . S
C587 C585 1.387 . S
C587 C589 1.390 . S
C587 H591 0.950 . S
H588 C584 0.950 . S
C589 C587 1.390 . S
C589 C590 1.387 . S
C589 H592 0.950 . S
C590 C589 1.387 . S
C590 C593 1.387 . S
H591 C587 0.950 . S
H592 C589 0.950 . S
C593 C584 1.390 . S
C593 H586 0.950 . S
C593 C590 1.387 . S
C594 C595 1.387 . S
C594 H598 0.950 . S
C594 C603 1.390 . S
C595 C594 1.387 . S
C595 C597 1.387 . S
H596 C603 0.950 . S
C597 C595 1.387 . S
C597 C599 1.390 . S
C597 H601 0.950 . S
H598 C594 0.950 . S
C599 C597 1.390 . S
C599 C600 1.387 . S
C599 H602 0.950 . S
C600 C599 1.387 . S
C600 C603 1.387 . S
H601 C597 0.950 . S
H602 C599 0.950 . S
C603 C594 1.390 . S
C603 H596 0.950 . S
C603 C600 1.387 . S
C604 C605 1.387 . S
C604 H608 0.950 . S
C604 C613 1.390 . S
C605 C604 1.387 . S
C605 C607 1.387 . S
H606 C613 0.950 . S
C607 C605 1.387 . S
C607 C609 1.390 . S
C607 H611 0.950 . S
H608 C604 0.950 . S
C609 C607 1.390 . S
C609 C610 1.387 . S
C609 H612 0.950 . S
C610 C609 1.387 . S
C610 C613 1.387 . S
H611 C607 0.950 . S
H612 C609 0.950 . S
C613 C604 1.390 . S
C613 H606 0.950 . S
C613 C610 1.387 . S
C614 C615 1.387 . S
C614 H618 0.950 . S
C614 C623 1.390 . S
C615 C614 1.387 . S
C615 C617 1.387 . S
H616 C623 0.950 . S
C617 C615 1.387 . S
C617 C619 1.390 . S
C617 H621 0.950 . S
H618 C614 0.950 . S
C619 C617 1.390 . S
C619 C620 1.387 . S
C619 H622 0.950 . S
C620 C619 1.387 . S
C620 C623 1.387 . S
H621 C617 0.950 . S
H622 C619 0.950 . S
C623 C614 1.390 . S
C623 H616 0.950 . S
C623 C620 1.387 . S
C624 C625 1.387 . S
C624 H628 0.950 . S
C624 C633 1.390 . S
C625 C624 1.387 . S
C625 C627 1.387 . S
H626 C633 0.950 . S
C627 C625 1.387 . S
C627 C629 1.390 . S
C627 H631 0.950 . S
H628 C624 0.950 . S
C629 C627 1.390 . S
C629 C630 1.387 . S
C629 H632 0.950 . S
C630 C629 1.387 . S
C630 C633 1.387 . S
H631 C627 0.950 . S
H632 C629 0.950 . S
C633 C624 1.390 . S
C633 H626 0.950 . S
C633 C630 1.387 . S
C634 C635 1.387 . S
C634 H638 0.950 . S
C634 C643 1.390 . S
C635 C634 1.387 . S
C635 C637 1.387 . S
H636 C643 0.950 . S
C637 C635 1.387 . S
C637 C639 1.390 . S
C637 H641 0.950 . S
H638 C634 0.950 . S
C639 C637 1.390 . S
C639 C640 1.387 . S
C639 H642 0.950 . S
C640 C639 1.387 . S
C640 C643 1.387 . S
H641 C637 0.950 . S
H642 C639 0.950 . S
C643 C634 1.390 . S
C643 H636 0.950 . S
C643 C640 1.387 . S
C644 C645 1.387 . S
C644 H648 0.950 . S
C644 C653 1.390 . S
C645 C644 1.387 . S
C645 C647 1.387 . S
H646 C653 0.950 . S
C647 C645 1.387 . S
C647 C649 1.390 . S
C647 H651 0.950 . S
H648 C644 0.950 . S
C649 C647 1.390 . S
C649 C650 1.387 . S
C649 H652 0.950 . S
C650 C649 1.387 . S
C650 C653 1.387 . S
H651 C647 0.950 . S
H652 C649 0.950 . S
C653 C644 1.390 . S
C653 H646 0.950 . S
C653 C650 1.387 . S
C654 C655 1.387 . S
C654 H658 0.950 . S
C654 C663 1.390 . S
C655 C654 1.387 . S
C655 C657 1.387 . S
H656 C663 0.950 . S
C657 C655 1.387 . S
C657 C659 1.390 . S
C657 H661 0.950 . S
H658 C654 0.950 . S
C659 C657 1.390 . S
C659 C660 1.387 . S
C659 H662 0.950 . S
C660 C659 1.387 . S
C660 C663 1.387 . S
H661 C657 0.950 . S
H662 C659 0.950 . S
C663 C654 1.390 . S
C663 H656 0.950 . S
C663 C660 1.387 . S
C664 C665 1.387 . S
C664 H668 0.950 . S
C664 C673 1.390 . S
C665 C664 1.387 . S
C665 C667 1.387 . S
H666 C673 0.950 . S
C667 C665 1.387 . S
C667 C669 1.390 . S
C667 H671 0.950 . S
H668 C664 0.950 . S
C669 C667 1.390 . S
C669 C670 1.387 . S
C669 H672 0.950 . S
C670 C669 1.387 . S
C670 C673 1.387 . S
H671 C667 0.950 . S
H672 C669 0.950 . S
C673 C664 1.390 . S
C673 H666 0.950 . S
C673 C670 1.387 . S
C674 C675 1.387 . S
C674 H678 0.950 . S
C674 C683 1.390 . S
C675 C674 1.387 . S
C675 C677 1.387 . S
H676 C683 0.950 . S
C677 C675 1.387 . S
C677 C679 1.390 . S
C677 H681 0.950 . S
H678 C674 0.950 . S
C679 C677 1.390 . S
C679 C680 1.387 . S
C679 H682 0.950 . S
C680 C679 1.387 . S
C680 C683 1.387 . S
H681 C677 0.950 . S
H682 C679 0.950 . S
C683 C674 1.390 . S
C683 H676 0.950 . S
C683 C680 1.387 . S
C684 C685 1.387 . S
C684 H688 0.950 1_655 S
C684 C693 1.390 . S
C685 C684 1.387 . S
C685 C687 1.387 . S
H686 C693 0.950 . S
C687 C685 1.387 . S
C687 C689 1.390 . S
C687 H691 0.950 . S
H688 C684 0.950 1_455 S
C689 C687 1.390 . S
C689 C690 1.387 . S
C689 H692 0.950 . S
C690 C689 1.387 . S
C690 C693 1.387 . S
H691 C687 0.950 . S
H692 C689 0.950 . S
C693 C684 1.390 . S
C693 H686 0.950 . S
C693 C690 1.387 . S
C694 C695 1.387 . S
C694 H698 0.950 . S
C694 C703 1.390 . S
C695 C694 1.387 . S
C695 C697 1.387 . S
H696 C703 0.950 . S
C697 C695 1.387 . S
C697 C699 1.390 . S
C697 H701 0.950 . S
H698 C694 0.950 . S
C699 C697 1.390 . S
C699 C700 1.387 . S
C699 H702 0.950 . S
C700 C699 1.387 . S
C700 C703 1.387 . S
H701 C697 0.950 . S
H702 C699 0.950 . S
C703 C694 1.390 . S
C703 H696 0.950 . S
C703 C700 1.387 . S
C704 C705 1.387 . S
C704 H708 0.950 . S
C704 C713 1.390 . S
C705 C704 1.387 . S
C705 C707 1.387 . S
H706 C713 0.950 . S
C707 C705 1.387 . S
C707 C709 1.390 . S
C707 H711 0.950 . S
H708 C704 0.950 . S
C709 C707 1.390 . S
C709 C710 1.387 . S
C709 H712 0.950 . S
C710 C709 1.387 . S
C710 C713 1.387 . S
H711 C707 0.950 . S
H712 C709 0.950 . S
C713 C704 1.390 . S
C713 H706 0.950 . S
C713 C710 1.387 . S
C714 C715 1.387 . S
C714 H718 0.950 . S
C714 C723 1.390 . S
C715 C714 1.387 . S
C715 C717 1.387 1_565 S
H716 C723 0.950 . S
C717 C715 1.387 1_545 S
C717 C719 1.390 . S
C717 H721 0.950 . S
H718 C714 0.950 . S
C719 C717 1.390 . S
C719 C720 1.387 1_545 S
C719 H722 0.950 . S
C720 C719 1.387 1_565 S
C720 C723 1.387 . S
H721 C717 0.950 . S
H722 C719 0.950 . S
C723 C714 1.390 . S
C723 H716 0.950 . S
C723 C720 1.387 . S
C724 C725 1.387 . S
C724 H728 0.950 . S
C724 C733 1.390 . S
C725 C724 1.387 . S
C725 C727 1.387 . S
H726 C733 0.950 . S
C727 C725 1.387 . S
C727 C729 1.390 . S
C727 H731 0.950 . S
H728 C724 0.950 . S
C729 C727 1.390 . S
C729 C730 1.387 . S
C729 H732 0.950 . S
C730 C729 1.387 . S
C730 C733 1.387 . S
H731 C727 0.950 . S
H732 C729 0.950 . S
C733 C724 1.390 . S
C733 H726 0.950 . S
C733 C730 1.387 . S
C734 C735 1.387 . S
C734 H738 0.950 . S
C734 C743 1.390 . S
C735 C734 1.387 . S
C735 C737 1.387 . S
H736 C743 0.950 . S
C737 C735 1.387 . S
C737 C739 1.390 . S
C737 H741 0.950 . S
H738 C734 0.950 . S
C739 C737 1.390 . S
C739 C740 1.387 . S
C739 H742 0.950 . S
C740 C739 1.387 . S
C740 C743 1.387 . S
H741 C737 0.950 . S
H742 C739 0.950 . S
C743 C734 1.390 . S
C743 H736 0.950 . S
C743 C740 1.387 . S
C744 C745 1.387 . S
C744 H748 0.950 . S
C744 C753 1.390 . S
C745 C744 1.387 . S
C745 C747 1.387 . S
H746 C753 0.950 . S
C747 C745 1.387 . S
C747 C749 1.390 . S
C747 H751 0.950 . S
H748 C744 0.950 . S
C749 C747 1.390 . S
C749 C750 1.387 . S
C749 H752 0.950 . S
C750 C749 1.387 . S
C750 C753 1.387 . S
H751 C747 0.950 . S
H752 C749 0.950 . S
C753 C744 1.390 . S
C753 H746 0.950 . S
C753 C750 1.387 . S
C754 C755 1.387 . S
C754 H758 0.950 . S
C754 C763 1.390 . S
C755 C754 1.387 . S
C755 C757 1.387 . S
H756 C763 0.950 . S
C757 C755 1.387 . S
C757 C759 1.390 . S
C757 H761 0.950 . S
H758 C754 0.950 . S
C759 C757 1.390 . S
C759 C760 1.387 . S
C759 H762 0.950 . S
C760 C759 1.387 . S
C760 C763 1.387 . S
H761 C757 0.950 . S
H762 C759 0.950 . S
C763 C754 1.390 . S
C763 H756 0.950 . S
C763 C760 1.387 . S
C764 C765 1.387 . S
C764 H768 0.950 . S
C764 C773 1.390 . S
C765 C764 1.387 . S
C765 C767 1.387 1_565 S
H766 C773 0.950 . S
C767 C765 1.387 1_545 S
C767 C769 1.390 . S
C767 H771 0.950 . S
H768 C764 0.950 . S
C769 C767 1.390 . S
C769 C770 1.387 1_545 S
C769 H772 0.950 . S
C770 C769 1.387 1_565 S
C770 C773 1.387 . S
H771 C767 0.950 . S
H772 C769 0.950 . S
C773 C764 1.390 . S
C773 H766 0.950 . S
C773 C770 1.387 . S
C774 C775 1.387 . S
C774 H778 0.950 . S
C774 C783 1.390 . S
C775 C774 1.387 . S
C775 C777 1.387 . S
H776 C783 0.950 . S
C777 C775 1.387 . S
C777 C779 1.390 . S
C777 H781 0.950 . S
H778 C774 0.950 . S
C779 C777 1.390 . S
C779 C780 1.387 . S
C779 H782 0.950 . S
C780 C779 1.387 . S
C780 C783 1.387 . S
H781 C777 0.950 . S
H782 C779 0.950 . S
C783 C774 1.390 . S
C783 H776 0.950 . S
C783 C780 1.387 . S
C784 C785 1.387 1_455 S
C784 H788 0.950 . S
C784 C793 1.390 . S
C785 C784 1.387 1_655 S
C785 C787 1.387 . S
H786 C793 0.950 . S
C787 C785 1.387 . S
C787 C789 1.390 . S
C787 H791 0.950 . S
H788 C784 0.950 . S
C789 C787 1.390 . S
C789 C790 1.387 . S
C789 H792 0.950 . S
C790 C789 1.387 . S
C790 C793 1.387 1_655 S
H791 C787 0.950 . S
H792 C789 0.950 . S
C793 C784 1.390 . S
C793 H786 0.950 . S
C793 C790 1.387 1_455 S
C794 C795 1.387 . S
C794 H798 0.950 . S
C794 C803 1.390 . S
C795 C794 1.387 . S
C795 C797 1.387 . S
H796 C803 0.950 . S
C797 C795 1.387 . S
C797 C799 1.390 . S
C797 H801 0.950 . S
H798 C794 0.950 . S
C799 C797 1.390 . S
C799 C800 1.387 . S
C799 H802 0.950 . S
C800 C799 1.387 . S
C800 C803 1.387 . S
H801 C797 0.950 . S
H802 C799 0.950 . S
C803 C794 1.390 . S
C803 H796 0.950 . S
C803 C800 1.387 . S
C804 C805 1.387 . S
C804 H808 0.950 . S
C804 C813 1.390 . S
C805 C804 1.387 . S
C805 C807 1.387 . S
H806 C813 0.950 . S
C807 C805 1.387 . S
C807 C809 1.390 . S
C807 H811 0.950 . S
H808 C804 0.950 . S
C809 C807 1.390 . S
C809 C810 1.387 . S
C809 H812 0.950 . S
C810 C809 1.387 . S
C810 C813 1.387 . S
H811 C807 0.950 . S
H812 C809 0.950 . S
C813 C804 1.390 . S
C813 H806 0.950 . S
C813 C810 1.387 . S
C814 C815 1.387 . S
C814 H818 0.950 . S
C814 C823 1.390 . S
C815 C814 1.387 . S
C815 C817 1.387 . S
H816 C823 0.950 . S
C817 C815 1.387 . S
C817 C819 1.390 . S
C817 H821 0.950 . S
H818 C814 0.950 . S
C819 C817 1.390 . S
C819 C820 1.387 1_545 S
C819 H822 0.950 . S
C820 C819 1.387 1_565 S
C820 C823 1.387 1_565 S
H821 C817 0.950 . S
H822 C819 0.950 . S
C823 C814 1.390 . S
C823 H816 0.950 . S
C823 C820 1.387 1_545 S
C824 C825 1.389 1_455 S
C824 H828 0.951 1_455 S
C824 C833 1.387 . S
C825 C824 1.389 1_655 S
C825 C827 1.387 1_655 S
H826 C833 0.950 . S
C827 C825 1.387 1_455 S
C827 C829 1.390 . S
C827 H831 0.950 . S
H828 C824 0.951 1_655 S
C829 C827 1.390 . S
C829 C830 1.387 . S
C829 H832 0.950 . S
C830 C829 1.387 . S
C830 C833 1.387 . S
H831 C827 0.950 . S
H832 C829 0.950 . S
C833 C824 1.387 . S
C833 H826 0.950 . S
C833 C830 1.387 . S
C834 C835 1.387 . S
C834 H838 0.950 . S
C834 C843 1.390 . S
C835 C834 1.387 . S
C835 C837 1.387 . S
H836 C843 0.950 . S
C837 C835 1.387 . S
C837 C839 1.390 . S
C837 H841 0.950 . S
H838 C834 0.950 . S
C839 C837 1.390 . S
C839 C840 1.387 . S
C839 H842 0.950 . S
C840 C839 1.387 . S
C840 C843 1.387 . S
H841 C837 0.950 . S
H842 C839 0.950 . S
C843 C834 1.390 . S
C843 H836 0.950 . S
C843 C840 1.387 . S
C844 C845 1.387 1_545 S
C844 H848 0.950 . S
C844 C853 1.390 . S
C845 C844 1.387 1_565 S
C845 C847 1.387 1_565 S
H846 C853 0.950 . S
C847 C845 1.387 1_545 S
C847 C849 1.390 . S
C847 H851 0.950 . S
H848 C844 0.950 . S
C849 C847 1.390 . S
C849 C850 1.387 . S
C849 H852 0.950 . S
C850 C849 1.387 . S
C850 C853 1.387 . S
H851 C847 0.950 . S
H852 C849 0.950 . S
C853 C844 1.390 . S
C853 H846 0.950 . S
C853 C850 1.387 . S
C854 C855 1.387 1_455 S
C854 H858 0.950 . S
C854 C863 1.390 . S
C855 C854 1.387 1_655 S
C855 C857 1.388 1_655 S
H856 C863 0.950 . S
C857 C855 1.388 1_455 S
C857 C859 1.389 . S
C857 H861 0.950 1_455 S
H858 C854 0.950 . S
C859 C857 1.389 . S
C859 C860 1.387 . S
C859 H862 0.950 . S
C860 C859 1.387 . S
C860 C863 1.387 . S
H861 C857 0.950 1_655 S
H862 C859 0.950 . S
C863 C854 1.390 . S
C863 H856 0.950 . S
C863 C860 1.387 . S
C864 C865 1.387 . S
C864 H868 0.950 . S
C864 C873 1.390 1_554 S
C865 C864 1.387 . S
C865 C867 1.387 . S
H866 C873 0.950 . S
C867 C865 1.387 . S
C867 C869 1.390 1_554 S
C867 H871 0.950 . S
H868 C864 0.950 . S
C869 C867 1.390 1_556 S
C869 C870 1.387 . S
C869 H872 0.950 . S
C870 C869 1.387 . S
C870 C873 1.387 . S
H871 C867 0.950 . S
H872 C869 0.950 . S
C873 C864 1.390 1_556 S
C873 H866 0.950 . S
C873 C870 1.387 . S
C874 C875 1.387 . S
C874 H878 0.950 . S
C874 C883 1.390 1_556 S
C875 C874 1.387 . S
C875 C877 1.387 . S
H876 C883 0.950 . S
C877 C875 1.387 . S
C877 C879 1.390 1_556 S
C877 H881 0.950 . S
H878 C874 0.950 . S
C879 C877 1.390 1_554 S
C879 C880 1.387 . S
C879 H882 0.950 . S
C880 C879 1.387 . S
C880 C883 1.387 . S
H881 C877 0.950 . S
H882 C879 0.950 . S
C883 C874 1.390 1_554 S
C883 H876 0.950 . S
C883 C880 1.387 . S
C884 C885 1.387 . S
C884 H888 0.950 . S
C884 C893 1.390 1_556 S
C885 C884 1.387 . S
C885 C887 1.387 . S
H886 C893 0.950 . S
C887 C885 1.387 . S
C887 C889 1.390 1_556 S
C887 H891 0.950 . S
H888 C884 0.950 . S
C889 C887 1.390 1_554 S
C889 C890 1.387 . S
C889 H892 0.950 . S
C890 C889 1.387 . S
C890 C893 1.387 . S
H891 C887 0.950 . S
H892 C889 0.950 . S
C893 C884 1.390 1_554 S
C893 H886 0.950 . S
C893 C890 1.387 . S
C894 C895 1.387 . S
C894 H898 0.950 . S
C894 C903 1.390 1_556 S
C895 C894 1.387 . S
C895 C897 1.387 . S
H896 C903 0.950 . S
C897 C895 1.387 . S
C897 C899 1.390 1_556 S
C897 H901 0.950 . S
H898 C894 0.950 . S
C899 C897 1.390 1_554 S
C899 C900 1.387 . S
C899 H902 0.950 . S
C900 C899 1.387 . S
C900 C903 1.387 . S
H901 C897 0.950 . S
H902 C899 0.950 . S
C903 C894 1.390 1_554 S
C903 H896 0.950 . S
C903 C900 1.387 . S
C904 C905 1.387 . S
C904 H908 0.950 . S
C904 C913 1.390 1_554 S
C905 C904 1.387 . S
C905 C907 1.387 . S
H906 C913 0.950 . S
C907 C905 1.387 . S
C907 C909 1.390 1_554 S
C907 H911 0.950 . S
H908 C904 0.950 . S
C909 C907 1.390 1_556 S
C909 C910 1.387 . S
C909 H912 0.950 . S
C910 C909 1.387 . S
C910 C913 1.387 . S
H911 C907 0.950 . S
H912 C909 0.950 . S
C913 C904 1.390 1_556 S
C913 H906 0.950 . S
C913 C910 1.387 . S
C914 C915 1.387 . S
C914 H918 0.950 . S
C914 C923 1.390 1_556 S
C915 C914 1.387 . S
C915 C917 1.387 . S
H916 C923 0.950 . S
C917 C915 1.387 . S
C917 C919 1.390 1_556 S
C917 H921 0.950 . S
H918 C914 0.950 . S
C919 C917 1.390 1_554 S
C919 C920 1.387 . S
C919 H922 0.950 . S
C920 C919 1.387 . S
C920 C923 1.387 . S
H921 C917 0.950 . S
H922 C919 0.950 . S
C923 C914 1.390 1_554 S
C923 H916 0.950 . S
C923 C920 1.387 . S
C924 C925 1.387 . S
C924 H928 0.950 . S
C924 C933 1.390 . S
C925 C924 1.387 . S
C925 C927 1.387 . S
H926 C933 0.950 . S
C927 C925 1.387 . S
C927 C929 1.390 . S
C927 H931 0.950 . S
H928 C924 0.950 . S
C929 C927 1.390 . S
C929 C930 1.387 . S
C929 H932 0.950 . S
C930 C929 1.387 . S
C930 C933 1.387 . S
H931 C927 0.950 . S
H932 C929 0.950 . S
C933 C924 1.390 . S
C933 H926 0.950 . S
C933 C930 1.387 . S
C934 C935 1.387 . S
C934 H938 0.950 . S
C934 C943 1.390 . S
C935 C934 1.387 . S
C935 C937 1.387 . S
H936 C943 0.950 . S
C937 C935 1.387 . S
C937 C939 1.390 . S
C937 H941 0.950 . S
H938 C934 0.950 . S
C939 C937 1.390 . S
C939 C940 1.387 . S
C939 H942 0.950 . S
C940 C939 1.387 . S
C940 C943 1.387 . S
H941 C937 0.950 . S
H942 C939 0.950 . S
C943 C934 1.390 . S
C943 H936 0.950 . S
C943 C940 1.387 . S
C944 C945 1.387 . S
C944 H948 0.950 . S
C944 C953 1.390 . S
C945 C944 1.387 . S
C945 C947 1.387 . S
H946 C953 0.950 . S
C947 C945 1.387 . S
C947 C949 1.390 . S
C947 H951 0.950 . S
H948 C944 0.950 . S
C949 C947 1.390 . S
C949 C950 1.387 . S
C949 H952 0.950 . S
C950 C949 1.387 . S
C950 C953 1.387 . S
H951 C947 0.950 . S
H952 C949 0.950 . S
C953 C944 1.390 . S
C953 H946 0.950 . S
C953 C950 1.387 . S
C954 C955 1.387 . S
C954 H958 0.950 . S
C954 C963 1.390 . S
C955 C954 1.387 . S
C955 C957 1.387 . S
H956 C963 0.950 . S
C957 C955 1.387 . S
C957 C959 1.390 . S
C957 H961 0.950 . S
H958 C954 0.950 . S
C959 C957 1.390 . S
C959 C960 1.387 . S
C959 H962 0.950 . S
C960 C959 1.387 . S
C960 C963 1.387 . S
H961 C957 0.950 . S
H962 C959 0.950 . S
C963 C954 1.390 . S
C963 H956 0.950 . S
C963 C960 1.387 . S
C964 C965 1.387 . S
C964 H968 0.950 . S
C964 C973 1.390 . S
C965 C964 1.387 . S
C965 C967 1.387 . S
H966 C973 0.950 . S
C967 C965 1.387 . S
C967 C969 1.390 . S
C967 H971 0.950 . S
H968 C964 0.950 . S
C969 C967 1.390 . S
C969 C970 1.387 . S
C969 H972 0.950 . S
C970 C969 1.387 . S
C970 C973 1.387 . S
H971 C967 0.950 . S
H972 C969 0.950 . S
C973 C964 1.390 . S
C973 H966 0.950 . S
C973 C970 1.387 . S
C974 C975 1.387 . S
C974 H978 0.950 . S
C974 C983 1.390 . S
C975 C974 1.387 . S
C975 C977 1.387 . S
H976 C983 0.950 . S
C977 C975 1.387 . S
C977 C979 1.390 . S
C977 H981 0.950 . S
H978 C974 0.950 . S
C979 C977 1.390 . S
C979 C980 1.387 . S
C979 H982 0.950 . S
C980 C979 1.387 . S
C980 C983 1.387 . S
H981 C977 0.950 . S
H982 C979 0.950 . S
C983 C974 1.390 . S
C983 H976 0.950 . S
C983 C980 1.387 . S
C984 C985 1.387 . S
C984 H988 0.950 . S
C984 C993 1.390 . S
C985 C984 1.387 . S
C985 C987 1.387 . S
H986 C993 0.950 . S
C987 C985 1.387 . S
C987 C989 1.390 . S
C987 H991 0.950 . S
H988 C984 0.950 . S
C989 C987 1.390 . S
C989 C990 1.387 . S
C989 H992 0.950 . S
C990 C989 1.387 . S
C990 C993 1.387 . S
H991 C987 0.950 . S
H992 C989 0.950 . S
C993 C984 1.390 . S
C993 H986 0.950 . S
C993 C990 1.387 . S
C994 C995 1.387 . S
C994 H998 0.950 . S
C994 C1003 1.390 . S
C995 C994 1.387 . S
C995 C997 1.387 . S
H996 C1003 0.950 . S
C997 C995 1.387 . S
C997 C999 1.390 . S
C997 H1001 0.950 . S
H998 C994 0.950 . S
C999 C997 1.390 . S
C999 C1000 1.387 . S
C999 H1002 0.950 . S
C1000 C999 1.387 . S
C1000 C1003 1.387 . S
H1001 C997 0.950 . S
H1002 C999 0.950 . S
C1003 C994 1.390 . S
C1003 H996 0.950 . S
C1003 C1000 1.387 . S
C1004 C1005 1.387 . S
C1004 H1008 0.950 . S
C1004 C1013 1.390 . S
C1005 C1004 1.387 . S
C1005 C1007 1.387 . S
H1006 C1013 0.950 . S
C1007 C1005 1.387 . S
C1007 C1009 1.390 . S
C1007 H1011 0.950 . S
H1008 C1004 0.950 . S
C1009 C1007 1.390 . S
C1009 C1010 1.387 . S
C1009 H1012 0.950 . S
C1010 C1009 1.387 . S
C1010 C1013 1.387 . S
H1011 C1007 0.950 . S
H1012 C1009 0.950 . S
C1013 C1004 1.390 . S
C1013 H1006 0.950 . S
C1013 C1010 1.387 . S
C1014 C1015 1.387 . S
C1014 H1018 0.950 . S
C1014 C1023 1.390 . S
C1015 C1014 1.387 . S
C1015 C1017 1.387 . S
H1016 C1023 0.950 . S
C1017 C1015 1.387 . S
C1017 C1019 1.390 . S
C1017 H1021 0.950 . S
H1018 C1014 0.950 . S
C1019 C1017 1.390 . S
C1019 C1020 1.387 . S
C1019 H1022 0.950 . S
C1020 C1019 1.387 . S
C1020 C1023 1.387 . S
H1021 C1017 0.950 . S
H1022 C1019 0.950 . S
C1023 C1014 1.390 . S
C1023 H1016 0.950 . S
C1023 C1020 1.387 . S
C1024 C1025 1.387 . S
C1024 H1028 0.950 . S
C1024 C1033 1.390 . S
C1025 C1024 1.387 . S
C1025 C1027 1.387 . S
H1026 C1033 0.950 . S
C1027 C1025 1.387 . S
C1027 C1029 1.390 . S
C1027 H1031 0.950 . S
H1028 C1024 0.950 . S
C1029 C1027 1.390 . S
C1029 C1030 1.387 . S
C1029 H1032 0.950 . S
C1030 C1029 1.387 . S
C1030 C1033 1.387 . S
H1031 C1027 0.950 . S
H1032 C1029 0.950 . S
C1033 C1024 1.390 . S
C1033 H1026 0.950 . S
C1033 C1030 1.387 . S
C1034 C1035 1.387 . S
C1034 H1038 0.950 . S
C1034 C1043 1.390 . S
C1035 C1034 1.387 . S
C1035 C1037 1.387 . S
H1036 C1043 0.950 . S
C1037 C1035 1.387 . S
C1037 C1039 1.390 . S
C1037 H1041 0.950 . S
H1038 C1034 0.950 . S
C1039 C1037 1.390 . S
C1039 C1040 1.387 . S
C1039 H1042 0.950 . S
C1040 C1039 1.387 . S
C1040 C1043 1.387 . S
H1041 C1037 0.950 . S
H1042 C1039 0.950 . S
C1043 C1034 1.390 . S
C1043 H1036 0.950 . S
C1043 C1040 1.387 . S
C1044 C1045 1.387 . S
C1044 H1048 0.950 . S
C1044 C1053 1.390 . S
C1045 C1044 1.387 . S
C1045 C1047 1.387 . S
H1046 C1053 0.950 . S
C1047 C1045 1.387 . S
C1047 C1049 1.390 . S
C1047 H1051 0.950 . S
H1048 C1044 0.950 . S
C1049 C1047 1.390 . S
C1049 C1050 1.387 . S
C1049 H1052 0.950 . S
C1050 C1049 1.387 . S
C1050 C1053 1.387 . S
H1051 C1047 0.950 . S
H1052 C1049 0.950 . S
C1053 C1044 1.390 . S
C1053 H1046 0.950 . S
C1053 C1050 1.387 . S
C1054 C1055 1.387 . S
C1054 H1058 0.950 . S
C1054 C1063 1.390 . S
C1055 C1054 1.387 . S
C1055 C1057 1.387 . S
H1056 C1063 0.950 . S
C1057 C1055 1.387 . S
C1057 C1059 1.390 . S
C1057 H1061 0.950 . S
H1058 C1054 0.950 . S
C1059 C1057 1.390 . S
C1059 C1060 1.387 . S
C1059 H1062 0.950 . S
C1060 C1059 1.387 . S
C1060 C1063 1.387 . S
H1061 C1057 0.950 . S
H1062 C1059 0.950 . S
C1063 C1054 1.390 . S
C1063 H1056 0.950 . S
C1063 C1060 1.387 . S
C1064 C1065 1.387 . S
C1064 H1068 0.950 . S
C1064 C1073 1.390 . S
C1065 C1064 1.387 . S
C1065 C1067 1.387 . S
H1066 C1073 0.950 . S
C1067 C1065 1.387 . S
C1067 C1069 1.390 . S
C1067 H1071 0.950 . S
H1068 C1064 0.950 . S
C1069 C1067 1.390 . S
C1069 C1070 1.387 . S
C1069 H1072 0.950 . S
C1070 C1069 1.387 . S
C1070 C1073 1.387 . S
H1071 C1067 0.950 . S
H1072 C1069 0.950 . S
C1073 C1064 1.390 . S
C1073 H1066 0.950 . S
C1073 C1070 1.387 . S
C1074 C1075 1.387 . S
C1074 H1078 0.950 . S
C1074 C1083 1.390 . S
C1075 C1074 1.387 . S
C1075 C1077 1.387 . S
H1076 C1083 0.950 . S
C1077 C1075 1.387 . S
C1077 C1079 1.390 . S
C1077 H1081 0.950 . S
H1078 C1074 0.950 . S
C1079 C1077 1.390 . S
C1079 C1080 1.387 . S
C1079 H1082 0.950 . S
C1080 C1079 1.387 . S
C1080 C1083 1.387 . S
H1081 C1077 0.950 . S
H1082 C1079 0.950 . S
C1083 C1074 1.390 . S
C1083 H1076 0.950 . S
C1083 C1080 1.387 . S
C1084 C1085 1.387 . S
C1084 H1088 0.950 . S
C1084 C1093 1.390 . S
C1085 C1084 1.387 . S
C1085 C1087 1.387 . S
H1086 C1093 0.950 . S
C1087 C1085 1.387 . S
C1087 C1089 1.390 . S
C1087 H1091 0.950 . S
H1088 C1084 0.950 . S
C1089 C1087 1.390 . S
C1089 C1090 1.387 . S
C1089 H1092 0.950 . S
C1090 C1089 1.387 . S
C1090 C1093 1.387 . S
H1091 C1087 0.950 . S
H1092 C1089 0.950 . S
C1093 C1084 1.390 . S
C1093 H1086 0.950 . S
C1093 C1090 1.387 . S
C1094 C1095 1.387 . S
C1094 H1098 0.950 . S
C1094 C1103 1.390 . S
C1095 C1094 1.387 . S
C1095 C1097 1.387 . S
H1096 C1103 0.950 . S
C1097 C1095 1.387 . S
C1097 C1099 1.390 . S
C1097 H1101 0.950 . S
H1098 C1094 0.950 . S
C1099 C1097 1.390 . S
C1099 C1100 1.387 . S
C1099 H1102 0.950 . S
C1100 C1099 1.387 . S
C1100 C1103 1.387 . S
H1101 C1097 0.950 . S
H1102 C1099 0.950 . S
C1103 C1094 1.390 . S
C1103 H1096 0.950 . S
C1103 C1100 1.387 . S
C1104 C1105 1.387 . S
C1104 H1108 0.950 . S
C1104 C1113 1.390 . S
C1105 C1104 1.387 . S
C1105 C1107 1.387 . S
H1106 C1113 0.950 . S
C1107 C1105 1.387 . S
C1107 C1109 1.390 . S
C1107 H1111 0.950 . S
H1108 C1104 0.950 . S
C1109 C1107 1.390 . S
C1109 C1110 1.387 . S
C1109 H1112 0.950 . S
C1110 C1109 1.387 . S
C1110 C1113 1.387 . S
H1111 C1107 0.950 . S
H1112 C1109 0.950 . S
C1113 C1104 1.390 . S
C1113 H1106 0.950 . S
C1113 C1110 1.387 . S
C1114 C1115 1.387 . S
C1114 H1118 0.950 . S
C1114 C1123 1.390 . S
C1115 C1114 1.387 . S
C1115 C1117 1.387 . S
H1116 C1123 0.950 . S
C1117 C1115 1.387 . S
C1117 C1119 1.390 . S
C1117 H1121 0.950 . S
H1118 C1114 0.950 . S
C1119 C1117 1.390 . S
C1119 C1120 1.387 . S
C1119 H1122 0.950 . S
C1120 C1119 1.387 . S
C1120 C1123 1.387 . S
H1121 C1117 0.950 . S
H1122 C1119 0.950 . S
C1123 C1114 1.390 . S
C1123 H1116 0.950 . S
C1123 C1120 1.387 . S
C1124 C1125 1.387 . S
C1124 H1128 0.950 . S
C1124 C1133 1.390 . S
C1125 C1124 1.387 . S
C1125 C1127 1.387 . S
H1126 C1133 0.950 . S
C1127 C1125 1.387 . S
C1127 C1129 1.390 . S
C1127 H1131 0.950 . S
H1128 C1124 0.950 . S
C1129 C1127 1.390 . S
C1129 C1130 1.387 . S
C1129 H1132 0.950 . S
C1130 C1129 1.387 . S
C1130 C1133 1.387 . S
H1131 C1127 0.950 . S
H1132 C1129 0.950 . S
C1133 C1124 1.390 . S
C1133 H1126 0.950 . S
C1133 C1130 1.387 . S
C1134 C1135 1.387 . S
C1134 H1138 0.950 . S
C1134 C1143 1.390 . S
C1135 C1134 1.387 . S
C1135 C1137 1.387 . S
H1136 C1143 0.950 . S
C1137 C1135 1.387 . S
C1137 C1139 1.390 . S
C1137 H1141 0.950 . S
H1138 C1134 0.950 . S
C1139 C1137 1.390 . S
C1139 C1140 1.387 . S
C1139 H1142 0.950 . S
C1140 C1139 1.387 . S
C1140 C1143 1.387 . S
H1141 C1137 0.950 . S
H1142 C1139 0.950 . S
C1143 C1134 1.390 . S
C1143 H1136 0.950 . S
C1143 C1140 1.387 . S
C1144 C1145 1.387 . S
C1144 H1148 0.950 . S
C1144 C1153 1.390 . S
C1145 C1144 1.387 . S
C1145 C1147 1.387 . S
H1146 C1153 0.950 . S
C1147 C1145 1.387 . S
C1147 C1149 1.390 . S
C1147 H1151 0.950 . S
H1148 C1144 0.950 . S
C1149 C1147 1.390 . S
C1149 C1150 1.387 . S
C1149 H1152 0.950 . S
C1150 C1149 1.387 . S
C1150 C1153 1.387 . S
H1151 C1147 0.950 . S
H1152 C1149 0.950 . S
C1153 C1144 1.390 . S
C1153 H1146 0.950 . S
C1153 C1150 1.387 . S
C1154 C1155 1.387 . S
C1154 H1158 0.950 . S
C1154 C1163 1.390 . S
C1155 C1154 1.387 . S
C1155 C1157 1.387 . S
H1156 C1163 0.950 . S
C1157 C1155 1.387 . S
C1157 C1159 1.390 . S
C1157 H1161 0.950 . S
H1158 C1154 0.950 . S
C1159 C1157 1.390 . S
C1159 C1160 1.387 . S
C1159 H1162 0.950 . S
C1160 C1159 1.387 . S
C1160 C1163 1.387 . S
H1161 C1157 0.950 . S
H1162 C1159 0.950 . S
C1163 C1154 1.390 . S
C1163 H1156 0.950 . S
C1163 C1160 1.387 . S
C1164 C1165 1.387 . S
C1164 H1168 0.950 . S
C1164 C1173 1.390 . S
C1165 C1164 1.387 . S
C1165 C1167 1.387 . S
H1166 C1173 0.950 . S
C1167 C1165 1.387 . S
C1167 C1169 1.390 . S
C1167 H1171 0.950 . S
H1168 C1164 0.950 . S
C1169 C1167 1.390 . S
C1169 C1170 1.387 . S
C1169 H1172 0.950 . S
C1170 C1169 1.387 . S
C1170 C1173 1.387 . S
H1171 C1167 0.950 . S
H1172 C1169 0.950 . S
C1173 C1164 1.390 . S
C1173 H1166 0.950 . S
C1173 C1170 1.387 . S
C1174 C1175 1.387 . S
C1174 H1178 0.950 . S
C1174 C1183 1.390 . S
C1175 C1174 1.387 . S
C1175 C1177 1.387 . S
H1176 C1183 0.950 . S
C1177 C1175 1.387 . S
C1177 C1179 1.390 . S
C1177 H1181 0.950 . S
H1178 C1174 0.950 . S
C1179 C1177 1.390 . S
C1179 C1180 1.387 . S
C1179 H1182 0.950 . S
C1180 C1179 1.387 . S
C1180 C1183 1.387 . S
H1181 C1177 0.950 . S
H1182 C1179 0.950 . S
C1183 C1174 1.390 . S
C1183 H1176 0.950 . S
C1183 C1180 1.387 . S
C1184 C1185 1.387 . S
C1184 H1188 0.950 . S
C1184 C1193 1.390 . S
C1185 C1184 1.387 . S
C1185 C1187 1.387 . S
H1186 C1193 0.950 . S
C1187 C1185 1.387 . S
C1187 C1189 1.390 . S
C1187 H1191 0.950 . S
H1188 C1184 0.950 . S
C1189 C1187 1.390 . S
C1189 C1190 1.387 . S
C1189 H1192 0.950 . S
C1190 C1189 1.387 . S
C1190 C1193 1.387 . S
H1191 C1187 0.950 . S
H1192 C1189 0.950 . S
C1193 C1184 1.390 . S
C1193 H1186 0.950 . S
C1193 C1190 1.387 . S
C1194 C1195 1.387 . S
C1194 H1198 0.950 . S
C1194 C1203 1.390 . S
C1195 C1194 1.387 . S
C1195 C1197 1.387 . S
H1196 C1203 0.950 . S
C1197 C1195 1.387 . S
C1197 C1199 1.390 . S
C1197 H1201 0.950 . S
H1198 C1194 0.950 . S
C1199 C1197 1.390 . S
C1199 C1200 1.387 . S
C1199 H1202 0.950 . S
C1200 C1199 1.387 . S
C1200 C1203 1.387 . S
H1201 C1197 0.950 . S
H1202 C1199 0.950 . S
C1203 C1194 1.390 . S
C1203 H1196 0.950 . S
C1203 C1200 1.387 . S
C1204 C1205 1.387 . S
C1204 H1208 0.950 . S
C1204 C1213 1.390 . S
C1205 C1204 1.387 . S
C1205 C1207 1.387 . S
H1206 C1213 0.950 . S
C1207 C1205 1.387 . S
C1207 C1209 1.390 . S
C1207 H1211 0.950 . S
H1208 C1204 0.950 . S
C1209 C1207 1.390 . S
C1209 C1210 1.387 . S
C1209 H1212 0.950 . S
C1210 C1209 1.387 . S
C1210 C1213 1.387 . S
H1211 C1207 0.950 . S
H1212 C1209 0.950 . S
C1213 C1204 1.390 . S
C1213 H1206 0.950 . S
C1213 C1210 1.387 . S
C1214 C1215 1.387 . S
C1214 H1218 0.950 . S
C1214 C1223 1.390 . S
C1215 C1214 1.387 . S
C1215 C1217 1.387 . S
H1216 C1223 0.950 . S
C1217 C1215 1.387 . S
C1217 C1219 1.390 . S
C1217 H1221 0.950 . S
H1218 C1214 0.950 . S
C1219 C1217 1.390 . S
C1219 C1220 1.387 . S
C1219 H1222 0.950 . S
C1220 C1219 1.387 . S
C1220 C1223 1.387 . S
H1221 C1217 0.950 . S
H1222 C1219 0.950 . S
C1223 C1214 1.390 . S
C1223 H1216 0.950 . S
C1223 C1220 1.387 . S
C505 C11 1.096 . S
C510 C165 1.100 . S
C515 C137 1.097 . S
C520 C25 1.099 . S
C525 C151 1.099 . S
C530 C39 1.097 . S
C535 C53 1.099 . S
C540 C109 1.097 . S
C545 C67 1.097 . S
C550 C123 1.099 . S
C555 C81 1.100 . S
C560 C95 1.096 . S
C565 C179 1.096 . S
C570 C333 1.100 . S
C575 C305 1.097 . S
C580 C193 1.099 . S
C585 C207 1.099 . S
C590 C319 1.097 . S
C595 C221 1.099 . S
C600 C277 1.097 . S
C605 C235 1.097 . S
C610 C291 1.099 . S
C615 C249 1.100 . S
C620 C263 1.096 . S
C625 C347 1.096 . S
C630 C501 1.100 . S
C635 C361 1.097 . S
C640 C473 1.099 . S
C645 C487 1.099 . S
C650 C375 1.097 . S
C655 C389 1.097 . S
C660 C445 1.099 . S
C665 C459 1.099 . S
C670 C403 1.097 . S
C675 C431 1.096 . S
C680 C417 1.099 . S
C685 C5 1.156 1_655 S
C690 C215 1.162 . S
C695 C19 1.157 . S
C700 C229 1.157 . S
C705 C33 1.155 . S
C710 C243 1.161 . S
C715 C47 1.157 1_565 S
C720 C341 1.158 . S
C725 C355 1.159 . S
C730 C61 1.160 . S
C735 C369 1.161 . S
C740 C75 1.158 . S
C745 C89 1.158 . S
C750 C467 1.161 . S
C755 C481 1.160 . S
C760 C103 1.159 . S
C765 C117 1.160 1_565 S
C770 C495 1.158 . S
C775 C131 1.161 . S
C780 C257 1.157 . S
C785 C145 1.157 1_655 S
C790 C271 1.157 . S
C795 C159 1.160 . S
C800 C285 1.156 . S
C805 C383 1.155 . S
C810 C173 1.160 . S
C815 C187 1.159 . S
C820 C397 1.160 . S
C825 C201 1.161 . S
C830 C411 1.157 . S
C835 C425 1.159 . S
C840 C299 1.160 . S
C845 C439 1.157 . S
C850 C313 1.157 . S
C855 C327 1.160 . S
C860 C453 1.156 . S
C865 C12 1.453 . S
C870 C68 1.453 . S
C875 C82 1.453 . S
C880 C26 1.452 . S
C885 C54 1.453 . S
C890 C40 1.453 . S
C895 C96 1.453 . S
C900 C152 1.453 . S
C905 C166 1.453 . S
C910 C110 1.453 . S
C915 C124 1.453 . S
C920 C138 1.453 . S
C925 C236 1.453 . S
C930 C180 1.453 . S
C935 C194 1.453 . S
C940 C250 1.453 . S
C945 C208 1.453 . S
C950 C222 1.453 . S
C955 C320 1.452 . S
C960 C264 1.453 . S
C965 C334 1.453 . S
C970 C278 1.453 . S
C975 C306 1.453 . S
C980 C292 1.453 . S
C985 C348 1.453 . S
C990 C404 1.453 . S
C995 C362 1.453 . S
C1000 C418 1.453 . S
C1005 C376 1.453 . S
C1010 C390 1.453 . S
C1015 C488 1.453 . S
C1020 C432 1.453 . S
C1025 C502 1.453 . S
C1030 C446 1.453 . S
C1035 C474 1.453 . S
C1040 C460 1.453 . S
C1045 C130 1.558 . S
C1050 C4 1.556 . S
C1055 C144 1.556 . S
C1060 C18 1.558 . S
C1065 C32 1.558 . S
C1070 C158 1.557 . S
C1075 C46 1.558 . S
C1080 C88 1.556 . S
C1085 C102 1.558 . S
C1090 C60 1.556 . S
C1095 C74 1.557 . S
C1100 C116 1.558 . S
C1105 C298 1.556 . S
C1110 C172 1.557 . S
C1115 C312 1.556 . S
C1120 C186 1.558 . S
C1125 C200 1.558 . S
C1130 C326 1.557 . S
C1135 C256 1.556 . S
C1140 C214 1.558 . S
C1145 C270 1.558 . S
C1150 C228 1.556 . S
C1155 C284 1.558 . S
C1160 C242 1.556 . S
C1165 C340 1.556 . S
C1170 C466 1.558 . S
C1175 C480 1.558 . S
C1180 C354 1.556 . S
C1185 C368 1.558 . S
C1190 C494 1.556 . S
C1195 C382 1.556 . S
C1200 C424 1.557 . S
C1205 C396 1.556 . S
C1210 C438 1.558 . S
C1215 C452 1.558 . S
C1220 C410 1.556 . S
