# Generated by pormake.
# Topology xfe, (7)-cn, num edge types: 1
# Building blocks:
#     Node 0, Type 0, BuildingBlock: NUHQUE_clean_sbu_2, # of connection points: 7
#     Node 1, Type 0, BuildingBlock: NUHQUE_clean_sbu_2, # of connection points: 7
#     Node 2, Type 0, BuildingBlock: NUHQUE_clean_sbu_2, # of connection points: 7
#     Node 3, Type 0, BuildingBlock: NUHQUE_clean_sbu_2, # of connection points: 7
#     Node 4, Type 0, BuildingBlock: NUHQUE_clean_sbu_2, # of connection points: 7
#     Node 5, Type 0, BuildingBlock: NUHQUE_clean_sbu_2, # of connection points: 7
#     Node 6, Type 0, BuildingBlock: NUHQUE_clean_sbu_2, # of connection points: 7
#     Node 7, Type 0, BuildingBlock: NUHQUE_clean_sbu_2, # of connection points: 7
#     Node 8, Type 0, BuildingBlock: NUHQUE_clean_sbu_2, # of connection points: 7
#     Node 9, Type 0, BuildingBlock: NUHQUE_clean_sbu_2, # of connection points: 7
#     Node 10, Type 0, BuildingBlock: NUHQUE_clean_sbu_2, # of connection points: 7
#     Node 11, Type 0, BuildingBlock: NUHQUE_clean_sbu_2, # of connection points: 7
#     Node 12, Type 0, BuildingBlock: NUHQUE_clean_sbu_2, # of connection points: 7
#     Node 13, Type 0, BuildingBlock: NUHQUE_clean_sbu_2, # of connection points: 7
#     Node 14, Type 0, BuildingBlock: NUHQUE_clean_sbu_2, # of connection points: 7
#     Node 15, Type 0, BuildingBlock: NUHQUE_clean_sbu_2, # of connection points: 7
#     Edge 16, Type (0, 0), BuildingBlock: KIFKEQ_clean_linker_1, # of connection points: 2
#     Edge 17, Type (0, 0), BuildingBlock: KIFKEQ_clean_linker_1, # of connection points: 2
#     Edge 18, Type (0, 0), BuildingBlock: KIFKEQ_clean_linker_1, # of connection points: 2
#     Edge 19, Type (0, 0), BuildingBlock: KIFKEQ_clean_linker_1, # of connection points: 2
#     Edge 20, Type (0, 0), BuildingBlock: KIFKEQ_clean_linker_1, # of connection points: 2
#     Edge 21, Type (0, 0), BuildingBlock: KIFKEQ_clean_linker_1, # of connection points: 2
#     Edge 22, Type (0, 0), BuildingBlock: KIFKEQ_clean_linker_1, # of connection points: 2
#     Edge 23, Type (0, 0), BuildingBlock: KIFKEQ_clean_linker_1, # of connection points: 2
#     Edge 24, Type (0, 0), BuildingBlock: KIFKEQ_clean_linker_1, # of connection points: 2
#     Edge 25, Type (0, 0), BuildingBlock: KIFKEQ_clean_linker_1, # of connection points: 2
#     Edge 26, Type (0, 0), BuildingBlock: KIFKEQ_clean_linker_1, # of connection points: 2
#     Edge 27, Type (0, 0), BuildingBlock: KIFKEQ_clean_linker_1, # of connection points: 2
#     Edge 28, Type (0, 0), BuildingBlock: KIFKEQ_clean_linker_1, # of connection points: 2
#     Edge 29, Type (0, 0), BuildingBlock: KIFKEQ_clean_linker_1, # of connection points: 2
#     Edge 30, Type (0, 0), BuildingBlock: KIFKEQ_clean_linker_1, # of connection points: 2
#     Edge 31, Type (0, 0), BuildingBlock: KIFKEQ_clean_linker_1, # of connection points: 2
#     Edge 32, Type (0, 0), BuildingBlock: KIFKEQ_clean_linker_1, # of connection points: 2
#     Edge 33, Type (0, 0), BuildingBlock: KIFKEQ_clean_linker_1, # of connection points: 2
#     Edge 34, Type (0, 0), BuildingBlock: KIFKEQ_clean_linker_1, # of connection points: 2
#     Edge 35, Type (0, 0), BuildingBlock: KIFKEQ_clean_linker_1, # of connection points: 2
#     Edge 36, Type (0, 0), BuildingBlock: KIFKEQ_clean_linker_1, # of connection points: 2
#     Edge 37, Type (0, 0), BuildingBlock: KIFKEQ_clean_linker_1, # of connection points: 2
#     Edge 38, Type (0, 0), BuildingBlock: KIFKEQ_clean_linker_1, # of connection points: 2
#     Edge 39, Type (0, 0), BuildingBlock: KIFKEQ_clean_linker_1, # of connection points: 2
#     Edge 40, Type (0, 0), BuildingBlock: KIFKEQ_clean_linker_1, # of connection points: 2
#     Edge 41, Type (0, 0), BuildingBlock: KIFKEQ_clean_linker_1, # of connection points: 2
#     Edge 42, Type (0, 0), BuildingBlock: KIFKEQ_clean_linker_1, # of connection points: 2
#     Edge 43, Type (0, 0), BuildingBlock: KIFKEQ_clean_linker_1, # of connection points: 2
#     Edge 44, Type (0, 0), BuildingBlock: KIFKEQ_clean_linker_1, # of connection points: 2
#     Edge 45, Type (0, 0), BuildingBlock: KIFKEQ_clean_linker_1, # of connection points: 2
#     Edge 46, Type (0, 0), BuildingBlock: KIFKEQ_clean_linker_1, # of connection points: 2
#     Edge 47, Type (0, 0), BuildingBlock: KIFKEQ_clean_linker_1, # of connection points: 2
#     Edge 48, Type (0, 0), BuildingBlock: KIFKEQ_clean_linker_1, # of connection points: 2
#     Edge 49, Type (0, 0), BuildingBlock: KIFKEQ_clean_linker_1, # of connection points: 2
#     Edge 50, Type (0, 0), BuildingBlock: KIFKEQ_clean_linker_1, # of connection points: 2
#     Edge 51, Type (0, 0), BuildingBlock: KIFKEQ_clean_linker_1, # of connection points: 2
#     Edge 52, Type (0, 0), BuildingBlock: KIFKEQ_clean_linker_1, # of connection points: 2
#     Edge 53, Type (0, 0), BuildingBlock: KIFKEQ_clean_linker_1, # of connection points: 2
#     Edge 54, Type (0, 0), BuildingBlock: KIFKEQ_clean_linker_1, # of connection points: 2
#     Edge 55, Type (0, 0), BuildingBlock: KIFKEQ_clean_linker_1, # of connection points: 2
#     Edge 56, Type (0, 0), BuildingBlock: KIFKEQ_clean_linker_1, # of connection points: 2
#     Edge 57, Type (0, 0), BuildingBlock: KIFKEQ_clean_linker_1, # of connection points: 2
#     Edge 58, Type (0, 0), BuildingBlock: KIFKEQ_clean_linker_1, # of connection points: 2
#     Edge 59, Type (0, 0), BuildingBlock: KIFKEQ_clean_linker_1, # of connection points: 2
#     Edge 60, Type (0, 0), BuildingBlock: KIFKEQ_clean_linker_1, # of connection points: 2
#     Edge 61, Type (0, 0), BuildingBlock: KIFKEQ_clean_linker_1, # of connection points: 2
#     Edge 62, Type (0, 0), BuildingBlock: KIFKEQ_clean_linker_1, # of connection points: 2
#     Edge 63, Type (0, 0), BuildingBlock: KIFKEQ_clean_linker_1, # of connection points: 2
#     Edge 64, Type (0, 0), BuildingBlock: KIFKEQ_clean_linker_1, # of connection points: 2
#     Edge 65, Type (0, 0), BuildingBlock: KIFKEQ_clean_linker_1, # of connection points: 2
#     Edge 66, Type (0, 0), BuildingBlock: KIFKEQ_clean_linker_1, # of connection points: 2
#     Edge 67, Type (0, 0), BuildingBlock: KIFKEQ_clean_linker_1, # of connection points: 2
#     Edge 68, Type (0, 0), BuildingBlock: KIFKEQ_clean_linker_1, # of connection points: 2
#     Edge 69, Type (0, 0), BuildingBlock: KIFKEQ_clean_linker_1, # of connection points: 2
#     Edge 70, Type (0, 0), BuildingBlock: KIFKEQ_clean_linker_1, # of connection points: 2
#     Edge 71, Type (0, 0), BuildingBlock: KIFKEQ_clean_linker_1, # of connection points: 2
# Relax obj value: 0.212
# Max RMSD: 0.239
# Mean RMSD: 0.239
data_MOF--net-xfe--node1-NUHQUE_clean_sbu_2--edge1-KIFKEQ_clean_linker_1
_symmetry_space_group_name_H-M    P1
_symmetry_Int_Tables_number       1
_symmetry_cell_setting            triclinic
loop_
_symmetry_equiv_pos_as_xyz
'x, y, z'
_cell_length_a     38.816169
_cell_length_b     38.647145
_cell_length_c     51.022335
_cell_angle_alpha  89.868405
_cell_angle_beta   90.080107
_cell_angle_gamma 89.89319
loop_
_atom_site_label
_atom_site_type_symbol
_atom_site_fract_x
_atom_site_fract_y
_atom_site_fract_z
_atom_type_partial_charge
O0 O 0.06439 0.10872 0.08748 0.0
Tb1 Tb 1.02442 0.09942 0.11667 0.0
Eu2 Eu 1.01903 0.0853 0.18234 0.0
C3 C 0.097 0.11347 0.09373 0.0
O4 O 0.10732 0.10729 0.11781 0.0
C5 C 1.0319 0.15872 0.15834 0.0
O6 O 0.99484 0.06894 0.22042 0.0
C7 C 0.08413 0.07003 0.18518 0.0
C8 C 0.96161 0.06303 0.22224 0.0
O9 O 0.94158 0.07057 0.20224 0.0
C10 C 0.99291 1.0315 0.13829 0.0
C11 C 0.11251 0.04477 0.18903 0.0
C12 C 0.13738 0.04257 0.16913 0.0
C13 C 0.16701 1.02231 0.17238 0.0
C14 C 0.17147 1.00374 0.19568 0.0
C15 C 0.14781 1.0061 0.21631 0.0
C16 C 0.11781 1.02641 0.21284 0.0
O17 O 0.04765 0.1408 0.13997 0.0
O18 O 1.01207 0.14279 0.17546 0.0
O19 O 0.99333 0.10841 0.08197 0.0
O20 O 0.97177 0.12005 0.11933 0.0
C21 C 0.9661 0.11955 0.09411 0.0
O22 O 0.98519 0.04722 0.16041 0.0
O23 O 1.01785 0.04367 0.12326 0.0
O24 O 0.06568 0.07938 0.20554 0.0
O25 O 0.06675 0.06973 0.16296 0.0
H26 H 0.1341 0.05749 0.15128 0.0
H27 H 0.19358 0.98676 0.19776 0.0
H28 H 0.09947 1.02872 0.22872 0.0
O29 O 0.24828 0.80627 0.34057 0.0
Tb30 Tb 0.25366 0.7604 0.36568 0.0
Eu31 Eu 0.26666 0.75047 0.43115 0.0
C32 C 0.23615 0.83582 0.34977 0.0
O33 O 0.23239 0.83965 0.37516 0.0
C34 C 0.19292 0.76159 0.40746 0.0
O35 O 0.28417 0.72644 0.46909 0.0
C36 C 0.28152 0.8159 0.43329 0.0
C37 C 0.29013 0.69306 0.47102 0.0
O38 O 0.28213 0.67285 0.45125 0.0
C39 C 0.32008 0.72472 0.38708 0.0
C40 C 0.30754 0.84342 0.43701 0.0
C41 C 0.30698 0.87115 0.41919 0.0
C42 C 0.32918 0.89937 0.42227 0.0
C43 C 0.35244 0.89945 0.44324 0.0
C44 C 0.3539 0.87208 0.46126 0.0
C45 C 0.33091 0.84405 0.45839 0.0
O46 O 0.20979 0.77841 0.38904 0.0
O47 O 0.20963 0.74236 0.42463 0.0
O48 O 0.24371 0.7337 0.32893 0.0
O49 O 0.23431 0.70722 0.36488 0.0
C50 C 0.23369 0.70471 0.33941 0.0
O51 O 0.30392 0.71637 0.40884 0.0
O52 O 0.30885 0.75083 0.37256 0.0
O53 O 0.27209 0.79765 0.45381 0.0
O54 O 0.28178 0.79822 0.41125 0.0
H55 H 0.28882 0.87098 0.40301 0.0
H56 H 0.37028 0.92083 0.44533 0.0
H57 H 0.3315 0.82294 0.47239 0.0
O58 O 0.55417 0.97229 0.58612 0.0
Tb59 Tb 0.59518 0.98143 0.61461 0.0
Eu60 Eu 0.60505 0.99357 0.6799 0.0
C61 C 0.52176 0.96741 0.5929 0.0
O62 O 0.51217 0.97361 0.61711 0.0
C63 C 0.58967 0.92093 0.65585 0.0
O64 O 0.63325 1.00848 0.71667 0.0
C65 C 0.54073 1.01044 0.68592 0.0
C66 C 0.66635 1.0156 0.71638 0.0
O67 O 0.68422 1.00947 0.69504 0.0
C68 C 0.62781 0.04893 0.63593 0.0
C69 C 0.51491 1.03805 0.69063 0.0
C70 C 0.48918 0.04281 0.67158 0.0
C71 C 0.46237 0.06659 0.67542 0.0
C72 C 0.4616 0.08598 0.69854 0.0
C73 C 0.48646 0.0814 0.71807 0.0
C74 C 0.51328 0.05726 0.71425 0.0
O75 O 0.57315 0.93931 0.63801 0.0
O76 O 0.61073 0.93628 0.67237 0.0
O77 O 0.625 0.97268 0.57932 0.0
O78 O 0.64824 0.96169 0.61629 0.0
C79 C 0.65291 0.96214 0.59096 0.0
O80 O 0.6372 1.03208 0.65721 0.0
O81 O 0.60218 1.03716 0.62135 0.0
O82 O 0.56079 1.00083 0.7054 0.0
O83 O 0.55592 1.00935 0.66284 0.0
H84 H 0.48963 1.02732 0.65388 0.0
H85 H 0.44153 0.10516 0.70145 0.0
H86 H 0.53234 0.05337 0.7295 0.0
O87 O 0.37119 0.27674 0.83727 0.0
Tb88 Tb 0.36395 0.32072 0.86368 0.0
Eu89 Eu 0.34978 0.32494 0.92976 0.0
C90 C 0.37984 0.24582 0.84617 0.0
O91 O 0.37858 0.23989 0.87151 0.0
C92 C 0.42403 0.31597 0.90613 0.0
O93 O 0.33297 0.34713 0.96834 0.0
C94 C 0.33469 0.25952 0.93029 0.0
C95 C 0.33095 0.38071 0.97188 0.0
O96 O 0.34153 0.40155 0.95317 0.0
C97 C 0.2971 0.35372 0.88618 0.0
C98 C 0.30832 0.23246 0.93427 0.0
C99 C 0.30868 0.20408 0.91711 0.0
C100 C 0.28604 0.17626 0.92071 0.0
C101 C 0.26252 0.17739 0.94146 0.0
C102 C 0.26148 0.20532 0.95888 0.0
C103 C 0.28485 0.23287 0.9555 0.0
O104 O 0.40814 0.30137 0.88618 0.0
O105 O 0.40678 0.33327 0.92402 0.0
O106 O 0.3723 0.34932 0.8275 0.0
O107 O 0.38304 0.37405 0.86391 0.0
C108 C 0.38261 0.37781 0.8385 0.0
O109 O 0.31279 0.36063 0.90844 0.0
O110 O 0.30866 0.32856 0.871 0.0
O111 O 0.3455 0.27649 0.951 0.0
O112 O 0.3333 0.27849 0.90883 0.0
H113 H 0.3271 0.20341 0.90116 0.0
H114 H 0.24433 0.1564 0.94398 0.0
H115 H 0.28456 0.25441 0.96906 0.0
O116 O 0.06265 0.97159 0.88309 0.0
Tb117 Tb 1.02325 0.98272 0.85364 0.0
Eu118 Eu 1.01403 0.99767 0.78816 0.0
C119 C 0.09569 0.96985 0.87724 0.0
O120 O 0.10615 0.98056 0.85414 0.0
C121 C 1.0354 0.92481 0.8111 0.0
O122 O 0.9854 1.00684 0.75037 0.0
C123 C 0.07473 1.02334 0.78077 0.0
C124 C 0.95267 1.01551 0.7497 0.0
O125 O 0.93435 1.01351 0.77128 0.0
C126 C 0.98819 0.04911 0.83312 0.0
C127 C 0.10915 1.0385 0.77574 0.0
C128 C 0.13547 1.03467 0.79446 0.0
C129 C 0.16799 0.04979 0.79053 0.0
C130 C 0.17413 0.06799 0.76715 0.0
C131 C 0.14844 0.07201 0.74812 0.0
C132 C 0.11575 0.05744 0.75254 0.0
O133 O 0.04927 0.94314 0.83013 0.0
O134 O 1.01477 0.93962 0.79389 0.0
O135 O 0.98911 0.97691 0.88695 0.0
O136 O 0.97271 0.95779 0.84972 0.0
C137 C 0.96429 0.96189 0.87428 0.0
O138 O 0.97889 1.03237 0.81184 0.0
O139 O 1.01517 1.03826 0.84675 0.0
O140 O 0.05314 1.01718 0.76154 0.0
O141 O 0.06349 1.01517 0.80436 0.0
H142 H 0.13044 1.02027 0.81227 0.0
H143 H 0.19847 0.08115 0.76425 0.0
H144 H 0.09557 0.06109 0.73809 0.0
O145 O 0.37782 0.79797 0.13137 0.0
Tb146 Tb 0.36854 0.75689 0.10293 0.0
Eu147 Eu 0.35571 0.74914 0.03724 0.0
C148 C 0.38277 0.83052 0.12457 0.0
O149 O 0.37627 0.84035 0.10041 0.0
C150 C 0.42835 0.76348 0.06159 0.0
O151 O 0.3403 0.72349 -0.00051 0.0
C152 C 0.3391 0.81404 0.033 0.0
C153 C 0.33368 0.6902 -0.00166 0.0
O154 O 0.34023 0.67068 0.01887 0.0
C155 C 0.30148 0.72419 0.08117 0.0
C156 C 0.31222 0.84063 0.02851 0.0
C157 C 0.31185 0.86906 0.0456 0.0
C158 C 0.28854 0.89635 0.04193 0.0
C159 C 0.26518 0.8948 0.02107 0.0
C160 C 0.26491 0.86693 0.00363 0.0
C161 C 0.28888 0.83976 0.00711 0.0
O162 O 0.4101 0.77961 0.07957 0.0
O163 O 0.41292 0.74306 0.04461 0.0
O164 O 0.37708 0.72705 0.13839 0.0
O165 O 0.38875 0.70377 0.10163 0.0
C166 C 0.38802 0.69911 0.12698 0.0
O167 O 0.31786 0.71561 0.05955 0.0
O168 O 0.31313 0.74975 0.09592 0.0
O169 O 0.34892 0.79499 0.01307 0.0
O170 O 0.3395 0.79751 0.05561 0.0
H171 H 0.33015 0.87012 0.06166 0.0
H172 H 0.24636 0.91533 0.01854 0.0
H173 H 0.2891 0.81822 -0.00644 0.0
O174 O 0.54765 0.10487 0.38175 0.0
Tb175 Tb 0.59161 0.09713 0.35558 0.0
Eu176 Eu 0.60291 0.08391 0.28997 0.0
C177 C 0.51674 0.11267 0.37266 0.0
O178 O 0.51092 0.11041 0.34737 0.0
C179 C 0.58891 0.15731 0.31351 0.0
O180 O 0.6312 0.0675 0.25351 0.0
C181 C 0.53819 0.0686 0.28437 0.0
C182 C 0.66385 0.05853 0.2547 0.0
O183 O 0.68113 0.06368 0.27649 0.0
C184 C 0.62555 1.0295 0.33512 0.0
C185 C 0.51054 0.04286 0.28009 0.0
C186 C 0.48244 0.0437 0.29741 0.0
C187 C 0.45417 1.02174 0.29388 0.0
C188 C 0.45433 0.99851 0.2729 0.0
C189 C 0.48194 0.9969 0.25531 0.0
C190 C 0.51009 1.01958 0.25865 0.0
O191 O 0.57171 0.13958 0.33127 0.0
O192 O 0.60954 0.14124 0.29705 0.0
O193 O 0.61927 0.10746 0.39179 0.0
O194 O 0.64476 0.11628 0.35543 0.0
C195 C 0.64793 0.11713 0.38087 0.0
O196 O 0.63464 0.04569 0.31352 0.0
O197 O 0.59981 0.04139 0.3495 0.0
O198 O 0.55835 0.07685 0.26466 0.0
O199 O 0.55366 0.06939 0.30737 0.0
H200 H 0.4824 0.06189 0.31355 0.0
H201 H 0.43293 0.98079 0.27046 0.0
H202 H 0.53141 1.01881 0.24499 0.0
O203 O 0.24607 0.27907 0.62816 0.0
Tb204 Tb 0.25156 0.32294 0.60141 0.0
Eu205 Eu 0.26341 0.33626 0.5369 0.0
C206 C 0.24038 0.24741 0.61963 0.0
O207 O 0.24264 0.24109 0.59441 0.0
C208 C 0.19143 0.31999 0.56035 0.0
O209 O 0.27903 0.36209 0.49921 0.0
C210 C 0.27943 0.27125 0.53226 0.0
C211 C 0.28698 0.39509 0.49817 0.0
O212 O 0.28157 0.41456 0.51885 0.0
C213 C 0.31809 0.35904 0.58101 0.0
C214 C 0.30672 0.24526 0.52717 0.0
C215 C 0.31156 0.21923 0.54606 0.0
C216 C 0.33529 0.19239 0.54204 0.0
C217 C 0.35443 0.19184 0.51882 0.0
C218 C 0.34977 0.21704 0.49945 0.0
C219 C 0.32579 0.24396 0.50351 0.0
O220 O 0.20999 0.30175 0.57706 0.0
O221 O 0.20662 0.34299 0.54525 0.0
O222 O 0.24032 0.35008 0.63766 0.0
O223 O 0.23111 0.37592 0.6014 0.0
C224 C 0.23001 0.37878 0.62686 0.0
O225 O 0.30144 0.36872 0.55973 0.0
O226 O 0.30681 0.3326 0.59512 0.0
O227 O 0.26849 0.29038 0.51262 0.0
O228 O 0.27997 0.28769 0.55484 0.0
H229 H 0.29629 0.21954 0.56383 0.0
H230 H 0.37358 0.17178 0.51575 0.0
H231 H 0.32192 0.26335 0.48843 0.0
O232 O 0.88247 0.30325 0.62459 0.0
Tb233 Tb 0.87417 0.26033 0.59756 0.0
Eu234 Eu 0.86389 0.24507 0.5334 0.0
C235 C 0.88586 0.33568 0.61695 0.0
O236 O 0.87803 0.34438 0.59277 0.0
C237 C 0.93514 0.26512 0.55723 0.0
O238 O 0.85158 0.21553 0.49666 0.0
C239 C 0.84157 0.30779 0.52568 0.0
C240 C 0.84383 0.18246 0.49724 0.0
O241 O 0.84856 0.16493 0.51904 0.0
C242 C 0.80836 0.22391 0.57687 0.0
C243 C 0.80867 0.32689 0.52159 0.0
C244 C 0.79245 0.34209 0.54336 0.0
C245 C 0.76167 0.36055 0.54038 0.0
C246 C 0.74695 0.36417 0.51558 0.0
C247 C 0.76304 0.35054 0.49339 0.0
C248 C 0.79415 0.33194 0.4963 0.0
O249 O 0.91581 0.28258 0.57381 0.0
O250 O 0.92097 0.24188 0.54183 0.0
O251 O 0.88259 0.23332 0.63431 0.0
O252 O 0.89504 0.20741 0.59875 0.0
C253 C 0.89395 0.20465 0.62425 0.0
O254 O 0.82652 0.21274 0.55685 0.0
O255 O 0.81895 0.2512 0.59031 0.0
O256 O 0.85239 0.28768 0.50666 0.0
O257 O 0.84704 0.29449 0.54913 0.0
H258 H 0.80376 0.33976 0.56273 0.0
H259 H 0.72349 0.37923 0.51334 0.0
H260 H 0.80681 0.32162 0.47909 0.0
O261 O 0.74646 0.77061 0.12277 0.0
Tb262 Tb 0.74986 0.81783 0.0991 0.0
Eu263 Eu 0.75736 0.83251 0.03376 0.0
C264 C 0.73642 0.74091 0.11254 0.0
O265 O 0.73329 0.73827 0.087 0.0
C266 C 0.68573 0.81641 0.05985 0.0
O267 O 0.76967 0.86038 -0.00384 0.0
C268 C 0.77642 0.76844 0.02808 0.0
C269 C 0.77694 0.89356 -0.00384 0.0
O270 O 0.77245 0.91148 0.01774 0.0
C271 C 0.81353 0.85603 0.07618 0.0
C272 C 0.8058 0.74453 0.02367 0.0
C273 C 0.81374 0.72072 0.04365 0.0
C274 C 0.83983 0.696 0.04032 0.0
C275 C 0.8583 0.69541 0.01679 0.0
C276 C 0.85055 0.71828 -0.00364 0.0
C277 C 0.82406 0.74291 -0.00034 0.0
O278 O 0.70429 0.79976 0.07754 0.0
O279 O 0.70052 0.83704 0.04263 0.0
O280 O 0.74694 0.84385 0.13683 0.0
O281 O 0.72604 0.869 0.1031 0.0
C282 C 0.73168 0.87161 0.1282 0.0
O283 O 0.79512 0.86616 0.05592 0.0
O284 O 0.80413 0.82829 0.08956 0.0
O285 O 0.76597 0.78798 0.00851 0.0
O286 O 0.77433 0.7838 0.05104 0.0
H287 H 0.79902 0.72098 0.06169 0.0
H288 H 0.87913 0.67697 0.01424 0.0
H289 H 0.81781 0.76043 0.98374 0.0
O290 O 0.73927 0.30616 0.85087 0.0
Tb291 Tb 0.74407 0.25697 0.872 0.0
Eu292 Eu 0.7554 0.2527 0.93898 0.0
C293 C 0.7237 0.33304 0.86162 0.0
O294 O 0.71513 0.33163 0.88649 0.0
C295 C 0.67978 0.2585 0.91328 0.0
O296 O 0.76982 0.22818 0.97742 0.0
C297 C 0.77647 0.31634 0.94127 0.0
C298 C 0.77217 0.19445 0.98002 0.0
O299 O 0.76229 0.17456 0.96057 0.0
C300 C 0.80887 0.2239 0.89693 0.0
C301 C 0.80769 0.33797 0.94444 0.0
C302 C 0.81764 0.3591 0.92331 0.0
C303 C 0.84639 0.38061 0.92544 0.0
C304 C 0.8649 0.38163 0.94888 0.0
C305 C 0.85559 0.3612 0.97036 0.0
C306 C 0.82659 0.33943 0.96828 0.0
O307 O 0.69378 0.26563 0.89034 0.0
O308 O 0.69776 0.24883 0.934 0.0
O309 O 0.74104 0.23343 0.83321 0.0
O310 O 0.73079 0.20253 0.86699 0.0
C311 C 0.73295 0.20259 0.84152 0.0
O312 O 0.79155 0.21572 0.91817 0.0
O313 O 0.79851 0.25033 0.88253 0.0
O314 O 0.76567 0.29891 0.9618 0.0
O315 O 0.77276 0.29945 0.91902 0.0
H316 H 0.80321 0.3586 0.90509 0.0
H317 H 0.88669 0.39907 0.95053 0.0
H318 H 0.8191 0.32372 -0.01508 0.0
O319 O 0.8773 0.77443 0.3462 0.0
Tb320 Tb 0.8727 0.81877 0.37251 0.0
Eu321 Eu 0.86447 0.83206 0.43752 0.0
C322 C 0.88504 0.74316 0.35487 0.0
O323 O 0.88398 0.73697 0.38019 0.0
C324 C 0.93548 0.81357 0.41194 0.0
O325 O 0.8528 0.86018 0.47497 0.0
C326 C 0.84296 0.76903 0.44446 0.0
C327 C 0.84716 0.89369 0.47543 0.0
O328 O 0.85298 0.91204 0.45419 0.0
C329 C 0.80811 0.85572 0.3951 0.0
C330 C 0.81111 0.74906 0.45014 0.0
C331 C 0.79504 0.73118 0.42948 0.0
C332 C 0.7658 0.71082 0.43404 0.0
C333 C 0.75228 0.70879 0.45935 0.0
C334 C 0.76815 0.72541 0.48038 0.0
C335 C 0.79781 0.74553 0.47592 0.0
O336 O 0.9161 0.79716 0.39479 0.0
O337 O 0.92141 0.83521 0.4287 0.0
O338 O 0.88032 0.84559 0.33551 0.0
O339 O 0.89446 0.87112 0.37088 0.0
C340 C 0.89272 0.87391 0.34542 0.0
O341 O 0.82661 0.86584 0.41531 0.0
O342 O 0.81805 0.82862 0.38121 0.0
O343 O 0.8558 0.78808 0.46338 0.0
O344 O 0.84549 0.78368 0.42119 0.0
H345 H 0.80581 0.73244 0.40991 0.0
H346 H 0.72919 0.69372 0.46292 0.0
H347 H 0.8103 0.75812 0.49231 0.0
O348 O 0.57777 0.60632 0.5964 0.0
Tb349 Tb 0.53268 0.60082 0.62164 0.0
Eu350 Eu 0.51835 0.59123 0.68666 0.0
C351 C 0.60884 0.61202 0.60597 0.0
O352 O 0.61419 0.60814 0.63124 0.0
C353 C 0.53666 0.6629 0.66152 0.0
O354 O 0.48928 0.57826 0.72344 0.0
C355 C 0.58127 0.56988 0.69382 0.0
C356 C 0.45593 0.57256 0.72312 0.0
O357 O 0.43837 0.57926 0.70167 0.0
C358 C 0.49523 0.53586 0.64323 0.0
C359 C 0.60249 0.53851 0.69906 0.0
C360 C 0.6191 0.52229 0.67787 0.0
C361 C 0.64178 0.49455 0.68203 0.0
C362 C 0.64754 0.48271 0.70755 0.0
C363 C 0.63239 0.49889 0.7291 0.0
C364 C 0.60942 0.52669 0.72492 0.0
O365 O 0.55381 0.64347 0.64483 0.0
O366 O 0.51502 0.64859 0.67815 0.0
O367 O 0.50675 0.60957 0.58443 0.0
O368 O 0.48082 0.62338 0.61969 0.0
C369 C 0.47849 0.62219 0.59419 0.0
O370 O 0.48515 0.55395 0.66366 0.0
O371 O 0.52241 0.54586 0.62958 0.0
O372 O 0.56177 0.5817 0.71285 0.0
O373 O 0.56685 0.57286 0.67051 0.0
H374 H 0.61533 0.53199 0.65812 0.0
H375 H 0.66443 0.46071 0.71084 0.0
H376 H 0.59801 0.53957 0.74164 0.0
O377 O 0.04928 0.46848 0.09316 0.0
Tb378 Tb 0.09142 0.47786 0.1205 0.0
Eu379 Eu 0.1023 0.48895 0.18555 0.0
C380 C 1.01675 0.46671 0.10038 0.0
O381 O 1.00774 0.47675 0.12396 0.0
C382 C 0.08525 0.41697 0.16113 0.0
O383 O 0.1299 0.50349 0.22267 0.0
C384 C 0.0384 0.50779 0.191 0.0
C385 C 0.16314 0.50985 0.22283 0.0
O386 O 0.18139 0.50288 0.20183 0.0
C387 C 0.12586 0.54432 0.14193 0.0
C388 C 1.01443 0.53711 0.19559 0.0
C389 C 0.99069 0.54521 0.17569 0.0
C390 C 0.96585 0.57114 0.17921 0.0
C391 C 0.96509 0.58934 0.20288 0.0
C392 C 0.98788 0.58141 0.22325 0.0
C393 C 1.01263 0.55507 0.21975 0.0
O394 O 0.0686 0.43629 0.14398 0.0
O395 O 0.10678 0.43152 0.17774 0.0
O396 O 0.11985 0.47031 0.08443 0.0
O397 O 0.14338 0.45522 0.1205 0.0
C398 C 0.14738 0.4573 0.09513 0.0
O399 O 0.1354 0.52687 0.16292 0.0
O400 O 0.09962 0.53331 0.12765 0.0
O401 O 0.05768 0.49703 0.21059 0.0
O402 O 0.05394 0.50614 0.16809 0.0
H403 H 0.99107 0.53068 0.15755 0.0
H404 H 0.94654 0.61006 0.20561 0.0
H405 H 1.03006 0.54867 0.23564 0.0
O406 O 0.57606 0.47358 0.37339 0.0
Tb407 Tb 0.53143 0.47847 0.34748 0.0
Eu408 Eu 0.51762 0.48755 0.28266 0.0
C409 C 0.60725 0.46689 0.36445 0.0
O410 O 0.61317 0.4693 0.33917 0.0
C411 C 0.5362 0.41573 0.30783 0.0
O412 O 0.48972 0.49888 0.24496 0.0
C413 C 0.58038 0.50957 0.27639 0.0
C414 C 0.45645 0.50503 0.24438 0.0
O415 O 0.43815 0.49978 0.26566 0.0
C416 C 0.49413 0.5434 0.32545 0.0
C417 C 0.60061 0.54191 0.27301 0.0
C418 C 0.6126 0.55935 0.2954 0.0
C419 C 0.63357 0.58853 0.29298 0.0
C420 C 0.64308 0.60032 0.26819 0.0
C421 C 0.63288 0.58278 0.24555 0.0
C422 C 0.61106 0.55375 0.24788 0.0
O423 O 0.55257 0.43496 0.32512 0.0
O424 O 0.51491 0.4301 0.29087 0.0
O425 O 0.5054 0.47034 0.38464 0.0
O426 O 0.47912 0.45714 0.34937 0.0
C427 C 0.47685 0.45845 0.37487 0.0
O428 O 0.48396 0.52509 0.30515 0.0
O429 O 0.52143 0.53343 0.33908 0.0
O430 O 0.56073 0.49967 0.25683 0.0
O431 O 0.56633 0.50389 0.2995 0.0
H432 H 0.60624 0.54999 0.31485 0.0
H433 H 0.66007 0.62251 0.26656 0.0
H434 H 0.60346 0.53981 0.23041 0.0
O435 O 0.04518 0.60957 0.87388 0.0
Tb436 Tb 0.08974 0.60387 0.84801 0.0
Eu437 Eu 0.10191 0.59408 0.78234 0.0
C438 C 1.01447 0.61847 0.86496 0.0
O439 O 1.00894 0.6186 0.83956 0.0
C440 C 0.08787 0.6664 0.80792 0.0
O441 O 0.12906 0.58003 0.74495 0.0
C442 C 0.03746 0.57773 0.77634 0.0
C443 C 0.16219 0.57308 0.7446 0.0
O444 O 0.18067 0.57899 0.76572 0.0
C445 C 0.12443 0.5376 0.82564 0.0
C446 C 1.01187 0.54984 0.77209 0.0
C447 C 0.98693 0.54497 0.79164 0.0
C448 C 0.96127 0.51985 0.78895 0.0
C449 C 0.96031 0.49978 0.76621 0.0
C450 C 0.98476 0.50386 0.74629 0.0
C451 C 1.01053 0.52938 0.74904 0.0
O452 O 0.07044 0.64788 0.82508 0.0
O453 O 0.10831 0.65108 0.79091 0.0
O454 O 0.11611 0.61164 0.88514 0.0
O455 O 0.14259 0.62382 0.84977 0.0
C456 C 0.1449 0.62276 0.87527 0.0
O457 O 0.13414 0.55502 0.80473 0.0
O458 O 0.09813 0.54863 0.83983 0.0
O459 O 0.0575 0.58684 0.75679 0.0
O460 O 0.05271 0.57926 0.79941 0.0
H461 H 0.9876 0.56075 0.80918 0.0
H462 H 0.94102 0.47967 0.76432 0.0
H463 H 1.02953 0.53276 0.73372 0.0
H464 H 0.06029 0.20028 0.12101 0.0
H465 H 1.02046 0.20342 0.19994 0.0
H466 H 0.07302 0.26183 0.12309 0.0
H467 H 1.0337 0.26561 0.20207 0.0
H468 H 0.10033 0.36949 0.20039 0.0
H469 H 0.08663 0.30736 0.20117 0.0
H470 H 0.03858 0.31683 0.12521 0.0
H471 H 0.05177 0.37835 0.12446 0.0
C472 C 0.05427 0.21405 0.1389 0.0
C473 C 0.03922 0.19667 0.1603 0.0
C474 C 0.06149 0.24952 0.14003 0.0
C475 C 0.05435 0.26884 0.16272 0.0
C476 C 0.03972 0.2515 0.18434 0.0
C477 C 1.03192 0.2159 0.18306 0.0
C478 C 0.08679 0.35829 0.1839 0.0
C479 C 0.07726 0.3791 0.16236 0.0
C480 C 0.07875 0.32272 0.18442 0.0
C481 C 0.06158 0.30698 0.16321 0.0
C482 C 0.05208 0.3279 0.14178 0.0
C483 C 0.05958 0.36334 0.14143 0.0
H484 H 0.98329 0.82931 0.45054 0.0
H485 H 0.97331 0.77849 0.37563 0.0
H486 H 0.04514 0.81533 0.45101 0.0
H487 H 1.03454 0.76496 0.37608 0.0
H488 H 0.15018 0.78784 0.37006 0.0
H489 H 0.08879 0.7998 0.37265 0.0
H490 H 0.08725 0.76241 0.45237 0.0
H491 H 0.14939 0.74998 0.44974 0.0
C492 C 0.99417 0.81518 0.43422 0.0
C493 C 0.97314 0.80518 0.41302 0.0
C494 C 1.02958 0.80697 0.43457 0.0
C495 C 0.04492 0.7891 0.41353 0.0
C496 C 1.02377 0.77901 0.3925 0.0
C497 C 0.9885 0.78672 0.39231 0.0
C498 C 0.13694 0.78202 0.38821 0.0
C499 C 0.15496 0.76781 0.40968 0.0
C500 C 0.10156 0.7888 0.38964 0.0
C501 C 0.08292 0.78203 0.41269 0.0
C502 C 0.10084 0.76811 0.43435 0.0
C503 C 0.1364 0.76076 0.43279 0.0
H504 H 0.60269 0.87624 0.69722 0.0
H505 H 0.55883 0.87973 0.61943 0.0
H506 H 0.58915 0.8142 0.69995 0.0
H507 H 0.54586 0.81818 0.6221 0.0
H508 H 0.56851 0.70135 0.6239 0.0
H509 H 0.58116 0.76301 0.62381 0.0
H510 H 0.53543 0.77292 0.70043 0.0
H511 H 0.52218 0.71068 0.70046 0.0
C512 C 0.59026 0.86386 0.68071 0.0
C513 C 0.58195 0.88312 0.65809 0.0
C514 C 0.5823 0.82835 0.68235 0.0
C515 C 0.56648 0.81113 0.66122 0.0
C516 C 0.55828 0.83046 0.63866 0.0
C517 C 0.56565 0.86589 0.63719 0.0
C518 C 0.56109 0.7165 0.64083 0.0
C519 C 0.54422 0.70084 0.6622 0.0
C520 C 0.56826 0.752 0.64069 0.0
C521 C 0.55928 0.77304 0.66207 0.0
C522 C 0.54287 0.75743 0.6837 0.0
C523 C 0.5351 0.72181 0.68365 0.0
H524 H 0.47088 0.30846 0.86725 0.0
H525 H 0.46243 0.30848 0.95147 0.0
H526 H 0.53161 0.29476 0.87054 0.0
H527 H 0.52323 0.29215 0.95509 0.0
H528 H 0.64251 0.28909 0.95286 0.0
H529 H 0.58128 0.30442 0.9523 0.0
H530 H 0.5702 0.25228 0.8778 0.0
H531 H 0.63142 0.23962 0.87776 0.0
C532 C 0.48206 0.30521 0.88657 0.0
C533 C 0.46172 0.3095 0.90907 0.0
C534 C 0.51706 0.29682 0.88854 0.0
C535 C 0.5329 0.29134 0.91312 0.0
C536 C 0.51251 0.29629 0.93575 0.0
C537 C 0.47747 0.30559 0.93374 0.0
C538 C 0.62672 0.28072 0.93655 0.0
C539 C 0.64181 0.26328 0.91531 0.0
C540 C 0.59146 0.28946 0.93617 0.0
C541 C 0.57023 0.28036 0.91474 0.0
C542 C 0.58539 0.26118 0.89424 0.0
C543 C 0.62062 0.25334 0.89433 0.0
H544 H 0.05859 0.70647 0.84568 0.0
H545 H 0.10236 0.71312 0.76808 0.0
H546 H 0.04707 0.76836 0.84506 0.0
H547 H 0.09036 0.77566 0.76742 0.0
H548 H 1.02379 0.87972 0.76993 0.0
H549 H 0.03796 0.81779 0.76782 0.0
H550 H 0.0818 0.8231 0.84544 0.0
H551 H 0.0681 0.88453 0.84753 0.0
C552 C 0.06577 0.7211 0.8284 0.0
C553 C 0.0815 0.70459 0.80693 0.0
C554 C 0.05926 0.75676 0.82812 0.0
C555 C 0.06783 0.77714 0.80623 0.0
C556 C 0.08325 0.76072 0.78455 0.0
C557 C 0.09032 0.72491 0.78499 0.0
C558 C 1.03661 0.8677 0.78648 0.0
C559 C 0.04468 0.8873 0.80891 0.0
C560 C 0.04489 0.83222 0.78521 0.0
C561 C 0.0609 0.81535 0.80651 0.0
C562 C 0.06919 0.83508 0.82877 0.0
C563 C 0.06141 0.87047 0.82989 0.0
H564 H 0.47383 0.75012 0.0209 0.0
H565 H 0.46872 0.79451 0.09839 0.0
H566 H 0.53571 0.7636 0.01909 0.0
H567 H 0.52997 0.80752 0.09661 0.0
H568 H 0.64607 0.78601 0.09745 0.0
H569 H 0.58475 0.77318 0.09648 0.0
H570 H 0.57735 0.81645 0.01866 0.0
H571 H 0.6393 0.82975 0.01966 0.0
C572 C 0.4858 0.76267 0.03753 0.0
C573 C 0.4661 0.77112 0.0598 0.0
C574 C 0.52123 0.7706 0.03642 0.0
C575 C 0.53794 0.78657 0.05775 0.0
C576 C 0.51815 0.79494 0.07993 0.0
C577 C 0.48285 0.78755 0.08087 0.0
C578 C 0.63155 0.79289 0.08005 0.0
C579 C 0.64787 0.80907 0.05865 0.0
C580 C 0.59621 0.7856 0.07956 0.0
C581 C 0.57594 0.79381 0.05753 0.0
C582 C 0.5922 0.80958 0.03589 0.0
C583 C 0.62768 0.81741 0.03654 0.0
H584 H 0.52223 0.36807 0.26864 0.0
H585 H 0.56865 0.37719 0.34527 0.0
H586 H 0.53591 0.30587 0.26852 0.0
H587 H 0.58179 0.31562 0.34519 0.0
H588 H 0.5591 0.19926 0.34983 0.0
H589 H 0.5466 0.26086 0.347 0.0
H590 H 0.58935 0.26393 0.26904 0.0
H591 H 0.60239 0.20168 0.27195 0.0
C592 C 0.53529 0.35692 0.28542 0.0
C593 C 0.54423 0.37783 0.30697 0.0
C594 C 0.54333 0.32131 0.28528 0.0
C595 C 0.55987 0.30565 0.30689 0.0
C596 C 0.56879 0.32665 0.32831 0.0
C597 C 0.56131 0.36212 0.32829 0.0
C598 C 0.56594 0.21289 0.33201 0.0
C599 C 0.58189 0.19529 0.31114 0.0
C600 C 0.55883 0.24837 0.33045 0.0
C601 C 0.56699 0.26749 0.30782 0.0
C602 C 0.58254 0.24996 0.28671 0.0
C603 C 0.59023 0.21433 0.28844 0.0
H604 H 0.13986 0.36115 0.5399 0.0
H605 H 0.15789 0.26059 0.5743 0.0
H606 H 0.07796 0.34835 0.53738 0.0
H607 H 0.09644 0.24764 0.57123 0.0
H608 H 0.98755 0.22553 0.53666 0.0
H609 H 0.04935 0.2388 0.53564 0.0
H610 H 1.0293 0.33765 0.57164 0.0
H611 H 0.96781 0.3242 0.57322 0.0
C612 C 0.13073 0.33622 0.54665 0.0
C613 C 0.15396 0.31196 0.55731 0.0
C614 C 0.09524 0.32894 0.54533 0.0
C615 C 0.0822 0.29691 0.55405 0.0
C616 C 0.10557 0.27241 0.56413 0.0
C617 C 0.14085 0.27996 0.566 0.0
C618 C 0.99629 0.25018 0.5442 0.0
C619 C 0.97258 0.27373 0.55503 0.0
C620 C 1.03173 0.25773 0.54372 0.0
C621 C 0.04433 0.28934 0.55351 0.0
C622 C 1.02051 0.31322 0.56373 0.0
C623 C 0.98523 0.30538 0.56473 0.0
H624 H 0.27218 0.20901 0.01209 0.0
H625 H 0.19273 0.19601 0.95387 0.0
H626 H 0.23165 0.19114 0.04634 0.0
H627 H 0.15306 0.17632 -0.01279 0.0
H628 H 0.07988 0.15436 0.05216 0.0
H629 H 0.11808 0.1849 0.02246 0.0
H630 H 0.20623 0.14034 0.06214 0.0
H631 H 0.16762 0.11153 0.09295 0.0
C632 C 0.2458 0.20321 0.00674 0.0
C633 C 0.2356 0.20386 0.98034 0.0
C634 C 0.22268 0.19225 0.02626 0.0
C635 C 0.18899 0.18151 0.01971 0.0
C636 C 0.17842 0.18457 -0.00661 0.0
C637 C 0.20128 0.19582 0.9741 0.0
C638 C 0.10743 0.15097 0.05447 0.0
C639 C 0.12069 0.13015 0.07472 0.0
C640 C 0.12949 0.16851 0.03736 0.0
C641 C 0.16555 0.16514 0.03955 0.0
C642 C 0.17876 0.14427 0.05995 0.0
C643 C 0.15661 0.12729 0.07746 0.0
H644 H 0.10721 0.96143 0.24521 0.0
H645 H 0.20857 1.0071 0.24267 0.0
H646 H 0.12734 0.92098 0.27946 0.0
H647 H 0.2287 0.96608 0.27571 0.0
H648 H 0.25409 0.84861 0.29862 0.0
H649 H 0.22986 0.89273 0.26913 0.0
H650 H 0.16143 0.92679 0.33038 0.0
H651 H 0.18627 0.88362 0.36017 0.0
C652 C 0.13341 0.96341 0.25238 0.0
C653 C 0.15638 0.9872 0.24102 0.0
C654 C 0.14501 0.94011 0.27174 0.0
C655 C 0.17976 0.94006 0.27972 0.0
C656 C 0.20198 0.96522 0.26957 0.0
C657 C 0.19034 0.98876 0.25075 0.0
C658 C 0.23404 0.86561 0.30583 0.0
C659 C 0.22239 0.86282 0.33179 0.0
C660 C 0.22014 0.89077 0.28898 0.0
C661 C 0.19368 0.91297 0.29753 0.0
C662 C 0.18164 0.90987 0.32331 0.0
C663 C 0.19612 0.88534 0.34036 0.0
H664 H 0.42245 0.88161 0.4554 0.0
H665 H 0.34436 0.8702 0.51472 0.0
H666 H 0.46279 0.90244 0.48784 0.0
H667 H 0.38564 0.88919 0.54815 0.0
H668 H 0.45108 0.96905 0.59313 0.0
H669 H 0.41165 0.9398 0.56319 0.0
H670 H 0.49878 0.89522 0.52256 0.0
H671 H 0.53772 0.92625 0.55136 0.0
C672 C 0.41435 0.8824 0.47571 0.0
C673 C 0.38019 0.87442 0.48247 0.0
C674 C 0.43762 0.89432 0.4945 0.0
C675 C 0.4277 0.89811 0.52088 0.0
C676 C 0.39415 0.88753 0.528 0.0
C677 C 0.3706 0.87592 0.50897 0.0
C678 C 0.46168 0.95322 0.57761 0.0
C679 C 0.49753 0.9505 0.57434 0.0
C680 C 0.43905 0.93598 0.56058 0.0
C681 C 0.4517 0.91494 0.54016 0.0
C682 C 0.48772 0.91173 0.53746 0.0
C683 C 0.51024 0.92957 0.55406 0.0
H684 H 0.39321 0.25149 0.79352 0.0
H685 H 0.40385 0.18123 0.85899 0.0
H686 H 0.42416 0.21075 0.7657 0.0
H687 H 0.43552 0.14087 0.83135 0.0
H688 H 0.45418 0.06227 0.76292 0.0
H689 H 0.42905 0.10147 0.79526 0.0
H690 H 0.48081 0.18758 0.7583 0.0
H691 H 0.50508 0.14819 0.72571 0.0
C692 C 0.402 0.22731 0.80198 0.0
C693 C 0.39591 0.21972 0.82853 0.0
C694 C 0.42021 0.20407 0.78609 0.0
C695 C 0.43289 0.17259 0.79629 0.0
C696 C 0.42611 0.16471 0.82272 0.0
C697 C 0.4079 0.18794 0.83861 0.0
C698 C 0.46132 0.08936 0.7625 0.0
C699 C 0.48217 0.10212 0.74223 0.0
C700 C 0.44665 0.11196 0.78086 0.0
C701 C 0.45235 0.14791 0.77919 0.0
C702 C 0.47521 0.16022 0.7599 0.0
C703 C 0.48978 0.13761 0.74156 0.0
H704 H 0.19575 0.86896 0.00901 0.0
H705 H 0.2757 0.87102 0.95058 0.0
H706 H 0.15463 0.89126 0.97747 0.0
H707 H 0.23397 0.89166 0.91799 0.0
H708 H 0.16606 0.97508 0.87917 0.0
H709 H 0.2059 0.9431 0.90724 0.0
H710 H 0.11997 0.88812 0.94147 0.0
H711 H 0.08038 0.92168 0.91459 0.0
C712 C 0.20409 0.87273 -0.01106 0.0
C713 C 0.23889 0.86814 0.98224 0.0
C714 C 0.18045 0.88567 0.9707 0.0
C715 C 0.19077 0.89403 0.945 0.0
C716 C 0.22509 0.88652 0.93771 0.0
C717 C 0.24894 0.87389 0.95619 0.0
C718 C 0.15576 0.95635 0.8929 0.0
C719 C 0.12001 0.95138 0.89495 0.0
C720 C 0.17867 0.93755 0.9088 0.0
C721 C 0.16649 0.91271 0.92684 0.0
C722 C 0.1306 0.90742 0.92839 0.0
C723 C 0.10773 0.92672 0.91291 0.0
H724 H 0.47339 0.92794 0.26099 0.0
H725 H 0.48268 1.00724 0.20195 0.0
H726 H 0.45172 0.88783 0.22865 0.0
H727 H 0.46281 0.96625 0.16859 0.0
H728 H 0.38139 0.90152 0.12476 0.0
H729 H 0.41184 0.94054 0.15435 0.0
H730 H 0.45738 0.85223 0.1936 0.0
H731 H 0.42518 0.8137 0.16521 0.0
C732 C 0.47205 0.93632 0.24073 0.0
C733 C 0.47968 0.97074 0.23402 0.0
C734 C 0.45959 0.91321 0.222 0.0
C735 C 0.45487 0.92359 0.19576 0.0
C736 C 0.46517 0.95739 0.18865 0.0
C737 C 0.47731 0.98077 0.20762 0.0
C738 C 0.39769 0.89058 0.13992 0.0
C739 C 0.40034 0.85452 0.14294 0.0
C740 C 0.41562 0.91296 0.15673 0.0
C741 C 0.43729 0.89986 0.17666 0.0
C742 C 0.44042 0.86363 0.1791 0.0
C743 C 0.42191 0.84136 0.16273 0.0
H744 H 0.41542 0.2383 0.49136 0.0
H745 H 0.33187 0.183 0.45508 0.0
H746 H 0.45548 0.21476 0.45899 0.0
H747 H 0.37175 0.15865 0.42296 0.0
H748 H 0.45181 0.13466 0.35948 0.0
H749 H 0.41065 0.16593 0.38667 0.0
H750 H 0.48056 0.15845 0.45239 0.0
H751 H 0.52204 0.12788 0.42503 0.0
C752 C 0.40545 0.2222 0.47575 0.0
C753 C 0.37046 0.21313 0.47528 0.0
C754 C 0.42847 0.20806 0.45753 0.0
C755 C 0.41706 0.18421 0.43858 0.0
C756 C 0.38153 0.17705 0.43709 0.0
C757 C 0.35853 0.19126 0.45532 0.0
C758 C 0.45837 0.13949 0.37978 0.0
C759 C 0.49035 0.12868 0.39002 0.0
C760 C 0.43469 0.15747 0.3954 0.0
C761 C 0.44231 0.16519 0.42171 0.0
C762 C 0.47404 0.15375 0.43207 0.0
C763 C 0.49772 0.13576 0.41645 0.0
H764 H 0.11678 0.13192 0.73264 0.0
H765 H 0.19945 0.06231 0.71248 0.0
H766 H 0.13814 0.1739 0.70037 0.0
H767 H 0.22082 0.10395 0.68028 0.0
H768 H 0.23333 0.17809 0.61004 0.0
H769 H 0.20751 0.1342 0.63838 0.0
H770 H 0.19097 0.21128 0.69817 0.0
H771 H 0.21675 0.25521 0.66987 0.0
C772 C 0.1389 0.12523 0.72075 0.0
C773 C 0.15631 0.0938 0.72486 0.0
C774 C 0.15144 0.1494 0.70256 0.0
C775 C 0.18142 0.14243 0.68793 0.0
C776 C 0.19761 0.11011 0.69108 0.0
C777 C 0.18534 0.08621 0.70946 0.0
C778 C 0.22437 0.18567 0.62929 0.0
C779 C 0.22724 0.2202 0.63768 0.0
C780 C 0.20955 0.16049 0.64553 0.0
C781 C 0.19685 0.16927 0.67045 0.0
C782 C 0.19996 0.20375 0.67892 0.0
C783 C 0.21514 0.22886 0.6628 0.0
H784 H 0.9247 1.00649 0.90102 0.0
H785 H 0.92895 0.9009 0.8743 0.0
H786 H 0.87267 0.99396 0.92576 0.0
H787 H 0.8784 0.88705 0.90085 0.0
H788 H 0.781 0.8701 0.94567 0.0
H789 H 0.82054 0.88966 0.91158 0.0
H790 H 0.85979 0.96772 0.96445 0.0
H791 H 0.819 0.94962 -0.00257 0.0
C792 C 0.91422 0.98052 0.90047 0.0
C793 C 0.93062 0.95455 0.88601 0.0
C794 C 0.88462 0.97315 0.91488 0.0
C795 C 0.87153 0.93922 0.916 0.0
C796 C 0.8873 0.91356 0.9004 0.0
C797 C 0.9164 0.92131 0.88526 0.0
C798 C 0.7976 0.89198 0.94964 0.0
C799 C 0.79689 0.90835 0.97419 0.0
C800 C 0.82056 0.90299 0.93021 0.0
C801 C 0.84382 0.93017 0.93511 0.0
C802 C 0.842 0.94723 0.95947 0.0
C803 C 0.8186 0.93672 0.9786 0.0
H804 H 0.8857 0.19721 0.67643 0.0
H805 H 0.91814 0.1415 0.60746 0.0
H806 H 0.89584 0.14618 0.70316 0.0
H807 H 0.92835 0.08969 0.63451 0.0
H808 H 0.88944 0.046 0.74389 0.0
H809 H 0.87246 0.08774 0.71039 0.0
H810 H 0.96898 0.07137 0.67027 0.0
H811 H 0.98583 1.02919 0.7035 0.0
C812 C 0.89497 0.17393 0.66696 0.0
C813 C 0.90125 0.17331 0.63989 0.0
C814 C 0.90042 0.14453 0.68226 0.0
C815 C 0.91244 0.11372 0.67092 0.0
C816 C 0.91902 0.11307 0.64378 0.0
C817 C 0.91325 0.14263 0.62833 0.0
C818 C 0.90672 0.05063 0.72761 0.0
C819 C 0.93924 1.03467 0.72665 0.0
C820 C 0.89707 0.07473 0.70849 0.0
C821 C 0.9197 0.08336 0.68798 0.0
C822 C 0.95098 0.06529 0.68581 0.0
C823 C 0.96067 0.04119 0.70496 0.0
H824 H 0.71011 0.139 0.36158 0.0
H825 H 0.65731 0.1125 0.43328 0.0
H826 H 0.76283 0.1506 0.38673 0.0
H827 H 0.70943 0.12408 0.45823 0.0
H828 H 0.81223 0.1193 0.49575 0.0
H829 H 0.76811 0.10056 0.46487 0.0
H830 H 0.78253 0.1941 0.41979 0.0
H831 H 0.82697 0.21274 0.45043 0.0
C832 C 0.70982 0.1357 0.38267 0.0
C833 C 0.6797 0.125 0.39554 0.0
C834 C 0.7399 0.14229 0.39703 0.0
C835 C 0.74037 0.13787 0.42442 0.0
C836 C 0.71014 0.12705 0.43712 0.0
C837 C 0.68016 0.12077 0.42285 0.0
C838 C 0.80662 0.13552 0.47893 0.0
C839 C 0.82279 0.16775 0.47577 0.0
C840 C 0.78115 0.12488 0.46134 0.0
C841 C 0.77143 0.14617 0.44019 0.0
C842 C 0.78947 0.17712 0.43588 0.0
C843 C 0.81488 0.18783 0.45352 0.0
H844 H 0.67648 0.91511 0.12478 0.0
H845 H 0.77038 0.89665 0.16776 0.0
H846 H 0.66228 0.96279 0.15411 0.0
H847 H 0.75847 0.94615 0.19552 0.0
H848 H 0.70957 1.0063 0.2614 0.0
H849 H 0.72686 0.96321 0.22981 0.0
H850 H 0.66934 1.01738 0.16948 0.0
H851 H 0.64964 0.05888 0.20219 0.0
C852 C 0.69436 0.92185 0.14027 0.0
C853 C 0.72417 0.9021 0.14439 0.0
C854 C 0.6865 0.94943 0.15699 0.0
C855 C 0.70897 0.95854 0.17764 0.0
C856 C 0.73975 0.9395 0.18064 0.0
C857 C 0.74687 0.91123 0.16456 0.0
C858 C 0.70101 1.00923 0.24129 0.0
C859 C 0.67833 1.03594 0.23421 0.0
C860 C 0.71111 0.98451 0.22295 0.0
C861 C 0.69967 0.9864 0.19674 0.0
C862 C 0.67813 1.01428 0.18948 0.0
C863 C 0.66714 1.03843 0.20812 0.0
H864 H 0.79703 0.22856 0.02295 0.0
H865 H 0.79318 0.12749 -0.01304 0.0
H866 H 0.83979 0.2074 0.0542 0.0
H867 H 0.83571 0.10637 0.0184 0.0
H868 H 0.95062 0.10787 0.04338 0.0
H869 H 0.89798 0.12239 0.02002 0.0
H870 H 0.85501 0.16534 0.09093 0.0
H871 H 0.90832 0.15047 0.1146 0.0
C872 C 0.80466 0.20162 0.02209 0.0
C873 C 0.79215 0.17985 0.00217 0.0
C874 C 0.82903 0.18947 0.04011 0.0
C875 C 0.84144 0.1554 0.03847 0.0
C876 C 0.82697 0.13294 0.01984 0.0
C877 C 0.80249 0.14501 0.00191 0.0
C878 C 0.92991 0.12024 0.05407 0.0
C879 C 0.93354 0.12821 0.08075 0.0
C880 C 0.89959 0.12823 0.04074 0.0
C881 C 0.87223 0.14468 0.05371 0.0
C882 C 0.87572 0.15261 0.08049 0.0
C883 C 0.90611 0.14415 0.09399 0.0
H884 H 0.63722 1.03114 0.76359 0.0
H885 H 0.72883 0.04823 0.71731 0.0
H886 H 0.657 0.07374 0.79528 0.0
H887 H 0.74878 0.09063 0.74926 0.0
H888 H 0.71283 0.13803 0.85647 0.0
H889 H 0.70129 0.08828 0.82824 0.0
H890 H 0.72819 0.14946 0.76032 0.0
H891 H 0.73998 0.19895 0.78857 0.0
C892 C 0.66192 0.04345 0.76044 0.0
C893 C 0.68129 1.03652 0.7378 0.0
C894 C 0.67332 0.06779 0.77868 0.0
C895 C 0.70427 0.08581 0.77461 0.0
C896 C 0.72456 0.07751 0.7527 0.0
C897 C 0.71325 0.05301 0.73452 0.0
C898 C 0.71644 0.14069 0.83552 0.0
C899 C 0.72707 0.1723 0.82463 0.0
C900 C 0.70979 0.11228 0.81937 0.0
C901 C 0.71387 0.11493 0.79207 0.0
C902 C 0.72527 0.14643 0.78131 0.0
C903 C 0.73173 0.17486 0.79744 0.0
H904 H 0.82817 0.86183 0.52107 0.0
H905 H 0.82051 0.95904 0.47936 0.0
H906 H 0.78498 0.88172 0.55223 0.0
H907 H 0.77768 0.97903 0.51081 0.0
H908 H 0.66509 0.97077 0.53932 0.0
H909 H 0.71764 0.95861 0.51527 0.0
H910 H 0.7668 0.92423 0.58678 0.0
H911 H 0.71352 0.93653 0.6111 0.0
C912 C 0.81795 0.88778 0.51892 0.0
C913 C 0.82732 0.90862 0.49744 0.0
C914 C 0.7933 0.89922 0.53689 0.0
C915 C 0.77752 0.93167 0.53368 0.0
C916 C 0.78897 0.9536 0.51346 0.0
C917 C 0.81366 0.94221 0.49554 0.0
C918 C 0.68712 0.96073 0.54999 0.0
C919 C 0.68525 0.95442 0.57704 0.0
C920 C 0.71737 0.95412 0.53624 0.0
C921 C 0.74651 0.94084 0.54918 0.0
C922 C 0.74473 0.9345 0.57633 0.0
C923 C 0.71434 0.94147 0.5902 0.0
H924 H 0.99649 0.04178 0.26608 0.0
H925 H 0.89678 1.03676 0.22847 0.0
H926 H 0.9777 0.99923 0.2984 0.0
H927 H 0.87798 0.99451 0.26097 0.0
H928 H 0.88209 0.88307 0.29352 0.0
H929 H 0.89587 0.93338 0.26685 0.0
H930 H 0.93666 0.98519 0.33508 0.0
H931 H 0.92274 0.93429 0.36199 0.0
C932 C 0.97033 1.03216 0.26501 0.0
C933 C 0.94828 0.04232 0.24447 0.0
C934 C 0.95954 1.00789 0.28363 0.0
C935 C 0.92654 0.99319 0.282 0.0
C936 C 0.90378 1.00498 0.26244 0.0
C937 C 0.9145 1.02935 0.24391 0.0
C938 C 0.89392 0.90521 0.30288 0.0
C939 C 0.90146 0.9048 0.32978 0.0
C940 C 0.90151 0.93418 0.28764 0.0
C941 C 0.91705 0.96339 0.29891 0.0
C942 C 0.92472 0.96301 0.32588 0.0
C943 C 0.91677 0.93398 0.34125 0.0
H944 H 0.79005 0.68038 0.51791 0.0
H945 H 0.70957 0.75346 0.49961 0.0
H946 H 0.753 0.6534 0.551 0.0
H947 H 0.67253 0.72686 0.53266 0.0
H948 H 0.60201 0.63688 0.55599 0.0
H949 H 0.64396 0.6694 0.53048 0.0
H950 H 0.7185 0.65809 0.59279 0.0
H951 H 0.67638 0.62537 0.61849 0.0
C952 C 0.76512 0.6918 0.52199 0.0
C953 C 0.75285 0.71934 0.50655 0.0
C954 C 0.7437 0.67611 0.54069 0.0
C955 C 0.70952 0.68749 0.54404 0.0
C956 C 0.69848 0.71704 0.5302 0.0
C957 C 0.71989 0.73275 0.51165 0.0
C958 C 0.6274 0.64099 0.56423 0.0
C959 C 0.63574 0.62843 0.58933 0.0
C960 C 0.65136 0.66005 0.54972 0.0
C961 C 0.68443 0.66691 0.55979 0.0
C962 C 0.69323 0.65339 0.58452 0.0
C963 C 0.66909 0.63457 0.5992 0.0
H964 H 0.59374 0.46452 0.76578 0.0
H965 H 0.69616 0.50208 0.75007 0.0
H966 H 0.61673 0.4277 0.80109 0.0
H967 H 0.71918 0.4652 0.78489 0.0
H968 H 0.74579 0.3523 0.81266 0.0
H969 H 0.72287 0.3987 0.7849 0.0
H970 H 0.65047 0.4263 0.84548 0.0
H971 H 0.67371 0.38036 0.87345 0.0
C972 C 0.62087 0.466 0.77064 0.0
C973 C 0.64313 0.48633 0.75539 0.0
C974 C 0.63413 0.4447 0.79064 0.0
C975 C 0.66988 0.44311 0.7954 0.0
C976 C 0.69164 0.46547 0.78142 0.0
C977 C 0.6784 0.48693 0.76176 0.0
C978 C 0.72528 0.3685 0.82018 0.0
C979 C 0.71174 0.36266 0.84531 0.0
C980 C 0.71221 0.39516 0.80433 0.0
C981 C 0.68487 0.41621 0.81305 0.0
C982 C 0.67144 0.41049 0.83821 0.0
C983 C 0.68496 0.38428 0.85426 0.0
H984 H 0.94797 0.47988 0.09273 0.0
H985 H 1.02942 0.40931 0.07171 0.0
H986 H 0.90787 0.44793 0.06487 0.0
H987 H 0.98931 0.37556 0.04584 0.0
H988 H 0.92438 0.35211 0.97392 0.0
H989 H 0.96219 0.37509 0.00709 0.0
H990 H 0.87382 0.40085 0.05497 0.0
H991 H 0.83575 0.37976 0.02015 0.0
C992 C 0.95714 0.45731 0.08228 0.0
C993 C 0.99195 0.4476 0.08379 0.0
C994 C 0.93407 0.43857 0.06655 0.0
C995 C 0.94506 0.40902 0.05261 0.0
C996 C 0.97975 0.39867 0.05531 0.0
C997 C 1.00292 0.41801 0.07027 0.0
C998 C 0.91306 0.36186 -0.00814 0.0
C999 C 0.87712 0.3643 -0.00564 0.0
C1000 C 0.93485 0.3751 0.01112 0.0
C1001 C 0.92143 0.39055 0.03393 0.0
C1002 C 0.88532 0.39013 0.03746 0.0
C1003 C 0.86338 0.37731 0.01779 0.0
H1004 H 0.89703 0.74931 0.30214 0.0
H1005 H 0.90836 0.67794 0.36686 0.0
H1006 H 0.92689 0.70875 0.27358 0.0
H1007 H 0.93884 0.63756 0.33834 0.0
H1008 H 0.95521 0.56076 0.2677 0.0
H1009 H 0.9309 0.599 0.30116 0.0
H1010 H 0.98395 0.68574 0.2662 0.0
H1011 H 1.00744 0.64744 0.23261 0.0
C1012 C 0.90571 0.7249 0.31028 0.0
C1013 C 0.90018 0.71698 0.33685 0.0
C1014 C 0.92327 0.70175 0.29396 0.0
C1015 C 0.93584 0.67 0.3037 0.0
C1016 C 0.92952 0.66168 0.33012 0.0
C1017 C 0.91198 0.68489 0.34648 0.0
C1018 C 0.96277 0.58773 0.26795 0.0
C1019 C 0.98368 0.60109 0.24792 0.0
C1020 C 0.94859 0.60977 0.28694 0.0
C1021 C 0.95488 0.64566 0.28612 0.0
C1022 C 0.9779 0.65842 0.26712 0.0
C1023 C 0.99197 0.63642 0.24818 0.0
H1024 H 0.67458 0.4507 0.3531 0.0
H1025 H 0.5994 0.44595 0.41535 0.0
H1026 H 0.71541 0.41818 0.38031 0.0
H1027 H 0.64009 0.4137 0.44237 0.0
H1028 H 0.70175 0.32726 0.47543 0.0
H1029 H 0.66586 0.35508 0.44215 0.0
H1030 H 0.75017 0.42277 0.42198 0.0
H1031 H 0.78617 0.39448 0.45536 0.0
C1032 C 0.66685 0.44308 0.37266 0.0
C1033 C 0.63359 0.45094 0.38198 0.0
C1034 C 0.69028 0.42439 0.38822 0.0
C1035 C 0.68084 0.41277 0.41334 0.0
C1036 C 0.64796 0.42154 0.42289 0.0
C1037 C 0.62471 0.44044 0.40748 0.0
C1038 C 0.71302 0.3471 0.4631 0.0
C1039 C 0.74683 0.35845 0.46772 0.0
C1040 C 0.69231 0.36348 0.44437 0.0
C1041 C 0.70487 0.39172 0.42983 0.0
C1042 C 0.73969 0.40113 0.43286 0.0
C1043 C 0.76046 0.38471 0.45175 0.0
H1044 H 0.97517 0.5188 0.69396 0.0
H1045 H 0.98663 0.43415 0.74836 0.0
H1046 H 0.95554 0.47827 0.66019 0.0
H1047 H 0.96497 0.39425 0.71603 0.0
H1048 H 0.93576 0.32187 0.65279 0.0
H1049 H 0.96793 0.36222 0.67959 0.0
H1050 H 0.90768 0.4469 0.64785 0.0
H1051 H 0.87751 0.4062 0.61935 0.0
C1052 C 0.97437 0.4914 0.69843 0.0
C1053 C 0.98252 0.47961 0.72373 0.0
C1054 C 0.96235 0.46814 0.6793 0.0
C1055 C 0.95783 0.43267 0.68521 0.0
C1056 C 0.96829 0.42094 0.71016 0.0
C1057 C 0.98076 0.44395 0.72893 0.0
C1058 C 0.92931 0.34912 0.65163 0.0
C1059 C 0.90368 0.36077 0.63428 0.0
C1060 C 0.94776 0.37247 0.66713 0.0
C1061 C 0.9404 0.40823 0.66647 0.0
C1062 C 0.91474 0.41984 0.64885 0.0
C1063 C 0.89698 0.39644 0.63271 0.0
H1064 H 0.831 0.68613 0.95137 0.0
H1065 H 0.91649 0.73803 -0.01204 0.0
H1066 H 0.86978 0.66251 0.91804 0.0
H1067 H 0.95533 0.71522 0.95452 0.0
H1068 H 1.01967 0.62918 0.91792 0.0
H1069 H 0.97863 0.65818 0.94655 0.0
H1070 H 0.90881 0.6716 0.88132 0.0
H1071 H 0.94966 0.64198 0.85272 0.0
C1072 C 0.85784 0.69376 0.9515 0.0
C1073 C 0.87069 0.71439 0.9719 0.0
C1074 C 0.88019 0.67998 0.93258 0.0
C1075 C 0.91589 0.68638 0.93383 0.0
C1076 C 0.92817 0.70908 0.95325 0.0
C1077 C 0.90586 0.72277 0.97211 0.0
C1078 C 0.99546 0.63801 0.90968 0.0
C1079 C 0.98808 0.63317 0.88297 0.0
C1080 C 0.97203 0.65507 0.92606 0.0
C1081 C 0.94052 0.6678 0.91621 0.0
C1082 C 0.93273 0.66214 0.88963 0.0
C1083 C 0.95623 0.64512 0.87322 0.0
H1084 H 0.70035 0.58496 0.2329 0.0
H1085 H 0.59955 0.6099 0.2026 0.0
H1086 H 0.72697 0.6198 0.19851 0.0
H1087 H 0.62632 0.64465 0.16767 0.0
H1088 H 0.69398 0.68744 0.09905 0.0
H1089 H 0.66892 0.64345 0.12779 0.0
H1090 H 0.72474 0.68603 0.19338 0.0
H1091 H 0.74938 0.73045 0.16479 0.0
C1092 C 0.68395 0.59701 0.21828 0.0
C1093 C 0.6479 0.59473 0.22036 0.0
C1094 C 0.69918 0.61724 0.19878 0.0
C1095 C 0.67874 0.63544 0.18069 0.0
C1096 C 0.64272 0.63088 0.18137 0.0
C1097 C 0.62738 0.6108 0.20118 0.0
C1098 C 0.70124 0.68722 0.11956 0.0
C1099 C 0.72383 0.71243 0.12963 0.0
C1100 C 0.68665 0.66214 0.13601 0.0
C1101 C 0.69488 0.66123 0.1628 0.0
C1102 C 0.71814 0.68588 0.17274 0.0
C1103 C 0.73221 0.71137 0.1564 0.0
H1104 H 0.30491 0.3608 0.45335 0.0
H1105 H 0.31701 0.4587 0.49307 0.0
H1106 H 0.3479 0.37824 0.42114 0.0
H1107 H 0.35967 0.47621 0.46065 0.0
H1108 H 0.46937 0.46712 0.42709 0.0
H1109 H 0.41906 0.45498 0.45388 0.0
H1110 H 0.36419 0.41955 0.3853 0.0
H1111 H 0.41511 0.43173 0.35829 0.0
C1112 C 0.31617 0.38634 0.4549 0.0
C1113 C 0.30786 0.40818 0.47601 0.0
C1114 C 0.34072 0.39636 0.43635 0.0
C1115 C 0.35753 0.42836 0.43859 0.0
C1116 C 0.34757 0.4511 0.4587 0.0
C1117 C 0.32295 0.44115 0.47718 0.0
C1118 C 0.44658 0.45678 0.41769 0.0
C1119 C 0.44612 0.45026 0.39064 0.0
C1120 C 0.41762 0.45014 0.433 0.0
C1121 C 0.38751 0.43666 0.42167 0.0
C1122 C 0.38706 0.42991 0.39457 0.0
C1123 C 0.41611 0.43685 0.37914 0.0
H1124 H 0.39136 0.53161 0.23974 0.0
H1125 H 0.48856 0.52402 0.19888 0.0
H1126 H 0.3716 0.57435 0.20786 0.0
H1127 H 0.46889 0.56715 0.16728 0.0
H1128 H 0.41434 0.63832 0.10745 0.0
H1129 H 0.42687 0.58508 0.13224 0.0
H1130 H 0.39153 0.63466 0.20312 0.0
H1131 H 0.37913 0.68712 0.17861 0.0
C1132 C 0.40825 0.53847 0.22367 0.0
C1133 C 0.44176 0.52484 0.22213 0.0
C1134 C 0.39699 0.56311 0.20549 0.0
C1135 C 0.41895 0.57457 0.18537 0.0
C1136 C 0.45136 0.55883 0.18254 0.0
C1137 C 0.46267 0.53421 0.20075 0.0
C1138 C 0.40924 0.6376 0.12831 0.0
C1139 C 0.39592 0.66678 0.14116 0.0
C1140 C 0.41635 0.60724 0.14246 0.0
C1141 C 0.4098 0.60557 0.16957 0.0
C1142 C 0.39619 0.63481 0.18219 0.0
C1143 C 0.38943 0.66503 0.16818 0.0
H1144 H 0.20626 0.65007 0.85857 0.0
H1145 H 0.1529 0.61364 0.92748 0.0
H1146 H 0.25703 0.66322 0.88555 0.0
H1147 H 0.20311 0.6267 0.95423 0.0
H1148 H 0.3145 0.72401 0.95345 0.0
H1149 H 0.27196 0.70528 0.92127 0.0
H1150 H 0.26323 0.60699 0.9611 0.0
H1151 H 0.30548 0.62574 -0.00654 0.0
C1152 C 0.20545 0.64485 0.87942 0.0
C1153 C 0.17571 0.63096 0.89099 0.0
C1154 C 0.23441 0.65237 0.89483 0.0
C1155 C 0.23415 0.64569 0.92196 0.0
C1156 C 0.20438 0.63154 0.93333 0.0
C1157 C 0.17549 0.62437 0.91804 0.0
C1158 C 0.30401 0.69814 0.95508 0.0
C1159 C 0.31306 0.67654 0.97624 0.0
C1160 C 0.27973 0.68738 0.93655 0.0
C1161 C 0.26391 0.65486 0.93888 0.0
C1162 C 0.27458 0.63244 0.95907 0.0
C1163 C 0.29896 0.64312 0.97752 0.0
H1164 H 0.23522 0.38781 0.6792 0.0
H1165 H 0.20573 0.44074 0.60799 0.0
H1166 H 0.2225 0.43955 0.70445 0.0
H1167 H 0.19285 0.49307 0.63347 0.0
H1168 H 0.22588 0.54302 0.7417 0.0
H1169 H 0.24476 0.49933 0.71044 0.0
H1170 H 0.14936 0.5109 0.66768 0.0
H1171 H 0.13048 0.55487 0.69875 0.0
C1172 C 0.22602 0.4106 0.66894 0.0
C1173 C 0.22134 0.41029 0.64167 0.0
C1174 C 0.21907 0.44036 0.68338 0.0
C1175 C 0.20706 0.4705 0.6709 0.0
C1176 C 0.2021 0.47019 0.64358 0.0
C1177 C 0.20942 0.44034 0.62903 0.0
C1178 C 0.20922 0.53687 0.72532 0.0
C1179 C 0.17647 0.55209 0.72294 0.0
C1180 C 0.21997 0.51167 0.70751 0.0
C1181 C 0.19828 0.50131 0.68688 0.0
C1182 C 0.16664 0.51838 0.68335 0.0
C1183 C 0.1558 0.54349 0.70124 0.0
H1184 H 0.31686 0.62803 0.47703 0.0
H1185 H 0.31164 0.72801 0.51464 0.0
H1186 H 0.35922 0.60905 0.50936 0.0
H1187 H 0.35426 0.70899 0.54682 0.0
H1188 H 0.41836 0.65257 0.61059 0.0
H1189 H 0.36797 0.66723 0.58351 0.0
H1190 H 0.42016 0.62708 0.51529 0.0
H1191 H 0.47001 0.61259 0.54212 0.0
C1192 C 0.32427 0.64577 0.49244 0.0
C1193 C 0.31116 0.67967 0.49306 0.0
C1194 C 0.3487 0.63495 0.51086 0.0
C1195 C 0.3604 0.65771 0.53039 0.0
C1196 C 0.34566 0.69084 0.53206 0.0
C1197 C 0.32134 0.70176 0.51353 0.0
C1198 C 0.41888 0.64693 0.58981 0.0
C1199 C 0.44802 0.63156 0.5784 0.0
C1200 C 0.39015 0.6553 0.57435 0.0
C1201 C 0.39001 0.64799 0.54734 0.0
C1202 C 0.4192 0.63246 0.53611 0.0
C1203 C 0.44789 0.62445 0.55144 0.0
H1204 H 0.2093 0.64304 0.3581 0.0
H1205 H 0.23915 0.69566 0.28696 0.0
H1206 H 0.19584 0.59097 0.33266 0.0
H1207 H 0.22574 0.64404 0.26166 0.0
H1208 H 0.2269 0.53971 0.2247 0.0
H1209 H 0.24659 0.58385 0.2553 0.0
H1210 H 0.15196 0.57381 0.29904 0.0
H1211 H 0.13231 0.52943 0.26863 0.0
C1212 C 0.21296 0.64342 0.33706 0.0
C1213 C 0.22511 0.67332 0.32444 0.0
C1214 C 0.20529 0.6137 0.32253 0.0
C1215 C 0.21002 0.61334 0.29521 0.0
C1216 C 0.22241 0.64328 0.28273 0.0
C1217 C 0.22976 0.67296 0.29718 0.0
C1218 C 0.21059 0.54633 0.24116 0.0
C1219 C 0.17785 0.53134 0.24404 0.0
C1220 C 0.22178 0.5718 0.25857 0.0
C1221 C 0.20058 0.58266 0.27932 0.0
C1222 C 0.16891 0.56594 0.28328 0.0
C1223 C 0.15762 0.54058 0.26578 0.0
H1224 H 0.16002 0.47207 0.0444 0.0
H1225 H 0.2047 0.4218 0.11207 0.0
H1226 H 0.20993 0.45626 0.01837 0.0
H1227 H 0.25524 0.40563 0.0857 0.0
H1228 H 0.30547 0.34463 0.01374 0.0
H1229 H 0.26538 0.36558 0.04692 0.0
H1230 H 0.27276 0.46872 0.01474 0.0
H1231 H 0.31262 0.44784 0.9814 0.0
C1232 C 0.18069 0.45774 0.05375 0.0
C1233 C 0.1785 0.448 0.0802 0.0
C1234 C 0.20945 0.44897 0.03888 0.0
C1235 C 0.23663 0.42997 0.05005 0.0
C1236 C 0.23462 0.42031 0.07662 0.0
C1237 C 0.20582 0.42953 0.09167 0.0
C1238 C 0.29907 0.37191 0.01403 0.0
C1239 C 0.31181 0.39447 -0.00534 0.0
C1240 C 0.27626 0.38393 0.03316 0.0
C1241 C 0.26563 0.41867 0.03319 0.0
C1242 C 0.28016 0.44167 0.01492 0.0
C1243 C 0.30308 0.42972 -0.00411 0.0
H1244 H 0.48566 0.5527 0.76939 0.0
H1245 H 0.3912 0.54478 0.72483 0.0
H1246 H 0.46469 0.50889 0.79981 0.0
H1247 H 0.37011 0.50128 0.75553 0.0
H1248 H 0.40754 0.43885 0.85796 0.0
H1249 H 0.42106 0.49156 0.83312 0.0
H1250 H 0.38932 0.4409 0.76168 0.0
H1251 H 0.37578 0.38876 0.78637 0.0
C1252 C 0.46008 0.54224 0.76642 0.0
C1253 C 0.44031 0.55185 0.74445 0.0
C1254 C 0.44802 0.51721 0.78395 0.0
C1255 C 0.416 0.50125 0.77982 0.0
C1256 C 0.39519 0.5127 0.75893 0.0
C1257 C 0.40719 0.5378 0.74145 0.0
C1258 C 0.40342 0.43918 0.83697 0.0
C1259 C 0.3908 0.40978 0.82403 0.0
C1260 C 0.41112 0.46926 0.82277 0.0
C1261 C 0.40597 0.47047 0.79548 0.0
C1262 C 0.39296 0.44106 0.78273 0.0
C1263 C 0.38554 0.41106 0.79683 0.0
H1264 H 0.2932 0.89319 0.09535 0.0
H1265 H 0.27762 0.96507 0.03133 0.0
H1266 H 0.27334 0.93686 0.12607 0.0
H1267 H 0.25618 1.00824 0.06218 0.0
H1268 H 0.15598 1.01643 0.11959 0.0
H1269 H 0.19752 0.99735 0.08696 0.0
H1270 H 0.27842 0.99997 0.14504 0.0
H1271 H 0.2372 1.02058 0.17758 0.0
C1272 C 0.28674 0.91865 0.0879 0.0
C1273 C 0.286 0.92533 0.06084 0.0
C1274 C 0.27534 0.9437 0.10552 0.0
C1275 C 0.26274 0.97561 0.09633 0.0
C1276 C 0.26542 0.98363 0.06962 0.0
C1277 C 0.2774 0.95882 0.05203 0.0
C1278 C 0.18283 1.01436 0.12519 0.0
C1279 C 0.19312 1.019 0.15133 0.0
C1280 C 0.20666 1.00348 0.10648 0.0
C1281 C 0.24099 0.9968 0.1137 0.0
C1282 C 0.25199 1.00464 0.13915 0.0
C1283 C 0.22831 1.01607 0.15775 0.0
H1284 H 0.38505 1.01529 0.28403 0.0
H1285 H 0.45864 1.02447 0.34727 0.0
H1286 H 0.34141 0.99577 0.31513 0.0
H1287 H 0.41487 1.00608 0.37826 0.0
H1288 H 0.32699 0.89369 0.36896 0.0
H1289 H 0.34613 0.93684 0.3375 0.0
H1290 H 0.35581 1.01195 0.39959 0.0
H1291 H 0.33564 0.96893 0.43113 0.0
C1292 C 0.39163 1.01408 0.30465 0.0
C1293 C 0.42558 1.02035 0.31312 0.0
C1294 C 0.36658 1.00314 0.32241 0.0
C1295 C 0.37494 0.99893 0.34897 0.0
C1296 C 0.40763 1.00927 0.35788 0.0
C1297 C 0.4328 1.0198 0.34009 0.0
C1298 C 0.33169 0.91979 0.37577 0.0
C1299 C 0.33079 0.92765 0.40261 0.0
C1300 C 0.34264 0.94459 0.35772 0.0
C1301 C 0.35304 0.97754 0.36625 0.0
C1302 C 0.3484 0.98657 0.39262 0.0
C1303 C 0.33708 0.96189 0.41063 0.0
H1304 H 0.33829 0.20134 0.59516 0.0
H1305 H 0.34707 0.12307 0.53505 0.0
H1306 H 0.36019 0.1604 0.62742 0.0
H1307 H 0.37043 0.08262 0.56735 0.0
H1308 H 0.39324 0.07747 0.68241 0.0
H1309 H 0.35262 0.10026 0.6501 0.0
H1310 H 0.43024 0.09109 0.59001 0.0
H1311 H 0.47131 0.0697 0.62231 0.0
C1312 C 0.34392 0.17516 0.58894 0.0
C1313 C 0.34173 0.16573 0.56242 0.0
C1314 C 0.35646 0.1517 0.60745 0.0
C1315 C 0.36731 0.11858 0.5997 0.0
C1316 C 0.36254 0.10818 0.57366 0.0
C1317 C 0.34949 0.13145 0.55522 0.0
C1318 C 0.40154 0.07999 0.66224 0.0
C1319 C 0.43579 0.07269 0.65503 0.0
C1320 C 0.37819 0.09272 0.64379 0.0
C1321 C 0.38849 0.09763 0.61774 0.0
C1322 C 0.42163 0.08724 0.61 0.0
C1323 C 0.44516 0.075 0.62851 0.0
H1324 H 0.29106 0.17858 0.86723 0.0
H1325 H 0.27726 0.10742 0.93185 0.0
H1326 H 0.27289 0.13372 0.8368 0.0
H1327 H 0.25747 0.06312 0.90133 0.0
H1328 H 0.15685 0.05543 0.8434 0.0
H1329 H 0.1982 0.0741 0.87602 0.0
H1330 H 0.27972 0.06868 0.8188 0.0
H1331 H 0.23872 0.04759 0.78621 0.0
C1332 C 0.28537 0.15307 0.87488 0.0
C1333 C 0.28458 0.14689 0.90202 0.0
C1334 C 0.27498 0.12733 0.85743 0.0
C1335 C 0.26336 0.09522 0.86686 0.0
C1336 C 0.26605 0.08781 0.89368 0.0
C1337 C 0.27704 0.1133 0.91109 0.0
C1338 C 0.18376 0.05642 0.83792 0.0
C1339 C 0.19417 0.05101 0.81186 0.0
C1340 C 0.20751 0.06725 0.8567 0.0
C1341 C 0.24195 0.07335 0.8497 0.0
C1342 C 0.25318 0.06448 0.82451 0.0
C1343 C 0.22958 0.05279 0.80586 0.0
H1344 H 0.93791 0.08375 0.80592 0.0
H1345 H 0.9866 0.08043 0.88195 0.0
H1346 H 0.89756 0.12726 0.82162 0.0
H1347 H 0.94614 0.12452 0.89774 0.0
H1348 H 0.84482 0.22557 0.85029 0.0
H1349 H 0.8903 0.18643 0.83541 0.0
H1350 H 0.88563 0.13165 0.90913 0.0
H1351 H 0.84046 0.17095 0.92406 0.0
C1352 C 0.94035 0.09257 0.82597 0.0
C1353 C 0.96582 0.07838 0.84257 0.0
C1354 C 0.91714 0.11784 0.83499 0.0
C1355 C 0.91825 0.12975 0.86106 0.0
C1356 C 0.94407 0.11593 0.87762 0.0
C1357 C 0.96759 0.09078 0.86849 0.0
C1358 C 0.8537 0.20544 0.86347 0.0
C1359 C 0.83871 0.20166 0.88845 0.0
C1360 C 0.87973 0.18269 0.85484 0.0
C1361 C 0.89187 0.15548 0.87092 0.0
C1362 C 0.87746 0.15233 0.89617 0.0
C1363 C 0.85127 0.1749 0.90472 0.0
H1364 H 0.77122 0.22661 0.62328 0.0
H1365 H 0.77517 0.1734 0.54909 0.0
H1366 H 0.72437 0.18838 0.63737 0.0
H1367 H 0.72905 0.13518 0.56316 0.0
H1368 H 0.62936 0.08266 0.5879 0.0
H1369 H 0.66907 0.12818 0.57361 0.0
H1370 H 0.71542 0.12918 0.65056 0.0
H1371 H 0.67568 0.08436 0.66482 0.0
C1372 C 0.76191 0.2071 0.60983 0.0
C1373 C 0.77727 0.2033 0.58501 0.0
C1374 C 0.73514 0.18486 0.618 0.0
C1375 C 0.72266 0.15828 0.60153 0.0
C1376 C 0.73737 0.15536 0.57641 0.0
C1377 C 0.76418 0.17733 0.56836 0.0
C1378 C 0.64764 0.09297 0.60189 0.0
C1379 C 0.64908 0.07956 0.62756 0.0
C1380 C 0.67075 0.11896 0.59363 0.0
C1381 C 0.6959 0.13258 0.6108 0.0
C1382 C 0.69641 0.11992 0.63671 0.0
C1383 C 0.67355 0.09387 0.64489 0.0
H1384 H 0.76893 0.85184 0.3498 0.0
H1385 H 0.77719 0.90861 0.42225 0.0
H1386 H 0.72191 0.89001 0.33583 0.0
H1387 H 0.7307 0.94685 0.40825 0.0
H1388 H 0.62937 0.99855 0.38417 0.0
H1389 H 0.66999 0.95392 0.39902 0.0
H1390 H 0.71285 0.94849 0.32111 0.0
H1391 H 0.67226 0.99242 0.30634 0.0
C1392 C 0.76058 0.8722 0.3629 0.0
C1393 C 0.77717 0.87692 0.3872 0.0
C1394 C 0.73367 0.89439 0.35478 0.0
C1395 C 0.72223 0.92192 0.37077 0.0
C1396 C 0.73822 0.92591 0.39539 0.0
C1397 C 0.76522 0.90393 0.4034 0.0
C1398 C 0.64706 0.98742 0.37011 0.0
C1399 C 0.64727 0.99933 0.34399 0.0
C1400 C 0.67071 0.96197 0.37869 0.0
C1401 C 0.69514 0.94736 0.36139 0.0
C1402 C 0.69443 0.95854 0.33509 0.0
C1403 C 0.67108 0.98408 0.3266 0.0
H1404 H 0.94441 0.99572 0.16663 0.0
H1405 H 0.99018 0.99991 0.08967 0.0
H1406 H 0.90429 0.95156 0.15159 0.0
H1407 H 0.9501 0.9553 0.07462 0.0
H1408 H 0.84469 0.90906 0.04932 0.0
H1409 H 0.88983 0.94815 0.06413 0.0
H1410 H 0.89624 0.89245 0.13739 0.0
H1411 H 0.8506 0.85336 0.12257 0.0
C1412 C 0.94631 0.98695 0.14653 0.0
C1413 C 0.97083 1.00166 0.12945 0.0
C1414 C 0.92322 0.96132 0.13789 0.0
C1415 C 0.92353 0.94957 0.11175 0.0
C1416 C 0.94857 0.96378 0.09479 0.0
C1417 C 0.97189 0.98927 0.10351 0.0
C1418 C 0.85586 0.9048 0.06853 0.0
C1419 C 0.84372 0.87777 0.08467 0.0
C1420 C 0.88207 0.92728 0.07702 0.0
C1421 C 0.89701 0.92384 0.10209 0.0
C1422 C 0.8853 0.89639 0.11808 0.0
C1423 C 0.85921 0.87365 0.10948 0.0
H1424 H 0.70913 0.47473 0.68107 0.0
H1425 H 0.61699 0.47738 0.63345 0.0
H1426 H 0.73835 0.44121 0.64773 0.0
H1427 H 0.64716 0.44585 0.59901 0.0
H1428 H 0.69567 0.35463 0.5572 0.0
H1429 H 0.6672 0.3888 0.59103 0.0
H1430 H 0.76283 0.44281 0.60578 0.0
H1431 H 0.79136 0.40737 0.57277 0.0
C1432 C 0.69519 0.46835 0.66333 0.0
C1433 C 0.66052 0.47808 0.66009 0.0
C1434 C 0.71213 0.44952 0.64403 0.0
C1435 C 0.69503 0.44051 0.62078 0.0
C1436 C 0.66083 0.45169 0.61697 0.0
C1437 C 0.64369 0.4702 0.6365 0.0
C1438 C 0.71053 0.37353 0.56804 0.0
C1439 C 0.74561 0.37837 0.56269 0.0
C1440 C 0.69422 0.3934 0.58712 0.0
C1441 C 0.71261 0.41885 0.60091 0.0
C1442 C 0.74797 0.42317 0.59578 0.0
C1443 C 0.76437 0.4029 0.57695 0.0
H1444 H 0.91016 0.38171 0.90478 0.0
H1445 H 0.8095 0.42837 0.89721 0.0
H1446 H 0.93335 0.423 0.8735 0.0
H1447 H 0.83292 0.4704 0.86563 0.0
H1448 H 0.8925 0.50369 0.78687 0.0
H1449 H 0.86018 0.47266 0.82053 0.0
H1450 H 0.94477 0.48615 0.8746 0.0
H1451 H 0.97771 0.51544 0.84077 0.0
C1452 C 0.893 0.40079 0.8962 0.0
C1453 C 0.85822 0.40221 0.90344 0.0
C1454 C 0.9063 0.42465 0.87857 0.0
C1455 C 0.88512 0.45053 0.86781 0.0
C1456 C 0.84981 0.4509 0.87393 0.0
C1457 C 0.83641 0.42682 0.89173 0.0
C1458 C 0.9039 0.50053 0.80612 0.0
C1459 C 0.93802 0.51107 0.81096 0.0
C1460 C 0.88527 0.48305 0.82541 0.0
C1461 C 0.90046 0.47618 0.84982 0.0
C1462 C 0.93288 0.49038 0.85563 0.0
C1463 C 0.95158 0.50756 0.83634 0.0
H1464 H 0.89746 0.58725 0.18423 0.0
H1465 H 0.97814 0.57564 0.12651 0.0
H1466 H 0.85965 0.61188 0.15076 0.0
H1467 H 0.93979 0.59902 0.09301 0.0
H1468 H 0.85641 0.62744 0.03556 0.0
H1469 H 0.88137 0.58993 0.06915 0.0
H1470 H 0.86764 0.67057 0.12662 0.0
H1471 H 0.84388 0.70862 0.09298 0.0
C1472 C 0.90699 0.58956 0.16436 0.0
C1473 C 0.94108 0.58022 0.15813 0.0
C1474 C 0.88525 0.6034 0.14525 0.0
C1475 C 0.89697 0.6075 0.11947 0.0
C1476 C 0.93009 0.59582 0.11276 0.0
C1477 C 0.95203 0.58242 0.13195 0.0
C1478 C 0.85856 0.63712 0.0554 0.0
C1479 C 0.8489 0.67129 0.0615 0.0
C1480 C 0.87261 0.61556 0.07458 0.0
C1481 C 0.87662 0.62754 0.1003 0.0
C1482 C 0.86455 0.66067 0.1069 0.0
C1483 C 0.85092 0.68244 0.08765 0.0
H1484 H 0.62967 0.65609 0.30697 0.0
H1485 H 0.67364 0.55795 0.32981 0.0
H1486 H 0.66263 0.68497 0.34131 0.0
H1487 H 0.70799 0.5867 0.36332 0.0
H1488 H 0.74087 0.64503 0.43623 0.0
H1489 H 0.70642 0.61537 0.40366 0.0
H1490 H 0.72033 0.70124 0.35019 0.0
H1491 H 0.75274 0.73212 0.38374 0.0
C1492 C 0.64621 0.64078 0.31962 0.0
C1493 C 0.64909 0.60494 0.31609 0.0
C1494 C 0.66545 0.65727 0.33898 0.0
C1495 C 0.68836 0.63824 0.35482 0.0
C1496 C 0.69034 0.60212 0.35168 0.0
C1497 C 0.67066 0.58559 0.33259 0.0
C1498 C 0.73634 0.65772 0.41759 0.0
C1499 C 0.74896 0.6912 0.41271 0.0
C1500 C 0.71693 0.6405 0.39877 0.0
C1501 C 0.71024 0.65605 0.3744 0.0
C1502 C 0.72429 0.68888 0.36903 0.0
C1503 C 0.74336 0.70636 0.38805 0.0
H1504 H 0.35202 0.72238 0.33859 0.0
H1505 H 0.35515 0.6754 0.41535 0.0
H1506 H 0.39641 0.68188 0.3236 0.0
H1507 H 0.39908 0.63492 0.4004 0.0
H1508 H 0.49682 0.58049 0.3718 0.0
H1509 H 0.45814 0.62671 0.38646 0.0
H1510 H 0.40311 0.62116 0.31304 0.0
H1511 H 0.44177 0.5754 0.29839 0.0
C1512 C 0.36239 0.70375 0.3524 0.0
C1513 C 0.34977 0.70245 0.37826 0.0
C1514 C 0.38775 0.68019 0.34372 0.0
C1515 C 0.40158 0.65472 0.36066 0.0
C1516 C 0.3896 0.65419 0.38673 0.0
C1517 C 0.3641 0.67747 0.39531 0.0
C1518 C 0.47676 0.5894 0.35864 0.0
C1519 C 0.47267 0.57395 0.33385 0.0
C1520 C 0.45427 0.61583 0.36715 0.0
C1521 C 0.42712 0.62794 0.35106 0.0
C1522 C 0.42374 0.61308 0.32599 0.0
C1523 C 0.44597 0.58652 0.3176 0.0
H1524 H 0.12466 0.58031 0.09487 0.0
H1525 H 0.17656 0.57748 0.16969 0.0
H1526 H 0.16351 0.6264 0.08035 0.0
H1527 H 0.21547 0.62295 0.15517 0.0
H1528 H 0.26808 0.7228 0.12915 0.0
H1529 H 0.22305 0.6829 0.14381 0.0
H1530 H 0.22252 0.63489 0.06751 0.0
H1531 H 0.26694 0.67486 0.05286 0.0
C1532 C 0.14405 0.58969 0.10836 0.0
C1533 C 0.14721 0.5749 0.13352 0.0
C1534 C 0.16667 0.61603 0.09994 0.0
C1535 C 0.19305 0.62867 0.11645 0.0
C1536 C 0.19545 0.61449 0.14186 0.0
C1537 C 0.17307 0.58807 0.15019 0.0
C1538 C 0.25803 0.70408 0.11537 0.0
C1539 C 0.27141 0.70233 0.08975 0.0
C1540 C 0.23231 0.68085 0.12386 0.0
C1541 C 0.21889 0.65523 0.10698 0.0
C1542 C 0.23162 0.65428 0.08113 0.0
C1543 C 0.25743 0.67727 0.07273 0.0
H1544 H 0.26444 0.35688 0.83794 0.0
H1545 H 0.26312 0.40334 0.91475 0.0
H1546 H 0.22021 0.39788 0.82333 0.0
H1547 H 0.21947 0.44444 0.90014 0.0
H1548 H 0.12245 0.501 0.87239 0.0
H1549 H 0.16071 0.4542 0.88686 0.0
H1550 H 0.21353 0.45806 0.81252 0.0
H1551 H 0.1752 0.50422 0.79804 0.0
C1552 C 0.25453 0.37554 0.85184 0.0
C1553 C 0.2676 0.3765 0.8776 0.0
C1554 C 0.22927 0.3994 0.84338 0.0
C1555 C 0.21602 0.42492 0.86042 0.0
C1556 C 0.22846 0.42515 0.88639 0.0
C1557 C 0.25382 0.4015 0.89478 0.0
C1558 C 0.14191 0.49157 0.85899 0.0
C1559 C 0.14547 0.50666 0.83398 0.0
C1560 C 0.16419 0.46481 0.86739 0.0
C1561 C 0.19062 0.45206 0.851 0.0
C1562 C 0.19344 0.46659 0.82573 0.0
C1563 C 0.1714 0.4934 0.81743 0.0
H1564 H 0.35134 0.35908 0.62909 0.0
H1565 H 0.35335 0.40829 0.55311 0.0
H1566 H 0.39679 0.39822 0.64419 0.0
H1567 H 0.39828 0.44741 0.56817 0.0
H1568 H 0.49701 0.49968 0.59645 0.0
H1569 H 0.45776 0.45416 0.58158 0.0
H1570 H 0.40428 0.45857 0.6556 0.0
H1571 H 0.44349 0.50359 0.67046 0.0
C1572 C 0.3617 0.37789 0.61547 0.0
C1573 C 0.34843 0.38028 0.58982 0.0
C1574 C 0.38765 0.40066 0.62421 0.0
C1575 C 0.40143 0.42636 0.60753 0.0
C1576 C 0.38885 0.42792 0.58164 0.0
C1577 C 0.36277 0.40543 0.57299 0.0
C1578 C 0.47719 0.49063 0.6097 0.0
C1579 C 0.47365 0.50557 0.63471 0.0
C1580 C 0.45438 0.46462 0.60107 0.0
C1581 C 0.42747 0.45246 0.61726 0.0
C1582 C 0.42471 0.46673 0.64256 0.0
C1583 C 0.44725 0.49286 0.65107 0.0
loop_
_geom_bond_atom_site_label_1
_geom_bond_atom_site_label_2
_geom_bond_distance
_geom_bond_site_symmetry_2
_ccdc_geom_bond_type
O0 Tb1 2.292 1_455 S
O0 C3 1.255 . S
Tb1 O0 2.292 1_655 S
Tb1 O17 2.326 . S
Tb1 O19 2.500 . S
Tb1 O20 2.473 . S
Tb1 O23 2.324 . S
Eu2 O6 2.292 . S
Eu2 C7 2.852 1_645 S
Eu2 O18 2.324 . S
Eu2 O22 2.326 . S
Eu2 O24 2.500 1_645 S
Eu2 O25 2.473 1_655 S
C3 O0 1.255 . S
C3 O4 1.247 . S
O4 C3 1.247 . S
C5 O17 1.242 . S
C5 O18 1.258 . S
O6 Eu2 2.292 . S
O6 C8 1.255 . S
C7 Eu2 2.852 1_465 S
C7 C11 1.503 . S
C7 O24 1.273 . S
C7 O25 1.257 1_565 S
C8 O6 1.255 . S
C8 O9 1.247 . S
O9 C8 1.247 . S
C10 O22 1.242 1_565 S
C10 O23 1.258 1_565 S
C11 C7 1.503 . S
C11 C12 1.379 . S
C11 C16 1.392 . S
C12 C11 1.379 . S
C12 C13 1.404 . S
C12 H26 0.929 . S
C13 C12 1.404 . S
C13 C14 1.389 . S
C14 C13 1.389 . S
C14 C15 1.399 . S
C14 H27 0.931 . S
C15 C14 1.399 . S
C15 C16 1.390 . S
C16 C11 1.392 . S
C16 C15 1.390 . S
C16 H28 0.929 . S
O17 Tb1 2.326 . S
O17 C5 1.242 . S
O18 Eu2 2.324 . S
O18 C5 1.258 . S
O19 Tb1 2.500 . S
O19 C21 1.273 . S
O20 Tb1 2.473 . S
O20 C21 1.257 . S
C21 O19 1.273 . S
C21 O20 1.257 . S
O22 Eu2 2.326 . S
O22 C10 1.242 1_545 S
O23 Tb1 2.324 . S
O23 C10 1.258 1_545 S
O24 Eu2 2.500 1_465 S
O24 C7 1.273 . S
O25 Eu2 2.473 1_455 S
O25 C7 1.257 1_545 S
H26 C12 0.929 . S
H27 C14 0.931 . S
H28 C16 0.929 . S
O29 Tb30 2.292 . S
O29 C32 1.255 . S
Tb30 O29 2.292 . S
Tb30 O46 2.326 . S
Tb30 O48 2.500 . S
Tb30 O49 2.473 . S
Tb30 O52 2.324 . S
Eu31 O35 2.292 . S
Eu31 C36 2.852 . S
Eu31 O47 2.324 . S
Eu31 O51 2.326 . S
Eu31 O53 2.500 . S
Eu31 O54 2.473 . S
C32 O29 1.255 . S
C32 O33 1.247 . S
O33 C32 1.247 . S
C34 O46 1.242 . S
C34 O47 1.258 . S
O35 Eu31 2.292 . S
O35 C37 1.255 . S
C36 Eu31 2.852 . S
C36 C40 1.503 . S
C36 O53 1.273 . S
C36 O54 1.257 . S
C37 O35 1.255 . S
C37 O38 1.247 . S
O38 C37 1.247 . S
C39 O51 1.242 . S
C39 O52 1.258 . S
C40 C36 1.503 . S
C40 C41 1.379 . S
C40 C45 1.392 . S
C41 C40 1.379 . S
C41 C42 1.404 . S
C41 H55 0.929 . S
C42 C41 1.404 . S
C42 C43 1.389 . S
C43 C42 1.389 . S
C43 C44 1.399 . S
C43 H56 0.931 . S
C44 C43 1.399 . S
C44 C45 1.390 . S
C45 C40 1.392 . S
C45 C44 1.390 . S
C45 H57 0.929 . S
O46 Tb30 2.326 . S
O46 C34 1.242 . S
O47 Eu31 2.324 . S
O47 C34 1.258 . S
O48 Tb30 2.500 . S
O48 C50 1.273 . S
O49 Tb30 2.473 . S
O49 C50 1.257 . S
C50 O48 1.273 . S
C50 O49 1.257 . S
O51 Eu31 2.326 . S
O51 C39 1.242 . S
O52 Tb30 2.324 . S
O52 C39 1.258 . S
O53 Eu31 2.500 . S
O53 C36 1.273 . S
O54 Eu31 2.473 . S
O54 C36 1.257 . S
H55 C41 0.929 . S
H56 C43 0.931 . S
H57 C45 0.929 . S
O58 Tb59 2.292 . S
O58 C61 1.255 . S
Tb59 O58 2.292 . S
Tb59 O75 2.326 . S
Tb59 O77 2.500 . S
Tb59 O78 2.473 . S
Tb59 O81 2.324 . S
Eu60 O64 2.292 . S
Eu60 C65 2.852 1_565 S
Eu60 O76 2.324 . S
Eu60 O80 2.326 . S
Eu60 O82 2.500 1_565 S
Eu60 O83 2.473 . S
C61 O58 1.255 . S
C61 O62 1.247 . S
O62 C61 1.247 . S
C63 O75 1.242 . S
C63 O76 1.258 . S
O64 Eu60 2.292 . S
O64 C66 1.255 . S
C65 Eu60 2.852 1_545 S
C65 C69 1.503 . S
C65 O82 1.273 . S
C65 O83 1.257 1_545 S
C66 O64 1.255 . S
C66 O67 1.247 . S
O67 C66 1.247 . S
C68 O80 1.242 1_545 S
C68 O81 1.258 1_545 S
C69 C65 1.503 . S
C69 C70 1.379 . S
C69 C74 1.392 . S
C70 C69 1.379 . S
C70 C71 1.404 . S
C70 H84 0.929 . S
C71 C70 1.404 . S
C71 C72 1.389 . S
C72 C71 1.389 . S
C72 C73 1.399 . S
C72 H85 0.931 . S
C73 C72 1.399 . S
C73 C74 1.390 . S
C74 C69 1.392 . S
C74 C73 1.390 . S
C74 H86 0.929 . S
O75 Tb59 2.326 . S
O75 C63 1.242 . S
O76 Eu60 2.324 . S
O76 C63 1.258 . S
O77 Tb59 2.500 . S
O77 C79 1.273 . S
O78 Tb59 2.473 . S
O78 C79 1.257 . S
C79 O77 1.273 . S
C79 O78 1.257 . S
O80 Eu60 2.326 . S
O80 C68 1.242 1_565 S
O81 Tb59 2.324 . S
O81 C68 1.258 1_565 S
O82 Eu60 2.500 1_545 S
O82 C65 1.273 . S
O83 Eu60 2.473 . S
O83 C65 1.257 1_565 S
H84 C70 0.929 . S
H85 C72 0.931 . S
H86 C74 0.929 . S
O87 Tb88 2.292 . S
O87 C90 1.255 . S
Tb88 O87 2.292 . S
Tb88 O104 2.326 . S
Tb88 O106 2.500 . S
Tb88 O107 2.473 . S
Tb88 O110 2.324 . S
Eu89 O93 2.292 . S
Eu89 C94 2.852 . S
Eu89 O105 2.324 . S
Eu89 O109 2.326 . S
Eu89 O111 2.500 . S
Eu89 O112 2.473 . S
C90 O87 1.255 . S
C90 O91 1.247 . S
O91 C90 1.247 . S
C92 O104 1.242 . S
C92 O105 1.258 . S
O93 Eu89 2.292 . S
O93 C95 1.255 . S
C94 Eu89 2.852 . S
C94 C98 1.503 . S
C94 O111 1.273 . S
C94 O112 1.257 . S
C95 O93 1.255 . S
C95 O96 1.247 . S
O96 C95 1.247 . S
C97 O109 1.242 . S
C97 O110 1.258 . S
C98 C94 1.503 . S
C98 C99 1.379 . S
C98 C103 1.392 . S
C99 C98 1.379 . S
C99 C100 1.404 . S
C99 H113 0.929 . S
C100 C99 1.404 . S
C100 C101 1.389 . S
C101 C100 1.389 . S
C101 C102 1.399 . S
C101 H114 0.931 . S
C102 C101 1.399 . S
C102 C103 1.390 . S
C103 C98 1.392 . S
C103 C102 1.390 . S
C103 H115 0.929 . S
O104 Tb88 2.326 . S
O104 C92 1.242 . S
O105 Eu89 2.324 . S
O105 C92 1.258 . S
O106 Tb88 2.500 . S
O106 C108 1.273 . S
O107 Tb88 2.473 . S
O107 C108 1.257 . S
C108 O106 1.273 . S
C108 O107 1.257 . S
O109 Eu89 2.326 . S
O109 C97 1.242 . S
O110 Tb88 2.324 . S
O110 C97 1.258 . S
O111 Eu89 2.500 . S
O111 C94 1.273 . S
O112 Eu89 2.473 . S
O112 C94 1.257 . S
H113 C99 0.929 . S
H114 C101 0.931 . S
H115 C103 0.929 . S
O116 Tb117 2.292 1_455 S
O116 C119 1.255 . S
Tb117 O116 2.292 1_655 S
Tb117 O133 2.326 . S
Tb117 O135 2.500 . S
Tb117 O136 2.473 . S
Tb117 O139 2.324 . S
Eu118 O122 2.292 . S
Eu118 C123 2.852 1_665 S
Eu118 O134 2.324 . S
Eu118 O138 2.326 . S
Eu118 O140 2.500 1_665 S
Eu118 O141 2.473 1_655 S
C119 O116 1.255 . S
C119 O120 1.247 . S
O120 C119 1.247 . S
C121 O133 1.242 . S
C121 O134 1.258 . S
O122 Eu118 2.292 . S
O122 C124 1.255 . S
C123 Eu118 2.852 1_445 S
C123 C127 1.503 . S
C123 O140 1.273 . S
C123 O141 1.257 1_545 S
C124 O122 1.255 . S
C124 O125 1.247 . S
O125 C124 1.247 . S
C126 O138 1.242 1_545 S
C126 O139 1.258 1_545 S
C127 C123 1.503 . S
C127 C128 1.379 . S
C127 C132 1.392 . S
C128 C127 1.379 . S
C128 C129 1.404 . S
C128 H142 0.929 . S
C129 C128 1.404 . S
C129 C130 1.389 . S
C130 C129 1.389 . S
C130 C131 1.399 . S
C130 H143 0.931 . S
C131 C130 1.399 . S
C131 C132 1.390 . S
C132 C127 1.392 . S
C132 C131 1.390 . S
C132 H144 0.929 . S
O133 Tb117 2.326 . S
O133 C121 1.242 . S
O134 Eu118 2.324 . S
O134 C121 1.258 . S
O135 Tb117 2.500 . S
O135 C137 1.273 . S
O136 Tb117 2.473 . S
O136 C137 1.257 . S
C137 O135 1.273 . S
C137 O136 1.257 . S
O138 Eu118 2.326 . S
O138 C126 1.242 1_565 S
O139 Tb117 2.324 . S
O139 C126 1.258 1_565 S
O140 Eu118 2.500 1_445 S
O140 C123 1.273 . S
O141 Eu118 2.473 1_455 S
O141 C123 1.257 1_565 S
H142 C128 0.929 . S
H143 C130 0.931 . S
H144 C132 0.929 . S
O145 Tb146 2.292 . S
O145 C148 1.255 . S
Tb146 O145 2.292 . S
Tb146 O162 2.326 . S
Tb146 O164 2.500 . S
Tb146 O165 2.473 . S
Tb146 O168 2.324 . S
Eu147 O151 2.292 . S
Eu147 C152 2.852 . S
Eu147 O163 2.324 . S
Eu147 O167 2.326 . S
Eu147 O169 2.500 . S
Eu147 O170 2.473 . S
C148 O145 1.255 . S
C148 O149 1.247 . S
O149 C148 1.247 . S
C150 O162 1.242 . S
C150 O163 1.258 . S
O151 Eu147 2.292 . S
O151 C153 1.255 . S
C152 Eu147 2.852 . S
C152 C156 1.503 . S
C152 O169 1.273 . S
C152 O170 1.257 . S
C153 O151 1.255 . S
C153 O154 1.247 . S
O154 C153 1.247 . S
C155 O167 1.242 . S
C155 O168 1.258 . S
C156 C152 1.503 . S
C156 C157 1.379 . S
C156 C161 1.392 . S
C157 C156 1.379 . S
C157 C158 1.404 . S
C157 H171 0.929 . S
C158 C157 1.404 . S
C158 C159 1.389 . S
C159 C158 1.389 . S
C159 C160 1.399 . S
C159 H172 0.931 . S
C160 C159 1.399 . S
C160 C161 1.390 . S
C161 C156 1.392 . S
C161 C160 1.390 . S
C161 H173 0.929 . S
O162 Tb146 2.326 . S
O162 C150 1.242 . S
O163 Eu147 2.324 . S
O163 C150 1.258 . S
O164 Tb146 2.500 . S
O164 C166 1.273 . S
O165 Tb146 2.473 . S
O165 C166 1.257 . S
C166 O164 1.273 . S
C166 O165 1.257 . S
O167 Eu147 2.326 . S
O167 C155 1.242 . S
O168 Tb146 2.324 . S
O168 C155 1.258 . S
O169 Eu147 2.500 . S
O169 C152 1.273 . S
O170 Eu147 2.473 . S
O170 C152 1.257 . S
H171 C157 0.929 . S
H172 C159 0.931 . S
H173 C161 0.929 . S
O174 Tb175 2.292 . S
O174 C177 1.255 . S
Tb175 O174 2.292 . S
Tb175 O191 2.326 . S
Tb175 O193 2.500 . S
Tb175 O194 2.473 . S
Tb175 O197 2.324 . S
Eu176 O180 2.292 . S
Eu176 C181 2.852 1_545 S
Eu176 O192 2.324 . S
Eu176 O196 2.326 . S
Eu176 O198 2.500 1_545 S
Eu176 O199 2.473 . S
C177 O174 1.255 . S
C177 O178 1.247 . S
O178 C177 1.247 . S
C179 O191 1.242 . S
C179 O192 1.258 . S
O180 Eu176 2.292 . S
O180 C182 1.255 . S
C181 Eu176 2.852 1_565 S
C181 C185 1.503 . S
C181 O198 1.273 . S
C181 O199 1.257 1_565 S
C182 O180 1.255 . S
C182 O183 1.247 . S
O183 C182 1.247 . S
C184 O196 1.242 1_565 S
C184 O197 1.258 1_565 S
C185 C181 1.503 . S
C185 C186 1.379 . S
C185 C190 1.392 . S
C186 C185 1.379 . S
C186 C187 1.404 . S
C186 H200 0.929 . S
C187 C186 1.404 . S
C187 C188 1.389 . S
C188 C187 1.389 . S
C188 C189 1.399 . S
C188 H201 0.931 . S
C189 C188 1.399 . S
C189 C190 1.390 . S
C190 C185 1.392 . S
C190 C189 1.390 . S
C190 H202 0.929 . S
O191 Tb175 2.326 . S
O191 C179 1.242 . S
O192 Eu176 2.324 . S
O192 C179 1.258 . S
O193 Tb175 2.500 . S
O193 C195 1.273 . S
O194 Tb175 2.473 . S
O194 C195 1.257 . S
C195 O193 1.273 . S
C195 O194 1.257 . S
O196 Eu176 2.326 . S
O196 C184 1.242 1_545 S
O197 Tb175 2.324 . S
O197 C184 1.258 1_545 S
O198 Eu176 2.500 1_565 S
O198 C181 1.273 . S
O199 Eu176 2.473 . S
O199 C181 1.257 1_545 S
H200 C186 0.929 . S
H201 C188 0.931 . S
H202 C190 0.929 . S
O203 Tb204 2.292 . S
O203 C206 1.255 . S
Tb204 O203 2.292 . S
Tb204 O220 2.326 . S
Tb204 O222 2.500 . S
Tb204 O223 2.473 . S
Tb204 O226 2.324 . S
Eu205 O209 2.292 . S
Eu205 C210 2.852 . S
Eu205 O221 2.324 . S
Eu205 O225 2.326 . S
Eu205 O227 2.500 . S
Eu205 O228 2.473 . S
C206 O203 1.255 . S
C206 O207 1.247 . S
O207 C206 1.247 . S
C208 O220 1.242 . S
C208 O221 1.258 . S
O209 Eu205 2.292 . S
O209 C211 1.255 . S
C210 Eu205 2.852 . S
C210 C214 1.503 . S
C210 O227 1.273 . S
C210 O228 1.257 . S
C211 O209 1.255 . S
C211 O212 1.247 . S
O212 C211 1.247 . S
C213 O225 1.242 . S
C213 O226 1.258 . S
C214 C210 1.503 . S
C214 C215 1.379 . S
C214 C219 1.392 . S
C215 C214 1.379 . S
C215 C216 1.404 . S
C215 H229 0.929 . S
C216 C215 1.404 . S
C216 C217 1.389 . S
C217 C216 1.389 . S
C217 C218 1.399 . S
C217 H230 0.931 . S
C218 C217 1.399 . S
C218 C219 1.390 . S
C219 C214 1.392 . S
C219 C218 1.390 . S
C219 H231 0.929 . S
O220 Tb204 2.326 . S
O220 C208 1.242 . S
O221 Eu205 2.324 . S
O221 C208 1.258 . S
O222 Tb204 2.500 . S
O222 C224 1.273 . S
O223 Tb204 2.473 . S
O223 C224 1.257 . S
C224 O222 1.273 . S
C224 O223 1.257 . S
O225 Eu205 2.326 . S
O225 C213 1.242 . S
O226 Tb204 2.324 . S
O226 C213 1.258 . S
O227 Eu205 2.500 . S
O227 C210 1.273 . S
O228 Eu205 2.473 . S
O228 C210 1.257 . S
H229 C215 0.929 . S
H230 C217 0.931 . S
H231 C219 0.929 . S
O232 Tb233 2.292 . S
O232 C235 1.255 . S
Tb233 O232 2.292 . S
Tb233 O249 2.326 . S
Tb233 O251 2.500 . S
Tb233 O252 2.473 . S
Tb233 O255 2.324 . S
Eu234 O238 2.292 . S
Eu234 C239 2.852 . S
Eu234 O250 2.324 . S
Eu234 O254 2.326 . S
Eu234 O256 2.500 . S
Eu234 O257 2.473 . S
C235 O232 1.255 . S
C235 O236 1.247 . S
O236 C235 1.247 . S
C237 O249 1.242 . S
C237 O250 1.258 . S
O238 Eu234 2.292 . S
O238 C240 1.255 . S
C239 Eu234 2.852 . S
C239 C243 1.503 . S
C239 O256 1.273 . S
C239 O257 1.257 . S
C240 O238 1.255 . S
C240 O241 1.247 . S
O241 C240 1.247 . S
C242 O254 1.242 . S
C242 O255 1.258 . S
C243 C239 1.503 . S
C243 C244 1.379 . S
C243 C248 1.392 . S
C244 C243 1.379 . S
C244 C245 1.404 . S
C244 H258 0.929 . S
C245 C244 1.404 . S
C245 C246 1.389 . S
C246 C245 1.389 . S
C246 C247 1.399 . S
C246 H259 0.931 . S
C247 C246 1.399 . S
C247 C248 1.390 . S
C248 C243 1.392 . S
C248 C247 1.390 . S
C248 H260 0.929 . S
O249 Tb233 2.326 . S
O249 C237 1.242 . S
O250 Eu234 2.324 . S
O250 C237 1.258 . S
O251 Tb233 2.500 . S
O251 C253 1.273 . S
O252 Tb233 2.473 . S
O252 C253 1.257 . S
C253 O251 1.273 . S
C253 O252 1.257 . S
O254 Eu234 2.326 . S
O254 C242 1.242 . S
O255 Tb233 2.324 . S
O255 C242 1.258 . S
O256 Eu234 2.500 . S
O256 C239 1.273 . S
O257 Eu234 2.473 . S
O257 C239 1.257 . S
H258 C244 0.929 . S
H259 C246 0.931 . S
H260 C248 0.929 . S
O261 Tb262 2.292 . S
O261 C264 1.255 . S
Tb262 O261 2.292 . S
Tb262 O278 2.326 . S
Tb262 O280 2.500 . S
Tb262 O281 2.473 . S
Tb262 O284 2.324 . S
Eu263 O267 2.292 . S
Eu263 C268 2.852 . S
Eu263 O279 2.324 . S
Eu263 O283 2.326 . S
Eu263 O285 2.500 . S
Eu263 O286 2.473 . S
C264 O261 1.255 . S
C264 O265 1.247 . S
O265 C264 1.247 . S
C266 O278 1.242 . S
C266 O279 1.258 . S
O267 Eu263 2.292 . S
O267 C269 1.255 . S
C268 Eu263 2.852 . S
C268 C272 1.503 . S
C268 O285 1.273 . S
C268 O286 1.257 . S
C269 O267 1.255 . S
C269 O270 1.247 . S
O270 C269 1.247 . S
C271 O283 1.242 . S
C271 O284 1.258 . S
C272 C268 1.503 . S
C272 C273 1.379 . S
C272 C277 1.392 . S
C273 C272 1.379 . S
C273 C274 1.404 . S
C273 H287 0.929 . S
C274 C273 1.404 . S
C274 C275 1.389 . S
C275 C274 1.389 . S
C275 C276 1.399 . S
C275 H288 0.931 . S
C276 C275 1.399 . S
C276 C277 1.390 . S
C277 C272 1.392 . S
C277 C276 1.390 . S
C277 H289 0.929 . S
O278 Tb262 2.326 . S
O278 C266 1.242 . S
O279 Eu263 2.324 . S
O279 C266 1.258 . S
O280 Tb262 2.500 . S
O280 C282 1.273 . S
O281 Tb262 2.473 . S
O281 C282 1.257 . S
C282 O280 1.273 . S
C282 O281 1.257 . S
O283 Eu263 2.326 . S
O283 C271 1.242 . S
O284 Tb262 2.324 . S
O284 C271 1.258 . S
O285 Eu263 2.500 . S
O285 C268 1.273 . S
O286 Eu263 2.473 . S
O286 C268 1.257 . S
H287 C273 0.929 . S
H288 C275 0.931 . S
H289 C277 0.929 . S
O290 Tb291 2.292 . S
O290 C293 1.255 . S
Tb291 O290 2.292 . S
Tb291 O307 2.326 . S
Tb291 O309 2.500 . S
Tb291 O310 2.473 . S
Tb291 O313 2.324 . S
Eu292 O296 2.292 . S
Eu292 C297 2.852 . S
Eu292 O308 2.324 . S
Eu292 O312 2.326 . S
Eu292 O314 2.500 . S
Eu292 O315 2.473 . S
C293 O290 1.255 . S
C293 O294 1.247 . S
O294 C293 1.247 . S
C295 O307 1.242 . S
C295 O308 1.258 . S
O296 Eu292 2.292 . S
O296 C298 1.255 . S
C297 Eu292 2.852 . S
C297 C301 1.503 . S
C297 O314 1.273 . S
C297 O315 1.257 . S
C298 O296 1.255 . S
C298 O299 1.247 . S
O299 C298 1.247 . S
C300 O312 1.242 . S
C300 O313 1.258 . S
C301 C297 1.503 . S
C301 C302 1.379 . S
C301 C306 1.392 . S
C302 C301 1.379 . S
C302 C303 1.404 . S
C302 H316 0.929 . S
C303 C302 1.404 . S
C303 C304 1.389 . S
C304 C303 1.389 . S
C304 C305 1.399 . S
C304 H317 0.931 . S
C305 C304 1.399 . S
C305 C306 1.390 . S
C306 C301 1.392 . S
C306 C305 1.390 . S
C306 H318 0.929 . S
O307 Tb291 2.326 . S
O307 C295 1.242 . S
O308 Eu292 2.324 . S
O308 C295 1.258 . S
O309 Tb291 2.500 . S
O309 C311 1.273 . S
O310 Tb291 2.473 . S
O310 C311 1.257 . S
C311 O309 1.273 . S
C311 O310 1.257 . S
O312 Eu292 2.326 . S
O312 C300 1.242 . S
O313 Tb291 2.324 . S
O313 C300 1.258 . S
O314 Eu292 2.500 . S
O314 C297 1.273 . S
O315 Eu292 2.473 . S
O315 C297 1.257 . S
H316 C302 0.929 . S
H317 C304 0.931 . S
H318 C306 0.929 . S
O319 Tb320 2.292 . S
O319 C322 1.255 . S
Tb320 O319 2.292 . S
Tb320 O336 2.326 . S
Tb320 O338 2.500 . S
Tb320 O339 2.473 . S
Tb320 O342 2.324 . S
Eu321 O325 2.292 . S
Eu321 C326 2.852 . S
Eu321 O337 2.324 . S
Eu321 O341 2.326 . S
Eu321 O343 2.500 . S
Eu321 O344 2.473 . S
C322 O319 1.255 . S
C322 O323 1.247 . S
O323 C322 1.247 . S
C324 O336 1.242 . S
C324 O337 1.258 . S
O325 Eu321 2.292 . S
O325 C327 1.255 . S
C326 Eu321 2.852 . S
C326 C330 1.503 . S
C326 O343 1.273 . S
C326 O344 1.257 . S
C327 O325 1.255 . S
C327 O328 1.247 . S
O328 C327 1.247 . S
C329 O341 1.242 . S
C329 O342 1.258 . S
C330 C326 1.503 . S
C330 C331 1.379 . S
C330 C335 1.392 . S
C331 C330 1.379 . S
C331 C332 1.404 . S
C331 H345 0.929 . S
C332 C331 1.404 . S
C332 C333 1.389 . S
C333 C332 1.389 . S
C333 C334 1.399 . S
C333 H346 0.931 . S
C334 C333 1.399 . S
C334 C335 1.390 . S
C335 C330 1.392 . S
C335 C334 1.390 . S
C335 H347 0.929 . S
O336 Tb320 2.326 . S
O336 C324 1.242 . S
O337 Eu321 2.324 . S
O337 C324 1.258 . S
O338 Tb320 2.500 . S
O338 C340 1.273 . S
O339 Tb320 2.473 . S
O339 C340 1.257 . S
C340 O338 1.273 . S
C340 O339 1.257 . S
O341 Eu321 2.326 . S
O341 C329 1.242 . S
O342 Tb320 2.324 . S
O342 C329 1.258 . S
O343 Eu321 2.500 . S
O343 C326 1.273 . S
O344 Eu321 2.473 . S
O344 C326 1.257 . S
H345 C331 0.929 . S
H346 C333 0.931 . S
H347 C335 0.929 . S
O348 Tb349 2.292 . S
O348 C351 1.255 . S
Tb349 O348 2.292 . S
Tb349 O365 2.326 . S
Tb349 O367 2.500 . S
Tb349 O368 2.473 . S
Tb349 O371 2.324 . S
Eu350 O354 2.292 . S
Eu350 C355 2.852 . S
Eu350 O366 2.324 . S
Eu350 O370 2.326 . S
Eu350 O372 2.500 . S
Eu350 O373 2.473 . S
C351 O348 1.255 . S
C351 O352 1.247 . S
O352 C351 1.247 . S
C353 O365 1.242 . S
C353 O366 1.258 . S
O354 Eu350 2.292 . S
O354 C356 1.255 . S
C355 Eu350 2.852 . S
C355 C359 1.503 . S
C355 O372 1.273 . S
C355 O373 1.257 . S
C356 O354 1.255 . S
C356 O357 1.247 . S
O357 C356 1.247 . S
C358 O370 1.242 . S
C358 O371 1.258 . S
C359 C355 1.503 . S
C359 C360 1.379 . S
C359 C364 1.392 . S
C360 C359 1.379 . S
C360 C361 1.404 . S
C360 H374 0.929 . S
C361 C360 1.404 . S
C361 C362 1.389 . S
C362 C361 1.389 . S
C362 C363 1.399 . S
C362 H375 0.931 . S
C363 C362 1.399 . S
C363 C364 1.390 . S
C364 C359 1.392 . S
C364 C363 1.390 . S
C364 H376 0.929 . S
O365 Tb349 2.326 . S
O365 C353 1.242 . S
O366 Eu350 2.324 . S
O366 C353 1.258 . S
O367 Tb349 2.500 . S
O367 C369 1.273 . S
O368 Tb349 2.473 . S
O368 C369 1.257 . S
C369 O367 1.273 . S
C369 O368 1.257 . S
O370 Eu350 2.326 . S
O370 C358 1.242 . S
O371 Tb349 2.324 . S
O371 C358 1.258 . S
O372 Eu350 2.500 . S
O372 C355 1.273 . S
O373 Eu350 2.473 . S
O373 C355 1.257 . S
H374 C360 0.929 . S
H375 C362 0.931 . S
H376 C364 0.929 . S
O377 Tb378 2.292 . S
O377 C380 1.255 1_455 S
Tb378 O377 2.292 . S
Tb378 O394 2.326 . S
Tb378 O396 2.500 . S
Tb378 O397 2.473 . S
Tb378 O400 2.324 . S
Eu379 O383 2.292 . S
Eu379 C384 2.852 . S
Eu379 O395 2.324 . S
Eu379 O399 2.326 . S
Eu379 O401 2.500 . S
Eu379 O402 2.473 . S
C380 O377 1.255 1_655 S
C380 O381 1.247 . S
O381 C380 1.247 . S
C382 O394 1.242 . S
C382 O395 1.258 . S
O383 Eu379 2.292 . S
O383 C385 1.255 . S
C384 Eu379 2.852 . S
C384 C388 1.503 1_455 S
C384 O401 1.273 . S
C384 O402 1.257 . S
C385 O383 1.255 . S
C385 O386 1.247 . S
O386 C385 1.247 . S
C387 O399 1.242 . S
C387 O400 1.258 . S
C388 C384 1.503 1_655 S
C388 C389 1.379 . S
C388 C393 1.392 . S
C389 C388 1.379 . S
C389 C390 1.404 . S
C389 H403 0.929 . S
C390 C389 1.404 . S
C390 C391 1.389 . S
C391 C390 1.389 . S
C391 C392 1.399 . S
C391 H404 0.931 . S
C392 C391 1.399 . S
C392 C393 1.390 . S
C393 C388 1.392 . S
C393 C392 1.390 . S
C393 H405 0.929 1_655 S
O394 Tb378 2.326 . S
O394 C382 1.242 . S
O395 Eu379 2.324 . S
O395 C382 1.258 . S
O396 Tb378 2.500 . S
O396 C398 1.273 . S
O397 Tb378 2.473 . S
O397 C398 1.257 . S
C398 O396 1.273 . S
C398 O397 1.257 . S
O399 Eu379 2.326 . S
O399 C387 1.242 . S
O400 Tb378 2.324 . S
O400 C387 1.258 . S
O401 Eu379 2.500 . S
O401 C384 1.273 . S
O402 Eu379 2.473 . S
O402 C384 1.257 . S
H403 C389 0.929 . S
H404 C391 0.931 . S
H405 C393 0.929 1_455 S
O406 Tb407 2.292 . S
O406 C409 1.255 . S
Tb407 O406 2.292 . S
Tb407 O423 2.326 . S
Tb407 O425 2.500 . S
Tb407 O426 2.473 . S
Tb407 O429 2.324 . S
Eu408 O412 2.292 . S
Eu408 C413 2.852 . S
Eu408 O424 2.324 . S
Eu408 O428 2.326 . S
Eu408 O430 2.500 . S
Eu408 O431 2.473 . S
C409 O406 1.255 . S
C409 O410 1.247 . S
O410 C409 1.247 . S
C411 O423 1.242 . S
C411 O424 1.258 . S
O412 Eu408 2.292 . S
O412 C414 1.255 . S
C413 Eu408 2.852 . S
C413 C417 1.503 . S
C413 O430 1.273 . S
C413 O431 1.257 . S
C414 O412 1.255 . S
C414 O415 1.247 . S
O415 C414 1.247 . S
C416 O428 1.242 . S
C416 O429 1.258 . S
C417 C413 1.503 . S
C417 C418 1.379 . S
C417 C422 1.392 . S
C418 C417 1.379 . S
C418 C419 1.404 . S
C418 H432 0.929 . S
C419 C418 1.404 . S
C419 C420 1.389 . S
C420 C419 1.389 . S
C420 C421 1.399 . S
C420 H433 0.931 . S
C421 C420 1.399 . S
C421 C422 1.390 . S
C422 C417 1.392 . S
C422 C421 1.390 . S
C422 H434 0.929 . S
O423 Tb407 2.326 . S
O423 C411 1.242 . S
O424 Eu408 2.324 . S
O424 C411 1.258 . S
O425 Tb407 2.500 . S
O425 C427 1.273 . S
O426 Tb407 2.473 . S
O426 C427 1.257 . S
C427 O425 1.273 . S
C427 O426 1.257 . S
O428 Eu408 2.326 . S
O428 C416 1.242 . S
O429 Tb407 2.324 . S
O429 C416 1.258 . S
O430 Eu408 2.500 . S
O430 C413 1.273 . S
O431 Eu408 2.473 . S
O431 C413 1.257 . S
H432 C418 0.929 . S
H433 C420 0.931 . S
H434 C422 0.929 . S
O435 Tb436 2.292 . S
O435 C438 1.255 1_455 S
Tb436 O435 2.292 . S
Tb436 O452 2.326 . S
Tb436 O454 2.500 . S
Tb436 O455 2.473 . S
Tb436 O458 2.324 . S
Eu437 O441 2.292 . S
Eu437 C442 2.852 . S
Eu437 O453 2.324 . S
Eu437 O457 2.326 . S
Eu437 O459 2.500 . S
Eu437 O460 2.473 . S
C438 O435 1.255 1_655 S
C438 O439 1.247 . S
O439 C438 1.247 . S
C440 O452 1.242 . S
C440 O453 1.258 . S
O441 Eu437 2.292 . S
O441 C443 1.255 . S
C442 Eu437 2.852 . S
C442 C446 1.503 1_455 S
C442 O459 1.273 . S
C442 O460 1.257 . S
C443 O441 1.255 . S
C443 O444 1.247 . S
O444 C443 1.247 . S
C445 O457 1.242 . S
C445 O458 1.258 . S
C446 C442 1.503 1_655 S
C446 C447 1.379 . S
C446 C451 1.392 . S
C447 C446 1.379 . S
C447 C448 1.404 . S
C447 H461 0.929 . S
C448 C447 1.404 . S
C448 C449 1.389 . S
C449 C448 1.389 . S
C449 C450 1.399 . S
C449 H462 0.931 . S
C450 C449 1.399 . S
C450 C451 1.390 . S
C451 C446 1.392 . S
C451 C450 1.390 . S
C451 H463 0.929 1_655 S
O452 Tb436 2.326 . S
O452 C440 1.242 . S
O453 Eu437 2.324 . S
O453 C440 1.258 . S
O454 Tb436 2.500 . S
O454 C456 1.273 . S
O455 Tb436 2.473 . S
O455 C456 1.257 . S
C456 O454 1.273 . S
C456 O455 1.257 . S
O457 Eu437 2.326 . S
O457 C445 1.242 . S
O458 Tb436 2.324 . S
O458 C445 1.258 . S
O459 Eu437 2.500 . S
O459 C442 1.273 . S
O460 Eu437 2.473 . S
O460 C442 1.257 . S
H461 C447 0.929 . S
H462 C449 0.931 . S
H463 C451 0.929 1_455 S
H464 C472 0.950 . S
H465 C477 0.950 . S
H466 C474 0.950 . S
H467 C476 0.950 . S
H468 C478 0.950 . S
H469 C480 0.950 . S
H470 C482 0.950 1_655 S
H471 C483 0.950 . S
C472 H464 0.950 . S
C472 C473 1.386 1_655 S
C472 C474 1.391 . S
C473 C472 1.386 1_455 S
C473 C477 1.393 . S
C474 H466 0.950 . S
C474 C472 1.391 . S
C474 C475 1.400 1_655 S
C475 C474 1.400 1_455 S
C475 C476 1.398 . S
C475 C481 1.491 . S
C476 H467 0.950 . S
C476 C475 1.398 . S
C476 C477 1.391 . S
C477 H465 0.950 . S
C477 C473 1.393 . S
C477 C476 1.391 . S
C478 H468 0.950 . S
C478 C479 1.386 . S
C478 C480 1.391 . S
C479 C478 1.386 . S
C479 C483 1.393 . S
C480 H469 0.950 . S
C480 C478 1.391 . S
C480 C481 1.400 . S
C481 C475 1.491 . S
C481 C480 1.400 . S
C481 C482 1.398 . S
C482 H470 0.950 1_455 S
C482 C481 1.398 . S
C482 C483 1.391 . S
C483 H471 0.950 . S
C483 C479 1.393 . S
C483 C482 1.391 . S
H484 C492 0.950 . S
H485 C497 0.950 . S
H486 C494 0.950 . S
H487 C496 0.950 1_455 S
H488 C498 0.950 . S
H489 C500 0.950 . S
H490 C502 0.950 . S
H491 C503 0.950 . S
C492 H484 0.950 . S
C492 C493 1.386 . S
C492 C494 1.391 . S
C493 C492 1.386 . S
C493 C497 1.393 . S
C494 H486 0.950 . S
C494 C492 1.391 . S
C494 C495 1.400 1_655 S
C495 C494 1.400 1_455 S
C495 C496 1.398 1_455 S
C495 C501 1.491 . S
C496 H487 0.950 1_655 S
C496 C495 1.398 1_655 S
C496 C497 1.391 . S
C497 H485 0.950 . S
C497 C493 1.393 . S
C497 C496 1.391 . S
C498 H488 0.950 . S
C498 C499 1.386 . S
C498 C500 1.391 . S
C499 C498 1.386 . S
C499 C503 1.393 . S
C500 H489 0.950 . S
C500 C498 1.391 . S
C500 C501 1.400 . S
C501 C495 1.491 . S
C501 C500 1.400 . S
C501 C502 1.398 . S
C502 H490 0.950 . S
C502 C501 1.398 . S
C502 C503 1.391 . S
C503 H491 0.950 . S
C503 C499 1.393 . S
C503 C502 1.391 . S
H504 C512 0.950 . S
H505 C517 0.950 . S
H506 C514 0.950 . S
H507 C516 0.950 . S
H508 C518 0.950 . S
H509 C520 0.950 . S
H510 C522 0.950 . S
H511 C523 0.950 . S
C512 H504 0.950 . S
C512 C513 1.386 . S
C512 C514 1.391 . S
C513 C512 1.386 . S
C513 C517 1.393 . S
C514 H506 0.950 . S
C514 C512 1.391 . S
C514 C515 1.400 . S
C515 C514 1.400 . S
C515 C516 1.398 . S
C515 C521 1.491 . S
C516 H507 0.950 . S
C516 C515 1.398 . S
C516 C517 1.391 . S
C517 H505 0.950 . S
C517 C513 1.393 . S
C517 C516 1.391 . S
C518 H508 0.950 . S
C518 C519 1.386 . S
C518 C520 1.391 . S
C519 C518 1.386 . S
C519 C523 1.393 . S
C520 H509 0.950 . S
C520 C518 1.391 . S
C520 C521 1.400 . S
C521 C515 1.491 . S
C521 C520 1.400 . S
C521 C522 1.398 . S
C522 H510 0.950 . S
C522 C521 1.398 . S
C522 C523 1.391 . S
C523 H511 0.950 . S
C523 C519 1.393 . S
C523 C522 1.391 . S
H524 C532 0.950 . S
H525 C537 0.950 . S
H526 C534 0.950 . S
H527 C536 0.950 . S
H528 C538 0.950 . S
H529 C540 0.950 . S
H530 C542 0.950 . S
H531 C543 0.950 . S
C532 H524 0.950 . S
C532 C533 1.386 . S
C532 C534 1.391 . S
C533 C532 1.386 . S
C533 C537 1.393 . S
C534 H526 0.950 . S
C534 C532 1.391 . S
C534 C535 1.400 . S
C535 C534 1.400 . S
C535 C536 1.398 . S
C535 C541 1.491 . S
C536 H527 0.950 . S
C536 C535 1.398 . S
C536 C537 1.391 . S
C537 H525 0.950 . S
C537 C533 1.393 . S
C537 C536 1.391 . S
C538 H528 0.950 . S
C538 C539 1.386 . S
C538 C540 1.391 . S
C539 C538 1.386 . S
C539 C543 1.393 . S
C540 H529 0.950 . S
C540 C538 1.391 . S
C540 C541 1.400 . S
C541 C535 1.491 . S
C541 C540 1.400 . S
C541 C542 1.398 . S
C542 H530 0.950 . S
C542 C541 1.398 . S
C542 C543 1.391 . S
C543 H531 0.950 . S
C543 C539 1.393 . S
C543 C542 1.391 . S
H544 C552 0.950 1_655 S
H545 C557 0.950 . S
H546 C554 0.950 1_655 S
H547 C556 0.950 . S
H548 C558 0.950 . S
H549 C560 0.950 . S
H550 C562 0.950 . S
H551 C563 0.950 . S
C552 H544 0.950 1_455 S
C552 C553 1.386 . S
C552 C554 1.391 . S
C553 C552 1.386 . S
C553 C557 1.393 . S
C554 H546 0.950 1_455 S
C554 C552 1.391 . S
C554 C555 1.400 . S
C555 C554 1.400 . S
C555 C556 1.398 . S
C555 C561 1.491 . S
C556 H547 0.950 . S
C556 C555 1.398 . S
C556 C557 1.391 . S
C557 H545 0.950 . S
C557 C553 1.393 . S
C557 C556 1.391 . S
C558 H548 0.950 . S
C558 C559 1.386 . S
C558 C560 1.391 . S
C559 C558 1.386 . S
C559 C563 1.393 1_455 S
C560 H549 0.950 . S
C560 C558 1.391 . S
C560 C561 1.400 . S
C561 C555 1.491 . S
C561 C560 1.400 . S
C561 C562 1.398 1_455 S
C562 H550 0.950 . S
C562 C561 1.398 1_655 S
C562 C563 1.391 . S
C563 H551 0.950 . S
C563 C559 1.393 1_655 S
C563 C562 1.391 . S
H564 C572 0.950 . S
H565 C577 0.950 . S
H566 C574 0.950 . S
H567 C576 0.950 . S
H568 C578 0.950 . S
H569 C580 0.950 . S
H570 C582 0.950 . S
H571 C583 0.950 . S
C572 H564 0.950 . S
C572 C573 1.386 . S
C572 C574 1.391 . S
C573 C572 1.386 . S
C573 C577 1.393 . S
C574 H566 0.950 . S
C574 C572 1.391 . S
C574 C575 1.400 . S
C575 C574 1.400 . S
C575 C576 1.398 . S
C575 C581 1.491 . S
C576 H567 0.950 . S
C576 C575 1.398 . S
C576 C577 1.391 . S
C577 H565 0.950 . S
C577 C573 1.393 . S
C577 C576 1.391 . S
C578 H568 0.950 . S
C578 C579 1.386 . S
C578 C580 1.391 . S
C579 C578 1.386 . S
C579 C583 1.393 . S
C580 H569 0.950 . S
C580 C578 1.391 . S
C580 C581 1.400 . S
C581 C575 1.491 . S
C581 C580 1.400 . S
C581 C582 1.398 . S
C582 H570 0.950 . S
C582 C581 1.398 . S
C582 C583 1.391 . S
C583 H571 0.950 . S
C583 C579 1.393 . S
C583 C582 1.391 . S
H584 C592 0.950 . S
H585 C597 0.950 . S
H586 C594 0.950 . S
H587 C596 0.950 . S
H588 C598 0.950 . S
H589 C600 0.950 . S
H590 C602 0.950 . S
H591 C603 0.950 . S
C592 H584 0.950 . S
C592 C593 1.386 . S
C592 C594 1.391 . S
C593 C592 1.386 . S
C593 C597 1.393 . S
C594 H586 0.950 . S
C594 C592 1.391 . S
C594 C595 1.400 . S
C595 C594 1.400 . S
C595 C596 1.398 . S
C595 C601 1.491 . S
C596 H587 0.950 . S
C596 C595 1.398 . S
C596 C597 1.391 . S
C597 H585 0.950 . S
C597 C593 1.393 . S
C597 C596 1.391 . S
C598 H588 0.950 . S
C598 C599 1.386 . S
C598 C600 1.391 . S
C599 C598 1.386 . S
C599 C603 1.393 . S
C600 H589 0.950 . S
C600 C598 1.391 . S
C600 C601 1.400 . S
C601 C595 1.491 . S
C601 C600 1.400 . S
C601 C602 1.398 . S
C602 H590 0.950 . S
C602 C601 1.398 . S
C602 C603 1.391 . S
C603 H591 0.950 . S
C603 C599 1.393 . S
C603 C602 1.391 . S
H604 C612 0.950 . S
H605 C617 0.950 . S
H606 C614 0.950 . S
H607 C616 0.950 . S
H608 C618 0.950 . S
H609 C620 0.950 1_455 S
H610 C622 0.950 . S
H611 C623 0.950 . S
C612 H604 0.950 . S
C612 C613 1.386 . S
C612 C614 1.391 . S
C613 C612 1.386 . S
C613 C617 1.393 . S
C614 H606 0.950 . S
C614 C612 1.391 . S
C614 C615 1.400 . S
C615 C614 1.400 . S
C615 C616 1.398 . S
C615 C621 1.491 . S
C616 H607 0.950 . S
C616 C615 1.398 . S
C616 C617 1.391 . S
C617 H605 0.950 . S
C617 C613 1.393 . S
C617 C616 1.391 . S
C618 H608 0.950 . S
C618 C619 1.386 . S
C618 C620 1.391 . S
C619 C618 1.386 . S
C619 C623 1.393 . S
C620 H609 0.950 1_655 S
C620 C618 1.391 . S
C620 C621 1.400 1_655 S
C621 C615 1.491 . S
C621 C620 1.400 1_455 S
C621 C622 1.398 1_455 S
C622 H610 0.950 . S
C622 C621 1.398 1_655 S
C622 C623 1.391 . S
C623 H611 0.950 . S
C623 C619 1.393 . S
C623 C622 1.391 . S
H624 C632 0.950 . S
H625 C637 0.950 . S
H626 C634 0.936 1_554 S
H627 C636 0.950 . S
H628 C638 0.950 . S
H629 C640 0.968 . S
H630 C642 0.950 . S
H631 C643 0.950 . S
C632 H624 0.950 . S
C632 C633 1.386 . S
C632 C634 1.404 . S
C633 C632 1.386 . S
C633 C637 1.393 . S
C634 H626 0.936 1_556 S
C634 C632 1.404 . S
C634 C635 1.402 . S
C635 C634 1.402 . S
C635 C636 1.398 . S
C635 C641 1.491 1_556 S
C636 H627 0.950 . S
C636 C635 1.398 . S
C636 C637 1.391 . S
C637 H625 0.950 . S
C637 C633 1.393 . S
C637 C636 1.391 . S
C638 H628 0.950 . S
C638 C639 1.386 . S
C638 C640 1.391 . S
C639 C638 1.386 . S
C639 C643 1.393 . S
C640 H629 0.968 . S
C640 C638 1.391 . S
C640 C641 1.400 . S
C641 C635 1.491 1_554 S
C641 C640 1.400 . S
C641 C642 1.398 . S
C642 H630 0.950 . S
C642 C641 1.398 . S
C642 C643 1.391 . S
C643 H631 0.950 . S
C643 C639 1.393 . S
C643 C642 1.391 . S
H644 C652 0.950 . S
H645 C657 0.950 . S
H646 C654 0.950 . S
H647 C656 0.950 . S
H648 C658 0.950 . S
H649 C660 0.950 . S
H650 C662 0.950 . S
H651 C663 0.950 . S
C652 H644 0.950 . S
C652 C653 1.386 . S
C652 C654 1.391 . S
C653 C652 1.386 . S
C653 C657 1.393 . S
C654 H646 0.950 . S
C654 C652 1.391 . S
C654 C655 1.400 . S
C655 C654 1.400 . S
C655 C656 1.398 . S
C655 C661 1.491 . S
C656 H647 0.950 . S
C656 C655 1.398 . S
C656 C657 1.391 . S
C657 H645 0.950 . S
C657 C653 1.393 . S
C657 C656 1.391 . S
C658 H648 0.950 . S
C658 C659 1.386 . S
C658 C660 1.391 . S
C659 C658 1.386 . S
C659 C663 1.393 . S
C660 H649 0.950 . S
C660 C658 1.391 . S
C660 C661 1.400 . S
C661 C655 1.491 . S
C661 C660 1.400 . S
C661 C662 1.398 . S
C662 H650 0.950 . S
C662 C661 1.398 . S
C662 C663 1.391 . S
C663 H651 0.950 . S
C663 C659 1.393 . S
C663 C662 1.391 . S
H664 C672 0.950 . S
H665 C677 0.950 . S
H666 C674 0.950 . S
H667 C676 0.950 . S
H668 C678 0.950 . S
H669 C680 0.950 . S
H670 C682 0.950 . S
H671 C683 0.950 . S
C672 H664 0.950 . S
C672 C673 1.386 . S
C672 C674 1.391 . S
C673 C672 1.386 . S
C673 C677 1.393 . S
C674 H666 0.950 . S
C674 C672 1.391 . S
C674 C675 1.400 . S
C675 C674 1.400 . S
C675 C676 1.398 . S
C675 C681 1.491 . S
C676 H667 0.950 . S
C676 C675 1.398 . S
C676 C677 1.391 . S
C677 H665 0.950 . S
C677 C673 1.393 . S
C677 C676 1.391 . S
C678 H668 0.950 . S
C678 C679 1.386 . S
C678 C680 1.391 . S
C679 C678 1.386 . S
C679 C683 1.393 . S
C680 H669 0.950 . S
C680 C678 1.391 . S
C680 C681 1.400 . S
C681 C675 1.491 . S
C681 C680 1.400 . S
C681 C682 1.398 . S
C682 H670 0.950 . S
C682 C681 1.398 . S
C682 C683 1.391 . S
C683 H671 0.950 . S
C683 C679 1.393 . S
C683 C682 1.391 . S
H684 C692 0.950 . S
H685 C697 0.950 . S
H686 C694 0.950 . S
H687 C696 0.950 . S
H688 C698 0.950 . S
H689 C700 0.950 . S
H690 C702 0.950 . S
H691 C703 0.950 . S
C692 H684 0.950 . S
C692 C693 1.386 . S
C692 C694 1.391 . S
C693 C692 1.386 . S
C693 C697 1.393 . S
C694 H686 0.950 . S
C694 C692 1.391 . S
C694 C695 1.400 . S
C695 C694 1.400 . S
C695 C696 1.398 . S
C695 C701 1.491 . S
C696 H687 0.950 . S
C696 C695 1.398 . S
C696 C697 1.391 . S
C697 H685 0.950 . S
C697 C693 1.393 . S
C697 C696 1.391 . S
C698 H688 0.950 . S
C698 C699 1.386 . S
C698 C700 1.391 . S
C699 C698 1.386 . S
C699 C703 1.393 . S
C700 H689 0.950 . S
C700 C698 1.391 . S
C700 C701 1.400 . S
C701 C695 1.491 . S
C701 C700 1.400 . S
C701 C702 1.398 . S
C702 H690 0.950 . S
C702 C701 1.398 . S
C702 C703 1.391 . S
C703 H691 0.950 . S
C703 C699 1.393 . S
C703 C702 1.391 . S
H704 C712 0.950 . S
H705 C717 0.950 . S
H706 C714 0.950 . S
H707 C716 0.942 1_556 S
H708 C718 0.950 . S
H709 C720 0.950 . S
H710 C722 0.949 1_554 S
H711 C723 0.950 . S
C712 H704 0.950 . S
C712 C713 1.386 . S
C712 C714 1.391 . S
C713 C712 1.386 . S
C713 C717 1.393 . S
C714 H706 0.950 . S
C714 C712 1.391 . S
C714 C715 1.400 . S
C715 C714 1.400 . S
C715 C716 1.399 . S
C715 C721 1.491 1_554 S
C716 H707 0.942 1_554 S
C716 C715 1.399 . S
C716 C717 1.397 . S
C717 H705 0.950 . S
C717 C713 1.393 . S
C717 C716 1.397 . S
C718 H708 0.950 . S
C718 C719 1.386 . S
C718 C720 1.391 . S
C719 C718 1.386 . S
C719 C723 1.393 . S
C720 H709 0.950 . S
C720 C718 1.391 . S
C720 C721 1.400 . S
C721 C715 1.491 1_556 S
C721 C720 1.400 . S
C721 C722 1.398 . S
C722 H710 0.949 1_556 S
C722 C721 1.398 . S
C722 C723 1.391 . S
C723 H711 0.950 . S
C723 C719 1.393 . S
C723 C722 1.391 . S
H724 C732 0.950 . S
H725 C737 0.950 . S
H726 C734 0.950 . S
H727 C736 0.950 . S
H728 C738 0.950 . S
H729 C740 0.950 . S
H730 C742 0.950 . S
H731 C743 0.950 . S
C732 H724 0.950 . S
C732 C733 1.386 . S
C732 C734 1.391 . S
C733 C732 1.386 . S
C733 C737 1.393 . S
C734 H726 0.950 . S
C734 C732 1.391 . S
C734 C735 1.400 . S
C735 C734 1.400 . S
C735 C736 1.398 . S
C735 C741 1.491 . S
C736 H727 0.950 . S
C736 C735 1.398 . S
C736 C737 1.391 . S
C737 H725 0.950 . S
C737 C733 1.393 . S
C737 C736 1.391 . S
C738 H728 0.950 . S
C738 C739 1.386 . S
C738 C740 1.391 . S
C739 C738 1.386 . S
C739 C743 1.393 . S
C740 H729 0.950 . S
C740 C738 1.391 . S
C740 C741 1.400 . S
C741 C735 1.491 . S
C741 C740 1.400 . S
C741 C742 1.398 . S
C742 H730 0.950 . S
C742 C741 1.398 . S
C742 C743 1.391 . S
C743 H731 0.950 . S
C743 C739 1.393 . S
C743 C742 1.391 . S
H744 C752 0.950 . S
H745 C757 0.950 . S
H746 C754 0.950 . S
H747 C756 0.950 . S
H748 C758 0.950 . S
H749 C760 0.950 . S
H750 C762 0.950 . S
H751 C763 0.950 . S
C752 H744 0.950 . S
C752 C753 1.386 . S
C752 C754 1.391 . S
C753 C752 1.386 . S
C753 C757 1.393 . S
C754 H746 0.950 . S
C754 C752 1.391 . S
C754 C755 1.400 . S
C755 C754 1.400 . S
C755 C756 1.398 . S
C755 C761 1.491 . S
C756 H747 0.950 . S
C756 C755 1.398 . S
C756 C757 1.391 . S
C757 H745 0.950 . S
C757 C753 1.393 . S
C757 C756 1.391 . S
C758 H748 0.950 . S
C758 C759 1.386 . S
C758 C760 1.391 . S
C759 C758 1.386 . S
C759 C763 1.393 . S
C760 H749 0.950 . S
C760 C758 1.391 . S
C760 C761 1.400 . S
C761 C755 1.491 . S
C761 C760 1.400 . S
C761 C762 1.398 . S
C762 H750 0.950 . S
C762 C761 1.398 . S
C762 C763 1.391 . S
C763 H751 0.950 . S
C763 C759 1.393 . S
C763 C762 1.391 . S
H764 C772 0.950 . S
H765 C777 0.950 . S
H766 C774 0.950 . S
H767 C776 0.950 . S
H768 C778 0.950 . S
H769 C780 0.950 . S
H770 C782 0.950 . S
H771 C783 0.950 . S
C772 H764 0.950 . S
C772 C773 1.386 . S
C772 C774 1.391 . S
C773 C772 1.386 . S
C773 C777 1.393 . S
C774 H766 0.950 . S
C774 C772 1.391 . S
C774 C775 1.400 . S
C775 C774 1.400 . S
C775 C776 1.398 . S
C775 C781 1.491 . S
C776 H767 0.950 . S
C776 C775 1.398 . S
C776 C777 1.391 . S
C777 H765 0.950 . S
C777 C773 1.393 . S
C777 C776 1.391 . S
C778 H768 0.950 . S
C778 C779 1.386 . S
C778 C780 1.391 . S
C779 C778 1.386 . S
C779 C783 1.393 . S
C780 H769 0.950 . S
C780 C778 1.391 . S
C780 C781 1.400 . S
C781 C775 1.491 . S
C781 C780 1.400 . S
C781 C782 1.398 . S
C782 H770 0.950 . S
C782 C781 1.398 . S
C782 C783 1.391 . S
C783 H771 0.950 . S
C783 C779 1.393 . S
C783 C782 1.391 . S
H784 C792 0.950 . S
H785 C797 0.950 . S
H786 C794 0.950 . S
H787 C796 0.950 . S
H788 C798 0.950 . S
H789 C800 0.950 . S
H790 C802 0.950 . S
H791 C803 0.950 . S
C792 H784 0.950 . S
C792 C793 1.386 . S
C792 C794 1.391 . S
C793 C792 1.386 . S
C793 C797 1.393 . S
C794 H786 0.950 . S
C794 C792 1.391 . S
C794 C795 1.400 . S
C795 C794 1.400 . S
C795 C796 1.398 . S
C795 C801 1.491 . S
C796 H787 0.950 . S
C796 C795 1.398 . S
C796 C797 1.391 . S
C797 H785 0.950 . S
C797 C793 1.393 . S
C797 C796 1.391 . S
C798 H788 0.950 . S
C798 C799 1.386 . S
C798 C800 1.391 1_554 S
C799 C798 1.386 . S
C799 C803 1.393 . S
C800 H789 0.950 . S
C800 C798 1.391 1_556 S
C800 C801 1.400 . S
C801 C795 1.491 . S
C801 C800 1.400 . S
C801 C802 1.398 1_556 S
C802 H790 0.950 . S
C802 C801 1.398 1_554 S
C802 C803 1.391 . S
C803 H791 0.950 . S
C803 C799 1.393 . S
C803 C802 1.391 . S
H804 C812 0.950 . S
H805 C817 0.950 . S
H806 C814 0.950 . S
H807 C816 0.950 . S
H808 C818 0.950 1_565 S
H809 C820 0.950 . S
H810 C822 0.950 . S
H811 C823 0.950 . S
C812 H804 0.950 . S
C812 C813 1.386 . S
C812 C814 1.391 . S
C813 C812 1.386 . S
C813 C817 1.393 . S
C814 H806 0.950 . S
C814 C812 1.391 . S
C814 C815 1.400 . S
C815 C814 1.400 . S
C815 C816 1.398 . S
C815 C821 1.491 . S
C816 H807 0.950 . S
C816 C815 1.398 . S
C816 C817 1.391 . S
C817 H805 0.950 . S
C817 C813 1.393 . S
C817 C816 1.391 . S
C818 H808 0.950 1_545 S
C818 C819 1.386 . S
C818 C820 1.391 . S
C819 C818 1.386 . S
C819 C823 1.393 . S
C820 H809 0.950 . S
C820 C818 1.391 . S
C820 C821 1.400 . S
C821 C815 1.491 . S
C821 C820 1.400 . S
C821 C822 1.398 . S
C822 H810 0.950 . S
C822 C821 1.398 . S
C822 C823 1.391 . S
C823 H811 0.950 . S
C823 C819 1.393 . S
C823 C822 1.391 . S
H824 C832 0.950 . S
H825 C837 0.950 . S
H826 C834 0.950 . S
H827 C836 0.950 . S
H828 C838 0.950 . S
H829 C840 0.950 . S
H830 C842 0.950 . S
H831 C843 0.950 . S
C832 H824 0.950 . S
C832 C833 1.386 . S
C832 C834 1.391 . S
C833 C832 1.386 . S
C833 C837 1.393 . S
C834 H826 0.950 . S
C834 C832 1.391 . S
C834 C835 1.400 . S
C835 C834 1.400 . S
C835 C836 1.398 . S
C835 C841 1.491 . S
C836 H827 0.950 . S
C836 C835 1.398 . S
C836 C837 1.391 . S
C837 H825 0.950 . S
C837 C833 1.393 . S
C837 C836 1.391 . S
C838 H828 0.950 . S
C838 C839 1.386 . S
C838 C840 1.391 . S
C839 C838 1.386 . S
C839 C843 1.393 . S
C840 H829 0.950 . S
C840 C838 1.391 . S
C840 C841 1.400 . S
C841 C835 1.491 . S
C841 C840 1.400 . S
C841 C842 1.398 . S
C842 H830 0.950 . S
C842 C841 1.398 . S
C842 C843 1.391 . S
C843 H831 0.950 . S
C843 C839 1.393 . S
C843 C842 1.391 . S
H844 C852 0.950 . S
H845 C857 0.950 . S
H846 C854 0.950 . S
H847 C856 0.950 . S
H848 C858 0.950 . S
H849 C860 0.950 . S
H850 C862 0.950 . S
H851 C863 0.950 . S
C852 H844 0.950 . S
C852 C853 1.386 . S
C852 C854 1.391 . S
C853 C852 1.386 . S
C853 C857 1.393 . S
C854 H846 0.950 . S
C854 C852 1.391 . S
C854 C855 1.400 . S
C855 C854 1.400 . S
C855 C856 1.398 . S
C855 C861 1.491 . S
C856 H847 0.950 . S
C856 C855 1.398 . S
C856 C857 1.391 . S
C857 H845 0.950 . S
C857 C853 1.393 . S
C857 C856 1.391 . S
C858 H848 0.950 . S
C858 C859 1.386 . S
C858 C860 1.391 . S
C859 C858 1.386 . S
C859 C863 1.393 . S
C860 H849 0.950 . S
C860 C858 1.391 . S
C860 C861 1.400 . S
C861 C855 1.491 . S
C861 C860 1.400 . S
C861 C862 1.398 . S
C862 H850 0.950 . S
C862 C861 1.398 . S
C862 C863 1.391 . S
C863 H851 0.950 . S
C863 C859 1.393 . S
C863 C862 1.391 . S
H864 C872 0.955 . S
H865 C877 0.950 . S
H866 C874 0.950 . S
H867 C876 0.950 . S
H868 C878 0.950 . S
H869 C880 0.950 . S
H870 C882 0.950 . S
H871 C883 0.950 . S
C872 H864 0.955 . S
C872 C873 1.386 . S
C872 C874 1.391 1_556 S
C873 C872 1.386 . S
C873 C877 1.393 . S
C874 H866 0.950 . S
C874 C872 1.391 1_554 S
C874 C875 1.400 . S
C875 C874 1.400 . S
C875 C876 1.398 1_554 S
C875 C881 1.491 . S
C876 H867 0.950 . S
C876 C875 1.398 1_556 S
C876 C877 1.391 . S
C877 H865 0.950 . S
C877 C873 1.393 . S
C877 C876 1.391 . S
C878 H868 0.950 . S
C878 C879 1.386 . S
C878 C880 1.391 . S
C879 C878 1.386 . S
C879 C883 1.393 . S
C880 H869 0.950 . S
C880 C878 1.391 . S
C880 C881 1.400 . S
C881 C875 1.491 . S
C881 C880 1.400 . S
C881 C882 1.398 . S
C882 H870 0.950 . S
C882 C881 1.398 . S
C882 C883 1.391 . S
C883 H871 0.950 . S
C883 C879 1.393 . S
C883 C882 1.391 . S
H884 C892 0.950 . S
H885 C897 0.950 1_565 S
H886 C894 0.950 . S
H887 C896 0.950 . S
H888 C898 0.950 . S
H889 C900 0.950 . S
H890 C902 0.950 . S
H891 C903 0.950 . S
C892 H884 0.950 . S
C892 C893 1.386 . S
C892 C894 1.391 . S
C893 C892 1.386 . S
C893 C897 1.393 . S
C894 H886 0.950 . S
C894 C892 1.391 . S
C894 C895 1.400 . S
C895 C894 1.400 . S
C895 C896 1.398 . S
C895 C901 1.491 . S
C896 H887 0.950 . S
C896 C895 1.398 . S
C896 C897 1.391 . S
C897 H885 0.950 1_545 S
C897 C893 1.393 . S
C897 C896 1.391 . S
C898 H888 0.950 . S
C898 C899 1.386 . S
C898 C900 1.391 . S
C899 C898 1.386 . S
C899 C903 1.393 . S
C900 H889 0.950 . S
C900 C898 1.391 . S
C900 C901 1.400 . S
C901 C895 1.491 . S
C901 C900 1.400 . S
C901 C902 1.398 . S
C902 H890 0.950 . S
C902 C901 1.398 . S
C902 C903 1.391 . S
C903 H891 0.950 . S
C903 C899 1.393 . S
C903 C902 1.391 . S
H904 C912 0.950 . S
H905 C917 0.950 . S
H906 C914 0.950 . S
H907 C916 0.950 . S
H908 C918 0.950 . S
H909 C920 0.950 . S
H910 C922 0.950 . S
H911 C923 0.950 . S
C912 H904 0.950 . S
C912 C913 1.386 . S
C912 C914 1.391 . S
C913 C912 1.386 . S
C913 C917 1.393 . S
C914 H906 0.950 . S
C914 C912 1.391 . S
C914 C915 1.400 . S
C915 C914 1.400 . S
C915 C916 1.398 . S
C915 C921 1.491 . S
C916 H907 0.950 . S
C916 C915 1.398 . S
C916 C917 1.391 . S
C917 H905 0.950 . S
C917 C913 1.393 . S
C917 C916 1.391 . S
C918 H908 0.950 . S
C918 C919 1.386 . S
C918 C920 1.391 . S
C919 C918 1.386 . S
C919 C923 1.393 . S
C920 H909 0.950 . S
C920 C918 1.391 . S
C920 C921 1.400 . S
C921 C915 1.491 . S
C921 C920 1.400 . S
C921 C922 1.398 . S
C922 H910 0.950 . S
C922 C921 1.398 . S
C922 C923 1.391 . S
C923 H911 0.950 . S
C923 C919 1.393 . S
C923 C922 1.391 . S
H924 C932 0.950 1_545 S
H925 C937 0.950 . S
H926 C934 0.950 . S
H927 C936 0.950 . S
H928 C938 0.950 . S
H929 C940 0.950 . S
H930 C942 0.950 . S
H931 C943 0.950 . S
C932 H924 0.950 1_565 S
C932 C933 1.386 . S
C932 C934 1.391 . S
C933 C932 1.386 . S
C933 C937 1.393 . S
C934 H926 0.950 . S
C934 C932 1.391 . S
C934 C935 1.400 . S
C935 C934 1.400 . S
C935 C936 1.398 . S
C935 C941 1.491 . S
C936 H927 0.950 . S
C936 C935 1.398 . S
C936 C937 1.391 . S
C937 H925 0.950 . S
C937 C933 1.393 . S
C937 C936 1.391 . S
C938 H928 0.950 . S
C938 C939 1.386 . S
C938 C940 1.391 . S
C939 C938 1.386 . S
C939 C943 1.393 . S
C940 H929 0.950 . S
C940 C938 1.391 . S
C940 C941 1.400 . S
C941 C935 1.491 . S
C941 C940 1.400 . S
C941 C942 1.398 . S
C942 H930 0.950 . S
C942 C941 1.398 . S
C942 C943 1.391 . S
C943 H931 0.950 . S
C943 C939 1.393 . S
C943 C942 1.391 . S
H944 C952 0.950 . S
H945 C957 0.950 . S
H946 C954 0.950 . S
H947 C956 0.950 . S
H948 C958 0.950 . S
H949 C960 0.950 . S
H950 C962 0.950 . S
H951 C963 0.950 . S
C952 H944 0.950 . S
C952 C953 1.386 . S
C952 C954 1.391 . S
C953 C952 1.386 . S
C953 C957 1.393 . S
C954 H946 0.950 . S
C954 C952 1.391 . S
C954 C955 1.400 . S
C955 C954 1.400 . S
C955 C956 1.398 . S
C955 C961 1.491 . S
C956 H947 0.950 . S
C956 C955 1.398 . S
C956 C957 1.391 . S
C957 H945 0.950 . S
C957 C953 1.393 . S
C957 C956 1.391 . S
C958 H948 0.950 . S
C958 C959 1.386 . S
C958 C960 1.391 . S
C959 C958 1.386 . S
C959 C963 1.393 . S
C960 H949 0.950 . S
C960 C958 1.391 . S
C960 C961 1.400 . S
C961 C955 1.491 . S
C961 C960 1.400 . S
C961 C962 1.398 . S
C962 H950 0.950 . S
C962 C961 1.398 . S
C962 C963 1.391 . S
C963 H951 0.950 . S
C963 C959 1.393 . S
C963 C962 1.391 . S
H964 C972 0.950 . S
H965 C977 0.950 . S
H966 C974 0.950 . S
H967 C976 0.950 . S
H968 C978 0.950 . S
H969 C980 0.950 . S
H970 C982 0.950 . S
H971 C983 0.950 . S
C972 H964 0.950 . S
C972 C973 1.386 . S
C972 C974 1.391 . S
C973 C972 1.386 . S
C973 C977 1.393 . S
C974 H966 0.950 . S
C974 C972 1.391 . S
C974 C975 1.400 . S
C975 C974 1.400 . S
C975 C976 1.398 . S
C975 C981 1.491 . S
C976 H967 0.950 . S
C976 C975 1.398 . S
C976 C977 1.391 . S
C977 H965 0.950 . S
C977 C973 1.393 . S
C977 C976 1.391 . S
C978 H968 0.950 . S
C978 C979 1.386 . S
C978 C980 1.391 . S
C979 C978 1.386 . S
C979 C983 1.393 . S
C980 H969 0.950 . S
C980 C978 1.391 . S
C980 C981 1.400 . S
C981 C975 1.491 . S
C981 C980 1.400 . S
C981 C982 1.398 . S
C982 H970 0.950 . S
C982 C981 1.398 . S
C982 C983 1.391 . S
C983 H971 0.950 . S
C983 C979 1.393 . S
C983 C982 1.391 . S
H984 C992 0.950 . S
H985 C997 0.950 1_455 S
H986 C994 0.950 . S
H987 C996 0.950 . S
H988 C998 0.950 . S
H989 C1000 0.950 . S
H990 C1002 0.950 . S
H991 C1003 0.950 . S
C992 H984 0.950 . S
C992 C993 1.386 . S
C992 C994 1.391 . S
C993 C992 1.386 . S
C993 C997 1.393 . S
C994 H986 0.950 . S
C994 C992 1.391 . S
C994 C995 1.400 . S
C995 C994 1.400 . S
C995 C996 1.398 . S
C995 C1001 1.491 1_554 S
C996 H987 0.950 . S
C996 C995 1.398 . S
C996 C997 1.391 . S
C997 H985 0.950 1_655 S
C997 C993 1.393 . S
C997 C996 1.391 . S
C998 H988 0.950 . S
C998 C999 1.386 . S
C998 C1000 1.391 . S
C999 C998 1.386 . S
C999 C1003 1.393 . S
C1000 H989 0.950 . S
C1000 C998 1.391 . S
C1000 C1001 1.400 . S
C1001 C995 1.491 1_556 S
C1001 C1000 1.400 . S
C1001 C1002 1.398 . S
C1002 H990 0.950 . S
C1002 C1001 1.398 . S
C1002 C1003 1.391 . S
C1003 H991 0.950 . S
C1003 C999 1.393 . S
C1003 C1002 1.391 . S
H1004 C1012 0.950 . S
H1005 C1017 0.950 . S
H1006 C1014 0.950 . S
H1007 C1016 0.950 . S
H1008 C1018 0.950 . S
H1009 C1020 0.950 . S
H1010 C1022 0.950 . S
H1011 C1023 0.950 . S
C1012 H1004 0.950 . S
C1012 C1013 1.386 . S
C1012 C1014 1.391 . S
C1013 C1012 1.386 . S
C1013 C1017 1.393 . S
C1014 H1006 0.950 . S
C1014 C1012 1.391 . S
C1014 C1015 1.400 . S
C1015 C1014 1.400 . S
C1015 C1016 1.398 . S
C1015 C1021 1.491 . S
C1016 H1007 0.950 . S
C1016 C1015 1.398 . S
C1016 C1017 1.391 . S
C1017 H1005 0.950 . S
C1017 C1013 1.393 . S
C1017 C1016 1.391 . S
C1018 H1008 0.950 . S
C1018 C1019 1.386 . S
C1018 C1020 1.391 . S
C1019 C1018 1.386 . S
C1019 C1023 1.393 . S
C1020 H1009 0.950 . S
C1020 C1018 1.391 . S
C1020 C1021 1.400 . S
C1021 C1015 1.491 . S
C1021 C1020 1.400 . S
C1021 C1022 1.398 . S
C1022 H1010 0.950 . S
C1022 C1021 1.398 . S
C1022 C1023 1.391 . S
C1023 H1011 0.950 . S
C1023 C1019 1.393 . S
C1023 C1022 1.391 . S
H1024 C1032 0.950 . S
H1025 C1037 0.950 . S
H1026 C1034 0.950 . S
H1027 C1036 0.950 . S
H1028 C1038 0.950 . S
H1029 C1040 0.950 . S
H1030 C1042 0.950 . S
H1031 C1043 0.950 . S
C1032 H1024 0.950 . S
C1032 C1033 1.386 . S
C1032 C1034 1.391 . S
C1033 C1032 1.386 . S
C1033 C1037 1.393 . S
C1034 H1026 0.950 . S
C1034 C1032 1.391 . S
C1034 C1035 1.400 . S
C1035 C1034 1.400 . S
C1035 C1036 1.398 . S
C1035 C1041 1.491 . S
C1036 H1027 0.950 . S
C1036 C1035 1.398 . S
C1036 C1037 1.391 . S
C1037 H1025 0.950 . S
C1037 C1033 1.393 . S
C1037 C1036 1.391 . S
C1038 H1028 0.950 . S
C1038 C1039 1.386 . S
C1038 C1040 1.391 . S
C1039 C1038 1.386 . S
C1039 C1043 1.393 . S
C1040 H1029 0.950 . S
C1040 C1038 1.391 . S
C1040 C1041 1.400 . S
C1041 C1035 1.491 . S
C1041 C1040 1.400 . S
C1041 C1042 1.398 . S
C1042 H1030 0.950 . S
C1042 C1041 1.398 . S
C1042 C1043 1.391 . S
C1043 H1031 0.950 . S
C1043 C1039 1.393 . S
C1043 C1042 1.391 . S
H1044 C1052 0.950 . S
H1045 C1057 0.950 . S
H1046 C1054 0.950 . S
H1047 C1056 0.950 . S
H1048 C1058 0.950 . S
H1049 C1060 0.950 . S
H1050 C1062 0.950 . S
H1051 C1063 0.950 . S
C1052 H1044 0.950 . S
C1052 C1053 1.386 . S
C1052 C1054 1.391 . S
C1053 C1052 1.386 . S
C1053 C1057 1.393 . S
C1054 H1046 0.950 . S
C1054 C1052 1.391 . S
C1054 C1055 1.400 . S
C1055 C1054 1.400 . S
C1055 C1056 1.398 . S
C1055 C1061 1.491 . S
C1056 H1047 0.950 . S
C1056 C1055 1.398 . S
C1056 C1057 1.391 . S
C1057 H1045 0.950 . S
C1057 C1053 1.393 . S
C1057 C1056 1.391 . S
C1058 H1048 0.950 . S
C1058 C1059 1.386 . S
C1058 C1060 1.391 . S
C1059 C1058 1.386 . S
C1059 C1063 1.393 . S
C1060 H1049 0.950 . S
C1060 C1058 1.391 . S
C1060 C1061 1.400 . S
C1061 C1055 1.491 . S
C1061 C1060 1.400 . S
C1061 C1062 1.398 . S
C1062 H1050 0.950 . S
C1062 C1061 1.398 . S
C1062 C1063 1.391 . S
C1063 H1051 0.950 . S
C1063 C1059 1.393 . S
C1063 C1062 1.391 . S
H1064 C1072 0.950 . S
H1065 C1077 0.950 . S
H1066 C1074 0.950 . S
H1067 C1076 0.950 . S
H1068 C1078 0.950 1_455 S
H1069 C1080 0.950 1_554 S
H1070 C1082 0.950 . S
H1071 C1083 0.950 . S
C1072 H1064 0.950 . S
C1072 C1073 1.386 . S
C1072 C1074 1.391 1_554 S
C1073 C1072 1.386 . S
C1073 C1077 1.393 . S
C1074 H1066 0.950 . S
C1074 C1072 1.391 1_556 S
C1074 C1075 1.400 1_556 S
C1075 C1074 1.400 1_554 S
C1075 C1076 1.398 . S
C1075 C1081 1.491 1_554 S
C1076 H1067 0.950 . S
C1076 C1075 1.398 . S
C1076 C1077 1.391 . S
C1077 H1065 0.950 . S
C1077 C1073 1.393 . S
C1077 C1076 1.391 . S
C1078 H1068 0.950 1_655 S
C1078 C1079 1.386 . S
C1078 C1080 1.391 . S
C1079 C1078 1.386 . S
C1079 C1083 1.393 . S
C1080 H1069 0.950 1_556 S
C1080 C1078 1.391 . S
C1080 C1081 1.400 . S
C1081 C1075 1.491 1_556 S
C1081 C1080 1.400 . S
C1081 C1082 1.398 . S
C1082 H1070 0.950 . S
C1082 C1081 1.398 . S
C1082 C1083 1.391 . S
C1083 H1071 0.950 . S
C1083 C1079 1.393 . S
C1083 C1082 1.391 . S
H1084 C1092 0.950 . S
H1085 C1097 0.950 . S
H1086 C1094 0.950 . S
H1087 C1096 0.950 . S
H1088 C1098 0.950 . S
H1089 C1100 0.950 . S
H1090 C1102 0.950 . S
H1091 C1103 0.950 . S
C1092 H1084 0.950 . S
C1092 C1093 1.386 . S
C1092 C1094 1.391 . S
C1093 C1092 1.386 . S
C1093 C1097 1.393 . S
C1094 H1086 0.950 . S
C1094 C1092 1.391 . S
C1094 C1095 1.400 . S
C1095 C1094 1.400 . S
C1095 C1096 1.398 . S
C1095 C1101 1.491 . S
C1096 H1087 0.950 . S
C1096 C1095 1.398 . S
C1096 C1097 1.391 . S
C1097 H1085 0.950 . S
C1097 C1093 1.393 . S
C1097 C1096 1.391 . S
C1098 H1088 0.950 . S
C1098 C1099 1.386 . S
C1098 C1100 1.391 . S
C1099 C1098 1.386 . S
C1099 C1103 1.393 . S
C1100 H1089 0.950 . S
C1100 C1098 1.391 . S
C1100 C1101 1.400 . S
C1101 C1095 1.491 . S
C1101 C1100 1.400 . S
C1101 C1102 1.398 . S
C1102 H1090 0.950 . S
C1102 C1101 1.398 . S
C1102 C1103 1.391 . S
C1103 H1091 0.950 . S
C1103 C1099 1.393 . S
C1103 C1102 1.391 . S
H1104 C1112 0.950 . S
H1105 C1117 0.950 . S
H1106 C1114 0.950 . S
H1107 C1116 0.950 . S
H1108 C1118 0.950 . S
H1109 C1120 0.950 . S
H1110 C1122 0.950 . S
H1111 C1123 0.950 . S
C1112 H1104 0.950 . S
C1112 C1113 1.386 . S
C1112 C1114 1.391 . S
C1113 C1112 1.386 . S
C1113 C1117 1.393 . S
C1114 H1106 0.950 . S
C1114 C1112 1.391 . S
C1114 C1115 1.400 . S
C1115 C1114 1.400 . S
C1115 C1116 1.398 . S
C1115 C1121 1.491 . S
C1116 H1107 0.950 . S
C1116 C1115 1.398 . S
C1116 C1117 1.391 . S
C1117 H1105 0.950 . S
C1117 C1113 1.393 . S
C1117 C1116 1.391 . S
C1118 H1108 0.950 . S
C1118 C1119 1.386 . S
C1118 C1120 1.391 . S
C1119 C1118 1.386 . S
C1119 C1123 1.393 . S
C1120 H1109 0.950 . S
C1120 C1118 1.391 . S
C1120 C1121 1.400 . S
C1121 C1115 1.491 . S
C1121 C1120 1.400 . S
C1121 C1122 1.398 . S
C1122 H1110 0.950 . S
C1122 C1121 1.398 . S
C1122 C1123 1.391 . S
C1123 H1111 0.950 . S
C1123 C1119 1.393 . S
C1123 C1122 1.391 . S
H1124 C1132 0.950 . S
H1125 C1137 0.950 . S
H1126 C1134 0.950 . S
H1127 C1136 0.950 . S
H1128 C1138 0.950 . S
H1129 C1140 0.950 . S
H1130 C1142 0.950 . S
H1131 C1143 0.950 . S
C1132 H1124 0.950 . S
C1132 C1133 1.386 . S
C1132 C1134 1.391 . S
C1133 C1132 1.386 . S
C1133 C1137 1.393 . S
C1134 H1126 0.950 . S
C1134 C1132 1.391 . S
C1134 C1135 1.400 . S
C1135 C1134 1.400 . S
C1135 C1136 1.398 . S
C1135 C1141 1.491 . S
C1136 H1127 0.950 . S
C1136 C1135 1.398 . S
C1136 C1137 1.391 . S
C1137 H1125 0.950 . S
C1137 C1133 1.393 . S
C1137 C1136 1.391 . S
C1138 H1128 0.950 . S
C1138 C1139 1.386 . S
C1138 C1140 1.391 . S
C1139 C1138 1.386 . S
C1139 C1143 1.393 . S
C1140 H1129 0.950 . S
C1140 C1138 1.391 . S
C1140 C1141 1.400 . S
C1141 C1135 1.491 . S
C1141 C1140 1.400 . S
C1141 C1142 1.398 . S
C1142 H1130 0.950 . S
C1142 C1141 1.398 . S
C1142 C1143 1.391 . S
C1143 H1131 0.950 . S
C1143 C1139 1.393 . S
C1143 C1142 1.391 . S
H1144 C1152 0.950 . S
H1145 C1157 0.950 . S
H1146 C1154 0.950 . S
H1147 C1156 0.950 . S
H1148 C1158 0.950 . S
H1149 C1160 0.950 1_556 S
H1150 C1162 0.950 . S
H1151 C1163 0.950 . S
C1152 H1144 0.950 . S
C1152 C1153 1.386 . S
C1152 C1154 1.391 . S
C1153 C1152 1.386 . S
C1153 C1157 1.393 . S
C1154 H1146 0.950 . S
C1154 C1152 1.391 . S
C1154 C1155 1.400 . S
C1155 C1154 1.400 . S
C1155 C1156 1.398 . S
C1155 C1161 1.491 . S
C1156 H1147 0.950 . S
C1156 C1155 1.398 . S
C1156 C1157 1.391 . S
C1157 H1145 0.950 . S
C1157 C1153 1.393 . S
C1157 C1156 1.391 . S
C1158 H1148 0.950 . S
C1158 C1159 1.386 . S
C1158 C1160 1.391 . S
C1159 C1158 1.386 . S
C1159 C1163 1.393 . S
C1160 H1149 0.950 1_554 S
C1160 C1158 1.391 . S
C1160 C1161 1.400 1_554 S
C1161 C1155 1.491 . S
C1161 C1160 1.400 1_556 S
C1161 C1162 1.398 . S
C1162 H1150 0.950 . S
C1162 C1161 1.398 . S
C1162 C1163 1.391 1_556 S
C1163 H1151 0.950 . S
C1163 C1159 1.393 . S
C1163 C1162 1.391 1_554 S
H1164 C1172 0.950 . S
H1165 C1177 0.950 . S
H1166 C1174 0.950 . S
H1167 C1176 0.950 . S
H1168 C1178 0.950 . S
H1169 C1180 0.950 . S
H1170 C1182 0.950 . S
H1171 C1183 0.950 . S
C1172 H1164 0.950 . S
C1172 C1173 1.386 . S
C1172 C1174 1.391 . S
C1173 C1172 1.386 . S
C1173 C1177 1.393 . S
C1174 H1166 0.950 . S
C1174 C1172 1.391 . S
C1174 C1175 1.400 . S
C1175 C1174 1.400 . S
C1175 C1176 1.398 . S
C1175 C1181 1.491 . S
C1176 H1167 0.950 . S
C1176 C1175 1.398 . S
C1176 C1177 1.391 . S
C1177 H1165 0.950 . S
C1177 C1173 1.393 . S
C1177 C1176 1.391 . S
C1178 H1168 0.950 . S
C1178 C1179 1.386 . S
C1178 C1180 1.391 . S
C1179 C1178 1.386 . S
C1179 C1183 1.393 . S
C1180 H1169 0.950 . S
C1180 C1178 1.391 . S
C1180 C1181 1.400 . S
C1181 C1175 1.491 . S
C1181 C1180 1.400 . S
C1181 C1182 1.398 . S
C1182 H1170 0.950 . S
C1182 C1181 1.398 . S
C1182 C1183 1.391 . S
C1183 H1171 0.950 . S
C1183 C1179 1.393 . S
C1183 C1182 1.391 . S
H1184 C1192 0.950 . S
H1185 C1197 0.950 . S
H1186 C1194 0.950 . S
H1187 C1196 0.950 . S
H1188 C1198 0.950 . S
H1189 C1200 0.950 . S
H1190 C1202 0.950 . S
H1191 C1203 0.950 . S
C1192 H1184 0.950 . S
C1192 C1193 1.386 . S
C1192 C1194 1.391 . S
C1193 C1192 1.386 . S
C1193 C1197 1.393 . S
C1194 H1186 0.950 . S
C1194 C1192 1.391 . S
C1194 C1195 1.400 . S
C1195 C1194 1.400 . S
C1195 C1196 1.398 . S
C1195 C1201 1.491 . S
C1196 H1187 0.950 . S
C1196 C1195 1.398 . S
C1196 C1197 1.391 . S
C1197 H1185 0.950 . S
C1197 C1193 1.393 . S
C1197 C1196 1.391 . S
C1198 H1188 0.950 . S
C1198 C1199 1.386 . S
C1198 C1200 1.391 . S
C1199 C1198 1.386 . S
C1199 C1203 1.393 . S
C1200 H1189 0.950 . S
C1200 C1198 1.391 . S
C1200 C1201 1.400 . S
C1201 C1195 1.491 . S
C1201 C1200 1.400 . S
C1201 C1202 1.398 . S
C1202 H1190 0.950 . S
C1202 C1201 1.398 . S
C1202 C1203 1.391 . S
C1203 H1191 0.950 . S
C1203 C1199 1.393 . S
C1203 C1202 1.391 . S
H1204 C1212 0.950 . S
H1205 C1217 0.950 . S
H1206 C1214 0.950 . S
H1207 C1216 0.950 . S
H1208 C1218 0.950 . S
H1209 C1220 0.950 . S
H1210 C1222 0.950 . S
H1211 C1223 0.950 . S
C1212 H1204 0.950 . S
C1212 C1213 1.386 . S
C1212 C1214 1.391 . S
C1213 C1212 1.386 . S
C1213 C1217 1.393 . S
C1214 H1206 0.950 . S
C1214 C1212 1.391 . S
C1214 C1215 1.400 . S
C1215 C1214 1.400 . S
C1215 C1216 1.398 . S
C1215 C1221 1.491 . S
C1216 H1207 0.950 . S
C1216 C1215 1.398 . S
C1216 C1217 1.391 . S
C1217 H1205 0.950 . S
C1217 C1213 1.393 . S
C1217 C1216 1.391 . S
C1218 H1208 0.950 . S
C1218 C1219 1.386 . S
C1218 C1220 1.391 . S
C1219 C1218 1.386 . S
C1219 C1223 1.393 . S
C1220 H1209 0.950 . S
C1220 C1218 1.391 . S
C1220 C1221 1.400 . S
C1221 C1215 1.491 . S
C1221 C1220 1.400 . S
C1221 C1222 1.398 . S
C1222 H1210 0.950 . S
C1222 C1221 1.398 . S
C1222 C1223 1.391 . S
C1223 H1211 0.950 . S
C1223 C1219 1.393 . S
C1223 C1222 1.391 . S
H1224 C1232 0.950 . S
H1225 C1237 0.950 . S
H1226 C1234 0.950 . S
H1227 C1236 0.950 . S
H1228 C1238 0.950 1_554 S
H1229 C1240 0.950 . S
H1230 C1242 0.950 . S
H1231 C1243 0.950 . S
C1232 H1224 0.950 . S
C1232 C1233 1.386 . S
C1232 C1234 1.391 . S
C1233 C1232 1.386 . S
C1233 C1237 1.393 . S
C1234 H1226 0.950 . S
C1234 C1232 1.391 . S
C1234 C1235 1.400 . S
C1235 C1234 1.400 . S
C1235 C1236 1.398 . S
C1235 C1241 1.491 . S
C1236 H1227 0.950 . S
C1236 C1235 1.398 . S
C1236 C1237 1.391 . S
C1237 H1225 0.950 . S
C1237 C1233 1.393 . S
C1237 C1236 1.391 . S
C1238 H1228 0.950 1_556 S
C1238 C1239 1.386 . S
C1238 C1240 1.391 1_556 S
C1239 C1238 1.386 . S
C1239 C1243 1.393 . S
C1240 H1229 0.950 . S
C1240 C1238 1.391 1_554 S
C1240 C1241 1.400 . S
C1241 C1235 1.491 . S
C1241 C1240 1.400 . S
C1241 C1242 1.398 1_554 S
C1242 H1230 0.950 . S
C1242 C1241 1.398 1_556 S
C1242 C1243 1.391 . S
C1243 H1231 0.950 . S
C1243 C1239 1.393 . S
C1243 C1242 1.391 . S
H1244 C1252 0.950 . S
H1245 C1257 0.950 . S
H1246 C1254 0.950 . S
H1247 C1256 0.950 . S
H1248 C1258 0.950 . S
H1249 C1260 0.950 . S
H1250 C1262 0.950 . S
H1251 C1263 0.950 . S
C1252 H1244 0.950 . S
C1252 C1253 1.386 . S
C1252 C1254 1.391 . S
C1253 C1252 1.386 . S
C1253 C1257 1.393 . S
C1254 H1246 0.950 . S
C1254 C1252 1.391 . S
C1254 C1255 1.400 . S
C1255 C1254 1.400 . S
C1255 C1256 1.398 . S
C1255 C1261 1.491 . S
C1256 H1247 0.950 . S
C1256 C1255 1.398 . S
C1256 C1257 1.391 . S
C1257 H1245 0.950 . S
C1257 C1253 1.393 . S
C1257 C1256 1.391 . S
C1258 H1248 0.950 . S
C1258 C1259 1.386 . S
C1258 C1260 1.391 . S
C1259 C1258 1.386 . S
C1259 C1263 1.393 . S
C1260 H1249 0.950 . S
C1260 C1258 1.391 . S
C1260 C1261 1.400 . S
C1261 C1255 1.491 . S
C1261 C1260 1.400 . S
C1261 C1262 1.398 . S
C1262 H1250 0.950 . S
C1262 C1261 1.398 . S
C1262 C1263 1.391 . S
C1263 H1251 0.950 . S
C1263 C1259 1.393 . S
C1263 C1262 1.391 . S
H1264 C1272 0.950 . S
H1265 C1277 0.950 . S
H1266 C1274 0.950 . S
H1267 C1276 0.950 . S
H1268 C1278 0.950 . S
H1269 C1280 0.950 . S
H1270 C1282 0.950 . S
H1271 C1283 0.950 . S
C1272 H1264 0.950 . S
C1272 C1273 1.386 . S
C1272 C1274 1.391 . S
C1273 C1272 1.386 . S
C1273 C1277 1.393 . S
C1274 H1266 0.950 . S
C1274 C1272 1.391 . S
C1274 C1275 1.400 . S
C1275 C1274 1.400 . S
C1275 C1276 1.398 . S
C1275 C1281 1.491 . S
C1276 H1267 0.950 . S
C1276 C1275 1.398 . S
C1276 C1277 1.391 . S
C1277 H1265 0.950 . S
C1277 C1273 1.393 . S
C1277 C1276 1.391 . S
C1278 H1268 0.950 . S
C1278 C1279 1.386 . S
C1278 C1280 1.391 . S
C1279 C1278 1.386 . S
C1279 C1283 1.393 . S
C1280 H1269 0.950 . S
C1280 C1278 1.391 . S
C1280 C1281 1.400 . S
C1281 C1275 1.491 . S
C1281 C1280 1.400 . S
C1281 C1282 1.398 . S
C1282 H1270 0.950 . S
C1282 C1281 1.398 . S
C1282 C1283 1.391 . S
C1283 H1271 0.950 . S
C1283 C1279 1.393 . S
C1283 C1282 1.391 . S
H1284 C1292 0.950 . S
H1285 C1297 0.950 . S
H1286 C1294 0.950 . S
H1287 C1296 0.950 . S
H1288 C1298 0.950 . S
H1289 C1300 0.950 . S
H1290 C1302 0.950 . S
H1291 C1303 0.950 . S
C1292 H1284 0.950 . S
C1292 C1293 1.386 . S
C1292 C1294 1.391 . S
C1293 C1292 1.386 . S
C1293 C1297 1.393 . S
C1294 H1286 0.950 . S
C1294 C1292 1.391 . S
C1294 C1295 1.400 . S
C1295 C1294 1.400 . S
C1295 C1296 1.398 . S
C1295 C1301 1.491 . S
C1296 H1287 0.950 . S
C1296 C1295 1.398 . S
C1296 C1297 1.391 . S
C1297 H1285 0.950 . S
C1297 C1293 1.393 . S
C1297 C1296 1.391 . S
C1298 H1288 0.950 . S
C1298 C1299 1.386 . S
C1298 C1300 1.391 . S
C1299 C1298 1.386 . S
C1299 C1303 1.393 . S
C1300 H1289 0.950 . S
C1300 C1298 1.391 . S
C1300 C1301 1.400 . S
C1301 C1295 1.491 . S
C1301 C1300 1.400 . S
C1301 C1302 1.398 . S
C1302 H1290 0.950 . S
C1302 C1301 1.398 . S
C1302 C1303 1.391 . S
C1303 H1291 0.950 . S
C1303 C1299 1.393 . S
C1303 C1302 1.391 . S
H1304 C1312 0.950 . S
H1305 C1317 0.950 . S
H1306 C1314 0.950 . S
H1307 C1316 0.950 . S
H1308 C1318 0.950 . S
H1309 C1320 0.950 . S
H1310 C1322 0.950 . S
H1311 C1323 0.950 . S
C1312 H1304 0.950 . S
C1312 C1313 1.386 . S
C1312 C1314 1.391 . S
C1313 C1312 1.386 . S
C1313 C1317 1.393 . S
C1314 H1306 0.950 . S
C1314 C1312 1.391 . S
C1314 C1315 1.400 . S
C1315 C1314 1.400 . S
C1315 C1316 1.398 . S
C1315 C1321 1.491 . S
C1316 H1307 0.950 . S
C1316 C1315 1.398 . S
C1316 C1317 1.391 . S
C1317 H1305 0.950 . S
C1317 C1313 1.393 . S
C1317 C1316 1.391 . S
C1318 H1308 0.950 . S
C1318 C1319 1.386 . S
C1318 C1320 1.391 . S
C1319 C1318 1.386 . S
C1319 C1323 1.393 . S
C1320 H1309 0.950 . S
C1320 C1318 1.391 . S
C1320 C1321 1.400 . S
C1321 C1315 1.491 . S
C1321 C1320 1.400 . S
C1321 C1322 1.398 . S
C1322 H1310 0.950 . S
C1322 C1321 1.398 . S
C1322 C1323 1.391 . S
C1323 H1311 0.950 . S
C1323 C1319 1.393 . S
C1323 C1322 1.391 . S
H1324 C1332 0.950 . S
H1325 C1337 0.950 . S
H1326 C1334 0.950 . S
H1327 C1336 0.950 . S
H1328 C1338 0.950 . S
H1329 C1340 0.950 . S
H1330 C1342 0.950 . S
H1331 C1343 0.950 . S
C1332 H1324 0.950 . S
C1332 C1333 1.386 . S
C1332 C1334 1.391 . S
C1333 C1332 1.386 . S
C1333 C1337 1.393 . S
C1334 H1326 0.950 . S
C1334 C1332 1.391 . S
C1334 C1335 1.400 . S
C1335 C1334 1.400 . S
C1335 C1336 1.398 . S
C1335 C1341 1.491 . S
C1336 H1327 0.950 . S
C1336 C1335 1.398 . S
C1336 C1337 1.391 . S
C1337 H1325 0.950 . S
C1337 C1333 1.393 . S
C1337 C1336 1.391 . S
C1338 H1328 0.950 . S
C1338 C1339 1.386 . S
C1338 C1340 1.391 . S
C1339 C1338 1.386 . S
C1339 C1343 1.393 . S
C1340 H1329 0.950 . S
C1340 C1338 1.391 . S
C1340 C1341 1.400 . S
C1341 C1335 1.491 . S
C1341 C1340 1.400 . S
C1341 C1342 1.398 . S
C1342 H1330 0.950 . S
C1342 C1341 1.398 . S
C1342 C1343 1.391 . S
C1343 H1331 0.950 . S
C1343 C1339 1.393 . S
C1343 C1342 1.391 . S
H1344 C1352 0.950 . S
H1345 C1357 0.950 . S
H1346 C1354 0.950 . S
H1347 C1356 0.950 . S
H1348 C1358 0.950 . S
H1349 C1360 0.950 . S
H1350 C1362 0.950 . S
H1351 C1363 0.950 . S
C1352 H1344 0.950 . S
C1352 C1353 1.386 . S
C1352 C1354 1.391 . S
C1353 C1352 1.386 . S
C1353 C1357 1.393 . S
C1354 H1346 0.950 . S
C1354 C1352 1.391 . S
C1354 C1355 1.400 . S
C1355 C1354 1.400 . S
C1355 C1356 1.398 . S
C1355 C1361 1.491 . S
C1356 H1347 0.950 . S
C1356 C1355 1.398 . S
C1356 C1357 1.391 . S
C1357 H1345 0.950 . S
C1357 C1353 1.393 . S
C1357 C1356 1.391 . S
C1358 H1348 0.950 . S
C1358 C1359 1.386 . S
C1358 C1360 1.391 . S
C1359 C1358 1.386 . S
C1359 C1363 1.393 . S
C1360 H1349 0.950 . S
C1360 C1358 1.391 . S
C1360 C1361 1.400 . S
C1361 C1355 1.491 . S
C1361 C1360 1.400 . S
C1361 C1362 1.398 . S
C1362 H1350 0.950 . S
C1362 C1361 1.398 . S
C1362 C1363 1.391 . S
C1363 H1351 0.950 . S
C1363 C1359 1.393 . S
C1363 C1362 1.391 . S
H1364 C1372 0.950 . S
H1365 C1377 0.950 . S
H1366 C1374 0.950 . S
H1367 C1376 0.950 . S
H1368 C1378 0.950 . S
H1369 C1380 0.950 . S
H1370 C1382 0.950 . S
H1371 C1383 0.950 . S
C1372 H1364 0.950 . S
C1372 C1373 1.386 . S
C1372 C1374 1.391 . S
C1373 C1372 1.386 . S
C1373 C1377 1.393 . S
C1374 H1366 0.950 . S
C1374 C1372 1.391 . S
C1374 C1375 1.400 . S
C1375 C1374 1.400 . S
C1375 C1376 1.398 . S
C1375 C1381 1.491 . S
C1376 H1367 0.950 . S
C1376 C1375 1.398 . S
C1376 C1377 1.391 . S
C1377 H1365 0.950 . S
C1377 C1373 1.393 . S
C1377 C1376 1.391 . S
C1378 H1368 0.950 . S
C1378 C1379 1.386 . S
C1378 C1380 1.391 . S
C1379 C1378 1.386 . S
C1379 C1383 1.393 . S
C1380 H1369 0.950 . S
C1380 C1378 1.391 . S
C1380 C1381 1.400 . S
C1381 C1375 1.491 . S
C1381 C1380 1.400 . S
C1381 C1382 1.398 . S
C1382 H1370 0.950 . S
C1382 C1381 1.398 . S
C1382 C1383 1.391 . S
C1383 H1371 0.950 . S
C1383 C1379 1.393 . S
C1383 C1382 1.391 . S
H1384 C1392 0.950 . S
H1385 C1397 0.950 . S
H1386 C1394 0.950 . S
H1387 C1396 0.950 . S
H1388 C1398 0.950 . S
H1389 C1400 0.950 . S
H1390 C1402 0.950 . S
H1391 C1403 0.950 . S
C1392 H1384 0.950 . S
C1392 C1393 1.386 . S
C1392 C1394 1.391 . S
C1393 C1392 1.386 . S
C1393 C1397 1.393 . S
C1394 H1386 0.950 . S
C1394 C1392 1.391 . S
C1394 C1395 1.400 . S
C1395 C1394 1.400 . S
C1395 C1396 1.398 . S
C1395 C1401 1.491 . S
C1396 H1387 0.950 . S
C1396 C1395 1.398 . S
C1396 C1397 1.391 . S
C1397 H1385 0.950 . S
C1397 C1393 1.393 . S
C1397 C1396 1.391 . S
C1398 H1388 0.950 . S
C1398 C1399 1.386 . S
C1398 C1400 1.391 . S
C1399 C1398 1.386 . S
C1399 C1403 1.393 . S
C1400 H1389 0.950 . S
C1400 C1398 1.391 . S
C1400 C1401 1.400 . S
C1401 C1395 1.491 . S
C1401 C1400 1.400 . S
C1401 C1402 1.398 . S
C1402 H1390 0.950 . S
C1402 C1401 1.398 . S
C1402 C1403 1.391 . S
C1403 H1391 0.950 . S
C1403 C1399 1.393 . S
C1403 C1402 1.391 . S
H1404 C1412 0.950 . S
H1405 C1417 0.950 . S
H1406 C1414 0.950 . S
H1407 C1416 0.950 . S
H1408 C1418 0.950 . S
H1409 C1420 0.950 . S
H1410 C1422 0.950 . S
H1411 C1423 0.950 . S
C1412 H1404 0.950 . S
C1412 C1413 1.386 . S
C1412 C1414 1.391 . S
C1413 C1412 1.386 . S
C1413 C1417 1.393 . S
C1414 H1406 0.950 . S
C1414 C1412 1.391 . S
C1414 C1415 1.400 . S
C1415 C1414 1.400 . S
C1415 C1416 1.398 . S
C1415 C1421 1.491 . S
C1416 H1407 0.950 . S
C1416 C1415 1.398 . S
C1416 C1417 1.391 . S
C1417 H1405 0.950 . S
C1417 C1413 1.393 . S
C1417 C1416 1.391 . S
C1418 H1408 0.950 . S
C1418 C1419 1.386 . S
C1418 C1420 1.391 . S
C1419 C1418 1.386 . S
C1419 C1423 1.393 . S
C1420 H1409 0.950 . S
C1420 C1418 1.391 . S
C1420 C1421 1.400 . S
C1421 C1415 1.491 . S
C1421 C1420 1.400 . S
C1421 C1422 1.398 . S
C1422 H1410 0.950 . S
C1422 C1421 1.398 . S
C1422 C1423 1.391 . S
C1423 H1411 0.950 . S
C1423 C1419 1.393 . S
C1423 C1422 1.391 . S
H1424 C1432 0.950 . S
H1425 C1437 0.950 . S
H1426 C1434 0.950 . S
H1427 C1436 0.950 . S
H1428 C1438 0.950 . S
H1429 C1440 0.950 . S
H1430 C1442 0.950 . S
H1431 C1443 0.950 . S
C1432 H1424 0.950 . S
C1432 C1433 1.386 . S
C1432 C1434 1.391 . S
C1433 C1432 1.386 . S
C1433 C1437 1.393 . S
C1434 H1426 0.950 . S
C1434 C1432 1.391 . S
C1434 C1435 1.400 . S
C1435 C1434 1.400 . S
C1435 C1436 1.398 . S
C1435 C1441 1.491 . S
C1436 H1427 0.950 . S
C1436 C1435 1.398 . S
C1436 C1437 1.391 . S
C1437 H1425 0.950 . S
C1437 C1433 1.393 . S
C1437 C1436 1.391 . S
C1438 H1428 0.950 . S
C1438 C1439 1.386 . S
C1438 C1440 1.391 . S
C1439 C1438 1.386 . S
C1439 C1443 1.393 . S
C1440 H1429 0.950 . S
C1440 C1438 1.391 . S
C1440 C1441 1.400 . S
C1441 C1435 1.491 . S
C1441 C1440 1.400 . S
C1441 C1442 1.398 . S
C1442 H1430 0.950 . S
C1442 C1441 1.398 . S
C1442 C1443 1.391 . S
C1443 H1431 0.950 . S
C1443 C1439 1.393 . S
C1443 C1442 1.391 . S
H1444 C1452 0.950 . S
H1445 C1457 0.950 . S
H1446 C1454 0.950 . S
H1447 C1456 0.950 . S
H1448 C1458 0.950 . S
H1449 C1460 0.950 . S
H1450 C1462 0.950 . S
H1451 C1463 0.950 . S
C1452 H1444 0.950 . S
C1452 C1453 1.386 . S
C1452 C1454 1.391 . S
C1453 C1452 1.386 . S
C1453 C1457 1.393 . S
C1454 H1446 0.950 . S
C1454 C1452 1.391 . S
C1454 C1455 1.400 . S
C1455 C1454 1.400 . S
C1455 C1456 1.398 . S
C1455 C1461 1.491 . S
C1456 H1447 0.950 . S
C1456 C1455 1.398 . S
C1456 C1457 1.391 . S
C1457 H1445 0.950 . S
C1457 C1453 1.393 . S
C1457 C1456 1.391 . S
C1458 H1448 0.950 . S
C1458 C1459 1.386 . S
C1458 C1460 1.391 . S
C1459 C1458 1.386 . S
C1459 C1463 1.393 . S
C1460 H1449 0.950 . S
C1460 C1458 1.391 . S
C1460 C1461 1.400 . S
C1461 C1455 1.491 . S
C1461 C1460 1.400 . S
C1461 C1462 1.398 . S
C1462 H1450 0.950 . S
C1462 C1461 1.398 . S
C1462 C1463 1.391 . S
C1463 H1451 0.950 . S
C1463 C1459 1.393 . S
C1463 C1462 1.391 . S
H1464 C1472 0.950 . S
H1465 C1477 0.950 . S
H1466 C1474 0.950 . S
H1467 C1476 0.950 . S
H1468 C1478 0.950 . S
H1469 C1480 0.950 . S
H1470 C1482 0.950 . S
H1471 C1483 0.950 . S
C1472 H1464 0.950 . S
C1472 C1473 1.386 . S
C1472 C1474 1.391 . S
C1473 C1472 1.386 . S
C1473 C1477 1.393 . S
C1474 H1466 0.950 . S
C1474 C1472 1.391 . S
C1474 C1475 1.400 . S
C1475 C1474 1.400 . S
C1475 C1476 1.398 . S
C1475 C1481 1.491 . S
C1476 H1467 0.950 . S
C1476 C1475 1.398 . S
C1476 C1477 1.391 . S
C1477 H1465 0.950 . S
C1477 C1473 1.393 . S
C1477 C1476 1.391 . S
C1478 H1468 0.950 . S
C1478 C1479 1.386 . S
C1478 C1480 1.391 . S
C1479 C1478 1.386 . S
C1479 C1483 1.393 . S
C1480 H1469 0.950 . S
C1480 C1478 1.391 . S
C1480 C1481 1.400 . S
C1481 C1475 1.491 . S
C1481 C1480 1.400 . S
C1481 C1482 1.398 . S
C1482 H1470 0.950 . S
C1482 C1481 1.398 . S
C1482 C1483 1.391 . S
C1483 H1471 0.950 . S
C1483 C1479 1.393 . S
C1483 C1482 1.391 . S
H1484 C1492 0.950 . S
H1485 C1497 0.950 . S
H1486 C1494 0.950 . S
H1487 C1496 0.950 . S
H1488 C1498 0.950 . S
H1489 C1500 0.950 . S
H1490 C1502 0.950 . S
H1491 C1503 0.950 . S
C1492 H1484 0.950 . S
C1492 C1493 1.386 . S
C1492 C1494 1.391 . S
C1493 C1492 1.386 . S
C1493 C1497 1.393 . S
C1494 H1486 0.950 . S
C1494 C1492 1.391 . S
C1494 C1495 1.400 . S
C1495 C1494 1.400 . S
C1495 C1496 1.398 . S
C1495 C1501 1.491 . S
C1496 H1487 0.950 . S
C1496 C1495 1.398 . S
C1496 C1497 1.391 . S
C1497 H1485 0.950 . S
C1497 C1493 1.393 . S
C1497 C1496 1.391 . S
C1498 H1488 0.950 . S
C1498 C1499 1.386 . S
C1498 C1500 1.391 . S
C1499 C1498 1.386 . S
C1499 C1503 1.393 . S
C1500 H1489 0.950 . S
C1500 C1498 1.391 . S
C1500 C1501 1.400 . S
C1501 C1495 1.491 . S
C1501 C1500 1.400 . S
C1501 C1502 1.398 . S
C1502 H1490 0.950 . S
C1502 C1501 1.398 . S
C1502 C1503 1.391 . S
C1503 H1491 0.950 . S
C1503 C1499 1.393 . S
C1503 C1502 1.391 . S
H1504 C1512 0.950 . S
H1505 C1517 0.950 . S
H1506 C1514 0.950 . S
H1507 C1516 0.950 . S
H1508 C1518 0.950 . S
H1509 C1520 0.950 . S
H1510 C1522 0.950 . S
H1511 C1523 0.950 . S
C1512 H1504 0.950 . S
C1512 C1513 1.386 . S
C1512 C1514 1.391 . S
C1513 C1512 1.386 . S
C1513 C1517 1.393 . S
C1514 H1506 0.950 . S
C1514 C1512 1.391 . S
C1514 C1515 1.400 . S
C1515 C1514 1.400 . S
C1515 C1516 1.398 . S
C1515 C1521 1.491 . S
C1516 H1507 0.950 . S
C1516 C1515 1.398 . S
C1516 C1517 1.391 . S
C1517 H1505 0.950 . S
C1517 C1513 1.393 . S
C1517 C1516 1.391 . S
C1518 H1508 0.950 . S
C1518 C1519 1.386 . S
C1518 C1520 1.391 . S
C1519 C1518 1.386 . S
C1519 C1523 1.393 . S
C1520 H1509 0.950 . S
C1520 C1518 1.391 . S
C1520 C1521 1.400 . S
C1521 C1515 1.491 . S
C1521 C1520 1.400 . S
C1521 C1522 1.398 . S
C1522 H1510 0.950 . S
C1522 C1521 1.398 . S
C1522 C1523 1.391 . S
C1523 H1511 0.950 . S
C1523 C1519 1.393 . S
C1523 C1522 1.391 . S
H1524 C1532 0.950 . S
H1525 C1537 0.950 . S
H1526 C1534 0.950 . S
H1527 C1536 0.950 . S
H1528 C1538 0.950 . S
H1529 C1540 0.950 . S
H1530 C1542 0.950 . S
H1531 C1543 0.950 . S
C1532 H1524 0.950 . S
C1532 C1533 1.386 . S
C1532 C1534 1.391 . S
C1533 C1532 1.386 . S
C1533 C1537 1.393 . S
C1534 H1526 0.950 . S
C1534 C1532 1.391 . S
C1534 C1535 1.400 . S
C1535 C1534 1.400 . S
C1535 C1536 1.398 . S
C1535 C1541 1.491 . S
C1536 H1527 0.950 . S
C1536 C1535 1.398 . S
C1536 C1537 1.391 . S
C1537 H1525 0.950 . S
C1537 C1533 1.393 . S
C1537 C1536 1.391 . S
C1538 H1528 0.950 . S
C1538 C1539 1.386 . S
C1538 C1540 1.391 . S
C1539 C1538 1.386 . S
C1539 C1543 1.393 . S
C1540 H1529 0.950 . S
C1540 C1538 1.391 . S
C1540 C1541 1.400 . S
C1541 C1535 1.491 . S
C1541 C1540 1.400 . S
C1541 C1542 1.398 . S
C1542 H1530 0.950 . S
C1542 C1541 1.398 . S
C1542 C1543 1.391 . S
C1543 H1531 0.950 . S
C1543 C1539 1.393 . S
C1543 C1542 1.391 . S
H1544 C1552 0.950 . S
H1545 C1557 0.950 . S
H1546 C1554 0.950 . S
H1547 C1556 0.950 . S
H1548 C1558 0.950 . S
H1549 C1560 0.950 . S
H1550 C1562 0.950 . S
H1551 C1563 0.950 . S
C1552 H1544 0.950 . S
C1552 C1553 1.386 . S
C1552 C1554 1.391 . S
C1553 C1552 1.386 . S
C1553 C1557 1.393 . S
C1554 H1546 0.950 . S
C1554 C1552 1.391 . S
C1554 C1555 1.400 . S
C1555 C1554 1.400 . S
C1555 C1556 1.398 . S
C1555 C1561 1.491 . S
C1556 H1547 0.950 . S
C1556 C1555 1.398 . S
C1556 C1557 1.391 . S
C1557 H1545 0.950 . S
C1557 C1553 1.393 . S
C1557 C1556 1.391 . S
C1558 H1548 0.950 . S
C1558 C1559 1.386 . S
C1558 C1560 1.391 . S
C1559 C1558 1.386 . S
C1559 C1563 1.393 . S
C1560 H1549 0.950 . S
C1560 C1558 1.391 . S
C1560 C1561 1.400 . S
C1561 C1555 1.491 . S
C1561 C1560 1.400 . S
C1561 C1562 1.398 . S
C1562 H1550 0.950 . S
C1562 C1561 1.398 . S
C1562 C1563 1.391 . S
C1563 H1551 0.950 . S
C1563 C1559 1.393 . S
C1563 C1562 1.391 . S
H1564 C1572 0.950 . S
H1565 C1577 0.950 . S
H1566 C1574 0.950 . S
H1567 C1576 0.950 . S
H1568 C1578 0.950 . S
H1569 C1580 0.950 . S
H1570 C1582 0.950 . S
H1571 C1583 0.950 . S
C1572 H1564 0.950 . S
C1572 C1573 1.386 . S
C1572 C1574 1.391 . S
C1573 C1572 1.386 . S
C1573 C1577 1.393 . S
C1574 H1566 0.950 . S
C1574 C1572 1.391 . S
C1574 C1575 1.400 . S
C1575 C1574 1.400 . S
C1575 C1576 1.398 . S
C1575 C1581 1.491 . S
C1576 H1567 0.950 . S
C1576 C1575 1.398 . S
C1576 C1577 1.391 . S
C1577 H1565 0.950 . S
C1577 C1573 1.393 . S
C1577 C1576 1.391 . S
C1578 H1568 0.950 . S
C1578 C1579 1.386 . S
C1578 C1580 1.391 . S
C1579 C1578 1.386 . S
C1579 C1583 1.393 . S
C1580 H1569 0.950 . S
C1580 C1578 1.391 . S
C1580 C1581 1.400 . S
C1581 C1575 1.491 . S
C1581 C1580 1.400 . S
C1581 C1582 1.398 . S
C1582 H1570 0.950 . S
C1582 C1581 1.398 . S
C1582 C1583 1.391 . S
C1583 H1571 0.950 . S
C1583 C1579 1.393 . S
C1583 C1582 1.391 . S
C473 C5 2.880 1_455 S
C479 C382 2.882 . S
C493 C324 2.888 . S
C499 C34 2.885 . S
C513 C63 2.888 . S
C519 C353 2.885 . S
C533 C92 2.884 . S
C539 C295 2.880 . S
C553 C440 2.883 . S
C559 C121 2.879 1_455 S
C573 C150 2.888 . S
C579 C266 2.885 . S
C593 C411 2.888 . S
C599 C179 2.886 . S
C613 C208 2.883 . S
C619 C237 2.887 . S
C633 C102 1.391 . S
C639 C3 1.429 . S
C653 C15 1.394 . S
C659 C32 1.423 . S
C673 C44 1.371 . S
C679 C61 1.434 . S
C693 C90 1.436 . S
C699 C73 1.367 . S
C713 C160 1.369 . S
C719 C119 1.434 . S
C733 C189 1.374 . S
C739 C148 1.432 . S
C753 C218 1.372 . S
C759 C177 1.438 . S
C773 C131 1.366 . S
C779 C206 1.438 . S
C793 C137 1.188 . S
C799 C269 1.352 . S
C813 C253 1.154 . S
C819 C124 1.348 1_545 S
C833 C195 1.185 . S
C839 C240 1.357 . S
C853 C282 1.163 . S
C859 C182 1.351 1_565 S
C873 C298 1.359 . S
C879 C21 1.210 . S
C893 C66 1.346 1_545 S
C899 C311 1.153 . S
C913 C327 1.357 . S
C919 C79 1.183 . S
C933 C8 1.359 1_565 S
C939 C340 1.198 . S
C953 C334 1.391 . S
C959 C351 1.426 . S
C973 C363 1.383 . S
C979 C293 1.428 . S
C993 C380 1.436 . S
C999 C305 1.378 . S
C1013 C322 1.436 . S
C1019 C392 1.367 . S
C1033 C409 1.430 . S
C1039 C247 1.391 . S
C1053 C450 1.394 . S
C1059 C235 1.427 . S
C1073 C276 1.395 . S
C1079 C438 1.426 . S
C1093 C421 1.369 . S
C1099 C264 1.440 . S
C1113 C211 1.360 . S
C1119 C427 1.205 . S
C1133 C414 1.345 . S
C1139 C166 1.155 . S
C1153 C456 1.207 . S
C1159 C153 1.357 . S
C1173 C224 1.153 . S
C1179 C443 1.345 . S
C1193 C37 1.345 . S
C1199 C369 1.154 . S
C1213 C50 1.185 . S
C1219 C385 1.357 . S
C1233 C398 1.179 . S
C1239 C95 1.347 . S
C1253 C356 1.349 . S
C1259 C108 1.156 . S
C1273 C158 0.845 . S
C1279 C13 0.797 . S
C1293 C187 0.779 . S
C1299 C42 0.806 . S
C1313 C216 0.824 . S
C1319 C71 0.843 . S
C1333 C100 0.820 . S
C1339 C129 0.775 . S
C1353 C126 1.629 . S
C1359 C300 1.628 . S
C1373 C242 1.635 . S
C1379 C68 1.623 . S
C1393 C329 1.641 . S
C1399 C184 1.631 . S
C1413 C10 1.627 . S
C1419 C271 1.644 . S
C1433 C361 0.777 . S
C1439 C245 0.818 . S
C1453 C303 0.824 . S
C1459 C448 0.843 . S
C1473 C390 0.787 . S
C1479 C274 0.838 . S
C1493 C419 0.846 . S
C1499 C332 0.805 . S
C1513 C39 1.634 . S
C1519 C416 1.623 . S
C1533 C387 1.632 . S
C1539 C155 1.624 . S
C1553 C97 1.641 . S
C1559 C445 1.631 . S
C1573 C213 1.641 . S
C1579 C358 1.632 . S
