# Generated by pormake.
# Topology sog, (5)-cn, num edge types: 1
# Building blocks:
#     Node 0, Type 0, BuildingBlock: XOMCOT_clean_sbu_1, # of connection points: 5
#     Node 1, Type 0, BuildingBlock: XOMCOT_clean_sbu_1, # of connection points: 5
#     Node 2, Type 0, BuildingBlock: XOMCOT_clean_sbu_1, # of connection points: 5
#     Node 3, Type 0, BuildingBlock: XOMCOT_clean_sbu_1, # of connection points: 5
#     Node 4, Type 0, BuildingBlock: XOMCOT_clean_sbu_1, # of connection points: 5
#     Node 5, Type 0, BuildingBlock: XOMCOT_clean_sbu_1, # of connection points: 5
#     Node 6, Type 0, BuildingBlock: XOMCOT_clean_sbu_1, # of connection points: 5
#     Node 7, Type 0, BuildingBlock: XOMCOT_clean_sbu_1, # of connection points: 5
#     Node 8, Type 0, BuildingBlock: XOMCOT_clean_sbu_1, # of connection points: 5
#     Node 9, Type 0, BuildingBlock: XOMCOT_clean_sbu_1, # of connection points: 5
#     Node 10, Type 0, BuildingBlock: XOMCOT_clean_sbu_1, # of connection points: 5
#     Node 11, Type 0, BuildingBlock: XOMCOT_clean_sbu_1, # of connection points: 5
#     Node 12, Type 0, BuildingBlock: XOMCOT_clean_sbu_1, # of connection points: 5
#     Node 13, Type 0, BuildingBlock: XOMCOT_clean_sbu_1, # of connection points: 5
#     Node 14, Type 0, BuildingBlock: XOMCOT_clean_sbu_1, # of connection points: 5
#     Node 15, Type 0, BuildingBlock: XOMCOT_clean_sbu_1, # of connection points: 5
#     Node 16, Type 0, BuildingBlock: XOMCOT_clean_sbu_1, # of connection points: 5
#     Node 17, Type 0, BuildingBlock: XOMCOT_clean_sbu_1, # of connection points: 5
#     Node 18, Type 0, BuildingBlock: XOMCOT_clean_sbu_1, # of connection points: 5
#     Node 19, Type 0, BuildingBlock: XOMCOT_clean_sbu_1, # of connection points: 5
#     Node 20, Type 0, BuildingBlock: XOMCOT_clean_sbu_1, # of connection points: 5
#     Node 21, Type 0, BuildingBlock: XOMCOT_clean_sbu_1, # of connection points: 5
#     Node 22, Type 0, BuildingBlock: XOMCOT_clean_sbu_1, # of connection points: 5
#     Node 23, Type 0, BuildingBlock: XOMCOT_clean_sbu_1, # of connection points: 5
#     Node 24, Type 0, BuildingBlock: XOMCOT_clean_sbu_1, # of connection points: 5
#     Node 25, Type 0, BuildingBlock: XOMCOT_clean_sbu_1, # of connection points: 5
#     Node 26, Type 0, BuildingBlock: XOMCOT_clean_sbu_1, # of connection points: 5
#     Node 27, Type 0, BuildingBlock: XOMCOT_clean_sbu_1, # of connection points: 5
#     Node 28, Type 0, BuildingBlock: XOMCOT_clean_sbu_1, # of connection points: 5
#     Node 29, Type 0, BuildingBlock: XOMCOT_clean_sbu_1, # of connection points: 5
#     Node 30, Type 0, BuildingBlock: XOMCOT_clean_sbu_1, # of connection points: 5
#     Node 31, Type 0, BuildingBlock: XOMCOT_clean_sbu_1, # of connection points: 5
#     Edge 32, Type (0, 0), None
#     Edge 33, Type (0, 0), None
#     Edge 34, Type (0, 0), None
#     Edge 35, Type (0, 0), None
#     Edge 36, Type (0, 0), None
#     Edge 37, Type (0, 0), None
#     Edge 38, Type (0, 0), None
#     Edge 39, Type (0, 0), None
#     Edge 40, Type (0, 0), None
#     Edge 41, Type (0, 0), None
#     Edge 42, Type (0, 0), None
#     Edge 43, Type (0, 0), None
#     Edge 44, Type (0, 0), None
#     Edge 45, Type (0, 0), None
#     Edge 46, Type (0, 0), None
#     Edge 47, Type (0, 0), None
#     Edge 48, Type (0, 0), None
#     Edge 49, Type (0, 0), None
#     Edge 50, Type (0, 0), None
#     Edge 51, Type (0, 0), None
#     Edge 52, Type (0, 0), None
#     Edge 53, Type (0, 0), None
#     Edge 54, Type (0, 0), None
#     Edge 55, Type (0, 0), None
#     Edge 56, Type (0, 0), None
#     Edge 57, Type (0, 0), None
#     Edge 58, Type (0, 0), None
#     Edge 59, Type (0, 0), None
#     Edge 60, Type (0, 0), None
#     Edge 61, Type (0, 0), None
#     Edge 62, Type (0, 0), None
#     Edge 63, Type (0, 0), None
#     Edge 64, Type (0, 0), None
#     Edge 65, Type (0, 0), None
#     Edge 66, Type (0, 0), None
#     Edge 67, Type (0, 0), None
#     Edge 68, Type (0, 0), None
#     Edge 69, Type (0, 0), None
#     Edge 70, Type (0, 0), None
#     Edge 71, Type (0, 0), None
#     Edge 72, Type (0, 0), None
#     Edge 73, Type (0, 0), None
#     Edge 74, Type (0, 0), None
#     Edge 75, Type (0, 0), None
#     Edge 76, Type (0, 0), None
#     Edge 77, Type (0, 0), None
#     Edge 78, Type (0, 0), None
#     Edge 79, Type (0, 0), None
#     Edge 80, Type (0, 0), None
#     Edge 81, Type (0, 0), None
#     Edge 82, Type (0, 0), None
#     Edge 83, Type (0, 0), None
#     Edge 84, Type (0, 0), None
#     Edge 85, Type (0, 0), None
#     Edge 86, Type (0, 0), None
#     Edge 87, Type (0, 0), None
#     Edge 88, Type (0, 0), None
#     Edge 89, Type (0, 0), None
#     Edge 90, Type (0, 0), None
#     Edge 91, Type (0, 0), None
#     Edge 92, Type (0, 0), None
#     Edge 93, Type (0, 0), None
#     Edge 94, Type (0, 0), None
#     Edge 95, Type (0, 0), None
#     Edge 96, Type (0, 0), None
#     Edge 97, Type (0, 0), None
#     Edge 98, Type (0, 0), None
#     Edge 99, Type (0, 0), None
#     Edge 100, Type (0, 0), None
#     Edge 101, Type (0, 0), None
#     Edge 102, Type (0, 0), None
#     Edge 103, Type (0, 0), None
#     Edge 104, Type (0, 0), None
#     Edge 105, Type (0, 0), None
#     Edge 106, Type (0, 0), None
#     Edge 107, Type (0, 0), None
#     Edge 108, Type (0, 0), None
#     Edge 109, Type (0, 0), None
#     Edge 110, Type (0, 0), None
#     Edge 111, Type (0, 0), None
# Relax obj value: 0.218
# Max RMSD: 0.203
# Mean RMSD: 0.203
data_MOF--net-sog--node1-XOMCOT_clean_sbu_1--edge1-none
_symmetry_space_group_name_H-M    P1
_symmetry_Int_Tables_number       1
_symmetry_cell_setting            triclinic
loop_
_symmetry_equiv_pos_as_xyz
'x, y, z'
_cell_length_a     40.434454
_cell_length_b     8.9052422
_cell_length_c     61.80557
_cell_angle_alpha  90.027717
_cell_angle_beta   90.003543
_cell_angle_gamma 90.00607
loop_
_atom_site_label
_atom_site_type_symbol
_atom_site_fract_x
_atom_site_fract_y
_atom_site_fract_z
_atom_type_partial_charge
C0 C 0.50207 0.40332 0.03007 0.0
C1 C 0.49743 0.55544 0.03219 0.0
N2 N 0.47507 0.59859 0.01737 0.0
N3 N 0.48127 0.35027 0.01475 0.0
C4 C 0.46743 0.47423 0.00614 0.0
H5 H 0.5159 0.3345 0.04124 0.0
Co6 Co 0.46051 0.16238 0.0161 0.0
C7 C 0.38871 0.31449 0.00053 0.0
O8 O 0.36978 0.22307 -0.01056 0.0
N9 N 0.44059 0.96562 0.01816 0.0
C10 C 0.4374 0.75667 0.03829 0.0
C11 C 0.4283 0.90493 0.03668 0.0
C12 C 0.4532 0.84394 0.00777 0.0
N13 N 0.45345 0.72075 0.02008 0.0
O14 O 0.47418 0.11716 -0.01326 0.0
H15 H 0.41658 0.96618 0.04962 0.0
H16 H 0.46396 0.84345 -0.008 0.0
O17 O 0.4171 0.26531 0.00723 0.0
C18 C 0.50229 0.04873 -0.01404 0.0
O19 O 0.52033 0.04082 0.00359 0.0
N20 N 0.45212 0.194 0.04535 0.0
C21 C 0.44759 0.16405 0.08988 0.0
C22 C 0.42302 0.24221 0.07841 0.0
C23 C 0.42592 0.25775 0.05585 0.0
C24 C 0.47641 0.12171 0.0565 0.0
C25 C 0.47465 0.10548 0.07872 0.0
H26 H 0.40672 0.31436 0.04689 0.0
H27 H 0.49667 0.07052 0.04776 0.0
H28 H 0.44927 0.47129 -0.00656 0.0
H29 H 0.50649 0.6251 0.04527 0.0
H30 H 0.43452 0.68428 0.05223 0.0
H31 H 0.40206 0.29008 0.08681 0.0
H32 H 0.49413 0.04557 0.08712 0.0
C33 C 0.77404 0.88132 0.03895 0.0
C34 C 0.78134 0.73046 0.03971 0.0
N35 N 0.79699 0.69606 0.02125 0.0
N36 N 0.78644 0.93981 0.02042 0.0
C37 C 0.79813 0.82112 0.00936 0.0
H38 H 0.76477 0.94653 0.05239 0.0
Co39 Co 0.80475 0.12896 0.01729 0.0
C40 C 0.87759 0.98668 0.00415 0.0
O41 O 0.89828 0.09533 -0.00012 0.0
N42 N 0.82203 0.31937 0.01461 0.0
C43 C 0.84508 0.53151 0.02603 0.0
C44 C 0.84929 0.37818 0.02384 0.0
C45 C 0.80204 0.43793 0.0111 0.0
N46 N 0.81558 0.56645 0.01735 0.0
O47 O 0.78989 0.14407 -0.01245 0.0
H48 H 0.86793 0.3111 0.03161 0.0
H49 H 0.77607 0.43139 0.00774 0.0
O50 O 0.84777 1.02274 0.0094 0.0
C51 C 0.76136 0.20705 -0.01391 0.0
O52 O 0.74199 0.20809 0.00316 0.0
N53 N 0.81589 0.13278 0.04654 0.0
C54 C 0.82312 0.18735 0.0905 0.0
C55 C 0.84554 0.09327 0.07966 0.0
C56 C 0.84145 0.06676 0.05741 0.0
C57 C 0.79431 0.22537 0.05693 0.0
C58 C 0.79756 0.25481 0.07883 0.0
H59 H 0.85837 0.99285 0.04913 0.0
H60 H 0.77421 0.27609 0.04799 0.0
H61 H 0.81098 0.82976 -0.0059 0.0
H62 H 0.77826 0.6557 0.05337 0.0
H63 H 0.86052 0.60779 0.03519 0.0
H64 H 0.86511 0.03714 0.08844 0.0
H65 H 0.77957 0.32626 0.08677 0.0
C66 C 0.50016 0.88526 0.17081 0.0
C67 C 0.49515 0.73301 0.16941 0.0
N68 N 0.47487 0.69276 0.18561 0.0
N69 N 0.48163 0.94033 0.18719 0.0
C70 C 0.46874 0.81835 0.19686 0.0
H71 H 0.5123 0.9526 0.15865 0.0
Co72 Co 0.46141 0.12797 0.18737 0.0
C73 C 0.3889 0.97788 0.20166 0.0
O74 O 0.36952 0.07593 0.21109 0.0
N75 N 0.44203 0.32417 0.18701 0.0
C76 C 0.43351 0.53489 0.16806 0.0
C77 C 0.42574 0.3852 0.16994 0.0
C78 C 0.45669 0.44517 0.19632 0.0
N79 N 0.45311 0.57026 0.18473 0.0
O80 O 0.4752 0.16054 0.21698 0.0
H81 H 0.41246 0.32313 0.15775 0.0
H82 H 0.47256 0.44406 0.21007 0.0
O83 O 0.41789 1.02197 0.1954 0.0
C84 C 0.50404 0.22199 0.21769 0.0
O85 O 0.52143 0.23103 0.19979 0.0
N86 N 0.45275 0.10888 0.15791 0.0
C87 C 0.44738 0.15097 0.11362 0.0
C88 C 0.42403 0.06277 0.12465 0.0
C89 C 0.42731 0.04151 0.14708 0.0
C90 C 0.47591 0.19129 0.14719 0.0
C91 C 0.47362 0.21433 0.1251 0.0
H92 H 0.40918 0.97548 0.15566 0.0
H93 H 0.49577 0.24365 0.15617 0.0
H94 H 0.45174 0.82374 0.21025 0.0
H95 H 0.50232 0.66121 0.15607 0.0
H96 H 0.42757 0.60838 0.15466 0.0
H97 H 0.40393 1.00984 0.11597 0.0
H98 H 0.4923 0.28105 0.11701 0.0
C99 C 0.76489 0.40931 0.17641 0.0
C100 C 0.76835 0.56185 0.1741 0.0
N101 N 0.7923 0.60798 0.18763 0.0
N102 N 0.78791 0.35878 0.19048 0.0
C103 C 0.80211 0.48446 0.19833 0.0
H104 H 0.74997 0.33884 0.16608 0.0
Co105 Co 0.80838 0.17077 0.18797 0.0
C106 C 0.87975 0.32529 0.20419 0.0
O107 O 0.89902 0.24592 0.21686 0.0
N108 N 0.82787 0.97348 0.18476 0.0
C109 C 0.82638 0.76607 0.16421 0.0
C110 C 0.83682 0.91248 0.16543 0.0
C111 C 0.81659 0.85235 0.1959 0.0
N112 N 0.81314 0.73088 0.18339 0.0
O113 O 0.79402 0.11681 0.21694 0.0
H114 H 0.84717 0.97246 0.1519 0.0
H115 H 0.80927 0.85202 0.21256 0.0
O116 O 0.85207 0.26562 0.19788 0.0
C117 C 0.76633 0.0446 0.21723 0.0
O118 O 0.74862 0.03745 0.19945 0.0
N119 N 0.81735 0.21193 0.159 0.0
C120 C 0.82223 0.19714 0.11428 0.0
C121 C 0.84769 0.26327 0.12648 0.0
C122 C 0.8446 0.27121 0.14912 0.0
C123 C 0.79234 0.15061 0.14716 0.0
C124 C 0.79423 0.14239 0.12485 0.0
H125 H 0.86454 0.31727 0.15858 0.0
H126 H 0.77149 0.10009 0.15537 0.0
H127 H 0.82193 0.48446 0.20995 0.0
H128 H 0.75729 0.63009 0.16154 0.0
H129 H 0.82683 0.69386 0.15012 0.0
H130 H 0.8696 0.30669 0.11863 0.0
H131 H 0.77424 0.08996 0.11593 0.0
C132 C 0.52441 0.62482 0.91443 0.0
C133 C 0.53156 0.47377 0.91385 0.0
N134 N 0.54699 0.44024 0.93243 0.0
N135 N 0.53655 0.68399 0.93299 0.0
C136 C 0.5481 0.56577 0.9442 0.0
H137 H 0.51532 0.68948 0.90088 0.0
Co138 Co 0.55456 0.87335 0.93632 0.0
C139 C 0.62749 0.73498 0.94919 0.0
O140 O 0.64834 0.84543 0.9518 0.0
N141 N 0.57151 0.06309 0.93922 0.0
C142 C 0.59559 0.27641 0.92944 0.0
C143 C 0.59971 0.1229 0.93149 0.0
C144 C 0.55097 0.18058 0.94186 0.0
N145 N 0.56509 0.30987 0.93666 0.0
O146 O 0.53953 0.88733 0.96595 0.0
H147 H 0.61946 0.05683 0.92477 0.0
H148 H 0.52468 0.17266 0.94396 0.0
O149 O 0.59742 0.76783 0.94427 0.0
C150 C 0.51109 0.95118 0.9673 0.0
O151 O 0.49159 0.95053 0.95029 0.0
N152 N 0.56596 0.87879 0.90717 0.0
C153 C 0.57331 0.93531 0.86331 0.0
C154 C 0.59611 0.84331 0.87417 0.0
C155 C 0.59196 0.81592 0.89638 0.0
C156 C 0.54408 0.96983 0.89679 0.0
C157 C 0.54739 1.00029 0.87493 0.0
H158 H 0.60917 0.74358 0.90466 0.0
H159 H 0.52363 1.01813 0.90566 0.0
H160 H 0.56079 0.5748 0.95952 0.0
H161 H 0.52852 0.39817 0.90028 0.0
H162 H 0.61202 0.35391 0.9213 0.0
H163 H 0.61601 0.78927 0.86543 0.0
H164 H 0.52914 0.07018 0.86697 0.0
C165 C 0.25266 0.15472 0.92435 0.0
C166 C 0.2483 0.30706 0.92233 0.0
N167 N 0.22547 0.35042 0.93684 0.0
N168 N 0.23129 0.10155 0.9393 0.0
C169 C 0.21739 0.22564 0.94785 0.0
H170 H 0.2668 0.08609 0.91331 0.0
Co171 Co 0.2104 0.91368 0.93757 0.0
C172 C 0.13872 0.06815 0.95335 0.0
O173 O 0.11975 0.97887 0.96476 0.0
N174 N 0.19041 0.71654 0.93515 0.0
C175 C 0.1888 0.50706 0.915 0.0
C176 C 0.17942 0.65505 0.91632 0.0
C177 C 0.20236 0.59509 0.94594 0.0
N178 N 0.20374 0.47176 0.93362 0.0
O179 O 0.2242 0.86546 0.96683 0.0
H180 H 0.16837 0.71535 0.90306 0.0
H181 H 0.21161 0.59503 0.96213 0.0
O182 O 0.16696 1.0167 0.94665 0.0
C183 C 0.25208 0.79478 0.96733 0.0
O184 O 0.26996 0.7877 0.94963 0.0
N185 N 0.20205 0.94771 0.90836 0.0
C186 C 0.19769 0.91518 0.8638 0.0
C187 C 0.17264 0.99071 0.87524 0.0
C188 C 0.17545 1.00758 0.89782 0.0
C189 C 0.22679 0.87834 0.89725 0.0
C190 C 0.22513 0.86094 0.87504 0.0
H191 H 0.1558 0.06104 0.90676 0.0
H192 H 0.24725 0.82922 0.90602 0.0
H193 H 0.19904 0.22267 0.96042 0.0
H194 H 0.25786 0.37682 0.90942 0.0
H195 H 0.18693 0.4345 0.901 0.0
H196 H 0.15132 0.03512 0.86684 0.0
H197 H 0.24494 0.80271 0.86673 0.0
C198 C 0.51539 0.15791 0.77794 0.0
C199 C 0.51903 0.31034 0.7803 0.0
N200 N 0.54267 0.35618 0.76654 0.0
N201 N 0.53804 0.10731 0.76362 0.0
C202 C 0.55219 0.23278 0.7557 0.0
H203 H 0.50067 0.08743 0.78839 0.0
Co204 Co 0.55845 0.91934 0.76586 0.0
C205 C 0.6299 0.07219 0.7498 0.0
O206 O 0.64914 0.99113 0.73732 0.0
N207 N 0.57791 0.72226 0.76884 0.0
C208 C 0.57752 0.51504 0.7894 0.0
C209 C 0.58778 0.66167 0.78798 0.0
C210 C 0.56619 0.60102 0.75792 0.0
N211 N 0.56351 0.47951 0.77046 0.0
O212 O 0.54419 0.86738 0.73682 0.0
H213 H 0.59862 0.72218 0.80132 0.0
H214 H 0.55795 0.60039 0.74146 0.0
O215 O 0.60211 1.01415 0.75614 0.0
C216 C 0.51631 0.79683 0.73635 0.0
O217 O 0.4985 0.78932 0.75408 0.0
N218 N 0.56743 0.95896 0.79486 0.0
C219 C 0.57242 0.94459 0.83955 0.0
C220 C 0.59755 1.01315 0.82737 0.0
C221 C 0.59441 1.02083 0.80474 0.0
C222 C 0.5427 0.89532 0.80668 0.0
C223 C 0.54467 0.88707 0.82898 0.0
H224 H 0.61407 0.06936 0.79529 0.0
H225 H 0.522 0.84361 0.79846 0.0
H226 H 0.57182 0.23255 0.74394 0.0
H227 H 0.5083 0.37865 0.79298 0.0
H228 H 0.57866 0.44286 0.80347 0.0
H229 H 0.61923 0.05893 0.83523 0.0
H230 H 0.52492 0.83291 0.83791 0.0
C231 C 0.25114 0.63873 0.78171 0.0
C232 C 0.24658 0.48626 0.78324 0.0
N233 N 0.22538 0.44458 0.76761 0.0
N234 N 0.23148 0.69287 0.76586 0.0
C235 C 0.21835 0.56995 0.75652 0.0
H236 H 0.26395 0.70664 0.79351 0.0
Co237 Co 0.21099 0.88053 0.76627 0.0
C238 C 0.13888 0.72859 0.75118 0.0
O239 O 0.1203 0.8226 0.74032 0.0
N240 N 0.19136 0.07723 0.76728 0.0
C241 C 0.18562 0.2876 0.78684 0.0
C242 C 0.17704 0.13878 0.78509 0.0
C243 C 0.2052 0.19809 0.7574 0.0
N244 N 0.20358 0.32253 0.76939 0.0
O245 O 0.2249 0.91778 0.73677 0.0
H246 H 0.16419 0.07789 0.79759 0.0
H247 H 0.21864 0.19715 0.74254 0.0
O248 O 0.16755 0.77477 0.75783 0.0
C249 C 0.25349 0.98199 0.73621 0.0
O250 O 0.27071 0.99191 0.75417 0.0
N251 N 0.20245 0.85692 0.79569 0.0
C252 C 0.19751 0.8998 0.84005 0.0
C253 C 0.17345 0.8154 0.829 0.0
C254 C 0.17653 0.79357 0.80653 0.0
C255 C 0.22628 0.93517 0.80644 0.0
C256 C 0.22423 0.95848 0.82852 0.0
H257 H 0.15774 0.73181 0.7979 0.0
H258 H 0.24641 0.98525 0.79744 0.0
H259 H 0.20076 0.57418 0.74346 0.0
H260 H 0.25471 0.41517 0.79641 0.0
H261 H 0.18114 0.36101 0.8005 0.0
H262 H 0.15285 0.76654 0.83766 0.0
H263 H 0.2434 1.02272 0.83657 0.0
C264 C 0.50319 0.90473 0.52802 0.0
C265 C 0.49959 0.05716 0.53041 0.0
N266 N 0.4758 0.10301 0.51676 0.0
N267 N 0.48038 0.85418 0.51379 0.0
C268 C 0.46611 0.97971 0.50597 0.0
H269 H 0.51801 0.83419 0.5384 0.0
Co270 Co 0.4601 0.66599 0.51613 0.0
C271 C 0.38876 0.8182 0.50002 0.0
O272 O 0.36961 0.73895 0.48724 0.0
N273 N 0.44068 0.46903 0.51916 0.0
C274 C 0.44121 0.26205 0.53974 0.0
C275 C 0.43092 0.40856 0.53834 0.0
C276 C 0.45225 0.34776 0.50821 0.0
N277 N 0.45502 0.22636 0.52075 0.0
O278 O 0.4744 0.6136 0.48712 0.0
H279 H 0.42014 0.46908 0.55169 0.0
H280 H 0.46036 0.3471 0.49171 0.0
O281 O 0.41648 0.75925 0.50629 0.0
C282 C 0.50224 0.54281 0.48666 0.0
O283 O 0.52005 0.53527 0.5044 0.0
N284 N 0.4511 0.70613 0.54512 0.0
C285 C 0.44621 0.69225 0.58982 0.0
C286 C 0.42102 0.76037 0.57763 0.0
C287 C 0.4241 0.76774 0.555 0.0
C288 C 0.47589 0.64297 0.55694 0.0
C289 C 0.47396 0.63493 0.57924 0.0
H290 H 0.40439 0.81567 0.54554 0.0
H291 H 0.49659 0.59134 0.54872 0.0
H292 H 0.4462 0.97977 0.49441 0.0
H293 H 0.51046 0.12544 0.54304 0.0
H294 H 0.44018 0.18994 0.55382 0.0
H295 H 0.39933 0.80595 0.5855 0.0
H296 H 0.49376 0.58105 0.58816 0.0
C297 C 0.77412 0.38294 0.53897 0.0
C298 C 0.78163 0.23233 0.53984 0.0
N299 N 0.79738 0.19785 0.52142 0.0
N300 N 0.78649 0.44129 0.52042 0.0
C301 C 0.79831 0.32253 0.50944 0.0
H302 H 0.76474 0.44828 0.55237 0.0
Co303 Co 0.80491 0.63047 0.51737 0.0
C304 C 0.8776 0.48771 0.504 0.0
O305 O 0.89828 0.59601 0.49953 0.0
N306 N 0.82228 0.82098 0.51479 0.0
C307 C 0.84536 0.03281 0.52633 0.0
C308 C 0.84949 0.87941 0.52415 0.0
C309 C 0.8024 0.93986 0.51124 0.0
N310 N 0.81596 0.06819 0.51755 0.0
O311 O 0.79005 0.64653 0.48767 0.0
H312 H 0.86798 0.81204 0.53201 0.0
H313 H 0.77645 0.93381 0.50782 0.0
O314 O 0.84786 0.52426 0.50936 0.0
C315 C 0.7616 0.71019 0.48624 0.0
O316 O 0.74219 0.71115 0.5033 0.0
N317 N 0.81609 0.63322 0.54658 0.0
C318 C 0.82328 0.68539 0.59056 0.0
C319 C 0.84559 0.59114 0.57966 0.0
C320 C 0.84152 0.56586 0.5574 0.0
C321 C 0.7946 0.72586 0.55703 0.0
C322 C 0.79782 0.75409 0.57896 0.0
H323 H 0.85833 0.49174 0.54906 0.0
H324 H 0.77457 0.77745 0.54813 0.0
H325 H 0.81108 0.33101 0.49415 0.0
H326 H 0.77859 0.15785 0.55354 0.0
H327 H 0.86076 0.10884 0.53556 0.0
H328 H 0.86506 0.53401 0.58841 0.0
H329 H 0.77991 0.82554 0.58697 0.0
C330 C 0.4945 0.37479 0.66509 0.0
C331 C 0.4877 0.22342 0.66457 0.0
N332 N 0.47194 0.18978 0.68302 0.0
N333 N 0.48181 0.4339 0.6835 0.0
C334 C 0.4702 0.31569 0.69466 0.0
H335 H 0.50377 0.43951 0.65161 0.0
Co336 Co 0.4639 0.62311 0.68671 0.0
C337 C 0.39068 0.48759 0.6995 0.0
O338 O 0.37002 0.59878 0.70216 0.0
N339 N 0.44709 0.81299 0.68951 0.0
C340 C 0.42346 0.02639 0.67932 0.0
C341 C 0.41923 0.87294 0.68129 0.0
C342 C 0.46755 0.93035 0.6925 0.0
N343 N 0.45367 0.05964 0.68704 0.0
O344 O 0.47875 0.6369 0.71639 0.0
H345 H 0.39988 0.80685 0.67411 0.0
H346 H 0.49375 0.92235 0.69502 0.0
O347 O 0.42084 0.51889 0.69457 0.0
C348 C 0.50739 0.69881 0.71778 0.0
O349 O 0.52679 0.69789 0.70072 0.0
N350 N 0.45268 0.62799 0.6575 0.0
C351 C 0.44536 0.68314 0.61359 0.0
C352 C 0.42272 0.59045 0.62446 0.0
C353 C 0.42686 0.56366 0.64668 0.0
C354 C 0.47446 0.71941 0.64709 0.0
C355 C 0.47116 0.74917 0.6252 0.0
H356 H 0.40979 0.49058 0.65497 0.0
H357 H 0.4948 0.76871 0.65596 0.0
H358 H 0.45705 0.32469 0.70982 0.0
H359 H 0.49115 0.1476 0.65106 0.0
H360 H 0.4074 0.10407 0.67091 0.0
H361 H 0.40295 0.53544 0.61572 0.0
H362 H 0.48932 0.81948 0.61722 0.0
C363 C 0.76571 0.91167 0.67546 0.0
C364 C 0.76993 0.06393 0.67322 0.0
N365 N 0.79322 0.10828 0.68736 0.0
N366 N 0.78764 0.85946 0.69013 0.0
C367 C 0.80173 0.98404 0.69837 0.0
H368 H 0.75121 0.84229 0.66473 0.0
Co369 Co 0.80848 0.67193 0.68799 0.0
C370 C 0.88002 0.8283 0.70405 0.0
O371 O 0.89896 0.74461 0.71634 0.0
N372 N 0.82826 0.47459 0.6851 0.0
C373 C 0.82882 0.2655 0.66483 0.0
C374 C 0.8383 0.41345 0.66602 0.0
C375 C 0.8168 0.35298 0.69608 0.0
N376 N 0.81472 0.22995 0.68373 0.0
O377 O 0.79441 0.62018 0.71713 0.0
H378 H 0.84877 0.47399 0.65257 0.0
H379 H 0.80836 0.35281 0.71249 0.0
O380 O 0.8521 0.77213 0.6975 0.0
C381 C 0.76667 0.54836 0.71761 0.0
O382 O 0.74881 0.54062 0.6999 0.0
N383 N 0.8173 0.71047 0.65897 0.0
C384 C 0.8224 0.69434 0.61431 0.0
C385 C 0.84743 0.76404 0.62646 0.0
C386 C 0.84423 0.7726 0.64907 0.0
C387 C 0.79267 0.64568 0.64718 0.0
C388 C 0.79468 0.63668 0.62488 0.0
H389 H 0.86381 0.82226 0.65849 0.0
H390 H 0.77198 0.5941 0.65542 0.0
H391 H 0.82032 0.98177 0.71079 0.0
H392 H 0.75989 0.13295 0.66039 0.0
H393 H 0.83004 0.19311 0.65078 0.0
H394 H 0.86905 0.81021 0.61858 0.0
H395 H 0.77497 0.58214 0.61596 0.0
C396 C 0.52289 0.12063 0.41562 0.0
C397 C 0.52996 0.96958 0.4148 0.0
N398 N 0.54617 0.93514 0.43306 0.0
N399 N 0.53598 0.17902 0.43396 0.0
C400 C 0.54791 0.06036 0.44488 0.0
H401 H 0.51328 0.18596 0.4023 0.0
Co402 Co 0.55424 0.36805 0.43689 0.0
C403 C 0.62738 0.22927 0.44967 0.0
O404 O 0.64803 0.33899 0.45348 0.0
N405 N 0.57144 0.55861 0.43937 0.0
C406 C 0.59416 0.77093 0.42777 0.0
C407 C 0.59847 0.61764 0.42989 0.0
C408 C 0.55145 0.67692 0.44304 0.0
N409 N 0.56482 0.80548 0.43669 0.0
O410 O 0.5398 0.38346 0.46664 0.0
H411 H 0.61696 0.55076 0.42192 0.0
H412 H 0.52556 0.67019 0.44663 0.0
O413 O 0.5974 0.2633 0.44458 0.0
C414 C 0.51113 0.44486 0.46808 0.0
O415 O 0.49178 0.44479 0.45099 0.0
N416 N 0.56506 0.37056 0.40764 0.0
C417 C 0.57238 0.42116 0.36368 0.0
C418 C 0.59446 0.32619 0.3746 0.0
C419 C 0.59032 0.30164 0.39685 0.0
C420 C 0.54368 0.46346 0.39714 0.0
C421 C 0.54697 0.49086 0.37519 0.0
H422 H 0.60694 0.22666 0.40518 0.0
H423 H 0.52373 0.516 0.406 0.0
H424 H 0.56131 0.06887 0.45994 0.0
H425 H 0.52636 0.89466 0.40121 0.0
H426 H 0.60939 0.8475 0.41852 0.0
H427 H 0.61381 0.26819 0.36587 0.0
H428 H 0.52918 0.56251 0.3671 0.0
C429 C 0.25379 0.65836 0.42846 0.0
C430 C 0.25063 0.81096 0.42603 0.0
N431 N 0.22569 0.85726 0.43876 0.0
N432 N 0.22966 0.60829 0.44174 0.0
C433 C 0.21486 0.73422 0.44904 0.0
H434 H 0.26945 0.58751 0.41866 0.0
Co435 Co 0.20977 0.41979 0.43866 0.0
C436 C 0.13897 0.57573 0.45464 0.0
O437 O 0.11976 0.50942 0.46883 0.0
N438 N 0.19072 0.22257 0.43489 0.0
C439 C 0.19342 1.01551 0.41439 0.0
C440 C 0.18295 0.1617 0.41534 0.0
C441 C 0.20107 0.10143 0.44636 0.0
N442 N 0.20519 0.98001 0.43395 0.0
O443 O 0.2242 0.36296 0.46748 0.0
H444 H 0.17341 0.2213 0.40153 0.0
H445 H 0.20758 0.10155 0.46319 0.0
O446 O 0.16616 0.50819 0.44919 0.0
C447 C 0.25182 0.29042 0.46779 0.0
O448 O 0.26967 0.28386 0.45007 0.0
N449 N 0.20071 0.4644 0.40982 0.0
C450 C 0.19612 0.45053 0.36507 0.0
C451 C 0.17015 0.51216 0.37727 0.0
C452 C 0.173 0.51884 0.39993 0.0
C453 C 0.22623 0.40767 0.39798 0.0
C454 C 0.22445 0.3995 0.37567 0.0
H455 H 0.1524 0.55796 0.40935 0.0
H456 H 0.24728 0.35887 0.40618 0.0
H457 H 0.19377 0.73576 0.45963 0.0
H458 H 0.2627 0.87906 0.41386 0.0
H459 H 0.19395 0.94346 0.40028 0.0
H460 H 0.14791 0.55207 0.36943 0.0
H461 H 0.24477 0.34955 0.36677 0.0
C462 C 0.51679 0.66177 0.281 0.0
C463 C 0.52159 0.81386 0.28298 0.0
N464 N 0.54336 0.8563 0.26775 0.0
N465 N 0.53695 0.60843 0.26534 0.0
C466 C 0.55058 0.7318 0.25647 0.0
H467 H 0.50346 0.59309 0.29245 0.0
Co468 Co 0.55741 0.42066 0.26625 0.0
C469 C 0.6293 0.57055 0.25063 0.0
O470 O 0.64836 0.47797 0.23984 0.0
N471 N 0.57707 0.22412 0.26782 0.0
C472 C 0.58219 1.01482 0.28764 0.0
C473 C 0.59079 0.16366 0.28591 0.0
C474 C 0.56389 0.10255 0.25774 0.0
N475 N 0.56497 0.97885 0.26989 0.0
O476 O 0.54311 0.37848 0.237 0.0
H477 H 0.60307 0.22557 0.29858 0.0
H478 H 0.55144 0.10243 0.2425 0.0
O479 O 0.60086 0.5221 0.25732 0.0
C480 C 0.51474 0.31232 0.23666 0.0
O481 O 0.49764 0.30261 0.25467 0.0
N482 N 0.56644 0.45036 0.29543 0.0
C483 C 0.57174 0.42968 0.33997 0.0
C484 C 0.59555 0.50938 0.3281 0.0
C485 C 0.59226 0.52006 0.30554 0.0
C486 C 0.5429 0.37585 0.30696 0.0
C487 C 0.54509 0.36393 0.32922 0.0
H488 H 0.61071 0.57961 0.29632 0.0
H489 H 0.5228 0.32096 0.29853 0.0
H490 H 0.56844 0.72831 0.24358 0.0
H491 H 0.51309 0.88399 0.29617 0.0
H492 H 0.58616 0.94203 0.30142 0.0
H493 H 0.61616 0.56264 0.3362 0.0
H494 H 0.5262 0.30265 0.33799 0.0
C495 C 0.24499 0.13977 0.28926 0.0
C496 C 0.23738 0.98934 0.2904 0.0
N497 N 0.22084 0.95469 0.27229 0.0
N498 N 0.23203 0.19756 0.27084 0.0
C499 C 0.21969 0.0786 0.26017 0.0
H500 H 0.25498 0.20549 0.30243 0.0
Co501 Co 0.21364 0.38674 0.26808 0.0
C502 C 0.14071 0.24388 0.25458 0.0
O503 O 0.12 0.3519 0.25005 0.0
N504 N 0.19658 0.57643 0.26587 0.0
C505 C 0.17252 0.78924 0.27595 0.0
C506 C 0.1685 0.63554 0.27387 0.0
C507 C 0.21705 0.69416 0.2633 0.0
N508 N 0.20287 0.82325 0.26851 0.0
O509 O 0.22821 0.40636 0.23828 0.0
H510 H 0.14905 0.56853 0.28072 0.0
H511 H 0.24336 0.68642 0.26128 0.0
O512 O 0.17044 0.28115 0.25997 0.0
C513 C 0.2562 0.47395 0.23628 0.0
O514 O 0.27729 0.46911 0.25244 0.0
N515 N 0.20253 0.38781 0.2973 0.0
C516 C 0.19533 0.44082 0.34129 0.0
C517 C 0.17265 0.34859 0.33033 0.0
C518 C 0.17671 0.32303 0.30806 0.0
C519 C 0.22433 0.47864 0.3078 0.0
C520 C 0.22108 0.50744 0.3297 0.0
H521 H 0.15953 0.25096 0.29966 0.0
H522 H 0.24464 0.52847 0.29896 0.0
H523 H 0.20677 0.08632 0.24494 0.0
H524 H 0.24104 0.91504 0.30405 0.0
H525 H 0.15612 0.86651 0.28417 0.0
H526 H 0.15286 0.29331 0.33902 0.0
H527 H 0.23922 0.57783 0.33771 0.0
C528 C 1.00109 0.40989 0.53019 0.0
C529 C 0.99601 0.56163 0.53243 0.0
N530 N 0.97395 0.60439 0.51739 0.0
N531 N 0.98079 0.35665 0.51459 0.0
C532 C 0.96691 0.4802 0.50595 0.0
H533 H 0.01467 0.34104 0.54149 0.0
Co534 Co 0.96 0.16919 0.51593 0.0
C535 C 0.88804 0.32469 0.50089 0.0
O536 O 0.86802 0.23434 0.49047 0.0
N537 N 0.94015 0.97228 0.51803 0.0
C538 C 0.93606 0.76296 0.53801 0.0
C539 C 0.92761 0.91208 0.53649 0.0
C540 C 0.95252 0.85001 0.50765 0.0
N541 N 0.95216 0.72626 0.51986 0.0
O542 O 0.97384 0.12304 0.48659 0.0
H543 H 0.91613 0.97412 0.54947 0.0
H544 H 0.96365 0.84934 0.492 0.0
O545 O 0.91637 0.27178 0.50716 0.0
C546 C 1.00196 0.05457 0.48589 0.0
O547 O 0.02 0.04789 0.50353 0.0
N548 N 0.95129 0.20197 0.54506 0.0
C549 C 0.94599 0.18308 0.58959 0.0
C550 C 0.92221 0.26262 0.57768 0.0
C551 C 0.92549 0.27222 0.55511 0.0
C552 C 0.97487 0.12811 0.55663 0.0
C553 C 0.97261 0.11664 0.57887 0.0
H554 H 0.90703 0.33149 0.54587 0.0
H555 H 0.99491 0.07254 0.54823 0.0
H556 H 0.94915 0.47647 0.49302 0.0
H557 H 1.00455 0.63106 0.54568 0.0
H558 H 0.93291 0.69064 0.55193 0.0
H559 H 0.90166 0.31681 0.58572 0.0
H560 H 0.99145 0.05518 0.58766 0.0
C561 C 0.274 0.86481 0.53907 0.0
C562 C 0.28093 0.71347 0.53948 0.0
N563 N 0.29585 0.67972 0.52073 0.0
N564 N 0.2858 0.92418 0.52043 0.0
C565 C 0.29685 0.80551 0.50902 0.0
H566 H 0.26535 0.92928 0.55276 0.0
Co567 Co 0.30425 0.1135 0.51704 0.0
C568 C 0.37723 0.97258 0.50698 0.0
O569 O 0.39842 0.06851 0.51473 0.0
N570 N 0.32148 0.3032 0.51413 0.0
C571 C 0.34532 0.52021 0.52259 0.0
C572 C 0.34997 0.36672 0.52087 0.0
C573 C 0.30022 0.41857 0.51203 0.0
N574 N 0.31412 0.54986 0.5164 0.0
O575 O 0.28896 0.1278 0.4875 0.0
H576 H 0.37064 0.30478 0.52719 0.0
H577 H 0.27384 0.40763 0.51082 0.0
O578 O 0.34625 1.00299 0.50859 0.0
C579 C 0.26042 0.19042 0.48617 0.0
O580 O 0.24085 0.18809 0.50315 0.0
N581 N 0.31592 0.11864 0.54614 0.0
C582 C 0.32307 0.17471 0.59001 0.0
C583 C 0.34612 0.08437 0.57914 0.0
C584 C 0.34201 0.0568 0.55696 0.0
C585 C 0.29376 0.20813 0.55658 0.0
C586 C 0.2969 0.23797 0.57848 0.0
H587 H 0.35922 0.98438 0.54878 0.0
H588 H 0.27311 0.25501 0.54775 0.0
H589 H 0.30937 0.81414 0.49363 0.0
H590 H 0.2782 0.63788 0.55307 0.0
H591 H 0.36202 0.60014 0.52997 0.0
H592 H 0.36619 0.03159 0.58787 0.0
H593 H 0.27838 0.30603 0.58651 0.0
C594 C 0.99697 0.87956 0.66593 0.0
C595 C 0.98991 0.72867 0.66461 0.0
N596 N 0.97202 0.69372 0.68214 0.0
N597 N 0.98261 0.93684 0.68394 0.0
C598 C 0.96969 0.81747 0.6942 0.0
H599 H 1.00788 0.94551 0.65312 0.0
Co600 Co 0.96426 0.12605 0.68631 0.0
C601 C 0.89102 0.98849 0.69933 0.0
O602 O 0.86981 0.09835 0.70057 0.0
N603 N 0.94752 0.31468 0.68804 0.0
C604 C 0.92254 0.53192 0.68178 0.0
C605 C 0.91809 0.37829 0.68361 0.0
C606 C 0.96921 0.42877 0.68847 0.0
N607 N 0.9547 0.56024 0.68559 0.0
O608 O 0.97887 0.14989 0.71607 0.0
H609 H 0.89619 0.3159 0.67958 0.0
H610 H 0.99567 0.41657 0.68825 0.0
O611 O 0.9212 1.02132 0.69459 0.0
C612 C 1.00654 0.22048 0.71796 0.0
O613 O 0.02825 0.21143 0.7022 0.0
N614 N 0.95306 0.12424 0.65721 0.0
C615 C 0.94554 0.1759 0.61331 0.0
C616 C 0.92195 0.09078 0.62456 0.0
C617 C 0.92615 0.06607 0.64681 0.0
C618 C 0.97573 0.20855 0.64638 0.0
C619 C 0.97236 0.23654 0.62449 0.0
H620 H 0.90813 1.00019 0.65545 0.0
H621 H 0.99687 0.25334 0.65493 0.0
H622 H 0.95599 0.82393 0.70913 0.0
H623 H 0.9949 0.65412 0.65117 0.0
H624 H 0.90464 0.61294 0.67612 0.0
H625 H 0.90124 0.0407 0.61613 0.0
H626 H 0.99118 0.30123 0.61618 0.0
C627 C 0.26705 0.41802 0.67224 0.0
C628 C 0.27195 0.57004 0.67031 0.0
N629 N 0.29337 0.61228 0.68576 0.0
N630 N 0.28682 0.3647 0.68811 0.0
C631 C 0.30032 0.48787 0.6971 0.0
H632 H 0.25399 0.34928 0.66065 0.0
Co633 Co 0.30716 0.17704 0.68744 0.0
C634 C 0.37915 0.32695 0.70283 0.0
O635 O 0.39847 0.23412 0.71337 0.0
N636 N 0.32666 0.98059 0.68611 0.0
C637 C 0.33281 0.77098 0.66648 0.0
C638 C 0.34114 0.92012 0.66828 0.0
C639 C 0.3131 0.85915 0.69598 0.0
N640 N 0.31494 0.7351 0.68394 0.0
O641 O 0.29274 0.13675 0.71677 0.0
H642 H 0.35377 0.9822 0.65578 0.0
H643 H 0.29971 0.85926 0.71086 0.0
O644 O 0.35067 0.27829 0.69626 0.0
C645 C 0.2642 0.07205 0.71722 0.0
O646 O 0.24703 0.06235 0.69924 0.0
N647 N 0.3164 0.20508 0.65824 0.0
C648 C 0.32224 0.18361 0.61373 0.0
C649 C 0.34565 0.26538 0.62566 0.0
C650 C 0.34209 0.27634 0.64821 0.0
C651 C 0.29324 0.12862 0.64665 0.0
C652 C 0.29575 0.116 0.62441 0.0
H653 H 0.36017 0.33792 0.65746 0.0
H654 H 0.2732 0.07282 0.65502 0.0
H655 H 0.318 0.48419 0.71011 0.0
H656 H 0.26378 0.64023 0.65705 0.0
H657 H 0.3374 0.69792 0.6528 0.0
H658 H 0.36611 0.32037 0.61764 0.0
H659 H 0.27718 0.05298 0.6156 0.0
C660 C 0.02472 0.62413 0.41479 0.0
C661 C 0.03181 0.47292 0.41426 0.0
N662 N 0.04691 0.43915 0.43294 0.0
N663 N 0.03654 0.68335 0.43346 0.0
C664 C 0.04771 0.56451 0.44477 0.0
H665 H 0.01595 0.68876 0.40116 0.0
Co666 Co 0.05513 0.87285 0.43676 0.0
C667 C 0.12791 0.72472 0.44535 0.0
O668 O 0.14793 0.80019 0.43285 0.0
N669 N 0.07233 0.06212 0.43959 0.0
C670 C 0.09662 0.27974 0.43222 0.0
C671 C 0.10131 0.12614 0.43399 0.0
C672 C 0.0508 0.17691 0.44101 0.0
N673 N 0.0649 0.30854 0.43731 0.0
O674 O 0.03911 0.89047 0.46621 0.0
H675 H 0.12277 0.06444 0.4288 0.0
H676 H 0.02438 0.16537 0.44141 0.0
O677 O 0.09708 0.76166 0.44596 0.0
C678 C 0.01073 0.95518 0.4674 0.0
O679 O 0.99103 0.95142 0.45049 0.0
N680 N 0.06708 0.87592 0.40768 0.0
C681 C 0.07376 0.93099 0.36374 0.0
C682 C 0.09649 0.83819 0.37444 0.0
C683 C 0.09237 0.80976 0.39659 0.0
C684 C 0.04502 0.96638 0.39732 0.0
C685 C 0.04789 0.99556 0.37541 0.0
H686 H 0.1085 0.73097 0.40437 0.0
H687 H 0.0245 1.01383 0.4062 0.0
H688 H 0.05999 0.57266 0.46024 0.0
H689 H 0.02902 0.3975 0.40064 0.0
H690 H 0.11383 0.36026 0.42557 0.0
H691 H 0.11607 0.78285 0.36556 0.0
H692 H 0.02939 0.06418 0.36747 0.0
C693 C 0.75057 0.15662 0.4218 0.0
C694 C 0.74502 0.308 0.4195 0.0
N695 N 0.72368 0.35034 0.43498 0.0
N696 N 0.73119 0.10336 0.43789 0.0
C697 C 0.71741 0.22671 0.44669 0.0
H698 H 0.76367 0.08765 0.41026 0.0
Co699 Co 0.71055 0.9156 0.43709 0.0
C700 C 0.63855 0.06721 0.45232 0.0
O701 O 0.61901 0.9732 0.46244 0.0
N702 N 0.69073 0.7193 0.43555 0.0
C703 C 0.68434 0.51028 0.41578 0.0
C704 C 0.67629 0.65981 0.41764 0.0
C705 C 0.70397 0.59688 0.44536 0.0
N706 N 0.70202 0.47308 0.43327 0.0
O707 O 0.7245 0.8735 0.46652 0.0
H708 H 0.66394 0.72284 0.40512 0.0
H709 H 0.71719 0.59588 0.46027 0.0
O710 O 0.6671 1.01882 0.44581 0.0
C711 C 0.75281 0.80692 0.46748 0.0
O712 O 0.77101 0.79893 0.44992 0.0
N713 N 0.70162 0.94453 0.40788 0.0
C714 C 0.69605 0.92587 0.36336 0.0
C715 C 0.67296 1.00935 0.37529 0.0
C716 C 0.67635 1.01868 0.39784 0.0
C717 C 0.72457 0.86667 0.39629 0.0
C718 C 0.72217 0.85531 0.37403 0.0
H719 H 0.65853 0.08189 0.40709 0.0
H720 H 0.74433 0.80898 0.40466 0.0
H721 H 0.70005 0.22308 0.45987 0.0
H722 H 0.75279 0.37736 0.40605 0.0
H723 H 0.67977 0.43798 0.40201 0.0
H724 H 0.65288 0.06689 0.36724 0.0
H725 H 0.74054 0.79137 0.36518 0.0
C726 C 0.01698 0.16409 0.28025 0.0
C727 C 0.0219 0.31595 0.28247 0.0
N728 N 0.04422 0.35891 0.2676 0.0
N729 N 0.0376 0.11095 0.26483 0.0
C730 C 0.05153 0.2346 0.25625 0.0
H731 H 1.00324 0.09522 0.29146 0.0
Co732 Co 0.0584 0.92362 0.26637 0.0
C733 C 0.13039 0.08068 0.25122 0.0
O734 O 0.15031 0.99221 0.24038 0.0
N735 N 0.0782 0.72658 0.26867 0.0
C736 C 0.08156 0.51711 0.28869 0.0
C737 C 0.0901 0.66617 0.28731 0.0
C738 C 0.06615 0.60437 0.2581 0.0
N739 N 0.06601 0.48057 0.27032 0.0
O740 O 0.04446 0.87575 0.23703 0.0
H741 H 0.10132 0.72783 0.30041 0.0
H742 H 0.05567 0.60382 0.24225 0.0
O743 O 0.10216 0.02612 0.25747 0.0
C744 C 0.01644 0.80611 0.23628 0.0
O745 O 0.99833 0.79891 0.25389 0.0
N746 N 0.06712 0.95793 0.2955 0.0
C747 C 0.07271 0.93997 0.34004 0.0
C748 C 0.09665 1.01755 0.328 0.0
C749 C 0.09322 0.02681 0.30544 0.0
C750 C 0.04339 0.88605 0.30721 0.0
C751 C 0.04576 0.87527 0.32947 0.0
H752 H 0.11185 0.08421 0.29612 0.0
H753 H 0.02317 0.83107 0.29891 0.0
H754 H 0.06944 0.23097 0.24342 0.0
H755 H 0.01309 0.38536 0.29565 0.0
H756 H 0.08428 0.44466 0.30264 0.0
H757 H 0.11753 0.06997 0.33593 0.0
H758 H 0.02685 0.81502 0.33837 0.0
C759 C 0.74517 0.61825 0.288 0.0
C760 C 0.73807 0.46719 0.28875 0.0
N761 N 0.72191 0.43324 0.27045 0.0
N762 N 0.7323 0.67684 0.26961 0.0
C763 C 0.72033 0.55837 0.25864 0.0
H764 H 0.75473 0.68344 0.30136 0.0
Co765 Co 0.71426 0.86606 0.26657 0.0
C766 C 0.64097 0.73092 0.25403 0.0
O767 O 0.62015 0.84225 0.25223 0.0
N768 N 0.69734 0.05582 0.26398 0.0
C769 C 0.67337 0.26942 0.27378 0.0
C770 C 0.66921 0.11584 0.27182 0.0
C771 C 0.71791 0.17308 0.2613 0.0
N772 N 0.70383 0.30245 0.26649 0.0
O773 O 0.72906 0.88146 0.23689 0.0
H774 H 0.64952 0.04998 0.27865 0.0
H775 H 0.74418 0.16502 0.25913 0.0
O776 O 0.67124 0.76156 0.25873 0.0
C777 C 0.7576 0.9444 0.2356 0.0
O778 O 0.77709 0.94224 0.25262 0.0
N779 N 0.70305 0.86941 0.29572 0.0
C780 C 0.69541 0.91919 0.33966 0.0
C781 C 0.67328 0.82522 0.32861 0.0
C782 C 0.67757 0.80119 0.30637 0.0
C783 C 0.72443 0.96166 0.30636 0.0
C784 C 0.72097 0.98873 0.32831 0.0
H785 H 0.66097 0.72658 0.29796 0.0
H786 H 0.74462 1.01336 0.29764 0.0
H787 H 0.70709 0.56681 0.24352 0.0
H788 H 0.74166 0.39189 0.30229 0.0
H789 H 0.65698 0.34737 0.28188 0.0
H790 H 0.65381 0.76741 0.33724 0.0
H791 H 0.73881 0.0595 0.33652 0.0
C792 C 1.00098 0.90949 0.03078 0.0
C793 C 0.99577 0.06112 0.03307 0.0
N794 N 0.9738 0.10381 0.01798 0.0
N795 N 0.98083 0.85622 0.0151 0.0
C796 C 0.96692 0.97975 0.00646 0.0
H797 H 0.01452 0.84062 0.0421 0.0
Co798 Co 0.96006 0.66866 0.01642 0.0
C799 C 0.88815 0.82384 0.00104 0.0
O800 O 0.86825 0.73341 -0.00946 0.0
N801 N 0.94019 0.47192 0.01849 0.0
C802 C 0.93577 0.26268 0.03845 0.0
C803 C 0.92743 0.41194 0.03691 0.0
C804 C 0.95255 0.34952 0.00815 0.0
N805 N 0.95201 0.22575 0.02035 0.0
O806 O 0.97424 0.62178 -0.01291 0.0
H807 H 0.91587 0.47417 0.04983 0.0
H808 H 0.96382 0.34867 -0.00745 0.0
O809 O 0.91644 0.77105 0.00744 0.0
C810 C 1.00233 0.55281 -0.01362 0.0
O811 O 0.02039 0.54601 0.00401 0.0
N812 N 0.95109 0.70192 0.04555 0.0
C813 C 0.94551 0.68553 0.09012 0.0
C814 C 0.92184 0.76454 0.07804 0.0
C815 C 0.92526 0.7729 0.05547 0.0
C816 C 0.97454 0.62836 0.05728 0.0
C817 C 0.97216 0.61828 0.07955 0.0
H818 H 0.9069 0.83194 0.04612 0.0
H819 H 0.99462 0.5722 0.049 0.0
H820 H 0.94926 0.97605 -0.00652 0.0
H821 H 1.00418 0.13047 0.04637 0.0
H822 H 0.93245 0.19039 0.05236 0.0
H823 H 0.90123 0.81917 0.08597 0.0
H824 H 0.99091 0.55714 0.08847 0.0
C825 C 0.27293 0.36433 0.03779 0.0
C826 C 0.28045 0.21372 0.03881 0.0
N827 N 0.29688 0.17944 0.02064 0.0
N828 N 0.28582 0.42235 0.01937 0.0
C829 C 0.2981 0.30361 0.0086 0.0
H830 H 0.26318 0.43008 0.05104 0.0
Co831 Co 0.30407 0.61154 0.01652 0.0
C832 C 0.37719 0.47523 0.00392 0.0
O833 O 0.39827 0.5859 0.00272 0.0
N834 N 0.32115 0.80135 0.01416 0.0
C835 C 0.34547 1.015 0.02362 0.0
C836 C 0.34953 0.8613 0.02162 0.0
C837 C 0.30053 0.91872 0.01177 0.0
N838 N 0.31478 0.04807 0.01672 0.0
O839 O 0.28907 0.6296 -0.01309 0.0
H840 H 0.3695 0.79546 0.02811 0.0
H841 H 0.27419 0.9108 0.00995 0.0
O842 O 0.34694 0.5065 0.00853 0.0
C843 C 0.26069 0.69421 -0.0143 0.0
O844 O 0.2411 0.69131 0.00266 0.0
N845 N 0.31564 0.61205 0.04558 0.0
C846 C 0.32402 0.65141 0.0896 0.0
C847 C 0.34505 0.55491 0.07816 0.0
C848 C 0.34044 0.5364 0.05588 0.0
C849 C 0.29524 0.70646 0.05664 0.0
C850 C 0.29915 0.72872 0.07866 0.0
H851 H 0.35604 0.45899 0.0472 0.0
H852 H 0.2754 0.76315 0.04823 0.0
H853 H 0.31126 0.31148 -0.00656 0.0
H854 H 0.27687 0.1391 0.05243 0.0
H855 H 0.36216 0.09298 0.03144 0.0
H856 H 0.36389 0.49121 0.08651 0.0
H857 H 0.2821 0.80132 0.08725 0.0
C858 C 0.99453 0.37496 0.16502 0.0
C859 C 0.9872 0.22404 0.16433 0.0
N860 N 0.97184 0.19008 0.18291 0.0
N861 N 0.9826 0.43391 0.18367 0.0
C862 C 0.97112 0.31501 0.19484 0.0
H863 H 1.00358 0.43977 0.15149 0.0
Co864 Co 0.96399 0.62334 0.18687 0.0
C865 C 0.89105 0.48117 0.19758 0.0
O866 O 0.86952 0.57959 0.19101 0.0
N867 N 0.94664 0.81277 0.18953 0.0
C868 C 0.92243 0.02936 0.18136 0.0
C869 C 0.91792 0.87578 0.18315 0.0
C870 C 0.96791 0.92838 0.19129 0.0
N871 N 0.9538 0.05944 0.18716 0.0
O872 O 0.97957 0.64109 0.21645 0.0
H873 H 0.89704 0.81338 0.17722 0.0
H874 H 0.99432 0.91783 0.19215 0.0
O875 O 0.92194 0.51231 0.1954 0.0
C876 C 1.00788 0.70643 0.21776 0.0
O877 O 0.02768 0.70341 0.2009 0.0
N878 N 0.95213 0.62617 0.15779 0.0
C879 C 0.94475 0.67878 0.11386 0.0
C880 C 0.92167 0.5898 0.12493 0.0
C881 C 0.92588 0.56413 0.14716 0.0
C882 C 0.97425 0.71471 0.14716 0.0
C883 C 0.971 0.74283 0.12524 0.0
H884 H 0.90856 0.49319 0.15552 0.0
H885 H 0.99498 0.76205 0.15587 0.0
H886 H 0.95861 0.32312 0.21024 0.0
H887 H 0.99007 0.14895 0.15069 0.0
H888 H 0.90545 0.10905 0.17424 0.0
H889 H 0.9015 0.53666 0.11634 0.0
H890 H 0.98951 0.81007 0.11706 0.0
C891 C 0.27087 0.92068 0.1668 0.0
C892 C 0.27842 0.07086 0.16503 0.0
N893 N 0.29668 0.1069 0.18235 0.0
N894 N 0.28565 0.86462 0.18473 0.0
C895 C 0.29901 0.98422 0.19465 0.0
H896 H 0.25977 0.85339 0.15417 0.0
Co897 Co 0.30422 0.67594 0.18659 0.0
C898 C 0.37766 0.81493 0.20021 0.0
O899 O 0.39837 0.70751 0.20516 0.0
N900 N 0.32126 0.48544 0.18781 0.0
C901 C 0.34421 0.27323 0.17633 0.0
C902 C 0.34828 0.42697 0.17827 0.0
C903 C 0.30123 0.36716 0.19122 0.0
N904 N 0.31488 0.23866 0.18523 0.0
O905 O 0.29008 0.65053 0.21644 0.0
H906 H 0.36653 0.49455 0.1702 0.0
H907 H 0.27521 0.37374 0.19437 0.0
O908 O 0.34795 0.77772 0.19468 0.0
C909 C 0.2619 0.58495 0.21861 0.0
O910 O 0.24062 0.59092 0.20256 0.0
N911 N 0.31516 0.68341 0.1574 0.0
C912 C 0.32367 0.65401 0.11324 0.0
C913 C 0.34406 0.75124 0.12504 0.0
C914 C 0.33938 0.76475 0.14739 0.0
C915 C 0.29516 0.58946 0.14595 0.0
C916 C 0.29916 0.57215 0.12385 0.0
H917 H 0.35459 0.84216 0.1564 0.0
H918 H 0.27578 0.52819 0.15416 0.0
H919 H 0.31324 0.97797 0.20937 0.0
H920 H 0.2735 0.1439 0.15141 0.0
H921 H 0.35961 0.19613 0.16729 0.0
H922 H 0.3626 0.81849 0.11696 0.0
H923 H 0.28262 0.49871 0.11498 0.0
C924 C 0.02322 0.12011 0.91579 0.0
C925 C 0.03089 0.96968 0.91465 0.0
N926 N 0.04751 0.93535 0.93274 0.0
N927 N 0.03616 0.17797 0.93422 0.0
C928 C 0.04861 0.05915 0.94488 0.0
H929 H 0.01329 0.18596 0.90262 0.0
Co930 Co 0.05447 0.36721 0.937 0.0
C931 C 0.12751 0.22938 0.94982 0.0
O932 O 0.1487 0.33941 0.9512 0.0
N933 N 0.07156 0.55681 0.93926 0.0
C934 C 0.09622 0.77067 0.93033 0.0
C935 C 0.10025 0.61694 0.93235 0.0
C936 C 0.05078 0.67391 0.94125 0.0
N937 N 0.06521 0.80341 0.93665 0.0
O938 O 0.03926 0.38716 0.96665 0.0
H939 H 0.12063 0.55132 0.92637 0.0
H940 H 0.02439 0.66561 0.94266 0.0
O941 O 0.09734 0.26194 0.94511 0.0
C942 C 0.01097 0.45281 0.9679 0.0
O943 O 0.9912 0.44945 0.95102 0.0
N944 N 0.0662 0.36657 0.90796 0.0
C945 C 0.07449 0.40429 0.86389 0.0
C946 C 0.09573 0.30923 0.87541 0.0
C947 C 0.09116 0.29156 0.89772 0.0
C948 C 0.04566 0.45983 0.89683 0.0
C949 C 0.04952 0.48125 0.8748 0.0
H950 H 0.10693 0.21531 0.90646 0.0
H951 H 0.0257 0.51609 0.90518 0.0
H952 H 0.06168 0.06677 0.96007 0.0
H953 H 0.02721 0.89522 0.90101 0.0
H954 H 0.11325 0.84884 0.92289 0.0
H955 H 0.11472 0.24594 0.86711 0.0
H956 H 0.03233 0.55291 0.86617 0.0
C957 C 0.75169 0.66048 0.92342 0.0
C958 C 0.74686 0.81236 0.92116 0.0
N959 N 0.72451 0.85565 0.93598 0.0
N960 N 0.73098 0.60773 0.9388 0.0
C961 C 0.71705 0.73163 0.94733 0.0
H962 H 0.7655 0.59133 0.91226 0.0
Co963 Co 0.71029 0.42011 0.93732 0.0
C964 C 0.63851 0.57381 0.95296 0.0
O965 O 0.619 0.48478 0.96402 0.0
N966 N 0.69051 0.22327 0.93509 0.0
C967 C 0.68701 1.01406 0.91502 0.0
C968 C 0.67827 0.16285 0.91654 0.0
C969 C 0.70283 0.10132 0.94555 0.0
N970 N 0.70288 0.97779 0.93328 0.0
O971 O 0.72444 0.37297 0.9666 0.0
H972 H 0.6668 0.22453 0.90354 0.0
H973 H 0.71357 0.10081 0.96134 0.0
O974 O 0.66671 0.52102 0.94645 0.0
C975 C 0.75249 0.30381 0.96734 0.0
O976 O 0.77046 0.29514 0.94968 0.0
N977 N 0.7013 0.45428 0.90821 0.0
C978 C 0.69591 0.43785 0.86361 0.0
C979 C 0.67182 0.51433 0.8757 0.0
C980 C 0.67516 0.52284 0.89829 0.0
C981 C 0.7251 0.38305 0.89647 0.0
C982 C 0.72285 0.37324 0.8742 0.0
H983 H 0.65645 0.57936 0.90766 0.0
H984 H 0.74535 0.32828 0.90475 0.0
H985 H 0.69903 0.72857 0.96011 0.0
H986 H 0.7558 0.88161 0.90801 0.0
H987 H 0.68411 0.94156 0.90109 0.0
H988 H 0.65091 0.56653 0.86778 0.0
H989 H 0.74188 0.3138 0.86529 0.0
C990 C 0.02025 0.67613 0.78665 0.0
C991 C 0.0275 0.82661 0.78845 0.0
N992 N 0.04641 0.86247 0.77141 0.0
N993 N 0.03553 0.62032 0.76887 0.0
C994 C 0.04919 0.73991 0.75915 0.0
H995 H 1.00878 0.60871 0.7991 0.0
Co996 Co 0.0537 0.43151 0.76699 0.0
C997 C 0.12742 0.56653 0.75351 0.0
O998 O 0.14826 0.45715 0.74994 0.0
N999 N 0.07015 0.24227 0.76575 0.0
C1000 C 0.09502 0.02807 0.77405 0.0
C1001 C 0.09903 0.18193 0.7721 0.0
C1002 C 0.04907 0.12621 0.76432 0.0
N1003 N 0.06367 0.99649 0.76839 0.0
O1004 O 0.03936 0.405 0.73718 0.0
H1005 H 0.11962 0.24818 0.77748 0.0
H1006 H 0.02262 0.13566 0.76328 0.0
O1007 O 0.09748 0.53197 0.75881 0.0
C1008 C 0.01151 0.33611 0.73513 0.0
O1009 O 0.98975 0.34539 0.75086 0.0
N1010 N 0.06494 0.43833 0.79615 0.0
C1011 C 0.07405 0.40629 0.84024 0.0
C1012 C 0.09484 0.50114 0.82836 0.0
C1013 C 0.08985 0.51598 0.80605 0.0
C1014 C 0.04459 0.34657 0.80769 0.0
C1015 C 0.04889 0.32785 0.82973 0.0
H1016 H 0.10539 0.59165 0.79701 0.0
H1017 H 0.02458 0.28861 0.79963 0.0
H1018 H 0.06355 0.73429 0.74449 0.0
H1019 H 0.02187 0.90016 0.8019 0.0
H1020 H 0.11241 0.94883 0.78086 0.0
H1021 H 0.11391 0.56582 0.83635 0.0
H1022 H 0.03202 0.25641 0.83866 0.0
C1023 C 0.74438 0.12023 0.78898 0.0
C1024 C 0.7372 0.96913 0.78948 0.0
N1025 N 0.72227 0.93536 0.77074 0.0
N1026 N 0.73274 0.17948 0.77029 0.0
C1027 C 0.72156 0.06078 0.75894 0.0
H1028 H 0.75307 0.18482 0.80265 0.0
Co1029 Co 0.71427 0.3689 0.76692 0.0
C1030 C 0.64135 0.22804 0.75623 0.0
O1031 O 0.6199 0.32814 0.76238 0.0
N1032 N 0.69698 0.55848 0.76403 0.0
C1033 C 0.67295 0.77477 0.77261 0.0
C1034 C 0.66846 0.62122 0.77084 0.0
C1035 C 0.71811 0.67438 0.76194 0.0
N1036 N 0.70409 0.80529 0.76636 0.0
O1037 O 0.72972 0.38411 0.73735 0.0
H1038 H 0.64791 0.55854 0.77718 0.0
H1039 H 0.7445 0.66416 0.76075 0.0
O1040 O 0.67224 0.25832 0.75851 0.0
C1041 C 0.75812 0.44836 0.73606 0.0
O1042 O 0.77774 0.4462 0.75301 0.0
N1043 N 0.70249 0.37369 0.796 0.0
C1044 C 0.69507 0.4297 0.83987 0.0
C1045 C 0.67207 0.3394 0.82892 0.0
C1046 C 0.67629 0.31203 0.80673 0.0
C1047 C 0.72454 0.4634 0.80649 0.0
C1048 C 0.72125 0.49334 0.82837 0.0
H1049 H 0.65903 0.24017 0.79846 0.0
H1050 H 0.74522 0.51049 0.79771 0.0
H1051 H 0.70913 0.06935 0.74351 0.0
H1052 H 0.73982 0.89377 0.80311 0.0
H1053 H 0.65621 0.85417 0.78006 0.0
H1054 H 0.65197 0.28645 0.8376 0.0
H1055 H 0.73971 0.56161 0.83644 0.0
loop_
_geom_bond_atom_site_label_1
_geom_bond_atom_site_label_2
_geom_bond_distance
_geom_bond_site_symmetry_2
_ccdc_geom_bond_type
C0 C1 1.351 . S
C0 N3 1.368 . S
C0 H5 0.931 . S
C1 C0 1.351 . S
C1 N2 1.373 . S
C1 H29 0.930 . S
N2 C1 1.373 . S
N2 C4 1.340 . S
N3 C0 1.368 . S
N3 C4 1.321 . S
N3 Co6 2.135 . S
C4 N2 1.340 . S
C4 N3 1.321 . S
C4 H28 0.930 . S
H5 C0 0.931 . S
Co6 N3 2.135 . S
Co6 N9 2.121 1_545 S
Co6 O14 2.058 1_554 S
Co6 O17 2.039 . S
Co6 N20 2.140 . S
C7 O8 1.227 . S
C7 O17 1.265 . S
O8 C7 1.227 . S
N9 Co6 2.121 1_565 S
N9 C11 1.375 . S
N9 C12 1.313 . S
C10 C11 1.338 . S
C10 N13 1.377 . S
C10 H30 0.930 . S
C11 N9 1.375 . S
C11 C10 1.338 . S
C11 H15 0.936 . S
C12 N9 1.313 . S
C12 N13 1.344 . S
C12 H16 0.930 . S
N13 C10 1.377 . S
N13 C12 1.344 . S
O14 Co6 2.058 1_556 S
O14 C18 1.254 1_556 S
H15 C11 0.936 . S
H16 C12 0.930 . S
O17 Co6 2.039 . S
O17 C7 1.265 . S
C18 O14 1.254 1_554 S
C18 O19 1.227 . S
O19 C18 1.227 . S
N20 Co6 2.140 . S
N20 C23 1.346 . S
N20 C24 1.345 . S
C21 C22 1.387 . S
C21 C25 1.391 . S
C22 C21 1.387 . S
C22 C23 1.369 . S
C22 H31 0.929 . S
C23 N20 1.346 . S
C23 C22 1.369 . S
C23 H26 0.928 . S
C24 N20 1.345 . S
C24 C25 1.371 . S
C24 H27 0.931 1_545 S
C25 C21 1.391 . S
C25 C24 1.371 . S
C25 H32 0.930 1_545 S
H26 C23 0.928 . S
H27 C24 0.931 1_565 S
H28 C4 0.930 . S
H29 C1 0.930 . S
H30 C10 0.930 . S
H31 C22 0.929 . S
H32 C25 0.930 1_565 S
C33 C34 1.351 . S
C33 N36 1.368 . S
C33 H38 0.931 . S
C34 C33 1.351 . S
C34 N35 1.373 . S
C34 H62 0.930 . S
N35 C34 1.373 . S
N35 C37 1.340 . S
N36 C33 1.368 . S
N36 C37 1.321 . S
N36 Co39 2.135 1_565 S
C37 N35 1.340 . S
C37 N36 1.321 . S
C37 H61 0.930 . S
H38 C33 0.931 . S
Co39 N36 2.135 1_545 S
Co39 N42 2.121 . S
Co39 O47 2.058 1_554 S
Co39 O50 2.039 . S
Co39 N53 2.140 . S
C40 O41 1.227 . S
C40 O50 1.265 1_565 S
O41 C40 1.227 . S
N42 Co39 2.121 . S
N42 C44 1.375 . S
N42 C45 1.313 . S
C43 C44 1.338 . S
C43 N46 1.377 . S
C43 H63 0.930 . S
C44 N42 1.375 . S
C44 C43 1.338 . S
C44 H48 0.931 . S
C45 N42 1.313 . S
C45 N46 1.344 . S
C45 H49 0.930 . S
N46 C43 1.377 . S
N46 C45 1.344 . S
O47 Co39 2.058 1_556 S
O47 C51 1.254 1_556 S
H48 C44 0.931 . S
H49 C45 0.930 . S
O50 Co39 2.039 . S
O50 C40 1.265 1_545 S
C51 O47 1.254 1_554 S
C51 O52 1.227 . S
O52 C51 1.227 . S
N53 Co39 2.140 . S
N53 C56 1.346 1_545 S
N53 C57 1.345 . S
C54 C55 1.387 1_545 S
C54 C58 1.391 . S
C55 C54 1.387 1_565 S
C55 C56 1.369 . S
C55 H64 0.929 . S
C56 N53 1.346 1_565 S
C56 C55 1.369 . S
C56 H59 0.928 . S
C57 N53 1.345 . S
C57 C58 1.371 . S
C57 H60 0.931 . S
C58 C54 1.391 . S
C58 C57 1.371 . S
C58 H65 0.930 . S
H59 C56 0.928 . S
H60 C57 0.931 . S
H61 C37 0.930 . S
H62 C34 0.930 . S
H63 C43 0.930 . S
H64 C55 0.929 . S
H65 C58 0.930 . S
C66 C67 1.351 . S
C66 N69 1.368 . S
C66 H71 0.931 . S
C67 C66 1.351 . S
C67 N68 1.373 . S
C67 H95 0.930 . S
N68 C67 1.373 . S
N68 C70 1.340 . S
N69 C66 1.368 . S
N69 C70 1.321 . S
N69 Co72 2.135 1_565 S
C70 N68 1.340 . S
C70 N69 1.321 . S
C70 H94 0.930 . S
H71 C66 0.931 . S
Co72 N69 2.135 1_545 S
Co72 N75 2.121 . S
Co72 O80 2.055 . S
Co72 O83 2.039 . S
Co72 N86 2.140 . S
C73 O74 1.227 . S
C73 O83 1.265 1_565 S
O74 C73 1.227 . S
N75 Co72 2.121 . S
N75 C77 1.375 . S
N75 C78 1.313 . S
C76 C77 1.338 . S
C76 N79 1.377 . S
C76 H96 0.930 . S
C77 N75 1.375 . S
C77 C76 1.338 . S
C77 H81 0.931 . S
C78 N75 1.313 . S
C78 N79 1.344 . S
C78 H82 0.930 . S
N79 C76 1.377 . S
N79 C78 1.344 . S
O80 Co72 2.055 . S
O80 C84 1.253 . S
H81 C77 0.931 . S
H82 C78 0.930 . S
O83 Co72 2.039 . S
O83 C73 1.265 1_545 S
C84 O80 1.253 . S
C84 O85 1.227 . S
O85 C84 1.227 . S
N86 Co72 2.140 . S
N86 C89 1.346 1_545 S
N86 C90 1.345 . S
C87 C88 1.387 1_545 S
C87 C91 1.391 . S
C88 C87 1.387 1_565 S
C88 C89 1.369 . S
C88 H97 0.929 . S
C89 N86 1.346 1_565 S
C89 C88 1.369 . S
C89 H92 0.928 . S
C90 N86 1.345 . S
C90 C91 1.371 . S
C90 H93 0.931 . S
C91 C87 1.391 . S
C91 C90 1.371 . S
C91 H98 0.930 . S
H92 C89 0.928 . S
H93 C90 0.931 . S
H94 C70 0.930 . S
H95 C67 0.930 . S
H96 C76 0.930 . S
H97 C88 0.929 . S
H98 C91 0.930 . S
C99 C100 1.351 . S
C99 N102 1.368 . S
C99 H104 0.931 . S
C100 C99 1.351 . S
C100 N101 1.373 . S
C100 H128 0.930 . S
N101 C100 1.373 . S
N101 C103 1.340 . S
N102 C99 1.368 . S
N102 C103 1.321 . S
N102 Co105 2.135 . S
C103 N101 1.340 . S
C103 N102 1.321 . S
C103 H127 0.930 . S
H104 C99 0.931 . S
Co105 N102 2.135 . S
Co105 N108 2.121 1_545 S
Co105 O113 2.055 . S
Co105 O116 2.039 . S
Co105 N119 2.140 . S
C106 O107 1.227 . S
C106 O116 1.265 . S
O107 C106 1.227 . S
N108 Co105 2.121 1_565 S
N108 C110 1.375 . S
N108 C111 1.313 . S
C109 C110 1.338 . S
C109 N112 1.377 . S
C109 H129 0.930 . S
C110 N108 1.375 . S
C110 C109 1.338 . S
C110 H114 0.936 . S
C111 N108 1.313 . S
C111 N112 1.344 . S
C111 H115 0.930 . S
N112 C109 1.377 . S
N112 C111 1.344 . S
O113 Co105 2.055 . S
O113 C117 1.253 . S
H114 C110 0.936 . S
H115 C111 0.930 . S
O116 Co105 2.039 . S
O116 C106 1.265 . S
C117 O113 1.253 . S
C117 O118 1.227 . S
O118 C117 1.227 . S
N119 Co105 2.140 . S
N119 C122 1.346 . S
N119 C123 1.345 . S
C120 C121 1.387 . S
C120 C124 1.391 . S
C121 C120 1.387 . S
C121 C122 1.369 . S
C121 H130 0.929 . S
C122 N119 1.346 . S
C122 C121 1.369 . S
C122 H125 0.928 . S
C123 N119 1.345 . S
C123 C124 1.371 . S
C123 H126 0.931 1_545 S
C124 C120 1.391 . S
C124 C123 1.371 . S
C124 H131 0.930 1_545 S
H125 C122 0.928 . S
H126 C123 0.931 1_565 S
H127 C103 0.930 . S
H128 C100 0.930 . S
H129 C109 0.930 . S
H130 C121 0.929 . S
H131 C124 0.930 1_565 S
C132 C133 1.351 . S
C132 N135 1.368 . S
C132 H137 0.931 . S
C133 C132 1.351 . S
C133 N134 1.373 . S
C133 H161 0.930 . S
N134 C133 1.373 . S
N134 C136 1.340 . S
N135 C132 1.368 . S
N135 C136 1.321 . S
N135 Co138 2.135 . S
C136 N134 1.340 . S
C136 N135 1.321 . S
C136 H160 0.930 . S
H137 C132 0.931 . S
Co138 N135 2.135 . S
Co138 N141 2.121 1_565 S
Co138 O146 2.058 1_556 S
Co138 O149 2.039 . S
Co138 N152 2.140 . S
C139 O140 1.227 . S
C139 O149 1.265 . S
O140 C139 1.227 . S
N141 Co138 2.121 1_545 S
N141 C143 1.375 . S
N141 C144 1.313 . S
C142 C143 1.338 . S
C142 N145 1.377 . S
C142 H162 0.930 . S
C143 N141 1.375 . S
C143 C142 1.338 . S
C143 H147 0.936 . S
C144 N141 1.313 . S
C144 N145 1.344 . S
C144 H148 0.930 . S
N145 C142 1.377 . S
N145 C144 1.344 . S
O146 Co138 2.058 1_554 S
O146 C150 1.254 1_554 S
H147 C143 0.936 . S
H148 C144 0.930 . S
O149 Co138 2.039 . S
O149 C139 1.265 . S
C150 O146 1.254 1_556 S
C150 O151 1.227 . S
O151 C150 1.227 . S
N152 Co138 2.140 . S
N152 C155 1.346 . S
N152 C156 1.345 . S
C153 C154 1.387 . S
C153 C157 1.391 . S
C154 C153 1.387 . S
C154 C155 1.369 . S
C154 H163 0.929 . S
C155 N152 1.346 . S
C155 C154 1.369 . S
C155 H158 0.928 . S
C156 N152 1.345 . S
C156 C157 1.371 . S
C156 H159 0.931 1_565 S
C157 C153 1.391 . S
C157 C156 1.371 . S
C157 H164 0.930 1_565 S
H158 C155 0.928 . S
H159 C156 0.931 1_545 S
H160 C136 0.930 . S
H161 C133 0.930 . S
H162 C142 0.930 . S
H163 C154 0.929 . S
H164 C157 0.930 1_545 S
C165 C166 1.351 . S
C165 N168 1.368 . S
C165 H170 0.931 . S
C166 C165 1.351 . S
C166 N167 1.373 . S
C166 H194 0.930 . S
N167 C166 1.373 . S
N167 C169 1.340 . S
N168 C165 1.368 . S
N168 C169 1.321 . S
N168 Co171 2.135 1_545 S
C169 N167 1.340 . S
C169 N168 1.321 . S
C169 H193 0.930 . S
H170 C165 0.931 . S
Co171 N168 2.135 1_565 S
Co171 N174 2.121 . S
Co171 O179 2.058 1_556 S
Co171 O182 2.039 . S
Co171 N185 2.140 . S
C172 O173 1.227 . S
C172 O182 1.265 1_545 S
O173 C172 1.227 . S
N174 Co171 2.121 . S
N174 C176 1.375 . S
N174 C177 1.313 . S
C175 C176 1.338 . S
C175 N178 1.377 . S
C175 H195 0.930 . S
C176 N174 1.375 . S
C176 C175 1.338 . S
C176 H180 0.931 . S
C177 N174 1.313 . S
C177 N178 1.344 . S
C177 H181 0.930 . S
N178 C175 1.377 . S
N178 C177 1.344 . S
O179 Co171 2.058 1_554 S
O179 C183 1.254 1_554 S
H180 C176 0.931 . S
H181 C177 0.930 . S
O182 Co171 2.039 . S
O182 C172 1.265 1_565 S
C183 O179 1.254 1_556 S
C183 O184 1.227 . S
O184 C183 1.227 . S
N185 Co171 2.140 . S
N185 C188 1.346 1_565 S
N185 C189 1.345 . S
C186 C187 1.387 1_565 S
C186 C190 1.391 . S
C187 C186 1.387 1_545 S
C187 C188 1.369 . S
C187 H196 0.929 . S
C188 N185 1.346 1_545 S
C188 C187 1.369 . S
C188 H191 0.928 . S
C189 N185 1.345 . S
C189 C190 1.371 . S
C189 H192 0.931 . S
C190 C186 1.391 . S
C190 C189 1.371 . S
C190 H197 0.930 . S
H191 C188 0.928 . S
H192 C189 0.931 . S
H193 C169 0.930 . S
H194 C166 0.930 . S
H195 C175 0.930 . S
H196 C187 0.929 . S
H197 C190 0.930 . S
C198 C199 1.351 . S
C198 N201 1.368 . S
C198 H203 0.931 . S
C199 C198 1.351 . S
C199 N200 1.373 . S
C199 H227 0.930 . S
N200 C199 1.373 . S
N200 C202 1.340 . S
N201 C198 1.368 . S
N201 C202 1.321 . S
N201 Co204 2.135 1_545 S
C202 N200 1.340 . S
C202 N201 1.321 . S
C202 H226 0.930 . S
H203 C198 0.931 . S
Co204 N201 2.135 1_565 S
Co204 N207 2.121 . S
Co204 O212 2.055 . S
Co204 O215 2.039 . S
Co204 N218 2.140 . S
C205 O206 1.227 . S
C205 O215 1.265 1_545 S
O206 C205 1.227 . S
N207 Co204 2.121 . S
N207 C209 1.375 . S
N207 C210 1.313 . S
C208 C209 1.338 . S
C208 N211 1.377 . S
C208 H228 0.930 . S
C209 N207 1.375 . S
C209 C208 1.338 . S
C209 H213 0.931 . S
C210 N207 1.313 . S
C210 N211 1.344 . S
C210 H214 0.930 . S
N211 C208 1.377 . S
N211 C210 1.344 . S
O212 Co204 2.055 . S
O212 C216 1.253 . S
H213 C209 0.931 . S
H214 C210 0.930 . S
O215 Co204 2.039 . S
O215 C205 1.265 1_565 S
C216 O212 1.253 . S
C216 O217 1.227 . S
O217 C216 1.227 . S
N218 Co204 2.140 . S
N218 C221 1.346 1_565 S
N218 C222 1.345 . S
C219 C220 1.387 1_565 S
C219 C223 1.391 . S
C220 C219 1.387 1_545 S
C220 C221 1.369 . S
C220 H229 0.929 . S
C221 N218 1.346 1_545 S
C221 C220 1.369 . S
C221 H224 0.928 . S
C222 N218 1.345 . S
C222 C223 1.371 . S
C222 H225 0.931 . S
C223 C219 1.391 . S
C223 C222 1.371 . S
C223 H230 0.930 . S
H224 C221 0.928 . S
H225 C222 0.931 . S
H226 C202 0.930 . S
H227 C199 0.930 . S
H228 C208 0.930 . S
H229 C220 0.929 . S
H230 C223 0.930 . S
C231 C232 1.351 . S
C231 N234 1.368 . S
C231 H236 0.931 . S
C232 C231 1.351 . S
C232 N233 1.373 . S
C232 H260 0.930 . S
N233 C232 1.373 . S
N233 C235 1.340 . S
N234 C231 1.368 . S
N234 C235 1.321 . S
N234 Co237 2.135 . S
C235 N233 1.340 . S
C235 N234 1.321 . S
C235 H259 0.930 . S
H236 C231 0.931 . S
Co237 N234 2.135 . S
Co237 N240 2.121 1_565 S
Co237 O245 2.055 . S
Co237 O248 2.039 . S
Co237 N251 2.140 . S
C238 O239 1.227 . S
C238 O248 1.265 . S
O239 C238 1.227 . S
N240 Co237 2.121 1_545 S
N240 C242 1.375 . S
N240 C243 1.313 . S
C241 C242 1.338 . S
C241 N244 1.377 . S
C241 H261 0.930 . S
C242 N240 1.375 . S
C242 C241 1.338 . S
C242 H246 0.936 . S
C243 N240 1.313 . S
C243 N244 1.344 . S
C243 H247 0.930 . S
N244 C241 1.377 . S
N244 C243 1.344 . S
O245 Co237 2.055 . S
O245 C249 1.253 . S
H246 C242 0.936 . S
H247 C243 0.930 . S
O248 Co237 2.039 . S
O248 C238 1.265 . S
C249 O245 1.253 . S
C249 O250 1.227 . S
O250 C249 1.227 . S
N251 Co237 2.140 . S
N251 C254 1.346 . S
N251 C255 1.345 . S
C252 C253 1.387 . S
C252 C256 1.391 . S
C253 C252 1.387 . S
C253 C254 1.369 . S
C253 H262 0.929 . S
C254 N251 1.346 . S
C254 C253 1.369 . S
C254 H257 0.928 . S
C255 N251 1.345 . S
C255 C256 1.371 . S
C255 H258 0.931 1_565 S
C256 C252 1.391 . S
C256 C255 1.371 . S
C256 H263 0.930 1_565 S
H257 C254 0.928 . S
H258 C255 0.931 1_545 S
H259 C235 0.930 . S
H260 C232 0.930 . S
H261 C241 0.930 . S
H262 C253 0.929 . S
H263 C256 0.930 1_545 S
C264 C265 1.351 1_565 S
C264 N267 1.368 . S
C264 H269 0.931 . S
C265 C264 1.351 1_545 S
C265 N266 1.373 . S
C265 H293 0.930 . S
N266 C265 1.373 . S
N266 C268 1.340 . S
N267 C264 1.368 . S
N267 C268 1.321 1_565 S
N267 Co270 2.135 . S
C268 N266 1.340 . S
C268 N267 1.321 1_545 S
C268 H292 0.930 . S
H269 C264 0.931 . S
Co270 N267 2.135 . S
Co270 N273 2.121 . S
Co270 O278 2.055 . S
Co270 O281 2.039 . S
Co270 N284 2.140 . S
C271 O272 1.227 . S
C271 O281 1.265 . S
O272 C271 1.227 . S
N273 Co270 2.121 . S
N273 C275 1.375 . S
N273 C276 1.313 . S
C274 C275 1.338 . S
C274 N277 1.377 . S
C274 H294 0.930 . S
C275 N273 1.375 . S
C275 C274 1.338 . S
C275 H279 0.931 . S
C276 N273 1.313 . S
C276 N277 1.344 . S
C276 H280 0.930 . S
N277 C274 1.377 . S
N277 C276 1.344 . S
O278 Co270 2.055 . S
O278 C282 1.253 . S
H279 C275 0.931 . S
H280 C276 0.930 . S
O281 Co270 2.039 . S
O281 C271 1.265 . S
C282 O278 1.253 . S
C282 O283 1.227 . S
O283 C282 1.227 . S
N284 Co270 2.140 . S
N284 C287 1.346 . S
N284 C288 1.345 . S
C285 C286 1.387 . S
C285 C289 1.391 . S
C286 C285 1.387 . S
C286 C287 1.369 . S
C286 H295 0.929 . S
C287 N284 1.346 . S
C287 C286 1.369 . S
C287 H290 0.928 . S
C288 N284 1.345 . S
C288 C289 1.371 . S
C288 H291 0.931 . S
C289 C285 1.391 . S
C289 C288 1.371 . S
C289 H296 0.930 . S
H290 C287 0.928 . S
H291 C288 0.931 . S
H292 C268 0.930 . S
H293 C265 0.930 . S
H294 C274 0.930 . S
H295 C286 0.929 . S
H296 C289 0.930 . S
C297 C298 1.351 . S
C297 N300 1.368 . S
C297 H302 0.931 . S
C298 C297 1.351 . S
C298 N299 1.373 . S
C298 H326 0.930 . S
N299 C298 1.373 . S
N299 C301 1.340 . S
N300 C297 1.368 . S
N300 C301 1.321 . S
N300 Co303 2.135 . S
C301 N299 1.340 . S
C301 N300 1.321 . S
C301 H325 0.930 . S
H302 C297 0.931 . S
Co303 N300 2.135 . S
Co303 N306 2.121 . S
Co303 O311 2.055 . S
Co303 O314 2.039 . S
Co303 N317 2.140 . S
C304 O305 1.227 . S
C304 O314 1.265 . S
O305 C304 1.227 . S
N306 Co303 2.121 . S
N306 C308 1.375 . S
N306 C309 1.313 . S
C307 C308 1.338 . S
C307 N310 1.377 1_565 S
C307 H327 0.930 1_565 S
C308 N306 1.375 . S
C308 C307 1.338 . S
C308 H312 0.931 . S
C309 N306 1.313 . S
C309 N310 1.344 1_565 S
C309 H313 0.930 . S
N310 C307 1.377 1_545 S
N310 C309 1.344 1_545 S
O311 Co303 2.055 . S
O311 C315 1.253 . S
H312 C308 0.931 . S
H313 C309 0.930 . S
O314 Co303 2.039 . S
O314 C304 1.265 . S
C315 O311 1.253 . S
C315 O316 1.227 . S
O316 C315 1.227 . S
N317 Co303 2.140 . S
N317 C320 1.346 . S
N317 C321 1.345 . S
C318 C319 1.387 . S
C318 C322 1.391 . S
C319 C318 1.387 . S
C319 C320 1.369 . S
C319 H328 0.929 . S
C320 N317 1.346 . S
C320 C319 1.369 . S
C320 H323 0.928 . S
C321 N317 1.345 . S
C321 C322 1.371 . S
C321 H324 0.931 . S
C322 C318 1.391 . S
C322 C321 1.371 . S
C322 H329 0.930 . S
H323 C320 0.928 . S
H324 C321 0.931 . S
H325 C301 0.930 . S
H326 C298 0.930 . S
H327 C307 0.930 1_545 S
H328 C319 0.929 . S
H329 C322 0.930 . S
C330 C331 1.351 . S
C330 N333 1.368 . S
C330 H335 0.931 . S
C331 C330 1.351 . S
C331 N332 1.373 . S
C331 H359 0.930 . S
N332 C331 1.373 . S
N332 C334 1.340 . S
N333 C330 1.368 . S
N333 C334 1.321 . S
N333 Co336 2.135 . S
C334 N332 1.340 . S
C334 N333 1.321 . S
C334 H358 0.930 . S
H335 C330 0.931 . S
Co336 N333 2.135 . S
Co336 N339 2.121 . S
Co336 O344 2.055 . S
Co336 O347 2.039 . S
Co336 N350 2.140 . S
C337 O338 1.227 . S
C337 O347 1.265 . S
O338 C337 1.227 . S
N339 Co336 2.121 . S
N339 C341 1.375 . S
N339 C342 1.313 . S
C340 C341 1.338 . S
C340 N343 1.377 1_565 S
C340 H360 0.930 1_565 S
C341 N339 1.375 . S
C341 C340 1.338 . S
C341 H345 0.931 . S
C342 N339 1.313 . S
C342 N343 1.344 1_565 S
C342 H346 0.930 . S
N343 C340 1.377 1_545 S
N343 C342 1.344 1_545 S
O344 Co336 2.055 . S
O344 C348 1.253 . S
H345 C341 0.931 . S
H346 C342 0.930 . S
O347 Co336 2.039 . S
O347 C337 1.265 . S
C348 O344 1.253 . S
C348 O349 1.227 . S
O349 C348 1.227 . S
N350 Co336 2.140 . S
N350 C353 1.346 . S
N350 C354 1.345 . S
C351 C352 1.387 . S
C351 C355 1.391 . S
C352 C351 1.387 . S
C352 C353 1.369 . S
C352 H361 0.929 . S
C353 N350 1.346 . S
C353 C352 1.369 . S
C353 H356 0.928 . S
C354 N350 1.345 . S
C354 C355 1.371 . S
C354 H357 0.931 . S
C355 C351 1.391 . S
C355 C354 1.371 . S
C355 H362 0.930 . S
H356 C353 0.928 . S
H357 C354 0.931 . S
H358 C334 0.930 . S
H359 C331 0.930 . S
H360 C340 0.930 1_545 S
H361 C352 0.929 . S
H362 C355 0.930 . S
C363 C364 1.351 1_565 S
C363 N366 1.368 . S
C363 H368 0.931 . S
C364 C363 1.351 1_545 S
C364 N365 1.373 . S
C364 H392 0.930 . S
N365 C364 1.373 . S
N365 C367 1.340 . S
N366 C363 1.368 . S
N366 C367 1.321 1_565 S
N366 Co369 2.135 . S
C367 N365 1.340 . S
C367 N366 1.321 1_545 S
C367 H391 0.930 . S
H368 C363 0.931 . S
Co369 N366 2.135 . S
Co369 N372 2.121 . S
Co369 O377 2.055 . S
Co369 O380 2.039 . S
Co369 N383 2.140 . S
C370 O371 1.227 . S
C370 O380 1.265 . S
O371 C370 1.227 . S
N372 Co369 2.121 . S
N372 C374 1.375 . S
N372 C375 1.313 . S
C373 C374 1.338 . S
C373 N376 1.377 . S
C373 H393 0.930 . S
C374 N372 1.375 . S
C374 C373 1.338 . S
C374 H378 0.931 . S
C375 N372 1.313 . S
C375 N376 1.344 . S
C375 H379 0.930 . S
N376 C373 1.377 . S
N376 C375 1.344 . S
O377 Co369 2.055 . S
O377 C381 1.253 . S
H378 C374 0.931 . S
H379 C375 0.930 . S
O380 Co369 2.039 . S
O380 C370 1.265 . S
C381 O377 1.253 . S
C381 O382 1.227 . S
O382 C381 1.227 . S
N383 Co369 2.140 . S
N383 C386 1.346 . S
N383 C387 1.345 . S
C384 C385 1.387 . S
C384 C388 1.391 . S
C385 C384 1.387 . S
C385 C386 1.369 . S
C385 H394 0.929 . S
C386 N383 1.346 . S
C386 C385 1.369 . S
C386 H389 0.928 . S
C387 N383 1.345 . S
C387 C388 1.371 . S
C387 H390 0.931 . S
C388 C384 1.391 . S
C388 C387 1.371 . S
C388 H395 0.930 . S
H389 C386 0.928 . S
H390 C387 0.931 . S
H391 C367 0.930 . S
H392 C364 0.930 . S
H393 C373 0.930 . S
H394 C385 0.929 . S
H395 C388 0.930 . S
C396 C397 1.351 1_545 S
C396 N399 1.368 . S
C396 H401 0.931 . S
C397 C396 1.351 1_565 S
C397 N398 1.373 . S
C397 H425 0.930 . S
N398 C397 1.373 . S
N398 C400 1.340 . S
N399 C396 1.368 . S
N399 C400 1.321 1_545 S
N399 Co402 2.135 . S
C400 N398 1.340 . S
C400 N399 1.321 1_565 S
C400 H424 0.930 . S
H401 C396 0.931 . S
Co402 N399 2.135 . S
Co402 N405 2.121 . S
Co402 O410 2.055 . S
Co402 O413 2.039 . S
Co402 N416 2.140 . S
C403 O404 1.227 . S
C403 O413 1.265 . S
O404 C403 1.227 . S
N405 Co402 2.121 . S
N405 C407 1.375 . S
N405 C408 1.313 . S
C406 C407 1.338 . S
C406 N409 1.377 . S
C406 H426 0.930 . S
C407 N405 1.375 . S
C407 C406 1.338 . S
C407 H411 0.931 . S
C408 N405 1.313 . S
C408 N409 1.344 . S
C408 H412 0.930 . S
N409 C406 1.377 . S
N409 C408 1.344 . S
O410 Co402 2.055 . S
O410 C414 1.253 . S
H411 C407 0.931 . S
H412 C408 0.930 . S
O413 Co402 2.039 . S
O413 C403 1.265 . S
C414 O410 1.253 . S
C414 O415 1.227 . S
O415 C414 1.227 . S
N416 Co402 2.140 . S
N416 C419 1.346 . S
N416 C420 1.345 . S
C417 C418 1.387 . S
C417 C421 1.391 . S
C418 C417 1.387 . S
C418 C419 1.369 . S
C418 H427 0.929 . S
C419 N416 1.346 . S
C419 C418 1.369 . S
C419 H422 0.928 . S
C420 N416 1.345 . S
C420 C421 1.371 . S
C420 H423 0.931 . S
C421 C417 1.391 . S
C421 C420 1.371 . S
C421 H428 0.930 . S
H422 C419 0.928 . S
H423 C420 0.931 . S
H424 C400 0.930 . S
H425 C397 0.930 . S
H426 C406 0.930 . S
H427 C418 0.929 . S
H428 C421 0.930 . S
C429 C430 1.351 . S
C429 N432 1.368 . S
C429 H434 0.931 . S
C430 C429 1.351 . S
C430 N431 1.373 . S
C430 H458 0.930 . S
N431 C430 1.373 . S
N431 C433 1.340 . S
N432 C429 1.368 . S
N432 C433 1.321 . S
N432 Co435 2.135 . S
C433 N431 1.340 . S
C433 N432 1.321 . S
C433 H457 0.930 . S
H434 C429 0.931 . S
Co435 N432 2.135 . S
Co435 N438 2.121 . S
Co435 O443 2.055 . S
Co435 O446 2.039 . S
Co435 N449 2.140 . S
C436 O437 1.227 . S
C436 O446 1.265 . S
O437 C436 1.227 . S
N438 Co435 2.121 . S
N438 C440 1.375 . S
N438 C441 1.313 . S
C439 C440 1.338 . S
C439 N442 1.377 1_545 S
C439 H459 0.930 1_545 S
C440 N438 1.375 . S
C440 C439 1.338 . S
C440 H444 0.931 . S
C441 N438 1.313 . S
C441 N442 1.344 1_545 S
C441 H445 0.930 . S
N442 C439 1.377 1_565 S
N442 C441 1.344 1_565 S
O443 Co435 2.055 . S
O443 C447 1.253 . S
H444 C440 0.931 . S
H445 C441 0.930 . S
O446 Co435 2.039 . S
O446 C436 1.265 . S
C447 O443 1.253 . S
C447 O448 1.227 . S
O448 C447 1.227 . S
N449 Co435 2.140 . S
N449 C452 1.346 . S
N449 C453 1.345 . S
C450 C451 1.387 . S
C450 C454 1.391 . S
C451 C450 1.387 . S
C451 C452 1.369 . S
C451 H460 0.929 . S
C452 N449 1.346 . S
C452 C451 1.369 . S
C452 H455 0.928 . S
C453 N449 1.345 . S
C453 C454 1.371 . S
C453 H456 0.931 . S
C454 C450 1.391 . S
C454 C453 1.371 . S
C454 H461 0.930 . S
H455 C452 0.928 . S
H456 C453 0.931 . S
H457 C433 0.930 . S
H458 C430 0.930 . S
H459 C439 0.930 1_565 S
H460 C451 0.929 . S
H461 C454 0.930 . S
C462 C463 1.351 . S
C462 N465 1.368 . S
C462 H467 0.931 . S
C463 C462 1.351 . S
C463 N464 1.373 . S
C463 H491 0.930 . S
N464 C463 1.373 . S
N464 C466 1.340 . S
N465 C462 1.368 . S
N465 C466 1.321 . S
N465 Co468 2.135 . S
C466 N464 1.340 . S
C466 N465 1.321 . S
C466 H490 0.930 . S
H467 C462 0.931 . S
Co468 N465 2.135 . S
Co468 N471 2.121 . S
Co468 O476 2.055 . S
Co468 O479 2.039 . S
Co468 N482 2.140 . S
C469 O470 1.227 . S
C469 O479 1.265 . S
O470 C469 1.227 . S
N471 Co468 2.121 . S
N471 C473 1.375 . S
N471 C474 1.313 . S
C472 C473 1.338 . S
C472 N475 1.377 1_545 S
C472 H492 0.930 1_545 S
C473 N471 1.375 . S
C473 C472 1.338 . S
C473 H477 0.931 . S
C474 N471 1.313 . S
C474 N475 1.344 1_545 S
C474 H478 0.930 . S
N475 C472 1.377 1_565 S
N475 C474 1.344 1_565 S
O476 Co468 2.055 . S
O476 C480 1.253 . S
H477 C473 0.931 . S
H478 C474 0.930 . S
O479 Co468 2.039 . S
O479 C469 1.265 . S
C480 O476 1.253 . S
C480 O481 1.227 . S
O481 C480 1.227 . S
N482 Co468 2.140 . S
N482 C485 1.346 . S
N482 C486 1.345 . S
C483 C484 1.387 . S
C483 C487 1.391 . S
C484 C483 1.387 . S
C484 C485 1.369 . S
C484 H493 0.929 . S
C485 N482 1.346 . S
C485 C484 1.369 . S
C485 H488 0.928 . S
C486 N482 1.345 . S
C486 C487 1.371 . S
C486 H489 0.931 . S
C487 C483 1.391 . S
C487 C486 1.371 . S
C487 H494 0.930 . S
H488 C485 0.928 . S
H489 C486 0.931 . S
H490 C466 0.930 . S
H491 C463 0.930 . S
H492 C472 0.930 1_565 S
H493 C484 0.929 . S
H494 C487 0.930 . S
C495 C496 1.351 1_545 S
C495 N498 1.368 . S
C495 H500 0.931 . S
C496 C495 1.351 1_565 S
C496 N497 1.373 . S
C496 H524 0.930 . S
N497 C496 1.373 . S
N497 C499 1.340 . S
N498 C495 1.368 . S
N498 C499 1.321 1_545 S
N498 Co501 2.135 . S
C499 N497 1.340 . S
C499 N498 1.321 1_565 S
C499 H523 0.930 . S
H500 C495 0.931 . S
Co501 N498 2.135 . S
Co501 N504 2.121 . S
Co501 O509 2.055 . S
Co501 O512 2.039 . S
Co501 N515 2.140 . S
C502 O503 1.227 . S
C502 O512 1.265 . S
O503 C502 1.227 . S
N504 Co501 2.121 . S
N504 C506 1.375 . S
N504 C507 1.313 . S
C505 C506 1.338 . S
C505 N508 1.377 . S
C505 H525 0.930 . S
C506 N504 1.375 . S
C506 C505 1.338 . S
C506 H510 0.931 . S
C507 N504 1.313 . S
C507 N508 1.344 . S
C507 H511 0.930 . S
N508 C505 1.377 . S
N508 C507 1.344 . S
O509 Co501 2.055 . S
O509 C513 1.253 . S
H510 C506 0.931 . S
H511 C507 0.930 . S
O512 Co501 2.039 . S
O512 C502 1.265 . S
C513 O509 1.253 . S
C513 O514 1.227 . S
O514 C513 1.227 . S
N515 Co501 2.140 . S
N515 C518 1.346 . S
N515 C519 1.345 . S
C516 C517 1.387 . S
C516 C520 1.391 . S
C517 C516 1.387 . S
C517 C518 1.369 . S
C517 H526 0.929 . S
C518 N515 1.346 . S
C518 C517 1.369 . S
C518 H521 0.928 . S
C519 N515 1.345 . S
C519 C520 1.371 . S
C519 H522 0.931 . S
C520 C516 1.391 . S
C520 C519 1.371 . S
C520 H527 0.930 . S
H521 C518 0.928 . S
H522 C519 0.931 . S
H523 C499 0.930 . S
H524 C496 0.930 . S
H525 C505 0.930 . S
H526 C517 0.929 . S
H527 C520 0.930 . S
C528 C529 1.351 . S
C528 N531 1.368 1_455 S
C528 H533 0.931 . S
C529 C528 1.351 . S
C529 N530 1.373 1_455 S
C529 H557 0.930 . S
N530 C529 1.373 1_655 S
N530 C532 1.340 . S
N531 C528 1.368 1_655 S
N531 C532 1.321 . S
N531 Co534 2.135 . S
C532 N530 1.340 . S
C532 N531 1.321 . S
C532 H556 0.930 . S
H533 C528 0.931 . S
Co534 N531 2.135 . S
Co534 N537 2.121 1_545 S
Co534 O542 2.055 . S
Co534 O545 2.039 . S
Co534 N548 2.140 . S
C535 O536 1.227 . S
C535 O545 1.265 . S
O536 C535 1.227 . S
N537 Co534 2.121 1_565 S
N537 C539 1.375 . S
N537 C540 1.313 . S
C538 C539 1.338 . S
C538 N541 1.377 . S
C538 H558 0.930 . S
C539 N537 1.375 . S
C539 C538 1.338 . S
C539 H543 0.936 . S
C540 N537 1.313 . S
C540 N541 1.344 . S
C540 H544 0.930 . S
N541 C538 1.377 . S
N541 C540 1.344 . S
O542 Co534 2.055 . S
O542 C546 1.250 1_655 S
H543 C539 0.936 . S
H544 C540 0.930 . S
O545 Co534 2.039 . S
O545 C535 1.265 . S
C546 O542 1.250 1_455 S
C546 O547 1.227 . S
O547 C546 1.227 . S
N548 Co534 2.140 . S
N548 C551 1.346 . S
N548 C552 1.345 . S
C549 C550 1.387 . S
C549 C553 1.391 . S
C550 C549 1.387 . S
C550 C551 1.369 . S
C550 H559 0.929 . S
C551 N548 1.346 . S
C551 C550 1.369 . S
C551 H554 0.928 . S
C552 N548 1.345 . S
C552 C553 1.371 . S
C552 H555 0.931 1_545 S
C553 C549 1.391 . S
C553 C552 1.371 . S
C553 H560 0.930 1_545 S
H554 C551 0.928 . S
H555 C552 0.931 1_565 S
H556 C532 0.930 . S
H557 C529 0.930 . S
H558 C538 0.930 . S
H559 C550 0.929 . S
H560 C553 0.930 1_565 S
C561 C562 1.351 . S
C561 N564 1.368 . S
C561 H566 0.931 . S
C562 C561 1.351 . S
C562 N563 1.373 . S
C562 H590 0.930 . S
N563 C562 1.373 . S
N563 C565 1.340 . S
N564 C561 1.368 . S
N564 C565 1.321 . S
N564 Co567 2.135 1_565 S
C565 N563 1.340 . S
C565 N564 1.321 . S
C565 H589 0.930 . S
H566 C561 0.931 . S
Co567 N564 2.135 1_545 S
Co567 N570 2.121 . S
Co567 O575 2.055 . S
Co567 O578 2.039 . S
Co567 N581 2.140 . S
C568 O569 1.227 . S
C568 O578 1.265 1_565 S
O569 C568 1.227 . S
N570 Co567 2.121 . S
N570 C572 1.375 . S
N570 C573 1.313 . S
C571 C572 1.338 . S
C571 N574 1.377 . S
C571 H591 0.930 . S
C572 N570 1.375 . S
C572 C571 1.338 . S
C572 H576 0.931 . S
C573 N570 1.313 . S
C573 N574 1.344 . S
C573 H577 0.930 . S
N574 C571 1.377 . S
N574 C573 1.344 . S
O575 Co567 2.055 . S
O575 C579 1.253 . S
H576 C572 0.931 . S
H577 C573 0.930 . S
O578 Co567 2.039 . S
O578 C568 1.265 1_545 S
C579 O575 1.253 . S
C579 O580 1.227 . S
O580 C579 1.227 . S
N581 Co567 2.140 . S
N581 C584 1.346 1_545 S
N581 C585 1.345 . S
C582 C583 1.387 1_545 S
C582 C586 1.391 . S
C583 C582 1.387 1_565 S
C583 C584 1.369 . S
C583 H592 0.929 . S
C584 N581 1.346 1_565 S
C584 C583 1.369 . S
C584 H587 0.928 . S
C585 N581 1.345 . S
C585 C586 1.371 . S
C585 H588 0.931 . S
C586 C582 1.391 . S
C586 C585 1.371 . S
C586 H593 0.930 . S
H587 C584 0.928 . S
H588 C585 0.931 . S
H589 C565 0.930 . S
H590 C562 0.930 . S
H591 C571 0.930 . S
H592 C583 0.929 . S
H593 C586 0.930 . S
C594 C595 1.351 . S
C594 N597 1.368 1_455 S
C594 H599 0.931 . S
C595 C594 1.351 . S
C595 N596 1.373 1_455 S
C595 H623 0.930 . S
N596 C595 1.373 1_655 S
N596 C598 1.340 . S
N597 C594 1.368 1_655 S
N597 C598 1.321 . S
N597 Co600 2.135 1_565 S
C598 N596 1.340 . S
C598 N597 1.321 . S
C598 H622 0.930 . S
H599 C594 0.931 . S
Co600 N597 2.135 1_545 S
Co600 N603 2.121 . S
Co600 O608 2.055 . S
Co600 O611 2.039 . S
Co600 N614 2.140 . S
C601 O602 1.227 . S
C601 O611 1.265 1_565 S
O602 C601 1.227 . S
N603 Co600 2.121 . S
N603 C605 1.375 . S
N603 C606 1.313 . S
C604 C605 1.338 . S
C604 N607 1.377 . S
C604 H624 0.930 . S
C605 N603 1.375 . S
C605 C604 1.338 . S
C605 H609 0.931 . S
C606 N603 1.313 . S
C606 N607 1.344 . S
C606 H610 0.930 . S
N607 C604 1.377 . S
N607 C606 1.344 . S
O608 Co600 2.055 . S
O608 C612 1.250 1_655 S
H609 C605 0.931 . S
H610 C606 0.930 . S
O611 Co600 2.039 . S
O611 C601 1.265 1_545 S
C612 O608 1.250 1_455 S
C612 O613 1.228 . S
O613 C612 1.228 . S
N614 Co600 2.140 . S
N614 C617 1.346 1_545 S
N614 C618 1.345 . S
C615 C616 1.387 1_545 S
C615 C619 1.391 . S
C616 C615 1.387 1_565 S
C616 C617 1.369 . S
C616 H625 0.929 . S
C617 N614 1.346 1_565 S
C617 C616 1.369 . S
C617 H620 0.928 . S
C618 N614 1.345 . S
C618 C619 1.371 . S
C618 H621 0.931 . S
C619 C615 1.391 . S
C619 C618 1.371 . S
C619 H626 0.930 . S
H620 C617 0.928 . S
H621 C618 0.931 . S
H622 C598 0.930 . S
H623 C595 0.930 . S
H624 C604 0.930 . S
H625 C616 0.929 . S
H626 C619 0.930 . S
C627 C628 1.351 . S
C627 N630 1.368 . S
C627 H632 0.931 . S
C628 C627 1.351 . S
C628 N629 1.373 . S
C628 H656 0.930 . S
N629 C628 1.373 . S
N629 C631 1.340 . S
N630 C627 1.368 . S
N630 C631 1.321 . S
N630 Co633 2.135 . S
C631 N629 1.340 . S
C631 N630 1.321 . S
C631 H655 0.930 . S
H632 C627 0.931 . S
Co633 N630 2.135 . S
Co633 N636 2.121 1_545 S
Co633 O641 2.055 . S
Co633 O644 2.039 . S
Co633 N647 2.140 . S
C634 O635 1.227 . S
C634 O644 1.265 . S
O635 C634 1.227 . S
N636 Co633 2.121 1_565 S
N636 C638 1.375 . S
N636 C639 1.313 . S
C637 C638 1.338 . S
C637 N640 1.377 . S
C637 H657 0.930 . S
C638 N636 1.375 . S
C638 C637 1.338 . S
C638 H642 0.935 . S
C639 N636 1.313 . S
C639 N640 1.344 . S
C639 H643 0.930 . S
N640 C637 1.377 . S
N640 C639 1.344 . S
O641 Co633 2.055 . S
O641 C645 1.253 . S
H642 C638 0.935 . S
H643 C639 0.930 . S
O644 Co633 2.039 . S
O644 C634 1.265 . S
C645 O641 1.253 . S
C645 O646 1.227 . S
O646 C645 1.227 . S
N647 Co633 2.140 . S
N647 C650 1.346 . S
N647 C651 1.345 . S
C648 C649 1.387 . S
C648 C652 1.391 . S
C649 C648 1.387 . S
C649 C650 1.369 . S
C649 H658 0.929 . S
C650 N647 1.346 . S
C650 C649 1.369 . S
C650 H653 0.928 . S
C651 N647 1.345 . S
C651 C652 1.371 . S
C651 H654 0.931 1_545 S
C652 C648 1.391 . S
C652 C651 1.371 . S
C652 H659 0.930 1_545 S
H653 C650 0.928 . S
H654 C651 0.931 1_565 S
H655 C631 0.930 . S
H656 C628 0.930 . S
H657 C637 0.930 . S
H658 C649 0.929 . S
H659 C652 0.930 1_565 S
C660 C661 1.351 . S
C660 N663 1.368 1_655 S
C660 H665 0.931 . S
C661 C660 1.351 . S
C661 N662 1.373 1_655 S
C661 H689 0.930 . S
N662 C661 1.373 1_455 S
N662 C664 1.340 . S
N663 C660 1.368 1_455 S
N663 C664 1.321 . S
N663 Co666 2.135 . S
C664 N662 1.340 . S
C664 N663 1.321 . S
C664 H688 0.930 . S
H665 C660 0.931 . S
Co666 N663 2.135 . S
Co666 N669 2.121 1_565 S
Co666 O674 2.055 . S
Co666 O677 2.039 . S
Co666 N680 2.140 . S
C667 O668 1.227 . S
C667 O677 1.265 . S
O668 C667 1.227 . S
N669 Co666 2.121 1_545 S
N669 C671 1.375 . S
N669 C672 1.313 . S
C670 C671 1.338 . S
C670 N673 1.377 . S
C670 H690 0.930 . S
C671 N669 1.375 . S
C671 C670 1.338 . S
C671 H675 0.936 . S
C672 N669 1.313 . S
C672 N673 1.344 . S
C672 H676 0.930 . S
N673 C670 1.377 . S
N673 C672 1.344 . S
O674 Co666 2.055 . S
O674 C678 1.250 1_455 S
H675 C671 0.936 . S
H676 C672 0.930 . S
O677 Co666 2.039 . S
O677 C667 1.265 . S
C678 O674 1.250 1_655 S
C678 O679 1.227 . S
O679 C678 1.227 . S
N680 Co666 2.140 . S
N680 C683 1.346 . S
N680 C684 1.345 . S
C681 C682 1.387 . S
C681 C685 1.391 . S
C682 C681 1.387 . S
C682 C683 1.369 . S
C682 H691 0.929 . S
C683 N680 1.346 . S
C683 C682 1.369 . S
C683 H686 0.928 . S
C684 N680 1.345 . S
C684 C685 1.371 . S
C684 H687 0.931 1_565 S
C685 C681 1.391 . S
C685 C684 1.371 . S
C685 H692 0.930 1_565 S
H686 C683 0.928 . S
H687 C684 0.931 1_545 S
H688 C664 0.930 . S
H689 C661 0.930 . S
H690 C670 0.930 . S
H691 C682 0.929 . S
H692 C685 0.930 1_545 S
C693 C694 1.351 . S
C693 N696 1.368 . S
C693 H698 0.931 . S
C694 C693 1.351 . S
C694 N695 1.373 . S
C694 H722 0.930 . S
N695 C694 1.373 . S
N695 C697 1.340 . S
N696 C693 1.368 . S
N696 C697 1.321 . S
N696 Co699 2.135 1_545 S
C697 N695 1.340 . S
C697 N696 1.321 . S
C697 H721 0.930 . S
H698 C693 0.931 . S
Co699 N696 2.135 1_565 S
Co699 N702 2.121 . S
Co699 O707 2.055 . S
Co699 O710 2.039 . S
Co699 N713 2.140 . S
C700 O701 1.227 . S
C700 O710 1.265 1_545 S
O701 C700 1.227 . S
N702 Co699 2.121 . S
N702 C704 1.375 . S
N702 C705 1.313 . S
C703 C704 1.338 . S
C703 N706 1.377 . S
C703 H723 0.930 . S
C704 N702 1.375 . S
C704 C703 1.338 . S
C704 H708 0.931 . S
C705 N702 1.313 . S
C705 N706 1.344 . S
C705 H709 0.930 . S
N706 C703 1.377 . S
N706 C705 1.344 . S
O707 Co699 2.055 . S
O707 C711 1.253 . S
H708 C704 0.931 . S
H709 C705 0.930 . S
O710 Co699 2.039 . S
O710 C700 1.265 1_565 S
C711 O707 1.253 . S
C711 O712 1.227 . S
O712 C711 1.227 . S
N713 Co699 2.140 . S
N713 C716 1.346 1_565 S
N713 C717 1.345 . S
C714 C715 1.387 1_565 S
C714 C718 1.391 . S
C715 C714 1.387 1_545 S
C715 C716 1.369 . S
C715 H724 0.929 . S
C716 N713 1.346 1_545 S
C716 C715 1.369 . S
C716 H719 0.928 . S
C717 N713 1.345 . S
C717 C718 1.371 . S
C717 H720 0.931 . S
C718 C714 1.391 . S
C718 C717 1.371 . S
C718 H725 0.930 . S
H719 C716 0.928 . S
H720 C717 0.931 . S
H721 C697 0.930 . S
H722 C694 0.930 . S
H723 C703 0.930 . S
H724 C715 0.929 . S
H725 C718 0.930 . S
C726 C727 1.351 . S
C726 N729 1.368 1_655 S
C726 H731 0.931 . S
C727 C726 1.351 . S
C727 N728 1.373 1_655 S
C727 H755 0.930 . S
N728 C727 1.373 1_455 S
N728 C730 1.340 . S
N729 C726 1.368 1_455 S
N729 C730 1.321 . S
N729 Co732 2.135 1_545 S
C730 N728 1.340 . S
C730 N729 1.321 . S
C730 H754 0.930 . S
H731 C726 0.931 . S
Co732 N729 2.135 1_565 S
Co732 N735 2.121 . S
Co732 O740 2.055 . S
Co732 O743 2.039 . S
Co732 N746 2.140 . S
C733 O734 1.227 . S
C733 O743 1.265 1_545 S
O734 C733 1.227 . S
N735 Co732 2.121 . S
N735 C737 1.375 . S
N735 C738 1.313 . S
C736 C737 1.338 . S
C736 N739 1.377 . S
C736 H756 0.930 . S
C737 N735 1.375 . S
C737 C736 1.338 . S
C737 H741 0.931 . S
C738 N735 1.313 . S
C738 N739 1.344 . S
C738 H742 0.930 . S
N739 C736 1.377 . S
N739 C738 1.344 . S
O740 Co732 2.055 . S
O740 C744 1.250 1_455 S
H741 C737 0.931 . S
H742 C738 0.930 . S
O743 Co732 2.039 . S
O743 C733 1.265 1_565 S
C744 O740 1.250 1_655 S
C744 O745 1.228 . S
O745 C744 1.228 . S
N746 Co732 2.140 . S
N746 C749 1.346 1_565 S
N746 C750 1.345 . S
C747 C748 1.387 1_565 S
C747 C751 1.391 . S
C748 C747 1.387 1_545 S
C748 C749 1.369 . S
C748 H757 0.929 . S
C749 N746 1.346 1_545 S
C749 C748 1.369 . S
C749 H752 0.928 . S
C750 N746 1.345 . S
C750 C751 1.371 . S
C750 H753 0.931 . S
C751 C747 1.391 . S
C751 C750 1.371 . S
C751 H758 0.930 . S
H752 C749 0.928 . S
H753 C750 0.931 . S
H754 C730 0.930 . S
H755 C727 0.930 . S
H756 C736 0.930 . S
H757 C748 0.929 . S
H758 C751 0.930 . S
C759 C760 1.351 . S
C759 N762 1.368 . S
C759 H764 0.931 . S
C760 C759 1.351 . S
C760 N761 1.373 . S
C760 H788 0.930 . S
N761 C760 1.373 . S
N761 C763 1.340 . S
N762 C759 1.368 . S
N762 C763 1.321 . S
N762 Co765 2.135 . S
C763 N761 1.340 . S
C763 N762 1.321 . S
C763 H787 0.930 . S
H764 C759 0.931 . S
Co765 N762 2.135 . S
Co765 N768 2.121 1_565 S
Co765 O773 2.055 . S
Co765 O776 2.039 . S
Co765 N779 2.140 . S
C766 O767 1.227 . S
C766 O776 1.265 . S
O767 C766 1.227 . S
N768 Co765 2.121 1_545 S
N768 C770 1.375 . S
N768 C771 1.313 . S
C769 C770 1.338 . S
C769 N772 1.377 . S
C769 H789 0.930 . S
C770 N768 1.375 . S
C770 C769 1.338 . S
C770 H774 0.935 . S
C771 N768 1.313 . S
C771 N772 1.344 . S
C771 H775 0.930 . S
N772 C769 1.377 . S
N772 C771 1.344 . S
O773 Co765 2.055 . S
O773 C777 1.253 . S
H774 C770 0.935 . S
H775 C771 0.930 . S
O776 Co765 2.039 . S
O776 C766 1.265 . S
C777 O773 1.253 . S
C777 O778 1.227 . S
O778 C777 1.227 . S
N779 Co765 2.140 . S
N779 C782 1.346 . S
N779 C783 1.345 . S
C780 C781 1.387 . S
C780 C784 1.391 . S
C781 C780 1.387 . S
C781 C782 1.369 . S
C781 H790 0.929 . S
C782 N779 1.346 . S
C782 C781 1.369 . S
C782 H785 0.928 . S
C783 N779 1.345 . S
C783 C784 1.371 . S
C783 H786 0.931 1_565 S
C784 C780 1.391 . S
C784 C783 1.371 . S
C784 H791 0.930 1_565 S
H785 C782 0.928 . S
H786 C783 0.931 1_545 S
H787 C763 0.930 . S
H788 C760 0.930 . S
H789 C769 0.930 . S
H790 C781 0.929 . S
H791 C784 0.930 1_545 S
C792 C793 1.351 1_565 S
C792 N795 1.368 1_455 S
C792 H797 0.931 . S
C793 C792 1.351 1_545 S
C793 N794 1.373 1_455 S
C793 H821 0.930 . S
N794 C793 1.373 1_655 S
N794 C796 1.340 . S
N795 C792 1.368 1_655 S
N795 C796 1.321 1_565 S
N795 Co798 2.135 . S
C796 N794 1.340 . S
C796 N795 1.321 1_545 S
C796 H820 0.930 . S
H797 C792 0.931 . S
Co798 N795 2.135 . S
Co798 N801 2.121 . S
Co798 O806 2.058 1_554 S
Co798 O809 2.039 . S
Co798 N812 2.140 . S
C799 O800 1.227 . S
C799 O809 1.265 . S
O800 C799 1.227 . S
N801 Co798 2.121 . S
N801 C803 1.375 . S
N801 C804 1.313 . S
C802 C803 1.338 . S
C802 N805 1.377 . S
C802 H822 0.930 . S
C803 N801 1.375 . S
C803 C802 1.338 . S
C803 H807 0.931 . S
C804 N801 1.313 . S
C804 N805 1.344 . S
C804 H808 0.930 . S
N805 C802 1.377 . S
N805 C804 1.344 . S
O806 Co798 2.058 1_556 S
O806 C810 1.252 1_656 S
H807 C803 0.931 . S
H808 C804 0.930 . S
O809 Co798 2.039 . S
O809 C799 1.265 . S
C810 O806 1.252 1_454 S
C810 O811 1.227 . S
O811 C810 1.227 . S
N812 Co798 2.140 . S
N812 C815 1.346 . S
N812 C816 1.345 . S
C813 C814 1.387 . S
C813 C817 1.391 . S
C814 C813 1.387 . S
C814 C815 1.369 . S
C814 H823 0.929 . S
C815 N812 1.346 . S
C815 C814 1.369 . S
C815 H818 0.928 . S
C816 N812 1.345 . S
C816 C817 1.371 . S
C816 H819 0.931 . S
C817 C813 1.391 . S
C817 C816 1.371 . S
C817 H824 0.930 . S
H818 C815 0.928 . S
H819 C816 0.931 . S
H820 C796 0.930 . S
H821 C793 0.930 . S
H822 C802 0.930 . S
H823 C814 0.929 . S
H824 C817 0.930 . S
C825 C826 1.351 . S
C825 N828 1.368 . S
C825 H830 0.931 . S
C826 C825 1.351 . S
C826 N827 1.373 . S
C826 H854 0.930 . S
N827 C826 1.373 . S
N827 C829 1.340 . S
N828 C825 1.368 . S
N828 C829 1.321 . S
N828 Co831 2.135 . S
C829 N827 1.340 . S
C829 N828 1.321 . S
C829 H853 0.930 . S
H830 C825 0.931 . S
Co831 N828 2.135 . S
Co831 N834 2.121 . S
Co831 O839 2.058 1_554 S
Co831 O842 2.039 . S
Co831 N845 2.140 . S
C832 O833 1.227 . S
C832 O842 1.265 . S
O833 C832 1.227 . S
N834 Co831 2.121 . S
N834 C836 1.375 . S
N834 C837 1.313 . S
C835 C836 1.338 . S
C835 N838 1.377 1_565 S
C835 H855 0.930 1_565 S
C836 N834 1.375 . S
C836 C835 1.338 . S
C836 H840 0.931 . S
C837 N834 1.313 . S
C837 N838 1.344 1_565 S
C837 H841 0.930 . S
N838 C835 1.377 1_545 S
N838 C837 1.344 1_545 S
O839 Co831 2.058 1_556 S
O839 C843 1.254 1_556 S
H840 C836 0.931 . S
H841 C837 0.930 . S
O842 Co831 2.039 . S
O842 C832 1.265 . S
C843 O839 1.254 1_554 S
C843 O844 1.227 . S
O844 C843 1.227 . S
N845 Co831 2.140 . S
N845 C848 1.346 . S
N845 C849 1.345 . S
C846 C847 1.387 . S
C846 C850 1.391 . S
C847 C846 1.387 . S
C847 C848 1.369 . S
C847 H856 0.929 . S
C848 N845 1.346 . S
C848 C847 1.369 . S
C848 H851 0.928 . S
C849 N845 1.345 . S
C849 C850 1.371 . S
C849 H852 0.931 . S
C850 C846 1.391 . S
C850 C849 1.371 . S
C850 H857 0.930 . S
H851 C848 0.928 . S
H852 C849 0.931 . S
H853 C829 0.930 . S
H854 C826 0.930 . S
H855 C835 0.930 1_545 S
H856 C847 0.929 . S
H857 C850 0.930 . S
C858 C859 1.351 . S
C858 N861 1.368 1_455 S
C858 H863 0.931 . S
C859 C858 1.351 . S
C859 N860 1.373 1_455 S
C859 H887 0.930 . S
N860 C859 1.373 1_655 S
N860 C862 1.340 . S
N861 C858 1.368 1_655 S
N861 C862 1.321 . S
N861 Co864 2.135 . S
C862 N860 1.340 . S
C862 N861 1.321 . S
C862 H886 0.930 . S
H863 C858 0.931 . S
Co864 N861 2.135 . S
Co864 N867 2.121 . S
Co864 O872 2.055 . S
Co864 O875 2.039 . S
Co864 N878 2.140 . S
C865 O866 1.227 . S
C865 O875 1.265 . S
O866 C865 1.227 . S
N867 Co864 2.121 . S
N867 C869 1.375 . S
N867 C870 1.313 . S
C868 C869 1.338 . S
C868 N871 1.377 1_565 S
C868 H888 0.930 1_565 S
C869 N867 1.375 . S
C869 C868 1.338 . S
C869 H873 0.931 . S
C870 N867 1.313 . S
C870 N871 1.344 1_565 S
C870 H874 0.930 . S
N871 C868 1.377 1_545 S
N871 C870 1.344 1_545 S
O872 Co864 2.055 . S
O872 C876 1.250 1_655 S
H873 C869 0.931 . S
H874 C870 0.930 . S
O875 Co864 2.039 . S
O875 C865 1.265 . S
C876 O872 1.250 1_455 S
C876 O877 1.227 . S
O877 C876 1.227 . S
N878 Co864 2.140 . S
N878 C881 1.346 . S
N878 C882 1.345 . S
C879 C880 1.387 . S
C879 C883 1.391 . S
C880 C879 1.387 . S
C880 C881 1.369 . S
C880 H889 0.929 . S
C881 N878 1.346 . S
C881 C880 1.369 . S
C881 H884 0.928 . S
C882 N878 1.345 . S
C882 C883 1.371 . S
C882 H885 0.931 . S
C883 C879 1.391 . S
C883 C882 1.371 . S
C883 H890 0.930 . S
H884 C881 0.928 . S
H885 C882 0.931 . S
H886 C862 0.930 . S
H887 C859 0.930 . S
H888 C868 0.930 1_545 S
H889 C880 0.929 . S
H890 C883 0.930 . S
C891 C892 1.351 1_565 S
C891 N894 1.368 . S
C891 H896 0.931 . S
C892 C891 1.351 1_545 S
C892 N893 1.373 . S
C892 H920 0.930 . S
N893 C892 1.373 . S
N893 C895 1.340 . S
N894 C891 1.368 . S
N894 C895 1.321 1_565 S
N894 Co897 2.135 . S
C895 N893 1.340 . S
C895 N894 1.321 1_545 S
C895 H919 0.930 . S
H896 C891 0.931 . S
Co897 N894 2.135 . S
Co897 N900 2.121 . S
Co897 O905 2.055 . S
Co897 O908 2.039 . S
Co897 N911 2.140 . S
C898 O899 1.227 . S
C898 O908 1.265 . S
O899 C898 1.227 . S
N900 Co897 2.121 . S
N900 C902 1.375 . S
N900 C903 1.313 . S
C901 C902 1.338 . S
C901 N904 1.377 . S
C901 H921 0.930 . S
C902 N900 1.375 . S
C902 C901 1.338 . S
C902 H906 0.931 . S
C903 N900 1.313 . S
C903 N904 1.344 . S
C903 H907 0.930 . S
N904 C901 1.377 . S
N904 C903 1.344 . S
O905 Co897 2.055 . S
O905 C909 1.253 . S
H906 C902 0.931 . S
H907 C903 0.930 . S
O908 Co897 2.039 . S
O908 C898 1.265 . S
C909 O905 1.253 . S
C909 O910 1.227 . S
O910 C909 1.227 . S
N911 Co897 2.140 . S
N911 C914 1.346 . S
N911 C915 1.345 . S
C912 C913 1.387 . S
C912 C916 1.391 . S
C913 C912 1.387 . S
C913 C914 1.369 . S
C913 H922 0.929 . S
C914 N911 1.346 . S
C914 C913 1.369 . S
C914 H917 0.928 . S
C915 N911 1.345 . S
C915 C916 1.371 . S
C915 H918 0.931 . S
C916 C912 1.391 . S
C916 C915 1.371 . S
C916 H923 0.930 . S
H917 C914 0.928 . S
H918 C915 0.931 . S
H919 C895 0.930 . S
H920 C892 0.930 . S
H921 C901 0.930 . S
H922 C913 0.929 . S
H923 C916 0.930 . S
C924 C925 1.351 1_545 S
C924 N927 1.368 1_655 S
C924 H929 0.931 . S
C925 C924 1.351 1_565 S
C925 N926 1.373 1_655 S
C925 H953 0.930 . S
N926 C925 1.373 1_455 S
N926 C928 1.340 . S
N927 C924 1.368 1_455 S
N927 C928 1.321 1_545 S
N927 Co930 2.135 . S
C928 N926 1.340 . S
C928 N927 1.321 1_565 S
C928 H952 0.930 . S
H929 C924 0.931 . S
Co930 N927 2.135 . S
Co930 N933 2.121 . S
Co930 O938 2.058 1_556 S
Co930 O941 2.039 . S
Co930 N944 2.140 . S
C931 O932 1.227 . S
C931 O941 1.265 . S
O932 C931 1.227 . S
N933 Co930 2.121 . S
N933 C935 1.375 . S
N933 C936 1.313 . S
C934 C935 1.338 . S
C934 N937 1.377 . S
C934 H954 0.930 . S
C935 N933 1.375 . S
C935 C934 1.338 . S
C935 H939 0.931 . S
C936 N933 1.313 . S
C936 N937 1.344 . S
C936 H940 0.930 . S
N937 C934 1.377 . S
N937 C936 1.344 . S
O938 Co930 2.058 1_554 S
O938 C942 1.252 1_454 S
H939 C935 0.931 . S
H940 C936 0.930 . S
O941 Co930 2.039 . S
O941 C931 1.265 . S
C942 O938 1.252 1_656 S
C942 O943 1.227 . S
O943 C942 1.227 . S
N944 Co930 2.140 . S
N944 C947 1.346 . S
N944 C948 1.345 . S
C945 C946 1.387 . S
C945 C949 1.391 . S
C946 C945 1.387 . S
C946 C947 1.369 . S
C946 H955 0.929 . S
C947 N944 1.346 . S
C947 C946 1.369 . S
C947 H950 0.928 . S
C948 N944 1.345 . S
C948 C949 1.371 . S
C948 H951 0.931 . S
C949 C945 1.391 . S
C949 C948 1.371 . S
C949 H956 0.930 . S
H950 C947 0.928 . S
H951 C948 0.931 . S
H952 C928 0.930 . S
H953 C925 0.930 . S
H954 C934 0.930 . S
H955 C946 0.929 . S
H956 C949 0.930 . S
C957 C958 1.351 . S
C957 N960 1.368 . S
C957 H962 0.931 . S
C958 C957 1.351 . S
C958 N959 1.373 . S
C958 H986 0.930 . S
N959 C958 1.373 . S
N959 C961 1.340 . S
N960 C957 1.368 . S
N960 C961 1.321 . S
N960 Co963 2.135 . S
C961 N959 1.340 . S
C961 N960 1.321 . S
C961 H985 0.930 . S
H962 C957 0.931 . S
Co963 N960 2.135 . S
Co963 N966 2.121 . S
Co963 O971 2.058 1_556 S
Co963 O974 2.039 . S
Co963 N977 2.140 . S
C964 O965 1.227 . S
C964 O974 1.265 . S
O965 C964 1.227 . S
N966 Co963 2.121 . S
N966 C968 1.375 . S
N966 C969 1.313 . S
C967 C968 1.338 . S
C967 N970 1.377 1_545 S
C967 H987 0.930 1_545 S
C968 N966 1.375 . S
C968 C967 1.338 . S
C968 H972 0.931 . S
C969 N966 1.313 . S
C969 N970 1.344 1_545 S
C969 H973 0.930 . S
N970 C967 1.377 1_565 S
N970 C969 1.344 1_565 S
O971 Co963 2.058 1_554 S
O971 C975 1.254 1_554 S
H972 C968 0.931 . S
H973 C969 0.930 . S
O974 Co963 2.039 . S
O974 C964 1.265 . S
C975 O971 1.254 1_556 S
C975 O976 1.227 . S
O976 C975 1.227 . S
N977 Co963 2.140 . S
N977 C980 1.346 . S
N977 C981 1.345 . S
C978 C979 1.387 . S
C978 C982 1.391 . S
C979 C978 1.387 . S
C979 C980 1.369 . S
C979 H988 0.929 . S
C980 N977 1.346 . S
C980 C979 1.369 . S
C980 H983 0.928 . S
C981 N977 1.345 . S
C981 C982 1.371 . S
C981 H984 0.931 . S
C982 C978 1.391 . S
C982 C981 1.371 . S
C982 H989 0.930 . S
H983 C980 0.928 . S
H984 C981 0.931 . S
H985 C961 0.930 . S
H986 C958 0.930 . S
H987 C967 0.930 1_565 S
H988 C979 0.929 . S
H989 C982 0.930 . S
C990 C991 1.351 . S
C990 N993 1.368 1_655 S
C990 H995 0.931 . S
C991 C990 1.351 . S
C991 N992 1.373 1_655 S
C991 H1019 0.930 . S
N992 C991 1.373 1_455 S
N992 C994 1.340 . S
N993 C990 1.368 1_455 S
N993 C994 1.321 . S
N993 Co996 2.135 . S
C994 N992 1.340 . S
C994 N993 1.321 . S
C994 H1018 0.930 . S
H995 C990 0.931 . S
Co996 N993 2.135 . S
Co996 N999 2.121 . S
Co996 O1004 2.055 . S
Co996 O1007 2.039 . S
Co996 N1010 2.140 . S
C997 O998 1.227 . S
C997 O1007 1.265 . S
O998 C997 1.227 . S
N999 Co996 2.121 . S
N999 C1001 1.375 . S
N999 C1002 1.313 . S
C1000 C1001 1.338 . S
C1000 N1003 1.377 1_545 S
C1000 H1020 0.930 1_545 S
C1001 N999 1.375 . S
C1001 C1000 1.338 . S
C1001 H1005 0.931 . S
C1002 N999 1.313 . S
C1002 N1003 1.344 1_545 S
C1002 H1006 0.930 . S
N1003 C1000 1.377 1_565 S
N1003 C1002 1.344 1_565 S
O1004 Co996 2.055 . S
O1004 C1008 1.250 1_455 S
H1005 C1001 0.931 . S
H1006 C1002 0.930 . S
O1007 Co996 2.039 . S
O1007 C997 1.265 . S
C1008 O1004 1.250 1_655 S
C1008 O1009 1.227 . S
O1009 C1008 1.227 . S
N1010 Co996 2.140 . S
N1010 C1013 1.346 . S
N1010 C1014 1.345 . S
C1011 C1012 1.387 . S
C1011 C1015 1.391 . S
C1012 C1011 1.387 . S
C1012 C1013 1.369 . S
C1012 H1021 0.929 . S
C1013 N1010 1.346 . S
C1013 C1012 1.369 . S
C1013 H1016 0.928 . S
C1014 N1010 1.345 . S
C1014 C1015 1.371 . S
C1014 H1017 0.931 . S
C1015 C1011 1.391 . S
C1015 C1014 1.371 . S
C1015 H1022 0.930 . S
H1016 C1013 0.928 . S
H1017 C1014 0.931 . S
H1018 C994 0.930 . S
H1019 C991 0.930 . S
H1020 C1000 0.930 1_565 S
H1021 C1012 0.929 . S
H1022 C1015 0.930 . S
C1023 C1024 1.351 1_545 S
C1023 N1026 1.368 . S
C1023 H1028 0.931 . S
C1024 C1023 1.351 1_565 S
C1024 N1025 1.373 . S
C1024 H1052 0.930 . S
N1025 C1024 1.373 . S
N1025 C1027 1.340 . S
N1026 C1023 1.368 . S
N1026 C1027 1.321 1_545 S
N1026 Co1029 2.135 . S
C1027 N1025 1.340 . S
C1027 N1026 1.321 1_565 S
C1027 H1051 0.930 . S
H1028 C1023 0.931 . S
Co1029 N1026 2.135 . S
Co1029 N1032 2.121 . S
Co1029 O1037 2.055 . S
Co1029 O1040 2.039 . S
Co1029 N1043 2.140 . S
C1030 O1031 1.227 . S
C1030 O1040 1.265 . S
O1031 C1030 1.227 . S
N1032 Co1029 2.121 . S
N1032 C1034 1.375 . S
N1032 C1035 1.313 . S
C1033 C1034 1.338 . S
C1033 N1036 1.377 . S
C1033 H1053 0.930 . S
C1034 N1032 1.375 . S
C1034 C1033 1.338 . S
C1034 H1038 0.931 . S
C1035 N1032 1.313 . S
C1035 N1036 1.344 . S
C1035 H1039 0.930 . S
N1036 C1033 1.377 . S
N1036 C1035 1.344 . S
O1037 Co1029 2.055 . S
O1037 C1041 1.253 . S
H1038 C1034 0.931 . S
H1039 C1035 0.930 . S
O1040 Co1029 2.039 . S
O1040 C1030 1.265 . S
C1041 O1037 1.253 . S
C1041 O1042 1.227 . S
O1042 C1041 1.227 . S
N1043 Co1029 2.140 . S
N1043 C1046 1.346 . S
N1043 C1047 1.345 . S
C1044 C1045 1.387 . S
C1044 C1048 1.391 . S
C1045 C1044 1.387 . S
C1045 C1046 1.369 . S
C1045 H1054 0.929 . S
C1046 N1043 1.346 . S
C1046 C1045 1.369 . S
C1046 H1049 0.928 . S
C1047 N1043 1.345 . S
C1047 C1048 1.371 . S
C1047 H1050 0.931 . S
C1048 C1044 1.391 . S
C1048 C1047 1.371 . S
C1048 H1055 0.930 . S
H1049 C1046 0.928 . S
H1050 C1047 0.931 . S
H1051 C1027 0.930 . S
H1052 C1024 0.930 . S
H1053 C1033 0.930 . S
H1054 C1045 0.929 . S
H1055 C1048 0.930 . S
C21 C87 1.703 . S
C54 C120 1.704 . S
C153 C219 1.703 . S
C252 C186 1.704 . S
C351 C285 1.704 . S
C384 C318 1.704 . S
C417 C483 1.704 . S
C516 C450 1.704 . S
C615 C549 1.704 . S
C582 C648 1.704 . S
C681 C747 1.704 . S
C780 C714 1.704 . S
C879 C813 1.703 . S
C846 C912 1.704 . S
C1011 C945 1.703 . S
C1044 C978 1.704 . S
C150 C18 1.760 1_566 S
C51 C975 1.760 1_554 S
C84 C480 1.761 . S
C117 C777 1.761 1_545 S
C183 C843 1.760 1_556 S
C348 C216 1.761 . S
C645 C249 1.761 1_545 S
C282 C414 1.760 . S
C711 C315 1.760 . S
C1041 C381 1.761 . S
C579 C447 1.760 . S
C909 C513 1.761 . S
C678 C546 1.760 1_665 S
C612 C1008 1.761 1_455 S
C744 C876 1.761 1_655 S
C942 C810 1.760 1_656 S
N13 N2 2.398 . S
N35 N46 2.398 . S
N68 N79 2.398 . S
N101 N112 2.398 . S
N145 N134 2.398 . S
N167 N178 2.398 . S
N211 N200 2.398 . S
N244 N233 2.398 . S
N277 N266 2.398 . S
N310 N299 2.398 . S
N343 N332 2.398 . S
N365 N376 2.398 . S
N409 N398 2.398 . S
N442 N431 2.398 . S
N475 N464 2.398 . S
N508 N497 2.398 . S
N530 N541 2.398 . S
N574 N563 2.398 . S
N607 N596 2.398 . S
N640 N629 2.398 . S
N673 N662 2.398 . S
N706 N695 2.398 . S
N728 N739 2.398 . S
N772 N761 2.398 . S
N794 N805 2.398 . S
N838 N827 2.398 . S
N871 N860 2.398 . S
N904 N893 2.398 . S
N926 N937 2.398 . S
N959 N970 2.398 . S
N992 N1003 2.398 . S
N1025 N1036 2.398 . S
C832 C7 1.779 . S
C40 C799 1.779 . S
C898 C73 1.780 . S
C106 C865 1.780 . S
C964 C139 1.779 . S
C172 C931 1.779 . S
C1030 C205 1.780 . S
C997 C238 1.780 . S
C271 C568 1.779 . S
C304 C535 1.779 . S
C634 C337 1.779 . S
C370 C601 1.779 . S
C700 C403 1.779 . S
C667 C436 1.779 . S
C469 C766 1.779 . S
C502 C733 1.779 . S
