# Generated by pormake.
# Topology fee, (5)-cn, num edge types: 1
# Building blocks:
#     Node 0, Type 0, BuildingBlock: XOMCOT_clean_sbu_1, # of connection points: 5
#     Node 1, Type 0, BuildingBlock: XOMCOT_clean_sbu_1, # of connection points: 5
#     Node 2, Type 0, BuildingBlock: XOMCOT_clean_sbu_1, # of connection points: 5
#     Node 3, Type 0, BuildingBlock: XOMCOT_clean_sbu_1, # of connection points: 5
#     Edge 4, Type (0, 0), BuildingBlock: FUNLAD_clean_linker_1, # of connection points: 2
#     Edge 5, Type (0, 0), BuildingBlock: FUNLAD_clean_linker_1, # of connection points: 2
#     Edge 6, Type (0, 0), BuildingBlock: FUNLAD_clean_linker_1, # of connection points: 2
#     Edge 7, Type (0, 0), BuildingBlock: FUNLAD_clean_linker_1, # of connection points: 2
#     Edge 8, Type (0, 0), BuildingBlock: FUNLAD_clean_linker_1, # of connection points: 2
#     Edge 9, Type (0, 0), BuildingBlock: FUNLAD_clean_linker_1, # of connection points: 2
#     Edge 10, Type (0, 0), BuildingBlock: FUNLAD_clean_linker_1, # of connection points: 2
#     Edge 11, Type (0, 0), BuildingBlock: FUNLAD_clean_linker_1, # of connection points: 2
#     Edge 12, Type (0, 0), BuildingBlock: FUNLAD_clean_linker_1, # of connection points: 2
#     Edge 13, Type (0, 0), BuildingBlock: FUNLAD_clean_linker_1, # of connection points: 2
# Relax obj value: 0.109
# Max RMSD: 0.128
# Mean RMSD: 0.117
data_MOF--net-fee--node1-XOMCOT_clean_sbu_1--edge1-FUNLAD_clean_linker_1
_symmetry_space_group_name_H-M    P1
_symmetry_Int_Tables_number       1
_symmetry_cell_setting            triclinic
loop_
_symmetry_equiv_pos_as_xyz
'x, y, z'
_cell_length_a     40.112702
_cell_length_b     40.144703
_cell_length_c     18.313926
_cell_angle_alpha  95.807049
_cell_angle_beta   95.774036
_cell_angle_gamma 90.032348
loop_
_atom_site_label
_atom_site_type_symbol
_atom_site_fract_x
_atom_site_fract_y
_atom_site_fract_z
_atom_type_partial_charge
C0 C 0.14705 0.52418 0.98616 0.0
C1 C 0.143 0.52437 0.91088 0.0
N2 N 0.17108 0.53679 0.88908 0.0
N3 N 0.17767 0.53633 1.01263 0.0
C4 C 0.19196 0.54387 0.95192 0.0
H5 H 0.12925 0.51442 0.0194 0.0
Co6 Co 0.19343 0.53477 0.11245 0.0
C7 C 0.24688 0.58753 0.14918 0.0
O8 O 0.26085 0.57212 0.2042 0.0
N9 N 0.20833 0.53177 0.21519 0.0
C10 C 0.2274 0.50967 0.31842 0.0
C11 C 0.22436 0.5054 0.24277 0.0
C12 C 0.20204 0.55188 0.27676 0.0
N13 N 0.213 0.53875 0.3402 0.0
O14 O 0.15681 0.56282 0.13925 0.0
H15 H 0.23285 0.4836 0.2108 0.0
H16 H 0.18867 0.57525 0.27527 0.0
O17 O 0.22115 0.57478 0.1092 0.0
C18 C 0.13375 0.54924 0.16949 0.0
O19 O 0.1379 0.51857 0.18775 0.0
N20 N 0.22666 0.50488 0.08259 0.0
C21 C 0.26791 0.45079 0.04727 0.0
C22 C 0.2807 0.48365 0.05751 0.0
C23 C 0.25956 0.51052 0.07409 0.0
C24 C 0.2134 0.47335 0.06859 0.0
C25 C 0.23352 0.44591 0.05156 0.0
H26 H 0.27007 0.53539 0.08073 0.0
H27 H 0.18716 0.46937 0.07438 0.0
H28 H 0.2176 0.55253 0.95338 0.0
H29 H 0.12135 0.51506 0.87437 0.0
H30 H 0.23919 0.49233 0.35427 0.0
H31 H 0.30703 0.4885 0.05397 0.0
H32 H 0.22225 0.4212 0.04565 0.0
C33 C 0.50587 0.17172 0.96747 0.0
C34 C 0.50697 0.17156 0.89261 0.0
N35 N 0.4766 0.18057 0.86285 0.0
N36 N 0.47509 0.18096 0.98457 0.0
C37 C 0.45771 0.18585 0.91964 0.0
H38 H 0.52615 0.16544 1.00706 0.0
Co39 Co 0.46187 0.1847 0.07863 0.0
C40 C 0.41418 0.24019 0.08566 0.0
O41 O 0.42971 0.25059 0.15066 0.0
N42 N 0.44821 0.18709 0.17492 0.0
C43 C 0.41467 0.18271 0.26358 0.0
C44 C 0.41616 0.18238 0.18894 0.0
C45 C 0.46579 0.18946 0.24235 0.0
N46 N 0.44602 0.18719 0.29695 0.0
O47 O 0.43421 0.14556 0.05155 0.0
H48 H 0.39513 0.17822 0.14711 0.0
H49 H 0.49267 0.19162 0.25223 0.0
O50 O 0.42428 0.21388 0.04905 0.0
C51 C 0.44666 0.11941 0.0769 0.0
O52 O 0.47483 0.12229 0.12054 0.0
N53 N 0.49178 0.2215 0.10287 0.0
C54 C 0.54432 0.26854 0.12402 0.0
C55 C 0.51484 0.27419 0.07901 0.0
C56 C 0.48928 0.25007 0.06789 0.0
C57 C 0.52109 0.21473 0.14277 0.0
C58 C 0.54733 0.23814 0.1554 0.0
H59 H 0.46849 0.2537 0.02743 0.0
H60 H 0.52493 0.19022 0.16148 0.0
H61 H 0.43167 0.19311 0.91381 0.0
H62 H 0.52832 0.16483 0.86276 0.0
H63 H 0.39238 0.17884 0.29044 0.0
H64 H 0.51195 0.29601 0.04894 0.0
H65 H 0.57029 0.23199 0.1874 0.0
C66 C 0.84223 0.50129 0.28602 0.0
C67 C 0.84452 0.50108 0.36151 0.0
N68 N 0.82596 0.52643 0.38903 0.0
N69 N 0.82244 0.52666 0.26621 0.0
C70 C 0.81286 0.54146 0.33028 0.0
H71 H 0.85364 0.4836 0.24776 0.0
Co72 Co 0.81084 0.53579 0.16946 0.0
C73 C 0.78606 0.60489 0.18828 0.0
O74 O 0.80775 0.61508 0.14588 0.0
N75 N 0.79903 0.54438 0.07124 0.0
C76 C 0.7693 0.55621 0.96789 0.0
C77 C 0.76913 0.55535 0.04272 0.0
C78 C 0.81671 0.53822 1.01235 0.0
N79 N 0.79934 0.54538 0.94903 0.0
O80 O 0.85115 0.56212 0.17465 0.0
H81 H 0.74807 0.56144 0.07397 0.0
H82 H 0.84153 0.52775 1.01491 0.0
O83 O 0.78593 0.57459 0.20287 0.0
C84 C 0.87667 0.54578 0.15606 0.0
O85 O 0.87304 0.5138 0.13278 0.0
N86 N 0.77281 0.5084 0.16501 0.0
C87 C 0.71974 0.4627 0.15524 0.0
C88 C 0.71959 0.49284 0.20098 0.0
C89 C 0.74647 0.51528 0.20568 0.0
C90 C 0.77352 0.47927 0.12014 0.0
C91 C 0.74712 0.45611 0.11387 0.0
H92 H 0.74612 0.53785 0.24297 0.0
H93 H 0.79477 0.47404 0.08898 0.0
H94 H 0.79606 0.56249 0.33418 0.0
H95 H 0.8579 0.483 0.39299 0.0
H96 H 0.74849 0.56321 0.93047 0.0
H97 H 0.69899 0.49884 0.23387 0.0
H98 H 0.7483 0.43363 0.07643 0.0
C99 C 0.46687 0.85165 0.21533 0.0
C100 C 0.46255 0.85113 0.28879 0.0
N101 N 0.46176 0.81894 0.30341 0.0
N102 N 0.4686 0.81995 0.18369 0.0
C103 C 0.46559 0.80058 0.239 0.0
H104 H 0.46952 0.8738 0.1873 0.0
Co105 Co 0.47587 0.80759 0.08581 0.0
C106 C 0.43511 0.74537 0.03894 0.0
O107 O 0.45626 0.7345 0.99196 0.0
N108 N 0.48362 0.79564 0.9857 0.0
C109 C 0.50864 0.78198 0.88368 0.0
C110 C 0.51252 0.78497 0.95937 0.0
C111 C 0.46254 0.79882 0.92409 0.0
N112 N 0.47718 0.79083 0.86153 0.0
O113 O 0.44267 0.83959 0.05621 0.0
H114 H 0.53564 0.7806 0.99219 0.0
H115 H 0.43716 0.80786 0.92488 0.0
O116 O 0.44083 0.77293 0.07991 0.0
C117 C 0.45379 0.865 0.02941 0.0
O118 O 0.48547 0.86583 0.01695 0.0
N119 N 0.51066 0.77961 0.11841 0.0
C120 C 0.57123 0.74882 0.15891 0.0
C121 C 0.54097 0.73032 0.14779 0.0
C122 C 0.51081 0.74631 0.12808 0.0
C123 C 0.5393 0.79827 0.13464 0.0
C124 C 0.5698 0.78339 0.15435 0.0
H125 H 0.48801 0.73176 0.12131 0.0
H126 H 0.53856 0.82484 0.12894 0.0
H127 H 0.46684 0.77352 0.23268 0.0
H128 H 0.46173 0.87277 0.32891 0.0
H129 H 0.52817 0.77555 0.84826 0.0
H130 H 0.54021 0.70385 0.15384 0.0
H131 H 0.59232 0.79879 0.16383 0.0
H132 H 0.16055 0.52181 0.77144 0.0
C133 C 0.17684 0.5373 0.81243 0.0
H134 H 0.21644 0.57269 0.82809 0.0
H135 H 0.27337 0.52803 0.522 0.0
H136 H 0.32069 0.51906 0.61093 0.0
H137 H 0.31522 0.52669 0.74449 0.0
H138 H 0.26254 0.54355 0.79014 0.0
C139 C 0.19984 0.55696 0.78847 0.0
C140 C 0.20409 0.55608 0.70733 0.0
C141 C 0.23512 0.5463 0.68124 0.0
C142 C 0.23809 0.54125 0.60384 0.0
C143 C 0.26949 0.53155 0.5799 0.0
C144 C 0.29691 0.52647 0.63035 0.0
C145 C 0.29385 0.53082 0.70556 0.0
C146 C 0.2634 0.54055 0.73101 0.0
H147 H 0.20289 0.57872 0.42586 0.0
C148 C 0.20901 0.55243 0.41531 0.0
H149 H 0.21796 0.50682 0.46157 0.0
H150 H 0.14399 0.58359 0.73706 0.0
H151 H 0.0964 0.59206 0.64842 0.0
H152 H 0.09965 0.57783 0.51515 0.0
H153 H 0.15068 0.55602 0.4695 0.0
C154 C 0.21201 0.53309 0.47212 0.0
C155 C 0.21 0.54549 0.55186 0.0
C156 C 0.17944 0.55702 0.57793 0.0
C157 C 0.17687 0.56331 0.65544 0.0
C158 C 0.14672 0.57671 0.67935 0.0
C159 C 0.11931 0.58198 0.629 0.0
C160 C 0.12119 0.5741 0.55395 0.0
C161 C 0.15079 0.56172 0.52841 0.0
H162 H 0.43867 0.18638 0.77126 0.0
C163 C 0.46532 0.18339 0.78664 0.0
H164 H 0.51324 0.17973 0.74783 0.0
H165 H 0.45739 0.12521 0.42295 0.0
H166 H 0.48426 0.07582 0.46626 0.0
H167 H 0.50686 0.07532 0.59649 0.0
H168 H 0.50257 0.12418 0.68421 0.0
C169 C 0.48657 0.18294 0.73433 0.0
C170 C 0.47411 0.18413 0.65541 0.0
C171 C 0.47741 0.15553 0.60459 0.0
C172 C 0.46475 0.15595 0.52935 0.0
C173 C 0.46729 0.12661 0.48033 0.0
C174 C 0.48248 0.09797 0.50457 0.0
C175 C 0.49517 0.09768 0.57789 0.0
C176 C 0.49261 0.12597 0.62763 0.0
H177 H 0.48444 0.18747 0.39007 0.0
C178 C 0.45757 0.18705 0.37391 0.0
H179 H 0.40958 0.18699 0.41267 0.0
H180 H 0.46685 0.24444 0.73681 0.0
H181 H 0.4399 0.2938 0.69341 0.0
H182 H 0.41677 0.29404 0.56344 0.0
H183 H 0.42069 0.24493 0.47598 0.0
C184 C 0.43647 0.18599 0.42617 0.0
C185 C 0.44934 0.1852 0.50493 0.0
C186 C 0.44612 0.21381 0.55564 0.0
C187 C 0.45889 0.21345 0.63085 0.0
C188 C 0.45666 0.24292 0.67961 0.0
C189 C 0.44147 0.27155 0.65528 0.0
C190 C 0.42849 0.2717 0.58209 0.0
C191 C 0.43085 0.24331 0.53252 0.0
H192 H 0.83444 0.52718 0.87089 0.0
C193 C 0.81065 0.53968 0.8766 0.0
H194 H 0.76966 0.56263 0.81989 0.0
H195 H 0.85092 0.58582 0.54895 0.0
H196 H 0.8521 0.64205 0.61144 0.0
H197 H 0.83139 0.65321 0.73381 0.0
H198 H 0.80969 0.60809 0.79475 0.0
C199 C 0.79274 0.54884 0.81591 0.0
C200 C 0.80468 0.54193 0.74154 0.0
C201 C 0.81652 0.56867 0.70584 0.0
C202 C 0.82772 0.56234 0.63448 0.0
C203 C 0.84093 0.58932 0.60183 0.0
C204 C 0.84204 0.62172 0.63742 0.0
C205 C 0.83043 0.628 0.70637 0.0
C206 C 0.81795 0.60187 0.74062 0.0
H207 H 0.79812 0.55194 0.4741 0.0
C208 C 0.81861 0.53489 0.46402 0.0
H209 H 0.85646 0.50531 0.51303 0.0
H210 H 0.7819 0.48519 0.79294 0.0
H211 H 0.7805 0.42898 0.73047 0.0
H212 H 0.79985 0.41794 0.60675 0.0
H213 H 0.82061 0.46305 0.54472 0.0
C214 C 0.83605 0.5225 0.52166 0.0
C215 C 0.8261 0.52935 0.59799 0.0
C216 C 0.81456 0.50256 0.63408 0.0
C217 C 0.80366 0.50887 0.70572 0.0
C218 C 0.79118 0.48178 0.7393 0.0
C219 C 0.79004 0.44937 0.70385 0.0
C220 C 0.80091 0.44316 0.63419 0.0
C221 C 0.81289 0.46933 0.5993 0.0
H222 H 0.44109 0.81149 0.78112 0.0
C223 C 0.46349 0.79642 0.78796 0.0
H224 H 0.50064 0.76955 0.73301 0.0
H225 H 0.4149 0.76832 0.41953 0.0
H226 H 0.39574 0.71496 0.45232 0.0
H227 H 0.40985 0.69826 0.57756 0.0
H228 H 0.44296 0.735 0.67112 0.0
C229 C 0.47891 0.78552 0.72822 0.0
C230 C 0.46849 0.79646 0.6542 0.0
C231 C 0.44975 0.77453 0.59977 0.0
C232 C 0.44231 0.78387 0.52697 0.0
C233 C 0.42229 0.76201 0.47476 0.0
C234 C 0.41089 0.73143 0.49307 0.0
C235 C 0.4188 0.72203 0.56364 0.0
C236 C 0.4379 0.74328 0.6167 0.0
H237 H 0.47369 0.78261 0.38278 0.0
C238 C 0.46194 0.80653 0.37453 0.0
H239 H 0.43698 0.84796 0.4227 0.0
H240 H 0.50443 0.84468 0.74617 0.0
H241 H 0.52357 0.898 0.71404 0.0
H242 H 0.51178 0.91388 0.58748 0.0
H243 H 0.48077 0.87661 0.49244 0.0
C244 C 0.44903 0.82426 0.4312 0.0
C245 C 0.45455 0.81479 0.50823 0.0
C246 C 0.47257 0.83712 0.56348 0.0
C247 C 0.47952 0.82794 0.63646 0.0
C248 C 0.49818 0.85042 0.69002 0.0
C249 C 0.50943 0.88113 0.67232 0.0
C250 C 0.50278 0.89007 0.60109 0.0
C251 C 0.48475 0.8684 0.54705 0.0
H252 H 0.91601 0.58011 0.21516 0.0
C253 C 0.9107 0.56061 0.16984 0.0
H254 H 0.92952 0.52754 0.08798 0.0
H255 H 0.0661 0.62005 0.21073 0.0
H256 H 0.03487 0.66881 0.17616 0.0
H257 H 0.9748 0.66408 0.13127 0.0
H258 H 0.94537 0.61077 0.12243 0.0
C259 C 0.93559 0.5471 0.13297 0.0
C260 C 0.97171 0.55138 0.16102 0.0
C261 C 0.98878 0.58247 0.16305 0.0
C262 C 0.0239 0.58485 0.18528 0.0
C263 C 0.03988 0.61656 0.191 0.0
C264 C 0.02219 0.64478 0.17186 0.0
C265 C 0.98833 0.64214 0.14683 0.0
C266 C 0.97169 0.61141 0.14232 0.0
H267 H 0.09048 0.57592 0.12033 0.0
C268 C 0.10003 0.56388 0.16859 0.0
H269 H 0.08992 0.54483 0.26644 0.0
H270 H 0.94606 0.48898 0.17287 0.0
H271 H 0.97745 0.43983 0.20199 0.0
H272 H 0.03893 0.4425 0.22828 0.0
H273 H 0.0692 0.4943 0.22706 0.0
C274 C 0.07943 0.55659 0.21845 0.0
C275 C 0.04219 0.55574 0.20142 0.0
C276 C 0.02494 0.52471 0.20006 0.0
C277 C 0.98967 0.52276 0.18157 0.0
C278 C 0.97297 0.49175 0.1838 0.0
C279 C 0.99065 0.46327 0.20088 0.0
C280 C 0.02522 0.46481 0.21592 0.0
C281 C 0.04228 0.49498 0.21547 0.0
H282 H 0.4232 0.90491 0.07877 0.0
C283 C 0.43477 0.89635 0.02918 0.0
H284 H 0.45033 0.90774 0.92892 0.0
H285 H 0.38077 0.04698 0.09064 0.0
H286 H 0.32905 0.01486 0.08537 0.0
H287 H 0.32628 0.95532 0.03581 0.0
H288 H 0.37536 0.92731 0.99249 0.0
C289 C 0.43904 0.9174 0.97819 0.0
C290 C 0.43811 0.95453 0.99606 0.0
C291 C 0.40879 0.97088 0.01795 0.0
C292 C 0.41003 0.0056 0.04403 0.0
C293 C 0.38095 0.02088 0.06911 0.0
C294 C 0.35115 0.00274 0.06635 0.0
C295 C 0.34961 0.96918 0.0386 0.0
C296 C 0.37799 0.95333 1.01445 0.0
H297 H 0.41548 0.08271 1.0003 0.0
C298 C 0.43265 0.08577 0.05038 0.0
H299 H 0.46174 0.06213 0.13197 0.0
H300 H 0.49932 0.93195 0.95509 0.0
H301 H 0.54894 0.96527 0.95126 0.0
H302 H 0.54953 0.02605 0.98835 0.0
H303 H 0.50029 0.05366 0.03052 0.0
C304 C 0.44403 0.05879 0.08274 0.0
C305 C 0.44021 0.0241 0.0455 0.0
C306 C 0.4687 0.00841 0.01808 0.0
C307 C 0.46791 0.97357 0.99437 0.0
C308 C 0.49765 0.95844 0.97149 0.0
C309 C 0.52662 0.97729 0.96938 0.0
C310 C 0.52699 0.01147 0.99044 0.0
C311 C 0.49853 0.02695 1.01479 0.0
H312 H 0.37465 0.25226 0.99868 0.0
C313 C 0.38721 0.26072 0.05273 0.0
H314 H 0.3908 0.29821 0.14298 0.0
H315 H 0.32328 0.39861 0.91606 0.0
H316 H 0.37502 0.39335 0.85748 0.0
H317 H 0.41685 0.35101 0.89105 0.0
H318 H 0.40708 0.31341 0.98264 0.0
C319 C 0.37875 0.28999 0.08831 0.0
C320 C 0.35176 0.31171 0.05857 0.0
C321 C 0.35804 0.33358 1.00526 0.0
C322 C 0.33432 0.35861 0.9873 0.0
C323 C 0.34089 0.37979 0.93306 0.0
C324 C 0.37038 0.37691 0.89879 0.0
C325 C 0.39391 0.35303 0.91761 0.0
C326 C 0.38798 0.33158 0.97026 0.0
H327 H 0.31754 0.42693 0.06078 0.0
C328 C 0.29143 0.42225 0.03983 0.0
H329 H 0.25619 0.38513 0.99102 0.0
H330 H 0.33066 0.27138 0.15675 0.0
H331 H 0.27877 0.27626 0.2146 0.0
H332 H 0.23819 0.3204 0.1858 0.0
H333 H 0.24914 0.35983 0.09905 0.0
C334 C 0.28187 0.3908 1.01329 0.0
C335 C 0.30479 0.3621 0.02384 0.0
C336 C 0.29768 0.33896 0.07397 0.0
C337 C 0.32121 0.31375 0.09129 0.0
C338 C 0.31377 0.29124 0.14234 0.0
C339 C 0.28405 0.29369 0.17575 0.0
C340 C 0.2612 0.31851 0.15946 0.0
C341 C 0.2678 0.34098 0.10938 0.0
H342 H 0.66799 0.44907 0.17336 0.0
C343 C 0.69078 0.43928 0.15203 0.0
H344 H 0.71358 0.39533 0.10614 0.0
H345 H 0.58669 0.33457 0.25979 0.0
H346 H 0.61932 0.35239 0.37597 0.0
H347 H 0.67204 0.38441 0.37894 0.0
H348 H 0.69219 0.39919 0.2658 0.0
C349 C 0.69149 0.40661 0.12733 0.0
C350 C 0.66129 0.38493 0.12571 0.0
C351 C 0.65046 0.37562 0.19226 0.0
C352 C 0.6207 0.35614 0.19036 0.0
C353 C 0.60966 0.34842 0.25782 0.0
C354 C 0.62806 0.35865 0.32497 0.0
C355 C 0.65769 0.37676 0.32665 0.0
C356 C 0.66889 0.38521 0.26128 0.0
H357 H 0.59779 0.28237 0.15324 0.0
C358 C 0.57353 0.29198 0.13354 0.0
H359 H 0.54816 0.33503 0.09942 0.0
H360 H 0.67561 0.39796 0.98831 0.0
H361 H 0.64387 0.37877 0.87178 0.0
H362 H 0.59302 0.34381 0.86816 0.0
H363 H 0.5735 0.32791 0.98101 0.0
C364 C 0.57173 0.3241 0.11866 0.0
C365 C 0.60248 0.34511 0.12174 0.0
C366 C 0.61358 0.35407 0.0552 0.0
C367 C 0.64306 0.37396 0.05719 0.0
C368 C 0.65349 0.38271 0.98993 0.0
C369 C 0.6355 0.37188 0.92265 0.0
C370 C 0.60686 0.35222 0.92062 0.0
C371 C 0.59591 0.34332 0.98588 0.0
H372 H 0.6263 0.75052 0.18494 0.0
C373 C 0.60483 0.73355 0.1731 0.0
H374 H 0.59062 0.68241 0.15088 0.0
H375 H 0.72619 0.63257 0.03727 0.0
H376 H 0.68769 0.62384 0.92633 0.0
H377 H 0.62986 0.64483 0.92422 0.0
H378 H 0.61007 0.67428 0.03336 0.0
C379 C 0.61081 0.70046 0.16651 0.0
C380 C 0.64582 0.68775 0.16894 0.0
C381 C 0.65719 0.67108 0.10412 0.0
C382 C 0.69078 0.65968 0.10482 0.0
C383 C 0.70116 0.64236 0.0397 0.0
C384 C 0.67928 0.63708 0.97552 0.0
C385 C 0.64671 0.64884 0.97438 0.0
C386 C 0.63567 0.66567 0.03763 0.0
H387 H 0.73946 0.61532 0.23986 0.0
C388 C 0.75674 0.6253 0.20522 0.0
H389 H 0.76387 0.66117 0.13159 0.0
H390 H 0.63128 0.71519 0.30511 0.0
H391 H 0.67025 0.72511 0.41541 0.0
H392 H 0.72949 0.70878 0.41412 0.0
H393 H 0.74999 0.68195 0.30272 0.0
C394 C 0.7479 0.65223 0.17018 0.0
C395 C 0.71314 0.66532 0.17006 0.0
C396 C 0.70186 0.68205 0.23483 0.0
C397 C 0.66799 0.6927 0.2347 0.0
C398 C 0.657 0.70778 0.30125 0.0
C399 C 0.67907 0.7134 0.36513 0.0
C400 C 0.7124 0.70411 0.36447 0.0
C401 C 0.7238 0.6886 0.30026 0.0
H402 H 0.40983 0.69644 0.0315 0.0
C403 C 0.40762 0.72277 0.0509 0.0
H404 H 0.37804 0.75947 0.103 0.0
H405 H 0.29422 0.61168 1.00944 0.0
H406 H 0.30198 0.61955 0.88311 0.0
H407 H 0.33148 0.66959 0.85314 0.0
H408 H 0.35447 0.71141 0.95017 0.0
C409 C 0.38037 0.73318 0.08358 0.0
C410 C 0.35441 0.70867 0.09892 0.0
C411 C 0.33861 0.68593 0.04124 0.0
C412 C 0.31921 0.6585 0.05813 0.0
C413 C 0.30717 0.63418 0.99991 0.0
C414 C 0.31174 0.63821 0.92691 0.0
C415 C 0.32851 0.66627 0.91007 0.0
C416 C 0.34186 0.6899 0.96632 0.0
H417 H 0.24943 0.63244 0.08884 0.0
C418 C 0.26326 0.61758 0.12786 0.0
H419 H 0.30889 0.61095 0.19227 0.0
H420 H 0.37721 0.75023 0.22225 0.0
H421 H 0.36333 0.7466 0.34666 0.0
H422 H 0.32638 0.70159 0.37497 0.0
H423 H 0.30264 0.66005 0.27841 0.0
C424 C 0.29525 0.62572 0.15277 0.0
C425 C 0.31305 0.65559 0.13231 0.0
C426 C 0.32615 0.68025 0.18901 0.0
C427 C 0.34709 0.70658 0.17251 0.0
C428 C 0.36074 0.73001 0.23099 0.0
C429 C 0.35312 0.72816 0.30299 0.0
C430 C 0.33226 0.70284 0.31889 0.0
C431 C 0.31891 0.67908 0.2629 0.0
loop_
_geom_bond_atom_site_label_1
_geom_bond_atom_site_label_2
_geom_bond_distance
_geom_bond_site_symmetry_2
_ccdc_geom_bond_type
C0 C1 1.351 . S
C0 N3 1.368 . S
C0 H5 0.931 . S
C1 C0 1.351 . S
C1 N2 1.373 . S
C1 H29 0.930 . S
N2 C1 1.373 . S
N2 C4 1.340 . S
N3 C0 1.368 . S
N3 C4 1.321 . S
N3 Co6 2.135 1_556 S
C4 N2 1.340 . S
C4 N3 1.321 . S
C4 H28 0.930 . S
H5 C0 0.931 . S
Co6 N3 2.135 1_554 S
Co6 N9 2.121 . S
Co6 O14 2.055 . S
Co6 O17 2.039 . S
Co6 N20 2.140 . S
C7 O8 1.227 . S
C7 O17 1.265 . S
O8 C7 1.227 . S
N9 Co6 2.121 . S
N9 C11 1.375 . S
N9 C12 1.313 . S
C10 C11 1.338 . S
C10 N13 1.377 . S
C10 H30 0.930 . S
C11 N9 1.375 . S
C11 C10 1.338 . S
C11 H15 0.931 . S
C12 N9 1.313 . S
C12 N13 1.344 . S
C12 H16 0.930 . S
N13 C10 1.377 . S
N13 C12 1.344 . S
O14 Co6 2.055 . S
O14 C18 1.253 . S
H15 C11 0.931 . S
H16 C12 0.930 . S
O17 Co6 2.039 . S
O17 C7 1.265 . S
C18 O14 1.253 . S
C18 O19 1.227 . S
O19 C18 1.227 . S
N20 Co6 2.140 . S
N20 C23 1.346 . S
N20 C24 1.345 . S
C21 C22 1.387 . S
C21 C25 1.391 . S
C22 C21 1.387 . S
C22 C23 1.369 . S
C22 H31 0.929 1_554 S
C23 N20 1.346 . S
C23 C22 1.369 . S
C23 H26 0.928 1_554 S
C24 N20 1.345 . S
C24 C25 1.371 . S
C24 H27 0.931 . S
C25 C21 1.391 . S
C25 C24 1.371 . S
C25 H32 0.930 . S
H26 C23 0.928 1_556 S
H27 C24 0.931 . S
H28 C4 0.930 . S
H29 C1 0.930 . S
H30 C10 0.930 . S
H31 C22 0.929 1_556 S
H32 C25 0.930 . S
C33 C34 1.351 . S
C33 N36 1.368 . S
C33 H38 0.931 . S
C34 C33 1.351 . S
C34 N35 1.373 . S
C34 H62 0.930 . S
N35 C34 1.373 . S
N35 C37 1.340 . S
N36 C33 1.368 . S
N36 C37 1.321 . S
N36 Co39 2.135 1_556 S
C37 N35 1.340 . S
C37 N36 1.321 . S
C37 H61 0.930 . S
H38 C33 0.931 . S
Co39 N36 2.135 1_554 S
Co39 N42 2.121 . S
Co39 O47 2.055 . S
Co39 O50 2.039 . S
Co39 N53 2.140 . S
C40 O41 1.227 . S
C40 O50 1.265 . S
O41 C40 1.227 . S
N42 Co39 2.121 . S
N42 C44 1.375 . S
N42 C45 1.313 . S
C43 C44 1.338 . S
C43 N46 1.377 . S
C43 H63 0.930 . S
C44 N42 1.375 . S
C44 C43 1.338 . S
C44 H48 0.931 . S
C45 N42 1.313 . S
C45 N46 1.344 . S
C45 H49 0.930 . S
N46 C43 1.377 . S
N46 C45 1.344 . S
O47 Co39 2.055 . S
O47 C51 1.253 . S
H48 C44 0.931 . S
H49 C45 0.930 . S
O50 Co39 2.039 . S
O50 C40 1.265 . S
C51 O47 1.253 . S
C51 O52 1.227 . S
O52 C51 1.227 . S
N53 Co39 2.140 . S
N53 C56 1.346 . S
N53 C57 1.345 . S
C54 C55 1.387 . S
C54 C58 1.391 . S
C55 C54 1.387 . S
C55 C56 1.369 . S
C55 H64 0.929 1_554 S
C56 N53 1.346 . S
C56 C55 1.369 . S
C56 H59 0.928 1_554 S
C57 N53 1.345 . S
C57 C58 1.371 . S
C57 H60 0.931 . S
C58 C54 1.391 . S
C58 C57 1.371 . S
C58 H65 0.930 . S
H59 C56 0.928 1_556 S
H60 C57 0.931 . S
H61 C37 0.930 . S
H62 C34 0.930 . S
H63 C43 0.930 . S
H64 C55 0.929 1_556 S
H65 C58 0.930 . S
C66 C67 1.351 . S
C66 N69 1.368 . S
C66 H71 0.931 . S
C67 C66 1.351 . S
C67 N68 1.373 . S
C67 H95 0.930 . S
N68 C67 1.373 . S
N68 C70 1.340 . S
N69 C66 1.368 . S
N69 C70 1.321 . S
N69 Co72 2.135 . S
C70 N68 1.340 . S
C70 N69 1.321 . S
C70 H94 0.930 . S
H71 C66 0.931 . S
Co72 N69 2.135 . S
Co72 N75 2.121 . S
Co72 O80 2.055 . S
Co72 O83 2.039 . S
Co72 N86 2.140 . S
C73 O74 1.227 . S
C73 O83 1.265 . S
O74 C73 1.227 . S
N75 Co72 2.121 . S
N75 C77 1.375 1_554 S
N75 C78 1.313 1_554 S
C76 C77 1.338 . S
C76 N79 1.377 . S
C76 H96 0.930 . S
C77 N75 1.375 1_556 S
C77 C76 1.338 . S
C77 H81 0.931 1_556 S
C78 N75 1.313 1_556 S
C78 N79 1.344 . S
C78 H82 0.930 . S
N79 C76 1.377 . S
N79 C78 1.344 . S
O80 Co72 2.055 . S
O80 C84 1.253 . S
H81 C77 0.931 1_554 S
H82 C78 0.930 . S
O83 Co72 2.039 . S
O83 C73 1.265 . S
C84 O80 1.253 . S
C84 O85 1.227 . S
O85 C84 1.227 . S
N86 Co72 2.140 . S
N86 C89 1.346 . S
N86 C90 1.345 . S
C87 C88 1.387 . S
C87 C91 1.391 . S
C88 C87 1.387 . S
C88 C89 1.369 . S
C88 H97 0.929 . S
C89 N86 1.346 . S
C89 C88 1.369 . S
C89 H92 0.928 . S
C90 N86 1.345 . S
C90 C91 1.371 . S
C90 H93 0.931 . S
C91 C87 1.391 . S
C91 C90 1.371 . S
C91 H98 0.930 . S
H92 C89 0.928 . S
H93 C90 0.931 . S
H94 C70 0.930 . S
H95 C67 0.930 . S
H96 C76 0.930 . S
H97 C88 0.929 . S
H98 C91 0.930 . S
C99 C100 1.351 . S
C99 N102 1.368 . S
C99 H104 0.931 . S
C100 C99 1.351 . S
C100 N101 1.373 . S
C100 H128 0.930 . S
N101 C100 1.373 . S
N101 C103 1.340 . S
N102 C99 1.368 . S
N102 C103 1.321 . S
N102 Co105 2.135 . S
C103 N101 1.340 . S
C103 N102 1.321 . S
C103 H127 0.930 . S
H104 C99 0.931 . S
Co105 N102 2.135 . S
Co105 N108 2.121 . S
Co105 O113 2.055 . S
Co105 O116 2.039 . S
Co105 N119 2.140 . S
C106 O107 1.227 . S
C106 O116 1.265 . S
O107 C106 1.227 . S
N108 Co105 2.121 . S
N108 C110 1.375 1_554 S
N108 C111 1.313 1_554 S
C109 C110 1.338 . S
C109 N112 1.377 . S
C109 H129 0.930 . S
C110 N108 1.375 1_556 S
C110 C109 1.338 . S
C110 H114 0.931 . S
C111 N108 1.313 1_556 S
C111 N112 1.344 . S
C111 H115 0.930 . S
N112 C109 1.377 . S
N112 C111 1.344 . S
O113 Co105 2.055 . S
O113 C117 1.253 . S
H114 C110 0.931 . S
H115 C111 0.930 . S
O116 Co105 2.039 . S
O116 C106 1.265 . S
C117 O113 1.253 . S
C117 O118 1.227 . S
O118 C117 1.227 . S
N119 Co105 2.140 . S
N119 C122 1.346 . S
N119 C123 1.345 . S
C120 C121 1.387 . S
C120 C124 1.391 . S
C121 C120 1.387 . S
C121 C122 1.369 . S
C121 H130 0.929 . S
C122 N119 1.346 . S
C122 C121 1.369 . S
C122 H125 0.928 . S
C123 N119 1.345 . S
C123 C124 1.371 . S
C123 H126 0.931 . S
C124 C120 1.391 . S
C124 C123 1.371 . S
C124 H131 0.930 . S
H125 C122 0.928 . S
H126 C123 0.931 . S
H127 C103 0.930 . S
H128 C100 0.930 . S
H129 C109 0.930 . S
H130 C121 0.929 . S
H131 C124 0.930 . S
H132 C133 0.951 . S
C133 H132 0.951 . S
C133 C139 1.265 . S
H134 C139 0.950 . S
H135 C143 0.949 . S
H136 C144 0.950 . S
H137 C145 0.951 . S
H138 C146 0.951 . S
C139 C133 1.265 . S
C139 H134 0.950 . S
C139 C140 1.478 . S
C140 C139 1.478 . S
C140 C141 1.397 . S
C140 C157 1.394 . S
C141 C140 1.397 . S
C141 C142 1.438 . S
C141 C146 1.429 . S
C142 C141 1.438 . S
C142 C143 1.428 . S
C142 C155 1.394 . S
C143 H135 0.949 . S
C143 C142 1.428 . S
C143 C144 1.345 . S
C144 H136 0.950 . S
C144 C143 1.345 . S
C144 C145 1.424 . S
C145 H137 0.951 . S
C145 C144 1.424 . S
C145 C146 1.347 . S
C146 H138 0.951 . S
C146 C141 1.429 . S
C146 C145 1.347 . S
H147 C148 0.951 . S
C148 H147 0.951 . S
C148 C154 1.265 . S
H149 C154 0.950 . S
H150 C158 0.949 . S
H151 C159 0.950 . S
H152 C160 0.951 . S
H153 C161 0.951 . S
C154 C148 1.265 . S
C154 H149 0.950 . S
C154 C155 1.478 . S
C155 C142 1.394 . S
C155 C154 1.478 . S
C155 C156 1.397 . S
C156 C155 1.397 . S
C156 C157 1.438 . S
C156 C161 1.429 . S
C157 C140 1.394 . S
C157 C156 1.438 . S
C157 C158 1.428 . S
C158 H150 0.949 . S
C158 C157 1.428 . S
C158 C159 1.345 . S
C159 H151 0.950 . S
C159 C158 1.345 . S
C159 C160 1.424 . S
C160 H152 0.951 . S
C160 C159 1.424 . S
C160 C161 1.347 . S
C161 H153 0.951 . S
C161 C156 1.429 . S
C161 C160 1.347 . S
H162 C163 0.951 . S
C163 H162 0.951 . S
C163 C169 1.265 . S
H164 C169 0.950 . S
H165 C173 0.949 . S
H166 C174 0.950 . S
H167 C175 0.951 . S
H168 C176 0.951 . S
C169 C163 1.265 . S
C169 H164 0.950 . S
C169 C170 1.478 . S
C170 C169 1.478 . S
C170 C171 1.397 . S
C170 C187 1.394 . S
C171 C170 1.397 . S
C171 C172 1.438 . S
C171 C176 1.429 . S
C172 C171 1.438 . S
C172 C173 1.428 . S
C172 C185 1.394 . S
C173 H165 0.949 . S
C173 C172 1.428 . S
C173 C174 1.345 . S
C174 H166 0.950 . S
C174 C173 1.345 . S
C174 C175 1.424 . S
C175 H167 0.951 . S
C175 C174 1.424 . S
C175 C176 1.347 . S
C176 H168 0.951 . S
C176 C171 1.429 . S
C176 C175 1.347 . S
H177 C178 0.951 . S
C178 H177 0.951 . S
C178 C184 1.265 . S
H179 C184 0.950 . S
H180 C188 0.949 . S
H181 C189 0.950 . S
H182 C190 0.951 . S
H183 C191 0.951 . S
C184 C178 1.265 . S
C184 H179 0.950 . S
C184 C185 1.478 . S
C185 C172 1.394 . S
C185 C184 1.478 . S
C185 C186 1.397 . S
C186 C185 1.397 . S
C186 C187 1.438 . S
C186 C191 1.429 . S
C187 C170 1.394 . S
C187 C186 1.438 . S
C187 C188 1.428 . S
C188 H180 0.949 . S
C188 C187 1.428 . S
C188 C189 1.345 . S
C189 H181 0.950 . S
C189 C188 1.345 . S
C189 C190 1.424 . S
C190 H182 0.951 . S
C190 C189 1.424 . S
C190 C191 1.347 . S
C191 H183 0.951 . S
C191 C186 1.429 . S
C191 C190 1.347 . S
H192 C193 0.951 . S
C193 H192 0.951 . S
C193 C199 1.265 . S
H194 C199 0.950 . S
H195 C203 0.949 . S
H196 C204 0.950 . S
H197 C205 0.951 . S
H198 C206 0.951 . S
C199 C193 1.265 . S
C199 H194 0.950 . S
C199 C200 1.478 . S
C200 C199 1.478 . S
C200 C201 1.397 . S
C200 C217 1.394 . S
C201 C200 1.397 . S
C201 C202 1.438 . S
C201 C206 1.429 . S
C202 C201 1.438 . S
C202 C203 1.428 . S
C202 C215 1.394 . S
C203 H195 0.949 . S
C203 C202 1.428 . S
C203 C204 1.345 . S
C204 H196 0.950 . S
C204 C203 1.345 . S
C204 C205 1.424 . S
C205 H197 0.951 . S
C205 C204 1.424 . S
C205 C206 1.347 . S
C206 H198 0.951 . S
C206 C201 1.429 . S
C206 C205 1.347 . S
H207 C208 0.951 . S
C208 H207 0.951 . S
C208 C214 1.265 . S
H209 C214 0.950 . S
H210 C218 0.949 . S
H211 C219 0.950 . S
H212 C220 0.951 . S
H213 C221 0.951 . S
C214 C208 1.265 . S
C214 H209 0.950 . S
C214 C215 1.478 . S
C215 C202 1.394 . S
C215 C214 1.478 . S
C215 C216 1.397 . S
C216 C215 1.397 . S
C216 C217 1.438 . S
C216 C221 1.429 . S
C217 C200 1.394 . S
C217 C216 1.438 . S
C217 C218 1.428 . S
C218 H210 0.949 . S
C218 C217 1.428 . S
C218 C219 1.345 . S
C219 H211 0.950 . S
C219 C218 1.345 . S
C219 C220 1.424 . S
C220 H212 0.951 . S
C220 C219 1.424 . S
C220 C221 1.347 . S
C221 H213 0.951 . S
C221 C216 1.429 . S
C221 C220 1.347 . S
H222 C223 0.951 . S
C223 H222 0.951 . S
C223 C229 1.265 . S
H224 C229 0.950 . S
H225 C233 0.949 . S
H226 C234 0.950 . S
H227 C235 0.951 . S
H228 C236 0.951 . S
C229 C223 1.265 . S
C229 H224 0.950 . S
C229 C230 1.478 . S
C230 C229 1.478 . S
C230 C231 1.397 . S
C230 C247 1.394 . S
C231 C230 1.397 . S
C231 C232 1.438 . S
C231 C236 1.429 . S
C232 C231 1.438 . S
C232 C233 1.428 . S
C232 C245 1.394 . S
C233 H225 0.949 . S
C233 C232 1.428 . S
C233 C234 1.345 . S
C234 H226 0.950 . S
C234 C233 1.345 . S
C234 C235 1.424 . S
C235 H227 0.951 . S
C235 C234 1.424 . S
C235 C236 1.347 . S
C236 H228 0.951 . S
C236 C231 1.429 . S
C236 C235 1.347 . S
H237 C238 0.951 . S
C238 H237 0.951 . S
C238 C244 1.265 . S
H239 C244 0.950 . S
H240 C248 0.949 . S
H241 C249 0.950 . S
H242 C250 0.951 . S
H243 C251 0.951 . S
C244 C238 1.265 . S
C244 H239 0.950 . S
C244 C245 1.478 . S
C245 C232 1.394 . S
C245 C244 1.478 . S
C245 C246 1.397 . S
C246 C245 1.397 . S
C246 C247 1.438 . S
C246 C251 1.429 . S
C247 C230 1.394 . S
C247 C246 1.438 . S
C247 C248 1.428 . S
C248 H240 0.949 . S
C248 C247 1.428 . S
C248 C249 1.345 . S
C249 H241 0.950 . S
C249 C248 1.345 . S
C249 C250 1.424 . S
C250 H242 0.951 . S
C250 C249 1.424 . S
C250 C251 1.347 . S
C251 H243 0.951 . S
C251 C246 1.429 . S
C251 C250 1.347 . S
H252 C253 0.951 . S
C253 H252 0.951 . S
C253 C259 1.265 . S
H254 C259 0.950 . S
H255 C263 0.949 . S
H256 C264 0.950 1_556 S
H257 C265 0.951 1_556 S
H258 C266 0.951 . S
C259 C253 1.265 . S
C259 H254 0.950 . S
C259 C260 1.478 . S
C260 C259 1.478 . S
C260 C261 1.397 . S
C260 C277 1.394 . S
C261 C260 1.397 . S
C261 C262 1.438 1_655 S
C261 C266 1.429 . S
C262 C261 1.438 1_455 S
C262 C263 1.428 . S
C262 C275 1.394 . S
C263 H255 0.949 . S
C263 C262 1.428 . S
C263 C264 1.345 . S
C264 H256 0.950 1_554 S
C264 C263 1.345 . S
C264 C265 1.424 1_455 S
C265 H257 0.951 1_554 S
C265 C264 1.424 1_655 S
C265 C266 1.347 . S
C266 H258 0.951 . S
C266 C261 1.429 . S
C266 C265 1.347 . S
H267 C268 0.951 . S
C268 H267 0.951 . S
C268 C274 1.265 . S
H269 C274 0.950 . S
H270 C278 0.949 . S
H271 C279 0.950 . S
H272 C280 0.951 . S
H273 C281 0.951 . S
C274 C268 1.265 . S
C274 H269 0.950 . S
C274 C275 1.478 . S
C275 C262 1.394 . S
C275 C274 1.478 . S
C275 C276 1.397 . S
C276 C275 1.397 . S
C276 C277 1.438 1_455 S
C276 C281 1.429 . S
C277 C260 1.394 . S
C277 C276 1.438 1_655 S
C277 C278 1.428 . S
C278 H270 0.949 . S
C278 C277 1.428 . S
C278 C279 1.345 . S
C279 H271 0.950 . S
C279 C278 1.345 . S
C279 C280 1.424 1_655 S
C280 H272 0.951 . S
C280 C279 1.424 1_455 S
C280 C281 1.347 . S
C281 H273 0.951 . S
C281 C276 1.429 . S
C281 C280 1.347 . S
H282 C283 0.951 . S
C283 H282 0.951 . S
C283 C289 1.265 . S
H284 C289 0.950 . S
H285 C293 0.949 . S
H286 C294 0.950 . S
H287 C295 0.951 . S
H288 C296 0.951 . S
C289 C283 1.265 . S
C289 H284 0.950 . S
C289 C290 1.478 . S
C290 C289 1.478 . S
C290 C291 1.397 . S
C290 C307 1.394 . S
C291 C290 1.397 . S
C291 C292 1.438 1_565 S
C291 C296 1.429 . S
C292 C291 1.438 1_545 S
C292 C293 1.428 . S
C292 C305 1.394 . S
C293 H285 0.949 . S
C293 C292 1.428 . S
C293 C294 1.345 . S
C294 H286 0.950 . S
C294 C293 1.345 . S
C294 C295 1.424 . S
C295 H287 0.951 . S
C295 C294 1.424 . S
C295 C296 1.347 1_545 S
C296 H288 0.951 . S
C296 C291 1.429 . S
C296 C295 1.347 1_565 S
H297 C298 0.951 . S
C298 H297 0.951 . S
C298 C304 1.265 . S
H299 C304 0.950 . S
H300 C308 0.949 . S
H301 C309 0.949 . S
H302 C310 0.951 . S
H303 C311 0.951 . S
C304 C298 1.265 . S
C304 H299 0.950 . S
C304 C305 1.478 . S
C305 C292 1.394 . S
C305 C304 1.478 . S
C305 C306 1.397 . S
C306 C305 1.397 . S
C306 C307 1.438 1_545 S
C306 C311 1.429 . S
C307 C290 1.394 . S
C307 C306 1.438 1_565 S
C307 C308 1.428 . S
C308 H300 0.949 . S
C308 C307 1.428 . S
C308 C309 1.345 1_554 S
C309 H301 0.949 . S
C309 C308 1.345 1_556 S
C309 C310 1.424 1_565 S
C310 H302 0.951 . S
C310 C309 1.424 1_545 S
C310 C311 1.347 1_556 S
C311 H303 0.951 . S
C311 C306 1.429 . S
C311 C310 1.347 1_554 S
H312 C313 0.951 . S
C313 H312 0.951 . S
C313 C319 1.265 . S
H314 C319 0.950 . S
H315 C323 0.949 . S
H316 C324 0.950 . S
H317 C325 0.951 . S
H318 C326 0.951 . S
C319 C313 1.265 . S
C319 H314 0.950 . S
C319 C320 1.478 . S
C320 C319 1.478 . S
C320 C321 1.397 1_554 S
C320 C337 1.394 . S
C321 C320 1.397 1_556 S
C321 C322 1.438 . S
C321 C326 1.429 . S
C322 C321 1.438 . S
C322 C323 1.428 . S
C322 C335 1.394 1_556 S
C323 H315 0.949 . S
C323 C322 1.428 . S
C323 C324 1.345 . S
C324 H316 0.950 . S
C324 C323 1.345 . S
C324 C325 1.424 . S
C325 H317 0.951 . S
C325 C324 1.424 . S
C325 C326 1.347 . S
C326 H318 0.951 . S
C326 C321 1.429 . S
C326 C325 1.347 . S
H327 C328 0.951 . S
C328 H327 0.951 . S
C328 C334 1.265 . S
H329 C334 0.950 . S
H330 C338 0.949 . S
H331 C339 0.950 . S
H332 C340 0.951 . S
H333 C341 0.951 . S
C334 C328 1.265 . S
C334 H329 0.950 . S
C334 C335 1.478 . S
C335 C322 1.394 1_554 S
C335 C334 1.478 . S
C335 C336 1.397 . S
C336 C335 1.397 . S
C336 C337 1.438 . S
C336 C341 1.429 . S
C337 C320 1.394 . S
C337 C336 1.438 . S
C337 C338 1.428 . S
C338 H330 0.949 . S
C338 C337 1.428 . S
C338 C339 1.345 . S
C339 H331 0.950 . S
C339 C338 1.345 . S
C339 C340 1.424 . S
C340 H332 0.951 . S
C340 C339 1.424 . S
C340 C341 1.347 . S
C341 H333 0.951 . S
C341 C336 1.429 . S
C341 C340 1.347 . S
H342 C343 0.951 . S
C343 H342 0.951 . S
C343 C349 1.265 . S
H344 C349 0.950 . S
H345 C353 0.949 . S
H346 C354 0.950 . S
H347 C355 0.951 . S
H348 C356 0.951 . S
C349 C343 1.265 . S
C349 H344 0.950 . S
C349 C350 1.478 . S
C350 C349 1.478 . S
C350 C351 1.397 . S
C350 C367 1.394 . S
C351 C350 1.397 . S
C351 C352 1.438 . S
C351 C356 1.429 . S
C352 C351 1.438 . S
C352 C353 1.428 . S
C352 C365 1.394 . S
C353 H345 0.949 . S
C353 C352 1.428 . S
C353 C354 1.345 . S
C354 H346 0.950 . S
C354 C353 1.345 . S
C354 C355 1.424 . S
C355 H347 0.951 . S
C355 C354 1.424 . S
C355 C356 1.347 . S
C356 H348 0.951 . S
C356 C351 1.429 . S
C356 C355 1.347 . S
H357 C358 0.951 . S
C358 H357 0.951 . S
C358 C364 1.265 . S
H359 C364 0.950 . S
H360 C368 0.949 . S
H361 C369 0.950 . S
H362 C370 0.951 . S
H363 C371 0.951 . S
C364 C358 1.265 . S
C364 H359 0.950 . S
C364 C365 1.478 . S
C365 C352 1.394 . S
C365 C364 1.478 . S
C365 C366 1.397 . S
C366 C365 1.397 . S
C366 C367 1.438 . S
C366 C371 1.429 1_554 S
C367 C350 1.394 . S
C367 C366 1.438 . S
C367 C368 1.428 1_554 S
C368 H360 0.949 . S
C368 C367 1.428 1_556 S
C368 C369 1.345 . S
C369 H361 0.950 . S
C369 C368 1.345 . S
C369 C370 1.424 . S
C370 H362 0.951 . S
C370 C369 1.424 . S
C370 C371 1.347 . S
C371 H363 0.951 . S
C371 C366 1.429 1_556 S
C371 C370 1.347 . S
H372 C373 0.951 . S
C373 H372 0.951 . S
C373 C379 1.265 . S
H374 C379 0.950 . S
H375 C383 0.949 . S
H376 C384 0.950 . S
H377 C385 0.951 . S
H378 C386 0.951 . S
C379 C373 1.265 . S
C379 H374 0.950 . S
C379 C380 1.478 . S
C380 C379 1.478 . S
C380 C381 1.397 . S
C380 C397 1.394 . S
C381 C380 1.397 . S
C381 C382 1.438 . S
C381 C386 1.429 . S
C382 C381 1.438 . S
C382 C383 1.428 . S
C382 C395 1.394 . S
C383 H375 0.949 . S
C383 C382 1.428 . S
C383 C384 1.345 1_554 S
C384 H376 0.950 . S
C384 C383 1.345 1_556 S
C384 C385 1.424 . S
C385 H377 0.951 . S
C385 C384 1.424 . S
C385 C386 1.347 1_556 S
C386 H378 0.951 . S
C386 C381 1.429 . S
C386 C385 1.347 1_554 S
H387 C388 0.951 . S
C388 H387 0.951 . S
C388 C394 1.265 . S
H389 C394 0.950 . S
H390 C398 0.949 . S
H391 C399 0.950 . S
H392 C400 0.951 . S
H393 C401 0.951 . S
C394 C388 1.265 . S
C394 H389 0.950 . S
C394 C395 1.478 . S
C395 C382 1.394 . S
C395 C394 1.478 . S
C395 C396 1.397 . S
C396 C395 1.397 . S
C396 C397 1.438 . S
C396 C401 1.429 . S
C397 C380 1.394 . S
C397 C396 1.438 . S
C397 C398 1.428 . S
C398 H390 0.949 . S
C398 C397 1.428 . S
C398 C399 1.345 . S
C399 H391 0.950 . S
C399 C398 1.345 . S
C399 C400 1.424 . S
C400 H392 0.951 . S
C400 C399 1.424 . S
C400 C401 1.347 . S
C401 H393 0.951 . S
C401 C396 1.429 . S
C401 C400 1.347 . S
H402 C403 0.951 . S
C403 H402 0.951 . S
C403 C409 1.265 . S
H404 C409 0.950 . S
H405 C413 0.949 . S
H406 C414 0.950 . S
H407 C415 0.951 . S
H408 C416 0.951 . S
C409 C403 1.265 . S
C409 H404 0.950 . S
C409 C410 1.478 . S
C410 C409 1.478 . S
C410 C411 1.397 . S
C410 C427 1.394 . S
C411 C410 1.397 . S
C411 C412 1.438 . S
C411 C416 1.429 1_554 S
C412 C411 1.438 . S
C412 C413 1.428 1_554 S
C412 C425 1.394 . S
C413 H405 0.949 . S
C413 C412 1.428 1_556 S
C413 C414 1.345 . S
C414 H406 0.950 . S
C414 C413 1.345 . S
C414 C415 1.424 . S
C415 H407 0.951 . S
C415 C414 1.424 . S
C415 C416 1.347 . S
C416 H408 0.951 . S
C416 C411 1.429 1_556 S
C416 C415 1.347 . S
H417 C418 0.951 . S
C418 H417 0.951 . S
C418 C424 1.265 . S
H419 C424 0.950 . S
H420 C428 0.949 . S
H421 C429 0.950 . S
H422 C430 0.951 . S
H423 C431 0.951 . S
C424 C418 1.265 . S
C424 H419 0.950 . S
C424 C425 1.478 . S
C425 C412 1.394 . S
C425 C424 1.478 . S
C425 C426 1.397 . S
C426 C425 1.397 . S
C426 C427 1.438 . S
C426 C431 1.429 . S
C427 C410 1.394 . S
C427 C426 1.438 . S
C427 C428 1.428 . S
C428 H420 0.949 . S
C428 C427 1.428 . S
C428 C429 1.345 . S
C429 H421 0.950 . S
C429 C428 1.345 . S
C429 C430 1.424 . S
C430 H422 0.951 . S
C430 C429 1.424 . S
C430 C431 1.347 . S
C431 H423 0.951 . S
C431 C426 1.429 . S
C431 C430 1.347 . S
C133 N2 1.397 . S
C148 N13 1.401 . S
C163 N35 1.423 . S
C178 N46 1.426 . S
C193 N79 1.483 . S
C208 N68 1.482 . S
C223 N112 1.431 . S
C238 N101 1.428 . S
C253 C84 1.080 . S
C268 C18 1.080 . S
C283 C117 1.073 . S
C298 C51 1.075 . S
C313 C40 1.457 . S
C328 C21 1.422 . S
C343 C87 1.210 . S
C358 C54 1.259 . S
C373 C120 1.457 . S
C388 C73 1.395 . S
C403 C106 1.649 . S
C418 C7 1.692 . S
