# Generated by pormake.
# Topology can, (4)-cn, num edge types: 1
# Building blocks:
#     Node 0, Type 0, BuildingBlock: UXUYUI_clean_sbu_0, # of connection points: 4
#     Node 1, Type 0, BuildingBlock: UXUYUI_clean_sbu_0, # of connection points: 4
#     Node 2, Type 0, BuildingBlock: UXUYUI_clean_sbu_0, # of connection points: 4
#     Node 3, Type 0, BuildingBlock: UXUYUI_clean_sbu_0, # of connection points: 4
#     Node 4, Type 0, BuildingBlock: UXUYUI_clean_sbu_0, # of connection points: 4
#     Node 5, Type 0, BuildingBlock: UXUYUI_clean_sbu_0, # of connection points: 4
#     Node 6, Type 0, BuildingBlock: UXUYUI_clean_sbu_0, # of connection points: 4
#     Node 7, Type 0, BuildingBlock: UXUYUI_clean_sbu_0, # of connection points: 4
#     Node 8, Type 0, BuildingBlock: UXUYUI_clean_sbu_0, # of connection points: 4
#     Node 9, Type 0, BuildingBlock: UXUYUI_clean_sbu_0, # of connection points: 4
#     Node 10, Type 0, BuildingBlock: UXUYUI_clean_sbu_0, # of connection points: 4
#     Node 11, Type 0, BuildingBlock: UXUYUI_clean_sbu_0, # of connection points: 4
#     Edge 12, Type (0, 0), BuildingBlock: XIVTED_clean_linker_0, # of connection points: 2
#     Edge 13, Type (0, 0), BuildingBlock: XIVTED_clean_linker_0, # of connection points: 2
#     Edge 14, Type (0, 0), BuildingBlock: XIVTED_clean_linker_0, # of connection points: 2
#     Edge 15, Type (0, 0), BuildingBlock: XIVTED_clean_linker_0, # of connection points: 2
#     Edge 16, Type (0, 0), BuildingBlock: XIVTED_clean_linker_0, # of connection points: 2
#     Edge 17, Type (0, 0), BuildingBlock: XIVTED_clean_linker_0, # of connection points: 2
#     Edge 18, Type (0, 0), BuildingBlock: XIVTED_clean_linker_0, # of connection points: 2
#     Edge 19, Type (0, 0), BuildingBlock: XIVTED_clean_linker_0, # of connection points: 2
#     Edge 20, Type (0, 0), BuildingBlock: XIVTED_clean_linker_0, # of connection points: 2
#     Edge 21, Type (0, 0), BuildingBlock: XIVTED_clean_linker_0, # of connection points: 2
#     Edge 22, Type (0, 0), BuildingBlock: XIVTED_clean_linker_0, # of connection points: 2
#     Edge 23, Type (0, 0), BuildingBlock: XIVTED_clean_linker_0, # of connection points: 2
#     Edge 24, Type (0, 0), BuildingBlock: XIVTED_clean_linker_0, # of connection points: 2
#     Edge 25, Type (0, 0), BuildingBlock: XIVTED_clean_linker_0, # of connection points: 2
#     Edge 26, Type (0, 0), BuildingBlock: XIVTED_clean_linker_0, # of connection points: 2
#     Edge 27, Type (0, 0), BuildingBlock: XIVTED_clean_linker_0, # of connection points: 2
#     Edge 28, Type (0, 0), BuildingBlock: XIVTED_clean_linker_0, # of connection points: 2
#     Edge 29, Type (0, 0), BuildingBlock: XIVTED_clean_linker_0, # of connection points: 2
#     Edge 30, Type (0, 0), BuildingBlock: XIVTED_clean_linker_0, # of connection points: 2
#     Edge 31, Type (0, 0), BuildingBlock: XIVTED_clean_linker_0, # of connection points: 2
#     Edge 32, Type (0, 0), BuildingBlock: XIVTED_clean_linker_0, # of connection points: 2
#     Edge 33, Type (0, 0), BuildingBlock: XIVTED_clean_linker_0, # of connection points: 2
#     Edge 34, Type (0, 0), BuildingBlock: XIVTED_clean_linker_0, # of connection points: 2
#     Edge 35, Type (0, 0), BuildingBlock: XIVTED_clean_linker_0, # of connection points: 2
# Relax obj value: 0.136
# Max RMSD: 0.111
# Mean RMSD: 0.111
data_MOF--net-can--node1-UXUYUI_clean_sbu_0--edge1-XIVTED_clean_linker_0
_symmetry_space_group_name_H-M    P1
_symmetry_Int_Tables_number       1
_symmetry_cell_setting            triclinic
loop_
_symmetry_equiv_pos_as_xyz
'x, y, z'
_cell_length_a     86.639088
_cell_length_b     86.5977
_cell_length_c     37.916309
_cell_angle_alpha  89.985582
_cell_angle_beta   90.003413
_cell_angle_gamma 119.99911
loop_
_atom_site_label
_atom_site_type_symbol
_atom_site_fract_x
_atom_site_fract_y
_atom_site_fract_z
_atom_type_partial_charge
Li0 Li 0.08048 0.43139 0.24827 0.0
Li1 Li 0.0657 0.40187 0.28222 0.0
Li2 Li 0.09263 0.41146 0.2489 0.0
Li3 Li 0.06562 0.40226 0.21813 0.0
C4 C 0.10437 0.4283 0.30823 0.0
N5 N 0.13549 0.43647 0.34326 0.0
C6 C 0.10453 0.41641 0.33294 0.0
C7 C 0.11998 0.4444 0.30149 0.0
C8 C 0.12042 0.42077 0.35034 0.0
C9 C 0.1356 0.44828 0.31944 0.0
C10 C 0.03797 0.40483 0.23793 0.0
C11 C 0.00874 0.37919 0.23 0.0
N12 N 0.00417 0.3891 0.20927 0.0
C13 C 0.03298 0.41479 0.21669 0.0
C14 C 0.02577 0.38691 0.24478 0.0
C15 C 0.01582 0.40658 0.2024 0.0
C16 C 0.0799 0.46068 0.21821 0.0
N17 N 0.08451 0.45492 0.24753 0.0
C18 C 0.09406 0.48275 0.27638 0.0
C19 C 0.09153 0.46551 0.2763 0.0
C20 C 0.08914 0.48905 0.24669 0.0
C21 C 0.08206 0.47776 0.21723 0.0
H22 H 0.07435 0.45189 0.19573 0.0
H23 H 0.09503 0.46052 0.29928 0.0
C24 C 0.05309 0.37774 0.34046 0.0
N25 N 0.05265 0.39139 0.32369 0.0
C26 C 0.04407 0.37128 0.37245 0.0
C27 C 0.03407 0.39278 0.36848 0.0
C28 C 0.04328 0.39882 0.33677 0.0
C29 C 0.03461 0.37902 0.38708 0.0
H30 H 0.06075 0.37217 0.32938 0.0
H31 H 0.0432 0.40965 0.32272 0.0
C32 C 0.10145 0.43374 0.18436 0.0
N33 N 0.12683 0.45509 0.13536 0.0
C34 C 0.10175 0.427 0.15102 0.0
C35 C 0.11389 0.45143 0.19256 0.0
C36 C 0.11474 0.43798 0.12668 0.0
C37 C 0.12667 0.46199 0.1675 0.0
C38 C 0.07307 0.37503 0.23078 0.0
C39 C 0.08338 0.38031 0.2001 0.0
C40 C 0.06496 0.35727 0.24174 0.0
C41 C 0.08538 0.36769 0.18079 0.0
C42 C 0.06727 0.34503 0.2217 0.0
N43 N 0.07735 0.35045 0.19189 0.0
C44 C 0.11443 0.39678 0.26545 0.0
C45 C 0.12971 0.42448 0.23568 0.0
C46 C 0.12994 0.39566 0.26679 0.0
N47 N 0.11452 0.41093 0.24965 0.0
C48 C 0.14553 0.42395 0.2365 0.0
C49 C 0.14576 0.40934 0.25197 0.0
H50 H 0.10229 0.38635 0.27716 0.0
H51 H 0.12972 0.43588 0.22442 0.0
C52 C 0.05263 0.40331 0.15216 0.0
N53 N 0.05209 0.39166 0.17676 0.0
C54 C 0.04306 0.39709 0.12087 0.0
C55 C 0.03264 0.36691 0.14056 0.0
C56 C 0.04223 0.37375 0.17181 0.0
C57 C 0.03299 0.37865 0.11447 0.0
H58 H 0.0604 0.4175 0.15712 0.0
H59 H 0.04177 0.36475 0.19206 0.0
O60 O 0.0891 0.42399 0.29013 0.0
O61 O 0.05488 0.41241 0.25117 0.0
O62 O 0.08853 0.4233 0.20818 0.0
O63 O 0.07083 0.3871 0.25017 0.0
H64 H 0.09257 0.40385 0.33829 0.0
H65 H 0.1201 0.45369 0.28226 0.0
H66 H 0.12078 0.41165 0.36936 0.0
H67 H 0.14781 0.46063 0.31432 0.0
H68 H -0.00082 0.3653 0.23488 0.0
H69 H 0.0423 0.42866 0.21105 0.0
H70 H 0.0295 0.37899 0.26093 0.0
H71 H 0.01179 0.41409 0.18576 0.0
H72 H 0.09982 0.49103 0.29948 0.0
H73 H 0.07783 0.48189 0.19396 0.0
H74 H 0.04493 0.36074 0.38606 0.0
H75 H 0.02668 0.3989 0.37841 0.0
H76 H 0.092 0.41346 0.1439 0.0
H77 H 0.11386 0.45691 0.21816 0.0
H78 H 0.11516 0.43292 0.10084 0.0
H79 H 0.13645 0.47565 0.17361 0.0
H80 H 0.08985 0.39399 0.1914 0.0
H81 H 0.05693 0.35298 0.26546 0.0
H82 H 0.09335 0.3716 0.157 0.0
H83 H 0.06105 0.33123 0.22984 0.0
H84 H 0.12948 0.38411 0.27889 0.0
H85 H 0.15751 0.43502 0.22556 0.0
H86 H 0.0434 0.4067 0.10215 0.0
H87 H 0.02522 0.35261 0.13682 0.0
Li88 Li 0.64831 0.07504 0.75307 0.0
Li89 Li 0.66468 0.06168 0.78099 0.0
Li90 Li 0.68125 0.08981 0.75042 0.0
Li91 Li 0.66321 0.06308 0.71897 0.0
C92 C 0.66205 0.08345 0.82748 0.0
N93 N 0.65451 0.07935 0.89881 0.0
C94 C 0.64545 0.07001 0.83944 0.0
C95 C 0.67477 0.09489 0.85178 0.0
C96 C 0.64191 0.06812 0.87561 0.0
C97 C 0.6707 0.09259 0.88774 0.0
C98 C 0.63424 0.03386 0.73546 0.0
C99 C 0.63237 0.00598 0.71967 0.0
N100 N 0.61776 0.00177 0.69965 0.0
C101 C 0.61915 0.0292 0.71491 0.0
C102 C 0.64088 0.02213 0.73799 0.0
C103 C 0.61103 0.01294 0.69694 0.0
C104 C 0.61734 0.07372 0.72736 0.0
N105 N 0.6287 0.07911 0.75524 0.0
C106 C 0.61206 0.09055 0.78438 0.0
C107 C 0.62656 0.08771 0.78315 0.0
C108 C 0.59978 0.08465 0.75643 0.0
C109 C 0.60266 0.07628 0.72747 0.0
H110 H 0.61973 0.06748 0.70497 0.0
H111 H 0.63616 0.09253 0.80435 0.0
C112 C 0.67907 0.05682 0.84398 0.0
N113 N 0.66494 0.04892 0.82158 0.0
C114 C 0.67858 0.04886 0.87633 0.0
C115 C 0.64948 0.02435 0.86096 0.0
C116 C 0.65033 0.03297 0.82936 0.0
C117 C 0.66358 0.03247 0.88509 0.0
H118 H 0.69039 0.06964 0.83727 0.0
H119 H 0.63905 0.02726 0.81166 0.0
C120 C 0.6642 0.10148 0.70344 0.0
N121 N 0.6644 0.13267 0.68687 0.0
C122 C 0.66261 0.10545 0.66837 0.0
C123 C 0.66587 0.11339 0.73012 0.0
C124 C 0.66275 0.12129 0.66052 0.0
C125 C 0.66594 0.12907 0.72119 0.0
C126 C 0.69892 0.07295 0.72657 0.0
C127 C 0.70104 0.08182 0.69455 0.0
C128 C 0.71167 0.0685 0.73705 0.0
C129 C 0.71588 0.08608 0.67356 0.0
C130 C 0.72633 0.07298 0.7153 0.0
N131 N 0.72812 0.0816 0.68427 0.0
C132 C 0.71358 0.11628 0.77943 0.0
C133 C 0.70834 0.12259 0.72125 0.0
C134 C 0.7299 0.13219 0.7805 0.0
N135 N 0.7031 0.11193 0.75029 0.0
C136 C 0.72447 0.13864 0.72125 0.0
C137 C 0.73545 0.14366 0.75119 0.0
H138 H 0.70933 0.10729 0.8017 0.0
H139 H 0.70017 0.11855 0.69783 0.0
C140 C 0.65244 0.05377 0.64902 0.0
N141 N 0.66116 0.05097 0.67581 0.0
C142 C 0.65031 0.04528 0.61666 0.0
C143 C 0.66596 0.03098 0.64024 0.0
C144 C 0.66799 0.03993 0.67205 0.0
C145 C 0.65707 0.03369 0.61204 0.0
H146 H 0.64703 0.0625 0.65296 0.0
H147 H 0.67485 0.03794 0.69387 0.0
O148 O 0.66597 0.08507 0.79223 0.0
O149 O 0.64264 0.0499 0.75266 0.0
O150 O 0.66392 0.08591 0.71131 0.0
O151 O 0.68456 0.06866 0.74783 0.0
H152 H 0.63549 0.06097 0.82097 0.0
H153 H 0.68764 0.10542 0.84302 0.0
H154 H 0.62917 0.0577 0.88523 0.0
H155 H 0.68043 0.10131 0.90685 0.0
H156 H 0.63745 0.99685 0.72117 0.0
H157 H 0.61376 0.03803 0.7128 0.0
H158 H 0.65269 0.02562 0.75342 0.0
H159 H 0.59938 0.0092 0.68082 0.0
H160 H 0.6106 0.09745 0.80682 0.0
H161 H 0.59353 0.07148 0.70536 0.0
H162 H 0.68964 0.05552 0.89451 0.0
H163 H 0.63757 0.01186 0.8672 0.0
H164 H 0.6613 0.0964 0.6474 0.0
H165 H 0.66714 0.11063 0.75741 0.0
H166 H 0.66154 0.12453 0.63348 0.0
H167 H 0.66724 0.13839 0.74155 0.0
H168 H 0.69134 0.08538 0.68589 0.0
H169 H 0.71023 0.06164 0.76178 0.0
H170 H 0.71768 0.09293 0.64873 0.0
H171 H 0.7363 0.0696 0.72309 0.0
H172 H 0.738 0.13556 0.8041 0.0
H173 H 0.72845 0.14689 0.69779 0.0
H174 H 0.64316 0.04752 0.59569 0.0
H175 H 0.67143 0.0222 0.63759 0.0
Li176 Li 0.59857 0.66465 0.28359 0.0
Li177 Li 0.56953 0.65215 0.25246 0.0
Li178 Li 0.59748 0.66682 0.21939 0.0
Li179 Li 0.58834 0.68392 0.25425 0.0
C180 C 0.58935 0.63319 0.22755 0.0
N181 N 0.59285 0.61065 0.18079 0.0
C182 C 0.57478 0.62112 0.20733 0.0
C183 C 0.60566 0.63369 0.22416 0.0
C184 C 0.57683 0.60984 0.18382 0.0
C185 C 0.60718 0.62223 0.2003 0.0
C186 C 0.56332 0.65904 0.3168 0.0
C187 C 0.53298 0.65027 0.33201 0.0
N188 N 0.53369 0.64041 0.35922 0.0
C189 C 0.56376 0.64886 0.345 0.0
C190 C 0.54784 0.65983 0.31033 0.0
C191 C 0.54863 0.63953 0.36612 0.0
C192 C 0.61493 0.67277 0.35105 0.0
N193 N 0.60958 0.66115 0.32358 0.0
C194 C 0.61725 0.64204 0.35493 0.0
C195 C 0.61072 0.64608 0.32485 0.0
C196 C 0.62235 0.65343 0.38434 0.0
C197 C 0.62137 0.66914 0.38192 0.0
H198 H 0.61364 0.68454 0.34937 0.0
H199 H 0.60621 0.63701 0.30272 0.0
C200 C 0.53349 0.63154 0.22983 0.0
N201 N 0.54586 0.63249 0.25312 0.0
C202 C 0.51635 0.61666 0.22959 0.0
C203 C 0.52503 0.60414 0.27744 0.0
C204 C 0.54202 0.61915 0.27649 0.0
C205 C 0.51197 0.60272 0.25363 0.0
H206 H 0.537 0.64219 0.21109 0.0
H207 H 0.55228 0.62009 0.2941 0.0
C208 C 0.63034 0.69331 0.24831 0.0
N209 N 0.66667 0.70797 0.23907 0.0
C210 C 0.64044 0.7103 0.2336 0.0
C211 C 0.63877 0.68383 0.25852 0.0
C212 C 0.65878 0.71746 0.22906 0.0
C213 C 0.65713 0.69145 0.2536 0.0
C214 C 0.57195 0.67974 0.19399 0.0
C215 C 0.58269 0.68956 0.16562 0.0
C216 C 0.55738 0.6816 0.20358 0.0
C217 C 0.57873 0.70118 0.14744 0.0
C218 C 0.5539 0.6934 0.18479 0.0
N219 N 0.56455 0.70287 0.15735 0.0
C220 C 0.59439 0.65501 0.15092 0.0
C221 C 0.62472 0.67159 0.16794 0.0
C222 C 0.59906 0.65093 0.11854 0.0
N223 N 0.60712 0.6649 0.17513 0.0
C224 C 0.63003 0.66799 0.13562 0.0
C225 C 0.61707 0.65728 0.11073 0.0
H226 H 0.58049 0.64989 0.15721 0.0
H227 H 0.63469 0.67934 0.18732 0.0
C228 C 0.57887 0.70866 0.28145 0.0
N229 N 0.58881 0.70608 0.25693 0.0
C230 C 0.57853 0.72461 0.2821 0.0
C231 C 0.59892 0.73505 0.23273 0.0
C232 C 0.59889 0.71893 0.23309 0.0
C233 C 0.58854 0.73801 0.25731 0.0
H234 H 0.57108 0.69827 0.30026 0.0
H235 H 0.60666 0.71652 0.21392 0.0
O236 O 0.58776 0.64473 0.24993 0.0
O237 O 0.57788 0.66801 0.29542 0.0
O238 O 0.61241 0.68623 0.25338 0.0
O239 O 0.5758 0.66853 0.21255 0.0
H240 H 0.5621 0.62062 0.20928 0.0
H241 H 0.61711 0.64298 0.23941 0.0
H242 H 0.56569 0.60053 0.16785 0.0
H243 H 0.61976 0.62258 0.19723 0.0
H244 H 0.52088 0.65066 0.32713 0.0
H245 H 0.57557 0.64802 0.35035 0.0
H246 H 0.54721 0.66753 0.28849 0.0
H247 H 0.54876 0.63154 0.38793 0.0
H248 H 0.61807 0.62996 0.35523 0.0
H249 H 0.62492 0.6782 0.40402 0.0
H250 H 0.50664 0.61607 0.21084 0.0
H251 H 0.52229 0.59354 0.29595 0.0
H252 H 0.63422 0.71791 0.22578 0.0
H253 H 0.63124 0.67066 0.26971 0.0
H254 H 0.66673 0.73058 0.21764 0.0
H255 H 0.66379 0.68422 0.26124 0.0
H256 H 0.59411 0.68842 0.15801 0.0
H257 H 0.54899 0.67419 0.22558 0.0
H258 H 0.58698 0.70894 0.12556 0.0
H259 H 0.54275 0.69507 0.1921 0.0
H260 H 0.58867 0.64278 0.09988 0.0
H261 H 0.64405 0.67303 0.13063 0.0
H262 H 0.57023 0.72626 0.30134 0.0
H263 H 0.60705 0.7451 0.21349 0.0
Li264 Li 0.9176 0.56743 0.74079 0.0
Li265 Li 0.93102 0.59517 0.77724 0.0
Li266 Li 0.90426 0.5873 0.74234 0.0
Li267 Li 0.9322 0.59748 0.71519 0.0
C268 C 0.89289 0.56971 0.80216 0.0
N269 N 0.86322 0.56321 0.84089 0.0
C270 C 0.89448 0.58101 0.82997 0.0
C271 C 0.87622 0.55511 0.79405 0.0
C272 C 0.87932 0.57748 0.84927 0.0
C273 C 0.86137 0.55206 0.81393 0.0
C274 C 0.95705 0.58855 0.76332 0.0
C275 C 0.98638 0.60745 0.78747 0.0
N276 N 0.98542 0.59311 0.80424 0.0
C277 C 0.95639 0.57397 0.78059 0.0
C278 C 0.97221 0.60541 0.76656 0.0
C279 C 0.97086 0.57656 0.80122 0.0
C280 C 0.92368 0.54049 0.71531 0.0
N281 N 0.91366 0.54388 0.73815 0.0
C282 C 0.89962 0.514 0.75988 0.0
C283 C 0.9018 0.5311 0.76028 0.0
C284 C 0.90983 0.51007 0.73663 0.0
C285 C 0.92193 0.52357 0.714 0.0
H286 H 0.93338 0.55106 0.69877 0.0
H287 H 0.89428 0.53427 0.77868 0.0
C288 C 0.95001 0.62176 0.82947 0.0
N289 N 0.94257 0.60421 0.82112 0.0
C290 C 0.95835 0.62799 0.86209 0.0
C291 C 0.95117 0.59794 0.87671 0.0
C292 C 0.94281 0.59229 0.84407 0.0
C293 C 0.95906 0.61602 0.88624 0.0
H294 H 0.94933 0.63089 0.81096 0.0
H295 H 0.93653 0.57836 0.83687 0.0
C296 C 0.90856 0.57771 0.66586 0.0
N297 N 0.90907 0.58172 0.59349 0.0
C298 C 0.89968 0.58573 0.65031 0.0
C299 C 0.91758 0.57162 0.64459 0.0
C300 C 0.9001 0.58763 0.61367 0.0
C301 C 0.91774 0.57383 0.60806 0.0
C302 C 0.93264 0.62723 0.7335 0.0
C303 C 0.92156 0.63228 0.71635 0.0
C304 C 0.951 0.63908 0.73485 0.0
C305 C 0.92909 0.64907 0.70049 0.0
C306 C 0.95802 0.65573 0.7186 0.0
N307 N 0.94701 0.66033 0.7019 0.0
C308 C 0.88073 0.59904 0.76321 0.0
C309 C 0.86833 0.57467 0.72338 0.0
C310 C 0.86466 0.59906 0.76463 0.0
N311 N 0.88226 0.58702 0.74268 0.0
C312 C 0.85203 0.57426 0.72385 0.0
C313 C 0.85006 0.5866 0.74464 0.0
H314 H 0.89204 0.60861 0.77849 0.0
H315 H 0.86989 0.56508 0.70777 0.0
C316 C 0.9617 0.60921 0.66988 0.0
N317 N 0.9468 0.61033 0.6756 0.0
C318 C 0.97201 0.61676 0.63974 0.0
C319 C 0.95158 0.62668 0.62201 0.0
C320 C 0.94173 0.61902 0.65258 0.0
C321 C 0.96682 0.6254 0.61507 0.0
H322 H 0.96529 0.60197 0.68817 0.0
H323 H 0.92973 0.61956 0.65728 0.0
O324 O 0.90747 0.57328 0.78222 0.0
O325 O 0.9429 0.58638 0.74353 0.0
O326 O 0.9085 0.57594 0.70172 0.0
O327 O 0.92551 0.61088 0.74929 0.0
H328 H 0.90723 0.5925 0.83636 0.0
H329 H 0.87468 0.54643 0.77216 0.0
H330 H 0.88034 0.58614 0.87078 0.0
H331 H 0.84837 0.54088 0.80778 0.0
H332 H 0.99815 0.62044 0.79039 0.0
H333 H 0.94475 0.56085 0.77852 0.0
H334 H 0.97297 0.61681 0.75322 0.0
H335 H 0.97048 0.56542 0.81493 0.0
H336 H 0.89007 0.50398 0.77764 0.0
H337 H 0.93034 0.52127 0.6962 0.0
H338 H 0.96395 0.64197 0.86845 0.0
H339 H 0.95158 0.58823 0.89407 0.0
H340 H 0.89282 0.59074 0.66636 0.0
H341 H 0.92459 0.56547 0.65618 0.0
H342 H 0.89339 0.59392 0.6013 0.0
H343 H 0.9248 0.56931 0.59131 0.0
H344 H 0.90734 0.62326 0.7149 0.0
H345 H 0.95975 0.6354 0.74808 0.0
H346 H 0.92069 0.65311 0.68695 0.0
H347 H 0.97221 0.66498 0.71926 0.0
H348 H 0.86374 0.60889 0.78078 0.0
H349 H 0.84102 0.56426 0.70849 0.0
H350 H 0.98352 0.61525 0.63514 0.0
H351 H 0.94719 0.63332 0.60378 0.0
Li352 Li 0.3313 0.93438 0.2796 0.0
Li353 Li 0.34744 0.92217 0.2485 0.0
Li354 Li 0.33281 0.93724 0.21658 0.0
Li355 Li 0.3146 0.90749 0.2421 0.0
C356 C 0.36331 0.96178 0.27103 0.0
N357 N 0.38307 0.99028 0.31537 0.0
C358 C 0.37616 0.96171 0.29319 0.0
C359 C 0.36063 0.97641 0.2711 0.0
C360 C 0.38599 0.97624 0.31549 0.0
C361 C 0.37071 0.99067 0.29381 0.0
C362 C 0.32684 0.89495 0.29914 0.0
C363 C 0.32243 0.86539 0.29104 0.0
N364 N 0.3225 0.86347 0.32663 0.0
C365 C 0.32674 0.89265 0.33564 0.0
C366 C 0.32458 0.8812 0.27665 0.0
C367 C 0.32459 0.87665 0.34902 0.0
C368 C 0.32284 0.95432 0.32867 0.0
N369 N 0.33157 0.94514 0.32331 0.0
C370 C 0.34315 0.95138 0.3819 0.0
C371 C 0.3415 0.94346 0.34912 0.0
C372 C 0.33441 0.96108 0.38832 0.0
C373 C 0.32412 0.9625 0.36119 0.0
H374 H 0.31496 0.95537 0.30772 0.0
H375 H 0.34841 0.93619 0.34392 0.0
C376 C 0.37838 0.92421 0.2208 0.0
N377 N 0.3677 0.9192 0.24972 0.0
C378 C 0.39377 0.92286 0.22061 0.0
C379 C 0.38696 0.91137 0.28014 0.0
C380 C 0.37173 0.91299 0.27919 0.0
C381 C 0.39827 0.91639 0.25061 0.0
H382 H 0.37496 0.92937 0.19795 0.0
H383 H 0.36328 0.90951 0.30217 0.0
C384 C 0.30095 0.93433 0.23154 0.0
N385 N 0.28022 0.94619 0.19913 0.0
C386 C 0.28499 0.9222 0.21502 0.0
C387 C 0.30629 0.95246 0.23182 0.0
C388 C 0.27471 0.92847 0.19874 0.0
C389 C 0.29565 0.9582 0.21519 0.0
C390 C 0.33171 0.90436 0.17692 0.0
C391 C 0.32339 0.90484 0.14567 0.0
C392 C 0.33891 0.8931 0.17929 0.0
C393 C 0.32229 0.89397 0.11745 0.0
C394 C 0.33753 0.88242 0.1505 0.0
N395 N 0.32932 0.88307 0.12044 0.0
C396 C 0.35124 0.96676 0.17143 0.0
C397 C 0.3215 0.9468 0.15395 0.0
C398 C 0.35401 0.97717 0.14139 0.0
N399 N 0.33523 0.95182 0.17696 0.0
C400 C 0.32363 0.95685 0.12374 0.0
C401 C 0.34014 0.97213 0.11681 0.0
H402 H 0.36201 0.97034 0.18991 0.0
H403 H 0.30897 0.93476 0.15861 0.0
C404 C 0.28137 0.88115 0.26553 0.0
N405 N 0.29307 0.88524 0.23847 0.0
C406 C 0.26508 0.86522 0.26519 0.0
C407 C 0.27327 0.85792 0.2093 0.0
C408 C 0.28937 0.874 0.21068 0.0
C409 C 0.26086 0.85338 0.23675 0.0
H410 H 0.28473 0.89033 0.28735 0.0
H411 H 0.29879 0.87742 0.1895 0.0
O412 O 0.35323 0.94748 0.24971 0.0
O413 O 0.32894 0.91055 0.28567 0.0
O414 O 0.31118 0.92843 0.24756 0.0
O415 O 0.33304 0.91505 0.20476 0.0
H416 H 0.37838 0.95048 0.29347 0.0
H417 H 0.35077 0.97667 0.25399 0.0
H418 H 0.3959 0.97633 0.33297 0.0
H419 H 0.3687 0.00203 0.29434 0.0
H420 H 0.32065 0.85464 0.27391 0.0
H421 H 0.32834 0.9031 0.35345 0.0
H422 H 0.32431 0.88265 0.24844 0.0
H423 H 0.32456 0.87471 0.37721 0.0
H424 H 0.3515 0.95022 0.40175 0.0
H425 H 0.31706 0.96974 0.36513 0.0
H426 H 0.40225 0.92721 0.1975 0.0
H427 H 0.3898 0.9062 0.30374 0.0
H428 H 0.28065 0.90811 0.21458 0.0
H429 H 0.31863 0.96203 0.24436 0.0
H430 H 0.26237 0.91925 0.18574 0.0
H431 H 0.29969 0.97221 0.21499 0.0
H432 H 0.31767 0.91336 0.14329 0.0
H433 H 0.34552 0.89257 0.20304 0.0
H434 H 0.31583 0.89417 0.09319 0.0
H435 H 0.34302 0.87363 0.15206 0.0
H436 H 0.36705 0.98868 0.13691 0.0
H437 H 0.31249 0.95256 0.10582 0.0
H438 H 0.25598 0.86213 0.28711 0.0
H439 H 0.27046 0.84927 0.1867 0.0
Li440 Li 0.42507 0.3464 0.75621 0.0
Li441 Li 0.3956 0.33161 0.78178 0.0
Li442 Li 0.40621 0.31396 0.75152 0.0
Li443 Li 0.39826 0.33325 0.71803 0.0
C444 C 0.42962 0.327 0.81019 0.0
N445 N 0.4572 0.32423 0.84025 0.0
C446 C 0.43241 0.32892 0.84661 0.0
C447 C 0.44084 0.32364 0.78908 0.0
C448 C 0.44643 0.32749 0.86131 0.0
C449 C 0.4547 0.32228 0.80476 0.0
C450 C 0.41121 0.36826 0.77195 0.0
C451 C 0.41363 0.39702 0.77997 0.0
N452 N 0.42075 0.39822 0.81252 0.0
C453 C 0.41852 0.36977 0.80551 0.0
C454 C 0.40871 0.38198 0.75907 0.0
C455 C 0.42327 0.38502 0.8256 0.0
C456 C 0.45517 0.37595 0.72885 0.0
N457 N 0.44866 0.36616 0.75878 0.0
C458 C 0.47535 0.3858 0.79002 0.0
C459 C 0.45831 0.37083 0.78913 0.0
C460 C 0.48245 0.39621 0.75949 0.0
C461 C 0.47211 0.39107 0.72858 0.0
H462 H 0.44706 0.37207 0.70526 0.0
H463 H 0.45273 0.36313 0.81285 0.0
C464 C 0.38337 0.32536 0.85193 0.0
N465 N 0.38227 0.33245 0.82072 0.0
C466 C 0.37571 0.3278 0.88229 0.0
C467 C 0.3652 0.34405 0.84734 0.0
C468 C 0.37322 0.34145 0.8178 0.0
C469 C 0.36676 0.33757 0.88038 0.0
H470 H 0.39076 0.31836 0.85348 0.0
H471 H 0.37275 0.34718 0.79278 0.0
C472 C 0.42899 0.32903 0.68738 0.0
N473 N 0.44746 0.32457 0.63257 0.0
C474 C 0.4202 0.32078 0.65609 0.0
C475 C 0.44725 0.33523 0.69057 0.0
C476 C 0.42974 0.31858 0.62876 0.0
C477 C 0.45633 0.33279 0.66263 0.0
C478 C 0.3649 0.30752 0.74586 0.0
C479 C 0.3515 0.28994 0.752 0.0
C480 C 0.3603 0.32052 0.73845 0.0
C481 C 0.33367 0.28565 0.75063 0.0
C482 C 0.34233 0.31571 0.73732 0.0
N483 N 0.3295 0.29851 0.74338 0.0
C484 C 0.40484 0.28348 0.78164 0.0
C485 C 0.40519 0.28396 0.71917 0.0
C486 C 0.40451 0.2672 0.78187 0.0
N487 N 0.40547 0.29163 0.75059 0.0
C488 C 0.40484 0.26769 0.71813 0.0
C489 C 0.40461 0.25914 0.74978 0.0
H490 H 0.40468 0.28968 0.80629 0.0
H491 H 0.40506 0.29037 0.69488 0.0
C492 C 0.39524 0.35319 0.66343 0.0
N493 N 0.3892 0.33624 0.67474 0.0
C494 C 0.389 0.3563 0.63185 0.0
C495 C 0.37062 0.32442 0.62391 0.0
C496 C 0.3771 0.32192 0.65587 0.0
C497 C 0.37654 0.3418 0.61165 0.0
H498 H 0.40495 0.36427 0.67897 0.0
H499 H 0.37255 0.30859 0.66564 0.0
O500 O 0.41604 0.32856 0.79548 0.0
O501 O 0.40633 0.35342 0.75178 0.0
O502 O 0.41992 0.33159 0.7142 0.0
O503 O 0.38239 0.31186 0.74716 0.0
H504 H 0.42391 0.33162 0.86333 0.0
H505 H 0.43875 0.32192 0.76099 0.0
H506 H 0.44878 0.329 0.88945 0.0
H507 H 0.46345 0.31965 0.78871 0.0
H508 H 0.41177 0.40774 0.77033 0.0
H509 H 0.42045 0.35927 0.81609 0.0
H510 H 0.40298 0.38098 0.73323 0.0
H511 H 0.42893 0.38635 0.85161 0.0
H512 H 0.48286 0.38915 0.81438 0.0
H513 H 0.47686 0.39885 0.70461 0.0
H514 H 0.37747 0.32275 0.90718 0.0
H515 H 0.35821 0.35141 0.8444 0.0
H516 H 0.40611 0.31594 0.65306 0.0
H517 H 0.4544 0.34195 0.71427 0.0
H518 H 0.42306 0.31211 0.60451 0.0
H519 H 0.47044 0.33749 0.66481 0.0
H520 H 0.35485 0.27972 0.75777 0.0
H521 H 0.37049 0.33421 0.73377 0.0
H522 H 0.32316 0.27209 0.75533 0.0
H523 H 0.33859 0.32564 0.73166 0.0
H524 H 0.40441 0.26114 0.8069 0.0
H525 H 0.40451 0.26175 0.6928 0.0
H526 H 0.39406 0.3699 0.62308 0.0
H527 H 0.36093 0.31291 0.6092 0.0
Li528 Li 0.59944 0.93624 0.27909 0.0
Li529 Li 0.58838 0.90788 0.24834 0.0
Li530 Li 0.59914 0.9357 0.21558 0.0
Li531 Li 0.57089 0.92224 0.24781 0.0
C532 C 0.6281 0.93407 0.26527 0.0
N533 N 0.65866 0.94481 0.30457 0.0
C534 C 0.63034 0.92157 0.28459 0.0
C535 C 0.64145 0.952 0.26572 0.0
C536 C 0.64588 0.92728 0.30432 0.0
C537 C 0.65678 0.95717 0.28584 0.0
C538 C 0.56341 0.90815 0.31046 0.0
C539 C 0.53251 0.88808 0.32447 0.0
N540 N 0.53361 0.89909 0.35113 0.0
C541 C 0.56426 0.91925 0.33804 0.0
C542 C 0.54743 0.8924 0.30366 0.0
C543 C 0.54904 0.91443 0.35831 0.0
C544 C 0.61387 0.96609 0.32419 0.0
N545 N 0.61126 0.94936 0.3202 0.0
C546 C 0.62326 0.95045 0.37749 0.0
C547 C 0.61571 0.94142 0.34605 0.0
C548 C 0.62594 0.9677 0.38261 0.0
C549 C 0.62123 0.97554 0.35527 0.0
H550 H 0.60974 0.97189 0.30368 0.0
H551 H 0.61306 0.92792 0.34252 0.0
C552 C 0.59844 0.88312 0.22624 0.0
N553 N 0.58791 0.88573 0.24918 0.0
C554 C 0.5984 0.86698 0.22611 0.0
C555 C 0.57695 0.85669 0.2737 0.0
C556 C 0.57736 0.87301 0.27282 0.0
C557 C 0.58755 0.85351 0.2501 0.0
H558 H 0.6069 0.89361 0.20811 0.0
H559 H 0.56931 0.87554 0.29105 0.0
C560 C 0.5939 0.96274 0.22998 0.0
N561 N 0.60204 0.99308 0.19185 0.0
C562 C 0.58045 0.9641 0.21239 0.0
C563 C 0.61147 0.97686 0.22839 0.0
C564 C 0.58484 0.97955 0.19323 0.0
C565 C 0.61532 0.99206 0.20889 0.0
C566 C 0.57355 0.89835 0.18609 0.0
C567 C 0.5846 0.90041 0.15747 0.0
C568 C 0.55921 0.88147 0.19406 0.0
C569 C 0.58116 0.8855 0.1374 0.0
C570 C 0.55625 0.86689 0.1734 0.0
N571 N 0.56719 0.86918 0.14574 0.0
C572 C 0.62824 0.95399 0.16803 0.0
C573 C 0.60092 0.95178 0.15051 0.0
C574 C 0.63665 0.96379 0.1377 0.0
N575 N 0.61074 0.94842 0.17394 0.0
C576 C 0.60888 0.96187 0.12038 0.0
C577 C 0.62696 0.96802 0.11383 0.0
H578 H 0.63565 0.95088 0.18688 0.0
H579 H 0.58692 0.94677 0.15548 0.0
C580 C 0.5448 0.9303 0.26952 0.0
N581 N 0.54765 0.91931 0.24836 0.0
C582 C 0.52807 0.92893 0.27067 0.0
C583 C 0.51749 0.90491 0.22826 0.0
C584 C 0.53447 0.90679 0.22787 0.0
C585 C 0.51413 0.91613 0.24979 0.0
H586 H 0.55562 0.94026 0.28526 0.0
H587 H 0.53714 0.8983 0.21115 0.0
O588 O 0.61289 0.92879 0.24616 0.0
O589 O 0.57804 0.91283 0.28977 0.0
O590 O 0.58993 0.9476 0.2484 0.0
O591 O 0.57691 0.91272 0.20647 0.0
H592 H 0.62012 0.90766 0.28467 0.0
H593 H 0.63993 0.96183 0.25092 0.0
H594 H 0.64776 0.91778 0.31954 0.0
H595 H 0.66718 0.97102 0.2866 0.0
H596 H 0.52002 0.87601 0.31932 0.0
H597 H 0.57646 0.93153 0.34357 0.0
H598 H 0.54647 0.88377 0.28213 0.0
H599 H 0.54949 0.92293 0.37965 0.0
H600 H 0.62678 0.9439 0.39766 0.0
H601 H 0.62262 0.98861 0.35826 0.0
H602 H 0.60699 0.8652 0.20784 0.0
H603 H 0.56829 0.84663 0.29243 0.0
H604 H 0.56681 0.95327 0.2131 0.0
H605 H 0.62205 0.97601 0.24175 0.0
H606 H 0.57458 0.98074 0.17933 0.0
H607 H 0.62888 0.00304 0.20722 0.0
H608 H 0.59579 0.91335 0.15099 0.0
H609 H 0.55066 0.8796 0.21635 0.0
H610 H 0.58964 0.88688 0.11526 0.0
H611 H 0.5453 0.85373 0.17945 0.0
H612 H 0.65062 0.96828 0.13326 0.0
H613 H 0.60096 0.96469 0.10217 0.0
H614 H 0.52621 0.93807 0.28718 0.0
H615 H 0.50711 0.89473 0.21203 0.0
Li616 Li 0.66239 0.59724 0.78411 0.0
Li617 Li 0.6803 0.58681 0.75338 0.0
Li618 Li 0.6626 0.59593 0.7197 0.0
Li619 Li 0.6491 0.56861 0.75516 0.0
C620 C 0.6977 0.62347 0.76871 0.0
N621 N 0.72792 0.64821 0.80409 0.0
C622 C 0.70364 0.6184 0.79848 0.0
C623 C 0.70716 0.6411 0.75692 0.0
C624 C 0.71895 0.6311 0.81598 0.0
C625 C 0.72239 0.65342 0.7752 0.0
C626 C 0.65761 0.56167 0.81639 0.0
C627 C 0.64911 0.53087 0.82598 0.0
N628 N 0.64052 0.53079 0.85606 0.0
C629 C 0.64888 0.56133 0.84763 0.0
C630 C 0.65791 0.54637 0.8057 0.0
C631 C 0.64027 0.54558 0.86724 0.0
C632 C 0.64197 0.59947 0.83729 0.0
N633 N 0.65869 0.60874 0.82369 0.0
C634 C 0.66717 0.63099 0.86851 0.0
C635 C 0.67113 0.62449 0.83813 0.0
C636 C 0.65016 0.6213 0.88386 0.0
C637 C 0.63738 0.60552 0.86734 0.0
H638 H 0.63224 0.5871 0.82507 0.0
H639 H 0.6842 0.63198 0.82658 0.0
C640 C 0.71516 0.59764 0.72966 0.0
N641 N 0.70249 0.58719 0.75349 0.0
C642 C 0.73141 0.59795 0.72857 0.0
C643 C 0.72149 0.5772 0.77738 0.0
C644 C 0.70539 0.57721 0.77736 0.0
C645 C 0.73471 0.58759 0.75261 0.0
H646 H 0.71259 0.6057 0.71142 0.0
H647 H 0.69524 0.56929 0.79645 0.0
C648 C 0.63443 0.59758 0.74978 0.0
N649 N 0.61954 0.61925 0.74552 0.0
C650 C 0.61593 0.59008 0.7491 0.0
C651 C 0.64538 0.61611 0.74832 0.0
C652 C 0.60865 0.60126 0.74693 0.0
C653 C 0.63759 0.62683 0.74616 0.0
C654 C 0.67521 0.57109 0.69187 0.0
C655 C 0.68376 0.5823 0.66318 0.0
C656 C 0.67828 0.55702 0.69917 0.0
C657 C 0.69541 0.57937 0.64252 0.0
C658 C 0.69006 0.55457 0.67794 0.0
N659 N 0.69832 0.56571 0.6503 0.0
C660 C 0.67288 0.62143 0.66373 0.0
C661 C 0.64369 0.59638 0.66144 0.0
C662 C 0.67014 0.6278 0.63179 0.0
N663 N 0.65974 0.60591 0.67758 0.0
C664 C 0.64034 0.60228 0.62973 0.0
C665 C 0.65372 0.61808 0.61419 0.0
H666 H 0.68554 0.62867 0.67718 0.0
H667 H 0.6335 0.58411 0.67325 0.0
C668 C 0.61542 0.54269 0.77881 0.0
N669 N 0.62906 0.54528 0.75735 0.0
C670 C 0.60011 0.52594 0.78101 0.0
C671 C 0.61327 0.51482 0.73911 0.0
C672 C 0.62829 0.53183 0.73761 0.0
C673 C 0.59885 0.51172 0.76088 0.0
H674 H 0.6164 0.55373 0.794 0.0
H675 H 0.63932 0.53431 0.72065 0.0
O676 O 0.68301 0.61123 0.75046 0.0
O677 O 0.66584 0.57688 0.79644 0.0
O678 O 0.64169 0.58675 0.75196 0.0
O679 O 0.66401 0.57396 0.71281 0.0
H680 H 0.69649 0.60486 0.8082 0.0
H681 H 0.70278 0.64523 0.73385 0.0
H682 H 0.72368 0.62737 0.83906 0.0
H683 H 0.72982 0.66713 0.76639 0.0
H684 H 0.64908 0.51889 0.81776 0.0
H685 H 0.64882 0.5731 0.8568 0.0
H686 H 0.66461 0.54638 0.78167 0.0
H687 H 0.63339 0.54512 0.89138 0.0
H688 H 0.67747 0.64321 0.88029 0.0
H689 H 0.62396 0.59783 0.87759 0.0
H690 H 0.74136 0.60637 0.70942 0.0
H691 H 0.72346 0.56896 0.79625 0.0
H692 H 0.60729 0.57576 0.75026 0.0
H693 H 0.65973 0.62218 0.74887 0.0
H694 H 0.59435 0.59563 0.74638 0.0
H695 H 0.6459 0.64119 0.745 0.0
H696 H 0.68157 0.59324 0.65707 0.0
H697 H 0.67183 0.54822 0.72122 0.0
H698 H 0.70218 0.58801 0.62037 0.0
H699 H 0.69267 0.54383 0.68349 0.0
H700 H 0.68088 0.63995 0.62065 0.0
H701 H 0.62736 0.59454 0.61759 0.0
H702 H 0.58925 0.52429 0.7977 0.0
H703 H 0.61299 0.50422 0.72347 0.0
Li704 Li 0.09039 0.6843 0.2451 0.0
Li705 Li 0.06473 0.66711 0.28017 0.0
Li706 Li 0.07827 0.65273 0.2482 0.0
Li707 Li 0.06065 0.66412 0.21637 0.0
C708 C 0.10433 0.6816 0.30307 0.0
N709 N 0.13639 0.70613 0.3333 0.0
C710 C 0.10473 0.69279 0.33008 0.0
C711 C 0.12025 0.68289 0.29151 0.0
C712 C 0.12106 0.70508 0.34505 0.0
C713 C 0.13632 0.69539 0.30706 0.0
C714 C 0.05903 0.69361 0.25825 0.0
C715 C 0.0346 0.69941 0.25421 0.0
N716 N 0.04043 0.70943 0.28405 0.0
C717 C 0.06482 0.70403 0.28879 0.0
C718 C 0.04383 0.69132 0.24072 0.0
C719 C 0.05521 0.71188 0.30147 0.0
C720 C 0.12371 0.70902 0.21452 0.0
N721 N 0.11168 0.7068 0.23985 0.0
C722 C 0.13043 0.73658 0.26037 0.0
C723 C 0.1146 0.72028 0.26216 0.0
C724 C 0.14331 0.73917 0.23499 0.0
C725 C 0.13972 0.72516 0.21163 0.0
H726 H 0.12093 0.69824 0.19661 0.0
H727 H 0.10483 0.71826 0.28192 0.0
C728 C 0.059 0.66177 0.35303 0.0
N729 N 0.05246 0.66535 0.32347 0.0
C730 C 0.05028 0.65914 0.38527 0.0
C731 C 0.02799 0.66354 0.35609 0.0
C732 C 0.03711 0.66601 0.32436 0.0
C733 C 0.03455 0.66001 0.38713 0.0
H734 H 0.07076 0.6605 0.3514 0.0
H735 H 0.03166 0.66803 0.30033 0.0
C736 C 0.09037 0.65881 0.18308 0.0
N737 N 0.10113 0.63997 0.14065 0.0
C738 C 0.07919 0.64775 0.15636 0.0
C739 C 0.10706 0.66032 0.1881 0.0
C740 C 0.08487 0.63834 0.13519 0.0
C741 C 0.11224 0.65067 0.16644 0.0
C742 C 0.04066 0.63302 0.27551 0.0
C743 C 0.04621 0.62457 0.29965 0.0
C744 C 0.02327 0.63008 0.27742 0.0
C745 C 0.03424 0.61324 0.3251 0.0
C746 C 0.01171 0.61867 0.3033 0.0
N747 N 0.01739 0.61055 0.3264 0.0
C748 C 0.09491 0.63309 0.27049 0.0
C749 C 0.07317 0.61968 0.2255 0.0
C750 C 0.09769 0.61854 0.27074 0.0
N751 N 0.08289 0.63342 0.24792 0.0
C752 C 0.07566 0.60497 0.22457 0.0
C753 C 0.088 0.60425 0.24751 0.0
H754 H 0.10211 0.64396 0.28871 0.0
H755 H 0.06333 0.62008 0.20857 0.0
C756 C 0.05346 0.67089 0.14755 0.0
N757 N 0.04601 0.66064 0.17662 0.0
C758 C 0.04351 0.66757 0.11663 0.0
C759 C 0.01821 0.64378 0.14681 0.0
C760 C 0.02873 0.64737 0.17688 0.0
C761 C 0.02565 0.65368 0.1158 0.0
H762 H 0.06732 0.68125 0.14805 0.0
H763 H 0.02321 0.63931 0.20017 0.0
O764 O 0.08849 0.66967 0.28763 0.0
O765 O 0.0683 0.68593 0.24514 0.0
O766 O 0.08491 0.66791 0.20449 0.0
O767 O 0.05239 0.64463 0.25112 0.0
H768 H 0.09262 0.69225 0.33901 0.0
H769 H 0.12026 0.6745 0.27043 0.0
H770 H 0.12157 0.71387 0.36584 0.0
H771 H 0.14875 0.6966 0.2982 0.0
H772 H 0.02279 0.69773 0.24095 0.0
H773 H 0.07634 0.70569 0.30309 0.0
H774 H 0.03919 0.68339 0.21696 0.0
H775 H 0.05945 0.71983 0.32525 0.0
H776 H 0.13269 0.74689 0.27924 0.0
H777 H 0.14911 0.72667 0.19122 0.0
H778 H 0.05556 0.65595 0.40827 0.0
H779 H 0.01589 0.6643 0.35622 0.0
H780 H 0.06615 0.64621 0.15226 0.0
H781 H 0.11585 0.66868 0.20878 0.0
H782 H 0.07631 0.62968 0.11454 0.0
H783 H 0.12508 0.65164 0.17019 0.0
H784 H 0.05969 0.62696 0.29922 0.0
H785 H 0.01884 0.63689 0.25979 0.0
H786 H 0.0384 0.60668 0.34399 0.0
H787 H 0.99827 0.61639 0.30521 0.0
H788 H 0.10731 0.61846 0.28887 0.0
H789 H 0.06766 0.59407 0.20677 0.0
H790 H 0.04997 0.6754 0.09336 0.0
H791 H 0.00444 0.63319 0.14783 0.0
Li792 Li 0.40794 0.09092 0.7463 0.0
Li793 Li 0.39839 0.06328 0.77771 0.0
Li794 Li 0.42763 0.07788 0.74802 0.0
Li795 Li 0.40006 0.0629 0.71496 0.0
C796 C 0.43343 0.10245 0.8004 0.0
N797 N 0.46198 0.13359 0.82555 0.0
C798 C 0.43719 0.10455 0.83648 0.0
C799 C 0.44418 0.11618 0.77709 0.0
C800 C 0.45168 0.1204 0.84869 0.0
C801 C 0.45855 0.13182 0.79033 0.0
C802 C 0.3686 0.06201 0.76031 0.0
C803 C 0.33934 0.03743 0.77359 0.0
N804 N 0.33673 0.04798 0.79653 0.0
C805 C 0.36556 0.07266 0.78375 0.0
C806 C 0.35534 0.0443 0.75493 0.0
C807 C 0.34939 0.06531 0.80191 0.0
C808 C 0.40595 0.11934 0.7147 0.0
N809 N 0.40701 0.11232 0.74603 0.0
C810 C 0.4068 0.13609 0.77755 0.0
C811 C 0.4073 0.12024 0.77717 0.0
C812 C 0.40593 0.14381 0.74556 0.0
C813 C 0.40546 0.1352 0.71382 0.0
H814 H 0.40539 0.11255 0.69044 0.0
H815 H 0.40792 0.11424 0.80174 0.0
C816 C 0.38108 0.03352 0.82389 0.0
N817 N 0.38662 0.05111 0.81971 0.0
C818 C 0.37353 0.02498 0.85569 0.0
C819 C 0.37745 0.05281 0.87835 0.0
C820 C 0.38497 0.06081 0.84608 0.0
C821 C 0.37176 0.03467 0.88359 0.0
H822 H 0.38294 0.02619 0.80295 0.0
H823 H 0.38974 0.07486 0.84217 0.0
C824 C 0.42893 0.08774 0.67504 0.0
N825 N 0.44489 0.08849 0.61142 0.0
C826 C 0.43649 0.07695 0.66981 0.0
C827 C 0.42954 0.09895 0.6479 0.0
C828 C 0.44448 0.07751 0.63748 0.0
C829 C 0.43765 0.09913 0.61593 0.0
C830 C 0.40547 0.03598 0.73646 0.0
C831 C 0.4191 0.03269 0.72643 0.0
C832 C 0.3877 0.02252 0.73272 0.0
C833 C 0.4147 0.01604 0.71258 0.0
C834 C 0.38385 0.00605 0.71873 0.0
N835 N 0.39732 0.00318 0.70901 0.0
C836 C 0.45466 0.07227 0.77345 0.0
C837 C 0.46509 0.09683 0.73431 0.0
C838 C 0.47172 0.07452 0.77609 0.0
N839 N 0.45163 0.08312 0.75226 0.0
C840 C 0.48239 0.09959 0.73619 0.0
C841 C 0.48583 0.08818 0.75691 0.0
H842 H 0.44369 0.06156 0.78761 0.0
H843 H 0.46235 0.10543 0.71803 0.0
C844 C 0.3738 0.0487 0.66136 0.0
N845 N 0.38914 0.04967 0.67284 0.0
C846 C 0.3652 0.03884 0.63118 0.0
C847 C 0.38843 0.03131 0.62514 0.0
C848 C 0.39665 0.04146 0.65501 0.0
C849 C 0.37244 0.02981 0.61302 0.0
H850 H 0.36818 0.05551 0.67576 0.0
H851 H 0.40894 0.04255 0.6641 0.0
O852 O 0.41931 0.08696 0.78815 0.0
O853 O 0.3845 0.06888 0.74284 0.0
O854 O 0.42105 0.08742 0.70653 0.0
O855 O 0.40953 0.05228 0.74982 0.0
H856 H 0.42898 0.09402 0.85484 0.0
H857 H 0.44146 0.11481 0.74908 0.0
H858 H 0.45475 0.12221 0.87656 0.0
H859 H 0.46698 0.14255 0.7726 0.0
H860 H 0.32899 0.02372 0.76979 0.0
H861 H 0.37567 0.0864 0.7882 0.0
H862 H 0.35735 0.03595 0.73649 0.0
H863 H 0.34691 0.07336 0.82034 0.0
H864 H 0.40734 0.14235 0.80259 0.0
H865 H 0.40448 0.14054 0.68862 0.0
H866 H 0.3697 0.01108 0.85875 0.0
H867 H 0.37624 0.06076 0.89901 0.0
H868 H 0.43607 0.06811 0.69037 0.0
H869 H 0.42383 0.10745 0.65144 0.0
H870 H 0.45033 0.06917 0.6331 0.0
H871 H 0.4382 0.10774 0.5947 0.0
H872 H 0.43293 0.04292 0.72901 0.0
H873 H 0.37699 0.02483 0.74017 0.0
H874 H 0.42512 0.01336 0.70457 0.0
H875 H 0.37015 0.99557 0.7155 0.0
H876 H 0.4737 0.0653 0.79209 0.0
H877 H 0.49291 0.11046 0.72143 0.0
H878 H 0.35288 0.03799 0.62257 0.0
H879 H 0.3946 0.0248 0.6115 0.0
Li880 Li 0.33445 0.39883 0.27967 0.0
Li881 Li 0.31516 0.4084 0.2524 0.0
Li882 Li 0.33374 0.39956 0.21658 0.0
Li883 Li 0.34786 0.42822 0.24773 0.0
C884 C 0.30447 0.36896 0.26619 0.0
N885 N 0.28662 0.33746 0.30364 0.0
C886 C 0.28909 0.36499 0.28517 0.0
C887 C 0.31067 0.35685 0.26592 0.0
C888 C 0.28027 0.349 0.30401 0.0
C889 C 0.30149 0.34102 0.28514 0.0
C890 C 0.33072 0.43155 0.31344 0.0
C891 C 0.33267 0.4598 0.32586 0.0
N892 N 0.32697 0.45428 0.35935 0.0
C893 C 0.32513 0.42626 0.34817 0.0
C894 C 0.33473 0.44855 0.30234 0.0
C895 C 0.32322 0.43789 0.37089 0.0
C896 C 0.35175 0.38581 0.32386 0.0
N897 N 0.33698 0.38735 0.32018 0.0
C898 C 0.32647 0.37451 0.37707 0.0
C899 C 0.32433 0.38171 0.34578 0.0
C900 C 0.3418 0.37312 0.38201 0.0
C901 C 0.35441 0.3786 0.35468 0.0
H902 H 0.36171 0.3906 0.30326 0.0
H903 H 0.31272 0.38311 0.34218 0.0
C904 C 0.28365 0.40404 0.22359 0.0
N905 N 0.29286 0.40756 0.25433 0.0
C906 C 0.26734 0.4036 0.22252 0.0
C907 C 0.27008 0.40997 0.28501 0.0
C908 C 0.28633 0.41026 0.28486 0.0
C909 C 0.26041 0.40673 0.25348 0.0
H910 H 0.28906 0.40169 0.19981 0.0
H911 H 0.29369 0.41265 0.3091 0.0
C912 C 0.36692 0.40711 0.22809 0.0
N913 N 0.39005 0.40145 0.18729 0.0
C914 C 0.38098 0.42135 0.21036 0.0
C915 C 0.36474 0.39003 0.2254 0.0
C916 C 0.39251 0.4182 0.1898 0.0
C917 C 0.37654 0.38743 0.20453 0.0
C918 C 0.32766 0.43217 0.19032 0.0
C919 C 0.33132 0.43402 0.15416 0.0
C920 C 0.32145 0.44257 0.20637 0.0
C921 C 0.32904 0.44647 0.13483 0.0
C922 C 0.31932 0.45485 0.18615 0.0
N923 N 0.32315 0.45656 0.1511 0.0
C924 C 0.32447 0.37133 0.16716 0.0
C925 C 0.34717 0.4001 0.14959 0.0
C926 C 0.32582 0.3641 0.13511 0.0
N927 N 0.33509 0.38903 0.17366 0.0
C928 C 0.34901 0.39347 0.11738 0.0
C929 C 0.33818 0.37526 0.10964 0.0
H930 H 0.31488 0.36286 0.18672 0.0
H931 H 0.35545 0.41412 0.15554 0.0
C932 C 0.37759 0.45779 0.27657 0.0
N933 N 0.36723 0.45205 0.24722 0.0
C934 C 0.39255 0.47485 0.27761 0.0
C935 C 0.38577 0.47984 0.2183 0.0
C936 C 0.37102 0.46264 0.21833 0.0
C937 C 0.39688 0.48613 0.24812 0.0
H938 H 0.37435 0.44897 0.299 0.0
H939 H 0.3628 0.4577 0.19508 0.0
O940 O 0.31339 0.38464 0.24794 0.0
O941 O 0.3328 0.42033 0.29095 0.0
O942 O 0.35531 0.40987 0.24785 0.0
O943 O 0.3298 0.41998 0.20956 0.0
H944 H 0.28408 0.3742 0.28558 0.0
H945 H 0.32252 0.35971 0.25129 0.0
H946 H 0.26841 0.34578 0.31897 0.0
H947 H 0.3062 0.33157 0.28537 0.0
H948 H 0.33569 0.47297 0.31752 0.0
H949 H 0.32221 0.41329 0.3575 0.0
H950 H 0.3396 0.45316 0.27603 0.0
H951 H 0.31877 0.4339 0.39773 0.0
H952 H 0.31634 0.37027 0.39733 0.0
H953 H 0.36651 0.37797 0.35761 0.0
H954 H 0.2602 0.40072 0.19776 0.0
H955 H 0.26531 0.41256 0.30945 0.0
H956 H 0.38288 0.43465 0.21218 0.0
H957 H 0.35396 0.37888 0.23901 0.0
H958 H 0.40338 0.42907 0.17576 0.0
H959 H 0.37493 0.37426 0.20199 0.0
H960 H 0.33589 0.42595 0.14109 0.0
H961 H 0.31802 0.44099 0.23399 0.0
H962 H 0.33191 0.44809 0.10688 0.0
H963 H 0.31452 0.46296 0.19829 0.0
H964 H 0.3171 0.35001 0.13011 0.0
H965 H 0.35895 0.40252 0.09888 0.0
H966 H 0.40086 0.47894 0.30095 0.0
H967 H 0.38843 0.48808 0.19511 0.0
Li968 Li 0.90551 0.31339 0.74888 0.0
Li969 Li 0.93198 0.33068 0.7833 0.0
Li970 Li 0.91881 0.34518 0.74903 0.0
Li971 Li 0.93498 0.33203 0.71905 0.0
C972 C 0.89385 0.31857 0.80923 0.0
N973 N 0.86369 0.29632 0.84771 0.0
C974 C 0.89515 0.30993 0.83927 0.0
C975 C 0.87724 0.316 0.79889 0.0
C976 C 0.87974 0.29872 0.85835 0.0
C977 C 0.86214 0.30465 0.81864 0.0
C978 C 0.93729 0.30304 0.75443 0.0
C979 C 0.96551 0.30397 0.74978 0.0
N980 N 0.95778 0.28699 0.76225 0.0
C981 C 0.9296 0.28555 0.76697 0.0
C982 C 0.95537 0.3123 0.74557 0.0
C983 C 0.94019 0.27769 0.77083 0.0
C984 C 0.87176 0.28812 0.72115 0.0
N985 N 0.88384 0.29127 0.747 0.0
C986 C 0.86467 0.26281 0.77292 0.0
C987 C 0.88072 0.27895 0.77236 0.0
C988 C 0.85177 0.25923 0.74685 0.0
C989 C 0.85554 0.2721 0.72056 0.0
H990 H 0.8747 0.29804 0.70102 0.0
H991 H 0.8906 0.28182 0.79255 0.0
C992 C 0.94335 0.3448 0.8497 0.0
N993 N 0.94371 0.33273 0.8273 0.0
C994 C 0.95278 0.34908 0.88133 0.0
C995 C 0.96167 0.32737 0.86786 0.0
C996 C 0.95236 0.32377 0.83603 0.0
C997 C 0.96223 0.34045 0.89046 0.0
H998 H 0.93605 0.35144 0.8425 0.0
H999 H 0.95234 0.31405 0.81833 0.0
C1000 C 0.90563 0.33777 0.68508 0.0
N1001 N 0.89506 0.35654 0.64199 0.0
C1002 C 0.91661 0.34818 0.65748 0.0
C1003 C 0.88922 0.33682 0.69061 0.0
C1004 C 0.91103 0.35757 0.63601 0.0
C1005 C 0.88414 0.34644 0.6686 0.0
C1006 C 0.95791 0.36442 0.77278 0.0
C1007 C 0.95613 0.37758 0.79065 0.0
C1008 C 0.97347 0.36351 0.77703 0.0
C1009 C 0.96987 0.38948 0.8127 0.0
C1010 C 0.98688 0.37563 0.79939 0.0
N1011 N 0.98482 0.38825 0.81662 0.0
C1012 C 0.90251 0.36557 0.76774 0.0
C1013 C 0.92523 0.37843 0.72443 0.0
C1014 C 0.90009 0.38034 0.76648 0.0
N1015 N 0.9149 0.3649 0.74683 0.0
C1016 C 0.92324 0.39341 0.72224 0.0
C1017 C 0.91058 0.39455 0.74356 0.0
H1018 H 0.89463 0.35472 0.78562 0.0
H1019 H 0.93519 0.37764 0.70856 0.0
C1020 C 0.94308 0.32287 0.65248 0.0
N1021 N 0.94942 0.33482 0.6794 0.0
C1022 C 0.95305 0.32617 0.62155 0.0
C1023 C 0.97605 0.35362 0.64741 0.0
C1024 C 0.96561 0.34988 0.6776 0.0
C1025 C 0.96964 0.34192 0.6185 0.0
H1026 H 0.93003 0.31112 0.65458 0.0
H1027 H 0.97022 0.35921 0.69928 0.0
O1028 O 0.90875 0.32939 0.78989 0.0
O1029 O 0.92703 0.31084 0.75023 0.0
O1030 O 0.91103 0.32879 0.70688 0.0
O1031 O 0.94441 0.35237 0.75168 0.0
H1032 H 0.90787 0.31168 0.84757 0.0
H1033 H 0.87597 0.32248 0.77559 0.0
H1034 H 0.88053 0.29188 0.88156 0.0
H1035 H 0.84918 0.30242 0.81078 0.0
H1036 H 0.97954 0.31102 0.74316 0.0
H1037 H 0.9156 0.27812 0.77367 0.0
H1038 H 0.96154 0.32578 0.73575 0.0
H1039 H 0.93442 0.26419 0.78062 0.0
H1040 H 0.86227 0.25342 0.79395 0.0
H1041 H 0.84614 0.26978 0.69959 0.0
H1042 H 0.95276 0.3591 0.89841 0.0
H1043 H 0.96883 0.32045 0.8742 0.0
H1044 H 0.92939 0.34915 0.65289 0.0
H1045 H 0.88062 0.32893 0.71198 0.0
H1046 H 0.91943 0.36575 0.61466 0.0
H1047 H 0.87154 0.34593 0.67275 0.0
H1048 H 0.94416 0.37844 0.78806 0.0
H1049 H 0.97512 0.35345 0.76354 0.0
H1050 H 0.9686 0.39964 0.82685 0.0
H1051 H -0.00108 0.37497 0.8031 0.0
H1052 H 0.8901 0.38061 0.78321 0.0
H1053 H 0.93182 0.40418 0.70466 0.0
H1054 H 0.94749 0.31687 0.59981 0.0
H1055 H 0.98887 0.36576 0.64652 0.0
H1056 H 0.00053 0.34817 0.10367 0.0
H1057 H 0.9879 0.37371 0.9097 0.0
H1058 H 0.04227 0.39349 0.04832 0.0
H1059 H 0.9613 0.31896 0.94435 0.0
H1060 H 0.00571 0.38241 0.96384 0.0
H1061 H 0.98384 0.33804 0.04843 0.0
C1062 C 0.00631 0.35593 0.07999 0.0
C1063 C 0.02286 0.37183 0.08092 0.0
C1064 C 0.99602 0.36848 0.95954 0.0
C1065 C 0.00352 0.36048 0.01792 0.0
C1066 C 0.98583 0.36355 0.92884 0.0
C1067 C 0.97316 0.34563 0.92281 0.0
C1068 C 0.99328 0.35544 0.98464 0.0
C1069 C 0.97101 0.33291 0.94816 0.0
C1070 C 0.9967 0.35015 0.04852 0.0
C1071 C 0.02941 0.38142 0.0493 0.0
N1072 N 0.98088 0.33808 0.97825 0.0
N1073 N 0.01966 0.37569 0.01922 0.0
H1074 H 0.61868 0.95348 0.44943 0.0
H1075 H 0.66252 0.04767 0.5456 0.0
H1076 H 0.64841 0.00352 0.39404 0.0
H1077 H 0.64584 0.99837 0.60133 0.0
H1078 H 0.65676 0.03164 0.48967 0.0
H1079 H 0.62816 0.9695 0.5053 0.0
C1080 C 0.6274 0.9678 0.44891 0.0
C1081 C 0.63266 0.97714 0.41681 0.0
C1082 C 0.65448 0.02434 0.51411 0.0
C1083 C 0.64323 0.99562 0.48089 0.0
C1084 C 0.65767 0.03346 0.546 0.0
C1085 C 0.65457 0.0243 0.57807 0.0
C1086 C 0.64792 0.00587 0.51428 0.0
C1087 C 0.64849 0.00594 0.57715 0.0
C1088 C 0.63272 0.97695 0.4809 0.0
C1089 C 0.64371 0.99576 0.41803 0.0
N1090 N 0.6452 0.99728 0.54575 0.0
N1091 N 0.6485 0.00439 0.44951 0.0
H1092 H 0.60204 0.62418 0.08133 0.0
H1093 H 0.66087 0.65557 0.90586 0.0
H1094 H 0.6437 0.67856 0.06453 0.0
H1095 H 0.62972 0.60058 0.93873 0.0
H1096 H 0.65337 0.66468 0.96141 0.0
H1097 H 0.61031 0.61567 0.02616 0.0
C1098 C 0.61288 0.63435 0.06587 0.0
C1099 C 0.62216 0.65211 0.07737 0.0
C1100 C 0.64821 0.65063 0.95637 0.0
C1101 C 0.63177 0.64247 0.01428 0.0
C1102 C 0.65254 0.64541 0.92473 0.0
C1103 C 0.64584 0.62725 0.91738 0.0
C1104 C 0.63702 0.6376 0.98072 0.0
C1105 C 0.6349 0.6147 0.94275 0.0
C1106 C 0.61768 0.62947 0.03451 0.0
C1107 C 0.63629 0.6647 0.05663 0.0
N1108 N 0.63079 0.62011 0.97314 0.0
N1109 N 0.64062 0.65966 0.02593 0.0
H1110 H 0.04833 0.67074 0.45362 0.0
H1111 H 0.9531 0.62208 0.54874 0.0
H1112 H 0.99838 0.64139 0.39796 0.0
H1113 H 0.00301 0.64391 0.60486 0.0
H1114 H 0.96953 0.63195 0.49325 0.0
H1115 H 0.03197 0.66359 0.50927 0.0
C1116 C 0.03393 0.66278 0.45307 0.0
C1117 C 0.02474 0.65659 0.421 0.0
C1118 C 0.9769 0.63465 0.5177 0.0
C1119 C 0.00591 0.64854 0.48465 0.0
C1120 C 0.96753 0.62914 0.54941 0.0
C1121 C 0.97671 0.63217 0.58147 0.0
C1122 C 0.9956 0.64332 0.518 0.0
C1123 C 0.99541 0.64113 0.5807 0.0
C1124 C 0.0246 0.65877 0.48486 0.0
C1125 C 0.00604 0.64663 0.42193 0.0
N1126 N 0.00424 0.64637 0.54947 0.0
N1127 N 0.99726 0.64287 0.45323 0.0
H1128 H 0.34432 0.00085 0.89716 0.0
H1129 H 0.35964 0.00839 0.10613 0.0
H1130 H 0.38368 0.0488 0.94944 0.0
H1131 H 0.32765 0.95873 0.05087 0.0
H1132 H 0.36583 0.02426 0.04991 0.0
H1133 H 0.33514 0.98609 0.95441 0.0
C1134 C 0.35102 0.0083 0.92067 0.0
C1135 C 0.36491 0.02606 0.91839 0.0
C1136 C 0.35737 0.0099 0.05018 0.0
C1137 C 0.35435 0.00926 0.98411 0.0
C1138 C 0.3539 0.00081 0.08224 0.0
C1139 C 0.34316 0.98217 0.08331 0.0
C1140 C 0.35004 0.00028 0.01893 0.0
C1141 C 0.33582 0.97311 0.05151 0.0
C1142 C 0.34572 -0.00012 0.95337 0.0
C1143 C 0.37282 0.03515 0.94987 0.0
N1144 N 0.33945 0.98224 0.02067 0.0
N1145 N 0.3675 0.02662 0.9814 0.0
H1146 H 0.33671 0.38224 0.44818 0.0
H1147 H 0.37247 0.3249 0.54836 0.0
H1148 H 0.35466 0.35031 0.39375 0.0
H1149 H 0.3655 0.36577 0.59826 0.0
H1150 H 0.36252 0.33116 0.4924 0.0
H1151 H 0.34363 0.37333 0.50437 0.0
C1152 C 0.34192 0.37318 0.44807 0.0
C1153 C 0.34512 0.36701 0.41623 0.0
C1154 C 0.36314 0.33872 0.51563 0.0
C1155 C 0.35326 0.35691 0.48051 0.0
C1156 C 0.36871 0.33508 0.54757 0.0
C1157 C 0.36989 0.3449 0.57791 0.0
C1158 C 0.35856 0.35214 0.51414 0.0
C1159 C 0.36501 0.35806 0.57538 0.0
C1160 C 0.346 0.36821 0.48016 0.0
C1161 C 0.35216 0.35552 0.41769 0.0
N1162 N 0.35956 0.36129 0.54407 0.0
N1163 N 0.35601 0.35084 0.44932 0.0
H1164 H 0.94913 0.59845 0.94976 0.0
H1165 H 0.02683 0.67603 0.06256 0.0
H1166 H 0.98919 0.64782 0.90267 0.0
H1167 H 0.00046 0.62043 0.09251 0.0
H1168 H 0.01019 0.6675 0.00706 0.0
H1169 H 0.96476 0.60805 0.00594 0.0
C1170 C 0.96125 0.61127 0.95108 0.0
C1171 C 0.96793 0.62222 0.92113 0.0
C1172 C 0.00806 0.65723 0.02596 0.0
C1173 C 0.98567 0.63345 0.98584 0.0
C1174 C 0.0176 0.66205 0.0576 0.0
C1175 C 0.01511 0.64896 0.0825 0.0
C1176 C 0.99576 0.63923 0.01932 0.0
C1177 C 0.00265 0.63109 0.07466 0.0
C1178 C 0.9701 0.61677 0.98328 0.0
C1179 C 0.98342 0.63896 0.92499 0.0
N1180 N 0.99345 0.62678 0.04386 0.0
N1181 N 0.99178 0.64406 0.95675 0.0
H1182 H 0.33454 0.94797 0.45392 0.0
H1183 H 0.35896 0.0384 0.5556 0.0
H1184 H 0.33897 0.99432 0.40168 0.0
H1185 H 0.36575 0.99616 0.59913 0.0
H1186 H 0.34664 0.02066 0.50173 0.0
H1187 H 0.34102 0.96375 0.51003 0.0
C1188 C 0.33684 0.96147 0.45425 0.0
C1189 C 0.33647 0.96992 0.42294 0.0
C1190 C 0.35072 0.01525 0.5232 0.0
C1191 C 0.34376 0.98804 0.48727 0.0
C1192 C 0.35764 0.02531 0.55394 0.0
C1193 C 0.36353 0.01877 0.58161 0.0
C1194 C 0.34954 0.99851 0.52039 0.0
C1195 C 0.36162 0.00178 0.57815 0.0
C1196 C 0.34048 0.97045 0.48634 0.0
C1197 C 0.33909 0.98727 0.42516 0.0
N1198 N 0.35485 0.99227 0.54807 0.0
N1199 N 0.34278 0.99583 0.45676 0.0
H1200 H 0.36747 0.36882 0.89594 0.0
H1201 H 0.33703 0.34349 0.09602 0.0
H1202 H 0.35149 0.31684 0.93946 0.0
H1203 H 0.34326 0.39075 0.04456 0.0
H1204 H 0.34185 0.33309 0.03925 0.0
H1205 H 0.3583 0.37675 0.95032 0.0
C1206 C 0.36178 0.35893 0.91669 0.0
C1207 C 0.36023 0.34208 0.9129 0.0
C1208 C 0.34205 0.34569 0.0404 0.0
C1209 C 0.35008 0.35134 0.97598 0.0
C1210 C 0.33922 0.35159 0.07277 0.0
C1211 C 0.33993 0.36812 0.07517 0.0
C1212 C 0.34568 0.35641 0.01028 0.0
C1213 C 0.34299 0.37813 0.04418 0.0
C1214 C 0.35666 0.36355 0.94794 0.0
C1215 C 0.35317 0.33007 0.94129 0.0
N1216 N 0.34586 0.37217 0.01314 0.0
N1217 N 0.34845 0.33497 0.9717 0.0
H1218 H 0.97417 0.32004 0.57184 0.0
H1219 H 0.03409 0.40017 0.4399 0.0
H1220 H 0.98791 0.37483 0.58785 0.0
H1221 H 0.01533 0.34502 0.41422 0.0
H1222 H 0.01876 0.3909 0.49628 0.0
H1223 H 0.99045 0.32867 0.51578 0.0
C1224 C 0.98058 0.33386 0.56362 0.0
C1225 C 0.97974 0.34674 0.58478 0.0
C1226 C 0.01795 0.38078 0.47838 0.0
C1227 C 0.99849 0.35669 0.52091 0.0
C1228 C 0.02664 0.38607 0.44603 0.0
C1229 C 0.02582 0.37334 0.42205 0.0
C1230 C 0.00834 0.3626 0.48708 0.0
C1231 C 0.01636 0.35529 0.43195 0.0
C1232 C 0.98993 0.33878 0.5317 0.0
C1233 C 0.98847 0.36448 0.5729 0.0
N1234 N 0.00791 0.35043 0.46369 0.0
N1235 N 0.99744 0.36889 0.54186 0.0
H1236 H 0.66671 0.04794 0.94917 0.0
H1237 H 0.64439 0.96118 0.06157 0.0
H1238 H 0.6562 0.99863 0.90044 0.0
H1239 H 0.62867 0.99903 0.09404 0.0
H1240 H 0.65628 0.97805 0.00645 0.0
H1241 H 0.66041 0.0333 0.00707 0.0
C1242 C 0.6634 0.03412 0.95082 0.0
C1243 C 0.66191 0.0244 0.9202 0.0
C1244 C 0.65036 0.9827 0.02584 0.0
C1245 C 0.65478 0.00771 0.98589 0.0
C1246 C 0.64368 0.97318 0.0572 0.0
C1247 C 0.6355 0.97875 0.08202 0.0
C1248 C 0.64913 0.99805 0.0198 0.0
C1249 C 0.63478 0.99429 0.07527 0.0
C1250 C 0.6597 0.02577 0.9837 0.0
C1251 C 0.65738 0.00649 0.92355 0.0
N1252 N 0.64154 0.00345 0.04477 0.0
N1253 N 0.65397 0.99868 0.95588 0.0
H1254 H 0.60874 0.62013 0.41314 0.0
H1255 H 0.6645 0.65231 0.59191 0.0
H1256 H 0.64801 0.67527 0.43233 0.0
H1257 H 0.63568 0.59748 0.5573 0.0
H1258 H 0.65786 0.66139 0.53531 0.0
H1259 H 0.61745 0.61193 0.46779 0.0
C1260 C 0.61936 0.63053 0.42858 0.0
C1261 C 0.62776 0.64843 0.41776 0.0
C1262 C 0.65306 0.64738 0.54016 0.0
C1263 C 0.63753 0.63909 0.48121 0.0
C1264 C 0.6569 0.64219 0.57239 0.0
C1265 C 0.6505 0.62406 0.5796 0.0
C1266 C 0.64266 0.63436 0.51509 0.0
C1267 C 0.64056 0.61155 0.55337 0.0
C1268 C 0.62425 0.62583 0.46 0.0
C1269 C 0.64105 0.66132 0.43968 0.0
N1270 N 0.63688 0.61692 0.52245 0.0
N1271 N 0.64551 0.65641 0.47041 0.0
H1272 H 0.08989 0.58618 0.30502 0.0
H1273 H 0.09856 0.51292 0.19183 0.0
H1274 H 0.09093 0.58606 0.19125 0.0
H1275 H 0.08355 0.50625 0.30181 0.0
H1276 H 0.09971 0.54169 0.1921 0.0
H1277 H 0.09186 0.55897 0.30529 0.0
C1278 C 0.09072 0.58052 0.2801 0.0
C1279 C 0.09018 0.58833 0.24805 0.0
C1280 C 0.09623 0.53393 0.21618 0.0
C1281 C 0.09233 0.55717 0.24816 0.0
C1282 C 0.09547 0.51744 0.21603 0.0
C1283 C 0.09085 0.50702 0.2468 0.0
C1284 C 0.09246 0.54013 0.24737 0.0
C1285 C 0.0874 0.51385 0.27755 0.0
C1286 C 0.09172 0.56493 0.28027 0.0
C1287 C 0.0911 0.58033 0.21653 0.0
N1288 N 0.08824 0.52994 0.27702 0.0
N1289 N 0.09212 0.56518 0.21736 0.0
H1290 H 0.50888 0.09575 0.70154 0.0
H1291 H 0.57847 0.08053 0.81324 0.0
H1292 H 0.50366 0.08445 0.8132 0.0
H1293 H 0.58485 0.09396 0.70251 0.0
H1294 H 0.55181 0.08332 0.81435 0.0
H1295 H 0.53751 0.09669 0.70203 0.0
C1296 C 0.51385 0.09368 0.72627 0.0
C1297 C 0.50379 0.08995 0.75737 0.0
C1298 C 0.55908 0.08574 0.78983 0.0
C1299 C 0.53647 0.09071 0.75797 0.0
C1300 C 0.57437 0.08424 0.78921 0.0
C1301 C 0.58391 0.08695 0.75769 0.0
C1302 C 0.5532 0.08995 0.75868 0.0
C1303 C 0.57777 0.09146 0.72728 0.0
C1304 C 0.53015 0.0941 0.72647 0.0
C1305 C 0.5108 0.08709 0.78849 0.0
N1306 N 0.56279 0.09277 0.72851 0.0
N1307 N 0.52666 0.08746 0.78796 0.0
H1308 H 0.49066 0.58467 0.3098 0.0
H1309 H 0.4199 0.50323 0.19324 0.0
H1310 H 0.4928 0.58365 0.19619 0.0
H1311 H 0.4112 0.51003 0.30293 0.0
H1312 H 0.44699 0.5323 0.1941 0.0
H1313 H 0.46199 0.55685 0.30832 0.0
C1314 C 0.48507 0.57859 0.28455 0.0
C1315 C 0.49413 0.58644 0.25307 0.0
C1316 C 0.4391 0.52748 0.21793 0.0
C1317 C 0.46139 0.55464 0.25116 0.0
C1318 C 0.42354 0.51089 0.21743 0.0
C1319 C 0.41317 0.50409 0.24807 0.0
C1320 C 0.44449 0.53734 0.24936 0.0
C1321 C 0.41887 0.51455 0.27881 0.0
C1322 C 0.46868 0.56277 0.28371 0.0
C1323 C 0.48619 0.57813 0.22106 0.0
N1324 N 0.43418 0.5306 0.27871 0.0
N1325 N 0.47034 0.56261 0.22094 0.0
H1326 H 0.91005 0.4904 0.68006 0.0
H1327 H 0.90592 0.41203 0.79919 0.0
H1328 H 0.90641 0.48911 0.79368 0.0
H1329 H 0.91124 0.414 0.68585 0.0
H1330 H 0.90424 0.43933 0.79733 0.0
H1331 H 0.90902 0.46169 0.68133 0.0
C1332 C 0.90905 0.48409 0.70529 0.0
C1333 C 0.90837 0.49223 0.73682 0.0
C1334 C 0.90571 0.43377 0.77283 0.0
C1335 C 0.90706 0.45926 0.73846 0.0
C1336 C 0.90655 0.4181 0.77386 0.0
C1337 C 0.90877 0.41072 0.74263 0.0
C1338 C 0.90709 0.44216 0.74034 0.0
C1339 C 0.90979 0.41935 0.71062 0.0
C1340 C 0.90838 0.46765 0.70598 0.0
C1341 C 0.90678 0.48327 0.76869 0.0
N1342 N 0.90898 0.43463 0.71032 0.0
N1343 N 0.90625 0.46732 0.76868 0.0
H1344 H 0.42152 0.92397 0.30575 0.0
H1345 H 0.49167 0.90991 0.19375 0.0
H1346 H 0.41299 0.90646 0.19725 0.0
H1347 H 0.49602 0.91941 0.30607 0.0
H1348 H 0.46296 0.9088 0.19429 0.0
H1349 H 0.44899 0.92266 0.30618 0.0
C1350 C 0.42531 0.91968 0.28208 0.0
C1351 C 0.41487 0.91532 0.2514 0.0
C1352 C 0.47016 0.91106 0.21884 0.0
C1353 C 0.44656 0.91408 0.25158 0.0
C1354 C 0.48653 0.91159 0.21861 0.0
C1355 C 0.49634 0.91481 0.24991 0.0
C1356 C 0.46355 0.91385 0.25057 0.0
C1357 C 0.4891 0.9172 0.28119 0.0
C1358 C 0.44108 0.91904 0.28231 0.0
C1359 C 0.42071 0.91021 0.22135 0.0
N1360 N 0.47319 0.91673 0.28069 0.0
N1361 N 0.43617 0.90977 0.22218 0.0
H1362 H 0.57765 0.4944 0.81797 0.0
H1363 H 0.50803 0.40897 0.7076 0.0
H1364 H 0.58242 0.48842 0.70608 0.0
H1365 H 0.49771 0.42084 0.81269 0.0
H1366 H 0.53684 0.43651 0.70837 0.0
H1367 H 0.54982 0.46586 0.81831 0.0
C1368 C 0.57285 0.48713 0.79344 0.0
C1369 C 0.58239 0.49393 0.7619 0.0
C1370 C 0.52827 0.43305 0.73128 0.0
C1371 C 0.55062 0.46107 0.76225 0.0
C1372 C 0.51177 0.41737 0.73081 0.0
C1373 C 0.50034 0.41256 0.76007 0.0
C1374 C 0.53347 0.44401 0.76128 0.0
C1375 C 0.50613 0.42383 0.78968 0.0
C1376 C 0.55699 0.47079 0.79371 0.0
C1377 C 0.57567 0.48366 0.73111 0.0
N1378 N 0.52226 0.43902 0.78949 0.0
N1379 N 0.56019 0.46779 0.73205 0.0
H1380 H 0.1587 0.39758 0.30547 0.0
H1381 H 0.24825 0.42043 0.20244 0.0
H1382 H 0.17082 0.419 0.19981 0.0
H1383 H 0.23362 0.39334 0.30291 0.0
H1384 H 0.22018 0.42057 0.20172 0.0
H1385 H 0.18632 0.39642 0.30575 0.0
C1386 C 0.1671 0.40193 0.28224 0.0
C1387 C 0.16242 0.40843 0.25258 0.0
C1388 C 0.22308 0.41456 0.22391 0.0
C1389 C 0.19417 0.40734 0.25291 0.0
C1390 C 0.23908 0.41438 0.22425 0.0
C1391 C 0.24331 0.40682 0.25275 0.0
C1392 C 0.21119 0.40718 0.25232 0.0
C1393 C 0.23103 0.39951 0.28059 0.0
C1394 C 0.18291 0.40136 0.28249 0.0
C1395 C 0.17399 0.41415 0.22346 0.0
N1396 N 0.21554 0.39988 0.27969 0.0
N1397 N 0.18931 0.41349 0.22438 0.0
H1398 H 0.81855 0.25398 0.73127 0.0
H1399 H 0.76775 0.14968 0.7758 0.0
H1400 H 0.84546 0.2257 0.76359 0.0
H1401 H 0.74233 0.17631 0.72731 0.0
H1402 H 0.79607 0.17783 0.77518 0.0
H1403 H 0.79025 0.22594 0.73246 0.0
C1404 C 0.81855 0.24187 0.73837 0.0
C1405 C 0.83446 0.24223 0.74728 0.0
C1406 C 0.7843 0.17751 0.76466 0.0
C1407 C 0.80201 0.21009 0.74926 0.0
C1408 C 0.76811 0.16148 0.76523 0.0
C1409 C 0.75267 0.16066 0.75155 0.0
C1410 C 0.78503 0.19286 0.75053 0.0
C1411 C 0.75395 0.17631 0.73775 0.0
C1412 C 0.80236 0.22587 0.73925 0.0
C1413 C 0.83354 0.22613 0.75698 0.0
N1414 N 0.76984 0.19177 0.73765 0.0
N1415 N 0.81759 0.21073 0.75773 0.0
H1416 H 0.5886 0.75793 0.31367 0.0
H1417 H 0.58762 0.83364 0.19389 0.0
H1418 H 0.5874 0.75663 0.19985 0.0
H1419 H 0.5872 0.8342 0.30771 0.0
H1420 H 0.58775 0.80551 0.19556 0.0
H1421 H 0.58795 0.7858 0.31209 0.0
C1422 C 0.5881 0.76344 0.28835 0.0
C1423 C 0.58809 0.75493 0.25685 0.0
C1424 C 0.58761 0.81177 0.22019 0.0
C1425 C 0.58753 0.78695 0.25483 0.0
C1426 C 0.58764 0.82789 0.21924 0.0
C1427 C 0.58742 0.83631 0.25071 0.0
C1428 C 0.58741 0.804 0.25284 0.0
C1429 C 0.58716 0.82808 0.2828 0.0
C1430 C 0.58783 0.77942 0.28746 0.0
C1431 C 0.5877 0.76285 0.22479 0.0
N1432 N 0.58719 0.81241 0.28303 0.0
N1433 N 0.58744 0.77841 0.22461 0.0
H1434 H 0.82816 0.58265 0.68911 0.0
H1435 H 0.75527 0.58886 0.80863 0.0
H1436 H 0.83294 0.59042 0.80187 0.0
H1437 H 0.75306 0.58628 0.69494 0.0
H1438 H 0.78321 0.58838 0.80686 0.0
H1439 H 0.80003 0.58278 0.69089 0.0
C1440 C 0.82323 0.58428 0.71427 0.0
C1441 C 0.83291 0.58653 0.74539 0.0
C1442 C 0.77664 0.58794 0.78229 0.0
C1443 C 0.8008 0.58684 0.7476 0.0
C1444 C 0.76064 0.58812 0.78329 0.0
C1445 C 0.75182 0.58759 0.75188 0.0
C1446 C 0.78386 0.58715 0.74963 0.0
C1447 C 0.75952 0.5869 0.71977 0.0
C1448 C 0.80723 0.58447 0.71525 0.0
C1449 C 0.82602 0.58885 0.77719 0.0
N1450 N 0.77507 0.58665 0.71948 0.0
N1451 N 0.81038 0.58891 0.77749 0.0
H1452 H 0.25461 0.82036 0.2166 0.0
H1453 H 0.14907 0.77309 0.24415 0.0
H1454 H 0.22777 0.84785 0.25409 0.0
H1455 H 0.17674 0.74427 0.22236 0.0
H1456 H 0.17758 0.8009 0.2441 0.0
H1457 H 0.22595 0.79265 0.21441 0.0
C1458 C 0.24267 0.82058 0.22423 0.0
C1459 C 0.24358 0.83644 0.23558 0.0
C1460 C 0.17741 0.78849 0.23928 0.0
C1461 C 0.21076 0.80475 0.23334 0.0
C1462 C 0.16114 0.77258 0.23946 0.0
C1463 C 0.16048 0.75627 0.23341 0.0
C1464 C 0.1932 0.78814 0.23289 0.0
C1465 C 0.17655 0.75652 0.22675 0.0
C1466 C 0.22633 0.80473 0.22315 0.0
C1467 C 0.22771 0.83589 0.24558 0.0
N1468 N 0.19225 0.77219 0.22673 0.0
N1469 N 0.21196 0.82031 0.24417 0.0
H1470 H 0.38561 0.22995 0.79228 0.0
H1471 H 0.42357 0.17232 0.70099 0.0
H1472 H 0.42325 0.24906 0.70615 0.0
H1473 H 0.38751 0.15394 0.78969 0.0
H1474 H 0.42299 0.20023 0.70146 0.0
H1475 H 0.38579 0.20185 0.79122 0.0
C1476 C 0.39398 0.22828 0.77326 0.0
C1477 C 0.40445 0.24192 0.74929 0.0
C1478 C 0.4152 0.19009 0.72082 0.0
C1479 C 0.40456 0.20967 0.74767 0.0
C1480 C 0.41544 0.17411 0.72043 0.0
C1481 C 0.40557 0.16077 0.74534 0.0
C1482 C 0.40499 0.19278 0.74627 0.0
C1483 C 0.39549 0.16394 0.77027 0.0
C1484 C 0.394 0.21218 0.77254 0.0
C1485 C 0.4148 0.23886 0.72483 0.0
N1486 N 0.39546 0.17961 0.77008 0.0
N1487 N 0.41461 0.22308 0.72469 0.0
loop_
_geom_bond_atom_site_label_1
_geom_bond_atom_site_label_2
_geom_bond_distance
_geom_bond_site_symmetry_2
_ccdc_geom_bond_type
Li0 N17 1.990 . S
Li0 O60 1.956 . S
Li0 O61 1.970 . S
Li0 O62 1.961 . S
Li1 N25 1.990 . S
Li1 O60 1.970 . S
Li1 O61 1.956 . S
Li1 O63 1.961 . S
Li2 N47 1.990 . S
Li2 O60 1.961 . S
Li2 O62 1.956 . S
Li2 O63 1.970 . S
Li3 N53 1.990 . S
Li3 O61 1.961 . S
Li3 O62 1.970 . S
Li3 O63 1.956 . S
C4 C6 1.348 . S
C4 C7 1.356 . S
C4 O60 1.325 . S
N5 C8 1.314 . S
N5 C9 1.279 . S
C6 C4 1.348 . S
C6 C8 1.353 . S
C6 H64 0.929 . S
C7 C4 1.356 . S
C7 C9 1.358 . S
C7 H65 0.930 . S
C8 N5 1.314 . S
C8 C6 1.353 . S
C8 H66 0.930 . S
C9 N5 1.279 . S
C9 C7 1.358 . S
C9 H67 0.930 . S
C10 C13 1.348 . S
C10 C14 1.356 . S
C10 O61 1.325 . S
C11 N12 1.279 . S
C11 C14 1.358 . S
C11 H68 0.930 . S
N12 C11 1.279 . S
N12 C15 1.314 . S
C13 C10 1.348 . S
C13 C15 1.353 . S
C13 H69 0.929 . S
C14 C10 1.356 . S
C14 C11 1.358 . S
C14 H70 0.930 . S
C15 N12 1.314 . S
C15 C13 1.353 . S
C15 H71 0.930 . S
C16 N17 1.314 . S
C16 C21 1.353 . S
C16 H22 0.930 . S
N17 Li0 1.990 . S
N17 C16 1.314 . S
N17 C19 1.279 . S
C18 C19 1.358 . S
C18 C20 1.356 . S
C18 H72 0.930 . S
C19 N17 1.279 . S
C19 C18 1.358 . S
C19 H23 0.930 . S
C20 C18 1.356 . S
C20 C21 1.348 . S
C21 C16 1.353 . S
C21 C20 1.348 . S
C21 H73 0.929 . S
H22 C16 0.930 . S
H23 C19 0.930 . S
C24 N25 1.314 . S
C24 C26 1.353 . S
C24 H30 0.930 . S
N25 Li1 1.990 . S
N25 C24 1.314 . S
N25 C28 1.279 . S
C26 C24 1.353 . S
C26 C29 1.348 . S
C26 H74 0.929 . S
C27 C28 1.358 . S
C27 C29 1.356 . S
C27 H75 0.930 . S
C28 N25 1.279 . S
C28 C27 1.358 . S
C28 H31 0.930 . S
C29 C26 1.348 . S
C29 C27 1.356 . S
H30 C24 0.930 . S
H31 C28 0.930 . S
C32 C34 1.348 . S
C32 C35 1.356 . S
C32 O62 1.325 . S
N33 C36 1.314 . S
N33 C37 1.279 . S
C34 C32 1.348 . S
C34 C36 1.353 . S
C34 H76 0.929 . S
C35 C32 1.356 . S
C35 C37 1.358 . S
C35 H77 0.930 . S
C36 N33 1.314 . S
C36 C34 1.353 . S
C36 H78 0.930 . S
C37 N33 1.279 . S
C37 C35 1.358 . S
C37 H79 0.930 . S
C38 C39 1.348 . S
C38 C40 1.356 . S
C38 O63 1.325 . S
C39 C38 1.348 . S
C39 C41 1.353 . S
C39 H80 0.929 . S
C40 C38 1.356 . S
C40 C42 1.358 . S
C40 H81 0.930 . S
C41 C39 1.353 . S
C41 N43 1.314 . S
C41 H82 0.930 . S
C42 C40 1.358 . S
C42 N43 1.279 . S
C42 H83 0.930 . S
N43 C41 1.314 . S
N43 C42 1.279 . S
C44 C46 1.353 . S
C44 N47 1.314 . S
C44 H50 0.930 . S
C45 N47 1.279 . S
C45 C48 1.358 . S
C45 H51 0.930 . S
C46 C44 1.353 . S
C46 C49 1.348 . S
C46 H84 0.929 . S
N47 Li2 1.990 . S
N47 C44 1.314 . S
N47 C45 1.279 . S
C48 C45 1.358 . S
C48 C49 1.356 . S
C48 H85 0.930 . S
C49 C46 1.348 . S
C49 C48 1.356 . S
H50 C44 0.930 . S
H51 C45 0.930 . S
C52 N53 1.314 . S
C52 C54 1.353 . S
C52 H58 0.930 . S
N53 Li3 1.990 . S
N53 C52 1.314 . S
N53 C56 1.279 . S
C54 C52 1.353 . S
C54 C57 1.348 . S
C54 H86 0.929 . S
C55 C56 1.358 . S
C55 C57 1.356 . S
C55 H87 0.930 . S
C56 N53 1.279 . S
C56 C55 1.358 . S
C56 H59 0.930 . S
C57 C54 1.348 . S
C57 C55 1.356 . S
H58 C52 0.930 . S
H59 C56 0.930 . S
O60 Li0 1.956 . S
O60 Li1 1.970 . S
O60 Li2 1.961 . S
O60 C4 1.325 . S
O61 Li0 1.970 . S
O61 Li1 1.956 . S
O61 Li3 1.961 . S
O61 C10 1.325 . S
O62 Li0 1.961 . S
O62 Li2 1.956 . S
O62 Li3 1.970 . S
O62 C32 1.325 . S
O63 Li1 1.961 . S
O63 Li2 1.970 . S
O63 Li3 1.956 . S
O63 C38 1.325 . S
H64 C6 0.929 . S
H65 C7 0.930 . S
H66 C8 0.930 . S
H67 C9 0.930 . S
H68 C11 0.930 . S
H69 C13 0.929 . S
H70 C14 0.930 . S
H71 C15 0.930 . S
H72 C18 0.930 . S
H73 C21 0.929 . S
H74 C26 0.929 . S
H75 C27 0.930 . S
H76 C34 0.929 . S
H77 C35 0.930 . S
H78 C36 0.930 . S
H79 C37 0.930 . S
H80 C39 0.929 . S
H81 C40 0.930 . S
H82 C41 0.930 . S
H83 C42 0.930 . S
H84 C46 0.929 . S
H85 C48 0.930 . S
H86 C54 0.929 . S
H87 C55 0.930 . S
Li88 N105 1.990 . S
Li88 O148 1.956 . S
Li88 O149 1.970 . S
Li88 O150 1.961 . S
Li89 N113 1.990 . S
Li89 O148 1.970 . S
Li89 O149 1.956 . S
Li89 O151 1.961 . S
Li90 N135 1.990 . S
Li90 O148 1.961 . S
Li90 O150 1.956 . S
Li90 O151 1.970 . S
Li91 N141 1.990 . S
Li91 O149 1.961 . S
Li91 O150 1.970 . S
Li91 O151 1.956 . S
C92 C94 1.348 . S
C92 C95 1.356 . S
C92 O148 1.325 . S
N93 C96 1.314 . S
N93 C97 1.279 . S
C94 C92 1.348 . S
C94 C96 1.353 . S
C94 H152 0.929 . S
C95 C92 1.356 . S
C95 C97 1.358 . S
C95 H153 0.930 . S
C96 N93 1.314 . S
C96 C94 1.353 . S
C96 H154 0.930 . S
C97 N93 1.279 . S
C97 C95 1.358 . S
C97 H155 0.930 . S
C98 C101 1.348 . S
C98 C102 1.356 . S
C98 O149 1.325 . S
C99 N100 1.279 . S
C99 C102 1.358 . S
C99 H156 0.930 . S
N100 C99 1.279 . S
N100 C103 1.314 . S
C101 C98 1.348 . S
C101 C103 1.353 . S
C101 H157 0.929 . S
C102 C98 1.356 . S
C102 C99 1.358 . S
C102 H158 0.930 . S
C103 N100 1.314 . S
C103 C101 1.353 . S
C103 H159 0.930 . S
C104 N105 1.314 . S
C104 C109 1.353 . S
C104 H110 0.930 . S
N105 Li88 1.990 . S
N105 C104 1.314 . S
N105 C107 1.279 . S
C106 C107 1.358 . S
C106 C108 1.356 . S
C106 H160 0.930 . S
C107 N105 1.279 . S
C107 C106 1.358 . S
C107 H111 0.930 . S
C108 C106 1.356 . S
C108 C109 1.348 . S
C109 C104 1.353 . S
C109 C108 1.348 . S
C109 H161 0.929 . S
H110 C104 0.930 . S
H111 C107 0.930 . S
C112 N113 1.314 . S
C112 C114 1.353 . S
C112 H118 0.930 . S
N113 Li89 1.990 . S
N113 C112 1.314 . S
N113 C116 1.279 . S
C114 C112 1.353 . S
C114 C117 1.348 . S
C114 H162 0.929 . S
C115 C116 1.358 . S
C115 C117 1.356 . S
C115 H163 0.930 . S
C116 N113 1.279 . S
C116 C115 1.358 . S
C116 H119 0.930 . S
C117 C114 1.348 . S
C117 C115 1.356 . S
H118 C112 0.930 . S
H119 C116 0.930 . S
C120 C122 1.348 . S
C120 C123 1.356 . S
C120 O150 1.325 . S
N121 C124 1.314 . S
N121 C125 1.279 . S
C122 C120 1.348 . S
C122 C124 1.353 . S
C122 H164 0.929 . S
C123 C120 1.356 . S
C123 C125 1.358 . S
C123 H165 0.930 . S
C124 N121 1.314 . S
C124 C122 1.353 . S
C124 H166 0.930 . S
C125 N121 1.279 . S
C125 C123 1.358 . S
C125 H167 0.930 . S
C126 C127 1.348 . S
C126 C128 1.356 . S
C126 O151 1.325 . S
C127 C126 1.348 . S
C127 C129 1.353 . S
C127 H168 0.929 . S
C128 C126 1.356 . S
C128 C130 1.358 . S
C128 H169 0.930 . S
C129 C127 1.353 . S
C129 N131 1.314 . S
C129 H170 0.930 . S
C130 C128 1.358 . S
C130 N131 1.279 . S
C130 H171 0.930 . S
N131 C129 1.314 . S
N131 C130 1.279 . S
C132 C134 1.353 . S
C132 N135 1.314 . S
C132 H138 0.930 . S
C133 N135 1.279 . S
C133 C136 1.358 . S
C133 H139 0.930 . S
C134 C132 1.353 . S
C134 C137 1.348 . S
C134 H172 0.929 . S
N135 Li90 1.990 . S
N135 C132 1.314 . S
N135 C133 1.279 . S
C136 C133 1.358 . S
C136 C137 1.356 . S
C136 H173 0.930 . S
C137 C134 1.348 . S
C137 C136 1.356 . S
H138 C132 0.930 . S
H139 C133 0.930 . S
C140 N141 1.314 . S
C140 C142 1.353 . S
C140 H146 0.930 . S
N141 Li91 1.990 . S
N141 C140 1.314 . S
N141 C144 1.279 . S
C142 C140 1.353 . S
C142 C145 1.348 . S
C142 H174 0.929 . S
C143 C144 1.358 . S
C143 C145 1.356 . S
C143 H175 0.930 . S
C144 N141 1.279 . S
C144 C143 1.358 . S
C144 H147 0.930 . S
C145 C142 1.348 . S
C145 C143 1.356 . S
H146 C140 0.930 . S
H147 C144 0.930 . S
O148 Li88 1.956 . S
O148 Li89 1.970 . S
O148 Li90 1.961 . S
O148 C92 1.325 . S
O149 Li88 1.970 . S
O149 Li89 1.956 . S
O149 Li91 1.961 . S
O149 C98 1.325 . S
O150 Li88 1.961 . S
O150 Li90 1.956 . S
O150 Li91 1.970 . S
O150 C120 1.325 . S
O151 Li89 1.961 . S
O151 Li90 1.970 . S
O151 Li91 1.956 . S
O151 C126 1.325 . S
H152 C94 0.929 . S
H153 C95 0.930 . S
H154 C96 0.930 . S
H155 C97 0.930 . S
H156 C99 0.930 . S
H157 C101 0.929 . S
H158 C102 0.930 . S
H159 C103 0.930 . S
H160 C106 0.930 . S
H161 C109 0.929 . S
H162 C114 0.929 . S
H163 C115 0.930 . S
H164 C122 0.929 . S
H165 C123 0.930 . S
H166 C124 0.930 . S
H167 C125 0.930 . S
H168 C127 0.929 . S
H169 C128 0.930 . S
H170 C129 0.930 . S
H171 C130 0.930 . S
H172 C134 0.929 . S
H173 C136 0.930 . S
H174 C142 0.929 . S
H175 C143 0.930 . S
Li176 N193 1.990 . S
Li176 O236 1.956 . S
Li176 O237 1.970 . S
Li176 O238 1.961 . S
Li177 N201 1.990 . S
Li177 O236 1.970 . S
Li177 O237 1.956 . S
Li177 O239 1.961 . S
Li178 N223 1.990 . S
Li178 O236 1.961 . S
Li178 O238 1.956 . S
Li178 O239 1.970 . S
Li179 N229 1.990 . S
Li179 O237 1.961 . S
Li179 O238 1.970 . S
Li179 O239 1.956 . S
C180 C182 1.348 . S
C180 C183 1.356 . S
C180 O236 1.325 . S
N181 C184 1.314 . S
N181 C185 1.279 . S
C182 C180 1.348 . S
C182 C184 1.353 . S
C182 H240 0.929 . S
C183 C180 1.356 . S
C183 C185 1.358 . S
C183 H241 0.930 . S
C184 N181 1.314 . S
C184 C182 1.353 . S
C184 H242 0.930 . S
C185 N181 1.279 . S
C185 C183 1.358 . S
C185 H243 0.930 . S
C186 C189 1.348 . S
C186 C190 1.356 . S
C186 O237 1.325 . S
C187 N188 1.279 . S
C187 C190 1.358 . S
C187 H244 0.930 . S
N188 C187 1.279 . S
N188 C191 1.314 . S
C189 C186 1.348 . S
C189 C191 1.353 . S
C189 H245 0.929 . S
C190 C186 1.356 . S
C190 C187 1.358 . S
C190 H246 0.930 . S
C191 N188 1.314 . S
C191 C189 1.353 . S
C191 H247 0.930 . S
C192 N193 1.314 . S
C192 C197 1.353 . S
C192 H198 0.930 . S
N193 Li176 1.990 . S
N193 C192 1.314 . S
N193 C195 1.279 . S
C194 C195 1.358 . S
C194 C196 1.356 . S
C194 H248 0.930 . S
C195 N193 1.279 . S
C195 C194 1.358 . S
C195 H199 0.930 . S
C196 C194 1.356 . S
C196 C197 1.348 . S
C197 C192 1.353 . S
C197 C196 1.348 . S
C197 H249 0.929 . S
H198 C192 0.930 . S
H199 C195 0.930 . S
C200 N201 1.314 . S
C200 C202 1.353 . S
C200 H206 0.930 . S
N201 Li177 1.990 . S
N201 C200 1.314 . S
N201 C204 1.279 . S
C202 C200 1.353 . S
C202 C205 1.348 . S
C202 H250 0.929 . S
C203 C204 1.358 . S
C203 C205 1.356 . S
C203 H251 0.930 . S
C204 N201 1.279 . S
C204 C203 1.358 . S
C204 H207 0.930 . S
C205 C202 1.348 . S
C205 C203 1.356 . S
H206 C200 0.930 . S
H207 C204 0.930 . S
C208 C210 1.348 . S
C208 C211 1.356 . S
C208 O238 1.325 . S
N209 C212 1.314 . S
N209 C213 1.279 . S
C210 C208 1.348 . S
C210 C212 1.353 . S
C210 H252 0.929 . S
C211 C208 1.356 . S
C211 C213 1.358 . S
C211 H253 0.930 . S
C212 N209 1.314 . S
C212 C210 1.353 . S
C212 H254 0.930 . S
C213 N209 1.279 . S
C213 C211 1.358 . S
C213 H255 0.930 . S
C214 C215 1.348 . S
C214 C216 1.356 . S
C214 O239 1.325 . S
C215 C214 1.348 . S
C215 C217 1.353 . S
C215 H256 0.929 . S
C216 C214 1.356 . S
C216 C218 1.358 . S
C216 H257 0.930 . S
C217 C215 1.353 . S
C217 N219 1.314 . S
C217 H258 0.930 . S
C218 C216 1.358 . S
C218 N219 1.279 . S
C218 H259 0.930 . S
N219 C217 1.314 . S
N219 C218 1.279 . S
C220 C222 1.353 . S
C220 N223 1.314 . S
C220 H226 0.930 . S
C221 N223 1.279 . S
C221 C224 1.358 . S
C221 H227 0.930 . S
C222 C220 1.353 . S
C222 C225 1.348 . S
C222 H260 0.929 . S
N223 Li178 1.990 . S
N223 C220 1.314 . S
N223 C221 1.279 . S
C224 C221 1.358 . S
C224 C225 1.356 . S
C224 H261 0.930 . S
C225 C222 1.348 . S
C225 C224 1.356 . S
H226 C220 0.930 . S
H227 C221 0.930 . S
C228 N229 1.314 . S
C228 C230 1.353 . S
C228 H234 0.930 . S
N229 Li179 1.990 . S
N229 C228 1.314 . S
N229 C232 1.279 . S
C230 C228 1.353 . S
C230 C233 1.348 . S
C230 H262 0.929 . S
C231 C232 1.358 . S
C231 C233 1.356 . S
C231 H263 0.930 . S
C232 N229 1.279 . S
C232 C231 1.358 . S
C232 H235 0.930 . S
C233 C230 1.348 . S
C233 C231 1.356 . S
H234 C228 0.930 . S
H235 C232 0.930 . S
O236 Li176 1.956 . S
O236 Li177 1.970 . S
O236 Li178 1.961 . S
O236 C180 1.325 . S
O237 Li176 1.970 . S
O237 Li177 1.956 . S
O237 Li179 1.961 . S
O237 C186 1.325 . S
O238 Li176 1.961 . S
O238 Li178 1.956 . S
O238 Li179 1.970 . S
O238 C208 1.325 . S
O239 Li177 1.961 . S
O239 Li178 1.970 . S
O239 Li179 1.956 . S
O239 C214 1.325 . S
H240 C182 0.929 . S
H241 C183 0.930 . S
H242 C184 0.930 . S
H243 C185 0.930 . S
H244 C187 0.930 . S
H245 C189 0.929 . S
H246 C190 0.930 . S
H247 C191 0.930 . S
H248 C194 0.930 . S
H249 C197 0.929 . S
H250 C202 0.929 . S
H251 C203 0.930 . S
H252 C210 0.929 . S
H253 C211 0.930 . S
H254 C212 0.930 . S
H255 C213 0.930 . S
H256 C215 0.929 . S
H257 C216 0.930 . S
H258 C217 0.930 . S
H259 C218 0.930 . S
H260 C222 0.929 . S
H261 C224 0.930 . S
H262 C230 0.929 . S
H263 C231 0.930 . S
Li264 N281 1.990 . S
Li264 O324 1.956 . S
Li264 O325 1.970 . S
Li264 O326 1.961 . S
Li265 N289 1.990 . S
Li265 O324 1.970 . S
Li265 O325 1.956 . S
Li265 O327 1.961 . S
Li266 N311 1.990 . S
Li266 O324 1.961 . S
Li266 O326 1.956 . S
Li266 O327 1.970 . S
Li267 N317 1.990 . S
Li267 O325 1.961 . S
Li267 O326 1.970 . S
Li267 O327 1.956 . S
C268 C270 1.348 . S
C268 C271 1.356 . S
C268 O324 1.325 . S
N269 C272 1.314 . S
N269 C273 1.279 . S
C270 C268 1.348 . S
C270 C272 1.353 . S
C270 H328 0.929 . S
C271 C268 1.356 . S
C271 C273 1.358 . S
C271 H329 0.930 . S
C272 N269 1.314 . S
C272 C270 1.353 . S
C272 H330 0.930 . S
C273 N269 1.279 . S
C273 C271 1.358 . S
C273 H331 0.930 . S
C274 C277 1.348 . S
C274 C278 1.356 . S
C274 O325 1.325 . S
C275 N276 1.279 . S
C275 C278 1.358 . S
C275 H332 0.930 . S
N276 C275 1.279 . S
N276 C279 1.314 . S
C277 C274 1.348 . S
C277 C279 1.353 . S
C277 H333 0.929 . S
C278 C274 1.356 . S
C278 C275 1.358 . S
C278 H334 0.930 . S
C279 N276 1.314 . S
C279 C277 1.353 . S
C279 H335 0.930 . S
C280 N281 1.314 . S
C280 C285 1.353 . S
C280 H286 0.930 . S
N281 Li264 1.990 . S
N281 C280 1.314 . S
N281 C283 1.279 . S
C282 C283 1.358 . S
C282 C284 1.356 . S
C282 H336 0.930 . S
C283 N281 1.279 . S
C283 C282 1.358 . S
C283 H287 0.930 . S
C284 C282 1.356 . S
C284 C285 1.348 . S
C285 C280 1.353 . S
C285 C284 1.348 . S
C285 H337 0.929 . S
H286 C280 0.930 . S
H287 C283 0.930 . S
C288 N289 1.314 . S
C288 C290 1.353 . S
C288 H294 0.930 . S
N289 Li265 1.990 . S
N289 C288 1.314 . S
N289 C292 1.279 . S
C290 C288 1.353 . S
C290 C293 1.348 . S
C290 H338 0.929 . S
C291 C292 1.358 . S
C291 C293 1.356 . S
C291 H339 0.930 . S
C292 N289 1.279 . S
C292 C291 1.358 . S
C292 H295 0.930 . S
C293 C290 1.348 . S
C293 C291 1.356 . S
H294 C288 0.930 . S
H295 C292 0.930 . S
C296 C298 1.348 . S
C296 C299 1.356 . S
C296 O326 1.325 . S
N297 C300 1.314 . S
N297 C301 1.279 . S
C298 C296 1.348 . S
C298 C300 1.353 . S
C298 H340 0.929 . S
C299 C296 1.356 . S
C299 C301 1.358 . S
C299 H341 0.930 . S
C300 N297 1.314 . S
C300 C298 1.353 . S
C300 H342 0.930 . S
C301 N297 1.279 . S
C301 C299 1.358 . S
C301 H343 0.930 . S
C302 C303 1.348 . S
C302 C304 1.356 . S
C302 O327 1.325 . S
C303 C302 1.348 . S
C303 C305 1.353 . S
C303 H344 0.929 . S
C304 C302 1.356 . S
C304 C306 1.358 . S
C304 H345 0.930 . S
C305 C303 1.353 . S
C305 N307 1.314 . S
C305 H346 0.930 . S
C306 C304 1.358 . S
C306 N307 1.279 . S
C306 H347 0.930 . S
N307 C305 1.314 . S
N307 C306 1.279 . S
C308 C310 1.353 . S
C308 N311 1.314 . S
C308 H314 0.930 . S
C309 N311 1.279 . S
C309 C312 1.358 . S
C309 H315 0.930 . S
C310 C308 1.353 . S
C310 C313 1.348 . S
C310 H348 0.929 . S
N311 Li266 1.990 . S
N311 C308 1.314 . S
N311 C309 1.279 . S
C312 C309 1.358 . S
C312 C313 1.356 . S
C312 H349 0.930 . S
C313 C310 1.348 . S
C313 C312 1.356 . S
H314 C308 0.930 . S
H315 C309 0.930 . S
C316 N317 1.314 . S
C316 C318 1.353 . S
C316 H322 0.930 . S
N317 Li267 1.990 . S
N317 C316 1.314 . S
N317 C320 1.279 . S
C318 C316 1.353 . S
C318 C321 1.348 . S
C318 H350 0.929 . S
C319 C320 1.358 . S
C319 C321 1.356 . S
C319 H351 0.930 . S
C320 N317 1.279 . S
C320 C319 1.358 . S
C320 H323 0.930 . S
C321 C318 1.348 . S
C321 C319 1.356 . S
H322 C316 0.930 . S
H323 C320 0.930 . S
O324 Li264 1.956 . S
O324 Li265 1.970 . S
O324 Li266 1.961 . S
O324 C268 1.325 . S
O325 Li264 1.970 . S
O325 Li265 1.956 . S
O325 Li267 1.961 . S
O325 C274 1.325 . S
O326 Li264 1.961 . S
O326 Li266 1.956 . S
O326 Li267 1.970 . S
O326 C296 1.325 . S
O327 Li265 1.961 . S
O327 Li266 1.970 . S
O327 Li267 1.956 . S
O327 C302 1.325 . S
H328 C270 0.929 . S
H329 C271 0.930 . S
H330 C272 0.930 . S
H331 C273 0.930 . S
H332 C275 0.930 . S
H333 C277 0.929 . S
H334 C278 0.930 . S
H335 C279 0.930 . S
H336 C282 0.930 . S
H337 C285 0.929 . S
H338 C290 0.929 . S
H339 C291 0.930 . S
H340 C298 0.929 . S
H341 C299 0.930 . S
H342 C300 0.930 . S
H343 C301 0.930 . S
H344 C303 0.929 . S
H345 C304 0.930 . S
H346 C305 0.930 . S
H347 C306 0.930 . S
H348 C310 0.929 . S
H349 C312 0.930 . S
H350 C318 0.929 . S
H351 C319 0.930 . S
Li352 N369 1.990 . S
Li352 O412 1.956 . S
Li352 O413 1.970 . S
Li352 O414 1.961 . S
Li353 N377 1.990 . S
Li353 O412 1.970 . S
Li353 O413 1.956 . S
Li353 O415 1.961 . S
Li354 N399 1.990 . S
Li354 O412 1.961 . S
Li354 O414 1.956 . S
Li354 O415 1.970 . S
Li355 N405 1.990 . S
Li355 O413 1.961 . S
Li355 O414 1.970 . S
Li355 O415 1.956 . S
C356 C358 1.348 . S
C356 C359 1.356 . S
C356 O412 1.325 . S
N357 C360 1.314 . S
N357 C361 1.279 . S
C358 C356 1.348 . S
C358 C360 1.353 . S
C358 H416 0.929 . S
C359 C356 1.356 . S
C359 C361 1.358 . S
C359 H417 0.930 . S
C360 N357 1.314 . S
C360 C358 1.353 . S
C360 H418 0.930 . S
C361 N357 1.279 . S
C361 C359 1.358 . S
C361 H419 0.930 . S
C362 C365 1.348 . S
C362 C366 1.356 . S
C362 O413 1.325 . S
C363 N364 1.279 . S
C363 C366 1.358 . S
C363 H420 0.930 . S
N364 C363 1.279 . S
N364 C367 1.314 . S
C365 C362 1.348 . S
C365 C367 1.353 . S
C365 H421 0.929 . S
C366 C362 1.356 . S
C366 C363 1.358 . S
C366 H422 0.930 . S
C367 N364 1.314 . S
C367 C365 1.353 . S
C367 H423 0.930 . S
C368 N369 1.314 . S
C368 C373 1.353 . S
C368 H374 0.930 . S
N369 Li352 1.990 . S
N369 C368 1.314 . S
N369 C371 1.279 . S
C370 C371 1.358 . S
C370 C372 1.356 . S
C370 H424 0.930 . S
C371 N369 1.279 . S
C371 C370 1.358 . S
C371 H375 0.930 . S
C372 C370 1.356 . S
C372 C373 1.348 . S
C373 C368 1.353 . S
C373 C372 1.348 . S
C373 H425 0.929 . S
H374 C368 0.930 . S
H375 C371 0.930 . S
C376 N377 1.314 . S
C376 C378 1.353 . S
C376 H382 0.930 . S
N377 Li353 1.990 . S
N377 C376 1.314 . S
N377 C380 1.279 . S
C378 C376 1.353 . S
C378 C381 1.348 . S
C378 H426 0.929 . S
C379 C380 1.358 . S
C379 C381 1.356 . S
C379 H427 0.930 . S
C380 N377 1.279 . S
C380 C379 1.358 . S
C380 H383 0.930 . S
C381 C378 1.348 . S
C381 C379 1.356 . S
H382 C376 0.930 . S
H383 C380 0.930 . S
C384 C386 1.348 . S
C384 C387 1.356 . S
C384 O414 1.325 . S
N385 C388 1.314 . S
N385 C389 1.279 . S
C386 C384 1.348 . S
C386 C388 1.353 . S
C386 H428 0.929 . S
C387 C384 1.356 . S
C387 C389 1.358 . S
C387 H429 0.930 . S
C388 N385 1.314 . S
C388 C386 1.353 . S
C388 H430 0.930 . S
C389 N385 1.279 . S
C389 C387 1.358 . S
C389 H431 0.930 . S
C390 C391 1.348 . S
C390 C392 1.356 . S
C390 O415 1.325 . S
C391 C390 1.348 . S
C391 C393 1.353 . S
C391 H432 0.929 . S
C392 C390 1.356 . S
C392 C394 1.358 . S
C392 H433 0.930 . S
C393 C391 1.353 . S
C393 N395 1.314 . S
C393 H434 0.930 . S
C394 C392 1.358 . S
C394 N395 1.279 . S
C394 H435 0.930 . S
N395 C393 1.314 . S
N395 C394 1.279 . S
C396 C398 1.353 . S
C396 N399 1.314 . S
C396 H402 0.930 . S
C397 N399 1.279 . S
C397 C400 1.358 . S
C397 H403 0.930 . S
C398 C396 1.353 . S
C398 C401 1.348 . S
C398 H436 0.929 . S
N399 Li354 1.990 . S
N399 C396 1.314 . S
N399 C397 1.279 . S
C400 C397 1.358 . S
C400 C401 1.356 . S
C400 H437 0.930 . S
C401 C398 1.348 . S
C401 C400 1.356 . S
H402 C396 0.930 . S
H403 C397 0.930 . S
C404 N405 1.314 . S
C404 C406 1.353 . S
C404 H410 0.930 . S
N405 Li355 1.990 . S
N405 C404 1.314 . S
N405 C408 1.279 . S
C406 C404 1.353 . S
C406 C409 1.348 . S
C406 H438 0.929 . S
C407 C408 1.358 . S
C407 C409 1.356 . S
C407 H439 0.930 . S
C408 N405 1.279 . S
C408 C407 1.358 . S
C408 H411 0.930 . S
C409 C406 1.348 . S
C409 C407 1.356 . S
H410 C404 0.930 . S
H411 C408 0.930 . S
O412 Li352 1.956 . S
O412 Li353 1.970 . S
O412 Li354 1.961 . S
O412 C356 1.325 . S
O413 Li352 1.970 . S
O413 Li353 1.956 . S
O413 Li355 1.961 . S
O413 C362 1.325 . S
O414 Li352 1.961 . S
O414 Li354 1.956 . S
O414 Li355 1.970 . S
O414 C384 1.325 . S
O415 Li353 1.961 . S
O415 Li354 1.970 . S
O415 Li355 1.956 . S
O415 C390 1.325 . S
H416 C358 0.929 . S
H417 C359 0.930 . S
H418 C360 0.930 . S
H419 C361 0.930 . S
H420 C363 0.930 . S
H421 C365 0.929 . S
H422 C366 0.930 . S
H423 C367 0.930 . S
H424 C370 0.930 . S
H425 C373 0.929 . S
H426 C378 0.929 . S
H427 C379 0.930 . S
H428 C386 0.929 . S
H429 C387 0.930 . S
H430 C388 0.930 . S
H431 C389 0.930 . S
H432 C391 0.929 . S
H433 C392 0.930 . S
H434 C393 0.930 . S
H435 C394 0.930 . S
H436 C398 0.929 . S
H437 C400 0.930 . S
H438 C406 0.929 . S
H439 C407 0.930 . S
Li440 N457 1.990 . S
Li440 O500 1.956 . S
Li440 O501 1.970 . S
Li440 O502 1.961 . S
Li441 N465 1.990 . S
Li441 O500 1.970 . S
Li441 O501 1.956 . S
Li441 O503 1.961 . S
Li442 N487 1.990 . S
Li442 O500 1.961 . S
Li442 O502 1.956 . S
Li442 O503 1.970 . S
Li443 N493 1.990 . S
Li443 O501 1.961 . S
Li443 O502 1.970 . S
Li443 O503 1.956 . S
C444 C446 1.348 . S
C444 C447 1.356 . S
C444 O500 1.325 . S
N445 C448 1.314 . S
N445 C449 1.279 . S
C446 C444 1.348 . S
C446 C448 1.353 . S
C446 H504 0.929 . S
C447 C444 1.356 . S
C447 C449 1.358 . S
C447 H505 0.930 . S
C448 N445 1.314 . S
C448 C446 1.353 . S
C448 H506 0.930 . S
C449 N445 1.279 . S
C449 C447 1.358 . S
C449 H507 0.930 . S
C450 C453 1.348 . S
C450 C454 1.356 . S
C450 O501 1.325 . S
C451 N452 1.279 . S
C451 C454 1.358 . S
C451 H508 0.930 . S
N452 C451 1.279 . S
N452 C455 1.314 . S
C453 C450 1.348 . S
C453 C455 1.353 . S
C453 H509 0.929 . S
C454 C450 1.356 . S
C454 C451 1.358 . S
C454 H510 0.930 . S
C455 N452 1.314 . S
C455 C453 1.353 . S
C455 H511 0.930 . S
C456 N457 1.314 . S
C456 C461 1.353 . S
C456 H462 0.930 . S
N457 Li440 1.990 . S
N457 C456 1.314 . S
N457 C459 1.279 . S
C458 C459 1.358 . S
C458 C460 1.356 . S
C458 H512 0.930 . S
C459 N457 1.279 . S
C459 C458 1.358 . S
C459 H463 0.930 . S
C460 C458 1.356 . S
C460 C461 1.348 . S
C461 C456 1.353 . S
C461 C460 1.348 . S
C461 H513 0.929 . S
H462 C456 0.930 . S
H463 C459 0.930 . S
C464 N465 1.314 . S
C464 C466 1.353 . S
C464 H470 0.930 . S
N465 Li441 1.990 . S
N465 C464 1.314 . S
N465 C468 1.279 . S
C466 C464 1.353 . S
C466 C469 1.348 . S
C466 H514 0.929 . S
C467 C468 1.358 . S
C467 C469 1.356 . S
C467 H515 0.930 . S
C468 N465 1.279 . S
C468 C467 1.358 . S
C468 H471 0.930 . S
C469 C466 1.348 . S
C469 C467 1.356 . S
H470 C464 0.930 . S
H471 C468 0.930 . S
C472 C474 1.348 . S
C472 C475 1.356 . S
C472 O502 1.325 . S
N473 C476 1.314 . S
N473 C477 1.279 . S
C474 C472 1.348 . S
C474 C476 1.353 . S
C474 H516 0.929 . S
C475 C472 1.356 . S
C475 C477 1.358 . S
C475 H517 0.930 . S
C476 N473 1.314 . S
C476 C474 1.353 . S
C476 H518 0.930 . S
C477 N473 1.279 . S
C477 C475 1.358 . S
C477 H519 0.930 . S
C478 C479 1.348 . S
C478 C480 1.356 . S
C478 O503 1.325 . S
C479 C478 1.348 . S
C479 C481 1.353 . S
C479 H520 0.929 . S
C480 C478 1.356 . S
C480 C482 1.358 . S
C480 H521 0.930 . S
C481 C479 1.353 . S
C481 N483 1.314 . S
C481 H522 0.930 . S
C482 C480 1.358 . S
C482 N483 1.279 . S
C482 H523 0.930 . S
N483 C481 1.314 . S
N483 C482 1.279 . S
C484 C486 1.353 . S
C484 N487 1.314 . S
C484 H490 0.930 . S
C485 N487 1.279 . S
C485 C488 1.358 . S
C485 H491 0.930 . S
C486 C484 1.353 . S
C486 C489 1.348 . S
C486 H524 0.929 . S
N487 Li442 1.990 . S
N487 C484 1.314 . S
N487 C485 1.279 . S
C488 C485 1.358 . S
C488 C489 1.356 . S
C488 H525 0.930 . S
C489 C486 1.348 . S
C489 C488 1.356 . S
H490 C484 0.930 . S
H491 C485 0.930 . S
C492 N493 1.314 . S
C492 C494 1.353 . S
C492 H498 0.930 . S
N493 Li443 1.990 . S
N493 C492 1.314 . S
N493 C496 1.279 . S
C494 C492 1.353 . S
C494 C497 1.348 . S
C494 H526 0.929 . S
C495 C496 1.358 . S
C495 C497 1.356 . S
C495 H527 0.930 . S
C496 N493 1.279 . S
C496 C495 1.358 . S
C496 H499 0.930 . S
C497 C494 1.348 . S
C497 C495 1.356 . S
H498 C492 0.930 . S
H499 C496 0.930 . S
O500 Li440 1.956 . S
O500 Li441 1.970 . S
O500 Li442 1.961 . S
O500 C444 1.325 . S
O501 Li440 1.970 . S
O501 Li441 1.956 . S
O501 Li443 1.961 . S
O501 C450 1.325 . S
O502 Li440 1.961 . S
O502 Li442 1.956 . S
O502 Li443 1.970 . S
O502 C472 1.325 . S
O503 Li441 1.961 . S
O503 Li442 1.970 . S
O503 Li443 1.956 . S
O503 C478 1.325 . S
H504 C446 0.929 . S
H505 C447 0.930 . S
H506 C448 0.930 . S
H507 C449 0.930 . S
H508 C451 0.930 . S
H509 C453 0.929 . S
H510 C454 0.930 . S
H511 C455 0.930 . S
H512 C458 0.930 . S
H513 C461 0.929 . S
H514 C466 0.929 . S
H515 C467 0.930 . S
H516 C474 0.929 . S
H517 C475 0.930 . S
H518 C476 0.930 . S
H519 C477 0.930 . S
H520 C479 0.929 . S
H521 C480 0.930 . S
H522 C481 0.930 . S
H523 C482 0.930 . S
H524 C486 0.929 . S
H525 C488 0.930 . S
H526 C494 0.929 . S
H527 C495 0.930 . S
Li528 N545 1.990 . S
Li528 O588 1.956 . S
Li528 O589 1.970 . S
Li528 O590 1.961 . S
Li529 N553 1.990 . S
Li529 O588 1.970 . S
Li529 O589 1.956 . S
Li529 O591 1.961 . S
Li530 N575 1.990 . S
Li530 O588 1.961 . S
Li530 O590 1.956 . S
Li530 O591 1.970 . S
Li531 N581 1.990 . S
Li531 O589 1.961 . S
Li531 O590 1.970 . S
Li531 O591 1.956 . S
C532 C534 1.348 . S
C532 C535 1.356 . S
C532 O588 1.325 . S
N533 C536 1.314 . S
N533 C537 1.279 . S
C534 C532 1.348 . S
C534 C536 1.353 . S
C534 H592 0.929 . S
C535 C532 1.356 . S
C535 C537 1.358 . S
C535 H593 0.930 . S
C536 N533 1.314 . S
C536 C534 1.353 . S
C536 H594 0.930 . S
C537 N533 1.279 . S
C537 C535 1.358 . S
C537 H595 0.930 . S
C538 C541 1.348 . S
C538 C542 1.356 . S
C538 O589 1.325 . S
C539 N540 1.279 . S
C539 C542 1.358 . S
C539 H596 0.930 . S
N540 C539 1.279 . S
N540 C543 1.314 . S
C541 C538 1.348 . S
C541 C543 1.353 . S
C541 H597 0.929 . S
C542 C538 1.356 . S
C542 C539 1.358 . S
C542 H598 0.930 . S
C543 N540 1.314 . S
C543 C541 1.353 . S
C543 H599 0.930 . S
C544 N545 1.314 . S
C544 C549 1.353 . S
C544 H550 0.930 . S
N545 Li528 1.990 . S
N545 C544 1.314 . S
N545 C547 1.279 . S
C546 C547 1.358 . S
C546 C548 1.356 . S
C546 H600 0.930 . S
C547 N545 1.279 . S
C547 C546 1.358 . S
C547 H551 0.930 . S
C548 C546 1.356 . S
C548 C549 1.348 . S
C549 C544 1.353 . S
C549 C548 1.348 . S
C549 H601 0.929 . S
H550 C544 0.930 . S
H551 C547 0.930 . S
C552 N553 1.314 . S
C552 C554 1.353 . S
C552 H558 0.930 . S
N553 Li529 1.990 . S
N553 C552 1.314 . S
N553 C556 1.279 . S
C554 C552 1.353 . S
C554 C557 1.348 . S
C554 H602 0.929 . S
C555 C556 1.358 . S
C555 C557 1.356 . S
C555 H603 0.930 . S
C556 N553 1.279 . S
C556 C555 1.358 . S
C556 H559 0.930 . S
C557 C554 1.348 . S
C557 C555 1.356 . S
H558 C552 0.930 . S
H559 C556 0.930 . S
C560 C562 1.348 . S
C560 C563 1.356 . S
C560 O590 1.325 . S
N561 C564 1.314 . S
N561 C565 1.279 . S
C562 C560 1.348 . S
C562 C564 1.353 . S
C562 H604 0.929 . S
C563 C560 1.356 . S
C563 C565 1.358 . S
C563 H605 0.930 . S
C564 N561 1.314 . S
C564 C562 1.353 . S
C564 H606 0.930 . S
C565 N561 1.279 . S
C565 C563 1.358 . S
C565 H607 0.930 . S
C566 C567 1.348 . S
C566 C568 1.356 . S
C566 O591 1.325 . S
C567 C566 1.348 . S
C567 C569 1.353 . S
C567 H608 0.929 . S
C568 C566 1.356 . S
C568 C570 1.358 . S
C568 H609 0.930 . S
C569 C567 1.353 . S
C569 N571 1.314 . S
C569 H610 0.930 . S
C570 C568 1.358 . S
C570 N571 1.279 . S
C570 H611 0.930 . S
N571 C569 1.314 . S
N571 C570 1.279 . S
C572 C574 1.353 . S
C572 N575 1.314 . S
C572 H578 0.930 . S
C573 N575 1.279 . S
C573 C576 1.358 . S
C573 H579 0.930 . S
C574 C572 1.353 . S
C574 C577 1.348 . S
C574 H612 0.929 . S
N575 Li530 1.990 . S
N575 C572 1.314 . S
N575 C573 1.279 . S
C576 C573 1.358 . S
C576 C577 1.356 . S
C576 H613 0.930 . S
C577 C574 1.348 . S
C577 C576 1.356 . S
H578 C572 0.930 . S
H579 C573 0.930 . S
C580 N581 1.314 . S
C580 C582 1.353 . S
C580 H586 0.930 . S
N581 Li531 1.990 . S
N581 C580 1.314 . S
N581 C584 1.279 . S
C582 C580 1.353 . S
C582 C585 1.348 . S
C582 H614 0.929 . S
C583 C584 1.358 . S
C583 C585 1.356 . S
C583 H615 0.930 . S
C584 N581 1.279 . S
C584 C583 1.358 . S
C584 H587 0.930 . S
C585 C582 1.348 . S
C585 C583 1.356 . S
H586 C580 0.930 . S
H587 C584 0.930 . S
O588 Li528 1.956 . S
O588 Li529 1.970 . S
O588 Li530 1.961 . S
O588 C532 1.325 . S
O589 Li528 1.970 . S
O589 Li529 1.956 . S
O589 Li531 1.961 . S
O589 C538 1.325 . S
O590 Li528 1.961 . S
O590 Li530 1.956 . S
O590 Li531 1.970 . S
O590 C560 1.325 . S
O591 Li529 1.961 . S
O591 Li530 1.970 . S
O591 Li531 1.956 . S
O591 C566 1.325 . S
H592 C534 0.929 . S
H593 C535 0.930 . S
H594 C536 0.930 . S
H595 C537 0.930 . S
H596 C539 0.930 . S
H597 C541 0.929 . S
H598 C542 0.930 . S
H599 C543 0.930 . S
H600 C546 0.930 . S
H601 C549 0.929 . S
H602 C554 0.929 . S
H603 C555 0.930 . S
H604 C562 0.929 . S
H605 C563 0.930 . S
H606 C564 0.930 . S
H607 C565 0.930 . S
H608 C567 0.929 . S
H609 C568 0.930 . S
H610 C569 0.930 . S
H611 C570 0.930 . S
H612 C574 0.929 . S
H613 C576 0.930 . S
H614 C582 0.929 . S
H615 C583 0.930 . S
Li616 N633 1.990 . S
Li616 O676 1.956 . S
Li616 O677 1.970 . S
Li616 O678 1.961 . S
Li617 N641 1.990 . S
Li617 O676 1.970 . S
Li617 O677 1.956 . S
Li617 O679 1.961 . S
Li618 N663 1.990 . S
Li618 O676 1.961 . S
Li618 O678 1.956 . S
Li618 O679 1.970 . S
Li619 N669 1.990 . S
Li619 O677 1.961 . S
Li619 O678 1.970 . S
Li619 O679 1.956 . S
C620 C622 1.348 . S
C620 C623 1.356 . S
C620 O676 1.325 . S
N621 C624 1.314 . S
N621 C625 1.279 . S
C622 C620 1.348 . S
C622 C624 1.353 . S
C622 H680 0.929 . S
C623 C620 1.356 . S
C623 C625 1.358 . S
C623 H681 0.930 . S
C624 N621 1.314 . S
C624 C622 1.353 . S
C624 H682 0.930 . S
C625 N621 1.279 . S
C625 C623 1.358 . S
C625 H683 0.930 . S
C626 C629 1.348 . S
C626 C630 1.356 . S
C626 O677 1.325 . S
C627 N628 1.279 . S
C627 C630 1.358 . S
C627 H684 0.930 . S
N628 C627 1.279 . S
N628 C631 1.314 . S
C629 C626 1.348 . S
C629 C631 1.353 . S
C629 H685 0.929 . S
C630 C626 1.356 . S
C630 C627 1.358 . S
C630 H686 0.930 . S
C631 N628 1.314 . S
C631 C629 1.353 . S
C631 H687 0.930 . S
C632 N633 1.314 . S
C632 C637 1.353 . S
C632 H638 0.930 . S
N633 Li616 1.990 . S
N633 C632 1.314 . S
N633 C635 1.279 . S
C634 C635 1.358 . S
C634 C636 1.356 . S
C634 H688 0.930 . S
C635 N633 1.279 . S
C635 C634 1.358 . S
C635 H639 0.930 . S
C636 C634 1.356 . S
C636 C637 1.348 . S
C637 C632 1.353 . S
C637 C636 1.348 . S
C637 H689 0.929 . S
H638 C632 0.930 . S
H639 C635 0.930 . S
C640 N641 1.314 . S
C640 C642 1.353 . S
C640 H646 0.930 . S
N641 Li617 1.990 . S
N641 C640 1.314 . S
N641 C644 1.279 . S
C642 C640 1.353 . S
C642 C645 1.348 . S
C642 H690 0.929 . S
C643 C644 1.358 . S
C643 C645 1.356 . S
C643 H691 0.930 . S
C644 N641 1.279 . S
C644 C643 1.358 . S
C644 H647 0.930 . S
C645 C642 1.348 . S
C645 C643 1.356 . S
H646 C640 0.930 . S
H647 C644 0.930 . S
C648 C650 1.348 . S
C648 C651 1.356 . S
C648 O678 1.325 . S
N649 C652 1.314 . S
N649 C653 1.279 . S
C650 C648 1.348 . S
C650 C652 1.353 . S
C650 H692 0.929 . S
C651 C648 1.356 . S
C651 C653 1.358 . S
C651 H693 0.930 . S
C652 N649 1.314 . S
C652 C650 1.353 . S
C652 H694 0.930 . S
C653 N649 1.279 . S
C653 C651 1.358 . S
C653 H695 0.930 . S
C654 C655 1.348 . S
C654 C656 1.356 . S
C654 O679 1.325 . S
C655 C654 1.348 . S
C655 C657 1.353 . S
C655 H696 0.929 . S
C656 C654 1.356 . S
C656 C658 1.358 . S
C656 H697 0.930 . S
C657 C655 1.353 . S
C657 N659 1.314 . S
C657 H698 0.930 . S
C658 C656 1.358 . S
C658 N659 1.279 . S
C658 H699 0.930 . S
N659 C657 1.314 . S
N659 C658 1.279 . S
C660 C662 1.353 . S
C660 N663 1.314 . S
C660 H666 0.930 . S
C661 N663 1.279 . S
C661 C664 1.358 . S
C661 H667 0.930 . S
C662 C660 1.353 . S
C662 C665 1.348 . S
C662 H700 0.929 . S
N663 Li618 1.990 . S
N663 C660 1.314 . S
N663 C661 1.279 . S
C664 C661 1.358 . S
C664 C665 1.356 . S
C664 H701 0.930 . S
C665 C662 1.348 . S
C665 C664 1.356 . S
H666 C660 0.930 . S
H667 C661 0.930 . S
C668 N669 1.314 . S
C668 C670 1.353 . S
C668 H674 0.930 . S
N669 Li619 1.990 . S
N669 C668 1.314 . S
N669 C672 1.279 . S
C670 C668 1.353 . S
C670 C673 1.348 . S
C670 H702 0.929 . S
C671 C672 1.358 . S
C671 C673 1.356 . S
C671 H703 0.930 . S
C672 N669 1.279 . S
C672 C671 1.358 . S
C672 H675 0.930 . S
C673 C670 1.348 . S
C673 C671 1.356 . S
H674 C668 0.930 . S
H675 C672 0.930 . S
O676 Li616 1.956 . S
O676 Li617 1.970 . S
O676 Li618 1.961 . S
O676 C620 1.325 . S
O677 Li616 1.970 . S
O677 Li617 1.956 . S
O677 Li619 1.961 . S
O677 C626 1.325 . S
O678 Li616 1.961 . S
O678 Li618 1.956 . S
O678 Li619 1.970 . S
O678 C648 1.325 . S
O679 Li617 1.961 . S
O679 Li618 1.970 . S
O679 Li619 1.956 . S
O679 C654 1.325 . S
H680 C622 0.929 . S
H681 C623 0.930 . S
H682 C624 0.930 . S
H683 C625 0.930 . S
H684 C627 0.930 . S
H685 C629 0.929 . S
H686 C630 0.930 . S
H687 C631 0.930 . S
H688 C634 0.930 . S
H689 C637 0.929 . S
H690 C642 0.929 . S
H691 C643 0.930 . S
H692 C650 0.929 . S
H693 C651 0.930 . S
H694 C652 0.930 . S
H695 C653 0.930 . S
H696 C655 0.929 . S
H697 C656 0.930 . S
H698 C657 0.930 . S
H699 C658 0.930 . S
H700 C662 0.929 . S
H701 C664 0.930 . S
H702 C670 0.929 . S
H703 C671 0.930 . S
Li704 N721 1.990 . S
Li704 O764 1.956 . S
Li704 O765 1.970 . S
Li704 O766 1.961 . S
Li705 N729 1.990 . S
Li705 O764 1.970 . S
Li705 O765 1.956 . S
Li705 O767 1.961 . S
Li706 N751 1.990 . S
Li706 O764 1.961 . S
Li706 O766 1.956 . S
Li706 O767 1.970 . S
Li707 N757 1.990 . S
Li707 O765 1.961 . S
Li707 O766 1.970 . S
Li707 O767 1.956 . S
C708 C710 1.348 . S
C708 C711 1.356 . S
C708 O764 1.325 . S
N709 C712 1.314 . S
N709 C713 1.279 . S
C710 C708 1.348 . S
C710 C712 1.353 . S
C710 H768 0.929 . S
C711 C708 1.356 . S
C711 C713 1.358 . S
C711 H769 0.930 . S
C712 N709 1.314 . S
C712 C710 1.353 . S
C712 H770 0.930 . S
C713 N709 1.279 . S
C713 C711 1.358 . S
C713 H771 0.930 . S
C714 C717 1.348 . S
C714 C718 1.356 . S
C714 O765 1.325 . S
C715 N716 1.279 . S
C715 C718 1.358 . S
C715 H772 0.930 . S
N716 C715 1.279 . S
N716 C719 1.314 . S
C717 C714 1.348 . S
C717 C719 1.353 . S
C717 H773 0.929 . S
C718 C714 1.356 . S
C718 C715 1.358 . S
C718 H774 0.930 . S
C719 N716 1.314 . S
C719 C717 1.353 . S
C719 H775 0.930 . S
C720 N721 1.314 . S
C720 C725 1.353 . S
C720 H726 0.930 . S
N721 Li704 1.990 . S
N721 C720 1.314 . S
N721 C723 1.279 . S
C722 C723 1.358 . S
C722 C724 1.356 . S
C722 H776 0.930 . S
C723 N721 1.279 . S
C723 C722 1.358 . S
C723 H727 0.930 . S
C724 C722 1.356 . S
C724 C725 1.348 . S
C725 C720 1.353 . S
C725 C724 1.348 . S
C725 H777 0.929 . S
H726 C720 0.930 . S
H727 C723 0.930 . S
C728 N729 1.314 . S
C728 C730 1.353 . S
C728 H734 0.930 . S
N729 Li705 1.990 . S
N729 C728 1.314 . S
N729 C732 1.279 . S
C730 C728 1.353 . S
C730 C733 1.348 . S
C730 H778 0.929 . S
C731 C732 1.358 . S
C731 C733 1.356 . S
C731 H779 0.930 . S
C732 N729 1.279 . S
C732 C731 1.358 . S
C732 H735 0.930 . S
C733 C730 1.348 . S
C733 C731 1.356 . S
H734 C728 0.930 . S
H735 C732 0.930 . S
C736 C738 1.348 . S
C736 C739 1.356 . S
C736 O766 1.325 . S
N737 C740 1.314 . S
N737 C741 1.279 . S
C738 C736 1.348 . S
C738 C740 1.353 . S
C738 H780 0.929 . S
C739 C736 1.356 . S
C739 C741 1.358 . S
C739 H781 0.930 . S
C740 N737 1.314 . S
C740 C738 1.353 . S
C740 H782 0.930 . S
C741 N737 1.279 . S
C741 C739 1.358 . S
C741 H783 0.930 . S
C742 C743 1.348 . S
C742 C744 1.356 . S
C742 O767 1.325 . S
C743 C742 1.348 . S
C743 C745 1.353 . S
C743 H784 0.929 . S
C744 C742 1.356 . S
C744 C746 1.358 . S
C744 H785 0.930 . S
C745 C743 1.353 . S
C745 N747 1.314 . S
C745 H786 0.930 . S
C746 C744 1.358 . S
C746 N747 1.279 . S
C746 H787 0.930 . S
N747 C745 1.314 . S
N747 C746 1.279 . S
C748 C750 1.353 . S
C748 N751 1.314 . S
C748 H754 0.930 . S
C749 N751 1.279 . S
C749 C752 1.358 . S
C749 H755 0.930 . S
C750 C748 1.353 . S
C750 C753 1.348 . S
C750 H788 0.929 . S
N751 Li706 1.990 . S
N751 C748 1.314 . S
N751 C749 1.279 . S
C752 C749 1.358 . S
C752 C753 1.356 . S
C752 H789 0.930 . S
C753 C750 1.348 . S
C753 C752 1.356 . S
H754 C748 0.930 . S
H755 C749 0.930 . S
C756 N757 1.314 . S
C756 C758 1.353 . S
C756 H762 0.930 . S
N757 Li707 1.990 . S
N757 C756 1.314 . S
N757 C760 1.279 . S
C758 C756 1.353 . S
C758 C761 1.348 . S
C758 H790 0.929 . S
C759 C760 1.358 . S
C759 C761 1.356 . S
C759 H791 0.930 . S
C760 N757 1.279 . S
C760 C759 1.358 . S
C760 H763 0.930 . S
C761 C758 1.348 . S
C761 C759 1.356 . S
H762 C756 0.930 . S
H763 C760 0.930 . S
O764 Li704 1.956 . S
O764 Li705 1.970 . S
O764 Li706 1.961 . S
O764 C708 1.325 . S
O765 Li704 1.970 . S
O765 Li705 1.956 . S
O765 Li707 1.961 . S
O765 C714 1.325 . S
O766 Li704 1.961 . S
O766 Li706 1.956 . S
O766 Li707 1.970 . S
O766 C736 1.325 . S
O767 Li705 1.961 . S
O767 Li706 1.970 . S
O767 Li707 1.956 . S
O767 C742 1.325 . S
H768 C710 0.929 . S
H769 C711 0.930 . S
H770 C712 0.930 . S
H771 C713 0.930 . S
H772 C715 0.930 . S
H773 C717 0.929 . S
H774 C718 0.930 . S
H775 C719 0.930 . S
H776 C722 0.930 . S
H777 C725 0.929 . S
H778 C730 0.929 . S
H779 C731 0.930 . S
H780 C738 0.929 . S
H781 C739 0.930 . S
H782 C740 0.930 . S
H783 C741 0.930 . S
H784 C743 0.929 . S
H785 C744 0.930 . S
H786 C745 0.930 . S
H787 C746 0.930 . S
H788 C750 0.929 . S
H789 C752 0.930 . S
H790 C758 0.929 . S
H791 C759 0.930 . S
Li792 N809 1.990 . S
Li792 O852 1.956 . S
Li792 O853 1.970 . S
Li792 O854 1.961 . S
Li793 N817 1.990 . S
Li793 O852 1.970 . S
Li793 O853 1.956 . S
Li793 O855 1.961 . S
Li794 N839 1.990 . S
Li794 O852 1.961 . S
Li794 O854 1.956 . S
Li794 O855 1.970 . S
Li795 N845 1.990 . S
Li795 O853 1.961 . S
Li795 O854 1.970 . S
Li795 O855 1.956 . S
C796 C798 1.348 . S
C796 C799 1.356 . S
C796 O852 1.325 . S
N797 C800 1.314 . S
N797 C801 1.279 . S
C798 C796 1.348 . S
C798 C800 1.353 . S
C798 H856 0.929 . S
C799 C796 1.356 . S
C799 C801 1.358 . S
C799 H857 0.930 . S
C800 N797 1.314 . S
C800 C798 1.353 . S
C800 H858 0.930 . S
C801 N797 1.279 . S
C801 C799 1.358 . S
C801 H859 0.930 . S
C802 C805 1.348 . S
C802 C806 1.356 . S
C802 O853 1.325 . S
C803 N804 1.279 . S
C803 C806 1.358 . S
C803 H860 0.930 . S
N804 C803 1.279 . S
N804 C807 1.314 . S
C805 C802 1.348 . S
C805 C807 1.353 . S
C805 H861 0.929 . S
C806 C802 1.356 . S
C806 C803 1.358 . S
C806 H862 0.930 . S
C807 N804 1.314 . S
C807 C805 1.353 . S
C807 H863 0.930 . S
C808 N809 1.314 . S
C808 C813 1.353 . S
C808 H814 0.930 . S
N809 Li792 1.990 . S
N809 C808 1.314 . S
N809 C811 1.279 . S
C810 C811 1.358 . S
C810 C812 1.356 . S
C810 H864 0.930 . S
C811 N809 1.279 . S
C811 C810 1.358 . S
C811 H815 0.930 . S
C812 C810 1.356 . S
C812 C813 1.348 . S
C813 C808 1.353 . S
C813 C812 1.348 . S
C813 H865 0.929 . S
H814 C808 0.930 . S
H815 C811 0.930 . S
C816 N817 1.314 . S
C816 C818 1.353 . S
C816 H822 0.930 . S
N817 Li793 1.990 . S
N817 C816 1.314 . S
N817 C820 1.279 . S
C818 C816 1.353 . S
C818 C821 1.348 . S
C818 H866 0.929 . S
C819 C820 1.358 . S
C819 C821 1.356 . S
C819 H867 0.930 . S
C820 N817 1.279 . S
C820 C819 1.358 . S
C820 H823 0.930 . S
C821 C818 1.348 . S
C821 C819 1.356 . S
H822 C816 0.930 . S
H823 C820 0.930 . S
C824 C826 1.348 . S
C824 C827 1.356 . S
C824 O854 1.325 . S
N825 C828 1.314 . S
N825 C829 1.279 . S
C826 C824 1.348 . S
C826 C828 1.353 . S
C826 H868 0.929 . S
C827 C824 1.356 . S
C827 C829 1.358 . S
C827 H869 0.930 . S
C828 N825 1.314 . S
C828 C826 1.353 . S
C828 H870 0.930 . S
C829 N825 1.279 . S
C829 C827 1.358 . S
C829 H871 0.930 . S
C830 C831 1.348 . S
C830 C832 1.356 . S
C830 O855 1.325 . S
C831 C830 1.348 . S
C831 C833 1.353 . S
C831 H872 0.929 . S
C832 C830 1.356 . S
C832 C834 1.358 . S
C832 H873 0.930 . S
C833 C831 1.353 . S
C833 N835 1.314 . S
C833 H874 0.930 . S
C834 C832 1.358 . S
C834 N835 1.279 . S
C834 H875 0.930 . S
N835 C833 1.314 . S
N835 C834 1.279 . S
C836 C838 1.353 . S
C836 N839 1.314 . S
C836 H842 0.930 . S
C837 N839 1.279 . S
C837 C840 1.358 . S
C837 H843 0.930 . S
C838 C836 1.353 . S
C838 C841 1.348 . S
C838 H876 0.929 . S
N839 Li794 1.990 . S
N839 C836 1.314 . S
N839 C837 1.279 . S
C840 C837 1.358 . S
C840 C841 1.356 . S
C840 H877 0.930 . S
C841 C838 1.348 . S
C841 C840 1.356 . S
H842 C836 0.930 . S
H843 C837 0.930 . S
C844 N845 1.314 . S
C844 C846 1.353 . S
C844 H850 0.930 . S
N845 Li795 1.990 . S
N845 C844 1.314 . S
N845 C848 1.279 . S
C846 C844 1.353 . S
C846 C849 1.348 . S
C846 H878 0.929 . S
C847 C848 1.358 . S
C847 C849 1.356 . S
C847 H879 0.930 . S
C848 N845 1.279 . S
C848 C847 1.358 . S
C848 H851 0.930 . S
C849 C846 1.348 . S
C849 C847 1.356 . S
H850 C844 0.930 . S
H851 C848 0.930 . S
O852 Li792 1.956 . S
O852 Li793 1.970 . S
O852 Li794 1.961 . S
O852 C796 1.325 . S
O853 Li792 1.970 . S
O853 Li793 1.956 . S
O853 Li795 1.961 . S
O853 C802 1.325 . S
O854 Li792 1.961 . S
O854 Li794 1.956 . S
O854 Li795 1.970 . S
O854 C824 1.325 . S
O855 Li793 1.961 . S
O855 Li794 1.970 . S
O855 Li795 1.956 . S
O855 C830 1.325 . S
H856 C798 0.929 . S
H857 C799 0.930 . S
H858 C800 0.930 . S
H859 C801 0.930 . S
H860 C803 0.930 . S
H861 C805 0.929 . S
H862 C806 0.930 . S
H863 C807 0.930 . S
H864 C810 0.930 . S
H865 C813 0.929 . S
H866 C818 0.929 . S
H867 C819 0.930 . S
H868 C826 0.929 . S
H869 C827 0.930 . S
H870 C828 0.930 . S
H871 C829 0.930 . S
H872 C831 0.929 . S
H873 C832 0.930 . S
H874 C833 0.930 . S
H875 C834 0.930 . S
H876 C838 0.929 . S
H877 C840 0.930 . S
H878 C846 0.929 . S
H879 C847 0.930 . S
Li880 N897 1.990 . S
Li880 O940 1.956 . S
Li880 O941 1.970 . S
Li880 O942 1.961 . S
Li881 N905 1.990 . S
Li881 O940 1.970 . S
Li881 O941 1.956 . S
Li881 O943 1.961 . S
Li882 N927 1.990 . S
Li882 O940 1.961 . S
Li882 O942 1.956 . S
Li882 O943 1.970 . S
Li883 N933 1.990 . S
Li883 O941 1.961 . S
Li883 O942 1.970 . S
Li883 O943 1.956 . S
C884 C886 1.348 . S
C884 C887 1.356 . S
C884 O940 1.325 . S
N885 C888 1.314 . S
N885 C889 1.279 . S
C886 C884 1.348 . S
C886 C888 1.353 . S
C886 H944 0.929 . S
C887 C884 1.356 . S
C887 C889 1.358 . S
C887 H945 0.930 . S
C888 N885 1.314 . S
C888 C886 1.353 . S
C888 H946 0.930 . S
C889 N885 1.279 . S
C889 C887 1.358 . S
C889 H947 0.930 . S
C890 C893 1.348 . S
C890 C894 1.356 . S
C890 O941 1.325 . S
C891 N892 1.279 . S
C891 C894 1.358 . S
C891 H948 0.930 . S
N892 C891 1.279 . S
N892 C895 1.314 . S
C893 C890 1.348 . S
C893 C895 1.353 . S
C893 H949 0.929 . S
C894 C890 1.356 . S
C894 C891 1.358 . S
C894 H950 0.930 . S
C895 N892 1.314 . S
C895 C893 1.353 . S
C895 H951 0.930 . S
C896 N897 1.314 . S
C896 C901 1.353 . S
C896 H902 0.930 . S
N897 Li880 1.990 . S
N897 C896 1.314 . S
N897 C899 1.279 . S
C898 C899 1.358 . S
C898 C900 1.356 . S
C898 H952 0.930 . S
C899 N897 1.279 . S
C899 C898 1.358 . S
C899 H903 0.930 . S
C900 C898 1.356 . S
C900 C901 1.348 . S
C901 C896 1.353 . S
C901 C900 1.348 . S
C901 H953 0.929 . S
H902 C896 0.930 . S
H903 C899 0.930 . S
C904 N905 1.314 . S
C904 C906 1.353 . S
C904 H910 0.930 . S
N905 Li881 1.990 . S
N905 C904 1.314 . S
N905 C908 1.279 . S
C906 C904 1.353 . S
C906 C909 1.348 . S
C906 H954 0.929 . S
C907 C908 1.358 . S
C907 C909 1.356 . S
C907 H955 0.930 . S
C908 N905 1.279 . S
C908 C907 1.358 . S
C908 H911 0.930 . S
C909 C906 1.348 . S
C909 C907 1.356 . S
H910 C904 0.930 . S
H911 C908 0.930 . S
C912 C914 1.348 . S
C912 C915 1.356 . S
C912 O942 1.325 . S
N913 C916 1.314 . S
N913 C917 1.279 . S
C914 C912 1.348 . S
C914 C916 1.353 . S
C914 H956 0.929 . S
C915 C912 1.356 . S
C915 C917 1.358 . S
C915 H957 0.930 . S
C916 N913 1.314 . S
C916 C914 1.353 . S
C916 H958 0.930 . S
C917 N913 1.279 . S
C917 C915 1.358 . S
C917 H959 0.930 . S
C918 C919 1.348 . S
C918 C920 1.356 . S
C918 O943 1.325 . S
C919 C918 1.348 . S
C919 C921 1.353 . S
C919 H960 0.929 . S
C920 C918 1.356 . S
C920 C922 1.358 . S
C920 H961 0.930 . S
C921 C919 1.353 . S
C921 N923 1.314 . S
C921 H962 0.930 . S
C922 C920 1.358 . S
C922 N923 1.279 . S
C922 H963 0.930 . S
N923 C921 1.314 . S
N923 C922 1.279 . S
C924 C926 1.353 . S
C924 N927 1.314 . S
C924 H930 0.930 . S
C925 N927 1.279 . S
C925 C928 1.358 . S
C925 H931 0.930 . S
C926 C924 1.353 . S
C926 C929 1.348 . S
C926 H964 0.929 . S
N927 Li882 1.990 . S
N927 C924 1.314 . S
N927 C925 1.279 . S
C928 C925 1.358 . S
C928 C929 1.356 . S
C928 H965 0.930 . S
C929 C926 1.348 . S
C929 C928 1.356 . S
H930 C924 0.930 . S
H931 C925 0.930 . S
C932 N933 1.314 . S
C932 C934 1.353 . S
C932 H938 0.930 . S
N933 Li883 1.990 . S
N933 C932 1.314 . S
N933 C936 1.279 . S
C934 C932 1.353 . S
C934 C937 1.348 . S
C934 H966 0.929 . S
C935 C936 1.358 . S
C935 C937 1.356 . S
C935 H967 0.930 . S
C936 N933 1.279 . S
C936 C935 1.358 . S
C936 H939 0.930 . S
C937 C934 1.348 . S
C937 C935 1.356 . S
H938 C932 0.930 . S
H939 C936 0.930 . S
O940 Li880 1.956 . S
O940 Li881 1.970 . S
O940 Li882 1.961 . S
O940 C884 1.325 . S
O941 Li880 1.970 . S
O941 Li881 1.956 . S
O941 Li883 1.961 . S
O941 C890 1.325 . S
O942 Li880 1.961 . S
O942 Li882 1.956 . S
O942 Li883 1.970 . S
O942 C912 1.325 . S
O943 Li881 1.961 . S
O943 Li882 1.970 . S
O943 Li883 1.956 . S
O943 C918 1.325 . S
H944 C886 0.929 . S
H945 C887 0.930 . S
H946 C888 0.930 . S
H947 C889 0.930 . S
H948 C891 0.930 . S
H949 C893 0.929 . S
H950 C894 0.930 . S
H951 C895 0.930 . S
H952 C898 0.930 . S
H953 C901 0.929 . S
H954 C906 0.929 . S
H955 C907 0.930 . S
H956 C914 0.929 . S
H957 C915 0.930 . S
H958 C916 0.930 . S
H959 C917 0.930 . S
H960 C919 0.929 . S
H961 C920 0.930 . S
H962 C921 0.930 . S
H963 C922 0.930 . S
H964 C926 0.929 . S
H965 C928 0.930 . S
H966 C934 0.929 . S
H967 C935 0.930 . S
Li968 N985 1.990 . S
Li968 O1028 1.956 . S
Li968 O1029 1.970 . S
Li968 O1030 1.961 . S
Li969 N993 1.990 . S
Li969 O1028 1.970 . S
Li969 O1029 1.956 . S
Li969 O1031 1.961 . S
Li970 N1015 1.990 . S
Li970 O1028 1.961 . S
Li970 O1030 1.956 . S
Li970 O1031 1.970 . S
Li971 N1021 1.990 . S
Li971 O1029 1.961 . S
Li971 O1030 1.970 . S
Li971 O1031 1.956 . S
C972 C974 1.348 . S
C972 C975 1.356 . S
C972 O1028 1.325 . S
N973 C976 1.314 . S
N973 C977 1.279 . S
C974 C972 1.348 . S
C974 C976 1.353 . S
C974 H1032 0.929 . S
C975 C972 1.356 . S
C975 C977 1.358 . S
C975 H1033 0.930 . S
C976 N973 1.314 . S
C976 C974 1.353 . S
C976 H1034 0.930 . S
C977 N973 1.279 . S
C977 C975 1.358 . S
C977 H1035 0.930 . S
C978 C981 1.348 . S
C978 C982 1.356 . S
C978 O1029 1.325 . S
C979 N980 1.279 . S
C979 C982 1.358 . S
C979 H1036 0.930 . S
N980 C979 1.279 . S
N980 C983 1.314 . S
C981 C978 1.348 . S
C981 C983 1.353 . S
C981 H1037 0.929 . S
C982 C978 1.356 . S
C982 C979 1.358 . S
C982 H1038 0.930 . S
C983 N980 1.314 . S
C983 C981 1.353 . S
C983 H1039 0.930 . S
C984 N985 1.314 . S
C984 C989 1.353 . S
C984 H990 0.930 . S
N985 Li968 1.990 . S
N985 C984 1.314 . S
N985 C987 1.279 . S
C986 C987 1.358 . S
C986 C988 1.356 . S
C986 H1040 0.930 . S
C987 N985 1.279 . S
C987 C986 1.358 . S
C987 H991 0.930 . S
C988 C986 1.356 . S
C988 C989 1.348 . S
C989 C984 1.353 . S
C989 C988 1.348 . S
C989 H1041 0.929 . S
H990 C984 0.930 . S
H991 C987 0.930 . S
C992 N993 1.314 . S
C992 C994 1.353 . S
C992 H998 0.930 . S
N993 Li969 1.990 . S
N993 C992 1.314 . S
N993 C996 1.279 . S
C994 C992 1.353 . S
C994 C997 1.348 . S
C994 H1042 0.929 . S
C995 C996 1.358 . S
C995 C997 1.356 . S
C995 H1043 0.930 . S
C996 N993 1.279 . S
C996 C995 1.358 . S
C996 H999 0.930 . S
C997 C994 1.348 . S
C997 C995 1.356 . S
H998 C992 0.930 . S
H999 C996 0.930 . S
C1000 C1002 1.348 . S
C1000 C1003 1.356 . S
C1000 O1030 1.325 . S
N1001 C1004 1.314 . S
N1001 C1005 1.279 . S
C1002 C1000 1.348 . S
C1002 C1004 1.353 . S
C1002 H1044 0.929 . S
C1003 C1000 1.356 . S
C1003 C1005 1.358 . S
C1003 H1045 0.930 . S
C1004 N1001 1.314 . S
C1004 C1002 1.353 . S
C1004 H1046 0.930 . S
C1005 N1001 1.279 . S
C1005 C1003 1.358 . S
C1005 H1047 0.930 . S
C1006 C1007 1.348 . S
C1006 C1008 1.356 . S
C1006 O1031 1.325 . S
C1007 C1006 1.348 . S
C1007 C1009 1.353 . S
C1007 H1048 0.929 . S
C1008 C1006 1.356 . S
C1008 C1010 1.358 . S
C1008 H1049 0.930 . S
C1009 C1007 1.353 . S
C1009 N1011 1.314 . S
C1009 H1050 0.930 . S
C1010 C1008 1.358 . S
C1010 N1011 1.279 . S
C1010 H1051 0.930 . S
N1011 C1009 1.314 . S
N1011 C1010 1.279 . S
C1012 C1014 1.353 . S
C1012 N1015 1.314 . S
C1012 H1018 0.930 . S
C1013 N1015 1.279 . S
C1013 C1016 1.358 . S
C1013 H1019 0.930 . S
C1014 C1012 1.353 . S
C1014 C1017 1.348 . S
C1014 H1052 0.929 . S
N1015 Li970 1.990 . S
N1015 C1012 1.314 . S
N1015 C1013 1.279 . S
C1016 C1013 1.358 . S
C1016 C1017 1.356 . S
C1016 H1053 0.930 . S
C1017 C1014 1.348 . S
C1017 C1016 1.356 . S
H1018 C1012 0.930 . S
H1019 C1013 0.930 . S
C1020 N1021 1.314 . S
C1020 C1022 1.353 . S
C1020 H1026 0.930 . S
N1021 Li971 1.990 . S
N1021 C1020 1.314 . S
N1021 C1024 1.279 . S
C1022 C1020 1.353 . S
C1022 C1025 1.348 . S
C1022 H1054 0.929 . S
C1023 C1024 1.358 . S
C1023 C1025 1.356 . S
C1023 H1055 0.930 . S
C1024 N1021 1.279 . S
C1024 C1023 1.358 . S
C1024 H1027 0.930 . S
C1025 C1022 1.348 . S
C1025 C1023 1.356 . S
H1026 C1020 0.930 . S
H1027 C1024 0.930 . S
O1028 Li968 1.956 . S
O1028 Li969 1.970 . S
O1028 Li970 1.961 . S
O1028 C972 1.325 . S
O1029 Li968 1.970 . S
O1029 Li969 1.956 . S
O1029 Li971 1.961 . S
O1029 C978 1.325 . S
O1030 Li968 1.961 . S
O1030 Li970 1.956 . S
O1030 Li971 1.970 . S
O1030 C1000 1.325 . S
O1031 Li969 1.961 . S
O1031 Li970 1.970 . S
O1031 Li971 1.956 . S
O1031 C1006 1.325 . S
H1032 C974 0.929 . S
H1033 C975 0.930 . S
H1034 C976 0.930 . S
H1035 C977 0.930 . S
H1036 C979 0.930 . S
H1037 C981 0.929 . S
H1038 C982 0.930 . S
H1039 C983 0.930 . S
H1040 C986 0.930 . S
H1041 C989 0.929 . S
H1042 C994 0.929 . S
H1043 C995 0.930 . S
H1044 C1002 0.929 . S
H1045 C1003 0.930 . S
H1046 C1004 0.930 . S
H1047 C1005 0.930 . S
H1048 C1007 0.929 . S
H1049 C1008 0.930 . S
H1050 C1009 0.930 . S
H1051 C1010 0.930 . S
H1052 C1014 0.929 . S
H1053 C1016 0.930 . S
H1054 C1022 0.929 . S
H1055 C1023 0.930 . S
H1056 C1062 0.930 . S
H1057 C1066 0.930 . S
H1058 C1071 0.929 . S
H1059 C1069 0.929 . S
H1060 C1064 0.929 1_455 S
H1061 C1070 0.929 1_655 S
C1062 H1056 0.930 . S
C1062 C1063 1.367 . S
C1062 C1070 1.378 . S
C1063 C1062 1.367 . S
C1063 C1071 1.433 . S
C1064 H1060 0.929 1_655 S
C1064 C1066 1.378 . S
C1064 C1068 1.350 . S
C1065 C1068 1.463 1_454 S
C1065 C1070 1.350 . S
C1065 N1073 1.427 . S
C1066 H1057 0.930 . S
C1066 C1064 1.378 . S
C1066 C1067 1.367 . S
C1067 C1066 1.367 . S
C1067 C1069 1.433 . S
C1068 C1064 1.350 . S
C1068 C1065 1.463 1_656 S
C1068 N1072 1.427 . S
C1069 H1059 0.929 . S
C1069 C1067 1.433 . S
C1069 N1072 1.384 . S
C1070 H1061 0.929 1_455 S
C1070 C1062 1.378 . S
C1070 C1065 1.350 . S
C1071 H1058 0.929 . S
C1071 C1063 1.433 . S
C1071 N1073 1.384 . S
N1072 C1068 1.427 . S
N1072 C1069 1.384 . S
N1073 C1065 1.427 . S
N1073 C1071 1.384 . S
H1074 C1080 0.930 . S
H1075 C1084 0.930 . S
H1076 C1089 0.943 . S
H1077 C1087 0.944 . S
H1078 C1082 0.929 . S
H1079 C1088 0.929 . S
C1080 H1074 0.930 . S
C1080 C1081 1.367 . S
C1080 C1088 1.378 . S
C1081 C1080 1.367 . S
C1081 C1089 1.433 . S
C1082 H1078 0.929 . S
C1082 C1084 1.378 . S
C1082 C1086 1.350 . S
C1083 C1086 1.463 1_565 S
C1083 C1088 1.350 . S
C1083 N1091 1.427 1_565 S
C1084 H1075 0.930 . S
C1084 C1082 1.378 . S
C1084 C1085 1.367 . S
C1085 C1084 1.367 . S
C1085 C1087 1.433 . S
C1086 C1082 1.350 . S
C1086 C1083 1.463 1_545 S
C1086 N1090 1.427 1_545 S
C1087 H1077 0.944 . S
C1087 C1085 1.433 . S
C1087 N1090 1.384 1_545 S
C1088 H1079 0.929 . S
C1088 C1080 1.378 . S
C1088 C1083 1.350 . S
C1089 H1076 0.943 . S
C1089 C1081 1.433 . S
C1089 N1091 1.384 1_565 S
N1090 C1086 1.427 1_565 S
N1090 C1087 1.384 1_565 S
N1091 C1083 1.427 1_545 S
N1091 C1089 1.384 1_545 S
H1092 C1098 0.930 . S
H1093 C1102 0.930 . S
H1094 C1107 0.929 . S
H1095 C1105 0.929 . S
H1096 C1100 0.929 . S
H1097 C1106 0.929 . S
C1098 H1092 0.930 . S
C1098 C1099 1.367 . S
C1098 C1106 1.378 . S
C1099 C1098 1.367 . S
C1099 C1107 1.433 . S
C1100 H1096 0.929 . S
C1100 C1102 1.378 . S
C1100 C1104 1.350 . S
C1101 C1104 1.463 1_554 S
C1101 C1106 1.350 . S
C1101 N1109 1.427 . S
C1102 H1093 0.930 . S
C1102 C1100 1.378 . S
C1102 C1103 1.367 . S
C1103 C1102 1.367 . S
C1103 C1105 1.433 . S
C1104 C1100 1.350 . S
C1104 C1101 1.463 1_556 S
C1104 N1108 1.427 . S
C1105 H1095 0.929 . S
C1105 C1103 1.433 . S
C1105 N1108 1.384 . S
C1106 H1097 0.929 . S
C1106 C1098 1.378 . S
C1106 C1101 1.350 . S
C1107 H1094 0.929 . S
C1107 C1099 1.433 . S
C1107 N1109 1.384 . S
N1108 C1104 1.427 . S
N1108 C1105 1.384 . S
N1109 C1101 1.427 . S
N1109 C1107 1.384 . S
H1110 C1116 0.930 . S
H1111 C1120 0.930 . S
H1112 C1125 0.933 1_655 S
H1113 C1123 0.933 1_455 S
H1114 C1118 0.929 . S
H1115 C1124 0.929 . S
C1116 H1110 0.930 . S
C1116 C1117 1.367 . S
C1116 C1124 1.378 . S
C1117 C1116 1.367 . S
C1117 C1125 1.433 . S
C1118 H1114 0.929 . S
C1118 C1120 1.378 . S
C1118 C1122 1.350 . S
C1119 C1122 1.463 1_455 S
C1119 C1124 1.350 . S
C1119 N1127 1.427 1_455 S
C1120 H1111 0.930 . S
C1120 C1118 1.378 . S
C1120 C1121 1.367 . S
C1121 C1120 1.367 . S
C1121 C1123 1.433 . S
C1122 C1118 1.350 . S
C1122 C1119 1.463 1_655 S
C1122 N1126 1.427 1_655 S
C1123 H1113 0.933 1_655 S
C1123 C1121 1.433 . S
C1123 N1126 1.384 1_655 S
C1124 H1115 0.929 . S
C1124 C1116 1.378 . S
C1124 C1119 1.350 . S
C1125 H1112 0.933 1_455 S
C1125 C1117 1.433 . S
C1125 N1127 1.384 1_455 S
N1126 C1122 1.427 1_455 S
N1126 C1123 1.384 1_455 S
N1127 C1119 1.427 1_655 S
N1127 C1125 1.384 1_655 S
H1128 C1134 0.930 1_565 S
H1129 C1138 0.930 1_545 S
H1130 C1143 0.929 . S
H1131 C1141 0.929 . S
H1132 C1136 0.929 . S
H1133 C1142 0.929 . S
C1134 H1128 0.930 1_545 S
C1134 C1135 1.367 . S
C1134 C1142 1.378 1_545 S
C1135 C1134 1.367 . S
C1135 C1143 1.433 . S
C1136 H1132 0.929 . S
C1136 C1138 1.378 1_545 S
C1136 C1140 1.350 1_545 S
C1137 C1140 1.463 1_546 S
C1137 C1142 1.350 1_545 S
C1137 N1145 1.427 . S
C1138 H1129 0.930 1_565 S
C1138 C1136 1.378 1_565 S
C1138 C1139 1.367 . S
C1139 C1138 1.367 . S
C1139 C1141 1.433 . S
C1140 C1136 1.350 1_565 S
C1140 C1137 1.463 1_564 S
C1140 N1144 1.427 . S
C1141 H1131 0.929 . S
C1141 C1139 1.433 . S
C1141 N1144 1.384 . S
C1142 H1133 0.929 . S
C1142 C1134 1.378 1_565 S
C1142 C1137 1.350 1_565 S
C1143 H1130 0.929 . S
C1143 C1135 1.433 . S
C1143 N1145 1.384 . S
N1144 C1140 1.427 . S
N1144 C1141 1.384 . S
N1145 C1137 1.427 . S
N1145 C1143 1.384 . S
H1146 C1152 0.930 . S
H1147 C1156 0.930 . S
H1148 C1161 0.929 . S
H1149 C1159 0.929 . S
H1150 C1154 0.929 . S
H1151 C1160 0.929 . S
C1152 H1146 0.930 . S
C1152 C1153 1.367 . S
C1152 C1160 1.378 . S
C1153 C1152 1.367 . S
C1153 C1161 1.433 . S
C1154 H1150 0.929 . S
C1154 C1156 1.378 . S
C1154 C1158 1.350 . S
C1155 C1158 1.463 . S
C1155 C1160 1.350 . S
C1155 N1163 1.427 . S
C1156 H1147 0.930 . S
C1156 C1154 1.378 . S
C1156 C1157 1.367 . S
C1157 C1156 1.367 . S
C1157 C1159 1.433 . S
C1158 C1154 1.350 . S
C1158 C1155 1.463 . S
C1158 N1162 1.427 . S
C1159 H1149 0.929 . S
C1159 C1157 1.433 . S
C1159 N1162 1.384 . S
C1160 H1151 0.929 . S
C1160 C1152 1.378 . S
C1160 C1155 1.350 . S
C1161 H1148 0.929 . S
C1161 C1153 1.433 . S
C1161 N1163 1.384 . S
N1162 C1158 1.427 . S
N1162 C1159 1.384 . S
N1163 C1155 1.427 . S
N1163 C1161 1.384 . S
H1164 C1170 0.930 . S
H1165 C1174 0.930 . S
H1166 C1179 0.929 . S
H1167 C1177 0.929 . S
H1168 C1172 0.929 . S
H1169 C1178 0.929 . S
C1170 H1164 0.930 . S
C1170 C1171 1.367 . S
C1170 C1178 1.378 . S
C1171 C1170 1.367 . S
C1171 C1179 1.433 . S
C1172 H1168 0.929 . S
C1172 C1174 1.378 . S
C1172 C1176 1.350 . S
C1173 C1176 1.463 1_656 S
C1173 C1178 1.350 . S
C1173 N1181 1.427 . S
C1174 H1165 0.930 . S
C1174 C1172 1.378 . S
C1174 C1175 1.367 . S
C1175 C1174 1.367 . S
C1175 C1177 1.433 . S
C1176 C1172 1.350 . S
C1176 C1173 1.463 1_454 S
C1176 N1180 1.427 . S
C1177 H1167 0.929 . S
C1177 C1175 1.433 . S
C1177 N1180 1.384 . S
C1178 H1169 0.929 . S
C1178 C1170 1.378 . S
C1178 C1173 1.350 . S
C1179 H1166 0.929 . S
C1179 C1171 1.433 . S
C1179 N1181 1.384 . S
N1180 C1176 1.427 . S
N1180 C1177 1.384 . S
N1181 C1173 1.427 . S
N1181 C1179 1.384 . S
H1182 C1188 0.930 . S
H1183 C1192 0.930 . S
H1184 C1197 0.929 . S
H1185 C1195 0.929 . S
H1186 C1190 0.929 . S
H1187 C1196 0.929 . S
C1188 H1182 0.930 . S
C1188 C1189 1.367 . S
C1188 C1196 1.378 . S
C1189 C1188 1.367 . S
C1189 C1197 1.433 . S
C1190 H1186 0.929 . S
C1190 C1192 1.378 . S
C1190 C1194 1.350 . S
C1191 C1194 1.463 1_565 S
C1191 C1196 1.350 . S
C1191 N1199 1.427 1_565 S
C1192 H1183 0.930 . S
C1192 C1190 1.378 . S
C1192 C1193 1.367 . S
C1193 C1192 1.367 . S
C1193 C1195 1.433 . S
C1194 C1190 1.350 . S
C1194 C1191 1.463 1_545 S
C1194 N1198 1.427 1_545 S
C1195 H1185 0.929 . S
C1195 C1193 1.433 . S
C1195 N1198 1.384 1_545 S
C1196 H1187 0.929 . S
C1196 C1188 1.378 . S
C1196 C1191 1.350 . S
C1197 H1184 0.929 . S
C1197 C1189 1.433 . S
C1197 N1199 1.384 1_565 S
N1198 C1194 1.427 1_565 S
N1198 C1195 1.384 1_565 S
N1199 C1191 1.427 1_545 S
N1199 C1197 1.384 1_545 S
H1200 C1206 0.930 . S
H1201 C1210 0.930 . S
H1202 C1215 0.929 . S
H1203 C1213 0.929 . S
H1204 C1208 0.929 . S
H1205 C1214 0.929 . S
C1206 H1200 0.930 . S
C1206 C1207 1.367 . S
C1206 C1214 1.378 . S
C1207 C1206 1.367 . S
C1207 C1215 1.433 . S
C1208 H1204 0.929 . S
C1208 C1210 1.378 . S
C1208 C1212 1.350 . S
C1209 C1212 1.463 1_556 S
C1209 C1214 1.350 . S
C1209 N1217 1.427 . S
C1210 H1201 0.930 . S
C1210 C1208 1.378 . S
C1210 C1211 1.367 . S
C1211 C1210 1.367 . S
C1211 C1213 1.433 . S
C1212 C1208 1.350 . S
C1212 C1209 1.463 1_554 S
C1212 N1216 1.427 . S
C1213 H1203 0.929 . S
C1213 C1211 1.433 . S
C1213 N1216 1.384 . S
C1214 H1205 0.929 . S
C1214 C1206 1.378 . S
C1214 C1209 1.350 . S
C1215 H1202 0.929 . S
C1215 C1207 1.433 . S
C1215 N1217 1.384 . S
N1216 C1212 1.427 . S
N1216 C1213 1.384 . S
N1217 C1209 1.427 . S
N1217 C1215 1.384 . S
H1218 C1224 0.930 . S
H1219 C1228 0.930 . S
H1220 C1233 0.929 . S
H1221 C1231 0.929 . S
H1222 C1226 0.929 . S
H1223 C1232 0.929 . S
C1224 H1218 0.930 . S
C1224 C1225 1.367 . S
C1224 C1232 1.378 . S
C1225 C1224 1.367 . S
C1225 C1233 1.433 . S
C1226 H1222 0.929 . S
C1226 C1228 1.378 . S
C1226 C1230 1.350 . S
C1227 C1230 1.463 1_655 S
C1227 C1232 1.350 . S
C1227 N1235 1.427 . S
C1228 H1219 0.930 . S
C1228 C1226 1.378 . S
C1228 C1229 1.367 . S
C1229 C1228 1.367 . S
C1229 C1231 1.433 . S
C1230 C1226 1.350 . S
C1230 C1227 1.463 1_455 S
C1230 N1234 1.427 . S
C1231 H1221 0.929 . S
C1231 C1229 1.433 . S
C1231 N1234 1.384 . S
C1232 H1223 0.929 . S
C1232 C1224 1.378 . S
C1232 C1227 1.350 . S
C1233 H1220 0.929 . S
C1233 C1225 1.433 . S
C1233 N1235 1.384 . S
N1234 C1230 1.427 . S
N1234 C1231 1.384 . S
N1235 C1227 1.427 . S
N1235 C1233 1.384 . S
H1236 C1242 0.930 . S
H1237 C1246 0.930 . S
H1238 C1251 0.929 . S
H1239 C1249 0.929 . S
H1240 C1244 0.929 1_556 S
H1241 C1250 0.929 1_554 S
C1242 H1236 0.930 . S
C1242 C1243 1.367 . S
C1242 C1250 1.378 . S
C1243 C1242 1.367 . S
C1243 C1251 1.433 . S
C1244 H1240 0.929 1_554 S
C1244 C1246 1.378 . S
C1244 C1248 1.350 . S
C1245 C1248 1.463 1_546 S
C1245 C1250 1.350 . S
C1245 N1253 1.427 1_545 S
C1246 H1237 0.930 . S
C1246 C1244 1.378 . S
C1246 C1247 1.367 . S
C1247 C1246 1.367 . S
C1247 C1249 1.433 . S
C1248 C1244 1.350 . S
C1248 C1245 1.463 1_564 S
C1248 N1252 1.427 1_565 S
C1249 H1239 0.929 . S
C1249 C1247 1.433 . S
C1249 N1252 1.384 1_565 S
C1250 H1241 0.929 1_556 S
C1250 C1242 1.378 . S
C1250 C1245 1.350 . S
C1251 H1238 0.929 . S
C1251 C1243 1.433 . S
C1251 N1253 1.384 1_545 S
N1252 C1248 1.427 1_545 S
N1252 C1249 1.384 1_545 S
N1253 C1245 1.427 1_565 S
N1253 C1251 1.384 1_565 S
H1254 C1260 0.930 . S
H1255 C1264 0.930 . S
H1256 C1269 0.929 . S
H1257 C1267 0.929 . S
H1258 C1262 0.929 . S
H1259 C1268 0.929 . S
C1260 H1254 0.930 . S
C1260 C1261 1.367 . S
C1260 C1268 1.378 . S
C1261 C1260 1.367 . S
C1261 C1269 1.433 . S
C1262 H1258 0.929 . S
C1262 C1264 1.378 . S
C1262 C1266 1.350 . S
C1263 C1266 1.463 . S
C1263 C1268 1.350 . S
C1263 N1271 1.427 . S
C1264 H1255 0.930 . S
C1264 C1262 1.378 . S
C1264 C1265 1.367 . S
C1265 C1264 1.367 . S
C1265 C1267 1.433 . S
C1266 C1262 1.350 . S
C1266 C1263 1.463 . S
C1266 N1270 1.427 . S
C1267 H1257 0.929 . S
C1267 C1265 1.433 . S
C1267 N1270 1.384 . S
C1268 H1259 0.929 . S
C1268 C1260 1.378 . S
C1268 C1263 1.350 . S
C1269 H1256 0.929 . S
C1269 C1261 1.433 . S
C1269 N1271 1.384 . S
N1270 C1266 1.427 . S
N1270 C1267 1.384 . S
N1271 C1263 1.427 . S
N1271 C1269 1.384 . S
H1272 C1278 0.930 . S
H1273 C1282 0.930 . S
H1274 C1287 0.929 . S
H1275 C1285 0.929 . S
H1276 C1280 0.929 . S
H1277 C1286 0.929 . S
C1278 H1272 0.930 . S
C1278 C1279 1.367 . S
C1278 C1286 1.378 . S
C1279 C1278 1.367 . S
C1279 C1287 1.433 . S
C1280 H1276 0.929 . S
C1280 C1282 1.378 . S
C1280 C1284 1.350 . S
C1281 C1284 1.463 . S
C1281 C1286 1.350 . S
C1281 N1289 1.427 . S
C1282 H1273 0.930 . S
C1282 C1280 1.378 . S
C1282 C1283 1.367 . S
C1283 C1282 1.367 . S
C1283 C1285 1.433 . S
C1284 C1280 1.350 . S
C1284 C1281 1.463 . S
C1284 N1288 1.427 . S
C1285 H1275 0.929 . S
C1285 C1283 1.433 . S
C1285 N1288 1.384 . S
C1286 H1277 0.929 . S
C1286 C1278 1.378 . S
C1286 C1281 1.350 . S
C1287 H1274 0.929 . S
C1287 C1279 1.433 . S
C1287 N1289 1.384 . S
N1288 C1284 1.427 . S
N1288 C1285 1.384 . S
N1289 C1281 1.427 . S
N1289 C1287 1.384 . S
H1290 C1296 0.930 . S
H1291 C1300 0.930 . S
H1292 C1305 0.929 . S
H1293 C1303 0.929 . S
H1294 C1298 0.929 . S
H1295 C1304 0.929 . S
C1296 H1290 0.930 . S
C1296 C1297 1.367 . S
C1296 C1304 1.378 . S
C1297 C1296 1.367 . S
C1297 C1305 1.433 . S
C1298 H1294 0.929 . S
C1298 C1300 1.378 . S
C1298 C1302 1.350 . S
C1299 C1302 1.463 . S
C1299 C1304 1.350 . S
C1299 N1307 1.427 . S
C1300 H1291 0.930 . S
C1300 C1298 1.378 . S
C1300 C1301 1.367 . S
C1301 C1300 1.367 . S
C1301 C1303 1.433 . S
C1302 C1298 1.350 . S
C1302 C1299 1.463 . S
C1302 N1306 1.427 . S
C1303 H1293 0.929 . S
C1303 C1301 1.433 . S
C1303 N1306 1.384 . S
C1304 H1295 0.929 . S
C1304 C1296 1.378 . S
C1304 C1299 1.350 . S
C1305 H1292 0.929 . S
C1305 C1297 1.433 . S
C1305 N1307 1.384 . S
N1306 C1302 1.427 . S
N1306 C1303 1.384 . S
N1307 C1299 1.427 . S
N1307 C1305 1.384 . S
H1308 C1314 0.930 . S
H1309 C1318 0.930 . S
H1310 C1323 0.929 . S
H1311 C1321 0.929 . S
H1312 C1316 0.929 . S
H1313 C1322 0.929 . S
C1314 H1308 0.930 . S
C1314 C1315 1.367 . S
C1314 C1322 1.378 . S
C1315 C1314 1.367 . S
C1315 C1323 1.433 . S
C1316 H1312 0.929 . S
C1316 C1318 1.378 . S
C1316 C1320 1.350 . S
C1317 C1320 1.463 . S
C1317 C1322 1.350 . S
C1317 N1325 1.427 . S
C1318 H1309 0.930 . S
C1318 C1316 1.378 . S
C1318 C1319 1.367 . S
C1319 C1318 1.367 . S
C1319 C1321 1.433 . S
C1320 C1316 1.350 . S
C1320 C1317 1.463 . S
C1320 N1324 1.427 . S
C1321 H1311 0.929 . S
C1321 C1319 1.433 . S
C1321 N1324 1.384 . S
C1322 H1313 0.929 . S
C1322 C1314 1.378 . S
C1322 C1317 1.350 . S
C1323 H1310 0.929 . S
C1323 C1315 1.433 . S
C1323 N1325 1.384 . S
N1324 C1320 1.427 . S
N1324 C1321 1.384 . S
N1325 C1317 1.427 . S
N1325 C1323 1.384 . S
H1326 C1332 0.930 . S
H1327 C1336 0.930 . S
H1328 C1341 0.929 . S
H1329 C1339 0.929 . S
H1330 C1334 0.929 . S
H1331 C1340 0.929 . S
C1332 H1326 0.930 . S
C1332 C1333 1.367 . S
C1332 C1340 1.378 . S
C1333 C1332 1.367 . S
C1333 C1341 1.433 . S
C1334 H1330 0.929 . S
C1334 C1336 1.378 . S
C1334 C1338 1.350 . S
C1335 C1338 1.463 . S
C1335 C1340 1.350 . S
C1335 N1343 1.427 . S
C1336 H1327 0.930 . S
C1336 C1334 1.378 . S
C1336 C1337 1.367 . S
C1337 C1336 1.367 . S
C1337 C1339 1.433 . S
C1338 C1334 1.350 . S
C1338 C1335 1.463 . S
C1338 N1342 1.427 . S
C1339 H1329 0.929 . S
C1339 C1337 1.433 . S
C1339 N1342 1.384 . S
C1340 H1331 0.929 . S
C1340 C1332 1.378 . S
C1340 C1335 1.350 . S
C1341 H1328 0.929 . S
C1341 C1333 1.433 . S
C1341 N1343 1.384 . S
N1342 C1338 1.427 . S
N1342 C1339 1.384 . S
N1343 C1335 1.427 . S
N1343 C1341 1.384 . S
H1344 C1350 0.930 . S
H1345 C1354 0.930 . S
H1346 C1359 0.929 . S
H1347 C1357 0.929 . S
H1348 C1352 0.929 . S
H1349 C1358 0.929 . S
C1350 H1344 0.930 . S
C1350 C1351 1.367 . S
C1350 C1358 1.378 . S
C1351 C1350 1.367 . S
C1351 C1359 1.433 . S
C1352 H1348 0.929 . S
C1352 C1354 1.378 . S
C1352 C1356 1.350 . S
C1353 C1356 1.463 . S
C1353 C1358 1.350 . S
C1353 N1361 1.427 . S
C1354 H1345 0.930 . S
C1354 C1352 1.378 . S
C1354 C1355 1.367 . S
C1355 C1354 1.367 . S
C1355 C1357 1.433 . S
C1356 C1352 1.350 . S
C1356 C1353 1.463 . S
C1356 N1360 1.427 . S
C1357 H1347 0.929 . S
C1357 C1355 1.433 . S
C1357 N1360 1.384 . S
C1358 H1349 0.929 . S
C1358 C1350 1.378 . S
C1358 C1353 1.350 . S
C1359 H1346 0.929 . S
C1359 C1351 1.433 . S
C1359 N1361 1.384 . S
N1360 C1356 1.427 . S
N1360 C1357 1.384 . S
N1361 C1353 1.427 . S
N1361 C1359 1.384 . S
H1362 C1368 0.930 . S
H1363 C1372 0.930 . S
H1364 C1377 0.929 . S
H1365 C1375 0.929 . S
H1366 C1370 0.929 . S
H1367 C1376 0.929 . S
C1368 H1362 0.930 . S
C1368 C1369 1.367 . S
C1368 C1376 1.378 . S
C1369 C1368 1.367 . S
C1369 C1377 1.433 . S
C1370 H1366 0.929 . S
C1370 C1372 1.378 . S
C1370 C1374 1.350 . S
C1371 C1374 1.463 . S
C1371 C1376 1.350 . S
C1371 N1379 1.427 . S
C1372 H1363 0.930 . S
C1372 C1370 1.378 . S
C1372 C1373 1.367 . S
C1373 C1372 1.367 . S
C1373 C1375 1.433 . S
C1374 C1370 1.350 . S
C1374 C1371 1.463 . S
C1374 N1378 1.427 . S
C1375 H1365 0.929 . S
C1375 C1373 1.433 . S
C1375 N1378 1.384 . S
C1376 H1367 0.929 . S
C1376 C1368 1.378 . S
C1376 C1371 1.350 . S
C1377 H1364 0.929 . S
C1377 C1369 1.433 . S
C1377 N1379 1.384 . S
N1378 C1374 1.427 . S
N1378 C1375 1.384 . S
N1379 C1371 1.427 . S
N1379 C1377 1.384 . S
H1380 C1386 0.930 . S
H1381 C1390 0.930 . S
H1382 C1395 0.929 . S
H1383 C1393 0.929 . S
H1384 C1388 0.929 . S
H1385 C1394 0.929 . S
C1386 H1380 0.930 . S
C1386 C1387 1.367 . S
C1386 C1394 1.378 . S
C1387 C1386 1.367 . S
C1387 C1395 1.433 . S
C1388 H1384 0.929 . S
C1388 C1390 1.378 . S
C1388 C1392 1.350 . S
C1389 C1392 1.463 . S
C1389 C1394 1.350 . S
C1389 N1397 1.427 . S
C1390 H1381 0.930 . S
C1390 C1388 1.378 . S
C1390 C1391 1.367 . S
C1391 C1390 1.367 . S
C1391 C1393 1.433 . S
C1392 C1388 1.350 . S
C1392 C1389 1.463 . S
C1392 N1396 1.427 . S
C1393 H1383 0.929 . S
C1393 C1391 1.433 . S
C1393 N1396 1.384 . S
C1394 H1385 0.929 . S
C1394 C1386 1.378 . S
C1394 C1389 1.350 . S
C1395 H1382 0.929 . S
C1395 C1387 1.433 . S
C1395 N1397 1.384 . S
N1396 C1392 1.427 . S
N1396 C1393 1.384 . S
N1397 C1389 1.427 . S
N1397 C1395 1.384 . S
H1398 C1404 0.930 . S
H1399 C1408 0.930 . S
H1400 C1413 0.929 . S
H1401 C1411 0.929 . S
H1402 C1406 0.929 . S
H1403 C1412 0.929 . S
C1404 H1398 0.930 . S
C1404 C1405 1.367 . S
C1404 C1412 1.378 . S
C1405 C1404 1.367 . S
C1405 C1413 1.433 . S
C1406 H1402 0.929 . S
C1406 C1408 1.378 . S
C1406 C1410 1.350 . S
C1407 C1410 1.463 . S
C1407 C1412 1.350 . S
C1407 N1415 1.427 . S
C1408 H1399 0.930 . S
C1408 C1406 1.378 . S
C1408 C1409 1.367 . S
C1409 C1408 1.367 . S
C1409 C1411 1.433 . S
C1410 C1406 1.350 . S
C1410 C1407 1.463 . S
C1410 N1414 1.427 . S
C1411 H1401 0.929 . S
C1411 C1409 1.433 . S
C1411 N1414 1.384 . S
C1412 H1403 0.929 . S
C1412 C1404 1.378 . S
C1412 C1407 1.350 . S
C1413 H1400 0.929 . S
C1413 C1405 1.433 . S
C1413 N1415 1.384 . S
N1414 C1410 1.427 . S
N1414 C1411 1.384 . S
N1415 C1407 1.427 . S
N1415 C1413 1.384 . S
H1416 C1422 0.930 . S
H1417 C1426 0.930 . S
H1418 C1431 0.929 . S
H1419 C1429 0.929 . S
H1420 C1424 0.929 . S
H1421 C1430 0.929 . S
C1422 H1416 0.930 . S
C1422 C1423 1.367 . S
C1422 C1430 1.378 . S
C1423 C1422 1.367 . S
C1423 C1431 1.433 . S
C1424 H1420 0.929 . S
C1424 C1426 1.378 . S
C1424 C1428 1.350 . S
C1425 C1428 1.463 . S
C1425 C1430 1.350 . S
C1425 N1433 1.427 . S
C1426 H1417 0.930 . S
C1426 C1424 1.378 . S
C1426 C1427 1.367 . S
C1427 C1426 1.367 . S
C1427 C1429 1.433 . S
C1428 C1424 1.350 . S
C1428 C1425 1.463 . S
C1428 N1432 1.427 . S
C1429 H1419 0.929 . S
C1429 C1427 1.433 . S
C1429 N1432 1.384 . S
C1430 H1421 0.929 . S
C1430 C1422 1.378 . S
C1430 C1425 1.350 . S
C1431 H1418 0.929 . S
C1431 C1423 1.433 . S
C1431 N1433 1.384 . S
N1432 C1428 1.427 . S
N1432 C1429 1.384 . S
N1433 C1425 1.427 . S
N1433 C1431 1.384 . S
H1434 C1440 0.930 . S
H1435 C1444 0.930 . S
H1436 C1449 0.929 . S
H1437 C1447 0.929 . S
H1438 C1442 0.929 . S
H1439 C1448 0.929 . S
C1440 H1434 0.930 . S
C1440 C1441 1.367 . S
C1440 C1448 1.378 . S
C1441 C1440 1.367 . S
C1441 C1449 1.433 . S
C1442 H1438 0.929 . S
C1442 C1444 1.378 . S
C1442 C1446 1.350 . S
C1443 C1446 1.463 . S
C1443 C1448 1.350 . S
C1443 N1451 1.427 . S
C1444 H1435 0.930 . S
C1444 C1442 1.378 . S
C1444 C1445 1.367 . S
C1445 C1444 1.367 . S
C1445 C1447 1.433 . S
C1446 C1442 1.350 . S
C1446 C1443 1.463 . S
C1446 N1450 1.427 . S
C1447 H1437 0.929 . S
C1447 C1445 1.433 . S
C1447 N1450 1.384 . S
C1448 H1439 0.929 . S
C1448 C1440 1.378 . S
C1448 C1443 1.350 . S
C1449 H1436 0.929 . S
C1449 C1441 1.433 . S
C1449 N1451 1.384 . S
N1450 C1446 1.427 . S
N1450 C1447 1.384 . S
N1451 C1443 1.427 . S
N1451 C1449 1.384 . S
H1452 C1458 0.930 . S
H1453 C1462 0.930 . S
H1454 C1467 0.929 . S
H1455 C1465 0.929 . S
H1456 C1460 0.929 . S
H1457 C1466 0.929 . S
C1458 H1452 0.930 . S
C1458 C1459 1.367 . S
C1458 C1466 1.378 . S
C1459 C1458 1.367 . S
C1459 C1467 1.433 . S
C1460 H1456 0.929 . S
C1460 C1462 1.378 . S
C1460 C1464 1.350 . S
C1461 C1464 1.463 . S
C1461 C1466 1.350 . S
C1461 N1469 1.427 . S
C1462 H1453 0.930 . S
C1462 C1460 1.378 . S
C1462 C1463 1.367 . S
C1463 C1462 1.367 . S
C1463 C1465 1.433 . S
C1464 C1460 1.350 . S
C1464 C1461 1.463 . S
C1464 N1468 1.427 . S
C1465 H1455 0.929 . S
C1465 C1463 1.433 . S
C1465 N1468 1.384 . S
C1466 H1457 0.929 . S
C1466 C1458 1.378 . S
C1466 C1461 1.350 . S
C1467 H1454 0.929 . S
C1467 C1459 1.433 . S
C1467 N1469 1.384 . S
N1468 C1464 1.427 . S
N1468 C1465 1.384 . S
N1469 C1461 1.427 . S
N1469 C1467 1.384 . S
H1470 C1476 0.930 . S
H1471 C1480 0.930 . S
H1472 C1485 0.929 . S
H1473 C1483 0.929 . S
H1474 C1478 0.929 . S
H1475 C1484 0.929 . S
C1476 H1470 0.930 . S
C1476 C1477 1.367 . S
C1476 C1484 1.378 . S
C1477 C1476 1.367 . S
C1477 C1485 1.433 . S
C1478 H1474 0.929 . S
C1478 C1480 1.378 . S
C1478 C1482 1.350 . S
C1479 C1482 1.463 . S
C1479 C1484 1.350 . S
C1479 N1487 1.427 . S
C1480 H1471 0.930 . S
C1480 C1478 1.378 . S
C1480 C1481 1.367 . S
C1481 C1480 1.367 . S
C1481 C1483 1.433 . S
C1482 C1478 1.350 . S
C1482 C1479 1.463 . S
C1482 N1486 1.427 . S
C1483 H1473 0.929 . S
C1483 C1481 1.433 . S
C1483 N1486 1.384 . S
C1484 H1475 0.929 . S
C1484 C1476 1.378 . S
C1484 C1479 1.350 . S
C1485 H1472 0.929 . S
C1485 C1477 1.433 . S
C1485 N1487 1.384 . S
N1486 C1482 1.427 . S
N1486 C1483 1.384 . S
N1487 C1479 1.427 . S
N1487 C1485 1.384 . S
C1063 C57 1.454 . S
C1067 C997 1.449 . S
C1081 C548 1.452 . S
C1085 C145 1.450 . S
C1099 C225 1.450 . S
C1103 C636 1.453 . S
C1117 C733 1.450 . S
C1121 C321 1.452 . S
C1135 C821 1.452 . S
C1139 C401 1.451 . S
C1153 C900 1.451 . S
C1157 C497 1.452 . S
C1171 C293 1.449 . S
C1175 C761 1.456 . S
C1189 C372 1.451 . S
C1193 C849 1.454 . S
C1207 C469 1.449 . S
C1211 C929 1.455 . S
C1225 C1025 1.456 . S
C1229 C29 1.449 . S
C1243 C117 1.450 . S
C1247 C577 1.454 . S
C1261 C196 1.449 . S
C1265 C665 1.456 . S
C1279 C753 1.454 . S
C1283 C20 1.456 . S
C1297 C841 1.455 . S
C1301 C108 1.455 . S
C1315 C205 1.457 . S
C1319 C937 1.453 . S
C1333 C284 1.457 . S
C1337 C1017 1.453 . S
C1351 C381 1.455 . S
C1355 C585 1.455 . S
C1369 C673 1.455 . S
C1373 C460 1.455 . S
C1387 C49 1.033 . S
C1391 C909 1.033 . S
C1405 C988 1.032 . S
C1409 C137 1.033 . S
C1423 C233 1.034 . S
C1427 C557 1.032 . S
C1441 C313 1.032 . S
C1445 C645 1.033 . S
C1459 C409 1.031 . S
C1463 C724 1.033 . S
C1477 C489 1.034 . S
C1481 C812 1.032 . S
