# Generated by pormake.
# Topology zfk, (5)-cn, num edge types: 1
# Building blocks:
#     Node 0, Type 0, BuildingBlock: BEQFEK_clean_sbu_0, # of connection points: 5
#     Node 1, Type 0, BuildingBlock: BEQFEK_clean_sbu_0, # of connection points: 5
#     Node 2, Type 0, BuildingBlock: BEQFEK_clean_sbu_0, # of connection points: 5
#     Node 3, Type 0, BuildingBlock: BEQFEK_clean_sbu_0, # of connection points: 5
#     Node 4, Type 0, BuildingBlock: BEQFEK_clean_sbu_0, # of connection points: 5
#     Node 5, Type 0, BuildingBlock: BEQFEK_clean_sbu_0, # of connection points: 5
#     Node 6, Type 0, BuildingBlock: BEQFEK_clean_sbu_0, # of connection points: 5
#     Node 7, Type 0, BuildingBlock: BEQFEK_clean_sbu_0, # of connection points: 5
#     Node 8, Type 0, BuildingBlock: BEQFEK_clean_sbu_0, # of connection points: 5
#     Node 9, Type 0, BuildingBlock: BEQFEK_clean_sbu_0, # of connection points: 5
#     Node 10, Type 0, BuildingBlock: BEQFEK_clean_sbu_0, # of connection points: 5
#     Node 11, Type 0, BuildingBlock: BEQFEK_clean_sbu_0, # of connection points: 5
#     Node 12, Type 0, BuildingBlock: BEQFEK_clean_sbu_0, # of connection points: 5
#     Node 13, Type 0, BuildingBlock: BEQFEK_clean_sbu_0, # of connection points: 5
#     Node 14, Type 0, BuildingBlock: BEQFEK_clean_sbu_0, # of connection points: 5
#     Node 15, Type 0, BuildingBlock: BEQFEK_clean_sbu_0, # of connection points: 5
#     Edge 16, Type (0, 0), BuildingBlock: ZUJKAS_clean_linker_0, # of connection points: 2
#     Edge 17, Type (0, 0), BuildingBlock: ZUJKAS_clean_linker_0, # of connection points: 2
#     Edge 18, Type (0, 0), BuildingBlock: ZUJKAS_clean_linker_0, # of connection points: 2
#     Edge 19, Type (0, 0), BuildingBlock: ZUJKAS_clean_linker_0, # of connection points: 2
#     Edge 20, Type (0, 0), BuildingBlock: ZUJKAS_clean_linker_0, # of connection points: 2
#     Edge 21, Type (0, 0), BuildingBlock: ZUJKAS_clean_linker_0, # of connection points: 2
#     Edge 22, Type (0, 0), BuildingBlock: ZUJKAS_clean_linker_0, # of connection points: 2
#     Edge 23, Type (0, 0), BuildingBlock: ZUJKAS_clean_linker_0, # of connection points: 2
#     Edge 24, Type (0, 0), BuildingBlock: ZUJKAS_clean_linker_0, # of connection points: 2
#     Edge 25, Type (0, 0), BuildingBlock: ZUJKAS_clean_linker_0, # of connection points: 2
#     Edge 26, Type (0, 0), BuildingBlock: ZUJKAS_clean_linker_0, # of connection points: 2
#     Edge 27, Type (0, 0), BuildingBlock: ZUJKAS_clean_linker_0, # of connection points: 2
#     Edge 28, Type (0, 0), BuildingBlock: ZUJKAS_clean_linker_0, # of connection points: 2
#     Edge 29, Type (0, 0), BuildingBlock: ZUJKAS_clean_linker_0, # of connection points: 2
#     Edge 30, Type (0, 0), BuildingBlock: ZUJKAS_clean_linker_0, # of connection points: 2
#     Edge 31, Type (0, 0), BuildingBlock: ZUJKAS_clean_linker_0, # of connection points: 2
#     Edge 32, Type (0, 0), BuildingBlock: ZUJKAS_clean_linker_0, # of connection points: 2
#     Edge 33, Type (0, 0), BuildingBlock: ZUJKAS_clean_linker_0, # of connection points: 2
#     Edge 34, Type (0, 0), BuildingBlock: ZUJKAS_clean_linker_0, # of connection points: 2
#     Edge 35, Type (0, 0), BuildingBlock: ZUJKAS_clean_linker_0, # of connection points: 2
#     Edge 36, Type (0, 0), BuildingBlock: ZUJKAS_clean_linker_0, # of connection points: 2
#     Edge 37, Type (0, 0), BuildingBlock: ZUJKAS_clean_linker_0, # of connection points: 2
#     Edge 38, Type (0, 0), BuildingBlock: ZUJKAS_clean_linker_0, # of connection points: 2
#     Edge 39, Type (0, 0), BuildingBlock: ZUJKAS_clean_linker_0, # of connection points: 2
#     Edge 40, Type (0, 0), BuildingBlock: ZUJKAS_clean_linker_0, # of connection points: 2
#     Edge 41, Type (0, 0), BuildingBlock: ZUJKAS_clean_linker_0, # of connection points: 2
#     Edge 42, Type (0, 0), BuildingBlock: ZUJKAS_clean_linker_0, # of connection points: 2
#     Edge 43, Type (0, 0), BuildingBlock: ZUJKAS_clean_linker_0, # of connection points: 2
#     Edge 44, Type (0, 0), BuildingBlock: ZUJKAS_clean_linker_0, # of connection points: 2
#     Edge 45, Type (0, 0), BuildingBlock: ZUJKAS_clean_linker_0, # of connection points: 2
#     Edge 46, Type (0, 0), BuildingBlock: ZUJKAS_clean_linker_0, # of connection points: 2
#     Edge 47, Type (0, 0), BuildingBlock: ZUJKAS_clean_linker_0, # of connection points: 2
#     Edge 48, Type (0, 0), BuildingBlock: ZUJKAS_clean_linker_0, # of connection points: 2
#     Edge 49, Type (0, 0), BuildingBlock: ZUJKAS_clean_linker_0, # of connection points: 2
#     Edge 50, Type (0, 0), BuildingBlock: ZUJKAS_clean_linker_0, # of connection points: 2
#     Edge 51, Type (0, 0), BuildingBlock: ZUJKAS_clean_linker_0, # of connection points: 2
#     Edge 52, Type (0, 0), BuildingBlock: ZUJKAS_clean_linker_0, # of connection points: 2
#     Edge 53, Type (0, 0), BuildingBlock: ZUJKAS_clean_linker_0, # of connection points: 2
#     Edge 54, Type (0, 0), BuildingBlock: ZUJKAS_clean_linker_0, # of connection points: 2
#     Edge 55, Type (0, 0), BuildingBlock: ZUJKAS_clean_linker_0, # of connection points: 2
# Relax obj value: 0.179
# Max RMSD: 0.142
# Mean RMSD: 0.142
data_MOF--net-zfk--node1-BEQFEK_clean_sbu_0--edge1-ZUJKAS_clean_linker_0
_symmetry_space_group_name_H-M    P1
_symmetry_Int_Tables_number       1
_symmetry_cell_setting            triclinic
loop_
_symmetry_equiv_pos_as_xyz
'x, y, z'
_cell_length_a     39.558998
_cell_length_b     39.510022
_cell_length_c     90.908351
_cell_angle_alpha  89.92065
_cell_angle_beta   89.965787
_cell_angle_gamma 90.041465
loop_
_atom_site_label
_atom_site_type_symbol
_atom_site_fract_x
_atom_site_fract_y
_atom_site_fract_z
_atom_type_partial_charge
Co0 Co 0.01907 0.32327 0.10918 0.0
Co1 Co 0.05175 0.33148 0.141 0.0
C2 C 0.00945 0.27181 0.13352 0.0
O3 O 0.00446 0.28331 0.1206 0.0
O4 O 0.02714 0.28796 0.14291 0.0
C5 C 0.9732 0.30192 0.08621 0.0
O6 O 0.95772 0.2861 0.097 0.0
C7 C 0.06238 0.3428 0.17339 0.0
C8 C 0.11288 0.36662 0.17274 0.0
C9 C 0.08751 0.35673 0.18234 0.0
N10 N 0.07256 0.3449 0.15925 0.0
N11 N 0.10282 0.35905 0.15903 0.0
C12 C 0.02994 0.32661 0.17811 0.0
H13 H 0.02028 0.30947 0.16944 0.0
H14 H 0.01073 0.34656 0.18002 0.0
H15 H 0.03358 0.31225 0.18849 0.0
C16 C -0.00429 0.39276 0.1162 0.0
N17 N 0.01096 0.36351 0.1199 0.0
N18 N 0.02373 0.36639 0.13324 0.0
C19 C 0.01671 0.39746 0.13847 0.0
C20 C -0.00136 0.41515 0.12788 0.0
C21 C 0.98037 0.3995 0.10146 0.0
H22 H 0.96326 0.37833 0.09847 0.0
H23 H 0.9661 0.42368 0.10137 0.0
H24 H 0.00074 0.40057 0.09307 0.0
O25 O 0.06768 0.31759 0.10532 0.0
O26 O 0.09001 0.32282 0.12756 0.0
H27 H 0.05889 0.40993 0.1521 0.0
H28 H 0.02363 0.43798 0.15442 0.0
C29 C 0.03093 0.4113 0.15249 0.0
H30 H 0.02195 0.3957 0.16185 0.0
H31 H 0.11664 0.36371 0.14945 0.0
O32 O -0.00217 0.32149 0.08921 0.0
C33 C 0.09317 0.31757 0.11382 0.0
Co34 Co 0.14836 0.01118 0.61011 0.0
Co35 Co 0.13818 0.03129 0.64365 0.0
C36 C 0.1975 0.99222 0.63489 0.0
O37 O 0.18644 0.99351 0.62176 0.0
O38 O 0.18113 0.00548 0.64551 0.0
C39 C 0.18425 -0.00291 0.58492 0.0
O40 O 0.20682 0.01057 0.59375 0.0
C41 C 0.12566 0.0377 0.6762 0.0
C42 C 0.0916 0.08202 0.67599 0.0
C43 C 0.1067 0.05881 0.68531 0.0
N44 N 0.12157 0.04802 0.66216 0.0
N45 N 0.10145 0.07471 0.66221 0.0
C46 C 0.14548 0.00709 0.68054 0.0
H47 H 0.14657 0.98885 0.67128 0.0
H48 H 0.13414 0.99481 0.69037 0.0
H49 H 0.17169 0.01488 0.68327 0.0
C50 C 0.07734 0.98994 0.61389 0.0
N51 N 0.10725 2e-05 0.61938 0.0
N52 N 0.10391 0.00607 0.63357 0.0
C53 C 0.07199 -0.00136 0.63761 0.0
C54 C 0.05395 0.98872 0.62526 0.0
C55 C 0.07056 0.98554 0.59783 0.0
H56 H 0.08993 0.96857 0.593 0.0
H57 H 0.04497 0.9749 0.59588 0.0
H58 H 0.07274 0.01046 0.59226 0.0
O59 O 0.15305 0.06035 0.60889 0.0
O60 O 0.14847 0.07334 0.63252 0.0
H61 H 0.05124 0.0328 0.6534 0.0
H62 H 0.0343 0.99073 0.65453 0.0
C63 C 0.05764 0.00556 0.65254 0.0
H64 H 0.0764 -0.00101 0.66112 0.0
H65 H 0.094 0.08769 0.65275 0.0
O66 O 0.15403 0.99369 0.58957 0.0
C67 C 0.15326 0.08203 0.61919 0.0
Co68 Co 0.47778 0.16634 0.10865 0.0
Co69 Co 0.44683 0.15401 0.14045 0.0
C70 C 0.48006 0.2189 0.13311 0.0
O71 O 0.48615 0.20809 0.12016 0.0
O72 O 0.46532 0.20039 0.14268 0.0
C73 C 0.52091 0.19411 0.08589 0.0
O74 O 0.53419 0.21143 0.09677 0.0
C75 C 0.43651 0.14148 0.17264 0.0
C76 C 0.39287 0.10659 0.17167 0.0
C77 C 0.41503 0.12196 0.18137 0.0
N78 N 0.4275 0.13738 0.15846 0.0
N79 N 0.40113 0.11685 0.15804 0.0
C80 C 0.46664 0.16143 0.17747 0.0
H81 H 0.45828 0.18706 0.18086 0.0
H82 H 0.48489 0.16417 0.16826 0.0
H83 H 0.47907 0.14906 0.18701 0.0
C84 C 0.50896 0.09974 0.1154 0.0
N85 N 0.49126 0.1274 0.11933 0.0
N86 N 0.47957 0.12318 0.13279 0.0
C87 C 0.49018 0.09304 0.13794 0.0
C88 C 0.50904 0.07707 0.1271 0.0
C89 C 0.52284 0.09407 0.10031 0.0
H90 H 0.5379 0.11645 0.09689 0.0
H91 H 0.53884 0.07103 0.09989 0.0
H92 H 0.50155 0.09142 0.09244 0.0
O93 O 0.42906 0.16484 0.10458 0.0
O94 O 0.40785 0.15765 0.12692 0.0
H95 H 0.45084 0.07278 0.15144 0.0
H96 H 0.49128 0.05367 0.15472 0.0
C97 C 0.47836 0.07779 0.15214 0.0
H98 H 0.48303 0.09583 0.16122 0.0
H99 H 0.38922 0.10916 0.14836 0.0
O100 O 0.49895 0.17147 0.08876 0.0
C101 C 0.40387 0.16182 0.11316 0.0
Co102 Co 0.34088 0.46382 0.60707 0.0
Co103 Co 0.34396 0.44488 0.64113 0.0
C104 C 0.2947 0.49469 0.63064 0.0
O105 O 0.30563 0.49007 0.61759 0.0
O106 O 0.30811 0.47974 0.64163 0.0
C107 C 0.32852 0.50653 0.58169 0.0
O108 O 0.31841 0.52851 0.59158 0.0
C109 C 0.35479 0.43826 0.67399 0.0
C110 C 0.37181 0.38503 0.67457 0.0
C111 C 0.36554 0.41265 0.6835 0.0
N112 N 0.35511 0.42612 0.66011 0.0
N113 N 0.36529 0.39429 0.66065 0.0
C114 C 0.34321 0.47306 0.67801 0.0
H115 H 0.32648 0.4835 0.66934 0.0
H116 H 0.36554 0.48988 0.67904 0.0
H117 H 0.32973 0.47268 0.68872 0.0
C118 C 0.41502 0.46994 0.61213 0.0
N119 N 0.38303 0.46602 0.61697 0.0
N120 N 0.38356 0.46012 0.63124 0.0
C121 C 0.41573 0.46116 0.63599 0.0
C122 C 0.43688 0.46669 0.62404 0.0
C123 C 0.42439 0.47311 0.59625 0.0
H124 H 0.4053 0.46029 0.58927 0.0
H125 H 0.42494 0.50032 0.59322 0.0
H126 H 0.44973 0.46213 0.59411 0.0
O127 O 0.3249 0.41688 0.60661 0.0
O128 O 0.32441 0.40577 0.63051 0.0
H129 H 0.42597 0.43019 0.65477 0.0
H130 H 0.45153 0.468 0.65373 0.0
C131 C 0.42595 0.45739 0.65176 0.0
H132 H 0.40764 0.47082 0.65888 0.0
H133 H 0.36784 0.37879 0.65142 0.0
O134 O 0.34153 0.47874 0.58597 0.0
C135 C 0.31847 0.39712 0.61728 0.0
Co136 Co 0.01792 0.14464 0.91665 0.0
Co137 Co 0.04084 0.13832 0.88315 0.0
C138 C 4e-05 0.19626 0.89294 0.0
O139 O 0.00045 0.18422 0.90594 0.0
O140 O 0.01416 0.18085 0.88225 0.0
C141 C 0.97384 0.16305 0.94071 0.0
O142 O 0.95483 0.17554 0.93018 0.0
C143 C 0.04888 0.12813 0.85032 0.0
C144 C 0.09751 0.1007 0.85052 0.0
C145 C 0.07282 0.11292 0.84112 0.0
N146 N 0.05912 0.12455 0.86441 0.0
N147 N 0.08825 0.10823 0.86433 0.0
C148 C 0.01763 0.14681 0.84589 0.0
H149 H 0.00959 0.16438 0.85471 0.0
H150 H -0.00306 0.12834 0.84402 0.0
H151 H 0.02201 0.16113 0.83555 0.0
C152 C -0.00319 0.07417 0.9109 0.0
N153 N 0.008 0.10451 0.90627 0.0
N154 N 0.01598 0.10255 0.89222 0.0
C155 C 0.00929 0.07106 0.8874 0.0
C156 C -0.00274 0.0519 0.8991 0.0
C157 C 0.98899 0.06608 0.92661 0.0
H158 H 0.01257 0.06772 0.93318 0.0
H159 H 0.97108 0.08513 0.93102 0.0
H160 H 0.97792 0.04039 0.92777 0.0
O161 O 0.06692 0.15067 0.91838 0.0
O162 O 0.08177 0.1483 0.8949 0.0
H163 H 0.04693 0.05581 0.87192 0.0
H164 H 0.0077 0.0334 0.86998 0.0
C165 C 0.01905 0.05834 0.87248 0.0
H166 H 0.01077 0.0767 0.86399 0.0
H167 H 0.10188 0.10209 0.8738 0.0
O168 O 0.00025 0.14645 0.93727 0.0
C169 C 0.0893 0.15227 0.90839 0.0
Co170 Co 0.31963 0.00868 0.40928 0.0
Co171 Co 0.33152 0.04015 0.37745 0.0
C172 C 0.2692 0.00174 0.38424 0.0
O173 O 0.28 -0.00374 0.39722 0.0
O174 O 0.28664 0.01841 0.37492 0.0
C175 C 0.28446 0.98935 0.43418 0.0
O176 O 0.26114 0.00363 0.42598 0.0
C177 C 0.34523 0.05159 0.34525 0.0
C178 C 0.37278 0.10013 0.34662 0.0
C179 C 0.36135 0.07618 0.33669 0.0
N180 N 0.34754 0.06069 0.35952 0.0
N181 N 0.36396 0.08978 0.36017 0.0
C182 C 0.32684 0.02076 0.34005 0.0
H183 H 0.30852 0.01201 0.34845 0.0
H184 H 0.34533 0.00012 0.33815 0.0
H185 H 0.31346 0.02605 0.32957 0.0
C186 C 0.3888 0.983 0.40349 0.0
N187 N 0.3601 -0.00172 0.39912 0.0
N188 N 0.36425 0.01009 0.38567 0.0
C189 C 0.39554 0.00217 0.38098 0.0
C190 C 0.41221 0.98482 0.39212 0.0
C191 C 0.39447 0.96964 0.41868 0.0
H192 H 0.37274 0.95355 0.42198 0.0
H193 H 0.41822 0.95477 0.41935 0.0
H194 H 0.3958 0.99119 0.42648 0.0
O195 O 0.31702 0.05752 0.41317 0.0
O196 O 0.32462 0.07884 0.39085 0.0
H197 H 0.43644 0.00546 0.36498 0.0
H198 H 0.39429 0.00863 0.35764 0.0
C199 C 0.41075 0.01549 0.36703 0.0
H200 H 0.41236 0.04345 0.36766 0.0
H201 H 0.36924 0.10262 0.36992 0.0
O202 O 0.31437 0.98687 0.42905 0.0
C203 C 0.31918 0.08273 0.40454 0.0
Co204 Co 0.46733 0.34614 0.91511 0.0
Co205 Co 0.44625 0.34818 0.88135 0.0
C206 C 0.49517 0.2978 0.89172 0.0
O207 O 0.49187 0.30984 0.90464 0.0
O208 O 0.47969 0.31076 0.88076 0.0
C209 C 0.51146 0.33418 0.93997 0.0
O210 O 0.53308 0.32446 0.92986 0.0
C211 C 0.43972 0.35915 0.84859 0.0
C212 C 0.38795 0.3801 0.84817 0.0
C213 C 0.41523 0.37264 0.8392 0.0
N214 N 0.42734 0.35923 0.86243 0.0
N215 N 0.39626 0.3714 0.86198 0.0
C216 C 0.47506 0.34901 0.84479 0.0
H217 H 0.49132 0.34946 0.85474 0.0
H218 H 0.48559 0.36611 0.83623 0.0
H219 H 0.47483 0.32286 0.84036 0.0
C220 C 0.47477 0.41988 0.90942 0.0
N221 N 0.47015 0.38777 0.90484 0.0
N222 N 0.46355 0.38787 0.89063 0.0
C223 C 0.46491 0.41992 0.88566 0.0
C224 C 0.47128 0.44139 0.89739 0.0
C225 C 0.47857 0.42975 0.92521 0.0
H226 H 0.4656 0.41112 0.93241 0.0
H227 H 0.50583 0.42986 0.92807 0.0
H228 H 0.46816 0.4554 0.92723 0.0
O229 O 0.42014 0.3316 0.91624 0.0
O230 O 0.40669 0.33107 0.89257 0.0
H231 H 0.43309 0.4301 0.86716 0.0
H232 H 0.47103 0.45541 0.8677 0.0
C233 C 0.46039 0.4299 0.86989 0.0
H234 H 0.47338 0.41142 0.8627 0.0
H235 H 0.38095 0.37463 0.87123 0.0
O236 O 0.4834 0.34699 0.93598 0.0
C237 C 0.3991 0.32591 0.906 0.0
Co238 Co 0.16894 0.47462 0.41084 0.0
Co239 Co 0.15567 0.44551 0.37871 0.0
C240 C 0.21596 0.48682 0.38474 0.0
O241 O 0.20685 0.49015 0.39813 0.0
O242 O 0.19816 0.47033 0.37552 0.0
C243 C 0.19699 0.51544 0.43438 0.0
O244 O 0.21512 0.52885 0.42376 0.0
C245 C 0.14248 0.43515 0.34661 0.0
C246 C 0.10804 0.39114 0.3477 0.0
C247 C 0.12334 0.4133 0.33793 0.0
N248 N 0.13838 0.42625 0.36082 0.0
N249 N 0.11803 0.39974 0.36132 0.0
C250 C 0.16234 0.46532 0.34169 0.0
H251 H 0.1887 0.45738 0.33933 0.0
H252 H 0.16299 0.48468 0.35051 0.0
H253 H 0.15134 0.47636 0.33153 0.0
C254 C 0.09715 0.49521 0.40681 0.0
N255 N 0.1267 0.48294 0.4017 0.0
N256 N 0.1226 0.47308 0.38798 0.0
C257 C 0.09084 0.48011 0.38374 0.0
C258 C 0.07333 0.49352 0.39558 0.0
C259 C 0.0911 0.50442 0.42254 0.0
H260 H 0.10726 0.48881 0.42985 0.0
H261 H 0.09797 0.53139 0.42418 0.0
H262 H 0.06416 0.50095 0.42561 0.0
O263 O 0.17488 0.42586 0.41373 0.0
O264 O 0.16643 0.40591 0.39125 0.0
H265 H 0.07039 0.44691 0.36743 0.0
H266 H 0.05452 0.48958 0.36647 0.0
C267 C 0.07731 0.47396 0.3686 0.0
H268 H 0.09685 0.48029 0.3603 0.0
H269 H 0.11049 0.38782 0.37104 0.0
O270 O 0.174 0.49415 0.43112 0.0
C271 C 0.17351 0.40128 0.40477 0.0
Co272 Co 0.97993 0.65205 0.91224 0.0
Co273 Co 0.95454 0.64487 0.87905 0.0
C274 C 0.00205 0.69876 0.8871 0.0
O275 O 0.00189 0.68824 0.90038 0.0
O276 O 0.98489 0.68413 0.87709 0.0
C277 C 0.02017 0.67444 0.93705 0.0
O278 O 0.03625 0.69209 0.92699 0.0
C279 C 0.94319 0.63276 0.84657 0.0
C280 C 0.89402 0.6064 0.84801 0.0
C281 C 0.91814 0.61734 0.83803 0.0
N282 N 0.93415 0.63047 0.86086 0.0
N283 N 0.90468 0.6148 0.86154 0.0
C284 C 0.97433 0.65053 0.84131 0.0
H285 H 0.98312 0.66909 0.84959 0.0
H286 H -0.0053 0.63164 0.83962 0.0
H287 H 0.96945 0.66365 0.83072 0.0
C288 C 0.99036 0.57806 0.90762 0.0
N289 N 0.98375 0.60956 0.90268 0.0
N290 N 0.97616 0.608 0.88858 0.0
C291 C 0.97926 0.57588 0.88398 0.0
C292 C 0.98735 0.55559 0.89592 0.0
C293 C -0.00469 0.56939 0.9235 0.0
H294 H 0.98342 0.5888 0.93061 0.0
H295 H 0.0228 0.56871 0.9259 0.0
H296 H 0.98448 0.54414 0.92607 0.0
O297 O 0.93206 0.66402 0.91407 0.0
O298 O 0.91532 0.65982 0.89089 0.0
H299 H 0.9475 0.56136 0.866 0.0
H300 H 0.98797 0.54048 0.86629 0.0
C301 C 0.97477 0.5648 0.86836 0.0
H302 H 0.98505 0.58432 0.86082 0.0
H303 H 0.89183 0.60966 0.87132 0.0
O304 O -0.00263 0.65363 0.93302 0.0
C305 C 0.90921 0.66636 0.90432 0.0
Co306 Co 0.81874 0.97704 0.41221 0.0
Co307 Co 0.82927 0.94329 0.38058 0.0
C308 C 0.76916 0.98615 0.38717 0.0
O309 O 0.77963 0.99176 0.40021 0.0
O310 O 0.7861 0.96816 0.37815 0.0
C311 C 0.79319 0.01844 0.43609 0.0
O312 O 0.7739 0.03145 0.42578 0.0
C313 C 0.8429 0.9324 0.34826 0.0
C314 C 0.86624 0.8817 0.3493 0.0
C315 C 0.85732 0.9071 0.33952 0.0
N316 N 0.84382 0.92226 0.36246 0.0
N317 N 0.85769 0.89188 0.36289 0.0
C318 C 0.82735 0.96497 0.34331 0.0
H319 H 0.80989 0.97491 0.3518 0.0
H320 H 0.8476 0.98399 0.34154 0.0
H321 H 0.81354 0.96132 0.33281 0.0
C322 C 0.88897 -0.00029 0.40598 0.0
N323 N 0.85991 0.9845 0.40198 0.0
N324 N 0.86371 0.97129 0.38876 0.0
C325 C 0.89515 0.97803 0.38391 0.0
C326 C 0.91215 -0.00365 0.3946 0.0
C327 C 0.89477 0.01542 0.42071 0.0
H328 H 0.87324 0.03225 0.42347 0.0
H329 H 0.91873 0.03006 0.42093 0.0
H330 H 0.89578 -0.00483 0.42917 0.0
O331 O 0.8122 0.92855 0.41591 0.0
O332 O 0.8192 0.90513 0.39398 0.0
H333 H 0.90817 0.93548 0.37057 0.0
H334 H 0.93676 0.97047 0.36855 0.0
C335 C 0.90989 0.96345 0.37012 0.0
H336 H 0.89515 0.97247 0.36053 0.0
H337 H 0.8615 0.87804 0.37255 0.0
O338 O 0.81609 -0.00261 0.43245 0.0
C339 C 0.81263 0.90267 0.40765 0.0
Co340 Co 0.52315 0.84481 0.91773 0.0
Co341 Co 0.54345 0.84966 0.8839 0.0
C342 C 0.4958 0.79757 0.89371 0.0
O343 O 0.49914 0.80851 0.90683 0.0
O344 O 0.5108 0.81179 0.88292 0.0
C345 C 0.47971 0.83019 0.94267 0.0
O346 O 0.45863 0.81936 0.93256 0.0
C347 C 0.5501 0.86218 0.85123 0.0
C348 C 0.60124 0.88472 0.85112 0.0
C349 C 0.57442 0.87661 0.84199 0.0
N350 N 0.56215 0.86231 0.86512 0.0
N351 N 0.59285 0.87549 0.86485 0.0
C352 C 0.51522 0.85089 0.84725 0.0
H353 H 0.49867 0.85079 0.85711 0.0
H354 H 0.5044 0.86766 0.83865 0.0
H355 H 0.5164 0.82476 0.84283 0.0
C356 C 0.51493 0.91896 0.91292 0.0
N357 N 0.5194 0.88713 0.90795 0.0
N358 N 0.52534 0.88815 0.89369 0.0
C359 C 0.52352 0.92044 0.88907 0.0
C360 C 0.51777 0.9412 0.9011 0.0
C361 C 0.51214 0.92793 0.92885 0.0
H362 H 0.52501 0.90861 0.93571 0.0
H363 H 0.48503 0.9285 0.93198 0.0
H364 H 0.52324 0.95323 0.93104 0.0
O365 O 0.57079 0.83156 0.91862 0.0
O366 O 0.58343 0.83308 0.89487 0.0
H367 H 0.55433 0.93248 0.87042 0.0
H368 H 0.51571 0.95656 0.87151 0.0
C369 C 0.52715 0.93127 0.87336 0.0
H370 H 0.51447 0.91274 0.86609 0.0
H371 H 0.60786 0.87892 0.87417 0.0
O372 O 0.50718 0.84431 0.93867 0.0
C373 C 0.59166 0.82734 0.90817 0.0
Co374 Co 0.65344 0.52375 0.41671 0.0
Co375 Co 0.64941 0.55097 0.38378 0.0
C376 C 0.71203 0.521 0.39479 0.0
O377 O 0.69754 0.51733 0.40719 0.0
O378 O 0.69621 0.53272 0.38368 0.0
C379 C 0.67668 0.47781 0.43903 0.0
O380 O 0.6918 0.4632 0.42784 0.0
C381 C 0.64219 0.5613 0.35098 0.0
C382 C 0.60983 0.60683 0.35119 0.0
C383 C 0.62548 0.58421 0.34177 0.0
N384 N 0.63611 0.57001 0.36509 0.0
N385 N 0.6169 0.59735 0.36504 0.0
C386 C 0.66438 0.53241 0.34657 0.0
H387 H 0.68193 0.5257 0.35561 0.0
H388 H 0.64842 0.50998 0.34418 0.0
H389 H 0.67897 0.5389 0.33652 0.0
C390 C 0.58993 0.49077 0.4075 0.0
N391 N 0.61836 0.50805 0.40442 0.0
N392 N 0.6174 0.5183 0.39062 0.0
C393 C 0.58853 0.50724 0.38443 0.0
C394 C 0.57 0.48964 0.39494 0.0
C395 C 0.5805 0.47913 0.42262 0.0
H396 H 0.57617 0.50155 0.42971 0.0
H397 H 0.60174 0.46453 0.42743 0.0
H398 H 0.55737 0.46322 0.42244 0.0
O399 O 0.64882 0.57236 0.42026 0.0
O400 O 0.64989 0.59056 0.39719 0.0
H401 H 0.5712 0.54578 0.36976 0.0
H402 H 0.5532 0.50489 0.36611 0.0
C403 C 0.57648 0.51824 0.36956 0.0
H404 H 0.5965 0.51328 0.36133 0.0
H405 H 0.60833 0.60948 0.37452 0.0
O406 O 0.65635 0.50212 0.43655 0.0
C407 C 0.6491 0.59637 0.41096 0.0
Co408 Co 0.97314 0.82107 0.11041 0.0
Co409 Co 0.94447 0.8336 0.14274 0.0
C410 C 0.98424 0.77207 0.13566 0.0
O411 O 0.98788 0.78202 0.12239 0.0
O412 O 0.96818 0.78966 0.14513 0.0
C413 C 0.01549 0.79733 0.08624 0.0
O414 O 0.03263 0.78158 0.09655 0.0
C415 C 0.9357 0.84687 0.17512 0.0
C416 C 0.89087 0.88014 0.17432 0.0
C417 C 0.91392 0.86581 0.18393 0.0
N418 N 0.92596 0.85027 0.16097 0.0
N419 N 0.89891 0.86987 0.16067 0.0
C420 C 0.9665 0.82787 0.17985 0.0
H421 H 0.95907 0.80176 0.183 0.0
H422 H 0.98491 0.82631 0.17065 0.0
H423 H 0.97839 0.84022 0.18951 0.0
C424 C -0.00095 0.89043 0.11536 0.0
N425 N 0.98364 0.86204 0.12008 0.0
N426 N 0.973 0.86659 0.13368 0.0
C427 C 0.98203 0.8978 0.13813 0.0
C428 C -0.0013 0.91399 0.12667 0.0
C429 C 0.01186 0.8954 0.10003 0.0
H430 H 0.99016 0.8952 0.0923 0.0
H431 H 0.02865 0.874 0.09704 0.0
H432 H 0.02586 0.91962 0.09891 0.0
O433 O 0.92418 0.81676 0.10779 0.0
O434 O 0.90432 0.82478 0.13031 0.0
H435 H 0.94344 0.91725 0.15219 0.0
H436 H 0.98347 0.93791 0.15451 0.0
C437 C 0.97115 0.91322 0.15241 0.0
H438 H 0.9773 0.89575 0.16156 0.0
H439 H 0.88627 0.87682 0.15106 0.0
O440 O 0.99151 0.81705 0.08993 0.0
C441 C 0.89961 0.81839 0.11675 0.0
Co442 Co 0.65164 0.97324 0.61043 0.0
Co443 Co 0.64821 0.95143 0.64423 0.0
C444 C 0.70023 -0.00086 0.63413 0.0
O445 O 0.68857 -0.00308 0.62108 0.0
O446 O 0.68654 0.98339 0.64484 0.0
C447 C 0.66733 0.01503 0.58497 0.0
O448 O 0.68021 0.03573 0.59477 0.0
C449 C 0.63794 0.94388 0.67709 0.0
C450 C 0.6183 0.89152 0.67737 0.0
C451 C 0.62619 0.91843 0.68647 0.0
N452 N 0.63663 0.93236 0.66312 0.0
N453 N 0.6249 0.90105 0.66348 0.0
C454 C 0.65138 0.97788 0.68133 0.0
H455 H 0.66826 0.98795 0.67262 0.0
H456 H 0.62996 -0.0043 0.68271 0.0
H457 H 0.66523 0.97631 0.69192 0.0
C458 C 0.57784 0.98218 0.61613 0.0
N459 N 0.60987 0.97695 0.62067 0.0
N460 N 0.60963 0.97041 0.63489 0.0
C461 C 0.57778 0.97264 0.63993 0.0
C462 C 0.55636 0.97926 0.62821 0.0
C463 C 0.56786 0.98581 0.60034 0.0
H464 H 0.58705 0.97398 0.5931 0.0
H465 H 0.56622 0.01313 0.59759 0.0
H466 H 0.54279 0.9741 0.5983 0.0
O467 O 0.6648 0.92553 0.60932 0.0
O468 O 0.6638 0.91156 0.63294 0.0
H469 H 0.56706 0.94136 0.6586 0.0
H470 H 0.54306 0.98018 0.65802 0.0
C471 C 0.56809 0.96864 0.65576 0.0
H472 H 0.58723 0.98107 0.6628 0.0
H473 H 0.62129 0.88608 0.65416 0.0
O474 O 0.65146 0.98883 0.58937 0.0
C475 C 0.66917 0.90403 0.61954 0.0
Co476 Co 0.51167 0.66932 0.11305 0.0
Co477 Co 0.54284 0.65555 0.1448 0.0
C478 C 0.50813 0.7203 0.13796 0.0
O479 O 0.502 0.71008 0.12493 0.0
O480 O 0.52353 0.70167 0.14727 0.0
C481 C 0.47004 0.69786 0.08989 0.0
O482 O 0.45737 0.71621 0.10059 0.0
C483 C 0.55264 0.64217 0.17702 0.0
C484 C 0.59729 0.60868 0.17606 0.0
C485 C 0.5746 0.62324 0.18577 0.0
N486 N 0.56197 0.63857 0.16283 0.0
N487 N 0.58889 0.61881 0.16243 0.0
C488 C 0.52197 0.66128 0.18181 0.0
H489 H 0.5296 0.68718 0.18515 0.0
H490 H 0.50368 0.66341 0.1726 0.0
H491 H 0.50984 0.64864 0.19137 0.0
C492 C 0.48156 0.602 0.11902 0.0
N493 N 0.49892 0.62957 0.12332 0.0
N494 N 0.51089 0.62446 0.13667 0.0
C495 C 0.50101 0.59363 0.14135 0.0
C496 C 0.48219 0.57828 0.13031 0.0
C497 C 0.46705 0.59762 0.10396 0.0
H498 H 0.488 0.59526 0.0959 0.0
H499 H 0.45216 0.62039 0.10096 0.0
H500 H 0.45071 0.57481 0.10334 0.0
O501 O 0.56053 0.66927 0.10928 0.0
O502 O 0.58204 0.66039 0.13145 0.0
H503 H 0.54125 0.57366 0.15437 0.0
H504 H 0.50167 0.5525 0.15732 0.0
C505 C 0.51356 0.5774 0.1552 0.0
H506 H 0.50832 0.59429 0.16465 0.0
H507 H 0.60122 0.6117 0.15275 0.0
O508 O 0.49114 0.6746 0.09301 0.0
C509 C 0.58582 0.66582 0.11775 0.0
Co510 Co 0.84476 0.51651 0.6069 0.0
Co511 Co 0.84866 0.53505 0.64081 0.0
C512 C 0.79461 0.49097 0.63027 0.0
O513 O 0.80667 0.49437 0.61734 0.0
O514 O 0.80888 0.50461 0.64136 0.0
C515 C 0.82943 0.47337 0.58217 0.0
O516 O 0.81935 0.45214 0.59241 0.0
C517 C 0.85896 0.54038 0.67357 0.0
C518 C 0.88679 0.58891 0.67413 0.0
C519 C 0.87509 0.56297 0.68302 0.0
N520 N 0.86151 0.55245 0.65972 0.0
N521 N 0.87778 0.58165 0.66025 0.0
C522 C 0.84371 0.50688 0.6774 0.0
H523 H 0.84377 0.48995 0.66767 0.0
H524 H 0.85771 0.49491 0.68662 0.0
H525 H 0.81714 0.51079 0.68092 0.0
C526 C 0.91809 0.50514 0.6122 0.0
N527 N 0.88618 0.51004 0.61696 0.0
N528 N 0.88663 0.51499 0.6313 0.0
C529 C 0.91858 0.51191 0.63615 0.0
C530 C 0.93976 0.50657 0.62422 0.0
C531 C 0.92786 0.50383 0.59631 0.0
H532 H 0.90865 0.51687 0.58946 0.0
H533 H 0.92922 0.47697 0.59282 0.0
H534 H 0.95301 0.51559 0.59451 0.0
O535 O 0.83438 0.56486 0.60609 0.0
O536 O 0.83499 0.57639 0.62995 0.0
H537 H 0.93175 0.54168 0.65495 0.0
H538 H 0.95349 0.50178 0.65385 0.0
C539 C 0.92895 0.51466 0.65194 0.0
H540 H 0.90946 0.50295 0.65908 0.0
H541 H 0.88354 0.59628 0.65101 0.0
O542 O 0.84386 0.50078 0.586 0.0
C543 C 0.83062 0.58552 0.61665 0.0
H544 H 0.01444 0.15176 0.96464 0.0
H545 H 0.00807 0.17503 0.98936 0.0
H546 H 0.91342 0.22069 0.97676 0.0
H547 H 0.91999 0.19816 0.95187 0.0
H548 H 0.95364 0.26559 0.99034 0.0
H549 H 0.94901 0.14815 0.0235 0.0
H550 H 0.9857 0.14992 0.01192 0.0
H551 H 0.94429 0.14803 1.00375 0.0
C552 C 0.99194 0.16622 0.96717 0.0
C553 C 0.96771 0.17303 0.95624 0.0
C554 C 0.98827 0.17944 0.98137 0.0
C555 C 0.96006 0.19933 0.98502 0.0
C556 C 0.93537 0.20537 0.97423 0.0
H557 H 0.92255 0.2611 0.07592 0.0
H558 H 0.91593 0.23863 0.05103 0.0
C559 C 0.93911 0.19233 0.96001 0.0
C560 C 0.95747 0.21565 0.99974 0.0
H561 H 0.96009 0.19944 0.03664 0.0
C562 C 0.95471 0.25107 1.00046 0.0
C563 C 0.95839 0.19678 0.01298 0.0
C564 C 0.95915 0.1586 0.01303 0.0
C565 C 0.95387 0.26817 0.01402 0.0
C566 C 0.95661 0.24942 0.02724 0.0
C567 C 0.95832 0.21392 0.02652 0.0
C568 C 0.95853 0.26596 0.04194 0.0
C569 C 0.94979 0.30613 0.01401 0.0
C570 C 0.98435 0.28927 0.04511 0.0
C571 C 0.98801 0.30245 0.05931 0.0
C572 C 0.9662 0.2922 0.07072 0.0
C573 C 0.93977 0.2696 0.06741 0.0
C574 C 0.93602 0.2566 0.05319 0.0
H575 H 0.93737 0.31513 1.00376 0.0
H576 H 0.93465 0.31476 0.02358 0.0
H577 H 0.9751 0.31816 0.01461 0.0
H578 H 0.00253 0.29634 0.03674 0.0
H579 H 0.00883 0.31954 0.06147 0.0
H580 H 0.32778 0.9779 0.45734 0.0
H581 H 0.31229 0.97047 0.48334 0.0
H582 H 0.20672 0.97324 0.47165 0.0
H583 H 0.22184 0.98052 0.44584 0.0
H584 H 0.27295 0.01904 0.49881 0.0
H585 H 0.21165 0.8928 0.50036 0.0
H586 H 0.23955 0.90576 0.48565 0.0
H587 H 0.19644 0.92008 0.486 0.0
C588 C 0.30131 0.97614 0.46029 0.0
C589 C 0.27605 0.97991 0.44954 0.0
C590 C 0.29249 0.97199 0.47514 0.0
C591 C 0.25833 0.97095 0.47941 0.0
C592 C 0.23319 0.97334 0.4686 0.0
H593 H 0.14351 0.98566 0.56085 0.0
H594 H 0.16191 0.97732 0.53525 0.0
C595 C 0.24194 0.97775 0.45384 0.0
C596 C 0.2487 0.97102 0.4952 0.0
H597 H 0.20241 0.92861 0.52112 0.0
C598 C 0.2579 -0.00093 0.50375 0.0
C599 C 0.22859 0.94519 0.50155 0.0
C600 C 0.21867 0.91409 0.49297 0.0
C601 C 0.2469 0.00244 0.51836 0.0
C602 C 0.22681 0.9766 0.52475 0.0
C603 C 0.21777 0.94839 0.51623 0.0
C604 C 0.21538 0.9785 0.5403 0.0
C605 C 0.256 0.03426 0.52665 0.0
C606 C 0.23923 0.98073 0.55166 0.0
C607 C 0.22884 0.98574 0.56617 0.0
C608 C 0.1943 0.98815 0.56971 0.0
C609 C 0.17028 0.98401 0.55846 0.0
C610 C 0.18077 0.97927 0.54385 0.0
H611 H 0.26295 0.05524 0.51908 0.0
H612 H 0.23473 0.04277 0.53371 0.0
H613 H 0.27811 0.02912 0.53382 0.0
H614 H 0.26601 0.97928 0.54926 0.0
H615 H 0.24802 0.98829 0.57459 0.0
H616 H 0.5661 0.24129 0.07578 0.0
H617 H 0.56957 0.26542 0.05103 0.0
H618 H 0.49103 0.19763 0.03643 0.0
H619 H 0.48794 0.17278 0.06104 0.0
H620 H 0.54037 0.20462 0.01585 0.0
H621 H 0.49962 0.3311 0.03543 0.0
H622 H 0.53715 0.31572 0.04427 0.0
H623 H 0.4977 0.29386 0.0469 0.0
C624 C 0.54985 0.23117 0.06726 0.0
C625 C 0.52652 0.20527 0.07046 0.0
C626 C 0.55166 0.24524 0.05314 0.0
C627 C 0.52991 0.23401 0.04195 0.0
C628 C 0.50786 0.20695 0.04491 0.0
H629 H 0.46672 0.33865 0.96294 0.0
H630 H 0.47313 0.31516 0.98767 0.0
C631 C 0.50618 0.19271 0.059 0.0
C632 C 0.52938 0.25095 0.02731 0.0
H633 H 0.51558 0.32706 1.01039 0.0
C634 C 0.53504 0.23141 0.01466 0.0
C635 C 0.52182 0.28582 0.02572 0.0
C636 C 0.51339 0.30783 0.03878 0.0
C637 C 0.53348 0.24573 1.0005 0.0
C638 C 0.52687 0.2808 0.99894 0.0
C639 C 0.52108 0.30031 1.01159 0.0
C640 C 0.52426 0.29736 0.98425 0.0
C641 C 0.53785 0.22286 0.98735 0.0
C642 C 0.55128 0.29633 0.97423 0.0
C643 C 0.54764 0.30961 0.96003 0.0
C644 C 0.51701 0.32461 0.9556 0.0
C645 C 0.49065 0.32728 0.96594 0.0
C646 C 0.49425 0.31377 0.9801 0.0
H647 H 0.53366 0.19585 0.99025 0.0
H648 H 0.5201 0.22985 0.97839 0.0
H649 H 0.56403 0.22536 0.9831 0.0
H650 H 0.57503 0.28468 0.9773 0.0
H651 H 0.56856 0.30735 0.9524 0.0
H652 H 0.17362 0.48244 0.45896 0.0
H653 H 0.19627 0.48565 0.48394 0.0
H654 H 0.26634 0.56306 0.4701 0.0
H655 H 0.24434 0.55952 0.44504 0.0
H656 H 0.29794 0.51364 0.48517 0.0
H657 H 0.18485 0.55445 0.51635 0.0
H658 H 0.17738 0.51716 0.50559 0.0
H659 H 0.18703 0.55654 0.49654 0.0
C660 C 0.19341 0.50062 0.46128 0.0
C661 C 0.20712 0.52073 0.44996 0.0
C662 C 0.20629 0.50251 0.47561 0.0
C663 C 0.23284 0.52484 0.47898 0.0
C664 C 0.24585 0.54566 0.4678 0.0
H665 H 0.30126 0.56295 0.56883 0.0
H666 H 0.28058 0.56905 0.54362 0.0
C667 C 0.23312 0.54368 0.45346 0.0
C668 C 0.24857 0.52492 0.49388 0.0
H669 H 0.2311 0.53329 0.53051 0.0
C670 C 0.28335 0.5182 0.49508 0.0
C671 C 0.22971 0.53127 0.50682 0.0
C672 C 0.19276 0.5406 0.50629 0.0
C673 C 0.29959 0.5169 0.50882 0.0
C674 C 0.28042 0.52175 0.5218 0.0
C675 C 0.2458 0.52925 0.52059 0.0
C676 C 0.29557 0.51884 0.53676 0.0
C677 C 0.33722 0.51078 0.50926 0.0
C678 C 0.3113 0.48871 0.54132 0.0
C679 C 0.32347 0.48524 0.55571 0.0
C680 C 0.31977 0.51169 0.56594 0.0
C681 C 0.30463 0.54208 0.56126 0.0
C682 C 0.29264 0.54558 0.54685 0.0
H683 H 0.34949 0.51798 0.49871 0.0
H684 H 0.34933 0.52523 0.51831 0.0
H685 H 0.34198 0.48344 0.51112 0.0
H686 H 0.31323 0.46741 0.53388 0.0
H687 H 0.33467 0.46137 0.55895 0.0
H688 H 0.9738 0.81116 0.06295 0.0
H689 H 0.97799 0.78939 0.03788 0.0
H690 H 0.07251 0.74108 0.0487 0.0
H691 H 0.06785 0.76176 0.07399 0.0
H692 H 0.02147 0.79684 0.01602 0.0
H693 H 0.021 0.66192 0.03275 0.0
H694 H 0.0123 0.69568 0.04552 0.0
H695 H 0.05523 0.68537 0.0407 0.0
C696 C -0.00436 0.79612 0.05999 0.0
C697 C 0.02035 0.78796 0.07055 0.0
C698 C -0.00203 0.7836 0.04562 0.0
C699 C 0.02512 0.7628 0.04144 0.0
C700 C 0.05074 0.75611 0.05175 0.0
H701 H 0.06802 0.71567 0.94931 0.0
H702 H 0.07083 0.73588 0.97467 0.0
C703 C 0.04822 0.76827 0.06618 0.0
C704 C 0.02629 0.74801 0.02635 0.0
H705 H 0.03154 0.67327 1.00751 0.0
C706 C 0.02367 0.76981 0.01418 0.0
C707 C 0.02854 0.71265 0.02388 0.0
C708 C 0.02907 0.68751 0.0364 0.0
C709 C 0.02349 0.75737 0.99969 0.0
C710 C 0.02702 0.72214 0.99722 0.0
C711 C 0.02933 0.70029 1.00937 0.0
C712 C 0.02728 0.70745 0.98212 0.0
C713 C 0.01851 0.78208 0.9872 0.0
C714 C 0.00303 0.68323 0.97801 0.0
C715 C 0.00167 0.67117 0.96353 0.0
C716 C 0.02454 0.68311 0.95285 0.0
C717 C 0.04981 0.70612 0.9572 0.0
C718 C 0.05128 0.71798 0.97168 0.0
H719 H 0.00677 0.80604 0.99104 0.0
H720 H 0.04344 0.78841 0.98232 0.0
H721 H 0.00231 0.77108 0.97846 0.0
H722 H 0.98441 0.67447 0.98589 0.0
H723 H 0.98189 0.65346 0.96059 0.0
H724 H 0.81665 0.98359 0.46017 0.0
H725 H 0.79491 0.986 0.48537 0.0
H726 H 0.72749 0.06681 0.47293 0.0
H727 H 0.74845 0.064 0.44766 0.0
H728 H 0.79174 0.03402 0.50651 0.0
H729 H 0.66187 -0.00149 0.48967 0.0
H730 H 0.69743 -0.00389 0.47729 0.0
H731 H 0.67702 0.03604 0.48069 0.0
C732 C 0.79748 0.00217 0.46282 0.0
C733 C 0.78407 0.02337 0.45182 0.0
C734 C 0.78498 0.00345 0.47725 0.0
C735 C 0.75888 0.02597 0.48099 0.0
C736 C 0.74688 0.04851 0.47024 0.0
H737 H 0.69792 0.06923 0.57166 0.0
H738 H 0.71897 0.07304 0.54641 0.0
C739 C 0.75915 0.04708 0.4558 0.0
C740 C 0.74376 0.02533 0.49603 0.0
H741 H 0.66912 0.01507 0.51455 0.0
C742 C 0.76493 0.02987 0.50827 0.0
C743 C 0.70884 0.01926 0.49838 0.0
C744 C 0.685 0.01185 0.48583 0.0
C745 C 0.75216 0.02894 0.52272 0.0
C746 C 0.71703 0.02417 0.52504 0.0
C747 C 0.69594 0.01921 0.51281 0.0
C748 C 0.70186 0.02311 0.54007 0.0
C749 C 0.77667 0.03214 0.53536 0.0
C750 C 0.68349 0.99458 0.54473 0.0
C751 C 0.67085 0.99257 0.55911 0.0
C752 C 0.67634 0.01906 0.56917 0.0
C753 C 0.69344 0.04823 0.56426 0.0
C754 C 0.70583 0.05032 0.54985 0.0
H755 H 0.80291 0.02592 0.53194 0.0
H756 H 0.77657 0.05863 0.53939 0.0
H757 H 0.76945 0.01525 0.54462 0.0
H758 H 0.6798 0.97335 0.53737 0.0
H759 H 0.65783 0.96971 0.56248 0.0
H760 H 0.42339 0.80156 0.95504 0.0
H761 H 0.41655 0.78077 0.98022 0.0
H762 H 0.51696 0.81556 0.99081 0.0
H763 H 0.52368 0.83717 0.96579 0.0
H764 H 0.45198 0.73215 0.99375 0.0
H765 H 0.46481 0.85083 0.02551 0.0
H766 H 0.45854 0.8506 1.00585 0.0
H767 H 0.50002 0.84386 0.01345 0.0
C768 C 0.44381 0.80537 0.96279 0.0
C769 C 0.47405 0.82119 0.95837 0.0
C770 C 0.4399 0.79332 0.97719 0.0
C771 C 0.46607 0.79685 0.98751 0.0
C772 C 0.49606 0.81319 0.9832 0.0
H773 H 0.50245 0.67462 0.0652 0.0
H774 H 0.49881 0.6974 0.04025 0.0
C775 C 0.49992 0.82545 0.96883 0.0
C776 C 0.46279 0.78166 1.00247 0.0
H777 H 0.46992 0.79926 0.03913 0.0
C778 C 0.45561 0.74691 1.00367 0.0
C779 C 0.46707 0.8009 0.01546 0.0
C780 C 0.47269 0.83867 0.01504 0.0
C781 C 0.45346 0.73077 0.01744 0.0
C782 C 0.45939 0.74969 0.03041 0.0
C783 C 0.46569 0.78461 0.02921 0.0
C784 C 0.45967 0.73387 0.04531 0.0
C785 C 0.44444 0.69367 0.01795 0.0
C786 C 0.43906 0.7468 0.05656 0.0
C787 C 0.44135 0.73403 0.0709 0.0
C788 C 0.46435 0.70804 0.07433 0.0
C789 C 0.48422 0.69439 0.06295 0.0
C790 C 0.48207 0.70734 0.04862 0.0
H791 H 0.43049 0.68579 1.00791 0.0
H792 H 0.46799 0.67849 0.01853 0.0
H793 H 0.42874 0.68763 0.02773 0.0
H794 H 0.42161 0.76728 0.05431 0.0
H795 H 0.4257 0.7452 0.07938 0.0
H796 H 0.66081 0.51216 0.4643 0.0
H797 H 0.68734 0.50613 0.48844 0.0
H798 H 0.74538 0.42141 0.47252 0.0
H799 H 0.71957 0.42773 0.44824 0.0
H800 H 0.69147 0.45559 0.50885 0.0
H801 H 0.81897 0.48497 0.48676 0.0
H802 H 0.78097 0.49065 0.47608 0.0
H803 H 0.79911 0.4492 0.47821 0.0
C804 C 0.67889 0.49195 0.46596 0.0
C805 C 0.68832 0.47067 0.45425 0.0
C806 C 0.69411 0.48858 0.47978 0.0
C807 C 0.71901 0.46387 0.4822 0.0
C808 C 0.72694 0.44127 0.47081 0.0
H809 H 0.79761 0.41828 0.57023 0.0
H810 H 0.77235 0.41364 0.54576 0.0
C811 C 0.71191 0.44474 0.45695 0.0
C812 C 0.73735 0.46259 0.49649 0.0
H813 H 0.81592 0.46951 0.51187 0.0
C814 C 0.71869 0.45852 0.50951 0.0
C815 C 0.77285 0.467 0.49738 0.0
C816 C 0.79417 0.47353 0.48389 0.0
C817 C 0.73448 0.45865 0.52337 0.0
C818 C 0.77008 0.46221 0.52423 0.0
C819 C 0.78873 0.46636 0.51121 0.0
C820 C 0.78819 0.46342 0.53857 0.0
C821 C 0.71271 0.45611 0.53697 0.0
C822 C 0.80715 0.49215 0.5424 0.0
C823 C 0.82209 0.49469 0.55631 0.0
C824 C 0.81834 0.46851 0.5667 0.0
C825 C 0.80079 0.43903 0.56255 0.0
C826 C 0.78603 0.43645 0.5486 0.0
H827 H 0.68588 0.46237 0.5346 0.0
H828 H 0.71358 0.42979 0.54123 0.0
H829 H 0.72199 0.47331 0.54573 0.0
H830 H 0.80943 0.51318 0.5348 0.0
H831 H 0.83543 0.51774 0.5591 0.0
H832 H 0.0351 0.22927 0.15448 0.0
H833 H 0.03121 0.16747 0.15435 0.0
H834 H 0.95865 0.17222 0.11904 0.0
H835 H 0.96266 0.23389 0.11892 0.0
H836 H 0.97844 0.11723 0.15565 0.0
H837 H 0.04178 0.12364 0.10112 0.0
H838 H 0.03898 0.15962 0.11326 0.0
H839 H 0.0031 0.14724 0.1024 0.0
C840 C 0.01752 0.21725 0.14699 0.0
C841 C -0.00029 0.23638 0.13649 0.0
C842 C 0.01546 0.18194 0.1469 0.0
C843 C -0.00457 0.16545 0.13638 0.0
C844 C 0.97488 0.18459 0.12698 0.0
H845 H 0.96837 0.95904 0.10853 0.0
H846 H 0.97006 0.02094 0.11058 0.0
C847 C 0.97708 0.21981 0.12699 0.0
C848 C -0.00138 0.12857 0.13423 0.0
H849 H 0.02458 0.06941 0.10931 0.0
C850 C 0.98861 0.1067 0.14557 0.0
C851 C 0.0122 0.1151 0.12106 0.0
C852 C 0.02494 0.13756 0.1088 0.0
C853 C 0.99099 0.07148 0.14393 0.0
C854 C 0.00426 0.05805 0.13071 0.0
C855 C 0.01447 0.07993 0.11942 0.0
C856 C 0.00671 0.02123 0.12824 0.0
C857 C 0.97857 0.04887 0.15619 0.0
C858 C 0.028 0.00125 0.13701 0.0
C859 C 0.02726 0.96605 0.13575 0.0
C860 C 0.00526 0.95056 0.12571 0.0
C861 C 0.98568 0.97063 0.11626 0.0
C862 C 0.98646 0.00582 0.1175 0.0
H863 H 0.96265 0.06287 0.16421 0.0
H864 H 0.9637 0.02736 0.15173 0.0
H865 H 0.00061 0.03831 0.16219 0.0
H866 H 0.04427 0.01283 0.14516 0.0
H867 H 0.04256 0.95085 0.14311 0.0
H868 H 0.23756 -0.00382 0.65965 0.0
H869 H 0.29882 0.98683 0.66065 0.0
H870 H 0.29752 0.95289 0.61555 0.0
H871 H 0.2368 0.96017 0.61473 0.0
H872 H 0.34236 0.91897 0.6299 0.0
H873 H 0.35983 0.05554 0.64221 0.0
H874 H 0.33701 0.03287 0.65615 0.0
H875 H 0.31905 0.03764 0.63807 0.0
C876 C 0.25026 0.98584 0.6501 0.0
C877 C 0.23239 0.97965 0.63702 0.0
C878 C 0.28532 0.98095 0.65062 0.0
C879 C 0.30293 0.97041 0.63798 0.0
C880 C 0.28464 0.96148 0.62538 0.0
H881 H 0.51002 0.02119 0.61519 0.0
H882 H 0.44813 0.0173 0.61686 0.0
C883 C 0.24977 0.96579 0.62493 0.0
C884 C 0.3404 0.97072 0.63726 0.0
H885 H 0.40915 0.02263 0.63997 0.0
C886 C 0.35698 0.94161 0.63215 0.0
C887 C 0.35937 0.00057 0.63983 0.0
C888 C 0.34294 0.03353 0.64422 0.0
C889 C 0.39184 0.94157 0.62936 0.0
C890 C 0.41098 0.97104 0.63241 0.0
C891 C 0.39448 4e-05 0.63767 0.0
C892 C 0.44819 0.97224 0.63049 0.0
C893 C 0.4074 0.91033 0.62262 0.0
C894 C 0.46868 0.94815 0.63746 0.0
C895 C 0.50369 0.94986 0.63616 0.0
C896 C 0.51909 0.97645 0.62835 0.0
C897 C 0.49872 0.00045 0.62125 0.0
C898 C 0.46347 -0.00165 0.6223 0.0
H899 H 0.38842 0.89555 0.61631 0.0
H900 H 0.42864 0.91684 0.61514 0.0
H901 H 0.41712 0.89372 0.63151 0.0
H902 H 0.45766 0.92827 0.64412 0.0
H903 H 0.51875 0.9305 0.64145 0.0
H904 H 0.50732 0.53295 0.11086 0.0
H905 H 0.503 0.47121 0.11221 0.0
H906 H 0.43623 0.47992 0.14956 0.0
H907 H 0.44063 0.5419 0.1482 0.0
H908 H 0.49213 0.43806 0.15449 0.0
H909 H 0.42776 0.40397 0.10243 0.0
H910 H 0.46317 0.43179 0.09983 0.0
H911 H 0.42684 0.44629 0.10991 0.0
C912 C 0.49089 0.52164 0.11904 0.0
C913 C 0.47417 0.5419 0.1294 0.0
C914 C 0.48847 0.48643 0.11983 0.0
C915 C 0.46912 0.47103 0.13093 0.0
C916 C 0.45121 0.49136 0.1409 0.0
H917 H 0.45218 0.25742 0.15504 0.0
H918 H 0.45071 0.31929 0.15609 0.0
C919 C 0.45359 0.5266 0.14008 0.0
C920 C 0.47018 0.43386 0.13288 0.0
H921 H 0.45667 0.35937 0.11494 0.0
C922 C 0.48401 0.42076 0.14593 0.0
C923 C 0.45963 0.41148 0.12168 0.0
C924 C 0.44321 0.42404 0.10773 0.0
C925 C 0.48877 0.38581 0.14785 0.0
C926 C 0.47903 0.36352 0.13647 0.0
C927 C 0.46442 0.3766 0.12359 0.0
C928 C 0.48407 0.32649 0.13747 0.0
C929 C 0.5052 0.3731 0.16177 0.0
C930 C 0.50396 0.31011 0.12689 0.0
C931 C 0.50475 0.27487 0.12622 0.0
C932 C 0.48553 0.25529 0.13609 0.0
C933 C 0.46744 0.27174 0.14733 0.0
C934 C 0.46655 0.30712 0.14795 0.0
H935 H 0.51804 0.39376 0.16788 0.0
H936 H 0.48555 0.36205 0.16905 0.0
H937 H 0.52395 0.35301 0.15928 0.0
H938 H 0.51778 0.32465 0.11875 0.0
H939 H 0.51911 0.26303 0.11748 0.0
H940 H 0.25813 0.52712 0.60946 0.0
H941 H 0.19813 0.53927 0.61026 0.0
H942 H 0.1958 0.51413 0.65645 0.0
H943 H 0.25605 0.50051 0.65562 0.0
H944 H 0.15268 0.47675 0.64179 0.0
H945 H 0.13354 0.60907 0.62431 0.0
H946 H 0.15988 0.58733 0.61138 0.0
H947 H 0.17434 0.59338 0.63001 0.0
C948 C 0.24524 0.52515 0.61993 0.0
C949 C 0.26185 0.51217 0.63242 0.0
C950 C 0.21079 0.53242 0.62039 0.0
C951 C 0.19235 0.52763 0.63341 0.0
C952 C 0.20953 0.51789 0.64626 0.0
H953 H 0.97522 0.5577 0.63669 0.0
H954 H 0.03636 0.56285 0.63913 0.0
C955 C 0.24404 0.51027 0.64579 0.0
C956 C 0.15488 0.52734 0.63291 0.0
H957 H 0.08646 0.57094 0.62015 0.0
C958 C 0.13816 0.49761 0.63728 0.0
C959 C 0.13586 0.55451 0.62706 0.0
C960 C 0.15187 0.58797 0.62308 0.0
C961 C 0.10314 0.49391 0.6356 0.0
C962 C 0.08444 0.52026 0.62892 0.0
C963 C 0.10095 0.55043 0.62496 0.0
C964 C 0.04744 0.51764 0.62662 0.0
C965 C 0.08654 0.46196 0.6412 0.0
C966 C 0.0333 0.49098 0.61841 0.0
C967 C -0.00184 0.48759 0.61727 0.0
C968 C 0.97685 0.511 0.6242 0.0
C969 C 0.99112 0.53866 0.63166 0.0
C970 C 0.02605 0.54185 0.63293 0.0
H971 H 0.1024 0.44905 0.64958 0.0
H972 H 0.06144 0.4674 0.64613 0.0
H973 H 0.08293 0.44418 0.6319 0.0
H974 H 0.04941 0.47255 0.61308 0.0
H975 H 0.98766 0.46633 0.6113 0.0
H976 H 0.93772 0.51676 0.88424 0.0
H977 H 0.93549 0.45544 0.88268 0.0
H978 H 0.02696 0.44849 0.90839 0.0
H979 H 0.03075 0.5106 0.90892 0.0
H980 H 0.03005 0.40772 0.88569 0.0
H981 H 0.90601 0.38854 0.91241 0.0
H982 H 0.90235 0.41618 0.89686 0.0
H983 H 0.92728 0.4289 0.91251 0.0
C984 C 0.95763 0.50221 0.88941 0.0
C985 C 0.98484 0.51834 0.89643 0.0
C986 C 0.95592 0.4671 0.88877 0.0
C987 C 0.98069 0.44731 0.89563 0.0
C988 C 0.00748 0.46334 0.90305 0.0
H989 H 0.97111 0.23628 0.91376 0.0
H990 H 0.9636 0.29703 0.91273 0.0
C991 C 0.00955 0.49869 0.90344 0.0
C992 C 0.97943 0.40998 0.89434 0.0
H993 H 0.92776 0.34156 0.8988 0.0
C994 C 0.00779 0.39318 0.88866 0.0
C995 C 0.95039 0.39107 0.89829 0.0
C996 C 0.91997 0.40711 0.9055 0.0
C997 C 0.00805 0.35795 0.88688 0.0
C998 C 0.97853 0.33919 0.89029 0.0
C999 C 0.9501 0.35605 0.89589 0.0
C1000 C 0.97805 0.30173 0.88984 0.0
C1001 C 0.0404 0.3412 0.88192 0.0
C1002 C 0.98687 0.28377 0.87706 0.0
C1003 C 0.99185 0.24873 0.87767 0.0
C1004 C 0.98745 0.23121 0.89101 0.0
C1005 C 0.97525 0.24894 0.90334 0.0
C1006 C 0.97084 0.28382 0.90277 0.0
H1007 H 0.06262 0.35812 0.88331 0.0
H1008 H 0.04512 0.31752 0.88817 0.0
H1009 H 0.03842 0.33479 0.87007 0.0
H1010 H 0.99137 0.29701 0.86681 0.0
H1011 H 0.0008 0.23575 0.86793 0.0
H1012 H 0.94715 0.03649 0.37578 0.0
H1013 H 0.00873 0.03759 0.37239 0.0
H1014 H 0.02061 0.97183 0.40995 0.0
H1015 H 0.959 0.97051 0.41326 0.0
H1016 H 0.06467 0.05379 0.39172 0.0
H1017 H 0.06185 0.91888 0.37457 0.0
H1018 H 0.02423 0.94464 0.37562 0.0
H1019 H 0.04263 0.92751 0.39208 0.0
C1020 C 0.9631 0.02306 0.38351 0.0
C1021 C 0.94869 0.00338 0.39474 0.0
C1022 C -0.00189 0.02354 0.38154 0.0
C1023 C 0.019 0.0042 0.39074 0.0
C1024 C 0.00474 0.98643 0.4026 0.0
H1025 H 0.22784 0.95947 0.39968 0.0
H1026 H 0.16626 0.9585 0.39893 0.0
C1027 C 0.96973 0.98601 0.40459 0.0
C1028 C 0.05542 0.00108 0.38742 0.0
H1029 H 0.11599 0.94393 0.37753 0.0
C1030 C 0.07594 0.02989 0.3885 0.0
C1031 C 0.06979 0.96985 0.38311 0.0
C1032 C 0.04851 0.93847 0.38113 0.0
C1033 C 0.11087 0.02801 0.38595 0.0
C1034 C 0.12537 -0.00338 0.3819 0.0
C1035 C 0.1047 0.96796 0.38053 0.0
C1036 C 0.16235 0.99255 0.38037 0.0
C1037 C 0.13216 0.05931 0.38817 0.0
C1038 C 0.1805 0.01046 0.3696 0.0
C1039 C 0.21585 0.01103 0.36996 0.0
C1040 C 0.2334 0.99375 0.38113 0.0
C1041 C 0.21508 0.97335 0.39103 0.0
C1042 C 0.17986 0.97276 0.39063 0.0
H1043 H 0.11806 0.07963 0.39397 0.0
H1044 H 0.15525 0.05325 0.3946 0.0
H1045 H 0.14022 0.06928 0.37731 0.0
H1046 H 0.16731 0.02534 0.3614 0.0
H1047 H 0.2292 0.02689 0.36216 0.0
H1048 H 0.49825 0.25636 0.86742 0.0
H1049 H 0.51147 0.19582 0.86761 0.0
H1050 H 0.54074 0.20275 0.91321 0.0
H1051 H 0.52934 0.26305 0.91295 0.0
H1052 H 0.57726 0.15645 0.89995 0.0
H1053 H 0.44176 0.13613 0.88662 0.0
H1054 H 0.46465 0.15839 0.87258 0.0
H1055 H 0.45889 0.17747 0.89038 0.0
C1056 C 0.50853 0.2452 0.87735 0.0
C1057 C 0.51186 0.26442 0.89028 0.0
C1058 C 0.51568 0.2105 0.87749 0.0
C1059 C 0.5257 0.19454 0.89061 0.0
C1060 C 0.53251 0.21438 0.90302 0.0
H1061 H 0.47638 0.98733 0.9145 0.0
H1062 H 0.48052 0.04933 0.91314 0.0
C1063 C 0.52588 0.24899 0.90284 0.0
C1064 C 0.52597 0.15713 0.89203 0.0
H1065 H 0.47526 0.08741 0.88961 0.0
C1066 C 0.55501 0.14131 0.89764 0.0
C1067 C 0.49655 0.13754 0.88944 0.0
C1068 C 0.46358 0.15322 0.88457 0.0
C1069 C 0.55549 0.10648 0.90071 0.0
C1070 C 0.5265 0.08672 0.89758 0.0
C1071 C 0.4975 0.10254 0.89197 0.0
C1072 C 0.52576 0.04949 0.89967 0.0
C1073 C 0.58671 0.09156 0.90771 0.0
C1074 C 0.54994 0.02909 0.89274 0.0
C1075 C 0.54797 0.99397 0.89379 0.0
C1076 C 0.52115 0.97846 0.90138 0.0
C1077 C 0.49727 -0.00126 0.90859 0.0
C1078 C 0.49955 0.03405 0.90773 0.0
H1079 H 0.60107 0.11099 0.91395 0.0
H1080 H 0.58026 0.07048 0.9153 0.0
H1081 H 0.60361 0.08169 0.89897 0.0
H1082 H 0.56993 0.04024 0.88619 0.0
H1083 H 0.56718 0.97892 0.88841 0.0
H1084 H 0.53607 0.44633 0.37698 0.0
H1085 H 0.47502 0.4469 0.37192 0.0
H1086 H 0.46094 0.52146 0.40601 0.0
H1087 H 0.52182 0.52144 0.41083 0.0
H1088 H 0.41716 0.43641 0.38966 0.0
H1089 H 0.42438 0.56807 0.3687 0.0
H1090 H 0.46141 0.54223 0.37165 0.0
H1091 H 0.44134 0.56313 0.38689 0.0
C1092 C 0.51967 0.4622 0.38357 0.0
C1093 C 0.5333 0.48388 0.39423 0.0
C1094 C 0.48501 0.46268 0.38063 0.0
C1095 C 0.4638 0.48492 0.38833 0.0
C1096 C 0.47713 0.50474 0.39973 0.0
H1097 H 0.25828 0.52906 0.39973 0.0
H1098 H 0.31965 0.53129 0.39733 0.0
C1099 C 0.51171 0.50434 0.40262 0.0
C1100 C 0.42789 0.48831 0.38421 0.0
H1101 H 0.36892 0.54622 0.37334 0.0
C1102 C 0.40662 0.46022 0.38588 0.0
C1103 C 0.41447 0.51941 0.37915 0.0
C1104 C 0.43663 0.54986 0.37634 0.0
C1105 C 0.37178 0.4629 0.38337 0.0
C1106 C 0.35816 0.49438 0.3789 0.0
C1107 C 0.37959 0.52216 0.37673 0.0
C1108 C 0.32133 0.4995 0.378 0.0
C1109 C 0.34952 0.43251 0.38621 0.0
C1110 C 0.30206 0.48266 0.36734 0.0
C1111 C 0.2669 0.48139 0.36865 0.0
C1112 C 0.25076 0.49674 0.38072 0.0
C1113 C 0.27001 0.51654 0.39045 0.0
C1114 C 0.30507 0.51791 0.38909 0.0
H1115 H 0.36351 0.41149 0.39159 0.0
H1116 H 0.32778 0.43959 0.3933 0.0
H1117 H 0.33929 0.42311 0.37561 0.0
H1118 H 0.31434 0.46869 0.3586 0.0
H1119 H 0.25279 0.4661 0.36091 0.0
H1120 H 0.05255 0.73057 0.90216 0.0
H1121 H 0.06145 0.79176 0.90305 0.0
H1122 H 0.99139 0.8049 0.86717 0.0
H1123 H 0.98306 0.74378 0.86594 0.0
H1124 H 0.04236 0.85393 0.86762 0.0
H1125 H 0.98074 0.83888 0.92229 0.0
H1126 H 0.01989 0.81645 0.92019 0.0
H1127 H 0.98385 0.80462 0.90929 0.0
C1128 C 0.03998 0.74641 0.89412 0.0
C1129 C 0.01644 0.73255 0.88424 0.0
C1130 C 0.04495 0.78134 0.8947 0.0
C1131 C 0.02605 0.80276 0.88556 0.0
C1132 C 0.00585 0.78872 0.87446 0.0
H1133 H 0.95702 0.00911 0.88362 0.0
H1134 H 0.96487 0.94777 0.8808 0.0
C1135 C 0.00121 0.75374 0.87373 0.0
C1136 C 0.02331 0.83924 0.88887 0.0
H1137 H 0.9941 0.89434 0.91487 0.0
C1138 C 0.03203 0.86281 0.87797 0.0
C1139 C 0.00934 0.85063 0.90236 0.0
C1140 C -0.0024 0.82639 0.91417 0.0
C1141 C 0.02722 0.89759 0.88021 0.0
C1142 C 0.01309 0.90881 0.89363 0.0
C1143 C 0.00492 0.8854 0.90462 0.0
C1144 C 0.00618 0.94487 0.89635 0.0
C1145 C 0.03719 0.92217 0.86825 0.0
C1146 C 0.02579 0.96287 0.90651 0.0
C1147 C 0.0213 -0.00231 0.90813 0.0
C1148 C -0.00303 0.01471 0.89968 0.0
C1149 C 0.97593 -0.0037 0.89021 0.0
C1150 C 0.98057 0.96152 0.88852 0.0
H1151 H 0.05353 0.91014 0.8598 0.0
H1152 H 0.01407 0.93175 0.86274 0.0
H1153 H 0.05076 0.94423 0.87298 0.0
H1154 H 0.04548 0.95024 0.91271 0.0
H1155 H 0.038 0.01158 0.91539 0.0
H1156 H 0.73028 0.96239 0.36453 0.0
H1157 H 0.66866 0.96506 0.36297 0.0
H1158 H 0.66626 0.03164 0.4005 0.0
H1159 H 0.7277 0.02943 0.40209 0.0
H1160 H 0.63099 0.94068 0.3871 0.0
H1161 H 0.59446 0.07236 0.37316 0.0
H1162 H 0.63604 0.05558 0.36938 0.0
H1163 H 0.62522 0.06937 0.38762 0.0
C1164 C 0.71678 0.9786 0.37213 0.0
C1165 C 0.73388 -0.00466 0.38357 0.0
C1166 C 0.68154 0.97993 0.37125 0.0
C1167 C 0.66297 -0.00155 0.38164 0.0
C1168 C 0.68015 0.0175 0.39227 0.0
H1169 H 0.45642 0.01451 0.41084 0.0
H1170 H 0.51826 0.01472 0.40882 0.0
C1171 C 0.71531 0.01607 0.3932 0.0
C1172 C 0.62596 0.99406 0.38276 0.0
H1173 H 0.55141 0.03725 0.38354 0.0
C1174 C 0.61348 0.96168 0.38614 0.0
C1175 C 0.60337 0.0216 0.38167 0.0
C1176 C 0.61535 0.05665 0.37763 0.0
C1177 C 0.57901 0.95626 0.38887 0.0
C1178 C 0.55644 0.98387 0.38794 0.0
C1179 C 0.56886 0.01617 0.38435 0.0
C1180 C 0.51972 0.97991 0.39046 0.0
C1181 C 0.56721 0.92128 0.39317 0.0
C1182 C 0.50026 0.95949 0.38109 0.0
C1183 C 0.46509 0.95907 0.38237 0.0
C1184 C 0.44897 0.9793 0.39291 0.0
C1185 C 0.46847 -0.0016 0.40275 0.0
C1186 C 0.50364 -0.00122 0.4015 0.0
H1187 H 0.58843 0.9053 0.39715 0.0
H1188 H 0.54761 0.92254 0.4019 0.0
H1189 H 0.55597 0.90868 0.38343 0.0
H1190 H 0.51213 0.94517 0.37235 0.0
H1191 H 0.45034 0.94444 0.3746 0.0
H1192 H 0.42133 0.47899 0.8851 0.0
H1193 H 0.41884 0.54042 0.88258 0.0
H1194 H 0.51052 0.54962 0.90798 0.0
H1195 H 0.51411 0.48768 0.90978 0.0
H1196 H 0.41347 0.5906 0.9015 0.0
H1197 H 0.53499 0.60251 0.87167 0.0
H1198 H 0.51523 0.56213 0.87513 0.0
H1199 H 0.53988 0.58244 0.88924 0.0
C1200 C 0.44121 0.49412 0.88998 0.0
C1201 C 0.46844 0.47869 0.89729 0.0
C1202 C 0.43958 0.52921 0.88865 0.0
C1203 C 0.46494 0.54959 0.89476 0.0
C1204 C 0.49122 0.53431 0.90279 0.0
H1205 H 0.46426 0.7591 0.91454 0.0
H1206 H 0.45071 0.69941 0.91288 0.0
C1207 C 0.49307 0.49904 0.90397 0.0
C1208 C 0.46382 0.58676 0.89258 0.0
H1209 H 0.51044 0.65378 0.88041 0.0
C1210 C 0.43456 0.60441 0.89678 0.0
C1211 C 0.4909 0.60464 0.88601 0.0
C1212 C 0.52185 0.58692 0.8801 0.0
C1213 C 0.43221 0.63965 0.89512 0.0
C1214 C 0.46024 0.65779 0.88951 0.0
C1215 C 0.48896 0.63995 0.88479 0.0
C1216 C 0.46188 0.69529 0.88963 0.0
C1217 C 0.39965 0.65696 0.89936 0.0
C1218 C 0.47221 0.71325 0.87705 0.0
C1219 C 0.48064 0.74757 0.87801 0.0
C1220 C 0.47897 0.76442 0.89161 0.0
C1221 C 0.46597 0.74699 0.90389 0.0
C1222 C 0.45789 0.71273 0.90294 0.0
H1223 H 0.37767 0.63978 0.89785 0.0
H1224 H 0.40067 0.66392 0.91117 0.0
H1225 H 0.39538 0.68027 0.89279 0.0
H1226 H 0.47546 0.70027 0.86665 0.0
H1227 H 0.49046 0.76022 0.86833 0.0
H1228 H 0.75395 0.50891 0.41782 0.0
H1229 H 0.81497 0.50512 0.41766 0.0
H1230 H 0.81547 0.51427 0.37034 0.0
H1231 H 0.75364 0.51982 0.37044 0.0
H1232 H 0.85638 0.46168 0.4067 0.0
H1233 H 0.88182 0.58674 0.38115 0.0
H1234 H 0.84019 0.57416 0.38713 0.0
H1235 H 0.85664 0.55946 0.36982 0.0
C1236 C 0.76681 0.51002 0.4073 0.0
C1237 C 0.74885 0.51491 0.39411 0.0
C1238 C 0.80185 0.50788 0.40726 0.0
C1239 C 0.81989 0.51009 0.39403 0.0
C1240 C 0.8021 0.51351 0.38073 0.0
H1241 H 0.02714 0.44681 0.38737 0.0
H1242 H 0.96594 0.45217 0.38722 0.0
C1243 C 0.76679 0.51628 0.38077 0.0
C1244 C 0.85728 0.50845 0.39446 0.0
H1245 H 0.92926 0.55097 0.38503 0.0
C1246 C 0.87228 0.48129 0.40199 0.0
C1247 C 0.87799 0.53443 0.38862 0.0
C1248 C 0.86338 0.56552 0.38136 0.0
C1249 C 0.90734 0.47925 0.40378 0.0
C1250 C 0.92815 0.50431 0.3973 0.0
C1251 C 0.91323 0.53168 0.3899 0.0
C1252 C 0.96543 0.5016 0.39747 0.0
C1253 C 0.92158 0.45061 0.41288 0.0
C1254 C 0.98562 0.52812 0.40287 0.0
C1255 C 0.02092 0.52551 0.40254 0.0
C1256 C 0.03626 0.49642 0.39676 0.0
C1257 C 0.01594 0.46982 0.39162 0.0
C1258 C 0.98093 0.4726 0.39174 0.0
H1259 H 0.90288 0.44144 0.4211 0.0
H1260 H 0.92779 0.42905 0.40555 0.0
H1261 H 0.94488 0.45838 0.41878 0.0
H1262 H 0.97409 0.5508 0.40728 0.0
H1263 H 0.03618 0.54632 0.40654 0.0
H1264 H 0.02646 0.73104 0.12009 0.0
H1265 H 0.03007 0.6696 0.1219 0.0
H1266 H 0.96739 0.67141 0.16071 0.0
H1267 H 0.96323 0.73313 0.15891 0.0
H1268 H 0.04832 0.62132 0.14414 0.0
H1269 H 0.91158 0.6184 0.12956 0.0
H1270 H 0.93688 0.65623 0.12788 0.0
H1271 H 0.92283 0.64224 0.14566 0.0
C1272 C 0.01407 0.71853 0.12923 0.0
C1273 C 0.99398 0.73689 0.13919 0.0
C1274 C 0.0162 0.6834 0.13025 0.0
C1275 C -0.00171 0.66606 0.14121 0.0
C1276 C 0.98086 0.68445 0.15201 0.0
H1277 H 0.95888 0.44938 0.14708 0.0
H1278 H 0.95719 0.51097 0.15065 0.0
C1279 C 0.97875 0.71971 0.15103 0.0
C1280 C -0.0048 0.62888 0.14029 0.0
H1281 H 0.93929 0.56602 0.13172 0.0
C1282 C 0.02448 0.60914 0.14155 0.0
C1283 C 0.96401 0.61324 0.1368 0.0
C1284 C 0.93201 0.63352 0.13477 0.0
C1285 C 0.02344 0.57404 0.13933 0.0
C1286 C 0.99243 0.55856 0.13548 0.0
C1287 C 0.963 0.57814 0.13458 0.0
C1288 C 0.99021 0.522 0.13227 0.0
C1289 C 0.0555 0.55379 0.14116 0.0
C1290 C 0.008 0.50818 0.12034 0.0
C1291 C 0.0088 0.47319 0.11826 0.0
C1292 C 0.99173 0.45173 0.12806 0.0
C1293 C 0.97213 0.46568 0.1394 0.0
C1294 C 0.97131 0.50067 0.14148 0.0
H1295 H 0.07478 0.56782 0.14763 0.0
H1296 H 0.05031 0.52927 0.14671 0.0
H1297 H 0.06635 0.54835 0.13016 0.0
H1298 H 0.02219 0.52439 0.11296 0.0
H1299 H 0.02421 0.46282 0.10951 0.0
H1300 H 0.73493 0.0388 0.61465 0.0
H1301 H 0.79619 0.04571 0.61389 0.0
H1302 H 0.80447 -0.00067 0.65666 0.0
H1303 H 0.74313 0.99212 0.65757 0.0
H1304 H 0.85524 0.0603 0.64579 0.0
H1305 H 0.84136 0.94298 0.61224 0.0
H1306 H 0.81363 0.97807 0.60844 0.0
H1307 H 0.80988 0.95567 0.62552 0.0
C1308 C 0.74956 0.03117 0.62415 0.0
C1309 C 0.73422 0.01411 0.63601 0.0
C1310 C 0.78457 0.03521 0.62369 0.0
C1311 C 0.80462 0.0225 0.63511 0.0
C1312 C 0.78921 0.0092 0.64774 0.0
H1313 H 0.00816 0.94512 0.63701 0.0
H1314 H 0.94678 0.95385 0.63883 0.0
C1315 C 0.75413 0.00515 0.64824 0.0
C1316 C 0.84105 0.01732 0.63268 0.0
H1317 H 0.89638 0.96398 0.61562 0.0
C1318 C 0.86436 0.0394 0.63916 0.0
C1319 C 0.85256 0.98974 0.62415 0.0
C1320 C 0.82821 0.96503 0.6172 0.0
C1321 C 0.89926 0.0346 0.63724 0.0
C1322 C 0.91073 0.00719 0.62856 0.0
C1323 C 0.88735 0.98504 0.62218 0.0
C1324 C 0.94705 0.00052 0.62633 0.0
C1325 C 0.92364 0.05838 0.64471 0.0
C1326 C 0.967 0.02317 0.61821 0.0
C1327 C 0.00179 0.018 0.61705 0.0
C1328 C 0.01693 0.99013 0.62398 0.0
C1329 C -0.00323 0.96661 0.6315 0.0
C1330 C 0.96193 0.9717 0.63262 0.0
H1331 H 0.91099 0.07415 0.65319 0.0
H1332 H 0.94452 0.04402 0.64998 0.0
H1333 H 0.93495 0.07552 0.63637 0.0
H1334 H 0.95578 0.04527 0.61312 0.0
H1335 H 0.0171 0.0366 0.61134 0.0
H1336 H 0.53851 0.75934 0.15903 0.0
H1337 H 0.53879 0.82132 0.16005 0.0
H1338 H 0.46604 0.82486 0.12477 0.0
H1339 H 0.46532 0.76328 0.12378 0.0
H1340 H 0.55974 0.85935 0.13567 0.0
H1341 H 0.43091 0.8971 0.15288 0.0
H1342 H 0.44749 0.85512 0.15602 0.0
H1343 H 0.43072 0.86652 0.1383 0.0
C1344 C 0.52169 0.7733 0.15185 0.0
C1345 C 0.50205 0.75642 0.14125 0.0
C1346 C 0.52207 0.8087 0.15238 0.0
C1347 C 0.5024 0.82764 0.14251 0.0
C1348 C 0.48104 0.81076 0.13264 0.0
H1349 H 0.48097 0.0295 0.10954 0.0
H1350 H 0.4834 0.96801 0.11304 0.0
C1351 C 0.48078 0.77551 0.13204 0.0
C1352 C 0.50703 0.86469 0.14117 0.0
H1353 H 0.4637 0.93924 0.14028 0.0
C1354 C 0.53891 0.87696 0.1369 0.0
C1355 C 0.47975 0.88747 0.14269 0.0
C1356 C 0.44537 0.87595 0.14787 0.0
C1357 C 0.54388 0.91129 0.13351 0.0
C1358 C 0.51631 0.93385 0.1346 0.0
C1359 C 0.4847 0.92174 0.13928 0.0
C1360 C 0.51942 0.97022 0.13093 0.0
C1361 C 0.57817 0.92293 0.12828 0.0
C1362 C 0.53977 0.99162 0.13949 0.0
C1363 C 0.53862 0.02665 0.13738 0.0
C1364 C 0.51695 0.04064 0.12679 0.0
C1365 C 0.49817 0.01914 0.11764 0.0
C1366 C 0.49932 0.98414 0.11973 0.0
H1367 H 0.5944 0.90135 0.12489 0.0
H1368 H 0.57568 0.94067 0.11885 0.0
H1369 H 0.59113 0.93652 0.13734 0.0
H1370 H 0.55507 0.98142 0.14832 0.0
H1371 H 0.55299 0.04295 0.14464 0.0
H1372 H 0.48235 0.50895 0.61072 0.0
H1373 H 0.54429 0.50579 0.61196 0.0
H1374 H 0.5367 0.41638 0.6391 0.0
H1375 H 0.4753 0.41828 0.63709 0.0
H1376 H 0.58303 0.5111 0.63565 0.0
H1377 H 0.60628 0.38607 0.61022 0.0
H1378 H 0.56582 0.40695 0.60921 0.0
H1379 H 0.57749 0.38342 0.62541 0.0
C1380 C 0.49405 0.48829 0.61667 0.0
C1381 C 0.47416 0.46408 0.62393 0.0
C1382 C 0.52933 0.48659 0.61746 0.0
C1383 C 0.54517 0.46062 0.6255 0.0
C1384 C 0.52519 0.4362 0.63257 0.0
H1385 H 0.75442 0.48715 0.65495 0.0
H1386 H 0.69378 0.47456 0.65546 0.0
C1387 C 0.49006 0.43766 0.63162 0.0
C1388 C 0.58243 0.46019 0.62725 0.0
H1389 H 0.65254 0.4107 0.6232 0.0
C1390 C 0.59826 0.4892 0.63287 0.0
C1391 C 0.60226 0.43162 0.62356 0.0
C1392 C 0.58713 0.4004 0.61663 0.0
C1393 C 0.63338 0.49058 0.63483 0.0
C1394 C 0.65314 0.46166 0.63156 0.0
C1395 C 0.63729 0.43258 0.62599 0.0
C1396 C 0.69057 0.46252 0.63227 0.0
C1397 C 0.64902 0.52349 0.63983 0.0
C1398 C 0.70927 0.45716 0.61939 0.0
C1399 C 0.74389 0.46358 0.61914 0.0
C1400 C 0.76052 0.47582 0.63175 0.0
C1401 C 0.74234 0.47817 0.64501 0.0
C1402 C 0.70761 0.47134 0.64528 0.0
H1403 H 0.63141 0.54517 0.63846 0.0
H1404 H 0.65552 0.5216 0.65168 0.0
H1405 H 0.67252 0.52906 0.63359 0.0
H1406 H 0.69676 0.44996 0.60927 0.0
H1407 H 0.75711 0.46102 0.60876 0.0
H1408 H 0.17097 0.42338 0.31631 0.0
H1409 H 0.16341 0.41611 0.28968 0.0
H1410 H 0.05822 0.39232 0.29651 0.0
H1411 H 0.06555 0.39951 0.32307 0.0
H1412 H 0.13339 0.34979 0.27704 0.0
H1413 H 0.06386 0.46752 0.26228 0.0
H1414 H 0.09189 0.46527 0.27796 0.0
H1415 H 0.05123 0.44529 0.27871 0.0
C1416 C 0.14607 0.41746 0.31211 0.0
C1417 C 0.11874 0.41246 0.32176 0.0
C1418 C 0.14185 0.41304 0.29692 0.0
C1419 C 0.11019 0.40398 0.29116 0.0
C1420 C 0.08275 0.39968 0.30074 0.0
H1421 H 0.03532 0.36698 0.20231 0.0
H1422 H 0.04019 0.376 0.22881 0.0
C1423 C 0.08702 0.40369 0.31589 0.0
C1424 C 0.10617 0.39671 0.27527 0.0
H1425 H 0.07064 0.42666 0.2436 0.0
C1426 C 0.11983 0.36662 0.26968 0.0
C1427 C 0.08795 0.41845 0.26582 0.0
C1428 C 0.07294 0.45109 0.27139 0.0
C1429 C 0.11558 0.35754 0.25486 0.0
C1430 C 0.09802 0.37968 0.24526 0.0
C1431 C 0.08412 0.4097 0.25092 0.0
C1432 C 0.09479 0.37267 0.22924 0.0
C1433 C 0.12924 0.32388 0.24976 0.0
C1434 C 0.12379 0.36802 0.22059 0.0
C1435 C 0.12103 0.36207 0.2055 0.0
C1436 C 0.0892 0.36095 0.1986 0.0
C1437 C 0.06014 0.36619 0.20723 0.0
C1438 C 0.06293 0.37192 0.22241 0.0
H1439 H 0.13174 0.30575 0.25905 0.0
H1440 H 0.11273 0.31238 0.24125 0.0
H1441 H 0.15477 0.32766 0.24496 0.0
H1442 H 0.14871 0.36949 0.22547 0.0
H1443 H 0.14401 0.35859 0.1992 0.0
H1444 H 0.15424 0.04678 0.70679 0.0
H1445 H 0.14693 0.05339 0.73347 0.0
H1446 H 0.04197 0.07839 0.72694 0.0
H1447 H 0.04904 0.07183 0.70037 0.0
H1448 H 0.12075 0.11823 0.74651 0.0
H1449 H 0.04351 0.00525 0.76096 0.0
H1450 H 0.07031 0.00667 0.74485 0.0
H1451 H 0.03078 0.02888 0.74495 0.0
C1452 C 0.12942 0.05274 0.71107 0.0
C1453 C 0.10211 0.05838 0.7015 0.0
C1454 C 0.12534 0.05679 0.7263 0.0
C1455 C 0.09382 0.06606 0.73218 0.0
C1456 C 0.06637 0.07079 0.72266 0.0
H1457 H 0.02007 0.10772 0.82104 0.0
H1458 H 0.0245 0.09898 0.79447 0.0
C1459 C 0.07051 0.06714 0.70748 0.0
C1460 C 0.09005 0.07343 0.74809 0.0
H1461 H 0.0513 0.04627 0.77956 0.0
C1462 C 0.10575 0.10242 0.75378 0.0
C1463 C 0.06993 0.0531 0.75744 0.0
C1464 C 0.05275 0.02157 0.75184 0.0
C1465 C 0.10168 0.11183 0.76857 0.0
C1466 C 0.08217 0.09109 0.77807 0.0
C1467 C 0.06623 0.06219 0.77232 0.0
C1468 C 0.07921 0.09818 0.79411 0.0
C1469 C 0.11769 0.14438 0.77376 0.0
C1470 C 0.10838 0.1005 0.80281 0.0
C1471 C 0.10593 0.10625 0.81792 0.0
C1472 C 0.07422 0.10947 0.82482 0.0
C1473 C 0.04492 0.10674 0.81612 0.0
C1474 C 0.04742 0.1012 0.80091 0.0
H1475 H 0.12165 0.16233 0.76449 0.0
H1476 H 0.10194 0.157 0.78225 0.0
H1477 H 0.14281 0.13874 0.7786 0.0
H1478 H 0.13317 0.09726 0.79795 0.0
H1479 H 0.12907 0.1078 0.82424 0.0
H1480 H 0.36698 0.13356 0.32044 0.0
H1481 H 0.3785 0.13907 0.29415 0.0
H1482 H 0.37945 0.03048 0.28986 0.0
H1483 H 0.36896 0.0246 0.31626 0.0
H1484 H 0.4368 0.10859 0.27828 0.0
H1485 H 0.31079 0.0671 0.25782 0.0
H1486 H 0.31708 0.0825 0.27632 0.0
H1487 H 0.33107 0.04086 0.2714 0.0
C1488 C 0.36946 0.11075 0.31393 0.0
C1489 C 0.36621 0.0786 0.32049 0.0
C1490 C 0.37607 0.11401 0.2989 0.0
C1491 C 0.37946 0.08522 0.29005 0.0
C1492 C 0.37631 0.05304 0.29648 0.0
H1493 H 0.40258 0.06301 0.19562 0.0
H1494 H 0.39717 0.05352 0.22206 0.0
C1495 C 0.36989 0.04973 0.31158 0.0
C1496 C 0.3869 0.08912 0.27415 0.0
H1497 H 0.35202 0.08032 0.24006 0.0
C1498 C 0.41836 0.10236 0.26989 0.0
C1499 C 0.36279 0.08088 0.26328 0.0
C1500 C 0.3284 0.06722 0.26734 0.0
C1501 C 0.4265 0.10731 0.25498 0.0
C1502 C 0.40212 0.09968 0.24407 0.0
C1503 C 0.37072 0.08622 0.24839 0.0
C1504 C 0.40844 0.10528 0.2281 0.0
C1505 C 0.46138 0.11995 0.25108 0.0
C1506 C 0.4169 0.13751 0.22261 0.0
C1507 C 0.42044 0.14291 0.20744 0.0
C1508 C 0.41509 0.11626 0.19749 0.0
C1509 C 0.40691 0.08403 0.20302 0.0
C1510 C 0.40377 0.07857 0.21814 0.0
H1511 H 0.47981 0.11466 0.26001 0.0
H1512 H 0.47071 0.10815 0.24077 0.0
H1513 H 0.46046 0.14777 0.24945 0.0
H1514 H 0.41968 0.15877 0.23001 0.0
H1515 H 0.42585 0.1682 0.2035 0.0
H1516 H 0.38549 0.42531 0.82522 0.0
H1517 H 0.38026 0.435 0.79881 0.0
H1518 H 0.4409 0.34658 0.79029 0.0
H1519 H 0.44613 0.33647 0.81686 0.0
H1520 H 0.45506 0.40637 0.77157 0.0
H1521 H 0.31908 0.37149 0.77382 0.0
H1522 H 0.33177 0.4036 0.78666 0.0
H1523 H 0.34826 0.36143 0.78845 0.0
C1524 C 0.39804 0.40803 0.81776 0.0
C1525 C 0.41628 0.38011 0.82318 0.0
C1526 C 0.39498 0.41364 0.80266 0.0
C1527 C 0.40979 0.39129 0.79259 0.0
C1528 C 0.42929 0.36416 0.7979 0.0
H1529 H 0.3549 0.35986 0.70195 0.0
H1530 H 0.36657 0.35634 0.72825 0.0
C1531 C 0.43245 0.35854 0.8131 0.0
C1532 C 0.40307 0.39531 0.77661 0.0
H1533 H 0.33933 0.39353 0.75128 0.0
C1534 C 0.42981 0.40355 0.7671 0.0
C1535 C 0.37011 0.39135 0.77081 0.0
C1536 C 0.34064 0.3812 0.78041 0.0
C1537 C 0.42434 0.40827 0.75193 0.0
C1538 C 0.39122 0.40499 0.74619 0.0
C1539 C 0.36462 0.39645 0.75572 0.0
C1540 C 0.38383 0.40808 0.73021 0.0
C1541 C 0.45412 0.41599 0.74211 0.0
C1542 C 0.38907 0.43859 0.72256 0.0
C1543 C 0.38228 0.44074 0.70743 0.0
C1544 C 0.36998 0.41242 0.69973 0.0
C1545 C 0.36431 0.38216 0.70753 0.0
C1546 C 0.37096 0.38008 0.72258 0.0
H1547 H 0.47857 0.41063 0.74765 0.0
H1548 H 0.4528 0.40098 0.73181 0.0
H1549 H 0.45368 0.4432 0.73908 0.0
H1550 H 0.39858 0.46067 0.72826 0.0
H1551 H 0.38774 0.46416 0.70173 0.0
H1552 H 0.96916 0.60892 0.81736 0.0
H1553 H 0.96257 0.59863 0.79099 0.0
H1554 H 0.8542 0.6003 0.79598 0.0
H1555 H 0.8605 0.61242 0.82207 0.0
H1556 H 0.933 0.54603 0.77689 0.0
H1557 H 0.86577 0.66401 0.76194 0.0
H1558 H 0.88654 0.65862 0.77944 0.0
H1559 H 0.84491 0.64147 0.77647 0.0
C1560 C 0.94395 0.60834 0.8128 0.0
C1561 C 0.91538 0.61259 0.82184 0.0
C1562 C 0.9402 0.60189 0.79772 0.0
C1563 C 0.90787 0.59941 0.7914 0.0
C1564 C 0.87941 0.60308 0.80046 0.0
H1565 H 0.83057 0.54349 0.70471 0.0
H1566 H 0.83884 0.54866 0.73144 0.0
C1567 C 0.8831 0.60975 0.81544 0.0
C1568 C 0.90363 0.59183 0.77547 0.0
H1569 H 0.86499 0.61978 0.74409 0.0
C1570 C 0.91831 0.56228 0.76971 0.0
C1571 C 0.88448 0.61305 0.76606 0.0
C1572 C 0.86982 0.64622 0.77125 0.0
C1573 C 0.91387 0.55318 0.75489 0.0
C1574 C 0.89417 0.57403 0.74564 0.0
C1575 C 0.87962 0.60358 0.75133 0.0
C1576 C 0.89024 0.56697 0.72974 0.0
C1577 C 0.93004 0.52129 0.74913 0.0
C1578 C 0.9165 0.57524 0.72004 0.0
C1579 C 0.91177 0.57253 0.70487 0.0
C1580 C 0.88081 0.56116 0.6991 0.0
C1581 C 0.85489 0.55168 0.70884 0.0
C1582 C 0.8595 0.55483 0.72408 0.0
H1583 H 0.94116 0.50569 0.75808 0.0
H1584 H 0.91111 0.50588 0.7431 0.0
H1585 H 0.9504 0.52808 0.74125 0.0
H1586 H 0.94027 0.58491 0.7242 0.0
H1587 H 0.93217 0.58008 0.69761 0.0
H1588 H 0.92568 0.81971 0.20611 0.0
H1589 H 0.91814 0.82866 0.23264 0.0
H1590 H 0.89438 0.93359 0.22461 0.0
H1591 H 0.901 0.92456 0.19819 0.0
H1592 H 0.94698 0.86954 0.25312 0.0
H1593 H 0.81199 0.90416 0.247 0.0
H1594 H 0.83636 0.8866 0.23209 0.0
H1595 H 0.83948 0.93093 0.23647 0.0
C1596 C 0.91941 0.84478 0.21004 0.0
C1597 C 0.91389 0.87142 0.20007 0.0
C1598 C 0.91489 0.84985 0.2252 0.0
C1599 C 0.90481 0.88162 0.23063 0.0
C1600 C 0.90108 0.9086 0.2207 0.0
H1601 H 0.86826 0.95922 0.31941 0.0
H1602 H 0.87974 0.95391 0.29307 0.0
C1603 C 0.90514 0.90346 0.2056 0.0
C1604 C 0.89749 0.88649 0.24658 0.0
H1605 H 0.83624 0.91264 0.27063 0.0
C1606 C 0.92273 0.87885 0.25693 0.0
C1607 C 0.86575 0.89854 0.25161 0.0
C1608 C 0.83673 0.90521 0.24123 0.0
C1609 C 0.91723 0.88335 0.2721 0.0
C1610 C 0.88571 0.89575 0.27705 0.0
C1611 C 0.86051 0.90349 0.26676 0.0
C1612 C 0.87787 0.89923 0.29295 0.0
C1613 C 0.94517 0.87501 0.28278 0.0
C1614 C 0.8724 0.87029 0.30154 0.0
C1615 C 0.86506 0.87323 0.31653 0.0
C1616 C 0.86295 0.90522 0.32331 0.0
C1617 C 0.86839 0.93424 0.31461 0.0
C1618 C 0.87547 0.93125 0.29954 0.0
H1619 H 0.96978 0.87106 0.27714 0.0
H1620 H 0.94804 0.89558 0.291 0.0
H1621 H 0.93859 0.85148 0.28882 0.0
H1622 H 0.87385 0.84535 0.29664 0.0
H1623 H 0.86111 0.85028 0.32282 0.0
H1624 H 0.54473 0.83994 0.81947 0.0
H1625 H 0.55056 0.85016 0.79295 0.0
H1626 H 0.6099 0.93936 0.80175 0.0
H1627 H 0.60394 0.92966 0.82814 0.0
H1628 H 0.53626 0.91103 0.77431 0.0
H1629 H 0.67207 0.87559 0.77688 0.0
H1630 H 0.64244 0.86492 0.79128 0.0
H1631 H 0.65889 0.90718 0.78988 0.0
C1632 C 0.55821 0.86222 0.81579 0.0
C1633 C 0.57377 0.88404 0.82596 0.0
C1634 C 0.56173 0.86789 0.80061 0.0
C1635 C 0.58102 0.89529 0.7954 0.0
C1636 C 0.5953 0.91783 0.80553 0.0
H1637 H 0.60595 0.97002 0.70503 0.0
H1638 H 0.59499 0.96601 0.73155 0.0
C1639 C 0.59183 0.9122 0.82062 0.0
C1640 C 0.58805 0.89948 0.77946 0.0
H1641 H 0.65221 0.8976 0.75429 0.0
C1642 C 0.56156 0.90808 0.7699 0.0
C1643 C 0.62108 0.89539 0.77374 0.0
C1644 C 0.65028 0.88499 0.78342 0.0
C1645 C 0.56734 0.91306 0.75477 0.0
C1646 C 0.60052 0.90958 0.74911 0.0
C1647 C 0.62688 0.90065 0.75867 0.0
C1648 C 0.60817 0.91297 0.73316 0.0
C1649 C 0.53784 0.92128 0.74489 0.0
C1650 C 0.62017 0.88485 0.72537 0.0
C1651 C 0.62681 0.88719 0.71031 0.0
C1652 C 0.62204 0.91784 0.70271 0.0
C1653 C 0.61069 0.94628 0.71058 0.0
C1654 C 0.60386 0.94386 0.7257 0.0
H1655 H 0.51321 0.91638 0.75038 0.0
H1656 H 0.53887 0.94846 0.74183 0.0
H1657 H 0.53903 0.90619 0.7346 0.0
H1658 H 0.62383 0.86081 0.7309 0.0
H1659 H 0.63546 0.86479 0.70458 0.0
H1660 H 0.59061 0.56536 0.2002 0.0
H1661 H 0.59677 0.55662 0.22667 0.0
H1662 H 0.56814 0.66042 0.23436 0.0
H1663 H 0.56139 0.66911 0.20785 0.0
H1664 H 0.64018 0.58644 0.24478 0.0
H1665 H 0.5102 0.61286 0.26431 0.0
H1666 H 0.51999 0.60656 0.24512 0.0
H1667 H 0.52759 0.64693 0.25366 0.0
C1668 C 0.58511 0.58621 0.20755 0.0
C1669 C 0.57498 0.61779 0.20193 0.0
C1670 C 0.58869 0.58118 0.22269 0.0
C1671 C 0.58249 0.60767 0.23259 0.0
C1672 C 0.57215 0.63926 0.22702 0.0
H1673 H 0.6169 0.64055 0.32512 0.0
H1674 H 0.60715 0.64451 0.29867 0.0
C1675 C 0.56823 0.64422 0.21183 0.0
C1676 C 0.58892 0.60265 0.2486 0.0
H1677 H 0.55317 0.60991 0.2827 0.0
C1678 C 0.62102 0.59129 0.25305 0.0
C1679 C 0.56394 0.60886 0.25943 0.0
C1680 C 0.5284 0.61915 0.2554 0.0
C1681 C 0.62905 0.58679 0.26799 0.0
C1682 C 0.60431 0.59368 0.27879 0.0
C1683 C 0.57213 0.60473 0.27438 0.0
C1684 C 0.61165 0.59076 0.29476 0.0
C1685 C 0.66419 0.57555 0.27217 0.0
C1686 C 0.61751 0.55915 0.30138 0.0
C1687 C 0.62298 0.55672 0.3166 0.0
C1688 C 0.62289 0.58593 0.32544 0.0
C1689 C 0.6173 0.61751 0.31867 0.0
C1690 C 0.61168 0.61988 0.30354 0.0
H1691 H 0.68199 0.57684 0.26273 0.0
H1692 H 0.67422 0.59142 0.28125 0.0
H1693 H 0.66326 0.54898 0.27613 0.0
H1694 H 0.61698 0.53627 0.29483 0.0
H1695 H 0.6259 0.53188 0.32141 0.0
H1696 H 0.38583 0.1818 0.08535 0.0
H1697 H 0.33117 0.20503 0.07786 0.0
H1698 H 0.28998 0.18098 0.12054 0.0
H1699 H 0.34413 0.15732 0.12808 0.0
H1700 H 0.2438 0.17227 0.09666 0.0
H1701 H 0.30826 0.29786 0.09654 0.0
H1702 H 0.32507 0.26566 0.08465 0.0
H1703 H 0.32777 0.2606 0.10424 0.0
C1704 C 0.36491 0.18063 0.09302 0.0
C1705 C 0.36952 0.16836 0.10743 0.0
C1706 C 0.33376 0.19405 0.08873 0.0
C1707 C 0.30692 0.19536 0.09878 0.0
C1708 C 0.31055 0.18036 0.11267 0.0
H1709 H 0.15381 0.31889 0.12807 0.0
H1710 H 0.20603 0.29128 0.12044 0.0
C1711 C 0.34157 0.16693 0.11697 0.0
C1712 C 0.27646 0.21575 0.09574 0.0
H1713 H 0.24928 0.29771 0.09505 0.0
C1714 C 0.24488 0.19966 0.09593 0.0
C1715 C 0.2782 0.2515 0.09497 0.0
C1716 C 0.31155 0.27012 0.09517 0.0
C1717 C 0.21484 0.21848 0.09618 0.0
C1718 C 0.21666 0.25424 0.09605 0.0
C1719 C 0.24817 0.27028 0.09503 0.0
C1720 C 0.18671 0.27516 0.09931 0.0
C1721 C 0.18154 0.20009 0.09763 0.0
C1722 C 0.15912 0.27639 0.08967 0.0
C1723 C 0.12914 0.29221 0.094 0.0
C1724 C 0.12641 0.3069 0.10805 0.0
C1725 C 0.15497 0.30758 0.11724 0.0
C1726 C 0.18485 0.29187 0.11288 0.0
H1727 H 0.18493 0.17246 0.09936 0.0
H1728 H 0.16676 0.21048 0.10698 0.0
H1729 H 0.16649 0.20383 0.08746 0.0
H1730 H 0.16035 0.26399 0.07906 0.0
H1731 H 0.10765 0.29138 0.08663 0.0
H1732 H 0.2978 0.35053 0.63755 0.0
H1733 H 0.26494 0.29929 0.63318 0.0
H1734 H 0.26683 0.31855 0.5865 0.0
H1735 H 0.29977 0.37023 0.59069 0.0
H1736 H 0.19797 0.30003 0.61557 0.0
H1737 H 0.30053 0.21625 0.59442 0.0
H1738 H 0.30975 0.25172 0.60628 0.0
H1739 H 0.29698 0.25903 0.58765 0.0
C1740 C 0.29156 0.34383 0.62632 0.0
C1741 C 0.30137 0.36453 0.61446 0.0
C1742 C 0.27269 0.31462 0.62387 0.0
C1743 C 0.26353 0.30542 0.60955 0.0
C1744 C 0.27384 0.3254 0.59763 0.0
H1745 H 0.16849 0.10963 0.59233 0.0
H1746 H 0.1896 0.16672 0.58741 0.0
C1747 C 0.29266 0.35481 0.60006 0.0
C1748 C 0.24252 0.27514 0.60733 0.0
H1749 H 0.24775 0.19129 0.59908 0.0
C1750 C 0.20859 0.2763 0.61175 0.0
C1751 C 0.25654 0.24457 0.60218 0.0
C1752 C 0.29297 0.24246 0.59736 0.0
C1753 C 0.18854 0.24706 0.61175 0.0
C1754 C 0.2032 0.21592 0.60754 0.0
C1755 C 0.23662 0.21522 0.60233 0.0
C1756 C 0.18584 0.18331 0.61002 0.0
C1757 C 0.15212 0.24969 0.61653 0.0
C1758 C 0.17639 0.17396 0.62433 0.0
C1759 C 0.16428 0.14148 0.62719 0.0
C1760 C 0.16181 0.11759 0.6158 0.0
C1761 C 0.17014 0.12742 0.60136 0.0
C1762 C 0.18219 0.16 0.59851 0.0
H1763 H 0.14181 0.27533 0.61426 0.0
H1764 H 0.13607 0.23064 0.61089 0.0
H1765 H 0.15048 0.2453 0.62857 0.0
H1766 H 0.17979 0.19129 0.63343 0.0
H1767 H 0.15814 0.13476 0.63843 0.0
H1768 H 0.14562 0.14875 0.89113 0.0
H1769 H 0.20041 0.17501 0.89586 0.0
H1770 H 0.16622 0.20642 0.93876 0.0
H1771 H 0.11122 0.18012 0.93419 0.0
H1772 H 0.1894 0.25945 0.91917 0.0
H1773 H 0.28122 0.15381 0.92392 0.0
H1774 H 0.25225 0.15019 0.90878 0.0
H1775 H 0.23648 0.14851 0.9273 0.0
C1776 C 0.14997 0.16055 0.90171 0.0
C1777 C 0.12402 0.1626 0.91224 0.0
C1778 C 0.18135 0.17535 0.90442 0.0
C1779 C 0.18727 0.19241 0.91768 0.0
C1780 C 0.16206 0.19311 0.92851 0.0
H1781 H 0.37955 0.29738 0.93207 0.0
H1782 H 0.32699 0.26674 0.93712 0.0
C1783 C 0.13072 0.17804 0.92587 0.0
C1784 C 0.21804 0.21308 0.91932 0.0
H1785 H 0.30406 0.20866 0.91852 0.0
C1786 C 0.2145 0.24841 0.91931 0.0
C1787 C 0.25058 0.19847 0.91953 0.0
C1788 C 0.25551 0.16064 0.92001 0.0
C1789 C 0.24285 0.2696 0.91873 0.0
C1790 C 0.27534 0.25496 0.91813 0.0
C1791 C 0.27897 0.21968 0.91892 0.0
C1792 C 0.30572 0.27567 0.91557 0.0
C1793 C 0.23794 0.30745 0.91836 0.0
C1794 C 0.31077 0.2909 0.90181 0.0
C1795 C 0.34074 0.3082 0.89883 0.0
C1796 C 0.36608 0.3106 0.90961 0.0
C1797 C 0.36044 0.29612 0.92356 0.0
C1798 C 0.33055 0.27854 0.92646 0.0
H1799 H 0.21232 0.31482 0.92221 0.0
H1800 H 0.25714 0.32034 0.92528 0.0
H1801 H 0.24107 0.3166 0.90689 0.0
H1802 H 0.2919 0.28857 0.89323 0.0
H1803 H 0.34431 0.31908 0.888 0.0
H1804 H 0.19813 0.38305 0.4318 0.0
H1805 H 0.22279 0.32852 0.4387 0.0
H1806 H 0.19737 0.28836 0.39603 0.0
H1807 H 0.17244 0.34247 0.38904 0.0
H1808 H 0.18583 0.24325 0.42057 0.0
H1809 H 0.31468 0.30058 0.41973 0.0
H1810 H 0.28328 0.31993 0.43132 0.0
H1811 H 0.27861 0.32155 0.4117 0.0
C1812 C 0.19726 0.36245 0.42396 0.0
C1813 C 0.18371 0.36722 0.40979 0.0
C1814 C 0.21149 0.33141 0.42792 0.0
C1815 C 0.21231 0.30477 0.41778 0.0
C1816 C 0.19704 0.30878 0.40397 0.0
H1817 H 0.32551 0.14265 0.38987 0.0
H1818 H 0.30238 0.19724 0.39716 0.0
C1819 C 0.18287 0.33975 0.39999 0.0
C1820 C 0.2311 0.27338 0.42092 0.0
H1821 H 0.31123 0.24157 0.42182 0.0
C1822 C 0.21321 0.24277 0.42119 0.0
C1823 C 0.26681 0.27315 0.42161 0.0
C1824 C 0.28717 0.30546 0.421 0.0
C1825 C 0.2302 0.21167 0.42132 0.0
C1826 C 0.26597 0.21141 0.42137 0.0
C1827 C 0.28381 0.24204 0.42191 0.0
C1828 C 0.28495 0.18002 0.41846 0.0
C1829 C 0.20984 0.1794 0.42034 0.0
C1830 C 0.28403 0.15274 0.42832 0.0
C1831 C 0.29717 0.12135 0.42417 0.0
C1832 C 0.31134 0.11693 0.41009 0.0
C1833 C 0.31443 0.14508 0.40072 0.0
C1834 C 0.30135 0.17635 0.40488 0.0
H1835 H 0.18254 0.18434 0.41846 0.0
H1836 H 0.21941 0.16323 0.41126 0.0
H1837 H 0.21246 0.16499 0.43076 0.0
H1838 H 0.27185 0.15534 0.43893 0.0
H1839 H 0.29461 0.10021 0.43169 0.0
H1840 H 0.85248 0.66779 0.8873 0.0
H1841 H 0.79846 0.69439 0.89312 0.0
H1842 H 0.83519 0.72041 0.93629 0.0
H1843 H 0.88959 0.69388 0.93061 0.0
H1844 H 0.75174 0.68308 0.91826 0.0
H1845 H 0.80878 0.81204 0.91508 0.0
H1846 H 0.82925 0.77542 0.90724 0.0
H1847 H 0.82872 0.78119 0.9268 0.0
C1848 C 0.84904 0.67884 0.89809 0.0
C1849 C 0.87543 0.67903 0.90844 0.0
C1850 C 0.81814 0.69391 0.9014 0.0
C1851 C 0.81317 0.70954 0.91505 0.0
C1852 C 0.83884 0.70863 0.92565 0.0
H1853 H 0.61478 0.80045 0.93407 0.0
H1854 H 0.66944 0.77303 0.93839 0.0
C1855 C 0.86978 0.6934 0.92239 0.0
C1856 C 0.78173 0.72851 0.91767 0.0
H1857 H 0.74984 0.80869 0.9177 0.0
C1858 C 0.75123 0.71053 0.91843 0.0
C1859 C 0.78146 0.76428 0.91774 0.0
C1860 C 0.8137 0.78457 0.9166 0.0
C1861 C 0.72015 0.72752 0.91875 0.0
C1862 C 0.71987 0.76327 0.91834 0.0
C1863 C 0.7504 0.78126 0.91811 0.0
C1864 C 0.68814 0.78217 0.91638 0.0
C1865 C 0.68781 0.70724 0.9187 0.0
C1866 C 0.68123 0.797 0.90271 0.0
C1867 C 0.65017 0.81254 0.90018 0.0
C1868 C 0.6256 0.81368 0.91134 0.0
C1869 C 0.63318 0.79994 0.92525 0.0
C1870 C 0.66427 0.78419 0.92773 0.0
H1871 H 0.6925 0.67966 0.91749 0.0
H1872 H 0.67404 0.71148 0.92917 0.0
H1873 H 0.67118 0.71574 0.90958 0.0
H1874 H 0.69952 0.79565 0.89385 0.0
H1875 H 0.64522 0.82307 0.88939 0.0
H1876 H 0.6471 0.65428 0.39461 0.0
H1877 H 0.67054 0.70903 0.40153 0.0
H1878 H 0.68678 0.67294 0.44575 0.0
H1879 H 0.66363 0.61773 0.43892 0.0
H1880 H 0.66047 0.75885 0.42444 0.0
H1881 H 0.78286 0.68931 0.4282 0.0
H1882 H 0.74572 0.67058 0.42007 0.0
H1883 H 0.74861 0.67507 0.43967 0.0
C1884 C 0.65481 0.65817 0.40592 0.0
C1885 C 0.65427 0.63142 0.41612 0.0
C1886 C 0.6681 0.68953 0.40986 0.0
C1887 C 0.681 0.69462 0.42405 0.0
C1888 C 0.67736 0.66918 0.43469 0.0
H1889 H 0.78506 0.89017 0.43475 0.0
H1890 H 0.75496 0.83903 0.44246 0.0
C1891 C 0.664 0.63773 0.43076 0.0
C1892 C 0.70232 0.72458 0.4268 0.0
H1893 H 0.7852 0.74843 0.42822 0.0
C1894 C 0.68766 0.75675 0.42565 0.0
C1895 C 0.73782 0.72144 0.42818 0.0
C1896 C 0.7549 0.68732 0.42903 0.0
C1897 C 0.70779 0.78594 0.4251 0.0
C1898 C 0.74335 0.78265 0.42584 0.0
C1899 C 0.75789 0.75065 0.42777 0.0
C1900 C 0.76577 0.81144 0.42249 0.0
C1901 C 0.6911 0.81986 0.42272 0.0
C1902 C 0.78309 0.81202 0.40903 0.0
C1903 C 0.80032 0.84106 0.40458 0.0
C1904 C 0.80055 0.86998 0.41356 0.0
C1905 C 0.78522 0.86839 0.42753 0.0
C1906 C 0.76787 0.8393 0.43195 0.0
H1907 H 0.66348 0.8175 0.42076 0.0
H1908 H 0.695 0.83594 0.43257 0.0
H1909 H 0.70272 0.83304 0.41317 0.0
H1910 H 0.78182 0.79057 0.40163 0.0
H1911 H 0.81204 0.84135 0.3938 0.0
H1912 H 0.88197 0.79162 0.09011 0.0
H1913 H 0.8277 0.76636 0.08346 0.0
H1914 H 0.78623 0.79675 0.12528 0.0
H1915 H 0.84026 0.82213 0.13206 0.0
H1916 H 0.79988 0.71309 0.10046 0.0
H1917 H 0.71101 0.8208 0.09562 0.0
H1918 H 0.75633 0.82585 0.09424 0.0
H1919 H 0.73639 0.82248 0.11198 0.0
C1920 C 0.86109 0.79369 0.09777 0.0
C1921 C 0.8655 0.80867 0.11168 0.0
C1922 C 0.83015 0.77918 0.09394 0.0
C1923 C 0.80303 0.77991 0.10385 0.0
C1924 C 0.80677 0.79643 0.1174 0.0
H1925 H 0.64613 0.6572 0.13187 0.0
H1926 H 0.70065 0.68056 0.12456 0.0
C1927 C 0.83772 0.81075 0.12128 0.0
C1928 C 0.77219 0.76005 0.10093 0.0
H1929 H 0.68635 0.76625 0.10076 0.0
C1930 C 0.77504 0.72468 0.10019 0.0
C1931 C 0.73996 0.77531 0.10041 0.0
C1932 C 0.73567 0.81324 0.10046 0.0
C1933 C 0.74624 0.70402 0.1 0.0
C1934 C 0.714 0.71923 0.10067 0.0
C1935 C 0.71118 0.75465 0.10034 0.0
C1936 C 0.68311 0.69933 0.10352 0.0
C1937 C 0.75054 0.66611 0.0996 0.0
C1938 C 0.65542 0.70156 0.09397 0.0
C1939 C 0.62414 0.68824 0.09813 0.0
C1940 C 0.62002 0.67299 0.11202 0.0
C1941 C 0.64841 0.6689 0.12113 0.0
C1942 C 0.67968 0.68204 0.11693 0.0
H1943 H 0.775 0.65891 0.09447 0.0
H1944 H 0.75037 0.65614 0.11102 0.0
H1945 H 0.72964 0.65384 0.09343 0.0
H1946 H 0.65763 0.71499 0.08361 0.0
H1947 H 0.60279 0.69179 0.09083 0.0
H1948 H 0.67352 0.8491 0.63763 0.0
H1949 H 0.70159 0.79534 0.63255 0.0
H1950 H 0.72457 0.82888 0.58852 0.0
H1951 H 0.69645 0.88293 0.59343 0.0
H1952 H 0.68933 0.74684 0.60716 0.0
H1953 H 0.81771 0.80491 0.61031 0.0
H1954 H 0.78119 0.82467 0.61857 0.0
H1955 H 0.78615 0.82494 0.59898 0.0
C1956 C 0.68423 0.84499 0.62681 0.0
C1957 C 0.68297 0.87035 0.61597 0.0
C1958 C 0.70017 0.81427 0.62393 0.0
C1959 C 0.71527 0.8085 0.61023 0.0
C1960 C 0.71315 0.83316 0.59919 0.0
H1961 H 0.80598 0.61072 0.59072 0.0
H1962 H 0.77986 0.66615 0.58671 0.0
C1963 C 0.697 0.86389 0.60202 0.0
C1964 C 0.73451 0.77712 0.60787 0.0
H1965 H 0.81481 0.74573 0.60802 0.0
C1966 C 0.71675 0.74649 0.60707 0.0
C1967 C 0.77022 0.7771 0.60791 0.0
C1968 C 0.79017 0.80956 0.60905 0.0
C1969 C 0.73392 0.71551 0.60675 0.0
C1970 C 0.76963 0.71544 0.60719 0.0
C1971 C 0.78741 0.74611 0.60756 0.0
C1972 C 0.78863 0.68367 0.6089 0.0
C1973 C 0.71386 0.683 0.60667 0.0
C1974 C 0.80297 0.67587 0.62258 0.0
C1975 C 0.81776 0.64434 0.62494 0.0
C1976 C 0.8186 0.62017 0.61361 0.0
C1977 C 0.80566 0.62876 0.59968 0.0
C1978 C 0.79067 0.66031 0.59736 0.0
H1979 H 0.6863 0.6875 0.60796 0.0
H1980 H 0.7181 0.66958 0.59611 0.0
H1981 H 0.72249 0.66609 0.61568 0.0
H1982 H 0.8016 0.69376 0.63158 0.0
H1983 H 0.82772 0.63861 0.63576 0.0
loop_
_geom_bond_atom_site_label_1
_geom_bond_atom_site_label_2
_geom_bond_distance
_geom_bond_site_symmetry_2
_ccdc_geom_bond_type
Co0 O3 1.970 . S
Co0 N17 1.989 . S
Co0 O25 1.967 . S
Co0 O32 1.920 . S
Co1 O4 1.966 . S
Co1 N10 2.022 . S
Co1 N18 1.993 . S
Co1 O26 1.941 . S
C2 O3 1.258 . S
C2 O4 1.263 . S
O3 Co0 1.970 . S
O3 C2 1.258 . S
O4 Co1 1.966 . S
O4 C2 1.263 . S
C5 O6 1.235 . S
C5 O32 1.289 . S
O6 C5 1.235 . S
C7 C9 1.400 . S
C7 N10 1.351 . S
C7 C12 1.501 . S
C8 C9 1.387 . S
C8 N11 1.341 . S
C9 C7 1.400 . S
C9 C8 1.387 . S
N10 Co1 2.022 . S
N10 C7 1.351 . S
N10 N11 1.365 . S
N11 C8 1.341 . S
N11 N10 1.365 . S
N11 H31 0.862 . S
C12 C7 1.501 . S
C12 H13 0.961 . S
C12 H14 0.961 . S
C12 H15 0.960 . S
H13 C12 0.961 . S
H14 C12 0.961 . S
H15 C12 0.960 . S
C16 N17 1.342 . S
C16 C20 1.401 . S
C16 C21 1.499 . S
N17 Co0 1.989 . S
N17 C16 1.342 . S
N17 N18 1.388 . S
N18 Co1 1.993 . S
N18 N17 1.388 . S
N18 C19 1.346 . S
C19 N18 1.346 . S
C19 C20 1.396 . S
C19 C29 1.510 . S
C20 C16 1.401 . S
C20 C19 1.396 . S
C21 C16 1.499 . S
C21 H22 0.959 . S
C21 H23 0.960 . S
C21 H24 0.961 . S
H22 C21 0.959 . S
H23 C21 0.960 . S
H24 C21 0.961 . S
O25 Co0 1.967 . S
O25 C33 1.258 . S
O26 Co1 1.941 . S
O26 C33 1.266 . S
H27 C29 0.959 . S
H28 C29 0.961 . S
C29 C19 1.510 . S
C29 H27 0.959 . S
C29 H28 0.961 . S
C29 H30 0.960 . S
H30 C29 0.960 . S
H31 N11 0.862 . S
O32 Co0 1.920 . S
O32 C5 1.289 . S
C33 O25 1.258 . S
C33 O26 1.266 . S
Co34 O37 1.970 . S
Co34 N51 1.989 . S
Co34 O59 1.967 . S
Co34 O66 1.920 . S
Co35 O38 1.966 . S
Co35 N44 2.022 . S
Co35 N52 1.993 . S
Co35 O60 1.941 . S
C36 O37 1.258 . S
C36 O38 1.263 . S
O37 Co34 1.970 . S
O37 C36 1.258 . S
O38 Co35 1.966 . S
O38 C36 1.263 . S
C39 O40 1.235 . S
C39 O66 1.289 . S
O40 C39 1.235 . S
C41 C43 1.400 . S
C41 N44 1.351 . S
C41 C46 1.501 . S
C42 C43 1.387 . S
C42 N45 1.341 . S
C43 C41 1.400 . S
C43 C42 1.387 . S
N44 Co35 2.022 . S
N44 C41 1.351 . S
N44 N45 1.365 . S
N45 C42 1.341 . S
N45 N44 1.365 . S
N45 H65 0.862 . S
C46 C41 1.501 . S
C46 H47 0.961 . S
C46 H48 0.961 . S
C46 H49 0.960 . S
H47 C46 0.961 . S
H48 C46 0.961 . S
H49 C46 0.960 . S
C50 N51 1.342 . S
C50 C54 1.401 . S
C50 C55 1.499 . S
N51 Co34 1.989 . S
N51 C50 1.342 . S
N51 N52 1.388 . S
N52 Co35 1.993 . S
N52 N51 1.388 . S
N52 C53 1.346 . S
C53 N52 1.346 . S
C53 C54 1.396 . S
C53 C63 1.510 . S
C54 C50 1.401 . S
C54 C53 1.396 . S
C55 C50 1.499 . S
C55 H56 0.959 . S
C55 H57 0.960 . S
C55 H58 0.961 . S
H56 C55 0.959 . S
H57 C55 0.960 . S
H58 C55 0.961 . S
O59 Co34 1.967 . S
O59 C67 1.258 . S
O60 Co35 1.941 . S
O60 C67 1.266 . S
H61 C63 0.959 . S
H62 C63 0.961 . S
C63 C53 1.510 . S
C63 H61 0.959 . S
C63 H62 0.961 . S
C63 H64 0.960 . S
H64 C63 0.960 . S
H65 N45 0.862 . S
O66 Co34 1.920 . S
O66 C39 1.289 . S
C67 O59 1.258 . S
C67 O60 1.266 . S
Co68 O71 1.970 . S
Co68 N85 1.989 . S
Co68 O93 1.967 . S
Co68 O100 1.920 . S
Co69 O72 1.966 . S
Co69 N78 2.022 . S
Co69 N86 1.993 . S
Co69 O94 1.941 . S
C70 O71 1.258 . S
C70 O72 1.263 . S
O71 Co68 1.970 . S
O71 C70 1.258 . S
O72 Co69 1.966 . S
O72 C70 1.263 . S
C73 O74 1.235 . S
C73 O100 1.289 . S
O74 C73 1.235 . S
C75 C77 1.400 . S
C75 N78 1.351 . S
C75 C80 1.501 . S
C76 C77 1.387 . S
C76 N79 1.341 . S
C77 C75 1.400 . S
C77 C76 1.387 . S
N78 Co69 2.022 . S
N78 C75 1.351 . S
N78 N79 1.365 . S
N79 C76 1.341 . S
N79 N78 1.365 . S
N79 H99 0.862 . S
C80 C75 1.501 . S
C80 H81 0.961 . S
C80 H82 0.961 . S
C80 H83 0.960 . S
H81 C80 0.961 . S
H82 C80 0.961 . S
H83 C80 0.960 . S
C84 N85 1.342 . S
C84 C88 1.401 . S
C84 C89 1.499 . S
N85 Co68 1.989 . S
N85 C84 1.342 . S
N85 N86 1.388 . S
N86 Co69 1.993 . S
N86 N85 1.388 . S
N86 C87 1.346 . S
C87 N86 1.346 . S
C87 C88 1.396 . S
C87 C97 1.510 . S
C88 C84 1.401 . S
C88 C87 1.396 . S
C89 C84 1.499 . S
C89 H90 0.959 . S
C89 H91 0.960 . S
C89 H92 0.961 . S
H90 C89 0.959 . S
H91 C89 0.960 . S
H92 C89 0.961 . S
O93 Co68 1.967 . S
O93 C101 1.258 . S
O94 Co69 1.941 . S
O94 C101 1.266 . S
H95 C97 0.959 . S
H96 C97 0.961 . S
C97 C87 1.510 . S
C97 H95 0.959 . S
C97 H96 0.961 . S
C97 H98 0.960 . S
H98 C97 0.960 . S
H99 N79 0.862 . S
O100 Co68 1.920 . S
O100 C73 1.289 . S
C101 O93 1.258 . S
C101 O94 1.266 . S
Co102 O105 1.970 . S
Co102 N119 1.989 . S
Co102 O127 1.967 . S
Co102 O134 1.920 . S
Co103 O106 1.966 . S
Co103 N112 2.022 . S
Co103 N120 1.993 . S
Co103 O128 1.941 . S
C104 O105 1.258 . S
C104 O106 1.263 . S
O105 Co102 1.970 . S
O105 C104 1.258 . S
O106 Co103 1.966 . S
O106 C104 1.263 . S
C107 O108 1.235 . S
C107 O134 1.289 . S
O108 C107 1.235 . S
C109 C111 1.400 . S
C109 N112 1.351 . S
C109 C114 1.501 . S
C110 C111 1.387 . S
C110 N113 1.341 . S
C111 C109 1.400 . S
C111 C110 1.387 . S
N112 Co103 2.022 . S
N112 C109 1.351 . S
N112 N113 1.365 . S
N113 C110 1.341 . S
N113 N112 1.365 . S
N113 H133 0.862 . S
C114 C109 1.501 . S
C114 H115 0.961 . S
C114 H116 0.961 . S
C114 H117 0.960 . S
H115 C114 0.961 . S
H116 C114 0.961 . S
H117 C114 0.960 . S
C118 N119 1.342 . S
C118 C122 1.401 . S
C118 C123 1.499 . S
N119 Co102 1.989 . S
N119 C118 1.342 . S
N119 N120 1.388 . S
N120 Co103 1.993 . S
N120 N119 1.388 . S
N120 C121 1.346 . S
C121 N120 1.346 . S
C121 C122 1.396 . S
C121 C131 1.510 . S
C122 C118 1.401 . S
C122 C121 1.396 . S
C123 C118 1.499 . S
C123 H124 0.959 . S
C123 H125 0.960 . S
C123 H126 0.961 . S
H124 C123 0.959 . S
H125 C123 0.960 . S
H126 C123 0.961 . S
O127 Co102 1.967 . S
O127 C135 1.258 . S
O128 Co103 1.941 . S
O128 C135 1.266 . S
H129 C131 0.959 . S
H130 C131 0.961 . S
C131 C121 1.510 . S
C131 H129 0.959 . S
C131 H130 0.961 . S
C131 H132 0.960 . S
H132 C131 0.960 . S
H133 N113 0.862 . S
O134 Co102 1.920 . S
O134 C107 1.289 . S
C135 O127 1.258 . S
C135 O128 1.266 . S
Co136 O139 1.970 . S
Co136 N153 1.989 . S
Co136 O161 1.967 . S
Co136 O168 1.920 . S
Co137 O140 1.966 . S
Co137 N146 2.022 . S
Co137 N154 1.993 . S
Co137 O162 1.941 . S
C138 O139 1.258 . S
C138 O140 1.263 . S
O139 Co136 1.970 . S
O139 C138 1.258 . S
O140 Co137 1.966 . S
O140 C138 1.263 . S
C141 O142 1.235 . S
C141 O168 1.289 . S
O142 C141 1.235 . S
C143 C145 1.400 . S
C143 N146 1.351 . S
C143 C148 1.501 . S
C144 C145 1.387 . S
C144 N147 1.341 . S
C145 C143 1.400 . S
C145 C144 1.387 . S
N146 Co137 2.022 . S
N146 C143 1.351 . S
N146 N147 1.365 . S
N147 C144 1.341 . S
N147 N146 1.365 . S
N147 H167 0.862 . S
C148 C143 1.501 . S
C148 H149 0.961 . S
C148 H150 0.961 . S
C148 H151 0.960 . S
H149 C148 0.961 . S
H150 C148 0.961 . S
H151 C148 0.960 . S
C152 N153 1.342 . S
C152 C156 1.401 . S
C152 C157 1.499 . S
N153 Co136 1.989 . S
N153 C152 1.342 . S
N153 N154 1.388 . S
N154 Co137 1.993 . S
N154 N153 1.388 . S
N154 C155 1.346 . S
C155 N154 1.346 . S
C155 C156 1.396 . S
C155 C165 1.510 . S
C156 C152 1.401 . S
C156 C155 1.396 . S
C157 C152 1.499 . S
C157 H158 0.959 . S
C157 H159 0.960 . S
C157 H160 0.961 . S
H158 C157 0.959 . S
H159 C157 0.960 . S
H160 C157 0.961 . S
O161 Co136 1.967 . S
O161 C169 1.258 . S
O162 Co137 1.941 . S
O162 C169 1.266 . S
H163 C165 0.959 . S
H164 C165 0.961 . S
C165 C155 1.510 . S
C165 H163 0.959 . S
C165 H164 0.961 . S
C165 H166 0.960 . S
H166 C165 0.960 . S
H167 N147 0.862 . S
O168 Co136 1.920 . S
O168 C141 1.289 . S
C169 O161 1.258 . S
C169 O162 1.266 . S
Co170 O173 1.970 . S
Co170 N187 1.989 . S
Co170 O195 1.967 . S
Co170 O202 1.920 . S
Co171 O174 1.966 . S
Co171 N180 2.022 . S
Co171 N188 1.993 . S
Co171 O196 1.941 . S
C172 O173 1.258 . S
C172 O174 1.263 . S
O173 Co170 1.970 . S
O173 C172 1.258 . S
O174 Co171 1.966 . S
O174 C172 1.263 . S
C175 O176 1.235 . S
C175 O202 1.289 . S
O176 C175 1.235 . S
C177 C179 1.400 . S
C177 N180 1.351 . S
C177 C182 1.501 . S
C178 C179 1.387 . S
C178 N181 1.341 . S
C179 C177 1.400 . S
C179 C178 1.387 . S
N180 Co171 2.022 . S
N180 C177 1.351 . S
N180 N181 1.365 . S
N181 C178 1.341 . S
N181 N180 1.365 . S
N181 H201 0.862 . S
C182 C177 1.501 . S
C182 H183 0.961 . S
C182 H184 0.961 . S
C182 H185 0.960 . S
H183 C182 0.961 . S
H184 C182 0.961 . S
H185 C182 0.960 . S
C186 N187 1.342 . S
C186 C190 1.401 . S
C186 C191 1.499 . S
N187 Co170 1.989 . S
N187 C186 1.342 . S
N187 N188 1.388 . S
N188 Co171 1.993 . S
N188 N187 1.388 . S
N188 C189 1.346 . S
C189 N188 1.346 . S
C189 C190 1.396 . S
C189 C199 1.510 . S
C190 C186 1.401 . S
C190 C189 1.396 . S
C191 C186 1.499 . S
C191 H192 0.959 . S
C191 H193 0.960 . S
C191 H194 0.961 . S
H192 C191 0.959 . S
H193 C191 0.960 . S
H194 C191 0.961 . S
O195 Co170 1.967 . S
O195 C203 1.258 . S
O196 Co171 1.941 . S
O196 C203 1.266 . S
H197 C199 0.959 . S
H198 C199 0.961 . S
C199 C189 1.510 . S
C199 H197 0.959 . S
C199 H198 0.961 . S
C199 H200 0.960 . S
H200 C199 0.960 . S
H201 N181 0.862 . S
O202 Co170 1.920 . S
O202 C175 1.289 . S
C203 O195 1.258 . S
C203 O196 1.266 . S
Co204 O207 1.970 . S
Co204 N221 1.989 . S
Co204 O229 1.967 . S
Co204 O236 1.920 . S
Co205 O208 1.966 . S
Co205 N214 2.022 . S
Co205 N222 1.993 . S
Co205 O230 1.941 . S
C206 O207 1.258 . S
C206 O208 1.263 . S
O207 Co204 1.970 . S
O207 C206 1.258 . S
O208 Co205 1.966 . S
O208 C206 1.263 . S
C209 O210 1.235 . S
C209 O236 1.289 . S
O210 C209 1.235 . S
C211 C213 1.400 . S
C211 N214 1.351 . S
C211 C216 1.501 . S
C212 C213 1.387 . S
C212 N215 1.341 . S
C213 C211 1.400 . S
C213 C212 1.387 . S
N214 Co205 2.022 . S
N214 C211 1.351 . S
N214 N215 1.365 . S
N215 C212 1.341 . S
N215 N214 1.365 . S
N215 H235 0.862 . S
C216 C211 1.501 . S
C216 H217 0.961 . S
C216 H218 0.961 . S
C216 H219 0.960 . S
H217 C216 0.961 . S
H218 C216 0.961 . S
H219 C216 0.960 . S
C220 N221 1.342 . S
C220 C224 1.401 . S
C220 C225 1.499 . S
N221 Co204 1.989 . S
N221 C220 1.342 . S
N221 N222 1.388 . S
N222 Co205 1.993 . S
N222 N221 1.388 . S
N222 C223 1.346 . S
C223 N222 1.346 . S
C223 C224 1.396 . S
C223 C233 1.510 . S
C224 C220 1.401 . S
C224 C223 1.396 . S
C225 C220 1.499 . S
C225 H226 0.959 . S
C225 H227 0.960 . S
C225 H228 0.961 . S
H226 C225 0.959 . S
H227 C225 0.960 . S
H228 C225 0.961 . S
O229 Co204 1.967 . S
O229 C237 1.258 . S
O230 Co205 1.941 . S
O230 C237 1.266 . S
H231 C233 0.959 . S
H232 C233 0.961 . S
C233 C223 1.510 . S
C233 H231 0.959 . S
C233 H232 0.961 . S
C233 H234 0.960 . S
H234 C233 0.960 . S
H235 N215 0.862 . S
O236 Co204 1.920 . S
O236 C209 1.289 . S
C237 O229 1.258 . S
C237 O230 1.266 . S
Co238 O241 1.970 . S
Co238 N255 1.989 . S
Co238 O263 1.967 . S
Co238 O270 1.920 . S
Co239 O242 1.966 . S
Co239 N248 2.022 . S
Co239 N256 1.993 . S
Co239 O264 1.941 . S
C240 O241 1.258 . S
C240 O242 1.263 . S
O241 Co238 1.970 . S
O241 C240 1.258 . S
O242 Co239 1.966 . S
O242 C240 1.263 . S
C243 O244 1.235 . S
C243 O270 1.289 . S
O244 C243 1.235 . S
C245 C247 1.400 . S
C245 N248 1.351 . S
C245 C250 1.501 . S
C246 C247 1.387 . S
C246 N249 1.341 . S
C247 C245 1.400 . S
C247 C246 1.387 . S
N248 Co239 2.022 . S
N248 C245 1.351 . S
N248 N249 1.365 . S
N249 C246 1.341 . S
N249 N248 1.365 . S
N249 H269 0.862 . S
C250 C245 1.501 . S
C250 H251 0.961 . S
C250 H252 0.961 . S
C250 H253 0.960 . S
H251 C250 0.961 . S
H252 C250 0.961 . S
H253 C250 0.960 . S
C254 N255 1.342 . S
C254 C258 1.401 . S
C254 C259 1.499 . S
N255 Co238 1.989 . S
N255 C254 1.342 . S
N255 N256 1.388 . S
N256 Co239 1.993 . S
N256 N255 1.388 . S
N256 C257 1.346 . S
C257 N256 1.346 . S
C257 C258 1.396 . S
C257 C267 1.510 . S
C258 C254 1.401 . S
C258 C257 1.396 . S
C259 C254 1.499 . S
C259 H260 0.959 . S
C259 H261 0.960 . S
C259 H262 0.961 . S
H260 C259 0.959 . S
H261 C259 0.960 . S
H262 C259 0.961 . S
O263 Co238 1.967 . S
O263 C271 1.258 . S
O264 Co239 1.941 . S
O264 C271 1.266 . S
H265 C267 0.959 . S
H266 C267 0.961 . S
C267 C257 1.510 . S
C267 H265 0.959 . S
C267 H266 0.961 . S
C267 H268 0.960 . S
H268 C267 0.960 . S
H269 N249 0.862 . S
O270 Co238 1.920 . S
O270 C243 1.289 . S
C271 O263 1.258 . S
C271 O264 1.266 . S
Co272 O275 1.970 . S
Co272 N289 1.989 . S
Co272 O297 1.967 . S
Co272 O304 1.920 . S
Co273 O276 1.966 . S
Co273 N282 2.022 . S
Co273 N290 1.993 . S
Co273 O298 1.941 . S
C274 O275 1.258 . S
C274 O276 1.263 . S
O275 Co272 1.970 . S
O275 C274 1.258 . S
O276 Co273 1.966 . S
O276 C274 1.263 . S
C277 O278 1.235 . S
C277 O304 1.289 . S
O278 C277 1.235 . S
C279 C281 1.400 . S
C279 N282 1.351 . S
C279 C284 1.501 . S
C280 C281 1.387 . S
C280 N283 1.341 . S
C281 C279 1.400 . S
C281 C280 1.387 . S
N282 Co273 2.022 . S
N282 C279 1.351 . S
N282 N283 1.365 . S
N283 C280 1.341 . S
N283 N282 1.365 . S
N283 H303 0.862 . S
C284 C279 1.501 . S
C284 H285 0.961 . S
C284 H286 0.961 . S
C284 H287 0.960 . S
H285 C284 0.961 . S
H286 C284 0.961 . S
H287 C284 0.960 . S
C288 N289 1.342 . S
C288 C292 1.401 . S
C288 C293 1.499 . S
N289 Co272 1.989 . S
N289 C288 1.342 . S
N289 N290 1.388 . S
N290 Co273 1.993 . S
N290 N289 1.388 . S
N290 C291 1.346 . S
C291 N290 1.346 . S
C291 C292 1.396 . S
C291 C301 1.510 . S
C292 C288 1.401 . S
C292 C291 1.396 . S
C293 C288 1.499 . S
C293 H294 0.959 . S
C293 H295 0.960 . S
C293 H296 0.961 . S
H294 C293 0.959 . S
H295 C293 0.960 . S
H296 C293 0.961 . S
O297 Co272 1.967 . S
O297 C305 1.258 . S
O298 Co273 1.941 . S
O298 C305 1.266 . S
H299 C301 0.959 . S
H300 C301 0.961 . S
C301 C291 1.510 . S
C301 H299 0.959 . S
C301 H300 0.961 . S
C301 H302 0.960 . S
H302 C301 0.960 . S
H303 N283 0.862 . S
O304 Co272 1.920 . S
O304 C277 1.289 . S
C305 O297 1.258 . S
C305 O298 1.266 . S
Co306 O309 1.970 . S
Co306 N323 1.989 . S
Co306 O331 1.967 . S
Co306 O338 1.920 . S
Co307 O310 1.966 . S
Co307 N316 2.022 . S
Co307 N324 1.993 . S
Co307 O332 1.941 . S
C308 O309 1.258 . S
C308 O310 1.263 . S
O309 Co306 1.970 . S
O309 C308 1.258 . S
O310 Co307 1.966 . S
O310 C308 1.263 . S
C311 O312 1.235 . S
C311 O338 1.289 . S
O312 C311 1.235 . S
C313 C315 1.400 . S
C313 N316 1.351 . S
C313 C318 1.501 . S
C314 C315 1.387 . S
C314 N317 1.341 . S
C315 C313 1.400 . S
C315 C314 1.387 . S
N316 Co307 2.022 . S
N316 C313 1.351 . S
N316 N317 1.365 . S
N317 C314 1.341 . S
N317 N316 1.365 . S
N317 H337 0.862 . S
C318 C313 1.501 . S
C318 H319 0.961 . S
C318 H320 0.961 . S
C318 H321 0.960 . S
H319 C318 0.961 . S
H320 C318 0.961 . S
H321 C318 0.960 . S
C322 N323 1.342 . S
C322 C326 1.401 . S
C322 C327 1.499 . S
N323 Co306 1.989 . S
N323 C322 1.342 . S
N323 N324 1.388 . S
N324 Co307 1.993 . S
N324 N323 1.388 . S
N324 C325 1.346 . S
C325 N324 1.346 . S
C325 C326 1.396 . S
C325 C335 1.510 . S
C326 C322 1.401 . S
C326 C325 1.396 . S
C327 C322 1.499 . S
C327 H328 0.959 . S
C327 H329 0.960 . S
C327 H330 0.961 . S
H328 C327 0.959 . S
H329 C327 0.960 . S
H330 C327 0.961 . S
O331 Co306 1.967 . S
O331 C339 1.258 . S
O332 Co307 1.941 . S
O332 C339 1.266 . S
H333 C335 0.959 . S
H334 C335 0.961 . S
C335 C325 1.510 . S
C335 H333 0.959 . S
C335 H334 0.961 . S
C335 H336 0.960 . S
H336 C335 0.960 . S
H337 N317 0.862 . S
O338 Co306 1.920 . S
O338 C311 1.289 . S
C339 O331 1.258 . S
C339 O332 1.266 . S
Co340 O343 1.970 . S
Co340 N357 1.989 . S
Co340 O365 1.967 . S
Co340 O372 1.920 . S
Co341 O344 1.966 . S
Co341 N350 2.022 . S
Co341 N358 1.993 . S
Co341 O366 1.941 . S
C342 O343 1.258 . S
C342 O344 1.263 . S
O343 Co340 1.970 . S
O343 C342 1.258 . S
O344 Co341 1.966 . S
O344 C342 1.263 . S
C345 O346 1.235 . S
C345 O372 1.289 . S
O346 C345 1.235 . S
C347 C349 1.400 . S
C347 N350 1.351 . S
C347 C352 1.501 . S
C348 C349 1.387 . S
C348 N351 1.341 . S
C349 C347 1.400 . S
C349 C348 1.387 . S
N350 Co341 2.022 . S
N350 C347 1.351 . S
N350 N351 1.365 . S
N351 C348 1.341 . S
N351 N350 1.365 . S
N351 H371 0.862 . S
C352 C347 1.501 . S
C352 H353 0.961 . S
C352 H354 0.961 . S
C352 H355 0.960 . S
H353 C352 0.961 . S
H354 C352 0.961 . S
H355 C352 0.960 . S
C356 N357 1.342 . S
C356 C360 1.401 . S
C356 C361 1.499 . S
N357 Co340 1.989 . S
N357 C356 1.342 . S
N357 N358 1.388 . S
N358 Co341 1.993 . S
N358 N357 1.388 . S
N358 C359 1.346 . S
C359 N358 1.346 . S
C359 C360 1.396 . S
C359 C369 1.510 . S
C360 C356 1.401 . S
C360 C359 1.396 . S
C361 C356 1.499 . S
C361 H362 0.959 . S
C361 H363 0.960 . S
C361 H364 0.961 . S
H362 C361 0.959 . S
H363 C361 0.960 . S
H364 C361 0.961 . S
O365 Co340 1.967 . S
O365 C373 1.258 . S
O366 Co341 1.941 . S
O366 C373 1.266 . S
H367 C369 0.959 . S
H368 C369 0.961 . S
C369 C359 1.510 . S
C369 H367 0.959 . S
C369 H368 0.961 . S
C369 H370 0.960 . S
H370 C369 0.960 . S
H371 N351 0.862 . S
O372 Co340 1.920 . S
O372 C345 1.289 . S
C373 O365 1.258 . S
C373 O366 1.266 . S
Co374 O377 1.970 . S
Co374 N391 1.989 . S
Co374 O399 1.967 . S
Co374 O406 1.920 . S
Co375 O378 1.966 . S
Co375 N384 2.022 . S
Co375 N392 1.993 . S
Co375 O400 1.941 . S
C376 O377 1.258 . S
C376 O378 1.263 . S
O377 Co374 1.970 . S
O377 C376 1.258 . S
O378 Co375 1.966 . S
O378 C376 1.263 . S
C379 O380 1.235 . S
C379 O406 1.289 . S
O380 C379 1.235 . S
C381 C383 1.400 . S
C381 N384 1.351 . S
C381 C386 1.501 . S
C382 C383 1.387 . S
C382 N385 1.341 . S
C383 C381 1.400 . S
C383 C382 1.387 . S
N384 Co375 2.022 . S
N384 C381 1.351 . S
N384 N385 1.365 . S
N385 C382 1.341 . S
N385 N384 1.365 . S
N385 H405 0.862 . S
C386 C381 1.501 . S
C386 H387 0.961 . S
C386 H388 0.961 . S
C386 H389 0.960 . S
H387 C386 0.961 . S
H388 C386 0.961 . S
H389 C386 0.960 . S
C390 N391 1.342 . S
C390 C394 1.401 . S
C390 C395 1.499 . S
N391 Co374 1.989 . S
N391 C390 1.342 . S
N391 N392 1.388 . S
N392 Co375 1.993 . S
N392 N391 1.388 . S
N392 C393 1.346 . S
C393 N392 1.346 . S
C393 C394 1.396 . S
C393 C403 1.510 . S
C394 C390 1.401 . S
C394 C393 1.396 . S
C395 C390 1.499 . S
C395 H396 0.959 . S
C395 H397 0.960 . S
C395 H398 0.961 . S
H396 C395 0.959 . S
H397 C395 0.960 . S
H398 C395 0.961 . S
O399 Co374 1.967 . S
O399 C407 1.258 . S
O400 Co375 1.941 . S
O400 C407 1.266 . S
H401 C403 0.959 . S
H402 C403 0.961 . S
C403 C393 1.510 . S
C403 H401 0.959 . S
C403 H402 0.961 . S
C403 H404 0.960 . S
H404 C403 0.960 . S
H405 N385 0.862 . S
O406 Co374 1.920 . S
O406 C379 1.289 . S
C407 O399 1.258 . S
C407 O400 1.266 . S
Co408 O411 1.970 . S
Co408 N425 1.989 . S
Co408 O433 1.967 . S
Co408 O440 1.920 . S
Co409 O412 1.966 . S
Co409 N418 2.022 . S
Co409 N426 1.993 . S
Co409 O434 1.941 . S
C410 O411 1.258 . S
C410 O412 1.263 . S
O411 Co408 1.970 . S
O411 C410 1.258 . S
O412 Co409 1.966 . S
O412 C410 1.263 . S
C413 O414 1.235 . S
C413 O440 1.289 . S
O414 C413 1.235 . S
C415 C417 1.400 . S
C415 N418 1.351 . S
C415 C420 1.501 . S
C416 C417 1.387 . S
C416 N419 1.341 . S
C417 C415 1.400 . S
C417 C416 1.387 . S
N418 Co409 2.022 . S
N418 C415 1.351 . S
N418 N419 1.365 . S
N419 C416 1.341 . S
N419 N418 1.365 . S
N419 H439 0.862 . S
C420 C415 1.501 . S
C420 H421 0.961 . S
C420 H422 0.961 . S
C420 H423 0.960 . S
H421 C420 0.961 . S
H422 C420 0.961 . S
H423 C420 0.960 . S
C424 N425 1.342 . S
C424 C428 1.401 . S
C424 C429 1.499 . S
N425 Co408 1.989 . S
N425 C424 1.342 . S
N425 N426 1.388 . S
N426 Co409 1.993 . S
N426 N425 1.388 . S
N426 C427 1.346 . S
C427 N426 1.346 . S
C427 C428 1.396 . S
C427 C437 1.510 . S
C428 C424 1.401 . S
C428 C427 1.396 . S
C429 C424 1.499 . S
C429 H430 0.959 . S
C429 H431 0.960 . S
C429 H432 0.961 . S
H430 C429 0.959 . S
H431 C429 0.960 . S
H432 C429 0.961 . S
O433 Co408 1.967 . S
O433 C441 1.258 . S
O434 Co409 1.941 . S
O434 C441 1.266 . S
H435 C437 0.959 . S
H436 C437 0.961 . S
C437 C427 1.510 . S
C437 H435 0.959 . S
C437 H436 0.961 . S
C437 H438 0.960 . S
H438 C437 0.960 . S
H439 N419 0.862 . S
O440 Co408 1.920 . S
O440 C413 1.289 . S
C441 O433 1.258 . S
C441 O434 1.266 . S
Co442 O445 1.970 . S
Co442 N459 1.989 . S
Co442 O467 1.967 . S
Co442 O474 1.920 . S
Co443 O446 1.966 . S
Co443 N452 2.022 . S
Co443 N460 1.993 . S
Co443 O468 1.941 . S
C444 O445 1.258 . S
C444 O446 1.263 . S
O445 Co442 1.970 . S
O445 C444 1.258 . S
O446 Co443 1.966 . S
O446 C444 1.263 . S
C447 O448 1.235 . S
C447 O474 1.289 . S
O448 C447 1.235 . S
C449 C451 1.400 . S
C449 N452 1.351 . S
C449 C454 1.501 . S
C450 C451 1.387 . S
C450 N453 1.341 . S
C451 C449 1.400 . S
C451 C450 1.387 . S
N452 Co443 2.022 . S
N452 C449 1.351 . S
N452 N453 1.365 . S
N453 C450 1.341 . S
N453 N452 1.365 . S
N453 H473 0.862 . S
C454 C449 1.501 . S
C454 H455 0.961 . S
C454 H456 0.961 . S
C454 H457 0.960 . S
H455 C454 0.961 . S
H456 C454 0.961 . S
H457 C454 0.960 . S
C458 N459 1.342 . S
C458 C462 1.401 . S
C458 C463 1.499 . S
N459 Co442 1.989 . S
N459 C458 1.342 . S
N459 N460 1.388 . S
N460 Co443 1.993 . S
N460 N459 1.388 . S
N460 C461 1.346 . S
C461 N460 1.346 . S
C461 C462 1.396 . S
C461 C471 1.510 . S
C462 C458 1.401 . S
C462 C461 1.396 . S
C463 C458 1.499 . S
C463 H464 0.959 . S
C463 H465 0.960 . S
C463 H466 0.961 . S
H464 C463 0.959 . S
H465 C463 0.960 . S
H466 C463 0.961 . S
O467 Co442 1.967 . S
O467 C475 1.258 . S
O468 Co443 1.941 . S
O468 C475 1.266 . S
H469 C471 0.959 . S
H470 C471 0.961 . S
C471 C461 1.510 . S
C471 H469 0.959 . S
C471 H470 0.961 . S
C471 H472 0.960 . S
H472 C471 0.960 . S
H473 N453 0.862 . S
O474 Co442 1.920 . S
O474 C447 1.289 . S
C475 O467 1.258 . S
C475 O468 1.266 . S
Co476 O479 1.970 . S
Co476 N493 1.989 . S
Co476 O501 1.967 . S
Co476 O508 1.920 . S
Co477 O480 1.966 . S
Co477 N486 2.022 . S
Co477 N494 1.993 . S
Co477 O502 1.941 . S
C478 O479 1.258 . S
C478 O480 1.263 . S
O479 Co476 1.970 . S
O479 C478 1.258 . S
O480 Co477 1.966 . S
O480 C478 1.263 . S
C481 O482 1.235 . S
C481 O508 1.289 . S
O482 C481 1.235 . S
C483 C485 1.400 . S
C483 N486 1.351 . S
C483 C488 1.501 . S
C484 C485 1.387 . S
C484 N487 1.341 . S
C485 C483 1.400 . S
C485 C484 1.387 . S
N486 Co477 2.022 . S
N486 C483 1.351 . S
N486 N487 1.365 . S
N487 C484 1.341 . S
N487 N486 1.365 . S
N487 H507 0.862 . S
C488 C483 1.501 . S
C488 H489 0.961 . S
C488 H490 0.961 . S
C488 H491 0.960 . S
H489 C488 0.961 . S
H490 C488 0.961 . S
H491 C488 0.960 . S
C492 N493 1.342 . S
C492 C496 1.401 . S
C492 C497 1.499 . S
N493 Co476 1.989 . S
N493 C492 1.342 . S
N493 N494 1.388 . S
N494 Co477 1.993 . S
N494 N493 1.388 . S
N494 C495 1.346 . S
C495 N494 1.346 . S
C495 C496 1.396 . S
C495 C505 1.510 . S
C496 C492 1.401 . S
C496 C495 1.396 . S
C497 C492 1.499 . S
C497 H498 0.959 . S
C497 H499 0.960 . S
C497 H500 0.961 . S
H498 C497 0.959 . S
H499 C497 0.960 . S
H500 C497 0.961 . S
O501 Co476 1.967 . S
O501 C509 1.258 . S
O502 Co477 1.941 . S
O502 C509 1.266 . S
H503 C505 0.959 . S
H504 C505 0.961 . S
C505 C495 1.510 . S
C505 H503 0.959 . S
C505 H504 0.961 . S
C505 H506 0.960 . S
H506 C505 0.960 . S
H507 N487 0.862 . S
O508 Co476 1.920 . S
O508 C481 1.289 . S
C509 O501 1.258 . S
C509 O502 1.266 . S
Co510 O513 1.970 . S
Co510 N527 1.989 . S
Co510 O535 1.967 . S
Co510 O542 1.920 . S
Co511 O514 1.966 . S
Co511 N520 2.022 . S
Co511 N528 1.993 . S
Co511 O536 1.941 . S
C512 O513 1.258 . S
C512 O514 1.263 . S
O513 Co510 1.970 . S
O513 C512 1.258 . S
O514 Co511 1.966 . S
O514 C512 1.263 . S
C515 O516 1.235 . S
C515 O542 1.289 . S
O516 C515 1.235 . S
C517 C519 1.400 . S
C517 N520 1.351 . S
C517 C522 1.501 . S
C518 C519 1.387 . S
C518 N521 1.341 . S
C519 C517 1.400 . S
C519 C518 1.387 . S
N520 Co511 2.022 . S
N520 C517 1.351 . S
N520 N521 1.365 . S
N521 C518 1.341 . S
N521 N520 1.365 . S
N521 H541 0.862 . S
C522 C517 1.501 . S
C522 H523 0.961 . S
C522 H524 0.961 . S
C522 H525 0.960 . S
H523 C522 0.961 . S
H524 C522 0.961 . S
H525 C522 0.960 . S
C526 N527 1.342 . S
C526 C530 1.401 . S
C526 C531 1.499 . S
N527 Co510 1.989 . S
N527 C526 1.342 . S
N527 N528 1.388 . S
N528 Co511 1.993 . S
N528 N527 1.388 . S
N528 C529 1.346 . S
C529 N528 1.346 . S
C529 C530 1.396 . S
C529 C539 1.510 . S
C530 C526 1.401 . S
C530 C529 1.396 . S
C531 C526 1.499 . S
C531 H532 0.959 . S
C531 H533 0.960 . S
C531 H534 0.961 . S
H532 C531 0.959 . S
H533 C531 0.960 . S
H534 C531 0.961 . S
O535 Co510 1.967 . S
O535 C543 1.258 . S
O536 Co511 1.941 . S
O536 C543 1.266 . S
H537 C539 0.959 . S
H538 C539 0.961 . S
C539 C529 1.510 . S
C539 H537 0.959 . S
C539 H538 0.961 . S
C539 H540 0.960 . S
H540 C539 0.960 . S
H541 N521 0.862 . S
O542 Co510 1.920 . S
O542 C515 1.289 . S
C543 O535 1.258 . S
C543 O536 1.266 . S
H544 C552 0.929 . S
H545 C554 0.930 . S
H546 C556 0.930 1_655 S
H547 C559 0.929 1_655 S
H548 C562 0.930 . S
H549 C564 0.960 1_554 S
H550 C564 0.960 . S
H551 C564 0.960 1_655 S
C552 H544 0.929 . S
C552 C553 1.377 . S
C552 C554 1.384 . S
C553 C552 1.377 . S
C553 C559 1.390 . S
C554 H545 0.930 . S
C554 C552 1.384 . S
C554 C555 1.372 . S
C555 C554 1.372 . S
C555 C556 1.400 . S
C555 C560 1.490 . S
C556 H546 0.930 1_455 S
C556 C555 1.400 . S
C556 C559 1.386 . S
H557 C573 0.930 1_655 S
H558 C574 0.931 1_655 S
C559 H547 0.929 1_455 S
C559 C553 1.390 . S
C559 C556 1.386 . S
C560 C555 1.490 . S
C560 C562 1.395 . S
C560 C563 1.403 . S
H561 C567 0.930 . S
C562 H548 0.930 . S
C562 C560 1.395 . S
C562 C565 1.403 1_556 S
C563 C560 1.403 . S
C563 C564 1.524 . S
C563 C567 1.400 1_556 S
C564 H549 0.960 1_556 S
C564 H550 0.960 . S
C564 H551 0.960 1_455 S
C564 C563 1.524 . S
C565 C562 1.403 1_554 S
C565 C566 1.392 . S
C565 C569 1.495 . S
C566 C565 1.392 . S
C566 C567 1.385 . S
C566 C568 1.478 . S
C567 H561 0.930 . S
C567 C563 1.400 1_554 S
C567 C566 1.385 . S
C568 C566 1.478 . S
C568 C570 1.381 . S
C568 C574 1.383 . S
C569 C565 1.495 . S
C569 H575 0.959 1_554 S
C569 H576 0.961 . S
C569 H577 0.960 . S
C570 C568 1.381 . S
C570 C571 1.394 . S
C570 H578 0.930 . S
C571 C570 1.394 . S
C571 C572 1.383 . S
C571 H579 0.929 . S
C572 C571 1.383 . S
C572 C573 1.377 . S
C573 H557 0.930 1_455 S
C573 C572 1.377 . S
C573 C574 1.379 . S
C574 H558 0.931 1_455 S
C574 C568 1.383 . S
C574 C573 1.379 . S
H575 C569 0.959 1_556 S
H576 C569 0.961 . S
H577 C569 0.960 . S
H578 C570 0.930 . S
H579 C571 0.929 . S
H580 C588 0.929 . S
H581 C590 0.930 . S
H582 C592 0.930 . S
H583 C595 0.929 . S
H584 C598 0.930 . S
H585 C600 0.960 . S
H586 C600 0.960 . S
H587 C600 0.960 1_545 S
C588 H580 0.929 . S
C588 C589 1.377 . S
C588 C590 1.384 . S
C589 C588 1.377 . S
C589 C595 1.390 . S
C590 H581 0.930 . S
C590 C588 1.384 . S
C590 C591 1.372 . S
C591 C590 1.372 . S
C591 C592 1.400 . S
C591 C596 1.490 . S
C592 H582 0.930 . S
C592 C591 1.400 . S
C592 C595 1.386 . S
H593 C609 0.930 . S
H594 C610 0.931 . S
C595 H583 0.929 . S
C595 C589 1.390 . S
C595 C592 1.386 . S
C596 C591 1.490 . S
C596 C598 1.395 . S
C596 C599 1.403 . S
H597 C603 0.930 . S
C598 H584 0.930 . S
C598 C596 1.395 . S
C598 C601 1.403 . S
C599 C596 1.403 . S
C599 C600 1.524 1_545 S
C599 C603 1.400 . S
C600 H585 0.960 . S
C600 H586 0.960 . S
C600 H587 0.960 1_565 S
C600 C599 1.524 1_565 S
C601 C598 1.403 . S
C601 C602 1.392 . S
C601 C605 1.495 . S
C602 C601 1.392 . S
C602 C603 1.385 . S
C602 C604 1.478 . S
C603 H597 0.930 . S
C603 C599 1.400 . S
C603 C602 1.385 . S
C604 C602 1.478 . S
C604 C606 1.381 . S
C604 C610 1.383 . S
C605 C601 1.495 . S
C605 H611 0.959 . S
C605 H612 0.961 . S
C605 H613 0.960 . S
C606 C604 1.381 . S
C606 C607 1.394 . S
C606 H614 0.930 . S
C607 C606 1.394 . S
C607 C608 1.383 . S
C607 H615 0.929 . S
C608 C607 1.383 . S
C608 C609 1.377 . S
C609 H593 0.930 . S
C609 C608 1.377 . S
C609 C610 1.379 . S
C610 H594 0.931 . S
C610 C604 1.383 . S
C610 C609 1.379 . S
H611 C605 0.959 . S
H612 C605 0.961 . S
H613 C605 0.960 . S
H614 C606 0.930 . S
H615 C607 0.929 . S
H616 C624 0.929 . S
H617 C626 0.930 . S
H618 C628 0.930 . S
H619 C631 0.929 . S
H620 C634 0.930 . S
H621 C636 0.960 . S
H622 C636 0.960 . S
H623 C636 0.960 . S
C624 H616 0.929 . S
C624 C625 1.377 . S
C624 C626 1.384 . S
C625 C624 1.377 . S
C625 C631 1.390 . S
C626 H617 0.930 . S
C626 C624 1.384 . S
C626 C627 1.372 . S
C627 C626 1.372 . S
C627 C628 1.400 . S
C627 C632 1.490 . S
C628 H618 0.930 . S
C628 C627 1.400 . S
C628 C631 1.386 . S
H629 C645 0.930 . S
H630 C646 0.931 . S
C631 H619 0.929 . S
C631 C625 1.390 . S
C631 C628 1.386 . S
C632 C627 1.490 . S
C632 C634 1.395 . S
C632 C635 1.403 . S
H633 C639 0.930 . S
C634 H620 0.930 . S
C634 C632 1.395 . S
C634 C637 1.403 1_554 S
C635 C632 1.403 . S
C635 C636 1.524 . S
C635 C639 1.400 1_554 S
C636 H621 0.960 . S
C636 H622 0.960 . S
C636 H623 0.960 . S
C636 C635 1.524 . S
C637 C634 1.403 1_556 S
C637 C638 1.392 . S
C637 C641 1.495 . S
C638 C637 1.392 . S
C638 C639 1.385 . S
C638 C640 1.478 . S
C639 H633 0.930 . S
C639 C635 1.400 1_556 S
C639 C638 1.385 . S
C640 C638 1.478 . S
C640 C642 1.381 . S
C640 C646 1.383 . S
C641 C637 1.495 . S
C641 H647 0.959 . S
C641 H648 0.961 . S
C641 H649 0.960 . S
C642 C640 1.381 . S
C642 C643 1.394 . S
C642 H650 0.930 . S
C643 C642 1.394 . S
C643 C644 1.383 . S
C643 H651 0.929 . S
C644 C643 1.383 . S
C644 C645 1.377 . S
C645 H629 0.930 . S
C645 C644 1.377 . S
C645 C646 1.379 . S
C646 H630 0.931 . S
C646 C640 1.383 . S
C646 C645 1.379 . S
H647 C641 0.959 . S
H648 C641 0.961 . S
H649 C641 0.960 . S
H650 C642 0.930 . S
H651 C643 0.929 . S
H652 C660 0.929 . S
H653 C662 0.930 . S
H654 C664 0.930 . S
H655 C667 0.929 . S
H656 C670 0.930 . S
H657 C672 0.960 . S
H658 C672 0.960 . S
H659 C672 0.960 . S
C660 H652 0.929 . S
C660 C661 1.377 . S
C660 C662 1.384 . S
C661 C660 1.377 . S
C661 C667 1.390 . S
C662 H653 0.930 . S
C662 C660 1.384 . S
C662 C663 1.372 . S
C663 C662 1.372 . S
C663 C664 1.400 . S
C663 C668 1.490 . S
C664 H654 0.930 . S
C664 C663 1.400 . S
C664 C667 1.386 . S
H665 C681 0.930 . S
H666 C682 0.931 . S
C667 H655 0.929 . S
C667 C661 1.390 . S
C667 C664 1.386 . S
C668 C663 1.490 . S
C668 C670 1.395 . S
C668 C671 1.403 . S
H669 C675 0.930 . S
C670 H656 0.930 . S
C670 C668 1.395 . S
C670 C673 1.403 . S
C671 C668 1.403 . S
C671 C672 1.524 . S
C671 C675 1.400 . S
C672 H657 0.960 . S
C672 H658 0.960 . S
C672 H659 0.960 . S
C672 C671 1.524 . S
C673 C670 1.403 . S
C673 C674 1.392 . S
C673 C677 1.495 . S
C674 C673 1.392 . S
C674 C675 1.385 . S
C674 C676 1.478 . S
C675 H669 0.930 . S
C675 C671 1.400 . S
C675 C674 1.385 . S
C676 C674 1.478 . S
C676 C678 1.381 . S
C676 C682 1.383 . S
C677 C673 1.495 . S
C677 H683 0.959 . S
C677 H684 0.961 . S
C677 H685 0.960 . S
C678 C676 1.381 . S
C678 C679 1.394 . S
C678 H686 0.930 . S
C679 C678 1.394 . S
C679 C680 1.383 . S
C679 H687 0.929 . S
C680 C679 1.383 . S
C680 C681 1.377 . S
C681 H665 0.930 . S
C681 C680 1.377 . S
C681 C682 1.379 . S
C682 H666 0.931 . S
C682 C676 1.383 . S
C682 C681 1.379 . S
H683 C677 0.959 . S
H684 C677 0.961 . S
H685 C677 0.960 . S
H686 C678 0.930 . S
H687 C679 0.929 . S
H688 C696 0.929 . S
H689 C698 0.930 . S
H690 C700 0.930 . S
H691 C703 0.929 . S
H692 C706 0.930 . S
H693 C708 0.960 . S
H694 C708 0.960 . S
H695 C708 0.960 . S
C696 H688 0.929 . S
C696 C697 1.377 . S
C696 C698 1.384 . S
C697 C696 1.377 . S
C697 C703 1.390 . S
C698 H689 0.930 . S
C698 C696 1.384 . S
C698 C699 1.372 . S
C699 C698 1.372 . S
C699 C700 1.400 . S
C699 C704 1.490 . S
C700 H690 0.930 . S
C700 C699 1.400 . S
C700 C703 1.386 . S
H701 C717 0.930 . S
H702 C718 0.931 . S
C703 H691 0.929 . S
C703 C697 1.390 . S
C703 C700 1.386 . S
C704 C699 1.490 . S
C704 C706 1.395 . S
C704 C707 1.403 . S
H705 C711 0.930 1_455 S
C706 H692 0.930 . S
C706 C704 1.395 . S
C706 C709 1.403 1_554 S
C707 C704 1.403 . S
C707 C708 1.524 1_655 S
C707 C711 1.400 1_554 S
C708 H693 0.960 . S
C708 H694 0.960 . S
C708 H695 0.960 . S
C708 C707 1.524 1_455 S
C709 C706 1.403 1_556 S
C709 C710 1.392 . S
C709 C713 1.495 . S
C710 C709 1.392 . S
C710 C711 1.385 . S
C710 C712 1.478 . S
C711 H705 0.930 1_655 S
C711 C707 1.400 1_556 S
C711 C710 1.385 . S
C712 C710 1.478 . S
C712 C714 1.381 . S
C712 C718 1.383 . S
C713 C709 1.495 . S
C713 H719 0.959 . S
C713 H720 0.961 . S
C713 H721 0.960 . S
C714 C712 1.381 . S
C714 C715 1.394 . S
C714 H722 0.930 . S
C715 C714 1.394 . S
C715 C716 1.383 . S
C715 H723 0.929 . S
C716 C715 1.383 . S
C716 C717 1.377 . S
C717 H701 0.930 . S
C717 C716 1.377 . S
C717 C718 1.379 . S
C718 H702 0.931 . S
C718 C712 1.383 . S
C718 C717 1.379 . S
H719 C713 0.959 . S
H720 C713 0.961 . S
H721 C713 0.960 . S
H722 C714 0.930 . S
H723 C715 0.929 . S
H724 C732 0.929 . S
H725 C734 0.930 . S
H726 C736 0.930 . S
H727 C739 0.933 . S
H728 C742 0.930 . S
H729 C744 0.960 . S
H730 C744 0.960 . S
H731 C744 0.960 . S
C732 H724 0.929 . S
C732 C733 1.377 . S
C732 C734 1.384 . S
C733 C732 1.377 . S
C733 C739 1.390 . S
C734 H725 0.930 . S
C734 C732 1.384 . S
C734 C735 1.372 . S
C735 C734 1.372 . S
C735 C736 1.400 . S
C735 C740 1.490 . S
C736 H726 0.930 . S
C736 C735 1.400 . S
C736 C739 1.386 . S
H737 C753 0.930 1_545 S
H738 C754 0.931 1_545 S
C739 H727 0.933 . S
C739 C733 1.390 . S
C739 C736 1.386 . S
C740 C735 1.490 . S
C740 C742 1.395 . S
C740 C743 1.403 . S
H741 C747 0.930 . S
C742 H728 0.930 . S
C742 C740 1.395 . S
C742 C745 1.403 . S
C743 C740 1.403 . S
C743 C744 1.524 . S
C743 C747 1.400 . S
C744 H729 0.960 . S
C744 H730 0.960 . S
C744 H731 0.960 . S
C744 C743 1.524 . S
C745 C742 1.403 . S
C745 C746 1.392 . S
C745 C749 1.495 . S
C746 C745 1.392 . S
C746 C747 1.385 . S
C746 C748 1.478 . S
C747 H741 0.930 . S
C747 C743 1.400 . S
C747 C746 1.385 . S
C748 C746 1.478 . S
C748 C750 1.381 . S
C748 C754 1.383 . S
C749 C745 1.495 . S
C749 H755 0.959 . S
C749 H756 0.961 1_565 S
C749 H757 0.960 . S
C750 C748 1.381 . S
C750 C751 1.394 . S
C750 H758 0.930 . S
C751 C750 1.394 . S
C751 C752 1.383 . S
C751 H759 0.929 . S
C752 C751 1.383 . S
C752 C753 1.377 . S
C753 H737 0.930 1_565 S
C753 C752 1.377 . S
C753 C754 1.379 . S
C754 H738 0.931 1_565 S
C754 C748 1.383 . S
C754 C753 1.379 . S
H755 C749 0.959 . S
H756 C749 0.961 1_545 S
H757 C749 0.960 . S
H758 C750 0.930 . S
H759 C751 0.929 . S
H760 C768 0.929 . S
H761 C770 0.930 . S
H762 C772 0.930 . S
H763 C775 0.929 . S
H764 C778 0.930 . S
H765 C780 0.960 1_554 S
H766 C780 0.960 . S
H767 C780 0.960 . S
C768 H760 0.929 . S
C768 C769 1.377 . S
C768 C770 1.384 . S
C769 C768 1.377 . S
C769 C775 1.390 . S
C770 H761 0.930 . S
C770 C768 1.384 . S
C770 C771 1.372 . S
C771 C770 1.372 . S
C771 C772 1.400 . S
C771 C776 1.490 . S
C772 H762 0.930 . S
C772 C771 1.400 . S
C772 C775 1.386 . S
H773 C789 0.930 . S
H774 C790 0.931 . S
C775 H763 0.929 . S
C775 C769 1.390 . S
C775 C772 1.386 . S
C776 C771 1.490 . S
C776 C778 1.395 . S
C776 C779 1.403 . S
H777 C783 0.930 . S
C778 H764 0.930 . S
C778 C776 1.395 . S
C778 C781 1.403 1_556 S
C779 C776 1.403 . S
C779 C780 1.524 . S
C779 C783 1.400 1_556 S
C780 H765 0.960 1_556 S
C780 H766 0.960 . S
C780 H767 0.960 . S
C780 C779 1.524 . S
C781 C778 1.403 1_554 S
C781 C782 1.392 . S
C781 C785 1.495 . S
C782 C781 1.392 . S
C782 C783 1.385 . S
C782 C784 1.478 . S
C783 H777 0.930 . S
C783 C779 1.400 1_554 S
C783 C782 1.385 . S
C784 C782 1.478 . S
C784 C786 1.381 . S
C784 C790 1.383 . S
C785 C781 1.495 . S
C785 H791 0.959 1_554 S
C785 H792 0.961 . S
C785 H793 0.960 . S
C786 C784 1.381 . S
C786 C787 1.394 . S
C786 H794 0.930 . S
C787 C786 1.394 . S
C787 C788 1.383 . S
C787 H795 0.929 . S
C788 C787 1.383 . S
C788 C789 1.377 . S
C789 H773 0.930 . S
C789 C788 1.377 . S
C789 C790 1.379 . S
C790 H774 0.931 . S
C790 C784 1.383 . S
C790 C789 1.379 . S
H791 C785 0.959 1_556 S
H792 C785 0.961 . S
H793 C785 0.960 . S
H794 C786 0.930 . S
H795 C787 0.929 . S
H796 C804 0.929 . S
H797 C806 0.930 . S
H798 C808 0.930 . S
H799 C811 0.929 . S
H800 C814 0.930 . S
H801 C816 0.960 . S
H802 C816 0.960 . S
H803 C816 0.960 . S
C804 H796 0.929 . S
C804 C805 1.377 . S
C804 C806 1.384 . S
C805 C804 1.377 . S
C805 C811 1.390 . S
C806 H797 0.930 . S
C806 C804 1.384 . S
C806 C807 1.372 . S
C807 C806 1.372 . S
C807 C808 1.400 . S
C807 C812 1.490 . S
C808 H798 0.930 . S
C808 C807 1.400 . S
C808 C811 1.386 . S
H809 C825 0.930 . S
H810 C826 0.931 . S
C811 H799 0.929 . S
C811 C805 1.390 . S
C811 C808 1.386 . S
C812 C807 1.490 . S
C812 C814 1.395 . S
C812 C815 1.403 . S
H813 C819 0.930 . S
C814 H800 0.930 . S
C814 C812 1.395 . S
C814 C817 1.403 . S
C815 C812 1.403 . S
C815 C816 1.524 . S
C815 C819 1.400 . S
C816 H801 0.960 . S
C816 H802 0.960 . S
C816 H803 0.960 . S
C816 C815 1.524 . S
C817 C814 1.403 . S
C817 C818 1.392 . S
C817 C821 1.495 . S
C818 C817 1.392 . S
C818 C819 1.385 . S
C818 C820 1.478 . S
C819 H813 0.930 . S
C819 C815 1.400 . S
C819 C818 1.385 . S
C820 C818 1.478 . S
C820 C822 1.381 . S
C820 C826 1.383 . S
C821 C817 1.495 . S
C821 H827 0.959 . S
C821 H828 0.961 . S
C821 H829 0.960 . S
C822 C820 1.381 . S
C822 C823 1.394 . S
C822 H830 0.930 . S
C823 C822 1.394 . S
C823 C824 1.383 . S
C823 H831 0.929 . S
C824 C823 1.383 . S
C824 C825 1.377 . S
C825 H809 0.930 . S
C825 C824 1.377 . S
C825 C826 1.379 . S
C826 H810 0.931 . S
C826 C820 1.383 . S
C826 C825 1.379 . S
H827 C821 0.959 . S
H828 C821 0.961 . S
H829 C821 0.960 . S
H830 C822 0.930 . S
H831 C823 0.929 . S
H832 C840 0.929 . S
H833 C842 0.930 . S
H834 C844 0.930 . S
H835 C847 0.929 . S
H836 C850 0.930 . S
H837 C852 0.960 . S
H838 C852 0.960 . S
H839 C852 0.960 1_655 S
C840 H832 0.929 . S
C840 C841 1.377 . S
C840 C842 1.384 . S
C841 C840 1.377 . S
C841 C847 1.390 1_455 S
C842 H833 0.930 . S
C842 C840 1.384 . S
C842 C843 1.372 . S
C843 C842 1.372 . S
C843 C844 1.400 1_455 S
C843 C848 1.490 . S
C844 H834 0.930 . S
C844 C843 1.400 1_655 S
C844 C847 1.386 . S
H845 C861 0.930 . S
H846 C862 0.931 . S
C847 H835 0.929 . S
C847 C841 1.390 1_655 S
C847 C844 1.386 . S
C848 C843 1.490 . S
C848 C850 1.395 . S
C848 C851 1.403 . S
H849 C855 0.930 . S
C850 H836 0.930 . S
C850 C848 1.395 . S
C850 C853 1.403 1_455 S
C851 C848 1.403 . S
C851 C852 1.524 . S
C851 C855 1.400 1_455 S
C852 H837 0.960 . S
C852 H838 0.960 . S
C852 H839 0.960 1_455 S
C852 C851 1.524 . S
C853 C850 1.403 1_655 S
C853 C854 1.392 . S
C853 C857 1.495 . S
C854 C853 1.392 . S
C854 C855 1.385 . S
C854 C856 1.478 . S
C855 H849 0.930 . S
C855 C851 1.400 1_655 S
C855 C854 1.385 . S
C856 C854 1.478 . S
C856 C858 1.381 1_645 S
C856 C862 1.383 . S
C857 C853 1.495 . S
C857 H863 0.959 . S
C857 H864 0.961 . S
C857 H865 0.960 1_655 S
C858 C856 1.381 1_465 S
C858 C859 1.394 . S
C858 H866 0.930 . S
C859 C858 1.394 . S
C859 C860 1.383 1_455 S
C859 H867 0.929 . S
C860 C859 1.383 1_655 S
C860 C861 1.377 . S
C861 H845 0.930 . S
C861 C860 1.377 . S
C861 C862 1.379 1_565 S
C862 H846 0.931 . S
C862 C856 1.383 . S
C862 C861 1.379 1_545 S
H863 C857 0.959 . S
H864 C857 0.961 . S
H865 C857 0.960 1_455 S
H866 C858 0.930 . S
H867 C859 0.929 . S
H868 C876 0.929 . S
H869 C878 0.930 . S
H870 C880 0.930 . S
H871 C883 0.929 . S
H872 C886 0.930 . S
H873 C888 0.960 . S
H874 C888 0.960 . S
H875 C888 0.960 . S
C876 H868 0.929 . S
C876 C877 1.377 1_565 S
C876 C878 1.384 . S
C877 C876 1.377 1_545 S
C877 C883 1.390 . S
C878 H869 0.930 . S
C878 C876 1.384 . S
C878 C879 1.372 1_565 S
C879 C878 1.372 1_545 S
C879 C880 1.400 . S
C879 C884 1.490 . S
C880 H870 0.930 . S
C880 C879 1.400 . S
C880 C883 1.386 . S
H881 C897 0.933 . S
H882 C898 0.931 . S
C883 H871 0.929 . S
C883 C877 1.390 . S
C883 C880 1.386 . S
C884 C879 1.490 . S
C884 C886 1.395 1_545 S
C884 C887 1.403 . S
H885 C891 0.930 . S
C886 H872 0.930 . S
C886 C884 1.395 1_565 S
C886 C889 1.403 . S
C887 C884 1.403 . S
C887 C888 1.524 . S
C887 C891 1.400 . S
C888 H873 0.960 . S
C888 H874 0.960 . S
C888 H875 0.960 . S
C888 C887 1.524 . S
C889 C886 1.403 . S
C889 C890 1.392 . S
C889 C893 1.495 . S
C890 C889 1.392 . S
C890 C891 1.385 1_565 S
C890 C892 1.478 . S
C891 H885 0.930 . S
C891 C887 1.400 . S
C891 C890 1.385 1_545 S
C892 C890 1.478 . S
C892 C894 1.381 . S
C892 C898 1.383 1_565 S
C893 C889 1.495 . S
C893 H899 0.959 . S
C893 H900 0.961 . S
C893 H901 0.960 . S
C894 C892 1.381 . S
C894 C895 1.394 . S
C894 H902 0.930 . S
C895 C894 1.394 . S
C895 C896 1.383 . S
C895 H903 0.929 . S
C896 C895 1.383 . S
C896 C897 1.373 1_565 S
C897 H881 0.933 . S
C897 C896 1.373 1_545 S
C897 C898 1.380 . S
C898 H882 0.931 . S
C898 C892 1.383 1_545 S
C898 C897 1.380 . S
H899 C893 0.959 . S
H900 C893 0.961 . S
H901 C893 0.960 . S
H902 C894 0.930 . S
H903 C895 0.929 . S
H904 C912 0.929 . S
H905 C914 0.930 . S
H906 C916 0.930 . S
H907 C919 0.929 . S
H908 C922 0.930 . S
H909 C924 0.960 . S
H910 C924 0.960 . S
H911 C924 0.960 . S
C912 H904 0.929 . S
C912 C913 1.377 . S
C912 C914 1.384 . S
C913 C912 1.377 . S
C913 C919 1.390 . S
C914 H905 0.930 . S
C914 C912 1.384 . S
C914 C915 1.372 . S
C915 C914 1.372 . S
C915 C916 1.400 . S
C915 C920 1.490 . S
C916 H906 0.930 . S
C916 C915 1.400 . S
C916 C919 1.386 . S
H917 C933 0.930 . S
H918 C934 0.931 . S
C919 H907 0.929 . S
C919 C913 1.390 . S
C919 C916 1.386 . S
C920 C915 1.490 . S
C920 C922 1.395 . S
C920 C923 1.403 . S
H921 C927 0.930 . S
C922 H908 0.930 . S
C922 C920 1.395 . S
C922 C925 1.403 . S
C923 C920 1.403 . S
C923 C924 1.524 . S
C923 C927 1.400 . S
C924 H909 0.960 . S
C924 H910 0.960 . S
C924 H911 0.960 . S
C924 C923 1.524 . S
C925 C922 1.403 . S
C925 C926 1.392 . S
C925 C929 1.495 . S
C926 C925 1.392 . S
C926 C927 1.385 . S
C926 C928 1.478 . S
C927 H921 0.930 . S
C927 C923 1.400 . S
C927 C926 1.385 . S
C928 C926 1.478 . S
C928 C930 1.381 . S
C928 C934 1.383 . S
C929 C925 1.495 . S
C929 H935 0.959 . S
C929 H936 0.961 . S
C929 H937 0.960 . S
C930 C928 1.381 . S
C930 C931 1.394 . S
C930 H938 0.930 . S
C931 C930 1.394 . S
C931 C932 1.383 . S
C931 H939 0.929 . S
C932 C931 1.383 . S
C932 C933 1.377 . S
C933 H917 0.930 . S
C933 C932 1.377 . S
C933 C934 1.379 . S
C934 H918 0.931 . S
C934 C928 1.383 . S
C934 C933 1.379 . S
H935 C929 0.959 . S
H936 C929 0.961 . S
H937 C929 0.960 . S
H938 C930 0.930 . S
H939 C931 0.929 . S
H940 C948 0.929 . S
H941 C950 0.930 . S
H942 C952 0.930 . S
H943 C955 0.929 . S
H944 C958 0.930 . S
H945 C960 0.960 . S
H946 C960 0.960 . S
H947 C960 0.960 . S
C948 H940 0.929 . S
C948 C949 1.377 . S
C948 C950 1.384 . S
C949 C948 1.377 . S
C949 C955 1.390 . S
C950 H941 0.930 . S
C950 C948 1.384 . S
C950 C951 1.372 . S
C951 C950 1.372 . S
C951 C952 1.400 . S
C951 C956 1.490 . S
C952 H942 0.930 . S
C952 C951 1.400 . S
C952 C955 1.386 . S
H953 C969 0.930 . S
H954 C970 0.931 1_455 S
C955 H943 0.929 . S
C955 C949 1.390 . S
C955 C952 1.386 . S
C956 C951 1.490 . S
C956 C958 1.395 . S
C956 C959 1.403 . S
H957 C963 0.930 . S
C958 H944 0.930 . S
C958 C956 1.395 . S
C958 C961 1.403 . S
C959 C956 1.403 . S
C959 C960 1.524 . S
C959 C963 1.400 . S
C960 H945 0.960 . S
C960 H946 0.960 . S
C960 H947 0.960 . S
C960 C959 1.524 . S
C961 C958 1.403 . S
C961 C962 1.392 . S
C961 C965 1.495 . S
C962 C961 1.392 . S
C962 C963 1.385 . S
C962 C964 1.478 . S
C963 H957 0.930 . S
C963 C959 1.400 . S
C963 C962 1.385 . S
C964 C962 1.478 . S
C964 C966 1.381 1_455 S
C964 C970 1.383 1_455 S
C965 C961 1.495 . S
C965 H971 0.959 . S
C965 H972 0.961 . S
C965 H973 0.960 . S
C966 C964 1.381 1_655 S
C966 C967 1.394 . S
C966 H974 0.930 1_655 S
C967 C966 1.394 . S
C967 C968 1.383 . S
C967 H975 0.929 . S
C968 C967 1.383 . S
C968 C969 1.377 . S
C969 H953 0.930 . S
C969 C968 1.377 . S
C969 C970 1.379 . S
C970 H954 0.931 1_655 S
C970 C964 1.383 1_655 S
C970 C969 1.379 . S
H971 C965 0.959 . S
H972 C965 0.961 . S
H973 C965 0.960 . S
H974 C966 0.930 1_455 S
H975 C967 0.929 . S
H976 C984 0.929 . S
H977 C986 0.930 . S
H978 C988 0.925 1_455 S
H979 C991 0.929 1_455 S
H980 C994 0.930 . S
H981 C996 0.960 . S
H982 C996 0.960 . S
H983 C996 0.960 . S
C984 H976 0.929 . S
C984 C985 1.377 . S
C984 C986 1.384 . S
C985 C984 1.377 . S
C985 C991 1.390 . S
C986 H977 0.930 . S
C986 C984 1.384 . S
C986 C987 1.372 . S
C987 C986 1.372 . S
C987 C988 1.403 . S
C987 C992 1.490 . S
C988 H978 0.925 1_655 S
C988 C987 1.403 . S
C988 C991 1.387 . S
H989 C1005 0.930 . S
H990 C1006 0.931 . S
C991 H979 0.929 1_655 S
C991 C985 1.390 . S
C991 C988 1.387 . S
C992 C987 1.490 . S
C992 C994 1.395 1_655 S
C992 C995 1.403 . S
H993 C999 0.930 . S
C994 H980 0.930 . S
C994 C992 1.395 1_455 S
C994 C997 1.403 . S
C995 C992 1.403 . S
C995 C996 1.524 . S
C995 C999 1.400 . S
C996 H981 0.960 . S
C996 H982 0.960 . S
C996 H983 0.960 . S
C996 C995 1.524 . S
C997 C994 1.403 . S
C997 C998 1.392 . S
C997 C1001 1.495 . S
C998 C997 1.392 . S
C998 C999 1.385 1_455 S
C998 C1000 1.478 . S
C999 H993 0.930 . S
C999 C995 1.400 . S
C999 C998 1.385 1_655 S
C1000 C998 1.478 . S
C1000 C1002 1.381 1_455 S
C1000 C1006 1.383 . S
C1001 C997 1.495 . S
C1001 H1007 0.959 . S
C1001 H1008 0.961 . S
C1001 H1009 0.960 . S
C1002 C1000 1.381 1_655 S
C1002 C1003 1.394 1_655 S
C1002 H1010 0.930 . S
C1003 C1002 1.394 1_455 S
C1003 C1004 1.383 . S
C1003 H1011 0.929 1_455 S
C1004 C1003 1.383 . S
C1004 C1005 1.377 . S
C1005 H989 0.930 . S
C1005 C1004 1.377 . S
C1005 C1006 1.379 . S
C1006 H990 0.931 . S
C1006 C1000 1.383 . S
C1006 C1005 1.379 . S
H1007 C1001 0.959 . S
H1008 C1001 0.961 . S
H1009 C1001 0.960 . S
H1010 C1002 0.930 . S
H1011 C1003 0.929 1_655 S
H1012 C1020 0.929 1_545 S
H1013 C1022 0.930 . S
H1014 C1024 0.930 . S
H1015 C1027 0.929 . S
H1016 C1030 0.930 . S
H1017 C1032 0.960 . S
H1018 C1032 0.960 . S
H1019 C1032 0.960 . S
C1020 H1012 0.929 1_565 S
C1020 C1021 1.377 . S
C1020 C1022 1.384 1_565 S
C1021 C1020 1.377 . S
C1021 C1027 1.390 . S
C1022 H1013 0.930 . S
C1022 C1020 1.384 1_545 S
C1022 C1023 1.372 1_645 S
C1023 C1022 1.372 1_465 S
C1023 C1024 1.400 . S
C1023 C1028 1.490 . S
C1024 H1014 0.930 . S
C1024 C1023 1.400 . S
C1024 C1027 1.386 1_455 S
H1025 C1041 0.930 1_565 S
H1026 C1042 0.931 1_565 S
C1027 H1015 0.929 . S
C1027 C1021 1.390 . S
C1027 C1024 1.386 1_655 S
C1028 C1023 1.490 . S
C1028 C1030 1.395 1_565 S
C1028 C1031 1.403 . S
H1029 C1035 0.930 . S
C1030 H1016 0.930 . S
C1030 C1028 1.395 1_545 S
C1030 C1033 1.403 . S
C1031 C1028 1.403 . S
C1031 C1032 1.524 . S
C1031 C1035 1.400 . S
C1032 H1017 0.960 . S
C1032 H1018 0.960 . S
C1032 H1019 0.960 . S
C1032 C1031 1.524 . S
C1033 C1030 1.403 . S
C1033 C1034 1.392 . S
C1033 C1037 1.495 . S
C1034 C1033 1.392 . S
C1034 C1035 1.385 1_545 S
C1034 C1036 1.478 . S
C1035 H1029 0.930 . S
C1035 C1031 1.400 . S
C1035 C1034 1.385 1_565 S
C1036 C1034 1.478 . S
C1036 C1038 1.381 . S
C1036 C1042 1.383 . S
C1037 C1033 1.495 . S
C1037 H1043 0.959 . S
C1037 H1044 0.961 . S
C1037 H1045 0.960 . S
C1038 C1036 1.381 . S
C1038 C1039 1.394 . S
C1038 H1046 0.930 . S
C1039 C1038 1.394 . S
C1039 C1040 1.383 . S
C1039 H1047 0.929 . S
C1040 C1039 1.383 . S
C1040 C1041 1.377 . S
C1041 H1025 0.930 1_545 S
C1041 C1040 1.377 . S
C1041 C1042 1.379 . S
C1042 H1026 0.931 1_545 S
C1042 C1036 1.383 . S
C1042 C1041 1.379 . S
H1043 C1037 0.959 . S
H1044 C1037 0.961 . S
H1045 C1037 0.960 . S
H1046 C1038 0.930 . S
H1047 C1039 0.929 . S
H1048 C1056 0.929 . S
H1049 C1058 0.930 . S
H1050 C1060 0.930 . S
H1051 C1063 0.929 . S
H1052 C1066 0.930 . S
H1053 C1068 0.960 . S
H1054 C1068 0.960 . S
H1055 C1068 0.960 . S
C1056 H1048 0.929 . S
C1056 C1057 1.377 . S
C1056 C1058 1.384 . S
C1057 C1056 1.377 . S
C1057 C1063 1.390 . S
C1058 H1049 0.930 . S
C1058 C1056 1.384 . S
C1058 C1059 1.372 . S
C1059 C1058 1.372 . S
C1059 C1060 1.400 . S
C1059 C1064 1.490 . S
C1060 H1050 0.930 . S
C1060 C1059 1.400 . S
C1060 C1063 1.386 . S
H1061 C1077 0.930 . S
H1062 C1078 0.931 1_545 S
C1063 H1051 0.929 . S
C1063 C1057 1.390 . S
C1063 C1060 1.386 . S
C1064 C1059 1.490 . S
C1064 C1066 1.395 . S
C1064 C1067 1.403 . S
H1065 C1071 0.930 . S
C1066 H1052 0.930 . S
C1066 C1064 1.395 . S
C1066 C1069 1.403 . S
C1067 C1064 1.403 . S
C1067 C1068 1.524 . S
C1067 C1071 1.400 . S
C1068 H1053 0.960 . S
C1068 H1054 0.960 . S
C1068 H1055 0.960 . S
C1068 C1067 1.524 . S
C1069 C1066 1.403 . S
C1069 C1070 1.392 . S
C1069 C1073 1.495 . S
C1070 C1069 1.392 . S
C1070 C1071 1.385 . S
C1070 C1072 1.478 . S
C1071 H1065 0.930 . S
C1071 C1067 1.400 . S
C1071 C1070 1.385 . S
C1072 C1070 1.478 . S
C1072 C1074 1.381 1_545 S
C1072 C1078 1.383 1_545 S
C1073 C1069 1.495 . S
C1073 H1079 0.959 . S
C1073 H1080 0.961 . S
C1073 H1081 0.960 . S
C1074 C1072 1.381 1_565 S
C1074 C1075 1.394 . S
C1074 H1082 0.930 1_565 S
C1075 C1074 1.394 . S
C1075 C1076 1.383 . S
C1075 H1083 0.929 . S
C1076 C1075 1.383 . S
C1076 C1077 1.377 . S
C1077 H1061 0.930 . S
C1077 C1076 1.377 . S
C1077 C1078 1.379 . S
C1078 H1062 0.931 1_565 S
C1078 C1072 1.383 1_565 S
C1078 C1077 1.379 . S
H1079 C1073 0.959 . S
H1080 C1073 0.961 . S
H1081 C1073 0.960 . S
H1082 C1074 0.930 1_545 S
H1083 C1075 0.929 . S
H1084 C1092 0.929 . S
H1085 C1094 0.930 . S
H1086 C1096 0.930 . S
H1087 C1099 0.929 . S
H1088 C1102 0.930 . S
H1089 C1104 0.960 . S
H1090 C1104 0.960 . S
H1091 C1104 0.960 . S
C1092 H1084 0.929 . S
C1092 C1093 1.377 . S
C1092 C1094 1.384 . S
C1093 C1092 1.377 . S
C1093 C1099 1.390 . S
C1094 H1085 0.930 . S
C1094 C1092 1.384 . S
C1094 C1095 1.372 . S
C1095 C1094 1.372 . S
C1095 C1096 1.400 . S
C1095 C1100 1.490 . S
C1096 H1086 0.930 . S
C1096 C1095 1.400 . S
C1096 C1099 1.386 . S
H1097 C1113 0.930 . S
H1098 C1114 0.931 . S
C1099 H1087 0.929 . S
C1099 C1093 1.390 . S
C1099 C1096 1.386 . S
C1100 C1095 1.490 . S
C1100 C1102 1.395 . S
C1100 C1103 1.403 . S
H1101 C1107 0.930 . S
C1102 H1088 0.930 . S
C1102 C1100 1.395 . S
C1102 C1105 1.403 . S
C1103 C1100 1.403 . S
C1103 C1104 1.524 . S
C1103 C1107 1.400 . S
C1104 H1089 0.960 . S
C1104 H1090 0.960 . S
C1104 H1091 0.960 . S
C1104 C1103 1.524 . S
C1105 C1102 1.403 . S
C1105 C1106 1.392 . S
C1105 C1109 1.495 . S
C1106 C1105 1.392 . S
C1106 C1107 1.385 . S
C1106 C1108 1.478 . S
C1107 H1101 0.930 . S
C1107 C1103 1.400 . S
C1107 C1106 1.385 . S
C1108 C1106 1.478 . S
C1108 C1110 1.381 . S
C1108 C1114 1.383 . S
C1109 C1105 1.495 . S
C1109 H1115 0.959 . S
C1109 H1116 0.961 . S
C1109 H1117 0.960 . S
C1110 C1108 1.381 . S
C1110 C1111 1.394 . S
C1110 H1118 0.930 . S
C1111 C1110 1.394 . S
C1111 C1112 1.383 . S
C1111 H1119 0.929 . S
C1112 C1111 1.383 . S
C1112 C1113 1.377 . S
C1113 H1097 0.930 . S
C1113 C1112 1.377 . S
C1113 C1114 1.379 . S
C1114 H1098 0.931 . S
C1114 C1108 1.383 . S
C1114 C1113 1.379 . S
H1115 C1109 0.959 . S
H1116 C1109 0.961 . S
H1117 C1109 0.960 . S
H1118 C1110 0.930 . S
H1119 C1111 0.929 . S
H1120 C1128 0.929 . S
H1121 C1130 0.930 . S
H1122 C1132 0.930 . S
H1123 C1135 0.929 . S
H1124 C1138 0.930 . S
H1125 C1140 0.960 . S
H1126 C1140 0.960 1_455 S
H1127 C1140 0.960 . S
C1128 H1120 0.929 . S
C1128 C1129 1.377 1_455 S
C1128 C1130 1.384 . S
C1129 C1128 1.377 1_655 S
C1129 C1135 1.390 . S
C1130 H1121 0.930 . S
C1130 C1128 1.384 . S
C1130 C1131 1.372 1_455 S
C1131 C1130 1.372 1_655 S
C1131 C1132 1.400 . S
C1131 C1136 1.490 . S
C1132 H1122 0.930 . S
C1132 C1131 1.400 . S
C1132 C1135 1.386 . S
H1133 C1149 0.930 . S
H1134 C1150 0.935 . S
C1135 H1123 0.929 . S
C1135 C1129 1.390 . S
C1135 C1132 1.386 . S
C1136 C1131 1.490 . S
C1136 C1138 1.395 1_655 S
C1136 C1139 1.403 . S
H1137 C1143 0.929 1_655 S
C1138 H1124 0.930 . S
C1138 C1136 1.395 1_455 S
C1138 C1141 1.403 . S
C1139 C1136 1.403 . S
C1139 C1140 1.524 . S
C1139 C1143 1.400 1_655 S
C1140 H1125 0.960 . S
C1140 H1126 0.960 1_655 S
C1140 H1127 0.960 . S
C1140 C1139 1.524 . S
C1141 C1138 1.403 . S
C1141 C1142 1.392 . S
C1141 C1145 1.495 . S
C1142 C1141 1.392 . S
C1142 C1143 1.385 . S
C1142 C1144 1.478 . S
C1143 H1137 0.929 1_455 S
C1143 C1139 1.400 1_455 S
C1143 C1142 1.385 . S
C1144 C1142 1.478 . S
C1144 C1146 1.376 1_565 S
C1144 C1150 1.383 1_465 S
C1145 C1141 1.495 . S
C1145 H1151 0.959 . S
C1145 H1152 0.961 . S
C1145 H1153 0.960 . S
C1146 C1144 1.376 1_545 S
C1146 C1147 1.407 . S
C1146 H1154 0.922 1_545 S
C1147 C1146 1.407 . S
C1147 C1148 1.383 . S
C1147 H1155 0.929 . S
C1148 C1147 1.383 . S
C1148 C1149 1.377 1_455 S
C1149 H1133 0.930 . S
C1149 C1148 1.377 1_655 S
C1149 C1150 1.379 . S
C1150 H1134 0.935 . S
C1150 C1144 1.383 1_645 S
C1150 C1149 1.379 . S
H1151 C1145 0.959 . S
H1152 C1145 0.961 . S
H1153 C1145 0.960 . S
H1154 C1146 0.922 1_565 S
H1155 C1147 0.929 . S
H1156 C1164 0.929 . S
H1157 C1166 0.930 . S
H1158 C1168 0.918 1_545 S
H1159 C1171 0.929 1_545 S
H1160 C1174 0.930 . S
H1161 C1176 0.960 . S
H1162 C1176 0.960 . S
H1163 C1176 0.960 . S
C1164 H1156 0.929 . S
C1164 C1165 1.377 . S
C1164 C1166 1.384 . S
C1165 C1164 1.377 . S
C1165 C1171 1.390 . S
C1166 H1157 0.930 . S
C1166 C1164 1.384 . S
C1166 C1167 1.372 . S
C1167 C1166 1.372 . S
C1167 C1168 1.408 . S
C1167 C1172 1.490 . S
C1168 H1158 0.918 1_565 S
C1168 C1167 1.408 . S
C1168 C1171 1.390 . S
H1169 C1185 0.930 . S
H1170 C1186 0.931 . S
C1171 H1159 0.929 1_565 S
C1171 C1165 1.390 . S
C1171 C1168 1.390 . S
C1172 C1167 1.490 . S
C1172 C1174 1.395 . S
C1172 C1175 1.403 1_565 S
H1173 C1179 0.930 . S
C1174 H1160 0.930 . S
C1174 C1172 1.395 . S
C1174 C1177 1.403 . S
C1175 C1172 1.403 1_545 S
C1175 C1176 1.524 . S
C1175 C1179 1.400 . S
C1176 H1161 0.960 . S
C1176 H1162 0.960 . S
C1176 H1163 0.960 . S
C1176 C1175 1.524 . S
C1177 C1174 1.403 . S
C1177 C1178 1.366 1_565 S
C1177 C1181 1.495 . S
C1178 C1177 1.366 1_545 S
C1178 C1179 1.407 . S
C1178 C1180 1.483 . S
C1179 H1173 0.930 . S
C1179 C1175 1.400 . S
C1179 C1178 1.407 . S
C1180 C1178 1.483 . S
C1180 C1182 1.382 1_545 S
C1180 C1186 1.383 . S
C1181 C1177 1.495 . S
C1181 H1187 0.959 . S
C1181 H1188 0.961 . S
C1181 H1189 0.960 . S
C1182 C1180 1.382 1_565 S
C1182 C1183 1.395 1_565 S
C1182 H1190 0.929 . S
C1183 C1182 1.395 1_545 S
C1183 C1184 1.383 . S
C1183 H1191 0.929 . S
C1184 C1183 1.383 . S
C1184 C1185 1.377 . S
C1185 H1169 0.930 . S
C1185 C1184 1.377 . S
C1185 C1186 1.379 . S
C1186 H1170 0.931 . S
C1186 C1180 1.383 . S
C1186 C1185 1.379 . S
H1187 C1181 0.959 . S
H1188 C1181 0.961 . S
H1189 C1181 0.960 . S
H1190 C1182 0.929 . S
H1191 C1183 0.929 . S
H1192 C1200 0.929 . S
H1193 C1202 0.930 . S
H1194 C1204 0.930 . S
H1195 C1207 0.929 . S
H1196 C1210 0.930 . S
H1197 C1212 0.960 . S
H1198 C1212 0.960 . S
H1199 C1212 0.960 . S
C1200 H1192 0.929 . S
C1200 C1201 1.377 . S
C1200 C1202 1.384 . S
C1201 C1200 1.377 . S
C1201 C1207 1.390 . S
C1202 H1193 0.930 . S
C1202 C1200 1.384 . S
C1202 C1203 1.372 . S
C1203 C1202 1.372 . S
C1203 C1204 1.400 . S
C1203 C1208 1.490 . S
C1204 H1194 0.930 . S
C1204 C1203 1.400 . S
C1204 C1207 1.386 . S
H1205 C1221 0.930 . S
H1206 C1222 0.931 . S
C1207 H1195 0.929 . S
C1207 C1201 1.390 . S
C1207 C1204 1.386 . S
C1208 C1203 1.490 . S
C1208 C1210 1.395 . S
C1208 C1211 1.403 . S
H1209 C1215 0.930 . S
C1210 H1196 0.930 . S
C1210 C1208 1.395 . S
C1210 C1213 1.403 . S
C1211 C1208 1.403 . S
C1211 C1212 1.524 . S
C1211 C1215 1.400 . S
C1212 H1197 0.960 . S
C1212 H1198 0.960 . S
C1212 H1199 0.960 . S
C1212 C1211 1.524 . S
C1213 C1210 1.403 . S
C1213 C1214 1.392 . S
C1213 C1217 1.495 . S
C1214 C1213 1.392 . S
C1214 C1215 1.385 . S
C1214 C1216 1.478 . S
C1215 H1209 0.930 . S
C1215 C1211 1.400 . S
C1215 C1214 1.385 . S
C1216 C1214 1.478 . S
C1216 C1218 1.381 . S
C1216 C1222 1.383 . S
C1217 C1213 1.495 . S
C1217 H1223 0.959 . S
C1217 H1224 0.961 . S
C1217 H1225 0.960 . S
C1218 C1216 1.381 . S
C1218 C1219 1.394 . S
C1218 H1226 0.930 . S
C1219 C1218 1.394 . S
C1219 C1220 1.383 . S
C1219 H1227 0.929 . S
C1220 C1219 1.383 . S
C1220 C1221 1.377 . S
C1221 H1205 0.930 . S
C1221 C1220 1.377 . S
C1221 C1222 1.379 . S
C1222 H1206 0.931 . S
C1222 C1216 1.383 . S
C1222 C1221 1.379 . S
H1223 C1217 0.959 . S
H1224 C1217 0.961 . S
H1225 C1217 0.960 . S
H1226 C1218 0.930 . S
H1227 C1219 0.929 . S
H1228 C1236 0.929 . S
H1229 C1238 0.930 . S
H1230 C1240 0.930 . S
H1231 C1243 0.929 . S
H1232 C1246 0.930 . S
H1233 C1248 0.960 . S
H1234 C1248 0.960 . S
H1235 C1248 0.960 . S
C1236 H1228 0.929 . S
C1236 C1237 1.377 . S
C1236 C1238 1.384 . S
C1237 C1236 1.377 . S
C1237 C1243 1.390 . S
C1238 H1229 0.930 . S
C1238 C1236 1.384 . S
C1238 C1239 1.372 . S
C1239 C1238 1.372 . S
C1239 C1240 1.400 . S
C1239 C1244 1.490 . S
C1240 H1230 0.930 . S
C1240 C1239 1.400 . S
C1240 C1243 1.386 . S
H1241 C1257 0.930 . S
H1242 C1258 0.931 1_655 S
C1243 H1231 0.929 . S
C1243 C1237 1.390 . S
C1243 C1240 1.386 . S
C1244 C1239 1.490 . S
C1244 C1246 1.395 . S
C1244 C1247 1.403 . S
H1245 C1251 0.930 . S
C1246 H1232 0.930 . S
C1246 C1244 1.395 . S
C1246 C1249 1.403 . S
C1247 C1244 1.403 . S
C1247 C1248 1.524 . S
C1247 C1251 1.400 . S
C1248 H1233 0.960 . S
C1248 H1234 0.960 . S
C1248 H1235 0.960 . S
C1248 C1247 1.524 . S
C1249 C1246 1.403 . S
C1249 C1250 1.392 . S
C1249 C1253 1.495 . S
C1250 C1249 1.392 . S
C1250 C1251 1.385 . S
C1250 C1252 1.478 . S
C1251 H1245 0.930 . S
C1251 C1247 1.400 . S
C1251 C1250 1.385 . S
C1252 C1250 1.478 . S
C1252 C1254 1.381 1_655 S
C1252 C1258 1.383 1_655 S
C1253 C1249 1.495 . S
C1253 H1259 0.959 . S
C1253 H1260 0.961 . S
C1253 H1261 0.960 . S
C1254 C1252 1.381 1_455 S
C1254 C1255 1.394 . S
C1254 H1262 0.930 1_455 S
C1255 C1254 1.394 . S
C1255 C1256 1.383 . S
C1255 H1263 0.929 . S
C1256 C1255 1.383 . S
C1256 C1257 1.377 . S
C1257 H1241 0.930 . S
C1257 C1256 1.377 . S
C1257 C1258 1.379 . S
C1258 H1242 0.931 1_455 S
C1258 C1252 1.383 1_455 S
C1258 C1257 1.379 . S
H1259 C1253 0.959 . S
H1260 C1253 0.961 . S
H1261 C1253 0.960 . S
H1262 C1254 0.930 1_655 S
H1263 C1255 0.929 . S
H1264 C1272 0.929 1_455 S
H1265 C1274 0.930 . S
H1266 C1276 0.930 . S
H1267 C1279 0.929 . S
H1268 C1282 0.930 . S
H1269 C1284 0.960 . S
H1270 C1284 0.960 . S
H1271 C1284 0.960 . S
C1272 H1264 0.929 1_655 S
C1272 C1273 1.377 . S
C1272 C1274 1.384 1_655 S
C1273 C1272 1.377 . S
C1273 C1279 1.390 . S
C1274 H1265 0.930 . S
C1274 C1272 1.384 1_455 S
C1274 C1275 1.372 1_455 S
C1275 C1274 1.372 1_655 S
C1275 C1276 1.400 . S
C1275 C1280 1.490 . S
C1276 H1266 0.930 . S
C1276 C1275 1.400 . S
C1276 C1279 1.386 . S
H1277 C1293 0.945 . S
H1278 C1294 0.931 1_655 S
C1279 H1267 0.929 . S
C1279 C1273 1.390 . S
C1279 C1276 1.386 . S
C1280 C1275 1.490 . S
C1280 C1282 1.395 1_655 S
C1280 C1283 1.403 . S
H1281 C1287 0.930 . S
C1282 H1268 0.930 . S
C1282 C1280 1.395 1_455 S
C1282 C1285 1.403 . S
C1283 C1280 1.403 . S
C1283 C1284 1.524 . S
C1283 C1287 1.400 . S
C1284 H1269 0.960 . S
C1284 H1270 0.960 . S
C1284 H1271 0.960 . S
C1284 C1283 1.524 . S
C1285 C1282 1.403 . S
C1285 C1286 1.392 . S
C1285 C1289 1.495 . S
C1286 C1285 1.392 . S
C1286 C1287 1.385 1_455 S
C1286 C1288 1.478 . S
C1287 H1281 0.930 . S
C1287 C1283 1.400 . S
C1287 C1286 1.385 1_655 S
C1288 C1286 1.478 . S
C1288 C1290 1.381 . S
C1288 C1294 1.383 . S
C1289 C1285 1.495 . S
C1289 H1295 0.959 . S
C1289 H1296 0.961 . S
C1289 H1297 0.960 . S
C1290 C1288 1.381 . S
C1290 C1291 1.394 . S
C1290 H1298 0.930 . S
C1291 C1290 1.394 . S
C1291 C1292 1.383 . S
C1291 H1299 0.929 . S
C1292 C1291 1.383 . S
C1292 C1293 1.377 . S
C1293 H1277 0.945 . S
C1293 C1292 1.377 . S
C1293 C1294 1.379 . S
C1294 H1278 0.931 1_455 S
C1294 C1288 1.383 . S
C1294 C1293 1.379 . S
H1295 C1289 0.959 . S
H1296 C1289 0.961 . S
H1297 C1289 0.960 . S
H1298 C1290 0.930 . S
H1299 C1291 0.929 . S
H1300 C1308 0.929 1_545 S
H1301 C1310 0.930 . S
H1302 C1312 0.930 . S
H1303 C1315 0.929 . S
H1304 C1318 0.930 . S
H1305 C1320 0.960 . S
H1306 C1320 0.960 . S
H1307 C1320 0.960 . S
C1308 H1300 0.929 1_565 S
C1308 C1309 1.377 . S
C1308 C1310 1.384 1_565 S
C1309 C1308 1.377 . S
C1309 C1315 1.390 . S
C1310 H1301 0.930 . S
C1310 C1308 1.384 1_545 S
C1310 C1311 1.372 1_545 S
C1311 C1310 1.372 1_565 S
C1311 C1312 1.400 . S
C1311 C1316 1.490 . S
C1312 H1302 0.930 . S
C1312 C1311 1.400 . S
C1312 C1315 1.386 . S
H1313 C1329 0.930 1_565 S
H1314 C1330 0.919 1_665 S
C1315 H1303 0.929 . S
C1315 C1309 1.390 . S
C1315 C1312 1.386 . S
C1316 C1311 1.490 . S
C1316 C1318 1.395 1_565 S
C1316 C1319 1.403 . S
H1317 C1323 0.930 . S
C1318 H1304 0.930 . S
C1318 C1316 1.395 1_545 S
C1318 C1321 1.403 . S
C1319 C1316 1.403 . S
C1319 C1320 1.524 . S
C1319 C1323 1.400 . S
C1320 H1305 0.960 . S
C1320 H1306 0.960 . S
C1320 H1307 0.960 . S
C1320 C1319 1.524 . S
C1321 C1318 1.403 . S
C1321 C1322 1.392 . S
C1321 C1325 1.495 . S
C1322 C1321 1.392 . S
C1322 C1323 1.385 1_545 S
C1322 C1324 1.478 . S
C1323 H1317 0.930 . S
C1323 C1319 1.400 . S
C1323 C1322 1.385 1_565 S
C1324 C1322 1.478 . S
C1324 C1326 1.391 . S
C1324 C1330 1.383 1_655 S
C1325 C1321 1.495 . S
C1325 H1331 0.959 . S
C1325 H1332 0.961 . S
C1325 H1333 0.960 . S
C1326 C1324 1.391 . S
C1326 C1327 1.370 1_655 S
C1326 H1334 0.945 . S
C1327 C1326 1.370 1_455 S
C1327 C1328 1.383 . S
C1327 H1335 0.929 . S
C1328 C1327 1.383 . S
C1328 C1329 1.377 . S
C1329 H1313 0.930 1_545 S
C1329 C1328 1.377 . S
C1329 C1330 1.379 . S
C1330 H1314 0.919 1_445 S
C1330 C1324 1.383 1_455 S
C1330 C1329 1.379 . S
H1331 C1325 0.959 . S
H1332 C1325 0.961 . S
H1333 C1325 0.960 . S
H1334 C1326 0.945 . S
H1335 C1327 0.929 . S
H1336 C1344 0.929 . S
H1337 C1346 0.930 . S
H1338 C1348 0.930 . S
H1339 C1351 0.929 . S
H1340 C1354 0.930 . S
H1341 C1356 0.960 . S
H1342 C1356 0.960 . S
H1343 C1356 0.960 . S
C1344 H1336 0.929 . S
C1344 C1345 1.377 . S
C1344 C1346 1.384 . S
C1345 C1344 1.377 . S
C1345 C1351 1.390 . S
C1346 H1337 0.930 . S
C1346 C1344 1.384 . S
C1346 C1347 1.372 . S
C1347 C1346 1.372 . S
C1347 C1348 1.400 . S
C1347 C1352 1.490 . S
C1348 H1338 0.930 . S
C1348 C1347 1.400 . S
C1348 C1351 1.386 . S
H1349 C1365 0.930 . S
H1350 C1366 0.946 . S
C1351 H1339 0.929 . S
C1351 C1345 1.390 . S
C1351 C1348 1.386 . S
C1352 C1347 1.490 . S
C1352 C1354 1.395 . S
C1352 C1355 1.403 . S
H1353 C1359 0.930 . S
C1354 H1340 0.930 . S
C1354 C1352 1.395 . S
C1354 C1357 1.403 . S
C1355 C1352 1.403 . S
C1355 C1356 1.524 . S
C1355 C1359 1.400 . S
C1356 H1341 0.960 . S
C1356 H1342 0.960 . S
C1356 H1343 0.960 . S
C1356 C1355 1.524 . S
C1357 C1354 1.403 . S
C1357 C1358 1.392 . S
C1357 C1361 1.495 . S
C1358 C1357 1.392 . S
C1358 C1359 1.385 . S
C1358 C1360 1.478 . S
C1359 H1353 0.930 . S
C1359 C1355 1.400 . S
C1359 C1358 1.385 . S
C1360 C1358 1.478 . S
C1360 C1362 1.381 1_565 S
C1360 C1366 1.390 . S
C1361 C1357 1.495 . S
C1361 H1367 0.959 . S
C1361 H1368 0.961 . S
C1361 H1369 0.960 . S
C1362 C1360 1.381 1_545 S
C1362 C1363 1.394 . S
C1362 H1370 0.930 . S
C1363 C1362 1.394 . S
C1363 C1364 1.383 . S
C1363 H1371 0.929 . S
C1364 C1363 1.383 . S
C1364 C1365 1.377 . S
C1365 H1349 0.930 . S
C1365 C1364 1.377 . S
C1365 C1366 1.358 1_545 S
C1366 H1350 0.946 . S
C1366 C1360 1.390 . S
C1366 C1365 1.358 1_565 S
H1367 C1361 0.959 . S
H1368 C1361 0.961 . S
H1369 C1361 0.960 . S
H1370 C1362 0.930 . S
H1371 C1363 0.929 . S
H1372 C1380 0.929 . S
H1373 C1382 0.930 . S
H1374 C1384 0.930 . S
H1375 C1387 0.929 . S
H1376 C1390 0.930 . S
H1377 C1392 0.960 . S
H1378 C1392 0.960 . S
H1379 C1392 0.960 . S
C1380 H1372 0.929 . S
C1380 C1381 1.377 . S
C1380 C1382 1.384 . S
C1381 C1380 1.377 . S
C1381 C1387 1.390 . S
C1382 H1373 0.930 . S
C1382 C1380 1.384 . S
C1382 C1383 1.372 . S
C1383 C1382 1.372 . S
C1383 C1384 1.400 . S
C1383 C1388 1.490 . S
C1384 H1374 0.930 . S
C1384 C1383 1.400 . S
C1384 C1387 1.386 . S
H1385 C1401 0.930 . S
H1386 C1402 0.931 . S
C1387 H1375 0.929 . S
C1387 C1381 1.390 . S
C1387 C1384 1.386 . S
C1388 C1383 1.490 . S
C1388 C1390 1.395 . S
C1388 C1391 1.403 . S
H1389 C1395 0.930 . S
C1390 H1376 0.930 . S
C1390 C1388 1.395 . S
C1390 C1393 1.403 . S
C1391 C1388 1.403 . S
C1391 C1392 1.524 . S
C1391 C1395 1.400 . S
C1392 H1377 0.960 . S
C1392 H1378 0.960 . S
C1392 H1379 0.960 . S
C1392 C1391 1.524 . S
C1393 C1390 1.403 . S
C1393 C1394 1.392 . S
C1393 C1397 1.495 . S
C1394 C1393 1.392 . S
C1394 C1395 1.385 . S
C1394 C1396 1.478 . S
C1395 H1389 0.930 . S
C1395 C1391 1.400 . S
C1395 C1394 1.385 . S
C1396 C1394 1.478 . S
C1396 C1398 1.381 . S
C1396 C1402 1.383 . S
C1397 C1393 1.495 . S
C1397 H1403 0.959 . S
C1397 H1404 0.961 . S
C1397 H1405 0.960 . S
C1398 C1396 1.381 . S
C1398 C1399 1.394 . S
C1398 H1406 0.930 . S
C1399 C1398 1.394 . S
C1399 C1400 1.383 . S
C1399 H1407 0.929 . S
C1400 C1399 1.383 . S
C1400 C1401 1.377 . S
C1401 H1385 0.930 . S
C1401 C1400 1.377 . S
C1401 C1402 1.379 . S
C1402 H1386 0.931 . S
C1402 C1396 1.383 . S
C1402 C1401 1.379 . S
H1403 C1397 0.959 . S
H1404 C1397 0.961 . S
H1405 C1397 0.960 . S
H1406 C1398 0.930 . S
H1407 C1399 0.929 . S
H1408 C1416 0.929 . S
H1409 C1418 0.930 . S
H1410 C1420 0.930 . S
H1411 C1423 0.929 . S
H1412 C1426 0.930 . S
H1413 C1428 0.960 . S
H1414 C1428 0.960 . S
H1415 C1428 0.960 . S
C1416 H1408 0.929 . S
C1416 C1417 1.377 . S
C1416 C1418 1.384 . S
C1417 C1416 1.377 . S
C1417 C1423 1.390 . S
C1418 H1409 0.930 . S
C1418 C1416 1.384 . S
C1418 C1419 1.372 . S
C1419 C1418 1.372 . S
C1419 C1420 1.400 . S
C1419 C1424 1.490 . S
C1420 H1410 0.930 . S
C1420 C1419 1.400 . S
C1420 C1423 1.386 . S
H1421 C1437 0.930 . S
H1422 C1438 0.931 . S
C1423 H1411 0.929 . S
C1423 C1417 1.390 . S
C1423 C1420 1.386 . S
C1424 C1419 1.490 . S
C1424 C1426 1.395 . S
C1424 C1427 1.403 . S
H1425 C1431 0.930 . S
C1426 H1412 0.930 . S
C1426 C1424 1.395 . S
C1426 C1429 1.403 . S
C1427 C1424 1.403 . S
C1427 C1428 1.524 . S
C1427 C1431 1.400 . S
C1428 H1413 0.960 . S
C1428 H1414 0.960 . S
C1428 H1415 0.960 . S
C1428 C1427 1.524 . S
C1429 C1426 1.403 . S
C1429 C1430 1.392 . S
C1429 C1433 1.495 . S
C1430 C1429 1.392 . S
C1430 C1431 1.385 . S
C1430 C1432 1.478 . S
C1431 H1425 0.930 . S
C1431 C1427 1.400 . S
C1431 C1430 1.385 . S
C1432 C1430 1.478 . S
C1432 C1434 1.381 . S
C1432 C1438 1.383 . S
C1433 C1429 1.495 . S
C1433 H1439 0.959 . S
C1433 H1440 0.961 . S
C1433 H1441 0.960 . S
C1434 C1432 1.381 . S
C1434 C1435 1.394 . S
C1434 H1442 0.930 . S
C1435 C1434 1.394 . S
C1435 C1436 1.383 . S
C1435 H1443 0.929 . S
C1436 C1435 1.383 . S
C1436 C1437 1.377 . S
C1437 H1421 0.930 . S
C1437 C1436 1.377 . S
C1437 C1438 1.379 . S
C1438 H1422 0.931 . S
C1438 C1432 1.383 . S
C1438 C1437 1.379 . S
H1439 C1433 0.959 . S
H1440 C1433 0.961 . S
H1441 C1433 0.960 . S
H1442 C1434 0.930 . S
H1443 C1435 0.929 . S
H1444 C1452 0.929 . S
H1445 C1454 0.930 . S
H1446 C1456 0.930 . S
H1447 C1459 0.929 . S
H1448 C1462 0.930 . S
H1449 C1464 0.960 . S
H1450 C1464 0.960 . S
H1451 C1464 0.960 . S
C1452 H1444 0.929 . S
C1452 C1453 1.377 . S
C1452 C1454 1.384 . S
C1453 C1452 1.377 . S
C1453 C1459 1.390 . S
C1454 H1445 0.930 . S
C1454 C1452 1.384 . S
C1454 C1455 1.372 . S
C1455 C1454 1.372 . S
C1455 C1456 1.400 . S
C1455 C1460 1.490 . S
C1456 H1446 0.930 . S
C1456 C1455 1.400 . S
C1456 C1459 1.386 . S
H1457 C1473 0.930 . S
H1458 C1474 0.931 . S
C1459 H1447 0.929 . S
C1459 C1453 1.390 . S
C1459 C1456 1.386 . S
C1460 C1455 1.490 . S
C1460 C1462 1.395 . S
C1460 C1463 1.403 . S
H1461 C1467 0.930 . S
C1462 H1448 0.930 . S
C1462 C1460 1.395 . S
C1462 C1465 1.403 . S
C1463 C1460 1.403 . S
C1463 C1464 1.524 . S
C1463 C1467 1.400 . S
C1464 H1449 0.960 . S
C1464 H1450 0.960 . S
C1464 H1451 0.960 . S
C1464 C1463 1.524 . S
C1465 C1462 1.403 . S
C1465 C1466 1.392 . S
C1465 C1469 1.495 . S
C1466 C1465 1.392 . S
C1466 C1467 1.385 . S
C1466 C1468 1.478 . S
C1467 H1461 0.930 . S
C1467 C1463 1.400 . S
C1467 C1466 1.385 . S
C1468 C1466 1.478 . S
C1468 C1470 1.381 . S
C1468 C1474 1.383 . S
C1469 C1465 1.495 . S
C1469 H1475 0.959 . S
C1469 H1476 0.961 . S
C1469 H1477 0.960 . S
C1470 C1468 1.381 . S
C1470 C1471 1.394 . S
C1470 H1478 0.930 . S
C1471 C1470 1.394 . S
C1471 C1472 1.383 . S
C1471 H1479 0.929 . S
C1472 C1471 1.383 . S
C1472 C1473 1.377 . S
C1473 H1457 0.930 . S
C1473 C1472 1.377 . S
C1473 C1474 1.379 . S
C1474 H1458 0.931 . S
C1474 C1468 1.383 . S
C1474 C1473 1.379 . S
H1475 C1469 0.959 . S
H1476 C1469 0.961 . S
H1477 C1469 0.960 . S
H1478 C1470 0.930 . S
H1479 C1471 0.929 . S
H1480 C1488 0.929 . S
H1481 C1490 0.930 . S
H1482 C1492 0.930 . S
H1483 C1495 0.929 . S
H1484 C1498 0.930 . S
H1485 C1500 0.960 . S
H1486 C1500 0.960 . S
H1487 C1500 0.960 . S
C1488 H1480 0.929 . S
C1488 C1489 1.377 . S
C1488 C1490 1.384 . S
C1489 C1488 1.377 . S
C1489 C1495 1.390 . S
C1490 H1481 0.930 . S
C1490 C1488 1.384 . S
C1490 C1491 1.372 . S
C1491 C1490 1.372 . S
C1491 C1492 1.400 . S
C1491 C1496 1.490 . S
C1492 H1482 0.930 . S
C1492 C1491 1.400 . S
C1492 C1495 1.386 . S
H1493 C1509 0.930 . S
H1494 C1510 0.931 . S
C1495 H1483 0.929 . S
C1495 C1489 1.390 . S
C1495 C1492 1.386 . S
C1496 C1491 1.490 . S
C1496 C1498 1.395 . S
C1496 C1499 1.403 . S
H1497 C1503 0.930 . S
C1498 H1484 0.930 . S
C1498 C1496 1.395 . S
C1498 C1501 1.403 . S
C1499 C1496 1.403 . S
C1499 C1500 1.524 . S
C1499 C1503 1.400 . S
C1500 H1485 0.960 . S
C1500 H1486 0.960 . S
C1500 H1487 0.960 . S
C1500 C1499 1.524 . S
C1501 C1498 1.403 . S
C1501 C1502 1.392 . S
C1501 C1505 1.495 . S
C1502 C1501 1.392 . S
C1502 C1503 1.385 . S
C1502 C1504 1.478 . S
C1503 H1497 0.930 . S
C1503 C1499 1.400 . S
C1503 C1502 1.385 . S
C1504 C1502 1.478 . S
C1504 C1506 1.381 . S
C1504 C1510 1.383 . S
C1505 C1501 1.495 . S
C1505 H1511 0.959 . S
C1505 H1512 0.961 . S
C1505 H1513 0.960 . S
C1506 C1504 1.381 . S
C1506 C1507 1.394 . S
C1506 H1514 0.930 . S
C1507 C1506 1.394 . S
C1507 C1508 1.383 . S
C1507 H1515 0.929 . S
C1508 C1507 1.383 . S
C1508 C1509 1.377 . S
C1509 H1493 0.930 . S
C1509 C1508 1.377 . S
C1509 C1510 1.379 . S
C1510 H1494 0.931 . S
C1510 C1504 1.383 . S
C1510 C1509 1.379 . S
H1511 C1505 0.959 . S
H1512 C1505 0.961 . S
H1513 C1505 0.960 . S
H1514 C1506 0.930 . S
H1515 C1507 0.929 . S
H1516 C1524 0.929 . S
H1517 C1526 0.930 . S
H1518 C1528 0.930 . S
H1519 C1531 0.929 . S
H1520 C1534 0.930 . S
H1521 C1536 0.960 . S
H1522 C1536 0.960 . S
H1523 C1536 0.960 . S
C1524 H1516 0.929 . S
C1524 C1525 1.377 . S
C1524 C1526 1.384 . S
C1525 C1524 1.377 . S
C1525 C1531 1.390 . S
C1526 H1517 0.930 . S
C1526 C1524 1.384 . S
C1526 C1527 1.372 . S
C1527 C1526 1.372 . S
C1527 C1528 1.400 . S
C1527 C1532 1.490 . S
C1528 H1518 0.930 . S
C1528 C1527 1.400 . S
C1528 C1531 1.386 . S
H1529 C1545 0.930 . S
H1530 C1546 0.931 . S
C1531 H1519 0.929 . S
C1531 C1525 1.390 . S
C1531 C1528 1.386 . S
C1532 C1527 1.490 . S
C1532 C1534 1.395 . S
C1532 C1535 1.403 . S
H1533 C1539 0.930 . S
C1534 H1520 0.930 . S
C1534 C1532 1.395 . S
C1534 C1537 1.403 . S
C1535 C1532 1.403 . S
C1535 C1536 1.524 . S
C1535 C1539 1.400 . S
C1536 H1521 0.960 . S
C1536 H1522 0.960 . S
C1536 H1523 0.960 . S
C1536 C1535 1.524 . S
C1537 C1534 1.403 . S
C1537 C1538 1.392 . S
C1537 C1541 1.495 . S
C1538 C1537 1.392 . S
C1538 C1539 1.385 . S
C1538 C1540 1.478 . S
C1539 H1533 0.930 . S
C1539 C1535 1.400 . S
C1539 C1538 1.385 . S
C1540 C1538 1.478 . S
C1540 C1542 1.381 . S
C1540 C1546 1.383 . S
C1541 C1537 1.495 . S
C1541 H1547 0.959 . S
C1541 H1548 0.961 . S
C1541 H1549 0.960 . S
C1542 C1540 1.381 . S
C1542 C1543 1.394 . S
C1542 H1550 0.930 . S
C1543 C1542 1.394 . S
C1543 C1544 1.383 . S
C1543 H1551 0.929 . S
C1544 C1543 1.383 . S
C1544 C1545 1.377 . S
C1545 H1529 0.930 . S
C1545 C1544 1.377 . S
C1545 C1546 1.379 . S
C1546 H1530 0.931 . S
C1546 C1540 1.383 . S
C1546 C1545 1.379 . S
H1547 C1541 0.959 . S
H1548 C1541 0.961 . S
H1549 C1541 0.960 . S
H1550 C1542 0.930 . S
H1551 C1543 0.929 . S
H1552 C1560 0.929 . S
H1553 C1562 0.930 . S
H1554 C1564 0.930 . S
H1555 C1567 0.929 . S
H1556 C1570 0.930 . S
H1557 C1572 0.960 . S
H1558 C1572 0.960 . S
H1559 C1572 0.960 . S
C1560 H1552 0.929 . S
C1560 C1561 1.377 . S
C1560 C1562 1.384 . S
C1561 C1560 1.377 . S
C1561 C1567 1.390 . S
C1562 H1553 0.930 . S
C1562 C1560 1.384 . S
C1562 C1563 1.372 . S
C1563 C1562 1.372 . S
C1563 C1564 1.400 . S
C1563 C1568 1.490 . S
C1564 H1554 0.930 . S
C1564 C1563 1.400 . S
C1564 C1567 1.386 . S
H1565 C1581 0.930 . S
H1566 C1582 0.931 . S
C1567 H1555 0.929 . S
C1567 C1561 1.390 . S
C1567 C1564 1.386 . S
C1568 C1563 1.490 . S
C1568 C1570 1.395 . S
C1568 C1571 1.403 . S
H1569 C1575 0.930 . S
C1570 H1556 0.930 . S
C1570 C1568 1.395 . S
C1570 C1573 1.403 . S
C1571 C1568 1.403 . S
C1571 C1572 1.524 . S
C1571 C1575 1.400 . S
C1572 H1557 0.960 . S
C1572 H1558 0.960 . S
C1572 H1559 0.960 . S
C1572 C1571 1.524 . S
C1573 C1570 1.403 . S
C1573 C1574 1.392 . S
C1573 C1577 1.495 . S
C1574 C1573 1.392 . S
C1574 C1575 1.385 . S
C1574 C1576 1.478 . S
C1575 H1569 0.930 . S
C1575 C1571 1.400 . S
C1575 C1574 1.385 . S
C1576 C1574 1.478 . S
C1576 C1578 1.381 . S
C1576 C1582 1.383 . S
C1577 C1573 1.495 . S
C1577 H1583 0.959 . S
C1577 H1584 0.961 . S
C1577 H1585 0.960 . S
C1578 C1576 1.381 . S
C1578 C1579 1.394 . S
C1578 H1586 0.930 . S
C1579 C1578 1.394 . S
C1579 C1580 1.383 . S
C1579 H1587 0.929 . S
C1580 C1579 1.383 . S
C1580 C1581 1.377 . S
C1581 H1565 0.930 . S
C1581 C1580 1.377 . S
C1581 C1582 1.379 . S
C1582 H1566 0.931 . S
C1582 C1576 1.383 . S
C1582 C1581 1.379 . S
H1583 C1577 0.959 . S
H1584 C1577 0.961 . S
H1585 C1577 0.960 . S
H1586 C1578 0.930 . S
H1587 C1579 0.929 . S
H1588 C1596 0.929 . S
H1589 C1598 0.930 . S
H1590 C1600 0.930 . S
H1591 C1603 0.929 . S
H1592 C1606 0.930 . S
H1593 C1608 0.960 . S
H1594 C1608 0.960 . S
H1595 C1608 0.960 . S
C1596 H1588 0.929 . S
C1596 C1597 1.377 . S
C1596 C1598 1.384 . S
C1597 C1596 1.377 . S
C1597 C1603 1.390 . S
C1598 H1589 0.930 . S
C1598 C1596 1.384 . S
C1598 C1599 1.372 . S
C1599 C1598 1.372 . S
C1599 C1600 1.400 . S
C1599 C1604 1.490 . S
C1600 H1590 0.930 . S
C1600 C1599 1.400 . S
C1600 C1603 1.386 . S
H1601 C1617 0.930 . S
H1602 C1618 0.931 . S
C1603 H1591 0.929 . S
C1603 C1597 1.390 . S
C1603 C1600 1.386 . S
C1604 C1599 1.490 . S
C1604 C1606 1.395 . S
C1604 C1607 1.403 . S
H1605 C1611 0.930 . S
C1606 H1592 0.930 . S
C1606 C1604 1.395 . S
C1606 C1609 1.403 . S
C1607 C1604 1.403 . S
C1607 C1608 1.524 . S
C1607 C1611 1.400 . S
C1608 H1593 0.960 . S
C1608 H1594 0.960 . S
C1608 H1595 0.960 . S
C1608 C1607 1.524 . S
C1609 C1606 1.403 . S
C1609 C1610 1.392 . S
C1609 C1613 1.495 . S
C1610 C1609 1.392 . S
C1610 C1611 1.385 . S
C1610 C1612 1.478 . S
C1611 H1605 0.930 . S
C1611 C1607 1.400 . S
C1611 C1610 1.385 . S
C1612 C1610 1.478 . S
C1612 C1614 1.381 . S
C1612 C1618 1.383 . S
C1613 C1609 1.495 . S
C1613 H1619 0.959 . S
C1613 H1620 0.961 . S
C1613 H1621 0.960 . S
C1614 C1612 1.381 . S
C1614 C1615 1.394 . S
C1614 H1622 0.930 . S
C1615 C1614 1.394 . S
C1615 C1616 1.383 . S
C1615 H1623 0.929 . S
C1616 C1615 1.383 . S
C1616 C1617 1.377 . S
C1617 H1601 0.930 . S
C1617 C1616 1.377 . S
C1617 C1618 1.379 . S
C1618 H1602 0.931 . S
C1618 C1612 1.383 . S
C1618 C1617 1.379 . S
H1619 C1613 0.959 . S
H1620 C1613 0.961 . S
H1621 C1613 0.960 . S
H1622 C1614 0.930 . S
H1623 C1615 0.929 . S
H1624 C1632 0.929 . S
H1625 C1634 0.930 . S
H1626 C1636 0.930 . S
H1627 C1639 0.929 . S
H1628 C1642 0.930 . S
H1629 C1644 0.960 . S
H1630 C1644 0.960 . S
H1631 C1644 0.960 . S
C1632 H1624 0.929 . S
C1632 C1633 1.377 . S
C1632 C1634 1.384 . S
C1633 C1632 1.377 . S
C1633 C1639 1.390 . S
C1634 H1625 0.930 . S
C1634 C1632 1.384 . S
C1634 C1635 1.372 . S
C1635 C1634 1.372 . S
C1635 C1636 1.400 . S
C1635 C1640 1.490 . S
C1636 H1626 0.930 . S
C1636 C1635 1.400 . S
C1636 C1639 1.386 . S
H1637 C1653 0.930 . S
H1638 C1654 0.931 . S
C1639 H1627 0.929 . S
C1639 C1633 1.390 . S
C1639 C1636 1.386 . S
C1640 C1635 1.490 . S
C1640 C1642 1.395 . S
C1640 C1643 1.403 . S
H1641 C1647 0.930 . S
C1642 H1628 0.930 . S
C1642 C1640 1.395 . S
C1642 C1645 1.403 . S
C1643 C1640 1.403 . S
C1643 C1644 1.524 . S
C1643 C1647 1.400 . S
C1644 H1629 0.960 . S
C1644 H1630 0.960 . S
C1644 H1631 0.960 . S
C1644 C1643 1.524 . S
C1645 C1642 1.403 . S
C1645 C1646 1.392 . S
C1645 C1649 1.495 . S
C1646 C1645 1.392 . S
C1646 C1647 1.385 . S
C1646 C1648 1.478 . S
C1647 H1641 0.930 . S
C1647 C1643 1.400 . S
C1647 C1646 1.385 . S
C1648 C1646 1.478 . S
C1648 C1650 1.381 . S
C1648 C1654 1.383 . S
C1649 C1645 1.495 . S
C1649 H1655 0.959 . S
C1649 H1656 0.961 . S
C1649 H1657 0.960 . S
C1650 C1648 1.381 . S
C1650 C1651 1.394 . S
C1650 H1658 0.930 . S
C1651 C1650 1.394 . S
C1651 C1652 1.383 . S
C1651 H1659 0.929 . S
C1652 C1651 1.383 . S
C1652 C1653 1.377 . S
C1653 H1637 0.930 . S
C1653 C1652 1.377 . S
C1653 C1654 1.379 . S
C1654 H1638 0.931 . S
C1654 C1648 1.383 . S
C1654 C1653 1.379 . S
H1655 C1649 0.959 . S
H1656 C1649 0.961 . S
H1657 C1649 0.960 . S
H1658 C1650 0.930 . S
H1659 C1651 0.929 . S
H1660 C1668 0.929 . S
H1661 C1670 0.930 . S
H1662 C1672 0.930 . S
H1663 C1675 0.929 . S
H1664 C1678 0.930 . S
H1665 C1680 0.960 . S
H1666 C1680 0.960 . S
H1667 C1680 0.960 . S
C1668 H1660 0.929 . S
C1668 C1669 1.377 . S
C1668 C1670 1.384 . S
C1669 C1668 1.377 . S
C1669 C1675 1.390 . S
C1670 H1661 0.930 . S
C1670 C1668 1.384 . S
C1670 C1671 1.372 . S
C1671 C1670 1.372 . S
C1671 C1672 1.400 . S
C1671 C1676 1.490 . S
C1672 H1662 0.930 . S
C1672 C1671 1.400 . S
C1672 C1675 1.386 . S
H1673 C1689 0.930 . S
H1674 C1690 0.931 . S
C1675 H1663 0.929 . S
C1675 C1669 1.390 . S
C1675 C1672 1.386 . S
C1676 C1671 1.490 . S
C1676 C1678 1.395 . S
C1676 C1679 1.403 . S
H1677 C1683 0.930 . S
C1678 H1664 0.930 . S
C1678 C1676 1.395 . S
C1678 C1681 1.403 . S
C1679 C1676 1.403 . S
C1679 C1680 1.524 . S
C1679 C1683 1.400 . S
C1680 H1665 0.960 . S
C1680 H1666 0.960 . S
C1680 H1667 0.960 . S
C1680 C1679 1.524 . S
C1681 C1678 1.403 . S
C1681 C1682 1.392 . S
C1681 C1685 1.495 . S
C1682 C1681 1.392 . S
C1682 C1683 1.385 . S
C1682 C1684 1.478 . S
C1683 H1677 0.930 . S
C1683 C1679 1.400 . S
C1683 C1682 1.385 . S
C1684 C1682 1.478 . S
C1684 C1686 1.381 . S
C1684 C1690 1.383 . S
C1685 C1681 1.495 . S
C1685 H1691 0.959 . S
C1685 H1692 0.961 . S
C1685 H1693 0.960 . S
C1686 C1684 1.381 . S
C1686 C1687 1.394 . S
C1686 H1694 0.930 . S
C1687 C1686 1.394 . S
C1687 C1688 1.383 . S
C1687 H1695 0.929 . S
C1688 C1687 1.383 . S
C1688 C1689 1.377 . S
C1689 H1673 0.930 . S
C1689 C1688 1.377 . S
C1689 C1690 1.379 . S
C1690 H1674 0.931 . S
C1690 C1684 1.383 . S
C1690 C1689 1.379 . S
H1691 C1685 0.959 . S
H1692 C1685 0.961 . S
H1693 C1685 0.960 . S
H1694 C1686 0.930 . S
H1695 C1687 0.929 . S
H1696 C1704 0.929 . S
H1697 C1706 0.930 . S
H1698 C1708 0.930 . S
H1699 C1711 0.929 . S
H1700 C1714 0.930 . S
H1701 C1716 0.960 . S
H1702 C1716 0.960 . S
H1703 C1716 0.960 . S
C1704 H1696 0.929 . S
C1704 C1705 1.377 . S
C1704 C1706 1.384 . S
C1705 C1704 1.377 . S
C1705 C1711 1.390 . S
C1706 H1697 0.930 . S
C1706 C1704 1.384 . S
C1706 C1707 1.372 . S
C1707 C1706 1.372 . S
C1707 C1708 1.400 . S
C1707 C1712 1.490 . S
C1708 H1698 0.930 . S
C1708 C1707 1.400 . S
C1708 C1711 1.386 . S
H1709 C1725 0.930 . S
H1710 C1726 0.931 . S
C1711 H1699 0.929 . S
C1711 C1705 1.390 . S
C1711 C1708 1.386 . S
C1712 C1707 1.490 . S
C1712 C1714 1.395 . S
C1712 C1715 1.403 . S
H1713 C1719 0.930 . S
C1714 H1700 0.930 . S
C1714 C1712 1.395 . S
C1714 C1717 1.403 . S
C1715 C1712 1.403 . S
C1715 C1716 1.524 . S
C1715 C1719 1.400 . S
C1716 H1701 0.960 . S
C1716 H1702 0.960 . S
C1716 H1703 0.960 . S
C1716 C1715 1.524 . S
C1717 C1714 1.403 . S
C1717 C1718 1.392 . S
C1717 C1721 1.495 . S
C1718 C1717 1.392 . S
C1718 C1719 1.385 . S
C1718 C1720 1.478 . S
C1719 H1713 0.930 . S
C1719 C1715 1.400 . S
C1719 C1718 1.385 . S
C1720 C1718 1.478 . S
C1720 C1722 1.381 . S
C1720 C1726 1.383 . S
C1721 C1717 1.495 . S
C1721 H1727 0.959 . S
C1721 H1728 0.961 . S
C1721 H1729 0.960 . S
C1722 C1720 1.381 . S
C1722 C1723 1.394 . S
C1722 H1730 0.930 . S
C1723 C1722 1.394 . S
C1723 C1724 1.383 . S
C1723 H1731 0.929 . S
C1724 C1723 1.383 . S
C1724 C1725 1.377 . S
C1725 H1709 0.930 . S
C1725 C1724 1.377 . S
C1725 C1726 1.379 . S
C1726 H1710 0.931 . S
C1726 C1720 1.383 . S
C1726 C1725 1.379 . S
H1727 C1721 0.959 . S
H1728 C1721 0.961 . S
H1729 C1721 0.960 . S
H1730 C1722 0.930 . S
H1731 C1723 0.929 . S
H1732 C1740 0.929 . S
H1733 C1742 0.930 . S
H1734 C1744 0.930 . S
H1735 C1747 0.929 . S
H1736 C1750 0.930 . S
H1737 C1752 0.960 . S
H1738 C1752 0.960 . S
H1739 C1752 0.960 . S
C1740 H1732 0.929 . S
C1740 C1741 1.377 . S
C1740 C1742 1.384 . S
C1741 C1740 1.377 . S
C1741 C1747 1.390 . S
C1742 H1733 0.930 . S
C1742 C1740 1.384 . S
C1742 C1743 1.372 . S
C1743 C1742 1.372 . S
C1743 C1744 1.400 . S
C1743 C1748 1.490 . S
C1744 H1734 0.930 . S
C1744 C1743 1.400 . S
C1744 C1747 1.386 . S
H1745 C1761 0.930 . S
H1746 C1762 0.931 . S
C1747 H1735 0.929 . S
C1747 C1741 1.390 . S
C1747 C1744 1.386 . S
C1748 C1743 1.490 . S
C1748 C1750 1.395 . S
C1748 C1751 1.403 . S
H1749 C1755 0.930 . S
C1750 H1736 0.930 . S
C1750 C1748 1.395 . S
C1750 C1753 1.403 . S
C1751 C1748 1.403 . S
C1751 C1752 1.524 . S
C1751 C1755 1.400 . S
C1752 H1737 0.960 . S
C1752 H1738 0.960 . S
C1752 H1739 0.960 . S
C1752 C1751 1.524 . S
C1753 C1750 1.403 . S
C1753 C1754 1.392 . S
C1753 C1757 1.495 . S
C1754 C1753 1.392 . S
C1754 C1755 1.385 . S
C1754 C1756 1.478 . S
C1755 H1749 0.930 . S
C1755 C1751 1.400 . S
C1755 C1754 1.385 . S
C1756 C1754 1.478 . S
C1756 C1758 1.381 . S
C1756 C1762 1.383 . S
C1757 C1753 1.495 . S
C1757 H1763 0.959 . S
C1757 H1764 0.961 . S
C1757 H1765 0.960 . S
C1758 C1756 1.381 . S
C1758 C1759 1.394 . S
C1758 H1766 0.930 . S
C1759 C1758 1.394 . S
C1759 C1760 1.383 . S
C1759 H1767 0.929 . S
C1760 C1759 1.383 . S
C1760 C1761 1.377 . S
C1761 H1745 0.930 . S
C1761 C1760 1.377 . S
C1761 C1762 1.379 . S
C1762 H1746 0.931 . S
C1762 C1756 1.383 . S
C1762 C1761 1.379 . S
H1763 C1757 0.959 . S
H1764 C1757 0.961 . S
H1765 C1757 0.960 . S
H1766 C1758 0.930 . S
H1767 C1759 0.929 . S
H1768 C1776 0.929 . S
H1769 C1778 0.930 . S
H1770 C1780 0.930 . S
H1771 C1783 0.929 . S
H1772 C1786 0.930 . S
H1773 C1788 0.960 . S
H1774 C1788 0.960 . S
H1775 C1788 0.960 . S
C1776 H1768 0.929 . S
C1776 C1777 1.377 . S
C1776 C1778 1.384 . S
C1777 C1776 1.377 . S
C1777 C1783 1.390 . S
C1778 H1769 0.930 . S
C1778 C1776 1.384 . S
C1778 C1779 1.372 . S
C1779 C1778 1.372 . S
C1779 C1780 1.400 . S
C1779 C1784 1.490 . S
C1780 H1770 0.930 . S
C1780 C1779 1.400 . S
C1780 C1783 1.386 . S
H1781 C1797 0.930 . S
H1782 C1798 0.931 . S
C1783 H1771 0.929 . S
C1783 C1777 1.390 . S
C1783 C1780 1.386 . S
C1784 C1779 1.490 . S
C1784 C1786 1.395 . S
C1784 C1787 1.403 . S
H1785 C1791 0.930 . S
C1786 H1772 0.930 . S
C1786 C1784 1.395 . S
C1786 C1789 1.403 . S
C1787 C1784 1.403 . S
C1787 C1788 1.524 . S
C1787 C1791 1.400 . S
C1788 H1773 0.960 . S
C1788 H1774 0.960 . S
C1788 H1775 0.960 . S
C1788 C1787 1.524 . S
C1789 C1786 1.403 . S
C1789 C1790 1.392 . S
C1789 C1793 1.495 . S
C1790 C1789 1.392 . S
C1790 C1791 1.385 . S
C1790 C1792 1.478 . S
C1791 H1785 0.930 . S
C1791 C1787 1.400 . S
C1791 C1790 1.385 . S
C1792 C1790 1.478 . S
C1792 C1794 1.381 . S
C1792 C1798 1.383 . S
C1793 C1789 1.495 . S
C1793 H1799 0.959 . S
C1793 H1800 0.961 . S
C1793 H1801 0.960 . S
C1794 C1792 1.381 . S
C1794 C1795 1.394 . S
C1794 H1802 0.930 . S
C1795 C1794 1.394 . S
C1795 C1796 1.383 . S
C1795 H1803 0.929 . S
C1796 C1795 1.383 . S
C1796 C1797 1.377 . S
C1797 H1781 0.930 . S
C1797 C1796 1.377 . S
C1797 C1798 1.379 . S
C1798 H1782 0.931 . S
C1798 C1792 1.383 . S
C1798 C1797 1.379 . S
H1799 C1793 0.959 . S
H1800 C1793 0.961 . S
H1801 C1793 0.960 . S
H1802 C1794 0.930 . S
H1803 C1795 0.929 . S
H1804 C1812 0.929 . S
H1805 C1814 0.930 . S
H1806 C1816 0.930 . S
H1807 C1819 0.929 . S
H1808 C1822 0.930 . S
H1809 C1824 0.960 . S
H1810 C1824 0.960 . S
H1811 C1824 0.960 . S
C1812 H1804 0.929 . S
C1812 C1813 1.377 . S
C1812 C1814 1.384 . S
C1813 C1812 1.377 . S
C1813 C1819 1.390 . S
C1814 H1805 0.930 . S
C1814 C1812 1.384 . S
C1814 C1815 1.372 . S
C1815 C1814 1.372 . S
C1815 C1816 1.400 . S
C1815 C1820 1.490 . S
C1816 H1806 0.930 . S
C1816 C1815 1.400 . S
C1816 C1819 1.386 . S
H1817 C1833 0.930 . S
H1818 C1834 0.931 . S
C1819 H1807 0.929 . S
C1819 C1813 1.390 . S
C1819 C1816 1.386 . S
C1820 C1815 1.490 . S
C1820 C1822 1.395 . S
C1820 C1823 1.403 . S
H1821 C1827 0.930 . S
C1822 H1808 0.930 . S
C1822 C1820 1.395 . S
C1822 C1825 1.403 . S
C1823 C1820 1.403 . S
C1823 C1824 1.524 . S
C1823 C1827 1.400 . S
C1824 H1809 0.960 . S
C1824 H1810 0.960 . S
C1824 H1811 0.960 . S
C1824 C1823 1.524 . S
C1825 C1822 1.403 . S
C1825 C1826 1.392 . S
C1825 C1829 1.495 . S
C1826 C1825 1.392 . S
C1826 C1827 1.385 . S
C1826 C1828 1.478 . S
C1827 H1821 0.930 . S
C1827 C1823 1.400 . S
C1827 C1826 1.385 . S
C1828 C1826 1.478 . S
C1828 C1830 1.381 . S
C1828 C1834 1.383 . S
C1829 C1825 1.495 . S
C1829 H1835 0.959 . S
C1829 H1836 0.961 . S
C1829 H1837 0.960 . S
C1830 C1828 1.381 . S
C1830 C1831 1.394 . S
C1830 H1838 0.930 . S
C1831 C1830 1.394 . S
C1831 C1832 1.383 . S
C1831 H1839 0.929 . S
C1832 C1831 1.383 . S
C1832 C1833 1.377 . S
C1833 H1817 0.930 . S
C1833 C1832 1.377 . S
C1833 C1834 1.379 . S
C1834 H1818 0.931 . S
C1834 C1828 1.383 . S
C1834 C1833 1.379 . S
H1835 C1829 0.959 . S
H1836 C1829 0.961 . S
H1837 C1829 0.960 . S
H1838 C1830 0.930 . S
H1839 C1831 0.929 . S
H1840 C1848 0.929 . S
H1841 C1850 0.930 . S
H1842 C1852 0.930 . S
H1843 C1855 0.929 . S
H1844 C1858 0.930 . S
H1845 C1860 0.960 . S
H1846 C1860 0.960 . S
H1847 C1860 0.960 . S
C1848 H1840 0.929 . S
C1848 C1849 1.377 . S
C1848 C1850 1.384 . S
C1849 C1848 1.377 . S
C1849 C1855 1.390 . S
C1850 H1841 0.930 . S
C1850 C1848 1.384 . S
C1850 C1851 1.372 . S
C1851 C1850 1.372 . S
C1851 C1852 1.400 . S
C1851 C1856 1.490 . S
C1852 H1842 0.930 . S
C1852 C1851 1.400 . S
C1852 C1855 1.386 . S
H1853 C1869 0.930 . S
H1854 C1870 0.931 . S
C1855 H1843 0.929 . S
C1855 C1849 1.390 . S
C1855 C1852 1.386 . S
C1856 C1851 1.490 . S
C1856 C1858 1.395 . S
C1856 C1859 1.403 . S
H1857 C1863 0.930 . S
C1858 H1844 0.930 . S
C1858 C1856 1.395 . S
C1858 C1861 1.403 . S
C1859 C1856 1.403 . S
C1859 C1860 1.524 . S
C1859 C1863 1.400 . S
C1860 H1845 0.960 . S
C1860 H1846 0.960 . S
C1860 H1847 0.960 . S
C1860 C1859 1.524 . S
C1861 C1858 1.403 . S
C1861 C1862 1.392 . S
C1861 C1865 1.495 . S
C1862 C1861 1.392 . S
C1862 C1863 1.385 . S
C1862 C1864 1.478 . S
C1863 H1857 0.930 . S
C1863 C1859 1.400 . S
C1863 C1862 1.385 . S
C1864 C1862 1.478 . S
C1864 C1866 1.381 . S
C1864 C1870 1.383 . S
C1865 C1861 1.495 . S
C1865 H1871 0.959 . S
C1865 H1872 0.961 . S
C1865 H1873 0.960 . S
C1866 C1864 1.381 . S
C1866 C1867 1.394 . S
C1866 H1874 0.930 . S
C1867 C1866 1.394 . S
C1867 C1868 1.383 . S
C1867 H1875 0.929 . S
C1868 C1867 1.383 . S
C1868 C1869 1.377 . S
C1869 H1853 0.930 . S
C1869 C1868 1.377 . S
C1869 C1870 1.379 . S
C1870 H1854 0.931 . S
C1870 C1864 1.383 . S
C1870 C1869 1.379 . S
H1871 C1865 0.959 . S
H1872 C1865 0.961 . S
H1873 C1865 0.960 . S
H1874 C1866 0.930 . S
H1875 C1867 0.929 . S
H1876 C1884 0.929 . S
H1877 C1886 0.930 . S
H1878 C1888 0.930 . S
H1879 C1891 0.929 . S
H1880 C1894 0.930 . S
H1881 C1896 0.960 . S
H1882 C1896 0.960 . S
H1883 C1896 0.960 . S
C1884 H1876 0.929 . S
C1884 C1885 1.377 . S
C1884 C1886 1.384 . S
C1885 C1884 1.377 . S
C1885 C1891 1.390 . S
C1886 H1877 0.930 . S
C1886 C1884 1.384 . S
C1886 C1887 1.372 . S
C1887 C1886 1.372 . S
C1887 C1888 1.400 . S
C1887 C1892 1.490 . S
C1888 H1878 0.930 . S
C1888 C1887 1.400 . S
C1888 C1891 1.386 . S
H1889 C1905 0.930 . S
H1890 C1906 0.931 . S
C1891 H1879 0.929 . S
C1891 C1885 1.390 . S
C1891 C1888 1.386 . S
C1892 C1887 1.490 . S
C1892 C1894 1.395 . S
C1892 C1895 1.403 . S
H1893 C1899 0.930 . S
C1894 H1880 0.930 . S
C1894 C1892 1.395 . S
C1894 C1897 1.403 . S
C1895 C1892 1.403 . S
C1895 C1896 1.524 . S
C1895 C1899 1.400 . S
C1896 H1881 0.960 . S
C1896 H1882 0.960 . S
C1896 H1883 0.960 . S
C1896 C1895 1.524 . S
C1897 C1894 1.403 . S
C1897 C1898 1.392 . S
C1897 C1901 1.495 . S
C1898 C1897 1.392 . S
C1898 C1899 1.385 . S
C1898 C1900 1.478 . S
C1899 H1893 0.930 . S
C1899 C1895 1.400 . S
C1899 C1898 1.385 . S
C1900 C1898 1.478 . S
C1900 C1902 1.381 . S
C1900 C1906 1.383 . S
C1901 C1897 1.495 . S
C1901 H1907 0.959 . S
C1901 H1908 0.961 . S
C1901 H1909 0.960 . S
C1902 C1900 1.381 . S
C1902 C1903 1.394 . S
C1902 H1910 0.930 . S
C1903 C1902 1.394 . S
C1903 C1904 1.383 . S
C1903 H1911 0.929 . S
C1904 C1903 1.383 . S
C1904 C1905 1.377 . S
C1905 H1889 0.930 . S
C1905 C1904 1.377 . S
C1905 C1906 1.379 . S
C1906 H1890 0.931 . S
C1906 C1900 1.383 . S
C1906 C1905 1.379 . S
H1907 C1901 0.959 . S
H1908 C1901 0.961 . S
H1909 C1901 0.960 . S
H1910 C1902 0.930 . S
H1911 C1903 0.929 . S
H1912 C1920 0.929 . S
H1913 C1922 0.930 . S
H1914 C1924 0.930 . S
H1915 C1927 0.929 . S
H1916 C1930 0.930 . S
H1917 C1932 0.960 . S
H1918 C1932 0.960 . S
H1919 C1932 0.960 . S
C1920 H1912 0.929 . S
C1920 C1921 1.377 . S
C1920 C1922 1.384 . S
C1921 C1920 1.377 . S
C1921 C1927 1.390 . S
C1922 H1913 0.930 . S
C1922 C1920 1.384 . S
C1922 C1923 1.372 . S
C1923 C1922 1.372 . S
C1923 C1924 1.400 . S
C1923 C1928 1.490 . S
C1924 H1914 0.930 . S
C1924 C1923 1.400 . S
C1924 C1927 1.386 . S
H1925 C1941 0.930 . S
H1926 C1942 0.931 . S
C1927 H1915 0.929 . S
C1927 C1921 1.390 . S
C1927 C1924 1.386 . S
C1928 C1923 1.490 . S
C1928 C1930 1.395 . S
C1928 C1931 1.403 . S
H1929 C1935 0.930 . S
C1930 H1916 0.930 . S
C1930 C1928 1.395 . S
C1930 C1933 1.403 . S
C1931 C1928 1.403 . S
C1931 C1932 1.524 . S
C1931 C1935 1.400 . S
C1932 H1917 0.960 . S
C1932 H1918 0.960 . S
C1932 H1919 0.960 . S
C1932 C1931 1.524 . S
C1933 C1930 1.403 . S
C1933 C1934 1.392 . S
C1933 C1937 1.495 . S
C1934 C1933 1.392 . S
C1934 C1935 1.385 . S
C1934 C1936 1.478 . S
C1935 H1929 0.930 . S
C1935 C1931 1.400 . S
C1935 C1934 1.385 . S
C1936 C1934 1.478 . S
C1936 C1938 1.381 . S
C1936 C1942 1.383 . S
C1937 C1933 1.495 . S
C1937 H1943 0.959 . S
C1937 H1944 0.961 . S
C1937 H1945 0.960 . S
C1938 C1936 1.381 . S
C1938 C1939 1.394 . S
C1938 H1946 0.930 . S
C1939 C1938 1.394 . S
C1939 C1940 1.383 . S
C1939 H1947 0.929 . S
C1940 C1939 1.383 . S
C1940 C1941 1.377 . S
C1941 H1925 0.930 . S
C1941 C1940 1.377 . S
C1941 C1942 1.379 . S
C1942 H1926 0.931 . S
C1942 C1936 1.383 . S
C1942 C1941 1.379 . S
H1943 C1937 0.959 . S
H1944 C1937 0.961 . S
H1945 C1937 0.960 . S
H1946 C1938 0.930 . S
H1947 C1939 0.929 . S
H1948 C1956 0.929 . S
H1949 C1958 0.930 . S
H1950 C1960 0.930 . S
H1951 C1963 0.929 . S
H1952 C1966 0.930 . S
H1953 C1968 0.960 . S
H1954 C1968 0.960 . S
H1955 C1968 0.960 . S
C1956 H1948 0.929 . S
C1956 C1957 1.377 . S
C1956 C1958 1.384 . S
C1957 C1956 1.377 . S
C1957 C1963 1.390 . S
C1958 H1949 0.930 . S
C1958 C1956 1.384 . S
C1958 C1959 1.372 . S
C1959 C1958 1.372 . S
C1959 C1960 1.400 . S
C1959 C1964 1.490 . S
C1960 H1950 0.930 . S
C1960 C1959 1.400 . S
C1960 C1963 1.386 . S
H1961 C1977 0.930 . S
H1962 C1978 0.931 . S
C1963 H1951 0.929 . S
C1963 C1957 1.390 . S
C1963 C1960 1.386 . S
C1964 C1959 1.490 . S
C1964 C1966 1.395 . S
C1964 C1967 1.403 . S
H1965 C1971 0.930 . S
C1966 H1952 0.930 . S
C1966 C1964 1.395 . S
C1966 C1969 1.403 . S
C1967 C1964 1.403 . S
C1967 C1968 1.524 . S
C1967 C1971 1.400 . S
C1968 H1953 0.960 . S
C1968 H1954 0.960 . S
C1968 H1955 0.960 . S
C1968 C1967 1.524 . S
C1969 C1966 1.403 . S
C1969 C1970 1.392 . S
C1969 C1973 1.495 . S
C1970 C1969 1.392 . S
C1970 C1971 1.385 . S
C1970 C1972 1.478 . S
C1971 H1965 0.930 . S
C1971 C1967 1.400 . S
C1971 C1970 1.385 . S
C1972 C1970 1.478 . S
C1972 C1974 1.381 . S
C1972 C1978 1.383 . S
C1973 C1969 1.495 . S
C1973 H1979 0.959 . S
C1973 H1980 0.961 . S
C1973 H1981 0.960 . S
C1974 C1972 1.381 . S
C1974 C1975 1.394 . S
C1974 H1982 0.930 . S
C1975 C1974 1.394 . S
C1975 C1976 1.383 . S
C1975 H1983 0.929 . S
C1976 C1975 1.383 . S
C1976 C1977 1.377 . S
C1977 H1961 0.930 . S
C1977 C1976 1.377 . S
C1977 C1978 1.379 . S
C1978 H1962 0.931 . S
C1978 C1972 1.383 . S
C1978 C1977 1.379 . S
H1979 C1973 0.959 . S
H1980 C1973 0.961 . S
H1981 C1973 0.960 . S
H1982 C1974 0.930 . S
H1983 C1975 0.929 . S
C553 C141 1.596 . S
C572 C5 1.603 . S
C589 C175 1.593 . S
C608 C39 1.585 . S
C625 C73 1.591 . S
C644 C209 1.577 . S
C661 C243 1.595 . S
C680 C107 1.601 . S
C697 C413 1.591 . S
C716 C277 1.596 . S
C733 C311 1.594 . S
C752 C447 1.577 . S
C769 C345 1.595 . S
C788 C481 1.595 . S
C805 C379 1.594 . S
C824 C515 1.577 . S
C841 C2 1.345 . S
C860 C428 1.354 . S
C877 C36 1.351 . S
C896 C462 1.366 . S
C913 C496 1.365 . S
C932 C70 1.363 . S
C949 C104 1.345 . S
C968 C530 1.358 . S
C985 C292 1.363 . S
C1004 C138 1.353 . S
C1021 C326 1.362 . S
C1040 C172 1.330 . S
C1057 C206 1.350 . S
C1076 C360 1.363 . S
C1093 C394 1.362 . S
C1112 C240 1.327 . S
C1129 C274 1.348 . S
C1148 C156 1.354 . S
C1165 C308 1.351 . S
C1184 C190 1.361 . S
C1201 C224 1.362 . S
C1220 C342 1.345 . S
C1237 C376 1.345 . S
C1256 C258 1.366 . S
C1273 C410 1.344 . S
C1292 C20 1.359 . S
C1309 C444 1.345 . S
C1328 C54 1.358 . S
C1345 C478 1.351 . S
C1364 C88 1.363 . S
C1381 C122 1.365 . S
C1400 C512 1.335 . S
C1417 C247 1.643 . S
C1436 C9 1.639 . S
C1453 C43 1.645 . S
C1472 C145 1.621 . S
C1489 C179 1.638 . S
C1508 C77 1.664 . S
C1525 C213 1.629 . S
C1544 C111 1.638 . S
C1561 C281 1.644 . S
C1580 C519 1.671 . S
C1597 C417 1.630 . S
C1616 C315 1.598 . S
C1633 C349 1.634 . S
C1652 C451 1.621 . S
C1669 C485 1.644 . S
C1688 C383 1.671 . S
C1705 C101 0.505 . S
C1724 C33 0.497 . S
C1741 C135 0.510 . S
C1760 C67 0.493 . S
C1777 C169 0.501 . S
C1796 C237 0.543 . S
C1813 C271 0.510 . S
C1832 C203 0.481 . S
C1849 C305 0.496 . S
C1868 C373 0.493 . S
C1885 C407 0.495 . S
C1904 C339 0.489 . S
C1921 C441 0.511 . S
C1940 C509 0.551 . S
C1957 C475 0.496 . S
C1976 C543 0.495 . S
