# Generated by pormake.
# Topology sml, (6)-cn, num edge types: 1
# Building blocks:
#     Node 0, Type 0, BuildingBlock: BETFAJ_clean_sbu_0, # of connection points: 6
#     Node 1, Type 0, BuildingBlock: BETFAJ_clean_sbu_0, # of connection points: 6
#     Node 2, Type 0, BuildingBlock: BETFAJ_clean_sbu_0, # of connection points: 6
#     Node 3, Type 0, BuildingBlock: BETFAJ_clean_sbu_0, # of connection points: 6
#     Node 4, Type 0, BuildingBlock: BETFAJ_clean_sbu_0, # of connection points: 6
#     Node 5, Type 0, BuildingBlock: BETFAJ_clean_sbu_0, # of connection points: 6
#     Edge 6, Type (0, 0), BuildingBlock: KIFKEQ_clean_linker_1, # of connection points: 2
#     Edge 7, Type (0, 0), BuildingBlock: KIFKEQ_clean_linker_1, # of connection points: 2
#     Edge 8, Type (0, 0), BuildingBlock: KIFKEQ_clean_linker_1, # of connection points: 2
#     Edge 9, Type (0, 0), BuildingBlock: KIFKEQ_clean_linker_1, # of connection points: 2
#     Edge 10, Type (0, 0), BuildingBlock: KIFKEQ_clean_linker_1, # of connection points: 2
#     Edge 11, Type (0, 0), BuildingBlock: KIFKEQ_clean_linker_1, # of connection points: 2
#     Edge 12, Type (0, 0), BuildingBlock: KIFKEQ_clean_linker_1, # of connection points: 2
#     Edge 13, Type (0, 0), BuildingBlock: KIFKEQ_clean_linker_1, # of connection points: 2
#     Edge 14, Type (0, 0), BuildingBlock: KIFKEQ_clean_linker_1, # of connection points: 2
#     Edge 15, Type (0, 0), BuildingBlock: KIFKEQ_clean_linker_1, # of connection points: 2
#     Edge 16, Type (0, 0), BuildingBlock: KIFKEQ_clean_linker_1, # of connection points: 2
#     Edge 17, Type (0, 0), BuildingBlock: KIFKEQ_clean_linker_1, # of connection points: 2
#     Edge 18, Type (0, 0), BuildingBlock: KIFKEQ_clean_linker_1, # of connection points: 2
#     Edge 19, Type (0, 0), BuildingBlock: KIFKEQ_clean_linker_1, # of connection points: 2
#     Edge 20, Type (0, 0), BuildingBlock: KIFKEQ_clean_linker_1, # of connection points: 2
#     Edge 21, Type (0, 0), BuildingBlock: KIFKEQ_clean_linker_1, # of connection points: 2
#     Edge 22, Type (0, 0), BuildingBlock: KIFKEQ_clean_linker_1, # of connection points: 2
#     Edge 23, Type (0, 0), BuildingBlock: KIFKEQ_clean_linker_1, # of connection points: 2
# Relax obj value: 0.185
# Max RMSD: 0.219
# Mean RMSD: 0.219
data_MOF--net-sml--node1-BETFAJ_clean_sbu_0--edge1-KIFKEQ_clean_linker_1
_symmetry_space_group_name_H-M    P1
_symmetry_Int_Tables_number       1
_symmetry_cell_setting            triclinic
loop_
_symmetry_equiv_pos_as_xyz
'x, y, z'
_cell_length_a     32.800574
_cell_length_b     32.819151
_cell_length_c     25.450649
_cell_angle_alpha  89.909991
_cell_angle_beta   90.066318
_cell_angle_gamma 119.849
loop_
_atom_site_label
_atom_site_type_symbol
_atom_site_fract_x
_atom_site_fract_y
_atom_site_fract_z
_atom_type_partial_charge
Sm0 Sm 0.14901 0.41812 0.07605 0.0
Sm1 Sm 0.19311 0.39714 0.1731 0.0
C2 C 0.12919 0.43881 0.98228 0.0
C3 C 0.1377 0.43452 0.92623 0.0
C4 C 0.18279 0.44771 0.90707 0.0
C5 C 0.18962 0.44353 0.85349 0.0
C6 C 0.15146 0.4257 0.8183 0.0
C7 C 0.10644 0.41234 0.8378 0.0
C8 C 0.0997 0.41685 0.89118 0.0
C9 C 0.08477 0.36035 0.14896 0.0
C10 C 0.18458 0.33943 0.06949 0.0
C11 C 0.21798 0.38019 0.26616 0.0
C12 C 0.20855 0.38335 0.32194 0.0
C13 C 0.17332 0.39314 0.33756 0.0
C14 C 0.16625 0.39789 0.39093 0.0
C15 C 0.19425 0.39278 0.42951 0.0
C16 C 0.2289 0.38209 0.41334 0.0
C17 C 0.23604 0.37759 0.36007 0.0
C18 C 0.2551 0.45781 0.09925 0.0
C19 C 0.15515 0.47269 0.18334 0.0
O20 O 0.16505 0.46861 0.01065 0.0
O21 O 0.10151 0.39963 1.00707 0.0
O22 O 0.12137 0.35917 0.13589 0.0
O23 O 0.07927 0.38975 0.1198 0.0
O24 O 0.17798 0.37106 0.04422 0.0
O25 O 0.1843 0.3372 0.12116 0.0
O26 O 0.18315 0.34818 0.23848 0.0
O27 O 0.2418 0.42014 0.24124 0.0
O28 O 0.21878 0.45725 0.11574 0.0
O29 O 0.26161 0.42677 0.12372 0.0
O30 O 0.16185 0.44056 0.20682 0.0
O31 O 0.15527 0.47636 0.13153 0.0
H32 H 0.21269 0.46116 0.93339 0.0
H33 H 0.22463 0.45367 0.83969 0.0
H34 H 0.07646 0.39903 0.81162 0.0
H35 H 0.06468 0.40659 0.90514 0.0
H36 H 0.15167 0.39753 0.3085 0.0
H37 H 0.1395 0.40647 0.40183 0.0
H38 H 0.25044 0.37693 0.44186 0.0
H39 H 0.26324 0.36979 0.34862 0.0
Sm40 Sm 0.84423 0.27239 0.55856 0.0
Sm41 Sm 0.81317 0.20535 0.4619 0.0
C42 C 0.85641 0.31393 0.65124 0.0
C43 C 0.85012 0.30175 0.70739 0.0
C44 C 0.8273 0.25478 0.72406 0.0
C45 C 0.82332 0.24395 0.77772 0.0
C46 C 0.84209 0.27997 0.81565 0.0
C47 C 0.86436 0.32699 0.79846 0.0
C48 C 0.8684 0.33771 0.74487 0.0
C49 C 0.91542 0.28508 0.49224 0.0
C50 C 0.82139 0.16202 0.57088 0.0
C51 C 0.80243 0.1659 0.3683 0.0
C52 C 0.80844 0.17979 0.31242 0.0
C53 C 0.84818 0.2209 0.29444 0.0
C54 C 0.85278 0.23302 0.24109 0.0
C55 C 0.8175 0.20456 0.20494 0.0
C56 C 0.77775 0.16364 0.2233 0.0
C57 C 0.77337 0.15138 0.27643 0.0
C58 C 0.74189 0.195 0.52706 0.0
C59 C 0.83175 0.31361 0.44851 0.0
O60 O 0.81818 0.29896 0.62311 0.0
O61 O 0.88928 0.3097 0.62713 0.0
O62 O 0.88126 0.24584 0.50566 0.0
O63 O 0.91419 0.31916 0.51662 0.0
O64 O 0.82214 0.19885 0.5932 0.0
O65 O 0.82488 0.15909 0.51956 0.0
O66 O 0.8405 0.18085 0.39674 0.0
O67 O 0.76832 0.16727 0.39328 0.0
O68 O 0.77683 0.23346 0.5134 0.0
O69 O 0.74208 0.15986 0.50384 0.0
O70 O 0.83162 0.27708 0.42651 0.0
O71 O 0.83134 0.31827 0.50012 0.0
H72 H 0.81301 0.2266 0.69556 0.0
H73 H 0.80638 0.20738 0.7894 0.0
H74 H 0.87847 0.35562 0.82645 0.0
H75 H 0.88603 0.37419 0.73266 0.0
H76 H 0.87557 0.24372 0.32153 0.0
H77 H 0.88361 0.265 0.22828 0.0
H78 H 0.75025 0.14068 0.19642 0.0
H79 H 0.74248 0.11954 0.28947 0.0
Sm80 Sm 0.57157 0.75075 0.76457 0.0
Sm81 Sm 0.58411 0.81079 0.86542 0.0
C82 C 0.54531 0.70341 0.67491 0.0
C83 C 0.55007 0.71409 0.61803 0.0
C84 C 0.54789 0.7529 0.5983 0.0
C85 C 0.55309 0.76306 0.54454 0.0
C86 C 0.56103 0.73482 0.50916 0.0
C87 C 0.56321 0.69588 0.52909 0.0
C88 C 0.55777 0.68566 0.58298 0.0
C89 C 0.62683 0.74586 0.84321 0.0
C90 C 0.65586 0.85964 0.76449 0.0
C91 C 0.61296 0.85484 0.95647 0.0
C92 C 0.60742 0.84141 0.01292 0.0
C93 C 0.63666 0.82669 0.03683 0.0
C94 C 0.6313 0.81414 0.09001 0.0
C95 C 0.59681 0.81629 0.12078 0.0
C96 C 0.56772 0.83117 0.09687 0.0
C97 C 0.57305 0.84369 0.04369 0.0
C98 C 0.52522 0.81305 0.79061 0.0
C99 C 0.49652 0.70418 0.86397 0.0
O100 O 0.51834 0.71465 0.70199 0.0
O101 O 0.58393 0.7127 0.69981 0.0
O102 O 0.58952 0.74705 0.84869 0.0
O103 O 0.6349 0.74319 0.79373 0.0
O104 O 0.62669 0.82365 0.73505 0.0
O105 O 0.64957 0.86042 0.81581 0.0
O106 O 0.63843 0.84289 0.92761 0.0
O107 O 0.57564 0.84989 0.93179 0.0
O108 O 0.56312 0.81335 0.78182 0.0
O109 O 0.51916 0.81598 0.84065 0.0
O110 O 0.52623 0.73942 0.89381 0.0
O111 O 0.50412 0.70199 0.81307 0.0
H112 H 0.54227 0.77548 0.62438 0.0
H113 H 0.55046 0.79289 0.53071 0.0
H114 H 0.56988 0.6737 0.5032 0.0
H115 H 0.5599 0.65568 0.59735 0.0
H116 H 0.66388 0.82499 0.01456 0.0
H117 H 0.6548 0.80353 0.10722 0.0
H118 H 0.54043 0.83275 0.11914 0.0
H119 H 0.55013 0.85512 0.02667 0.0
Sm120 Sm 0.7287 0.55387 0.21284 0.0
Sm121 Sm 0.79807 0.58956 0.11763 0.0
C122 C 0.68957 0.52533 0.30664 0.0
C123 C 0.70336 0.53257 0.36269 0.0
C124 C 0.74282 0.53067 0.38115 0.0
C125 C 0.75469 0.53741 0.43463 0.0
C126 C 0.72762 0.54657 0.47057 0.0
C127 C 0.68835 0.54865 0.45174 0.0
C128 C 0.67634 0.54161 0.39846 0.0
C129 C 0.71545 0.60999 0.14358 0.0
C130 C 0.8368 0.64523 0.22512 0.0
C131 C 0.84007 0.61618 0.02471 0.0
C132 C 0.8273 0.60867 0.9686 0.0
C133 C 0.78019 0.58686 0.95234 0.0
C134 C 0.7688 0.57938 0.8988 0.0
C135 C 0.80436 0.59371 0.86047 0.0
C136 C 0.85153 0.61587 0.87724 0.0
C137 C 0.86281 0.62315 0.93072 0.0
C138 C 0.80902 0.53242 0.18843 0.0
C139 C 0.68942 0.50033 0.10316 0.0
O140 O 0.70398 0.50184 0.27789 0.0
O141 O 0.69132 0.56115 0.28188 0.0
O142 O 0.75497 0.61615 0.15799 0.0
O143 O 0.68135 0.57557 0.16906 0.0
O144 O 0.80057 0.60883 0.24765 0.0
O145 O 0.84096 0.65005 0.17361 0.0
O146 O 0.82553 0.64051 0.05149 0.0
O147 O 0.83594 0.5799 0.05069 0.0
O148 O 0.7706 0.52693 0.17139 0.0
O149 O 0.84435 0.56818 0.16609 0.0
O150 O 0.72688 0.53601 0.08164 0.0
O151 O 0.68338 0.49537 0.15463 0.0
H152 H 0.76453 0.52409 0.35434 0.0
H153 H 0.78543 0.53606 0.44772 0.0
H154 H 0.6664 0.55503 0.47836 0.0
H155 H 0.64573 0.54314 0.38516 0.0
H156 H 0.75224 0.57545 0.98103 0.0
H157 H 0.7321 0.56175 0.88754 0.0
H158 H 0.87991 0.62815 0.84901 0.0
H159 H 0.89939 0.64021 0.94251 0.0
Sm160 Sm 0.24071 0.81207 0.42866 0.0
Sm161 Sm 0.17227 0.76055 0.5298 0.0
C162 C 0.28953 0.83287 0.34026 0.0
C163 C 0.27791 0.82459 0.28399 0.0
C164 C 0.23112 0.79699 0.26744 0.0
C165 C 0.22017 0.79064 0.21383 0.0
C166 C 0.25579 0.81206 0.17567 0.0
C167 C 0.30269 0.83953 0.19269 0.0
C168 C 0.31359 0.84567 0.24632 0.0
C169 C 0.2406 0.86895 0.50778 0.0
C170 C 0.13174 0.78893 0.42743 0.0
C171 C 0.133 0.74735 0.62359 0.0
C172 C 0.14711 0.75626 0.67973 0.0
C173 C 0.16645 0.80137 0.70188 0.0
C174 C 0.17962 0.80881 0.75494 0.0
C175 C 0.17324 0.77121 0.78728 0.0
C176 C 0.15316 0.72602 0.76515 0.0
C177 C 0.14026 0.71868 0.71216 0.0
C178 C 0.15437 0.69822 0.44779 0.0
C179 C 0.28052 0.77727 0.52933 0.0
O180 O 0.27977 0.7958 0.36877 0.0
O181 O 0.2783 0.86155 0.36341 0.0
O182 O 0.23764 0.8295 0.51315 0.0
O183 O 0.24786 0.88197 0.45877 0.0
O184 O 0.16703 0.79192 0.39917 0.0
O185 O 0.13045 0.78552 0.47941 0.0
O186 O 0.14194 0.78352 0.59356 0.0
O187 O 0.13974 0.71577 0.59971 0.0
O188 O 0.18375 0.74117 0.45018 0.0
O189 O 0.13146 0.6856 0.49198 0.0
O190 O 0.24024 0.76226 0.55459 0.0
O191 O 0.28904 0.79689 0.48192 0.0
H192 H 0.20302 0.78064 0.29599 0.0
H193 H 0.18378 0.76875 0.20233 0.0
H194 H 0.33096 0.85714 0.16459 0.0
H195 H 0.34986 0.8674 0.2584 0.0
H196 H 0.17146 0.83099 0.67833 0.0
H197 H 0.19526 0.84415 0.77043 0.0
H198 H 0.14671 0.69603 0.78897 0.0
H199 H 0.12466 0.68336 0.69656 0.0
Sm200 Sm 0.43293 0.16963 0.86936 0.0
Sm201 Sm 0.40236 0.20337 0.77137 0.0
C202 C 0.46161 0.15745 0.96248 0.0
C203 C 0.45562 0.16423 0.01828 0.0
C204 C 0.43059 0.18646 0.03408 0.0
C205 C 0.42426 0.19154 0.08753 0.0
C206 C 0.44307 0.17462 0.12593 0.0
C207 C 0.46851 0.15276 0.10967 0.0
C208 C 0.47464 0.14757 0.05628 0.0
C209 C 0.37621 0.09953 0.80152 0.0
C210 C 0.34649 0.19443 0.87703 0.0
C211 C 0.37795 0.22016 0.67808 0.0
C212 C 0.38356 0.21313 0.62209 0.0
C213 C 0.38336 0.1726 0.60409 0.0
C214 C 0.38872 0.16698 0.55049 0.0
C215 C 0.39461 0.20188 0.5141 0.0
C216 C 0.39518 0.24253 0.53264 0.0
C217 C 0.3896 0.24799 0.58606 0.0
C218 C 0.46244 0.27193 0.83985 0.0
C219 C 0.48819 0.17945 0.76185 0.0
O220 O 0.48501 0.19557 0.93428 0.0
O221 O 0.42458 0.12466 0.93832 0.0
O222 O 0.37099 0.13398 0.81362 0.0
O223 O 0.41015 0.09971 0.82799 0.0
O224 O 0.38109 0.19247 0.90171 0.0
O225 O 0.34249 0.19174 0.82546 0.0
O226 O 0.35111 0.1827 0.706 0.0
O227 O 0.41592 0.25054 0.70293 0.0
O228 O 0.46508 0.23699 0.82474 0.0
O229 O 0.42746 0.27306 0.81742 0.0
O230 O 0.45221 0.17907 0.73784 0.0
O231 O 0.49294 0.18276 0.81347 0.0
H232 H 0.4159 0.19972 1.00512 0.0
H233 H 0.40496 0.20899 0.09881 0.0
H234 H 0.48293 0.13886 0.13822 0.0
H235 H 0.49395 0.13021 0.04464 0.0
H236 H 0.37896 0.1453 0.63135 0.0
H237 H 0.38768 0.13506 0.53753 0.0
H238 H 0.40053 0.27049 0.50595 0.0
H239 H 0.39018 0.27964 0.59932 0.0
H240 H 0.2696 0.19741 0.84046 0.0
H241 H 0.35122 0.21709 0.98127 0.0
H242 H 0.22311 0.2252 0.88658 0.0
H243 H 0.30517 0.24557 0.02704 0.0
H244 H 0.19589 0.2677 0.10732 0.0
H245 H 0.22808 0.22502 0.06138 0.0
H246 H 0.23787 0.30116 0.91894 0.0
H247 H 0.20491 0.34337 0.96459 0.0
C248 C 0.27737 0.2072 0.88141 0.0
C249 C 0.31442 0.20529 0.90706 0.0
C250 C 0.25084 0.22339 0.90772 0.0
C251 C 0.26067 0.23802 0.96031 0.0
C252 C 0.29634 0.23415 0.98666 0.0
C253 C 0.32289 0.21793 0.96034 0.0
C254 C 0.20429 0.27494 0.066 0.0
C255 C 0.19812 0.30925 0.03973 0.0
C256 C 0.223 0.25061 0.03978 0.0
C257 C 0.23598 0.25998 0.98667 0.0
C258 C 0.22784 0.29276 0.95976 0.0
C259 C 0.20905 0.3171 0.98598 0.0
H260 H 0.09317 0.30326 0.22255 0.0
H261 H 0.0156 0.37419 0.18582 0.0
H262 H 0.05525 0.28204 0.30949 0.0
H263 H 0.97748 0.35233 0.271 0.0
H264 H 0.97254 0.36812 0.44493 0.0
H265 H 0.01468 0.38136 0.36245 0.0
H266 H 0.96871 0.23342 0.35195 0.0
H267 H 0.92685 0.2201 0.43598 0.0
C268 C 0.06796 0.31401 0.23293 0.0
C269 C 0.05815 0.34127 0.19807 0.0
C270 C 0.04607 0.30161 0.28229 0.0
C271 C 0.01422 0.3164 0.29707 0.0
C272 C 0.00269 0.34139 0.26095 0.0
C273 C 0.02435 0.35364 0.21204 0.0
C274 C 0.97188 0.33843 0.42555 0.0
C275 C 0.94554 0.29288 0.4461 0.0
C276 C -0.00417 0.34601 0.37824 0.0
C277 C 0.99413 0.30825 0.35054 0.0
C278 C 0.97033 0.26302 0.37259 0.0
C279 C 0.94611 0.25538 0.4202 0.0
H280 H 0.82628 0.08403 0.54287 0.0
H281 H 0.79116 0.14556 0.67274 0.0
H282 H 0.79739 0.01121 0.59245 0.0
H283 H 0.76111 0.07265 0.72148 0.0
H284 H 0.72269 0.94167 0.81008 0.0
H285 H 0.77413 0.01603 0.76614 0.0
H286 H 0.72079 0.94996 0.61556 0.0
H287 H 0.67077 0.87572 0.6591 0.0
C288 C 0.81291 0.08225 0.58222 0.0
C289 C 0.81062 0.12052 0.60362 0.0
C290 C 0.79613 0.04041 0.61054 0.0
C291 C 0.77636 0.03577 0.66074 0.0
C292 C 0.77655 0.07499 0.68322 0.0
C293 C 0.79362 0.11691 0.65507 0.0
C294 C 0.72261 0.94284 0.76753 0.0
C295 C 0.69215 0.90283 0.73818 0.0
C296 C 0.75192 0.98556 0.74237 0.0
C297 C 0.75127 0.98921 0.68732 0.0
C298 C 0.72272 0.94849 0.65795 0.0
C299 C 0.69367 0.90581 0.68304 0.0
H300 H 0.69598 0.72169 0.8407 0.0
H301 H 0.60829 0.74768 0.94617 0.0
H302 H 0.72369 0.69435 0.91549 0.0
H303 H 0.63594 0.72095 0.01994 0.0
H304 H 0.63191 0.59526 0.10672 0.0
H305 H 0.61764 0.63517 0.03444 0.0
H306 H 0.7671 0.72195 1.00999 0.0
H307 H 0.78161 0.68275 0.08419 0.0
C308 C 0.68344 0.72246 0.87983 0.0
C309 C 0.6496 0.73619 0.88763 0.0
C310 C 0.69935 0.70703 0.92249 0.0
C311 C 0.68138 0.70507 0.97315 0.0
C312 C 0.64979 0.72153 0.98112 0.0
C313 C 0.6341 0.73694 0.93886 0.0
C314 C 0.66181 0.62305 0.08626 0.0
C315 C 0.70788 0.63569 0.1007 0.0
C316 C 0.65362 0.64589 0.04494 0.0
C317 C 0.69131 0.68159 0.01683 0.0
C318 C 0.73752 0.69427 0.03095 0.0
C319 C 0.74576 0.67181 0.07312 0.0
H320 H 0.04956 0.77729 0.46942 0.0
H321 H 0.11839 0.78661 0.32143 0.0
H322 H 0.97628 0.75432 0.42275 0.0
H323 H 0.04529 0.76237 0.27535 0.0
H324 H 0.91308 0.72884 0.19631 0.0
H325 H 0.98391 0.77651 0.24777 0.0
H326 H 0.92149 0.68271 0.37992 0.0
H327 H 0.85042 0.63617 0.3293 0.0
C328 C 0.04931 0.77515 0.42696 0.0
C329 C 0.08968 0.78308 0.39927 0.0
C330 C 0.00724 0.76175 0.40024 0.0
C331 C 0.00469 0.75589 0.34537 0.0
C332 C 0.04593 0.76695 0.31753 0.0
C333 C 0.08794 0.78053 0.34413 0.0
C334 C 0.91417 0.71896 0.23669 0.0
C335 C 0.87641 0.67833 0.25844 0.0
C336 C 0.95482 0.74619 0.26612 0.0
C337 C 0.95869 0.73309 0.31773 0.0
C338 C 0.91966 0.69418 0.34051 0.0
C339 C 0.8789 0.66722 0.31126 0.0
H340 H 0.3863 0.02577 0.77352 0.0
H341 H 0.3061 0.09411 0.73761 0.0
H342 H 0.34582 0.96904 0.70414 0.0
H343 H 0.26553 0.03708 0.66692 0.0
H344 H 0.26157 0.96082 0.50493 0.0
H345 H 0.28797 0.01611 0.57876 0.0
H346 H 0.26564 0.90376 0.68451 0.0
H347 H 0.24035 0.84912 0.6111 0.0
C348 C 0.35974 0.02849 0.75092 0.0
C349 C 0.34947 0.06446 0.76073 0.0
C350 C 0.33638 -0.00418 0.71131 0.0
C351 C 0.3023 -0.00154 0.68036 0.0
C352 C 0.29179 0.03439 0.69013 0.0
C353 C 0.31496 0.06696 0.73041 0.0
C354 C 0.26158 0.94794 0.54415 0.0
C355 C 0.24936 0.90088 0.55234 0.0
C356 C 0.27643 0.97946 0.58635 0.0
C357 C 0.27936 0.96427 0.63719 0.0
C358 C 0.26443 0.91658 0.6456 0.0
C359 C 0.24968 0.88524 0.60361 0.0
H360 H 0.0975 0.35157 0.75381 0.0
H361 H 0.22085 0.48956 0.75419 0.0
H362 H 0.10775 0.34438 0.66012 0.0
H363 H 0.23074 0.4829 0.66018 0.0
H364 H 0.26235 0.43526 0.50483 0.0
H365 H 0.25217 0.44244 0.59828 0.0
H366 H 0.1017 0.37395 0.57631 0.0
H367 H 0.11174 0.36438 0.48314 0.0
C368 C 0.12661 0.38054 0.73371 0.0
C369 C 0.15836 0.42114 0.76138 0.0
C370 C 0.13241 0.37652 0.67993 0.0
C371 C 0.16998 0.41312 0.65238 0.0
C372 C 0.20181 0.45371 0.68019 0.0
C373 C 0.19616 0.45759 0.73408 0.0
C374 C 0.22701 0.42119 0.51995 0.0
C375 C 0.18785 0.39888 0.48636 0.0
C376 C 0.22121 0.42593 0.57355 0.0
C377 C 0.1761 0.40876 0.59502 0.0
C378 C 0.13694 0.38701 0.56133 0.0
C379 C 0.14273 0.38207 0.50769 0.0
H380 H 0.74973 0.20137 0.13961 0.0
H381 H 0.89516 0.23613 0.14198 0.0
H382 H 0.75597 0.21975 0.04617 0.0
H383 H 0.90132 0.25375 0.04819 0.0
H384 H 0.90886 0.32538 0.89178 0.0
H385 H 0.90297 0.3087 0.98551 0.0
H386 H 0.76314 0.19086 0.96269 0.0
H387 H 0.76811 0.2091 0.8693 0.0
C388 C 0.78297 0.2126 0.12002 0.0
C389 C 0.82191 0.21715 0.14821 0.0
C390 C 0.78653 0.22301 0.06635 0.0
C391 C 0.82907 0.23801 0.03935 0.0
C392 C 0.86816 0.24292 0.06772 0.0
C393 C 0.86466 0.23278 0.12153 0.0
C394 C 0.8766 0.29624 0.90679 0.0
C395 C 0.83886 0.26877 0.87285 0.0
C396 C 0.87347 0.28627 0.96056 0.0
C397 C 0.83257 0.24842 0.9819 0.0
C398 C 0.79495 0.22069 0.94788 0.0
C399 C 0.79803 0.23077 0.8941 0.0
H400 H 0.5277 0.67391 0.42549 0.0
H401 H 0.6086 0.8217 0.46284 0.0
H402 H 0.53666 0.69302 0.332 0.0
H403 H 0.61728 0.84072 0.36957 0.0
H404 H 0.57964 0.86016 0.2023 0.0
H405 H 0.57055 0.8395 0.29516 0.0
H406 H 0.59495 0.72438 0.26178 0.0
H407 H 0.60223 0.74394 0.16843 0.0
C408 C 0.54777 0.71045 0.41384 0.0
C409 C 0.56722 0.74624 0.45189 0.0
C410 C 0.55289 0.72141 0.36017 0.0
C411 C 0.5775 0.76844 0.34317 0.0
C412 C 0.59733 0.80417 0.38121 0.0
C413 C 0.59231 0.79322 0.43479 0.0
C414 C 0.58255 0.8301 0.21459 0.0
C415 C 0.59158 0.80369 0.1777 0.0
C416 C 0.57791 0.81859 0.26802 0.0
C417 C 0.58218 0.78036 0.28609 0.0
C418 C 0.59105 0.75381 0.24923 0.0
C419 C 0.59576 0.76537 0.19573 0.0
H420 H 0.73563 0.60135 0.80689 0.0
H421 H 0.84626 0.56798 0.7841 0.0
H422 H 0.71675 0.58873 0.71363 0.0
H423 H 0.82903 0.55779 0.69046 0.0
H424 H 0.75506 0.49676 0.53378 0.0
H425 H 0.77272 0.50705 0.62758 0.0
H426 H 0.74629 0.62356 0.62986 0.0
H427 H 0.72795 0.61267 0.53638 0.0
C428 C 0.7559 0.59122 0.78209 0.0
C429 C 0.79254 0.58576 0.80329 0.0
C430 C 0.74548 0.5846 0.72833 0.0
C431 C 0.77147 0.57243 0.69417 0.0
C432 C 0.80789 0.56667 0.71545 0.0
C433 C 0.81822 0.57315 0.76922 0.0
C434 C 0.75339 0.52479 0.55426 0.0
C435 C 0.73994 0.55378 0.52753 0.0
C436 C 0.76356 0.53076 0.60812 0.0
C437 C 0.76083 0.56608 0.63663 0.0
C438 C 0.74787 0.59538 0.60963 0.0
C439 C 0.73747 0.58923 0.55589 0.0
H440 H 0.16376 0.82919 0.85798 0.0
H441 H 0.21381 0.73021 0.84525 0.0
H442 H 0.18514 0.8404 0.95071 0.0
H443 H 0.23292 0.73958 0.93843 0.0
H444 H 0.30478 0.801 0.09475 0.0
H445 H 0.28668 0.79359 1.00126 0.0
H446 H 0.16095 0.80048 0.03344 0.0
H447 H 0.18032 0.81032 0.12663 0.0
C448 C 0.17945 0.80991 0.87484 0.0
C449 C 0.18694 0.77872 0.84393 0.0
C450 C 0.19115 0.81586 0.9283 0.0
C451 C 0.2106 0.79075 0.95234 0.0
C452 C 0.21847 0.7599 0.9213 0.0
C453 C 0.2069 0.75404 0.86787 0.0
C454 C 0.27355 0.8015 0.08189 0.0
C455 C 0.24409 0.80634 0.11846 0.0
C456 C 0.26283 0.79664 0.02821 0.0
C457 C 0.22228 0.79636 1.00957 0.0
C458 C 0.19278 0.80112 0.04615 0.0
C459 C 0.20356 0.80609 0.09982 0.0
H460 H 0.44505 0.16555 0.46773 0.0
H461 H 0.35734 0.22566 0.43116 0.0
H462 H 0.45547 0.15776 0.37419 0.0
H463 H 0.3697 0.22009 0.33782 0.0
H464 H 0.36222 0.15869 0.17478 0.0
H465 H 0.34959 0.16384 0.26836 0.0
H466 H 0.49495 0.20606 0.299 0.0
H467 H 0.50733 0.20036 0.20549 0.0
C468 C 0.42786 0.17697 0.43978 0.0
C469 C 0.40042 0.19631 0.45704 0.0
C470 C 0.43435 0.17308 0.38611 0.0
C471 C 0.41362 0.18852 0.34841 0.0
C472 C 0.38583 0.20744 0.3657 0.0
C473 C 0.37923 0.21119 0.41931 0.0
C474 C 0.39155 0.16946 0.20148 0.0
C475 C 0.43575 0.17907 0.18274 0.0
C476 C 0.38434 0.17242 0.25514 0.0
C477 C 0.42123 0.18526 0.29129 0.0
C478 C 0.46553 0.19521 0.27242 0.0
C479 C 0.47268 0.19208 0.2188 0.0
H480 H 0.13437 0.46234 0.28744 0.0
H481 H 0.15895 0.55598 0.15668 0.0
H482 H 0.12925 0.51725 0.34633 0.0
H483 H 0.15234 0.61112 0.2162 0.0
H484 H 0.20328 0.71925 0.35554 0.0
H485 H 0.19755 0.66459 0.28702 0.0
H486 H 0.08261 0.551 0.37109 0.0
H487 H 0.08985 0.60557 0.44014 0.0
C488 C 0.13825 0.49456 0.27105 0.0
C489 C 0.14762 0.50497 0.21732 0.0
C490 C 0.13475 0.52595 0.30493 0.0
C491 C 0.14028 0.56868 0.28612 0.0
C492 C 0.14835 0.57868 0.23204 0.0
C493 C 0.15182 0.54701 0.19788 0.0
C494 C 0.17679 0.68268 0.35907 0.0
C495 C 0.14775 0.66649 0.40355 0.0
C496 C 0.17311 0.65136 0.3196 0.0
C497 C 0.14002 0.60319 0.32385 0.0
C498 C 0.10922 0.58765 0.36711 0.0
C499 C 0.11319 0.61891 0.40661 0.0
H500 H 0.73685 0.2655 0.57741 0.0
H501 H 0.66192 0.11507 0.55578 0.0
H502 H 0.67564 0.25859 0.63753 0.0
H503 H 0.59951 0.10848 0.61427 0.0
H504 H 0.47843 0.14254 0.66363 0.0
H505 H 0.53997 0.14368 0.60819 0.0
H506 H 0.64187 0.21475 0.73098 0.0
H507 H 0.58027 0.21275 0.78707 0.0
C508 C 0.70754 0.23096 0.58589 0.0
C509 C 0.70446 0.19077 0.5626 0.0
C510 C 0.6725 0.22706 0.62009 0.0
C511 C 0.63316 0.183 0.63058 0.0
C512 C 0.62961 0.14282 0.6067 0.0
C513 C 0.66523 0.14662 0.57336 0.0
C514 C 0.51389 0.15803 0.67895 0.0
C515 C 0.52464 0.17762 0.72962 0.0
C516 C 0.54893 0.15846 0.64735 0.0
C517 C 0.59548 0.1794 0.66543 0.0
C518 C 0.60618 0.19856 0.71622 0.0
C519 C 0.57095 0.19721 0.74829 0.0
H520 H 0.2512 0.53144 0.05619 0.0
H521 H 0.328 0.45633 0.04889 0.0
H522 H 0.30404 0.58743 0.99116 0.0
H523 H 0.38146 0.51293 0.98381 0.0
H524 H 0.44842 0.6102 0.83844 0.0
H525 H 0.3853 0.54637 0.88977 0.0
H526 H 0.38964 0.64825 1.00016 0.0
H527 H 0.45211 0.7112 0.94973 0.0
C528 C 0.27913 0.52665 0.04025 0.0
C529 C 0.28584 0.48986 0.05787 0.0
C530 C 0.3094 0.55873 1.0031 0.0
C531 C 0.34694 0.55462 0.98262 0.0
C532 C 0.35257 0.51669 0.99865 0.0
C533 C 0.32234 0.48465 0.0362 0.0
C534 C 0.43525 0.61876 0.87325 0.0
C535 C 0.4552 0.66555 0.89024 0.0
C536 C 0.3995 0.58235 0.90274 0.0
C537 C 0.38261 0.59243 0.94889 0.0
C538 C 0.40156 0.63941 0.96453 0.0
C539 C 0.43755 0.67545 0.93576 0.0
H540 H 0.85293 0.40424 0.4709 0.0
H541 H 0.80672 0.30191 0.34559 0.0
H542 H 0.84834 0.46046 0.41048 0.0
H543 H 0.8015 0.35736 0.28652 0.0
H544 H 0.74074 0.44698 0.2219 0.0
H545 H 0.74707 0.39665 0.28847 0.0
H546 H 0.89161 0.50195 0.31659 0.0
H547 H 0.88555 0.55232 0.24906 0.0
C548 C 0.8418 0.39375 0.43071 0.0
C549 C 0.83018 0.34864 0.4131 0.0
C550 C 0.83936 0.42589 0.39624 0.0
C551 C 0.8243 0.41294 0.34411 0.0
C552 C 0.81282 0.36799 0.32666 0.0
C553 C 0.81607 0.33637 0.36056 0.0
C554 C 0.7738 0.45947 0.24243 0.0
C555 C 0.81282 0.50321 0.23004 0.0
C556 C 0.77739 0.43073 0.28045 0.0
C557 C 0.81983 0.44551 0.30742 0.0
C558 C 0.85847 0.48997 0.29641 0.0
C559 C 0.85511 0.51848 0.25761 0.0
H560 H 0.37543 0.83634 0.51873 0.0
H561 H 0.27219 0.71807 0.60845 0.0
H562 H 0.43669 0.84483 0.57994 0.0
H563 H 0.33323 0.72552 0.66842 0.0
H564 H 0.43443 0.79105 0.80401 0.0
H565 H 0.37738 0.78014 0.73623 0.0
H566 H 0.48289 0.81281 0.6167 0.0
H567 H 0.5406 0.82614 0.68549 0.0
C568 C 0.36608 0.81141 0.55063 0.0
C569 C 0.31899 0.7769 0.55915 0.0
C570 C 0.40113 0.81627 0.58579 0.0
C571 C 0.38968 0.78647 0.62977 0.0
C572 C 0.34305 0.74996 0.63592 0.0
C573 C 0.30812 0.74543 0.60124 0.0
C574 C 0.44539 0.79612 0.76329 0.0
C575 C 0.49151 0.80849 0.74964 0.0
C576 C 0.41264 0.78935 0.72432 0.0
C577 C 0.42526 0.79468 0.67084 0.0
C578 C 0.47192 0.80829 0.65741 0.0
C579 C 0.50475 0.81531 0.69658 0.0
H580 H 0.59607 0.43774 0.12272 0.0
H581 H 0.70255 0.48429 1.00185 0.0
H582 H 0.538 0.3814 0.06044 0.0
H583 H 0.64512 0.42836 0.94073 0.0
H584 H 0.54558 0.2829 0.87291 0.0
H585 H 0.59793 0.33658 0.93983 0.0
H586 H 0.50114 0.38749 0.96685 0.0
H587 H 0.44844 0.33363 0.89897 0.0
C588 C 0.60707 0.43583 0.08313 0.0
C589 C 0.65383 0.46538 0.06721 0.0
C590 C 0.57387 0.40395 0.04754 0.0
C591 C 0.5873 0.40064 0.996 0.0
C592 C 0.634 0.43005 0.98035 0.0
C593 C 0.66679 0.4622 0.0154 0.0
C594 C 0.5354 0.30549 0.89315 0.0
C595 C 0.49328 0.30455 0.88056 0.0
C596 C 0.56533 0.33614 0.93138 0.0
C597 C 0.5535 0.3661 0.95828 0.0
C598 C 0.51081 0.36448 0.94672 0.0
C599 C 0.48101 0.33411 0.90772 0.0
loop_
_geom_bond_atom_site_label_1
_geom_bond_atom_site_label_2
_geom_bond_distance
_geom_bond_site_symmetry_2
_ccdc_geom_bond_type
Sm0 C2 2.846 . S
Sm0 O20 2.543 . S
Sm0 O21 2.450 . S
Sm0 O22 2.681 . S
Sm0 O23 2.464 . S
Sm0 O24 2.396 . S
Sm0 O28 2.386 . S
Sm0 O31 2.408 . S
Sm1 C11 2.846 . S
Sm1 O22 2.386 . S
Sm1 O25 2.408 . S
Sm1 O26 2.543 . S
Sm1 O27 2.450 . S
Sm1 O28 2.681 . S
Sm1 O29 2.464 . S
Sm1 O30 2.396 . S
C2 Sm0 2.846 . S
C2 C3 1.523 . S
C2 O20 1.261 . S
C2 O21 1.242 . S
C3 C2 1.523 . S
C3 C4 1.348 1_554 S
C3 C8 1.375 1_554 S
C4 C3 1.348 1_556 S
C4 C5 1.385 . S
C4 H32 0.930 . S
C5 C4 1.385 . S
C5 C6 1.395 . S
C5 H33 0.929 . S
C6 C5 1.395 . S
C6 C7 1.335 . S
C7 C6 1.335 . S
C7 C8 1.398 . S
C7 H34 0.930 . S
C8 C3 1.375 1_556 S
C8 C7 1.398 . S
C8 H35 0.928 1_556 S
C9 O22 1.271 . S
C9 O23 1.251 . S
C10 O24 1.252 . S
C10 O25 1.272 . S
C11 Sm1 2.846 . S
C11 C12 1.506 . S
C11 O26 1.261 . S
C11 O27 1.242 . S
C12 C11 1.506 . S
C12 C13 1.358 . S
C12 C17 1.382 . S
C13 C12 1.358 . S
C13 C14 1.385 . S
C13 H36 0.930 . S
C14 C13 1.385 . S
C14 C15 1.395 . S
C14 H37 0.929 . S
C15 C14 1.395 . S
C15 C16 1.335 . S
C16 C15 1.335 . S
C16 C17 1.398 . S
C16 H38 0.930 . S
C17 C12 1.382 . S
C17 C16 1.398 . S
C17 H39 0.929 . S
C18 O28 1.271 . S
C18 O29 1.251 . S
C19 O30 1.252 . S
C19 O31 1.272 . S
O20 Sm0 2.543 . S
O20 C2 1.261 . S
O21 Sm0 2.450 . S
O21 C2 1.242 . S
O22 Sm0 2.681 . S
O22 Sm1 2.386 . S
O22 C9 1.271 . S
O23 Sm0 2.464 . S
O23 C9 1.251 . S
O24 Sm0 2.396 . S
O24 C10 1.252 . S
O25 Sm1 2.408 . S
O25 C10 1.272 . S
O26 Sm1 2.543 . S
O26 C11 1.261 . S
O27 Sm1 2.450 . S
O27 C11 1.242 . S
O28 Sm0 2.386 . S
O28 Sm1 2.681 . S
O28 C18 1.271 . S
O29 Sm1 2.464 . S
O29 C18 1.251 . S
O30 Sm1 2.396 . S
O30 C19 1.252 . S
O31 Sm0 2.408 . S
O31 C19 1.272 . S
H32 C4 0.930 . S
H33 C5 0.929 . S
H34 C7 0.930 . S
H35 C8 0.928 1_554 S
H36 C13 0.930 . S
H37 C14 0.929 . S
H38 C16 0.930 . S
H39 C17 0.929 . S
Sm40 C42 2.846 . S
Sm40 O60 2.543 . S
Sm40 O61 2.450 . S
Sm40 O62 2.681 . S
Sm40 O63 2.464 . S
Sm40 O64 2.396 . S
Sm40 O68 2.386 . S
Sm40 O71 2.408 . S
Sm41 C51 2.846 . S
Sm41 O62 2.386 . S
Sm41 O65 2.408 . S
Sm41 O66 2.543 . S
Sm41 O67 2.450 . S
Sm41 O68 2.681 . S
Sm41 O69 2.464 . S
Sm41 O70 2.396 . S
C42 Sm40 2.846 . S
C42 C43 1.506 . S
C42 O60 1.261 . S
C42 O61 1.242 . S
C43 C42 1.506 . S
C43 C44 1.358 . S
C43 C48 1.382 . S
C44 C43 1.358 . S
C44 C45 1.385 . S
C44 H72 0.930 . S
C45 C44 1.385 . S
C45 C46 1.395 . S
C45 H73 0.929 . S
C46 C45 1.395 . S
C46 C47 1.335 . S
C47 C46 1.335 . S
C47 C48 1.398 . S
C47 H74 0.930 . S
C48 C43 1.382 . S
C48 C47 1.398 . S
C48 H75 0.929 . S
C49 O62 1.271 . S
C49 O63 1.251 . S
C50 O64 1.252 . S
C50 O65 1.272 . S
C51 Sm41 2.846 . S
C51 C52 1.506 . S
C51 O66 1.261 . S
C51 O67 1.242 . S
C52 C51 1.506 . S
C52 C53 1.358 . S
C52 C57 1.382 . S
C53 C52 1.358 . S
C53 C54 1.385 . S
C53 H76 0.930 . S
C54 C53 1.385 . S
C54 C55 1.395 . S
C54 H77 0.929 . S
C55 C54 1.395 . S
C55 C56 1.335 . S
C56 C55 1.335 . S
C56 C57 1.398 . S
C56 H78 0.930 . S
C57 C52 1.382 . S
C57 C56 1.398 . S
C57 H79 0.929 . S
C58 O68 1.271 . S
C58 O69 1.251 . S
C59 O70 1.252 . S
C59 O71 1.272 . S
O60 Sm40 2.543 . S
O60 C42 1.261 . S
O61 Sm40 2.450 . S
O61 C42 1.242 . S
O62 Sm40 2.681 . S
O62 Sm41 2.386 . S
O62 C49 1.271 . S
O63 Sm40 2.464 . S
O63 C49 1.251 . S
O64 Sm40 2.396 . S
O64 C50 1.252 . S
O65 Sm41 2.408 . S
O65 C50 1.272 . S
O66 Sm41 2.543 . S
O66 C51 1.261 . S
O67 Sm41 2.450 . S
O67 C51 1.242 . S
O68 Sm40 2.386 . S
O68 Sm41 2.681 . S
O68 C58 1.271 . S
O69 Sm41 2.464 . S
O69 C58 1.251 . S
O70 Sm41 2.396 . S
O70 C59 1.252 . S
O71 Sm40 2.408 . S
O71 C59 1.272 . S
H72 C44 0.930 . S
H73 C45 0.929 . S
H74 C47 0.930 . S
H75 C48 0.929 . S
H76 C53 0.930 . S
H77 C54 0.929 . S
H78 C56 0.930 . S
H79 C57 0.929 . S
Sm80 C82 2.846 . S
Sm80 O100 2.543 . S
Sm80 O101 2.450 . S
Sm80 O102 2.681 . S
Sm80 O103 2.464 . S
Sm80 O104 2.396 . S
Sm80 O108 2.386 . S
Sm80 O111 2.408 . S
Sm81 C91 2.846 1_556 S
Sm81 O102 2.386 . S
Sm81 O105 2.408 . S
Sm81 O106 2.543 1_556 S
Sm81 O107 2.450 1_556 S
Sm81 O108 2.681 . S
Sm81 O109 2.464 . S
Sm81 O110 2.396 . S
C82 Sm80 2.846 . S
C82 C83 1.506 . S
C82 O100 1.261 . S
C82 O101 1.242 . S
C83 C82 1.506 . S
C83 C84 1.358 . S
C83 C88 1.382 . S
C84 C83 1.358 . S
C84 C85 1.385 . S
C84 H112 0.930 . S
C85 C84 1.385 . S
C85 C86 1.395 . S
C85 H113 0.929 . S
C86 C85 1.395 . S
C86 C87 1.335 . S
C87 C86 1.335 . S
C87 C88 1.398 . S
C87 H114 0.930 . S
C88 C83 1.382 . S
C88 C87 1.398 . S
C88 H115 0.929 . S
C89 O102 1.271 . S
C89 O103 1.251 . S
C90 O104 1.252 . S
C90 O105 1.272 . S
C91 Sm81 2.846 1_554 S
C91 C92 1.506 . S
C91 O106 1.261 . S
C91 O107 1.242 . S
C92 C91 1.506 . S
C92 C93 1.358 . S
C92 C97 1.382 . S
C93 C92 1.358 . S
C93 C94 1.385 . S
C93 H116 0.930 . S
C94 C93 1.385 . S
C94 C95 1.395 . S
C94 H117 0.929 . S
C95 C94 1.395 . S
C95 C96 1.335 . S
C96 C95 1.335 . S
C96 C97 1.398 . S
C96 H118 0.930 . S
C97 C92 1.382 . S
C97 C96 1.398 . S
C97 H119 0.929 . S
C98 O108 1.271 . S
C98 O109 1.251 . S
C99 O110 1.252 . S
C99 O111 1.272 . S
O100 Sm80 2.543 . S
O100 C82 1.261 . S
O101 Sm80 2.450 . S
O101 C82 1.242 . S
O102 Sm80 2.681 . S
O102 Sm81 2.386 . S
O102 C89 1.271 . S
O103 Sm80 2.464 . S
O103 C89 1.251 . S
O104 Sm80 2.396 . S
O104 C90 1.252 . S
O105 Sm81 2.408 . S
O105 C90 1.272 . S
O106 Sm81 2.543 1_554 S
O106 C91 1.261 . S
O107 Sm81 2.450 1_554 S
O107 C91 1.242 . S
O108 Sm80 2.386 . S
O108 Sm81 2.681 . S
O108 C98 1.271 . S
O109 Sm81 2.464 . S
O109 C98 1.251 . S
O110 Sm81 2.396 . S
O110 C99 1.252 . S
O111 Sm80 2.408 . S
O111 C99 1.272 . S
H112 C84 0.930 . S
H113 C85 0.929 . S
H114 C87 0.930 . S
H115 C88 0.929 . S
H116 C93 0.930 . S
H117 C94 0.929 . S
H118 C96 0.930 . S
H119 C97 0.929 . S
Sm120 C122 2.846 . S
Sm120 O140 2.543 . S
Sm120 O141 2.450 . S
Sm120 O142 2.681 . S
Sm120 O143 2.464 . S
Sm120 O144 2.396 . S
Sm120 O148 2.386 . S
Sm120 O151 2.408 . S
Sm121 C131 2.846 1_554 S
Sm121 O142 2.386 . S
Sm121 O145 2.408 . S
Sm121 O146 2.543 1_554 S
Sm121 O147 2.450 1_554 S
Sm121 O148 2.681 . S
Sm121 O149 2.464 . S
Sm121 O150 2.396 1_554 S
C122 Sm120 2.846 . S
C122 C123 1.506 . S
C122 O140 1.261 . S
C122 O141 1.242 . S
C123 C122 1.506 . S
C123 C124 1.358 . S
C123 C128 1.382 . S
C124 C123 1.358 . S
C124 C125 1.385 . S
C124 H152 0.930 . S
C125 C124 1.385 . S
C125 C126 1.395 . S
C125 H153 0.929 . S
C126 C125 1.395 . S
C126 C127 1.335 . S
C127 C126 1.335 . S
C127 C128 1.398 . S
C127 H154 0.930 . S
C128 C123 1.382 . S
C128 C127 1.398 . S
C128 H155 0.929 . S
C129 O142 1.271 . S
C129 O143 1.251 . S
C130 O144 1.252 . S
C130 O145 1.272 . S
C131 Sm121 2.846 1_556 S
C131 C132 1.506 . S
C131 O146 1.261 . S
C131 O147 1.242 . S
C132 C131 1.506 . S
C132 C133 1.358 . S
C132 C137 1.382 . S
C133 C132 1.358 . S
C133 C134 1.385 . S
C133 H156 0.930 . S
C134 C133 1.385 . S
C134 C135 1.395 . S
C134 H157 0.929 . S
C135 C134 1.395 . S
C135 C136 1.335 . S
C136 C135 1.335 . S
C136 C137 1.398 . S
C136 H158 0.930 . S
C137 C132 1.382 . S
C137 C136 1.398 . S
C137 H159 0.929 . S
C138 O148 1.271 . S
C138 O149 1.251 . S
C139 O150 1.252 . S
C139 O151 1.272 1_556 S
O140 Sm120 2.543 . S
O140 C122 1.261 . S
O141 Sm120 2.450 . S
O141 C122 1.242 . S
O142 Sm120 2.681 . S
O142 Sm121 2.386 . S
O142 C129 1.271 . S
O143 Sm120 2.464 . S
O143 C129 1.251 . S
O144 Sm120 2.396 . S
O144 C130 1.252 . S
O145 Sm121 2.408 . S
O145 C130 1.272 . S
O146 Sm121 2.543 1_556 S
O146 C131 1.261 . S
O147 Sm121 2.450 1_556 S
O147 C131 1.242 . S
O148 Sm120 2.386 . S
O148 Sm121 2.681 . S
O148 C138 1.271 . S
O149 Sm121 2.464 . S
O149 C138 1.251 . S
O150 Sm121 2.396 1_556 S
O150 C139 1.252 . S
O151 Sm120 2.408 . S
O151 C139 1.272 1_554 S
H152 C124 0.930 . S
H153 C125 0.929 . S
H154 C127 0.930 . S
H155 C128 0.929 . S
H156 C133 0.930 . S
H157 C134 0.929 . S
H158 C136 0.930 . S
H159 C137 0.929 . S
Sm160 C162 2.846 . S
Sm160 O180 2.543 . S
Sm160 O181 2.450 . S
Sm160 O182 2.681 . S
Sm160 O183 2.464 . S
Sm160 O184 2.396 . S
Sm160 O188 2.386 . S
Sm160 O191 2.408 . S
Sm161 C171 2.846 . S
Sm161 O182 2.386 . S
Sm161 O185 2.408 . S
Sm161 O186 2.543 . S
Sm161 O187 2.450 . S
Sm161 O188 2.681 . S
Sm161 O189 2.464 . S
Sm161 O190 2.396 . S
C162 Sm160 2.846 . S
C162 C163 1.506 . S
C162 O180 1.261 . S
C162 O181 1.242 . S
C163 C162 1.506 . S
C163 C164 1.358 . S
C163 C168 1.382 . S
C164 C163 1.358 . S
C164 C165 1.385 . S
C164 H192 0.930 . S
C165 C164 1.385 . S
C165 C166 1.395 . S
C165 H193 0.929 . S
C166 C165 1.395 . S
C166 C167 1.335 . S
C167 C166 1.335 . S
C167 C168 1.398 . S
C167 H194 0.930 . S
C168 C163 1.382 . S
C168 C167 1.398 . S
C168 H195 0.929 . S
C169 O182 1.271 . S
C169 O183 1.251 . S
C170 O184 1.252 . S
C170 O185 1.272 . S
C171 Sm161 2.846 . S
C171 C172 1.506 . S
C171 O186 1.261 . S
C171 O187 1.242 . S
C172 C171 1.506 . S
C172 C173 1.358 . S
C172 C177 1.382 . S
C173 C172 1.358 . S
C173 C174 1.385 . S
C173 H196 0.930 . S
C174 C173 1.385 . S
C174 C175 1.395 . S
C174 H197 0.929 . S
C175 C174 1.395 . S
C175 C176 1.335 . S
C176 C175 1.335 . S
C176 C177 1.398 . S
C176 H198 0.930 . S
C177 C172 1.382 . S
C177 C176 1.398 . S
C177 H199 0.929 . S
C178 O188 1.271 . S
C178 O189 1.251 . S
C179 O190 1.252 . S
C179 O191 1.272 . S
O180 Sm160 2.543 . S
O180 C162 1.261 . S
O181 Sm160 2.450 . S
O181 C162 1.242 . S
O182 Sm160 2.681 . S
O182 Sm161 2.386 . S
O182 C169 1.271 . S
O183 Sm160 2.464 . S
O183 C169 1.251 . S
O184 Sm160 2.396 . S
O184 C170 1.252 . S
O185 Sm161 2.408 . S
O185 C170 1.272 . S
O186 Sm161 2.543 . S
O186 C171 1.261 . S
O187 Sm161 2.450 . S
O187 C171 1.242 . S
O188 Sm160 2.386 . S
O188 Sm161 2.681 . S
O188 C178 1.271 . S
O189 Sm161 2.464 . S
O189 C178 1.251 . S
O190 Sm161 2.396 . S
O190 C179 1.252 . S
O191 Sm160 2.408 . S
O191 C179 1.272 . S
H192 C164 0.930 . S
H193 C165 0.929 . S
H194 C167 0.930 . S
H195 C168 0.929 . S
H196 C173 0.930 . S
H197 C174 0.929 . S
H198 C176 0.930 . S
H199 C177 0.929 . S
Sm200 C202 2.846 . S
Sm200 O220 2.543 . S
Sm200 O221 2.450 . S
Sm200 O222 2.681 . S
Sm200 O223 2.464 . S
Sm200 O224 2.396 . S
Sm200 O228 2.386 . S
Sm200 O231 2.408 . S
Sm201 C211 2.846 . S
Sm201 O222 2.386 . S
Sm201 O225 2.408 . S
Sm201 O226 2.543 . S
Sm201 O227 2.450 . S
Sm201 O228 2.681 . S
Sm201 O229 2.464 . S
Sm201 O230 2.396 . S
C202 Sm200 2.846 . S
C202 C203 1.506 . S
C202 O220 1.261 . S
C202 O221 1.242 . S
C203 C202 1.506 . S
C203 C204 1.358 . S
C203 C208 1.382 . S
C204 C203 1.358 . S
C204 C205 1.385 1_556 S
C204 H232 0.930 . S
C205 C204 1.385 1_554 S
C205 C206 1.395 . S
C205 H233 0.929 . S
C206 C205 1.395 . S
C206 C207 1.335 . S
C207 C206 1.335 . S
C207 C208 1.398 1_554 S
C207 H234 0.930 . S
C208 C203 1.382 . S
C208 C207 1.398 1_556 S
C208 H235 0.929 . S
C209 O222 1.271 . S
C209 O223 1.251 . S
C210 O224 1.252 . S
C210 O225 1.272 . S
C211 Sm201 2.846 . S
C211 C212 1.506 . S
C211 O226 1.261 . S
C211 O227 1.242 . S
C212 C211 1.506 . S
C212 C213 1.358 . S
C212 C217 1.382 . S
C213 C212 1.358 . S
C213 C214 1.385 . S
C213 H236 0.930 . S
C214 C213 1.385 . S
C214 C215 1.395 . S
C214 H237 0.929 . S
C215 C214 1.395 . S
C215 C216 1.335 . S
C216 C215 1.335 . S
C216 C217 1.398 . S
C216 H238 0.930 . S
C217 C212 1.382 . S
C217 C216 1.398 . S
C217 H239 0.929 . S
C218 O228 1.271 . S
C218 O229 1.251 . S
C219 O230 1.252 . S
C219 O231 1.272 . S
O220 Sm200 2.543 . S
O220 C202 1.261 . S
O221 Sm200 2.450 . S
O221 C202 1.242 . S
O222 Sm200 2.681 . S
O222 Sm201 2.386 . S
O222 C209 1.271 . S
O223 Sm200 2.464 . S
O223 C209 1.251 . S
O224 Sm200 2.396 . S
O224 C210 1.252 . S
O225 Sm201 2.408 . S
O225 C210 1.272 . S
O226 Sm201 2.543 . S
O226 C211 1.261 . S
O227 Sm201 2.450 . S
O227 C211 1.242 . S
O228 Sm200 2.386 . S
O228 Sm201 2.681 . S
O228 C218 1.271 . S
O229 Sm201 2.464 . S
O229 C218 1.251 . S
O230 Sm201 2.396 . S
O230 C219 1.252 . S
O231 Sm200 2.408 . S
O231 C219 1.272 . S
H232 C204 0.930 . S
H233 C205 0.929 . S
H234 C207 0.930 . S
H235 C208 0.929 . S
H236 C213 0.930 . S
H237 C214 0.929 . S
H238 C216 0.930 . S
H239 C217 0.929 . S
H240 C248 0.950 . S
H241 C253 0.950 . S
H242 C250 0.950 . S
H243 C252 0.950 . S
H244 C254 0.950 . S
H245 C256 0.950 . S
H246 C258 0.950 1_556 S
H247 C259 0.950 . S
C248 H240 0.950 . S
C248 C249 1.386 . S
C248 C250 1.391 . S
C249 C248 1.386 . S
C249 C253 1.393 . S
C250 H242 0.950 . S
C250 C248 1.391 . S
C250 C251 1.400 . S
C251 C250 1.400 . S
C251 C252 1.398 . S
C251 C257 1.491 1_556 S
C252 H243 0.950 . S
C252 C251 1.398 . S
C252 C253 1.391 . S
C253 H241 0.950 . S
C253 C249 1.393 . S
C253 C252 1.391 . S
C254 H244 0.950 . S
C254 C255 1.386 . S
C254 C256 1.391 . S
C255 C254 1.386 . S
C255 C259 1.393 . S
C256 H245 0.950 . S
C256 C254 1.391 . S
C256 C257 1.400 . S
C257 C251 1.491 1_554 S
C257 C256 1.400 . S
C257 C258 1.398 . S
C258 H246 0.950 1_554 S
C258 C257 1.398 . S
C258 C259 1.391 . S
C259 H247 0.950 . S
C259 C255 1.393 . S
C259 C258 1.391 . S
H260 C268 0.950 . S
H261 C273 0.950 . S
H262 C270 0.950 . S
H263 C272 0.950 . S
H264 C274 0.950 . S
H265 C276 0.950 . S
H266 C278 0.950 . S
H267 C279 0.950 . S
C268 H260 0.950 . S
C268 C269 1.386 . S
C268 C270 1.391 . S
C269 C268 1.386 . S
C269 C273 1.393 . S
C270 H262 0.950 . S
C270 C268 1.391 . S
C270 C271 1.400 . S
C271 C270 1.400 . S
C271 C272 1.398 . S
C271 C277 1.491 1_455 S
C272 H263 0.950 . S
C272 C271 1.398 . S
C272 C273 1.391 . S
C273 H261 0.950 . S
C273 C269 1.393 . S
C273 C272 1.391 . S
C274 H264 0.950 . S
C274 C275 1.386 . S
C274 C276 1.391 . S
C275 C274 1.386 . S
C275 C279 1.393 . S
C276 H265 0.950 . S
C276 C274 1.391 . S
C276 C277 1.400 . S
C277 C271 1.491 1_655 S
C277 C276 1.400 . S
C277 C278 1.398 . S
C278 H266 0.950 . S
C278 C277 1.398 . S
C278 C279 1.391 . S
C279 H267 0.950 . S
C279 C275 1.393 . S
C279 C278 1.391 . S
H280 C288 0.950 . S
H281 C293 0.950 . S
H282 C290 0.950 . S
H283 C292 0.950 . S
H284 C294 0.950 . S
H285 C296 0.950 . S
H286 C298 0.950 . S
H287 C299 0.950 . S
C288 H280 0.950 . S
C288 C289 1.386 . S
C288 C290 1.391 . S
C289 C288 1.386 . S
C289 C293 1.393 . S
C290 H282 0.950 . S
C290 C288 1.391 . S
C290 C291 1.400 . S
C291 C290 1.400 . S
C291 C292 1.398 . S
C291 C297 1.491 1_545 S
C292 H283 0.950 . S
C292 C291 1.398 . S
C292 C293 1.391 . S
C293 H281 0.950 . S
C293 C289 1.393 . S
C293 C292 1.391 . S
C294 H284 0.950 . S
C294 C295 1.386 . S
C294 C296 1.391 . S
C295 C294 1.386 . S
C295 C299 1.393 . S
C296 H285 0.950 . S
C296 C294 1.391 . S
C296 C297 1.400 . S
C297 C291 1.491 1_565 S
C297 C296 1.400 . S
C297 C298 1.398 . S
C298 H286 0.950 . S
C298 C297 1.398 . S
C298 C299 1.391 . S
C299 H287 0.950 . S
C299 C295 1.393 . S
C299 C298 1.391 . S
H300 C308 0.950 . S
H301 C313 0.950 . S
H302 C310 0.950 . S
H303 C312 0.950 1_554 S
H304 C314 0.950 . S
H305 C316 0.950 . S
H306 C318 0.950 . S
H307 C319 0.950 . S
C308 H300 0.950 . S
C308 C309 1.386 . S
C308 C310 1.391 . S
C309 C308 1.386 . S
C309 C313 1.393 . S
C310 H302 0.950 . S
C310 C308 1.391 . S
C310 C311 1.400 . S
C311 C310 1.400 . S
C311 C312 1.398 . S
C311 C317 1.491 . S
C312 H303 0.950 1_556 S
C312 C311 1.398 . S
C312 C313 1.391 . S
C313 H301 0.950 . S
C313 C309 1.393 . S
C313 C312 1.391 . S
C314 H304 0.950 . S
C314 C315 1.386 . S
C314 C316 1.391 . S
C315 C314 1.386 . S
C315 C319 1.393 1_554 S
C316 H305 0.950 . S
C316 C314 1.391 . S
C316 C317 1.400 1_554 S
C317 C311 1.491 . S
C317 C316 1.400 1_556 S
C317 C318 1.398 . S
C318 H306 0.950 . S
C318 C317 1.398 . S
C318 C319 1.391 . S
C319 H307 0.950 . S
C319 C315 1.393 1_556 S
C319 C318 1.391 . S
H320 C328 0.950 . S
H321 C333 0.950 . S
H322 C330 0.950 . S
H323 C332 0.950 . S
H324 C334 0.950 . S
H325 C336 0.950 . S
H326 C338 0.950 . S
H327 C339 0.950 . S
C328 H320 0.950 . S
C328 C329 1.386 . S
C328 C330 1.391 1_455 S
C329 C328 1.386 . S
C329 C333 1.393 . S
C330 H322 0.950 . S
C330 C328 1.391 1_655 S
C330 C331 1.400 1_655 S
C331 C330 1.400 1_455 S
C331 C332 1.398 . S
C331 C337 1.491 1_455 S
C332 H323 0.950 . S
C332 C331 1.398 . S
C332 C333 1.391 . S
C333 H321 0.950 . S
C333 C329 1.393 . S
C333 C332 1.391 . S
C334 H324 0.950 . S
C334 C335 1.386 . S
C334 C336 1.391 1_655 S
C335 C334 1.386 . S
C335 C339 1.393 . S
C336 H325 0.950 . S
C336 C334 1.391 1_455 S
C336 C337 1.400 1_455 S
C337 C331 1.491 1_655 S
C337 C336 1.400 1_655 S
C337 C338 1.398 . S
C338 H326 0.950 . S
C338 C337 1.398 . S
C338 C339 1.391 . S
C339 H327 0.950 . S
C339 C335 1.393 . S
C339 C338 1.391 . S
H340 C348 0.950 . S
H341 C353 0.950 . S
H342 C350 0.950 . S
H343 C352 0.950 . S
H344 C354 0.950 . S
H345 C356 0.950 . S
H346 C358 0.950 . S
H347 C359 0.950 . S
C348 H340 0.950 . S
C348 C349 1.386 . S
C348 C350 1.391 . S
C349 C348 1.386 . S
C349 C353 1.393 . S
C350 H342 0.950 . S
C350 C348 1.391 . S
C350 C351 1.400 . S
C351 C350 1.400 . S
C351 C352 1.398 . S
C351 C357 1.491 1_545 S
C352 H343 0.950 . S
C352 C351 1.398 . S
C352 C353 1.391 . S
C353 H341 0.950 . S
C353 C349 1.393 . S
C353 C352 1.391 . S
C354 H344 0.950 . S
C354 C355 1.386 . S
C354 C356 1.391 . S
C355 C354 1.386 . S
C355 C359 1.393 . S
C356 H345 0.950 . S
C356 C354 1.391 . S
C356 C357 1.400 . S
C357 C351 1.491 1_565 S
C357 C356 1.400 . S
C357 C358 1.398 . S
C358 H346 0.950 . S
C358 C357 1.398 . S
C358 C359 1.391 . S
C359 H347 0.950 . S
C359 C355 1.393 . S
C359 C358 1.391 . S
H360 C368 0.950 . S
H361 C373 0.950 . S
H362 C370 0.950 . S
H363 C372 0.950 . S
H364 C374 0.950 . S
H365 C376 0.950 . S
H366 C378 0.950 . S
H367 C379 0.950 . S
C368 H360 0.950 . S
C368 C369 1.386 . S
C368 C370 1.391 . S
C369 C368 1.386 . S
C369 C373 1.393 . S
C370 H362 0.950 . S
C370 C368 1.391 . S
C370 C371 1.400 . S
C371 C370 1.400 . S
C371 C372 1.398 . S
C371 C377 1.491 . S
C372 H363 0.950 . S
C372 C371 1.398 . S
C372 C373 1.391 . S
C373 H361 0.950 . S
C373 C369 1.393 . S
C373 C372 1.391 . S
C374 H364 0.950 . S
C374 C375 1.386 . S
C374 C376 1.391 . S
C375 C374 1.386 . S
C375 C379 1.393 . S
C376 H365 0.950 . S
C376 C374 1.391 . S
C376 C377 1.400 . S
C377 C371 1.491 . S
C377 C376 1.400 . S
C377 C378 1.398 . S
C378 H366 0.950 . S
C378 C377 1.398 . S
C378 C379 1.391 . S
C379 H367 0.950 . S
C379 C375 1.393 . S
C379 C378 1.391 . S
H380 C388 0.950 . S
H381 C393 0.950 . S
H382 C390 0.950 . S
H383 C392 0.950 . S
H384 C394 0.950 . S
H385 C396 0.950 . S
H386 C398 0.950 . S
H387 C399 0.950 . S
C388 H380 0.950 . S
C388 C389 1.386 1_556 S
C388 C390 1.391 . S
C389 C388 1.386 1_554 S
C389 C393 1.393 . S
C390 H382 0.950 . S
C390 C388 1.391 . S
C390 C391 1.400 . S
C391 C390 1.400 . S
C391 C392 1.398 . S
C391 C397 1.491 . S
C392 H383 0.950 . S
C392 C391 1.398 . S
C392 C393 1.391 1_556 S
C393 H381 0.950 . S
C393 C389 1.393 . S
C393 C392 1.391 1_554 S
C394 H384 0.950 . S
C394 C395 1.386 . S
C394 C396 1.391 . S
C395 C394 1.386 . S
C395 C399 1.393 . S
C396 H385 0.950 . S
C396 C394 1.391 . S
C396 C397 1.400 . S
C397 C391 1.491 . S
C397 C396 1.400 . S
C397 C398 1.398 . S
C398 H386 0.950 . S
C398 C397 1.398 . S
C398 C399 1.391 . S
C399 H387 0.950 . S
C399 C395 1.393 . S
C399 C398 1.391 . S
H400 C408 0.950 . S
H401 C413 0.950 . S
H402 C410 0.950 . S
H403 C412 0.950 . S
H404 C414 0.950 . S
H405 C416 0.950 . S
H406 C418 0.950 . S
H407 C419 0.950 . S
C408 H400 0.950 . S
C408 C409 1.386 . S
C408 C410 1.391 . S
C409 C408 1.386 . S
C409 C413 1.393 . S
C410 H402 0.950 . S
C410 C408 1.391 . S
C410 C411 1.400 . S
C411 C410 1.400 . S
C411 C412 1.398 . S
C411 C417 1.491 . S
C412 H403 0.950 . S
C412 C411 1.398 . S
C412 C413 1.391 . S
C413 H401 0.950 . S
C413 C409 1.393 . S
C413 C412 1.391 . S
C414 H404 0.950 . S
C414 C415 1.386 . S
C414 C416 1.391 . S
C415 C414 1.386 . S
C415 C419 1.393 . S
C416 H405 0.950 . S
C416 C414 1.391 . S
C416 C417 1.400 . S
C417 C411 1.491 . S
C417 C416 1.400 . S
C417 C418 1.398 . S
C418 H406 0.950 . S
C418 C417 1.398 . S
C418 C419 1.391 . S
C419 H407 0.950 . S
C419 C415 1.393 . S
C419 C418 1.391 . S
H420 C428 0.950 . S
H421 C433 0.950 . S
H422 C430 0.950 . S
H423 C432 0.950 . S
H424 C434 0.950 . S
H425 C436 0.950 . S
H426 C438 0.950 . S
H427 C439 0.950 . S
C428 H420 0.950 . S
C428 C429 1.386 . S
C428 C430 1.391 . S
C429 C428 1.386 . S
C429 C433 1.393 . S
C430 H422 0.950 . S
C430 C428 1.391 . S
C430 C431 1.400 . S
C431 C430 1.400 . S
C431 C432 1.398 . S
C431 C437 1.491 . S
C432 H423 0.950 . S
C432 C431 1.398 . S
C432 C433 1.391 . S
C433 H421 0.950 . S
C433 C429 1.393 . S
C433 C432 1.391 . S
C434 H424 0.950 . S
C434 C435 1.386 . S
C434 C436 1.391 . S
C435 C434 1.386 . S
C435 C439 1.393 . S
C436 H425 0.950 . S
C436 C434 1.391 . S
C436 C437 1.400 . S
C437 C431 1.491 . S
C437 C436 1.400 . S
C437 C438 1.398 . S
C438 H426 0.950 . S
C438 C437 1.398 . S
C438 C439 1.391 . S
C439 H427 0.950 . S
C439 C435 1.393 . S
C439 C438 1.391 . S
H440 C448 0.950 . S
H441 C453 0.950 . S
H442 C450 0.950 . S
H443 C452 0.950 . S
H444 C454 0.950 . S
H445 C456 0.950 . S
H446 C458 0.950 . S
H447 C459 0.950 . S
C448 H440 0.950 . S
C448 C449 1.386 . S
C448 C450 1.391 1_556 S
C449 C448 1.386 . S
C449 C453 1.393 . S
C450 H442 0.950 . S
C450 C448 1.391 1_554 S
C450 C451 1.400 . S
C451 C450 1.400 . S
C451 C452 1.398 . S
C451 C457 1.491 . S
C452 H443 0.950 . S
C452 C451 1.398 . S
C452 C453 1.391 1_554 S
C453 H441 0.950 . S
C453 C449 1.393 . S
C453 C452 1.391 1_556 S
C454 H444 0.950 . S
C454 C455 1.386 . S
C454 C456 1.391 . S
C455 C454 1.386 . S
C455 C459 1.393 . S
C456 H445 0.950 . S
C456 C454 1.391 . S
C456 C457 1.400 . S
C457 C451 1.491 . S
C457 C456 1.400 . S
C457 C458 1.398 . S
C458 H446 0.950 . S
C458 C457 1.398 . S
C458 C459 1.391 . S
C459 H447 0.950 . S
C459 C455 1.393 . S
C459 C458 1.391 . S
H460 C468 0.950 . S
H461 C473 0.950 . S
H462 C470 0.950 . S
H463 C472 0.950 . S
H464 C474 0.950 . S
H465 C476 0.950 . S
H466 C478 0.950 . S
H467 C479 0.950 . S
C468 H460 0.950 . S
C468 C469 1.386 . S
C468 C470 1.391 . S
C469 C468 1.386 . S
C469 C473 1.393 . S
C470 H462 0.950 . S
C470 C468 1.391 . S
C470 C471 1.400 . S
C471 C470 1.400 . S
C471 C472 1.398 . S
C471 C477 1.491 . S
C472 H463 0.950 . S
C472 C471 1.398 . S
C472 C473 1.391 . S
C473 H461 0.950 . S
C473 C469 1.393 . S
C473 C472 1.391 . S
C474 H464 0.950 . S
C474 C475 1.386 . S
C474 C476 1.391 . S
C475 C474 1.386 . S
C475 C479 1.393 . S
C476 H465 0.950 . S
C476 C474 1.391 . S
C476 C477 1.400 . S
C477 C471 1.491 . S
C477 C476 1.400 . S
C477 C478 1.398 . S
C478 H466 0.950 . S
C478 C477 1.398 . S
C478 C479 1.391 . S
C479 H467 0.950 . S
C479 C475 1.393 . S
C479 C478 1.391 . S
H480 C488 0.950 . S
H481 C493 0.950 . S
H482 C490 0.950 . S
H483 C492 0.950 . S
H484 C494 0.950 . S
H485 C496 0.950 . S
H486 C498 0.950 . S
H487 C499 0.950 . S
C488 H480 0.950 . S
C488 C489 1.386 . S
C488 C490 1.391 . S
C489 C488 1.386 . S
C489 C493 1.393 . S
C490 H482 0.950 . S
C490 C488 1.391 . S
C490 C491 1.400 . S
C491 C490 1.400 . S
C491 C492 1.398 . S
C491 C497 1.491 . S
C492 H483 0.950 . S
C492 C491 1.398 . S
C492 C493 1.391 . S
C493 H481 0.950 . S
C493 C489 1.393 . S
C493 C492 1.391 . S
C494 H484 0.950 . S
C494 C495 1.386 . S
C494 C496 1.391 . S
C495 C494 1.386 . S
C495 C499 1.393 . S
C496 H485 0.950 . S
C496 C494 1.391 . S
C496 C497 1.400 . S
C497 C491 1.491 . S
C497 C496 1.400 . S
C497 C498 1.398 . S
C498 H486 0.950 . S
C498 C497 1.398 . S
C498 C499 1.391 . S
C499 H487 0.950 . S
C499 C495 1.393 . S
C499 C498 1.391 . S
H500 C508 0.950 . S
H501 C513 0.950 . S
H502 C510 0.950 . S
H503 C512 0.950 . S
H504 C514 0.950 . S
H505 C516 0.950 . S
H506 C518 0.950 . S
H507 C519 0.950 . S
C508 H500 0.950 . S
C508 C509 1.386 . S
C508 C510 1.391 . S
C509 C508 1.386 . S
C509 C513 1.393 . S
C510 H502 0.950 . S
C510 C508 1.391 . S
C510 C511 1.400 . S
C511 C510 1.400 . S
C511 C512 1.398 . S
C511 C517 1.491 . S
C512 H503 0.950 . S
C512 C511 1.398 . S
C512 C513 1.391 . S
C513 H501 0.950 . S
C513 C509 1.393 . S
C513 C512 1.391 . S
C514 H504 0.950 . S
C514 C515 1.386 . S
C514 C516 1.391 . S
C515 C514 1.386 . S
C515 C519 1.393 . S
C516 H505 0.950 . S
C516 C514 1.391 . S
C516 C517 1.400 . S
C517 C511 1.491 . S
C517 C516 1.400 . S
C517 C518 1.398 . S
C518 H506 0.950 . S
C518 C517 1.398 . S
C518 C519 1.391 . S
C519 H507 0.950 . S
C519 C515 1.393 . S
C519 C518 1.391 . S
H520 C528 0.950 . S
H521 C533 0.950 . S
H522 C530 0.950 . S
H523 C532 0.950 . S
H524 C534 0.950 . S
H525 C536 0.950 . S
H526 C538 0.950 . S
H527 C539 0.944 1_556 S
C528 H520 0.950 . S
C528 C529 1.386 . S
C528 C530 1.391 . S
C529 C528 1.386 . S
C529 C533 1.393 . S
C530 H522 0.950 . S
C530 C528 1.391 . S
C530 C531 1.400 . S
C531 C530 1.400 . S
C531 C532 1.398 . S
C531 C537 1.491 . S
C532 H523 0.950 . S
C532 C531 1.398 . S
C532 C533 1.391 . S
C533 H521 0.950 . S
C533 C529 1.393 . S
C533 C532 1.391 . S
C534 H524 0.950 . S
C534 C535 1.386 1_554 S
C534 C536 1.391 . S
C535 C534 1.386 1_556 S
C535 C539 1.393 1_556 S
C536 H525 0.950 . S
C536 C534 1.391 . S
C536 C537 1.400 . S
C537 C531 1.491 . S
C537 C536 1.400 . S
C537 C538 1.398 . S
C538 H526 0.950 . S
C538 C537 1.398 . S
C538 C539 1.391 . S
C539 H527 0.944 1_554 S
C539 C535 1.393 1_554 S
C539 C538 1.391 . S
H540 C548 0.950 . S
H541 C553 0.950 . S
H542 C550 0.950 . S
H543 C552 0.950 . S
H544 C554 0.950 . S
H545 C556 0.950 . S
H546 C558 0.950 . S
H547 C559 0.950 . S
C548 H540 0.950 . S
C548 C549 1.386 . S
C548 C550 1.391 . S
C549 C548 1.386 . S
C549 C553 1.393 . S
C550 H542 0.950 . S
C550 C548 1.391 . S
C550 C551 1.400 . S
C551 C550 1.400 . S
C551 C552 1.398 . S
C551 C557 1.491 . S
C552 H543 0.950 . S
C552 C551 1.398 . S
C552 C553 1.391 . S
C553 H541 0.950 . S
C553 C549 1.393 . S
C553 C552 1.391 . S
C554 H544 0.950 . S
C554 C555 1.386 . S
C554 C556 1.391 . S
C555 C554 1.386 . S
C555 C559 1.393 . S
C556 H545 0.950 . S
C556 C554 1.391 . S
C556 C557 1.400 . S
C557 C551 1.491 . S
C557 C556 1.400 . S
C557 C558 1.398 . S
C558 H546 0.950 . S
C558 C557 1.398 . S
C558 C559 1.391 . S
C559 H547 0.950 . S
C559 C555 1.393 . S
C559 C558 1.391 . S
H560 C568 0.950 . S
H561 C573 0.950 . S
H562 C570 0.950 . S
H563 C572 0.950 . S
H564 C574 0.950 . S
H565 C576 0.950 . S
H566 C578 0.950 . S
H567 C579 0.950 . S
C568 H560 0.950 . S
C568 C569 1.386 . S
C568 C570 1.391 . S
C569 C568 1.386 . S
C569 C573 1.393 . S
C570 H562 0.950 . S
C570 C568 1.391 . S
C570 C571 1.400 . S
C571 C570 1.400 . S
C571 C572 1.398 . S
C571 C577 1.491 . S
C572 H563 0.950 . S
C572 C571 1.398 . S
C572 C573 1.391 . S
C573 H561 0.950 . S
C573 C569 1.393 . S
C573 C572 1.391 . S
C574 H564 0.950 . S
C574 C575 1.386 . S
C574 C576 1.391 . S
C575 C574 1.386 . S
C575 C579 1.393 . S
C576 H565 0.950 . S
C576 C574 1.391 . S
C576 C577 1.400 . S
C577 C571 1.491 . S
C577 C576 1.400 . S
C577 C578 1.398 . S
C578 H566 0.950 . S
C578 C577 1.398 . S
C578 C579 1.391 . S
C579 H567 0.950 . S
C579 C575 1.393 . S
C579 C578 1.391 . S
H580 C588 0.950 1_554 S
H581 C593 0.950 . S
H582 C590 0.950 . S
H583 C592 0.950 . S
H584 C594 0.950 . S
H585 C596 0.950 . S
H586 C598 0.950 . S
H587 C599 0.950 . S
C588 H580 0.950 1_556 S
C588 C589 1.386 . S
C588 C590 1.391 . S
C589 C588 1.386 . S
C589 C593 1.393 . S
C590 H582 0.950 . S
C590 C588 1.391 . S
C590 C591 1.400 . S
C591 C590 1.400 . S
C591 C592 1.398 . S
C591 C597 1.491 . S
C592 H583 0.950 . S
C592 C591 1.398 . S
C592 C593 1.391 . S
C593 H581 0.950 . S
C593 C589 1.393 . S
C593 C592 1.391 . S
C594 H584 0.950 . S
C594 C595 1.386 . S
C594 C596 1.391 . S
C595 C594 1.386 . S
C595 C599 1.393 . S
C596 H585 0.950 . S
C596 C594 1.391 . S
C596 C597 1.400 . S
C597 C591 1.491 . S
C597 C596 1.400 . S
C597 C598 1.398 . S
C598 H586 0.950 . S
C598 C597 1.398 . S
C598 C599 1.391 . S
C599 H587 0.950 . S
C599 C595 1.393 . S
C599 C598 1.391 . S
C249 C210 1.761 . S
C255 C10 1.761 . S
C269 C9 1.385 . S
C275 C49 1.415 . S
C289 C50 1.766 . S
C295 C90 1.766 . S
C309 C89 1.403 . S
C315 C129 1.382 . S
C329 C170 1.765 . S
C335 C130 1.765 . S
C349 C209 1.389 . S
C355 C169 1.390 . S
C369 C6 1.265 . S
C375 C15 1.265 . S
C389 C55 1.262 . S
C395 C46 1.262 . S
C409 C86 1.258 . S
C415 C95 1.258 . S
C429 C135 1.275 . S
C435 C126 1.275 . S
C449 C175 1.280 . S
C455 C166 1.280 . S
C469 C215 1.249 . S
C475 C206 1.249 . S
C489 C19 1.833 . S
C495 C178 1.847 . S
C509 C58 1.846 . S
C515 C219 1.831 . S
C529 C18 1.846 . S
C535 C99 1.830 . S
C549 C59 1.837 . S
C555 C138 1.846 . S
C569 C179 1.838 . S
C575 C98 1.845 . S
C589 C139 1.836 . S
C595 C218 1.845 . S
