# Generated by pormake.
# Topology wns, (7)-cn, num edge types: 1
# Building blocks:
#     Node 0, Type 0, BuildingBlock: NUHQUE_clean_sbu_2, # of connection points: 7
#     Node 1, Type 0, BuildingBlock: NUHQUE_clean_sbu_2, # of connection points: 7
#     Node 2, Type 0, BuildingBlock: NUHQUE_clean_sbu_2, # of connection points: 7
#     Node 3, Type 0, BuildingBlock: NUHQUE_clean_sbu_2, # of connection points: 7
#     Node 4, Type 0, BuildingBlock: NUHQUE_clean_sbu_2, # of connection points: 7
#     Node 5, Type 0, BuildingBlock: NUHQUE_clean_sbu_2, # of connection points: 7
#     Node 6, Type 0, BuildingBlock: NUHQUE_clean_sbu_2, # of connection points: 7
#     Node 7, Type 0, BuildingBlock: NUHQUE_clean_sbu_2, # of connection points: 7
#     Node 8, Type 0, BuildingBlock: NUHQUE_clean_sbu_2, # of connection points: 7
#     Node 9, Type 0, BuildingBlock: NUHQUE_clean_sbu_2, # of connection points: 7
#     Node 10, Type 0, BuildingBlock: NUHQUE_clean_sbu_2, # of connection points: 7
#     Node 11, Type 0, BuildingBlock: NUHQUE_clean_sbu_2, # of connection points: 7
#     Edge 12, Type (0, 0), BuildingBlock: EZIPEK_clean_linker_0, # of connection points: 2
#     Edge 13, Type (0, 0), BuildingBlock: EZIPEK_clean_linker_0, # of connection points: 2
#     Edge 14, Type (0, 0), BuildingBlock: EZIPEK_clean_linker_0, # of connection points: 2
#     Edge 15, Type (0, 0), BuildingBlock: EZIPEK_clean_linker_0, # of connection points: 2
#     Edge 16, Type (0, 0), BuildingBlock: EZIPEK_clean_linker_0, # of connection points: 2
#     Edge 17, Type (0, 0), BuildingBlock: EZIPEK_clean_linker_0, # of connection points: 2
#     Edge 18, Type (0, 0), BuildingBlock: EZIPEK_clean_linker_0, # of connection points: 2
#     Edge 19, Type (0, 0), BuildingBlock: EZIPEK_clean_linker_0, # of connection points: 2
#     Edge 20, Type (0, 0), BuildingBlock: EZIPEK_clean_linker_0, # of connection points: 2
#     Edge 21, Type (0, 0), BuildingBlock: EZIPEK_clean_linker_0, # of connection points: 2
#     Edge 22, Type (0, 0), BuildingBlock: EZIPEK_clean_linker_0, # of connection points: 2
#     Edge 23, Type (0, 0), BuildingBlock: EZIPEK_clean_linker_0, # of connection points: 2
#     Edge 24, Type (0, 0), BuildingBlock: EZIPEK_clean_linker_0, # of connection points: 2
#     Edge 25, Type (0, 0), BuildingBlock: EZIPEK_clean_linker_0, # of connection points: 2
#     Edge 26, Type (0, 0), BuildingBlock: EZIPEK_clean_linker_0, # of connection points: 2
#     Edge 27, Type (0, 0), BuildingBlock: EZIPEK_clean_linker_0, # of connection points: 2
#     Edge 28, Type (0, 0), BuildingBlock: EZIPEK_clean_linker_0, # of connection points: 2
#     Edge 29, Type (0, 0), BuildingBlock: EZIPEK_clean_linker_0, # of connection points: 2
#     Edge 30, Type (0, 0), BuildingBlock: EZIPEK_clean_linker_0, # of connection points: 2
#     Edge 31, Type (0, 0), BuildingBlock: EZIPEK_clean_linker_0, # of connection points: 2
#     Edge 32, Type (0, 0), BuildingBlock: EZIPEK_clean_linker_0, # of connection points: 2
#     Edge 33, Type (0, 0), BuildingBlock: EZIPEK_clean_linker_0, # of connection points: 2
#     Edge 34, Type (0, 0), BuildingBlock: EZIPEK_clean_linker_0, # of connection points: 2
#     Edge 35, Type (0, 0), BuildingBlock: EZIPEK_clean_linker_0, # of connection points: 2
#     Edge 36, Type (0, 0), BuildingBlock: EZIPEK_clean_linker_0, # of connection points: 2
#     Edge 37, Type (0, 0), BuildingBlock: EZIPEK_clean_linker_0, # of connection points: 2
#     Edge 38, Type (0, 0), BuildingBlock: EZIPEK_clean_linker_0, # of connection points: 2
#     Edge 39, Type (0, 0), BuildingBlock: EZIPEK_clean_linker_0, # of connection points: 2
#     Edge 40, Type (0, 0), BuildingBlock: EZIPEK_clean_linker_0, # of connection points: 2
#     Edge 41, Type (0, 0), BuildingBlock: EZIPEK_clean_linker_0, # of connection points: 2
#     Edge 42, Type (0, 0), BuildingBlock: EZIPEK_clean_linker_0, # of connection points: 2
#     Edge 43, Type (0, 0), BuildingBlock: EZIPEK_clean_linker_0, # of connection points: 2
#     Edge 44, Type (0, 0), BuildingBlock: EZIPEK_clean_linker_0, # of connection points: 2
#     Edge 45, Type (0, 0), BuildingBlock: EZIPEK_clean_linker_0, # of connection points: 2
#     Edge 46, Type (0, 0), BuildingBlock: EZIPEK_clean_linker_0, # of connection points: 2
#     Edge 47, Type (0, 0), BuildingBlock: EZIPEK_clean_linker_0, # of connection points: 2
#     Edge 48, Type (0, 0), BuildingBlock: EZIPEK_clean_linker_0, # of connection points: 2
#     Edge 49, Type (0, 0), BuildingBlock: EZIPEK_clean_linker_0, # of connection points: 2
#     Edge 50, Type (0, 0), BuildingBlock: EZIPEK_clean_linker_0, # of connection points: 2
#     Edge 51, Type (0, 0), BuildingBlock: EZIPEK_clean_linker_0, # of connection points: 2
#     Edge 52, Type (0, 0), BuildingBlock: EZIPEK_clean_linker_0, # of connection points: 2
#     Edge 53, Type (0, 0), BuildingBlock: EZIPEK_clean_linker_0, # of connection points: 2
# Relax obj value: 0.194
# Max RMSD: 0.263
# Mean RMSD: 0.263
data_MOF--net-wns--node1-NUHQUE_clean_sbu_2--edge1-EZIPEK_clean_linker_0
_symmetry_space_group_name_H-M    P1
_symmetry_Int_Tables_number       1
_symmetry_cell_setting            triclinic
loop_
_symmetry_equiv_pos_as_xyz
'x, y, z'
_cell_length_a     37.538603
_cell_length_b     37.313158
_cell_length_c     28.126378
_cell_angle_alpha  89.799005
_cell_angle_beta   90.267117
_cell_angle_gamma 119.81199
loop_
_atom_site_label
_atom_site_type_symbol
_atom_site_fract_x
_atom_site_fract_y
_atom_site_fract_z
_atom_type_partial_charge
O0 O 0.48563 0.22168 0.93174 0.0
Tb1 Tb 0.4986 0.22835 1.00835 0.0
Eu2 Eu 0.42411 0.24147 0.09503 0.0
C3 C 0.45045 0.21443 0.91292 0.0
O4 O 0.42092 0.21121 0.94062 0.0
C5 C 0.416 0.16038 0.04326 0.0
O6 O 0.4223 0.22928 0.17477 0.0
C7 C 0.37719 0.27351 0.08099 0.0
C8 C 0.45532 0.2383 0.20027 0.0
O9 O 0.49058 0.25111 0.17884 0.0
C10 C 0.51499 0.30778 0.05698 0.0
C11 C 0.36758 0.30474 0.09955 0.0
C12 C 0.35552 0.32579 0.0675 0.0
C13 C 0.34161 0.35207 0.08437 0.0
C14 C 0.34006 0.35748 0.13344 0.0
C15 C 0.35137 0.33629 0.16577 0.0
C16 C 0.36548 0.31019 0.14885 0.0
O17 O 0.45514 0.17732 0.05212 0.0
O18 O 0.39791 0.18244 0.05014 0.0
O19 O 0.54588 0.21316 0.98933 0.0
O20 O 0.5536 0.24844 0.05165 0.0
C21 C 0.56932 0.23105 0.02585 0.0
O22 O 0.49164 0.29243 0.09501 0.0
O23 O 0.5036 0.28841 0.0161 0.0
O24 O 0.36733 0.24135 0.1083 0.0
O25 O 0.41207 0.28638 0.05838 0.0
H26 H 0.3555 0.32062 0.02959 0.0
H27 H 0.32831 0.3769 0.14655 0.0
H28 H 0.37335 0.29315 0.17403 0.0
O29 O 0.78884 0.26242 0.9259 0.0
Tb30 Tb 0.79344 0.26296 1.0025 0.0
Eu31 Eu 0.79095 0.21817 0.10982 0.0
C32 C 0.76992 0.22718 0.90302 0.0
O33 O 0.7528 0.1923 0.92695 0.0
C34 C 0.86615 0.26027 0.04112 0.0
O35 O 0.79212 0.22757 0.18856 0.0
C36 C 0.77292 0.14217 0.09645 0.0
C37 C 0.78005 0.25181 0.20754 0.0
O38 O 0.76735 0.27193 0.18045 0.0
C39 C 0.71502 0.22144 0.06025 0.0
C40 C 0.74266 0.09955 0.11091 0.0
C41 C 0.72719 0.06817 0.07644 0.0
C42 C 0.70202 0.0268 0.0899 0.0
C43 C 0.69198 0.01673 0.13778 0.0
C44 C 0.70752 0.04744 0.17261 0.0
C45 C 0.73259 0.08894 0.15921 0.0
O46 O 0.83875 0.24402 1.00738 0.0
O47 O 0.85486 0.26338 0.08426 0.0
O48 O 0.81448 0.3284 0.99154 0.0
O49 O 0.80976 0.30645 0.06187 0.0
C50 C 0.82009 0.33922 0.03608 0.0
O51 O 0.73604 0.22741 0.09989 0.0
O52 O 0.7302 0.22062 0.01875 0.0
O53 O 0.79798 0.16607 0.12978 0.0
O54 O 0.76087 0.16164 0.06704 0.0
H55 H 0.73577 0.07568 0.03945 0.0
H56 H 0.67331 0.98461 0.1482 0.0
H57 H 0.74518 0.11252 0.1865 0.0
O58 O 0.75294 0.50163 0.92206 0.0
Tb59 Tb 0.75164 0.50391 0.99893 0.0
Eu60 Eu 0.81565 0.56815 0.09538 0.0
C61 C 0.78527 0.5301 0.89944 0.0
O62 O 0.81689 0.55771 0.92392 0.0
C63 C 0.75837 0.58762 0.02645 0.0
O64 O 0.80734 0.56334 0.17425 0.0
C65 C 0.89137 0.62605 0.08177 0.0
C66 C 0.7727 0.53613 0.19399 0.0
O67 O 0.74168 0.51029 0.1674 0.0
C68 C 0.80933 0.48346 0.05817 0.0
C69 C 0.93391 0.63912 0.09826 0.0
C70 C 0.96618 0.65414 0.06497 0.0
C71 C 1.00721 0.67133 0.08034 0.0
C72 C 0.01595 0.673 0.12899 0.0
C73 C 0.98452 0.65857 0.16268 0.0
C74 C 0.94349 0.64138 0.14732 0.0
O75 O 0.76167 0.56595 0.99208 0.0
O76 O 0.76804 0.58484 0.07078 0.0
O77 O 0.69198 0.44872 0.98758 0.0
O78 O 0.70447 0.47859 0.05486 0.0
C79 C 0.67718 0.44759 0.02966 0.0
O80 O 0.80917 0.50446 0.09564 0.0
O81 O 0.80029 0.4907 0.01536 0.0
O82 O 0.86681 0.62816 0.11331 0.0
O83 O 0.87255 0.59368 0.05357 0.0
H84 H 0.95961 0.65391 0.02736 0.0
H85 H 0.04762 0.68702 0.14082 0.0
H86 H 0.91937 0.63108 0.17366 0.0
O87 O 0.25762 0.4961 0.60061 0.0
Tb88 Tb 0.24453 0.48859 0.52505 0.0
Eu89 Eu 0.24465 0.44552 0.42049 0.0
C90 C 0.24439 0.46384 0.62874 0.0
O91 O 0.22345 0.42653 0.61081 0.0
C92 C 0.16687 0.41615 0.48643 0.0
O93 O 0.24784 0.45255 0.34113 0.0
C94 C 0.26253 0.38834 0.44218 0.0
C95 C 0.22933 0.47008 0.3196 0.0
O96 O 0.2073 0.48167 0.34445 0.0
C97 C 0.32182 0.52629 0.46366 0.0
C98 C 0.29083 0.37342 0.42738 0.0
C99 C 0.30775 0.35832 0.46159 0.0
C100 C 0.3309 0.33992 0.44717 0.0
C101 C 0.33711 0.33696 0.39853 0.0
C102 C 0.3214 0.35265 0.36436 0.0
C103 C 0.2984 0.37097 0.37874 0.0
O104 O 0.19305 0.42607 0.52172 0.0
O105 O 0.18042 0.42969 0.44331 0.0
O106 O 0.2252 0.53418 0.53739 0.0
O107 O 0.22864 0.51714 0.46673 0.0
C108 C 0.21918 0.53981 0.493 0.0
O109 O 0.29893 0.51089 0.42534 0.0
O110 O 0.3078 0.50989 0.50555 0.0
O111 O 0.23453 0.3837 0.41078 0.0
O112 O 0.2778 0.42344 0.46564 0.0
H113 H 0.30264 0.36046 0.49911 0.0
H114 H 0.35487 0.32282 0.38716 0.0
H115 H 0.28581 0.38252 0.35191 0.0
O116 O 0.53233 0.75646 0.59702 0.0
Tb117 Tb 0.53027 0.75675 0.51976 0.0
Eu118 Eu 0.58571 0.8153 0.41491 0.0
C119 C 0.56462 0.78419 0.62055 0.0
O120 O 0.59506 0.81461 0.59754 0.0
C121 C 0.60841 0.75824 0.48076 0.0
O122 O 0.58328 0.81436 0.3346 0.0
C123 C 0.63971 0.89039 0.44037 0.0
C124 C 0.56551 0.77938 0.31079 0.0
O125 O 0.54848 0.74418 0.33406 0.0
C126 C 0.50209 0.80551 0.45772 0.0
C127 C 0.65292 0.93404 0.4275 0.0
C128 C 0.66574 0.96465 0.4632 0.0
C129 C 0.6824 1.00666 0.4507 0.0
C130 C 0.68602 0.01784 0.40271 0.0
C131 C 0.67368 0.98807 0.367 0.0
C132 C 0.65679 0.94621 0.37932 0.0
O133 O 0.59186 0.76574 0.51756 0.0
O134 O 0.602 0.7663 0.43687 0.0
O135 O 0.47343 0.69947 0.53437 0.0
O136 O 0.50093 0.7074 0.46629 0.0
C137 C 0.47014 0.68244 0.49315 0.0
O138 O 0.52023 0.80308 0.41879 0.0
O139 O 0.51688 0.80502 0.50004 0.0
O140 O 0.64637 0.86892 0.4083 0.0
O141 O 0.60451 0.86849 0.46254 0.0
H142 H 0.66381 0.95606 0.50033 0.0
H143 H 0.69948 0.05017 0.393 0.0
H144 H 0.64794 0.92346 0.35129 0.0
O145 O 0.27417 0.76878 0.59998 0.0
Tb146 Tb 0.27127 0.76979 0.52323 0.0
Eu147 Eu 0.21393 0.7685 0.42377 0.0
C148 C 0.24104 0.75944 0.62458 0.0
O149 O 0.20642 0.74898 0.60224 0.0
C150 C 0.2654 0.84497 0.49242 0.0
O151 O 0.22851 0.77368 0.34625 0.0
C152 C 0.13879 0.75381 0.43184 0.0
C153 C 0.26651 0.7953 0.3313 0.0
O154 O 0.29678 0.81331 0.36201 0.0
C155 C 0.21725 0.68952 0.46707 0.0
C156 C 0.09542 0.72402 0.41898 0.0
C157 C 0.06518 0.7098 0.45462 0.0
C158 C 0.02337 0.68586 0.44272 0.0
C159 C 1.01169 0.67578 0.39508 0.0
C160 C 0.04116 0.68982 0.35902 0.0
C161 C 0.08304 0.71373 0.37101 0.0
O162 O 0.25667 0.81873 0.52724 0.0
O163 O 0.26077 0.83296 0.44794 0.0
O164 O 0.33326 0.77941 0.53084 0.0
O165 O 0.31472 0.79085 0.46353 0.0
C166 C 0.34472 0.79083 0.48721 0.0
O167 O 0.21757 0.70975 0.42838 0.0
O168 O 0.22514 0.70659 0.50936 0.0
O169 O 0.16341 0.77509 0.39689 0.0
O170 O 0.15695 0.74349 0.46509 0.0
H171 H 0.07395 0.71855 0.49137 0.0
H172 H 0.97937 0.65809 0.38585 0.0
H173 H 0.10561 0.72532 0.34281 0.0
O174 O 0.53197 0.77538 0.07956 0.0
Tb175 Tb 0.53498 0.79171 1.00467 0.0
Eu176 Eu 0.61642 0.79561 0.92526 0.0
C177 C 0.56544 0.7853 0.10433 0.0
O178 O 0.60108 0.80176 0.08272 0.0
C179 C 0.62464 0.87281 0.99258 0.0
O180 O 0.60654 0.7976 0.84635 0.0
C181 C 0.6623 0.76305 0.9439 0.0
C182 C 0.58608 0.76377 0.821 0.0
O183 O 0.57085 0.72748 0.84161 0.0
C184 C 0.52591 0.72042 0.93744 0.0
C185 C 0.67448 0.73436 0.92345 0.0
C186 C 0.68595 0.71201 0.95417 0.0
C187 C 0.69936 0.68583 0.93572 0.0
C188 C 0.70056 0.68146 0.88639 0.0
C189 C 0.68908 0.70344 0.85537 0.0
C190 C 0.67621 0.73007 0.87396 0.0
O191 O 0.58803 0.85276 0.01271 0.0
O192 O 0.63963 0.85792 0.96043 0.0
O193 O 0.46853 0.7663 0.99993 0.0
O194 O 0.50836 0.82735 0.97476 0.0
C195 C 0.47029 0.79915 0.98135 0.0
O196 O 0.55147 0.75776 0.95263 0.0
O197 O 0.55094 0.75792 0.95334 0.0
O198 O 0.67576 0.79875 0.92232 0.0
O199 O 0.62423 0.74694 0.95855 0.0
H200 H 0.68518 0.7155 0.99235 0.0
H201 H 0.71104 0.66134 0.8721 0.0
H202 H 0.66814 0.74773 0.85005 0.0
O203 O 0.25961 0.76691 0.1083 0.0
Tb204 Tb 0.24543 0.75882 0.03337 0.0
Eu205 Eu 0.24192 0.80867 0.92839 0.0
C206 C 0.2751 0.80355 0.12771 0.0
O207 O 0.28415 0.83593 0.10104 0.0
C208 C 0.16617 0.75279 0.99537 0.0
O209 O 0.2412 0.80345 0.84889 0.0
C210 C 0.25782 0.88312 0.94987 0.0
C211 C 0.24434 0.77322 0.82933 0.0
O212 O 0.24772 0.74638 0.85656 0.0
C213 C 0.32023 0.80558 0.96941 0.0
C214 C 0.28552 0.92622 0.93362 0.0
C215 C 0.30364 0.95901 0.9667 0.0
C216 C 0.32729 1.00022 0.95076 0.0
C217 C 0.33287 1.00821 0.90182 0.0
C218 C 0.31547 0.97613 0.86877 0.0
C219 C 0.29194 0.93523 0.88461 0.0
O220 O 0.19197 0.76654 0.0311 0.0
O221 O 0.17939 0.75725 0.95142 0.0
O222 O 0.22698 0.69464 0.04985 0.0
O223 O 0.24351 0.71586 0.97925 0.0
C224 C 0.23227 0.6843 1.00745 0.0
O225 O 0.29795 0.80087 0.93122 0.0
O226 O 0.30629 0.80591 1.01206 0.0
O227 O 0.22939 0.85899 0.91937 0.0
O228 O 0.27409 0.86405 0.97317 0.0
H229 H 0.2992 0.9526 1.00448 0.0
H230 H 0.35113 0.03975 0.88929 0.0
H231 H 0.27834 0.9106 0.85859 0.0
O232 O 0.27913 0.53504 0.09858 0.0
Tb233 Tb 0.29351 0.53837 0.02361 0.0
Eu234 Eu 0.19925 0.44475 0.92502 0.0
C235 C 0.25489 0.49861 0.11747 0.0
O236 O 0.238 0.46579 0.09008 0.0
C237 C 0.27901 0.44744 0.99482 0.0
O238 O 0.21699 0.45795 0.84845 0.0
C239 C 0.12761 0.37916 0.92887 0.0
C240 C 0.25307 0.46643 0.83231 0.0
O241 O 0.28185 0.46977 0.86171 0.0
C242 C 0.22028 0.52698 0.9587 0.0
C243 C 0.08501 0.36445 0.91307 0.0
C244 C 0.05393 0.34932 0.94736 0.0
C245 C 1.01289 0.33303 0.93378 0.0
C246 C 1.0026 0.3321 0.88571 0.0
C247 C 0.03327 0.34709 0.85096 0.0
C248 C 0.07454 0.36332 0.86463 0.0
O249 O 0.29957 0.48378 0.01648 0.0
O250 O 0.24692 0.43431 0.96532 0.0
O251 O 0.32764 0.6033 1.00156 0.0
O252 O 0.35879 0.56868 1.0088 0.0
C253 C 0.36285 0.60439 0.99783 0.0
O254 O 0.19151 0.50069 0.93118 0.0
O255 O 0.24407 0.51334 0.97452 0.0
O256 O 0.15477 0.38529 0.8959 0.0
O257 O 0.14194 0.40712 0.96284 0.0
H258 H 0.0615 0.34945 0.98466 0.0
H259 H 0.97068 0.31905 0.8753 0.0
H260 H 0.09809 0.3744 0.83752 0.0
O261 O 0.7839 0.52171 0.42536 0.0
Tb262 Tb 0.7956 0.53404 0.5004 0.0
Eu263 Eu 0.79008 0.59139 0.59869 0.0
C264 C 0.77875 0.54746 0.39826 0.0
O265 O 0.77944 0.5799 0.41731 0.0
C266 C 0.87017 0.61372 0.53568 0.0
O267 O 0.78814 0.58205 0.67775 0.0
C268 C 0.77188 0.64895 0.58043 0.0
C269 C 0.79095 0.55086 0.69528 0.0
O270 O 0.79519 0.52567 0.66636 0.0
C271 C 0.71605 0.50928 0.55324 0.0
C272 C 0.74095 0.66107 0.59374 0.0
C273 C 0.72316 0.67452 0.55863 0.0
C274 C 0.69724 0.69017 0.57172 0.0
C275 C 0.68931 0.69241 0.61996 0.0
C276 C 0.70698 0.67958 0.65515 0.0
C277 C 0.73225 0.66346 0.64201 0.0
O278 O 0.84666 0.59618 0.49876 0.0
O279 O 0.8553 0.60791 0.5791 0.0
O280 O 0.81324 0.48684 0.49249 0.0
O281 O 0.79843 0.49872 0.56152 0.0
C282 C 0.8094 0.47616 0.537 0.0
O283 O 0.73402 0.52766 0.59322 0.0
O284 O 0.73464 0.52336 0.5125 0.0
O285 O 0.79721 0.65134 0.61432 0.0
O286 O 0.76028 0.61661 0.55265 0.0
H287 H 0.73036 0.67398 0.52146 0.0
H288 H 0.67029 0.70541 0.63024 0.0
H289 H 0.7462 0.65418 0.66969 0.0
O290 O 0.4869 0.27554 0.42827 0.0
Tb291 Tb 0.49901 0.28262 0.50524 0.0
Eu292 Eu 0.42131 0.1933 0.59802 0.0
C293 C 0.46333 0.23972 0.4074 0.0
O294 O 0.44497 0.20591 0.43314 0.0
C295 C 0.41581 0.26585 0.54274 0.0
O296 O 0.42554 0.21063 0.67613 0.0
C297 C 0.37226 0.11429 0.5887 0.0
C298 C 0.43263 0.18902 0.70825 0.0
O299 O 0.4372 0.15802 0.69423 0.0
C300 C 0.51209 0.2186 0.55944 0.0
C301 C 0.36176 0.07263 0.60562 0.0
C302 C 0.3494 0.04066 0.57219 0.0
C303 C 0.33381 0.99968 0.58731 0.0
C304 C 0.33101 0.99064 0.63596 0.0
C305 C 0.34326 0.02214 0.66967 0.0
C306 C 0.35886 0.06314 0.65446 0.0
O307 O 0.45513 0.28673 0.55216 0.0
O308 O 0.39583 0.22611 0.5523 0.0
O309 O 0.53706 0.34933 0.49794 0.0
O310 O 0.56178 0.3166 0.53394 0.0
C311 C 0.56878 0.35303 0.52071 0.0
O312 O 0.48825 0.209 0.59716 0.0
O313 O 0.50035 0.22589 0.51821 0.0
O314 O 0.36561 0.13765 0.61805 0.0
O315 O 0.40537 0.13502 0.56256 0.0
H316 H 0.35031 0.04733 0.53451 0.0
H317 H 0.31815 0.95886 0.64764 0.0
H318 H 0.36716 0.08713 0.6807 0.0
O319 O 0.74405 0.24708 0.43426 0.0
Tb320 Tb 0.74354 0.24362 0.51073 0.0
Eu321 Eu 0.8153 0.24615 0.5982 0.0
C322 C 0.77889 0.2607 0.41167 0.0
O323 O 0.81312 0.27325 0.43575 0.0
C324 C 0.75063 0.16528 0.53667 0.0
O325 O 0.81145 0.2432 0.67759 0.0
C326 C 0.89057 0.26763 0.57498 0.0
C327 C 0.77612 0.2323 0.69795 0.0
O328 O 0.74374 0.22316 0.67155 0.0
C329 C 0.80339 0.3217 0.5665 0.0
C330 C 0.9334 0.29801 0.58944 0.0
C331 C 0.96551 0.31398 0.55571 0.0
C332 C 1.00676 0.33882 0.57047 0.0
C333 C 0.01561 0.34732 0.61894 0.0
C334 C 0.9843 0.33086 0.65278 0.0
C335 C 0.94329 0.30699 0.638 0.0
O336 O 0.74731 0.18786 0.50299 0.0
O337 O 0.76788 0.18031 0.5782 0.0
O338 O 0.68629 0.24389 0.49845 0.0
O339 O 0.69588 0.22407 0.56588 0.0
C340 C 0.67029 0.23021 0.54012 0.0
O341 O 0.80504 0.30097 0.6035 0.0
O342 O 0.79443 0.30515 0.52409 0.0
O343 O 0.86887 0.23928 0.60678 0.0
O344 O 0.86885 0.281 0.55173 0.0
H345 H 0.95867 0.30607 0.51847 0.0
H346 H 0.04731 0.36507 0.63064 0.0
H347 H 0.91936 0.29381 0.66466 0.0
C348 C 0.3924 0.05889 0.98166 0.0
C349 C 0.34913 0.03611 0.98374 0.0
C350 C 0.35072 0.09 0.03522 0.0
C351 C 0.39295 0.11682 0.02404 0.0
N352 N 0.45089 0.12671 0.97565 0.0
N353 N 0.28598 0.03207 1.00914 0.0
C354 C 0.4132 0.10114 0.99477 0.0
C355 C 0.32787 0.05212 1.00977 0.0
N356 N 0.41367 0.04036 0.9659 0.0
N357 N 0.33274 0.09933 0.07156 0.0
H358 H 0.26826 1.0041 0.99153 0.0
H359 H 0.26914 0.04484 0.02321 0.0
H360 H 0.34901 0.12456 0.09397 0.0
H361 H 0.30303 0.07912 0.08326 0.0
H362 H 0.4456 0.0546 0.96763 0.0
H363 H 0.39915 1.00927 0.95614 0.0
H364 H 0.46464 0.11686 0.95073 0.0
H365 H 0.46597 0.1585 0.979 0.0
C366 C 0.93211 0.32369 0.02155 0.0
C367 C 0.90965 0.28015 0.02712 0.0
C368 C 0.96154 0.27331 0.9819 0.0
C369 C 0.98012 0.3158 0.96998 0.0
N370 N 0.98446 0.38215 0.97751 0.0
N371 N 0.90271 0.21312 0.01574 0.0
C372 C 0.9662 0.34138 0.99017 0.0
C373 C 0.92472 0.25491 1.0088 0.0
N374 N 0.92053 0.34793 0.04575 0.0
N375 N 0.97911 0.25074 0.96724 0.0
H376 H 0.87713 0.19922 0.03797 0.0
H377 H 0.90876 0.19205 0.99863 0.0
H378 H 1.00551 0.26311 0.94639 0.0
H379 H 0.9694 0.22063 0.97821 0.0
H380 H 0.93753 0.38003 0.04649 0.0
H381 H 0.89557 0.33598 0.06874 0.0
H382 H 0.97281 0.40145 0.98605 0.0
H383 H 1.01045 0.39644 0.95599 0.0
C384 C 0.69981 0.59907 1.00727 0.0
C385 C 0.74266 0.61576 0.01366 0.0
C386 C 0.75551 0.68188 0.97998 0.0
C387 C 0.71331 0.66332 0.96764 0.0
N388 N 0.6448 0.60477 0.96861 0.0
N389 N 0.81191 0.67218 1.00643 0.0
C390 C 0.68518 0.62216 0.98159 0.0
C391 C 0.77068 0.65719 1.00078 0.0
N392 N 0.67329 0.56115 0.02602 0.0
N393 N 0.78096 0.72308 0.97167 0.0
H394 H 0.82382 0.65546 0.02335 0.0
H395 H 0.83444 0.70024 0.99262 0.0
H396 H 0.77097 0.74175 0.95554 0.0
H397 H 0.81114 0.73958 0.98376 0.0
H398 H 0.64154 0.54831 0.02632 0.0
H399 H 0.68332 0.5437 0.04496 0.0
H400 H 0.62345 0.57358 0.97261 0.0
H401 H 0.63282 0.62134 0.95149 0.0
C402 C 0.10452 0.35145 0.51406 0.0
C403 C 0.12198 0.39255 0.49696 0.0
C404 C 0.05705 0.39165 0.51325 0.0
C405 C 0.04224 0.35332 0.53708 0.0
N406 N 0.05028 0.29536 0.55923 0.0
N407 N 0.11527 0.45219 0.47897 0.0
C408 C 0.06533 0.33254 0.53653 0.0
C409 C 0.09803 0.41248 0.49527 0.0
N410 N 0.12533 0.33039 0.50799 0.0
N411 N 0.0319 0.40819 0.50832 0.0
H412 H 0.14441 0.46784 0.46395 0.0
H413 H 0.10171 0.47052 0.48213 0.0
H414 H 1.00215 0.39391 0.5219 0.0
H415 H 0.03898 0.4341 0.48775 0.0
H416 H 0.11314 0.29917 0.51567 0.0
H417 H 0.15386 0.34343 0.49127 0.0
H418 H 0.06737 0.28085 0.5658 0.0
H419 H 0.0207 0.27952 0.5733 0.0
C420 C 0.64248 0.68128 0.51273 0.0
C421 C 0.6802 0.70756 0.53617 0.0
C422 C 0.6754 0.76841 0.51221 0.0
C423 C 0.63678 0.74204 0.49073 0.0
N424 N 0.58823 0.67518 0.45983 0.0
N425 N 0.73768 0.77572 0.54829 0.0
C426 C 0.62205 0.69901 0.48716 0.0
C427 C 0.69839 0.7511 0.53238 0.0
N428 N 0.62517 0.63942 0.51721 0.0
N429 N 0.68926 0.80987 0.51483 0.0
H430 H 0.75508 0.76372 0.56317 0.0
H431 H 0.75429 0.80754 0.54322 0.0
H432 H 0.67433 0.82369 0.49792 0.0
H433 H 0.71446 0.83034 0.53509 0.0
H434 H 0.59553 0.61842 0.50602 0.0
H435 H 0.63995 0.62559 0.53439 0.0
H436 H 0.57763 0.6442 0.45235 0.0
H437 H 0.57262 0.68744 0.44123 0.0
C438 C 0.32623 0.91469 0.50628 0.0
C439 C 0.28295 0.88903 0.50473 0.0
C440 C 0.27429 0.94251 0.54446 0.0
C441 C 0.31725 0.96509 0.55277 0.0
N442 N 0.3848 0.97402 0.54211 0.0
N443 N 0.21514 0.87756 0.52052 0.0
C444 C 0.34356 0.95193 0.53309 0.0
C445 C 0.25676 0.90296 0.52271 0.0
N446 N 0.35056 0.9031 0.4825 0.0
N447 N 0.25045 0.95905 0.55748 0.0
H448 H 0.20146 0.84943 0.50243 0.0
H449 H 0.19415 0.88337 0.53797 0.0
H450 H 0.26246 0.98783 0.57388 0.0
H451 H 0.21949 0.94606 0.54884 0.0
H452 H 0.38216 0.9218 0.47875 0.0
H453 H 0.33863 0.87578 0.46304 0.0
H454 H 0.40525 0.9638 0.53378 0.0
H455 H 0.39854 1.0021 0.56025 0.0
C456 C 0.63572 0.94414 1.00029 0.0
C457 C 0.6505 0.91619 1.00782 0.0
C458 C 0.70737 0.9682 0.0554 0.0
C459 C 0.68821 0.99273 0.05503 0.0
N460 N 0.63386 1.00459 0.02829 0.0
N461 N 0.69918 0.90013 0.04452 0.0
C462 C 0.65262 0.98122 0.02715 0.0
C463 C 0.68651 0.92804 0.03516 0.0
N464 N 0.60569 0.93517 0.96714 0.0
N465 N 0.74541 0.98336 0.07546 0.0
H466 H 0.6848 0.87039 0.03038 0.0
H467 H 0.7222 0.90538 0.06894 0.0
H468 H 0.76131 0.01271 0.09066 0.0
H469 H 0.76273 0.96865 0.07307 0.0
H470 H 0.59602 0.95581 0.95688 0.0
H471 H 0.59312 0.90837 0.94656 0.0
H472 H 0.6051 0.99523 0.01345 0.0
H473 H 0.64606 0.03254 0.04657 0.0
C474 C 0.10367 0.755 0.02212 0.0
C475 C 0.12151 0.73155 1.00582 0.0
C476 C 0.05943 0.66717 0.02837 0.0
C477 C 0.04243 0.69077 0.04671 0.0
N478 N 0.04316 0.75546 0.0519 0.0
N479 N 0.11421 0.66587 0.98389 0.0
C480 C 0.0629 0.73424 0.04032 0.0
C481 C 0.09844 0.68771 1.00549 0.0
N482 N 0.1264 0.7972 0.0216 0.0
N483 N 0.03907 0.62534 0.0351 0.0
H484 H 0.14312 0.67998 0.96808 0.0
H485 H 0.0978 0.63409 0.97853 0.0
H486 H 1.00977 0.60939 0.0499 0.0
H487 H 0.05154 0.60651 0.02792 0.0
H488 H 0.11751 0.81643 0.03804 0.0
H489 H 0.15538 0.81324 1.00599 0.0
H490 H 0.05461 0.78664 0.04465 0.0
H491 H 1.01343 0.74098 0.06559 0.0
C492 C 0.28167 0.35598 0.05163 0.0
C493 C 0.3246 0.37124 0.05162 0.0
C494 C 0.33421 0.42851 1.00016 0.0
C495 C 0.29266 0.41755 1.00782 0.0
N496 N 0.22717 0.37244 0.04481 0.0
N497 N 0.3926 0.42266 0.02718 0.0
C498 C 0.26618 0.38127 0.03389 0.0
C499 C 0.35114 0.40739 0.02561 0.0
N500 N 0.25578 0.31728 0.06883 0.0
N501 N 0.35725 0.45894 0.96823 0.0
H502 H 0.40596 0.40758 0.04471 0.0
H503 H 0.41389 0.45145 0.01364 0.0
H504 H 0.34534 0.47446 0.9487 0.0
H505 H 0.38662 0.46599 0.95779 0.0
H506 H 0.22394 0.30282 0.0657 0.0
H507 H 0.2663 0.29799 0.08197 0.0
H508 H 0.20844 0.34931 0.06862 0.0
H509 H 0.21442 0.39018 0.03325 0.0
C510 C 0.93029 0.67766 0.50405 0.0
C511 C 0.91483 0.6388 0.52676 0.0
C512 C 0.97645 0.63595 0.50452 0.0
C513 C 0.99062 0.67348 0.47907 0.0
N514 N 0.98754 0.73545 0.46436 0.0
N515 N 0.9267 0.58612 0.55981 0.0
C516 C 0.96968 0.69625 0.48237 0.0
C517 C 0.93937 0.61986 0.53104 0.0
N518 N 0.90635 0.69574 0.50156 0.0
N519 N 0.99722 0.61463 0.50097 0.0
H520 H 0.89936 0.57349 0.57898 0.0
H521 H 0.94457 0.57271 0.56784 0.0
H522 H 0.0251 0.62628 0.48307 0.0
H523 H 0.98617 0.58477 0.51379 0.0
H524 H 0.91323 0.72147 0.48075 0.0
H525 H 0.87843 0.68386 0.51948 0.0
H526 H 0.97567 0.75518 0.46871 0.0
H527 H 0.01632 0.74961 0.44818 0.0
C528 C 0.35215 0.27405 0.53541 0.0
C529 C 0.39388 0.2876 0.5234 0.0
C530 C 0.39507 0.34519 0.47924 0.0
C531 C 0.35191 0.32589 0.48153 0.0
N532 N 0.28806 0.2688 0.50922 0.0
N533 N 0.45114 0.33236 0.47265 0.0
C534 C 0.32995 0.28949 0.50914 0.0
C535 C 0.41458 0.32265 0.49288 0.0
N536 N 0.33415 0.24823 0.57314 0.0
N537 N 0.41735 0.38457 0.46216 0.0
H538 H 0.46347 0.31315 0.47545 0.0
H539 H 0.46555 0.35552 0.44718 0.0
H540 H 0.40367 0.40188 0.45192 0.0
H541 H 0.44935 0.4012 0.4632 0.0
H542 H 0.30486 0.24011 0.58515 0.0
H543 H 0.35023 0.23944 0.59623 0.0
H544 H 0.27067 0.23974 0.52469 0.0
H545 H 0.27082 0.27933 0.49089 0.0
C546 C 0.67202 0.05574 0.50194 0.0
C547 C 0.69803 0.04064 0.48648 0.0
C548 C 0.7587 0.10453 0.51357 0.0
C549 C 0.7328 0.12042 0.52681 0.0
N550 N 0.66519 0.10848 0.54491 0.0
N551 N 0.76426 0.04539 0.48733 0.0
C552 C 0.68947 0.09497 0.52477 0.0
C553 C 0.74083 0.06332 0.49593 0.0
N554 N 0.63087 0.03337 0.49253 0.0
N555 N 0.80037 0.12965 0.51531 0.0
H556 H 0.75179 0.01541 0.47413 0.0
H557 H 0.79505 0.05855 0.49683 0.0
H558 H 0.81435 0.15951 0.52918 0.0
H559 H 0.82118 0.12192 0.50104 0.0
H560 H 0.61066 0.04453 0.49731 0.0
H561 H 0.61707 1.00377 0.47794 0.0
H562 H 0.6335 0.09035 0.54837 0.0
H563 H 0.67727 0.13701 0.56192 0.0
C564 C 0.30484 0.313 0.23677 0.0
C565 C 0.34448 0.33886 0.21738 0.0
C566 C 0.36771 0.37612 0.29306 0.0
C567 C 0.32878 0.34883 0.31318 0.0
N568 N 0.26241 0.28738 0.3073 0.0
N569 N 0.41535 0.39086 0.22789 0.0
C570 C 0.29788 0.31619 0.28586 0.0
C571 C 0.37648 0.36918 0.24586 0.0
N572 N 0.27362 0.28594 0.20793 0.0
N573 N 0.3958 0.40939 0.3187 0.0
H574 H 0.42257 0.3871 0.19316 0.0
H575 H 0.44103 0.41023 0.24821 0.0
H576 H 0.39046 0.4153 0.3534 0.0
H577 H 0.42307 0.43291 0.30462 0.0
H578 H 0.24296 0.27004 0.21824 0.0
H579 H 0.2779 0.28107 0.17243 0.0
H580 H 0.24073 0.2602 0.2909 0.0
H581 H 0.25586 0.28906 0.34296 0.0
C582 C 0.72592 0.02192 0.24622 0.0
C583 C 0.7003 0.0348 0.22346 0.0
C584 C 0.65475 0.01271 0.29283 0.0
C585 C 0.68161 1.00199 0.31658 0.0
N586 N 0.74591 1.00214 0.31952 0.0
N587 N 0.64375 0.04797 0.22638 0.0
C588 C 0.71807 1.00812 0.29423 0.0
C589 C 0.6657 0.03186 0.24723 0.0
N590 N 0.75729 0.02204 0.2215 0.0
N591 N 0.61827 1.00351 0.31351 0.0
H592 H 0.65058 0.0615 0.19269 0.0
H593 H 0.62081 0.05081 0.24359 0.0
H594 H 0.6095 0.98973 0.34695 0.0
H595 H 0.59531 1.00658 0.29635 0.0
H596 H 0.7737 1.00812 0.23376 0.0
H597 H 0.76548 0.03396 0.18717 0.0
H598 H 0.77523 1.01078 0.30731 0.0
H599 H 0.74092 0.99114 0.35439 0.0
C600 C 0.99973 0.6346 0.24018 0.0
C601 C 0.99592 0.6652 0.21416 0.0
C602 C 0.02022 0.71123 0.2837 0.0
C603 C 0.02717 0.68198 0.30839 0.0
N604 N 0.0275 0.61764 0.30954 0.0
N605 N 1.00622 0.73422 0.20864 0.0
C606 C 0.01791 0.64407 0.28645 0.0
C607 C 1.00711 0.70394 0.23531 0.0
N608 N 0.98538 0.59628 0.22075 0.0
N609 N 0.02506 0.7455 0.30701 0.0
H610 H 0.99493 0.7295 0.17391 0.0
H611 H 0.01888 0.76474 0.21974 0.0
H612 H 0.03582 0.75263 0.3419 0.0
H613 H 0.01581 0.76548 0.29311 0.0
H614 H 0.98327 0.57113 0.23929 0.0
H615 H 0.97258 0.58868 0.18674 0.0
H616 H 0.0256 0.59148 0.29399 0.0
H617 H 0.04029 0.62343 0.3436 0.0
C618 C 0.73284 0.7217 0.72983 0.0
C619 C 0.70163 0.68639 0.70614 0.0
C620 C 0.65934 0.66651 0.77827 0.0
C621 C 0.69229 0.69935 0.80319 0.0
N622 N 0.76197 0.75594 0.80483 0.0
N623 N 0.63675 0.623 0.70796 0.0
C624 C 0.72945 0.72644 0.7795 0.0
C625 C 0.66517 0.65825 0.73037 0.0
N626 N 0.76519 0.7513 0.7045 0.0
N627 N 0.62227 0.64376 0.80025 0.0
H628 H 0.6398 0.6163 0.67273 0.0
H629 H 0.61164 0.599 0.72504 0.0
H630 H 0.6172 0.64871 0.83545 0.0
H631 H 0.59569 0.62227 0.78276 0.0
H632 H 0.78651 0.77989 0.71845 0.0
H633 H 0.76904 0.74874 0.6682 0.0
H634 H 0.79144 0.77328 0.79102 0.0
H635 H 0.76025 0.76134 0.84089 0.0
C636 C 0.36351 1.0009 0.7454 0.0
C637 C 0.33665 0.01123 0.72101 0.0
C638 C 0.29633 0.99926 0.79373 0.0
C639 C 0.32151 0.98622 0.81721 0.0
N640 N 0.37588 0.96965 0.81481 0.0
N641 N 0.27399 0.01432 0.719 0.0
C642 C 0.35415 0.9855 0.79279 0.0
C643 C 0.30213 1.00891 0.74441 0.0
N644 N 0.39866 1.00712 0.72366 0.0
N645 N 0.26727 1.00306 0.81884 0.0
H646 H 0.27724 0.02175 0.68291 0.0
H647 H 0.24582 1.00836 0.73259 0.0
H648 H 0.26051 0.99417 0.85435 0.0
H649 H 0.25158 0.01739 0.80549 0.0
H650 H 0.42177 1.00439 0.74094 0.0
H651 H 0.40636 0.01825 0.68897 0.0
H652 H 0.39692 0.96388 0.79743 0.0
H653 H 0.37079 0.95941 0.84999 0.0
C654 C 1.00125 0.36943 0.73039 0.0
C655 C 0.99541 0.33453 0.70408 0.0
C656 C 1.01282 0.30718 0.77454 0.0
C657 C 0.02144 0.34345 0.79991 0.0
N658 N 0.02832 0.41113 0.80174 0.0
N659 N 1.00034 0.27263 0.69837 0.0
C660 C 0.01687 0.37518 0.77774 0.0
C661 C 1.00245 0.30403 0.72545 0.0
N662 N 0.99104 0.39654 0.71027 0.0
N663 N 1.0135 0.27526 0.7978 0.0
H664 H 0.99135 0.26826 0.66275 0.0
H665 H 1.01008 0.25242 0.71012 0.0
H666 H 0.0223 0.27688 0.83332 0.0
H667 H 1.00271 0.2461 0.78305 0.0
H668 H 0.99048 0.42033 0.7288 0.0
H669 H 0.98022 0.3935 0.67544 0.0
H670 H 0.0299 0.43725 0.78627 0.0
H671 H 0.03907 0.41596 0.83673 0.0
C672 C 0.64325 0.26436 0.04976 0.0
C673 C 0.60581 0.22803 0.03906 0.0
C674 C 0.63914 0.18618 0.0481 0.0
C675 C 0.67617 0.2223 0.06037 0.0
N676 N 0.71158 0.29419 0.08319 0.0
N677 N 0.56526 0.1535 0.04012 0.0
C678 C 0.67749 0.26084 0.0649 0.0
C679 C 0.60286 0.1886 0.04164 0.0
N680 N 0.6469 0.30235 0.04259 0.0
N681 N 0.63881 0.14967 0.042 0.0
H682 H 0.53775 0.1539 0.03731 0.0
H683 H 0.56092 0.12408 0.04644 0.0
H684 H 0.66421 0.14622 0.04945 0.0
H685 H 0.61415 0.12348 0.02722 0.0
H686 H 0.67464 0.33 0.04486 0.0
H687 H 0.62294 0.30634 0.03 0.0
H688 H 0.71273 0.32184 0.09196 0.0
H689 H 0.73757 0.29307 0.09381 0.0
C690 C 0.85366 0.41598 0.02332 0.0
C691 C 0.8308 0.3813 0.05318 0.0
C692 C 0.80213 0.41821 0.09538 0.0
C693 C 0.82191 0.4516 0.06281 0.0
N694 N 0.87776 0.48864 1.00814 0.0
N695 N 0.80377 0.36038 0.13221 0.0
C696 C 0.85142 0.45254 0.03065 0.0
C697 C 0.81166 0.38587 0.09412 0.0
N698 N 0.87743 0.41381 0.98808 0.0
N699 N 0.77245 0.41567 0.12537 0.0
H700 H 0.81478 0.33974 0.13415 0.0
H701 H 0.79203 0.36413 0.16415 0.0
H702 H 0.76353 0.43795 0.12711 0.0
H703 H 0.75426 0.38951 0.14582 0.0
H704 H 0.89056 0.43563 0.96106 0.0
H705 H 0.88365 0.38954 0.98587 0.0
H706 H 0.90202 0.49241 0.98691 0.0
H707 H 0.87778 0.51619 0.01457 0.0
C708 C 0.62788 0.38805 0.08153 0.0
C709 C 0.63451 0.41662 0.04443 0.0
C710 C 0.56027 0.38009 0.02729 0.0
C711 C 0.55465 0.34796 0.05887 0.0
N712 N 0.58284 0.32097 0.11683 0.0
N713 N 0.60728 0.44163 0.98314 0.0
C714 C 0.58821 0.35225 0.08702 0.0
C715 C 0.60066 0.41324 0.01786 0.0
N716 N 0.65966 0.39477 0.11102 0.0
N717 N 0.52658 0.3794 1.00751 0.0
H718 H 0.63557 0.46834 0.97817 0.0
H719 H 0.58528 0.4382 0.95815 0.0
H720 H 0.49665 0.35614 0.01488 0.0
H721 H 0.52773 0.40347 0.98753 0.0
H722 H 0.65626 0.37777 0.14174 0.0
H723 H 0.68935 0.41949 0.10681 0.0
H724 H 0.60677 0.3193 0.13351 0.0
H725 H 0.55438 0.29496 0.12288 0.0
C726 C 0.23044 0.63459 0.43236 0.0
C727 C 0.20842 0.64607 0.46404 0.0
C728 C 0.18231 0.57992 0.50591 0.0
C729 C 0.20674 0.57008 0.4762 0.0
N730 N 0.23448 0.57792 0.397 0.0
N731 N 0.15249 0.6238 0.51929 0.0
C732 C 0.22439 0.59397 0.43469 0.0
C733 C 0.18079 0.61675 0.4972 0.0
N734 N 0.2592 0.66278 0.40217 0.0
N735 N 0.16043 0.55392 0.54219 0.0
H736 H 0.14965 0.64971 0.51187 0.0
H737 H 0.12931 0.60237 0.54111 0.0
H738 H 0.15636 0.52425 0.54545 0.0
H739 H 0.1467 0.56181 0.56915 0.0
H740 H 0.27934 0.65678 0.38295 0.0
H741 H 0.26558 0.69316 0.3991 0.0
H742 H 0.24475 0.59345 0.36471 0.0
H743 H 0.22713 0.54718 0.39551 0.0
C744 C 0.43615 0.60675 0.47219 0.0
C745 C 0.43352 0.64317 0.47794 0.0
C746 C 0.35964 0.6038 0.46061 0.0
C747 C 0.36109 0.5665 0.46171 0.0
N748 N 0.4001 0.53156 0.46935 0.0
N749 N 0.39221 0.67611 0.48211 0.0
C750 C 0.3993 0.56776 0.46735 0.0
C751 C 0.39513 0.64164 0.47316 0.0
N752 N 0.47381 0.60945 0.47186 0.0
N753 N 0.32436 0.60315 0.44707 0.0
H754 H 0.41755 0.7049 0.48954 0.0
H755 H 0.3644 0.67576 0.48514 0.0
H756 H 0.29803 0.57609 0.43729 0.0
H757 H 0.32238 0.62963 0.44079 0.0
H758 H 0.47841 0.58493 0.46339 0.0
H759 H 0.50104 0.63724 0.47698 0.0
H760 H 0.42596 0.52966 0.47873 0.0
H761 H 0.37402 0.50285 0.4636 0.0
C762 C 0.46082 0.83839 0.48231 0.0
C763 C 0.46363 0.80801 0.45491 0.0
C764 C 0.39063 0.77782 0.43344 0.0
C765 C 0.38625 0.80224 0.46895 0.0
N766 N 0.41728 0.85811 0.52522 0.0
N767 N 0.43017 0.7471 0.40512 0.0
C768 C 0.42151 0.83346 0.49254 0.0
C769 C 0.4285 0.7778 0.42969 0.0
N770 N 0.49595 0.87253 0.49737 0.0
N771 N 0.3585 0.75418 0.40385 0.0
H772 H 0.45644 0.74452 0.40256 0.0
H773 H 0.40441 0.72168 0.39081 0.0
H774 H 0.33054 0.7536 0.40568 0.0
H775 H 0.36089 0.73872 0.37436 0.0
H776 H 0.49638 0.89764 0.51394 0.0
H777 H 0.52515 0.87764 0.48883 0.0
H778 H 0.4407 0.87781 0.54813 0.0
H779 H 0.3896 0.85772 0.53059 0.0
C780 C 0.36436 0.77589 0.94188 0.0
C781 C 0.36073 0.8077 0.9654 0.0
C782 C 0.4303 0.83538 0.99784 0.0
C783 C 0.43431 0.80459 0.97288 0.0
N784 N 0.41016 0.75335 0.91112 0.0
N785 N 0.39408 0.87375 1.00485 0.0
C786 C 0.40285 0.77725 0.94179 0.0
C787 C 0.39498 0.83938 0.98997 0.0
N788 N 0.3308 0.74298 0.92199 0.0
N789 N 0.45903 0.8594 0.03096 0.0
H790 H 0.36912 0.87816 0.99843 0.0
H791 H 0.41953 0.89963 0.01896 0.0
H792 H 0.48521 0.85736 0.03824 0.0
H793 H 0.45518 0.87895 0.05409 0.0
H794 H 0.33089 0.71657 0.91025 0.0
H795 H 0.30191 0.74025 0.92039 0.0
H796 H 0.38987 0.73586 0.88414 0.0
H797 H 0.43851 0.75463 0.90934 0.0
C798 C 0.23797 0.62139 0.02916 0.0
C799 C 0.22952 0.64415 0.99452 0.0
C800 C 0.22207 0.59307 0.93469 0.0
C801 C 0.22423 0.5676 0.97094 0.0
N802 N 0.2206 0.55292 0.05483 0.0
N803 N 0.203 0.64451 0.91583 0.0
C804 C 0.22822 0.58036 0.01885 0.0
C805 C 0.21865 0.62809 0.94758 0.0
N806 N 0.25742 0.63917 0.07086 0.0
N807 N 0.22433 0.58466 0.88794 0.0
H808 H 0.19669 0.66788 0.92448 0.0
H809 H 0.19147 0.63137 0.88266 0.0
H810 H 0.22817 0.56015 0.87697 0.0
H811 H 0.22683 0.60462 0.86049 0.0
H812 H 0.26644 0.62397 0.09513 0.0
H813 H 0.26967 0.67045 0.07824 0.0
H814 H 0.21946 0.56018 0.09038 0.0
H815 H 0.21086 0.52185 0.04866 0.0
C816 C 0.43537 0.65507 0.01858 0.0
C817 C 0.40273 0.64071 0.98519 0.0
C818 C 0.45042 0.68411 0.92305 0.0
C819 C 0.48351 0.6962 0.95561 0.0
N820 N 0.50885 0.68984 0.03244 0.0
N821 N 0.37663 0.6467 0.90904 0.0
C822 C 0.47637 0.68137 1.00317 0.0
C823 C 0.40945 0.65704 0.93845 0.0
N824 N 0.42675 0.64424 0.0654 0.0
N825 N 0.45857 0.69724 0.87681 0.0
H826 H 0.34642 0.62632 0.91892 0.0
H827 H 0.37858 0.66007 0.87597 0.0
H828 H 0.48793 0.71838 0.86478 0.0
H829 H 0.43687 0.68644 0.84963 0.0
H830 H 0.44834 0.65668 0.09265 0.0
H831 H 0.3969 0.6255 0.07779 0.0
H832 H 0.50597 0.67619 0.06557 0.0
H833 H 0.53939 0.70844 0.02245 0.0
C834 C 0.84719 0.43693 0.54723 0.0
C835 C 0.81109 0.43942 0.55455 0.0
C836 C 0.77656 0.36893 0.58669 0.0
C837 C 0.80983 0.36408 0.57163 0.0
N838 N 0.87737 0.39286 0.53799 0.0
N839 N 0.73905 0.40531 0.57449 0.0
C840 C 0.84555 0.39811 0.55243 0.0
C841 C 0.7753 0.40505 0.57335 0.0
N842 N 0.88304 0.47181 0.5358 0.0
N843 N 0.74574 0.33864 0.61295 0.0
H844 H 0.73615 0.4302 0.5626 0.0
H845 H 0.71101 0.37937 0.58265 0.0
H846 H 0.74588 0.31181 0.62311 0.0
H847 H 0.72256 0.3421 0.6287 0.0
H848 H 0.91133 0.47306 0.53413 0.0
H849 H 0.88505 0.50057 0.53188 0.0
H850 H 0.90226 0.41476 0.51851 0.0
H851 H 0.87795 0.36553 0.544 0.0
C852 C 0.6244 0.40118 0.57751 0.0
C853 C 0.60562 0.39332 0.53187 0.0
C854 C 0.64959 0.466 0.51171 0.0
C855 C 0.67457 0.47158 0.5521 0.0
N856 N 0.68671 0.44091 0.62258 0.0
N857 N 0.60709 0.41773 0.4516 0.0
C858 C 0.6622 0.43839 0.58519 0.0
C859 C 0.61996 0.42561 0.49785 0.0
N860 N 0.60553 0.37428 0.61421 0.0
N861 N 0.65365 0.49938 0.48693 0.0
H862 H 0.58786 0.38805 0.43862 0.0
H863 H 0.61963 0.44016 0.42503 0.0
H864 H 0.67316 0.52968 0.4981 0.0
H865 H 0.634 0.49677 0.45915 0.0
H866 H 0.61615 0.38072 0.64916 0.0
H867 H 0.57675 0.34795 0.61108 0.0
H868 H 0.68053 0.4156 0.64394 0.0
H869 H 0.71514 0.46641 0.6299 0.0
C870 C 0.62039 0.23986 0.59128 0.0
C871 C 0.62755 0.21969 0.5529 0.0
C872 C 0.55502 0.18908 0.52911 0.0
C873 C 0.55028 0.21555 0.56141 0.0
N874 N 0.57919 0.26798 0.62227 0.0
N875 N 0.60114 0.17252 0.48674 0.0
C876 C 0.58293 0.24095 0.59286 0.0
C877 C 0.59458 0.1934 0.52236 0.0
N878 N 0.64924 0.25791 0.62623 0.0
N879 N 0.52128 0.15872 0.50628 0.0
H880 H 0.62816 0.17119 0.48389 0.0
H881 H 0.58038 0.15757 0.45919 0.0
H882 H 0.4917 0.15375 0.51189 0.0
H883 H 0.52174 0.13591 0.48554 0.0
H884 H 0.64435 0.26989 0.65734 0.0
H885 H 0.67648 0.25697 0.62656 0.0
H886 H 0.6036 0.29086 0.64158 0.0
H887 H 0.55244 0.26979 0.62473 0.0
C888 C 0.40534 0.16778 0.79116 0.0
C889 C 0.43461 0.19817 0.76015 0.0
C890 C 0.4703 0.24192 0.82924 0.0
C891 C 0.4441 0.2093 0.86032 0.0
N892 N 0.39007 0.13867 0.87062 0.0
N893 N 0.49785 0.26238 0.74957 0.0
C894 C 0.41234 0.1716 0.84123 0.0
C895 C 0.46776 0.23493 0.77913 0.0
N896 N 0.37017 0.13577 0.77272 0.0
N897 N 0.49674 0.28004 0.84749 0.0
H898 H 0.49687 0.25867 0.71276 0.0
H899 H 0.52524 0.28721 0.76173 0.0
H900 H 0.49913 0.28649 0.88379 0.0
H901 H 0.51352 0.30617 0.82651 0.0
H902 H 0.34582 0.11457 0.79346 0.0
H903 H 0.3635 0.13296 0.73643 0.0
H904 H 0.36966 0.10912 0.85826 0.0
H905 H 0.39452 0.13983 0.90732 0.0
C906 C 0.78436 0.20401 0.77536 0.0
C907 C 0.77281 0.22972 0.7503 0.0
C908 C 0.75368 0.24881 0.82522 0.0
C909 C 0.76979 0.22701 0.85048 0.0
N910 N 0.808 0.1906 0.84984 0.0
N911 N 0.75318 0.28233 0.75154 0.0
C912 C 0.78711 0.20631 0.82567 0.0
C913 C 0.75914 0.25364 0.77521 0.0
N914 N 0.79135 0.17635 0.75127 0.0
N915 N 0.732 0.26375 0.84874 0.0
H916 H 0.75763 0.28747 0.71503 0.0
H917 H 0.74756 0.3037 0.76872 0.0
H918 H 0.72669 0.26016 0.88528 0.0
H919 H 0.71598 0.27615 0.83145 0.0
H920 H 0.79568 0.1539 0.76817 0.0
H921 H 0.78872 0.17299 0.71441 0.0
H922 H 0.82501 0.17924 0.83298 0.0
H923 H 0.81183 0.19258 0.88666 0.0
C924 C 0.81742 0.53278 0.82068 0.0
C925 C 0.78534 0.53299 0.84692 0.0
C926 C 0.754 0.5388 0.77281 0.0
C927 C 0.78868 0.54377 0.74728 0.0
N928 N 0.85688 0.55248 0.7479 0.0
N929 N 0.72716 0.54409 0.84886 0.0
C930 C 0.82133 0.54251 0.77141 0.0
C931 C 0.75458 0.53799 0.82328 0.0
N932 N 0.8434 0.52204 0.84248 0.0
N933 N 0.71988 0.53341 0.74889 0.0
H934 H 0.72708 0.5449 0.8859 0.0
H935 H 0.70705 0.55239 0.83331 0.0
H936 H 0.71783 0.53282 0.71187 0.0
H937 H 0.69222 0.52539 0.76567 0.0
H938 H 0.86467 0.51722 0.82407 0.0
H939 H 0.84104 0.51397 0.87835 0.0
H940 H 0.88328 0.55643 0.76496 0.0
H941 H 0.86142 0.56068 0.71204 0.0
C942 C 0.24312 0.49555 0.70718 0.0
C943 C 0.25278 0.46925 0.68051 0.0
C944 C 0.26798 0.44407 0.75415 0.0
C945 C 0.25992 0.4716 0.78045 0.0
N946 N 0.2522 0.53189 0.78138 0.0
N947 N 0.28596 0.42801 0.67774 0.0
C948 C 0.25166 0.50018 0.75663 0.0
C949 C 0.26888 0.44648 0.70374 0.0
N950 N 0.22325 0.51389 0.68632 0.0
N951 N 0.2724 0.41406 0.77685 0.0
H952 H 0.28853 0.43037 0.6408 0.0
H953 H 0.30152 0.41425 0.6931 0.0
H954 H 0.27186 0.41098 0.8137 0.0
H955 H 0.27337 0.39018 0.7589 0.0
H956 H 0.21186 0.52983 0.70552 0.0
H957 H 0.21429 0.50979 0.65073 0.0
H958 H 0.24999 0.55586 0.76515 0.0
H959 H 0.25948 0.53655 0.81752 0.0
C960 C 0.54655 0.78645 0.70592 0.0
C961 C 0.56905 0.77789 0.67183 0.0
C962 C 0.59836 0.75481 0.73517 0.0
C963 C 0.57877 0.76685 0.76959 0.0
N964 N 0.53536 0.79535 0.78904 0.0
N965 N 0.61846 0.75667 0.65288 0.0
C966 C 0.55315 0.78302 0.75529 0.0
C967 C 0.59553 0.7628 0.68616 0.0
N968 N 0.51846 0.79729 0.69092 0.0
N969 N 0.61917 0.73514 0.74928 0.0
H970 H 0.61548 0.75964 0.61641 0.0
H971 H 0.64223 0.75099 0.66125 0.0
H972 H 0.623 0.72982 0.78479 0.0
H973 H 0.63021 0.72137 0.72596 0.0
H974 H 0.49771 0.79961 0.71328 0.0
H975 H 0.51407 0.80166 0.65519 0.0
H976 H 0.52043 0.8119 0.78154 0.0
H977 H 0.53698 0.79063 0.82536 0.0
C978 C 0.27248 0.80358 0.74918 0.0
C979 C 0.24417 0.76944 0.77694 0.0
C980 C 0.2181 0.72729 0.70493 0.0
C981 C 0.24299 0.76269 0.67697 0.0
N982 N 0.28845 0.83645 0.67182 0.0
N983 N 0.18475 0.70101 0.78063 0.0
C984 C 0.26878 0.80141 0.69886 0.0
C985 C 0.21558 0.73178 0.75471 0.0
N986 N 0.30392 0.83743 0.77068 0.0
N987 N 0.19781 0.68916 0.68416 0.0
H988 H 0.18084 0.70344 0.81692 0.0
H989 H 0.16062 0.67469 0.76532 0.0
H990 H 0.19921 0.68459 0.64779 0.0
H991 H 0.18282 0.66176 0.70351 0.0
H992 H 0.32779 0.86139 0.75191 0.0
H993 H 0.30856 0.83979 0.80738 0.0
H994 H 0.30392 0.86604 0.6863 0.0
H995 H 0.28616 0.83637 0.63485 0.0
C996 C 0.55006 0.80533 0.18376 0.0
C997 C 0.56374 0.7822 0.15709 0.0
C998 C 0.58146 0.75965 0.23125 0.0
C999 C 0.56435 0.77973 0.25787 0.0
N1000 N 0.52458 0.8144 0.25913 0.0
N1001 N 0.5856 0.73147 0.15517 0.0
C1002 C 0.54643 0.80053 0.23402 0.0
C1003 C 0.57748 0.75765 0.18078 0.0
N1004 N 0.54235 0.8334 0.16144 0.0
N1005 N 0.60324 0.74419 0.25391 0.0
H1006 H 0.58273 0.72899 0.11824 0.0
H1007 H 0.59149 0.70958 0.17075 0.0
H1008 H 0.60767 0.74578 0.29064 0.0
H1009 H 0.62014 0.73324 0.23601 0.0
H1010 H 0.5368 0.85437 0.1797 0.0
H1011 H 0.54533 0.83859 0.12485 0.0
H1012 H 0.50719 0.82582 0.24304 0.0
H1013 H 0.52043 0.81075 0.29583 0.0
C1014 C 0.3021 0.79403 0.20525 0.0
C1015 C 0.27765 0.80698 0.17998 0.0
C1016 C 0.25473 0.8216 0.25492 0.0
C1017 C 0.27407 0.80282 0.27988 0.0
N1018 N 0.31345 0.76775 0.27936 0.0
N1019 N 0.22569 0.8273 0.18041 0.0
C1020 C 0.29747 0.78848 0.25532 0.0
C1021 C 0.25289 0.81964 0.20464 0.0
N1022 N 0.33017 0.78774 0.18141 0.0
N1023 N 0.23881 0.84203 0.27932 0.0
H1024 H 0.2225 0.82543 0.14353 0.0
H1025 H 0.20357 0.83185 0.19718 0.0
H1026 H 0.24033 0.8448 0.31629 0.0
H1027 H 0.22798 0.85979 0.26276 0.0
H1028 H 0.35167 0.78215 0.19835 0.0
H1029 H 0.33449 0.79188 0.14475 0.0
H1030 H 0.32677 0.75248 0.2626 0.0
H1031 H 0.31074 0.76312 0.31605 0.0
C1032 C 0.28257 0.50638 0.20044 0.0
C1033 C 0.24845 0.49379 0.16946 0.0
C1034 C 0.20143 0.4635 0.23675 0.0
C1035 C 0.23561 0.47916 0.2681 0.0
N1036 N 0.30834 0.52393 0.28093 0.0
N1037 N 0.17587 0.4678 0.15891 0.0
C1038 C 0.27611 0.50309 0.2503 0.0
C1039 C 0.20796 0.47452 0.18785 0.0
N1040 N 0.32088 0.5195 0.1824 0.0
N1041 N 0.16293 0.4366 0.25316 0.0
H1042 H 0.17954 0.47595 0.12303 0.0
H1043 H 0.14632 0.45782 0.17142 0.0
H1044 H 0.1569 0.42719 0.28857 0.0
H1045 H 0.13757 0.42072 0.23092 0.0
H1046 H 0.34588 0.52461 0.20344 0.0
H1047 H 0.32699 0.52147 0.14607 0.0
H1048 H 0.33787 0.54517 0.26966 0.0
H1049 H 0.30482 0.52334 0.31774 0.0
C1050 C 0.74123 0.53991 0.3216 0.0
C1051 C 0.77508 0.54149 0.34619 0.0
C1052 C 0.80042 0.52895 0.27172 0.0
C1053 C 0.77032 0.53371 0.24639 0.0
N1054 N 0.71492 0.54904 0.2465 0.0
N1055 N 0.84121 0.5451 0.34333 0.0
C1056 C 0.7412 0.54032 0.27107 0.0
C1057 C 0.80578 0.5378 0.321 0.0
N1058 N 0.70858 0.53679 0.34645 0.0
N1059 N 0.82334 0.51512 0.24884 0.0
H1060 H 0.84744 0.55352 0.379 0.0
H1061 H 0.86629 0.54706 0.32526 0.0
H1062 H 0.81943 0.50721 0.21287 0.0
H1063 H 0.84297 0.5073 0.26656 0.0
H1064 H 0.68132 0.53139 0.33031 0.0
H1065 H 0.70714 0.53555 0.38349 0.0
H1066 H 0.69634 0.55876 0.26286 0.0
H1067 H 0.71402 0.54988 0.20948 0.0
C1068 C 0.44111 0.25849 0.33074 0.0
C1069 C 0.45886 0.23743 0.35446 0.0
C1070 C 0.46676 0.21094 0.27749 0.0
C1071 C 0.45362 0.2359 0.25341 0.0
N1072 N 0.43375 0.28827 0.25707 0.0
N1073 N 0.49424 0.19842 0.34988 0.0
C1074 C 0.44199 0.26081 0.28002 0.0
C1075 C 0.47302 0.21475 0.3277 0.0
N1076 N 0.4223 0.27528 0.35664 0.0
N1077 N 0.47208 0.1826 0.25249 0.0
H1078 H 0.49996 0.20086 0.38638 0.0
H1079 H 0.50936 0.18568 0.33163 0.0
H1080 H 0.46716 0.17848 0.21589 0.0
H1081 H 0.47742 0.1605 0.26853 0.0
H1082 H 0.40505 0.28724 0.34144 0.0
H1083 H 0.42069 0.2738 0.39367 0.0
H1084 H 0.42953 0.3104 0.27463 0.0
H1085 H 0.43456 0.29146 0.22021 0.0
C1086 C 0.79957 0.29573 0.3326 0.0
C1087 C 0.77902 0.25875 0.35944 0.0
C1088 C 0.7549 0.2181 0.28643 0.0
C1089 C 0.77889 0.2546 0.25965 0.0
N1090 N 0.8292 0.32724 0.25683 0.0
N1091 N 0.74324 0.18421 0.36287 0.0
C1092 C 0.80256 0.29327 0.28255 0.0
C1093 C 0.75829 0.21973 0.33666 0.0
N1094 N 0.81511 0.33313 0.35476 0.0
N1095 N 0.72773 0.18224 0.26398 0.0
H1096 H 0.74551 0.18403 0.39983 0.0
H1097 H 0.7319 0.15506 0.34778 0.0
H1098 H 0.72361 0.17995 0.22719 0.0
H1099 H 0.70645 0.15579 0.28199 0.0
H1100 H 0.82638 0.36099 0.33649 0.0
H1101 H 0.81358 0.33612 0.39145 0.0
H1102 H 0.85043 0.35518 0.27227 0.0
H1103 H 0.83273 0.3266 0.22015 0.0
loop_
_geom_bond_atom_site_label_1
_geom_bond_atom_site_label_2
_geom_bond_distance
_geom_bond_site_symmetry_2
_ccdc_geom_bond_type
O0 Tb1 2.292 1_556 S
O0 C3 1.255 . S
Tb1 O0 2.292 1_554 S
Tb1 O17 2.326 . S
Tb1 O19 2.500 1_554 S
Tb1 O20 2.473 . S
Tb1 O23 2.324 . S
Eu2 O6 2.292 . S
Eu2 C7 2.852 . S
Eu2 O18 2.324 . S
Eu2 O22 2.326 . S
Eu2 O24 2.500 . S
Eu2 O25 2.473 . S
C3 O0 1.255 . S
C3 O4 1.247 . S
O4 C3 1.247 . S
C5 O17 1.242 . S
C5 O18 1.258 . S
O6 Eu2 2.292 . S
O6 C8 1.255 . S
C7 Eu2 2.852 . S
C7 C11 1.503 . S
C7 O24 1.273 . S
C7 O25 1.257 . S
C8 O6 1.255 . S
C8 O9 1.247 . S
O9 C8 1.247 . S
C10 O22 1.242 . S
C10 O23 1.258 . S
C11 C7 1.503 . S
C11 C12 1.379 . S
C11 C16 1.392 . S
C12 C11 1.379 . S
C12 C13 1.404 . S
C12 H26 0.929 . S
C13 C12 1.404 . S
C13 C14 1.389 . S
C14 C13 1.389 . S
C14 C15 1.399 . S
C14 H27 0.931 . S
C15 C14 1.399 . S
C15 C16 1.390 . S
C16 C11 1.392 . S
C16 C15 1.390 . S
C16 H28 0.929 . S
O17 Tb1 2.326 . S
O17 C5 1.242 . S
O18 Eu2 2.324 . S
O18 C5 1.258 . S
O19 Tb1 2.500 1_556 S
O19 C21 1.273 1_556 S
O20 Tb1 2.473 . S
O20 C21 1.257 . S
C21 O19 1.273 1_554 S
C21 O20 1.257 . S
O22 Eu2 2.326 . S
O22 C10 1.242 . S
O23 Tb1 2.324 . S
O23 C10 1.258 . S
O24 Eu2 2.500 . S
O24 C7 1.273 . S
O25 Eu2 2.473 . S
O25 C7 1.257 . S
H26 C12 0.929 . S
H27 C14 0.931 . S
H28 C16 0.929 . S
O29 Tb30 2.292 1_556 S
O29 C32 1.255 . S
Tb30 O29 2.292 1_554 S
Tb30 O46 2.326 . S
Tb30 O48 2.500 1_554 S
Tb30 O49 2.473 . S
Tb30 O52 2.324 . S
Eu31 O35 2.292 . S
Eu31 C36 2.852 . S
Eu31 O47 2.324 . S
Eu31 O51 2.326 . S
Eu31 O53 2.500 . S
Eu31 O54 2.473 . S
C32 O29 1.255 . S
C32 O33 1.247 . S
O33 C32 1.247 . S
C34 O46 1.242 . S
C34 O47 1.258 . S
O35 Eu31 2.292 . S
O35 C37 1.255 . S
C36 Eu31 2.852 . S
C36 C40 1.503 . S
C36 O53 1.273 . S
C36 O54 1.257 . S
C37 O35 1.255 . S
C37 O38 1.247 . S
O38 C37 1.247 . S
C39 O51 1.242 . S
C39 O52 1.258 . S
C40 C36 1.503 . S
C40 C41 1.379 . S
C40 C45 1.392 . S
C41 C40 1.379 . S
C41 C42 1.404 . S
C41 H55 0.929 . S
C42 C41 1.404 . S
C42 C43 1.389 . S
C43 C42 1.389 . S
C43 C44 1.399 . S
C43 H56 0.931 1_545 S
C44 C43 1.399 . S
C44 C45 1.390 . S
C45 C40 1.392 . S
C45 C44 1.390 . S
C45 H57 0.929 . S
O46 Tb30 2.326 . S
O46 C34 1.242 . S
O47 Eu31 2.324 . S
O47 C34 1.258 . S
O48 Tb30 2.500 1_556 S
O48 C50 1.273 1_556 S
O49 Tb30 2.473 . S
O49 C50 1.257 . S
C50 O48 1.273 1_554 S
C50 O49 1.257 . S
O51 Eu31 2.326 . S
O51 C39 1.242 . S
O52 Tb30 2.324 . S
O52 C39 1.258 . S
O53 Eu31 2.500 . S
O53 C36 1.273 . S
O54 Eu31 2.473 . S
O54 C36 1.257 . S
H55 C41 0.929 . S
H56 C43 0.931 1_565 S
H57 C45 0.929 . S
O58 Tb59 2.292 1_556 S
O58 C61 1.255 . S
Tb59 O58 2.292 1_554 S
Tb59 O75 2.326 . S
Tb59 O77 2.500 1_554 S
Tb59 O78 2.473 . S
Tb59 O81 2.324 . S
Eu60 O64 2.292 . S
Eu60 C65 2.852 . S
Eu60 O76 2.324 . S
Eu60 O80 2.326 . S
Eu60 O82 2.500 . S
Eu60 O83 2.473 . S
C61 O58 1.255 . S
C61 O62 1.247 . S
O62 C61 1.247 . S
C63 O75 1.242 . S
C63 O76 1.258 . S
O64 Eu60 2.292 . S
O64 C66 1.255 . S
C65 Eu60 2.852 . S
C65 C69 1.503 . S
C65 O82 1.273 . S
C65 O83 1.257 . S
C66 O64 1.255 . S
C66 O67 1.247 . S
O67 C66 1.247 . S
C68 O80 1.242 . S
C68 O81 1.258 . S
C69 C65 1.503 . S
C69 C70 1.379 . S
C69 C74 1.392 . S
C70 C69 1.379 . S
C70 C71 1.404 . S
C70 H84 0.929 . S
C71 C70 1.404 . S
C71 C72 1.389 . S
C72 C71 1.389 . S
C72 C73 1.399 . S
C72 H85 0.931 1_655 S
C73 C72 1.399 . S
C73 C74 1.390 . S
C74 C69 1.392 . S
C74 C73 1.390 . S
C74 H86 0.929 . S
O75 Tb59 2.326 . S
O75 C63 1.242 . S
O76 Eu60 2.324 . S
O76 C63 1.258 . S
O77 Tb59 2.500 1_556 S
O77 C79 1.273 1_556 S
O78 Tb59 2.473 . S
O78 C79 1.257 . S
C79 O77 1.273 1_554 S
C79 O78 1.257 . S
O80 Eu60 2.326 . S
O80 C68 1.242 . S
O81 Tb59 2.324 . S
O81 C68 1.258 . S
O82 Eu60 2.500 . S
O82 C65 1.273 . S
O83 Eu60 2.473 . S
O83 C65 1.257 . S
H84 C70 0.929 . S
H85 C72 0.931 1_455 S
H86 C74 0.929 . S
O87 Tb88 2.292 . S
O87 C90 1.255 . S
Tb88 O87 2.292 . S
Tb88 O104 2.326 . S
Tb88 O106 2.500 . S
Tb88 O107 2.473 . S
Tb88 O110 2.324 . S
Eu89 O93 2.292 . S
Eu89 C94 2.852 . S
Eu89 O105 2.324 . S
Eu89 O109 2.326 . S
Eu89 O111 2.500 . S
Eu89 O112 2.473 . S
C90 O87 1.255 . S
C90 O91 1.247 . S
O91 C90 1.247 . S
C92 O104 1.242 . S
C92 O105 1.258 . S
O93 Eu89 2.292 . S
O93 C95 1.255 . S
C94 Eu89 2.852 . S
C94 C98 1.503 . S
C94 O111 1.273 . S
C94 O112 1.257 . S
C95 O93 1.255 . S
C95 O96 1.247 . S
O96 C95 1.247 . S
C97 O109 1.242 . S
C97 O110 1.258 . S
C98 C94 1.503 . S
C98 C99 1.379 . S
C98 C103 1.392 . S
C99 C98 1.379 . S
C99 C100 1.404 . S
C99 H113 0.929 . S
C100 C99 1.404 . S
C100 C101 1.389 . S
C101 C100 1.389 . S
C101 C102 1.399 . S
C101 H114 0.931 . S
C102 C101 1.399 . S
C102 C103 1.390 . S
C103 C98 1.392 . S
C103 C102 1.390 . S
C103 H115 0.929 . S
O104 Tb88 2.326 . S
O104 C92 1.242 . S
O105 Eu89 2.324 . S
O105 C92 1.258 . S
O106 Tb88 2.500 . S
O106 C108 1.273 . S
O107 Tb88 2.473 . S
O107 C108 1.257 . S
C108 O106 1.273 . S
C108 O107 1.257 . S
O109 Eu89 2.326 . S
O109 C97 1.242 . S
O110 Tb88 2.324 . S
O110 C97 1.258 . S
O111 Eu89 2.500 . S
O111 C94 1.273 . S
O112 Eu89 2.473 . S
O112 C94 1.257 . S
H113 C99 0.929 . S
H114 C101 0.931 . S
H115 C103 0.929 . S
O116 Tb117 2.292 . S
O116 C119 1.255 . S
Tb117 O116 2.292 . S
Tb117 O133 2.326 . S
Tb117 O135 2.500 . S
Tb117 O136 2.473 . S
Tb117 O139 2.324 . S
Eu118 O122 2.292 . S
Eu118 C123 2.852 . S
Eu118 O134 2.324 . S
Eu118 O138 2.326 . S
Eu118 O140 2.500 . S
Eu118 O141 2.473 . S
C119 O116 1.255 . S
C119 O120 1.247 . S
O120 C119 1.247 . S
C121 O133 1.242 . S
C121 O134 1.258 . S
O122 Eu118 2.292 . S
O122 C124 1.255 . S
C123 Eu118 2.852 . S
C123 C127 1.503 . S
C123 O140 1.273 . S
C123 O141 1.257 . S
C124 O122 1.255 . S
C124 O125 1.247 . S
O125 C124 1.247 . S
C126 O138 1.242 . S
C126 O139 1.258 . S
C127 C123 1.503 . S
C127 C128 1.379 . S
C127 C132 1.392 . S
C128 C127 1.379 . S
C128 C129 1.404 . S
C128 H142 0.929 . S
C129 C128 1.404 . S
C129 C130 1.389 . S
C130 C129 1.389 . S
C130 C131 1.399 . S
C130 H143 0.931 1_565 S
C131 C130 1.399 . S
C131 C132 1.390 . S
C132 C127 1.392 . S
C132 C131 1.390 . S
C132 H144 0.929 . S
O133 Tb117 2.326 . S
O133 C121 1.242 . S
O134 Eu118 2.324 . S
O134 C121 1.258 . S
O135 Tb117 2.500 . S
O135 C137 1.273 . S
O136 Tb117 2.473 . S
O136 C137 1.257 . S
C137 O135 1.273 . S
C137 O136 1.257 . S
O138 Eu118 2.326 . S
O138 C126 1.242 . S
O139 Tb117 2.324 . S
O139 C126 1.258 . S
O140 Eu118 2.500 . S
O140 C123 1.273 . S
O141 Eu118 2.473 . S
O141 C123 1.257 . S
H142 C128 0.929 . S
H143 C130 0.931 1_545 S
H144 C132 0.929 . S
O145 Tb146 2.292 . S
O145 C148 1.255 . S
Tb146 O145 2.292 . S
Tb146 O162 2.326 . S
Tb146 O164 2.500 . S
Tb146 O165 2.473 . S
Tb146 O168 2.324 . S
Eu147 O151 2.292 . S
Eu147 C152 2.852 . S
Eu147 O163 2.324 . S
Eu147 O167 2.326 . S
Eu147 O169 2.500 . S
Eu147 O170 2.473 . S
C148 O145 1.255 . S
C148 O149 1.247 . S
O149 C148 1.247 . S
C150 O162 1.242 . S
C150 O163 1.258 . S
O151 Eu147 2.292 . S
O151 C153 1.255 . S
C152 Eu147 2.852 . S
C152 C156 1.503 . S
C152 O169 1.273 . S
C152 O170 1.257 . S
C153 O151 1.255 . S
C153 O154 1.247 . S
O154 C153 1.247 . S
C155 O167 1.242 . S
C155 O168 1.258 . S
C156 C152 1.503 . S
C156 C157 1.379 . S
C156 C161 1.392 . S
C157 C156 1.379 . S
C157 C158 1.404 . S
C157 H171 0.929 . S
C158 C157 1.404 . S
C158 C159 1.389 . S
C159 C158 1.389 . S
C159 C160 1.399 . S
C159 H172 0.931 1_455 S
C160 C159 1.399 . S
C160 C161 1.390 . S
C161 C156 1.392 . S
C161 C160 1.390 . S
C161 H173 0.929 . S
O162 Tb146 2.326 . S
O162 C150 1.242 . S
O163 Eu147 2.324 . S
O163 C150 1.258 . S
O164 Tb146 2.500 . S
O164 C166 1.273 . S
O165 Tb146 2.473 . S
O165 C166 1.257 . S
C166 O164 1.273 . S
C166 O165 1.257 . S
O167 Eu147 2.326 . S
O167 C155 1.242 . S
O168 Tb146 2.324 . S
O168 C155 1.258 . S
O169 Eu147 2.500 . S
O169 C152 1.273 . S
O170 Eu147 2.473 . S
O170 C152 1.257 . S
H171 C157 0.929 . S
H172 C159 0.931 1_655 S
H173 C161 0.929 . S
O174 Tb175 2.292 1_554 S
O174 C177 1.255 . S
Tb175 O174 2.292 1_556 S
Tb175 O191 2.326 . S
Tb175 O193 2.500 1_556 S
Tb175 O194 2.473 . S
Tb175 O197 2.324 . S
Eu176 O180 2.292 . S
Eu176 C181 2.852 . S
Eu176 O192 2.324 . S
Eu176 O196 2.326 . S
Eu176 O198 2.500 . S
Eu176 O199 2.473 . S
C177 O174 1.255 . S
C177 O178 1.247 . S
O178 C177 1.247 . S
C179 O191 1.242 . S
C179 O192 1.258 . S
O180 Eu176 2.292 . S
O180 C182 1.255 . S
C181 Eu176 2.852 . S
C181 C185 1.503 . S
C181 O198 1.273 . S
C181 O199 1.257 . S
C182 O180 1.255 . S
C182 O183 1.247 . S
O183 C182 1.247 . S
C184 O196 1.242 . S
C184 O197 1.258 . S
C185 C181 1.503 . S
C185 C186 1.379 . S
C185 C190 1.392 . S
C186 C185 1.379 . S
C186 C187 1.404 . S
C186 H200 0.929 . S
C187 C186 1.404 . S
C187 C188 1.389 . S
C188 C187 1.389 . S
C188 C189 1.399 . S
C188 H201 0.931 . S
C189 C188 1.399 . S
C189 C190 1.390 . S
C190 C185 1.392 . S
C190 C189 1.390 . S
C190 H202 0.929 . S
O191 Tb175 2.326 . S
O191 C179 1.242 . S
O192 Eu176 2.324 . S
O192 C179 1.258 . S
O193 Tb175 2.500 1_554 S
O193 C195 1.273 1_554 S
O194 Tb175 2.473 . S
O194 C195 1.257 . S
C195 O193 1.273 1_556 S
C195 O194 1.257 . S
O196 Eu176 2.326 . S
O196 C184 1.242 . S
O197 Tb175 2.324 . S
O197 C184 1.258 . S
O198 Eu176 2.500 . S
O198 C181 1.273 . S
O199 Eu176 2.473 . S
O199 C181 1.257 . S
H200 C186 0.929 . S
H201 C188 0.931 . S
H202 C190 0.929 . S
O203 Tb204 2.292 1_554 S
O203 C206 1.255 . S
Tb204 O203 2.292 1_556 S
Tb204 O220 2.326 . S
Tb204 O222 2.500 1_556 S
Tb204 O223 2.473 . S
Tb204 O226 2.324 . S
Eu205 O209 2.292 . S
Eu205 C210 2.852 . S
Eu205 O221 2.324 . S
Eu205 O225 2.326 . S
Eu205 O227 2.500 . S
Eu205 O228 2.473 . S
C206 O203 1.255 . S
C206 O207 1.247 . S
O207 C206 1.247 . S
C208 O220 1.242 . S
C208 O221 1.258 . S
O209 Eu205 2.292 . S
O209 C211 1.255 . S
C210 Eu205 2.852 . S
C210 C214 1.503 . S
C210 O227 1.273 . S
C210 O228 1.257 . S
C211 O209 1.255 . S
C211 O212 1.247 . S
O212 C211 1.247 . S
C213 O225 1.242 . S
C213 O226 1.258 . S
C214 C210 1.503 . S
C214 C215 1.379 . S
C214 C219 1.392 . S
C215 C214 1.379 . S
C215 C216 1.404 . S
C215 H229 0.929 . S
C216 C215 1.404 . S
C216 C217 1.389 . S
C217 C216 1.389 . S
C217 C218 1.399 . S
C217 H230 0.931 1_565 S
C218 C217 1.399 . S
C218 C219 1.390 . S
C219 C214 1.392 . S
C219 C218 1.390 . S
C219 H231 0.929 . S
O220 Tb204 2.326 . S
O220 C208 1.242 . S
O221 Eu205 2.324 . S
O221 C208 1.258 . S
O222 Tb204 2.500 1_554 S
O222 C224 1.273 1_554 S
O223 Tb204 2.473 . S
O223 C224 1.257 . S
C224 O222 1.273 1_556 S
C224 O223 1.257 . S
O225 Eu205 2.326 . S
O225 C213 1.242 . S
O226 Tb204 2.324 . S
O226 C213 1.258 . S
O227 Eu205 2.500 . S
O227 C210 1.273 . S
O228 Eu205 2.473 . S
O228 C210 1.257 . S
H229 C215 0.929 . S
H230 C217 0.931 1_545 S
H231 C219 0.929 . S
O232 Tb233 2.292 1_554 S
O232 C235 1.255 . S
Tb233 O232 2.292 1_556 S
Tb233 O249 2.326 . S
Tb233 O251 2.500 1_556 S
Tb233 O252 2.473 . S
Tb233 O255 2.324 . S
Eu234 O238 2.292 . S
Eu234 C239 2.852 . S
Eu234 O250 2.324 . S
Eu234 O254 2.326 . S
Eu234 O256 2.500 . S
Eu234 O257 2.473 . S
C235 O232 1.255 . S
C235 O236 1.247 . S
O236 C235 1.247 . S
C237 O249 1.242 . S
C237 O250 1.258 . S
O238 Eu234 2.292 . S
O238 C240 1.255 . S
C239 Eu234 2.852 . S
C239 C243 1.503 . S
C239 O256 1.273 . S
C239 O257 1.257 . S
C240 O238 1.255 . S
C240 O241 1.247 . S
O241 C240 1.247 . S
C242 O254 1.242 . S
C242 O255 1.258 . S
C243 C239 1.503 . S
C243 C244 1.379 . S
C243 C248 1.392 . S
C244 C243 1.379 . S
C244 C245 1.404 . S
C244 H258 0.929 . S
C245 C244 1.404 . S
C245 C246 1.389 . S
C246 C245 1.389 . S
C246 C247 1.399 . S
C246 H259 0.931 1_455 S
C247 C246 1.399 . S
C247 C248 1.390 . S
C248 C243 1.392 . S
C248 C247 1.390 . S
C248 H260 0.929 . S
O249 Tb233 2.326 . S
O249 C237 1.242 . S
O250 Eu234 2.324 . S
O250 C237 1.258 . S
O251 Tb233 2.500 1_554 S
O251 C253 1.273 1_554 S
O252 Tb233 2.473 . S
O252 C253 1.257 . S
C253 O251 1.273 1_556 S
C253 O252 1.257 . S
O254 Eu234 2.326 . S
O254 C242 1.242 . S
O255 Tb233 2.324 . S
O255 C242 1.258 . S
O256 Eu234 2.500 . S
O256 C239 1.273 . S
O257 Eu234 2.473 . S
O257 C239 1.257 . S
H258 C244 0.929 . S
H259 C246 0.931 1_655 S
H260 C248 0.929 . S
O261 Tb262 2.292 . S
O261 C264 1.255 . S
Tb262 O261 2.292 . S
Tb262 O278 2.326 . S
Tb262 O280 2.500 . S
Tb262 O281 2.473 . S
Tb262 O284 2.324 . S
Eu263 O267 2.292 . S
Eu263 C268 2.852 . S
Eu263 O279 2.324 . S
Eu263 O283 2.326 . S
Eu263 O285 2.500 . S
Eu263 O286 2.473 . S
C264 O261 1.255 . S
C264 O265 1.247 . S
O265 C264 1.247 . S
C266 O278 1.242 . S
C266 O279 1.258 . S
O267 Eu263 2.292 . S
O267 C269 1.255 . S
C268 Eu263 2.852 . S
C268 C272 1.503 . S
C268 O285 1.273 . S
C268 O286 1.257 . S
C269 O267 1.255 . S
C269 O270 1.247 . S
O270 C269 1.247 . S
C271 O283 1.242 . S
C271 O284 1.258 . S
C272 C268 1.503 . S
C272 C273 1.379 . S
C272 C277 1.392 . S
C273 C272 1.379 . S
C273 C274 1.404 . S
C273 H287 0.929 . S
C274 C273 1.404 . S
C274 C275 1.389 . S
C275 C274 1.389 . S
C275 C276 1.399 . S
C275 H288 0.931 . S
C276 C275 1.399 . S
C276 C277 1.390 . S
C277 C272 1.392 . S
C277 C276 1.390 . S
C277 H289 0.929 . S
O278 Tb262 2.326 . S
O278 C266 1.242 . S
O279 Eu263 2.324 . S
O279 C266 1.258 . S
O280 Tb262 2.500 . S
O280 C282 1.273 . S
O281 Tb262 2.473 . S
O281 C282 1.257 . S
C282 O280 1.273 . S
C282 O281 1.257 . S
O283 Eu263 2.326 . S
O283 C271 1.242 . S
O284 Tb262 2.324 . S
O284 C271 1.258 . S
O285 Eu263 2.500 . S
O285 C268 1.273 . S
O286 Eu263 2.473 . S
O286 C268 1.257 . S
H287 C273 0.929 . S
H288 C275 0.931 . S
H289 C277 0.929 . S
O290 Tb291 2.292 . S
O290 C293 1.255 . S
Tb291 O290 2.292 . S
Tb291 O307 2.326 . S
Tb291 O309 2.500 . S
Tb291 O310 2.473 . S
Tb291 O313 2.324 . S
Eu292 O296 2.292 . S
Eu292 C297 2.852 . S
Eu292 O308 2.324 . S
Eu292 O312 2.326 . S
Eu292 O314 2.500 . S
Eu292 O315 2.473 . S
C293 O290 1.255 . S
C293 O294 1.247 . S
O294 C293 1.247 . S
C295 O307 1.242 . S
C295 O308 1.258 . S
O296 Eu292 2.292 . S
O296 C298 1.255 . S
C297 Eu292 2.852 . S
C297 C301 1.503 . S
C297 O314 1.273 . S
C297 O315 1.257 . S
C298 O296 1.255 . S
C298 O299 1.247 . S
O299 C298 1.247 . S
C300 O312 1.242 . S
C300 O313 1.258 . S
C301 C297 1.503 . S
C301 C302 1.379 . S
C301 C306 1.392 . S
C302 C301 1.379 . S
C302 C303 1.404 . S
C302 H316 0.929 . S
C303 C302 1.404 . S
C303 C304 1.389 . S
C304 C303 1.389 . S
C304 C305 1.399 . S
C304 H317 0.931 1_545 S
C305 C304 1.399 . S
C305 C306 1.390 . S
C306 C301 1.392 . S
C306 C305 1.390 . S
C306 H318 0.929 . S
O307 Tb291 2.326 . S
O307 C295 1.242 . S
O308 Eu292 2.324 . S
O308 C295 1.258 . S
O309 Tb291 2.500 . S
O309 C311 1.273 . S
O310 Tb291 2.473 . S
O310 C311 1.257 . S
C311 O309 1.273 . S
C311 O310 1.257 . S
O312 Eu292 2.326 . S
O312 C300 1.242 . S
O313 Tb291 2.324 . S
O313 C300 1.258 . S
O314 Eu292 2.500 . S
O314 C297 1.273 . S
O315 Eu292 2.473 . S
O315 C297 1.257 . S
H316 C302 0.929 . S
H317 C304 0.931 1_565 S
H318 C306 0.929 . S
O319 Tb320 2.292 . S
O319 C322 1.255 . S
Tb320 O319 2.292 . S
Tb320 O336 2.326 . S
Tb320 O338 2.500 . S
Tb320 O339 2.473 . S
Tb320 O342 2.324 . S
Eu321 O325 2.292 . S
Eu321 C326 2.852 . S
Eu321 O337 2.324 . S
Eu321 O341 2.326 . S
Eu321 O343 2.500 . S
Eu321 O344 2.473 . S
C322 O319 1.255 . S
C322 O323 1.247 . S
O323 C322 1.247 . S
C324 O336 1.242 . S
C324 O337 1.258 . S
O325 Eu321 2.292 . S
O325 C327 1.255 . S
C326 Eu321 2.852 . S
C326 C330 1.503 . S
C326 O343 1.273 . S
C326 O344 1.257 . S
C327 O325 1.255 . S
C327 O328 1.247 . S
O328 C327 1.247 . S
C329 O341 1.242 . S
C329 O342 1.258 . S
C330 C326 1.503 . S
C330 C331 1.379 . S
C330 C335 1.392 . S
C331 C330 1.379 . S
C331 C332 1.404 . S
C331 H345 0.929 . S
C332 C331 1.404 . S
C332 C333 1.389 . S
C333 C332 1.389 . S
C333 C334 1.399 . S
C333 H346 0.931 1_655 S
C334 C333 1.399 . S
C334 C335 1.390 . S
C335 C330 1.392 . S
C335 C334 1.390 . S
C335 H347 0.929 . S
O336 Tb320 2.326 . S
O336 C324 1.242 . S
O337 Eu321 2.324 . S
O337 C324 1.258 . S
O338 Tb320 2.500 . S
O338 C340 1.273 . S
O339 Tb320 2.473 . S
O339 C340 1.257 . S
C340 O338 1.273 . S
C340 O339 1.257 . S
O341 Eu321 2.326 . S
O341 C329 1.242 . S
O342 Tb320 2.324 . S
O342 C329 1.258 . S
O343 Eu321 2.500 . S
O343 C326 1.273 . S
O344 Eu321 2.473 . S
O344 C326 1.257 . S
H345 C331 0.929 . S
H346 C333 0.931 1_455 S
H347 C335 0.929 . S
C348 C349 1.363 . S
C348 C354 1.379 . S
C348 N356 1.356 . S
C349 C348 1.363 . S
C349 C355 1.363 1_556 S
C350 C351 1.363 . S
C350 C355 1.379 . S
C350 N357 1.356 . S
C351 C350 1.363 . S
C351 C354 1.363 1_554 S
N352 C354 1.356 . S
N352 H364 0.984 . S
N352 H365 0.985 . S
N353 C355 1.356 1_565 S
N353 H358 0.984 . S
N353 H359 0.985 . S
C354 C348 1.379 . S
C354 C351 1.363 1_556 S
C354 N352 1.356 . S
C355 C349 1.363 1_554 S
C355 C350 1.379 . S
C355 N353 1.356 1_545 S
N356 C348 1.356 . S
N356 H362 0.984 . S
N356 H363 0.984 . S
N357 C350 1.356 . S
N357 H360 0.984 . S
N357 H361 0.985 . S
H358 N353 0.984 . S
H359 N353 0.985 . S
H360 N357 0.984 . S
H361 N357 0.985 . S
H362 N356 0.984 . S
H363 N356 0.984 . S
H364 N352 0.984 . S
H365 N352 0.985 . S
C366 C367 1.363 . S
C366 C372 1.379 . S
C366 N374 1.356 . S
C367 C366 1.363 . S
C367 C373 1.363 1_554 S
C368 C369 1.363 . S
C368 C373 1.379 . S
C368 N375 1.356 . S
C369 C368 1.363 . S
C369 C372 1.363 1_556 S
N370 C372 1.356 1_455 S
N370 H382 0.984 . S
N370 H383 0.985 . S
N371 C373 1.356 . S
N371 H376 0.984 . S
N371 H377 0.985 . S
C372 C366 1.379 . S
C372 C369 1.363 1_554 S
C372 N370 1.356 1_655 S
C373 C367 1.363 1_556 S
C373 C368 1.379 . S
C373 N371 1.356 . S
N374 C366 1.356 . S
N374 H380 0.984 . S
N374 H381 0.984 . S
N375 C368 1.356 . S
N375 H378 0.984 . S
N375 H379 0.985 . S
H376 N371 0.984 . S
H377 N371 0.985 . S
H378 N375 0.984 . S
H379 N375 0.985 . S
H380 N374 0.984 . S
H381 N374 0.984 . S
H382 N370 0.984 . S
H383 N370 0.985 . S
C384 C385 1.363 . S
C384 C390 1.379 . S
C384 N392 1.356 . S
C385 C384 1.363 . S
C385 C391 1.363 1_554 S
C386 C387 1.363 . S
C386 C391 1.379 . S
C386 N393 1.356 . S
C387 C386 1.363 . S
C387 C390 1.363 1_556 S
N388 C390 1.356 . S
N388 H400 0.984 . S
N388 H401 0.985 . S
N389 C391 1.356 . S
N389 H394 0.984 . S
N389 H395 0.985 . S
C390 C384 1.379 . S
C390 C387 1.363 1_554 S
C390 N388 1.356 . S
C391 C385 1.363 1_556 S
C391 C386 1.379 . S
C391 N389 1.356 . S
N392 C384 1.356 . S
N392 H398 0.984 . S
N392 H399 0.984 . S
N393 C386 1.356 . S
N393 H396 0.984 . S
N393 H397 0.985 . S
H394 N389 0.984 . S
H395 N389 0.985 . S
H396 N393 0.984 . S
H397 N393 0.985 . S
H398 N392 0.984 . S
H399 N392 0.984 . S
H400 N388 0.984 . S
H401 N388 0.985 . S
C402 C403 1.363 . S
C402 C408 1.379 . S
C402 N410 1.356 . S
C403 C402 1.363 . S
C403 C409 1.363 . S
C404 C405 1.363 . S
C404 C409 1.379 . S
C404 N411 1.356 . S
C405 C404 1.363 . S
C405 C408 1.363 . S
N406 C408 1.356 . S
N406 H418 0.984 . S
N406 H419 0.985 1_455 S
N407 C409 1.356 . S
N407 H412 0.984 . S
N407 H413 0.985 . S
C408 C402 1.379 . S
C408 C405 1.363 . S
C408 N406 1.356 . S
C409 C403 1.363 . S
C409 C404 1.379 . S
C409 N407 1.356 . S
N410 C402 1.356 . S
N410 H416 0.984 . S
N410 H417 0.984 . S
N411 C404 1.356 . S
N411 H414 0.982 . S
N411 H415 0.985 . S
H412 N407 0.984 . S
H413 N407 0.985 . S
H414 N411 0.982 . S
H415 N411 0.985 . S
H416 N410 0.984 . S
H417 N410 0.984 . S
H418 N406 0.984 . S
H419 N406 0.985 1_655 S
C420 C421 1.363 . S
C420 C426 1.379 . S
C420 N428 1.356 . S
C421 C420 1.363 . S
C421 C427 1.363 . S
C422 C423 1.363 . S
C422 C427 1.379 . S
C422 N429 1.356 . S
C423 C422 1.363 . S
C423 C426 1.363 . S
N424 C426 1.356 . S
N424 H436 0.984 . S
N424 H437 0.985 . S
N425 C427 1.356 . S
N425 H430 0.984 . S
N425 H431 0.985 . S
C426 C420 1.379 . S
C426 C423 1.363 . S
C426 N424 1.356 . S
C427 C421 1.363 . S
C427 C422 1.379 . S
C427 N425 1.356 . S
N428 C420 1.356 . S
N428 H434 0.984 . S
N428 H435 0.984 . S
N429 C422 1.356 . S
N429 H432 0.984 . S
N429 H433 0.985 . S
H430 N425 0.984 . S
H431 N425 0.985 . S
H432 N429 0.984 . S
H433 N429 0.985 . S
H434 N428 0.984 . S
H435 N428 0.984 . S
H436 N424 0.984 . S
H437 N424 0.985 . S
C438 C439 1.363 . S
C438 C444 1.379 . S
C438 N446 1.356 . S
C439 C438 1.363 . S
C439 C445 1.363 . S
C440 C441 1.363 . S
C440 C445 1.379 . S
C440 N447 1.356 . S
C441 C440 1.363 . S
C441 C444 1.363 . S
N442 C444 1.356 1_545 S
N442 H454 0.984 . S
N442 H455 0.985 . S
N443 C445 1.356 . S
N443 H448 0.984 . S
N443 H449 0.985 . S
C444 C438 1.379 . S
C444 C441 1.363 . S
C444 N442 1.356 1_565 S
C445 C439 1.363 . S
C445 C440 1.379 . S
C445 N443 1.356 . S
N446 C438 1.356 . S
N446 H452 0.984 . S
N446 H453 0.984 . S
N447 C440 1.356 . S
N447 H450 0.984 . S
N447 H451 0.985 . S
H448 N443 0.984 . S
H449 N443 0.985 . S
H450 N447 0.984 . S
H451 N447 0.985 . S
H452 N446 0.984 . S
H453 N446 0.984 . S
H454 N442 0.984 . S
H455 N442 0.985 . S
C456 C457 1.363 1_554 S
C456 C462 1.379 . S
C456 N464 1.356 . S
C457 C456 1.363 1_556 S
C457 C463 1.363 . S
C458 C459 1.363 1_556 S
C458 C463 1.379 . S
C458 N465 1.364 . S
C459 C458 1.363 1_554 S
C459 C462 1.363 . S
N460 C462 1.356 . S
N460 H472 0.984 . S
N460 H473 0.985 . S
N461 C463 1.356 . S
N461 H466 0.984 . S
N461 H467 0.985 . S
C462 C456 1.379 . S
C462 C459 1.363 . S
C462 N460 1.356 . S
C463 C457 1.363 . S
C463 C458 1.379 . S
C463 N461 1.356 . S
N464 C456 1.356 . S
N464 H470 0.984 . S
N464 H471 0.984 . S
N465 C458 1.364 . S
N465 H468 0.973 1_565 S
N465 H469 0.993 1_565 S
H466 N461 0.984 . S
H467 N461 0.985 . S
H468 N465 0.973 1_545 S
H469 N465 0.993 1_545 S
H470 N464 0.984 . S
H471 N464 0.984 . S
H472 N460 0.984 . S
H473 N460 0.985 . S
C474 C475 1.363 1_554 S
C474 C480 1.379 . S
C474 N482 1.356 . S
C475 C474 1.363 1_556 S
C475 C481 1.363 . S
C476 C477 1.363 1_556 S
C476 C481 1.379 . S
C476 N483 1.356 1_455 S
C477 C476 1.363 1_554 S
C477 C480 1.363 . S
N478 C480 1.356 . S
N478 H490 0.984 . S
N478 H491 0.985 . S
N479 C481 1.356 . S
N479 H484 0.984 . S
N479 H485 0.985 . S
C480 C474 1.379 . S
C480 C477 1.363 . S
C480 N478 1.356 . S
C481 C475 1.363 . S
C481 C476 1.379 . S
C481 N479 1.356 . S
N482 C474 1.356 . S
N482 H488 0.984 . S
N482 H489 0.984 . S
N483 C476 1.356 1_655 S
N483 H486 0.984 . S
N483 H487 0.985 . S
H484 N479 0.984 . S
H485 N479 0.985 . S
H486 N483 0.984 . S
H487 N483 0.985 . S
H488 N482 0.984 . S
H489 N482 0.984 . S
H490 N478 0.984 . S
H491 N478 0.985 . S
C492 C493 1.363 . S
C492 C498 1.379 . S
C492 N500 1.356 . S
C493 C492 1.363 . S
C493 C499 1.363 1_554 S
C494 C495 1.363 . S
C494 C499 1.379 . S
C494 N501 1.356 . S
C495 C494 1.363 . S
C495 C498 1.363 1_556 S
N496 C498 1.356 . S
N496 H508 0.984 . S
N496 H509 0.985 . S
N497 C499 1.356 . S
N497 H502 0.984 . S
N497 H503 0.985 . S
C498 C492 1.379 . S
C498 C495 1.363 1_554 S
C498 N496 1.356 . S
C499 C493 1.363 1_556 S
C499 C494 1.379 . S
C499 N497 1.356 . S
N500 C492 1.356 . S
N500 H506 0.984 . S
N500 H507 0.984 . S
N501 C494 1.356 . S
N501 H504 0.984 . S
N501 H505 0.985 . S
H502 N497 0.984 . S
H503 N497 0.985 . S
H504 N501 0.984 . S
H505 N501 0.985 . S
H506 N500 0.984 . S
H507 N500 0.984 . S
H508 N496 0.984 . S
H509 N496 0.985 . S
C510 C511 1.363 . S
C510 C516 1.379 . S
C510 N518 1.356 . S
C511 C510 1.363 . S
C511 C517 1.363 . S
C512 C513 1.363 . S
C512 C517 1.379 . S
C512 N519 1.356 . S
C513 C512 1.363 . S
C513 C516 1.363 . S
N514 C516 1.356 . S
N514 H526 0.984 . S
N514 H527 0.985 1_655 S
N515 C517 1.356 . S
N515 H520 0.984 . S
N515 H521 0.985 . S
C516 C510 1.379 . S
C516 C513 1.363 . S
C516 N514 1.356 . S
C517 C511 1.363 . S
C517 C512 1.379 . S
C517 N515 1.356 . S
N518 C510 1.356 . S
N518 H524 0.984 . S
N518 H525 0.984 . S
N519 C512 1.356 . S
N519 H522 0.984 1_655 S
N519 H523 0.985 . S
H520 N515 0.984 . S
H521 N515 0.985 . S
H522 N519 0.984 1_455 S
H523 N519 0.985 . S
H524 N518 0.984 . S
H525 N518 0.984 . S
H526 N514 0.984 . S
H527 N514 0.985 1_455 S
C528 C529 1.363 . S
C528 C534 1.379 . S
C528 N536 1.356 . S
C529 C528 1.363 . S
C529 C535 1.363 . S
C530 C531 1.363 . S
C530 C535 1.379 . S
C530 N537 1.356 . S
C531 C530 1.363 . S
C531 C534 1.363 . S
N532 C534 1.356 . S
N532 H544 0.984 . S
N532 H545 0.985 . S
N533 C535 1.356 . S
N533 H538 0.984 . S
N533 H539 0.985 . S
C534 C528 1.379 . S
C534 C531 1.363 . S
C534 N532 1.356 . S
C535 C529 1.363 . S
C535 C530 1.379 . S
C535 N533 1.356 . S
N536 C528 1.356 . S
N536 H542 0.984 . S
N536 H543 0.984 . S
N537 C530 1.356 . S
N537 H540 0.984 . S
N537 H541 0.985 . S
H538 N533 0.984 . S
H539 N533 0.985 . S
H540 N537 0.984 . S
H541 N537 0.985 . S
H542 N536 0.984 . S
H543 N536 0.984 . S
H544 N532 0.984 . S
H545 N532 0.985 . S
C546 C547 1.363 . S
C546 C552 1.379 . S
C546 N554 1.359 . S
C547 C546 1.363 . S
C547 C553 1.363 . S
C548 C549 1.363 . S
C548 C553 1.379 . S
C548 N555 1.356 . S
C549 C548 1.363 . S
C549 C552 1.363 . S
N550 C552 1.356 . S
N550 H562 0.984 . S
N550 H563 0.985 . S
N551 C553 1.356 . S
N551 H556 0.984 . S
N551 H557 0.985 . S
C552 C546 1.379 . S
C552 C549 1.363 . S
C552 N550 1.356 . S
C553 C547 1.363 . S
C553 C548 1.379 . S
C553 N551 1.356 . S
N554 C546 1.359 . S
N554 H560 0.993 1_545 S
N554 H561 0.980 1_545 S
N555 C548 1.356 . S
N555 H558 0.984 . S
N555 H559 0.985 . S
H556 N551 0.984 . S
H557 N551 0.985 . S
H558 N555 0.984 . S
H559 N555 0.985 . S
H560 N554 0.993 1_565 S
H561 N554 0.980 1_565 S
H562 N550 0.984 . S
H563 N550 0.985 . S
C564 C565 1.363 . S
C564 C570 1.379 . S
C564 N572 1.356 . S
C565 C564 1.363 . S
C565 C571 1.363 . S
C566 C567 1.363 . S
C566 C571 1.379 . S
C566 N573 1.356 . S
C567 C566 1.363 . S
C567 C570 1.363 . S
N568 C570 1.356 . S
N568 H580 0.984 . S
N568 H581 0.985 . S
N569 C571 1.356 . S
N569 H574 0.984 . S
N569 H575 0.985 . S
C570 C564 1.379 . S
C570 C567 1.363 . S
C570 N568 1.356 . S
C571 C565 1.363 . S
C571 C566 1.379 . S
C571 N569 1.356 . S
N572 C564 1.356 . S
N572 H578 0.984 . S
N572 H579 0.984 . S
N573 C566 1.356 . S
N573 H576 0.984 . S
N573 H577 0.985 . S
H574 N569 0.984 . S
H575 N569 0.985 . S
H576 N573 0.984 . S
H577 N573 0.985 . S
H578 N572 0.984 . S
H579 N572 0.984 . S
H580 N568 0.984 . S
H581 N568 0.985 . S
C582 C583 1.363 1_565 S
C582 C588 1.379 . S
C582 N590 1.356 . S
C583 C582 1.363 1_545 S
C583 C589 1.363 . S
C584 C585 1.363 1_545 S
C584 C589 1.379 . S
C584 N591 1.356 . S
C585 C584 1.363 1_565 S
C585 C588 1.363 . S
N586 C588 1.356 . S
N586 H598 0.984 . S
N586 H599 0.985 . S
N587 C589 1.356 . S
N587 H592 0.984 . S
N587 H593 0.985 . S
C588 C582 1.379 . S
C588 C585 1.363 . S
C588 N586 1.356 . S
C589 C583 1.363 . S
C589 C584 1.379 . S
C589 N587 1.356 . S
N590 C582 1.356 . S
N590 H596 0.984 . S
N590 H597 0.984 . S
N591 C584 1.356 . S
N591 H594 0.984 . S
N591 H595 0.985 . S
H592 N587 0.984 . S
H593 N587 0.985 . S
H594 N591 0.984 . S
H595 N591 0.985 . S
H596 N590 0.984 . S
H597 N590 0.984 . S
H598 N586 0.984 . S
H599 N586 0.985 . S
C600 C601 1.363 . S
C600 C606 1.379 . S
C600 N608 1.356 . S
C601 C600 1.363 . S
C601 C607 1.363 1_655 S
C602 C603 1.363 . S
C602 C607 1.379 . S
C602 N609 1.356 . S
C603 C602 1.363 . S
C603 C606 1.363 1_455 S
N604 C606 1.356 . S
N604 H616 0.984 . S
N604 H617 0.985 . S
N605 C607 1.356 . S
N605 H610 0.984 . S
N605 H611 0.985 . S
C606 C600 1.379 . S
C606 C603 1.363 1_655 S
C606 N604 1.356 . S
C607 C601 1.363 1_455 S
C607 C602 1.379 . S
C607 N605 1.356 . S
N608 C600 1.356 . S
N608 H614 0.984 . S
N608 H615 0.984 . S
N609 C602 1.356 . S
N609 H612 0.984 . S
N609 H613 0.985 . S
H610 N605 0.984 . S
H611 N605 0.985 . S
H612 N609 0.984 . S
H613 N609 0.985 . S
H614 N608 0.984 . S
H615 N608 0.984 . S
H616 N604 0.984 . S
H617 N604 0.985 . S
C618 C619 1.363 . S
C618 C624 1.379 . S
C618 N626 1.356 . S
C619 C618 1.363 . S
C619 C625 1.363 . S
C620 C621 1.363 . S
C620 C625 1.379 . S
C620 N627 1.356 . S
C621 C620 1.363 . S
C621 C624 1.363 . S
N622 C624 1.356 . S
N622 H634 0.984 . S
N622 H635 0.985 . S
N623 C625 1.356 . S
N623 H628 0.984 . S
N623 H629 0.985 . S
C624 C618 1.379 . S
C624 C621 1.363 . S
C624 N622 1.356 . S
C625 C619 1.363 . S
C625 C620 1.379 . S
C625 N623 1.356 . S
N626 C618 1.356 . S
N626 H632 0.984 . S
N626 H633 0.984 . S
N627 C620 1.356 . S
N627 H630 0.984 . S
N627 H631 0.985 . S
H628 N623 0.984 . S
H629 N623 0.985 . S
H630 N627 0.984 . S
H631 N627 0.985 . S
H632 N626 0.984 . S
H633 N626 0.984 . S
H634 N622 0.984 . S
H635 N622 0.985 . S
C636 C637 1.363 1_565 S
C636 C642 1.379 . S
C636 N644 1.356 . S
C637 C636 1.363 1_545 S
C637 C643 1.363 . S
C638 C639 1.363 1_545 S
C638 C643 1.379 . S
C638 N645 1.356 . S
C639 C638 1.363 1_565 S
C639 C642 1.363 . S
N640 C642 1.356 . S
N640 H652 0.984 . S
N640 H653 0.985 . S
N641 C643 1.356 . S
N641 H646 0.984 . S
N641 H647 0.985 . S
C642 C636 1.379 . S
C642 C639 1.363 . S
C642 N640 1.356 . S
C643 C637 1.363 . S
C643 C638 1.379 . S
C643 N641 1.356 . S
N644 C636 1.356 . S
N644 H650 0.984 . S
N644 H651 0.984 . S
N645 C638 1.356 . S
N645 H648 0.984 . S
N645 H649 0.985 . S
H646 N641 0.984 . S
H647 N641 0.985 . S
H648 N645 0.984 . S
H649 N645 0.985 . S
H650 N644 0.984 . S
H651 N644 0.984 . S
H652 N640 0.984 . S
H653 N640 0.985 . S
C654 C655 1.363 . S
C654 C660 1.379 . S
C654 N662 1.356 . S
C655 C654 1.363 . S
C655 C661 1.363 1_655 S
C656 C657 1.363 . S
C656 C661 1.379 . S
C656 N663 1.356 . S
C657 C656 1.363 . S
C657 C660 1.363 1_455 S
N658 C660 1.356 . S
N658 H670 0.984 . S
N658 H671 0.985 . S
N659 C661 1.356 . S
N659 H664 0.984 . S
N659 H665 0.985 . S
C660 C654 1.379 . S
C660 C657 1.363 1_655 S
C660 N658 1.356 . S
C661 C655 1.363 1_455 S
C661 C656 1.379 . S
C661 N659 1.356 . S
N662 C654 1.356 . S
N662 H668 0.984 . S
N662 H669 0.984 . S
N663 C656 1.356 . S
N663 H666 0.984 . S
N663 H667 0.985 . S
H664 N659 0.984 . S
H665 N659 0.985 . S
H666 N663 0.984 . S
H667 N663 0.985 . S
H668 N662 0.984 . S
H669 N662 0.984 . S
H670 N658 0.984 . S
H671 N658 0.985 . S
C672 C673 1.363 . S
C672 C678 1.379 . S
C672 N680 1.356 . S
C673 C672 1.363 . S
C673 C679 1.363 . S
C674 C675 1.363 . S
C674 C679 1.379 . S
C674 N681 1.356 . S
C675 C674 1.363 . S
C675 C678 1.363 . S
N676 C678 1.356 . S
N676 H688 0.984 . S
N676 H689 0.985 . S
N677 C679 1.356 . S
N677 H682 0.984 . S
N677 H683 0.985 . S
C678 C672 1.379 . S
C678 C675 1.363 . S
C678 N676 1.356 . S
C679 C673 1.363 . S
C679 C674 1.379 . S
C679 N677 1.356 . S
N680 C672 1.356 . S
N680 H686 0.984 1_554 S
N680 H687 0.984 1_554 S
N681 C674 1.356 . S
N681 H684 0.984 . S
N681 H685 0.985 . S
H682 N677 0.984 . S
H683 N677 0.985 . S
H684 N681 0.984 . S
H685 N681 0.985 . S
H686 N680 0.984 1_556 S
H687 N680 0.984 1_556 S
H688 N676 0.984 . S
H689 N676 0.985 . S
C690 C691 1.363 . S
C690 C696 1.379 . S
C690 N698 1.356 1_554 S
C691 C690 1.363 . S
C691 C697 1.363 . S
C692 C693 1.363 . S
C692 C697 1.379 . S
C692 N699 1.356 . S
C693 C692 1.363 . S
C693 C696 1.363 . S
N694 C696 1.356 . S
N694 H706 0.984 . S
N694 H707 0.985 . S
N695 C697 1.356 . S
N695 H700 0.984 . S
N695 H701 0.985 . S
C696 C690 1.379 . S
C696 C693 1.363 . S
C696 N694 1.356 . S
C697 C691 1.363 . S
C697 C692 1.379 . S
C697 N695 1.356 . S
N698 C690 1.356 1_556 S
N698 H704 0.984 . S
N698 H705 0.984 . S
N699 C692 1.356 . S
N699 H702 0.984 . S
N699 H703 0.985 . S
H700 N695 0.984 . S
H701 N695 0.985 . S
H702 N699 0.984 . S
H703 N699 0.985 . S
H704 N698 0.984 . S
H705 N698 0.984 . S
H706 N694 0.984 . S
H707 N694 0.985 . S
C708 C709 1.363 . S
C708 C714 1.379 . S
C708 N716 1.356 . S
C709 C708 1.363 . S
C709 C715 1.363 . S
C710 C711 1.363 . S
C710 C715 1.379 . S
C710 N717 1.356 . S
C711 C710 1.363 . S
C711 C714 1.363 . S
N712 C714 1.356 . S
N712 H724 0.984 . S
N712 H725 0.985 . S
N713 C715 1.356 1_556 S
N713 H718 0.984 . S
N713 H719 0.985 . S
C714 C708 1.379 . S
C714 C711 1.363 . S
C714 N712 1.356 . S
C715 C709 1.363 . S
C715 C710 1.379 . S
C715 N713 1.356 1_554 S
N716 C708 1.356 . S
N716 H722 0.984 . S
N716 H723 0.984 . S
N717 C710 1.356 . S
N717 H720 0.984 . S
N717 H721 0.985 . S
H718 N713 0.984 . S
H719 N713 0.985 . S
H720 N717 0.984 . S
H721 N717 0.985 . S
H722 N716 0.984 . S
H723 N716 0.984 . S
H724 N712 0.984 . S
H725 N712 0.985 . S
C726 C727 1.363 . S
C726 C732 1.379 . S
C726 N734 1.356 . S
C727 C726 1.363 . S
C727 C733 1.363 . S
C728 C729 1.363 . S
C728 C733 1.379 . S
C728 N735 1.356 . S
C729 C728 1.363 . S
C729 C732 1.363 . S
N730 C732 1.356 . S
N730 H742 0.984 . S
N730 H743 0.985 . S
N731 C733 1.356 . S
N731 H736 0.984 . S
N731 H737 0.985 . S
C732 C726 1.379 . S
C732 C729 1.363 . S
C732 N730 1.356 . S
C733 C727 1.363 . S
C733 C728 1.379 . S
C733 N731 1.356 . S
N734 C726 1.356 . S
N734 H740 0.984 . S
N734 H741 0.984 . S
N735 C728 1.356 . S
N735 H738 0.984 . S
N735 H739 0.985 . S
H736 N731 0.984 . S
H737 N731 0.985 . S
H738 N735 0.984 . S
H739 N735 0.985 . S
H740 N734 0.984 . S
H741 N734 0.984 . S
H742 N730 0.984 . S
H743 N730 0.985 . S
C744 C745 1.363 . S
C744 C750 1.379 . S
C744 N752 1.356 . S
C745 C744 1.363 . S
C745 C751 1.363 . S
C746 C747 1.363 . S
C746 C751 1.379 . S
C746 N753 1.356 . S
C747 C746 1.363 . S
C747 C750 1.363 . S
N748 C750 1.356 . S
N748 H760 0.984 . S
N748 H761 0.985 . S
N749 C751 1.356 . S
N749 H754 0.984 . S
N749 H755 0.985 . S
C750 C744 1.379 . S
C750 C747 1.363 . S
C750 N748 1.356 . S
C751 C745 1.363 . S
C751 C746 1.379 . S
C751 N749 1.356 . S
N752 C744 1.356 . S
N752 H758 0.984 . S
N752 H759 0.984 . S
N753 C746 1.356 . S
N753 H756 0.984 . S
N753 H757 0.985 . S
H754 N749 0.984 . S
H755 N749 0.985 . S
H756 N753 0.984 . S
H757 N753 0.985 . S
H758 N752 0.984 . S
H759 N752 0.984 . S
H760 N748 0.984 . S
H761 N748 0.985 . S
C762 C763 1.363 . S
C762 C768 1.379 . S
C762 N770 1.356 . S
C763 C762 1.363 . S
C763 C769 1.363 . S
C764 C765 1.363 . S
C764 C769 1.379 . S
C764 N771 1.356 . S
C765 C764 1.363 . S
C765 C768 1.363 . S
N766 C768 1.356 . S
N766 H778 0.984 . S
N766 H779 0.985 . S
N767 C769 1.356 . S
N767 H772 0.984 . S
N767 H773 0.985 . S
C768 C762 1.379 . S
C768 C765 1.363 . S
C768 N766 1.356 . S
C769 C763 1.363 . S
C769 C764 1.379 . S
C769 N767 1.356 . S
N770 C762 1.356 . S
N770 H776 0.984 . S
N770 H777 0.984 . S
N771 C764 1.356 . S
N771 H774 0.984 . S
N771 H775 0.985 . S
H772 N767 0.984 . S
H773 N767 0.985 . S
H774 N771 0.984 . S
H775 N771 0.985 . S
H776 N770 0.984 . S
H777 N770 0.984 . S
H778 N766 0.984 . S
H779 N766 0.985 . S
C780 C781 1.363 . S
C780 C786 1.379 . S
C780 N788 1.356 . S
C781 C780 1.363 . S
C781 C787 1.363 . S
C782 C783 1.363 . S
C782 C787 1.379 . S
C782 N789 1.356 1_556 S
C783 C782 1.363 . S
C783 C786 1.363 . S
N784 C786 1.356 . S
N784 H796 0.984 . S
N784 H797 0.985 . S
N785 C787 1.356 . S
N785 H790 0.984 . S
N785 H791 0.985 . S
C786 C780 1.379 . S
C786 C783 1.363 . S
C786 N784 1.356 . S
C787 C781 1.363 . S
C787 C782 1.379 . S
C787 N785 1.356 . S
N788 C780 1.356 . S
N788 H794 0.984 . S
N788 H795 0.984 . S
N789 C782 1.356 1_554 S
N789 H792 0.984 . S
N789 H793 0.985 . S
H790 N785 0.984 . S
H791 N785 0.985 . S
H792 N789 0.984 . S
H793 N789 0.985 . S
H794 N788 0.984 . S
H795 N788 0.984 . S
H796 N784 0.984 . S
H797 N784 0.985 . S
C798 C799 1.363 . S
C798 C804 1.379 . S
C798 N806 1.356 1_556 S
C799 C798 1.363 . S
C799 C805 1.363 . S
C800 C801 1.363 . S
C800 C805 1.379 . S
C800 N807 1.356 . S
C801 C800 1.363 . S
C801 C804 1.363 . S
N802 C804 1.356 . S
N802 H814 0.984 . S
N802 H815 0.985 . S
N803 C805 1.356 . S
N803 H808 0.984 . S
N803 H809 0.985 . S
C804 C798 1.379 . S
C804 C801 1.363 . S
C804 N802 1.356 . S
C805 C799 1.363 . S
C805 C800 1.379 . S
C805 N803 1.356 . S
N806 C798 1.356 1_554 S
N806 H812 0.984 . S
N806 H813 0.984 . S
N807 C800 1.356 . S
N807 H810 0.984 . S
N807 H811 0.985 . S
H808 N803 0.984 . S
H809 N803 0.985 . S
H810 N807 0.984 . S
H811 N807 0.985 . S
H812 N806 0.984 . S
H813 N806 0.984 . S
H814 N802 0.984 . S
H815 N802 0.985 . S
C816 C817 1.363 . S
C816 C822 1.379 . S
C816 N824 1.356 . S
C817 C816 1.363 . S
C817 C823 1.363 . S
C818 C819 1.363 . S
C818 C823 1.379 . S
C818 N825 1.356 . S
C819 C818 1.363 . S
C819 C822 1.363 . S
N820 C822 1.356 . S
N820 H832 0.984 . S
N820 H833 0.985 . S
N821 C823 1.356 1_554 S
N821 H826 0.984 . S
N821 H827 0.985 . S
C822 C816 1.379 . S
C822 C819 1.363 . S
C822 N820 1.356 . S
C823 C817 1.363 . S
C823 C818 1.379 . S
C823 N821 1.356 1_556 S
N824 C816 1.356 . S
N824 H830 0.984 . S
N824 H831 0.984 . S
N825 C818 1.356 . S
N825 H828 0.984 . S
N825 H829 0.985 . S
H826 N821 0.984 . S
H827 N821 0.985 . S
H828 N825 0.984 . S
H829 N825 0.985 . S
H830 N824 0.984 . S
H831 N824 0.984 . S
H832 N820 0.984 . S
H833 N820 0.985 . S
C834 C835 1.363 . S
C834 C840 1.379 . S
C834 N842 1.356 . S
C835 C834 1.363 . S
C835 C841 1.363 . S
C836 C837 1.363 . S
C836 C841 1.379 . S
C836 N843 1.356 . S
C837 C836 1.363 . S
C837 C840 1.363 . S
N838 C840 1.356 . S
N838 H850 0.984 . S
N838 H851 0.985 . S
N839 C841 1.356 . S
N839 H844 0.984 . S
N839 H845 0.985 . S
C840 C834 1.379 . S
C840 C837 1.363 . S
C840 N838 1.356 . S
C841 C835 1.363 . S
C841 C836 1.379 . S
C841 N839 1.356 . S
N842 C834 1.356 . S
N842 H848 0.984 . S
N842 H849 0.984 . S
N843 C836 1.356 . S
N843 H846 0.984 . S
N843 H847 0.985 . S
H844 N839 0.984 . S
H845 N839 0.985 . S
H846 N843 0.984 . S
H847 N843 0.985 . S
H848 N842 0.984 . S
H849 N842 0.984 . S
H850 N838 0.984 . S
H851 N838 0.985 . S
C852 C853 1.363 . S
C852 C858 1.379 . S
C852 N860 1.356 . S
C853 C852 1.363 . S
C853 C859 1.363 . S
C854 C855 1.363 . S
C854 C859 1.379 . S
C854 N861 1.356 . S
C855 C854 1.363 . S
C855 C858 1.363 . S
N856 C858 1.356 . S
N856 H868 0.984 . S
N856 H869 0.985 . S
N857 C859 1.356 . S
N857 H862 0.984 . S
N857 H863 0.985 . S
C858 C852 1.379 . S
C858 C855 1.363 . S
C858 N856 1.356 . S
C859 C853 1.363 . S
C859 C854 1.379 . S
C859 N857 1.356 . S
N860 C852 1.356 . S
N860 H866 0.984 . S
N860 H867 0.984 . S
N861 C854 1.356 . S
N861 H864 0.984 . S
N861 H865 0.985 . S
H862 N857 0.984 . S
H863 N857 0.985 . S
H864 N861 0.984 . S
H865 N861 0.985 . S
H866 N860 0.984 . S
H867 N860 0.984 . S
H868 N856 0.984 . S
H869 N856 0.985 . S
C870 C871 1.363 . S
C870 C876 1.379 . S
C870 N878 1.356 . S
C871 C870 1.363 . S
C871 C877 1.363 . S
C872 C873 1.363 . S
C872 C877 1.379 . S
C872 N879 1.356 . S
C873 C872 1.363 . S
C873 C876 1.363 . S
N874 C876 1.356 . S
N874 H886 0.984 . S
N874 H887 0.985 . S
N875 C877 1.356 . S
N875 H880 0.984 . S
N875 H881 0.985 . S
C876 C870 1.379 . S
C876 C873 1.363 . S
C876 N874 1.356 . S
C877 C871 1.363 . S
C877 C872 1.379 . S
C877 N875 1.356 . S
N878 C870 1.356 . S
N878 H884 0.984 . S
N878 H885 0.984 . S
N879 C872 1.356 . S
N879 H882 0.984 . S
N879 H883 0.985 . S
H880 N875 0.984 . S
H881 N875 0.985 . S
H882 N879 0.984 . S
H883 N879 0.985 . S
H884 N878 0.984 . S
H885 N878 0.984 . S
H886 N874 0.984 . S
H887 N874 0.985 . S
C888 C889 1.363 . S
C888 C894 1.379 . S
C888 N896 1.356 . S
C889 C888 1.363 . S
C889 C895 1.363 . S
C890 C891 1.363 . S
C890 C895 1.379 . S
C890 N897 1.356 . S
C891 C890 1.363 . S
C891 C894 1.363 . S
N892 C894 1.356 . S
N892 H904 0.984 . S
N892 H905 0.985 . S
N893 C895 1.356 . S
N893 H898 0.984 . S
N893 H899 0.985 . S
C894 C888 1.379 . S
C894 C891 1.363 . S
C894 N892 1.356 . S
C895 C889 1.363 . S
C895 C890 1.379 . S
C895 N893 1.356 . S
N896 C888 1.356 . S
N896 H902 0.984 . S
N896 H903 0.984 . S
N897 C890 1.356 . S
N897 H900 0.984 . S
N897 H901 0.985 . S
H898 N893 0.984 . S
H899 N893 0.985 . S
H900 N897 0.984 . S
H901 N897 0.985 . S
H902 N896 0.984 . S
H903 N896 0.984 . S
H904 N892 0.984 . S
H905 N892 0.985 . S
C906 C907 1.363 . S
C906 C912 1.379 . S
C906 N914 1.356 . S
C907 C906 1.363 . S
C907 C913 1.363 . S
C908 C909 1.363 . S
C908 C913 1.379 . S
C908 N915 1.356 . S
C909 C908 1.363 . S
C909 C912 1.363 . S
N910 C912 1.356 . S
N910 H922 0.984 . S
N910 H923 0.985 . S
N911 C913 1.356 . S
N911 H916 0.984 . S
N911 H917 0.985 . S
C912 C906 1.379 . S
C912 C909 1.363 . S
C912 N910 1.356 . S
C913 C907 1.363 . S
C913 C908 1.379 . S
C913 N911 1.356 . S
N914 C906 1.356 . S
N914 H920 0.984 . S
N914 H921 0.984 . S
N915 C908 1.356 . S
N915 H918 0.984 . S
N915 H919 0.985 . S
H916 N911 0.984 . S
H917 N911 0.985 . S
H918 N915 0.984 . S
H919 N915 0.985 . S
H920 N914 0.984 . S
H921 N914 0.984 . S
H922 N910 0.984 . S
H923 N910 0.985 . S
C924 C925 1.363 . S
C924 C930 1.379 . S
C924 N932 1.356 . S
C925 C924 1.363 . S
C925 C931 1.363 . S
C926 C927 1.363 . S
C926 C931 1.379 . S
C926 N933 1.356 . S
C927 C926 1.363 . S
C927 C930 1.363 . S
N928 C930 1.356 . S
N928 H940 0.984 . S
N928 H941 0.985 . S
N929 C931 1.356 . S
N929 H934 0.984 . S
N929 H935 0.985 . S
C930 C924 1.379 . S
C930 C927 1.363 . S
C930 N928 1.356 . S
C931 C925 1.363 . S
C931 C926 1.379 . S
C931 N929 1.356 . S
N932 C924 1.356 . S
N932 H938 0.984 . S
N932 H939 0.984 . S
N933 C926 1.356 . S
N933 H936 0.984 . S
N933 H937 0.985 . S
H934 N929 0.984 . S
H935 N929 0.985 . S
H936 N933 0.984 . S
H937 N933 0.985 . S
H938 N932 0.984 . S
H939 N932 0.984 . S
H940 N928 0.984 . S
H941 N928 0.985 . S
C942 C943 1.363 . S
C942 C948 1.379 . S
C942 N950 1.356 . S
C943 C942 1.363 . S
C943 C949 1.363 . S
C944 C945 1.363 . S
C944 C949 1.379 . S
C944 N951 1.356 . S
C945 C944 1.363 . S
C945 C948 1.363 . S
N946 C948 1.356 . S
N946 H958 0.984 . S
N946 H959 0.985 . S
N947 C949 1.356 . S
N947 H952 0.984 . S
N947 H953 0.985 . S
C948 C942 1.379 . S
C948 C945 1.363 . S
C948 N946 1.356 . S
C949 C943 1.363 . S
C949 C944 1.379 . S
C949 N947 1.356 . S
N950 C942 1.356 . S
N950 H956 0.984 . S
N950 H957 0.984 . S
N951 C944 1.356 . S
N951 H954 0.984 . S
N951 H955 0.985 . S
H952 N947 0.984 . S
H953 N947 0.985 . S
H954 N951 0.984 . S
H955 N951 0.985 . S
H956 N950 0.984 . S
H957 N950 0.984 . S
H958 N946 0.984 . S
H959 N946 0.985 . S
C960 C961 1.363 . S
C960 C966 1.379 . S
C960 N968 1.356 . S
C961 C960 1.363 . S
C961 C967 1.363 . S
C962 C963 1.363 . S
C962 C967 1.379 . S
C962 N969 1.356 . S
C963 C962 1.363 . S
C963 C966 1.363 . S
N964 C966 1.356 . S
N964 H976 0.984 . S
N964 H977 0.985 . S
N965 C967 1.356 . S
N965 H970 0.984 . S
N965 H971 0.985 . S
C966 C960 1.379 . S
C966 C963 1.363 . S
C966 N964 1.356 . S
C967 C961 1.363 . S
C967 C962 1.379 . S
C967 N965 1.356 . S
N968 C960 1.356 . S
N968 H974 0.984 . S
N968 H975 0.984 . S
N969 C962 1.356 . S
N969 H972 0.984 . S
N969 H973 0.985 . S
H970 N965 0.984 . S
H971 N965 0.985 . S
H972 N969 0.984 . S
H973 N969 0.985 . S
H974 N968 0.984 . S
H975 N968 0.984 . S
H976 N964 0.984 . S
H977 N964 0.985 . S
C978 C979 1.363 . S
C978 C984 1.379 . S
C978 N986 1.356 . S
C979 C978 1.363 . S
C979 C985 1.363 . S
C980 C981 1.363 . S
C980 C985 1.379 . S
C980 N987 1.356 . S
C981 C980 1.363 . S
C981 C984 1.363 . S
N982 C984 1.356 . S
N982 H994 0.984 . S
N982 H995 0.985 . S
N983 C985 1.356 . S
N983 H988 0.984 . S
N983 H989 0.985 . S
C984 C978 1.379 . S
C984 C981 1.363 . S
C984 N982 1.356 . S
C985 C979 1.363 . S
C985 C980 1.379 . S
C985 N983 1.356 . S
N986 C978 1.356 . S
N986 H992 0.984 . S
N986 H993 0.984 . S
N987 C980 1.356 . S
N987 H990 0.984 . S
N987 H991 0.985 . S
H988 N983 0.984 . S
H989 N983 0.985 . S
H990 N987 0.984 . S
H991 N987 0.985 . S
H992 N986 0.984 . S
H993 N986 0.984 . S
H994 N982 0.984 . S
H995 N982 0.985 . S
C996 C997 1.363 . S
C996 C1002 1.379 . S
C996 N1004 1.356 . S
C997 C996 1.363 . S
C997 C1003 1.363 . S
C998 C999 1.363 . S
C998 C1003 1.379 . S
C998 N1005 1.356 . S
C999 C998 1.363 . S
C999 C1002 1.363 . S
N1000 C1002 1.356 . S
N1000 H1012 0.984 . S
N1000 H1013 0.985 . S
N1001 C1003 1.356 . S
N1001 H1006 0.984 . S
N1001 H1007 0.985 . S
C1002 C996 1.379 . S
C1002 C999 1.363 . S
C1002 N1000 1.356 . S
C1003 C997 1.363 . S
C1003 C998 1.379 . S
C1003 N1001 1.356 . S
N1004 C996 1.356 . S
N1004 H1010 0.984 . S
N1004 H1011 0.984 . S
N1005 C998 1.356 . S
N1005 H1008 0.984 . S
N1005 H1009 0.985 . S
H1006 N1001 0.984 . S
H1007 N1001 0.985 . S
H1008 N1005 0.984 . S
H1009 N1005 0.985 . S
H1010 N1004 0.984 . S
H1011 N1004 0.984 . S
H1012 N1000 0.984 . S
H1013 N1000 0.985 . S
C1014 C1015 1.363 . S
C1014 C1020 1.379 . S
C1014 N1022 1.356 . S
C1015 C1014 1.363 . S
C1015 C1021 1.363 . S
C1016 C1017 1.363 . S
C1016 C1021 1.379 . S
C1016 N1023 1.356 . S
C1017 C1016 1.363 . S
C1017 C1020 1.363 . S
N1018 C1020 1.356 . S
N1018 H1030 0.984 . S
N1018 H1031 0.985 . S
N1019 C1021 1.356 . S
N1019 H1024 0.984 . S
N1019 H1025 0.985 . S
C1020 C1014 1.379 . S
C1020 C1017 1.363 . S
C1020 N1018 1.356 . S
C1021 C1015 1.363 . S
C1021 C1016 1.379 . S
C1021 N1019 1.356 . S
N1022 C1014 1.356 . S
N1022 H1028 0.984 . S
N1022 H1029 0.984 . S
N1023 C1016 1.356 . S
N1023 H1026 0.984 . S
N1023 H1027 0.985 . S
H1024 N1019 0.984 . S
H1025 N1019 0.985 . S
H1026 N1023 0.984 . S
H1027 N1023 0.985 . S
H1028 N1022 0.984 . S
H1029 N1022 0.984 . S
H1030 N1018 0.984 . S
H1031 N1018 0.985 . S
C1032 C1033 1.363 . S
C1032 C1038 1.379 . S
C1032 N1040 1.356 . S
C1033 C1032 1.363 . S
C1033 C1039 1.363 . S
C1034 C1035 1.363 . S
C1034 C1039 1.379 . S
C1034 N1041 1.356 . S
C1035 C1034 1.363 . S
C1035 C1038 1.363 . S
N1036 C1038 1.356 . S
N1036 H1048 0.984 . S
N1036 H1049 0.985 . S
N1037 C1039 1.356 . S
N1037 H1042 0.984 . S
N1037 H1043 0.985 . S
C1038 C1032 1.379 . S
C1038 C1035 1.363 . S
C1038 N1036 1.356 . S
C1039 C1033 1.363 . S
C1039 C1034 1.379 . S
C1039 N1037 1.356 . S
N1040 C1032 1.356 . S
N1040 H1046 0.984 . S
N1040 H1047 0.984 . S
N1041 C1034 1.356 . S
N1041 H1044 0.984 . S
N1041 H1045 0.985 . S
H1042 N1037 0.984 . S
H1043 N1037 0.985 . S
H1044 N1041 0.984 . S
H1045 N1041 0.985 . S
H1046 N1040 0.984 . S
H1047 N1040 0.984 . S
H1048 N1036 0.984 . S
H1049 N1036 0.985 . S
C1050 C1051 1.363 . S
C1050 C1056 1.379 . S
C1050 N1058 1.356 . S
C1051 C1050 1.363 . S
C1051 C1057 1.363 . S
C1052 C1053 1.363 . S
C1052 C1057 1.379 . S
C1052 N1059 1.356 . S
C1053 C1052 1.363 . S
C1053 C1056 1.363 . S
N1054 C1056 1.356 . S
N1054 H1066 0.984 . S
N1054 H1067 0.985 . S
N1055 C1057 1.356 . S
N1055 H1060 0.984 . S
N1055 H1061 0.985 . S
C1056 C1050 1.379 . S
C1056 C1053 1.363 . S
C1056 N1054 1.356 . S
C1057 C1051 1.363 . S
C1057 C1052 1.379 . S
C1057 N1055 1.356 . S
N1058 C1050 1.356 . S
N1058 H1064 0.984 . S
N1058 H1065 0.984 . S
N1059 C1052 1.356 . S
N1059 H1062 0.984 . S
N1059 H1063 0.985 . S
H1060 N1055 0.984 . S
H1061 N1055 0.985 . S
H1062 N1059 0.984 . S
H1063 N1059 0.985 . S
H1064 N1058 0.984 . S
H1065 N1058 0.984 . S
H1066 N1054 0.984 . S
H1067 N1054 0.985 . S
C1068 C1069 1.363 . S
C1068 C1074 1.379 . S
C1068 N1076 1.356 . S
C1069 C1068 1.363 . S
C1069 C1075 1.363 . S
C1070 C1071 1.363 . S
C1070 C1075 1.379 . S
C1070 N1077 1.356 . S
C1071 C1070 1.363 . S
C1071 C1074 1.363 . S
N1072 C1074 1.356 . S
N1072 H1084 0.984 . S
N1072 H1085 0.985 . S
N1073 C1075 1.356 . S
N1073 H1078 0.984 . S
N1073 H1079 0.985 . S
C1074 C1068 1.379 . S
C1074 C1071 1.363 . S
C1074 N1072 1.356 . S
C1075 C1069 1.363 . S
C1075 C1070 1.379 . S
C1075 N1073 1.356 . S
N1076 C1068 1.356 . S
N1076 H1082 0.984 . S
N1076 H1083 0.984 . S
N1077 C1070 1.356 . S
N1077 H1080 0.984 . S
N1077 H1081 0.985 . S
H1078 N1073 0.984 . S
H1079 N1073 0.985 . S
H1080 N1077 0.984 . S
H1081 N1077 0.985 . S
H1082 N1076 0.984 . S
H1083 N1076 0.984 . S
H1084 N1072 0.984 . S
H1085 N1072 0.985 . S
C1086 C1087 1.363 . S
C1086 C1092 1.379 . S
C1086 N1094 1.356 . S
C1087 C1086 1.363 . S
C1087 C1093 1.363 . S
C1088 C1089 1.363 . S
C1088 C1093 1.379 . S
C1088 N1095 1.356 . S
C1089 C1088 1.363 . S
C1089 C1092 1.363 . S
N1090 C1092 1.356 . S
N1090 H1102 0.984 . S
N1090 H1103 0.985 . S
N1091 C1093 1.356 . S
N1091 H1096 0.984 . S
N1091 H1097 0.985 . S
C1092 C1086 1.379 . S
C1092 C1089 1.363 . S
C1092 N1090 1.356 . S
C1093 C1087 1.363 . S
C1093 C1088 1.379 . S
C1093 N1091 1.356 . S
N1094 C1086 1.356 . S
N1094 H1100 0.984 . S
N1094 H1101 0.984 . S
N1095 C1088 1.356 . S
N1095 H1098 0.984 . S
N1095 H1099 0.985 . S
H1096 N1091 0.984 . S
H1097 N1091 0.985 . S
H1098 N1095 0.984 . S
H1099 N1095 0.985 . S
H1100 N1094 0.984 . S
H1101 N1094 0.984 . S
H1102 N1090 0.984 . S
H1103 N1090 0.985 . S
C349 C216 2.289 1_545 S
C351 C5 2.480 . S
C367 C34 2.480 . S
C369 C245 2.288 1_655 S
C385 C63 2.480 . S
C387 C187 2.288 . S
C403 C92 2.480 . S
C405 C332 2.289 1_455 S
C421 C274 2.289 . S
C423 C121 2.480 . S
C439 C150 2.480 . S
C441 C303 2.288 1_565 S
C457 C179 2.480 . S
C459 C42 2.289 1_565 S
C475 C208 2.480 . S
C477 C71 2.288 1_455 S
C493 C13 2.288 . S
C495 C237 2.480 . S
C511 C266 2.480 . S
C513 C158 2.289 1_655 S
C529 C295 2.480 . S
C531 C100 2.289 . S
C547 C129 2.288 1_545 S
C549 C324 2.480 . S
C565 C15 1.810 . S
C567 C102 1.810 . S
C583 C44 1.810 . S
C585 C131 1.810 . S
C601 C73 1.810 . S
C603 C160 1.810 . S
C619 C276 1.810 . S
C621 C189 1.810 . S
C637 C305 1.810 . S
C639 C218 1.810 . S
C655 C334 1.810 . S
C657 C247 1.810 . S
C673 C21 1.904 . S
C675 C39 1.692 . S
C691 C50 1.904 . S
C693 C68 1.692 . S
C709 C79 1.904 . S
C711 C10 1.692 . S
C727 C155 1.692 . S
C729 C108 1.904 . S
C745 C137 1.904 . S
C747 C97 1.692 . S
C763 C126 1.692 . S
C765 C166 1.904 . S
C781 C213 1.692 . S
C783 C195 1.904 . S
C799 C224 1.904 . S
C801 C242 1.692 . S
C817 C253 1.904 . S
C819 C184 1.692 . S
C835 C282 1.904 . S
C837 C329 1.692 . S
C853 C311 1.904 . S
C855 C271 1.692 . S
C871 C340 1.904 . S
C873 C300 1.692 . S
C889 C298 1.342 . S
C891 C3 1.366 . S
C907 C327 1.342 . S
C909 C32 1.366 . S
C925 C61 1.366 . S
C927 C269 1.342 . S
C943 C90 1.366 . S
C945 C240 1.342 . S
C961 C119 1.366 . S
C963 C182 1.342 . S
C979 C211 1.342 . S
C981 C148 1.366 . S
C997 C177 1.366 . S
C999 C124 1.342 . S
C1015 C206 1.366 . S
C1017 C153 1.342 . S
C1033 C235 1.366 . S
C1035 C95 1.342 . S
C1051 C264 1.366 . S
C1053 C66 1.342 . S
C1069 C293 1.366 . S
C1071 C8 1.342 . S
C1087 C322 1.366 . S
C1089 C37 1.342 . S
