# Generated by pormake.
# Topology uku, (4)-cn, num edge types: 1
# Building blocks:
#     Node 0, Type 0, BuildingBlock: CEKHIL_clean_sbu_0, # of connection points: 4
#     Node 1, Type 0, BuildingBlock: CEKHIL_clean_sbu_0, # of connection points: 4
#     Node 2, Type 0, BuildingBlock: CEKHIL_clean_sbu_0, # of connection points: 4
#     Node 3, Type 0, BuildingBlock: CEKHIL_clean_sbu_0, # of connection points: 4
#     Node 4, Type 0, BuildingBlock: CEKHIL_clean_sbu_0, # of connection points: 4
#     Node 5, Type 0, BuildingBlock: CEKHIL_clean_sbu_0, # of connection points: 4
#     Node 6, Type 0, BuildingBlock: CEKHIL_clean_sbu_0, # of connection points: 4
#     Node 7, Type 0, BuildingBlock: CEKHIL_clean_sbu_0, # of connection points: 4
#     Node 8, Type 0, BuildingBlock: CEKHIL_clean_sbu_0, # of connection points: 4
#     Node 9, Type 0, BuildingBlock: CEKHIL_clean_sbu_0, # of connection points: 4
#     Node 10, Type 0, BuildingBlock: CEKHIL_clean_sbu_0, # of connection points: 4
#     Node 11, Type 0, BuildingBlock: CEKHIL_clean_sbu_0, # of connection points: 4
#     Edge 12, Type (0, 0), BuildingBlock: KIFKEQ_clean_linker_1, # of connection points: 2
#     Edge 13, Type (0, 0), BuildingBlock: KIFKEQ_clean_linker_1, # of connection points: 2
#     Edge 14, Type (0, 0), BuildingBlock: KIFKEQ_clean_linker_1, # of connection points: 2
#     Edge 15, Type (0, 0), BuildingBlock: KIFKEQ_clean_linker_1, # of connection points: 2
#     Edge 16, Type (0, 0), BuildingBlock: KIFKEQ_clean_linker_1, # of connection points: 2
#     Edge 17, Type (0, 0), BuildingBlock: KIFKEQ_clean_linker_1, # of connection points: 2
#     Edge 18, Type (0, 0), BuildingBlock: KIFKEQ_clean_linker_1, # of connection points: 2
#     Edge 19, Type (0, 0), BuildingBlock: KIFKEQ_clean_linker_1, # of connection points: 2
#     Edge 20, Type (0, 0), BuildingBlock: KIFKEQ_clean_linker_1, # of connection points: 2
#     Edge 21, Type (0, 0), BuildingBlock: KIFKEQ_clean_linker_1, # of connection points: 2
#     Edge 22, Type (0, 0), BuildingBlock: KIFKEQ_clean_linker_1, # of connection points: 2
#     Edge 23, Type (0, 0), BuildingBlock: KIFKEQ_clean_linker_1, # of connection points: 2
#     Edge 24, Type (0, 0), BuildingBlock: KIFKEQ_clean_linker_1, # of connection points: 2
#     Edge 25, Type (0, 0), BuildingBlock: KIFKEQ_clean_linker_1, # of connection points: 2
#     Edge 26, Type (0, 0), BuildingBlock: KIFKEQ_clean_linker_1, # of connection points: 2
#     Edge 27, Type (0, 0), BuildingBlock: KIFKEQ_clean_linker_1, # of connection points: 2
#     Edge 28, Type (0, 0), BuildingBlock: KIFKEQ_clean_linker_1, # of connection points: 2
#     Edge 29, Type (0, 0), BuildingBlock: KIFKEQ_clean_linker_1, # of connection points: 2
#     Edge 30, Type (0, 0), BuildingBlock: KIFKEQ_clean_linker_1, # of connection points: 2
#     Edge 31, Type (0, 0), BuildingBlock: KIFKEQ_clean_linker_1, # of connection points: 2
#     Edge 32, Type (0, 0), BuildingBlock: KIFKEQ_clean_linker_1, # of connection points: 2
#     Edge 33, Type (0, 0), BuildingBlock: KIFKEQ_clean_linker_1, # of connection points: 2
#     Edge 34, Type (0, 0), BuildingBlock: KIFKEQ_clean_linker_1, # of connection points: 2
#     Edge 35, Type (0, 0), BuildingBlock: KIFKEQ_clean_linker_1, # of connection points: 2
# Relax obj value: 0.371
# Max RMSD: 0.262
# Mean RMSD: 0.262
data_MOF--net-uku--node1-CEKHIL_clean_sbu_0--edge1-KIFKEQ_clean_linker_1
_symmetry_space_group_name_H-M    P1
_symmetry_Int_Tables_number       1
_symmetry_cell_setting            triclinic
loop_
_symmetry_equiv_pos_as_xyz
'x, y, z'
_cell_length_a     41.976801
_cell_length_b     41.853794
_cell_length_c     41.97624
_cell_angle_alpha  89.799539
_cell_angle_beta   90.157884
_cell_angle_gamma 89.94823
loop_
_atom_site_label
_atom_site_type_symbol
_atom_site_fract_x
_atom_site_fract_y
_atom_site_fract_z
_atom_type_partial_charge
Co0 Co 0.03898 0.17136 0.65359 0.0
O1 O 0.00611 0.1856 0.62497 0.0
O2 O 0.04795 0.1563 0.61129 0.0
C3 C 0.04787 0.21759 0.67911 0.0
O4 O 0.07798 0.15319 0.67606 0.0
Co5 Co 0.02748 0.17175 0.72678 0.0
O6 O 0.07356 0.1613 0.72882 0.0
C7 C 0.00209 0.11875 0.68821 0.0
C8 C 0.02184 0.17084 0.60285 0.0
C9 C 0.08927 0.15205 0.70458 0.0
O10 O 0.01468 0.13086 0.66302 0.0
O11 O 0.00272 0.13253 0.7154 0.0
O12 O 0.06039 0.21261 0.65129 0.0
O13 O 0.02693 0.19686 0.68808 0.0
Co14 Co 0.94096 0.81972 0.66066 0.0
O15 O 0.97669 0.81223 0.63306 0.0
O16 O 0.92874 0.8286 0.61738 0.0
C17 C 0.94378 0.77456 0.68989 0.0
O18 O 0.89841 0.82942 0.68151 0.0
Co19 Co 0.9499 0.82659 0.73402 0.0
O20 O 0.90269 0.82542 0.73475 0.0
C21 C 0.96117 0.8822 0.69181 0.0
C22 C 0.95767 0.82049 0.60998 0.0
C23 C 0.88614 0.82963 0.70957 0.0
O24 O 0.95435 0.86565 0.66692 0.0
O25 O 0.96211 0.87063 0.72006 0.0
O26 O 0.93071 0.77421 0.6618 0.0
O27 O 0.95848 0.80063 0.69712 0.0
Co28 Co 0.04331 0.81541 0.32983 0.0
O29 O 0.01082 0.80282 0.3594 0.0
O30 O 0.05658 0.82617 0.37238 0.0
C31 C 0.04583 0.77069 0.30054 0.0
O32 O 0.08242 0.83122 0.30613 0.0
Co33 Co 0.0267 0.82206 0.25782 0.0
O34 O 0.07329 0.82879 0.25334 0.0
C35 C 0.00854 0.87343 0.30197 0.0
C36 C 0.0294 0.81433 0.38132 0.0
C37 C 0.09159 0.83415 0.27704 0.0
O38 O 0.02285 0.85873 0.32484 0.0
O39 O 0.00522 0.86153 0.2741 0.0
O40 O 0.0603 0.77213 0.3279 0.0
O41 O 0.02654 0.794 0.29446 0.0
Co42 Co 0.93602 0.16718 0.32268 0.0
O43 O 0.96708 0.18306 0.35226 0.0
O44 O 0.92229 0.15828 0.36553 0.0
C45 C 0.93293 0.20999 0.29025 0.0
O46 O 0.89822 0.14831 0.29903 0.0
Co47 Co 0.95466 0.15698 0.25168 0.0
O48 O 0.90856 0.14769 0.24647 0.0
C49 C 0.97424 0.10947 0.29975 0.0
C50 C 0.94867 0.17189 0.37449 0.0
C51 C 0.88991 0.14307 0.26999 0.0
O52 O 0.95832 0.12447 0.32116 0.0
O53 O 0.97805 0.12016 0.27141 0.0
O54 O 0.9175 0.20974 0.31707 0.0
O55 O 0.95292 0.18688 0.28654 0.0
Co56 Co 0.65746 0.03402 0.16088 0.0
O57 O 0.62861 0.00108 0.17434 0.0
O58 O 0.61439 0.04725 0.15233 0.0
C59 C 0.68911 0.03519 0.2042 0.0
O60 O 0.68007 0.07385 0.14496 0.0
Co61 Co 0.72921 0.01848 0.15064 0.0
O62 O 0.73301 0.06546 0.14512 0.0
C63 C 0.68264 0.0011 0.10103 0.0
C64 C 0.606 0.01984 0.16433 0.0
C65 C 0.70887 0.08361 0.14118 0.0
O66 O 0.66031 0.01475 0.11695 0.0
O67 O 0.71105 -0.00225 0.11169 0.0
O68 O 0.66175 0.04975 0.20444 0.0
O69 O 0.69393 0.01685 0.18001 0.0
Co70 Co 0.32424 0.93928 0.16613 0.0
O71 O 0.35406 0.97137 0.1794 0.0
O72 O 0.36684 0.9254 0.1565 0.0
C73 C 0.29369 0.93786 0.21005 0.0
O74 O 0.30036 0.90021 0.15025 0.0
Co75 Co 0.25266 0.95667 0.15747 0.0
O76 O 0.24766 0.90986 0.15177 0.0
C77 C 0.29842 0.97447 0.10746 0.0
C78 C 0.37605 0.95244 0.16862 0.0
C79 C 0.27122 0.89119 0.14716 0.0
O80 O 0.32069 0.95959 0.12255 0.0
O81 O 0.2704 0.97832 0.11879 0.0
O82 O 0.32076 0.92275 0.20957 0.0
O83 O 0.28867 0.9568 0.18622 0.0
Co84 Co 0.65251 0.93925 0.80652 0.0
O85 O 0.62343 0.97185 0.79254 0.0
O86 O 0.60967 0.92666 0.81665 0.0
C87 C 0.68296 0.93594 0.76266 0.0
O88 O 0.67552 0.89992 0.82336 0.0
Co89 Co 0.72443 0.95515 0.81466 0.0
O90 O 0.72841 0.90841 0.82187 0.0
C91 C 0.67933 0.97442 0.86455 0.0
C92 C 0.60106 0.95371 0.80391 0.0
C93 C 0.70446 0.89036 0.82687 0.0
O94 O 0.65667 0.96016 0.8496 0.0
O95 O 0.70744 0.97742 0.8532 0.0
O96 O 0.65543 0.92176 0.76355 0.0
O97 O 0.68846 0.95539 0.78585 0.0
Co98 Co 0.32118 0.04053 0.81203 0.0
O99 O 0.34964 0.00748 0.79823 0.0
O100 O 0.36443 0.05317 0.82049 0.0
C101 C 0.28943 0.04247 0.76877 0.0
O102 O 0.29894 0.08039 0.82831 0.0
Co103 Co 0.24935 0.02553 0.82237 0.0
O104 O 0.24595 0.07251 0.82784 0.0
C105 C 0.296 0.00657 0.87148 0.0
C106 C 0.37248 0.02582 0.80827 0.0
C107 C 0.27019 0.09039 0.83198 0.0
O108 O 0.31833 0.02058 0.85581 0.0
O109 O 0.26757 0.0036 0.86079 0.0
O110 O 0.31685 0.05689 0.76856 0.0
O111 O 0.28455 0.02395 0.79292 0.0
Co112 Co 0.16134 0.65416 0.04507 0.0
O113 O 0.17649 0.62593 0.01245 0.0
O114 O 0.15274 0.61066 0.05715 0.0
C115 C 0.20432 0.68609 0.04834 0.0
O116 O 0.14351 0.67578 0.08439 0.0
Co117 Co 0.15112 0.72662 0.03172 0.0
O118 O 0.14732 0.72912 0.07887 0.0
C119 C 0.103 0.68003 0.00993 0.0
C120 C 0.16596 0.60283 0.0303 0.0
C121 C 0.14152 0.70429 0.09553 0.0
O122 O 0.11834 0.6572 0.02372 0.0
O123 O 0.11347 0.70873 0.00834 0.0
O124 O 0.20425 0.65854 0.06277 0.0
O125 O 0.18056 0.69121 0.02944 0.0
Co126 Co 0.16438 0.32473 0.93641 0.0
O127 O 0.17609 0.35151 0.97171 0.0
O128 O 0.15628 0.36861 0.92563 0.0
C129 C 0.20793 0.29333 0.93565 0.0
O130 O 0.15054 0.30519 0.89447 0.0
Co131 Co 0.1542 0.25158 0.94436 0.0
O132 O 0.15433 0.25168 0.89698 0.0
C133 C 0.10345 0.29637 0.96397 0.0
C134 C 0.16694 0.37532 0.95392 0.0
C135 C 0.14975 0.27748 0.8814 0.0
O136 O 0.11966 0.3202 0.95335 0.0
O137 O 0.11417 0.26771 0.96468 0.0
O138 O 0.20876 0.32159 0.92271 0.0
O139 O 0.18264 0.28705 0.95191 0.0
Co140 Co 0.81062 0.65409 0.93417 0.0
O141 O 0.79538 0.62511 0.96618 0.0
O142 O 0.8198 0.61088 0.92159 0.0
C143 C 0.76743 0.6858 0.9306 0.0
O144 O 0.8288 0.67702 0.89554 0.0
Co145 Co 0.81991 0.72601 0.95055 0.0
O146 O 0.82811 0.73004 0.90415 0.0
C147 C 0.86842 0.67919 0.97081 0.0
C148 C 0.8064 0.60245 0.94824 0.0
C149 C 0.83318 0.70601 0.88624 0.0
O150 O 0.85342 0.65689 0.95604 0.0
O151 O 0.85749 0.7076 0.97368 0.0
O152 O 0.76794 0.65853 0.91588 0.0
O153 O 0.79066 0.69049 0.95021 0.0
Co154 Co 0.81007 0.32154 0.03475 0.0
O155 O 0.79487 0.35043 0.00249 0.0
O156 O 0.81882 0.36479 0.04741 0.0
C157 C 0.76724 0.28946 0.03792 0.0
O158 O 0.82798 0.29883 0.07374 0.0
Co159 Co 0.82041 0.24975 0.01868 0.0
O160 O 0.8283 0.24579 0.06521 0.0
C161 C 0.86797 0.29704 -0.00189 0.0
C162 C 0.80563 0.37314 0.02056 0.0
C163 C 0.83259 0.26992 0.0832 0.0
O164 O 0.85303 0.31903 0.01337 0.0
O165 O 0.85723 0.26861 -0.00504 0.0
O166 O 0.76731 0.31683 0.05249 0.0
O167 O 0.79062 0.28494 0.01855 0.0
H168 H 0.00544 0.19201 0.39858 0.0
H169 H 0.91375 0.15451 0.42661 0.0
H170 H 0.02259 0.19178 0.45409 0.0
H171 H 0.93107 0.15425 0.48228 0.0
H172 H 0.05311 0.14878 0.55044 0.0
H173 H 0.03455 0.14962 0.49526 0.0
H174 H 0.94651 0.19371 0.525 0.0
H175 H 0.96496 0.19283 0.5802 0.0
C176 C -0.01111 0.18386 0.41661 0.0
C177 C 0.95826 0.17322 0.40827 0.0
C178 C -0.00119 0.18354 0.44834 0.0
C179 C 0.97822 0.17281 0.4724 0.0
C180 C 0.94734 0.16279 0.46418 0.0
C181 C 0.93749 0.16286 0.43236 0.0
C182 C 0.02978 0.15859 0.5452 0.0
C183 C 0.01051 0.1708 0.56958 0.0
C184 C 0.01925 0.15922 0.51363 0.0
C185 C -0.01085 0.17182 0.50592 0.0
C186 C 0.96971 0.18366 0.53035 0.0
C187 C 0.98036 0.18329 0.56188 0.0
H188 H 0.96995 0.82492 0.40346 0.0
H189 H 0.06623 0.80572 0.43405 0.0
H190 H 0.95291 0.82814 0.45857 0.0
H191 H 0.04903 0.80586 0.48943 0.0
H192 H 0.01628 0.83555 0.58724 0.0
H193 H 0.03371 0.83536 0.53197 0.0
H194 H 0.94071 0.80077 0.50328 0.0
H195 H 0.92291 0.80397 0.55819 0.0
C196 C 0.98733 0.82082 0.42218 0.0
C197 C 0.01932 0.81508 0.41475 0.0
C198 C 0.97757 0.82235 0.45386 0.0
C199 C -0.00057 0.81705 0.47888 0.0
C200 C 0.03151 0.81083 0.47112 0.0
C201 C 0.04143 0.81041 0.43937 0.0
C202 C -0.00034 0.82816 0.5689 0.0
C203 C 0.96828 0.81999 0.57671 0.0
C204 C 0.00967 0.8277 0.53719 0.0
C205 C -0.01125 0.81799 0.51275 0.0
C206 C 0.9574 0.80926 0.52101 0.0
C207 C 0.94716 0.8108 0.55256 0.0
H208 H 0.42737 0.91741 0.14935 0.0
H209 H 0.40109 0.00866 0.18944 0.0
H210 H 0.48316 0.93382 0.14899 0.0
H211 H 0.45685 0.02486 0.18939 0.0
H212 H 0.58234 0.96277 0.18488 0.0
H213 H 0.52668 0.94624 0.18701 0.0
H214 H 0.498 0.03808 0.14933 0.0
H215 H 0.55364 0.05479 0.14752 0.0
C216 C 0.43353 0.94087 0.15824 0.0
C217 C 0.40989 0.96177 0.16937 0.0
C218 C 0.46546 0.9502 0.15817 0.0
C219 C 0.4743 0.98064 0.1691 0.0
C220 C 0.45067 0.00141 0.18046 0.0
C221 C 0.41878 -0.00795 0.18065 0.0
C222 C 0.56414 0.97947 0.17713 0.0
C223 C 0.57231 0.01008 0.16603 0.0
C224 C 0.53232 0.96992 0.17819 0.0
C225 C 0.50804 -0.00914 0.1683 0.0
C226 C 0.5162 0.02157 0.15742 0.0
C227 C 0.54805 0.03107 0.15624 0.0
H228 H 0.57727 0.01059 0.7828 0.0
H229 H 0.54903 0.91997 0.82352 0.0
H230 H 0.52186 0.02814 0.78286 0.0
H231 H 0.49363 0.93771 0.82385 0.0
H232 H 0.42541 0.05984 0.82493 0.0
H233 H 0.48081 0.04214 0.82304 0.0
H234 H 0.45061 0.95111 0.78537 0.0
H235 H 0.39525 0.96861 0.78753 0.0
C236 C 0.55922 -0.0056 0.79172 0.0
C237 C 0.56745 0.9639 0.80317 0.0
C238 C 0.52755 0.00454 0.79192 0.0
C239 C 0.50349 0.98431 0.80342 0.0
C240 C 0.51168 0.95367 0.81455 0.0
C241 C 0.54338 0.94359 0.8145 0.0
C242 C 0.43063 0.03609 0.81618 0.0
C243 C 0.40603 0.01559 0.80642 0.0
C244 C 0.46232 0.02603 0.81496 0.0
C245 C 0.46997 -0.00476 0.8041 0.0
C246 C 0.44536 0.97483 0.79419 0.0
C247 C 0.41371 0.98493 0.79526 0.0
H248 H 0.18474 0.39613 0.01293 0.0
H249 H 0.15196 0.42946 0.92093 0.0
H250 H 0.18625 0.45117 0.03199 0.0
H251 H 0.15312 0.48432 0.9401 0.0
H252 H 0.14639 0.54968 0.06266 0.0
H253 H 0.14789 0.49438 0.04446 0.0
H254 H 0.19226 0.5249 0.95674 0.0
H255 H 0.1904 0.58018 0.9747 0.0
C256 C 0.17787 0.4152 -0.00321 0.0
C257 C 0.16823 0.40852 0.96544 0.0
C258 C 0.17859 0.44666 0.00776 0.0
C259 C 0.16983 0.47201 0.98752 0.0
C260 C 0.16039 0.4653 0.95611 0.0
C261 C 0.15955 0.43387 0.9452 0.0
C262 C 0.15658 0.54455 0.03956 0.0
C263 C 0.16815 0.56925 0.02004 0.0
C264 C 0.15759 0.51289 0.02922 0.0
C265 C 0.17008 0.50537 -0.00086 0.0
C266 C 0.1821 0.53005 0.97986 0.0
C267 C 0.18118 0.56167 -0.00978 0.0
H268 H 0.78462 0.5792 0.0048 0.0
H269 H 0.82424 0.54965 0.91463 0.0
H270 H 0.78305 0.52365 0.02237 0.0
H271 H 0.82286 0.49404 0.93238 0.0
H272 H 0.82349 0.42586 0.05428 0.0
H273 H 0.82257 0.48143 0.03642 0.0
H274 H 0.78301 0.45202 0.94606 0.0
H275 H 0.78413 0.39646 0.96375 0.0
C276 C 0.79292 0.56083 -0.0113 0.0
C277 C 0.80459 0.56874 0.95834 0.0
C278 C 0.79218 0.52907 -0.00115 0.0
C279 C 0.8029 0.50458 0.97877 0.0
C280 C 0.81417 0.51244 0.94823 0.0
C281 C 0.8151 0.54425 0.93814 0.0
C282 C 0.81448 0.43129 0.03066 0.0
C283 C 0.80392 0.40685 0.0104 0.0
C284 C 0.81383 0.46308 0.0205 0.0
C285 C 0.80277 0.47098 -0.01016 0.0
C286 C 0.79198 0.44655 0.96969 0.0
C287 C 0.79245 0.41479 0.9799 0.0
H288 H 0.11414 0.13147 0.76099 0.0
H289 H 0.13568 0.13862 0.66049 0.0
H290 H 0.16371 0.10266 0.76979 0.0
H291 H 0.18594 0.10992 0.66976 0.0
H292 H 0.28782 0.09393 0.7281 0.0
H293 H 0.2398 0.12047 0.70767 0.0
H294 H 0.18191 0.04502 0.74703 0.0
H295 H 0.22953 0.0182 0.76692 0.0
C296 C 0.12955 0.12721 0.74079 0.0
C297 C 0.12081 0.13718 0.70997 0.0
C298 C 0.15782 0.11052 0.74585 0.0
C299 C 0.17823 0.10379 0.72034 0.0
C300 C 0.17036 0.11475 0.6897 0.0
C301 C 0.14168 0.1311 0.68448 0.0
C302 C 0.26493 0.08251 0.73149 0.0
C303 C 0.26234 0.05428 0.74959 0.0
C304 C 0.23754 0.09772 0.71984 0.0
C305 C 0.20735 0.08495 0.72635 0.0
C306 C 0.205 0.05546 0.74212 0.0
C307 C 0.23226 0.04013 0.75343 0.0
H308 H 0.68345 0.88165 0.7262 0.0
H309 H 0.74321 0.95908 0.75879 0.0
H310 H 0.73098 0.85261 0.7085 0.0
H311 H 0.79032 0.92971 0.74173 0.0
H312 H 0.85415 0.84106 0.7649 0.0
H313 H 0.80265 0.86709 0.77072 0.0
H314 H 0.78979 0.86697 0.6688 0.0
H315 H 0.8419 0.84122 0.66246 0.0
C316 C 0.70655 0.89288 0.72872 0.0
C317 C 0.70969 0.92242 0.74434 0.0
C318 C 0.73363 0.87621 0.71869 0.0
C319 C 0.76402 0.8889 0.72431 0.0
C320 C 0.76699 0.91947 0.73749 0.0
C321 C 0.74004 0.93623 0.74716 0.0
C322 C 0.84029 0.84599 0.74364 0.0
C323 C 0.85244 0.83944 0.71315 0.0
C324 C 0.81087 0.86098 0.74705 0.0
C325 C 0.79278 0.86927 0.72015 0.0
C326 C 0.80359 0.86081 0.68978 0.0
C327 C 0.83334 0.84609 0.68627 0.0
H328 H 0.2917 0.88536 0.24931 0.0
H329 H 0.23449 0.96368 0.21364 0.0
H330 H 0.24352 0.85951 0.26981 0.0
H331 H 0.18667 0.93761 0.23367 0.0
H332 H 0.11463 0.85582 0.22033 0.0
H333 H 0.16496 0.88266 0.2105 0.0
H334 H 0.19218 0.86902 0.3088 0.0
H335 H 0.14125 0.84222 0.31912 0.0
C336 C 0.26903 0.89747 0.24664 0.0
C337 C 0.26675 0.92628 0.2294 0.0
C338 C 0.24154 0.88264 0.2583 0.0
C339 C 0.21152 0.89637 0.25268 0.0
C340 C 0.20958 0.92637 0.2378 0.0
C341 C 0.23696 0.9413 0.22646 0.0
C342 C 0.13131 0.85819 0.23991 0.0
C343 C 0.12375 0.84707 0.2706 0.0
C344 C 0.16003 0.87379 0.23428 0.0
C345 C 0.18204 0.87829 0.25905 0.0
C346 C 0.17538 0.86595 0.28942 0.0
C347 C 0.14629 0.85066 0.29524 0.0
H348 H 0.7487 0.01009 0.20689 0.0
H349 H 0.69119 0.08725 0.24363 0.0
H350 H 0.79654 0.03637 0.22666 0.0
H351 H 0.73935 0.11345 0.26367 0.0
H352 H 0.83991 0.1351 0.31145 0.0
H353 H 0.78982 0.10672 0.3014 0.0
H354 H 0.81902 0.08957 0.20446 0.0
H355 H 0.8686 0.11783 0.21409 0.0
C356 C 0.74619 0.03228 0.21985 0.0
C357 C 0.71628 0.04689 0.22323 0.0
C358 C 0.77358 0.04736 0.23102 0.0
C359 C 0.77156 0.07718 0.24606 0.0
C360 C 0.74146 0.09048 0.25205 0.0
C361 C 0.71395 0.07545 0.24063 0.0
C362 C 0.83551 0.12547 0.28793 0.0
C363 C 0.85837 0.12861 0.26362 0.0
C364 C 0.80689 0.10926 0.28225 0.0
C365 C 0.80095 0.09555 0.25236 0.0
C366 C 0.82336 0.09941 0.22792 0.0
C367 C 0.85165 0.11587 0.23341 0.0
H368 H 0.76438 0.10859 0.11862 0.0
H369 H 0.66562 0.13271 0.13557 0.0
H370 H 0.77221 0.15993 0.0926 0.0
H371 H 0.67393 0.18463 0.10959 0.0
H372 H 0.73075 0.28614 0.092 0.0
H373 H 0.71254 0.23709 0.11838 0.0
H374 H 0.74596 0.18164 0.0387 0.0
H375 H 0.76368 0.23028 0.01216 0.0
C376 C 0.7444 0.12493 0.11718 0.0
C377 C 0.71427 0.11636 0.12894 0.0
C378 C 0.74889 0.15425 0.10208 0.0
C379 C 0.72351 0.17583 0.09872 0.0
C380 C 0.69376 0.16818 0.1118 0.0
C381 C 0.68908 0.13852 0.1266 0.0
C382 C 0.73328 0.26358 0.07971 0.0
C383 C 0.74908 0.26194 0.05025 0.0
C384 C 0.72295 0.23559 0.09484 0.0
C385 C 0.7285 0.20575 0.08073 0.0
C386 C 0.74193 0.20442 0.05021 0.0
C387 C 0.75194 0.23226 0.03502 0.0
H388 H 0.20905 0.74488 0.02166 0.0
H389 H 0.24163 0.68891 0.10213 0.0
H390 H 0.22882 0.79322 0.04701 0.0
H391 H 0.26189 0.73769 0.12734 0.0
H392 H 0.31291 0.84083 0.1412 0.0
H393 H 0.3023 0.78886 0.11645 0.0
H394 H 0.20439 0.81639 0.10107 0.0
H395 H 0.2145 0.86779 0.12587 0.0
C396 C 0.22114 0.74279 0.04441 0.0
C397 C 0.22338 0.7132 0.06013 0.0
C398 C 0.23232 0.77046 0.05892 0.0
C399 C 0.24631 0.76906 0.08927 0.0
C400 C 0.2511 0.73924 0.10391 0.0
C401 C 0.2396 0.71141 0.08945 0.0
C402 C 0.28905 0.83565 0.13282 0.0
C403 C 0.26462 0.8586 0.13529 0.0
C404 C 0.28306 0.80596 0.11874 0.0
C405 C 0.25272 0.79904 0.10652 0.0
C406 C 0.22812 0.82147 0.10993 0.0
C407 C 0.23393 0.85082 0.12431 0.0
H408 H 0.76346 0.74496 0.95638 0.0
H409 H 0.73005 0.68867 0.8769 0.0
H410 H 0.74447 0.79334 0.93011 0.0
H411 H 0.71054 0.73746 0.85081 0.0
H412 H 0.66176 0.84106 0.83395 0.0
H413 H 0.67118 0.78945 0.86028 0.0
H414 H 0.76948 0.81528 0.8757 0.0
H415 H 0.76056 0.86628 0.8493 0.0
C416 C 0.75136 0.74281 0.93366 0.0
C417 C 0.74873 0.71311 0.91843 0.0
C418 C 0.7406 0.77051 0.91863 0.0
C419 C 0.72663 0.769 0.88829 0.0
C420 C 0.72135 0.7391 0.87421 0.0
C421 C 0.73244 0.71126 0.88917 0.0
C422 C 0.68545 0.83558 0.8427 0.0
C423 C 0.71035 0.85792 0.83974 0.0
C424 C 0.69076 0.8061 0.85769 0.0
C425 C 0.72087 0.79883 0.87037 0.0
C426 C 0.74591 0.82066 0.86653 0.0
C427 C 0.74079 0.84978 0.85121 0.0
H428 H 0.21417 0.11639 0.85198 0.0
H429 H 0.31418 0.13842 0.84024 0.0
H430 H 0.20619 0.16738 0.87828 0.0
H431 H 0.30568 0.19005 0.86648 0.0
H432 H 0.24625 0.29219 0.88272 0.0
H433 H 0.26612 0.24399 0.85616 0.0
H434 H 0.23247 0.18641 0.93455 0.0
H435 H 0.21305 0.23416 0.96123 0.0
C436 C 0.23442 0.1322 0.85461 0.0
C437 C 0.26492 0.12309 0.84427 0.0
C438 C 0.22981 0.16133 0.86984 0.0
C439 C 0.25546 0.18221 0.87475 0.0
C440 C 0.28565 0.17412 0.86304 0.0
C441 C 0.29042 0.14463 0.84809 0.0
C442 C 0.24417 0.26937 0.89478 0.0
C443 C 0.22774 0.26681 0.92384 0.0
C444 C 0.25542 0.24187 0.87953 0.0
C445 C 0.2502 0.21167 0.89317 0.0
C446 C 0.23633 0.20949 0.92344 0.0
C447 C 0.22536 0.23682 0.93872 0.0
H448 H 0.01565 0.75299 0.246 0.0
H449 H 0.10587 0.74672 0.2954 0.0
H450 H 0.04054 0.7312 0.19799 0.0
H451 H 0.1308 0.72595 0.24709 0.0
H452 H 0.15654 0.75199 0.13692 0.0
H453 H 0.1337 0.76128 0.18974 0.0
H454 H 0.07617 0.67649 0.18012 0.0
H455 H 0.09961 0.66654 0.12764 0.0
C456 C 0.04055 0.74617 0.2468 0.0
C457 C 0.05881 0.75136 0.27437 0.0
C458 C 0.05473 0.73379 0.21942 0.0
C459 C 0.0875 0.72714 0.21906 0.0
C460 C 0.10546 0.73093 0.24699 0.0
C461 C 0.09113 0.74257 0.2746 0.0
C462 C 0.13935 0.73513 0.14629 0.0
C463 C 0.12981 0.70858 0.12829 0.0
C464 C 0.12646 0.74034 0.17646 0.0
C465 C 0.10335 0.71949 0.18876 0.0
C466 C 0.09407 0.69274 0.17102 0.0
C467 C 0.10753 0.68707 0.14116 0.0
H468 H 0.02188 0.24513 0.7313 0.0
H469 H 0.11096 0.2323 0.68172 0.0
H470 H 0.05071 0.26636 0.7773 0.0
H471 H 0.13982 0.25266 0.72816 0.0
H472 H 0.11415 0.32021 0.84754 0.0
H473 H 0.09168 0.31315 0.79423 0.0
H474 H 0.14081 0.22299 0.78576 0.0
H475 H 0.16288 0.22958 0.83936 0.0
C476 C 0.04752 0.24779 0.72994 0.0
C477 C 0.0642 0.2373 0.70302 0.0
C478 C 0.06398 0.25987 0.75618 0.0
C479 C 0.09741 0.26094 0.75615 0.0
C480 C 0.11403 0.25204 0.72861 0.0
C481 C 0.09749 0.24068 0.70203 0.0
C482 C 0.12067 0.29917 0.83408 0.0
C483 C 0.14006 0.27529 0.84766 0.0
C484 C 0.10775 0.29517 0.80367 0.0
C485 C 0.11462 0.26762 0.78607 0.0
C486 C 0.13545 0.2446 0.79885 0.0
C487 C 0.14786 0.24826 0.82953 0.0
H488 H 0.84421 0.66274 0.83823 0.0
H489 H 0.85512 0.76254 0.86258 0.0
H490 H 0.87349 0.67218 0.78854 0.0
H491 H 0.8844 0.77145 0.81355 0.0
H492 H 0.96823 0.76902 0.74943 0.0
H493 H 0.9409 0.74748 0.79591 0.0
H494 H 0.866 0.7112 0.73551 0.0
H495 H 0.89321 0.73307 0.68868 0.0
C496 C 0.85257 0.68665 0.83295 0.0
C497 C 0.84753 0.71183 0.85456 0.0
C498 C 0.8693 0.69195 0.80458 0.0
C499 C 0.88163 0.72234 0.79774 0.0
C500 C 0.87562 0.74764 0.8187 0.0
C501 C 0.85863 0.74252 0.84668 0.0
C502 C 0.94643 0.75564 0.7459 0.0
C503 C 0.93256 0.75322 0.71553 0.0
C504 C 0.93077 0.74346 0.77249 0.0
C505 C 0.90114 0.72833 0.76916 0.0
C506 C 0.88882 0.72288 0.73855 0.0
C507 C 0.90446 0.7353 0.71182 0.0
H508 H 0.96037 0.21352 0.23194 0.0
H509 H 0.87881 0.24656 0.28518 0.0
H510 H 0.9354 0.23168 0.18268 0.0
H511 H 0.85398 0.26515 0.23552 0.0
H512 H 0.83706 0.31251 0.13273 0.0
H513 H 0.86275 0.30375 0.1846 0.0
H514 H 0.88367 0.20645 0.15817 0.0
H515 H 0.858 0.21476 0.10685 0.0
C516 C 0.93744 0.22534 0.23322 0.0
C517 C 0.92131 0.22814 0.26234 0.0
C518 C 0.92314 0.2356 0.20501 0.0
C519 C 0.89259 0.24921 0.20538 0.0
C520 C 0.87755 0.25463 0.23471 0.0
C521 C 0.8918 0.24406 0.26306 0.0
C522 C 0.84695 0.28919 0.1381 0.0
C523 C 0.84563 0.26439 0.11555 0.0
C524 C 0.86158 0.28424 0.16775 0.0
C525 C 0.87554 0.25462 0.17501 0.0
C526 C 0.87352 0.22969 0.15285 0.0
C527 C 0.85859 0.23443 0.12354 0.0
H528 H 0.98756 0.0828 0.63533 0.0
H529 H -0.00926 0.07898 0.73821 0.0
H530 H 0.97444 0.02593 0.63398 0.0
H531 H 0.97965 0.02256 0.73688 0.0
H532 H 0.9379 0.9264 0.73182 0.0
H533 H 0.94208 0.98396 0.72826 0.0
H534 H -0.00295 0.97475 0.64169 0.0
H535 H -0.00936 0.91657 0.64431 0.0
C536 C 0.9852 0.06993 0.65763 0.0
C537 C -0.00999 0.08554 0.68688 0.0
C538 C 0.97805 0.03723 0.65686 0.0
C539 C 0.976 0.01942 0.68529 0.0
C540 C 0.98021 0.03538 0.71445 0.0
C541 C 0.98674 0.06796 0.71523 0.0
C542 C 0.95093 0.93669 0.71203 0.0
C543 C 0.96453 0.9171 0.68868 0.0
C544 C 0.95345 0.96976 0.71001 0.0
C545 C 0.97051 0.98423 0.68506 0.0
C546 C 0.98353 0.96457 0.66115 0.0
C547 C 0.9802 0.93125 0.66275 0.0
H548 H 0.01131 0.07141 0.26236 0.0
H549 H 0.96024 0.07191 0.35175 0.0
H550 H 0.01812 0.01393 0.26682 0.0
H551 H 0.9673 0.014 0.35604 0.0
H552 H 0.98057 0.91358 0.25873 0.0
H553 H 0.97477 0.97115 0.26263 0.0
H554 H 0.00997 0.96836 0.35928 0.0
H555 H 0.01597 0.91031 0.35562 0.0
C556 C 0.00201 0.05942 0.28326 0.0
C557 C 0.9847 0.07628 0.3064 0.0
C558 C 0.00576 0.02643 0.28568 0.0
C559 C -0.00751 0.00953 0.31134 0.0
C560 C 0.97752 0.02652 0.33589 0.0
C561 C 0.97359 0.05967 0.33342 0.0
C562 C 0.98668 0.92498 0.28105 0.0
C563 C -0.0008 0.90725 0.30669 0.0
C564 C 0.98358 0.95804 0.28315 0.0
C565 C -0.00732 0.97418 0.31098 0.0
C566 C 0.00304 0.95643 0.33748 0.0
C567 C 0.00639 0.92321 0.33533 0.0
H568 H 0.62684 0.96328 0.9021 0.0
H569 H 0.72064 0.00604 0.90368 0.0
H570 H 0.62385 0.96839 0.96007 0.0
H571 H 0.71744 0.01096 0.96121 0.0
H572 H 0.62927 0.01347 0.06476 0.0
H573 H 0.62463 0.00931 0.00677 0.0
H574 H 0.71811 0.96653 0.00282 0.0
H575 H 0.72293 0.97048 0.06031 0.0
C576 C 0.6465 0.97439 0.91461 0.0
C577 C 0.67423 0.98376 0.89821 0.0
C578 C 0.64476 0.97722 0.94781 0.0
C579 C 0.67074 0.9893 0.96508 0.0
C580 C 0.69739 0.0008 0.94849 0.0
C581 C 0.69909 -0.00183 0.91545 0.0
C582 C 0.64857 0.00256 0.0516 0.0
C583 C 0.67669 -0.00725 0.06723 0.0
C584 C 0.64589 0.0003 0.01841 0.0
C585 C 0.67134 0.98837 0.00035 0.0
C586 C 0.69846 0.9766 0.01615 0.0
C587 C 0.70108 0.97866 0.04916 0.0
H588 H 0.25797 0.00746 0.06835 0.0
H589 H 0.35073 0.9623 0.06995 0.0
H590 H 0.26159 0.01334 0.01092 0.0
H591 H 0.35417 0.96846 0.01201 0.0
H592 H 0.25574 0.97476 0.91144 0.0
H593 H 0.26057 0.969 0.96881 0.0
H594 H 0.35411 0.01153 0.9659 0.0
H595 H 0.34945 0.0176 0.90801 0.0
C596 C 0.27938 -0.00077 0.0566 0.0
C597 C 0.30382 0.98391 0.07382 0.0
C598 C 0.28133 0.00244 0.02363 0.0
C599 C 0.30781 -0.00936 0.00704 0.0
C600 C 0.3334 0.97754 0.02429 0.0
C601 C 0.33139 0.9741 0.05745 0.0
C602 C 0.2776 0.98251 0.92277 0.0
C603 C 0.30198 -0.00286 0.90506 0.0
C604 C 0.28024 0.97937 0.95572 0.0
C605 C 0.30737 -0.00946 0.97178 0.0
C606 C 0.33285 0.00295 0.95403 0.0
C607 C 0.33015 0.00633 0.9209 0.0
H608 H 0.90683 0.71922 0.00474 0.0
H609 H 0.90589 0.62641 0.95965 0.0
H610 H 0.9641 0.71516 0.01177 0.0
H611 H 0.96367 0.62251 0.96699 0.0
H612 H 0.06623 0.6264 0.01912 0.0
H613 H 0.00862 0.622 0.01097 0.0
H614 H 0.00731 0.71609 0.96864 0.0
H615 H 0.06444 0.72068 0.97654 0.0
C616 C 0.91868 0.69769 -0.00323 0.0
C617 C 0.90172 0.67337 0.98115 0.0
C618 C 0.95157 0.69551 0.00062 0.0
C619 C 0.96831 0.66889 -0.01082 0.0
C620 C 0.95127 0.64339 0.97578 0.0
C621 C 0.9182 0.64564 0.9717 0.0
C622 C 0.05378 0.64587 0.00743 0.0
C623 C 0.06992 0.67416 -0.00098 0.0
C624 C 0.02081 0.64332 0.00285 0.0
C625 C 0.00354 0.66904 -0.01004 0.0
C626 C 0.02001 0.69624 0.97939 0.0
C627 C 0.05281 0.69875 0.98377 0.0
H628 H 0.06254 0.25274 -0.01045 0.0
H629 H 0.06716 0.35084 0.95703 0.0
H630 H 0.0052 0.25732 -0.00514 0.0
H631 H 0.00922 0.35523 0.96253 0.0
H632 H 0.90624 0.34839 0.01229 0.0
H633 H 0.96389 0.35193 0.00455 0.0
H634 H 0.96218 0.26307 0.95272 0.0
H635 H 0.90496 0.25932 0.96034 0.0
C636 C 0.05144 0.27544 0.98386 0.0
C637 C 0.06953 0.30129 0.97244 0.0
C638 C 0.0185 0.27795 0.9867 0.0
C639 C 0.00275 0.30638 0.97835 0.0
C640 C 0.02083 0.33297 0.96888 0.0
C641 C 0.05397 0.33042 0.96584 0.0
C642 C 0.91803 0.32999 -0.00142 0.0
C643 C 0.90103 0.30324 0.98744 0.0
C644 C 0.95104 0.33204 -0.00576 0.0
C645 C 0.9675 0.30736 0.97877 0.0
C646 C 0.95014 0.28202 0.96546 0.0
C647 C 0.9173 0.27999 0.96968 0.0
loop_
_geom_bond_atom_site_label_1
_geom_bond_atom_site_label_2
_geom_bond_distance
_geom_bond_site_symmetry_2
_ccdc_geom_bond_type
Co0 O1 2.216 . S
Co0 O2 2.091 . S
Co0 O4 2.004 . S
Co0 O10 2.021 . S
Co0 O12 2.137 . S
Co0 O13 2.244 . S
O1 Co0 2.216 . S
O1 C8 1.247 . S
O2 Co0 2.091 . S
O2 C8 1.261 . S
C3 O12 1.247 . S
C3 O13 1.272 . S
O4 Co0 2.004 . S
O4 C9 1.259 . S
Co5 O6 2.061 . S
Co5 O11 2.052 . S
Co5 O13 2.135 . S
O6 Co5 2.061 . S
O6 C9 1.235 . S
C7 O10 1.238 . S
C7 O11 1.241 . S
C8 O1 1.247 . S
C8 O2 1.261 . S
C9 O4 1.259 . S
C9 O6 1.235 . S
O10 Co0 2.021 . S
O10 C7 1.238 . S
O11 Co5 2.052 . S
O11 C7 1.241 . S
O12 Co0 2.137 . S
O12 C3 1.247 . S
O13 Co0 2.244 . S
O13 C3 1.272 . S
O13 Co5 2.135 . S
Co14 O15 2.216 . S
Co14 O16 2.091 . S
Co14 O18 2.004 . S
Co14 O24 2.021 . S
Co14 O26 2.137 . S
Co14 O27 2.244 . S
O15 Co14 2.216 . S
O15 C22 1.247 . S
O16 Co14 2.091 . S
O16 C22 1.261 . S
C17 O26 1.247 . S
C17 O27 1.272 . S
O18 Co14 2.004 . S
O18 C23 1.259 . S
Co19 O20 2.061 . S
Co19 O25 2.052 . S
Co19 O27 2.135 . S
O20 Co19 2.061 . S
O20 C23 1.235 . S
C21 O24 1.238 . S
C21 O25 1.241 . S
C22 O15 1.247 . S
C22 O16 1.261 . S
C23 O18 1.259 . S
C23 O20 1.235 . S
O24 Co14 2.021 . S
O24 C21 1.238 . S
O25 Co19 2.052 . S
O25 C21 1.241 . S
O26 Co14 2.137 . S
O26 C17 1.247 . S
O27 Co14 2.244 . S
O27 C17 1.272 . S
O27 Co19 2.135 . S
Co28 O29 2.216 . S
Co28 O30 2.091 . S
Co28 O32 2.004 . S
Co28 O38 2.021 . S
Co28 O40 2.137 . S
Co28 O41 2.244 . S
O29 Co28 2.216 . S
O29 C36 1.247 . S
O30 Co28 2.091 . S
O30 C36 1.261 . S
C31 O40 1.247 . S
C31 O41 1.272 . S
O32 Co28 2.004 . S
O32 C37 1.259 . S
Co33 O34 2.061 . S
Co33 O39 2.052 . S
Co33 O41 2.135 . S
O34 Co33 2.061 . S
O34 C37 1.235 . S
C35 O38 1.238 . S
C35 O39 1.241 . S
C36 O29 1.247 . S
C36 O30 1.261 . S
C37 O32 1.259 . S
C37 O34 1.235 . S
O38 Co28 2.021 . S
O38 C35 1.238 . S
O39 Co33 2.052 . S
O39 C35 1.241 . S
O40 Co28 2.137 . S
O40 C31 1.247 . S
O41 Co28 2.244 . S
O41 C31 1.272 . S
O41 Co33 2.135 . S
Co42 O43 2.216 . S
Co42 O44 2.091 . S
Co42 O46 2.004 . S
Co42 O52 2.021 . S
Co42 O54 2.137 . S
Co42 O55 2.244 . S
O43 Co42 2.216 . S
O43 C50 1.247 . S
O44 Co42 2.091 . S
O44 C50 1.261 . S
C45 O54 1.247 . S
C45 O55 1.272 . S
O46 Co42 2.004 . S
O46 C51 1.259 . S
Co47 O48 2.061 . S
Co47 O53 2.052 . S
Co47 O55 2.135 . S
O48 Co47 2.061 . S
O48 C51 1.235 . S
C49 O52 1.238 . S
C49 O53 1.241 . S
C50 O43 1.247 . S
C50 O44 1.261 . S
C51 O46 1.259 . S
C51 O48 1.235 . S
O52 Co42 2.021 . S
O52 C49 1.238 . S
O53 Co47 2.052 . S
O53 C49 1.241 . S
O54 Co42 2.137 . S
O54 C45 1.247 . S
O55 Co42 2.244 . S
O55 C45 1.272 . S
O55 Co47 2.135 . S
Co56 O57 2.216 . S
Co56 O58 2.091 . S
Co56 O60 2.004 . S
Co56 O66 2.021 . S
Co56 O68 2.137 . S
Co56 O69 2.244 . S
O57 Co56 2.216 . S
O57 C64 1.247 . S
O58 Co56 2.091 . S
O58 C64 1.261 . S
C59 O68 1.247 . S
C59 O69 1.272 . S
O60 Co56 2.004 . S
O60 C65 1.259 . S
Co61 O62 2.061 . S
Co61 O67 2.052 . S
Co61 O69 2.135 . S
O62 Co61 2.061 . S
O62 C65 1.235 . S
C63 O66 1.238 . S
C63 O67 1.241 . S
C64 O57 1.247 . S
C64 O58 1.261 . S
C65 O60 1.259 . S
C65 O62 1.235 . S
O66 Co56 2.021 . S
O66 C63 1.238 . S
O67 Co61 2.052 . S
O67 C63 1.241 . S
O68 Co56 2.137 . S
O68 C59 1.247 . S
O69 Co56 2.244 . S
O69 C59 1.272 . S
O69 Co61 2.135 . S
Co70 O71 2.216 . S
Co70 O72 2.091 . S
Co70 O74 2.004 . S
Co70 O80 2.021 . S
Co70 O82 2.137 . S
Co70 O83 2.244 . S
O71 Co70 2.216 . S
O71 C78 1.247 . S
O72 Co70 2.091 . S
O72 C78 1.261 . S
C73 O82 1.247 . S
C73 O83 1.272 . S
O74 Co70 2.004 . S
O74 C79 1.259 . S
Co75 O76 2.061 . S
Co75 O81 2.052 . S
Co75 O83 2.135 . S
O76 Co75 2.061 . S
O76 C79 1.235 . S
C77 O80 1.238 . S
C77 O81 1.241 . S
C78 O71 1.247 . S
C78 O72 1.261 . S
C79 O74 1.259 . S
C79 O76 1.235 . S
O80 Co70 2.021 . S
O80 C77 1.238 . S
O81 Co75 2.052 . S
O81 C77 1.241 . S
O82 Co70 2.137 . S
O82 C73 1.247 . S
O83 Co70 2.244 . S
O83 C73 1.272 . S
O83 Co75 2.135 . S
Co84 O85 2.216 . S
Co84 O86 2.091 . S
Co84 O88 2.004 . S
Co84 O94 2.021 . S
Co84 O96 2.137 . S
Co84 O97 2.244 . S
O85 Co84 2.216 . S
O85 C92 1.247 . S
O86 Co84 2.091 . S
O86 C92 1.261 . S
C87 O96 1.247 . S
C87 O97 1.272 . S
O88 Co84 2.004 . S
O88 C93 1.259 . S
Co89 O90 2.061 . S
Co89 O95 2.052 . S
Co89 O97 2.135 . S
O90 Co89 2.061 . S
O90 C93 1.235 . S
C91 O94 1.238 . S
C91 O95 1.241 . S
C92 O85 1.247 . S
C92 O86 1.261 . S
C93 O88 1.259 . S
C93 O90 1.235 . S
O94 Co84 2.021 . S
O94 C91 1.238 . S
O95 Co89 2.052 . S
O95 C91 1.241 . S
O96 Co84 2.137 . S
O96 C87 1.247 . S
O97 Co84 2.244 . S
O97 C87 1.272 . S
O97 Co89 2.135 . S
Co98 O99 2.216 . S
Co98 O100 2.091 . S
Co98 O102 2.004 . S
Co98 O108 2.021 . S
Co98 O110 2.137 . S
Co98 O111 2.244 . S
O99 Co98 2.216 . S
O99 C106 1.247 . S
O100 Co98 2.091 . S
O100 C106 1.261 . S
C101 O110 1.247 . S
C101 O111 1.272 . S
O102 Co98 2.004 . S
O102 C107 1.259 . S
Co103 O104 2.061 . S
Co103 O109 2.052 . S
Co103 O111 2.135 . S
O104 Co103 2.061 . S
O104 C107 1.235 . S
C105 O108 1.238 . S
C105 O109 1.241 . S
C106 O99 1.247 . S
C106 O100 1.261 . S
C107 O102 1.259 . S
C107 O104 1.235 . S
O108 Co98 2.021 . S
O108 C105 1.238 . S
O109 Co103 2.052 . S
O109 C105 1.241 . S
O110 Co98 2.137 . S
O110 C101 1.247 . S
O111 Co98 2.244 . S
O111 C101 1.272 . S
O111 Co103 2.135 . S
Co112 O113 2.216 . S
Co112 O114 2.091 . S
Co112 O116 2.004 . S
Co112 O122 2.021 . S
Co112 O124 2.137 . S
Co112 O125 2.244 . S
O113 Co112 2.216 . S
O113 C120 1.247 . S
O114 Co112 2.091 . S
O114 C120 1.261 . S
C115 O124 1.247 . S
C115 O125 1.272 . S
O116 Co112 2.004 . S
O116 C121 1.259 . S
Co117 O118 2.061 . S
Co117 O123 2.052 . S
Co117 O125 2.135 . S
O118 Co117 2.061 . S
O118 C121 1.235 . S
C119 O122 1.238 . S
C119 O123 1.241 . S
C120 O113 1.247 . S
C120 O114 1.261 . S
C121 O116 1.259 . S
C121 O118 1.235 . S
O122 Co112 2.021 . S
O122 C119 1.238 . S
O123 Co117 2.052 . S
O123 C119 1.241 . S
O124 Co112 2.137 . S
O124 C115 1.247 . S
O125 Co112 2.244 . S
O125 C115 1.272 . S
O125 Co117 2.135 . S
Co126 O127 2.216 . S
Co126 O128 2.091 . S
Co126 O130 2.004 . S
Co126 O136 2.021 . S
Co126 O138 2.137 . S
Co126 O139 2.244 . S
O127 Co126 2.216 . S
O127 C134 1.247 . S
O128 Co126 2.091 . S
O128 C134 1.261 . S
C129 O138 1.247 . S
C129 O139 1.272 . S
O130 Co126 2.004 . S
O130 C135 1.259 . S
Co131 O132 2.061 . S
Co131 O137 2.052 . S
Co131 O139 2.135 . S
O132 Co131 2.061 . S
O132 C135 1.235 . S
C133 O136 1.238 . S
C133 O137 1.241 . S
C134 O127 1.247 . S
C134 O128 1.261 . S
C135 O130 1.259 . S
C135 O132 1.235 . S
O136 Co126 2.021 . S
O136 C133 1.238 . S
O137 Co131 2.052 . S
O137 C133 1.241 . S
O138 Co126 2.137 . S
O138 C129 1.247 . S
O139 Co126 2.244 . S
O139 C129 1.272 . S
O139 Co131 2.135 . S
Co140 O141 2.216 . S
Co140 O142 2.091 . S
Co140 O144 2.004 . S
Co140 O150 2.021 . S
Co140 O152 2.137 . S
Co140 O153 2.244 . S
O141 Co140 2.216 . S
O141 C148 1.247 . S
O142 Co140 2.091 . S
O142 C148 1.261 . S
C143 O152 1.247 . S
C143 O153 1.272 . S
O144 Co140 2.004 . S
O144 C149 1.259 . S
Co145 O146 2.061 . S
Co145 O151 2.052 . S
Co145 O153 2.135 . S
O146 Co145 2.061 . S
O146 C149 1.235 . S
C147 O150 1.238 . S
C147 O151 1.241 . S
C148 O141 1.247 . S
C148 O142 1.261 . S
C149 O144 1.259 . S
C149 O146 1.235 . S
O150 Co140 2.021 . S
O150 C147 1.238 . S
O151 Co145 2.052 . S
O151 C147 1.241 . S
O152 Co140 2.137 . S
O152 C143 1.247 . S
O153 Co140 2.244 . S
O153 C143 1.272 . S
O153 Co145 2.135 . S
Co154 O155 2.216 . S
Co154 O156 2.091 . S
Co154 O158 2.004 . S
Co154 O164 2.021 . S
Co154 O166 2.137 . S
Co154 O167 2.244 . S
O155 Co154 2.216 . S
O155 C162 1.247 . S
O156 Co154 2.091 . S
O156 C162 1.261 . S
C157 O166 1.247 . S
C157 O167 1.272 . S
O158 Co154 2.004 . S
O158 C163 1.259 . S
Co159 O160 2.061 . S
Co159 O165 2.052 . S
Co159 O167 2.135 . S
O160 Co159 2.061 . S
O160 C163 1.235 . S
C161 O164 1.238 . S
C161 O165 1.241 . S
C162 O155 1.247 . S
C162 O156 1.261 . S
C163 O158 1.259 . S
C163 O160 1.235 . S
O164 Co154 2.021 . S
O164 C161 1.238 . S
O165 Co159 2.052 . S
O165 C161 1.241 . S
O166 Co154 2.137 . S
O166 C157 1.247 . S
O167 Co154 2.244 . S
O167 C157 1.272 . S
O167 Co159 2.135 . S
H168 C176 0.950 . S
H169 C181 0.950 . S
H170 C178 0.950 1_455 S
H171 C180 0.950 . S
H172 C182 0.950 . S
H173 C184 0.950 1_655 S
H174 C186 0.950 . S
H175 C187 0.950 . S
C176 H168 0.950 . S
C176 C177 1.386 . S
C176 C178 1.391 . S
C177 C176 1.386 . S
C177 C181 1.393 . S
C178 H170 0.950 1_655 S
C178 C176 1.391 . S
C178 C179 1.400 . S
C179 C178 1.400 . S
C179 C180 1.398 . S
C179 C185 1.491 1_655 S
C180 H171 0.950 . S
C180 C179 1.398 . S
C180 C181 1.391 . S
C181 H169 0.950 . S
C181 C177 1.393 . S
C181 C180 1.391 . S
C182 H172 0.950 . S
C182 C183 1.386 . S
C182 C184 1.391 . S
C183 C182 1.386 . S
C183 C187 1.393 . S
C184 H173 0.950 1_455 S
C184 C182 1.391 . S
C184 C185 1.400 . S
C185 C179 1.491 1_455 S
C185 C184 1.400 . S
C185 C186 1.398 . S
C186 H174 0.950 . S
C186 C185 1.398 . S
C186 C187 1.391 . S
C187 H175 0.950 . S
C187 C183 1.393 . S
C187 C186 1.391 . S
H188 C196 0.950 . S
H189 C201 0.950 . S
H190 C198 0.950 1_655 S
H191 C200 0.950 . S
H192 C202 0.950 . S
H193 C204 0.950 1_455 S
H194 C206 0.950 . S
H195 C207 0.950 . S
C196 H188 0.950 . S
C196 C197 1.386 . S
C196 C198 1.391 . S
C197 C196 1.386 . S
C197 C201 1.393 . S
C198 H190 0.950 1_455 S
C198 C196 1.391 . S
C198 C199 1.400 . S
C199 C198 1.400 . S
C199 C200 1.398 . S
C199 C205 1.491 1_455 S
C200 H191 0.950 . S
C200 C199 1.398 . S
C200 C201 1.391 . S
C201 H189 0.950 . S
C201 C197 1.393 . S
C201 C200 1.391 . S
C202 H192 0.950 . S
C202 C203 1.386 . S
C202 C204 1.391 . S
C203 C202 1.386 . S
C203 C207 1.393 . S
C204 H193 0.950 1_655 S
C204 C202 1.391 . S
C204 C205 1.400 . S
C205 C199 1.491 1_655 S
C205 C204 1.400 . S
C205 C206 1.398 . S
C206 H194 0.950 . S
C206 C205 1.398 . S
C206 C207 1.391 . S
C207 H195 0.950 . S
C207 C203 1.393 . S
C207 C206 1.391 . S
H208 C216 0.950 . S
H209 C221 0.950 . S
H210 C218 0.950 . S
H211 C220 0.950 1_545 S
H212 C222 0.950 . S
H213 C224 0.950 . S
H214 C226 0.950 1_565 S
H215 C227 0.950 . S
C216 H208 0.950 . S
C216 C217 1.386 . S
C216 C218 1.391 . S
C217 C216 1.386 . S
C217 C221 1.393 . S
C218 H210 0.950 . S
C218 C216 1.391 . S
C218 C219 1.400 . S
C219 C218 1.400 . S
C219 C220 1.398 . S
C219 C225 1.491 1_565 S
C220 H211 0.950 1_565 S
C220 C219 1.398 . S
C220 C221 1.391 . S
C221 H209 0.950 . S
C221 C217 1.393 . S
C221 C220 1.391 . S
C222 H212 0.950 . S
C222 C223 1.386 . S
C222 C224 1.391 . S
C223 C222 1.386 . S
C223 C227 1.393 . S
C224 H213 0.950 . S
C224 C222 1.391 . S
C224 C225 1.400 . S
C225 C219 1.491 1_545 S
C225 C224 1.400 . S
C225 C226 1.398 . S
C226 H214 0.950 1_545 S
C226 C225 1.398 . S
C226 C227 1.391 . S
C227 H215 0.950 . S
C227 C223 1.393 . S
C227 C226 1.391 . S
H228 C236 0.950 . S
H229 C241 0.950 . S
H230 C238 0.950 1_545 S
H231 C240 0.950 . S
H232 C242 0.950 . S
H233 C244 0.950 1_565 S
H234 C246 0.950 . S
H235 C247 0.950 . S
C236 H228 0.950 . S
C236 C237 1.386 . S
C236 C238 1.391 . S
C237 C236 1.386 . S
C237 C241 1.393 . S
C238 H230 0.950 1_565 S
C238 C236 1.391 . S
C238 C239 1.400 . S
C239 C238 1.400 . S
C239 C240 1.398 . S
C239 C245 1.491 1_565 S
C240 H231 0.950 . S
C240 C239 1.398 . S
C240 C241 1.391 . S
C241 H229 0.950 . S
C241 C237 1.393 . S
C241 C240 1.391 . S
C242 H232 0.950 . S
C242 C243 1.386 . S
C242 C244 1.391 . S
C243 C242 1.386 . S
C243 C247 1.393 . S
C244 H233 0.950 1_545 S
C244 C242 1.391 . S
C244 C245 1.400 . S
C245 C239 1.491 1_545 S
C245 C244 1.400 . S
C245 C246 1.398 . S
C246 H234 0.950 . S
C246 C245 1.398 . S
C246 C247 1.391 . S
C247 H235 0.950 . S
C247 C243 1.393 . S
C247 C246 1.391 . S
H248 C256 0.950 . S
H249 C261 0.950 . S
H250 C258 0.950 . S
H251 C260 0.950 . S
H252 C262 0.950 . S
H253 C264 0.950 . S
H254 C266 0.950 . S
H255 C267 0.950 . S
C256 H248 0.950 . S
C256 C257 1.386 . S
C256 C258 1.391 . S
C257 C256 1.386 . S
C257 C261 1.393 . S
C258 H250 0.950 . S
C258 C256 1.391 . S
C258 C259 1.400 . S
C259 C258 1.400 . S
C259 C260 1.398 . S
C259 C265 1.491 1_556 S
C260 H251 0.950 . S
C260 C259 1.398 . S
C260 C261 1.391 . S
C261 H249 0.950 . S
C261 C257 1.393 . S
C261 C260 1.391 . S
C262 H252 0.950 . S
C262 C263 1.386 . S
C262 C264 1.391 . S
C263 C262 1.386 . S
C263 C267 1.393 . S
C264 H253 0.950 . S
C264 C262 1.391 . S
C264 C265 1.400 . S
C265 C259 1.491 1_554 S
C265 C264 1.400 . S
C265 C266 1.398 . S
C266 H254 0.950 . S
C266 C265 1.398 . S
C266 C267 1.391 . S
C267 H255 0.950 . S
C267 C263 1.393 . S
C267 C266 1.391 . S
H268 C276 0.950 . S
H269 C281 0.950 . S
H270 C278 0.950 . S
H271 C280 0.950 . S
H272 C282 0.950 . S
H273 C284 0.950 . S
H274 C286 0.950 . S
H275 C287 0.950 . S
C276 H268 0.950 . S
C276 C277 1.386 . S
C276 C278 1.391 . S
C277 C276 1.386 . S
C277 C281 1.393 . S
C278 H270 0.950 . S
C278 C276 1.391 . S
C278 C279 1.400 . S
C279 C278 1.400 . S
C279 C280 1.398 . S
C279 C285 1.491 1_556 S
C280 H271 0.950 . S
C280 C279 1.398 . S
C280 C281 1.391 . S
C281 H269 0.950 . S
C281 C277 1.393 . S
C281 C280 1.391 . S
C282 H272 0.950 . S
C282 C283 1.386 . S
C282 C284 1.391 . S
C283 C282 1.386 . S
C283 C287 1.393 . S
C284 H273 0.950 . S
C284 C282 1.391 . S
C284 C285 1.400 . S
C285 C279 1.491 1_554 S
C285 C284 1.400 . S
C285 C286 1.398 . S
C286 H274 0.950 . S
C286 C285 1.398 . S
C286 C287 1.391 . S
C287 H275 0.950 . S
C287 C283 1.393 . S
C287 C286 1.391 . S
H288 C296 0.950 . S
H289 C301 0.950 . S
H290 C298 0.950 . S
H291 C300 0.950 . S
H292 C302 0.950 . S
H293 C304 0.950 . S
H294 C306 0.950 . S
H295 C307 0.950 . S
C296 H288 0.950 . S
C296 C297 1.386 . S
C296 C298 1.391 . S
C297 C296 1.386 . S
C297 C301 1.393 . S
C298 H290 0.950 . S
C298 C296 1.391 . S
C298 C299 1.400 . S
C299 C298 1.400 . S
C299 C300 1.398 . S
C299 C305 1.491 . S
C300 H291 0.950 . S
C300 C299 1.398 . S
C300 C301 1.391 . S
C301 H289 0.950 . S
C301 C297 1.393 . S
C301 C300 1.391 . S
C302 H292 0.950 . S
C302 C303 1.386 . S
C302 C304 1.391 . S
C303 C302 1.386 . S
C303 C307 1.393 . S
C304 H293 0.950 . S
C304 C302 1.391 . S
C304 C305 1.400 . S
C305 C299 1.491 . S
C305 C304 1.400 . S
C305 C306 1.398 . S
C306 H294 0.950 . S
C306 C305 1.398 . S
C306 C307 1.391 . S
C307 H295 0.950 . S
C307 C303 1.393 . S
C307 C306 1.391 . S
H308 C316 0.950 . S
H309 C321 0.950 . S
H310 C318 0.950 . S
H311 C320 0.950 . S
H312 C322 0.950 . S
H313 C324 0.950 . S
H314 C326 0.950 . S
H315 C327 0.950 . S
C316 H308 0.950 . S
C316 C317 1.386 . S
C316 C318 1.391 . S
C317 C316 1.386 . S
C317 C321 1.393 . S
C318 H310 0.950 . S
C318 C316 1.391 . S
C318 C319 1.400 . S
C319 C318 1.400 . S
C319 C320 1.398 . S
C319 C325 1.491 . S
C320 H311 0.950 . S
C320 C319 1.398 . S
C320 C321 1.391 . S
C321 H309 0.950 . S
C321 C317 1.393 . S
C321 C320 1.391 . S
C322 H312 0.950 . S
C322 C323 1.386 . S
C322 C324 1.391 . S
C323 C322 1.386 . S
C323 C327 1.393 . S
C324 H313 0.950 . S
C324 C322 1.391 . S
C324 C325 1.400 . S
C325 C319 1.491 . S
C325 C324 1.400 . S
C325 C326 1.398 . S
C326 H314 0.950 . S
C326 C325 1.398 . S
C326 C327 1.391 . S
C327 H315 0.950 . S
C327 C323 1.393 . S
C327 C326 1.391 . S
H328 C336 0.950 . S
H329 C341 0.950 . S
H330 C338 0.950 . S
H331 C340 0.950 . S
H332 C342 0.950 . S
H333 C344 0.950 . S
H334 C346 0.950 . S
H335 C347 0.950 . S
C336 H328 0.950 . S
C336 C337 1.386 . S
C336 C338 1.391 . S
C337 C336 1.386 . S
C337 C341 1.393 . S
C338 H330 0.950 . S
C338 C336 1.391 . S
C338 C339 1.400 . S
C339 C338 1.400 . S
C339 C340 1.398 . S
C339 C345 1.491 . S
C340 H331 0.950 . S
C340 C339 1.398 . S
C340 C341 1.391 . S
C341 H329 0.950 . S
C341 C337 1.393 . S
C341 C340 1.391 . S
C342 H332 0.950 . S
C342 C343 1.386 . S
C342 C344 1.391 . S
C343 C342 1.386 . S
C343 C347 1.393 . S
C344 H333 0.950 . S
C344 C342 1.391 . S
C344 C345 1.400 . S
C345 C339 1.491 . S
C345 C344 1.400 . S
C345 C346 1.398 . S
C346 H334 0.950 . S
C346 C345 1.398 . S
C346 C347 1.391 . S
C347 H335 0.950 . S
C347 C343 1.393 . S
C347 C346 1.391 . S
H348 C356 0.950 . S
H349 C361 0.950 . S
H350 C358 0.950 . S
H351 C360 0.950 . S
H352 C362 0.950 . S
H353 C364 0.950 . S
H354 C366 0.950 . S
H355 C367 0.950 . S
C356 H348 0.950 . S
C356 C357 1.386 . S
C356 C358 1.391 . S
C357 C356 1.386 . S
C357 C361 1.393 . S
C358 H350 0.950 . S
C358 C356 1.391 . S
C358 C359 1.400 . S
C359 C358 1.400 . S
C359 C360 1.398 . S
C359 C365 1.491 . S
C360 H351 0.950 . S
C360 C359 1.398 . S
C360 C361 1.391 . S
C361 H349 0.950 . S
C361 C357 1.393 . S
C361 C360 1.391 . S
C362 H352 0.950 . S
C362 C363 1.386 . S
C362 C364 1.391 . S
C363 C362 1.386 . S
C363 C367 1.393 . S
C364 H353 0.950 . S
C364 C362 1.391 . S
C364 C365 1.400 . S
C365 C359 1.491 . S
C365 C364 1.400 . S
C365 C366 1.398 . S
C366 H354 0.950 . S
C366 C365 1.398 . S
C366 C367 1.391 . S
C367 H355 0.950 . S
C367 C363 1.393 . S
C367 C366 1.391 . S
H368 C376 0.950 . S
H369 C381 0.950 . S
H370 C378 0.950 . S
H371 C380 0.950 . S
H372 C382 0.950 . S
H373 C384 0.950 . S
H374 C386 0.950 . S
H375 C387 0.950 . S
C376 H368 0.950 . S
C376 C377 1.386 . S
C376 C378 1.391 . S
C377 C376 1.386 . S
C377 C381 1.393 . S
C378 H370 0.950 . S
C378 C376 1.391 . S
C378 C379 1.400 . S
C379 C378 1.400 . S
C379 C380 1.398 . S
C379 C385 1.491 . S
C380 H371 0.950 . S
C380 C379 1.398 . S
C380 C381 1.391 . S
C381 H369 0.950 . S
C381 C377 1.393 . S
C381 C380 1.391 . S
C382 H372 0.950 . S
C382 C383 1.386 . S
C382 C384 1.391 . S
C383 C382 1.386 . S
C383 C387 1.393 . S
C384 H373 0.950 . S
C384 C382 1.391 . S
C384 C385 1.400 . S
C385 C379 1.491 . S
C385 C384 1.400 . S
C385 C386 1.398 . S
C386 H374 0.950 . S
C386 C385 1.398 . S
C386 C387 1.391 . S
C387 H375 0.950 . S
C387 C383 1.393 . S
C387 C386 1.391 . S
H388 C396 0.950 . S
H389 C401 0.950 . S
H390 C398 0.950 . S
H391 C400 0.950 . S
H392 C402 0.950 . S
H393 C404 0.950 . S
H394 C406 0.950 . S
H395 C407 0.950 . S
C396 H388 0.950 . S
C396 C397 1.386 . S
C396 C398 1.391 . S
C397 C396 1.386 . S
C397 C401 1.393 . S
C398 H390 0.950 . S
C398 C396 1.391 . S
C398 C399 1.400 . S
C399 C398 1.400 . S
C399 C400 1.398 . S
C399 C405 1.491 . S
C400 H391 0.950 . S
C400 C399 1.398 . S
C400 C401 1.391 . S
C401 H389 0.950 . S
C401 C397 1.393 . S
C401 C400 1.391 . S
C402 H392 0.950 . S
C402 C403 1.386 . S
C402 C404 1.391 . S
C403 C402 1.386 . S
C403 C407 1.393 . S
C404 H393 0.950 . S
C404 C402 1.391 . S
C404 C405 1.400 . S
C405 C399 1.491 . S
C405 C404 1.400 . S
C405 C406 1.398 . S
C406 H394 0.950 . S
C406 C405 1.398 . S
C406 C407 1.391 . S
C407 H395 0.950 . S
C407 C403 1.393 . S
C407 C406 1.391 . S
H408 C416 0.950 . S
H409 C421 0.950 . S
H410 C418 0.950 . S
H411 C420 0.950 . S
H412 C422 0.950 . S
H413 C424 0.950 . S
H414 C426 0.950 . S
H415 C427 0.950 . S
C416 H408 0.950 . S
C416 C417 1.386 . S
C416 C418 1.391 . S
C417 C416 1.386 . S
C417 C421 1.393 . S
C418 H410 0.950 . S
C418 C416 1.391 . S
C418 C419 1.400 . S
C419 C418 1.400 . S
C419 C420 1.398 . S
C419 C425 1.491 . S
C420 H411 0.950 . S
C420 C419 1.398 . S
C420 C421 1.391 . S
C421 H409 0.950 . S
C421 C417 1.393 . S
C421 C420 1.391 . S
C422 H412 0.950 . S
C422 C423 1.386 . S
C422 C424 1.391 . S
C423 C422 1.386 . S
C423 C427 1.393 . S
C424 H413 0.950 . S
C424 C422 1.391 . S
C424 C425 1.400 . S
C425 C419 1.491 . S
C425 C424 1.400 . S
C425 C426 1.398 . S
C426 H414 0.950 . S
C426 C425 1.398 . S
C426 C427 1.391 . S
C427 H415 0.950 . S
C427 C423 1.393 . S
C427 C426 1.391 . S
H428 C436 0.950 . S
H429 C441 0.950 . S
H430 C438 0.950 . S
H431 C440 0.950 . S
H432 C442 0.950 . S
H433 C444 0.950 . S
H434 C446 0.950 . S
H435 C447 0.950 . S
C436 H428 0.950 . S
C436 C437 1.386 . S
C436 C438 1.391 . S
C437 C436 1.386 . S
C437 C441 1.393 . S
C438 H430 0.950 . S
C438 C436 1.391 . S
C438 C439 1.400 . S
C439 C438 1.400 . S
C439 C440 1.398 . S
C439 C445 1.491 . S
C440 H431 0.950 . S
C440 C439 1.398 . S
C440 C441 1.391 . S
C441 H429 0.950 . S
C441 C437 1.393 . S
C441 C440 1.391 . S
C442 H432 0.950 . S
C442 C443 1.386 . S
C442 C444 1.391 . S
C443 C442 1.386 . S
C443 C447 1.393 . S
C444 H433 0.950 . S
C444 C442 1.391 . S
C444 C445 1.400 . S
C445 C439 1.491 . S
C445 C444 1.400 . S
C445 C446 1.398 . S
C446 H434 0.950 . S
C446 C445 1.398 . S
C446 C447 1.391 . S
C447 H435 0.950 . S
C447 C443 1.393 . S
C447 C446 1.391 . S
H448 C456 0.950 . S
H449 C461 0.950 . S
H450 C458 0.950 . S
H451 C460 0.950 . S
H452 C462 0.950 . S
H453 C464 0.950 . S
H454 C466 0.950 . S
H455 C467 0.950 . S
C456 H448 0.950 . S
C456 C457 1.386 . S
C456 C458 1.391 . S
C457 C456 1.386 . S
C457 C461 1.393 . S
C458 H450 0.950 . S
C458 C456 1.391 . S
C458 C459 1.400 . S
C459 C458 1.400 . S
C459 C460 1.398 . S
C459 C465 1.491 . S
C460 H451 0.950 . S
C460 C459 1.398 . S
C460 C461 1.391 . S
C461 H449 0.950 . S
C461 C457 1.393 . S
C461 C460 1.391 . S
C462 H452 0.950 . S
C462 C463 1.386 . S
C462 C464 1.391 . S
C463 C462 1.386 . S
C463 C467 1.393 . S
C464 H453 0.950 . S
C464 C462 1.391 . S
C464 C465 1.400 . S
C465 C459 1.491 . S
C465 C464 1.400 . S
C465 C466 1.398 . S
C466 H454 0.950 . S
C466 C465 1.398 . S
C466 C467 1.391 . S
C467 H455 0.950 . S
C467 C463 1.393 . S
C467 C466 1.391 . S
H468 C476 0.950 . S
H469 C481 0.950 . S
H470 C478 0.950 . S
H471 C480 0.950 . S
H472 C482 0.950 . S
H473 C484 0.950 . S
H474 C486 0.950 . S
H475 C487 0.950 . S
C476 H468 0.950 . S
C476 C477 1.386 . S
C476 C478 1.391 . S
C477 C476 1.386 . S
C477 C481 1.393 . S
C478 H470 0.950 . S
C478 C476 1.391 . S
C478 C479 1.400 . S
C479 C478 1.400 . S
C479 C480 1.398 . S
C479 C485 1.491 . S
C480 H471 0.950 . S
C480 C479 1.398 . S
C480 C481 1.391 . S
C481 H469 0.950 . S
C481 C477 1.393 . S
C481 C480 1.391 . S
C482 H472 0.950 . S
C482 C483 1.386 . S
C482 C484 1.391 . S
C483 C482 1.386 . S
C483 C487 1.393 . S
C484 H473 0.950 . S
C484 C482 1.391 . S
C484 C485 1.400 . S
C485 C479 1.491 . S
C485 C484 1.400 . S
C485 C486 1.398 . S
C486 H474 0.950 . S
C486 C485 1.398 . S
C486 C487 1.391 . S
C487 H475 0.950 . S
C487 C483 1.393 . S
C487 C486 1.391 . S
H488 C496 0.950 . S
H489 C501 0.950 . S
H490 C498 0.950 . S
H491 C500 0.950 . S
H492 C502 0.950 . S
H493 C504 0.950 . S
H494 C506 0.950 . S
H495 C507 0.950 . S
C496 H488 0.950 . S
C496 C497 1.386 . S
C496 C498 1.391 . S
C497 C496 1.386 . S
C497 C501 1.393 . S
C498 H490 0.950 . S
C498 C496 1.391 . S
C498 C499 1.400 . S
C499 C498 1.400 . S
C499 C500 1.398 . S
C499 C505 1.491 . S
C500 H491 0.950 . S
C500 C499 1.398 . S
C500 C501 1.391 . S
C501 H489 0.950 . S
C501 C497 1.393 . S
C501 C500 1.391 . S
C502 H492 0.950 . S
C502 C503 1.386 . S
C502 C504 1.391 . S
C503 C502 1.386 . S
C503 C507 1.393 . S
C504 H493 0.950 . S
C504 C502 1.391 . S
C504 C505 1.400 . S
C505 C499 1.491 . S
C505 C504 1.400 . S
C505 C506 1.398 . S
C506 H494 0.950 . S
C506 C505 1.398 . S
C506 C507 1.391 . S
C507 H495 0.950 . S
C507 C503 1.393 . S
C507 C506 1.391 . S
H508 C516 0.950 . S
H509 C521 0.950 . S
H510 C518 0.950 . S
H511 C520 0.950 . S
H512 C522 0.950 . S
H513 C524 0.950 . S
H514 C526 0.950 . S
H515 C527 0.950 . S
C516 H508 0.950 . S
C516 C517 1.386 . S
C516 C518 1.391 . S
C517 C516 1.386 . S
C517 C521 1.393 . S
C518 H510 0.950 . S
C518 C516 1.391 . S
C518 C519 1.400 . S
C519 C518 1.400 . S
C519 C520 1.398 . S
C519 C525 1.491 . S
C520 H511 0.950 . S
C520 C519 1.398 . S
C520 C521 1.391 . S
C521 H509 0.950 . S
C521 C517 1.393 . S
C521 C520 1.391 . S
C522 H512 0.950 . S
C522 C523 1.386 . S
C522 C524 1.391 . S
C523 C522 1.386 . S
C523 C527 1.393 . S
C524 H513 0.950 . S
C524 C522 1.391 . S
C524 C525 1.400 . S
C525 C519 1.491 . S
C525 C524 1.400 . S
C525 C526 1.398 . S
C526 H514 0.950 . S
C526 C525 1.398 . S
C526 C527 1.391 . S
C527 H515 0.950 . S
C527 C523 1.393 . S
C527 C526 1.391 . S
H528 C536 0.950 . S
H529 C541 0.950 . S
H530 C538 0.950 1_655 S
H531 C540 0.950 . S
H532 C542 0.950 . S
H533 C544 0.950 1_455 S
H534 C546 0.950 . S
H535 C547 0.950 . S
C536 H528 0.950 . S
C536 C537 1.386 . S
C536 C538 1.391 . S
C537 C536 1.386 . S
C537 C541 1.393 . S
C538 H530 0.950 1_455 S
C538 C536 1.391 . S
C538 C539 1.400 . S
C539 C538 1.400 . S
C539 C540 1.398 . S
C539 C545 1.491 1_445 S
C540 H531 0.950 . S
C540 C539 1.398 . S
C540 C541 1.391 . S
C541 H529 0.950 . S
C541 C537 1.393 . S
C541 C540 1.391 . S
C542 H532 0.950 . S
C542 C543 1.386 . S
C542 C544 1.391 . S
C543 C542 1.386 . S
C543 C547 1.393 . S
C544 H533 0.950 1_655 S
C544 C542 1.391 . S
C544 C545 1.400 . S
C545 C539 1.491 1_665 S
C545 C544 1.400 . S
C545 C546 1.398 . S
C546 H534 0.950 . S
C546 C545 1.398 . S
C546 C547 1.391 . S
C547 H535 0.950 . S
C547 C543 1.393 . S
C547 C546 1.391 . S
H548 C556 0.950 1_455 S
H549 C561 0.950 . S
H550 C558 0.950 . S
H551 C560 0.968 . S
H552 C562 0.950 1_655 S
H553 C564 0.950 . S
H554 C566 0.968 . S
H555 C567 0.950 . S
C556 H548 0.950 1_655 S
C556 C557 1.386 . S
C556 C558 1.391 1_655 S
C557 C556 1.386 . S
C557 C561 1.393 . S
C558 H550 0.950 . S
C558 C556 1.391 1_455 S
C558 C559 1.400 1_455 S
C559 C558 1.400 1_655 S
C559 C560 1.398 . S
C559 C565 1.491 1_645 S
C560 H551 0.968 . S
C560 C559 1.398 . S
C560 C561 1.391 . S
C561 H549 0.950 . S
C561 C557 1.393 . S
C561 C560 1.391 . S
C562 H552 0.950 1_455 S
C562 C563 1.386 . S
C562 C564 1.391 1_455 S
C563 C562 1.386 . S
C563 C567 1.393 . S
C564 H553 0.950 . S
C564 C562 1.391 1_655 S
C564 C565 1.400 1_655 S
C565 C559 1.491 1_465 S
C565 C564 1.400 1_455 S
C565 C566 1.398 . S
C566 H554 0.968 . S
C566 C565 1.398 . S
C566 C567 1.391 . S
C567 H555 0.950 . S
C567 C563 1.393 . S
C567 C566 1.391 . S
H568 C576 0.950 . S
H569 C581 0.950 1_545 S
H570 C578 0.953 1_554 S
H571 C580 0.950 . S
H572 C582 0.950 . S
H573 C584 0.953 1_556 S
H574 C586 0.950 . S
H575 C587 0.950 1_565 S
C576 H568 0.950 . S
C576 C577 1.386 . S
C576 C578 1.391 . S
C577 C576 1.386 . S
C577 C581 1.393 . S
C578 H570 0.953 1_556 S
C578 C576 1.391 . S
C578 C579 1.400 . S
C579 C578 1.400 . S
C579 C580 1.398 1_565 S
C579 C585 1.491 1_566 S
C580 H571 0.950 . S
C580 C579 1.398 1_545 S
C580 C581 1.391 1_545 S
C581 H569 0.950 1_565 S
C581 C577 1.393 . S
C581 C580 1.391 1_565 S
C582 H572 0.950 . S
C582 C583 1.386 . S
C582 C584 1.391 . S
C583 C582 1.386 . S
C583 C587 1.393 . S
C584 H573 0.953 1_554 S
C584 C582 1.391 . S
C584 C585 1.400 . S
C585 C579 1.491 1_544 S
C585 C584 1.400 . S
C585 C586 1.398 1_545 S
C586 H574 0.950 . S
C586 C585 1.398 1_565 S
C586 C587 1.391 1_565 S
C587 H575 0.950 1_545 S
C587 C583 1.393 . S
C587 C586 1.391 1_545 S
H588 C596 0.950 1_545 S
H589 C601 0.950 . S
H590 C598 0.950 . S
H591 C600 0.949 . S
H592 C602 0.950 1_565 S
H593 C604 0.950 . S
H594 C606 0.949 . S
H595 C607 0.950 . S
C596 H588 0.950 1_565 S
C596 C597 1.386 . S
C596 C598 1.391 1_565 S
C597 C596 1.386 . S
C597 C601 1.393 . S
C598 H590 0.950 . S
C598 C596 1.391 1_545 S
C598 C599 1.400 1_545 S
C599 C598 1.400 1_565 S
C599 C600 1.398 . S
C599 C605 1.491 1_564 S
C600 H591 0.949 . S
C600 C599 1.398 . S
C600 C601 1.391 . S
C601 H589 0.950 . S
C601 C597 1.393 . S
C601 C600 1.391 . S
C602 H592 0.950 1_545 S
C602 C603 1.386 . S
C602 C604 1.391 1_545 S
C603 C602 1.386 . S
C603 C607 1.393 . S
C604 H593 0.950 . S
C604 C602 1.391 1_565 S
C604 C605 1.400 1_565 S
C605 C599 1.491 1_546 S
C605 C604 1.400 1_545 S
C605 C606 1.398 . S
C606 H594 0.949 . S
C606 C605 1.398 . S
C606 C607 1.391 . S
C607 H595 0.950 . S
C607 C603 1.393 . S
C607 C606 1.391 . S
H608 C616 0.964 . S
H609 C621 0.950 . S
H610 C618 0.950 . S
H611 C620 0.950 . S
H612 C622 0.964 . S
H613 C624 0.950 . S
H614 C626 0.950 . S
H615 C627 0.950 . S
C616 H608 0.964 . S
C616 C617 1.386 . S
C616 C618 1.391 1_556 S
C617 C616 1.386 . S
C617 C621 1.393 . S
C618 H610 0.950 . S
C618 C616 1.391 1_554 S
C618 C619 1.400 1_554 S
C619 C618 1.400 1_556 S
C619 C620 1.398 . S
C619 C625 1.491 1_656 S
C620 H611 0.950 . S
C620 C619 1.398 . S
C620 C621 1.391 . S
C621 H609 0.950 . S
C621 C617 1.393 . S
C621 C620 1.391 . S
C622 H612 0.964 . S
C622 C623 1.386 . S
C622 C624 1.391 1_554 S
C623 C622 1.386 . S
C623 C627 1.393 . S
C624 H613 0.950 . S
C624 C622 1.391 1_556 S
C624 C625 1.400 1_556 S
C625 C619 1.491 1_454 S
C625 C624 1.400 1_554 S
C625 C626 1.398 . S
C626 H614 0.950 . S
C626 C625 1.398 . S
C626 C627 1.391 . S
C627 H615 0.950 . S
C627 C623 1.393 . S
C627 C626 1.391 . S
H628 C636 0.950 . S
H629 C641 0.949 . S
H630 C638 0.950 . S
H631 C640 0.950 . S
H632 C642 0.950 . S
H633 C644 0.950 . S
H634 C646 0.950 . S
H635 C647 0.949 . S
C636 H628 0.950 . S
C636 C637 1.386 . S
C636 C638 1.391 . S
C637 C636 1.386 . S
C637 C641 1.393 . S
C638 H630 0.950 . S
C638 C636 1.391 . S
C638 C639 1.400 . S
C639 C638 1.400 . S
C639 C640 1.398 1_556 S
C639 C645 1.491 1_456 S
C640 H631 0.950 . S
C640 C639 1.398 1_554 S
C640 C641 1.391 1_554 S
C641 H629 0.949 . S
C641 C637 1.393 . S
C641 C640 1.391 1_556 S
C642 H632 0.950 . S
C642 C643 1.386 . S
C642 C644 1.391 . S
C643 C642 1.386 . S
C643 C647 1.393 . S
C644 H633 0.950 . S
C644 C642 1.391 . S
C644 C645 1.400 . S
C645 C639 1.491 1_654 S
C645 C644 1.400 . S
C645 C646 1.398 1_554 S
C646 H634 0.950 . S
C646 C645 1.398 1_556 S
C646 C647 1.391 1_556 S
C647 H635 0.949 . S
C647 C643 1.393 . S
C647 C646 1.391 1_554 S
C177 C50 0.956 . S
C183 C8 0.942 . S
C197 C36 0.956 . S
C203 C22 0.943 . S
C217 C78 0.931 . S
C223 C64 0.946 . S
C237 C92 0.956 . S
C243 C106 0.942 . S
C257 C134 0.950 . S
C263 C120 0.952 . S
C277 C148 0.952 . S
C283 C162 0.950 . S
C297 C9 0.936 . S
C303 C101 0.915 . S
C317 C87 0.942 . S
C323 C23 0.942 . S
C337 C73 0.934 . S
C343 C37 0.949 . S
C357 C59 0.919 . S
C363 C51 0.928 . S
C377 C65 0.950 . S
C383 C157 0.932 . S
C397 C115 0.921 . S
C403 C79 0.926 . S
C417 C143 0.933 . S
C423 C93 0.949 . S
C437 C107 0.952 . S
C443 C129 0.923 . S
C457 C31 0.916 . S
C463 C121 0.934 . S
C477 C3 0.928 . S
C483 C135 0.951 . S
C497 C149 0.935 . S
C503 C17 0.949 . S
C517 C45 0.928 . S
C523 C163 0.919 . S
C537 C7 1.231 . S
C543 C21 1.227 . S
C557 C49 1.239 . S
C563 C35 1.223 . S
C577 C91 1.224 . S
C583 C63 1.242 . S
C597 C77 1.242 . S
C603 C105 1.223 . S
C617 C147 1.243 . S
C623 C119 1.227 . S
C637 C133 1.229 . S
C643 C161 1.242 . S
