# Generated by pormake.
# Topology umv, (4)-cn, num edge types: 1
# Building blocks:
#     Node 0, Type 0, BuildingBlock: GALJAG_clean_sbu_0, # of connection points: 4
#     Node 1, Type 0, BuildingBlock: GALJAG_clean_sbu_0, # of connection points: 4
#     Node 2, Type 0, BuildingBlock: GALJAG_clean_sbu_0, # of connection points: 4
#     Node 3, Type 0, BuildingBlock: GALJAG_clean_sbu_0, # of connection points: 4
#     Node 4, Type 0, BuildingBlock: GALJAG_clean_sbu_0, # of connection points: 4
#     Node 5, Type 0, BuildingBlock: GALJAG_clean_sbu_0, # of connection points: 4
#     Node 6, Type 0, BuildingBlock: GALJAG_clean_sbu_0, # of connection points: 4
#     Node 7, Type 0, BuildingBlock: GALJAG_clean_sbu_0, # of connection points: 4
#     Node 8, Type 0, BuildingBlock: GALJAG_clean_sbu_0, # of connection points: 4
#     Node 9, Type 0, BuildingBlock: GALJAG_clean_sbu_0, # of connection points: 4
#     Node 10, Type 0, BuildingBlock: GALJAG_clean_sbu_0, # of connection points: 4
#     Node 11, Type 0, BuildingBlock: GALJAG_clean_sbu_0, # of connection points: 4
#     Node 12, Type 0, BuildingBlock: GALJAG_clean_sbu_0, # of connection points: 4
#     Node 13, Type 0, BuildingBlock: GALJAG_clean_sbu_0, # of connection points: 4
#     Node 14, Type 0, BuildingBlock: GALJAG_clean_sbu_0, # of connection points: 4
#     Node 15, Type 0, BuildingBlock: GALJAG_clean_sbu_0, # of connection points: 4
#     Node 16, Type 0, BuildingBlock: GALJAG_clean_sbu_0, # of connection points: 4
#     Node 17, Type 0, BuildingBlock: GALJAG_clean_sbu_0, # of connection points: 4
#     Node 18, Type 0, BuildingBlock: GALJAG_clean_sbu_0, # of connection points: 4
#     Node 19, Type 0, BuildingBlock: GALJAG_clean_sbu_0, # of connection points: 4
#     Node 20, Type 0, BuildingBlock: GALJAG_clean_sbu_0, # of connection points: 4
#     Node 21, Type 0, BuildingBlock: GALJAG_clean_sbu_0, # of connection points: 4
#     Node 22, Type 0, BuildingBlock: GALJAG_clean_sbu_0, # of connection points: 4
#     Node 23, Type 0, BuildingBlock: GALJAG_clean_sbu_0, # of connection points: 4
#     Node 24, Type 0, BuildingBlock: GALJAG_clean_sbu_0, # of connection points: 4
#     Node 25, Type 0, BuildingBlock: GALJAG_clean_sbu_0, # of connection points: 4
#     Node 26, Type 0, BuildingBlock: GALJAG_clean_sbu_0, # of connection points: 4
#     Node 27, Type 0, BuildingBlock: GALJAG_clean_sbu_0, # of connection points: 4
#     Node 28, Type 0, BuildingBlock: GALJAG_clean_sbu_0, # of connection points: 4
#     Node 29, Type 0, BuildingBlock: GALJAG_clean_sbu_0, # of connection points: 4
#     Node 30, Type 0, BuildingBlock: GALJAG_clean_sbu_0, # of connection points: 4
#     Node 31, Type 0, BuildingBlock: GALJAG_clean_sbu_0, # of connection points: 4
#     Edge 32, Type (0, 0), BuildingBlock: AJUNOK_clean_linker_0, # of connection points: 2
#     Edge 33, Type (0, 0), BuildingBlock: AJUNOK_clean_linker_0, # of connection points: 2
#     Edge 34, Type (0, 0), BuildingBlock: AJUNOK_clean_linker_0, # of connection points: 2
#     Edge 35, Type (0, 0), BuildingBlock: AJUNOK_clean_linker_0, # of connection points: 2
#     Edge 36, Type (0, 0), BuildingBlock: AJUNOK_clean_linker_0, # of connection points: 2
#     Edge 37, Type (0, 0), BuildingBlock: AJUNOK_clean_linker_0, # of connection points: 2
#     Edge 38, Type (0, 0), BuildingBlock: AJUNOK_clean_linker_0, # of connection points: 2
#     Edge 39, Type (0, 0), BuildingBlock: AJUNOK_clean_linker_0, # of connection points: 2
#     Edge 40, Type (0, 0), BuildingBlock: AJUNOK_clean_linker_0, # of connection points: 2
#     Edge 41, Type (0, 0), BuildingBlock: AJUNOK_clean_linker_0, # of connection points: 2
#     Edge 42, Type (0, 0), BuildingBlock: AJUNOK_clean_linker_0, # of connection points: 2
#     Edge 43, Type (0, 0), BuildingBlock: AJUNOK_clean_linker_0, # of connection points: 2
#     Edge 44, Type (0, 0), BuildingBlock: AJUNOK_clean_linker_0, # of connection points: 2
#     Edge 45, Type (0, 0), BuildingBlock: AJUNOK_clean_linker_0, # of connection points: 2
#     Edge 46, Type (0, 0), BuildingBlock: AJUNOK_clean_linker_0, # of connection points: 2
#     Edge 47, Type (0, 0), BuildingBlock: AJUNOK_clean_linker_0, # of connection points: 2
#     Edge 48, Type (0, 0), BuildingBlock: AJUNOK_clean_linker_0, # of connection points: 2
#     Edge 49, Type (0, 0), BuildingBlock: AJUNOK_clean_linker_0, # of connection points: 2
#     Edge 50, Type (0, 0), BuildingBlock: AJUNOK_clean_linker_0, # of connection points: 2
#     Edge 51, Type (0, 0), BuildingBlock: AJUNOK_clean_linker_0, # of connection points: 2
#     Edge 52, Type (0, 0), BuildingBlock: AJUNOK_clean_linker_0, # of connection points: 2
#     Edge 53, Type (0, 0), BuildingBlock: AJUNOK_clean_linker_0, # of connection points: 2
#     Edge 54, Type (0, 0), BuildingBlock: AJUNOK_clean_linker_0, # of connection points: 2
#     Edge 55, Type (0, 0), BuildingBlock: AJUNOK_clean_linker_0, # of connection points: 2
#     Edge 56, Type (0, 0), BuildingBlock: AJUNOK_clean_linker_0, # of connection points: 2
#     Edge 57, Type (0, 0), BuildingBlock: AJUNOK_clean_linker_0, # of connection points: 2
#     Edge 58, Type (0, 0), BuildingBlock: AJUNOK_clean_linker_0, # of connection points: 2
#     Edge 59, Type (0, 0), BuildingBlock: AJUNOK_clean_linker_0, # of connection points: 2
#     Edge 60, Type (0, 0), BuildingBlock: AJUNOK_clean_linker_0, # of connection points: 2
#     Edge 61, Type (0, 0), BuildingBlock: AJUNOK_clean_linker_0, # of connection points: 2
#     Edge 62, Type (0, 0), BuildingBlock: AJUNOK_clean_linker_0, # of connection points: 2
#     Edge 63, Type (0, 0), BuildingBlock: AJUNOK_clean_linker_0, # of connection points: 2
#     Edge 64, Type (0, 0), BuildingBlock: AJUNOK_clean_linker_0, # of connection points: 2
#     Edge 65, Type (0, 0), BuildingBlock: AJUNOK_clean_linker_0, # of connection points: 2
#     Edge 66, Type (0, 0), BuildingBlock: AJUNOK_clean_linker_0, # of connection points: 2
#     Edge 67, Type (0, 0), BuildingBlock: AJUNOK_clean_linker_0, # of connection points: 2
#     Edge 68, Type (0, 0), BuildingBlock: AJUNOK_clean_linker_0, # of connection points: 2
#     Edge 69, Type (0, 0), BuildingBlock: AJUNOK_clean_linker_0, # of connection points: 2
#     Edge 70, Type (0, 0), BuildingBlock: AJUNOK_clean_linker_0, # of connection points: 2
#     Edge 71, Type (0, 0), BuildingBlock: AJUNOK_clean_linker_0, # of connection points: 2
#     Edge 72, Type (0, 0), BuildingBlock: AJUNOK_clean_linker_0, # of connection points: 2
#     Edge 73, Type (0, 0), BuildingBlock: AJUNOK_clean_linker_0, # of connection points: 2
#     Edge 74, Type (0, 0), BuildingBlock: AJUNOK_clean_linker_0, # of connection points: 2
#     Edge 75, Type (0, 0), BuildingBlock: AJUNOK_clean_linker_0, # of connection points: 2
#     Edge 76, Type (0, 0), BuildingBlock: AJUNOK_clean_linker_0, # of connection points: 2
#     Edge 77, Type (0, 0), BuildingBlock: AJUNOK_clean_linker_0, # of connection points: 2
#     Edge 78, Type (0, 0), BuildingBlock: AJUNOK_clean_linker_0, # of connection points: 2
#     Edge 79, Type (0, 0), BuildingBlock: AJUNOK_clean_linker_0, # of connection points: 2
#     Edge 80, Type (0, 0), BuildingBlock: AJUNOK_clean_linker_0, # of connection points: 2
#     Edge 81, Type (0, 0), BuildingBlock: AJUNOK_clean_linker_0, # of connection points: 2
#     Edge 82, Type (0, 0), BuildingBlock: AJUNOK_clean_linker_0, # of connection points: 2
#     Edge 83, Type (0, 0), BuildingBlock: AJUNOK_clean_linker_0, # of connection points: 2
#     Edge 84, Type (0, 0), BuildingBlock: AJUNOK_clean_linker_0, # of connection points: 2
#     Edge 85, Type (0, 0), BuildingBlock: AJUNOK_clean_linker_0, # of connection points: 2
#     Edge 86, Type (0, 0), BuildingBlock: AJUNOK_clean_linker_0, # of connection points: 2
#     Edge 87, Type (0, 0), BuildingBlock: AJUNOK_clean_linker_0, # of connection points: 2
#     Edge 88, Type (0, 0), BuildingBlock: AJUNOK_clean_linker_0, # of connection points: 2
#     Edge 89, Type (0, 0), BuildingBlock: AJUNOK_clean_linker_0, # of connection points: 2
#     Edge 90, Type (0, 0), BuildingBlock: AJUNOK_clean_linker_0, # of connection points: 2
#     Edge 91, Type (0, 0), BuildingBlock: AJUNOK_clean_linker_0, # of connection points: 2
#     Edge 92, Type (0, 0), BuildingBlock: AJUNOK_clean_linker_0, # of connection points: 2
#     Edge 93, Type (0, 0), BuildingBlock: AJUNOK_clean_linker_0, # of connection points: 2
#     Edge 94, Type (0, 0), BuildingBlock: AJUNOK_clean_linker_0, # of connection points: 2
#     Edge 95, Type (0, 0), BuildingBlock: AJUNOK_clean_linker_0, # of connection points: 2
# Relax obj value: 0.083
# Max RMSD: 0.091
# Mean RMSD: 0.091
data_MOF--net-umv--node1-GALJAG_clean_sbu_0--edge1-AJUNOK_clean_linker_0
_symmetry_space_group_name_H-M    P1
_symmetry_Int_Tables_number       1
_symmetry_cell_setting            triclinic
loop_
_symmetry_equiv_pos_as_xyz
'x, y, z'
_cell_length_a     78.369832
_cell_length_b     20.202502
_cell_length_c     37.397603
_cell_angle_alpha  90.01035
_cell_angle_beta   89.983198
_cell_angle_gamma 90.029442
loop_
_atom_site_label
_atom_site_type_symbol
_atom_site_fract_x
_atom_site_fract_y
_atom_site_fract_z
_atom_type_partial_charge
In0 In 0.0586 0.12876 0.31601 0.0
O1 O 0.06172 0.19944 0.36302 0.0
O2 O 0.06739 0.23399 0.31044 0.0
C3 C 0.05001 0.01139 0.34535 0.0
C4 C 0.0297 0.17592 0.28679 0.0
C5 C 0.0907 0.10169 0.29555 0.0
O6 O 0.05281 0.06282 0.36372 0.0
O7 O 0.05097 0.01984 0.31183 0.0
O8 O 0.07941 0.11685 0.27269 0.0
O9 O 0.08555 0.09888 0.32744 0.0
C10 C 0.06621 0.24732 0.34325 0.0
O11 O 0.0418 0.15374 0.26766 0.0
O12 O 0.03177 0.16865 0.31999 0.0
In13 In 0.19706 0.12472 0.31004 0.0
O14 O 0.21165 0.096 0.25908 0.0
O15 O 0.22545 0.10622 0.30768 0.0
C16 C 0.16358 0.1184 0.29448 0.0
C17 C 0.19733 0.00825 0.34333 0.0
C18 C 0.20111 0.24709 0.33788 0.0
O19 O 0.17433 0.13342 0.27045 0.0
O20 O 0.16971 0.11138 0.32535 0.0
O21 O 0.20047 0.19534 0.35673 0.0
O22 O 0.19993 0.23711 0.30455 0.0
C23 C 0.22569 0.08838 0.27539 0.0
O24 O 0.20018 0.06181 0.35991 0.0
O25 O 0.19415 0.0144 0.31044 0.0
In26 In 0.05785 0.12691 0.93796 0.0
O27 O 0.05623 0.06394 0.88778 0.0
O28 O 0.06094 0.01676 0.93795 0.0
C29 C 0.05309 0.24909 0.91059 0.0
C30 C 0.02921 0.08792 0.97172 0.0
C31 C 0.0913 0.12293 0.95377 0.0
O32 O 0.05356 0.19743 0.89164 0.0
O33 O 0.05474 0.23908 0.94383 0.0
O34 O 0.08043 0.13554 0.97795 0.0
O35 O 0.08529 0.11745 0.9227 0.0
C36 C 0.05876 0.01055 0.90472 0.0
O37 O 0.04311 0.09675 0.98842 0.0
O38 O 0.02954 0.10576 0.93944 0.0
In39 In 0.19652 0.12486 0.93303 0.0
O40 O 0.21281 0.15089 0.98212 0.0
O41 O 0.22335 0.16502 0.93025 0.0
C42 C 0.16417 0.10082 0.95332 0.0
C43 C 0.18948 0.24033 0.90152 0.0
C44 C 0.2053 0.00653 0.90504 0.0
O45 O 0.17534 0.11815 0.97597 0.0
O46 O 0.16957 0.09425 0.92178 0.0
O47 O 0.20288 0.05769 0.88629 0.0
O48 O 0.20379 0.01552 0.93842 0.0
C49 C 0.2251 0.1728 0.96347 0.0
O50 O 0.19413 0.19016 0.88376 0.0
O51 O 0.18797 0.23107 0.93469 0.0
In52 In 0.94829 0.87116 0.68208 0.0
O53 O 0.95115 0.8028 0.63422 0.0
O54 O 0.94413 0.7618 0.68482 0.0
C55 C 0.95376 0.992 0.6536 0.0
C56 C 0.97608 0.83352 0.71894 0.0
C57 C 0.9145 0.87164 0.69474 0.0
O58 O 0.95316 0.93984 0.63503 0.0
O59 O 0.952 0.98297 0.68689 0.0
O60 O 0.925 0.88202 0.71994 0.0
O61 O 0.92116 0.86515 0.66428 0.0
C62 C 0.94762 0.7516 0.65238 0.0
O63 O 0.96209 0.84685 0.7344 0.0
O64 O 0.97635 0.84654 0.68596 0.0
In65 In 0.80772 0.87392 0.68226 0.0
O66 O 0.79333 0.90141 0.73337 0.0
O67 O 0.78051 0.91094 0.68339 0.0
C68 C 0.84085 0.85272 0.69656 0.0
C69 C 0.81352 0.99217 0.65304 0.0
C70 C 0.79907 0.75459 0.65549 0.0
O71 O 0.83024 0.86226 0.72167 0.0
O72 O 0.83446 0.85137 0.66563 0.0
O73 O 0.80088 0.80548 0.63616 0.0
O74 O 0.80101 0.76463 0.68868 0.0
C75 C 0.7802 0.92128 0.71665 0.0
O76 O 0.80813 0.94391 0.63454 0.0
O77 O 0.8163 0.97946 0.68548 0.0
In78 In 0.9479 0.87978 0.06403 0.0
O79 O 0.95053 0.94663 0.11266 0.0
O80 O 0.94628 0.99029 0.06135 0.0
C81 C 0.95272 0.76004 0.09455 0.0
C82 C 0.97573 0.91471 0.02634 0.0
C83 C 0.91421 0.88461 0.0502 0.0
O84 O 0.95294 0.81361 0.11189 0.0
O85 O 0.9504 0.76682 0.06124 0.0
O86 O 0.92466 0.86694 0.02613 0.0
O87 O 0.92075 0.89498 0.08042 0.0
C88 C 0.94887 0.99891 0.09428 0.0
O89 O 0.96136 0.90588 0.01155 0.0
O90 O 0.97632 0.89763 0.05875 0.0
In91 In 0.80819 0.87512 0.06539 0.0
O92 O 0.79366 0.84662 0.01447 0.0
O93 O 0.78101 0.83738 0.06457 0.0
C94 C 0.84096 0.89959 0.04847 0.0
C95 C 0.81445 0.7597 0.09766 0.0
C96 C 0.79918 0.99357 0.09283 0.0
O97 O 0.83021 0.88441 0.02451 0.0
O98 O 0.83497 0.90364 0.07967 0.0
O99 O 0.80095 0.94207 0.11161 0.0
O100 O 0.80136 0.9848 0.05959 0.0
C101 C 0.78059 0.82684 0.03136 0.0
O102 O 0.80912 0.80959 0.11478 0.0
O103 O 0.81697 0.76915 0.06479 0.0
In104 In 0.05797 0.62896 0.81321 0.0
O105 O 0.05607 0.69815 0.86077 0.0
O106 O 0.06184 0.73859 0.80936 0.0
C107 C 0.05292 0.50958 0.84374 0.0
C108 C 0.02931 0.66549 0.77903 0.0
C109 C 0.09162 0.62891 0.79924 0.0
O110 O 0.0532 0.56304 0.8612 0.0
O111 O 0.05483 0.51637 0.8103 0.0
O112 O 0.08095 0.61691 0.77452 0.0
O113 O 0.08519 0.63657 0.82983 0.0
C114 C 0.05909 0.74917 0.84208 0.0
O115 O 0.04299 0.65335 0.7621 0.0
O116 O 0.02984 0.65161 0.81186 0.0
In117 In 0.19785 0.62348 0.81557 0.0
O118 O 0.19582 0.55319 0.86297 0.0
O119 O 0.18933 0.51801 0.81087 0.0
C120 C 0.20615 0.74298 0.84249 0.0
C121 C 0.22649 0.57691 0.78515 0.0
C122 C 0.1651 0.64615 0.79853 0.0
O123 O 0.20392 0.69243 0.86192 0.0
O124 O 0.20479 0.73245 0.80922 0.0
O125 O 0.17604 0.6343 0.77432 0.0
O126 O 0.171 0.6488 0.82987 0.0
C127 C 0.19101 0.50509 0.84364 0.0
O128 O 0.21398 0.59705 0.7665 0.0
O129 O 0.2249 0.58587 0.81836 0.0
In130 In 0.05866 0.6271 0.43287 0.0
O131 O 0.04336 0.59861 0.48273 0.0
O132 O 0.03174 0.58617 0.43174 0.0
C133 C 0.09114 0.65193 0.45185 0.0
C134 C 0.06593 0.51258 0.40051 0.0
C135 C 0.0498 0.74724 0.40732 0.0
O136 O 0.08022 0.63403 0.47489 0.0
O137 O 0.08545 0.65858 0.42053 0.0
O138 O 0.05207 0.69739 0.38742 0.0
O139 O 0.05133 0.73567 0.44044 0.0
C140 C 0.03073 0.57695 0.46502 0.0
O141 O 0.06041 0.56202 0.38323 0.0
O142 O 0.06808 0.52213 0.43349 0.0
In143 In 0.1977 0.62747 0.43585 0.0
O144 O 0.21249 0.65145 0.48719 0.0
O145 O 0.22616 0.64435 0.43822 0.0
C146 C 0.16419 0.63348 0.45103 0.0
C147 C 0.19809 0.74727 0.40639 0.0
C148 C 0.20166 0.50757 0.40505 0.0
O149 O 0.17482 0.6164 0.47489 0.0
O150 O 0.17045 0.6426 0.42043 0.0
O151 O 0.20195 0.56115 0.38772 0.0
O152 O 0.19967 0.51443 0.43845 0.0
C153 C 0.22651 0.65987 0.47086 0.0
O154 O 0.1998 0.69538 0.38767 0.0
O155 O 0.19587 0.73788 0.43938 0.0
In156 In 0.94814 0.37751 0.18933 0.0
O157 O 0.96153 0.35171 0.24214 0.0
O158 O 0.97631 0.35624 0.19449 0.0
C159 C 0.91423 0.37422 0.20105 0.0
C160 C 0.94877 0.26024 0.15679 0.0
C161 C 0.95296 0.49961 0.16165 0.0
O162 O 0.9245 0.38565 0.22654 0.0
O163 O 0.92115 0.36824 0.17082 0.0
O164 O 0.95273 0.44772 0.14286 0.0
O165 O 0.95112 0.48984 0.19486 0.0
C166 C 0.97581 0.34133 0.22721 0.0
O167 O 0.9525 0.31318 0.14041 0.0
O168 O 0.94452 0.2674 0.18909 0.0
In169 In 0.8077 0.3757 0.18313 0.0
O170 O 0.79164 0.40249 0.23231 0.0
O171 O 0.78054 0.41175 0.1805 0.0
C172 C 0.84061 0.35438 0.19947 0.0
C173 C 0.81384 0.49482 0.15548 0.0
C174 C 0.79933 0.25659 0.15589 0.0
O175 O 0.82967 0.364 0.22397 0.0
O176 O 0.83464 0.3531 0.16817 0.0
O177 O 0.80163 0.30727 0.13661 0.0
O178 O 0.80075 0.26668 0.1892 0.0
C179 C 0.77902 0.42157 0.21366 0.0
O180 O 0.80946 0.44642 0.13593 0.0
O181 O 0.81554 0.48183 0.18823 0.0
In182 In 0.94805 0.37277 0.55744 0.0
O183 O 0.96273 0.40028 0.50616 0.0
O184 O 0.97628 0.39292 0.55522 0.0
C185 C 0.91425 0.37472 0.54441 0.0
C186 C 0.94759 0.49014 0.58976 0.0
C187 C 0.95326 0.25234 0.58671 0.0
O188 O 0.92472 0.36296 0.51929 0.0
O189 O 0.92093 0.38138 0.57481 0.0
O190 O 0.95339 0.30545 0.60443 0.0
O191 O 0.95076 0.25983 0.55348 0.0
C192 C 0.97666 0.40946 0.52276 0.0
O193 O 0.95011 0.43701 0.6069 0.0
O194 O 0.94513 0.48334 0.55662 0.0
In195 In 0.80776 0.37321 0.56375 0.0
O196 O 0.79192 0.34566 0.51423 0.0
O197 O 0.78055 0.33693 0.56571 0.0
C198 C 0.84066 0.39373 0.54615 0.0
C199 C 0.81388 0.25661 0.59463 0.0
C200 C 0.79936 0.49179 0.59194 0.0
O201 O 0.82959 0.38248 0.52216 0.0
O202 O 0.83483 0.3969 0.57752 0.0
O203 O 0.80118 0.43999 0.61046 0.0
O204 O 0.80127 0.48339 0.55859 0.0
C205 C 0.7792 0.32671 0.53259 0.0
O206 O 0.80964 0.307 0.61267 0.0
O207 O 0.81533 0.26601 0.56146 0.0
In208 In 0.5586 0.12568 0.81734 0.0
O209 O 0.54383 0.14794 0.76593 0.0
O210 O 0.53141 0.16323 0.81588 0.0
C211 C 0.59132 0.10132 0.80013 0.0
C212 C 0.56446 0.24465 0.84617 0.0
C213 C 0.54987 0.00841 0.8468 0.0
O214 O 0.58042 0.11465 0.77619 0.0
O215 O 0.58552 0.09903 0.83154 0.0
O216 O 0.55192 0.06061 0.86492 0.0
O217 O 0.55163 0.01596 0.81338 0.0
C218 C 0.53083 0.16964 0.78236 0.0
O219 O 0.55945 0.19618 0.86489 0.0
O220 O 0.56698 0.23185 0.81365 0.0
In221 In 0.69823 0.12073 0.81252 0.0
O222 O 0.70096 0.05179 0.86005 0.0
O223 O 0.69533 0.01062 0.80877 0.0
C224 C 0.70275 0.24021 0.84327 0.0
C225 C 0.7268 0.08837 0.77669 0.0
C226 C 0.66454 0.11687 0.7993 0.0
O227 O 0.7029 0.1866 0.86058 0.0
O228 O 0.70062 0.23358 0.80988 0.0
O229 O 0.67497 0.13158 0.77455 0.0
O230 O 0.67114 0.10915 0.8297 0.0
C231 C 0.69825 0.00041 0.84145 0.0
O232 O 0.71275 0.09778 0.76062 0.0
O233 O 0.72656 0.10252 0.80951 0.0
In234 In 0.55767 0.1241 0.43176 0.0
O235 O 0.55767 0.05867 0.38219 0.0
O236 O 0.5664 0.01806 0.43146 0.0
C237 C 0.54892 0.24401 0.40571 0.0
C238 C 0.53024 0.07723 0.46709 0.0
C239 C 0.59061 0.14688 0.44808 0.0
O240 O 0.55082 0.19353 0.38614 0.0
O241 O 0.5508 0.23333 0.43883 0.0
O242 O 0.57995 0.13134 0.47213 0.0
O243 O 0.58447 0.15202 0.41707 0.0
C244 C 0.5633 0.0087 0.3988 0.0
O245 O 0.54346 0.09739 0.48334 0.0
O246 O 0.53049 0.08625 0.43373 0.0
In247 In 0.69773 0.12473 0.43486 0.0
O248 O 0.71113 0.15007 0.48768 0.0
O249 O 0.72598 0.14547 0.4402 0.0
C250 C 0.66394 0.12939 0.44773 0.0
C251 C 0.69791 0.24201 0.4023 0.0
C252 C 0.70261 0.00411 0.40528 0.0
O253 O 0.6743 0.11471 0.47254 0.0
O254 O 0.67063 0.13685 0.41741 0.0
O255 O 0.70328 0.05739 0.3878 0.0
O256 O 0.69984 0.01152 0.4384 0.0
C257 C 0.72545 0.16037 0.47291 0.0
O258 O 0.70065 0.18874 0.38542 0.0
O259 O 0.695 0.23539 0.43527 0.0
In260 In 0.44711 0.87598 0.18611 0.0
O261 O 0.46235 0.84917 0.23665 0.0
O262 O 0.47471 0.84497 0.18607 0.0
C263 C 0.41408 0.89534 0.20262 0.0
C264 C 0.44256 0.7598 0.1535 0.0
C265 C 0.45475 0.99493 0.15774 0.0
O266 O 0.42491 0.88288 0.22688 0.0
O267 O 0.4201 0.89887 0.17145 0.0
O268 O 0.45339 0.9427 0.13943 0.0
O269 O 0.45283 0.98687 0.19112 0.0
C270 C 0.4756 0.83341 0.2191 0.0
O271 O 0.44698 0.81119 0.13659 0.0
O272 O 0.44 0.76798 0.18647 0.0
In273 In 0.3075 0.87653 0.18359 0.0
O274 O 0.29341 0.90578 0.23489 0.0
O275 O 0.27955 0.90481 0.186 0.0
C276 C 0.34099 0.87483 0.19916 0.0
C277 C 0.30996 0.99324 0.15075 0.0
C278 C 0.30108 0.75499 0.15654 0.0
O279 O 0.32999 0.86615 0.22358 0.0
O280 O 0.33502 0.87894 0.16799 0.0
O281 O 0.30188 0.8065 0.1375 0.0
O282 O 0.30323 0.76493 0.18965 0.0
C283 C 0.27964 0.91953 0.21878 0.0
O284 O 0.3066 0.9407 0.13364 0.0
O285 O 0.31212 0.98602 0.18392 0.0
In286 In 0.44811 0.8731 0.56402 0.0
O287 O 0.4632 0.89853 0.51303 0.0
O288 O 0.47564 0.90527 0.56345 0.0
C289 C 0.41497 0.85305 0.5485 0.0
C290 C 0.44356 0.9898 0.59602 0.0
C291 C 0.45616 0.75466 0.59256 0.0
O292 O 0.42566 0.8651 0.52388 0.0
O293 O 0.42118 0.85023 0.57952 0.0
O294 O 0.45479 0.807 0.61078 0.0
O295 O 0.45401 0.76238 0.55923 0.0
C296 C 0.47646 0.9154 0.53025 0.0
O297 O 0.44785 0.93862 0.61326 0.0
O298 O 0.44119 0.98122 0.56301 0.0
In299 In 0.3079 0.8691 0.56519 0.0
O300 O 0.30679 0.8043 0.61474 0.0
O301 O 0.31146 0.7589 0.56408 0.0
C302 C 0.30152 0.98887 0.59444 0.0
C303 C 0.28023 0.82862 0.5285 0.0
C304 C 0.34161 0.86987 0.55127 0.0
O305 O 0.30153 0.9357 0.6121 0.0
O306 O 0.30441 0.98168 0.56134 0.0
O307 O 0.33093 0.88116 0.52654 0.0
O308 O 0.33522 0.86357 0.58196 0.0
C309 C 0.3095 0.7516 0.5973 0.0
O310 O 0.29428 0.84107 0.5131 0.0
O311 O 0.27982 0.84379 0.5612 0.0
In312 In 0.55746 0.62415 0.3128 0.0
O313 O 0.54238 0.64743 0.26196 0.0
O314 O 0.53017 0.66029 0.31238 0.0
C315 C 0.5902 0.60013 0.29572 0.0
C316 C 0.56327 0.74376 0.34061 0.0
C317 C 0.54888 0.50679 0.34216 0.0
O318 O 0.57926 0.6123 0.27166 0.0
O319 O 0.58443 0.59879 0.32717 0.0
O320 O 0.55084 0.55901 0.36033 0.0
O321 O 0.55066 0.51438 0.30874 0.0
C322 C 0.52942 0.66807 0.27895 0.0
O323 O 0.55889 0.69527 0.36002 0.0
O324 O 0.56525 0.73068 0.30796 0.0
In325 In 0.69702 0.62265 0.30936 0.0
O326 O 0.70018 0.55484 0.35742 0.0
O327 O 0.69396 0.5127 0.30664 0.0
C328 C 0.70192 0.74382 0.33806 0.0
C329 C 0.72504 0.58763 0.27239 0.0
C330 C 0.66333 0.61835 0.29596 0.0
O331 O 0.70139 0.6916 0.35658 0.0
O332 O 0.70024 0.73479 0.30476 0.0
O333 O 0.67381 0.63244 0.27125 0.0
O334 O 0.66986 0.61152 0.3265 0.0
C335 C 0.69727 0.5031 0.3392 0.0
O336 O 0.71093 0.59908 0.257 0.0
O337 O 0.72525 0.60115 0.30531 0.0
In338 In 0.55812 0.62567 0.93667 0.0
O339 O 0.54355 0.59924 0.98779 0.0
O340 O 0.53088 0.58879 0.93773 0.0
C341 C 0.59119 0.64577 0.95256 0.0
C342 C 0.56372 0.50929 0.90482 0.0
C343 C 0.54958 0.74577 0.91056 0.0
O344 O 0.58042 0.63359 0.97699 0.0
O345 O 0.58501 0.64994 0.92154 0.0
O346 O 0.55119 0.69504 0.89106 0.0
O347 O 0.55168 0.73528 0.94365 0.0
C348 C 0.53042 0.57949 0.97107 0.0
O349 O 0.55885 0.55955 0.88736 0.0
O350 O 0.56597 0.5187 0.93779 0.0
In351 In 0.69841 0.62278 0.93768 0.0
O352 O 0.70085 0.68584 0.88774 0.0
O353 O 0.69569 0.73324 0.93768 0.0
C354 C 0.703 0.50054 0.9103 0.0
C355 C 0.7269 0.65909 0.97275 0.0
C356 C 0.66472 0.62619 0.95157 0.0
O357 O 0.70289 0.5523 0.89141 0.0
O358 O 0.70112 0.51051 0.94349 0.0
O359 O 0.67532 0.61442 0.97641 0.0
O360 O 0.67121 0.63238 0.92095 0.0
C361 C 0.69831 0.73935 0.90456 0.0
O362 O 0.71283 0.65081 0.98894 0.0
O363 O 0.72673 0.64212 0.94032 0.0
In364 In 0.44913 0.37291 0.68478 0.0
O365 O 0.46404 0.34839 0.73591 0.0
O366 O 0.47673 0.34271 0.68559 0.0
C367 C 0.41541 0.38248 0.69647 0.0
C368 C 0.44555 0.25302 0.65625 0.0
C369 C 0.45627 0.49323 0.65761 0.0
O370 O 0.42579 0.38289 0.72254 0.0
O371 O 0.4223 0.38127 0.66601 0.0
O372 O 0.45545 0.4416 0.63858 0.0
O373 O 0.45391 0.48374 0.69073 0.0
C374 C 0.4774 0.33218 0.7188 0.0
O375 O 0.4497 0.3026 0.63735 0.0
O376 O 0.44307 0.26494 0.68894 0.0
In377 In 0.30753 0.36982 0.68836 0.0
O378 O 0.30524 0.43933 0.6409 0.0
O379 O 0.31376 0.47793 0.69098 0.0
C380 C 0.30061 0.24949 0.66084 0.0
C381 C 0.27997 0.41003 0.72513 0.0
C382 C 0.34138 0.35963 0.69858 0.0
O383 O 0.30127 0.3014 0.64205 0.0
O384 O 0.30288 0.25869 0.69401 0.0
O385 O 0.33125 0.36041 0.72507 0.0
O386 O 0.33421 0.36113 0.66843 0.0
C387 C 0.30998 0.48932 0.65881 0.0
O388 O 0.29377 0.39461 0.7408 0.0
O389 O 0.2798 0.39842 0.69199 0.0
In390 In 0.44763 0.37661 0.0646 0.0
O391 O 0.46304 0.40111 0.01413 0.0
O392 O 0.47542 0.4046 0.06481 0.0
C393 C 0.41405 0.37114 0.05073 0.0
C394 C 0.44459 0.49681 0.09294 0.0
C395 C 0.45406 0.2562 0.09245 0.0
O396 O 0.42481 0.36558 0.02552 0.0
O397 O 0.42042 0.37481 0.0816 0.0
O398 O 0.45307 0.30795 0.11134 0.0
O399 O 0.45208 0.2655 0.05923 0.0
C400 C 0.47637 0.41592 0.03171 0.0
O401 O 0.44794 0.44669 0.11213 0.0
O402 O 0.44264 0.48529 0.06006 0.0
In403 In 0.30692 0.37571 0.06071 0.0
O404 O 0.29233 0.35472 0.00875 0.0
O405 O 0.27935 0.34419 0.05847 0.0
C406 C 0.3404 0.39123 0.04745 0.0
C407 C 0.31057 0.25586 0.08953 0.0
C408 C 0.29969 0.494 0.09052 0.0
O409 O 0.32986 0.38509 0.02192 0.0
O410 O 0.33382 0.39158 0.0782 0.0
O411 O 0.3005 0.44085 0.10821 0.0
O412 O 0.30188 0.48709 0.05715 0.0
C413 C 0.27893 0.33629 0.02503 0.0
O414 O 0.30615 0.30545 0.10805 0.0
O415 O 0.31354 0.26773 0.05705 0.0
C416 C 0.11748 0.13993 0.26498 0.0
C417 C 0.10905 0.09458 0.28752 0.0
C418 C 0.13543 0.14508 0.26516 0.0
C419 C 0.1453 0.10515 0.28801 0.0
H420 H 0.11016 0.17481 0.24921 0.0
H421 H 0.14149 0.1833 0.24929 0.0
S422 S 0.12938 0.97008 0.34646 0.0
N423 N 0.11199 0.003 0.32906 0.0
N424 N 0.14548 0.01224 0.32936 0.0
C425 C 0.13701 0.05585 0.30809 0.0
C426 C 0.11892 0.05067 0.30786 0.0
C427 C 0.13749 0.14175 0.98338 0.0
C428 C 0.14573 0.09563 0.96096 0.0
C429 C 0.11956 0.14819 0.98311 0.0
C430 C 0.10953 0.1088 0.96029 0.0
H431 H 0.14496 0.17612 -0.00082 0.0
H432 H 0.11367 0.18686 0.99892 0.0
S433 S 0.1248 0.97232 0.90209 0.0
N434 N 0.14233 0.00398 0.91956 0.0
N435 N 0.10891 0.01581 0.91904 0.0
C436 C 0.11759 0.05888 0.94029 0.0
C437 C 0.13564 0.05233 0.94063 0.0
C438 C 0.88695 0.82924 0.67205 0.0
C439 C 0.89588 0.86223 0.69937 0.0
C440 C 0.86925 0.82292 0.67294 0.0
C441 C 0.85959 0.84943 0.70112 0.0
H442 H 0.89364 0.80899 0.64918 0.0
H443 H 0.86304 0.79885 0.65054 0.0
S444 S 0.87678 0.93595 0.78086 0.0
N445 N 0.89388 0.91788 0.75687 0.0
N446 N 0.86027 0.9066 0.75837 0.0
C447 C 0.86832 0.87961 0.72971 0.0
C448 C 0.88656 0.88591 0.72886 0.0
C449 C 0.88619 0.85773 0.02024 0.0
C450 C 0.89578 0.89621 0.04433 0.0
C451 C 0.86823 0.86249 0.01933 0.0
C452 C 0.8595 0.90601 0.04239 0.0
H453 H 0.89246 0.82122 0.00359 0.0
H454 H 0.86114 0.82898 0.00228 0.0
S455 S 0.87903 0.0265 0.10495 0.0
N456 N 0.89536 0.98594 0.08774 0.0
N457 N 0.86189 0.9944 0.08607 0.0
C458 C 0.8691 0.94833 0.06428 0.0
C459 C 0.88719 0.94355 0.06524 0.0
C460 C 0.11897 0.67618 0.81986 0.0
C461 C 0.11017 0.63893 0.79399 0.0
C462 C 0.13668 0.68198 0.81921 0.0
C463 C 0.14647 0.65069 0.79271 0.0
H464 H 0.11216 0.69989 0.8416 0.0
H465 H 0.1428 0.70914 0.84067 0.0
S466 S 0.12963 0.55271 0.7166 0.0
N467 N 0.11241 0.57476 0.73921 0.0
N468 N 0.14605 0.5851 0.73816 0.0
C469 C 0.13787 0.61666 0.76524 0.0
C470 C 0.11962 0.61087 0.76585 0.0
C471 C 0.11811 0.61202 0.48107 0.0
C472 C 0.10963 0.65771 0.45883 0.0
C473 C 0.13605 0.6065 0.48045 0.0
C474 C 0.14587 0.6464 0.45748 0.0
H475 H 0.11083 0.57736 0.49706 0.0
H476 H 0.14213 0.56821 0.49621 0.0
S477 S 0.12988 0.78227 0.39968 0.0
N478 N 0.11253 0.74955 0.41741 0.0
N479 N 0.14599 0.73958 0.41628 0.0
C480 C 0.13756 0.6959 0.43761 0.0
C481 C 0.11948 0.70147 0.43828 0.0
C482 C 0.88699 0.33053 0.17742 0.0
C483 C 0.8956 0.36391 0.20505 0.0
C484 C 0.86928 0.32409 0.17747 0.0
C485 C 0.85929 0.35085 0.20509 0.0
H486 H 0.89394 0.31024 0.15489 0.0
H487 H 0.86333 0.29984 0.15482 0.0
S488 S 0.87558 0.43791 0.28548 0.0
N489 N 0.89294 0.41984 0.26234 0.0
N490 N 0.85933 0.4083 0.26226 0.0
C491 C 0.86771 0.38119 0.23404 0.0
C492 C 0.88595 0.38763 0.23405 0.0
C493 C 0.88705 0.42099 0.56668 0.0
C494 C 0.89564 0.38508 0.53995 0.0
C495 C 0.86934 0.42706 0.56669 0.0
C496 C 0.85931 0.39741 0.54003 0.0
H497 H 0.89404 0.44348 0.58854 0.0
H498 H 0.86342 0.45327 0.58873 0.0
S499 S 0.8755 0.30321 0.46192 0.0
N500 N 0.89291 0.32378 0.48431 0.0
N501 N 0.85927 0.33468 0.48449 0.0
C502 C 0.86769 0.36462 0.5118 0.0
C503 C 0.88594 0.35855 0.51173 0.0
C504 C 0.63632 0.14202 0.76976 0.0
C505 C 0.6461 0.10479 0.79406 0.0
C506 C 0.61836 0.13716 0.76957 0.0
C507 C 0.60982 0.09482 0.7936 0.0
H508 H 0.64246 0.17771 0.75239 0.0
H509 H 0.61113 0.16974 0.75229 0.0
S510 S 0.62986 0.97758 0.85716 0.0
N511 N 0.64604 0.01725 0.83875 0.0
N512 N 0.61256 0.00871 0.83847 0.0
C513 C 0.61959 0.05366 0.81575 0.0
C514 C 0.63768 0.05849 0.81596 0.0
C515 C 0.63571 0.10504 0.47752 0.0
C516 C 0.64549 0.14155 0.45286 0.0
C517 C 0.61777 0.11033 0.47798 0.0
C518 C 0.60921 0.15244 0.45389 0.0
H519 H 0.64185 0.06968 0.49506 0.0
H520 H 0.61055 0.07838 0.49565 0.0
S521 S 0.62927 0.26796 0.3893 0.0
N522 N 0.64543 0.22809 0.40761 0.0
N523 N 0.61198 0.23769 0.40849 0.0
C524 C 0.61899 0.19287 0.4313 0.0
C525 C 0.63708 0.1875 0.43077 0.0
C526 C 0.36891 0.85067 0.23029 0.0
C527 C 0.3593 0.88769 0.20561 0.0
C528 C 0.38684 0.85683 0.2316 0.0
C529 C 0.39549 0.90041 0.2084 0.0
H530 H 0.36269 0.81419 0.24705 0.0
H531 H 0.394 0.82435 0.24906 0.0
S532 S 0.3757 0.01747 0.14433 0.0
N533 N 0.35949 0.97602 0.16144 0.0
N534 N 0.3929 0.98742 0.16395 0.0
C535 C 0.3858 0.94137 0.18594 0.0
C536 C 0.36776 0.93504 0.18453 0.0
C537 C 0.3696 0.89397 0.52022 0.0
C538 C 0.36006 0.85826 0.54563 0.0
C539 C 0.38756 0.88872 0.5191 0.0
C540 C 0.39633 0.84738 0.54323 0.0
H541 H 0.36328 0.92865 0.50256 0.0
H542 H 0.39462 0.92009 0.50086 0.0
S543 S 0.37688 0.73419 0.60982 0.0
N544 N 0.36055 0.77336 0.59176 0.0
N545 N 0.39398 0.76377 0.58961 0.0
C546 C 0.38676 0.80776 0.56662 0.0
C547 C 0.36869 0.81314 0.56784 0.0
C548 C 0.63516 0.6426 0.26606 0.0
C549 C 0.64494 0.60558 0.29045 0.0
C550 C 0.61722 0.63698 0.26554 0.0
C551 C 0.60871 0.59403 0.28928 0.0
H552 H 0.64128 0.67871 0.24891 0.0
H553 H 0.60996 0.66948 0.24825 0.0
S554 S 0.62882 0.4769 0.3528 0.0
N555 N 0.64497 0.51755 0.33485 0.0
N556 N 0.61151 0.5075 0.3339 0.0
C557 C 0.61851 0.55303 0.31147 0.0
C558 C 0.63658 0.55868 0.31204 0.0
C559 C 0.63741 0.67279 0.93025 0.0
C560 C 0.64618 0.63674 0.95663 0.0
C561 C 0.61971 0.67893 0.93087 0.0
C562 C 0.60989 0.64919 0.95786 0.0
H563 H 0.64424 0.69532 0.90818 0.0
H564 H 0.61361 0.70528 0.9091 0.0
S565 S 0.62665 0.55447 0.03521 0.0
N566 N 0.64388 0.57512 0.01224 0.0
N567 N 0.61026 0.58616 0.01328 0.0
C568 C 0.61847 0.61623 0.98573 0.0
C569 C 0.63671 0.61009 0.98514 0.0
C570 C 0.36958 0.35723 0.66897 0.0
C571 C 0.36027 0.3619 0.70099 0.0
C572 C 0.38722 0.36483 0.66833 0.0
C573 C 0.39658 0.37703 0.69972 0.0
H574 H 0.36319 0.34836 0.64373 0.0
H575 H 0.39353 0.36075 0.64265 0.0
S576 S 0.37853 0.39209 0.79107 0.0
N577 N 0.36173 0.37873 0.76535 0.0
N578 N 0.39529 0.39201 0.7642 0.0
C579 C 0.38759 0.3807 0.73226 0.0
C580 C 0.36936 0.37329 0.73289 0.0
C581 C 0.36871 0.41823 0.0723 0.0
C582 C 0.35917 0.39346 0.04347 0.0
C583 C 0.38638 0.41166 0.07349 0.0
C584 C 0.39544 0.38018 0.04584 0.0
H585 H 0.36241 0.44133 0.09489 0.0
H586 H 0.39296 0.43074 0.0968 0.0
S587 S 0.37673 0.31096 0.96284 0.0
N588 N 0.36012 0.33927 0.9854 0.0
N589 N 0.39372 0.3276 0.98748 0.0
C590 C 0.38626 0.35812 0.01581 0.0
C591 C 0.36803 0.36463 0.01465 0.0
C592 C 0.01575 0.23641 0.23626 0.0
C593 C 0.01541 0.21594 0.27215 0.0
C594 C 0.00327 0.27915 0.22256 0.0
C595 C 0.98983 0.30301 0.24409 0.0
H596 H 0.02586 0.21997 0.21859 0.0
H597 H 0.00404 0.29258 0.19457 0.0
S598 S 0.98316 0.26499 0.3401 0.0
N599 N 1.00056 0.22356 0.32925 0.0
N600 N 0.97704 0.30326 0.30327 0.0
C601 C 0.98935 0.28318 0.28007 0.0
C602 C 1.00212 0.2398 0.29413 0.0
C603 C 0.23848 0.01785 0.2272 0.0
C604 C 0.24015 0.04955 0.26049 0.0
C605 C 0.25105 0.9742 0.21458 0.0
C606 C 0.26579 0.96012 0.23478 0.0
H607 H 0.22724 0.02589 0.21092 0.0
H608 H 0.2492 0.9516 0.18861 0.0
S609 S 0.27657 0.03132 0.32343 0.0
N610 N 0.25796 0.06459 0.31324 0.0
N611 N 0.28146 0.98253 0.28955 0.0
C612 C 0.26767 0.99166 0.26806 0.0
C613 C 0.25493 0.03644 0.28085 0.0
C614 C 0.01721 0.0107 0.0177 0.0
C615 C 0.01493 0.04754 0.98617 0.0
C616 C 0.00479 0.96566 0.02951 0.0
C617 C 0.98955 0.95541 0.01027 0.0
H618 H 0.02883 0.01575 0.03316 0.0
H619 H 0.00711 0.93919 0.05421 0.0
S620 S 0.97708 0.04098 0.92644 0.0
N621 N 0.99606 0.07158 0.93616 0.0
N622 N 0.97276 0.98715 0.95837 0.0
C623 C 0.98707 0.99206 0.97873 0.0
C624 C 0.9997 0.03812 0.96674 0.0
C625 C 0.23934 0.22945 0.01502 0.0
C626 C 0.23934 0.21257 0.97858 0.0
C627 C 0.25184 0.27145 0.02934 0.0
C628 C 0.26491 0.29835 0.00786 0.0
H629 H 0.22951 0.21059 0.03267 0.0
H630 H 0.25134 0.28211 0.0577 0.0
S631 S 0.27062 0.27027 0.91057 0.0
N632 N 0.25351 0.2267 0.92107 0.0
N633 N 0.277 0.30528 0.94814 0.0
C634 C 0.26504 0.28219 0.97132 0.0
C635 C 0.25229 0.23936 0.95667 0.0
C636 C 0.00379 0.7725 0.71487 0.0
C637 C 0.9899 0.79406 0.73583 0.0
C638 C 0.01611 0.72892 0.72854 0.0
C639 C 0.01505 0.70487 0.76373 0.0
H640 H 0.00511 0.78875 0.68741 0.0
H641 H 0.02666 0.71469 0.71146 0.0
S642 S 0.98125 0.74637 0.82989 0.0
N643 N 0.97588 0.78814 0.79369 0.0
N644 N 0.99893 0.70637 0.81946 0.0
C645 C 1.0012 0.72602 0.78503 0.0
C646 C 0.9887 0.77062 0.7711 0.0
C647 C 0.73947 0.02166 0.72679 0.0
C648 C 0.74123 0.05091 0.76071 0.0
C649 C 0.75192 0.97847 0.71326 0.0
C650 C 0.76661 0.96231 0.73319 0.0
H651 H 0.7282 0.03106 0.71078 0.0
H652 H 0.74998 0.95751 0.68692 0.0
S653 S 0.77778 0.0279 0.82286 0.0
N654 N 0.75922 0.06231 0.81348 0.0
N655 N 0.78247 0.98096 0.7881 0.0
C656 C 0.76864 0.99177 0.76696 0.0
C657 C 0.75604 0.03618 0.78065 0.0
C658 C 0.73985 0.72601 0.02225 0.0
C659 C 0.74134 0.69744 0.98811 0.0
C660 C 0.75238 0.76916 0.03551 0.0
C661 C 0.76688 0.78599 0.01509 0.0
H662 H 0.72878 0.71587 0.03872 0.0
H663 H 0.75068 0.78945 0.06208 0.0
S664 S 0.77717 0.72322 0.92438 0.0
N665 N 0.75877 0.68801 0.93438 0.0
N666 N 0.78217 0.7693 0.95928 0.0
C667 C 0.76859 0.75749 0.981 0.0
C668 C 0.75591 0.7131 0.96757 0.0
C669 C 0.2398 0.51348 0.7349 0.0
C670 C 0.24071 0.53696 0.77021 0.0
C671 C 0.25221 0.47043 0.7212 0.0
C672 C 0.26612 0.44909 0.74216 0.0
H673 H 0.22929 0.5277 0.71775 0.0
H674 H 0.25097 0.45446 0.69368 0.0
S675 S 0.27455 0.49654 0.83636 0.0
N676 N 0.25673 0.5357 0.82602 0.0
N677 N 0.28008 0.45517 0.80009 0.0
C678 C 0.2672 0.47211 0.77755 0.0
C679 C 0.25453 0.51598 0.79158 0.0
C680 C 0.0032 0.5146 0.45922 0.0
C681 C 0.01687 0.53609 0.48083 0.0
C682 C 0.99057 0.47176 0.47248 0.0
C683 C 0.99117 0.44809 0.5078 0.0
H684 H 1.00222 0.53093 0.43171 0.0
H685 H 0.98015 0.45781 0.45499 0.0
S686 S 0.02448 0.48831 0.57528 0.0
N687 N 0.03031 0.52976 0.53927 0.0
N688 N 0.0068 0.44904 0.56415 0.0
C689 C 0.0049 0.46865 0.52961 0.0
C690 C 0.01765 0.51275 0.51617 0.0
C691 C 0.23897 0.73126 0.51901 0.0
C692 C 0.24095 0.69831 0.48615 0.0
C693 C 0.25145 0.77515 0.53173 0.0
C694 C 0.26645 0.78816 0.51211 0.0
H695 H 0.22752 0.72419 0.53481 0.0
H696 H 0.24935 0.79875 0.55736 0.0
S697 S 0.27809 0.71325 0.42483 0.0
N698 N 0.2593 0.68084 0.43446 0.0
N699 N 0.28269 0.76326 0.45838 0.0
C700 C 0.26864 0.75532 0.47928 0.0
C701 C 0.25596 0.71035 0.46637 0.0
C702 C 0.76574 0.48701 0.26325 0.0
C703 C 0.76473 0.46149 0.22836 0.0
C704 C 0.75322 0.53007 0.27657 0.0
C705 C 0.73911 0.54933 0.2556 0.0
H706 H 0.7764 0.47437 0.28036 0.0
H707 H 0.75451 0.54753 0.30381 0.0
S708 S 0.73041 0.49626 0.16238 0.0
N709 N 0.74843 0.45876 0.17294 0.0
N710 N 0.72491 0.53928 0.19809 0.0
C711 C 0.73796 0.52437 0.22061 0.0
C712 C 0.75073 0.48052 0.207 0.0
C713 C 0.76607 0.26146 0.48272 0.0
C714 C 0.76497 0.28665 0.51766 0.0
C715 C 0.7536 0.21839 0.46917 0.0
C716 C 0.73944 0.19881 0.48994 0.0
H717 H 0.77676 0.2744 0.46573 0.0
H718 H 0.75496 0.20121 0.44189 0.0
S719 S 0.73054 0.25069 0.58327 0.0
N720 N 0.74855 0.28853 0.57297 0.0
N721 N 0.72511 0.20805 0.54737 0.0
C722 C 0.7382 0.22342 0.525 0.0
C723 C 0.75093 0.26725 0.53885 0.0
C724 C 0.49066 0.2728 0.77068 0.0
C725 C 0.49166 0.29402 0.73495 0.0
C726 C 0.50312 0.231 0.78537 0.0
C727 C 0.51706 0.20837 0.76489 0.0
H728 H 0.48006 0.28787 0.7874 0.0
H729 H 0.50184 0.21661 0.81313 0.0
S730 S 0.5258 0.25021 0.67003 0.0
N731 N 0.50793 0.28974 0.67946 0.0
N732 N 0.53121 0.21112 0.70707 0.0
C733 C 0.51824 0.22924 0.72914 0.0
C734 C 0.50561 0.27214 0.71421 0.0
C735 C 0.48978 0.97541 0.4786 0.0
C736 C 0.49081 0.95323 0.51416 0.0
C737 C 0.50236 0.0169 0.46403 0.0
C738 C 0.51647 0.03816 0.48442 0.0
H739 H 0.47905 0.96145 0.46197 0.0
H740 H 0.50101 0.03219 0.43642 0.0
S741 S 0.52541 0.99297 0.57874 0.0
N742 N 0.50732 0.95485 0.56934 0.0
N743 N 0.53084 0.0328 0.54193 0.0
C744 C 0.5177 0.01613 0.51997 0.0
C745 C 0.50494 0.97363 0.5348 0.0
C746 C 0.48876 0.76905 0.26933 0.0
C747 C 0.48996 0.79475 0.2345 0.0
C748 C 0.50132 0.72646 0.28299 0.0
C749 C 0.51555 0.70755 0.26231 0.0
H750 H 0.47791 0.78105 0.28609 0.0
H751 H 0.49987 0.70847 0.31009 0.0
S752 S 0.52504 0.76286 0.16981 0.0
N753 N 0.50682 0.79936 0.17983 0.0
N754 N 0.53029 0.7193 0.20547 0.0
C755 C 0.51696 0.73314 0.2275 0.0
C756 C 0.50423 0.77682 0.21364 0.0
C757 C 0.49005 0.47662 0.98078 0.0
C758 C 0.49084 0.45392 0.01626 0.0
C759 C 0.50266 0.51869 0.96684 0.0
C760 C 0.51655 0.54006 0.98782 0.0
H761 H 0.47948 0.46263 0.9637 0.0
H762 H 0.5015 0.53431 0.93924 0.0
S763 S 0.52477 0.49408 0.08231 0.0
N764 N 0.50687 0.45543 0.07208 0.0
N765 N 0.53044 0.53451 0.04584 0.0
C766 C 0.51754 0.51761 0.02332 0.0
C767 C 0.50475 0.47449 0.03751 0.0
C768 C 0.06937 0.39101 0.40741 0.0
C769 C 0.06806 0.44634 0.38468 0.0
C770 C 0.06933 0.32666 0.3937 0.0
C771 C 0.06823 0.31537 0.35677 0.0
H772 H 0.06978 0.39719 0.43617 0.0
H773 H 0.06978 0.28551 0.41226 0.0
S774 S 0.06603 0.44359 0.28568 0.0
N775 N 0.06664 0.48595 0.32341 0.0
N776 N 0.06683 0.36488 0.2974 0.0
C777 C 0.06775 0.37033 0.33358 0.0
C778 C 0.06758 0.4359 0.34761 0.0
C779 C 0.19582 0.82264 0.35421 0.0
C780 C 0.19835 0.81413 0.39103 0.0
C781 C 0.19548 0.88584 0.33918 0.0
C782 C 0.19779 0.9427 0.3604 0.0
H783 H 0.19387 0.78028 0.33692 0.0
H784 H 0.19337 0.88998 0.31063 0.0
S785 S 0.20571 0.94658 0.45814 0.0
N786 N 0.20375 0.86725 0.4484 0.0
N787 N 0.20317 0.98638 0.41996 0.0
C788 C 0.20058 0.93484 0.39722 0.0
C789 C 0.20084 0.8704 0.4126 0.0
C790 C 0.05827 0.88818 0.90933 0.0
C791 C 0.05896 0.94506 0.88768 0.0
C792 C 0.05832 0.82496 0.89431 0.0
C793 C 0.05921 0.81638 0.85714 0.0
H794 H 0.05754 0.89236 0.93817 0.0
H795 H 0.05769 0.78259 0.91202 0.0
S796 S 0.06147 0.94946 0.78874 0.0
N797 N 0.06068 0.98909 0.8273 0.0
N798 N 0.06088 0.86996 0.79884 0.0
C799 C 0.06001 0.87285 0.83511 0.0
C800 C 0.05985 0.93734 0.85046 0.0
C801 C 0.18835 0.42664 0.89463 0.0
C802 C 0.18877 0.43747 0.85759 0.0
C803 C 0.18777 0.36245 0.90851 0.0
C804 C 0.18782 0.30683 0.88583 0.0
H805 H 0.18882 0.46794 0.91309 0.0
H806 H 0.18793 0.3565 0.9373 0.0
S807 S 0.18769 0.30854 0.78672 0.0
N808 N 0.1882 0.38737 0.79829 0.0
N809 N 0.18736 0.26661 0.82459 0.0
C810 C 0.18764 0.31693 0.84873 0.0
C811 C 0.18804 0.38234 0.83454 0.0
C812 C 0.94806 0.67598 0.59997 0.0
C813 C 0.94767 0.68452 0.63718 0.0
C814 C 0.94795 0.61269 0.58495 0.0
C815 C 0.94763 0.55582 0.60665 0.0
H816 H 0.94831 0.71842 0.58226 0.0
H817 H 0.94823 0.60844 0.55607 0.0
S818 S 0.94691 0.55152 0.70576 0.0
N819 N 0.94716 0.631 0.69557 0.0
N820 N 0.94707 0.51188 0.66717 0.0
C821 C 0.94739 0.56359 0.64392 0.0
C822 C 0.94737 0.62806 0.65925 0.0
C823 C 0.81442 0.07032 0.60167 0.0
C824 C 0.81525 0.05969 0.6387 0.0
C825 C 0.81466 0.13442 0.58765 0.0
C826 C 0.8155 0.19008 0.61021 0.0
H827 H 0.81329 0.02895 0.58339 0.0
H828 H 0.8136 0.1403 0.55894 0.0
S829 S 0.81889 0.1889 0.70905 0.0
N830 N 0.81783 0.11003 0.69772 0.0
N831 N 0.81803 0.23063 0.67115 0.0
C832 C 0.81683 0.18019 0.64721 0.0
C833 C 0.81679 0.11489 0.66152 0.0
C834 C 0.94555 0.13816 0.16092 0.0
C835 C 0.94933 0.19434 0.14007 0.0
C836 C 0.94577 0.07475 0.14607 0.0
C837 C 0.9496 0.06548 0.10982 0.0
H838 H 0.94232 0.14305 0.18896 0.0
H839 H 0.94257 0.03292 0.16294 0.0
S840 S 0.9615 0.19535 0.04421 0.0
N841 N 0.95783 0.23614 0.08169 0.0
N842 N 0.95811 0.11663 0.05365 0.0
C843 C 0.9537 0.12089 0.08875 0.0
C844 C 0.9536 0.18549 0.10392 0.0
C845 C 0.81706 0.57365 0.10484 0.0
C846 C 0.81559 0.56273 0.14175 0.0
C847 C 0.8174 0.63789 0.09102 0.0
C848 C 0.81603 0.6934 0.1136 0.0
H849 H 0.81769 0.53231 0.08642 0.0
H850 H 0.81817 0.64388 0.06228 0.0
S851 S 0.81267 0.69144 0.21247 0.0
N852 N 0.81346 0.61264 0.20092 0.0
N853 N 0.81387 0.7335 0.17472 0.0
C854 C 0.81502 0.68326 0.15065 0.0
C855 C 0.81486 0.61783 0.16479 0.0
C856 C 0.56551 0.32303 0.89747 0.0
C857 C 0.56588 0.31245 0.86039 0.0
C858 C 0.5654 0.38713 0.91152 0.0
C859 C 0.5654 0.44292 0.88897 0.0
H860 H 0.56503 0.28154 0.9158 0.0
H861 H 0.56477 0.39286 0.94029 0.0
S862 S 0.5672 0.44206 0.78995 0.0
N863 N 0.56704 0.36309 0.80128 0.0
N864 N 0.56657 0.4837 0.82791 0.0
C865 C 0.56621 0.43316 0.85188 0.0
C866 C 0.56653 0.36784 0.83753 0.0
C867 C 0.69928 0.86179 0.90896 0.0
C868 C 0.69846 0.80478 0.88743 0.0
C869 C 0.69932 0.92493 0.89382 0.0
C870 C 0.69841 0.93328 0.85663 0.0
H871 H 0.69996 0.85775 0.93782 0.0
H872 H 0.69995 0.96741 0.91146 0.0
S873 S 0.69605 0.79976 0.78847 0.0
N874 N 0.69678 0.76038 0.82711 0.0
N875 N 0.69675 0.87931 0.79843 0.0
C876 C 0.6976 0.87666 0.83471 0.0
C877 C 0.69768 0.81228 0.85018 0.0
C878 C 0.56686 0.8228 0.39106 0.0
C879 C 0.56467 0.8118 0.35432 0.0
C880 C 0.56704 0.88704 0.40493 0.0
C881 C 0.56477 0.94247 0.3826 0.0
H882 H 0.56825 0.78149 0.4093 0.0
H883 H 0.56847 0.89305 0.43356 0.0
S884 S 0.55891 0.94011 0.28423 0.0
N885 N 0.56064 0.86143 0.29557 0.0
N886 N 0.56074 0.9823 0.32185 0.0
C887 C 0.56291 0.93223 0.34569 0.0
C888 C 0.56293 0.86681 0.33149 0.0
C889 C 0.69783 0.36463 0.40689 0.0
C890 C 0.698 0.30759 0.38528 0.0
C891 C 0.69775 0.42783 0.39176 0.0
C892 C 0.69768 0.43613 0.35453 0.0
H893 H 0.69779 0.36057 0.43577 0.0
H894 H 0.69757 0.47037 0.4094 0.0
S895 S 0.69831 0.30267 0.28618 0.0
N896 N 0.6983 0.26327 0.32483 0.0
N897 N 0.69805 0.38221 0.29623 0.0
C898 C 0.69791 0.37951 0.33256 0.0
C899 C 0.69812 0.31514 0.34799 0.0
C900 C 0.44196 0.57372 0.14457 0.0
C901 C 0.44331 0.56424 0.10752 0.0
C902 C 0.44116 0.63739 0.15906 0.0
C903 C 0.44189 0.69376 0.13701 0.0
H904 H 0.44158 0.53172 0.16257 0.0
H905 H 0.44037 0.64234 0.18786 0.0
S906 S 0.44507 0.69557 0.03809 0.0
N907 N 0.44498 0.61635 0.04885 0.0
N908 N 0.44363 0.73615 0.07627 0.0
C909 C 0.44299 0.68501 0.09986 0.0
C910 C 0.44367 0.62015 0.08505 0.0
C911 C 0.31074 0.1156 0.15607 0.0
C912 C 0.31083 0.05907 0.13408 0.0
C913 C 0.31088 0.17913 0.1414 0.0
C914 C 0.31132 0.1884 0.10424 0.0
H915 H 0.31025 0.11092 0.18491 0.0
H916 H 0.31054 0.22121 0.15935 0.0
S917 S 0.31233 0.05656 0.03502 0.0
N918 N 0.31178 0.01618 0.07338 0.0
N919 N 0.31222 0.13589 0.0456 0.0
C920 C 0.31178 0.13232 0.08189 0.0
C921 C 0.31147 0.06751 0.09687 0.0
C922 C 0.44386 0.17593 0.60451 0.0
C923 C 0.44413 0.18562 0.64166 0.0
C924 C 0.44311 0.11222 0.59005 0.0
C925 C 0.44281 0.05602 0.61226 0.0
H926 H 0.44436 0.21777 0.58642 0.0
H927 H 0.44322 0.10705 0.56121 0.0
S928 S 0.44271 0.05471 0.71138 0.0
N929 N 0.4435 0.13383 0.70051 0.0
N930 N 0.44228 0.01395 0.67313 0.0
C931 C 0.44277 0.06496 0.64945 0.0
C932 C 0.44338 0.12987 0.66422 0.0
C933 C 0.30819 0.56588 0.60694 0.0
C934 C 0.31046 0.55661 0.64382 0.0
C935 C 0.30809 0.62935 0.59218 0.0
C936 C 0.31004 0.68575 0.61385 0.0
H937 H 0.30645 0.52388 0.58929 0.0
H938 H 0.30621 0.6342 0.5636 0.0
S939 S 0.31676 0.68834 0.71192 0.0
N940 N 0.31506 0.60911 0.70173 0.0
N941 N 0.31467 0.72863 0.67378 0.0
C942 C 0.31242 0.67733 0.65072 0.0
C943 C 0.3127 0.61263 0.66577 0.0
C944 C 0.04739 0.82442 0.35514 0.0
C945 C 0.04744 0.81493 0.39246 0.0
C946 C 0.04744 0.88811 0.34015 0.0
C947 C 0.04758 0.94504 0.36183 0.0
H948 H 0.04789 0.78232 0.33723 0.0
H949 H 0.04799 0.89258 0.31131 0.0
S950 S 0.04604 0.9476 0.46111 0.0
N951 N 0.04634 0.86817 0.45075 0.0
N952 N 0.04644 0.98768 0.42265 0.0
C953 C 0.04679 0.93633 0.39918 0.0
C954 C 0.04671 0.87139 0.41446 0.0
C955 C 0.20143 0.38367 0.40779 0.0
C956 C 0.20267 0.44185 0.38731 0.0
C957 C 0.20129 0.32108 0.39155 0.0
C958 C 0.20233 0.31401 0.35414 0.0
H959 H 0.20028 0.38638 0.43662 0.0
H960 H 0.20004 0.27793 0.40854 0.0
S961 S 0.20673 0.45054 0.2884 0.0
N962 N 0.2057 0.48818 0.32753 0.0
N963 N 0.20535 0.37063 0.29713 0.0
C964 C 0.20398 0.37166 0.33335 0.0
C965 C 0.20417 0.43548 0.3499 0.0
C966 C 0.05226 0.38575 0.84082 0.0
C967 C 0.05156 0.44393 0.86141 0.0
C968 C 0.05231 0.32313 0.85699 0.0
C969 C 0.05171 0.31603 0.89445 0.0
H970 H 0.05312 0.38847 0.81194 0.0
H971 H 0.05319 0.27996 0.83991 0.0
S972 S 0.04862 0.4526 0.9605 0.0
N973 N 0.04938 0.49027 0.92136 0.0
N974 N 0.04955 0.37263 0.95164 0.0
C975 C 0.05051 0.37369 0.91535 0.0
C976 C 0.0504 0.43755 0.89888 0.0
C977 C 0.20705 0.88304 0.91036 0.0
C978 C 0.20792 0.94008 0.88886 0.0
C979 C 0.20725 0.81946 0.89521 0.0
C980 C 0.20834 0.81029 0.85793 0.0
H981 H 0.20557 0.88739 0.93906 0.0
H982 H 0.20593 0.77726 0.91286 0.0
S983 S 0.21287 0.94327 0.79008 0.0
N984 N 0.21137 0.98308 0.8285 0.0
N985 N 0.21174 0.86383 0.80011 0.0
C986 C 0.21011 0.86682 0.83626 0.0
C987 C 0.2099 0.9316 0.85169 0.0
C988 C 0.95341 0.12836 0.58358 0.0
C989 C 0.95489 0.18648 0.60405 0.0
C990 C 0.95359 0.0657 0.59977 0.0
C991 C 0.95516 0.05862 0.6371 0.0
H992 H 0.95175 0.13119 0.55487 0.0
H993 H 0.95202 0.02254 0.58289 0.0
S994 S 0.96071 0.19493 0.70259 0.0
N995 N 0.95899 0.23264 0.66361 0.0
N996 N 0.95919 0.11506 0.69388 0.0
C997 C 0.95719 0.11619 0.65779 0.0
C998 C 0.95709 0.18001 0.64131 0.0
C999 C 0.79768 0.61541 0.58714 0.0
C1000 C 0.79691 0.55809 0.60844 0.0
C1001 C 0.79759 0.67879 0.60254 0.0
C1002 C 0.79675 0.68749 0.63989 0.0
H1003 H 0.79898 0.61142 0.55839 0.0
H1004 H 0.79882 0.7212 0.58501 0.0
S1005 S 0.79262 0.55372 0.70737 0.0
N1006 N 0.79383 0.51438 0.66877 0.0
N1007 N 0.79372 0.63328 0.69759 0.0
C1008 C 0.7951 0.63071 0.66138 0.0
C1009 C 0.79516 0.56613 0.64571 0.0
C1010 C 0.95336 0.57351 0.10794 0.0
C1011 C 0.95421 0.56651 0.14538 0.0
C1012 C 0.95326 0.63612 0.09171 0.0
C1013 C 0.9541 0.69437 0.11224 0.0
H1014 H 0.95237 0.53028 0.09093 0.0
H1015 H 0.95222 0.63877 0.06287 0.0
S1016 S 0.95765 0.70329 0.21122 0.0
N1017 N 0.9567 0.62329 0.20245 0.0
N1018 N 0.95664 0.74086 0.17209 0.0
C1019 C 0.95549 0.68808 0.14967 0.0
C1020 C 0.95551 0.62425 0.1662 0.0
C1021 C 0.79823 0.18064 0.10298 0.0
C1022 C 0.79689 0.18961 0.14023 0.0
C1023 C 0.79815 0.11719 0.08768 0.0
C1024 C 0.79671 0.06009 0.109 0.0
H1025 H 0.79999 0.22282 0.08548 0.0
H1026 H 0.79988 0.11291 0.05903 0.0
S1027 S 0.79084 0.05668 0.20757 0.0
N1028 N 0.7926 0.13605 0.19777 0.0
N1029 N 0.79241 0.01701 0.16912 0.0
C1030 C 0.79444 0.0685 0.14611 0.0
C1031 C 0.79454 0.13314 0.16168 0.0
C1032 C 0.54754 0.82164 0.85778 0.0
C1033 C 0.54728 0.81304 0.89516 0.0
C1034 C 0.54761 0.88496 0.84235 0.0
C1035 C 0.54741 0.94239 0.86364 0.0
H1036 H 0.5483 0.77915 0.84018 0.0
H1037 H 0.54844 0.88876 0.81351 0.0
S1038 S 0.54484 0.9472 0.9628 0.0
N1039 N 0.54545 0.86756 0.95301 0.0
N1040 N 0.54554 0.98641 0.9241 0.0
C1041 C 0.54626 0.93453 0.90101 0.0
C1042 C 0.54621 0.86997 0.91673 0.0
C1043 C 0.70362 0.4266 0.85667 0.0
C1044 C 0.70419 0.4336 0.89413 0.0
C1045 C 0.70352 0.36401 0.84046 0.0
C1046 C 0.70406 0.30579 0.86102 0.0
H1047 H 0.70288 0.46984 0.83961 0.0
H1048 H 0.70273 0.36137 0.81157 0.0
S1049 S 0.70671 0.29683 0.96012 0.0
N1050 N 0.70604 0.37684 0.95131 0.0
N1051 N 0.70595 0.25924 0.92096 0.0
C1052 C 0.70513 0.31204 0.8985 0.0
C1053 C 0.70516 0.37587 0.91501 0.0
C1054 C 0.54679 0.38332 0.33762 0.0
C1055 C 0.54651 0.44069 0.35895 0.0
C1056 C 0.54679 0.31998 0.353 0.0
C1057 C 0.54653 0.31128 0.39037 0.0
H1058 H 0.54762 0.38722 0.30878 0.0
H1059 H 0.54761 0.27755 0.33537 0.0
S1060 S 0.54395 0.4452 0.45812 0.0
N1061 N 0.5446 0.48452 0.41945 0.0
N1062 N 0.54465 0.3656 0.44827 0.0
C1063 C 0.54539 0.36812 0.41199 0.0
C1064 C 0.54537 0.43272 0.39631 0.0
C1065 C 0.70207 0.88012 0.4082 0.0
C1066 C 0.70385 0.93821 0.3878 0.0
C1067 C 0.70191 0.8175 0.39193 0.0
C1068 C 0.70342 0.81042 0.35459 0.0
H1069 H 0.70047 0.88296 0.43693 0.0
H1070 H 0.70018 0.77441 0.40878 0.0
S1071 S 0.70954 0.94658 0.28923 0.0
N1072 N 0.70806 0.98427 0.32827 0.0
N1073 N 0.70763 0.86679 0.29785 0.0
C1074 C 0.70569 0.86793 0.33396 0.0
C1075 C 0.70594 0.93171 0.35052 0.0
C1076 C 0.4551 0.18169 0.14592 0.0
C1077 C 0.45613 0.1895 0.10855 0.0
C1078 C 0.45535 0.11873 0.16176 0.0
C1079 C 0.45669 0.06106 0.14088 0.0
H1080 H 0.45355 0.22442 0.16311 0.0
H1081 H 0.45394 0.11528 0.19052 0.0
S1082 S 0.46152 0.0547 0.04208 0.0
N1083 N 0.4598 0.13432 0.05128 0.0
N1084 N 0.46036 0.0162 0.08093 0.0
C1085 C 0.45852 0.06833 0.10359 0.0
C1086 C 0.45821 0.13244 0.08746 0.0
C1087 C 0.29912 0.68059 0.10316 0.0
C1088 C 0.29895 0.6881 0.14061 0.0
C1089 C 0.29871 0.61778 0.08717 0.0
C1090 C 0.29805 0.55982 0.10795 0.0
H1091 H 0.30007 0.72353 0.08592 0.0
H1092 H 0.2994 0.61472 0.05829 0.0
S1093 S 0.29585 0.55235 0.20714 0.0
N1094 N 0.297 0.63217 0.19802 0.0
N1095 N 0.29613 0.51424 0.1681 0.0
C1096 C 0.29715 0.56667 0.14543 0.0
C1097 C 0.29763 0.63071 0.16171 0.0
C1098 C 0.45758 0.56795 0.60427 0.0
C1099 C 0.45832 0.56009 0.64167 0.0
C1100 C 0.45757 0.63097 0.5885 0.0
C1101 C 0.45838 0.68869 0.60947 0.0
H1102 H 0.45641 0.52517 0.58699 0.0
H1103 H 0.45639 0.63438 0.5597 0.0
S1104 S 0.46231 0.69512 0.70844 0.0
N1105 N 0.46117 0.61539 0.6991 0.0
N1106 N 0.46127 0.73366 0.66959 0.0
C1107 C 0.45996 0.68145 0.64681 0.0
C1108 C 0.4599 0.61725 0.66287 0.0
C1109 C 0.3005 0.11273 0.59109 0.0
C1110 C 0.29949 0.05466 0.61172 0.0
C1111 C 0.30018 0.17549 0.60716 0.0
C1112 C 0.29893 0.18277 0.64454 0.0
H1113 H 0.30196 0.10981 0.56233 0.0
H1114 H 0.30146 0.21857 0.59013 0.0
S1115 S 0.2945 0.0466 0.71046 0.0
N1116 N 0.29605 0.00869 0.67149 0.0
N1117 N 0.29559 0.12651 0.70156 0.0
C1118 C 0.29727 0.12523 0.66539 0.0
C1119 C 0.29751 0.06128 0.64903 0.0
loop_
_geom_bond_atom_site_label_1
_geom_bond_atom_site_label_2
_geom_bond_distance
_geom_bond_site_symmetry_2
_ccdc_geom_bond_type
In0 O1 2.294 . S
In0 O2 2.326 . S
In0 O6 2.266 . S
In0 O7 2.326 . S
In0 O8 2.266 . S
In0 O9 2.326 . S
In0 O11 2.294 . S
In0 O12 2.326 . S
O1 In0 2.294 . S
O1 C10 1.240 . S
O2 In0 2.326 . S
O2 C10 1.252 . S
C3 O6 1.252 . S
C3 O7 1.260 . S
C4 O11 1.240 . S
C4 O12 1.252 . S
C5 O8 1.252 . S
C5 O9 1.260 . S
O6 In0 2.266 . S
O6 C3 1.252 . S
O7 In0 2.326 . S
O7 C3 1.260 . S
O8 In0 2.266 . S
O8 C5 1.252 . S
O9 In0 2.326 . S
O9 C5 1.260 . S
C10 O1 1.240 . S
C10 O2 1.252 . S
O11 In0 2.294 . S
O11 C4 1.240 . S
O12 In0 2.326 . S
O12 C4 1.252 . S
In13 O14 2.294 . S
In13 O15 2.326 . S
In13 O19 2.266 . S
In13 O20 2.326 . S
In13 O21 2.266 . S
In13 O22 2.326 . S
In13 O24 2.294 . S
In13 O25 2.326 1_545 S
O14 In13 2.294 . S
O14 C23 1.240 . S
O15 In13 2.326 . S
O15 C23 1.252 . S
C16 O19 1.252 . S
C16 O20 1.260 . S
C17 O24 1.240 1_565 S
C17 O25 1.252 . S
C18 O21 1.252 . S
C18 O22 1.260 . S
O19 In13 2.266 . S
O19 C16 1.252 . S
O20 In13 2.326 . S
O20 C16 1.260 . S
O21 In13 2.266 . S
O21 C18 1.252 . S
O22 In13 2.326 . S
O22 C18 1.260 . S
C23 O14 1.240 . S
C23 O15 1.252 . S
O24 In13 2.294 . S
O24 C17 1.240 1_545 S
O25 In13 2.326 1_565 S
O25 C17 1.252 . S
In26 O27 2.294 . S
In26 O28 2.326 1_545 S
In26 O32 2.266 . S
In26 O33 2.326 . S
In26 O34 2.266 . S
In26 O35 2.326 . S
In26 O37 2.294 . S
In26 O38 2.326 . S
O27 In26 2.294 . S
O27 C36 1.240 1_545 S
O28 In26 2.326 1_565 S
O28 C36 1.252 . S
C29 O32 1.252 . S
C29 O33 1.260 . S
C30 O37 1.240 . S
C30 O38 1.252 . S
C31 O34 1.252 . S
C31 O35 1.260 . S
O32 In26 2.266 . S
O32 C29 1.252 . S
O33 In26 2.326 . S
O33 C29 1.260 . S
O34 In26 2.266 . S
O34 C31 1.252 . S
O35 In26 2.326 . S
O35 C31 1.260 . S
C36 O27 1.240 1_565 S
C36 O28 1.252 . S
O37 In26 2.294 . S
O37 C30 1.240 . S
O38 In26 2.326 . S
O38 C30 1.252 . S
In39 O40 2.294 . S
In39 O41 2.326 . S
In39 O45 2.266 . S
In39 O46 2.326 . S
In39 O47 2.266 . S
In39 O48 2.326 . S
In39 O50 2.294 . S
In39 O51 2.326 . S
O40 In39 2.294 . S
O40 C49 1.240 . S
O41 In39 2.326 . S
O41 C49 1.252 . S
C42 O45 1.252 . S
C42 O46 1.260 . S
C43 O50 1.240 . S
C43 O51 1.252 . S
C44 O47 1.252 . S
C44 O48 1.260 . S
O45 In39 2.266 . S
O45 C42 1.252 . S
O46 In39 2.326 . S
O46 C42 1.260 . S
O47 In39 2.266 . S
O47 C44 1.252 . S
O48 In39 2.326 . S
O48 C44 1.260 . S
C49 O40 1.240 . S
C49 O41 1.252 . S
O50 In39 2.294 . S
O50 C43 1.240 . S
O51 In39 2.326 . S
O51 C43 1.252 . S
In52 O53 2.294 . S
In52 O54 2.326 . S
In52 O58 2.266 . S
In52 O59 2.326 . S
In52 O60 2.266 . S
In52 O61 2.326 . S
In52 O63 2.294 . S
In52 O64 2.326 . S
O53 In52 2.294 . S
O53 C62 1.240 . S
O54 In52 2.326 . S
O54 C62 1.252 . S
C55 O58 1.252 . S
C55 O59 1.260 . S
C56 O63 1.240 . S
C56 O64 1.252 . S
C57 O60 1.252 . S
C57 O61 1.260 . S
O58 In52 2.266 . S
O58 C55 1.252 . S
O59 In52 2.326 . S
O59 C55 1.260 . S
O60 In52 2.266 . S
O60 C57 1.252 . S
O61 In52 2.326 . S
O61 C57 1.260 . S
C62 O53 1.240 . S
C62 O54 1.252 . S
O63 In52 2.294 . S
O63 C56 1.240 . S
O64 In52 2.326 . S
O64 C56 1.252 . S
In65 O66 2.294 . S
In65 O67 2.326 . S
In65 O71 2.266 . S
In65 O72 2.326 . S
In65 O73 2.266 . S
In65 O74 2.326 . S
In65 O76 2.294 . S
In65 O77 2.326 1_565 S
O66 In65 2.294 . S
O66 C75 1.240 . S
O67 In65 2.326 . S
O67 C75 1.252 . S
C68 O71 1.252 . S
C68 O72 1.260 . S
C69 O76 1.240 1_545 S
C69 O77 1.252 . S
C70 O73 1.252 . S
C70 O74 1.260 . S
O71 In65 2.266 . S
O71 C68 1.252 . S
O72 In65 2.326 . S
O72 C68 1.260 . S
O73 In65 2.266 . S
O73 C70 1.252 . S
O74 In65 2.326 . S
O74 C70 1.260 . S
C75 O66 1.240 . S
C75 O67 1.252 . S
O76 In65 2.294 . S
O76 C69 1.240 1_565 S
O77 In65 2.326 1_545 S
O77 C69 1.252 . S
In78 O79 2.294 . S
In78 O80 2.326 1_565 S
In78 O84 2.266 . S
In78 O85 2.326 . S
In78 O86 2.266 . S
In78 O87 2.326 . S
In78 O89 2.294 . S
In78 O90 2.326 . S
O79 In78 2.294 . S
O79 C88 1.240 1_565 S
O80 In78 2.326 1_545 S
O80 C88 1.252 . S
C81 O84 1.252 . S
C81 O85 1.260 . S
C82 O89 1.240 . S
C82 O90 1.252 . S
C83 O86 1.252 . S
C83 O87 1.260 . S
O84 In78 2.266 . S
O84 C81 1.252 . S
O85 In78 2.326 . S
O85 C81 1.260 . S
O86 In78 2.266 . S
O86 C83 1.252 . S
O87 In78 2.326 . S
O87 C83 1.260 . S
C88 O79 1.240 1_545 S
C88 O80 1.252 . S
O89 In78 2.294 . S
O89 C82 1.240 . S
O90 In78 2.326 . S
O90 C82 1.252 . S
In91 O92 2.294 . S
In91 O93 2.326 . S
In91 O97 2.266 . S
In91 O98 2.326 . S
In91 O99 2.266 . S
In91 O100 2.326 . S
In91 O102 2.294 . S
In91 O103 2.326 . S
O92 In91 2.294 . S
O92 C101 1.240 . S
O93 In91 2.326 . S
O93 C101 1.252 . S
C94 O97 1.252 . S
C94 O98 1.260 . S
C95 O102 1.240 . S
C95 O103 1.252 . S
C96 O99 1.252 . S
C96 O100 1.260 . S
O97 In91 2.266 . S
O97 C94 1.252 . S
O98 In91 2.326 . S
O98 C94 1.260 . S
O99 In91 2.266 . S
O99 C96 1.252 . S
O100 In91 2.326 . S
O100 C96 1.260 . S
C101 O92 1.240 . S
C101 O93 1.252 . S
O102 In91 2.294 . S
O102 C95 1.240 . S
O103 In91 2.326 . S
O103 C95 1.252 . S
In104 O105 2.294 . S
In104 O106 2.326 . S
In104 O110 2.266 . S
In104 O111 2.326 . S
In104 O112 2.266 . S
In104 O113 2.326 . S
In104 O115 2.294 . S
In104 O116 2.326 . S
O105 In104 2.294 . S
O105 C114 1.240 . S
O106 In104 2.326 . S
O106 C114 1.252 . S
C107 O110 1.252 . S
C107 O111 1.260 . S
C108 O115 1.240 . S
C108 O116 1.252 . S
C109 O112 1.252 . S
C109 O113 1.260 . S
O110 In104 2.266 . S
O110 C107 1.252 . S
O111 In104 2.326 . S
O111 C107 1.260 . S
O112 In104 2.266 . S
O112 C109 1.252 . S
O113 In104 2.326 . S
O113 C109 1.260 . S
C114 O105 1.240 . S
C114 O106 1.252 . S
O115 In104 2.294 . S
O115 C108 1.240 . S
O116 In104 2.326 . S
O116 C108 1.252 . S
In117 O118 2.294 . S
In117 O119 2.326 . S
In117 O123 2.266 . S
In117 O124 2.326 . S
In117 O125 2.266 . S
In117 O126 2.326 . S
In117 O128 2.294 . S
In117 O129 2.326 . S
O118 In117 2.294 . S
O118 C127 1.240 . S
O119 In117 2.326 . S
O119 C127 1.252 . S
C120 O123 1.252 . S
C120 O124 1.260 . S
C121 O128 1.240 . S
C121 O129 1.252 . S
C122 O125 1.252 . S
C122 O126 1.260 . S
O123 In117 2.266 . S
O123 C120 1.252 . S
O124 In117 2.326 . S
O124 C120 1.260 . S
O125 In117 2.266 . S
O125 C122 1.252 . S
O126 In117 2.326 . S
O126 C122 1.260 . S
C127 O118 1.240 . S
C127 O119 1.252 . S
O128 In117 2.294 . S
O128 C121 1.240 . S
O129 In117 2.326 . S
O129 C121 1.252 . S
In130 O131 2.294 . S
In130 O132 2.326 . S
In130 O136 2.266 . S
In130 O137 2.326 . S
In130 O138 2.266 . S
In130 O139 2.326 . S
In130 O141 2.294 . S
In130 O142 2.326 . S
O131 In130 2.294 . S
O131 C140 1.240 . S
O132 In130 2.326 . S
O132 C140 1.252 . S
C133 O136 1.252 . S
C133 O137 1.260 . S
C134 O141 1.240 . S
C134 O142 1.252 . S
C135 O138 1.252 . S
C135 O139 1.260 . S
O136 In130 2.266 . S
O136 C133 1.252 . S
O137 In130 2.326 . S
O137 C133 1.260 . S
O138 In130 2.266 . S
O138 C135 1.252 . S
O139 In130 2.326 . S
O139 C135 1.260 . S
C140 O131 1.240 . S
C140 O132 1.252 . S
O141 In130 2.294 . S
O141 C134 1.240 . S
O142 In130 2.326 . S
O142 C134 1.252 . S
In143 O144 2.294 . S
In143 O145 2.326 . S
In143 O149 2.266 . S
In143 O150 2.326 . S
In143 O151 2.266 . S
In143 O152 2.326 . S
In143 O154 2.294 . S
In143 O155 2.326 . S
O144 In143 2.294 . S
O144 C153 1.240 . S
O145 In143 2.326 . S
O145 C153 1.252 . S
C146 O149 1.252 . S
C146 O150 1.260 . S
C147 O154 1.240 . S
C147 O155 1.252 . S
C148 O151 1.252 . S
C148 O152 1.260 . S
O149 In143 2.266 . S
O149 C146 1.252 . S
O150 In143 2.326 . S
O150 C146 1.260 . S
O151 In143 2.266 . S
O151 C148 1.252 . S
O152 In143 2.326 . S
O152 C148 1.260 . S
C153 O144 1.240 . S
C153 O145 1.252 . S
O154 In143 2.294 . S
O154 C147 1.240 . S
O155 In143 2.326 . S
O155 C147 1.252 . S
In156 O157 2.294 . S
In156 O158 2.326 . S
In156 O162 2.266 . S
In156 O163 2.326 . S
In156 O164 2.266 . S
In156 O165 2.326 . S
In156 O167 2.294 . S
In156 O168 2.326 . S
O157 In156 2.294 . S
O157 C166 1.240 . S
O158 In156 2.326 . S
O158 C166 1.252 . S
C159 O162 1.252 . S
C159 O163 1.260 . S
C160 O167 1.240 . S
C160 O168 1.252 . S
C161 O164 1.252 . S
C161 O165 1.260 . S
O162 In156 2.266 . S
O162 C159 1.252 . S
O163 In156 2.326 . S
O163 C159 1.260 . S
O164 In156 2.266 . S
O164 C161 1.252 . S
O165 In156 2.326 . S
O165 C161 1.260 . S
C166 O157 1.240 . S
C166 O158 1.252 . S
O167 In156 2.294 . S
O167 C160 1.240 . S
O168 In156 2.326 . S
O168 C160 1.252 . S
In169 O170 2.294 . S
In169 O171 2.326 . S
In169 O175 2.266 . S
In169 O176 2.326 . S
In169 O177 2.266 . S
In169 O178 2.326 . S
In169 O180 2.294 . S
In169 O181 2.326 . S
O170 In169 2.294 . S
O170 C179 1.240 . S
O171 In169 2.326 . S
O171 C179 1.252 . S
C172 O175 1.252 . S
C172 O176 1.260 . S
C173 O180 1.240 . S
C173 O181 1.252 . S
C174 O177 1.252 . S
C174 O178 1.260 . S
O175 In169 2.266 . S
O175 C172 1.252 . S
O176 In169 2.326 . S
O176 C172 1.260 . S
O177 In169 2.266 . S
O177 C174 1.252 . S
O178 In169 2.326 . S
O178 C174 1.260 . S
C179 O170 1.240 . S
C179 O171 1.252 . S
O180 In169 2.294 . S
O180 C173 1.240 . S
O181 In169 2.326 . S
O181 C173 1.252 . S
In182 O183 2.294 . S
In182 O184 2.326 . S
In182 O188 2.266 . S
In182 O189 2.326 . S
In182 O190 2.266 . S
In182 O191 2.326 . S
In182 O193 2.294 . S
In182 O194 2.326 . S
O183 In182 2.294 . S
O183 C192 1.240 . S
O184 In182 2.326 . S
O184 C192 1.252 . S
C185 O188 1.252 . S
C185 O189 1.260 . S
C186 O193 1.240 . S
C186 O194 1.252 . S
C187 O190 1.252 . S
C187 O191 1.260 . S
O188 In182 2.266 . S
O188 C185 1.252 . S
O189 In182 2.326 . S
O189 C185 1.260 . S
O190 In182 2.266 . S
O190 C187 1.252 . S
O191 In182 2.326 . S
O191 C187 1.260 . S
C192 O183 1.240 . S
C192 O184 1.252 . S
O193 In182 2.294 . S
O193 C186 1.240 . S
O194 In182 2.326 . S
O194 C186 1.252 . S
In195 O196 2.294 . S
In195 O197 2.326 . S
In195 O201 2.266 . S
In195 O202 2.326 . S
In195 O203 2.266 . S
In195 O204 2.326 . S
In195 O206 2.294 . S
In195 O207 2.326 . S
O196 In195 2.294 . S
O196 C205 1.240 . S
O197 In195 2.326 . S
O197 C205 1.252 . S
C198 O201 1.252 . S
C198 O202 1.260 . S
C199 O206 1.240 . S
C199 O207 1.252 . S
C200 O203 1.252 . S
C200 O204 1.260 . S
O201 In195 2.266 . S
O201 C198 1.252 . S
O202 In195 2.326 . S
O202 C198 1.260 . S
O203 In195 2.266 . S
O203 C200 1.252 . S
O204 In195 2.326 . S
O204 C200 1.260 . S
C205 O196 1.240 . S
C205 O197 1.252 . S
O206 In195 2.294 . S
O206 C199 1.240 . S
O207 In195 2.326 . S
O207 C199 1.252 . S
In208 O209 2.294 . S
In208 O210 2.326 . S
In208 O214 2.266 . S
In208 O215 2.326 . S
In208 O216 2.266 . S
In208 O217 2.326 . S
In208 O219 2.294 . S
In208 O220 2.326 . S
O209 In208 2.294 . S
O209 C218 1.240 . S
O210 In208 2.326 . S
O210 C218 1.252 . S
C211 O214 1.252 . S
C211 O215 1.260 . S
C212 O219 1.240 . S
C212 O220 1.252 . S
C213 O216 1.252 . S
C213 O217 1.260 . S
O214 In208 2.266 . S
O214 C211 1.252 . S
O215 In208 2.326 . S
O215 C211 1.260 . S
O216 In208 2.266 . S
O216 C213 1.252 . S
O217 In208 2.326 . S
O217 C213 1.260 . S
C218 O209 1.240 . S
C218 O210 1.252 . S
O219 In208 2.294 . S
O219 C212 1.240 . S
O220 In208 2.326 . S
O220 C212 1.252 . S
In221 O222 2.294 . S
In221 O223 2.326 1_545 S
In221 O227 2.266 . S
In221 O228 2.326 . S
In221 O229 2.266 . S
In221 O230 2.326 . S
In221 O232 2.294 . S
In221 O233 2.326 . S
O222 In221 2.294 . S
O222 C231 1.240 1_545 S
O223 In221 2.326 1_565 S
O223 C231 1.252 . S
C224 O227 1.252 . S
C224 O228 1.260 . S
C225 O232 1.240 . S
C225 O233 1.252 . S
C226 O229 1.252 . S
C226 O230 1.260 . S
O227 In221 2.266 . S
O227 C224 1.252 . S
O228 In221 2.326 . S
O228 C224 1.260 . S
O229 In221 2.266 . S
O229 C226 1.252 . S
O230 In221 2.326 . S
O230 C226 1.260 . S
C231 O222 1.240 1_565 S
C231 O223 1.252 . S
O232 In221 2.294 . S
O232 C225 1.240 . S
O233 In221 2.326 . S
O233 C225 1.252 . S
In234 O235 2.294 . S
In234 O236 2.326 1_545 S
In234 O240 2.266 . S
In234 O241 2.326 . S
In234 O242 2.266 . S
In234 O243 2.326 . S
In234 O245 2.294 . S
In234 O246 2.326 . S
O235 In234 2.294 . S
O235 C244 1.240 1_545 S
O236 In234 2.326 1_565 S
O236 C244 1.252 . S
C237 O240 1.252 . S
C237 O241 1.260 . S
C238 O245 1.240 . S
C238 O246 1.252 . S
C239 O242 1.252 . S
C239 O243 1.260 . S
O240 In234 2.266 . S
O240 C237 1.252 . S
O241 In234 2.326 . S
O241 C237 1.260 . S
O242 In234 2.266 . S
O242 C239 1.252 . S
O243 In234 2.326 . S
O243 C239 1.260 . S
C244 O235 1.240 1_565 S
C244 O236 1.252 . S
O245 In234 2.294 . S
O245 C238 1.240 . S
O246 In234 2.326 . S
O246 C238 1.252 . S
In247 O248 2.294 . S
In247 O249 2.326 . S
In247 O253 2.266 . S
In247 O254 2.326 . S
In247 O255 2.266 . S
In247 O256 2.326 . S
In247 O258 2.294 . S
In247 O259 2.326 . S
O248 In247 2.294 . S
O248 C257 1.240 . S
O249 In247 2.326 . S
O249 C257 1.252 . S
C250 O253 1.252 . S
C250 O254 1.260 . S
C251 O258 1.240 . S
C251 O259 1.252 . S
C252 O255 1.252 . S
C252 O256 1.260 . S
O253 In247 2.266 . S
O253 C250 1.252 . S
O254 In247 2.326 . S
O254 C250 1.260 . S
O255 In247 2.266 . S
O255 C252 1.252 . S
O256 In247 2.326 . S
O256 C252 1.260 . S
C257 O248 1.240 . S
C257 O249 1.252 . S
O258 In247 2.294 . S
O258 C251 1.240 . S
O259 In247 2.326 . S
O259 C251 1.252 . S
In260 O261 2.294 . S
In260 O262 2.326 . S
In260 O266 2.266 . S
In260 O267 2.326 . S
In260 O268 2.266 . S
In260 O269 2.326 . S
In260 O271 2.294 . S
In260 O272 2.326 . S
O261 In260 2.294 . S
O261 C270 1.240 . S
O262 In260 2.326 . S
O262 C270 1.252 . S
C263 O266 1.252 . S
C263 O267 1.260 . S
C264 O271 1.240 . S
C264 O272 1.252 . S
C265 O268 1.252 . S
C265 O269 1.260 . S
O266 In260 2.266 . S
O266 C263 1.252 . S
O267 In260 2.326 . S
O267 C263 1.260 . S
O268 In260 2.266 . S
O268 C265 1.252 . S
O269 In260 2.326 . S
O269 C265 1.260 . S
C270 O261 1.240 . S
C270 O262 1.252 . S
O271 In260 2.294 . S
O271 C264 1.240 . S
O272 In260 2.326 . S
O272 C264 1.252 . S
In273 O274 2.294 . S
In273 O275 2.326 . S
In273 O279 2.266 . S
In273 O280 2.326 . S
In273 O281 2.266 . S
In273 O282 2.326 . S
In273 O284 2.294 . S
In273 O285 2.326 1_565 S
O274 In273 2.294 . S
O274 C283 1.240 . S
O275 In273 2.326 . S
O275 C283 1.252 . S
C276 O279 1.252 . S
C276 O280 1.260 . S
C277 O284 1.240 1_545 S
C277 O285 1.252 . S
C278 O281 1.252 . S
C278 O282 1.260 . S
O279 In273 2.266 . S
O279 C276 1.252 . S
O280 In273 2.326 . S
O280 C276 1.260 . S
O281 In273 2.266 . S
O281 C278 1.252 . S
O282 In273 2.326 . S
O282 C278 1.260 . S
C283 O274 1.240 . S
C283 O275 1.252 . S
O284 In273 2.294 . S
O284 C277 1.240 1_565 S
O285 In273 2.326 1_545 S
O285 C277 1.252 . S
In286 O287 2.294 . S
In286 O288 2.326 . S
In286 O292 2.266 . S
In286 O293 2.326 . S
In286 O294 2.266 . S
In286 O295 2.326 . S
In286 O297 2.294 . S
In286 O298 2.326 1_565 S
O287 In286 2.294 . S
O287 C296 1.240 . S
O288 In286 2.326 . S
O288 C296 1.252 . S
C289 O292 1.252 . S
C289 O293 1.260 . S
C290 O297 1.240 1_545 S
C290 O298 1.252 . S
C291 O294 1.252 . S
C291 O295 1.260 . S
O292 In286 2.266 . S
O292 C289 1.252 . S
O293 In286 2.326 . S
O293 C289 1.260 . S
O294 In286 2.266 . S
O294 C291 1.252 . S
O295 In286 2.326 . S
O295 C291 1.260 . S
C296 O287 1.240 . S
C296 O288 1.252 . S
O297 In286 2.294 . S
O297 C290 1.240 1_565 S
O298 In286 2.326 1_545 S
O298 C290 1.252 . S
In299 O300 2.294 . S
In299 O301 2.326 . S
In299 O305 2.266 . S
In299 O306 2.326 . S
In299 O307 2.266 . S
In299 O308 2.326 . S
In299 O310 2.294 . S
In299 O311 2.326 . S
O300 In299 2.294 . S
O300 C309 1.240 . S
O301 In299 2.326 . S
O301 C309 1.252 . S
C302 O305 1.252 . S
C302 O306 1.260 . S
C303 O310 1.240 . S
C303 O311 1.252 . S
C304 O307 1.252 . S
C304 O308 1.260 . S
O305 In299 2.266 . S
O305 C302 1.252 . S
O306 In299 2.326 . S
O306 C302 1.260 . S
O307 In299 2.266 . S
O307 C304 1.252 . S
O308 In299 2.326 . S
O308 C304 1.260 . S
C309 O300 1.240 . S
C309 O301 1.252 . S
O310 In299 2.294 . S
O310 C303 1.240 . S
O311 In299 2.326 . S
O311 C303 1.252 . S
In312 O313 2.294 . S
In312 O314 2.326 . S
In312 O318 2.266 . S
In312 O319 2.326 . S
In312 O320 2.266 . S
In312 O321 2.326 . S
In312 O323 2.294 . S
In312 O324 2.326 . S
O313 In312 2.294 . S
O313 C322 1.240 . S
O314 In312 2.326 . S
O314 C322 1.252 . S
C315 O318 1.252 . S
C315 O319 1.260 . S
C316 O323 1.240 . S
C316 O324 1.252 . S
C317 O320 1.252 . S
C317 O321 1.260 . S
O318 In312 2.266 . S
O318 C315 1.252 . S
O319 In312 2.326 . S
O319 C315 1.260 . S
O320 In312 2.266 . S
O320 C317 1.252 . S
O321 In312 2.326 . S
O321 C317 1.260 . S
C322 O313 1.240 . S
C322 O314 1.252 . S
O323 In312 2.294 . S
O323 C316 1.240 . S
O324 In312 2.326 . S
O324 C316 1.252 . S
In325 O326 2.294 . S
In325 O327 2.326 . S
In325 O331 2.266 . S
In325 O332 2.326 . S
In325 O333 2.266 . S
In325 O334 2.326 . S
In325 O336 2.294 . S
In325 O337 2.326 . S
O326 In325 2.294 . S
O326 C335 1.240 . S
O327 In325 2.326 . S
O327 C335 1.252 . S
C328 O331 1.252 . S
C328 O332 1.260 . S
C329 O336 1.240 . S
C329 O337 1.252 . S
C330 O333 1.252 . S
C330 O334 1.260 . S
O331 In325 2.266 . S
O331 C328 1.252 . S
O332 In325 2.326 . S
O332 C328 1.260 . S
O333 In325 2.266 . S
O333 C330 1.252 . S
O334 In325 2.326 . S
O334 C330 1.260 . S
C335 O326 1.240 . S
C335 O327 1.252 . S
O336 In325 2.294 . S
O336 C329 1.240 . S
O337 In325 2.326 . S
O337 C329 1.252 . S
In338 O339 2.294 . S
In338 O340 2.326 . S
In338 O344 2.266 . S
In338 O345 2.326 . S
In338 O346 2.266 . S
In338 O347 2.326 . S
In338 O349 2.294 . S
In338 O350 2.326 . S
O339 In338 2.294 . S
O339 C348 1.240 . S
O340 In338 2.326 . S
O340 C348 1.252 . S
C341 O344 1.252 . S
C341 O345 1.260 . S
C342 O349 1.240 . S
C342 O350 1.252 . S
C343 O346 1.252 . S
C343 O347 1.260 . S
O344 In338 2.266 . S
O344 C341 1.252 . S
O345 In338 2.326 . S
O345 C341 1.260 . S
O346 In338 2.266 . S
O346 C343 1.252 . S
O347 In338 2.326 . S
O347 C343 1.260 . S
C348 O339 1.240 . S
C348 O340 1.252 . S
O349 In338 2.294 . S
O349 C342 1.240 . S
O350 In338 2.326 . S
O350 C342 1.252 . S
In351 O352 2.294 . S
In351 O353 2.326 . S
In351 O357 2.266 . S
In351 O358 2.326 . S
In351 O359 2.266 . S
In351 O360 2.326 . S
In351 O362 2.294 . S
In351 O363 2.326 . S
O352 In351 2.294 . S
O352 C361 1.240 . S
O353 In351 2.326 . S
O353 C361 1.252 . S
C354 O357 1.252 . S
C354 O358 1.260 . S
C355 O362 1.240 . S
C355 O363 1.252 . S
C356 O359 1.252 . S
C356 O360 1.260 . S
O357 In351 2.266 . S
O357 C354 1.252 . S
O358 In351 2.326 . S
O358 C354 1.260 . S
O359 In351 2.266 . S
O359 C356 1.252 . S
O360 In351 2.326 . S
O360 C356 1.260 . S
C361 O352 1.240 . S
C361 O353 1.252 . S
O362 In351 2.294 . S
O362 C355 1.240 . S
O363 In351 2.326 . S
O363 C355 1.252 . S
In364 O365 2.294 . S
In364 O366 2.326 . S
In364 O370 2.266 . S
In364 O371 2.326 . S
In364 O372 2.266 . S
In364 O373 2.326 . S
In364 O375 2.294 . S
In364 O376 2.326 . S
O365 In364 2.294 . S
O365 C374 1.240 . S
O366 In364 2.326 . S
O366 C374 1.252 . S
C367 O370 1.252 . S
C367 O371 1.260 . S
C368 O375 1.240 . S
C368 O376 1.252 . S
C369 O372 1.252 . S
C369 O373 1.260 . S
O370 In364 2.266 . S
O370 C367 1.252 . S
O371 In364 2.326 . S
O371 C367 1.260 . S
O372 In364 2.266 . S
O372 C369 1.252 . S
O373 In364 2.326 . S
O373 C369 1.260 . S
C374 O365 1.240 . S
C374 O366 1.252 . S
O375 In364 2.294 . S
O375 C368 1.240 . S
O376 In364 2.326 . S
O376 C368 1.252 . S
In377 O378 2.294 . S
In377 O379 2.326 . S
In377 O383 2.266 . S
In377 O384 2.326 . S
In377 O385 2.266 . S
In377 O386 2.326 . S
In377 O388 2.294 . S
In377 O389 2.326 . S
O378 In377 2.294 . S
O378 C387 1.240 . S
O379 In377 2.326 . S
O379 C387 1.252 . S
C380 O383 1.252 . S
C380 O384 1.260 . S
C381 O388 1.240 . S
C381 O389 1.252 . S
C382 O385 1.252 . S
C382 O386 1.260 . S
O383 In377 2.266 . S
O383 C380 1.252 . S
O384 In377 2.326 . S
O384 C380 1.260 . S
O385 In377 2.266 . S
O385 C382 1.252 . S
O386 In377 2.326 . S
O386 C382 1.260 . S
C387 O378 1.240 . S
C387 O379 1.252 . S
O388 In377 2.294 . S
O388 C381 1.240 . S
O389 In377 2.326 . S
O389 C381 1.252 . S
In390 O391 2.294 . S
In390 O392 2.326 . S
In390 O396 2.266 . S
In390 O397 2.326 . S
In390 O398 2.266 . S
In390 O399 2.326 . S
In390 O401 2.294 . S
In390 O402 2.326 . S
O391 In390 2.294 . S
O391 C400 1.240 . S
O392 In390 2.326 . S
O392 C400 1.252 . S
C393 O396 1.252 . S
C393 O397 1.260 . S
C394 O401 1.240 . S
C394 O402 1.252 . S
C395 O398 1.252 . S
C395 O399 1.260 . S
O396 In390 2.266 . S
O396 C393 1.252 . S
O397 In390 2.326 . S
O397 C393 1.260 . S
O398 In390 2.266 . S
O398 C395 1.252 . S
O399 In390 2.326 . S
O399 C395 1.260 . S
C400 O391 1.240 . S
C400 O392 1.252 . S
O401 In390 2.294 . S
O401 C394 1.240 . S
O402 In390 2.326 . S
O402 C394 1.252 . S
In403 O404 2.294 . S
In403 O405 2.326 . S
In403 O409 2.266 . S
In403 O410 2.326 . S
In403 O411 2.266 . S
In403 O412 2.326 . S
In403 O414 2.294 . S
In403 O415 2.326 . S
O404 In403 2.294 . S
O404 C413 1.240 . S
O405 In403 2.326 . S
O405 C413 1.252 . S
C406 O409 1.252 . S
C406 O410 1.260 . S
C407 O414 1.240 . S
C407 O415 1.252 . S
C408 O411 1.252 . S
C408 O412 1.260 . S
O409 In403 2.266 . S
O409 C406 1.252 . S
O410 In403 2.326 . S
O410 C406 1.260 . S
O411 In403 2.266 . S
O411 C408 1.252 . S
O412 In403 2.326 . S
O412 C408 1.260 . S
C413 O404 1.240 . S
C413 O405 1.252 . S
O414 In403 2.294 . S
O414 C407 1.240 . S
O415 In403 2.326 . S
O415 C407 1.252 . S
C416 C417 1.369 . S
C416 C418 1.419 . S
C416 H420 0.930 . S
C417 C416 1.369 . S
C417 C426 1.429 . S
C418 C416 1.419 . S
C418 C419 1.363 . S
C418 H421 0.929 . S
C419 C418 1.363 . S
C419 C425 1.428 . S
H420 C416 0.930 . S
H421 C418 0.929 . S
S422 N423 1.613 . S
S422 N424 1.610 . S
N423 S422 1.613 . S
N423 C426 1.350 . S
N424 S422 1.610 . S
N424 C425 1.351 . S
C425 C419 1.428 . S
C425 N424 1.351 . S
C425 C426 1.434 . S
C426 C417 1.429 . S
C426 N423 1.350 . S
C426 C425 1.434 . S
C427 C428 1.369 . S
C427 C429 1.419 . S
C427 H431 0.930 . S
C428 C427 1.369 . S
C428 C437 1.429 . S
C429 C427 1.419 . S
C429 C430 1.363 . S
C429 H432 0.929 . S
C430 C429 1.363 . S
C430 C436 1.428 . S
H431 C427 0.930 . S
H432 C429 0.929 . S
S433 N434 1.613 . S
S433 N435 1.610 . S
N434 S433 1.613 . S
N434 C437 1.350 . S
N435 S433 1.610 . S
N435 C436 1.351 . S
C436 C430 1.428 . S
C436 N435 1.351 . S
C436 C437 1.434 . S
C437 C428 1.429 . S
C437 N434 1.350 . S
C437 C436 1.434 . S
C438 C439 1.369 . S
C438 C440 1.419 . S
C438 H442 0.930 . S
C439 C438 1.369 . S
C439 C448 1.429 . S
C440 C438 1.419 . S
C440 C441 1.363 . S
C440 H443 0.929 . S
C441 C440 1.363 . S
C441 C447 1.428 . S
H442 C438 0.930 . S
H443 C440 0.929 . S
S444 N445 1.613 1_545 S
S444 N446 1.610 1_545 S
N445 S444 1.613 1_565 S
N445 C448 1.350 . S
N446 S444 1.610 1_565 S
N446 C447 1.351 . S
C447 C441 1.428 . S
C447 N446 1.351 . S
C447 C448 1.434 . S
C448 C439 1.429 . S
C448 N445 1.350 . S
C448 C447 1.434 . S
C449 C450 1.369 . S
C449 C451 1.419 . S
C449 H453 0.930 . S
C450 C449 1.369 . S
C450 C459 1.429 . S
C451 C449 1.419 . S
C451 C452 1.363 . S
C451 H454 0.929 . S
C452 C451 1.363 . S
C452 C458 1.428 . S
H453 C449 0.930 . S
H454 C451 0.929 . S
S455 N456 1.613 1_545 S
S455 N457 1.610 1_545 S
N456 S455 1.613 1_565 S
N456 C459 1.350 . S
N457 S455 1.610 1_565 S
N457 C458 1.351 . S
C458 C452 1.428 . S
C458 N457 1.351 . S
C458 C459 1.434 . S
C459 C450 1.429 . S
C459 N456 1.350 . S
C459 C458 1.434 . S
C460 C461 1.369 . S
C460 C462 1.419 . S
C460 H464 0.930 . S
C461 C460 1.369 . S
C461 C470 1.429 . S
C462 C460 1.419 . S
C462 C463 1.363 . S
C462 H465 0.929 . S
C463 C462 1.363 . S
C463 C469 1.428 . S
H464 C460 0.930 . S
H465 C462 0.929 . S
S466 N467 1.613 . S
S466 N468 1.610 . S
N467 S466 1.613 . S
N467 C470 1.350 . S
N468 S466 1.610 . S
N468 C469 1.351 . S
C469 C463 1.428 . S
C469 N468 1.351 . S
C469 C470 1.434 . S
C470 C461 1.429 . S
C470 N467 1.350 . S
C470 C469 1.434 . S
C471 C472 1.369 . S
C471 C473 1.419 . S
C471 H475 0.930 . S
C472 C471 1.369 . S
C472 C481 1.429 . S
C473 C471 1.419 . S
C473 C474 1.363 . S
C473 H476 0.929 . S
C474 C473 1.363 . S
C474 C480 1.428 . S
H475 C471 0.930 . S
H476 C473 0.929 . S
S477 N478 1.613 . S
S477 N479 1.610 . S
N478 S477 1.613 . S
N478 C481 1.350 . S
N479 S477 1.610 . S
N479 C480 1.351 . S
C480 C474 1.428 . S
C480 N479 1.351 . S
C480 C481 1.434 . S
C481 C472 1.429 . S
C481 N478 1.350 . S
C481 C480 1.434 . S
C482 C483 1.369 . S
C482 C484 1.419 . S
C482 H486 0.930 . S
C483 C482 1.369 . S
C483 C492 1.429 . S
C484 C482 1.419 . S
C484 C485 1.363 . S
C484 H487 0.929 . S
C485 C484 1.363 . S
C485 C491 1.428 . S
H486 C482 0.930 . S
H487 C484 0.929 . S
S488 N489 1.613 . S
S488 N490 1.610 . S
N489 S488 1.613 . S
N489 C492 1.350 . S
N490 S488 1.610 . S
N490 C491 1.351 . S
C491 C485 1.428 . S
C491 N490 1.351 . S
C491 C492 1.434 . S
C492 C483 1.429 . S
C492 N489 1.350 . S
C492 C491 1.434 . S
C493 C494 1.369 . S
C493 C495 1.419 . S
C493 H497 0.930 . S
C494 C493 1.369 . S
C494 C503 1.429 . S
C495 C493 1.419 . S
C495 C496 1.363 . S
C495 H498 0.929 . S
C496 C495 1.363 . S
C496 C502 1.428 . S
H497 C493 0.930 . S
H498 C495 0.929 . S
S499 N500 1.613 . S
S499 N501 1.610 . S
N500 S499 1.613 . S
N500 C503 1.350 . S
N501 S499 1.610 . S
N501 C502 1.351 . S
C502 C496 1.428 . S
C502 N501 1.351 . S
C502 C503 1.434 . S
C503 C494 1.429 . S
C503 N500 1.350 . S
C503 C502 1.434 . S
C504 C505 1.369 . S
C504 C506 1.419 . S
C504 H508 0.930 . S
C505 C504 1.369 . S
C505 C514 1.429 . S
C506 C504 1.419 . S
C506 C507 1.363 . S
C506 H509 0.929 . S
C507 C506 1.363 . S
C507 C513 1.428 . S
H508 C504 0.930 . S
H509 C506 0.929 . S
S510 N511 1.613 . S
S510 N512 1.610 . S
N511 S510 1.613 . S
N511 C514 1.350 . S
N512 S510 1.610 . S
N512 C513 1.351 . S
C513 C507 1.428 . S
C513 N512 1.351 . S
C513 C514 1.434 . S
C514 C505 1.429 . S
C514 N511 1.350 . S
C514 C513 1.434 . S
C515 C516 1.369 . S
C515 C517 1.419 . S
C515 H519 0.930 . S
C516 C515 1.369 . S
C516 C525 1.429 . S
C517 C515 1.419 . S
C517 C518 1.363 . S
C517 H520 0.929 . S
C518 C517 1.363 . S
C518 C524 1.428 . S
H519 C515 0.930 . S
H520 C517 0.929 . S
S521 N522 1.613 . S
S521 N523 1.610 . S
N522 S521 1.613 . S
N522 C525 1.350 . S
N523 S521 1.610 . S
N523 C524 1.351 . S
C524 C518 1.428 . S
C524 N523 1.351 . S
C524 C525 1.434 . S
C525 C516 1.429 . S
C525 N522 1.350 . S
C525 C524 1.434 . S
C526 C527 1.369 . S
C526 C528 1.419 . S
C526 H530 0.930 . S
C527 C526 1.369 . S
C527 C536 1.429 . S
C528 C526 1.419 . S
C528 C529 1.363 . S
C528 H531 0.929 . S
C529 C528 1.363 . S
C529 C535 1.428 . S
H530 C526 0.930 . S
H531 C528 0.929 . S
S532 N533 1.613 1_545 S
S532 N534 1.610 1_545 S
N533 S532 1.613 1_565 S
N533 C536 1.350 . S
N534 S532 1.610 1_565 S
N534 C535 1.351 . S
C535 C529 1.428 . S
C535 N534 1.351 . S
C535 C536 1.434 . S
C536 C527 1.429 . S
C536 N533 1.350 . S
C536 C535 1.434 . S
C537 C538 1.369 . S
C537 C539 1.419 . S
C537 H541 0.930 . S
C538 C537 1.369 . S
C538 C547 1.429 . S
C539 C537 1.419 . S
C539 C540 1.363 . S
C539 H542 0.929 . S
C540 C539 1.363 . S
C540 C546 1.428 . S
H541 C537 0.930 . S
H542 C539 0.929 . S
S543 N544 1.613 . S
S543 N545 1.610 . S
N544 S543 1.613 . S
N544 C547 1.350 . S
N545 S543 1.610 . S
N545 C546 1.351 . S
C546 C540 1.428 . S
C546 N545 1.351 . S
C546 C547 1.434 . S
C547 C538 1.429 . S
C547 N544 1.350 . S
C547 C546 1.434 . S
C548 C549 1.369 . S
C548 C550 1.419 . S
C548 H552 0.930 . S
C549 C548 1.369 . S
C549 C558 1.429 . S
C550 C548 1.419 . S
C550 C551 1.363 . S
C550 H553 0.929 . S
C551 C550 1.363 . S
C551 C557 1.428 . S
H552 C548 0.930 . S
H553 C550 0.929 . S
S554 N555 1.613 . S
S554 N556 1.610 . S
N555 S554 1.613 . S
N555 C558 1.350 . S
N556 S554 1.610 . S
N556 C557 1.351 . S
C557 C551 1.428 . S
C557 N556 1.351 . S
C557 C558 1.434 . S
C558 C549 1.429 . S
C558 N555 1.350 . S
C558 C557 1.434 . S
C559 C560 1.369 . S
C559 C561 1.419 . S
C559 H563 0.930 . S
C560 C559 1.369 . S
C560 C569 1.429 . S
C561 C559 1.419 . S
C561 C562 1.363 . S
C561 H564 0.929 . S
C562 C561 1.363 . S
C562 C568 1.428 . S
H563 C559 0.930 . S
H564 C561 0.929 . S
S565 N566 1.613 . S
S565 N567 1.610 . S
N566 S565 1.613 . S
N566 C569 1.350 . S
N567 S565 1.610 . S
N567 C568 1.351 . S
C568 C562 1.428 . S
C568 N567 1.351 . S
C568 C569 1.434 . S
C569 C560 1.429 . S
C569 N566 1.350 . S
C569 C568 1.434 . S
C570 C571 1.369 . S
C570 C572 1.419 . S
C570 H574 0.930 . S
C571 C570 1.369 . S
C571 C580 1.429 . S
C572 C570 1.419 . S
C572 C573 1.363 . S
C572 H575 0.929 . S
C573 C572 1.363 . S
C573 C579 1.428 . S
H574 C570 0.930 . S
H575 C572 0.929 . S
S576 N577 1.613 . S
S576 N578 1.610 . S
N577 S576 1.613 . S
N577 C580 1.350 . S
N578 S576 1.610 . S
N578 C579 1.351 . S
C579 C573 1.428 . S
C579 N578 1.351 . S
C579 C580 1.434 . S
C580 C571 1.429 . S
C580 N577 1.350 . S
C580 C579 1.434 . S
C581 C582 1.369 . S
C581 C583 1.419 . S
C581 H585 0.930 . S
C582 C581 1.369 . S
C582 C591 1.429 . S
C583 C581 1.419 . S
C583 C584 1.363 . S
C583 H586 0.929 . S
C584 C583 1.363 . S
C584 C590 1.428 . S
H585 C581 0.930 . S
H586 C583 0.929 . S
S587 N588 1.613 . S
S587 N589 1.610 . S
N588 S587 1.613 . S
N588 C591 1.350 . S
N589 S587 1.610 . S
N589 C590 1.351 . S
C590 C584 1.428 . S
C590 N589 1.351 . S
C590 C591 1.434 . S
C591 C582 1.429 . S
C591 N588 1.350 . S
C591 C590 1.434 . S
C592 C593 1.344 1_655 S
C592 C594 1.441 . S
C592 H596 0.933 . S
C593 C592 1.344 1_455 S
C593 C602 1.429 . S
C594 C592 1.441 . S
C594 C595 1.363 . S
C594 H597 0.929 . S
C595 C594 1.363 . S
C595 C601 1.378 1_655 S
H596 C592 0.933 . S
H597 C594 0.929 . S
S598 N599 1.613 . S
S598 N600 1.610 . S
N599 S598 1.613 . S
N599 C602 1.350 . S
N600 S598 1.610 . S
N600 C601 1.362 . S
C601 C595 1.378 1_455 S
C601 N600 1.362 . S
C601 C602 1.481 . S
C602 C593 1.429 . S
C602 N599 1.350 . S
C602 C601 1.481 . S
C603 C604 1.369 1_565 S
C603 C605 1.419 . S
C603 H607 0.930 . S
C604 C603 1.369 1_545 S
C604 C613 1.429 . S
C605 C603 1.419 . S
C605 C606 1.363 . S
C605 H608 0.929 . S
C606 C605 1.363 . S
C606 C612 1.428 1_565 S
H607 C603 0.930 . S
H608 C605 0.929 . S
S609 N610 1.613 . S
S609 N611 1.610 . S
N610 S609 1.613 . S
N610 C613 1.350 . S
N611 S609 1.610 . S
N611 C612 1.351 . S
C612 C606 1.428 1_545 S
C612 N611 1.351 . S
C612 C613 1.434 . S
C613 C604 1.429 . S
C613 N610 1.350 . S
C613 C612 1.434 . S
C614 C615 1.369 1_565 S
C614 C616 1.419 1_556 S
C614 H618 0.930 . S
C615 C614 1.369 1_545 S
C615 C624 1.429 1_456 S
C616 C614 1.419 1_554 S
C616 C617 1.363 1_455 S
C616 H619 0.929 1_554 S
C617 C616 1.363 1_655 S
C617 C623 1.428 1_565 S
H618 C614 0.930 . S
H619 C616 0.929 1_556 S
S620 N621 1.613 . S
S620 N622 1.610 . S
N621 S620 1.613 . S
N621 C624 1.350 . S
N622 S620 1.610 . S
N622 C623 1.351 . S
C623 C617 1.428 1_545 S
C623 N622 1.351 . S
C623 C624 1.434 . S
C624 C615 1.429 1_654 S
C624 N621 1.350 . S
C624 C623 1.434 . S
C625 C626 1.369 1_554 S
C625 C627 1.419 . S
C625 H629 0.930 . S
C626 C625 1.369 1_556 S
C626 C635 1.429 . S
C627 C625 1.419 . S
C627 C628 1.363 . S
C627 H630 0.929 . S
C628 C627 1.363 . S
C628 C634 1.428 1_554 S
H629 C625 0.930 . S
H630 C627 0.929 . S
S631 N632 1.613 . S
S631 N633 1.610 . S
N632 S631 1.613 . S
N632 C635 1.350 . S
N633 S631 1.610 . S
N633 C634 1.351 . S
C634 C628 1.428 1_556 S
C634 N633 1.351 . S
C634 C635 1.434 . S
C635 C626 1.429 . S
C635 N632 1.350 . S
C635 C634 1.434 . S
C636 C637 1.369 . S
C636 C638 1.419 1_655 S
C636 H640 0.930 . S
C637 C636 1.369 . S
C637 C646 1.462 . S
C638 C636 1.419 1_455 S
C638 C639 1.363 . S
C638 H641 0.929 . S
C639 C638 1.363 . S
C639 C645 1.428 . S
H640 C636 0.930 . S
H641 C638 0.929 . S
S642 N643 1.651 . S
S642 N644 1.610 . S
N643 S642 1.651 . S
N643 C646 1.345 1_455 S
N644 S642 1.610 . S
N644 C645 1.351 . S
C645 C639 1.428 . S
C645 N644 1.351 . S
C645 C646 1.400 1_455 S
C646 C637 1.462 . S
C646 N643 1.345 1_655 S
C646 C645 1.400 1_655 S
C647 C648 1.369 1_565 S
C647 C649 1.419 . S
C647 H651 0.930 . S
C648 C647 1.369 1_545 S
C648 C657 1.429 . S
C649 C647 1.419 . S
C649 C650 1.363 . S
C649 H652 0.929 . S
C650 C649 1.363 . S
C650 C656 1.428 1_565 S
H651 C647 0.930 . S
H652 C649 0.929 . S
S653 N654 1.613 . S
S653 N655 1.610 . S
N654 S653 1.613 . S
N654 C657 1.350 . S
N655 S653 1.610 . S
N655 C656 1.351 . S
C656 C650 1.428 1_545 S
C656 N655 1.351 . S
C656 C657 1.434 . S
C657 C648 1.429 . S
C657 N654 1.350 . S
C657 C656 1.434 . S
C658 C659 1.369 . S
C658 C660 1.419 1_556 S
C658 H662 0.930 . S
C659 C658 1.369 . S
C659 C668 1.429 . S
C660 C658 1.419 1_554 S
C660 C661 1.363 . S
C660 H663 0.929 . S
C661 C660 1.363 . S
C661 C667 1.428 . S
H662 C658 0.930 . S
H663 C660 0.929 . S
S664 N665 1.612 . S
S664 N666 1.610 . S
N665 S664 1.612 . S
N665 C668 1.350 1_554 S
N666 S664 1.610 . S
N666 C667 1.351 . S
C667 C661 1.428 . S
C667 N666 1.351 . S
C667 C668 1.434 1_554 S
C668 C659 1.429 . S
C668 N665 1.350 1_556 S
C668 C667 1.434 1_556 S
C669 C670 1.369 . S
C669 C671 1.419 . S
C669 H673 0.930 . S
C670 C669 1.369 . S
C670 C679 1.429 . S
C671 C669 1.419 . S
C671 C672 1.363 . S
C671 H674 0.929 . S
C672 C671 1.363 . S
C672 C678 1.428 . S
H673 C669 0.930 . S
H674 C671 0.929 . S
S675 N676 1.613 . S
S675 N677 1.610 . S
N676 S675 1.613 . S
N676 C679 1.350 . S
N677 S675 1.610 . S
N677 C678 1.351 . S
C678 C672 1.428 . S
C678 N677 1.351 . S
C678 C679 1.434 . S
C679 C670 1.429 . S
C679 N676 1.350 . S
C679 C678 1.434 . S
C680 C681 1.369 . S
C680 C682 1.419 1_455 S
C680 H684 0.930 . S
C681 C680 1.369 . S
C681 C690 1.429 . S
C682 C680 1.419 1_655 S
C682 C683 1.363 . S
C682 H685 0.929 . S
C683 C682 1.363 . S
C683 C689 1.428 . S
H684 C680 0.930 . S
H685 C682 0.929 . S
S686 N687 1.613 . S
S686 N688 1.610 1_455 S
N687 S686 1.613 . S
N687 C690 1.350 . S
N688 S686 1.610 1_655 S
N688 C689 1.351 . S
C689 C683 1.428 . S
C689 N688 1.351 . S
C689 C690 1.434 1_655 S
C690 C681 1.429 . S
C690 N687 1.350 . S
C690 C689 1.434 1_455 S
C691 C692 1.369 . S
C691 C693 1.419 . S
C691 H695 0.930 . S
C692 C691 1.369 . S
C692 C701 1.429 . S
C693 C691 1.419 . S
C693 C694 1.363 . S
C693 H696 0.929 . S
C694 C693 1.363 . S
C694 C700 1.428 . S
H695 C691 0.930 . S
H696 C693 0.929 . S
S697 N698 1.613 . S
S697 N699 1.610 . S
N698 S697 1.613 . S
N698 C701 1.350 . S
N699 S697 1.610 . S
N699 C700 1.351 . S
C700 C694 1.428 . S
C700 N699 1.351 . S
C700 C701 1.434 . S
C701 C692 1.429 . S
C701 N698 1.350 . S
C701 C700 1.434 . S
C702 C703 1.369 . S
C702 C704 1.419 . S
C702 H706 0.930 . S
C703 C702 1.369 . S
C703 C712 1.429 . S
C704 C702 1.419 . S
C704 C705 1.363 . S
C704 H707 0.929 . S
C705 C704 1.363 . S
C705 C711 1.428 . S
H706 C702 0.930 . S
H707 C704 0.929 . S
S708 N709 1.613 . S
S708 N710 1.610 . S
N709 S708 1.613 . S
N709 C712 1.350 . S
N710 S708 1.610 . S
N710 C711 1.351 . S
C711 C705 1.428 . S
C711 N710 1.351 . S
C711 C712 1.434 . S
C712 C703 1.429 . S
C712 N709 1.350 . S
C712 C711 1.434 . S
C713 C714 1.369 . S
C713 C715 1.419 . S
C713 H717 0.930 . S
C714 C713 1.369 . S
C714 C723 1.429 . S
C715 C713 1.419 . S
C715 C716 1.363 . S
C715 H718 0.929 . S
C716 C715 1.363 . S
C716 C722 1.428 . S
H717 C713 0.930 . S
H718 C715 0.929 . S
S719 N720 1.613 . S
S719 N721 1.610 . S
N720 S719 1.613 . S
N720 C723 1.350 . S
N721 S719 1.610 . S
N721 C722 1.351 . S
C722 C716 1.428 . S
C722 N721 1.351 . S
C722 C723 1.434 . S
C723 C714 1.429 . S
C723 N720 1.350 . S
C723 C722 1.434 . S
C724 C725 1.369 . S
C724 C726 1.419 . S
C724 H728 0.930 . S
C725 C724 1.369 . S
C725 C734 1.429 . S
C726 C724 1.419 . S
C726 C727 1.363 . S
C726 H729 0.929 . S
C727 C726 1.363 . S
C727 C733 1.428 . S
H728 C724 0.930 . S
H729 C726 0.929 . S
S730 N731 1.613 . S
S730 N732 1.610 . S
N731 S730 1.613 . S
N731 C734 1.350 . S
N732 S730 1.610 . S
N732 C733 1.351 . S
C733 C727 1.428 . S
C733 N732 1.351 . S
C733 C734 1.434 . S
C734 C725 1.429 . S
C734 N731 1.350 . S
C734 C733 1.434 . S
C735 C736 1.369 1_545 S
C735 C737 1.419 . S
C735 H739 0.930 . S
C736 C735 1.369 1_565 S
C736 C745 1.429 . S
C737 C735 1.419 . S
C737 C738 1.363 . S
C737 H740 0.929 . S
C738 C737 1.363 . S
C738 C744 1.428 1_545 S
H739 C735 0.930 . S
H740 C737 0.929 . S
S741 N742 1.613 . S
S741 N743 1.610 . S
N742 S741 1.613 . S
N742 C745 1.350 . S
N743 S741 1.610 . S
N743 C744 1.351 . S
C744 C738 1.428 1_565 S
C744 N743 1.351 . S
C744 C745 1.434 . S
C745 C736 1.429 . S
C745 N742 1.350 . S
C745 C744 1.434 . S
C746 C747 1.369 . S
C746 C748 1.419 . S
C746 H750 0.930 . S
C747 C746 1.369 . S
C747 C756 1.429 . S
C748 C746 1.419 . S
C748 C749 1.363 . S
C748 H751 0.929 . S
C749 C748 1.363 . S
C749 C755 1.428 . S
H750 C746 0.930 . S
H751 C748 0.929 . S
S752 N753 1.613 . S
S752 N754 1.610 . S
N753 S752 1.613 . S
N753 C756 1.350 . S
N754 S752 1.610 . S
N754 C755 1.351 . S
C755 C749 1.428 . S
C755 N754 1.351 . S
C755 C756 1.434 . S
C756 C747 1.429 . S
C756 N753 1.350 . S
C756 C755 1.434 . S
C757 C758 1.369 1_556 S
C757 C759 1.419 . S
C757 H761 0.930 . S
C758 C757 1.369 1_554 S
C758 C767 1.429 . S
C759 C757 1.419 . S
C759 C760 1.363 . S
C759 H762 0.929 . S
C760 C759 1.363 . S
C760 C766 1.428 1_556 S
H761 C757 0.930 . S
H762 C759 0.929 . S
S763 N764 1.613 . S
S763 N765 1.610 . S
N764 S763 1.613 . S
N764 C767 1.350 . S
N765 S763 1.610 . S
N765 C766 1.351 . S
C766 C760 1.428 1_554 S
C766 N765 1.351 . S
C766 C767 1.434 . S
C767 C758 1.429 . S
C767 N764 1.350 . S
C767 C766 1.434 . S
C768 C769 1.369 . S
C768 C770 1.419 . S
C768 H772 0.930 . S
C769 C768 1.369 . S
C769 C778 1.429 . S
C770 C768 1.419 . S
C770 C771 1.363 . S
C770 H773 0.929 . S
C771 C770 1.363 . S
C771 C777 1.428 . S
H772 C768 0.930 . S
H773 C770 0.929 . S
S774 N775 1.613 . S
S774 N776 1.610 . S
N775 S774 1.613 . S
N775 C778 1.350 . S
N776 S774 1.610 . S
N776 C777 1.351 . S
C777 C771 1.428 . S
C777 N776 1.351 . S
C777 C778 1.434 . S
C778 C769 1.429 . S
C778 N775 1.350 . S
C778 C777 1.434 . S
C779 C780 1.369 . S
C779 C781 1.419 . S
C779 H783 0.930 . S
C780 C779 1.369 . S
C780 C789 1.429 . S
C781 C779 1.419 . S
C781 C782 1.363 . S
C781 H784 0.929 . S
C782 C781 1.363 . S
C782 C788 1.428 . S
H783 C779 0.930 . S
H784 C781 0.929 . S
S785 N786 1.613 . S
S785 N787 1.610 . S
N786 S785 1.613 . S
N786 C789 1.350 . S
N787 S785 1.610 . S
N787 C788 1.351 . S
C788 C782 1.428 . S
C788 N787 1.351 . S
C788 C789 1.434 . S
C789 C780 1.429 . S
C789 N786 1.350 . S
C789 C788 1.434 . S
C790 C791 1.369 . S
C790 C792 1.419 . S
C790 H794 0.930 . S
C791 C790 1.369 . S
C791 C800 1.429 . S
C792 C790 1.419 . S
C792 C793 1.363 . S
C792 H795 0.929 . S
C793 C792 1.363 . S
C793 C799 1.428 . S
H794 C790 0.930 . S
H795 C792 0.929 . S
S796 N797 1.613 . S
S796 N798 1.610 . S
N797 S796 1.613 . S
N797 C800 1.350 . S
N798 S796 1.610 . S
N798 C799 1.351 . S
C799 C793 1.428 . S
C799 N798 1.351 . S
C799 C800 1.434 . S
C800 C791 1.429 . S
C800 N797 1.350 . S
C800 C799 1.434 . S
C801 C802 1.369 . S
C801 C803 1.419 . S
C801 H805 0.930 . S
C802 C801 1.369 . S
C802 C811 1.429 . S
C803 C801 1.419 . S
C803 C804 1.363 . S
C803 H806 0.929 . S
C804 C803 1.363 . S
C804 C810 1.428 . S
H805 C801 0.930 . S
H806 C803 0.929 . S
S807 N808 1.613 . S
S807 N809 1.610 . S
N808 S807 1.613 . S
N808 C811 1.350 . S
N809 S807 1.610 . S
N809 C810 1.351 . S
C810 C804 1.428 . S
C810 N809 1.351 . S
C810 C811 1.434 . S
C811 C802 1.429 . S
C811 N808 1.350 . S
C811 C810 1.434 . S
C812 C813 1.369 . S
C812 C814 1.419 . S
C812 H816 0.930 . S
C813 C812 1.369 . S
C813 C822 1.429 . S
C814 C812 1.419 . S
C814 C815 1.363 . S
C814 H817 0.929 . S
C815 C814 1.363 . S
C815 C821 1.428 . S
H816 C812 0.930 . S
H817 C814 0.929 . S
S818 N819 1.613 . S
S818 N820 1.610 . S
N819 S818 1.613 . S
N819 C822 1.350 . S
N820 S818 1.610 . S
N820 C821 1.351 . S
C821 C815 1.428 . S
C821 N820 1.351 . S
C821 C822 1.434 . S
C822 C813 1.429 . S
C822 N819 1.350 . S
C822 C821 1.434 . S
C823 C824 1.369 . S
C823 C825 1.419 . S
C823 H827 0.930 . S
C824 C823 1.369 . S
C824 C833 1.429 . S
C825 C823 1.419 . S
C825 C826 1.363 . S
C825 H828 0.929 . S
C826 C825 1.363 . S
C826 C832 1.428 . S
H827 C823 0.930 . S
H828 C825 0.929 . S
S829 N830 1.613 . S
S829 N831 1.610 . S
N830 S829 1.613 . S
N830 C833 1.350 . S
N831 S829 1.610 . S
N831 C832 1.351 . S
C832 C826 1.428 . S
C832 N831 1.351 . S
C832 C833 1.434 . S
C833 C824 1.429 . S
C833 N830 1.350 . S
C833 C832 1.434 . S
C834 C835 1.369 . S
C834 C836 1.419 . S
C834 H838 0.930 . S
C835 C834 1.369 . S
C835 C844 1.429 . S
C836 C834 1.419 . S
C836 C837 1.363 . S
C836 H839 0.929 . S
C837 C836 1.363 . S
C837 C843 1.428 . S
H838 C834 0.930 . S
H839 C836 0.929 . S
S840 N841 1.613 . S
S840 N842 1.610 . S
N841 S840 1.613 . S
N841 C844 1.350 . S
N842 S840 1.610 . S
N842 C843 1.351 . S
C843 C837 1.428 . S
C843 N842 1.351 . S
C843 C844 1.434 . S
C844 C835 1.429 . S
C844 N841 1.350 . S
C844 C843 1.434 . S
C845 C846 1.369 . S
C845 C847 1.419 . S
C845 H849 0.930 . S
C846 C845 1.369 . S
C846 C855 1.429 . S
C847 C845 1.419 . S
C847 C848 1.363 . S
C847 H850 0.929 . S
C848 C847 1.363 . S
C848 C854 1.428 . S
H849 C845 0.930 . S
H850 C847 0.929 . S
S851 N852 1.613 . S
S851 N853 1.610 . S
N852 S851 1.613 . S
N852 C855 1.350 . S
N853 S851 1.610 . S
N853 C854 1.351 . S
C854 C848 1.428 . S
C854 N853 1.351 . S
C854 C855 1.434 . S
C855 C846 1.429 . S
C855 N852 1.350 . S
C855 C854 1.434 . S
C856 C857 1.369 . S
C856 C858 1.419 . S
C856 H860 0.930 . S
C857 C856 1.369 . S
C857 C866 1.429 . S
C858 C856 1.419 . S
C858 C859 1.363 . S
C858 H861 0.929 . S
C859 C858 1.363 . S
C859 C865 1.428 . S
H860 C856 0.930 . S
H861 C858 0.929 . S
S862 N863 1.613 . S
S862 N864 1.610 . S
N863 S862 1.613 . S
N863 C866 1.350 . S
N864 S862 1.610 . S
N864 C865 1.351 . S
C865 C859 1.428 . S
C865 N864 1.351 . S
C865 C866 1.434 . S
C866 C857 1.429 . S
C866 N863 1.350 . S
C866 C865 1.434 . S
C867 C868 1.369 . S
C867 C869 1.419 . S
C867 H871 0.930 . S
C868 C867 1.369 . S
C868 C877 1.429 . S
C869 C867 1.419 . S
C869 C870 1.363 . S
C869 H872 0.929 . S
C870 C869 1.363 . S
C870 C876 1.428 . S
H871 C867 0.930 . S
H872 C869 0.929 . S
S873 N874 1.613 . S
S873 N875 1.610 . S
N874 S873 1.613 . S
N874 C877 1.350 . S
N875 S873 1.610 . S
N875 C876 1.351 . S
C876 C870 1.428 . S
C876 N875 1.351 . S
C876 C877 1.434 . S
C877 C868 1.429 . S
C877 N874 1.350 . S
C877 C876 1.434 . S
C878 C879 1.369 . S
C878 C880 1.419 . S
C878 H882 0.930 . S
C879 C878 1.369 . S
C879 C888 1.429 . S
C880 C878 1.419 . S
C880 C881 1.363 . S
C880 H883 0.929 . S
C881 C880 1.363 . S
C881 C887 1.428 . S
H882 C878 0.930 . S
H883 C880 0.929 . S
S884 N885 1.613 . S
S884 N886 1.610 . S
N885 S884 1.613 . S
N885 C888 1.350 . S
N886 S884 1.610 . S
N886 C887 1.351 . S
C887 C881 1.428 . S
C887 N886 1.351 . S
C887 C888 1.434 . S
C888 C879 1.429 . S
C888 N885 1.350 . S
C888 C887 1.434 . S
C889 C890 1.369 . S
C889 C891 1.419 . S
C889 H893 0.930 . S
C890 C889 1.369 . S
C890 C899 1.429 . S
C891 C889 1.419 . S
C891 C892 1.363 . S
C891 H894 0.929 . S
C892 C891 1.363 . S
C892 C898 1.428 . S
H893 C889 0.930 . S
H894 C891 0.929 . S
S895 N896 1.613 . S
S895 N897 1.610 . S
N896 S895 1.613 . S
N896 C899 1.350 . S
N897 S895 1.610 . S
N897 C898 1.351 . S
C898 C892 1.428 . S
C898 N897 1.351 . S
C898 C899 1.434 . S
C899 C890 1.429 . S
C899 N896 1.350 . S
C899 C898 1.434 . S
C900 C901 1.369 . S
C900 C902 1.419 . S
C900 H904 0.930 . S
C901 C900 1.369 . S
C901 C910 1.429 . S
C902 C900 1.419 . S
C902 C903 1.363 . S
C902 H905 0.929 . S
C903 C902 1.363 . S
C903 C909 1.428 . S
H904 C900 0.930 . S
H905 C902 0.929 . S
S906 N907 1.613 . S
S906 N908 1.610 . S
N907 S906 1.613 . S
N907 C910 1.350 . S
N908 S906 1.610 . S
N908 C909 1.351 . S
C909 C903 1.428 . S
C909 N908 1.351 . S
C909 C910 1.434 . S
C910 C901 1.429 . S
C910 N907 1.350 . S
C910 C909 1.434 . S
C911 C912 1.369 . S
C911 C913 1.419 . S
C911 H915 0.930 . S
C912 C911 1.369 . S
C912 C921 1.429 . S
C913 C911 1.419 . S
C913 C914 1.363 . S
C913 H916 0.929 . S
C914 C913 1.363 . S
C914 C920 1.428 . S
H915 C911 0.930 . S
H916 C913 0.929 . S
S917 N918 1.613 . S
S917 N919 1.610 . S
N918 S917 1.613 . S
N918 C921 1.350 . S
N919 S917 1.610 . S
N919 C920 1.351 . S
C920 C914 1.428 . S
C920 N919 1.351 . S
C920 C921 1.434 . S
C921 C912 1.429 . S
C921 N918 1.350 . S
C921 C920 1.434 . S
C922 C923 1.369 . S
C922 C924 1.419 . S
C922 H926 0.930 . S
C923 C922 1.369 . S
C923 C932 1.429 . S
C924 C922 1.419 . S
C924 C925 1.363 . S
C924 H927 0.929 . S
C925 C924 1.363 . S
C925 C931 1.428 . S
H926 C922 0.930 . S
H927 C924 0.929 . S
S928 N929 1.613 . S
S928 N930 1.610 . S
N929 S928 1.613 . S
N929 C932 1.350 . S
N930 S928 1.610 . S
N930 C931 1.351 . S
C931 C925 1.428 . S
C931 N930 1.351 . S
C931 C932 1.434 . S
C932 C923 1.429 . S
C932 N929 1.350 . S
C932 C931 1.434 . S
C933 C934 1.369 . S
C933 C935 1.419 . S
C933 H937 0.930 . S
C934 C933 1.369 . S
C934 C943 1.429 . S
C935 C933 1.419 . S
C935 C936 1.363 . S
C935 H938 0.929 . S
C936 C935 1.363 . S
C936 C942 1.428 . S
H937 C933 0.930 . S
H938 C935 0.929 . S
S939 N940 1.613 . S
S939 N941 1.610 . S
N940 S939 1.613 . S
N940 C943 1.350 . S
N941 S939 1.610 . S
N941 C942 1.351 . S
C942 C936 1.428 . S
C942 N941 1.351 . S
C942 C943 1.434 . S
C943 C934 1.429 . S
C943 N940 1.350 . S
C943 C942 1.434 . S
C944 C945 1.369 . S
C944 C946 1.419 . S
C944 H948 0.930 . S
C945 C944 1.369 . S
C945 C954 1.429 . S
C946 C944 1.419 . S
C946 C947 1.363 . S
C946 H949 0.929 . S
C947 C946 1.363 . S
C947 C953 1.428 . S
H948 C944 0.930 . S
H949 C946 0.929 . S
S950 N951 1.613 . S
S950 N952 1.610 . S
N951 S950 1.613 . S
N951 C954 1.350 . S
N952 S950 1.610 . S
N952 C953 1.351 . S
C953 C947 1.428 . S
C953 N952 1.351 . S
C953 C954 1.434 . S
C954 C945 1.429 . S
C954 N951 1.350 . S
C954 C953 1.434 . S
C955 C956 1.369 . S
C955 C957 1.419 . S
C955 H959 0.930 . S
C956 C955 1.369 . S
C956 C965 1.429 . S
C957 C955 1.419 . S
C957 C958 1.363 . S
C957 H960 0.929 . S
C958 C957 1.363 . S
C958 C964 1.428 . S
H959 C955 0.930 . S
H960 C957 0.929 . S
S961 N962 1.613 . S
S961 N963 1.610 . S
N962 S961 1.613 . S
N962 C965 1.350 . S
N963 S961 1.610 . S
N963 C964 1.351 . S
C964 C958 1.428 . S
C964 N963 1.351 . S
C964 C965 1.434 . S
C965 C956 1.429 . S
C965 N962 1.350 . S
C965 C964 1.434 . S
C966 C967 1.369 . S
C966 C968 1.419 . S
C966 H970 0.930 . S
C967 C966 1.369 . S
C967 C976 1.429 . S
C968 C966 1.419 . S
C968 C969 1.363 . S
C968 H971 0.929 . S
C969 C968 1.363 . S
C969 C975 1.428 . S
H970 C966 0.930 . S
H971 C968 0.929 . S
S972 N973 1.613 . S
S972 N974 1.610 . S
N973 S972 1.613 . S
N973 C976 1.350 . S
N974 S972 1.610 . S
N974 C975 1.351 . S
C975 C969 1.428 . S
C975 N974 1.351 . S
C975 C976 1.434 . S
C976 C967 1.429 . S
C976 N973 1.350 . S
C976 C975 1.434 . S
C977 C978 1.369 . S
C977 C979 1.419 . S
C977 H981 0.930 . S
C978 C977 1.369 . S
C978 C987 1.429 . S
C979 C977 1.419 . S
C979 C980 1.363 . S
C979 H982 0.929 . S
C980 C979 1.363 . S
C980 C986 1.428 . S
H981 C977 0.930 . S
H982 C979 0.929 . S
S983 N984 1.613 . S
S983 N985 1.610 . S
N984 S983 1.613 . S
N984 C987 1.350 . S
N985 S983 1.610 . S
N985 C986 1.351 . S
C986 C980 1.428 . S
C986 N985 1.351 . S
C986 C987 1.434 . S
C987 C978 1.429 . S
C987 N984 1.350 . S
C987 C986 1.434 . S
C988 C989 1.369 . S
C988 C990 1.419 . S
C988 H992 0.930 . S
C989 C988 1.369 . S
C989 C998 1.429 . S
C990 C988 1.419 . S
C990 C991 1.363 . S
C990 H993 0.929 . S
C991 C990 1.363 . S
C991 C997 1.428 . S
H992 C988 0.930 . S
H993 C990 0.929 . S
S994 N995 1.613 . S
S994 N996 1.610 . S
N995 S994 1.613 . S
N995 C998 1.350 . S
N996 S994 1.610 . S
N996 C997 1.351 . S
C997 C991 1.428 . S
C997 N996 1.351 . S
C997 C998 1.434 . S
C998 C989 1.429 . S
C998 N995 1.350 . S
C998 C997 1.434 . S
C999 C1000 1.369 . S
C999 C1001 1.419 . S
C999 H1003 0.930 . S
C1000 C999 1.369 . S
C1000 C1009 1.429 . S
C1001 C999 1.419 . S
C1001 C1002 1.363 . S
C1001 H1004 0.929 . S
C1002 C1001 1.363 . S
C1002 C1008 1.428 . S
H1003 C999 0.930 . S
H1004 C1001 0.929 . S
S1005 N1006 1.613 . S
S1005 N1007 1.610 . S
N1006 S1005 1.613 . S
N1006 C1009 1.350 . S
N1007 S1005 1.610 . S
N1007 C1008 1.351 . S
C1008 C1002 1.428 . S
C1008 N1007 1.351 . S
C1008 C1009 1.434 . S
C1009 C1000 1.429 . S
C1009 N1006 1.350 . S
C1009 C1008 1.434 . S
C1010 C1011 1.369 . S
C1010 C1012 1.419 . S
C1010 H1014 0.930 . S
C1011 C1010 1.369 . S
C1011 C1020 1.429 . S
C1012 C1010 1.419 . S
C1012 C1013 1.363 . S
C1012 H1015 0.929 . S
C1013 C1012 1.363 . S
C1013 C1019 1.428 . S
H1014 C1010 0.930 . S
H1015 C1012 0.929 . S
S1016 N1017 1.613 . S
S1016 N1018 1.610 . S
N1017 S1016 1.613 . S
N1017 C1020 1.350 . S
N1018 S1016 1.610 . S
N1018 C1019 1.351 . S
C1019 C1013 1.428 . S
C1019 N1018 1.351 . S
C1019 C1020 1.434 . S
C1020 C1011 1.429 . S
C1020 N1017 1.350 . S
C1020 C1019 1.434 . S
C1021 C1022 1.369 . S
C1021 C1023 1.419 . S
C1021 H1025 0.930 . S
C1022 C1021 1.369 . S
C1022 C1031 1.429 . S
C1023 C1021 1.419 . S
C1023 C1024 1.363 . S
C1023 H1026 0.929 . S
C1024 C1023 1.363 . S
C1024 C1030 1.428 . S
H1025 C1021 0.930 . S
H1026 C1023 0.929 . S
S1027 N1028 1.613 . S
S1027 N1029 1.610 . S
N1028 S1027 1.613 . S
N1028 C1031 1.350 . S
N1029 S1027 1.610 . S
N1029 C1030 1.351 . S
C1030 C1024 1.428 . S
C1030 N1029 1.351 . S
C1030 C1031 1.434 . S
C1031 C1022 1.429 . S
C1031 N1028 1.350 . S
C1031 C1030 1.434 . S
C1032 C1033 1.369 . S
C1032 C1034 1.419 . S
C1032 H1036 0.930 . S
C1033 C1032 1.369 . S
C1033 C1042 1.429 . S
C1034 C1032 1.419 . S
C1034 C1035 1.363 . S
C1034 H1037 0.929 . S
C1035 C1034 1.363 . S
C1035 C1041 1.428 . S
H1036 C1032 0.930 . S
H1037 C1034 0.929 . S
S1038 N1039 1.613 . S
S1038 N1040 1.610 . S
N1039 S1038 1.613 . S
N1039 C1042 1.350 . S
N1040 S1038 1.610 . S
N1040 C1041 1.351 . S
C1041 C1035 1.428 . S
C1041 N1040 1.351 . S
C1041 C1042 1.434 . S
C1042 C1033 1.429 . S
C1042 N1039 1.350 . S
C1042 C1041 1.434 . S
C1043 C1044 1.369 . S
C1043 C1045 1.419 . S
C1043 H1047 0.930 . S
C1044 C1043 1.369 . S
C1044 C1053 1.429 . S
C1045 C1043 1.419 . S
C1045 C1046 1.363 . S
C1045 H1048 0.929 . S
C1046 C1045 1.363 . S
C1046 C1052 1.428 . S
H1047 C1043 0.930 . S
H1048 C1045 0.929 . S
S1049 N1050 1.613 . S
S1049 N1051 1.610 . S
N1050 S1049 1.613 . S
N1050 C1053 1.350 . S
N1051 S1049 1.610 . S
N1051 C1052 1.351 . S
C1052 C1046 1.428 . S
C1052 N1051 1.351 . S
C1052 C1053 1.434 . S
C1053 C1044 1.429 . S
C1053 N1050 1.350 . S
C1053 C1052 1.434 . S
C1054 C1055 1.369 . S
C1054 C1056 1.419 . S
C1054 H1058 0.930 . S
C1055 C1054 1.369 . S
C1055 C1064 1.429 . S
C1056 C1054 1.419 . S
C1056 C1057 1.363 . S
C1056 H1059 0.929 . S
C1057 C1056 1.363 . S
C1057 C1063 1.428 . S
H1058 C1054 0.930 . S
H1059 C1056 0.929 . S
S1060 N1061 1.613 . S
S1060 N1062 1.610 . S
N1061 S1060 1.613 . S
N1061 C1064 1.350 . S
N1062 S1060 1.610 . S
N1062 C1063 1.351 . S
C1063 C1057 1.428 . S
C1063 N1062 1.351 . S
C1063 C1064 1.434 . S
C1064 C1055 1.429 . S
C1064 N1061 1.350 . S
C1064 C1063 1.434 . S
C1065 C1066 1.369 . S
C1065 C1067 1.419 . S
C1065 H1069 0.930 . S
C1066 C1065 1.369 . S
C1066 C1075 1.429 . S
C1067 C1065 1.419 . S
C1067 C1068 1.363 . S
C1067 H1070 0.929 . S
C1068 C1067 1.363 . S
C1068 C1074 1.428 . S
H1069 C1065 0.930 . S
H1070 C1067 0.929 . S
S1071 N1072 1.613 . S
S1071 N1073 1.610 . S
N1072 S1071 1.613 . S
N1072 C1075 1.350 . S
N1073 S1071 1.610 . S
N1073 C1074 1.351 . S
C1074 C1068 1.428 . S
C1074 N1073 1.351 . S
C1074 C1075 1.434 . S
C1075 C1066 1.429 . S
C1075 N1072 1.350 . S
C1075 C1074 1.434 . S
C1076 C1077 1.369 . S
C1076 C1078 1.419 . S
C1076 H1080 0.930 . S
C1077 C1076 1.369 . S
C1077 C1086 1.429 . S
C1078 C1076 1.419 . S
C1078 C1079 1.363 . S
C1078 H1081 0.929 . S
C1079 C1078 1.363 . S
C1079 C1085 1.428 . S
H1080 C1076 0.930 . S
H1081 C1078 0.929 . S
S1082 N1083 1.613 . S
S1082 N1084 1.610 . S
N1083 S1082 1.613 . S
N1083 C1086 1.350 . S
N1084 S1082 1.610 . S
N1084 C1085 1.351 . S
C1085 C1079 1.428 . S
C1085 N1084 1.351 . S
C1085 C1086 1.434 . S
C1086 C1077 1.429 . S
C1086 N1083 1.350 . S
C1086 C1085 1.434 . S
C1087 C1088 1.369 . S
C1087 C1089 1.419 . S
C1087 H1091 0.930 . S
C1088 C1087 1.369 . S
C1088 C1097 1.429 . S
C1089 C1087 1.419 . S
C1089 C1090 1.363 . S
C1089 H1092 0.929 . S
C1090 C1089 1.363 . S
C1090 C1096 1.428 . S
H1091 C1087 0.930 . S
H1092 C1089 0.929 . S
S1093 N1094 1.613 . S
S1093 N1095 1.610 . S
N1094 S1093 1.613 . S
N1094 C1097 1.350 . S
N1095 S1093 1.610 . S
N1095 C1096 1.351 . S
C1096 C1090 1.428 . S
C1096 N1095 1.351 . S
C1096 C1097 1.434 . S
C1097 C1088 1.429 . S
C1097 N1094 1.350 . S
C1097 C1096 1.434 . S
C1098 C1099 1.369 . S
C1098 C1100 1.419 . S
C1098 H1102 0.930 . S
C1099 C1098 1.369 . S
C1099 C1108 1.429 . S
C1100 C1098 1.419 . S
C1100 C1101 1.363 . S
C1100 H1103 0.929 . S
C1101 C1100 1.363 . S
C1101 C1107 1.428 . S
H1102 C1098 0.930 . S
H1103 C1100 0.929 . S
S1104 N1105 1.613 . S
S1104 N1106 1.610 . S
N1105 S1104 1.613 . S
N1105 C1108 1.350 . S
N1106 S1104 1.610 . S
N1106 C1107 1.351 . S
C1107 C1101 1.428 . S
C1107 N1106 1.351 . S
C1107 C1108 1.434 . S
C1108 C1099 1.429 . S
C1108 N1105 1.350 . S
C1108 C1107 1.434 . S
C1109 C1110 1.369 . S
C1109 C1111 1.419 . S
C1109 H1113 0.930 . S
C1110 C1109 1.369 . S
C1110 C1119 1.429 . S
C1111 C1109 1.419 . S
C1111 C1112 1.363 . S
C1111 H1114 0.929 . S
C1112 C1111 1.363 . S
C1112 C1118 1.428 . S
H1113 C1109 0.930 . S
H1114 C1111 0.929 . S
S1115 N1116 1.613 . S
S1115 N1117 1.610 . S
N1116 S1115 1.613 . S
N1116 C1119 1.350 . S
N1117 S1115 1.610 . S
N1117 C1118 1.351 . S
C1118 C1112 1.428 . S
C1118 N1117 1.351 . S
C1118 C1119 1.434 . S
C1119 C1110 1.429 . S
C1119 N1116 1.350 . S
C1119 C1118 1.434 . S
C417 C5 1.505 . S
C419 C16 1.504 . S
C428 C42 1.505 . S
C430 C31 1.504 . S
C439 C57 1.508 . S
C441 C68 1.506 . S
C450 C83 1.503 . S
C452 C94 1.506 . S
C461 C109 1.508 . S
C463 C122 1.504 . S
C472 C133 1.505 . S
C474 C146 1.504 . S
C483 C159 1.509 . S
C485 C172 1.505 . S
C494 C185 1.508 . S
C496 C198 1.506 . S
C505 C226 1.503 . S
C507 C211 1.507 . S
C516 C250 1.503 . S
C518 C239 1.506 . S
C527 C276 1.503 . S
C529 C263 1.506 . S
C538 C304 1.504 . S
C540 C289 1.505 . S
C549 C330 1.504 . S
C551 C315 1.508 . S
C560 C356 1.508 . S
C562 C341 1.504 . S
C571 C382 1.505 . S
C573 C367 1.508 . S
C582 C406 1.503 . S
C584 C393 1.507 . S
C593 C4 1.487 . S
C595 C166 1.495 . S
C604 C23 1.496 . S
C606 C283 1.489 . S
C615 C30 1.497 . S
C617 C82 1.489 . S
C626 C49 1.490 . S
C628 C413 1.494 . S
C637 C56 1.496 . S
C639 C108 1.489 . S
C648 C225 1.496 . S
C650 C75 1.489 . S
C659 C355 1.496 . S
C661 C101 1.489 . S
C670 C121 1.496 . S
C672 C381 1.489 . S
C681 C140 1.494 . S
C683 C192 1.490 . S
C692 C153 1.497 . S
C694 C303 1.489 . S
C703 C179 1.489 . S
C705 C329 1.494 . S
C714 C205 1.489 . S
C716 C257 1.494 . S
C725 C374 1.490 . S
C727 C218 1.493 . S
C736 C296 1.492 . S
C738 C238 1.492 . S
C747 C270 1.495 . S
C749 C322 1.490 . S
C758 C400 1.490 . S
C760 C348 1.494 . S
C769 C134 1.006 . S
C771 C10 1.003 . S
C780 C147 1.003 . S
C782 C17 1.006 . S
C791 C36 1.006 . S
C793 C114 1.003 . S
C802 C127 1.003 . S
C804 C43 1.005 . S
C813 C62 1.002 . S
C815 C186 1.006 . S
C824 C69 1.002 . S
C826 C199 1.005 . S
C835 C160 1.006 . S
C837 C88 1.004 . S
C846 C173 1.004 . S
C848 C95 1.006 . S
C857 C212 1.003 . S
C859 C342 1.004 . S
C868 C361 1.005 . S
C870 C231 1.003 . S
C879 C316 1.003 . S
C881 C244 1.006 . S
C890 C251 1.006 . S
C892 C335 1.003 . S
C901 C394 1.003 . S
C903 C264 1.006 . S
C912 C277 1.006 . S
C914 C407 1.003 . S
C923 C368 1.002 . S
C925 C290 1.005 . S
C934 C387 1.002 . S
C936 C309 1.005 . S
C945 C135 1.690 . S
C947 C3 1.689 1_565 S
C956 C148 1.689 . S
C958 C18 1.690 . S
C967 C107 1.689 . S
C969 C29 1.690 . S
C978 C44 1.689 1_565 S
C980 C120 1.690 . S
C989 C187 1.690 . S
C991 C55 1.690 1_545 S
C1000 C200 1.689 . S
C1002 C70 1.690 . S
C1011 C161 1.690 . S
C1013 C81 1.688 . S
C1022 C174 1.690 . S
C1024 C96 1.689 1_545 S
C1033 C343 1.690 . S
C1035 C213 1.689 1_565 S
C1044 C354 1.690 . S
C1046 C224 1.689 . S
C1055 C317 1.689 . S
C1057 C237 1.690 . S
C1066 C252 1.688 1_565 S
C1068 C328 1.690 . S
C1077 C395 1.690 . S
C1079 C265 1.689 1_545 S
C1088 C278 1.690 . S
C1090 C408 1.689 . S
C1099 C369 1.690 . S
C1101 C291 1.689 . S
C1110 C302 1.689 1_545 S
C1112 C380 1.690 . S
