# Generated by pormake.
# Topology bcu-l, (5)-cn, num edge types: 1
# Building blocks:
#     Node 0, Type 0, BuildingBlock: XOMCOT_clean_sbu_1, # of connection points: 5
#     Node 1, Type 0, BuildingBlock: XOMCOT_clean_sbu_1, # of connection points: 5
#     Node 2, Type 0, BuildingBlock: XOMCOT_clean_sbu_1, # of connection points: 5
#     Node 3, Type 0, BuildingBlock: XOMCOT_clean_sbu_1, # of connection points: 5
#     Node 4, Type 0, BuildingBlock: XOMCOT_clean_sbu_1, # of connection points: 5
#     Node 5, Type 0, BuildingBlock: XOMCOT_clean_sbu_1, # of connection points: 5
#     Node 6, Type 0, BuildingBlock: XOMCOT_clean_sbu_1, # of connection points: 5
#     Node 7, Type 0, BuildingBlock: XOMCOT_clean_sbu_1, # of connection points: 5
#     Node 8, Type 0, BuildingBlock: XOMCOT_clean_sbu_1, # of connection points: 5
#     Node 9, Type 0, BuildingBlock: XOMCOT_clean_sbu_1, # of connection points: 5
#     Node 10, Type 0, BuildingBlock: XOMCOT_clean_sbu_1, # of connection points: 5
#     Node 11, Type 0, BuildingBlock: XOMCOT_clean_sbu_1, # of connection points: 5
#     Node 12, Type 0, BuildingBlock: XOMCOT_clean_sbu_1, # of connection points: 5
#     Node 13, Type 0, BuildingBlock: XOMCOT_clean_sbu_1, # of connection points: 5
#     Node 14, Type 0, BuildingBlock: XOMCOT_clean_sbu_1, # of connection points: 5
#     Node 15, Type 0, BuildingBlock: XOMCOT_clean_sbu_1, # of connection points: 5
#     Node 16, Type 0, BuildingBlock: XOMCOT_clean_sbu_1, # of connection points: 5
#     Node 17, Type 0, BuildingBlock: XOMCOT_clean_sbu_1, # of connection points: 5
#     Node 18, Type 0, BuildingBlock: XOMCOT_clean_sbu_1, # of connection points: 5
#     Node 19, Type 0, BuildingBlock: XOMCOT_clean_sbu_1, # of connection points: 5
#     Node 20, Type 0, BuildingBlock: XOMCOT_clean_sbu_1, # of connection points: 5
#     Node 21, Type 0, BuildingBlock: XOMCOT_clean_sbu_1, # of connection points: 5
#     Node 22, Type 0, BuildingBlock: XOMCOT_clean_sbu_1, # of connection points: 5
#     Node 23, Type 0, BuildingBlock: XOMCOT_clean_sbu_1, # of connection points: 5
#     Node 24, Type 0, BuildingBlock: XOMCOT_clean_sbu_1, # of connection points: 5
#     Node 25, Type 0, BuildingBlock: XOMCOT_clean_sbu_1, # of connection points: 5
#     Node 26, Type 0, BuildingBlock: XOMCOT_clean_sbu_1, # of connection points: 5
#     Node 27, Type 0, BuildingBlock: XOMCOT_clean_sbu_1, # of connection points: 5
#     Node 28, Type 0, BuildingBlock: XOMCOT_clean_sbu_1, # of connection points: 5
#     Node 29, Type 0, BuildingBlock: XOMCOT_clean_sbu_1, # of connection points: 5
#     Node 30, Type 0, BuildingBlock: XOMCOT_clean_sbu_1, # of connection points: 5
#     Node 31, Type 0, BuildingBlock: XOMCOT_clean_sbu_1, # of connection points: 5
#     Node 32, Type 0, BuildingBlock: XOMCOT_clean_sbu_1, # of connection points: 5
#     Node 33, Type 0, BuildingBlock: XOMCOT_clean_sbu_1, # of connection points: 5
#     Node 34, Type 0, BuildingBlock: XOMCOT_clean_sbu_1, # of connection points: 5
#     Node 35, Type 0, BuildingBlock: XOMCOT_clean_sbu_1, # of connection points: 5
#     Node 36, Type 0, BuildingBlock: XOMCOT_clean_sbu_1, # of connection points: 5
#     Node 37, Type 0, BuildingBlock: XOMCOT_clean_sbu_1, # of connection points: 5
#     Node 38, Type 0, BuildingBlock: XOMCOT_clean_sbu_1, # of connection points: 5
#     Node 39, Type 0, BuildingBlock: XOMCOT_clean_sbu_1, # of connection points: 5
#     Node 40, Type 0, BuildingBlock: XOMCOT_clean_sbu_1, # of connection points: 5
#     Node 41, Type 0, BuildingBlock: XOMCOT_clean_sbu_1, # of connection points: 5
#     Node 42, Type 0, BuildingBlock: XOMCOT_clean_sbu_1, # of connection points: 5
#     Node 43, Type 0, BuildingBlock: XOMCOT_clean_sbu_1, # of connection points: 5
#     Node 44, Type 0, BuildingBlock: XOMCOT_clean_sbu_1, # of connection points: 5
#     Node 45, Type 0, BuildingBlock: XOMCOT_clean_sbu_1, # of connection points: 5
#     Node 46, Type 0, BuildingBlock: XOMCOT_clean_sbu_1, # of connection points: 5
#     Node 47, Type 0, BuildingBlock: XOMCOT_clean_sbu_1, # of connection points: 5
#     Edge 48, Type (0, 0), BuildingBlock: CIFDUS_clean_linker_0, # of connection points: 2
#     Edge 49, Type (0, 0), BuildingBlock: CIFDUS_clean_linker_0, # of connection points: 2
#     Edge 50, Type (0, 0), BuildingBlock: CIFDUS_clean_linker_0, # of connection points: 2
#     Edge 51, Type (0, 0), BuildingBlock: CIFDUS_clean_linker_0, # of connection points: 2
#     Edge 52, Type (0, 0), BuildingBlock: CIFDUS_clean_linker_0, # of connection points: 2
#     Edge 53, Type (0, 0), BuildingBlock: CIFDUS_clean_linker_0, # of connection points: 2
#     Edge 54, Type (0, 0), BuildingBlock: CIFDUS_clean_linker_0, # of connection points: 2
#     Edge 55, Type (0, 0), BuildingBlock: CIFDUS_clean_linker_0, # of connection points: 2
#     Edge 56, Type (0, 0), BuildingBlock: CIFDUS_clean_linker_0, # of connection points: 2
#     Edge 57, Type (0, 0), BuildingBlock: CIFDUS_clean_linker_0, # of connection points: 2
#     Edge 58, Type (0, 0), BuildingBlock: CIFDUS_clean_linker_0, # of connection points: 2
#     Edge 59, Type (0, 0), BuildingBlock: CIFDUS_clean_linker_0, # of connection points: 2
#     Edge 60, Type (0, 0), BuildingBlock: CIFDUS_clean_linker_0, # of connection points: 2
#     Edge 61, Type (0, 0), BuildingBlock: CIFDUS_clean_linker_0, # of connection points: 2
#     Edge 62, Type (0, 0), BuildingBlock: CIFDUS_clean_linker_0, # of connection points: 2
#     Edge 63, Type (0, 0), BuildingBlock: CIFDUS_clean_linker_0, # of connection points: 2
#     Edge 64, Type (0, 0), BuildingBlock: CIFDUS_clean_linker_0, # of connection points: 2
#     Edge 65, Type (0, 0), BuildingBlock: CIFDUS_clean_linker_0, # of connection points: 2
#     Edge 66, Type (0, 0), BuildingBlock: CIFDUS_clean_linker_0, # of connection points: 2
#     Edge 67, Type (0, 0), BuildingBlock: CIFDUS_clean_linker_0, # of connection points: 2
#     Edge 68, Type (0, 0), BuildingBlock: CIFDUS_clean_linker_0, # of connection points: 2
#     Edge 69, Type (0, 0), BuildingBlock: CIFDUS_clean_linker_0, # of connection points: 2
#     Edge 70, Type (0, 0), BuildingBlock: CIFDUS_clean_linker_0, # of connection points: 2
#     Edge 71, Type (0, 0), BuildingBlock: CIFDUS_clean_linker_0, # of connection points: 2
#     Edge 72, Type (0, 0), BuildingBlock: CIFDUS_clean_linker_0, # of connection points: 2
#     Edge 73, Type (0, 0), BuildingBlock: CIFDUS_clean_linker_0, # of connection points: 2
#     Edge 74, Type (0, 0), BuildingBlock: CIFDUS_clean_linker_0, # of connection points: 2
#     Edge 75, Type (0, 0), BuildingBlock: CIFDUS_clean_linker_0, # of connection points: 2
#     Edge 76, Type (0, 0), BuildingBlock: CIFDUS_clean_linker_0, # of connection points: 2
#     Edge 77, Type (0, 0), BuildingBlock: CIFDUS_clean_linker_0, # of connection points: 2
#     Edge 78, Type (0, 0), BuildingBlock: CIFDUS_clean_linker_0, # of connection points: 2
#     Edge 79, Type (0, 0), BuildingBlock: CIFDUS_clean_linker_0, # of connection points: 2
#     Edge 80, Type (0, 0), BuildingBlock: CIFDUS_clean_linker_0, # of connection points: 2
#     Edge 81, Type (0, 0), BuildingBlock: CIFDUS_clean_linker_0, # of connection points: 2
#     Edge 82, Type (0, 0), BuildingBlock: CIFDUS_clean_linker_0, # of connection points: 2
#     Edge 83, Type (0, 0), BuildingBlock: CIFDUS_clean_linker_0, # of connection points: 2
#     Edge 84, Type (0, 0), BuildingBlock: CIFDUS_clean_linker_0, # of connection points: 2
#     Edge 85, Type (0, 0), BuildingBlock: CIFDUS_clean_linker_0, # of connection points: 2
#     Edge 86, Type (0, 0), BuildingBlock: CIFDUS_clean_linker_0, # of connection points: 2
#     Edge 87, Type (0, 0), BuildingBlock: CIFDUS_clean_linker_0, # of connection points: 2
#     Edge 88, Type (0, 0), BuildingBlock: CIFDUS_clean_linker_0, # of connection points: 2
#     Edge 89, Type (0, 0), BuildingBlock: CIFDUS_clean_linker_0, # of connection points: 2
#     Edge 90, Type (0, 0), BuildingBlock: CIFDUS_clean_linker_0, # of connection points: 2
#     Edge 91, Type (0, 0), BuildingBlock: CIFDUS_clean_linker_0, # of connection points: 2
#     Edge 92, Type (0, 0), BuildingBlock: CIFDUS_clean_linker_0, # of connection points: 2
#     Edge 93, Type (0, 0), BuildingBlock: CIFDUS_clean_linker_0, # of connection points: 2
#     Edge 94, Type (0, 0), BuildingBlock: CIFDUS_clean_linker_0, # of connection points: 2
#     Edge 95, Type (0, 0), BuildingBlock: CIFDUS_clean_linker_0, # of connection points: 2
#     Edge 96, Type (0, 0), BuildingBlock: CIFDUS_clean_linker_0, # of connection points: 2
#     Edge 97, Type (0, 0), BuildingBlock: CIFDUS_clean_linker_0, # of connection points: 2
#     Edge 98, Type (0, 0), BuildingBlock: CIFDUS_clean_linker_0, # of connection points: 2
#     Edge 99, Type (0, 0), BuildingBlock: CIFDUS_clean_linker_0, # of connection points: 2
#     Edge 100, Type (0, 0), BuildingBlock: CIFDUS_clean_linker_0, # of connection points: 2
#     Edge 101, Type (0, 0), BuildingBlock: CIFDUS_clean_linker_0, # of connection points: 2
#     Edge 102, Type (0, 0), BuildingBlock: CIFDUS_clean_linker_0, # of connection points: 2
#     Edge 103, Type (0, 0), BuildingBlock: CIFDUS_clean_linker_0, # of connection points: 2
#     Edge 104, Type (0, 0), BuildingBlock: CIFDUS_clean_linker_0, # of connection points: 2
#     Edge 105, Type (0, 0), BuildingBlock: CIFDUS_clean_linker_0, # of connection points: 2
#     Edge 106, Type (0, 0), BuildingBlock: CIFDUS_clean_linker_0, # of connection points: 2
#     Edge 107, Type (0, 0), BuildingBlock: CIFDUS_clean_linker_0, # of connection points: 2
#     Edge 108, Type (0, 0), BuildingBlock: CIFDUS_clean_linker_0, # of connection points: 2
#     Edge 109, Type (0, 0), BuildingBlock: CIFDUS_clean_linker_0, # of connection points: 2
#     Edge 110, Type (0, 0), BuildingBlock: CIFDUS_clean_linker_0, # of connection points: 2
#     Edge 111, Type (0, 0), BuildingBlock: CIFDUS_clean_linker_0, # of connection points: 2
#     Edge 112, Type (0, 0), BuildingBlock: CIFDUS_clean_linker_0, # of connection points: 2
#     Edge 113, Type (0, 0), BuildingBlock: CIFDUS_clean_linker_0, # of connection points: 2
#     Edge 114, Type (0, 0), BuildingBlock: CIFDUS_clean_linker_0, # of connection points: 2
#     Edge 115, Type (0, 0), BuildingBlock: CIFDUS_clean_linker_0, # of connection points: 2
#     Edge 116, Type (0, 0), BuildingBlock: CIFDUS_clean_linker_0, # of connection points: 2
#     Edge 117, Type (0, 0), BuildingBlock: CIFDUS_clean_linker_0, # of connection points: 2
#     Edge 118, Type (0, 0), BuildingBlock: CIFDUS_clean_linker_0, # of connection points: 2
#     Edge 119, Type (0, 0), BuildingBlock: CIFDUS_clean_linker_0, # of connection points: 2
#     Edge 120, Type (0, 0), BuildingBlock: CIFDUS_clean_linker_0, # of connection points: 2
#     Edge 121, Type (0, 0), BuildingBlock: CIFDUS_clean_linker_0, # of connection points: 2
#     Edge 122, Type (0, 0), BuildingBlock: CIFDUS_clean_linker_0, # of connection points: 2
#     Edge 123, Type (0, 0), BuildingBlock: CIFDUS_clean_linker_0, # of connection points: 2
#     Edge 124, Type (0, 0), BuildingBlock: CIFDUS_clean_linker_0, # of connection points: 2
#     Edge 125, Type (0, 0), BuildingBlock: CIFDUS_clean_linker_0, # of connection points: 2
#     Edge 126, Type (0, 0), BuildingBlock: CIFDUS_clean_linker_0, # of connection points: 2
#     Edge 127, Type (0, 0), BuildingBlock: CIFDUS_clean_linker_0, # of connection points: 2
#     Edge 128, Type (0, 0), BuildingBlock: CIFDUS_clean_linker_0, # of connection points: 2
#     Edge 129, Type (0, 0), BuildingBlock: CIFDUS_clean_linker_0, # of connection points: 2
#     Edge 130, Type (0, 0), BuildingBlock: CIFDUS_clean_linker_0, # of connection points: 2
#     Edge 131, Type (0, 0), BuildingBlock: CIFDUS_clean_linker_0, # of connection points: 2
#     Edge 132, Type (0, 0), BuildingBlock: CIFDUS_clean_linker_0, # of connection points: 2
#     Edge 133, Type (0, 0), BuildingBlock: CIFDUS_clean_linker_0, # of connection points: 2
#     Edge 134, Type (0, 0), BuildingBlock: CIFDUS_clean_linker_0, # of connection points: 2
#     Edge 135, Type (0, 0), BuildingBlock: CIFDUS_clean_linker_0, # of connection points: 2
#     Edge 136, Type (0, 0), BuildingBlock: CIFDUS_clean_linker_0, # of connection points: 2
#     Edge 137, Type (0, 0), BuildingBlock: CIFDUS_clean_linker_0, # of connection points: 2
#     Edge 138, Type (0, 0), BuildingBlock: CIFDUS_clean_linker_0, # of connection points: 2
#     Edge 139, Type (0, 0), BuildingBlock: CIFDUS_clean_linker_0, # of connection points: 2
#     Edge 140, Type (0, 0), BuildingBlock: CIFDUS_clean_linker_0, # of connection points: 2
#     Edge 141, Type (0, 0), BuildingBlock: CIFDUS_clean_linker_0, # of connection points: 2
#     Edge 142, Type (0, 0), BuildingBlock: CIFDUS_clean_linker_0, # of connection points: 2
#     Edge 143, Type (0, 0), BuildingBlock: CIFDUS_clean_linker_0, # of connection points: 2
#     Edge 144, Type (0, 0), BuildingBlock: CIFDUS_clean_linker_0, # of connection points: 2
#     Edge 145, Type (0, 0), BuildingBlock: CIFDUS_clean_linker_0, # of connection points: 2
#     Edge 146, Type (0, 0), BuildingBlock: CIFDUS_clean_linker_0, # of connection points: 2
#     Edge 147, Type (0, 0), BuildingBlock: CIFDUS_clean_linker_0, # of connection points: 2
#     Edge 148, Type (0, 0), BuildingBlock: CIFDUS_clean_linker_0, # of connection points: 2
#     Edge 149, Type (0, 0), BuildingBlock: CIFDUS_clean_linker_0, # of connection points: 2
#     Edge 150, Type (0, 0), BuildingBlock: CIFDUS_clean_linker_0, # of connection points: 2
#     Edge 151, Type (0, 0), BuildingBlock: CIFDUS_clean_linker_0, # of connection points: 2
#     Edge 152, Type (0, 0), BuildingBlock: CIFDUS_clean_linker_0, # of connection points: 2
#     Edge 153, Type (0, 0), BuildingBlock: CIFDUS_clean_linker_0, # of connection points: 2
#     Edge 154, Type (0, 0), BuildingBlock: CIFDUS_clean_linker_0, # of connection points: 2
#     Edge 155, Type (0, 0), BuildingBlock: CIFDUS_clean_linker_0, # of connection points: 2
#     Edge 156, Type (0, 0), BuildingBlock: CIFDUS_clean_linker_0, # of connection points: 2
#     Edge 157, Type (0, 0), BuildingBlock: CIFDUS_clean_linker_0, # of connection points: 2
#     Edge 158, Type (0, 0), BuildingBlock: CIFDUS_clean_linker_0, # of connection points: 2
#     Edge 159, Type (0, 0), BuildingBlock: CIFDUS_clean_linker_0, # of connection points: 2
#     Edge 160, Type (0, 0), BuildingBlock: CIFDUS_clean_linker_0, # of connection points: 2
#     Edge 161, Type (0, 0), BuildingBlock: CIFDUS_clean_linker_0, # of connection points: 2
#     Edge 162, Type (0, 0), BuildingBlock: CIFDUS_clean_linker_0, # of connection points: 2
#     Edge 163, Type (0, 0), BuildingBlock: CIFDUS_clean_linker_0, # of connection points: 2
#     Edge 164, Type (0, 0), BuildingBlock: CIFDUS_clean_linker_0, # of connection points: 2
#     Edge 165, Type (0, 0), BuildingBlock: CIFDUS_clean_linker_0, # of connection points: 2
#     Edge 166, Type (0, 0), BuildingBlock: CIFDUS_clean_linker_0, # of connection points: 2
#     Edge 167, Type (0, 0), BuildingBlock: CIFDUS_clean_linker_0, # of connection points: 2
# Relax obj value: 0.217
# Max RMSD: 0.199
# Mean RMSD: 0.199
data_MOF--net-bcu-l--node1-XOMCOT_clean_sbu_1--edge1-CIFDUS_clean_linker_0
_symmetry_space_group_name_H-M    P1
_symmetry_Int_Tables_number       1
_symmetry_cell_setting            triclinic
loop_
_symmetry_equiv_pos_as_xyz
'x, y, z'
_cell_length_a     59.263237
_cell_length_b     59.228172
_cell_length_c     59.259508
_cell_angle_alpha  90.014953
_cell_angle_beta   90.023152
_cell_angle_gamma 89.990562
loop_
_atom_site_label
_atom_site_type_symbol
_atom_site_fract_x
_atom_site_fract_y
_atom_site_fract_z
_atom_type_partial_charge
C0 C 0.99327 0.207 0.38839 0.0
C1 C 0.97567 0.22126 0.39373 0.0
N2 N 0.98166 0.23341 0.41199 0.0
N3 N 1.01018 0.2101 0.40329 0.0
C4 C 1.00255 0.22621 0.41749 0.0
H5 H 0.99382 0.19529 0.3744 0.0
Co6 Co 0.03794 0.19535 0.4031 0.0
C7 C 0.06071 0.21164 0.44625 0.0
O8 O 0.06765 0.19122 0.45144 0.0
N9 N 0.0665 0.17994 0.40288 0.0
C10 C 0.10373 0.17443 0.40244 0.0
C11 C 0.08671 0.19008 0.4002 0.0
C12 C 0.07192 0.15786 0.4067 0.0
N13 N 0.09454 0.15404 0.40665 0.0
O14 O 0.02456 0.17235 0.42223 0.0
H15 H 0.08909 0.20795 0.39733 0.0
H16 H 0.05964 0.14485 0.4102 0.0
O17 O 0.04854 0.21442 0.42865 0.0
C18 C 0.01605 0.15753 0.40891 0.0
O19 O 0.02136 0.15852 0.38741 0.0
N20 N 0.04805 0.21711 0.38195 0.0
C21 C 0.0417 0.25005 0.34854 0.0
C22 C 0.04856 0.25605 0.37044 0.0
C23 C 0.05159 0.23939 0.38693 0.0
C24 C 0.04375 0.21077 0.36024 0.0
C25 C 0.04049 0.22696 0.34325 0.0
H26 H 0.05486 0.24484 0.40395 0.0
H27 H 0.04035 0.1932 0.35658 0.0
H28 H 0.01197 0.23251 0.43177 0.0
H29 H 0.95992 0.22288 0.38461 0.0
H30 H 0.1216 0.17792 0.40103 0.0
H31 H 0.05024 0.27363 0.37521 0.0
H32 H 0.0352 0.22143 0.32666 0.0
C33 C 0.8415 1.00134 0.37224 0.0
C34 C 0.82727 0.98354 0.37706 0.0
N35 N 0.81967 0.98612 0.39836 0.0
N36 N 0.84246 0.01512 0.39032 0.0
C37 C 0.82939 1.00516 0.40598 0.0
H38 H 0.85003 1.00437 0.3564 0.0
Co39 Co 0.85674 0.04271 0.39355 0.0
C40 C 0.83287 0.06147 0.43615 0.0
O41 O 0.8511 0.06959 0.4458 0.0
N42 N 0.87153 0.07109 0.39721 0.0
C43 C 0.8765 0.10823 0.40037 0.0
C44 C 0.86131 0.09136 0.39549 0.0
C45 C 0.89312 0.07624 0.40322 0.0
N46 N 0.89662 0.09882 0.40538 0.0
O47 O 0.87691 0.02805 0.41479 0.0
H48 H 0.84372 0.09382 0.39133 0.0
H49 H 0.90595 0.06372 0.40655 0.0
O50 O 0.83451 0.05135 0.41713 0.0
C51 C 0.89348 0.01906 0.40413 0.0
O52 O 0.89715 0.02557 0.38326 0.0
N53 N 0.83754 0.05427 0.37048 0.0
C54 C 0.80906 0.0502 0.33282 0.0
C55 C 0.8002 0.05399 0.35443 0.0
C56 C 0.81466 0.0561 0.37299 0.0
C57 C 0.84658 0.05286 0.34934 0.0
C58 C 0.83263 0.05087 0.33023 0.0
H59 H 0.80706 0.0572 0.3894 0.0
H60 H 0.86462 0.0508 0.34746 0.0
H61 H 0.82632 0.0122 0.42249 0.0
H62 H 0.82259 0.97006 0.36566 0.0
H63 H 0.8729 0.12613 0.40008 0.0
H64 H 0.78213 0.05412 0.35718 0.0
H65 H 0.84026 0.04803 0.31387 0.0
C66 C 0.05296 0.84032 0.37755 0.0
C67 C 0.07028 0.82578 0.3826 0.0
N68 N 0.06534 0.81536 0.4022 0.0
N69 N 0.03714 0.83903 0.3938 0.0
C70 C 0.04515 0.82377 0.40868 0.0
H71 H 0.05188 0.85118 0.36291 0.0
Co72 Co 1.01082 0.85573 0.39303 0.0
C73 C 0.97772 0.83196 0.42368 0.0
O74 O 0.96186 0.83755 0.40933 0.0
N75 N 0.98399 0.87436 0.39159 0.0
C76 C 0.95124 0.89021 0.38129 0.0
C77 C 0.96578 0.87232 0.37792 0.0
C78 C 0.98006 0.89413 0.40274 0.0
N79 N 0.96031 0.904 0.39683 0.0
O80 O 0.02603 0.87814 0.41185 0.0
H81 H 0.96307 0.85881 0.36599 0.0
H82 H 0.99164 0.90164 0.41466 0.0
O83 O 0.99821 0.83834 0.41999 0.0
C84 C 0.03538 0.89309 0.39927 0.0
O85 O 0.03078 0.89292 0.37759 0.0
N86 N 0.99942 0.83409 0.37212 0.0
C87 C 1.00724 0.80134 0.33862 0.0
C88 C 1.00177 0.79508 0.36079 0.0
C89 C 0.99819 0.8116 0.37729 0.0
C90 C 1.00253 0.84048 0.35017 0.0
C91 C 1.00637 0.82439 0.33313 0.0
H92 H 0.99751 0.80595 0.3945 0.0
H93 H 1.00472 0.85819 0.34627 0.0
H94 H 0.03624 0.81865 0.42375 0.0
H95 H 0.08548 0.82334 0.37278 0.0
H96 H 0.93576 0.89345 0.37214 0.0
H97 H 1.00204 0.77751 0.36585 0.0
H98 H 1.01068 0.83011 0.31633 0.0
C99 C 0.20381 0.05822 0.37967 0.0
C100 C 0.21726 0.07631 0.38513 0.0
N101 N 0.22906 0.07104 0.40385 0.0
N102 N 0.20714 0.0416 0.3948 0.0
C103 C 0.22247 0.04993 0.40947 0.0
H104 H 0.19247 0.05708 0.36541 0.0
Co105 Co 0.19295 0.01383 0.39271 0.0
C106 C 0.22138 0.98191 0.42056 0.0
O107 O 0.21803 0.96689 0.40468 0.0
N108 N 0.17696 0.98527 0.39006 0.0
C109 C 0.16568 0.95118 0.37832 0.0
C110 C 0.18112 0.96821 0.3754 0.0
C111 C 0.15825 0.97798 0.40144 0.0
N112 N 0.15115 0.95727 0.3946 0.0
O113 O 0.16942 0.02608 0.41215 0.0
H114 H 0.19488 0.96754 0.36352 0.0
H115 H 0.15 0.98751 0.41464 0.0
O116 O 0.2118 1.00144 0.41888 0.0
C117 C 0.15345 0.03393 0.39979 0.0
O118 O 0.15325 0.02845 0.37831 0.0
N119 N 0.21544 1.00551 0.37125 0.0
C120 C 0.24801 1.00814 0.3368 0.0
C121 C 0.25436 1.00699 0.35955 0.0
C122 C 0.23792 1.00634 0.37641 0.0
C123 C 0.2089 1.00669 0.34915 0.0
C124 C 0.22488 1.00782 0.33166 0.0
H125 H 0.24346 1.00887 0.3935 0.0
H126 H 0.19114 1.00796 0.34512 0.0
H127 H 0.22922 0.04048 0.42355 0.0
H128 H 0.21822 0.09212 0.37603 0.0
H129 H 0.16504 0.9355 0.36895 0.0
H130 H 0.27193 1.00829 0.36444 0.0
H131 H 0.21916 1.00907 0.31435 0.0
C132 C 0.98778 0.83408 0.67452 0.0
C133 C 0.96925 0.82209 0.66757 0.0
N134 N 0.97398 0.81273 0.64741 0.0
N135 N 1.00417 0.83223 0.65891 0.0
C136 C 0.99533 0.81912 0.64251 0.0
H137 H 0.98913 0.84396 0.68982 0.0
Co138 Co 0.03084 0.84794 0.66166 0.0
C139 C 0.06476 0.82689 0.63008 0.0
O140 O 0.08065 0.83375 0.64387 0.0
N141 N 0.05782 0.8656 0.66553 0.0
C142 C 0.088 0.88214 0.68095 0.0
C143 C 0.07315 0.86436 0.68243 0.0
C144 C 0.06414 0.88437 0.6539 0.0
N145 N 0.08224 0.89496 0.66312 0.0
O146 O 0.01725 0.87138 0.64327 0.0
H147 H 0.07363 0.8516 0.69539 0.0
H148 H 0.05504 0.89076 0.63943 0.0
O149 O 0.044 0.83164 0.6345 0.0
C150 C 1.00914 0.88768 0.65494 0.0
O151 O 0.01512 0.88937 0.67622 0.0
N152 N 0.0408 0.82512 0.68171 0.0
C153 C 0.03437 0.79042 0.71326 0.0
C154 C 0.04129 0.78561 0.69112 0.0
C155 C 0.0441 0.80311 0.67554 0.0
C156 C 0.0357 0.83019 0.7036 0.0
C157 C 0.03259 0.81315 0.71969 0.0
H158 H 0.04648 0.79842 0.65819 0.0
H159 H 0.03184 0.84747 0.70811 0.0
H160 H 1.004 0.81501 0.62698 0.0
H161 H 0.95348 0.82047 0.67663 0.0
H162 H 0.10192 0.88539 0.69233 0.0
H163 H 0.04301 0.76833 0.6854 0.0
H164 H 0.02696 0.81774 0.73645 0.0
C165 C 0.20271 0.9909 0.64706 0.0
C166 C 0.21239 0.97318 0.63603 0.0
N167 N 0.21931 0.98053 0.61576 0.0
N168 N 0.2033 1.00948 0.63379 0.0
C169 C 0.21381 1.00265 0.61475 0.0
H170 H 0.19564 0.99021 0.66387 0.0
Co171 Co 0.18982 0.03672 0.6422 0.0
C172 C 0.22488 0.07214 0.63252 0.0
O173 O 0.21893 0.08204 0.65138 0.0
N174 N 0.17449 0.06363 0.65037 0.0
C175 C 0.15833 0.09268 0.66803 0.0
C176 C 0.17579 0.07734 0.66858 0.0
C177 C 0.15579 0.07091 0.63929 0.0
N178 N 0.14583 0.08875 0.64951 0.0
O179 O 0.16553 0.01919 0.65591 0.0
H180 H 0.18805 0.07593 0.68199 0.0
H181 H 0.14874 0.0623 0.6248 0.0
O182 O 0.21432 0.05429 0.62625 0.0
C183 C 0.15173 1.00898 0.64282 0.0
O184 O 0.15279 0.0132 0.62108 0.0
N185 N 0.20779 0.03545 0.66968 0.0
C186 C 0.23601 0.02381 0.70621 0.0
C187 C 0.24478 0.02719 0.68462 0.0
C188 C 0.23058 0.03264 0.66677 0.0
C189 C 0.19888 0.03295 0.69089 0.0
C190 C 0.21277 0.02738 0.70947 0.0
H191 H 0.23804 0.03274 0.6502 0.0
H192 H 0.18087 0.03438 0.69343 0.0
H193 H 0.21712 0.0135 0.60043 0.0
H194 H 0.21468 0.95625 0.64256 0.0
H195 H 0.15425 0.10486 0.68103 0.0
H196 H 0.26257 0.02462 0.68124 0.0
H197 H 0.20525 0.02476 0.72591 0.0
C198 C 0.05289 0.21771 0.67097 0.0
C199 C 0.07013 0.23228 0.66514 0.0
N200 N 0.06607 0.23981 0.6441 0.0
N201 N 0.03825 0.21616 0.65359 0.0
C202 C 0.04694 0.22958 0.63743 0.0
H203 H 0.05094 0.20908 0.68693 0.0
Co204 Co 0.0116 0.19971 0.65204 0.0
C205 C 0.99087 0.22022 0.60831 0.0
O206 O 0.98443 0.2012 0.59891 0.0
N207 N 0.98454 0.1826 0.65043 0.0
C208 C 0.94868 0.17218 0.64555 0.0
C209 C 0.96343 0.19022 0.64647 0.0
C210 C 0.98201 0.1599 0.65233 0.0
N211 N 0.96041 0.15307 0.64926 0.0
O212 O 0.02682 0.17891 0.63177 0.0
H213 H 0.959 0.2078 0.64431 0.0
H214 H 0.99576 0.1484 0.65566 0.0
O215 O 1.00085 0.21982 0.62746 0.0
C216 C 0.0375 0.16497 0.64443 0.0
O217 O 0.03396 0.16598 0.66631 0.0
N218 N 0.99915 0.21921 0.67398 0.0
C219 C 1.00105 0.24818 0.71123 0.0
C220 C 0.99901 0.25679 0.6893 0.0
C221 C 0.99798 0.24206 0.6709 0.0
C222 C 0.99904 0.21047 0.69528 0.0
C223 C 0.99985 0.2247 0.71422 0.0
H224 H 0.99866 0.24931 0.6543 0.0
H225 H 1.00071 0.19242 0.69757 0.0
H226 H 0.03954 0.23184 0.62091 0.0
H227 H 0.08414 0.23741 0.67569 0.0
H228 H 0.93063 0.17313 0.64286 0.0
H229 H 0.99962 0.27482 0.68628 0.0
H230 H 1.00144 0.21735 0.73088 0.0
C231 C 0.83822 0.05738 0.67811 0.0
C232 C 0.82589 0.07598 0.6718 0.0
N233 N 0.81663 0.07176 0.65148 0.0
N234 N 0.83677 0.04156 0.66184 0.0
C235 C 0.82348 0.05076 0.64578 0.0
H236 H 0.84795 0.05556 0.69344 0.0
Co237 Co 0.85275 0.01478 0.66321 0.0
C238 C 0.82737 0.98209 0.6346 0.0
O239 O 0.82945 0.96782 0.65134 0.0
N240 N 0.8707 0.98741 0.66512 0.0
C241 C 0.88476 0.95364 0.67486 0.0
C242 C 0.8674 0.96877 0.678 0.0
C243 C 0.89078 0.98308 0.65475 0.0
N244 N 0.89952 0.96269 0.66029 0.0
O245 O 0.87519 0.02904 0.6442 0.0
H246 H 0.85324 0.96598 0.68911 0.0
H247 H 0.89924 0.99471 0.64355 0.0
O248 O 0.83571 1.00208 0.63641 0.0
C249 C 0.89006 0.03892 0.65641 0.0
O250 O 0.89066 0.03407 0.67804 0.0
N251 N 0.83081 1.00418 0.68401 0.0
C252 C 0.7989 1.00728 0.71888 0.0
C253 C 0.79209 1.00615 0.69624 0.0
C254 C 0.80824 1.00486 0.6791 0.0
C255 C 0.8377 1.00445 0.706 0.0
C256 C 0.82203 1.00558 0.7237 0.0
H257 H 0.80247 1.00686 0.66195 0.0
H258 H 0.85552 1.00559 0.70982 0.0
H259 H 0.81944 0.04255 0.62997 0.0
H260 H 0.82387 0.0914 0.68139 0.0
H261 H 0.8869 0.93764 0.68343 0.0
H262 H 0.77444 1.00755 0.69172 0.0
H263 H 0.82809 1.00683 0.7409 0.0
C264 C 0.37468 0.99488 0.20832 0.0
C265 C 0.37942 0.97668 0.22192 0.0
N266 N 0.40073 0.97887 0.2296 0.0
N267 N 0.39284 1.00853 0.20758 0.0
C268 C 0.40849 0.99829 0.22054 0.0
H269 H 0.35901 0.99802 0.1995 0.0
Co270 Co 0.39439 0.03505 0.19121 0.0
C271 C 0.42586 0.0644 0.21885 0.0
O272 O 0.41158 0.0811 0.21659 0.0
N273 N 0.39556 0.06227 0.17309 0.0
C274 C 0.38982 0.09707 0.15939 0.0
C275 C 0.38619 0.08272 0.1773 0.0
C276 C 0.40429 0.06478 0.15195 0.0
N277 N 0.40112 0.08574 0.14337 0.0
O278 O 0.41287 0.01873 0.16949 0.0
H279 H 0.37675 0.08712 0.19225 0.0
H280 H 0.41243 0.05143 0.14259 0.0
O281 O 0.42158 0.04521 0.20953 0.0
C282 C 0.40006 1.009 0.15498 0.0
O283 O 0.37868 0.01487 0.15445 0.0
N284 N 0.37373 0.04783 0.21211 0.0
C285 C 0.33707 0.0469 0.24211 0.0
C286 C 0.35935 0.04638 0.25009 0.0
C287 C 0.37738 0.04658 0.23488 0.0
C288 C 0.35221 0.04977 0.2041 0.0
C289 C 0.33365 0.04961 0.21881 0.0
H290 H 0.39393 0.04297 0.24144 0.0
H291 H 0.34926 0.0493 0.18609 0.0
H292 H 0.42516 1.00508 0.22351 0.0
H293 H 0.36815 0.96278 0.22559 0.0
H294 H 0.38352 0.11415 0.15776 0.0
H295 H 0.36286 0.04431 0.26791 0.0
H296 H 0.31677 0.04974 0.21181 0.0
C297 C 0.05346 0.37679 0.21512 0.0
C298 C 0.07027 0.38416 0.22945 0.0
N299 N 0.06523 0.40537 0.23593 0.0
N300 N 0.03799 0.39332 0.21272 0.0
C301 C 0.04583 0.41057 0.2253 0.0
H302 H 0.05229 0.36032 0.20732 0.0
Co303 Co 0.01145 0.39207 0.1961 0.0
C304 C 0.97985 0.4214 0.22314 0.0
O305 O 0.9642 0.40609 0.22005 0.0
N306 N 0.98422 0.39076 0.17781 0.0
C307 C 0.95005 0.38253 0.16376 0.0
C308 C 0.96472 0.3794 0.18155 0.0
C309 C 0.98083 0.40024 0.1571 0.0
N310 N 0.96024 0.39558 0.14831 0.0
O311 O 0.02628 0.41092 0.17389 0.0
H312 H 0.96114 0.36922 0.19623 0.0
H313 H 0.99324 0.4102 0.14822 0.0
O314 O 0.99919 0.41867 0.21365 0.0
C315 C 0.03612 0.39774 0.1598 0.0
O316 O 0.03112 0.37613 0.16056 0.0
N317 N 1.0003 0.37103 0.21765 0.0
C318 C 1.00534 0.33496 0.24825 0.0
C319 C 1.00413 0.35743 0.25583 0.0
C320 C 1.00168 0.37514 0.24035 0.0
C321 C 0.99999 0.34927 0.21007 0.0
C322 C 1.00206 0.33105 0.22505 0.0
H323 H 1.00389 0.3921 0.2466 0.0
H324 H 1.00018 0.34603 0.1921 0.0
H325 H 0.03754 0.42675 0.2267 0.0
H326 H 0.08465 0.37446 0.23519 0.0
H327 H 0.93355 0.37492 0.16185 0.0
H328 H 1.0071 0.36164 0.27335 0.0
H329 H 1.00243 0.31411 0.21821 0.0
C330 C 0.6732 0.05275 0.20351 0.0
C331 C 0.66771 0.07072 0.21708 0.0
N332 N 0.64839 0.06575 0.228 0.0
N333 N 0.6575 0.0365 0.2059 0.0
C334 C 0.64248 0.04491 0.2208 0.0
H335 H 0.6878 0.05147 0.19264 0.0
Co336 Co 0.65919 1.00922 0.19086 0.0
C337 C 0.63068 0.97691 0.21765 0.0
O338 O 0.64701 0.96224 0.21489 0.0
N339 N 0.66141 0.98125 0.17398 0.0
C340 C 0.67243 0.94738 0.16145 0.0
C341 C 0.67608 0.96402 0.1772 0.0
C342 C 0.64927 0.97452 0.15554 0.0
N343 N 0.65565 0.95395 0.14768 0.0
O344 O 0.64013 0.02254 0.16766 0.0
H345 H 0.68847 0.96299 0.1905 0.0
H346 H 0.63579 0.98433 0.1481 0.0
O347 O 0.63254 0.99668 0.20867 0.0
C348 C 0.65246 0.03167 0.15237 0.0
O349 O 0.67391 0.02605 0.15173 0.0
N350 N 0.68036 0.99987 0.21338 0.0
C351 C 0.71464 1.00431 0.24621 0.0
C352 C 0.69189 1.00197 0.25239 0.0
C353 C 0.67511 1.00023 0.23588 0.0
C354 C 0.70246 1.00167 0.207 0.0
C355 C 0.71983 1.00368 0.22307 0.0
H356 H 0.65788 1.00174 0.24141 0.0
H357 H 0.70654 1.00315 0.18927 0.0
H358 H 0.62782 0.03577 0.22667 0.0
H359 H 0.67712 0.0863 0.21861 0.0
H360 H 0.6816 0.93163 0.1601 0.0
H361 H 0.68677 1.00329 0.26989 0.0
H362 H 0.73707 1.00556 0.21734 0.0
C363 C 0.99513 0.67661 0.21183 0.0
C364 C 0.97671 0.67277 0.22547 0.0
N365 N 0.97766 0.65126 0.23282 0.0
N366 N 1.00772 0.65768 0.21083 0.0
C367 C 0.99656 0.64252 0.22359 0.0
H368 H 0.99906 0.69217 0.20314 0.0
Co369 Co 0.03421 0.65341 0.19464 0.0
C370 C 0.05275 0.60979 0.21731 0.0
O371 O 0.0594 0.59977 0.19869 0.0
N372 N 0.06117 0.64921 0.17744 0.0
C373 C 0.09673 0.64238 0.16698 0.0
C374 C 0.08219 0.64482 0.18506 0.0
C375 C 0.06358 0.64977 0.15462 0.0
N376 N 0.08503 0.64552 0.14773 0.0
O377 O 0.01756 0.63297 0.17506 0.0
H378 H 0.08672 0.6435 0.2027 0.0
H379 H 0.04983 0.6531 0.14312 0.0
O380 O 0.04323 0.62918 0.21616 0.0
C381 C 1.00678 0.64508 0.16069 0.0
O382 O 0.01153 0.66675 0.15979 0.0
N383 N 0.04805 0.67559 0.21315 0.0
C384 C 0.04491 0.71386 0.24107 0.0
C385 C 0.04764 0.69215 0.25027 0.0
C386 C 0.04929 0.6733 0.23609 0.0
C387 C 0.04806 0.69662 0.20381 0.0
C388 C 0.04654 0.71598 0.21744 0.0
H389 H 0.04887 0.65692 0.24391 0.0
H390 H 0.04653 0.69834 0.1857 0.0
H391 H 1.00233 0.62541 0.22624 0.0
H392 H 0.96353 0.68479 0.22938 0.0
H393 H 0.11468 0.63912 0.16798 0.0
H394 H 0.04643 0.68931 0.26826 0.0
H395 H 0.04515 0.73232 0.20938 0.0
C396 C 0.37629 0.05107 0.83574 0.0
C397 C 0.38386 0.0682 0.82187 0.0
N398 N 0.40374 0.06175 0.81289 0.0
N399 N 0.39136 0.03402 0.83542 0.0
C400 C 0.40796 0.04117 0.82161 0.0
H401 H 0.36074 0.05094 0.84529 0.0
Co402 Co 0.38964 1.00676 0.85083 0.0
C403 C 0.41546 0.97483 0.82035 0.0
O404 O 0.40015 0.95925 0.82393 0.0
N405 N 0.38803 0.97854 0.86748 0.0
C406 C 0.37775 0.94403 0.87879 0.0
C407 C 0.37367 0.96114 0.86375 0.0
C408 C 0.40057 0.97129 0.88545 0.0
N409 N 0.39462 0.95031 0.89255 0.0
O410 O 0.41133 0.01908 0.87188 0.0
H411 H 0.36125 0.96025 0.85047 0.0
H412 H 0.41411 0.98093 0.89299 0.0
O413 O 0.41373 0.99388 0.83061 0.0
C414 C 0.40137 0.02749 0.88915 0.0
O415 O 0.38056 0.02107 0.89329 0.0
N416 N 0.36598 0.99828 0.83093 0.0
C417 C 0.32712 1.00179 0.80389 0.0
C418 C 0.34856 0.99896 0.79417 0.0
C419 C 0.3678 0.99771 0.80792 0.0
C420 C 0.34522 1.00051 0.84066 0.0
C421 C 0.32562 1.00204 0.82753 0.0
H422 H 0.38409 0.9984 0.79985 0.0
H423 H 0.34399 1.00246 0.85877 0.0
H424 H 0.42314 0.03169 0.81818 0.0
H425 H 0.37522 0.0839 0.81832 0.0
H426 H 0.36889 0.92806 0.87958 0.0
H427 H 0.35068 0.99945 0.77602 0.0
H428 H 0.30951 1.0043 0.83585 0.0
C429 C 0.99241 0.38105 0.8422 0.0
C430 C 0.97316 0.38532 0.82989 0.0
N431 N 0.9768 0.40387 0.81727 0.0
N432 N 1.008 0.39691 0.8374 0.0
C433 C 0.99799 0.41058 0.8222 0.0
H434 H 0.99482 0.36747 0.85416 0.0
Co435 Co 0.0361 0.39925 0.8509 0.0
C436 C 0.0553 0.44283 0.83274 0.0
O437 O 0.06076 0.44937 0.85322 0.0
N438 N 0.065 0.4015 0.86512 0.0
C439 C 0.10232 0.40359 0.8692 0.0
C440 C 0.08494 0.40022 0.85421 0.0
C441 C 0.07091 0.40568 0.88695 0.0
N442 N 0.0936 0.40715 0.8899 0.0
O443 O 0.0223 0.4193 0.87282 0.0
H444 H 0.08685 0.39742 0.83629 0.0
H445 H 0.05888 0.4082 0.90039 0.0
O446 O 0.04461 0.42425 0.83019 0.0
C447 C 0.01405 0.40803 0.88936 0.0
O448 O 0.0206 0.387 0.89195 0.0
N449 N 0.04685 0.37751 0.83003 0.0
C450 C 0.04535 0.34217 0.79848 0.0
C451 C 0.05032 0.36438 0.79178 0.0
C452 C 0.05092 0.38178 0.80772 0.0
C453 C 0.04375 0.35584 0.83716 0.0
C454 C 0.04286 0.33792 0.82168 0.0
H455 H 0.0531 0.39872 0.80156 0.0
H456 H 0.04001 0.35268 0.85474 0.0
H457 H 1.00575 0.42561 0.81535 0.0
H458 H 0.95773 0.37555 0.8302 0.0
H459 H 0.1201 0.40326 0.86506 0.0
H460 H 0.05219 0.36868 0.77412 0.0
H461 H 0.03934 0.32105 0.82778 0.0
C462 C 0.66353 0.99151 0.83412 0.0
C463 C 0.6599 0.97352 0.81988 0.0
N464 N 0.63854 0.97473 0.8122 0.0
N465 N 0.64462 1.00411 0.83522 0.0
C466 C 0.62961 0.99334 0.82187 0.0
H467 H 0.67906 0.99534 0.8429 0.0
Co468 Co 0.64144 0.03087 0.85132 0.0
C469 C 0.59656 0.04889 0.83434 0.0
O470 O 0.58909 0.05243 0.85491 0.0
N471 N 0.63845 0.05808 0.86802 0.0
C472 C 0.63246 0.09407 0.87737 0.0
C473 C 0.63432 0.07893 0.85977 0.0
C474 C 0.63948 0.06115 0.89069 0.0
N475 N 0.63572 0.08288 0.89688 0.0
O476 O 0.62235 0.01479 0.87265 0.0
H477 H 0.63267 0.0829 0.84203 0.0
H478 H 0.64277 0.0477 0.90256 0.0
O479 O 0.61598 0.03992 0.83161 0.0
C480 C 0.63538 1.0045 0.88653 0.0
O481 O 0.65718 1.00828 0.88527 0.0
N482 N 0.66221 0.04443 0.83134 0.0
C483 C 0.69847 0.04644 0.80108 0.0
C484 C 0.67612 0.04841 0.79345 0.0
C485 C 0.65823 0.04723 0.80878 0.0
C486 C 0.68379 0.04452 0.83932 0.0
C487 C 0.7022 0.04538 0.82448 0.0
H488 H 0.64139 0.0465 0.80201 0.0
H489 H 0.68677 0.04169 0.85711 0.0
H490 H 0.61265 0.99933 0.8188 0.0
H491 H 0.67203 0.96057 0.81552 0.0
H492 H 0.62951 0.11205 0.87587 0.0
H493 H 0.67231 0.04904 0.77559 0.0
H494 H 0.71915 0.0441 0.8312 0.0
C495 C 0.05068 0.66033 0.84701 0.0
C496 C 0.06982 0.65646 0.83448 0.0
N497 N 0.06693 0.63704 0.82303 0.0
N498 N 0.03592 0.64336 0.84354 0.0
C499 C 0.0463 0.62939 0.82887 0.0
H500 H 0.0477 0.67451 0.85811 0.0
Co501 Co 1.00841 0.64118 0.85816 0.0
C502 C 0.98024 0.61064 0.82814 0.0
O503 O 0.96309 0.62411 0.83159 0.0
N504 N 0.98015 0.63959 0.87472 0.0
C505 C 0.94501 0.64624 0.88709 0.0
C506 C 0.96023 0.64979 0.86992 0.0
C507 C 0.97641 0.63044 0.89551 0.0
N508 N 0.95523 0.63418 0.90331 0.0
O509 O 0.02351 0.62198 0.88024 0.0
H510 H 0.95681 0.65981 0.85508 0.0
H511 H 0.98909 0.62174 0.9053 0.0
O512 O 0.99925 0.61472 0.83796 0.0
C513 C 0.03165 0.63453 0.89592 0.0
O514 O 0.02521 0.65574 0.89677 0.0
N515 N 0.99695 0.66251 0.83736 0.0
C516 C 1.00007 0.70024 0.80883 0.0
C517 C 1.00068 0.6782 0.80008 0.0
C518 C 0.99924 0.65964 0.81457 0.0
C519 C 0.9949 0.68374 0.84605 0.0
C520 C 0.99604 0.70279 0.83208 0.0
H521 H 1.0029 0.64327 0.80758 0.0
H522 H 0.99436 0.68603 0.86415 0.0
H523 H 0.03914 0.61368 0.82289 0.0
H524 H 0.0846 0.66716 0.83368 0.0
H525 H 0.92817 0.65324 0.88822 0.0
H526 H 1.00439 0.67514 0.78246 0.0
H527 H 0.99514 0.71937 0.8397 0.0
C528 C 0.20666 0.37341 0.99047 0.0
C529 C 0.22009 0.37819 0.97215 0.0
N530 N 0.2294 0.39869 0.97534 0.0
N531 N 0.20767 0.39073 1.00521 0.0
C532 C 0.22156 0.40589 0.99547 0.0
H533 H 0.19661 0.35836 0.99281 0.0
Co534 Co 0.19217 0.39283 0.03238 0.0
C535 C 0.20864 0.4382 0.04983 0.0
O536 O 0.18796 0.44604 0.05135 0.0
N537 N 0.17598 0.3949 0.05997 0.0
C538 C 0.16701 0.40153 0.09594 0.0
C539 C 0.18445 0.39953 0.08062 0.0
C540 C 0.15336 0.39373 0.06336 0.0
N541 N 0.1474 0.39788 0.08504 0.0
O542 O 0.17037 0.41226 0.01725 0.0
H543 H 0.20219 0.4017 0.0843 0.0
H544 H 0.14128 0.39035 0.05013 0.0
O545 O 0.21176 0.4183 0.04204 0.0
C546 C 0.15595 0.39949 1.00737 0.0
O547 O 0.15686 0.37766 0.01124 0.0
N548 N 0.21265 0.3716 0.04472 0.0
C549 C 0.24575 0.33831 0.03936 0.0
C550 C 0.25142 0.35996 0.04719 0.0
C551 C 0.23462 0.37636 0.04989 0.0
C552 C 0.20644 0.34989 0.04013 0.0
C553 C 0.22276 0.33295 0.03724 0.0
H554 H 0.23983 0.39319 0.05418 0.0
H555 H 0.18908 0.34632 0.03577 0.0
H556 H 0.22597 0.4219 1.00302 0.0
H557 H 0.22243 0.3676 0.95745 0.0
H558 H 0.16867 0.40509 0.11378 0.0
H559 H 0.2689 0.36467 0.04975 0.0
H560 H 0.21753 0.31646 0.03133 0.0
C561 C 0.20736 0.67085 0.05101 0.0
C562 C 0.22006 0.66575 0.06975 0.0
N563 N 0.22872 0.64489 0.06699 0.0
N564 N 0.20819 0.65337 0.03648 0.0
C565 C 0.22119 0.63776 0.0467 0.0
H566 H 0.19803 0.68627 0.04812 0.0
Co567 Co 0.19334 0.65258 1.00911 0.0
C568 C 0.2208 0.6212 0.97937 0.0
O569 O 0.21635 0.63451 0.9623 0.0
N570 N 0.17663 0.65228 0.98092 0.0
C571 C 0.16477 0.6604 0.94601 0.0
C572 C 0.18059 0.66495 0.96231 0.0
C573 C 0.15761 0.64046 0.97531 0.0
N574 N 0.15018 0.64505 0.9541 0.0
O575 O 0.1707 0.63365 0.02371 0.0
H576 H 0.19447 0.67652 0.96011 0.0
H577 H 0.14938 0.62856 0.98643 0.0
O578 O 0.21241 0.62571 0.99895 0.0
C579 C 0.15529 0.64603 0.0326 0.0
O580 O 0.15416 0.66726 0.02626 0.0
N581 N 0.21511 0.67361 0.99827 0.0
C582 C 0.24611 0.70943 1.00175 0.0
C583 C 0.25348 0.68694 1.00101 0.0
C584 C 0.23779 0.66933 0.9994 0.0
C585 C 0.2077 0.69547 0.99808 0.0
C586 C 0.22291 0.7136 0.99938 0.0
H587 H 0.24397 0.6524 1.00171 0.0
H588 H 0.18978 0.69885 0.99875 0.0
H589 H 0.22528 0.62158 0.0393 0.0
H590 H 0.22245 0.67642 0.08438 0.0
H591 H 0.16389 0.66807 0.92945 0.0
H592 H 0.2712 0.68289 1.00293 0.0
H593 H 0.21638 0.73066 1.00026 0.0
C594 C 0.37804 0.20951 0.04784 0.0
C595 C 0.38481 0.22416 0.06459 0.0
N596 N 0.40501 0.2328 0.05872 0.0
N597 N 0.3939 0.20901 0.03157 0.0
C598 C 0.41019 0.22318 0.03875 0.0
H599 H 0.3625 0.19995 0.04742 0.0
Co600 Co 0.39264 0.19182 1.0055 0.0
C601 C 0.41942 0.21871 0.97195 0.0
O602 O 0.40312 0.2153 0.9574 0.0
N603 N 0.39126 0.17282 0.97875 0.0
C604 C 0.38202 0.15729 0.94548 0.0
C605 C 0.37871 0.17535 0.95978 0.0
C606 C 0.40174 0.15258 0.97539 0.0
N607 N 0.39643 0.14289 0.95538 0.0
O608 O 0.41307 0.17095 0.02023 0.0
H609 H 0.36752 0.18932 0.95634 0.0
H610 H 0.41286 0.14465 0.98745 0.0
O611 O 0.41803 0.2101 0.99183 0.0
C612 C 0.40182 0.1554 0.03021 0.0
O613 O 0.38031 0.15323 0.02526 0.0
N614 N 0.37026 0.21208 0.99462 0.0
C615 C 0.33309 0.24115 1.0006 0.0
C616 C 0.35512 0.24969 0.99834 0.0
C617 C 0.37339 0.23497 0.99538 0.0
C618 C 0.3489 0.20352 0.99535 0.0
C619 C 0.33013 0.21772 0.99783 0.0
H620 H 0.39013 0.24199 0.99671 0.0
H621 H 0.3465 0.18543 0.99604 0.0
H622 H 0.42572 0.22623 0.02968 0.0
H623 H 0.37541 0.22843 0.07965 0.0
H624 H 0.37358 0.15441 0.92953 0.0
H625 H 0.35869 0.26742 1.00087 0.0
H626 H 0.31356 0.21012 0.99893 0.0
C627 C 0.83345 0.37967 0.05173 0.0
C628 C 0.82005 0.38771 0.06892 0.0
N629 N 0.81374 0.40898 0.06376 0.0
N630 N 0.83542 0.39571 0.03576 0.0
C631 C 0.82336 0.41336 0.04358 0.0
H632 H 0.84164 0.36336 0.0511 0.0
Co633 Co 0.85319 0.39389 1.01015 0.0
C634 C 0.83076 0.42413 0.9756 0.0
O635 O 0.83795 0.41054 0.95972 0.0
N636 N 0.87267 0.39188 0.98394 0.0
C637 C 0.88883 0.38149 0.95137 0.0
C638 C 0.87108 0.37783 0.96594 0.0
C639 C 0.89205 0.40359 0.97982 0.0
N640 N 0.90207 0.39765 0.96015 0.0
O641 O 0.87467 0.41326 0.02562 0.0
H642 H 0.8578 0.36567 0.96318 0.0
H643 H 0.89904 0.41612 0.99109 0.0
O644 O 0.83601 0.42013 0.9963 0.0
C645 C 0.89022 0.40145 0.035 0.0
O646 O 0.89225 0.38019 0.02902 0.0
N647 N 0.8324 0.37249 0.99852 0.0
C648 C 0.80057 0.33728 1.00001 0.0
C649 C 0.79392 0.35967 0.99581 0.0
C650 C 0.80997 0.37702 0.99546 0.0
C651 C 0.8393 0.35071 1.00166 0.0
C652 C 0.82374 0.33288 1.00233 0.0
H653 H 0.80386 0.39412 0.99508 0.0
H654 H 0.85685 0.34735 1.00541 0.0
H655 H 0.82181 0.42922 0.0347 0.0
H656 H 0.81586 0.37878 0.08428 0.0
H657 H 0.89225 0.37232 0.93594 0.0
H658 H 0.77624 0.36411 0.99456 0.0
H659 H 0.82975 0.31592 1.00556 0.0
C660 C 0.66179 0.83694 0.05588 0.0
C661 C 0.65249 0.82497 0.07349 0.0
N662 N 0.63152 0.81856 0.06743 0.0
N663 N 0.64681 0.83782 0.0388 0.0
C664 C 0.62849 0.82668 0.04638 0.0
H665 H 0.67839 0.84451 0.05548 0.0
Co666 Co 0.65113 0.85219 0.01149 0.0
C667 C 0.62452 0.82523 0.97804 0.0
O668 O 0.64207 0.82669 0.96466 0.0
N669 N 0.65547 0.8681 0.98328 0.0
C670 C 0.66801 0.87936 0.94955 0.0
C671 C 0.67133 0.86471 0.96718 0.0
C672 C 0.64282 0.8854 0.97476 0.0
N673 N 0.65011 0.89246 0.95425 0.0
O674 O 0.63211 0.87644 0.02288 0.0
H675 H 0.68418 0.85185 0.96738 0.0
H676 H 0.62819 0.89239 0.98313 0.0
O677 O 0.62509 0.83483 0.99755 0.0
C678 C 0.64498 0.89157 0.0315 0.0
O679 O 0.66674 0.89025 0.02752 0.0
N680 N 0.67232 0.82916 1.00413 0.0
C681 C 0.70711 0.79739 1.01019 0.0
C682 C 0.68455 0.79047 1.00805 0.0
C683 C 0.66741 0.80658 1.00517 0.0
C684 C 0.6942 0.83609 1.00633 0.0
C685 C 0.71184 0.82054 1.00873 0.0
H686 H 0.65013 0.80089 1.00592 0.0
H687 H 0.69787 0.85394 1.00751 0.0
H688 H 0.61333 0.82424 0.03654 0.0
H689 H 0.66048 0.82147 0.08953 0.0
H690 H 0.67803 0.88027 0.9343 0.0
H691 H 0.68009 0.7728 1.00952 0.0
H692 H 0.72891 0.8267 0.0109 0.0
C693 C 0.83034 0.66815 1.00028 0.0
C694 C 0.81737 0.66448 0.98138 0.0
N695 N 0.80858 0.64356 0.98275 0.0
N696 N 0.82951 0.64973 0.01361 0.0
C697 C 0.81625 0.63499 1.00244 0.0
H698 H 0.84014 0.68312 1.00387 0.0
Co699 Co 0.84533 0.64585 0.04029 0.0
C700 C 0.82774 0.60083 0.05725 0.0
O701 O 0.84828 0.59304 0.06028 0.0
N702 N 0.86218 0.64226 0.06739 0.0
C703 C 0.87267 0.63557 0.10296 0.0
C704 C 0.85459 0.63739 0.08832 0.0
C705 C 0.88489 0.64372 0.06994 0.0
N706 N 0.8918 0.63959 0.09136 0.0
O707 O 0.86584 0.62609 0.02392 0.0
H708 H 0.837 0.63524 0.09269 0.0
H709 H 0.89633 0.64758 0.05632 0.0
O710 O 0.82511 0.62058 0.04896 0.0
C711 C 0.88106 0.6373 0.01343 0.0
O712 O 0.88269 0.65907 0.01736 0.0
N713 N 0.82563 0.66704 0.05408 0.0
C714 C 0.79375 0.70215 0.05409 0.0
C715 C 0.78744 0.67988 0.05929 0.0
C716 C 0.80356 0.6626 0.05921 0.0
C717 C 0.83254 0.68885 0.05144 0.0
C718 C 0.81688 0.70665 0.05122 0.0
H719 H 0.79759 0.64558 0.06141 0.0
H720 H 0.84993 0.69223 0.04704 0.0
H721 H 0.81238 0.61824 1.00854 0.0
H722 H 0.81513 0.67606 0.96742 0.0
H723 H 0.87173 0.63211 0.12087 0.0
H724 H 0.76989 0.67539 0.06166 0.0
H725 H 0.82273 0.72359 0.04766 0.0
C726 C 0.38104 0.83056 0.99012 0.0
C727 C 0.38715 0.81583 0.97314 0.0
N728 N 0.40793 0.80794 0.97785 0.0
N729 N 0.39797 0.8319 1.00528 0.0
C730 C 0.41416 0.81813 0.99716 0.0
H731 H 0.36518 0.83949 0.9915 0.0
Co732 Co 0.39865 0.84851 0.03188 0.0
C733 C 0.44306 0.8316 0.05277 0.0
O734 O 0.4506 0.8519 0.05755 0.0
N735 N 0.39941 0.86575 0.059 0.0
C736 C 0.40417 0.87586 0.09498 0.0
C737 C 0.40274 0.85793 0.08014 0.0
C738 C 0.3984 0.88853 0.06159 0.0
N739 N 0.40146 0.89517 0.08329 0.0
O740 O 0.41815 0.87031 0.01676 0.0
H741 H 0.40443 0.84027 0.08449 0.0
H742 H 0.39596 0.90018 0.04778 0.0
O743 O 0.42399 0.8295 0.04291 0.0
C744 C 0.4053 0.88366 1.00553 0.0
O745 O 0.38337 0.88171 1.00805 0.0
N746 N 0.37739 0.82802 0.04416 0.0
C747 C 0.34223 0.79618 0.04353 0.0
C748 C 0.36457 0.78967 0.04821 0.0
C749 C 0.38188 0.80576 0.04837 0.0
C750 C 0.35561 0.83498 0.04146 0.0
C751 C 0.33779 0.81936 0.04101 0.0
H752 H 0.39894 0.79972 0.04998 0.0
H753 H 0.35225 0.8525 0.03752 0.0
H754 H 0.43041 0.81565 1.00507 0.0
H755 H 0.37694 0.81089 0.95882 0.0
H756 H 0.40672 0.87473 0.11303 0.0
H757 H 0.36902 0.77204 0.05008 0.0
H758 H 0.32084 0.82533 0.03771 0.0
C759 C 0.67115 0.21107 0.99077 0.0
C760 C 0.66637 0.22542 0.97316 0.0
N761 N 0.6454 0.23373 0.97617 0.0
N762 N 0.65336 0.21044 1.0049 0.0
C763 C 0.63785 0.22421 0.99546 0.0
H764 H 0.68673 0.20191 0.99335 0.0
Co765 Co 0.65233 0.19421 0.03178 0.0
C766 C 0.60778 0.21812 0.04792 0.0
O767 O 0.59287 0.203 0.04156 0.0
N768 N 0.65124 0.17698 0.059 0.0
C769 C 0.64448 0.16617 0.09447 0.0
C770 C 0.64568 0.18431 0.07985 0.0
C771 C 0.6537 0.15429 0.06159 0.0
N772 N 0.64949 0.1472 0.08296 0.0
O773 O 0.63119 0.17374 0.01737 0.0
H774 H 0.64233 0.20173 0.08417 0.0
H775 H 0.65791 0.14296 0.04795 0.0
O776 O 0.62877 0.21468 0.04407 0.0
C777 C 0.64311 0.15946 1.00629 0.0
O778 O 0.66512 0.15993 1.00907 0.0
N779 N 0.67496 0.21371 0.04341 0.0
C780 C 0.71258 0.24244 0.04132 0.0
C781 C 0.69062 0.25113 0.04082 0.0
C782 C 0.67214 0.23657 0.04165 0.0
C783 C 0.69615 0.20499 0.04585 0.0
C784 C 0.71526 0.21911 0.04496 0.0
H785 H 0.65587 0.24369 0.03781 0.0
H786 H 0.69842 0.18687 0.04624 0.0
H787 H 0.62158 0.2277 1.00291 0.0
H788 H 0.67748 0.22938 0.95923 0.0
H789 H 0.64042 0.16695 0.11226 0.0
H790 H 0.68767 0.26899 0.03819 0.0
H791 H 0.73193 0.21162 0.04534 0.0
C792 C 0.49447 0.71007 0.8686 0.0
C793 C 0.47591 0.72315 0.87343 0.0
N794 N 0.47814 0.73112 0.89462 0.0
N795 N 0.50838 0.70997 0.88658 0.0
C796 C 0.49795 0.72277 0.90222 0.0
H797 H 0.49767 0.70115 0.85299 0.0
Co798 Co 0.53536 0.69427 0.88804 0.0
C799 C 0.56448 0.72411 0.91759 0.0
O800 O 0.58003 0.72322 0.90193 0.0
N801 N 0.56301 0.67677 0.88921 0.0
C802 C 0.59814 0.66376 0.88391 0.0
C803 C 0.58342 0.68134 0.87998 0.0
C804 C 0.56594 0.65576 0.89818 0.0
N805 N 0.58709 0.64759 0.89528 0.0
O806 O 0.5198 0.67258 0.9072 0.0
H807 H 0.5875 0.69624 0.87031 0.0
H808 H 0.55277 0.64619 0.90635 0.0
O809 O 0.54578 0.71332 0.91477 0.0
C810 C 0.51006 0.65773 0.89478 0.0
O811 O 0.51569 0.65682 0.87335 0.0
N812 N 0.54725 0.71514 0.86668 0.0
C813 C 0.54455 0.74417 0.82928 0.0
C814 C 0.54331 0.75262 0.85134 0.0
C815 C 0.54452 0.73791 0.86973 0.0
C816 C 0.54982 0.70676 0.84535 0.0
C817 C 0.54886 0.72102 0.82643 0.0
H818 H 0.54047 0.74466 0.88614 0.0
H819 H 0.55049 0.68869 0.84282 0.0
H820 H 0.50491 0.72613 0.91875 0.0
H821 H 0.46176 0.72626 0.86231 0.0
H822 H 0.61528 0.66242 0.87773 0.0
H823 H 0.53993 0.77034 0.85435 0.0
H824 H 0.54961 0.7137 0.8097 0.0
C825 C 0.33081 0.49333 0.87979 0.0
C826 C 0.31611 0.47651 0.88628 0.0
N827 N 0.3083 0.48161 0.907 0.0
N828 N 0.33221 0.50884 0.8964 0.0
C829 C 0.31848 0.5011 0.91279 0.0
H830 H 0.3397 0.49433 0.86389 0.0
Co831 Co 0.34908 0.53525 0.89626 0.0
C832 C 0.33338 0.55686 0.9408 0.0
O833 O 0.35407 0.5594 0.94835 0.0
N834 N 0.36659 0.56219 0.8962 0.0
C835 C 0.37697 0.59818 0.90031 0.0
C836 C 0.35894 0.58345 0.8992 0.0
C837 C 0.38938 0.56458 0.89509 0.0
N838 N 0.39618 0.5863 0.89776 0.0
O839 O 0.37108 0.52025 0.91591 0.0
H840 H 0.34134 0.58796 0.90094 0.0
H841 H 0.4009 0.55061 0.89293 0.0
O842 O 0.33034 0.54746 0.92158 0.0
C843 C 0.38399 0.50837 0.90314 0.0
O844 O 0.38163 0.51027 0.88119 0.0
N845 N 0.32851 0.54717 0.87474 0.0
C846 C 0.29598 0.54536 0.84015 0.0
C847 C 0.29002 0.55127 0.86235 0.0
C848 C 0.30643 0.55204 0.87935 0.0
C849 C 0.335 0.5433 0.85299 0.0
C850 C 0.31904 0.54223 0.83547 0.0
H851 H 0.30076 0.5547 0.89636 0.0
H852 H 0.35236 0.53888 0.84952 0.0
H853 H 0.31607 0.50942 0.92884 0.0
H854 H 0.31116 0.46199 0.87634 0.0
H855 H 0.37596 0.61629 0.90259 0.0
H856 H 0.27253 0.55368 0.86704 0.0
H857 H 0.32466 0.53803 0.8186 0.0
C858 C 0.55491 0.34027 0.88198 0.0
C859 C 0.57183 0.32635 0.8898 0.0
N860 N 0.56484 0.31683 0.90924 0.0
N861 N 0.53737 0.33947 0.89642 0.0
C862 C 0.54402 0.32529 0.91296 0.0
H863 H 0.55513 0.35002 0.86655 0.0
Co864 Co 0.51008 0.35441 0.89278 0.0
C865 C 0.4772 0.32581 0.91875 0.0
O866 O 0.46343 0.32742 0.90152 0.0
N867 N 0.48181 0.37086 0.88915 0.0
C868 C 0.44782 0.3819 0.877 0.0
C869 C 0.46512 0.36678 0.87407 0.0
C870 C 0.47391 0.3891 0.90095 0.0
N871 N 0.45323 0.39607 0.89386 0.0
O872 O 0.52184 0.37738 0.91287 0.0
H873 H 0.46476 0.35316 0.86202 0.0
H874 H 0.48285 0.39687 0.91484 0.0
O875 O 0.49631 0.33612 0.91812 0.0
C876 C 0.5304 0.39379 0.90163 0.0
O877 O 0.52422 0.39624 0.88048 0.0
N878 N 0.50243 0.3322 0.87068 0.0
C879 C 0.50841 0.30094 0.83533 0.0
C880 C 0.50657 0.29374 0.8578 0.0
C881 C 0.50388 0.30956 0.87516 0.0
C882 C 0.50406 0.33948 0.84885 0.0
C883 C 0.5065 0.32416 0.83093 0.0
H884 H 0.50536 0.30361 0.89225 0.0
H885 H 0.50484 0.3574 0.84542 0.0
H886 H 0.5338 0.32111 0.92746 0.0
H887 H 0.58772 0.323 0.88146 0.0
H888 H 0.43226 0.38237 0.86743 0.0
H889 H 0.50829 0.27605 0.86208 0.0
H890 H 0.50838 0.33059 0.81393 0.0
C891 C 0.71306 0.55306 0.87734 0.0
C892 C 0.72741 0.56977 0.88492 0.0
N893 N 0.73503 0.56371 0.90546 0.0
N894 N 0.71175 0.5367 0.89311 0.0
C895 C 0.72507 0.54384 0.9101 0.0
H896 H 0.70428 0.55271 0.86134 0.0
Co897 Co 0.69488 0.51039 0.89168 0.0
C898 C 0.72309 0.4781 0.91966 0.0
O899 O 0.7217 0.46323 0.90336 0.0
N900 N 0.67629 0.48337 0.89039 0.0
C901 C 0.66197 0.44918 0.88261 0.0
C902 C 0.68008 0.46353 0.87964 0.0
C903 C 0.65532 0.48045 0.89943 0.0
N904 N 0.64632 0.45991 0.89499 0.0
O905 O 0.67342 0.52521 0.91149 0.0
H906 H 0.69489 0.45962 0.86976 0.0
H907 H 0.64638 0.49315 0.90896 0.0
O908 O 0.71292 0.49721 0.91764 0.0
C909 C 0.65852 0.53537 0.89949 0.0
O910 O 0.65737 0.53046 0.8779 0.0
N911 N 0.71573 0.49946 0.86971 0.0
C912 C 0.74537 0.50502 0.83283 0.0
C913 C 0.75348 0.50399 0.85511 0.0
C914 C 0.73849 0.50129 0.87318 0.0
C915 C 0.70761 0.49899 0.84815 0.0
C916 C 0.7221 0.50137 0.82954 0.0
H917 H 0.74506 0.50378 0.88994 0.0
H918 H 0.68957 0.49883 0.84536 0.0
H919 H 0.72734 0.5348 0.92579 0.0
H920 H 0.73221 0.58491 0.87588 0.0
H921 H 0.65998 0.43256 0.87526 0.0
H922 H 0.77102 0.50731 0.85892 0.0
H923 H 0.71484 0.50161 0.81278 0.0
C924 C 0.48919 0.33399 0.1671 0.0
C925 C 0.4707 0.32073 0.16236 0.0
N926 N 0.47348 0.31178 0.14163 0.0
N927 N 0.50363 0.33319 0.14955 0.0
C928 C 0.49352 0.31968 0.13427 0.0
H929 H 0.49186 0.34377 0.18228 0.0
Co930 Co 0.53081 0.3486 0.14718 0.0
C931 C 0.55302 0.32952 0.10443 0.0
O932 O 0.56441 0.34796 0.09983 0.0
N933 N 0.55854 0.36498 0.14511 0.0
C934 C 0.59509 0.37409 0.14311 0.0
C935 C 0.57978 0.35665 0.14552 0.0
C936 C 0.56157 0.38762 0.14292 0.0
N937 N 0.58359 0.39362 0.14152 0.0
O938 O 0.51531 0.37023 0.12807 0.0
H939 H 0.58394 0.33895 0.14718 0.0
H940 H 0.54794 0.39968 0.14221 0.0
O941 O 0.53953 0.32911 0.12128 0.0
C942 C 0.50533 0.38519 0.1401 0.0
O943 O 0.51033 0.38633 0.16167 0.0
N944 N 0.54342 0.32766 0.16788 0.0
C945 C 0.53981 0.29414 0.20104 0.0
C946 C 0.54651 0.28873 0.17896 0.0
C947 C 0.54822 0.30569 0.16261 0.0
C948 C 0.53973 0.33361 0.18982 0.0
C949 C 0.53774 0.31709 0.20669 0.0
H950 H 0.55144 0.3005 0.14549 0.0
H951 H 0.53554 0.35094 0.19378 0.0
H952 H 0.50072 0.31558 0.11805 0.0
H953 H 0.45619 0.31822 0.17315 0.0
H954 H 0.6133 0.37255 0.1431 0.0
H955 H 0.54896 0.27132 0.17394 0.0
H956 H 0.53263 0.32214 0.22349 0.0
C957 C 0.70841 0.4916 0.16931 0.0
C958 C 0.72162 0.47308 0.16443 0.0
N959 N 0.72947 0.47539 0.14323 0.0
N960 N 0.708 0.5054 0.15123 0.0
C961 C 0.72085 0.49502 0.13559 0.0
H962 H 0.69955 0.49478 0.18494 0.0
Co963 Co 0.69186 0.53205 0.14838 0.0
C964 C 0.70967 0.55161 0.10463 0.0
O965 O 0.68913 0.55518 0.09708 0.0
N966 N 0.67485 0.55928 0.14543 0.0
C967 C 0.66546 0.59538 0.13989 0.0
C968 C 0.68306 0.58043 0.1432 0.0
C969 C 0.65214 0.56197 0.14377 0.0
N970 N 0.64594 0.58374 0.14025 0.0
O971 O 0.67145 0.51598 0.12831 0.0
H972 H 0.7008 0.58472 0.14361 0.0
H973 H 0.64023 0.54821 0.14471 0.0
O974 O 0.71232 0.54209 0.12381 0.0
C975 C 0.65695 0.50573 0.14071 0.0
O976 O 0.65634 0.51077 0.1623 0.0
N977 N 0.71113 0.54514 0.17021 0.0
C978 C 0.73932 0.54361 0.20832 0.0
C979 C 0.74838 0.54474 0.18642 0.0
C980 C 0.73407 0.54549 0.16763 0.0
C981 C 0.70198 0.54625 0.19128 0.0
C982 C 0.71574 0.54558 0.21056 0.0
H983 H 0.74162 0.54372 0.15117 0.0
H984 H 0.68385 0.54528 0.19322 0.0
H985 H 0.7234 0.5014 0.11869 0.0
H986 H 0.7253 0.45914 0.17565 0.0
H987 H 0.66693 0.61347 0.13776 0.0
H988 H 0.76634 0.54302 0.18358 0.0
H989 H 0.70785 0.54525 0.22702 0.0
C990 C 0.54595 0.70574 0.16192 0.0
C991 C 0.56429 0.71972 0.15921 0.0
N992 N 0.56233 0.73011 0.13909 0.0
N993 N 0.53251 0.70736 0.14361 0.0
C994 C 0.54302 0.72223 0.12996 0.0
H995 H 0.5427 0.69494 0.17626 0.0
Co996 Co 0.50608 0.69119 0.13878 0.0
C997 C 0.49023 0.70997 0.09321 0.0
O998 O 0.48646 0.68993 0.08447 0.0
N999 N 0.47919 0.67422 0.1342 0.0
C1000 C 0.44367 0.66413 0.1267 0.0
C1001 C 0.45857 0.68199 0.12836 0.0
C1002 C 0.47618 0.6516 0.13638 0.0
N1003 N 0.45477 0.64495 0.13181 0.0
O1004 O 0.52355 0.67034 0.1203 0.0
H1005 H 0.45451 0.69959 0.12566 0.0
H1006 H 0.48942 0.64007 0.14126 0.0
O1007 O 0.49834 0.71137 0.11315 0.0
C1008 C 0.53309 0.65597 0.13342 0.0
O1009 O 0.52698 0.65571 0.15473 0.0
N1010 N 0.49135 0.71086 0.15907 0.0
C1011 C 0.4951 0.74377 0.19251 0.0
C1012 C 0.48814 0.74956 0.17063 0.0
C1013 C 0.48612 0.73281 0.15414 0.0
C1014 C 0.49472 0.70452 0.18093 0.0
C1015 C 0.49681 0.72078 0.19799 0.0
H1016 H 0.48255 0.73813 0.13715 0.0
H1017 H 0.49905 0.68716 0.18462 0.0
H1018 H 0.53703 0.72678 0.11334 0.0
H1019 H 0.57793 0.7221 0.17112 0.0
H1020 H 0.42587 0.66529 0.12275 0.0
H1021 H 0.48593 0.76709 0.16587 0.0
H1022 H 0.50204 0.71553 0.2147 0.0
C1023 C 0.32747 0.54948 0.16441 0.0
C1024 C 0.31288 0.56637 0.15786 0.0
N1025 N 0.3049 0.56116 0.13722 0.0
N1026 N 0.32859 0.53383 0.14793 0.0
C1027 C 0.31487 0.54155 0.13152 0.0
H1028 H 0.33645 0.54844 0.18027 0.0
Co1029 Co 0.34529 0.50741 0.14853 0.0
C1030 C 0.31761 0.47576 0.11942 0.0
O1031 O 0.3199 0.45989 0.13461 0.0
N1032 N 0.36359 0.48028 0.14925 0.0
C1033 C 0.37729 0.44578 0.1566 0.0
C1034 C 0.35951 0.46041 0.15983 0.0
C1035 C 0.38451 0.47718 0.1402 0.0
N1036 N 0.39307 0.45637 0.14431 0.0
O1037 O 0.36673 0.5223 0.1287 0.0
H1038 H 0.34466 0.4566 0.16969 0.0
H1039 H 0.39369 0.48993 0.13098 0.0
O1040 O 0.32699 0.4951 0.12249 0.0
C1041 C 0.38107 0.53293 0.14094 0.0
O1042 O 0.38122 0.52873 0.16272 0.0
N1043 N 0.32468 0.49619 0.17037 0.0
C1044 C 0.29613 0.50234 0.2079 0.0
C1045 C 0.28736 0.50097 0.18585 0.0
C1046 C 0.30183 0.4978 0.1674 0.0
C1047 C 0.33336 0.49578 0.19169 0.0
C1048 C 0.3194 0.49833 0.21061 0.0
H1049 H 0.29482 0.49973 0.15071 0.0
H1050 H 0.35146 0.49562 0.19402 0.0
H1051 H 0.31228 0.53308 0.11556 0.0
H1052 H 0.30812 0.58102 0.16769 0.0
H1053 H 0.37897 0.42902 0.16369 0.0
H1054 H 0.26974 0.50432 0.18248 0.0
H1055 H 0.32715 0.49855 0.22714 0.0
C1056 C 0.88039 0.49512 0.71376 0.0
C1057 C 0.8876 0.47696 0.72642 0.0
N1058 N 0.90988 0.47936 0.73023 0.0
N1059 N 0.89801 0.50903 0.70999 0.0
C1060 C 0.91571 0.49883 0.72 0.0
H1061 H 0.86348 0.49779 0.70747 0.0
Co1062 Co 0.89905 0.5357 0.6934 0.0
C1063 C 0.94429 0.55467 0.71089 0.0
O1064 O 0.95281 0.55762 0.69064 0.0
N1065 N 0.90046 0.5629 0.67597 0.0
C1066 C 0.90648 0.59867 0.66558 0.0
C1067 C 0.90497 0.58391 0.68359 0.0
C1068 C 0.89893 0.56554 0.6532 0.0
N1069 N 0.90269 0.58711 0.64636 0.0
O1070 O 0.91827 0.51998 0.67182 0.0
H1071 H 0.90737 0.58823 0.70116 0.0
H1072 H 0.8956 0.55181 0.64167 0.0
O1073 O 0.9245 0.54628 0.71281 0.0
C1074 C 0.90489 0.50931 0.6585 0.0
O1075 O 0.88318 0.51364 0.66001 0.0
N1076 N 0.87775 0.54841 0.71375 0.0
C1077 C 0.84397 0.54319 0.74652 0.0
C1078 C 0.86575 0.55047 0.75248 0.0
C1079 C 0.88239 0.55303 0.73589 0.0
C1080 C 0.856 0.54442 0.70729 0.0
C1081 C 0.83883 0.54161 0.72342 0.0
H1082 H 0.89929 0.55665 0.74142 0.0
H1083 H 0.85249 0.5404 0.68983 0.0
H1084 H 0.93265 0.50559 0.71984 0.0
H1085 H 0.87734 0.46291 0.73199 0.0
H1086 H 0.90981 0.61661 0.66662 0.0
H1087 H 0.87037 0.5527 0.77002 0.0
H1088 H 0.8223 0.53612 0.71789 0.0
C1089 C 0.55309 0.88354 0.69937 0.0
C1090 C 0.5696 0.88958 0.7146 0.0
N1091 N 0.56099 0.90533 0.72857 0.0
N1092 N 0.53425 0.89555 0.70361 0.0
C1093 C 0.53958 0.90855 0.72154 0.0
H1094 H 0.55472 0.87128 0.68594 0.0
Co1095 Co 0.50761 0.89359 0.68709 0.0
C1096 C 0.49051 0.93719 0.71276 0.0
O1097 O 0.50415 0.95292 0.70514 0.0
N1098 N 0.48009 0.89174 0.66996 0.0
C1099 C 0.44318 0.88861 0.66316 0.0
C1100 C 0.45996 0.88593 0.67894 0.0
C1101 C 0.47482 0.89795 0.64838 0.0
N1102 N 0.4524 0.89627 0.64387 0.0
O1103 O 0.52062 0.91501 0.66601 0.0
H1104 H 0.45733 0.88074 0.69621 0.0
H1105 H 0.48691 0.90455 0.63644 0.0
O1106 O 0.49265 0.91684 0.70578 0.0
C1107 C 0.53077 0.90418 0.65023 0.0
O1108 O 0.52611 0.88264 0.64772 0.0
N1109 N 0.49811 0.87069 0.7074 0.0
C1110 C 0.50038 0.83524 0.73886 0.0
C1111 C 0.49462 0.85723 0.74557 0.0
C1112 C 0.49382 0.87469 0.72974 0.0
C1113 C 0.50247 0.84922 0.70028 0.0
C1114 C 0.50376 0.83124 0.71572 0.0
H1115 H 0.49165 0.89157 0.73608 0.0
H1116 H 0.50671 0.8463 0.68276 0.0
H1117 H 0.52817 0.92041 0.72925 0.0
H1118 H 0.58653 0.88279 0.71536 0.0
H1119 H 0.42541 0.88535 0.66583 0.0
H1120 H 0.49232 0.86136 0.76322 0.0
H1121 H 0.50815 0.81456 0.70969 0.0
C1122 C 0.16569 0.55128 0.71747 0.0
C1123 C 0.15797 0.56929 0.73006 0.0
N1124 N 0.13559 0.56667 0.73324 0.0
N1125 N 0.14826 0.53732 0.71311 0.0
C1126 C 0.13021 0.54726 0.72268 0.0
H1127 H 0.18287 0.54841 0.71205 0.0
Co1128 Co 0.14796 0.51038 0.69723 0.0
C1129 C 0.10409 0.48944 0.7141 0.0
O1130 O 0.09679 0.48562 0.69351 0.0
N1131 N 0.14729 0.48283 0.68051 0.0
C1132 C 0.14293 0.44651 0.6713 0.0
C1133 C 0.14473 0.46176 0.68886 0.0
C1134 C 0.14741 0.47976 0.65777 0.0
N1135 N 0.14461 0.45786 0.65168 0.0
O1136 O 0.12792 0.52499 0.67568 0.0
H1137 H 0.14378 0.45776 0.70664 0.0
H1138 H 0.14899 0.49335 0.64573 0.0
O1139 O 0.12313 0.4992 0.71686 0.0
C1140 C 0.14005 0.53579 0.66135 0.0
O1141 O 0.16192 0.53217 0.66139 0.0
N1142 N 0.16966 0.49876 0.71773 0.0
C1143 C 0.20653 0.50134 0.74737 0.0
C1144 C 0.18434 0.50076 0.75558 0.0
C1145 C 0.16615 0.49937 0.74055 0.0
C1146 C 0.19112 0.49743 0.70949 0.0
C1147 C 0.20982 0.49852 0.72405 0.0
H1148 H 0.1494 0.50135 0.74734 0.0
H1149 H 0.19381 0.49778 0.69144 0.0
H1150 H 0.11342 0.54013 0.72226 0.0
H1151 H 0.16802 0.5832 0.73632 0.0
H1152 H 0.14083 0.42843 0.67287 0.0
H1153 H 0.18098 0.50264 0.77345 0.0
H1154 H 0.22664 0.49896 0.71693 0.0
C1155 C 0.4954 0.16812 0.716 0.0
C1156 C 0.4768 0.16411 0.72933 0.0
N1157 N 0.47812 0.1428 0.7372 0.0
N1158 N 0.50848 0.14951 0.71565 0.0
C1159 C 0.49745 0.13435 0.72857 0.0
H1160 H 0.49908 0.18356 0.70698 0.0
Co1161 Co 0.53525 0.14598 0.69972 0.0
C1162 C 0.55181 0.10051 0.71645 0.0
O1163 O 0.55503 0.09309 0.6958 0.0
N1164 N 0.56257 0.14248 0.68295 0.0
C1165 C 0.59837 0.13543 0.67347 0.0
C1166 C 0.58334 0.13789 0.69114 0.0
C1167 C 0.56562 0.1431 0.66022 0.0
N1168 N 0.5872 0.13873 0.65394 0.0
O1169 O 0.51886 0.12704 0.67861 0.0
H1170 H 0.58733 0.13623 0.70887 0.0
H1171 H 0.55223 0.1464 0.64832 0.0
O1172 O 0.54373 0.1203 0.71939 0.0
C1173 C 0.50928 0.13943 0.66369 0.0
O1174 O 0.51436 0.16101 0.66313 0.0
N1175 N 0.54899 0.16668 0.71987 0.0
C1176 C 0.54968 0.20235 0.75114 0.0
C1177 C 0.5528 0.17988 0.75811 0.0
C1178 C 0.55233 0.16231 0.7423 0.0
C1179 C 0.54807 0.18847 0.71249 0.0
C1180 C 0.54826 0.20656 0.72783 0.0
H1181 H 0.55262 0.14528 0.74865 0.0
H1182 H 0.54484 0.19179 0.69483 0.0
H1183 H 0.50354 0.11744 0.73171 0.0
H1184 H 0.46319 0.17584 0.73262 0.0
H1185 H 0.61624 0.13196 0.67494 0.0
H1186 H 0.55382 0.17561 0.77584 0.0
H1187 H 0.5462 0.22359 0.72152 0.0
C1188 C 0.88001 0.56008 0.3354 0.0
C1189 C 0.88681 0.57691 0.32087 0.0
N1190 N 0.90638 0.57045 0.31131 0.0
N1191 N 0.8953 0.54321 0.33504 0.0
C1192 C 0.91119 0.55011 0.32029 0.0
H1193 H 0.86473 0.55996 0.34536 0.0
Co1194 Co 0.8932 0.51646 0.35137 0.0
C1195 C 0.93806 0.49877 0.3275 0.0
O1196 O 0.95425 0.51018 0.33745 0.0
N1197 N 0.89118 0.48919 0.36834 0.0
C1198 C 0.89281 0.45253 0.37701 0.0
C1199 C 0.89105 0.46807 0.35975 0.0
C1200 C 0.89261 0.48591 0.39101 0.0
N1201 N 0.89386 0.46378 0.39671 0.0
O1202 O 0.91352 0.52957 0.37368 0.0
H1203 H 0.89018 0.46413 0.34199 0.0
H1204 H 0.89351 0.49943 0.40321 0.0
O1205 O 0.91749 0.50205 0.33334 0.0
C1206 C 0.90115 0.54112 0.38721 0.0
O1207 O 0.87913 0.53951 0.38525 0.0
N1208 N 0.87136 0.50649 0.3301 0.0
C1209 C 0.83747 0.51287 0.29756 0.0
C1210 C 0.85968 0.50768 0.29122 0.0
C1211 C 0.87637 0.50485 0.30762 0.0
C1212 C 0.84946 0.50924 0.33671 0.0
C1213 C 0.8322 0.51245 0.32069 0.0
H1214 H 0.89356 0.50404 0.30184 0.0
H1215 H 0.84569 0.51142 0.35443 0.0
H1216 H 0.92611 0.54057 0.31615 0.0
H1217 H 0.87782 0.5924 0.31723 0.0
H1218 H 0.89315 0.43435 0.3752 0.0
H1219 H 0.86456 0.50748 0.2736 0.0
H1220 H 0.81533 0.51647 0.32644 0.0
C1221 C 0.49225 0.87585 0.32582 0.0
C1222 C 0.47565 0.88447 0.31208 0.0
N1223 N 0.483 0.90426 0.3036 0.0
N1224 N 0.50994 0.89012 0.32593 0.0
C1225 C 0.5038 0.90732 0.31235 0.0
H1226 H 0.49152 0.86021 0.33521 0.0
Co1227 Co 0.53582 0.88582 0.3427 0.0
C1228 C 0.57199 0.91086 0.31797 0.0
O1229 O 0.58487 0.89325 0.32169 0.0
N1230 N 0.56237 0.88109 0.36128 0.0
C1231 C 0.59276 0.86615 0.37804 0.0
C1232 C 0.57824 0.86467 0.35999 0.0
C1233 C 0.56818 0.89253 0.38036 0.0
N1234 N 0.58635 0.8836 0.39106 0.0
O1235 O 0.52288 0.90609 0.36489 0.0
H1236 H 0.57967 0.85229 0.34673 0.0
H1237 H 0.55885 0.90684 0.38675 0.0
O1238 O 0.55167 0.91094 0.32563 0.0
C1239 C 0.5133 0.89464 0.38057 0.0
O1240 O 0.51806 0.87304 0.38214 0.0
N1241 N 0.54453 0.86369 0.32142 0.0
C1242 C 0.53545 0.82827 0.29112 0.0
C1243 C 0.54029 0.85019 0.2833 0.0
C1244 C 0.54477 0.86764 0.29867 0.0
C1245 C 0.54086 0.84236 0.32925 0.0
C1246 C 0.53703 0.82438 0.31447 0.0
H1247 H 0.54559 0.88466 0.29224 0.0
H1248 H 0.53907 0.83955 0.34719 0.0
H1249 H 0.51414 0.92204 0.30928 0.0
H1250 H 0.45954 0.87666 0.30844 0.0
H1251 H 0.60708 0.85525 0.38115 0.0
H1252 H 0.53877 0.85444 0.26561 0.0
H1253 H 0.53396 0.80783 0.32155 0.0
C1254 C 0.17021 0.4932 0.3375 0.0
C1255 C 0.16621 0.47471 0.32399 0.0
N1256 N 0.1458 0.47728 0.31431 0.0
N1257 N 0.15254 0.5075 0.33612 0.0
C1258 C 0.13792 0.49724 0.32199 0.0
H1259 H 0.1849 0.49582 0.34801 0.0
Co1260 Co 0.14876 0.53443 0.35202 0.0
C1261 C 0.10469 0.55313 0.33013 0.0
O1262 O 0.09524 0.56076 0.34867 0.0
N1263 N 0.14498 0.56173 0.36881 0.0
C1264 C 0.138 0.59746 0.37873 0.0
C1265 C 0.1406 0.58265 0.36088 0.0
C1266 C 0.14539 0.56448 0.3916 0.0
N1267 N 0.14104 0.58601 0.39814 0.0
O1268 O 0.12928 0.51795 0.37278 0.0
H1269 H 0.13922 0.58691 0.34319 0.0
H1270 H 0.14858 0.55092 0.40334 0.0
O1271 O 0.12375 0.54297 0.33131 0.0
C1272 C 0.14196 0.50788 0.38719 0.0
O1273 O 0.16351 0.51313 0.38745 0.0
N1274 N 0.17007 0.54809 0.3323 0.0
C1275 C 0.20252 0.54313 0.29833 0.0
C1276 C 0.18116 0.55222 0.2935 0.0
C1277 C 0.16523 0.55481 0.31075 0.0
C1278 C 0.19174 0.5426 0.33788 0.0
C1279 C 0.20824 0.53981 0.3211 0.0
H1280 H 0.14857 0.56036 0.3061 0.0
H1281 H 0.19548 0.53727 0.35494 0.0
H1282 H 0.12168 0.50417 0.3175 0.0
H1283 H 0.17718 0.46024 0.32201 0.0
H1284 H 0.13464 0.61538 0.37748 0.0
H1285 H 0.17627 0.5559 0.27627 0.0
H1286 H 0.22455 0.533 0.32572 0.0
C1287 C 0.5568 0.16231 0.33107 0.0
C1288 C 0.57324 0.15471 0.31647 0.0
N1289 N 0.56787 0.13353 0.3101 0.0
N1290 N 0.5412 0.14599 0.33376 0.0
C1291 C 0.54855 0.1286 0.32104 0.0
H1292 H 0.55598 0.1788 0.33887 0.0
Co1293 Co 0.51508 0.14779 0.35087 0.0
C1294 C 0.48251 0.11907 0.32411 0.0
O1295 O 0.46763 0.13534 0.32565 0.0
N1296 N 0.48819 0.14954 0.36949 0.0
C1297 C 0.45393 0.15762 0.38334 0.0
C1298 C 0.4685 0.1605 0.36548 0.0
C1299 C 0.48499 0.14054 0.39043 0.0
N1300 N 0.46435 0.14513 0.39909 0.0
O1301 O 0.5302 0.12888 0.3731 0.0
H1302 H 0.46471 0.17028 0.35058 0.0
H1303 H 0.49753 0.13091 0.3995 0.0
O1304 O 0.5019 0.12127 0.33367 0.0
C1305 C 0.54023 0.14209 0.38707 0.0
O1306 O 0.53532 0.16372 0.38624 0.0
N1307 N 0.50387 0.16905 0.32963 0.0
C1308 C 0.50799 0.20576 0.29971 0.0
C1309 C 0.50704 0.18342 0.29169 0.0
C1310 C 0.50505 0.16537 0.30685 0.0
C1311 C 0.50345 0.19064 0.33765 0.0
C1312 C 0.50501 0.20916 0.32302 0.0
H1313 H 0.50732 0.14852 0.30034 0.0
H1314 H 0.50384 0.19354 0.35566 0.0
H1315 H 0.53996 0.11255 0.31979 0.0
H1316 H 0.58763 0.16425 0.31054 0.0
H1317 H 0.43731 0.16501 0.38506 0.0
H1318 H 0.50981 0.17962 0.27405 0.0
H1319 H 0.5052 0.22597 0.33019 0.0
C1320 C 0.70767 0.90242 0.48827 0.0
C1321 C 0.72112 0.91108 0.47174 0.0
N1322 N 0.72961 0.9308 0.47911 0.0
N1323 N 0.7074 0.91656 0.50619 0.0
C1324 C 0.72102 0.93382 0.50008 0.0
H1325 H 0.69953 0.88609 0.4876 0.0
Co1326 Co 0.69252 0.90963 0.53327 0.0
C1327 C 0.72759 0.92445 0.56807 0.0
O1328 O 0.72782 0.90436 0.57737 0.0
N1329 N 0.67616 0.90293 0.55992 0.0
C1330 C 0.66189 0.89028 0.5924 0.0
C1331 C 0.68008 0.88933 0.57781 0.0
C1332 C 0.65529 0.91151 0.56391 0.0
N1333 N 0.64629 0.90424 0.5836 0.0
O1334 O 0.66967 0.89376 0.51551 0.0
H1335 H 0.69469 0.87861 0.57981 0.0
H1336 H 0.64655 0.92254 0.55228 0.0
O1337 O 0.71478 0.92826 0.551 0.0
C1338 C 0.65603 0.90637 0.50446 0.0
O1339 O 0.65688 0.92827 0.50795 0.0
N1340 N 0.7115 0.88284 0.53507 0.0
C1341 C 0.74096 0.84645 0.52589 0.0
C1342 C 0.74901 0.86852 0.52808 0.0
C1343 C 0.73421 0.88625 0.53228 0.0
C1344 C 0.70333 0.8612 0.5344 0.0
C1345 C 0.71782 0.84271 0.52991 0.0
H1346 H 0.74113 0.90305 0.53152 0.0
H1347 H 0.68541 0.85822 0.53612 0.0
H1348 H 0.72509 0.94788 0.511 0.0
H1349 H 0.72539 0.90278 0.45604 0.0
H1350 H 0.65974 0.88046 0.60766 0.0
H1351 H 0.7667 0.87235 0.52547 0.0
H1352 H 0.71079 0.82591 0.5284 0.0
C1353 C 0.71583 0.16797 0.55689 0.0
C1354 C 0.72836 0.16055 0.57507 0.0
N1355 N 0.73161 0.13811 0.57286 0.0
N1356 N 0.71151 0.15029 0.54323 0.0
C1357 C 0.72111 0.13241 0.55351 0.0
H1358 H 0.71034 0.1851 0.55375 0.0
Co1359 Co 0.69566 0.14911 0.51622 0.0
C1360 C 0.71827 0.10682 0.49437 0.0
O1361 O 0.69995 0.09741 0.48618 0.0
N1362 N 0.67913 0.14744 0.48863 0.0
C1363 C 0.67036 0.14265 0.45229 0.0
C1364 C 0.68772 0.145 0.46767 0.0
C1365 C 0.65642 0.14699 0.48538 0.0
N1366 N 0.65061 0.14389 0.46344 0.0
O1367 O 0.67486 0.12833 0.53094 0.0
H1368 H 0.70555 0.14466 0.4638 0.0
H1369 H 0.64423 0.14849 0.49885 0.0
O1370 O 0.71671 0.12525 0.50555 0.0
C1371 C 0.66076 0.1408 0.5417 0.0
O1372 O 0.66111 0.16263 0.53771 0.0
N1373 N 0.71507 0.1717 0.50447 0.0
C1374 C 0.74315 0.20975 0.50628 0.0
C1375 C 0.75228 0.18794 0.5054 0.0
C1376 C 0.73802 0.16918 0.50441 0.0
C1377 C 0.70589 0.19281 0.50338 0.0
C1378 C 0.71966 0.21212 0.50411 0.0
H1379 H 0.74561 0.1528 0.50606 0.0
H1380 H 0.68775 0.19474 0.50418 0.0
H1381 H 0.72067 0.11549 0.54667 0.0
H1382 H 0.73445 0.17087 0.58886 0.0
H1383 H 0.67215 0.14058 0.43423 0.0
H1384 H 0.77032 0.18534 0.50679 0.0
H1385 H 0.71189 0.22866 0.50478 0.0
C1386 C 0.87673 0.71366 0.55263 0.0
C1387 C 0.88514 0.72561 0.57071 0.0
N1388 N 0.90692 0.73061 0.56644 0.0
N1389 N 0.89308 0.71145 0.53699 0.0
C1390 C 0.9113 0.7217 0.54597 0.0
H1391 H 0.85983 0.70698 0.55096 0.0
Co1392 Co 0.89108 0.69651 0.5097 0.0
C1393 C 0.91854 0.72637 0.47841 0.0
O1394 O 0.90219 0.72519 0.46357 0.0
N1395 N 0.88918 0.68015 0.48141 0.0
C1396 C 0.87974 0.66985 0.44636 0.0
C1397 C 0.87604 0.68511 0.46338 0.0
C1398 C 0.90053 0.66121 0.47466 0.0
N1399 N 0.89511 0.65473 0.45335 0.0
O1400 O 0.91123 0.67383 0.52253 0.0
H1401 H 0.86477 0.69935 0.46203 0.0
H1402 H 0.91289 0.65254 0.48491 0.0
O1403 O 0.91671 0.71568 0.49726 0.0
C1404 C 0.89913 0.65856 0.53205 0.0
O1405 O 0.87754 0.65793 0.52699 0.0
N1406 N 0.86857 0.71781 0.50092 0.0
C1407 C 0.83089 0.74663 0.50458 0.0
C1408 C 0.85288 0.75538 0.50299 0.0
C1409 C 0.87148 0.74073 0.50167 0.0
C1410 C 0.84726 0.70907 0.50184 0.0
C1411 C 0.82826 0.7231 0.50345 0.0
H1412 H 0.88812 0.74785 0.50346 0.0
H1413 H 0.84505 0.69096 0.50282 0.0
H1414 H 0.92746 0.72281 0.53757 0.0
H1415 H 0.87601 0.73001 0.5859 0.0
H1416 H 0.87164 0.66987 0.42997 0.0
H1417 H 0.85585 0.77336 0.50453 0.0
H1418 H 0.8117 0.71549 0.50474 0.0
C1419 C 0.32947 0.88045 0.54266 0.0
C1420 C 0.31492 0.89017 0.55793 0.0
N1421 N 0.31253 0.9121 0.5524 0.0
N1422 N 0.33569 0.89616 0.52742 0.0
C1423 C 0.32549 0.91536 0.5341 0.0
H1424 H 0.33455 0.86292 0.5422 0.0
Co1425 Co 0.35277 0.89177 0.50182 0.0
C1426 C 0.33143 0.92196 0.46664 0.0
O1427 O 0.33701 0.90699 0.45134 0.0
N1428 N 0.37149 0.88722 0.4755 0.0
C1429 C 0.38667 0.87467 0.44324 0.0
C1430 C 0.3688 0.8727 0.45803 0.0
C1431 C 0.39155 0.89748 0.47087 0.0
N1432 N 0.40099 0.89024 0.45139 0.0
O1433 O 0.37642 0.90963 0.51621 0.0
H1434 H 0.35473 0.86133 0.45586 0.0
H1435 H 0.39948 0.90987 0.48166 0.0
O1436 O 0.33745 0.91879 0.48726 0.0
C1437 C 0.38981 0.89594 0.52635 0.0
O1438 O 0.3872 0.8742 0.52283 0.0
N1439 N 0.32984 0.87173 0.49134 0.0
C1440 C 0.29521 0.84016 0.49934 0.0
C1441 C 0.29025 0.86255 0.49323 0.0
C1442 C 0.3077 0.87809 0.48957 0.0
C1443 C 0.33498 0.84958 0.49524 0.0
C1444 C 0.31797 0.83352 0.49917 0.0
H1445 H 0.30306 0.8956 0.48818 0.0
H1446 H 0.3524 0.84479 0.49789 0.0
H1447 H 0.32667 0.93126 0.52522 0.0
H1448 H 0.30641 0.88173 0.57171 0.0
H1449 H 0.38942 0.86473 0.42815 0.0
H1450 H 0.27298 0.86852 0.49287 0.0
H1451 H 0.32278 0.81657 0.50401 0.0
C1452 C 0.17357 0.33355 0.55156 0.0
C1453 C 0.16978 0.32068 0.57053 0.0
N1454 N 0.14847 0.31284 0.56962 0.0
N1455 N 0.15482 0.33354 0.53864 0.0
C1456 C 0.13983 0.32091 0.55015 0.0
H1457 H 0.18884 0.34275 0.54771 0.0
Co1458 Co 0.15033 0.34943 0.51197 0.0
C1459 C 0.10498 0.33109 0.49573 0.0
O1460 O 0.09673 0.35141 0.49237 0.0
N1461 N 0.14592 0.36616 0.48487 0.0
C1462 C 0.13829 0.37575 0.44924 0.0
C1463 C 0.14109 0.35803 0.46413 0.0
C1464 C 0.14633 0.38891 0.48195 0.0
N1465 N 0.14161 0.39526 0.46046 0.0
O1466 O 0.13141 0.37028 0.52901 0.0
H1467 H 0.13958 0.34029 0.46007 0.0
H1468 H 0.14982 0.40074 0.49538 0.0
O1469 O 0.12483 0.32907 0.50394 0.0
C1470 C 0.1442 0.38469 0.53894 0.0
O1471 O 0.16566 0.38508 0.53335 0.0
N1472 N 0.17107 0.32969 0.49768 0.0
C1473 C 0.20525 0.29734 0.50124 0.0
C1474 C 0.1833 0.29111 0.49489 0.0
C1475 C 0.16644 0.30754 0.49305 0.0
C1476 C 0.1929 0.33643 0.50053 0.0
C1477 C 0.21032 0.32047 0.50252 0.0
H1478 H 0.14947 0.30183 0.49006 0.0
H1479 H 0.19639 0.35392 0.50445 0.0
H1480 H 0.12278 0.3178 0.54444 0.0
H1481 H 0.18156 0.31789 0.58422 0.0
H1482 H 0.13461 0.37433 0.4314 0.0
H1483 H 0.17879 0.27349 0.493 0.0
H1484 H 0.22704 0.3261 0.50727 0.0
C1485 C 0.33631 0.16646 0.4918 0.0
C1486 C 0.3216 0.15851 0.47565 0.0
N1487 N 0.3149 0.13761 0.48172 0.0
N1488 N 0.33872 0.15071 0.50802 0.0
C1489 C 0.32577 0.13325 0.50125 0.0
H1490 H 0.34437 0.18284 0.492 0.0
Co1491 Co 0.35583 0.15336 0.53411 0.0
C1492 C 0.3305 0.12688 0.56907 0.0
O1493 O 0.3369 0.14191 0.58398 0.0
N1494 N 0.3745 0.15603 0.56091 0.0
C1495 C 0.38987 0.1671 0.59366 0.0
C1496 C 0.37289 0.1709 0.57825 0.0
C1497 C 0.39315 0.14366 0.56631 0.0
N1498 N 0.40263 0.15 0.58611 0.0
O1499 O 0.37705 0.13259 0.52048 0.0
H1500 H 0.36 0.18362 0.58013 0.0
H1501 H 0.39996 0.1303 0.55591 0.0
O1502 O 0.33747 0.12866 0.54861 0.0
C1503 C 0.39331 0.14348 0.51127 0.0
O1504 O 0.39585 0.1649 0.51648 0.0
N1505 N 0.3353 0.17593 0.54392 0.0
C1506 C 0.30536 0.21228 0.53727 0.0
C1507 C 0.29733 0.19027 0.54116 0.0
C1508 C 0.31248 0.17239 0.54441 0.0
C1509 C 0.34342 0.19733 0.54134 0.0
C1510 C 0.32883 0.21572 0.53855 0.0
H1511 H 0.30569 0.1555 0.54446 0.0
H1512 H 0.3614 0.19994 0.5396 0.0
H1513 H 0.3244 0.11754 0.51041 0.0
H1514 H 0.31582 0.16768 0.46095 0.0
H1515 H 0.39309 0.17673 0.60886 0.0
H1516 H 0.27955 0.18634 0.53979 0.0
H1517 H 0.33608 0.23231 0.53612 0.0
C1518 C 0.86977 0.3339 0.49256 0.0
C1519 C 0.87454 0.32005 0.47446 0.0
N1520 N 0.8962 0.31335 0.47614 0.0
N1521 N 0.88825 0.33559 0.50575 0.0
C1522 C 0.90408 0.32313 0.49513 0.0
H1523 H 0.85386 0.34221 0.49583 0.0
Co1524 Co 0.89177 0.35185 0.53249 0.0
C1525 C 0.93619 0.33091 0.55064 0.0
O1526 O 0.94563 0.3498 0.55742 0.0
N1527 N 0.89561 0.36873 0.55969 0.0
C1528 C 0.90307 0.37802 0.59547 0.0
C1529 C 0.89977 0.36043 0.58051 0.0
C1530 C 0.89606 0.39149 0.56265 0.0
N1531 N 0.90073 0.39764 0.58422 0.0
O1532 O 0.91101 0.37263 0.51595 0.0
H1533 H 0.90066 0.34265 0.58458 0.0
H1534 H 0.89337 0.40349 0.54919 0.0
O1535 O 0.91683 0.33151 0.5411 0.0
C1536 C 0.89804 0.38707 0.50632 0.0
O1537 O 0.87654 0.387 0.51178 0.0
N1538 N 0.87057 0.33225 0.54638 0.0
C1539 C 0.83542 0.30047 0.5475 0.0
C1540 C 0.85765 0.29435 0.55314 0.0
C1541 C 0.87494 0.31044 0.55254 0.0
C1542 C 0.84881 0.33907 0.54323 0.0
C1543 C 0.831 0.32345 0.54352 0.0
H1544 H 0.89188 0.30464 0.55544 0.0
H1545 H 0.84549 0.35629 0.53812 0.0
H1546 H 0.9211 0.32101 0.50134 0.0
H1547 H 0.86303 0.31549 0.46102 0.0
H1548 H 0.90651 0.37647 0.61334 0.0
H1549 H 0.86209 0.27693 0.5564 0.0
H1550 H 0.8141 0.32918 0.5396 0.0
C1551 C 0.16181 0.7128 0.49427 0.0
C1552 C 0.15409 0.72705 0.47759 0.0
N1553 N 0.13317 0.73394 0.48325 0.0
N1554 N 0.14582 0.71086 0.51031 0.0
C1555 C 0.1285 0.72366 0.50298 0.0
H1556 H 0.17815 0.70468 0.49492 0.0
Co1557 Co 0.14777 0.69419 0.53668 0.0
C1558 C 0.12054 0.72274 0.56918 0.0
O1559 O 0.1376 0.72194 0.58321 0.0
N1560 N 0.1496 0.67591 0.56384 0.0
C1561 C 0.15746 0.66256 0.59837 0.0
C1562 C 0.16054 0.68017 0.58348 0.0
C1563 C 0.14045 0.65507 0.56738 0.0
N1564 N 0.14486 0.64671 0.5882 0.0
O1565 O 0.1282 0.6721 0.52213 0.0
H1566 H 0.17053 0.69502 0.58695 0.0
H1567 H 0.13081 0.64585 0.55495 0.0
O1568 O 0.12177 0.71216 0.55021 0.0
C1569 C 0.14112 0.65813 0.5117 0.0
O1570 O 0.16278 0.65864 0.51642 0.0
N1571 N 0.16975 0.71533 0.54708 0.0
C1572 C 0.20676 0.74448 0.54021 0.0
C1573 C 0.18462 0.75289 0.54165 0.0
C1574 C 0.16643 0.73812 0.54496 0.0
C1575 C 0.19123 0.70701 0.54727 0.0
C1576 C 0.2099 0.72126 0.54423 0.0
H1577 H 0.14965 0.74481 0.54277 0.0
H1578 H 0.19385 0.68894 0.54763 0.0
H1579 H 0.11267 0.72541 0.51187 0.0
H1580 H 0.16337 0.73239 0.4628 0.0
H1581 H 0.1648 0.66105 0.61504 0.0
H1582 H 0.181 0.77046 0.53816 0.0
H1583 H 0.22658 0.71382 0.54368 0.0
H1584 H 0.11394 0.28591 0.5031 0.0
H1585 H 0.06806 0.33017 0.46789 0.0
H1586 H 0.04982 0.29764 0.45033 0.0
H1587 H 0.04786 0.25647 0.44326 0.0
H1588 H 0.09379 0.21226 0.47851 0.0
H1589 H 0.11073 0.24464 0.4975 0.0
C1590 C 0.09995 0.2885 0.4916 0.0
C1591 C 0.09268 0.31073 0.48677 0.0
C1592 C 0.08946 0.26957 0.48136 0.0
C1593 C 0.07418 0.31345 0.47205 0.0
C1594 C 0.06372 0.29477 0.46186 0.0
C1595 C 0.06154 0.25384 0.45512 0.0
C1596 C 0.06953 0.2317 0.45915 0.0
C1597 C 0.07138 0.27272 0.46611 0.0
C1598 C 0.08714 0.2289 0.47491 0.0
C1599 C 0.09697 0.24752 0.4858 0.0
H1600 H 0.72942 0.07579 0.46152 0.0
H1601 H 0.75919 0.11725 0.51345 0.0
H1602 H 0.79686 0.10703 0.50037 0.0
H1603 H 0.82173 0.08781 0.47285 0.0
H1604 H 0.79202 0.04387 0.42294 0.0
H1605 H 0.7544 0.05338 0.43661 0.0
C1606 C 0.74411 0.08245 0.47016 0.0
C1607 C 0.74121 0.09795 0.48808 0.0
C1608 C 0.76596 0.07613 0.46276 0.0
C1609 C 0.76066 0.10603 0.49911 0.0
C1610 C 0.78234 0.10001 0.49174 0.0
C1611 C 0.80708 0.08016 0.46501 0.0
C1612 C 0.80997 0.06562 0.44631 0.0
C1613 C 0.78526 0.0854 0.47329 0.0
C1614 C 0.79057 0.0557 0.43678 0.0
C1615 C 0.7689 0.061 0.44474 0.0
H1616 H 0.91746 0.77157 0.48601 0.0
H1617 H 0.95948 0.71916 0.45846 0.0
H1618 H 0.98453 0.74772 0.44186 0.0
H1619 H 0.99115 0.78776 0.43046 0.0
H1620 H 0.94723 0.83953 0.45647 0.0
H1621 H 0.92684 0.81147 0.47874 0.0
C1622 C 0.93257 0.7664 0.4771 0.0
C1623 C 0.93684 0.74317 0.47397 0.0
C1624 C 0.94657 0.783 0.4671 0.0
C1625 C 0.95609 0.73685 0.46164 0.0
C1626 C 0.9703 0.75325 0.45192 0.0
C1627 C 0.97769 0.793 0.44167 0.0
C1628 C 0.97105 0.81596 0.44205 0.0
C1629 C 0.96534 0.77644 0.45391 0.0
C1630 C 0.95303 0.82217 0.45617 0.0
C1631 C 0.94115 0.80603 0.46874 0.0
H1632 H 0.26523 0.98034 0.40871 0.0
H1633 H 0.22153 0.97106 0.46589 0.0
H1634 H 0.25298 0.95413 0.4872 0.0
H1635 H 0.29199 0.93721 0.48732 0.0
H1636 H 0.33412 0.94662 0.42874 0.0
H1637 H 0.30466 0.96884 0.41066 0.0
C1638 C 0.26272 0.97559 0.42617 0.0
C1639 C 0.24106 0.97763 0.43582 0.0
C1640 C 0.28077 0.96559 0.43808 0.0
C1641 C 0.23809 0.97031 0.4582 0.0
C1642 C 0.25609 0.96036 0.4703 0.0
C1643 C 0.29496 0.94477 0.47093 0.0
C1644 C 0.31546 0.94022 0.45946 0.0
C1645 C 0.27743 0.95727 0.46017 0.0
C1646 C 0.31869 0.94985 0.43802 0.0
C1647 C 0.30173 0.96247 0.42755 0.0
H1648 H 0.04915 0.78406 0.61907 0.0
H1649 H 0.0978 0.83468 0.60007 0.0
H1650 H 0.11743 0.80739 0.57631 0.0
H1651 H 0.12452 0.76796 0.56583 0.0
H1652 H 0.07786 0.71616 0.586 0.0
H1653 H 0.05376 0.74473 0.6041 0.0
C1654 C 0.06358 0.78927 0.60912 0.0
C1655 C 0.07186 0.81159 0.61127 0.0
C1656 C 0.07542 0.77305 0.59591 0.0
C1657 C 0.09093 0.81778 0.59861 0.0
C1658 C 0.10231 0.80208 0.58513 0.0
C1659 C 0.10863 0.76301 0.57343 0.0
C1660 C 0.10279 0.73995 0.57408 0.0
C1661 C 0.09525 0.77949 0.58431 0.0
C1662 C 0.0825 0.7338 0.58471 0.0
C1663 C 0.06885 0.75018 0.59532 0.0
H1664 H 0.23834 0.07467 0.58735 0.0
H1665 H 0.26169 0.08448 0.65567 0.0
H1666 H 0.29719 0.09947 0.64191 0.0
H1667 H 0.32044 0.11317 0.61118 0.0
H1668 H 0.29821 0.10584 0.54238 0.0
H1669 H 0.264 0.08626 0.55541 0.0
C1670 C 0.25135 0.07984 0.59912 0.0
C1671 C 0.24709 0.07872 0.62259 0.0
C1672 C 0.27201 0.089 0.59101 0.0
C1673 C 0.26422 0.0855 0.63759 0.0
C1674 C 0.28465 0.09404 0.62974 0.0
C1675 C 0.3083 0.10703 0.59891 0.0
C1676 C 0.31196 0.11111 0.5758 0.0
C1677 C 0.28853 0.09639 0.60657 0.0
C1678 C 0.29602 0.10282 0.56025 0.0
C1679 C 0.27629 0.09181 0.56776 0.0
H1680 H 0.96071 0.22892 0.57396 0.0
H1681 H 1.0077 0.2621 0.61859 0.0
H1682 H 0.99589 0.2988 0.60426 0.0
H1683 H 0.97072 0.32201 0.58042 0.0
H1684 H 0.92436 0.28894 0.53502 0.0
H1685 H 0.93749 0.25211 0.54805 0.0
C1686 C 0.96853 0.24415 0.58045 0.0
C1687 C 0.98484 0.24251 0.59779 0.0
C1688 C 0.96166 0.26545 0.57199 0.0
C1689 C 0.99475 0.26261 0.60574 0.0
C1690 C 0.98807 0.28374 0.59742 0.0
C1691 C 0.96363 0.30678 0.57315 0.0
C1692 C 0.94625 0.30849 0.55691 0.0
C1693 C 0.97128 0.28545 0.58078 0.0
C1694 C 0.93745 0.28837 0.54777 0.0
C1695 C 0.945 0.26718 0.55521 0.0
H1696 H 0.77237 0.91777 0.57227 0.0
H1697 H 0.72117 0.96846 0.58147 0.0
H1698 H 0.74878 0.99324 0.6002 0.0
H1699 H 0.78665 0.99801 0.61854 0.0
H1700 H 0.8372 0.94675 0.60827 0.0
H1701 H 0.81111 0.92507 0.58496 0.0
C1702 C 0.76737 0.93444 0.578 0.0
C1703 C 0.74472 0.9412 0.57569 0.0
C1704 C 0.78337 0.94857 0.58854 0.0
C1705 C 0.73851 0.96289 0.58302 0.0
C1706 C 0.75431 0.977 0.59383 0.0
C1707 C 0.79218 0.98259 0.61037 0.0
C1708 C 0.81404 0.97417 0.61487 0.0
C1709 C 0.77671 0.96979 0.59726 0.0
C1710 C 0.82068 0.95378 0.60475 0.0
C1711 C 0.80564 0.9412 0.59165 0.0
H1712 H 0.49619 0.11341 0.28049 0.0
H1713 H 0.45414 0.08416 0.33195 0.0
H1714 H 0.43525 0.06072 0.30363 0.0
H1715 H 0.42615 0.05367 0.26353 0.0
H1716 H 0.4659 0.08544 0.21176 0.0
H1717 H 0.49037 0.10231 0.24053 0.0
C1718 C 0.48355 0.10121 0.2856 0.0
C1719 C 0.47697 0.10017 0.30847 0.0
C1720 C 0.47207 0.08841 0.26894 0.0
C1721 C 0.45993 0.08488 0.31462 0.0
C1722 C 0.44891 0.07167 0.29833 0.0
C1723 C 0.44074 0.06349 0.25853 0.0
C1724 C 0.4445 0.06779 0.2354 0.0
C1725 C 0.4542 0.07393 0.27531 0.0
C1726 C 0.46299 0.08133 0.22933 0.0
C1727 C 0.47682 0.09125 0.24586 0.0
H1728 H 0.9414 0.42837 0.24701 0.0
H1729 H 1.00925 0.45382 0.24024 0.0
H1730 H 1.00269 0.4797 0.27196 0.0
H1731 H 0.9775 0.49464 0.30248 0.0
H1732 H 0.91018 0.46745 0.30851 0.0
H1733 H 0.91684 0.44286 0.27651 0.0
C1734 C 0.95485 0.43962 0.25225 0.0
C1735 C 0.97586 0.43897 0.24101 0.0
C1736 C 0.95105 0.4542 0.27066 0.0
C1737 C 0.9929 0.45383 0.24835 0.0
C1738 C 0.98915 0.46862 0.26664 0.0
C1739 C 0.96431 0.48328 0.29685 0.0
C1740 C 0.9432 0.4832 0.30812 0.0
C1741 C 0.96831 0.46885 0.27811 0.0
C1742 C 0.92645 0.46827 0.30034 0.0
C1743 C 0.93026 0.45406 0.28192 0.0
H1744 H 0.63923 0.97003 0.26167 0.0
H1745 H 0.58476 0.96974 0.21369 0.0
H1746 H 0.56 0.95163 0.24177 0.0
H1747 H 0.55572 0.93108 0.27877 0.0
H1748 H 0.61159 0.93138 0.32537 0.0
H1749 H 0.63358 0.95454 0.2995 0.0
C1750 C 0.6217 0.96672 0.25757 0.0
C1751 C 0.6138 0.97161 0.23566 0.0
C1752 C 0.60779 0.95603 0.27368 0.0
C1753 C 0.59118 0.96663 0.23052 0.0
C1754 C 0.57709 0.95602 0.24656 0.0
C1755 C 0.5724 0.93691 0.28352 0.0
C1756 C 0.58189 0.92961 0.30423 0.0
C1757 C 0.58539 0.94999 0.26807 0.0
C1758 C 0.60379 0.93685 0.30976 0.0
C1759 C 0.61648 0.95 0.29485 0.0
H1760 H 0.07093 0.58355 0.32005 0.0
H1761 H 0.1172 0.53695 0.28855 0.0
H1762 H 0.10478 0.54948 0.25132 0.0
H1763 H 0.08217 0.57515 0.2273 0.0
H1764 H 0.03574 0.62158 0.25877 0.0
H1765 H 0.04676 0.6077 0.29597 0.0
C1766 C 0.07815 0.57591 0.30508 0.0
C1767 C 0.09519 0.55933 0.30739 0.0
C1768 C 0.071 0.58336 0.28348 0.0
C1769 C 0.10424 0.54981 0.28756 0.0
C1770 C 0.09712 0.55701 0.26613 0.0
C1771 C 0.07428 0.58214 0.24225 0.0
C1772 C 0.0583 0.59974 0.23998 0.0
C1773 C 0.08074 0.57401 0.26382 0.0
C1774 C 0.04836 0.60841 0.25976 0.0
C1775 C 0.05461 0.60036 0.28117 0.0
H1776 H 0.41757 0.93946 0.79102 0.0
H1777 H 0.4507 1.00239 0.80668 0.0
H1778 H 0.47626 0.99691 0.77458 0.0
H1779 H 0.4894 0.97389 0.74178 0.0
H1780 H 0.45503 0.91145 0.7266 0.0
H1781 H 0.42993 0.91719 0.75858 0.0
C1782 C 0.43043 0.95202 0.78761 0.0
C1783 C 0.43211 0.97132 0.80154 0.0
C1784 C 0.44493 0.94886 0.76899 0.0
C1785 C 0.4489 0.98735 0.79645 0.0
C1786 C 0.46354 0.98423 0.77799 0.0
C1787 C 0.47632 0.96162 0.74536 0.0
C1788 C 0.47436 0.94211 0.73166 0.0
C1789 C 0.46171 0.96504 0.76404 0.0
C1790 C 0.45725 0.92646 0.73679 0.0
C1791 C 0.44279 0.92974 0.75516 0.0
H1792 H 0.0455 0.43691 0.78747 0.0
H1793 H 0.08638 0.47694 0.83255 0.0
H1794 H 0.10443 0.49519 0.8004 0.0
H1795 H 0.11009 0.49887 0.75926 0.0
H1796 H 0.06917 0.4591 0.71403 0.0
H1797 H 0.04988 0.44197 0.74618 0.0
C1798 C 0.05832 0.44965 0.79031 0.0
C1799 C 0.06458 0.45526 0.81266 0.0
C1800 C 0.06882 0.46019 0.77157 0.0
C1801 C 0.08107 0.47213 0.81574 0.0
C1802 C 0.09155 0.48258 0.79727 0.0
C1803 C 0.09697 0.48645 0.75638 0.0
C1804 C 0.09137 0.48024 0.73404 0.0
C1805 C 0.08581 0.47658 0.77507 0.0
C1806 C 0.07398 0.46433 0.73087 0.0
C1807 C 0.06292 0.45441 0.74934 0.0
H1808 H 0.54209 0.10611 0.76156 0.0
H1809 H 0.58097 0.0647 0.71601 0.0
H1810 H 0.5975 0.04461 0.74797 0.0
H1811 H 0.6024 0.03971 0.78914 0.0
H1812 H 0.56296 0.08058 0.83469 0.0
H1813 H 0.54524 0.09958 0.8027 0.0
C1814 C 0.55413 0.09265 0.75859 0.0
C1815 C 0.56033 0.08717 0.73622 0.0
C1816 C 0.56359 0.08096 0.77718 0.0
C1817 C 0.57577 0.06939 0.73289 0.0
C1818 C 0.58535 0.05788 0.75124 0.0
C1819 C 0.58989 0.05272 0.79211 0.0
C1820 C 0.58427 0.05873 0.81449 0.0
C1821 C 0.57962 0.06367 0.7735 0.0
C1822 C 0.5677 0.07546 0.8178 0.0
C1823 C 0.55757 0.08647 0.79943 0.0
H1824 H 0.99941 0.60871 0.78591 0.0
H1825 H 0.9519 0.57497 0.82927 0.0
H1826 H 0.93748 0.55332 0.79719 0.0
H1827 H 0.93534 0.54697 0.75601 0.0
H1828 H 0.98137 0.58238 0.71218 0.0
H1829 H 0.99933 0.59996 0.74487 0.0
C1830 C 0.98647 0.59604 0.78847 0.0
C1831 C 0.97717 0.59312 0.81023 0.0
C1832 C 0.97754 0.58423 0.7696 0.0
C1833 C 0.9598 0.57716 0.81293 0.0
C1834 C 0.9513 0.56498 0.79446 0.0
C1835 C 0.94928 0.55853 0.75353 0.0
C1836 C 0.95657 0.56354 0.73136 0.0
C1837 C 0.95949 0.56889 0.77256 0.0
C1838 C 0.97515 0.57818 0.72883 0.0
C1839 C 0.98548 0.58834 0.74763 0.0
H1840 H 0.25421 0.42881 0.04824 0.0
H1841 H 0.20666 0.47674 0.07546 0.0
H1842 H 0.23691 0.49498 0.09674 0.0
H1843 H 0.27627 0.49474 0.11125 0.0
H1844 H 0.32276 0.44472 0.08641 0.0
H1845 H 0.29385 0.43002 0.06081 0.0
C1846 C 0.25036 0.44317 0.05886 0.0
C1847 C 0.22787 0.45093 0.06047 0.0
C1848 C 0.26785 0.45333 0.07159 0.0
C1849 C 0.22363 0.47014 0.07387 0.0
C1850 C 0.24098 0.48061 0.08618 0.0
C1851 C 0.28023 0.4811 0.0997 0.0
C1852 C 0.30186 0.47117 0.10037 0.0
C1853 C 0.2631 0.47206 0.08563 0.0
C1854 C 0.30645 0.45297 0.08586 0.0
C1855 C 0.28981 0.4444 0.07138 0.0
H1856 H 0.28748 0.55211 0.93323 0.0
H1857 H 0.335 0.58563 0.97704 0.0
H1858 H 0.30415 0.60589 0.99536 0.0
H1859 H 0.26378 0.6172 0.99662 0.0
H1860 H 0.21684 0.58569 0.95098 0.0
H1861 H 0.24695 0.56165 0.93607 0.0
C1862 C 0.29119 0.56387 0.94672 0.0
C1863 C 0.31387 0.56746 0.95329 0.0
C1864 C 0.27323 0.57587 0.95709 0.0
C1865 C 0.31792 0.58243 0.97135 0.0
C1866 C 0.30019 0.59414 0.98191 0.0
C1867 C 0.26 0.60458 0.98393 0.0
C1868 C 0.23781 0.60294 0.97535 0.0
C1869 C 0.27777 0.59137 0.97468 0.0
C1870 C 0.23355 0.58697 0.9583 0.0
C1871 C 0.25088 0.57338 0.94954 0.0
H1872 H 0.47936 0.28088 0.91181 0.0
H1873 H 0.46209 0.33002 0.9624 0.0
H1874 H 0.44537 0.3001 0.98587 0.0
H1875 H 0.43083 0.26047 0.98914 0.0
H1876 H 0.44768 0.21249 0.93714 0.0
H1877 H 0.46989 0.24106 0.91749 0.0
C1878 C 0.47271 0.28496 0.92834 0.0
C1879 C 0.47237 0.30765 0.9355 0.0
C1880 C 0.46288 0.26772 0.94149 0.0
C1881 C 0.463 0.31267 0.95669 0.0
C1882 C 0.45324 0.29554 0.97001 0.0
C1883 C 0.44013 0.25611 0.974 0.0
C1884 C 0.4379 0.23417 0.96481 0.0
C1885 C 0.45244 0.27303 0.96228 0.0
C1886 C 0.44943 0.22904 0.94476 0.0
C1887 C 0.46195 0.24548 0.93337 0.0
H1888 H 0.78729 0.43174 0.99085 0.0
H1889 H 0.83686 0.45528 0.94317 0.0
H1890 H 0.8081 0.4773 0.92357 0.0
H1891 H 0.76808 0.48493 0.91619 0.0
H1892 H 0.71748 0.45964 0.96165 0.0
H1893 H 0.74707 0.44348 0.98586 0.0
C1894 C 0.7919 0.44231 0.97666 0.0
C1895 C 0.81439 0.44202 0.96867 0.0
C1896 C 0.77488 0.45437 0.96478 0.0
C1897 C 0.81984 0.4554 0.94986 0.0
C1898 C 0.80331 0.46786 0.93848 0.0
C1899 C 0.76353 0.47662 0.93183 0.0
C1900 C 0.74055 0.47397 0.93733 0.0
C1901 C 0.78064 0.46681 0.94524 0.0
C1902 C 0.73501 0.46242 0.95729 0.0
C1903 C 0.75198 0.45295 0.97101 0.0
H1904 H 0.56201 0.76947 0.91389 0.0
H1905 H 0.57762 0.71674 0.96128 0.0
H1906 H 0.59491 0.74454 0.98678 0.0
H1907 H 0.61109 0.78314 0.99248 0.0
H1908 H 0.59657 0.83496 0.94363 0.0
H1909 H 0.57311 0.80866 0.92219 0.0
C1910 C 0.56836 0.76421 0.93023 0.0
C1911 C 0.56802 0.74107 0.93587 0.0
C1912 C 0.57879 0.78027 0.9445 0.0
C1913 C 0.57707 0.73446 0.95678 0.0
C1914 C 0.58725 0.75038 0.97123 0.0
C1915 C 0.60199 0.78887 0.97767 0.0
C1916 C 0.60521 0.81124 0.96995 0.0
C1917 C 0.58895 0.77326 0.96492 0.0
C1918 C 0.59399 0.81809 0.95022 0.0
C1919 C 0.58076 0.80292 0.93779 0.0
H1920 H 0.78248 0.60764 0.04889 0.0
H1921 H 0.82804 0.56506 0.08648 0.0
H1922 H 0.79607 0.54584 0.10396 0.0
H1923 H 0.75489 0.54193 0.10998 0.0
H1924 H 0.70935 0.58378 0.07155 0.0
H1925 H 0.74131 0.60219 0.05322 0.0
C1926 C 0.78545 0.59412 0.06086 0.0
C1927 C 0.80785 0.58804 0.06638 0.0
C1928 C 0.76685 0.58293 0.07087 0.0
C1929 C 0.81115 0.57021 0.08177 0.0
C1930 C 0.79279 0.5592 0.0919 0.0
C1931 C 0.75193 0.55501 0.09754 0.0
C1932 C 0.72955 0.56143 0.09236 0.0
C1933 C 0.77053 0.56554 0.08681 0.0
C1934 C 0.72623 0.57832 0.07595 0.0
C1935 C 0.74458 0.58899 0.06545 0.0
H1936 H 0.49948 0.75469 0.10261 0.0
H1937 H 0.46098 0.71241 0.05749 0.0
H1938 H 0.44361 0.74581 0.04069 0.0
H1939 H 0.43769 0.78716 0.03987 0.0
H1940 H 0.47661 0.82952 0.08451 0.0
H1941 H 0.49523 0.79623 0.1002 0.0
C1942 C 0.48733 0.75273 0.08907 0.0
C1943 C 0.4815 0.73081 0.08159 0.0
C1944 C 0.47727 0.77217 0.07937 0.0
C1945 C 0.46593 0.72888 0.06372 0.0
C1946 C 0.45583 0.74806 0.05411 0.0
C1947 C 0.45026 0.78917 0.05301 0.0
C1948 C 0.45547 0.81104 0.06105 0.0
C1949 C 0.46109 0.76981 0.06198 0.0
C1950 C 0.47213 0.81308 0.07789 0.0
C1951 C 0.4828 0.79395 0.08697 0.0
H1952 H 0.56451 0.23446 0.05521 0.0
H1953 H 0.63444 0.24984 0.06839 0.0
H1954 H 0.62389 0.28589 0.08465 0.0
H1955 H 0.59493 0.31348 0.09575 0.0
H1956 H 0.52469 0.2967 0.08792 0.0
H1957 H 0.53505 0.26104 0.06938 0.0
C1958 C 0.57747 0.24568 0.06162 0.0
C1959 C 0.60048 0.23956 0.05945 0.0
C1960 C 0.57114 0.2663 0.07208 0.0
C1961 C 0.61679 0.25429 0.06851 0.0
C1962 C 0.61072 0.27494 0.07822 0.0
C1963 C 0.58189 0.30209 0.0898 0.0
C1964 C 0.55906 0.30798 0.09281 0.0
C1965 C 0.588 0.28126 0.07995 0.0
C1966 C 0.54237 0.2927 0.08563 0.0
C1967 C 0.54833 0.27227 0.07504 0.0
H1968 H 0.98522 0.77951 0.61847 0.0
H1969 H 0.92861 0.81638 0.64556 0.0
H1970 H 0.90264 0.7936 0.62322 0.0
H1971 H 0.89599 0.76359 0.5956 0.0
H1972 H 0.95239 0.72649 0.56841 0.0
H1973 H 0.97849 0.74918 0.59085 0.0
C1974 C 0.96722 0.78265 0.61931 0.0
C1975 C 0.95887 0.79954 0.63372 0.0
C1976 C 0.95235 0.76948 0.60637 0.0
C1977 C 0.93546 0.80325 0.63487 0.0
C1978 C 0.92059 0.79031 0.62201 0.0
C1979 C 0.91396 0.76029 0.59479 0.0
C1980 C 0.9222 0.74341 0.58033 0.0
C1981 C 0.92884 0.77335 0.60776 0.0
C1982 C 0.9456 0.73959 0.57918 0.0
C1983 C 0.96054 0.75249 0.59208 0.0
H1984 H 0.27056 0.90377 0.56635 0.0
H1985 H 0.32003 0.95648 0.55903 0.0
H1986 H 0.29379 0.98393 0.57549 0.0
H1987 H 0.25767 0.99195 0.5948 0.0
H1988 H 0.20881 0.93874 0.60241 0.0
H1989 H 0.23361 0.9124 0.58257 0.0
C1990 C 0.27556 0.92125 0.56852 0.0
C1991 C 0.29719 0.92813 0.56199 0.0
C1992 C 0.2604 0.9368 0.57776 0.0
C1993 C 0.30341 0.95091 0.56417 0.0
C1994 C 0.28844 0.96655 0.57351 0.0
C1995 C 0.25234 0.97476 0.59147 0.0
C1996 C 0.23163 0.96711 0.59994 0.0
C1997 C 0.26697 0.95961 0.58063 0.0
C1998 C 0.22481 0.94477 0.59597 0.0
C1999 C 0.239 0.92974 0.58482 0.0
H2000 H 0.11123 0.24382 0.64109 0.0
H2001 H 0.04843 0.2727 0.6185 0.0
H2002 H 0.06868 0.29884 0.59403 0.0
H2003 H 0.10394 0.31234 0.57792 0.0
H2004 H 0.16712 0.28279 0.59872 0.0
H2005 H 0.14717 0.25841 0.62542 0.0
C2006 C 0.10213 0.25607 0.63099 0.0
C2007 C 0.07843 0.25628 0.63137 0.0
C2008 C 0.11393 0.27085 0.61665 0.0
C2009 C 0.06667 0.27206 0.61815 0.0
C2010 C 0.07823 0.28702 0.60423 0.0
C2011 C 0.11338 0.30045 0.58812 0.0
C2012 C 0.13695 0.29921 0.58611 0.0
C2013 C 0.10181 0.28629 0.60306 0.0
C2014 C 0.14895 0.28415 0.6 0.0
C2015 C 0.13755 0.27012 0.61518 0.0
H2016 H 0.76605 0.14947 0.60047 0.0
H2017 H 0.7261 0.09295 0.57773 0.0
H2018 H 0.74947 0.06719 0.59962 0.0
H2019 H 0.78159 0.06054 0.62505 0.0
H2020 H 0.82067 0.11704 0.64891 0.0
H2021 H 0.79717 0.14301 0.62708 0.0
C2022 C 0.76224 0.13158 0.60053 0.0
C2023 C 0.74445 0.12322 0.58723 0.0
C2024 C 0.77565 0.11682 0.61336 0.0
C2025 C 0.73995 0.09988 0.58739 0.0
C2026 C 0.75325 0.0851 0.60002 0.0
C2027 C 0.78498 0.07852 0.62531 0.0
C2028 C 0.80283 0.08689 0.63846 0.0
C2029 C 0.77127 0.09334 0.61289 0.0
C2030 C 0.80689 0.11026 0.63901 0.0
C2031 C 0.79351 0.12509 0.6265 0.0
H2032 H 0.94103 0.31272 0.46889 0.0
H2033 H 0.87887 0.2797 0.45034 0.0
H2034 H 0.89991 0.25236 0.42768 0.0
H2035 H 0.93629 0.23652 0.41499 0.0
H2036 H 0.99823 0.26954 0.43437 0.0
H2037 H 0.97699 0.29786 0.45529 0.0
C2038 C 0.93205 0.29948 0.46002 0.0
C2039 C 0.9084 0.29817 0.46152 0.0
C2040 C 0.94426 0.28366 0.44734 0.0
C2041 C 0.89704 0.28122 0.44939 0.0
C2042 C 0.90909 0.26547 0.43655 0.0
C2043 C 0.94509 0.25006 0.42357 0.0
C2044 C 0.96884 0.25073 0.4233 0.0
C2045 C 0.93274 0.26636 0.43563 0.0
C2046 C 0.98001 0.26832 0.43468 0.0
C2047 C 0.96787 0.28463 0.44653 0.0
H2048 H 0.8141 0.9827 0.44335 0.0
H2049 H 0.78614 0.96129 0.37955 0.0
H2050 H 0.75489 0.94307 0.39922 0.0
H2051 H 0.73504 0.93434 0.43435 0.0
H2052 H 0.76271 0.95605 0.4981 0.0
H2053 H 0.79399 0.97442 0.47843 0.0
C2054 C 0.8011 0.97425 0.43367 0.0
C2055 C 0.80245 0.9735 0.40995 0.0
C2056 C 0.78291 0.96437 0.44504 0.0
C2057 C 0.78572 0.96191 0.39779 0.0
C2058 C 0.76769 0.95173 0.40902 0.0
C2059 C 0.74796 0.94301 0.44395 0.0
C2060 C 0.74663 0.94374 0.46765 0.0
C2061 C 0.76605 0.95304 0.43259 0.0
C2062 C 0.76321 0.95547 0.47985 0.0
C2063 C 0.78122 0.96572 0.46863 0.0
H2064 H 0.13177 0.74121 0.43844 0.0
H2065 H 0.10281 0.76255 0.50171 0.0
H2066 H 0.07866 0.78941 0.48201 0.0
H2067 H 0.06637 0.80744 0.44692 0.0
H2068 H 0.09512 0.78616 0.38352 0.0
H2069 H 0.11906 0.75901 0.40317 0.0
C2070 C 0.12028 0.75185 0.44788 0.0
C2071 C 0.11904 0.7498 0.47147 0.0
C2072 C 0.10649 0.76735 0.43645 0.0
C2073 C 0.10385 0.76351 0.48351 0.0
C2074 C 0.09013 0.77899 0.47227 0.0
C2075 C 0.07766 0.7967 0.43737 0.0
C2076 C 0.07897 0.79891 0.4138 0.0
C2077 C 0.0913 0.78105 0.44875 0.0
C2078 C 0.094 0.78506 0.40171 0.0
C2079 C 0.10762 0.76943 0.41292 0.0
H2080 H 0.30424 0.1377 0.43744 0.0
H2081 H 0.28853 0.10545 0.5008 0.0
H2082 H 0.26083 0.08153 0.48212 0.0
H2083 H 0.24034 0.07029 0.44791 0.0
H2084 H 0.25566 0.10282 0.38463 0.0
H2085 H 0.28378 0.12643 0.40323 0.0
C2086 C 0.29466 0.12556 0.4472 0.0
C2087 C 0.29862 0.12338 0.4705 0.0
C2088 C 0.27852 0.11198 0.43638 0.0
C2089 C 0.2862 0.1073 0.4828 0.0
C2090 C 0.27019 0.09369 0.47215 0.0
C2091 C 0.24997 0.08239 0.43815 0.0
C2092 C 0.24581 0.08479 0.41492 0.0
C2093 C 0.26618 0.0959 0.44895 0.0
C2094 C 0.25824 0.10083 0.40259 0.0
C2095 C 0.27445 0.11426 0.41319 0.0
H2096 H 0.60576 0.91295 0.73271 0.0
H2097 H 0.54169 0.92451 0.76535 0.0
H2098 H 0.5602 0.94699 0.79436 0.0
H2099 H 0.59446 0.96418 0.81006 0.0
H2100 H 0.6586 0.95222 0.77793 0.0
H2101 H 0.6403 0.92862 0.74949 0.0
C2102 C 0.59587 0.92008 0.74632 0.0
C2103 C 0.5723 0.91719 0.74661 0.0
C2104 C 0.60665 0.93291 0.76311 0.0
C2105 C 0.55977 0.92681 0.76435 0.0
C2106 C 0.57036 0.93959 0.78107 0.0
C2107 C 0.60439 0.95646 0.79678 0.0
C2108 C 0.62782 0.96004 0.79605 0.0
C2109 C 0.59375 0.94297 0.78047 0.0
C2110 C 0.64057 0.94958 0.77899 0.0
C2111 C 0.63009 0.93619 0.76264 0.0
H2112 H 0.05685 0.6142 0.78535 0.0
H2113 H 0.11234 0.63647 0.82671 0.0
H2114 H 0.13909 0.61752 0.80157 0.0
H2115 H 0.14635 0.59297 0.76885 0.0
H2116 H 0.09064 0.5716 0.72709 0.0
H2117 H 0.06428 0.59166 0.75143 0.0
C2118 C 0.0748 0.61479 0.78884 0.0
C2119 C 0.08265 0.6265 0.80788 0.0
C2120 C 0.08999 0.60397 0.7743 0.0
C2121 C 0.10596 0.62761 0.81206 0.0
C2122 C 0.12122 0.61672 0.79775 0.0
C2123 C 0.12851 0.59301 0.76487 0.0
C2124 C 0.12049 0.58052 0.74634 0.0
C2125 C 0.1134 0.60469 0.77891 0.0
C2126 C 0.09724 0.58063 0.74152 0.0
C2127 C 0.08214 0.59219 0.75538 0.0
H2128 H 0.47085 0.09798 0.73978 0.0
H2129 H 0.44968 0.16186 0.76762 0.0
H2130 H 0.42379 0.14238 0.79311 0.0
H2131 H 0.40824 0.10692 0.80857 0.0
H2132 H 0.43031 0.04328 0.78085 0.0
H2133 H 0.4551 0.06291 0.75461 0.0
C2134 C 0.46076 0.10768 0.75154 0.0
C2135 C 0.46237 0.13136 0.75182 0.0
C2136 C 0.44614 0.09637 0.76632 0.0
C2137 C 0.44868 0.14363 0.76686 0.0
C2138 C 0.43395 0.13249 0.78156 0.0
C2139 C 0.41832 0.09741 0.79663 0.0
C2140 C 0.41756 0.07367 0.79683 0.0
C2141 C 0.43264 0.10884 0.78154 0.0
C2142 C 0.43087 0.06154 0.78137 0.0
C2143 C 0.44497 0.07276 0.76624 0.0
H2144 H 0.98714 0.42683 0.77966 0.0
H2145 H 0.93133 0.40579 0.82125 0.0
H2146 H 0.9051 0.42649 0.79697 0.0
H2147 H 0.89846 0.45244 0.76514 0.0
H2148 H 0.95461 0.47322 0.72373 0.0
H2149 H 0.98033 0.45105 0.74691 0.0
C2150 C 0.96925 0.42686 0.78345 0.0
C2151 C 0.96121 0.41497 0.80231 0.0
C2152 C 0.95436 0.43888 0.76954 0.0
C2153 C 0.93791 0.41471 0.80674 0.0
C2154 C 0.92294 0.42664 0.79294 0.0
C2155 C 0.91626 0.45185 0.76101 0.0
C2156 C 0.92461 0.46472 0.74289 0.0
C2157 C 0.93101 0.439 0.77442 0.0
C2158 C 0.94779 0.46389 0.73786 0.0
C2159 C 0.96251 0.45111 0.75103 0.0
H2160 H 0.61241 0.13341 0.30117 0.0
H2161 H 0.54941 0.10184 0.28288 0.0
H2162 H 0.56896 0.07759 0.25599 0.0
H2163 H 0.60387 0.06577 0.23717 0.0
H2164 H 0.66692 0.09727 0.25543 0.0
H2165 H 0.6474 0.12143 0.28243 0.0
C2166 C 0.60297 0.12134 0.29118 0.0
C2167 C 0.57952 0.11938 0.29414 0.0
C2168 C 0.6143 0.10751 0.27564 0.0
C2169 C 0.56753 0.10345 0.28124 0.0
C2170 C 0.57867 0.08966 0.26573 0.0
C2171 C 0.61337 0.07775 0.24721 0.0
C2172 C 0.63681 0.07972 0.2442 0.0
C2173 C 0.60206 0.09153 0.26281 0.0
C2174 C 0.64882 0.09561 0.25713 0.0
C2175 C 0.63769 0.10936 0.2727 0.0
H2176 H 0.91065 0.61551 0.30677 0.0
H2177 H 0.93124 0.55186 0.27804 0.0
H2178 H 0.95468 0.57149 0.25052 0.0
H2179 H 0.9698 0.60654 0.23509 0.0
H2180 H 0.95041 0.6704 0.26426 0.0
H2181 H 0.92548 0.65095 0.2907 0.0
C2182 C 0.9201 0.60601 0.29432 0.0
C2183 C 0.91935 0.58228 0.29455 0.0
C2184 C 0.93366 0.61742 0.27858 0.0
C2185 C 0.93184 0.57012 0.27846 0.0
C2186 C 0.94515 0.58133 0.26264 0.0
C2187 C 0.96032 0.61624 0.24733 0.0
C2188 C 0.96217 0.63991 0.24775 0.0
C2189 C 0.94635 0.60495 0.2627 0.0
C2190 C 0.94921 0.6522 0.2634 0.0
C2191 C 0.93506 0.64107 0.27864 0.0
H2192 H 0.43803 0.90962 0.30047 0.0
H2193 H 0.50132 0.93237 0.27266 0.0
H2194 H 0.48127 0.95774 0.24711 0.0
H2195 H 0.44577 0.97302 0.23237 0.0
H2196 H 0.38248 0.9506 0.26053 0.0
H2197 H 0.40251 0.92506 0.28583 0.0
C2198 C 0.44741 0.91997 0.28867 0.0
C2199 C 0.47112 0.91911 0.28848 0.0
C2200 C 0.43578 0.93446 0.274 0.0
C2201 C 0.48307 0.93292 0.27335 0.0
C2202 C 0.47162 0.94733 0.25864 0.0
C2203 C 0.43634 0.96275 0.24419 0.0
C2204 C 0.41263 0.96377 0.2445 0.0
C2205 C 0.44798 0.94826 0.25885 0.0
C2206 C 0.4007 0.94996 0.25967 0.0
C2207 C 0.41216 0.93544 0.27427 0.0
H2208 H 0.10093 0.47319 0.30846 0.0
H2209 H 0.16491 0.44628 0.28649 0.0
H2210 H 0.14546 0.42068 0.26063 0.0
H2211 H 0.1101 0.40687 0.24329 0.0
H2212 H 0.04657 0.43504 0.26491 0.0
H2213 H 0.06605 0.45961 0.2915 0.0
C2214 C 0.11071 0.46197 0.29786 0.0
C2215 C 0.13439 0.46183 0.29935 0.0
C2216 C 0.09947 0.44759 0.28284 0.0
C2217 C 0.14667 0.44664 0.28585 0.0
C2218 C 0.13556 0.43208 0.27095 0.0
C2219 C 0.10059 0.41829 0.25396 0.0
C2220 C 0.07697 0.41927 0.252 0.0
C2221 C 0.11195 0.43249 0.26921 0.0
C2222 C 0.06479 0.43425 0.2658 0.0
C2223 C 0.07591 0.44822 0.28111 0.0
H2224 H 0.73996 0.60872 0.90977 0.0
H2225 H 0.76587 0.54475 0.93291 0.0
H2226 H 0.79145 0.56402 0.95876 0.0
H2227 H 0.80589 0.59887 0.97528 0.0
H2228 H 0.77967 0.6631 0.95317 0.0
H2229 H 0.75515 0.64399 0.92603 0.0
C2230 C 0.7514 0.59909 0.92032 0.0
C2231 C 0.75091 0.57538 0.91961 0.0
C2232 C 0.76599 0.6103 0.93528 0.0
C2233 C 0.76567 0.56302 0.93347 0.0
C2234 C 0.78037 0.57401 0.94817 0.0
C2235 C 0.79467 0.60871 0.96471 0.0
C2236 C 0.7945 0.63236 0.9664 0.0
C2237 C 0.78048 0.59762 0.94939 0.0
C2238 C 0.78025 0.64487 0.95211 0.0
C2239 C 0.76614 0.63394 0.93667 0.0
H2240 H 0.78337 0.39758 0.09584 0.0
H2241 H 0.81341 0.45478 0.0621 0.0
H2242 H 0.7897 0.48036 0.08373 0.0
H2243 H 0.76049 0.48666 0.11225 0.0
H2244 H 0.73102 0.42988 0.14687 0.0
H2245 H 0.75492 0.40398 0.12531 0.0
C2246 C 0.78495 0.41563 0.09336 0.0
C2247 C 0.8001 0.42411 0.07714 0.0
C2248 C 0.77144 0.43035 0.10611 0.0
C2249 C 0.80164 0.44762 0.07405 0.0
C2250 C 0.78818 0.46234 0.08657 0.0
C2251 C 0.7592 0.46861 0.11495 0.0
C2252 C 0.74393 0.46017 0.13101 0.0
C2253 C 0.77296 0.45389 0.10254 0.0
C2254 C 0.74277 0.43677 0.13471 0.0
C2255 C 0.75633 0.42197 0.12231 0.0
H2256 H 0.64163 0.78743 0.09901 0.0
H2257 H 0.58596 0.81933 0.06457 0.0
H2258 H 0.55939 0.79484 0.08425 0.0
H2259 H 0.55205 0.76378 0.11053 0.0
H2260 H 0.60758 0.73173 0.14497 0.0
H2261 H 0.63413 0.75729 0.12647 0.0
C2262 C 0.62369 0.78925 0.09605 0.0
C2263 C 0.61584 0.80508 0.0802 0.0
C2264 C 0.60849 0.77512 0.10746 0.0
C2265 C 0.5925 0.80702 0.07637 0.0
C2266 C 0.57727 0.7931 0.08771 0.0
C2267 C 0.56997 0.76231 0.11388 0.0
C2268 C 0.57785 0.74579 0.12896 0.0
C2269 C 0.58511 0.77692 0.10307 0.0
C2270 C 0.60108 0.74442 0.13355 0.0
C2271 C 0.61627 0.75893 0.12288 0.0
H2272 H 0.29914 0.6062 0.13602 0.0
H2273 H 0.27411 0.54352 0.1087 0.0
H2274 H 0.24774 0.56411 0.08472 0.0
H2275 H 0.2323 0.59982 0.07108 0.0
H2276 H 0.25769 0.66273 0.09756 0.0
H2277 H 0.28302 0.64217 0.12275 0.0
C2278 C 0.28774 0.59711 0.12498 0.0
C2279 C 0.28869 0.57343 0.12398 0.0
C2280 C 0.27266 0.60906 0.11116 0.0
C2281 C 0.27397 0.56179 0.10946 0.0
C2282 C 0.25881 0.57352 0.09584 0.0
C2283 C 0.2435 0.60906 0.0822 0.0
C2284 C 0.24318 0.63278 0.08231 0.0
C2285 C 0.25818 0.59716 0.09639 0.0
C2286 C 0.25744 0.64447 0.09726 0.0
C2287 C 0.27203 0.63272 0.11158 0.0
H2288 H 0.40638 0.239 0.10377 0.0
H2289 H 0.43336 0.26368 0.04083 0.0
H2290 H 0.45671 0.2908 0.06112 0.0
H2291 H 0.4696 0.30732 0.09659 0.0
H2292 H 0.44339 0.28248 0.15979 0.0
H2293 H 0.41903 0.25607 0.13951 0.0
C2294 C 0.4172 0.25046 0.09452 0.0
C2295 C 0.41823 0.24919 0.07084 0.0
C2296 C 0.4306 0.26607 0.10631 0.0
C2297 C 0.43254 0.26402 0.05907 0.0
C2298 C 0.44579 0.27964 0.07065 0.0
C2299 C 0.45875 0.29601 0.10599 0.0
C2300 C 0.45848 0.2968 0.1297 0.0
C2301 C 0.44507 0.2807 0.09426 0.0
C2302 C 0.44382 0.28238 0.14154 0.0
C2303 C 0.42999 0.26716 0.12995 0.0
H2304 H 0.30164 0.43661 0.90767 0.0
H2305 H 0.27795 0.49945 0.93584 0.0
H2306 H 0.25098 0.47915 0.95931 0.0
H2307 H 0.23438 0.4437 0.97205 0.0
H2308 H 0.2583 0.38053 0.94484 0.0
H2309 H 0.2845 0.40081 0.9203 0.0
C2310 C 0.29041 0.44581 0.9188 0.0
C2311 C 0.29191 0.46946 0.92014 0.0
C2312 C 0.27494 0.434 0.93233 0.0
C2313 C 0.27741 0.48121 0.93479 0.0
C2314 C 0.26189 0.46963 0.94812 0.0
C2315 C 0.24546 0.43431 0.96095 0.0
C2316 C 0.24445 0.41061 0.96043 0.0
C2317 C 0.26065 0.44604 0.94716 0.0
C2318 C 0.25858 0.39878 0.94546 0.0
C2319 C 0.27367 0.41037 0.93152 0.0
H2320 H 0.60042 0.23907 0.97174 0.0
H2321 H 0.66443 0.26552 0.94932 0.0
H2322 H 0.64505 0.29356 0.92623 0.0
H2323 H 0.60986 0.31115 0.91299 0.0
H2324 H 0.54593 0.28463 0.9356 0.0
H2325 H 0.56534 0.25649 0.95845 0.0
C2326 C 0.61016 0.25107 0.96197 0.0
C2327 C 0.63387 0.25011 0.96231 0.0
C2328 C 0.5989 0.2673 0.94887 0.0
C2329 C 0.64618 0.2656 0.94918 0.0
C2330 C 0.6351 0.28178 0.93607 0.0
C2331 C 0.60018 0.29911 0.92278 0.0
C2332 C 0.57647 0.30016 0.92264 0.0
C2333 C 0.61146 0.28281 0.93581 0.0
C2334 C 0.56419 0.28454 0.93566 0.0
C2335 C 0.57528 0.2683 0.94863 0.0
H2336 H 0.47315 0.73431 0.93965 0.0
H2337 H 0.44835 0.76084 0.87654 0.0
H2338 H 0.42314 0.78631 0.89688 0.0
H2339 H 0.4094 0.80234 0.9328 0.0
H2340 H 0.43545 0.77643 0.9956 0.0
H2341 H 0.4592 0.74971 0.97521 0.0
C2342 C 0.46241 0.74578 0.9303 0.0
C2343 C 0.46279 0.74571 0.90659 0.0
C2344 C 0.44824 0.7606 0.94208 0.0
C2345 C 0.44829 0.76036 0.89479 0.0
C2346 C 0.43395 0.77505 0.90641 0.0
C2347 C 0.42012 0.79066 0.94193 0.0
C2348 C 0.42084 0.79145 0.96561 0.0
C2349 C 0.43391 0.77544 0.93007 0.0
C2350 C 0.43491 0.77637 0.97734 0.0
C2351 C 0.44841 0.76103 0.96571 0.0
H2352 H 0.16431 0.07431 0.41937 0.0
H2353 H 0.10822 0.03586 0.39383 0.0
H2354 H 0.08414 0.0694 0.39515 0.0
H2355 H 0.08019 0.11086 0.3992 0.0
H2356 H 0.13697 0.1495 0.42335 0.0
H2357 H 0.15933 0.11517 0.42674 0.0
C2358 C 0.14659 0.07312 0.41495 0.0
C2359 C 0.13796 0.05239 0.40704 0.0
C2360 C 0.13301 0.09283 0.41485 0.0
C2361 C 0.11517 0.05143 0.40045 0.0
C2362 C 0.10144 0.07073 0.40093 0.0
C2363 C 0.09732 0.11177 0.40555 0.0
C2364 C 0.10682 0.13306 0.41062 0.0
C2365 C 0.11033 0.09174 0.40741 0.0
C2366 C 0.1292 0.13363 0.41875 0.0
C2367 C 0.14205 0.11387 0.42088 0.0
H2368 H 0.97488 0.1679 0.42653 0.0
H2369 H 0.0152 0.11236 0.40271 0.0
H2370 H 0.98173 0.08823 0.401 0.0
H2371 H 0.94018 0.08446 0.4013 0.0
H2372 H 0.89977 0.14063 0.42406 0.0
H2373 H 0.93368 0.16274 0.43089 0.0
C2374 C 0.97643 0.15023 0.42192 0.0
C2375 C 0.99764 0.14177 0.41533 0.0
C2376 C 0.95684 0.13668 0.42003 0.0
C2377 C 0.99919 0.11911 0.40841 0.0
C2378 C 0.97995 0.10539 0.40711 0.0
C2379 C 0.93874 0.10137 0.40813 0.0
C2380 C 0.91715 0.11083 0.41165 0.0
C2381 C 0.95853 0.1142 0.41209 0.0
C2382 C 0.91592 0.13292 0.4205 0.0
C2383 C 0.93543 0.14562 0.42464 0.0
H2384 H 0.91897 0.9163 0.41183 0.0
H2385 H 0.98415 0.94248 0.39341 0.0
H2386 H 0.9699 0.9812 0.39681 0.0
H2387 H 0.93762 1.00741 0.40076 0.0
H2388 H 0.87297 0.98168 0.42169 0.0
H2389 H 0.88821 0.9432 0.42213 0.0
C2390 C 0.93008 0.93056 0.40899 0.0
C2391 C 0.95256 0.92656 0.40221 0.0
C2392 C 0.92182 0.95286 0.41148 0.0
C2393 C 0.96686 0.94514 0.39871 0.0
C2394 C 0.95866 0.96727 0.40057 0.0
C2395 C 0.9271 0.99346 0.4062 0.0
C2396 C 0.90421 0.9975 0.41137 0.0
C2397 C 0.93604 0.97134 0.40643 0.0
C2398 C 0.89071 0.97917 0.41807 0.0
C2399 C 0.89937 0.95708 0.41799 0.0
H2400 H 0.10767 0.97064 0.40074 0.0
H2401 H 0.15184 0.91308 0.40459 0.0
H2402 H 0.11957 0.88814 0.41082 0.0
H2403 H 0.07841 0.88187 0.40989 0.0
H2404 H 0.03384 0.93875 0.40284 0.0
H2405 H 0.06613 0.96464 0.40365 0.0
C2406 C 0.11019 0.95273 0.40356 0.0
C2407 C 0.1322 0.94375 0.40221 0.0
C2408 C 0.0913 0.93828 0.4065 0.0
C2409 C 0.13512 0.9204 0.40548 0.0
C2410 C 0.11663 0.90611 0.40901 0.0
C2411 C 0.07576 0.89999 0.40951 0.0
C2412 C 0.05368 0.90841 0.40703 0.0
C2413 C 0.09457 0.91471 0.40889 0.0
C2414 C 0.0506 0.9319 0.40544 0.0
C2415 C 0.06913 0.94669 0.40558 0.0
H2416 H 0.12408 0.98175 0.61799 0.0
H2417 H 0.14838 0.99208 0.68588 0.0
H2418 H 0.12862 0.95796 0.69821 0.0
H2419 H 0.10561 0.9244 0.68942 0.0
H2420 H 0.08226 0.91367 0.62127 0.0
H2421 H 0.1003 0.9488 0.60946 0.0
C2422 C 0.12493 0.97672 0.63557 0.0
C2423 C 0.13778 0.98962 0.65097 0.0
C2424 C 0.11375 0.95688 0.64248 0.0
C2425 C 0.13861 0.98265 0.67364 0.0
C2426 C 0.12737 0.96303 0.68068 0.0
C2427 C 0.10457 0.92958 0.67193 0.0
C2428 C 0.09261 0.9161 0.65626 0.0
C2429 C 0.11515 0.94983 0.66519 0.0
C2430 C 0.09113 0.92359 0.63378 0.0
C2431 C 0.10156 0.9437 0.62698 0.0
H2432 H 0.1327 0.12307 0.62229 0.0
H2433 H 0.10863 0.07381 0.66986 0.0
H2434 H 0.07119 0.09136 0.66968 0.0
H2435 H 0.04694 0.12334 0.65972 0.0
H2436 H 0.07031 0.17353 0.61266 0.0
H2437 H 0.10607 0.1529 0.60831 0.0
C2438 C 0.11901 0.11598 0.63212 0.0
C2439 C 0.12324 0.09714 0.64606 0.0
C2440 C 0.09748 0.1264 0.63203 0.0
C2441 C 0.10557 0.08818 0.65898 0.0
C2442 C 0.08426 0.09828 0.65891 0.0
C2443 C 0.05962 0.12942 0.64799 0.0
C2444 C 0.05593 0.14989 0.63646 0.0
C2445 C 0.0802 0.11774 0.64601 0.0
C2446 C 0.07255 0.15764 0.62144 0.0
C2447 C 0.09314 0.14598 0.61922 0.0
H2448 H 0.92557 0.13484 0.62566 0.0
H2449 H 0.97528 0.11978 0.67663 0.0
H2450 H 0.9593 0.0821 0.68146 0.0
H2451 H 0.92952 0.05442 0.6734 0.0
H2452 H 0.8798 0.06864 0.62225 0.0
H2453 H 0.89758 0.10534 0.615 0.0
C2454 C 0.93291 0.12327 0.63777 0.0
C2455 C 0.95155 0.1303 0.65091 0.0
C2456 C 0.92367 0.10139 0.64035 0.0
C2457 C 0.96108 0.11489 0.66624 0.0
C2458 C 0.95187 0.09332 0.66906 0.0
C2459 C 0.92281 0.06536 0.66034 0.0
C2460 C 0.90334 0.05871 0.64836 0.0
C2461 C 0.93299 0.0865 0.65647 0.0
C2462 C 0.89491 0.07313 0.63151 0.0
C2463 C 0.90494 0.09427 0.62756 0.0
H2464 H 1.0007 0.93225 0.66146 0.0
H2465 H 0.97168 0.87167 0.63357 0.0
H2466 H 0.9347 0.8901 0.63152 0.0
H2467 H 0.90965 0.92209 0.64237 0.0
H2468 H 0.93918 0.98332 0.66794 0.0
H2469 H 0.97687 0.96627 0.66608 0.0
C2470 C 0.98641 0.92336 0.65424 0.0
C2471 C 0.98898 0.90066 0.64754 0.0
C2472 C 0.9652 0.93413 0.65306 0.0
C2473 C 0.97028 0.88926 0.63844 0.0
C2474 C 0.94904 0.89972 0.63756 0.0
C2475 C 0.92446 0.93176 0.64704 0.0
C2476 C 0.92172 0.95389 0.65539 0.0
C2477 C 0.94614 0.92191 0.64551 0.0
C2478 C 0.94096 0.96635 0.66136 0.0
C2479 C 0.96246 0.95653 0.66041 0.0
H2480 H 0.39555 0.11141 0.04095 0.0
H2481 H 0.4253 0.17297 0.06572 0.0
H2482 H 0.42901 0.15623 0.10339 0.0
H2483 H 0.41908 0.12559 0.13039 0.0
H2484 H 0.39114 0.06349 0.10499 0.0
H2485 H 0.39156 0.07869 0.06654 0.0
C2486 C 0.40354 0.12087 0.05445 0.0
C2487 C 0.41029 0.14335 0.0505 0.0
C2488 C 0.40557 0.11111 0.07607 0.0
C2489 C 0.42039 0.15552 0.06818 0.0
C2490 C 0.4222 0.14603 0.08982 0.0
C2491 C 0.4135 0.11531 0.11631 0.0
C2492 C 0.40492 0.09349 0.12052 0.0
C2493 C 0.41414 0.12411 0.09415 0.0
C2494 C 0.39789 0.08023 0.10216 0.0
C2495 C 0.39803 0.089 0.0802 0.0
H2496 H 0.93425 0.39491 0.04562 0.0
H2497 H 0.87233 0.42241 0.07193 0.0
H2498 H 0.88891 0.42392 0.10984 0.0
H2499 H 0.91976 0.41296 0.13634 0.0
H2500 H 0.98232 0.38774 0.10942 0.0
H2501 H 0.96699 0.38986 0.07104 0.0
C2502 C 0.92466 0.40194 0.05954 0.0
C2503 C 0.90213 0.40872 0.05589 0.0
C2504 C 0.93436 0.40276 0.0813 0.0
C2505 C 0.88982 0.41753 0.07414 0.0
C2506 C 0.89922 0.41807 0.09592 0.0
C2507 C 0.93008 0.40832 0.12197 0.0
C2508 C 0.95211 0.40003 0.12569 0.0
C2509 C 0.92124 0.41006 0.09984 0.0
C2510 C 0.96541 0.39423 0.10696 0.0
C2511 C 0.95658 0.39536 0.08503 0.0
H2512 H 0.63531 0.88007 0.07457 0.0
H2513 H 0.64206 0.93737 0.03054 0.0
H2514 H 0.64315 0.9628 0.0632 0.0
H2515 H 0.64799 0.96811 0.10468 0.0
H2516 H 0.64477 0.90997 0.14811 0.0
H2517 H 0.63642 0.8857 0.11578 0.0
C2518 C 0.63601 0.89822 0.07215 0.0
C2519 C 0.63784 0.90687 0.05008 0.0
C2520 C 0.63785 0.91262 0.09112 0.0
C2521 C 0.63989 0.93035 0.04727 0.0
C2522 C 0.64087 0.94487 0.06602 0.0
C2523 C 0.64487 0.95024 0.10705 0.0
C2524 C 0.64699 0.94087 0.12885 0.0
C2525 C 0.6407 0.93616 0.0881 0.0
C2526 C 0.6433 0.91757 0.13156 0.0
C2527 C 0.63854 0.90367 0.11304 0.0
H2528 H 0.12019 0.62108 0.13074 0.0
H2529 H 0.07005 0.67068 0.11265 0.0
H2530 H 0.08598 0.67329 0.07478 0.0
H2531 H 0.11572 0.66371 0.04747 0.0
H2532 H 0.16595 0.61398 0.06468 0.0
H2533 H 0.14833 0.60896 0.10184 0.0
C2534 C 0.11272 0.63242 0.11849 0.0
C2535 C 0.09391 0.6458 0.1248 0.0
C2536 C 0.12197 0.63375 0.09645 0.0
C2537 C 0.08433 0.66009 0.10844 0.0
C2538 C 0.09353 0.66167 0.08671 0.0
C2539 C 0.12261 0.65143 0.05917 0.0
C2540 C 0.14217 0.63918 0.0531 0.0
C2541 C 0.11251 0.64883 0.0806 0.0
C2542 C 0.15078 0.6234 0.06861 0.0
C2543 C 0.14083 0.62074 0.09003 0.0
H2544 H 0.41433 0.87339 0.96215 0.0
H2545 H 0.41064 0.92912 1.00851 0.0
H2546 H 0.40987 0.95584 0.9769 0.0
H2547 H 0.40396 0.96283 0.93577 0.0
H2548 H 0.40507 0.90631 0.89008 0.0
H2549 H 0.41332 0.88065 0.92126 0.0
C2550 C 0.41445 0.89145 0.96529 0.0
C2551 C 0.41331 0.89928 0.98768 0.0
C2552 C 0.41295 0.90663 0.94695 0.0
C2553 C 0.41232 0.92269 0.99147 0.0
C2554 C 0.41149 0.93797 0.97334 0.0
C2555 C 0.40666 0.945 0.93265 0.0
C2556 C 0.40379 0.9365 0.91058 0.0
C2557 C 0.41089 0.93011 0.95094 0.0
C2558 C 0.40701 0.91325 0.90688 0.0
C2559 C 0.41172 0.89854 0.92474 0.0
H2560 H 0.0806 0.39924 0.9333 0.0
H2561 H 0.13566 0.4251 0.89334 0.0
H2562 H 0.15894 0.42855 0.927 0.0
H2563 H 0.16535 0.42038 0.96748 0.0
H2564 H 0.11083 0.39348 1.00718 0.0
H2565 H 0.08568 0.39503 0.97447 0.0
C2566 C 0.09752 0.40602 0.93196 0.0
C2567 C 0.10632 0.41144 0.9105 0.0
C2568 C 0.11103 0.40798 0.95158 0.0
C2569 C 0.12845 0.42015 0.90935 0.0
C2570 C 0.14183 0.42233 0.92872 0.0
C2571 C 0.14771 0.41577 0.96913 0.0
C2572 C 0.13982 0.40735 0.98989 0.0
C2573 C 0.13353 0.41583 0.9499 0.0
C2574 C 0.11716 0.40051 0.99152 0.0
C2575 C 0.10284 0.4011 0.97271 0.0
H2576 H 0.61174 0.11849 0.91312 0.0
H2577 H 0.6619 0.06905 0.93156 0.0
H2578 H 0.66624 0.08688 0.96844 0.0
H2579 H 0.65859 0.1185 0.99406 0.0
H2580 H 0.60855 0.16825 0.97648 0.0
H2581 H 0.60101 0.14819 0.94095 0.0
C2582 C 0.62353 0.11158 0.92527 0.0
C2583 C 0.63666 0.09251 0.91938 0.0
C2584 C 0.62588 0.12195 0.94666 0.0
C2585 C 0.65154 0.08356 0.93555 0.0
C2586 C 0.65409 0.09384 0.95666 0.0
C2587 C 0.64563 0.12468 0.98269 0.0
C2588 C 0.63411 0.14484 0.98796 0.0
C2589 C 0.64169 0.11325 0.96223 0.0
C2590 C 0.61741 0.15262 0.97303 0.0
C2591 C 0.61334 0.14129 0.95256 0.0
H2592 H 0.9256 0.64198 1.00445 0.0
H2593 H 0.86418 0.61395 0.97753 0.0
H2594 H 0.88233 0.60908 0.94064 0.0
H2595 H 0.91439 0.61757 0.91483 0.0
H2596 H 0.97632 0.64364 0.94247 0.0
H2597 H 0.95952 0.64431 0.98024 0.0
C2598 C 0.91646 0.63408 0.99068 0.0
C2599 C 0.89363 0.62815 0.99377 0.0
C2600 C 0.92705 0.63134 0.96954 0.0
C2601 C 0.88187 0.61822 0.97574 0.0
C2602 C 0.89218 0.61574 0.95454 0.0
C2603 C 0.92428 0.62293 0.92926 0.0
C2604 C 0.94654 0.63069 0.92586 0.0
C2605 C 0.91454 0.62294 0.95104 0.0
C2606 C 0.95925 0.63749 0.94467 0.0
C2607 C 0.94958 0.638 0.96625 0.0
H2608 H 0.13135 0.42375 0.11938 0.0
H2609 H 0.11256 0.37133 0.07248 0.0
H2610 H 0.07537 0.36866 0.08998 0.0
H2611 H 0.04925 0.37892 0.12043 0.0
H2612 H 0.06714 0.43149 0.16742 0.0
H2613 H 0.10333 0.43673 0.14791 0.0
C2614 C 0.11908 0.4118 0.11298 0.0
C2615 C 0.12492 0.39758 0.09471 0.0
C2616 C 0.09749 0.41047 0.12309 0.0
C2617 C 0.1086 0.3825 0.08639 0.0
C2618 C 0.0873 0.38092 0.09646 0.0
C2619 C 0.06087 0.39186 0.12615 0.0
C2620 C 0.05544 0.40482 0.14538 0.0
C2621 C 0.08169 0.39455 0.11502 0.0
C2622 C 0.07071 0.42151 0.15253 0.0
C2623 C 0.09155 0.42429 0.14151 0.0
H2624 H 0.07435 0.62384 0.88318 0.0
H2625 H 0.03239 0.63339 0.94162 0.0
H2626 H 0.06584 0.63472 0.96591 0.0
H2627 H 0.10746 0.63891 0.96975 0.0
H2628 H 0.14902 0.63238 0.91054 0.0
H2629 H 0.1158 0.62407 0.88756 0.0
C2630 C 0.07255 0.62521 0.90135 0.0
C2631 C 0.05084 0.62782 0.91065 0.0
C2632 C 0.09201 0.6271 0.91509 0.0
C2633 C 0.04885 0.6307 0.93413 0.0
C2634 C 0.06804 0.63179 0.94799 0.0
C2635 C 0.10923 0.63508 0.95195 0.0
C2636 C 0.13077 0.63636 0.94189 0.0
C2637 C 0.08979 0.63084 0.9386 0.0
C2638 C 0.13268 0.63168 0.91867 0.0
C2639 C 0.11364 0.62692 0.9055 0.0
H2640 H 0.41167 0.13003 0.91435 0.0
H2641 H 0.39178 0.10464 0.97941 0.0
H2642 H 0.39433 0.06578 0.96537 0.0
H2643 H 0.39789 0.03936 0.93324 0.0
H2644 H 0.4201 0.06432 0.86868 0.0
H2645 H 0.42152 0.10279 0.88381 0.0
C2646 C 0.40832 0.11591 0.92548 0.0
C2647 C 0.40137 0.12017 0.94786 0.0
C2648 C 0.41027 0.09353 0.91735 0.0
C2649 C 0.39722 0.10176 0.9622 0.0
C2650 C 0.39858 0.07956 0.95412 0.0
C2651 C 0.40379 0.05313 0.92271 0.0
C2652 C 0.40901 0.04889 0.89988 0.0
C2653 C 0.40457 0.07525 0.93158 0.0
C2654 C 0.41638 0.06697 0.88639 0.0
C2655 C 0.41687 0.08907 0.89498 0.0
H2656 H 1.00432 0.40351 0.93387 0.0
H2657 H 0.97587 0.42589 0.87083 0.0
H2658 H 0.93806 0.4257 0.88758 0.0
H2659 H 0.91254 0.41427 0.91903 0.0
H2660 H 0.94132 0.39433 0.98263 0.0
H2661 H 0.97945 0.39857 0.96707 0.0
C2662 C 0.98992 0.40914 0.92406 0.0
C2663 C 0.99298 0.41491 0.90117 0.0
C2664 C 0.9682 0.40902 0.93387 0.0
C2665 C 0.97411 0.42184 0.88857 0.0
C2666 C 0.9524 0.4214 0.89809 0.0
C2667 C 0.92723 0.41135 0.92953 0.0
C2668 C 0.92419 0.40388 0.95193 0.0
C2669 C 0.94915 0.41429 0.92051 0.0
C2670 C 0.9433 0.40019 0.96544 0.0
C2671 C 0.96507 0.40252 0.95647 0.0
H2672 H 0.63616 0.9347 0.96569 0.0
H2673 H 0.64445 0.88946 0.9094 0.0
H2674 H 0.63587 0.91997 0.88306 0.0
H2675 H 0.6316 0.96061 0.87571 0.0
H2676 H 0.62595 1.00681 0.9314 0.0
H2677 H 0.62727 0.9752 0.95815 0.0
C2678 C 0.63549 0.93149 0.9477 0.0
C2679 C 0.64113 0.90982 0.93952 0.0
C2680 C 0.63101 0.94942 0.93248 0.0
C2681 C 0.64045 0.90599 0.9161 0.0
C2682 C 0.63551 0.92346 0.90102 0.0
C2683 C 0.62962 0.9636 0.89367 0.0
C2684 C 0.62793 0.98594 0.90154 0.0
C2685 C 0.63148 0.9454 0.90893 0.0
C2686 C 0.62647 0.98971 0.92491 0.0
C2687 C 0.62762 0.97162 0.94022 0.0
H2688 H 0.99128 0.66154 0.1212 0.0
H2689 H 0.97643 0.61153 0.17185 0.0
H2690 H 0.93935 0.60485 0.15444 0.0
H2691 H 0.9098 0.61582 0.12645 0.0
H2692 H 0.92566 0.66616 0.07628 0.0
H2693 H 0.96352 0.67007 0.09181 0.0
C2694 C 0.98011 0.64884 0.12822 0.0
C2695 C 0.98671 0.63701 0.1478 0.0
C2696 C 0.95878 0.64539 0.11833 0.0
C2697 C 0.97199 0.62063 0.15663 0.0
C2698 C 0.95064 0.61704 0.14681 0.0
C2699 C 0.92156 0.62761 0.1189 0.0
C2700 C 0.91466 0.64078 0.10019 0.0
C2701 C 0.9436 0.62975 0.12797 0.0
C2702 C 0.93037 0.65569 0.09048 0.0
C2703 C 0.95208 0.65801 0.09944 0.0
H2704 H 0.38248 0.99476 0.11525 0.0
H2705 H 0.43252 0.9773 0.16506 0.0
H2706 H 0.43788 0.94043 0.14686 0.0
H2707 H 0.42584 0.91182 0.11846 0.0
H2708 H 0.37622 0.93018 0.06849 0.0
H2709 H 0.37325 0.96789 0.08496 0.0
C2710 C 0.3949 0.98306 0.1219 0.0
C2711 C 0.40711 0.98888 0.14152 0.0
C2712 C 0.39773 0.96185 0.11144 0.0
C2713 C 0.42312 0.97347 0.14985 0.0
C2714 C 0.42598 0.95224 0.13957 0.0
C2715 C 0.41443 0.92412 0.11115 0.0
C2716 C 0.40108 0.91798 0.09231 0.0
C2717 C 0.41296 0.94601 0.12066 0.0
C2718 C 0.38672 0.93434 0.08285 0.0
C2719 C 0.38496 0.95593 0.09235 0.0
H2720 H 0.62456 0.12886 0.11701 0.0
H2721 H 0.67689 0.1135 0.06884 0.0
H2722 H 0.68056 0.07558 0.08456 0.0
H2723 H 0.67096 0.04758 0.11363 0.0
H2724 H 0.61862 0.06218 0.16195 0.0
H2725 H 0.61265 0.09925 0.14441 0.0
C2726 C 0.63675 0.11721 0.10994 0.0
C2727 C 0.65058 0.12428 0.09177 0.0
C2728 C 0.63869 0.09516 0.11906 0.0
C2729 C 0.66597 0.10867 0.08265 0.0
C2730 C 0.66813 0.08693 0.09172 0.0
C2731 C 0.65793 0.05868 0.12011 0.0
C2732 C 0.64522 0.05193 0.13912 0.0
C2733 C 0.65481 0.08008 0.11009 0.0
C2734 C 0.62844 0.06665 0.14721 0.0
C2735 C 0.62522 0.08803 0.13731 0.0
H2736 H 0.62696 0.63557 0.91398 0.0
H2737 H 0.56578 0.60863 0.88549 0.0
H2738 H 0.58157 0.57042 0.88697 0.0
H2739 H 0.61454 0.54537 0.89217 0.0
H2740 H 0.6751 0.57162 0.92258 0.0
H2741 H 0.65781 0.60918 0.92506 0.0
C2742 C 0.61701 0.62122 0.90849 0.0
C2743 C 0.59527 0.62493 0.89946 0.0
C2744 C 0.62612 0.59918 0.90978 0.0
C2745 C 0.58246 0.60621 0.89257 0.0
C2746 C 0.59155 0.58437 0.89332 0.0
C2747 C 0.62364 0.55916 0.90006 0.0
C2748 C 0.64601 0.55564 0.90738 0.0
C2749 C 0.61356 0.58071 0.90137 0.0
C2750 C 0.65773 0.57373 0.91728 0.0
C2751 C 0.64793 0.59532 0.91837 0.0
H2752 H 0.41291 0.622 0.92134 0.0
H2753 H 0.43124 0.57068 0.87309 0.0
H2754 H 0.46899 0.58695 0.86984 0.0
H2755 H 0.49588 0.61746 0.87832 0.0
H2756 H 0.47839 0.66865 0.92696 0.0
H2757 H 0.44152 0.65064 0.93272 0.0
C2758 C 0.4252 0.61435 0.91017 0.0
C2759 C 0.41904 0.59519 0.89727 0.0
C2760 C 0.44711 0.62376 0.90853 0.0
C2761 C 0.43541 0.5853 0.88323 0.0
C2762 C 0.45703 0.59468 0.88131 0.0
C2763 C 0.48419 0.62445 0.89054 0.0
C2764 C 0.49 0.6444 0.90224 0.0
C2765 C 0.46296 0.61409 0.89359 0.0
C2766 C 0.47458 0.65318 0.91798 0.0
C2767 C 0.45334 0.643 0.92106 0.0
H2768 H 0.37429 0.46452 0.91052 0.0
H2769 H 0.42924 0.51189 0.91047 0.0
H2770 H 0.45652 0.48069 0.91016 0.0
H2771 H 0.46454 0.43964 0.904 0.0
H2772 H 0.40879 0.39306 0.9019 0.0
H2773 H 0.3823 0.42376 0.90913 0.0
C2774 C 0.39225 0.46796 0.91152 0.0
C2775 C 0.39968 0.49055 0.91134 0.0
C2776 C 0.4078 0.44987 0.91036 0.0
C2777 C 0.42305 0.49471 0.91146 0.0
C2778 C 0.43867 0.4768 0.91088 0.0
C2779 C 0.44666 0.4362 0.90574 0.0
C2780 C 0.43869 0.41398 0.90226 0.0
C2781 C 0.43127 0.45426 0.90949 0.0
C2782 C 0.41538 0.40994 0.90429 0.0
C2783 C 0.40018 0.42754 0.90842 0.0
H2784 H 0.54273 0.43729 0.89412 0.0
H2785 H 0.56682 0.37504 0.92297 0.0
H2786 H 0.60528 0.39021 0.92405 0.0
H2787 H 0.6329 0.41992 0.91263 0.0
H2788 H 0.60819 0.48292 0.88616 0.0
H2789 H 0.56932 0.46894 0.88834 0.0
C2790 C 0.55629 0.42732 0.90133 0.0
C2791 C 0.55179 0.40509 0.90861 0.0
C2792 C 0.57841 0.43622 0.90192 0.0
C2793 C 0.56963 0.39231 0.91766 0.0
C2794 C 0.59175 0.4009 0.91796 0.0
C2795 C 0.61891 0.43062 0.90767 0.0
C2796 C 0.62341 0.45238 0.89904 0.0
C2797 C 0.59647 0.42259 0.90949 0.0
C2798 C 0.60515 0.46619 0.89288 0.0
C2799 C 0.58294 0.45814 0.89406 0.0
H2800 H 0.62146 0.40744 0.11953 0.0
H2801 H 0.56669 0.43109 0.16117 0.0
H2802 H 0.58327 0.4688 0.16209 0.0
H2803 H 0.61497 0.49428 0.154 0.0
H2804 H 0.66967 0.47169 0.11184 0.0
H2805 H 0.65142 0.43465 0.10779 0.0
C2806 C 0.61313 0.42091 0.12869 0.0
C2807 C 0.59288 0.41629 0.14046 0.0
C2808 C 0.62272 0.44282 0.12894 0.0
C2809 C 0.58215 0.43408 0.15192 0.0
C2810 C 0.59169 0.45569 0.15251 0.0
C2811 C 0.62261 0.48143 0.14342 0.0
C2812 C 0.64359 0.48583 0.1331 0.0
C2813 C 0.61213 0.46017 0.14141 0.0
C2814 C 0.65335 0.46895 0.1196 0.0
C2815 C 0.64304 0.44763 0.11757 0.0
H2816 H 0.63203 0.62014 0.11581 0.0
H2817 H 0.60833 0.56785 0.16054 0.0
H2818 H 0.57052 0.58414 0.1599 0.0
H2819 H 0.54488 0.61499 0.14943 0.0
H2820 H 0.56764 0.66743 0.10454 0.0
H2821 H 0.60486 0.64926 0.1021 0.0
C2822 C 0.61857 0.61229 0.12535 0.0
C2823 C 0.62322 0.59281 0.13841 0.0
C2824 C 0.59661 0.62175 0.12478 0.0
C2825 C 0.60537 0.58269 0.15031 0.0
C2826 C 0.58369 0.59208 0.15001 0.0
C2827 C 0.55782 0.62218 0.13867 0.0
C2828 C 0.55339 0.64251 0.12708 0.0
C2829 C 0.5792 0.61178 0.13762 0.0
C2830 C 0.5704 0.65162 0.1133 0.0
C2831 C 0.59181 0.64136 0.11218 0.0
H2832 H 0.4203 0.62664 0.10754 0.0
H2833 H 0.4677 0.61226 0.16089 0.0
H2834 H 0.45051 0.5753 0.16655 0.0
H2835 H 0.4203 0.54816 0.15854 0.0
H2836 H 0.37265 0.56159 0.10526 0.0
H2837 H 0.39176 0.59749 0.09714 0.0
C2838 C 0.42689 0.61537 0.12035 0.0
C2839 C 0.44528 0.62243 0.13388 0.0
C2840 C 0.4169 0.59388 0.12348 0.0
C2841 C 0.45378 0.60737 0.15013 0.0
C2842 C 0.44385 0.5862 0.15346 0.0
C2843 C 0.4143 0.55874 0.14485 0.0
C2844 C 0.39503 0.55212 0.13253 0.0
C2845 C 0.42522 0.57941 0.14049 0.0
C2846 C 0.38757 0.56606 0.11484 0.0
C2847 C 0.39837 0.58675 0.11038 0.0
H2848 H 0.49525 0.42921 0.14721 0.0
H2849 H 0.46899 0.36829 0.11747 0.0
H2850 H 0.4314 0.38546 0.11506 0.0
H2851 H 0.40503 0.41636 0.126 0.0
H2852 H 0.43192 0.47794 0.15365 0.0
H2853 H 0.47017 0.46221 0.1522 0.0
C2854 C 0.48144 0.42 0.13948 0.0
C2855 C 0.48496 0.39757 0.13233 0.0
C2856 C 0.45988 0.43003 0.13818 0.0
C2857 C 0.46686 0.38571 0.12264 0.0
C2858 C 0.44527 0.39544 0.12159 0.0
C2859 C 0.41938 0.4264 0.13129 0.0
C2860 C 0.41569 0.44823 0.14009 0.0
C2861 C 0.44141 0.41733 0.12999 0.0
C2862 C 0.43438 0.46118 0.14676 0.0
C2863 C 0.45622 0.45213 0.14602 0.0
H2864 H 0.88224 0.61862 0.54674 0.0
H2865 H 0.93214 0.66888 0.56328 0.0
H2866 H 0.93813 0.65087 0.60014 0.0
H2867 H 0.92671 0.62246 0.62908 0.0
H2868 H 0.8769 0.5723 0.61168 0.0
H2869 H 0.87342 0.58853 0.57397 0.0
C2870 C 0.8948 0.6254 0.5582 0.0
C2871 C 0.9068 0.64509 0.55205 0.0
C2872 C 0.89792 0.61509 0.57948 0.0
C2873 C 0.92292 0.6536 0.56726 0.0
C2874 C 0.92613 0.64343 0.58852 0.0
C2875 C 0.91513 0.61504 0.61702 0.0
C2876 C 0.90192 0.59615 0.62349 0.0
C2877 C 0.91331 0.62446 0.59507 0.0
C2878 C 0.88734 0.58664 0.60735 0.0
C2879 C 0.88528 0.59602 0.58572 0.0
H2880 H 0.38088 0.91454 0.56733 0.0
H2881 H 0.43508 0.88977 0.5259 0.0
H2882 H 0.46049 0.88962 0.55853 0.0
H2883 H 0.46587 0.89169 0.60012 0.0
H2884 H 0.41061 0.91436 0.64158 0.0
H2885 H 0.38733 0.92014 0.60816 0.0
C2886 C 0.3985 0.91003 0.56532 0.0
C2887 C 0.40624 0.90281 0.54404 0.0
C2888 C 0.41277 0.90899 0.58447 0.0
C2889 C 0.42888 0.89599 0.54194 0.0
C2890 C 0.44334 0.8956 0.56071 0.0
C2891 C 0.4489 0.8983 0.60177 0.0
C2892 C 0.44001 0.90225 0.62351 0.0
C2893 C 0.4353 0.90132 0.58227 0.0
C2894 C 0.41784 0.91071 0.62521 0.0
C2895 C 0.40447 0.91414 0.60602 0.0
H2896 H 0.12068 0.42167 0.63643 0.0
H2897 H 0.16811 0.47279 0.61561 0.0
H2898 H 0.17005 0.45598 0.57804 0.0
H2899 H 0.16071 0.42517 0.55191 0.0
H2900 H 0.11298 0.37403 0.57171 0.0
H2901 H 0.10838 0.39254 0.60856 0.0
C2902 C 0.13138 0.42915 0.62363 0.0
C2903 C 0.14441 0.44845 0.62903 0.0
C2904 C 0.13226 0.41943 0.60179 0.0
C2905 C 0.15786 0.45809 0.61203 0.0
C2906 C 0.15903 0.44841 0.59051 0.0
C2907 C 0.14892 0.41831 0.56412 0.0
C2908 C 0.13713 0.39825 0.55896 0.0
C2909 C 0.14659 0.42892 0.58529 0.0
C2910 C 0.12198 0.3896 0.57502 0.0
C2911 C 0.11959 0.40006 0.59624 0.0
H2912 H 0.62048 0.15736 0.55485 0.0
H2913 H 0.67035 0.10767 0.57302 0.0
H2914 H 0.65149 0.10201 0.60954 0.0
H2915 H 0.6226 0.11408 0.63779 0.0
H2916 H 0.57312 0.16396 0.61864 0.0
H2917 H 0.58994 0.16661 0.58119 0.0
C2918 C 0.62696 0.14488 0.56659 0.0
C2919 C 0.64677 0.13286 0.56108 0.0
C2920 C 0.61623 0.14204 0.58762 0.0
C2921 C 0.65495 0.11685 0.57657 0.0
C2922 C 0.6443 0.11388 0.59762 0.0
C2923 C 0.61547 0.12547 0.6254 0.0
C2924 C 0.5966 0.13895 0.63127 0.0
C2925 C 0.62526 0.12685 0.60361 0.0
C2926 C 0.58744 0.15331 0.61474 0.0
C2927 C 0.59714 0.1549 0.59326 0.0
H2928 H 0.91751 0.4266 0.40938 0.0
H2929 H 0.87387 0.47903 0.43467 0.0
H2930 H 0.87365 0.46118 0.47189 0.0
H2931 H 0.88296 0.42887 0.49627 0.0
H2932 H 0.92731 0.37666 0.47189 0.0
H2933 H 0.93058 0.39633 0.43553 0.0
C2934 C 0.90807 0.43415 0.4231 0.0
C2935 C 0.89546 0.45404 0.41912 0.0
C2936 C 0.90826 0.42387 0.44466 0.0
C2937 C 0.88368 0.46382 0.43722 0.0
C2938 C 0.88351 0.45356 0.45851 0.0
C2939 C 0.89381 0.42208 0.48318 0.0
C2940 C 0.90497 0.40135 0.48685 0.0
C2941 C 0.89539 0.43338 0.46231 0.0
C2942 C 0.91887 0.39274 0.46969 0.0
C2943 C 0.92046 0.40386 0.44877 0.0
H2944 H 0.62723 0.93 0.47756 0.0
H2945 H 0.65415 0.86306 0.48765 0.0
H2946 H 0.63447 0.84998 0.45369 0.0
H2947 H 0.61084 0.85799 0.42027 0.0
H2948 H 0.58502 0.92535 0.40996 0.0
H2949 H 0.6029 0.9377 0.44494 0.0
C2950 C 0.6287 0.91247 0.47251 0.0
C2951 C 0.64225 0.89756 0.48527 0.0
C2952 C 0.61759 0.90515 0.4528 0.0
C2953 C 0.64383 0.87492 0.47831 0.0
C2954 C 0.63265 0.86746 0.45879 0.0
C2955 C 0.60921 0.87542 0.42552 0.0
C2956 C 0.59658 0.89071 0.41219 0.0
C2957 C 0.61973 0.88251 0.44571 0.0
C2958 C 0.59438 0.91311 0.41977 0.0
C2959 C 0.60473 0.92024 0.43979 0.0
H2960 H 0.15904 0.61854 0.49774 0.0
H2961 H 0.108 0.6673 0.48028 0.0
H2962 H 0.10295 0.64889 0.44344 0.0
H2963 H 0.11572 0.62071 0.41476 0.0
H2964 H 0.1666 0.57204 0.43325 0.0
H2965 H 0.169 0.58852 0.47092 0.0
C2966 C 0.14643 0.62488 0.48607 0.0
C2967 C 0.13384 0.64427 0.4919 0.0
C2968 C 0.14386 0.61435 0.46486 0.0
C2969 C 0.11765 0.65223 0.47649 0.0
C2970 C 0.115 0.64185 0.45526 0.0
C2971 C 0.12727 0.61368 0.42706 0.0
C2972 C 0.14112 0.59515 0.42094 0.0
C2973 C 0.12845 0.62322 0.449 0.0
C2974 C 0.15568 0.5861 0.43735 0.0
C2975 C 0.15713 0.59561 0.45895 0.0
H2976 H 0.42387 0.12804 0.41108 0.0
H2977 H 0.48639 0.15348 0.43792 0.0
H2978 H 0.47073 0.15246 0.4762 0.0
H2979 H 0.43761 0.14871 0.50129 0.0
H2980 H 0.37563 0.12125 0.47502 0.0
H2981 H 0.3927 0.11812 0.43746 0.0
C2982 C 0.43412 0.13293 0.42543 0.0
C2983 C 0.4562 0.14101 0.42172 0.0
C2984 C 0.42506 0.1319 0.44747 0.0
C2985 C 0.46942 0.14715 0.4404 0.0
C2986 C 0.46041 0.14666 0.46225 0.0
C2987 C 0.42811 0.14131 0.48749 0.0
C2988 C 0.40542 0.13508 0.49099 0.0
C2989 C 0.43807 0.13961 0.46593 0.0
C2990 C 0.39323 0.12576 0.47291 0.0
C2991 C 0.40291 0.12429 0.45133 0.0
H2992 H 0.54301 0.89874 0.60654 0.0
H2993 H 0.56618 0.92662 0.66954 0.0
H2994 H 0.60455 0.92964 0.65431 0.0
H2995 H 0.63249 0.92006 0.62418 0.0
H2996 H 0.60852 0.89451 0.56057 0.0
H2997 H 0.56963 0.89485 0.5747 0.0
C2998 C 0.55632 0.90621 0.61666 0.0
C2999 C 0.55164 0.91265 0.63909 0.0
C3000 C 0.57835 0.90786 0.60775 0.0
C3001 C 0.56915 0.92199 0.6521 0.0
C3002 C 0.59121 0.92338 0.64348 0.0
C3003 C 0.61864 0.91491 0.6134 0.0
C3004 C 0.62333 0.90707 0.5914 0.0
C3005 C 0.59617 0.9157 0.62154 0.0
C3006 C 0.60527 0.90061 0.57749 0.0
C3007 C 0.58307 0.90076 0.58561 0.0
H3008 H 0.63612 0.11877 0.42783 0.0
H3009 H 0.61419 0.16771 0.47701 0.0
H3010 H 0.57707 0.1694 0.4591 0.0
H3011 H 0.55186 0.15954 0.42761 0.0
H3012 H 0.57279 0.11003 0.37863 0.0
H3013 H 0.60897 0.10564 0.39843 0.0
C3014 C 0.62316 0.1297 0.43467 0.0
C3015 C 0.62811 0.1433 0.45369 0.0
C3016 C 0.6016 0.1304 0.42434 0.0
C3017 C 0.61093 0.15705 0.46253 0.0
C3018 C 0.58968 0.15808 0.45221 0.0
C3019 C 0.56414 0.14738 0.42154 0.0
C3020 C 0.55953 0.13507 0.40166 0.0
C3021 C 0.58494 0.14513 0.43291 0.0
C3022 C 0.57568 0.11945 0.39404 0.0
C3023 C 0.59652 0.11718 0.40522 0.0
H3024 H 0.90135 0.61102 0.46616 0.0
H3025 H 0.90717 0.65642 0.40973 0.0
H3026 H 0.91448 0.62473 0.38441 0.0
H3027 H 0.91335 0.5838 0.37721 0.0
H3028 H 0.90488 0.53791 0.43276 0.0
H3029 H 0.90508 0.5696 0.45941 0.0
C3030 C 0.90484 0.61393 0.44844 0.0
C3031 C 0.90355 0.63612 0.43984 0.0
C3032 C 0.90854 0.59538 0.43373 0.0
C3033 C 0.90784 0.63956 0.41674 0.0
C3034 C 0.91203 0.6214 0.40223 0.0
C3035 C 0.91266 0.58072 0.39525 0.0
C3036 C 0.90986 0.55845 0.40305 0.0
C3037 C 0.91169 0.59917 0.41035 0.0
C3038 C 0.90783 0.5548 0.4264 0.0
C3039 C 0.90755 0.57301 0.44162 0.0
H3040 H 0.41255 0.90724 0.41071 0.0
H3041 H 0.43986 0.88274 0.47336 0.0
H3042 H 0.47818 0.88471 0.45782 0.0
H3043 H 0.50332 0.88921 0.42483 0.0
H3044 H 0.47662 0.91601 0.36278 0.0
H3045 H 0.43887 0.91795 0.37961 0.0
C3046 C 0.42701 0.90278 0.42099 0.0
C3047 C 0.42348 0.8947 0.44309 0.0
C3048 C 0.44908 0.90445 0.41203 0.0
C3049 C 0.44226 0.88904 0.45637 0.0
C3050 C 0.46412 0.8901 0.44744 0.0
C3051 C 0.48937 0.89626 0.41529 0.0
C3052 C 0.49284 0.90268 0.39265 0.0
C3053 C 0.4677 0.89728 0.42512 0.0
C3054 C 0.47454 0.91144 0.38036 0.0
C3055 C 0.45285 0.9122 0.3899 0.0
H3056 H 0.1166 0.41127 0.42529 0.0
H3057 H 0.16672 0.43074 0.4744 0.0
H3058 H 0.16902 0.46822 0.45755 0.0
H3059 H 0.15928 0.49455 0.42715 0.0
H3060 H 0.10933 0.47603 0.37765 0.0
H3061 H 0.10418 0.4394 0.39649 0.0
C3062 C 0.12797 0.42374 0.43234 0.0
C3063 C 0.14161 0.41796 0.45111 0.0
C3064 C 0.12916 0.44553 0.42252 0.0
C3065 C 0.15594 0.43458 0.46016 0.0
C3066 C 0.15734 0.45606 0.45044 0.0
C3067 C 0.1469 0.48269 0.42071 0.0
C3068 C 0.13466 0.48812 0.40101 0.0
C3069 C 0.14431 0.46162 0.43144 0.0
C3070 C 0.11873 0.4725 0.39293 0.0
C3071 C 0.11601 0.45141 0.40357 0.0
H3072 H 0.41029 0.13275 0.62751 0.0
H3073 H 0.4431 0.15283 0.56597 0.0
H3074 H 0.48016 0.14827 0.58389 0.0
H3075 H 0.50278 0.14345 0.61867 0.0
H3076 H 0.47035 0.12121 0.67974 0.0
H3077 H 0.4337 0.12112 0.66049 0.0
C3078 C 0.42564 0.13556 0.61797 0.0
C3079 C 0.42407 0.1432 0.59549 0.0
C3080 C 0.44691 0.1325 0.62835 0.0
C3081 C 0.44398 0.14682 0.58321 0.0
C3082 C 0.46513 0.14433 0.59351 0.0
C3083 C 0.48779 0.13773 0.62748 0.0
C3084 C 0.4893 0.13207 0.65052 0.0
C3085 C 0.46678 0.13778 0.61625 0.0
C3086 C 0.46971 0.12511 0.66189 0.0
C3087 C 0.44869 0.12541 0.65094 0.0
H3088 H 0.88672 0.49719 0.61857 0.0
H3089 H 0.93722 0.47688 0.66676 0.0
H3090 H 0.94101 0.44031 0.64746 0.0
H3091 H 0.92702 0.41269 0.61885 0.0
H3092 H 0.87663 0.43398 0.57082 0.0
H3093 H 0.87579 0.47144 0.58797 0.0
C3094 C 0.89898 0.48496 0.62455 0.0
C3095 C 0.91177 0.48987 0.64404 0.0
C3096 C 0.90079 0.46393 0.61355 0.0
C3097 C 0.92747 0.47378 0.6516 0.0
C3098 C 0.92938 0.45271 0.64072 0.0
C3099 C 0.91593 0.42557 0.61209 0.0
C3100 C 0.90172 0.42031 0.59359 0.0
C3101 C 0.91565 0.44734 0.62203 0.0
C3102 C 0.88778 0.43742 0.58487 0.0
C3103 C 0.88724 0.45889 0.59476 0.0
H3104 H 0.14693 0.54487 0.61712 0.0
H3105 H 0.11694 0.57228 0.67735 0.0
H3106 H 0.11482 0.60962 0.65956 0.0
H3107 H 0.12625 0.6355 0.62834 0.0
H3108 H 0.15406 0.60739 0.56742 0.0
H3109 H 0.15221 0.56939 0.58374 0.0
C3110 C 0.13914 0.55885 0.62602 0.0
C3111 C 0.13184 0.5557 0.64845 0.0
C3112 C 0.13803 0.58028 0.61563 0.0
C3113 C 0.12218 0.57407 0.65993 0.0
C3114 C 0.12131 0.59554 0.64984 0.0
C3115 C 0.13148 0.62094 0.61857 0.0
C3116 C 0.14046 0.62423 0.59675 0.0
C3117 C 0.12991 0.59902 0.62797 0.0
C3118 C 0.14705 0.60526 0.58416 0.0
C3119 C 0.14607 0.58355 0.59355 0.0
H3120 H 0.04857 0.25282 0.30263 0.0
H3121 H 0.0154 0.28671 0.35789 0.0
H3122 H 1.0005 0.315 0.33203 0.0
H3123 H 0.9965 0.33023 0.29373 0.0
H3124 H 0.03116 0.29749 0.23856 0.0
H3125 H 0.0449 0.26847 0.26413 0.0
C3126 C 0.03806 0.26638 0.30901 0.0
C3127 C 0.03343 0.26765 0.33233 0.0
C3128 C 0.02942 0.28274 0.29396 0.0
C3129 C 0.01977 0.28547 0.34019 0.0
C3130 C 0.011 0.3016 0.32534 0.0
C3131 C 1.00718 0.31689 0.28719 0.0
C3132 C 0.01249 0.31628 0.26396 0.0
C3133 C 0.01573 0.30047 0.30218 0.0
C3134 C 0.02614 0.2984 0.25609 0.0
C3135 C 0.03434 0.28182 0.27082 0.0
H3136 H 0.75087 0.0335 0.24406 0.0
H3137 H 0.71803 0.98603 0.28852 0.0
H3138 H 0.74382 0.99628 0.31887 0.0
H3139 H 0.77509 0.01931 0.33339 0.0
H3140 H 0.80913 0.06589 0.28911 0.0
H3141 H 0.7838 0.05517 0.25814 0.0
C3142 C 0.74956 0.02509 0.26025 0.0
C3143 C 0.73222 1.00908 0.26387 0.0
C3144 C 0.76463 0.03102 0.2778 0.0
C3145 C 0.73081 0.99866 0.28519 0.0
C3146 C 0.74565 1.00447 0.30262 0.0
C3147 C 0.77688 0.02726 0.317 0.0
C3148 C 0.79383 0.04366 0.31372 0.0
C3149 C 0.76242 0.02084 0.29924 0.0
C3150 C 0.79623 0.0533 0.29217 0.0
C3151 C 0.78171 0.04718 0.27445 0.0
H3152 H 0.05666 0.72272 0.28524 0.0
H3153 H 0.01641 0.74909 0.23048 0.0
H3154 H 1.00197 0.77868 0.25509 0.0
H3155 H 0.99885 0.79613 0.29304 0.0
H3156 H 0.03783 0.76827 0.34789 0.0
H3157 H 0.05386 0.74008 0.32266 0.0
C3158 C 0.04464 0.7348 0.27858 0.0
C3159 C 0.03784 0.73339 0.25578 0.0
C3160 C 0.03573 0.75148 0.29307 0.0
C3161 C 0.02251 0.74974 0.24768 0.0
C3162 C 0.01393 0.76663 0.2619 0.0
C3163 C 0.01089 0.78392 0.29944 0.0
C3164 C 0.01672 0.78421 0.32254 0.0
C3165 C 0.02016 0.76753 0.28473 0.0
C3166 C 0.03246 0.76821 0.33042 0.0
C3167 C 0.04186 0.75213 0.31591 0.0
H3168 H 0.33491 0.01513 0.27522 0.0
H3169 H 0.29552 0.06761 0.24369 0.0
H3170 H 0.26395 0.05936 0.2691 0.0
H3171 H 0.24801 0.03801 0.30137 0.0
H3172 H 0.288 0.9858 0.33267 0.0
H3173 H 0.31881 0.99327 0.30639 0.0
C3174 C 0.31953 0.02499 0.27404 0.0
C3175 C 0.31778 0.04222 0.25771 0.0
C3176 C 0.30147 0.02013 0.28867 0.0
C3177 C 0.2974 0.05429 0.25607 0.0
C3178 C 0.27933 0.04959 0.27064 0.0
C3179 C 0.26333 0.02803 0.3022 0.0
C3180 C 0.26564 0.01136 0.31906 0.0
C3181 C 0.28119 0.03258 0.28708 0.0
C3182 C 0.28579 0.99884 0.32004 0.0
C3183 C 0.30345 1.0031 0.305 0.0
H3184 H 0.04109 0.78579 0.75891 0.0
H3185 H 1.00883 0.75377 0.70197 0.0
H3186 H 0.99446 0.72404 0.72641 0.0
H3187 H 0.99084 0.70695 0.76389 0.0
H3188 H 0.02426 0.73801 0.82076 0.0
H3189 H 0.03739 0.76856 0.79665 0.0
C3190 C 0.03088 0.77234 0.75186 0.0
C3191 C 0.02638 0.77197 0.7285 0.0
C3192 C 0.02248 0.75521 0.76609 0.0
C3193 C 0.01311 0.7543 0.71973 0.0
C3194 C 1.00464 0.73735 0.73376 0.0
C3195 C 1.00108 0.7203 0.77109 0.0
C3196 C 1.00635 0.71999 0.79429 0.0
C3197 C 1.00924 0.73758 0.75696 0.0
C3198 C 0.01938 0.73783 0.80316 0.0
C3199 C 0.02722 0.75526 0.78928 0.0
H3200 H 0.31464 0.98137 0.76441 0.0
H3201 H 0.29418 0.03357 0.81082 0.0
H3202 H 0.26288 0.0438 0.78599 0.0
H3203 H 0.24281 0.03985 0.74934 0.0
H3204 H 0.26389 0.98769 0.70317 0.0
H3205 H 0.29312 0.9756 0.72946 0.0
C3206 C 0.30329 0.99493 0.76915 0.0
C3207 C 0.30691 1.00666 0.7895 0.0
C3208 C 0.28535 1.00086 0.75468 0.0
C3209 C 0.29176 0.02403 0.79542 0.0
C3210 C 0.27388 0.03002 0.78112 0.0
C3211 C 0.25356 0.02561 0.74528 0.0
C3212 C 0.25129 0.01488 0.72418 0.0
C3213 C 0.27066 0.01879 0.7605 0.0
C3214 C 0.26545 0.99646 0.71914 0.0
C3215 C 0.28222 0.98952 0.73418 0.0
H3216 H 0.03445 0.27936 0.71254 0.0
H3217 H 0.98115 0.25095 0.75299 0.0
H3218 H 0.99074 0.27672 0.78401 0.0
H3219 H 0.0134 0.3085 0.79891 0.0
H3220 H 0.06782 0.33539 0.75862 0.0
H3221 H 0.05858 0.30917 0.72829 0.0
C3222 C 0.02485 0.27891 0.72812 0.0
C3223 C 1.00686 0.26352 0.73034 0.0
C3224 C 0.03067 0.29352 0.74592 0.0
C3225 C 0.99496 0.26272 0.75082 0.0
C3226 C 1.00046 0.27746 0.76854 0.0
C3227 C 0.02354 0.30838 0.7837 0.0
C3228 C 0.04121 0.32421 0.78112 0.0
C3229 C 0.01822 0.29305 0.76624 0.0
C3230 C 0.05389 0.32382 0.76104 0.0
C3231 C 0.04866 0.30874 0.74365 0.0
H3232 H 0.76552 0.03883 0.71821 0.0
H3233 H 0.79502 0.98752 0.76057 0.0
H3234 H 0.76748 0.99597 0.79024 0.0
H3235 H 0.734 0.01698 0.80351 0.0
H3236 H 0.70507 0.06866 0.76109 0.0
H3237 H 0.73327 0.06091 0.73208 0.0
C3238 C 0.76581 0.02935 0.73386 0.0
C3239 C 0.78216 0.01234 0.73702 0.0
C3240 C 0.75002 0.0344 0.75087 0.0
C3241 C 0.78263 1.00066 0.75766 0.0
C3242 C 0.76686 1.00548 0.77462 0.0
C3243 C 0.7341 0.02686 0.78811 0.0
C3244 C 0.7173 0.04339 0.78455 0.0
C3245 C 0.7504 0.02226 0.77139 0.0
C3246 C 0.71757 0.0557 0.76425 0.0
C3247 C 0.73373 0.05129 0.74763 0.0
H3248 H 0.32647 0.28651 0.9921 0.0
H3249 H 0.29649 0.23001 0.02717 0.0
H3250 H 0.26686 0.25445 0.04152 0.0
H3251 H 0.24989 0.29242 0.04567 0.0
H3252 H 0.28158 0.34911 0.01278 0.0
H3253 H 0.3103 0.32427 0.99695 0.0
C3254 C 0.31366 0.27942 1.00304 0.0
C3255 C 0.31399 0.25614 1.00822 0.0
C3256 C 0.29696 0.29379 0.01207 0.0
C3257 C 0.2967 0.24758 0.02218 0.0
C3258 C 0.27976 0.26168 0.03076 0.0
C3259 C 0.2631 0.29931 0.03506 0.0
C3260 C 0.26364 0.32271 0.03071 0.0
C3261 C 0.27979 0.28487 0.026 0.0
C3262 C 0.28095 0.3313 0.01688 0.0
C3263 C 0.29731 0.31704 1.00761 0.0
H3264 H 0.30822 0.79631 0.01194 0.0
H3265 H 0.33587 0.75623 0.06615 0.0
H3266 H 0.30922 0.72602 0.05767 0.0
H3267 H 0.27844 0.71045 0.03449 0.0
H3268 H 0.24974 0.75075 0.98114 0.0
H3269 H 0.2761 0.78141 0.98987 0.0
C3270 C 0.30821 0.78116 0.02219 0.0
C3271 C 0.32429 0.77868 0.03965 0.0
C3272 C 0.29266 0.76375 0.01728 0.0
C3273 C 0.32405 0.75863 0.05242 0.0
C3274 C 0.30872 0.7413 0.04762 0.0
C3275 C 0.27807 0.72588 0.02464 0.0
C3276 C 0.26227 0.72814 1.00696 0.0
C3277 C 0.29313 0.74354 0.02993 0.0
C3278 C 0.2617 0.7485 0.99478 0.0
C3279 C 0.27681 0.76605 0.99977 0.0
H3280 H 0.71519 0.27335 1.00754 0.0
H3281 H 0.75407 0.2451 0.06217 0.0
H3282 H 0.78519 0.27103 0.05355 0.0
H3283 H 0.80051 0.3032 0.03158 0.0
H3284 H 0.76121 0.33075 0.97674 0.0
H3285 H 0.73106 0.30386 0.98457 0.0
C3286 C 0.73041 0.27294 0.0177 0.0
C3287 C 0.7321 0.25749 0.03575 0.0
C3288 C 0.74817 0.28787 0.01264 0.0
C3289 C 0.75225 0.25681 0.04826 0.0
C3290 C 0.77003 0.2717 0.04335 0.0
C3291 C 0.78553 0.30309 0.02107 0.0
C3292 C 0.78321 0.31921 1.00362 0.0
C3293 C 0.76811 0.28747 0.02569 0.0
C3294 C 0.76344 0.31888 0.99046 0.0
C3295 C 0.74616 0.30342 0.99489 0.0
H3296 H 0.79372 0.73544 0.02184 0.0
H3297 H 0.75357 0.70867 0.07641 0.0
H3298 H 0.72314 0.73481 0.06706 0.0
H3299 H 0.70747 0.7651 0.04307 0.0
H3300 H 0.74821 0.7931 0.98975 0.0
H3301 H 0.77881 0.7669 0.99905 0.0
C3302 C 0.77852 0.73554 0.03201 0.0
C3303 C 0.7761 0.71987 0.04982 0.0
C3304 C 0.76102 0.7508 0.02663 0.0
C3305 C 0.75595 0.72019 0.06242 0.0
C3306 C 0.73848 0.73522 0.05712 0.0
C3307 C 0.72299 0.76533 0.03338 0.0
C3308 C 0.72544 0.7809 0.01556 0.0
C3309 C 0.7407 0.75045 0.03911 0.0
C3310 C 0.74586 0.78128 1.00349 0.0
C3311 C 0.76337 0.7663 1.00883 0.0
H3312 H 0.50906 0.7729 0.82527 0.0
H3313 H 0.56708 0.74833 0.78895 0.0
H3314 H 0.55789 0.77325 0.75716 0.0
H3315 H 0.53417 0.80343 0.74044 0.0
H3316 H 0.47566 0.82692 0.77692 0.0
H3317 H 0.4843 0.80114 0.80781 0.0
C3318 C 0.51981 0.7731 0.81045 0.0
C3319 C 0.53896 0.75901 0.80966 0.0
C3320 C 0.5143 0.78731 0.79222 0.0
C3321 C 0.55232 0.75906 0.79006 0.0
C3322 C 0.54706 0.77333 0.77188 0.0
C3323 C 0.52307 0.80264 0.75495 0.0
C3324 C 0.50434 0.81735 0.75631 0.0
C3325 C 0.52815 0.78767 0.77282 0.0
C3326 C 0.49036 0.81614 0.77547 0.0
C3327 C 0.49526 0.80134 0.79318 0.0
H3328 H 0.29511 0.51271 0.80698 0.0
H3329 H 0.25604 0.56806 0.8339 0.0
H3330 H 0.22516 0.55893 0.80832 0.0
H3331 H 0.20867 0.53493 0.7787 0.0
H3332 H 0.24793 0.48063 0.75037 0.0
H3333 H 0.27931 0.48988 0.77574 0.0
C3334 C 0.28004 0.52307 0.80704 0.0
C3335 C 0.27805 0.54101 0.82269 0.0
C3336 C 0.26222 0.51783 0.79203 0.0
C3337 C 0.25808 0.55392 0.8225 0.0
C3338 C 0.24036 0.54876 0.80775 0.0
C3339 C 0.22403 0.525 0.77819 0.0
C3340 C 0.22577 0.50688 0.76281 0.0
C3341 C 0.2421 0.53061 0.79263 0.0
C3342 C 0.24607 0.49459 0.76203 0.0
C3343 C 0.26402 0.49989 0.77658 0.0
H3344 H 0.51981 0.2378 0.74935 0.0
H3345 H 0.57107 0.20821 0.79185 0.0
H3346 H 0.56258 0.23555 0.82145 0.0
H3347 H 0.54007 0.26742 0.83583 0.0
H3348 H 0.48957 0.29785 0.79316 0.0
H3349 H 0.49855 0.27095 0.76307 0.0
C3350 C 0.52945 0.23754 0.7649 0.0
C3351 C 0.54605 0.22072 0.76824 0.0
C3352 C 0.52452 0.25346 0.78196 0.0
C3353 C 0.55801 0.22062 0.78878 0.0
C3354 C 0.5532 0.23634 0.80576 0.0
C3355 C 0.5309 0.26808 0.82 0.0
C3356 C 0.51396 0.28454 0.81691 0.0
C3357 C 0.5363 0.25266 0.80268 0.0
C3358 C 0.50267 0.28541 0.79605 0.0
C3359 C 0.50778 0.26999 0.77883 0.0
H3360 H 0.79775 0.54885 0.74954 0.0
H3361 H 0.85413 0.51729 0.78317 0.0
H3362 H 0.82893 0.50192 0.81172 0.0
H3363 H 0.79096 0.49711 0.82737 0.0
H3364 H 0.73454 0.53018 0.79512 0.0
H3365 H 0.75942 0.54429 0.76567 0.0
C3366 C 0.80452 0.53861 0.7631 0.0
C3367 C 0.82799 0.53461 0.76422 0.0
C3368 C 0.78982 0.52969 0.77969 0.0
C3369 C 0.83632 0.52123 0.78204 0.0
C3370 C 0.82184 0.51218 0.79834 0.0
C3371 C 0.78398 0.50754 0.81407 0.0
C3372 C 0.76061 0.5123 0.81376 0.0
C3373 C 0.79856 0.51633 0.79741 0.0
C3374 C 0.7522 0.52559 0.79586 0.0
C3375 C 0.76654 0.534 0.77901 0.0
H3376 H 0.49811 0.21138 0.25458 0.0
H3377 H 0.5333 0.24345 0.30982 0.0
H3378 H 0.54565 0.27353 0.28479 0.0
H3379 H 0.54786 0.2904 0.24668 0.0
H3380 H 0.51425 0.25715 0.19129 0.0
H3381 H 0.50074 0.22776 0.21666 0.0
C3382 C 0.50861 0.22479 0.26124 0.0
C3383 C 0.51445 0.22493 0.28433 0.0
C3384 C 0.51635 0.24185 0.24654 0.0
C3385 C 0.52787 0.2429 0.29239 0.0
C3386 C 0.53527 0.2601 0.27796 0.0
C3387 C 0.53757 0.27673 0.24018 0.0
C3388 C 0.53239 0.27596 0.21696 0.0
C3389 C 0.52977 0.25971 0.25495 0.0
C3390 C 0.51901 0.25801 0.20891 0.0
C3391 C 0.51106 0.24124 0.22349 0.0
H3392 H 0.78306 0.55684 0.21652 0.0
H3393 H 0.72924 0.51677 0.24488 0.0
H3394 H 0.7541 0.50451 0.27528 0.0
H3395 H 0.79207 0.50323 0.29292 0.0
H3396 H 0.84587 0.54243 0.2634 0.0
H3397 H 0.82036 0.55626 0.23435 0.0
C3398 C 0.77668 0.54536 0.22926 0.0
C3399 C 0.75411 0.53789 0.22816 0.0
C3400 C 0.79128 0.53783 0.2465 0.0
C3401 C 0.7463 0.52329 0.24527 0.0
C3402 C 0.76064 0.51599 0.26264 0.0
C3403 C 0.79817 0.51487 0.28019 0.0
C3404 C 0.82107 0.52136 0.28023 0.0
C3405 C 0.78329 0.52289 0.2633 0.0
C3406 C 0.82856 0.53657 0.26355 0.0
C3407 C 0.8139 0.5447 0.24696 0.0
H3408 H 0.48638 0.74894 0.23767 0.0
H3409 H 0.52399 0.77796 0.18257 0.0
H3410 H 0.54047 0.80584 0.20801 0.0
H3411 H 0.54488 0.82164 0.24601 0.0
H3412 H 0.50488 0.79451 0.30064 0.0
H3413 H 0.48949 0.76603 0.27556 0.0
C3414 C 0.49811 0.76144 0.23127 0.0
C3415 C 0.50373 0.76146 0.2082 0.0
C3416 C 0.50749 0.77763 0.24601 0.0
C3417 C 0.51899 0.7778 0.20015 0.0
C3418 C 0.52861 0.79366 0.21474 0.0
C3419 C 0.53264 0.80972 0.25252 0.0
C3420 C 0.52652 0.81034 0.27552 0.0
C3421 C 0.52302 0.79374 0.23773 0.0
C3422 C 0.51072 0.7943 0.28335 0.0
C3423 C 0.50154 0.77806 0.26888 0.0
H3424 H 0.25032 0.49645 0.21471 0.0
H3425 H 0.30908 0.52717 0.24516 0.0
H3426 H 0.28594 0.54174 0.27565 0.0
H3427 H 0.24859 0.5472 0.29349 0.0
H3428 H 0.18969 0.51878 0.26152 0.0
H3429 H 0.21312 0.50282 0.23171 0.0
C3430 C 0.2582 0.50649 0.22781 0.0
C3431 C 0.28173 0.51029 0.22735 0.0
C3432 C 0.24459 0.51569 0.24509 0.0
C3433 C 0.29128 0.52317 0.24501 0.0
C3434 C 0.27793 0.53189 0.26248 0.0
C3435 C 0.2409 0.53755 0.27998 0.0
C3436 C 0.2173 0.53449 0.27973 0.0
C3437 C 0.25453 0.52841 0.26266 0.0
C3438 C 0.20769 0.52189 0.26199 0.0
C3439 C 0.22114 0.51254 0.24498 0.0
H3440 H 0.74689 0.80279 0.54162 0.0
H3441 H 0.77085 0.84962 0.49129 0.0
H3442 H 0.80015 0.82316 0.48002 0.0
H3443 H 0.82061 0.78749 0.48553 0.0
H3444 H 0.7968 0.73996 0.53517 0.0
H3445 H 0.766 0.76551 0.54527 0.0
C3446 C 0.75833 0.80704 0.52799 0.0
C3447 C 0.75681 0.82845 0.51768 0.0
C3448 C 0.77539 0.79157 0.52145 0.0
C3449 C 0.77184 0.83355 0.49996 0.0
C3450 C 0.78865 0.81836 0.4934 0.0
C3451 C 0.80866 0.78268 0.49852 0.0
C3452 C 0.81117 0.76176 0.50954 0.0
C3453 C 0.7909 0.7975 0.50429 0.0
C3454 C 0.79526 0.7558 0.52617 0.0
C3455 C 0.77765 0.77051 0.53208 0.0
H3456 H 0.7738 0.21319 0.54015 0.0
H3457 H 0.74538 0.25074 0.48473 0.0
H3458 H 0.77055 0.28256 0.49317 0.0
H3459 H 0.80196 0.29891 0.51533 0.0
H3460 H 0.82889 0.26158 0.57184 0.0
H3461 H 0.80315 0.23051 0.56382 0.0
C3462 C 0.77319 0.22832 0.52985 0.0
C3463 C 0.75795 0.22945 0.5116 0.0
C3464 C 0.7875 0.24659 0.53499 0.0
C3465 C 0.75699 0.24939 0.49879 0.0
C3466 C 0.77141 0.26757 0.50361 0.0
C3467 C 0.80195 0.28421 0.5262 0.0
C3468 C 0.81768 0.28269 0.5441 0.0
C3469 C 0.78687 0.26631 0.5216 0.0
C3470 C 0.81742 0.26321 0.55771 0.0
C3471 C 0.8026 0.24539 0.55319 0.0
H3472 H 0.28975 0.79426 0.49318 0.0
H3473 H 0.26005 0.85156 0.527 0.0
H3474 H 0.23097 0.82738 0.54302 0.0
H3475 H 0.2138 0.78993 0.54789 0.0
H3476 H 0.24277 0.73264 0.51332 0.0
H3477 H 0.27242 0.75659 0.49808 0.0
C3478 C 0.27696 0.80148 0.50409 0.0
C3479 C 0.27709 0.82491 0.50847 0.0
C3480 C 0.26017 0.78735 0.51351 0.0
C3481 C 0.26021 0.83379 0.5227 0.0
C3482 C 0.24361 0.81989 0.53214 0.0
C3483 C 0.22648 0.78259 0.53694 0.0
C3484 C 0.22583 0.75924 0.53208 0.0
C3485 C 0.24336 0.79664 0.52765 0.0
C3486 C 0.24284 0.7503 0.518 0.0
C3487 C 0.25979 0.76411 0.50896 0.0
H3488 H 0.25061 0.29319 0.49204 0.0
H3489 H 0.19651 0.26263 0.52992 0.0
H3490 H 0.22251 0.23467 0.54522 0.0
H3491 H 0.2606 0.21887 0.54823 0.0
H3492 H 0.31437 0.24757 0.50822 0.0
H3493 H 0.28884 0.27647 0.49426 0.0
C3494 C 0.24454 0.28037 0.5036 0.0
C3495 C 0.22152 0.27992 0.50954 0.0
C3496 C 0.25965 0.2641 0.51233 0.0
C3497 C 0.21399 0.26316 0.52461 0.0
C3498 C 0.22892 0.24723 0.53357 0.0
C3499 C 0.26683 0.23123 0.53629 0.0
C3500 C 0.2897 0.23081 0.52963 0.0
C3501 C 0.25179 0.24748 0.52754 0.0
C3502 C 0.29719 0.24751 0.51436 0.0
C3503 C 0.28244 0.26401 0.50602 0.0
loop_
_geom_bond_atom_site_label_1
_geom_bond_atom_site_label_2
_geom_bond_distance
_geom_bond_site_symmetry_2
_ccdc_geom_bond_type
C0 C1 1.351 . S
C0 N3 1.368 . S
C0 H5 0.931 . S
C1 C0 1.351 . S
C1 N2 1.373 . S
C1 H29 0.930 . S
N2 C1 1.373 . S
N2 C4 1.340 . S
N3 C0 1.368 . S
N3 C4 1.321 . S
N3 Co6 2.135 1_655 S
C4 N2 1.340 . S
C4 N3 1.321 . S
C4 H28 0.930 . S
H5 C0 0.931 . S
Co6 N3 2.135 1_455 S
Co6 N9 2.121 . S
Co6 O14 2.055 1_455 S
Co6 O17 2.039 . S
Co6 N20 2.140 . S
C7 O8 1.227 . S
C7 O17 1.265 . S
O8 C7 1.227 . S
N9 Co6 2.121 . S
N9 C11 1.375 . S
N9 C12 1.313 . S
C10 C11 1.338 . S
C10 N13 1.377 . S
C10 H30 0.930 . S
C11 N9 1.375 . S
C11 C10 1.338 . S
C11 H15 0.931 . S
C12 N9 1.313 . S
C12 N13 1.344 . S
C12 H16 0.930 . S
N13 C10 1.377 . S
N13 C12 1.344 . S
O14 Co6 2.055 1_655 S
O14 C18 1.253 . S
H15 C11 0.931 . S
H16 C12 0.930 . S
O17 Co6 2.039 . S
O17 C7 1.265 . S
C18 O14 1.253 . S
C18 O19 1.227 . S
O19 C18 1.227 . S
N20 Co6 2.140 . S
N20 C23 1.346 . S
N20 C24 1.345 . S
C21 C22 1.387 . S
C21 C25 1.391 . S
C22 C21 1.387 . S
C22 C23 1.369 . S
C22 H31 0.929 . S
C23 N20 1.346 . S
C23 C22 1.369 . S
C23 H26 0.928 . S
C24 N20 1.345 . S
C24 C25 1.371 . S
C24 H27 0.931 . S
C25 C21 1.391 . S
C25 C24 1.371 . S
C25 H32 0.930 . S
H26 C23 0.928 . S
H27 C24 0.931 . S
H28 C4 0.930 . S
H29 C1 0.930 . S
H30 C10 0.930 . S
H31 C22 0.929 . S
H32 C25 0.930 . S
C33 C34 1.351 . S
C33 N36 1.368 . S
C33 H38 0.931 . S
C34 C33 1.351 . S
C34 N35 1.373 . S
C34 H62 0.930 . S
N35 C34 1.373 . S
N35 C37 1.340 . S
N36 C33 1.368 . S
N36 C37 1.321 . S
N36 Co39 2.135 1_565 S
C37 N35 1.340 . S
C37 N36 1.321 . S
C37 H61 0.930 . S
H38 C33 0.931 . S
Co39 N36 2.135 1_545 S
Co39 N42 2.121 . S
Co39 O47 2.055 1_545 S
Co39 O50 2.039 . S
Co39 N53 2.140 . S
C40 O41 1.227 . S
C40 O50 1.265 . S
O41 C40 1.227 . S
N42 Co39 2.121 . S
N42 C44 1.375 . S
N42 C45 1.313 . S
C43 C44 1.338 . S
C43 N46 1.377 . S
C43 H63 0.930 . S
C44 N42 1.375 . S
C44 C43 1.338 . S
C44 H48 0.931 . S
C45 N42 1.313 . S
C45 N46 1.344 . S
C45 H49 0.930 . S
N46 C43 1.377 . S
N46 C45 1.344 . S
O47 Co39 2.055 1_565 S
O47 C51 1.253 . S
H48 C44 0.931 . S
H49 C45 0.930 . S
O50 Co39 2.039 . S
O50 C40 1.265 . S
C51 O47 1.253 . S
C51 O52 1.227 . S
O52 C51 1.227 . S
N53 Co39 2.140 . S
N53 C56 1.346 . S
N53 C57 1.345 . S
C54 C55 1.387 . S
C54 C58 1.391 . S
C55 C54 1.387 . S
C55 C56 1.369 . S
C55 H64 0.929 . S
C56 N53 1.346 . S
C56 C55 1.369 . S
C56 H59 0.928 . S
C57 N53 1.345 . S
C57 C58 1.371 . S
C57 H60 0.931 . S
C58 C54 1.391 . S
C58 C57 1.371 . S
C58 H65 0.930 . S
H59 C56 0.928 . S
H60 C57 0.931 . S
H61 C37 0.930 . S
H62 C34 0.930 . S
H63 C43 0.930 . S
H64 C55 0.929 . S
H65 C58 0.930 . S
C66 C67 1.351 . S
C66 N69 1.368 . S
C66 H71 0.931 . S
C67 C66 1.351 . S
C67 N68 1.373 . S
C67 H95 0.930 . S
N68 C67 1.373 . S
N68 C70 1.340 . S
N69 C66 1.368 . S
N69 C70 1.321 . S
N69 Co72 2.135 . S
C70 N68 1.340 . S
C70 N69 1.321 . S
C70 H94 0.930 . S
H71 C66 0.931 . S
Co72 N69 2.135 . S
Co72 N75 2.121 1_455 S
Co72 O80 2.055 . S
Co72 O83 2.039 1_455 S
Co72 N86 2.140 . S
C73 O74 1.227 . S
C73 O83 1.265 . S
O74 C73 1.227 . S
N75 Co72 2.121 1_655 S
N75 C77 1.375 . S
N75 C78 1.313 . S
C76 C77 1.338 . S
C76 N79 1.377 . S
C76 H96 0.930 . S
C77 N75 1.375 . S
C77 C76 1.338 . S
C77 H81 0.931 . S
C78 N75 1.313 . S
C78 N79 1.344 . S
C78 H82 0.930 . S
N79 C76 1.377 . S
N79 C78 1.344 . S
O80 Co72 2.055 . S
O80 C84 1.253 . S
H81 C77 0.931 . S
H82 C78 0.930 . S
O83 Co72 2.039 1_655 S
O83 C73 1.265 . S
C84 O80 1.253 . S
C84 O85 1.227 . S
O85 C84 1.227 . S
N86 Co72 2.140 . S
N86 C89 1.346 . S
N86 C90 1.345 . S
C87 C88 1.387 . S
C87 C91 1.391 . S
C88 C87 1.387 . S
C88 C89 1.369 . S
C88 H97 0.929 . S
C89 N86 1.346 . S
C89 C88 1.369 . S
C89 H92 0.928 . S
C90 N86 1.345 . S
C90 C91 1.371 . S
C90 H93 0.931 . S
C91 C87 1.391 . S
C91 C90 1.371 . S
C91 H98 0.930 . S
H92 C89 0.928 . S
H93 C90 0.931 . S
H94 C70 0.930 . S
H95 C67 0.930 . S
H96 C76 0.930 . S
H97 C88 0.929 . S
H98 C91 0.930 . S
C99 C100 1.351 . S
C99 N102 1.368 . S
C99 H104 0.931 . S
C100 C99 1.351 . S
C100 N101 1.373 . S
C100 H128 0.930 . S
N101 C100 1.373 . S
N101 C103 1.340 . S
N102 C99 1.368 . S
N102 C103 1.321 . S
N102 Co105 2.135 . S
C103 N101 1.340 . S
C103 N102 1.321 . S
C103 H127 0.930 . S
H104 C99 0.931 . S
Co105 N102 2.135 . S
Co105 N108 2.121 1_545 S
Co105 O113 2.055 . S
Co105 O116 2.039 1_545 S
Co105 N119 2.140 . S
C106 O107 1.227 . S
C106 O116 1.265 . S
O107 C106 1.227 . S
N108 Co105 2.121 1_565 S
N108 C110 1.375 . S
N108 C111 1.313 . S
C109 C110 1.338 . S
C109 N112 1.377 . S
C109 H129 0.930 . S
C110 N108 1.375 . S
C110 C109 1.338 . S
C110 H114 0.931 . S
C111 N108 1.313 . S
C111 N112 1.344 . S
C111 H115 0.930 . S
N112 C109 1.377 . S
N112 C111 1.344 . S
O113 Co105 2.055 . S
O113 C117 1.253 . S
H114 C110 0.931 . S
H115 C111 0.930 . S
O116 Co105 2.039 1_565 S
O116 C106 1.265 . S
C117 O113 1.253 . S
C117 O118 1.227 . S
O118 C117 1.227 . S
N119 Co105 2.140 . S
N119 C122 1.346 . S
N119 C123 1.345 . S
C120 C121 1.387 . S
C120 C124 1.391 . S
C121 C120 1.387 . S
C121 C122 1.369 . S
C121 H130 0.929 . S
C122 N119 1.346 . S
C122 C121 1.369 . S
C122 H125 0.928 . S
C123 N119 1.345 . S
C123 C124 1.371 . S
C123 H126 0.931 . S
C124 C120 1.391 . S
C124 C123 1.371 . S
C124 H131 0.930 . S
H125 C122 0.928 . S
H126 C123 0.931 . S
H127 C103 0.930 . S
H128 C100 0.930 . S
H129 C109 0.930 . S
H130 C121 0.929 . S
H131 C124 0.930 . S
C132 C133 1.351 . S
C132 N135 1.368 . S
C132 H137 0.931 . S
C133 C132 1.351 . S
C133 N134 1.373 . S
C133 H161 0.930 . S
N134 C133 1.373 . S
N134 C136 1.340 . S
N135 C132 1.368 . S
N135 C136 1.321 . S
N135 Co138 2.135 1_655 S
C136 N134 1.340 . S
C136 N135 1.321 . S
C136 H160 0.930 . S
H137 C132 0.931 . S
Co138 N135 2.135 1_455 S
Co138 N141 2.121 . S
Co138 O146 2.055 1_455 S
Co138 O149 2.039 . S
Co138 N152 2.140 . S
C139 O140 1.227 . S
C139 O149 1.265 . S
O140 C139 1.227 . S
N141 Co138 2.121 . S
N141 C143 1.375 . S
N141 C144 1.313 . S
C142 C143 1.338 . S
C142 N145 1.377 . S
C142 H162 0.930 . S
C143 N141 1.375 . S
C143 C142 1.338 . S
C143 H147 0.931 . S
C144 N141 1.313 . S
C144 N145 1.344 . S
C144 H148 0.930 . S
N145 C142 1.377 . S
N145 C144 1.344 . S
O146 Co138 2.055 1_655 S
O146 C150 1.253 . S
H147 C143 0.931 . S
H148 C144 0.930 . S
O149 Co138 2.039 . S
O149 C139 1.265 . S
C150 O146 1.253 . S
C150 O151 1.227 . S
O151 C150 1.227 . S
N152 Co138 2.140 . S
N152 C155 1.346 . S
N152 C156 1.345 . S
C153 C154 1.387 . S
C153 C157 1.391 . S
C154 C153 1.387 . S
C154 C155 1.369 . S
C154 H163 0.929 . S
C155 N152 1.346 . S
C155 C154 1.369 . S
C155 H158 0.928 . S
C156 N152 1.345 . S
C156 C157 1.371 . S
C156 H159 0.931 . S
C157 C153 1.391 . S
C157 C156 1.371 . S
C157 H164 0.930 . S
H158 C155 0.928 . S
H159 C156 0.931 . S
H160 C136 0.930 . S
H161 C133 0.930 . S
H162 C142 0.930 . S
H163 C154 0.929 . S
H164 C157 0.930 . S
C165 C166 1.351 . S
C165 N168 1.368 . S
C165 H170 0.931 . S
C166 C165 1.351 . S
C166 N167 1.373 . S
C166 H194 0.930 . S
N167 C166 1.373 . S
N167 C169 1.340 . S
N168 C165 1.368 . S
N168 C169 1.321 . S
N168 Co171 2.135 1_565 S
C169 N167 1.340 . S
C169 N168 1.321 . S
C169 H193 0.930 . S
H170 C165 0.931 . S
Co171 N168 2.135 1_545 S
Co171 N174 2.121 . S
Co171 O179 2.055 1_545 S
Co171 O182 2.039 . S
Co171 N185 2.140 . S
C172 O173 1.227 . S
C172 O182 1.265 . S
O173 C172 1.227 . S
N174 Co171 2.121 . S
N174 C176 1.375 . S
N174 C177 1.313 . S
C175 C176 1.338 . S
C175 N178 1.377 . S
C175 H195 0.930 . S
C176 N174 1.375 . S
C176 C175 1.338 . S
C176 H180 0.931 . S
C177 N174 1.313 . S
C177 N178 1.344 . S
C177 H181 0.930 . S
N178 C175 1.377 . S
N178 C177 1.344 . S
O179 Co171 2.055 1_565 S
O179 C183 1.253 . S
H180 C176 0.931 . S
H181 C177 0.930 . S
O182 Co171 2.039 . S
O182 C172 1.265 . S
C183 O179 1.253 . S
C183 O184 1.227 . S
O184 C183 1.227 . S
N185 Co171 2.140 . S
N185 C188 1.346 . S
N185 C189 1.345 . S
C186 C187 1.387 . S
C186 C190 1.391 . S
C187 C186 1.387 . S
C187 C188 1.369 . S
C187 H196 0.929 . S
C188 N185 1.346 . S
C188 C187 1.369 . S
C188 H191 0.928 . S
C189 N185 1.345 . S
C189 C190 1.371 . S
C189 H192 0.931 . S
C190 C186 1.391 . S
C190 C189 1.371 . S
C190 H197 0.930 . S
H191 C188 0.928 . S
H192 C189 0.931 . S
H193 C169 0.930 . S
H194 C166 0.930 . S
H195 C175 0.930 . S
H196 C187 0.929 . S
H197 C190 0.930 . S
C198 C199 1.351 . S
C198 N201 1.368 . S
C198 H203 0.931 . S
C199 C198 1.351 . S
C199 N200 1.373 . S
C199 H227 0.930 . S
N200 C199 1.373 . S
N200 C202 1.340 . S
N201 C198 1.368 . S
N201 C202 1.321 . S
N201 Co204 2.135 . S
C202 N200 1.340 . S
C202 N201 1.321 . S
C202 H226 0.930 . S
H203 C198 0.931 . S
Co204 N201 2.135 . S
Co204 N207 2.121 1_455 S
Co204 O212 2.055 . S
Co204 O215 2.039 1_455 S
Co204 N218 2.140 . S
C205 O206 1.227 . S
C205 O215 1.265 . S
O206 C205 1.227 . S
N207 Co204 2.121 1_655 S
N207 C209 1.375 . S
N207 C210 1.313 . S
C208 C209 1.338 . S
C208 N211 1.377 . S
C208 H228 0.930 . S
C209 N207 1.375 . S
C209 C208 1.338 . S
C209 H213 0.931 . S
C210 N207 1.313 . S
C210 N211 1.344 . S
C210 H214 0.930 . S
N211 C208 1.377 . S
N211 C210 1.344 . S
O212 Co204 2.055 . S
O212 C216 1.253 . S
H213 C209 0.931 . S
H214 C210 0.930 . S
O215 Co204 2.039 1_655 S
O215 C205 1.265 . S
C216 O212 1.253 . S
C216 O217 1.227 . S
O217 C216 1.227 . S
N218 Co204 2.140 . S
N218 C221 1.346 . S
N218 C222 1.345 . S
C219 C220 1.387 . S
C219 C223 1.391 . S
C220 C219 1.387 . S
C220 C221 1.369 . S
C220 H229 0.929 . S
C221 N218 1.346 . S
C221 C220 1.369 . S
C221 H224 0.928 . S
C222 N218 1.345 . S
C222 C223 1.371 . S
C222 H225 0.931 . S
C223 C219 1.391 . S
C223 C222 1.371 . S
C223 H230 0.930 . S
H224 C221 0.928 . S
H225 C222 0.931 . S
H226 C202 0.930 . S
H227 C199 0.930 . S
H228 C208 0.930 . S
H229 C220 0.929 . S
H230 C223 0.930 . S
C231 C232 1.351 . S
C231 N234 1.368 . S
C231 H236 0.931 . S
C232 C231 1.351 . S
C232 N233 1.373 . S
C232 H260 0.930 . S
N233 C232 1.373 . S
N233 C235 1.340 . S
N234 C231 1.368 . S
N234 C235 1.321 . S
N234 Co237 2.135 . S
C235 N233 1.340 . S
C235 N234 1.321 . S
C235 H259 0.930 . S
H236 C231 0.931 . S
Co237 N234 2.135 . S
Co237 N240 2.121 1_545 S
Co237 O245 2.055 . S
Co237 O248 2.039 1_545 S
Co237 N251 2.140 . S
C238 O239 1.227 . S
C238 O248 1.265 . S
O239 C238 1.227 . S
N240 Co237 2.121 1_565 S
N240 C242 1.375 . S
N240 C243 1.313 . S
C241 C242 1.338 . S
C241 N244 1.377 . S
C241 H261 0.930 . S
C242 N240 1.375 . S
C242 C241 1.338 . S
C242 H246 0.931 . S
C243 N240 1.313 . S
C243 N244 1.344 . S
C243 H247 0.930 . S
N244 C241 1.377 . S
N244 C243 1.344 . S
O245 Co237 2.055 . S
O245 C249 1.253 . S
H246 C242 0.931 . S
H247 C243 0.930 . S
O248 Co237 2.039 1_565 S
O248 C238 1.265 . S
C249 O245 1.253 . S
C249 O250 1.227 . S
O250 C249 1.227 . S
N251 Co237 2.140 . S
N251 C254 1.346 . S
N251 C255 1.345 . S
C252 C253 1.387 . S
C252 C256 1.391 . S
C253 C252 1.387 . S
C253 C254 1.369 . S
C253 H262 0.929 . S
C254 N251 1.346 . S
C254 C253 1.369 . S
C254 H257 0.928 . S
C255 N251 1.345 . S
C255 C256 1.371 . S
C255 H258 0.931 . S
C256 C252 1.391 . S
C256 C255 1.371 . S
C256 H263 0.930 . S
H257 C254 0.928 . S
H258 C255 0.931 . S
H259 C235 0.930 . S
H260 C232 0.930 . S
H261 C241 0.930 . S
H262 C253 0.929 . S
H263 C256 0.930 . S
C264 C265 1.351 . S
C264 N267 1.368 . S
C264 H269 0.931 . S
C265 C264 1.351 . S
C265 N266 1.373 . S
C265 H293 0.930 . S
N266 C265 1.373 . S
N266 C268 1.340 . S
N267 C264 1.368 . S
N267 C268 1.321 . S
N267 Co270 2.135 1_565 S
C268 N266 1.340 . S
C268 N267 1.321 . S
C268 H292 0.930 . S
H269 C264 0.931 . S
Co270 N267 2.135 1_545 S
Co270 N273 2.121 . S
Co270 O278 2.055 1_545 S
Co270 O281 2.039 . S
Co270 N284 2.140 . S
C271 O272 1.227 . S
C271 O281 1.265 . S
O272 C271 1.227 . S
N273 Co270 2.121 . S
N273 C275 1.375 . S
N273 C276 1.313 . S
C274 C275 1.338 . S
C274 N277 1.377 . S
C274 H294 0.930 . S
C275 N273 1.375 . S
C275 C274 1.338 . S
C275 H279 0.931 . S
C276 N273 1.313 . S
C276 N277 1.344 . S
C276 H280 0.930 . S
N277 C274 1.377 . S
N277 C276 1.344 . S
O278 Co270 2.055 1_565 S
O278 C282 1.253 . S
H279 C275 0.931 . S
H280 C276 0.930 . S
O281 Co270 2.039 . S
O281 C271 1.265 . S
C282 O278 1.253 . S
C282 O283 1.227 . S
O283 C282 1.227 . S
N284 Co270 2.140 . S
N284 C287 1.346 . S
N284 C288 1.345 . S
C285 C286 1.387 . S
C285 C289 1.391 . S
C286 C285 1.387 . S
C286 C287 1.369 . S
C286 H295 0.929 . S
C287 N284 1.346 . S
C287 C286 1.369 . S
C287 H290 0.928 . S
C288 N284 1.345 . S
C288 C289 1.371 . S
C288 H291 0.931 . S
C289 C285 1.391 . S
C289 C288 1.371 . S
C289 H296 0.930 . S
H290 C287 0.928 . S
H291 C288 0.931 . S
H292 C268 0.930 . S
H293 C265 0.930 . S
H294 C274 0.930 . S
H295 C286 0.929 . S
H296 C289 0.930 . S
C297 C298 1.351 . S
C297 N300 1.368 . S
C297 H302 0.931 . S
C298 C297 1.351 . S
C298 N299 1.373 . S
C298 H326 0.930 . S
N299 C298 1.373 . S
N299 C301 1.340 . S
N300 C297 1.368 . S
N300 C301 1.321 . S
N300 Co303 2.135 . S
C301 N299 1.340 . S
C301 N300 1.321 . S
C301 H325 0.930 . S
H302 C297 0.931 . S
Co303 N300 2.135 . S
Co303 N306 2.121 1_455 S
Co303 O311 2.055 . S
Co303 O314 2.039 1_455 S
Co303 N317 2.140 . S
C304 O305 1.227 . S
C304 O314 1.265 . S
O305 C304 1.227 . S
N306 Co303 2.121 1_655 S
N306 C308 1.375 . S
N306 C309 1.313 . S
C307 C308 1.338 . S
C307 N310 1.377 . S
C307 H327 0.930 . S
C308 N306 1.375 . S
C308 C307 1.338 . S
C308 H312 0.931 . S
C309 N306 1.313 . S
C309 N310 1.344 . S
C309 H313 0.930 . S
N310 C307 1.377 . S
N310 C309 1.344 . S
O311 Co303 2.055 . S
O311 C315 1.253 . S
H312 C308 0.931 . S
H313 C309 0.930 . S
O314 Co303 2.039 1_655 S
O314 C304 1.265 . S
C315 O311 1.253 . S
C315 O316 1.227 . S
O316 C315 1.227 . S
N317 Co303 2.140 . S
N317 C320 1.346 . S
N317 C321 1.345 . S
C318 C319 1.387 . S
C318 C322 1.391 . S
C319 C318 1.387 . S
C319 C320 1.369 . S
C319 H328 0.929 . S
C320 N317 1.346 . S
C320 C319 1.369 . S
C320 H323 0.928 . S
C321 N317 1.345 . S
C321 C322 1.371 . S
C321 H324 0.931 . S
C322 C318 1.391 . S
C322 C321 1.371 . S
C322 H329 0.930 . S
H323 C320 0.928 . S
H324 C321 0.931 . S
H325 C301 0.930 . S
H326 C298 0.930 . S
H327 C307 0.930 . S
H328 C319 0.929 . S
H329 C322 0.930 . S
C330 C331 1.351 . S
C330 N333 1.368 . S
C330 H335 0.931 . S
C331 C330 1.351 . S
C331 N332 1.373 . S
C331 H359 0.930 . S
N332 C331 1.373 . S
N332 C334 1.340 . S
N333 C330 1.368 . S
N333 C334 1.321 . S
N333 Co336 2.135 . S
C334 N332 1.340 . S
C334 N333 1.321 . S
C334 H358 0.930 . S
H335 C330 0.931 . S
Co336 N333 2.135 . S
Co336 N339 2.121 1_545 S
Co336 O344 2.055 . S
Co336 O347 2.039 1_545 S
Co336 N350 2.140 . S
C337 O338 1.227 . S
C337 O347 1.265 . S
O338 C337 1.227 . S
N339 Co336 2.121 1_565 S
N339 C341 1.375 . S
N339 C342 1.313 . S
C340 C341 1.338 . S
C340 N343 1.377 . S
C340 H360 0.930 . S
C341 N339 1.375 . S
C341 C340 1.338 . S
C341 H345 0.931 . S
C342 N339 1.313 . S
C342 N343 1.344 . S
C342 H346 0.930 . S
N343 C340 1.377 . S
N343 C342 1.344 . S
O344 Co336 2.055 . S
O344 C348 1.253 . S
H345 C341 0.931 . S
H346 C342 0.930 . S
O347 Co336 2.039 1_565 S
O347 C337 1.265 . S
C348 O344 1.253 . S
C348 O349 1.227 . S
O349 C348 1.227 . S
N350 Co336 2.140 . S
N350 C353 1.346 . S
N350 C354 1.345 . S
C351 C352 1.387 . S
C351 C355 1.391 . S
C352 C351 1.387 . S
C352 C353 1.369 . S
C352 H361 0.929 . S
C353 N350 1.346 . S
C353 C352 1.369 . S
C353 H356 0.928 . S
C354 N350 1.345 . S
C354 C355 1.371 . S
C354 H357 0.931 . S
C355 C351 1.391 . S
C355 C354 1.371 . S
C355 H362 0.930 . S
H356 C353 0.928 . S
H357 C354 0.931 . S
H358 C334 0.930 . S
H359 C331 0.930 . S
H360 C340 0.930 . S
H361 C352 0.929 . S
H362 C355 0.930 . S
C363 C364 1.351 . S
C363 N366 1.368 . S
C363 H368 0.931 . S
C364 C363 1.351 . S
C364 N365 1.373 . S
C364 H392 0.930 . S
N365 C364 1.373 . S
N365 C367 1.340 . S
N366 C363 1.368 . S
N366 C367 1.321 . S
N366 Co369 2.135 1_655 S
C367 N365 1.340 . S
C367 N366 1.321 . S
C367 H391 0.930 . S
H368 C363 0.931 . S
Co369 N366 2.135 1_455 S
Co369 N372 2.121 . S
Co369 O377 2.055 1_455 S
Co369 O380 2.039 . S
Co369 N383 2.140 . S
C370 O371 1.227 . S
C370 O380 1.265 . S
O371 C370 1.227 . S
N372 Co369 2.121 . S
N372 C374 1.375 . S
N372 C375 1.313 . S
C373 C374 1.338 . S
C373 N376 1.377 . S
C373 H393 0.930 . S
C374 N372 1.375 . S
C374 C373 1.338 . S
C374 H378 0.931 . S
C375 N372 1.313 . S
C375 N376 1.344 . S
C375 H379 0.930 . S
N376 C373 1.377 . S
N376 C375 1.344 . S
O377 Co369 2.055 1_655 S
O377 C381 1.253 . S
H378 C374 0.931 . S
H379 C375 0.930 . S
O380 Co369 2.039 . S
O380 C370 1.265 . S
C381 O377 1.253 . S
C381 O382 1.227 . S
O382 C381 1.227 . S
N383 Co369 2.140 . S
N383 C386 1.346 . S
N383 C387 1.345 . S
C384 C385 1.387 . S
C384 C388 1.391 . S
C385 C384 1.387 . S
C385 C386 1.369 . S
C385 H394 0.929 . S
C386 N383 1.346 . S
C386 C385 1.369 . S
C386 H389 0.928 . S
C387 N383 1.345 . S
C387 C388 1.371 . S
C387 H390 0.931 . S
C388 C384 1.391 . S
C388 C387 1.371 . S
C388 H395 0.930 . S
H389 C386 0.928 . S
H390 C387 0.931 . S
H391 C367 0.930 . S
H392 C364 0.930 . S
H393 C373 0.930 . S
H394 C385 0.929 . S
H395 C388 0.930 . S
C396 C397 1.351 . S
C396 N399 1.368 . S
C396 H401 0.931 . S
C397 C396 1.351 . S
C397 N398 1.373 . S
C397 H425 0.930 . S
N398 C397 1.373 . S
N398 C400 1.340 . S
N399 C396 1.368 . S
N399 C400 1.321 . S
N399 Co402 2.135 . S
C400 N398 1.340 . S
C400 N399 1.321 . S
C400 H424 0.930 . S
H401 C396 0.931 . S
Co402 N399 2.135 . S
Co402 N405 2.121 1_545 S
Co402 O410 2.055 . S
Co402 O413 2.039 1_545 S
Co402 N416 2.140 . S
C403 O404 1.227 . S
C403 O413 1.265 . S
O404 C403 1.227 . S
N405 Co402 2.121 1_565 S
N405 C407 1.375 . S
N405 C408 1.313 . S
C406 C407 1.338 . S
C406 N409 1.377 . S
C406 H426 0.930 . S
C407 N405 1.375 . S
C407 C406 1.338 . S
C407 H411 0.931 . S
C408 N405 1.313 . S
C408 N409 1.344 . S
C408 H412 0.930 . S
N409 C406 1.377 . S
N409 C408 1.344 . S
O410 Co402 2.055 . S
O410 C414 1.253 . S
H411 C407 0.931 . S
H412 C408 0.930 . S
O413 Co402 2.039 1_565 S
O413 C403 1.265 . S
C414 O410 1.253 . S
C414 O415 1.227 . S
O415 C414 1.227 . S
N416 Co402 2.140 . S
N416 C419 1.346 . S
N416 C420 1.345 . S
C417 C418 1.387 . S
C417 C421 1.391 . S
C418 C417 1.387 . S
C418 C419 1.369 . S
C418 H427 0.929 . S
C419 N416 1.346 . S
C419 C418 1.369 . S
C419 H422 0.928 . S
C420 N416 1.345 . S
C420 C421 1.371 . S
C420 H423 0.931 . S
C421 C417 1.391 . S
C421 C420 1.371 . S
C421 H428 0.930 . S
H422 C419 0.928 . S
H423 C420 0.931 . S
H424 C400 0.930 . S
H425 C397 0.930 . S
H426 C406 0.930 . S
H427 C418 0.929 . S
H428 C421 0.930 . S
C429 C430 1.351 . S
C429 N432 1.368 . S
C429 H434 0.931 . S
C430 C429 1.351 . S
C430 N431 1.373 . S
C430 H458 0.930 . S
N431 C430 1.373 . S
N431 C433 1.340 . S
N432 C429 1.368 . S
N432 C433 1.321 . S
N432 Co435 2.135 1_655 S
C433 N431 1.340 . S
C433 N432 1.321 . S
C433 H457 0.930 . S
H434 C429 0.931 . S
Co435 N432 2.135 1_455 S
Co435 N438 2.121 . S
Co435 O443 2.055 1_455 S
Co435 O446 2.039 . S
Co435 N449 2.140 . S
C436 O437 1.227 . S
C436 O446 1.265 . S
O437 C436 1.227 . S
N438 Co435 2.121 . S
N438 C440 1.375 . S
N438 C441 1.313 . S
C439 C440 1.338 . S
C439 N442 1.377 . S
C439 H459 0.930 . S
C440 N438 1.375 . S
C440 C439 1.338 . S
C440 H444 0.931 . S
C441 N438 1.313 . S
C441 N442 1.344 . S
C441 H445 0.930 . S
N442 C439 1.377 . S
N442 C441 1.344 . S
O443 Co435 2.055 1_655 S
O443 C447 1.253 . S
H444 C440 0.931 . S
H445 C441 0.930 . S
O446 Co435 2.039 . S
O446 C436 1.265 . S
C447 O443 1.253 . S
C447 O448 1.227 . S
O448 C447 1.227 . S
N449 Co435 2.140 . S
N449 C452 1.346 . S
N449 C453 1.345 . S
C450 C451 1.387 . S
C450 C454 1.391 . S
C451 C450 1.387 . S
C451 C452 1.369 . S
C451 H460 0.929 . S
C452 N449 1.346 . S
C452 C451 1.369 . S
C452 H455 0.928 . S
C453 N449 1.345 . S
C453 C454 1.371 . S
C453 H456 0.931 . S
C454 C450 1.391 . S
C454 C453 1.371 . S
C454 H461 0.930 . S
H455 C452 0.928 . S
H456 C453 0.931 . S
H457 C433 0.930 . S
H458 C430 0.930 . S
H459 C439 0.930 . S
H460 C451 0.929 . S
H461 C454 0.930 . S
C462 C463 1.351 . S
C462 N465 1.368 . S
C462 H467 0.931 . S
C463 C462 1.351 . S
C463 N464 1.373 . S
C463 H491 0.930 . S
N464 C463 1.373 . S
N464 C466 1.340 . S
N465 C462 1.368 . S
N465 C466 1.321 . S
N465 Co468 2.135 1_565 S
C466 N464 1.340 . S
C466 N465 1.321 . S
C466 H490 0.930 . S
H467 C462 0.931 . S
Co468 N465 2.135 1_545 S
Co468 N471 2.121 . S
Co468 O476 2.055 1_545 S
Co468 O479 2.039 . S
Co468 N482 2.140 . S
C469 O470 1.227 . S
C469 O479 1.265 . S
O470 C469 1.227 . S
N471 Co468 2.121 . S
N471 C473 1.375 . S
N471 C474 1.313 . S
C472 C473 1.338 . S
C472 N475 1.377 . S
C472 H492 0.930 . S
C473 N471 1.375 . S
C473 C472 1.338 . S
C473 H477 0.931 . S
C474 N471 1.313 . S
C474 N475 1.344 . S
C474 H478 0.930 . S
N475 C472 1.377 . S
N475 C474 1.344 . S
O476 Co468 2.055 1_565 S
O476 C480 1.253 . S
H477 C473 0.931 . S
H478 C474 0.930 . S
O479 Co468 2.039 . S
O479 C469 1.265 . S
C480 O476 1.253 . S
C480 O481 1.227 . S
O481 C480 1.227 . S
N482 Co468 2.140 . S
N482 C485 1.346 . S
N482 C486 1.345 . S
C483 C484 1.387 . S
C483 C487 1.391 . S
C484 C483 1.387 . S
C484 C485 1.369 . S
C484 H493 0.929 . S
C485 N482 1.346 . S
C485 C484 1.369 . S
C485 H488 0.928 . S
C486 N482 1.345 . S
C486 C487 1.371 . S
C486 H489 0.931 . S
C487 C483 1.391 . S
C487 C486 1.371 . S
C487 H494 0.930 . S
H488 C485 0.928 . S
H489 C486 0.931 . S
H490 C466 0.930 . S
H491 C463 0.930 . S
H492 C472 0.930 . S
H493 C484 0.929 . S
H494 C487 0.930 . S
C495 C496 1.351 . S
C495 N498 1.368 . S
C495 H500 0.931 . S
C496 C495 1.351 . S
C496 N497 1.373 . S
C496 H524 0.930 . S
N497 C496 1.373 . S
N497 C499 1.340 . S
N498 C495 1.368 . S
N498 C499 1.321 . S
N498 Co501 2.135 . S
C499 N497 1.340 . S
C499 N498 1.321 . S
C499 H523 0.930 . S
H500 C495 0.931 . S
Co501 N498 2.135 . S
Co501 N504 2.121 1_455 S
Co501 O509 2.055 . S
Co501 O512 2.039 1_455 S
Co501 N515 2.140 . S
C502 O503 1.227 . S
C502 O512 1.265 . S
O503 C502 1.227 . S
N504 Co501 2.121 1_655 S
N504 C506 1.375 . S
N504 C507 1.313 . S
C505 C506 1.338 . S
C505 N508 1.377 . S
C505 H525 0.930 . S
C506 N504 1.375 . S
C506 C505 1.338 . S
C506 H510 0.931 . S
C507 N504 1.313 . S
C507 N508 1.344 . S
C507 H511 0.930 . S
N508 C505 1.377 . S
N508 C507 1.344 . S
O509 Co501 2.055 . S
O509 C513 1.253 . S
H510 C506 0.931 . S
H511 C507 0.930 . S
O512 Co501 2.039 1_655 S
O512 C502 1.265 . S
C513 O509 1.253 . S
C513 O514 1.227 . S
O514 C513 1.227 . S
N515 Co501 2.140 . S
N515 C518 1.346 . S
N515 C519 1.345 . S
C516 C517 1.387 . S
C516 C520 1.391 . S
C517 C516 1.387 . S
C517 C518 1.369 . S
C517 H526 0.929 . S
C518 N515 1.346 . S
C518 C517 1.369 . S
C518 H521 0.928 . S
C519 N515 1.345 . S
C519 C520 1.371 . S
C519 H522 0.931 . S
C520 C516 1.391 . S
C520 C519 1.371 . S
C520 H527 0.930 . S
H521 C518 0.928 . S
H522 C519 0.931 . S
H523 C499 0.930 . S
H524 C496 0.930 . S
H525 C505 0.930 . S
H526 C517 0.929 . S
H527 C520 0.930 . S
C528 C529 1.351 . S
C528 N531 1.368 . S
C528 H533 0.931 . S
C529 C528 1.351 . S
C529 N530 1.373 . S
C529 H557 0.930 . S
N530 C529 1.373 . S
N530 C532 1.340 . S
N531 C528 1.368 . S
N531 C532 1.321 . S
N531 Co534 2.135 1_556 S
C532 N530 1.340 . S
C532 N531 1.321 . S
C532 H556 0.930 . S
H533 C528 0.931 . S
Co534 N531 2.135 1_554 S
Co534 N537 2.121 . S
Co534 O542 2.055 1_554 S
Co534 O545 2.039 . S
Co534 N548 2.140 . S
C535 O536 1.227 . S
C535 O545 1.265 . S
O536 C535 1.227 . S
N537 Co534 2.121 . S
N537 C539 1.375 . S
N537 C540 1.313 . S
C538 C539 1.338 . S
C538 N541 1.377 . S
C538 H558 0.930 . S
C539 N537 1.375 . S
C539 C538 1.338 . S
C539 H543 0.931 . S
C540 N537 1.313 . S
C540 N541 1.344 . S
C540 H544 0.930 . S
N541 C538 1.377 . S
N541 C540 1.344 . S
O542 Co534 2.055 1_556 S
O542 C546 1.253 . S
H543 C539 0.931 . S
H544 C540 0.930 . S
O545 Co534 2.039 . S
O545 C535 1.265 . S
C546 O542 1.253 . S
C546 O547 1.227 . S
O547 C546 1.227 . S
N548 Co534 2.140 . S
N548 C551 1.346 . S
N548 C552 1.345 . S
C549 C550 1.387 . S
C549 C553 1.391 . S
C550 C549 1.387 . S
C550 C551 1.369 . S
C550 H559 0.929 . S
C551 N548 1.346 . S
C551 C550 1.369 . S
C551 H554 0.928 . S
C552 N548 1.345 . S
C552 C553 1.371 . S
C552 H555 0.931 . S
C553 C549 1.391 . S
C553 C552 1.371 . S
C553 H560 0.930 . S
H554 C551 0.928 . S
H555 C552 0.931 . S
H556 C532 0.930 . S
H557 C529 0.930 . S
H558 C538 0.930 . S
H559 C550 0.929 . S
H560 C553 0.930 . S
C561 C562 1.351 . S
C561 N564 1.368 . S
C561 H566 0.931 . S
C562 C561 1.351 . S
C562 N563 1.373 . S
C562 H590 0.930 . S
N563 C562 1.373 . S
N563 C565 1.340 . S
N564 C561 1.368 . S
N564 C565 1.321 . S
N564 Co567 2.135 . S
C565 N563 1.340 . S
C565 N564 1.321 . S
C565 H589 0.930 . S
H566 C561 0.931 . S
Co567 N564 2.135 . S
Co567 N570 2.121 1_554 S
Co567 O575 2.055 . S
Co567 O578 2.039 1_554 S
Co567 N581 2.140 . S
C568 O569 1.227 . S
C568 O578 1.265 . S
O569 C568 1.227 . S
N570 Co567 2.121 1_556 S
N570 C572 1.375 . S
N570 C573 1.313 . S
C571 C572 1.338 . S
C571 N574 1.377 . S
C571 H591 0.930 . S
C572 N570 1.375 . S
C572 C571 1.338 . S
C572 H576 0.931 . S
C573 N570 1.313 . S
C573 N574 1.344 . S
C573 H577 0.930 . S
N574 C571 1.377 . S
N574 C573 1.344 . S
O575 Co567 2.055 . S
O575 C579 1.253 . S
H576 C572 0.931 . S
H577 C573 0.930 . S
O578 Co567 2.039 1_556 S
O578 C568 1.265 . S
C579 O575 1.253 . S
C579 O580 1.227 . S
O580 C579 1.227 . S
N581 Co567 2.140 . S
N581 C584 1.346 . S
N581 C585 1.345 . S
C582 C583 1.387 . S
C582 C586 1.391 . S
C583 C582 1.387 . S
C583 C584 1.369 . S
C583 H592 0.929 . S
C584 N581 1.346 . S
C584 C583 1.369 . S
C584 H587 0.928 . S
C585 N581 1.345 . S
C585 C586 1.371 . S
C585 H588 0.931 . S
C586 C582 1.391 . S
C586 C585 1.371 . S
C586 H593 0.930 . S
H587 C584 0.928 . S
H588 C585 0.931 . S
H589 C565 0.930 . S
H590 C562 0.930 . S
H591 C571 0.930 . S
H592 C583 0.929 . S
H593 C586 0.930 . S
C594 C595 1.351 . S
C594 N597 1.368 . S
C594 H599 0.931 . S
C595 C594 1.351 . S
C595 N596 1.373 . S
C595 H623 0.930 . S
N596 C595 1.373 . S
N596 C598 1.340 . S
N597 C594 1.368 . S
N597 C598 1.321 . S
N597 Co600 2.135 . S
C598 N596 1.340 . S
C598 N597 1.321 . S
C598 H622 0.930 . S
H599 C594 0.931 . S
Co600 N597 2.135 . S
Co600 N603 2.121 1_554 S
Co600 O608 2.055 . S
Co600 O611 2.039 1_554 S
Co600 N614 2.140 . S
C601 O602 1.227 . S
C601 O611 1.265 . S
O602 C601 1.227 . S
N603 Co600 2.121 1_556 S
N603 C605 1.375 . S
N603 C606 1.313 . S
C604 C605 1.338 . S
C604 N607 1.377 . S
C604 H624 0.930 . S
C605 N603 1.375 . S
C605 C604 1.338 . S
C605 H609 0.931 . S
C606 N603 1.313 . S
C606 N607 1.344 . S
C606 H610 0.930 . S
N607 C604 1.377 . S
N607 C606 1.344 . S
O608 Co600 2.055 . S
O608 C612 1.253 . S
H609 C605 0.931 . S
H610 C606 0.930 . S
O611 Co600 2.039 1_556 S
O611 C601 1.265 . S
C612 O608 1.253 . S
C612 O613 1.227 . S
O613 C612 1.227 . S
N614 Co600 2.140 . S
N614 C617 1.346 . S
N614 C618 1.345 . S
C615 C616 1.387 . S
C615 C619 1.391 . S
C616 C615 1.387 . S
C616 C617 1.369 . S
C616 H625 0.929 . S
C617 N614 1.346 . S
C617 C616 1.369 . S
C617 H620 0.928 . S
C618 N614 1.345 . S
C618 C619 1.371 . S
C618 H621 0.931 . S
C619 C615 1.391 . S
C619 C618 1.371 . S
C619 H626 0.930 . S
H620 C617 0.928 . S
H621 C618 0.931 . S
H622 C598 0.930 . S
H623 C595 0.930 . S
H624 C604 0.930 . S
H625 C616 0.929 . S
H626 C619 0.930 . S
C627 C628 1.351 . S
C627 N630 1.368 . S
C627 H632 0.931 . S
C628 C627 1.351 . S
C628 N629 1.373 . S
C628 H656 0.930 . S
N629 C628 1.373 . S
N629 C631 1.340 . S
N630 C627 1.368 . S
N630 C631 1.321 . S
N630 Co633 2.135 . S
C631 N629 1.340 . S
C631 N630 1.321 . S
C631 H655 0.930 . S
H632 C627 0.931 . S
Co633 N630 2.135 . S
Co633 N636 2.121 1_554 S
Co633 O641 2.055 . S
Co633 O644 2.039 1_554 S
Co633 N647 2.140 . S
C634 O635 1.227 . S
C634 O644 1.265 . S
O635 C634 1.227 . S
N636 Co633 2.121 1_556 S
N636 C638 1.375 . S
N636 C639 1.313 . S
C637 C638 1.338 . S
C637 N640 1.377 . S
C637 H657 0.930 . S
C638 N636 1.375 . S
C638 C637 1.338 . S
C638 H642 0.931 . S
C639 N636 1.313 . S
C639 N640 1.344 . S
C639 H643 0.930 . S
N640 C637 1.377 . S
N640 C639 1.344 . S
O641 Co633 2.055 . S
O641 C645 1.253 . S
H642 C638 0.931 . S
H643 C639 0.930 . S
O644 Co633 2.039 1_556 S
O644 C634 1.265 . S
C645 O641 1.253 . S
C645 O646 1.227 . S
O646 C645 1.227 . S
N647 Co633 2.140 . S
N647 C650 1.346 . S
N647 C651 1.345 . S
C648 C649 1.387 . S
C648 C652 1.391 . S
C649 C648 1.387 . S
C649 C650 1.369 . S
C649 H658 0.929 . S
C650 N647 1.346 . S
C650 C649 1.369 . S
C650 H653 0.928 . S
C651 N647 1.345 . S
C651 C652 1.371 . S
C651 H654 0.931 . S
C652 C648 1.391 . S
C652 C651 1.371 . S
C652 H659 0.930 . S
H653 C650 0.928 . S
H654 C651 0.931 . S
H655 C631 0.930 . S
H656 C628 0.930 . S
H657 C637 0.930 . S
H658 C649 0.929 . S
H659 C652 0.930 . S
C660 C661 1.351 . S
C660 N663 1.368 . S
C660 H665 0.931 . S
C661 C660 1.351 . S
C661 N662 1.373 . S
C661 H689 0.930 . S
N662 C661 1.373 . S
N662 C664 1.340 . S
N663 C660 1.368 . S
N663 C664 1.321 . S
N663 Co666 2.135 . S
C664 N662 1.340 . S
C664 N663 1.321 . S
C664 H688 0.930 . S
H665 C660 0.931 . S
Co666 N663 2.135 . S
Co666 N669 2.121 1_554 S
Co666 O674 2.055 . S
Co666 O677 2.039 1_554 S
Co666 N680 2.140 . S
C667 O668 1.227 . S
C667 O677 1.265 . S
O668 C667 1.227 . S
N669 Co666 2.121 1_556 S
N669 C671 1.375 . S
N669 C672 1.313 . S
C670 C671 1.338 . S
C670 N673 1.377 . S
C670 H690 0.930 . S
C671 N669 1.375 . S
C671 C670 1.338 . S
C671 H675 0.931 . S
C672 N669 1.313 . S
C672 N673 1.344 . S
C672 H676 0.930 . S
N673 C670 1.377 . S
N673 C672 1.344 . S
O674 Co666 2.055 . S
O674 C678 1.253 . S
H675 C671 0.931 . S
H676 C672 0.930 . S
O677 Co666 2.039 1_556 S
O677 C667 1.265 . S
C678 O674 1.253 . S
C678 O679 1.227 . S
O679 C678 1.227 . S
N680 Co666 2.140 . S
N680 C683 1.346 . S
N680 C684 1.345 . S
C681 C682 1.387 . S
C681 C685 1.391 . S
C682 C681 1.387 . S
C682 C683 1.369 . S
C682 H691 0.929 . S
C683 N680 1.346 . S
C683 C682 1.369 . S
C683 H686 0.928 . S
C684 N680 1.345 . S
C684 C685 1.371 . S
C684 H687 0.931 . S
C685 C681 1.391 . S
C685 C684 1.371 . S
C685 H692 0.930 . S
H686 C683 0.928 . S
H687 C684 0.931 . S
H688 C664 0.930 . S
H689 C661 0.930 . S
H690 C670 0.930 . S
H691 C682 0.929 . S
H692 C685 0.930 . S
C693 C694 1.351 . S
C693 N696 1.368 . S
C693 H698 0.931 . S
C694 C693 1.351 . S
C694 N695 1.373 . S
C694 H722 0.930 . S
N695 C694 1.373 . S
N695 C697 1.340 . S
N696 C693 1.368 . S
N696 C697 1.321 . S
N696 Co699 2.135 1_556 S
C697 N695 1.340 . S
C697 N696 1.321 . S
C697 H721 0.930 . S
H698 C693 0.931 . S
Co699 N696 2.135 1_554 S
Co699 N702 2.121 . S
Co699 O707 2.055 1_554 S
Co699 O710 2.039 . S
Co699 N713 2.140 . S
C700 O701 1.227 . S
C700 O710 1.265 . S
O701 C700 1.227 . S
N702 Co699 2.121 . S
N702 C704 1.375 . S
N702 C705 1.313 . S
C703 C704 1.338 . S
C703 N706 1.377 . S
C703 H723 0.930 . S
C704 N702 1.375 . S
C704 C703 1.338 . S
C704 H708 0.931 . S
C705 N702 1.313 . S
C705 N706 1.344 . S
C705 H709 0.930 . S
N706 C703 1.377 . S
N706 C705 1.344 . S
O707 Co699 2.055 1_556 S
O707 C711 1.253 . S
H708 C704 0.931 . S
H709 C705 0.930 . S
O710 Co699 2.039 . S
O710 C700 1.265 . S
C711 O707 1.253 . S
C711 O712 1.227 . S
O712 C711 1.227 . S
N713 Co699 2.140 . S
N713 C716 1.346 . S
N713 C717 1.345 . S
C714 C715 1.387 . S
C714 C718 1.391 . S
C715 C714 1.387 . S
C715 C716 1.369 . S
C715 H724 0.929 . S
C716 N713 1.346 . S
C716 C715 1.369 . S
C716 H719 0.928 . S
C717 N713 1.345 . S
C717 C718 1.371 . S
C717 H720 0.931 . S
C718 C714 1.391 . S
C718 C717 1.371 . S
C718 H725 0.930 . S
H719 C716 0.928 . S
H720 C717 0.931 . S
H721 C697 0.930 . S
H722 C694 0.930 . S
H723 C703 0.930 . S
H724 C715 0.929 . S
H725 C718 0.930 . S
C726 C727 1.351 . S
C726 N729 1.368 . S
C726 H731 0.931 . S
C727 C726 1.351 . S
C727 N728 1.373 . S
C727 H755 0.930 . S
N728 C727 1.373 . S
N728 C730 1.340 . S
N729 C726 1.368 . S
N729 C730 1.321 . S
N729 Co732 2.135 1_556 S
C730 N728 1.340 . S
C730 N729 1.321 . S
C730 H754 0.930 . S
H731 C726 0.931 . S
Co732 N729 2.135 1_554 S
Co732 N735 2.121 . S
Co732 O740 2.055 1_554 S
Co732 O743 2.039 . S
Co732 N746 2.140 . S
C733 O734 1.227 . S
C733 O743 1.265 . S
O734 C733 1.227 . S
N735 Co732 2.121 . S
N735 C737 1.375 . S
N735 C738 1.313 . S
C736 C737 1.338 . S
C736 N739 1.377 . S
C736 H756 0.930 . S
C737 N735 1.375 . S
C737 C736 1.338 . S
C737 H741 0.931 . S
C738 N735 1.313 . S
C738 N739 1.344 . S
C738 H742 0.930 . S
N739 C736 1.377 . S
N739 C738 1.344 . S
O740 Co732 2.055 1_556 S
O740 C744 1.253 . S
H741 C737 0.931 . S
H742 C738 0.930 . S
O743 Co732 2.039 . S
O743 C733 1.265 . S
C744 O740 1.253 . S
C744 O745 1.227 . S
O745 C744 1.227 . S
N746 Co732 2.140 . S
N746 C749 1.346 . S
N746 C750 1.345 . S
C747 C748 1.387 . S
C747 C751 1.391 . S
C748 C747 1.387 . S
C748 C749 1.369 . S
C748 H757 0.929 . S
C749 N746 1.346 . S
C749 C748 1.369 . S
C749 H752 0.928 . S
C750 N746 1.345 . S
C750 C751 1.371 . S
C750 H753 0.931 . S
C751 C747 1.391 . S
C751 C750 1.371 . S
C751 H758 0.930 . S
H752 C749 0.928 . S
H753 C750 0.931 . S
H754 C730 0.930 . S
H755 C727 0.930 . S
H756 C736 0.930 . S
H757 C748 0.929 . S
H758 C751 0.930 . S
C759 C760 1.351 . S
C759 N762 1.368 . S
C759 H764 0.931 . S
C760 C759 1.351 . S
C760 N761 1.373 . S
C760 H788 0.930 . S
N761 C760 1.373 . S
N761 C763 1.340 . S
N762 C759 1.368 . S
N762 C763 1.321 . S
N762 Co765 2.135 1_556 S
C763 N761 1.340 . S
C763 N762 1.321 . S
C763 H787 0.930 . S
H764 C759 0.931 . S
Co765 N762 2.135 1_554 S
Co765 N768 2.121 . S
Co765 O773 2.055 1_554 S
Co765 O776 2.039 . S
Co765 N779 2.140 . S
C766 O767 1.227 . S
C766 O776 1.265 . S
O767 C766 1.227 . S
N768 Co765 2.121 . S
N768 C770 1.375 . S
N768 C771 1.313 . S
C769 C770 1.338 . S
C769 N772 1.377 . S
C769 H789 0.930 . S
C770 N768 1.375 . S
C770 C769 1.338 . S
C770 H774 0.931 . S
C771 N768 1.313 . S
C771 N772 1.344 . S
C771 H775 0.930 . S
N772 C769 1.377 . S
N772 C771 1.344 . S
O773 Co765 2.055 1_556 S
O773 C777 1.253 . S
H774 C770 0.931 . S
H775 C771 0.930 . S
O776 Co765 2.039 . S
O776 C766 1.265 . S
C777 O773 1.253 . S
C777 O778 1.227 . S
O778 C777 1.227 . S
N779 Co765 2.140 . S
N779 C782 1.346 . S
N779 C783 1.345 . S
C780 C781 1.387 . S
C780 C784 1.391 . S
C781 C780 1.387 . S
C781 C782 1.369 . S
C781 H790 0.929 . S
C782 N779 1.346 . S
C782 C781 1.369 . S
C782 H785 0.928 . S
C783 N779 1.345 . S
C783 C784 1.371 . S
C783 H786 0.931 . S
C784 C780 1.391 . S
C784 C783 1.371 . S
C784 H791 0.930 . S
H785 C782 0.928 . S
H786 C783 0.931 . S
H787 C763 0.930 . S
H788 C760 0.930 . S
H789 C769 0.930 . S
H790 C781 0.929 . S
H791 C784 0.930 . S
C792 C793 1.351 . S
C792 N795 1.368 . S
C792 H797 0.931 . S
C793 C792 1.351 . S
C793 N794 1.373 . S
C793 H821 0.930 . S
N794 C793 1.373 . S
N794 C796 1.340 . S
N795 C792 1.368 . S
N795 C796 1.321 . S
N795 Co798 2.135 . S
C796 N794 1.340 . S
C796 N795 1.321 . S
C796 H820 0.930 . S
H797 C792 0.931 . S
Co798 N795 2.135 . S
Co798 N801 2.121 . S
Co798 O806 2.055 . S
Co798 O809 2.039 . S
Co798 N812 2.140 . S
C799 O800 1.227 . S
C799 O809 1.265 . S
O800 C799 1.227 . S
N801 Co798 2.121 . S
N801 C803 1.375 . S
N801 C804 1.313 . S
C802 C803 1.338 . S
C802 N805 1.377 . S
C802 H822 0.930 . S
C803 N801 1.375 . S
C803 C802 1.338 . S
C803 H807 0.931 . S
C804 N801 1.313 . S
C804 N805 1.344 . S
C804 H808 0.930 . S
N805 C802 1.377 . S
N805 C804 1.344 . S
O806 Co798 2.055 . S
O806 C810 1.253 . S
H807 C803 0.931 . S
H808 C804 0.930 . S
O809 Co798 2.039 . S
O809 C799 1.265 . S
C810 O806 1.253 . S
C810 O811 1.227 . S
O811 C810 1.227 . S
N812 Co798 2.140 . S
N812 C815 1.346 . S
N812 C816 1.345 . S
C813 C814 1.387 . S
C813 C817 1.391 . S
C814 C813 1.387 . S
C814 C815 1.369 . S
C814 H823 0.929 . S
C815 N812 1.346 . S
C815 C814 1.369 . S
C815 H818 0.928 . S
C816 N812 1.345 . S
C816 C817 1.371 . S
C816 H819 0.931 . S
C817 C813 1.391 . S
C817 C816 1.371 . S
C817 H824 0.930 . S
H818 C815 0.928 . S
H819 C816 0.931 . S
H820 C796 0.930 . S
H821 C793 0.930 . S
H822 C802 0.930 . S
H823 C814 0.929 . S
H824 C817 0.930 . S
C825 C826 1.351 . S
C825 N828 1.368 . S
C825 H830 0.931 . S
C826 C825 1.351 . S
C826 N827 1.373 . S
C826 H854 0.930 . S
N827 C826 1.373 . S
N827 C829 1.340 . S
N828 C825 1.368 . S
N828 C829 1.321 . S
N828 Co831 2.135 . S
C829 N827 1.340 . S
C829 N828 1.321 . S
C829 H853 0.930 . S
H830 C825 0.931 . S
Co831 N828 2.135 . S
Co831 N834 2.121 . S
Co831 O839 2.055 . S
Co831 O842 2.039 . S
Co831 N845 2.140 . S
C832 O833 1.227 . S
C832 O842 1.265 . S
O833 C832 1.227 . S
N834 Co831 2.121 . S
N834 C836 1.375 . S
N834 C837 1.313 . S
C835 C836 1.338 . S
C835 N838 1.377 . S
C835 H855 0.930 . S
C836 N834 1.375 . S
C836 C835 1.338 . S
C836 H840 0.931 . S
C837 N834 1.313 . S
C837 N838 1.344 . S
C837 H841 0.930 . S
N838 C835 1.377 . S
N838 C837 1.344 . S
O839 Co831 2.055 . S
O839 C843 1.253 . S
H840 C836 0.931 . S
H841 C837 0.930 . S
O842 Co831 2.039 . S
O842 C832 1.265 . S
C843 O839 1.253 . S
C843 O844 1.227 . S
O844 C843 1.227 . S
N845 Co831 2.140 . S
N845 C848 1.346 . S
N845 C849 1.345 . S
C846 C847 1.387 . S
C846 C850 1.391 . S
C847 C846 1.387 . S
C847 C848 1.369 . S
C847 H856 0.929 . S
C848 N845 1.346 . S
C848 C847 1.369 . S
C848 H851 0.928 . S
C849 N845 1.345 . S
C849 C850 1.371 . S
C849 H852 0.931 . S
C850 C846 1.391 . S
C850 C849 1.371 . S
C850 H857 0.930 . S
H851 C848 0.928 . S
H852 C849 0.931 . S
H853 C829 0.930 . S
H854 C826 0.930 . S
H855 C835 0.930 . S
H856 C847 0.929 . S
H857 C850 0.930 . S
C858 C859 1.351 . S
C858 N861 1.368 . S
C858 H863 0.931 . S
C859 C858 1.351 . S
C859 N860 1.373 . S
C859 H887 0.930 . S
N860 C859 1.373 . S
N860 C862 1.340 . S
N861 C858 1.368 . S
N861 C862 1.321 . S
N861 Co864 2.135 . S
C862 N860 1.340 . S
C862 N861 1.321 . S
C862 H886 0.930 . S
H863 C858 0.931 . S
Co864 N861 2.135 . S
Co864 N867 2.121 . S
Co864 O872 2.055 . S
Co864 O875 2.039 . S
Co864 N878 2.140 . S
C865 O866 1.227 . S
C865 O875 1.265 . S
O866 C865 1.227 . S
N867 Co864 2.121 . S
N867 C869 1.375 . S
N867 C870 1.313 . S
C868 C869 1.338 . S
C868 N871 1.377 . S
C868 H888 0.930 . S
C869 N867 1.375 . S
C869 C868 1.338 . S
C869 H873 0.931 . S
C870 N867 1.313 . S
C870 N871 1.344 . S
C870 H874 0.930 . S
N871 C868 1.377 . S
N871 C870 1.344 . S
O872 Co864 2.055 . S
O872 C876 1.253 . S
H873 C869 0.931 . S
H874 C870 0.930 . S
O875 Co864 2.039 . S
O875 C865 1.265 . S
C876 O872 1.253 . S
C876 O877 1.227 . S
O877 C876 1.227 . S
N878 Co864 2.140 . S
N878 C881 1.346 . S
N878 C882 1.345 . S
C879 C880 1.387 . S
C879 C883 1.391 . S
C880 C879 1.387 . S
C880 C881 1.369 . S
C880 H889 0.929 . S
C881 N878 1.346 . S
C881 C880 1.369 . S
C881 H884 0.928 . S
C882 N878 1.345 . S
C882 C883 1.371 . S
C882 H885 0.931 . S
C883 C879 1.391 . S
C883 C882 1.371 . S
C883 H890 0.930 . S
H884 C881 0.928 . S
H885 C882 0.931 . S
H886 C862 0.930 . S
H887 C859 0.930 . S
H888 C868 0.930 . S
H889 C880 0.929 . S
H890 C883 0.930 . S
C891 C892 1.351 . S
C891 N894 1.368 . S
C891 H896 0.931 . S
C892 C891 1.351 . S
C892 N893 1.373 . S
C892 H920 0.930 . S
N893 C892 1.373 . S
N893 C895 1.340 . S
N894 C891 1.368 . S
N894 C895 1.321 . S
N894 Co897 2.135 . S
C895 N893 1.340 . S
C895 N894 1.321 . S
C895 H919 0.930 . S
H896 C891 0.931 . S
Co897 N894 2.135 . S
Co897 N900 2.121 . S
Co897 O905 2.055 . S
Co897 O908 2.039 . S
Co897 N911 2.140 . S
C898 O899 1.227 . S
C898 O908 1.265 . S
O899 C898 1.227 . S
N900 Co897 2.121 . S
N900 C902 1.375 . S
N900 C903 1.313 . S
C901 C902 1.338 . S
C901 N904 1.377 . S
C901 H921 0.930 . S
C902 N900 1.375 . S
C902 C901 1.338 . S
C902 H906 0.931 . S
C903 N900 1.313 . S
C903 N904 1.344 . S
C903 H907 0.930 . S
N904 C901 1.377 . S
N904 C903 1.344 . S
O905 Co897 2.055 . S
O905 C909 1.253 . S
H906 C902 0.931 . S
H907 C903 0.930 . S
O908 Co897 2.039 . S
O908 C898 1.265 . S
C909 O905 1.253 . S
C909 O910 1.227 . S
O910 C909 1.227 . S
N911 Co897 2.140 . S
N911 C914 1.346 . S
N911 C915 1.345 . S
C912 C913 1.387 . S
C912 C916 1.391 . S
C913 C912 1.387 . S
C913 C914 1.369 . S
C913 H922 0.929 . S
C914 N911 1.346 . S
C914 C913 1.369 . S
C914 H917 0.928 . S
C915 N911 1.345 . S
C915 C916 1.371 . S
C915 H918 0.931 . S
C916 C912 1.391 . S
C916 C915 1.371 . S
C916 H923 0.930 . S
H917 C914 0.928 . S
H918 C915 0.931 . S
H919 C895 0.930 . S
H920 C892 0.930 . S
H921 C901 0.930 . S
H922 C913 0.929 . S
H923 C916 0.930 . S
C924 C925 1.351 . S
C924 N927 1.368 . S
C924 H929 0.931 . S
C925 C924 1.351 . S
C925 N926 1.373 . S
C925 H953 0.930 . S
N926 C925 1.373 . S
N926 C928 1.340 . S
N927 C924 1.368 . S
N927 C928 1.321 . S
N927 Co930 2.135 . S
C928 N926 1.340 . S
C928 N927 1.321 . S
C928 H952 0.930 . S
H929 C924 0.931 . S
Co930 N927 2.135 . S
Co930 N933 2.121 . S
Co930 O938 2.055 . S
Co930 O941 2.039 . S
Co930 N944 2.140 . S
C931 O932 1.227 . S
C931 O941 1.265 . S
O932 C931 1.227 . S
N933 Co930 2.121 . S
N933 C935 1.375 . S
N933 C936 1.313 . S
C934 C935 1.338 . S
C934 N937 1.377 . S
C934 H954 0.930 . S
C935 N933 1.375 . S
C935 C934 1.338 . S
C935 H939 0.931 . S
C936 N933 1.313 . S
C936 N937 1.344 . S
C936 H940 0.930 . S
N937 C934 1.377 . S
N937 C936 1.344 . S
O938 Co930 2.055 . S
O938 C942 1.253 . S
H939 C935 0.931 . S
H940 C936 0.930 . S
O941 Co930 2.039 . S
O941 C931 1.265 . S
C942 O938 1.253 . S
C942 O943 1.227 . S
O943 C942 1.227 . S
N944 Co930 2.140 . S
N944 C947 1.346 . S
N944 C948 1.345 . S
C945 C946 1.387 . S
C945 C949 1.391 . S
C946 C945 1.387 . S
C946 C947 1.369 . S
C946 H955 0.929 . S
C947 N944 1.346 . S
C947 C946 1.369 . S
C947 H950 0.928 . S
C948 N944 1.345 . S
C948 C949 1.371 . S
C948 H951 0.931 . S
C949 C945 1.391 . S
C949 C948 1.371 . S
C949 H956 0.930 . S
H950 C947 0.928 . S
H951 C948 0.931 . S
H952 C928 0.930 . S
H953 C925 0.930 . S
H954 C934 0.930 . S
H955 C946 0.929 . S
H956 C949 0.930 . S
C957 C958 1.351 . S
C957 N960 1.368 . S
C957 H962 0.931 . S
C958 C957 1.351 . S
C958 N959 1.373 . S
C958 H986 0.930 . S
N959 C958 1.373 . S
N959 C961 1.340 . S
N960 C957 1.368 . S
N960 C961 1.321 . S
N960 Co963 2.135 . S
C961 N959 1.340 . S
C961 N960 1.321 . S
C961 H985 0.930 . S
H962 C957 0.931 . S
Co963 N960 2.135 . S
Co963 N966 2.121 . S
Co963 O971 2.055 . S
Co963 O974 2.039 . S
Co963 N977 2.140 . S
C964 O965 1.227 . S
C964 O974 1.265 . S
O965 C964 1.227 . S
N966 Co963 2.121 . S
N966 C968 1.375 . S
N966 C969 1.313 . S
C967 C968 1.338 . S
C967 N970 1.377 . S
C967 H987 0.930 . S
C968 N966 1.375 . S
C968 C967 1.338 . S
C968 H972 0.931 . S
C969 N966 1.313 . S
C969 N970 1.344 . S
C969 H973 0.930 . S
N970 C967 1.377 . S
N970 C969 1.344 . S
O971 Co963 2.055 . S
O971 C975 1.253 . S
H972 C968 0.931 . S
H973 C969 0.930 . S
O974 Co963 2.039 . S
O974 C964 1.265 . S
C975 O971 1.253 . S
C975 O976 1.227 . S
O976 C975 1.227 . S
N977 Co963 2.140 . S
N977 C980 1.346 . S
N977 C981 1.345 . S
C978 C979 1.387 . S
C978 C982 1.391 . S
C979 C978 1.387 . S
C979 C980 1.369 . S
C979 H988 0.929 . S
C980 N977 1.346 . S
C980 C979 1.369 . S
C980 H983 0.928 . S
C981 N977 1.345 . S
C981 C982 1.371 . S
C981 H984 0.931 . S
C982 C978 1.391 . S
C982 C981 1.371 . S
C982 H989 0.930 . S
H983 C980 0.928 . S
H984 C981 0.931 . S
H985 C961 0.930 . S
H986 C958 0.930 . S
H987 C967 0.930 . S
H988 C979 0.929 . S
H989 C982 0.930 . S
C990 C991 1.351 . S
C990 N993 1.368 . S
C990 H995 0.931 . S
C991 C990 1.351 . S
C991 N992 1.373 . S
C991 H1019 0.930 . S
N992 C991 1.373 . S
N992 C994 1.340 . S
N993 C990 1.368 . S
N993 C994 1.321 . S
N993 Co996 2.135 . S
C994 N992 1.340 . S
C994 N993 1.321 . S
C994 H1018 0.930 . S
H995 C990 0.931 . S
Co996 N993 2.135 . S
Co996 N999 2.121 . S
Co996 O1004 2.055 . S
Co996 O1007 2.039 . S
Co996 N1010 2.140 . S
C997 O998 1.227 . S
C997 O1007 1.265 . S
O998 C997 1.227 . S
N999 Co996 2.121 . S
N999 C1001 1.375 . S
N999 C1002 1.313 . S
C1000 C1001 1.338 . S
C1000 N1003 1.377 . S
C1000 H1020 0.930 . S
C1001 N999 1.375 . S
C1001 C1000 1.338 . S
C1001 H1005 0.931 . S
C1002 N999 1.313 . S
C1002 N1003 1.344 . S
C1002 H1006 0.930 . S
N1003 C1000 1.377 . S
N1003 C1002 1.344 . S
O1004 Co996 2.055 . S
O1004 C1008 1.253 . S
H1005 C1001 0.931 . S
H1006 C1002 0.930 . S
O1007 Co996 2.039 . S
O1007 C997 1.265 . S
C1008 O1004 1.253 . S
C1008 O1009 1.227 . S
O1009 C1008 1.227 . S
N1010 Co996 2.140 . S
N1010 C1013 1.346 . S
N1010 C1014 1.345 . S
C1011 C1012 1.387 . S
C1011 C1015 1.391 . S
C1012 C1011 1.387 . S
C1012 C1013 1.369 . S
C1012 H1021 0.929 . S
C1013 N1010 1.346 . S
C1013 C1012 1.369 . S
C1013 H1016 0.928 . S
C1014 N1010 1.345 . S
C1014 C1015 1.371 . S
C1014 H1017 0.931 . S
C1015 C1011 1.391 . S
C1015 C1014 1.371 . S
C1015 H1022 0.930 . S
H1016 C1013 0.928 . S
H1017 C1014 0.931 . S
H1018 C994 0.930 . S
H1019 C991 0.930 . S
H1020 C1000 0.930 . S
H1021 C1012 0.929 . S
H1022 C1015 0.930 . S
C1023 C1024 1.351 . S
C1023 N1026 1.368 . S
C1023 H1028 0.931 . S
C1024 C1023 1.351 . S
C1024 N1025 1.373 . S
C1024 H1052 0.930 . S
N1025 C1024 1.373 . S
N1025 C1027 1.340 . S
N1026 C1023 1.368 . S
N1026 C1027 1.321 . S
N1026 Co1029 2.135 . S
C1027 N1025 1.340 . S
C1027 N1026 1.321 . S
C1027 H1051 0.930 . S
H1028 C1023 0.931 . S
Co1029 N1026 2.135 . S
Co1029 N1032 2.121 . S
Co1029 O1037 2.055 . S
Co1029 O1040 2.039 . S
Co1029 N1043 2.140 . S
C1030 O1031 1.227 . S
C1030 O1040 1.265 . S
O1031 C1030 1.227 . S
N1032 Co1029 2.121 . S
N1032 C1034 1.375 . S
N1032 C1035 1.313 . S
C1033 C1034 1.338 . S
C1033 N1036 1.377 . S
C1033 H1053 0.930 . S
C1034 N1032 1.375 . S
C1034 C1033 1.338 . S
C1034 H1038 0.931 . S
C1035 N1032 1.313 . S
C1035 N1036 1.344 . S
C1035 H1039 0.930 . S
N1036 C1033 1.377 . S
N1036 C1035 1.344 . S
O1037 Co1029 2.055 . S
O1037 C1041 1.253 . S
H1038 C1034 0.931 . S
H1039 C1035 0.930 . S
O1040 Co1029 2.039 . S
O1040 C1030 1.265 . S
C1041 O1037 1.253 . S
C1041 O1042 1.227 . S
O1042 C1041 1.227 . S
N1043 Co1029 2.140 . S
N1043 C1046 1.346 . S
N1043 C1047 1.345 . S
C1044 C1045 1.387 . S
C1044 C1048 1.391 . S
C1045 C1044 1.387 . S
C1045 C1046 1.369 . S
C1045 H1054 0.929 . S
C1046 N1043 1.346 . S
C1046 C1045 1.369 . S
C1046 H1049 0.928 . S
C1047 N1043 1.345 . S
C1047 C1048 1.371 . S
C1047 H1050 0.931 . S
C1048 C1044 1.391 . S
C1048 C1047 1.371 . S
C1048 H1055 0.930 . S
H1049 C1046 0.928 . S
H1050 C1047 0.931 . S
H1051 C1027 0.930 . S
H1052 C1024 0.930 . S
H1053 C1033 0.930 . S
H1054 C1045 0.929 . S
H1055 C1048 0.930 . S
C1056 C1057 1.351 . S
C1056 N1059 1.368 . S
C1056 H1061 0.931 . S
C1057 C1056 1.351 . S
C1057 N1058 1.373 . S
C1057 H1085 0.930 . S
N1058 C1057 1.373 . S
N1058 C1060 1.340 . S
N1059 C1056 1.368 . S
N1059 C1060 1.321 . S
N1059 Co1062 2.135 . S
C1060 N1058 1.340 . S
C1060 N1059 1.321 . S
C1060 H1084 0.930 . S
H1061 C1056 0.931 . S
Co1062 N1059 2.135 . S
Co1062 N1065 2.121 . S
Co1062 O1070 2.055 . S
Co1062 O1073 2.039 . S
Co1062 N1076 2.140 . S
C1063 O1064 1.227 . S
C1063 O1073 1.265 . S
O1064 C1063 1.227 . S
N1065 Co1062 2.121 . S
N1065 C1067 1.375 . S
N1065 C1068 1.313 . S
C1066 C1067 1.338 . S
C1066 N1069 1.377 . S
C1066 H1086 0.930 . S
C1067 N1065 1.375 . S
C1067 C1066 1.338 . S
C1067 H1071 0.931 . S
C1068 N1065 1.313 . S
C1068 N1069 1.344 . S
C1068 H1072 0.930 . S
N1069 C1066 1.377 . S
N1069 C1068 1.344 . S
O1070 Co1062 2.055 . S
O1070 C1074 1.253 . S
H1071 C1067 0.931 . S
H1072 C1068 0.930 . S
O1073 Co1062 2.039 . S
O1073 C1063 1.265 . S
C1074 O1070 1.253 . S
C1074 O1075 1.227 . S
O1075 C1074 1.227 . S
N1076 Co1062 2.140 . S
N1076 C1079 1.346 . S
N1076 C1080 1.345 . S
C1077 C1078 1.387 . S
C1077 C1081 1.391 . S
C1078 C1077 1.387 . S
C1078 C1079 1.369 . S
C1078 H1087 0.929 . S
C1079 N1076 1.346 . S
C1079 C1078 1.369 . S
C1079 H1082 0.928 . S
C1080 N1076 1.345 . S
C1080 C1081 1.371 . S
C1080 H1083 0.931 . S
C1081 C1077 1.391 . S
C1081 C1080 1.371 . S
C1081 H1088 0.930 . S
H1082 C1079 0.928 . S
H1083 C1080 0.931 . S
H1084 C1060 0.930 . S
H1085 C1057 0.930 . S
H1086 C1066 0.930 . S
H1087 C1078 0.929 . S
H1088 C1081 0.930 . S
C1089 C1090 1.351 . S
C1089 N1092 1.368 . S
C1089 H1094 0.931 . S
C1090 C1089 1.351 . S
C1090 N1091 1.373 . S
C1090 H1118 0.930 . S
N1091 C1090 1.373 . S
N1091 C1093 1.340 . S
N1092 C1089 1.368 . S
N1092 C1093 1.321 . S
N1092 Co1095 2.135 . S
C1093 N1091 1.340 . S
C1093 N1092 1.321 . S
C1093 H1117 0.930 . S
H1094 C1089 0.931 . S
Co1095 N1092 2.135 . S
Co1095 N1098 2.121 . S
Co1095 O1103 2.055 . S
Co1095 O1106 2.039 . S
Co1095 N1109 2.140 . S
C1096 O1097 1.227 . S
C1096 O1106 1.265 . S
O1097 C1096 1.227 . S
N1098 Co1095 2.121 . S
N1098 C1100 1.375 . S
N1098 C1101 1.313 . S
C1099 C1100 1.338 . S
C1099 N1102 1.377 . S
C1099 H1119 0.930 . S
C1100 N1098 1.375 . S
C1100 C1099 1.338 . S
C1100 H1104 0.931 . S
C1101 N1098 1.313 . S
C1101 N1102 1.344 . S
C1101 H1105 0.930 . S
N1102 C1099 1.377 . S
N1102 C1101 1.344 . S
O1103 Co1095 2.055 . S
O1103 C1107 1.253 . S
H1104 C1100 0.931 . S
H1105 C1101 0.930 . S
O1106 Co1095 2.039 . S
O1106 C1096 1.265 . S
C1107 O1103 1.253 . S
C1107 O1108 1.227 . S
O1108 C1107 1.227 . S
N1109 Co1095 2.140 . S
N1109 C1112 1.346 . S
N1109 C1113 1.345 . S
C1110 C1111 1.387 . S
C1110 C1114 1.391 . S
C1111 C1110 1.387 . S
C1111 C1112 1.369 . S
C1111 H1120 0.929 . S
C1112 N1109 1.346 . S
C1112 C1111 1.369 . S
C1112 H1115 0.928 . S
C1113 N1109 1.345 . S
C1113 C1114 1.371 . S
C1113 H1116 0.931 . S
C1114 C1110 1.391 . S
C1114 C1113 1.371 . S
C1114 H1121 0.930 . S
H1115 C1112 0.928 . S
H1116 C1113 0.931 . S
H1117 C1093 0.930 . S
H1118 C1090 0.930 . S
H1119 C1099 0.930 . S
H1120 C1111 0.929 . S
H1121 C1114 0.930 . S
C1122 C1123 1.351 . S
C1122 N1125 1.368 . S
C1122 H1127 0.931 . S
C1123 C1122 1.351 . S
C1123 N1124 1.373 . S
C1123 H1151 0.930 . S
N1124 C1123 1.373 . S
N1124 C1126 1.340 . S
N1125 C1122 1.368 . S
N1125 C1126 1.321 . S
N1125 Co1128 2.135 . S
C1126 N1124 1.340 . S
C1126 N1125 1.321 . S
C1126 H1150 0.930 . S
H1127 C1122 0.931 . S
Co1128 N1125 2.135 . S
Co1128 N1131 2.121 . S
Co1128 O1136 2.055 . S
Co1128 O1139 2.039 . S
Co1128 N1142 2.140 . S
C1129 O1130 1.227 . S
C1129 O1139 1.265 . S
O1130 C1129 1.227 . S
N1131 Co1128 2.121 . S
N1131 C1133 1.375 . S
N1131 C1134 1.313 . S
C1132 C1133 1.338 . S
C1132 N1135 1.377 . S
C1132 H1152 0.930 . S
C1133 N1131 1.375 . S
C1133 C1132 1.338 . S
C1133 H1137 0.931 . S
C1134 N1131 1.313 . S
C1134 N1135 1.344 . S
C1134 H1138 0.930 . S
N1135 C1132 1.377 . S
N1135 C1134 1.344 . S
O1136 Co1128 2.055 . S
O1136 C1140 1.253 . S
H1137 C1133 0.931 . S
H1138 C1134 0.930 . S
O1139 Co1128 2.039 . S
O1139 C1129 1.265 . S
C1140 O1136 1.253 . S
C1140 O1141 1.227 . S
O1141 C1140 1.227 . S
N1142 Co1128 2.140 . S
N1142 C1145 1.346 . S
N1142 C1146 1.345 . S
C1143 C1144 1.387 . S
C1143 C1147 1.391 . S
C1144 C1143 1.387 . S
C1144 C1145 1.369 . S
C1144 H1153 0.929 . S
C1145 N1142 1.346 . S
C1145 C1144 1.369 . S
C1145 H1148 0.928 . S
C1146 N1142 1.345 . S
C1146 C1147 1.371 . S
C1146 H1149 0.931 . S
C1147 C1143 1.391 . S
C1147 C1146 1.371 . S
C1147 H1154 0.930 . S
H1148 C1145 0.928 . S
H1149 C1146 0.931 . S
H1150 C1126 0.930 . S
H1151 C1123 0.930 . S
H1152 C1132 0.930 . S
H1153 C1144 0.929 . S
H1154 C1147 0.930 . S
C1155 C1156 1.351 . S
C1155 N1158 1.368 . S
C1155 H1160 0.931 . S
C1156 C1155 1.351 . S
C1156 N1157 1.373 . S
C1156 H1184 0.930 . S
N1157 C1156 1.373 . S
N1157 C1159 1.340 . S
N1158 C1155 1.368 . S
N1158 C1159 1.321 . S
N1158 Co1161 2.135 . S
C1159 N1157 1.340 . S
C1159 N1158 1.321 . S
C1159 H1183 0.930 . S
H1160 C1155 0.931 . S
Co1161 N1158 2.135 . S
Co1161 N1164 2.121 . S
Co1161 O1169 2.055 . S
Co1161 O1172 2.039 . S
Co1161 N1175 2.140 . S
C1162 O1163 1.227 . S
C1162 O1172 1.265 . S
O1163 C1162 1.227 . S
N1164 Co1161 2.121 . S
N1164 C1166 1.375 . S
N1164 C1167 1.313 . S
C1165 C1166 1.338 . S
C1165 N1168 1.377 . S
C1165 H1185 0.930 . S
C1166 N1164 1.375 . S
C1166 C1165 1.338 . S
C1166 H1170 0.931 . S
C1167 N1164 1.313 . S
C1167 N1168 1.344 . S
C1167 H1171 0.930 . S
N1168 C1165 1.377 . S
N1168 C1167 1.344 . S
O1169 Co1161 2.055 . S
O1169 C1173 1.253 . S
H1170 C1166 0.931 . S
H1171 C1167 0.930 . S
O1172 Co1161 2.039 . S
O1172 C1162 1.265 . S
C1173 O1169 1.253 . S
C1173 O1174 1.227 . S
O1174 C1173 1.227 . S
N1175 Co1161 2.140 . S
N1175 C1178 1.346 . S
N1175 C1179 1.345 . S
C1176 C1177 1.387 . S
C1176 C1180 1.391 . S
C1177 C1176 1.387 . S
C1177 C1178 1.369 . S
C1177 H1186 0.929 . S
C1178 N1175 1.346 . S
C1178 C1177 1.369 . S
C1178 H1181 0.928 . S
C1179 N1175 1.345 . S
C1179 C1180 1.371 . S
C1179 H1182 0.931 . S
C1180 C1176 1.391 . S
C1180 C1179 1.371 . S
C1180 H1187 0.930 . S
H1181 C1178 0.928 . S
H1182 C1179 0.931 . S
H1183 C1159 0.930 . S
H1184 C1156 0.930 . S
H1185 C1165 0.930 . S
H1186 C1177 0.929 . S
H1187 C1180 0.930 . S
C1188 C1189 1.351 . S
C1188 N1191 1.368 . S
C1188 H1193 0.931 . S
C1189 C1188 1.351 . S
C1189 N1190 1.373 . S
C1189 H1217 0.930 . S
N1190 C1189 1.373 . S
N1190 C1192 1.340 . S
N1191 C1188 1.368 . S
N1191 C1192 1.321 . S
N1191 Co1194 2.135 . S
C1192 N1190 1.340 . S
C1192 N1191 1.321 . S
C1192 H1216 0.930 . S
H1193 C1188 0.931 . S
Co1194 N1191 2.135 . S
Co1194 N1197 2.121 . S
Co1194 O1202 2.055 . S
Co1194 O1205 2.039 . S
Co1194 N1208 2.140 . S
C1195 O1196 1.227 . S
C1195 O1205 1.265 . S
O1196 C1195 1.227 . S
N1197 Co1194 2.121 . S
N1197 C1199 1.375 . S
N1197 C1200 1.313 . S
C1198 C1199 1.338 . S
C1198 N1201 1.377 . S
C1198 H1218 0.930 . S
C1199 N1197 1.375 . S
C1199 C1198 1.338 . S
C1199 H1203 0.931 . S
C1200 N1197 1.313 . S
C1200 N1201 1.344 . S
C1200 H1204 0.930 . S
N1201 C1198 1.377 . S
N1201 C1200 1.344 . S
O1202 Co1194 2.055 . S
O1202 C1206 1.253 . S
H1203 C1199 0.931 . S
H1204 C1200 0.930 . S
O1205 Co1194 2.039 . S
O1205 C1195 1.265 . S
C1206 O1202 1.253 . S
C1206 O1207 1.227 . S
O1207 C1206 1.227 . S
N1208 Co1194 2.140 . S
N1208 C1211 1.346 . S
N1208 C1212 1.345 . S
C1209 C1210 1.387 . S
C1209 C1213 1.391 . S
C1210 C1209 1.387 . S
C1210 C1211 1.369 . S
C1210 H1219 0.929 . S
C1211 N1208 1.346 . S
C1211 C1210 1.369 . S
C1211 H1214 0.928 . S
C1212 N1208 1.345 . S
C1212 C1213 1.371 . S
C1212 H1215 0.931 . S
C1213 C1209 1.391 . S
C1213 C1212 1.371 . S
C1213 H1220 0.930 . S
H1214 C1211 0.928 . S
H1215 C1212 0.931 . S
H1216 C1192 0.930 . S
H1217 C1189 0.930 . S
H1218 C1198 0.930 . S
H1219 C1210 0.929 . S
H1220 C1213 0.930 . S
C1221 C1222 1.351 . S
C1221 N1224 1.368 . S
C1221 H1226 0.931 . S
C1222 C1221 1.351 . S
C1222 N1223 1.373 . S
C1222 H1250 0.930 . S
N1223 C1222 1.373 . S
N1223 C1225 1.340 . S
N1224 C1221 1.368 . S
N1224 C1225 1.321 . S
N1224 Co1227 2.135 . S
C1225 N1223 1.340 . S
C1225 N1224 1.321 . S
C1225 H1249 0.930 . S
H1226 C1221 0.931 . S
Co1227 N1224 2.135 . S
Co1227 N1230 2.121 . S
Co1227 O1235 2.055 . S
Co1227 O1238 2.039 . S
Co1227 N1241 2.140 . S
C1228 O1229 1.227 . S
C1228 O1238 1.265 . S
O1229 C1228 1.227 . S
N1230 Co1227 2.121 . S
N1230 C1232 1.375 . S
N1230 C1233 1.313 . S
C1231 C1232 1.338 . S
C1231 N1234 1.377 . S
C1231 H1251 0.930 . S
C1232 N1230 1.375 . S
C1232 C1231 1.338 . S
C1232 H1236 0.931 . S
C1233 N1230 1.313 . S
C1233 N1234 1.344 . S
C1233 H1237 0.930 . S
N1234 C1231 1.377 . S
N1234 C1233 1.344 . S
O1235 Co1227 2.055 . S
O1235 C1239 1.253 . S
H1236 C1232 0.931 . S
H1237 C1233 0.930 . S
O1238 Co1227 2.039 . S
O1238 C1228 1.265 . S
C1239 O1235 1.253 . S
C1239 O1240 1.227 . S
O1240 C1239 1.227 . S
N1241 Co1227 2.140 . S
N1241 C1244 1.346 . S
N1241 C1245 1.345 . S
C1242 C1243 1.387 . S
C1242 C1246 1.391 . S
C1243 C1242 1.387 . S
C1243 C1244 1.369 . S
C1243 H1252 0.929 . S
C1244 N1241 1.346 . S
C1244 C1243 1.369 . S
C1244 H1247 0.928 . S
C1245 N1241 1.345 . S
C1245 C1246 1.371 . S
C1245 H1248 0.931 . S
C1246 C1242 1.391 . S
C1246 C1245 1.371 . S
C1246 H1253 0.930 . S
H1247 C1244 0.928 . S
H1248 C1245 0.931 . S
H1249 C1225 0.930 . S
H1250 C1222 0.930 . S
H1251 C1231 0.930 . S
H1252 C1243 0.929 . S
H1253 C1246 0.930 . S
C1254 C1255 1.351 . S
C1254 N1257 1.368 . S
C1254 H1259 0.931 . S
C1255 C1254 1.351 . S
C1255 N1256 1.373 . S
C1255 H1283 0.930 . S
N1256 C1255 1.373 . S
N1256 C1258 1.340 . S
N1257 C1254 1.368 . S
N1257 C1258 1.321 . S
N1257 Co1260 2.135 . S
C1258 N1256 1.340 . S
C1258 N1257 1.321 . S
C1258 H1282 0.930 . S
H1259 C1254 0.931 . S
Co1260 N1257 2.135 . S
Co1260 N1263 2.121 . S
Co1260 O1268 2.055 . S
Co1260 O1271 2.039 . S
Co1260 N1274 2.140 . S
C1261 O1262 1.227 . S
C1261 O1271 1.265 . S
O1262 C1261 1.227 . S
N1263 Co1260 2.121 . S
N1263 C1265 1.375 . S
N1263 C1266 1.313 . S
C1264 C1265 1.338 . S
C1264 N1267 1.377 . S
C1264 H1284 0.930 . S
C1265 N1263 1.375 . S
C1265 C1264 1.338 . S
C1265 H1269 0.931 . S
C1266 N1263 1.313 . S
C1266 N1267 1.344 . S
C1266 H1270 0.930 . S
N1267 C1264 1.377 . S
N1267 C1266 1.344 . S
O1268 Co1260 2.055 . S
O1268 C1272 1.253 . S
H1269 C1265 0.931 . S
H1270 C1266 0.930 . S
O1271 Co1260 2.039 . S
O1271 C1261 1.265 . S
C1272 O1268 1.253 . S
C1272 O1273 1.227 . S
O1273 C1272 1.227 . S
N1274 Co1260 2.140 . S
N1274 C1277 1.346 . S
N1274 C1278 1.345 . S
C1275 C1276 1.387 . S
C1275 C1279 1.391 . S
C1276 C1275 1.387 . S
C1276 C1277 1.369 . S
C1276 H1285 0.929 . S
C1277 N1274 1.346 . S
C1277 C1276 1.369 . S
C1277 H1280 0.928 . S
C1278 N1274 1.345 . S
C1278 C1279 1.371 . S
C1278 H1281 0.931 . S
C1279 C1275 1.391 . S
C1279 C1278 1.371 . S
C1279 H1286 0.930 . S
H1280 C1277 0.928 . S
H1281 C1278 0.931 . S
H1282 C1258 0.930 . S
H1283 C1255 0.930 . S
H1284 C1264 0.930 . S
H1285 C1276 0.929 . S
H1286 C1279 0.930 . S
C1287 C1288 1.351 . S
C1287 N1290 1.368 . S
C1287 H1292 0.931 . S
C1288 C1287 1.351 . S
C1288 N1289 1.373 . S
C1288 H1316 0.930 . S
N1289 C1288 1.373 . S
N1289 C1291 1.340 . S
N1290 C1287 1.368 . S
N1290 C1291 1.321 . S
N1290 Co1293 2.135 . S
C1291 N1289 1.340 . S
C1291 N1290 1.321 . S
C1291 H1315 0.930 . S
H1292 C1287 0.931 . S
Co1293 N1290 2.135 . S
Co1293 N1296 2.121 . S
Co1293 O1301 2.055 . S
Co1293 O1304 2.039 . S
Co1293 N1307 2.140 . S
C1294 O1295 1.227 . S
C1294 O1304 1.265 . S
O1295 C1294 1.227 . S
N1296 Co1293 2.121 . S
N1296 C1298 1.375 . S
N1296 C1299 1.313 . S
C1297 C1298 1.338 . S
C1297 N1300 1.377 . S
C1297 H1317 0.930 . S
C1298 N1296 1.375 . S
C1298 C1297 1.338 . S
C1298 H1302 0.931 . S
C1299 N1296 1.313 . S
C1299 N1300 1.344 . S
C1299 H1303 0.930 . S
N1300 C1297 1.377 . S
N1300 C1299 1.344 . S
O1301 Co1293 2.055 . S
O1301 C1305 1.253 . S
H1302 C1298 0.931 . S
H1303 C1299 0.930 . S
O1304 Co1293 2.039 . S
O1304 C1294 1.265 . S
C1305 O1301 1.253 . S
C1305 O1306 1.227 . S
O1306 C1305 1.227 . S
N1307 Co1293 2.140 . S
N1307 C1310 1.346 . S
N1307 C1311 1.345 . S
C1308 C1309 1.387 . S
C1308 C1312 1.391 . S
C1309 C1308 1.387 . S
C1309 C1310 1.369 . S
C1309 H1318 0.929 . S
C1310 N1307 1.346 . S
C1310 C1309 1.369 . S
C1310 H1313 0.928 . S
C1311 N1307 1.345 . S
C1311 C1312 1.371 . S
C1311 H1314 0.931 . S
C1312 C1308 1.391 . S
C1312 C1311 1.371 . S
C1312 H1319 0.930 . S
H1313 C1310 0.928 . S
H1314 C1311 0.931 . S
H1315 C1291 0.930 . S
H1316 C1288 0.930 . S
H1317 C1297 0.930 . S
H1318 C1309 0.929 . S
H1319 C1312 0.930 . S
C1320 C1321 1.351 . S
C1320 N1323 1.368 . S
C1320 H1325 0.931 . S
C1321 C1320 1.351 . S
C1321 N1322 1.373 . S
C1321 H1349 0.930 . S
N1322 C1321 1.373 . S
N1322 C1324 1.340 . S
N1323 C1320 1.368 . S
N1323 C1324 1.321 . S
N1323 Co1326 2.135 . S
C1324 N1322 1.340 . S
C1324 N1323 1.321 . S
C1324 H1348 0.930 . S
H1325 C1320 0.931 . S
Co1326 N1323 2.135 . S
Co1326 N1329 2.121 . S
Co1326 O1334 2.055 . S
Co1326 O1337 2.039 . S
Co1326 N1340 2.140 . S
C1327 O1328 1.227 . S
C1327 O1337 1.265 . S
O1328 C1327 1.227 . S
N1329 Co1326 2.121 . S
N1329 C1331 1.375 . S
N1329 C1332 1.313 . S
C1330 C1331 1.338 . S
C1330 N1333 1.377 . S
C1330 H1350 0.930 . S
C1331 N1329 1.375 . S
C1331 C1330 1.338 . S
C1331 H1335 0.931 . S
C1332 N1329 1.313 . S
C1332 N1333 1.344 . S
C1332 H1336 0.930 . S
N1333 C1330 1.377 . S
N1333 C1332 1.344 . S
O1334 Co1326 2.055 . S
O1334 C1338 1.253 . S
H1335 C1331 0.931 . S
H1336 C1332 0.930 . S
O1337 Co1326 2.039 . S
O1337 C1327 1.265 . S
C1338 O1334 1.253 . S
C1338 O1339 1.227 . S
O1339 C1338 1.227 . S
N1340 Co1326 2.140 . S
N1340 C1343 1.346 . S
N1340 C1344 1.345 . S
C1341 C1342 1.387 . S
C1341 C1345 1.391 . S
C1342 C1341 1.387 . S
C1342 C1343 1.369 . S
C1342 H1351 0.929 . S
C1343 N1340 1.346 . S
C1343 C1342 1.369 . S
C1343 H1346 0.928 . S
C1344 N1340 1.345 . S
C1344 C1345 1.371 . S
C1344 H1347 0.931 . S
C1345 C1341 1.391 . S
C1345 C1344 1.371 . S
C1345 H1352 0.930 . S
H1346 C1343 0.928 . S
H1347 C1344 0.931 . S
H1348 C1324 0.930 . S
H1349 C1321 0.930 . S
H1350 C1330 0.930 . S
H1351 C1342 0.929 . S
H1352 C1345 0.930 . S
C1353 C1354 1.351 . S
C1353 N1356 1.368 . S
C1353 H1358 0.931 . S
C1354 C1353 1.351 . S
C1354 N1355 1.373 . S
C1354 H1382 0.930 . S
N1355 C1354 1.373 . S
N1355 C1357 1.340 . S
N1356 C1353 1.368 . S
N1356 C1357 1.321 . S
N1356 Co1359 2.135 . S
C1357 N1355 1.340 . S
C1357 N1356 1.321 . S
C1357 H1381 0.930 . S
H1358 C1353 0.931 . S
Co1359 N1356 2.135 . S
Co1359 N1362 2.121 . S
Co1359 O1367 2.055 . S
Co1359 O1370 2.039 . S
Co1359 N1373 2.140 . S
C1360 O1361 1.227 . S
C1360 O1370 1.265 . S
O1361 C1360 1.227 . S
N1362 Co1359 2.121 . S
N1362 C1364 1.375 . S
N1362 C1365 1.313 . S
C1363 C1364 1.338 . S
C1363 N1366 1.377 . S
C1363 H1383 0.930 . S
C1364 N1362 1.375 . S
C1364 C1363 1.338 . S
C1364 H1368 0.931 . S
C1365 N1362 1.313 . S
C1365 N1366 1.344 . S
C1365 H1369 0.930 . S
N1366 C1363 1.377 . S
N1366 C1365 1.344 . S
O1367 Co1359 2.055 . S
O1367 C1371 1.253 . S
H1368 C1364 0.931 . S
H1369 C1365 0.930 . S
O1370 Co1359 2.039 . S
O1370 C1360 1.265 . S
C1371 O1367 1.253 . S
C1371 O1372 1.227 . S
O1372 C1371 1.227 . S
N1373 Co1359 2.140 . S
N1373 C1376 1.346 . S
N1373 C1377 1.345 . S
C1374 C1375 1.387 . S
C1374 C1378 1.391 . S
C1375 C1374 1.387 . S
C1375 C1376 1.369 . S
C1375 H1384 0.929 . S
C1376 N1373 1.346 . S
C1376 C1375 1.369 . S
C1376 H1379 0.928 . S
C1377 N1373 1.345 . S
C1377 C1378 1.371 . S
C1377 H1380 0.931 . S
C1378 C1374 1.391 . S
C1378 C1377 1.371 . S
C1378 H1385 0.930 . S
H1379 C1376 0.928 . S
H1380 C1377 0.931 . S
H1381 C1357 0.930 . S
H1382 C1354 0.930 . S
H1383 C1363 0.930 . S
H1384 C1375 0.929 . S
H1385 C1378 0.930 . S
C1386 C1387 1.351 . S
C1386 N1389 1.368 . S
C1386 H1391 0.931 . S
C1387 C1386 1.351 . S
C1387 N1388 1.373 . S
C1387 H1415 0.930 . S
N1388 C1387 1.373 . S
N1388 C1390 1.340 . S
N1389 C1386 1.368 . S
N1389 C1390 1.321 . S
N1389 Co1392 2.135 . S
C1390 N1388 1.340 . S
C1390 N1389 1.321 . S
C1390 H1414 0.930 . S
H1391 C1386 0.931 . S
Co1392 N1389 2.135 . S
Co1392 N1395 2.121 . S
Co1392 O1400 2.055 . S
Co1392 O1403 2.039 . S
Co1392 N1406 2.140 . S
C1393 O1394 1.227 . S
C1393 O1403 1.265 . S
O1394 C1393 1.227 . S
N1395 Co1392 2.121 . S
N1395 C1397 1.375 . S
N1395 C1398 1.313 . S
C1396 C1397 1.338 . S
C1396 N1399 1.377 . S
C1396 H1416 0.930 . S
C1397 N1395 1.375 . S
C1397 C1396 1.338 . S
C1397 H1401 0.931 . S
C1398 N1395 1.313 . S
C1398 N1399 1.344 . S
C1398 H1402 0.930 . S
N1399 C1396 1.377 . S
N1399 C1398 1.344 . S
O1400 Co1392 2.055 . S
O1400 C1404 1.253 . S
H1401 C1397 0.931 . S
H1402 C1398 0.930 . S
O1403 Co1392 2.039 . S
O1403 C1393 1.265 . S
C1404 O1400 1.253 . S
C1404 O1405 1.227 . S
O1405 C1404 1.227 . S
N1406 Co1392 2.140 . S
N1406 C1409 1.346 . S
N1406 C1410 1.345 . S
C1407 C1408 1.387 . S
C1407 C1411 1.391 . S
C1408 C1407 1.387 . S
C1408 C1409 1.369 . S
C1408 H1417 0.929 . S
C1409 N1406 1.346 . S
C1409 C1408 1.369 . S
C1409 H1412 0.928 . S
C1410 N1406 1.345 . S
C1410 C1411 1.371 . S
C1410 H1413 0.931 . S
C1411 C1407 1.391 . S
C1411 C1410 1.371 . S
C1411 H1418 0.930 . S
H1412 C1409 0.928 . S
H1413 C1410 0.931 . S
H1414 C1390 0.930 . S
H1415 C1387 0.930 . S
H1416 C1396 0.930 . S
H1417 C1408 0.929 . S
H1418 C1411 0.930 . S
C1419 C1420 1.351 . S
C1419 N1422 1.368 . S
C1419 H1424 0.931 . S
C1420 C1419 1.351 . S
C1420 N1421 1.373 . S
C1420 H1448 0.930 . S
N1421 C1420 1.373 . S
N1421 C1423 1.340 . S
N1422 C1419 1.368 . S
N1422 C1423 1.321 . S
N1422 Co1425 2.135 . S
C1423 N1421 1.340 . S
C1423 N1422 1.321 . S
C1423 H1447 0.930 . S
H1424 C1419 0.931 . S
Co1425 N1422 2.135 . S
Co1425 N1428 2.121 . S
Co1425 O1433 2.055 . S
Co1425 O1436 2.039 . S
Co1425 N1439 2.140 . S
C1426 O1427 1.227 . S
C1426 O1436 1.265 . S
O1427 C1426 1.227 . S
N1428 Co1425 2.121 . S
N1428 C1430 1.375 . S
N1428 C1431 1.313 . S
C1429 C1430 1.338 . S
C1429 N1432 1.377 . S
C1429 H1449 0.930 . S
C1430 N1428 1.375 . S
C1430 C1429 1.338 . S
C1430 H1434 0.931 . S
C1431 N1428 1.313 . S
C1431 N1432 1.344 . S
C1431 H1435 0.930 . S
N1432 C1429 1.377 . S
N1432 C1431 1.344 . S
O1433 Co1425 2.055 . S
O1433 C1437 1.253 . S
H1434 C1430 0.931 . S
H1435 C1431 0.930 . S
O1436 Co1425 2.039 . S
O1436 C1426 1.265 . S
C1437 O1433 1.253 . S
C1437 O1438 1.227 . S
O1438 C1437 1.227 . S
N1439 Co1425 2.140 . S
N1439 C1442 1.346 . S
N1439 C1443 1.345 . S
C1440 C1441 1.387 . S
C1440 C1444 1.391 . S
C1441 C1440 1.387 . S
C1441 C1442 1.369 . S
C1441 H1450 0.929 . S
C1442 N1439 1.346 . S
C1442 C1441 1.369 . S
C1442 H1445 0.928 . S
C1443 N1439 1.345 . S
C1443 C1444 1.371 . S
C1443 H1446 0.931 . S
C1444 C1440 1.391 . S
C1444 C1443 1.371 . S
C1444 H1451 0.930 . S
H1445 C1442 0.928 . S
H1446 C1443 0.931 . S
H1447 C1423 0.930 . S
H1448 C1420 0.930 . S
H1449 C1429 0.930 . S
H1450 C1441 0.929 . S
H1451 C1444 0.930 . S
C1452 C1453 1.351 . S
C1452 N1455 1.368 . S
C1452 H1457 0.931 . S
C1453 C1452 1.351 . S
C1453 N1454 1.373 . S
C1453 H1481 0.930 . S
N1454 C1453 1.373 . S
N1454 C1456 1.340 . S
N1455 C1452 1.368 . S
N1455 C1456 1.321 . S
N1455 Co1458 2.135 . S
C1456 N1454 1.340 . S
C1456 N1455 1.321 . S
C1456 H1480 0.930 . S
H1457 C1452 0.931 . S
Co1458 N1455 2.135 . S
Co1458 N1461 2.121 . S
Co1458 O1466 2.055 . S
Co1458 O1469 2.039 . S
Co1458 N1472 2.140 . S
C1459 O1460 1.227 . S
C1459 O1469 1.265 . S
O1460 C1459 1.227 . S
N1461 Co1458 2.121 . S
N1461 C1463 1.375 . S
N1461 C1464 1.313 . S
C1462 C1463 1.338 . S
C1462 N1465 1.377 . S
C1462 H1482 0.930 . S
C1463 N1461 1.375 . S
C1463 C1462 1.338 . S
C1463 H1467 0.931 . S
C1464 N1461 1.313 . S
C1464 N1465 1.344 . S
C1464 H1468 0.930 . S
N1465 C1462 1.377 . S
N1465 C1464 1.344 . S
O1466 Co1458 2.055 . S
O1466 C1470 1.253 . S
H1467 C1463 0.931 . S
H1468 C1464 0.930 . S
O1469 Co1458 2.039 . S
O1469 C1459 1.265 . S
C1470 O1466 1.253 . S
C1470 O1471 1.227 . S
O1471 C1470 1.227 . S
N1472 Co1458 2.140 . S
N1472 C1475 1.346 . S
N1472 C1476 1.345 . S
C1473 C1474 1.387 . S
C1473 C1477 1.391 . S
C1474 C1473 1.387 . S
C1474 C1475 1.369 . S
C1474 H1483 0.929 . S
C1475 N1472 1.346 . S
C1475 C1474 1.369 . S
C1475 H1478 0.928 . S
C1476 N1472 1.345 . S
C1476 C1477 1.371 . S
C1476 H1479 0.931 . S
C1477 C1473 1.391 . S
C1477 C1476 1.371 . S
C1477 H1484 0.930 . S
H1478 C1475 0.928 . S
H1479 C1476 0.931 . S
H1480 C1456 0.930 . S
H1481 C1453 0.930 . S
H1482 C1462 0.930 . S
H1483 C1474 0.929 . S
H1484 C1477 0.930 . S
C1485 C1486 1.351 . S
C1485 N1488 1.368 . S
C1485 H1490 0.931 . S
C1486 C1485 1.351 . S
C1486 N1487 1.373 . S
C1486 H1514 0.930 . S
N1487 C1486 1.373 . S
N1487 C1489 1.340 . S
N1488 C1485 1.368 . S
N1488 C1489 1.321 . S
N1488 Co1491 2.135 . S
C1489 N1487 1.340 . S
C1489 N1488 1.321 . S
C1489 H1513 0.930 . S
H1490 C1485 0.931 . S
Co1491 N1488 2.135 . S
Co1491 N1494 2.121 . S
Co1491 O1499 2.055 . S
Co1491 O1502 2.039 . S
Co1491 N1505 2.140 . S
C1492 O1493 1.227 . S
C1492 O1502 1.265 . S
O1493 C1492 1.227 . S
N1494 Co1491 2.121 . S
N1494 C1496 1.375 . S
N1494 C1497 1.313 . S
C1495 C1496 1.338 . S
C1495 N1498 1.377 . S
C1495 H1515 0.930 . S
C1496 N1494 1.375 . S
C1496 C1495 1.338 . S
C1496 H1500 0.931 . S
C1497 N1494 1.313 . S
C1497 N1498 1.344 . S
C1497 H1501 0.930 . S
N1498 C1495 1.377 . S
N1498 C1497 1.344 . S
O1499 Co1491 2.055 . S
O1499 C1503 1.253 . S
H1500 C1496 0.931 . S
H1501 C1497 0.930 . S
O1502 Co1491 2.039 . S
O1502 C1492 1.265 . S
C1503 O1499 1.253 . S
C1503 O1504 1.227 . S
O1504 C1503 1.227 . S
N1505 Co1491 2.140 . S
N1505 C1508 1.346 . S
N1505 C1509 1.345 . S
C1506 C1507 1.387 . S
C1506 C1510 1.391 . S
C1507 C1506 1.387 . S
C1507 C1508 1.369 . S
C1507 H1516 0.929 . S
C1508 N1505 1.346 . S
C1508 C1507 1.369 . S
C1508 H1511 0.928 . S
C1509 N1505 1.345 . S
C1509 C1510 1.371 . S
C1509 H1512 0.931 . S
C1510 C1506 1.391 . S
C1510 C1509 1.371 . S
C1510 H1517 0.930 . S
H1511 C1508 0.928 . S
H1512 C1509 0.931 . S
H1513 C1489 0.930 . S
H1514 C1486 0.930 . S
H1515 C1495 0.930 . S
H1516 C1507 0.929 . S
H1517 C1510 0.930 . S
C1518 C1519 1.351 . S
C1518 N1521 1.368 . S
C1518 H1523 0.931 . S
C1519 C1518 1.351 . S
C1519 N1520 1.373 . S
C1519 H1547 0.930 . S
N1520 C1519 1.373 . S
N1520 C1522 1.340 . S
N1521 C1518 1.368 . S
N1521 C1522 1.321 . S
N1521 Co1524 2.135 . S
C1522 N1520 1.340 . S
C1522 N1521 1.321 . S
C1522 H1546 0.930 . S
H1523 C1518 0.931 . S
Co1524 N1521 2.135 . S
Co1524 N1527 2.121 . S
Co1524 O1532 2.055 . S
Co1524 O1535 2.039 . S
Co1524 N1538 2.140 . S
C1525 O1526 1.227 . S
C1525 O1535 1.265 . S
O1526 C1525 1.227 . S
N1527 Co1524 2.121 . S
N1527 C1529 1.375 . S
N1527 C1530 1.313 . S
C1528 C1529 1.338 . S
C1528 N1531 1.377 . S
C1528 H1548 0.930 . S
C1529 N1527 1.375 . S
C1529 C1528 1.338 . S
C1529 H1533 0.931 . S
C1530 N1527 1.313 . S
C1530 N1531 1.344 . S
C1530 H1534 0.930 . S
N1531 C1528 1.377 . S
N1531 C1530 1.344 . S
O1532 Co1524 2.055 . S
O1532 C1536 1.253 . S
H1533 C1529 0.931 . S
H1534 C1530 0.930 . S
O1535 Co1524 2.039 . S
O1535 C1525 1.265 . S
C1536 O1532 1.253 . S
C1536 O1537 1.227 . S
O1537 C1536 1.227 . S
N1538 Co1524 2.140 . S
N1538 C1541 1.346 . S
N1538 C1542 1.345 . S
C1539 C1540 1.387 . S
C1539 C1543 1.391 . S
C1540 C1539 1.387 . S
C1540 C1541 1.369 . S
C1540 H1549 0.929 . S
C1541 N1538 1.346 . S
C1541 C1540 1.369 . S
C1541 H1544 0.928 . S
C1542 N1538 1.345 . S
C1542 C1543 1.371 . S
C1542 H1545 0.931 . S
C1543 C1539 1.391 . S
C1543 C1542 1.371 . S
C1543 H1550 0.930 . S
H1544 C1541 0.928 . S
H1545 C1542 0.931 . S
H1546 C1522 0.930 . S
H1547 C1519 0.930 . S
H1548 C1528 0.930 . S
H1549 C1540 0.929 . S
H1550 C1543 0.930 . S
C1551 C1552 1.351 . S
C1551 N1554 1.368 . S
C1551 H1556 0.931 . S
C1552 C1551 1.351 . S
C1552 N1553 1.373 . S
C1552 H1580 0.930 . S
N1553 C1552 1.373 . S
N1553 C1555 1.340 . S
N1554 C1551 1.368 . S
N1554 C1555 1.321 . S
N1554 Co1557 2.135 . S
C1555 N1553 1.340 . S
C1555 N1554 1.321 . S
C1555 H1579 0.930 . S
H1556 C1551 0.931 . S
Co1557 N1554 2.135 . S
Co1557 N1560 2.121 . S
Co1557 O1565 2.055 . S
Co1557 O1568 2.039 . S
Co1557 N1571 2.140 . S
C1558 O1559 1.227 . S
C1558 O1568 1.265 . S
O1559 C1558 1.227 . S
N1560 Co1557 2.121 . S
N1560 C1562 1.375 . S
N1560 C1563 1.313 . S
C1561 C1562 1.338 . S
C1561 N1564 1.377 . S
C1561 H1581 0.930 . S
C1562 N1560 1.375 . S
C1562 C1561 1.338 . S
C1562 H1566 0.931 . S
C1563 N1560 1.313 . S
C1563 N1564 1.344 . S
C1563 H1567 0.930 . S
N1564 C1561 1.377 . S
N1564 C1563 1.344 . S
O1565 Co1557 2.055 . S
O1565 C1569 1.253 . S
H1566 C1562 0.931 . S
H1567 C1563 0.930 . S
O1568 Co1557 2.039 . S
O1568 C1558 1.265 . S
C1569 O1565 1.253 . S
C1569 O1570 1.227 . S
O1570 C1569 1.227 . S
N1571 Co1557 2.140 . S
N1571 C1574 1.346 . S
N1571 C1575 1.345 . S
C1572 C1573 1.387 . S
C1572 C1576 1.391 . S
C1573 C1572 1.387 . S
C1573 C1574 1.369 . S
C1573 H1582 0.929 . S
C1574 N1571 1.346 . S
C1574 C1573 1.369 . S
C1574 H1577 0.928 . S
C1575 N1571 1.345 . S
C1575 C1576 1.371 . S
C1575 H1578 0.931 . S
C1576 C1572 1.391 . S
C1576 C1575 1.371 . S
C1576 H1583 0.930 . S
H1577 C1574 0.928 . S
H1578 C1575 0.931 . S
H1579 C1555 0.930 . S
H1580 C1552 0.930 . S
H1581 C1561 0.930 . S
H1582 C1573 0.929 . S
H1583 C1576 0.930 . S
H1584 C1590 0.930 . S
H1585 C1593 0.930 . S
H1586 C1594 0.930 . S
H1587 C1595 0.930 . S
H1588 C1598 0.930 . S
H1589 C1599 0.930 . S
C1590 H1584 0.930 . S
C1590 C1591 1.355 . S
C1590 C1592 1.415 . S
C1591 C1590 1.355 . S
C1591 C1593 1.419 . S
C1592 C1590 1.415 . S
C1592 C1597 1.425 . S
C1592 C1599 1.409 . S
C1593 H1585 0.930 . S
C1593 C1591 1.419 . S
C1593 C1594 1.362 . S
C1594 H1586 0.930 . S
C1594 C1593 1.362 . S
C1594 C1597 1.409 . S
C1595 H1587 0.930 . S
C1595 C1596 1.355 . S
C1595 C1597 1.415 . S
C1596 C1595 1.355 . S
C1596 C1598 1.419 . S
C1597 C1592 1.425 . S
C1597 C1594 1.409 . S
C1597 C1595 1.415 . S
C1598 H1588 0.930 . S
C1598 C1596 1.419 . S
C1598 C1599 1.362 . S
C1599 H1589 0.930 . S
C1599 C1592 1.409 . S
C1599 C1598 1.362 . S
H1600 C1606 0.930 . S
H1601 C1609 0.930 . S
H1602 C1610 0.930 . S
H1603 C1611 0.930 . S
H1604 C1614 0.930 . S
H1605 C1615 0.930 . S
C1606 H1600 0.930 . S
C1606 C1607 1.355 . S
C1606 C1608 1.415 . S
C1607 C1606 1.355 . S
C1607 C1609 1.419 . S
C1608 C1606 1.415 . S
C1608 C1613 1.425 . S
C1608 C1615 1.409 . S
C1609 H1601 0.930 . S
C1609 C1607 1.419 . S
C1609 C1610 1.362 . S
C1610 H1602 0.930 . S
C1610 C1609 1.362 . S
C1610 C1613 1.409 . S
C1611 H1603 0.930 . S
C1611 C1612 1.355 . S
C1611 C1613 1.415 . S
C1612 C1611 1.355 . S
C1612 C1614 1.419 . S
C1613 C1608 1.425 . S
C1613 C1610 1.409 . S
C1613 C1611 1.415 . S
C1614 H1604 0.930 . S
C1614 C1612 1.419 . S
C1614 C1615 1.362 . S
C1615 H1605 0.930 . S
C1615 C1608 1.409 . S
C1615 C1614 1.362 . S
H1616 C1622 0.930 . S
H1617 C1625 0.930 . S
H1618 C1626 0.930 . S
H1619 C1627 0.930 . S
H1620 C1630 0.930 . S
H1621 C1631 0.930 . S
C1622 H1616 0.930 . S
C1622 C1623 1.355 . S
C1622 C1624 1.415 . S
C1623 C1622 1.355 . S
C1623 C1625 1.419 . S
C1624 C1622 1.415 . S
C1624 C1629 1.425 . S
C1624 C1631 1.409 . S
C1625 H1617 0.930 . S
C1625 C1623 1.419 . S
C1625 C1626 1.362 . S
C1626 H1618 0.930 . S
C1626 C1625 1.362 . S
C1626 C1629 1.409 . S
C1627 H1619 0.930 . S
C1627 C1628 1.355 . S
C1627 C1629 1.415 . S
C1628 C1627 1.355 . S
C1628 C1630 1.419 . S
C1629 C1624 1.425 . S
C1629 C1626 1.409 . S
C1629 C1627 1.415 . S
C1630 H1620 0.930 . S
C1630 C1628 1.419 . S
C1630 C1631 1.362 . S
C1631 H1621 0.930 . S
C1631 C1624 1.409 . S
C1631 C1630 1.362 . S
H1632 C1638 0.930 . S
H1633 C1641 0.930 . S
H1634 C1642 0.930 . S
H1635 C1643 0.930 . S
H1636 C1646 0.930 . S
H1637 C1647 0.930 . S
C1638 H1632 0.930 . S
C1638 C1639 1.355 . S
C1638 C1640 1.415 . S
C1639 C1638 1.355 . S
C1639 C1641 1.419 . S
C1640 C1638 1.415 . S
C1640 C1645 1.425 . S
C1640 C1647 1.409 . S
C1641 H1633 0.930 . S
C1641 C1639 1.419 . S
C1641 C1642 1.362 . S
C1642 H1634 0.930 . S
C1642 C1641 1.362 . S
C1642 C1645 1.409 . S
C1643 H1635 0.930 . S
C1643 C1644 1.355 . S
C1643 C1645 1.415 . S
C1644 C1643 1.355 . S
C1644 C1646 1.419 . S
C1645 C1640 1.425 . S
C1645 C1642 1.409 . S
C1645 C1643 1.415 . S
C1646 H1636 0.930 . S
C1646 C1644 1.419 . S
C1646 C1647 1.362 . S
C1647 H1637 0.930 . S
C1647 C1640 1.409 . S
C1647 C1646 1.362 . S
H1648 C1654 0.930 . S
H1649 C1657 0.930 . S
H1650 C1658 0.930 . S
H1651 C1659 0.930 . S
H1652 C1662 0.930 . S
H1653 C1663 0.930 . S
C1654 H1648 0.930 . S
C1654 C1655 1.355 . S
C1654 C1656 1.415 . S
C1655 C1654 1.355 . S
C1655 C1657 1.419 . S
C1656 C1654 1.415 . S
C1656 C1661 1.425 . S
C1656 C1663 1.409 . S
C1657 H1649 0.930 . S
C1657 C1655 1.419 . S
C1657 C1658 1.362 . S
C1658 H1650 0.930 . S
C1658 C1657 1.362 . S
C1658 C1661 1.409 . S
C1659 H1651 0.930 . S
C1659 C1660 1.355 . S
C1659 C1661 1.415 . S
C1660 C1659 1.355 . S
C1660 C1662 1.419 . S
C1661 C1656 1.425 . S
C1661 C1658 1.409 . S
C1661 C1659 1.415 . S
C1662 H1652 0.930 . S
C1662 C1660 1.419 . S
C1662 C1663 1.362 . S
C1663 H1653 0.930 . S
C1663 C1656 1.409 . S
C1663 C1662 1.362 . S
H1664 C1670 0.930 . S
H1665 C1673 0.930 . S
H1666 C1674 0.930 . S
H1667 C1675 0.930 . S
H1668 C1678 0.930 . S
H1669 C1679 0.930 . S
C1670 H1664 0.930 . S
C1670 C1671 1.355 . S
C1670 C1672 1.415 . S
C1671 C1670 1.355 . S
C1671 C1673 1.419 . S
C1672 C1670 1.415 . S
C1672 C1677 1.425 . S
C1672 C1679 1.409 . S
C1673 H1665 0.930 . S
C1673 C1671 1.419 . S
C1673 C1674 1.362 . S
C1674 H1666 0.930 . S
C1674 C1673 1.362 . S
C1674 C1677 1.409 . S
C1675 H1667 0.930 . S
C1675 C1676 1.355 . S
C1675 C1677 1.415 . S
C1676 C1675 1.355 . S
C1676 C1678 1.419 . S
C1677 C1672 1.425 . S
C1677 C1674 1.409 . S
C1677 C1675 1.415 . S
C1678 H1668 0.930 . S
C1678 C1676 1.419 . S
C1678 C1679 1.362 . S
C1679 H1669 0.930 . S
C1679 C1672 1.409 . S
C1679 C1678 1.362 . S
H1680 C1686 0.930 . S
H1681 C1689 0.930 . S
H1682 C1690 0.930 . S
H1683 C1691 0.930 . S
H1684 C1694 0.930 . S
H1685 C1695 0.930 . S
C1686 H1680 0.930 . S
C1686 C1687 1.355 . S
C1686 C1688 1.415 . S
C1687 C1686 1.355 . S
C1687 C1689 1.419 . S
C1688 C1686 1.415 . S
C1688 C1693 1.425 . S
C1688 C1695 1.409 . S
C1689 H1681 0.930 . S
C1689 C1687 1.419 . S
C1689 C1690 1.362 . S
C1690 H1682 0.930 . S
C1690 C1689 1.362 . S
C1690 C1693 1.409 . S
C1691 H1683 0.930 . S
C1691 C1692 1.355 . S
C1691 C1693 1.415 . S
C1692 C1691 1.355 . S
C1692 C1694 1.419 . S
C1693 C1688 1.425 . S
C1693 C1690 1.409 . S
C1693 C1691 1.415 . S
C1694 H1684 0.930 . S
C1694 C1692 1.419 . S
C1694 C1695 1.362 . S
C1695 H1685 0.930 . S
C1695 C1688 1.409 . S
C1695 C1694 1.362 . S
H1696 C1702 0.930 . S
H1697 C1705 0.930 . S
H1698 C1706 0.930 . S
H1699 C1707 0.930 . S
H1700 C1710 0.930 . S
H1701 C1711 0.930 . S
C1702 H1696 0.930 . S
C1702 C1703 1.355 . S
C1702 C1704 1.415 . S
C1703 C1702 1.355 . S
C1703 C1705 1.419 . S
C1704 C1702 1.415 . S
C1704 C1709 1.425 . S
C1704 C1711 1.409 . S
C1705 H1697 0.930 . S
C1705 C1703 1.419 . S
C1705 C1706 1.362 . S
C1706 H1698 0.930 . S
C1706 C1705 1.362 . S
C1706 C1709 1.409 . S
C1707 H1699 0.930 . S
C1707 C1708 1.355 . S
C1707 C1709 1.415 . S
C1708 C1707 1.355 . S
C1708 C1710 1.419 . S
C1709 C1704 1.425 . S
C1709 C1706 1.409 . S
C1709 C1707 1.415 . S
C1710 H1700 0.930 . S
C1710 C1708 1.419 . S
C1710 C1711 1.362 . S
C1711 H1701 0.930 . S
C1711 C1704 1.409 . S
C1711 C1710 1.362 . S
H1712 C1718 0.930 . S
H1713 C1721 0.930 . S
H1714 C1722 0.930 . S
H1715 C1723 0.930 . S
H1716 C1726 0.930 . S
H1717 C1727 0.930 . S
C1718 H1712 0.930 . S
C1718 C1719 1.355 . S
C1718 C1720 1.415 . S
C1719 C1718 1.355 . S
C1719 C1721 1.419 . S
C1720 C1718 1.415 . S
C1720 C1725 1.425 . S
C1720 C1727 1.409 . S
C1721 H1713 0.930 . S
C1721 C1719 1.419 . S
C1721 C1722 1.362 . S
C1722 H1714 0.930 . S
C1722 C1721 1.362 . S
C1722 C1725 1.409 . S
C1723 H1715 0.930 . S
C1723 C1724 1.355 . S
C1723 C1725 1.415 . S
C1724 C1723 1.355 . S
C1724 C1726 1.419 . S
C1725 C1720 1.425 . S
C1725 C1722 1.409 . S
C1725 C1723 1.415 . S
C1726 H1716 0.930 . S
C1726 C1724 1.419 . S
C1726 C1727 1.362 . S
C1727 H1717 0.930 . S
C1727 C1720 1.409 . S
C1727 C1726 1.362 . S
H1728 C1734 0.930 . S
H1729 C1737 0.930 . S
H1730 C1738 0.930 . S
H1731 C1739 0.930 . S
H1732 C1742 0.930 . S
H1733 C1743 0.930 . S
C1734 H1728 0.930 . S
C1734 C1735 1.355 . S
C1734 C1736 1.415 . S
C1735 C1734 1.355 . S
C1735 C1737 1.419 . S
C1736 C1734 1.415 . S
C1736 C1741 1.425 . S
C1736 C1743 1.409 . S
C1737 H1729 0.930 . S
C1737 C1735 1.419 . S
C1737 C1738 1.362 . S
C1738 H1730 0.930 . S
C1738 C1737 1.362 . S
C1738 C1741 1.409 . S
C1739 H1731 0.930 . S
C1739 C1740 1.355 . S
C1739 C1741 1.415 . S
C1740 C1739 1.355 . S
C1740 C1742 1.419 . S
C1741 C1736 1.425 . S
C1741 C1738 1.409 . S
C1741 C1739 1.415 . S
C1742 H1732 0.930 . S
C1742 C1740 1.419 . S
C1742 C1743 1.362 . S
C1743 H1733 0.930 . S
C1743 C1736 1.409 . S
C1743 C1742 1.362 . S
H1744 C1750 0.930 . S
H1745 C1753 0.930 . S
H1746 C1754 0.930 . S
H1747 C1755 0.930 . S
H1748 C1758 0.930 . S
H1749 C1759 0.930 . S
C1750 H1744 0.930 . S
C1750 C1751 1.355 . S
C1750 C1752 1.415 . S
C1751 C1750 1.355 . S
C1751 C1753 1.419 . S
C1752 C1750 1.415 . S
C1752 C1757 1.425 . S
C1752 C1759 1.409 . S
C1753 H1745 0.930 . S
C1753 C1751 1.419 . S
C1753 C1754 1.362 . S
C1754 H1746 0.930 . S
C1754 C1753 1.362 . S
C1754 C1757 1.409 . S
C1755 H1747 0.930 . S
C1755 C1756 1.355 . S
C1755 C1757 1.415 . S
C1756 C1755 1.355 . S
C1756 C1758 1.419 . S
C1757 C1752 1.425 . S
C1757 C1754 1.409 . S
C1757 C1755 1.415 . S
C1758 H1748 0.930 . S
C1758 C1756 1.419 . S
C1758 C1759 1.362 . S
C1759 H1749 0.930 . S
C1759 C1752 1.409 . S
C1759 C1758 1.362 . S
H1760 C1766 0.930 . S
H1761 C1769 0.930 . S
H1762 C1770 0.930 . S
H1763 C1771 0.930 . S
H1764 C1774 0.930 . S
H1765 C1775 0.930 . S
C1766 H1760 0.930 . S
C1766 C1767 1.355 . S
C1766 C1768 1.415 . S
C1767 C1766 1.355 . S
C1767 C1769 1.419 . S
C1768 C1766 1.415 . S
C1768 C1773 1.425 . S
C1768 C1775 1.409 . S
C1769 H1761 0.930 . S
C1769 C1767 1.419 . S
C1769 C1770 1.362 . S
C1770 H1762 0.930 . S
C1770 C1769 1.362 . S
C1770 C1773 1.409 . S
C1771 H1763 0.930 . S
C1771 C1772 1.355 . S
C1771 C1773 1.415 . S
C1772 C1771 1.355 . S
C1772 C1774 1.419 . S
C1773 C1768 1.425 . S
C1773 C1770 1.409 . S
C1773 C1771 1.415 . S
C1774 H1764 0.930 . S
C1774 C1772 1.419 . S
C1774 C1775 1.362 . S
C1775 H1765 0.930 . S
C1775 C1768 1.409 . S
C1775 C1774 1.362 . S
H1776 C1782 0.930 . S
H1777 C1785 0.930 . S
H1778 C1786 0.930 . S
H1779 C1787 0.930 . S
H1780 C1790 0.930 . S
H1781 C1791 0.930 . S
C1782 H1776 0.930 . S
C1782 C1783 1.355 . S
C1782 C1784 1.415 . S
C1783 C1782 1.355 . S
C1783 C1785 1.419 . S
C1784 C1782 1.415 . S
C1784 C1789 1.425 . S
C1784 C1791 1.409 . S
C1785 H1777 0.930 . S
C1785 C1783 1.419 . S
C1785 C1786 1.362 . S
C1786 H1778 0.930 . S
C1786 C1785 1.362 . S
C1786 C1789 1.409 . S
C1787 H1779 0.930 . S
C1787 C1788 1.355 . S
C1787 C1789 1.415 . S
C1788 C1787 1.355 . S
C1788 C1790 1.419 . S
C1789 C1784 1.425 . S
C1789 C1786 1.409 . S
C1789 C1787 1.415 . S
C1790 H1780 0.930 . S
C1790 C1788 1.419 . S
C1790 C1791 1.362 . S
C1791 H1781 0.930 . S
C1791 C1784 1.409 . S
C1791 C1790 1.362 . S
H1792 C1798 0.930 . S
H1793 C1801 0.930 . S
H1794 C1802 0.930 . S
H1795 C1803 0.930 . S
H1796 C1806 0.930 . S
H1797 C1807 0.930 . S
C1798 H1792 0.930 . S
C1798 C1799 1.355 . S
C1798 C1800 1.415 . S
C1799 C1798 1.355 . S
C1799 C1801 1.419 . S
C1800 C1798 1.415 . S
C1800 C1805 1.425 . S
C1800 C1807 1.409 . S
C1801 H1793 0.930 . S
C1801 C1799 1.419 . S
C1801 C1802 1.362 . S
C1802 H1794 0.930 . S
C1802 C1801 1.362 . S
C1802 C1805 1.409 . S
C1803 H1795 0.930 . S
C1803 C1804 1.355 . S
C1803 C1805 1.415 . S
C1804 C1803 1.355 . S
C1804 C1806 1.419 . S
C1805 C1800 1.425 . S
C1805 C1802 1.409 . S
C1805 C1803 1.415 . S
C1806 H1796 0.930 . S
C1806 C1804 1.419 . S
C1806 C1807 1.362 . S
C1807 H1797 0.930 . S
C1807 C1800 1.409 . S
C1807 C1806 1.362 . S
H1808 C1814 0.930 . S
H1809 C1817 0.930 . S
H1810 C1818 0.930 . S
H1811 C1819 0.930 . S
H1812 C1822 0.930 . S
H1813 C1823 0.930 . S
C1814 H1808 0.930 . S
C1814 C1815 1.355 . S
C1814 C1816 1.415 . S
C1815 C1814 1.355 . S
C1815 C1817 1.419 . S
C1816 C1814 1.415 . S
C1816 C1821 1.425 . S
C1816 C1823 1.409 . S
C1817 H1809 0.930 . S
C1817 C1815 1.419 . S
C1817 C1818 1.362 . S
C1818 H1810 0.930 . S
C1818 C1817 1.362 . S
C1818 C1821 1.409 . S
C1819 H1811 0.930 . S
C1819 C1820 1.355 . S
C1819 C1821 1.415 . S
C1820 C1819 1.355 . S
C1820 C1822 1.419 . S
C1821 C1816 1.425 . S
C1821 C1818 1.409 . S
C1821 C1819 1.415 . S
C1822 H1812 0.930 . S
C1822 C1820 1.419 . S
C1822 C1823 1.362 . S
C1823 H1813 0.930 . S
C1823 C1816 1.409 . S
C1823 C1822 1.362 . S
H1824 C1830 0.930 . S
H1825 C1833 0.930 . S
H1826 C1834 0.930 . S
H1827 C1835 0.930 . S
H1828 C1838 0.930 . S
H1829 C1839 0.930 . S
C1830 H1824 0.930 . S
C1830 C1831 1.355 . S
C1830 C1832 1.415 . S
C1831 C1830 1.355 . S
C1831 C1833 1.419 . S
C1832 C1830 1.415 . S
C1832 C1837 1.425 . S
C1832 C1839 1.409 . S
C1833 H1825 0.930 . S
C1833 C1831 1.419 . S
C1833 C1834 1.362 . S
C1834 H1826 0.930 . S
C1834 C1833 1.362 . S
C1834 C1837 1.409 . S
C1835 H1827 0.930 . S
C1835 C1836 1.355 . S
C1835 C1837 1.415 . S
C1836 C1835 1.355 . S
C1836 C1838 1.419 . S
C1837 C1832 1.425 . S
C1837 C1834 1.409 . S
C1837 C1835 1.415 . S
C1838 H1828 0.930 . S
C1838 C1836 1.419 . S
C1838 C1839 1.362 . S
C1839 H1829 0.930 . S
C1839 C1832 1.409 . S
C1839 C1838 1.362 . S
H1840 C1846 0.930 . S
H1841 C1849 0.930 . S
H1842 C1850 0.930 . S
H1843 C1851 0.930 . S
H1844 C1854 0.930 . S
H1845 C1855 0.930 . S
C1846 H1840 0.930 . S
C1846 C1847 1.355 . S
C1846 C1848 1.415 . S
C1847 C1846 1.355 . S
C1847 C1849 1.419 . S
C1848 C1846 1.415 . S
C1848 C1853 1.425 . S
C1848 C1855 1.409 . S
C1849 H1841 0.930 . S
C1849 C1847 1.419 . S
C1849 C1850 1.362 . S
C1850 H1842 0.930 . S
C1850 C1849 1.362 . S
C1850 C1853 1.409 . S
C1851 H1843 0.930 . S
C1851 C1852 1.355 . S
C1851 C1853 1.415 . S
C1852 C1851 1.355 . S
C1852 C1854 1.419 . S
C1853 C1848 1.425 . S
C1853 C1850 1.409 . S
C1853 C1851 1.415 . S
C1854 H1844 0.930 . S
C1854 C1852 1.419 . S
C1854 C1855 1.362 . S
C1855 H1845 0.930 . S
C1855 C1848 1.409 . S
C1855 C1854 1.362 . S
H1856 C1862 0.930 . S
H1857 C1865 0.930 . S
H1858 C1866 0.930 . S
H1859 C1867 0.930 . S
H1860 C1870 0.930 . S
H1861 C1871 0.930 . S
C1862 H1856 0.930 . S
C1862 C1863 1.355 . S
C1862 C1864 1.415 . S
C1863 C1862 1.355 . S
C1863 C1865 1.419 . S
C1864 C1862 1.415 . S
C1864 C1869 1.425 . S
C1864 C1871 1.409 . S
C1865 H1857 0.930 . S
C1865 C1863 1.419 . S
C1865 C1866 1.362 . S
C1866 H1858 0.930 . S
C1866 C1865 1.362 . S
C1866 C1869 1.409 . S
C1867 H1859 0.930 . S
C1867 C1868 1.355 . S
C1867 C1869 1.415 . S
C1868 C1867 1.355 . S
C1868 C1870 1.419 . S
C1869 C1864 1.425 . S
C1869 C1866 1.409 . S
C1869 C1867 1.415 . S
C1870 H1860 0.930 . S
C1870 C1868 1.419 . S
C1870 C1871 1.362 . S
C1871 H1861 0.930 . S
C1871 C1864 1.409 . S
C1871 C1870 1.362 . S
H1872 C1878 0.930 . S
H1873 C1881 0.930 . S
H1874 C1882 0.930 . S
H1875 C1883 0.930 . S
H1876 C1886 0.930 . S
H1877 C1887 0.930 . S
C1878 H1872 0.930 . S
C1878 C1879 1.355 . S
C1878 C1880 1.415 . S
C1879 C1878 1.355 . S
C1879 C1881 1.419 . S
C1880 C1878 1.415 . S
C1880 C1885 1.425 . S
C1880 C1887 1.409 . S
C1881 H1873 0.930 . S
C1881 C1879 1.419 . S
C1881 C1882 1.362 . S
C1882 H1874 0.930 . S
C1882 C1881 1.362 . S
C1882 C1885 1.409 . S
C1883 H1875 0.930 . S
C1883 C1884 1.355 . S
C1883 C1885 1.415 . S
C1884 C1883 1.355 . S
C1884 C1886 1.419 . S
C1885 C1880 1.425 . S
C1885 C1882 1.409 . S
C1885 C1883 1.415 . S
C1886 H1876 0.930 . S
C1886 C1884 1.419 . S
C1886 C1887 1.362 . S
C1887 H1877 0.930 . S
C1887 C1880 1.409 . S
C1887 C1886 1.362 . S
H1888 C1894 0.930 . S
H1889 C1897 0.930 . S
H1890 C1898 0.930 . S
H1891 C1899 0.930 . S
H1892 C1902 0.930 . S
H1893 C1903 0.930 . S
C1894 H1888 0.930 . S
C1894 C1895 1.355 . S
C1894 C1896 1.415 . S
C1895 C1894 1.355 . S
C1895 C1897 1.419 . S
C1896 C1894 1.415 . S
C1896 C1901 1.425 . S
C1896 C1903 1.409 . S
C1897 H1889 0.930 . S
C1897 C1895 1.419 . S
C1897 C1898 1.362 . S
C1898 H1890 0.930 . S
C1898 C1897 1.362 . S
C1898 C1901 1.409 . S
C1899 H1891 0.930 . S
C1899 C1900 1.355 . S
C1899 C1901 1.415 . S
C1900 C1899 1.355 . S
C1900 C1902 1.419 . S
C1901 C1896 1.425 . S
C1901 C1898 1.409 . S
C1901 C1899 1.415 . S
C1902 H1892 0.930 . S
C1902 C1900 1.419 . S
C1902 C1903 1.362 . S
C1903 H1893 0.930 . S
C1903 C1896 1.409 . S
C1903 C1902 1.362 . S
H1904 C1910 0.930 . S
H1905 C1913 0.930 . S
H1906 C1914 0.930 . S
H1907 C1915 0.930 . S
H1908 C1918 0.930 . S
H1909 C1919 0.930 . S
C1910 H1904 0.930 . S
C1910 C1911 1.355 . S
C1910 C1912 1.415 . S
C1911 C1910 1.355 . S
C1911 C1913 1.419 . S
C1912 C1910 1.415 . S
C1912 C1917 1.425 . S
C1912 C1919 1.409 . S
C1913 H1905 0.930 . S
C1913 C1911 1.419 . S
C1913 C1914 1.362 . S
C1914 H1906 0.930 . S
C1914 C1913 1.362 . S
C1914 C1917 1.409 . S
C1915 H1907 0.930 . S
C1915 C1916 1.355 . S
C1915 C1917 1.415 . S
C1916 C1915 1.355 . S
C1916 C1918 1.419 . S
C1917 C1912 1.425 . S
C1917 C1914 1.409 . S
C1917 C1915 1.415 . S
C1918 H1908 0.930 . S
C1918 C1916 1.419 . S
C1918 C1919 1.362 . S
C1919 H1909 0.930 . S
C1919 C1912 1.409 . S
C1919 C1918 1.362 . S
H1920 C1926 0.930 . S
H1921 C1929 0.930 . S
H1922 C1930 0.930 . S
H1923 C1931 0.930 . S
H1924 C1934 0.930 . S
H1925 C1935 0.930 . S
C1926 H1920 0.930 . S
C1926 C1927 1.355 . S
C1926 C1928 1.415 . S
C1927 C1926 1.355 . S
C1927 C1929 1.419 . S
C1928 C1926 1.415 . S
C1928 C1933 1.425 . S
C1928 C1935 1.409 . S
C1929 H1921 0.930 . S
C1929 C1927 1.419 . S
C1929 C1930 1.362 . S
C1930 H1922 0.930 . S
C1930 C1929 1.362 . S
C1930 C1933 1.409 . S
C1931 H1923 0.930 . S
C1931 C1932 1.355 . S
C1931 C1933 1.415 . S
C1932 C1931 1.355 . S
C1932 C1934 1.419 . S
C1933 C1928 1.425 . S
C1933 C1930 1.409 . S
C1933 C1931 1.415 . S
C1934 H1924 0.930 . S
C1934 C1932 1.419 . S
C1934 C1935 1.362 . S
C1935 H1925 0.930 . S
C1935 C1928 1.409 . S
C1935 C1934 1.362 . S
H1936 C1942 0.930 . S
H1937 C1945 0.930 . S
H1938 C1946 0.930 . S
H1939 C1947 0.930 . S
H1940 C1950 0.930 . S
H1941 C1951 0.930 . S
C1942 H1936 0.930 . S
C1942 C1943 1.355 . S
C1942 C1944 1.415 . S
C1943 C1942 1.355 . S
C1943 C1945 1.419 . S
C1944 C1942 1.415 . S
C1944 C1949 1.425 . S
C1944 C1951 1.409 . S
C1945 H1937 0.930 . S
C1945 C1943 1.419 . S
C1945 C1946 1.362 . S
C1946 H1938 0.930 . S
C1946 C1945 1.362 . S
C1946 C1949 1.409 . S
C1947 H1939 0.930 . S
C1947 C1948 1.355 . S
C1947 C1949 1.415 . S
C1948 C1947 1.355 . S
C1948 C1950 1.419 . S
C1949 C1944 1.425 . S
C1949 C1946 1.409 . S
C1949 C1947 1.415 . S
C1950 H1940 0.930 . S
C1950 C1948 1.419 . S
C1950 C1951 1.362 . S
C1951 H1941 0.930 . S
C1951 C1944 1.409 . S
C1951 C1950 1.362 . S
H1952 C1958 0.930 . S
H1953 C1961 0.930 . S
H1954 C1962 0.930 . S
H1955 C1963 0.930 . S
H1956 C1966 0.930 . S
H1957 C1967 0.930 . S
C1958 H1952 0.930 . S
C1958 C1959 1.355 . S
C1958 C1960 1.415 . S
C1959 C1958 1.355 . S
C1959 C1961 1.419 . S
C1960 C1958 1.415 . S
C1960 C1965 1.425 . S
C1960 C1967 1.409 . S
C1961 H1953 0.930 . S
C1961 C1959 1.419 . S
C1961 C1962 1.362 . S
C1962 H1954 0.930 . S
C1962 C1961 1.362 . S
C1962 C1965 1.409 . S
C1963 H1955 0.930 . S
C1963 C1964 1.355 . S
C1963 C1965 1.415 . S
C1964 C1963 1.355 . S
C1964 C1966 1.419 . S
C1965 C1960 1.425 . S
C1965 C1962 1.409 . S
C1965 C1963 1.415 . S
C1966 H1956 0.930 . S
C1966 C1964 1.419 . S
C1966 C1967 1.362 . S
C1967 H1957 0.930 . S
C1967 C1960 1.409 . S
C1967 C1966 1.362 . S
H1968 C1974 0.930 . S
H1969 C1977 0.930 . S
H1970 C1978 0.930 . S
H1971 C1979 0.930 . S
H1972 C1982 0.930 . S
H1973 C1983 0.930 . S
C1974 H1968 0.930 . S
C1974 C1975 1.355 . S
C1974 C1976 1.415 . S
C1975 C1974 1.355 . S
C1975 C1977 1.419 . S
C1976 C1974 1.415 . S
C1976 C1981 1.425 . S
C1976 C1983 1.409 . S
C1977 H1969 0.930 . S
C1977 C1975 1.419 . S
C1977 C1978 1.362 . S
C1978 H1970 0.930 . S
C1978 C1977 1.362 . S
C1978 C1981 1.409 . S
C1979 H1971 0.930 . S
C1979 C1980 1.355 . S
C1979 C1981 1.415 . S
C1980 C1979 1.355 . S
C1980 C1982 1.419 . S
C1981 C1976 1.425 . S
C1981 C1978 1.409 . S
C1981 C1979 1.415 . S
C1982 H1972 0.930 . S
C1982 C1980 1.419 . S
C1982 C1983 1.362 . S
C1983 H1973 0.930 . S
C1983 C1976 1.409 . S
C1983 C1982 1.362 . S
H1984 C1990 0.930 . S
H1985 C1993 0.930 . S
H1986 C1994 0.930 . S
H1987 C1995 0.930 . S
H1988 C1998 0.930 . S
H1989 C1999 0.930 . S
C1990 H1984 0.930 . S
C1990 C1991 1.355 . S
C1990 C1992 1.415 . S
C1991 C1990 1.355 . S
C1991 C1993 1.419 . S
C1992 C1990 1.415 . S
C1992 C1997 1.425 . S
C1992 C1999 1.409 . S
C1993 H1985 0.930 . S
C1993 C1991 1.419 . S
C1993 C1994 1.362 . S
C1994 H1986 0.930 . S
C1994 C1993 1.362 . S
C1994 C1997 1.409 . S
C1995 H1987 0.930 . S
C1995 C1996 1.355 . S
C1995 C1997 1.415 . S
C1996 C1995 1.355 . S
C1996 C1998 1.419 . S
C1997 C1992 1.425 . S
C1997 C1994 1.409 . S
C1997 C1995 1.415 . S
C1998 H1988 0.930 . S
C1998 C1996 1.419 . S
C1998 C1999 1.362 . S
C1999 H1989 0.930 . S
C1999 C1992 1.409 . S
C1999 C1998 1.362 . S
H2000 C2006 0.930 . S
H2001 C2009 0.930 . S
H2002 C2010 0.930 . S
H2003 C2011 0.930 . S
H2004 C2014 0.930 . S
H2005 C2015 0.930 . S
C2006 H2000 0.930 . S
C2006 C2007 1.355 . S
C2006 C2008 1.415 . S
C2007 C2006 1.355 . S
C2007 C2009 1.419 . S
C2008 C2006 1.415 . S
C2008 C2013 1.425 . S
C2008 C2015 1.409 . S
C2009 H2001 0.930 . S
C2009 C2007 1.419 . S
C2009 C2010 1.362 . S
C2010 H2002 0.930 . S
C2010 C2009 1.362 . S
C2010 C2013 1.409 . S
C2011 H2003 0.930 . S
C2011 C2012 1.355 . S
C2011 C2013 1.415 . S
C2012 C2011 1.355 . S
C2012 C2014 1.419 . S
C2013 C2008 1.425 . S
C2013 C2010 1.409 . S
C2013 C2011 1.415 . S
C2014 H2004 0.930 . S
C2014 C2012 1.419 . S
C2014 C2015 1.362 . S
C2015 H2005 0.930 . S
C2015 C2008 1.409 . S
C2015 C2014 1.362 . S
H2016 C2022 0.930 . S
H2017 C2025 0.930 . S
H2018 C2026 0.930 . S
H2019 C2027 0.930 . S
H2020 C2030 0.930 . S
H2021 C2031 0.930 . S
C2022 H2016 0.930 . S
C2022 C2023 1.355 . S
C2022 C2024 1.415 . S
C2023 C2022 1.355 . S
C2023 C2025 1.419 . S
C2024 C2022 1.415 . S
C2024 C2029 1.425 . S
C2024 C2031 1.409 . S
C2025 H2017 0.930 . S
C2025 C2023 1.419 . S
C2025 C2026 1.362 . S
C2026 H2018 0.930 . S
C2026 C2025 1.362 . S
C2026 C2029 1.409 . S
C2027 H2019 0.930 . S
C2027 C2028 1.355 . S
C2027 C2029 1.415 . S
C2028 C2027 1.355 . S
C2028 C2030 1.419 . S
C2029 C2024 1.425 . S
C2029 C2026 1.409 . S
C2029 C2027 1.415 . S
C2030 H2020 0.930 . S
C2030 C2028 1.419 . S
C2030 C2031 1.362 . S
C2031 H2021 0.930 . S
C2031 C2024 1.409 . S
C2031 C2030 1.362 . S
H2032 C2038 0.930 . S
H2033 C2041 0.930 . S
H2034 C2042 0.930 . S
H2035 C2043 0.930 . S
H2036 C2046 0.930 . S
H2037 C2047 0.930 . S
C2038 H2032 0.930 . S
C2038 C2039 1.355 . S
C2038 C2040 1.415 . S
C2039 C2038 1.355 . S
C2039 C2041 1.419 . S
C2040 C2038 1.415 . S
C2040 C2045 1.425 . S
C2040 C2047 1.409 . S
C2041 H2033 0.930 . S
C2041 C2039 1.419 . S
C2041 C2042 1.362 . S
C2042 H2034 0.930 . S
C2042 C2041 1.362 . S
C2042 C2045 1.409 . S
C2043 H2035 0.930 . S
C2043 C2044 1.355 . S
C2043 C2045 1.415 . S
C2044 C2043 1.355 . S
C2044 C2046 1.419 . S
C2045 C2040 1.425 . S
C2045 C2042 1.409 . S
C2045 C2043 1.415 . S
C2046 H2036 0.930 . S
C2046 C2044 1.419 . S
C2046 C2047 1.362 . S
C2047 H2037 0.930 . S
C2047 C2040 1.409 . S
C2047 C2046 1.362 . S
H2048 C2054 0.930 . S
H2049 C2057 0.930 . S
H2050 C2058 0.930 . S
H2051 C2059 0.930 . S
H2052 C2062 0.930 . S
H2053 C2063 0.930 . S
C2054 H2048 0.930 . S
C2054 C2055 1.355 . S
C2054 C2056 1.415 . S
C2055 C2054 1.355 . S
C2055 C2057 1.419 . S
C2056 C2054 1.415 . S
C2056 C2061 1.425 . S
C2056 C2063 1.409 . S
C2057 H2049 0.930 . S
C2057 C2055 1.419 . S
C2057 C2058 1.362 . S
C2058 H2050 0.930 . S
C2058 C2057 1.362 . S
C2058 C2061 1.409 . S
C2059 H2051 0.930 . S
C2059 C2060 1.355 . S
C2059 C2061 1.415 . S
C2060 C2059 1.355 . S
C2060 C2062 1.419 . S
C2061 C2056 1.425 . S
C2061 C2058 1.409 . S
C2061 C2059 1.415 . S
C2062 H2052 0.930 . S
C2062 C2060 1.419 . S
C2062 C2063 1.362 . S
C2063 H2053 0.930 . S
C2063 C2056 1.409 . S
C2063 C2062 1.362 . S
H2064 C2070 0.930 . S
H2065 C2073 0.930 . S
H2066 C2074 0.930 . S
H2067 C2075 0.930 . S
H2068 C2078 0.930 . S
H2069 C2079 0.930 . S
C2070 H2064 0.930 . S
C2070 C2071 1.355 . S
C2070 C2072 1.415 . S
C2071 C2070 1.355 . S
C2071 C2073 1.419 . S
C2072 C2070 1.415 . S
C2072 C2077 1.425 . S
C2072 C2079 1.409 . S
C2073 H2065 0.930 . S
C2073 C2071 1.419 . S
C2073 C2074 1.362 . S
C2074 H2066 0.930 . S
C2074 C2073 1.362 . S
C2074 C2077 1.409 . S
C2075 H2067 0.930 . S
C2075 C2076 1.355 . S
C2075 C2077 1.415 . S
C2076 C2075 1.355 . S
C2076 C2078 1.419 . S
C2077 C2072 1.425 . S
C2077 C2074 1.409 . S
C2077 C2075 1.415 . S
C2078 H2068 0.930 . S
C2078 C2076 1.419 . S
C2078 C2079 1.362 . S
C2079 H2069 0.930 . S
C2079 C2072 1.409 . S
C2079 C2078 1.362 . S
H2080 C2086 0.930 . S
H2081 C2089 0.930 . S
H2082 C2090 0.930 . S
H2083 C2091 0.930 . S
H2084 C2094 0.930 . S
H2085 C2095 0.930 . S
C2086 H2080 0.930 . S
C2086 C2087 1.355 . S
C2086 C2088 1.415 . S
C2087 C2086 1.355 . S
C2087 C2089 1.419 . S
C2088 C2086 1.415 . S
C2088 C2093 1.425 . S
C2088 C2095 1.409 . S
C2089 H2081 0.930 . S
C2089 C2087 1.419 . S
C2089 C2090 1.362 . S
C2090 H2082 0.930 . S
C2090 C2089 1.362 . S
C2090 C2093 1.409 . S
C2091 H2083 0.930 . S
C2091 C2092 1.355 . S
C2091 C2093 1.415 . S
C2092 C2091 1.355 . S
C2092 C2094 1.419 . S
C2093 C2088 1.425 . S
C2093 C2090 1.409 . S
C2093 C2091 1.415 . S
C2094 H2084 0.930 . S
C2094 C2092 1.419 . S
C2094 C2095 1.362 . S
C2095 H2085 0.930 . S
C2095 C2088 1.409 . S
C2095 C2094 1.362 . S
H2096 C2102 0.930 . S
H2097 C2105 0.930 . S
H2098 C2106 0.930 . S
H2099 C2107 0.930 . S
H2100 C2110 0.930 . S
H2101 C2111 0.930 . S
C2102 H2096 0.930 . S
C2102 C2103 1.355 . S
C2102 C2104 1.415 . S
C2103 C2102 1.355 . S
C2103 C2105 1.419 . S
C2104 C2102 1.415 . S
C2104 C2109 1.425 . S
C2104 C2111 1.409 . S
C2105 H2097 0.930 . S
C2105 C2103 1.419 . S
C2105 C2106 1.362 . S
C2106 H2098 0.930 . S
C2106 C2105 1.362 . S
C2106 C2109 1.409 . S
C2107 H2099 0.930 . S
C2107 C2108 1.355 . S
C2107 C2109 1.415 . S
C2108 C2107 1.355 . S
C2108 C2110 1.419 . S
C2109 C2104 1.425 . S
C2109 C2106 1.409 . S
C2109 C2107 1.415 . S
C2110 H2100 0.930 . S
C2110 C2108 1.419 . S
C2110 C2111 1.362 . S
C2111 H2101 0.930 . S
C2111 C2104 1.409 . S
C2111 C2110 1.362 . S
H2112 C2118 0.930 . S
H2113 C2121 0.930 . S
H2114 C2122 0.930 . S
H2115 C2123 0.930 . S
H2116 C2126 0.930 . S
H2117 C2127 0.930 . S
C2118 H2112 0.930 . S
C2118 C2119 1.355 . S
C2118 C2120 1.415 . S
C2119 C2118 1.355 . S
C2119 C2121 1.419 . S
C2120 C2118 1.415 . S
C2120 C2125 1.425 . S
C2120 C2127 1.409 . S
C2121 H2113 0.930 . S
C2121 C2119 1.419 . S
C2121 C2122 1.362 . S
C2122 H2114 0.930 . S
C2122 C2121 1.362 . S
C2122 C2125 1.409 . S
C2123 H2115 0.930 . S
C2123 C2124 1.355 . S
C2123 C2125 1.415 . S
C2124 C2123 1.355 . S
C2124 C2126 1.419 . S
C2125 C2120 1.425 . S
C2125 C2122 1.409 . S
C2125 C2123 1.415 . S
C2126 H2116 0.930 . S
C2126 C2124 1.419 . S
C2126 C2127 1.362 . S
C2127 H2117 0.930 . S
C2127 C2120 1.409 . S
C2127 C2126 1.362 . S
H2128 C2134 0.930 . S
H2129 C2137 0.930 . S
H2130 C2138 0.930 . S
H2131 C2139 0.930 . S
H2132 C2142 0.930 . S
H2133 C2143 0.930 . S
C2134 H2128 0.930 . S
C2134 C2135 1.355 . S
C2134 C2136 1.415 . S
C2135 C2134 1.355 . S
C2135 C2137 1.419 . S
C2136 C2134 1.415 . S
C2136 C2141 1.425 . S
C2136 C2143 1.409 . S
C2137 H2129 0.930 . S
C2137 C2135 1.419 . S
C2137 C2138 1.362 . S
C2138 H2130 0.930 . S
C2138 C2137 1.362 . S
C2138 C2141 1.409 . S
C2139 H2131 0.930 . S
C2139 C2140 1.355 . S
C2139 C2141 1.415 . S
C2140 C2139 1.355 . S
C2140 C2142 1.419 . S
C2141 C2136 1.425 . S
C2141 C2138 1.409 . S
C2141 C2139 1.415 . S
C2142 H2132 0.930 . S
C2142 C2140 1.419 . S
C2142 C2143 1.362 . S
C2143 H2133 0.930 . S
C2143 C2136 1.409 . S
C2143 C2142 1.362 . S
H2144 C2150 0.930 . S
H2145 C2153 0.930 . S
H2146 C2154 0.930 . S
H2147 C2155 0.930 . S
H2148 C2158 0.930 . S
H2149 C2159 0.930 . S
C2150 H2144 0.930 . S
C2150 C2151 1.355 . S
C2150 C2152 1.415 . S
C2151 C2150 1.355 . S
C2151 C2153 1.419 . S
C2152 C2150 1.415 . S
C2152 C2157 1.425 . S
C2152 C2159 1.409 . S
C2153 H2145 0.930 . S
C2153 C2151 1.419 . S
C2153 C2154 1.362 . S
C2154 H2146 0.930 . S
C2154 C2153 1.362 . S
C2154 C2157 1.409 . S
C2155 H2147 0.930 . S
C2155 C2156 1.355 . S
C2155 C2157 1.415 . S
C2156 C2155 1.355 . S
C2156 C2158 1.419 . S
C2157 C2152 1.425 . S
C2157 C2154 1.409 . S
C2157 C2155 1.415 . S
C2158 H2148 0.930 . S
C2158 C2156 1.419 . S
C2158 C2159 1.362 . S
C2159 H2149 0.930 . S
C2159 C2152 1.409 . S
C2159 C2158 1.362 . S
H2160 C2166 0.930 . S
H2161 C2169 0.930 . S
H2162 C2170 0.930 . S
H2163 C2171 0.930 . S
H2164 C2174 0.930 . S
H2165 C2175 0.930 . S
C2166 H2160 0.930 . S
C2166 C2167 1.355 . S
C2166 C2168 1.415 . S
C2167 C2166 1.355 . S
C2167 C2169 1.419 . S
C2168 C2166 1.415 . S
C2168 C2173 1.425 . S
C2168 C2175 1.409 . S
C2169 H2161 0.930 . S
C2169 C2167 1.419 . S
C2169 C2170 1.362 . S
C2170 H2162 0.930 . S
C2170 C2169 1.362 . S
C2170 C2173 1.409 . S
C2171 H2163 0.930 . S
C2171 C2172 1.355 . S
C2171 C2173 1.415 . S
C2172 C2171 1.355 . S
C2172 C2174 1.419 . S
C2173 C2168 1.425 . S
C2173 C2170 1.409 . S
C2173 C2171 1.415 . S
C2174 H2164 0.930 . S
C2174 C2172 1.419 . S
C2174 C2175 1.362 . S
C2175 H2165 0.930 . S
C2175 C2168 1.409 . S
C2175 C2174 1.362 . S
H2176 C2182 0.930 . S
H2177 C2185 0.930 . S
H2178 C2186 0.930 . S
H2179 C2187 0.930 . S
H2180 C2190 0.930 . S
H2181 C2191 0.930 . S
C2182 H2176 0.930 . S
C2182 C2183 1.355 . S
C2182 C2184 1.415 . S
C2183 C2182 1.355 . S
C2183 C2185 1.419 . S
C2184 C2182 1.415 . S
C2184 C2189 1.425 . S
C2184 C2191 1.409 . S
C2185 H2177 0.930 . S
C2185 C2183 1.419 . S
C2185 C2186 1.362 . S
C2186 H2178 0.930 . S
C2186 C2185 1.362 . S
C2186 C2189 1.409 . S
C2187 H2179 0.930 . S
C2187 C2188 1.355 . S
C2187 C2189 1.415 . S
C2188 C2187 1.355 . S
C2188 C2190 1.419 . S
C2189 C2184 1.425 . S
C2189 C2186 1.409 . S
C2189 C2187 1.415 . S
C2190 H2180 0.930 . S
C2190 C2188 1.419 . S
C2190 C2191 1.362 . S
C2191 H2181 0.930 . S
C2191 C2184 1.409 . S
C2191 C2190 1.362 . S
H2192 C2198 0.930 . S
H2193 C2201 0.930 . S
H2194 C2202 0.930 . S
H2195 C2203 0.930 . S
H2196 C2206 0.930 . S
H2197 C2207 0.930 . S
C2198 H2192 0.930 . S
C2198 C2199 1.355 . S
C2198 C2200 1.415 . S
C2199 C2198 1.355 . S
C2199 C2201 1.419 . S
C2200 C2198 1.415 . S
C2200 C2205 1.425 . S
C2200 C2207 1.409 . S
C2201 H2193 0.930 . S
C2201 C2199 1.419 . S
C2201 C2202 1.362 . S
C2202 H2194 0.930 . S
C2202 C2201 1.362 . S
C2202 C2205 1.409 . S
C2203 H2195 0.930 . S
C2203 C2204 1.355 . S
C2203 C2205 1.415 . S
C2204 C2203 1.355 . S
C2204 C2206 1.419 . S
C2205 C2200 1.425 . S
C2205 C2202 1.409 . S
C2205 C2203 1.415 . S
C2206 H2196 0.930 . S
C2206 C2204 1.419 . S
C2206 C2207 1.362 . S
C2207 H2197 0.930 . S
C2207 C2200 1.409 . S
C2207 C2206 1.362 . S
H2208 C2214 0.930 . S
H2209 C2217 0.930 . S
H2210 C2218 0.930 . S
H2211 C2219 0.930 . S
H2212 C2222 0.930 . S
H2213 C2223 0.930 . S
C2214 H2208 0.930 . S
C2214 C2215 1.355 . S
C2214 C2216 1.415 . S
C2215 C2214 1.355 . S
C2215 C2217 1.419 . S
C2216 C2214 1.415 . S
C2216 C2221 1.425 . S
C2216 C2223 1.409 . S
C2217 H2209 0.930 . S
C2217 C2215 1.419 . S
C2217 C2218 1.362 . S
C2218 H2210 0.930 . S
C2218 C2217 1.362 . S
C2218 C2221 1.409 . S
C2219 H2211 0.930 . S
C2219 C2220 1.355 . S
C2219 C2221 1.415 . S
C2220 C2219 1.355 . S
C2220 C2222 1.419 . S
C2221 C2216 1.425 . S
C2221 C2218 1.409 . S
C2221 C2219 1.415 . S
C2222 H2212 0.930 . S
C2222 C2220 1.419 . S
C2222 C2223 1.362 . S
C2223 H2213 0.930 . S
C2223 C2216 1.409 . S
C2223 C2222 1.362 . S
H2224 C2230 0.930 . S
H2225 C2233 0.930 . S
H2226 C2234 0.930 . S
H2227 C2235 0.930 . S
H2228 C2238 0.930 . S
H2229 C2239 0.930 . S
C2230 H2224 0.930 . S
C2230 C2231 1.355 . S
C2230 C2232 1.415 . S
C2231 C2230 1.355 . S
C2231 C2233 1.419 . S
C2232 C2230 1.415 . S
C2232 C2237 1.425 . S
C2232 C2239 1.409 . S
C2233 H2225 0.930 . S
C2233 C2231 1.419 . S
C2233 C2234 1.362 . S
C2234 H2226 0.930 . S
C2234 C2233 1.362 . S
C2234 C2237 1.409 . S
C2235 H2227 0.930 . S
C2235 C2236 1.355 . S
C2235 C2237 1.415 . S
C2236 C2235 1.355 . S
C2236 C2238 1.419 . S
C2237 C2232 1.425 . S
C2237 C2234 1.409 . S
C2237 C2235 1.415 . S
C2238 H2228 0.930 . S
C2238 C2236 1.419 . S
C2238 C2239 1.362 . S
C2239 H2229 0.930 . S
C2239 C2232 1.409 . S
C2239 C2238 1.362 . S
H2240 C2246 0.930 . S
H2241 C2249 0.930 . S
H2242 C2250 0.930 . S
H2243 C2251 0.930 . S
H2244 C2254 0.930 . S
H2245 C2255 0.930 . S
C2246 H2240 0.930 . S
C2246 C2247 1.355 . S
C2246 C2248 1.415 . S
C2247 C2246 1.355 . S
C2247 C2249 1.419 . S
C2248 C2246 1.415 . S
C2248 C2253 1.425 . S
C2248 C2255 1.409 . S
C2249 H2241 0.930 . S
C2249 C2247 1.419 . S
C2249 C2250 1.362 . S
C2250 H2242 0.930 . S
C2250 C2249 1.362 . S
C2250 C2253 1.409 . S
C2251 H2243 0.930 . S
C2251 C2252 1.355 . S
C2251 C2253 1.415 . S
C2252 C2251 1.355 . S
C2252 C2254 1.419 . S
C2253 C2248 1.425 . S
C2253 C2250 1.409 . S
C2253 C2251 1.415 . S
C2254 H2244 0.930 . S
C2254 C2252 1.419 . S
C2254 C2255 1.362 . S
C2255 H2245 0.930 . S
C2255 C2248 1.409 . S
C2255 C2254 1.362 . S
H2256 C2262 0.930 . S
H2257 C2265 0.930 . S
H2258 C2266 0.930 . S
H2259 C2267 0.930 . S
H2260 C2270 0.930 . S
H2261 C2271 0.930 . S
C2262 H2256 0.930 . S
C2262 C2263 1.355 . S
C2262 C2264 1.415 . S
C2263 C2262 1.355 . S
C2263 C2265 1.419 . S
C2264 C2262 1.415 . S
C2264 C2269 1.425 . S
C2264 C2271 1.409 . S
C2265 H2257 0.930 . S
C2265 C2263 1.419 . S
C2265 C2266 1.362 . S
C2266 H2258 0.930 . S
C2266 C2265 1.362 . S
C2266 C2269 1.409 . S
C2267 H2259 0.930 . S
C2267 C2268 1.355 . S
C2267 C2269 1.415 . S
C2268 C2267 1.355 . S
C2268 C2270 1.419 . S
C2269 C2264 1.425 . S
C2269 C2266 1.409 . S
C2269 C2267 1.415 . S
C2270 H2260 0.930 . S
C2270 C2268 1.419 . S
C2270 C2271 1.362 . S
C2271 H2261 0.930 . S
C2271 C2264 1.409 . S
C2271 C2270 1.362 . S
H2272 C2278 0.930 . S
H2273 C2281 0.930 . S
H2274 C2282 0.930 . S
H2275 C2283 0.930 . S
H2276 C2286 0.930 . S
H2277 C2287 0.930 . S
C2278 H2272 0.930 . S
C2278 C2279 1.355 . S
C2278 C2280 1.415 . S
C2279 C2278 1.355 . S
C2279 C2281 1.419 . S
C2280 C2278 1.415 . S
C2280 C2285 1.425 . S
C2280 C2287 1.409 . S
C2281 H2273 0.930 . S
C2281 C2279 1.419 . S
C2281 C2282 1.362 . S
C2282 H2274 0.930 . S
C2282 C2281 1.362 . S
C2282 C2285 1.409 . S
C2283 H2275 0.930 . S
C2283 C2284 1.355 . S
C2283 C2285 1.415 . S
C2284 C2283 1.355 . S
C2284 C2286 1.419 . S
C2285 C2280 1.425 . S
C2285 C2282 1.409 . S
C2285 C2283 1.415 . S
C2286 H2276 0.930 . S
C2286 C2284 1.419 . S
C2286 C2287 1.362 . S
C2287 H2277 0.930 . S
C2287 C2280 1.409 . S
C2287 C2286 1.362 . S
H2288 C2294 0.930 . S
H2289 C2297 0.930 . S
H2290 C2298 0.930 . S
H2291 C2299 0.930 . S
H2292 C2302 0.930 . S
H2293 C2303 0.930 . S
C2294 H2288 0.930 . S
C2294 C2295 1.355 . S
C2294 C2296 1.415 . S
C2295 C2294 1.355 . S
C2295 C2297 1.419 . S
C2296 C2294 1.415 . S
C2296 C2301 1.425 . S
C2296 C2303 1.409 . S
C2297 H2289 0.930 . S
C2297 C2295 1.419 . S
C2297 C2298 1.362 . S
C2298 H2290 0.930 . S
C2298 C2297 1.362 . S
C2298 C2301 1.409 . S
C2299 H2291 0.930 . S
C2299 C2300 1.355 . S
C2299 C2301 1.415 . S
C2300 C2299 1.355 . S
C2300 C2302 1.419 . S
C2301 C2296 1.425 . S
C2301 C2298 1.409 . S
C2301 C2299 1.415 . S
C2302 H2292 0.930 . S
C2302 C2300 1.419 . S
C2302 C2303 1.362 . S
C2303 H2293 0.930 . S
C2303 C2296 1.409 . S
C2303 C2302 1.362 . S
H2304 C2310 0.930 . S
H2305 C2313 0.930 . S
H2306 C2314 0.930 . S
H2307 C2315 0.930 . S
H2308 C2318 0.930 . S
H2309 C2319 0.930 . S
C2310 H2304 0.930 . S
C2310 C2311 1.355 . S
C2310 C2312 1.415 . S
C2311 C2310 1.355 . S
C2311 C2313 1.419 . S
C2312 C2310 1.415 . S
C2312 C2317 1.425 . S
C2312 C2319 1.409 . S
C2313 H2305 0.930 . S
C2313 C2311 1.419 . S
C2313 C2314 1.362 . S
C2314 H2306 0.930 . S
C2314 C2313 1.362 . S
C2314 C2317 1.409 . S
C2315 H2307 0.930 . S
C2315 C2316 1.355 . S
C2315 C2317 1.415 . S
C2316 C2315 1.355 . S
C2316 C2318 1.419 . S
C2317 C2312 1.425 . S
C2317 C2314 1.409 . S
C2317 C2315 1.415 . S
C2318 H2308 0.930 . S
C2318 C2316 1.419 . S
C2318 C2319 1.362 . S
C2319 H2309 0.930 . S
C2319 C2312 1.409 . S
C2319 C2318 1.362 . S
H2320 C2326 0.930 . S
H2321 C2329 0.930 . S
H2322 C2330 0.930 . S
H2323 C2331 0.930 . S
H2324 C2334 0.930 . S
H2325 C2335 0.930 . S
C2326 H2320 0.930 . S
C2326 C2327 1.355 . S
C2326 C2328 1.415 . S
C2327 C2326 1.355 . S
C2327 C2329 1.419 . S
C2328 C2326 1.415 . S
C2328 C2333 1.425 . S
C2328 C2335 1.409 . S
C2329 H2321 0.930 . S
C2329 C2327 1.419 . S
C2329 C2330 1.362 . S
C2330 H2322 0.930 . S
C2330 C2329 1.362 . S
C2330 C2333 1.409 . S
C2331 H2323 0.930 . S
C2331 C2332 1.355 . S
C2331 C2333 1.415 . S
C2332 C2331 1.355 . S
C2332 C2334 1.419 . S
C2333 C2328 1.425 . S
C2333 C2330 1.409 . S
C2333 C2331 1.415 . S
C2334 H2324 0.930 . S
C2334 C2332 1.419 . S
C2334 C2335 1.362 . S
C2335 H2325 0.930 . S
C2335 C2328 1.409 . S
C2335 C2334 1.362 . S
H2336 C2342 0.930 . S
H2337 C2345 0.930 . S
H2338 C2346 0.930 . S
H2339 C2347 0.930 . S
H2340 C2350 0.930 . S
H2341 C2351 0.930 . S
C2342 H2336 0.930 . S
C2342 C2343 1.355 . S
C2342 C2344 1.415 . S
C2343 C2342 1.355 . S
C2343 C2345 1.419 . S
C2344 C2342 1.415 . S
C2344 C2349 1.425 . S
C2344 C2351 1.409 . S
C2345 H2337 0.930 . S
C2345 C2343 1.419 . S
C2345 C2346 1.362 . S
C2346 H2338 0.930 . S
C2346 C2345 1.362 . S
C2346 C2349 1.409 . S
C2347 H2339 0.930 . S
C2347 C2348 1.355 . S
C2347 C2349 1.415 . S
C2348 C2347 1.355 . S
C2348 C2350 1.419 . S
C2349 C2344 1.425 . S
C2349 C2346 1.409 . S
C2349 C2347 1.415 . S
C2350 H2340 0.930 . S
C2350 C2348 1.419 . S
C2350 C2351 1.362 . S
C2351 H2341 0.930 . S
C2351 C2344 1.409 . S
C2351 C2350 1.362 . S
H2352 C2358 0.930 . S
H2353 C2361 0.930 . S
H2354 C2362 0.930 . S
H2355 C2363 0.930 . S
H2356 C2366 0.930 . S
H2357 C2367 0.930 . S
C2358 H2352 0.930 . S
C2358 C2359 1.355 . S
C2358 C2360 1.415 . S
C2359 C2358 1.355 . S
C2359 C2361 1.419 . S
C2360 C2358 1.415 . S
C2360 C2365 1.425 . S
C2360 C2367 1.409 . S
C2361 H2353 0.930 . S
C2361 C2359 1.419 . S
C2361 C2362 1.362 . S
C2362 H2354 0.930 . S
C2362 C2361 1.362 . S
C2362 C2365 1.409 . S
C2363 H2355 0.930 . S
C2363 C2364 1.355 . S
C2363 C2365 1.415 . S
C2364 C2363 1.355 . S
C2364 C2366 1.419 . S
C2365 C2360 1.425 . S
C2365 C2362 1.409 . S
C2365 C2363 1.415 . S
C2366 H2356 0.930 . S
C2366 C2364 1.419 . S
C2366 C2367 1.362 . S
C2367 H2357 0.930 . S
C2367 C2360 1.409 . S
C2367 C2366 1.362 . S
H2368 C2374 0.930 . S
H2369 C2377 0.930 . S
H2370 C2378 0.930 . S
H2371 C2379 0.930 . S
H2372 C2382 0.930 . S
H2373 C2383 0.930 . S
C2374 H2368 0.930 . S
C2374 C2375 1.355 . S
C2374 C2376 1.415 . S
C2375 C2374 1.355 . S
C2375 C2377 1.419 . S
C2376 C2374 1.415 . S
C2376 C2381 1.425 . S
C2376 C2383 1.409 . S
C2377 H2369 0.930 . S
C2377 C2375 1.419 . S
C2377 C2378 1.362 . S
C2378 H2370 0.930 . S
C2378 C2377 1.362 . S
C2378 C2381 1.409 . S
C2379 H2371 0.930 . S
C2379 C2380 1.355 . S
C2379 C2381 1.415 . S
C2380 C2379 1.355 . S
C2380 C2382 1.419 . S
C2381 C2376 1.425 . S
C2381 C2378 1.409 . S
C2381 C2379 1.415 . S
C2382 H2372 0.930 . S
C2382 C2380 1.419 . S
C2382 C2383 1.362 . S
C2383 H2373 0.930 . S
C2383 C2376 1.409 . S
C2383 C2382 1.362 . S
H2384 C2390 0.930 . S
H2385 C2393 0.930 . S
H2386 C2394 0.930 . S
H2387 C2395 0.930 . S
H2388 C2398 0.930 . S
H2389 C2399 0.930 . S
C2390 H2384 0.930 . S
C2390 C2391 1.355 . S
C2390 C2392 1.415 . S
C2391 C2390 1.355 . S
C2391 C2393 1.419 . S
C2392 C2390 1.415 . S
C2392 C2397 1.425 . S
C2392 C2399 1.409 . S
C2393 H2385 0.930 . S
C2393 C2391 1.419 . S
C2393 C2394 1.362 . S
C2394 H2386 0.930 . S
C2394 C2393 1.362 . S
C2394 C2397 1.409 . S
C2395 H2387 0.930 . S
C2395 C2396 1.355 . S
C2395 C2397 1.415 . S
C2396 C2395 1.355 . S
C2396 C2398 1.419 . S
C2397 C2392 1.425 . S
C2397 C2394 1.409 . S
C2397 C2395 1.415 . S
C2398 H2388 0.930 . S
C2398 C2396 1.419 . S
C2398 C2399 1.362 . S
C2399 H2389 0.930 . S
C2399 C2392 1.409 . S
C2399 C2398 1.362 . S
H2400 C2406 0.930 . S
H2401 C2409 0.930 . S
H2402 C2410 0.930 . S
H2403 C2411 0.930 . S
H2404 C2414 0.930 . S
H2405 C2415 0.930 . S
C2406 H2400 0.930 . S
C2406 C2407 1.355 . S
C2406 C2408 1.415 . S
C2407 C2406 1.355 . S
C2407 C2409 1.419 . S
C2408 C2406 1.415 . S
C2408 C2413 1.425 . S
C2408 C2415 1.409 . S
C2409 H2401 0.930 . S
C2409 C2407 1.419 . S
C2409 C2410 1.362 . S
C2410 H2402 0.930 . S
C2410 C2409 1.362 . S
C2410 C2413 1.409 . S
C2411 H2403 0.930 . S
C2411 C2412 1.355 . S
C2411 C2413 1.415 . S
C2412 C2411 1.355 . S
C2412 C2414 1.419 . S
C2413 C2408 1.425 . S
C2413 C2410 1.409 . S
C2413 C2411 1.415 . S
C2414 H2404 0.930 . S
C2414 C2412 1.419 . S
C2414 C2415 1.362 . S
C2415 H2405 0.930 . S
C2415 C2408 1.409 . S
C2415 C2414 1.362 . S
H2416 C2422 0.930 . S
H2417 C2425 0.930 . S
H2418 C2426 0.930 . S
H2419 C2427 0.930 . S
H2420 C2430 0.930 . S
H2421 C2431 0.930 . S
C2422 H2416 0.930 . S
C2422 C2423 1.355 . S
C2422 C2424 1.415 . S
C2423 C2422 1.355 . S
C2423 C2425 1.419 . S
C2424 C2422 1.415 . S
C2424 C2429 1.425 . S
C2424 C2431 1.409 . S
C2425 H2417 0.930 . S
C2425 C2423 1.419 . S
C2425 C2426 1.362 . S
C2426 H2418 0.930 . S
C2426 C2425 1.362 . S
C2426 C2429 1.409 . S
C2427 H2419 0.930 . S
C2427 C2428 1.355 . S
C2427 C2429 1.415 . S
C2428 C2427 1.355 . S
C2428 C2430 1.419 . S
C2429 C2424 1.425 . S
C2429 C2426 1.409 . S
C2429 C2427 1.415 . S
C2430 H2420 0.930 . S
C2430 C2428 1.419 . S
C2430 C2431 1.362 . S
C2431 H2421 0.930 . S
C2431 C2424 1.409 . S
C2431 C2430 1.362 . S
H2432 C2438 0.930 . S
H2433 C2441 0.930 . S
H2434 C2442 0.930 . S
H2435 C2443 0.930 . S
H2436 C2446 0.930 . S
H2437 C2447 0.930 . S
C2438 H2432 0.930 . S
C2438 C2439 1.355 . S
C2438 C2440 1.415 . S
C2439 C2438 1.355 . S
C2439 C2441 1.419 . S
C2440 C2438 1.415 . S
C2440 C2445 1.425 . S
C2440 C2447 1.409 . S
C2441 H2433 0.930 . S
C2441 C2439 1.419 . S
C2441 C2442 1.362 . S
C2442 H2434 0.930 . S
C2442 C2441 1.362 . S
C2442 C2445 1.409 . S
C2443 H2435 0.930 . S
C2443 C2444 1.355 . S
C2443 C2445 1.415 . S
C2444 C2443 1.355 . S
C2444 C2446 1.419 . S
C2445 C2440 1.425 . S
C2445 C2442 1.409 . S
C2445 C2443 1.415 . S
C2446 H2436 0.930 . S
C2446 C2444 1.419 . S
C2446 C2447 1.362 . S
C2447 H2437 0.930 . S
C2447 C2440 1.409 . S
C2447 C2446 1.362 . S
H2448 C2454 0.930 . S
H2449 C2457 0.930 . S
H2450 C2458 0.930 . S
H2451 C2459 0.930 . S
H2452 C2462 0.930 . S
H2453 C2463 0.930 . S
C2454 H2448 0.930 . S
C2454 C2455 1.355 . S
C2454 C2456 1.415 . S
C2455 C2454 1.355 . S
C2455 C2457 1.419 . S
C2456 C2454 1.415 . S
C2456 C2461 1.425 . S
C2456 C2463 1.409 . S
C2457 H2449 0.930 . S
C2457 C2455 1.419 . S
C2457 C2458 1.362 . S
C2458 H2450 0.930 . S
C2458 C2457 1.362 . S
C2458 C2461 1.409 . S
C2459 H2451 0.930 . S
C2459 C2460 1.355 . S
C2459 C2461 1.415 . S
C2460 C2459 1.355 . S
C2460 C2462 1.419 . S
C2461 C2456 1.425 . S
C2461 C2458 1.409 . S
C2461 C2459 1.415 . S
C2462 H2452 0.930 . S
C2462 C2460 1.419 . S
C2462 C2463 1.362 . S
C2463 H2453 0.930 . S
C2463 C2456 1.409 . S
C2463 C2462 1.362 . S
H2464 C2470 0.930 . S
H2465 C2473 0.930 . S
H2466 C2474 0.930 . S
H2467 C2475 0.930 . S
H2468 C2478 0.930 . S
H2469 C2479 0.930 . S
C2470 H2464 0.930 . S
C2470 C2471 1.355 . S
C2470 C2472 1.415 . S
C2471 C2470 1.355 . S
C2471 C2473 1.419 . S
C2472 C2470 1.415 . S
C2472 C2477 1.425 . S
C2472 C2479 1.409 . S
C2473 H2465 0.930 . S
C2473 C2471 1.419 . S
C2473 C2474 1.362 . S
C2474 H2466 0.930 . S
C2474 C2473 1.362 . S
C2474 C2477 1.409 . S
C2475 H2467 0.930 . S
C2475 C2476 1.355 . S
C2475 C2477 1.415 . S
C2476 C2475 1.355 . S
C2476 C2478 1.419 . S
C2477 C2472 1.425 . S
C2477 C2474 1.409 . S
C2477 C2475 1.415 . S
C2478 H2468 0.930 . S
C2478 C2476 1.419 . S
C2478 C2479 1.362 . S
C2479 H2469 0.930 . S
C2479 C2472 1.409 . S
C2479 C2478 1.362 . S
H2480 C2486 0.930 . S
H2481 C2489 0.930 . S
H2482 C2490 0.930 . S
H2483 C2491 0.930 . S
H2484 C2494 0.930 . S
H2485 C2495 0.930 . S
C2486 H2480 0.930 . S
C2486 C2487 1.355 . S
C2486 C2488 1.415 . S
C2487 C2486 1.355 . S
C2487 C2489 1.419 . S
C2488 C2486 1.415 . S
C2488 C2493 1.425 . S
C2488 C2495 1.409 . S
C2489 H2481 0.930 . S
C2489 C2487 1.419 . S
C2489 C2490 1.362 . S
C2490 H2482 0.930 . S
C2490 C2489 1.362 . S
C2490 C2493 1.409 . S
C2491 H2483 0.930 . S
C2491 C2492 1.355 . S
C2491 C2493 1.415 . S
C2492 C2491 1.355 . S
C2492 C2494 1.419 . S
C2493 C2488 1.425 . S
C2493 C2490 1.409 . S
C2493 C2491 1.415 . S
C2494 H2484 0.930 . S
C2494 C2492 1.419 . S
C2494 C2495 1.362 . S
C2495 H2485 0.930 . S
C2495 C2488 1.409 . S
C2495 C2494 1.362 . S
H2496 C2502 0.930 . S
H2497 C2505 0.930 . S
H2498 C2506 0.930 . S
H2499 C2507 0.930 . S
H2500 C2510 0.930 . S
H2501 C2511 0.930 . S
C2502 H2496 0.930 . S
C2502 C2503 1.355 . S
C2502 C2504 1.415 . S
C2503 C2502 1.355 . S
C2503 C2505 1.419 . S
C2504 C2502 1.415 . S
C2504 C2509 1.425 . S
C2504 C2511 1.409 . S
C2505 H2497 0.930 . S
C2505 C2503 1.419 . S
C2505 C2506 1.362 . S
C2506 H2498 0.930 . S
C2506 C2505 1.362 . S
C2506 C2509 1.409 . S
C2507 H2499 0.930 . S
C2507 C2508 1.355 . S
C2507 C2509 1.415 . S
C2508 C2507 1.355 . S
C2508 C2510 1.419 . S
C2509 C2504 1.425 . S
C2509 C2506 1.409 . S
C2509 C2507 1.415 . S
C2510 H2500 0.930 . S
C2510 C2508 1.419 . S
C2510 C2511 1.362 . S
C2511 H2501 0.930 . S
C2511 C2504 1.409 . S
C2511 C2510 1.362 . S
H2512 C2518 0.930 . S
H2513 C2521 0.930 . S
H2514 C2522 0.930 . S
H2515 C2523 0.930 . S
H2516 C2526 0.930 . S
H2517 C2527 0.930 . S
C2518 H2512 0.930 . S
C2518 C2519 1.355 . S
C2518 C2520 1.415 . S
C2519 C2518 1.355 . S
C2519 C2521 1.419 . S
C2520 C2518 1.415 . S
C2520 C2525 1.425 . S
C2520 C2527 1.409 . S
C2521 H2513 0.930 . S
C2521 C2519 1.419 . S
C2521 C2522 1.362 . S
C2522 H2514 0.930 . S
C2522 C2521 1.362 . S
C2522 C2525 1.409 . S
C2523 H2515 0.930 . S
C2523 C2524 1.355 . S
C2523 C2525 1.415 . S
C2524 C2523 1.355 . S
C2524 C2526 1.419 . S
C2525 C2520 1.425 . S
C2525 C2522 1.409 . S
C2525 C2523 1.415 . S
C2526 H2516 0.930 . S
C2526 C2524 1.419 . S
C2526 C2527 1.362 . S
C2527 H2517 0.930 . S
C2527 C2520 1.409 . S
C2527 C2526 1.362 . S
H2528 C2534 0.930 . S
H2529 C2537 0.930 . S
H2530 C2538 0.930 . S
H2531 C2539 0.930 . S
H2532 C2542 0.930 . S
H2533 C2543 0.930 . S
C2534 H2528 0.930 . S
C2534 C2535 1.355 . S
C2534 C2536 1.415 . S
C2535 C2534 1.355 . S
C2535 C2537 1.419 . S
C2536 C2534 1.415 . S
C2536 C2541 1.425 . S
C2536 C2543 1.409 . S
C2537 H2529 0.930 . S
C2537 C2535 1.419 . S
C2537 C2538 1.362 . S
C2538 H2530 0.930 . S
C2538 C2537 1.362 . S
C2538 C2541 1.409 . S
C2539 H2531 0.930 . S
C2539 C2540 1.355 . S
C2539 C2541 1.415 . S
C2540 C2539 1.355 . S
C2540 C2542 1.419 . S
C2541 C2536 1.425 . S
C2541 C2538 1.409 . S
C2541 C2539 1.415 . S
C2542 H2532 0.930 . S
C2542 C2540 1.419 . S
C2542 C2543 1.362 . S
C2543 H2533 0.930 . S
C2543 C2536 1.409 . S
C2543 C2542 1.362 . S
H2544 C2550 0.930 . S
H2545 C2553 0.930 . S
H2546 C2554 0.930 . S
H2547 C2555 0.930 . S
H2548 C2558 0.930 . S
H2549 C2559 0.930 . S
C2550 H2544 0.930 . S
C2550 C2551 1.355 . S
C2550 C2552 1.415 . S
C2551 C2550 1.355 . S
C2551 C2553 1.419 . S
C2552 C2550 1.415 . S
C2552 C2557 1.425 . S
C2552 C2559 1.409 . S
C2553 H2545 0.930 . S
C2553 C2551 1.419 . S
C2553 C2554 1.362 . S
C2554 H2546 0.930 . S
C2554 C2553 1.362 . S
C2554 C2557 1.409 . S
C2555 H2547 0.930 . S
C2555 C2556 1.355 . S
C2555 C2557 1.415 . S
C2556 C2555 1.355 . S
C2556 C2558 1.419 . S
C2557 C2552 1.425 . S
C2557 C2554 1.409 . S
C2557 C2555 1.415 . S
C2558 H2548 0.930 . S
C2558 C2556 1.419 . S
C2558 C2559 1.362 . S
C2559 H2549 0.930 . S
C2559 C2552 1.409 . S
C2559 C2558 1.362 . S
H2560 C2566 0.930 . S
H2561 C2569 0.930 . S
H2562 C2570 0.930 . S
H2563 C2571 0.930 . S
H2564 C2574 0.930 . S
H2565 C2575 0.930 . S
C2566 H2560 0.930 . S
C2566 C2567 1.355 . S
C2566 C2568 1.415 . S
C2567 C2566 1.355 . S
C2567 C2569 1.419 . S
C2568 C2566 1.415 . S
C2568 C2573 1.425 . S
C2568 C2575 1.409 . S
C2569 H2561 0.930 . S
C2569 C2567 1.419 . S
C2569 C2570 1.362 . S
C2570 H2562 0.930 . S
C2570 C2569 1.362 . S
C2570 C2573 1.409 . S
C2571 H2563 0.930 . S
C2571 C2572 1.355 . S
C2571 C2573 1.415 . S
C2572 C2571 1.355 . S
C2572 C2574 1.419 . S
C2573 C2568 1.425 . S
C2573 C2570 1.409 . S
C2573 C2571 1.415 . S
C2574 H2564 0.930 . S
C2574 C2572 1.419 . S
C2574 C2575 1.362 . S
C2575 H2565 0.930 . S
C2575 C2568 1.409 . S
C2575 C2574 1.362 . S
H2576 C2582 0.930 . S
H2577 C2585 0.930 . S
H2578 C2586 0.930 . S
H2579 C2587 0.930 . S
H2580 C2590 0.930 . S
H2581 C2591 0.930 . S
C2582 H2576 0.930 . S
C2582 C2583 1.355 . S
C2582 C2584 1.415 . S
C2583 C2582 1.355 . S
C2583 C2585 1.419 . S
C2584 C2582 1.415 . S
C2584 C2589 1.425 . S
C2584 C2591 1.409 . S
C2585 H2577 0.930 . S
C2585 C2583 1.419 . S
C2585 C2586 1.362 . S
C2586 H2578 0.930 . S
C2586 C2585 1.362 . S
C2586 C2589 1.409 . S
C2587 H2579 0.930 . S
C2587 C2588 1.355 . S
C2587 C2589 1.415 . S
C2588 C2587 1.355 . S
C2588 C2590 1.419 . S
C2589 C2584 1.425 . S
C2589 C2586 1.409 . S
C2589 C2587 1.415 . S
C2590 H2580 0.930 . S
C2590 C2588 1.419 . S
C2590 C2591 1.362 . S
C2591 H2581 0.930 . S
C2591 C2584 1.409 . S
C2591 C2590 1.362 . S
H2592 C2598 0.930 . S
H2593 C2601 0.930 . S
H2594 C2602 0.930 . S
H2595 C2603 0.930 . S
H2596 C2606 0.930 . S
H2597 C2607 0.930 . S
C2598 H2592 0.930 . S
C2598 C2599 1.355 . S
C2598 C2600 1.415 . S
C2599 C2598 1.355 . S
C2599 C2601 1.419 . S
C2600 C2598 1.415 . S
C2600 C2605 1.425 . S
C2600 C2607 1.409 . S
C2601 H2593 0.930 . S
C2601 C2599 1.419 . S
C2601 C2602 1.362 . S
C2602 H2594 0.930 . S
C2602 C2601 1.362 . S
C2602 C2605 1.409 . S
C2603 H2595 0.930 . S
C2603 C2604 1.355 . S
C2603 C2605 1.415 . S
C2604 C2603 1.355 . S
C2604 C2606 1.419 . S
C2605 C2600 1.425 . S
C2605 C2602 1.409 . S
C2605 C2603 1.415 . S
C2606 H2596 0.930 . S
C2606 C2604 1.419 . S
C2606 C2607 1.362 . S
C2607 H2597 0.930 . S
C2607 C2600 1.409 . S
C2607 C2606 1.362 . S
H2608 C2614 0.930 . S
H2609 C2617 0.930 . S
H2610 C2618 0.930 . S
H2611 C2619 0.930 . S
H2612 C2622 0.930 . S
H2613 C2623 0.930 . S
C2614 H2608 0.930 . S
C2614 C2615 1.355 . S
C2614 C2616 1.415 . S
C2615 C2614 1.355 . S
C2615 C2617 1.419 . S
C2616 C2614 1.415 . S
C2616 C2621 1.425 . S
C2616 C2623 1.409 . S
C2617 H2609 0.930 . S
C2617 C2615 1.419 . S
C2617 C2618 1.362 . S
C2618 H2610 0.930 . S
C2618 C2617 1.362 . S
C2618 C2621 1.409 . S
C2619 H2611 0.930 . S
C2619 C2620 1.355 . S
C2619 C2621 1.415 . S
C2620 C2619 1.355 . S
C2620 C2622 1.419 . S
C2621 C2616 1.425 . S
C2621 C2618 1.409 . S
C2621 C2619 1.415 . S
C2622 H2612 0.930 . S
C2622 C2620 1.419 . S
C2622 C2623 1.362 . S
C2623 H2613 0.930 . S
C2623 C2616 1.409 . S
C2623 C2622 1.362 . S
H2624 C2630 0.930 . S
H2625 C2633 0.930 . S
H2626 C2634 0.930 . S
H2627 C2635 0.930 . S
H2628 C2638 0.930 . S
H2629 C2639 0.930 . S
C2630 H2624 0.930 . S
C2630 C2631 1.355 . S
C2630 C2632 1.415 . S
C2631 C2630 1.355 . S
C2631 C2633 1.419 . S
C2632 C2630 1.415 . S
C2632 C2637 1.425 . S
C2632 C2639 1.409 . S
C2633 H2625 0.930 . S
C2633 C2631 1.419 . S
C2633 C2634 1.362 . S
C2634 H2626 0.930 . S
C2634 C2633 1.362 . S
C2634 C2637 1.409 . S
C2635 H2627 0.930 . S
C2635 C2636 1.355 . S
C2635 C2637 1.415 . S
C2636 C2635 1.355 . S
C2636 C2638 1.419 . S
C2637 C2632 1.425 . S
C2637 C2634 1.409 . S
C2637 C2635 1.415 . S
C2638 H2628 0.930 . S
C2638 C2636 1.419 . S
C2638 C2639 1.362 . S
C2639 H2629 0.930 . S
C2639 C2632 1.409 . S
C2639 C2638 1.362 . S
H2640 C2646 0.930 . S
H2641 C2649 0.930 . S
H2642 C2650 0.930 . S
H2643 C2651 0.930 . S
H2644 C2654 0.930 . S
H2645 C2655 0.930 . S
C2646 H2640 0.930 . S
C2646 C2647 1.355 . S
C2646 C2648 1.415 . S
C2647 C2646 1.355 . S
C2647 C2649 1.419 . S
C2648 C2646 1.415 . S
C2648 C2653 1.425 . S
C2648 C2655 1.409 . S
C2649 H2641 0.930 . S
C2649 C2647 1.419 . S
C2649 C2650 1.362 . S
C2650 H2642 0.930 . S
C2650 C2649 1.362 . S
C2650 C2653 1.409 . S
C2651 H2643 0.930 . S
C2651 C2652 1.355 . S
C2651 C2653 1.415 . S
C2652 C2651 1.355 . S
C2652 C2654 1.419 . S
C2653 C2648 1.425 . S
C2653 C2650 1.409 . S
C2653 C2651 1.415 . S
C2654 H2644 0.930 . S
C2654 C2652 1.419 . S
C2654 C2655 1.362 . S
C2655 H2645 0.930 . S
C2655 C2648 1.409 . S
C2655 C2654 1.362 . S
H2656 C2662 0.930 . S
H2657 C2665 0.930 . S
H2658 C2666 0.930 . S
H2659 C2667 0.930 . S
H2660 C2670 0.930 . S
H2661 C2671 0.930 . S
C2662 H2656 0.930 . S
C2662 C2663 1.355 . S
C2662 C2664 1.415 . S
C2663 C2662 1.355 . S
C2663 C2665 1.419 . S
C2664 C2662 1.415 . S
C2664 C2669 1.425 . S
C2664 C2671 1.409 . S
C2665 H2657 0.930 . S
C2665 C2663 1.419 . S
C2665 C2666 1.362 . S
C2666 H2658 0.930 . S
C2666 C2665 1.362 . S
C2666 C2669 1.409 . S
C2667 H2659 0.930 . S
C2667 C2668 1.355 . S
C2667 C2669 1.415 . S
C2668 C2667 1.355 . S
C2668 C2670 1.419 . S
C2669 C2664 1.425 . S
C2669 C2666 1.409 . S
C2669 C2667 1.415 . S
C2670 H2660 0.930 . S
C2670 C2668 1.419 . S
C2670 C2671 1.362 . S
C2671 H2661 0.930 . S
C2671 C2664 1.409 . S
C2671 C2670 1.362 . S
H2672 C2678 0.930 . S
H2673 C2681 0.930 . S
H2674 C2682 0.930 . S
H2675 C2683 0.930 . S
H2676 C2686 0.930 . S
H2677 C2687 0.930 . S
C2678 H2672 0.930 . S
C2678 C2679 1.355 . S
C2678 C2680 1.415 . S
C2679 C2678 1.355 . S
C2679 C2681 1.419 . S
C2680 C2678 1.415 . S
C2680 C2685 1.425 . S
C2680 C2687 1.409 . S
C2681 H2673 0.930 . S
C2681 C2679 1.419 . S
C2681 C2682 1.362 . S
C2682 H2674 0.930 . S
C2682 C2681 1.362 . S
C2682 C2685 1.409 . S
C2683 H2675 0.930 . S
C2683 C2684 1.355 . S
C2683 C2685 1.415 . S
C2684 C2683 1.355 . S
C2684 C2686 1.419 . S
C2685 C2680 1.425 . S
C2685 C2682 1.409 . S
C2685 C2683 1.415 . S
C2686 H2676 0.930 . S
C2686 C2684 1.419 . S
C2686 C2687 1.362 . S
C2687 H2677 0.930 . S
C2687 C2680 1.409 . S
C2687 C2686 1.362 . S
H2688 C2694 0.930 . S
H2689 C2697 0.930 . S
H2690 C2698 0.930 . S
H2691 C2699 0.930 . S
H2692 C2702 0.930 . S
H2693 C2703 0.930 . S
C2694 H2688 0.930 . S
C2694 C2695 1.355 . S
C2694 C2696 1.415 . S
C2695 C2694 1.355 . S
C2695 C2697 1.419 . S
C2696 C2694 1.415 . S
C2696 C2701 1.425 . S
C2696 C2703 1.409 . S
C2697 H2689 0.930 . S
C2697 C2695 1.419 . S
C2697 C2698 1.362 . S
C2698 H2690 0.930 . S
C2698 C2697 1.362 . S
C2698 C2701 1.409 . S
C2699 H2691 0.930 . S
C2699 C2700 1.355 . S
C2699 C2701 1.415 . S
C2700 C2699 1.355 . S
C2700 C2702 1.419 . S
C2701 C2696 1.425 . S
C2701 C2698 1.409 . S
C2701 C2699 1.415 . S
C2702 H2692 0.930 . S
C2702 C2700 1.419 . S
C2702 C2703 1.362 . S
C2703 H2693 0.930 . S
C2703 C2696 1.409 . S
C2703 C2702 1.362 . S
H2704 C2710 0.930 . S
H2705 C2713 0.930 . S
H2706 C2714 0.930 . S
H2707 C2715 0.930 . S
H2708 C2718 0.930 . S
H2709 C2719 0.930 . S
C2710 H2704 0.930 . S
C2710 C2711 1.355 . S
C2710 C2712 1.415 . S
C2711 C2710 1.355 . S
C2711 C2713 1.419 . S
C2712 C2710 1.415 . S
C2712 C2717 1.425 . S
C2712 C2719 1.409 . S
C2713 H2705 0.930 . S
C2713 C2711 1.419 . S
C2713 C2714 1.362 . S
C2714 H2706 0.930 . S
C2714 C2713 1.362 . S
C2714 C2717 1.409 . S
C2715 H2707 0.930 . S
C2715 C2716 1.355 . S
C2715 C2717 1.415 . S
C2716 C2715 1.355 . S
C2716 C2718 1.419 . S
C2717 C2712 1.425 . S
C2717 C2714 1.409 . S
C2717 C2715 1.415 . S
C2718 H2708 0.930 . S
C2718 C2716 1.419 . S
C2718 C2719 1.362 . S
C2719 H2709 0.930 . S
C2719 C2712 1.409 . S
C2719 C2718 1.362 . S
H2720 C2726 0.930 . S
H2721 C2729 0.930 . S
H2722 C2730 0.930 . S
H2723 C2731 0.930 . S
H2724 C2734 0.930 . S
H2725 C2735 0.930 . S
C2726 H2720 0.930 . S
C2726 C2727 1.355 . S
C2726 C2728 1.415 . S
C2727 C2726 1.355 . S
C2727 C2729 1.419 . S
C2728 C2726 1.415 . S
C2728 C2733 1.425 . S
C2728 C2735 1.409 . S
C2729 H2721 0.930 . S
C2729 C2727 1.419 . S
C2729 C2730 1.362 . S
C2730 H2722 0.930 . S
C2730 C2729 1.362 . S
C2730 C2733 1.409 . S
C2731 H2723 0.930 . S
C2731 C2732 1.355 . S
C2731 C2733 1.415 . S
C2732 C2731 1.355 . S
C2732 C2734 1.419 . S
C2733 C2728 1.425 . S
C2733 C2730 1.409 . S
C2733 C2731 1.415 . S
C2734 H2724 0.930 . S
C2734 C2732 1.419 . S
C2734 C2735 1.362 . S
C2735 H2725 0.930 . S
C2735 C2728 1.409 . S
C2735 C2734 1.362 . S
H2736 C2742 0.930 . S
H2737 C2745 0.930 . S
H2738 C2746 0.930 . S
H2739 C2747 0.930 . S
H2740 C2750 0.930 . S
H2741 C2751 0.930 . S
C2742 H2736 0.930 . S
C2742 C2743 1.355 . S
C2742 C2744 1.415 . S
C2743 C2742 1.355 . S
C2743 C2745 1.419 . S
C2744 C2742 1.415 . S
C2744 C2749 1.425 . S
C2744 C2751 1.409 . S
C2745 H2737 0.930 . S
C2745 C2743 1.419 . S
C2745 C2746 1.362 . S
C2746 H2738 0.930 . S
C2746 C2745 1.362 . S
C2746 C2749 1.409 . S
C2747 H2739 0.930 . S
C2747 C2748 1.355 . S
C2747 C2749 1.415 . S
C2748 C2747 1.355 . S
C2748 C2750 1.419 . S
C2749 C2744 1.425 . S
C2749 C2746 1.409 . S
C2749 C2747 1.415 . S
C2750 H2740 0.930 . S
C2750 C2748 1.419 . S
C2750 C2751 1.362 . S
C2751 H2741 0.930 . S
C2751 C2744 1.409 . S
C2751 C2750 1.362 . S
H2752 C2758 0.930 . S
H2753 C2761 0.930 . S
H2754 C2762 0.930 . S
H2755 C2763 0.930 . S
H2756 C2766 0.930 . S
H2757 C2767 0.930 . S
C2758 H2752 0.930 . S
C2758 C2759 1.355 . S
C2758 C2760 1.415 . S
C2759 C2758 1.355 . S
C2759 C2761 1.419 . S
C2760 C2758 1.415 . S
C2760 C2765 1.425 . S
C2760 C2767 1.409 . S
C2761 H2753 0.930 . S
C2761 C2759 1.419 . S
C2761 C2762 1.362 . S
C2762 H2754 0.930 . S
C2762 C2761 1.362 . S
C2762 C2765 1.409 . S
C2763 H2755 0.930 . S
C2763 C2764 1.355 . S
C2763 C2765 1.415 . S
C2764 C2763 1.355 . S
C2764 C2766 1.419 . S
C2765 C2760 1.425 . S
C2765 C2762 1.409 . S
C2765 C2763 1.415 . S
C2766 H2756 0.930 . S
C2766 C2764 1.419 . S
C2766 C2767 1.362 . S
C2767 H2757 0.930 . S
C2767 C2760 1.409 . S
C2767 C2766 1.362 . S
H2768 C2774 0.930 . S
H2769 C2777 0.930 . S
H2770 C2778 0.930 . S
H2771 C2779 0.930 . S
H2772 C2782 0.930 . S
H2773 C2783 0.930 . S
C2774 H2768 0.930 . S
C2774 C2775 1.355 . S
C2774 C2776 1.415 . S
C2775 C2774 1.355 . S
C2775 C2777 1.419 . S
C2776 C2774 1.415 . S
C2776 C2781 1.425 . S
C2776 C2783 1.409 . S
C2777 H2769 0.930 . S
C2777 C2775 1.419 . S
C2777 C2778 1.362 . S
C2778 H2770 0.930 . S
C2778 C2777 1.362 . S
C2778 C2781 1.409 . S
C2779 H2771 0.930 . S
C2779 C2780 1.355 . S
C2779 C2781 1.415 . S
C2780 C2779 1.355 . S
C2780 C2782 1.419 . S
C2781 C2776 1.425 . S
C2781 C2778 1.409 . S
C2781 C2779 1.415 . S
C2782 H2772 0.930 . S
C2782 C2780 1.419 . S
C2782 C2783 1.362 . S
C2783 H2773 0.930 . S
C2783 C2776 1.409 . S
C2783 C2782 1.362 . S
H2784 C2790 0.930 . S
H2785 C2793 0.930 . S
H2786 C2794 0.930 . S
H2787 C2795 0.930 . S
H2788 C2798 0.930 . S
H2789 C2799 0.930 . S
C2790 H2784 0.930 . S
C2790 C2791 1.355 . S
C2790 C2792 1.415 . S
C2791 C2790 1.355 . S
C2791 C2793 1.419 . S
C2792 C2790 1.415 . S
C2792 C2797 1.425 . S
C2792 C2799 1.409 . S
C2793 H2785 0.930 . S
C2793 C2791 1.419 . S
C2793 C2794 1.362 . S
C2794 H2786 0.930 . S
C2794 C2793 1.362 . S
C2794 C2797 1.409 . S
C2795 H2787 0.930 . S
C2795 C2796 1.355 . S
C2795 C2797 1.415 . S
C2796 C2795 1.355 . S
C2796 C2798 1.419 . S
C2797 C2792 1.425 . S
C2797 C2794 1.409 . S
C2797 C2795 1.415 . S
C2798 H2788 0.930 . S
C2798 C2796 1.419 . S
C2798 C2799 1.362 . S
C2799 H2789 0.930 . S
C2799 C2792 1.409 . S
C2799 C2798 1.362 . S
H2800 C2806 0.930 . S
H2801 C2809 0.930 . S
H2802 C2810 0.930 . S
H2803 C2811 0.930 . S
H2804 C2814 0.930 . S
H2805 C2815 0.930 . S
C2806 H2800 0.930 . S
C2806 C2807 1.355 . S
C2806 C2808 1.415 . S
C2807 C2806 1.355 . S
C2807 C2809 1.419 . S
C2808 C2806 1.415 . S
C2808 C2813 1.425 . S
C2808 C2815 1.409 . S
C2809 H2801 0.930 . S
C2809 C2807 1.419 . S
C2809 C2810 1.362 . S
C2810 H2802 0.930 . S
C2810 C2809 1.362 . S
C2810 C2813 1.409 . S
C2811 H2803 0.930 . S
C2811 C2812 1.355 . S
C2811 C2813 1.415 . S
C2812 C2811 1.355 . S
C2812 C2814 1.419 . S
C2813 C2808 1.425 . S
C2813 C2810 1.409 . S
C2813 C2811 1.415 . S
C2814 H2804 0.930 . S
C2814 C2812 1.419 . S
C2814 C2815 1.362 . S
C2815 H2805 0.930 . S
C2815 C2808 1.409 . S
C2815 C2814 1.362 . S
H2816 C2822 0.930 . S
H2817 C2825 0.930 . S
H2818 C2826 0.930 . S
H2819 C2827 0.930 . S
H2820 C2830 0.930 . S
H2821 C2831 0.930 . S
C2822 H2816 0.930 . S
C2822 C2823 1.355 . S
C2822 C2824 1.415 . S
C2823 C2822 1.355 . S
C2823 C2825 1.419 . S
C2824 C2822 1.415 . S
C2824 C2829 1.425 . S
C2824 C2831 1.409 . S
C2825 H2817 0.930 . S
C2825 C2823 1.419 . S
C2825 C2826 1.362 . S
C2826 H2818 0.930 . S
C2826 C2825 1.362 . S
C2826 C2829 1.409 . S
C2827 H2819 0.930 . S
C2827 C2828 1.355 . S
C2827 C2829 1.415 . S
C2828 C2827 1.355 . S
C2828 C2830 1.419 . S
C2829 C2824 1.425 . S
C2829 C2826 1.409 . S
C2829 C2827 1.415 . S
C2830 H2820 0.930 . S
C2830 C2828 1.419 . S
C2830 C2831 1.362 . S
C2831 H2821 0.930 . S
C2831 C2824 1.409 . S
C2831 C2830 1.362 . S
H2832 C2838 0.930 . S
H2833 C2841 0.930 . S
H2834 C2842 0.930 . S
H2835 C2843 0.930 . S
H2836 C2846 0.930 . S
H2837 C2847 0.930 . S
C2838 H2832 0.930 . S
C2838 C2839 1.355 . S
C2838 C2840 1.415 . S
C2839 C2838 1.355 . S
C2839 C2841 1.419 . S
C2840 C2838 1.415 . S
C2840 C2845 1.425 . S
C2840 C2847 1.409 . S
C2841 H2833 0.930 . S
C2841 C2839 1.419 . S
C2841 C2842 1.362 . S
C2842 H2834 0.930 . S
C2842 C2841 1.362 . S
C2842 C2845 1.409 . S
C2843 H2835 0.930 . S
C2843 C2844 1.355 . S
C2843 C2845 1.415 . S
C2844 C2843 1.355 . S
C2844 C2846 1.419 . S
C2845 C2840 1.425 . S
C2845 C2842 1.409 . S
C2845 C2843 1.415 . S
C2846 H2836 0.930 . S
C2846 C2844 1.419 . S
C2846 C2847 1.362 . S
C2847 H2837 0.930 . S
C2847 C2840 1.409 . S
C2847 C2846 1.362 . S
H2848 C2854 0.930 . S
H2849 C2857 0.930 . S
H2850 C2858 0.930 . S
H2851 C2859 0.930 . S
H2852 C2862 0.930 . S
H2853 C2863 0.930 . S
C2854 H2848 0.930 . S
C2854 C2855 1.355 . S
C2854 C2856 1.415 . S
C2855 C2854 1.355 . S
C2855 C2857 1.419 . S
C2856 C2854 1.415 . S
C2856 C2861 1.425 . S
C2856 C2863 1.409 . S
C2857 H2849 0.930 . S
C2857 C2855 1.419 . S
C2857 C2858 1.362 . S
C2858 H2850 0.930 . S
C2858 C2857 1.362 . S
C2858 C2861 1.409 . S
C2859 H2851 0.930 . S
C2859 C2860 1.355 . S
C2859 C2861 1.415 . S
C2860 C2859 1.355 . S
C2860 C2862 1.419 . S
C2861 C2856 1.425 . S
C2861 C2858 1.409 . S
C2861 C2859 1.415 . S
C2862 H2852 0.930 . S
C2862 C2860 1.419 . S
C2862 C2863 1.362 . S
C2863 H2853 0.930 . S
C2863 C2856 1.409 . S
C2863 C2862 1.362 . S
H2864 C2870 0.930 . S
H2865 C2873 0.930 . S
H2866 C2874 0.930 . S
H2867 C2875 0.930 . S
H2868 C2878 0.930 . S
H2869 C2879 0.930 . S
C2870 H2864 0.930 . S
C2870 C2871 1.355 . S
C2870 C2872 1.415 . S
C2871 C2870 1.355 . S
C2871 C2873 1.419 . S
C2872 C2870 1.415 . S
C2872 C2877 1.425 . S
C2872 C2879 1.409 . S
C2873 H2865 0.930 . S
C2873 C2871 1.419 . S
C2873 C2874 1.362 . S
C2874 H2866 0.930 . S
C2874 C2873 1.362 . S
C2874 C2877 1.409 . S
C2875 H2867 0.930 . S
C2875 C2876 1.355 . S
C2875 C2877 1.415 . S
C2876 C2875 1.355 . S
C2876 C2878 1.419 . S
C2877 C2872 1.425 . S
C2877 C2874 1.409 . S
C2877 C2875 1.415 . S
C2878 H2868 0.930 . S
C2878 C2876 1.419 . S
C2878 C2879 1.362 . S
C2879 H2869 0.930 . S
C2879 C2872 1.409 . S
C2879 C2878 1.362 . S
H2880 C2886 0.930 . S
H2881 C2889 0.930 . S
H2882 C2890 0.930 . S
H2883 C2891 0.930 . S
H2884 C2894 0.930 . S
H2885 C2895 0.930 . S
C2886 H2880 0.930 . S
C2886 C2887 1.355 . S
C2886 C2888 1.415 . S
C2887 C2886 1.355 . S
C2887 C2889 1.419 . S
C2888 C2886 1.415 . S
C2888 C2893 1.425 . S
C2888 C2895 1.409 . S
C2889 H2881 0.930 . S
C2889 C2887 1.419 . S
C2889 C2890 1.362 . S
C2890 H2882 0.930 . S
C2890 C2889 1.362 . S
C2890 C2893 1.409 . S
C2891 H2883 0.930 . S
C2891 C2892 1.355 . S
C2891 C2893 1.415 . S
C2892 C2891 1.355 . S
C2892 C2894 1.419 . S
C2893 C2888 1.425 . S
C2893 C2890 1.409 . S
C2893 C2891 1.415 . S
C2894 H2884 0.930 . S
C2894 C2892 1.419 . S
C2894 C2895 1.362 . S
C2895 H2885 0.930 . S
C2895 C2888 1.409 . S
C2895 C2894 1.362 . S
H2896 C2902 0.930 . S
H2897 C2905 0.930 . S
H2898 C2906 0.930 . S
H2899 C2907 0.930 . S
H2900 C2910 0.930 . S
H2901 C2911 0.930 . S
C2902 H2896 0.930 . S
C2902 C2903 1.355 . S
C2902 C2904 1.415 . S
C2903 C2902 1.355 . S
C2903 C2905 1.419 . S
C2904 C2902 1.415 . S
C2904 C2909 1.425 . S
C2904 C2911 1.409 . S
C2905 H2897 0.930 . S
C2905 C2903 1.419 . S
C2905 C2906 1.362 . S
C2906 H2898 0.930 . S
C2906 C2905 1.362 . S
C2906 C2909 1.409 . S
C2907 H2899 0.930 . S
C2907 C2908 1.355 . S
C2907 C2909 1.415 . S
C2908 C2907 1.355 . S
C2908 C2910 1.419 . S
C2909 C2904 1.425 . S
C2909 C2906 1.409 . S
C2909 C2907 1.415 . S
C2910 H2900 0.930 . S
C2910 C2908 1.419 . S
C2910 C2911 1.362 . S
C2911 H2901 0.930 . S
C2911 C2904 1.409 . S
C2911 C2910 1.362 . S
H2912 C2918 0.930 . S
H2913 C2921 0.930 . S
H2914 C2922 0.930 . S
H2915 C2923 0.930 . S
H2916 C2926 0.930 . S
H2917 C2927 0.930 . S
C2918 H2912 0.930 . S
C2918 C2919 1.355 . S
C2918 C2920 1.415 . S
C2919 C2918 1.355 . S
C2919 C2921 1.419 . S
C2920 C2918 1.415 . S
C2920 C2925 1.425 . S
C2920 C2927 1.409 . S
C2921 H2913 0.930 . S
C2921 C2919 1.419 . S
C2921 C2922 1.362 . S
C2922 H2914 0.930 . S
C2922 C2921 1.362 . S
C2922 C2925 1.409 . S
C2923 H2915 0.930 . S
C2923 C2924 1.355 . S
C2923 C2925 1.415 . S
C2924 C2923 1.355 . S
C2924 C2926 1.419 . S
C2925 C2920 1.425 . S
C2925 C2922 1.409 . S
C2925 C2923 1.415 . S
C2926 H2916 0.930 . S
C2926 C2924 1.419 . S
C2926 C2927 1.362 . S
C2927 H2917 0.930 . S
C2927 C2920 1.409 . S
C2927 C2926 1.362 . S
H2928 C2934 0.930 . S
H2929 C2937 0.930 . S
H2930 C2938 0.930 . S
H2931 C2939 0.930 . S
H2932 C2942 0.930 . S
H2933 C2943 0.930 . S
C2934 H2928 0.930 . S
C2934 C2935 1.355 . S
C2934 C2936 1.415 . S
C2935 C2934 1.355 . S
C2935 C2937 1.419 . S
C2936 C2934 1.415 . S
C2936 C2941 1.425 . S
C2936 C2943 1.409 . S
C2937 H2929 0.930 . S
C2937 C2935 1.419 . S
C2937 C2938 1.362 . S
C2938 H2930 0.930 . S
C2938 C2937 1.362 . S
C2938 C2941 1.409 . S
C2939 H2931 0.930 . S
C2939 C2940 1.355 . S
C2939 C2941 1.415 . S
C2940 C2939 1.355 . S
C2940 C2942 1.419 . S
C2941 C2936 1.425 . S
C2941 C2938 1.409 . S
C2941 C2939 1.415 . S
C2942 H2932 0.930 . S
C2942 C2940 1.419 . S
C2942 C2943 1.362 . S
C2943 H2933 0.930 . S
C2943 C2936 1.409 . S
C2943 C2942 1.362 . S
H2944 C2950 0.930 . S
H2945 C2953 0.930 . S
H2946 C2954 0.930 . S
H2947 C2955 0.930 . S
H2948 C2958 0.930 . S
H2949 C2959 0.930 . S
C2950 H2944 0.930 . S
C2950 C2951 1.355 . S
C2950 C2952 1.415 . S
C2951 C2950 1.355 . S
C2951 C2953 1.419 . S
C2952 C2950 1.415 . S
C2952 C2957 1.425 . S
C2952 C2959 1.409 . S
C2953 H2945 0.930 . S
C2953 C2951 1.419 . S
C2953 C2954 1.362 . S
C2954 H2946 0.930 . S
C2954 C2953 1.362 . S
C2954 C2957 1.409 . S
C2955 H2947 0.930 . S
C2955 C2956 1.355 . S
C2955 C2957 1.415 . S
C2956 C2955 1.355 . S
C2956 C2958 1.419 . S
C2957 C2952 1.425 . S
C2957 C2954 1.409 . S
C2957 C2955 1.415 . S
C2958 H2948 0.930 . S
C2958 C2956 1.419 . S
C2958 C2959 1.362 . S
C2959 H2949 0.930 . S
C2959 C2952 1.409 . S
C2959 C2958 1.362 . S
H2960 C2966 0.930 . S
H2961 C2969 0.930 . S
H2962 C2970 0.930 . S
H2963 C2971 0.930 . S
H2964 C2974 0.930 . S
H2965 C2975 0.930 . S
C2966 H2960 0.930 . S
C2966 C2967 1.355 . S
C2966 C2968 1.415 . S
C2967 C2966 1.355 . S
C2967 C2969 1.419 . S
C2968 C2966 1.415 . S
C2968 C2973 1.425 . S
C2968 C2975 1.409 . S
C2969 H2961 0.930 . S
C2969 C2967 1.419 . S
C2969 C2970 1.362 . S
C2970 H2962 0.930 . S
C2970 C2969 1.362 . S
C2970 C2973 1.409 . S
C2971 H2963 0.930 . S
C2971 C2972 1.355 . S
C2971 C2973 1.415 . S
C2972 C2971 1.355 . S
C2972 C2974 1.419 . S
C2973 C2968 1.425 . S
C2973 C2970 1.409 . S
C2973 C2971 1.415 . S
C2974 H2964 0.930 . S
C2974 C2972 1.419 . S
C2974 C2975 1.362 . S
C2975 H2965 0.930 . S
C2975 C2968 1.409 . S
C2975 C2974 1.362 . S
H2976 C2982 0.930 . S
H2977 C2985 0.930 . S
H2978 C2986 0.930 . S
H2979 C2987 0.930 . S
H2980 C2990 0.930 . S
H2981 C2991 0.930 . S
C2982 H2976 0.930 . S
C2982 C2983 1.355 . S
C2982 C2984 1.415 . S
C2983 C2982 1.355 . S
C2983 C2985 1.419 . S
C2984 C2982 1.415 . S
C2984 C2989 1.425 . S
C2984 C2991 1.409 . S
C2985 H2977 0.930 . S
C2985 C2983 1.419 . S
C2985 C2986 1.362 . S
C2986 H2978 0.930 . S
C2986 C2985 1.362 . S
C2986 C2989 1.409 . S
C2987 H2979 0.930 . S
C2987 C2988 1.355 . S
C2987 C2989 1.415 . S
C2988 C2987 1.355 . S
C2988 C2990 1.419 . S
C2989 C2984 1.425 . S
C2989 C2986 1.409 . S
C2989 C2987 1.415 . S
C2990 H2980 0.930 . S
C2990 C2988 1.419 . S
C2990 C2991 1.362 . S
C2991 H2981 0.930 . S
C2991 C2984 1.409 . S
C2991 C2990 1.362 . S
H2992 C2998 0.930 . S
H2993 C3001 0.930 . S
H2994 C3002 0.930 . S
H2995 C3003 0.930 . S
H2996 C3006 0.930 . S
H2997 C3007 0.930 . S
C2998 H2992 0.930 . S
C2998 C2999 1.355 . S
C2998 C3000 1.415 . S
C2999 C2998 1.355 . S
C2999 C3001 1.419 . S
C3000 C2998 1.415 . S
C3000 C3005 1.425 . S
C3000 C3007 1.409 . S
C3001 H2993 0.930 . S
C3001 C2999 1.419 . S
C3001 C3002 1.362 . S
C3002 H2994 0.930 . S
C3002 C3001 1.362 . S
C3002 C3005 1.409 . S
C3003 H2995 0.930 . S
C3003 C3004 1.355 . S
C3003 C3005 1.415 . S
C3004 C3003 1.355 . S
C3004 C3006 1.419 . S
C3005 C3000 1.425 . S
C3005 C3002 1.409 . S
C3005 C3003 1.415 . S
C3006 H2996 0.930 . S
C3006 C3004 1.419 . S
C3006 C3007 1.362 . S
C3007 H2997 0.930 . S
C3007 C3000 1.409 . S
C3007 C3006 1.362 . S
H3008 C3014 0.930 . S
H3009 C3017 0.930 . S
H3010 C3018 0.930 . S
H3011 C3019 0.930 . S
H3012 C3022 0.930 . S
H3013 C3023 0.930 . S
C3014 H3008 0.930 . S
C3014 C3015 1.355 . S
C3014 C3016 1.415 . S
C3015 C3014 1.355 . S
C3015 C3017 1.419 . S
C3016 C3014 1.415 . S
C3016 C3021 1.425 . S
C3016 C3023 1.409 . S
C3017 H3009 0.930 . S
C3017 C3015 1.419 . S
C3017 C3018 1.362 . S
C3018 H3010 0.930 . S
C3018 C3017 1.362 . S
C3018 C3021 1.409 . S
C3019 H3011 0.930 . S
C3019 C3020 1.355 . S
C3019 C3021 1.415 . S
C3020 C3019 1.355 . S
C3020 C3022 1.419 . S
C3021 C3016 1.425 . S
C3021 C3018 1.409 . S
C3021 C3019 1.415 . S
C3022 H3012 0.930 . S
C3022 C3020 1.419 . S
C3022 C3023 1.362 . S
C3023 H3013 0.930 . S
C3023 C3016 1.409 . S
C3023 C3022 1.362 . S
H3024 C3030 0.930 . S
H3025 C3033 0.930 . S
H3026 C3034 0.930 . S
H3027 C3035 0.930 . S
H3028 C3038 0.930 . S
H3029 C3039 0.930 . S
C3030 H3024 0.930 . S
C3030 C3031 1.355 . S
C3030 C3032 1.415 . S
C3031 C3030 1.355 . S
C3031 C3033 1.419 . S
C3032 C3030 1.415 . S
C3032 C3037 1.425 . S
C3032 C3039 1.409 . S
C3033 H3025 0.930 . S
C3033 C3031 1.419 . S
C3033 C3034 1.362 . S
C3034 H3026 0.930 . S
C3034 C3033 1.362 . S
C3034 C3037 1.409 . S
C3035 H3027 0.930 . S
C3035 C3036 1.355 . S
C3035 C3037 1.415 . S
C3036 C3035 1.355 . S
C3036 C3038 1.419 . S
C3037 C3032 1.425 . S
C3037 C3034 1.409 . S
C3037 C3035 1.415 . S
C3038 H3028 0.930 . S
C3038 C3036 1.419 . S
C3038 C3039 1.362 . S
C3039 H3029 0.930 . S
C3039 C3032 1.409 . S
C3039 C3038 1.362 . S
H3040 C3046 0.930 . S
H3041 C3049 0.930 . S
H3042 C3050 0.930 . S
H3043 C3051 0.930 . S
H3044 C3054 0.930 . S
H3045 C3055 0.930 . S
C3046 H3040 0.930 . S
C3046 C3047 1.355 . S
C3046 C3048 1.415 . S
C3047 C3046 1.355 . S
C3047 C3049 1.419 . S
C3048 C3046 1.415 . S
C3048 C3053 1.425 . S
C3048 C3055 1.409 . S
C3049 H3041 0.930 . S
C3049 C3047 1.419 . S
C3049 C3050 1.362 . S
C3050 H3042 0.930 . S
C3050 C3049 1.362 . S
C3050 C3053 1.409 . S
C3051 H3043 0.930 . S
C3051 C3052 1.355 . S
C3051 C3053 1.415 . S
C3052 C3051 1.355 . S
C3052 C3054 1.419 . S
C3053 C3048 1.425 . S
C3053 C3050 1.409 . S
C3053 C3051 1.415 . S
C3054 H3044 0.930 . S
C3054 C3052 1.419 . S
C3054 C3055 1.362 . S
C3055 H3045 0.930 . S
C3055 C3048 1.409 . S
C3055 C3054 1.362 . S
H3056 C3062 0.930 . S
H3057 C3065 0.930 . S
H3058 C3066 0.930 . S
H3059 C3067 0.930 . S
H3060 C3070 0.930 . S
H3061 C3071 0.930 . S
C3062 H3056 0.930 . S
C3062 C3063 1.355 . S
C3062 C3064 1.415 . S
C3063 C3062 1.355 . S
C3063 C3065 1.419 . S
C3064 C3062 1.415 . S
C3064 C3069 1.425 . S
C3064 C3071 1.409 . S
C3065 H3057 0.930 . S
C3065 C3063 1.419 . S
C3065 C3066 1.362 . S
C3066 H3058 0.930 . S
C3066 C3065 1.362 . S
C3066 C3069 1.409 . S
C3067 H3059 0.930 . S
C3067 C3068 1.355 . S
C3067 C3069 1.415 . S
C3068 C3067 1.355 . S
C3068 C3070 1.419 . S
C3069 C3064 1.425 . S
C3069 C3066 1.409 . S
C3069 C3067 1.415 . S
C3070 H3060 0.930 . S
C3070 C3068 1.419 . S
C3070 C3071 1.362 . S
C3071 H3061 0.930 . S
C3071 C3064 1.409 . S
C3071 C3070 1.362 . S
H3072 C3078 0.930 . S
H3073 C3081 0.930 . S
H3074 C3082 0.930 . S
H3075 C3083 0.930 . S
H3076 C3086 0.930 . S
H3077 C3087 0.930 . S
C3078 H3072 0.930 . S
C3078 C3079 1.355 . S
C3078 C3080 1.415 . S
C3079 C3078 1.355 . S
C3079 C3081 1.419 . S
C3080 C3078 1.415 . S
C3080 C3085 1.425 . S
C3080 C3087 1.409 . S
C3081 H3073 0.930 . S
C3081 C3079 1.419 . S
C3081 C3082 1.362 . S
C3082 H3074 0.930 . S
C3082 C3081 1.362 . S
C3082 C3085 1.409 . S
C3083 H3075 0.930 . S
C3083 C3084 1.355 . S
C3083 C3085 1.415 . S
C3084 C3083 1.355 . S
C3084 C3086 1.419 . S
C3085 C3080 1.425 . S
C3085 C3082 1.409 . S
C3085 C3083 1.415 . S
C3086 H3076 0.930 . S
C3086 C3084 1.419 . S
C3086 C3087 1.362 . S
C3087 H3077 0.930 . S
C3087 C3080 1.409 . S
C3087 C3086 1.362 . S
H3088 C3094 0.930 . S
H3089 C3097 0.930 . S
H3090 C3098 0.930 . S
H3091 C3099 0.930 . S
H3092 C3102 0.930 . S
H3093 C3103 0.930 . S
C3094 H3088 0.930 . S
C3094 C3095 1.355 . S
C3094 C3096 1.415 . S
C3095 C3094 1.355 . S
C3095 C3097 1.419 . S
C3096 C3094 1.415 . S
C3096 C3101 1.425 . S
C3096 C3103 1.409 . S
C3097 H3089 0.930 . S
C3097 C3095 1.419 . S
C3097 C3098 1.362 . S
C3098 H3090 0.930 . S
C3098 C3097 1.362 . S
C3098 C3101 1.409 . S
C3099 H3091 0.930 . S
C3099 C3100 1.355 . S
C3099 C3101 1.415 . S
C3100 C3099 1.355 . S
C3100 C3102 1.419 . S
C3101 C3096 1.425 . S
C3101 C3098 1.409 . S
C3101 C3099 1.415 . S
C3102 H3092 0.930 . S
C3102 C3100 1.419 . S
C3102 C3103 1.362 . S
C3103 H3093 0.930 . S
C3103 C3096 1.409 . S
C3103 C3102 1.362 . S
H3104 C3110 0.930 . S
H3105 C3113 0.930 . S
H3106 C3114 0.930 . S
H3107 C3115 0.930 . S
H3108 C3118 0.930 . S
H3109 C3119 0.930 . S
C3110 H3104 0.930 . S
C3110 C3111 1.355 . S
C3110 C3112 1.415 . S
C3111 C3110 1.355 . S
C3111 C3113 1.419 . S
C3112 C3110 1.415 . S
C3112 C3117 1.425 . S
C3112 C3119 1.409 . S
C3113 H3105 0.930 . S
C3113 C3111 1.419 . S
C3113 C3114 1.362 . S
C3114 H3106 0.930 . S
C3114 C3113 1.362 . S
C3114 C3117 1.409 . S
C3115 H3107 0.930 . S
C3115 C3116 1.355 . S
C3115 C3117 1.415 . S
C3116 C3115 1.355 . S
C3116 C3118 1.419 . S
C3117 C3112 1.425 . S
C3117 C3114 1.409 . S
C3117 C3115 1.415 . S
C3118 H3108 0.930 . S
C3118 C3116 1.419 . S
C3118 C3119 1.362 . S
C3119 H3109 0.930 . S
C3119 C3112 1.409 . S
C3119 C3118 1.362 . S
H3120 C3126 0.930 . S
H3121 C3129 0.930 1_655 S
H3122 C3130 0.930 . S
H3123 C3131 0.948 . S
H3124 C3134 0.930 . S
H3125 C3135 0.930 . S
C3126 H3120 0.930 . S
C3126 C3127 1.355 . S
C3126 C3128 1.415 . S
C3127 C3126 1.355 . S
C3127 C3129 1.419 . S
C3128 C3126 1.415 . S
C3128 C3133 1.425 . S
C3128 C3135 1.409 . S
C3129 H3121 0.930 1_455 S
C3129 C3127 1.419 . S
C3129 C3130 1.362 1_455 S
C3130 H3122 0.930 . S
C3130 C3129 1.362 1_655 S
C3130 C3133 1.409 1_655 S
C3131 H3123 0.948 . S
C3131 C3132 1.344 1_655 S
C3131 C3133 1.409 1_655 S
C3132 C3131 1.344 1_455 S
C3132 C3134 1.419 . S
C3133 C3128 1.425 . S
C3133 C3130 1.409 1_455 S
C3133 C3131 1.409 1_455 S
C3134 H3124 0.930 . S
C3134 C3132 1.419 . S
C3134 C3135 1.362 . S
C3135 H3125 0.930 . S
C3135 C3128 1.409 . S
C3135 C3134 1.362 . S
H3136 C3142 0.930 . S
H3137 C3145 0.930 . S
H3138 C3146 0.930 . S
H3139 C3147 0.930 . S
H3140 C3150 0.930 . S
H3141 C3151 0.930 . S
C3142 H3136 0.930 . S
C3142 C3143 1.355 . S
C3142 C3144 1.415 . S
C3143 C3142 1.355 . S
C3143 C3145 1.419 . S
C3144 C3142 1.415 . S
C3144 C3149 1.425 . S
C3144 C3151 1.409 . S
C3145 H3137 0.930 . S
C3145 C3143 1.419 . S
C3145 C3146 1.362 . S
C3146 H3138 0.930 . S
C3146 C3145 1.362 . S
C3146 C3149 1.409 . S
C3147 H3139 0.930 . S
C3147 C3148 1.355 . S
C3147 C3149 1.415 . S
C3148 C3147 1.355 . S
C3148 C3150 1.419 . S
C3149 C3144 1.425 . S
C3149 C3146 1.409 . S
C3149 C3147 1.415 . S
C3150 H3140 0.930 . S
C3150 C3148 1.419 . S
C3150 C3151 1.362 . S
C3151 H3141 0.930 . S
C3151 C3144 1.409 . S
C3151 C3150 1.362 . S
H3152 C3158 0.930 . S
H3153 C3161 0.930 . S
H3154 C3162 0.930 . S
H3155 C3163 0.930 . S
H3156 C3166 0.930 . S
H3157 C3167 0.930 . S
C3158 H3152 0.930 . S
C3158 C3159 1.355 . S
C3158 C3160 1.415 . S
C3159 C3158 1.355 . S
C3159 C3161 1.419 1_455 S
C3160 C3158 1.415 . S
C3160 C3165 1.425 . S
C3160 C3167 1.409 . S
C3161 H3153 0.930 . S
C3161 C3159 1.419 1_655 S
C3161 C3162 1.362 . S
C3162 H3154 0.930 . S
C3162 C3161 1.362 . S
C3162 C3165 1.409 1_655 S
C3163 H3155 0.930 . S
C3163 C3164 1.355 1_655 S
C3163 C3165 1.415 1_655 S
C3164 C3163 1.355 1_455 S
C3164 C3166 1.419 . S
C3165 C3160 1.425 . S
C3165 C3162 1.409 1_455 S
C3165 C3163 1.415 1_455 S
C3166 H3156 0.930 . S
C3166 C3164 1.419 . S
C3166 C3167 1.362 . S
C3167 H3157 0.930 . S
C3167 C3160 1.409 . S
C3167 C3166 1.362 . S
H3168 C3174 0.930 . S
H3169 C3177 0.930 . S
H3170 C3178 0.930 . S
H3171 C3179 0.930 . S
H3172 C3182 0.930 1_565 S
H3173 C3183 0.930 1_565 S
C3174 H3168 0.930 . S
C3174 C3175 1.355 . S
C3174 C3176 1.415 . S
C3175 C3174 1.355 . S
C3175 C3177 1.419 . S
C3176 C3174 1.415 . S
C3176 C3181 1.425 . S
C3176 C3183 1.409 . S
C3177 H3169 0.930 . S
C3177 C3175 1.419 . S
C3177 C3178 1.362 . S
C3178 H3170 0.930 . S
C3178 C3177 1.362 . S
C3178 C3181 1.409 . S
C3179 H3171 0.930 . S
C3179 C3180 1.355 . S
C3179 C3181 1.415 . S
C3180 C3179 1.355 . S
C3180 C3182 1.419 . S
C3181 C3176 1.425 . S
C3181 C3178 1.409 . S
C3181 C3179 1.415 . S
C3182 H3172 0.930 1_545 S
C3182 C3180 1.419 . S
C3182 C3183 1.362 . S
C3183 H3173 0.930 1_545 S
C3183 C3176 1.409 . S
C3183 C3182 1.362 . S
H3184 C3190 0.930 . S
H3185 C3193 0.930 1_655 S
H3186 C3194 0.930 . S
H3187 C3195 0.937 . S
H3188 C3198 0.930 . S
H3189 C3199 0.930 . S
C3190 H3184 0.930 . S
C3190 C3191 1.355 . S
C3190 C3192 1.415 . S
C3191 C3190 1.355 . S
C3191 C3193 1.419 . S
C3192 C3190 1.415 . S
C3192 C3197 1.425 . S
C3192 C3199 1.409 . S
C3193 H3185 0.930 1_455 S
C3193 C3191 1.419 . S
C3193 C3194 1.362 1_455 S
C3194 H3186 0.930 . S
C3194 C3193 1.362 1_655 S
C3194 C3197 1.409 1_655 S
C3195 H3187 0.937 . S
C3195 C3196 1.350 1_655 S
C3195 C3197 1.412 1_655 S
C3196 C3195 1.350 1_455 S
C3196 C3198 1.419 . S
C3197 C3192 1.425 . S
C3197 C3194 1.409 1_455 S
C3197 C3195 1.412 1_455 S
C3198 H3188 0.930 . S
C3198 C3196 1.419 . S
C3198 C3199 1.362 . S
C3199 H3189 0.930 . S
C3199 C3192 1.409 . S
C3199 C3198 1.362 . S
H3200 C3206 0.930 . S
H3201 C3209 0.930 . S
H3202 C3210 0.930 . S
H3203 C3211 0.930 . S
H3204 C3214 0.930 . S
H3205 C3215 0.930 . S
C3206 H3200 0.930 . S
C3206 C3207 1.355 1_565 S
C3206 C3208 1.415 1_565 S
C3207 C3206 1.355 1_545 S
C3207 C3209 1.419 . S
C3208 C3206 1.415 1_545 S
C3208 C3213 1.425 . S
C3208 C3215 1.409 1_545 S
C3209 H3201 0.930 . S
C3209 C3207 1.419 . S
C3209 C3210 1.362 . S
C3210 H3202 0.930 . S
C3210 C3209 1.362 . S
C3210 C3213 1.409 . S
C3211 H3203 0.930 . S
C3211 C3212 1.355 . S
C3211 C3213 1.415 . S
C3212 C3211 1.355 . S
C3212 C3214 1.419 1_545 S
C3213 C3208 1.425 . S
C3213 C3210 1.409 . S
C3213 C3211 1.415 . S
C3214 H3204 0.930 . S
C3214 C3212 1.419 1_565 S
C3214 C3215 1.362 . S
C3215 H3205 0.930 . S
C3215 C3208 1.409 1_565 S
C3215 C3214 1.362 . S
H3216 C3222 0.930 . S
H3217 C3225 0.930 . S
H3218 C3226 0.930 . S
H3219 C3227 0.930 1_655 S
H3220 C3230 0.930 . S
H3221 C3231 0.930 . S
C3222 H3216 0.930 . S
C3222 C3223 1.355 . S
C3222 C3224 1.415 . S
C3223 C3222 1.355 . S
C3223 C3225 1.419 1_455 S
C3224 C3222 1.415 . S
C3224 C3229 1.425 . S
C3224 C3231 1.409 . S
C3225 H3217 0.930 . S
C3225 C3223 1.419 1_655 S
C3225 C3226 1.362 . S
C3226 H3218 0.930 . S
C3226 C3225 1.362 . S
C3226 C3229 1.409 1_655 S
C3227 H3219 0.930 1_455 S
C3227 C3228 1.355 . S
C3227 C3229 1.415 . S
C3228 C3227 1.355 . S
C3228 C3230 1.419 . S
C3229 C3224 1.425 . S
C3229 C3226 1.409 1_455 S
C3229 C3227 1.415 . S
C3230 H3220 0.930 . S
C3230 C3228 1.419 . S
C3230 C3231 1.362 . S
C3231 H3221 0.930 . S
C3231 C3224 1.409 . S
C3231 C3230 1.362 . S
H3232 C3238 0.930 . S
H3233 C3241 0.930 . S
H3234 C3242 0.930 . S
H3235 C3243 0.930 1_565 S
H3236 C3246 0.930 . S
H3237 C3247 0.930 . S
C3238 H3232 0.930 . S
C3238 C3239 1.355 . S
C3238 C3240 1.415 . S
C3239 C3238 1.355 . S
C3239 C3241 1.419 1_545 S
C3240 C3238 1.415 . S
C3240 C3245 1.425 . S
C3240 C3247 1.409 . S
C3241 H3233 0.930 . S
C3241 C3239 1.419 1_565 S
C3241 C3242 1.362 . S
C3242 H3234 0.930 . S
C3242 C3241 1.362 . S
C3242 C3245 1.409 1_565 S
C3243 H3235 0.930 1_545 S
C3243 C3244 1.355 . S
C3243 C3245 1.415 . S
C3244 C3243 1.355 . S
C3244 C3246 1.419 . S
C3245 C3240 1.425 . S
C3245 C3242 1.409 1_545 S
C3245 C3243 1.415 . S
C3246 H3236 0.930 . S
C3246 C3244 1.419 . S
C3246 C3247 1.362 . S
C3247 H3237 0.930 . S
C3247 C3240 1.409 . S
C3247 C3246 1.362 . S
H3248 C3254 0.930 1_556 S
H3249 C3257 0.930 . S
H3250 C3258 0.930 . S
H3251 C3259 0.930 . S
H3252 C3262 0.930 1_556 S
H3253 C3263 0.930 . S
C3254 H3248 0.930 1_554 S
C3254 C3255 1.355 . S
C3254 C3256 1.415 . S
C3255 C3254 1.355 . S
C3255 C3257 1.419 . S
C3256 C3254 1.415 . S
C3256 C3261 1.425 . S
C3256 C3263 1.409 1_554 S
C3257 H3249 0.930 . S
C3257 C3255 1.419 . S
C3257 C3258 1.362 . S
C3258 H3250 0.930 . S
C3258 C3257 1.362 . S
C3258 C3261 1.409 . S
C3259 H3251 0.930 . S
C3259 C3260 1.355 . S
C3259 C3261 1.415 . S
C3260 C3259 1.355 . S
C3260 C3262 1.419 . S
C3261 C3256 1.425 . S
C3261 C3258 1.409 . S
C3261 C3259 1.415 . S
C3262 H3252 0.930 1_554 S
C3262 C3260 1.419 . S
C3262 C3263 1.362 1_554 S
C3263 H3253 0.930 . S
C3263 C3256 1.409 1_556 S
C3263 C3262 1.362 1_556 S
H3264 C3270 0.930 . S
H3265 C3273 0.930 . S
H3266 C3274 0.930 . S
H3267 C3275 0.930 . S
H3268 C3278 0.934 . S
H3269 C3279 0.930 . S
C3270 H3264 0.930 . S
C3270 C3271 1.355 . S
C3270 C3272 1.415 . S
C3271 C3270 1.355 . S
C3271 C3273 1.419 . S
C3272 C3270 1.415 . S
C3272 C3277 1.425 . S
C3272 C3279 1.409 . S
C3273 H3265 0.930 . S
C3273 C3271 1.419 . S
C3273 C3274 1.362 . S
C3274 H3266 0.930 . S
C3274 C3273 1.362 . S
C3274 C3277 1.409 . S
C3275 H3267 0.930 . S
C3275 C3276 1.355 . S
C3275 C3277 1.415 . S
C3276 C3275 1.355 . S
C3276 C3278 1.419 . S
C3277 C3272 1.425 . S
C3277 C3274 1.409 . S
C3277 C3275 1.415 . S
C3278 H3268 0.934 . S
C3278 C3276 1.419 . S
C3278 C3279 1.362 . S
C3279 H3269 0.930 . S
C3279 C3272 1.409 . S
C3279 C3278 1.362 . S
H3280 C3286 0.930 1_556 S
H3281 C3289 0.930 . S
H3282 C3290 0.930 . S
H3283 C3291 0.930 . S
H3284 C3294 0.930 . S
H3285 C3295 0.930 . S
C3286 H3280 0.930 1_554 S
C3286 C3287 1.355 . S
C3286 C3288 1.415 . S
C3287 C3286 1.355 . S
C3287 C3289 1.419 . S
C3288 C3286 1.415 . S
C3288 C3293 1.425 . S
C3288 C3295 1.409 1_554 S
C3289 H3281 0.930 . S
C3289 C3287 1.419 . S
C3289 C3290 1.362 . S
C3290 H3282 0.930 . S
C3290 C3289 1.362 . S
C3290 C3293 1.409 . S
C3291 H3283 0.930 . S
C3291 C3292 1.355 . S
C3291 C3293 1.415 . S
C3292 C3291 1.355 . S
C3292 C3294 1.419 1_554 S
C3293 C3288 1.425 . S
C3293 C3290 1.409 . S
C3293 C3291 1.415 . S
C3294 H3284 0.930 . S
C3294 C3292 1.419 1_556 S
C3294 C3295 1.362 . S
C3295 H3285 0.930 . S
C3295 C3288 1.409 1_556 S
C3295 C3294 1.362 . S
H3296 C3302 0.930 . S
H3297 C3305 0.930 . S
H3298 C3306 0.930 . S
H3299 C3307 0.930 . S
H3300 C3310 0.922 1_556 S
H3301 C3311 0.930 1_556 S
C3302 H3296 0.930 . S
C3302 C3303 1.355 . S
C3302 C3304 1.415 . S
C3303 C3302 1.355 . S
C3303 C3305 1.419 . S
C3304 C3302 1.415 . S
C3304 C3309 1.425 . S
C3304 C3311 1.409 . S
C3305 H3297 0.930 . S
C3305 C3303 1.419 . S
C3305 C3306 1.362 . S
C3306 H3298 0.930 . S
C3306 C3305 1.362 . S
C3306 C3309 1.409 . S
C3307 H3299 0.930 . S
C3307 C3308 1.355 . S
C3307 C3309 1.415 . S
C3308 C3307 1.355 . S
C3308 C3310 1.427 . S
C3309 C3304 1.425 . S
C3309 C3306 1.409 . S
C3309 C3307 1.415 . S
C3310 H3300 0.922 1_554 S
C3310 C3308 1.427 . S
C3310 C3311 1.364 . S
C3311 H3301 0.930 1_554 S
C3311 C3304 1.409 . S
C3311 C3310 1.364 . S
H3312 C3318 0.930 . S
H3313 C3321 0.930 . S
H3314 C3322 0.930 . S
H3315 C3323 0.930 . S
H3316 C3326 0.930 . S
H3317 C3327 0.930 . S
C3318 H3312 0.930 . S
C3318 C3319 1.355 . S
C3318 C3320 1.415 . S
C3319 C3318 1.355 . S
C3319 C3321 1.419 . S
C3320 C3318 1.415 . S
C3320 C3325 1.425 . S
C3320 C3327 1.409 . S
C3321 H3313 0.930 . S
C3321 C3319 1.419 . S
C3321 C3322 1.362 . S
C3322 H3314 0.930 . S
C3322 C3321 1.362 . S
C3322 C3325 1.409 . S
C3323 H3315 0.930 . S
C3323 C3324 1.355 . S
C3323 C3325 1.415 . S
C3324 C3323 1.355 . S
C3324 C3326 1.419 . S
C3325 C3320 1.425 . S
C3325 C3322 1.409 . S
C3325 C3323 1.415 . S
C3326 H3316 0.930 . S
C3326 C3324 1.419 . S
C3326 C3327 1.362 . S
C3327 H3317 0.930 . S
C3327 C3320 1.409 . S
C3327 C3326 1.362 . S
H3328 C3334 0.930 . S
H3329 C3337 0.930 . S
H3330 C3338 0.930 . S
H3331 C3339 0.930 . S
H3332 C3342 0.930 . S
H3333 C3343 0.930 . S
C3334 H3328 0.930 . S
C3334 C3335 1.355 . S
C3334 C3336 1.415 . S
C3335 C3334 1.355 . S
C3335 C3337 1.419 . S
C3336 C3334 1.415 . S
C3336 C3341 1.425 . S
C3336 C3343 1.409 . S
C3337 H3329 0.930 . S
C3337 C3335 1.419 . S
C3337 C3338 1.362 . S
C3338 H3330 0.930 . S
C3338 C3337 1.362 . S
C3338 C3341 1.409 . S
C3339 H3331 0.930 . S
C3339 C3340 1.355 . S
C3339 C3341 1.415 . S
C3340 C3339 1.355 . S
C3340 C3342 1.419 . S
C3341 C3336 1.425 . S
C3341 C3338 1.409 . S
C3341 C3339 1.415 . S
C3342 H3332 0.930 . S
C3342 C3340 1.419 . S
C3342 C3343 1.362 . S
C3343 H3333 0.930 . S
C3343 C3336 1.409 . S
C3343 C3342 1.362 . S
H3344 C3350 0.930 . S
H3345 C3353 0.930 . S
H3346 C3354 0.930 . S
H3347 C3355 0.930 . S
H3348 C3358 0.930 . S
H3349 C3359 0.930 . S
C3350 H3344 0.930 . S
C3350 C3351 1.355 . S
C3350 C3352 1.415 . S
C3351 C3350 1.355 . S
C3351 C3353 1.419 . S
C3352 C3350 1.415 . S
C3352 C3357 1.425 . S
C3352 C3359 1.409 . S
C3353 H3345 0.930 . S
C3353 C3351 1.419 . S
C3353 C3354 1.362 . S
C3354 H3346 0.930 . S
C3354 C3353 1.362 . S
C3354 C3357 1.409 . S
C3355 H3347 0.930 . S
C3355 C3356 1.355 . S
C3355 C3357 1.415 . S
C3356 C3355 1.355 . S
C3356 C3358 1.419 . S
C3357 C3352 1.425 . S
C3357 C3354 1.409 . S
C3357 C3355 1.415 . S
C3358 H3348 0.930 . S
C3358 C3356 1.419 . S
C3358 C3359 1.362 . S
C3359 H3349 0.930 . S
C3359 C3352 1.409 . S
C3359 C3358 1.362 . S
H3360 C3366 0.930 . S
H3361 C3369 0.930 . S
H3362 C3370 0.930 . S
H3363 C3371 0.930 . S
H3364 C3374 0.930 . S
H3365 C3375 0.930 . S
C3366 H3360 0.930 . S
C3366 C3367 1.355 . S
C3366 C3368 1.415 . S
C3367 C3366 1.355 . S
C3367 C3369 1.419 . S
C3368 C3366 1.415 . S
C3368 C3373 1.425 . S
C3368 C3375 1.409 . S
C3369 H3361 0.930 . S
C3369 C3367 1.419 . S
C3369 C3370 1.362 . S
C3370 H3362 0.930 . S
C3370 C3369 1.362 . S
C3370 C3373 1.409 . S
C3371 H3363 0.930 . S
C3371 C3372 1.355 . S
C3371 C3373 1.415 . S
C3372 C3371 1.355 . S
C3372 C3374 1.419 . S
C3373 C3368 1.425 . S
C3373 C3370 1.409 . S
C3373 C3371 1.415 . S
C3374 H3364 0.930 . S
C3374 C3372 1.419 . S
C3374 C3375 1.362 . S
C3375 H3365 0.930 . S
C3375 C3368 1.409 . S
C3375 C3374 1.362 . S
H3376 C3382 0.930 . S
H3377 C3385 0.930 . S
H3378 C3386 0.930 . S
H3379 C3387 0.930 . S
H3380 C3390 0.930 . S
H3381 C3391 0.930 . S
C3382 H3376 0.930 . S
C3382 C3383 1.355 . S
C3382 C3384 1.415 . S
C3383 C3382 1.355 . S
C3383 C3385 1.419 . S
C3384 C3382 1.415 . S
C3384 C3389 1.425 . S
C3384 C3391 1.409 . S
C3385 H3377 0.930 . S
C3385 C3383 1.419 . S
C3385 C3386 1.362 . S
C3386 H3378 0.930 . S
C3386 C3385 1.362 . S
C3386 C3389 1.409 . S
C3387 H3379 0.930 . S
C3387 C3388 1.355 . S
C3387 C3389 1.415 . S
C3388 C3387 1.355 . S
C3388 C3390 1.419 . S
C3389 C3384 1.425 . S
C3389 C3386 1.409 . S
C3389 C3387 1.415 . S
C3390 H3380 0.930 . S
C3390 C3388 1.419 . S
C3390 C3391 1.362 . S
C3391 H3381 0.930 . S
C3391 C3384 1.409 . S
C3391 C3390 1.362 . S
H3392 C3398 0.930 . S
H3393 C3401 0.930 . S
H3394 C3402 0.930 . S
H3395 C3403 0.930 . S
H3396 C3406 0.930 . S
H3397 C3407 0.930 . S
C3398 H3392 0.930 . S
C3398 C3399 1.355 . S
C3398 C3400 1.415 . S
C3399 C3398 1.355 . S
C3399 C3401 1.419 . S
C3400 C3398 1.415 . S
C3400 C3405 1.425 . S
C3400 C3407 1.409 . S
C3401 H3393 0.930 . S
C3401 C3399 1.419 . S
C3401 C3402 1.362 . S
C3402 H3394 0.930 . S
C3402 C3401 1.362 . S
C3402 C3405 1.409 . S
C3403 H3395 0.930 . S
C3403 C3404 1.355 . S
C3403 C3405 1.415 . S
C3404 C3403 1.355 . S
C3404 C3406 1.419 . S
C3405 C3400 1.425 . S
C3405 C3402 1.409 . S
C3405 C3403 1.415 . S
C3406 H3396 0.930 . S
C3406 C3404 1.419 . S
C3406 C3407 1.362 . S
C3407 H3397 0.930 . S
C3407 C3400 1.409 . S
C3407 C3406 1.362 . S
H3408 C3414 0.930 . S
H3409 C3417 0.930 . S
H3410 C3418 0.930 . S
H3411 C3419 0.930 . S
H3412 C3422 0.930 . S
H3413 C3423 0.930 . S
C3414 H3408 0.930 . S
C3414 C3415 1.355 . S
C3414 C3416 1.415 . S
C3415 C3414 1.355 . S
C3415 C3417 1.419 . S
C3416 C3414 1.415 . S
C3416 C3421 1.425 . S
C3416 C3423 1.409 . S
C3417 H3409 0.930 . S
C3417 C3415 1.419 . S
C3417 C3418 1.362 . S
C3418 H3410 0.930 . S
C3418 C3417 1.362 . S
C3418 C3421 1.409 . S
C3419 H3411 0.930 . S
C3419 C3420 1.355 . S
C3419 C3421 1.415 . S
C3420 C3419 1.355 . S
C3420 C3422 1.419 . S
C3421 C3416 1.425 . S
C3421 C3418 1.409 . S
C3421 C3419 1.415 . S
C3422 H3412 0.930 . S
C3422 C3420 1.419 . S
C3422 C3423 1.362 . S
C3423 H3413 0.930 . S
C3423 C3416 1.409 . S
C3423 C3422 1.362 . S
H3424 C3430 0.930 . S
H3425 C3433 0.930 . S
H3426 C3434 0.930 . S
H3427 C3435 0.930 . S
H3428 C3438 0.930 . S
H3429 C3439 0.930 . S
C3430 H3424 0.930 . S
C3430 C3431 1.355 . S
C3430 C3432 1.415 . S
C3431 C3430 1.355 . S
C3431 C3433 1.419 . S
C3432 C3430 1.415 . S
C3432 C3437 1.425 . S
C3432 C3439 1.409 . S
C3433 H3425 0.930 . S
C3433 C3431 1.419 . S
C3433 C3434 1.362 . S
C3434 H3426 0.930 . S
C3434 C3433 1.362 . S
C3434 C3437 1.409 . S
C3435 H3427 0.930 . S
C3435 C3436 1.355 . S
C3435 C3437 1.415 . S
C3436 C3435 1.355 . S
C3436 C3438 1.419 . S
C3437 C3432 1.425 . S
C3437 C3434 1.409 . S
C3437 C3435 1.415 . S
C3438 H3428 0.930 . S
C3438 C3436 1.419 . S
C3438 C3439 1.362 . S
C3439 H3429 0.930 . S
C3439 C3432 1.409 . S
C3439 C3438 1.362 . S
H3440 C3446 0.930 . S
H3441 C3449 0.930 . S
H3442 C3450 0.930 . S
H3443 C3451 0.930 . S
H3444 C3454 0.930 . S
H3445 C3455 0.930 . S
C3446 H3440 0.930 . S
C3446 C3447 1.355 . S
C3446 C3448 1.415 . S
C3447 C3446 1.355 . S
C3447 C3449 1.419 . S
C3448 C3446 1.415 . S
C3448 C3453 1.425 . S
C3448 C3455 1.409 . S
C3449 H3441 0.930 . S
C3449 C3447 1.419 . S
C3449 C3450 1.362 . S
C3450 H3442 0.930 . S
C3450 C3449 1.362 . S
C3450 C3453 1.409 . S
C3451 H3443 0.930 . S
C3451 C3452 1.355 . S
C3451 C3453 1.415 . S
C3452 C3451 1.355 . S
C3452 C3454 1.419 . S
C3453 C3448 1.425 . S
C3453 C3450 1.409 . S
C3453 C3451 1.415 . S
C3454 H3444 0.930 . S
C3454 C3452 1.419 . S
C3454 C3455 1.362 . S
C3455 H3445 0.930 . S
C3455 C3448 1.409 . S
C3455 C3454 1.362 . S
H3456 C3462 0.930 . S
H3457 C3465 0.930 . S
H3458 C3466 0.930 . S
H3459 C3467 0.930 . S
H3460 C3470 0.930 . S
H3461 C3471 0.930 . S
C3462 H3456 0.930 . S
C3462 C3463 1.355 . S
C3462 C3464 1.415 . S
C3463 C3462 1.355 . S
C3463 C3465 1.419 . S
C3464 C3462 1.415 . S
C3464 C3469 1.425 . S
C3464 C3471 1.409 . S
C3465 H3457 0.930 . S
C3465 C3463 1.419 . S
C3465 C3466 1.362 . S
C3466 H3458 0.930 . S
C3466 C3465 1.362 . S
C3466 C3469 1.409 . S
C3467 H3459 0.930 . S
C3467 C3468 1.355 . S
C3467 C3469 1.415 . S
C3468 C3467 1.355 . S
C3468 C3470 1.419 . S
C3469 C3464 1.425 . S
C3469 C3466 1.409 . S
C3469 C3467 1.415 . S
C3470 H3460 0.930 . S
C3470 C3468 1.419 . S
C3470 C3471 1.362 . S
C3471 H3461 0.930 . S
C3471 C3464 1.409 . S
C3471 C3470 1.362 . S
H3472 C3478 0.930 . S
H3473 C3481 0.930 . S
H3474 C3482 0.930 . S
H3475 C3483 0.930 . S
H3476 C3486 0.930 . S
H3477 C3487 0.930 . S
C3478 H3472 0.930 . S
C3478 C3479 1.355 . S
C3478 C3480 1.415 . S
C3479 C3478 1.355 . S
C3479 C3481 1.419 . S
C3480 C3478 1.415 . S
C3480 C3485 1.425 . S
C3480 C3487 1.409 . S
C3481 H3473 0.930 . S
C3481 C3479 1.419 . S
C3481 C3482 1.362 . S
C3482 H3474 0.930 . S
C3482 C3481 1.362 . S
C3482 C3485 1.409 . S
C3483 H3475 0.930 . S
C3483 C3484 1.355 . S
C3483 C3485 1.415 . S
C3484 C3483 1.355 . S
C3484 C3486 1.419 . S
C3485 C3480 1.425 . S
C3485 C3482 1.409 . S
C3485 C3483 1.415 . S
C3486 H3476 0.930 . S
C3486 C3484 1.419 . S
C3486 C3487 1.362 . S
C3487 H3477 0.930 . S
C3487 C3480 1.409 . S
C3487 C3486 1.362 . S
H3488 C3494 0.930 . S
H3489 C3497 0.930 . S
H3490 C3498 0.930 . S
H3491 C3499 0.930 . S
H3492 C3502 0.930 . S
H3493 C3503 0.930 . S
C3494 H3488 0.930 . S
C3494 C3495 1.355 . S
C3494 C3496 1.415 . S
C3495 C3494 1.355 . S
C3495 C3497 1.419 . S
C3496 C3494 1.415 . S
C3496 C3501 1.425 . S
C3496 C3503 1.409 . S
C3497 H3489 0.930 . S
C3497 C3495 1.419 . S
C3497 C3498 1.362 . S
C3498 H3490 0.930 . S
C3498 C3497 1.362 . S
C3498 C3501 1.409 . S
C3499 H3491 0.930 . S
C3499 C3500 1.355 . S
C3499 C3501 1.415 . S
C3500 C3499 1.355 . S
C3500 C3502 1.419 . S
C3501 C3496 1.425 . S
C3501 C3498 1.409 . S
C3501 C3499 1.415 . S
C3502 H3492 0.930 . S
C3502 C3500 1.419 . S
C3502 C3503 1.362 . S
C3503 H3493 0.930 . S
C3503 C3496 1.409 . S
C3503 C3502 1.362 . S
C1591 C1459 2.054 . S
C1596 C7 2.051 . S
C1607 C1360 2.004 . S
C1612 C40 2.003 . S
C1623 C1393 2.060 . S
C1628 C73 2.058 . S
C1639 C106 2.063 . S
C1644 C1426 2.063 . S
C1655 C139 2.040 . S
C1660 C1558 2.037 . S
C1671 C172 2.005 . S
C1676 C1492 2.007 . S
C1687 C205 2.003 . S
C1692 C1525 2.003 . S
C1703 C1327 2.059 . S
C1708 C238 2.061 . S
C1719 C1294 2.022 . S
C1724 C271 2.025 . S
C1735 C304 2.029 . S
C1740 C1195 2.025 . S
C1751 C337 2.061 . S
C1756 C1228 2.060 . S
C1767 C1261 2.003 . S
C1772 C370 2.003 . S
C1783 C403 2.010 . S
C1788 C1096 2.008 . S
C1799 C436 2.063 . S
C1804 C1129 2.063 . S
C1815 C1162 2.021 . S
C1820 C469 2.024 . S
C1831 C502 2.062 . S
C1836 C1063 2.061 . S
C1847 C535 2.060 . S
C1852 C1030 2.061 . S
C1863 C832 2.056 . S
C1868 C568 2.054 . S
C1879 C865 2.048 . S
C1884 C601 2.044 . S
C1895 C634 2.035 . S
C1900 C898 2.039 . S
C1911 C799 2.051 . S
C1916 C667 2.048 . S
C1927 C700 2.016 . S
C1932 C964 2.019 . S
C1943 C997 2.041 . S
C1948 C733 2.037 . S
C1959 C766 2.005 . S
C1964 C931 2.007 . S
C1975 N134 0.868 . S
C1980 N1388 0.883 . S
C1991 N1421 0.911 . S
C1996 N167 0.889 . S
C2007 N200 0.980 . S
C2012 N1454 0.967 . S
C2023 N1355 0.872 . S
C2028 N233 0.863 . S
C2039 N1520 0.974 . S
C2044 N2 0.983 . S
C2055 N35 0.947 . S
C2060 N1322 0.966 . S
C2071 N1553 0.959 . S
C2076 N68 0.938 . S
C2087 N1487 0.981 . S
C2092 N101 0.969 . S
C2103 N1091 0.979 . S
C2108 N464 0.966 . S
C2119 N497 0.862 . S
C2124 N1124 0.863 . S
C2135 N1157 0.905 . S
C2140 N398 0.928 . S
C2151 N431 0.862 . S
C2156 N1058 0.868 . S
C2167 N1289 0.984 . S
C2172 N332 0.984 . S
C2183 N1190 0.966 . S
C2188 N365 0.947 . S
C2199 N1223 0.959 . S
C2204 N266 0.939 . S
C2215 N1256 0.880 . S
C2220 N299 0.899 . S
C2231 N893 0.985 . S
C2236 N695 0.980 . S
C2247 N629 0.882 . S
C2252 N959 0.868 . S
C2263 N662 0.932 . S
C2268 N992 0.909 . S
C2279 N1025 0.963 . S
C2284 N563 0.944 . S
C2295 N596 0.973 . S
C2300 N926 0.957 . S
C2311 N827 0.985 . S
C2316 N530 0.980 . S
C2327 N761 0.885 . S
C2332 N860 0.905 . S
C2343 N794 0.916 . S
C2348 N728 0.939 . S
C2359 C117 1.747 . S
C2364 N13 1.630 . S
C2375 C18 1.758 . S
C2380 N46 1.638 . S
C2391 N79 1.653 . S
C2396 C51 1.727 . S
C2407 N112 1.630 . S
C2412 C84 1.747 . S
C2423 C183 1.729 . S
C2428 N145 1.670 . S
C2439 N178 1.712 . S
C2444 C216 1.766 . S
C2455 N211 1.713 . S
C2460 C249 1.762 . S
C2471 C150 1.775 . S
C2476 N244 1.670 . S
C2487 C612 1.768 . S
C2492 N277 1.712 . S
C2503 C645 1.736 . S
C2508 N310 1.689 . S
C2519 C678 1.748 . S
C2524 N343 1.630 . S
C2535 N376 1.709 . S
C2540 C579 1.753 . S
C2551 C744 1.759 . S
C2556 N409 1.639 . S
C2567 N442 1.633 . S
C2572 C546 1.733 . S
C2583 N475 1.711 . S
C2588 C777 1.770 . S
C2599 C711 1.747 . S
C2604 N508 1.704 . S
C2615 N541 1.685 . S
C2620 C315 1.734 . S
C2631 C513 1.769 . S
C2636 N574 1.655 . S
C2647 N607 1.704 . S
C2652 C414 1.747 . S
C2663 C447 1.732 . S
C2668 N640 1.681 . S
C2679 N673 1.630 . S
C2684 C480 1.737 . S
C2695 C381 1.776 . S
C2700 N706 1.676 . S
C2711 C282 1.728 . S
C2716 N739 1.646 . S
C2727 N772 1.669 . S
C2732 C348 1.775 . S
C2743 N805 1.696 . S
C2748 C909 1.740 . S
C2759 N838 1.695 . S
C2764 C810 1.777 . S
C2775 C843 1.754 . S
C2780 N871 1.634 . S
C2791 C876 1.749 . S
C2796 N904 1.706 . S
C2807 N937 1.652 . S
C2812 C975 1.727 . S
C2823 N970 1.673 . S
C2828 C1008 1.730 . S
C2839 N1003 1.709 . S
C2844 C1041 1.772 . S
C2855 C942 1.775 . S
C2860 N1036 1.672 . S
C2871 C1404 1.776 . S
C2876 N1069 1.675 . S
C2887 C1437 1.741 . S
C2892 N1102 1.629 . S
C2903 N1135 1.665 . S
C2908 C1470 1.773 . S
C2919 C1371 1.735 . S
C2924 N1168 1.686 . S
C2935 N1201 1.650 . S
C2940 C1536 1.727 . S
C2951 C1338 1.744 . S
C2956 N1234 1.701 . S
C2967 C1569 1.732 . S
C2972 N1267 1.679 . S
C2983 N1300 1.694 . S
C2988 C1503 1.739 . S
C2999 C1107 1.777 . S
C3004 N1333 1.681 . S
C3015 N1366 1.706 . S
C3020 C1305 1.749 . S
C3031 N1399 1.631 . S
C3036 C1206 1.736 . S
C3047 N1432 1.693 . S
C3052 C1239 1.739 . S
C3063 N1465 1.713 . S
C3068 C1272 1.764 . S
C3079 N1498 1.665 . S
C3084 C1173 1.773 . S
C3095 C1074 1.732 . S
C3100 N1531 1.678 . S
C3111 C1140 1.772 . S
C3116 N1564 1.708 . S
C3127 C21 0.933 . S
C3132 C318 0.982 . S
C3143 C351 0.942 . S
C3148 C54 0.988 . S
C3159 C384 0.959 . S
C3164 C87 0.943 . S
C3175 C285 0.985 . S
C3180 C120 0.935 . S
C3191 C153 0.933 . S
C3196 C516 0.982 . S
C3207 C417 0.962 . S
C3212 C186 0.941 . S
C3223 C219 0.988 . S
C3228 C450 0.940 . S
C3239 C252 0.988 . S
C3244 C483 0.942 . S
C3255 C615 0.970 . S
C3260 C549 0.936 . S
C3271 C747 0.944 . S
C3276 C582 0.988 . S
C3287 C780 0.988 . S
C3292 C648 0.942 . S
C3303 C714 0.946 . S
C3308 C681 0.987 . S
C3319 C813 0.983 . S
C3324 C1110 0.934 . S
C3335 C846 0.968 . S
C3340 C1143 0.974 . S
C3351 C1176 0.964 . S
C3356 C879 0.978 . S
C3367 C1077 0.934 . S
C3372 C912 0.976 . S
C3383 C1308 0.980 . S
C3388 C945 0.933 . S
C3399 C978 0.961 . S
C3404 C1209 0.941 . S
C3415 C1011 0.934 . S
C3420 C1242 0.983 . S
C3431 C1044 0.963 . S
C3436 C1275 0.940 . S
C3447 C1341 0.937 . S
C3452 C1407 0.987 . S
C3463 C1374 0.988 . S
C3468 C1539 0.943 . S
C3479 C1440 0.934 . S
C3484 C1572 0.983 . S
C3495 C1473 0.938 . S
C3500 C1506 0.987 . S
