# Generated by pormake.
# Topology sof, (5)-cn, num edge types: 1
# Building blocks:
#     Node 0, Type 0, BuildingBlock: XOMCOT_clean_sbu_0, # of connection points: 5
#     Node 1, Type 0, BuildingBlock: XOMCOT_clean_sbu_0, # of connection points: 5
#     Node 2, Type 0, BuildingBlock: XOMCOT_clean_sbu_0, # of connection points: 5
#     Node 3, Type 0, BuildingBlock: XOMCOT_clean_sbu_0, # of connection points: 5
#     Node 4, Type 0, BuildingBlock: XOMCOT_clean_sbu_0, # of connection points: 5
#     Node 5, Type 0, BuildingBlock: XOMCOT_clean_sbu_0, # of connection points: 5
#     Node 6, Type 0, BuildingBlock: XOMCOT_clean_sbu_0, # of connection points: 5
#     Node 7, Type 0, BuildingBlock: XOMCOT_clean_sbu_0, # of connection points: 5
#     Edge 8, Type (0, 0), BuildingBlock: TEMPAE_clean_linker_10, # of connection points: 2
#     Edge 9, Type (0, 0), BuildingBlock: TEMPAE_clean_linker_10, # of connection points: 2
#     Edge 10, Type (0, 0), BuildingBlock: TEMPAE_clean_linker_10, # of connection points: 2
#     Edge 11, Type (0, 0), BuildingBlock: TEMPAE_clean_linker_10, # of connection points: 2
#     Edge 12, Type (0, 0), BuildingBlock: TEMPAE_clean_linker_10, # of connection points: 2
#     Edge 13, Type (0, 0), BuildingBlock: TEMPAE_clean_linker_10, # of connection points: 2
#     Edge 14, Type (0, 0), BuildingBlock: TEMPAE_clean_linker_10, # of connection points: 2
#     Edge 15, Type (0, 0), BuildingBlock: TEMPAE_clean_linker_10, # of connection points: 2
#     Edge 16, Type (0, 0), BuildingBlock: TEMPAE_clean_linker_10, # of connection points: 2
#     Edge 17, Type (0, 0), BuildingBlock: TEMPAE_clean_linker_10, # of connection points: 2
#     Edge 18, Type (0, 0), BuildingBlock: TEMPAE_clean_linker_10, # of connection points: 2
#     Edge 19, Type (0, 0), BuildingBlock: TEMPAE_clean_linker_10, # of connection points: 2
#     Edge 20, Type (0, 0), BuildingBlock: TEMPAE_clean_linker_10, # of connection points: 2
#     Edge 21, Type (0, 0), BuildingBlock: TEMPAE_clean_linker_10, # of connection points: 2
#     Edge 22, Type (0, 0), BuildingBlock: TEMPAE_clean_linker_10, # of connection points: 2
#     Edge 23, Type (0, 0), BuildingBlock: TEMPAE_clean_linker_10, # of connection points: 2
#     Edge 24, Type (0, 0), BuildingBlock: TEMPAE_clean_linker_10, # of connection points: 2
#     Edge 25, Type (0, 0), BuildingBlock: TEMPAE_clean_linker_10, # of connection points: 2
#     Edge 26, Type (0, 0), BuildingBlock: TEMPAE_clean_linker_10, # of connection points: 2
#     Edge 27, Type (0, 0), BuildingBlock: TEMPAE_clean_linker_10, # of connection points: 2
# Relax obj value: 0.129
# Max RMSD: 0.156
# Mean RMSD: 0.156
data_MOF--net-sof--node1-XOMCOT_clean_sbu_0--edge1-TEMPAE_clean_linker_10
_symmetry_space_group_name_H-M    P1
_symmetry_Int_Tables_number       1
_symmetry_cell_setting            triclinic
loop_
_symmetry_equiv_pos_as_xyz
'x, y, z'
_cell_length_a     59.768722
_cell_length_b     17.76678
_cell_length_c     47.477731
_cell_angle_alpha  89.983506
_cell_angle_beta   89.955421
_cell_angle_gamma 89.958826
loop_
_atom_site_label
_atom_site_type_symbol
_atom_site_fract_x
_atom_site_fract_y
_atom_site_fract_z
_atom_type_partial_charge
Co0 Co 0.08175 0.08868 0.09657 0.0
C1 C 0.07942 0.92057 0.10019 0.0
C2 C 0.05887 0.97455 0.13115 0.0
C3 C 0.05638 0.89786 0.13391 0.0
N4 N 0.07392 0.98899 0.11062 0.0
N5 N 0.06925 0.86426 0.11434 0.0
H6 H 0.09005 0.91125 0.08221 0.0
H7 H 0.04995 0.017 0.14301 0.0
C8 C 0.08788 0.10202 0.15874 0.0
O9 O 0.09861 0.0374 0.1582 0.0
N10 N 0.08878 0.18788 0.08258 0.0
C11 C 0.10394 0.2055 0.06264 0.0
C12 C 0.1051 0.28273 0.06043 0.0
C13 C 0.08062 0.25415 0.09192 0.0
N14 N 0.09042 0.31301 0.07881 0.0
C15 C 0.1234 0.01888 0.08124 0.0
C16 C 0.15006 0.0988 0.11808 0.0
C17 C 0.16006 0.04443 0.10072 0.0
C18 C 0.14638 1.00541 0.08169 0.0
C19 C 0.12709 0.11177 0.11639 0.0
N20 N 0.11376 0.06858 0.09949 0.0
H21 H 0.11358 0.99158 0.06524 0.0
H22 H 0.12022 0.15796 0.12833 0.0
H23 H 0.11381 0.16508 0.05097 0.0
H24 H 0.06831 0.25926 0.10855 0.0
O25 O 0.07688 0.05379 0.05869 0.0
O26 O 0.05085 0.10385 0.08649 0.0
O27 O 0.08028 0.13059 0.13597 0.0
C28 C 0.05616 0.07376 0.0624 0.0
H29 H 0.04541 0.86902 0.14851 0.0
H30 H 0.11594 0.31427 0.04648 0.0
H31 H 0.1598 0.13175 0.13279 0.0
H32 H 0.15338 0.96625 0.06659 0.0
Co33 Co 0.40582 0.93589 0.09634 0.0
C34 C 0.4002 0.10038 0.1045 0.0
C35 C 0.42274 0.05193 0.13473 0.0
C36 C 0.42282 0.12894 0.13805 0.0
N37 N 0.40862 0.03411 0.11368 0.0
N38 N 0.40867 0.15925 0.11904 0.0
H39 H 0.3892 0.1057 0.0865 0.0
H40 H 0.43313 0.01207 0.14592 0.0
C41 C 0.42227 0.84765 0.14409 0.0
O42 O 0.4402 0.83549 0.12875 0.0
N43 N 0.40339 0.8362 0.07904 0.0
C44 C 0.40999 0.81582 0.05296 0.0
C45 C 0.4079 0.73921 0.05018 0.0
C46 C 0.39687 0.77112 0.09146 0.0
N47 N 0.39977 0.71048 0.07446 0.0
C48 C 0.36147 0.92888 0.07473 0.0
C49 C 0.34028 0.97325 0.12384 0.0
C50 C 0.32726 0.95845 0.09983 0.0
C51 C 0.33822 0.93507 0.07513 0.0
C52 C 0.36345 0.96443 0.12272 0.0
N53 N 0.37369 0.94302 0.09833 0.0
H54 H 0.36976 0.91276 0.05541 0.0
H55 H 0.37326 0.9766 0.14129 0.0
H56 H 0.41656 0.85311 0.03702 0.0
H57 H 0.39045 0.76817 0.1127 0.0
O58 O 0.41053 0.98286 0.06017 0.0
O59 O 0.43738 0.93788 0.08788 0.0
O60 O 0.40643 0.88795 0.13439 0.0
C61 C 0.43176 0.97238 0.06478 0.0
H62 H 0.43302 0.1605 0.15271 0.0
H63 H 0.41302 0.70728 0.0319 0.0
H64 H 0.33278 0.99305 0.14322 0.0
H65 H 0.329 0.92153 0.05619 0.0
Co66 Co 0.08272 0.43317 0.39691 0.0
C67 C 0.08333 0.60123 0.39002 0.0
C68 C 0.0595 0.5468 0.36325 0.0
C69 C 0.05709 0.62342 0.36023 0.0
N70 N 0.07616 0.53256 0.38167 0.0
N71 N 0.07212 0.65742 0.37706 0.0
H72 H 0.09535 0.61107 0.40646 0.0
H73 H 0.04922 0.50418 0.35343 0.0
C74 C 0.08919 0.41651 0.33503 0.0
O75 O 0.10029 0.48035 0.33528 0.0
N76 N 0.08837 0.33403 0.41194 0.0
C77 C 0.09934 0.31679 0.43585 0.0
C78 C 0.0999 0.23954 0.43862 0.0
C79 C 0.08244 0.26757 0.40046 0.0
N80 N 0.08936 0.20885 0.41628 0.0
C81 C 0.125 0.49764 0.41262 0.0
C82 C 0.15109 0.40968 0.37762 0.0
C83 C 0.16146 0.46421 0.39441 0.0
C84 C 0.14814 0.50773 0.41243 0.0
C85 C 0.1279 0.40139 0.37856 0.0
N86 N 0.11495 0.44825 0.39461 0.0
H87 H 0.1153 0.52798 0.42801 0.0
H88 H 0.12053 0.35557 0.36693 0.0
H89 H 0.10661 0.35749 0.45009 0.0
H90 H 0.0731 0.26217 0.38105 0.0
O91 O 0.0776 0.47151 0.43433 0.0
O92 O 0.05153 0.42251 0.40642 0.0
O93 O 0.08132 0.38944 0.35789 0.0
C94 C 0.05676 0.45356 0.43035 0.0
H95 H 0.04492 0.6519 0.34713 0.0
H96 H 0.10788 0.20834 0.45543 0.0
H97 H 0.16086 0.37218 0.36448 0.0
H98 H 0.15552 0.549 0.4264 0.0
Co99 Co 0.40776 0.56187 0.39046 0.0
C100 C 0.40698 0.39367 0.38382 0.0
C101 C 0.43129 0.44787 0.3576 0.0
C102 C 0.43369 0.37133 0.35462 0.0
N103 N 0.41437 0.46221 0.37567 0.0
N104 N 0.41837 0.33747 0.3711 0.0
H105 H 0.39459 0.38394 0.39986 0.0
H106 H 0.44172 0.49043 0.34795 0.0
C107 C 0.40126 0.57494 0.3284 0.0
O108 O 0.39058 0.51031 0.32902 0.0
N109 N 0.40204 0.66121 0.4051 0.0
C110 C 0.39083 0.67845 0.42886 0.0
C111 C 0.39023 0.75561 0.43161 0.0
C112 C 0.40809 0.72758 0.39368 0.0
N113 N 0.40102 0.78626 0.40941 0.0
C114 C 0.36586 0.49772 0.40768 0.0
C115 C 0.33913 0.58249 0.37238 0.0
C116 C 0.32907 0.52943 0.39016 0.0
C117 C 0.34273 0.48739 0.40824 0.0
C118 C 0.36232 0.59098 0.37254 0.0
N119 N 0.37555 0.54594 0.38892 0.0
H120 H 0.37587 0.46863 0.42311 0.0
H121 H 0.36947 0.63555 0.36001 0.0
H122 H 0.38344 0.63776 0.44303 0.0
H123 H 0.41765 0.7329 0.37443 0.0
O124 O 0.41344 0.52629 0.42819 0.0
O125 O 0.43907 0.57267 0.399 0.0
O126 O 0.40866 0.60401 0.35115 0.0
C127 C 0.43424 0.54353 0.42339 0.0
H128 H 0.44602 0.34278 0.34176 0.0
H129 H 0.38208 0.78679 0.44831 0.0
H130 H 0.32919 0.61759 0.35855 0.0
H131 H 0.33558 0.44847 0.42332 0.0
Co132 Co 0.90351 0.93968 0.89768 0.0
C133 C 0.90319 0.10543 0.8922 0.0
C134 C 0.92161 0.05239 0.85877 0.0
C135 C 0.92339 0.12925 0.85575 0.0
N136 N 0.90896 0.03772 0.88158 0.0
N137 N 0.91181 0.16243 0.87678 0.0
H138 H 0.89362 0.11269 0.91137 0.0
H139 H 0.92951 0.01012 0.84572 0.0
C140 C 0.88484 0.85517 0.84876 0.0
O141 O 0.86787 0.83531 0.86475 0.0
N142 N 0.89904 0.83964 0.91394 0.0
C143 C 0.89478 0.82179 0.94111 0.0
C144 C 0.89538 0.74478 0.94422 0.0
C145 C 0.90339 0.77275 0.90144 0.0
N146 N 0.90064 0.71408 0.91916 0.0
C147 C 0.86085 0.96044 0.92482 0.0
C148 C 0.83782 1.00371 0.87703 0.0
C149 C 0.82595 0.9938 0.90225 0.0
C150 C 0.83792 0.97418 0.92655 0.0
C151 C 0.8608 0.99006 0.87635 0.0
N152 N 0.87175 0.96362 0.89962 0.0
H153 H 0.86981 0.94857 0.9439 0.0
H154 H 0.86972 0.99878 0.85681 0.0
H155 H 0.89259 0.86139 0.95811 0.0
H156 H 0.90957 0.76673 0.88017 0.0
O157 O 0.91242 0.97715 0.93397 0.0
O158 O 0.93531 0.92665 0.9021 0.0
O159 O 0.90046 0.89666 0.85857 0.0
C160 C 0.9326 0.95753 0.92675 0.0
H161 H 0.93266 0.15849 0.8395 0.0
H162 H 0.89245 0.71391 0.96353 0.0
H163 H 0.82942 0.02009 0.85778 0.0
H164 H 0.82969 0.96993 0.94681 0.0
Co165 Co 0.58161 0.12471 0.89909 0.0
C166 C 0.57852 0.95888 0.89617 0.0
C167 C 0.56398 0.01145 0.85977 0.0
C168 C 0.56231 0.93454 0.85677 0.0
N169 N 0.57432 0.02648 0.88433 0.0
N170 N 0.5714 0.90173 0.87969 0.0
H171 H 0.58694 0.95169 0.91617 0.0
H172 H 0.55798 0.05336 0.8451 0.0
C173 C 0.59866 0.21066 0.84938 0.0
O174 O 0.6145 0.23836 0.86552 0.0
N175 N 0.58832 0.22451 0.91397 0.0
C176 C 0.60124 0.24367 0.93617 0.0
C177 C 0.60156 0.32074 0.93867 0.0
C178 C 0.58013 0.29059 0.90419 0.0
N179 N 0.58839 0.35014 0.91849 0.0
C180 C 0.62286 0.08064 0.92557 0.0
C181 C 0.64689 0.05841 0.87659 0.0
C182 C 0.65804 0.05351 0.90249 0.0
C183 C 0.6455 0.06205 0.92724 0.0
C184 C 0.62418 0.07642 0.87598 0.0
N185 N 0.61292 0.09395 0.90019 0.0
H186 H 0.61334 0.08408 0.94482 0.0
H187 H 0.61576 0.07607 0.85591 0.0
H188 H 0.60972 0.20559 0.95013 0.0
H189 H 0.56898 0.29512 0.88631 0.0
O190 O 0.57269 0.09278 0.93617 0.0
O191 O 0.55015 0.14445 0.9043 0.0
O192 O 0.58444 0.16416 0.85945 0.0
C193 C 0.55275 0.11547 0.92927 0.0
H194 H 0.55471 0.90498 0.83929 0.0
H195 H 0.61067 0.35279 0.95429 0.0
H196 H 0.65563 0.04984 0.85687 0.0
H197 H 0.65307 0.05422 0.94776 0.0
Co198 Co 0.90682 0.59394 0.599 0.0
C199 C 0.9062 0.42542 0.60484 0.0
C200 C 0.92826 0.47971 0.63394 0.0
C201 C 0.93057 0.40319 0.63707 0.0
N202 N 0.9127 0.49398 0.61404 0.0
N203 N 0.91666 0.36929 0.61877 0.0
H204 H 0.89523 0.4156 0.58729 0.0
H205 H 0.93778 0.52234 0.6449 0.0
C206 C 0.89589 0.60345 0.65983 0.0
O207 O 0.88577 0.53818 0.65721 0.0
N208 N 0.90198 0.69348 0.58409 0.0
C209 C 0.89272 0.71071 0.55904 0.0
C210 C 0.89238 0.78782 0.55619 0.0
C211 C 0.90709 0.75982 0.59621 0.0
N212 N 0.90135 0.8184 0.5796 0.0
C213 C 0.86565 0.52852 0.57909 0.0
C214 C 0.83759 0.61865 0.61069 0.0
C215 C 0.82814 0.56258 0.59368 0.0
C216 C 0.84255 0.51785 0.57739 0.0
C217 C 0.86075 0.62627 0.61212 0.0
N218 N 0.87459 0.57859 0.59771 0.0
H219 H 0.87626 0.49798 0.56473 0.0
H220 H 0.86745 0.67233 0.62428 0.0
H221 H 0.88654 0.67003 0.544 0.0
H222 H 0.91507 0.76519 0.61655 0.0
O223 O 0.91454 0.55919 0.56181 0.0
O224 O 0.93857 0.60478 0.59324 0.0
O225 O 0.90506 0.6348 0.63853 0.0
C226 C 0.93503 0.57639 0.56837 0.0
H227 H 0.94187 0.37474 0.65136 0.0
H228 H 0.8857 0.81904 0.5385 0.0
H229 H 0.82721 0.65765 0.62239 0.0
H230 H 0.83615 0.47506 0.56332 0.0
Co231 Co 0.58483 0.41602 0.59217 0.0
C232 C 0.58179 0.58169 0.5956 0.0
C233 C 0.56813 0.52938 0.63258 0.0
C234 C 0.5665 0.60643 0.63553 0.0
N235 N 0.57788 0.51408 0.60764 0.0
N236 N 0.575 0.63908 0.61221 0.0
H237 H 0.58972 0.58875 0.57526 0.0
H238 H 0.56248 0.48767 0.64754 0.0
C239 C 0.60044 0.32517 0.64146 0.0
O240 O 0.61655 0.298 0.62557 0.0
N241 N 0.59126 0.31666 0.57648 0.0
C242 C 0.6046 0.29788 0.55461 0.0
C243 C 0.60479 0.22083 0.55172 0.0
C244 C 0.58272 0.25039 0.58565 0.0
N245 N 0.59116 0.19097 0.57136 0.0
C246 C 0.62668 0.45988 0.56724 0.0
C247 C 0.65005 0.47625 0.61704 0.0
C248 C 0.66133 0.48401 0.59145 0.0
C249 C 0.64935 0.47841 0.56632 0.0
C250 C 0.62728 0.45924 0.61696 0.0
N251 N 0.61631 0.44478 0.59227 0.0
H252 H 0.6175 0.45791 0.54773 0.0
H253 H 0.61857 0.45825 0.63685 0.0
H254 H 0.61359 0.33628 0.54126 0.0
H255 H 0.57129 0.24559 0.60325 0.0
O256 O 0.57682 0.45258 0.55542 0.0
O257 O 0.55343 0.39806 0.58563 0.0
O258 O 0.58664 0.37321 0.63143 0.0
C259 C 0.55665 0.43048 0.56138 0.0
H260 H 0.55927 0.63615 0.65324 0.0
H261 H 0.61424 0.18912 0.5363 0.0
H262 H 0.65873 0.48384 0.63686 0.0
H263 H 0.6575 0.48713 0.54619 0.0
C264 C 0.19962 0.08945 0.10725 0.0
C265 C 0.18463 0.03047 0.10161 0.0
C266 C 0.22277 0.07695 0.10805 0.0
C267 C 0.23124 1.0043 0.10215 0.0
C268 C 0.21633 0.94459 0.09626 0.0
C269 C 0.19322 0.95811 0.0965 0.0
C270 C 0.23818 0.1417 0.11501 0.0
C271 C 0.2248 0.86667 0.08928 0.0
C272 C 0.29117 0.99458 0.07631 0.0
C273 C 0.30253 0.96887 0.10036 0.0
C274 C 0.26792 1.00471 0.07645 0.0
C275 C 0.25575 0.99124 0.10151 0.0
C276 C 0.26703 0.96614 0.12595 0.0
C277 C 0.29021 0.95412 0.12496 0.0
C278 C 0.25638 0.03009 0.04978 0.0
C279 C 0.25464 0.95276 0.15324 0.0
H280 H 0.19336 0.14594 0.11064 0.0
H281 H 0.18188 0.91169 0.09269 0.0
H282 H 0.2494 0.126 0.13268 0.0
H283 H 0.24894 0.1547 0.09661 0.0
H284 H 0.22885 0.19345 0.12093 0.0
H285 H 0.21099 0.82667 0.08472 0.0
H286 H 0.236 0.86924 0.07065 0.0
H287 H 0.2348 0.84416 0.10705 0.0
H288 H 0.30044 1.00787 0.05735 0.0
H289 H 0.29863 0.93286 0.14353 0.0
H290 H 0.24858 0.08605 0.05308 0.0
H291 H 0.24277 0.99027 0.04428 0.0
H292 H 0.26809 0.03403 0.03166 0.0
H293 H 0.24578 1.00489 0.15971 0.0
H294 H 0.26598 0.93523 0.17057 0.0
H295 H 0.24177 0.90852 0.15029 0.0
C296 C 0.29025 0.5827 0.38963 0.0
C297 C 0.30442 0.51979 0.39061 0.0
C298 C 0.26693 0.5743 0.39015 0.0
C299 C 0.25759 0.50127 0.39177 0.0
C300 C 0.27178 0.43753 0.39279 0.0
C301 C 0.29504 0.44757 0.39217 0.0
C302 C 0.25229 0.64358 0.38909 0.0
C303 C 0.26239 0.35877 0.39449 0.0
C304 C 0.19816 0.48205 0.4189 0.0
C305 C 0.18609 0.47371 0.39378 0.0
C306 C 0.22147 0.49094 0.41856 0.0
C307 C 0.23293 0.49157 0.39246 0.0
C308 C 0.22085 0.48312 0.36704 0.0
C309 C 0.19756 0.4742 0.36801 0.0
C310 C 0.23383 0.49941 0.4461 0.0
C311 C 0.23252 0.48385 0.33882 0.0
H312 H 0.2974 0.63871 0.38887 0.0
H313 H 0.30592 0.39874 0.3926 0.0
H314 H 0.24086 0.64043 0.37073 0.0
H315 H 0.24171 0.64647 0.40827 0.0
H316 H 0.2622 0.69629 0.38753 0.0
H317 H 0.27572 0.31522 0.39528 0.0
H318 H 0.25175 0.35306 0.41353 0.0
H319 H 0.25159 0.34759 0.37596 0.0
H320 H 0.1894 0.48057 0.4389 0.0
H321 H 0.18825 0.46857 0.34854 0.0
H322 H 0.2431 0.55349 0.44637 0.0
H323 H 0.24635 0.45368 0.44835 0.0
H324 H 0.22242 0.49784 0.46457 0.0
H325 H 0.24144 0.53804 0.3359 0.0
H326 H 0.2207 0.47608 0.32101 0.0
H327 H 0.24526 0.43846 0.33799 0.0
C328 C 0.78818 0.95332 0.91933 0.0
C329 C 0.80126 1.00285 0.90321 0.0
C330 C 0.76482 0.9599 0.92008 0.0
C331 C 0.75425 0.0168 0.90405 0.0
C332 C 0.76729 0.067 0.88772 0.0
C333 C 0.79066 0.05969 0.88762 0.0
C334 C 0.75144 0.90571 0.9379 0.0
C335 C 0.75655 0.12823 0.87027 0.0
C336 C 0.69316 0.99239 0.88452 0.0
C337 C 0.68259 0.0409 0.9037 0.0
C338 C 0.71648 0.98373 0.88448 0.0
C339 C 0.72951 0.02384 0.90431 0.0
C340 C 0.71895 0.07155 0.92412 0.0
C341 C 0.69564 0.07985 0.92347 0.0
C342 C 0.72721 0.93247 0.86298 0.0
C343 C 0.73231 0.11471 0.94574 0.0
H344 H 0.79619 0.90846 0.93107 0.0
H345 H 0.80063 0.09888 0.87545 0.0
H346 H 0.74104 0.93728 0.95324 0.0
H347 H 0.73988 0.87295 0.92437 0.0
H348 H 0.76227 0.86574 0.94965 0.0
H349 H 0.76907 0.16214 0.8585 0.0
H350 H 0.74471 0.10304 0.85496 0.0
H351 H 0.74676 0.16645 0.88404 0.0
H352 H 0.68319 0.96111 0.86949 0.0
H353 H 0.68767 0.11832 0.93808 0.0
H354 H 0.73711 0.88815 0.87374 0.0
H355 H 0.73896 0.96512 0.84963 0.0
H356 H 0.71468 0.90492 0.84913 0.0
H357 H 0.74279 0.07544 0.95824 0.0
H358 H 0.72146 0.14711 0.96038 0.0
H359 H 0.7438 0.15448 0.935 0.0
C360 C 0.70007 0.43816 0.59833 0.0
C361 C 0.6856 0.4968 0.59101 0.0
C362 C 0.7233 0.44862 0.59785 0.0
C363 C 0.73207 0.51998 0.59048 0.0
C364 C 0.7174 0.57955 0.58319 0.0
C365 C 0.69423 0.5669 0.58324 0.0
C366 C 0.73843 0.38339 0.60519 0.0
C367 C 0.72615 0.65675 0.5758 0.0
C368 C 0.79046 0.56272 0.61697 0.0
C369 C 0.80344 0.55232 0.59261 0.0
C370 C 0.76717 0.55405 0.61639 0.0
C371 C 0.75661 0.53251 0.59101 0.0
C372 C 0.76952 0.5213 0.56638 0.0
C373 C 0.79275 0.53219 0.56738 0.0
C374 C 0.75389 0.56749 0.643 0.0
C375 C 0.75882 0.49711 0.53903 0.0
H376 H 0.69316 0.3839 0.60416 0.0
H377 H 0.68282 0.61197 0.57766 0.0
H378 H 0.75038 0.37289 0.58773 0.0
H379 H 0.74843 0.39718 0.62417 0.0
H380 H 0.72892 0.33082 0.60934 0.0
H381 H 0.71249 0.69692 0.57068 0.0
H382 H 0.73595 0.67964 0.5937 0.0
H383 H 0.73762 0.6531 0.55747 0.0
H384 H 0.79852 0.57687 0.6367 0.0
H385 H 0.80248 0.52542 0.54829 0.0
H386 H 0.74562 0.51457 0.64971 0.0
H387 H 0.7405 0.60949 0.63904 0.0
H388 H 0.76452 0.58798 0.66059 0.0
H389 H 0.74983 0.44307 0.54209 0.0
H390 H 0.77126 0.48985 0.52185 0.0
H391 H 0.74626 0.5394 0.53228 0.0
C392 C 0.02209 0.11016 0.03573 0.0
C393 C 0.03917 0.05824 0.04096 0.0
C394 C 0.00544 0.09464 0.01577 0.0
C395 C 0.00549 0.02426 0.00175 0.0
C396 C 0.02272 0.9715 0.00717 0.0
C397 C 0.03965 0.98983 0.02638 0.0
C398 C 0.98775 0.15324 0.00983 0.0
C399 C 0.02288 0.89487 0.99341 0.0
C400 C 0.94921 0.95908 0.97451 0.0
C401 C 0.95155 0.97135 0.94557 0.0
C402 C 0.96693 0.97399 0.99297 0.0
C403 C 0.98705 1.00479 0.98221 0.0
C404 C 0.98937 0.01783 0.95292 0.0
C405 C 0.97166 0.99948 0.93482 0.0
C406 C 0.96413 0.95683 0.02393 0.0
C407 C 0.01028 0.053 0.94085 0.0
H408 H 0.02192 0.16321 0.04703 0.0
H409 H 0.05282 0.94949 0.03081 0.0
H410 H 0.98671 0.16412 0.98685 0.0
H411 H 0.97115 0.1323 0.01672 0.0
H412 H 0.99117 0.20725 0.02079 0.0
H413 H 0.03742 0.86021 0.0001 0.0
H414 H 0.00728 0.86424 -0.00118 0.0
H415 H 0.02332 0.90081 0.97016 0.0
H416 H 0.93359 0.93685 0.98264 0.0
H417 H 0.97323 0.00964 0.91238 0.0
H418 H 0.96484 0.0097 0.0363 0.0
H419 H 0.97803 0.92039 0.03132 0.0
H420 H 0.94801 0.92824 0.02853 0.0
H421 H 0.0131 0.10887 0.95067 0.0
H422 H 0.00927 0.06034 0.91765 0.0
H423 H 0.02506 0.01765 0.94578 0.0
C424 C 0.44708 0.06813 0.03203 0.0
C425 C 0.44864 0.99687 0.0444 0.0
C426 C 0.46353 0.09316 0.01315 0.0
C427 C 0.48131 0.04427 0.00576 0.0
C428 C 0.48254 0.97136 0.01775 0.0
C429 C 0.46639 0.94911 0.03745 0.0
C430 C 0.46215 0.17221 0.0016 0.0
C431 C 0.50084 0.91675 0.00967 0.0
C432 C 0.51335 0.07856 0.93801 0.0
C433 C 0.53381 0.10454 0.94843 0.0
C434 C 0.49591 0.05943 0.95645 0.0
C435 C 0.49889 0.06937 0.9858 0.0
C436 C 0.5192 0.09934 -0.00377 0.0
C437 C 0.53664 0.11508 0.9774 0.0
C438 C 0.47478 0.02522 0.94465 0.0
C439 C 0.52269 0.1132 0.0273 0.0
H440 H 0.43335 0.10501 0.03777 0.0
H441 H 0.46733 0.89371 0.04698 0.0
H442 H 0.47762 0.20358 0.00698 0.0
H443 H 0.46096 0.17076 0.9783 0.0
H444 H 0.44753 0.20363 0.01002 0.0
H445 H 0.49854 0.86062 0.01958 0.0
H446 H 0.50127 0.90957 0.98646 0.0
H447 H 0.51734 0.9393 0.01616 0.0
H448 H 0.51138 0.06969 0.91554 0.0
H449 H 0.55253 0.13562 0.9853 0.0
H450 H 0.45994 0.05763 0.95168 0.0
H451 H 0.47284 0.96697 0.95275 0.0
H452 H 0.47488 0.02336 0.92126 0.0
H453 H 0.50848 0.1459 0.03607 0.0
H454 H 0.53846 0.1442 0.03157 0.0
H455 H 0.52329 0.05873 0.03869 0.0
C456 C 0.02205 0.42071 0.45638 0.0
C457 C 0.03965 0.47088 0.45151 0.0
C458 C 0.00547 0.43728 0.47636 0.0
C459 C 0.00615 0.507 0.4908 0.0
C460 C 0.02382 0.5582 0.48562 0.0
C461 C 0.04064 0.53877 0.46637 0.0
C462 C 0.9873 0.38024 0.48204 0.0
C463 C 0.02466 0.63413 0.49987 0.0
C464 C 0.95077 0.57577 0.52004 0.0
C465 C 0.95347 0.56162 0.5488 0.0
C466 C 0.96809 0.56027 0.50098 0.0
C467 C 0.98811 0.52693 0.51093 0.0
C468 C 0.99076 0.51181 0.54003 0.0
C469 C 0.97351 0.53081 0.55875 0.0
C470 C 0.96498 0.57961 0.47025 0.0
C471 C 0.01154 0.4739 0.55125 0.0
H472 H 0.02148 0.368 0.44489 0.0
H473 H 0.05421 0.57776 0.46223 0.0
H474 H 0.98647 0.36759 0.50491 0.0
H475 H 0.97082 0.40359 0.47582 0.0
H476 H 0.99005 0.32681 0.47038 0.0
H477 H 0.03931 0.66798 0.49305 0.0
H478 H 0.00918 0.6662 0.49508 0.0
H479 H 0.0254 0.627 0.52306 0.0
H480 H 0.93522 0.60002 0.51254 0.0
H481 H 0.97535 0.51915 0.58106 0.0
H482 H 0.96516 0.52753 0.4574 0.0
H483 H 0.97902 0.6154 0.46286 0.0
H484 H 0.949 0.60978 0.46631 0.0
H485 H 0.01387 0.41864 0.54075 0.0
H486 H 0.01076 0.46474 0.57438 0.0
H487 H 0.02651 0.50841 0.54642 0.0
C488 C 0.47268 0.50196 0.43518 0.0
C489 C 0.45173 0.52753 0.44418 0.0
C490 C 0.48937 0.48368 0.45473 0.0
C491 C 0.48517 0.49407 0.48382 0.0
C492 C 0.46408 0.52115 0.49295 0.0
C493 C 0.4474 0.53619 0.47296 0.0
C494 C 0.5114 0.45269 0.44427 0.0
C495 C 0.4593 0.53545 0.52372 0.0
C496 C 0.52171 0.39206 0.53689 0.0
C497 C 0.53809 0.44635 0.54215 0.0
C498 C 0.50437 0.40658 0.51772 0.0
C499 C 0.50306 0.47808 0.50459 0.0
C500 C 0.51924 0.53387 0.51069 0.0
C501 C 0.53686 0.5167 0.52901 0.0
C502 C 0.48783 0.34498 0.511 0.0
C503 C 0.51796 0.61161 0.4979 0.0
H504 H 0.47582 0.49444 0.41285 0.0
H505 H 0.43114 0.55636 0.47975 0.0
H506 H 0.52516 0.49188 0.44973 0.0
H507 H 0.51504 0.39821 0.45475 0.0
H508 H 0.51147 0.44389 0.42111 0.0
H509 H 0.44222 0.55837 0.52722 0.0
H510 H 0.46104 0.48249 0.53589 0.0
H511 H 0.47167 0.57593 0.53231 0.0
H512 H 0.52287 0.33759 0.54711 0.0
H513 H 0.54949 0.55884 0.53352 0.0
H514 H 0.48827 0.33247 0.4881 0.0
H515 H 0.4706 0.36371 0.51611 0.0
H516 H 0.49137 0.29228 0.52278 0.0
H517 H 0.5202 0.60805 0.47475 0.0
H518 H 0.5309 0.65009 0.50653 0.0
H519 H 0.50122 0.63655 0.50182 0.0
C520 C 0.07324 0.30962 0.30746 0.0
C521 C 0.08763 0.37189 0.30887 0.0
C522 C 0.07219 0.26486 0.28319 0.0
C523 C 0.08607 0.28227 0.25994 0.0
C524 C 0.10054 0.34524 0.26116 0.0
C525 C 0.10103 0.38966 0.28556 0.0
C526 C 0.05637 0.19864 0.28253 0.0
C527 C 0.11582 0.36483 0.23688 0.0
C528 C 0.10021 0.12693 0.20811 0.0
C529 C 0.08655 0.14563 0.18516 0.0
C530 C 0.10011 0.17069 0.23269 0.0
C531 C 0.08576 0.23393 0.23445 0.0
C532 C 0.07152 0.25199 0.21163 0.0
C533 C 0.07221 0.20792 0.18715 0.0
C534 C 0.11573 0.1503 0.2565 0.0
C535 C 0.05572 0.3183 0.21296 0.0
H536 H 0.06278 0.29572 0.32538 0.0
H537 H 0.11228 0.4374 0.28657 0.0
H538 H 0.04513 0.20295 0.264 0.0
H539 H 0.06598 0.14555 0.28032 0.0
H540 H 0.04596 0.19489 0.30187 0.0
H541 H 0.12609 0.41562 0.2412 0.0
H542 H 0.12721 0.31692 0.23244 0.0
H543 H 0.10584 0.37495 0.21756 0.0
H544 H 0.11142 0.0791 0.20664 0.0
H545 H 0.06152 0.22241 0.16952 0.0
H546 H 0.10607 0.14057 0.27612 0.0
H547 H 0.12737 0.19766 0.26062 0.0
H548 H 0.12574 0.09905 0.25186 0.0
H549 H 0.04477 0.31353 0.23176 0.0
H550 H 0.04502 0.32265 0.19391 0.0
H551 H 0.06539 0.37124 0.21514 0.0
C552 C 0.39829 0.58158 0.27591 0.0
C553 C 0.40419 0.61563 0.30148 0.0
C554 C 0.40128 0.6194 0.25025 0.0
C555 C 0.4103 0.69306 0.25021 0.0
C556 C 0.41616 0.72793 0.27595 0.0
C557 C 0.41308 0.68873 0.30128 0.0
C558 C 0.39483 0.58054 0.22316 0.0
C559 C 0.42571 0.80661 0.27676 0.0
C560 C 0.43669 0.76467 0.18261 0.0
C561 C 0.41952 0.80974 0.17161 0.0
C562 C 0.43396 0.72665 0.20828 0.0
C563 C 0.41356 0.73374 0.22321 0.0
C564 C 0.3962 0.77937 0.21229 0.0
C565 C 0.39941 0.81694 0.18664 0.0
C566 C 0.45285 0.67857 0.21937 0.0
C567 C 0.37418 0.78804 0.22759 0.0
H568 H 0.39146 0.52509 0.2759 0.0
H569 H 0.41761 0.71562 0.32094 0.0
H570 H 0.3821 0.61444 0.21182 0.0
H571 H 0.40963 0.57584 0.20916 0.0
H572 H 0.38797 0.52326 0.2268 0.0
H573 H 0.42923 0.82586 0.29857 0.0
H574 H 0.44146 0.80879 0.26442 0.0
H575 H 0.41384 0.84674 0.26688 0.0
H576 H 0.45226 0.75877 0.17111 0.0
H577 H 0.38601 0.85146 0.17826 0.0
H578 H 0.44719 0.6194 0.22156 0.0
H579 H 0.45787 0.69826 0.24062 0.0
H580 H 0.46776 0.67977 0.20539 0.0
H581 H 0.36608 0.73225 0.23004 0.0
H582 H 0.36246 0.82614 0.21634 0.0
H583 H 0.37708 0.81069 0.24905 0.0
C584 C 0.86762 0.80356 0.80513 0.0
C585 C 0.88683 0.82386 0.82018 0.0
C586 C 0.86931 0.77098 0.77832 0.0
C587 C 0.89072 0.75658 0.76675 0.0
C588 C 0.91018 0.77726 0.78185 0.0
C589 C 0.90798 0.81163 0.80829 0.0
C590 C 0.84819 0.75124 0.76252 0.0
C591 C 0.93329 0.76116 0.77045 0.0
C592 C 0.89368 0.60136 0.71216 0.0
C593 C 0.89536 0.64268 0.68713 0.0
C594 C 0.89267 0.63781 0.73831 0.0
C595 C 0.89275 0.71745 0.73927 0.0
C596 C 0.89443 0.75946 0.71402 0.0
C597 C 0.89597 0.72145 0.68821 0.0
C598 C 0.89146 0.59114 0.76488 0.0
C599 C 0.89407 0.84442 0.71421 0.0
H600 H 0.85126 0.81353 0.81428 0.0
H601 H 0.92285 0.8267 0.82006 0.0
H602 H 0.8485 0.77697 0.74123 0.0
H603 H 0.84714 0.68938 0.75966 0.0
H604 H 0.83289 0.77058 0.77368 0.0
H605 H 0.9467 0.78184 0.78466 0.0
H606 H 0.93544 0.69961 0.76752 0.0
H607 H 0.93543 0.78791 0.74952 0.0
H608 H 0.89338 0.54038 0.71132 0.0
H609 H 0.89704 0.75345 0.6688 0.0
H610 H 0.87547 0.60218 0.77599 0.0
H611 H 0.90519 0.60718 0.77942 0.0
H612 H 0.89268 0.52983 0.76054 0.0
H613 H 0.87788 0.86452 0.72285 0.0
H614 H 0.89632 0.86846 0.6928 0.0
H615 H 0.90747 0.86651 0.72806 0.0
C616 C 0.5844 0.18759 0.80068 0.0
C617 C 0.59843 0.22793 0.81892 0.0
C618 C 0.58445 0.20166 0.77163 0.0
C619 C 0.59875 0.25782 0.7606 0.0
C620 C 0.61282 0.2992 0.77889 0.0
C621 C 0.61254 0.28358 0.80785 0.0
C622 C 0.56929 0.15617 0.75273 0.0
C623 C 0.62816 0.35995 0.76785 0.0
C624 C 0.61406 0.25176 0.68303 0.0
C625 C 0.59951 0.30585 0.67174 0.0
C626 C 0.61388 0.23508 0.71192 0.0
C627 C 0.59886 0.2737 0.7299 0.0
C628 C 0.58399 0.32781 0.71861 0.0
C629 C 0.58444 0.34302 0.68965 0.0
C630 C 0.62986 0.17656 0.72324 0.0
C631 C 0.56777 0.37022 0.73716 0.0
H632 H 0.5735 0.14428 0.80902 0.0
H633 H 0.62337 0.31514 0.82182 0.0
H634 H 0.55764 0.19409 0.74135 0.0
H635 H 0.57937 0.12617 0.73663 0.0
H636 H 0.5593 0.11411 0.76464 0.0
H637 H 0.63796 0.38726 0.78489 0.0
H638 H 0.63998 0.33573 0.75226 0.0
H639 H 0.61825 0.40376 0.75681 0.0
H640 H 0.6257 0.22257 0.66933 0.0
H641 H 0.57312 0.38486 0.68114 0.0
H642 H 0.62041 0.13146 0.73418 0.0
H643 H 0.64119 0.20252 0.73897 0.0
H644 H 0.64018 0.15058 0.70637 0.0
H645 H 0.55663 0.3301 0.7483 0.0
H646 H 0.55725 0.41033 0.72504 0.0
H647 H 0.57707 0.40206 0.75349 0.0
C648 C 0.07305 0.73446 0.13187 0.0
C649 C 0.07134 0.78473 0.10923 0.0
C650 C 0.07584 0.65691 0.12728 0.0
C651 C 0.07638 0.62884 0.09936 0.0
C652 C 0.07413 0.67935 0.07643 0.0
C653 C 0.07192 0.75685 0.08165 0.0
C654 C 0.07871 0.60528 0.15229 0.0
C655 C 0.07408 0.65157 0.04638 0.0
C656 C 0.10498 0.44168 0.08464 0.0
C657 C 0.08683 0.39185 0.08418 0.0
C658 C 0.10184 0.51872 0.08991 0.0
C659 C 0.07992 0.54693 0.09414 0.0
C660 C 0.06149 0.49684 0.09346 0.0
C661 C 0.0652 0.41966 0.08885 0.0
C662 C 0.122 0.56981 0.09117 0.0
C663 C 0.03783 0.52491 0.09724 0.0
H664 H 0.07278 0.7563 0.15317 0.0
H665 H 0.07032 0.79575 0.06418 0.0
H666 H 0.06556 0.56128 0.15219 0.0
H667 H 0.0951 0.57609 0.15092 0.0
H668 H 0.07788 0.63603 0.17264 0.0
H669 H 0.07093 0.6976 0.03104 0.0
H670 H 0.09042 0.62521 0.04133 0.0
H671 H 0.06104 0.60773 0.04365 0.0
H672 H 0.12173 0.41993 0.08138 0.0
H673 H 0.05117 0.38112 0.08824 0.0
H674 H 0.12252 0.5991 0.1118 0.0
H675 H 0.12077 0.61372 0.07464 0.0
H676 H 0.13795 0.53863 0.08822 0.0
H677 H 0.03598 0.55196 0.11816 0.0
H678 H 0.02531 0.47897 0.09549 0.0
H679 H 0.03403 0.56832 0.08112 0.0
C680 C 0.42397 0.28718 0.11368 0.0
C681 C 0.40558 0.23831 0.11334 0.0
C682 C 0.42146 0.36424 0.10788 0.0
C683 C 0.39989 0.39377 0.10223 0.0
C684 C 0.38116 0.34482 0.10239 0.0
C685 C 0.38428 0.26741 0.10753 0.0
C686 C 0.44197 0.4138 0.10729 0.0
C687 C 0.35783 0.37435 0.09732 0.0
C688 C 0.39546 0.60716 0.10958 0.0
C689 C 0.39738 0.6312 0.08144 0.0
C690 C 0.3951 0.53011 0.11658 0.0
C691 C 0.39728 0.47531 0.09507 0.0
C692 C 0.39852 0.49887 0.06664 0.0
C693 C 0.39821 0.57605 0.06019 0.0
C694 C 0.39325 0.50774 0.14716 0.0
C695 C 0.40114 0.44258 0.04301 0.0
H696 H 0.44048 0.26455 0.11786 0.0
H697 H 0.37004 0.22967 0.10754 0.0
H698 H 0.44361 0.44075 0.0863 0.0
H699 H 0.44028 0.45952 0.12306 0.0
H700 H 0.45756 0.38194 0.11181 0.0
H701 H 0.34493 0.32968 0.09941 0.0
H702 H 0.35401 0.41999 0.11255 0.0
H703 H 0.35666 0.39898 0.07591 0.0
H704 H 0.39487 0.64817 0.12639 0.0
H705 H 0.39909 0.59282 0.03833 0.0
H706 H 0.41 0.4914 0.15515 0.0
H707 H 0.38199 0.45861 0.14977 0.0
H708 H 0.38687 0.55473 0.16035 0.0
H709 H 0.4171 0.41136 0.04563 0.0
H710 H 0.40116 0.46976 0.02194 0.0
H711 H 0.38742 0.40066 0.0437 0.0
C712 C 0.08382 0.07791 0.43215 0.0
C713 C 0.0866 0.12989 0.41021 0.0
C714 C 0.08123 1.00077 0.42658 0.0
C715 C 0.08178 0.97479 0.39838 0.0
C716 C 0.08467 0.02703 0.37612 0.0
C717 C 0.08689 0.10399 0.3823 0.0
C718 C 0.0778 0.94711 0.45087 0.0
C719 C 0.08566 1.00157 0.34581 0.0
C720 C 0.09574 0.76794 0.38713 0.0
C721 C 0.07457 0.73706 0.38192 0.0
C722 C 0.09839 0.84541 0.39204 0.0
C723 C 0.07934 0.89292 0.39225 0.0
C724 C 0.05791 0.86192 0.38709 0.0
C725 C 0.05581 0.78448 0.38177 0.0
C726 C 0.12156 0.8764 0.39702 0.0
C727 C 0.03714 0.91037 0.38761 0.0
H728 H 0.08332 0.09785 0.4537 0.0
H729 H 0.08932 0.14387 0.36531 0.0
H730 H 0.06187 0.91595 0.44809 0.0
H731 H 0.09147 0.90488 0.45131 0.0
H732 H 0.07735 0.97651 0.47152 0.0
H733 H 0.08798 0.04932 0.33096 0.0
H734 H 0.09968 0.96132 0.34295 0.0
H735 H 0.07003 0.97154 0.34015 0.0
H736 H 0.11028 0.73146 0.38697 0.0
H737 H 0.0394 0.7606 0.37813 0.0
H738 H 0.12252 0.90203 0.41828 0.0
H739 H 0.12523 0.92151 0.38152 0.0
H740 H 0.1347 0.83236 0.39531 0.0
H741 H 0.03536 0.93732 0.40858 0.0
H742 H 0.02173 0.87762 0.38312 0.0
H743 H 0.03859 0.95617 0.37184 0.0
C744 C 0.40394 0.89125 0.37557 0.0
C745 C 0.40384 0.86519 0.40346 0.0
C746 C 0.40613 0.96826 0.36953 0.0
C747 C 0.40858 0.0203 0.39191 0.0
C748 C 0.40875 0.99416 0.42009 0.0
C749 C 0.40622 0.91698 0.42551 0.0
C750 C 0.40561 0.99399 0.33922 0.0
C751 C 0.41171 0.04769 0.44451 0.0
C752 C 0.43467 0.2107 0.37619 0.0
C753 C 0.41587 0.25791 0.3759 0.0
C754 C 0.43254 0.13325 0.38136 0.0
C755 C 0.41105 0.10212 0.38592 0.0
C756 C 0.39196 0.14942 0.3853 0.0
C757 C 0.39463 0.22691 0.38053 0.0
C758 C 0.45333 0.08496 0.38235 0.0
C759 C 0.36873 0.11818 0.38968 0.0
H760 H 0.40182 0.85147 0.35849 0.0
H761 H 0.40643 0.89688 0.44705 0.0
H762 H 0.39165 0.03437 0.33609 0.0
H763 H 0.42133 0.02397 0.33394 0.0
H764 H 0.40349 0.94639 0.32429 0.0
H765 H 0.41182 0.01815 0.46514 0.0
H766 H 0.42765 0.07904 0.44216 0.0
H767 H 0.39799 0.08978 0.44463 0.0
H768 H 0.45113 0.23474 0.373 0.0
H769 H 0.38009 0.2633 0.38003 0.0
H770 H 0.45218 0.03926 0.36651 0.0
H771 H 0.45478 0.05788 0.40334 0.0
H772 H 0.4688 0.11786 0.37827 0.0
H773 H 0.36535 0.07322 0.37404 0.0
H774 H 0.35559 0.16214 0.38771 0.0
H775 H 0.36745 0.09231 0.41088 0.0
C776 C 0.91017 0.58395 0.93303 0.0
C777 C 0.90278 0.63517 0.91257 0.0
C778 C 0.91181 0.50672 0.92707 0.0
C779 C 0.90566 0.47986 0.90007 0.0
C780 C 0.89824 0.53134 0.87929 0.0
C781 C 0.89701 0.60839 0.88575 0.0
C782 C 0.92019 0.45387 0.94964 0.0
C783 C 0.89133 0.50498 0.85033 0.0
C784 C 0.92814 0.28992 0.87631 0.0
C785 C 0.91015 0.24195 0.88242 0.0
C786 C 0.92691 0.36739 0.88193 0.0
C787 C 0.90708 0.39789 0.89363 0.0
C788 C 0.88876 0.34983 0.89959 0.0
C789 C 0.89059 0.27233 0.89412 0.0
C790 C 0.94693 0.41644 0.87569 0.0
C791 C 0.86723 0.38033 0.9117 0.0
H792 H 0.91492 0.60446 0.95365 0.0
H793 H 0.89102 0.64764 0.86999 0.0
H794 H 0.90718 0.41134 0.95458 0.0
H795 H 0.93513 0.42298 0.94196 0.0
H796 H 0.92467 0.48388 0.96937 0.0
H797 H 0.88599 0.55224 0.83655 0.0
H798 H 0.90543 0.47515 0.84 0.0
H799 H 0.87732 0.46434 0.85214 0.0
H800 H 0.94339 0.2665 0.86764 0.0
H801 H 0.87659 0.23549 0.89858 0.0
H802 H 0.95273 0.44413 0.89531 0.0
H803 H 0.94222 0.46168 0.86071 0.0
H804 H 0.96108 0.384 0.86656 0.0
H805 H 0.87047 0.40677 0.93246 0.0
H806 H 0.85435 0.33584 0.91444 0.0
H807 H 0.86039 0.42471 0.89768 0.0
C808 C 0.57023 0.79402 0.91248 0.0
C809 C 0.57318 0.8222 0.88516 0.0
C810 C 0.57166 0.71642 0.91797 0.0
C811 C 0.57665 0.66603 0.89569 0.0
C812 C 0.57974 0.69436 0.86807 0.0
C813 C 0.57774 0.77201 0.86311 0.0
C814 C 0.56786 0.68836 0.9476 0.0
C815 C 0.58558 0.64285 0.84386 0.0
C816 C 0.60328 0.47898 0.9153 0.0
C817 C 0.5853 0.42892 0.91245 0.0
C818 C 0.60072 0.55601 0.90965 0.0
C819 C 0.57953 0.58408 0.90145 0.0
C820 C 0.56126 0.53381 0.89864 0.0
C821 C 0.56443 0.45658 0.90387 0.0
C822 C 0.62076 0.60727 0.91228 0.0
C823 C 0.53832 0.56174 0.8904 0.0
H824 H 0.56643 0.83273 0.92946 0.0
H825 H 0.58024 0.79386 0.84204 0.0
H826 H 0.55453 0.64493 0.94772 0.0
H827 H 0.58332 0.6614 0.95568 0.0
H828 H 0.563 0.73434 0.96224 0.0
H829 H 0.58723 0.67371 0.82362 0.0
H830 H 0.6016 0.61356 0.84831 0.0
H831 H 0.57255 0.59892 0.84143 0.0
H832 H 0.6195 0.45745 0.92151 0.0
H833 H 0.55051 0.41793 0.90186 0.0
H834 H 0.61748 0.65117 0.92837 0.0
H835 H 0.6238 0.63657 0.89199 0.0
H836 H 0.63619 0.57624 0.91827 0.0
H837 H 0.53254 0.60482 0.90569 0.0
H838 H 0.52579 0.51565 0.88962 0.0
H839 H 0.53904 0.58918 0.86944 0.0
C840 C 0.90887 0.94808 0.56398 0.0
C841 C 0.90389 0.89726 0.58566 0.0
C842 C 0.91118 0.02526 0.56944 0.0
C843 C 0.90808 0.05233 0.59722 0.0
C844 C 0.90291 1.00129 0.61919 0.0
C845 C 0.9011 0.92417 0.61319 0.0
C846 C 0.91699 0.0778 0.54553 0.0
C847 C 0.8992 0.02821 0.649 0.0
C848 C 0.93298 0.2419 0.6166 0.0
C849 C 0.91446 0.28975 0.61373 0.0
C850 C 0.93115 0.16447 0.6113 0.0
C851 C 0.91022 0.13412 0.60322 0.0
C852 C 0.8914 0.18205 0.60057 0.0
C853 C 0.89379 0.25941 0.6057 0.0
C854 C 0.95166 0.11531 0.61397 0.0
C855 C 0.86874 0.15158 0.59239 0.0
H856 H 0.91128 0.92716 0.54276 0.0
H857 H 0.89702 0.885 0.62992 0.0
H858 H 0.9036 0.12048 0.54289 0.0
H859 H 0.93267 0.10853 0.55043 0.0
H860 H 0.91922 0.04755 0.52524 0.0
H861 H 0.89347 0.98233 0.66313 0.0
H862 H 0.915 0.0517 0.65751 0.0
H863 H 0.88657 0.07399 0.64937 0.0
H864 H 0.94904 0.26534 0.62243 0.0
H865 H 0.87941 0.29619 0.6038 0.0
H866 H 0.95521 0.08738 0.59355 0.0
H867 H 0.94865 0.07027 0.62971 0.0
H868 H 0.96669 0.14772 0.62044 0.0
H869 H 0.86969 0.12481 0.57132 0.0
H870 H 0.8557 0.19615 0.59181 0.0
H871 H 0.86348 0.10748 0.60756 0.0
C872 C 0.58132 0.76967 0.62803 0.0
C873 C 0.57647 0.71862 0.60637 0.0
C874 C 0.58315 0.84723 0.62264 0.0
C875 C 0.57959 0.87472 0.59498 0.0
C876 C 0.57425 0.82346 0.57312 0.0
C877 C 0.57299 0.74598 0.57902 0.0
C878 C 0.58934 0.89958 0.64643 0.0
C879 C 0.56993 0.85044 0.54346 0.0
C880 C 0.56728 0.0844 0.58633 0.0
C881 C 0.58804 0.11195 0.57725 0.0
C882 C 0.56415 1.0072 0.59182 0.0
C883 C 0.58236 0.95665 0.58873 0.0
C884 C 0.60343 0.9845 0.5799 0.0
C885 C 0.60594 0.06152 0.57407 0.0
C886 C 0.54134 0.97963 0.60073 0.0
C887 C 0.62341 0.93303 0.57689 0.0
H888 H 0.58422 0.74856 0.64913 0.0
H889 H 0.56895 0.70671 0.56233 0.0
H890 H 0.60529 0.92863 0.64144 0.0
H891 H 0.57635 0.94364 0.64897 0.0
H892 H 0.5913 0.86943 0.66679 0.0
H893 H 0.56474 0.80398 0.52924 0.0
H894 H 0.55665 0.89413 0.54352 0.0
H895 H 0.58527 0.87675 0.53476 0.0
H896 H 0.55339 0.12314 0.58863 0.0
H897 H 0.62211 0.08273 0.56751 0.0
H898 H 0.54236 0.95316 0.62186 0.0
H899 H 0.53539 0.93585 0.58586 0.0
H900 H 0.52879 0.02574 0.60151 0.0
H901 H 0.62685 0.90459 0.59724 0.0
H902 H 0.63871 0.96372 0.5702 0.0
H903 H 0.61982 0.88847 0.56118 0.0
loop_
_geom_bond_atom_site_label_1
_geom_bond_atom_site_label_2
_geom_bond_distance
_geom_bond_site_symmetry_2
_ccdc_geom_bond_type
Co0 N4 2.148 1_545 S
Co0 N10 2.128 . S
Co0 N20 2.194 . S
Co0 O25 2.351 . S
Co0 O26 2.155 . S
Co0 O27 2.096 . S
C1 N4 1.301 . S
C1 N5 1.328 . S
C1 H6 0.930 . S
C2 C3 1.333 . S
C2 N4 1.317 . S
C2 H7 0.930 . S
C3 C2 1.333 . S
C3 N5 1.350 . S
C3 H29 0.931 . S
N4 Co0 2.148 1_565 S
N4 C1 1.301 . S
N4 C2 1.317 . S
N5 C1 1.328 . S
N5 C3 1.350 . S
H6 C1 0.930 . S
H7 C2 0.930 . S
C8 O9 1.224 . S
C8 O27 1.247 . S
O9 C8 1.224 . S
N10 Co0 2.128 . S
N10 C11 1.355 . S
N10 C13 1.311 . S
C11 N10 1.355 . S
C11 C12 1.363 . S
C11 H23 0.929 . S
C12 C11 1.363 . S
C12 N14 1.375 . S
C12 H30 0.931 . S
C13 N10 1.311 . S
C13 N14 1.347 . S
C13 H24 0.929 . S
N14 C12 1.375 . S
N14 C13 1.347 . S
C15 C18 1.365 . S
C15 N20 1.328 . S
C15 H21 0.929 . S
C16 C17 1.362 . S
C16 C19 1.378 . S
C16 H31 0.929 . S
C17 C16 1.362 . S
C17 C18 1.366 . S
C18 C15 1.365 . S
C18 C17 1.366 . S
C18 H32 0.930 . S
C19 C16 1.378 . S
C19 N20 1.315 . S
C19 H22 0.930 . S
N20 Co0 2.194 . S
N20 C15 1.328 . S
N20 C19 1.315 . S
H21 C15 0.929 . S
H22 C19 0.930 . S
H23 C11 0.929 . S
H24 C13 0.929 . S
O25 Co0 2.351 . S
O25 C28 1.244 . S
O26 Co0 2.155 . S
O26 C28 1.240 . S
O27 Co0 2.096 . S
O27 C8 1.247 . S
C28 O25 1.244 . S
C28 O26 1.240 . S
H29 C3 0.931 . S
H30 C12 0.931 . S
H31 C16 0.929 . S
H32 C18 0.930 . S
Co33 N37 2.148 1_565 S
Co33 N43 2.128 . S
Co33 N53 2.194 . S
Co33 O58 2.351 . S
Co33 O59 2.155 . S
Co33 O60 2.096 . S
C34 N37 1.301 . S
C34 N38 1.328 . S
C34 H39 0.930 . S
C35 C36 1.333 . S
C35 N37 1.317 . S
C35 H40 0.930 . S
C36 C35 1.333 . S
C36 N38 1.350 . S
C36 H62 0.931 . S
N37 Co33 2.148 1_545 S
N37 C34 1.301 . S
N37 C35 1.317 . S
N38 C34 1.328 . S
N38 C36 1.350 . S
H39 C34 0.930 . S
H40 C35 0.930 . S
C41 O42 1.224 . S
C41 O60 1.247 . S
O42 C41 1.224 . S
N43 Co33 2.128 . S
N43 C44 1.355 . S
N43 C46 1.311 . S
C44 N43 1.355 . S
C44 C45 1.363 . S
C44 H56 0.929 . S
C45 C44 1.363 . S
C45 N47 1.375 . S
C45 H63 0.931 . S
C46 N43 1.311 . S
C46 N47 1.347 . S
C46 H57 0.929 . S
N47 C45 1.375 . S
N47 C46 1.347 . S
C48 C51 1.365 . S
C48 N53 1.328 . S
C48 H54 0.929 . S
C49 C50 1.362 . S
C49 C52 1.378 . S
C49 H64 0.929 . S
C50 C49 1.362 . S
C50 C51 1.366 . S
C51 C48 1.365 . S
C51 C50 1.366 . S
C51 H65 0.930 . S
C52 C49 1.378 . S
C52 N53 1.315 . S
C52 H55 0.930 . S
N53 Co33 2.194 . S
N53 C48 1.328 . S
N53 C52 1.315 . S
H54 C48 0.929 . S
H55 C52 0.930 . S
H56 C44 0.929 . S
H57 C46 0.929 . S
O58 Co33 2.351 . S
O58 C61 1.244 . S
O59 Co33 2.155 . S
O59 C61 1.240 . S
O60 Co33 2.096 . S
O60 C41 1.247 . S
C61 O58 1.244 . S
C61 O59 1.240 . S
H62 C36 0.931 . S
H63 C45 0.931 . S
H64 C49 0.929 . S
H65 C51 0.930 . S
Co66 N70 2.148 . S
Co66 N76 2.128 . S
Co66 N86 2.194 . S
Co66 O91 2.351 . S
Co66 O92 2.155 . S
Co66 O93 2.096 . S
C67 N70 1.301 . S
C67 N71 1.328 . S
C67 H72 0.930 . S
C68 C69 1.333 . S
C68 N70 1.317 . S
C68 H73 0.930 . S
C69 C68 1.333 . S
C69 N71 1.350 . S
C69 H95 0.931 . S
N70 Co66 2.148 . S
N70 C67 1.301 . S
N70 C68 1.317 . S
N71 C67 1.328 . S
N71 C69 1.350 . S
H72 C67 0.930 . S
H73 C68 0.930 . S
C74 O75 1.224 . S
C74 O93 1.247 . S
O75 C74 1.224 . S
N76 Co66 2.128 . S
N76 C77 1.355 . S
N76 C79 1.311 . S
C77 N76 1.355 . S
C77 C78 1.363 . S
C77 H89 0.929 . S
C78 C77 1.363 . S
C78 N80 1.375 . S
C78 H96 0.931 . S
C79 N76 1.311 . S
C79 N80 1.347 . S
C79 H90 0.929 . S
N80 C78 1.375 . S
N80 C79 1.347 . S
C81 C84 1.365 . S
C81 N86 1.328 . S
C81 H87 0.929 . S
C82 C83 1.362 . S
C82 C85 1.378 . S
C82 H97 0.929 . S
C83 C82 1.362 . S
C83 C84 1.366 . S
C84 C81 1.365 . S
C84 C83 1.366 . S
C84 H98 0.930 . S
C85 C82 1.378 . S
C85 N86 1.315 . S
C85 H88 0.930 . S
N86 Co66 2.194 . S
N86 C81 1.328 . S
N86 C85 1.315 . S
H87 C81 0.929 . S
H88 C85 0.930 . S
H89 C77 0.929 . S
H90 C79 0.929 . S
O91 Co66 2.351 . S
O91 C94 1.244 . S
O92 Co66 2.155 . S
O92 C94 1.240 . S
O93 Co66 2.096 . S
O93 C74 1.247 . S
C94 O91 1.244 . S
C94 O92 1.240 . S
H95 C69 0.931 . S
H96 C78 0.931 . S
H97 C82 0.929 . S
H98 C84 0.930 . S
Co99 N103 2.148 . S
Co99 N109 2.128 . S
Co99 N119 2.194 . S
Co99 O124 2.351 . S
Co99 O125 2.155 . S
Co99 O126 2.096 . S
C100 N103 1.301 . S
C100 N104 1.328 . S
C100 H105 0.930 . S
C101 C102 1.333 . S
C101 N103 1.317 . S
C101 H106 0.930 . S
C102 C101 1.333 . S
C102 N104 1.350 . S
C102 H128 0.931 . S
N103 Co99 2.148 . S
N103 C100 1.301 . S
N103 C101 1.317 . S
N104 C100 1.328 . S
N104 C102 1.350 . S
H105 C100 0.930 . S
H106 C101 0.930 . S
C107 O108 1.224 . S
C107 O126 1.247 . S
O108 C107 1.224 . S
N109 Co99 2.128 . S
N109 C110 1.355 . S
N109 C112 1.311 . S
C110 N109 1.355 . S
C110 C111 1.363 . S
C110 H122 0.929 . S
C111 C110 1.363 . S
C111 N113 1.375 . S
C111 H129 0.931 . S
C112 N109 1.311 . S
C112 N113 1.347 . S
C112 H123 0.929 . S
N113 C111 1.375 . S
N113 C112 1.347 . S
C114 C117 1.365 . S
C114 N119 1.328 . S
C114 H120 0.929 . S
C115 C116 1.362 . S
C115 C118 1.378 . S
C115 H130 0.929 . S
C116 C115 1.362 . S
C116 C117 1.366 . S
C117 C114 1.365 . S
C117 C116 1.366 . S
C117 H131 0.930 . S
C118 C115 1.378 . S
C118 N119 1.315 . S
C118 H121 0.930 . S
N119 Co99 2.194 . S
N119 C114 1.328 . S
N119 C118 1.315 . S
H120 C114 0.929 . S
H121 C118 0.930 . S
H122 C110 0.929 . S
H123 C112 0.929 . S
O124 Co99 2.351 . S
O124 C127 1.244 . S
O125 Co99 2.155 . S
O125 C127 1.240 . S
O126 Co99 2.096 . S
O126 C107 1.247 . S
C127 O124 1.244 . S
C127 O125 1.240 . S
H128 C102 0.931 . S
H129 C111 0.931 . S
H130 C115 0.929 . S
H131 C117 0.930 . S
Co132 N136 2.148 1_565 S
Co132 N142 2.128 . S
Co132 N152 2.194 . S
Co132 O157 2.351 . S
Co132 O158 2.155 . S
Co132 O159 2.096 . S
C133 N136 1.301 . S
C133 N137 1.328 . S
C133 H138 0.930 . S
C134 C135 1.333 . S
C134 N136 1.317 . S
C134 H139 0.930 . S
C135 C134 1.333 . S
C135 N137 1.350 . S
C135 H161 0.931 . S
N136 Co132 2.148 1_545 S
N136 C133 1.301 . S
N136 C134 1.317 . S
N137 C133 1.328 . S
N137 C135 1.350 . S
H138 C133 0.930 . S
H139 C134 0.930 . S
C140 O141 1.224 . S
C140 O159 1.247 . S
O141 C140 1.224 . S
N142 Co132 2.128 . S
N142 C143 1.355 . S
N142 C145 1.311 . S
C143 N142 1.355 . S
C143 C144 1.363 . S
C143 H155 0.929 . S
C144 C143 1.363 . S
C144 N146 1.375 . S
C144 H162 0.931 . S
C145 N142 1.311 . S
C145 N146 1.347 . S
C145 H156 0.929 . S
N146 C144 1.375 . S
N146 C145 1.347 . S
C147 C150 1.365 . S
C147 N152 1.328 . S
C147 H153 0.929 . S
C148 C149 1.362 . S
C148 C151 1.378 . S
C148 H163 0.929 . S
C149 C148 1.362 . S
C149 C150 1.366 . S
C150 C147 1.365 . S
C150 C149 1.366 . S
C150 H164 0.930 . S
C151 C148 1.378 . S
C151 N152 1.315 . S
C151 H154 0.930 . S
N152 Co132 2.194 . S
N152 C147 1.328 . S
N152 C151 1.315 . S
H153 C147 0.929 . S
H154 C151 0.930 . S
H155 C143 0.929 . S
H156 C145 0.929 . S
O157 Co132 2.351 . S
O157 C160 1.244 . S
O158 Co132 2.155 . S
O158 C160 1.240 . S
O159 Co132 2.096 . S
O159 C140 1.247 . S
C160 O157 1.244 . S
C160 O158 1.240 . S
H161 C135 0.931 . S
H162 C144 0.931 . S
H163 C148 0.929 . S
H164 C150 0.930 . S
Co165 N169 2.148 1_545 S
Co165 N175 2.128 . S
Co165 N185 2.194 . S
Co165 O190 2.351 . S
Co165 O191 2.155 . S
Co165 O192 2.096 . S
C166 N169 1.301 . S
C166 N170 1.328 . S
C166 H171 0.930 . S
C167 C168 1.333 . S
C167 N169 1.317 . S
C167 H172 0.930 . S
C168 C167 1.333 . S
C168 N170 1.350 . S
C168 H194 0.931 . S
N169 Co165 2.148 1_565 S
N169 C166 1.301 . S
N169 C167 1.317 . S
N170 C166 1.328 . S
N170 C168 1.350 . S
H171 C166 0.930 . S
H172 C167 0.930 . S
C173 O174 1.224 . S
C173 O192 1.247 . S
O174 C173 1.224 . S
N175 Co165 2.128 . S
N175 C176 1.355 . S
N175 C178 1.311 . S
C176 N175 1.355 . S
C176 C177 1.363 . S
C176 H188 0.929 . S
C177 C176 1.363 . S
C177 N179 1.375 . S
C177 H195 0.931 . S
C178 N175 1.311 . S
C178 N179 1.347 . S
C178 H189 0.929 . S
N179 C177 1.375 . S
N179 C178 1.347 . S
C180 C183 1.365 . S
C180 N185 1.328 . S
C180 H186 0.929 . S
C181 C182 1.362 . S
C181 C184 1.378 . S
C181 H196 0.929 . S
C182 C181 1.362 . S
C182 C183 1.366 . S
C183 C180 1.365 . S
C183 C182 1.366 . S
C183 H197 0.930 . S
C184 C181 1.378 . S
C184 N185 1.315 . S
C184 H187 0.930 . S
N185 Co165 2.194 . S
N185 C180 1.328 . S
N185 C184 1.315 . S
H186 C180 0.929 . S
H187 C184 0.930 . S
H188 C176 0.929 . S
H189 C178 0.929 . S
O190 Co165 2.351 . S
O190 C193 1.244 . S
O191 Co165 2.155 . S
O191 C193 1.240 . S
O192 Co165 2.096 . S
O192 C173 1.247 . S
C193 O190 1.244 . S
C193 O191 1.240 . S
H194 C168 0.931 . S
H195 C177 0.931 . S
H196 C181 0.929 . S
H197 C183 0.930 . S
Co198 N202 2.148 . S
Co198 N208 2.128 . S
Co198 N218 2.194 . S
Co198 O223 2.351 . S
Co198 O224 2.155 . S
Co198 O225 2.096 . S
C199 N202 1.301 . S
C199 N203 1.328 . S
C199 H204 0.930 . S
C200 C201 1.333 . S
C200 N202 1.317 . S
C200 H205 0.930 . S
C201 C200 1.333 . S
C201 N203 1.350 . S
C201 H227 0.931 . S
N202 Co198 2.148 . S
N202 C199 1.301 . S
N202 C200 1.317 . S
N203 C199 1.328 . S
N203 C201 1.350 . S
H204 C199 0.930 . S
H205 C200 0.930 . S
C206 O207 1.224 . S
C206 O225 1.247 . S
O207 C206 1.224 . S
N208 Co198 2.128 . S
N208 C209 1.355 . S
N208 C211 1.311 . S
C209 N208 1.355 . S
C209 C210 1.363 . S
C209 H221 0.929 . S
C210 C209 1.363 . S
C210 N212 1.375 . S
C210 H228 0.931 . S
C211 N208 1.311 . S
C211 N212 1.347 . S
C211 H222 0.929 . S
N212 C210 1.375 . S
N212 C211 1.347 . S
C213 C216 1.365 . S
C213 N218 1.328 . S
C213 H219 0.929 . S
C214 C215 1.362 . S
C214 C217 1.378 . S
C214 H229 0.929 . S
C215 C214 1.362 . S
C215 C216 1.366 . S
C216 C213 1.365 . S
C216 C215 1.366 . S
C216 H230 0.930 . S
C217 C214 1.378 . S
C217 N218 1.315 . S
C217 H220 0.930 . S
N218 Co198 2.194 . S
N218 C213 1.328 . S
N218 C217 1.315 . S
H219 C213 0.929 . S
H220 C217 0.930 . S
H221 C209 0.929 . S
H222 C211 0.929 . S
O223 Co198 2.351 . S
O223 C226 1.244 . S
O224 Co198 2.155 . S
O224 C226 1.240 . S
O225 Co198 2.096 . S
O225 C206 1.247 . S
C226 O223 1.244 . S
C226 O224 1.240 . S
H227 C201 0.931 . S
H228 C210 0.931 . S
H229 C214 0.929 . S
H230 C216 0.930 . S
Co231 N235 2.148 . S
Co231 N241 2.128 . S
Co231 N251 2.194 . S
Co231 O256 2.351 . S
Co231 O257 2.155 . S
Co231 O258 2.096 . S
C232 N235 1.301 . S
C232 N236 1.328 . S
C232 H237 0.930 . S
C233 C234 1.333 . S
C233 N235 1.317 . S
C233 H238 0.930 . S
C234 C233 1.333 . S
C234 N236 1.350 . S
C234 H260 0.931 . S
N235 Co231 2.148 . S
N235 C232 1.301 . S
N235 C233 1.317 . S
N236 C232 1.328 . S
N236 C234 1.350 . S
H237 C232 0.930 . S
H238 C233 0.930 . S
C239 O240 1.224 . S
C239 O258 1.247 . S
O240 C239 1.224 . S
N241 Co231 2.128 . S
N241 C242 1.355 . S
N241 C244 1.311 . S
C242 N241 1.355 . S
C242 C243 1.363 . S
C242 H254 0.929 . S
C243 C242 1.363 . S
C243 N245 1.375 . S
C243 H261 0.931 . S
C244 N241 1.311 . S
C244 N245 1.347 . S
C244 H255 0.929 . S
N245 C243 1.375 . S
N245 C244 1.347 . S
C246 C249 1.365 . S
C246 N251 1.328 . S
C246 H252 0.929 . S
C247 C248 1.362 . S
C247 C250 1.378 . S
C247 H262 0.929 . S
C248 C247 1.362 . S
C248 C249 1.366 . S
C249 C246 1.365 . S
C249 C248 1.366 . S
C249 H263 0.930 . S
C250 C247 1.378 . S
C250 N251 1.315 . S
C250 H253 0.930 . S
N251 Co231 2.194 . S
N251 C246 1.328 . S
N251 C250 1.315 . S
H252 C246 0.929 . S
H253 C250 0.930 . S
H254 C242 0.929 . S
H255 C244 0.929 . S
O256 Co231 2.351 . S
O256 C259 1.244 . S
O257 Co231 2.155 . S
O257 C259 1.240 . S
O258 Co231 2.096 . S
O258 C239 1.247 . S
C259 O256 1.244 . S
C259 O257 1.240 . S
H260 C234 0.931 . S
H261 C243 0.931 . S
H262 C247 0.929 . S
H263 C249 0.930 . S
C264 C265 1.391 . S
C264 C266 1.394 . S
C264 H280 0.931 . S
C265 C264 1.391 . S
C265 C269 1.376 1_545 S
C266 C264 1.394 . S
C266 C267 1.369 . S
C266 C270 1.531 . S
C267 C266 1.369 . S
C267 C268 1.410 1_545 S
C267 C275 1.503 1_545 S
C268 C267 1.410 1_565 S
C268 C269 1.392 . S
C268 C271 1.511 . S
C269 C265 1.376 1_565 S
C269 C268 1.392 . S
C269 H281 0.929 . S
C270 C266 1.531 . S
C270 H282 0.960 . S
C270 H283 0.962 . S
C270 H284 0.960 . S
C271 C268 1.511 . S
C271 H285 0.961 . S
C271 H286 0.961 . S
C271 H287 0.961 . S
C272 C273 1.370 . S
C272 C274 1.363 1_565 S
C272 H288 0.931 1_565 S
C273 C272 1.370 . S
C273 C277 1.408 . S
C274 C272 1.363 1_545 S
C274 C275 1.370 1_545 S
C274 C278 1.524 . S
C275 C267 1.503 1_565 S
C275 C274 1.370 1_565 S
C275 C276 1.403 . S
C276 C275 1.403 . S
C276 C277 1.404 . S
C276 C279 1.539 . S
C277 C273 1.408 . S
C277 C276 1.404 . S
C277 H289 0.930 . S
C278 C274 1.524 . S
C278 H290 0.956 . S
C278 H291 0.961 . S
C278 H292 0.961 . S
C279 C276 1.539 . S
C279 H293 0.958 . S
C279 H294 0.961 . S
C279 H295 0.960 . S
H280 C264 0.931 . S
H281 C269 0.929 . S
H282 C270 0.960 . S
H283 C270 0.962 . S
H284 C270 0.960 . S
H285 C271 0.961 . S
H286 C271 0.961 . S
H287 C271 0.961 . S
H288 C272 0.931 1_545 S
H289 C277 0.930 . S
H290 C278 0.956 . S
H291 C278 0.961 . S
H292 C278 0.961 . S
H293 C279 0.958 . S
H294 C279 0.961 . S
H295 C279 0.960 . S
C296 C297 1.391 . S
C296 C298 1.394 . S
C296 H312 0.931 . S
C297 C296 1.391 . S
C297 C301 1.376 . S
C298 C296 1.394 . S
C298 C299 1.369 . S
C298 C302 1.531 . S
C299 C298 1.369 . S
C299 C300 1.410 . S
C299 C307 1.503 . S
C300 C299 1.410 . S
C300 C301 1.392 . S
C300 C303 1.511 . S
C301 C297 1.376 . S
C301 C300 1.392 . S
C301 H313 0.929 . S
C302 C298 1.531 . S
C302 H314 0.960 . S
C302 H315 0.962 . S
C302 H316 0.960 . S
C303 C300 1.511 . S
C303 H317 0.961 . S
C303 H318 0.961 . S
C303 H319 0.961 . S
C304 C305 1.370 . S
C304 C306 1.363 . S
C304 H320 0.931 . S
C305 C304 1.370 . S
C305 C309 1.408 . S
C306 C304 1.363 . S
C306 C307 1.370 . S
C306 C310 1.524 . S
C307 C299 1.503 . S
C307 C306 1.370 . S
C307 C308 1.403 . S
C308 C307 1.403 . S
C308 C309 1.404 . S
C308 C311 1.539 . S
C309 C305 1.408 . S
C309 C308 1.404 . S
C309 H321 0.930 . S
C310 C306 1.524 . S
C310 H322 0.956 . S
C310 H323 0.961 . S
C310 H324 0.961 . S
C311 C308 1.539 . S
C311 H325 0.958 . S
C311 H326 0.961 . S
C311 H327 0.960 . S
H312 C296 0.931 . S
H313 C301 0.929 . S
H314 C302 0.960 . S
H315 C302 0.962 . S
H316 C302 0.960 . S
H317 C303 0.961 . S
H318 C303 0.961 . S
H319 C303 0.961 . S
H320 C304 0.931 . S
H321 C309 0.930 . S
H322 C310 0.956 . S
H323 C310 0.961 . S
H324 C310 0.961 . S
H325 C311 0.958 . S
H326 C311 0.961 . S
H327 C311 0.960 . S
C328 C329 1.391 . S
C328 C330 1.394 . S
C328 H344 0.931 . S
C329 C328 1.391 . S
C329 C333 1.376 . S
C330 C328 1.394 . S
C330 C331 1.369 1_565 S
C330 C334 1.531 . S
C331 C330 1.369 1_545 S
C331 C332 1.410 . S
C331 C339 1.503 . S
C332 C331 1.410 . S
C332 C333 1.392 1_545 S
C332 C335 1.511 . S
C333 C329 1.376 . S
C333 C332 1.392 1_565 S
C333 H345 0.929 . S
C334 C330 1.531 . S
C334 H346 0.960 1_565 S
C334 H347 0.962 . S
C334 H348 0.986 . S
C335 C332 1.511 . S
C335 H349 0.961 . S
C335 H350 0.961 . S
C335 H351 0.961 . S
C336 C337 1.370 1_565 S
C336 C338 1.363 . S
C336 H352 0.931 . S
C337 C336 1.370 1_545 S
C337 C341 1.408 . S
C338 C336 1.363 . S
C338 C339 1.370 1_565 S
C338 C342 1.524 . S
C339 C331 1.503 . S
C339 C338 1.370 1_545 S
C339 C340 1.403 . S
C340 C339 1.403 . S
C340 C341 1.404 . S
C340 C343 1.539 . S
C341 C337 1.408 . S
C341 C340 1.404 . S
C341 H353 0.930 . S
C342 C338 1.524 . S
C342 H354 0.956 . S
C342 H355 0.961 . S
C342 H356 0.961 . S
C343 C340 1.539 . S
C343 H357 0.958 . S
C343 H358 0.961 . S
C343 H359 0.960 . S
H344 C328 0.931 . S
H345 C333 0.929 . S
H346 C334 0.960 1_545 S
H347 C334 0.962 . S
H348 C334 0.986 . S
H349 C335 0.961 . S
H350 C335 0.961 . S
H351 C335 0.961 . S
H352 C336 0.931 . S
H353 C341 0.930 . S
H354 C342 0.956 . S
H355 C342 0.961 . S
H356 C342 0.961 . S
H357 C343 0.958 . S
H358 C343 0.961 . S
H359 C343 0.960 . S
C360 C361 1.391 . S
C360 C362 1.394 . S
C360 H376 0.931 . S
C361 C360 1.391 . S
C361 C365 1.376 . S
C362 C360 1.394 . S
C362 C363 1.369 . S
C362 C366 1.531 . S
C363 C362 1.369 . S
C363 C364 1.410 . S
C363 C371 1.503 . S
C364 C363 1.410 . S
C364 C365 1.392 . S
C364 C367 1.511 . S
C365 C361 1.376 . S
C365 C364 1.392 . S
C365 H377 0.929 . S
C366 C362 1.531 . S
C366 H378 0.960 . S
C366 H379 0.962 . S
C366 H380 0.960 . S
C367 C364 1.511 . S
C367 H381 0.961 . S
C367 H382 0.961 . S
C367 H383 0.961 . S
C368 C369 1.370 . S
C368 C370 1.363 . S
C368 H384 0.931 . S
C369 C368 1.370 . S
C369 C373 1.408 . S
C370 C368 1.363 . S
C370 C371 1.370 . S
C370 C374 1.524 . S
C371 C363 1.503 . S
C371 C370 1.370 . S
C371 C372 1.403 . S
C372 C371 1.403 . S
C372 C373 1.404 . S
C372 C375 1.539 . S
C373 C369 1.408 . S
C373 C372 1.404 . S
C373 H385 0.930 . S
C374 C370 1.524 . S
C374 H386 0.956 . S
C374 H387 0.961 . S
C374 H388 0.961 . S
C375 C372 1.539 . S
C375 H389 0.958 . S
C375 H390 0.961 . S
C375 H391 0.960 . S
H376 C360 0.931 . S
H377 C365 0.929 . S
H378 C366 0.960 . S
H379 C366 0.962 . S
H380 C366 0.960 . S
H381 C367 0.961 . S
H382 C367 0.961 . S
H383 C367 0.961 . S
H384 C368 0.931 . S
H385 C373 0.930 . S
H386 C374 0.956 . S
H387 C374 0.961 . S
H388 C374 0.961 . S
H389 C375 0.958 . S
H390 C375 0.961 . S
H391 C375 0.960 . S
C392 C393 1.391 . S
C392 C394 1.394 . S
C392 H408 0.931 . S
C393 C392 1.391 . S
C393 C397 1.376 1_545 S
C394 C392 1.394 . S
C394 C395 1.369 . S
C394 C398 1.531 1_455 S
C395 C394 1.369 . S
C395 C396 1.410 1_545 S
C395 C403 1.503 1_444 S
C396 C395 1.410 1_565 S
C396 C397 1.392 . S
C396 C399 1.511 1_554 S
C397 C393 1.376 1_565 S
C397 C396 1.392 . S
C397 H409 0.929 . S
C398 C394 1.531 1_655 S
C398 H410 0.960 . S
C398 H411 0.962 . S
C398 H412 0.960 . S
C399 C396 1.511 1_556 S
C399 H413 0.961 . S
C399 H414 0.961 . S
C399 H415 0.961 . S
C400 C401 1.370 . S
C400 C402 1.385 . S
C400 H416 0.931 . S
C401 C400 1.370 . S
C401 C405 1.408 1_565 S
C402 C400 1.385 . S
C402 C403 1.387 . S
C402 C406 1.487 1_556 S
C403 C395 1.503 1_666 S
C403 C402 1.387 . S
C403 C404 1.403 1_565 S
C404 C403 1.403 1_545 S
C404 C405 1.404 . S
C404 C407 1.539 1_655 S
C405 C401 1.408 1_545 S
C405 C404 1.404 . S
C405 H417 0.930 . S
C406 C402 1.487 1_554 S
C406 H418 0.956 . S
C406 H419 0.961 . S
C406 H420 0.961 . S
C407 C404 1.539 1_455 S
C407 H421 0.946 1_455 S
C407 H422 0.961 . S
C407 H423 0.960 . S
H408 C392 0.931 . S
H409 C397 0.929 . S
H410 C398 0.960 . S
H411 C398 0.962 . S
H412 C398 0.960 . S
H413 C399 0.961 . S
H414 C399 0.961 . S
H415 C399 0.961 . S
H416 C400 0.931 . S
H417 C405 0.930 . S
H418 C406 0.956 . S
H419 C406 0.961 . S
H420 C406 0.961 . S
H421 C407 0.946 1_655 S
H422 C407 0.961 . S
H423 C407 0.960 . S
C424 C425 1.391 1_545 S
C424 C426 1.394 . S
C424 H440 0.931 . S
C425 C424 1.391 1_565 S
C425 C429 1.376 . S
C426 C424 1.394 . S
C426 C427 1.369 1_545 S
C426 C430 1.531 . S
C427 C426 1.369 1_565 S
C427 C428 1.410 . S
C427 C435 1.503 1_564 S
C428 C427 1.410 . S
C428 C429 1.392 . S
C428 C431 1.511 . S
C429 C425 1.376 . S
C429 C428 1.392 . S
C429 H441 0.929 . S
C430 C426 1.531 . S
C430 H442 0.960 . S
C430 H443 0.992 . S
C430 H444 0.960 . S
C431 C428 1.511 . S
C431 H445 0.961 . S
C431 H446 0.961 1_554 S
C431 H447 0.961 . S
C432 C433 1.370 . S
C432 C434 1.363 . S
C432 H448 0.931 . S
C433 C432 1.370 . S
C433 C437 1.408 . S
C434 C432 1.363 . S
C434 C435 1.370 . S
C434 C438 1.524 1_545 S
C435 C427 1.503 1_546 S
C435 C434 1.370 . S
C435 C436 1.403 1_556 S
C436 C435 1.403 1_554 S
C436 C437 1.404 1_554 S
C436 C439 1.539 . S
C437 C433 1.408 . S
C437 C436 1.404 1_556 S
C437 H449 0.930 . S
C438 C434 1.524 1_565 S
C438 H450 0.956 1_565 S
C438 H451 0.961 . S
C438 H452 0.961 . S
C439 C436 1.539 . S
C439 H453 0.958 . S
C439 H454 0.961 . S
C439 H455 0.960 1_545 S
H440 C424 0.931 . S
H441 C429 0.929 . S
H442 C430 0.960 . S
H443 C430 0.992 . S
H444 C430 0.960 . S
H445 C431 0.961 . S
H446 C431 0.961 1_556 S
H447 C431 0.961 . S
H448 C432 0.931 . S
H449 C437 0.930 . S
H450 C438 0.956 1_545 S
H451 C438 0.961 . S
H452 C438 0.961 . S
H453 C439 0.958 . S
H454 C439 0.961 . S
H455 C439 0.960 1_565 S
C456 C457 1.391 . S
C456 C458 1.394 . S
C456 H472 0.931 . S
C457 C456 1.391 . S
C457 C461 1.376 . S
C458 C456 1.394 . S
C458 C459 1.369 . S
C458 C462 1.531 1_455 S
C459 C458 1.369 . S
C459 C460 1.410 . S
C459 C467 1.503 1_455 S
C460 C459 1.410 . S
C460 C461 1.392 . S
C460 C463 1.511 . S
C461 C457 1.376 . S
C461 C460 1.392 . S
C461 H473 0.929 . S
C462 C458 1.531 1_655 S
C462 H474 0.960 . S
C462 H475 0.962 . S
C462 H476 0.960 . S
C463 C460 1.511 . S
C463 H477 0.961 . S
C463 H478 0.961 . S
C463 H479 0.961 . S
C464 C465 1.370 . S
C464 C466 1.363 . S
C464 H480 0.931 . S
C465 C464 1.370 . S
C465 C469 1.408 . S
C466 C464 1.363 . S
C466 C467 1.370 . S
C466 C470 1.524 . S
C467 C459 1.503 1_655 S
C467 C466 1.370 . S
C467 C468 1.403 . S
C468 C467 1.403 . S
C468 C469 1.404 . S
C468 C471 1.539 . S
C469 C465 1.408 . S
C469 C468 1.404 . S
C469 H481 0.930 . S
C470 C466 1.524 . S
C470 H482 0.956 . S
C470 H483 0.929 1_655 S
C470 H484 0.961 . S
C471 C468 1.539 . S
C471 H485 0.958 . S
C471 H486 0.961 . S
C471 H487 0.960 1_655 S
H472 C456 0.931 . S
H473 C461 0.929 . S
H474 C462 0.960 . S
H475 C462 0.962 . S
H476 C462 0.960 . S
H477 C463 0.961 . S
H478 C463 0.961 . S
H479 C463 0.961 . S
H480 C464 0.931 . S
H481 C469 0.930 . S
H482 C470 0.956 . S
H483 C470 0.929 1_455 S
H484 C470 0.961 . S
H485 C471 0.958 . S
H486 C471 0.961 . S
H487 C471 0.960 1_455 S
C488 C489 1.391 . S
C488 C490 1.394 . S
C488 H504 0.931 . S
C489 C488 1.391 . S
C489 C493 1.376 . S
C490 C488 1.394 . S
C490 C491 1.369 . S
C490 C494 1.531 . S
C491 C490 1.369 . S
C491 C492 1.410 . S
C491 C499 1.503 . S
C492 C491 1.410 . S
C492 C493 1.392 . S
C492 C495 1.511 . S
C493 C489 1.376 . S
C493 C492 1.392 . S
C493 H505 0.929 . S
C494 C490 1.531 . S
C494 H506 0.960 . S
C494 H507 0.962 . S
C494 H508 0.960 . S
C495 C492 1.511 . S
C495 H509 0.961 . S
C495 H510 0.961 . S
C495 H511 0.961 . S
C496 C497 1.370 . S
C496 C498 1.363 . S
C496 H512 0.931 . S
C497 C496 1.370 . S
C497 C501 1.408 . S
C498 C496 1.363 . S
C498 C499 1.370 . S
C498 C502 1.524 . S
C499 C491 1.503 . S
C499 C498 1.370 . S
C499 C500 1.403 . S
C500 C499 1.403 . S
C500 C501 1.404 . S
C500 C503 1.539 . S
C501 C497 1.408 . S
C501 C500 1.404 . S
C501 H513 0.930 . S
C502 C498 1.524 . S
C502 H514 0.956 . S
C502 H515 0.961 . S
C502 H516 0.961 . S
C503 C500 1.539 . S
C503 H517 0.958 . S
C503 H518 0.961 . S
C503 H519 0.960 . S
H504 C488 0.931 . S
H505 C493 0.929 . S
H506 C494 0.960 . S
H507 C494 0.962 . S
H508 C494 0.960 . S
H509 C495 0.961 . S
H510 C495 0.961 . S
H511 C495 0.961 . S
H512 C496 0.931 . S
H513 C501 0.930 . S
H514 C502 0.956 . S
H515 C502 0.961 . S
H516 C502 0.961 . S
H517 C503 0.958 . S
H518 C503 0.961 . S
H519 C503 0.960 . S
C520 C521 1.391 . S
C520 C522 1.394 . S
C520 H536 0.931 . S
C521 C520 1.391 . S
C521 C525 1.376 . S
C522 C520 1.394 . S
C522 C523 1.369 . S
C522 C526 1.531 . S
C523 C522 1.369 . S
C523 C524 1.410 . S
C523 C531 1.503 . S
C524 C523 1.410 . S
C524 C525 1.392 . S
C524 C527 1.511 . S
C525 C521 1.376 . S
C525 C524 1.392 . S
C525 H537 0.929 . S
C526 C522 1.531 . S
C526 H538 0.960 . S
C526 H539 0.962 . S
C526 H540 0.960 . S
C527 C524 1.511 . S
C527 H541 0.961 . S
C527 H542 0.961 . S
C527 H543 0.961 . S
C528 C529 1.370 . S
C528 C530 1.363 . S
C528 H544 0.931 . S
C529 C528 1.370 . S
C529 C533 1.408 . S
C530 C528 1.363 . S
C530 C531 1.370 . S
C530 C534 1.524 . S
C531 C523 1.503 . S
C531 C530 1.370 . S
C531 C532 1.403 . S
C532 C531 1.403 . S
C532 C533 1.404 . S
C532 C535 1.539 . S
C533 C529 1.408 . S
C533 C532 1.404 . S
C533 H545 0.930 . S
C534 C530 1.524 . S
C534 H546 0.956 . S
C534 H547 0.961 . S
C534 H548 0.961 . S
C535 C532 1.539 . S
C535 H549 0.958 . S
C535 H550 0.961 . S
C535 H551 0.960 . S
H536 C520 0.931 . S
H537 C525 0.929 . S
H538 C526 0.960 . S
H539 C526 0.962 . S
H540 C526 0.960 . S
H541 C527 0.961 . S
H542 C527 0.961 . S
H543 C527 0.961 . S
H544 C528 0.931 . S
H545 C533 0.930 . S
H546 C534 0.956 . S
H547 C534 0.961 . S
H548 C534 0.961 . S
H549 C535 0.958 . S
H550 C535 0.961 . S
H551 C535 0.960 . S
C552 C553 1.391 . S
C552 C554 1.394 . S
C552 H568 0.931 . S
C553 C552 1.391 . S
C553 C557 1.376 . S
C554 C552 1.394 . S
C554 C555 1.369 . S
C554 C558 1.531 . S
C555 C554 1.369 . S
C555 C556 1.410 . S
C555 C563 1.503 . S
C556 C555 1.410 . S
C556 C557 1.392 . S
C556 C559 1.511 . S
C557 C553 1.376 . S
C557 C556 1.392 . S
C557 H569 0.929 . S
C558 C554 1.531 . S
C558 H570 0.960 . S
C558 H571 0.962 . S
C558 H572 0.960 . S
C559 C556 1.511 . S
C559 H573 0.961 . S
C559 H574 0.961 . S
C559 H575 0.961 . S
C560 C561 1.370 . S
C560 C562 1.363 . S
C560 H576 0.931 . S
C561 C560 1.370 . S
C561 C565 1.408 . S
C562 C560 1.363 . S
C562 C563 1.370 . S
C562 C566 1.524 . S
C563 C555 1.503 . S
C563 C562 1.370 . S
C563 C564 1.403 . S
C564 C563 1.403 . S
C564 C565 1.404 . S
C564 C567 1.539 . S
C565 C561 1.408 . S
C565 C564 1.404 . S
C565 H577 0.930 . S
C566 C562 1.524 . S
C566 H578 0.956 . S
C566 H579 0.961 . S
C566 H580 0.961 . S
C567 C564 1.539 . S
C567 H581 0.958 . S
C567 H582 0.961 . S
C567 H583 0.960 . S
H568 C552 0.931 . S
H569 C557 0.929 . S
H570 C558 0.960 . S
H571 C558 0.962 . S
H572 C558 0.960 . S
H573 C559 0.961 . S
H574 C559 0.961 . S
H575 C559 0.961 . S
H576 C560 0.931 . S
H577 C565 0.930 . S
H578 C566 0.956 . S
H579 C566 0.961 . S
H580 C566 0.961 . S
H581 C567 0.958 . S
H582 C567 0.961 . S
H583 C567 0.960 . S
C584 C585 1.391 . S
C584 C586 1.394 . S
C584 H600 0.931 . S
C585 C584 1.391 . S
C585 C589 1.376 . S
C586 C584 1.394 . S
C586 C587 1.369 . S
C586 C590 1.531 . S
C587 C586 1.369 . S
C587 C588 1.410 . S
C587 C595 1.503 . S
C588 C587 1.410 . S
C588 C589 1.392 . S
C588 C591 1.511 . S
C589 C585 1.376 . S
C589 C588 1.392 . S
C589 H601 0.929 . S
C590 C586 1.531 . S
C590 H602 0.960 . S
C590 H603 0.962 . S
C590 H604 0.960 . S
C591 C588 1.511 . S
C591 H605 0.961 . S
C591 H606 0.961 . S
C591 H607 0.961 . S
C592 C593 1.370 . S
C592 C594 1.363 . S
C592 H608 0.931 . S
C593 C592 1.370 . S
C593 C597 1.408 . S
C594 C592 1.363 . S
C594 C595 1.370 . S
C594 C598 1.524 . S
C595 C587 1.503 . S
C595 C594 1.370 . S
C595 C596 1.403 . S
C596 C595 1.403 . S
C596 C597 1.404 . S
C596 C599 1.539 . S
C597 C593 1.408 . S
C597 C596 1.404 . S
C597 H609 0.930 . S
C598 C594 1.524 . S
C598 H610 0.956 . S
C598 H611 0.961 . S
C598 H612 0.961 . S
C599 C596 1.539 . S
C599 H613 0.958 . S
C599 H614 0.961 . S
C599 H615 0.960 . S
H600 C584 0.931 . S
H601 C589 0.929 . S
H602 C590 0.960 . S
H603 C590 0.962 . S
H604 C590 0.960 . S
H605 C591 0.961 . S
H606 C591 0.961 . S
H607 C591 0.961 . S
H608 C592 0.931 . S
H609 C597 0.930 . S
H610 C598 0.956 . S
H611 C598 0.961 . S
H612 C598 0.961 . S
H613 C599 0.958 . S
H614 C599 0.961 . S
H615 C599 0.960 . S
C616 C617 1.391 . S
C616 C618 1.394 . S
C616 H632 0.931 . S
C617 C616 1.391 . S
C617 C621 1.376 . S
C618 C616 1.394 . S
C618 C619 1.369 . S
C618 C622 1.531 . S
C619 C618 1.369 . S
C619 C620 1.410 . S
C619 C627 1.503 . S
C620 C619 1.410 . S
C620 C621 1.392 . S
C620 C623 1.511 . S
C621 C617 1.376 . S
C621 C620 1.392 . S
C621 H633 0.929 . S
C622 C618 1.531 . S
C622 H634 0.960 . S
C622 H635 0.962 . S
C622 H636 0.960 . S
C623 C620 1.511 . S
C623 H637 0.961 . S
C623 H638 0.961 . S
C623 H639 0.961 . S
C624 C625 1.370 . S
C624 C626 1.363 . S
C624 H640 0.931 . S
C625 C624 1.370 . S
C625 C629 1.408 . S
C626 C624 1.363 . S
C626 C627 1.370 . S
C626 C630 1.524 . S
C627 C619 1.503 . S
C627 C626 1.370 . S
C627 C628 1.403 . S
C628 C627 1.403 . S
C628 C629 1.404 . S
C628 C631 1.539 . S
C629 C625 1.408 . S
C629 C628 1.404 . S
C629 H641 0.930 . S
C630 C626 1.524 . S
C630 H642 0.956 . S
C630 H643 0.961 . S
C630 H644 0.961 . S
C631 C628 1.539 . S
C631 H645 0.958 . S
C631 H646 0.961 . S
C631 H647 0.960 . S
H632 C616 0.931 . S
H633 C621 0.929 . S
H634 C622 0.960 . S
H635 C622 0.962 . S
H636 C622 0.960 . S
H637 C623 0.961 . S
H638 C623 0.961 . S
H639 C623 0.961 . S
H640 C624 0.931 . S
H641 C629 0.930 . S
H642 C630 0.956 . S
H643 C630 0.961 . S
H644 C630 0.961 . S
H645 C631 0.958 . S
H646 C631 0.961 . S
H647 C631 0.960 . S
C648 C649 1.391 . S
C648 C650 1.394 . S
C648 H664 0.931 . S
C649 C648 1.391 . S
C649 C653 1.376 . S
C650 C648 1.394 . S
C650 C651 1.369 . S
C650 C654 1.531 . S
C651 C650 1.369 . S
C651 C652 1.410 . S
C651 C659 1.503 . S
C652 C651 1.410 . S
C652 C653 1.392 . S
C652 C655 1.511 . S
C653 C649 1.376 . S
C653 C652 1.392 . S
C653 H665 0.929 . S
C654 C650 1.531 . S
C654 H666 0.960 . S
C654 H667 0.962 . S
C654 H668 0.960 . S
C655 C652 1.511 . S
C655 H669 0.961 . S
C655 H670 0.961 . S
C655 H671 0.961 . S
C656 C657 1.370 . S
C656 C658 1.363 . S
C656 H672 0.931 . S
C657 C656 1.370 . S
C657 C661 1.408 . S
C658 C656 1.363 . S
C658 C659 1.370 . S
C658 C662 1.524 . S
C659 C651 1.503 . S
C659 C658 1.370 . S
C659 C660 1.403 . S
C660 C659 1.403 . S
C660 C661 1.404 . S
C660 C663 1.539 . S
C661 C657 1.408 . S
C661 C660 1.404 . S
C661 H673 0.930 . S
C662 C658 1.524 . S
C662 H674 0.956 . S
C662 H675 0.961 . S
C662 H676 0.961 . S
C663 C660 1.539 . S
C663 H677 0.958 . S
C663 H678 0.961 . S
C663 H679 0.960 . S
H664 C648 0.931 . S
H665 C653 0.929 . S
H666 C654 0.960 . S
H667 C654 0.962 . S
H668 C654 0.960 . S
H669 C655 0.961 . S
H670 C655 0.961 . S
H671 C655 0.961 . S
H672 C656 0.931 . S
H673 C661 0.930 . S
H674 C662 0.956 . S
H675 C662 0.961 . S
H676 C662 0.961 . S
H677 C663 0.958 . S
H678 C663 0.961 . S
H679 C663 0.960 . S
C680 C681 1.391 . S
C680 C682 1.394 . S
C680 H696 0.931 . S
C681 C680 1.391 . S
C681 C685 1.376 . S
C682 C680 1.394 . S
C682 C683 1.369 . S
C682 C686 1.531 . S
C683 C682 1.369 . S
C683 C684 1.410 . S
C683 C691 1.503 . S
C684 C683 1.410 . S
C684 C685 1.392 . S
C684 C687 1.511 . S
C685 C681 1.376 . S
C685 C684 1.392 . S
C685 H697 0.929 . S
C686 C682 1.531 . S
C686 H698 0.960 . S
C686 H699 0.962 . S
C686 H700 0.960 . S
C687 C684 1.511 . S
C687 H701 0.961 . S
C687 H702 0.961 . S
C687 H703 0.961 . S
C688 C689 1.370 . S
C688 C690 1.363 . S
C688 H704 0.931 . S
C689 C688 1.370 . S
C689 C693 1.408 . S
C690 C688 1.363 . S
C690 C691 1.370 . S
C690 C694 1.524 . S
C691 C683 1.503 . S
C691 C690 1.370 . S
C691 C692 1.403 . S
C692 C691 1.403 . S
C692 C693 1.404 . S
C692 C695 1.539 . S
C693 C689 1.408 . S
C693 C692 1.404 . S
C693 H705 0.930 . S
C694 C690 1.524 . S
C694 H706 0.956 . S
C694 H707 0.961 . S
C694 H708 0.961 . S
C695 C692 1.539 . S
C695 H709 0.958 . S
C695 H710 0.961 . S
C695 H711 0.960 . S
H696 C680 0.931 . S
H697 C685 0.929 . S
H698 C686 0.960 . S
H699 C686 0.962 . S
H700 C686 0.960 . S
H701 C687 0.961 . S
H702 C687 0.961 . S
H703 C687 0.961 . S
H704 C688 0.931 . S
H705 C693 0.930 . S
H706 C694 0.956 . S
H707 C694 0.961 . S
H708 C694 0.961 . S
H709 C695 0.958 . S
H710 C695 0.961 . S
H711 C695 0.960 . S
C712 C713 1.391 . S
C712 C714 1.394 1_545 S
C712 H728 0.931 . S
C713 C712 1.391 . S
C713 C717 1.376 . S
C714 C712 1.394 1_565 S
C714 C715 1.369 . S
C714 C718 1.531 . S
C715 C714 1.369 . S
C715 C716 1.410 . S
C715 C723 1.503 . S
C716 C715 1.410 . S
C716 C717 1.392 1_565 S
C716 C719 1.511 . S
C717 C713 1.376 . S
C717 C716 1.392 1_545 S
C717 H729 0.929 . S
C718 C714 1.531 . S
C718 H730 0.960 . S
C718 H731 0.962 . S
C718 H732 0.960 . S
C719 C716 1.511 . S
C719 H733 0.961 . S
C719 H734 0.961 . S
C719 H735 0.961 . S
C720 C721 1.370 . S
C720 C722 1.363 . S
C720 H736 0.931 . S
C721 C720 1.370 . S
C721 C725 1.408 . S
C722 C720 1.363 . S
C722 C723 1.370 . S
C722 C726 1.524 . S
C723 C715 1.503 . S
C723 C722 1.370 . S
C723 C724 1.403 . S
C724 C723 1.403 . S
C724 C725 1.404 . S
C724 C727 1.539 . S
C725 C721 1.408 . S
C725 C724 1.404 . S
C725 H737 0.930 . S
C726 C722 1.524 . S
C726 H738 0.956 . S
C726 H739 0.961 . S
C726 H740 0.961 . S
C727 C724 1.539 . S
C727 H741 0.958 . S
C727 H742 0.961 . S
C727 H743 0.960 . S
H728 C712 0.931 . S
H729 C717 0.929 . S
H730 C718 0.960 . S
H731 C718 0.962 . S
H732 C718 0.960 . S
H733 C719 0.961 . S
H734 C719 0.961 . S
H735 C719 0.961 . S
H736 C720 0.931 . S
H737 C725 0.930 . S
H738 C726 0.956 . S
H739 C726 0.961 . S
H740 C726 0.961 . S
H741 C727 0.958 . S
H742 C727 0.961 . S
H743 C727 0.960 . S
C744 C745 1.391 . S
C744 C746 1.394 1_565 S
C744 H760 0.931 . S
C745 C744 1.391 . S
C745 C749 1.376 . S
C746 C744 1.394 1_545 S
C746 C747 1.369 . S
C746 C750 1.531 . S
C747 C746 1.369 . S
C747 C748 1.410 . S
C747 C755 1.503 . S
C748 C747 1.410 . S
C748 C749 1.392 1_545 S
C748 C751 1.511 . S
C749 C745 1.376 . S
C749 C748 1.392 1_565 S
C749 H761 0.929 . S
C750 C746 1.531 . S
C750 H762 0.960 . S
C750 H763 0.962 . S
C750 H764 0.960 . S
C751 C748 1.511 . S
C751 H765 0.961 . S
C751 H766 0.961 . S
C751 H767 0.961 . S
C752 C753 1.370 . S
C752 C754 1.363 . S
C752 H768 0.931 . S
C753 C752 1.370 . S
C753 C757 1.408 . S
C754 C752 1.363 . S
C754 C755 1.370 . S
C754 C758 1.524 . S
C755 C747 1.503 . S
C755 C754 1.370 . S
C755 C756 1.403 . S
C756 C755 1.403 . S
C756 C757 1.404 . S
C756 C759 1.539 . S
C757 C753 1.408 . S
C757 C756 1.404 . S
C757 H769 0.930 . S
C758 C754 1.524 . S
C758 H770 0.956 . S
C758 H771 0.961 . S
C758 H772 0.961 . S
C759 C756 1.539 . S
C759 H773 0.958 . S
C759 H774 0.961 . S
C759 H775 0.960 . S
H760 C744 0.931 . S
H761 C749 0.929 . S
H762 C750 0.960 . S
H763 C750 0.962 . S
H764 C750 0.960 . S
H765 C751 0.961 . S
H766 C751 0.961 . S
H767 C751 0.961 . S
H768 C752 0.931 . S
H769 C757 0.930 . S
H770 C758 0.956 . S
H771 C758 0.961 . S
H772 C758 0.961 . S
H773 C759 0.958 . S
H774 C759 0.961 . S
H775 C759 0.960 . S
C776 C777 1.391 . S
C776 C778 1.394 . S
C776 H792 0.931 . S
C777 C776 1.391 . S
C777 C781 1.376 . S
C778 C776 1.394 . S
C778 C779 1.369 . S
C778 C782 1.531 . S
C779 C778 1.369 . S
C779 C780 1.410 . S
C779 C787 1.503 . S
C780 C779 1.410 . S
C780 C781 1.392 . S
C780 C783 1.511 . S
C781 C777 1.376 . S
C781 C780 1.392 . S
C781 H793 0.929 . S
C782 C778 1.531 . S
C782 H794 0.960 . S
C782 H795 0.962 . S
C782 H796 0.960 . S
C783 C780 1.511 . S
C783 H797 0.961 . S
C783 H798 0.961 . S
C783 H799 0.961 . S
C784 C785 1.370 . S
C784 C786 1.363 . S
C784 H800 0.931 . S
C785 C784 1.370 . S
C785 C789 1.408 . S
C786 C784 1.363 . S
C786 C787 1.370 . S
C786 C790 1.524 . S
C787 C779 1.503 . S
C787 C786 1.370 . S
C787 C788 1.403 . S
C788 C787 1.403 . S
C788 C789 1.404 . S
C788 C791 1.539 . S
C789 C785 1.408 . S
C789 C788 1.404 . S
C789 H801 0.930 . S
C790 C786 1.524 . S
C790 H802 0.956 . S
C790 H803 0.961 . S
C790 H804 0.961 . S
C791 C788 1.539 . S
C791 H805 0.958 . S
C791 H806 0.961 . S
C791 H807 0.960 . S
H792 C776 0.931 . S
H793 C781 0.929 . S
H794 C782 0.960 . S
H795 C782 0.962 . S
H796 C782 0.960 . S
H797 C783 0.961 . S
H798 C783 0.961 . S
H799 C783 0.961 . S
H800 C784 0.931 . S
H801 C789 0.930 . S
H802 C790 0.956 . S
H803 C790 0.961 . S
H804 C790 0.961 . S
H805 C791 0.958 . S
H806 C791 0.961 . S
H807 C791 0.960 . S
C808 C809 1.391 . S
C808 C810 1.394 . S
C808 H824 0.931 . S
C809 C808 1.391 . S
C809 C813 1.376 . S
C810 C808 1.394 . S
C810 C811 1.369 . S
C810 C814 1.531 . S
C811 C810 1.369 . S
C811 C812 1.410 . S
C811 C819 1.503 . S
C812 C811 1.410 . S
C812 C813 1.392 . S
C812 C815 1.511 . S
C813 C809 1.376 . S
C813 C812 1.392 . S
C813 H825 0.929 . S
C814 C810 1.531 . S
C814 H826 0.960 . S
C814 H827 0.962 . S
C814 H828 0.960 . S
C815 C812 1.511 . S
C815 H829 0.961 . S
C815 H830 0.961 . S
C815 H831 0.961 . S
C816 C817 1.370 . S
C816 C818 1.363 . S
C816 H832 0.931 . S
C817 C816 1.370 . S
C817 C821 1.408 . S
C818 C816 1.363 . S
C818 C819 1.370 . S
C818 C822 1.524 . S
C819 C811 1.503 . S
C819 C818 1.370 . S
C819 C820 1.403 . S
C820 C819 1.403 . S
C820 C821 1.404 . S
C820 C823 1.539 . S
C821 C817 1.408 . S
C821 C820 1.404 . S
C821 H833 0.930 . S
C822 C818 1.524 . S
C822 H834 0.956 . S
C822 H835 0.961 . S
C822 H836 0.961 . S
C823 C820 1.539 . S
C823 H837 0.958 . S
C823 H838 0.961 . S
C823 H839 0.960 . S
H824 C808 0.931 . S
H825 C813 0.929 . S
H826 C814 0.960 . S
H827 C814 0.962 . S
H828 C814 0.960 . S
H829 C815 0.961 . S
H830 C815 0.961 . S
H831 C815 0.961 . S
H832 C816 0.931 . S
H833 C821 0.930 . S
H834 C822 0.956 . S
H835 C822 0.961 . S
H836 C822 0.961 . S
H837 C823 0.958 . S
H838 C823 0.961 . S
H839 C823 0.960 . S
C840 C841 1.391 . S
C840 C842 1.394 1_565 S
C840 H856 0.931 . S
C841 C840 1.391 . S
C841 C845 1.376 . S
C842 C840 1.394 1_545 S
C842 C843 1.369 . S
C842 C846 1.531 . S
C843 C842 1.369 . S
C843 C844 1.410 . S
C843 C851 1.503 . S
C844 C843 1.410 . S
C844 C845 1.392 1_545 S
C844 C847 1.511 . S
C845 C841 1.376 . S
C845 C844 1.392 1_565 S
C845 H857 0.929 . S
C846 C842 1.531 . S
C846 H858 0.960 . S
C846 H859 0.962 . S
C846 H860 0.960 . S
C847 C844 1.511 . S
C847 H861 0.961 . S
C847 H862 0.961 . S
C847 H863 0.961 . S
C848 C849 1.370 . S
C848 C850 1.363 . S
C848 H864 0.931 . S
C849 C848 1.370 . S
C849 C853 1.408 . S
C850 C848 1.363 . S
C850 C851 1.370 . S
C850 C854 1.524 . S
C851 C843 1.503 . S
C851 C850 1.370 . S
C851 C852 1.403 . S
C852 C851 1.403 . S
C852 C853 1.404 . S
C852 C855 1.539 . S
C853 C849 1.408 . S
C853 C852 1.404 . S
C853 H865 0.930 . S
C854 C850 1.524 . S
C854 H866 0.956 . S
C854 H867 0.961 . S
C854 H868 0.961 . S
C855 C852 1.539 . S
C855 H869 0.958 . S
C855 H870 0.961 . S
C855 H871 0.960 . S
H856 C840 0.931 . S
H857 C845 0.929 . S
H858 C846 0.960 . S
H859 C846 0.962 . S
H860 C846 0.960 . S
H861 C847 0.961 . S
H862 C847 0.961 . S
H863 C847 0.961 . S
H864 C848 0.931 . S
H865 C853 0.930 . S
H866 C854 0.956 . S
H867 C854 0.961 . S
H868 C854 0.961 . S
H869 C855 0.958 . S
H870 C855 0.961 . S
H871 C855 0.960 . S
C872 C873 1.391 . S
C872 C874 1.394 . S
C872 H888 0.931 . S
C873 C872 1.391 . S
C873 C877 1.376 . S
C874 C872 1.394 . S
C874 C875 1.369 . S
C874 C878 1.531 . S
C875 C874 1.369 . S
C875 C876 1.410 . S
C875 C883 1.503 . S
C876 C875 1.410 . S
C876 C877 1.392 . S
C876 C879 1.511 . S
C877 C873 1.376 . S
C877 C876 1.392 . S
C877 H889 0.929 . S
C878 C874 1.531 . S
C878 H890 0.960 . S
C878 H891 0.962 . S
C878 H892 0.960 . S
C879 C876 1.511 . S
C879 H893 0.961 . S
C879 H894 0.961 . S
C879 H895 0.961 . S
C880 C881 1.370 . S
C880 C882 1.363 1_545 S
C880 H896 0.931 . S
C881 C880 1.370 . S
C881 C885 1.408 . S
C882 C880 1.363 1_565 S
C882 C883 1.370 . S
C882 C886 1.524 . S
C883 C875 1.503 . S
C883 C882 1.370 . S
C883 C884 1.403 . S
C884 C883 1.403 . S
C884 C885 1.404 1_565 S
C884 C887 1.539 . S
C885 C881 1.408 . S
C885 C884 1.404 1_545 S
C885 H897 0.930 . S
C886 C882 1.524 . S
C886 H898 0.956 . S
C886 H899 0.961 . S
C886 H900 0.961 . S
C887 C884 1.539 . S
C887 H901 0.958 . S
C887 H902 0.961 . S
C887 H903 0.960 . S
H888 C872 0.931 . S
H889 C877 0.929 . S
H890 C878 0.960 . S
H891 C878 0.962 . S
H892 C878 0.960 . S
H893 C879 0.961 . S
H894 C879 0.961 . S
H895 C879 0.961 . S
H896 C880 0.931 . S
H897 C885 0.930 . S
H898 C886 0.956 . S
H899 C886 0.961 . S
H900 C886 0.961 . S
H901 C887 0.958 . S
H902 C887 0.961 . S
H903 C887 0.960 . S
C265 C17 1.467 . S
C273 C50 1.491 . S
C297 C116 1.476 . S
C305 C83 1.485 . S
C329 C149 1.477 . S
C337 C182 1.498 . S
C361 C248 1.507 . S
C369 C215 1.496 . S
C393 C28 1.057 . S
C401 C160 1.041 . S
C425 C61 1.030 . S
C433 C193 1.053 . S
C457 C94 1.056 . S
C465 C226 1.042 . S
C489 C127 1.042 . S
C497 C259 1.047 . S
C521 C74 1.433 . S
C529 C8 1.430 . S
C553 C107 1.427 . S
C561 C41 1.429 . S
C585 C140 1.445 . S
C593 C206 1.436 . S
C617 C173 1.452 . S
C625 C239 1.441 . S
C649 N5 1.361 . S
C657 N14 1.366 . S
C681 N38 1.369 . S
C689 N47 1.362 . S
C713 N80 1.352 . S
C721 N71 1.370 . S
C745 N113 1.353 . S
C753 N104 1.369 . S
C777 N146 1.354 . S
C785 N137 1.367 . S
C809 N170 1.369 . S
C817 N179 1.365 . S
C841 N212 1.352 . S
C849 N203 1.368 . S
C873 N236 1.353 . S
C881 N245 1.367 . S
