# Generated by pormake.
# Topology bcs, (6)-cn, num edge types: 1
# Building blocks:
#     Node 0, Type 0, BuildingBlock: BETDIP_clean_sbu_0, # of connection points: 6
#     Node 1, Type 0, BuildingBlock: BETDIP_clean_sbu_0, # of connection points: 6
#     Node 2, Type 0, BuildingBlock: BETDIP_clean_sbu_0, # of connection points: 6
#     Node 3, Type 0, BuildingBlock: BETDIP_clean_sbu_0, # of connection points: 6
#     Node 4, Type 0, BuildingBlock: BETDIP_clean_sbu_0, # of connection points: 6
#     Node 5, Type 0, BuildingBlock: BETDIP_clean_sbu_0, # of connection points: 6
#     Node 6, Type 0, BuildingBlock: BETDIP_clean_sbu_0, # of connection points: 6
#     Node 7, Type 0, BuildingBlock: BETDIP_clean_sbu_0, # of connection points: 6
#     Node 8, Type 0, BuildingBlock: BETDIP_clean_sbu_0, # of connection points: 6
#     Node 9, Type 0, BuildingBlock: BETDIP_clean_sbu_0, # of connection points: 6
#     Node 10, Type 0, BuildingBlock: BETDIP_clean_sbu_0, # of connection points: 6
#     Node 11, Type 0, BuildingBlock: BETDIP_clean_sbu_0, # of connection points: 6
#     Node 12, Type 0, BuildingBlock: BETDIP_clean_sbu_0, # of connection points: 6
#     Node 13, Type 0, BuildingBlock: BETDIP_clean_sbu_0, # of connection points: 6
#     Node 14, Type 0, BuildingBlock: BETDIP_clean_sbu_0, # of connection points: 6
#     Node 15, Type 0, BuildingBlock: BETDIP_clean_sbu_0, # of connection points: 6
#     Edge 16, Type (0, 0), BuildingBlock: EZIPEK_clean_linker_0, # of connection points: 2
#     Edge 17, Type (0, 0), BuildingBlock: EZIPEK_clean_linker_0, # of connection points: 2
#     Edge 18, Type (0, 0), BuildingBlock: EZIPEK_clean_linker_0, # of connection points: 2
#     Edge 19, Type (0, 0), BuildingBlock: EZIPEK_clean_linker_0, # of connection points: 2
#     Edge 20, Type (0, 0), BuildingBlock: EZIPEK_clean_linker_0, # of connection points: 2
#     Edge 21, Type (0, 0), BuildingBlock: EZIPEK_clean_linker_0, # of connection points: 2
#     Edge 22, Type (0, 0), BuildingBlock: EZIPEK_clean_linker_0, # of connection points: 2
#     Edge 23, Type (0, 0), BuildingBlock: EZIPEK_clean_linker_0, # of connection points: 2
#     Edge 24, Type (0, 0), BuildingBlock: EZIPEK_clean_linker_0, # of connection points: 2
#     Edge 25, Type (0, 0), BuildingBlock: EZIPEK_clean_linker_0, # of connection points: 2
#     Edge 26, Type (0, 0), BuildingBlock: EZIPEK_clean_linker_0, # of connection points: 2
#     Edge 27, Type (0, 0), BuildingBlock: EZIPEK_clean_linker_0, # of connection points: 2
#     Edge 28, Type (0, 0), BuildingBlock: EZIPEK_clean_linker_0, # of connection points: 2
#     Edge 29, Type (0, 0), BuildingBlock: EZIPEK_clean_linker_0, # of connection points: 2
#     Edge 30, Type (0, 0), BuildingBlock: EZIPEK_clean_linker_0, # of connection points: 2
#     Edge 31, Type (0, 0), BuildingBlock: EZIPEK_clean_linker_0, # of connection points: 2
#     Edge 32, Type (0, 0), BuildingBlock: EZIPEK_clean_linker_0, # of connection points: 2
#     Edge 33, Type (0, 0), BuildingBlock: EZIPEK_clean_linker_0, # of connection points: 2
#     Edge 34, Type (0, 0), BuildingBlock: EZIPEK_clean_linker_0, # of connection points: 2
#     Edge 35, Type (0, 0), BuildingBlock: EZIPEK_clean_linker_0, # of connection points: 2
#     Edge 36, Type (0, 0), BuildingBlock: EZIPEK_clean_linker_0, # of connection points: 2
#     Edge 37, Type (0, 0), BuildingBlock: EZIPEK_clean_linker_0, # of connection points: 2
#     Edge 38, Type (0, 0), BuildingBlock: EZIPEK_clean_linker_0, # of connection points: 2
#     Edge 39, Type (0, 0), BuildingBlock: EZIPEK_clean_linker_0, # of connection points: 2
#     Edge 40, Type (0, 0), BuildingBlock: EZIPEK_clean_linker_0, # of connection points: 2
#     Edge 41, Type (0, 0), BuildingBlock: EZIPEK_clean_linker_0, # of connection points: 2
#     Edge 42, Type (0, 0), BuildingBlock: EZIPEK_clean_linker_0, # of connection points: 2
#     Edge 43, Type (0, 0), BuildingBlock: EZIPEK_clean_linker_0, # of connection points: 2
#     Edge 44, Type (0, 0), BuildingBlock: EZIPEK_clean_linker_0, # of connection points: 2
#     Edge 45, Type (0, 0), BuildingBlock: EZIPEK_clean_linker_0, # of connection points: 2
#     Edge 46, Type (0, 0), BuildingBlock: EZIPEK_clean_linker_0, # of connection points: 2
#     Edge 47, Type (0, 0), BuildingBlock: EZIPEK_clean_linker_0, # of connection points: 2
#     Edge 48, Type (0, 0), BuildingBlock: EZIPEK_clean_linker_0, # of connection points: 2
#     Edge 49, Type (0, 0), BuildingBlock: EZIPEK_clean_linker_0, # of connection points: 2
#     Edge 50, Type (0, 0), BuildingBlock: EZIPEK_clean_linker_0, # of connection points: 2
#     Edge 51, Type (0, 0), BuildingBlock: EZIPEK_clean_linker_0, # of connection points: 2
#     Edge 52, Type (0, 0), BuildingBlock: EZIPEK_clean_linker_0, # of connection points: 2
#     Edge 53, Type (0, 0), BuildingBlock: EZIPEK_clean_linker_0, # of connection points: 2
#     Edge 54, Type (0, 0), BuildingBlock: EZIPEK_clean_linker_0, # of connection points: 2
#     Edge 55, Type (0, 0), BuildingBlock: EZIPEK_clean_linker_0, # of connection points: 2
#     Edge 56, Type (0, 0), BuildingBlock: EZIPEK_clean_linker_0, # of connection points: 2
#     Edge 57, Type (0, 0), BuildingBlock: EZIPEK_clean_linker_0, # of connection points: 2
#     Edge 58, Type (0, 0), BuildingBlock: EZIPEK_clean_linker_0, # of connection points: 2
#     Edge 59, Type (0, 0), BuildingBlock: EZIPEK_clean_linker_0, # of connection points: 2
#     Edge 60, Type (0, 0), BuildingBlock: EZIPEK_clean_linker_0, # of connection points: 2
#     Edge 61, Type (0, 0), BuildingBlock: EZIPEK_clean_linker_0, # of connection points: 2
#     Edge 62, Type (0, 0), BuildingBlock: EZIPEK_clean_linker_0, # of connection points: 2
#     Edge 63, Type (0, 0), BuildingBlock: EZIPEK_clean_linker_0, # of connection points: 2
# Relax obj value: 0.279
# Max RMSD: 0.257
# Mean RMSD: 0.224
data_MOF--net-bcs--node1-BETDIP_clean_sbu_0--edge1-EZIPEK_clean_linker_0
_symmetry_space_group_name_H-M    P1
_symmetry_Int_Tables_number       1
_symmetry_cell_setting            triclinic
loop_
_symmetry_equiv_pos_as_xyz
'x, y, z'
_cell_length_a     34.951971
_cell_length_b     34.482887
_cell_length_c     31.88756
_cell_angle_alpha  70.889241
_cell_angle_beta   129.95039
_cell_angle_gamma 114.24864
loop_
_atom_site_label
_atom_site_type_symbol
_atom_site_fract_x
_atom_site_fract_y
_atom_site_fract_z
_atom_type_partial_charge
Tb0 Tb 1.03178 1.00225 0.97998 0.0
Tb1 Tb 0.06549 0.04064 0.02191 0.0
C2 C 0.99629 0.94239 0.92341 0.0
C3 C 1.02472 0.92804 0.91285 0.0
C4 C 1.015 0.93498 0.86109 0.0
C5 C 1.04213 0.92053 0.85292 0.0
C6 C 0.07996 0.89901 0.89624 0.0
C7 C 0.09129 0.89412 0.94834 0.0
C8 C 0.0634 0.9072 0.95617 0.0
C9 C 0.96848 0.96412 0.04067 0.0
C10 C 0.13116 0.97813 0.07223 0.0
C11 C 0.09605 0.10271 0.07253 0.0
C12 C 0.06661 0.11526 0.08305 0.0
C13 C 1.02719 0.08506 0.08773 0.0
C14 C 0.9939 0.09815 0.0879 0.0
C15 C 1.00076 0.14181 0.08648 0.0
C16 C 1.03892 0.17178 0.07977 0.0
C17 C 0.07062 0.15875 0.0772 0.0
C18 C 0.13072 0.07819 0.96338 0.0
C19 C 0.96525 0.06316 0.93166 0.0
O20 O 0.98582 0.97907 0.90125 0.0
O21 O 1.01348 0.93741 0.97408 0.0
O22 O 1.01434 0.97829 0.04424 0.0
O23 O 1.01416 0.97734 0.04629 0.0
O24 O 0.10186 0.98206 0.01895 0.0
O25 O 0.12336 1.00215 0.08938 0.0
O26 O 0.11137 0.068 0.09757 0.0
O27 O 0.075 0.10501 0.02103 0.0
O28 O 0.08441 0.06425 0.95894 0.0
O29 O 0.08459 0.06522 0.95684 0.0
O30 O 0.9933 0.05702 0.98465 0.0
O31 O 0.97562 0.04244 0.9137 0.0
H32 H 0.9863 0.95136 0.82689 0.0
H33 H 1.03386 0.92636 0.81274 0.0
H34 H 0.12041 0.87829 0.9828 0.0
H35 H 0.07249 0.90071 0.99683 0.0
H36 H 1.02104 0.05127 0.08961 0.0
H37 H 0.96369 0.07403 0.09094 0.0
H38 H 1.04408 0.20559 0.07622 0.0
H39 H 0.09849 0.18292 0.07049 0.0
Tb40 Tb 0.27604 0.75524 0.27835 0.0
Tb41 Tb 0.32063 0.78703 0.22377 0.0
C42 C 0.23694 0.70662 0.32651 0.0
C43 C 0.22296 0.6602 0.33602 0.0
C44 C 0.19791 0.63469 0.29379 0.0
C45 C 0.16751 0.59321 0.29486 0.0
C46 C 0.16188 0.57857 0.33751 0.0
C47 C 0.19736 0.59988 0.38556 0.0
C48 C 0.22707 0.64145 0.38426 0.0
C49 C 0.34977 0.82701 0.31556 0.0
C50 C 0.35892 0.70943 0.30982 0.0
C51 C 0.35879 0.8387 0.17673 0.0
C52 C 0.36956 0.88513 0.17016 0.0
C53 C 0.40129 0.90843 0.21632 0.0
C54 C 0.42823 0.95102 0.21303 0.0
C55 C 0.42391 0.96823 0.16435 0.0
C56 C 0.37903 0.95017 0.11532 0.0
C57 C 0.35359 0.90713 0.11845 0.0
C58 C 0.2474 0.71537 0.18587 0.0
C59 C 0.23962 0.83426 0.19324 0.0
O60 O 0.20938 0.72196 0.27519 0.0
O61 O 0.28654 0.72578 0.35268 0.0
O62 O 0.3518 0.79689 0.30359 0.0
O63 O 0.30703 0.81593 0.31029 0.0
O64 O 0.3188 0.70626 0.30865 0.0
O65 O 0.37165 0.74358 0.28191 0.0
O66 O 0.38721 0.82185 0.22706 0.0
O67 O 0.30972 0.81745 0.14953 0.0
O68 O 0.24475 0.74493 0.19839 0.0
O69 O 0.29014 0.72709 0.19094 0.0
O70 O 0.27954 0.83673 0.19471 0.0
O71 O 0.22607 0.79988 0.22038 0.0
H72 H 0.19595 0.64847 0.25688 0.0
H73 H 0.14116 0.57652 0.25808 0.0
H74 H 0.19449 0.58804 0.41967 0.0
H75 H 0.24796 0.66034 0.41801 0.0
H76 H 0.41145 0.89257 0.25632 0.0
H77 H 0.46052 0.966 0.25077 0.0
H78 H 0.37267 0.96488 0.07636 0.0
H79 H 0.32648 0.89025 0.08177 0.0
Tb80 Tb 0.52634 1.00157 0.54432 0.0
Tb81 Tb 0.55506 0.02936 0.46565 0.0
C82 C 0.51736 1.00216 0.61599 0.0
C83 C 0.50651 0.03068 0.6303 0.0
C84 C 0.51206 0.07405 0.61039 0.0
C85 C 0.5024 0.10073 0.62569 0.0
C86 C 0.48737 0.08415 0.66108 0.0
C87 C 0.48124 0.04076 0.68025 0.0
C88 C 0.49085 1.01419 0.66501 0.0
C89 C 0.47805 0.94777 0.47251 0.0
C90 C 0.47257 0.07002 0.43505 0.0
C91 C 0.56784 0.02596 0.39849 0.0
C92 C 0.58571 0.99662 0.3937 0.0
C93 C 0.5517 0.95716 0.37154 0.0
C94 C 0.56751 0.93143 0.36259 0.0
C95 C 0.6175 0.94467 0.37589 0.0
C96 C 0.65246 0.98271 0.40081 0.0
C97 C 0.63659 1.00864 0.40939 0.0
C98 C 0.60322 0.08229 0.53939 0.0
C99 C 0.60585 0.95804 0.56919 0.0
O100 O 0.56181 1.0161 0.62268 0.0
O101 O 0.47884 0.98441 0.56992 0.0
O102 O 0.49048 0.9879 0.46485 0.0
O103 O 0.48631 0.93642 0.52013 0.0
O104 O 0.48406 0.05257 0.48517 0.0
O105 O 0.49296 0.06159 0.41646 0.0
O106 O 0.52299 1.01006 0.3911 0.0
O107 O 0.60263 0.05024 0.43937 0.0
O108 O 0.59142 0.04217 0.5461 0.0
O109 O 0.59222 0.09459 0.49051 0.0
O110 O 0.59976 0.98114 0.52347 0.0
O111 O 0.58187 0.9622 0.5868 0.0
H112 H 0.52402 0.0872 0.58337 0.0
H113 H 0.50687 0.13414 0.6103 0.0
H114 H 0.46928 0.02754 0.70729 0.0
H115 H 0.48636 0.9808 0.68061 0.0
H116 H 0.51229 0.94676 0.3593 0.0
H117 H 0.53998 0.90233 0.34275 0.0
H118 H 0.69093 0.99356 0.41043 0.0
H119 H 0.66357 0.0388 0.4265 0.0
Tb120 Tb 0.33809 0.2475 0.78357 0.0
Tb121 Tb 0.27099 0.29345 0.72974 0.0
C122 C 0.37824 0.18823 0.81599 0.0
C123 C 0.40227 0.17748 0.79832 0.0
C124 C 0.39155 0.13468 0.79338 0.0
C125 C 0.40959 0.12426 0.77125 0.0
C126 C 0.43801 0.15656 0.75313 0.0
C127 C 0.44939 0.19937 0.75863 0.0
C128 C 0.43178 0.20976 0.78128 0.0
C129 C 0.37672 0.31362 0.83526 0.0
C130 C 0.35979 0.32895 0.69135 0.0
C131 C 0.2363 0.35515 0.70121 0.0
C132 C 0.22308 0.37184 0.72611 0.0
C133 C 0.26039 0.38488 0.77975 0.0
C134 C 0.24701 0.40038 0.80277 0.0
C135 C 0.19627 0.40299 0.77262 0.0
C136 C 0.1588 0.3891 0.71966 0.0
C137 C 0.1722 0.37387 0.69647 0.0
C138 C 0.23099 0.22724 0.67786 0.0
C139 C 0.248 0.21248 0.8206 0.0
O140 O 0.32853 0.18435 0.77948 0.0
O141 O 0.40304 0.22341 0.84012 0.0
O142 O 0.33133 0.28886 0.81433 0.0
O143 O 0.40253 0.3013 0.82841 0.0
O144 O 0.37287 0.29361 0.72991 0.0
O145 O 0.31791 0.33271 0.68567 0.0
O146 O 0.28551 0.35881 0.72823 0.0
O147 O 0.20656 0.31796 0.68174 0.0
O148 O 0.27681 0.25129 0.69889 0.0
O149 O 0.20505 0.24156 0.6823 0.0
O150 O 0.23612 0.24843 0.78319 0.0
O151 O 0.28948 0.208 0.82608 0.0
H152 H 0.36792 0.10942 0.80509 0.0
H153 H 0.40019 0.09108 0.76683 0.0
H154 H 0.47093 0.22465 0.74439 0.0
H155 H 0.44004 0.24305 0.78412 0.0
H156 H 0.2999 0.38324 0.80396 0.0
H157 H 0.27629 0.41079 0.8438 0.0
H158 H 0.11925 0.39011 0.69603 0.0
H159 H 0.14276 0.36353 0.65542 0.0
Tb160 Tb 1.03199 1.00426 0.53167 0.0
Tb161 Tb 0.07341 0.0364 0.47177 0.0
C162 C 0.99633 0.96416 0.58567 0.0
C163 C 0.99425 0.92494 0.6215 0.0
C164 C 0.94624 0.89413 0.60307 0.0
C165 C 0.93726 0.86728 0.64107 0.0
C166 C 0.97604 0.87172 0.69733 0.0
C167 C 1.02636 0.89716 0.71567 0.0
C168 C 1.03564 0.92362 0.6778 0.0
C169 C 0.09867 0.0817 0.55457 0.0
C170 C 0.11846 0.9625 0.56784 0.0
C171 C 0.13378 0.07134 0.44435 0.0
C172 C 0.13161 0.08688 0.39514 0.0
C173 C 0.17263 0.1206 0.39806 0.0
C174 C 0.17281 0.13484 0.35219 0.0
C175 C 0.132 0.11539 0.3032 0.0
C176 C 0.0914 0.08094 0.30072 0.0
C177 C 0.09087 0.06701 0.34644 0.0
C178 C 0.98662 0.97327 0.42392 0.0
C179 C 0.98163 0.07383 0.43126 0.0
O180 O 0.96927 0.9612 0.53294 0.0
O181 O 1.04155 0.99264 0.60546 0.0
O182 O 0.10366 0.05 0.5491 0.0
O183 O 0.056 0.06968 0.54963 0.0
O184 O 0.08469 0.96137 0.57555 0.0
O185 O 0.12214 0.99152 0.53034 0.0
O186 O 0.11894 0.09274 0.45618 0.0
O187 O 0.11596 0.03015 0.451 0.0
O188 O 1.02247 0.97569 0.47443 0.0
O189 O 0.99918 1.00781 0.398 0.0
O190 O 1.02347 0.08097 0.43342 0.0
O191 O 0.97332 0.03949 0.46219 0.0
H192 H 0.91388 0.89426 0.55991 0.0
H193 H 0.89821 0.84763 0.62655 0.0
H194 H 0.05652 0.90063 0.75899 0.0
H195 H 0.07344 0.94651 0.69326 0.0
H196 H 0.20452 0.13572 0.43584 0.0
H197 H 0.20459 0.16122 0.35472 0.0
H198 H 0.06072 0.06429 0.26418 0.0
H199 H 0.05921 0.04045 0.34405 0.0
Tb200 Tb 0.28148 0.75901 0.78686 0.0
Tb201 Tb 0.32334 0.78269 0.7222 0.0
C202 C 0.2501 0.75938 0.83969 0.0
C203 C 0.22974 0.78689 0.84521 0.0
C204 C 0.25314 0.79744 0.89751 0.0
C205 C 0.23114 0.81858 0.9049 0.0
C206 C 0.18496 0.82973 0.8602 0.0
C207 C 0.16224 0.82039 0.80757 0.0
C208 C 0.18436 0.79936 0.80012 0.0
C209 C 0.23346 0.70504 0.71238 0.0
C210 C 0.24563 0.83459 0.68745 0.0
C211 C 0.34349 0.78596 0.65701 0.0
C212 C 0.37268 0.76591 0.65385 0.0
C213 C 0.3458 0.74335 0.60829 0.0
C214 C 0.37108 0.72449 0.60273 0.0
C215 C 0.4243 0.72741 0.64253 0.0
C216 C 0.45151 0.74958 0.68865 0.0
C217 C 0.42607 0.76865 0.69422 0.0
C218 C 0.38474 0.82113 0.816 0.0
C219 C 0.3605 0.70992 0.82177 0.0
O220 O 0.29921 0.77209 0.85889 0.0
O221 O 0.22042 0.74197 0.79346 0.0
O222 O 0.2494 0.74534 0.70666 0.0
O223 O 0.2457 0.69446 0.76174 0.0
O224 O 0.24336 0.81014 0.72827 0.0
O225 O 0.27462 0.82951 0.67646 0.0
O226 O 0.30247 0.76014 0.65441 0.0
O227 O 0.36909 0.81423 0.69217 0.0
O228 O 0.33637 0.81299 0.78125 0.0
O229 O 0.40081 0.80868 0.79683 0.0
O230 O 0.34666 0.72331 0.77095 0.0
O231 O 0.34496 0.72526 0.84074 0.0
H232 H 0.28777 0.78812 0.93315 0.0
H233 H 0.24934 0.82509 0.94594 0.0
H234 H 0.12653 0.82838 0.77241 0.0
H235 H 0.16501 0.79182 0.75919 0.0
H236 H 0.30481 0.74044 0.57642 0.0
H237 H 0.34895 0.70778 0.56675 0.0
H238 H 0.49253 0.75246 0.7201 0.0
H239 H 0.44824 0.78559 0.72999 0.0
Tb240 Tb 0.59304 0.98017 0.05325 0.0
Tb241 Tb 0.53651 0.04902 0.97664 0.0
C242 C 0.62422 0.91621 0.08167 0.0
C243 C 0.63038 0.89512 0.05325 0.0
C244 C 0.58908 0.88136 0.00036 0.0
C245 C 0.59706 0.86406 0.97315 0.0
C246 C 0.64624 0.85974 0.99863 0.0
C247 C 0.68704 0.87286 0.05158 0.0
C248 C 0.67944 0.89105 0.07813 0.0
C249 C 0.63905 0.05401 0.09744 0.0
C250 C 0.60931 0.03499 0.96298 0.0
C251 C 0.50185 0.11193 0.94558 0.0
C252 C 0.48257 0.12839 0.96498 0.0
C253 C 0.51715 0.15043 0.0126 0.0
C254 C 0.49855 0.16464 0.03131 0.0
C255 C 0.445 0.15856 0.00194 0.0
C256 C 0.41051 0.13749 0.95371 0.0
C257 C 0.42901 0.12214 0.9359 0.0
C258 C 0.49271 0.97494 0.9337 0.0
C259 C 0.52723 0.99673 0.07494 0.0
O260 O 0.57665 0.91341 0.06169 0.0
O261 O 0.6556 0.95462 0.09538 0.0
O262 O 0.61346 0.0486 0.04724 0.0
O263 O 0.64625 0.01728 0.1249 0.0
O264 O 0.60348 0.99746 0.98944 0.0
O265 O 0.59016 0.06454 0.956 0.0
O266 O 0.55143 0.11427 0.97809 0.0
O267 O 0.47325 0.07566 0.92312 0.0
O268 O 0.51528 0.9803 0.98323 0.0
O269 O 0.4909 1.01234 0.90587 0.0
O270 O 0.51575 0.0265 0.0334 0.0
O271 O 0.55423 0.9714 0.0885 0.0
H272 H 0.55096 0.88473 0.97952 0.0
H273 H 0.5651 0.85457 0.93204 0.0
H274 H 0.72508 0.86974 0.07188 0.0
H275 H 0.71229 0.90268 0.11787 0.0
H276 H 0.5587 0.15613 0.03612 0.0
H277 H 0.52607 0.18073 0.06864 0.0
H278 H 0.3691 0.1325 0.93009 0.0
H279 H 0.40123 0.10526 0.89929 0.0
Tb280 Tb 0.2894 0.2677 0.18999 0.0
Tb281 Tb 0.29388 0.26343 0.29072 0.0
C282 C 0.31465 0.27837 0.12749 0.0
C283 C 0.33133 0.2575 0.10987 0.0
C284 C 0.32541 0.27273 0.05994 0.0
C285 C 0.34272 0.25517 0.04292 0.0
C286 C 0.36726 0.22241 0.07596 0.0
C287 C 0.37273 0.20682 0.12578 0.0
C288 C 0.35428 0.22384 0.14216 0.0
C289 C 0.2113 0.21474 0.18997 0.0
C290 C 0.34519 0.19942 0.29868 0.0
C291 C 0.27393 0.25145 0.35801 0.0
C292 C 0.25187 0.26841 0.37267 0.0
C293 C 0.24447 0.2455 0.41337 0.0
C294 C 0.22689 0.26213 0.43087 0.0
C295 C 0.21513 0.30156 0.40692 0.0
C296 C 0.22171 0.32411 0.36538 0.0
C297 C 0.24117 0.30811 0.34942 0.0
C298 C 0.3745 0.31365 0.29308 0.0
C299 C 0.23238 0.3278 0.17986 0.0
O300 O 0.3475 0.28962 0.17782 0.0
O301 O 0.26681 0.26276 0.11239 0.0
O302 O 0.25789 0.22273 0.23059 0.0
O303 O 0.20663 0.23318 0.14492 0.0
O304 O 0.33286 0.21769 0.24856 0.0
O305 O 0.33044 0.211 0.32144 0.0
O306 O 0.2419 0.23308 0.31207 0.0
O307 O 0.31776 0.27574 0.3655 0.0
O308 O 0.3278 0.30798 0.25176 0.0
O309 O 0.37718 0.29433 0.33681 0.0
O310 O 0.24256 0.30756 0.2286 0.0
O311 O 0.25427 0.3211 0.16135 0.0
H312 H 0.30771 0.2986 0.03419 0.0
H313 H 0.33762 0.26756 0.00421 0.0
H314 H 0.39124 0.18146 0.15193 0.0
H315 H 0.358 0.2108 0.17995 0.0
H316 H 0.25352 0.21516 0.4326 0.0
H317 H 0.2226 0.24431 0.46325 0.0
H318 H 0.21339 0.35475 0.34664 0.0
H319 H 0.24919 0.32709 0.32012 0.0
Tb320 Tb 0.5306 0.50564 0.03806 0.0
Tb321 Tb 0.57124 0.53642 0.9788 0.0
C322 C 0.49165 0.46273 0.08839 0.0
C323 C 0.48647 0.42075 0.11816 0.0
C324 C 0.43651 0.39599 0.10219 0.0
C325 C 0.43003 0.36728 0.14086 0.0
C326 C 0.47354 0.36367 0.19537 0.0
C327 C 0.5232 0.38106 0.20761 0.0
C328 C 0.5299 0.41026 0.1692 0.0
C329 C 0.59818 0.58173 0.06523 0.0
C330 C 0.61725 0.46409 0.07105 0.0
C331 C 0.60604 0.57493 0.92357 0.0
C332 C 0.6071 0.61331 0.88669 0.0
C333 C 0.65561 0.63881 0.89886 0.0
C334 C 0.65931 0.66314 0.85672 0.0
C335 C 0.61453 0.6626 0.80249 0.0
C336 C 0.56551 0.64263 0.79158 0.0
C337 C 0.56169 0.61792 0.83376 0.0
C338 C 0.50033 0.46151 0.95134 0.0
C339 C 0.48465 0.57799 0.94464 0.0
O340 O 0.46537 0.46404 0.03521 0.0
O341 O 0.53805 0.48953 0.11135 0.0
O342 O 0.60391 0.55137 0.05742 0.0
O343 O 0.55573 0.56866 0.06103 0.0
O344 O 0.57692 0.45872 0.07076 0.0
O345 O 0.62795 0.49893 0.04263 0.0
O346 O 0.6333 0.57909 0.97577 0.0
O347 O 0.56134 0.54619 0.90503 0.0
O348 O 0.49732 0.4933 0.95904 0.0
O349 O 0.54295 0.47196 0.95661 0.0
O350 O 0.52487 0.58324 0.94487 0.0
O351 O 0.47447 0.54374 0.97411 0.0
H352 H 0.4025 0.40304 0.0626 0.0
H353 H 0.39127 0.35371 0.13051 0.0
H354 H 0.55685 0.37683 0.2488 0.0
H355 H 0.56898 0.42828 0.18211 0.0
H356 H 0.69099 0.63572 0.93935 0.0
H357 H 0.69737 0.67767 0.86551 0.0
H358 H 0.53081 0.64179 0.74979 0.0
H359 H 0.52364 0.59867 0.82335 0.0
Tb360 Tb 0.78414 0.25847 0.29141 0.0
Tb361 Tb 0.81689 0.28193 0.21794 0.0
C362 C 0.76038 0.26296 0.35013 0.0
C363 C 0.73721 0.28922 0.3541 0.0
C364 C 0.76731 0.31321 0.3994 0.0
C365 C 0.74488 0.33402 0.4069 0.0
C366 C 0.69157 0.33169 0.36924 0.0
C367 C 0.66159 0.3085 0.3234 0.0
C368 C 0.68388 0.28736 0.31617 0.0
C369 C 0.73197 0.2024 0.21807 0.0
C370 C 0.73753 0.32913 0.18528 0.0
C371 C 0.84213 0.28295 0.1581 0.0
C372 C 0.86293 0.25883 0.14846 0.0
C373 C 0.83793 0.21603 0.13536 0.0
C374 C 0.85673 0.1955 0.12284 0.0
C375 C 0.90086 0.2172 0.12286 0.0
C376 C 0.92573 0.25984 0.13593 0.0
C377 C 0.90702 0.28031 0.14845 0.0
C378 C 0.86663 0.33757 0.29155 0.0
C379 C 0.85911 0.20762 0.32048 0.0
O380 O 0.80705 0.27988 0.36176 0.0
O381 O 0.72986 0.23942 0.3089 0.0
O382 O 0.74621 0.24289 0.20948 0.0
O383 O 0.74596 0.19359 0.26815 0.0
O384 O 0.74928 0.3125 0.23507 0.0
O385 O 0.75616 0.31783 0.16643 0.0
O386 O 0.79518 0.26643 0.14528 0.0
O387 O 0.87362 0.30195 0.20331 0.0
O388 O 0.853 0.29717 0.29869 0.0
O389 O 0.85642 0.34743 0.24306 0.0
O390 O 0.84985 0.22637 0.27202 0.0
O391 O 0.84095 0.21858 0.34032 0.0
H392 H 0.80818 0.31503 0.42999 0.0
H393 H 0.76912 0.35144 0.44275 0.0
H394 H 0.62044 0.30588 0.2937 0.0
H395 H 0.65886 0.26872 0.28132 0.0
H396 H 0.80366 0.19844 0.13443 0.0
H397 H 0.83684 0.16258 0.11315 0.0
H398 H 0.95982 0.27737 0.13651 0.0
H399 H 0.92689 0.31335 0.15764 0.0
Tb400 Tb 0.08533 0.49131 0.53393 0.0
Tb401 Tb 1.01922 0.55108 0.47028 0.0
C402 C 0.13314 0.43761 0.56657 0.0
C403 C 0.13792 0.41178 0.54213 0.0
C404 C 0.09816 0.39925 0.48862 0.0
C405 C 0.10651 0.37906 0.46447 0.0
C406 C 0.15447 0.37059 0.49393 0.0
C407 C 0.19315 0.3815 0.54821 0.0
C408 C 0.1853 0.40265 0.57162 0.0
C409 C 0.13326 0.56558 0.57735 0.0
C410 C 0.05756 0.53457 0.41671 0.0
C411 C 0.97458 0.60797 0.43517 0.0
C412 C 0.9599 0.63009 0.45351 0.0
C413 C 0.99464 0.64677 0.50488 0.0
C414 C 0.97787 0.66535 0.52159 0.0
C415 C 0.92642 0.66798 0.48691 0.0
C416 C 0.89244 0.65263 0.43495 0.0
C417 C 0.90887 0.63343 0.41875 0.0
C418 C 0.96946 0.47479 0.43015 0.0
C419 C 1.04043 0.50539 0.58384 0.0
O420 O 0.08896 0.42763 0.55931 0.0
O421 O 0.15188 0.47884 0.56025 0.0
O422 O 0.10122 0.56002 0.52626 0.0
O423 O 0.14414 0.52992 0.60327 0.0
O424 O 0.06866 0.50133 0.45329 0.0
O425 O 0.04906 0.56498 0.42371 0.0
O426 O 1.02386 0.61634 0.45698 0.0
O427 O 0.95059 0.56731 0.42972 0.0
O428 O 1.00211 0.48134 0.48092 0.0
O429 O 0.96357 0.51135 0.40204 0.0
O430 O 1.02756 0.53756 0.54606 0.0
O431 O 0.05629 0.47737 0.58209 0.0
H432 H 0.06142 0.40625 0.46508 0.0
H433 H 0.07611 0.37087 0.42253 0.0
H434 H 0.23016 0.37502 0.5717 0.0
H435 H 0.21692 0.41317 0.61225 0.0
H436 H 1.03429 0.64474 0.53243 0.0
H437 H 1.00473 0.67707 0.56185 0.0
H438 H 0.8528 0.65454 0.40752 0.0
H439 H 0.88136 0.62053 0.37916 0.0
Tb440 Tb 0.83074 0.74373 0.2794 0.0
Tb441 Tb 0.77229 0.80259 0.22833 0.0
C442 C 0.85804 0.6831 0.28701 0.0
C443 C 0.87416 0.66815 0.26335 0.0
C444 C 0.83694 0.63849 0.22357 0.0
C445 C 0.85133 0.62058 0.20386 0.0
C446 C 0.90336 0.63153 0.22382 0.0
C447 C 0.94058 0.66187 0.26264 0.0
C448 C 0.92619 0.67983 0.28257 0.0
C449 C 0.8754 0.80766 0.33681 0.0
C450 C 0.85569 0.83147 0.18818 0.0
C451 C 0.74142 0.85957 0.22196 0.0
C452 C 0.72047 0.86513 0.24669 0.0
C453 C 0.74665 0.90067 0.27648 0.0
C454 C 0.72876 0.90702 0.30139 0.0
C455 C 0.68428 0.878 0.29664 0.0
C456 C 0.65858 0.8418 0.26808 0.0
C457 C 0.67673 0.83526 0.2433 0.0
C458 C 0.72661 0.73813 0.1716 0.0
C459 C 0.74673 0.71571 0.31909 0.0
O460 O 0.81045 0.68604 0.25347 0.0
O461 O 0.89025 0.71407 0.31955 0.0
O462 O 0.85174 0.80876 0.28598 0.0
O463 O 0.87819 0.7689 0.35938 0.0
O464 O 0.86309 0.79257 0.22241 0.0
O465 O 0.81868 0.84063 0.18554 0.0
O466 O 0.78961 0.85805 0.25698 0.0
O467 O 0.71232 0.83151 0.18576 0.0
O468 O 0.75132 0.73772 0.22252 0.0
O469 O 0.7242 0.77686 0.14866 0.0
O470 O 0.73966 0.7544 0.28473 0.0
O471 O 0.78395 0.70624 0.3223 0.0
H472 H 0.79659 0.6283 0.20843 0.0
H473 H 0.822 0.59739 0.17384 0.0
H474 H 0.98081 0.67137 0.27794 0.0
H475 H 0.95582 0.70224 0.31351 0.0
H476 H 0.78078 0.92378 0.28006 0.0
H477 H 0.74852 0.93536 0.32277 0.0
H478 H 0.62376 0.81948 0.26362 0.0
H479 H 0.65638 0.80725 0.22121 0.0
Tb480 Tb 0.77609 0.25586 0.78346 0.0
Tb481 Tb 0.81139 0.27864 0.7223 0.0
C482 C 0.74112 0.2149 0.8375 0.0
C483 C 0.73574 0.17008 0.85735 0.0
C484 C 0.71894 0.13987 0.82416 0.0
C485 C 0.71264 0.09684 0.84287 0.0
C486 C 0.72096 0.08355 0.89401 0.0
C487 C 0.7447 0.11478 0.92978 0.0
C488 C 0.75141 0.15771 0.91118 0.0
C489 C 0.85148 0.32742 0.81428 0.0
C490 C 0.85656 0.20642 0.81718 0.0
C491 C 0.83302 0.31234 0.65498 0.0
C492 C 0.84188 0.35527 0.62959 0.0
C493 C 0.84853 0.38981 0.64975 0.0
C494 C 0.88101 0.42943 0.64745 0.0
C495 C 0.90396 0.43438 0.62225 0.0
C496 C 0.88659 0.4027 0.59049 0.0
C497 C 0.85643 0.36252 0.59535 0.0
C498 C 0.73851 0.20553 0.69625 0.0
C499 C 0.73887 0.3324 0.6961 0.0
O500 O 0.71123 0.22294 0.78414 0.0
O501 O 0.78911 0.23815 0.86003 0.0
O502 O 0.85165 0.29571 0.80277 0.0
O503 O 0.80972 0.31866 0.81007 0.0
O504 O 0.81815 0.20556 0.81742 0.0
O505 O 0.86463 0.23716 0.78315 0.0
O506 O 0.86807 0.30748 0.70814 0.0
O507 O 0.78575 0.29394 0.64043 0.0
O508 O 0.73729 0.23831 0.70438 0.0
O509 O 0.78138 0.21345 0.70326 0.0
O510 O 0.77775 0.33306 0.69695 0.0
O511 O 0.72537 0.29906 0.72387 0.0
H512 H 0.70863 0.14933 0.78296 0.0
H513 H 0.69684 0.07396 0.8154 0.0
H514 H 0.75314 0.10631 0.97021 0.0
H515 H 0.76654 0.18102 0.93795 0.0
H516 H 0.83452 0.38509 0.67327 0.0
H517 H 0.89317 0.45403 0.67094 0.0
H518 H 0.90337 0.40678 0.56967 0.0
H519 H 0.85017 0.33627 0.57818 0.0
Tb520 Tb 0.7845 0.7687 0.6923 0.0
Tb521 Tb 0.79373 0.76317 0.79642 0.0
C522 C 0.80247 0.78187 0.62308 0.0
C523 C 0.81912 0.76383 0.60298 0.0
C524 C 0.80874 0.77915 0.55099 0.0
C525 C 0.82554 0.76388 0.53132 0.0
C526 C 0.85362 0.73338 0.56373 0.0
C527 C 0.86375 0.71783 0.61569 0.0
C528 C 0.8462 0.7327 0.63494 0.0
C529 C 0.70529 0.71883 0.69345 0.0
C530 C 0.84487 0.70139 0.7991 0.0
C531 C 0.77614 0.75208 0.8654 0.0
C532 C 0.75017 0.76669 0.87746 0.0
C533 C 0.75977 0.75428 0.92927 0.0
C534 C 0.73799 0.76884 0.94361 0.0
C535 C 0.70624 0.79623 0.90641 0.0
C536 C 0.6956 0.80804 0.85394 0.0
C537 C 0.71756 0.79342 0.83956 0.0
C538 C 0.8723 0.81392 0.79519 0.0
C539 C 0.73481 0.83036 0.68958 0.0
O540 O 0.83738 0.7952 0.67239 0.0
O541 O 0.75681 0.76192 0.61325 0.0
O542 O 0.75243 0.72396 0.73294 0.0
O543 O 0.7006 0.73928 0.64894 0.0
O544 O 0.82963 0.71951 0.74809 0.0
O545 O 0.83225 0.71238 0.82465 0.0
O546 O 0.74666 0.72928 0.8235 0.0
O547 O 0.81686 0.77994 0.86868 0.0
O548 O 0.82513 0.80796 0.75557 0.0
O549 O 0.87713 0.79397 0.83987 0.0
O550 O 0.74213 0.80753 0.73633 0.0
O551 O 0.75558 0.82434 0.66955 0.0
H552 H 0.78788 0.80321 0.52569 0.0
H553 H 0.81699 0.77605 0.49101 0.0
H554 H 0.88495 0.69401 0.64112 0.0
H555 H 0.85366 0.71992 0.67455 0.0
H556 H 0.78473 0.7336 0.95901 0.0
H557 H 0.7467 0.75939 0.9842 0.0
H558 H 0.67113 0.82913 0.82463 0.0
H559 H 0.70968 0.80337 0.79937 0.0
Tb560 Tb 0.53665 0.50503 0.48434 0.0
Tb561 Tb 0.57158 0.54173 0.5278 0.0
C562 C 0.4986 0.44725 0.42369 0.0
C563 C 0.52418 0.4346 0.40819 0.0
C564 C 0.5679 0.46281 0.40987 0.0
C565 C 0.59761 0.44817 0.40568 0.0
C566 C 0.58413 0.40491 0.39881 0.0
C567 C 0.5408 0.37702 0.39786 0.0
C568 C 0.51135 0.39147 0.40234 0.0
C569 C 0.4731 0.46569 0.54515 0.0
C570 C 0.63158 0.4754 0.578 0.0
C571 C 0.6083 0.60245 0.58357 0.0
C572 C 0.58316 0.61945 0.59576 0.0
C573 C 0.55914 0.59456 0.62193 0.0
C574 C 0.53118 0.61115 0.62667 0.0
C575 C 0.52265 0.65233 0.6021 0.0
C576 C 0.55156 0.67783 0.58073 0.0
C577 C 0.57991 0.66163 0.57666 0.0
C578 C 0.60997 0.59592 0.44475 0.0
C579 C 0.47528 0.57101 0.43409 0.0
O580 O 0.48818 0.48406 0.40435 0.0
O581 O 0.51971 0.441 0.47559 0.0
O582 O 0.51881 0.4795 0.54841 0.0
O583 O 0.51846 0.47853 0.55029 0.0
O584 O 0.60335 0.47974 0.52474 0.0
O585 O 0.624 0.49945 0.59544 0.0
O586 O 0.61769 0.56524 0.60595 0.0
O587 O 0.58863 0.6068 0.53196 0.0
O588 O 0.60463 0.55879 0.47857 0.0
O589 O 0.60591 0.55948 0.47743 0.0
O590 O 0.50419 0.56662 0.48709 0.0
O591 O 0.4831 0.54699 0.41725 0.0
H592 H 0.58017 0.49597 0.41627 0.0
H593 H 0.63145 0.47067 0.40819 0.0
H594 H 0.53107 0.34338 0.39598 0.0
H595 H 0.47948 0.36841 0.40329 0.0
H596 H 0.56209 0.56227 0.63908 0.0
H597 H 0.51756 0.59132 0.65115 0.0
H598 H 0.55498 0.71135 0.56849 0.0
H599 H 0.59956 0.68254 0.55816 0.0
Tb600 Tb 1.03038 0.50726 0.03082 0.0
Tb601 Tb 0.06449 0.5377 0.95693 0.0
C602 C 1.02803 0.4962 0.11123 0.0
C603 C 1.00224 0.51047 0.12361 0.0
C604 C 1.01959 0.50625 0.1781 0.0
C605 C 0.99965 0.5238 0.19173 0.0
C606 C 0.96256 0.54633 0.15135 0.0
C607 C 0.94353 0.54897 0.09629 0.0
C608 C 0.96353 0.5314 0.08255 0.0
C609 C 0.96984 0.46729 0.94106 0.0
C610 C 0.97774 0.5752 0.92745 0.0
C611 C 0.08419 0.54524 0.89122 0.0
C612 C 0.09899 0.52046 0.87645 0.0
C613 C 0.08072 0.52387 0.82167 0.0
C614 C 0.09661 0.50267 0.80704 0.0
C615 C 0.1309 0.47775 0.84709 0.0
C616 C 0.14829 0.47346 0.90167 0.0
C617 C 0.13238 0.49468 0.9163 0.0
C618 C 0.10626 0.59099 0.02837 0.0
C619 C 0.11018 0.46244 0.05578 0.0
O620 O 0.06259 0.5267 0.10553 0.0
O621 O 0.99836 0.4693 0.07363 0.0
O622 O 1.01835 0.4805 0.97076 0.0
O623 O 0.95312 0.4742 0.96374 0.0
O624 O 0.99189 0.56006 0.97856 0.0
O625 O 0.99609 0.56451 0.90785 0.0
O626 O 1.03704 0.53018 0.87837 0.0
O627 O 0.11902 0.55948 0.94006 0.0
O628 O 0.0963 0.55102 0.03561 0.0
O629 O 0.09654 0.60291 0.98029 0.0
O630 O 0.10991 0.48917 0.01411 0.0
O631 O 0.08146 0.4641 0.0691 0.0
H632 H 0.04941 0.4902 0.21032 0.0
H633 H 1.01339 0.52014 0.23391 0.0
H634 H 0.91447 0.56578 0.06435 0.0
H635 H 0.94982 0.53509 0.04024 0.0
H636 H 0.05491 0.54357 0.7904 0.0
H637 H 0.08302 0.50634 0.76476 0.0
H638 H 0.17481 0.45433 0.93298 0.0
H639 H 0.14694 0.49158 0.95881 0.0
C640 C 0.22427 0.13754 0.89343 0.0
C641 C 0.21511 0.178 0.8552 0.0
C642 C 0.14698 0.1546 0.88486 0.0
C643 C 0.15366 0.1125 0.91974 0.0
N644 N 0.20394 0.06802 0.94374 0.0
N645 N 0.15161 0.21486 0.81568 0.0
C646 C 0.19424 0.10678 0.91937 0.0
C647 C 0.17186 0.18243 0.85246 0.0
N648 N 0.26547 0.12758 0.90789 0.0
N649 N 0.11685 0.17075 0.88397 0.0
H650 H 0.16691 0.23549 0.79446 0.0
H651 H 0.11744 0.21894 0.8027 0.0
H652 H 0.09859 0.15356 0.90327 0.0
H653 H 0.11386 0.20187 0.86902 0.0
H654 H 0.28206 0.10453 0.93921 0.0
H655 H 0.28608 0.14538 0.89138 0.0
H656 H 0.2239 0.05532 0.94007 0.0
H657 H 0.18688 0.04645 0.96292 0.0
C658 C 0.18883 0.93485 0.0915 0.0
C659 C 0.16321 0.94384 0.10733 0.0
C660 C 0.19394 0.8852 0.18414 0.0
C661 C 0.2126 0.87196 0.16334 0.0
N662 N 0.21719 0.88286 0.08773 0.0
N663 N 0.1342 0.91844 0.16532 0.0
C664 C 0.20721 0.89672 0.11451 0.0
C665 C 0.16403 0.91648 0.15279 0.0
N666 N 0.19727 0.96363 0.0551 0.0
N667 N 0.20696 0.86987 0.23575 0.0
H668 H 0.11127 0.9394 0.14408 0.0
H669 H 0.12813 0.89619 0.19321 0.0
H670 H 0.23065 0.84949 0.26148 0.0
H671 H 0.19956 0.88154 0.2555 0.0
H672 H 0.22008 0.96192 0.04573 0.0
H673 H 0.18656 0.992 0.03916 0.0
H674 H 0.21154 0.89755 0.05066 0.0
H675 H 0.22523 0.85374 0.09886 0.0
C676 C 0.40829 0.92853 0.37567 0.0
C677 C 0.44976 0.91842 0.42998 0.0
C678 C 0.43758 0.85361 0.40129 0.0
C679 C 0.39379 0.86239 0.3488 0.0
N680 N 0.35127 0.91509 0.28015 0.0
N681 N 0.5012 0.86906 0.49639 0.0
C682 C 0.38381 0.90222 0.33424 0.0
C683 C 0.46412 0.88054 0.44329 0.0
N684 N 0.38846 0.96046 0.36456 0.0
N685 N 0.45471 0.82052 0.41031 0.0
H686 H 0.52268 0.88775 0.52854 0.0
H687 H 0.5096 0.83991 0.5097 0.0
H688 H 0.43778 0.80194 0.37945 0.0
H689 H 0.48925 0.81453 0.44602 0.0
H690 H 0.35481 0.96611 0.32691 0.0
H691 H 0.40126 0.97808 0.3944 0.0
H692 H 0.3458 0.94552 0.26589 0.0
H693 H 0.33532 0.89705 0.24926 0.0
C694 C 0.50498 0.14576 0.75319 0.0
C695 C 0.45285 0.14529 0.72523 0.0
C696 C 0.42483 0.11159 0.6496 0.0
C697 C 0.47676 0.1114 0.67802 0.0
N698 N 0.56801 0.13769 0.74856 0.0
N699 N 0.36605 0.13859 0.64146 0.0
C700 C 0.51751 0.13195 0.72697 0.0
C701 C 0.41365 0.13168 0.67155 0.0
N702 N 0.54179 0.15708 0.80585 0.0
N703 N 0.38606 0.09122 0.60269 0.0
H704 H 0.35676 0.15348 0.65634 0.0
H705 H 0.33737 0.1331 0.60023 0.0
H706 H 0.39325 0.07808 0.58396 0.0
H707 H 0.34671 0.08547 0.58378 0.0
H708 H 0.57908 0.1535 0.83064 0.0
H709 H 0.53406 0.16739 0.8264 0.0
H710 H 0.59967 0.1558 0.78141 0.0
H711 H 0.57825 0.12695 0.73086 0.0
C712 C 0.14621 0.90186 0.5692 0.0
C713 C 0.15087 0.92924 0.59876 0.0
C714 C 0.22218 0.89858 0.6846 0.0
C715 C 0.21525 0.86929 0.6555 0.0
N716 N 0.16382 0.83994 0.56951 0.0
N717 N 0.19048 0.94853 0.6873 0.0
C718 C 0.1757 0.87056 0.59753 0.0
C719 C 0.18787 0.92576 0.65724 0.0
N720 N 0.11252 0.90517 0.51324 0.0
N721 N 0.26387 0.90225 0.73852 0.0
H722 H 0.16908 0.97038 0.66937 0.0
H723 H 0.21099 0.94367 0.72985 0.0
H724 H 0.29063 0.88467 0.75926 0.0
H725 H 0.27515 0.92556 0.76128 0.0
H726 H 0.1118 0.89141 0.48808 0.0
H727 H 0.08636 0.92334 0.49164 0.0
H728 H 0.13168 0.83496 0.52902 0.0
H729 H 0.18402 0.81708 0.58812 0.0
C730 C 0.43449 0.8993 0.82849 0.0
C731 C 0.41588 0.85899 0.8493 0.0
C732 C 0.44566 0.89365 0.92622 0.0
C733 C 0.46929 0.93323 0.90833 0.0
N734 N 0.49995 0.96652 0.8519 0.0
N735 N 0.41469 0.81631 0.92532 0.0
C736 C 0.46745 0.9339 0.86207 0.0
C737 C 0.42489 0.85572 0.9005 0.0
N738 N 0.41991 0.90536 0.776 0.0
N739 N 0.4402 0.89221 0.96545 0.0
H740 H 0.40073 0.78825 0.90821 0.0
H741 H 0.42498 0.81152 0.96501 0.0
H742 H 0.45219 0.91903 0.98346 0.0
H743 H 0.41882 0.86514 0.97596 0.0
H744 H 0.42838 0.93544 0.75734 0.0
H745 H 0.39503 0.88141 0.74922 0.0
H746 H 0.50363 0.96705 0.82174 0.0
H747 H 0.52859 0.98933 0.87936 0.0
C748 C 0.44098 0.21882 0.0269 0.0
C749 C 0.42519 0.17457 0.02148 0.0
C750 C 0.36788 0.1619 0.04756 0.0
C751 C 0.38802 0.20532 0.05859 0.0
N752 N 0.45435 0.27197 0.07244 0.0
N753 N 0.38218 0.10262 0.03901 0.0
C754 C 0.4277 0.23288 0.05225 0.0
C755 C 0.39109 0.14566 0.03543 0.0
N756 N 0.46687 0.24784 0.00585 0.0
N757 N 0.32545 0.13645 0.04675 0.0
H758 H 0.39927 0.08942 0.03176 0.0
H759 H 0.362 0.08018 0.0544 0.0
H760 H 0.30626 0.14744 0.05349 0.0
H761 H 0.30644 0.10562 0.03442 0.0
H762 H 0.47507 0.28074 0.00434 0.0
H763 H 0.47538 0.23922 0.9848 0.0
H764 H 0.48745 0.2912 0.07439 0.0
H765 H 0.44679 0.28318 0.09245 0.0
C766 C 0.12447 0.17533 0.23163 0.0
C767 C 0.13179 0.13391 0.25455 0.0
C768 C 0.1721 0.14091 0.21155 0.0
C769 C 0.17043 0.18386 0.19461 0.0
N770 N 0.13241 0.23836 0.17189 0.0
N771 N 0.14768 0.07238 0.25399 0.0
C772 C 0.14164 0.19967 0.19856 0.0
C773 C 0.1499 0.11477 0.23957 0.0
N774 N 0.10429 0.19204 0.24469 0.0
N775 N 0.19797 0.12641 0.20379 0.0
H776 H 0.13321 0.05281 0.2763 0.0
H777 H 0.15645 0.05577 0.2405 0.0
H778 H 0.21206 0.14467 0.18066 0.0
H779 H 0.20653 0.09716 0.2209 0.0
H780 H 0.10332 0.22368 0.23471 0.0
H781 H 0.08947 0.1741 0.26719 0.0
H782 H 0.10935 0.25121 0.17049 0.0
H783 H 0.14376 0.25559 0.14616 0.0
C784 C 0.95356 0.16783 0.15321 0.0
C785 C 0.92243 0.19514 0.11129 0.0
C786 C 0.9369 0.1835 0.05003 0.0
C787 C 0.9693 0.15679 0.09283 0.0
N788 N 1.00247 0.12044 0.18457 0.0
N789 N 0.87699 0.22355 0.01669 0.0
C790 C 0.97517 0.14774 0.14342 0.0
C791 C 0.91209 0.20149 0.05876 0.0
N792 N 0.96361 0.16108 0.20378 0.0
N793 N 0.92997 0.19173 0.00094 0.0
H794 H 0.85873 0.23718 0.02187 0.0
H795 H 0.86311 0.2261 0.97597 0.0
H796 H 0.9431 0.17608 0.99133 0.0
H797 H 0.9124 0.21457 0.97002 0.0
H798 H 0.98672 0.14155 0.23605 0.0
H799 H 0.94962 0.17539 0.21381 0.0
H800 H 1.02053 0.10429 0.18245 0.0
H801 H 1.02053 0.10429 0.18245 0.0
C802 C 0.06678 0.504 0.36347 0.0
C803 C 0.05629 0.53724 0.36831 0.0
C804 C 0.08031 0.58434 0.30852 0.0
C805 C 0.10984 0.55712 0.32437 0.0
N806 N 0.12369 0.48752 0.3569 0.0
N807 N 1.03198 0.60314 0.32545 0.0
C808 C 0.09963 0.51522 0.34743 0.0
C809 C 0.05542 0.57548 0.33357 0.0
N810 N 1.04429 0.46244 0.37262 0.0
N811 N 0.07821 0.61904 0.27157 0.0
H812 H 1.00501 0.59387 0.3339 0.0
H813 H 1.03789 0.63454 0.30874 0.0
H814 H 0.09334 0.62422 0.25018 0.0
H815 H 0.05768 0.64049 0.2582 0.0
H816 H 0.0479 0.43711 0.36554 0.0
H817 H 1.01675 0.45417 0.38011 0.0
H818 H 0.12159 0.45772 0.37897 0.0
H819 H 0.14697 0.49562 0.34373 0.0
C820 C 0.67572 0.92127 0.65928 0.0
C821 C 0.63966 0.92561 0.60036 0.0
C822 C 0.66505 0.86693 0.59997 0.0
C823 C 0.70254 0.86382 0.65865 0.0
N824 N 0.75034 0.89659 0.74152 0.0
N825 N 0.60744 0.90441 0.51512 0.0
C826 C 0.70907 0.89304 0.68741 0.0
C827 C 0.63701 0.8992 0.57124 0.0
N828 N 0.67971 0.94518 0.68928 0.0
N829 N 0.65322 0.83725 0.57073 0.0
H830 H 0.57964 0.92112 0.49069 0.0
H831 H 0.61171 0.89308 0.4922 0.0
H832 H 0.67237 0.81396 0.58767 0.0
H833 H 0.62096 0.83296 0.53009 0.0
H834 H 0.69763 0.93882 0.7314 0.0
H835 H 0.66372 0.97071 0.67206 0.0
H836 H 0.76164 0.92003 0.76411 0.0
H837 H 0.77717 0.87907 0.7627 0.0
C838 C 0.43593 0.43091 0.8621 0.0
C839 C 0.4555 0.42691 0.91758 0.0
C840 C 0.40668 0.35113 0.9113 0.0
C841 C 0.39722 0.3534 0.86024 0.0
N842 N 0.40612 0.39591 0.78828 0.0
N843 N 0.46029 0.38374 0.99651 0.0
C844 C 0.41221 0.39353 0.83565 0.0
C845 C 0.44025 0.38732 0.94241 0.0
N846 N 0.44063 0.47056 0.83497 0.0
N847 N 0.38507 0.3143 0.93072 0.0
H848 H 0.4848 0.40969 0.01999 0.0
H849 H 0.45494 0.35494 0.01877 0.0
H850 H 0.36212 0.28669 0.91012 0.0
H851 H 0.38651 0.31215 0.96501 0.0
H852 H 0.42297 0.4756 0.79285 0.0
H853 H 0.45742 0.49851 0.85361 0.0
H854 H 0.42196 0.42337 0.7721 0.0
H855 H 0.38852 0.3694 0.76744 0.0
C856 C 0.89449 0.86045 0.39096 0.0
C857 C 0.90848 0.84718 0.36593 0.0
C858 C 0.97547 0.91563 0.38094 0.0
C859 C 0.95785 0.93083 0.40078 0.0
N860 N 0.89602 0.91975 0.41774 0.0
N861 N 0.96031 0.86213 0.3343 0.0
C862 C 0.91627 0.90363 0.40423 0.0
C863 C 0.94833 0.87487 0.36007 0.0
N864 N 0.86031 0.83174 0.40194 0.0
N865 N 1.01977 0.93902 0.38451 0.0
H866 H 0.94626 0.83086 0.3246 0.0
H867 H 0.98244 0.88288 0.3204 0.0
H868 H 1.04182 0.96852 0.40028 0.0
H869 H 1.03795 0.92753 0.377 0.0
H870 H 0.8521 0.83794 0.42484 0.0
H871 H 0.84344 0.80018 0.3921 0.0
H872 H 0.86255 0.90311 0.41589 0.0
H873 H 0.91005 0.95147 0.42598 0.0
C874 C 0.45853 0.64397 0.62377 0.0
C875 C 0.48916 0.6699 0.60411 0.0
C876 C 0.47357 0.73306 0.60621 0.0
C877 C 0.45048 0.70805 0.63379 0.0
N878 N 0.42407 0.63881 0.67231 0.0
N879 N 0.48152 0.73117 0.53768 0.0
C880 C 0.44392 0.66324 0.64355 0.0
C881 C 0.48549 0.71283 0.58479 0.0
N882 N 0.4349 0.60199 0.61382 0.0
N883 N 0.48325 0.7764 0.59895 0.0
H884 H 0.4758 0.71343 0.51226 0.0
H885 H 0.47415 0.76082 0.51904 0.0
H886 H 0.47383 0.79256 0.61233 0.0
H887 H 0.50482 0.79608 0.58396 0.0
H888 H 0.40871 0.58208 0.62286 0.0
H889 H 0.43458 0.5893 0.58801 0.0
H890 H 0.42357 0.60681 0.68586 0.0
H891 H 0.41273 0.65163 0.687 0.0
C892 C 0.68637 0.02924 0.97881 0.0
C893 C 0.63862 0.04109 0.94193 0.0
C894 C 0.63645 0.03815 0.86552 0.0
C895 C 0.68971 0.04129 0.90204 0.0
N896 N 0.75493 1.01492 0.98856 0.0
N897 N 0.56902 0.05856 0.84828 0.0
C898 C 0.70981 0.02607 0.957 0.0
C899 C 0.61357 0.04606 0.88446 0.0
N900 N 0.71103 0.02483 0.0343 0.0
N901 N 0.60887 0.02867 0.81326 0.0
H902 H 0.55156 0.06589 0.86049 0.0
H903 H 0.55093 0.06349 0.80613 0.0
H904 H 0.62597 0.02131 0.80054 0.0
H905 H 0.56873 0.0232 0.78584 0.0
H906 H 0.74638 0.0175 0.0632 0.0
H907 H 0.69785 0.03162 0.0519 0.0
H908 H 0.77231 1.00223 0.02933 0.0
H909 H 0.77269 1.0161 0.97128 0.0
C910 C 0.16738 0.41639 0.14435 0.0
C911 C 0.1412 0.42785 0.08658 0.0
C912 C 0.17306 0.37315 0.08787 0.0
C913 C 0.19679 0.35993 0.14573 0.0
N914 N 0.18696 0.35776 0.21522 0.0
N915 N 0.10854 0.40589 0.00214 0.0
C916 C 0.18582 0.3785 0.17018 0.0
C917 C 0.14176 0.40342 0.05823 0.0
N918 N 0.17568 0.44187 0.17587 0.0
N919 N 0.17701 0.35502 0.05913 0.0
H920 H 0.08237 0.42424 0.97902 0.0
H921 H 0.1024 0.38611 0.97858 0.0
H922 H 0.18533 0.32587 0.07197 0.0
H923 H 0.17048 0.36869 0.02139 0.0
H924 H 0.1983 0.437 0.21866 0.0
H925 H 0.16536 0.47043 0.15995 0.0
H926 H 0.17697 0.36886 0.23286 0.0
H927 H 0.18667 0.32584 0.22736 0.0
C928 C 0.63543 0.64252 0.75314 0.0
C929 C 0.62041 0.67219 0.75824 0.0
C930 C 0.63663 0.72407 0.69465 0.0
C931 C 0.66382 0.69875 0.70118 0.0
N932 N 0.68497 0.63214 0.73105 0.0
N933 N 0.60182 0.73961 0.73122 0.0
C934 C 0.66115 0.65705 0.728 0.0
C935 C 0.61859 0.71232 0.72735 0.0
N936 N 0.62532 0.60072 0.77274 0.0
N937 N 0.62753 0.75865 0.65687 0.0
H938 H 0.58665 0.73091 0.7535 0.0
H939 H 0.60509 0.7713 0.71459 0.0
H940 H 0.63676 0.76541 0.62967 0.0
H941 H 0.60513 0.77691 0.64764 0.0
H942 H 0.63119 0.57677 0.76596 0.0
H943 H 0.60631 0.58917 0.79138 0.0
H944 H 0.69038 0.60361 0.75602 0.0
H945 H 0.70079 0.64089 0.7094 0.0
C946 C 0.67052 0.36318 0.1631 0.0
C947 C 0.70488 0.36287 0.15278 0.0
C948 C 0.67423 0.42408 0.08158 0.0
C949 C 0.64811 0.42935 0.09966 0.0
N950 N 0.63733 0.40696 0.17249 0.0
N951 N 0.74675 0.40442 0.10777 0.0
C952 C 0.65097 0.39974 0.14471 0.0
C953 C 0.70884 0.39664 0.1137 0.0
N954 N 0.65347 0.32756 0.18795 0.0
N955 N 0.66422 0.44301 0.03183 0.0
H956 H 0.77463 0.3878 0.13125 0.0
H957 H 0.75426 0.43107 0.08403 0.0
H958 H 0.63584 0.45912 0.00391 0.0
H959 H 0.67881 0.43728 0.01505 0.0
H960 H 0.62552 0.32506 0.19251 0.0
H961 H 0.66106 0.29868 0.19629 0.0
H962 H 0.64216 0.38809 0.20785 0.0
H963 H 0.62843 0.43491 0.16501 0.0
C964 C 0.95195 0.39521 0.42433 0.0
C965 C 0.93631 0.43325 0.40261 0.0
C966 C 0.86997 0.40556 0.31161 0.0
C967 C 0.88945 0.36944 0.33099 0.0
N968 N 0.95338 0.33242 0.40685 0.0
N969 N 0.86205 0.46045 0.33528 0.0
C970 C 0.93105 0.36451 0.38799 0.0
C971 C 0.88982 0.43417 0.34906 0.0
N972 N 0.98308 0.38663 0.47984 0.0
N973 N 0.83368 0.41415 0.25702 0.0
H974 H 0.87277 0.47848 0.36369 0.0
H975 H 0.825 0.45968 0.29893 0.0
H976 H 0.81726 0.39521 0.22706 0.0
H977 H 0.82315 0.44262 0.24052 0.0
H978 H 0.99306 0.35802 0.49919 0.0
H979 H 0.99259 0.40588 0.50624 0.0
H980 H 0.98731 0.33 0.44601 0.0
H981 H 0.94092 0.31025 0.38195 0.0
C982 C 0.64855 0.66692 0.38436 0.0
C983 C 0.64858 0.62295 0.41572 0.0
C984 C 0.71224 0.63821 0.38327 0.0
C985 C 0.71267 0.68286 0.35279 0.0
N986 N 0.68045 0.73676 0.34345 0.0
N987 N 0.68492 0.56979 0.43171 0.0
C988 C 0.6799 0.69485 0.35928 0.0
C989 C 0.68246 0.61076 0.41093 0.0
N990 N 0.61416 0.68346 0.3752 0.0
N991 N 0.74356 0.62076 0.38802 0.0
H992 H 0.66762 0.55124 0.45171 0.0
H993 H 0.70024 0.55322 0.42627 0.0
H994 H 0.7618 0.63573 0.36857 0.0
H995 H 0.75435 0.59356 0.41338 0.0
H996 H 0.60227 0.70943 0.34693 0.0
H997 H 0.59339 0.66842 0.39196 0.0
H998 H 0.66745 0.75244 0.3531 0.0
H999 H 0.69947 0.75709 0.32588 0.0
C1000 C 0.91646 0.35232 0.90771 0.0
C1001 C 0.89783 0.3591 0.85204 0.0
C1002 C 0.92694 0.43617 0.85511 0.0
C1003 C 0.9439 0.42987 0.91026 0.0
N1004 N 0.96745 0.38269 0.99378 0.0
N1005 N 0.90415 0.40505 0.78122 0.0
C1006 C 0.94282 0.3881 0.93824 0.0
C1007 C 0.90937 0.40043 0.82856 0.0
N1008 N 0.90705 0.31161 0.93042 0.0
N1009 N 0.92541 0.47583 0.82735 0.0
H1010 H 0.89475 0.37834 0.7645 0.0
H1011 H 0.91568 0.43441 0.76367 0.0
H1012 H 0.93628 0.50246 0.8451 0.0
H1013 H 0.90908 0.48147 0.78553 0.0
H1014 H 0.9135 0.30426 0.9685 0.0
H1015 H 0.89126 0.28504 0.90981 0.0
H1016 H 0.97284 0.35359 0.01718 0.0
H1017 H 0.98573 0.40786 0.01744 0.0
C1018 C 0.87404 0.90249 0.10916 0.0
C1019 C 0.88815 0.86541 0.15296 0.0
C1020 C 0.96062 0.8925 0.12822 0.0
C1021 C 0.94608 0.92966 0.08469 0.0
N1022 N 0.88452 0.9673 0.04763 0.0
N1023 N 0.95104 0.82835 0.19198 0.0
C1024 C 0.90127 0.93221 0.08011 0.0
C1025 C 0.93346 0.86268 0.15804 0.0
N1026 N 0.82969 0.90922 0.09118 0.0
N1027 N 1.00381 0.88542 0.14356 0.0
H1028 H 0.93633 0.80853 0.21406 0.0
H1029 H 0.97663 0.81744 0.19536 0.0
H1030 H 1.02167 0.90299 0.12392 0.0
H1031 H 1.02413 0.86533 0.17739 0.0
H1032 H 0.80851 0.92733 0.05495 0.0
H1033 H 0.81147 0.89321 0.11044 0.0
H1034 H 0.86063 0.97876 0.04661 0.0
H1035 H 0.8992 0.98786 0.02578 0.0
C1036 C 0.873 0.13245 0.88022 0.0
C1037 C 0.88669 0.17023 0.85027 0.0
C1038 C 0.95118 0.13677 0.87254 0.0
C1039 C 0.93496 0.09835 0.89899 0.0
N1040 N 0.87335 0.05828 0.91936 0.0
N1041 N 0.95766 0.21249 0.84353 0.0
C1042 C 0.89398 0.09618 0.90028 0.0
C1043 C 0.93055 0.17317 0.85285 0.0
N1044 N 0.84461 0.13253 0.89578 0.0
N1045 N 0.98712 0.13906 0.86612 0.0
H1046 H 0.95103 0.2407 0.83949 0.0
H1047 H 0.99229 0.2182 0.8492 0.0
H1048 H 1.00549 0.11523 0.88232 0.0
H1049 H 0.99555 0.16286 0.84081 0.0
H1050 H 0.83685 0.10814 0.92112 0.0
H1051 H 0.83653 0.15963 0.89231 0.0
H1052 H 0.8391 0.05153 0.91498 0.0
H1053 H 0.88754 0.0318 0.93449 0.0
C1054 C 0.65202 0.18108 0.60723 0.0
C1055 C 0.6937 0.17128 0.66146 0.0
C1056 C 0.67466 0.10202 0.63694 0.0
C1057 C 0.63201 0.11115 0.58295 0.0
N1058 N 0.57137 0.15391 0.52306 0.0
N1059 N 0.73497 0.11807 0.7318 0.0
C1060 C 0.61796 0.14894 0.57013 0.0
C1061 C 0.70107 0.12998 0.67757 0.0
N1062 N 0.64639 0.22153 0.58938 0.0
N1063 N 0.69332 0.06909 0.64864 0.0
H1064 H 0.75628 0.13842 0.76239 0.0
H1065 H 0.73801 0.08692 0.74678 0.0
H1066 H 0.67855 0.04961 0.61964 0.0
H1067 H 0.72755 0.064 0.68594 0.0
H1068 H 0.62173 0.2315 0.54803 0.0
H1069 H 0.66793 0.24608 0.6147 0.0
H1070 H 0.5566 0.17849 0.51448 0.0
H1071 H 0.54507 0.13083 0.49557 0.0
C1072 C 0.65257 0.88927 0.38536 0.0
C1073 C 0.62988 0.92363 0.35398 0.0
C1074 C 0.63283 0.92054 0.28056 0.0
C1075 C 0.66083 0.88965 0.31452 0.0
N1076 N 0.69981 0.84513 0.39935 0.0
N1077 N 0.60021 0.97401 0.27356 0.0
C1078 C 0.67096 0.87374 0.36683 0.0
C1079 C 0.62025 0.9397 0.30188 0.0
N1080 N 0.65624 0.8716 0.43256 0.0
N1081 N 0.61821 0.93122 0.2278 0.0
H1082 H 0.58839 0.98803 0.28647 0.0
H1083 H 0.59615 0.98972 0.23761 0.0
H1084 H 0.62632 0.91752 0.21052 0.0
H1085 H 0.59488 0.95135 0.19943 0.0
H1086 H 0.66792 0.84399 0.45492 0.0
H1087 H 0.6442 0.88313 0.44762 0.0
H1088 H 0.71333 0.83549 0.44014 0.0
H1089 H 0.71261 0.83245 0.38621 0.0
C1090 C 0.9379 0.18184 0.35826 0.0
C1091 C 0.8906 0.17315 0.35151 0.0
C1092 C 0.89965 0.09818 0.39327 0.0
C1093 C 0.94657 0.10656 0.39826 0.0
N1094 N 0.9931 0.1549 0.36006 0.0
N1095 N 0.82243 0.11842 0.35498 0.0
C1096 C 0.96087 0.14804 0.37378 0.0
C1097 C 0.87096 0.13014 0.36769 0.0
N1098 N 0.96237 0.22329 0.35088 0.0
N1099 N 0.88007 0.05862 0.41059 0.0
H1100 H 0.80069 0.13993 0.33711 0.0
H1101 H 0.80185 0.08698 0.35808 0.0
H1102 H 0.88734 0.03131 0.41305 0.0
H1103 H 0.8546 0.05269 0.42014 0.0
H1104 H 0.99934 0.23275 0.36043 0.0
H1105 H 0.94835 0.24875 0.34122 0.0
H1106 H 1.00142 0.1829 0.33837 0.0
H1107 H 1.0039 0.13062 0.36083 0.0
C1108 C 0.69081 0.17316 0.12735 0.0
C1109 C 0.69771 0.16821 0.17769 0.0
C1110 C 0.65897 0.09065 0.17007 0.0
C1111 C 0.65725 0.09423 0.12289 0.0
N1112 N 0.67994 0.14065 0.06203 0.0
N1113 N 0.65806 0.1254 0.22374 0.0
C1114 C 0.67464 0.13609 0.10239 0.0
C1115 C 0.67355 0.1278 0.19276 0.0
N1116 N 0.69463 0.21284 0.10043 0.0
N1117 N 0.64633 0.05178 0.19417 0.0
H1118 H 0.6601 0.1525 0.23365 0.0
H1119 H 0.63561 0.09742 0.23179 0.0
H1120 H 0.62491 0.02366 0.17524 0.0
H1121 H 0.65833 0.04798 0.23448 0.0
H1122 H 0.68512 0.2184 0.06103 0.0
H1123 H 0.70021 0.23945 0.1143 0.0
H1124 H 0.69798 0.16962 0.05001 0.0
H1125 H 0.67149 0.11496 0.0445 0.0
C1126 C 0.64735 0.78633 0.93156 0.0
C1127 C 0.68631 0.81366 0.92403 0.0
C1128 C 0.68966 0.87281 0.95399 0.0
C1129 C 0.65666 0.84403 0.96925 0.0
N1130 N 0.60898 0.77179 0.97889 0.0
N1131 N 0.75036 0.88163 0.93586 0.0
C1132 C 0.63648 0.80033 0.95943 0.0
C1133 C 0.70891 0.85666 0.93711 0.0
N1134 N 0.62003 0.74733 0.91105 0.0
N1135 N 0.70156 0.91579 0.95427 0.0
H1136 H 0.76579 0.87116 0.92378 0.0
H1137 H 0.7722 0.91145 0.95127 0.0
H1138 H 0.6874 0.92883 0.96543 0.0
H1139 H 0.72103 0.93847 0.9382 0.0
H1140 H 0.58752 0.72785 0.91011 0.0
H1141 H 0.62704 0.73613 0.89048 0.0
H1142 H 0.59831 0.73886 0.97836 0.0
H1143 H 0.60046 0.78073 0.9997 0.0
C1144 C 0.93428 0.88751 0.72758 0.0
C1145 C 0.96024 0.86118 0.7337 0.0
C1146 C 0.94775 0.8131 0.80231 0.0
C1147 C 0.91391 0.83538 0.7879 0.0
N1148 N 0.88381 0.89849 0.74706 0.0
N1149 N 0.99769 0.80214 0.78038 0.0
C1150 C 0.91042 0.87414 0.75413 0.0
C1151 C 0.96956 0.82516 0.77291 0.0
N1152 N 0.93168 0.92586 0.69667 0.0
N1153 N 0.95805 0.78035 0.84303 0.0
H1154 H 1.01414 0.81072 0.75944 0.0
H1155 H 1.00479 0.77448 0.80666 0.0
H1156 H 0.94534 0.77253 0.86737 0.0
H1157 H 0.98247 0.76267 0.85618 0.0
H1158 H 0.94962 0.93967 0.6768 0.0
H1159 H 0.94962 0.93967 0.6768 0.0
H1160 H 0.87928 0.92686 0.72131 0.0
H1161 H 0.86807 0.89097 0.76856 0.0
C1162 C 0.12792 0.81991 0.88832 0.0
C1163 C 0.15835 0.84781 0.86945 0.0
C1164 C 0.13942 0.90929 0.87019 0.0
C1165 C 0.10743 0.88131 0.88736 0.0
N1166 N 0.07792 0.81021 0.92095 0.0
N1167 N 0.18757 0.91816 0.8352 0.0
C1168 C 0.10376 0.83672 0.89883 0.0
C1169 C 0.16252 0.89225 0.8584 0.0
N1170 N 0.11936 0.77674 0.89288 0.0
N1171 N 0.15068 0.95247 0.86872 0.0
H1172 H 0.20676 0.90732 0.82828 0.0
H1173 H 0.18639 0.94957 0.81923 0.0
H1174 H 0.13646 0.96623 0.87905 0.0
H1175 H 0.1779 0.97479 0.86237 0.0
H1176 H 0.09256 0.75393 0.89952 0.0
H1177 H 0.13636 0.76313 0.88595 0.0
H1178 H 0.08096 0.77944 0.93894 0.0
H1179 H 0.05426 0.81912 0.92317 0.0
C1180 C 1.03385 0.46205 0.66057 0.0
C1181 C 1.03103 0.49969 0.62501 0.0
C1182 C 0.96189 0.50629 0.62033 0.0
C1183 C 0.95584 0.46358 0.64276 0.0
N1184 N 0.99862 0.40839 0.70595 0.0
N1185 N 1.01986 0.56923 0.60759 0.0
C1186 C 0.99692 0.44475 0.67169 0.0
C1187 C 1.00452 0.52612 0.61755 0.0
N1188 N 0.07027 0.44214 0.68237 0.0
N1189 N 0.92533 0.52635 0.5981 0.0
H1190 H 0.0527 0.58402 0.60789 0.0
H1191 H 1.00383 0.58998 0.60568 0.0
H1192 H 0.89393 0.5121 0.6004 0.0
H1193 H 0.92568 0.55629 0.57614 0.0
H1194 H 0.07037 0.41271 0.70565 0.0
H1195 H 0.10097 0.45622 0.67894 0.0
H1196 H 0.97224 0.39411 0.71584 0.0
H1197 H 0.97224 0.39411 0.71584 0.0
C1198 C 0.45229 0.13992 0.37001 0.0
C1199 C 0.43869 0.1024 0.39948 0.0
C1200 C 0.36235 0.12732 0.36148 0.0
C1201 C 0.37519 0.16407 0.33027 0.0
N1202 N 0.42639 0.19488 0.29466 0.0
N1203 N 0.37204 0.0569 0.41148 0.0
C1204 C 0.41788 0.16686 0.33126 0.0
C1205 C 0.39154 0.09551 0.39231 0.0
N1206 N 0.50037 0.15246 0.38133 0.0
N1207 N 0.32041 0.12132 0.36003 0.0
H1208 H 0.39013 0.03246 0.4314 0.0
H1209 H 0.33548 0.04722 0.40301 0.0
H1210 H 0.29225 0.1376 0.33094 0.0
H1211 H 0.31376 0.1004 0.38813 0.0
H1212 H 0.51498 0.18208 0.36671 0.0
H1213 H 0.52826 0.13605 0.41016 0.0
H1214 H 0.44956 0.19216 0.28636 0.0
H1215 H 0.40906 0.21942 0.27066 0.0
C1216 C 0.65767 0.65643 0.06956 0.0
C1217 C 0.63982 0.61947 0.09561 0.0
C1218 C 0.67135 0.66241 0.16466 0.0
C1219 C 0.69463 0.69839 0.14281 0.0
N1220 N 0.71848 0.72671 0.08009 0.0
N1221 N 0.64425 0.58545 0.17717 0.0
C1222 C 0.69053 0.69458 0.09695 0.0
C1223 C 0.652 0.62189 0.1465 0.0
N1224 N 0.6412 0.65595 0.01769 0.0
N1225 N 0.6635 0.66724 0.19924 0.0
H1226 H 0.6313 0.55509 0.16544 0.0
H1227 H 0.6563 0.58557 0.21672 0.0
H1228 H 0.66983 0.69712 0.20714 0.0
H1229 H 0.64349 0.64214 0.2132 0.0
H1230 H 0.64918 0.68297 0.99475 0.0
H1231 H 0.61602 0.62907 0.99615 0.0
H1232 H 0.72052 0.72376 0.05013 0.0
H1233 H 0.74332 0.75486 0.09932 0.0
C1234 C 0.1896 0.19377 0.5939 0.0
C1235 C 0.20783 0.18886 0.64929 0.0
C1236 C 0.16893 0.1114 0.64488 0.0
C1237 C 0.14251 0.11738 0.58736 0.0
N1238 N 0.1253 0.16464 0.50563 0.0
N1239 N 0.21012 0.1432 0.72623 0.0
C1240 C 0.15275 0.1586 0.56143 0.0
C1241 C 0.19674 0.14764 0.67463 0.0
N1242 N 0.20645 0.2322 0.57207 0.0
N1243 N 0.1669 0.07107 0.67106 0.0
H1244 H 0.23057 0.16897 0.74913 0.0
H1245 H 0.19749 0.11488 0.74432 0.0
H1246 H 0.14639 0.04364 0.65042 0.0
H1247 H 0.18972 0.06494 0.71367 0.0
H1248 H 0.19844 0.23675 0.53349 0.0
H1249 H 0.23232 0.25878 0.59454 0.0
H1250 H 0.12702 0.19447 0.48374 0.0
H1251 H 0.09813 0.13975 0.48082 0.0
C1252 C 0.6543 0.33157 0.41688 0.0
C1253 C 0.66666 0.35198 0.37877 0.0
C1254 C 0.62437 0.40699 0.3526 0.0
C1255 C 0.61508 0.38815 0.39348 0.0
N1256 N 0.63438 0.33827 0.47394 0.0
N1257 N 0.67192 0.4137 0.31766 0.0
C1258 C 0.63378 0.35202 0.42822 0.0
C1259 C 0.65456 0.39127 0.34921 0.0
N1260 N 0.6609 0.29186 0.44151 0.0
N1261 N 0.60171 0.43822 0.31456 0.0
H1262 H 0.6929 0.40278 0.31335 0.0
H1263 H 0.66937 0.44455 0.2995 0.0
H1264 H 0.5759 0.44808 0.31223 0.0
H1265 H 0.60384 0.45132 0.2815 0.0
H1266 H 0.64689 0.27307 0.46449 0.0
H1267 H 0.67651 0.27612 0.4352 0.0
H1268 H 0.65221 0.31503 0.50376 0.0
H1269 H 0.62239 0.35339 0.48547 0.0
C1270 C 0.50899 0.02885 0.11983 0.0
C1271 C 0.50953 0.99234 0.10808 0.0
C1272 C 0.48583 0.94812 0.16879 0.0
C1273 C 0.47129 0.98155 0.16731 0.0
N1274 N 0.47578 0.05585 0.1482 0.0
N1275 N 0.48395 0.91485 0.11214 0.0
C1276 C 0.48514 0.02261 0.14504 0.0
C1277 C 0.49412 0.95117 0.13014 0.0
N1278 N 0.53058 0.06981 0.10802 0.0
N1279 N 0.49029 0.91314 0.20579 0.0
H1280 H 0.48344 0.91498 0.07909 0.0
H1281 H 0.46911 0.8845 0.12535 0.0
H1282 H 0.4898 0.91198 0.23845 0.0
H1283 H 0.50292 0.88893 0.2091 0.0
H1284 H 0.55186 0.07859 0.09244 0.0
H1285 H 0.55186 0.07859 0.09244 0.0
H1286 H 0.48491 0.08682 0.13154 0.0
H1287 H 0.45942 0.05186 0.16809 0.0
C1288 C 0.89667 0.59854 0.88918 0.0
C1289 C 0.94192 0.60634 0.89212 0.0
C1290 C 0.91778 0.67142 0.82589 0.0
C1291 C 0.87672 0.66719 0.82877 0.0
N1292 N 0.82736 0.62271 0.86451 0.0
N1293 N 0.99895 0.65706 0.86831 0.0
C1294 C 0.8669 0.62979 0.86138 0.0
C1295 C 0.95277 0.64435 0.8613 0.0
N1296 N 0.87934 0.55946 0.90959 0.0
N1297 N 0.92418 0.70121 0.78882 0.0
H1298 H 1.02646 0.63999 0.89395 0.0
H1299 H 1.01259 0.68698 0.85332 0.0
H1300 H 0.90645 0.7257 0.76738 0.0
H1301 H 0.946 0.70038 0.77757 0.0
H1302 H 0.84407 0.54908 0.90419 0.0
H1303 H 0.89754 0.5353 0.92711 0.0
H1304 H 0.82346 0.60137 0.89421 0.0
H1305 H 0.79863 0.63864 0.8379 0.0
C1306 C 0.45024 0.38756 0.23951 0.0
C1307 C 0.46725 0.35697 0.23891 0.0
C1308 C 0.44976 0.30858 0.30337 0.0
C1309 C 0.41834 0.33331 0.2893 0.0
N1310 N 0.39623 0.39988 0.25396 0.0
N1311 N 0.49679 0.29385 0.28058 0.0
C1312 C 0.4218 0.37439 0.26129 0.0
C1313 C 0.47226 0.31937 0.27504 0.0
N1314 N 0.4613 0.42886 0.219 0.0
N1315 N 0.4586 0.2758 0.34394 0.0
H1316 H 0.51302 0.30139 0.25964 0.0
H1317 H 0.50143 0.26546 0.30575 0.0
H1318 H 0.44381 0.26806 0.36629 0.0
H1319 H 0.48547 0.2596 0.36004 0.0
H1320 H 0.4534 0.45343 0.22202 0.0
H1321 H 0.48335 0.43938 0.20394 0.0
H1322 H 0.39169 0.42801 0.22798 0.0
H1323 H 0.3782 0.39198 0.27315 0.0
C1324 C 0.42516 0.61753 0.92994 0.0
C1325 C 0.45266 0.61196 0.91375 0.0
C1326 C 0.42899 0.67647 0.84713 0.0
C1327 C 0.39386 0.67699 0.85615 0.0
N1328 N 0.35106 0.63714 0.90016 0.0
N1329 N 0.46466 0.63241 0.84185 0.0
C1330 C 0.38982 0.64434 0.89579 0.0
C1331 C 0.44989 0.64041 0.86803 0.0
N1332 N 0.43444 0.59956 0.97962 0.0
N1333 N 0.44507 0.71134 0.82069 0.0
H1334 H 0.47443 0.60459 0.85085 0.0
H1335 H 0.45983 0.65034 0.80609 0.0
H1336 H 0.43575 0.73984 0.80969 0.0
H1337 H 0.47353 0.71387 0.81689 0.0
H1338 H 0.41863 0.60552 0.99486 0.0
H1339 H 0.46327 0.58406 0.00889 0.0
H1340 H 0.34341 0.61124 0.92449 0.0
H1341 H 0.32287 0.65362 0.8748 0.0
C1342 C 0.1684 0.64657 0.58673 0.0
C1343 C 0.15217 0.60378 0.60622 0.0
C1344 C 0.17072 0.63323 0.68036 0.0
C1345 C 0.19666 0.67387 0.66827 0.0
N1346 N 0.19491 0.72287 0.59367 0.0
N1347 N 0.14901 0.55798 0.68195 0.0
C1348 C 0.18845 0.68187 0.61666 0.0
C1349 C 0.15655 0.59754 0.65585 0.0
N1350 N 0.16874 0.65343 0.54226 0.0
N1351 N 0.15507 0.62909 0.71179 0.0
H1352 H 0.13882 0.52934 0.66897 0.0
H1353 H 0.15754 0.55368 0.72079 0.0
H1354 H 0.15824 0.65544 0.72412 0.0
H1355 H 0.13145 0.60072 0.71764 0.0
H1356 H 0.18619 0.68279 0.53023 0.0
H1357 H 0.15557 0.62905 0.51983 0.0
H1358 H 0.18491 0.73105 0.55398 0.0
H1359 H 0.20411 0.74861 0.61164 0.0
C1360 C 0.43657 0.36148 0.65975 0.0
C1361 C 0.39187 0.36402 0.65601 0.0
C1362 C 0.40885 0.43448 0.58852 0.0
C1363 C 0.45097 0.43055 0.58929 0.0
N1364 N 0.49364 0.37558 0.6299 0.0
N1365 N 0.33839 0.41202 0.60152 0.0
C1366 C 0.46079 0.38981 0.62676 0.0
C1367 C 0.38034 0.40339 0.61597 0.0
N1368 N 0.4591 0.33064 0.69838 0.0
N1369 N 0.3959 0.47184 0.56131 0.0
H1370 H 0.32001 0.39505 0.62055 0.0
H1371 H 0.3195 0.43327 0.56854 0.0
H1372 H 0.41161 0.49341 0.5408 0.0
H1373 H 0.3744 0.48372 0.5636 0.0
H1374 H 0.49426 0.32803 0.71218 0.0
H1375 H 0.44449 0.30995 0.72021 0.0
H1376 H 0.49936 0.34536 0.64705 0.0
H1377 H 0.51165 0.39331 0.61043 0.0
C1378 C 0.209 0.63962 0.16584 0.0
C1379 C 0.20304 0.68139 0.14997 0.0
C1380 C 0.12534 0.65922 0.05917 0.0
C1381 C 0.13742 0.62036 0.07194 0.0
N1382 N 0.19871 0.57796 0.13621 0.0
N1383 N 0.15812 0.73277 0.07816 0.0
C1384 C 0.18095 0.6113 0.12518 0.0
C1385 C 0.16154 0.69168 0.09592 0.0
N1386 N 0.24204 0.62707 0.21996 0.0
N1387 N 0.07894 0.66504 0.01233 0.0
H1388 H 0.1831 0.7578 0.10322 0.0
H1389 H 0.13263 0.74274 0.03708 0.0
H1390 H 0.05112 0.64183 0.98496 0.0
H1391 H 0.06595 0.69087 0.00367 0.0
H1392 H 0.24428 0.59569 0.23449 0.0
H1393 H 0.26242 0.64687 0.25076 0.0
H1394 H 0.23342 0.57305 0.17292 0.0
H1395 H 0.18295 0.55815 0.10711 0.0
C1396 C 0.69472 0.38328 0.6888 0.0
C1397 C 0.71326 0.37057 0.66743 0.0
C1398 C 0.68945 0.43346 0.59642 0.0
C1399 C 0.66365 0.44162 0.6126 0.0
N1400 N 0.63395 0.41515 0.67 0.0
N1401 N 0.71723 0.382 0.59121 0.0
C1402 C 0.66432 0.41399 0.65768 0.0
C1403 C 0.7077 0.39549 0.61869 0.0
N1404 N 0.70829 0.36808 0.74064 0.0
N1405 N 0.69821 0.46283 0.56053 0.0
H1406 H 0.72558 0.35309 0.602 0.0
H1407 H 0.71077 0.39687 0.55383 0.0
H1408 H 0.68793 0.49137 0.54531 0.0
H1409 H 0.72115 0.46143 0.55112 0.0
H1410 H 0.70045 0.37934 0.7603 0.0
H1411 H 0.73308 0.34861 0.76673 0.0
H1412 H 0.62805 0.39258 0.69783 0.0
H1413 H 0.6104 0.43562 0.64857 0.0
C1414 C 0.91355 0.56543 0.21856 0.0
C1415 C 0.91855 0.60998 0.20494 0.0
C1416 C 0.95554 0.61345 0.15906 0.0
C1417 C 0.94532 0.56822 0.16757 0.0
N1418 N 0.90412 0.50047 0.19516 0.0
N1419 N 0.93469 0.6749 0.15284 0.0
C1420 C 0.92126 0.54399 0.19438 0.0
C1421 C 0.9367 0.63358 0.17237 0.0
N1422 N 0.90359 0.54385 0.25638 0.0
N1423 N 0.98572 0.63753 0.14119 0.0
H1424 H 0.9208 0.6907 0.16131 0.0
H1425 H 0.94223 0.69211 0.12413 0.0
H1426 H 1.00238 0.62442 0.13328 0.0
H1427 H 0.99891 0.67073 0.13995 0.0
H1428 H 0.90564 0.51257 0.27249 0.0
H1429 H 0.89883 0.55849 0.27607 0.0
H1430 H 0.88186 0.48152 0.20948 0.0
H1431 H 0.90745 0.4836 0.17631 0.0
C1432 C 0.871 0.65699 0.51699 0.0
C1433 C 0.9072 0.68512 0.50566 0.0
C1434 C 0.91068 0.74452 0.53549 0.0
C1435 C 0.87157 0.71706 0.54279 0.0
N1436 N 0.80688 0.64946 0.52972 0.0
N1437 N 0.9535 0.75715 0.49345 0.0
C1438 C 0.84955 0.6739 0.53047 0.0
C1439 C 0.92475 0.72937 0.51183 0.0
N1440 N 0.85814 0.6139 0.51637 0.0
N1441 N 0.93585 0.78454 0.5531 0.0
H1442 H 0.96442 0.74726 0.47579 0.0
H1443 H 0.96243 0.79022 0.49105 0.0
H1444 H 0.92727 0.79664 0.57134 0.0
H1445 H 0.96827 0.80438 0.55407 0.0
H1446 H 0.83696 0.59146 0.53061 0.0
H1447 H 0.87199 0.6002 0.50556 0.0
H1448 H 0.78627 0.61897 0.51639 0.0
H1449 H 0.78905 0.66102 0.53774 0.0
C1450 C 0.41803 0.61378 0.41655 0.0
C1451 C 0.44197 0.60429 0.39899 0.0
C1452 C 0.40537 0.65939 0.31899 0.0
C1453 C 0.38786 0.67307 0.34072 0.0
N1454 N 0.38968 0.66598 0.41979 0.0
N1455 N 0.46623 0.62806 0.33691 0.0
C1456 C 0.39752 0.65077 0.39208 0.0
C1457 C 0.43757 0.62987 0.35108 0.0
N1458 N 0.41278 0.58643 0.45572 0.0
N1459 N 0.38928 0.67272 0.26608 0.0
H1460 H 0.49122 0.60876 0.35904 0.0
H1461 H 0.46946 0.64923 0.30668 0.0
H1462 H 0.36412 0.69191 0.24012 0.0
H1463 H 0.39588 0.66052 0.24599 0.0
H1464 H 0.39148 0.58878 0.46669 0.0
H1465 H 0.42413 0.55834 0.47241 0.0
H1466 H 0.40023 0.65389 0.45935 0.0
H1467 H 0.37853 0.69389 0.40629 0.0
C1468 C 0.15127 0.39467 0.81361 0.0
C1469 C 0.18271 0.42164 0.79579 0.0
C1470 C 0.18761 0.48404 0.82142 0.0
C1471 C 0.15053 0.45786 0.83205 0.0
N1472 N 0.09254 0.38912 0.83314 0.0
N1473 N 0.22678 0.49241 0.77694 0.0
C1474 C 0.13132 0.4133 0.82713 0.0
C1475 C 0.20008 0.46648 0.7984 0.0
N1476 N 0.14112 0.35132 0.81829 0.0
N1477 N 0.21168 0.52543 0.83448 0.0
H1478 H 0.23614 0.48087 0.75904 0.0
H1479 H 0.23636 0.52561 0.77303 0.0
H1480 H 0.20344 0.53941 0.85138 0.0
H1481 H 0.24291 0.54484 0.8331 0.0
H1482 H 0.12282 0.33007 0.83623 0.0
H1483 H 0.15505 0.33665 0.80854 0.0
H1484 H 0.07281 0.35749 0.82386 0.0
H1485 H 0.07705 0.40163 0.84321 0.0
C1486 C 0.15211 0.29661 0.42454 0.0
C1487 C 0.19763 0.31978 0.42673 0.0
C1488 C 0.2068 0.37914 0.4614 0.0
C1489 C 0.16649 0.3535 0.46735 0.0
N1490 N 0.10537 0.28495 0.46184 0.0
N1491 N 0.275 0.37951 0.45971 0.0
C1492 C 0.14025 0.31136 0.45083 0.0
C1493 C 0.22684 0.36015 0.44851 0.0
N1494 N 0.11938 0.2613 0.39594 0.0
N1495 N 0.22511 0.42199 0.46659 0.0
H1496 H 0.29268 0.3657 0.45395 0.0
H1497 H 0.29962 0.40707 0.4803 0.0
H1498 H 0.2104 0.43741 0.47447 0.0
H1499 H 0.25101 0.44274 0.45745 0.0
H1500 H 0.08372 0.24506 0.38944 0.0
H1501 H 0.12546 0.25056 0.37415 0.0
H1502 H 0.08893 0.25262 0.45566 0.0
H1503 H 0.09617 0.29442 0.48158 0.0
loop_
_geom_bond_atom_site_label_1
_geom_bond_atom_site_label_2
_geom_bond_distance
_geom_bond_site_symmetry_2
_ccdc_geom_bond_type
Tb0 C2 2.809 . S
Tb0 O20 2.484 1_655 S
Tb0 O21 2.440 . S
Tb0 O22 2.658 1_556 S
Tb0 O23 2.409 . S
Tb0 O24 2.378 1_656 S
Tb0 O28 2.325 1_665 S
Tb0 O31 2.341 1_565 S
Tb1 C11 2.809 . S
Tb1 O22 2.325 1_445 S
Tb1 O25 2.341 1_545 S
Tb1 O26 2.484 1_455 S
Tb1 O27 2.440 . S
Tb1 O28 2.658 1_554 S
Tb1 O29 2.409 . S
Tb1 O30 2.378 1_454 S
C2 Tb0 2.809 . S
C2 C3 1.514 . S
C2 O20 1.248 1_655 S
C2 O21 1.266 . S
C3 C2 1.514 . S
C3 C4 1.359 1_655 S
C3 C8 1.348 . S
C4 C3 1.359 1_455 S
C4 C5 1.380 . S
C4 H32 0.929 . S
C5 C4 1.380 . S
C5 C6 1.347 . S
C5 H33 0.931 . S
C6 C5 1.347 . S
C6 C7 1.369 1_455 S
C7 C6 1.369 1_655 S
C7 C8 1.408 . S
C7 H34 0.930 . S
C8 C3 1.348 . S
C8 C7 1.408 . S
C8 H35 0.930 . S
C9 O22 1.281 . S
C9 O23 1.254 1_554 S
C10 O24 1.236 . S
C10 O25 1.266 . S
C11 Tb1 2.809 . S
C11 C12 1.514 . S
C11 O26 1.248 1_455 S
C11 O27 1.266 . S
C12 C11 1.514 . S
C12 C13 1.359 1_455 S
C12 C17 1.348 . S
C13 C12 1.359 1_655 S
C13 C14 1.380 . S
C13 H36 0.929 . S
C14 C13 1.380 . S
C14 C15 1.347 . S
C14 H37 0.931 . S
C15 C14 1.347 . S
C15 C16 1.369 1_655 S
C16 C15 1.369 1_455 S
C16 C17 1.408 . S
C16 H38 0.930 . S
C17 C12 1.348 . S
C17 C16 1.408 . S
C17 H39 0.930 . S
C18 O28 1.281 . S
C18 O29 1.254 1_556 S
C19 O30 1.236 . S
C19 O31 1.266 . S
O20 Tb0 2.484 1_455 S
O20 C2 1.248 1_455 S
O21 Tb0 2.440 . S
O21 C2 1.266 . S
O22 Tb0 2.658 1_554 S
O22 Tb1 2.325 1_665 S
O22 C9 1.281 . S
O23 Tb0 2.409 . S
O23 C9 1.254 1_556 S
O24 Tb0 2.378 1_454 S
O24 C10 1.236 . S
O25 Tb1 2.341 1_565 S
O25 C10 1.266 . S
O26 Tb1 2.484 1_655 S
O26 C11 1.248 1_655 S
O27 Tb1 2.440 . S
O27 C11 1.266 . S
O28 Tb0 2.325 1_445 S
O28 Tb1 2.658 1_556 S
O28 C18 1.281 . S
O29 Tb1 2.409 . S
O29 C18 1.254 1_554 S
O30 Tb1 2.378 1_656 S
O30 C19 1.236 . S
O31 Tb0 2.341 1_545 S
O31 C19 1.266 . S
H32 C4 0.929 . S
H33 C5 0.931 . S
H34 C7 0.930 . S
H35 C8 0.930 . S
H36 C13 0.929 . S
H37 C14 0.931 . S
H38 C16 0.930 . S
H39 C17 0.930 . S
Tb40 C42 2.809 . S
Tb40 O60 2.484 . S
Tb40 O61 2.440 . S
Tb40 O62 2.658 . S
Tb40 O63 2.409 . S
Tb40 O64 2.378 . S
Tb40 O68 2.325 . S
Tb40 O71 2.341 . S
Tb41 C51 2.809 . S
Tb41 O62 2.325 . S
Tb41 O65 2.341 . S
Tb41 O66 2.484 . S
Tb41 O67 2.440 . S
Tb41 O68 2.658 . S
Tb41 O69 2.409 . S
Tb41 O70 2.378 . S
C42 Tb40 2.809 . S
C42 C43 1.514 . S
C42 O60 1.248 . S
C42 O61 1.266 . S
C43 C42 1.514 . S
C43 C44 1.359 . S
C43 C48 1.348 . S
C44 C43 1.359 . S
C44 C45 1.380 . S
C44 H72 0.929 . S
C45 C44 1.380 . S
C45 C46 1.347 . S
C45 H73 0.931 . S
C46 C45 1.347 . S
C46 C47 1.369 . S
C47 C46 1.369 . S
C47 C48 1.408 . S
C47 H74 0.930 . S
C48 C43 1.348 . S
C48 C47 1.408 . S
C48 H75 0.930 . S
C49 O62 1.281 . S
C49 O63 1.254 . S
C50 O64 1.236 . S
C50 O65 1.266 . S
C51 Tb41 2.809 . S
C51 C52 1.514 . S
C51 O66 1.248 . S
C51 O67 1.266 . S
C52 C51 1.514 . S
C52 C53 1.359 . S
C52 C57 1.348 . S
C53 C52 1.359 . S
C53 C54 1.380 . S
C53 H76 0.929 . S
C54 C53 1.380 . S
C54 C55 1.347 . S
C54 H77 0.931 . S
C55 C54 1.347 . S
C55 C56 1.369 . S
C56 C55 1.369 . S
C56 C57 1.408 . S
C56 H78 0.930 . S
C57 C52 1.348 . S
C57 C56 1.408 . S
C57 H79 0.930 . S
C58 O68 1.281 . S
C58 O69 1.254 . S
C59 O70 1.236 . S
C59 O71 1.266 . S
O60 Tb40 2.484 . S
O60 C42 1.248 . S
O61 Tb40 2.440 . S
O61 C42 1.266 . S
O62 Tb40 2.658 . S
O62 Tb41 2.325 . S
O62 C49 1.281 . S
O63 Tb40 2.409 . S
O63 C49 1.254 . S
O64 Tb40 2.378 . S
O64 C50 1.236 . S
O65 Tb41 2.341 . S
O65 C50 1.266 . S
O66 Tb41 2.484 . S
O66 C51 1.248 . S
O67 Tb41 2.440 . S
O67 C51 1.266 . S
O68 Tb40 2.325 . S
O68 Tb41 2.658 . S
O68 C58 1.281 . S
O69 Tb41 2.409 . S
O69 C58 1.254 . S
O70 Tb41 2.378 . S
O70 C59 1.236 . S
O71 Tb40 2.341 . S
O71 C59 1.266 . S
H72 C44 0.929 . S
H73 C45 0.931 . S
H74 C47 0.930 . S
H75 C48 0.930 . S
H76 C53 0.929 . S
H77 C54 0.931 . S
H78 C56 0.930 . S
H79 C57 0.930 . S
Tb80 C82 2.809 1_565 S
Tb80 O100 2.484 1_565 S
Tb80 O101 2.440 . S
Tb80 O102 2.658 . S
Tb80 O103 2.409 . S
Tb80 O104 2.378 1_565 S
Tb80 O108 2.325 1_565 S
Tb80 O111 2.341 . S
Tb81 C91 2.809 1_545 S
Tb81 O102 2.325 1_545 S
Tb81 O105 2.341 . S
Tb81 O106 2.484 1_545 S
Tb81 O107 2.440 . S
Tb81 O108 2.658 . S
Tb81 O109 2.409 . S
Tb81 O110 2.378 1_545 S
C82 Tb80 2.809 1_545 S
C82 C83 1.514 . S
C82 O100 1.248 . S
C82 O101 1.266 1_545 S
C83 C82 1.514 . S
C83 C84 1.359 . S
C83 C88 1.348 . S
C84 C83 1.359 . S
C84 C85 1.380 . S
C84 H112 0.929 . S
C85 C84 1.380 . S
C85 C86 1.347 . S
C85 H113 0.931 . S
C86 C85 1.347 . S
C86 C87 1.369 . S
C87 C86 1.369 . S
C87 C88 1.408 . S
C87 H114 0.930 . S
C88 C83 1.348 . S
C88 C87 1.408 . S
C88 H115 0.930 1_545 S
C89 O102 1.281 . S
C89 O103 1.254 . S
C90 O104 1.236 . S
C90 O105 1.266 . S
C91 Tb81 2.809 1_565 S
C91 C92 1.514 . S
C91 O106 1.248 . S
C91 O107 1.266 1_565 S
C92 C91 1.514 . S
C92 C93 1.359 . S
C92 C97 1.348 . S
C93 C92 1.359 . S
C93 C94 1.380 . S
C93 H116 0.929 . S
C94 C93 1.380 . S
C94 C95 1.347 . S
C94 H117 0.931 . S
C95 C94 1.347 . S
C95 C96 1.369 . S
C96 C95 1.369 . S
C96 C97 1.408 . S
C96 H118 0.930 . S
C97 C92 1.348 . S
C97 C96 1.408 . S
C97 H119 0.930 1_565 S
C98 O108 1.281 . S
C98 O109 1.254 . S
C99 O110 1.236 . S
C99 O111 1.266 . S
O100 Tb80 2.484 1_545 S
O100 C82 1.248 . S
O101 Tb80 2.440 . S
O101 C82 1.266 1_565 S
O102 Tb80 2.658 . S
O102 Tb81 2.325 1_565 S
O102 C89 1.281 . S
O103 Tb80 2.409 . S
O103 C89 1.254 . S
O104 Tb80 2.378 1_545 S
O104 C90 1.236 . S
O105 Tb81 2.341 . S
O105 C90 1.266 . S
O106 Tb81 2.484 1_565 S
O106 C91 1.248 . S
O107 Tb81 2.440 . S
O107 C91 1.266 1_545 S
O108 Tb80 2.325 1_545 S
O108 Tb81 2.658 . S
O108 C98 1.281 . S
O109 Tb81 2.409 . S
O109 C98 1.254 . S
O110 Tb81 2.378 1_565 S
O110 C99 1.236 . S
O111 Tb80 2.341 . S
O111 C99 1.266 . S
H112 C84 0.929 . S
H113 C85 0.931 . S
H114 C87 0.930 . S
H115 C88 0.930 1_565 S
H116 C93 0.929 . S
H117 C94 0.931 . S
H118 C96 0.930 . S
H119 C97 0.930 1_545 S
Tb120 C122 2.809 . S
Tb120 O140 2.484 . S
Tb120 O141 2.440 . S
Tb120 O142 2.658 . S
Tb120 O143 2.409 . S
Tb120 O144 2.378 . S
Tb120 O148 2.325 . S
Tb120 O151 2.341 . S
Tb121 C131 2.809 . S
Tb121 O142 2.325 . S
Tb121 O145 2.341 . S
Tb121 O146 2.484 . S
Tb121 O147 2.440 . S
Tb121 O148 2.658 . S
Tb121 O149 2.409 . S
Tb121 O150 2.378 . S
C122 Tb120 2.809 . S
C122 C123 1.514 . S
C122 O140 1.248 . S
C122 O141 1.266 . S
C123 C122 1.514 . S
C123 C124 1.359 . S
C123 C128 1.348 . S
C124 C123 1.359 . S
C124 C125 1.380 . S
C124 H152 0.929 . S
C125 C124 1.380 . S
C125 C126 1.347 . S
C125 H153 0.931 . S
C126 C125 1.347 . S
C126 C127 1.369 . S
C127 C126 1.369 . S
C127 C128 1.408 . S
C127 H154 0.930 . S
C128 C123 1.348 . S
C128 C127 1.408 . S
C128 H155 0.930 . S
C129 O142 1.281 . S
C129 O143 1.254 . S
C130 O144 1.236 . S
C130 O145 1.266 . S
C131 Tb121 2.809 . S
C131 C132 1.514 . S
C131 O146 1.248 . S
C131 O147 1.266 . S
C132 C131 1.514 . S
C132 C133 1.359 . S
C132 C137 1.348 . S
C133 C132 1.359 . S
C133 C134 1.380 . S
C133 H156 0.929 . S
C134 C133 1.380 . S
C134 C135 1.347 . S
C134 H157 0.931 . S
C135 C134 1.347 . S
C135 C136 1.369 . S
C136 C135 1.369 . S
C136 C137 1.408 . S
C136 H158 0.930 . S
C137 C132 1.348 . S
C137 C136 1.408 . S
C137 H159 0.930 . S
C138 O148 1.281 . S
C138 O149 1.254 . S
C139 O150 1.236 . S
C139 O151 1.266 . S
O140 Tb120 2.484 . S
O140 C122 1.248 . S
O141 Tb120 2.440 . S
O141 C122 1.266 . S
O142 Tb120 2.658 . S
O142 Tb121 2.325 . S
O142 C129 1.281 . S
O143 Tb120 2.409 . S
O143 C129 1.254 . S
O144 Tb120 2.378 . S
O144 C130 1.236 . S
O145 Tb121 2.341 . S
O145 C130 1.266 . S
O146 Tb121 2.484 . S
O146 C131 1.248 . S
O147 Tb121 2.440 . S
O147 C131 1.266 . S
O148 Tb120 2.325 . S
O148 Tb121 2.658 . S
O148 C138 1.281 . S
O149 Tb121 2.409 . S
O149 C138 1.254 . S
O150 Tb121 2.378 . S
O150 C139 1.236 . S
O151 Tb120 2.341 . S
O151 C139 1.266 . S
H152 C124 0.929 . S
H153 C125 0.931 . S
H154 C127 0.930 . S
H155 C128 0.930 . S
H156 C133 0.929 . S
H157 C134 0.931 . S
H158 C136 0.930 . S
H159 C137 0.930 . S
Tb160 C162 2.809 . S
Tb160 O180 2.484 . S
Tb160 O181 2.440 . S
Tb160 O182 2.658 1_665 S
Tb160 O183 2.409 1_665 S
Tb160 O184 2.378 1_655 S
Tb160 O188 2.325 . S
Tb160 O191 2.341 1_565 S
Tb161 C171 2.809 . S
Tb161 O182 2.325 . S
Tb161 O185 2.341 1_545 S
Tb161 O186 2.484 . S
Tb161 O187 2.440 . S
Tb161 O188 2.658 1_445 S
Tb161 O189 2.409 1_445 S
Tb161 O190 2.378 1_455 S
C162 Tb160 2.809 . S
C162 C163 1.514 . S
C162 O180 1.248 . S
C162 O181 1.266 . S
C163 C162 1.514 . S
C163 C164 1.359 . S
C163 C168 1.348 . S
C164 C163 1.359 . S
C164 C165 1.380 . S
C164 H192 0.929 . S
C165 C164 1.380 . S
C165 C166 1.347 . S
C165 H193 0.931 . S
C166 C165 1.347 . S
C166 C167 1.369 . S
C167 C166 1.369 . S
C167 C168 1.408 . S
C167 H194 0.930 . S
C168 C163 1.348 . S
C168 C167 1.408 . S
C168 H195 0.930 . S
C169 O182 1.281 . S
C169 O183 1.254 . S
C170 O184 1.236 . S
C170 O185 1.266 . S
C171 Tb161 2.809 . S
C171 C172 1.514 . S
C171 O186 1.248 . S
C171 O187 1.266 . S
C172 C171 1.514 . S
C172 C173 1.359 . S
C172 C177 1.348 . S
C173 C172 1.359 . S
C173 C174 1.380 . S
C173 H196 0.929 . S
C174 C173 1.380 . S
C174 C175 1.347 . S
C174 H197 0.931 . S
C175 C174 1.347 . S
C175 C176 1.369 . S
C176 C175 1.369 . S
C176 C177 1.408 . S
C176 H198 0.930 . S
C177 C172 1.348 . S
C177 C176 1.408 . S
C177 H199 0.930 . S
C178 O188 1.281 . S
C178 O189 1.254 . S
C179 O190 1.236 . S
C179 O191 1.266 . S
O180 Tb160 2.484 . S
O180 C162 1.248 . S
O181 Tb160 2.440 . S
O181 C162 1.266 . S
O182 Tb160 2.658 1_445 S
O182 Tb161 2.325 . S
O182 C169 1.281 . S
O183 Tb160 2.409 1_445 S
O183 C169 1.254 . S
O184 Tb160 2.378 1_455 S
O184 C170 1.236 . S
O185 Tb161 2.341 1_565 S
O185 C170 1.266 . S
O186 Tb161 2.484 . S
O186 C171 1.248 . S
O187 Tb161 2.440 . S
O187 C171 1.266 . S
O188 Tb160 2.325 . S
O188 Tb161 2.658 1_665 S
O188 C178 1.281 . S
O189 Tb161 2.409 1_665 S
O189 C178 1.254 . S
O190 Tb161 2.378 1_655 S
O190 C179 1.236 . S
O191 Tb160 2.341 1_545 S
O191 C179 1.266 . S
H192 C164 0.929 . S
H193 C165 0.931 . S
H194 C167 0.930 . S
H195 C168 0.930 . S
H196 C173 0.929 . S
H197 C174 0.931 . S
H198 C176 0.930 . S
H199 C177 0.930 . S
Tb200 C202 2.809 . S
Tb200 O220 2.484 . S
Tb200 O221 2.440 . S
Tb200 O222 2.658 . S
Tb200 O223 2.409 . S
Tb200 O224 2.378 . S
Tb200 O228 2.325 . S
Tb200 O231 2.341 . S
Tb201 C211 2.809 . S
Tb201 O222 2.325 . S
Tb201 O225 2.341 . S
Tb201 O226 2.484 . S
Tb201 O227 2.440 . S
Tb201 O228 2.658 . S
Tb201 O229 2.409 . S
Tb201 O230 2.378 . S
C202 Tb200 2.809 . S
C202 C203 1.514 . S
C202 O220 1.248 . S
C202 O221 1.266 . S
C203 C202 1.514 . S
C203 C204 1.359 . S
C203 C208 1.348 . S
C204 C203 1.359 . S
C204 C205 1.380 . S
C204 H232 0.929 . S
C205 C204 1.380 . S
C205 C206 1.347 . S
C205 H233 0.931 . S
C206 C205 1.347 . S
C206 C207 1.369 . S
C207 C206 1.369 . S
C207 C208 1.408 . S
C207 H234 0.930 . S
C208 C203 1.348 . S
C208 C207 1.408 . S
C208 H235 0.930 . S
C209 O222 1.281 . S
C209 O223 1.254 . S
C210 O224 1.236 . S
C210 O225 1.266 . S
C211 Tb201 2.809 . S
C211 C212 1.514 . S
C211 O226 1.248 . S
C211 O227 1.266 . S
C212 C211 1.514 . S
C212 C213 1.359 . S
C212 C217 1.348 . S
C213 C212 1.359 . S
C213 C214 1.380 . S
C213 H236 0.929 . S
C214 C213 1.380 . S
C214 C215 1.347 . S
C214 H237 0.931 . S
C215 C214 1.347 . S
C215 C216 1.369 . S
C216 C215 1.369 . S
C216 C217 1.408 . S
C216 H238 0.930 . S
C217 C212 1.348 . S
C217 C216 1.408 . S
C217 H239 0.930 . S
C218 O228 1.281 . S
C218 O229 1.254 . S
C219 O230 1.236 . S
C219 O231 1.266 . S
O220 Tb200 2.484 . S
O220 C202 1.248 . S
O221 Tb200 2.440 . S
O221 C202 1.266 . S
O222 Tb200 2.658 . S
O222 Tb201 2.325 . S
O222 C209 1.281 . S
O223 Tb200 2.409 . S
O223 C209 1.254 . S
O224 Tb200 2.378 . S
O224 C210 1.236 . S
O225 Tb201 2.341 . S
O225 C210 1.266 . S
O226 Tb201 2.484 . S
O226 C211 1.248 . S
O227 Tb201 2.440 . S
O227 C211 1.266 . S
O228 Tb200 2.325 . S
O228 Tb201 2.658 . S
O228 C218 1.281 . S
O229 Tb201 2.409 . S
O229 C218 1.254 . S
O230 Tb201 2.378 . S
O230 C219 1.236 . S
O231 Tb200 2.341 . S
O231 C219 1.266 . S
H232 C204 0.929 . S
H233 C205 0.931 . S
H234 C207 0.930 . S
H235 C208 0.930 . S
H236 C213 0.929 . S
H237 C214 0.931 . S
H238 C216 0.930 . S
H239 C217 0.930 . S
Tb240 C242 2.809 . S
Tb240 O260 2.484 1_554 S
Tb240 O261 2.440 . S
Tb240 O262 2.658 1_565 S
Tb240 O263 2.409 1_565 S
Tb240 O264 2.378 1_564 S
Tb240 O268 2.325 1_554 S
Tb240 O271 2.341 . S
Tb241 C251 2.809 . S
Tb241 O262 2.325 1_556 S
Tb241 O265 2.341 . S
Tb241 O266 2.484 1_556 S
Tb241 O267 2.440 . S
Tb241 O268 2.658 1_545 S
Tb241 O269 2.409 1_545 S
Tb241 O270 2.378 1_546 S
C242 Tb240 2.809 . S
C242 C243 1.530 . S
C242 O260 1.248 1_554 S
C242 O261 1.266 . S
C243 C242 1.530 . S
C243 C244 1.342 1_554 S
C243 C248 1.348 . S
C244 C243 1.342 1_556 S
C244 C245 1.380 . S
C244 H272 0.929 . S
C245 C244 1.380 . S
C245 C246 1.347 . S
C245 H273 0.931 . S
C246 C245 1.347 . S
C246 C247 1.369 1_556 S
C247 C246 1.369 1_554 S
C247 C248 1.408 . S
C247 H274 0.930 . S
C248 C243 1.348 . S
C248 C247 1.408 . S
C248 H275 0.930 . S
C249 O262 1.281 . S
C249 O263 1.254 . S
C250 O264 1.236 . S
C250 O265 1.266 . S
C251 Tb241 2.809 . S
C251 C252 1.514 1_556 S
C251 O266 1.248 1_556 S
C251 O267 1.266 . S
C252 C251 1.514 1_554 S
C252 C253 1.359 . S
C252 C257 1.348 1_554 S
C253 C252 1.359 . S
C253 C254 1.380 . S
C253 H276 0.929 . S
C254 C253 1.380 . S
C254 C255 1.347 . S
C254 H277 0.931 . S
C255 C254 1.347 . S
C255 C256 1.369 1_554 S
C256 C255 1.369 1_556 S
C256 C257 1.408 . S
C256 H278 0.930 . S
C257 C252 1.348 1_556 S
C257 C256 1.408 . S
C257 H279 0.930 . S
C258 O268 1.281 . S
C258 O269 1.254 . S
C259 O270 1.236 . S
C259 O271 1.266 . S
O260 Tb240 2.484 1_556 S
O260 C242 1.248 1_556 S
O261 Tb240 2.440 . S
O261 C242 1.266 . S
O262 Tb240 2.658 1_545 S
O262 Tb241 2.325 1_554 S
O262 C249 1.281 . S
O263 Tb240 2.409 1_545 S
O263 C249 1.254 . S
O264 Tb240 2.378 1_546 S
O264 C250 1.236 . S
O265 Tb241 2.341 . S
O265 C250 1.266 . S
O266 Tb241 2.484 1_554 S
O266 C251 1.248 1_554 S
O267 Tb241 2.440 . S
O267 C251 1.266 . S
O268 Tb240 2.325 1_556 S
O268 Tb241 2.658 1_565 S
O268 C258 1.281 . S
O269 Tb241 2.409 1_565 S
O269 C258 1.254 . S
O270 Tb241 2.378 1_564 S
O270 C259 1.236 . S
O271 Tb240 2.341 . S
O271 C259 1.266 . S
H272 C244 0.929 . S
H273 C245 0.931 . S
H274 C247 0.930 . S
H275 C248 0.930 . S
H276 C253 0.929 . S
H277 C254 0.931 . S
H278 C256 0.930 . S
H279 C257 0.930 . S
Tb280 C282 2.809 . S
Tb280 O300 2.484 . S
Tb280 O301 2.440 . S
Tb280 O302 2.658 . S
Tb280 O303 2.409 . S
Tb280 O304 2.378 . S
Tb280 O308 2.325 . S
Tb280 O311 2.341 . S
Tb281 C291 2.809 . S
Tb281 O302 2.325 . S
Tb281 O305 2.341 . S
Tb281 O306 2.484 . S
Tb281 O307 2.440 . S
Tb281 O308 2.658 . S
Tb281 O309 2.409 . S
Tb281 O310 2.378 . S
C282 Tb280 2.809 . S
C282 C283 1.514 . S
C282 O300 1.248 . S
C282 O301 1.266 . S
C283 C282 1.514 . S
C283 C284 1.359 . S
C283 C288 1.348 . S
C284 C283 1.359 . S
C284 C285 1.380 . S
C284 H312 0.929 . S
C285 C284 1.380 . S
C285 C286 1.347 . S
C285 H313 0.931 . S
C286 C285 1.347 . S
C286 C287 1.369 . S
C287 C286 1.369 . S
C287 C288 1.408 . S
C287 H314 0.930 . S
C288 C283 1.348 . S
C288 C287 1.408 . S
C288 H315 0.930 . S
C289 O302 1.281 . S
C289 O303 1.254 . S
C290 O304 1.236 . S
C290 O305 1.266 . S
C291 Tb281 2.809 . S
C291 C292 1.514 . S
C291 O306 1.248 . S
C291 O307 1.266 . S
C292 C291 1.514 . S
C292 C293 1.359 . S
C292 C297 1.348 . S
C293 C292 1.359 . S
C293 C294 1.380 . S
C293 H316 0.929 . S
C294 C293 1.380 . S
C294 C295 1.347 . S
C294 H317 0.931 . S
C295 C294 1.347 . S
C295 C296 1.369 . S
C296 C295 1.369 . S
C296 C297 1.408 . S
C296 H318 0.930 . S
C297 C292 1.348 . S
C297 C296 1.408 . S
C297 H319 0.930 . S
C298 O308 1.281 . S
C298 O309 1.254 . S
C299 O310 1.236 . S
C299 O311 1.266 . S
O300 Tb280 2.484 . S
O300 C282 1.248 . S
O301 Tb280 2.440 . S
O301 C282 1.266 . S
O302 Tb280 2.658 . S
O302 Tb281 2.325 . S
O302 C289 1.281 . S
O303 Tb280 2.409 . S
O303 C289 1.254 . S
O304 Tb280 2.378 . S
O304 C290 1.236 . S
O305 Tb281 2.341 . S
O305 C290 1.266 . S
O306 Tb281 2.484 . S
O306 C291 1.248 . S
O307 Tb281 2.440 . S
O307 C291 1.266 . S
O308 Tb280 2.325 . S
O308 Tb281 2.658 . S
O308 C298 1.281 . S
O309 Tb281 2.409 . S
O309 C298 1.254 . S
O310 Tb281 2.378 . S
O310 C299 1.236 . S
O311 Tb280 2.341 . S
O311 C299 1.266 . S
H312 C284 0.929 . S
H313 C285 0.931 . S
H314 C287 0.930 . S
H315 C288 0.930 . S
H316 C293 0.929 . S
H317 C294 0.931 . S
H318 C296 0.930 . S
H319 C297 0.930 . S
Tb320 C322 2.809 . S
Tb320 O340 2.484 . S
Tb320 O341 2.440 . S
Tb320 O342 2.658 . S
Tb320 O343 2.409 . S
Tb320 O344 2.378 . S
Tb320 O348 2.325 1_554 S
Tb320 O351 2.341 1_554 S
Tb321 C331 2.809 . S
Tb321 O342 2.325 1_556 S
Tb321 O345 2.341 1_556 S
Tb321 O346 2.484 . S
Tb321 O347 2.440 . S
Tb321 O348 2.658 . S
Tb321 O349 2.409 . S
Tb321 O350 2.378 . S
C322 Tb320 2.809 . S
C322 C323 1.514 . S
C322 O340 1.248 . S
C322 O341 1.266 . S
C323 C322 1.514 . S
C323 C324 1.359 . S
C323 C328 1.348 . S
C324 C323 1.359 . S
C324 C325 1.380 . S
C324 H352 0.929 . S
C325 C324 1.380 . S
C325 C326 1.347 . S
C325 H353 0.931 . S
C326 C325 1.347 . S
C326 C327 1.369 . S
C327 C326 1.369 . S
C327 C328 1.408 . S
C327 H354 0.930 . S
C328 C323 1.348 . S
C328 C327 1.408 . S
C328 H355 0.930 . S
C329 O342 1.281 . S
C329 O343 1.254 . S
C330 O344 1.236 . S
C330 O345 1.266 . S
C331 Tb321 2.809 . S
C331 C332 1.514 . S
C331 O346 1.248 . S
C331 O347 1.266 . S
C332 C331 1.514 . S
C332 C333 1.359 . S
C332 C337 1.348 . S
C333 C332 1.359 . S
C333 C334 1.380 . S
C333 H356 0.929 . S
C334 C333 1.380 . S
C334 C335 1.347 . S
C334 H357 0.931 . S
C335 C334 1.347 . S
C335 C336 1.369 . S
C336 C335 1.369 . S
C336 C337 1.408 . S
C336 H358 0.930 . S
C337 C332 1.348 . S
C337 C336 1.408 . S
C337 H359 0.930 . S
C338 O348 1.281 . S
C338 O349 1.254 . S
C339 O350 1.236 . S
C339 O351 1.266 . S
O340 Tb320 2.484 . S
O340 C322 1.248 . S
O341 Tb320 2.440 . S
O341 C322 1.266 . S
O342 Tb320 2.658 . S
O342 Tb321 2.325 1_554 S
O342 C329 1.281 . S
O343 Tb320 2.409 . S
O343 C329 1.254 . S
O344 Tb320 2.378 . S
O344 C330 1.236 . S
O345 Tb321 2.341 1_554 S
O345 C330 1.266 . S
O346 Tb321 2.484 . S
O346 C331 1.248 . S
O347 Tb321 2.440 . S
O347 C331 1.266 . S
O348 Tb320 2.325 1_556 S
O348 Tb321 2.658 . S
O348 C338 1.281 . S
O349 Tb321 2.409 . S
O349 C338 1.254 . S
O350 Tb321 2.378 . S
O350 C339 1.236 . S
O351 Tb320 2.341 1_556 S
O351 C339 1.266 . S
H352 C324 0.929 . S
H353 C325 0.931 . S
H354 C327 0.930 . S
H355 C328 0.930 . S
H356 C333 0.929 . S
H357 C334 0.931 . S
H358 C336 0.930 . S
H359 C337 0.930 . S
Tb360 C362 2.809 . S
Tb360 O380 2.484 . S
Tb360 O381 2.440 . S
Tb360 O382 2.658 . S
Tb360 O383 2.409 . S
Tb360 O384 2.378 . S
Tb360 O388 2.325 . S
Tb360 O391 2.341 . S
Tb361 C371 2.809 . S
Tb361 O382 2.325 . S
Tb361 O385 2.341 . S
Tb361 O386 2.484 . S
Tb361 O387 2.440 . S
Tb361 O388 2.658 . S
Tb361 O389 2.409 . S
Tb361 O390 2.378 . S
C362 Tb360 2.809 . S
C362 C363 1.514 . S
C362 O380 1.248 . S
C362 O381 1.266 . S
C363 C362 1.514 . S
C363 C364 1.359 . S
C363 C368 1.348 . S
C364 C363 1.359 . S
C364 C365 1.380 . S
C364 H392 0.929 . S
C365 C364 1.380 . S
C365 C366 1.347 . S
C365 H393 0.931 . S
C366 C365 1.347 . S
C366 C367 1.369 . S
C367 C366 1.369 . S
C367 C368 1.408 . S
C367 H394 0.930 . S
C368 C363 1.348 . S
C368 C367 1.408 . S
C368 H395 0.930 . S
C369 O382 1.281 . S
C369 O383 1.254 . S
C370 O384 1.236 . S
C370 O385 1.266 . S
C371 Tb361 2.809 . S
C371 C372 1.514 . S
C371 O386 1.248 . S
C371 O387 1.266 . S
C372 C371 1.514 . S
C372 C373 1.359 . S
C372 C377 1.348 . S
C373 C372 1.359 . S
C373 C374 1.380 . S
C373 H396 0.929 . S
C374 C373 1.380 . S
C374 C375 1.347 . S
C374 H397 0.931 . S
C375 C374 1.347 . S
C375 C376 1.369 . S
C376 C375 1.369 . S
C376 C377 1.408 . S
C376 H398 0.930 . S
C377 C372 1.348 . S
C377 C376 1.408 . S
C377 H399 0.930 . S
C378 O388 1.281 . S
C378 O389 1.254 . S
C379 O390 1.236 . S
C379 O391 1.266 . S
O380 Tb360 2.484 . S
O380 C362 1.248 . S
O381 Tb360 2.440 . S
O381 C362 1.266 . S
O382 Tb360 2.658 . S
O382 Tb361 2.325 . S
O382 C369 1.281 . S
O383 Tb360 2.409 . S
O383 C369 1.254 . S
O384 Tb360 2.378 . S
O384 C370 1.236 . S
O385 Tb361 2.341 . S
O385 C370 1.266 . S
O386 Tb361 2.484 . S
O386 C371 1.248 . S
O387 Tb361 2.440 . S
O387 C371 1.266 . S
O388 Tb360 2.325 . S
O388 Tb361 2.658 . S
O388 C378 1.281 . S
O389 Tb361 2.409 . S
O389 C378 1.254 . S
O390 Tb361 2.378 . S
O390 C379 1.236 . S
O391 Tb360 2.341 . S
O391 C379 1.266 . S
H392 C364 0.929 . S
H393 C365 0.931 . S
H394 C367 0.930 . S
H395 C368 0.930 . S
H396 C373 0.929 . S
H397 C374 0.931 . S
H398 C376 0.930 . S
H399 C377 0.930 . S
Tb400 C402 2.809 . S
Tb400 O420 2.484 . S
Tb400 O421 2.440 . S
Tb400 O422 2.658 . S
Tb400 O423 2.409 . S
Tb400 O424 2.378 . S
Tb400 O428 2.325 1_455 S
Tb400 O431 2.341 . S
Tb401 C411 2.809 . S
Tb401 O422 2.325 1_655 S
Tb401 O425 2.341 . S
Tb401 O426 2.484 . S
Tb401 O427 2.440 . S
Tb401 O428 2.658 . S
Tb401 O429 2.409 . S
Tb401 O430 2.378 . S
C402 Tb400 2.809 . S
C402 C403 1.514 . S
C402 O420 1.248 . S
C402 O421 1.266 . S
C403 C402 1.514 . S
C403 C404 1.359 . S
C403 C408 1.348 . S
C404 C403 1.359 . S
C404 C405 1.380 . S
C404 H432 0.929 . S
C405 C404 1.380 . S
C405 C406 1.347 . S
C405 H433 0.931 . S
C406 C405 1.347 . S
C406 C407 1.369 . S
C407 C406 1.369 . S
C407 C408 1.408 . S
C407 H434 0.930 . S
C408 C403 1.348 . S
C408 C407 1.408 . S
C408 H435 0.930 . S
C409 O422 1.281 . S
C409 O423 1.254 . S
C410 O424 1.236 . S
C410 O425 1.266 1_455 S
C411 Tb401 2.809 . S
C411 C412 1.514 . S
C411 O426 1.248 . S
C411 O427 1.266 . S
C412 C411 1.514 . S
C412 C413 1.359 . S
C412 C417 1.348 . S
C413 C412 1.359 . S
C413 C414 1.380 . S
C413 H436 0.929 . S
C414 C413 1.380 . S
C414 C415 1.347 . S
C414 H437 0.931 . S
C415 C414 1.347 . S
C415 C416 1.369 . S
C416 C415 1.369 . S
C416 C417 1.408 . S
C416 H438 0.930 . S
C417 C412 1.348 . S
C417 C416 1.408 . S
C417 H439 0.930 . S
C418 O428 1.281 . S
C418 O429 1.254 . S
C419 O430 1.236 . S
C419 O431 1.266 1_655 S
O420 Tb400 2.484 . S
O420 C402 1.248 . S
O421 Tb400 2.440 . S
O421 C402 1.266 . S
O422 Tb400 2.658 . S
O422 Tb401 2.325 1_455 S
O422 C409 1.281 . S
O423 Tb400 2.409 . S
O423 C409 1.254 . S
O424 Tb400 2.378 . S
O424 C410 1.236 . S
O425 Tb401 2.341 . S
O425 C410 1.266 1_655 S
O426 Tb401 2.484 . S
O426 C411 1.248 . S
O427 Tb401 2.440 . S
O427 C411 1.266 . S
O428 Tb400 2.325 1_655 S
O428 Tb401 2.658 . S
O428 C418 1.281 . S
O429 Tb401 2.409 . S
O429 C418 1.254 . S
O430 Tb401 2.378 . S
O430 C419 1.236 . S
O431 Tb400 2.341 . S
O431 C419 1.266 1_455 S
H432 C404 0.929 . S
H433 C405 0.931 . S
H434 C407 0.930 . S
H435 C408 0.930 . S
H436 C413 0.929 . S
H437 C414 0.931 . S
H438 C416 0.930 . S
H439 C417 0.930 . S
Tb440 C442 2.809 . S
Tb440 O460 2.484 . S
Tb440 O461 2.440 . S
Tb440 O462 2.658 . S
Tb440 O463 2.409 . S
Tb440 O464 2.378 . S
Tb440 O468 2.325 . S
Tb440 O471 2.341 . S
Tb441 C451 2.809 . S
Tb441 O462 2.325 . S
Tb441 O465 2.341 . S
Tb441 O466 2.484 . S
Tb441 O467 2.440 . S
Tb441 O468 2.658 . S
Tb441 O469 2.409 . S
Tb441 O470 2.378 . S
C442 Tb440 2.809 . S
C442 C443 1.514 . S
C442 O460 1.248 . S
C442 O461 1.266 . S
C443 C442 1.514 . S
C443 C444 1.359 . S
C443 C448 1.348 . S
C444 C443 1.359 . S
C444 C445 1.380 . S
C444 H472 0.929 . S
C445 C444 1.380 . S
C445 C446 1.347 . S
C445 H473 0.931 . S
C446 C445 1.347 . S
C446 C447 1.369 . S
C447 C446 1.369 . S
C447 C448 1.408 . S
C447 H474 0.930 . S
C448 C443 1.348 . S
C448 C447 1.408 . S
C448 H475 0.930 . S
C449 O462 1.281 . S
C449 O463 1.254 . S
C450 O464 1.236 . S
C450 O465 1.266 . S
C451 Tb441 2.809 . S
C451 C452 1.514 . S
C451 O466 1.248 . S
C451 O467 1.266 . S
C452 C451 1.514 . S
C452 C453 1.359 . S
C452 C457 1.348 . S
C453 C452 1.359 . S
C453 C454 1.380 . S
C453 H476 0.929 . S
C454 C453 1.380 . S
C454 C455 1.347 . S
C454 H477 0.931 . S
C455 C454 1.347 . S
C455 C456 1.369 . S
C456 C455 1.369 . S
C456 C457 1.408 . S
C456 H478 0.930 . S
C457 C452 1.348 . S
C457 C456 1.408 . S
C457 H479 0.930 . S
C458 O468 1.281 . S
C458 O469 1.254 . S
C459 O470 1.236 . S
C459 O471 1.266 . S
O460 Tb440 2.484 . S
O460 C442 1.248 . S
O461 Tb440 2.440 . S
O461 C442 1.266 . S
O462 Tb440 2.658 . S
O462 Tb441 2.325 . S
O462 C449 1.281 . S
O463 Tb440 2.409 . S
O463 C449 1.254 . S
O464 Tb440 2.378 . S
O464 C450 1.236 . S
O465 Tb441 2.341 . S
O465 C450 1.266 . S
O466 Tb441 2.484 . S
O466 C451 1.248 . S
O467 Tb441 2.440 . S
O467 C451 1.266 . S
O468 Tb440 2.325 . S
O468 Tb441 2.658 . S
O468 C458 1.281 . S
O469 Tb441 2.409 . S
O469 C458 1.254 . S
O470 Tb441 2.378 . S
O470 C459 1.236 . S
O471 Tb440 2.341 . S
O471 C459 1.266 . S
H472 C444 0.929 . S
H473 C445 0.931 . S
H474 C447 0.930 . S
H475 C448 0.930 . S
H476 C453 0.929 . S
H477 C454 0.931 . S
H478 C456 0.930 . S
H479 C457 0.930 . S
Tb480 C482 2.809 . S
Tb480 O500 2.484 . S
Tb480 O501 2.440 . S
Tb480 O502 2.658 . S
Tb480 O503 2.409 . S
Tb480 O504 2.378 . S
Tb480 O508 2.325 . S
Tb480 O511 2.341 . S
Tb481 C491 2.809 . S
Tb481 O502 2.325 . S
Tb481 O505 2.341 . S
Tb481 O506 2.484 . S
Tb481 O507 2.440 . S
Tb481 O508 2.658 . S
Tb481 O509 2.409 . S
Tb481 O510 2.378 . S
C482 Tb480 2.809 . S
C482 C483 1.514 . S
C482 O500 1.248 . S
C482 O501 1.266 . S
C483 C482 1.514 . S
C483 C484 1.359 . S
C483 C488 1.348 . S
C484 C483 1.359 . S
C484 C485 1.380 . S
C484 H512 0.929 . S
C485 C484 1.380 . S
C485 C486 1.347 . S
C485 H513 0.931 . S
C486 C485 1.347 . S
C486 C487 1.369 . S
C487 C486 1.369 . S
C487 C488 1.408 . S
C487 H514 0.930 . S
C488 C483 1.348 . S
C488 C487 1.408 . S
C488 H515 0.930 . S
C489 O502 1.281 . S
C489 O503 1.254 . S
C490 O504 1.236 . S
C490 O505 1.266 . S
C491 Tb481 2.809 . S
C491 C492 1.514 . S
C491 O506 1.248 . S
C491 O507 1.266 . S
C492 C491 1.514 . S
C492 C493 1.359 . S
C492 C497 1.348 . S
C493 C492 1.359 . S
C493 C494 1.380 . S
C493 H516 0.929 . S
C494 C493 1.380 . S
C494 C495 1.347 . S
C494 H517 0.931 . S
C495 C494 1.347 . S
C495 C496 1.369 . S
C496 C495 1.369 . S
C496 C497 1.408 . S
C496 H518 0.930 . S
C497 C492 1.348 . S
C497 C496 1.408 . S
C497 H519 0.930 . S
C498 O508 1.281 . S
C498 O509 1.254 . S
C499 O510 1.236 . S
C499 O511 1.266 . S
O500 Tb480 2.484 . S
O500 C482 1.248 . S
O501 Tb480 2.440 . S
O501 C482 1.266 . S
O502 Tb480 2.658 . S
O502 Tb481 2.325 . S
O502 C489 1.281 . S
O503 Tb480 2.409 . S
O503 C489 1.254 . S
O504 Tb480 2.378 . S
O504 C490 1.236 . S
O505 Tb481 2.341 . S
O505 C490 1.266 . S
O506 Tb481 2.484 . S
O506 C491 1.248 . S
O507 Tb481 2.440 . S
O507 C491 1.266 . S
O508 Tb480 2.325 . S
O508 Tb481 2.658 . S
O508 C498 1.281 . S
O509 Tb481 2.409 . S
O509 C498 1.254 . S
O510 Tb481 2.378 . S
O510 C499 1.236 . S
O511 Tb480 2.341 . S
O511 C499 1.266 . S
H512 C484 0.929 . S
H513 C485 0.931 . S
H514 C487 0.930 . S
H515 C488 0.930 . S
H516 C493 0.929 . S
H517 C494 0.931 . S
H518 C496 0.930 . S
H519 C497 0.930 . S
Tb520 C522 2.809 . S
Tb520 O540 2.484 . S
Tb520 O541 2.440 . S
Tb520 O542 2.658 . S
Tb520 O543 2.409 . S
Tb520 O544 2.378 . S
Tb520 O548 2.325 . S
Tb520 O551 2.341 . S
Tb521 C531 2.809 . S
Tb521 O542 2.325 . S
Tb521 O545 2.341 . S
Tb521 O546 2.484 . S
Tb521 O547 2.440 . S
Tb521 O548 2.658 . S
Tb521 O549 2.409 . S
Tb521 O550 2.378 . S
C522 Tb520 2.809 . S
C522 C523 1.514 . S
C522 O540 1.248 . S
C522 O541 1.266 . S
C523 C522 1.514 . S
C523 C524 1.359 . S
C523 C528 1.348 . S
C524 C523 1.359 . S
C524 C525 1.380 . S
C524 H552 0.929 . S
C525 C524 1.380 . S
C525 C526 1.347 . S
C525 H553 0.931 . S
C526 C525 1.347 . S
C526 C527 1.369 . S
C527 C526 1.369 . S
C527 C528 1.408 . S
C527 H554 0.930 . S
C528 C523 1.348 . S
C528 C527 1.408 . S
C528 H555 0.930 . S
C529 O542 1.281 . S
C529 O543 1.254 . S
C530 O544 1.236 . S
C530 O545 1.266 . S
C531 Tb521 2.809 . S
C531 C532 1.514 . S
C531 O546 1.248 . S
C531 O547 1.266 . S
C532 C531 1.514 . S
C532 C533 1.359 . S
C532 C537 1.348 . S
C533 C532 1.359 . S
C533 C534 1.380 . S
C533 H556 0.929 . S
C534 C533 1.380 . S
C534 C535 1.347 . S
C534 H557 0.931 . S
C535 C534 1.347 . S
C535 C536 1.369 . S
C536 C535 1.369 . S
C536 C537 1.408 . S
C536 H558 0.930 . S
C537 C532 1.348 . S
C537 C536 1.408 . S
C537 H559 0.930 . S
C538 O548 1.281 . S
C538 O549 1.254 . S
C539 O550 1.236 . S
C539 O551 1.266 . S
O540 Tb520 2.484 . S
O540 C522 1.248 . S
O541 Tb520 2.440 . S
O541 C522 1.266 . S
O542 Tb520 2.658 . S
O542 Tb521 2.325 . S
O542 C529 1.281 . S
O543 Tb520 2.409 . S
O543 C529 1.254 . S
O544 Tb520 2.378 . S
O544 C530 1.236 . S
O545 Tb521 2.341 . S
O545 C530 1.266 . S
O546 Tb521 2.484 . S
O546 C531 1.248 . S
O547 Tb521 2.440 . S
O547 C531 1.266 . S
O548 Tb520 2.325 . S
O548 Tb521 2.658 . S
O548 C538 1.281 . S
O549 Tb521 2.409 . S
O549 C538 1.254 . S
O550 Tb521 2.378 . S
O550 C539 1.236 . S
O551 Tb520 2.341 . S
O551 C539 1.266 . S
H552 C524 0.929 . S
H553 C525 0.931 . S
H554 C527 0.930 . S
H555 C528 0.930 . S
H556 C533 0.929 . S
H557 C534 0.931 . S
H558 C536 0.930 . S
H559 C537 0.930 . S
Tb560 C562 2.809 . S
Tb560 O580 2.484 . S
Tb560 O581 2.440 . S
Tb560 O582 2.658 . S
Tb560 O583 2.409 . S
Tb560 O584 2.378 . S
Tb560 O588 2.325 . S
Tb560 O591 2.341 . S
Tb561 C571 2.809 . S
Tb561 O582 2.325 . S
Tb561 O585 2.341 . S
Tb561 O586 2.484 . S
Tb561 O587 2.440 . S
Tb561 O588 2.658 . S
Tb561 O589 2.409 . S
Tb561 O590 2.378 . S
C562 Tb560 2.809 . S
C562 C563 1.514 . S
C562 O580 1.248 . S
C562 O581 1.266 . S
C563 C562 1.514 . S
C563 C564 1.359 . S
C563 C568 1.348 . S
C564 C563 1.359 . S
C564 C565 1.380 . S
C564 H592 0.929 . S
C565 C564 1.380 . S
C565 C566 1.347 . S
C565 H593 0.931 . S
C566 C565 1.347 . S
C566 C567 1.369 . S
C567 C566 1.369 . S
C567 C568 1.408 . S
C567 H594 0.930 . S
C568 C563 1.348 . S
C568 C567 1.408 . S
C568 H595 0.930 . S
C569 O582 1.281 . S
C569 O583 1.254 . S
C570 O584 1.236 . S
C570 O585 1.266 . S
C571 Tb561 2.809 . S
C571 C572 1.514 . S
C571 O586 1.248 . S
C571 O587 1.266 . S
C572 C571 1.514 . S
C572 C573 1.359 . S
C572 C577 1.348 . S
C573 C572 1.359 . S
C573 C574 1.380 . S
C573 H596 0.929 . S
C574 C573 1.380 . S
C574 C575 1.347 . S
C574 H597 0.931 . S
C575 C574 1.347 . S
C575 C576 1.369 . S
C576 C575 1.369 . S
C576 C577 1.408 . S
C576 H598 0.930 . S
C577 C572 1.348 . S
C577 C576 1.408 . S
C577 H599 0.930 . S
C578 O588 1.281 . S
C578 O589 1.254 . S
C579 O590 1.236 . S
C579 O591 1.266 . S
O580 Tb560 2.484 . S
O580 C562 1.248 . S
O581 Tb560 2.440 . S
O581 C562 1.266 . S
O582 Tb560 2.658 . S
O582 Tb561 2.325 . S
O582 C569 1.281 . S
O583 Tb560 2.409 . S
O583 C569 1.254 . S
O584 Tb560 2.378 . S
O584 C570 1.236 . S
O585 Tb561 2.341 . S
O585 C570 1.266 . S
O586 Tb561 2.484 . S
O586 C571 1.248 . S
O587 Tb561 2.440 . S
O587 C571 1.266 . S
O588 Tb560 2.325 . S
O588 Tb561 2.658 . S
O588 C578 1.281 . S
O589 Tb561 2.409 . S
O589 C578 1.254 . S
O590 Tb561 2.378 . S
O590 C579 1.236 . S
O591 Tb560 2.341 . S
O591 C579 1.266 . S
H592 C564 0.929 . S
H593 C565 0.931 . S
H594 C567 0.930 . S
H595 C568 0.930 . S
H596 C573 0.929 . S
H597 C574 0.931 . S
H598 C576 0.930 . S
H599 C577 0.930 . S
Tb600 C602 2.809 . S
Tb600 O620 2.484 . S
Tb600 O621 2.440 . S
Tb600 O622 2.658 1_554 S
Tb600 O623 2.409 1_554 S
Tb600 O624 2.378 1_554 S
Tb600 O628 2.325 1_655 S
Tb600 O631 2.341 1_655 S
Tb601 C611 2.809 . S
Tb601 O622 2.325 1_455 S
Tb601 O625 2.341 1_455 S
Tb601 O626 2.484 . S
Tb601 O627 2.440 . S
Tb601 O628 2.658 1_556 S
Tb601 O629 2.409 1_556 S
Tb601 O630 2.378 1_556 S
C602 Tb600 2.809 . S
C602 C603 1.514 . S
C602 O620 1.248 . S
C602 O621 1.266 . S
C603 C602 1.514 . S
C603 C604 1.359 . S
C603 C608 1.348 . S
C604 C603 1.359 . S
C604 C605 1.380 . S
C604 H632 0.929 . S
C605 C604 1.380 . S
C605 C606 1.347 . S
C605 H633 0.931 . S
C606 C605 1.347 . S
C606 C607 1.369 . S
C607 C606 1.369 . S
C607 C608 1.408 . S
C607 H634 0.930 . S
C608 C603 1.348 . S
C608 C607 1.408 . S
C608 H635 0.930 . S
C609 O622 1.281 . S
C609 O623 1.254 . S
C610 O624 1.236 . S
C610 O625 1.266 . S
C611 Tb601 2.809 . S
C611 C612 1.514 . S
C611 O626 1.248 . S
C611 O627 1.266 . S
C612 C611 1.514 . S
C612 C613 1.359 . S
C612 C617 1.348 . S
C613 C612 1.359 . S
C613 C614 1.380 . S
C613 H636 0.929 . S
C614 C613 1.380 . S
C614 C615 1.347 . S
C614 H637 0.931 . S
C615 C614 1.347 . S
C615 C616 1.369 . S
C616 C615 1.369 . S
C616 C617 1.408 . S
C616 H638 0.930 . S
C617 C612 1.348 . S
C617 C616 1.408 . S
C617 H639 0.930 . S
C618 O628 1.281 . S
C618 O629 1.254 . S
C619 O630 1.236 . S
C619 O631 1.266 . S
O620 Tb600 2.484 . S
O620 C602 1.248 . S
O621 Tb600 2.440 . S
O621 C602 1.266 . S
O622 Tb600 2.658 1_556 S
O622 Tb601 2.325 1_655 S
O622 C609 1.281 . S
O623 Tb600 2.409 1_556 S
O623 C609 1.254 . S
O624 Tb600 2.378 1_556 S
O624 C610 1.236 . S
O625 Tb601 2.341 1_655 S
O625 C610 1.266 . S
O626 Tb601 2.484 . S
O626 C611 1.248 . S
O627 Tb601 2.440 . S
O627 C611 1.266 . S
O628 Tb600 2.325 1_455 S
O628 Tb601 2.658 1_554 S
O628 C618 1.281 . S
O629 Tb601 2.409 1_554 S
O629 C618 1.254 . S
O630 Tb601 2.378 1_554 S
O630 C619 1.236 . S
O631 Tb600 2.341 1_455 S
O631 C619 1.266 . S
H632 C604 0.929 . S
H633 C605 0.931 . S
H634 C607 0.930 . S
H635 C608 0.930 . S
H636 C613 0.929 . S
H637 C614 0.931 . S
H638 C616 0.930 . S
H639 C617 0.930 . S
C640 C641 1.363 . S
C640 C646 1.379 . S
C640 N648 1.356 . S
C641 C640 1.363 . S
C641 C647 1.363 . S
C642 C643 1.363 . S
C642 C647 1.379 . S
C642 N649 1.356 . S
C643 C642 1.363 . S
C643 C646 1.363 . S
N644 C646 1.356 . S
N644 H656 0.984 . S
N644 H657 0.985 . S
N645 C647 1.356 . S
N645 H650 0.984 . S
N645 H651 0.985 . S
C646 C640 1.379 . S
C646 C643 1.363 . S
C646 N644 1.356 . S
C647 C641 1.363 . S
C647 C642 1.379 . S
C647 N645 1.356 . S
N648 C640 1.356 . S
N648 H654 0.984 . S
N648 H655 0.984 . S
N649 C642 1.356 . S
N649 H652 0.984 . S
N649 H653 0.985 . S
H650 N645 0.984 . S
H651 N645 0.985 . S
H652 N649 0.984 . S
H653 N649 0.985 . S
H654 N648 0.984 . S
H655 N648 0.984 . S
H656 N644 0.984 . S
H657 N644 0.985 . S
C658 C659 1.363 . S
C658 C664 1.379 . S
C658 N666 1.356 . S
C659 C658 1.363 . S
C659 C665 1.363 . S
C660 C661 1.363 . S
C660 C665 1.379 . S
C660 N667 1.356 . S
C661 C660 1.363 . S
C661 C664 1.363 . S
N662 C664 1.356 . S
N662 H674 0.984 . S
N662 H675 0.985 . S
N663 C665 1.356 . S
N663 H668 0.984 . S
N663 H669 0.985 . S
C664 C658 1.379 . S
C664 C661 1.363 . S
C664 N662 1.356 . S
C665 C659 1.363 . S
C665 C660 1.379 . S
C665 N663 1.356 . S
N666 C658 1.356 . S
N666 H672 0.984 1_554 S
N666 H673 0.984 . S
N667 C660 1.356 . S
N667 H670 0.984 . S
N667 H671 0.985 . S
H668 N663 0.984 . S
H669 N663 0.985 . S
H670 N667 0.984 . S
H671 N667 0.985 . S
H672 N666 0.984 1_556 S
H673 N666 0.984 . S
H674 N662 0.984 . S
H675 N662 0.985 . S
C676 C677 1.363 . S
C676 C682 1.379 . S
C676 N684 1.356 . S
C677 C676 1.363 . S
C677 C683 1.363 . S
C678 C679 1.363 . S
C678 C683 1.379 . S
C678 N685 1.356 . S
C679 C678 1.363 . S
C679 C682 1.363 . S
N680 C682 1.356 . S
N680 H692 0.984 . S
N680 H693 0.985 . S
N681 C683 1.356 . S
N681 H686 0.984 . S
N681 H687 0.985 . S
C682 C676 1.379 . S
C682 C679 1.363 . S
C682 N680 1.356 . S
C683 C677 1.363 . S
C683 C678 1.379 . S
C683 N681 1.356 . S
N684 C676 1.356 . S
N684 H690 0.984 . S
N684 H691 0.984 . S
N685 C678 1.356 . S
N685 H688 0.984 . S
N685 H689 0.985 . S
H686 N681 0.984 . S
H687 N681 0.985 . S
H688 N685 0.984 . S
H689 N685 0.985 . S
H690 N684 0.984 . S
H691 N684 0.984 . S
H692 N680 0.984 . S
H693 N680 0.985 . S
C694 C695 1.363 . S
C694 C700 1.379 . S
C694 N702 1.356 . S
C695 C694 1.363 . S
C695 C701 1.363 . S
C696 C697 1.363 . S
C696 C701 1.379 . S
C696 N703 1.356 . S
C697 C696 1.363 . S
C697 C700 1.363 . S
N698 C700 1.356 . S
N698 H710 0.984 . S
N698 H711 0.985 . S
N699 C701 1.356 . S
N699 H704 0.984 . S
N699 H705 0.985 . S
C700 C694 1.379 . S
C700 C697 1.363 . S
C700 N698 1.356 . S
C701 C695 1.363 . S
C701 C696 1.379 . S
C701 N699 1.356 . S
N702 C694 1.356 . S
N702 H708 0.984 . S
N702 H709 0.984 . S
N703 C696 1.356 . S
N703 H706 0.984 . S
N703 H707 0.985 . S
H704 N699 0.984 . S
H705 N699 0.985 . S
H706 N703 0.984 . S
H707 N703 0.985 . S
H708 N702 0.984 . S
H709 N702 0.984 . S
H710 N698 0.984 . S
H711 N698 0.985 . S
C712 C713 1.363 . S
C712 C718 1.379 . S
C712 N720 1.356 . S
C713 C712 1.363 . S
C713 C719 1.363 . S
C714 C715 1.363 . S
C714 C719 1.379 . S
C714 N721 1.356 . S
C715 C714 1.363 . S
C715 C718 1.363 . S
N716 C718 1.356 . S
N716 H728 0.984 . S
N716 H729 0.985 . S
N717 C719 1.356 . S
N717 H722 0.984 . S
N717 H723 0.985 . S
C718 C712 1.379 . S
C718 C715 1.363 . S
C718 N716 1.356 . S
C719 C713 1.363 . S
C719 C714 1.379 . S
C719 N717 1.356 . S
N720 C712 1.356 . S
N720 H726 0.985 . S
N720 H727 0.984 . S
N721 C714 1.356 . S
N721 H724 0.984 . S
N721 H725 0.985 . S
H722 N717 0.984 . S
H723 N717 0.985 . S
H724 N721 0.984 . S
H725 N721 0.985 . S
H726 N720 0.985 . S
H727 N720 0.984 . S
H728 N716 0.984 . S
H729 N716 0.985 . S
C730 C731 1.363 . S
C730 C736 1.379 . S
C730 N738 1.356 . S
C731 C730 1.363 . S
C731 C737 1.363 . S
C732 C733 1.363 . S
C732 C737 1.379 . S
C732 N739 1.356 . S
C733 C732 1.363 . S
C733 C736 1.363 . S
N734 C736 1.356 . S
N734 H746 0.984 . S
N734 H747 0.985 . S
N735 C737 1.356 . S
N735 H740 0.984 . S
N735 H741 0.985 . S
C736 C730 1.379 . S
C736 C733 1.363 . S
C736 N734 1.356 . S
C737 C731 1.363 . S
C737 C732 1.379 . S
C737 N735 1.356 . S
N738 C730 1.356 . S
N738 H744 0.984 . S
N738 H745 0.984 . S
N739 C732 1.356 . S
N739 H742 0.984 . S
N739 H743 0.985 . S
H740 N735 0.984 . S
H741 N735 0.985 . S
H742 N739 0.984 . S
H743 N739 0.985 . S
H744 N738 0.984 . S
H745 N738 0.984 . S
H746 N734 0.984 . S
H747 N734 0.985 . S
C748 C749 1.363 . S
C748 C754 1.379 . S
C748 N756 1.356 . S
C749 C748 1.363 . S
C749 C755 1.363 . S
C750 C751 1.363 . S
C750 C755 1.379 . S
C750 N757 1.356 . S
C751 C750 1.363 . S
C751 C754 1.363 . S
N752 C754 1.356 . S
N752 H764 0.984 . S
N752 H765 0.985 . S
N753 C755 1.356 1_556 S
N753 H758 0.984 . S
N753 H759 0.985 . S
C754 C748 1.379 . S
C754 C751 1.363 . S
C754 N752 1.356 . S
C755 C749 1.363 . S
C755 C750 1.379 . S
C755 N753 1.356 1_554 S
N756 C748 1.356 . S
N756 H762 0.984 . S
N756 H763 0.984 . S
N757 C750 1.356 . S
N757 H760 0.984 . S
N757 H761 0.985 . S
H758 N753 0.984 . S
H759 N753 0.985 . S
H760 N757 0.984 . S
H761 N757 0.985 . S
H762 N756 0.984 . S
H763 N756 0.984 . S
H764 N752 0.984 . S
H765 N752 0.985 . S
C766 C767 1.363 . S
C766 C772 1.379 . S
C766 N774 1.356 . S
C767 C766 1.363 . S
C767 C773 1.363 . S
C768 C769 1.363 . S
C768 C773 1.379 . S
C768 N775 1.356 . S
C769 C768 1.363 . S
C769 C772 1.363 . S
N770 C772 1.356 . S
N770 H782 0.984 . S
N770 H783 0.985 . S
N771 C773 1.356 . S
N771 H776 0.984 . S
N771 H777 0.985 . S
C772 C766 1.379 . S
C772 C769 1.363 . S
C772 N770 1.356 . S
C773 C767 1.363 . S
C773 C768 1.379 . S
C773 N771 1.356 . S
N774 C766 1.356 . S
N774 H780 0.984 . S
N774 H781 0.984 . S
N775 C768 1.356 . S
N775 H778 0.984 . S
N775 H779 0.985 . S
H776 N771 0.984 . S
H777 N771 0.985 . S
H778 N775 0.984 . S
H779 N775 0.985 . S
H780 N774 0.984 . S
H781 N774 0.984 . S
H782 N770 0.984 . S
H783 N770 0.985 . S
C784 C785 1.363 . S
C784 C790 1.379 . S
C784 N792 1.356 . S
C785 C784 1.363 . S
C785 C791 1.363 . S
C786 C787 1.363 . S
C786 C791 1.379 . S
C786 N793 1.356 . S
C787 C786 1.363 . S
C787 C790 1.363 . S
N788 C790 1.356 1_455 S
N788 H800 0.984 . S
N788 H801 0.985 . S
N789 C791 1.356 . S
N789 H794 0.984 . S
N789 H795 0.985 . S
C790 C784 1.379 . S
C790 C787 1.363 . S
C790 N788 1.356 1_655 S
C791 C785 1.363 . S
C791 C786 1.379 . S
C791 N789 1.356 . S
N792 C784 1.356 . S
N792 H798 0.984 . S
N792 H799 0.984 . S
N793 C786 1.356 . S
N793 H796 0.984 . S
N793 H797 0.985 . S
H794 N789 0.984 . S
H795 N789 0.985 . S
H796 N793 0.984 . S
H797 N793 0.985 . S
H798 N792 0.984 . S
H799 N792 0.984 . S
H800 N788 0.984 . S
H801 N788 0.985 . S
C802 C803 1.363 . S
C802 C808 1.379 . S
C802 N810 1.356 . S
C803 C802 1.363 . S
C803 C809 1.363 . S
C804 C805 1.363 . S
C804 C809 1.379 . S
C804 N811 1.356 . S
C805 C804 1.363 . S
C805 C808 1.363 . S
N806 C808 1.356 . S
N806 H818 0.984 . S
N806 H819 0.985 . S
N807 C809 1.356 . S
N807 H812 0.984 . S
N807 H813 0.985 . S
C808 C802 1.379 . S
C808 C805 1.363 . S
C808 N806 1.356 . S
C809 C803 1.363 . S
C809 C804 1.379 . S
C809 N807 1.356 . S
N810 C802 1.356 . S
N810 H816 0.984 1_455 S
N810 H817 0.984 1_455 S
N811 C804 1.356 . S
N811 H814 0.984 . S
N811 H815 0.985 . S
H812 N807 0.984 . S
H813 N807 0.985 . S
H814 N811 0.984 . S
H815 N811 0.985 . S
H816 N810 0.984 1_655 S
H817 N810 0.984 1_655 S
H818 N806 0.984 . S
H819 N806 0.985 . S
C820 C821 1.363 . S
C820 C826 1.379 . S
C820 N828 1.356 . S
C821 C820 1.363 . S
C821 C827 1.363 . S
C822 C823 1.363 . S
C822 C827 1.379 . S
C822 N829 1.356 . S
C823 C822 1.363 . S
C823 C826 1.363 . S
N824 C826 1.356 . S
N824 H836 0.984 . S
N824 H837 0.985 . S
N825 C827 1.356 . S
N825 H830 0.984 . S
N825 H831 0.985 . S
C826 C820 1.379 . S
C826 C823 1.363 . S
C826 N824 1.356 . S
C827 C821 1.363 . S
C827 C822 1.379 . S
C827 N825 1.356 . S
N828 C820 1.356 . S
N828 H834 0.984 . S
N828 H835 0.984 . S
N829 C822 1.356 . S
N829 H832 0.984 . S
N829 H833 0.985 . S
H830 N825 0.984 . S
H831 N825 0.985 . S
H832 N829 0.984 . S
H833 N829 0.985 . S
H834 N828 0.984 . S
H835 N828 0.984 . S
H836 N824 0.984 . S
H837 N824 0.985 . S
C838 C839 1.363 . S
C838 C844 1.379 . S
C838 N846 1.356 . S
C839 C838 1.363 . S
C839 C845 1.363 . S
C840 C841 1.363 . S
C840 C845 1.379 . S
C840 N847 1.356 . S
C841 C840 1.363 . S
C841 C844 1.363 . S
N842 C844 1.356 . S
N842 H854 0.984 . S
N842 H855 0.985 . S
N843 C845 1.356 . S
N843 H848 0.984 . S
N843 H849 0.985 1_556 S
C844 C838 1.379 . S
C844 C841 1.363 . S
C844 N842 1.356 . S
C845 C839 1.363 . S
C845 C840 1.379 . S
C845 N843 1.356 . S
N846 C838 1.356 . S
N846 H852 0.984 . S
N846 H853 0.984 . S
N847 C840 1.356 . S
N847 H850 0.984 . S
N847 H851 0.985 . S
H848 N843 0.984 . S
H849 N843 0.985 1_554 S
H850 N847 0.984 . S
H851 N847 0.985 . S
H852 N846 0.984 . S
H853 N846 0.984 . S
H854 N842 0.984 . S
H855 N842 0.985 . S
C856 C857 1.363 . S
C856 C862 1.379 . S
C856 N864 1.356 . S
C857 C856 1.363 . S
C857 C863 1.363 . S
C858 C859 1.363 . S
C858 C863 1.379 . S
C858 N865 1.356 . S
C859 C858 1.363 . S
C859 C862 1.363 . S
N860 C862 1.356 . S
N860 H872 0.984 . S
N860 H873 0.985 . S
N861 C863 1.356 . S
N861 H866 0.984 . S
N861 H867 0.985 . S
C862 C856 1.379 . S
C862 C859 1.363 . S
C862 N860 1.356 . S
C863 C857 1.363 . S
C863 C858 1.379 . S
C863 N861 1.356 . S
N864 C856 1.356 . S
N864 H870 0.984 . S
N864 H871 0.984 . S
N865 C858 1.356 . S
N865 H868 0.984 . S
N865 H869 0.985 . S
H866 N861 0.984 . S
H867 N861 0.985 . S
H868 N865 0.984 . S
H869 N865 0.985 . S
H870 N864 0.984 . S
H871 N864 0.984 . S
H872 N860 0.984 . S
H873 N860 0.985 . S
C874 C875 1.363 . S
C874 C880 1.379 . S
C874 N882 1.356 . S
C875 C874 1.363 . S
C875 C881 1.363 . S
C876 C877 1.363 . S
C876 C881 1.379 . S
C876 N883 1.356 . S
C877 C876 1.363 . S
C877 C880 1.363 . S
N878 C880 1.356 . S
N878 H890 0.984 . S
N878 H891 0.985 . S
N879 C881 1.356 . S
N879 H884 0.984 . S
N879 H885 0.985 . S
C880 C874 1.379 . S
C880 C877 1.363 . S
C880 N878 1.356 . S
C881 C875 1.363 . S
C881 C876 1.379 . S
C881 N879 1.356 . S
N882 C874 1.356 . S
N882 H888 0.984 . S
N882 H889 0.984 . S
N883 C876 1.356 . S
N883 H886 0.984 . S
N883 H887 0.985 . S
H884 N879 0.984 . S
H885 N879 0.985 . S
H886 N883 0.984 . S
H887 N883 0.985 . S
H888 N882 0.984 . S
H889 N882 0.984 . S
H890 N878 0.984 . S
H891 N878 0.985 . S
C892 C893 1.363 . S
C892 C898 1.379 . S
C892 N900 1.356 1_556 S
C893 C892 1.363 . S
C893 C899 1.363 . S
C894 C895 1.363 . S
C894 C899 1.379 . S
C894 N901 1.356 . S
C895 C894 1.363 . S
C895 C898 1.363 . S
N896 C898 1.356 1_554 S
N896 H908 0.984 . S
N896 H909 0.985 . S
N897 C899 1.356 . S
N897 H902 0.984 . S
N897 H903 0.985 . S
C898 C892 1.379 . S
C898 C895 1.363 . S
C898 N896 1.356 1_556 S
C899 C893 1.363 . S
C899 C894 1.379 . S
C899 N897 1.356 . S
N900 C892 1.356 1_554 S
N900 H906 0.984 . S
N900 H907 0.984 1_554 S
N901 C894 1.356 . S
N901 H904 0.984 . S
N901 H905 0.985 . S
H902 N897 0.984 . S
H903 N897 0.985 . S
H904 N901 0.984 . S
H905 N901 0.985 . S
H906 N900 0.984 . S
H907 N900 0.984 1_556 S
H908 N896 0.984 . S
H909 N896 0.985 . S
C910 C911 1.363 . S
C910 C916 1.379 . S
C910 N918 1.356 . S
C911 C910 1.363 . S
C911 C917 1.363 . S
C912 C913 1.363 . S
C912 C917 1.379 . S
C912 N919 1.356 . S
C913 C912 1.363 . S
C913 C916 1.363 . S
N914 C916 1.356 . S
N914 H926 0.984 . S
N914 H927 0.985 . S
N915 C917 1.356 . S
N915 H920 0.984 . S
N915 H921 0.985 1_554 S
C916 C910 1.379 . S
C916 C913 1.363 . S
C916 N914 1.356 . S
C917 C911 1.363 . S
C917 C912 1.379 . S
C917 N915 1.356 . S
N918 C910 1.356 . S
N918 H924 0.984 . S
N918 H925 0.984 . S
N919 C912 1.356 . S
N919 H922 0.984 . S
N919 H923 0.985 . S
H920 N915 0.984 . S
H921 N915 0.985 1_556 S
H922 N919 0.984 . S
H923 N919 0.985 . S
H924 N918 0.984 . S
H925 N918 0.984 . S
H926 N914 0.984 . S
H927 N914 0.985 . S
C928 C929 1.363 . S
C928 C934 1.379 . S
C928 N936 1.356 . S
C929 C928 1.363 . S
C929 C935 1.363 . S
C930 C931 1.363 . S
C930 C935 1.379 . S
C930 N937 1.356 . S
C931 C930 1.363 . S
C931 C934 1.363 . S
N932 C934 1.356 . S
N932 H944 0.984 . S
N932 H945 0.985 . S
N933 C935 1.356 . S
N933 H938 0.984 . S
N933 H939 0.985 . S
C934 C928 1.379 . S
C934 C931 1.363 . S
C934 N932 1.356 . S
C935 C929 1.363 . S
C935 C930 1.379 . S
C935 N933 1.356 . S
N936 C928 1.356 . S
N936 H942 0.984 . S
N936 H943 0.984 . S
N937 C930 1.356 . S
N937 H940 0.984 . S
N937 H941 0.985 . S
H938 N933 0.984 . S
H939 N933 0.985 . S
H940 N937 0.984 . S
H941 N937 0.985 . S
H942 N936 0.984 . S
H943 N936 0.984 . S
H944 N932 0.984 . S
H945 N932 0.985 . S
C946 C947 1.363 . S
C946 C952 1.379 . S
C946 N954 1.356 . S
C947 C946 1.363 . S
C947 C953 1.363 . S
C948 C949 1.363 . S
C948 C953 1.379 . S
C948 N955 1.356 . S
C949 C948 1.363 . S
C949 C952 1.363 . S
N950 C952 1.356 . S
N950 H962 0.984 . S
N950 H963 0.985 . S
N951 C953 1.356 . S
N951 H956 0.984 . S
N951 H957 0.985 . S
C952 C946 1.379 . S
C952 C949 1.363 . S
C952 N950 1.356 . S
C953 C947 1.363 . S
C953 C948 1.379 . S
C953 N951 1.356 . S
N954 C946 1.356 . S
N954 H960 0.984 . S
N954 H961 0.984 . S
N955 C948 1.356 . S
N955 H958 0.984 . S
N955 H959 0.985 . S
H956 N951 0.984 . S
H957 N951 0.985 . S
H958 N955 0.984 . S
H959 N955 0.985 . S
H960 N954 0.984 . S
H961 N954 0.984 . S
H962 N950 0.984 . S
H963 N950 0.985 . S
C964 C965 1.363 . S
C964 C970 1.379 . S
C964 N972 1.356 . S
C965 C964 1.363 . S
C965 C971 1.363 . S
C966 C967 1.363 . S
C966 C971 1.379 . S
C966 N973 1.356 . S
C967 C966 1.363 . S
C967 C970 1.363 . S
N968 C970 1.356 . S
N968 H980 0.984 . S
N968 H981 0.985 . S
N969 C971 1.356 . S
N969 H974 0.984 . S
N969 H975 0.985 . S
C970 C964 1.379 . S
C970 C967 1.363 . S
C970 N968 1.356 . S
C971 C965 1.363 . S
C971 C966 1.379 . S
C971 N969 1.356 . S
N972 C964 1.356 . S
N972 H978 0.984 . S
N972 H979 0.984 . S
N973 C966 1.356 . S
N973 H976 0.984 . S
N973 H977 0.985 . S
H974 N969 0.984 . S
H975 N969 0.985 . S
H976 N973 0.984 . S
H977 N973 0.985 . S
H978 N972 0.984 . S
H979 N972 0.984 . S
H980 N968 0.984 . S
H981 N968 0.985 . S
C982 C983 1.363 . S
C982 C988 1.379 . S
C982 N990 1.356 . S
C983 C982 1.363 . S
C983 C989 1.363 . S
C984 C985 1.363 . S
C984 C989 1.379 . S
C984 N991 1.356 . S
C985 C984 1.363 . S
C985 C988 1.363 . S
N986 C988 1.356 . S
N986 H998 0.984 . S
N986 H999 0.985 . S
N987 C989 1.356 . S
N987 H992 0.984 . S
N987 H993 0.985 . S
C988 C982 1.379 . S
C988 C985 1.363 . S
C988 N986 1.356 . S
C989 C983 1.363 . S
C989 C984 1.379 . S
C989 N987 1.356 . S
N990 C982 1.356 . S
N990 H996 0.984 . S
N990 H997 0.984 . S
N991 C984 1.356 . S
N991 H994 0.984 . S
N991 H995 0.985 . S
H992 N987 0.984 . S
H993 N987 0.985 . S
H994 N991 0.984 . S
H995 N991 0.985 . S
H996 N990 0.984 . S
H997 N990 0.984 . S
H998 N986 0.984 . S
H999 N986 0.985 . S
C1000 C1001 1.363 . S
C1000 C1006 1.379 . S
C1000 N1008 1.356 . S
C1001 C1000 1.363 . S
C1001 C1007 1.363 . S
C1002 C1003 1.363 . S
C1002 C1007 1.379 . S
C1002 N1009 1.356 . S
C1003 C1002 1.363 . S
C1003 C1006 1.363 . S
N1004 C1006 1.356 . S
N1004 H1016 0.984 . S
N1004 H1017 0.985 . S
N1005 C1007 1.356 . S
N1005 H1010 0.984 . S
N1005 H1011 0.985 . S
C1006 C1000 1.379 . S
C1006 C1003 1.363 . S
C1006 N1004 1.356 . S
C1007 C1001 1.363 . S
C1007 C1002 1.379 . S
C1007 N1005 1.356 . S
N1008 C1000 1.356 . S
N1008 H1014 0.984 . S
N1008 H1015 0.984 . S
N1009 C1002 1.356 . S
N1009 H1012 0.984 . S
N1009 H1013 0.985 . S
H1010 N1005 0.984 . S
H1011 N1005 0.985 . S
H1012 N1009 0.984 . S
H1013 N1009 0.985 . S
H1014 N1008 0.984 . S
H1015 N1008 0.984 . S
H1016 N1004 0.984 . S
H1017 N1004 0.985 . S
C1018 C1019 1.363 . S
C1018 C1024 1.379 . S
C1018 N1026 1.356 . S
C1019 C1018 1.363 . S
C1019 C1025 1.363 . S
C1020 C1021 1.363 . S
C1020 C1025 1.379 . S
C1020 N1027 1.356 . S
C1021 C1020 1.363 . S
C1021 C1024 1.363 . S
N1022 C1024 1.356 . S
N1022 H1034 0.984 . S
N1022 H1035 0.985 . S
N1023 C1025 1.356 . S
N1023 H1028 0.984 . S
N1023 H1029 0.985 . S
C1024 C1018 1.379 . S
C1024 C1021 1.363 . S
C1024 N1022 1.356 . S
C1025 C1019 1.363 . S
C1025 C1020 1.379 . S
C1025 N1023 1.356 . S
N1026 C1018 1.356 . S
N1026 H1032 0.984 . S
N1026 H1033 0.984 . S
N1027 C1020 1.356 . S
N1027 H1030 0.984 . S
N1027 H1031 0.985 . S
H1028 N1023 0.984 . S
H1029 N1023 0.985 . S
H1030 N1027 0.984 . S
H1031 N1027 0.985 . S
H1032 N1026 0.984 . S
H1033 N1026 0.984 . S
H1034 N1022 0.984 . S
H1035 N1022 0.985 . S
C1036 C1037 1.363 . S
C1036 C1042 1.379 . S
C1036 N1044 1.356 . S
C1037 C1036 1.363 . S
C1037 C1043 1.363 . S
C1038 C1039 1.363 . S
C1038 C1043 1.379 . S
C1038 N1045 1.356 . S
C1039 C1038 1.363 . S
C1039 C1042 1.363 . S
N1040 C1042 1.356 . S
N1040 H1052 0.984 . S
N1040 H1053 0.985 . S
N1041 C1043 1.356 . S
N1041 H1046 0.984 . S
N1041 H1047 0.985 . S
C1042 C1036 1.379 . S
C1042 C1039 1.363 . S
C1042 N1040 1.356 . S
C1043 C1037 1.363 . S
C1043 C1038 1.379 . S
C1043 N1041 1.356 . S
N1044 C1036 1.356 . S
N1044 H1050 0.984 . S
N1044 H1051 0.984 . S
N1045 C1038 1.356 . S
N1045 H1048 0.984 . S
N1045 H1049 0.985 . S
H1046 N1041 0.984 . S
H1047 N1041 0.985 . S
H1048 N1045 0.984 . S
H1049 N1045 0.985 . S
H1050 N1044 0.984 . S
H1051 N1044 0.984 . S
H1052 N1040 0.984 . S
H1053 N1040 0.985 . S
C1054 C1055 1.363 . S
C1054 C1060 1.379 . S
C1054 N1062 1.356 . S
C1055 C1054 1.363 . S
C1055 C1061 1.363 . S
C1056 C1057 1.363 . S
C1056 C1061 1.379 . S
C1056 N1063 1.356 . S
C1057 C1056 1.363 . S
C1057 C1060 1.363 . S
N1058 C1060 1.356 . S
N1058 H1070 0.984 . S
N1058 H1071 0.985 . S
N1059 C1061 1.356 . S
N1059 H1064 0.984 . S
N1059 H1065 0.985 . S
C1060 C1054 1.379 . S
C1060 C1057 1.363 . S
C1060 N1058 1.356 . S
C1061 C1055 1.363 . S
C1061 C1056 1.379 . S
C1061 N1059 1.356 . S
N1062 C1054 1.356 . S
N1062 H1068 0.984 . S
N1062 H1069 0.984 . S
N1063 C1056 1.356 . S
N1063 H1066 0.984 . S
N1063 H1067 0.985 . S
H1064 N1059 0.984 . S
H1065 N1059 0.985 . S
H1066 N1063 0.984 . S
H1067 N1063 0.985 . S
H1068 N1062 0.984 . S
H1069 N1062 0.984 . S
H1070 N1058 0.984 . S
H1071 N1058 0.985 . S
C1072 C1073 1.363 . S
C1072 C1078 1.379 . S
C1072 N1080 1.356 . S
C1073 C1072 1.363 . S
C1073 C1079 1.363 . S
C1074 C1075 1.363 . S
C1074 C1079 1.379 . S
C1074 N1081 1.356 . S
C1075 C1074 1.363 . S
C1075 C1078 1.363 . S
N1076 C1078 1.356 . S
N1076 H1088 0.984 . S
N1076 H1089 0.985 . S
N1077 C1079 1.356 . S
N1077 H1082 0.984 . S
N1077 H1083 0.985 . S
C1078 C1072 1.379 . S
C1078 C1075 1.363 . S
C1078 N1076 1.356 . S
C1079 C1073 1.363 . S
C1079 C1074 1.379 . S
C1079 N1077 1.356 . S
N1080 C1072 1.356 . S
N1080 H1086 0.984 . S
N1080 H1087 0.984 . S
N1081 C1074 1.356 . S
N1081 H1084 0.984 . S
N1081 H1085 0.985 . S
H1082 N1077 0.984 . S
H1083 N1077 0.985 . S
H1084 N1081 0.984 . S
H1085 N1081 0.985 . S
H1086 N1080 0.984 . S
H1087 N1080 0.984 . S
H1088 N1076 0.984 . S
H1089 N1076 0.985 . S
C1090 C1091 1.363 . S
C1090 C1096 1.379 . S
C1090 N1098 1.356 . S
C1091 C1090 1.363 . S
C1091 C1097 1.363 . S
C1092 C1093 1.363 . S
C1092 C1097 1.379 . S
C1092 N1099 1.356 . S
C1093 C1092 1.363 . S
C1093 C1096 1.363 . S
N1094 C1096 1.356 . S
N1094 H1106 0.984 1_655 S
N1094 H1107 0.985 . S
N1095 C1097 1.356 . S
N1095 H1100 0.984 . S
N1095 H1101 0.985 . S
C1096 C1090 1.379 . S
C1096 C1093 1.363 . S
C1096 N1094 1.356 . S
C1097 C1091 1.363 . S
C1097 C1092 1.379 . S
C1097 N1095 1.356 . S
N1098 C1090 1.356 . S
N1098 H1104 0.984 . S
N1098 H1105 0.984 . S
N1099 C1092 1.356 . S
N1099 H1102 0.984 . S
N1099 H1103 0.985 . S
H1100 N1095 0.984 . S
H1101 N1095 0.985 . S
H1102 N1099 0.984 . S
H1103 N1099 0.985 . S
H1104 N1098 0.984 . S
H1105 N1098 0.984 . S
H1106 N1094 0.984 1_455 S
H1107 N1094 0.985 . S
C1108 C1109 1.363 . S
C1108 C1114 1.379 . S
C1108 N1116 1.356 . S
C1109 C1108 1.363 . S
C1109 C1115 1.363 . S
C1110 C1111 1.363 . S
C1110 C1115 1.379 . S
C1110 N1117 1.356 . S
C1111 C1110 1.363 . S
C1111 C1114 1.363 . S
N1112 C1114 1.356 . S
N1112 H1124 0.984 . S
N1112 H1125 0.985 . S
N1113 C1115 1.356 . S
N1113 H1118 0.984 . S
N1113 H1119 0.985 . S
C1114 C1108 1.379 . S
C1114 C1111 1.363 . S
C1114 N1112 1.356 . S
C1115 C1109 1.363 . S
C1115 C1110 1.379 . S
C1115 N1113 1.356 . S
N1116 C1108 1.356 . S
N1116 H1122 0.984 . S
N1116 H1123 0.984 . S
N1117 C1110 1.356 . S
N1117 H1120 0.984 . S
N1117 H1121 0.985 . S
H1118 N1113 0.984 . S
H1119 N1113 0.985 . S
H1120 N1117 0.984 . S
H1121 N1117 0.985 . S
H1122 N1116 0.984 . S
H1123 N1116 0.984 . S
H1124 N1112 0.984 . S
H1125 N1112 0.985 . S
C1126 C1127 1.363 . S
C1126 C1132 1.379 . S
C1126 N1134 1.356 . S
C1127 C1126 1.363 . S
C1127 C1133 1.363 . S
C1128 C1129 1.363 . S
C1128 C1133 1.379 . S
C1128 N1135 1.356 . S
C1129 C1128 1.363 . S
C1129 C1132 1.363 . S
N1130 C1132 1.356 . S
N1130 H1142 0.984 . S
N1130 H1143 0.985 . S
N1131 C1133 1.356 . S
N1131 H1136 0.984 . S
N1131 H1137 0.985 1_565 S
C1132 C1126 1.379 . S
C1132 C1129 1.363 . S
C1132 N1130 1.356 . S
C1133 C1127 1.363 . S
C1133 C1128 1.379 . S
C1133 N1131 1.356 . S
N1134 C1126 1.356 . S
N1134 H1140 0.984 . S
N1134 H1141 0.984 . S
N1135 C1128 1.356 . S
N1135 H1138 0.984 1_556 S
N1135 H1139 0.985 1_565 S
H1136 N1131 0.984 . S
H1137 N1131 0.985 1_545 S
H1138 N1135 0.984 1_554 S
H1139 N1135 0.985 1_545 S
H1140 N1134 0.984 . S
H1141 N1134 0.984 . S
H1142 N1130 0.984 . S
H1143 N1130 0.985 . S
C1144 C1145 1.363 . S
C1144 C1150 1.379 . S
C1144 N1152 1.356 . S
C1145 C1144 1.363 . S
C1145 C1151 1.363 . S
C1146 C1147 1.363 . S
C1146 C1151 1.379 . S
C1146 N1153 1.356 . S
C1147 C1146 1.363 . S
C1147 C1150 1.363 . S
N1148 C1150 1.356 . S
N1148 H1160 0.984 . S
N1148 H1161 0.985 . S
N1149 C1151 1.356 . S
N1149 H1154 0.984 . S
N1149 H1155 0.985 . S
C1150 C1144 1.379 . S
C1150 C1147 1.363 . S
C1150 N1148 1.356 . S
C1151 C1145 1.363 . S
C1151 C1146 1.379 . S
C1151 N1149 1.356 . S
N1152 C1144 1.356 . S
N1152 H1158 0.984 . S
N1152 H1159 0.984 . S
N1153 C1146 1.356 . S
N1153 H1156 0.984 . S
N1153 H1157 0.985 . S
H1154 N1149 0.984 . S
H1155 N1149 0.985 . S
H1156 N1153 0.984 . S
H1157 N1153 0.985 . S
H1158 N1152 0.984 . S
H1159 N1152 0.984 . S
H1160 N1148 0.984 . S
H1161 N1148 0.985 . S
C1162 C1163 1.363 . S
C1162 C1168 1.379 . S
C1162 N1170 1.356 . S
C1163 C1162 1.363 . S
C1163 C1169 1.363 . S
C1164 C1165 1.363 . S
C1164 C1169 1.379 . S
C1164 N1171 1.356 . S
C1165 C1164 1.363 . S
C1165 C1168 1.363 . S
N1166 C1168 1.356 1_655 S
N1166 H1178 0.984 . S
N1166 H1179 0.985 . S
N1167 C1169 1.356 . S
N1167 H1172 0.984 . S
N1167 H1173 0.985 . S
C1168 C1162 1.379 . S
C1168 C1165 1.363 . S
C1168 N1166 1.356 1_455 S
C1169 C1163 1.363 . S
C1169 C1164 1.379 . S
C1169 N1167 1.356 . S
N1170 C1162 1.356 . S
N1170 H1176 0.984 . S
N1170 H1177 0.984 . S
N1171 C1164 1.356 . S
N1171 H1174 0.984 . S
N1171 H1175 0.985 . S
H1172 N1167 0.984 . S
H1173 N1167 0.985 . S
H1174 N1171 0.984 . S
H1175 N1171 0.985 . S
H1176 N1170 0.984 . S
H1177 N1170 0.984 . S
H1178 N1166 0.984 . S
H1179 N1166 0.985 . S
C1180 C1181 1.363 . S
C1180 C1186 1.379 . S
C1180 N1188 1.356 . S
C1181 C1180 1.363 . S
C1181 C1187 1.363 . S
C1182 C1183 1.363 . S
C1182 C1187 1.379 . S
C1182 N1189 1.356 . S
C1183 C1182 1.363 . S
C1183 C1186 1.363 . S
N1184 C1186 1.356 . S
N1184 H1196 0.984 . S
N1184 H1197 0.985 . S
N1185 C1187 1.356 . S
N1185 H1190 0.984 . S
N1185 H1191 0.985 . S
C1186 C1180 1.379 . S
C1186 C1183 1.363 . S
C1186 N1184 1.356 . S
C1187 C1181 1.363 . S
C1187 C1182 1.379 . S
C1187 N1185 1.356 . S
N1188 C1180 1.356 . S
N1188 H1194 0.984 . S
N1188 H1195 0.984 . S
N1189 C1182 1.356 . S
N1189 H1192 0.984 . S
N1189 H1193 0.985 . S
H1190 N1185 0.984 . S
H1191 N1185 0.985 . S
H1192 N1189 0.984 . S
H1193 N1189 0.985 . S
H1194 N1188 0.984 . S
H1195 N1188 0.984 . S
H1196 N1184 0.984 . S
H1197 N1184 0.985 . S
C1198 C1199 1.363 . S
C1198 C1204 1.379 . S
C1198 N1206 1.356 . S
C1199 C1198 1.363 . S
C1199 C1205 1.363 . S
C1200 C1201 1.363 . S
C1200 C1205 1.379 . S
C1200 N1207 1.356 . S
C1201 C1200 1.363 . S
C1201 C1204 1.363 . S
N1202 C1204 1.356 . S
N1202 H1214 0.984 . S
N1202 H1215 0.985 . S
N1203 C1205 1.356 . S
N1203 H1208 0.984 . S
N1203 H1209 0.985 . S
C1204 C1198 1.379 . S
C1204 C1201 1.363 . S
C1204 N1202 1.356 . S
C1205 C1199 1.363 . S
C1205 C1200 1.379 . S
C1205 N1203 1.356 . S
N1206 C1198 1.356 . S
N1206 H1212 0.984 . S
N1206 H1213 0.984 . S
N1207 C1200 1.356 . S
N1207 H1210 0.984 . S
N1207 H1211 0.985 . S
H1208 N1203 0.984 . S
H1209 N1203 0.985 . S
H1210 N1207 0.984 . S
H1211 N1207 0.985 . S
H1212 N1206 0.984 . S
H1213 N1206 0.984 . S
H1214 N1202 0.984 . S
H1215 N1202 0.985 . S
C1216 C1217 1.363 . S
C1216 C1222 1.379 . S
C1216 N1224 1.356 . S
C1217 C1216 1.363 . S
C1217 C1223 1.363 . S
C1218 C1219 1.363 . S
C1218 C1223 1.379 . S
C1218 N1225 1.356 . S
C1219 C1218 1.363 . S
C1219 C1222 1.363 . S
N1220 C1222 1.356 . S
N1220 H1232 0.984 . S
N1220 H1233 0.985 . S
N1221 C1223 1.356 . S
N1221 H1226 0.984 . S
N1221 H1227 0.985 . S
C1222 C1216 1.379 . S
C1222 C1219 1.363 . S
C1222 N1220 1.356 . S
C1223 C1217 1.363 . S
C1223 C1218 1.379 . S
C1223 N1221 1.356 . S
N1224 C1216 1.356 . S
N1224 H1230 0.984 . S
N1224 H1231 0.984 . S
N1225 C1218 1.356 . S
N1225 H1228 0.984 . S
N1225 H1229 0.985 . S
H1226 N1221 0.984 . S
H1227 N1221 0.985 . S
H1228 N1225 0.984 . S
H1229 N1225 0.985 . S
H1230 N1224 0.984 . S
H1231 N1224 0.984 . S
H1232 N1220 0.984 . S
H1233 N1220 0.985 . S
C1234 C1235 1.363 . S
C1234 C1240 1.379 . S
C1234 N1242 1.356 . S
C1235 C1234 1.363 . S
C1235 C1241 1.363 . S
C1236 C1237 1.363 . S
C1236 C1241 1.379 . S
C1236 N1243 1.356 . S
C1237 C1236 1.363 . S
C1237 C1240 1.363 . S
N1238 C1240 1.356 . S
N1238 H1250 0.963 1_455 S
N1238 H1251 0.985 . S
N1239 C1241 1.356 . S
N1239 H1244 0.984 . S
N1239 H1245 0.985 . S
C1240 C1234 1.379 . S
C1240 C1237 1.363 . S
C1240 N1238 1.356 . S
C1241 C1235 1.363 . S
C1241 C1236 1.379 . S
C1241 N1239 1.356 . S
N1242 C1234 1.356 . S
N1242 H1248 0.984 . S
N1242 H1249 0.984 . S
N1243 C1236 1.356 . S
N1243 H1246 0.984 . S
N1243 H1247 0.985 . S
H1244 N1239 0.984 . S
H1245 N1239 0.985 . S
H1246 N1243 0.984 . S
H1247 N1243 0.985 . S
H1248 N1242 0.984 . S
H1249 N1242 0.984 . S
H1250 N1238 0.963 1_655 S
H1251 N1238 0.985 . S
C1252 C1253 1.363 . S
C1252 C1258 1.379 . S
C1252 N1260 1.356 . S
C1253 C1252 1.363 . S
C1253 C1259 1.363 . S
C1254 C1255 1.363 . S
C1254 C1259 1.379 . S
C1254 N1261 1.356 . S
C1255 C1254 1.363 . S
C1255 C1258 1.363 . S
N1256 C1258 1.356 . S
N1256 H1268 0.984 . S
N1256 H1269 0.985 . S
N1257 C1259 1.356 . S
N1257 H1262 0.984 . S
N1257 H1263 0.985 . S
C1258 C1252 1.379 . S
C1258 C1255 1.363 . S
C1258 N1256 1.356 . S
C1259 C1253 1.363 . S
C1259 C1254 1.379 . S
C1259 N1257 1.356 . S
N1260 C1252 1.356 . S
N1260 H1266 0.984 . S
N1260 H1267 0.984 . S
N1261 C1254 1.356 . S
N1261 H1264 0.984 . S
N1261 H1265 0.985 . S
H1262 N1257 0.984 . S
H1263 N1257 0.985 . S
H1264 N1261 0.984 . S
H1265 N1261 0.985 . S
H1266 N1260 0.984 . S
H1267 N1260 0.984 . S
H1268 N1256 0.984 . S
H1269 N1256 0.985 . S
C1270 C1271 1.363 . S
C1270 C1276 1.379 . S
C1270 N1278 1.356 1_565 S
C1271 C1270 1.363 . S
C1271 C1277 1.363 . S
C1272 C1273 1.363 . S
C1272 C1277 1.379 . S
C1272 N1279 1.356 . S
C1273 C1272 1.363 . S
C1273 C1276 1.363 . S
N1274 C1276 1.356 . S
N1274 H1286 0.984 1_564 S
N1274 H1287 0.985 . S
N1275 C1277 1.356 . S
N1275 H1280 0.984 . S
N1275 H1281 0.985 . S
C1276 C1270 1.379 . S
C1276 C1273 1.363 . S
C1276 N1274 1.356 . S
C1277 C1271 1.363 . S
C1277 C1272 1.379 . S
C1277 N1275 1.356 . S
N1278 C1270 1.356 1_545 S
N1278 H1284 0.984 . S
N1278 H1285 0.984 . S
N1279 C1272 1.356 . S
N1279 H1282 0.984 . S
N1279 H1283 0.985 . S
H1280 N1275 0.984 . S
H1281 N1275 0.985 . S
H1282 N1279 0.984 . S
H1283 N1279 0.985 . S
H1284 N1278 0.984 . S
H1285 N1278 0.984 . S
H1286 N1274 0.984 1_546 S
H1287 N1274 0.985 . S
C1288 C1289 1.363 . S
C1288 C1294 1.379 . S
C1288 N1296 1.356 . S
C1289 C1288 1.363 . S
C1289 C1295 1.363 . S
C1290 C1291 1.363 . S
C1290 C1295 1.379 . S
C1290 N1297 1.356 . S
C1291 C1290 1.363 . S
C1291 C1294 1.363 . S
N1292 C1294 1.356 . S
N1292 H1304 0.984 . S
N1292 H1305 0.985 . S
N1293 C1295 1.356 . S
N1293 H1298 0.984 . S
N1293 H1299 0.985 . S
C1294 C1288 1.379 . S
C1294 C1291 1.363 . S
C1294 N1292 1.356 . S
C1295 C1289 1.363 . S
C1295 C1290 1.379 . S
C1295 N1293 1.356 . S
N1296 C1288 1.356 . S
N1296 H1302 0.984 . S
N1296 H1303 0.984 . S
N1297 C1290 1.356 . S
N1297 H1300 0.984 . S
N1297 H1301 0.985 . S
H1298 N1293 0.984 . S
H1299 N1293 0.985 . S
H1300 N1297 0.984 . S
H1301 N1297 0.985 . S
H1302 N1296 0.984 . S
H1303 N1296 0.984 . S
H1304 N1292 0.984 . S
H1305 N1292 0.985 . S
C1306 C1307 1.363 . S
C1306 C1312 1.379 . S
C1306 N1314 1.356 . S
C1307 C1306 1.363 . S
C1307 C1313 1.363 . S
C1308 C1309 1.363 . S
C1308 C1313 1.379 . S
C1308 N1315 1.356 . S
C1309 C1308 1.363 . S
C1309 C1312 1.363 . S
N1310 C1312 1.356 . S
N1310 H1322 0.984 . S
N1310 H1323 0.985 . S
N1311 C1313 1.356 . S
N1311 H1316 0.984 . S
N1311 H1317 0.985 . S
C1312 C1306 1.379 . S
C1312 C1309 1.363 . S
C1312 N1310 1.356 . S
C1313 C1307 1.363 . S
C1313 C1308 1.379 . S
C1313 N1311 1.356 . S
N1314 C1306 1.356 . S
N1314 H1320 0.984 . S
N1314 H1321 0.984 . S
N1315 C1308 1.356 . S
N1315 H1318 0.984 . S
N1315 H1319 0.985 . S
H1316 N1311 0.984 . S
H1317 N1311 0.985 . S
H1318 N1315 0.984 . S
H1319 N1315 0.985 . S
H1320 N1314 0.984 . S
H1321 N1314 0.984 . S
H1322 N1310 0.984 . S
H1323 N1310 0.985 . S
C1324 C1325 1.363 . S
C1324 C1330 1.379 . S
C1324 N1332 1.356 . S
C1325 C1324 1.363 . S
C1325 C1331 1.363 . S
C1326 C1327 1.363 . S
C1326 C1331 1.379 . S
C1326 N1333 1.356 . S
C1327 C1326 1.363 . S
C1327 C1330 1.363 . S
N1328 C1330 1.356 . S
N1328 H1340 0.984 . S
N1328 H1341 0.985 . S
N1329 C1331 1.356 . S
N1329 H1334 0.984 . S
N1329 H1335 0.985 . S
C1330 C1324 1.379 . S
C1330 C1327 1.363 . S
C1330 N1328 1.356 . S
C1331 C1325 1.363 . S
C1331 C1326 1.379 . S
C1331 N1329 1.356 . S
N1332 C1324 1.356 . S
N1332 H1338 0.984 . S
N1332 H1339 0.984 . S
N1333 C1326 1.356 . S
N1333 H1336 0.984 . S
N1333 H1337 0.985 . S
H1334 N1329 0.984 . S
H1335 N1329 0.985 . S
H1336 N1333 0.984 . S
H1337 N1333 0.985 . S
H1338 N1332 0.984 . S
H1339 N1332 0.984 . S
H1340 N1328 0.984 . S
H1341 N1328 0.985 . S
C1342 C1343 1.363 . S
C1342 C1348 1.379 . S
C1342 N1350 1.356 . S
C1343 C1342 1.363 . S
C1343 C1349 1.363 . S
C1344 C1345 1.363 . S
C1344 C1349 1.379 . S
C1344 N1351 1.356 . S
C1345 C1344 1.363 . S
C1345 C1348 1.363 . S
N1346 C1348 1.356 . S
N1346 H1358 0.984 . S
N1346 H1359 0.985 . S
N1347 C1349 1.356 . S
N1347 H1352 0.984 . S
N1347 H1353 0.985 . S
C1348 C1342 1.379 . S
C1348 C1345 1.363 . S
C1348 N1346 1.356 . S
C1349 C1343 1.363 . S
C1349 C1344 1.379 . S
C1349 N1347 1.356 . S
N1350 C1342 1.356 . S
N1350 H1356 0.984 . S
N1350 H1357 0.984 . S
N1351 C1344 1.356 . S
N1351 H1354 0.984 . S
N1351 H1355 0.985 . S
H1352 N1347 0.984 . S
H1353 N1347 0.985 . S
H1354 N1351 0.984 . S
H1355 N1351 0.985 . S
H1356 N1350 0.984 . S
H1357 N1350 0.984 . S
H1358 N1346 0.984 . S
H1359 N1346 0.985 . S
C1360 C1361 1.363 . S
C1360 C1366 1.379 . S
C1360 N1368 1.356 . S
C1361 C1360 1.363 . S
C1361 C1367 1.363 . S
C1362 C1363 1.363 . S
C1362 C1367 1.379 . S
C1362 N1369 1.356 . S
C1363 C1362 1.363 . S
C1363 C1366 1.363 . S
N1364 C1366 1.356 . S
N1364 H1376 0.984 . S
N1364 H1377 0.985 . S
N1365 C1367 1.356 . S
N1365 H1370 0.984 . S
N1365 H1371 0.985 . S
C1366 C1360 1.379 . S
C1366 C1363 1.363 . S
C1366 N1364 1.356 . S
C1367 C1361 1.363 . S
C1367 C1362 1.379 . S
C1367 N1365 1.356 . S
N1368 C1360 1.356 . S
N1368 H1374 0.984 . S
N1368 H1375 0.984 . S
N1369 C1362 1.356 . S
N1369 H1372 0.984 . S
N1369 H1373 0.985 . S
H1370 N1365 0.984 . S
H1371 N1365 0.985 . S
H1372 N1369 0.984 . S
H1373 N1369 0.985 . S
H1374 N1368 0.984 . S
H1375 N1368 0.984 . S
H1376 N1364 0.984 . S
H1377 N1364 0.985 . S
C1378 C1379 1.363 . S
C1378 C1384 1.379 . S
C1378 N1386 1.356 . S
C1379 C1378 1.363 . S
C1379 C1385 1.363 . S
C1380 C1381 1.363 . S
C1380 C1385 1.379 . S
C1380 N1387 1.356 . S
C1381 C1380 1.363 . S
C1381 C1384 1.363 . S
N1382 C1384 1.356 . S
N1382 H1394 0.984 . S
N1382 H1395 0.985 . S
N1383 C1385 1.356 . S
N1383 H1388 0.984 . S
N1383 H1389 0.985 . S
C1384 C1378 1.379 . S
C1384 C1381 1.363 . S
C1384 N1382 1.356 . S
C1385 C1379 1.363 . S
C1385 C1380 1.379 . S
C1385 N1383 1.356 . S
N1386 C1378 1.356 . S
N1386 H1392 0.984 . S
N1386 H1393 0.984 . S
N1387 C1380 1.356 . S
N1387 H1390 0.984 . S
N1387 H1391 0.985 1_554 S
H1388 N1383 0.984 . S
H1389 N1383 0.985 . S
H1390 N1387 0.984 . S
H1391 N1387 0.985 1_556 S
H1392 N1386 0.984 . S
H1393 N1386 0.984 . S
H1394 N1382 0.984 . S
H1395 N1382 0.985 . S
C1396 C1397 1.363 . S
C1396 C1402 1.379 . S
C1396 N1404 1.356 . S
C1397 C1396 1.363 . S
C1397 C1403 1.363 . S
C1398 C1399 1.363 . S
C1398 C1403 1.379 . S
C1398 N1405 1.356 . S
C1399 C1398 1.363 . S
C1399 C1402 1.363 . S
N1400 C1402 1.356 . S
N1400 H1412 0.984 . S
N1400 H1413 0.985 . S
N1401 C1403 1.356 . S
N1401 H1406 0.984 . S
N1401 H1407 0.985 . S
C1402 C1396 1.379 . S
C1402 C1399 1.363 . S
C1402 N1400 1.356 . S
C1403 C1397 1.363 . S
C1403 C1398 1.379 . S
C1403 N1401 1.356 . S
N1404 C1396 1.356 . S
N1404 H1410 0.984 . S
N1404 H1411 0.984 . S
N1405 C1398 1.356 . S
N1405 H1408 0.984 . S
N1405 H1409 0.985 . S
H1406 N1401 0.984 . S
H1407 N1401 0.985 . S
H1408 N1405 0.984 . S
H1409 N1405 0.985 . S
H1410 N1404 0.984 . S
H1411 N1404 0.984 . S
H1412 N1400 0.984 . S
H1413 N1400 0.985 . S
C1414 C1415 1.363 . S
C1414 C1420 1.379 . S
C1414 N1422 1.356 . S
C1415 C1414 1.363 . S
C1415 C1421 1.363 . S
C1416 C1417 1.363 . S
C1416 C1421 1.379 . S
C1416 N1423 1.356 . S
C1417 C1416 1.363 . S
C1417 C1420 1.363 . S
N1418 C1420 1.356 . S
N1418 H1430 0.984 . S
N1418 H1431 0.985 . S
N1419 C1421 1.356 . S
N1419 H1424 0.984 . S
N1419 H1425 0.985 . S
C1420 C1414 1.379 . S
C1420 C1417 1.363 . S
C1420 N1418 1.356 . S
C1421 C1415 1.363 . S
C1421 C1416 1.379 . S
C1421 N1419 1.356 . S
N1422 C1414 1.356 . S
N1422 H1428 0.984 . S
N1422 H1429 0.984 . S
N1423 C1416 1.356 . S
N1423 H1426 0.984 . S
N1423 H1427 0.985 . S
H1424 N1419 0.984 . S
H1425 N1419 0.985 . S
H1426 N1423 0.984 . S
H1427 N1423 0.985 . S
H1428 N1422 0.984 . S
H1429 N1422 0.984 . S
H1430 N1418 0.984 . S
H1431 N1418 0.985 . S
C1432 C1433 1.363 . S
C1432 C1438 1.379 . S
C1432 N1440 1.356 . S
C1433 C1432 1.363 . S
C1433 C1439 1.363 . S
C1434 C1435 1.363 . S
C1434 C1439 1.379 . S
C1434 N1441 1.356 . S
C1435 C1434 1.363 . S
C1435 C1438 1.363 . S
N1436 C1438 1.356 . S
N1436 H1448 0.984 . S
N1436 H1449 0.985 . S
N1437 C1439 1.356 . S
N1437 H1442 0.984 . S
N1437 H1443 0.985 . S
C1438 C1432 1.379 . S
C1438 C1435 1.363 . S
C1438 N1436 1.356 . S
C1439 C1433 1.363 . S
C1439 C1434 1.379 . S
C1439 N1437 1.356 . S
N1440 C1432 1.356 . S
N1440 H1446 0.984 . S
N1440 H1447 0.984 . S
N1441 C1434 1.356 . S
N1441 H1444 0.984 . S
N1441 H1445 0.985 . S
H1442 N1437 0.984 . S
H1443 N1437 0.985 . S
H1444 N1441 0.984 . S
H1445 N1441 0.985 . S
H1446 N1440 0.984 . S
H1447 N1440 0.984 . S
H1448 N1436 0.984 . S
H1449 N1436 0.985 . S
C1450 C1451 1.363 . S
C1450 C1456 1.379 . S
C1450 N1458 1.356 . S
C1451 C1450 1.363 . S
C1451 C1457 1.363 . S
C1452 C1453 1.363 . S
C1452 C1457 1.379 . S
C1452 N1459 1.356 . S
C1453 C1452 1.363 . S
C1453 C1456 1.363 . S
N1454 C1456 1.356 . S
N1454 H1466 0.984 . S
N1454 H1467 0.985 . S
N1455 C1457 1.356 . S
N1455 H1460 0.984 . S
N1455 H1461 0.985 . S
C1456 C1450 1.379 . S
C1456 C1453 1.363 . S
C1456 N1454 1.356 . S
C1457 C1451 1.363 . S
C1457 C1452 1.379 . S
C1457 N1455 1.356 . S
N1458 C1450 1.356 . S
N1458 H1464 0.984 . S
N1458 H1465 0.984 . S
N1459 C1452 1.356 . S
N1459 H1462 0.984 . S
N1459 H1463 0.985 . S
H1460 N1455 0.984 . S
H1461 N1455 0.985 . S
H1462 N1459 0.984 . S
H1463 N1459 0.985 . S
H1464 N1458 0.984 . S
H1465 N1458 0.984 . S
H1466 N1454 0.984 . S
H1467 N1454 0.985 . S
C1468 C1469 1.363 . S
C1468 C1474 1.379 . S
C1468 N1476 1.356 . S
C1469 C1468 1.363 . S
C1469 C1475 1.363 . S
C1470 C1471 1.363 . S
C1470 C1475 1.379 . S
C1470 N1477 1.356 . S
C1471 C1470 1.363 . S
C1471 C1474 1.363 . S
N1472 C1474 1.356 . S
N1472 H1484 0.984 . S
N1472 H1485 0.985 . S
N1473 C1475 1.356 . S
N1473 H1478 0.984 . S
N1473 H1479 0.985 . S
C1474 C1468 1.379 . S
C1474 C1471 1.363 . S
C1474 N1472 1.356 . S
C1475 C1469 1.363 . S
C1475 C1470 1.379 . S
C1475 N1473 1.356 . S
N1476 C1468 1.356 . S
N1476 H1482 0.984 . S
N1476 H1483 0.984 . S
N1477 C1470 1.356 . S
N1477 H1480 0.984 . S
N1477 H1481 0.985 . S
H1478 N1473 0.984 . S
H1479 N1473 0.985 . S
H1480 N1477 0.984 . S
H1481 N1477 0.985 . S
H1482 N1476 0.984 . S
H1483 N1476 0.984 . S
H1484 N1472 0.984 . S
H1485 N1472 0.985 . S
C1486 C1487 1.363 . S
C1486 C1492 1.379 . S
C1486 N1494 1.356 . S
C1487 C1486 1.363 . S
C1487 C1493 1.363 . S
C1488 C1489 1.363 . S
C1488 C1493 1.379 . S
C1488 N1495 1.356 . S
C1489 C1488 1.363 . S
C1489 C1492 1.363 . S
N1490 C1492 1.356 . S
N1490 H1502 0.984 . S
N1490 H1503 0.985 . S
N1491 C1493 1.356 . S
N1491 H1496 0.984 . S
N1491 H1497 0.985 . S
C1492 C1486 1.379 . S
C1492 C1489 1.363 . S
C1492 N1490 1.356 . S
C1493 C1487 1.363 . S
C1493 C1488 1.379 . S
C1493 N1491 1.356 . S
N1494 C1486 1.356 . S
N1494 H1500 0.984 . S
N1494 H1501 0.984 . S
N1495 C1488 1.356 . S
N1495 H1498 0.984 . S
N1495 H1499 0.985 . S
H1496 N1491 0.984 . S
H1497 N1491 0.985 . S
H1498 N1495 0.984 . S
H1499 N1495 0.985 . S
H1500 N1494 0.984 . S
H1501 N1494 0.984 . S
H1502 N1490 0.984 . S
H1503 N1490 0.985 . S
C641 C139 3.620 . S
C643 C18 3.641 . S
C659 C10 2.415 . S
C661 C59 2.405 . S
C677 C89 1.303 . S
C679 C49 1.252 . S
C695 C126 1.701 . S
C697 C86 1.736 . S
C713 C170 2.374 . S
C715 C210 2.430 . S
C731 C218 1.354 . S
C733 C258 1.405 . S
C749 C255 1.416 . S
C751 C286 1.368 . S
C767 C175 1.212 . S
C769 C289 1.307 . S
C785 C375 1.258 . S
C787 C15 1.205 . S
C803 C410 1.187 . S
C805 C46 1.130 . S
C821 C99 2.362 . S
C823 C539 2.304 . S
C839 C338 1.267 . S
C841 C129 1.352 . S
C857 C449 1.354 . S
C859 C178 1.269 . S
C875 C575 1.205 . S
C877 C215 1.258 . S
C893 C250 1.186 . S
C895 C486 1.130 . S
C911 C619 2.362 . S
C913 C299 2.304 . S
C929 C335 1.212 . S
C931 C529 1.307 . S
C947 C370 2.430 . S
C949 C330 2.375 . S
C965 C418 1.403 . S
C967 C378 1.352 . S
C983 C578 3.641 . S
C985 C459 3.620 . S
C1001 C489 1.253 . S
C1003 C609 1.303 . S
C1019 C450 3.620 . S
C1021 C9 3.641 . S
C1037 C490 2.405 . S
C1039 C19 2.414 . S
C1055 C498 1.254 . S
C1057 C98 1.304 . S
C1073 C95 1.735 . S
C1075 C455 1.700 . S
C1091 C379 2.430 . S
C1093 C179 2.375 . S
C1109 C369 1.352 . S
C1111 C249 1.403 . S
C1127 C535 1.369 . S
C1129 C246 1.416 . S
C1145 C166 1.212 . S
C1147 C538 1.307 . S
C1163 C206 1.258 . S
C1165 C6 1.205 . S
C1181 C419 1.186 . S
C1183 C495 1.130 . S
C1199 C90 2.362 . S
C1201 C290 2.304 . S
C1217 C329 1.269 . S
C1219 C458 1.354 . S
C1235 C138 1.352 . S
C1237 C169 1.267 . S
C1253 C366 1.258 . S
C1255 C566 1.204 . S
C1271 C259 1.187 . S
C1273 C55 1.131 . S
C1289 C610 2.362 . S
C1291 C530 2.304 . S
C1307 C326 1.212 . S
C1309 C298 1.307 . S
C1325 C339 2.374 . S
C1327 C219 2.430 . S
C1343 C409 1.405 . S
C1345 C209 1.354 . S
C1361 C130 3.620 . S
C1363 C569 3.641 . S
C1379 C58 1.253 . S
C1381 C618 1.303 . S
C1397 C499 2.405 . S
C1399 C570 2.414 . S
C1415 C446 1.701 . S
C1417 C606 1.736 . S
C1433 C415 1.417 . S
C1435 C526 1.369 . S
C1451 C579 2.414 . S
C1453 C50 2.405 . S
C1469 C135 1.700 . S
C1471 C615 1.735 . S
C1487 C295 1.368 . S
C1489 C406 1.416 . S
