# Generated by pormake.
# Topology ths, (3)-cn, num edge types: 1
# Building blocks:
#     Node 0, Type 0, BuildingBlock: WUSLED_clean_sbu_0, # of connection points: 3
#     Node 1, Type 0, BuildingBlock: WUSLED_clean_sbu_0, # of connection points: 3
#     Node 2, Type 0, BuildingBlock: WUSLED_clean_sbu_0, # of connection points: 3
#     Node 3, Type 0, BuildingBlock: WUSLED_clean_sbu_0, # of connection points: 3
#     Node 4, Type 0, BuildingBlock: WUSLED_clean_sbu_0, # of connection points: 3
#     Node 5, Type 0, BuildingBlock: WUSLED_clean_sbu_0, # of connection points: 3
#     Node 6, Type 0, BuildingBlock: WUSLED_clean_sbu_0, # of connection points: 3
#     Node 7, Type 0, BuildingBlock: WUSLED_clean_sbu_0, # of connection points: 3
#     Edge 8, Type (0, 0), BuildingBlock: AJUNOK_clean_linker_0, # of connection points: 2
#     Edge 9, Type (0, 0), BuildingBlock: AJUNOK_clean_linker_0, # of connection points: 2
#     Edge 10, Type (0, 0), BuildingBlock: AJUNOK_clean_linker_0, # of connection points: 2
#     Edge 11, Type (0, 0), BuildingBlock: AJUNOK_clean_linker_0, # of connection points: 2
#     Edge 12, Type (0, 0), BuildingBlock: AJUNOK_clean_linker_0, # of connection points: 2
#     Edge 13, Type (0, 0), BuildingBlock: AJUNOK_clean_linker_0, # of connection points: 2
#     Edge 14, Type (0, 0), BuildingBlock: AJUNOK_clean_linker_0, # of connection points: 2
#     Edge 15, Type (0, 0), BuildingBlock: AJUNOK_clean_linker_0, # of connection points: 2
#     Edge 16, Type (0, 0), BuildingBlock: AJUNOK_clean_linker_0, # of connection points: 2
#     Edge 17, Type (0, 0), BuildingBlock: AJUNOK_clean_linker_0, # of connection points: 2
#     Edge 18, Type (0, 0), BuildingBlock: AJUNOK_clean_linker_0, # of connection points: 2
#     Edge 19, Type (0, 0), BuildingBlock: AJUNOK_clean_linker_0, # of connection points: 2
# Relax obj value: 0.000
# Max RMSD: 0.002
# Mean RMSD: 0.002
data_MOF--net-ths--node1-WUSLED_clean_sbu_0--edge1-AJUNOK_clean_linker_0
_symmetry_space_group_name_H-M    P1
_symmetry_Int_Tables_number       1
_symmetry_cell_setting            triclinic
loop_
_symmetry_equiv_pos_as_xyz
'x, y, z'
_cell_length_a     33.008883
_cell_length_b     33.003031
_cell_length_c     111.13336
_cell_angle_alpha  88.828713
_cell_angle_beta   90.487961
_cell_angle_gamma 90.791224
loop_
_atom_site_label
_atom_site_type_symbol
_atom_site_fract_x
_atom_site_fract_y
_atom_site_fract_z
_atom_type_partial_charge
C0 C 0.08336 0.86011 0.04466 0.0
C1 C 0.08979 0.89084 0.05304 0.0
C2 C 0.08484 0.94241 0.03704 0.0
C3 C 0.0905 0.93164 0.04927 0.0
C4 C 0.07787 0.91146 0.02873 0.0
C5 C 0.07724 0.87071 0.0325 0.0
U6 U 0.08525 0.77604 0.06896 0.0
O7 O 0.05231 0.71766 0.06994 0.0
O8 O 0.11874 0.71868 0.06953 0.0
C9 C 0.08552 0.69628 0.06929 0.0
C10 C 0.0833 0.81697 0.0484 0.0
C11 C 0.08491 0.66298 0.06061 0.0
C12 C 0.06841 0.63569 0.04094 0.0
C13 C 0.0693 0.66819 0.04889 0.0
C14 C 0.09903 0.5926 0.05628 0.0
C15 C 0.08339 0.5975 0.04454 0.0
C16 C 0.09981 0.62501 0.06421 0.0
C17 C 0.08918 0.80839 0.1023 0.0
C18 C 0.07709 0.76574 0.12008 0.0
C19 C 0.10364 0.83399 0.12226 0.0
C20 C 0.10301 0.83949 0.10976 0.0
C21 C 0.09017 0.79728 0.1276 0.0
C22 C 0.07649 0.77128 0.10753 0.0
C23 C 0.08761 0.81609 0.08919 0.0
O24 O 0.11694 0.80404 0.05349 0.0
O25 O 0.05058 0.80367 0.05395 0.0
O26 O 0.05374 0.80582 0.08366 0.0
O27 O 0.12019 0.80687 0.08316 0.0
H28 H 0.09432 0.88326 0.06248 0.0
H29 H 0.09511 0.95479 0.05593 0.0
H30 H 0.07349 0.91875 1.01926 0.0
H31 H 0.07219 0.84741 1.02591 0.0
H32 H 0.05545 0.6403 0.03204 0.0
H33 H 0.05754 0.69724 0.04592 0.0
H34 H 0.11099 0.56371 0.05931 0.0
H35 H 0.11201 0.62037 0.07321 0.0
H36 H 0.06674 0.73706 0.12394 0.0
H37 H 0.11494 0.85845 0.12776 0.0
H38 H 0.1132 0.86824 0.1059 0.0
H39 H 0.06585 0.74681 0.10191 0.0
C40 C 0.49884 0.77724 0.29441 0.0
C41 C 0.46794 0.7784 0.30299 0.0
C42 C 0.41663 0.77807 0.28703 0.0
C43 C 0.42718 0.77874 0.29934 0.0
C44 C 0.44778 0.77663 0.2785 0.0
C45 C 0.48847 0.77631 0.28216 0.0
U46 U 0.58276 0.77778 0.31848 0.0
O47 O 0.6395 0.74332 0.3195 0.0
O48 O 0.64166 0.80978 0.31864 0.0
C49 C 0.66245 0.77609 0.31859 0.0
C50 C 0.5419 0.7768 0.29805 0.0
C51 C 0.69585 0.77475 0.30986 0.0
C52 C 0.72321 0.78636 0.28978 0.0
C53 C 0.6905 0.78677 0.29776 0.0
C54 C 0.76677 0.76154 0.30587 0.0
C55 C 0.76176 0.7737 0.29375 0.0
C56 C 0.73414 0.76202 0.31382 0.0
C57 C 0.55088 0.78133 0.352 0.0
C58 C 0.58261 0.7545 0.37032 0.0
C59 C 0.5313 0.8059 0.37159 0.0
C60 C 0.52762 0.80689 0.35904 0.0
C61 C 0.55814 0.77902 0.37739 0.0
C62 C 0.57898 0.75557 0.35773 0.0
C63 C 0.54314 0.78047 0.33887 0.0
O64 O 0.556 0.81021 0.30289 0.0
O65 O 0.55387 0.74382 0.30379 0.0
O66 O 0.55118 0.74656 0.33341 0.0
O67 O 0.55379 0.81307 0.33262 0.0
H68 H 0.47536 0.77889 0.3125 0.0
H69 H 0.40391 0.77904 0.30614 0.0
H70 H 0.44068 0.77622 0.26897 0.0
H71 H 0.5119 0.77537 0.2754 0.0
H72 H 0.71849 0.79663 0.28057 0.0
H73 H 0.66119 0.79684 0.29452 0.0
H74 H 0.79595 0.75142 0.30919 0.0
H75 H 0.7389 0.75263 0.32312 0.0
H76 H 0.60363 0.73356 0.37454 0.0
H77 H 0.51276 0.82588 0.37676 0.0
H78 H 0.50589 0.82712 0.35482 0.0
H79 H 0.59745 0.73564 0.35251 0.0
C80 C 0.58046 0.35946 0.5444 0.0
C81 C 0.58468 0.39066 0.55274 0.0
C82 C 0.57861 0.44151 0.53657 0.0
C83 C 0.58389 0.43135 0.54885 0.0
C84 C 0.57459 0.41005 0.52827 0.0
C85 C 0.57544 0.36946 0.53216 0.0
U86 U 0.58388 0.27525 0.56874 0.0
O87 O 0.55245 0.21602 0.5695 0.0
O88 O 0.61887 0.21883 0.56931 0.0
C89 C 0.58627 0.19556 0.56899 0.0
C90 C 0.58158 0.31644 0.54823 0.0
C91 C 0.58687 0.16209 0.56038 0.0
C92 C 0.57365 0.13437 0.54057 0.0
C93 C 0.57351 0.16715 0.54842 0.0
C94 C 0.6008 0.09136 0.55652 0.0
C95 C 0.58747 0.09612 0.54453 0.0
C96 C 0.60055 0.12402 0.56434 0.0
C97 C 0.58601 0.30505 0.6022 0.0
C98 C 0.57177 0.26111 0.61956 0.0
C99 C 0.60381 0.32673 0.62237 0.0
C100 C 0.60261 0.33402 0.60993 0.0
C101 C 0.58845 0.2902 0.62735 0.0
C102 C 0.57069 0.26841 0.60708 0.0
C103 C 0.58449 0.31429 0.58915 0.0
O104 O 0.6154 0.30455 0.55344 0.0
O105 O 0.54901 0.30224 0.55368 0.0
O106 O 0.55107 0.3037 0.58343 0.0
O107 O 0.61749 0.30658 0.58312 0.0
H108 H 0.58862 0.38353 0.56223 0.0
H109 H 0.58703 0.4549 0.55545 0.0
H110 H 0.57135 0.41682 0.51874 0.0
H111 H 0.57238 0.3458 0.52558 0.0
H112 H 0.56324 0.13897 0.53138 0.0
H113 H 0.56285 0.19632 0.54518 0.0
H114 H 0.61081 0.06215 0.55992 0.0
H115 H 0.61077 0.11944 0.57356 0.0
H116 H 0.55903 0.23298 0.62313 0.0
H117 H 0.6171 0.3496 0.6281 0.0
H118 H 0.61461 0.36247 0.60634 0.0
H119 H 0.55765 0.24563 0.60127 0.0
C120 C 1.00006 0.27332 0.79421 0.0
C121 C 0.96868 0.28071 0.8023 0.0
C122 C 0.91852 0.27375 0.78616 0.0
C123 C 0.92825 0.28085 0.79831 0.0
C124 C 0.95011 0.26574 0.77817 0.0
C125 C 0.99044 0.26564 0.78215 0.0
U126 U 0.08329 0.27582 0.81861 0.0
O127 O 0.14081 0.24295 0.81973 0.0
O128 O 0.14149 0.3094 0.81877 0.0
C129 C 0.16304 0.27622 0.81879 0.0
C130 C 0.04289 0.2737 0.79811 0.0
C131 C 0.19658 0.27567 0.81009 0.0
C132 C 0.22356 0.26117 0.79034 0.0
C133 C 0.19086 0.26195 0.79831 0.0
C134 C 0.2679 0.28805 0.8058 0.0
C135 C 0.26249 0.27433 0.79398 0.0
C136 C 0.23528 0.28875 0.81375 0.0
C137 C 0.05137 0.27924 0.85212 0.0
C138 C 0.08177 0.25188 0.87057 0.0
C139 C 1.0331 0.30586 0.87158 0.0
C140 C 1.02942 0.30632 0.85903 0.0
C141 C 0.0586 0.27799 0.87752 0.0
C142 C 0.07817 0.25243 0.85798 0.0
C143 C 0.04353 0.27794 0.83899 0.0
O144 O 0.05616 0.30744 0.80295 0.0
O145 O 0.05525 0.24102 0.80393 0.0
O146 O 0.05228 0.24414 0.83356 0.0
O147 O 0.05335 0.31066 0.83266 0.0
H148 H 0.9755 0.28657 0.81166 0.0
H149 H 0.9046 0.28708 0.80469 0.0
H150 H 0.94361 0.2592 0.76883 0.0
H151 H 1.01421 0.25957 0.7758 0.0
H152 H 0.21851 0.24971 0.78138 0.0
H153 H 0.16123 0.25162 0.79532 0.0
H154 H 0.29737 0.29859 0.80886 0.0
H155 H 0.24032 0.29947 0.8228 0.0
H156 H 0.10173 0.23014 0.87489 0.0
H157 H 1.01561 0.32705 0.87665 0.0
H158 H 1.00869 0.32737 0.85472 0.0
H159 H 0.09562 0.23128 0.85289 0.0
C160 C 0.0837 0.19417 1.0129 0.0
C161 C 0.07793 0.16307 1.0046 0.0
C162 C 0.086 0.11205 1.02063 0.0
C163 C 0.07895 0.12234 1.00844 0.0
C164 C 0.0916 0.14342 0.02889 0.0
C165 C 0.09052 0.18405 1.02505 0.0
U166 U 0.07768 0.27849 0.98865 0.0
O167 O 0.04249 0.33482 0.98845 0.0
O168 O 0.10884 0.33781 0.98759 0.0
C169 C 0.07505 0.35817 0.98844 0.0
C170 C 0.08221 0.23723 1.00911 0.0
C171 C 0.07538 0.39185 0.99699 0.0
C172 C 0.09289 0.42083 1.01636 0.0
C173 C 0.09167 0.38764 1.00866 0.0
C174 C 0.0609 0.46243 1.00091 0.0
C175 C 0.07799 0.45877 1.01251 0.0
C176 C 0.05973 0.42935 0.99324 0.0
C177 C 0.07177 0.24834 0.95517 0.0
C178 C 0.09052 0.28704 0.9371 0.0
C179 C 0.04508 0.22911 0.93559 0.0
C180 C 0.04778 0.22272 0.94805 0.0
C181 C 0.06633 0.26138 0.92997 0.0
C182 C 0.09307 0.28072 0.94961 0.0
C183 C 0.0749 0.23952 0.96824 0.0
O184 O 0.11417 0.2515 1.00337 0.0
O185 O 0.04786 0.24915 1.00424 0.0
O186 O 0.04257 0.24701 0.9746 0.0
O187 O 0.10892 0.25016 0.97364 0.0
H188 H 0.07259 0.1703 0.99517 0.0
H189 H 0.07457 0.09886 1.00187 0.0
H190 H 0.09623 0.13656 0.03837 0.0
H191 H 0.09479 0.20763 0.0316 0.0
H192 H 0.10616 0.41704 1.02526 0.0
H193 H 0.10377 0.35889 1.01176 0.0
H194 H 0.04825 0.49089 0.99777 0.0
H195 H 0.04677 0.43315 0.9843 0.0
H196 H 0.10721 0.31213 0.933 0.0
H197 H 1.02687 0.20834 0.93032 0.0
H198 H 1.03136 0.19738 0.95213 0.0
H199 H 0.11181 0.30096 0.9549 0.0
C200 C 0.16581 0.77533 0.26291 0.0
C201 C 0.1974 0.77483 0.25453 0.0
C202 C 0.24746 0.77702 0.27082 0.0
C203 C 0.23789 0.77555 0.25846 0.0
C204 C 0.21561 0.77704 0.27915 0.0
C205 C 0.1752 0.77629 0.27522 0.0
U206 U 0.08337 0.77532 0.23835 0.0
O207 O 1.02477 0.74285 0.23769 0.0
O208 O 1.02638 0.80933 0.23724 0.0
C209 C 1.00367 0.77634 0.2378 0.0
C210 C 0.12301 0.77527 0.25899 0.0
C211 C 0.96944 0.77683 0.24626 0.0
C212 C 0.94008 0.76352 0.266 0.0
C213 C 0.97366 0.76405 0.25833 0.0
C214 C 0.898 0.78918 0.24968 0.0
C215 C 0.90173 0.77561 0.26171 0.0
C216 C 0.93148 0.78966 0.24204 0.0
C217 C 0.11585 0.77534 0.20507 0.0
C218 C 0.07039 0.78492 0.18793 0.0
C219 C 0.1412 0.77073 0.18467 0.0
C220 C 0.14775 0.76887 0.19712 0.0
C221 C 0.10258 0.77928 0.17991 0.0
C222 C 0.07698 0.78301 0.20041 0.0
C223 C 0.1242 0.77488 0.21812 0.0
O224 O 0.11085 0.80848 0.25342 0.0
O225 O 0.1098 0.74205 0.25384 0.0
O226 O 0.11343 0.74172 0.22408 0.0
O227 O 0.1154 0.80817 0.22379 0.0
H228 H 0.19072 0.77409 0.24498 0.0
H229 H 0.26175 0.77552 0.25183 0.0
H230 H 0.22193 0.77726 0.28873 0.0
H231 H 0.15123 0.77648 0.28182 0.0
H232 H 0.94394 0.75299 0.27523 0.0
H233 H 1.00276 0.75416 0.26179 0.0
H234 H 0.86919 0.79965 0.24618 0.0
H235 H 0.92766 0.79989 0.23278 0.0
H236 H 0.04013 0.79079 0.18454 0.0
H237 H 0.16661 0.76639 0.17875 0.0
H238 H 0.17796 0.76288 0.20055 0.0
H239 H 0.0519 0.78784 0.20642 0.0
C240 C 0.58164 0.69351 0.51259 0.0
C241 C 0.57665 0.66279 0.50413 0.0
C242 C 0.58015 0.61115 0.52014 0.0
C243 C 0.57596 0.62196 0.50787 0.0
C244 C 0.58566 0.6421 0.52854 0.0
C245 C 0.5863 0.68287 0.52479 0.0
U246 U 0.57826 0.77798 0.4884 0.0
O247 O 0.54459 0.83522 0.48813 0.0
O248 O 0.61097 0.83649 0.48734 0.0
C249 C 0.57773 0.85774 0.48816 0.0
C250 C 0.58155 0.73668 0.50888 0.0
C251 C 0.57884 0.89119 0.49678 0.0
C252 C 0.59472 0.9184 0.51649 0.0
C253 C 0.59307 0.88566 0.50863 0.0
C254 C 0.56736 0.9623 0.50079 0.0
C255 C 0.58217 0.9572 0.51262 0.0
C256 C 0.56582 0.92965 0.49296 0.0
C257 C 0.57155 0.74748 0.45497 0.0
C258 C 0.58869 0.78753 0.43702 0.0
C259 C 0.5467 0.72715 0.4353 0.0
C260 C 0.54934 0.72067 0.44775 0.0
C261 C 0.56621 0.76071 0.42979 0.0
C262 C 0.59117 0.78111 0.44952 0.0
C263 C 0.57446 0.73879 0.46804 0.0
O264 O 0.61391 0.75 0.50315 0.0
O265 O 0.5476 0.74968 0.50401 0.0
O266 O 0.54235 0.74729 0.47438 0.0
O267 O 0.60873 0.74871 0.47341 0.0
H268 H 0.57321 0.67042 0.49465 0.0
H269 H 0.5725 0.59883 0.50115 0.0
H270 H 0.58888 0.63478 0.53804 0.0
H271 H 0.59019 0.70616 0.53146 0.0
H272 H 0.60553 0.91331 0.52561 0.0
H273 H 0.603 0.85612 0.51179 0.0
H274 H 0.55756 0.99177 0.49753 0.0
H275 H 0.55469 0.93454 0.48385 0.0
H276 H 0.60402 0.81363 0.433 0.0
H277 H 0.52985 0.70551 0.42995 0.0
H278 H 0.53422 0.69439 0.45175 0.0
H279 H 0.60851 0.80227 0.45491 0.0
C280 C 0.6673 0.27093 0.76233 0.0
C281 C 0.69814 0.26415 0.75401 0.0
C282 C 0.74951 0.27269 0.76974 0.0
C283 C 0.73888 0.2649 0.75769 0.0
C284 C 0.7184 0.2793 0.77802 0.0
C285 C 0.67772 0.27849 0.77433 0.0
U286 U 0.58356 0.26876 0.73821 0.0
O287 O 0.52567 0.23461 0.73789 0.0
O288 O 0.52575 0.30109 0.73721 0.0
C289 C 0.50381 0.26758 0.73795 0.0
C290 C 0.62423 0.27015 0.75866 0.0
C291 C 0.46974 0.2675 0.74647 0.0
C292 C 0.44079 0.28267 0.76592 0.0
C293 C 0.47428 0.28168 0.75824 0.0
C294 C 0.39816 0.25463 0.75024 0.0
C295 C 0.40221 0.26963 0.76195 0.0
C296 C 0.43155 0.2537 0.74258 0.0
C297 C 0.61505 0.26816 0.70478 0.0
C298 C 0.5708 0.28046 0.68749 0.0
C299 C 0.63962 0.25851 0.68449 0.0
C300 C 0.64602 0.25753 0.69695 0.0
C301 C 0.60196 0.27001 0.6796 0.0
C302 C 0.57723 0.27939 0.69999 0.0
C303 C 0.62356 0.26852 0.71783 0.0
O304 O 0.61118 0.30298 0.75307 0.0
O305 O 0.6112 0.23655 0.75368 0.0
O306 O 0.61388 0.23533 0.72394 0.0
O307 O 0.6141 0.3018 0.7234 0.0
H308 H 0.69069 0.25813 0.7447 0.0
H309 H 0.76202 0.25888 0.75114 0.0
H310 H 0.72556 0.28554 0.78733 0.0
H311 H 0.65435 0.28383 0.78088 0.0
H312 H 0.44489 0.29431 0.7749 0.0
H313 H 0.50355 0.29235 0.76144 0.0
H314 H 0.36915 0.24343 0.747 0.0
H315 H 0.42747 0.24238 0.73356 0.0
H316 H 0.54149 0.28949 0.68399 0.0
H317 H 0.66453 0.25125 0.67867 0.0
H318 H 0.6755 0.24904 0.70047 0.0
H319 H 0.55291 0.28772 0.7059 0.0
C320 C 0.06705 0.49088 0.03255 0.0
C321 C 0.08012 0.49445 1.02055 0.0
C322 C 0.06813 0.52426 0.04021 0.0
C323 C 0.08239 0.56261 0.03619 0.0
H324 H 0.05531 0.46217 0.03602 0.0
H325 H 0.05722 0.52011 0.04932 0.0
S326 S 0.12355 0.58715 1.00589 0.0
N327 N 0.11003 0.53888 1.00523 0.0
N328 N 0.11213 0.60144 1.01959 0.0
C329 C 0.09616 0.56641 1.02426 0.0
C330 C 0.09503 0.53244 1.01647 0.0
C331 C 0.8682 0.79087 0.28133 0.0
C332 C 0.86574 0.77433 0.26977 0.0
C333 C 0.83452 0.79059 0.28898 0.0
C334 C 0.79697 0.77373 0.2854 0.0
H335 H 0.89625 0.80469 0.28443 0.0
H336 H 0.8378 0.80418 0.29773 0.0
S337 S 0.77552 0.72331 0.25645 0.0
N338 N 0.82326 0.73849 0.25539 0.0
N339 N 0.76012 0.73796 0.26975 0.0
C340 C 0.79428 0.75654 0.27393 0.0
C341 C 0.82856 0.75683 0.26614 0.0
C342 C 0.60826 0.51214 0.53625 0.0
C343 C 0.57798 0.48476 0.5324 0.0
C344 C 0.60876 0.55281 0.53224 0.0
C345 C 0.57899 0.56778 0.52422 0.0
H346 H 0.63216 0.50191 0.54227 0.0
H347 H 0.63299 0.57258 0.53534 0.0
S348 S 0.49098 0.50953 0.51232 0.0
N349 N 0.51606 0.47621 0.52067 0.0
N350 N 0.51699 0.55249 0.51317 0.0
C351 C 0.54816 0.5409 0.52046 0.0
C352 C 0.54765 0.4995 0.52454 0.0
C353 C 0.8453 0.25278 0.78827 0.0
C354 C 0.87556 0.27432 0.78186 0.0
C355 C 0.80478 0.25239 0.7843 0.0
C356 C 0.7928 0.27355 0.77374 0.0
H357 H 0.8531 0.23557 0.79635 0.0
H358 H 0.78271 0.23493 0.78945 0.0
S359 S 0.85958 0.33764 0.75428 0.0
N360 N 0.89023 0.31932 0.76481 0.0
N361 N 0.81422 0.31862 0.75736 0.0
C362 C 0.82264 0.29573 0.76735 0.0
C363 C 0.8639 0.29612 0.7714 0.0
C364 C 0.3685 0.25637 0.7819 0.0
C365 C 0.36629 0.27152 0.76998 0.0
C366 C 0.33486 0.25728 0.78955 0.0
C367 C 0.29761 0.27342 0.78561 0.0
H368 H 0.39631 0.24316 0.78529 0.0
H369 H 0.33794 0.24478 0.7986 0.0
S370 S 0.27697 0.32023 0.75558 0.0
N371 N 0.32441 0.3053 0.75484 0.0
N372 N 0.26137 0.30705 0.7692 0.0
C373 C 0.29518 0.28922 0.77378 0.0
C374 C 0.32942 0.28828 0.76598 0.0
C375 C 0.31854 0.75057 0.27053 0.0
C376 C 0.29052 0.77815 0.27501 0.0
C377 C 0.35911 0.75072 0.27447 0.0
C378 C 0.37334 0.77847 0.28305 0.0
H379 H 0.30891 0.72829 0.26404 0.0
H380 H 0.37939 0.72857 0.27086 0.0
S381 S 0.31314 0.85933 0.2968 0.0
N382 N 0.28051 0.83551 0.28799 0.0
N383 N 0.35661 0.8358 0.29537 0.0
C384 C 0.34578 0.8066 0.28747 0.0
C385 C 0.30448 0.80645 0.28346 0.0
C386 C 0.55077 1.01798 0.52194 0.0
C387 C 0.58431 0.99242 0.52083 0.0
C388 C 0.55216 0.05157 0.52951 0.0
C389 C 0.58715 0.061 0.53628 0.0
H390 H 0.52299 1.01168 0.51702 0.0
H391 H 0.52537 0.06994 0.53021 0.0
S392 S 0.68443 1.006 0.53575 0.0
N393 N 0.65436 0.9804 0.5266 0.0
N394 N 0.65698 0.04339 0.5408 0.0
C395 C 0.62113 0.0361 0.53509 0.0
C396 C 0.6197 1.00189 0.52739 0.0
C397 C 0.05525 1.00104 1.0253 0.0
C398 C 0.08597 0.98573 0.03293 0.0
C399 C 0.05565 0.04171 1.0213 0.0
C400 C 0.08677 0.06876 1.02477 0.0
H401 H 1.03037 0.98154 1.02252 0.0
H402 H 1.03101 0.05223 1.0156 0.0
S403 S 0.1763 0.04299 0.0437 0.0
N404 N 0.14968 1.00031 0.04318 0.0
N405 N 0.15043 0.0766 0.03568 0.0
C406 C 0.11804 0.05367 0.03222 0.0
C407 C 0.11763 1.01227 0.03629 0.0
C408 C 0.11186 0.75358 0.15897 0.0
C409 C 0.09656 0.78315 0.16662 0.0
C410 C 0.1087 0.75777 0.14639 0.0
C411 C 0.0905 0.79193 0.14095 0.0
H412 H 0.12667 0.72707 0.16274 0.0
H413 H 0.12159 0.73462 0.14087 0.0
S414 S 0.04444 0.87737 0.15692 0.0
N415 N 0.06186 0.84742 0.1678 0.0
N416 N 0.05536 0.85497 0.14422 0.0
C417 C 0.07432 0.82128 0.1485 0.0
C418 C 0.07742 0.81695 0.1613 0.0
C419 C 0.59883 0.77281 0.40963 0.0
C420 C 0.56347 0.76716 0.4165 0.0
C421 C 0.59694 0.77666 0.39701 0.0
C422 C 0.55959 0.77557 0.39079 0.0
H423 H 0.62824 0.77339 0.41402 0.0
H424 H 0.62493 0.78066 0.39208 0.0
S425 S 0.45815 0.76237 0.40463 0.0
N426 N 0.48999 0.76168 0.41617 0.0
N427 N 0.48643 0.76842 0.39252 0.0
C428 C 0.52401 0.77045 0.39759 0.0
C429 C 0.52596 0.76634 0.4104 0.0
C430 C 0.57737 0.31359 0.64844 0.0
C431 C 0.58981 0.28305 0.64065 0.0
C432 C 0.58027 0.30863 0.66099 0.0
C433 C 0.59605 0.27305 0.66629 0.0
H434 H 0.56548 0.34174 0.64479 0.0
H435 H 0.57114 0.33335 0.66658 0.0
S436 S 0.6314 0.18324 0.65 0.0
N437 N 0.61772 0.21555 0.63922 0.0
N438 N 0.62253 0.20597 0.66279 0.0
C439 C 0.60775 0.2419 0.65864 0.0
C440 C 0.6047 0.24691 0.64585 0.0
C441 C 0.09923 0.271 0.90975 0.0
C442 C 0.06374 0.26758 0.91666 0.0
C443 C 0.0974 0.27448 0.89713 0.0
C444 C 0.05999 0.27521 0.89094 0.0
H445 H 0.12867 0.27009 0.91412 0.0
H446 H 0.12548 0.27669 0.89217 0.0
S447 S 0.95825 0.26826 0.90488 0.0
N448 N 0.99013 0.26624 0.9164 0.0
N449 N 0.98662 0.27224 0.89274 0.0
C450 C 1.0243 0.27237 0.89777 0.0
C451 C 1.02619 0.26865 0.9106 0.0
loop_
_geom_bond_atom_site_label_1
_geom_bond_atom_site_label_2
_geom_bond_distance
_geom_bond_site_symmetry_2
_ccdc_geom_bond_type
C0 C1 1.264 . S
C0 C5 1.479 . S
C0 C10 1.465 . S
C1 C0 1.264 . S
C1 C3 1.339 . S
C1 H28 0.931 . S
C2 C3 1.395 . S
C2 C4 1.320 . S
C3 C1 1.339 . S
C3 C2 1.395 . S
C3 H29 0.929 . S
C4 C2 1.320 . S
C4 C5 1.405 . S
C4 H30 0.930 1_554 S
C5 C0 1.479 . S
C5 C4 1.405 . S
C5 H31 0.931 . S
U6 O7 2.454 . S
U6 O8 2.458 . S
U6 C9 2.984 . S
U6 C10 2.847 . S
U6 C23 2.882 . S
U6 O24 2.441 . S
U6 O25 2.420 . S
U6 O26 2.455 . S
U6 O27 2.449 . S
O7 U6 2.454 . S
O7 C9 1.353 . S
O8 U6 2.458 . S
O8 C9 1.286 . S
C9 U6 2.984 . S
C9 O7 1.353 . S
C9 O8 1.286 . S
C9 C11 1.363 . S
C10 C0 1.465 . S
C10 U6 2.847 . S
C10 O24 1.249 . S
C10 O25 1.202 . S
C11 C9 1.363 . S
C11 C13 1.408 . S
C11 C16 1.342 . S
C12 C13 1.310 . S
C12 C15 1.461 . S
C12 H32 0.932 1_554 S
C13 C11 1.408 . S
C13 C12 1.310 . S
C13 H33 0.930 . S
C14 C15 1.474 . S
C14 C16 1.285 . S
C14 H34 0.929 . S
C15 C12 1.461 . S
C15 C14 1.474 . S
C16 C11 1.342 . S
C16 C14 1.285 . S
C16 H35 0.930 . S
C17 C20 1.424 . S
C17 C22 1.245 . S
C17 C23 1.428 . S
C18 C21 1.260 . S
C18 C22 1.477 . S
C18 H36 0.932 . S
C19 C20 1.384 . S
C19 C21 1.479 . S
C19 H37 0.929 . S
C20 C17 1.424 . S
C20 C19 1.384 . S
C20 H38 0.928 . S
C21 C18 1.260 . S
C21 C19 1.479 . S
C22 C17 1.245 . S
C22 C18 1.477 . S
C22 H39 0.932 . S
C23 U6 2.882 . S
C23 C17 1.428 . S
C23 O26 1.301 . S
C23 O27 1.282 . S
O24 U6 2.441 . S
O24 C10 1.249 . S
O25 U6 2.420 . S
O25 C10 1.202 . S
O26 U6 2.455 . S
O26 C23 1.301 . S
O27 U6 2.449 . S
O27 C23 1.282 . S
H28 C1 0.931 . S
H29 C3 0.929 . S
H30 C4 0.930 1_556 S
H31 C5 0.931 . S
H32 C12 0.932 1_556 S
H33 C13 0.930 . S
H34 C14 0.929 . S
H35 C16 0.930 . S
H36 C18 0.932 . S
H37 C19 0.929 . S
H38 C20 0.928 . S
H39 C22 0.932 . S
C40 C41 1.264 . S
C40 C45 1.479 . S
C40 C50 1.465 . S
C41 C40 1.264 . S
C41 C43 1.339 . S
C41 H68 0.931 . S
C42 C43 1.395 . S
C42 C44 1.320 . S
C43 C41 1.339 . S
C43 C42 1.395 . S
C43 H69 0.929 . S
C44 C42 1.320 . S
C44 C45 1.405 . S
C44 H70 0.930 . S
C45 C40 1.479 . S
C45 C44 1.405 . S
C45 H71 0.931 . S
U46 O47 2.454 . S
U46 O48 2.458 . S
U46 C49 2.984 . S
U46 C50 2.847 . S
U46 C63 2.882 . S
U46 O64 2.441 . S
U46 O65 2.420 . S
U46 O66 2.455 . S
U46 O67 2.449 . S
O47 U46 2.454 . S
O47 C49 1.353 . S
O48 U46 2.458 . S
O48 C49 1.286 . S
C49 U46 2.984 . S
C49 O47 1.353 . S
C49 O48 1.286 . S
C49 C51 1.363 . S
C50 C40 1.465 . S
C50 U46 2.847 . S
C50 O64 1.249 . S
C50 O65 1.202 . S
C51 C49 1.363 . S
C51 C53 1.408 . S
C51 C56 1.342 . S
C52 C53 1.310 . S
C52 C55 1.461 . S
C52 H72 0.932 . S
C53 C51 1.408 . S
C53 C52 1.310 . S
C53 H73 0.930 . S
C54 C55 1.474 . S
C54 C56 1.285 . S
C54 H74 0.929 . S
C55 C52 1.461 . S
C55 C54 1.474 . S
C56 C51 1.342 . S
C56 C54 1.285 . S
C56 H75 0.930 . S
C57 C60 1.424 . S
C57 C62 1.245 . S
C57 C63 1.428 . S
C58 C61 1.260 . S
C58 C62 1.477 . S
C58 H76 0.932 . S
C59 C60 1.384 . S
C59 C61 1.479 . S
C59 H77 0.929 . S
C60 C57 1.424 . S
C60 C59 1.384 . S
C60 H78 0.928 . S
C61 C58 1.260 . S
C61 C59 1.479 . S
C62 C57 1.245 . S
C62 C58 1.477 . S
C62 H79 0.932 . S
C63 U46 2.882 . S
C63 C57 1.428 . S
C63 O66 1.301 . S
C63 O67 1.282 . S
O64 U46 2.441 . S
O64 C50 1.249 . S
O65 U46 2.420 . S
O65 C50 1.202 . S
O66 U46 2.455 . S
O66 C63 1.301 . S
O67 U46 2.449 . S
O67 C63 1.282 . S
H68 C41 0.931 . S
H69 C43 0.929 . S
H70 C44 0.930 . S
H71 C45 0.931 . S
H72 C52 0.932 . S
H73 C53 0.930 . S
H74 C54 0.929 . S
H75 C56 0.930 . S
H76 C58 0.932 . S
H77 C59 0.929 . S
H78 C60 0.928 . S
H79 C62 0.932 . S
C80 C81 1.264 . S
C80 C85 1.479 . S
C80 C90 1.465 . S
C81 C80 1.264 . S
C81 C83 1.339 . S
C81 H108 0.931 . S
C82 C83 1.395 . S
C82 C84 1.320 . S
C83 C81 1.339 . S
C83 C82 1.395 . S
C83 H109 0.929 . S
C84 C82 1.320 . S
C84 C85 1.405 . S
C84 H110 0.930 . S
C85 C80 1.479 . S
C85 C84 1.405 . S
C85 H111 0.931 . S
U86 O87 2.454 . S
U86 O88 2.458 . S
U86 C89 2.984 . S
U86 C90 2.847 . S
U86 C103 2.882 . S
U86 O104 2.441 . S
U86 O105 2.420 . S
U86 O106 2.455 . S
U86 O107 2.449 . S
O87 U86 2.454 . S
O87 C89 1.353 . S
O88 U86 2.458 . S
O88 C89 1.286 . S
C89 U86 2.984 . S
C89 O87 1.353 . S
C89 O88 1.286 . S
C89 C91 1.363 . S
C90 C80 1.465 . S
C90 U86 2.847 . S
C90 O104 1.249 . S
C90 O105 1.202 . S
C91 C89 1.363 . S
C91 C93 1.408 . S
C91 C96 1.342 . S
C92 C93 1.310 . S
C92 C95 1.461 . S
C92 H112 0.932 . S
C93 C91 1.408 . S
C93 C92 1.310 . S
C93 H113 0.930 . S
C94 C95 1.474 . S
C94 C96 1.285 . S
C94 H114 0.929 . S
C95 C92 1.461 . S
C95 C94 1.474 . S
C96 C91 1.342 . S
C96 C94 1.285 . S
C96 H115 0.930 . S
C97 C100 1.424 . S
C97 C102 1.245 . S
C97 C103 1.428 . S
C98 C101 1.260 . S
C98 C102 1.477 . S
C98 H116 0.932 . S
C99 C100 1.384 . S
C99 C101 1.479 . S
C99 H117 0.929 . S
C100 C97 1.424 . S
C100 C99 1.384 . S
C100 H118 0.928 . S
C101 C98 1.260 . S
C101 C99 1.479 . S
C102 C97 1.245 . S
C102 C98 1.477 . S
C102 H119 0.932 . S
C103 U86 2.882 . S
C103 C97 1.428 . S
C103 O106 1.301 . S
C103 O107 1.282 . S
O104 U86 2.441 . S
O104 C90 1.249 . S
O105 U86 2.420 . S
O105 C90 1.202 . S
O106 U86 2.455 . S
O106 C103 1.301 . S
O107 U86 2.449 . S
O107 C103 1.282 . S
H108 C81 0.931 . S
H109 C83 0.929 . S
H110 C84 0.930 . S
H111 C85 0.931 . S
H112 C92 0.932 . S
H113 C93 0.930 . S
H114 C94 0.929 . S
H115 C96 0.930 . S
H116 C98 0.932 . S
H117 C99 0.929 . S
H118 C100 0.928 . S
H119 C102 0.932 . S
C120 C121 1.264 . S
C120 C125 1.479 . S
C120 C130 1.465 . S
C121 C120 1.264 . S
C121 C123 1.339 . S
C121 H148 0.931 . S
C122 C123 1.395 . S
C122 C124 1.320 . S
C123 C121 1.339 . S
C123 C122 1.395 . S
C123 H149 0.929 . S
C124 C122 1.320 . S
C124 C125 1.405 . S
C124 H150 0.930 . S
C125 C120 1.479 . S
C125 C124 1.405 . S
C125 H151 0.931 . S
U126 O127 2.454 . S
U126 O128 2.458 . S
U126 C129 2.984 . S
U126 C130 2.847 1_455 S
U126 C143 2.882 . S
U126 O144 2.441 . S
U126 O145 2.420 1_455 S
U126 O146 2.455 . S
U126 O147 2.449 . S
O127 U126 2.454 . S
O127 C129 1.353 . S
O128 U126 2.458 . S
O128 C129 1.286 . S
C129 U126 2.984 . S
C129 O127 1.353 . S
C129 O128 1.286 . S
C129 C131 1.363 . S
C130 C120 1.465 . S
C130 U126 2.847 1_655 S
C130 O144 1.249 1_655 S
C130 O145 1.202 . S
C131 C129 1.363 . S
C131 C133 1.408 . S
C131 C136 1.342 . S
C132 C133 1.310 . S
C132 C135 1.461 . S
C132 H152 0.932 . S
C133 C131 1.408 . S
C133 C132 1.310 . S
C133 H153 0.930 . S
C134 C135 1.474 . S
C134 C136 1.285 . S
C134 H154 0.929 . S
C135 C132 1.461 . S
C135 C134 1.474 . S
C136 C131 1.342 . S
C136 C134 1.285 . S
C136 H155 0.930 . S
C137 C140 1.424 . S
C137 C142 1.245 . S
C137 C143 1.428 . S
C138 C141 1.260 . S
C138 C142 1.477 . S
C138 H156 0.932 . S
C139 C140 1.384 . S
C139 C141 1.479 . S
C139 H157 0.929 1_455 S
C140 C137 1.424 . S
C140 C139 1.384 . S
C140 H158 0.928 1_455 S
C141 C138 1.260 . S
C141 C139 1.479 . S
C142 C137 1.245 . S
C142 C138 1.477 . S
C142 H159 0.932 . S
C143 U126 2.882 . S
C143 C137 1.428 . S
C143 O146 1.301 . S
C143 O147 1.282 . S
O144 U126 2.441 . S
O144 C130 1.249 1_455 S
O145 U126 2.420 1_655 S
O145 C130 1.202 . S
O146 U126 2.455 . S
O146 C143 1.301 . S
O147 U126 2.449 . S
O147 C143 1.282 . S
H148 C121 0.931 . S
H149 C123 0.929 . S
H150 C124 0.930 . S
H151 C125 0.931 . S
H152 C132 0.932 . S
H153 C133 0.930 . S
H154 C134 0.929 . S
H155 C136 0.930 . S
H156 C138 0.932 . S
H157 C139 0.929 1_655 S
H158 C140 0.928 1_655 S
H159 C142 0.932 . S
C160 C161 1.264 . S
C160 C165 1.479 . S
C160 C170 1.465 . S
C161 C160 1.264 . S
C161 C163 1.339 . S
C161 H188 0.931 . S
C162 C163 1.395 . S
C162 C164 1.320 . S
C163 C161 1.339 . S
C163 C162 1.395 . S
C163 H189 0.929 . S
C164 C162 1.320 . S
C164 C165 1.405 . S
C164 H190 0.930 1_556 S
C165 C160 1.479 . S
C165 C164 1.405 . S
C165 H191 0.931 . S
U166 O167 2.454 . S
U166 O168 2.458 . S
U166 C169 2.984 . S
U166 C170 2.847 . S
U166 C183 2.882 . S
U166 O184 2.441 . S
U166 O185 2.420 . S
U166 O186 2.455 . S
U166 O187 2.449 . S
O167 U166 2.454 . S
O167 C169 1.353 . S
O168 U166 2.458 . S
O168 C169 1.286 . S
C169 U166 2.984 . S
C169 O167 1.353 . S
C169 O168 1.286 . S
C169 C171 1.363 . S
C170 C160 1.465 . S
C170 U166 2.847 . S
C170 O184 1.249 . S
C170 O185 1.202 . S
C171 C169 1.363 . S
C171 C173 1.408 . S
C171 C176 1.342 . S
C172 C173 1.310 . S
C172 C175 1.461 . S
C172 H192 0.932 1_556 S
C173 C171 1.408 . S
C173 C172 1.310 . S
C173 H193 0.930 . S
C174 C175 1.474 . S
C174 C176 1.285 . S
C174 H194 0.929 . S
C175 C172 1.461 . S
C175 C174 1.474 . S
C176 C171 1.342 . S
C176 C174 1.285 . S
C176 H195 0.930 . S
C177 C180 1.424 . S
C177 C182 1.245 . S
C177 C183 1.428 . S
C178 C181 1.260 . S
C178 C182 1.477 . S
C178 H196 0.932 . S
C179 C180 1.384 . S
C179 C181 1.479 . S
C179 H197 0.929 . S
C180 C177 1.424 . S
C180 C179 1.384 . S
C180 H198 0.928 . S
C181 C178 1.260 . S
C181 C179 1.479 . S
C182 C177 1.245 . S
C182 C178 1.477 . S
C182 H199 0.932 . S
C183 U166 2.882 . S
C183 C177 1.428 . S
C183 O186 1.301 . S
C183 O187 1.282 . S
O184 U166 2.441 . S
O184 C170 1.249 . S
O185 U166 2.420 . S
O185 C170 1.202 . S
O186 U166 2.455 . S
O186 C183 1.301 . S
O187 U166 2.449 . S
O187 C183 1.282 . S
H188 C161 0.931 . S
H189 C163 0.929 . S
H190 C164 0.930 1_554 S
H191 C165 0.931 . S
H192 C172 0.932 1_554 S
H193 C173 0.930 . S
H194 C174 0.929 . S
H195 C176 0.930 . S
H196 C178 0.932 . S
H197 C179 0.929 . S
H198 C180 0.928 . S
H199 C182 0.932 . S
C200 C201 1.264 . S
C200 C205 1.479 . S
C200 C210 1.465 . S
C201 C200 1.264 . S
C201 C203 1.339 . S
C201 H228 0.931 . S
C202 C203 1.395 . S
C202 C204 1.320 . S
C203 C201 1.339 . S
C203 C202 1.395 . S
C203 H229 0.929 . S
C204 C202 1.320 . S
C204 C205 1.405 . S
C204 H230 0.930 . S
C205 C200 1.479 . S
C205 C204 1.405 . S
C205 H231 0.931 . S
U206 O207 2.454 . S
U206 O208 2.458 1_455 S
U206 C209 2.984 1_455 S
U206 C210 2.847 . S
U206 C223 2.882 . S
U206 O224 2.441 . S
U206 O225 2.420 . S
U206 O226 2.455 . S
U206 O227 2.449 . S
O207 U206 2.454 . S
O207 C209 1.353 1_455 S
O208 U206 2.458 1_655 S
O208 C209 1.286 . S
C209 U206 2.984 1_655 S
C209 O207 1.353 1_655 S
C209 O208 1.286 . S
C209 C211 1.363 . S
C210 C200 1.465 . S
C210 U206 2.847 . S
C210 O224 1.249 . S
C210 O225 1.202 . S
C211 C209 1.363 . S
C211 C213 1.408 . S
C211 C216 1.342 . S
C212 C213 1.310 . S
C212 C215 1.461 . S
C212 H232 0.932 . S
C213 C211 1.408 . S
C213 C212 1.310 . S
C213 H233 0.930 . S
C214 C215 1.474 . S
C214 C216 1.285 . S
C214 H234 0.929 . S
C215 C212 1.461 . S
C215 C214 1.474 . S
C216 C211 1.342 . S
C216 C214 1.285 . S
C216 H235 0.930 . S
C217 C220 1.424 . S
C217 C222 1.245 . S
C217 C223 1.428 . S
C218 C221 1.260 . S
C218 C222 1.477 . S
C218 H236 0.932 . S
C219 C220 1.384 . S
C219 C221 1.479 . S
C219 H237 0.929 . S
C220 C217 1.424 . S
C220 C219 1.384 . S
C220 H238 0.928 . S
C221 C218 1.260 . S
C221 C219 1.479 . S
C222 C217 1.245 . S
C222 C218 1.477 . S
C222 H239 0.932 1_455 S
C223 U206 2.882 . S
C223 C217 1.428 . S
C223 O226 1.301 . S
C223 O227 1.282 . S
O224 U206 2.441 . S
O224 C210 1.249 . S
O225 U206 2.420 . S
O225 C210 1.202 . S
O226 U206 2.455 . S
O226 C223 1.301 . S
O227 U206 2.449 . S
O227 C223 1.282 . S
H228 C201 0.931 . S
H229 C203 0.929 . S
H230 C204 0.930 . S
H231 C205 0.931 . S
H232 C212 0.932 . S
H233 C213 0.930 . S
H234 C214 0.929 . S
H235 C216 0.930 . S
H236 C218 0.932 . S
H237 C219 0.929 . S
H238 C220 0.928 . S
H239 C222 0.932 1_655 S
C240 C241 1.264 . S
C240 C245 1.479 . S
C240 C250 1.465 . S
C241 C240 1.264 . S
C241 C243 1.339 . S
C241 H268 0.931 . S
C242 C243 1.395 . S
C242 C244 1.320 . S
C243 C241 1.339 . S
C243 C242 1.395 . S
C243 H269 0.929 . S
C244 C242 1.320 . S
C244 C245 1.405 . S
C244 H270 0.930 . S
C245 C240 1.479 . S
C245 C244 1.405 . S
C245 H271 0.931 . S
U246 O247 2.454 . S
U246 O248 2.458 . S
U246 C249 2.984 . S
U246 C250 2.847 . S
U246 C263 2.882 . S
U246 O264 2.441 . S
U246 O265 2.420 . S
U246 O266 2.455 . S
U246 O267 2.449 . S
O247 U246 2.454 . S
O247 C249 1.353 . S
O248 U246 2.458 . S
O248 C249 1.286 . S
C249 U246 2.984 . S
C249 O247 1.353 . S
C249 O248 1.286 . S
C249 C251 1.363 . S
C250 C240 1.465 . S
C250 U246 2.847 . S
C250 O264 1.249 . S
C250 O265 1.202 . S
C251 C249 1.363 . S
C251 C253 1.408 . S
C251 C256 1.342 . S
C252 C253 1.310 . S
C252 C255 1.461 . S
C252 H272 0.932 . S
C253 C251 1.408 . S
C253 C252 1.310 . S
C253 H273 0.930 . S
C254 C255 1.474 . S
C254 C256 1.285 . S
C254 H274 0.929 . S
C255 C252 1.461 . S
C255 C254 1.474 . S
C256 C251 1.342 . S
C256 C254 1.285 . S
C256 H275 0.930 . S
C257 C260 1.424 . S
C257 C262 1.245 . S
C257 C263 1.428 . S
C258 C261 1.260 . S
C258 C262 1.477 . S
C258 H276 0.932 . S
C259 C260 1.384 . S
C259 C261 1.479 . S
C259 H277 0.929 . S
C260 C257 1.424 . S
C260 C259 1.384 . S
C260 H278 0.928 . S
C261 C258 1.260 . S
C261 C259 1.479 . S
C262 C257 1.245 . S
C262 C258 1.477 . S
C262 H279 0.932 . S
C263 U246 2.882 . S
C263 C257 1.428 . S
C263 O266 1.301 . S
C263 O267 1.282 . S
O264 U246 2.441 . S
O264 C250 1.249 . S
O265 U246 2.420 . S
O265 C250 1.202 . S
O266 U246 2.455 . S
O266 C263 1.301 . S
O267 U246 2.449 . S
O267 C263 1.282 . S
H268 C241 0.931 . S
H269 C243 0.929 . S
H270 C244 0.930 . S
H271 C245 0.931 . S
H272 C252 0.932 . S
H273 C253 0.930 . S
H274 C254 0.929 . S
H275 C256 0.930 . S
H276 C258 0.932 . S
H277 C259 0.929 . S
H278 C260 0.928 . S
H279 C262 0.932 . S
C280 C281 1.264 . S
C280 C285 1.479 . S
C280 C290 1.465 . S
C281 C280 1.264 . S
C281 C283 1.339 . S
C281 H308 0.931 . S
C282 C283 1.395 . S
C282 C284 1.320 . S
C283 C281 1.339 . S
C283 C282 1.395 . S
C283 H309 0.929 . S
C284 C282 1.320 . S
C284 C285 1.405 . S
C284 H310 0.930 . S
C285 C280 1.479 . S
C285 C284 1.405 . S
C285 H311 0.931 . S
U286 O287 2.454 . S
U286 O288 2.458 . S
U286 C289 2.984 . S
U286 C290 2.847 . S
U286 C303 2.882 . S
U286 O304 2.441 . S
U286 O305 2.420 . S
U286 O306 2.455 . S
U286 O307 2.449 . S
O287 U286 2.454 . S
O287 C289 1.353 . S
O288 U286 2.458 . S
O288 C289 1.286 . S
C289 U286 2.984 . S
C289 O287 1.353 . S
C289 O288 1.286 . S
C289 C291 1.363 . S
C290 C280 1.465 . S
C290 U286 2.847 . S
C290 O304 1.249 . S
C290 O305 1.202 . S
C291 C289 1.363 . S
C291 C293 1.408 . S
C291 C296 1.342 . S
C292 C293 1.310 . S
C292 C295 1.461 . S
C292 H312 0.932 . S
C293 C291 1.408 . S
C293 C292 1.310 . S
C293 H313 0.930 . S
C294 C295 1.474 . S
C294 C296 1.285 . S
C294 H314 0.929 . S
C295 C292 1.461 . S
C295 C294 1.474 . S
C296 C291 1.342 . S
C296 C294 1.285 . S
C296 H315 0.930 . S
C297 C300 1.424 . S
C297 C302 1.245 . S
C297 C303 1.428 . S
C298 C301 1.260 . S
C298 C302 1.477 . S
C298 H316 0.932 . S
C299 C300 1.384 . S
C299 C301 1.479 . S
C299 H317 0.929 . S
C300 C297 1.424 . S
C300 C299 1.384 . S
C300 H318 0.928 . S
C301 C298 1.260 . S
C301 C299 1.479 . S
C302 C297 1.245 . S
C302 C298 1.477 . S
C302 H319 0.932 . S
C303 U286 2.882 . S
C303 C297 1.428 . S
C303 O306 1.301 . S
C303 O307 1.282 . S
O304 U286 2.441 . S
O304 C290 1.249 . S
O305 U286 2.420 . S
O305 C290 1.202 . S
O306 U286 2.455 . S
O306 C303 1.301 . S
O307 U286 2.449 . S
O307 C303 1.282 . S
H308 C281 0.931 . S
H309 C283 0.929 . S
H310 C284 0.930 . S
H311 C285 0.931 . S
H312 C292 0.932 . S
H313 C293 0.930 . S
H314 C294 0.929 . S
H315 C296 0.930 . S
H316 C298 0.932 . S
H317 C299 0.929 . S
H318 C300 0.928 . S
H319 C302 0.932 . S
C320 C321 1.369 1_554 S
C320 C322 1.419 . S
C320 H324 0.930 . S
C321 C320 1.369 1_556 S
C321 C330 1.429 . S
C322 C320 1.419 . S
C322 C323 1.363 . S
C322 H325 0.929 . S
C323 C322 1.363 . S
C323 C329 1.428 1_554 S
H324 C320 0.930 . S
H325 C322 0.929 . S
S326 N327 1.613 . S
S326 N328 1.610 . S
N327 S326 1.613 . S
N327 C330 1.350 . S
N328 S326 1.610 . S
N328 C329 1.351 . S
C329 C323 1.428 1_556 S
C329 N328 1.351 . S
C329 C330 1.434 . S
C330 C321 1.429 . S
C330 N327 1.350 . S
C330 C329 1.434 . S
C331 C332 1.369 . S
C331 C333 1.419 . S
C331 H335 0.930 . S
C332 C331 1.369 . S
C332 C341 1.429 . S
C333 C331 1.419 . S
C333 C334 1.363 . S
C333 H336 0.929 . S
C334 C333 1.363 . S
C334 C340 1.428 . S
H335 C331 0.930 . S
H336 C333 0.929 . S
S337 N338 1.613 . S
S337 N339 1.610 . S
N338 S337 1.613 . S
N338 C341 1.350 . S
N339 S337 1.610 . S
N339 C340 1.351 . S
C340 C334 1.428 . S
C340 N339 1.351 . S
C340 C341 1.434 . S
C341 C332 1.429 . S
C341 N338 1.350 . S
C341 C340 1.434 . S
C342 C343 1.369 . S
C342 C344 1.419 . S
C342 H346 0.930 . S
C343 C342 1.369 . S
C343 C352 1.429 . S
C344 C342 1.419 . S
C344 C345 1.363 . S
C344 H347 0.929 . S
C345 C344 1.363 . S
C345 C351 1.428 . S
H346 C342 0.930 . S
H347 C344 0.929 . S
S348 N349 1.613 . S
S348 N350 1.610 . S
N349 S348 1.613 . S
N349 C352 1.350 . S
N350 S348 1.610 . S
N350 C351 1.351 . S
C351 C345 1.428 . S
C351 N350 1.351 . S
C351 C352 1.434 . S
C352 C343 1.429 . S
C352 N349 1.350 . S
C352 C351 1.434 . S
C353 C354 1.369 . S
C353 C355 1.419 . S
C353 H357 0.930 . S
C354 C353 1.369 . S
C354 C363 1.429 . S
C355 C353 1.419 . S
C355 C356 1.363 . S
C355 H358 0.929 . S
C356 C355 1.363 . S
C356 C362 1.428 . S
H357 C353 0.930 . S
H358 C355 0.929 . S
S359 N360 1.613 . S
S359 N361 1.610 . S
N360 S359 1.613 . S
N360 C363 1.350 . S
N361 S359 1.610 . S
N361 C362 1.351 . S
C362 C356 1.428 . S
C362 N361 1.351 . S
C362 C363 1.434 . S
C363 C354 1.429 . S
C363 N360 1.350 . S
C363 C362 1.434 . S
C364 C365 1.369 . S
C364 C366 1.419 . S
C364 H368 0.930 . S
C365 C364 1.369 . S
C365 C374 1.429 . S
C366 C364 1.419 . S
C366 C367 1.363 . S
C366 H369 0.929 . S
C367 C366 1.363 . S
C367 C373 1.428 . S
H368 C364 0.930 . S
H369 C366 0.929 . S
S370 N371 1.613 . S
S370 N372 1.610 . S
N371 S370 1.613 . S
N371 C374 1.350 . S
N372 S370 1.610 . S
N372 C373 1.351 . S
C373 C367 1.428 . S
C373 N372 1.351 . S
C373 C374 1.434 . S
C374 C365 1.429 . S
C374 N371 1.350 . S
C374 C373 1.434 . S
C375 C376 1.369 . S
C375 C377 1.419 . S
C375 H379 0.930 . S
C376 C375 1.369 . S
C376 C385 1.429 . S
C377 C375 1.419 . S
C377 C378 1.363 . S
C377 H380 0.929 . S
C378 C377 1.363 . S
C378 C384 1.428 . S
H379 C375 0.930 . S
H380 C377 0.929 . S
S381 N382 1.613 . S
S381 N383 1.610 . S
N382 S381 1.613 . S
N382 C385 1.350 . S
N383 S381 1.610 . S
N383 C384 1.351 . S
C384 C378 1.428 . S
C384 N383 1.351 . S
C384 C385 1.434 . S
C385 C376 1.429 . S
C385 N382 1.350 . S
C385 C384 1.434 . S
C386 C387 1.369 . S
C386 C388 1.419 1_565 S
C386 H390 0.930 . S
C387 C386 1.369 . S
C387 C396 1.429 . S
C388 C386 1.419 1_545 S
C388 C389 1.363 . S
C388 H391 0.929 . S
C389 C388 1.363 . S
C389 C395 1.428 . S
H390 C386 0.930 . S
H391 C388 0.929 . S
S392 N393 1.613 . S
S392 N394 1.610 1_565 S
N393 S392 1.613 . S
N393 C396 1.350 . S
N394 S392 1.610 1_545 S
N394 C395 1.351 . S
C395 C389 1.428 . S
C395 N394 1.351 . S
C395 C396 1.434 1_545 S
C396 C387 1.429 . S
C396 N393 1.350 . S
C396 C395 1.434 1_565 S
C397 C398 1.368 . S
C397 C399 1.420 1_564 S
C397 H401 0.930 1_554 S
C398 C397 1.368 . S
C398 C407 1.429 . S
C399 C397 1.420 1_546 S
C399 C400 1.363 . S
C399 H402 0.929 1_455 S
C400 C399 1.363 . S
C400 C406 1.417 1_556 S
H401 C397 0.930 1_556 S
H402 C399 0.929 1_655 S
S403 N404 1.613 1_545 S
S403 N405 1.610 . S
N404 S403 1.613 1_565 S
N404 C407 1.350 . S
N405 S403 1.610 . S
N405 C406 1.354 . S
C406 C400 1.417 1_554 S
C406 N405 1.354 . S
C406 C407 1.445 1_545 S
C407 C398 1.429 . S
C407 N404 1.350 . S
C407 C406 1.445 1_565 S
C408 C409 1.369 . S
C408 C410 1.419 . S
C408 H412 0.930 . S
C409 C408 1.369 . S
C409 C418 1.429 . S
C410 C408 1.419 . S
C410 C411 1.363 . S
C410 H413 0.929 . S
C411 C410 1.363 . S
C411 C417 1.428 . S
H412 C408 0.930 . S
H413 C410 0.929 . S
S414 N415 1.613 . S
S414 N416 1.610 . S
N415 S414 1.613 . S
N415 C418 1.350 . S
N416 S414 1.610 . S
N416 C417 1.351 . S
C417 C411 1.428 . S
C417 N416 1.351 . S
C417 C418 1.434 . S
C418 C409 1.429 . S
C418 N415 1.350 . S
C418 C417 1.434 . S
C419 C420 1.369 . S
C419 C421 1.419 . S
C419 H423 0.930 . S
C420 C419 1.369 . S
C420 C429 1.429 . S
C421 C419 1.419 . S
C421 C422 1.363 . S
C421 H424 0.929 . S
C422 C421 1.363 . S
C422 C428 1.428 . S
H423 C419 0.930 . S
H424 C421 0.929 . S
S425 N426 1.613 . S
S425 N427 1.610 . S
N426 S425 1.613 . S
N426 C429 1.350 . S
N427 S425 1.610 . S
N427 C428 1.351 . S
C428 C422 1.428 . S
C428 N427 1.351 . S
C428 C429 1.434 . S
C429 C420 1.429 . S
C429 N426 1.350 . S
C429 C428 1.434 . S
C430 C431 1.369 . S
C430 C432 1.419 . S
C430 H434 0.930 . S
C431 C430 1.369 . S
C431 C440 1.429 . S
C432 C430 1.419 . S
C432 C433 1.363 . S
C432 H435 0.929 . S
C433 C432 1.363 . S
C433 C439 1.428 . S
H434 C430 0.930 . S
H435 C432 0.929 . S
S436 N437 1.613 . S
S436 N438 1.610 . S
N437 S436 1.613 . S
N437 C440 1.350 . S
N438 S436 1.610 . S
N438 C439 1.351 . S
C439 C433 1.428 . S
C439 N438 1.351 . S
C439 C440 1.434 . S
C440 C431 1.429 . S
C440 N437 1.350 . S
C440 C439 1.434 . S
C441 C442 1.369 . S
C441 C443 1.419 . S
C441 H445 0.930 . S
C442 C441 1.369 . S
C442 C451 1.429 . S
C443 C441 1.419 . S
C443 C444 1.363 . S
C443 H446 0.929 . S
C444 C443 1.363 . S
C444 C450 1.428 . S
H445 C441 0.930 . S
H446 C443 0.929 . S
S447 N448 1.613 . S
S447 N449 1.610 . S
N448 S447 1.613 . S
N448 C451 1.350 1_655 S
N449 S447 1.610 . S
N449 C450 1.351 1_655 S
C450 C444 1.428 . S
C450 N449 1.351 1_455 S
C450 C451 1.434 . S
C451 C442 1.429 . S
C451 N448 1.350 1_455 S
C451 C450 1.434 . S
C321 C175 1.501 . S
C323 C15 1.501 . S
C332 C215 1.500 . S
C334 C55 1.500 . S
C343 C82 1.483 . S
C345 C242 1.495 . S
C354 C122 1.486 . S
C356 C282 1.490 . S
C365 C295 1.500 . S
C367 C135 1.500 . S
C376 C202 1.488 . S
C378 C42 1.489 . S
C387 C255 1.503 . S
C389 C95 1.503 . S
C398 C2 1.487 . S
C400 C162 1.492 . S
C409 C221 1.490 . S
C411 C21 1.486 . S
C420 C261 1.491 . S
C422 C61 1.488 . S
C431 C101 1.486 . S
C433 C301 1.489 . S
C442 C181 1.489 . S
C444 C141 1.486 . S
