# Generated by pormake.
# Topology ukc, (4)-cn, num edge types: 1
# Building blocks:
#     Node 0, Type 0, BuildingBlock: AZAVOO_clean_sbu_0, # of connection points: 4
#     Node 1, Type 0, BuildingBlock: AZAVOO_clean_sbu_0, # of connection points: 4
#     Node 2, Type 0, BuildingBlock: AZAVOO_clean_sbu_0, # of connection points: 4
#     Node 3, Type 0, BuildingBlock: AZAVOO_clean_sbu_0, # of connection points: 4
#     Node 4, Type 0, BuildingBlock: AZAVOO_clean_sbu_0, # of connection points: 4
#     Node 5, Type 0, BuildingBlock: AZAVOO_clean_sbu_0, # of connection points: 4
#     Node 6, Type 0, BuildingBlock: AZAVOO_clean_sbu_0, # of connection points: 4
#     Node 7, Type 0, BuildingBlock: AZAVOO_clean_sbu_0, # of connection points: 4
#     Node 8, Type 0, BuildingBlock: AZAVOO_clean_sbu_0, # of connection points: 4
#     Node 9, Type 0, BuildingBlock: AZAVOO_clean_sbu_0, # of connection points: 4
#     Node 10, Type 0, BuildingBlock: AZAVOO_clean_sbu_0, # of connection points: 4
#     Node 11, Type 0, BuildingBlock: AZAVOO_clean_sbu_0, # of connection points: 4
#     Node 12, Type 0, BuildingBlock: AZAVOO_clean_sbu_0, # of connection points: 4
#     Node 13, Type 0, BuildingBlock: AZAVOO_clean_sbu_0, # of connection points: 4
#     Node 14, Type 0, BuildingBlock: AZAVOO_clean_sbu_0, # of connection points: 4
#     Node 15, Type 0, BuildingBlock: AZAVOO_clean_sbu_0, # of connection points: 4
#     Node 16, Type 0, BuildingBlock: AZAVOO_clean_sbu_0, # of connection points: 4
#     Node 17, Type 0, BuildingBlock: AZAVOO_clean_sbu_0, # of connection points: 4
#     Node 18, Type 0, BuildingBlock: AZAVOO_clean_sbu_0, # of connection points: 4
#     Node 19, Type 0, BuildingBlock: AZAVOO_clean_sbu_0, # of connection points: 4
#     Node 20, Type 0, BuildingBlock: AZAVOO_clean_sbu_0, # of connection points: 4
#     Node 21, Type 0, BuildingBlock: AZAVOO_clean_sbu_0, # of connection points: 4
#     Node 22, Type 0, BuildingBlock: AZAVOO_clean_sbu_0, # of connection points: 4
#     Node 23, Type 0, BuildingBlock: AZAVOO_clean_sbu_0, # of connection points: 4
#     Node 24, Type 0, BuildingBlock: AZAVOO_clean_sbu_0, # of connection points: 4
#     Node 25, Type 0, BuildingBlock: AZAVOO_clean_sbu_0, # of connection points: 4
#     Node 26, Type 0, BuildingBlock: AZAVOO_clean_sbu_0, # of connection points: 4
#     Node 27, Type 0, BuildingBlock: AZAVOO_clean_sbu_0, # of connection points: 4
#     Node 28, Type 0, BuildingBlock: AZAVOO_clean_sbu_0, # of connection points: 4
#     Node 29, Type 0, BuildingBlock: AZAVOO_clean_sbu_0, # of connection points: 4
#     Node 30, Type 0, BuildingBlock: AZAVOO_clean_sbu_0, # of connection points: 4
#     Node 31, Type 0, BuildingBlock: AZAVOO_clean_sbu_0, # of connection points: 4
#     Edge 32, Type (0, 0), BuildingBlock: CIFDUS_clean_linker_0, # of connection points: 2
#     Edge 33, Type (0, 0), BuildingBlock: CIFDUS_clean_linker_0, # of connection points: 2
#     Edge 34, Type (0, 0), BuildingBlock: CIFDUS_clean_linker_0, # of connection points: 2
#     Edge 35, Type (0, 0), BuildingBlock: CIFDUS_clean_linker_0, # of connection points: 2
#     Edge 36, Type (0, 0), BuildingBlock: CIFDUS_clean_linker_0, # of connection points: 2
#     Edge 37, Type (0, 0), BuildingBlock: CIFDUS_clean_linker_0, # of connection points: 2
#     Edge 38, Type (0, 0), BuildingBlock: CIFDUS_clean_linker_0, # of connection points: 2
#     Edge 39, Type (0, 0), BuildingBlock: CIFDUS_clean_linker_0, # of connection points: 2
#     Edge 40, Type (0, 0), BuildingBlock: CIFDUS_clean_linker_0, # of connection points: 2
#     Edge 41, Type (0, 0), BuildingBlock: CIFDUS_clean_linker_0, # of connection points: 2
#     Edge 42, Type (0, 0), BuildingBlock: CIFDUS_clean_linker_0, # of connection points: 2
#     Edge 43, Type (0, 0), BuildingBlock: CIFDUS_clean_linker_0, # of connection points: 2
#     Edge 44, Type (0, 0), BuildingBlock: CIFDUS_clean_linker_0, # of connection points: 2
#     Edge 45, Type (0, 0), BuildingBlock: CIFDUS_clean_linker_0, # of connection points: 2
#     Edge 46, Type (0, 0), BuildingBlock: CIFDUS_clean_linker_0, # of connection points: 2
#     Edge 47, Type (0, 0), BuildingBlock: CIFDUS_clean_linker_0, # of connection points: 2
#     Edge 48, Type (0, 0), BuildingBlock: CIFDUS_clean_linker_0, # of connection points: 2
#     Edge 49, Type (0, 0), BuildingBlock: CIFDUS_clean_linker_0, # of connection points: 2
#     Edge 50, Type (0, 0), BuildingBlock: CIFDUS_clean_linker_0, # of connection points: 2
#     Edge 51, Type (0, 0), BuildingBlock: CIFDUS_clean_linker_0, # of connection points: 2
#     Edge 52, Type (0, 0), BuildingBlock: CIFDUS_clean_linker_0, # of connection points: 2
#     Edge 53, Type (0, 0), BuildingBlock: CIFDUS_clean_linker_0, # of connection points: 2
#     Edge 54, Type (0, 0), BuildingBlock: CIFDUS_clean_linker_0, # of connection points: 2
#     Edge 55, Type (0, 0), BuildingBlock: CIFDUS_clean_linker_0, # of connection points: 2
#     Edge 56, Type (0, 0), BuildingBlock: CIFDUS_clean_linker_0, # of connection points: 2
#     Edge 57, Type (0, 0), BuildingBlock: CIFDUS_clean_linker_0, # of connection points: 2
#     Edge 58, Type (0, 0), BuildingBlock: CIFDUS_clean_linker_0, # of connection points: 2
#     Edge 59, Type (0, 0), BuildingBlock: CIFDUS_clean_linker_0, # of connection points: 2
#     Edge 60, Type (0, 0), BuildingBlock: CIFDUS_clean_linker_0, # of connection points: 2
#     Edge 61, Type (0, 0), BuildingBlock: CIFDUS_clean_linker_0, # of connection points: 2
#     Edge 62, Type (0, 0), BuildingBlock: CIFDUS_clean_linker_0, # of connection points: 2
#     Edge 63, Type (0, 0), BuildingBlock: CIFDUS_clean_linker_0, # of connection points: 2
#     Edge 64, Type (0, 0), BuildingBlock: CIFDUS_clean_linker_0, # of connection points: 2
#     Edge 65, Type (0, 0), BuildingBlock: CIFDUS_clean_linker_0, # of connection points: 2
#     Edge 66, Type (0, 0), BuildingBlock: CIFDUS_clean_linker_0, # of connection points: 2
#     Edge 67, Type (0, 0), BuildingBlock: CIFDUS_clean_linker_0, # of connection points: 2
#     Edge 68, Type (0, 0), BuildingBlock: CIFDUS_clean_linker_0, # of connection points: 2
#     Edge 69, Type (0, 0), BuildingBlock: CIFDUS_clean_linker_0, # of connection points: 2
#     Edge 70, Type (0, 0), BuildingBlock: CIFDUS_clean_linker_0, # of connection points: 2
#     Edge 71, Type (0, 0), BuildingBlock: CIFDUS_clean_linker_0, # of connection points: 2
#     Edge 72, Type (0, 0), BuildingBlock: CIFDUS_clean_linker_0, # of connection points: 2
#     Edge 73, Type (0, 0), BuildingBlock: CIFDUS_clean_linker_0, # of connection points: 2
#     Edge 74, Type (0, 0), BuildingBlock: CIFDUS_clean_linker_0, # of connection points: 2
#     Edge 75, Type (0, 0), BuildingBlock: CIFDUS_clean_linker_0, # of connection points: 2
#     Edge 76, Type (0, 0), BuildingBlock: CIFDUS_clean_linker_0, # of connection points: 2
#     Edge 77, Type (0, 0), BuildingBlock: CIFDUS_clean_linker_0, # of connection points: 2
#     Edge 78, Type (0, 0), BuildingBlock: CIFDUS_clean_linker_0, # of connection points: 2
#     Edge 79, Type (0, 0), BuildingBlock: CIFDUS_clean_linker_0, # of connection points: 2
#     Edge 80, Type (0, 0), BuildingBlock: CIFDUS_clean_linker_0, # of connection points: 2
#     Edge 81, Type (0, 0), BuildingBlock: CIFDUS_clean_linker_0, # of connection points: 2
#     Edge 82, Type (0, 0), BuildingBlock: CIFDUS_clean_linker_0, # of connection points: 2
#     Edge 83, Type (0, 0), BuildingBlock: CIFDUS_clean_linker_0, # of connection points: 2
#     Edge 84, Type (0, 0), BuildingBlock: CIFDUS_clean_linker_0, # of connection points: 2
#     Edge 85, Type (0, 0), BuildingBlock: CIFDUS_clean_linker_0, # of connection points: 2
#     Edge 86, Type (0, 0), BuildingBlock: CIFDUS_clean_linker_0, # of connection points: 2
#     Edge 87, Type (0, 0), BuildingBlock: CIFDUS_clean_linker_0, # of connection points: 2
#     Edge 88, Type (0, 0), BuildingBlock: CIFDUS_clean_linker_0, # of connection points: 2
#     Edge 89, Type (0, 0), BuildingBlock: CIFDUS_clean_linker_0, # of connection points: 2
#     Edge 90, Type (0, 0), BuildingBlock: CIFDUS_clean_linker_0, # of connection points: 2
#     Edge 91, Type (0, 0), BuildingBlock: CIFDUS_clean_linker_0, # of connection points: 2
#     Edge 92, Type (0, 0), BuildingBlock: CIFDUS_clean_linker_0, # of connection points: 2
#     Edge 93, Type (0, 0), BuildingBlock: CIFDUS_clean_linker_0, # of connection points: 2
#     Edge 94, Type (0, 0), BuildingBlock: CIFDUS_clean_linker_0, # of connection points: 2
#     Edge 95, Type (0, 0), BuildingBlock: CIFDUS_clean_linker_0, # of connection points: 2
# Relax obj value: 0.061
# Max RMSD: 0.101
# Mean RMSD: 0.101
data_MOF--net-ukc--node1-AZAVOO_clean_sbu_0--edge1-CIFDUS_clean_linker_0
_symmetry_space_group_name_H-M    P1
_symmetry_Int_Tables_number       1
_symmetry_cell_setting            triclinic
loop_
_symmetry_equiv_pos_as_xyz
'x, y, z'
_cell_length_a     40.064197
_cell_length_b     40.005148
_cell_length_c     75.405258
_cell_angle_alpha  89.617361
_cell_angle_beta   89.781311
_cell_angle_gamma 90.16602
loop_
_atom_site_label
_atom_site_type_symbol
_atom_site_fract_x
_atom_site_fract_y
_atom_site_fract_z
_atom_type_partial_charge
Mg0 Mg 0.15489 0.40388 0.03499 0.0
O1 O 0.13204 0.35468 0.02527 0.0
O2 O 0.15952 0.31242 0.03808 0.0
Mg3 Mg 0.19995 0.33446 0.05599 0.0
C4 C 0.13655 0.32343 0.02791 0.0
C5 C 0.11366 0.46037 0.01845 0.0
O6 O 0.11693 0.4697 0.03503 0.0
O7 O 0.20059 0.39688 0.01749 0.0
O8 O 0.22816 0.35691 0.03224 0.0
O9 O 0.11919 0.40228 0.0575 0.0
O10 O 0.16957 0.3798 0.05818 0.0
C11 C 0.22609 0.37821 0.01961 0.0
C12 C 0.14091 0.38385 0.06562 0.0
O13 O 0.12725 0.43324 0.01356 0.0
Mg14 Mg 0.84041 0.85647 0.26572 0.0
O15 O 0.88429 0.82264 0.25791 0.0
O16 O 0.93175 0.85098 0.26198 0.0
Mg17 Mg 0.9185 0.90352 0.27106 0.0
C18 C 0.91614 0.82438 0.25772 0.0
C19 C 0.77407 0.8182 0.2591 0.0
O20 O 0.76408 0.84052 0.27066 0.0
O21 O 0.84419 0.88692 0.24017 0.0
O22 O 0.89205 0.91458 0.2448 0.0
O23 O 0.84679 0.83841 0.29323 0.0
O24 O 0.87184 0.88355 0.28233 0.0
C25 C 0.86665 0.90776 0.2353 0.0
C26 C 0.8683 0.86235 0.29511 0.0
O27 O 0.80423 0.81884 0.25379 0.0
Mg28 Mg 0.41581 0.58783 0.52979 0.0
O29 O 0.45034 0.63113 0.52218 0.0
O30 O 0.42461 0.67894 0.5287 0.0
Mg31 Mg 0.37493 0.66621 0.54245 0.0
C32 C 0.44957 0.66299 0.52249 0.0
C33 C 0.45527 0.52388 0.51936 0.0
O34 O 0.44255 0.51424 0.53465 0.0
O35 O 0.38064 0.599 0.50658 0.0
O36 O 0.35313 0.64311 0.51748 0.0
O37 O 0.43797 0.58659 0.55707 0.0
O38 O 0.39409 0.61659 0.54956 0.0
C39 C 0.35713 0.6205 0.50581 0.0
C40 C 0.41533 0.60809 0.56145 0.0
O41 O 0.44825 0.55282 0.5134 0.0
Mg42 Mg 0.59395 0.16013 0.76743 0.0
O43 O 0.54332 0.18511 0.76288 0.0
O44 O 0.50442 0.15215 0.7752 0.0
Mg45 Mg 0.52981 0.10854 0.78958 0.0
C46 C 0.51287 0.17835 0.7665 0.0
C47 C 0.64129 0.21399 0.7519 0.0
O48 O 0.64889 0.21393 0.76883 0.0
O49 O 0.58281 0.11877 0.74742 0.0
O50 O 0.54925 0.08606 0.76393 0.0
O51 O 0.59991 0.18718 0.79321 0.0
O52 O 0.57595 0.13786 0.79066 0.0
C53 C 0.56679 0.09147 0.75004 0.0
C54 C 0.58474 0.16212 0.80066 0.0
O55 O 0.61865 0.19414 0.74652 0.0
Mg56 Mg 0.12215 0.58695 0.43233 0.0
O57 O 0.09833 0.63827 0.43714 0.0
O58 O 0.13005 0.6762 0.42301 0.0
Mg59 Mg 0.17182 0.64936 0.40799 0.0
C60 C 0.1049 0.66848 0.43269 0.0
C61 C 0.07823 0.53504 0.45128 0.0
O62 O 0.08358 0.52186 0.43561 0.0
O63 O 0.16537 0.59907 0.45086 0.0
O64 O 0.19688 0.63262 0.43375 0.0
O65 O 0.09016 0.58108 0.40853 0.0
O66 O 0.14022 0.60435 0.40797 0.0
C67 C 0.19212 0.61569 0.44794 0.0
C68 C 0.11305 0.59708 0.39975 0.0
O69 O 0.09132 0.56327 0.45471 0.0
Mg70 Mg 0.62125 0.84878 0.68685 0.0
O71 O 0.57133 0.82224 0.69249 0.0
O72 O 0.53232 0.85151 0.67793 0.0
Mg73 Mg 0.55675 0.89285 0.6612 0.0
C74 C 0.54093 0.82754 0.68822 0.0
C75 C 0.67656 0.81083 0.70531 0.0
O76 O 0.68796 0.81767 0.68933 0.0
O77 O 0.60629 0.89298 0.70441 0.0
O78 O 0.57204 0.92058 0.68604 0.0
O79 O 0.62997 0.81638 0.66303 0.0
O80 O 0.60289 0.86433 0.66257 0.0
C81 C 0.58858 0.9185 0.70042 0.0
C82 C 0.6127 0.8382 0.65429 0.0
O83 O 0.64748 0.8209 0.70946 0.0
Mg84 Mg 0.45029 0.38424 0.93578 0.0
O85 O 0.47749 0.33555 0.94293 0.0
O86 O 0.4425 0.29347 0.9371 0.0
Mg87 Mg 0.39505 0.31418 0.92439 0.0
C88 C 0.47042 0.30438 0.94282 0.0
C89 C 0.4835 0.44694 0.95087 0.0
O90 O 0.45713 0.45888 0.94271 0.0
O91 O 0.41592 0.379 0.95996 0.0
O92 O 0.3802 0.34025 0.94994 0.0
O93 O 0.46944 0.38268 0.90772 0.0
O94 O 0.42247 0.35946 0.91682 0.0
C95 C 0.38929 0.36156 0.96147 0.0
C96 C 0.44298 0.3654 0.90408 0.0
O97 O 0.48828 0.41552 0.95089 0.0
Mg98 Mg 0.811 0.1362 0.15898 0.0
O99 O 0.85658 0.15954 0.17271 0.0
O100 O 0.90227 0.13458 0.16199 0.0
Mg101 Mg 0.88646 0.09776 0.14046 0.0
C102 C 0.88824 0.15571 0.1722 0.0
C103 C 0.75664 0.18092 0.17763 0.0
O104 O 0.75496 0.19424 0.16169 0.0
O105 O 0.81693 0.08723 0.17459 0.0
O106 O 0.8615 0.06483 0.16141 0.0
O107 O 0.81521 0.17606 0.13782 0.0
O108 O 0.84073 0.1271 0.13712 0.0
C109 C 0.83773 0.06334 0.17269 0.0
C110 C 0.83674 0.15645 0.13045 0.0
O111 O 0.77691 0.1571 0.18045 0.0
Mg112 Mg 0.94826 0.64238 0.95135 0.0
O113 O 0.97709 0.6907 0.95701 0.0
O114 O 0.94512 0.73331 0.94827 0.0
Mg115 Mg 0.89872 0.71262 0.93432 0.0
C116 C 0.97178 0.72201 0.95531 0.0
C117 C 0.99683 0.587 0.96473 0.0
O118 O 0.99193 0.57715 0.94836 0.0
O119 O 0.91003 0.65229 0.9734 0.0
O120 O 0.87733 0.68953 0.9596 0.0
O121 O 0.97132 0.63836 0.92413 0.0
O122 O 0.9247 0.66517 0.92998 0.0
C123 C 0.88326 0.66952 0.97245 0.0
C124 C 0.94649 0.6561 0.91849 0.0
O125 O 0.98234 0.61334 0.9701 0.0
Mg126 Mg 0.08873 0.1701 0.69512 0.0
O127 O 0.04732 0.20773 0.7014 0.0
O128 O 0.99897 0.18498 0.69302 0.0
Mg129 Mg 0.00925 0.13456 0.68007 0.0
C130 C 0.01563 0.20887 0.69984 0.0
C131 C 0.13215 0.22879 0.70959 0.0
O132 O 0.11671 0.24435 0.69661 0.0
O133 O 0.07311 0.13465 0.71733 0.0
O134 O 0.0266 0.11155 0.7063 0.0
O135 O 0.09499 0.19196 0.66797 0.0
O136 O 0.06094 0.15027 0.67469 0.0
C137 C 0.04899 0.11374 0.71823 0.0
C138 C 0.07311 0.17014 0.66288 0.0
O139 O 0.12529 0.19826 0.71269 0.0
Mg140 Mg 0.6149 0.36913 0.43842 0.0
O141 O 0.58717 0.32102 0.44623 0.0
O142 O 0.61314 0.27882 0.43269 0.0
Mg143 Mg 0.65515 0.29982 0.41513 0.0
C144 C 0.59032 0.2899 0.44295 0.0
C145 C 0.58286 0.42871 0.45554 0.0
O146 O 0.59489 0.43946 0.44029 0.0
O147 O 0.65869 0.35496 0.45617 0.0
O148 O 0.68452 0.31666 0.43948 0.0
O149 O 0.58128 0.37534 0.41529 0.0
O150 O 0.62895 0.34778 0.4145 0.0
C151 C 0.68318 0.33538 0.4531 0.0
C152 C 0.60205 0.35689 0.40657 0.0
O153 O 0.58803 0.39846 0.46 0.0
Mg154 Mg 0.36258 0.86429 0.19337 0.0
O155 O 0.40859 0.83602 0.20323 0.0
O156 O 0.45392 0.86796 0.19971 0.0
Mg157 Mg 0.4367 0.9181 0.18836 0.0
C158 C 0.44006 0.84048 0.20434 0.0
C159 C 0.30451 0.81061 0.20024 0.0
O160 O 0.29514 0.81923 0.18418 0.0
O161 O 0.36093 0.89774 0.21774 0.0
O162 O 0.40635 0.92961 0.21327 0.0
O163 O 0.37416 0.84538 0.16616 0.0
O164 O 0.39286 0.89322 0.17677 0.0
C165 C 0.3806 0.9213 0.22229 0.0
C166 C 0.3929 0.87163 0.16425 0.0
O167 O 0.32996 0.82461 0.20702 0.0
Mg168 Mg 0.91401 0.36091 0.52647 0.0
O169 O 0.94712 0.31476 0.52368 0.0
O170 O 0.91847 0.2709 0.53426 0.0
Mg171 Mg 0.87006 0.28972 0.54711 0.0
C172 C 0.94434 0.28348 0.52681 0.0
C173 C 0.95978 0.41706 0.51034 0.0
O174 O 0.95432 0.42955 0.52615 0.0
O175 O 0.87808 0.34276 0.50496 0.0
O176 O 0.84802 0.30542 0.52058 0.0
O177 O 0.93526 0.37242 0.55338 0.0
O178 O 0.89171 0.33992 0.54881 0.0
C179 C 0.85299 0.32318 0.50669 0.0
C180 C 0.91211 0.35313 0.5598 0.0
O181 O 0.94653 0.38917 0.50637 0.0
Mg182 Mg 0.30205 0.14712 0.29516 0.0
O183 O 0.34903 0.17619 0.2865 0.0
O184 O 0.39312 0.15169 0.29923 0.0
Mg185 Mg 0.37447 0.10899 0.31709 0.0
C186 C 0.38043 0.17415 0.28922 0.0
C187 C 0.24408 0.18549 0.27674 0.0
O188 O 0.23254 0.18373 0.29305 0.0
O189 O 0.31549 0.1025 0.27747 0.0
O190 O 0.35698 0.07985 0.29313 0.0
O191 O 0.29685 0.18104 0.31867 0.0
O192 O 0.32605 0.13423 0.31843 0.0
C193 C 0.33687 0.0793 0.28007 0.0
C194 C 0.31726 0.16091 0.32659 0.0
O195 O 0.27211 0.17224 0.27318 0.0
Mg196 Mg 0.63784 0.60155 0.03094 0.0
O197 O 0.61721 0.65491 0.02709 0.0
O198 O 0.64616 0.68774 0.04554 0.0
Mg199 Mg 0.68196 0.656 0.06212 0.0
C200 C 0.62395 0.68361 0.03361 0.0
C201 C 0.58275 0.58882 0.00258 0.0
O202 O 0.56762 0.61146 0.01222 0.0
O203 O 0.68582 0.61665 0.0164 0.0
O204 O 0.71283 0.64545 0.0373 0.0
O205 O 0.59926 0.59129 0.0516 0.0
O206 O 0.64872 0.61379 0.05688 0.0
C207 C 0.7116 0.63223 0.02197 0.0
C208 C 0.61951 0.60544 0.06259 0.0
O209 O 0.61292 0.58146 0.00599 0.0
Mg210 Mg 0.12063 0.87572 0.78121 0.0
O211 O 0.07383 0.84408 0.77636 0.0
O212 O 0.0316 0.86707 0.79137 0.0
Mg213 Mg 0.05164 0.9115 0.80703 0.0
C214 C 0.04317 0.84472 0.78104 0.0
C215 C 0.17508 0.8366 0.7617 0.0
O216 O 0.18721 0.83952 0.77778 0.0
O217 O 0.1015 0.91854 0.76392 0.0
O218 O 0.06267 0.94083 0.78164 0.0
O219 O 0.13326 0.84431 0.8048 0.0
O220 O 0.10179 0.88956 0.80572 0.0
C221 C 0.08007 0.94121 0.76742 0.0
C222 C 0.11483 0.86452 0.81389 0.0
O223 O 0.14712 0.85004 0.7582 0.0
Mg224 Mg 0.62909 0.87109 0.51817 0.0
O225 O 0.59628 0.82546 0.51291 0.0
O226 O 0.62209 0.78043 0.52379 0.0
Mg227 Mg 0.67079 0.79724 0.53699 0.0
C228 C 0.59744 0.79405 0.51588 0.0
C229 C 0.58366 0.92811 0.50525 0.0
O230 O 0.58929 0.93612 0.52184 0.0
O231 O 0.66643 0.8562 0.49663 0.0
O232 O 0.69367 0.8152 0.51085 0.0
O233 O 0.60393 0.8766 0.54451 0.0
O234 O 0.64976 0.84727 0.54015 0.0
C235 C 0.69025 0.8351 0.49769 0.0
C236 C 0.62655 0.85674 0.55074 0.0
O237 O 0.59734 0.902 0.49905 0.0
Mg238 Mg 0.32203 0.35813 0.7846 0.0
O239 O 0.36888 0.33242 0.77353 0.0
O240 O 0.41265 0.36196 0.7833 0.0
Mg241 Mg 0.39468 0.40358 0.80174 0.0
C242 C 0.40033 0.3378 0.77441 0.0
C243 C 0.26518 0.34715 0.75705 0.0
O244 O 0.26304 0.37962 0.75925 0.0
O245 O 0.32945 0.40208 0.76549 0.0
O246 O 0.37006 0.43115 0.77869 0.0
O247 O 0.32377 0.3245 0.80839 0.0
O248 O 0.34995 0.3731 0.80619 0.0
C249 C 0.34803 0.42793 0.76665 0.0
C250 C 0.3447 0.34582 0.81491 0.0
O251 O 0.28776 0.331 0.76523 0.0
Mg252 Mg 0.94605 0.13877 0.00959 0.0
O253 O 0.97639 0.18838 0.0057 0.0
O254 O 0.94282 0.23194 0.01124 0.0
Mg255 Mg 0.89129 0.21038 0.00707 0.0
C256 C 0.97175 0.21971 0.00831 0.0
C257 C 0.99032 0.07696 0.00708 0.0
O258 O 0.96447 0.06644 0.01636 0.0
O259 O 0.92349 0.13568 0.98184 0.0
O260 O 0.91842 0.18962 0.98314 0.0
O261 O 0.94924 0.14699 0.03854 0.0
O262 O 0.9072 0.16517 0.02218 0.0
C263 C 0.91043 0.16234 0.9759 0.0
C264 C 0.92131 0.16314 0.03746 0.0
O265 O 0.99117 0.10734 0.00202 0.0
Mg266 Mg 0.12368 0.64213 0.26481 0.0
O267 O 0.08007 0.67841 0.26128 0.0
O268 O 0.03628 0.65732 0.27604 0.0
Mg269 Mg 0.05292 0.61082 0.29143 0.0
C270 C 0.04946 0.67953 0.26597 0.0
C271 C 0.18149 0.67801 0.24647 0.0
O272 O 0.19308 0.66934 0.26211 0.0
O273 O 0.09852 0.60326 0.24676 0.0
O274 O 0.06062 0.58238 0.26582 0.0
O275 O 0.14104 0.66877 0.28929 0.0
O276 O 0.10513 0.62699 0.28944 0.0
C277 C 0.07614 0.58168 0.25102 0.0
C278 C 0.12166 0.64886 0.2982 0.0
O279 O 0.1521 0.66882 0.24233 0.0
Mg280 Mg 0.65095 0.11455 0.93061 0.0
O281 O 0.62722 0.16258 0.94186 0.0
O282 O 0.65153 0.20562 0.92766 0.0
Mg283 Mg 0.6888 0.1865 0.90732 0.0
C284 C 0.63075 0.19397 0.93901 0.0
C285 C 0.62522 0.08984 0.96902 0.0
O286 O 0.63657 0.11888 0.9744 0.0
O287 O 0.70036 0.12301 0.94558 0.0
O288 O 0.72094 0.16464 0.92899 0.0
O289 O 0.61138 0.11386 0.90978 0.0
O290 O 0.65955 0.14023 0.90676 0.0
C291 C 0.72379 0.14357 0.94163 0.0
C292 C 0.63033 0.13379 0.90062 0.0
O293 O 0.62837 0.08198 0.95279 0.0
Mg294 Mg 0.07695 0.33636 0.19283 0.0
O295 O 0.02648 0.3094 0.19446 0.0
O296 O 0.99058 0.34001 0.17857 0.0
Mg297 Mg 0.01867 0.38249 0.1643 0.0
C298 C 0.99715 0.31496 0.18856 0.0
C299 C 0.12597 0.29394 0.21359 0.0
O300 O 0.14037 0.29894 0.19811 0.0
O301 O 0.05877 0.37956 0.21006 0.0
O302 O 0.03047 0.40973 0.19001 0.0
O303 O 0.09196 0.30643 0.16903 0.0
O304 O 0.06466 0.35422 0.16798 0.0
C305 C 0.04375 0.40628 0.20527 0.0
C306 C 0.07746 0.32942 0.15971 0.0
O307 O 0.09742 0.30678 0.21637 0.0
Mg308 Mg 0.92611 0.86684 0.42465 0.0
O309 O 0.95389 0.81789 0.43069 0.0
O310 O 0.92322 0.77699 0.4187 0.0
Mg311 Mg 0.88021 0.79938 0.40258 0.0
C312 C 0.94829 0.78694 0.4277 0.0
C313 C 0.93849 0.91884 0.45336 0.0
O314 O 0.90723 0.92391 0.44889 0.0
O315 O 0.88427 0.85245 0.44402 0.0
O316 O 0.85404 0.81685 0.42774 0.0
O317 O 0.95536 0.87464 0.39932 0.0
O318 O 0.90833 0.84605 0.40179 0.0
C319 C 0.85817 0.83466 0.44153 0.0
C320 C 0.93277 0.85603 0.39209 0.0
O321 O 0.95449 0.8954 0.44589 0.0
Mg322 Mg 0.33593 0.66131 0.6879 0.0
O323 O 0.38775 0.68238 0.69399 0.0
O324 O 0.42569 0.64684 0.68326 0.0
Mg325 Mg 0.39822 0.60447 0.66895 0.0
C326 C 0.41803 0.67371 0.69139 0.0
C327 C 0.28678 0.71363 0.7033 0.0
O328 O 0.27497 0.71028 0.68718 0.0
O329 O 0.34188 0.62034 0.70897 0.0
O330 O 0.37554 0.5848 0.69471 0.0
O331 O 0.33582 0.68942 0.66206 0.0
O332 O 0.35579 0.63839 0.66565 0.0
C333 C 0.35694 0.59234 0.70784 0.0
C334 C 0.35156 0.66404 0.65556 0.0
O335 O 0.31216 0.69666 0.70786 0.0
Mg336 Mg 0.39927 0.10772 0.45164 0.0
O337 O 0.42863 0.15552 0.45791 0.0
O338 O 0.39709 0.1995 0.45076 0.0
Mg339 Mg 0.34779 0.18026 0.43966 0.0
C340 C 0.42417 0.18704 0.45668 0.0
C341 C 0.45218 0.05304 0.46086 0.0
O342 O 0.44646 0.04572 0.44418 0.0
O343 O 0.36427 0.11385 0.47531 0.0
O344 O 0.33304 0.15716 0.46636 0.0
O345 O 0.41963 0.10952 0.42403 0.0
O346 O 0.37241 0.13319 0.43235 0.0
C347 C 0.34034 0.1344 0.47761 0.0
C348 C 0.39401 0.12777 0.42008 0.0
O349 O 0.43654 0.07726 0.46786 0.0
Mg350 Mg 0.61455 0.63962 0.19728 0.0
O351 O 0.56787 0.67156 0.20157 0.0
O352 O 0.5264 0.64673 0.18686 0.0
Mg353 Mg 0.54692 0.60213 0.17143 0.0
C354 C 0.5373 0.66985 0.19692 0.0
C355 C 0.67392 0.66598 0.2165 0.0
O356 O 0.6854 0.64623 0.20403 0.0
O357 O 0.59409 0.59833 0.21559 0.0
O358 O 0.55792 0.57381 0.1971 0.0
O359 O 0.62824 0.6693 0.17318 0.0
O360 O 0.59691 0.62389 0.17291 0.0
C361 C 0.57387 0.57465 0.21172 0.0
C362 C 0.61061 0.64813 0.16429 0.0
O363 O 0.64251 0.66753 0.21885 0.0
Mg364 Mg 0.16147 0.90682 0.94616 0.0
O365 O 0.13394 0.85916 0.95523 0.0
O366 O 0.16243 0.81602 0.94414 0.0
Mg367 Mg 0.20599 0.83552 0.92715 0.0
C368 C 0.1381 0.82775 0.95315 0.0
C369 C 0.1369 0.9702 0.96369 0.0
O370 O 0.159 0.9806 0.95195 0.0
O371 O 0.20417 0.89765 0.96543 0.0
O372 O 0.23273 0.85805 0.95104 0.0
O373 O 0.12977 0.90792 0.92211 0.0
O374 O 0.17841 0.88219 0.92372 0.0
C375 C 0.22977 0.87899 0.96365 0.0
C376 C 0.15185 0.88873 0.91485 0.0
O377 O 0.13247 0.93891 0.96568 0.0
Mg378 Mg 0.81578 0.39197 0.68624 0.0
O379 O 0.85952 0.36057 0.69641 0.0
O380 O 0.9074 0.38451 0.68789 0.0
Mg381 Mg 0.89451 0.4324 0.67268 0.0
C382 C 0.89135 0.36099 0.69567 0.0
C383 C 0.75927 0.34144 0.69837 0.0
O384 O 0.75622 0.33822 0.68112 0.0
O385 O 0.82392 0.43193 0.70742 0.0
O386 O 0.87092 0.45552 0.69722 0.0
O387 O 0.81894 0.36374 0.66066 0.0
O388 O 0.8458 0.41089 0.66588 0.0
C389 C 0.84689 0.45409 0.70837 0.0
C390 C 0.8404 0.38612 0.65554 0.0
O391 O 0.78088 0.36175 0.70439 0.0
Mg392 Mg 0.46796 0.89999 0.03668 0.0
O393 O 0.4903 0.84853 0.03008 0.0
O394 O 0.45442 0.81018 0.04071 0.0
Mg395 Mg 0.41241 0.83568 0.05613 0.0
C396 C 0.48118 0.81812 0.0324 0.0
C397 C 0.51614 0.95418 0.02232 0.0
O398 O 0.50998 0.96426 0.03855 0.0
O399 O 0.42663 0.89319 0.01587 0.0
O400 O 0.39218 0.85878 0.03085 0.0
O401 O 0.49486 0.90059 0.0631 0.0
O402 O 0.44501 0.87883 0.05853 0.0
C403 C 0.39883 0.87764 0.0176 0.0
C404 C 0.46936 0.88403 0.06909 0.0
O405 O 0.50267 0.92716 0.01705 0.0
Mg406 Mg 0.83283 0.6692 0.79541 0.0
O407 O 0.87595 0.70278 0.78563 0.0
O408 O 0.924 0.67905 0.7938 0.0
Mg409 Mg 0.91219 0.63082 0.80872 0.0
C410 C 0.90781 0.70258 0.78628 0.0
C411 C 0.76928 0.70906 0.78248 0.0
O412 O 0.76008 0.70371 0.79901 0.0
O413 O 0.84289 0.63018 0.77406 0.0
O414 O 0.89101 0.60815 0.78352 0.0
O415 O 0.83328 0.69701 0.82098 0.0
O416 O 0.86307 0.65164 0.81594 0.0
C417 C 0.86693 0.6095 0.77254 0.0
C418 C 0.85581 0.67606 0.82628 0.0
O419 O 0.79725 0.69785 0.77718 0.0
Mg420 Mg 0.10289 0.06228 0.54227 0.0
O421 O 0.0768 0.10934 0.53139 0.0
O422 O 0.09852 0.15344 0.54543 0.0
Mg423 Mg 0.13744 0.13515 0.56531 0.0
C424 C 0.07825 0.14079 0.53427 0.0
C425 C 0.05101 0.03006 0.51754 0.0
O426 O 0.0322 0.04836 0.52795 0.0
O427 O 0.15127 0.07432 0.52715 0.0
O428 O 0.17101 0.11682 0.54307 0.0
O429 O 0.06321 0.05871 0.56313 0.0
O430 O 0.11013 0.08751 0.5659 0.0
C431 C 0.17392 0.09594 0.53046 0.0
C432 C 0.08098 0.07986 0.57195 0.0
O433 O 0.08249 0.03082 0.51959 0.0
Mg434 Mg 0.60672 0.32966 0.27109 0.0
O435 O 0.55814 0.2993 0.26995 0.0
O436 O 0.52074 0.32618 0.28669 0.0
Mg437 Mg 0.54648 0.36976 0.30085 0.0
C438 C 0.52874 0.30231 0.27635 0.0
C439 C 0.64214 0.27621 0.24789 0.0
O440 O 0.6443 0.26227 0.26366 0.0
O441 O 0.58449 0.37239 0.25468 0.0
O442 O 0.55415 0.3991 0.27514 0.0
O443 O 0.62448 0.29869 0.29412 0.0
O444 O 0.5944 0.34454 0.29657 0.0
C445 C 0.56705 0.39733 0.25968 0.0
C446 C 0.6086 0.31948 0.30413 0.0
O447 O 0.62701 0.30397 0.24631 0.0
H448 H 0.0309 0.52989 0.95733 0.0
H449 H 0.01138 0.59998 -0.0006 0.0
H450 H 0.04614 0.56727 0.01951 0.0
H451 H 0.08139 0.51851 0.02533 0.0
H452 H 0.1009 0.44814 0.98341 0.0
H453 H 0.06686 0.48134 0.96308 0.0
C454 C 0.03426 0.53808 0.97089 0.0
C455 C 0.01845 0.56737 0.97682 0.0
C456 C 0.05428 0.5191 0.98243 0.0
C457 C 0.02318 0.57756 -0.00555 0.0
C458 C 0.04307 0.55886 0.00598 0.0
C459 C 0.0783 0.51041 0.01174 0.0
C460 C 0.09368 0.48081 0.00594 0.0
C461 C 0.05863 0.52954 0.00013 0.0
C462 C 0.08936 0.47078 -0.01174 0.0
C463 C 0.06986 0.48975 0.97661 0.0
H464 H 0.65803 0.71943 0.23726 0.0
H465 H 0.74177 0.66581 0.2153 0.0
H466 H 0.78001 0.70806 0.22651 0.0
H467 H 0.78967 0.76153 0.24127 0.0
H468 H 0.70637 0.81539 0.26344 0.0
H469 H 0.66807 0.77188 0.25336 0.0
C470 C 0.68468 0.71676 0.23514 0.0
C471 C 0.69694 0.68952 0.22539 0.0
C472 C 0.70664 0.74142 0.24146 0.0
C473 C 0.73157 0.68655 0.22271 0.0
C474 C 0.75352 0.71078 0.22906 0.0
C475 C 0.76313 0.76381 0.24388 0.0
C476 C 0.7509 0.79183 0.25296 0.0
C477 C 0.74129 0.7386 0.23818 0.0
C478 C 0.71646 0.79415 0.25642 0.0
C479 C 0.69453 0.76924 0.25068 0.0
H480 H 0.54811 0.41316 0.4858 0.0
H481 H 0.56949 0.49444 0.44948 0.0
H482 H 0.53195 0.53076 0.46589 0.0
H483 H 0.49211 0.53939 0.49008 0.0
H484 H 0.47057 0.45865 0.52665 0.0
H485 H 0.50894 0.4223 0.51058 0.0
C486 C 0.54472 0.43887 0.48155 0.0
C487 C 0.56159 0.45096 0.46639 0.0
C488 C 0.52286 0.45974 0.49101 0.0
C489 C 0.55683 0.48437 0.46107 0.0
C490 C 0.53528 0.50522 0.47042 0.0
C491 C 0.49572 0.51383 0.49454 0.0
C492 C 0.47833 0.50176 0.5095 0.0
C493 C 0.51796 0.49311 0.48531 0.0
C494 C 0.48357 0.46861 0.51515 0.0
C495 C 0.50555 0.44778 0.50597 0.0
H496 H 0.71054 0.29646 0.68994 0.0
H497 H 0.76176 0.33986 0.73455 0.0
H498 H 0.72944 0.30474 0.75487 0.0
H499 H 0.68762 0.26103 0.76004 0.0
H500 H 0.636 0.2174 0.71567 0.0
H501 H 0.66747 0.25338 0.69522 0.0
C502 C 0.71459 0.29833 0.70411 0.0
C503 C 0.73868 0.32078 0.71066 0.0
C504 C 0.69589 0.27798 0.71578 0.0
C505 C 0.74346 0.32285 0.72909 0.0
C506 C 0.725 0.30273 0.74075 0.0
C507 C 0.68315 0.25936 0.7459 0.0
C508 C 0.65952 0.2364 0.73942 0.0
C509 C 0.7013 0.28009 0.73424 0.0
C510 C 0.65403 0.23479 0.72104 0.0
C511 C 0.67205 0.25535 0.70933 0.0
H512 H 0.99146 0.47688 0.51466 0.0
H513 H 0.97637 0.39789 0.47674 0.0
H514 H 0.01167 0.42738 0.45531 0.0
H515 H 0.04671 0.47541 0.44727 0.0
H516 H 0.06197 0.55465 0.48499 0.0
H517 H 0.02671 0.52516 0.50656 0.0
C518 C 0.99586 0.46609 0.50171 0.0
C519 C 0.98121 0.43517 0.49735 0.0
C520 C 0.01624 0.4832 0.48941 0.0
C521 C 0.98726 0.42162 0.48049 0.0
C522 C 0.00748 0.43847 0.4682 0.0
C523 C 0.04239 0.48629 0.46021 0.0
C524 C 0.05703 0.51723 0.46448 0.0
C525 C 0.02208 0.46925 0.47252 0.0
C526 C 0.05106 0.53088 0.48133 0.0
C527 C 0.03088 0.51403 0.49368 0.0
H528 H 0.66215 0.79295 0.73967 0.0
H529 H 0.73817 0.7849 0.69918 0.0
H530 H 0.77312 0.75274 0.7193 0.0
H531 H 0.78251 0.72687 0.7483 0.0
H532 H 0.70722 0.73478 0.78913 0.0
H533 H 0.67176 0.76689 0.769 0.0
C534 C 0.68635 0.78416 0.73526 0.0
C535 C 0.69742 0.79141 0.71791 0.0
C536 C 0.70655 0.76559 0.74696 0.0
C537 C 0.72892 0.7798 0.71244 0.0
C538 C 0.74901 0.76133 0.72394 0.0
C539 C 0.75833 0.73554 0.75283 0.0
C540 C 0.7476 0.72834 0.77022 0.0
C541 C 0.73811 0.75408 0.74122 0.0
C542 C 0.71618 0.73992 0.77582 0.0
C543 C 0.69584 0.75831 0.7643 0.0
H544 H 0.47542 0.51327 0.95695 0.0
H545 H 0.54466 0.4321 0.96486 0.0
H546 H 0.58308 0.46984 0.97998 0.0
H547 H 0.59574 0.52521 -0.00775 0.0
H548 H 0.52492 0.6054 -0.01413 0.0
H549 H 0.48861 0.56884 0.9686 0.0
C550 C 0.49898 0.50382 0.9619 0.0
C551 C 0.50707 0.46986 0.95982 0.0
C552 C 0.52074 0.52555 0.97079 0.0
C553 C 0.53769 0.45807 0.96637 0.0
C554 C 0.55973 0.47967 0.97498 0.0
C555 C 0.57262 0.53485 -0.01317 0.0
C556 C 0.56309 0.56803 -0.00974 0.0
C557 C 0.55139 0.51338 0.9774 0.0
C558 C 0.53281 0.57997 0.98339 0.0
C559 C 0.51199 0.55905 0.97358 0.0
H560 H 0.71346 0.23348 0.1767 0.0
H561 H 0.75276 0.15728 0.21161 0.0
H562 H 0.71968 0.17916 0.23609 0.0
H563 H 0.68105 0.22078 0.24788 0.0
H564 H 0.64228 0.29777 0.21332 0.0
H565 H 0.67354 0.27453 0.18841 0.0
C566 C 0.71471 0.22158 0.18964 0.0
C567 C 0.73569 0.19383 0.19229 0.0
C568 C 0.69572 0.2344 0.20375 0.0
C569 C 0.73695 0.17873 0.20917 0.0
C570 C 0.71801 0.19121 0.2232 0.0
C571 C 0.67922 0.23242 0.23488 0.0
C572 C 0.65938 0.26104 0.23251 0.0
C573 C 0.69751 0.21916 0.22068 0.0
C574 C 0.65739 0.27575 0.21555 0.0
C575 C 0.67531 0.2625 0.2013 0.0
H576 H 0.25033 0.28073 0.75745 0.0
H577 H 0.22319 0.37415 0.73253 0.0
H578 H 0.17976 0.3458 0.71562 0.0
H579 H 0.14885 0.29472 0.70827 0.0
H580 H 0.17468 0.20161 0.73396 0.0
H581 H 0.21906 0.22967 0.75028 0.0
C582 C 0.23507 0.29484 0.74822 0.0
C583 C 0.24007 0.32948 0.74621 0.0
C584 C 0.20972 0.27849 0.73877 0.0
C585 C 0.21984 0.34746 0.73434 0.0
C586 C 0.19497 0.33128 0.72468 0.0
C587 C 0.16416 0.28054 0.71744 0.0
C588 C 0.15841 0.2461 0.71987 0.0
C589 C 0.18954 0.29686 0.72687 0.0
C590 C 0.17845 0.22817 0.73186 0.0
C591 C 0.20393 0.24417 0.74117 0.0
H592 H 0.24138 0.70619 0.25381 0.0
H593 H 0.16626 0.70104 0.21304 0.0
H594 H 0.19806 0.74102 0.1949 0.0
H595 H 0.24648 0.77889 0.19111 0.0
H596 H 0.3204 0.7843 0.23255 0.0
H597 H 0.28967 0.74283 0.2499 0.0
C598 C 0.23196 0.71358 0.24091 0.0
C599 C 0.20142 0.70058 0.23482 0.0
C600 C 0.2501 0.73683 0.23069 0.0
C601 C 0.18968 0.71061 0.21807 0.0
C602 C 0.20783 0.73355 0.2077 0.0
C603 C 0.25591 0.77093 0.20391 0.0
C604 C 0.28572 0.78487 0.2105 0.0
C605 C 0.23794 0.74707 0.21395 0.0
C606 C 0.29752 0.7742 0.22714 0.0
C607 C 0.27997 0.7504 0.23709 0.0
H608 H 0.18374 0.21627 0.27996 0.0
H609 H 0.26221 0.19571 0.24218 0.0
H610 H 0.23233 0.22705 0.21943 0.0
H611 H 0.18467 0.26102 0.21036 0.0
H612 H 0.10586 0.28181 0.24786 0.0
H613 H 0.13519 0.24956 0.27063 0.0
C614 C 0.19429 0.21856 0.26674 0.0
C615 C 0.22526 0.20368 0.26283 0.0
C616 C 0.17697 0.2367 0.25368 0.0
C617 C 0.23847 0.20688 0.2456 0.0
C618 C 0.22141 0.22485 0.23256 0.0
C619 C 0.17382 0.25853 0.2235 0.0
C620 C 0.14314 0.27394 0.2274 0.0
C621 C 0.19076 0.23999 0.23648 0.0
C622 C 0.12945 0.27026 0.24449 0.0
C623 C 0.14622 0.25183 0.25752 0.0
H624 H 0.23249 0.80172 0.7662 0.0
H625 H 0.15765 0.8257 0.72712 0.0
H626 H 0.18601 0.7903 0.70553 0.0
H627 H 0.23127 0.75148 0.69799 0.0
H628 H 0.30556 0.7271 0.73732 0.0
H629 H 0.27811 0.76377 0.75856 0.0
C630 C 0.2224 0.79937 0.75294 0.0
C631 C 0.19294 0.81634 0.74831 0.0
C632 C 0.23867 0.7788 0.74064 0.0
C633 C 0.18027 0.81292 0.73106 0.0
C634 C 0.19645 0.79264 0.7187 0.0
C635 C 0.24153 0.75422 0.71119 0.0
C636 C 0.27041 0.73645 0.71605 0.0
C637 C 0.22554 0.77528 0.72339 0.0
C638 C 0.28333 0.74038 0.73322 0.0
C639 C 0.26766 0.76137 0.74539 0.0
H640 H 0.54896 0.98298 0.51544 0.0
H641 H 0.56681 0.91935 0.47039 0.0
H642 H 0.528 0.95258 0.45266 0.0
H643 H 0.48842 0.99925 0.45009 0.0
H644 H 0.47047 0.0624 0.49534 0.0
H645 H 0.50992 0.02972 0.51283 0.0
C646 C 0.54448 0.97637 0.50173 0.0
C647 C 0.56081 0.94867 0.49428 0.0
C648 C 0.52204 0.99546 0.49164 0.0
C649 C 0.5546 0.94052 0.47648 0.0
C650 C 0.53238 0.9595 0.46633 0.0
C651 C 0.49314 0.00592 0.46377 0.0
C652 C 0.47641 0.03326 0.47137 0.0
C653 C 0.51586 0.98695 0.4738 0.0
C654 C 0.4829 0.04149 0.48913 0.0
C655 C 0.5055 0.02281 0.49916 0.0
H656 H 0.0843 0.95728 -0.0142 0.0
H657 H 0.13983 0.03821 0.96148 0.0
H658 H 0.10028 0.07852 0.97339 0.0
H659 H 0.04798 0.09065 -0.01088 0.0
H660 H 0.99222 0.00973 0.01328 0.0
H661 H 0.03381 0.96977 0.00308 0.0
C662 C 0.08797 0.98376 0.98326 0.0
C663 C 0.11489 0.99461 0.97264 0.0
C664 C 0.06492 0.00688 -0.00999 0.0
C665 C 0.11926 0.02906 0.96953 0.0
C666 C 0.09659 0.0522 0.97631 0.0
C667 C 0.04501 0.0643 -0.00776 0.0
C668 C 0.01684 0.05323 0.00182 0.0
C669 C 0.069 0.04136 -0.01371 0.0
C670 C 0.01356 0.01899 0.00586 0.0
C671 C 0.03734 0.99606 2e-05 0.0
H672 H 0.59728 0.02914 0.96182 0.0
H673 H 0.61265 0.09932 0.0043 0.0
H674 H 0.58113 0.06315 0.02452 0.0
H675 H 0.54787 0.0125 0.02999 0.0
H676 H 0.53205 0.94241 -0.01247 0.0
H677 H 0.56517 0.97766 0.96751 0.0
C678 C 0.59389 0.03651 0.97552 0.0
C679 C 0.60731 0.06704 0.98148 0.0
C680 C 0.57557 0.01564 -0.01291 0.0
C681 C 0.60262 0.07605 -0.0007 0.0
C682 C 0.58454 0.05538 0.0109 0.0
C683 C 0.55172 0.00481 0.01637 0.0
C684 C 0.53734 0.97483 0.01029 0.0
C685 C 0.57069 0.02525 0.0049 0.0
C686 C 0.54274 0.96533 -0.00741 0.0
C687 C 0.56167 0.98551 0.98111 0.0
H688 H 0.98521 0.02456 0.50977 0.0
H689 H 0.08181 0.98489 0.49579 0.0
H690 H 0.05553 0.94638 0.47499 0.0
H691 H 0.00493 0.92372 0.46089 0.0
H692 H 0.90869 0.9644 0.47481 0.0
H693 H 0.93508 0.00257 0.49558 0.0
C694 C 0.0006 0.00756 0.50216 0.0
C695 C 0.03543 0.00762 0.50437 0.0
C696 C 0.98536 0.98551 0.49026 0.0
C697 C 0.05493 0.98543 0.49434 0.0
C698 C 0.03991 0.96332 0.48247 0.0
C699 C 0.98973 0.94083 0.46853 0.0
C700 C 0.95486 0.94111 0.46632 0.0
C701 C 0.00512 0.96304 0.48037 0.0
C702 C 0.93557 0.96364 0.47623 0.0
C703 C 0.95063 0.98553 0.48811 0.0
H704 H 0.0375 0.20428 0.01316 0.0
H705 H 0.97098 0.28724 0.00382 0.0
H706 H 0.01725 0.32637 0.0068 0.0
H707 H 0.07516 0.3375 0.01479 0.0
H708 H 0.14147 0.25521 0.02595 0.0
H709 H 0.09692 0.21547 0.01922 0.0
C710 C 0.03324 0.23089 0.01155 0.0
C711 C 0.00073 0.24278 0.00845 0.0
C712 C 0.05992 0.25345 0.01364 0.0
C713 C 0.99564 0.27737 0.00644 0.0
C714 C 0.02211 0.29983 0.00809 0.0
C715 C 0.08014 0.31088 0.01544 0.0
C716 C 0.11161 0.29942 0.02097 0.0
C717 C 0.05418 0.28821 0.0121 0.0
C718 C 0.11744 0.26478 0.02182 0.0
C719 C 0.09193 0.24201 0.01804 0.0
H720 H 0.98189 0.6826 0.26361 0.0
H721 H 0.07121 0.74161 0.25602 0.0
H722 H 0.03744 0.79137 0.25066 0.0
H723 H 0.98285 0.81907 0.25135 0.0
H724 H 0.89348 0.75986 0.25862 0.0
H725 H 0.92698 0.70917 0.2605 0.0
C726 C 0.99395 0.7063 0.26062 0.0
C727 C 0.02899 0.70852 0.26052 0.0
C728 C 0.97439 0.73479 0.2575 0.0
C729 C 0.04427 0.73924 0.25627 0.0
C730 C 0.02498 0.76774 0.25326 0.0
C731 C 0.97063 0.79503 0.25305 0.0
C732 C 0.93572 0.79341 0.25512 0.0
C733 C 0.99006 0.76596 0.2543 0.0
C734 C 0.9203 0.76195 0.25705 0.0
C735 C 0.93946 0.73292 0.25826 0.0
H736 H 0.45463 0.7292 0.51417 0.0
H737 H 0.51311 0.63922 0.51942 0.0
H738 H 0.56438 0.67159 0.51586 0.0
H739 H 0.5927 0.72611 0.51483 0.0
H740 H 0.53422 0.81603 0.50918 0.0
H741 H 0.48305 0.78294 0.50903 0.0
C742 C 0.47857 0.71661 0.51429 0.0
C743 C 0.47998 0.68192 0.51735 0.0
C744 C 0.50805 0.73538 0.51227 0.0
C745 C 0.51122 0.66592 0.51718 0.0
C746 C 0.54062 0.68444 0.51522 0.0
C747 C 0.5688 0.73845 0.51328 0.0
C748 C 0.56735 0.77355 0.51232 0.0
C749 C 0.53936 0.71929 0.5133 0.0
C750 C 0.53616 0.78906 0.51004 0.0
C751 C 0.50679 0.77017 0.51006 0.0
H752 H 0.52216 0.2445 0.75962 0.0
H753 H 0.44522 0.16944 0.76547 0.0
H754 H 0.40252 0.21285 0.76536 0.0
H755 H 0.38795 0.27212 0.76821 0.0
H756 H 0.46549 0.34701 0.76492 0.0
H757 H 0.50691 0.30374 0.75913 0.0
C758 C 0.49601 0.23754 0.76045 0.0
C759 C 0.48696 0.20377 0.76276 0.0
C760 C 0.47167 0.26269 0.76103 0.0
C761 C 0.45292 0.19526 0.76387 0.0
C762 C 0.42847 0.22009 0.76385 0.0
C763 C 0.41376 0.27906 0.76577 0.0
C764 C 0.42367 0.31271 0.76715 0.0
C765 C 0.43766 0.25393 0.76313 0.0
C766 C 0.45727 0.32125 0.76408 0.0
C767 C 0.48099 0.29651 0.76083 0.0
H768 H 0.01465 0.79644 0.4332 0.0
H769 H 0.93777 0.72068 0.43426 0.0
H770 H 0.97981 0.67743 0.43881 0.0
H771 H 0.03854 0.66056 0.4386 0.0
H772 H 0.11567 0.73579 0.43481 0.0
H773 H 0.0735 0.77979 0.43551 0.0
C774 C 0.00706 0.77054 0.43481 0.0
C775 C 0.97317 0.76176 0.43329 0.0
C776 C 0.03148 0.74565 0.43679 0.0
C777 C 0.96374 0.72805 0.43523 0.0
C778 C 0.98777 0.7033 0.43782 0.0
C779 C 0.04619 0.68659 0.43836 0.0
C780 C 0.08018 0.69488 0.43659 0.0
C781 C 0.02176 0.7117 0.43805 0.0
C782 C 0.08963 0.72875 0.43609 0.0
C783 C 0.06552 0.75392 0.43642 0.0
H784 H 0.54842 0.76102 0.69429 0.0
H785 H 0.47499 0.83968 0.69383 0.0
H786 H 0.43037 0.79852 0.69768 0.0
H787 H 0.41193 0.74027 0.69709 0.0
H788 H 0.48488 0.66123 0.69473 0.0
H789 H 0.52996 0.70238 0.69633 0.0
C790 C 0.52271 0.76916 0.69545 0.0
C791 C 0.51495 0.80328 0.6937 0.0
C792 C 0.49707 0.74524 0.69696 0.0
C793 C 0.48152 0.81349 0.69502 0.0
C794 C 0.456 0.78998 0.69719 0.0
C795 C 0.43766 0.73192 0.69732 0.0
C796 C 0.445 0.69771 0.69566 0.0
C797 C 0.46341 0.75576 0.69756 0.0
C798 C 0.47854 0.68743 0.69586 0.0
C799 C 0.50434 0.71096 0.69672 0.0
H800 H 0.56628 0.18117 0.94785 0.0
H801 H 0.63975 0.26014 0.94584 0.0
H802 H 0.59599 0.30185 0.94971 0.0
H803 H 0.5366 0.31605 0.94837 0.0
H804 H 0.46294 0.23704 0.94806 0.0
H805 H 0.50693 0.19533 0.95057 0.0
C806 C 0.57281 0.20743 0.94885 0.0
C807 C 0.60614 0.21759 0.94642 0.0
C808 C 0.54737 0.23137 0.95028 0.0
C809 C 0.6142 0.25174 0.94757 0.0
C810 C 0.58917 0.27561 0.94966 0.0
C811 C 0.53007 0.28976 0.94922 0.0
C812 C 0.4965 0.27975 0.94768 0.0
C813 C 0.55556 0.26579 0.95017 0.0
C814 C 0.48858 0.24551 0.94892 0.0
C815 C 0.51375 0.22157 0.95035 0.0
H816 H 0.00608 0.24867 0.1946 0.0
H817 H 0.92954 0.32311 0.18733 0.0
H818 H 0.88732 0.2792 0.18494 0.0
H819 H 0.87391 0.22009 0.18007 0.0
H820 H 0.95163 0.14609 0.1842 0.0
H821 H 0.99148 0.18923 0.19298 0.0
C822 C 0.98003 0.25532 0.19297 0.0
C823 C 0.971 0.2891 0.19101 0.0
C824 C 0.95613 0.22992 0.19084 0.0
C825 C 0.93717 0.29728 0.18874 0.0
C826 C 0.91303 0.27217 0.18732 0.0
C827 C 0.89932 0.21327 0.1834 0.0
C828 C 0.90987 0.17999 0.18142 0.0
C829 C 0.92244 0.23843 0.18763 0.0
C830 C 0.94299 0.17159 0.18554 0.0
C831 C 0.96581 0.19626 0.19048 0.0
H832 H 0.03746 0.70829 0.96097 0.0
H833 H 0.96712 0.78978 0.95916 0.0
H834 H 0.01283 0.82999 0.96127 0.0
H835 H 0.07285 0.84205 0.95948 0.0
H836 H 0.14315 0.76053 0.95905 0.0
H837 H 0.09744 0.72041 0.96228 0.0
C838 C 0.03202 0.73481 0.96139 0.0
C839 C 0.99886 0.74594 0.95969 0.0
C840 C 0.05851 0.75788 0.96207 0.0
C841 C 0.99239 0.78047 0.96025 0.0
C842 C 0.01855 0.80353 0.96143 0.0
C843 C 0.07826 0.81556 0.96054 0.0
C844 C 0.11138 0.80431 0.95889 0.0
C845 C 0.05175 0.79254 0.96174 0.0
C846 C 0.11787 0.76985 0.96015 0.0
C847 C 0.09172 0.74687 0.96193 0.0
H848 H 0.95857 0.35458 0.70027 0.0
H849 H 0.86587 0.29965 0.70448 0.0
H850 H 0.89659 0.24769 0.70835 0.0
H851 H 0.9494 0.21703 0.70631 0.0
H852 H 0.04219 0.27167 0.7022 0.0
H853 H 0.0118 0.32446 0.70279 0.0
C854 C 0.94506 0.33133 0.70235 0.0
C855 C 0.90994 0.33103 0.70173 0.0
C856 C 0.96289 0.30137 0.70442 0.0
C857 C 0.89288 0.30071 0.70474 0.0
C858 C 0.91044 0.27087 0.70687 0.0
C859 C 0.96302 0.2405 0.70585 0.0
C860 C 0.99795 0.24038 0.70389 0.0
C861 C 0.94539 0.27077 0.70606 0.0
C862 C 0.01528 0.271 0.70362 0.0
C863 C 0.9979 0.30124 0.70385 0.0
H864 H 0.52807 0.30443 0.45511 0.0
H865 H 0.59481 0.22192 0.44554 0.0
H866 H 0.54978 0.18234 0.45186 0.0
H867 H 0.49006 0.17142 0.4561 0.0
H868 H 0.42246 0.25406 0.46335 0.0
H869 H 0.46929 0.29325 0.46226 0.0
C870 C 0.53297 0.2778 0.45476 0.0
C871 C 0.56469 0.26619 0.44967 0.0
C872 C 0.50669 0.25516 0.45786 0.0
C873 C 0.57053 0.23155 0.44922 0.0
C874 C 0.54478 0.20888 0.45282 0.0
C875 C 0.48563 0.19793 0.45787 0.0
C876 C 0.45277 0.20981 0.45966 0.0
C877 C 0.51251 0.22042 0.45656 0.0
C878 C 0.44748 0.24428 0.46181 0.0
C879 C 0.47424 0.26672 0.46112 0.0
H880 H 0.42225 0.77496 0.20437 0.0
H881 H 0.50648 0.8404 0.21286 0.0
H882 H 0.54382 0.79225 0.21361 0.0
H883 H 0.55332 0.73259 0.20789 0.0
H884 H 0.46925 0.66815 0.1972 0.0
H885 H 0.43111 0.71487 0.20141 0.0
C886 C 0.44867 0.77873 0.20678 0.0
C887 C 0.46155 0.81133 0.20839 0.0
C888 C 0.47013 0.75108 0.20655 0.0
C889 C 0.4959 0.81562 0.21144 0.0
C890 C 0.51731 0.78809 0.2118 0.0
C891 C 0.52662 0.72862 0.2068 0.0
C892 C 0.5142 0.69698 0.20204 0.0
C893 C 0.50484 0.75584 0.20874 0.0
C894 C 0.47951 0.69232 0.20064 0.0
C895 C 0.45766 0.71903 0.20305 0.0
H896 H 0.94428 0.21642 0.5209 0.0
H897 H 0.0099 0.30157 0.52579 0.0
H898 H 0.0583 0.26469 0.52605 0.0
H899 H 0.08113 0.20801 0.5291 0.0
H900 H 0.01579 0.12281 0.52357 0.0
H901 H 0.96833 0.15993 0.51893 0.0
C902 C 0.96922 0.2269 0.52173 0.0
C903 C 0.97345 0.2616 0.52364 0.0
C904 C 0.99701 0.20554 0.52182 0.0
C905 C 0.00593 0.27492 0.52438 0.0
C906 C 0.03364 0.25383 0.52462 0.0
C907 C 0.05663 0.19758 0.52648 0.0
C908 C 0.05193 0.16273 0.52696 0.0
C909 C 0.02938 0.21906 0.52396 0.0
C910 C 0.02013 0.14955 0.52329 0.0
C911 C 0.99287 0.17077 0.5208 0.0
H912 H 0.44582 0.16929 0.27996 0.0
H913 H 0.36464 0.23949 0.28373 0.0
H914 H 0.40323 0.28586 0.27827 0.0
H915 H 0.46104 0.3067 0.2762 0.0
H916 H 0.54191 0.23638 0.27118 0.0
H917 H 0.50244 0.18984 0.27306 0.0
C918 C 0.43654 0.19471 0.27925 0.0
C919 C 0.40256 0.20102 0.28247 0.0
C920 C 0.45884 0.22124 0.27601 0.0
C921 C 0.39071 0.23399 0.28129 0.0
C922 C 0.4128 0.26055 0.27829 0.0
C923 C 0.46991 0.28118 0.27519 0.0
C924 C 0.50434 0.27497 0.2738 0.0
C925 C 0.44706 0.25452 0.2762 0.0
C926 C 0.51551 0.24183 0.27225 0.0
C927 C 0.49298 0.21518 0.27345 0.0
H928 H 0.54872 0.82064 0.03009 0.0
H929 H 0.46474 0.75411 0.02379 0.0
H930 H 0.50253 0.70665 0.0207 0.0
H931 H 0.55879 0.68319 0.02396 0.0
H932 H 0.64212 0.74922 0.03321 0.0
H933 H 0.60544 0.7977 0.03073 0.0
C934 C 0.53875 0.79588 0.02761 0.0
C935 C 0.50401 0.79086 0.02724 0.0
C936 C 0.56056 0.76852 0.02657 0.0
C937 C 0.49142 0.75856 0.02424 0.0
C938 C 0.51299 0.7314 0.02251 0.0
C939 C 0.56902 0.70823 0.02499 0.0
C940 C 0.60305 0.71265 0.02882 0.0
C941 C 0.54754 0.73592 0.02427 0.0
C942 C 0.61593 0.74522 0.03036 0.0
C943 C 0.59496 0.77293 0.02899 0.0
H944 H 0.97243 0.70559 0.77551 0.0
H945 H 0.88552 0.76685 0.78422 0.0
H946 H 0.91959 0.8173 0.78113 0.0
H947 H 0.97528 0.84337 0.78041 0.0
H948 H 0.06205 0.78196 0.77139 0.0
H949 H 0.02674 0.7323 0.76987 0.0
C950 C 0.96085 0.73001 0.77638 0.0
C951 C 0.92665 0.73249 0.78039 0.0
C952 C 0.98061 0.75888 0.77471 0.0
C953 C 0.91183 0.76425 0.78119 0.0
C954 C 0.93135 0.79313 0.77956 0.0
C955 C 0.98639 0.81919 0.77779 0.0
C956 C 0.02128 0.81629 0.77636 0.0
C957 C 0.96596 0.79067 0.77701 0.0
C958 C 0.03527 0.7849 0.77264 0.0
C959 C 0.01512 0.75642 0.77187 0.0
H960 H 0.329 0.38732 0.95666 0.0
H961 H 0.39554 0.35122 -0.00285 0.0
H962 H 0.35036 0.35452 0.01925 0.0
H963 H 0.29082 0.36316 0.02608 0.0
H964 H 0.22489 0.40039 -0.01464 0.0
H965 H 0.27117 0.40144 0.96415 0.0
C966 C 0.33362 0.38082 0.97043 0.0
C967 C 0.36516 0.36907 0.97547 0.0
C968 C 0.30768 0.38264 0.98283 0.0
C969 C 0.37133 0.36059 -0.00681 0.0
C970 C 0.3455 0.36223 0.0057 0.0
C971 C 0.28664 0.37161 0.01257 0.0
C972 C 0.25442 0.38115 0.00716 0.0
C973 C 0.31338 0.37243 0.00053 0.0
C974 C 0.24943 0.39274 -0.01023 0.0
C975 C 0.27583 0.39331 0.97766 0.0
H976 H 0.88105 0.01157 0.17398 0.0
H977 H 0.78846 0.04655 0.19667 0.0
H978 H 0.78645 0.99746 0.21618 0.0
H979 H 0.81404 0.94752 0.22873 0.0
H980 H 0.90901 0.91636 0.20767 0.0
H981 H 0.90668 0.96063 0.18516 0.0
C982 C 0.86021 0.00847 0.18307 0.0
C983 C 0.8351 0.03297 0.18396 0.0
C984 C 0.85956 0.98065 0.19441 0.0
C985 C 0.8083 0.0283 0.19582 0.0
C986 C 0.80708 1.00017 0.20694 0.0
C987 C 0.83362 0.94994 0.21882 0.0
C988 C 0.8614 0.92863 0.21953 0.0
C989 C 0.83291 0.97652 0.20658 0.0
C990 C 0.88724 0.93235 0.20709 0.0
C991 C 0.88605 0.9578 0.19439 0.0
H992 H 0.25824 0.61269 0.44122 0.0
H993 H 0.18639 0.61632 0.4839 0.0
H994 H 0.23174 0.61809 0.50558 0.0
H995 H 0.29156 0.62048 0.51217 0.0
H996 H 0.36376 0.61218 0.46993 0.0
H997 H 0.31841 0.61013 0.44807 0.0
C998 C 0.25262 0.61384 0.45529 0.0
C999 C 0.21919 0.61484 0.46105 0.0
C1000 C 0.27875 0.61401 0.46761 0.0
C1001 C 0.212 0.61561 0.47925 0.0
C1002 C 0.23786 0.61671 0.49159 0.0
C1003 C 0.29728 0.61817 0.49815 0.0
C1004 C 0.33071 0.61699 0.4925 0.0
C1005 C 0.27125 0.61623 0.48589 0.0
C1006 C 0.33808 0.61326 0.47444 0.0
C1007 C 0.31223 0.61219 0.46202 0.0
H1008 H 0.57441 0.0274 0.75965 0.0
H1009 H 0.57172 0.09234 0.71379 0.0
H1010 H 0.57891 0.04387 0.69433 0.0
H1011 H 0.58425 0.98312 0.69063 0.0
H1012 H 0.59065 0.91881 0.73665 0.0
H1013 H 0.58403 0.96734 0.75603 0.0
C1014 C 0.57525 0.03089 0.74537 0.0
C1015 C 0.57188 0.06313 0.73803 0.0
C1016 C 0.58019 0.00321 0.73444 0.0
C1017 C 0.57398 0.06763 0.71962 0.0
C1018 C 0.57807 0.03999 0.70856 0.0
C1019 C 0.58424 0.97977 0.70492 0.0
C1020 C 0.58745 0.94752 0.71229 0.0
C1021 C 0.58093 0.0077 0.71586 0.0
C1022 C 0.58815 0.94345 0.73076 0.0
C1023 C 0.58423 0.97111 0.74178 0.0
H1024 H 0.77627 0.63815 0.03186 0.0
H1025 H 0.71242 0.63593 -0.0141 0.0
H1026 H 0.76033 0.64813 0.96672 0.0
H1027 H 0.8196 0.66117 0.96319 0.0
H1028 H 0.88481 0.6595 0.00853 0.0
H1029 H 0.83688 0.64712 0.028 0.0
C1030 C 0.77292 0.64022 0.01763 0.0
C1031 C 0.74087 0.63648 0.01027 0.0
C1032 C 0.80063 0.64677 0.0067 0.0
C1033 C 0.73687 0.63865 -0.00818 0.0
C1034 C 0.76418 0.6458 0.98089 0.0
C1035 C 0.82327 0.65831 0.97738 0.0
C1036 C 0.85538 0.66194 -0.01542 0.0
C1037 C 0.796 0.6503 -0.01177 0.0
C1038 C 0.86015 0.65716 0.00282 0.0
C1039 C 0.83283 0.65007 0.01388 0.0
H1040 H 0.03037 0.9871 0.76662 0.0
H1041 H 0.12575 0.9634 0.74303 0.0
H1042 H 0.12609 0.01714 0.72748 0.0
H1043 H 0.09947 0.07087 0.72072 0.0
H1044 H 0.00223 0.09272 0.74216 0.0
H1045 H 0.00281 0.03999 0.75902 0.0
C1046 C 0.05114 0.99357 0.75798 0.0
C1047 C 0.07802 0.97128 0.75601 0.0
C1048 C 0.05118 0.02445 0.7491 0.0
C1049 C 0.10461 0.97994 0.74466 0.0
C1050 C 0.10502 0.01081 0.73592 0.0
C1051 C 0.07883 0.06433 0.72946 0.0
C1052 C 0.05131 0.0858 0.73078 0.0
C1053 C 0.07864 0.03337 0.73822 0.0
C1054 C 0.02397 0.07674 0.74142 0.0
C1055 C 0.02417 0.04652 0.75083 0.0
H1056 H 0.7884 0.32919 0.51461 0.0
H1057 H 0.85637 0.32273 0.47033 0.0
H1058 H 0.80907 0.32538 0.44966 0.0
H1059 H 0.74833 0.32892 0.44455 0.0
H1060 H 0.68146 0.3405 0.48905 0.0
H1061 H 0.72863 0.33661 0.50951 0.0
C1062 C 0.79279 0.32817 0.50041 0.0
C1063 C 0.82553 0.32512 0.49388 0.0
C1064 C 0.7658 0.33074 0.4888 0.0
C1065 C 0.83123 0.32478 0.47554 0.0
C1066 C 0.80426 0.32629 0.4638 0.0
C1067 C 0.74418 0.33055 0.45874 0.0
C1068 C 0.71158 0.33459 0.4654 0.0
C1069 C 0.77145 0.32915 0.47032 0.0
C1070 C 0.7064 0.33736 0.48372 0.0
C1071 C 0.73328 0.33504 0.49537 0.0
H1072 H 0.3792 0.02689 0.28244 0.0
H1073 H 0.29743 0.06522 0.25121 0.0
H1074 H 0.30064 0.01622 0.23198 0.0
H1075 H 0.32945 0.96441 0.22295 0.0
H1076 H 0.41341 0.92915 0.2532 0.0
H1077 H 0.40601 0.97474 0.27436 0.0
C1078 C 0.36191 0.02467 0.27147 0.0
C1079 C 0.33826 0.04996 0.2682 0.0
C1080 C 0.36403 0.99671 0.2605 0.0
C1081 C 0.31606 0.04634 0.25395 0.0
C1082 C 0.31779 0.01825 0.24301 0.0
C1083 C 0.34538 0.96632 0.23451 0.0
C1084 C 0.37142 0.94332 0.23691 0.0
C1085 C 0.3419 0.99346 0.24607 0.0
C1086 C 0.39281 0.94635 0.25145 0.0
C1087 C 0.3888 0.97255 0.26336 0.0
H1088 H 0.79257 0.83597 0.43413 0.0
H1089 H 0.86224 0.83683 0.47759 0.0
H1090 H 0.81573 0.83644 0.49882 0.0
H1091 H 0.75553 0.83466 0.50482 0.0
H1092 H 0.68568 0.83888 0.46152 0.0
H1093 H 0.73218 0.83858 0.44018 0.0
C1094 C 0.79748 0.83602 0.44827 0.0
C1095 C 0.83059 0.83591 0.45441 0.0
C1096 C 0.77073 0.83669 0.46028 0.0
C1097 C 0.83687 0.83677 0.47267 0.0
C1098 C 0.81035 0.83648 0.48475 0.0
C1099 C 0.75057 0.83542 0.49068 0.0
C1100 C 0.71746 0.8362 0.48461 0.0
C1101 C 0.77726 0.83619 0.47867 0.0
C1102 C 0.71109 0.83806 0.46637 0.0
C1103 C 0.73759 0.83785 0.45424 0.0
H1104 H 0.3432 0.52781 0.70212 0.0
H1105 H 0.3587 0.59928 0.74383 0.0
H1106 H 0.35615 0.55414 0.76604 0.0
H1107 H 0.3534 0.49394 0.77308 0.0
H1108 H 0.3343 0.42313 0.73142 0.0
H1109 H 0.33405 0.4686 0.7095 0.0
C1110 C 0.34574 0.53343 0.71612 0.0
C1111 C 0.35159 0.56649 0.72146 0.0
C1112 C 0.34371 0.50758 0.72867 0.0
C1113 C 0.35424 0.57387 0.73954 0.0
C1114 C 0.35293 0.54811 0.75216 0.0
C1115 C 0.34898 0.48858 0.7592 0.0
C1116 C 0.34441 0.45535 0.75373 0.0
C1117 C 0.34832 0.51483 0.74681 0.0
C1118 C 0.338 0.44858 0.73584 0.0
C1119 C 0.33797 0.4745 0.72335 0.0
H1120 H 0.86179 0.11471 0.97931 0.0
H1121 H 0.88615 0.20771 0.9529 0.0
H1122 H 0.82989 0.21062 0.94073 0.0
H1123 H 0.77405 0.18809 0.93836 0.0
H1124 H 0.74772 0.09551 0.96475 0.0
H1125 H 0.80451 0.09154 0.97666 0.0
C1126 C 0.85488 0.13521 0.9706 0.0
C1127 C 0.87811 0.16078 0.96675 0.0
C1128 C 0.82212 0.13719 0.96404 0.0
C1129 C 0.86871 0.18766 0.95585 0.0
C1130 C 0.83653 0.18945 0.94903 0.0
C1131 C 0.7805 0.16693 0.94674 0.0
C1132 C 0.75658 0.14207 0.95061 0.0
C1133 C 0.81301 0.16462 0.95323 0.0
C1134 C 0.76555 0.11511 0.96163 0.0
C1135 C 0.79809 0.1127 0.96831 0.0
H1136 H 0.06023 0.51963 0.26193 0.0
H1137 H 0.07859 0.57839 0.21468 0.0
H1138 H 0.06747 0.52915 0.19633 0.0
H1139 H 0.05376 0.4694 0.194 0.0
H1140 H 0.04082 0.40981 0.24143 0.0
H1141 H 0.04833 0.4598 0.25966 0.0
C1142 C 0.06154 0.52176 0.24759 0.0
C1143 C 0.06979 0.55262 0.23959 0.0
C1144 C 0.05602 0.49334 0.23729 0.0
C1145 C 0.0722 0.55488 0.22107 0.0
C1146 C 0.06578 0.52681 0.21063 0.0
C1147 C 0.05214 0.46748 0.20834 0.0
C1148 C 0.04619 0.4362 0.21645 0.0
C1149 C 0.05773 0.49595 0.21863 0.0
C1150 C 0.04511 0.43373 0.23499 0.0
C1151 C 0.04947 0.46222 0.24535 0.0
H1152 H 0.22239 0.14321 0.53137 0.0
H1153 H 0.19632 0.05 0.50628 0.0
H1154 H 0.24897 0.05127 0.48972 0.0
H1155 H 0.30072 0.08078 0.48107 0.0
H1156 H 0.32379 0.17604 0.50439 0.0
H1157 H 0.27434 0.1716 0.5235 0.0
C1158 C 0.22815 0.12302 0.52234 0.0
C1159 C 0.20529 0.09661 0.52002 0.0
C1160 C 0.25818 0.12407 0.51281 0.0
C1161 C 0.21329 0.07078 0.50821 0.0
C1162 C 0.24347 0.07138 0.49883 0.0
C1163 C 0.29532 0.09998 0.49076 0.0
C1164 C 0.31601 0.12828 0.49179 0.0
C1165 C 0.26597 0.09803 0.50094 0.0
C1166 C 0.30841 0.15375 0.50379 0.0
C1167 C 0.28001 0.15137 0.5145 0.0
H1168 H 0.56886 0.46143 0.27017 0.0
H1169 H 0.56213 0.39986 0.22357 0.0
H1170 H 0.56156 0.45005 0.20472 0.0
H1171 H 0.56497 0.51096 0.20163 0.0
H1172 H 0.57748 0.57231 0.24798 0.0
H1173 H 0.57385 0.52241 0.267 0.0
C1174 C 0.56686 0.45906 0.25588 0.0
C1175 C 0.56505 0.42714 0.24819 0.0
C1176 C 0.56779 0.48784 0.24521 0.0
C1177 C 0.56335 0.42424 0.2297 0.0
C1178 C 0.56307 0.45286 0.21898 0.0
C1179 C 0.56657 0.51345 0.21593 0.0
C1180 C 0.57107 0.54522 0.22348 0.0
C1181 C 0.56553 0.48472 0.22661 0.0
C1182 C 0.57392 0.54808 0.24194 0.0
C1183 C 0.57181 0.51962 0.25276 0.0
H1184 H 0.29517 0.8759 0.95537 0.0
H1185 H 0.2274 0.89117 -0.00086 0.0
H1186 H 0.27465 0.89417 0.01961 0.0
H1187 H 0.33468 0.88896 0.0251 0.0
H1188 H 0.40299 0.87675 0.98135 0.0
H1189 H 0.35591 0.87657 0.96054 0.0
C1190 C 0.29084 0.87992 0.96941 0.0
C1191 C 0.25799 0.88269 0.9759 0.0
C1192 C 0.31807 0.8823 0.98094 0.0
C1193 C 0.25253 0.88874 -0.00604 0.0
C1194 C 0.27947 0.89042 0.00561 0.0
C1195 C 0.3392 0.88661 0.01097 0.0
C1196 C 0.37197 0.88248 0.00465 0.0
C1197 C 0.31223 0.88676 -0.00074 0.0
C1198 C 0.37786 0.87999 -0.01362 0.0
C1199 C 0.35099 0.87965 0.97458 0.0
H1200 H 0.89552 0.49784 0.71696 0.0
H1201 H 0.79361 0.47117 0.72957 0.0
H1202 H 0.78966 0.51925 0.74942 0.0
H1203 H 0.81564 0.56898 0.76324 0.0
H1204 H 0.91824 0.59303 0.75119 0.0
H1205 H 0.92117 0.54629 0.73057 0.0
C1206 C 0.87237 0.50238 0.72405 0.0
C1207 C 0.84488 0.48092 0.72175 0.0
C1208 C 0.87026 0.52998 0.73527 0.0
C1209 C 0.81524 0.48715 0.73119 0.0
C1210 C 0.81287 0.5148 0.74241 0.0
C1211 C 0.83833 0.56422 0.75579 0.0
C1212 C 0.86655 0.58451 0.7584 0.0
C1213 C 0.84018 0.53653 0.74445 0.0
C1214 C 0.89619 0.5778 0.74915 0.0
C1215 C 0.89793 0.551 0.73751 0.0
H1216 H 0.08033 0.38003 0.08171 0.0
H1217 H 0.18265 0.34793 0.0869 0.0
H1218 H 0.1696 0.32127 0.1152 0.0
H1219 H 0.13107 0.31355 0.14018 0.0
H1220 H 0.03029 0.35007 0.13628 0.0
H1221 H 0.04041 0.36776 0.10562 0.0
C1222 C 0.0997 0.36698 0.08897 0.0
C1223 C 0.13243 0.36615 0.08225 0.0
C1224 C 0.09222 0.35236 0.10545 0.0
C1225 C 0.15721 0.3489 0.09173 0.0
C1226 C 0.14981 0.33367 0.10796 0.0
C1227 C 0.11107 0.32436 0.13238 0.0
C1228 C 0.08009 0.33069 0.14034 0.0
C1229 C 0.11762 0.33595 0.11514 0.0
C1230 C 0.05441 0.34522 0.13033 0.0
C1231 C 0.06027 0.35553 0.11289 0.0
H1232 H 0.94348 0.89921 0.36508 0.0
H1233 H 0.91969 0.79635 0.37692 0.0
H1234 H 0.90016 0.78815 0.34663 0.0
H1235 H 0.8811 0.81293 0.3187 0.0
H1236 H 0.90304 0.91638 0.30696 0.0
H1237 H 0.93226 0.92173 0.33519 0.0
C1238 C 0.9352 0.87475 0.36076 0.0
C1239 C 0.93246 0.84853 0.37311 0.0
C1240 C 0.92289 0.87061 0.34351 0.0
C1241 C 0.92143 0.81697 0.36758 0.0
C1242 C 0.91012 0.81234 0.35033 0.0
C1243 C 0.89258 0.83653 0.32226 0.0
C1244 C 0.88929 0.86441 0.31104 0.0
C1245 C 0.90911 0.83946 0.3385 0.0
C1246 C 0.90494 0.89465 0.31554 0.0
C1247 C 0.92164 0.89774 0.33167 0.0
H1248 H 0.40825 0.63552 0.64318 0.0
H1249 H 0.32271 0.69274 0.6267 0.0
H1250 H 0.33737 0.68335 0.59558 0.0
H1251 H 0.36974 0.65241 0.57366 0.0
H1252 H 0.45444 0.59354 0.59013 0.0
H1253 H 0.44448 0.60957 0.62094 0.0
C1254 C 0.39276 0.64579 0.6328 0.0
C1255 C 0.36387 0.66384 0.63715 0.0
C1256 C 0.40099 0.63971 0.61506 0.0
C1257 C 0.34493 0.67853 0.6236 0.0
C1258 C 0.35317 0.67296 0.60585 0.0
C1259 C 0.38655 0.6436 0.58386 0.0
C1260 C 0.41266 0.62156 0.57959 0.0
C1261 C 0.38046 0.65261 0.60148 0.0
C1262 C 0.43405 0.61036 0.59308 0.0
C1263 C 0.42832 0.61946 0.61068 0.0
H1264 H 0.61546 0.19971 0.82548 0.0
H1265 H 0.54716 0.117 0.81953 0.0
H1266 H 0.5519 0.10366 0.85091 0.0
H1267 H 0.58216 0.11013 0.87893 0.0
H1268 H 0.65261 0.19109 0.88426 0.0
H1269 H 0.64032 0.21038 0.85447 0.0
C1270 C 0.60097 0.17929 0.83113 0.0
C1271 C 0.58137 0.15915 0.8201 0.0
C1272 C 0.60475 0.17094 0.8491 0.0
C1273 C 0.56273 0.13276 0.82764 0.0
C1274 C 0.56554 0.12497 0.84562 0.0
C1275 C 0.59439 0.13232 0.87367 0.0
C1276 C 0.61902 0.1485 0.88367 0.0
C1277 C 0.58758 0.14301 0.8563 0.0
C1278 C 0.63444 0.17738 0.87673 0.0
C1279 C 0.62721 0.18866 0.85966 0.0
H1280 H 0.07633 0.61809 0.31962 0.0
H1281 H 0.16569 0.67844 0.32081 0.0
H1282 H 0.17022 0.66888 0.35278 0.0
H1283 H 0.15192 0.6385 0.37943 0.0
H1284 H 0.06186 0.57907 0.37815 0.0
H1285 H 0.05463 0.59295 0.34686 0.0
C1286 C 0.09652 0.62964 0.32683 0.0
C1287 C 0.12082 0.64865 0.31777 0.0
C1288 C 0.0991 0.62376 0.34508 0.0
C1289 C 0.14663 0.66369 0.32746 0.0
C1290 C 0.14938 0.658 0.3457 0.0
C1291 C 0.13045 0.62894 0.37247 0.0
C1292 C 0.10763 0.60756 0.38116 0.0
C1293 C 0.12627 0.63729 0.35453 0.0
C1294 C 0.07992 0.59544 0.37179 0.0
C1295 C 0.07574 0.60337 0.35389 0.0
H1296 H 0.65417 0.81332 0.62949 0.0
H1297 H 0.55644 0.85604 0.63649 0.0
H1298 H 0.55085 0.86336 0.6045 0.0
H1299 H 0.57679 0.86407 0.57497 0.0
H1300 H 0.6754 0.82278 0.56814 0.0
H1301 H 0.67743 0.80804 0.59948 0.0
C1302 C 0.63135 0.82342 0.62393 0.0
C1303 C 0.6061 0.83491 0.63524 0.0
C1304 C 0.62864 0.8282 0.60555 0.0
C1305 C 0.57663 0.84801 0.628 0.0
C1306 C 0.57338 0.8521 0.60972 0.0
C1307 C 0.59855 0.85153 0.58031 0.0
C1308 C 0.62598 0.84486 0.56929 0.0
C1309 C 0.59979 0.84352 0.59843 0.0
C1310 C 0.65389 0.82826 0.57634 0.0
C1311 C 0.65516 0.81987 0.5943 0.0
H1312 H 0.40809 0.36339 0.82335 0.0
H1313 H 0.32109 0.31233 0.8438 0.0
H1314 H 0.34671 0.30932 0.87318 0.0
H1315 H 0.3898 0.32861 0.89351 0.0
H1316 H 0.47603 0.38178 0.87339 0.0
H1317 H 0.45467 0.3766 0.84319 0.0
C1318 C 0.39469 0.35178 0.83424 0.0
C1319 C 0.36232 0.33917 0.83164 0.0
C1320 C 0.40936 0.35064 0.85106 0.0
C1321 C 0.34591 0.32255 0.84561 0.0
C1322 C 0.36048 0.32097 0.86238 0.0
C1323 C 0.40441 0.33844 0.88255 0.0
C1324 C 0.43428 0.35597 0.88575 0.0
C1325 C 0.39165 0.33601 0.86536 0.0
C1326 C 0.45288 0.36835 0.8713 0.0
C1327 C 0.44057 0.36557 0.85405 0.0
H1328 H 0.81809 0.18301 0.09883 0.0
H1329 H 0.90404 0.15439 0.12945 0.0
H1330 H 0.93967 0.15952 0.10336 0.0
H1331 H 0.94446 0.16274 0.07113 0.0
H1332 H 0.85835 0.18895 0.03984 0.0
H1333 H 0.82499 0.19504 0.06678 0.0
C1334 C 0.84477 0.17885 0.09979 0.0
C1335 C 0.85845 0.16762 0.11584 0.0
C1336 C 0.86501 0.18105 0.08455 0.0
C1337 C 0.89294 0.16222 0.11707 0.0
C1338 C 0.91334 0.16523 0.10217 0.0
C1339 C 0.9186 0.17049 0.07021 0.0
C1340 C 0.90374 0.17463 0.05354 0.0
C1341 C 0.89936 0.17308 0.08569 0.0
C1342 C 0.87032 0.18519 0.05256 0.0
C1343 C 0.85113 0.18852 0.06796 0.0
H1344 H 0.90784 0.63963 0.83913 0.0
H1345 H 0.84341 0.7224 0.85191 0.0
H1346 H 0.86952 0.72668 0.88104 0.0
H1347 H 0.90678 0.70335 0.90358 0.0
H1348 H 0.9715 0.62102 0.89059 0.0
H1349 H 0.95022 0.62126 0.86025 0.0
C1350 C 0.89991 0.65913 0.84802 0.0
C1351 C 0.87354 0.68056 0.84329 0.0
C1352 C 0.91525 0.66166 0.86463 0.0
C1353 C 0.8635 0.70544 0.85522 0.0
C1354 C 0.87846 0.70794 0.87187 0.0
C1355 C 0.91664 0.68579 0.89409 0.0
C1356 C 0.94025 0.66182 0.89943 0.0
C1357 C 0.90383 0.68568 0.87683 0.0
C1358 C 0.9533 0.63971 0.88682 0.0
C1359 C 0.94086 0.6396 0.86953 0.0
H1360 H 0.09022 0.14388 0.58226 0.0
H1361 H 0.04116 0.05203 0.5974 0.0
H1362 H 0.02792 0.07554 0.62651 0.0
H1363 H 0.0392 0.11811 0.64889 0.0
H1364 H 0.09342 0.20773 0.6344 0.0
H1365 H 0.0957 0.1893 0.60359 0.0
C1366 C 0.07698 0.12889 0.59196 0.0
C1367 C 0.06799 0.09582 0.58807 0.0
C1368 C 0.07045 0.1422 0.60871 0.0
C1369 C 0.04881 0.0774 0.6003 0.0
C1370 C 0.04139 0.09079 0.61692 0.0
C1371 C 0.05082 0.13406 0.63894 0.0
C1372 C 0.06669 0.16397 0.64395 0.0
C1373 C 0.05335 0.12261 0.62149 0.0
C1374 C 0.08136 0.18444 0.63088 0.0
C1375 C 0.08286 0.17381 0.61331 0.0
H1376 H 0.64136 0.31933 0.38506 0.0
H1377 H 0.54749 0.37206 0.38664 0.0
H1378 H 0.53917 0.36107 0.35519 0.0
H1379 H 0.56122 0.34142 0.32691 0.0
H1380 H 0.65541 0.28978 0.32498 0.0
H1381 H 0.66037 0.29418 0.35723 0.0
C1382 C 0.61878 0.32791 0.37865 0.0
C1383 C 0.59525 0.34678 0.38816 0.0
C1384 C 0.61424 0.32165 0.36056 0.0
C1385 C 0.56614 0.35772 0.37959 0.0
C1386 C 0.56135 0.35145 0.36161 0.0
C1387 C 0.58277 0.33106 0.33351 0.0
C1388 C 0.6083 0.31609 0.32358 0.0
C1389 C 0.58568 0.33427 0.35189 0.0
C1390 C 0.6355 0.30158 0.33239 0.0
C1391 C 0.63847 0.30434 0.35078 0.0
H1392 H 0.47575 0.92161 0.09827 0.0
H1393 H 0.45376 0.82179 0.08073 0.0
H1394 H 0.43015 0.80769 0.10979 0.0
H1395 H 0.40796 0.82672 0.13844 0.0
H1396 H 0.4272 0.92796 0.15512 0.0
H1397 H 0.45969 0.9385 0.12835 0.0
C1398 C 0.46694 0.89645 0.10111 0.0
C1399 C 0.46628 0.87276 0.08754 0.0
C1400 C 0.45211 0.88905 0.11757 0.0
C1401 C 0.45427 0.84039 0.09109 0.0
C1402 C 0.44055 0.83243 0.10763 0.0
C1403 C 0.41956 0.85095 0.13628 0.0
C1404 C 0.41483 0.87656 0.14866 0.0
C1405 C 0.43789 0.85707 0.12068 0.0
C1406 C 0.43035 0.90774 0.14579 0.0
C1407 C 0.44896 0.91388 0.13045 0.0
H1408 H 0.8452 0.33178 0.63403 0.0
H1409 H 0.87952 0.43349 0.63989 0.0
H1410 H 0.9102 0.42994 0.61209 0.0
H1411 H 0.92239 0.40023 0.58456 0.0
H1412 H 0.88594 0.29971 0.57775 0.0
H1413 H 0.8617 0.3002 0.6075 0.0
C1414 C 0.85955 0.35306 0.62925 0.0
C1415 C 0.85991 0.38285 0.63899 0.0
C1416 C 0.8769 0.35104 0.61307 0.0
C1417 C 0.87887 0.41016 0.63271 0.0
C1418 C 0.89644 0.40822 0.61677 0.0
C1419 C 0.90998 0.37812 0.58981 0.0
C1420 C 0.90564 0.35012 0.57897 0.0
C1421 C 0.89512 0.37903 0.60667 0.0
C1422 C 0.88917 0.32174 0.5858 0.0
C1423 C 0.87519 0.32205 0.60278 0.0
H1424 H 0.38006 0.15108 0.33833 0.0
H1425 H 0.28318 0.1857 0.35484 0.0
H1426 H 0.30068 0.18299 0.38594 0.0
H1427 H 0.3399 0.16142 0.40805 0.0
H1428 H 0.43545 0.12278 0.39135 0.0
H1429 H 0.42189 0.1358 0.36051 0.0
C1430 C 0.3628 0.15795 0.34874 0.0
C1431 C 0.33007 0.16741 0.34447 0.0
C1432 C 0.37265 0.15512 0.36646 0.0
C1433 C 0.30845 0.1781 0.35793 0.0
C1434 C 0.31835 0.17622 0.37566 0.0
C1435 C 0.35812 0.15647 0.39774 0.0
C1436 C 0.38848 0.14071 0.40196 0.0
C1437 C 0.34986 0.16333 0.38006 0.0
C1438 C 0.41178 0.13456 0.38842 0.0
C1439 C 0.40403 0.14196 0.3708 0.0
H1440 H 0.57795 0.60538 0.14262 0.0
H1441 H 0.63974 0.69401 0.14213 0.0
H1442 H 0.64533 0.69028 0.10994 0.0
H1443 H 0.63763 0.65833 0.08266 0.0
H1444 H 0.57717 0.56904 0.08327 0.0
H1445 H 0.56531 0.57696 0.11482 0.0
C1446 C 0.59209 0.62431 0.13549 0.0
C1447 C 0.60873 0.6497 0.14478 0.0
C1448 C 0.59567 0.62167 0.11708 0.0
C1449 C 0.62686 0.67408 0.13529 0.0
C1450 C 0.6302 0.67187 0.11691 0.0
C1451 C 0.62209 0.64051 0.08972 0.0
C1452 C 0.60919 0.61256 0.08089 0.0
C1453 C 0.61568 0.64511 0.10779 0.0
C1454 C 0.58767 0.59053 0.08993 0.0
C1455 C 0.58099 0.595 0.10794 0.0
H1456 H 0.16059 0.83923 0.83629 0.0
H1457 H 0.06298 0.88421 0.83487 0.0
H1458 H 0.06437 0.89231 0.86687 0.0
H1459 H 0.09674 0.894 0.89432 0.0
H1460 H 0.19599 0.8523 0.8953 0.0
H1461 H 0.19041 0.83513 0.86454 0.0
C1462 C 0.13928 0.84996 0.84309 0.0
C1463 C 0.112 0.86168 0.83327 0.0
C1464 C 0.14078 0.85558 0.86139 0.0
C1465 C 0.08456 0.87566 0.84213 0.0
C1466 C 0.08536 0.88032 0.86043 0.0
C1467 C 0.11698 0.88078 0.88787 0.0
C1468 C 0.14684 0.87478 0.89702 0.0
C1469 C 0.11395 0.8717 0.87004 0.0
C1470 C 0.17273 0.85732 0.88856 0.0
C1471 C 0.16963 0.84756 0.87092 0.0
loop_
_geom_bond_atom_site_label_1
_geom_bond_atom_site_label_2
_geom_bond_distance
_geom_bond_site_symmetry_2
_ccdc_geom_bond_type
Mg0 O1 2.028 . S
Mg0 O7 1.986 . S
Mg0 O9 2.114 . S
Mg0 O10 2.251 . S
Mg0 O13 2.010 . S
O1 Mg0 2.028 . S
O1 C4 1.250 . S
O2 Mg3 2.028 . S
O2 C4 1.248 . S
Mg3 O2 2.028 . S
Mg3 O8 2.032 . S
Mg3 O10 2.079 . S
C4 O1 1.250 . S
C4 O2 1.248 . S
C5 O6 1.264 . S
C5 O13 1.249 . S
O6 C5 1.264 . S
O7 Mg0 1.986 . S
O7 C11 1.246 . S
O8 Mg3 2.032 . S
O8 C11 1.259 . S
O9 Mg0 2.114 . S
O9 C12 1.252 . S
O10 Mg0 2.251 . S
O10 Mg3 2.079 . S
O10 C12 1.273 . S
C11 O7 1.246 . S
C11 O8 1.259 . S
C12 O9 1.252 . S
C12 O10 1.273 . S
O13 Mg0 2.010 . S
O13 C5 1.249 . S
Mg14 O15 2.028 . S
Mg14 O21 1.986 . S
Mg14 O23 2.114 . S
Mg14 O24 2.251 . S
Mg14 O27 2.010 . S
O15 Mg14 2.028 . S
O15 C18 1.250 . S
O16 Mg17 2.028 . S
O16 C18 1.248 . S
Mg17 O16 2.028 . S
Mg17 O22 2.032 . S
Mg17 O24 2.079 . S
C18 O15 1.250 . S
C18 O16 1.248 . S
C19 O20 1.264 . S
C19 O27 1.249 . S
O20 C19 1.264 . S
O21 Mg14 1.986 . S
O21 C25 1.246 . S
O22 Mg17 2.032 . S
O22 C25 1.259 . S
O23 Mg14 2.114 . S
O23 C26 1.252 . S
O24 Mg14 2.251 . S
O24 Mg17 2.079 . S
O24 C26 1.273 . S
C25 O21 1.246 . S
C25 O22 1.259 . S
C26 O23 1.252 . S
C26 O24 1.273 . S
O27 Mg14 2.010 . S
O27 C19 1.249 . S
Mg28 O29 2.028 . S
Mg28 O35 1.986 . S
Mg28 O37 2.114 . S
Mg28 O38 2.251 . S
Mg28 O41 2.010 . S
O29 Mg28 2.028 . S
O29 C32 1.250 . S
O30 Mg31 2.028 . S
O30 C32 1.248 . S
Mg31 O30 2.028 . S
Mg31 O36 2.032 . S
Mg31 O38 2.079 . S
C32 O29 1.250 . S
C32 O30 1.248 . S
C33 O34 1.264 . S
C33 O41 1.249 . S
O34 C33 1.264 . S
O35 Mg28 1.986 . S
O35 C39 1.246 . S
O36 Mg31 2.032 . S
O36 C39 1.259 . S
O37 Mg28 2.114 . S
O37 C40 1.252 . S
O38 Mg28 2.251 . S
O38 Mg31 2.079 . S
O38 C40 1.273 . S
C39 O35 1.246 . S
C39 O36 1.259 . S
C40 O37 1.252 . S
C40 O38 1.273 . S
O41 Mg28 2.010 . S
O41 C33 1.249 . S
Mg42 O43 2.028 . S
Mg42 O49 1.986 . S
Mg42 O51 2.114 . S
Mg42 O52 2.251 . S
Mg42 O55 2.010 . S
O43 Mg42 2.028 . S
O43 C46 1.250 . S
O44 Mg45 2.028 . S
O44 C46 1.248 . S
Mg45 O44 2.028 . S
Mg45 O50 2.032 . S
Mg45 O52 2.079 . S
C46 O43 1.250 . S
C46 O44 1.248 . S
C47 O48 1.264 . S
C47 O55 1.249 . S
O48 C47 1.264 . S
O49 Mg42 1.986 . S
O49 C53 1.246 . S
O50 Mg45 2.032 . S
O50 C53 1.259 . S
O51 Mg42 2.114 . S
O51 C54 1.252 . S
O52 Mg42 2.251 . S
O52 Mg45 2.079 . S
O52 C54 1.273 . S
C53 O49 1.246 . S
C53 O50 1.259 . S
C54 O51 1.252 . S
C54 O52 1.273 . S
O55 Mg42 2.010 . S
O55 C47 1.249 . S
Mg56 O57 2.028 . S
Mg56 O63 1.986 . S
Mg56 O65 2.114 . S
Mg56 O66 2.251 . S
Mg56 O69 2.010 . S
O57 Mg56 2.028 . S
O57 C60 1.250 . S
O58 Mg59 2.028 . S
O58 C60 1.248 . S
Mg59 O58 2.028 . S
Mg59 O64 2.032 . S
Mg59 O66 2.079 . S
C60 O57 1.250 . S
C60 O58 1.248 . S
C61 O62 1.264 . S
C61 O69 1.249 . S
O62 C61 1.264 . S
O63 Mg56 1.986 . S
O63 C67 1.246 . S
O64 Mg59 2.032 . S
O64 C67 1.259 . S
O65 Mg56 2.114 . S
O65 C68 1.252 . S
O66 Mg56 2.251 . S
O66 Mg59 2.079 . S
O66 C68 1.273 . S
C67 O63 1.246 . S
C67 O64 1.259 . S
C68 O65 1.252 . S
C68 O66 1.273 . S
O69 Mg56 2.010 . S
O69 C61 1.249 . S
Mg70 O71 2.028 . S
Mg70 O77 1.986 . S
Mg70 O79 2.114 . S
Mg70 O80 2.251 . S
Mg70 O83 2.010 . S
O71 Mg70 2.028 . S
O71 C74 1.250 . S
O72 Mg73 2.028 . S
O72 C74 1.248 . S
Mg73 O72 2.028 . S
Mg73 O78 2.032 . S
Mg73 O80 2.079 . S
C74 O71 1.250 . S
C74 O72 1.248 . S
C75 O76 1.264 . S
C75 O83 1.249 . S
O76 C75 1.264 . S
O77 Mg70 1.986 . S
O77 C81 1.246 . S
O78 Mg73 2.032 . S
O78 C81 1.259 . S
O79 Mg70 2.114 . S
O79 C82 1.252 . S
O80 Mg70 2.251 . S
O80 Mg73 2.079 . S
O80 C82 1.273 . S
C81 O77 1.246 . S
C81 O78 1.259 . S
C82 O79 1.252 . S
C82 O80 1.273 . S
O83 Mg70 2.010 . S
O83 C75 1.249 . S
Mg84 O85 2.028 . S
Mg84 O91 1.986 . S
Mg84 O93 2.114 . S
Mg84 O94 2.251 . S
Mg84 O97 2.010 . S
O85 Mg84 2.028 . S
O85 C88 1.250 . S
O86 Mg87 2.028 . S
O86 C88 1.248 . S
Mg87 O86 2.028 . S
Mg87 O92 2.032 . S
Mg87 O94 2.079 . S
C88 O85 1.250 . S
C88 O86 1.248 . S
C89 O90 1.264 . S
C89 O97 1.249 . S
O90 C89 1.264 . S
O91 Mg84 1.986 . S
O91 C95 1.246 . S
O92 Mg87 2.032 . S
O92 C95 1.259 . S
O93 Mg84 2.114 . S
O93 C96 1.252 . S
O94 Mg84 2.251 . S
O94 Mg87 2.079 . S
O94 C96 1.273 . S
C95 O91 1.246 . S
C95 O92 1.259 . S
C96 O93 1.252 . S
C96 O94 1.273 . S
O97 Mg84 2.010 . S
O97 C89 1.249 . S
Mg98 O99 2.028 . S
Mg98 O105 1.986 . S
Mg98 O107 2.114 . S
Mg98 O108 2.251 . S
Mg98 O111 2.010 . S
O99 Mg98 2.028 . S
O99 C102 1.250 . S
O100 Mg101 2.028 . S
O100 C102 1.248 . S
Mg101 O100 2.028 . S
Mg101 O106 2.032 . S
Mg101 O108 2.079 . S
C102 O99 1.250 . S
C102 O100 1.248 . S
C103 O104 1.264 . S
C103 O111 1.249 . S
O104 C103 1.264 . S
O105 Mg98 1.986 . S
O105 C109 1.246 . S
O106 Mg101 2.032 . S
O106 C109 1.259 . S
O107 Mg98 2.114 . S
O107 C110 1.252 . S
O108 Mg98 2.251 . S
O108 Mg101 2.079 . S
O108 C110 1.273 . S
C109 O105 1.246 . S
C109 O106 1.259 . S
C110 O107 1.252 . S
C110 O108 1.273 . S
O111 Mg98 2.010 . S
O111 C103 1.249 . S
Mg112 O113 2.028 . S
Mg112 O119 1.986 . S
Mg112 O121 2.114 . S
Mg112 O122 2.251 . S
Mg112 O125 2.010 . S
O113 Mg112 2.028 . S
O113 C116 1.250 . S
O114 Mg115 2.028 . S
O114 C116 1.248 . S
Mg115 O114 2.028 . S
Mg115 O120 2.032 . S
Mg115 O122 2.079 . S
C116 O113 1.250 . S
C116 O114 1.248 . S
C117 O118 1.264 . S
C117 O125 1.249 . S
O118 C117 1.264 . S
O119 Mg112 1.986 . S
O119 C123 1.246 . S
O120 Mg115 2.032 . S
O120 C123 1.259 . S
O121 Mg112 2.114 . S
O121 C124 1.252 . S
O122 Mg112 2.251 . S
O122 Mg115 2.079 . S
O122 C124 1.273 . S
C123 O119 1.246 . S
C123 O120 1.259 . S
C124 O121 1.252 . S
C124 O122 1.273 . S
O125 Mg112 2.010 . S
O125 C117 1.249 . S
Mg126 O127 2.028 . S
Mg126 O133 1.986 . S
Mg126 O135 2.114 . S
Mg126 O136 2.251 . S
Mg126 O139 2.010 . S
O127 Mg126 2.028 . S
O127 C130 1.250 . S
O128 Mg129 2.028 . S
O128 C130 1.248 . S
Mg129 O128 2.028 . S
Mg129 O134 2.032 . S
Mg129 O136 2.079 . S
C130 O127 1.250 . S
C130 O128 1.248 . S
C131 O132 1.264 . S
C131 O139 1.249 . S
O132 C131 1.264 . S
O133 Mg126 1.986 . S
O133 C137 1.246 . S
O134 Mg129 2.032 . S
O134 C137 1.259 . S
O135 Mg126 2.114 . S
O135 C138 1.252 . S
O136 Mg126 2.251 . S
O136 Mg129 2.079 . S
O136 C138 1.273 . S
C137 O133 1.246 . S
C137 O134 1.259 . S
C138 O135 1.252 . S
C138 O136 1.273 . S
O139 Mg126 2.010 . S
O139 C131 1.249 . S
Mg140 O141 2.028 . S
Mg140 O147 1.986 . S
Mg140 O149 2.114 . S
Mg140 O150 2.251 . S
Mg140 O153 2.010 . S
O141 Mg140 2.028 . S
O141 C144 1.250 . S
O142 Mg143 2.028 . S
O142 C144 1.248 . S
Mg143 O142 2.028 . S
Mg143 O148 2.032 . S
Mg143 O150 2.079 . S
C144 O141 1.250 . S
C144 O142 1.248 . S
C145 O146 1.264 . S
C145 O153 1.249 . S
O146 C145 1.264 . S
O147 Mg140 1.986 . S
O147 C151 1.246 . S
O148 Mg143 2.032 . S
O148 C151 1.259 . S
O149 Mg140 2.114 . S
O149 C152 1.252 . S
O150 Mg140 2.251 . S
O150 Mg143 2.079 . S
O150 C152 1.273 . S
C151 O147 1.246 . S
C151 O148 1.259 . S
C152 O149 1.252 . S
C152 O150 1.273 . S
O153 Mg140 2.010 . S
O153 C145 1.249 . S
Mg154 O155 2.028 . S
Mg154 O161 1.986 . S
Mg154 O163 2.114 . S
Mg154 O164 2.251 . S
Mg154 O167 2.010 . S
O155 Mg154 2.028 . S
O155 C158 1.250 . S
O156 Mg157 2.028 . S
O156 C158 1.248 . S
Mg157 O156 2.028 . S
Mg157 O162 2.032 . S
Mg157 O164 2.079 . S
C158 O155 1.250 . S
C158 O156 1.248 . S
C159 O160 1.264 . S
C159 O167 1.249 . S
O160 C159 1.264 . S
O161 Mg154 1.986 . S
O161 C165 1.246 . S
O162 Mg157 2.032 . S
O162 C165 1.259 . S
O163 Mg154 2.114 . S
O163 C166 1.252 . S
O164 Mg154 2.251 . S
O164 Mg157 2.079 . S
O164 C166 1.273 . S
C165 O161 1.246 . S
C165 O162 1.259 . S
C166 O163 1.252 . S
C166 O164 1.273 . S
O167 Mg154 2.010 . S
O167 C159 1.249 . S
Mg168 O169 2.028 . S
Mg168 O175 1.986 . S
Mg168 O177 2.114 . S
Mg168 O178 2.251 . S
Mg168 O181 2.010 . S
O169 Mg168 2.028 . S
O169 C172 1.250 . S
O170 Mg171 2.028 . S
O170 C172 1.248 . S
Mg171 O170 2.028 . S
Mg171 O176 2.032 . S
Mg171 O178 2.079 . S
C172 O169 1.250 . S
C172 O170 1.248 . S
C173 O174 1.264 . S
C173 O181 1.249 . S
O174 C173 1.264 . S
O175 Mg168 1.986 . S
O175 C179 1.246 . S
O176 Mg171 2.032 . S
O176 C179 1.259 . S
O177 Mg168 2.114 . S
O177 C180 1.252 . S
O178 Mg168 2.251 . S
O178 Mg171 2.079 . S
O178 C180 1.273 . S
C179 O175 1.246 . S
C179 O176 1.259 . S
C180 O177 1.252 . S
C180 O178 1.273 . S
O181 Mg168 2.010 . S
O181 C173 1.249 . S
Mg182 O183 2.028 . S
Mg182 O189 1.986 . S
Mg182 O191 2.114 . S
Mg182 O192 2.251 . S
Mg182 O195 2.010 . S
O183 Mg182 2.028 . S
O183 C186 1.250 . S
O184 Mg185 2.028 . S
O184 C186 1.248 . S
Mg185 O184 2.028 . S
Mg185 O190 2.032 . S
Mg185 O192 2.079 . S
C186 O183 1.250 . S
C186 O184 1.248 . S
C187 O188 1.264 . S
C187 O195 1.249 . S
O188 C187 1.264 . S
O189 Mg182 1.986 . S
O189 C193 1.246 . S
O190 Mg185 2.032 . S
O190 C193 1.259 . S
O191 Mg182 2.114 . S
O191 C194 1.252 . S
O192 Mg182 2.251 . S
O192 Mg185 2.079 . S
O192 C194 1.273 . S
C193 O189 1.246 . S
C193 O190 1.259 . S
C194 O191 1.252 . S
C194 O192 1.273 . S
O195 Mg182 2.010 . S
O195 C187 1.249 . S
Mg196 O197 2.028 . S
Mg196 O203 1.986 . S
Mg196 O205 2.114 . S
Mg196 O206 2.251 . S
Mg196 O209 2.010 . S
O197 Mg196 2.028 . S
O197 C200 1.250 . S
O198 Mg199 2.028 . S
O198 C200 1.248 . S
Mg199 O198 2.028 . S
Mg199 O204 2.032 . S
Mg199 O206 2.079 . S
C200 O197 1.250 . S
C200 O198 1.248 . S
C201 O202 1.264 . S
C201 O209 1.249 . S
O202 C201 1.264 . S
O203 Mg196 1.986 . S
O203 C207 1.246 . S
O204 Mg199 2.032 . S
O204 C207 1.259 . S
O205 Mg196 2.114 . S
O205 C208 1.252 . S
O206 Mg196 2.251 . S
O206 Mg199 2.079 . S
O206 C208 1.273 . S
C207 O203 1.246 . S
C207 O204 1.259 . S
C208 O205 1.252 . S
C208 O206 1.273 . S
O209 Mg196 2.010 . S
O209 C201 1.249 . S
Mg210 O211 2.028 . S
Mg210 O217 1.986 . S
Mg210 O219 2.114 . S
Mg210 O220 2.251 . S
Mg210 O223 2.010 . S
O211 Mg210 2.028 . S
O211 C214 1.250 . S
O212 Mg213 2.028 . S
O212 C214 1.248 . S
Mg213 O212 2.028 . S
Mg213 O218 2.032 . S
Mg213 O220 2.079 . S
C214 O211 1.250 . S
C214 O212 1.248 . S
C215 O216 1.264 . S
C215 O223 1.249 . S
O216 C215 1.264 . S
O217 Mg210 1.986 . S
O217 C221 1.246 . S
O218 Mg213 2.032 . S
O218 C221 1.259 . S
O219 Mg210 2.114 . S
O219 C222 1.252 . S
O220 Mg210 2.251 . S
O220 Mg213 2.079 . S
O220 C222 1.273 . S
C221 O217 1.246 . S
C221 O218 1.259 . S
C222 O219 1.252 . S
C222 O220 1.273 . S
O223 Mg210 2.010 . S
O223 C215 1.249 . S
Mg224 O225 2.028 . S
Mg224 O231 1.986 . S
Mg224 O233 2.114 . S
Mg224 O234 2.251 . S
Mg224 O237 2.010 . S
O225 Mg224 2.028 . S
O225 C228 1.250 . S
O226 Mg227 2.028 . S
O226 C228 1.248 . S
Mg227 O226 2.028 . S
Mg227 O232 2.032 . S
Mg227 O234 2.079 . S
C228 O225 1.250 . S
C228 O226 1.248 . S
C229 O230 1.264 . S
C229 O237 1.249 . S
O230 C229 1.264 . S
O231 Mg224 1.986 . S
O231 C235 1.246 . S
O232 Mg227 2.032 . S
O232 C235 1.259 . S
O233 Mg224 2.114 . S
O233 C236 1.252 . S
O234 Mg224 2.251 . S
O234 Mg227 2.079 . S
O234 C236 1.273 . S
C235 O231 1.246 . S
C235 O232 1.259 . S
C236 O233 1.252 . S
C236 O234 1.273 . S
O237 Mg224 2.010 . S
O237 C229 1.249 . S
Mg238 O239 2.028 . S
Mg238 O245 1.986 . S
Mg238 O247 2.114 . S
Mg238 O248 2.251 . S
Mg238 O251 2.010 . S
O239 Mg238 2.028 . S
O239 C242 1.250 . S
O240 Mg241 2.028 . S
O240 C242 1.248 . S
Mg241 O240 2.028 . S
Mg241 O246 2.032 . S
Mg241 O248 2.079 . S
C242 O239 1.250 . S
C242 O240 1.248 . S
C243 O244 1.264 . S
C243 O251 1.249 . S
O244 C243 1.264 . S
O245 Mg238 1.986 . S
O245 C249 1.246 . S
O246 Mg241 2.032 . S
O246 C249 1.259 . S
O247 Mg238 2.114 . S
O247 C250 1.252 . S
O248 Mg238 2.251 . S
O248 Mg241 2.079 . S
O248 C250 1.273 . S
C249 O245 1.246 . S
C249 O246 1.259 . S
C250 O247 1.252 . S
C250 O248 1.273 . S
O251 Mg238 2.010 . S
O251 C243 1.249 . S
Mg252 O253 2.028 . S
Mg252 O259 1.986 . S
Mg252 O261 2.114 . S
Mg252 O262 2.251 . S
Mg252 O265 2.010 . S
O253 Mg252 2.028 . S
O253 C256 1.250 . S
O254 Mg255 2.028 . S
O254 C256 1.248 . S
Mg255 O254 2.028 . S
Mg255 O260 2.032 . S
Mg255 O262 2.079 . S
C256 O253 1.250 . S
C256 O254 1.248 . S
C257 O258 1.264 . S
C257 O265 1.249 . S
O258 C257 1.264 . S
O259 Mg252 1.986 . S
O259 C263 1.246 . S
O260 Mg255 2.032 . S
O260 C263 1.259 . S
O261 Mg252 2.114 . S
O261 C264 1.252 . S
O262 Mg252 2.251 . S
O262 Mg255 2.079 . S
O262 C264 1.273 . S
C263 O259 1.246 . S
C263 O260 1.259 . S
C264 O261 1.252 . S
C264 O262 1.273 . S
O265 Mg252 2.010 . S
O265 C257 1.249 . S
Mg266 O267 2.028 . S
Mg266 O273 1.986 . S
Mg266 O275 2.114 . S
Mg266 O276 2.251 . S
Mg266 O279 2.010 . S
O267 Mg266 2.028 . S
O267 C270 1.250 . S
O268 Mg269 2.028 . S
O268 C270 1.248 . S
Mg269 O268 2.028 . S
Mg269 O274 2.032 . S
Mg269 O276 2.079 . S
C270 O267 1.250 . S
C270 O268 1.248 . S
C271 O272 1.264 . S
C271 O279 1.249 . S
O272 C271 1.264 . S
O273 Mg266 1.986 . S
O273 C277 1.246 . S
O274 Mg269 2.032 . S
O274 C277 1.259 . S
O275 Mg266 2.114 . S
O275 C278 1.252 . S
O276 Mg266 2.251 . S
O276 Mg269 2.079 . S
O276 C278 1.273 . S
C277 O273 1.246 . S
C277 O274 1.259 . S
C278 O275 1.252 . S
C278 O276 1.273 . S
O279 Mg266 2.010 . S
O279 C271 1.249 . S
Mg280 O281 2.028 . S
Mg280 O287 1.986 . S
Mg280 O289 2.114 . S
Mg280 O290 2.251 . S
Mg280 O293 2.010 . S
O281 Mg280 2.028 . S
O281 C284 1.250 . S
O282 Mg283 2.028 . S
O282 C284 1.248 . S
Mg283 O282 2.028 . S
Mg283 O288 2.032 . S
Mg283 O290 2.079 . S
C284 O281 1.250 . S
C284 O282 1.248 . S
C285 O286 1.264 . S
C285 O293 1.249 . S
O286 C285 1.264 . S
O287 Mg280 1.986 . S
O287 C291 1.246 . S
O288 Mg283 2.032 . S
O288 C291 1.259 . S
O289 Mg280 2.114 . S
O289 C292 1.252 . S
O290 Mg280 2.251 . S
O290 Mg283 2.079 . S
O290 C292 1.273 . S
C291 O287 1.246 . S
C291 O288 1.259 . S
C292 O289 1.252 . S
C292 O290 1.273 . S
O293 Mg280 2.010 . S
O293 C285 1.249 . S
Mg294 O295 2.028 . S
Mg294 O301 1.986 . S
Mg294 O303 2.114 . S
Mg294 O304 2.251 . S
Mg294 O307 2.010 . S
O295 Mg294 2.028 . S
O295 C298 1.250 . S
O296 Mg297 2.028 . S
O296 C298 1.248 . S
Mg297 O296 2.028 . S
Mg297 O302 2.032 . S
Mg297 O304 2.079 . S
C298 O295 1.250 . S
C298 O296 1.248 . S
C299 O300 1.264 . S
C299 O307 1.249 . S
O300 C299 1.264 . S
O301 Mg294 1.986 . S
O301 C305 1.246 . S
O302 Mg297 2.032 . S
O302 C305 1.259 . S
O303 Mg294 2.114 . S
O303 C306 1.252 . S
O304 Mg294 2.251 . S
O304 Mg297 2.079 . S
O304 C306 1.273 . S
C305 O301 1.246 . S
C305 O302 1.259 . S
C306 O303 1.252 . S
C306 O304 1.273 . S
O307 Mg294 2.010 . S
O307 C299 1.249 . S
Mg308 O309 2.028 . S
Mg308 O315 1.986 . S
Mg308 O317 2.114 . S
Mg308 O318 2.251 . S
Mg308 O321 2.010 . S
O309 Mg308 2.028 . S
O309 C312 1.250 . S
O310 Mg311 2.028 . S
O310 C312 1.248 . S
Mg311 O310 2.028 . S
Mg311 O316 2.032 . S
Mg311 O318 2.079 . S
C312 O309 1.250 . S
C312 O310 1.248 . S
C313 O314 1.264 . S
C313 O321 1.249 . S
O314 C313 1.264 . S
O315 Mg308 1.986 . S
O315 C319 1.246 . S
O316 Mg311 2.032 . S
O316 C319 1.259 . S
O317 Mg308 2.114 . S
O317 C320 1.252 . S
O318 Mg308 2.251 . S
O318 Mg311 2.079 . S
O318 C320 1.273 . S
C319 O315 1.246 . S
C319 O316 1.259 . S
C320 O317 1.252 . S
C320 O318 1.273 . S
O321 Mg308 2.010 . S
O321 C313 1.249 . S
Mg322 O323 2.028 . S
Mg322 O329 1.986 . S
Mg322 O331 2.114 . S
Mg322 O332 2.251 . S
Mg322 O335 2.010 . S
O323 Mg322 2.028 . S
O323 C326 1.250 . S
O324 Mg325 2.028 . S
O324 C326 1.248 . S
Mg325 O324 2.028 . S
Mg325 O330 2.032 . S
Mg325 O332 2.079 . S
C326 O323 1.250 . S
C326 O324 1.248 . S
C327 O328 1.264 . S
C327 O335 1.249 . S
O328 C327 1.264 . S
O329 Mg322 1.986 . S
O329 C333 1.246 . S
O330 Mg325 2.032 . S
O330 C333 1.259 . S
O331 Mg322 2.114 . S
O331 C334 1.252 . S
O332 Mg322 2.251 . S
O332 Mg325 2.079 . S
O332 C334 1.273 . S
C333 O329 1.246 . S
C333 O330 1.259 . S
C334 O331 1.252 . S
C334 O332 1.273 . S
O335 Mg322 2.010 . S
O335 C327 1.249 . S
Mg336 O337 2.028 . S
Mg336 O343 1.986 . S
Mg336 O345 2.114 . S
Mg336 O346 2.251 . S
Mg336 O349 2.010 . S
O337 Mg336 2.028 . S
O337 C340 1.250 . S
O338 Mg339 2.028 . S
O338 C340 1.248 . S
Mg339 O338 2.028 . S
Mg339 O344 2.032 . S
Mg339 O346 2.079 . S
C340 O337 1.250 . S
C340 O338 1.248 . S
C341 O342 1.264 . S
C341 O349 1.249 . S
O342 C341 1.264 . S
O343 Mg336 1.986 . S
O343 C347 1.246 . S
O344 Mg339 2.032 . S
O344 C347 1.259 . S
O345 Mg336 2.114 . S
O345 C348 1.252 . S
O346 Mg336 2.251 . S
O346 Mg339 2.079 . S
O346 C348 1.273 . S
C347 O343 1.246 . S
C347 O344 1.259 . S
C348 O345 1.252 . S
C348 O346 1.273 . S
O349 Mg336 2.010 . S
O349 C341 1.249 . S
Mg350 O351 2.028 . S
Mg350 O357 1.986 . S
Mg350 O359 2.114 . S
Mg350 O360 2.251 . S
Mg350 O363 2.010 . S
O351 Mg350 2.028 . S
O351 C354 1.250 . S
O352 Mg353 2.028 . S
O352 C354 1.248 . S
Mg353 O352 2.028 . S
Mg353 O358 2.032 . S
Mg353 O360 2.079 . S
C354 O351 1.250 . S
C354 O352 1.248 . S
C355 O356 1.264 . S
C355 O363 1.249 . S
O356 C355 1.264 . S
O357 Mg350 1.986 . S
O357 C361 1.246 . S
O358 Mg353 2.032 . S
O358 C361 1.259 . S
O359 Mg350 2.114 . S
O359 C362 1.252 . S
O360 Mg350 2.251 . S
O360 Mg353 2.079 . S
O360 C362 1.273 . S
C361 O357 1.246 . S
C361 O358 1.259 . S
C362 O359 1.252 . S
C362 O360 1.273 . S
O363 Mg350 2.010 . S
O363 C355 1.249 . S
Mg364 O365 2.028 . S
Mg364 O371 1.986 . S
Mg364 O373 2.114 . S
Mg364 O374 2.251 . S
Mg364 O377 2.010 . S
O365 Mg364 2.028 . S
O365 C368 1.250 . S
O366 Mg367 2.028 . S
O366 C368 1.248 . S
Mg367 O366 2.028 . S
Mg367 O372 2.032 . S
Mg367 O374 2.079 . S
C368 O365 1.250 . S
C368 O366 1.248 . S
C369 O370 1.264 . S
C369 O377 1.249 . S
O370 C369 1.264 . S
O371 Mg364 1.986 . S
O371 C375 1.246 . S
O372 Mg367 2.032 . S
O372 C375 1.259 . S
O373 Mg364 2.114 . S
O373 C376 1.252 . S
O374 Mg364 2.251 . S
O374 Mg367 2.079 . S
O374 C376 1.273 . S
C375 O371 1.246 . S
C375 O372 1.259 . S
C376 O373 1.252 . S
C376 O374 1.273 . S
O377 Mg364 2.010 . S
O377 C369 1.249 . S
Mg378 O379 2.028 . S
Mg378 O385 1.986 . S
Mg378 O387 2.114 . S
Mg378 O388 2.251 . S
Mg378 O391 2.010 . S
O379 Mg378 2.028 . S
O379 C382 1.250 . S
O380 Mg381 2.028 . S
O380 C382 1.248 . S
Mg381 O380 2.028 . S
Mg381 O386 2.032 . S
Mg381 O388 2.079 . S
C382 O379 1.250 . S
C382 O380 1.248 . S
C383 O384 1.264 . S
C383 O391 1.249 . S
O384 C383 1.264 . S
O385 Mg378 1.986 . S
O385 C389 1.246 . S
O386 Mg381 2.032 . S
O386 C389 1.259 . S
O387 Mg378 2.114 . S
O387 C390 1.252 . S
O388 Mg378 2.251 . S
O388 Mg381 2.079 . S
O388 C390 1.273 . S
C389 O385 1.246 . S
C389 O386 1.259 . S
C390 O387 1.252 . S
C390 O388 1.273 . S
O391 Mg378 2.010 . S
O391 C383 1.249 . S
Mg392 O393 2.028 . S
Mg392 O399 1.986 . S
Mg392 O401 2.114 . S
Mg392 O402 2.251 . S
Mg392 O405 2.010 . S
O393 Mg392 2.028 . S
O393 C396 1.250 . S
O394 Mg395 2.028 . S
O394 C396 1.248 . S
Mg395 O394 2.028 . S
Mg395 O400 2.032 . S
Mg395 O402 2.079 . S
C396 O393 1.250 . S
C396 O394 1.248 . S
C397 O398 1.264 . S
C397 O405 1.249 . S
O398 C397 1.264 . S
O399 Mg392 1.986 . S
O399 C403 1.246 . S
O400 Mg395 2.032 . S
O400 C403 1.259 . S
O401 Mg392 2.114 . S
O401 C404 1.252 . S
O402 Mg392 2.251 . S
O402 Mg395 2.079 . S
O402 C404 1.273 . S
C403 O399 1.246 . S
C403 O400 1.259 . S
C404 O401 1.252 . S
C404 O402 1.273 . S
O405 Mg392 2.010 . S
O405 C397 1.249 . S
Mg406 O407 2.028 . S
Mg406 O413 1.986 . S
Mg406 O415 2.114 . S
Mg406 O416 2.251 . S
Mg406 O419 2.010 . S
O407 Mg406 2.028 . S
O407 C410 1.250 . S
O408 Mg409 2.028 . S
O408 C410 1.248 . S
Mg409 O408 2.028 . S
Mg409 O414 2.032 . S
Mg409 O416 2.079 . S
C410 O407 1.250 . S
C410 O408 1.248 . S
C411 O412 1.264 . S
C411 O419 1.249 . S
O412 C411 1.264 . S
O413 Mg406 1.986 . S
O413 C417 1.246 . S
O414 Mg409 2.032 . S
O414 C417 1.259 . S
O415 Mg406 2.114 . S
O415 C418 1.252 . S
O416 Mg406 2.251 . S
O416 Mg409 2.079 . S
O416 C418 1.273 . S
C417 O413 1.246 . S
C417 O414 1.259 . S
C418 O415 1.252 . S
C418 O416 1.273 . S
O419 Mg406 2.010 . S
O419 C411 1.249 . S
Mg420 O421 2.028 . S
Mg420 O427 1.986 . S
Mg420 O429 2.114 . S
Mg420 O430 2.251 . S
Mg420 O433 2.010 . S
O421 Mg420 2.028 . S
O421 C424 1.250 . S
O422 Mg423 2.028 . S
O422 C424 1.248 . S
Mg423 O422 2.028 . S
Mg423 O428 2.032 . S
Mg423 O430 2.079 . S
C424 O421 1.250 . S
C424 O422 1.248 . S
C425 O426 1.264 . S
C425 O433 1.249 . S
O426 C425 1.264 . S
O427 Mg420 1.986 . S
O427 C431 1.246 . S
O428 Mg423 2.032 . S
O428 C431 1.259 . S
O429 Mg420 2.114 . S
O429 C432 1.252 . S
O430 Mg420 2.251 . S
O430 Mg423 2.079 . S
O430 C432 1.273 . S
C431 O427 1.246 . S
C431 O428 1.259 . S
C432 O429 1.252 . S
C432 O430 1.273 . S
O433 Mg420 2.010 . S
O433 C425 1.249 . S
Mg434 O435 2.028 . S
Mg434 O441 1.986 . S
Mg434 O443 2.114 . S
Mg434 O444 2.251 . S
Mg434 O447 2.010 . S
O435 Mg434 2.028 . S
O435 C438 1.250 . S
O436 Mg437 2.028 . S
O436 C438 1.248 . S
Mg437 O436 2.028 . S
Mg437 O442 2.032 . S
Mg437 O444 2.079 . S
C438 O435 1.250 . S
C438 O436 1.248 . S
C439 O440 1.264 . S
C439 O447 1.249 . S
O440 C439 1.264 . S
O441 Mg434 1.986 . S
O441 C445 1.246 . S
O442 Mg437 2.032 . S
O442 C445 1.259 . S
O443 Mg434 2.114 . S
O443 C446 1.252 . S
O444 Mg434 2.251 . S
O444 Mg437 2.079 . S
O444 C446 1.273 . S
C445 O441 1.246 . S
C445 O442 1.259 . S
C446 O443 1.252 . S
C446 O444 1.273 . S
O447 Mg434 2.010 . S
O447 C439 1.249 . S
H448 C454 0.930 . S
H449 C457 0.930 . S
H450 C458 0.930 . S
H451 C459 0.930 . S
H452 C462 0.930 . S
H453 C463 0.930 . S
C454 H448 0.930 . S
C454 C455 1.355 . S
C454 C456 1.415 . S
C455 C454 1.355 . S
C455 C457 1.417 1_556 S
C456 C454 1.415 . S
C456 C461 1.425 1_656 S
C456 C463 1.409 . S
C457 H449 0.930 . S
C457 C455 1.417 1_554 S
C457 C458 1.364 1_655 S
C458 H450 0.930 . S
C458 C457 1.364 1_455 S
C458 C461 1.409 . S
C459 H451 0.930 . S
C459 C460 1.355 . S
C459 C461 1.415 . S
C460 C459 1.355 . S
C460 C462 1.417 1_554 S
C461 C456 1.425 1_454 S
C461 C458 1.409 . S
C461 C459 1.415 . S
C462 H452 0.930 . S
C462 C460 1.417 1_556 S
C462 C463 1.364 1_455 S
C463 H453 0.930 . S
C463 C456 1.409 . S
C463 C462 1.364 1_655 S
H464 C470 0.930 . S
H465 C473 0.930 . S
H466 C474 0.930 . S
H467 C475 0.930 . S
H468 C478 0.930 . S
H469 C479 0.930 . S
C470 H464 0.930 . S
C470 C471 1.355 . S
C470 C472 1.415 . S
C471 C470 1.355 . S
C471 C473 1.419 . S
C472 C470 1.415 . S
C472 C477 1.425 . S
C472 C479 1.409 . S
C473 H465 0.930 . S
C473 C471 1.419 . S
C473 C474 1.362 . S
C474 H466 0.930 . S
C474 C473 1.362 . S
C474 C477 1.409 . S
C475 H467 0.930 . S
C475 C476 1.355 . S
C475 C477 1.415 . S
C476 C475 1.355 . S
C476 C478 1.419 . S
C477 C472 1.425 . S
C477 C474 1.409 . S
C477 C475 1.415 . S
C478 H468 0.930 . S
C478 C476 1.419 . S
C478 C479 1.362 . S
C479 H469 0.930 . S
C479 C472 1.409 . S
C479 C478 1.362 . S
H480 C486 0.930 . S
H481 C489 0.930 . S
H482 C490 0.930 . S
H483 C491 0.930 . S
H484 C494 0.930 . S
H485 C495 0.930 . S
C486 H480 0.930 . S
C486 C487 1.355 . S
C486 C488 1.415 . S
C487 C486 1.355 . S
C487 C489 1.419 . S
C488 C486 1.415 . S
C488 C493 1.425 . S
C488 C495 1.409 . S
C489 H481 0.930 . S
C489 C487 1.419 . S
C489 C490 1.362 . S
C490 H482 0.930 . S
C490 C489 1.362 . S
C490 C493 1.409 . S
C491 H483 0.930 . S
C491 C492 1.355 . S
C491 C493 1.415 . S
C492 C491 1.355 . S
C492 C494 1.419 . S
C493 C488 1.425 . S
C493 C490 1.409 . S
C493 C491 1.415 . S
C494 H484 0.930 . S
C494 C492 1.419 . S
C494 C495 1.362 . S
C495 H485 0.930 . S
C495 C488 1.409 . S
C495 C494 1.362 . S
H496 C502 0.930 . S
H497 C505 0.930 . S
H498 C506 0.930 . S
H499 C507 0.930 . S
H500 C510 0.930 . S
H501 C511 0.930 . S
C502 H496 0.930 . S
C502 C503 1.355 . S
C502 C504 1.415 . S
C503 C502 1.355 . S
C503 C505 1.419 . S
C504 C502 1.415 . S
C504 C509 1.425 . S
C504 C511 1.409 . S
C505 H497 0.930 . S
C505 C503 1.419 . S
C505 C506 1.362 . S
C506 H498 0.930 . S
C506 C505 1.362 . S
C506 C509 1.409 . S
C507 H499 0.930 . S
C507 C508 1.355 . S
C507 C509 1.415 . S
C508 C507 1.355 . S
C508 C510 1.419 . S
C509 C504 1.425 . S
C509 C506 1.409 . S
C509 C507 1.415 . S
C510 H500 0.930 . S
C510 C508 1.419 . S
C510 C511 1.362 . S
C511 H501 0.930 . S
C511 C504 1.409 . S
C511 C510 1.362 . S
H512 C518 0.930 . S
H513 C521 0.930 1_455 S
H514 C522 0.930 . S
H515 C523 0.930 . S
H516 C526 0.930 1_655 S
H517 C527 0.930 . S
C518 H512 0.930 . S
C518 C519 1.355 . S
C518 C520 1.415 . S
C519 C518 1.355 . S
C519 C521 1.419 . S
C520 C518 1.415 . S
C520 C525 1.425 1_655 S
C520 C527 1.409 . S
C521 H513 0.930 1_655 S
C521 C519 1.419 . S
C521 C522 1.362 1_655 S
C522 H514 0.930 . S
C522 C521 1.362 1_455 S
C522 C525 1.409 . S
C523 H515 0.930 . S
C523 C524 1.355 . S
C523 C525 1.415 . S
C524 C523 1.355 . S
C524 C526 1.419 . S
C525 C520 1.425 1_455 S
C525 C522 1.409 . S
C525 C523 1.415 . S
C526 H516 0.930 1_455 S
C526 C524 1.419 . S
C526 C527 1.362 1_455 S
C527 H517 0.930 . S
C527 C520 1.409 . S
C527 C526 1.362 1_655 S
H528 C534 0.930 . S
H529 C537 0.930 . S
H530 C538 0.930 . S
H531 C539 0.930 . S
H532 C542 0.930 . S
H533 C543 0.930 . S
C534 H528 0.930 . S
C534 C535 1.355 . S
C534 C536 1.415 . S
C535 C534 1.355 . S
C535 C537 1.419 . S
C536 C534 1.415 . S
C536 C541 1.425 . S
C536 C543 1.409 . S
C537 H529 0.930 . S
C537 C535 1.419 . S
C537 C538 1.362 . S
C538 H530 0.930 . S
C538 C537 1.362 . S
C538 C541 1.409 . S
C539 H531 0.930 . S
C539 C540 1.355 . S
C539 C541 1.415 . S
C540 C539 1.355 . S
C540 C542 1.419 . S
C541 C536 1.425 . S
C541 C538 1.409 . S
C541 C539 1.415 . S
C542 H532 0.930 . S
C542 C540 1.419 . S
C542 C543 1.362 . S
C543 H533 0.930 . S
C543 C536 1.409 . S
C543 C542 1.362 . S
H544 C550 0.930 . S
H545 C553 0.932 . S
H546 C554 0.930 . S
H547 C555 0.930 . S
H548 C558 0.932 . S
H549 C559 0.930 . S
C550 H544 0.930 . S
C550 C551 1.355 . S
C550 C552 1.415 . S
C551 C550 1.355 . S
C551 C553 1.419 . S
C552 C550 1.415 . S
C552 C557 1.425 1_556 S
C552 C559 1.409 . S
C553 H545 0.932 . S
C553 C551 1.419 . S
C553 C554 1.362 1_556 S
C554 H546 0.930 . S
C554 C553 1.362 1_554 S
C554 C557 1.409 . S
C555 H547 0.930 . S
C555 C556 1.355 . S
C555 C557 1.415 . S
C556 C555 1.355 . S
C556 C558 1.419 . S
C557 C552 1.425 1_554 S
C557 C554 1.409 . S
C557 C555 1.415 . S
C558 H548 0.932 . S
C558 C556 1.419 . S
C558 C559 1.362 1_554 S
C559 H549 0.930 . S
C559 C552 1.409 . S
C559 C558 1.362 1_556 S
H560 C566 0.930 . S
H561 C569 0.930 . S
H562 C570 0.930 . S
H563 C571 0.930 . S
H564 C574 0.930 . S
H565 C575 0.930 . S
C566 H560 0.930 . S
C566 C567 1.355 . S
C566 C568 1.415 . S
C567 C566 1.355 . S
C567 C569 1.419 . S
C568 C566 1.415 . S
C568 C573 1.425 . S
C568 C575 1.409 . S
C569 H561 0.930 . S
C569 C567 1.419 . S
C569 C570 1.362 . S
C570 H562 0.930 . S
C570 C569 1.362 . S
C570 C573 1.409 . S
C571 H563 0.930 . S
C571 C572 1.355 . S
C571 C573 1.415 . S
C572 C571 1.355 . S
C572 C574 1.419 . S
C573 C568 1.425 . S
C573 C570 1.409 . S
C573 C571 1.415 . S
C574 H564 0.930 . S
C574 C572 1.419 . S
C574 C575 1.362 . S
C575 H565 0.930 . S
C575 C568 1.409 . S
C575 C574 1.362 . S
H576 C582 0.930 . S
H577 C585 0.930 . S
H578 C586 0.930 . S
H579 C587 0.930 . S
H580 C590 0.930 . S
H581 C591 0.930 . S
C582 H576 0.930 . S
C582 C583 1.355 . S
C582 C584 1.415 . S
C583 C582 1.355 . S
C583 C585 1.419 . S
C584 C582 1.415 . S
C584 C589 1.425 . S
C584 C591 1.409 . S
C585 H577 0.930 . S
C585 C583 1.419 . S
C585 C586 1.362 . S
C586 H578 0.930 . S
C586 C585 1.362 . S
C586 C589 1.409 . S
C587 H579 0.930 . S
C587 C588 1.355 . S
C587 C589 1.415 . S
C588 C587 1.355 . S
C588 C590 1.419 . S
C589 C584 1.425 . S
C589 C586 1.409 . S
C589 C587 1.415 . S
C590 H580 0.930 . S
C590 C588 1.419 . S
C590 C591 1.362 . S
C591 H581 0.930 . S
C591 C584 1.409 . S
C591 C590 1.362 . S
H592 C598 0.930 . S
H593 C601 0.930 . S
H594 C602 0.930 . S
H595 C603 0.930 . S
H596 C606 0.930 . S
H597 C607 0.930 . S
C598 H592 0.930 . S
C598 C599 1.355 . S
C598 C600 1.415 . S
C599 C598 1.355 . S
C599 C601 1.419 . S
C600 C598 1.415 . S
C600 C605 1.425 . S
C600 C607 1.409 . S
C601 H593 0.930 . S
C601 C599 1.419 . S
C601 C602 1.362 . S
C602 H594 0.930 . S
C602 C601 1.362 . S
C602 C605 1.409 . S
C603 H595 0.930 . S
C603 C604 1.355 . S
C603 C605 1.415 . S
C604 C603 1.355 . S
C604 C606 1.419 . S
C605 C600 1.425 . S
C605 C602 1.409 . S
C605 C603 1.415 . S
C606 H596 0.930 . S
C606 C604 1.419 . S
C606 C607 1.362 . S
C607 H597 0.930 . S
C607 C600 1.409 . S
C607 C606 1.362 . S
H608 C614 0.930 . S
H609 C617 0.930 . S
H610 C618 0.930 . S
H611 C619 0.930 . S
H612 C622 0.930 . S
H613 C623 0.930 . S
C614 H608 0.930 . S
C614 C615 1.355 . S
C614 C616 1.415 . S
C615 C614 1.355 . S
C615 C617 1.419 . S
C616 C614 1.415 . S
C616 C621 1.425 . S
C616 C623 1.409 . S
C617 H609 0.930 . S
C617 C615 1.419 . S
C617 C618 1.362 . S
C618 H610 0.930 . S
C618 C617 1.362 . S
C618 C621 1.409 . S
C619 H611 0.930 . S
C619 C620 1.355 . S
C619 C621 1.415 . S
C620 C619 1.355 . S
C620 C622 1.419 . S
C621 C616 1.425 . S
C621 C618 1.409 . S
C621 C619 1.415 . S
C622 H612 0.930 . S
C622 C620 1.419 . S
C622 C623 1.362 . S
C623 H613 0.930 . S
C623 C616 1.409 . S
C623 C622 1.362 . S
H624 C630 0.930 . S
H625 C633 0.930 . S
H626 C634 0.930 . S
H627 C635 0.930 . S
H628 C638 0.930 . S
H629 C639 0.930 . S
C630 H624 0.930 . S
C630 C631 1.355 . S
C630 C632 1.415 . S
C631 C630 1.355 . S
C631 C633 1.419 . S
C632 C630 1.415 . S
C632 C637 1.425 . S
C632 C639 1.409 . S
C633 H625 0.930 . S
C633 C631 1.419 . S
C633 C634 1.362 . S
C634 H626 0.930 . S
C634 C633 1.362 . S
C634 C637 1.409 . S
C635 H627 0.930 . S
C635 C636 1.355 . S
C635 C637 1.415 . S
C636 C635 1.355 . S
C636 C638 1.419 . S
C637 C632 1.425 . S
C637 C634 1.409 . S
C637 C635 1.415 . S
C638 H628 0.930 . S
C638 C636 1.419 . S
C638 C639 1.362 . S
C639 H629 0.930 . S
C639 C632 1.409 . S
C639 C638 1.362 . S
H640 C646 0.930 . S
H641 C649 0.930 . S
H642 C650 0.930 . S
H643 C651 0.930 . S
H644 C654 0.930 . S
H645 C655 0.930 . S
C646 H640 0.930 . S
C646 C647 1.355 . S
C646 C648 1.415 1_565 S
C647 C646 1.355 . S
C647 C649 1.419 . S
C648 C646 1.415 1_545 S
C648 C653 1.425 1_545 S
C648 C655 1.409 . S
C649 H641 0.930 . S
C649 C647 1.419 . S
C649 C650 1.362 . S
C650 H642 0.930 . S
C650 C649 1.362 . S
C650 C653 1.409 . S
C651 H643 0.930 . S
C651 C652 1.355 . S
C651 C653 1.415 1_545 S
C652 C651 1.355 . S
C652 C654 1.419 . S
C653 C648 1.425 1_565 S
C653 C650 1.409 . S
C653 C651 1.415 1_565 S
C654 H644 0.930 . S
C654 C652 1.419 . S
C654 C655 1.362 . S
C655 H645 0.930 . S
C655 C648 1.409 . S
C655 C654 1.362 . S
H656 C662 0.930 1_655 S
H657 C665 0.930 . S
H658 C666 0.930 . S
H659 C667 0.930 1_455 S
H660 C670 0.930 . S
H661 C671 0.930 . S
C662 H656 0.930 1_455 S
C662 C663 1.355 . S
C662 C664 1.415 1_455 S
C663 C662 1.355 . S
C663 C665 1.419 . S
C664 C662 1.415 1_655 S
C664 C669 1.425 1_666 S
C664 C671 1.409 1_556 S
C665 H657 0.930 . S
C665 C663 1.419 . S
C665 C666 1.362 1_565 S
C666 H658 0.930 . S
C666 C665 1.362 1_545 S
C666 C669 1.409 1_556 S
C667 H659 0.930 1_655 S
C667 C668 1.355 . S
C667 C669 1.415 1_655 S
C668 C667 1.355 . S
C668 C670 1.419 . S
C669 C664 1.425 1_444 S
C669 C666 1.409 1_554 S
C669 C667 1.415 1_455 S
C670 H660 0.930 . S
C670 C668 1.419 . S
C670 C671 1.362 1_545 S
C671 H661 0.930 . S
C671 C664 1.409 1_554 S
C671 C670 1.362 1_565 S
H672 C678 0.930 . S
H673 C681 0.930 . S
H674 C682 0.930 . S
H675 C683 0.930 . S
H676 C686 0.930 . S
H677 C687 0.930 . S
C678 H672 0.930 . S
C678 C679 1.355 . S
C678 C680 1.415 . S
C679 C678 1.355 . S
C679 C681 1.419 . S
C680 C678 1.415 . S
C680 C685 1.425 1_546 S
C680 C687 1.409 . S
C681 H673 0.930 . S
C681 C679 1.419 . S
C681 C682 1.362 1_546 S
C682 H674 0.930 . S
C682 C681 1.362 1_564 S
C682 C685 1.409 . S
C683 H675 0.930 . S
C683 C684 1.355 . S
C683 C685 1.415 . S
C684 C683 1.355 . S
C684 C686 1.419 . S
C685 C680 1.425 1_564 S
C685 C682 1.409 . S
C685 C683 1.415 . S
C686 H676 0.930 . S
C686 C684 1.419 . S
C686 C687 1.362 1_564 S
C687 H677 0.930 . S
C687 C680 1.409 . S
C687 C686 1.362 1_546 S
H688 C694 0.930 1_655 S
H689 C697 0.930 . S
H690 C698 0.930 . S
H691 C699 0.930 1_455 S
H692 C702 0.930 . S
H693 C703 0.930 . S
C694 H688 0.930 1_455 S
C694 C695 1.355 . S
C694 C696 1.415 1_455 S
C695 C694 1.355 . S
C695 C697 1.419 . S
C696 C694 1.415 1_655 S
C696 C701 1.425 1_645 S
C696 C703 1.409 . S
C697 H689 0.930 . S
C697 C695 1.419 . S
C697 C698 1.362 1_545 S
C698 H690 0.930 . S
C698 C697 1.362 1_565 S
C698 C701 1.409 . S
C699 H691 0.930 1_655 S
C699 C700 1.355 . S
C699 C701 1.415 1_655 S
C700 C699 1.355 . S
C700 C702 1.419 . S
C701 C696 1.425 1_465 S
C701 C698 1.409 . S
C701 C699 1.415 1_455 S
C702 H692 0.930 . S
C702 C700 1.419 . S
C702 C703 1.362 1_565 S
C703 H693 0.930 . S
C703 C696 1.409 . S
C703 C702 1.362 1_545 S
H704 C710 0.930 . S
H705 C713 0.930 . S
H706 C714 0.930 . S
H707 C715 0.930 . S
H708 C718 0.903 1_556 S
H709 C719 0.930 1_556 S
C710 H704 0.930 . S
C710 C711 1.355 . S
C710 C712 1.415 1_655 S
C711 C710 1.355 . S
C711 C713 1.419 . S
C712 C710 1.415 1_455 S
C712 C717 1.425 1_455 S
C712 C719 1.409 . S
C713 H705 0.930 . S
C713 C711 1.419 . S
C713 C714 1.362 . S
C714 H706 0.930 . S
C714 C713 1.362 . S
C714 C717 1.409 . S
C715 H707 0.930 . S
C715 C716 1.355 . S
C715 C717 1.415 1_455 S
C716 C715 1.355 . S
C716 C718 1.419 . S
C717 C712 1.425 1_655 S
C717 C714 1.409 . S
C717 C715 1.415 1_655 S
C718 H708 0.903 1_554 S
C718 C716 1.419 . S
C718 C719 1.362 . S
C719 H709 0.930 1_554 S
C719 C712 1.409 . S
C719 C718 1.362 . S
H720 C726 0.930 . S
H721 C729 0.930 . S
H722 C730 0.930 . S
H723 C731 0.930 . S
H724 C734 0.930 . S
H725 C735 0.930 . S
C726 H720 0.930 . S
C726 C727 1.355 . S
C726 C728 1.415 1_455 S
C727 C726 1.355 . S
C727 C729 1.419 . S
C728 C726 1.415 1_655 S
C728 C733 1.425 1_655 S
C728 C735 1.409 . S
C729 H721 0.930 . S
C729 C727 1.419 . S
C729 C730 1.362 . S
C730 H722 0.930 . S
C730 C729 1.362 . S
C730 C733 1.409 . S
C731 H723 0.930 . S
C731 C732 1.355 . S
C731 C733 1.415 1_655 S
C732 C731 1.355 . S
C732 C734 1.419 . S
C733 C728 1.425 1_455 S
C733 C730 1.409 . S
C733 C731 1.415 1_455 S
C734 H724 0.930 . S
C734 C732 1.419 . S
C734 C735 1.362 . S
C735 H725 0.930 . S
C735 C728 1.409 . S
C735 C734 1.362 . S
H736 C742 0.930 . S
H737 C745 0.930 . S
H738 C746 0.930 . S
H739 C747 0.930 . S
H740 C750 0.930 . S
H741 C751 0.930 . S
C742 H736 0.930 . S
C742 C743 1.355 . S
C742 C744 1.415 . S
C743 C742 1.355 . S
C743 C745 1.419 . S
C744 C742 1.415 . S
C744 C749 1.425 . S
C744 C751 1.409 . S
C745 H737 0.930 . S
C745 C743 1.419 . S
C745 C746 1.362 . S
C746 H738 0.930 . S
C746 C745 1.362 . S
C746 C749 1.409 . S
C747 H739 0.930 . S
C747 C748 1.355 . S
C747 C749 1.415 . S
C748 C747 1.355 . S
C748 C750 1.419 . S
C749 C744 1.425 . S
C749 C746 1.409 . S
C749 C747 1.415 . S
C750 H740 0.930 . S
C750 C748 1.419 . S
C750 C751 1.362 . S
C751 H741 0.930 . S
C751 C744 1.409 . S
C751 C750 1.362 . S
H752 C758 0.930 . S
H753 C761 0.930 . S
H754 C762 0.930 . S
H755 C763 0.930 . S
H756 C766 0.930 . S
H757 C767 0.930 . S
C758 H752 0.930 . S
C758 C759 1.355 . S
C758 C760 1.415 . S
C759 C758 1.355 . S
C759 C761 1.419 . S
C760 C758 1.415 . S
C760 C765 1.425 . S
C760 C767 1.409 . S
C761 H753 0.930 . S
C761 C759 1.419 . S
C761 C762 1.362 . S
C762 H754 0.930 . S
C762 C761 1.362 . S
C762 C765 1.409 . S
C763 H755 0.930 . S
C763 C764 1.355 . S
C763 C765 1.415 . S
C764 C763 1.355 . S
C764 C766 1.419 . S
C765 C760 1.425 . S
C765 C762 1.409 . S
C765 C763 1.415 . S
C766 H756 0.930 . S
C766 C764 1.419 . S
C766 C767 1.362 . S
C767 H757 0.930 . S
C767 C760 1.409 . S
C767 C766 1.362 . S
H768 C774 0.930 . S
H769 C777 0.930 . S
H770 C778 0.930 . S
H771 C779 0.930 . S
H772 C782 0.930 . S
H773 C783 0.930 . S
C774 H768 0.930 . S
C774 C775 1.355 . S
C774 C776 1.415 1_655 S
C775 C774 1.355 . S
C775 C777 1.419 . S
C776 C774 1.415 1_455 S
C776 C781 1.425 1_455 S
C776 C783 1.409 . S
C777 H769 0.930 . S
C777 C775 1.419 . S
C777 C778 1.362 . S
C778 H770 0.930 . S
C778 C777 1.362 . S
C778 C781 1.409 . S
C779 H771 0.930 . S
C779 C780 1.355 . S
C779 C781 1.415 1_455 S
C780 C779 1.355 . S
C780 C782 1.419 . S
C781 C776 1.425 1_655 S
C781 C778 1.409 . S
C781 C779 1.415 1_655 S
C782 H772 0.930 . S
C782 C780 1.419 . S
C782 C783 1.362 . S
C783 H773 0.930 . S
C783 C776 1.409 . S
C783 C782 1.362 . S
H784 C790 0.930 . S
H785 C793 0.930 . S
H786 C794 0.930 . S
H787 C795 0.930 . S
H788 C798 0.930 . S
H789 C799 0.930 . S
C790 H784 0.930 . S
C790 C791 1.355 . S
C790 C792 1.415 . S
C791 C790 1.355 . S
C791 C793 1.419 . S
C792 C790 1.415 . S
C792 C797 1.425 . S
C792 C799 1.409 . S
C793 H785 0.930 . S
C793 C791 1.419 . S
C793 C794 1.362 . S
C794 H786 0.930 . S
C794 C793 1.362 . S
C794 C797 1.409 . S
C795 H787 0.930 . S
C795 C796 1.355 . S
C795 C797 1.415 . S
C796 C795 1.355 . S
C796 C798 1.419 . S
C797 C792 1.425 . S
C797 C794 1.409 . S
C797 C795 1.415 . S
C798 H788 0.930 . S
C798 C796 1.419 . S
C798 C799 1.362 . S
C799 H789 0.930 . S
C799 C792 1.409 . S
C799 C798 1.362 . S
H800 C806 0.930 . S
H801 C809 0.930 . S
H802 C810 0.930 . S
H803 C811 0.930 . S
H804 C814 0.930 1_554 S
H805 C815 0.930 1_554 S
C806 H800 0.930 . S
C806 C807 1.355 . S
C806 C808 1.415 . S
C807 C806 1.355 . S
C807 C809 1.419 . S
C808 C806 1.415 . S
C808 C813 1.425 . S
C808 C815 1.409 . S
C809 H801 0.930 . S
C809 C807 1.419 . S
C809 C810 1.362 . S
C810 H802 0.930 . S
C810 C809 1.362 . S
C810 C813 1.409 . S
C811 H803 0.930 . S
C811 C812 1.355 . S
C811 C813 1.415 . S
C812 C811 1.355 . S
C812 C814 1.419 . S
C813 C808 1.425 . S
C813 C810 1.409 . S
C813 C811 1.415 . S
C814 H804 0.930 1_556 S
C814 C812 1.419 . S
C814 C815 1.362 . S
C815 H805 0.930 1_556 S
C815 C808 1.409 . S
C815 C814 1.362 . S
H816 C822 0.930 . S
H817 C825 0.930 . S
H818 C826 0.930 . S
H819 C827 0.930 . S
H820 C830 0.930 . S
H821 C831 0.930 . S
C822 H816 0.930 . S
C822 C823 1.355 . S
C822 C824 1.415 . S
C823 C822 1.355 . S
C823 C825 1.419 . S
C824 C822 1.415 . S
C824 C829 1.425 1_455 S
C824 C831 1.409 . S
C825 H817 0.930 . S
C825 C823 1.419 . S
C825 C826 1.362 1_455 S
C826 H818 0.930 . S
C826 C825 1.362 1_655 S
C826 C829 1.409 . S
C827 H819 0.930 . S
C827 C828 1.355 . S
C827 C829 1.415 . S
C828 C827 1.355 . S
C828 C830 1.419 . S
C829 C824 1.425 1_655 S
C829 C826 1.409 . S
C829 C827 1.415 . S
C830 H820 0.930 . S
C830 C828 1.419 . S
C830 C831 1.362 1_655 S
C831 H821 0.930 . S
C831 C824 1.409 . S
C831 C830 1.362 1_455 S
H832 C838 0.930 . S
H833 C841 0.930 1_554 S
H834 C842 0.930 1_554 S
H835 C843 0.930 . S
H836 C846 0.930 . S
H837 C847 0.930 . S
C838 H832 0.930 . S
C838 C839 1.355 . S
C838 C840 1.419 . S
C839 C838 1.355 . S
C839 C841 1.419 . S
C840 C838 1.419 . S
C840 C845 1.425 1_655 S
C840 C847 1.405 1_655 S
C841 H833 0.930 1_556 S
C841 C839 1.419 . S
C841 C842 1.362 . S
C842 H834 0.930 1_556 S
C842 C841 1.362 . S
C842 C845 1.405 1_655 S
C843 H835 0.930 . S
C843 C844 1.355 . S
C843 C845 1.419 . S
C844 C843 1.355 . S
C844 C846 1.419 . S
C845 C840 1.425 1_455 S
C845 C842 1.405 1_455 S
C845 C843 1.419 . S
C846 H836 0.930 . S
C846 C844 1.419 . S
C846 C847 1.362 . S
C847 H837 0.930 . S
C847 C840 1.405 1_455 S
C847 C846 1.362 . S
H848 C854 0.930 . S
H849 C857 0.930 . S
H850 C858 0.930 . S
H851 C859 0.930 . S
H852 C862 0.930 . S
H853 C863 0.930 . S
C854 H848 0.930 . S
C854 C855 1.355 . S
C854 C856 1.415 1_655 S
C855 C854 1.355 . S
C855 C857 1.419 . S
C856 C854 1.415 1_455 S
C856 C861 1.425 1_455 S
C856 C863 1.409 . S
C857 H849 0.930 . S
C857 C855 1.419 . S
C857 C858 1.362 . S
C858 H850 0.930 . S
C858 C857 1.362 . S
C858 C861 1.409 . S
C859 H851 0.930 . S
C859 C860 1.355 . S
C859 C861 1.415 1_455 S
C860 C859 1.355 . S
C860 C862 1.419 . S
C861 C856 1.425 1_655 S
C861 C858 1.409 . S
C861 C859 1.415 1_655 S
C862 H852 0.930 . S
C862 C860 1.419 . S
C862 C863 1.362 . S
C863 H853 0.930 . S
C863 C856 1.409 . S
C863 C862 1.362 . S
H864 C870 0.930 . S
H865 C873 0.930 . S
H866 C874 0.930 . S
H867 C875 0.930 . S
H868 C878 0.930 . S
H869 C879 0.930 . S
C870 H864 0.930 . S
C870 C871 1.355 . S
C870 C872 1.415 . S
C871 C870 1.355 . S
C871 C873 1.419 . S
C872 C870 1.415 . S
C872 C877 1.425 . S
C872 C879 1.409 . S
C873 H865 0.930 . S
C873 C871 1.419 . S
C873 C874 1.362 . S
C874 H866 0.930 . S
C874 C873 1.362 . S
C874 C877 1.409 . S
C875 H867 0.930 . S
C875 C876 1.355 . S
C875 C877 1.415 . S
C876 C875 1.355 . S
C876 C878 1.419 . S
C877 C872 1.425 . S
C877 C874 1.409 . S
C877 C875 1.415 . S
C878 H868 0.930 . S
C878 C876 1.419 . S
C878 C879 1.362 . S
C879 H869 0.930 . S
C879 C872 1.409 . S
C879 C878 1.362 . S
H880 C886 0.930 . S
H881 C889 0.930 . S
H882 C890 0.930 . S
H883 C891 0.930 . S
H884 C894 0.930 . S
H885 C895 0.930 . S
C886 H880 0.930 . S
C886 C887 1.355 . S
C886 C888 1.415 . S
C887 C886 1.355 . S
C887 C889 1.419 . S
C888 C886 1.415 . S
C888 C893 1.425 . S
C888 C895 1.409 . S
C889 H881 0.930 . S
C889 C887 1.419 . S
C889 C890 1.362 . S
C890 H882 0.930 . S
C890 C889 1.362 . S
C890 C893 1.409 . S
C891 H883 0.930 . S
C891 C892 1.355 . S
C891 C893 1.415 . S
C892 C891 1.355 . S
C892 C894 1.419 . S
C893 C888 1.425 . S
C893 C890 1.409 . S
C893 C891 1.415 . S
C894 H884 0.930 . S
C894 C892 1.419 . S
C894 C895 1.362 . S
C895 H885 0.930 . S
C895 C888 1.409 . S
C895 C894 1.362 . S
H896 C902 0.930 . S
H897 C905 0.930 . S
H898 C906 0.930 . S
H899 C907 0.930 . S
H900 C910 0.930 . S
H901 C911 0.930 . S
C902 H896 0.930 . S
C902 C903 1.355 . S
C902 C904 1.415 . S
C903 C902 1.355 . S
C903 C905 1.419 . S
C904 C902 1.415 . S
C904 C909 1.425 1_655 S
C904 C911 1.409 . S
C905 H897 0.930 . S
C905 C903 1.419 . S
C905 C906 1.362 1_655 S
C906 H898 0.930 . S
C906 C905 1.362 1_455 S
C906 C909 1.409 . S
C907 H899 0.930 . S
C907 C908 1.355 . S
C907 C909 1.415 . S
C908 C907 1.355 . S
C908 C910 1.419 . S
C909 C904 1.425 1_455 S
C909 C906 1.409 . S
C909 C907 1.415 . S
C910 H900 0.930 . S
C910 C908 1.419 . S
C910 C911 1.362 1_455 S
C911 H901 0.930 . S
C911 C904 1.409 . S
C911 C910 1.362 1_655 S
H912 C918 0.930 . S
H913 C921 0.930 . S
H914 C922 0.930 . S
H915 C923 0.930 . S
H916 C926 0.930 . S
H917 C927 0.930 . S
C918 H912 0.930 . S
C918 C919 1.355 . S
C918 C920 1.415 . S
C919 C918 1.355 . S
C919 C921 1.419 . S
C920 C918 1.415 . S
C920 C925 1.425 . S
C920 C927 1.409 . S
C921 H913 0.930 . S
C921 C919 1.419 . S
C921 C922 1.362 . S
C922 H914 0.930 . S
C922 C921 1.362 . S
C922 C925 1.409 . S
C923 H915 0.930 . S
C923 C924 1.355 . S
C923 C925 1.415 . S
C924 C923 1.355 . S
C924 C926 1.419 . S
C925 C920 1.425 . S
C925 C922 1.409 . S
C925 C923 1.415 . S
C926 H916 0.930 . S
C926 C924 1.419 . S
C926 C927 1.362 . S
C927 H917 0.930 . S
C927 C920 1.409 . S
C927 C926 1.362 . S
H928 C934 0.930 . S
H929 C937 0.930 . S
H930 C938 0.971 . S
H931 C939 0.930 . S
H932 C942 0.930 . S
H933 C943 0.930 . S
C934 H928 0.930 . S
C934 C935 1.355 . S
C934 C936 1.415 . S
C935 C934 1.355 . S
C935 C937 1.419 . S
C936 C934 1.415 . S
C936 C941 1.425 . S
C936 C943 1.409 . S
C937 H929 0.930 . S
C937 C935 1.419 . S
C937 C938 1.362 . S
C938 H930 0.971 . S
C938 C937 1.362 . S
C938 C941 1.409 . S
C939 H931 0.930 . S
C939 C940 1.355 . S
C939 C941 1.415 . S
C940 C939 1.355 . S
C940 C942 1.419 . S
C941 C936 1.425 . S
C941 C938 1.409 . S
C941 C939 1.415 . S
C942 H932 0.930 . S
C942 C940 1.419 . S
C942 C943 1.362 . S
C943 H933 0.930 . S
C943 C936 1.409 . S
C943 C942 1.362 . S
H944 C950 0.930 . S
H945 C953 0.930 . S
H946 C954 0.930 . S
H947 C955 0.930 . S
H948 C958 0.930 . S
H949 C959 0.930 . S
C950 H944 0.930 . S
C950 C951 1.355 . S
C950 C952 1.415 1_655 S
C951 C950 1.355 . S
C951 C953 1.419 . S
C952 C950 1.415 1_455 S
C952 C957 1.425 1_455 S
C952 C959 1.409 . S
C953 H945 0.930 . S
C953 C951 1.419 . S
C953 C954 1.362 . S
C954 H946 0.930 . S
C954 C953 1.362 . S
C954 C957 1.409 . S
C955 H947 0.930 . S
C955 C956 1.355 . S
C955 C957 1.415 1_455 S
C956 C955 1.355 . S
C956 C958 1.419 . S
C957 C952 1.425 1_655 S
C957 C954 1.409 . S
C957 C955 1.415 1_655 S
C958 H948 0.930 . S
C958 C956 1.419 . S
C958 C959 1.362 . S
C959 H949 0.930 . S
C959 C952 1.409 . S
C959 C958 1.362 . S
H960 C966 0.930 . S
H961 C969 0.930 . S
H962 C970 0.930 . S
H963 C971 0.930 . S
H964 C974 0.930 . S
H965 C975 0.930 . S
C966 H960 0.930 . S
C966 C967 1.355 1_554 S
C966 C968 1.415 . S
C967 C966 1.355 1_556 S
C967 C969 1.419 . S
C968 C966 1.415 . S
C968 C973 1.425 1_554 S
C968 C975 1.409 . S
C969 H961 0.930 . S
C969 C967 1.419 . S
C969 C970 1.362 . S
C970 H962 0.930 . S
C970 C969 1.362 . S
C970 C973 1.409 . S
C971 H963 0.930 . S
C971 C972 1.355 1_556 S
C971 C973 1.415 . S
C972 C971 1.355 1_554 S
C972 C974 1.419 . S
C973 C968 1.425 1_556 S
C973 C970 1.409 . S
C973 C971 1.415 . S
C974 H964 0.930 . S
C974 C972 1.419 . S
C974 C975 1.362 . S
C975 H965 0.930 . S
C975 C968 1.409 . S
C975 C974 1.362 . S
H976 C982 0.930 . S
H977 C985 0.930 . S
H978 C986 0.930 . S
H979 C987 0.930 . S
H980 C990 0.930 . S
H981 C991 0.930 . S
C982 H976 0.930 . S
C982 C983 1.355 . S
C982 C984 1.415 . S
C983 C982 1.355 . S
C983 C985 1.419 . S
C984 C982 1.415 . S
C984 C989 1.425 1_545 S
C984 C991 1.409 1_545 S
C985 H977 0.930 . S
C985 C983 1.419 . S
C985 C986 1.362 . S
C986 H978 0.930 . S
C986 C985 1.362 . S
C986 C989 1.409 1_545 S
C987 H979 0.930 . S
C987 C988 1.355 . S
C987 C989 1.415 . S
C988 C987 1.355 . S
C988 C990 1.419 . S
C989 C984 1.425 1_565 S
C989 C986 1.409 1_565 S
C989 C987 1.415 . S
C990 H980 0.930 . S
C990 C988 1.419 . S
C990 C991 1.362 . S
C991 H981 0.930 . S
C991 C984 1.409 1_565 S
C991 C990 1.362 . S
H992 C998 0.930 . S
H993 C1001 0.930 . S
H994 C1002 0.930 . S
H995 C1003 0.930 . S
H996 C1006 0.930 . S
H997 C1007 0.930 . S
C998 H992 0.930 . S
C998 C999 1.355 . S
C998 C1000 1.415 . S
C999 C998 1.355 . S
C999 C1001 1.419 . S
C1000 C998 1.415 . S
C1000 C1005 1.425 . S
C1000 C1007 1.409 . S
C1001 H993 0.930 . S
C1001 C999 1.419 . S
C1001 C1002 1.362 . S
C1002 H994 0.930 . S
C1002 C1001 1.362 . S
C1002 C1005 1.409 . S
C1003 H995 0.930 . S
C1003 C1004 1.355 . S
C1003 C1005 1.415 . S
C1004 C1003 1.355 . S
C1004 C1006 1.419 . S
C1005 C1000 1.425 . S
C1005 C1002 1.409 . S
C1005 C1003 1.415 . S
C1006 H996 0.930 . S
C1006 C1004 1.419 . S
C1006 C1007 1.362 . S
C1007 H997 0.930 . S
C1007 C1000 1.409 . S
C1007 C1006 1.362 . S
H1008 C1014 0.930 . S
H1009 C1017 0.930 . S
H1010 C1018 0.930 . S
H1011 C1019 0.930 . S
H1012 C1022 0.930 . S
H1013 C1023 0.930 . S
C1014 H1008 0.930 . S
C1014 C1015 1.355 . S
C1014 C1016 1.415 . S
C1015 C1014 1.355 . S
C1015 C1017 1.419 . S
C1016 C1014 1.415 . S
C1016 C1021 1.425 1_545 S
C1016 C1023 1.409 1_545 S
C1017 H1009 0.930 . S
C1017 C1015 1.419 . S
C1017 C1018 1.362 . S
C1018 H1010 0.930 . S
C1018 C1017 1.362 . S
C1018 C1021 1.409 1_545 S
C1019 H1011 0.930 . S
C1019 C1020 1.355 . S
C1019 C1021 1.415 . S
C1020 C1019 1.355 . S
C1020 C1022 1.419 . S
C1021 C1016 1.425 1_565 S
C1021 C1018 1.409 1_565 S
C1021 C1019 1.415 . S
C1022 H1012 0.930 . S
C1022 C1020 1.419 . S
C1022 C1023 1.362 . S
C1023 H1013 0.930 . S
C1023 C1016 1.409 1_565 S
C1023 C1022 1.362 . S
H1024 C1030 0.930 . S
H1025 C1033 0.930 . S
H1026 C1034 0.930 . S
H1027 C1035 0.930 . S
H1028 C1038 0.930 . S
H1029 C1039 0.930 . S
C1030 H1024 0.930 . S
C1030 C1031 1.355 . S
C1030 C1032 1.415 . S
C1031 C1030 1.355 . S
C1031 C1033 1.419 1_554 S
C1032 C1030 1.415 . S
C1032 C1037 1.425 1_554 S
C1032 C1039 1.409 . S
C1033 H1025 0.930 . S
C1033 C1031 1.419 1_556 S
C1033 C1034 1.362 . S
C1034 H1026 0.930 . S
C1034 C1033 1.362 . S
C1034 C1037 1.409 . S
C1035 H1027 0.930 . S
C1035 C1036 1.355 . S
C1035 C1037 1.415 . S
C1036 C1035 1.355 . S
C1036 C1038 1.419 1_556 S
C1037 C1032 1.425 1_556 S
C1037 C1034 1.409 . S
C1037 C1035 1.415 . S
C1038 H1028 0.930 . S
C1038 C1036 1.419 1_554 S
C1038 C1039 1.362 . S
C1039 H1029 0.930 . S
C1039 C1032 1.409 . S
C1039 C1038 1.362 . S
H1040 C1046 0.930 . S
H1041 C1049 0.930 . S
H1042 C1050 0.930 1_545 S
H1043 C1051 0.930 . S
H1044 C1054 0.930 . S
H1045 C1055 0.930 1_565 S
C1046 H1040 0.930 . S
C1046 C1047 1.355 . S
C1046 C1048 1.415 . S
C1047 C1046 1.355 . S
C1047 C1049 1.419 . S
C1048 C1046 1.415 . S
C1048 C1053 1.425 1_565 S
C1048 C1055 1.409 1_565 S
C1049 H1041 0.930 . S
C1049 C1047 1.419 . S
C1049 C1050 1.362 . S
C1050 H1042 0.930 1_565 S
C1050 C1049 1.362 . S
C1050 C1053 1.409 1_565 S
C1051 H1043 0.930 . S
C1051 C1052 1.355 . S
C1051 C1053 1.415 . S
C1052 C1051 1.355 . S
C1052 C1054 1.419 . S
C1053 C1048 1.425 1_545 S
C1053 C1050 1.409 1_545 S
C1053 C1051 1.415 . S
C1054 H1044 0.930 . S
C1054 C1052 1.419 . S
C1054 C1055 1.362 . S
C1055 H1045 0.930 1_545 S
C1055 C1048 1.409 1_545 S
C1055 C1054 1.362 . S
H1056 C1062 0.930 . S
H1057 C1065 0.930 . S
H1058 C1066 0.930 . S
H1059 C1067 0.930 . S
H1060 C1070 0.930 . S
H1061 C1071 0.930 . S
C1062 H1056 0.930 . S
C1062 C1063 1.355 . S
C1062 C1064 1.415 . S
C1063 C1062 1.355 . S
C1063 C1065 1.419 . S
C1064 C1062 1.415 . S
C1064 C1069 1.425 . S
C1064 C1071 1.409 . S
C1065 H1057 0.930 . S
C1065 C1063 1.419 . S
C1065 C1066 1.362 . S
C1066 H1058 0.930 . S
C1066 C1065 1.362 . S
C1066 C1069 1.409 . S
C1067 H1059 0.930 . S
C1067 C1068 1.355 . S
C1067 C1069 1.415 . S
C1068 C1067 1.355 . S
C1068 C1070 1.419 . S
C1069 C1064 1.425 . S
C1069 C1066 1.409 . S
C1069 C1067 1.415 . S
C1070 H1060 0.930 . S
C1070 C1068 1.419 . S
C1070 C1071 1.362 . S
C1071 H1061 0.930 . S
C1071 C1064 1.409 . S
C1071 C1070 1.362 . S
H1072 C1078 0.930 . S
H1073 C1081 0.930 . S
H1074 C1082 0.930 . S
H1075 C1083 0.930 . S
H1076 C1086 0.930 . S
H1077 C1087 0.930 . S
C1078 H1072 0.930 . S
C1078 C1079 1.355 . S
C1078 C1080 1.415 . S
C1079 C1078 1.355 . S
C1079 C1081 1.419 . S
C1080 C1078 1.415 . S
C1080 C1085 1.425 1_545 S
C1080 C1087 1.409 1_545 S
C1081 H1073 0.930 . S
C1081 C1079 1.419 . S
C1081 C1082 1.362 . S
C1082 H1074 0.930 . S
C1082 C1081 1.362 . S
C1082 C1085 1.409 1_545 S
C1083 H1075 0.930 . S
C1083 C1084 1.355 . S
C1083 C1085 1.415 . S
C1084 C1083 1.355 . S
C1084 C1086 1.419 . S
C1085 C1080 1.425 1_565 S
C1085 C1082 1.409 1_565 S
C1085 C1083 1.415 . S
C1086 H1076 0.930 . S
C1086 C1084 1.419 . S
C1086 C1087 1.362 . S
C1087 H1077 0.930 . S
C1087 C1080 1.409 1_565 S
C1087 C1086 1.362 . S
H1088 C1094 0.930 . S
H1089 C1097 0.930 . S
H1090 C1098 0.930 . S
H1091 C1099 0.930 . S
H1092 C1102 0.930 . S
H1093 C1103 0.930 . S
C1094 H1088 0.930 . S
C1094 C1095 1.355 . S
C1094 C1096 1.415 . S
C1095 C1094 1.355 . S
C1095 C1097 1.419 . S
C1096 C1094 1.415 . S
C1096 C1101 1.425 . S
C1096 C1103 1.409 . S
C1097 H1089 0.930 . S
C1097 C1095 1.419 . S
C1097 C1098 1.362 . S
C1098 H1090 0.930 . S
C1098 C1097 1.362 . S
C1098 C1101 1.409 . S
C1099 H1091 0.930 . S
C1099 C1100 1.355 . S
C1099 C1101 1.415 . S
C1100 C1099 1.355 . S
C1100 C1102 1.419 . S
C1101 C1096 1.425 . S
C1101 C1098 1.409 . S
C1101 C1099 1.415 . S
C1102 H1092 0.930 . S
C1102 C1100 1.419 . S
C1102 C1103 1.362 . S
C1103 H1093 0.930 . S
C1103 C1096 1.409 . S
C1103 C1102 1.362 . S
H1104 C1110 0.930 . S
H1105 C1113 0.930 . S
H1106 C1114 0.930 . S
H1107 C1115 0.930 . S
H1108 C1118 0.930 . S
H1109 C1119 0.930 . S
C1110 H1104 0.930 . S
C1110 C1111 1.355 . S
C1110 C1112 1.415 . S
C1111 C1110 1.355 . S
C1111 C1113 1.419 . S
C1112 C1110 1.415 . S
C1112 C1117 1.425 . S
C1112 C1119 1.409 . S
C1113 H1105 0.930 . S
C1113 C1111 1.419 . S
C1113 C1114 1.362 . S
C1114 H1106 0.930 . S
C1114 C1113 1.362 . S
C1114 C1117 1.409 . S
C1115 H1107 0.930 . S
C1115 C1116 1.355 . S
C1115 C1117 1.415 . S
C1116 C1115 1.355 . S
C1116 C1118 1.419 . S
C1117 C1112 1.425 . S
C1117 C1114 1.409 . S
C1117 C1115 1.415 . S
C1118 H1108 0.930 . S
C1118 C1116 1.419 . S
C1118 C1119 1.362 . S
C1119 H1109 0.930 . S
C1119 C1112 1.409 . S
C1119 C1118 1.362 . S
H1120 C1126 0.930 . S
H1121 C1129 0.930 . S
H1122 C1130 0.930 . S
H1123 C1131 0.930 . S
H1124 C1134 0.930 . S
H1125 C1135 0.930 . S
C1126 H1120 0.930 . S
C1126 C1127 1.355 1_556 S
C1126 C1128 1.415 . S
C1127 C1126 1.355 1_554 S
C1127 C1129 1.419 . S
C1128 C1126 1.415 . S
C1128 C1133 1.425 1_556 S
C1128 C1135 1.409 . S
C1129 H1121 0.930 . S
C1129 C1127 1.419 . S
C1129 C1130 1.362 . S
C1130 H1122 0.930 . S
C1130 C1129 1.362 . S
C1130 C1133 1.409 . S
C1131 H1123 0.930 . S
C1131 C1132 1.355 1_554 S
C1131 C1133 1.415 . S
C1132 C1131 1.355 1_556 S
C1132 C1134 1.419 . S
C1133 C1128 1.425 1_554 S
C1133 C1130 1.409 . S
C1133 C1131 1.415 . S
C1134 H1124 0.930 . S
C1134 C1132 1.419 . S
C1134 C1135 1.362 . S
C1135 H1125 0.930 . S
C1135 C1128 1.409 . S
C1135 C1134 1.362 . S
H1136 C1142 0.930 . S
H1137 C1145 0.930 . S
H1138 C1146 0.930 . S
H1139 C1147 0.930 . S
H1140 C1150 0.930 . S
H1141 C1151 0.930 . S
C1142 H1136 0.930 . S
C1142 C1143 1.355 . S
C1142 C1144 1.415 . S
C1143 C1142 1.355 . S
C1143 C1145 1.419 . S
C1144 C1142 1.415 . S
C1144 C1149 1.425 . S
C1144 C1151 1.409 . S
C1145 H1137 0.930 . S
C1145 C1143 1.419 . S
C1145 C1146 1.362 . S
C1146 H1138 0.930 . S
C1146 C1145 1.362 . S
C1146 C1149 1.409 . S
C1147 H1139 0.930 . S
C1147 C1148 1.355 . S
C1147 C1149 1.415 . S
C1148 C1147 1.355 . S
C1148 C1150 1.419 . S
C1149 C1144 1.425 . S
C1149 C1146 1.409 . S
C1149 C1147 1.415 . S
C1150 H1140 0.930 . S
C1150 C1148 1.419 . S
C1150 C1151 1.362 . S
C1151 H1141 0.930 . S
C1151 C1144 1.409 . S
C1151 C1150 1.362 . S
H1152 C1158 0.930 . S
H1153 C1161 0.930 . S
H1154 C1162 0.930 . S
H1155 C1163 0.930 . S
H1156 C1166 0.930 . S
H1157 C1167 0.930 . S
C1158 H1152 0.930 . S
C1158 C1159 1.355 . S
C1158 C1160 1.415 . S
C1159 C1158 1.355 . S
C1159 C1161 1.419 . S
C1160 C1158 1.415 . S
C1160 C1165 1.425 . S
C1160 C1167 1.409 . S
C1161 H1153 0.930 . S
C1161 C1159 1.419 . S
C1161 C1162 1.362 . S
C1162 H1154 0.930 . S
C1162 C1161 1.362 . S
C1162 C1165 1.409 . S
C1163 H1155 0.930 . S
C1163 C1164 1.355 . S
C1163 C1165 1.415 . S
C1164 C1163 1.355 . S
C1164 C1166 1.419 . S
C1165 C1160 1.425 . S
C1165 C1162 1.409 . S
C1165 C1163 1.415 . S
C1166 H1156 0.930 . S
C1166 C1164 1.419 . S
C1166 C1167 1.362 . S
C1167 H1157 0.930 . S
C1167 C1160 1.409 . S
C1167 C1166 1.362 . S
H1168 C1174 0.930 . S
H1169 C1177 0.930 . S
H1170 C1178 0.930 . S
H1171 C1179 0.930 . S
H1172 C1182 0.930 . S
H1173 C1183 0.930 . S
C1174 H1168 0.930 . S
C1174 C1175 1.355 . S
C1174 C1176 1.415 . S
C1175 C1174 1.355 . S
C1175 C1177 1.419 . S
C1176 C1174 1.415 . S
C1176 C1181 1.425 . S
C1176 C1183 1.409 . S
C1177 H1169 0.930 . S
C1177 C1175 1.419 . S
C1177 C1178 1.362 . S
C1178 H1170 0.930 . S
C1178 C1177 1.362 . S
C1178 C1181 1.409 . S
C1179 H1171 0.930 . S
C1179 C1180 1.355 . S
C1179 C1181 1.415 . S
C1180 C1179 1.355 . S
C1180 C1182 1.419 . S
C1181 C1176 1.425 . S
C1181 C1178 1.409 . S
C1181 C1179 1.415 . S
C1182 H1172 0.930 . S
C1182 C1180 1.419 . S
C1182 C1183 1.362 . S
C1183 H1173 0.930 . S
C1183 C1176 1.409 . S
C1183 C1182 1.362 . S
H1184 C1190 0.930 . S
H1185 C1193 0.930 . S
H1186 C1194 0.930 . S
H1187 C1195 0.930 . S
H1188 C1198 0.930 . S
H1189 C1199 0.930 . S
C1190 H1184 0.930 . S
C1190 C1191 1.355 1_554 S
C1190 C1192 1.415 . S
C1191 C1190 1.355 1_556 S
C1191 C1193 1.419 . S
C1192 C1190 1.415 . S
C1192 C1197 1.425 1_554 S
C1192 C1199 1.409 . S
C1193 H1185 0.930 . S
C1193 C1191 1.419 . S
C1193 C1194 1.362 . S
C1194 H1186 0.930 . S
C1194 C1193 1.362 . S
C1194 C1197 1.409 . S
C1195 H1187 0.930 . S
C1195 C1196 1.355 1_556 S
C1195 C1197 1.415 . S
C1196 C1195 1.355 1_554 S
C1196 C1198 1.419 . S
C1197 C1192 1.425 1_556 S
C1197 C1194 1.409 . S
C1197 C1195 1.415 . S
C1198 H1188 0.930 . S
C1198 C1196 1.419 . S
C1198 C1199 1.362 . S
C1199 H1189 0.930 . S
C1199 C1192 1.409 . S
C1199 C1198 1.362 . S
H1200 C1206 0.930 . S
H1201 C1209 0.930 . S
H1202 C1210 0.930 . S
H1203 C1211 0.930 . S
H1204 C1214 0.930 . S
H1205 C1215 0.930 . S
C1206 H1200 0.930 . S
C1206 C1207 1.355 . S
C1206 C1208 1.415 . S
C1207 C1206 1.355 . S
C1207 C1209 1.419 . S
C1208 C1206 1.415 . S
C1208 C1213 1.425 . S
C1208 C1215 1.409 . S
C1209 H1201 0.930 . S
C1209 C1207 1.419 . S
C1209 C1210 1.362 . S
C1210 H1202 0.930 . S
C1210 C1209 1.362 . S
C1210 C1213 1.409 . S
C1211 H1203 0.930 . S
C1211 C1212 1.355 . S
C1211 C1213 1.415 . S
C1212 C1211 1.355 . S
C1212 C1214 1.419 . S
C1213 C1208 1.425 . S
C1213 C1210 1.409 . S
C1213 C1211 1.415 . S
C1214 H1204 0.930 . S
C1214 C1212 1.419 . S
C1214 C1215 1.362 . S
C1215 H1205 0.930 . S
C1215 C1208 1.409 . S
C1215 C1214 1.362 . S
H1216 C1222 0.930 . S
H1217 C1225 0.930 . S
H1218 C1226 0.930 . S
H1219 C1227 0.930 . S
H1220 C1230 0.930 . S
H1221 C1231 0.930 . S
C1222 H1216 0.930 . S
C1222 C1223 1.355 . S
C1222 C1224 1.415 . S
C1223 C1222 1.355 . S
C1223 C1225 1.419 . S
C1224 C1222 1.415 . S
C1224 C1229 1.425 . S
C1224 C1231 1.409 . S
C1225 H1217 0.930 . S
C1225 C1223 1.419 . S
C1225 C1226 1.362 . S
C1226 H1218 0.930 . S
C1226 C1225 1.362 . S
C1226 C1229 1.409 . S
C1227 H1219 0.930 . S
C1227 C1228 1.355 . S
C1227 C1229 1.415 . S
C1228 C1227 1.355 . S
C1228 C1230 1.419 . S
C1229 C1224 1.425 . S
C1229 C1226 1.409 . S
C1229 C1227 1.415 . S
C1230 H1220 0.930 . S
C1230 C1228 1.419 . S
C1230 C1231 1.362 . S
C1231 H1221 0.930 . S
C1231 C1224 1.409 . S
C1231 C1230 1.362 . S
H1232 C1238 0.930 . S
H1233 C1241 0.930 . S
H1234 C1242 0.930 . S
H1235 C1243 0.930 . S
H1236 C1246 0.930 . S
H1237 C1247 0.930 . S
C1238 H1232 0.930 . S
C1238 C1239 1.355 . S
C1238 C1240 1.415 . S
C1239 C1238 1.355 . S
C1239 C1241 1.419 . S
C1240 C1238 1.415 . S
C1240 C1245 1.425 . S
C1240 C1247 1.409 . S
C1241 H1233 0.930 . S
C1241 C1239 1.419 . S
C1241 C1242 1.362 . S
C1242 H1234 0.930 . S
C1242 C1241 1.362 . S
C1242 C1245 1.409 . S
C1243 H1235 0.930 . S
C1243 C1244 1.355 . S
C1243 C1245 1.415 . S
C1244 C1243 1.355 . S
C1244 C1246 1.419 . S
C1245 C1240 1.425 . S
C1245 C1242 1.409 . S
C1245 C1243 1.415 . S
C1246 H1236 0.930 . S
C1246 C1244 1.419 . S
C1246 C1247 1.362 . S
C1247 H1237 0.930 . S
C1247 C1240 1.409 . S
C1247 C1246 1.362 . S
H1248 C1254 0.930 . S
H1249 C1257 0.930 . S
H1250 C1258 0.930 . S
H1251 C1259 0.930 . S
H1252 C1262 0.930 . S
H1253 C1263 0.930 . S
C1254 H1248 0.930 . S
C1254 C1255 1.355 . S
C1254 C1256 1.415 . S
C1255 C1254 1.355 . S
C1255 C1257 1.419 . S
C1256 C1254 1.415 . S
C1256 C1261 1.425 . S
C1256 C1263 1.409 . S
C1257 H1249 0.930 . S
C1257 C1255 1.419 . S
C1257 C1258 1.362 . S
C1258 H1250 0.930 . S
C1258 C1257 1.362 . S
C1258 C1261 1.409 . S
C1259 H1251 0.930 . S
C1259 C1260 1.355 . S
C1259 C1261 1.415 . S
C1260 C1259 1.355 . S
C1260 C1262 1.419 . S
C1261 C1256 1.425 . S
C1261 C1258 1.409 . S
C1261 C1259 1.415 . S
C1262 H1252 0.930 . S
C1262 C1260 1.419 . S
C1262 C1263 1.362 . S
C1263 H1253 0.930 . S
C1263 C1256 1.409 . S
C1263 C1262 1.362 . S
H1264 C1270 0.930 . S
H1265 C1273 0.930 . S
H1266 C1274 0.930 . S
H1267 C1275 0.930 . S
H1268 C1278 0.930 . S
H1269 C1279 0.930 . S
C1270 H1264 0.930 . S
C1270 C1271 1.355 . S
C1270 C1272 1.415 . S
C1271 C1270 1.355 . S
C1271 C1273 1.419 . S
C1272 C1270 1.415 . S
C1272 C1277 1.425 . S
C1272 C1279 1.409 . S
C1273 H1265 0.930 . S
C1273 C1271 1.419 . S
C1273 C1274 1.362 . S
C1274 H1266 0.930 . S
C1274 C1273 1.362 . S
C1274 C1277 1.409 . S
C1275 H1267 0.930 . S
C1275 C1276 1.355 . S
C1275 C1277 1.415 . S
C1276 C1275 1.355 . S
C1276 C1278 1.419 . S
C1277 C1272 1.425 . S
C1277 C1274 1.409 . S
C1277 C1275 1.415 . S
C1278 H1268 0.930 . S
C1278 C1276 1.419 . S
C1278 C1279 1.362 . S
C1279 H1269 0.930 . S
C1279 C1272 1.409 . S
C1279 C1278 1.362 . S
H1280 C1286 0.930 . S
H1281 C1289 0.930 . S
H1282 C1290 0.930 . S
H1283 C1291 0.930 . S
H1284 C1294 0.930 . S
H1285 C1295 0.930 . S
C1286 H1280 0.930 . S
C1286 C1287 1.355 . S
C1286 C1288 1.415 . S
C1287 C1286 1.355 . S
C1287 C1289 1.419 . S
C1288 C1286 1.415 . S
C1288 C1293 1.425 . S
C1288 C1295 1.409 . S
C1289 H1281 0.930 . S
C1289 C1287 1.419 . S
C1289 C1290 1.362 . S
C1290 H1282 0.930 . S
C1290 C1289 1.362 . S
C1290 C1293 1.409 . S
C1291 H1283 0.930 . S
C1291 C1292 1.355 . S
C1291 C1293 1.415 . S
C1292 C1291 1.355 . S
C1292 C1294 1.419 . S
C1293 C1288 1.425 . S
C1293 C1290 1.409 . S
C1293 C1291 1.415 . S
C1294 H1284 0.930 . S
C1294 C1292 1.419 . S
C1294 C1295 1.362 . S
C1295 H1285 0.930 . S
C1295 C1288 1.409 . S
C1295 C1294 1.362 . S
H1296 C1302 0.930 . S
H1297 C1305 0.930 . S
H1298 C1306 0.930 . S
H1299 C1307 0.930 . S
H1300 C1310 0.930 . S
H1301 C1311 0.930 . S
C1302 H1296 0.930 . S
C1302 C1303 1.355 . S
C1302 C1304 1.415 . S
C1303 C1302 1.355 . S
C1303 C1305 1.419 . S
C1304 C1302 1.415 . S
C1304 C1309 1.425 . S
C1304 C1311 1.409 . S
C1305 H1297 0.930 . S
C1305 C1303 1.419 . S
C1305 C1306 1.362 . S
C1306 H1298 0.930 . S
C1306 C1305 1.362 . S
C1306 C1309 1.409 . S
C1307 H1299 0.930 . S
C1307 C1308 1.355 . S
C1307 C1309 1.415 . S
C1308 C1307 1.355 . S
C1308 C1310 1.419 . S
C1309 C1304 1.425 . S
C1309 C1306 1.409 . S
C1309 C1307 1.415 . S
C1310 H1300 0.930 . S
C1310 C1308 1.419 . S
C1310 C1311 1.362 . S
C1311 H1301 0.930 . S
C1311 C1304 1.409 . S
C1311 C1310 1.362 . S
H1312 C1318 0.930 . S
H1313 C1321 0.930 . S
H1314 C1322 0.930 . S
H1315 C1323 0.930 . S
H1316 C1326 0.930 . S
H1317 C1327 0.930 . S
C1318 H1312 0.930 . S
C1318 C1319 1.355 . S
C1318 C1320 1.415 . S
C1319 C1318 1.355 . S
C1319 C1321 1.419 . S
C1320 C1318 1.415 . S
C1320 C1325 1.425 . S
C1320 C1327 1.409 . S
C1321 H1313 0.930 . S
C1321 C1319 1.419 . S
C1321 C1322 1.362 . S
C1322 H1314 0.930 . S
C1322 C1321 1.362 . S
C1322 C1325 1.409 . S
C1323 H1315 0.930 . S
C1323 C1324 1.355 . S
C1323 C1325 1.415 . S
C1324 C1323 1.355 . S
C1324 C1326 1.419 . S
C1325 C1320 1.425 . S
C1325 C1322 1.409 . S
C1325 C1323 1.415 . S
C1326 H1316 0.930 . S
C1326 C1324 1.419 . S
C1326 C1327 1.362 . S
C1327 H1317 0.930 . S
C1327 C1320 1.409 . S
C1327 C1326 1.362 . S
H1328 C1334 0.930 . S
H1329 C1337 0.930 . S
H1330 C1338 0.930 . S
H1331 C1339 0.930 . S
H1332 C1342 0.930 . S
H1333 C1343 0.930 . S
C1334 H1328 0.930 . S
C1334 C1335 1.355 . S
C1334 C1336 1.415 . S
C1335 C1334 1.355 . S
C1335 C1337 1.419 . S
C1336 C1334 1.415 . S
C1336 C1341 1.425 . S
C1336 C1343 1.409 . S
C1337 H1329 0.930 . S
C1337 C1335 1.419 . S
C1337 C1338 1.362 . S
C1338 H1330 0.930 . S
C1338 C1337 1.362 . S
C1338 C1341 1.409 . S
C1339 H1331 0.930 . S
C1339 C1340 1.355 . S
C1339 C1341 1.415 . S
C1340 C1339 1.355 . S
C1340 C1342 1.419 . S
C1341 C1336 1.425 . S
C1341 C1338 1.409 . S
C1341 C1339 1.415 . S
C1342 H1332 0.930 . S
C1342 C1340 1.419 . S
C1342 C1343 1.362 . S
C1343 H1333 0.930 . S
C1343 C1336 1.409 . S
C1343 C1342 1.362 . S
H1344 C1350 0.930 . S
H1345 C1353 0.930 . S
H1346 C1354 0.930 . S
H1347 C1355 0.930 . S
H1348 C1358 0.930 . S
H1349 C1359 0.930 . S
C1350 H1344 0.930 . S
C1350 C1351 1.355 . S
C1350 C1352 1.415 . S
C1351 C1350 1.355 . S
C1351 C1353 1.419 . S
C1352 C1350 1.415 . S
C1352 C1357 1.425 . S
C1352 C1359 1.409 . S
C1353 H1345 0.930 . S
C1353 C1351 1.419 . S
C1353 C1354 1.362 . S
C1354 H1346 0.930 . S
C1354 C1353 1.362 . S
C1354 C1357 1.409 . S
C1355 H1347 0.930 . S
C1355 C1356 1.355 . S
C1355 C1357 1.415 . S
C1356 C1355 1.355 . S
C1356 C1358 1.419 . S
C1357 C1352 1.425 . S
C1357 C1354 1.409 . S
C1357 C1355 1.415 . S
C1358 H1348 0.930 . S
C1358 C1356 1.419 . S
C1358 C1359 1.362 . S
C1359 H1349 0.930 . S
C1359 C1352 1.409 . S
C1359 C1358 1.362 . S
H1360 C1366 0.930 . S
H1361 C1369 0.930 . S
H1362 C1370 0.930 . S
H1363 C1371 0.930 . S
H1364 C1374 0.930 . S
H1365 C1375 0.930 . S
C1366 H1360 0.930 . S
C1366 C1367 1.355 . S
C1366 C1368 1.415 . S
C1367 C1366 1.355 . S
C1367 C1369 1.419 . S
C1368 C1366 1.415 . S
C1368 C1373 1.425 . S
C1368 C1375 1.409 . S
C1369 H1361 0.930 . S
C1369 C1367 1.419 . S
C1369 C1370 1.362 . S
C1370 H1362 0.930 . S
C1370 C1369 1.362 . S
C1370 C1373 1.409 . S
C1371 H1363 0.930 . S
C1371 C1372 1.355 . S
C1371 C1373 1.415 . S
C1372 C1371 1.355 . S
C1372 C1374 1.419 . S
C1373 C1368 1.425 . S
C1373 C1370 1.409 . S
C1373 C1371 1.415 . S
C1374 H1364 0.930 . S
C1374 C1372 1.419 . S
C1374 C1375 1.362 . S
C1375 H1365 0.930 . S
C1375 C1368 1.409 . S
C1375 C1374 1.362 . S
H1376 C1382 0.930 . S
H1377 C1385 0.930 . S
H1378 C1386 0.930 . S
H1379 C1387 0.930 . S
H1380 C1390 0.930 . S
H1381 C1391 0.930 . S
C1382 H1376 0.930 . S
C1382 C1383 1.355 . S
C1382 C1384 1.415 . S
C1383 C1382 1.355 . S
C1383 C1385 1.419 . S
C1384 C1382 1.415 . S
C1384 C1389 1.425 . S
C1384 C1391 1.409 . S
C1385 H1377 0.930 . S
C1385 C1383 1.419 . S
C1385 C1386 1.362 . S
C1386 H1378 0.930 . S
C1386 C1385 1.362 . S
C1386 C1389 1.409 . S
C1387 H1379 0.930 . S
C1387 C1388 1.355 . S
C1387 C1389 1.415 . S
C1388 C1387 1.355 . S
C1388 C1390 1.419 . S
C1389 C1384 1.425 . S
C1389 C1386 1.409 . S
C1389 C1387 1.415 . S
C1390 H1380 0.930 . S
C1390 C1388 1.419 . S
C1390 C1391 1.362 . S
C1391 H1381 0.930 . S
C1391 C1384 1.409 . S
C1391 C1390 1.362 . S
H1392 C1398 0.930 . S
H1393 C1401 0.930 . S
H1394 C1402 0.930 . S
H1395 C1403 0.930 . S
H1396 C1406 0.930 . S
H1397 C1407 0.930 . S
C1398 H1392 0.930 . S
C1398 C1399 1.355 . S
C1398 C1400 1.415 . S
C1399 C1398 1.355 . S
C1399 C1401 1.419 . S
C1400 C1398 1.415 . S
C1400 C1405 1.425 . S
C1400 C1407 1.409 . S
C1401 H1393 0.930 . S
C1401 C1399 1.419 . S
C1401 C1402 1.362 . S
C1402 H1394 0.930 . S
C1402 C1401 1.362 . S
C1402 C1405 1.409 . S
C1403 H1395 0.930 . S
C1403 C1404 1.355 . S
C1403 C1405 1.415 . S
C1404 C1403 1.355 . S
C1404 C1406 1.419 . S
C1405 C1400 1.425 . S
C1405 C1402 1.409 . S
C1405 C1403 1.415 . S
C1406 H1396 0.930 . S
C1406 C1404 1.419 . S
C1406 C1407 1.362 . S
C1407 H1397 0.930 . S
C1407 C1400 1.409 . S
C1407 C1406 1.362 . S
H1408 C1414 0.930 . S
H1409 C1417 0.930 . S
H1410 C1418 0.930 . S
H1411 C1419 0.930 . S
H1412 C1422 0.930 . S
H1413 C1423 0.930 . S
C1414 H1408 0.930 . S
C1414 C1415 1.355 . S
C1414 C1416 1.415 . S
C1415 C1414 1.355 . S
C1415 C1417 1.419 . S
C1416 C1414 1.415 . S
C1416 C1421 1.425 . S
C1416 C1423 1.409 . S
C1417 H1409 0.930 . S
C1417 C1415 1.419 . S
C1417 C1418 1.362 . S
C1418 H1410 0.930 . S
C1418 C1417 1.362 . S
C1418 C1421 1.409 . S
C1419 H1411 0.930 . S
C1419 C1420 1.355 . S
C1419 C1421 1.415 . S
C1420 C1419 1.355 . S
C1420 C1422 1.419 . S
C1421 C1416 1.425 . S
C1421 C1418 1.409 . S
C1421 C1419 1.415 . S
C1422 H1412 0.930 . S
C1422 C1420 1.419 . S
C1422 C1423 1.362 . S
C1423 H1413 0.930 . S
C1423 C1416 1.409 . S
C1423 C1422 1.362 . S
H1424 C1430 0.930 . S
H1425 C1433 0.930 . S
H1426 C1434 0.930 . S
H1427 C1435 0.930 . S
H1428 C1438 0.930 . S
H1429 C1439 0.930 . S
C1430 H1424 0.930 . S
C1430 C1431 1.355 . S
C1430 C1432 1.415 . S
C1431 C1430 1.355 . S
C1431 C1433 1.419 . S
C1432 C1430 1.415 . S
C1432 C1437 1.425 . S
C1432 C1439 1.409 . S
C1433 H1425 0.930 . S
C1433 C1431 1.419 . S
C1433 C1434 1.362 . S
C1434 H1426 0.930 . S
C1434 C1433 1.362 . S
C1434 C1437 1.409 . S
C1435 H1427 0.930 . S
C1435 C1436 1.355 . S
C1435 C1437 1.415 . S
C1436 C1435 1.355 . S
C1436 C1438 1.419 . S
C1437 C1432 1.425 . S
C1437 C1434 1.409 . S
C1437 C1435 1.415 . S
C1438 H1428 0.930 . S
C1438 C1436 1.419 . S
C1438 C1439 1.362 . S
C1439 H1429 0.930 . S
C1439 C1432 1.409 . S
C1439 C1438 1.362 . S
H1440 C1446 0.930 . S
H1441 C1449 0.930 . S
H1442 C1450 0.930 . S
H1443 C1451 0.930 . S
H1444 C1454 0.930 . S
H1445 C1455 0.930 . S
C1446 H1440 0.930 . S
C1446 C1447 1.355 . S
C1446 C1448 1.415 . S
C1447 C1446 1.355 . S
C1447 C1449 1.419 . S
C1448 C1446 1.415 . S
C1448 C1453 1.425 . S
C1448 C1455 1.409 . S
C1449 H1441 0.930 . S
C1449 C1447 1.419 . S
C1449 C1450 1.362 . S
C1450 H1442 0.930 . S
C1450 C1449 1.362 . S
C1450 C1453 1.409 . S
C1451 H1443 0.930 . S
C1451 C1452 1.355 . S
C1451 C1453 1.415 . S
C1452 C1451 1.355 . S
C1452 C1454 1.419 . S
C1453 C1448 1.425 . S
C1453 C1450 1.409 . S
C1453 C1451 1.415 . S
C1454 H1444 0.930 . S
C1454 C1452 1.419 . S
C1454 C1455 1.362 . S
C1455 H1445 0.930 . S
C1455 C1448 1.409 . S
C1455 C1454 1.362 . S
H1456 C1462 0.930 . S
H1457 C1465 0.930 . S
H1458 C1466 0.930 . S
H1459 C1467 0.930 . S
H1460 C1470 0.930 . S
H1461 C1471 0.930 . S
C1462 H1456 0.930 . S
C1462 C1463 1.355 . S
C1462 C1464 1.415 . S
C1463 C1462 1.355 . S
C1463 C1465 1.419 . S
C1464 C1462 1.415 . S
C1464 C1469 1.425 . S
C1464 C1471 1.409 . S
C1465 H1457 0.930 . S
C1465 C1463 1.419 . S
C1465 C1466 1.362 . S
C1466 H1458 0.930 . S
C1466 C1465 1.362 . S
C1466 C1469 1.409 . S
C1467 H1459 0.930 . S
C1467 C1468 1.355 . S
C1467 C1469 1.415 . S
C1468 C1467 1.355 . S
C1468 C1470 1.419 . S
C1469 C1464 1.425 . S
C1469 C1466 1.409 . S
C1469 C1467 1.415 . S
C1470 H1460 0.930 . S
C1470 C1468 1.419 . S
C1470 C1471 1.362 . S
C1471 H1461 0.930 . S
C1471 C1464 1.409 . S
C1471 C1470 1.362 . S
C455 C117 1.277 . S
C460 C5 1.277 . S
C471 C355 1.188 . S
C476 C19 1.188 . S
C487 C145 1.256 . S
C492 C33 1.256 . S
C503 C383 1.148 . S
C508 C47 1.148 . S
C519 C173 1.280 . S
C524 C61 1.280 . S
C535 C75 1.162 . S
C540 C411 1.162 . S
C551 C89 1.177 . S
C556 C201 1.177 . S
C567 C103 1.252 . S
C572 C439 1.252 . S
C583 C243 1.162 . S
C588 C131 1.162 . S
C599 C271 1.269 . S
C604 C159 1.269 . S
C615 C187 1.281 . S
C620 C299 1.281 . S
C631 C215 1.284 . S
C636 C327 1.284 . S
C647 C229 1.261 . S
C652 C341 1.261 . S
C663 C369 1.129 . S
C668 C257 1.129 . S
C679 C285 1.164 . S
C684 C397 1.164 . S
C695 C425 1.141 . S
C700 C313 1.141 . S
C711 C256 1.291 . S
C716 C4 1.348 . S
C727 C270 1.319 . S
C732 C18 1.353 . S
C743 C32 1.323 . S
C748 C228 1.352 . S
C759 C46 1.308 . S
C764 C242 1.302 . S
C775 C312 1.290 . S
C780 C60 1.329 . S
C791 C74 1.318 . S
C796 C326 1.294 . S
C807 C284 1.293 . S
C812 C88 1.350 . S
C823 C298 1.312 . S
C828 C102 1.299 . S
C839 C116 1.351 . S
C844 C368 1.294 . S
C855 C382 1.336 . S
C860 C130 1.343 . S
C871 C144 1.305 . S
C876 C340 1.304 . S
C887 C158 1.317 . S
C892 C354 1.295 . S
C903 C172 1.340 . S
C908 C424 1.339 . S
C919 C186 1.318 . S
C924 C438 1.354 . S
C935 C396 1.340 . S
C940 C200 1.288 . S
C951 C410 1.323 . S
C956 C214 1.352 . S
C967 C95 1.368 . S
C972 C11 1.378 . S
C983 C109 1.410 . S
C988 C25 1.383 . S
C999 C67 1.418 . S
C1004 C39 1.422 . S
C1015 C53 1.404 . S
C1020 C81 1.423 . S
C1031 C207 1.402 . S
C1036 C123 1.422 . S
C1047 C221 1.398 . S
C1052 C137 1.373 . S
C1063 C179 1.413 . S
C1068 C151 1.424 . S
C1079 C193 1.424 . S
C1084 C165 1.409 . S
C1095 C319 1.423 . S
C1100 C235 1.416 . S
C1111 C333 1.411 . S
C1116 C249 1.424 . S
C1127 C263 1.370 . S
C1132 C291 1.393 . S
C1143 C277 1.391 . S
C1148 C305 1.369 . S
C1159 C431 1.419 . S
C1164 C347 1.394 . S
C1175 C445 1.373 . S
C1180 C361 1.399 . S
C1191 C375 1.387 . S
C1196 C403 1.368 . S
C1207 C389 1.384 . S
C1212 C417 1.368 . S
C1223 C12 1.515 . S
C1228 C306 1.507 . S
C1239 C320 1.512 . S
C1244 C26 1.508 . S
C1255 C334 1.516 . S
C1260 C40 1.507 . S
C1271 C54 1.508 . S
C1276 C292 1.512 . S
C1287 C278 1.516 . S
C1292 C68 1.508 . S
C1303 C82 1.510 . S
C1308 C236 1.510 . S
C1319 C250 1.511 . S
C1324 C96 1.514 . S
C1335 C110 1.507 . S
C1340 C264 1.513 . S
C1351 C418 1.516 . S
C1356 C124 1.507 . S
C1367 C432 1.508 . S
C1372 C138 1.516 . S
C1383 C152 1.507 . S
C1388 C446 1.516 . S
C1399 C404 1.507 . S
C1404 C166 1.516 . S
C1415 C390 1.513 . S
C1420 C180 1.507 . S
C1431 C194 1.516 . S
C1436 C348 1.507 . S
C1447 C362 1.511 . S
C1452 C208 1.515 . S
C1463 C222 1.508 . S
C1468 C376 1.513 . S
