# Generated by pormake.
# Topology wgm, (5)-cn, num edge types: 1
# Building blocks:
#     Node 0, Type 0, BuildingBlock: XOMCOT_clean_sbu_0, # of connection points: 5
#     Node 1, Type 0, BuildingBlock: XOMCOT_clean_sbu_0, # of connection points: 5
#     Node 2, Type 0, BuildingBlock: XOMCOT_clean_sbu_0, # of connection points: 5
#     Node 3, Type 0, BuildingBlock: XOMCOT_clean_sbu_0, # of connection points: 5
#     Node 4, Type 0, BuildingBlock: XOMCOT_clean_sbu_0, # of connection points: 5
#     Node 5, Type 0, BuildingBlock: XOMCOT_clean_sbu_0, # of connection points: 5
#     Node 6, Type 0, BuildingBlock: XOMCOT_clean_sbu_0, # of connection points: 5
#     Node 7, Type 0, BuildingBlock: XOMCOT_clean_sbu_0, # of connection points: 5
#     Node 8, Type 0, BuildingBlock: XOMCOT_clean_sbu_0, # of connection points: 5
#     Node 9, Type 0, BuildingBlock: XOMCOT_clean_sbu_0, # of connection points: 5
#     Node 10, Type 0, BuildingBlock: XOMCOT_clean_sbu_0, # of connection points: 5
#     Node 11, Type 0, BuildingBlock: XOMCOT_clean_sbu_0, # of connection points: 5
#     Node 12, Type 0, BuildingBlock: XOMCOT_clean_sbu_0, # of connection points: 5
#     Node 13, Type 0, BuildingBlock: XOMCOT_clean_sbu_0, # of connection points: 5
#     Node 14, Type 0, BuildingBlock: XOMCOT_clean_sbu_0, # of connection points: 5
#     Node 15, Type 0, BuildingBlock: XOMCOT_clean_sbu_0, # of connection points: 5
#     Node 16, Type 0, BuildingBlock: XOMCOT_clean_sbu_0, # of connection points: 5
#     Node 17, Type 0, BuildingBlock: XOMCOT_clean_sbu_0, # of connection points: 5
#     Node 18, Type 0, BuildingBlock: XOMCOT_clean_sbu_0, # of connection points: 5
#     Node 19, Type 0, BuildingBlock: XOMCOT_clean_sbu_0, # of connection points: 5
#     Node 20, Type 0, BuildingBlock: XOMCOT_clean_sbu_0, # of connection points: 5
#     Node 21, Type 0, BuildingBlock: XOMCOT_clean_sbu_0, # of connection points: 5
#     Node 22, Type 0, BuildingBlock: XOMCOT_clean_sbu_0, # of connection points: 5
#     Node 23, Type 0, BuildingBlock: XOMCOT_clean_sbu_0, # of connection points: 5
#     Node 24, Type 0, BuildingBlock: XOMCOT_clean_sbu_0, # of connection points: 5
#     Node 25, Type 0, BuildingBlock: XOMCOT_clean_sbu_0, # of connection points: 5
#     Node 26, Type 0, BuildingBlock: XOMCOT_clean_sbu_0, # of connection points: 5
#     Node 27, Type 0, BuildingBlock: XOMCOT_clean_sbu_0, # of connection points: 5
#     Node 28, Type 0, BuildingBlock: XOMCOT_clean_sbu_0, # of connection points: 5
#     Node 29, Type 0, BuildingBlock: XOMCOT_clean_sbu_0, # of connection points: 5
#     Node 30, Type 0, BuildingBlock: XOMCOT_clean_sbu_0, # of connection points: 5
#     Node 31, Type 0, BuildingBlock: XOMCOT_clean_sbu_0, # of connection points: 5
#     Edge 32, Type (0, 0), BuildingBlock: UVAHIK_clean_linker_0, # of connection points: 2
#     Edge 33, Type (0, 0), BuildingBlock: UVAHIK_clean_linker_0, # of connection points: 2
#     Edge 34, Type (0, 0), BuildingBlock: UVAHIK_clean_linker_0, # of connection points: 2
#     Edge 35, Type (0, 0), BuildingBlock: UVAHIK_clean_linker_0, # of connection points: 2
#     Edge 36, Type (0, 0), BuildingBlock: UVAHIK_clean_linker_0, # of connection points: 2
#     Edge 37, Type (0, 0), BuildingBlock: UVAHIK_clean_linker_0, # of connection points: 2
#     Edge 38, Type (0, 0), BuildingBlock: UVAHIK_clean_linker_0, # of connection points: 2
#     Edge 39, Type (0, 0), BuildingBlock: UVAHIK_clean_linker_0, # of connection points: 2
#     Edge 40, Type (0, 0), BuildingBlock: UVAHIK_clean_linker_0, # of connection points: 2
#     Edge 41, Type (0, 0), BuildingBlock: UVAHIK_clean_linker_0, # of connection points: 2
#     Edge 42, Type (0, 0), BuildingBlock: UVAHIK_clean_linker_0, # of connection points: 2
#     Edge 43, Type (0, 0), BuildingBlock: UVAHIK_clean_linker_0, # of connection points: 2
#     Edge 44, Type (0, 0), BuildingBlock: UVAHIK_clean_linker_0, # of connection points: 2
#     Edge 45, Type (0, 0), BuildingBlock: UVAHIK_clean_linker_0, # of connection points: 2
#     Edge 46, Type (0, 0), BuildingBlock: UVAHIK_clean_linker_0, # of connection points: 2
#     Edge 47, Type (0, 0), BuildingBlock: UVAHIK_clean_linker_0, # of connection points: 2
#     Edge 48, Type (0, 0), BuildingBlock: UVAHIK_clean_linker_0, # of connection points: 2
#     Edge 49, Type (0, 0), BuildingBlock: UVAHIK_clean_linker_0, # of connection points: 2
#     Edge 50, Type (0, 0), BuildingBlock: UVAHIK_clean_linker_0, # of connection points: 2
#     Edge 51, Type (0, 0), BuildingBlock: UVAHIK_clean_linker_0, # of connection points: 2
#     Edge 52, Type (0, 0), BuildingBlock: UVAHIK_clean_linker_0, # of connection points: 2
#     Edge 53, Type (0, 0), BuildingBlock: UVAHIK_clean_linker_0, # of connection points: 2
#     Edge 54, Type (0, 0), BuildingBlock: UVAHIK_clean_linker_0, # of connection points: 2
#     Edge 55, Type (0, 0), BuildingBlock: UVAHIK_clean_linker_0, # of connection points: 2
#     Edge 56, Type (0, 0), BuildingBlock: UVAHIK_clean_linker_0, # of connection points: 2
#     Edge 57, Type (0, 0), BuildingBlock: UVAHIK_clean_linker_0, # of connection points: 2
#     Edge 58, Type (0, 0), BuildingBlock: UVAHIK_clean_linker_0, # of connection points: 2
#     Edge 59, Type (0, 0), BuildingBlock: UVAHIK_clean_linker_0, # of connection points: 2
#     Edge 60, Type (0, 0), BuildingBlock: UVAHIK_clean_linker_0, # of connection points: 2
#     Edge 61, Type (0, 0), BuildingBlock: UVAHIK_clean_linker_0, # of connection points: 2
#     Edge 62, Type (0, 0), BuildingBlock: UVAHIK_clean_linker_0, # of connection points: 2
#     Edge 63, Type (0, 0), BuildingBlock: UVAHIK_clean_linker_0, # of connection points: 2
#     Edge 64, Type (0, 0), BuildingBlock: UVAHIK_clean_linker_0, # of connection points: 2
#     Edge 65, Type (0, 0), BuildingBlock: UVAHIK_clean_linker_0, # of connection points: 2
#     Edge 66, Type (0, 0), BuildingBlock: UVAHIK_clean_linker_0, # of connection points: 2
#     Edge 67, Type (0, 0), BuildingBlock: UVAHIK_clean_linker_0, # of connection points: 2
#     Edge 68, Type (0, 0), BuildingBlock: UVAHIK_clean_linker_0, # of connection points: 2
#     Edge 69, Type (0, 0), BuildingBlock: UVAHIK_clean_linker_0, # of connection points: 2
#     Edge 70, Type (0, 0), BuildingBlock: UVAHIK_clean_linker_0, # of connection points: 2
#     Edge 71, Type (0, 0), BuildingBlock: UVAHIK_clean_linker_0, # of connection points: 2
#     Edge 72, Type (0, 0), BuildingBlock: UVAHIK_clean_linker_0, # of connection points: 2
#     Edge 73, Type (0, 0), BuildingBlock: UVAHIK_clean_linker_0, # of connection points: 2
#     Edge 74, Type (0, 0), BuildingBlock: UVAHIK_clean_linker_0, # of connection points: 2
#     Edge 75, Type (0, 0), BuildingBlock: UVAHIK_clean_linker_0, # of connection points: 2
#     Edge 76, Type (0, 0), BuildingBlock: UVAHIK_clean_linker_0, # of connection points: 2
#     Edge 77, Type (0, 0), BuildingBlock: UVAHIK_clean_linker_0, # of connection points: 2
#     Edge 78, Type (0, 0), BuildingBlock: UVAHIK_clean_linker_0, # of connection points: 2
#     Edge 79, Type (0, 0), BuildingBlock: UVAHIK_clean_linker_0, # of connection points: 2
#     Edge 80, Type (0, 0), BuildingBlock: UVAHIK_clean_linker_0, # of connection points: 2
#     Edge 81, Type (0, 0), BuildingBlock: UVAHIK_clean_linker_0, # of connection points: 2
#     Edge 82, Type (0, 0), BuildingBlock: UVAHIK_clean_linker_0, # of connection points: 2
#     Edge 83, Type (0, 0), BuildingBlock: UVAHIK_clean_linker_0, # of connection points: 2
#     Edge 84, Type (0, 0), BuildingBlock: UVAHIK_clean_linker_0, # of connection points: 2
#     Edge 85, Type (0, 0), BuildingBlock: UVAHIK_clean_linker_0, # of connection points: 2
#     Edge 86, Type (0, 0), BuildingBlock: UVAHIK_clean_linker_0, # of connection points: 2
#     Edge 87, Type (0, 0), BuildingBlock: UVAHIK_clean_linker_0, # of connection points: 2
#     Edge 88, Type (0, 0), BuildingBlock: UVAHIK_clean_linker_0, # of connection points: 2
#     Edge 89, Type (0, 0), BuildingBlock: UVAHIK_clean_linker_0, # of connection points: 2
#     Edge 90, Type (0, 0), BuildingBlock: UVAHIK_clean_linker_0, # of connection points: 2
#     Edge 91, Type (0, 0), BuildingBlock: UVAHIK_clean_linker_0, # of connection points: 2
#     Edge 92, Type (0, 0), BuildingBlock: UVAHIK_clean_linker_0, # of connection points: 2
#     Edge 93, Type (0, 0), BuildingBlock: UVAHIK_clean_linker_0, # of connection points: 2
#     Edge 94, Type (0, 0), BuildingBlock: UVAHIK_clean_linker_0, # of connection points: 2
#     Edge 95, Type (0, 0), BuildingBlock: UVAHIK_clean_linker_0, # of connection points: 2
#     Edge 96, Type (0, 0), BuildingBlock: UVAHIK_clean_linker_0, # of connection points: 2
#     Edge 97, Type (0, 0), BuildingBlock: UVAHIK_clean_linker_0, # of connection points: 2
#     Edge 98, Type (0, 0), BuildingBlock: UVAHIK_clean_linker_0, # of connection points: 2
#     Edge 99, Type (0, 0), BuildingBlock: UVAHIK_clean_linker_0, # of connection points: 2
#     Edge 100, Type (0, 0), BuildingBlock: UVAHIK_clean_linker_0, # of connection points: 2
#     Edge 101, Type (0, 0), BuildingBlock: UVAHIK_clean_linker_0, # of connection points: 2
#     Edge 102, Type (0, 0), BuildingBlock: UVAHIK_clean_linker_0, # of connection points: 2
#     Edge 103, Type (0, 0), BuildingBlock: UVAHIK_clean_linker_0, # of connection points: 2
#     Edge 104, Type (0, 0), BuildingBlock: UVAHIK_clean_linker_0, # of connection points: 2
#     Edge 105, Type (0, 0), BuildingBlock: UVAHIK_clean_linker_0, # of connection points: 2
#     Edge 106, Type (0, 0), BuildingBlock: UVAHIK_clean_linker_0, # of connection points: 2
#     Edge 107, Type (0, 0), BuildingBlock: UVAHIK_clean_linker_0, # of connection points: 2
#     Edge 108, Type (0, 0), BuildingBlock: UVAHIK_clean_linker_0, # of connection points: 2
#     Edge 109, Type (0, 0), BuildingBlock: UVAHIK_clean_linker_0, # of connection points: 2
#     Edge 110, Type (0, 0), BuildingBlock: UVAHIK_clean_linker_0, # of connection points: 2
#     Edge 111, Type (0, 0), BuildingBlock: UVAHIK_clean_linker_0, # of connection points: 2
# Relax obj value: 0.091
# Max RMSD: 0.192
# Mean RMSD: 0.192
data_MOF--net-wgm--node1-XOMCOT_clean_sbu_0--edge1-UVAHIK_clean_linker_0
_symmetry_space_group_name_H-M    P1
_symmetry_Int_Tables_number       1
_symmetry_cell_setting            triclinic
loop_
_symmetry_equiv_pos_as_xyz
'x, y, z'
_cell_length_a     61.192286
_cell_length_b     61.216254
_cell_length_c     97.365182
_cell_angle_alpha  89.99917
_cell_angle_beta   90.015095
_cell_angle_gamma 89.966097
loop_
_atom_site_label
_atom_site_type_symbol
_atom_site_fract_x
_atom_site_fract_y
_atom_site_fract_z
_atom_type_partial_charge
Co0 Co 0.17442 0.12956 0.33371 0.0
C1 C 0.17034 0.1689 0.35183 0.0
C2 C 0.17673 0.13956 0.36315 0.0
C3 C 0.17349 0.15633 0.37235 0.0
N4 N 0.17493 0.14744 0.35025 0.0
N5 N 0.16949 0.17475 0.3652 0.0
H6 H 0.16661 0.17994 0.34356 0.0
H7 H 0.17969 0.12261 0.36568 0.0
C8 C 0.21894 0.12446 0.3458 0.0
O9 O 0.21909 0.1456 0.34815 0.0
N10 N 0.17324 0.11174 0.31736 0.0
C11 C 0.1649 0.1184 0.30526 0.0
C12 C 0.16787 0.10219 0.29572 0.0
C13 C 0.18086 0.0913 0.31512 0.0
N14 N 0.17785 0.08521 0.3019 0.0
C15 C 0.17621 0.16957 0.31823 0.0
C16 C 0.21797 0.16403 0.30808 0.0
C17 C 0.20573 0.18204 0.30354 0.0
C18 C 0.18454 0.18467 0.30881 0.0
C19 C 0.20887 0.14914 0.31732 0.0
N20 N 0.18847 0.15231 0.32269 0.0
H21 H 0.15944 0.17131 0.32148 0.0
H22 H 0.21804 0.13454 0.31953 0.0
H23 H 0.1574 0.13413 0.30344 0.0
H24 H 0.18887 0.08139 0.32283 0.0
O25 O 0.1439 0.13731 0.33112 0.0
O26 O 0.15597 0.10912 0.34322 0.0
O27 O 0.20314 0.11576 0.33917 0.0
C28 C 0.13948 0.12063 0.33895 0.0
H29 H 0.17382 0.15502 0.38343 0.0
H30 H 0.16307 0.10277 0.28502 0.0
H31 H 0.23435 0.16107 0.30433 0.0
H32 H 0.17403 0.19775 0.30529 0.0
Co33 Co 0.1244 0.92631 0.59113 0.0
C34 C 0.0845 0.92483 0.60819 0.0
C35 C 0.11277 0.93431 0.61984 0.0
C36 C 0.09518 0.93299 0.62862 0.0
N37 N 0.10602 0.92919 0.60707 0.0
N38 N 0.07746 0.92707 0.62127 0.0
H39 H 0.07436 0.91943 0.59974 0.0
H40 H 0.12942 0.93828 0.6226 0.0
C41 C 0.1482 0.97026 0.59018 0.0
O42 O 0.14909 0.9706 0.57671 0.0
N43 N 0.14312 0.92286 0.57511 0.0
C44 C 0.13757 0.9123 0.56345 0.0
C45 C 0.15562 0.91031 0.55524 0.0
C46 C 0.16487 0.92661 0.57392 0.0
N47 N 0.17275 0.91931 0.56178 0.0
C48 C 0.08886 0.9274 0.57192 0.0
C49 C 0.08246 0.972 0.57151 0.0
C50 C 0.07052 0.95897 0.5623 0.0
C51 C 0.07359 0.9363 0.56288 0.0
C52 C 0.09771 0.96236 0.5804 0.0
N53 N 0.10175 0.94039 0.57995 0.0
H54 H 0.09042 0.90987 0.57229 0.0
H55 H 0.10588 0.97271 0.5877 0.0
H56 H 0.12184 0.90538 0.56117 0.0
H57 H 0.17483 0.93388 0.58189 0.0
O58 O 0.11559 0.89598 0.58932 0.0
O59 O 0.14381 0.90771 0.60148 0.0
O60 O 0.1386 0.95474 0.59651 0.0
C61 C 0.13196 0.89138 0.59735 0.0
H62 H 0.09541 0.93611 0.63956 0.0
H63 H 0.15616 0.90266 0.54522 0.0
H64 H 0.07994 0.98949 0.57194 0.0
H65 H 0.06466 0.92539 0.55616 0.0
Co66 Co 0.33053 0.87263 0.83465 0.0
C67 C 0.32973 0.83245 0.85132 0.0
C68 C 0.30753 0.85634 0.85943 0.0
C69 C 0.3069 0.8381 0.86772 0.0
N70 N 0.32176 0.85272 0.8491 0.0
N71 N 0.32098 0.82323 0.86264 0.0
H72 H 0.34177 0.82464 0.84483 0.0
H73 H 0.29849 0.87124 0.86105 0.0
C74 C 0.28525 0.89535 0.83236 0.0
O75 O 0.28088 0.88909 0.81975 0.0
N76 N 0.34003 0.89269 0.82008 0.0
C77 C 0.35987 0.89226 0.81399 0.0
C78 C 0.36077 0.90789 0.80397 0.0
C79 C 0.32925 0.90914 0.81362 0.0
N80 N 0.34154 0.91858 0.80368 0.0
C81 C 0.32885 0.8469 0.8101 0.0
C82 C 0.28702 0.83086 0.8137 0.0
C83 C 0.2988 0.82457 0.80197 0.0
C84 C 0.32007 0.83268 0.80033 0.0
C85 C 0.29645 0.84515 0.82324 0.0
N86 N 0.31688 0.85352 0.82116 0.0
H87 H 0.34551 0.85223 0.80888 0.0
H88 H 0.28726 0.84952 0.83231 0.0
H89 H 0.3729 0.88092 0.81624 0.0
H90 H 0.31297 0.91444 0.8161 0.0
O91 O 0.35964 0.85979 0.83537 0.0
O92 O 0.34833 0.88819 0.84758 0.0
O93 O 0.30325 0.89021 0.83814 0.0
C94 C 0.36396 0.87464 0.8446 0.0
H95 H 0.29741 0.83621 0.87702 0.0
H96 H 0.37439 0.91057 0.79709 0.0
H97 H 0.27059 0.82496 0.81548 0.0
H98 H 0.33011 0.82771 0.79172 0.0
Co99 Co 0.3816 0.08109 0.08794 0.0
C100 C 0.42008 0.08032 0.10603 0.0
C101 C 0.39093 0.0714 0.11694 0.0
C102 C 0.40803 0.07231 0.12615 0.0
N103 N 0.39858 0.07639 0.10436 0.0
N104 N 0.4263 0.07788 0.11924 0.0
H105 H 0.43074 0.08579 0.09785 0.0
H106 H 0.37398 0.06812 0.11932 0.0
C107 C 0.36021 0.03594 0.08563 0.0
O108 O 0.36504 0.03362 0.07256 0.0
N109 N 0.3644 0.08666 0.07132 0.0
C110 C 0.36844 0.10316 0.06244 0.0
C111 C 0.35254 0.10374 0.0526 0.0
C112 C 0.34535 0.0778 0.0668 0.0
N113 N 0.33804 0.08784 0.05529 0.0
C114 C 0.41469 0.07745 0.06724 0.0
C115 C 0.42686 0.0349 0.07284 0.0
C116 C 0.43703 0.04594 0.06196 0.0
C117 C 0.43092 0.0676 0.05934 0.0
C118 C 0.41068 0.04545 0.08055 0.0
N119 N 0.40406 0.06615 0.0773 0.0
H120 H 0.41105 0.09436 0.0654 0.0
H121 H 0.40373 0.03705 0.08926 0.0
H122 H 0.38163 0.11477 0.06317 0.0
H123 H 0.3364 0.0651 0.07204 0.0
O124 O 0.39273 0.11074 0.08726 0.0
O125 O 0.36258 0.10026 0.09804 0.0
O126 O 0.36543 0.05326 0.09213 0.0
C127 C 0.3759 0.11595 0.09477 0.0
H128 H 0.40704 0.06942 0.1371 0.0
H129 H 0.35164 0.11512 0.04411 0.0
H130 H 0.43162 0.01841 0.07555 0.0
H131 H 0.43846 0.07691 0.05116 0.0
Co132 Co 0.1803 0.87722 0.17067 0.0
C133 C 0.17116 0.8322 0.16032 0.0
C134 C 0.18809 0.85241 0.14574 0.0
C135 C 0.18317 0.83293 0.13953 0.0
N136 N 0.1806 0.85201 0.15874 0.0
N137 N 0.17248 0.82027 0.14864 0.0
H138 H 0.16267 0.82707 0.16952 0.0
H139 H 0.19578 0.86631 0.14089 0.0
C140 C 0.22523 0.89618 0.16826 0.0
O141 O 0.22567 0.89863 0.18166 0.0
N142 N 0.18008 0.90369 0.18192 0.0
C143 C 0.17914 0.92378 0.17624 0.0
C144 C 0.18111 0.9393 0.1863 0.0
C145 C 0.18269 0.90747 0.19558 0.0
N146 N 0.18344 0.92909 0.19845 0.0
C147 C 0.18224 0.85518 0.19654 0.0
C148 C 0.22259 0.83576 0.19281 0.0
C149 C 0.21125 0.83208 0.20511 0.0
C150 C 0.1908 0.8419 0.20688 0.0
C151 C 0.21365 0.84963 0.18285 0.0
N152 N 0.19405 0.85981 0.18501 0.0
H153 H 0.16615 0.86211 0.1979 0.0
H154 H 0.22225 0.85172 0.17326 0.0
H155 H 0.1779 0.92705 0.16536 0.0
H156 H 0.1852 0.89508 0.20327 0.0
O157 O 0.14989 0.87183 0.17514 0.0
O158 O 0.16153 0.89164 0.15757 0.0
O159 O 0.20903 0.88674 0.16252 0.0
C160 C 0.14516 0.88368 0.16444 0.0
H161 H 0.18682 0.82852 0.12901 0.0
H162 H 0.18112 0.95681 0.18475 0.0
H163 H 0.23823 0.82801 0.19094 0.0
H164 H 0.18127 0.83894 0.21607 0.0
Co165 Co 0.36991 0.92901 0.4254 0.0
C166 C 0.41443 0.92027 0.41455 0.0
C167 C 0.39706 0.94382 0.40234 0.0
C168 C 0.4176 0.94121 0.39689 0.0
N169 N 0.39513 0.93089 0.41349 0.0
N170 N 0.4284 0.92639 0.40453 0.0
H171 H 0.41831 0.90865 0.42257 0.0
H172 H 0.38448 0.95448 0.39836 0.0
C173 C 0.34889 0.97329 0.42365 0.0
O174 O 0.34683 0.97375 0.43707 0.0
N175 N 0.3439 0.92729 0.43695 0.0
C176 C 0.32352 0.9255 0.43179 0.0
C177 C 0.30865 0.92643 0.44232 0.0
C178 C 0.34102 0.92937 0.4507 0.0
N179 N 0.31963 0.92895 0.45421 0.0
C180 C 0.3936 0.93044 0.45066 0.0
C181 C 0.40982 0.97229 0.4478 0.0
C182 C 0.41587 0.96001 0.45937 0.0
C183 C 0.4076 0.93878 0.46068 0.0
C184 C 0.39567 0.96332 0.43803 0.0
N185 N 0.38708 0.94291 0.43978 0.0
H186 H 0.38782 0.91386 0.45173 0.0
H187 H 0.39225 0.9726 0.42886 0.0
H188 H 0.3196 0.92425 0.42099 0.0
H189 H 0.35388 0.93222 0.45802 0.0
O190 O 0.37663 0.89872 0.4294 0.0
O191 O 0.356 0.91016 0.41215 0.0
O192 O 0.35872 0.95745 0.41778 0.0
C193 C 0.36471 0.89389 0.41877 0.0
H194 H 0.42405 0.94933 0.38789 0.0
H195 H 0.29107 0.92547 0.44127 0.0
H196 H 0.41608 0.98864 0.44623 0.0
H197 H 0.41236 0.92842 0.46919 0.0
Co198 Co 0.32608 0.13132 0.67406 0.0
C199 C 0.32711 0.17278 0.65862 0.0
C200 C 0.30525 0.14984 0.64918 0.0
C201 C 0.30521 0.16876 0.64153 0.0
N202 N 0.31888 0.15244 0.65995 0.0
N203 N 0.31905 0.18306 0.64745 0.0
H204 H 0.33876 0.17993 0.66567 0.0
H205 H 0.29619 0.13518 0.64686 0.0
C206 C 0.28067 0.10937 0.67523 0.0
O207 O 0.27715 0.11387 0.68823 0.0
N208 N 0.33402 0.10998 0.68828 0.0
C209 C 0.35288 0.11035 0.69555 0.0
C210 C 0.35369 0.09272 0.70416 0.0
C211 C 0.32375 0.09156 0.69261 0.0
N212 N 0.33542 0.08092 0.70235 0.0
C213 C 0.32406 0.15651 0.69876 0.0
C214 C 0.28278 0.17374 0.69477 0.0
C215 C 0.29476 0.18022 0.70638 0.0
C216 C 0.31564 0.17128 0.7083 0.0
C217 C 0.29188 0.15886 0.68543 0.0
N218 N 0.31211 0.15005 0.68765 0.0
H219 H 0.34055 0.15081 0.70014 0.0
H220 H 0.2828 0.15476 0.67627 0.0
H221 H 0.36551 0.1226 0.6948 0.0
H222 H 0.30862 0.0854 0.68851 0.0
O223 O 0.35547 0.14319 0.67466 0.0
O224 O 0.34448 0.11615 0.66118 0.0
O225 O 0.29848 0.11499 0.6694 0.0
C226 C 0.36022 0.12886 0.66522 0.0
H227 H 0.29623 0.17157 0.63211 0.0
H228 H 0.36667 0.08897 0.71134 0.0
H229 H 0.26681 0.18059 0.69268 0.0
H230 H 0.32555 0.17577 0.71707 0.0
Co231 Co 0.13017 0.07574 0.92192 0.0
C232 C 0.09085 0.07189 0.90408 0.0
C233 C 0.12044 0.06475 0.89321 0.0
C234 C 0.10337 0.06457 0.88398 0.0
N235 N 0.11255 0.06916 0.90586 0.0
N236 N 0.08482 0.06905 0.89087 0.0
H237 H 0.07976 0.07724 0.91197 0.0
H238 H 0.13756 0.06262 0.89079 0.0
C239 C 0.14072 0.02998 0.91385 0.0
O240 O 0.11963 0.02606 0.91309 0.0
N241 N 0.14757 0.08291 0.93787 0.0
C242 C 0.14144 0.09747 0.94752 0.0
C243 C 0.15724 0.09843 0.95748 0.0
C244 C 0.16695 0.07483 0.94223 0.0
N245 N 0.17322 0.08424 0.95418 0.0
C246 C 0.09089 0.07271 0.9379 0.0
C247 C 0.10115 0.03441 0.95145 0.0
C248 C 0.08167 0.0452 0.95476 0.0
C249 C 0.07668 0.06467 0.94791 0.0
C250 C 0.1151 0.04323 0.94152 0.0
N251 N 0.10948 0.06166 0.93438 0.0
H252 H 0.08719 0.0883 0.9333 0.0
H253 H 0.1308 0.0356 0.94007 0.0
H254 H 0.12634 0.10664 0.94743 0.0
H255 H 0.17634 0.06259 0.93679 0.0
O256 O 0.11841 0.10523 0.92182 0.0
O257 O 0.14801 0.09453 0.91062 0.0
O258 O 0.14756 0.04819 0.91864 0.0
C259 C 0.13447 0.11016 0.91363 0.0
H260 H 0.1046 0.06189 0.87302 0.0
H261 H 0.15687 0.10855 0.9666 0.0
H262 H 0.10603 0.01979 0.95692 0.0
H263 H 0.062 0.07376 0.95037 0.0
Co264 Co 0.8241 0.87695 0.67276 0.0
C265 C 0.83259 0.83802 0.65546 0.0
C266 C 0.82095 0.86521 0.64361 0.0
C267 C 0.82423 0.84777 0.63491 0.0
N268 N 0.82604 0.85901 0.65648 0.0
N269 N 0.83151 0.83065 0.64238 0.0
H270 H 0.83773 0.82825 0.66413 0.0
H271 H 0.81531 0.88133 0.64074 0.0
C272 C 0.78016 0.89998 0.67089 0.0
O273 O 0.77943 0.90284 0.68424 0.0
N274 N 0.82234 0.8951 0.68927 0.0
C275 C 0.81594 0.88875 0.70197 0.0
C276 C 0.8158 0.90645 0.71055 0.0
C277 C 0.82635 0.91682 0.69051 0.0
N278 N 0.82226 0.92407 0.70339 0.0
C279 C 0.82332 0.83953 0.69036 0.0
C280 C 0.77865 0.83312 0.69054 0.0
C281 C 0.79171 0.82092 0.69957 0.0
C282 C 0.81439 0.82376 0.69903 0.0
C283 C 0.78829 0.8486 0.68186 0.0
N284 N 0.81027 0.85255 0.68241 0.0
H285 H 0.84074 0.84204 0.69068 0.0
H286 H 0.77783 0.85749 0.67497 0.0
H287 H 0.81089 0.87262 0.70499 0.0
H288 H 0.83141 0.92725 0.68213 0.0
O289 O 0.85453 0.87083 0.67683 0.0
O290 O 0.84272 0.89825 0.66401 0.0
O291 O 0.79564 0.889 0.66541 0.0
C292 C 0.85916 0.8876 0.66916 0.0
H293 H 0.82166 0.84781 0.62392 0.0
H294 H 0.81116 0.90643 0.72128 0.0
H295 H 0.76109 0.83092 0.69031 0.0
H296 H 0.82515 0.81471 0.70579 0.0
Co297 Co 0.88093 0.08018 0.4254 0.0
C298 C 0.9206 0.07913 0.40818 0.0
C299 C 0.8925 0.06679 0.39747 0.0
C300 C 0.90976 0.06764 0.38843 0.0
N301 N 0.89933 0.074 0.40981 0.0
N302 N 0.92736 0.07543 0.39519 0.0
H303 H 0.93055 0.08649 0.41613 0.0
H304 H 0.87589 0.06216 0.39505 0.0
C305 C 0.85925 0.03438 0.42589 0.0
O306 O 0.86608 0.02877 0.43819 0.0
N307 N 0.862 0.08696 0.44106 0.0
C308 C 0.86298 0.10545 0.44865 0.0
C309 C 0.84664 0.10532 0.45825 0.0
C310 C 0.84464 0.07591 0.44623 0.0
N311 N 0.83516 0.08678 0.45674 0.0
C312 C 0.90941 0.07662 0.44846 0.0
C313 C 0.92441 0.03476 0.44351 0.0
C314 C 0.93187 0.04592 0.4552 0.0
C315 C 0.92437 0.06722 0.45749 0.0
C316 C 0.90958 0.04497 0.43457 0.0
N317 N 0.90155 0.0653 0.43744 0.0
H318 H 0.90435 0.09322 0.45027 0.0
H319 H 0.90453 0.03652 0.42536 0.0
H320 H 0.87471 0.11847 0.4474 0.0
H321 H 0.83835 0.06079 0.4422 0.0
O322 O 0.8931 0.10947 0.42607 0.0
O323 O 0.86389 0.09954 0.41411 0.0
O324 O 0.86381 0.05306 0.42084 0.0
C325 C 0.87735 0.11492 0.41772 0.0
H326 H 0.9093 0.06335 0.37765 0.0
H327 H 0.84346 0.11789 0.46581 0.0
H328 H 0.93025 0.01848 0.44118 0.0
H329 H 0.92983 0.07653 0.46631 0.0
Co330 Co 0.67791 0.12884 0.17492 0.0
C331 C 0.67684 0.16739 0.15582 0.0
C332 C 0.67971 0.1368 0.14526 0.0
C333 C 0.67832 0.15321 0.13564 0.0
N334 N 0.67883 0.14565 0.15795 0.0
N335 N 0.67656 0.17241 0.14231 0.0
H336 H 0.67494 0.1794 0.16379 0.0
H337 H 0.68105 0.1195 0.14316 0.0
C338 C 0.72233 0.12226 0.16306 0.0
O339 O 0.72329 0.14345 0.16097 0.0
N340 N 0.67655 0.11203 0.19168 0.0
C341 C 0.66862 0.11958 0.20369 0.0
C342 C 0.67196 0.10409 0.21366 0.0
C343 C 0.6843 0.09181 0.19441 0.0
N344 N 0.68174 0.08674 0.20782 0.0
C345 C 0.68067 0.16965 0.18933 0.0
C346 C 0.72162 0.16301 0.20054 0.0
C347 C 0.70968 0.18149 0.2045 0.0
C348 C 0.68899 0.18477 0.19872 0.0
C349 C 0.71258 0.14814 0.19124 0.0
N350 N 0.69257 0.15181 0.1854 0.0
H351 H 0.66421 0.17191 0.18562 0.0
H352 H 0.72127 0.1331 0.18945 0.0
H353 H 0.66128 0.13548 0.20516 0.0
H354 H 0.69211 0.08134 0.18691 0.0
O355 O 0.64765 0.13752 0.1775 0.0
O356 O 0.65872 0.10833 0.166 0.0
O357 O 0.70617 0.11404 0.16958 0.0
C358 C 0.64261 0.12047 0.17016 0.0
H359 H 0.67862 0.15119 0.12459 0.0
H360 H 0.6676 0.10541 0.22441 0.0
H361 H 0.73733 0.15944 0.20515 0.0
H362 H 0.67908 0.19867 0.20165 0.0
Co363 Co 0.62799 0.92654 0.92582 0.0
C364 C 0.58417 0.91736 0.91378 0.0
C365 C 0.59724 0.94789 0.90672 0.0
C366 C 0.57693 0.94509 0.90099 0.0
N367 N 0.60181 0.93058 0.91482 0.0
N368 N 0.5688 0.92591 0.90539 0.0
H369 H 0.58237 0.90202 0.91918 0.0
H370 H 0.60771 0.96183 0.90506 0.0
C371 C 0.65136 0.9696 0.92478 0.0
O372 O 0.65481 0.96839 0.93807 0.0
N373 N 0.65472 0.92264 0.93648 0.0
C374 C 0.6746 0.91997 0.93072 0.0
C375 C 0.69024 0.91989 0.94082 0.0
C376 C 0.65868 0.92411 0.95015 0.0
N377 N 0.68024 0.9226 0.95303 0.0
C378 C 0.60609 0.92689 0.95168 0.0
C379 C 0.5923 0.96986 0.95096 0.0
C380 C 0.58588 0.95663 0.96201 0.0
C381 C 0.59303 0.9349 0.96228 0.0
C382 C 0.60542 0.96117 0.94053 0.0
N383 N 0.61269 0.94008 0.94116 0.0
H384 H 0.61112 0.91 0.95203 0.0
H385 H 0.60896 0.97128 0.93175 0.0
H386 H 0.67769 0.91898 0.9198 0.0
H387 H 0.64653 0.92756 0.95785 0.0
O388 O 0.6203 0.89634 0.92924 0.0
O389 O 0.63995 0.90803 0.91162 0.0
O390 O 0.64005 0.955 0.9187 0.0
C391 C 0.63122 0.8917 0.91816 0.0
H392 H 0.56883 0.95619 0.89398 0.0
H393 H 0.70769 0.91833 0.93928 0.0
H394 H 0.58658 0.98655 0.95009 0.0
H395 H 0.58854 0.92407 0.97062 0.0
Co396 Co 0.83227 0.12346 0.83841 0.0
C397 C 0.83977 0.16805 0.85011 0.0
C398 C 0.82582 0.14534 0.86449 0.0
C399 C 0.82999 0.16453 0.87125 0.0
N400 N 0.83194 0.14747 0.85127 0.0
N401 N 0.83879 0.17876 0.86226 0.0
H402 H 0.84684 0.17467 0.84081 0.0
H403 H 0.81949 0.13051 0.86902 0.0
C404 C 0.78733 0.1041 0.84035 0.0
O405 O 0.78705 0.10168 0.82694 0.0
N406 N 0.83262 0.09819 0.82619 0.0
C407 C 0.83091 0.07761 0.83103 0.0
C408 C 0.83291 0.06311 0.82037 0.0
C409 C 0.83574 0.0958 0.81247 0.0
N410 N 0.83596 0.07452 0.8087 0.0
C411 C 0.83009 0.14823 0.81351 0.0
C412 C 0.7886 0.16498 0.81737 0.0
C413 C 0.79983 0.16985 0.80521 0.0
C414 C 0.82092 0.16153 0.80341 0.0
C415 C 0.79822 0.15114 0.82708 0.0
N416 N 0.81831 0.14207 0.82476 0.0
H417 H 0.84675 0.14279 0.81224 0.0
H418 H 0.78963 0.14812 0.83657 0.0
H419 H 0.82838 0.07342 0.8417 0.0
H420 H 0.83827 0.10895 0.80531 0.0
O421 O 0.86264 0.12933 0.83416 0.0
O422 O 0.85097 0.10766 0.85085 0.0
O423 O 0.80354 0.11332 0.84621 0.0
C424 C 0.86733 0.11632 0.84432 0.0
H425 H 0.82709 0.16771 0.88204 0.0
H426 H 0.83193 0.0455 0.82113 0.0
H427 H 0.7725 0.17168 0.81929 0.0
H428 H 0.83041 0.16564 0.79438 0.0
Co429 Co 0.62277 0.08023 0.58594 0.0
C430 C 0.58262 0.08058 0.6025 0.0
C431 C 0.61034 0.07014 0.61435 0.0
C432 C 0.59258 0.07193 0.62298 0.0
N433 N 0.60401 0.07554 0.60155 0.0
N434 N 0.57521 0.07853 0.6155 0.0
H435 H 0.57304 0.08683 0.59402 0.0
H436 H 0.62691 0.06627 0.61732 0.0
C437 C 0.64456 0.03509 0.585 0.0
O438 O 0.64045 0.03215 0.57188 0.0
N439 N 0.64186 0.08579 0.57017 0.0
C440 C 0.63915 0.1025 0.56124 0.0
C441 C 0.65596 0.10269 0.55202 0.0
C442 C 0.66104 0.07643 0.56634 0.0
N443 N 0.66972 0.08633 0.55517 0.0
C444 C 0.59304 0.07582 0.56346 0.0
C445 C 0.57962 0.03362 0.56894 0.0
C446 C 0.57167 0.04417 0.55715 0.0
C447 C 0.57826 0.06571 0.55466 0.0
C448 C 0.59456 0.0444 0.5775 0.0
N449 N 0.60187 0.06489 0.57433 0.0
H450 H 0.59699 0.09266 0.56163 0.0
H451 H 0.60018 0.03627 0.5867 0.0
H452 H 0.6261 0.11436 0.56143 0.0
H453 H 0.66908 0.06337 0.5718 0.0
O454 O 0.61124 0.10965 0.58449 0.0
O455 O 0.64021 0.09992 0.59676 0.0
O456 O 0.63888 0.05269 0.59106 0.0
C457 C 0.62706 0.11532 0.59271 0.0
H458 H 0.59257 0.06916 0.63396 0.0
H459 H 0.65784 0.11399 0.54355 0.0
H460 H 0.57458 0.01714 0.57144 0.0
H461 H 0.57174 0.07488 0.54607 0.0
Co462 Co 0.67321 0.88124 0.34065 0.0
C463 C 0.67342 0.84012 0.35633 0.0
C464 C 0.69501 0.86366 0.36545 0.0
C465 C 0.69547 0.84489 0.37327 0.0
N466 N 0.6813 0.86054 0.35478 0.0
N467 N 0.68177 0.83025 0.36754 0.0
H468 H 0.66177 0.83264 0.34941 0.0
H469 H 0.70379 0.87859 0.36758 0.0
C470 C 0.71971 0.90189 0.34017 0.0
O471 O 0.72634 0.89303 0.32862 0.0
N472 N 0.66481 0.90231 0.32647 0.0
C473 C 0.64426 0.90827 0.32296 0.0
C474 C 0.64501 0.92155 0.31162 0.0
C475 C 0.67776 0.9123 0.3171 0.0
N476 N 0.66604 0.92403 0.30793 0.0
C477 C 0.67516 0.8582 0.31518 0.0
C478 C 0.71505 0.83804 0.31939 0.0
C479 C 0.70368 0.8339 0.30714 0.0
C480 C 0.6834 0.84409 0.30516 0.0
C481 C 0.70612 0.85216 0.3292 0.0
N482 N 0.68674 0.8626 0.32684 0.0
H483 H 0.65926 0.86547 0.31362 0.0
H484 H 0.7149 0.85478 0.33869 0.0
H485 H 0.62941 0.903 0.32791 0.0
H486 H 0.69522 0.91031 0.31652 0.0
O487 O 0.64397 0.86878 0.34061 0.0
O488 O 0.65516 0.89615 0.35379 0.0
O489 O 0.70048 0.89853 0.34479 0.0
C490 C 0.63961 0.88276 0.35036 0.0
H491 H 0.70459 0.84242 0.38267 0.0
H492 H 0.63113 0.92875 0.30642 0.0
H493 H 0.73052 0.83012 0.3215 0.0
H494 H 0.67399 0.84129 0.29591 0.0
Co495 Co 0.88078 0.93017 0.08746 0.0
C496 C 0.92009 0.928 0.1048 0.0
C497 C 0.8926 0.94055 0.116 0.0
C498 C 0.91017 0.93896 0.12483 0.0
N499 N 0.89893 0.93372 0.10347 0.0
N500 N 0.92742 0.93111 0.11773 0.0
H501 H 0.9297 0.92092 0.09661 0.0
H502 H 0.87625 0.94582 0.11861 0.0
C503 C 0.85584 0.97322 0.08524 0.0
O504 O 0.85481 0.97218 0.07178 0.0
N505 N 0.86256 0.92594 0.07134 0.0
C506 C 0.86901 0.91652 0.05948 0.0
C507 C 0.85115 0.91338 0.05122 0.0
C508 C 0.84059 0.92788 0.07022 0.0
N509 N 0.83333 0.92055 0.05794 0.0
C510 C 0.91788 0.9303 0.06945 0.0
C511 C 0.92216 0.97493 0.06663 0.0
C512 C 0.93567 0.96128 0.05874 0.0
C513 C 0.93378 0.93866 0.06064 0.0
C514 C 0.90667 0.96585 0.07554 0.0
N515 N 0.90372 0.94373 0.07627 0.0
H516 H 0.91685 0.91281 0.07061 0.0
H517 H 0.89735 0.97685 0.08183 0.0
H518 H 0.88535 0.91127 0.05707 0.0
H519 H 0.8301 0.93401 0.0783 0.0
O520 O 0.88959 0.89974 0.0863 0.0
O521 O 0.8611 0.91214 0.09794 0.0
O522 O 0.86628 0.95881 0.0921 0.0
C523 C 0.87298 0.89558 0.09423 0.0
H524 H 0.91023 0.94318 0.13562 0.0
H525 H 0.85123 0.90626 0.04104 0.0
H526 H 0.92319 0.99253 0.06582 0.0
H527 H 0.94447 0.92735 0.05536 0.0
Co528 Co 0.67297 0.63342 0.83494 0.0
C529 C 0.66733 0.66911 0.85479 0.0
C530 C 0.67599 0.63927 0.86497 0.0
C531 C 0.67349 0.65544 0.87474 0.0
N532 N 0.67225 0.64799 0.85249 0.0
N533 N 0.66819 0.67419 0.86825 0.0
H534 H 0.66279 0.68051 0.84682 0.0
H535 H 0.6802 0.62236 0.86684 0.0
C536 C 0.71596 0.60795 0.83509 0.0
O537 O 0.71756 0.60832 0.82164 0.0
N538 N 0.67327 0.61892 0.81714 0.0
C539 C 0.67252 0.62877 0.80474 0.0
C540 C 0.67295 0.61325 0.79466 0.0
C541 C 0.67334 0.59724 0.81433 0.0
N542 N 0.67361 0.59346 0.80063 0.0
C543 C 0.67668 0.67451 0.82094 0.0
C544 C 0.72167 0.67627 0.81965 0.0
C545 C 0.70946 0.69115 0.81182 0.0
C546 C 0.68666 0.6907 0.81306 0.0
C547 C 0.71098 0.66031 0.82745 0.0
N548 N 0.68871 0.65853 0.8272 0.0
H549 H 0.65907 0.67395 0.82109 0.0
H550 H 0.72089 0.64944 0.83345 0.0
H551 H 0.67133 0.646 0.80283 0.0
H552 H 0.67376 0.58459 0.82209 0.0
O553 O 0.64303 0.64263 0.83172 0.0
O554 O 0.65286 0.61173 0.8418 0.0
O555 O 0.70042 0.618 0.84116 0.0
C556 C 0.63724 0.62465 0.83784 0.0
H557 H 0.67577 0.65365 0.88571 0.0
H558 H 0.6724 0.61628 0.78371 0.0
H559 H 0.73936 0.67665 0.81954 0.0
H560 H 0.67643 0.7019 0.80733 0.0
Co561 Co 0.63695 0.42608 0.08789 0.0
C562 C 0.59794 0.42031 0.10545 0.0
C563 C 0.62642 0.4285 0.11725 0.0
C564 C 0.60922 0.42517 0.12615 0.0
N565 N 0.61928 0.4255 0.1043 0.0
N566 N 0.59136 0.42009 0.11868 0.0
H567 H 0.58758 0.41608 0.09686 0.0
H568 H 0.64307 0.43243 0.12004 0.0
C569 C 0.66178 0.4692 0.08964 0.0
O570 O 0.66395 0.4705 0.07625 0.0
N571 N 0.65481 0.42612 0.07135 0.0
C572 C 0.64754 0.42232 0.05847 0.0
C573 C 0.66503 0.42025 0.04981 0.0
C574 C 0.67691 0.42597 0.07029 0.0
N575 N 0.68346 0.42253 0.05719 0.0
C576 C 0.59871 0.42926 0.07093 0.0
C577 C 0.59517 0.47418 0.07043 0.0
C578 C 0.58128 0.46181 0.06202 0.0
C579 C 0.58283 0.43901 0.06267 0.0
C580 C 0.61081 0.46371 0.07864 0.0
N581 N 0.61334 0.44151 0.07823 0.0
H582 H 0.59979 0.41168 0.07091 0.0
H583 H 0.62063 0.47374 0.08525 0.0
H584 H 0.6308 0.42001 0.05545 0.0
H585 H 0.6879 0.4275 0.07895 0.0
O586 O 0.62879 0.39602 0.08408 0.0
O587 O 0.65726 0.40622 0.09652 0.0
O588 O 0.65082 0.4537 0.09506 0.0
C589 C 0.64549 0.39042 0.09157 0.0
H590 H 0.60979 0.42645 0.13723 0.0
H591 H 0.66432 0.4168 0.03891 0.0
H592 H 0.59398 0.49183 0.07069 0.0
H593 H 0.57243 0.42869 0.05644 0.0
Co594 Co 0.82902 0.37662 0.33868 0.0
C595 C 0.8315 0.33827 0.35678 0.0
C596 C 0.8219 0.36695 0.36794 0.0
C597 C 0.82409 0.34987 0.37709 0.0
N598 N 0.82652 0.35957 0.35524 0.0
N599 N 0.83006 0.33189 0.37001 0.0
H600 H 0.83698 0.32785 0.34851 0.0
H601 H 0.81786 0.3837 0.37042 0.0
C602 C 0.78503 0.40092 0.33748 0.0
O603 O 0.78403 0.40092 0.324 0.0
N604 N 0.83229 0.39349 0.32187 0.0
C605 C 0.843 0.38616 0.31066 0.0
C606 C 0.8444 0.40256 0.30119 0.0
C607 C 0.82783 0.41475 0.31912 0.0
N608 N 0.83483 0.42047 0.30643 0.0
C609 C 0.82806 0.33865 0.32143 0.0
C610 C 0.78331 0.33489 0.31901 0.0
C611 C 0.79664 0.32153 0.31081 0.0
C612 C 0.81932 0.32301 0.31259 0.0
C613 C 0.79279 0.35015 0.32792 0.0
N614 N 0.81495 0.35298 0.32834 0.0
H615 H 0.84558 0.33942 0.32248 0.0
H616 H 0.78207 0.3595 0.33438 0.0
H617 H 0.85028 0.37025 0.30953 0.0
H618 H 0.82019 0.4259 0.32629 0.0
O619 O 0.85951 0.36787 0.33717 0.0
O620 O 0.8475 0.39706 0.34825 0.0
O621 O 0.80064 0.39132 0.34375 0.0
C622 C 0.86393 0.38494 0.34463 0.0
H623 H 0.82163 0.35064 0.38809 0.0
H624 H 0.85199 0.40146 0.29116 0.0
H625 H 0.76567 0.33405 0.31834 0.0
H626 H 0.83038 0.3123 0.30711 0.0
Co627 Co 0.87038 0.57593 0.58688 0.0
C628 C 0.915 0.5835 0.59795 0.0
C629 C 0.89787 0.5586 0.60916 0.0
C630 C 0.91841 0.56073 0.61467 0.0
N631 N 0.89575 0.57272 0.5986 0.0
N632 N 0.92907 0.57639 0.60766 0.0
H633 H 0.91876 0.59601 0.59046 0.0
H634 H 0.88546 0.54747 0.61274 0.0
C635 C 0.84646 0.53293 0.58911 0.0
O636 O 0.84266 0.53294 0.57584 0.0
N637 N 0.84431 0.57904 0.5755 0.0
C638 C 0.8241 0.58171 0.58077 0.0
C639 C 0.80905 0.58136 0.57033 0.0
C640 C 0.84115 0.57711 0.56176 0.0
N641 N 0.81974 0.57838 0.55838 0.0
C642 C 0.89402 0.57375 0.56157 0.0
C643 C 0.90808 0.53104 0.56411 0.0
C644 C 0.9153 0.54336 0.55283 0.0
C645 C 0.90797 0.56498 0.55163 0.0
C646 C 0.89399 0.54042 0.57379 0.0
N647 N 0.88667 0.56139 0.57229 0.0
H648 H 0.88911 0.59063 0.56064 0.0
H649 H 0.88974 0.53099 0.58276 0.0
H650 H 0.82039 0.58307 0.5916 0.0
H651 H 0.85381 0.57372 0.55437 0.0
O652 O 0.87834 0.60608 0.5831 0.0
O653 O 0.85752 0.59518 0.60035 0.0
O654 O 0.85811 0.54792 0.59454 0.0
C655 C 0.86685 0.61122 0.59388 0.0
H656 H 0.92494 0.55172 0.62332 0.0
H657 H 0.79153 0.58293 0.57147 0.0
H658 H 0.91348 0.51435 0.56557 0.0
H659 H 0.91353 0.57534 0.54332 0.0
Co660 Co 0.67412 0.36911 0.67822 0.0
C661 C 0.66977 0.33437 0.65741 0.0
C662 C 0.67751 0.36511 0.64808 0.0
C663 C 0.67501 0.34968 0.63783 0.0
N664 N 0.67436 0.35537 0.66034 0.0
N665 N 0.67031 0.33039 0.64381 0.0
H666 H 0.66526 0.32229 0.66494 0.0
H667 H 0.681 0.38228 0.64667 0.0
C668 C 0.71399 0.39943 0.67793 0.0
O669 O 0.71336 0.40277 0.69124 0.0
N670 N 0.67324 0.38262 0.69629 0.0
C671 C 0.67315 0.37187 0.7084 0.0
C672 C 0.66968 0.38645 0.71883 0.0
C673 C 0.66928 0.40375 0.6996 0.0
N674 N 0.66727 0.40646 0.71334 0.0
C675 C 0.68017 0.32654 0.69008 0.0
C676 C 0.72407 0.33065 0.6961 0.0
C677 C 0.71262 0.31258 0.70115 0.0
C678 C 0.6906 0.3102 0.69765 0.0
C679 C 0.71315 0.34638 0.68828 0.0
N680 N 0.6912 0.34475 0.68578 0.0
H681 H 0.66281 0.32507 0.68844 0.0
H682 H 0.7225 0.36009 0.6848 0.0
H683 H 0.67492 0.35452 0.70979 0.0
H684 H 0.66771 0.41676 0.69214 0.0
O685 O 0.64471 0.35821 0.68122 0.0
O686 O 0.65295 0.38994 0.67159 0.0
O687 O 0.70088 0.38596 0.67222 0.0
C688 C 0.63802 0.37615 0.67539 0.0
H689 H 0.67657 0.3524 0.62689 0.0
H690 H 0.66912 0.38263 0.72968 0.0
H691 H 0.74122 0.33286 0.69848 0.0
H692 H 0.68117 0.29652 0.70146 0.0
Co693 Co 0.87893 0.43093 0.92043 0.0
C694 C 0.92305 0.42759 0.90789 0.0
C695 C 0.89966 0.44334 0.89472 0.0
C696 C 0.91882 0.44085 0.88757 0.0
N697 N 0.9023 0.43506 0.90742 0.0
N698 N 0.93346 0.43089 0.89581 0.0
H699 H 0.92996 0.41892 0.91655 0.0
H700 H 0.8845 0.44977 0.89069 0.0
C701 C 0.85374 0.4734 0.92009 0.0
O702 O 0.84989 0.4718 0.93332 0.0
N703 N 0.85455 0.42664 0.93307 0.0
C704 C 0.83397 0.42242 0.92884 0.0
C705 C 0.82072 0.41966 0.94006 0.0
C706 C 0.85333 0.42679 0.947 0.0
N707 N 0.83286 0.42242 0.95145 0.0
C708 C 0.90604 0.43162 0.94437 0.0
C709 C 0.91812 0.47504 0.94296 0.0
C710 C 0.92726 0.46191 0.95331 0.0
C711 C 0.92092 0.43992 0.95393 0.0
C712 C 0.90325 0.46605 0.93357 0.0
N713 N 0.89695 0.44469 0.93454 0.0
H714 H 0.90172 0.41454 0.94494 0.0
H715 H 0.89758 0.47617 0.92523 0.0
H716 H 0.82878 0.42157 0.91824 0.0
H717 H 0.86682 0.42996 0.95383 0.0
O718 O 0.8877 0.40063 0.92291 0.0
O719 O 0.86455 0.41243 0.90712 0.0
O720 O 0.86581 0.45937 0.91404 0.0
C721 C 0.87502 0.39612 0.91255 0.0
H722 H 0.92162 0.44552 0.87699 0.0
H723 H 0.80336 0.41626 0.93988 0.0
H724 H 0.923 0.49194 0.9418 0.0
H725 H 0.9274 0.42911 0.96174 0.0
Co726 Co 0.82804 0.63479 0.17659 0.0
C727 C 0.8275 0.67435 0.15956 0.0
C728 C 0.81615 0.64646 0.14827 0.0
C729 C 0.81702 0.66411 0.13951 0.0
N730 N 0.82259 0.653 0.16082 0.0
N731 N 0.82426 0.68164 0.14661 0.0
H732 H 0.8338 0.68411 0.16793 0.0
H733 H 0.81215 0.62982 0.14553 0.0
C734 C 0.78261 0.61298 0.17846 0.0
O735 O 0.77988 0.61652 0.19166 0.0
N736 N 0.83434 0.61635 0.19253 0.0
C737 C 0.85159 0.61924 0.20103 0.0
C738 C 0.85231 0.60264 0.21042 0.0
C739 C 0.82512 0.59737 0.1968 0.0
N740 N 0.83568 0.58897 0.20781 0.0
C741 C 0.82557 0.66593 0.19851 0.0
C742 C 0.78284 0.67883 0.1942 0.0
C743 C 0.79442 0.68788 0.20528 0.0
C744 C 0.81616 0.68134 0.20725 0.0
C745 C 0.79292 0.66334 0.18569 0.0
N746 N 0.81377 0.65642 0.18824 0.0
H747 H 0.84253 0.66193 0.19993 0.0
H748 H 0.78403 0.65717 0.17693 0.0
H749 H 0.86352 0.63217 0.20034 0.0
H750 H 0.81184 0.58914 0.19168 0.0
O751 O 0.85792 0.64571 0.17682 0.0
O752 O 0.84642 0.61642 0.16557 0.0
O753 O 0.8 0.61902 0.17233 0.0
C754 C 0.86245 0.62939 0.1687 0.0
H755 H 0.8136 0.66374 0.12861 0.0
H756 H 0.86429 0.60063 0.21851 0.0
H757 H 0.76627 0.68391 0.19196 0.0
H758 H 0.8259 0.6879 0.21557 0.0
Co759 Co 0.62274 0.58004 0.42147 0.0
C760 C 0.58328 0.58244 0.40411 0.0
C761 C 0.61171 0.57387 0.39236 0.0
C762 C 0.59421 0.57597 0.38352 0.0
N763 N 0.60479 0.57792 0.40523 0.0
N764 N 0.57638 0.58132 0.39096 0.0
H765 H 0.57308 0.5873 0.41265 0.0
H766 H 0.62842 0.57024 0.38955 0.0
C767 C 0.64755 0.53672 0.42192 0.0
O768 O 0.64732 0.53564 0.4354 0.0
N769 N 0.6408 0.58283 0.43784 0.0
C770 C 0.63451 0.59227 0.44973 0.0
C771 C 0.65222 0.59429 0.45823 0.0
C772 C 0.66264 0.57976 0.43922 0.0
N773 N 0.66988 0.58642 0.45167 0.0
C774 C 0.58638 0.5773 0.43994 0.0
C775 C 0.58209 0.53244 0.44023 0.0
C776 C 0.56949 0.54489 0.44937 0.0
C777 C 0.57132 0.56767 0.44881 0.0
C778 C 0.59689 0.54282 0.4314 0.0
N779 N 0.6 0.56493 0.43199 0.0
H780 H 0.58733 0.59487 0.43974 0.0
H781 H 0.60561 0.5329 0.42411 0.0
H782 H 0.61844 0.59843 0.45199 0.0
H783 H 0.67311 0.57348 0.43117 0.0
O784 O 0.6132 0.61007 0.42379 0.0
O785 O 0.64229 0.59954 0.41197 0.0
O786 O 0.63784 0.55226 0.41566 0.0
C787 C 0.62996 0.6154 0.41628 0.0
H788 H 0.59459 0.57387 0.37249 0.0
H789 H 0.65218 0.60124 0.46846 0.0
H790 H 0.58049 0.51483 0.43987 0.0
H791 H 0.56172 0.57805 0.4555 0.0
Co792 Co 0.3384 0.37748 0.175 0.0
C793 C 0.33526 0.33893 0.15718 0.0
C794 C 0.32779 0.36837 0.14613 0.0
C795 C 0.32801 0.35119 0.13698 0.0
N796 N 0.33232 0.36059 0.15876 0.0
N797 N 0.3327 0.33275 0.14398 0.0
H798 H 0.34037 0.32814 0.16539 0.0
H799 H 0.32556 0.38544 0.14366 0.0
C800 C 0.2941 0.40156 0.17667 0.0
O801 O 0.29026 0.39633 0.18954 0.0
N802 N 0.34533 0.39449 0.19145 0.0
C803 C 0.36236 0.39021 0.19991 0.0
C804 C 0.36354 0.4059 0.20987 0.0
C805 C 0.3366 0.41328 0.19643 0.0
N806 N 0.34737 0.42033 0.20772 0.0
C807 C 0.33304 0.3454 0.19617 0.0
C808 C 0.28951 0.33624 0.19125 0.0
C809 C 0.3001 0.32589 0.20223 0.0
C810 C 0.32226 0.33026 0.20445 0.0
C811 C 0.30109 0.35096 0.183 0.0
N812 N 0.32227 0.35627 0.18597 0.0
H813 H 0.35019 0.34815 0.19788 0.0
H814 H 0.293 0.35802 0.1742 0.0
H815 H 0.37368 0.37678 0.19891 0.0
H816 H 0.3234 0.42223 0.19171 0.0
O817 O 0.36739 0.36446 0.17551 0.0
O818 O 0.35855 0.39501 0.16462 0.0
O819 O 0.31168 0.39552 0.17073 0.0
C820 C 0.37347 0.38079 0.16781 0.0
H821 H 0.32546 0.35224 0.126 0.0
H822 H 0.37536 0.40664 0.21814 0.0
H823 H 0.27255 0.33273 0.18895 0.0
H824 H 0.33113 0.32226 0.21267 0.0
Co825 Co 0.38379 0.58173 0.92946 0.0
C826 C 0.42101 0.58564 0.91028 0.0
C827 C 0.39364 0.56946 0.90095 0.0
C828 C 0.41041 0.57031 0.89154 0.0
N829 N 0.40042 0.57879 0.91273 0.0
N830 N 0.42753 0.58053 0.89742 0.0
H831 H 0.43109 0.59397 0.91776 0.0
H832 H 0.37754 0.56275 0.89924 0.0
C833 C 0.35936 0.53814 0.93173 0.0
O834 O 0.35799 0.53886 0.94518 0.0
N835 N 0.36695 0.58516 0.94629 0.0
C836 C 0.37449 0.59306 0.95832 0.0
C837 C 0.35734 0.59578 0.9672 0.0
C838 C 0.345 0.58369 0.94798 0.0
N839 N 0.33881 0.58991 0.96074 0.0
C840 C 0.42236 0.58119 0.94632 0.0
C841 C 0.4267 0.53644 0.94841 0.0
C842 C 0.44018 0.54977 0.95651 0.0
C843 C 0.43833 0.57247 0.95499 0.0
C844 C 0.41095 0.54588 0.93985 0.0
N845 N 0.40788 0.56801 0.93958 0.0
H846 H 0.42109 0.59872 0.94554 0.0
H847 H 0.40147 0.53513 0.93347 0.0
H848 H 0.3911 0.59762 0.96052 0.0
H849 H 0.33379 0.57879 0.93995 0.0
O850 O 0.39244 0.61221 0.93057 0.0
O851 O 0.3629 0.59981 0.91998 0.0
O852 O 0.36935 0.55302 0.92504 0.0
C853 C 0.37504 0.61636 0.92333 0.0
H854 H 0.40996 0.56425 0.88109 0.0
H855 H 0.35841 0.60186 0.97762 0.0
H856 H 0.42827 0.51883 0.94871 0.0
H857 H 0.44854 0.5835 0.96085 0.0
Co858 Co 0.17342 0.62411 0.67218 0.0
C859 C 0.17497 0.66517 0.65644 0.0
C860 C 0.18524 0.63776 0.64426 0.0
C861 C 0.18453 0.65599 0.63598 0.0
N862 N 0.17926 0.64358 0.65706 0.0
N863 N 0.17808 0.67316 0.64366 0.0
H864 H 0.16863 0.67455 0.66498 0.0
H865 H 0.18888 0.62125 0.64105 0.0
C866 C 0.21845 0.60185 0.67341 0.0
O867 O 0.22125 0.6055 0.68659 0.0
N868 N 0.16681 0.60422 0.68738 0.0
C869 C 0.1498 0.60654 0.69611 0.0
C870 C 0.14896 0.58899 0.7048 0.0
C871 C 0.17566 0.58459 0.69073 0.0
N872 N 0.16519 0.57513 0.70146 0.0
C873 C 0.17686 0.65278 0.69537 0.0
C874 C 0.21941 0.66612 0.69096 0.0
C875 C 0.20833 0.6738 0.70263 0.0
C876 C 0.18663 0.66721 0.7046 0.0
C877 C 0.20898 0.65158 0.68197 0.0
N878 N 0.18825 0.64433 0.68457 0.0
H879 H 0.15991 0.64885 0.6968 0.0
H880 H 0.21755 0.64627 0.67286 0.0
H881 H 0.13816 0.61979 0.69607 0.0
H882 H 0.18879 0.57681 0.68519 0.0
O883 O 0.14391 0.63586 0.67295 0.0
O884 O 0.15442 0.60731 0.66057 0.0
O885 O 0.20101 0.60797 0.66734 0.0
C886 C 0.13884 0.62052 0.66423 0.0
H887 H 0.18804 0.65649 0.62508 0.0
H888 H 0.13728 0.58669 0.71301 0.0
H889 H 0.23606 0.67109 0.68885 0.0
H890 H 0.17706 0.67347 0.71309 0.0
Co891 Co 0.12542 0.42411 0.42672 0.0
C892 C 0.08541 0.42773 0.41003 0.0
C893 C 0.11371 0.43875 0.39898 0.0
C894 C 0.09612 0.43873 0.39016 0.0
N895 N 0.10694 0.43186 0.41141 0.0
N896 N 0.07839 0.43178 0.39713 0.0
H897 H 0.07541 0.42068 0.41806 0.0
H898 H 0.13046 0.44239 0.39633 0.0
C899 C 0.14837 0.46914 0.42814 0.0
O900 O 0.14158 0.47402 0.44056 0.0
N901 N 0.14429 0.41549 0.44213 0.0
C902 C 0.14326 0.39594 0.4486 0.0
C903 C 0.15884 0.39497 0.45862 0.0
C904 C 0.16095 0.42612 0.4485 0.0
N905 N 0.17 0.41386 0.4586 0.0
C906 C 0.09822 0.42823 0.45044 0.0
C907 C 0.08248 0.46969 0.44508 0.0
C908 C 0.07533 0.45884 0.45698 0.0
C909 C 0.08332 0.43774 0.45949 0.0
C910 C 0.09748 0.45953 0.43626 0.0
N911 N 0.10565 0.43927 0.43921 0.0
H912 H 0.10338 0.41167 0.45233 0.0
H913 H 0.10248 0.46793 0.42702 0.0
H914 H 0.13174 0.38304 0.44647 0.0
H915 H 0.16684 0.44209 0.44574 0.0
O916 O 0.11191 0.39537 0.42675 0.0
O917 O 0.14138 0.40467 0.41486 0.0
O918 O 0.14357 0.45083 0.42263 0.0
C919 C 0.12721 0.38974 0.41811 0.0
H920 H 0.09645 0.44289 0.37935 0.0
H921 H 0.16149 0.38148 0.46562 0.0
H922 H 0.07664 0.48593 0.44262 0.0
H923 H 0.07771 0.42834 0.46823 0.0
Co924 Co 0.32213 0.63197 0.33879 0.0
C925 C 0.32644 0.66977 0.3576 0.0
C926 C 0.31521 0.64114 0.36813 0.0
C927 C 0.3172 0.65788 0.37753 0.0
N928 N 0.32084 0.64871 0.35562 0.0
N929 N 0.32414 0.67585 0.37084 0.0
H930 H 0.33273 0.68037 0.34971 0.0
H931 H 0.31023 0.62455 0.37029 0.0
C932 C 0.28087 0.60339 0.33969 0.0
O933 O 0.28191 0.59833 0.32661 0.0
N934 N 0.3241 0.6154 0.32183 0.0
C935 C 0.32797 0.62419 0.30934 0.0
C936 C 0.33118 0.60776 0.3 0.0
C937 C 0.32564 0.59353 0.31993 0.0
N938 N 0.32958 0.58859 0.30664 0.0
C939 C 0.31905 0.67278 0.32431 0.0
C940 C 0.27583 0.66944 0.31648 0.0
C941 C 0.28833 0.6868 0.31142 0.0
C942 C 0.31004 0.6887 0.31572 0.0
C943 C 0.28533 0.65412 0.32534 0.0
N944 N 0.30692 0.65549 0.32891 0.0
H945 H 0.33622 0.67391 0.3267 0.0
H946 H 0.2752 0.64101 0.32885 0.0
H947 H 0.32918 0.64138 0.30709 0.0
H948 H 0.32416 0.58157 0.32807 0.0
O949 O 0.35231 0.64097 0.3361 0.0
O950 O 0.34176 0.61174 0.34769 0.0
O951 O 0.29411 0.61724 0.34491 0.0
C952 C 0.35768 0.62403 0.34345 0.0
H953 H 0.3136 0.65695 0.3884 0.0
H954 H 0.33454 0.60968 0.28915 0.0
H955 H 0.25889 0.66754 0.31346 0.0
H956 H 0.32031 0.70177 0.31192 0.0
Co957 Co 0.12654 0.57158 0.08921 0.0
C958 C 0.08297 0.57903 0.10195 0.0
C959 C 0.0951 0.54683 0.10617 0.0
C960 C 0.07494 0.54901 0.11223 0.0
N961 N 0.10019 0.56564 0.09968 0.0
N962 N 0.0674 0.56925 0.10962 0.0
H963 H 0.08159 0.59546 0.09796 0.0
H964 H 0.10513 0.53233 0.1065 0.0
C965 C 0.15299 0.53007 0.08996 0.0
O966 O 0.1585 0.53278 0.07703 0.0
N967 N 0.15327 0.57757 0.07894 0.0
C968 C 0.17267 0.58234 0.08482 0.0
C969 C 0.18797 0.58586 0.07474 0.0
C970 C 0.15725 0.57794 0.06523 0.0
N971 N 0.17829 0.58305 0.06245 0.0
C972 C 0.10409 0.57291 0.06343 0.0
C973 C 0.09311 0.52918 0.06224 0.0
C974 C 0.0847 0.54331 0.05218 0.0
C975 C 0.09066 0.56542 0.05281 0.0
C976 C 0.10657 0.53733 0.07269 0.0
N977 N 0.11211 0.55896 0.07316 0.0
H978 H 0.10796 0.5901 0.06388 0.0
H979 H 0.11152 0.5263 0.08072 0.0
H980 H 0.17568 0.58296 0.09575 0.0
H981 H 0.14533 0.57445 0.05738 0.0
O982 O 0.11808 0.60208 0.08709 0.0
O983 O 0.13745 0.58875 0.10434 0.0
O984 O 0.13935 0.543 0.09563 0.0
C985 C 0.12839 0.6056 0.09858 0.0
H986 H 0.06659 0.53674 0.11828 0.0
H987 H 0.20505 0.58971 0.07633 0.0
H988 H 0.08855 0.51209 0.06243 0.0
H989 H 0.0848 0.57698 0.04524 0.0
Co990 Co 0.18607 0.38165 0.84138 0.0
C991 C 0.17821 0.33665 0.85192 0.0
C992 C 0.19335 0.35787 0.86673 0.0
C993 C 0.18862 0.33841 0.87305 0.0
N994 N 0.18681 0.35682 0.85354 0.0
N995 N 0.17913 0.32515 0.86376 0.0
H996 H 0.17044 0.33099 0.84259 0.0
H997 H 0.2001 0.37222 0.87162 0.0
C998 C 0.23081 0.40159 0.84385 0.0
O999 O 0.23139 0.40495 0.83054 0.0
N1000 N 0.1854 0.40765 0.82974 0.0
C1001 C 0.18367 0.42801 0.83492 0.0
C1002 C 0.18482 0.44291 0.82444 0.0
C1003 C 0.18778 0.41061 0.81599 0.0
N1004 N 0.18753 0.43206 0.81252 0.0
C1005 C 0.18676 0.3578 0.81619 0.0
C1006 C 0.22807 0.34013 0.81902 0.0
C1007 C 0.21543 0.33419 0.80757 0.0
C1008 C 0.19452 0.34332 0.80625 0.0
C1009 C 0.21965 0.35474 0.82875 0.0
N1010 N 0.19945 0.36388 0.82707 0.0
H1011 H 0.17045 0.36432 0.81507 0.0
H1012 H 0.22912 0.35799 0.83787 0.0
H1013 H 0.18215 0.43191 0.8457 0.0
H1014 H 0.19055 0.39772 0.80868 0.0
O1015 O 0.1555 0.37599 0.83741 0.0
O1016 O 0.16769 0.39637 0.85456 0.0
O1017 O 0.2148 0.39142 0.84927 0.0
C1018 C 0.15112 0.38795 0.84812 0.0
H1019 H 0.19138 0.33445 0.88375 0.0
H1020 H 0.18373 0.46046 0.82559 0.0
H1021 H 0.24404 0.33298 0.82071 0.0
H1022 H 0.18415 0.33932 0.7976 0.0
Co1023 Co 0.38336 0.42951 0.58866 0.0
C1024 C 0.42034 0.42361 0.60769 0.0
C1025 C 0.39392 0.44095 0.61729 0.0
C1026 C 0.41069 0.43885 0.62665 0.0
N1027 N 0.40015 0.43164 0.60538 0.0
N1028 N 0.42718 0.42788 0.62059 0.0
H1029 H 0.42987 0.41491 0.60008 0.0
H1030 H 0.37818 0.44837 0.61915 0.0
C1031 C 0.3592 0.47349 0.58729 0.0
O1032 O 0.35867 0.47398 0.57381 0.0
N1033 N 0.3666 0.42678 0.57177 0.0
C1034 C 0.37392 0.41746 0.56008 0.0
C1035 C 0.35706 0.41592 0.55088 0.0
C1036 C 0.34499 0.43023 0.56958 0.0
N1037 N 0.33895 0.42402 0.5568 0.0
C1038 C 0.42164 0.43046 0.57168 0.0
C1039 C 0.42572 0.47523 0.56966 0.0
C1040 C 0.43886 0.46198 0.56129 0.0
C1041 C 0.43719 0.43928 0.56279 0.0
C1042 C 0.41037 0.46567 0.57848 0.0
N1043 N 0.40737 0.44354 0.57868 0.0
H1044 H 0.42054 0.41293 0.57244 0.0
H1045 H 0.40108 0.4763 0.58504 0.0
H1046 H 0.39011 0.41112 0.55841 0.0
H1047 H 0.33384 0.43651 0.57725 0.0
O1048 O 0.39201 0.3991 0.58701 0.0
O1049 O 0.36251 0.41097 0.59787 0.0
O1050 O 0.36886 0.45804 0.59368 0.0
C1051 C 0.37466 0.39458 0.59419 0.0
H1052 H 0.41058 0.44445 0.6372 0.0
H1053 H 0.35793 0.40905 0.54064 0.0
H1054 H 0.42717 0.49285 0.56936 0.0
H1055 H 0.44715 0.42829 0.55672 0.0
C1056 C 0.17001 0.21502 0.36348 0.0
C1057 C 0.16413 0.19599 0.37064 0.0
C1058 C 0.16469 0.23564 0.36868 0.0
C1059 C 0.14775 0.26405 0.40081 0.0
H1060 H 0.13301 0.31069 0.37551 0.0
C1061 C 0.11799 0.34976 0.41859 0.0
C1062 C 0.12902 0.36738 0.41248 0.0
C1063 C 0.12077 0.3285 0.41353 0.0
C1064 C 0.13715 0.29783 0.38269 0.0
H1065 H 0.14771 0.18368 0.38876 0.0
H1066 H 0.13797 0.21957 0.39771 0.0
H1067 H 0.14069 0.27426 0.36665 0.0
H1068 H 0.15119 0.37667 0.39612 0.0
H1069 H 0.15574 0.33975 0.38719 0.0
H1070 H 0.1439 0.28776 0.41685 0.0
C1071 C 0.1472 0.21866 0.38825 0.0
C1072 C 0.14169 0.27695 0.37763 0.0
C1073 C 0.15274 0.19804 0.38311 0.0
C1074 C 0.1425 0.36342 0.40107 0.0
C1075 C 0.14502 0.34229 0.3959 0.0
C1076 C 0.14296 0.2849 0.40589 0.0
C1077 C 0.15311 0.23777 0.38111 0.0
C1078 C 0.14734 0.25981 0.3866 0.0
C1079 C 0.13434 0.32457 0.40213 0.0
C1080 C 0.13789 0.30207 0.39686 0.0
H1081 H 0.17905 0.21396 0.35395 0.0
H1082 H 0.16996 0.24992 0.36303 0.0
H1083 H 0.15233 0.25141 0.40804 0.0
H1084 H 0.10755 0.35233 0.42743 0.0
H1085 H 0.11226 0.31515 0.41849 0.0
C1086 C 0.03738 0.92862 0.61844 0.0
C1087 C 0.05575 0.92329 0.62642 0.0
C1088 C 0.0163 0.92538 0.6236 0.0
C1089 C 0.98502 0.89269 0.64796 0.0
H1090 H 0.9428 0.93988 0.64651 0.0
C1091 C 0.8996 0.88387 0.67257 0.0
C1092 C 0.8819 0.89335 0.66559 0.0
C1093 C 0.92108 0.88835 0.66852 0.0
C1094 C 0.95424 0.92639 0.64683 0.0
H1095 H 0.06652 0.90995 0.64589 0.0
H1096 H 0.02964 0.90393 0.65483 0.0
H1097 H 0.97952 0.94552 0.63748 0.0
H1098 H 0.87278 0.91501 0.64893 0.0
H1099 H 0.90999 0.92222 0.64156 0.0
H1100 H 0.95972 0.87324 0.65685 0.0
C1101 C 0.03158 0.9108 0.64464 0.0
C1102 C 0.97531 0.9297 0.6417 0.0
C1103 C 0.05264 0.91438 0.63958 0.0
C1104 C 0.88609 0.9076 0.6546 0.0
C1105 C 0.9075 0.91183 0.65042 0.0
C1106 C 0.96384 0.88925 0.65291 0.0
C1107 C 0.01321 0.91639 0.63674 0.0
C1108 C 0.99089 0.91288 0.64221 0.0
C1109 C 0.92532 0.90217 0.65726 0.0
C1110 C 0.94812 0.90605 0.65239 0.0
H1111 H 0.03935 0.93563 0.60831 0.0
H1112 H 1.00239 0.92971 0.61727 0.0
H1113 H 0.99669 0.87939 0.64836 0.0
H1114 H 0.89685 0.8729 0.68113 0.0
H1115 H 0.93433 0.88094 0.67423 0.0
C1116 C 0.34804 0.64372 0.91489 0.0
C1117 C 0.36961 0.63857 0.91853 0.0
C1118 C 0.34292 0.66416 0.9094 0.0
C1119 C 0.36524 0.72039 0.9039 0.0
H1120 H 0.31943 0.72259 0.87638 0.0
C1121 C 0.34832 0.79511 0.86859 0.0
C1122 C 0.32657 0.80249 0.86862 0.0
C1123 C 0.35388 0.77533 0.87488 0.0
C1124 C 0.33219 0.7222 0.8841 0.0
H1125 H 0.4028 0.65073 0.9194 0.0
H1126 H 0.39414 0.68616 0.90927 0.0
H1127 H 0.32883 0.68783 0.88699 0.0
H1128 H 0.29356 0.7949 0.87498 0.0
H1129 H 0.30316 0.75992 0.88566 0.0
H1130 H 0.36899 0.75482 0.90046 0.0
C1131 C 0.38095 0.67473 0.91101 0.0
C1132 C 0.33751 0.70231 0.89029 0.0
C1133 C 0.38598 0.65437 0.91678 0.0
C1134 C 0.31044 0.78958 0.87488 0.0
C1135 C 0.31591 0.7696 0.88092 0.0
C1136 C 0.36017 0.74023 0.89749 0.0
C1137 C 0.35935 0.67983 0.9071 0.0
C1138 C 0.35398 0.70111 0.90038 0.0
C1139 C 0.3377 0.76237 0.88106 0.0
C1140 C 0.34348 0.74132 0.88762 0.0
H1141 H 0.33506 0.63188 0.91626 0.0
H1142 H 0.32601 0.66759 0.90693 0.0
H1143 H 0.37777 0.72029 0.91175 0.0
H1144 H 0.36108 0.80489 0.86395 0.0
H1145 H 0.37078 0.77004 0.87481 0.0
C1146 C 0.61597 0.10126 0.15501 0.0
C1147 C 0.6199 0.11574 0.16592 0.0
C1148 C 0.59471 0.0975 0.15037 0.0
C1149 C 0.53748 0.09819 0.16039 0.0
H1150 H 0.5262 0.10401 0.12136 0.0
C1151 C 0.45013 0.09118 0.13794 0.0
C1152 C 0.4477 0.08184 0.12486 0.0
C1153 C 0.47092 0.09566 0.14321 0.0
C1154 C 0.52906 0.10193 0.13226 0.0
H1155 H 0.60464 0.13731 0.18075 0.0
H1156 H 0.56723 0.13025 0.1728 0.0
H1157 H 0.56276 0.11082 0.13024 0.0
H1158 H 0.46505 0.06929 0.10718 0.0
H1159 H 0.50135 0.07627 0.11649 0.0
H1160 H 0.50405 0.08855 0.16243 0.0
C1161 C 0.58071 0.12199 0.1678 0.0
C1162 C 0.55002 0.10599 0.13734 0.0
C1163 C 0.60208 0.12607 0.17231 0.0
C1164 C 0.46648 0.07676 0.11723 0.0
C1165 C 0.48728 0.0809 0.12256 0.0
C1166 C 0.51655 0.09376 0.15528 0.0
C1167 C 0.57688 0.10787 0.15667 0.0
C1168 C 0.55445 0.10411 0.15144 0.0
C1169 C 0.48982 0.0906 0.13559 0.0
C1170 C 0.51205 0.09551 0.14112 0.0
H1171 H 0.62936 0.09311 0.14984 0.0
H1172 H 0.59219 0.0864 0.14184 0.0
H1173 H 0.54053 0.09644 0.17129 0.0
H1174 H 0.43591 0.09553 0.14397 0.0
H1175 H 0.47211 0.10349 0.15315 0.0
C1176 C 0.1383 0.62975 0.11831 0.0
C1177 C 0.12983 0.6275 0.10497 0.0
C1178 C 0.14033 0.65035 0.12436 0.0
C1179 C 0.12227 0.70829 0.12112 0.0
H1180 H 0.17438 0.71968 0.14264 0.0
C1181 C 0.15439 0.79472 0.13278 0.0
C1182 C 0.16338 0.79907 0.14578 0.0
C1183 C 0.14761 0.7737 0.12928 0.0
C1184 C 0.15956 0.71667 0.13686 0.0
H1185 H 0.11664 0.64509 0.08754 0.0
H1186 H 0.12071 0.6812 0.09792 0.0
H1187 H 0.16819 0.68332 0.1333 0.0
H1188 H 0.17168 0.78502 0.16547 0.0
H1189 H 0.15998 0.74785 0.15931 0.0
H1190 H 0.11413 0.74197 0.12432 0.0
C1191 C 0.12539 0.66699 0.10386 0.0
C1192 C 0.15597 0.69579 0.13148 0.0
C1193 C 0.12317 0.64631 0.09785 0.0
C1194 C 0.16474 0.78206 0.15541 0.0
C1195 C 0.15821 0.76084 0.15184 0.0
C1196 C 0.12595 0.72922 0.12642 0.0
C1197 C 0.13414 0.6693 0.11717 0.0
C1198 C 0.13739 0.69135 0.12341 0.0
C1199 C 0.14985 0.7564 0.13865 0.0
C1200 C 0.14476 0.73371 0.13422 0.0
H1201 H 0.14339 0.61555 0.12413 0.0
H1202 H 0.14672 0.65137 0.13471 0.0
H1203 H 0.10756 0.70542 0.1152 0.0
H1204 H 0.15294 0.8076 0.12521 0.0
H1205 H 0.14142 0.77083 0.11901 0.0
C1206 C 0.45502 0.89649 0.40141 0.0
C1207 C 0.4503 0.91891 0.40212 0.0
C1208 C 0.47585 0.88939 0.39737 0.0
C1209 C 0.53308 0.90538 0.39556 0.0
H1210 H 0.53687 0.87198 0.3618 0.0
C1211 C 0.61234 0.90294 0.36447 0.0
C1212 C 0.61793 0.88416 0.35699 0.0
C1213 C 0.5921 0.90456 0.37097 0.0
C1214 C 0.53621 0.88089 0.37139 0.0
H1215 H 0.46348 0.95144 0.39979 0.0
H1216 H 0.50012 0.93912 0.39326 0.0
H1217 H 0.50119 0.87887 0.37223 0.0
H1218 H 0.60678 0.85222 0.3505 0.0
H1219 H 0.57148 0.85471 0.36224 0.0
H1220 H 0.56789 0.90738 0.39494 0.0
C1221 C 0.48774 0.92704 0.39562 0.0
C1222 C 0.51574 0.88486 0.37733 0.0
C1223 C 0.46686 0.93409 0.3993 0.0
C1224 C 0.60282 0.86695 0.35614 0.0
C1225 C 0.58258 0.86844 0.36284 0.0
C1226 C 0.55353 0.90111 0.38978 0.0
C1227 C 0.49232 0.90466 0.39437 0.0
C1228 C 0.514 0.89763 0.38926 0.0
C1229 C 0.57697 0.88729 0.37038 0.0
C1230 C 0.55536 0.8894 0.37738 0.0
H1231 H 0.44236 0.88456 0.40343 0.0
H1232 H 0.47904 0.87204 0.39647 0.0
H1233 H 0.53214 0.9151 0.40484 0.0
H1234 H 0.62354 0.91659 0.36519 0.0
H1235 H 0.58825 0.9196 0.3763 0.0
C1236 C 0.34662 0.21157 0.64293 0.0
C1237 C 0.32489 0.20432 0.64235 0.0
C1238 C 0.35248 0.23177 0.63732 0.0
C1239 C 0.33174 0.27512 0.61351 0.0
H1240 H 0.37852 0.30914 0.62976 0.0
C1241 C 0.34781 0.36662 0.60211 0.0
C1242 C 0.36932 0.37208 0.59845 0.0
C1243 C 0.34281 0.34561 0.60677 0.0
C1244 C 0.36554 0.2997 0.62507 0.0
H1245 H 0.29213 0.21266 0.63591 0.0
H1246 H 0.30196 0.24834 0.62671 0.0
H1247 H 0.36859 0.27405 0.63983 0.0
H1248 H 0.4025 0.35997 0.59681 0.0
H1249 H 0.39382 0.32328 0.60537 0.0
H1250 H 0.32819 0.30147 0.59915 0.0
C1251 C 0.31478 0.2382 0.63096 0.0
C1252 C 0.35987 0.27951 0.63078 0.0
C1253 C 0.30904 0.21782 0.63633 0.0
C1254 C 0.38576 0.35613 0.59948 0.0
C1255 C 0.38084 0.33524 0.60444 0.0
C1256 C 0.33714 0.2955 0.60799 0.0
C1257 C 0.33664 0.24539 0.63122 0.0
C1258 C 0.34286 0.26691 0.62509 0.0
C1259 C 0.35932 0.32983 0.60814 0.0
C1260 C 0.35408 0.30795 0.61372 0.0
H1261 H 0.35919 0.2013 0.64737 0.0
H1262 H 0.36954 0.23643 0.63752 0.0
H1263 H 0.31894 0.26578 0.60859 0.0
H1264 H 0.33482 0.3786 0.6014 0.0
H1265 H 0.32611 0.34185 0.60962 0.0
C1266 C 0.90777 0.11876 0.84039 0.0
C1267 C 0.89009 0.11167 0.84844 0.0
C1268 C 0.92926 0.11423 0.84443 0.0
C1269 C 0.96213 0.10143 0.87494 0.0
H1270 H 0.00427 0.07798 0.8491 0.0
C1271 C 0.04473 0.06788 0.89325 0.0
C1272 C 0.0633 0.07246 0.88528 0.0
C1273 C 0.02384 0.07243 0.88825 0.0
C1274 C 0.9928 0.08479 0.85641 0.0
H1275 H 0.881 0.09429 0.867 0.0
H1276 H 0.91839 0.08656 0.87406 0.0
H1277 H 0.96744 0.08714 0.84127 0.0
H1278 H 0.07453 0.08521 0.86577 0.0
H1279 H 0.03803 0.0935 0.85707 0.0
H1280 H 0.98735 0.09941 0.89006 0.0
C1281 C 0.9157 0.09567 0.86467 0.0
C1282 C 0.97171 0.09 0.85192 0.0
C1283 C 0.89428 0.1 0.86058 0.0
C1284 C 0.06051 0.08128 0.87208 0.0
C1285 C 0.03958 0.08602 0.8671 0.0
C1286 C 0.98321 0.09639 0.87941 0.0
C1287 C 0.93342 0.10275 0.85666 0.0
C1288 C 0.95611 0.09816 0.86118 0.0
C1289 C 0.021 0.08188 0.8752 0.0
C1290 C 0.99875 0.08777 0.87025 0.0
H1291 H 0.90502 0.12777 0.83097 0.0
H1292 H 0.94263 0.12 0.83811 0.0
H1293 H 0.95056 0.10805 0.88226 0.0
H1294 H 0.04639 0.06074 0.90337 0.0
H1295 H 0.0099 0.06853 0.89464 0.0
C1296 C 0.82642 0.80086 0.62547 0.0
C1297 C 0.8365 0.80896 0.63742 0.0
C1298 C 0.83103 0.77981 0.6207 0.0
C1299 C 0.85205 0.73924 0.60858 0.0
H1300 H 0.85771 0.69198 0.63484 0.0
C1301 C 0.87567 0.65122 0.59216 0.0
C1302 C 0.86453 0.63405 0.59869 0.0
C1303 C 0.87343 0.67274 0.59687 0.0
C1304 C 0.85606 0.70495 0.62735 0.0
H1305 H 0.85968 0.80127 0.65355 0.0
H1306 H 0.8678 0.76458 0.64521 0.0
H1307 H 0.85128 0.72903 0.643 0.0
H1308 H 0.84222 0.62603 0.61524 0.0
H1309 H 0.83805 0.66343 0.62329 0.0
H1310 H 0.85615 0.71503 0.59292 0.0
C1311 C 0.85604 0.77441 0.63964 0.0
C1312 C 0.85264 0.72628 0.63205 0.0
C1313 C 0.85138 0.79547 0.64444 0.0
C1314 C 0.85111 0.63886 0.61001 0.0
C1315 C 0.84884 0.66032 0.61469 0.0
C1316 C 0.85545 0.7179 0.60388 0.0
C1317 C 0.84588 0.76628 0.62772 0.0
C1318 C 0.85041 0.74369 0.62273 0.0
C1319 C 0.85998 0.67756 0.6082 0.0
C1320 C 0.85731 0.70044 0.6132 0.0
H1321 H 0.8146 0.81061 0.61993 0.0
H1322 H 0.82257 0.77399 0.61164 0.0
H1323 H 0.85071 0.75227 0.60111 0.0
H1324 H 0.88621 0.64803 0.58345 0.0
H1325 H 0.88244 0.68556 0.59171 0.0
C1326 C 0.96752 0.07756 0.39706 0.0
C1327 C 0.94836 0.08055 0.38938 0.0
C1328 C 0.98793 0.08229 0.39132 0.0
C1329 C 0.01527 0.09228 0.35757 0.0
H1330 H 0.06191 0.11404 0.38078 0.0
C1331 C 0.09876 0.12527 0.33744 0.0
C1332 C 0.11711 0.11586 0.34379 0.0
C1333 C 0.07775 0.12129 0.34258 0.0
C1334 C 0.04901 0.10792 0.3742 0.0
H1335 H 0.93536 0.09149 0.36988 0.0
H1336 H 0.97075 0.10053 0.36 0.0
H1337 H 0.02604 0.10701 0.3907 0.0
H1338 H 0.12792 0.09501 0.36049 0.0
H1339 H 0.09138 0.08848 0.36957 0.0
H1340 H 0.03836 0.09386 0.34101 0.0
C1341 C 0.97027 0.09377 0.37027 0.0
C1342 C 0.02848 0.10373 0.37988 0.0
C1343 C 0.94993 0.08867 0.37593 0.0
C1344 C 0.11409 0.1024 0.35532 0.0
C1345 C 0.09321 0.09877 0.36059 0.0
C1346 C 0.03573 0.09685 0.35185 0.0
C1347 C 0.9896 0.09053 0.37784 0.0
C1348 C 0.01135 0.09561 0.37168 0.0
C1349 C 0.07486 0.10821 0.35431 0.0
C1350 C 0.05284 0.10448 0.36015 0.0
H1351 H 0.96672 0.07112 0.4074 0.0
H1352 H 1.0024 0.07915 0.3974 0.0
H1353 H 1.00268 0.0857 0.35094 0.0
H1354 H 0.10064 0.13573 0.32854 0.0
H1355 H 0.06382 0.12879 0.33759 0.0
C1356 C 0.6629 0.19655 0.12384 0.0
C1357 C 0.67418 0.19379 0.1363 0.0
C1358 C 0.66027 0.21736 0.11813 0.0
C1359 C 0.68408 0.27231 0.11774 0.0
H1360 H 0.62656 0.2912 0.10598 0.0
C1361 C 0.66549 0.36244 0.10537 0.0
C1362 C 0.65013 0.36739 0.09511 0.0
C1363 C 0.66897 0.34086 0.10948 0.0
C1364 C 0.64283 0.28611 0.10896 0.0
H1365 H 0.69188 0.21059 0.15241 0.0
H1366 H 0.68747 0.24696 0.14238 0.0
H1367 H 0.63162 0.25426 0.11481 0.0
H1368 H 0.62676 0.35354 0.08084 0.0
H1369 H 0.63332 0.31572 0.08769 0.0
H1370 H 0.69547 0.3039 0.11174 0.0
C1371 C 0.6806 0.23301 0.13706 0.0
C1372 C 0.64568 0.26495 0.11409 0.0
C1373 C 0.68296 0.21225 0.14286 0.0
C1374 C 0.63866 0.35023 0.08882 0.0
C1375 C 0.64231 0.32856 0.09283 0.0
C1376 C 0.68131 0.29337 0.11246 0.0
C1377 C 0.66914 0.2358 0.12467 0.0
C1378 C 0.66629 0.25792 0.11868 0.0
C1379 C 0.65737 0.3236 0.10333 0.0
C1380 C 0.66058 0.30068 0.10816 0.0
H1381 H 0.65579 0.18265 0.11862 0.0
H1382 H 0.65146 0.21901 0.10854 0.0
H1383 H 0.70022 0.26722 0.12102 0.0
H1384 H 0.67447 0.37531 0.11051 0.0
H1385 H 0.68038 0.33782 0.11777 0.0
C1386 C 0.38991 0.89468 0.85971 0.0
C1387 C 0.38543 0.87638 0.85149 0.0
C1388 C 0.4098 0.89656 0.86658 0.0
C1389 C 0.46679 0.87655 0.86685 0.0
H1390 H 0.46699 0.90517 0.90241 0.0
C1391 C 0.54599 0.89454 0.89829 0.0
C1392 C 0.54801 0.91678 0.90163 0.0
C1393 C 0.52613 0.88631 0.89332 0.0
C1394 C 0.46717 0.89706 0.89252 0.0
H1395 H 0.39833 0.84566 0.84398 0.0
H1396 H 0.43321 0.84876 0.85624 0.0
H1397 H 0.43233 0.89643 0.8914 0.0
H1398 H 0.53085 0.9476 0.90298 0.0
H1399 H 0.49607 0.93321 0.89466 0.0
H1400 H 0.50182 0.87737 0.86808 0.0
C1401 C 0.42136 0.8618 0.85721 0.0
C1402 C 0.44733 0.89217 0.88615 0.0
C1403 C 0.40138 0.85999 0.85022 0.0
C1404 C 0.52969 0.93043 0.90041 0.0
C1405 C 0.5098 0.92217 0.89573 0.0
C1406 C 0.4867 0.88123 0.87333 0.0
C1407 C 0.42573 0.88009 0.86556 0.0
C1408 C 0.44686 0.8825 0.87303 0.0
C1409 C 0.50789 0.90011 0.89194 0.0
C1410 C 0.48704 0.8921 0.88604 0.0
H1411 H 0.37807 0.90772 0.86081 0.0
H1412 H 0.41275 0.91116 0.87259 0.0
H1413 H 0.46708 0.86921 0.85674 0.0
H1414 H 0.55998 0.88376 0.89906 0.0
H1415 H 0.52503 0.86923 0.89049 0.0
C1416 C 0.84173 0.21827 0.85712 0.0
C1417 C 0.84641 0.20036 0.86562 0.0
C1418 C 0.84654 0.23959 0.8615 0.0
C1419 C 0.85672 0.27039 0.89387 0.0
H1420 H 0.87358 0.31726 0.86931 0.0
C1421 C 0.88214 0.35575 0.91374 0.0
C1422 C 0.87289 0.37374 0.90692 0.0
C1423 C 0.87995 0.33465 0.90835 0.0
C1424 C 0.86876 0.30434 0.87628 0.0
H1425 H 0.86117 0.1904 0.88482 0.0
H1426 H 0.87031 0.22722 0.89225 0.0
H1427 H 0.86854 0.28037 0.86023 0.0
H1428 H 0.85436 0.38374 0.88899 0.0
H1429 H 0.85066 0.34699 0.87958 0.0
H1430 H 0.85711 0.29429 0.90992 0.0
C1431 C 0.86213 0.22514 0.88247 0.0
C1432 C 0.86581 0.2832 0.87107 0.0
C1433 C 0.85706 0.204 0.87819 0.0
C1434 C 0.86163 0.37021 0.89453 0.0
C1435 C 0.85964 0.34918 0.88907 0.0
C1436 C 0.85986 0.29143 0.89908 0.0
C1437 C 0.85636 0.24331 0.8744 0.0
C1438 C 0.85975 0.26591 0.8798 0.0
C1439 C 0.86867 0.33113 0.89594 0.0
C1440 C 0.86587 0.30866 0.89036 0.0
H1441 H 0.8334 0.21583 0.84743 0.0
H1442 H 0.84175 0.25314 0.85502 0.0
H1443 H 0.85152 0.2577 0.90089 0.0
H1444 H 0.89096 0.35794 0.92329 0.0
H1445 H 0.88725 0.32109 0.91383 0.0
C1446 C 0.55131 0.09352 0.63363 0.0
C1447 C 0.55385 0.08431 0.62052 0.0
C1448 C 0.53065 0.09969 0.63838 0.0
C1449 C 0.47406 0.11144 0.62624 0.0
H1450 H 0.45972 0.10383 0.66474 0.0
C1451 C 0.38601 0.11436 0.64758 0.0
C1452 C 0.38255 0.12636 0.65969 0.0
C1453 C 0.40715 0.11093 0.64263 0.0
C1454 C 0.46359 0.10627 0.654 0.0
H1455 H 0.53676 0.07394 0.60219 0.0
H1456 H 0.50056 0.08401 0.61057 0.0
H1457 H 0.49594 0.09372 0.6565 0.0
H1458 H 0.39843 0.14435 0.67605 0.0
H1459 H 0.43556 0.138 0.66748 0.0
H1460 H 0.44133 0.1233 0.62375 0.0
C1461 C 0.51456 0.08712 0.61708 0.0
C1462 C 0.48437 0.10053 0.64925 0.0
C1463 C 0.53528 0.08122 0.61228 0.0
C1464 C 0.40063 0.13509 0.66667 0.0
C1465 C 0.42185 0.13136 0.66182 0.0
C1466 C 0.45319 0.11691 0.63097 0.0
C1467 C 0.51196 0.09654 0.63018 0.0
C1468 C 0.48989 0.10297 0.63529 0.0
C1469 C 0.4253 0.11915 0.64978 0.0
C1470 C 0.44773 0.11432 0.64488 0.0
H1471 H 0.56538 0.09644 0.64011 0.0
H1472 H 0.52943 0.10727 0.64839 0.0
H1473 H 0.47779 0.11401 0.61549 0.0
H1474 H 0.37237 0.10746 0.64197 0.0
H1475 H 0.40934 0.10131 0.63339 0.0
C1476 C 0.61807 0.65401 0.41235 0.0
C1477 C 0.63475 0.63825 0.41259 0.0
C1478 C 0.62256 0.67537 0.40806 0.0
C1479 C 0.6654 0.71603 0.40541 0.0
H1480 H 0.63353 0.73903 0.37418 0.0
C1481 C 0.69226 0.79562 0.37864 0.0
C1482 C 0.67619 0.80903 0.37278 0.0
C1483 C 0.68681 0.77501 0.38379 0.0
C1484 C 0.64234 0.73313 0.38308 0.0
H1485 H 0.66923 0.63247 0.40898 0.0
H1486 H 0.67717 0.66998 0.40192 0.0
H1487 H 0.62419 0.70316 0.38332 0.0
H1488 H 0.64178 0.81185 0.368 0.0
H1489 H 0.63194 0.77637 0.3775 0.0
H1490 H 0.68313 0.74606 0.40558 0.0
C1491 C 0.66063 0.66574 0.40486 0.0
C1492 C 0.63701 0.71251 0.38825 0.0
C1493 C 0.65606 0.6443 0.40884 0.0
C1494 C 0.65452 0.80162 0.37229 0.0
C1495 C 0.64895 0.78122 0.37769 0.0
C1496 C 0.67044 0.73685 0.40044 0.0
C1497 C 0.64388 0.68137 0.40428 0.0
C1498 C 0.64865 0.70371 0.39936 0.0
C1499 C 0.66503 0.76755 0.38347 0.0
C1500 C 0.65916 0.74562 0.38909 0.0
H1501 H 0.60149 0.64971 0.41514 0.0
H1502 H 0.60941 0.68721 0.40771 0.0
H1503 H 0.67449 0.7096 0.41407 0.0
H1504 H 0.70912 0.80094 0.379 0.0
H1505 H 0.69979 0.76486 0.38784 0.0
C1506 C 0.96725 0.92798 0.11424 0.0
C1507 C 0.94896 0.92626 0.12288 0.0
C1508 C 0.98813 0.92292 0.11911 0.0
C1509 C 0.01999 0.91516 0.15129 0.0
H1510 H 0.06092 0.88681 0.12665 0.0
C1511 C 0.10472 0.88217 0.16865 0.0
C1512 C 0.12237 0.88782 0.16012 0.0
C1513 C 0.08321 0.8863 0.16447 0.0
C1514 C 0.0497 0.89483 0.13362 0.0
H1515 H 0.93818 0.91772 0.14337 0.0
H1516 H 0.97455 0.90846 0.15185 0.0
H1517 H 0.02405 0.89493 0.11873 0.0
H1518 H 0.13134 0.90208 0.14053 0.0
H1519 H 0.09388 0.90905 0.13321 0.0
H1520 H 0.04575 0.91471 0.16622 0.0
C1521 C 0.97288 0.91419 0.14138 0.0
C1522 C 0.02857 0.89958 0.12908 0.0
C1523 C 0.952 0.91946 0.13653 0.0
C1524 C 0.11809 0.89754 0.14733 0.0
C1525 C 0.09664 0.90142 0.1431 0.0
C1526 C 0.04109 0.91019 0.15587 0.0
C1527 C 0.99122 0.91579 0.13272 0.0
C1528 C 0.01349 0.91004 0.13779 0.0
C1529 C 0.07897 0.89588 0.15162 0.0
C1530 C 0.05623 0.90019 0.14703 0.0
H1531 H 0.96546 0.93351 0.10374 0.0
H1532 H 1.00188 0.92485 0.11222 0.0
H1533 H 0.00895 0.92346 0.15823 0.0
H1534 H 0.10753 0.87467 0.17857 0.0
H1535 H 0.06989 0.88173 0.17121 0.0
C1536 C 0.65609 0.6978 0.88746 0.0
C1537 C 0.66482 0.69548 0.87419 0.0
C1538 C 0.65243 0.71861 0.89299 0.0
C1539 C 0.66977 0.77596 0.88958 0.0
H1540 H 0.61433 0.78975 0.9068 0.0
C1541 C 0.64493 0.86461 0.90101 0.0
C1542 C 0.63411 0.86895 0.91342 0.0
C1543 C 0.64844 0.84312 0.89674 0.0
C1544 C 0.63001 0.7861 0.90219 0.0
H1545 H 0.67709 0.71309 0.85647 0.0
H1546 H 0.67066 0.74923 0.86606 0.0
H1547 H 0.6214 0.75258 0.8988 0.0
H1548 H 0.61828 0.85421 0.93105 0.0
H1549 H 0.62473 0.81663 0.92371 0.0
H1550 H 0.67851 0.80931 0.89297 0.0
C1551 C 0.66662 0.73504 0.8722 0.0
C1552 C 0.63405 0.76481 0.89761 0.0
C1553 C 0.67008 0.71433 0.86665 0.0
C1554 C 0.62663 0.85137 0.92141 0.0
C1555 C 0.63024 0.82983 0.91717 0.0
C1556 C 0.66581 0.79717 0.89421 0.0
C1557 C 0.65771 0.73744 0.88541 0.0
C1558 C 0.65387 0.7596 0.8911 0.0
C1559 C 0.64135 0.82545 0.90482 0.0
C1560 C 0.64577 0.80259 0.90041 0.0
H1561 H 0.65177 0.68356 0.89346 0.0
H1562 H 0.64566 0.71997 0.90323 0.0
H1563 H 0.68535 0.77234 0.88481 0.0
H1564 H 0.65077 0.87782 0.89458 0.0
H1565 H 0.65666 0.84036 0.88704 0.0
C1566 C 0.4005 0.39753 0.15187 0.0
C1567 C 0.39613 0.38338 0.16287 0.0
C1568 C 0.42186 0.4007 0.14727 0.0
C1569 C 0.47809 0.37748 0.14895 0.0
H1570 H 0.4938 0.43525 0.13591 0.0
C1571 C 0.56698 0.40455 0.13642 0.0
C1572 C 0.5698 0.41526 0.12376 0.0
C1573 C 0.54602 0.39999 0.14137 0.0
C1574 C 0.4896 0.41901 0.13945 0.0
H1575 H 0.41065 0.36136 0.1777 0.0
H1576 H 0.4482 0.36742 0.16999 0.0
H1577 H 0.45709 0.42866 0.14456 0.0
H1578 H 0.55292 0.42973 0.10645 0.0
H1579 H 0.51625 0.42205 0.1152 0.0
H1580 H 0.51102 0.36816 0.14411 0.0
C1581 C 0.43506 0.37571 0.16467 0.0
C1582 C 0.46851 0.41515 0.14435 0.0
C1583 C 0.41356 0.37229 0.16914 0.0
C1584 C 0.55123 0.42133 0.11618 0.0
C1585 C 0.53028 0.41708 0.12123 0.0
C1586 C 0.49932 0.38145 0.14422 0.0
C1587 C 0.4395 0.39009 0.15371 0.0
C1588 C 0.46234 0.39427 0.14902 0.0
C1589 C 0.52746 0.40637 0.13387 0.0
C1590 C 0.50519 0.4022 0.13928 0.0
H1591 H 0.38736 0.40611 0.14671 0.0
H1592 H 0.42447 0.41142 0.13858 0.0
H1593 H 0.47393 0.36113 0.15228 0.0
H1594 H 0.58101 0.39952 0.14241 0.0
H1595 H 0.5443 0.39181 0.15118 0.0
C1596 C 0.8608 0.14157 0.40141 0.0
C1597 C 0.87421 0.13754 0.41283 0.0
C1598 C 0.85672 0.16291 0.39707 0.0
C1599 C 0.87593 0.22037 0.40058 0.0
H1600 H 0.81809 0.23301 0.3863 0.0
C1601 C 0.84453 0.30798 0.38837 0.0
C1602 C 0.83482 0.3105 0.37538 0.0
C1603 C 0.84968 0.28716 0.39336 0.0
C1604 C 0.83434 0.22969 0.39021 0.0
H1605 H 0.89407 0.15262 0.42861 0.0
H1606 H 0.88642 0.19007 0.4213 0.0
H1607 H 0.8266 0.19635 0.39435 0.0
H1608 H 0.82253 0.29326 0.35756 0.0
H1609 H 0.83121 0.25687 0.36635 0.0
H1610 H 0.88332 0.25407 0.39666 0.0
C1611 C 0.87941 0.17672 0.41549 0.0
C1612 C 0.8393 0.20864 0.39476 0.0
C1613 C 0.88376 0.15528 0.41972 0.0
C1614 C 0.83014 0.29179 0.36756 0.0
C1615 C 0.83497 0.271 0.37263 0.0
C1616 C 0.87084 0.24155 0.39619 0.0
C1617 C 0.86565 0.18082 0.40417 0.0
C1618 C 0.86026 0.20358 0.39984 0.0
C1619 C 0.84487 0.26847 0.38555 0.0
C1620 C 0.85007 0.24633 0.39081 0.0
H1621 H 0.85342 0.1282 0.3958 0.0
H1622 H 0.84654 0.1653 0.38809 0.0
H1623 H 0.8923 0.21709 0.40427 0.0
H1624 H 0.84849 0.32213 0.39455 0.0
H1625 H 0.85721 0.28565 0.40339 0.0
C1626 C 0.95545 0.60622 0.61165 0.0
C1627 C 0.95086 0.58383 0.61044 0.0
C1628 C 0.97609 0.61318 0.6161 0.0
C1629 C 0.03332 0.59651 0.61888 0.0
H1630 H 0.03557 0.63062 0.65241 0.0
C1631 C 0.11099 0.59904 0.65142 0.0
C1632 C 0.11678 0.61839 0.65823 0.0
C1633 C 0.09079 0.59714 0.64491 0.0
C1634 C 0.03532 0.62146 0.6429 0.0
H1635 H 0.96417 0.55125 0.61228 0.0
H1636 H 1.00043 0.56333 0.6196 0.0
H1637 H 1.00042 0.62395 0.64122 0.0
H1638 H 0.10589 0.65092 0.6637 0.0
H1639 H 0.07059 0.64784 0.65201 0.0
H1640 H 0.06803 0.59398 0.62038 0.0
C1641 C 0.9881 0.5755 0.61729 0.0
C1642 C 0.01517 0.61764 0.63652 0.0
C1643 C 0.96742 0.56858 0.61316 0.0
C1644 C 0.10177 0.63575 0.65859 0.0
C1645 C 0.08156 0.63395 0.6519 0.0
C1646 C 0.05345 0.60057 0.62512 0.0
C1647 C 0.99253 0.59783 0.61906 0.0
C1648 C 0.01397 0.60465 0.62465 0.0
C1649 C 0.07592 0.61467 0.64484 0.0
C1650 C 0.05467 0.61254 0.63745 0.0
H1651 H 0.9428 0.61821 0.60971 0.0
H1652 H 0.97916 0.63049 0.61738 0.0
H1653 H 0.03283 0.58664 0.60964 0.0
H1654 H 0.12212 0.58528 0.65108 0.0
H1655 H 0.08684 0.58181 0.63995 0.0
C1656 C 0.65527 0.30823 0.62475 0.0
C1657 C 0.66635 0.30963 0.63736 0.0
C1658 C 0.64999 0.2878 0.61916 0.0
C1659 C 0.64324 0.22992 0.62977 0.0
H1660 H 0.6465 0.2177 0.59075 0.0
C1661 C 0.64412 0.14272 0.60829 0.0
C1662 C 0.63014 0.13811 0.59723 0.0
C1663 C 0.64717 0.16418 0.6127 0.0
C1664 C 0.6453 0.221 0.60165 0.0
H1665 H 0.68174 0.29093 0.65357 0.0
H1666 H 0.67313 0.25548 0.64376 0.0
H1667 H 0.65504 0.25439 0.59918 0.0
H1668 H 0.60858 0.15232 0.58198 0.0
H1669 H 0.61422 0.19009 0.58961 0.0
H1670 H 0.63414 0.19642 0.63228 0.0
C1671 C 0.66773 0.27 0.63838 0.0
C1672 C 0.65015 0.24199 0.60649 0.0
C1673 C 0.67278 0.29031 0.64399 0.0
C1674 C 0.61939 0.15542 0.59057 0.0
C1675 C 0.62269 0.177 0.59487 0.0
C1676 C 0.63864 0.20897 0.62496 0.0
C1677 C 0.65588 0.26844 0.62604 0.0
C1678 C 0.64951 0.2466 0.62064 0.0
C1679 C 0.63651 0.18153 0.60604 0.0
C1680 C 0.63991 0.20421 0.61089 0.0
H1681 H 0.65004 0.3229 0.61948 0.0
H1682 H 0.64076 0.28721 0.60968 0.0
H1683 H 0.64197 0.23301 0.64069 0.0
H1684 H 0.65263 0.12972 0.61363 0.0
H1685 H 0.65809 0.16724 0.62125 0.0
C1686 C 0.11054 0.38479 0.84517 0.0
C1687 C 0.12856 0.39127 0.85311 0.0
C1688 C 0.08925 0.3879 0.85006 0.0
C1689 C 0.05734 0.3954 0.88172 0.0
H1690 H 0.01456 0.42217 0.85766 0.0
C1691 C 0.97262 0.42527 0.90102 0.0
C1692 C 0.95496 0.42378 0.89186 0.0
C1693 C 0.99381 0.42006 0.89664 0.0
C1694 C 0.02614 0.41432 0.86448 0.0
H1695 H 0.13848 0.4058 0.87246 0.0
H1696 H 0.10136 0.41104 0.881 0.0
H1697 H 0.05128 0.41509 0.84919 0.0
H1698 H 0.94528 0.41435 0.87132 0.0
H1699 H 0.98189 0.40461 0.8638 0.0
H1700 H 0.03216 0.39435 0.89697 0.0
C1701 C 0.10367 0.40357 0.87102 0.0
C1702 C 0.04723 0.41034 0.8596 0.0
C1703 C 0.12491 0.40071 0.86607 0.0
C1704 C 0.95869 0.4161 0.87849 0.0
C1705 C 0.97972 0.41062 0.87418 0.0
C1706 C 0.03614 0.39916 0.88657 0.0
C1707 C 0.08562 0.39728 0.86304 0.0
C1708 C 0.06307 0.40091 0.86817 0.0
C1709 C 0.99766 0.41298 0.88308 0.0
C1710 C 0.02026 0.40871 0.87801 0.0
H1711 H 0.11286 0.37741 0.83516 0.0
H1712 H 0.07562 0.38276 0.84373 0.0
H1713 H 0.0692 0.38792 0.88852 0.0
H1714 H 0.97012 0.43123 0.91137 0.0
H1715 H 0.00722 0.42225 0.90376 0.0
C1716 C 0.84401 0.71691 0.14801 0.0
C1717 C 0.8291 0.7031 0.14125 0.0
C1718 C 0.84891 0.73754 0.14272 0.0
C1719 C 0.84816 0.76985 0.11083 0.0
H1720 H 0.85098 0.81938 0.1356 0.0
C1721 C 0.88012 0.85522 0.09445 0.0
C1722 C 0.86796 0.87326 0.09906 0.0
C1723 C 0.87547 0.83422 0.09932 0.0
C1724 C 0.85016 0.80573 0.12855 0.0
H1725 H 0.80748 0.7005 0.12365 0.0
H1726 H 0.81621 0.73643 0.11438 0.0
H1727 H 0.84237 0.78324 0.14464 0.0
H1728 H 0.8413 0.88344 0.11228 0.0
H1729 H 0.83323 0.84689 0.12075 0.0
H1730 H 0.85577 0.79245 0.09471 0.0
C1731 C 0.82425 0.73111 0.12371 0.0
C1732 C 0.84543 0.785 0.13374 0.0
C1733 C 0.81925 0.7105 0.12904 0.0
C1734 C 0.851 0.86988 0.10855 0.0
C1735 C 0.84646 0.84896 0.11347 0.0
C1736 C 0.85305 0.79059 0.10564 0.0
C1737 C 0.83912 0.74486 0.13051 0.0
C1738 C 0.84431 0.76684 0.12494 0.0
C1739 C 0.85868 0.8309 0.10896 0.0
C1740 C 0.85398 0.80876 0.11444 0.0
H1741 H 0.85226 0.7117 0.15727 0.0
H1742 H 0.86066 0.74764 0.14809 0.0
H1743 H 0.8476 0.75613 0.10382 0.0
H1744 H 0.89329 0.85733 0.08714 0.0
H1745 H 0.88527 0.82063 0.09573 0.0
C1746 C 0.38495 0.60478 0.35822 0.0
C1747 C 0.38056 0.61947 0.34748 0.0
C1748 C 0.40638 0.6011 0.36261 0.0
C1749 C 0.46345 0.60281 0.3519 0.0
H1750 H 0.47581 0.6069 0.39087 0.0
C1751 C 0.55166 0.59576 0.37302 0.0
C1752 C 0.5547 0.58578 0.38587 0.0
C1753 C 0.53062 0.60036 0.36817 0.0
C1754 C 0.47267 0.60531 0.37998 0.0
H1755 H 0.39524 0.64149 0.3327 0.0
H1756 H 0.43292 0.63461 0.34018 0.0
H1757 H 0.43887 0.61356 0.38255 0.0
H1758 H 0.53813 0.57236 0.40359 0.0
H1759 H 0.50142 0.5796 0.395 0.0
H1760 H 0.49697 0.59383 0.34928 0.0
C1761 C 0.41966 0.62612 0.34526 0.0
C1762 C 0.45148 0.60928 0.37521 0.0
C1763 C 0.39813 0.63009 0.34101 0.0
C1764 C 0.53626 0.58032 0.39372 0.0
C1765 C 0.51521 0.5846 0.3888 0.0
C1766 C 0.48461 0.59849 0.35667 0.0
C1767 C 0.42396 0.61176 0.35621 0.0
C1768 C 0.44663 0.60803 0.36114 0.0
C1769 C 0.51205 0.59481 0.37597 0.0
C1770 C 0.48953 0.59963 0.3708 0.0
H1771 H 0.37178 0.59638 0.36344 0.0
H1772 H 0.40923 0.58981 0.37099 0.0
H1773 H 0.46011 0.60154 0.341 0.0
H1774 H 0.56559 0.60042 0.36683 0.0
H1775 H 0.52899 0.60861 0.35839 0.0
C1776 C 0.34617 0.30865 0.12549 0.0
C1777 C 0.33631 0.31128 0.13842 0.0
C1778 C 0.35048 0.28777 0.12034 0.0
C1779 C 0.33293 0.23099 0.12247 0.0
H1780 H 0.39125 0.21678 0.10968 0.0
C1781 C 0.3574 0.14245 0.11033 0.0
C1782 C 0.37193 0.13852 0.09946 0.0
C1783 C 0.35327 0.16372 0.11478 0.0
C1784 C 0.37477 0.22053 0.11298 0.0
H1785 H 0.32285 0.29428 0.15597 0.0
H1786 H 0.32999 0.25767 0.14685 0.0
H1787 H 0.3832 0.25369 0.11771 0.0
H1788 H 0.39349 0.15371 0.08464 0.0
H1789 H 0.38571 0.19104 0.09205 0.0
H1790 H 0.32419 0.19819 0.11747 0.0
C1791 C 0.33452 0.27178 0.14077 0.0
C1792 C 0.37022 0.24166 0.11763 0.0
C1793 C 0.33055 0.29266 0.14601 0.0
C1794 C 0.3823 0.15629 0.0931 0.0
C1795 C 0.37791 0.17766 0.09742 0.0
C1796 C 0.33736 0.20998 0.11762 0.0
C1797 C 0.34467 0.26915 0.12793 0.0
C1798 C 0.34932 0.24701 0.12254 0.0
C1799 C 0.36328 0.18166 0.10831 0.0
C1800 C 0.35841 0.20436 0.11296 0.0
H1801 H 0.35098 0.32274 0.1195 0.0
H1802 H 0.35824 0.28616 0.11039 0.0
H1803 H 0.3166 0.2348 0.12603 0.0
H1804 H 0.34935 0.12903 0.11553 0.0
H1805 H 0.34235 0.16602 0.12341 0.0
C1806 C 0.60747 0.59846 0.84375 0.0
C1807 C 0.6143 0.62002 0.84148 0.0
C1808 C 0.5865 0.59413 0.84875 0.0
C1809 C 0.53223 0.6204 0.85623 0.0
H1810 H 0.52638 0.57074 0.8807 0.0
C1811 C 0.45881 0.60513 0.89323 0.0
C1812 C 0.44834 0.58498 0.89116 0.0
C1813 C 0.4787 0.60966 0.88672 0.0
C1814 C 0.52781 0.58462 0.87385 0.0
H1815 H 0.6046 0.65399 0.84246 0.0
H1816 H 0.56843 0.64666 0.85179 0.0
H1817 H 0.5615 0.57824 0.86997 0.0
H1818 H 0.45056 0.55362 0.88101 0.0
H1819 H 0.4858 0.56122 0.87 0.0
H1820 H 0.49856 0.62717 0.86081 0.0
C1821 C 0.57881 0.6329 0.8493 0.0
C1822 C 0.54789 0.58885 0.86756 0.0
C1823 C 0.59962 0.63718 0.84397 0.0
C1824 C 0.45828 0.56931 0.88268 0.0
C1825 C 0.4784 0.57361 0.87645 0.0
C1826 C 0.51227 0.61641 0.8628 0.0
C1827 C 0.57203 0.6113 0.85197 0.0
C1828 C 0.55041 0.60674 0.85857 0.0
C1829 C 0.48869 0.59388 0.87833 0.0
C1830 C 0.50988 0.59843 0.87159 0.0
H1831 H 0.61845 0.58492 0.84181 0.0
H1832 H 0.58179 0.57725 0.85022 0.0
H1833 H 0.53325 0.63408 0.84923 0.0
H1834 H 0.45136 0.6175 0.89966 0.0
H1835 H 0.48641 0.62537 0.88836 0.0
C1836 C 0.16483 0.69856 0.62581 0.0
C1837 C 0.17361 0.695 0.63896 0.0
C1838 C 0.16013 0.71972 0.6213 0.0
C1839 C 0.17558 0.77668 0.62591 0.0
H1840 H 0.1186 0.78997 0.61059 0.0
C1841 C 0.15036 0.86513 0.6132 0.0
C1842 C 0.13671 0.86883 0.60184 0.0
C1843 C 0.15471 0.84389 0.61767 0.0
C1844 C 0.13473 0.78652 0.61461 0.0
H1845 H 0.18461 0.71072 0.65763 0.0
H1846 H 0.17681 0.74791 0.64963 0.0
H1847 H 0.12666 0.75296 0.61837 0.0
H1848 H 0.11711 0.85323 0.58613 0.0
H1849 H 0.12536 0.81606 0.59356 0.0
H1850 H 0.18404 0.80988 0.62181 0.0
C1851 C 0.17342 0.73426 0.64288 0.0
C1852 C 0.13927 0.76532 0.61915 0.0
C1853 C 0.17776 0.71304 0.64748 0.0
C1854 C 0.1276 0.85085 0.59497 0.0
C1855 C 0.13224 0.82954 0.59931 0.0
C1856 C 0.17118 0.79779 0.62118 0.0
C1857 C 0.16447 0.73778 0.62976 0.0
C1858 C 0.15969 0.76023 0.6249 0.0
C1859 C 0.14581 0.82575 0.61076 0.0
C1860 C 0.15064 0.80307 0.61553 0.0
H1861 H 0.16125 0.68493 0.61909 0.0
H1862 H 0.15334 0.722 0.61112 0.0
H1863 H 0.19156 0.7731 0.63014 0.0
H1864 H 0.15744 0.87869 0.61879 0.0
H1865 H 0.16483 0.84176 0.62669 0.0
C1866 C 0.88941 0.40413 0.36055 0.0
C1867 C 0.8863 0.38997 0.34937 0.0
C1868 C 0.91039 0.40864 0.36541 0.0
C1869 C 0.96788 0.38842 0.36407 0.0
H1870 H 0.98009 0.44547 0.37962 0.0
C1871 C 0.05475 0.41891 0.37825 0.0
C1872 C 0.05704 0.42737 0.39159 0.0
C1873 C 0.03406 0.4142 0.37294 0.0
C1874 C 0.97684 0.42944 0.37537 0.0
H1875 H 0.9027 0.36963 0.33438 0.0
H1876 H 0.93951 0.3782 0.34246 0.0
H1877 H 0.94407 0.43793 0.37008 0.0
H1878 H 0.03959 0.43777 0.40978 0.0
H1879 H 0.0032 0.43003 0.40035 0.0
H1880 H 1.00109 0.38036 0.36901 0.0
C1881 C 0.92572 0.38536 0.34777 0.0
C1882 C 0.95616 0.42502 0.36996 0.0
C1883 C 0.90463 0.38054 0.34306 0.0
C1884 C 0.03823 0.43119 0.39949 0.0
C1885 C 0.01748 0.42688 0.39408 0.0
C1886 C 0.98869 0.393 0.36927 0.0
C1887 C 0.92889 0.39942 0.35907 0.0
C1888 C 0.95128 0.40437 0.36434 0.0
C1889 C 0.01523 0.41824 0.38078 0.0
C1890 C 0.9933 0.41348 0.37507 0.0
H1891 H 0.87556 0.41144 0.36574 0.0
H1892 H 0.91199 0.41909 0.37432 0.0
H1893 H 0.96474 0.37222 0.36008 0.0
H1894 H 0.06901 0.41559 0.37201 0.0
H1895 H 0.03275 0.40763 0.36264 0.0
C1896 C 0.32433 0.71594 0.36836 0.0
C1897 C 0.32799 0.69728 0.37644 0.0
C1898 C 0.32805 0.73677 0.37368 0.0
C1899 C 0.35917 0.76655 0.39972 0.0
H1900 H 0.31607 0.81194 0.39349 0.0
C1901 C 0.36774 0.85353 0.4227 0.0
C1902 C 0.36097 0.87108 0.41443 0.0
C1903 C 0.36363 0.83198 0.41866 0.0
C1904 C 0.32842 0.79956 0.39518 0.0
H1905 H 0.33862 0.68581 0.3964 0.0
H1906 H 0.34528 0.72239 0.40574 0.0
H1907 H 0.30904 0.77499 0.38537 0.0
H1908 H 0.34504 0.87984 0.39531 0.0
H1909 H 0.33841 0.8424 0.3881 0.0
H1910 H 0.37881 0.7912 0.40923 0.0
C1911 C 0.33948 0.7208 0.39527 0.0
C1912 C 0.32433 0.77836 0.39057 0.0
C1913 C 0.33551 0.69991 0.38998 0.0
C1914 C 0.3503 0.86666 0.40197 0.0
C1915 C 0.34636 0.84517 0.39788 0.0
C1916 C 0.36337 0.78784 0.40423 0.0
C1917 C 0.3357 0.73944 0.38718 0.0
C1918 C 0.33972 0.76167 0.39269 0.0
C1919 C 0.3528 0.82753 0.40622 0.0
C1920 C 0.34812 0.80466 0.4019 0.0
H1921 H 0.31832 0.71444 0.35794 0.0
H1922 H 0.32516 0.75083 0.36716 0.0
H1923 H 0.37141 0.75403 0.40138 0.0
H1924 H 0.37595 0.85645 0.43239 0.0
H1925 H 0.36862 0.81883 0.42542 0.0
C1926 C 0.90097 0.6416 0.16386 0.0
C1927 C 0.88445 0.62574 0.16286 0.0
C1928 C 0.92126 0.63823 0.1575 0.0
C1929 C 0.94694 0.60469 0.13007 0.0
H1930 H 1.00153 0.61905 0.14815 0.0
C1931 C 0.02847 0.56499 0.11541 0.0
C1932 C 0.04701 0.57836 0.11424 0.0
C1933 C 0.00886 0.57341 0.12044 0.0
C1934 C 0.98639 0.61525 0.1429 0.0
H1935 H 0.87646 0.59366 0.15484 0.0
H1936 H 0.91168 0.58761 0.14412 0.0
H1937 H 0.96682 0.62883 0.15906 0.0
H1938 H 0.05961 0.61103 0.11741 0.0
H1939 H 0.02515 0.62581 0.12644 0.0
H1940 H 0.96643 0.59043 0.11417 0.0
C1941 C 0.90894 0.60291 0.14943 0.0
C1942 C 0.96652 0.62086 0.14913 0.0
C1943 C 0.88875 0.60632 0.15569 0.0
C1944 C 0.04549 0.60044 0.11811 0.0
C1945 C 0.02589 0.60882 0.12337 0.0
C1946 C 0.96671 0.59895 0.12393 0.0
C1947 C 0.92536 0.61893 0.15006 0.0
C1948 C 0.94655 0.61516 0.14293 0.0
C1949 C 0.00739 0.59535 0.12458 0.0
C1950 C 0.98663 0.60374 0.13041 0.0
H1951 H 0.89807 0.65676 0.1693 0.0
H1952 H 0.93354 0.65092 0.15815 0.0
H1953 H 0.93189 0.60058 0.12481 0.0
H1954 H 0.02916 0.54798 0.11241 0.0
H1955 H 0.99493 0.5626 0.12138 0.0
C1956 C 0.15115 0.1357 0.89656 0.0
C1957 C 0.13699 0.13224 0.90772 0.0
C1958 C 0.15356 0.15654 0.89088 0.0
C1959 C 0.14966 0.21416 0.89972 0.0
H1960 H 0.14812 0.2241 0.86039 0.0
C1961 C 0.1575 0.30091 0.87848 0.0
C1962 C 0.17022 0.30396 0.86667 0.0
C1963 C 0.15112 0.28001 0.8825 0.0
C1964 C 0.14885 0.2216 0.87138 0.0
H1965 H 0.11416 0.14783 0.92164 0.0
H1966 H 0.11874 0.1844 0.91188 0.0
H1967 H 0.14187 0.18738 0.86945 0.0
H1968 H 0.18568 0.28791 0.84948 0.0
H1969 H 0.17527 0.25098 0.85672 0.0
H1970 H 0.15748 0.24793 0.9018 0.0
C1971 C 0.12788 0.17093 0.90751 0.0
C1972 C 0.14518 0.20057 0.87656 0.0
C1973 C 0.12523 0.15002 0.91306 0.0
C1974 C 0.17575 0.28583 0.85858 0.0
C1975 C 0.16972 0.26475 0.86275 0.0
C1976 C 0.15362 0.23507 0.89457 0.0
C1977 C 0.14209 0.17439 0.89637 0.0
C1978 C 0.14551 0.19668 0.89079 0.0
C1979 C 0.15775 0.26154 0.87497 0.0
C1980 C 0.15319 0.23914 0.88032 0.0
H1981 H 0.16035 0.12228 0.89218 0.0
H1982 H 0.16476 0.15877 0.88239 0.0
H1983 H 0.15038 0.21157 0.91072 0.0
H1984 H 0.15285 0.31476 0.88475 0.0
H1985 H 0.14132 0.27834 0.8917 0.0
C1986 C 0.45851 0.43611 0.63562 0.0
C1987 C 0.44763 0.4217 0.62675 0.0
C1988 C 0.47837 0.43017 0.64165 0.0
C1989 C 0.52367 0.38929 0.63886 0.0
H1990 H 0.53921 0.41282 0.67453 0.0
C1991 C 0.6005 0.36268 0.66975 0.0
C1992 C 0.61479 0.38018 0.67226 0.0
C1993 C 0.57918 0.36663 0.66515 0.0
C1994 C 0.53499 0.4061 0.66458 0.0
H1995 H 0.44858 0.38965 0.61745 0.0
H1996 H 0.48271 0.37871 0.62844 0.0
H1997 H 0.50361 0.42135 0.66462 0.0
H1998 H 0.61786 0.41544 0.67253 0.0
H1999 H 0.5803 0.42233 0.66501 0.0
H2000 H 0.555 0.37353 0.63917 0.0
C2001 C 0.47648 0.39496 0.63039 0.0
C2002 C 0.51469 0.41114 0.6588 0.0
C2003 C 0.45685 0.40114 0.62412 0.0
C2004 C 0.60715 0.40167 0.67066 0.0
C2005 C 0.5857 0.40562 0.6664 0.0
C2006 C 0.54377 0.38387 0.6448 0.0
C2007 C 0.48762 0.40943 0.63922 0.0
C2008 C 0.50883 0.4031 0.64574 0.0
C2009 C 0.57168 0.38814 0.66334 0.0
C2010 C 0.5497 0.39247 0.65762 0.0
H2011 H 0.45182 0.45216 0.63766 0.0
H2012 H 0.48658 0.44205 0.64806 0.0
H2013 H 0.52009 0.38305 0.6287 0.0
H2014 H 0.60607 0.34596 0.67079 0.0
H2015 H 0.5686 0.35292 0.66286 0.0
C2016 C 0.17848 0.04486 0.30058 0.0
C2017 C 0.1843 0.06532 0.29519 0.0
C2018 C 0.18179 0.0258 0.29281 0.0
C2019 C 0.21197 0.00378 0.26285 0.0
H2020 H 0.15993 0.9695 0.2557 0.0
C2021 C 0.19868 0.9595 0.21199 0.0
C2022 C 0.18731 0.93959 0.2115 0.0
C2023 C 0.20109 0.9708 0.22433 0.0
C2024 C 0.17478 0.97852 0.25779 0.0
H2025 H 0.19909 0.08197 0.27797 0.0
H2026 H 0.20539 0.0489 0.26458 0.0
H2027 H 0.15972 0.99671 0.27408 0.0
H2028 H 0.17012 0.91555 0.2237 0.0
H2029 H 0.17434 0.9354 0.24548 0.0
H2030 H 0.22685 0.98621 0.24632 0.0
C2031 C 0.19818 0.04739 0.2747 0.0
C2032 C 0.17465 0.99413 0.26833 0.0
C2033 C 0.1945 0.06634 0.28231 0.0
C2034 C 0.179 0.93084 0.22378 0.0
C2035 C 0.18128 0.94228 0.23621 0.0
C2036 C 0.21215 0.98814 0.25239 0.0
C2037 C 0.19142 0.02695 0.2797 0.0
C2038 C 0.19298 0.00748 0.27061 0.0
C2039 C 0.19219 0.96253 0.23659 0.0
C2040 C 0.19328 0.97593 0.24936 0.0
H2041 H 0.1704 0.04377 0.31045 0.0
H2042 H 0.17645 0.01025 0.29692 0.0
H2043 H 0.22646 0.01358 0.26451 0.0
H2044 H 0.20556 0.96653 0.20276 0.0
H2045 H 0.20932 0.98645 0.22415 0.0
C2046 C 0.20296 0.90357 0.54846 0.0
C2047 C 0.19452 0.92087 0.55629 0.0
C2048 C 0.222 0.90624 0.54078 0.0
C2049 C 0.26576 0.9135 0.52722 0.0
H2050 H 0.26382 0.96596 0.50496 0.0
C2051 C 0.32135 0.92444 0.47951 0.0
C2052 C 0.31018 0.93152 0.46769 0.0
C2053 C 0.31141 0.92571 0.49246 0.0
C2054 C 0.26468 0.95125 0.51112 0.0
H2055 H 0.20002 0.9541 0.56296 0.0
H2056 H 0.23361 0.95893 0.54946 0.0
H2057 H 0.23954 0.96249 0.52465 0.0
H2058 H 0.28029 0.94653 0.46035 0.0
H2059 H 0.2629 0.9484 0.48272 0.0
H2060 H 0.28993 0.90169 0.51316 0.0
C2061 C 0.22536 0.94329 0.54922 0.0
C2062 C 0.25094 0.94938 0.52254 0.0
C2063 C 0.20629 0.9405 0.55704 0.0
C2064 C 0.28922 0.94059 0.46919 0.0
C2065 C 0.27936 0.94197 0.48208 0.0
C2066 C 0.2795 0.91536 0.51579 0.0
C2067 C 0.23305 0.92636 0.54067 0.0
C2068 C 0.25075 0.93015 0.53044 0.0
C2069 C 0.29018 0.93429 0.49387 0.0
C2070 C 0.27854 0.93394 0.50731 0.0
H2071 H 0.19423 0.88822 0.5478 0.0
H2072 H 0.22724 0.89291 0.53425 0.0
H2073 H 0.26625 0.89859 0.5332 0.0
H2074 H 0.33749 0.91731 0.4787 0.0
H2075 H 0.32025 0.91978 0.50135 0.0
C2076 C 0.34678 0.04646 0.71312 0.0
C2077 C 0.33009 0.06123 0.70972 0.0
C2078 C 0.34278 0.02902 0.72195 0.0
C2079 C 0.30745 0.01282 0.75056 0.0
H2080 H 0.33985 0.9587 0.74667 0.0
C2081 C 0.31357 0.93911 0.79024 0.0
C2082 C 0.33553 0.93545 0.79397 0.0
C2083 C 0.30834 0.95378 0.77962 0.0
C2084 C 0.33051 0.97363 0.74783 0.0
H2085 H 0.29586 0.0689 0.71249 0.0
H2086 H 0.28868 0.03806 0.72808 0.0
H2087 H 0.33814 0.98421 0.72748 0.0
H2088 H 0.36892 0.94578 0.79012 0.0
H2089 H 0.35983 0.97049 0.77148 0.0
H2090 H 0.30031 1.00211 0.77113 0.0
C2091 C 0.30494 0.04014 0.7239 0.0
C2092 C 0.3296 0.9883 0.73688 0.0
C2093 C 0.30895 0.05762 0.71489 0.0
C2094 C 0.35192 0.94758 0.7873 0.0
C2095 C 0.34674 0.96187 0.77665 0.0
C2096 C 0.30817 0.99793 0.76152 0.0
C2097 C 0.32194 0.02583 0.72769 0.0
C2098 C 0.31885 0.0085 0.73828 0.0
C2099 C 0.325 0.96478 0.77252 0.0
C2100 C 0.3204 0.97861 0.76037 0.0
H2101 H 0.36318 0.04881 0.70921 0.0
H2102 H 0.35638 0.0186 0.72475 0.0
H2103 H 0.29912 0.02826 0.75202 0.0
H2104 H 0.30052 0.93006 0.79512 0.0
H2105 H 0.29142 0.95588 0.77662 0.0
C2106 C 0.31378 0.0617 0.04322 0.0
C2107 C 0.31909 0.08321 0.04703 0.0
C2108 C 0.29832 0.05785 0.0328 0.0
C2109 C 0.27774 0.08555 1.00215 0.0
H2110 H 0.22793 0.04647 1.00302 0.0
C2111 C 0.20338 0.09848 0.9681 0.0
C2112 C 0.19268 0.08059 0.96214 0.0
C2113 C 0.22061 0.09534 0.97724 0.0
C2114 C 0.24204 0.05711 1.00252 0.0
H2115 H 0.31112 0.11729 0.04395 0.0
H2116 H 0.28425 0.11068 0.026 0.0
H2117 H 0.25363 0.04713 0.02244 0.0
H2118 H 0.19175 0.04534 0.96082 0.0
H2119 H 0.22215 0.03967 0.97708 0.0
H2120 H 0.26611 0.09599 0.98252 0.0
C2121 C 0.2923 0.0968 0.03072 0.0
C2122 C 0.25667 0.05753 0.01364 0.0
C2123 C 0.30758 0.1006 0.04103 0.0
C2124 C 0.19995 0.05937 0.96521 0.0
C2125 C 0.21713 0.05616 0.97458 0.0
C2126 C 0.26327 0.08508 0.99109 0.0
C2127 C 0.28811 0.07549 0.0261 0.0
C2128 C 0.27421 0.07235 0.01374 0.0
C2129 C 0.22751 0.07417 0.98077 0.0
C2130 C 0.24483 0.07144 0.99135 0.0
H2131 H 0.32253 0.04804 0.04766 0.0
H2132 H 0.29528 0.04124 0.02948 0.0
H2133 H 0.29142 0.09675 1.00179 0.0
H2134 H 0.19806 0.11498 0.96588 0.0
H2135 H 0.22804 0.10957 0.98193 0.0
C2136 C 0.80732 0.95344 0.71775 0.0
C2137 C 0.82369 0.94586 0.70885 0.0
C2138 C 0.81008 0.97278 0.72512 0.0
C2139 C 0.85375 0.005 0.74041 0.0
H2140 H 0.80539 0.04197 0.75152 0.0
C2141 C 0.84879 0.04493 0.79351 0.0
C2142 C 0.83866 0.06537 0.79515 0.0
C2143 C 0.84961 0.03483 0.78067 0.0
C2144 C 0.81923 0.03212 0.74838 0.0
H2145 H 0.85533 0.95304 0.70009 0.0
H2146 H 0.8604 0.98713 0.71312 0.0
H2147 H 0.80096 0.01703 0.73219 0.0
H2148 H 0.82213 0.09162 0.78446 0.0
H2149 H 0.8235 0.07391 0.76187 0.0
H2150 H 0.87182 0.01964 0.75685 0.0
C2151 C 0.84538 0.97801 0.71438 0.0
C2152 C 0.81662 0.01767 0.73737 0.0
C2153 C 0.84245 0.95866 0.70685 0.0
C2154 C 0.8301 0.07591 0.7835 0.0
C2155 C 0.83075 0.06568 0.77061 0.0
C2156 C 0.85635 0.01943 0.75144 0.0
C2157 C 0.82943 0.98499 0.72387 0.0
C2158 C 0.83359 0.00337 0.73356 0.0
C2159 C 0.84023 0.04485 0.76909 0.0
C2160 C 0.83887 0.0326 0.75588 0.0
H2161 H 0.79268 0.94387 0.7194 0.0
H2162 H 0.79756 0.97744 0.73241 0.0
H2163 H 0.86714 0.99418 0.73781 0.0
H2164 H 0.85579 0.03653 0.80225 0.0
H2165 H 0.85681 0.0187 0.77996 0.0
C2166 C 0.81387 0.0592 0.46968 0.0
C2167 C 0.81641 0.08064 0.46476 0.0
C2168 C 0.797 0.05419 0.47893 0.0
C2169 C 0.74419 0.07523 0.49202 0.0
H2170 H 0.76019 0.04882 0.52685 0.0
C2171 C 0.70093 0.09748 0.541 0.0
C2172 C 0.68902 0.08079 0.54746 0.0
C2173 C 0.71668 0.09253 0.53118 0.0
C2174 C 0.75543 0.05581 0.51707 0.0
H2175 H 0.80288 0.11328 0.46503 0.0
H2176 H 0.77349 0.10467 0.48092 0.0
H2177 H 0.78642 0.04875 0.50771 0.0
H2178 H 0.68549 0.04575 0.54953 0.0
H2179 H 0.71374 0.03698 0.53229 0.0
H2180 H 0.71381 0.08348 0.50158 0.0
C2181 C 0.7844 0.09167 0.47776 0.0
C2182 C 0.77035 0.05574 0.50612 0.0
C2183 C 0.80132 0.09668 0.46874 0.0
C2184 C 0.6945 0.05889 0.54471 0.0
C2185 C 0.71051 0.05389 0.53485 0.0
C2186 C 0.72944 0.0754 0.50292 0.0
C2187 C 0.7822 0.07048 0.48314 0.0
C2188 C 0.76515 0.06623 0.49367 0.0
C2189 C 0.72107 0.07077 0.52767 0.0
C2190 C 0.7352 0.0664 0.51567 0.0
H2191 H 0.82545 0.04662 0.46681 0.0
H2192 H 0.79565 0.03772 0.48289 0.0
H2193 H 0.73957 0.08308 0.48248 0.0
H2194 H 0.69736 0.11447 0.54312 0.0
H2195 H 0.7249 0.10579 0.52592 0.0
C2196 C 0.67786 0.04735 0.21213 0.0
C2197 C 0.68815 0.06728 0.21495 0.0
C2198 C 0.68062 0.02953 0.221 0.0
C2199 C 0.6956 0.01891 0.25743 0.0
H2200 H 0.68798 0.95845 0.24665 0.0
C2201 C 0.69283 0.94919 0.29739 0.0
C2202 C 0.67386 0.93639 0.29635 0.0
C2203 C 0.69884 0.96317 0.28663 0.0
C2204 C 0.69024 0.97527 0.24979 0.0
H2205 H 0.71039 0.0841 0.2285 0.0
H2206 H 0.71643 0.05278 0.24356 0.0
H2207 H 0.69157 0.9866 0.229 0.0
H2208 H 0.64716 0.92704 0.283 0.0
H2209 H 0.65777 0.95115 0.26418 0.0
H2210 H 0.69419 0.00753 0.2782 0.0
C2211 C 0.7055 0.05091 0.2349 0.0
C2212 C 0.69216 0.99145 0.23968 0.0
C2213 C 0.70234 0.06878 0.2262 0.0
C2214 C 0.66171 0.93693 0.28411 0.0
C2215 C 0.66791 0.95057 0.27329 0.0
C2216 C 0.69401 1.00272 0.26749 0.0
C2217 C 0.694 0.03127 0.23276 0.0
C2218 C 0.69441 0.01359 0.24336 0.0
C2219 C 0.68623 0.96423 0.27456 0.0
C2220 C 0.69085 0.9808 0.26379 0.0
H2221 H 0.66659 0.04606 0.20359 0.0
H2222 H 0.67127 0.01486 0.21903 0.0
H2223 H 0.69681 0.03573 0.26077 0.0
H2224 H 0.70241 0.94909 0.30674 0.0
H2225 H 0.7131 0.97346 0.28785 0.0
C2226 C 0.71171 0.93425 0.96708 0.0
C2227 C 0.69074 0.92503 0.9662 0.0
C2228 C 0.72239 0.93591 0.9797 0.0
C2229 C 0.72536 0.90989 0.01336 0.0
H2230 H 0.76297 0.95919 0.02154 0.0
C2231 C 0.79815 0.93919 0.05369 0.0
C2232 C 0.81148 0.92061 0.05252 0.0
C2233 C 0.77873 0.94073 0.0461 0.0
C2234 C 0.75225 0.94546 0.01961 0.0
H2235 H 0.66433 0.91069 0.97794 0.0
H2236 H 0.68312 0.91347 1.00013 0.0
H2237 H 0.73761 0.96126 1.00227 0.0
H2238 H 0.81428 0.88848 0.04346 0.0
H2239 H 0.78052 0.89097 0.03033 0.0
H2240 H 0.74053 0.89383 0.03044 0.0
C2241 C 0.69126 0.9194 0.99098 0.0
C2242 C 0.73789 0.94656 0.00845 0.0
C2243 C 0.68046 0.91792 0.97832 0.0
C2244 C 0.80432 0.90302 0.04445 0.0
C2245 C 0.78488 0.90441 0.03702 0.0
C2246 C 0.73979 0.90876 0.02449 0.0
C2247 C 0.71242 0.9283 0.99179 0.0
C2248 C 0.72482 0.92852 1.00493 0.0
C2249 C 0.77221 0.92356 0.03738 0.0
C2250 C 0.75391 0.92627 0.02746 0.0
H2251 H 0.71994 0.94018 0.95798 0.0
H2252 H 0.73877 0.94259 0.97991 0.0
H2253 H 0.71555 0.89569 0.01091 0.0
H2254 H 0.80343 0.953 0.0598 0.0
H2255 H 0.76922 0.95563 0.04666 0.0
C2256 C 0.6622 0.55493 0.79765 0.0
C2257 C 0.67443 0.57305 0.79332 0.0
C2258 C 0.66062 0.53636 0.78926 0.0
C2259 C 0.6655 0.52085 0.75272 0.0
H2260 H 0.66804 0.46148 0.76639 0.0
C2261 C 0.67474 0.44568 0.71709 0.0
C2262 C 0.66419 0.42631 0.72101 0.0
C2263 C 0.67435 0.46395 0.72574 0.0
C2264 C 0.66697 0.47797 0.76242 0.0
H2265 H 0.69596 0.5854 0.77747 0.0
H2266 H 0.6935 0.55312 0.763 0.0
H2267 H 0.67123 0.49193 0.78244 0.0
H2268 H 0.64367 0.41131 0.73647 0.0
H2269 H 0.6426 0.44321 0.75142 0.0
H2270 H 0.66129 0.50699 0.73272 0.0
C2271 C 0.68453 0.55337 0.77259 0.0
C2272 C 0.66884 0.4954 0.77163 0.0
C2273 C 0.68604 0.57181 0.7809 0.0
C2274 C 0.65227 0.42593 0.73333 0.0
C2275 C 0.65176 0.44416 0.74192 0.0
C2276 C 0.66358 0.50345 0.74352 0.0
C2277 C 0.67133 0.53568 0.77646 0.0
C2278 C 0.66838 0.51703 0.76687 0.0
C2279 C 0.66327 0.46321 0.73842 0.0
C2280 C 0.66446 0.48179 0.74824 0.0
H2281 H 0.65304 0.55557 0.80716 0.0
H2282 H 0.65033 0.52295 0.79253 0.0
H2283 H 0.66465 0.53736 0.74875 0.0
H2284 H 0.68419 0.4463 0.7077 0.0
H2285 H 0.68351 0.47832 0.72276 0.0
C2286 C 0.80943 0.40505 0.96882 0.0
C2287 C 0.82498 0.42097 0.96536 0.0
C2288 C 0.80002 0.40465 0.98187 0.0
C2289 C 0.7844 0.44059 0.00983 0.0
H2290 H 0.77084 0.38596 0.02809 0.0
C2291 C 0.72114 0.43634 0.0541 0.0
C2292 C 0.7052 0.42028 0.05177 0.0
C2293 C 0.74074 0.43613 0.04658 0.0
C2294 C 0.77453 0.40139 0.02317 0.0
H2295 H 0.84326 0.44873 0.97291 0.0
H2296 H 0.82638 0.44835 0.99587 0.0
H2297 H 0.7964 0.38624 0.00887 0.0
H2298 H 0.69763 0.39077 0.04056 0.0
H2299 H 0.73157 0.39016 0.02761 0.0
H2300 H 0.76158 0.45555 0.02363 0.0
C2301 C 0.82166 0.43606 0.98844 0.0
C2302 C 0.7892 0.40154 0.01217 0.0
C2303 C 0.8314 0.43621 0.97538 0.0
C2304 C 0.70971 0.40332 0.04251 0.0
C2305 C 0.72925 0.40294 0.03516 0.0
C2306 C 0.7696 0.44042 0.02082 0.0
C2307 C 0.80571 0.42037 0.99176 0.0
C2308 C 0.79368 0.42099 1.00505 0.0
C2309 C 0.74479 0.41965 0.03679 0.0
C2310 C 0.76385 0.42067 0.02727 0.0
H2311 H 0.80431 0.39306 0.96131 0.0
H2312 H 0.78761 0.39251 0.98402 0.0
H2313 H 0.78744 0.45583 1.00451 0.0
H2314 H 0.71788 0.44966 0.06113 0.0
H2315 H 0.75243 0.44917 0.04814 0.0
C2316 C 0.81 0.56535 0.22058 0.0
C2317 C 0.83104 0.56944 0.21544 0.0
C2318 C 0.80658 0.54842 0.23008 0.0
C2319 C 0.83184 0.49795 0.24378 0.0
H2320 H 0.80404 0.51291 0.27834 0.0
C2321 C 0.85029 0.44864 0.29151 0.0
C2322 C 0.83258 0.44081 0.29921 0.0
C2323 C 0.84732 0.46501 0.28176 0.0
C2324 C 0.81158 0.50842 0.26868 0.0
H2325 H 0.86467 0.55863 0.21553 0.0
H2326 H 0.85879 0.52897 0.23176 0.0
H2327 H 0.80278 0.53877 0.25907 0.0
H2328 H 0.79816 0.4449 0.30349 0.0
H2329 H 0.79281 0.47401 0.2863 0.0
H2330 H 0.84118 0.46799 0.25337 0.0
C2331 C 0.84489 0.53872 0.22861 0.0
C2332 C 0.81078 0.52315 0.25764 0.0
C2333 C 0.84831 0.55572 0.21935 0.0
C2334 C 0.81207 0.45086 0.29773 0.0
C2335 C 0.80902 0.46735 0.28786 0.0
C2336 C 0.83265 0.48334 0.25475 0.0
C2337 C 0.82411 0.53513 0.23433 0.0
C2338 C 0.8215 0.5183 0.24521 0.0
C2339 C 0.82649 0.4739 0.2794 0.0
C2340 C 0.82316 0.48868 0.26746 0.0
H2341 H 0.79652 0.57593 0.2178 0.0
H2342 H 0.79037 0.54596 0.23427 0.0
H2343 H 0.83988 0.49356 0.23426 0.0
H2344 H 0.86628 0.44123 0.29258 0.0
H2345 H 0.86122 0.47013 0.27567 0.0
C2346 C 0.69918 0.60267 0.46556 0.0
C2347 C 0.69158 0.58544 0.45733 0.0
C2348 C 0.7183 0.60046 0.47323 0.0
C2349 C 0.76276 0.59448 0.48635 0.0
H2350 H 0.76323 0.54133 0.50798 0.0
C2351 C 0.82061 0.58323 0.53309 0.0
C2352 C 0.8099 0.57589 0.545 0.0
C2353 C 0.81019 0.58214 0.52027 0.0
C2354 C 0.76342 0.55622 0.50197 0.0
H2355 H 0.6986 0.55283 0.45003 0.0
H2356 H 0.7323 0.54878 0.46357 0.0
H2357 H 0.73831 0.54457 0.48855 0.0
H2358 H 0.7804 0.5606 0.55268 0.0
H2359 H 0.76226 0.55886 0.5305 0.0
H2360 H 0.78701 0.60659 0.50026 0.0
C2361 C 0.72334 0.56402 0.4641 0.0
C2362 C 0.74931 0.55799 0.49072 0.0
C2363 C 0.70422 0.56637 0.45626 0.0
C2364 C 0.78896 0.5667 0.54374 0.0
C2365 C 0.77867 0.56544 0.53097 0.0
C2366 C 0.77693 0.5927 0.49758 0.0
C2367 C 0.73027 0.58086 0.47296 0.0
C2368 C 0.74826 0.57743 0.48306 0.0
C2369 C 0.78899 0.5734 0.51909 0.0
C2370 C 0.77687 0.57383 0.50582 0.0
H2371 H 0.68977 0.61758 0.46648 0.0
H2372 H 0.72296 0.61368 0.48002 0.0
H2373 H 0.76255 0.60958 0.48055 0.0
H2374 H 0.83672 0.59043 0.53375 0.0
H2375 H 0.81863 0.58831 0.5113 0.0
C2376 C 0.31323 0.55362 0.29963 0.0
C2377 C 0.33136 0.56762 0.30022 0.0
C2378 C 0.31336 0.53556 0.29078 0.0
C2379 C 0.34947 0.49946 0.27075 0.0
H2380 H 0.30252 0.49737 0.24399 0.0
C2381 C 0.36036 0.45162 0.2211 0.0
C2382 C 0.34292 0.43886 0.21632 0.0
C2383 C 0.35717 0.46691 0.2315 0.0
C2384 C 0.31558 0.49749 0.25149 0.0
H2385 H 0.36396 0.57356 0.29265 0.0
H2386 H 0.36467 0.54162 0.27758 0.0
H2387 H 0.30036 0.52291 0.2633 0.0
H2388 H 0.30828 0.43266 0.21814 0.0
H2389 H 0.30255 0.45939 0.23663 0.0
H2390 H 0.3648 0.47422 0.25909 0.0
C2391 C 0.35032 0.54451 0.28384 0.0
C2392 C 0.31432 0.51208 0.26256 0.0
C2393 C 0.34999 0.56272 0.29245 0.0
C2394 C 0.3219 0.44251 0.22161 0.0
C2395 C 0.3187 0.45772 0.23221 0.0
C2396 C 0.35066 0.48481 0.2598 0.0
C2397 C 0.3318 0.53109 0.28262 0.0
C2398 C 0.33151 0.51354 0.2721 0.0
C2399 C 0.33649 0.46959 0.23758 0.0
C2400 C 0.33404 0.48404 0.2498 0.0
H2401 H 0.29858 0.55745 0.30539 0.0
H2402 H 0.29891 0.52542 0.29005 0.0
H2403 H 0.36282 0.50006 0.27805 0.0
H2404 H 0.37666 0.44918 0.21706 0.0
H2405 H 0.37111 0.47626 0.23503 0.0
C2406 C 0.31193 0.60734 0.97599 0.0
C2407 C 0.31721 0.59072 0.96663 0.0
C2408 C 0.29232 0.60683 0.98328 0.0
C2409 C 0.25183 0.56802 0.99652 0.0
H2410 H 0.22329 0.6214 0.00833 0.0
C2411 C 0.18407 0.56996 0.03863 0.0
C2412 C 0.1888 0.58478 0.04926 0.0
C2413 C 0.19587 0.5706 0.02628 0.0
C2414 C 0.23101 0.60633 1.00507 0.0
H2415 H 0.30566 0.56099 0.95707 0.0
H2416 H 0.271 0.56004 0.96984 0.0
H2417 H 0.25048 0.62275 0.99004 0.0
H2418 H 0.20878 0.61241 0.05509 0.0
H2419 H 0.22908 0.61382 0.03356 0.0
H2420 H 0.23259 0.55175 0.01185 0.0
C2421 C 0.28222 0.57342 0.9716 0.0
C2422 C 0.24663 0.60709 0.99462 0.0
C2423 C 0.30192 0.57404 0.9642 0.0
C2424 C 0.20492 0.60072 0.04711 0.0
C2425 C 0.21641 0.60161 0.03473 0.0
C2426 C 0.23602 0.56725 0.00693 0.0
C2427 C 0.27738 0.58964 0.98142 0.0
C2428 C 0.25786 0.58809 0.99056 0.0
C2429 C 0.21226 0.58639 0.02424 0.0
C2430 C 0.22602 0.58652 0.01165 0.0
H2431 H 0.3233 0.62051 0.97797 0.0
H2432 H 0.28939 0.61945 0.99084 0.0
H2433 H 0.26022 0.55308 0.99374 0.0
H2434 H 0.17181 0.55742 0.04008 0.0
H2435 H 0.19232 0.55869 0.01836 0.0
C2436 C 0.15344 0.54338 0.71521 0.0
C2437 C 0.17015 0.55493 0.70847 0.0
C2438 C 0.15829 0.52574 0.72376 0.0
C2439 C 0.20336 0.50459 0.74509 0.0
H2440 H 0.16109 0.45896 0.75258 0.0
C2441 C 0.19756 0.46342 0.7978 0.0
C2442 C 0.19001 0.44182 0.79908 0.0
C2443 C 0.19835 0.4737 0.78502 0.0
C2444 C 0.17334 0.47128 0.75052 0.0
H2445 H 0.20501 0.55604 0.70475 0.0
H2446 H 0.21356 0.52474 0.7195 0.0
H2447 H 0.15661 0.48201 0.73244 0.0
H2448 H 0.17823 0.41381 0.78766 0.0
H2449 H 0.18011 0.43161 0.7652 0.0
H2450 H 0.2202 0.49373 0.76309 0.0
C2451 C 0.19667 0.52971 0.71839 0.0
C2452 C 0.1706 0.48476 0.73903 0.0
C2453 C 0.19178 0.54749 0.70981 0.0
C2454 C 0.18413 0.43044 0.78708 0.0
C2455 C 0.18501 0.44075 0.77421 0.0
C2456 C 0.20623 0.49096 0.7565 0.0
C2457 C 0.18001 0.51895 0.72577 0.0
C2458 C 0.18511 0.50213 0.73644 0.0
C2459 C 0.19182 0.46267 0.77304 0.0
C2460 C 0.19082 0.47464 0.75967 0.0
H2461 H 0.13656 0.5484 0.7142 0.0
H2462 H 0.14498 0.51816 0.72931 0.0
H2463 H 0.21488 0.51776 0.74352 0.0
H2464 H 0.20266 0.47261 0.80673 0.0
H2465 H 0.2034 0.49064 0.78466 0.0
C2466 C 0.31016 0.40693 0.54302 0.0
C2467 C 0.31781 0.42503 0.55041 0.0
C2468 C 0.29148 0.40855 0.53489 0.0
C2469 C 0.26055 0.44749 0.51442 0.0
H2470 H 0.22 0.39906 0.51161 0.0
C2471 C 0.18926 0.44004 0.47387 0.0
C2472 C 0.18745 0.41916 0.46797 0.0
C2473 C 0.20398 0.44374 0.48473 0.0
C2474 C 0.2312 0.41273 0.51225 0.0
H2475 H 0.3118 0.45889 0.55545 0.0
H2476 H 0.27884 0.46194 0.54098 0.0
H2477 H 0.24641 0.39992 0.53031 0.0
H2478 H 0.20082 0.38641 0.46793 0.0
H2479 H 0.22637 0.39278 0.48662 0.0
H2480 H 0.24559 0.4599 0.49601 0.0
C2481 C 0.28734 0.44645 0.54157 0.0
C2482 C 0.24628 0.41324 0.52299 0.0
C2483 C 0.30598 0.44468 0.54993 0.0
C2484 C 0.20153 0.40252 0.47249 0.0
C2485 C 0.21609 0.40616 0.48324 0.0
C2486 C 0.24536 0.44698 0.50361 0.0
C2487 C 0.28009 0.42843 0.53382 0.0
C2488 C 0.26161 0.43022 0.52395 0.0
C2489 C 0.21701 0.42657 0.48979 0.0
C2490 C 0.23105 0.42917 0.50216 0.0
H2491 H 0.31911 0.39167 0.54321 0.0
H2492 H 0.28652 0.39444 0.52895 0.0
H2493 H 0.27224 0.46075 0.51486 0.0
H2494 H 0.17854 0.45312 0.4706 0.0
H2495 H 0.20446 0.45968 0.48954 0.0
C2496 C 0.33501 0.98655 0.40099 0.0
C2497 C 0.33862 0.99041 0.41505 0.0
C2498 C 0.32386 1.00181 0.39295 0.0
C2499 C 0.3092 0.05914 0.38962 0.0
H2500 H 0.25851 0.03781 0.36985 0.0
C2501 C 0.24745 0.11761 0.36368 0.0
C2502 C 0.23585 0.11038 0.3521 0.0
C2503 C 0.26154 0.10351 0.37069 0.0
C2504 C 0.27286 0.04407 0.37503 0.0
H2505 H 0.334 0.01369 0.43158 0.0
H2506 H 0.31491 0.04071 0.41735 0.0
H2507 H 0.28047 0.01255 0.38333 0.0
H2508 H 0.23074 0.08304 0.33834 0.0
H2509 H 0.25613 0.05874 0.35011 0.0
H2510 H 0.3021 0.09053 0.38107 0.0
C2511 C 0.32059 0.0257 0.41266 0.0
C2512 C 0.28533 0.02955 0.38285 0.0
C2513 C 0.33143 0.01022 0.42079 0.0
C2514 C 0.23934 0.08903 0.34731 0.0
C2515 C 0.25376 0.07503 0.35417 0.0
C2516 C 0.29696 0.07363 0.38158 0.0
C2517 C 0.3164 0.02144 0.39872 0.0
C2518 C 0.30352 0.03696 0.39029 0.0
C2519 C 0.26469 0.08189 0.36616 0.0
C2520 C 0.27849 0.06634 0.37423 0.0
H2521 H 0.34027 0.97144 0.39623 0.0
H2522 H 0.32095 0.99821 0.38221 0.0
H2523 H 0.32329 0.0652 0.39518 0.0
H2524 H 0.24494 0.13392 0.36771 0.0
H2525 H 0.26931 0.10939 0.37997 0.0
C2526 C 0.245 0.08884 0.67276 0.0
C2527 C 0.26451 0.09681 0.66699 0.0
C2528 C 0.23024 0.07676 0.66473 0.0
C2529 C 0.21461 0.06595 0.62858 0.0
H2530 H 0.19244 0.01094 0.64243 0.0
C2531 C 0.17534 1.00081 0.59309 0.0
C2532 C 0.15857 0.98773 0.59848 0.0
C2533 C 0.18646 0.01569 0.60152 0.0
C2534 C 0.19813 0.02644 0.63845 0.0
H2535 H 0.28373 0.09802 0.64823 0.0
H2536 H 0.25808 0.07748 0.63441 0.0
H2537 H 0.21444 0.03417 0.65732 0.0
H2538 H 0.13954 0.98084 0.61678 0.0
H2539 H 0.15837 0.00705 0.63129 0.0
H2540 H 0.1984 0.05828 0.60971 0.0
C2541 C 0.25402 0.0807 0.64505 0.0
C2542 C 0.21078 0.03974 0.64702 0.0
C2543 C 0.26879 0.09248 0.65305 0.0
C2544 C 0.15259 0.99046 0.61233 0.0
C2545 C 0.16351 0.00542 0.62069 0.0
C2546 C 0.20183 0.05273 0.62004 0.0
C2547 C 0.23458 0.07266 0.65076 0.0
C2548 C 0.21943 0.0595 0.64212 0.0
C2549 C 0.1809 0.01794 0.61551 0.0
C2550 C 0.19363 0.03264 0.62479 0.0
H2551 H 0.2412 0.0918 0.68346 0.0
H2552 H 0.21535 0.07078 0.66942 0.0
H2553 H 0.22083 0.08123 0.62456 0.0
H2554 H 0.18041 0.99899 0.58249 0.0
H2555 H 0.1999 0.02486 0.59717 0.0
C2556 C 0.17704 0.02246 0.90305 0.0
C2557 C 0.15628 0.01497 0.907 0.0
C2558 C 0.19069 0.00948 0.89493 0.0
C2559 C 0.18962 0.961 0.8716 0.0
H2560 H 0.25243 0.96546 0.8756 0.0
C2561 C 0.25022 0.91715 0.83445 0.0
C2562 C 0.26965 0.90908 0.84027 0.0
C2563 C 0.23598 0.93024 0.84224 0.0
C2564 C 0.23492 0.96373 0.8744 0.0
H2565 H 0.13391 0.98759 0.90597 0.0
H2566 H 0.15812 0.96447 0.89238 0.0
H2567 H 0.22894 0.98632 0.89064 0.0
H2568 H 0.28917 0.90856 0.85893 0.0
H2569 H 0.26422 0.93 0.87245 0.0
H2570 H 0.19577 0.93747 0.85578 0.0
C2571 C 0.16361 0.9807 0.89512 0.0
C2572 C 0.22137 0.97607 0.88294 0.0
C2573 C 0.1498 0.99386 0.90307 0.0
C2574 C 0.27436 0.91429 0.85403 0.0
C2575 C 0.26009 0.92697 0.86181 0.0
C2576 C 0.20323 0.94836 0.86317 0.0
C2577 C 0.18412 0.98847 0.89073 0.0
C2578 C 0.19851 0.97493 0.88169 0.0
C2579 C 0.24081 0.93538 0.85603 0.0
C2580 C 0.22609 0.94946 0.86451 0.0
H2581 H 0.18245 0.03876 0.90573 0.0
H2582 H 0.20612 0.01629 0.89161 0.0
H2583 H 0.17212 0.95993 0.87012 0.0
H2584 H 0.24611 0.91354 0.82387 0.0
H2585 H 0.22139 0.93659 0.83737 0.0
C2586 C 0.25811 0.92022 0.16544 0.0
C2587 C 0.24226 0.9065 0.15957 0.0
C2588 C 0.27243 0.9321 0.15711 0.0
C2589 C 0.295 0.93696 0.12187 0.0
H2590 H 0.30126 0.99791 0.1319 0.0
C2591 C 0.33613 1.00248 0.08663 0.0
C2592 C 0.34865 0.01853 0.09331 0.0
C2593 C 0.32401 0.98728 0.0943 0.0
C2594 C 0.29997 0.98087 0.12902 0.0
H2595 H 0.22978 0.89369 0.14031 0.0
H2596 H 0.25474 0.91445 0.12581 0.0
H2597 H 0.27949 0.97385 0.14624 0.0
H2598 H 0.35933 0.03032 0.11323 0.0
H2599 H 0.3388 0.00385 0.12643 0.0
H2600 H 0.31558 0.94414 0.1046 0.0
C2601 C 0.25613 0.91599 0.13686 0.0
C2602 C 0.28748 0.96705 0.13727 0.0
C2603 C 0.24175 0.90416 0.14519 0.0
C2604 C 0.34951 0.01848 0.10773 0.0
C2605 C 0.33763 0.00331 0.11534 0.0
C2606 C 0.30765 0.95082 0.11361 0.0
C2607 C 0.27129 0.9305 0.14271 0.0
C2608 C 0.28493 0.9449 0.13387 0.0
C2609 C 0.32433 0.98781 0.10877 0.0
C2610 C 0.31042 0.97293 0.11715 0.0
H2611 H 0.25904 0.92237 0.17647 0.0
H2612 H 0.28417 0.94287 0.16195 0.0
H2613 H 0.2934 0.91995 0.11899 0.0
H2614 H 0.33515 1.00209 0.07552 0.0
H2615 H 0.31389 0.97558 0.08891 0.0
C2616 C 0.66887 1.00184 0.58682 0.0
C2617 C 0.65647 0.01838 0.59312 0.0
C2618 C 0.68127 0.98729 0.59482 0.0
C2619 C 0.7064 0.98353 0.6294 0.0
H2620 H 0.71218 0.9218 0.62133 0.0
C2621 C 0.7483 0.92523 0.66743 0.0
C2622 C 0.76357 0.91048 0.66193 0.0
C2623 C 0.7342 0.93688 0.65881 0.0
C2624 C 0.71083 0.93905 0.62365 0.0
H2625 H 0.64642 0.03176 0.61277 0.0
H2626 H 0.66749 0.00645 0.62655 0.0
H2627 H 0.68979 0.94498 0.6064 0.0
H2628 H 0.77528 0.89572 0.64304 0.0
H2629 H 0.75073 0.91609 0.62803 0.0
H2630 H 0.72734 0.97775 0.6466 0.0
C2631 C 0.66828 0.00501 0.61547 0.0
C2632 C 0.69805 0.95233 0.61508 0.0
C2633 C 0.65608 0.01951 0.60754 0.0
C2634 C 0.76379 0.90701 0.64764 0.0
C2635 C 0.74962 0.91861 0.63901 0.0
C2636 C 0.71905 0.9703 0.63795 0.0
C2637 C 0.6814 0.98899 0.60925 0.0
C2638 C 0.69553 0.97472 0.61794 0.0
C2639 C 0.73497 0.93402 0.64447 0.0
C2640 C 0.72132 0.94787 0.63526 0.0
H2641 H 0.66951 1.00053 0.57573 0.0
H2642 H 0.69125 0.97517 0.58969 0.0
H2643 H 0.7053 1.0008 0.63174 0.0
H2644 H 0.74761 0.92827 0.67838 0.0
H2645 H 0.72285 0.94835 0.66337 0.0
C2646 C 0.72657 0.92712 0.3599 0.0
C2647 C 0.73477 0.91542 0.34858 0.0
C2648 C 0.74048 0.93921 0.36832 0.0
C2649 C 0.79764 0.94476 0.37951 0.0
H2650 H 0.77884 1.00263 0.39063 0.0
C2651 C 0.8421 0.99753 0.42117 0.0
C2652 C 0.84525 0.01957 0.4176 0.0
C2653 C 0.82908 0.9839 0.41293 0.0
C2654 C 0.78436 0.98652 0.38761 0.0
H2655 H 0.76421 0.90728 0.33729 0.0
H2656 H 0.78867 0.92859 0.3521 0.0
H2657 H 0.75584 0.98106 0.3754 0.0
H2658 H 0.83708 0.04449 0.40253 0.0
H2659 H 0.81459 0.02096 0.38841 0.0
H2660 H 0.82633 0.95047 0.39172 0.0
C2661 C 0.77136 0.92822 0.35442 0.0
C2662 C 0.77111 0.97409 0.37895 0.0
C2663 C 0.75734 0.91618 0.34588 0.0
C2664 C 0.83507 0.02763 0.40567 0.0
C2665 C 0.82202 0.01416 0.39756 0.0
C2666 C 0.81088 0.95719 0.38831 0.0
C2667 C 0.76304 0.93991 0.36572 0.0
C2668 C 0.77757 0.95309 0.37476 0.0
C2669 C 0.81879 0.99217 0.40107 0.0
C2670 C 0.80443 0.97828 0.39237 0.0
H2671 H 0.7093 0.9269 0.36235 0.0
H2672 H 0.73357 0.94781 0.37702 0.0
H2673 H 0.80296 0.92855 0.37656 0.0
H2674 H 0.84977 0.99079 0.43026 0.0
H2675 H 0.82679 0.96702 0.41592 0.0
C2676 C 0.75596 0.11646 0.14877 0.0
C2677 C 0.73874 0.1077 0.15658 0.0
C2678 C 0.77006 0.10276 0.14143 0.0
C2679 C 0.78855 0.04515 0.13844 0.0
H2680 H 0.80502 0.06257 0.10157 0.0
C2681 C 0.84951 0.99447 0.10681 0.0
C2682 C 0.84471 0.99101 0.09285 0.0
C2683 C 0.83782 0.00979 0.11448 0.0
C2684 C 0.80047 0.0574 0.11181 0.0
H2685 H 0.72322 0.07755 0.16306 0.0
H2686 H 0.74762 0.05373 0.1502 0.0
H2687 H 0.78226 0.08671 0.11547 0.0
H2688 H 0.82422 1.00143 0.07591 0.0
H2689 H 0.80353 0.02808 0.08938 0.0
H2690 H 0.80612 0.01558 0.13467 0.0
C2691 C 0.75042 0.07118 0.14984 0.0
C2692 C 0.78764 0.07137 0.11986 0.0
C2693 C 0.73636 0.08488 0.15721 0.0
C2694 C 0.82837 0.00377 0.08662 0.0
C2695 C 0.81655 0.01907 0.09435 0.0
C2696 C 0.80132 0.0312 0.1304 0.0
C2697 C 0.76727 0.07996 0.1417 0.0
C2698 C 0.78147 0.06539 0.13327 0.0
C2699 C 0.8209 0.022 0.10844 0.0
C2700 C 0.80745 0.03711 0.11697 0.0
H2701 H 0.75832 0.13396 0.14808 0.0
H2702 H 0.78309 0.11006 0.13547 0.0
H2703 H 0.7843 0.04009 0.14876 0.0
H2704 H 0.86217 0.98514 0.1119 0.0
H2705 H 0.84198 0.01195 0.1252 0.0
C2706 C 0.6751 0.0029 0.92289 0.0
C2707 C 0.66168 0.98721 0.91659 0.0
C2708 C 0.6864 0.01825 0.91497 0.0
C2709 C 0.68961 0.04292 0.88005 0.0
H2710 H 0.75021 0.05243 0.88999 0.0
C2711 C 0.75377 0.08088 0.8432 0.0
C2712 C 0.76977 0.09459 0.84895 0.0
C2713 C 0.73871 0.07007 0.85163 0.0
C2714 C 0.73323 0.05025 0.88717 0.0
H2715 H 0.64904 0.97586 0.89701 0.0
H2716 H 0.66892 1.00237 0.88324 0.0
H2717 H 0.72729 0.02967 0.90449 0.0
H2718 H 0.78173 0.10856 0.86802 0.0
H2719 H 0.75541 0.08996 0.88262 0.0
H2720 H 0.69581 0.06321 0.86253 0.0
C2721 C 0.67055 0.00302 0.89431 0.0
C2722 C 0.72005 0.0372 0.89551 0.0
C2723 C 0.65923 0.98771 0.90222 0.0
C2724 C 0.76978 0.09796 0.86324 0.0
C2725 C 0.75475 0.0872 0.87164 0.0
C2726 C 0.70284 0.05597 0.87167 0.0
C2727 C 0.68457 0.01825 0.90056 0.0
C2728 C 0.69811 0.03324 0.89203 0.0
C2729 C 0.73934 0.07276 0.86598 0.0
C2730 C 0.72485 0.05969 0.8751 0.0
H2731 H 0.67728 0.00307 0.93393 0.0
H2732 H 0.69678 0.02999 0.92014 0.0
H2733 H 0.67271 0.04043 0.87715 0.0
H2734 H 0.75332 0.0779 0.83224 0.0
H2735 H 0.72714 0.05896 0.84695 0.0
C2736 C 0.82657 0.50404 0.91742 0.0
C2737 C 0.84274 0.49048 0.91172 0.0
C2738 C 0.81472 0.51851 0.9091 0.0
C2739 C 0.79796 0.52592 0.87295 0.0
H2740 H 0.78091 0.58387 0.88488 0.0
C2741 C 0.74966 0.58453 0.83742 0.0
C2742 C 0.73257 0.5964 0.84354 0.0
C2743 C 0.76461 0.5729 0.84554 0.0
C2744 C 0.78537 0.56765 0.88143 0.0
H2745 H 0.85979 0.48229 0.89285 0.0
H2746 H 0.83935 0.50751 0.87846 0.0
H2747 H 0.80414 0.56145 0.89962 0.0
H2748 H 0.71808 0.60556 0.86307 0.0
H2749 H 0.74376 0.58518 0.87709 0.0
H2750 H 0.77893 0.53189 0.85489 0.0
C2751 C 0.8355 0.50671 0.88931 0.0
C2752 C 0.7987 0.55481 0.88989 0.0
C2753 C 0.84732 0.49231 0.89761 0.0
C2754 C 0.73102 0.59664 0.85796 0.0
C2755 C 0.7459 0.58504 0.86605 0.0
C2756 C 0.78459 0.53872 0.86451 0.0
C2757 C 0.81877 0.5197 0.89488 0.0
C2758 C 0.80509 0.53374 0.88578 0.0
C2759 C 0.76281 0.57288 0.85997 0.0
C2760 C 0.77799 0.55971 0.86867 0.0
H2761 H 0.82257 0.50304 0.92824 0.0
H2762 H 0.80186 0.52819 0.91372 0.0
H2763 H 0.80225 0.50963 0.86955 0.0
H2764 H 0.75139 0.58402 0.82636 0.0
H2765 H 0.77759 0.56395 0.8405 0.0
C2766 C 0.66865 0.48475 0.11308 0.0
C2767 C 0.67161 0.48599 0.09876 0.0
C2768 C 0.67877 0.49973 0.12186 0.0
C2769 C 0.72558 0.53772 0.1232 0.0
H2770 H 0.69715 0.55942 0.15611 0.0
C2771 C 0.76563 0.60406 0.15593 0.0
C2772 C 0.7661 0.60104 0.17024 0.0
C2773 C 0.75238 0.59114 0.1476 0.0
C2774 C 0.70536 0.55334 0.14703 0.0
H2775 H 0.68716 0.50442 0.08246 0.0
H2776 H 0.70461 0.53076 0.09777 0.0
H2777 H 0.67723 0.53524 0.14051 0.0
H2778 H 0.75207 0.58279 0.18712 0.0
H2779 H 0.72873 0.5599 0.17245 0.0
H2780 H 0.75368 0.55569 0.12967 0.0
C2781 C 0.69471 0.51794 0.10223 0.0
C2782 C 0.69396 0.53949 0.13807 0.0
C2783 C 0.68458 0.50292 0.09342 0.0
C2784 C 0.75205 0.58549 0.17613 0.0
C2785 C 0.73871 0.5724 0.16772 0.0
C2786 C 0.73691 0.55155 0.13211 0.0
C2787 C 0.69212 0.51639 0.11657 0.0
C2788 C 0.70392 0.53154 0.12602 0.0
C2789 C 0.7392 0.57473 0.15332 0.0
C2790 C 0.72694 0.55964 0.1441 0.0
H2791 H 0.65877 0.47196 0.11759 0.0
H2792 H 0.67659 0.49783 0.13283 0.0
H2793 H 0.73398 0.53154 0.11422 0.0
H2794 H 0.77586 0.61623 0.15107 0.0
H2795 H 0.75272 0.59381 0.1366 0.0
C2796 C 0.65792 0.52055 0.3992 0.0
C2797 C 0.65922 0.52001 0.41363 0.0
C2798 C 0.66989 0.5059 0.39118 0.0
C2799 C 0.719 0.47101 0.39237 0.0
H2800 H 0.69556 0.4472 0.35851 0.0
C2801 C 0.76767 0.40911 0.36017 0.0
C2802 C 0.76808 0.41211 0.34584 0.0
C2803 C 0.75313 0.42083 0.36839 0.0
C2804 C 0.70241 0.45387 0.36787 0.0
H2805 H 0.67385 0.50316 0.43093 0.0
H2806 H 0.69465 0.47734 0.4169 0.0
H2807 H 0.67236 0.46967 0.37324 0.0
H2808 H 0.75295 0.42941 0.3289 0.0
H2809 H 0.72751 0.45009 0.34333 0.0
H2810 H 0.74907 0.45541 0.38698 0.0
C2811 C 0.68451 0.48936 0.4118 0.0
C2812 C 0.68911 0.46673 0.37634 0.0
C2813 C 0.67247 0.50406 0.41985 0.0
C2814 C 0.75304 0.42667 0.33989 0.0
C2815 C 0.73843 0.43847 0.34817 0.0
C2816 C 0.73227 0.45814 0.38393 0.0
C2817 C 0.68353 0.49025 0.39735 0.0
C2818 C 0.69727 0.47557 0.38867 0.0
C2819 C 0.73857 0.43595 0.36255 0.0
C2820 C 0.72419 0.44945 0.37155 0.0
H2821 H 0.64788 0.53258 0.39402 0.0
H2822 H 0.66892 0.50729 0.38011 0.0
H2823 H 0.72599 0.47786 0.40164 0.0
H2824 H 0.77882 0.39784 0.36513 0.0
H2825 H 0.75339 0.4181 0.37938 0.0
C2826 C 0.82205 0.50031 0.59282 0.0
C2827 C 0.83593 0.51651 0.59818 0.0
C2828 C 0.81072 0.48615 0.60161 0.0
C2829 C 0.78992 0.48325 0.63711 0.0
H2830 H 0.78211 0.42167 0.62932 0.0
C2831 C 0.74479 0.4263 0.67502 0.0
C2832 C 0.73031 0.41099 0.66928 0.0
C2833 C 0.75923 0.43803 0.66663 0.0
C2834 C 0.78396 0.43888 0.63159 0.0
H2835 H 0.84921 0.52999 0.61706 0.0
H2836 H 0.8297 0.5053 0.63225 0.0
H2837 H 0.80425 0.44407 0.61393 0.0
H2838 H 0.72007 0.39572 0.65021 0.0
H2839 H 0.74479 0.41636 0.63567 0.0
H2840 H 0.76935 0.47829 0.65458 0.0
C2841 C 0.82733 0.5037 0.62127 0.0
C2842 C 0.79667 0.45171 0.62276 0.0
C2843 C 0.83867 0.51777 0.61251 0.0
C2844 C 0.73095 0.40738 0.65501 0.0
C2845 C 0.7453 0.41914 0.64665 0.0
C2846 C 0.77715 0.47048 0.64589 0.0
C2847 C 0.81295 0.48794 0.61595 0.0
C2848 C 0.79977 0.47406 0.6254 0.0
C2849 C 0.7595 0.43478 0.65231 0.0
C2850 C 0.77391 0.44813 0.64323 0.0
H2851 H 0.81952 0.49889 0.58184 0.0
H2852 H 0.79966 0.47427 0.59718 0.0
H2853 H 0.79166 0.5005 0.63933 0.0
H2854 H 0.74482 0.42945 0.68596 0.0
H2855 H 0.77016 0.4497 0.67139 0.0
C2856 C 0.1585 0.51064 0.11241 0.0
C2857 C 0.16439 0.51358 0.09855 0.0
C2858 C 0.17098 0.49728 0.12105 0.0
C2859 C 0.22711 0.47678 0.12455 0.0
H2860 H 0.20287 0.43804 0.15214 0.0
C2861 C 0.28175 0.41763 0.1544 0.0
C2862 C 0.27792 0.41416 0.16848 0.0
C2863 C 0.26698 0.42935 0.14638 0.0
C2864 C 0.20988 0.44901 0.14461 0.0
H2865 H 0.18747 0.50386 0.08279 0.0
H2866 H 0.20912 0.48046 0.09784 0.0
H2867 H 0.17838 0.45819 0.13679 0.0
H2868 H 0.2552 0.42028 0.18512 0.0
H2869 H 0.22933 0.44126 0.17106 0.0
H2870 H 0.25851 0.46797 0.13236 0.0
C2871 C 0.19501 0.48877 0.10206 0.0
C2872 C 0.19585 0.46048 0.13578 0.0
C2873 C 0.18249 0.50205 0.0934 0.0
C2874 C 0.25869 0.42267 0.17432 0.0
C2875 C 0.24382 0.43458 0.16624 0.0
C2876 C 0.24106 0.46545 0.13338 0.0
C2877 C 0.1897 0.48661 0.11606 0.0
C2878 C 0.20434 0.47431 0.12554 0.0
C2879 C 0.24791 0.43819 0.15218 0.0
C2880 C 0.23269 0.4512 0.14342 0.0
H2881 H 0.14464 0.51923 0.11674 0.0
H2882 H 0.16648 0.49606 0.13178 0.0
H2883 H 0.23418 0.48772 0.11702 0.0
H2884 H 0.29623 0.41123 0.14945 0.0
H2885 H 0.27048 0.43132 0.13555 0.0
C2886 C 0.33252 0.50712 0.92934 0.0
C2887 C 0.34943 0.51996 0.92384 0.0
C2888 C 0.32168 0.49177 0.92108 0.0
C2889 C 0.30894 0.48198 0.88474 0.0
H2890 H 0.29189 0.42398 0.89653 0.0
C2891 C 0.26515 0.42335 0.84758 0.0
C2892 C 0.24755 0.4114 0.85298 0.0
C2893 C 0.27951 0.43449 0.85633 0.0
C2894 C 0.29637 0.44021 0.89311 0.0
H2895 H 0.36929 0.52552 0.90571 0.0
H2896 H 0.35044 0.49905 0.89144 0.0
H2897 H 0.31285 0.44738 0.91205 0.0
H2898 H 0.23173 0.40119 0.87189 0.0
H2899 H 0.25631 0.42088 0.887 0.0
H2900 H 0.29209 0.47527 0.866 0.0
C2901 C 0.34518 0.50113 0.90198 0.0
C2902 C 0.30838 0.45358 0.90201 0.0
C2903 C 0.35598 0.51633 0.91019 0.0
C2904 C 0.24512 0.4102 0.86734 0.0
C2905 C 0.25934 0.42143 0.87605 0.0
C2906 C 0.29683 0.46872 0.8759 0.0
C2907 C 0.32756 0.48905 0.90721 0.0
C2908 C 0.31482 0.4746 0.89791 0.0
C2909 C 0.2765 0.43405 0.87067 0.0
C2910 C 0.29034 0.44766 0.87994 0.0
H2911 H 0.32712 0.50953 0.93983 0.0
H2912 H 0.30813 0.48269 0.92539 0.0
H2913 H 0.31333 0.49825 0.88135 0.0
H2914 H 0.26759 0.42452 0.83659 0.0
H2915 H 0.2928 0.44369 0.85181 0.0
C2916 C 0.23212 0.58778 0.65089 0.0
C2917 C 0.23537 0.5905 0.6651 0.0
C2918 C 0.24762 0.57717 0.64279 0.0
C2919 C 0.29255 0.53748 0.64436 0.0
H2920 H 0.30463 0.55875 0.60759 0.0
C2921 C 0.35451 0.49403 0.60926 0.0
C2922 C 0.34824 0.49065 0.59553 0.0
C2923 C 0.34271 0.50814 0.61774 0.0
C2924 C 0.30132 0.5525 0.61778 0.0
H2925 H 0.2577 0.58406 0.68191 0.0
H2926 H 0.28497 0.56534 0.66767 0.0
H2927 H 0.28081 0.5797 0.62276 0.0
H2928 H 0.32518 0.50018 0.57975 0.0
H2929 H 0.30433 0.52481 0.59461 0.0
H2930 H 0.31272 0.51008 0.63932 0.0
C2931 C 0.27023 0.57148 0.66286 0.0
C2932 C 0.28769 0.56452 0.6265 0.0
C2933 C 0.25466 0.58226 0.67102 0.0
C2934 C 0.33046 0.50251 0.59027 0.0
C2935 C 0.31854 0.51662 0.5988 0.0
C2936 C 0.30617 0.52544 0.63564 0.0
C2937 C 0.26688 0.56887 0.64863 0.0
C2938 C 0.2829 0.55702 0.63983 0.0
C2939 C 0.32425 0.51923 0.61273 0.0
C2940 C 0.31056 0.53267 0.62218 0.0
H2941 H 0.21747 0.59376 0.64593 0.0
H2942 H 0.24426 0.57511 0.63195 0.0
H2943 H 0.28898 0.53106 0.65448 0.0
H2944 H 0.36843 0.48552 0.61356 0.0
H2945 H 0.34793 0.51016 0.62829 0.0
C2946 C 0.25301 0.57411 0.3442 0.0
C2947 C 0.26448 0.59267 0.3487 0.0
C2948 C 0.23908 0.56284 0.35313 0.0
C2949 C 0.22821 0.55451 0.39036 0.0
H2950 H 0.17609 0.52581 0.37675 0.0
C2951 C 0.16777 0.50538 0.42524 0.0
C2952 C 0.16143 0.48496 0.41993 0.0
C2953 C 0.17954 0.52021 0.41707 0.0
C2954 C 0.19064 0.53368 0.38071 0.0
H2955 H 0.26956 0.61438 0.36603 0.0
H2956 H 0.24496 0.59504 0.38147 0.0
H2957 H 0.19741 0.54886 0.36139 0.0
H2958 H 0.16298 0.46411 0.40189 0.0
H2959 H 0.18304 0.48982 0.38781 0.0
H2960 H 0.22128 0.53921 0.40972 0.0
C2961 C 0.24711 0.58884 0.37114 0.0
C2962 C 0.20294 0.54684 0.37188 0.0
C2963 C 0.26115 0.60004 0.36223 0.0
C2964 C 0.16731 0.47971 0.40635 0.0
C2965 C 0.17878 0.49453 0.3982 0.0
C2966 C 0.21578 0.54144 0.39924 0.0
C2967 C 0.2361 0.5699 0.36678 0.0
C2968 C 0.22212 0.55715 0.3765 0.0
C2969 C 0.18494 0.515 0.40339 0.0
C2970 C 0.19707 0.53056 0.39444 0.0
H2971 H 0.2553 0.56787 0.3339 0.0
H2972 H 0.23116 0.54816 0.34943 0.0
H2973 H 0.24301 0.56193 0.39428 0.0
H2974 H 0.16356 0.50996 0.43565 0.0
H2975 H 0.18406 0.53589 0.42136 0.0
C2976 C 0.29678 0.28982 0.2142 0.0
C2977 C 0.28825 0.31067 0.21142 0.0
C2978 C 0.28633 0.27594 0.22352 0.0
C2979 C 0.25278 0.27649 0.25416 0.0
H2980 H 0.23945 0.21631 0.24508 0.0
C2981 C 0.20885 0.2195 0.29278 0.0
C2982 C 0.21454 0.19721 0.29285 0.0
C2983 C 0.21673 0.23352 0.28256 0.0
C2984 C 0.24336 0.23295 0.24791 0.0
H2985 H 0.26215 0.33337 0.21614 0.0
H2986 H 0.24411 0.30921 0.23275 0.0
H2987 H 0.25533 0.24017 0.2277 0.0
H2988 H 0.23297 0.17236 0.28189 0.0
H2989 H 0.2477 0.19687 0.26476 0.0
H2990 H 0.24182 0.26924 0.27449 0.0
C2991 C 0.25875 0.30359 0.22759 0.0
C2992 C 0.25231 0.24664 0.23789 0.0
C2993 C 0.26896 0.31731 0.21804 0.0
C2994 C 0.22848 0.18944 0.28244 0.0
C2995 C 0.23663 0.20351 0.27236 0.0
C2996 C 0.2442 0.2627 0.26428 0.0
C2997 C 0.2674 0.28281 0.23045 0.0
C2998 C 0.25715 0.26852 0.24092 0.0
C2999 C 0.23079 0.22574 0.2722 0.0
C3000 C 0.23943 0.24067 0.26132 0.0
H3001 H 0.31161 0.28432 0.2092 0.0
H3002 H 0.29339 0.26004 0.2256 0.0
H3003 H 0.2566 0.29325 0.2568 0.0
H3004 H 0.19838 0.22623 0.30068 0.0
H3005 H 0.21156 0.25043 0.28273 0.0
C3006 C 0.03594 0.95795 0.54819 0.0
C3007 C 0.05532 0.96877 0.55199 0.0
C3008 C 0.02262 0.96618 0.53771 0.0
C3009 C 0.02409 0.00371 0.50766 0.0
H3010 H 0.96108 0.99757 0.50922 0.0
C3011 C 0.96523 0.04761 0.47016 0.0
C3012 C 0.94733 0.03569 0.46508 0.0
C3013 C 0.97879 0.03881 0.48031 0.0
C3014 C 0.97867 0.99918 0.50857 0.0
H3015 H 0.07546 0.99717 0.54784 0.0
H3016 H 0.05183 0.01195 0.52999 0.0
H3017 H 0.98337 0.98453 0.5283 0.0
H3018 H 0.92985 0.00502 0.46651 0.0
H3019 H 0.95357 0.98958 0.48432 0.0
H3020 H 0.01924 0.0188 0.48803 0.0
C3021 C 0.04719 0.99676 0.53488 0.0
C3022 C 0.9915 0.99169 0.51951 0.0
C3023 C 0.06061 0.98844 0.5453 0.0
C3024 C 0.94359 0.01453 0.47017 0.0
C3025 C 0.95703 0.0058 0.48045 0.0
C3026 C 0.01124 0.01138 0.49679 0.0
C3027 C 0.02817 0.98558 0.5308 0.0
C3028 C 0.01441 0.99384 0.51922 0.0
C3029 C 0.97467 0.01793 0.48572 0.0
C3030 C 0.98839 0.0092 0.49711 0.0
H3031 H 0.03107 0.94297 0.55324 0.0
H3032 H 0.00823 0.95697 0.53483 0.0
H3033 H 0.04167 0.00527 0.5069 0.0
H3034 H 0.96863 0.0639 0.46637 0.0
H3035 H 0.99215 0.04862 0.4842 0.0
C3036 C 0.27647 0.79141 0.79574 0.0
C3037 C 0.28925 0.80934 0.79162 0.0
C3038 C 0.26792 0.7769 0.78601 0.0
C3039 C 0.27567 0.75769 0.75025 0.0
H3040 H 0.21679 0.73541 0.75457 0.0
C3041 C 0.23216 0.70625 0.70821 0.0
C3042 C 0.21894 0.68885 0.71265 0.0
C3043 C 0.24115 0.72092 0.71771 0.0
C3044 C 0.23337 0.74126 0.75328 0.0
H3045 H 0.30258 0.82628 0.77394 0.0
H3046 H 0.28772 0.80099 0.75701 0.0
H3047 H 0.23136 0.76105 0.77136 0.0
H3048 H 0.20559 0.67274 0.73062 0.0
H3049 H 0.22129 0.69814 0.74712 0.0
H3050 H 0.27767 0.73784 0.73217 0.0
C3051 C 0.2846 0.79794 0.76779 0.0
C3052 C 0.24172 0.75599 0.76292 0.0
C3053 C 0.29313 0.81245 0.77751 0.0
C3054 C 0.21534 0.68621 0.72682 0.0
C3055 C 0.22432 0.70081 0.73629 0.0
C3056 C 0.26731 0.74292 0.7406 0.0
C3057 C 0.27194 0.77994 0.77191 0.0
C3058 C 0.263 0.76437 0.76156 0.0
C3059 C 0.23716 0.71851 0.73187 0.0
C3060 C 0.24607 0.73445 0.74202 0.0
H3061 H 0.27342 0.78829 0.80652 0.0
H3062 H 0.2585 0.76305 0.78958 0.0
H3063 H 0.29223 0.76358 0.74897 0.0
H3064 H 0.23508 0.7089 0.69737 0.0
H3065 H 0.25078 0.73448 0.71392 0.0
C3066 C 0.47242 0.04673 0.0489 0.0
C3067 C 0.45388 0.03512 0.0533 0.0
C3068 C 0.4874 0.0372 0.03988 0.0
C3069 C 0.49134 0.99399 0.01366 0.0
H3070 H 0.55362 0.00466 0.01668 0.0
C3071 C 0.55407 0.95215 0.97804 0.0
C3072 C 0.57118 0.96514 0.97293 0.0
C3073 C 0.54018 0.96007 0.98828 0.0
C3074 C 0.53625 1.0017 0.01563 0.0
H3075 H 0.43687 0.00414 0.05194 0.0
H3076 H 0.46327 0.98731 0.0364 0.0
H3077 H 0.52893 0.019 0.03418 0.0
H3078 H 0.58718 0.99661 0.97465 0.0
H3079 H 0.56271 0.01057 0.99243 0.0
H3080 H 0.49863 0.97681 0.99508 0.0
C3081 C 0.46603 0.00394 0.03977 0.0
C3082 C 0.5221 0.0099 0.02566 0.0
C3083 C 0.45104 0.01349 0.04881 0.0
C3084 C 0.57406 0.98626 0.9783 0.0
C3085 C 0.56019 0.99416 0.98859 0.0
C3086 C 0.50548 0.98578 1.00364 0.0
C3087 C 0.48424 0.0158 0.03506 0.0
C3088 C 0.49945 0.00624 0.02476 0.0
C3089 C 0.54306 0.98116 0.99368 0.0
C3090 C 0.5281 0.98962 1.00447 0.0
H3091 H 0.47527 0.06332 0.05232 0.0
H3092 H 0.50113 0.04687 0.03639 0.0
H3093 H 0.47396 0.9912 0.0125 0.0
H3094 H 0.55121 0.93592 0.97401 0.0
H3095 H 0.52727 0.94956 0.99206 0.0
C3096 C 0.22201 0.82512 0.22952 0.0
C3097 C 0.22029 0.81765 0.21594 0.0
C3098 C 0.22981 0.81134 0.23989 0.0
C3099 C 0.25846 0.75782 0.2455 0.0
H3100 H 0.23562 0.76469 0.28241 0.0
C3101 C 0.26996 0.69387 0.28888 0.0
C3102 C 0.2793 0.70204 0.30102 0.0
C3103 C 0.26279 0.70813 0.27859 0.0
C3104 C 0.24218 0.76268 0.27215 0.0
H3105 H 0.22514 0.78993 0.2025 0.0
H3106 H 0.23778 0.76546 0.22061 0.0
H3107 H 0.22298 0.78891 0.26419 0.0
H3108 H 0.28806 0.73145 0.31208 0.0
H3109 H 0.27477 0.7565 0.29423 0.0
H3110 H 0.27693 0.73088 0.25353 0.0
C3111 C 0.23391 0.78218 0.2233 0.0
C3112 C 0.23509 0.77666 0.26169 0.0
C3113 C 0.22655 0.79614 0.21289 0.0
C3114 C 0.28091 0.72476 0.30281 0.0
C3115 C 0.27328 0.73904 0.29265 0.0
C3116 C 0.26517 0.74356 0.25592 0.0
C3117 C 0.23563 0.78954 0.23699 0.0
C3118 C 0.24319 0.77454 0.24819 0.0
C3119 C 0.26441 0.73084 0.28037 0.0
C3120 C 0.25716 0.74591 0.26934 0.0
H3121 H 0.21744 0.84172 0.2321 0.0
H3122 H 0.23135 0.81791 0.25016 0.0
H3123 H 0.26551 0.75584 0.23539 0.0
H3124 H 0.26873 0.67642 0.2872 0.0
H3125 H 0.25593 0.70142 0.26924 0.0
C3126 C 0.55899 0.03599 0.53326 0.0
C3127 C 0.55636 0.03326 0.5475 0.0
C3128 C 0.5438 0.02735 0.52407 0.0
C3129 C 0.49933 0.98695 0.52047 0.0
H3130 H 0.48191 0.02422 0.49015 0.0
C3131 C 0.42813 0.96483 0.48383 0.0
C3132 C 0.43135 0.96886 0.46975 0.0
C3133 C 0.44304 0.97255 0.49357 0.0
C3134 C 0.48675 0.01351 0.49847 0.0
H3135 H 0.53597 0.01873 0.56323 0.0
H3136 H 0.50929 0.00355 0.54712 0.0
H3137 H 0.50874 0.03729 0.50668 0.0
H3138 H 0.45296 0.98399 0.45489 0.0
H3139 H 0.47892 0.99749 0.47186 0.0
H3140 H 0.47731 0.96315 0.51219 0.0
C3141 C 0.52325 0.01232 0.54309 0.0
C3142 C 0.50214 0.02099 0.50795 0.0
C3143 C 0.53853 0.02099 0.55232 0.0
C3144 C 0.44977 0.98092 0.46566 0.0
C3145 C 0.46468 0.98864 0.4754 0.0
C3146 C 0.4839 0.97944 0.51096 0.0
C3147 C 0.52553 0.01573 0.52886 0.0
C3148 C 0.50875 0.00776 0.51901 0.0
C3149 C 0.46153 0.9845 0.48947 0.0
C3150 C 0.47753 0.99259 0.49979 0.0
H3151 H 0.57281 0.04498 0.5292 0.0
H3152 H 0.54634 0.02983 0.51317 0.0
H3153 H 0.50421 0.97628 0.52879 0.0
H3154 H 0.41395 0.95584 0.48735 0.0
H3155 H 0.43994 0.96937 0.50434 0.0
C3156 C 0.20957 0.30237 0.79161 0.0
C3157 C 0.22366 0.31818 0.79725 0.0
C3158 C 0.2171 0.28756 0.78175 0.0
C3159 C 0.26767 0.2628 0.7678 0.0
H3160 H 0.23069 0.24838 0.73674 0.0
C3161 C 0.29979 0.21271 0.72186 0.0
C3162 C 0.28599 0.1966 0.71628 0.0
C3163 C 0.29194 0.22762 0.73154 0.0
C3164 C 0.24113 0.25203 0.74542 0.0
H3165 H 0.25677 0.33074 0.79684 0.0
H3166 H 0.26991 0.3049 0.77962 0.0
H3167 H 0.2177 0.27411 0.75404 0.0
H3168 H 0.25298 0.18379 0.71647 0.0
H3169 H 0.23924 0.20986 0.7334 0.0
H3170 H 0.29109 0.24072 0.7592 0.0
C3171 C 0.25307 0.30381 0.78297 0.0
C3172 C 0.23368 0.2668 0.75535 0.0
C3173 C 0.24554 0.31864 0.79285 0.0
C3174 C 0.264 0.19609 0.72045 0.0
C3175 C 0.25613 0.21104 0.73017 0.0
C3176 C 0.27511 0.24804 0.75788 0.0
C3177 C 0.23892 0.28812 0.77726 0.0
C3178 C 0.24686 0.2724 0.76667 0.0
C3179 C 0.27006 0.22689 0.73592 0.0
C3180 C 0.26197 0.24249 0.74654 0.0
H3181 H 0.19273 0.30124 0.79495 0.0
H3182 H 0.20584 0.27546 0.77778 0.0
H3183 H 0.27811 0.26643 0.77648 0.0
H3184 H 0.31669 0.21392 0.71866 0.0
H3185 H 0.30302 0.23988 0.73552 0.0
C3186 C 0.95576 0.95895 0.03621 0.0
C3187 C 0.9514 0.97035 0.04848 0.0
C3188 C 0.97046 0.96723 0.02655 0.0
C3189 C 0.99423 0.01767 0.01364 0.0
H3190 H 0.03965 0.98019 0.99894 0.0
C3191 C 0.05953 0.05072 0.97615 0.0
C3192 C 0.06714 0.03676 0.96575 0.0
C3193 C 0.04597 0.04279 0.98657 0.0
C3194 C 0.02687 0.99082 1.00274 0.0
H3195 H 0.95942 0.99959 0.06008 0.0
H3196 H 0.98449 0.01436 0.04291 0.0
H3197 H 0.01482 0.96614 0.01639 0.0
H3198 H 0.06634 0.00366 0.95797 0.0
H3199 H 0.04202 0.98989 0.97582 0.0
H3200 H 0.0056 0.04213 0.99971 0.0
C3201 C 0.97649 0.9989 0.04091 0.0
C3202 C 0.01274 0.98277 0.01282 0.0
C3203 C 0.96202 0.99045 0.0507 0.0
C3204 C 0.06085 0.01472 0.96594 0.0
C3205 C 0.04701 0.00684 0.97624 0.0
C3206 C 0.00814 0.02564 1.0034 0.0
C3207 C 0.98092 0.9873 0.02877 0.0
C3208 C 0.99627 0.9961 0.01836 0.0
C3209 C 0.03941 0.02074 0.98675 0.0
C3210 C 0.02467 0.01232 0.99778 0.0
H3211 H 0.94755 0.94372 0.0339 0.0
H3212 H 0.97333 0.9581 0.01719 0.0
H3213 H 0.9815 0.02821 0.01763 0.0
H3214 H 0.06439 0.06773 0.97635 0.0
H3215 H 0.0409 0.05393 0.99459 0.0
C3216 C 0.79139 0.78616 0.71334 0.0
C3217 C 0.78186 0.80644 0.71016 0.0
C3218 C 0.78347 0.7736 0.72426 0.0
C3219 C 0.75351 0.77901 0.75688 0.0
H3220 H 0.74759 0.71611 0.75421 0.0
C3221 C 0.71186 0.72689 0.79904 0.0
C3222 C 0.72011 0.70583 0.8016 0.0
C3223 C 0.72013 0.73953 0.78826 0.0
C3224 C 0.74946 0.73363 0.75521 0.0
H3225 H 0.75627 0.82924 0.71581 0.0
H3226 H 0.74228 0.8072 0.73476 0.0
H3227 H 0.75968 0.73693 0.73427 0.0
H3228 H 0.7441 0.68189 0.79502 0.0
H3229 H 0.75896 0.70418 0.77657 0.0
H3230 H 0.74346 0.77573 0.77783 0.0
C3231 C 0.75601 0.80111 0.72888 0.0
C3232 C 0.75631 0.74556 0.74375 0.0
C3233 C 0.76384 0.8136 0.71791 0.0
C3234 C 0.73746 0.6981 0.79346 0.0
C3235 C 0.74577 0.71076 0.78271 0.0
C3236 C 0.74674 0.76706 0.76836 0.0
C3237 C 0.76592 0.7811 0.7323 0.0
C3238 C 0.75838 0.7684 0.74443 0.0
C3239 C 0.73692 0.73146 0.77979 0.0
C3240 C 0.74461 0.74421 0.76768 0.0
H3241 H 0.8052 0.78012 0.70751 0.0
H3242 H 0.79154 0.75832 0.72666 0.0
H3243 H 0.75528 0.79655 0.75781 0.0
H3244 H 0.69869 0.73349 0.80521 0.0
H3245 H 0.71282 0.75534 0.78629 0.0
C3246 C 0.76705 0.29597 0.30232 0.0
C3247 C 0.78722 0.30655 0.30024 0.0
C3248 C 0.75825 0.28232 0.29218 0.0
C3249 C 0.77366 0.24856 0.26257 0.0
H3250 H 0.71343 0.25569 0.25106 0.0
C3251 C 0.73988 0.20376 0.21494 0.0
C3252 C 0.71816 0.19639 0.2153 0.0
C3253 C 0.74799 0.21729 0.22534 0.0
C3254 C 0.73019 0.2532 0.25427 0.0
H3255 H 0.81355 0.31127 0.28556 0.0
H3256 H 0.79854 0.287 0.26821 0.0
H3257 H 0.72797 0.27842 0.26951 0.0
H3258 H 0.68801 0.19709 0.22695 0.0
H3259 H 0.70222 0.22017 0.24526 0.0
H3260 H 0.77592 0.22309 0.24763 0.0
C3261 C 0.78965 0.28918 0.27773 0.0
C3262 C 0.73851 0.2663 0.26483 0.0
C3263 C 0.7983 0.30303 0.28775 0.0
C3264 C 0.70472 0.20281 0.22628 0.0
C3265 C 0.71289 0.21611 0.23677 0.0
C3266 C 0.76529 0.23527 0.25215 0.0
C3267 C 0.76952 0.27872 0.27981 0.0
C3268 C 0.76038 0.26423 0.26901 0.0
C3269 C 0.73466 0.22352 0.23647 0.0
C3270 C 0.74347 0.23751 0.24776 0.0
H3271 H 0.75814 0.298 0.31184 0.0
H3272 H 0.74277 0.2743 0.2941 0.0
H3273 H 0.79051 0.24642 0.26571 0.0
H3274 H 0.75055 0.19922 0.20653 0.0
H3275 H 0.76469 0.22299 0.22457 0.0
C3276 C 0.78843 0.17643 0.78093 0.0
C3277 C 0.78991 0.18387 0.79452 0.0
C3278 C 0.77964 0.18981 0.77069 0.0
C3279 C 0.74757 0.24133 0.76558 0.0
H3280 H 0.77056 0.23681 0.72856 0.0
C3281 C 0.73256 0.30566 0.72308 0.0
C3282 C 0.72295 0.29741 0.71105 0.0
C3283 C 0.74073 0.29146 0.73307 0.0
C3284 C 0.76396 0.23813 0.73885 0.0
H3285 H 0.78367 0.21107 0.80814 0.0
H3286 H 0.76929 0.23494 0.79023 0.0
H3287 H 0.7849 0.21305 0.74654 0.0
H3288 H 0.71474 0.268 0.69983 0.0
H3289 H 0.72987 0.24303 0.71718 0.0
H3290 H 0.72736 0.2672 0.75785 0.0
C3291 C 0.7741 0.21851 0.78745 0.0
C3292 C 0.77202 0.22442 0.74917 0.0
C3293 C 0.78247 0.20492 0.79774 0.0
C3294 C 0.72213 0.27471 0.70902 0.0
C3295 C 0.73077 0.26049 0.71889 0.0
C3296 C 0.73988 0.25534 0.75532 0.0
C3297 C 0.77257 0.21117 0.77375 0.0
C3298 C 0.76391 0.22577 0.7627 0.0
C3299 C 0.73984 0.26877 0.73108 0.0
C3300 C 0.74797 0.25382 0.74188 0.0
H3301 H 0.79393 0.16015 0.77825 0.0
H3302 H 0.7783 0.18328 0.7604 0.0
H3303 H 0.7405 0.24263 0.77574 0.0
H3304 H 0.73315 0.3231 0.72494 0.0
H3305 H 0.74773 0.29819 0.74238 0.0
C3306 C 0.73496 0.81991 0.29289 0.0
C3307 C 0.71277 0.81889 0.29656 0.0
C3308 C 0.74342 0.80605 0.28277 0.0
C3309 C 0.72657 0.77023 0.25371 0.0
H3310 H 0.78506 0.74681 0.25794 0.0
C3311 C 0.76225 0.70168 0.21897 0.0
C3312 C 0.78412 0.70404 0.21475 0.0
C3313 C 0.75309 0.71609 0.22855 0.0
C3314 C 0.76878 0.75338 0.25654 0.0
H3315 H 0.68218 0.80217 0.29266 0.0
H3316 H 0.69696 0.77775 0.2752 0.0
H3317 H 0.77011 0.77072 0.27558 0.0
H3318 H 0.8131 0.72421 0.21688 0.0
H3319 H 0.79723 0.74903 0.23368 0.0
H3320 H 0.72522 0.75251 0.23473 0.0
C3321 C 0.70776 0.78961 0.27988 0.0
C3322 C 0.7602 0.76715 0.26665 0.0
C3323 C 0.69928 0.80358 0.28993 0.0
C3324 C 0.79638 0.72152 0.22011 0.0
C3325 C 0.78728 0.73581 0.22974 0.0
C3326 C 0.73511 0.75631 0.24364 0.0
C3327 C 0.72994 0.79069 0.27613 0.0
C3328 C 0.739 0.77584 0.26536 0.0
C3329 C 0.76561 0.73313 0.23419 0.0
C3330 C 0.75636 0.74781 0.24491 0.0
H3331 H 0.74572 0.83172 0.29767 0.0
H3332 H 0.76048 0.80765 0.28001 0.0
H3333 H 0.71033 0.77685 0.25224 0.0
H3334 H 0.75237 0.68829 0.21519 0.0
H3335 H 0.73639 0.71349 0.23185 0.0
C3336 C 0.47616 0.5494 0.96916 0.0
C3337 C 0.45546 0.54016 0.9668 0.0
C3338 C 0.48987 0.54111 0.97944 0.0
C3339 C 0.49924 0.49233 1.00128 0.0
H3340 H 0.53094 0.53299 0.02442 0.0
C3341 C 0.54499 0.46364 0.04986 0.0
C3342 C 0.5659 0.47244 0.0522 0.0
C3343 C 0.53131 0.47244 0.03976 0.0
C3344 C 0.52238 0.5214 0.01798 0.0
H3345 H 0.43299 0.51489 0.97347 0.0
H3346 H 0.45686 0.50043 0.9913 0.0
H3347 H 0.50802 0.54684 1.00585 0.0
H3348 H 0.5886 0.49767 0.04584 0.0
H3349 H 0.56473 0.51305 0.02826 0.0
H3350 H 0.51358 0.4669 0.01338 0.0
C3351 C 0.46266 0.51391 0.98509 0.0
C3352 C 0.50925 0.52934 0.0073 0.0
C3353 C 0.44897 0.52219 0.97483 0.0
C3354 C 0.5725 0.49067 0.04445 0.0
C3355 C 0.55881 0.49947 0.03434 0.0
C3356 C 0.51235 0.4844 0.01195 0.0
C3357 C 0.48322 0.52336 0.9876 0.0
C3358 C 0.49749 0.51491 0.99883 0.0
C3359 C 0.53816 0.49027 0.03173 0.0
C3360 C 0.52406 0.49883 0.02045 0.0
H3361 H 0.48184 0.56304 0.96305 0.0
H3362 H 0.50575 0.54855 0.98093 0.0
H3363 H 0.4907 0.48072 0.99483 0.0
H3364 H 0.53922 0.44984 0.0558 0.0
H3365 H 0.51533 0.46523 0.03824 0.0
C3366 C 0.04144 0.48121 0.4617 0.0
C3367 C 0.05929 0.469 0.46662 0.0
C3368 C 0.0258 0.48964 0.47079 0.0
C3369 C 0.00349 0.48108 0.50573 0.0
H3370 H 0.97922 0.53911 0.50105 0.0
C3371 C 0.94881 0.52127 0.54708 0.0
C3372 C 0.9311 0.53416 0.54269 0.0
C3373 C 0.96411 0.51331 0.53763 0.0
C3374 C 0.9856 0.52275 0.50242 0.0
H3375 H 0.07509 0.45696 0.48508 0.0
H3376 H 0.04789 0.47153 0.50085 0.0
H3377 H 0.0066 0.5257 0.48489 0.0
H3378 H 0.9154 0.54834 0.52483 0.0
H3379 H 0.94195 0.53432 0.50834 0.0
H3380 H 0.98248 0.47802 0.52319 0.0
C3381 C 0.04571 0.47423 0.48994 0.0
C3382 C 1.00134 0.51507 0.49315 0.0
C3383 C 0.06134 0.46588 0.48088 0.0
C3384 C 0.92899 0.53871 0.52859 0.0
C3385 C 0.94426 0.5307 0.51913 0.0
C3386 C 0.98772 0.48871 0.51497 0.0
C3387 C 0.02761 0.48603 0.48503 0.0
C3388 C 0.01058 0.49418 0.49473 0.0
C3389 C 0.9621 0.51797 0.52353 0.0
C3390 C 0.97862 0.50969 0.51349 0.0
H3391 H 0.03918 0.48374 0.45078 0.0
H3392 H 0.01196 0.49848 0.46663 0.0
H3393 H 0.00994 0.46475 0.50712 0.0
H3394 H 0.95118 0.51775 0.55788 0.0
H3395 H 0.97781 0.50388 0.54145 0.0
C3396 C 0.07159 0.51461 0.03545 0.0
C3397 C 0.06901 0.5353 0.04154 0.0
C3398 C 0.05654 0.50699 0.02571 0.0
C3399 C 0.99973 0.51566 0.0133 0.0
H3400 H 0.01962 0.483 0.98156 0.0
C3401 C 0.94145 0.49189 0.96873 0.0
C3402 C 0.94375 0.47082 0.96315 0.0
C3403 C 0.95681 0.50004 0.9781 0.0
C3404 C 0.01374 0.4919 0.99043 0.0
H3405 H 0.04826 0.56405 0.04216 0.0
H3406 H 0.02244 0.55102 0.02501 0.0
H3407 H 0.04618 0.49651 0.99818 0.0
H3408 H 0.96445 0.44203 0.96288 0.0
H3409 H 0.99093 0.45604 0.97933 0.0
H3410 H 0.96729 0.51103 1.00555 0.0
C3411 C 0.03597 0.54055 0.02785 0.0
C3412 C 0.029 0.49965 0.99999 0.0
C3413 C 0.05101 0.54817 0.03758 0.0
C3414 C 0.96194 0.45821 0.96709 0.0
C3415 C 0.97732 0.46637 0.97642 0.0
C3416 C 0.98448 0.50793 1.00373 0.0
C3417 C 0.03847 0.51983 0.02181 0.0
C3418 C 0.02222 0.51162 0.01157 0.0
C3419 C 0.97495 0.48737 0.98209 0.0
C3420 C 0.99126 0.49591 0.99218 0.0
H3421 H 0.08532 0.50431 0.03815 0.0
H3422 H 0.05891 0.49086 0.02139 0.0
H3423 H 0.99383 0.52449 0.02219 0.0
H3424 H 0.92758 0.50201 0.96601 0.0
H3425 H 0.95457 0.51637 0.98214 0.0
C3426 C 0.56237 0.51624 0.46732 0.0
C3427 C 0.55506 0.53441 0.45978 0.0
C3428 C 0.54978 0.50776 0.47807 0.0
C3429 C 0.49379 0.50732 0.49268 0.0
H3430 H 0.52357 0.49267 0.52661 0.0
C3431 C 0.44622 0.48927 0.54256 0.0
C3432 C 0.45341 0.47157 0.55059 0.0
C3433 C 0.45892 0.49704 0.53166 0.0
C3434 C 0.51501 0.49646 0.51717 0.0
H3435 H 0.52829 0.55729 0.45723 0.0
H3436 H 0.50647 0.54268 0.47603 0.0
H3437 H 0.54469 0.50495 0.50683 0.0
H3438 H 0.48008 0.44876 0.55375 0.0
H3439 H 0.50204 0.46206 0.53462 0.0
H3440 H 0.46411 0.49885 0.503 0.0
C3441 C 0.52191 0.53492 0.47364 0.0
C3442 C 0.52713 0.50346 0.50581 0.0
C3443 C 0.53452 0.54343 0.46294 0.0
C3444 C 0.47391 0.46225 0.54768 0.0
C3445 C 0.48662 0.47002 0.53678 0.0
C3446 C 0.48167 0.5003 0.50403 0.0
C3447 C 0.52953 0.51719 0.48149 0.0
C3448 C 0.51667 0.50905 0.49343 0.0
C3449 C 0.47914 0.48732 0.52851 0.0
C3450 C 0.49211 0.49485 0.51644 0.0
H3451 H 0.57819 0.509 0.46523 0.0
H3452 H 0.556 0.4939 0.48378 0.0
H3453 H 0.48522 0.51119 0.48325 0.0
H3454 H 0.43044 0.49672 0.54441 0.0
H3455 H 0.4528 0.51061 0.52564 0.0
loop_
_geom_bond_atom_site_label_1
_geom_bond_atom_site_label_2
_geom_bond_distance
_geom_bond_site_symmetry_2
_ccdc_geom_bond_type
Co0 N4 2.148 . S
Co0 N10 2.128 . S
Co0 N20 2.194 . S
Co0 O25 2.351 . S
Co0 O26 2.155 . S
Co0 O27 2.096 . S
C1 N4 1.301 . S
C1 N5 1.328 . S
C1 H6 0.930 . S
C2 C3 1.333 . S
C2 N4 1.317 . S
C2 H7 0.930 . S
C3 C2 1.333 . S
C3 N5 1.350 . S
C3 H29 0.931 . S
N4 Co0 2.148 . S
N4 C1 1.301 . S
N4 C2 1.317 . S
N5 C1 1.328 . S
N5 C3 1.350 . S
H6 C1 0.930 . S
H7 C2 0.930 . S
C8 O9 1.224 . S
C8 O27 1.247 . S
O9 C8 1.224 . S
N10 Co0 2.128 . S
N10 C11 1.355 . S
N10 C13 1.311 . S
C11 N10 1.355 . S
C11 C12 1.363 . S
C11 H23 0.929 . S
C12 C11 1.363 . S
C12 N14 1.375 . S
C12 H30 0.931 . S
C13 N10 1.311 . S
C13 N14 1.347 . S
C13 H24 0.929 . S
N14 C12 1.375 . S
N14 C13 1.347 . S
C15 C18 1.365 . S
C15 N20 1.328 . S
C15 H21 0.929 . S
C16 C17 1.362 . S
C16 C19 1.378 . S
C16 H31 0.929 . S
C17 C16 1.362 . S
C17 C18 1.366 . S
C18 C15 1.365 . S
C18 C17 1.366 . S
C18 H32 0.930 . S
C19 C16 1.378 . S
C19 N20 1.315 . S
C19 H22 0.930 . S
N20 Co0 2.194 . S
N20 C15 1.328 . S
N20 C19 1.315 . S
H21 C15 0.929 . S
H22 C19 0.930 . S
H23 C11 0.929 . S
H24 C13 0.929 . S
O25 Co0 2.351 . S
O25 C28 1.244 . S
O26 Co0 2.155 . S
O26 C28 1.240 . S
O27 Co0 2.096 . S
O27 C8 1.247 . S
C28 O25 1.244 . S
C28 O26 1.240 . S
H29 C3 0.931 . S
H30 C12 0.931 . S
H31 C16 0.929 . S
H32 C18 0.930 . S
Co33 N37 2.148 . S
Co33 N43 2.128 . S
Co33 N53 2.194 . S
Co33 O58 2.351 . S
Co33 O59 2.155 . S
Co33 O60 2.096 . S
C34 N37 1.301 . S
C34 N38 1.328 . S
C34 H39 0.930 . S
C35 C36 1.333 . S
C35 N37 1.317 . S
C35 H40 0.930 . S
C36 C35 1.333 . S
C36 N38 1.350 . S
C36 H62 0.931 . S
N37 Co33 2.148 . S
N37 C34 1.301 . S
N37 C35 1.317 . S
N38 C34 1.328 . S
N38 C36 1.350 . S
H39 C34 0.930 . S
H40 C35 0.930 . S
C41 O42 1.224 . S
C41 O60 1.247 . S
O42 C41 1.224 . S
N43 Co33 2.128 . S
N43 C44 1.355 . S
N43 C46 1.311 . S
C44 N43 1.355 . S
C44 C45 1.363 . S
C44 H56 0.929 . S
C45 C44 1.363 . S
C45 N47 1.375 . S
C45 H63 0.931 . S
C46 N43 1.311 . S
C46 N47 1.347 . S
C46 H57 0.929 . S
N47 C45 1.375 . S
N47 C46 1.347 . S
C48 C51 1.365 . S
C48 N53 1.328 . S
C48 H54 0.929 . S
C49 C50 1.362 . S
C49 C52 1.378 . S
C49 H64 0.929 . S
C50 C49 1.362 . S
C50 C51 1.366 . S
C51 C48 1.365 . S
C51 C50 1.366 . S
C51 H65 0.930 . S
C52 C49 1.378 . S
C52 N53 1.315 . S
C52 H55 0.930 . S
N53 Co33 2.194 . S
N53 C48 1.328 . S
N53 C52 1.315 . S
H54 C48 0.929 . S
H55 C52 0.930 . S
H56 C44 0.929 . S
H57 C46 0.929 . S
O58 Co33 2.351 . S
O58 C61 1.244 . S
O59 Co33 2.155 . S
O59 C61 1.240 . S
O60 Co33 2.096 . S
O60 C41 1.247 . S
C61 O58 1.244 . S
C61 O59 1.240 . S
H62 C36 0.931 . S
H63 C45 0.931 . S
H64 C49 0.929 . S
H65 C51 0.930 . S
Co66 N70 2.148 . S
Co66 N76 2.128 . S
Co66 N86 2.194 . S
Co66 O91 2.351 . S
Co66 O92 2.155 . S
Co66 O93 2.096 . S
C67 N70 1.301 . S
C67 N71 1.328 . S
C67 H72 0.930 . S
C68 C69 1.333 . S
C68 N70 1.317 . S
C68 H73 0.930 . S
C69 C68 1.333 . S
C69 N71 1.350 . S
C69 H95 0.931 . S
N70 Co66 2.148 . S
N70 C67 1.301 . S
N70 C68 1.317 . S
N71 C67 1.328 . S
N71 C69 1.350 . S
H72 C67 0.930 . S
H73 C68 0.930 . S
C74 O75 1.224 . S
C74 O93 1.247 . S
O75 C74 1.224 . S
N76 Co66 2.128 . S
N76 C77 1.355 . S
N76 C79 1.311 . S
C77 N76 1.355 . S
C77 C78 1.363 . S
C77 H89 0.929 . S
C78 C77 1.363 . S
C78 N80 1.375 . S
C78 H96 0.931 . S
C79 N76 1.311 . S
C79 N80 1.347 . S
C79 H90 0.929 . S
N80 C78 1.375 . S
N80 C79 1.347 . S
C81 C84 1.365 . S
C81 N86 1.328 . S
C81 H87 0.929 . S
C82 C83 1.362 . S
C82 C85 1.378 . S
C82 H97 0.929 . S
C83 C82 1.362 . S
C83 C84 1.366 . S
C84 C81 1.365 . S
C84 C83 1.366 . S
C84 H98 0.930 . S
C85 C82 1.378 . S
C85 N86 1.315 . S
C85 H88 0.930 . S
N86 Co66 2.194 . S
N86 C81 1.328 . S
N86 C85 1.315 . S
H87 C81 0.929 . S
H88 C85 0.930 . S
H89 C77 0.929 . S
H90 C79 0.929 . S
O91 Co66 2.351 . S
O91 C94 1.244 . S
O92 Co66 2.155 . S
O92 C94 1.240 . S
O93 Co66 2.096 . S
O93 C74 1.247 . S
C94 O91 1.244 . S
C94 O92 1.240 . S
H95 C69 0.931 . S
H96 C78 0.931 . S
H97 C82 0.929 . S
H98 C84 0.930 . S
Co99 N103 2.148 . S
Co99 N109 2.128 . S
Co99 N119 2.194 . S
Co99 O124 2.351 . S
Co99 O125 2.155 . S
Co99 O126 2.096 . S
C100 N103 1.301 . S
C100 N104 1.328 . S
C100 H105 0.930 . S
C101 C102 1.333 . S
C101 N103 1.317 . S
C101 H106 0.930 . S
C102 C101 1.333 . S
C102 N104 1.350 . S
C102 H128 0.931 . S
N103 Co99 2.148 . S
N103 C100 1.301 . S
N103 C101 1.317 . S
N104 C100 1.328 . S
N104 C102 1.350 . S
H105 C100 0.930 . S
H106 C101 0.930 . S
C107 O108 1.224 . S
C107 O126 1.247 . S
O108 C107 1.224 . S
N109 Co99 2.128 . S
N109 C110 1.355 . S
N109 C112 1.311 . S
C110 N109 1.355 . S
C110 C111 1.363 . S
C110 H122 0.929 . S
C111 C110 1.363 . S
C111 N113 1.375 . S
C111 H129 0.931 . S
C112 N109 1.311 . S
C112 N113 1.347 . S
C112 H123 0.929 . S
N113 C111 1.375 . S
N113 C112 1.347 . S
C114 C117 1.365 . S
C114 N119 1.328 . S
C114 H120 0.929 . S
C115 C116 1.362 . S
C115 C118 1.378 . S
C115 H130 0.929 . S
C116 C115 1.362 . S
C116 C117 1.366 . S
C117 C114 1.365 . S
C117 C116 1.366 . S
C117 H131 0.930 . S
C118 C115 1.378 . S
C118 N119 1.315 . S
C118 H121 0.930 . S
N119 Co99 2.194 . S
N119 C114 1.328 . S
N119 C118 1.315 . S
H120 C114 0.929 . S
H121 C118 0.930 . S
H122 C110 0.929 . S
H123 C112 0.929 . S
O124 Co99 2.351 . S
O124 C127 1.244 . S
O125 Co99 2.155 . S
O125 C127 1.240 . S
O126 Co99 2.096 . S
O126 C107 1.247 . S
C127 O124 1.244 . S
C127 O125 1.240 . S
H128 C102 0.931 . S
H129 C111 0.931 . S
H130 C115 0.929 . S
H131 C117 0.930 . S
Co132 N136 2.148 . S
Co132 N142 2.128 . S
Co132 N152 2.194 . S
Co132 O157 2.351 . S
Co132 O158 2.155 . S
Co132 O159 2.096 . S
C133 N136 1.301 . S
C133 N137 1.328 . S
C133 H138 0.930 . S
C134 C135 1.333 . S
C134 N136 1.317 . S
C134 H139 0.930 . S
C135 C134 1.333 . S
C135 N137 1.350 . S
C135 H161 0.931 . S
N136 Co132 2.148 . S
N136 C133 1.301 . S
N136 C134 1.317 . S
N137 C133 1.328 . S
N137 C135 1.350 . S
H138 C133 0.930 . S
H139 C134 0.930 . S
C140 O141 1.224 . S
C140 O159 1.247 . S
O141 C140 1.224 . S
N142 Co132 2.128 . S
N142 C143 1.355 . S
N142 C145 1.311 . S
C143 N142 1.355 . S
C143 C144 1.363 . S
C143 H155 0.929 . S
C144 C143 1.363 . S
C144 N146 1.375 . S
C144 H162 0.931 . S
C145 N142 1.311 . S
C145 N146 1.347 . S
C145 H156 0.929 . S
N146 C144 1.375 . S
N146 C145 1.347 . S
C147 C150 1.365 . S
C147 N152 1.328 . S
C147 H153 0.929 . S
C148 C149 1.362 . S
C148 C151 1.378 . S
C148 H163 0.929 . S
C149 C148 1.362 . S
C149 C150 1.366 . S
C150 C147 1.365 . S
C150 C149 1.366 . S
C150 H164 0.930 . S
C151 C148 1.378 . S
C151 N152 1.315 . S
C151 H154 0.930 . S
N152 Co132 2.194 . S
N152 C147 1.328 . S
N152 C151 1.315 . S
H153 C147 0.929 . S
H154 C151 0.930 . S
H155 C143 0.929 . S
H156 C145 0.929 . S
O157 Co132 2.351 . S
O157 C160 1.244 . S
O158 Co132 2.155 . S
O158 C160 1.240 . S
O159 Co132 2.096 . S
O159 C140 1.247 . S
C160 O157 1.244 . S
C160 O158 1.240 . S
H161 C135 0.931 . S
H162 C144 0.931 . S
H163 C148 0.929 . S
H164 C150 0.930 . S
Co165 N169 2.148 . S
Co165 N175 2.128 . S
Co165 N185 2.194 . S
Co165 O190 2.351 . S
Co165 O191 2.155 . S
Co165 O192 2.096 . S
C166 N169 1.301 . S
C166 N170 1.328 . S
C166 H171 0.930 . S
C167 C168 1.333 . S
C167 N169 1.317 . S
C167 H172 0.930 . S
C168 C167 1.333 . S
C168 N170 1.350 . S
C168 H194 0.931 . S
N169 Co165 2.148 . S
N169 C166 1.301 . S
N169 C167 1.317 . S
N170 C166 1.328 . S
N170 C168 1.350 . S
H171 C166 0.930 . S
H172 C167 0.930 . S
C173 O174 1.224 . S
C173 O192 1.247 . S
O174 C173 1.224 . S
N175 Co165 2.128 . S
N175 C176 1.355 . S
N175 C178 1.311 . S
C176 N175 1.355 . S
C176 C177 1.363 . S
C176 H188 0.929 . S
C177 C176 1.363 . S
C177 N179 1.375 . S
C177 H195 0.931 . S
C178 N175 1.311 . S
C178 N179 1.347 . S
C178 H189 0.929 . S
N179 C177 1.375 . S
N179 C178 1.347 . S
C180 C183 1.365 . S
C180 N185 1.328 . S
C180 H186 0.929 . S
C181 C182 1.362 . S
C181 C184 1.378 . S
C181 H196 0.929 . S
C182 C181 1.362 . S
C182 C183 1.366 . S
C183 C180 1.365 . S
C183 C182 1.366 . S
C183 H197 0.930 . S
C184 C181 1.378 . S
C184 N185 1.315 . S
C184 H187 0.930 . S
N185 Co165 2.194 . S
N185 C180 1.328 . S
N185 C184 1.315 . S
H186 C180 0.929 . S
H187 C184 0.930 . S
H188 C176 0.929 . S
H189 C178 0.929 . S
O190 Co165 2.351 . S
O190 C193 1.244 . S
O191 Co165 2.155 . S
O191 C193 1.240 . S
O192 Co165 2.096 . S
O192 C173 1.247 . S
C193 O190 1.244 . S
C193 O191 1.240 . S
H194 C168 0.931 . S
H195 C177 0.931 . S
H196 C181 0.929 . S
H197 C183 0.930 . S
Co198 N202 2.148 . S
Co198 N208 2.128 . S
Co198 N218 2.194 . S
Co198 O223 2.351 . S
Co198 O224 2.155 . S
Co198 O225 2.096 . S
C199 N202 1.301 . S
C199 N203 1.328 . S
C199 H204 0.930 . S
C200 C201 1.333 . S
C200 N202 1.317 . S
C200 H205 0.930 . S
C201 C200 1.333 . S
C201 N203 1.350 . S
C201 H227 0.931 . S
N202 Co198 2.148 . S
N202 C199 1.301 . S
N202 C200 1.317 . S
N203 C199 1.328 . S
N203 C201 1.350 . S
H204 C199 0.930 . S
H205 C200 0.930 . S
C206 O207 1.224 . S
C206 O225 1.247 . S
O207 C206 1.224 . S
N208 Co198 2.128 . S
N208 C209 1.355 . S
N208 C211 1.311 . S
C209 N208 1.355 . S
C209 C210 1.363 . S
C209 H221 0.929 . S
C210 C209 1.363 . S
C210 N212 1.375 . S
C210 H228 0.931 . S
C211 N208 1.311 . S
C211 N212 1.347 . S
C211 H222 0.929 . S
N212 C210 1.375 . S
N212 C211 1.347 . S
C213 C216 1.365 . S
C213 N218 1.328 . S
C213 H219 0.929 . S
C214 C215 1.362 . S
C214 C217 1.378 . S
C214 H229 0.929 . S
C215 C214 1.362 . S
C215 C216 1.366 . S
C216 C213 1.365 . S
C216 C215 1.366 . S
C216 H230 0.930 . S
C217 C214 1.378 . S
C217 N218 1.315 . S
C217 H220 0.930 . S
N218 Co198 2.194 . S
N218 C213 1.328 . S
N218 C217 1.315 . S
H219 C213 0.929 . S
H220 C217 0.930 . S
H221 C209 0.929 . S
H222 C211 0.929 . S
O223 Co198 2.351 . S
O223 C226 1.244 . S
O224 Co198 2.155 . S
O224 C226 1.240 . S
O225 Co198 2.096 . S
O225 C206 1.247 . S
C226 O223 1.244 . S
C226 O224 1.240 . S
H227 C201 0.931 . S
H228 C210 0.931 . S
H229 C214 0.929 . S
H230 C216 0.930 . S
Co231 N235 2.148 . S
Co231 N241 2.128 . S
Co231 N251 2.194 . S
Co231 O256 2.351 . S
Co231 O257 2.155 . S
Co231 O258 2.096 . S
C232 N235 1.301 . S
C232 N236 1.328 . S
C232 H237 0.930 . S
C233 C234 1.333 . S
C233 N235 1.317 . S
C233 H238 0.930 . S
C234 C233 1.333 . S
C234 N236 1.350 . S
C234 H260 0.931 . S
N235 Co231 2.148 . S
N235 C232 1.301 . S
N235 C233 1.317 . S
N236 C232 1.328 . S
N236 C234 1.350 . S
H237 C232 0.930 . S
H238 C233 0.930 . S
C239 O240 1.224 . S
C239 O258 1.247 . S
O240 C239 1.224 . S
N241 Co231 2.128 . S
N241 C242 1.355 . S
N241 C244 1.311 . S
C242 N241 1.355 . S
C242 C243 1.363 . S
C242 H254 0.929 . S
C243 C242 1.363 . S
C243 N245 1.375 . S
C243 H261 0.931 . S
C244 N241 1.311 . S
C244 N245 1.347 . S
C244 H255 0.929 . S
N245 C243 1.375 . S
N245 C244 1.347 . S
C246 C249 1.365 . S
C246 N251 1.328 . S
C246 H252 0.929 . S
C247 C248 1.362 . S
C247 C250 1.378 . S
C247 H262 0.929 . S
C248 C247 1.362 . S
C248 C249 1.366 . S
C249 C246 1.365 . S
C249 C248 1.366 . S
C249 H263 0.930 . S
C250 C247 1.378 . S
C250 N251 1.315 . S
C250 H253 0.930 . S
N251 Co231 2.194 . S
N251 C246 1.328 . S
N251 C250 1.315 . S
H252 C246 0.929 . S
H253 C250 0.930 . S
H254 C242 0.929 . S
H255 C244 0.929 . S
O256 Co231 2.351 . S
O256 C259 1.244 . S
O257 Co231 2.155 . S
O257 C259 1.240 . S
O258 Co231 2.096 . S
O258 C239 1.247 . S
C259 O256 1.244 . S
C259 O257 1.240 . S
H260 C234 0.931 . S
H261 C243 0.931 . S
H262 C247 0.929 . S
H263 C249 0.930 . S
Co264 N268 2.148 . S
Co264 N274 2.128 . S
Co264 N284 2.194 . S
Co264 O289 2.351 . S
Co264 O290 2.155 . S
Co264 O291 2.096 . S
C265 N268 1.301 . S
C265 N269 1.328 . S
C265 H270 0.930 . S
C266 C267 1.333 . S
C266 N268 1.317 . S
C266 H271 0.930 . S
C267 C266 1.333 . S
C267 N269 1.350 . S
C267 H293 0.931 . S
N268 Co264 2.148 . S
N268 C265 1.301 . S
N268 C266 1.317 . S
N269 C265 1.328 . S
N269 C267 1.350 . S
H270 C265 0.930 . S
H271 C266 0.930 . S
C272 O273 1.224 . S
C272 O291 1.247 . S
O273 C272 1.224 . S
N274 Co264 2.128 . S
N274 C275 1.355 . S
N274 C277 1.311 . S
C275 N274 1.355 . S
C275 C276 1.363 . S
C275 H287 0.929 . S
C276 C275 1.363 . S
C276 N278 1.375 . S
C276 H294 0.931 . S
C277 N274 1.311 . S
C277 N278 1.347 . S
C277 H288 0.929 . S
N278 C276 1.375 . S
N278 C277 1.347 . S
C279 C282 1.365 . S
C279 N284 1.328 . S
C279 H285 0.929 . S
C280 C281 1.362 . S
C280 C283 1.378 . S
C280 H295 0.929 . S
C281 C280 1.362 . S
C281 C282 1.366 . S
C282 C279 1.365 . S
C282 C281 1.366 . S
C282 H296 0.930 . S
C283 C280 1.378 . S
C283 N284 1.315 . S
C283 H286 0.930 . S
N284 Co264 2.194 . S
N284 C279 1.328 . S
N284 C283 1.315 . S
H285 C279 0.929 . S
H286 C283 0.930 . S
H287 C275 0.929 . S
H288 C277 0.929 . S
O289 Co264 2.351 . S
O289 C292 1.244 . S
O290 Co264 2.155 . S
O290 C292 1.240 . S
O291 Co264 2.096 . S
O291 C272 1.247 . S
C292 O289 1.244 . S
C292 O290 1.240 . S
H293 C267 0.931 . S
H294 C276 0.931 . S
H295 C280 0.929 . S
H296 C282 0.930 . S
Co297 N301 2.148 . S
Co297 N307 2.128 . S
Co297 N317 2.194 . S
Co297 O322 2.351 . S
Co297 O323 2.155 . S
Co297 O324 2.096 . S
C298 N301 1.301 . S
C298 N302 1.328 . S
C298 H303 0.930 . S
C299 C300 1.333 . S
C299 N301 1.317 . S
C299 H304 0.930 . S
C300 C299 1.333 . S
C300 N302 1.350 . S
C300 H326 0.931 . S
N301 Co297 2.148 . S
N301 C298 1.301 . S
N301 C299 1.317 . S
N302 C298 1.328 . S
N302 C300 1.350 . S
H303 C298 0.930 . S
H304 C299 0.930 . S
C305 O306 1.224 . S
C305 O324 1.247 . S
O306 C305 1.224 . S
N307 Co297 2.128 . S
N307 C308 1.355 . S
N307 C310 1.311 . S
C308 N307 1.355 . S
C308 C309 1.363 . S
C308 H320 0.929 . S
C309 C308 1.363 . S
C309 N311 1.375 . S
C309 H327 0.931 . S
C310 N307 1.311 . S
C310 N311 1.347 . S
C310 H321 0.929 . S
N311 C309 1.375 . S
N311 C310 1.347 . S
C312 C315 1.365 . S
C312 N317 1.328 . S
C312 H318 0.929 . S
C313 C314 1.362 . S
C313 C316 1.378 . S
C313 H328 0.929 . S
C314 C313 1.362 . S
C314 C315 1.366 . S
C315 C312 1.365 . S
C315 C314 1.366 . S
C315 H329 0.930 . S
C316 C313 1.378 . S
C316 N317 1.315 . S
C316 H319 0.930 . S
N317 Co297 2.194 . S
N317 C312 1.328 . S
N317 C316 1.315 . S
H318 C312 0.929 . S
H319 C316 0.930 . S
H320 C308 0.929 . S
H321 C310 0.929 . S
O322 Co297 2.351 . S
O322 C325 1.244 . S
O323 Co297 2.155 . S
O323 C325 1.240 . S
O324 Co297 2.096 . S
O324 C305 1.247 . S
C325 O322 1.244 . S
C325 O323 1.240 . S
H326 C300 0.931 . S
H327 C309 0.931 . S
H328 C313 0.929 . S
H329 C315 0.930 . S
Co330 N334 2.148 . S
Co330 N340 2.128 . S
Co330 N350 2.194 . S
Co330 O355 2.351 . S
Co330 O356 2.155 . S
Co330 O357 2.096 . S
C331 N334 1.301 . S
C331 N335 1.328 . S
C331 H336 0.930 . S
C332 C333 1.333 . S
C332 N334 1.317 . S
C332 H337 0.930 . S
C333 C332 1.333 . S
C333 N335 1.350 . S
C333 H359 0.931 . S
N334 Co330 2.148 . S
N334 C331 1.301 . S
N334 C332 1.317 . S
N335 C331 1.328 . S
N335 C333 1.350 . S
H336 C331 0.930 . S
H337 C332 0.930 . S
C338 O339 1.224 . S
C338 O357 1.247 . S
O339 C338 1.224 . S
N340 Co330 2.128 . S
N340 C341 1.355 . S
N340 C343 1.311 . S
C341 N340 1.355 . S
C341 C342 1.363 . S
C341 H353 0.929 . S
C342 C341 1.363 . S
C342 N344 1.375 . S
C342 H360 0.931 . S
C343 N340 1.311 . S
C343 N344 1.347 . S
C343 H354 0.929 . S
N344 C342 1.375 . S
N344 C343 1.347 . S
C345 C348 1.365 . S
C345 N350 1.328 . S
C345 H351 0.929 . S
C346 C347 1.362 . S
C346 C349 1.378 . S
C346 H361 0.929 . S
C347 C346 1.362 . S
C347 C348 1.366 . S
C348 C345 1.365 . S
C348 C347 1.366 . S
C348 H362 0.930 . S
C349 C346 1.378 . S
C349 N350 1.315 . S
C349 H352 0.930 . S
N350 Co330 2.194 . S
N350 C345 1.328 . S
N350 C349 1.315 . S
H351 C345 0.929 . S
H352 C349 0.930 . S
H353 C341 0.929 . S
H354 C343 0.929 . S
O355 Co330 2.351 . S
O355 C358 1.244 . S
O356 Co330 2.155 . S
O356 C358 1.240 . S
O357 Co330 2.096 . S
O357 C338 1.247 . S
C358 O355 1.244 . S
C358 O356 1.240 . S
H359 C333 0.931 . S
H360 C342 0.931 . S
H361 C346 0.929 . S
H362 C348 0.930 . S
Co363 N367 2.148 . S
Co363 N373 2.128 . S
Co363 N383 2.194 . S
Co363 O388 2.351 . S
Co363 O389 2.155 . S
Co363 O390 2.096 . S
C364 N367 1.301 . S
C364 N368 1.328 . S
C364 H369 0.930 . S
C365 C366 1.333 . S
C365 N367 1.317 . S
C365 H370 0.930 . S
C366 C365 1.333 . S
C366 N368 1.350 . S
C366 H392 0.931 . S
N367 Co363 2.148 . S
N367 C364 1.301 . S
N367 C365 1.317 . S
N368 C364 1.328 . S
N368 C366 1.350 . S
H369 C364 0.930 . S
H370 C365 0.930 . S
C371 O372 1.224 . S
C371 O390 1.247 . S
O372 C371 1.224 . S
N373 Co363 2.128 . S
N373 C374 1.355 . S
N373 C376 1.311 . S
C374 N373 1.355 . S
C374 C375 1.363 . S
C374 H386 0.929 . S
C375 C374 1.363 . S
C375 N377 1.375 . S
C375 H393 0.931 . S
C376 N373 1.311 . S
C376 N377 1.347 . S
C376 H387 0.929 . S
N377 C375 1.375 . S
N377 C376 1.347 . S
C378 C381 1.365 . S
C378 N383 1.328 . S
C378 H384 0.929 . S
C379 C380 1.362 . S
C379 C382 1.378 . S
C379 H394 0.929 . S
C380 C379 1.362 . S
C380 C381 1.366 . S
C381 C378 1.365 . S
C381 C380 1.366 . S
C381 H395 0.930 . S
C382 C379 1.378 . S
C382 N383 1.315 . S
C382 H385 0.930 . S
N383 Co363 2.194 . S
N383 C378 1.328 . S
N383 C382 1.315 . S
H384 C378 0.929 . S
H385 C382 0.930 . S
H386 C374 0.929 . S
H387 C376 0.929 . S
O388 Co363 2.351 . S
O388 C391 1.244 . S
O389 Co363 2.155 . S
O389 C391 1.240 . S
O390 Co363 2.096 . S
O390 C371 1.247 . S
C391 O388 1.244 . S
C391 O389 1.240 . S
H392 C366 0.931 . S
H393 C375 0.931 . S
H394 C379 0.929 . S
H395 C381 0.930 . S
Co396 N400 2.148 . S
Co396 N406 2.128 . S
Co396 N416 2.194 . S
Co396 O421 2.351 . S
Co396 O422 2.155 . S
Co396 O423 2.096 . S
C397 N400 1.301 . S
C397 N401 1.328 . S
C397 H402 0.930 . S
C398 C399 1.333 . S
C398 N400 1.317 . S
C398 H403 0.930 . S
C399 C398 1.333 . S
C399 N401 1.350 . S
C399 H425 0.931 . S
N400 Co396 2.148 . S
N400 C397 1.301 . S
N400 C398 1.317 . S
N401 C397 1.328 . S
N401 C399 1.350 . S
H402 C397 0.930 . S
H403 C398 0.930 . S
C404 O405 1.224 . S
C404 O423 1.247 . S
O405 C404 1.224 . S
N406 Co396 2.128 . S
N406 C407 1.355 . S
N406 C409 1.311 . S
C407 N406 1.355 . S
C407 C408 1.363 . S
C407 H419 0.929 . S
C408 C407 1.363 . S
C408 N410 1.375 . S
C408 H426 0.931 . S
C409 N406 1.311 . S
C409 N410 1.347 . S
C409 H420 0.929 . S
N410 C408 1.375 . S
N410 C409 1.347 . S
C411 C414 1.365 . S
C411 N416 1.328 . S
C411 H417 0.929 . S
C412 C413 1.362 . S
C412 C415 1.378 . S
C412 H427 0.929 . S
C413 C412 1.362 . S
C413 C414 1.366 . S
C414 C411 1.365 . S
C414 C413 1.366 . S
C414 H428 0.930 . S
C415 C412 1.378 . S
C415 N416 1.315 . S
C415 H418 0.930 . S
N416 Co396 2.194 . S
N416 C411 1.328 . S
N416 C415 1.315 . S
H417 C411 0.929 . S
H418 C415 0.930 . S
H419 C407 0.929 . S
H420 C409 0.929 . S
O421 Co396 2.351 . S
O421 C424 1.244 . S
O422 Co396 2.155 . S
O422 C424 1.240 . S
O423 Co396 2.096 . S
O423 C404 1.247 . S
C424 O421 1.244 . S
C424 O422 1.240 . S
H425 C399 0.931 . S
H426 C408 0.931 . S
H427 C412 0.929 . S
H428 C414 0.930 . S
Co429 N433 2.148 . S
Co429 N439 2.128 . S
Co429 N449 2.194 . S
Co429 O454 2.351 . S
Co429 O455 2.155 . S
Co429 O456 2.096 . S
C430 N433 1.301 . S
C430 N434 1.328 . S
C430 H435 0.930 . S
C431 C432 1.333 . S
C431 N433 1.317 . S
C431 H436 0.930 . S
C432 C431 1.333 . S
C432 N434 1.350 . S
C432 H458 0.931 . S
N433 Co429 2.148 . S
N433 C430 1.301 . S
N433 C431 1.317 . S
N434 C430 1.328 . S
N434 C432 1.350 . S
H435 C430 0.930 . S
H436 C431 0.930 . S
C437 O438 1.224 . S
C437 O456 1.247 . S
O438 C437 1.224 . S
N439 Co429 2.128 . S
N439 C440 1.355 . S
N439 C442 1.311 . S
C440 N439 1.355 . S
C440 C441 1.363 . S
C440 H452 0.929 . S
C441 C440 1.363 . S
C441 N443 1.375 . S
C441 H459 0.931 . S
C442 N439 1.311 . S
C442 N443 1.347 . S
C442 H453 0.929 . S
N443 C441 1.375 . S
N443 C442 1.347 . S
C444 C447 1.365 . S
C444 N449 1.328 . S
C444 H450 0.929 . S
C445 C446 1.362 . S
C445 C448 1.378 . S
C445 H460 0.929 . S
C446 C445 1.362 . S
C446 C447 1.366 . S
C447 C444 1.365 . S
C447 C446 1.366 . S
C447 H461 0.930 . S
C448 C445 1.378 . S
C448 N449 1.315 . S
C448 H451 0.930 . S
N449 Co429 2.194 . S
N449 C444 1.328 . S
N449 C448 1.315 . S
H450 C444 0.929 . S
H451 C448 0.930 . S
H452 C440 0.929 . S
H453 C442 0.929 . S
O454 Co429 2.351 . S
O454 C457 1.244 . S
O455 Co429 2.155 . S
O455 C457 1.240 . S
O456 Co429 2.096 . S
O456 C437 1.247 . S
C457 O454 1.244 . S
C457 O455 1.240 . S
H458 C432 0.931 . S
H459 C441 0.931 . S
H460 C445 0.929 . S
H461 C447 0.930 . S
Co462 N466 2.148 . S
Co462 N472 2.128 . S
Co462 N482 2.194 . S
Co462 O487 2.351 . S
Co462 O488 2.155 . S
Co462 O489 2.096 . S
C463 N466 1.301 . S
C463 N467 1.328 . S
C463 H468 0.930 . S
C464 C465 1.333 . S
C464 N466 1.317 . S
C464 H469 0.930 . S
C465 C464 1.333 . S
C465 N467 1.350 . S
C465 H491 0.931 . S
N466 Co462 2.148 . S
N466 C463 1.301 . S
N466 C464 1.317 . S
N467 C463 1.328 . S
N467 C465 1.350 . S
H468 C463 0.930 . S
H469 C464 0.930 . S
C470 O471 1.224 . S
C470 O489 1.247 . S
O471 C470 1.224 . S
N472 Co462 2.128 . S
N472 C473 1.355 . S
N472 C475 1.311 . S
C473 N472 1.355 . S
C473 C474 1.363 . S
C473 H485 0.929 . S
C474 C473 1.363 . S
C474 N476 1.375 . S
C474 H492 0.931 . S
C475 N472 1.311 . S
C475 N476 1.347 . S
C475 H486 0.929 . S
N476 C474 1.375 . S
N476 C475 1.347 . S
C477 C480 1.365 . S
C477 N482 1.328 . S
C477 H483 0.929 . S
C478 C479 1.362 . S
C478 C481 1.378 . S
C478 H493 0.929 . S
C479 C478 1.362 . S
C479 C480 1.366 . S
C480 C477 1.365 . S
C480 C479 1.366 . S
C480 H494 0.930 . S
C481 C478 1.378 . S
C481 N482 1.315 . S
C481 H484 0.930 . S
N482 Co462 2.194 . S
N482 C477 1.328 . S
N482 C481 1.315 . S
H483 C477 0.929 . S
H484 C481 0.930 . S
H485 C473 0.929 . S
H486 C475 0.929 . S
O487 Co462 2.351 . S
O487 C490 1.244 . S
O488 Co462 2.155 . S
O488 C490 1.240 . S
O489 Co462 2.096 . S
O489 C470 1.247 . S
C490 O487 1.244 . S
C490 O488 1.240 . S
H491 C465 0.931 . S
H492 C474 0.931 . S
H493 C478 0.929 . S
H494 C480 0.930 . S
Co495 N499 2.148 . S
Co495 N505 2.128 . S
Co495 N515 2.194 . S
Co495 O520 2.351 . S
Co495 O521 2.155 . S
Co495 O522 2.096 . S
C496 N499 1.301 . S
C496 N500 1.328 . S
C496 H501 0.930 . S
C497 C498 1.333 . S
C497 N499 1.317 . S
C497 H502 0.930 . S
C498 C497 1.333 . S
C498 N500 1.350 . S
C498 H524 0.931 . S
N499 Co495 2.148 . S
N499 C496 1.301 . S
N499 C497 1.317 . S
N500 C496 1.328 . S
N500 C498 1.350 . S
H501 C496 0.930 . S
H502 C497 0.930 . S
C503 O504 1.224 . S
C503 O522 1.247 . S
O504 C503 1.224 . S
N505 Co495 2.128 . S
N505 C506 1.355 . S
N505 C508 1.311 . S
C506 N505 1.355 . S
C506 C507 1.363 . S
C506 H518 0.929 . S
C507 C506 1.363 . S
C507 N509 1.375 . S
C507 H525 0.931 . S
C508 N505 1.311 . S
C508 N509 1.347 . S
C508 H519 0.929 . S
N509 C507 1.375 . S
N509 C508 1.347 . S
C510 C513 1.365 . S
C510 N515 1.328 . S
C510 H516 0.929 . S
C511 C512 1.362 . S
C511 C514 1.378 . S
C511 H526 0.929 . S
C512 C511 1.362 . S
C512 C513 1.366 . S
C513 C510 1.365 . S
C513 C512 1.366 . S
C513 H527 0.930 . S
C514 C511 1.378 . S
C514 N515 1.315 . S
C514 H517 0.930 . S
N515 Co495 2.194 . S
N515 C510 1.328 . S
N515 C514 1.315 . S
H516 C510 0.929 . S
H517 C514 0.930 . S
H518 C506 0.929 . S
H519 C508 0.929 . S
O520 Co495 2.351 . S
O520 C523 1.244 . S
O521 Co495 2.155 . S
O521 C523 1.240 . S
O522 Co495 2.096 . S
O522 C503 1.247 . S
C523 O520 1.244 . S
C523 O521 1.240 . S
H524 C498 0.931 . S
H525 C507 0.931 . S
H526 C511 0.929 . S
H527 C513 0.930 . S
Co528 N532 2.148 . S
Co528 N538 2.128 . S
Co528 N548 2.194 . S
Co528 O553 2.351 . S
Co528 O554 2.155 . S
Co528 O555 2.096 . S
C529 N532 1.301 . S
C529 N533 1.328 . S
C529 H534 0.930 . S
C530 C531 1.333 . S
C530 N532 1.317 . S
C530 H535 0.930 . S
C531 C530 1.333 . S
C531 N533 1.350 . S
C531 H557 0.931 . S
N532 Co528 2.148 . S
N532 C529 1.301 . S
N532 C530 1.317 . S
N533 C529 1.328 . S
N533 C531 1.350 . S
H534 C529 0.930 . S
H535 C530 0.930 . S
C536 O537 1.224 . S
C536 O555 1.247 . S
O537 C536 1.224 . S
N538 Co528 2.128 . S
N538 C539 1.355 . S
N538 C541 1.311 . S
C539 N538 1.355 . S
C539 C540 1.363 . S
C539 H551 0.929 . S
C540 C539 1.363 . S
C540 N542 1.375 . S
C540 H558 0.931 . S
C541 N538 1.311 . S
C541 N542 1.347 . S
C541 H552 0.929 . S
N542 C540 1.375 . S
N542 C541 1.347 . S
C543 C546 1.365 . S
C543 N548 1.328 . S
C543 H549 0.929 . S
C544 C545 1.362 . S
C544 C547 1.378 . S
C544 H559 0.929 . S
C545 C544 1.362 . S
C545 C546 1.366 . S
C546 C543 1.365 . S
C546 C545 1.366 . S
C546 H560 0.930 . S
C547 C544 1.378 . S
C547 N548 1.315 . S
C547 H550 0.930 . S
N548 Co528 2.194 . S
N548 C543 1.328 . S
N548 C547 1.315 . S
H549 C543 0.929 . S
H550 C547 0.930 . S
H551 C539 0.929 . S
H552 C541 0.929 . S
O553 Co528 2.351 . S
O553 C556 1.244 . S
O554 Co528 2.155 . S
O554 C556 1.240 . S
O555 Co528 2.096 . S
O555 C536 1.247 . S
C556 O553 1.244 . S
C556 O554 1.240 . S
H557 C531 0.931 . S
H558 C540 0.931 . S
H559 C544 0.929 . S
H560 C546 0.930 . S
Co561 N565 2.148 . S
Co561 N571 2.128 . S
Co561 N581 2.194 . S
Co561 O586 2.351 . S
Co561 O587 2.155 . S
Co561 O588 2.096 . S
C562 N565 1.301 . S
C562 N566 1.328 . S
C562 H567 0.930 . S
C563 C564 1.333 . S
C563 N565 1.317 . S
C563 H568 0.930 . S
C564 C563 1.333 . S
C564 N566 1.350 . S
C564 H590 0.931 . S
N565 Co561 2.148 . S
N565 C562 1.301 . S
N565 C563 1.317 . S
N566 C562 1.328 . S
N566 C564 1.350 . S
H567 C562 0.930 . S
H568 C563 0.930 . S
C569 O570 1.224 . S
C569 O588 1.247 . S
O570 C569 1.224 . S
N571 Co561 2.128 . S
N571 C572 1.355 . S
N571 C574 1.311 . S
C572 N571 1.355 . S
C572 C573 1.363 . S
C572 H584 0.929 . S
C573 C572 1.363 . S
C573 N575 1.375 . S
C573 H591 0.931 . S
C574 N571 1.311 . S
C574 N575 1.347 . S
C574 H585 0.929 . S
N575 C573 1.375 . S
N575 C574 1.347 . S
C576 C579 1.365 . S
C576 N581 1.328 . S
C576 H582 0.929 . S
C577 C578 1.362 . S
C577 C580 1.378 . S
C577 H592 0.929 . S
C578 C577 1.362 . S
C578 C579 1.366 . S
C579 C576 1.365 . S
C579 C578 1.366 . S
C579 H593 0.930 . S
C580 C577 1.378 . S
C580 N581 1.315 . S
C580 H583 0.930 . S
N581 Co561 2.194 . S
N581 C576 1.328 . S
N581 C580 1.315 . S
H582 C576 0.929 . S
H583 C580 0.930 . S
H584 C572 0.929 . S
H585 C574 0.929 . S
O586 Co561 2.351 . S
O586 C589 1.244 . S
O587 Co561 2.155 . S
O587 C589 1.240 . S
O588 Co561 2.096 . S
O588 C569 1.247 . S
C589 O586 1.244 . S
C589 O587 1.240 . S
H590 C564 0.931 . S
H591 C573 0.931 . S
H592 C577 0.929 . S
H593 C579 0.930 . S
Co594 N598 2.148 . S
Co594 N604 2.128 . S
Co594 N614 2.194 . S
Co594 O619 2.351 . S
Co594 O620 2.155 . S
Co594 O621 2.096 . S
C595 N598 1.301 . S
C595 N599 1.328 . S
C595 H600 0.930 . S
C596 C597 1.333 . S
C596 N598 1.317 . S
C596 H601 0.930 . S
C597 C596 1.333 . S
C597 N599 1.350 . S
C597 H623 0.931 . S
N598 Co594 2.148 . S
N598 C595 1.301 . S
N598 C596 1.317 . S
N599 C595 1.328 . S
N599 C597 1.350 . S
H600 C595 0.930 . S
H601 C596 0.930 . S
C602 O603 1.224 . S
C602 O621 1.247 . S
O603 C602 1.224 . S
N604 Co594 2.128 . S
N604 C605 1.355 . S
N604 C607 1.311 . S
C605 N604 1.355 . S
C605 C606 1.363 . S
C605 H617 0.929 . S
C606 C605 1.363 . S
C606 N608 1.375 . S
C606 H624 0.931 . S
C607 N604 1.311 . S
C607 N608 1.347 . S
C607 H618 0.929 . S
N608 C606 1.375 . S
N608 C607 1.347 . S
C609 C612 1.365 . S
C609 N614 1.328 . S
C609 H615 0.929 . S
C610 C611 1.362 . S
C610 C613 1.378 . S
C610 H625 0.929 . S
C611 C610 1.362 . S
C611 C612 1.366 . S
C612 C609 1.365 . S
C612 C611 1.366 . S
C612 H626 0.930 . S
C613 C610 1.378 . S
C613 N614 1.315 . S
C613 H616 0.930 . S
N614 Co594 2.194 . S
N614 C609 1.328 . S
N614 C613 1.315 . S
H615 C609 0.929 . S
H616 C613 0.930 . S
H617 C605 0.929 . S
H618 C607 0.929 . S
O619 Co594 2.351 . S
O619 C622 1.244 . S
O620 Co594 2.155 . S
O620 C622 1.240 . S
O621 Co594 2.096 . S
O621 C602 1.247 . S
C622 O619 1.244 . S
C622 O620 1.240 . S
H623 C597 0.931 . S
H624 C606 0.931 . S
H625 C610 0.929 . S
H626 C612 0.930 . S
Co627 N631 2.148 . S
Co627 N637 2.128 . S
Co627 N647 2.194 . S
Co627 O652 2.351 . S
Co627 O653 2.155 . S
Co627 O654 2.096 . S
C628 N631 1.301 . S
C628 N632 1.328 . S
C628 H633 0.930 . S
C629 C630 1.333 . S
C629 N631 1.317 . S
C629 H634 0.930 . S
C630 C629 1.333 . S
C630 N632 1.350 . S
C630 H656 0.931 . S
N631 Co627 2.148 . S
N631 C628 1.301 . S
N631 C629 1.317 . S
N632 C628 1.328 . S
N632 C630 1.350 . S
H633 C628 0.930 . S
H634 C629 0.930 . S
C635 O636 1.224 . S
C635 O654 1.247 . S
O636 C635 1.224 . S
N637 Co627 2.128 . S
N637 C638 1.355 . S
N637 C640 1.311 . S
C638 N637 1.355 . S
C638 C639 1.363 . S
C638 H650 0.929 . S
C639 C638 1.363 . S
C639 N641 1.375 . S
C639 H657 0.931 . S
C640 N637 1.311 . S
C640 N641 1.347 . S
C640 H651 0.929 . S
N641 C639 1.375 . S
N641 C640 1.347 . S
C642 C645 1.365 . S
C642 N647 1.328 . S
C642 H648 0.929 . S
C643 C644 1.362 . S
C643 C646 1.378 . S
C643 H658 0.929 . S
C644 C643 1.362 . S
C644 C645 1.366 . S
C645 C642 1.365 . S
C645 C644 1.366 . S
C645 H659 0.930 . S
C646 C643 1.378 . S
C646 N647 1.315 . S
C646 H649 0.930 . S
N647 Co627 2.194 . S
N647 C642 1.328 . S
N647 C646 1.315 . S
H648 C642 0.929 . S
H649 C646 0.930 . S
H650 C638 0.929 . S
H651 C640 0.929 . S
O652 Co627 2.351 . S
O652 C655 1.244 . S
O653 Co627 2.155 . S
O653 C655 1.240 . S
O654 Co627 2.096 . S
O654 C635 1.247 . S
C655 O652 1.244 . S
C655 O653 1.240 . S
H656 C630 0.931 . S
H657 C639 0.931 . S
H658 C643 0.929 . S
H659 C645 0.930 . S
Co660 N664 2.148 . S
Co660 N670 2.128 . S
Co660 N680 2.194 . S
Co660 O685 2.351 . S
Co660 O686 2.155 . S
Co660 O687 2.096 . S
C661 N664 1.301 . S
C661 N665 1.328 . S
C661 H666 0.930 . S
C662 C663 1.333 . S
C662 N664 1.317 . S
C662 H667 0.930 . S
C663 C662 1.333 . S
C663 N665 1.350 . S
C663 H689 0.931 . S
N664 Co660 2.148 . S
N664 C661 1.301 . S
N664 C662 1.317 . S
N665 C661 1.328 . S
N665 C663 1.350 . S
H666 C661 0.930 . S
H667 C662 0.930 . S
C668 O669 1.224 . S
C668 O687 1.247 . S
O669 C668 1.224 . S
N670 Co660 2.128 . S
N670 C671 1.355 . S
N670 C673 1.311 . S
C671 N670 1.355 . S
C671 C672 1.363 . S
C671 H683 0.929 . S
C672 C671 1.363 . S
C672 N674 1.375 . S
C672 H690 0.931 . S
C673 N670 1.311 . S
C673 N674 1.347 . S
C673 H684 0.929 . S
N674 C672 1.375 . S
N674 C673 1.347 . S
C675 C678 1.365 . S
C675 N680 1.328 . S
C675 H681 0.929 . S
C676 C677 1.362 . S
C676 C679 1.378 . S
C676 H691 0.929 . S
C677 C676 1.362 . S
C677 C678 1.366 . S
C678 C675 1.365 . S
C678 C677 1.366 . S
C678 H692 0.930 . S
C679 C676 1.378 . S
C679 N680 1.315 . S
C679 H682 0.930 . S
N680 Co660 2.194 . S
N680 C675 1.328 . S
N680 C679 1.315 . S
H681 C675 0.929 . S
H682 C679 0.930 . S
H683 C671 0.929 . S
H684 C673 0.929 . S
O685 Co660 2.351 . S
O685 C688 1.244 . S
O686 Co660 2.155 . S
O686 C688 1.240 . S
O687 Co660 2.096 . S
O687 C668 1.247 . S
C688 O685 1.244 . S
C688 O686 1.240 . S
H689 C663 0.931 . S
H690 C672 0.931 . S
H691 C676 0.929 . S
H692 C678 0.930 . S
Co693 N697 2.148 . S
Co693 N703 2.128 . S
Co693 N713 2.194 . S
Co693 O718 2.351 . S
Co693 O719 2.155 . S
Co693 O720 2.096 . S
C694 N697 1.301 . S
C694 N698 1.328 . S
C694 H699 0.930 . S
C695 C696 1.333 . S
C695 N697 1.317 . S
C695 H700 0.930 . S
C696 C695 1.333 . S
C696 N698 1.350 . S
C696 H722 0.931 . S
N697 Co693 2.148 . S
N697 C694 1.301 . S
N697 C695 1.317 . S
N698 C694 1.328 . S
N698 C696 1.350 . S
H699 C694 0.930 . S
H700 C695 0.930 . S
C701 O702 1.224 . S
C701 O720 1.247 . S
O702 C701 1.224 . S
N703 Co693 2.128 . S
N703 C704 1.355 . S
N703 C706 1.311 . S
C704 N703 1.355 . S
C704 C705 1.363 . S
C704 H716 0.929 . S
C705 C704 1.363 . S
C705 N707 1.375 . S
C705 H723 0.931 . S
C706 N703 1.311 . S
C706 N707 1.347 . S
C706 H717 0.929 . S
N707 C705 1.375 . S
N707 C706 1.347 . S
C708 C711 1.365 . S
C708 N713 1.328 . S
C708 H714 0.929 . S
C709 C710 1.362 . S
C709 C712 1.378 . S
C709 H724 0.929 . S
C710 C709 1.362 . S
C710 C711 1.366 . S
C711 C708 1.365 . S
C711 C710 1.366 . S
C711 H725 0.930 . S
C712 C709 1.378 . S
C712 N713 1.315 . S
C712 H715 0.930 . S
N713 Co693 2.194 . S
N713 C708 1.328 . S
N713 C712 1.315 . S
H714 C708 0.929 . S
H715 C712 0.930 . S
H716 C704 0.929 . S
H717 C706 0.929 . S
O718 Co693 2.351 . S
O718 C721 1.244 . S
O719 Co693 2.155 . S
O719 C721 1.240 . S
O720 Co693 2.096 . S
O720 C701 1.247 . S
C721 O718 1.244 . S
C721 O719 1.240 . S
H722 C696 0.931 . S
H723 C705 0.931 . S
H724 C709 0.929 . S
H725 C711 0.930 . S
Co726 N730 2.148 . S
Co726 N736 2.128 . S
Co726 N746 2.194 . S
Co726 O751 2.351 . S
Co726 O752 2.155 . S
Co726 O753 2.096 . S
C727 N730 1.301 . S
C727 N731 1.328 . S
C727 H732 0.930 . S
C728 C729 1.333 . S
C728 N730 1.317 . S
C728 H733 0.930 . S
C729 C728 1.333 . S
C729 N731 1.350 . S
C729 H755 0.931 . S
N730 Co726 2.148 . S
N730 C727 1.301 . S
N730 C728 1.317 . S
N731 C727 1.328 . S
N731 C729 1.350 . S
H732 C727 0.930 . S
H733 C728 0.930 . S
C734 O735 1.224 . S
C734 O753 1.247 . S
O735 C734 1.224 . S
N736 Co726 2.128 . S
N736 C737 1.355 . S
N736 C739 1.311 . S
C737 N736 1.355 . S
C737 C738 1.363 . S
C737 H749 0.929 . S
C738 C737 1.363 . S
C738 N740 1.375 . S
C738 H756 0.931 . S
C739 N736 1.311 . S
C739 N740 1.347 . S
C739 H750 0.929 . S
N740 C738 1.375 . S
N740 C739 1.347 . S
C741 C744 1.365 . S
C741 N746 1.328 . S
C741 H747 0.929 . S
C742 C743 1.362 . S
C742 C745 1.378 . S
C742 H757 0.929 . S
C743 C742 1.362 . S
C743 C744 1.366 . S
C744 C741 1.365 . S
C744 C743 1.366 . S
C744 H758 0.930 . S
C745 C742 1.378 . S
C745 N746 1.315 . S
C745 H748 0.930 . S
N746 Co726 2.194 . S
N746 C741 1.328 . S
N746 C745 1.315 . S
H747 C741 0.929 . S
H748 C745 0.930 . S
H749 C737 0.929 . S
H750 C739 0.929 . S
O751 Co726 2.351 . S
O751 C754 1.244 . S
O752 Co726 2.155 . S
O752 C754 1.240 . S
O753 Co726 2.096 . S
O753 C734 1.247 . S
C754 O751 1.244 . S
C754 O752 1.240 . S
H755 C729 0.931 . S
H756 C738 0.931 . S
H757 C742 0.929 . S
H758 C744 0.930 . S
Co759 N763 2.148 . S
Co759 N769 2.128 . S
Co759 N779 2.194 . S
Co759 O784 2.351 . S
Co759 O785 2.155 . S
Co759 O786 2.096 . S
C760 N763 1.301 . S
C760 N764 1.328 . S
C760 H765 0.930 . S
C761 C762 1.333 . S
C761 N763 1.317 . S
C761 H766 0.930 . S
C762 C761 1.333 . S
C762 N764 1.350 . S
C762 H788 0.931 . S
N763 Co759 2.148 . S
N763 C760 1.301 . S
N763 C761 1.317 . S
N764 C760 1.328 . S
N764 C762 1.350 . S
H765 C760 0.930 . S
H766 C761 0.930 . S
C767 O768 1.224 . S
C767 O786 1.247 . S
O768 C767 1.224 . S
N769 Co759 2.128 . S
N769 C770 1.355 . S
N769 C772 1.311 . S
C770 N769 1.355 . S
C770 C771 1.363 . S
C770 H782 0.929 . S
C771 C770 1.363 . S
C771 N773 1.375 . S
C771 H789 0.931 . S
C772 N769 1.311 . S
C772 N773 1.347 . S
C772 H783 0.929 . S
N773 C771 1.375 . S
N773 C772 1.347 . S
C774 C777 1.365 . S
C774 N779 1.328 . S
C774 H780 0.929 . S
C775 C776 1.362 . S
C775 C778 1.378 . S
C775 H790 0.929 . S
C776 C775 1.362 . S
C776 C777 1.366 . S
C777 C774 1.365 . S
C777 C776 1.366 . S
C777 H791 0.930 . S
C778 C775 1.378 . S
C778 N779 1.315 . S
C778 H781 0.930 . S
N779 Co759 2.194 . S
N779 C774 1.328 . S
N779 C778 1.315 . S
H780 C774 0.929 . S
H781 C778 0.930 . S
H782 C770 0.929 . S
H783 C772 0.929 . S
O784 Co759 2.351 . S
O784 C787 1.244 . S
O785 Co759 2.155 . S
O785 C787 1.240 . S
O786 Co759 2.096 . S
O786 C767 1.247 . S
C787 O784 1.244 . S
C787 O785 1.240 . S
H788 C762 0.931 . S
H789 C771 0.931 . S
H790 C775 0.929 . S
H791 C777 0.930 . S
Co792 N796 2.148 . S
Co792 N802 2.128 . S
Co792 N812 2.194 . S
Co792 O817 2.351 . S
Co792 O818 2.155 . S
Co792 O819 2.096 . S
C793 N796 1.301 . S
C793 N797 1.328 . S
C793 H798 0.930 . S
C794 C795 1.333 . S
C794 N796 1.317 . S
C794 H799 0.930 . S
C795 C794 1.333 . S
C795 N797 1.350 . S
C795 H821 0.931 . S
N796 Co792 2.148 . S
N796 C793 1.301 . S
N796 C794 1.317 . S
N797 C793 1.328 . S
N797 C795 1.350 . S
H798 C793 0.930 . S
H799 C794 0.930 . S
C800 O801 1.224 . S
C800 O819 1.247 . S
O801 C800 1.224 . S
N802 Co792 2.128 . S
N802 C803 1.355 . S
N802 C805 1.311 . S
C803 N802 1.355 . S
C803 C804 1.363 . S
C803 H815 0.929 . S
C804 C803 1.363 . S
C804 N806 1.375 . S
C804 H822 0.931 . S
C805 N802 1.311 . S
C805 N806 1.347 . S
C805 H816 0.929 . S
N806 C804 1.375 . S
N806 C805 1.347 . S
C807 C810 1.365 . S
C807 N812 1.328 . S
C807 H813 0.929 . S
C808 C809 1.362 . S
C808 C811 1.378 . S
C808 H823 0.929 . S
C809 C808 1.362 . S
C809 C810 1.366 . S
C810 C807 1.365 . S
C810 C809 1.366 . S
C810 H824 0.930 . S
C811 C808 1.378 . S
C811 N812 1.315 . S
C811 H814 0.930 . S
N812 Co792 2.194 . S
N812 C807 1.328 . S
N812 C811 1.315 . S
H813 C807 0.929 . S
H814 C811 0.930 . S
H815 C803 0.929 . S
H816 C805 0.929 . S
O817 Co792 2.351 . S
O817 C820 1.244 . S
O818 Co792 2.155 . S
O818 C820 1.240 . S
O819 Co792 2.096 . S
O819 C800 1.247 . S
C820 O817 1.244 . S
C820 O818 1.240 . S
H821 C795 0.931 . S
H822 C804 0.931 . S
H823 C808 0.929 . S
H824 C810 0.930 . S
Co825 N829 2.148 . S
Co825 N835 2.128 . S
Co825 N845 2.194 . S
Co825 O850 2.351 . S
Co825 O851 2.155 . S
Co825 O852 2.096 . S
C826 N829 1.301 . S
C826 N830 1.328 . S
C826 H831 0.930 . S
C827 C828 1.333 . S
C827 N829 1.317 . S
C827 H832 0.930 . S
C828 C827 1.333 . S
C828 N830 1.350 . S
C828 H854 0.931 . S
N829 Co825 2.148 . S
N829 C826 1.301 . S
N829 C827 1.317 . S
N830 C826 1.328 . S
N830 C828 1.350 . S
H831 C826 0.930 . S
H832 C827 0.930 . S
C833 O834 1.224 . S
C833 O852 1.247 . S
O834 C833 1.224 . S
N835 Co825 2.128 . S
N835 C836 1.355 . S
N835 C838 1.311 . S
C836 N835 1.355 . S
C836 C837 1.363 . S
C836 H848 0.929 . S
C837 C836 1.363 . S
C837 N839 1.375 . S
C837 H855 0.931 . S
C838 N835 1.311 . S
C838 N839 1.347 . S
C838 H849 0.929 . S
N839 C837 1.375 . S
N839 C838 1.347 . S
C840 C843 1.365 . S
C840 N845 1.328 . S
C840 H846 0.929 . S
C841 C842 1.362 . S
C841 C844 1.378 . S
C841 H856 0.929 . S
C842 C841 1.362 . S
C842 C843 1.366 . S
C843 C840 1.365 . S
C843 C842 1.366 . S
C843 H857 0.930 . S
C844 C841 1.378 . S
C844 N845 1.315 . S
C844 H847 0.930 . S
N845 Co825 2.194 . S
N845 C840 1.328 . S
N845 C844 1.315 . S
H846 C840 0.929 . S
H847 C844 0.930 . S
H848 C836 0.929 . S
H849 C838 0.929 . S
O850 Co825 2.351 . S
O850 C853 1.244 . S
O851 Co825 2.155 . S
O851 C853 1.240 . S
O852 Co825 2.096 . S
O852 C833 1.247 . S
C853 O850 1.244 . S
C853 O851 1.240 . S
H854 C828 0.931 . S
H855 C837 0.931 . S
H856 C841 0.929 . S
H857 C843 0.930 . S
Co858 N862 2.148 . S
Co858 N868 2.128 . S
Co858 N878 2.194 . S
Co858 O883 2.351 . S
Co858 O884 2.155 . S
Co858 O885 2.096 . S
C859 N862 1.301 . S
C859 N863 1.328 . S
C859 H864 0.930 . S
C860 C861 1.333 . S
C860 N862 1.317 . S
C860 H865 0.930 . S
C861 C860 1.333 . S
C861 N863 1.350 . S
C861 H887 0.931 . S
N862 Co858 2.148 . S
N862 C859 1.301 . S
N862 C860 1.317 . S
N863 C859 1.328 . S
N863 C861 1.350 . S
H864 C859 0.930 . S
H865 C860 0.930 . S
C866 O867 1.224 . S
C866 O885 1.247 . S
O867 C866 1.224 . S
N868 Co858 2.128 . S
N868 C869 1.355 . S
N868 C871 1.311 . S
C869 N868 1.355 . S
C869 C870 1.363 . S
C869 H881 0.929 . S
C870 C869 1.363 . S
C870 N872 1.375 . S
C870 H888 0.931 . S
C871 N868 1.311 . S
C871 N872 1.347 . S
C871 H882 0.929 . S
N872 C870 1.375 . S
N872 C871 1.347 . S
C873 C876 1.365 . S
C873 N878 1.328 . S
C873 H879 0.929 . S
C874 C875 1.362 . S
C874 C877 1.378 . S
C874 H889 0.929 . S
C875 C874 1.362 . S
C875 C876 1.366 . S
C876 C873 1.365 . S
C876 C875 1.366 . S
C876 H890 0.930 . S
C877 C874 1.378 . S
C877 N878 1.315 . S
C877 H880 0.930 . S
N878 Co858 2.194 . S
N878 C873 1.328 . S
N878 C877 1.315 . S
H879 C873 0.929 . S
H880 C877 0.930 . S
H881 C869 0.929 . S
H882 C871 0.929 . S
O883 Co858 2.351 . S
O883 C886 1.244 . S
O884 Co858 2.155 . S
O884 C886 1.240 . S
O885 Co858 2.096 . S
O885 C866 1.247 . S
C886 O883 1.244 . S
C886 O884 1.240 . S
H887 C861 0.931 . S
H888 C870 0.931 . S
H889 C874 0.929 . S
H890 C876 0.930 . S
Co891 N895 2.148 . S
Co891 N901 2.128 . S
Co891 N911 2.194 . S
Co891 O916 2.351 . S
Co891 O917 2.155 . S
Co891 O918 2.096 . S
C892 N895 1.301 . S
C892 N896 1.328 . S
C892 H897 0.930 . S
C893 C894 1.333 . S
C893 N895 1.317 . S
C893 H898 0.930 . S
C894 C893 1.333 . S
C894 N896 1.350 . S
C894 H920 0.931 . S
N895 Co891 2.148 . S
N895 C892 1.301 . S
N895 C893 1.317 . S
N896 C892 1.328 . S
N896 C894 1.350 . S
H897 C892 0.930 . S
H898 C893 0.930 . S
C899 O900 1.224 . S
C899 O918 1.247 . S
O900 C899 1.224 . S
N901 Co891 2.128 . S
N901 C902 1.355 . S
N901 C904 1.311 . S
C902 N901 1.355 . S
C902 C903 1.363 . S
C902 H914 0.929 . S
C903 C902 1.363 . S
C903 N905 1.375 . S
C903 H921 0.931 . S
C904 N901 1.311 . S
C904 N905 1.347 . S
C904 H915 0.929 . S
N905 C903 1.375 . S
N905 C904 1.347 . S
C906 C909 1.365 . S
C906 N911 1.328 . S
C906 H912 0.929 . S
C907 C908 1.362 . S
C907 C910 1.378 . S
C907 H922 0.929 . S
C908 C907 1.362 . S
C908 C909 1.366 . S
C909 C906 1.365 . S
C909 C908 1.366 . S
C909 H923 0.930 . S
C910 C907 1.378 . S
C910 N911 1.315 . S
C910 H913 0.930 . S
N911 Co891 2.194 . S
N911 C906 1.328 . S
N911 C910 1.315 . S
H912 C906 0.929 . S
H913 C910 0.930 . S
H914 C902 0.929 . S
H915 C904 0.929 . S
O916 Co891 2.351 . S
O916 C919 1.244 . S
O917 Co891 2.155 . S
O917 C919 1.240 . S
O918 Co891 2.096 . S
O918 C899 1.247 . S
C919 O916 1.244 . S
C919 O917 1.240 . S
H920 C894 0.931 . S
H921 C903 0.931 . S
H922 C907 0.929 . S
H923 C909 0.930 . S
Co924 N928 2.148 . S
Co924 N934 2.128 . S
Co924 N944 2.194 . S
Co924 O949 2.351 . S
Co924 O950 2.155 . S
Co924 O951 2.096 . S
C925 N928 1.301 . S
C925 N929 1.328 . S
C925 H930 0.930 . S
C926 C927 1.333 . S
C926 N928 1.317 . S
C926 H931 0.930 . S
C927 C926 1.333 . S
C927 N929 1.350 . S
C927 H953 0.931 . S
N928 Co924 2.148 . S
N928 C925 1.301 . S
N928 C926 1.317 . S
N929 C925 1.328 . S
N929 C927 1.350 . S
H930 C925 0.930 . S
H931 C926 0.930 . S
C932 O933 1.224 . S
C932 O951 1.247 . S
O933 C932 1.224 . S
N934 Co924 2.128 . S
N934 C935 1.355 . S
N934 C937 1.311 . S
C935 N934 1.355 . S
C935 C936 1.363 . S
C935 H947 0.929 . S
C936 C935 1.363 . S
C936 N938 1.375 . S
C936 H954 0.931 . S
C937 N934 1.311 . S
C937 N938 1.347 . S
C937 H948 0.929 . S
N938 C936 1.375 . S
N938 C937 1.347 . S
C939 C942 1.365 . S
C939 N944 1.328 . S
C939 H945 0.929 . S
C940 C941 1.362 . S
C940 C943 1.378 . S
C940 H955 0.929 . S
C941 C940 1.362 . S
C941 C942 1.366 . S
C942 C939 1.365 . S
C942 C941 1.366 . S
C942 H956 0.930 . S
C943 C940 1.378 . S
C943 N944 1.315 . S
C943 H946 0.930 . S
N944 Co924 2.194 . S
N944 C939 1.328 . S
N944 C943 1.315 . S
H945 C939 0.929 . S
H946 C943 0.930 . S
H947 C935 0.929 . S
H948 C937 0.929 . S
O949 Co924 2.351 . S
O949 C952 1.244 . S
O950 Co924 2.155 . S
O950 C952 1.240 . S
O951 Co924 2.096 . S
O951 C932 1.247 . S
C952 O949 1.244 . S
C952 O950 1.240 . S
H953 C927 0.931 . S
H954 C936 0.931 . S
H955 C940 0.929 . S
H956 C942 0.930 . S
Co957 N961 2.148 . S
Co957 N967 2.128 . S
Co957 N977 2.194 . S
Co957 O982 2.351 . S
Co957 O983 2.155 . S
Co957 O984 2.096 . S
C958 N961 1.301 . S
C958 N962 1.328 . S
C958 H963 0.930 . S
C959 C960 1.333 . S
C959 N961 1.317 . S
C959 H964 0.930 . S
C960 C959 1.333 . S
C960 N962 1.350 . S
C960 H986 0.931 . S
N961 Co957 2.148 . S
N961 C958 1.301 . S
N961 C959 1.317 . S
N962 C958 1.328 . S
N962 C960 1.350 . S
H963 C958 0.930 . S
H964 C959 0.930 . S
C965 O966 1.224 . S
C965 O984 1.247 . S
O966 C965 1.224 . S
N967 Co957 2.128 . S
N967 C968 1.355 . S
N967 C970 1.311 . S
C968 N967 1.355 . S
C968 C969 1.363 . S
C968 H980 0.929 . S
C969 C968 1.363 . S
C969 N971 1.375 . S
C969 H987 0.931 . S
C970 N967 1.311 . S
C970 N971 1.347 . S
C970 H981 0.929 . S
N971 C969 1.375 . S
N971 C970 1.347 . S
C972 C975 1.365 . S
C972 N977 1.328 . S
C972 H978 0.929 . S
C973 C974 1.362 . S
C973 C976 1.378 . S
C973 H988 0.929 . S
C974 C973 1.362 . S
C974 C975 1.366 . S
C975 C972 1.365 . S
C975 C974 1.366 . S
C975 H989 0.930 . S
C976 C973 1.378 . S
C976 N977 1.315 . S
C976 H979 0.930 . S
N977 Co957 2.194 . S
N977 C972 1.328 . S
N977 C976 1.315 . S
H978 C972 0.929 . S
H979 C976 0.930 . S
H980 C968 0.929 . S
H981 C970 0.929 . S
O982 Co957 2.351 . S
O982 C985 1.244 . S
O983 Co957 2.155 . S
O983 C985 1.240 . S
O984 Co957 2.096 . S
O984 C965 1.247 . S
C985 O982 1.244 . S
C985 O983 1.240 . S
H986 C960 0.931 . S
H987 C969 0.931 . S
H988 C973 0.929 . S
H989 C975 0.930 . S
Co990 N994 2.148 . S
Co990 N1000 2.128 . S
Co990 N1010 2.194 . S
Co990 O1015 2.351 . S
Co990 O1016 2.155 . S
Co990 O1017 2.096 . S
C991 N994 1.301 . S
C991 N995 1.328 . S
C991 H996 0.930 . S
C992 C993 1.333 . S
C992 N994 1.317 . S
C992 H997 0.930 . S
C993 C992 1.333 . S
C993 N995 1.350 . S
C993 H1019 0.931 . S
N994 Co990 2.148 . S
N994 C991 1.301 . S
N994 C992 1.317 . S
N995 C991 1.328 . S
N995 C993 1.350 . S
H996 C991 0.930 . S
H997 C992 0.930 . S
C998 O999 1.224 . S
C998 O1017 1.247 . S
O999 C998 1.224 . S
N1000 Co990 2.128 . S
N1000 C1001 1.355 . S
N1000 C1003 1.311 . S
C1001 N1000 1.355 . S
C1001 C1002 1.363 . S
C1001 H1013 0.929 . S
C1002 C1001 1.363 . S
C1002 N1004 1.375 . S
C1002 H1020 0.931 . S
C1003 N1000 1.311 . S
C1003 N1004 1.347 . S
C1003 H1014 0.929 . S
N1004 C1002 1.375 . S
N1004 C1003 1.347 . S
C1005 C1008 1.365 . S
C1005 N1010 1.328 . S
C1005 H1011 0.929 . S
C1006 C1007 1.362 . S
C1006 C1009 1.378 . S
C1006 H1021 0.929 . S
C1007 C1006 1.362 . S
C1007 C1008 1.366 . S
C1008 C1005 1.365 . S
C1008 C1007 1.366 . S
C1008 H1022 0.930 . S
C1009 C1006 1.378 . S
C1009 N1010 1.315 . S
C1009 H1012 0.930 . S
N1010 Co990 2.194 . S
N1010 C1005 1.328 . S
N1010 C1009 1.315 . S
H1011 C1005 0.929 . S
H1012 C1009 0.930 . S
H1013 C1001 0.929 . S
H1014 C1003 0.929 . S
O1015 Co990 2.351 . S
O1015 C1018 1.244 . S
O1016 Co990 2.155 . S
O1016 C1018 1.240 . S
O1017 Co990 2.096 . S
O1017 C998 1.247 . S
C1018 O1015 1.244 . S
C1018 O1016 1.240 . S
H1019 C993 0.931 . S
H1020 C1002 0.931 . S
H1021 C1006 0.929 . S
H1022 C1008 0.930 . S
Co1023 N1027 2.148 . S
Co1023 N1033 2.128 . S
Co1023 N1043 2.194 . S
Co1023 O1048 2.351 . S
Co1023 O1049 2.155 . S
Co1023 O1050 2.096 . S
C1024 N1027 1.301 . S
C1024 N1028 1.328 . S
C1024 H1029 0.930 . S
C1025 C1026 1.333 . S
C1025 N1027 1.317 . S
C1025 H1030 0.930 . S
C1026 C1025 1.333 . S
C1026 N1028 1.350 . S
C1026 H1052 0.931 . S
N1027 Co1023 2.148 . S
N1027 C1024 1.301 . S
N1027 C1025 1.317 . S
N1028 C1024 1.328 . S
N1028 C1026 1.350 . S
H1029 C1024 0.930 . S
H1030 C1025 0.930 . S
C1031 O1032 1.224 . S
C1031 O1050 1.247 . S
O1032 C1031 1.224 . S
N1033 Co1023 2.128 . S
N1033 C1034 1.355 . S
N1033 C1036 1.311 . S
C1034 N1033 1.355 . S
C1034 C1035 1.363 . S
C1034 H1046 0.929 . S
C1035 C1034 1.363 . S
C1035 N1037 1.375 . S
C1035 H1053 0.931 . S
C1036 N1033 1.311 . S
C1036 N1037 1.347 . S
C1036 H1047 0.929 . S
N1037 C1035 1.375 . S
N1037 C1036 1.347 . S
C1038 C1041 1.365 . S
C1038 N1043 1.328 . S
C1038 H1044 0.929 . S
C1039 C1040 1.362 . S
C1039 C1042 1.378 . S
C1039 H1054 0.929 . S
C1040 C1039 1.362 . S
C1040 C1041 1.366 . S
C1041 C1038 1.365 . S
C1041 C1040 1.366 . S
C1041 H1055 0.930 . S
C1042 C1039 1.378 . S
C1042 N1043 1.315 . S
C1042 H1045 0.930 . S
N1043 Co1023 2.194 . S
N1043 C1038 1.328 . S
N1043 C1042 1.315 . S
H1044 C1038 0.929 . S
H1045 C1042 0.930 . S
H1046 C1034 0.929 . S
H1047 C1036 0.929 . S
O1048 Co1023 2.351 . S
O1048 C1051 1.244 . S
O1049 Co1023 2.155 . S
O1049 C1051 1.240 . S
O1050 Co1023 2.096 . S
O1050 C1031 1.247 . S
C1051 O1048 1.244 . S
C1051 O1049 1.240 . S
H1052 C1026 0.931 . S
H1053 C1035 0.931 . S
H1054 C1039 0.929 . S
H1055 C1041 0.930 . S
C1056 C1057 1.349 . S
C1056 C1058 1.327 . S
C1056 H1081 0.950 . S
C1057 C1056 1.349 . S
C1057 C1073 1.349 . S
C1058 C1056 1.327 . S
C1058 C1077 1.429 . S
C1058 H1082 0.950 . S
C1059 C1076 1.574 . S
C1059 C1078 1.368 . S
C1059 H1083 0.949 . S
H1060 C1064 0.949 . S
C1061 C1062 1.349 . S
C1061 C1063 1.327 . S
C1061 H1084 0.950 . S
C1062 C1061 1.349 . S
C1062 C1074 1.349 . S
C1063 C1061 1.327 . S
C1063 C1079 1.429 . S
C1063 H1085 0.950 . S
C1064 H1060 0.949 . S
C1064 C1072 1.574 . S
C1064 C1080 1.368 . S
H1065 C1073 0.950 . S
H1066 C1071 0.950 . S
H1067 C1072 0.949 . S
H1068 C1074 0.950 . S
H1069 C1075 0.950 . S
H1070 C1076 0.949 . S
C1071 H1066 0.950 . S
C1071 C1073 1.327 . S
C1071 C1077 1.429 . S
C1072 C1064 1.574 . S
C1072 H1067 0.949 . S
C1072 C1078 1.368 . S
C1073 C1057 1.349 . S
C1073 H1065 0.950 . S
C1073 C1071 1.327 . S
C1074 C1062 1.349 . S
C1074 H1068 0.950 . S
C1074 C1075 1.327 . S
C1075 H1069 0.950 . S
C1075 C1074 1.327 . S
C1075 C1079 1.429 . S
C1076 C1059 1.574 . S
C1076 H1070 0.949 . S
C1076 C1080 1.368 . S
C1077 C1058 1.429 . S
C1077 C1071 1.429 . S
C1077 C1078 1.523 . S
C1078 C1059 1.368 . S
C1078 C1072 1.368 . S
C1078 C1077 1.523 . S
C1079 C1063 1.429 . S
C1079 C1075 1.429 . S
C1079 C1080 1.523 . S
C1080 C1064 1.368 . S
C1080 C1076 1.368 . S
C1080 C1079 1.523 . S
H1081 C1056 0.950 . S
H1082 C1058 0.950 . S
H1083 C1059 0.949 . S
H1084 C1061 0.950 . S
H1085 C1063 0.950 . S
C1086 C1087 1.349 . S
C1086 C1088 1.327 . S
C1086 H1111 0.950 . S
C1087 C1086 1.349 . S
C1087 C1103 1.349 . S
C1088 C1086 1.327 . S
C1088 C1107 1.429 . S
C1088 H1112 0.950 1_455 S
C1089 C1106 1.574 . S
C1089 C1108 1.368 . S
C1089 H1113 0.949 . S
H1090 C1094 0.949 . S
C1091 C1092 1.349 . S
C1091 C1093 1.327 . S
C1091 H1114 0.950 . S
C1092 C1091 1.349 . S
C1092 C1104 1.349 . S
C1093 C1091 1.327 . S
C1093 C1109 1.429 . S
C1093 H1115 0.950 . S
C1094 H1090 0.949 . S
C1094 C1102 1.574 . S
C1094 C1110 1.368 . S
H1095 C1103 0.950 . S
H1096 C1101 0.950 . S
H1097 C1102 0.949 . S
H1098 C1104 0.950 . S
H1099 C1105 0.950 . S
H1100 C1106 0.949 . S
C1101 H1096 0.950 . S
C1101 C1103 1.327 . S
C1101 C1107 1.429 . S
C1102 C1094 1.574 . S
C1102 H1097 0.949 . S
C1102 C1108 1.368 . S
C1103 C1087 1.349 . S
C1103 H1095 0.950 . S
C1103 C1101 1.327 . S
C1104 C1092 1.349 . S
C1104 H1098 0.950 . S
C1104 C1105 1.327 . S
C1105 H1099 0.950 . S
C1105 C1104 1.327 . S
C1105 C1109 1.429 . S
C1106 C1089 1.574 . S
C1106 H1100 0.949 . S
C1106 C1110 1.368 . S
C1107 C1088 1.429 . S
C1107 C1101 1.429 . S
C1107 C1108 1.523 1_455 S
C1108 C1089 1.368 . S
C1108 C1102 1.368 . S
C1108 C1107 1.523 1_655 S
C1109 C1093 1.429 . S
C1109 C1105 1.429 . S
C1109 C1110 1.523 . S
C1110 C1094 1.368 . S
C1110 C1106 1.368 . S
C1110 C1109 1.523 . S
H1111 C1086 0.950 . S
H1112 C1088 0.950 1_655 S
H1113 C1089 0.949 . S
H1114 C1091 0.950 . S
H1115 C1093 0.950 . S
C1116 C1117 1.349 . S
C1116 C1118 1.327 . S
C1116 H1141 0.950 . S
C1117 C1116 1.349 . S
C1117 C1133 1.349 . S
C1118 C1116 1.327 . S
C1118 C1137 1.429 . S
C1118 H1142 0.950 . S
C1119 C1136 1.574 . S
C1119 C1138 1.368 . S
C1119 H1143 0.949 . S
H1120 C1124 0.949 . S
C1121 C1122 1.349 . S
C1121 C1123 1.327 . S
C1121 H1144 0.950 . S
C1122 C1121 1.349 . S
C1122 C1134 1.349 . S
C1123 C1121 1.327 . S
C1123 C1139 1.429 . S
C1123 H1145 0.950 . S
C1124 H1120 0.949 . S
C1124 C1132 1.574 . S
C1124 C1140 1.368 . S
H1125 C1133 0.950 . S
H1126 C1131 0.950 . S
H1127 C1132 0.949 . S
H1128 C1134 0.950 . S
H1129 C1135 0.950 . S
H1130 C1136 0.949 . S
C1131 H1126 0.950 . S
C1131 C1133 1.327 . S
C1131 C1137 1.429 . S
C1132 C1124 1.574 . S
C1132 H1127 0.949 . S
C1132 C1138 1.368 . S
C1133 C1117 1.349 . S
C1133 H1125 0.950 . S
C1133 C1131 1.327 . S
C1134 C1122 1.349 . S
C1134 H1128 0.950 . S
C1134 C1135 1.327 . S
C1135 H1129 0.950 . S
C1135 C1134 1.327 . S
C1135 C1139 1.429 . S
C1136 C1119 1.574 . S
C1136 H1130 0.949 . S
C1136 C1140 1.368 . S
C1137 C1118 1.429 . S
C1137 C1131 1.429 . S
C1137 C1138 1.523 . S
C1138 C1119 1.368 . S
C1138 C1132 1.368 . S
C1138 C1137 1.523 . S
C1139 C1123 1.429 . S
C1139 C1135 1.429 . S
C1139 C1140 1.523 . S
C1140 C1124 1.368 . S
C1140 C1136 1.368 . S
C1140 C1139 1.523 . S
H1141 C1116 0.950 . S
H1142 C1118 0.950 . S
H1143 C1119 0.949 . S
H1144 C1121 0.950 . S
H1145 C1123 0.950 . S
C1146 C1147 1.349 . S
C1146 C1148 1.327 . S
C1146 H1171 0.950 . S
C1147 C1146 1.349 . S
C1147 C1163 1.349 . S
C1148 C1146 1.327 . S
C1148 C1167 1.429 . S
C1148 H1172 0.950 . S
C1149 C1166 1.574 . S
C1149 C1168 1.368 . S
C1149 H1173 0.949 . S
H1150 C1154 0.949 . S
C1151 C1152 1.349 . S
C1151 C1153 1.327 . S
C1151 H1174 0.950 . S
C1152 C1151 1.349 . S
C1152 C1164 1.349 . S
C1153 C1151 1.327 . S
C1153 C1169 1.429 . S
C1153 H1175 0.950 . S
C1154 H1150 0.949 . S
C1154 C1162 1.574 . S
C1154 C1170 1.368 . S
H1155 C1163 0.950 . S
H1156 C1161 0.950 . S
H1157 C1162 0.949 . S
H1158 C1164 0.950 . S
H1159 C1165 0.950 . S
H1160 C1166 0.949 . S
C1161 H1156 0.950 . S
C1161 C1163 1.327 . S
C1161 C1167 1.429 . S
C1162 C1154 1.574 . S
C1162 H1157 0.949 . S
C1162 C1168 1.368 . S
C1163 C1147 1.349 . S
C1163 H1155 0.950 . S
C1163 C1161 1.327 . S
C1164 C1152 1.349 . S
C1164 H1158 0.950 . S
C1164 C1165 1.327 . S
C1165 H1159 0.950 . S
C1165 C1164 1.327 . S
C1165 C1169 1.429 . S
C1166 C1149 1.574 . S
C1166 H1160 0.949 . S
C1166 C1170 1.368 . S
C1167 C1148 1.429 . S
C1167 C1161 1.429 . S
C1167 C1168 1.523 . S
C1168 C1149 1.368 . S
C1168 C1162 1.368 . S
C1168 C1167 1.523 . S
C1169 C1153 1.429 . S
C1169 C1165 1.429 . S
C1169 C1170 1.523 . S
C1170 C1154 1.368 . S
C1170 C1166 1.368 . S
C1170 C1169 1.523 . S
H1171 C1146 0.950 . S
H1172 C1148 0.950 . S
H1173 C1149 0.949 . S
H1174 C1151 0.950 . S
H1175 C1153 0.950 . S
C1176 C1177 1.349 . S
C1176 C1178 1.327 . S
C1176 H1201 0.950 . S
C1177 C1176 1.349 . S
C1177 C1193 1.349 . S
C1178 C1176 1.327 . S
C1178 C1197 1.429 . S
C1178 H1202 0.950 . S
C1179 C1196 1.574 . S
C1179 C1198 1.368 . S
C1179 H1203 0.949 . S
H1180 C1184 0.949 . S
C1181 C1182 1.349 . S
C1181 C1183 1.327 . S
C1181 H1204 0.950 . S
C1182 C1181 1.349 . S
C1182 C1194 1.349 . S
C1183 C1181 1.327 . S
C1183 C1199 1.429 . S
C1183 H1205 0.950 . S
C1184 H1180 0.949 . S
C1184 C1192 1.574 . S
C1184 C1200 1.368 . S
H1185 C1193 0.950 . S
H1186 C1191 0.950 . S
H1187 C1192 0.949 . S
H1188 C1194 0.950 . S
H1189 C1195 0.950 . S
H1190 C1196 0.949 . S
C1191 H1186 0.950 . S
C1191 C1193 1.327 . S
C1191 C1197 1.429 . S
C1192 C1184 1.574 . S
C1192 H1187 0.949 . S
C1192 C1198 1.368 . S
C1193 C1177 1.349 . S
C1193 H1185 0.950 . S
C1193 C1191 1.327 . S
C1194 C1182 1.349 . S
C1194 H1188 0.950 . S
C1194 C1195 1.327 . S
C1195 H1189 0.950 . S
C1195 C1194 1.327 . S
C1195 C1199 1.429 . S
C1196 C1179 1.574 . S
C1196 H1190 0.949 . S
C1196 C1200 1.368 . S
C1197 C1178 1.429 . S
C1197 C1191 1.429 . S
C1197 C1198 1.523 . S
C1198 C1179 1.368 . S
C1198 C1192 1.368 . S
C1198 C1197 1.523 . S
C1199 C1183 1.429 . S
C1199 C1195 1.429 . S
C1199 C1200 1.523 . S
C1200 C1184 1.368 . S
C1200 C1196 1.368 . S
C1200 C1199 1.523 . S
H1201 C1176 0.950 . S
H1202 C1178 0.950 . S
H1203 C1179 0.949 . S
H1204 C1181 0.950 . S
H1205 C1183 0.950 . S
C1206 C1207 1.349 . S
C1206 C1208 1.327 . S
C1206 H1231 0.950 . S
C1207 C1206 1.349 . S
C1207 C1223 1.349 . S
C1208 C1206 1.327 . S
C1208 C1227 1.429 . S
C1208 H1232 0.950 . S
C1209 C1226 1.574 . S
C1209 C1228 1.368 . S
C1209 H1233 0.949 . S
H1210 C1214 0.949 . S
C1211 C1212 1.349 . S
C1211 C1213 1.327 . S
C1211 H1234 0.950 . S
C1212 C1211 1.349 . S
C1212 C1224 1.349 . S
C1213 C1211 1.327 . S
C1213 C1229 1.429 . S
C1213 H1235 0.950 . S
C1214 H1210 0.949 . S
C1214 C1222 1.574 . S
C1214 C1230 1.368 . S
H1215 C1223 0.950 . S
H1216 C1221 0.950 . S
H1217 C1222 0.949 . S
H1218 C1224 0.950 . S
H1219 C1225 0.950 . S
H1220 C1226 0.949 . S
C1221 H1216 0.950 . S
C1221 C1223 1.327 . S
C1221 C1227 1.429 . S
C1222 C1214 1.574 . S
C1222 H1217 0.949 . S
C1222 C1228 1.368 . S
C1223 C1207 1.349 . S
C1223 H1215 0.950 . S
C1223 C1221 1.327 . S
C1224 C1212 1.349 . S
C1224 H1218 0.950 . S
C1224 C1225 1.327 . S
C1225 H1219 0.950 . S
C1225 C1224 1.327 . S
C1225 C1229 1.429 . S
C1226 C1209 1.574 . S
C1226 H1220 0.949 . S
C1226 C1230 1.368 . S
C1227 C1208 1.429 . S
C1227 C1221 1.429 . S
C1227 C1228 1.523 . S
C1228 C1209 1.368 . S
C1228 C1222 1.368 . S
C1228 C1227 1.523 . S
C1229 C1213 1.429 . S
C1229 C1225 1.429 . S
C1229 C1230 1.523 . S
C1230 C1214 1.368 . S
C1230 C1226 1.368 . S
C1230 C1229 1.523 . S
H1231 C1206 0.950 . S
H1232 C1208 0.950 . S
H1233 C1209 0.949 . S
H1234 C1211 0.950 . S
H1235 C1213 0.950 . S
C1236 C1237 1.349 . S
C1236 C1238 1.327 . S
C1236 H1261 0.950 . S
C1237 C1236 1.349 . S
C1237 C1253 1.349 . S
C1238 C1236 1.327 . S
C1238 C1257 1.429 . S
C1238 H1262 0.950 . S
C1239 C1256 1.574 . S
C1239 C1258 1.368 . S
C1239 H1263 0.949 . S
H1240 C1244 0.949 . S
C1241 C1242 1.349 . S
C1241 C1243 1.327 . S
C1241 H1264 0.950 . S
C1242 C1241 1.349 . S
C1242 C1254 1.349 . S
C1243 C1241 1.327 . S
C1243 C1259 1.429 . S
C1243 H1265 0.950 . S
C1244 H1240 0.949 . S
C1244 C1252 1.574 . S
C1244 C1260 1.368 . S
H1245 C1253 0.950 . S
H1246 C1251 0.950 . S
H1247 C1252 0.949 . S
H1248 C1254 0.950 . S
H1249 C1255 0.950 . S
H1250 C1256 0.949 . S
C1251 H1246 0.950 . S
C1251 C1253 1.327 . S
C1251 C1257 1.429 . S
C1252 C1244 1.574 . S
C1252 H1247 0.949 . S
C1252 C1258 1.368 . S
C1253 C1237 1.349 . S
C1253 H1245 0.950 . S
C1253 C1251 1.327 . S
C1254 C1242 1.349 . S
C1254 H1248 0.950 . S
C1254 C1255 1.327 . S
C1255 H1249 0.950 . S
C1255 C1254 1.327 . S
C1255 C1259 1.429 . S
C1256 C1239 1.574 . S
C1256 H1250 0.949 . S
C1256 C1260 1.368 . S
C1257 C1238 1.429 . S
C1257 C1251 1.429 . S
C1257 C1258 1.523 . S
C1258 C1239 1.368 . S
C1258 C1252 1.368 . S
C1258 C1257 1.523 . S
C1259 C1243 1.429 . S
C1259 C1255 1.429 . S
C1259 C1260 1.523 . S
C1260 C1244 1.368 . S
C1260 C1256 1.368 . S
C1260 C1259 1.523 . S
H1261 C1236 0.950 . S
H1262 C1238 0.950 . S
H1263 C1239 0.949 . S
H1264 C1241 0.950 . S
H1265 C1243 0.950 . S
C1266 C1267 1.349 . S
C1266 C1268 1.327 . S
C1266 H1291 0.950 . S
C1267 C1266 1.349 . S
C1267 C1283 1.349 . S
C1268 C1266 1.327 . S
C1268 C1287 1.429 . S
C1268 H1292 0.950 . S
C1269 C1286 1.574 . S
C1269 C1288 1.368 . S
C1269 H1293 0.949 . S
H1270 C1274 0.949 . S
C1271 C1272 1.349 . S
C1271 C1273 1.327 . S
C1271 H1294 0.950 . S
C1272 C1271 1.349 . S
C1272 C1284 1.349 . S
C1273 C1271 1.327 . S
C1273 C1289 1.429 . S
C1273 H1295 0.950 . S
C1274 H1270 0.949 . S
C1274 C1282 1.574 . S
C1274 C1290 1.368 . S
H1275 C1283 0.950 . S
H1276 C1281 0.950 . S
H1277 C1282 0.949 . S
H1278 C1284 0.950 . S
H1279 C1285 0.950 . S
H1280 C1286 0.949 . S
C1281 H1276 0.950 . S
C1281 C1283 1.327 . S
C1281 C1287 1.429 . S
C1282 C1274 1.574 . S
C1282 H1277 0.949 . S
C1282 C1288 1.368 . S
C1283 C1267 1.349 . S
C1283 H1275 0.950 . S
C1283 C1281 1.327 . S
C1284 C1272 1.349 . S
C1284 H1278 0.950 . S
C1284 C1285 1.327 . S
C1285 H1279 0.950 . S
C1285 C1284 1.327 . S
C1285 C1289 1.429 . S
C1286 C1269 1.574 . S
C1286 H1280 0.949 . S
C1286 C1290 1.368 . S
C1287 C1268 1.429 . S
C1287 C1281 1.429 . S
C1287 C1288 1.523 . S
C1288 C1269 1.368 . S
C1288 C1282 1.368 . S
C1288 C1287 1.523 . S
C1289 C1273 1.429 . S
C1289 C1285 1.429 . S
C1289 C1290 1.523 1_455 S
C1290 C1274 1.368 . S
C1290 C1286 1.368 . S
C1290 C1289 1.523 1_655 S
H1291 C1266 0.950 . S
H1292 C1268 0.950 . S
H1293 C1269 0.949 . S
H1294 C1271 0.950 . S
H1295 C1273 0.950 . S
C1296 C1297 1.349 . S
C1296 C1298 1.327 . S
C1296 H1321 0.950 . S
C1297 C1296 1.349 . S
C1297 C1313 1.349 . S
C1298 C1296 1.327 . S
C1298 C1317 1.429 . S
C1298 H1322 0.950 . S
C1299 C1316 1.574 . S
C1299 C1318 1.368 . S
C1299 H1323 0.949 . S
H1300 C1304 0.949 . S
C1301 C1302 1.349 . S
C1301 C1303 1.327 . S
C1301 H1324 0.950 . S
C1302 C1301 1.349 . S
C1302 C1314 1.349 . S
C1303 C1301 1.327 . S
C1303 C1319 1.429 . S
C1303 H1325 0.950 . S
C1304 H1300 0.949 . S
C1304 C1312 1.574 . S
C1304 C1320 1.368 . S
H1305 C1313 0.950 . S
H1306 C1311 0.950 . S
H1307 C1312 0.949 . S
H1308 C1314 0.950 . S
H1309 C1315 0.950 . S
H1310 C1316 0.949 . S
C1311 H1306 0.950 . S
C1311 C1313 1.327 . S
C1311 C1317 1.429 . S
C1312 C1304 1.574 . S
C1312 H1307 0.949 . S
C1312 C1318 1.368 . S
C1313 C1297 1.349 . S
C1313 H1305 0.950 . S
C1313 C1311 1.327 . S
C1314 C1302 1.349 . S
C1314 H1308 0.950 . S
C1314 C1315 1.327 . S
C1315 H1309 0.950 . S
C1315 C1314 1.327 . S
C1315 C1319 1.429 . S
C1316 C1299 1.574 . S
C1316 H1310 0.949 . S
C1316 C1320 1.368 . S
C1317 C1298 1.429 . S
C1317 C1311 1.429 . S
C1317 C1318 1.523 . S
C1318 C1299 1.368 . S
C1318 C1312 1.368 . S
C1318 C1317 1.523 . S
C1319 C1303 1.429 . S
C1319 C1315 1.429 . S
C1319 C1320 1.523 . S
C1320 C1304 1.368 . S
C1320 C1316 1.368 . S
C1320 C1319 1.523 . S
H1321 C1296 0.950 . S
H1322 C1298 0.950 . S
H1323 C1299 0.949 . S
H1324 C1301 0.950 . S
H1325 C1303 0.950 . S
C1326 C1327 1.349 . S
C1326 C1328 1.327 . S
C1326 H1351 0.950 . S
C1327 C1326 1.349 . S
C1327 C1343 1.349 . S
C1328 C1326 1.327 . S
C1328 C1347 1.429 . S
C1328 H1352 0.950 1_655 S
C1329 C1346 1.574 . S
C1329 C1348 1.368 . S
C1329 H1353 0.949 . S
H1330 C1334 0.949 . S
C1331 C1332 1.349 . S
C1331 C1333 1.327 . S
C1331 H1354 0.950 . S
C1332 C1331 1.349 . S
C1332 C1344 1.349 . S
C1333 C1331 1.327 . S
C1333 C1349 1.429 . S
C1333 H1355 0.950 . S
C1334 H1330 0.949 . S
C1334 C1342 1.574 . S
C1334 C1350 1.368 . S
H1335 C1343 0.950 . S
H1336 C1341 0.950 . S
H1337 C1342 0.949 . S
H1338 C1344 0.950 . S
H1339 C1345 0.950 . S
H1340 C1346 0.949 . S
C1341 H1336 0.950 . S
C1341 C1343 1.327 . S
C1341 C1347 1.429 . S
C1342 C1334 1.574 . S
C1342 H1337 0.949 . S
C1342 C1348 1.368 . S
C1343 C1327 1.349 . S
C1343 H1335 0.950 . S
C1343 C1341 1.327 . S
C1344 C1332 1.349 . S
C1344 H1338 0.950 . S
C1344 C1345 1.327 . S
C1345 H1339 0.950 . S
C1345 C1344 1.327 . S
C1345 C1349 1.429 . S
C1346 C1329 1.574 . S
C1346 H1340 0.949 . S
C1346 C1350 1.368 . S
C1347 C1328 1.429 . S
C1347 C1341 1.429 . S
C1347 C1348 1.523 1_655 S
C1348 C1329 1.368 . S
C1348 C1342 1.368 . S
C1348 C1347 1.523 1_455 S
C1349 C1333 1.429 . S
C1349 C1345 1.429 . S
C1349 C1350 1.523 . S
C1350 C1334 1.368 . S
C1350 C1346 1.368 . S
C1350 C1349 1.523 . S
H1351 C1326 0.950 . S
H1352 C1328 0.950 1_455 S
H1353 C1329 0.949 . S
H1354 C1331 0.950 . S
H1355 C1333 0.950 . S
C1356 C1357 1.349 . S
C1356 C1358 1.327 . S
C1356 H1381 0.950 . S
C1357 C1356 1.349 . S
C1357 C1373 1.349 . S
C1358 C1356 1.327 . S
C1358 C1377 1.429 . S
C1358 H1382 0.950 . S
C1359 C1376 1.574 . S
C1359 C1378 1.368 . S
C1359 H1383 0.949 . S
H1360 C1364 0.949 . S
C1361 C1362 1.349 . S
C1361 C1363 1.327 . S
C1361 H1384 0.950 . S
C1362 C1361 1.349 . S
C1362 C1374 1.349 . S
C1363 C1361 1.327 . S
C1363 C1379 1.429 . S
C1363 H1385 0.950 . S
C1364 H1360 0.949 . S
C1364 C1372 1.574 . S
C1364 C1380 1.368 . S
H1365 C1373 0.950 . S
H1366 C1371 0.950 . S
H1367 C1372 0.949 . S
H1368 C1374 0.950 . S
H1369 C1375 0.950 . S
H1370 C1376 0.949 . S
C1371 H1366 0.950 . S
C1371 C1373 1.327 . S
C1371 C1377 1.429 . S
C1372 C1364 1.574 . S
C1372 H1367 0.949 . S
C1372 C1378 1.368 . S
C1373 C1357 1.349 . S
C1373 H1365 0.950 . S
C1373 C1371 1.327 . S
C1374 C1362 1.349 . S
C1374 H1368 0.950 . S
C1374 C1375 1.327 . S
C1375 H1369 0.950 . S
C1375 C1374 1.327 . S
C1375 C1379 1.429 . S
C1376 C1359 1.574 . S
C1376 H1370 0.949 . S
C1376 C1380 1.368 . S
C1377 C1358 1.429 . S
C1377 C1371 1.429 . S
C1377 C1378 1.523 . S
C1378 C1359 1.368 . S
C1378 C1372 1.368 . S
C1378 C1377 1.523 . S
C1379 C1363 1.429 . S
C1379 C1375 1.429 . S
C1379 C1380 1.523 . S
C1380 C1364 1.368 . S
C1380 C1376 1.368 . S
C1380 C1379 1.523 . S
H1381 C1356 0.950 . S
H1382 C1358 0.950 . S
H1383 C1359 0.949 . S
H1384 C1361 0.950 . S
H1385 C1363 0.950 . S
C1386 C1387 1.349 . S
C1386 C1388 1.327 . S
C1386 H1411 0.950 . S
C1387 C1386 1.349 . S
C1387 C1403 1.349 . S
C1388 C1386 1.327 . S
C1388 C1407 1.429 . S
C1388 H1412 0.950 . S
C1389 C1406 1.574 . S
C1389 C1408 1.368 . S
C1389 H1413 0.949 . S
H1390 C1394 0.949 . S
C1391 C1392 1.349 . S
C1391 C1393 1.327 . S
C1391 H1414 0.950 . S
C1392 C1391 1.349 . S
C1392 C1404 1.349 . S
C1393 C1391 1.327 . S
C1393 C1409 1.429 . S
C1393 H1415 0.950 . S
C1394 H1390 0.949 . S
C1394 C1402 1.574 . S
C1394 C1410 1.368 . S
H1395 C1403 0.950 . S
H1396 C1401 0.950 . S
H1397 C1402 0.949 . S
H1398 C1404 0.950 . S
H1399 C1405 0.950 . S
H1400 C1406 0.949 . S
C1401 H1396 0.950 . S
C1401 C1403 1.327 . S
C1401 C1407 1.429 . S
C1402 C1394 1.574 . S
C1402 H1397 0.949 . S
C1402 C1408 1.368 . S
C1403 C1387 1.349 . S
C1403 H1395 0.950 . S
C1403 C1401 1.327 . S
C1404 C1392 1.349 . S
C1404 H1398 0.950 . S
C1404 C1405 1.327 . S
C1405 H1399 0.950 . S
C1405 C1404 1.327 . S
C1405 C1409 1.429 . S
C1406 C1389 1.574 . S
C1406 H1400 0.949 . S
C1406 C1410 1.368 . S
C1407 C1388 1.429 . S
C1407 C1401 1.429 . S
C1407 C1408 1.523 . S
C1408 C1389 1.368 . S
C1408 C1402 1.368 . S
C1408 C1407 1.523 . S
C1409 C1393 1.429 . S
C1409 C1405 1.429 . S
C1409 C1410 1.523 . S
C1410 C1394 1.368 . S
C1410 C1406 1.368 . S
C1410 C1409 1.523 . S
H1411 C1386 0.950 . S
H1412 C1388 0.950 . S
H1413 C1389 0.949 . S
H1414 C1391 0.950 . S
H1415 C1393 0.950 . S
C1416 C1417 1.349 . S
C1416 C1418 1.327 . S
C1416 H1441 0.950 . S
C1417 C1416 1.349 . S
C1417 C1433 1.349 . S
C1418 C1416 1.327 . S
C1418 C1437 1.429 . S
C1418 H1442 0.950 . S
C1419 C1436 1.574 . S
C1419 C1438 1.368 . S
C1419 H1443 0.949 . S
H1420 C1424 0.949 . S
C1421 C1422 1.349 . S
C1421 C1423 1.327 . S
C1421 H1444 0.950 . S
C1422 C1421 1.349 . S
C1422 C1434 1.349 . S
C1423 C1421 1.327 . S
C1423 C1439 1.429 . S
C1423 H1445 0.950 . S
C1424 H1420 0.949 . S
C1424 C1432 1.574 . S
C1424 C1440 1.368 . S
H1425 C1433 0.950 . S
H1426 C1431 0.950 . S
H1427 C1432 0.949 . S
H1428 C1434 0.950 . S
H1429 C1435 0.950 . S
H1430 C1436 0.949 . S
C1431 H1426 0.950 . S
C1431 C1433 1.327 . S
C1431 C1437 1.429 . S
C1432 C1424 1.574 . S
C1432 H1427 0.949 . S
C1432 C1438 1.368 . S
C1433 C1417 1.349 . S
C1433 H1425 0.950 . S
C1433 C1431 1.327 . S
C1434 C1422 1.349 . S
C1434 H1428 0.950 . S
C1434 C1435 1.327 . S
C1435 H1429 0.950 . S
C1435 C1434 1.327 . S
C1435 C1439 1.429 . S
C1436 C1419 1.574 . S
C1436 H1430 0.949 . S
C1436 C1440 1.368 . S
C1437 C1418 1.429 . S
C1437 C1431 1.429 . S
C1437 C1438 1.523 . S
C1438 C1419 1.368 . S
C1438 C1432 1.368 . S
C1438 C1437 1.523 . S
C1439 C1423 1.429 . S
C1439 C1435 1.429 . S
C1439 C1440 1.523 . S
C1440 C1424 1.368 . S
C1440 C1436 1.368 . S
C1440 C1439 1.523 . S
H1441 C1416 0.950 . S
H1442 C1418 0.950 . S
H1443 C1419 0.949 . S
H1444 C1421 0.950 . S
H1445 C1423 0.950 . S
C1446 C1447 1.349 . S
C1446 C1448 1.327 . S
C1446 H1471 0.950 . S
C1447 C1446 1.349 . S
C1447 C1463 1.349 . S
C1448 C1446 1.327 . S
C1448 C1467 1.429 . S
C1448 H1472 0.950 . S
C1449 C1466 1.574 . S
C1449 C1468 1.368 . S
C1449 H1473 0.949 . S
H1450 C1454 0.949 . S
C1451 C1452 1.349 . S
C1451 C1453 1.327 . S
C1451 H1474 0.950 . S
C1452 C1451 1.349 . S
C1452 C1464 1.349 . S
C1453 C1451 1.327 . S
C1453 C1469 1.429 . S
C1453 H1475 0.950 . S
C1454 H1450 0.949 . S
C1454 C1462 1.574 . S
C1454 C1470 1.368 . S
H1455 C1463 0.950 . S
H1456 C1461 0.950 . S
H1457 C1462 0.949 . S
H1458 C1464 0.950 . S
H1459 C1465 0.950 . S
H1460 C1466 0.949 . S
C1461 H1456 0.950 . S
C1461 C1463 1.327 . S
C1461 C1467 1.429 . S
C1462 C1454 1.574 . S
C1462 H1457 0.949 . S
C1462 C1468 1.368 . S
C1463 C1447 1.349 . S
C1463 H1455 0.950 . S
C1463 C1461 1.327 . S
C1464 C1452 1.349 . S
C1464 H1458 0.950 . S
C1464 C1465 1.327 . S
C1465 H1459 0.950 . S
C1465 C1464 1.327 . S
C1465 C1469 1.429 . S
C1466 C1449 1.574 . S
C1466 H1460 0.949 . S
C1466 C1470 1.368 . S
C1467 C1448 1.429 . S
C1467 C1461 1.429 . S
C1467 C1468 1.523 . S
C1468 C1449 1.368 . S
C1468 C1462 1.368 . S
C1468 C1467 1.523 . S
C1469 C1453 1.429 . S
C1469 C1465 1.429 . S
C1469 C1470 1.523 . S
C1470 C1454 1.368 . S
C1470 C1466 1.368 . S
C1470 C1469 1.523 . S
H1471 C1446 0.950 . S
H1472 C1448 0.950 . S
H1473 C1449 0.949 . S
H1474 C1451 0.950 . S
H1475 C1453 0.950 . S
C1476 C1477 1.349 . S
C1476 C1478 1.327 . S
C1476 H1501 0.950 . S
C1477 C1476 1.349 . S
C1477 C1493 1.349 . S
C1478 C1476 1.327 . S
C1478 C1497 1.429 . S
C1478 H1502 0.950 . S
C1479 C1496 1.574 . S
C1479 C1498 1.368 . S
C1479 H1503 0.949 . S
H1480 C1484 0.949 . S
C1481 C1482 1.349 . S
C1481 C1483 1.327 . S
C1481 H1504 0.950 . S
C1482 C1481 1.349 . S
C1482 C1494 1.349 . S
C1483 C1481 1.327 . S
C1483 C1499 1.429 . S
C1483 H1505 0.950 . S
C1484 H1480 0.949 . S
C1484 C1492 1.574 . S
C1484 C1500 1.368 . S
H1485 C1493 0.950 . S
H1486 C1491 0.950 . S
H1487 C1492 0.949 . S
H1488 C1494 0.950 . S
H1489 C1495 0.950 . S
H1490 C1496 0.949 . S
C1491 H1486 0.950 . S
C1491 C1493 1.327 . S
C1491 C1497 1.429 . S
C1492 C1484 1.574 . S
C1492 H1487 0.949 . S
C1492 C1498 1.368 . S
C1493 C1477 1.349 . S
C1493 H1485 0.950 . S
C1493 C1491 1.327 . S
C1494 C1482 1.349 . S
C1494 H1488 0.950 . S
C1494 C1495 1.327 . S
C1495 H1489 0.950 . S
C1495 C1494 1.327 . S
C1495 C1499 1.429 . S
C1496 C1479 1.574 . S
C1496 H1490 0.949 . S
C1496 C1500 1.368 . S
C1497 C1478 1.429 . S
C1497 C1491 1.429 . S
C1497 C1498 1.523 . S
C1498 C1479 1.368 . S
C1498 C1492 1.368 . S
C1498 C1497 1.523 . S
C1499 C1483 1.429 . S
C1499 C1495 1.429 . S
C1499 C1500 1.523 . S
C1500 C1484 1.368 . S
C1500 C1496 1.368 . S
C1500 C1499 1.523 . S
H1501 C1476 0.950 . S
H1502 C1478 0.950 . S
H1503 C1479 0.949 . S
H1504 C1481 0.950 . S
H1505 C1483 0.950 . S
C1506 C1507 1.349 . S
C1506 C1508 1.327 . S
C1506 H1531 0.950 . S
C1507 C1506 1.349 . S
C1507 C1523 1.349 . S
C1508 C1506 1.327 . S
C1508 C1527 1.429 . S
C1508 H1532 0.950 1_655 S
C1509 C1526 1.574 . S
C1509 C1528 1.368 . S
C1509 H1533 0.949 . S
H1510 C1514 0.949 . S
C1511 C1512 1.349 . S
C1511 C1513 1.327 . S
C1511 H1534 0.950 . S
C1512 C1511 1.349 . S
C1512 C1524 1.349 . S
C1513 C1511 1.327 . S
C1513 C1529 1.429 . S
C1513 H1535 0.950 . S
C1514 H1510 0.949 . S
C1514 C1522 1.574 . S
C1514 C1530 1.368 . S
H1515 C1523 0.950 . S
H1516 C1521 0.950 . S
H1517 C1522 0.949 . S
H1518 C1524 0.950 . S
H1519 C1525 0.950 . S
H1520 C1526 0.949 . S
C1521 H1516 0.950 . S
C1521 C1523 1.327 . S
C1521 C1527 1.429 . S
C1522 C1514 1.574 . S
C1522 H1517 0.949 . S
C1522 C1528 1.368 . S
C1523 C1507 1.349 . S
C1523 H1515 0.950 . S
C1523 C1521 1.327 . S
C1524 C1512 1.349 . S
C1524 H1518 0.950 . S
C1524 C1525 1.327 . S
C1525 H1519 0.950 . S
C1525 C1524 1.327 . S
C1525 C1529 1.429 . S
C1526 C1509 1.574 . S
C1526 H1520 0.949 . S
C1526 C1530 1.368 . S
C1527 C1508 1.429 . S
C1527 C1521 1.429 . S
C1527 C1528 1.523 1_655 S
C1528 C1509 1.368 . S
C1528 C1522 1.368 . S
C1528 C1527 1.523 1_455 S
C1529 C1513 1.429 . S
C1529 C1525 1.429 . S
C1529 C1530 1.523 . S
C1530 C1514 1.368 . S
C1530 C1526 1.368 . S
C1530 C1529 1.523 . S
H1531 C1506 0.950 . S
H1532 C1508 0.950 1_455 S
H1533 C1509 0.949 . S
H1534 C1511 0.950 . S
H1535 C1513 0.950 . S
C1536 C1537 1.349 . S
C1536 C1538 1.327 . S
C1536 H1561 0.950 . S
C1537 C1536 1.349 . S
C1537 C1553 1.349 . S
C1538 C1536 1.327 . S
C1538 C1557 1.429 . S
C1538 H1562 0.950 . S
C1539 C1556 1.574 . S
C1539 C1558 1.368 . S
C1539 H1563 0.949 . S
H1540 C1544 0.949 . S
C1541 C1542 1.349 . S
C1541 C1543 1.327 . S
C1541 H1564 0.950 . S
C1542 C1541 1.349 . S
C1542 C1554 1.349 . S
C1543 C1541 1.327 . S
C1543 C1559 1.429 . S
C1543 H1565 0.950 . S
C1544 H1540 0.949 . S
C1544 C1552 1.574 . S
C1544 C1560 1.368 . S
H1545 C1553 0.950 . S
H1546 C1551 0.950 . S
H1547 C1552 0.949 . S
H1548 C1554 0.950 . S
H1549 C1555 0.950 . S
H1550 C1556 0.949 . S
C1551 H1546 0.950 . S
C1551 C1553 1.327 . S
C1551 C1557 1.429 . S
C1552 C1544 1.574 . S
C1552 H1547 0.949 . S
C1552 C1558 1.368 . S
C1553 C1537 1.349 . S
C1553 H1545 0.950 . S
C1553 C1551 1.327 . S
C1554 C1542 1.349 . S
C1554 H1548 0.950 . S
C1554 C1555 1.327 . S
C1555 H1549 0.950 . S
C1555 C1554 1.327 . S
C1555 C1559 1.429 . S
C1556 C1539 1.574 . S
C1556 H1550 0.949 . S
C1556 C1560 1.368 . S
C1557 C1538 1.429 . S
C1557 C1551 1.429 . S
C1557 C1558 1.523 . S
C1558 C1539 1.368 . S
C1558 C1552 1.368 . S
C1558 C1557 1.523 . S
C1559 C1543 1.429 . S
C1559 C1555 1.429 . S
C1559 C1560 1.523 . S
C1560 C1544 1.368 . S
C1560 C1556 1.368 . S
C1560 C1559 1.523 . S
H1561 C1536 0.950 . S
H1562 C1538 0.950 . S
H1563 C1539 0.949 . S
H1564 C1541 0.950 . S
H1565 C1543 0.950 . S
C1566 C1567 1.349 . S
C1566 C1568 1.327 . S
C1566 H1591 0.950 . S
C1567 C1566 1.349 . S
C1567 C1583 1.349 . S
C1568 C1566 1.327 . S
C1568 C1587 1.429 . S
C1568 H1592 0.950 . S
C1569 C1586 1.574 . S
C1569 C1588 1.368 . S
C1569 H1593 0.949 . S
H1570 C1574 0.949 . S
C1571 C1572 1.349 . S
C1571 C1573 1.327 . S
C1571 H1594 0.950 . S
C1572 C1571 1.349 . S
C1572 C1584 1.349 . S
C1573 C1571 1.327 . S
C1573 C1589 1.429 . S
C1573 H1595 0.950 . S
C1574 H1570 0.949 . S
C1574 C1582 1.574 . S
C1574 C1590 1.368 . S
H1575 C1583 0.950 . S
H1576 C1581 0.950 . S
H1577 C1582 0.949 . S
H1578 C1584 0.950 . S
H1579 C1585 0.950 . S
H1580 C1586 0.949 . S
C1581 H1576 0.950 . S
C1581 C1583 1.327 . S
C1581 C1587 1.429 . S
C1582 C1574 1.574 . S
C1582 H1577 0.949 . S
C1582 C1588 1.368 . S
C1583 C1567 1.349 . S
C1583 H1575 0.950 . S
C1583 C1581 1.327 . S
C1584 C1572 1.349 . S
C1584 H1578 0.950 . S
C1584 C1585 1.327 . S
C1585 H1579 0.950 . S
C1585 C1584 1.327 . S
C1585 C1589 1.429 . S
C1586 C1569 1.574 . S
C1586 H1580 0.949 . S
C1586 C1590 1.368 . S
C1587 C1568 1.429 . S
C1587 C1581 1.429 . S
C1587 C1588 1.523 . S
C1588 C1569 1.368 . S
C1588 C1582 1.368 . S
C1588 C1587 1.523 . S
C1589 C1573 1.429 . S
C1589 C1585 1.429 . S
C1589 C1590 1.523 . S
C1590 C1574 1.368 . S
C1590 C1586 1.368 . S
C1590 C1589 1.523 . S
H1591 C1566 0.950 . S
H1592 C1568 0.950 . S
H1593 C1569 0.949 . S
H1594 C1571 0.950 . S
H1595 C1573 0.950 . S
C1596 C1597 1.349 . S
C1596 C1598 1.327 . S
C1596 H1621 0.950 . S
C1597 C1596 1.349 . S
C1597 C1613 1.349 . S
C1598 C1596 1.327 . S
C1598 C1617 1.429 . S
C1598 H1622 0.950 . S
C1599 C1616 1.574 . S
C1599 C1618 1.368 . S
C1599 H1623 0.949 . S
H1600 C1604 0.949 . S
C1601 C1602 1.349 . S
C1601 C1603 1.327 . S
C1601 H1624 0.950 . S
C1602 C1601 1.349 . S
C1602 C1614 1.349 . S
C1603 C1601 1.327 . S
C1603 C1619 1.429 . S
C1603 H1625 0.950 . S
C1604 H1600 0.949 . S
C1604 C1612 1.574 . S
C1604 C1620 1.368 . S
H1605 C1613 0.950 . S
H1606 C1611 0.950 . S
H1607 C1612 0.949 . S
H1608 C1614 0.950 . S
H1609 C1615 0.950 . S
H1610 C1616 0.949 . S
C1611 H1606 0.950 . S
C1611 C1613 1.327 . S
C1611 C1617 1.429 . S
C1612 C1604 1.574 . S
C1612 H1607 0.949 . S
C1612 C1618 1.368 . S
C1613 C1597 1.349 . S
C1613 H1605 0.950 . S
C1613 C1611 1.327 . S
C1614 C1602 1.349 . S
C1614 H1608 0.950 . S
C1614 C1615 1.327 . S
C1615 H1609 0.950 . S
C1615 C1614 1.327 . S
C1615 C1619 1.429 . S
C1616 C1599 1.574 . S
C1616 H1610 0.949 . S
C1616 C1620 1.368 . S
C1617 C1598 1.429 . S
C1617 C1611 1.429 . S
C1617 C1618 1.523 . S
C1618 C1599 1.368 . S
C1618 C1612 1.368 . S
C1618 C1617 1.523 . S
C1619 C1603 1.429 . S
C1619 C1615 1.429 . S
C1619 C1620 1.523 . S
C1620 C1604 1.368 . S
C1620 C1616 1.368 . S
C1620 C1619 1.523 . S
H1621 C1596 0.950 . S
H1622 C1598 0.950 . S
H1623 C1599 0.949 . S
H1624 C1601 0.950 . S
H1625 C1603 0.950 . S
C1626 C1627 1.349 . S
C1626 C1628 1.327 . S
C1626 H1651 0.950 . S
C1627 C1626 1.349 . S
C1627 C1643 1.349 . S
C1628 C1626 1.327 . S
C1628 C1647 1.429 . S
C1628 H1652 0.950 . S
C1629 C1646 1.574 . S
C1629 C1648 1.368 . S
C1629 H1653 0.949 . S
H1630 C1634 0.949 . S
C1631 C1632 1.349 . S
C1631 C1633 1.327 . S
C1631 H1654 0.950 . S
C1632 C1631 1.349 . S
C1632 C1644 1.349 . S
C1633 C1631 1.327 . S
C1633 C1649 1.429 . S
C1633 H1655 0.950 . S
C1634 H1630 0.949 . S
C1634 C1642 1.574 . S
C1634 C1650 1.368 . S
H1635 C1643 0.950 . S
H1636 C1641 0.950 1_455 S
H1637 C1642 0.949 . S
H1638 C1644 0.950 . S
H1639 C1645 0.950 . S
H1640 C1646 0.949 . S
C1641 H1636 0.950 1_655 S
C1641 C1643 1.327 . S
C1641 C1647 1.429 . S
C1642 C1634 1.574 . S
C1642 H1637 0.949 . S
C1642 C1648 1.368 . S
C1643 C1627 1.349 . S
C1643 H1635 0.950 . S
C1643 C1641 1.327 . S
C1644 C1632 1.349 . S
C1644 H1638 0.950 . S
C1644 C1645 1.327 . S
C1645 H1639 0.950 . S
C1645 C1644 1.327 . S
C1645 C1649 1.429 . S
C1646 C1629 1.574 . S
C1646 H1640 0.949 . S
C1646 C1650 1.368 . S
C1647 C1628 1.429 . S
C1647 C1641 1.429 . S
C1647 C1648 1.523 1_655 S
C1648 C1629 1.368 . S
C1648 C1642 1.368 . S
C1648 C1647 1.523 1_455 S
C1649 C1633 1.429 . S
C1649 C1645 1.429 . S
C1649 C1650 1.523 . S
C1650 C1634 1.368 . S
C1650 C1646 1.368 . S
C1650 C1649 1.523 . S
H1651 C1626 0.950 . S
H1652 C1628 0.950 . S
H1653 C1629 0.949 . S
H1654 C1631 0.950 . S
H1655 C1633 0.950 . S
C1656 C1657 1.349 . S
C1656 C1658 1.327 . S
C1656 H1681 0.950 . S
C1657 C1656 1.349 . S
C1657 C1673 1.349 . S
C1658 C1656 1.327 . S
C1658 C1677 1.429 . S
C1658 H1682 0.950 . S
C1659 C1676 1.574 . S
C1659 C1678 1.368 . S
C1659 H1683 0.949 . S
H1660 C1664 0.949 . S
C1661 C1662 1.349 . S
C1661 C1663 1.327 . S
C1661 H1684 0.950 . S
C1662 C1661 1.349 . S
C1662 C1674 1.349 . S
C1663 C1661 1.327 . S
C1663 C1679 1.429 . S
C1663 H1685 0.950 . S
C1664 H1660 0.949 . S
C1664 C1672 1.574 . S
C1664 C1680 1.368 . S
H1665 C1673 0.950 . S
H1666 C1671 0.950 . S
H1667 C1672 0.949 . S
H1668 C1674 0.950 . S
H1669 C1675 0.950 . S
H1670 C1676 0.949 . S
C1671 H1666 0.950 . S
C1671 C1673 1.327 . S
C1671 C1677 1.429 . S
C1672 C1664 1.574 . S
C1672 H1667 0.949 . S
C1672 C1678 1.368 . S
C1673 C1657 1.349 . S
C1673 H1665 0.950 . S
C1673 C1671 1.327 . S
C1674 C1662 1.349 . S
C1674 H1668 0.950 . S
C1674 C1675 1.327 . S
C1675 H1669 0.950 . S
C1675 C1674 1.327 . S
C1675 C1679 1.429 . S
C1676 C1659 1.574 . S
C1676 H1670 0.949 . S
C1676 C1680 1.368 . S
C1677 C1658 1.429 . S
C1677 C1671 1.429 . S
C1677 C1678 1.523 . S
C1678 C1659 1.368 . S
C1678 C1672 1.368 . S
C1678 C1677 1.523 . S
C1679 C1663 1.429 . S
C1679 C1675 1.429 . S
C1679 C1680 1.523 . S
C1680 C1664 1.368 . S
C1680 C1676 1.368 . S
C1680 C1679 1.523 . S
H1681 C1656 0.950 . S
H1682 C1658 0.950 . S
H1683 C1659 0.949 . S
H1684 C1661 0.950 . S
H1685 C1663 0.950 . S
C1686 C1687 1.349 . S
C1686 C1688 1.327 . S
C1686 H1711 0.950 . S
C1687 C1686 1.349 . S
C1687 C1703 1.349 . S
C1688 C1686 1.327 . S
C1688 C1707 1.429 . S
C1688 H1712 0.950 . S
C1689 C1706 1.574 . S
C1689 C1708 1.368 . S
C1689 H1713 0.949 . S
H1690 C1694 0.949 . S
C1691 C1692 1.349 . S
C1691 C1693 1.327 . S
C1691 H1714 0.950 . S
C1692 C1691 1.349 . S
C1692 C1704 1.349 . S
C1693 C1691 1.327 . S
C1693 C1709 1.429 . S
C1693 H1715 0.950 . S
C1694 H1690 0.949 . S
C1694 C1702 1.574 . S
C1694 C1710 1.368 . S
H1695 C1703 0.950 . S
H1696 C1701 0.950 . S
H1697 C1702 0.949 . S
H1698 C1704 0.950 . S
H1699 C1705 0.950 . S
H1700 C1706 0.949 . S
C1701 H1696 0.950 . S
C1701 C1703 1.327 . S
C1701 C1707 1.429 . S
C1702 C1694 1.574 . S
C1702 H1697 0.949 . S
C1702 C1708 1.368 . S
C1703 C1687 1.349 . S
C1703 H1695 0.950 . S
C1703 C1701 1.327 . S
C1704 C1692 1.349 . S
C1704 H1698 0.950 . S
C1704 C1705 1.327 . S
C1705 H1699 0.950 . S
C1705 C1704 1.327 . S
C1705 C1709 1.429 . S
C1706 C1689 1.574 . S
C1706 H1700 0.949 . S
C1706 C1710 1.368 . S
C1707 C1688 1.429 . S
C1707 C1701 1.429 . S
C1707 C1708 1.523 . S
C1708 C1689 1.368 . S
C1708 C1702 1.368 . S
C1708 C1707 1.523 . S
C1709 C1693 1.429 . S
C1709 C1705 1.429 . S
C1709 C1710 1.523 1_655 S
C1710 C1694 1.368 . S
C1710 C1706 1.368 . S
C1710 C1709 1.523 1_455 S
H1711 C1686 0.950 . S
H1712 C1688 0.950 . S
H1713 C1689 0.949 . S
H1714 C1691 0.950 . S
H1715 C1693 0.950 . S
C1716 C1717 1.349 . S
C1716 C1718 1.327 . S
C1716 H1741 0.950 . S
C1717 C1716 1.349 . S
C1717 C1733 1.349 . S
C1718 C1716 1.327 . S
C1718 C1737 1.429 . S
C1718 H1742 0.950 . S
C1719 C1736 1.574 . S
C1719 C1738 1.368 . S
C1719 H1743 0.949 . S
H1720 C1724 0.949 . S
C1721 C1722 1.349 . S
C1721 C1723 1.327 . S
C1721 H1744 0.950 . S
C1722 C1721 1.349 . S
C1722 C1734 1.349 . S
C1723 C1721 1.327 . S
C1723 C1739 1.429 . S
C1723 H1745 0.950 . S
C1724 H1720 0.949 . S
C1724 C1732 1.574 . S
C1724 C1740 1.368 . S
H1725 C1733 0.950 . S
H1726 C1731 0.950 . S
H1727 C1732 0.949 . S
H1728 C1734 0.950 . S
H1729 C1735 0.950 . S
H1730 C1736 0.949 . S
C1731 H1726 0.950 . S
C1731 C1733 1.327 . S
C1731 C1737 1.429 . S
C1732 C1724 1.574 . S
C1732 H1727 0.949 . S
C1732 C1738 1.368 . S
C1733 C1717 1.349 . S
C1733 H1725 0.950 . S
C1733 C1731 1.327 . S
C1734 C1722 1.349 . S
C1734 H1728 0.950 . S
C1734 C1735 1.327 . S
C1735 H1729 0.950 . S
C1735 C1734 1.327 . S
C1735 C1739 1.429 . S
C1736 C1719 1.574 . S
C1736 H1730 0.949 . S
C1736 C1740 1.368 . S
C1737 C1718 1.429 . S
C1737 C1731 1.429 . S
C1737 C1738 1.523 . S
C1738 C1719 1.368 . S
C1738 C1732 1.368 . S
C1738 C1737 1.523 . S
C1739 C1723 1.429 . S
C1739 C1735 1.429 . S
C1739 C1740 1.523 . S
C1740 C1724 1.368 . S
C1740 C1736 1.368 . S
C1740 C1739 1.523 . S
H1741 C1716 0.950 . S
H1742 C1718 0.950 . S
H1743 C1719 0.949 . S
H1744 C1721 0.950 . S
H1745 C1723 0.950 . S
C1746 C1747 1.349 . S
C1746 C1748 1.327 . S
C1746 H1771 0.950 . S
C1747 C1746 1.349 . S
C1747 C1763 1.349 . S
C1748 C1746 1.327 . S
C1748 C1767 1.429 . S
C1748 H1772 0.950 . S
C1749 C1766 1.574 . S
C1749 C1768 1.368 . S
C1749 H1773 0.949 . S
H1750 C1754 0.949 . S
C1751 C1752 1.349 . S
C1751 C1753 1.327 . S
C1751 H1774 0.950 . S
C1752 C1751 1.349 . S
C1752 C1764 1.349 . S
C1753 C1751 1.327 . S
C1753 C1769 1.429 . S
C1753 H1775 0.950 . S
C1754 H1750 0.949 . S
C1754 C1762 1.574 . S
C1754 C1770 1.368 . S
H1755 C1763 0.950 . S
H1756 C1761 0.950 . S
H1757 C1762 0.949 . S
H1758 C1764 0.950 . S
H1759 C1765 0.950 . S
H1760 C1766 0.949 . S
C1761 H1756 0.950 . S
C1761 C1763 1.327 . S
C1761 C1767 1.429 . S
C1762 C1754 1.574 . S
C1762 H1757 0.949 . S
C1762 C1768 1.368 . S
C1763 C1747 1.349 . S
C1763 H1755 0.950 . S
C1763 C1761 1.327 . S
C1764 C1752 1.349 . S
C1764 H1758 0.950 . S
C1764 C1765 1.327 . S
C1765 H1759 0.950 . S
C1765 C1764 1.327 . S
C1765 C1769 1.429 . S
C1766 C1749 1.574 . S
C1766 H1760 0.949 . S
C1766 C1770 1.368 . S
C1767 C1748 1.429 . S
C1767 C1761 1.429 . S
C1767 C1768 1.523 . S
C1768 C1749 1.368 . S
C1768 C1762 1.368 . S
C1768 C1767 1.523 . S
C1769 C1753 1.429 . S
C1769 C1765 1.429 . S
C1769 C1770 1.523 . S
C1770 C1754 1.368 . S
C1770 C1766 1.368 . S
C1770 C1769 1.523 . S
H1771 C1746 0.950 . S
H1772 C1748 0.950 . S
H1773 C1749 0.949 . S
H1774 C1751 0.950 . S
H1775 C1753 0.950 . S
C1776 C1777 1.349 . S
C1776 C1778 1.327 . S
C1776 H1801 0.950 . S
C1777 C1776 1.349 . S
C1777 C1793 1.349 . S
C1778 C1776 1.327 . S
C1778 C1797 1.429 . S
C1778 H1802 0.950 . S
C1779 C1796 1.574 . S
C1779 C1798 1.368 . S
C1779 H1803 0.949 . S
H1780 C1784 0.949 . S
C1781 C1782 1.349 . S
C1781 C1783 1.327 . S
C1781 H1804 0.950 . S
C1782 C1781 1.349 . S
C1782 C1794 1.349 . S
C1783 C1781 1.327 . S
C1783 C1799 1.429 . S
C1783 H1805 0.950 . S
C1784 H1780 0.949 . S
C1784 C1792 1.574 . S
C1784 C1800 1.368 . S
H1785 C1793 0.950 . S
H1786 C1791 0.950 . S
H1787 C1792 0.949 . S
H1788 C1794 0.950 . S
H1789 C1795 0.950 . S
H1790 C1796 0.949 . S
C1791 H1786 0.950 . S
C1791 C1793 1.327 . S
C1791 C1797 1.429 . S
C1792 C1784 1.574 . S
C1792 H1787 0.949 . S
C1792 C1798 1.368 . S
C1793 C1777 1.349 . S
C1793 H1785 0.950 . S
C1793 C1791 1.327 . S
C1794 C1782 1.349 . S
C1794 H1788 0.950 . S
C1794 C1795 1.327 . S
C1795 H1789 0.950 . S
C1795 C1794 1.327 . S
C1795 C1799 1.429 . S
C1796 C1779 1.574 . S
C1796 H1790 0.949 . S
C1796 C1800 1.368 . S
C1797 C1778 1.429 . S
C1797 C1791 1.429 . S
C1797 C1798 1.523 . S
C1798 C1779 1.368 . S
C1798 C1792 1.368 . S
C1798 C1797 1.523 . S
C1799 C1783 1.429 . S
C1799 C1795 1.429 . S
C1799 C1800 1.523 . S
C1800 C1784 1.368 . S
C1800 C1796 1.368 . S
C1800 C1799 1.523 . S
H1801 C1776 0.950 . S
H1802 C1778 0.950 . S
H1803 C1779 0.949 . S
H1804 C1781 0.950 . S
H1805 C1783 0.950 . S
C1806 C1807 1.349 . S
C1806 C1808 1.327 . S
C1806 H1831 0.950 . S
C1807 C1806 1.349 . S
C1807 C1823 1.349 . S
C1808 C1806 1.327 . S
C1808 C1827 1.429 . S
C1808 H1832 0.950 . S
C1809 C1826 1.574 . S
C1809 C1828 1.368 . S
C1809 H1833 0.949 . S
H1810 C1814 0.949 . S
C1811 C1812 1.349 . S
C1811 C1813 1.327 . S
C1811 H1834 0.950 . S
C1812 C1811 1.349 . S
C1812 C1824 1.349 . S
C1813 C1811 1.327 . S
C1813 C1829 1.429 . S
C1813 H1835 0.950 . S
C1814 H1810 0.949 . S
C1814 C1822 1.574 . S
C1814 C1830 1.368 . S
H1815 C1823 0.950 . S
H1816 C1821 0.950 . S
H1817 C1822 0.949 . S
H1818 C1824 0.950 . S
H1819 C1825 0.950 . S
H1820 C1826 0.949 . S
C1821 H1816 0.950 . S
C1821 C1823 1.327 . S
C1821 C1827 1.429 . S
C1822 C1814 1.574 . S
C1822 H1817 0.949 . S
C1822 C1828 1.368 . S
C1823 C1807 1.349 . S
C1823 H1815 0.950 . S
C1823 C1821 1.327 . S
C1824 C1812 1.349 . S
C1824 H1818 0.950 . S
C1824 C1825 1.327 . S
C1825 H1819 0.950 . S
C1825 C1824 1.327 . S
C1825 C1829 1.429 . S
C1826 C1809 1.574 . S
C1826 H1820 0.949 . S
C1826 C1830 1.368 . S
C1827 C1808 1.429 . S
C1827 C1821 1.429 . S
C1827 C1828 1.523 . S
C1828 C1809 1.368 . S
C1828 C1822 1.368 . S
C1828 C1827 1.523 . S
C1829 C1813 1.429 . S
C1829 C1825 1.429 . S
C1829 C1830 1.523 . S
C1830 C1814 1.368 . S
C1830 C1826 1.368 . S
C1830 C1829 1.523 . S
H1831 C1806 0.950 . S
H1832 C1808 0.950 . S
H1833 C1809 0.949 . S
H1834 C1811 0.950 . S
H1835 C1813 0.950 . S
C1836 C1837 1.349 . S
C1836 C1838 1.327 . S
C1836 H1861 0.950 . S
C1837 C1836 1.349 . S
C1837 C1853 1.349 . S
C1838 C1836 1.327 . S
C1838 C1857 1.429 . S
C1838 H1862 0.950 . S
C1839 C1856 1.574 . S
C1839 C1858 1.368 . S
C1839 H1863 0.949 . S
H1840 C1844 0.949 . S
C1841 C1842 1.349 . S
C1841 C1843 1.327 . S
C1841 H1864 0.950 . S
C1842 C1841 1.349 . S
C1842 C1854 1.349 . S
C1843 C1841 1.327 . S
C1843 C1859 1.429 . S
C1843 H1865 0.950 . S
C1844 H1840 0.949 . S
C1844 C1852 1.574 . S
C1844 C1860 1.368 . S
H1845 C1853 0.950 . S
H1846 C1851 0.950 . S
H1847 C1852 0.949 . S
H1848 C1854 0.950 . S
H1849 C1855 0.950 . S
H1850 C1856 0.949 . S
C1851 H1846 0.950 . S
C1851 C1853 1.327 . S
C1851 C1857 1.429 . S
C1852 C1844 1.574 . S
C1852 H1847 0.949 . S
C1852 C1858 1.368 . S
C1853 C1837 1.349 . S
C1853 H1845 0.950 . S
C1853 C1851 1.327 . S
C1854 C1842 1.349 . S
C1854 H1848 0.950 . S
C1854 C1855 1.327 . S
C1855 H1849 0.950 . S
C1855 C1854 1.327 . S
C1855 C1859 1.429 . S
C1856 C1839 1.574 . S
C1856 H1850 0.949 . S
C1856 C1860 1.368 . S
C1857 C1838 1.429 . S
C1857 C1851 1.429 . S
C1857 C1858 1.523 . S
C1858 C1839 1.368 . S
C1858 C1852 1.368 . S
C1858 C1857 1.523 . S
C1859 C1843 1.429 . S
C1859 C1855 1.429 . S
C1859 C1860 1.523 . S
C1860 C1844 1.368 . S
C1860 C1856 1.368 . S
C1860 C1859 1.523 . S
H1861 C1836 0.950 . S
H1862 C1838 0.950 . S
H1863 C1839 0.949 . S
H1864 C1841 0.950 . S
H1865 C1843 0.950 . S
C1866 C1867 1.349 . S
C1866 C1868 1.327 . S
C1866 H1891 0.950 . S
C1867 C1866 1.349 . S
C1867 C1883 1.349 . S
C1868 C1866 1.327 . S
C1868 C1887 1.429 . S
C1868 H1892 0.950 . S
C1869 C1886 1.574 . S
C1869 C1888 1.368 . S
C1869 H1893 0.949 . S
H1870 C1874 0.949 . S
C1871 C1872 1.349 . S
C1871 C1873 1.327 . S
C1871 H1894 0.950 . S
C1872 C1871 1.349 . S
C1872 C1884 1.349 . S
C1873 C1871 1.327 . S
C1873 C1889 1.429 . S
C1873 H1895 0.950 . S
C1874 H1870 0.949 . S
C1874 C1882 1.574 . S
C1874 C1890 1.368 . S
H1875 C1883 0.950 . S
H1876 C1881 0.950 . S
H1877 C1882 0.949 . S
H1878 C1884 0.950 . S
H1879 C1885 0.950 1_655 S
H1880 C1886 0.922 1_455 S
C1881 H1876 0.950 . S
C1881 C1883 1.327 . S
C1881 C1887 1.429 . S
C1882 C1874 1.574 . S
C1882 H1877 0.949 . S
C1882 C1888 1.368 . S
C1883 C1867 1.349 . S
C1883 H1875 0.950 . S
C1883 C1881 1.327 . S
C1884 C1872 1.349 . S
C1884 H1878 0.950 . S
C1884 C1885 1.327 . S
C1885 H1879 0.950 1_455 S
C1885 C1884 1.327 . S
C1885 C1889 1.429 . S
C1886 C1869 1.574 . S
C1886 H1880 0.922 1_655 S
C1886 C1890 1.368 . S
C1887 C1868 1.429 . S
C1887 C1881 1.429 . S
C1887 C1888 1.523 . S
C1888 C1869 1.368 . S
C1888 C1882 1.368 . S
C1888 C1887 1.523 . S
C1889 C1873 1.429 . S
C1889 C1885 1.429 . S
C1889 C1890 1.523 1_455 S
C1890 C1874 1.368 . S
C1890 C1886 1.368 . S
C1890 C1889 1.523 1_655 S
H1891 C1866 0.950 . S
H1892 C1868 0.950 . S
H1893 C1869 0.949 . S
H1894 C1871 0.950 . S
H1895 C1873 0.950 . S
C1896 C1897 1.349 . S
C1896 C1898 1.327 . S
C1896 H1921 0.950 . S
C1897 C1896 1.349 . S
C1897 C1913 1.349 . S
C1898 C1896 1.327 . S
C1898 C1917 1.429 . S
C1898 H1922 0.950 . S
C1899 C1916 1.574 . S
C1899 C1918 1.368 . S
C1899 H1923 0.949 . S
H1900 C1904 0.949 . S
C1901 C1902 1.349 . S
C1901 C1903 1.327 . S
C1901 H1924 0.950 . S
C1902 C1901 1.349 . S
C1902 C1914 1.349 . S
C1903 C1901 1.327 . S
C1903 C1919 1.429 . S
C1903 H1925 0.950 . S
C1904 H1900 0.949 . S
C1904 C1912 1.574 . S
C1904 C1920 1.368 . S
H1905 C1913 0.950 . S
H1906 C1911 0.950 . S
H1907 C1912 0.949 . S
H1908 C1914 0.950 . S
H1909 C1915 0.950 . S
H1910 C1916 0.949 . S
C1911 H1906 0.950 . S
C1911 C1913 1.327 . S
C1911 C1917 1.429 . S
C1912 C1904 1.574 . S
C1912 H1907 0.949 . S
C1912 C1918 1.368 . S
C1913 C1897 1.349 . S
C1913 H1905 0.950 . S
C1913 C1911 1.327 . S
C1914 C1902 1.349 . S
C1914 H1908 0.950 . S
C1914 C1915 1.327 . S
C1915 H1909 0.950 . S
C1915 C1914 1.327 . S
C1915 C1919 1.429 . S
C1916 C1899 1.574 . S
C1916 H1910 0.949 . S
C1916 C1920 1.368 . S
C1917 C1898 1.429 . S
C1917 C1911 1.429 . S
C1917 C1918 1.523 . S
C1918 C1899 1.368 . S
C1918 C1912 1.368 . S
C1918 C1917 1.523 . S
C1919 C1903 1.429 . S
C1919 C1915 1.429 . S
C1919 C1920 1.523 . S
C1920 C1904 1.368 . S
C1920 C1916 1.368 . S
C1920 C1919 1.523 . S
H1921 C1896 0.950 . S
H1922 C1898 0.950 . S
H1923 C1899 0.949 . S
H1924 C1901 0.950 . S
H1925 C1903 0.950 . S
C1926 C1927 1.349 . S
C1926 C1928 1.327 . S
C1926 H1951 0.950 . S
C1927 C1926 1.349 . S
C1927 C1943 1.349 . S
C1928 C1926 1.327 . S
C1928 C1947 1.429 . S
C1928 H1952 0.950 . S
C1929 C1946 1.574 . S
C1929 C1948 1.368 . S
C1929 H1953 0.949 . S
H1930 C1934 0.949 . S
C1931 C1932 1.349 . S
C1931 C1933 1.327 . S
C1931 H1954 0.950 . S
C1932 C1931 1.349 . S
C1932 C1944 1.349 . S
C1933 C1931 1.327 . S
C1933 C1949 1.429 . S
C1933 H1955 0.950 . S
C1934 H1930 0.949 . S
C1934 C1942 1.574 . S
C1934 C1950 1.368 . S
H1935 C1943 0.950 . S
H1936 C1941 0.950 . S
H1937 C1942 0.949 . S
H1938 C1944 0.950 . S
H1939 C1945 0.950 . S
H1940 C1946 0.949 . S
C1941 H1936 0.950 . S
C1941 C1943 1.327 . S
C1941 C1947 1.429 . S
C1942 C1934 1.574 . S
C1942 H1937 0.949 . S
C1942 C1948 1.368 . S
C1943 C1927 1.349 . S
C1943 H1935 0.950 . S
C1943 C1941 1.327 . S
C1944 C1932 1.349 . S
C1944 H1938 0.950 . S
C1944 C1945 1.327 . S
C1945 H1939 0.950 . S
C1945 C1944 1.327 . S
C1945 C1949 1.429 . S
C1946 C1929 1.574 . S
C1946 H1940 0.949 . S
C1946 C1950 1.368 . S
C1947 C1928 1.429 . S
C1947 C1941 1.429 . S
C1947 C1948 1.523 . S
C1948 C1929 1.368 . S
C1948 C1942 1.368 . S
C1948 C1947 1.523 . S
C1949 C1933 1.429 . S
C1949 C1945 1.429 . S
C1949 C1950 1.523 1_455 S
C1950 C1934 1.368 . S
C1950 C1946 1.368 . S
C1950 C1949 1.523 1_655 S
H1951 C1926 0.950 . S
H1952 C1928 0.950 . S
H1953 C1929 0.949 . S
H1954 C1931 0.950 . S
H1955 C1933 0.950 . S
C1956 C1957 1.349 . S
C1956 C1958 1.327 . S
C1956 H1981 0.950 . S
C1957 C1956 1.349 . S
C1957 C1973 1.349 . S
C1958 C1956 1.327 . S
C1958 C1977 1.429 . S
C1958 H1982 0.950 . S
C1959 C1976 1.574 . S
C1959 C1978 1.368 . S
C1959 H1983 0.949 . S
H1960 C1964 0.949 . S
C1961 C1962 1.349 . S
C1961 C1963 1.327 . S
C1961 H1984 0.950 . S
C1962 C1961 1.349 . S
C1962 C1974 1.349 . S
C1963 C1961 1.327 . S
C1963 C1979 1.429 . S
C1963 H1985 0.950 . S
C1964 H1960 0.949 . S
C1964 C1972 1.574 . S
C1964 C1980 1.368 . S
H1965 C1973 0.950 . S
H1966 C1971 0.950 . S
H1967 C1972 0.949 . S
H1968 C1974 0.950 . S
H1969 C1975 0.950 . S
H1970 C1976 0.949 . S
C1971 H1966 0.950 . S
C1971 C1973 1.327 . S
C1971 C1977 1.429 . S
C1972 C1964 1.574 . S
C1972 H1967 0.949 . S
C1972 C1978 1.368 . S
C1973 C1957 1.349 . S
C1973 H1965 0.950 . S
C1973 C1971 1.327 . S
C1974 C1962 1.349 . S
C1974 H1968 0.950 . S
C1974 C1975 1.327 . S
C1975 H1969 0.950 . S
C1975 C1974 1.327 . S
C1975 C1979 1.429 . S
C1976 C1959 1.574 . S
C1976 H1970 0.949 . S
C1976 C1980 1.368 . S
C1977 C1958 1.429 . S
C1977 C1971 1.429 . S
C1977 C1978 1.523 . S
C1978 C1959 1.368 . S
C1978 C1972 1.368 . S
C1978 C1977 1.523 . S
C1979 C1963 1.429 . S
C1979 C1975 1.429 . S
C1979 C1980 1.523 . S
C1980 C1964 1.368 . S
C1980 C1976 1.368 . S
C1980 C1979 1.523 . S
H1981 C1956 0.950 . S
H1982 C1958 0.950 . S
H1983 C1959 0.949 . S
H1984 C1961 0.950 . S
H1985 C1963 0.950 . S
C1986 C1987 1.349 . S
C1986 C1988 1.327 . S
C1986 H2011 0.950 . S
C1987 C1986 1.349 . S
C1987 C2003 1.349 . S
C1988 C1986 1.327 . S
C1988 C2007 1.429 . S
C1988 H2012 0.950 . S
C1989 C2006 1.574 . S
C1989 C2008 1.368 . S
C1989 H2013 0.949 . S
H1990 C1994 0.949 . S
C1991 C1992 1.349 . S
C1991 C1993 1.327 . S
C1991 H2014 0.950 . S
C1992 C1991 1.349 . S
C1992 C2004 1.349 . S
C1993 C1991 1.327 . S
C1993 C2009 1.429 . S
C1993 H2015 0.950 . S
C1994 H1990 0.949 . S
C1994 C2002 1.574 . S
C1994 C2010 1.368 . S
H1995 C2003 0.950 . S
H1996 C2001 0.950 . S
H1997 C2002 0.949 . S
H1998 C2004 0.950 . S
H1999 C2005 0.950 . S
H2000 C2006 0.949 . S
C2001 H1996 0.950 . S
C2001 C2003 1.327 . S
C2001 C2007 1.429 . S
C2002 C1994 1.574 . S
C2002 H1997 0.949 . S
C2002 C2008 1.368 . S
C2003 C1987 1.349 . S
C2003 H1995 0.950 . S
C2003 C2001 1.327 . S
C2004 C1992 1.349 . S
C2004 H1998 0.950 . S
C2004 C2005 1.327 . S
C2005 H1999 0.950 . S
C2005 C2004 1.327 . S
C2005 C2009 1.429 . S
C2006 C1989 1.574 . S
C2006 H2000 0.949 . S
C2006 C2010 1.368 . S
C2007 C1988 1.429 . S
C2007 C2001 1.429 . S
C2007 C2008 1.523 . S
C2008 C1989 1.368 . S
C2008 C2002 1.368 . S
C2008 C2007 1.523 . S
C2009 C1993 1.429 . S
C2009 C2005 1.429 . S
C2009 C2010 1.523 . S
C2010 C1994 1.368 . S
C2010 C2006 1.368 . S
C2010 C2009 1.523 . S
H2011 C1986 0.950 . S
H2012 C1988 0.950 . S
H2013 C1989 0.949 . S
H2014 C1991 0.950 . S
H2015 C1993 0.950 . S
C2016 C2017 1.349 . S
C2016 C2018 1.327 . S
C2016 H2041 0.950 . S
C2017 C2016 1.349 . S
C2017 C2033 1.349 . S
C2018 C2016 1.327 . S
C2018 C2037 1.429 . S
C2018 H2042 0.950 . S
C2019 C2036 1.574 . S
C2019 C2038 1.368 . S
C2019 H2043 0.949 . S
H2020 C2024 0.949 . S
C2021 C2022 1.349 . S
C2021 C2023 1.327 . S
C2021 H2044 0.950 . S
C2022 C2021 1.349 . S
C2022 C2034 1.349 . S
C2023 C2021 1.327 . S
C2023 C2039 1.429 . S
C2023 H2045 0.950 . S
C2024 H2020 0.949 . S
C2024 C2032 1.574 . S
C2024 C2040 1.368 . S
H2025 C2033 0.950 . S
H2026 C2031 0.950 . S
H2027 C2032 0.949 . S
H2028 C2034 0.950 . S
H2029 C2035 0.950 . S
H2030 C2036 0.949 . S
C2031 H2026 0.950 . S
C2031 C2033 1.327 . S
C2031 C2037 1.429 . S
C2032 C2024 1.574 . S
C2032 H2027 0.949 . S
C2032 C2038 1.368 1_565 S
C2033 C2017 1.349 . S
C2033 H2025 0.950 . S
C2033 C2031 1.327 . S
C2034 C2022 1.349 . S
C2034 H2028 0.950 . S
C2034 C2035 1.327 . S
C2035 H2029 0.950 . S
C2035 C2034 1.327 . S
C2035 C2039 1.429 . S
C2036 C2019 1.574 . S
C2036 H2030 0.949 . S
C2036 C2040 1.368 1_545 S
C2037 C2018 1.429 . S
C2037 C2031 1.429 . S
C2037 C2038 1.523 . S
C2038 C2019 1.368 . S
C2038 C2032 1.368 1_545 S
C2038 C2037 1.523 . S
C2039 C2023 1.429 . S
C2039 C2035 1.429 . S
C2039 C2040 1.523 . S
C2040 C2024 1.368 . S
C2040 C2036 1.368 1_565 S
C2040 C2039 1.523 . S
H2041 C2016 0.950 . S
H2042 C2018 0.950 . S
H2043 C2019 0.949 . S
H2044 C2021 0.950 . S
H2045 C2023 0.950 . S
C2046 C2047 1.349 . S
C2046 C2048 1.327 . S
C2046 H2071 0.950 . S
C2047 C2046 1.349 . S
C2047 C2063 1.349 . S
C2048 C2046 1.327 . S
C2048 C2067 1.429 . S
C2048 H2072 0.950 . S
C2049 C2066 1.574 . S
C2049 C2068 1.368 . S
C2049 H2073 0.949 . S
H2050 C2054 0.949 . S
C2051 C2052 1.349 . S
C2051 C2053 1.327 . S
C2051 H2074 0.950 . S
C2052 C2051 1.349 . S
C2052 C2064 1.349 . S
C2053 C2051 1.327 . S
C2053 C2069 1.429 . S
C2053 H2075 0.950 . S
C2054 H2050 0.949 . S
C2054 C2062 1.574 . S
C2054 C2070 1.368 . S
H2055 C2063 0.950 . S
H2056 C2061 0.950 . S
H2057 C2062 0.949 . S
H2058 C2064 0.950 . S
H2059 C2065 0.950 . S
H2060 C2066 0.949 . S
C2061 H2056 0.950 . S
C2061 C2063 1.327 . S
C2061 C2067 1.429 . S
C2062 C2054 1.574 . S
C2062 H2057 0.949 . S
C2062 C2068 1.368 . S
C2063 C2047 1.349 . S
C2063 H2055 0.950 . S
C2063 C2061 1.327 . S
C2064 C2052 1.349 . S
C2064 H2058 0.950 . S
C2064 C2065 1.327 . S
C2065 H2059 0.950 . S
C2065 C2064 1.327 . S
C2065 C2069 1.429 . S
C2066 C2049 1.574 . S
C2066 H2060 0.949 . S
C2066 C2070 1.368 . S
C2067 C2048 1.429 . S
C2067 C2061 1.429 . S
C2067 C2068 1.523 . S
C2068 C2049 1.368 . S
C2068 C2062 1.368 . S
C2068 C2067 1.523 . S
C2069 C2053 1.429 . S
C2069 C2065 1.429 . S
C2069 C2070 1.523 . S
C2070 C2054 1.368 . S
C2070 C2066 1.368 . S
C2070 C2069 1.523 . S
H2071 C2046 0.950 . S
H2072 C2048 0.950 . S
H2073 C2049 0.949 . S
H2074 C2051 0.950 . S
H2075 C2053 0.950 . S
C2076 C2077 1.349 . S
C2076 C2078 1.327 . S
C2076 H2101 0.950 . S
C2077 C2076 1.349 . S
C2077 C2093 1.349 . S
C2078 C2076 1.327 . S
C2078 C2097 1.429 . S
C2078 H2102 0.950 . S
C2079 C2096 1.574 . S
C2079 C2098 1.368 . S
C2079 H2103 0.949 . S
H2080 C2084 0.949 . S
C2081 C2082 1.349 . S
C2081 C2083 1.327 . S
C2081 H2104 0.950 . S
C2082 C2081 1.349 . S
C2082 C2094 1.349 . S
C2083 C2081 1.327 . S
C2083 C2099 1.429 . S
C2083 H2105 0.950 . S
C2084 H2080 0.949 . S
C2084 C2092 1.574 . S
C2084 C2100 1.368 . S
H2085 C2093 0.950 . S
H2086 C2091 0.950 . S
H2087 C2092 0.949 . S
H2088 C2094 0.950 . S
H2089 C2095 0.950 . S
H2090 C2096 0.949 . S
C2091 H2086 0.950 . S
C2091 C2093 1.327 . S
C2091 C2097 1.429 . S
C2092 C2084 1.574 . S
C2092 H2087 0.949 . S
C2092 C2098 1.368 1_565 S
C2093 C2077 1.349 . S
C2093 H2085 0.950 . S
C2093 C2091 1.327 . S
C2094 C2082 1.349 . S
C2094 H2088 0.950 . S
C2094 C2095 1.327 . S
C2095 H2089 0.950 . S
C2095 C2094 1.327 . S
C2095 C2099 1.429 . S
C2096 C2079 1.574 . S
C2096 H2090 0.949 . S
C2096 C2100 1.368 1_545 S
C2097 C2078 1.429 . S
C2097 C2091 1.429 . S
C2097 C2098 1.523 . S
C2098 C2079 1.368 . S
C2098 C2092 1.368 1_545 S
C2098 C2097 1.523 . S
C2099 C2083 1.429 . S
C2099 C2095 1.429 . S
C2099 C2100 1.523 . S
C2100 C2084 1.368 . S
C2100 C2096 1.368 1_565 S
C2100 C2099 1.523 . S
H2101 C2076 0.950 . S
H2102 C2078 0.950 . S
H2103 C2079 0.949 . S
H2104 C2081 0.950 . S
H2105 C2083 0.950 . S
C2106 C2107 1.349 . S
C2106 C2108 1.327 . S
C2106 H2131 0.950 . S
C2107 C2106 1.349 . S
C2107 C2123 1.349 . S
C2108 C2106 1.327 . S
C2108 C2127 1.429 . S
C2108 H2132 0.950 . S
C2109 C2126 1.515 1_554 S
C2109 C2128 1.421 . S
C2109 H2133 0.959 . S
H2110 C2114 0.959 . S
C2111 C2112 1.349 . S
C2111 C2113 1.327 . S
C2111 H2134 0.950 . S
C2112 C2111 1.349 . S
C2112 C2124 1.349 . S
C2113 C2111 1.327 . S
C2113 C2129 1.429 . S
C2113 H2135 0.950 . S
C2114 H2110 0.959 . S
C2114 C2122 1.515 1_556 S
C2114 C2130 1.421 . S
H2115 C2123 0.950 . S
H2116 C2121 0.950 . S
H2117 C2122 0.949 . S
H2118 C2124 0.950 . S
H2119 C2125 0.950 . S
H2120 C2126 0.949 . S
C2121 H2116 0.950 . S
C2121 C2123 1.327 . S
C2121 C2127 1.429 . S
C2122 C2114 1.515 1_554 S
C2122 H2117 0.949 . S
C2122 C2128 1.368 . S
C2123 C2107 1.349 . S
C2123 H2115 0.950 . S
C2123 C2121 1.327 . S
C2124 C2112 1.349 . S
C2124 H2118 0.950 . S
C2124 C2125 1.327 . S
C2125 H2119 0.950 . S
C2125 C2124 1.327 . S
C2125 C2129 1.429 . S
C2126 C2109 1.515 1_556 S
C2126 H2120 0.949 . S
C2126 C2130 1.368 . S
C2127 C2108 1.429 . S
C2127 C2121 1.429 . S
C2127 C2128 1.523 . S
C2128 C2109 1.421 . S
C2128 C2122 1.368 . S
C2128 C2127 1.523 . S
C2129 C2113 1.429 . S
C2129 C2125 1.429 . S
C2129 C2130 1.523 . S
C2130 C2114 1.421 . S
C2130 C2126 1.368 . S
C2130 C2129 1.523 . S
H2131 C2106 0.950 . S
H2132 C2108 0.950 . S
H2133 C2109 0.959 . S
H2134 C2111 0.950 . S
H2135 C2113 0.950 . S
C2136 C2137 1.349 . S
C2136 C2138 1.327 . S
C2136 H2161 0.950 . S
C2137 C2136 1.349 . S
C2137 C2153 1.349 . S
C2138 C2136 1.327 . S
C2138 C2157 1.429 . S
C2138 H2162 0.950 . S
C2139 C2156 1.574 1_565 S
C2139 C2158 1.368 . S
C2139 H2163 0.949 . S
H2140 C2144 0.949 . S
C2141 C2142 1.349 . S
C2141 C2143 1.327 . S
C2141 H2164 0.950 . S
C2142 C2141 1.349 . S
C2142 C2154 1.349 . S
C2143 C2141 1.327 . S
C2143 C2159 1.429 . S
C2143 H2165 0.950 . S
C2144 H2140 0.949 . S
C2144 C2152 1.574 1_545 S
C2144 C2160 1.368 . S
H2145 C2153 0.950 . S
H2146 C2151 0.950 . S
H2147 C2152 0.949 . S
H2148 C2154 0.950 . S
H2149 C2155 0.950 . S
H2150 C2156 0.949 . S
C2151 H2146 0.950 . S
C2151 C2153 1.327 . S
C2151 C2157 1.429 . S
C2152 C2144 1.574 1_565 S
C2152 H2147 0.949 . S
C2152 C2158 1.368 . S
C2153 C2137 1.349 . S
C2153 H2145 0.950 . S
C2153 C2151 1.327 . S
C2154 C2142 1.349 . S
C2154 H2148 0.950 . S
C2154 C2155 1.327 . S
C2155 H2149 0.950 . S
C2155 C2154 1.327 . S
C2155 C2159 1.429 . S
C2156 C2139 1.574 1_545 S
C2156 H2150 0.949 . S
C2156 C2160 1.368 . S
C2157 C2138 1.429 . S
C2157 C2151 1.429 . S
C2157 C2158 1.523 . S
C2158 C2139 1.368 . S
C2158 C2152 1.368 . S
C2158 C2157 1.523 . S
C2159 C2143 1.429 . S
C2159 C2155 1.429 . S
C2159 C2160 1.523 . S
C2160 C2144 1.368 . S
C2160 C2156 1.368 . S
C2160 C2159 1.523 . S
H2161 C2136 0.950 . S
H2162 C2138 0.950 . S
H2163 C2139 0.949 . S
H2164 C2141 0.950 . S
H2165 C2143 0.950 . S
C2166 C2167 1.349 . S
C2166 C2168 1.327 . S
C2166 H2191 0.950 . S
C2167 C2166 1.349 . S
C2167 C2183 1.349 . S
C2168 C2166 1.327 . S
C2168 C2187 1.429 . S
C2168 H2192 0.950 . S
C2169 C2186 1.574 . S
C2169 C2188 1.368 . S
C2169 H2193 0.949 . S
H2170 C2174 0.949 . S
C2171 C2172 1.349 . S
C2171 C2173 1.327 . S
C2171 H2194 0.950 . S
C2172 C2171 1.349 . S
C2172 C2184 1.349 . S
C2173 C2171 1.327 . S
C2173 C2189 1.429 . S
C2173 H2195 0.950 . S
C2174 H2170 0.949 . S
C2174 C2182 1.574 . S
C2174 C2190 1.368 . S
H2175 C2183 0.950 . S
H2176 C2181 0.950 . S
H2177 C2182 0.949 . S
H2178 C2184 0.950 . S
H2179 C2185 0.950 . S
H2180 C2186 0.949 . S
C2181 H2176 0.950 . S
C2181 C2183 1.327 . S
C2181 C2187 1.429 . S
C2182 C2174 1.574 . S
C2182 H2177 0.949 . S
C2182 C2188 1.368 . S
C2183 C2167 1.349 . S
C2183 H2175 0.950 . S
C2183 C2181 1.327 . S
C2184 C2172 1.349 . S
C2184 H2178 0.950 . S
C2184 C2185 1.327 . S
C2185 H2179 0.950 . S
C2185 C2184 1.327 . S
C2185 C2189 1.429 . S
C2186 C2169 1.574 . S
C2186 H2180 0.949 . S
C2186 C2190 1.368 . S
C2187 C2168 1.429 . S
C2187 C2181 1.429 . S
C2187 C2188 1.523 . S
C2188 C2169 1.368 . S
C2188 C2182 1.368 . S
C2188 C2187 1.523 . S
C2189 C2173 1.429 . S
C2189 C2185 1.429 . S
C2189 C2190 1.523 . S
C2190 C2174 1.368 . S
C2190 C2186 1.368 . S
C2190 C2189 1.523 . S
H2191 C2166 0.950 . S
H2192 C2168 0.950 . S
H2193 C2169 0.949 . S
H2194 C2171 0.950 . S
H2195 C2173 0.950 . S
C2196 C2197 1.349 . S
C2196 C2198 1.327 . S
C2196 H2221 0.950 . S
C2197 C2196 1.349 . S
C2197 C2213 1.349 . S
C2198 C2196 1.327 . S
C2198 C2217 1.429 . S
C2198 H2222 0.950 . S
C2199 C2216 1.574 . S
C2199 C2218 1.368 . S
C2199 H2223 0.949 . S
H2200 C2204 0.949 . S
C2201 C2202 1.349 . S
C2201 C2203 1.327 . S
C2201 H2224 0.950 . S
C2202 C2201 1.349 . S
C2202 C2214 1.349 . S
C2203 C2201 1.327 . S
C2203 C2219 1.429 . S
C2203 H2225 0.950 . S
C2204 H2200 0.949 . S
C2204 C2212 1.574 . S
C2204 C2220 1.368 . S
H2205 C2213 0.950 . S
H2206 C2211 0.950 . S
H2207 C2212 0.949 . S
H2208 C2214 0.950 . S
H2209 C2215 0.950 . S
H2210 C2216 0.949 . S
C2211 H2206 0.950 . S
C2211 C2213 1.327 . S
C2211 C2217 1.429 . S
C2212 C2204 1.574 . S
C2212 H2207 0.949 . S
C2212 C2218 1.368 1_565 S
C2213 C2197 1.349 . S
C2213 H2205 0.950 . S
C2213 C2211 1.327 . S
C2214 C2202 1.349 . S
C2214 H2208 0.950 . S
C2214 C2215 1.327 . S
C2215 H2209 0.950 . S
C2215 C2214 1.327 . S
C2215 C2219 1.429 . S
C2216 C2199 1.574 . S
C2216 H2210 0.949 . S
C2216 C2220 1.368 1_545 S
C2217 C2198 1.429 . S
C2217 C2211 1.429 . S
C2217 C2218 1.523 . S
C2218 C2199 1.368 . S
C2218 C2212 1.368 1_545 S
C2218 C2217 1.523 . S
C2219 C2203 1.429 . S
C2219 C2215 1.429 . S
C2219 C2220 1.523 . S
C2220 C2204 1.368 . S
C2220 C2216 1.368 1_565 S
C2220 C2219 1.523 . S
H2221 C2196 0.950 . S
H2222 C2198 0.950 . S
H2223 C2199 0.949 . S
H2224 C2201 0.950 . S
H2225 C2203 0.950 . S
C2226 C2227 1.349 . S
C2226 C2228 1.327 . S
C2226 H2251 0.950 . S
C2227 C2226 1.349 . S
C2227 C2243 1.349 . S
C2228 C2226 1.327 . S
C2228 C2247 1.429 . S
C2228 H2252 0.950 . S
C2229 C2246 1.515 1_556 S
C2229 C2248 1.421 . S
C2229 H2253 0.959 . S
H2230 C2234 0.959 . S
C2231 C2232 1.349 . S
C2231 C2233 1.327 . S
C2231 H2254 0.950 . S
C2232 C2231 1.349 . S
C2232 C2244 1.349 . S
C2233 C2231 1.327 . S
C2233 C2249 1.429 . S
C2233 H2255 0.950 . S
C2234 H2230 0.959 . S
C2234 C2242 1.515 1_554 S
C2234 C2250 1.421 . S
H2235 C2243 0.950 . S
H2236 C2241 0.950 . S
H2237 C2242 0.949 . S
H2238 C2244 0.950 . S
H2239 C2245 0.950 . S
H2240 C2246 0.949 . S
C2241 H2236 0.950 . S
C2241 C2243 1.327 . S
C2241 C2247 1.429 . S
C2242 C2234 1.515 1_556 S
C2242 H2237 0.949 . S
C2242 C2248 1.368 . S
C2243 C2227 1.349 . S
C2243 H2235 0.950 . S
C2243 C2241 1.327 . S
C2244 C2232 1.349 . S
C2244 H2238 0.950 . S
C2244 C2245 1.327 . S
C2245 H2239 0.950 . S
C2245 C2244 1.327 . S
C2245 C2249 1.429 . S
C2246 C2229 1.515 1_554 S
C2246 H2240 0.949 . S
C2246 C2250 1.368 . S
C2247 C2228 1.429 . S
C2247 C2241 1.429 . S
C2247 C2248 1.523 . S
C2248 C2229 1.421 . S
C2248 C2242 1.368 . S
C2248 C2247 1.523 . S
C2249 C2233 1.429 . S
C2249 C2245 1.429 . S
C2249 C2250 1.523 . S
C2250 C2234 1.421 . S
C2250 C2246 1.368 . S
C2250 C2249 1.523 . S
H2251 C2226 0.950 . S
H2252 C2228 0.950 . S
H2253 C2229 0.959 . S
H2254 C2231 0.950 . S
H2255 C2233 0.950 . S
C2256 C2257 1.349 . S
C2256 C2258 1.327 . S
C2256 H2281 0.950 . S
C2257 C2256 1.349 . S
C2257 C2273 1.349 . S
C2258 C2256 1.327 . S
C2258 C2277 1.429 . S
C2258 H2282 0.950 . S
C2259 C2276 1.574 . S
C2259 C2278 1.368 . S
C2259 H2283 0.949 . S
H2260 C2264 0.949 . S
C2261 C2262 1.349 . S
C2261 C2263 1.327 . S
C2261 H2284 0.950 . S
C2262 C2261 1.349 . S
C2262 C2274 1.349 . S
C2263 C2261 1.327 . S
C2263 C2279 1.429 . S
C2263 H2285 0.950 . S
C2264 H2260 0.949 . S
C2264 C2272 1.574 . S
C2264 C2280 1.368 . S
H2265 C2273 0.950 . S
H2266 C2271 0.950 . S
H2267 C2272 0.949 . S
H2268 C2274 0.950 . S
H2269 C2275 0.950 . S
H2270 C2276 0.949 . S
C2271 H2266 0.950 . S
C2271 C2273 1.327 . S
C2271 C2277 1.429 . S
C2272 C2264 1.574 . S
C2272 H2267 0.949 . S
C2272 C2278 1.368 . S
C2273 C2257 1.349 . S
C2273 H2265 0.950 . S
C2273 C2271 1.327 . S
C2274 C2262 1.349 . S
C2274 H2268 0.950 . S
C2274 C2275 1.327 . S
C2275 H2269 0.950 . S
C2275 C2274 1.327 . S
C2275 C2279 1.429 . S
C2276 C2259 1.574 . S
C2276 H2270 0.949 . S
C2276 C2280 1.368 . S
C2277 C2258 1.429 . S
C2277 C2271 1.429 . S
C2277 C2278 1.523 . S
C2278 C2259 1.368 . S
C2278 C2272 1.368 . S
C2278 C2277 1.523 . S
C2279 C2263 1.429 . S
C2279 C2275 1.429 . S
C2279 C2280 1.523 . S
C2280 C2264 1.368 . S
C2280 C2276 1.368 . S
C2280 C2279 1.523 . S
H2281 C2256 0.950 . S
H2282 C2258 0.950 . S
H2283 C2259 0.949 . S
H2284 C2261 0.950 . S
H2285 C2263 0.950 . S
C2286 C2287 1.349 . S
C2286 C2288 1.327 . S
C2286 H2311 0.950 . S
C2287 C2286 1.349 . S
C2287 C2303 1.349 . S
C2288 C2286 1.327 . S
C2288 C2307 1.429 . S
C2288 H2312 0.950 . S
C2289 C2306 1.515 1_556 S
C2289 C2308 1.368 . S
C2289 H2313 0.949 . S
H2290 C2294 0.949 . S
C2291 C2292 1.349 . S
C2291 C2293 1.327 . S
C2291 H2314 0.950 . S
C2292 C2291 1.349 . S
C2292 C2304 1.349 . S
C2293 C2291 1.327 . S
C2293 C2309 1.429 . S
C2293 H2315 0.950 . S
C2294 H2290 0.949 . S
C2294 C2302 1.515 1_554 S
C2294 C2310 1.368 . S
H2295 C2303 0.950 . S
H2296 C2301 0.950 . S
H2297 C2302 0.959 . S
H2298 C2304 0.950 . S
H2299 C2305 0.950 . S
H2300 C2306 0.959 . S
C2301 H2296 0.950 . S
C2301 C2303 1.327 . S
C2301 C2307 1.429 . S
C2302 C2294 1.515 1_556 S
C2302 H2297 0.959 . S
C2302 C2308 1.421 . S
C2303 C2287 1.349 . S
C2303 H2295 0.950 . S
C2303 C2301 1.327 . S
C2304 C2292 1.349 . S
C2304 H2298 0.950 . S
C2304 C2305 1.327 . S
C2305 H2299 0.950 . S
C2305 C2304 1.327 . S
C2305 C2309 1.429 . S
C2306 C2289 1.515 1_554 S
C2306 H2300 0.959 . S
C2306 C2310 1.421 . S
C2307 C2288 1.429 . S
C2307 C2301 1.429 . S
C2307 C2308 1.523 . S
C2308 C2289 1.368 . S
C2308 C2302 1.421 . S
C2308 C2307 1.523 . S
C2309 C2293 1.429 . S
C2309 C2305 1.429 . S
C2309 C2310 1.523 . S
C2310 C2294 1.368 . S
C2310 C2306 1.421 . S
C2310 C2309 1.523 . S
H2311 C2286 0.950 . S
H2312 C2288 0.950 . S
H2313 C2289 0.949 . S
H2314 C2291 0.950 . S
H2315 C2293 0.950 . S
C2316 C2317 1.349 . S
C2316 C2318 1.327 . S
C2316 H2341 0.950 . S
C2317 C2316 1.349 . S
C2317 C2333 1.349 . S
C2318 C2316 1.327 . S
C2318 C2337 1.429 . S
C2318 H2342 0.950 . S
C2319 C2336 1.574 . S
C2319 C2338 1.368 . S
C2319 H2343 0.949 . S
H2320 C2324 0.949 . S
C2321 C2322 1.349 . S
C2321 C2323 1.327 . S
C2321 H2344 0.950 . S
C2322 C2321 1.349 . S
C2322 C2334 1.349 . S
C2323 C2321 1.327 . S
C2323 C2339 1.429 . S
C2323 H2345 0.950 . S
C2324 H2320 0.949 . S
C2324 C2332 1.574 . S
C2324 C2340 1.368 . S
H2325 C2333 0.950 . S
H2326 C2331 0.950 . S
H2327 C2332 0.949 . S
H2328 C2334 0.950 . S
H2329 C2335 0.950 . S
H2330 C2336 0.949 . S
C2331 H2326 0.950 . S
C2331 C2333 1.327 . S
C2331 C2337 1.429 . S
C2332 C2324 1.574 . S
C2332 H2327 0.949 . S
C2332 C2338 1.368 . S
C2333 C2317 1.349 . S
C2333 H2325 0.950 . S
C2333 C2331 1.327 . S
C2334 C2322 1.349 . S
C2334 H2328 0.950 . S
C2334 C2335 1.327 . S
C2335 H2329 0.950 . S
C2335 C2334 1.327 . S
C2335 C2339 1.429 . S
C2336 C2319 1.574 . S
C2336 H2330 0.949 . S
C2336 C2340 1.368 . S
C2337 C2318 1.429 . S
C2337 C2331 1.429 . S
C2337 C2338 1.523 . S
C2338 C2319 1.368 . S
C2338 C2332 1.368 . S
C2338 C2337 1.523 . S
C2339 C2323 1.429 . S
C2339 C2335 1.429 . S
C2339 C2340 1.523 . S
C2340 C2324 1.368 . S
C2340 C2336 1.368 . S
C2340 C2339 1.523 . S
H2341 C2316 0.950 . S
H2342 C2318 0.950 . S
H2343 C2319 0.949 . S
H2344 C2321 0.950 . S
H2345 C2323 0.950 . S
C2346 C2347 1.349 . S
C2346 C2348 1.327 . S
C2346 H2371 0.950 . S
C2347 C2346 1.349 . S
C2347 C2363 1.349 . S
C2348 C2346 1.327 . S
C2348 C2367 1.429 . S
C2348 H2372 0.950 . S
C2349 C2366 1.574 . S
C2349 C2368 1.368 . S
C2349 H2373 0.949 . S
H2350 C2354 0.949 . S
C2351 C2352 1.349 . S
C2351 C2353 1.327 . S
C2351 H2374 0.950 . S
C2352 C2351 1.349 . S
C2352 C2364 1.349 . S
C2353 C2351 1.327 . S
C2353 C2369 1.429 . S
C2353 H2375 0.950 . S
C2354 H2350 0.949 . S
C2354 C2362 1.574 . S
C2354 C2370 1.368 . S
H2355 C2363 0.950 . S
H2356 C2361 0.950 . S
H2357 C2362 0.949 . S
H2358 C2364 0.950 . S
H2359 C2365 0.950 . S
H2360 C2366 0.949 . S
C2361 H2356 0.950 . S
C2361 C2363 1.327 . S
C2361 C2367 1.429 . S
C2362 C2354 1.574 . S
C2362 H2357 0.949 . S
C2362 C2368 1.368 . S
C2363 C2347 1.349 . S
C2363 H2355 0.950 . S
C2363 C2361 1.327 . S
C2364 C2352 1.349 . S
C2364 H2358 0.950 . S
C2364 C2365 1.327 . S
C2365 H2359 0.950 . S
C2365 C2364 1.327 . S
C2365 C2369 1.429 . S
C2366 C2349 1.574 . S
C2366 H2360 0.949 . S
C2366 C2370 1.368 . S
C2367 C2348 1.429 . S
C2367 C2361 1.429 . S
C2367 C2368 1.523 . S
C2368 C2349 1.368 . S
C2368 C2362 1.368 . S
C2368 C2367 1.523 . S
C2369 C2353 1.429 . S
C2369 C2365 1.429 . S
C2369 C2370 1.523 . S
C2370 C2354 1.368 . S
C2370 C2366 1.368 . S
C2370 C2369 1.523 . S
H2371 C2346 0.950 . S
H2372 C2348 0.950 . S
H2373 C2349 0.949 . S
H2374 C2351 0.950 . S
H2375 C2353 0.950 . S
C2376 C2377 1.349 . S
C2376 C2378 1.327 . S
C2376 H2401 0.950 . S
C2377 C2376 1.349 . S
C2377 C2393 1.349 . S
C2378 C2376 1.327 . S
C2378 C2397 1.429 . S
C2378 H2402 0.950 . S
C2379 C2396 1.574 . S
C2379 C2398 1.368 . S
C2379 H2403 0.949 . S
H2380 C2384 0.949 . S
C2381 C2382 1.349 . S
C2381 C2383 1.327 . S
C2381 H2404 0.950 . S
C2382 C2381 1.349 . S
C2382 C2394 1.349 . S
C2383 C2381 1.327 . S
C2383 C2399 1.429 . S
C2383 H2405 0.950 . S
C2384 H2380 0.949 . S
C2384 C2392 1.574 . S
C2384 C2400 1.368 . S
H2385 C2393 0.950 . S
H2386 C2391 0.950 . S
H2387 C2392 0.949 . S
H2388 C2394 0.950 . S
H2389 C2395 0.950 . S
H2390 C2396 0.949 . S
C2391 H2386 0.950 . S
C2391 C2393 1.327 . S
C2391 C2397 1.429 . S
C2392 C2384 1.574 . S
C2392 H2387 0.949 . S
C2392 C2398 1.368 . S
C2393 C2377 1.349 . S
C2393 H2385 0.950 . S
C2393 C2391 1.327 . S
C2394 C2382 1.349 . S
C2394 H2388 0.950 . S
C2394 C2395 1.327 . S
C2395 H2389 0.950 . S
C2395 C2394 1.327 . S
C2395 C2399 1.429 . S
C2396 C2379 1.574 . S
C2396 H2390 0.949 . S
C2396 C2400 1.368 . S
C2397 C2378 1.429 . S
C2397 C2391 1.429 . S
C2397 C2398 1.523 . S
C2398 C2379 1.368 . S
C2398 C2392 1.368 . S
C2398 C2397 1.523 . S
C2399 C2383 1.429 . S
C2399 C2395 1.429 . S
C2399 C2400 1.523 . S
C2400 C2384 1.368 . S
C2400 C2396 1.368 . S
C2400 C2399 1.523 . S
H2401 C2376 0.950 . S
H2402 C2378 0.950 . S
H2403 C2379 0.949 . S
H2404 C2381 0.950 . S
H2405 C2383 0.950 . S
C2406 C2407 1.349 . S
C2406 C2408 1.327 . S
C2406 H2431 0.950 . S
C2407 C2406 1.349 . S
C2407 C2423 1.349 . S
C2408 C2406 1.327 . S
C2408 C2427 1.429 . S
C2408 H2432 0.950 . S
C2409 C2426 1.515 1_556 S
C2409 C2428 1.421 . S
C2409 H2433 0.959 . S
H2410 C2414 0.959 . S
C2411 C2412 1.349 . S
C2411 C2413 1.327 . S
C2411 H2434 0.950 . S
C2412 C2411 1.349 . S
C2412 C2424 1.349 . S
C2413 C2411 1.327 . S
C2413 C2429 1.429 . S
C2413 H2435 0.950 . S
C2414 H2410 0.959 . S
C2414 C2422 1.515 1_554 S
C2414 C2430 1.421 . S
H2415 C2423 0.950 . S
H2416 C2421 0.950 . S
H2417 C2422 0.949 . S
H2418 C2424 0.950 . S
H2419 C2425 0.950 . S
H2420 C2426 0.949 . S
C2421 H2416 0.950 . S
C2421 C2423 1.327 . S
C2421 C2427 1.429 . S
C2422 C2414 1.515 1_556 S
C2422 H2417 0.949 . S
C2422 C2428 1.368 . S
C2423 C2407 1.349 . S
C2423 H2415 0.950 . S
C2423 C2421 1.327 . S
C2424 C2412 1.349 . S
C2424 H2418 0.950 . S
C2424 C2425 1.327 . S
C2425 H2419 0.950 . S
C2425 C2424 1.327 . S
C2425 C2429 1.429 . S
C2426 C2409 1.515 1_554 S
C2426 H2420 0.949 . S
C2426 C2430 1.368 . S
C2427 C2408 1.429 . S
C2427 C2421 1.429 . S
C2427 C2428 1.523 . S
C2428 C2409 1.421 . S
C2428 C2422 1.368 . S
C2428 C2427 1.523 . S
C2429 C2413 1.429 . S
C2429 C2425 1.429 . S
C2429 C2430 1.523 . S
C2430 C2414 1.421 . S
C2430 C2426 1.368 . S
C2430 C2429 1.523 . S
H2431 C2406 0.950 . S
H2432 C2408 0.950 . S
H2433 C2409 0.959 . S
H2434 C2411 0.950 . S
H2435 C2413 0.950 . S
C2436 C2437 1.349 . S
C2436 C2438 1.327 . S
C2436 H2461 0.950 . S
C2437 C2436 1.349 . S
C2437 C2453 1.349 . S
C2438 C2436 1.327 . S
C2438 C2457 1.429 . S
C2438 H2462 0.950 . S
C2439 C2456 1.574 . S
C2439 C2458 1.368 . S
C2439 H2463 0.949 . S
H2440 C2444 0.949 . S
C2441 C2442 1.349 . S
C2441 C2443 1.327 . S
C2441 H2464 0.950 . S
C2442 C2441 1.349 . S
C2442 C2454 1.349 . S
C2443 C2441 1.327 . S
C2443 C2459 1.429 . S
C2443 H2465 0.950 . S
C2444 H2440 0.949 . S
C2444 C2452 1.574 . S
C2444 C2460 1.368 . S
H2445 C2453 0.950 . S
H2446 C2451 0.950 . S
H2447 C2452 0.949 . S
H2448 C2454 0.950 . S
H2449 C2455 0.950 . S
H2450 C2456 0.949 . S
C2451 H2446 0.950 . S
C2451 C2453 1.327 . S
C2451 C2457 1.429 . S
C2452 C2444 1.574 . S
C2452 H2447 0.949 . S
C2452 C2458 1.368 . S
C2453 C2437 1.349 . S
C2453 H2445 0.950 . S
C2453 C2451 1.327 . S
C2454 C2442 1.349 . S
C2454 H2448 0.950 . S
C2454 C2455 1.327 . S
C2455 H2449 0.950 . S
C2455 C2454 1.327 . S
C2455 C2459 1.429 . S
C2456 C2439 1.574 . S
C2456 H2450 0.949 . S
C2456 C2460 1.368 . S
C2457 C2438 1.429 . S
C2457 C2451 1.429 . S
C2457 C2458 1.523 . S
C2458 C2439 1.368 . S
C2458 C2452 1.368 . S
C2458 C2457 1.523 . S
C2459 C2443 1.429 . S
C2459 C2455 1.429 . S
C2459 C2460 1.523 . S
C2460 C2444 1.368 . S
C2460 C2456 1.368 . S
C2460 C2459 1.523 . S
H2461 C2436 0.950 . S
H2462 C2438 0.950 . S
H2463 C2439 0.949 . S
H2464 C2441 0.950 . S
H2465 C2443 0.950 . S
C2466 C2467 1.349 . S
C2466 C2468 1.327 . S
C2466 H2491 0.950 . S
C2467 C2466 1.349 . S
C2467 C2483 1.349 . S
C2468 C2466 1.327 . S
C2468 C2487 1.429 . S
C2468 H2492 0.950 . S
C2469 C2486 1.574 . S
C2469 C2488 1.368 . S
C2469 H2493 0.949 . S
H2470 C2474 0.949 . S
C2471 C2472 1.349 . S
C2471 C2473 1.327 . S
C2471 H2494 0.950 . S
C2472 C2471 1.349 . S
C2472 C2484 1.349 . S
C2473 C2471 1.327 . S
C2473 C2489 1.429 . S
C2473 H2495 0.950 . S
C2474 H2470 0.949 . S
C2474 C2482 1.574 . S
C2474 C2490 1.368 . S
H2475 C2483 0.950 . S
H2476 C2481 0.950 . S
H2477 C2482 0.949 . S
H2478 C2484 0.950 . S
H2479 C2485 0.950 . S
H2480 C2486 0.949 . S
C2481 H2476 0.950 . S
C2481 C2483 1.327 . S
C2481 C2487 1.429 . S
C2482 C2474 1.574 . S
C2482 H2477 0.949 . S
C2482 C2488 1.368 . S
C2483 C2467 1.349 . S
C2483 H2475 0.950 . S
C2483 C2481 1.327 . S
C2484 C2472 1.349 . S
C2484 H2478 0.950 . S
C2484 C2485 1.327 . S
C2485 H2479 0.950 . S
C2485 C2484 1.327 . S
C2485 C2489 1.429 . S
C2486 C2469 1.574 . S
C2486 H2480 0.949 . S
C2486 C2490 1.368 . S
C2487 C2468 1.429 . S
C2487 C2481 1.429 . S
C2487 C2488 1.523 . S
C2488 C2469 1.368 . S
C2488 C2482 1.368 . S
C2488 C2487 1.523 . S
C2489 C2473 1.429 . S
C2489 C2485 1.429 . S
C2489 C2490 1.523 . S
C2490 C2474 1.368 . S
C2490 C2486 1.368 . S
C2490 C2489 1.523 . S
H2491 C2466 0.950 . S
H2492 C2468 0.950 . S
H2493 C2469 0.949 . S
H2494 C2471 0.950 . S
H2495 C2473 0.950 . S
C2496 C2497 1.349 . S
C2496 C2498 1.327 . S
C2496 H2521 0.950 . S
C2497 C2496 1.349 . S
C2497 C2513 1.349 1_565 S
C2498 C2496 1.327 . S
C2498 C2517 1.429 1_565 S
C2498 H2522 0.950 . S
C2499 C2516 1.574 . S
C2499 C2518 1.368 . S
C2499 H2523 0.949 . S
H2500 C2504 0.949 . S
C2501 C2502 1.349 . S
C2501 C2503 1.327 . S
C2501 H2524 0.950 . S
C2502 C2501 1.349 . S
C2502 C2514 1.349 . S
C2503 C2501 1.327 . S
C2503 C2519 1.429 . S
C2503 H2525 0.950 . S
C2504 H2500 0.949 . S
C2504 C2512 1.574 . S
C2504 C2520 1.368 . S
H2505 C2513 0.950 . S
H2506 C2511 0.950 . S
H2507 C2512 0.949 1_565 S
H2508 C2514 0.950 . S
H2509 C2515 0.950 . S
H2510 C2516 0.949 . S
C2511 H2506 0.950 . S
C2511 C2513 1.327 . S
C2511 C2517 1.429 . S
C2512 C2504 1.574 . S
C2512 H2507 0.949 1_545 S
C2512 C2518 1.368 . S
C2513 C2497 1.349 1_545 S
C2513 H2505 0.950 . S
C2513 C2511 1.327 . S
C2514 C2502 1.349 . S
C2514 H2508 0.950 . S
C2514 C2515 1.327 . S
C2515 H2509 0.950 . S
C2515 C2514 1.327 . S
C2515 C2519 1.429 . S
C2516 C2499 1.574 . S
C2516 H2510 0.949 . S
C2516 C2520 1.368 . S
C2517 C2498 1.429 1_545 S
C2517 C2511 1.429 . S
C2517 C2518 1.523 . S
C2518 C2499 1.368 . S
C2518 C2512 1.368 . S
C2518 C2517 1.523 . S
C2519 C2503 1.429 . S
C2519 C2515 1.429 . S
C2519 C2520 1.523 . S
C2520 C2504 1.368 . S
C2520 C2516 1.368 . S
C2520 C2519 1.523 . S
H2521 C2496 0.950 . S
H2522 C2498 0.950 . S
H2523 C2499 0.949 . S
H2524 C2501 0.950 . S
H2525 C2503 0.950 . S
C2526 C2527 1.349 . S
C2526 C2528 1.327 . S
C2526 H2551 0.950 . S
C2527 C2526 1.349 . S
C2527 C2543 1.349 . S
C2528 C2526 1.327 . S
C2528 C2547 1.429 . S
C2528 H2552 0.950 . S
C2529 C2546 1.574 . S
C2529 C2548 1.368 . S
C2529 H2553 0.949 . S
H2530 C2534 0.956 . S
C2531 C2532 1.349 1_545 S
C2531 C2533 1.327 . S
C2531 H2554 0.950 . S
C2532 C2531 1.349 1_565 S
C2532 C2544 1.349 . S
C2533 C2531 1.327 . S
C2533 C2549 1.429 . S
C2533 H2555 0.950 . S
C2534 H2530 0.956 . S
C2534 C2542 1.574 . S
C2534 C2550 1.368 . S
H2535 C2543 0.950 . S
H2536 C2541 0.950 . S
H2537 C2542 0.949 . S
H2538 C2544 0.950 . S
H2539 C2545 0.950 . S
H2540 C2546 0.949 . S
C2541 H2536 0.950 . S
C2541 C2543 1.327 . S
C2541 C2547 1.429 . S
C2542 C2534 1.574 . S
C2542 H2537 0.949 . S
C2542 C2548 1.368 . S
C2543 C2527 1.349 . S
C2543 H2535 0.950 . S
C2543 C2541 1.327 . S
C2544 C2532 1.349 . S
C2544 H2538 0.950 . S
C2544 C2545 1.327 . S
C2545 H2539 0.950 . S
C2545 C2544 1.327 . S
C2545 C2549 1.429 1_565 S
C2546 C2529 1.574 . S
C2546 H2540 0.949 . S
C2546 C2550 1.368 . S
C2547 C2528 1.429 . S
C2547 C2541 1.429 . S
C2547 C2548 1.523 . S
C2548 C2529 1.368 . S
C2548 C2542 1.368 . S
C2548 C2547 1.523 . S
C2549 C2533 1.429 . S
C2549 C2545 1.429 1_545 S
C2549 C2550 1.523 . S
C2550 C2534 1.368 . S
C2550 C2546 1.368 . S
C2550 C2549 1.523 . S
H2551 C2526 0.950 . S
H2552 C2528 0.950 . S
H2553 C2529 0.949 . S
H2554 C2531 0.950 . S
H2555 C2533 0.950 . S
C2556 C2557 1.349 . S
C2556 C2558 1.327 . S
C2556 H2581 0.950 . S
C2557 C2556 1.349 . S
C2557 C2573 1.349 . S
C2558 C2556 1.327 . S
C2558 C2577 1.429 1_545 S
C2558 H2582 0.956 . S
C2559 C2576 1.574 . S
C2559 C2578 1.368 . S
C2559 H2583 0.949 . S
H2560 C2564 0.949 . S
C2561 C2562 1.349 . S
C2561 C2563 1.327 . S
C2561 H2584 0.950 . S
C2562 C2561 1.349 . S
C2562 C2574 1.349 . S
C2563 C2561 1.327 . S
C2563 C2579 1.429 . S
C2563 H2585 0.950 . S
C2564 H2560 0.949 . S
C2564 C2572 1.574 . S
C2564 C2580 1.368 . S
H2565 C2573 0.950 . S
H2566 C2571 0.950 . S
H2567 C2572 0.949 . S
H2568 C2574 0.950 . S
H2569 C2575 0.950 . S
H2570 C2576 0.949 . S
C2571 H2566 0.950 . S
C2571 C2573 1.327 1_565 S
C2571 C2577 1.429 . S
C2572 C2564 1.574 . S
C2572 H2567 0.949 . S
C2572 C2578 1.368 . S
C2573 C2557 1.349 . S
C2573 H2565 0.950 . S
C2573 C2571 1.327 1_545 S
C2574 C2562 1.349 . S
C2574 H2568 0.950 . S
C2574 C2575 1.327 . S
C2575 H2569 0.950 . S
C2575 C2574 1.327 . S
C2575 C2579 1.429 . S
C2576 C2559 1.574 . S
C2576 H2570 0.949 . S
C2576 C2580 1.368 . S
C2577 C2558 1.429 1_565 S
C2577 C2571 1.429 . S
C2577 C2578 1.523 . S
C2578 C2559 1.368 . S
C2578 C2572 1.368 . S
C2578 C2577 1.523 . S
C2579 C2563 1.429 . S
C2579 C2575 1.429 . S
C2579 C2580 1.523 . S
C2580 C2564 1.368 . S
C2580 C2576 1.368 . S
C2580 C2579 1.523 . S
H2581 C2556 0.950 . S
H2582 C2558 0.956 . S
H2583 C2559 0.949 . S
H2584 C2561 0.950 . S
H2585 C2563 0.950 . S
C2586 C2587 1.349 . S
C2586 C2588 1.327 . S
C2586 H2611 0.950 . S
C2587 C2586 1.349 . S
C2587 C2603 1.349 . S
C2588 C2586 1.327 . S
C2588 C2607 1.429 . S
C2588 H2612 0.950 . S
C2589 C2606 1.574 . S
C2589 C2608 1.368 . S
C2589 H2613 0.949 . S
H2590 C2594 0.949 . S
C2591 C2592 1.349 . S
C2591 C2593 1.327 1_545 S
C2591 H2614 0.950 . S
C2592 C2591 1.349 . S
C2592 C2604 1.349 . S
C2593 C2591 1.327 1_565 S
C2593 C2609 1.429 . S
C2593 H2615 0.950 . S
C2594 H2590 0.949 . S
C2594 C2602 1.574 . S
C2594 C2610 1.368 . S
H2595 C2603 0.950 . S
H2596 C2601 0.950 . S
H2597 C2602 0.949 . S
H2598 C2604 0.950 . S
H2599 C2605 0.950 . S
H2600 C2606 0.949 . S
C2601 H2596 0.950 . S
C2601 C2603 1.327 . S
C2601 C2607 1.429 . S
C2602 C2594 1.574 . S
C2602 H2597 0.949 . S
C2602 C2608 1.368 . S
C2603 C2587 1.349 . S
C2603 H2595 0.950 . S
C2603 C2601 1.327 . S
C2604 C2592 1.349 . S
C2604 H2598 0.950 . S
C2604 C2605 1.327 . S
C2605 H2599 0.950 . S
C2605 C2604 1.327 . S
C2605 C2609 1.429 1_545 S
C2606 C2589 1.574 . S
C2606 H2600 0.949 . S
C2606 C2610 1.368 . S
C2607 C2588 1.429 . S
C2607 C2601 1.429 . S
C2607 C2608 1.523 . S
C2608 C2589 1.368 . S
C2608 C2602 1.368 . S
C2608 C2607 1.523 . S
C2609 C2593 1.429 . S
C2609 C2605 1.429 1_565 S
C2609 C2610 1.523 . S
C2610 C2594 1.368 . S
C2610 C2606 1.368 . S
C2610 C2609 1.523 . S
H2611 C2586 0.950 . S
H2612 C2588 0.950 . S
H2613 C2589 0.949 . S
H2614 C2591 0.950 . S
H2615 C2593 0.950 . S
C2616 C2617 1.349 1_565 S
C2616 C2618 1.327 . S
C2616 H2641 0.950 . S
C2617 C2616 1.349 1_545 S
C2617 C2633 1.349 . S
C2618 C2616 1.327 . S
C2618 C2637 1.429 . S
C2618 H2642 0.950 . S
C2619 C2636 1.574 . S
C2619 C2638 1.368 . S
C2619 H2643 0.907 1_565 S
H2620 C2624 0.949 . S
C2621 C2622 1.349 . S
C2621 C2623 1.327 . S
C2621 H2644 0.950 . S
C2622 C2621 1.349 . S
C2622 C2634 1.349 . S
C2623 C2621 1.327 . S
C2623 C2639 1.429 . S
C2623 H2645 0.950 . S
C2624 H2620 0.949 . S
C2624 C2632 1.574 . S
C2624 C2640 1.368 . S
H2625 C2633 0.950 . S
H2626 C2631 0.950 . S
H2627 C2632 0.949 . S
H2628 C2634 0.950 . S
H2629 C2635 0.950 . S
H2630 C2636 0.949 . S
C2631 H2626 0.950 . S
C2631 C2633 1.327 . S
C2631 C2637 1.429 1_545 S
C2632 C2624 1.574 . S
C2632 H2627 0.949 . S
C2632 C2638 1.368 . S
C2633 C2617 1.349 . S
C2633 H2625 0.950 . S
C2633 C2631 1.327 . S
C2634 C2622 1.349 . S
C2634 H2628 0.950 . S
C2634 C2635 1.327 . S
C2635 H2629 0.950 . S
C2635 C2634 1.327 . S
C2635 C2639 1.429 . S
C2636 C2619 1.574 . S
C2636 H2630 0.949 . S
C2636 C2640 1.368 . S
C2637 C2618 1.429 . S
C2637 C2631 1.429 1_565 S
C2637 C2638 1.523 . S
C2638 C2619 1.368 . S
C2638 C2632 1.368 . S
C2638 C2637 1.523 . S
C2639 C2623 1.429 . S
C2639 C2635 1.429 . S
C2639 C2640 1.523 . S
C2640 C2624 1.368 . S
C2640 C2636 1.368 . S
C2640 C2639 1.523 . S
H2641 C2616 0.950 . S
H2642 C2618 0.950 . S
H2643 C2619 0.907 1_545 S
H2644 C2621 0.950 . S
H2645 C2623 0.950 . S
C2646 C2647 1.349 . S
C2646 C2648 1.327 . S
C2646 H2671 0.950 . S
C2647 C2646 1.349 . S
C2647 C2663 1.349 . S
C2648 C2646 1.327 . S
C2648 C2667 1.429 . S
C2648 H2672 0.950 . S
C2649 C2666 1.574 . S
C2649 C2668 1.368 . S
C2649 H2673 0.949 . S
H2650 C2654 0.897 1_545 S
C2651 C2652 1.349 1_565 S
C2651 C2653 1.327 . S
C2651 H2674 0.950 . S
C2652 C2651 1.349 1_545 S
C2652 C2664 1.349 . S
C2653 C2651 1.327 . S
C2653 C2669 1.429 . S
C2653 H2675 0.950 . S
C2654 H2650 0.897 1_565 S
C2654 C2662 1.574 . S
C2654 C2670 1.368 . S
H2655 C2663 0.950 . S
H2656 C2661 0.950 . S
H2657 C2662 0.949 . S
H2658 C2664 0.950 . S
H2659 C2665 0.950 . S
H2660 C2666 0.949 . S
C2661 H2656 0.950 . S
C2661 C2663 1.327 . S
C2661 C2667 1.429 . S
C2662 C2654 1.574 . S
C2662 H2657 0.949 . S
C2662 C2668 1.368 . S
C2663 C2647 1.349 . S
C2663 H2655 0.950 . S
C2663 C2661 1.327 . S
C2664 C2652 1.349 . S
C2664 H2658 0.950 . S
C2664 C2665 1.327 . S
C2665 H2659 0.950 . S
C2665 C2664 1.327 . S
C2665 C2669 1.429 1_545 S
C2666 C2649 1.574 . S
C2666 H2660 0.949 . S
C2666 C2670 1.368 . S
C2667 C2648 1.429 . S
C2667 C2661 1.429 . S
C2667 C2668 1.523 . S
C2668 C2649 1.368 . S
C2668 C2662 1.368 . S
C2668 C2667 1.523 . S
C2669 C2653 1.429 . S
C2669 C2665 1.429 1_565 S
C2669 C2670 1.523 . S
C2670 C2654 1.368 . S
C2670 C2666 1.368 . S
C2670 C2669 1.523 . S
H2671 C2646 0.950 . S
H2672 C2648 0.950 . S
H2673 C2649 0.949 . S
H2674 C2651 0.950 . S
H2675 C2653 0.950 . S
C2676 C2677 1.349 . S
C2676 C2678 1.327 . S
C2676 H2701 0.950 . S
C2677 C2676 1.349 . S
C2677 C2693 1.349 . S
C2678 C2676 1.327 . S
C2678 C2697 1.429 . S
C2678 H2702 0.950 . S
C2679 C2696 1.574 . S
C2679 C2698 1.368 . S
C2679 H2703 0.949 . S
H2680 C2684 0.949 . S
C2681 C2682 1.349 . S
C2681 C2683 1.327 . S
C2681 H2704 0.950 . S
C2682 C2681 1.349 . S
C2682 C2694 1.349 1_565 S
C2683 C2681 1.327 . S
C2683 C2699 1.429 1_565 S
C2683 H2705 0.950 . S
C2684 H2680 0.949 . S
C2684 C2692 1.574 . S
C2684 C2700 1.368 . S
H2685 C2693 0.950 . S
H2686 C2691 0.950 . S
H2687 C2692 0.949 . S
H2688 C2694 0.950 . S
H2689 C2695 0.950 . S
H2690 C2696 0.998 . S
C2691 H2686 0.950 . S
C2691 C2693 1.327 . S
C2691 C2697 1.429 . S
C2692 C2684 1.574 . S
C2692 H2687 0.949 . S
C2692 C2698 1.368 . S
C2693 C2677 1.349 . S
C2693 H2685 0.950 . S
C2693 C2691 1.327 . S
C2694 C2682 1.349 1_545 S
C2694 H2688 0.950 . S
C2694 C2695 1.327 . S
C2695 H2689 0.950 . S
C2695 C2694 1.327 . S
C2695 C2699 1.429 . S
C2696 C2679 1.574 . S
C2696 H2690 0.998 . S
C2696 C2700 1.368 . S
C2697 C2678 1.429 . S
C2697 C2691 1.429 . S
C2697 C2698 1.523 . S
C2698 C2679 1.368 . S
C2698 C2692 1.368 . S
C2698 C2697 1.523 . S
C2699 C2683 1.429 1_545 S
C2699 C2695 1.429 . S
C2699 C2700 1.523 . S
C2700 C2684 1.368 . S
C2700 C2696 1.368 . S
C2700 C2699 1.523 . S
H2701 C2676 0.950 . S
H2702 C2678 0.950 . S
H2703 C2679 0.949 . S
H2704 C2681 0.950 . S
H2705 C2683 0.950 . S
C2706 C2707 1.349 . S
C2706 C2708 1.327 1_565 S
C2706 H2731 0.950 . S
C2707 C2706 1.349 . S
C2707 C2723 1.349 . S
C2708 C2706 1.327 1_545 S
C2708 C2727 1.429 . S
C2708 H2732 0.950 . S
C2709 C2726 1.574 . S
C2709 C2728 1.368 . S
C2709 H2733 0.949 . S
H2710 C2714 0.949 . S
C2711 C2712 1.349 . S
C2711 C2713 1.327 . S
C2711 H2734 0.950 . S
C2712 C2711 1.349 . S
C2712 C2724 1.349 . S
C2713 C2711 1.327 . S
C2713 C2729 1.429 . S
C2713 H2735 0.950 . S
C2714 H2710 0.949 . S
C2714 C2722 1.574 . S
C2714 C2730 1.368 . S
H2715 C2723 0.950 . S
H2716 C2721 0.945 1_545 S
H2717 C2722 0.949 . S
H2718 C2724 0.950 . S
H2719 C2725 0.950 . S
H2720 C2726 0.949 . S
C2721 H2716 0.945 1_565 S
C2721 C2723 1.327 . S
C2721 C2727 1.429 1_565 S
C2722 C2714 1.574 . S
C2722 H2717 0.949 . S
C2722 C2728 1.368 . S
C2723 C2707 1.349 . S
C2723 H2715 0.950 . S
C2723 C2721 1.327 . S
C2724 C2712 1.349 . S
C2724 H2718 0.950 . S
C2724 C2725 1.327 . S
C2725 H2719 0.950 . S
C2725 C2724 1.327 . S
C2725 C2729 1.429 . S
C2726 C2709 1.574 . S
C2726 H2720 0.949 . S
C2726 C2730 1.368 . S
C2727 C2708 1.429 . S
C2727 C2721 1.429 1_545 S
C2727 C2728 1.523 . S
C2728 C2709 1.368 . S
C2728 C2722 1.368 . S
C2728 C2727 1.523 . S
C2729 C2713 1.429 . S
C2729 C2725 1.429 . S
C2729 C2730 1.523 . S
C2730 C2714 1.368 . S
C2730 C2726 1.368 . S
C2730 C2729 1.523 . S
H2731 C2706 0.950 . S
H2732 C2708 0.950 . S
H2733 C2709 0.949 . S
H2734 C2711 0.950 . S
H2735 C2713 0.950 . S
C2736 C2737 1.349 . S
C2736 C2738 1.327 . S
C2736 H2761 0.950 . S
C2737 C2736 1.349 . S
C2737 C2753 1.349 . S
C2738 C2736 1.327 . S
C2738 C2757 1.429 . S
C2738 H2762 0.950 . S
C2739 C2756 1.574 . S
C2739 C2758 1.368 . S
C2739 H2763 0.949 . S
H2740 C2744 0.949 . S
C2741 C2742 1.349 . S
C2741 C2743 1.327 . S
C2741 H2764 0.950 . S
C2742 C2741 1.349 . S
C2742 C2754 1.349 . S
C2743 C2741 1.327 . S
C2743 C2759 1.429 . S
C2743 H2765 0.950 . S
C2744 H2740 0.949 . S
C2744 C2752 1.574 . S
C2744 C2760 1.368 . S
H2745 C2753 0.950 . S
H2746 C2751 0.950 . S
H2747 C2752 0.949 . S
H2748 C2754 0.950 . S
H2749 C2755 0.950 . S
H2750 C2756 0.949 . S
C2751 H2746 0.950 . S
C2751 C2753 1.327 . S
C2751 C2757 1.429 . S
C2752 C2744 1.574 . S
C2752 H2747 0.949 . S
C2752 C2758 1.368 . S
C2753 C2737 1.349 . S
C2753 H2745 0.950 . S
C2753 C2751 1.327 . S
C2754 C2742 1.349 . S
C2754 H2748 0.950 . S
C2754 C2755 1.327 . S
C2755 H2749 0.950 . S
C2755 C2754 1.327 . S
C2755 C2759 1.429 . S
C2756 C2739 1.574 . S
C2756 H2750 0.949 . S
C2756 C2760 1.368 . S
C2757 C2738 1.429 . S
C2757 C2751 1.429 . S
C2757 C2758 1.523 . S
C2758 C2739 1.368 . S
C2758 C2752 1.368 . S
C2758 C2757 1.523 . S
C2759 C2743 1.429 . S
C2759 C2755 1.429 . S
C2759 C2760 1.523 . S
C2760 C2744 1.368 . S
C2760 C2756 1.368 . S
C2760 C2759 1.523 . S
H2761 C2736 0.950 . S
H2762 C2738 0.950 . S
H2763 C2739 0.949 . S
H2764 C2741 0.950 . S
H2765 C2743 0.950 . S
C2766 C2767 1.349 . S
C2766 C2768 1.327 . S
C2766 H2791 0.950 . S
C2767 C2766 1.349 . S
C2767 C2783 1.349 . S
C2768 C2766 1.327 . S
C2768 C2787 1.429 . S
C2768 H2792 0.950 . S
C2769 C2786 1.574 . S
C2769 C2788 1.368 . S
C2769 H2793 0.949 . S
H2770 C2774 0.949 . S
C2771 C2772 1.349 . S
C2771 C2773 1.327 . S
C2771 H2794 0.950 . S
C2772 C2771 1.349 . S
C2772 C2784 1.349 . S
C2773 C2771 1.327 . S
C2773 C2789 1.429 . S
C2773 H2795 0.950 . S
C2774 H2770 0.949 . S
C2774 C2782 1.574 . S
C2774 C2790 1.368 . S
H2775 C2783 0.950 . S
H2776 C2781 0.950 . S
H2777 C2782 0.949 . S
H2778 C2784 0.950 . S
H2779 C2785 0.950 . S
H2780 C2786 0.949 . S
C2781 H2776 0.950 . S
C2781 C2783 1.327 . S
C2781 C2787 1.429 . S
C2782 C2774 1.574 . S
C2782 H2777 0.949 . S
C2782 C2788 1.368 . S
C2783 C2767 1.349 . S
C2783 H2775 0.950 . S
C2783 C2781 1.327 . S
C2784 C2772 1.349 . S
C2784 H2778 0.950 . S
C2784 C2785 1.327 . S
C2785 H2779 0.950 . S
C2785 C2784 1.327 . S
C2785 C2789 1.429 . S
C2786 C2769 1.574 . S
C2786 H2780 0.949 . S
C2786 C2790 1.368 . S
C2787 C2768 1.429 . S
C2787 C2781 1.429 . S
C2787 C2788 1.523 . S
C2788 C2769 1.368 . S
C2788 C2782 1.368 . S
C2788 C2787 1.523 . S
C2789 C2773 1.429 . S
C2789 C2785 1.429 . S
C2789 C2790 1.523 . S
C2790 C2774 1.368 . S
C2790 C2786 1.368 . S
C2790 C2789 1.523 . S
H2791 C2766 0.950 . S
H2792 C2768 0.950 . S
H2793 C2769 0.949 . S
H2794 C2771 0.950 . S
H2795 C2773 0.950 . S
C2796 C2797 1.349 . S
C2796 C2798 1.327 . S
C2796 H2821 0.950 . S
C2797 C2796 1.349 . S
C2797 C2813 1.349 . S
C2798 C2796 1.327 . S
C2798 C2817 1.429 . S
C2798 H2822 0.950 . S
C2799 C2816 1.574 . S
C2799 C2818 1.368 . S
C2799 H2823 0.949 . S
H2800 C2804 0.949 . S
C2801 C2802 1.349 . S
C2801 C2803 1.327 . S
C2801 H2824 0.950 . S
C2802 C2801 1.349 . S
C2802 C2814 1.349 . S
C2803 C2801 1.327 . S
C2803 C2819 1.429 . S
C2803 H2825 0.950 . S
C2804 H2800 0.949 . S
C2804 C2812 1.574 . S
C2804 C2820 1.368 . S
H2805 C2813 0.950 . S
H2806 C2811 0.950 . S
H2807 C2812 0.949 . S
H2808 C2814 0.950 . S
H2809 C2815 0.950 . S
H2810 C2816 0.949 . S
C2811 H2806 0.950 . S
C2811 C2813 1.327 . S
C2811 C2817 1.429 . S
C2812 C2804 1.574 . S
C2812 H2807 0.949 . S
C2812 C2818 1.368 . S
C2813 C2797 1.349 . S
C2813 H2805 0.950 . S
C2813 C2811 1.327 . S
C2814 C2802 1.349 . S
C2814 H2808 0.950 . S
C2814 C2815 1.327 . S
C2815 H2809 0.950 . S
C2815 C2814 1.327 . S
C2815 C2819 1.429 . S
C2816 C2799 1.574 . S
C2816 H2810 0.949 . S
C2816 C2820 1.368 . S
C2817 C2798 1.429 . S
C2817 C2811 1.429 . S
C2817 C2818 1.523 . S
C2818 C2799 1.368 . S
C2818 C2812 1.368 . S
C2818 C2817 1.523 . S
C2819 C2803 1.429 . S
C2819 C2815 1.429 . S
C2819 C2820 1.523 . S
C2820 C2804 1.368 . S
C2820 C2816 1.368 . S
C2820 C2819 1.523 . S
H2821 C2796 0.950 . S
H2822 C2798 0.950 . S
H2823 C2799 0.949 . S
H2824 C2801 0.950 . S
H2825 C2803 0.950 . S
C2826 C2827 1.349 . S
C2826 C2828 1.327 . S
C2826 H2851 0.950 . S
C2827 C2826 1.349 . S
C2827 C2843 1.349 . S
C2828 C2826 1.327 . S
C2828 C2847 1.429 . S
C2828 H2852 0.950 . S
C2829 C2846 1.574 . S
C2829 C2848 1.368 . S
C2829 H2853 0.949 . S
H2830 C2834 0.949 . S
C2831 C2832 1.349 . S
C2831 C2833 1.327 . S
C2831 H2854 0.950 . S
C2832 C2831 1.349 . S
C2832 C2844 1.349 . S
C2833 C2831 1.327 . S
C2833 C2849 1.429 . S
C2833 H2855 0.950 . S
C2834 H2830 0.949 . S
C2834 C2842 1.574 . S
C2834 C2850 1.368 . S
H2835 C2843 0.950 . S
H2836 C2841 0.950 . S
H2837 C2842 0.949 . S
H2838 C2844 0.950 . S
H2839 C2845 0.950 . S
H2840 C2846 0.949 . S
C2841 H2836 0.950 . S
C2841 C2843 1.327 . S
C2841 C2847 1.429 . S
C2842 C2834 1.574 . S
C2842 H2837 0.949 . S
C2842 C2848 1.368 . S
C2843 C2827 1.349 . S
C2843 H2835 0.950 . S
C2843 C2841 1.327 . S
C2844 C2832 1.349 . S
C2844 H2838 0.950 . S
C2844 C2845 1.327 . S
C2845 H2839 0.950 . S
C2845 C2844 1.327 . S
C2845 C2849 1.429 . S
C2846 C2829 1.574 . S
C2846 H2840 0.949 . S
C2846 C2850 1.368 . S
C2847 C2828 1.429 . S
C2847 C2841 1.429 . S
C2847 C2848 1.523 . S
C2848 C2829 1.368 . S
C2848 C2842 1.368 . S
C2848 C2847 1.523 . S
C2849 C2833 1.429 . S
C2849 C2845 1.429 . S
C2849 C2850 1.523 . S
C2850 C2834 1.368 . S
C2850 C2846 1.368 . S
C2850 C2849 1.523 . S
H2851 C2826 0.950 . S
H2852 C2828 0.950 . S
H2853 C2829 0.949 . S
H2854 C2831 0.950 . S
H2855 C2833 0.950 . S
C2856 C2857 1.349 . S
C2856 C2858 1.327 . S
C2856 H2881 0.950 . S
C2857 C2856 1.349 . S
C2857 C2873 1.349 . S
C2858 C2856 1.327 . S
C2858 C2877 1.429 . S
C2858 H2882 0.950 . S
C2859 C2876 1.574 . S
C2859 C2878 1.368 . S
C2859 H2883 0.949 . S
H2860 C2864 0.949 . S
C2861 C2862 1.349 . S
C2861 C2863 1.327 . S
C2861 H2884 0.950 . S
C2862 C2861 1.349 . S
C2862 C2874 1.349 . S
C2863 C2861 1.327 . S
C2863 C2879 1.429 . S
C2863 H2885 0.950 . S
C2864 H2860 0.949 . S
C2864 C2872 1.574 . S
C2864 C2880 1.368 . S
H2865 C2873 0.950 . S
H2866 C2871 0.950 . S
H2867 C2872 0.949 . S
H2868 C2874 0.950 . S
H2869 C2875 0.950 . S
H2870 C2876 0.949 . S
C2871 H2866 0.950 . S
C2871 C2873 1.327 . S
C2871 C2877 1.429 . S
C2872 C2864 1.574 . S
C2872 H2867 0.949 . S
C2872 C2878 1.368 . S
C2873 C2857 1.349 . S
C2873 H2865 0.950 . S
C2873 C2871 1.327 . S
C2874 C2862 1.349 . S
C2874 H2868 0.950 . S
C2874 C2875 1.327 . S
C2875 H2869 0.950 . S
C2875 C2874 1.327 . S
C2875 C2879 1.429 . S
C2876 C2859 1.574 . S
C2876 H2870 0.949 . S
C2876 C2880 1.368 . S
C2877 C2858 1.429 . S
C2877 C2871 1.429 . S
C2877 C2878 1.523 . S
C2878 C2859 1.368 . S
C2878 C2872 1.368 . S
C2878 C2877 1.523 . S
C2879 C2863 1.429 . S
C2879 C2875 1.429 . S
C2879 C2880 1.523 . S
C2880 C2864 1.368 . S
C2880 C2876 1.368 . S
C2880 C2879 1.523 . S
H2881 C2856 0.950 . S
H2882 C2858 0.950 . S
H2883 C2859 0.949 . S
H2884 C2861 0.950 . S
H2885 C2863 0.950 . S
C2886 C2887 1.349 . S
C2886 C2888 1.327 . S
C2886 H2911 0.950 . S
C2887 C2886 1.349 . S
C2887 C2903 1.349 . S
C2888 C2886 1.327 . S
C2888 C2907 1.429 . S
C2888 H2912 0.950 . S
C2889 C2906 1.574 . S
C2889 C2908 1.368 . S
C2889 H2913 0.949 . S
H2890 C2894 0.949 . S
C2891 C2892 1.349 . S
C2891 C2893 1.327 . S
C2891 H2914 0.950 . S
C2892 C2891 1.349 . S
C2892 C2904 1.349 . S
C2893 C2891 1.327 . S
C2893 C2909 1.429 . S
C2893 H2915 0.950 . S
C2894 H2890 0.949 . S
C2894 C2902 1.574 . S
C2894 C2910 1.368 . S
H2895 C2903 0.950 . S
H2896 C2901 0.950 . S
H2897 C2902 0.949 . S
H2898 C2904 0.950 . S
H2899 C2905 0.950 . S
H2900 C2906 0.949 . S
C2901 H2896 0.950 . S
C2901 C2903 1.327 . S
C2901 C2907 1.429 . S
C2902 C2894 1.574 . S
C2902 H2897 0.949 . S
C2902 C2908 1.368 . S
C2903 C2887 1.349 . S
C2903 H2895 0.950 . S
C2903 C2901 1.327 . S
C2904 C2892 1.349 . S
C2904 H2898 0.950 . S
C2904 C2905 1.327 . S
C2905 H2899 0.950 . S
C2905 C2904 1.327 . S
C2905 C2909 1.429 . S
C2906 C2889 1.574 . S
C2906 H2900 0.949 . S
C2906 C2910 1.368 . S
C2907 C2888 1.429 . S
C2907 C2901 1.429 . S
C2907 C2908 1.523 . S
C2908 C2889 1.368 . S
C2908 C2902 1.368 . S
C2908 C2907 1.523 . S
C2909 C2893 1.429 . S
C2909 C2905 1.429 . S
C2909 C2910 1.523 . S
C2910 C2894 1.368 . S
C2910 C2906 1.368 . S
C2910 C2909 1.523 . S
H2911 C2886 0.950 . S
H2912 C2888 0.950 . S
H2913 C2889 0.949 . S
H2914 C2891 0.950 . S
H2915 C2893 0.950 . S
C2916 C2917 1.349 . S
C2916 C2918 1.327 . S
C2916 H2941 0.950 . S
C2917 C2916 1.349 . S
C2917 C2933 1.349 . S
C2918 C2916 1.327 . S
C2918 C2937 1.429 . S
C2918 H2942 0.950 . S
C2919 C2936 1.574 . S
C2919 C2938 1.368 . S
C2919 H2943 0.949 . S
H2920 C2924 0.949 . S
C2921 C2922 1.349 . S
C2921 C2923 1.327 . S
C2921 H2944 0.950 . S
C2922 C2921 1.349 . S
C2922 C2934 1.349 . S
C2923 C2921 1.327 . S
C2923 C2939 1.429 . S
C2923 H2945 0.950 . S
C2924 H2920 0.949 . S
C2924 C2932 1.574 . S
C2924 C2940 1.368 . S
H2925 C2933 0.950 . S
H2926 C2931 0.950 . S
H2927 C2932 0.949 . S
H2928 C2934 0.950 . S
H2929 C2935 0.950 . S
H2930 C2936 0.949 . S
C2931 H2926 0.950 . S
C2931 C2933 1.327 . S
C2931 C2937 1.429 . S
C2932 C2924 1.574 . S
C2932 H2927 0.949 . S
C2932 C2938 1.368 . S
C2933 C2917 1.349 . S
C2933 H2925 0.950 . S
C2933 C2931 1.327 . S
C2934 C2922 1.349 . S
C2934 H2928 0.950 . S
C2934 C2935 1.327 . S
C2935 H2929 0.950 . S
C2935 C2934 1.327 . S
C2935 C2939 1.429 . S
C2936 C2919 1.574 . S
C2936 H2930 0.949 . S
C2936 C2940 1.368 . S
C2937 C2918 1.429 . S
C2937 C2931 1.429 . S
C2937 C2938 1.523 . S
C2938 C2919 1.368 . S
C2938 C2932 1.368 . S
C2938 C2937 1.523 . S
C2939 C2923 1.429 . S
C2939 C2935 1.429 . S
C2939 C2940 1.523 . S
C2940 C2924 1.368 . S
C2940 C2936 1.368 . S
C2940 C2939 1.523 . S
H2941 C2916 0.950 . S
H2942 C2918 0.950 . S
H2943 C2919 0.949 . S
H2944 C2921 0.950 . S
H2945 C2923 0.950 . S
C2946 C2947 1.349 . S
C2946 C2948 1.327 . S
C2946 H2971 0.950 . S
C2947 C2946 1.349 . S
C2947 C2963 1.349 . S
C2948 C2946 1.327 . S
C2948 C2967 1.429 . S
C2948 H2972 0.950 . S
C2949 C2966 1.574 . S
C2949 C2968 1.368 . S
C2949 H2973 0.949 . S
H2950 C2954 0.949 . S
C2951 C2952 1.349 . S
C2951 C2953 1.327 . S
C2951 H2974 0.950 . S
C2952 C2951 1.349 . S
C2952 C2964 1.349 . S
C2953 C2951 1.327 . S
C2953 C2969 1.429 . S
C2953 H2975 0.950 . S
C2954 H2950 0.949 . S
C2954 C2962 1.574 . S
C2954 C2970 1.368 . S
H2955 C2963 0.950 . S
H2956 C2961 0.950 . S
H2957 C2962 0.949 . S
H2958 C2964 0.950 . S
H2959 C2965 0.950 . S
H2960 C2966 0.949 . S
C2961 H2956 0.950 . S
C2961 C2963 1.327 . S
C2961 C2967 1.429 . S
C2962 C2954 1.574 . S
C2962 H2957 0.949 . S
C2962 C2968 1.368 . S
C2963 C2947 1.349 . S
C2963 H2955 0.950 . S
C2963 C2961 1.327 . S
C2964 C2952 1.349 . S
C2964 H2958 0.950 . S
C2964 C2965 1.327 . S
C2965 H2959 0.950 . S
C2965 C2964 1.327 . S
C2965 C2969 1.429 . S
C2966 C2949 1.574 . S
C2966 H2960 0.949 . S
C2966 C2970 1.368 . S
C2967 C2948 1.429 . S
C2967 C2961 1.429 . S
C2967 C2968 1.523 . S
C2968 C2949 1.368 . S
C2968 C2962 1.368 . S
C2968 C2967 1.523 . S
C2969 C2953 1.429 . S
C2969 C2965 1.429 . S
C2969 C2970 1.523 . S
C2970 C2954 1.368 . S
C2970 C2966 1.368 . S
C2970 C2969 1.523 . S
H2971 C2946 0.950 . S
H2972 C2948 0.950 . S
H2973 C2949 0.949 . S
H2974 C2951 0.950 . S
H2975 C2953 0.950 . S
C2976 C2977 1.349 . S
C2976 C2978 1.327 . S
C2976 H3001 0.950 . S
C2977 C2976 1.349 . S
C2977 C2993 1.349 . S
C2978 C2976 1.327 . S
C2978 C2997 1.429 . S
C2978 H3002 0.950 . S
C2979 C2996 1.574 . S
C2979 C2998 1.368 . S
C2979 H3003 0.949 . S
H2980 C2984 0.949 . S
C2981 C2982 1.349 . S
C2981 C2983 1.327 . S
C2981 H3004 0.950 . S
C2982 C2981 1.349 . S
C2982 C2994 1.349 . S
C2983 C2981 1.327 . S
C2983 C2999 1.429 . S
C2983 H3005 0.950 . S
C2984 H2980 0.949 . S
C2984 C2992 1.574 . S
C2984 C3000 1.368 . S
H2985 C2993 0.950 . S
H2986 C2991 0.950 . S
H2987 C2992 0.949 . S
H2988 C2994 0.950 . S
H2989 C2995 0.950 . S
H2990 C2996 0.949 . S
C2991 H2986 0.950 . S
C2991 C2993 1.327 . S
C2991 C2997 1.429 . S
C2992 C2984 1.574 . S
C2992 H2987 0.949 . S
C2992 C2998 1.368 . S
C2993 C2977 1.349 . S
C2993 H2985 0.950 . S
C2993 C2991 1.327 . S
C2994 C2982 1.349 . S
C2994 H2988 0.950 . S
C2994 C2995 1.327 . S
C2995 H2989 0.950 . S
C2995 C2994 1.327 . S
C2995 C2999 1.429 . S
C2996 C2979 1.574 . S
C2996 H2990 0.949 . S
C2996 C3000 1.368 . S
C2997 C2978 1.429 . S
C2997 C2991 1.429 . S
C2997 C2998 1.523 . S
C2998 C2979 1.368 . S
C2998 C2992 1.368 . S
C2998 C2997 1.523 . S
C2999 C2983 1.429 . S
C2999 C2995 1.429 . S
C2999 C3000 1.523 . S
C3000 C2984 1.368 . S
C3000 C2996 1.368 . S
C3000 C2999 1.523 . S
H3001 C2976 0.950 . S
H3002 C2978 0.950 . S
H3003 C2979 0.949 . S
H3004 C2981 0.950 . S
H3005 C2983 0.950 . S
C3006 C3007 1.349 . S
C3006 C3008 1.327 . S
C3006 H3031 0.950 . S
C3007 C3006 1.349 . S
C3007 C3023 1.349 . S
C3008 C3006 1.327 . S
C3008 C3027 1.429 . S
C3008 H3032 0.950 . S
C3009 C3026 1.574 1_565 S
C3009 C3028 1.368 . S
C3009 H3033 0.949 . S
H3010 C3014 0.949 . S
C3011 C3012 1.349 . S
C3011 C3013 1.327 . S
C3011 H3034 0.950 . S
C3012 C3011 1.349 . S
C3012 C3024 1.349 . S
C3013 C3011 1.327 . S
C3013 C3029 1.429 . S
C3013 H3035 0.950 . S
C3014 H3010 0.949 . S
C3014 C3022 1.574 1_545 S
C3014 C3030 1.368 . S
H3015 C3023 0.950 . S
H3016 C3021 0.950 . S
H3017 C3022 0.949 . S
H3018 C3024 0.950 . S
H3019 C3025 0.950 . S
H3020 C3026 0.949 . S
C3021 H3016 0.950 . S
C3021 C3023 1.327 . S
C3021 C3027 1.429 . S
C3022 C3014 1.574 1_565 S
C3022 H3017 0.949 . S
C3022 C3028 1.368 1_655 S
C3023 C3007 1.349 . S
C3023 H3015 0.950 . S
C3023 C3021 1.327 . S
C3024 C3012 1.349 . S
C3024 H3018 0.950 . S
C3024 C3025 1.327 . S
C3025 H3019 0.950 . S
C3025 C3024 1.327 . S
C3025 C3029 1.429 . S
C3026 C3009 1.574 1_545 S
C3026 H3020 0.949 . S
C3026 C3030 1.368 1_455 S
C3027 C3008 1.429 . S
C3027 C3021 1.429 . S
C3027 C3028 1.523 . S
C3028 C3009 1.368 . S
C3028 C3022 1.368 1_455 S
C3028 C3027 1.523 . S
C3029 C3013 1.429 . S
C3029 C3025 1.429 . S
C3029 C3030 1.523 . S
C3030 C3014 1.368 . S
C3030 C3026 1.368 1_655 S
C3030 C3029 1.523 . S
H3031 C3006 0.950 . S
H3032 C3008 0.950 . S
H3033 C3009 0.949 . S
H3034 C3011 0.950 . S
H3035 C3013 0.950 . S
C3036 C3037 1.349 . S
C3036 C3038 1.327 . S
C3036 H3061 0.950 . S
C3037 C3036 1.349 . S
C3037 C3053 1.349 . S
C3038 C3036 1.327 . S
C3038 C3057 1.429 . S
C3038 H3062 0.950 . S
C3039 C3056 1.574 . S
C3039 C3058 1.368 . S
C3039 H3063 0.949 . S
H3040 C3044 0.949 . S
C3041 C3042 1.349 . S
C3041 C3043 1.327 . S
C3041 H3064 0.950 . S
C3042 C3041 1.349 . S
C3042 C3054 1.349 . S
C3043 C3041 1.327 . S
C3043 C3059 1.429 . S
C3043 H3065 0.950 . S
C3044 H3040 0.949 . S
C3044 C3052 1.574 . S
C3044 C3060 1.368 . S
H3045 C3053 0.950 . S
H3046 C3051 0.950 . S
H3047 C3052 0.949 . S
H3048 C3054 0.950 . S
H3049 C3055 0.950 . S
H3050 C3056 0.949 . S
C3051 H3046 0.950 . S
C3051 C3053 1.327 . S
C3051 C3057 1.429 . S
C3052 C3044 1.574 . S
C3052 H3047 0.949 . S
C3052 C3058 1.368 . S
C3053 C3037 1.349 . S
C3053 H3045 0.950 . S
C3053 C3051 1.327 . S
C3054 C3042 1.349 . S
C3054 H3048 0.950 . S
C3054 C3055 1.327 . S
C3055 H3049 0.950 . S
C3055 C3054 1.327 . S
C3055 C3059 1.429 . S
C3056 C3039 1.574 . S
C3056 H3050 0.949 . S
C3056 C3060 1.368 . S
C3057 C3038 1.429 . S
C3057 C3051 1.429 . S
C3057 C3058 1.523 . S
C3058 C3039 1.368 . S
C3058 C3052 1.368 . S
C3058 C3057 1.523 . S
C3059 C3043 1.429 . S
C3059 C3055 1.429 . S
C3059 C3060 1.523 . S
C3060 C3044 1.368 . S
C3060 C3056 1.368 . S
C3060 C3059 1.523 . S
H3061 C3036 0.950 . S
H3062 C3038 0.950 . S
H3063 C3039 0.949 . S
H3064 C3041 0.950 . S
H3065 C3043 0.950 . S
C3066 C3067 1.349 . S
C3066 C3068 1.327 . S
C3066 H3091 0.950 . S
C3067 C3066 1.349 . S
C3067 C3083 1.349 . S
C3068 C3066 1.327 . S
C3068 C3087 1.429 . S
C3068 H3092 0.950 . S
C3069 C3086 1.574 1_545 S
C3069 C3088 1.368 1_556 S
C3069 H3093 0.949 . S
H3070 C3074 0.949 . S
C3071 C3072 1.349 . S
C3071 C3073 1.327 . S
C3071 H3094 0.950 . S
C3072 C3071 1.349 . S
C3072 C3084 1.349 . S
C3073 C3071 1.327 . S
C3073 C3089 1.429 . S
C3073 H3095 0.950 . S
C3074 H3070 0.949 . S
C3074 C3082 1.574 1_565 S
C3074 C3090 1.368 1_554 S
H3075 C3083 0.950 . S
H3076 C3081 0.950 . S
H3077 C3082 0.949 . S
H3078 C3084 0.950 . S
H3079 C3085 0.950 . S
H3080 C3086 0.949 . S
C3081 H3076 0.950 . S
C3081 C3083 1.327 . S
C3081 C3087 1.429 . S
C3082 C3074 1.574 1_545 S
C3082 H3077 0.949 . S
C3082 C3088 1.368 . S
C3083 C3067 1.349 . S
C3083 H3075 0.950 . S
C3083 C3081 1.327 . S
C3084 C3072 1.349 . S
C3084 H3078 0.950 . S
C3084 C3085 1.327 . S
C3085 H3079 0.950 . S
C3085 C3084 1.327 . S
C3085 C3089 1.429 . S
C3086 C3069 1.574 1_565 S
C3086 H3080 0.949 . S
C3086 C3090 1.368 . S
C3087 C3068 1.429 . S
C3087 C3081 1.429 . S
C3087 C3088 1.523 . S
C3088 C3069 1.368 1_554 S
C3088 C3082 1.368 . S
C3088 C3087 1.523 . S
C3089 C3073 1.429 . S
C3089 C3085 1.429 . S
C3089 C3090 1.523 . S
C3090 C3074 1.368 1_556 S
C3090 C3086 1.368 . S
C3090 C3089 1.523 . S
H3091 C3066 0.950 . S
H3092 C3068 0.950 . S
H3093 C3069 0.949 . S
H3094 C3071 0.950 . S
H3095 C3073 0.950 . S
C3096 C3097 1.349 . S
C3096 C3098 1.327 . S
C3096 H3121 0.950 . S
C3097 C3096 1.349 . S
C3097 C3113 1.349 . S
C3098 C3096 1.327 . S
C3098 C3117 1.429 . S
C3098 H3122 0.950 . S
C3099 C3116 1.574 . S
C3099 C3118 1.368 . S
C3099 H3123 0.949 . S
H3100 C3104 0.949 . S
C3101 C3102 1.349 . S
C3101 C3103 1.327 . S
C3101 H3124 0.950 . S
C3102 C3101 1.349 . S
C3102 C3114 1.349 . S
C3103 C3101 1.327 . S
C3103 C3119 1.429 . S
C3103 H3125 0.950 . S
C3104 H3100 0.949 . S
C3104 C3112 1.574 . S
C3104 C3120 1.368 . S
H3105 C3113 0.950 . S
H3106 C3111 0.950 . S
H3107 C3112 0.949 . S
H3108 C3114 0.950 . S
H3109 C3115 0.950 . S
H3110 C3116 0.949 . S
C3111 H3106 0.950 . S
C3111 C3113 1.327 . S
C3111 C3117 1.429 . S
C3112 C3104 1.574 . S
C3112 H3107 0.949 . S
C3112 C3118 1.368 . S
C3113 C3097 1.349 . S
C3113 H3105 0.950 . S
C3113 C3111 1.327 . S
C3114 C3102 1.349 . S
C3114 H3108 0.950 . S
C3114 C3115 1.327 . S
C3115 H3109 0.950 . S
C3115 C3114 1.327 . S
C3115 C3119 1.429 . S
C3116 C3099 1.574 . S
C3116 H3110 0.949 . S
C3116 C3120 1.368 . S
C3117 C3098 1.429 . S
C3117 C3111 1.429 . S
C3117 C3118 1.523 . S
C3118 C3099 1.368 . S
C3118 C3112 1.368 . S
C3118 C3117 1.523 . S
C3119 C3103 1.429 . S
C3119 C3115 1.429 . S
C3119 C3120 1.523 . S
C3120 C3104 1.368 . S
C3120 C3116 1.368 . S
C3120 C3119 1.523 . S
H3121 C3096 0.950 . S
H3122 C3098 0.950 . S
H3123 C3099 0.949 . S
H3124 C3101 0.950 . S
H3125 C3103 0.950 . S
C3126 C3127 1.349 . S
C3126 C3128 1.327 . S
C3126 H3151 0.950 . S
C3127 C3126 1.349 . S
C3127 C3143 1.349 . S
C3128 C3126 1.327 . S
C3128 C3147 1.429 . S
C3128 H3152 0.950 . S
C3129 C3146 1.574 . S
C3129 C3148 1.368 1_565 S
C3129 H3153 0.949 . S
H3130 C3134 0.949 . S
C3131 C3132 1.349 . S
C3131 C3133 1.327 . S
C3131 H3154 0.950 . S
C3132 C3131 1.349 . S
C3132 C3144 1.349 . S
C3133 C3131 1.327 . S
C3133 C3149 1.429 . S
C3133 H3155 0.950 . S
C3134 H3130 0.949 . S
C3134 C3142 1.574 . S
C3134 C3150 1.368 1_545 S
H3135 C3143 0.950 . S
H3136 C3141 0.983 . S
H3137 C3142 0.949 . S
H3138 C3144 0.950 . S
H3139 C3145 0.983 . S
H3140 C3146 0.949 . S
C3141 H3136 0.983 . S
C3141 C3143 1.327 . S
C3141 C3147 1.429 . S
C3142 C3134 1.574 . S
C3142 H3137 0.949 . S
C3142 C3148 1.368 . S
C3143 C3127 1.349 . S
C3143 H3135 0.950 . S
C3143 C3141 1.327 . S
C3144 C3132 1.349 . S
C3144 H3138 0.950 . S
C3144 C3145 1.327 . S
C3145 H3139 0.983 . S
C3145 C3144 1.327 . S
C3145 C3149 1.429 . S
C3146 C3129 1.574 . S
C3146 H3140 0.949 . S
C3146 C3150 1.368 . S
C3147 C3128 1.429 . S
C3147 C3141 1.429 . S
C3147 C3148 1.523 . S
C3148 C3129 1.368 1_545 S
C3148 C3142 1.368 . S
C3148 C3147 1.523 . S
C3149 C3133 1.429 . S
C3149 C3145 1.429 . S
C3149 C3150 1.523 . S
C3150 C3134 1.368 1_565 S
C3150 C3146 1.368 . S
C3150 C3149 1.523 . S
H3151 C3126 0.950 . S
H3152 C3128 0.950 . S
H3153 C3129 0.949 . S
H3154 C3131 0.950 . S
H3155 C3133 0.950 . S
C3156 C3157 1.349 . S
C3156 C3158 1.327 . S
C3156 H3181 0.950 . S
C3157 C3156 1.349 . S
C3157 C3173 1.349 . S
C3158 C3156 1.327 . S
C3158 C3177 1.429 . S
C3158 H3182 0.950 . S
C3159 C3176 1.574 . S
C3159 C3178 1.368 . S
C3159 H3183 0.949 . S
H3160 C3164 0.949 . S
C3161 C3162 1.349 . S
C3161 C3163 1.327 . S
C3161 H3184 0.950 . S
C3162 C3161 1.349 . S
C3162 C3174 1.349 . S
C3163 C3161 1.327 . S
C3163 C3179 1.429 . S
C3163 H3185 0.950 . S
C3164 H3160 0.949 . S
C3164 C3172 1.574 . S
C3164 C3180 1.368 . S
H3165 C3173 0.950 . S
H3166 C3171 0.950 . S
H3167 C3172 0.949 . S
H3168 C3174 0.950 . S
H3169 C3175 0.950 . S
H3170 C3176 0.949 . S
C3171 H3166 0.950 . S
C3171 C3173 1.327 . S
C3171 C3177 1.429 . S
C3172 C3164 1.574 . S
C3172 H3167 0.949 . S
C3172 C3178 1.368 . S
C3173 C3157 1.349 . S
C3173 H3165 0.950 . S
C3173 C3171 1.327 . S
C3174 C3162 1.349 . S
C3174 H3168 0.950 . S
C3174 C3175 1.327 . S
C3175 H3169 0.950 . S
C3175 C3174 1.327 . S
C3175 C3179 1.429 . S
C3176 C3159 1.574 . S
C3176 H3170 0.949 . S
C3176 C3180 1.368 . S
C3177 C3158 1.429 . S
C3177 C3171 1.429 . S
C3177 C3178 1.523 . S
C3178 C3159 1.368 . S
C3178 C3172 1.368 . S
C3178 C3177 1.523 . S
C3179 C3163 1.429 . S
C3179 C3175 1.429 . S
C3179 C3180 1.523 . S
C3180 C3164 1.368 . S
C3180 C3176 1.368 . S
C3180 C3179 1.523 . S
H3181 C3156 0.950 . S
H3182 C3158 0.950 . S
H3183 C3159 0.949 . S
H3184 C3161 0.950 . S
H3185 C3163 0.950 . S
C3186 C3187 1.349 . S
C3186 C3188 1.327 . S
C3186 H3211 0.950 . S
C3187 C3186 1.349 . S
C3187 C3203 1.349 . S
C3188 C3186 1.327 . S
C3188 C3207 1.429 . S
C3188 H3212 0.950 . S
C3189 C3206 1.574 1_655 S
C3189 C3208 1.368 1_545 S
C3189 H3213 0.949 . S
H3190 C3194 0.949 . S
C3191 C3192 1.349 . S
C3191 C3193 1.327 . S
C3191 H3214 0.950 . S
C3192 C3191 1.349 . S
C3192 C3204 1.349 . S
C3193 C3191 1.327 . S
C3193 C3209 1.429 . S
C3193 H3215 0.950 . S
C3194 H3190 0.949 . S
C3194 C3202 1.574 1_455 S
C3194 C3210 1.368 1_565 S
H3195 C3203 0.950 . S
H3196 C3201 0.950 . S
H3197 C3202 0.949 . S
H3198 C3204 0.950 . S
H3199 C3205 0.950 . S
H3200 C3206 0.949 . S
C3201 H3196 0.950 . S
C3201 C3203 1.327 . S
C3201 C3207 1.429 . S
C3202 C3194 1.574 1_655 S
C3202 H3197 0.949 . S
C3202 C3208 1.368 1_556 S
C3203 C3187 1.349 . S
C3203 H3195 0.950 . S
C3203 C3201 1.327 . S
C3204 C3192 1.349 . S
C3204 H3198 0.950 . S
C3204 C3205 1.327 . S
C3205 H3199 0.950 . S
C3205 C3204 1.327 . S
C3205 C3209 1.429 . S
C3206 C3189 1.574 1_455 S
C3206 H3200 0.949 . S
C3206 C3210 1.368 1_554 S
C3207 C3188 1.429 . S
C3207 C3201 1.429 . S
C3207 C3208 1.523 . S
C3208 C3189 1.368 1_565 S
C3208 C3202 1.368 1_554 S
C3208 C3207 1.523 . S
C3209 C3193 1.429 . S
C3209 C3205 1.429 . S
C3209 C3210 1.523 . S
C3210 C3194 1.368 1_545 S
C3210 C3206 1.368 1_556 S
C3210 C3209 1.523 . S
H3211 C3186 0.950 . S
H3212 C3188 0.950 . S
H3213 C3189 0.949 . S
H3214 C3191 0.950 . S
H3215 C3193 0.950 . S
C3216 C3217 1.349 . S
C3216 C3218 1.327 . S
C3216 H3241 0.950 . S
C3217 C3216 1.349 . S
C3217 C3233 1.349 . S
C3218 C3216 1.327 . S
C3218 C3237 1.429 . S
C3218 H3242 0.950 . S
C3219 C3236 1.574 . S
C3219 C3238 1.368 . S
C3219 H3243 0.949 . S
H3220 C3224 0.949 . S
C3221 C3222 1.349 . S
C3221 C3223 1.327 . S
C3221 H3244 0.950 . S
C3222 C3221 1.349 . S
C3222 C3234 1.349 . S
C3223 C3221 1.327 . S
C3223 C3239 1.429 . S
C3223 H3245 0.950 . S
C3224 H3220 0.949 . S
C3224 C3232 1.574 . S
C3224 C3240 1.368 . S
H3225 C3233 0.950 . S
H3226 C3231 0.950 . S
H3227 C3232 0.949 . S
H3228 C3234 0.950 . S
H3229 C3235 0.950 . S
H3230 C3236 0.949 . S
C3231 H3226 0.950 . S
C3231 C3233 1.327 . S
C3231 C3237 1.429 . S
C3232 C3224 1.574 . S
C3232 H3227 0.949 . S
C3232 C3238 1.368 . S
C3233 C3217 1.349 . S
C3233 H3225 0.950 . S
C3233 C3231 1.327 . S
C3234 C3222 1.349 . S
C3234 H3228 0.950 . S
C3234 C3235 1.327 . S
C3235 H3229 0.950 . S
C3235 C3234 1.327 . S
C3235 C3239 1.429 . S
C3236 C3219 1.574 . S
C3236 H3230 0.949 . S
C3236 C3240 1.368 . S
C3237 C3218 1.429 . S
C3237 C3231 1.429 . S
C3237 C3238 1.523 . S
C3238 C3219 1.368 . S
C3238 C3232 1.368 . S
C3238 C3237 1.523 . S
C3239 C3223 1.429 . S
C3239 C3235 1.429 . S
C3239 C3240 1.523 . S
C3240 C3224 1.368 . S
C3240 C3236 1.368 . S
C3240 C3239 1.523 . S
H3241 C3216 0.950 . S
H3242 C3218 0.950 . S
H3243 C3219 0.949 . S
H3244 C3221 0.950 . S
H3245 C3223 0.950 . S
C3246 C3247 1.349 . S
C3246 C3248 1.327 . S
C3246 H3271 0.950 . S
C3247 C3246 1.349 . S
C3247 C3263 1.349 . S
C3248 C3246 1.327 . S
C3248 C3267 1.429 . S
C3248 H3272 0.950 . S
C3249 C3266 1.574 . S
C3249 C3268 1.368 . S
C3249 H3273 0.949 . S
H3250 C3254 0.949 . S
C3251 C3252 1.349 . S
C3251 C3253 1.327 . S
C3251 H3274 0.950 . S
C3252 C3251 1.349 . S
C3252 C3264 1.349 . S
C3253 C3251 1.327 . S
C3253 C3269 1.429 . S
C3253 H3275 0.950 . S
C3254 H3250 0.949 . S
C3254 C3262 1.574 . S
C3254 C3270 1.368 . S
H3255 C3263 0.950 . S
H3256 C3261 0.950 . S
H3257 C3262 0.949 . S
H3258 C3264 0.950 . S
H3259 C3265 0.950 . S
H3260 C3266 0.949 . S
C3261 H3256 0.950 . S
C3261 C3263 1.327 . S
C3261 C3267 1.429 . S
C3262 C3254 1.574 . S
C3262 H3257 0.949 . S
C3262 C3268 1.368 . S
C3263 C3247 1.349 . S
C3263 H3255 0.950 . S
C3263 C3261 1.327 . S
C3264 C3252 1.349 . S
C3264 H3258 0.950 . S
C3264 C3265 1.327 . S
C3265 H3259 0.950 . S
C3265 C3264 1.327 . S
C3265 C3269 1.429 . S
C3266 C3249 1.574 . S
C3266 H3260 0.949 . S
C3266 C3270 1.368 . S
C3267 C3248 1.429 . S
C3267 C3261 1.429 . S
C3267 C3268 1.523 . S
C3268 C3249 1.368 . S
C3268 C3262 1.368 . S
C3268 C3267 1.523 . S
C3269 C3253 1.429 . S
C3269 C3265 1.429 . S
C3269 C3270 1.523 . S
C3270 C3254 1.368 . S
C3270 C3266 1.368 . S
C3270 C3269 1.523 . S
H3271 C3246 0.950 . S
H3272 C3248 0.950 . S
H3273 C3249 0.949 . S
H3274 C3251 0.950 . S
H3275 C3253 0.950 . S
C3276 C3277 1.349 . S
C3276 C3278 1.327 . S
C3276 H3301 0.950 . S
C3277 C3276 1.349 . S
C3277 C3293 1.349 . S
C3278 C3276 1.327 . S
C3278 C3297 1.429 . S
C3278 H3302 0.950 . S
C3279 C3296 1.574 . S
C3279 C3298 1.368 . S
C3279 H3303 0.949 . S
H3280 C3284 0.949 . S
C3281 C3282 1.349 . S
C3281 C3283 1.327 . S
C3281 H3304 0.950 . S
C3282 C3281 1.349 . S
C3282 C3294 1.349 . S
C3283 C3281 1.327 . S
C3283 C3299 1.429 . S
C3283 H3305 0.950 . S
C3284 H3280 0.949 . S
C3284 C3292 1.574 . S
C3284 C3300 1.368 . S
H3285 C3293 0.950 . S
H3286 C3291 0.950 . S
H3287 C3292 0.949 . S
H3288 C3294 0.950 . S
H3289 C3295 0.950 . S
H3290 C3296 0.949 . S
C3291 H3286 0.950 . S
C3291 C3293 1.327 . S
C3291 C3297 1.429 . S
C3292 C3284 1.574 . S
C3292 H3287 0.949 . S
C3292 C3298 1.368 . S
C3293 C3277 1.349 . S
C3293 H3285 0.950 . S
C3293 C3291 1.327 . S
C3294 C3282 1.349 . S
C3294 H3288 0.950 . S
C3294 C3295 1.327 . S
C3295 H3289 0.950 . S
C3295 C3294 1.327 . S
C3295 C3299 1.429 . S
C3296 C3279 1.574 . S
C3296 H3290 0.949 . S
C3296 C3300 1.368 . S
C3297 C3278 1.429 . S
C3297 C3291 1.429 . S
C3297 C3298 1.523 . S
C3298 C3279 1.368 . S
C3298 C3292 1.368 . S
C3298 C3297 1.523 . S
C3299 C3283 1.429 . S
C3299 C3295 1.429 . S
C3299 C3300 1.523 . S
C3300 C3284 1.368 . S
C3300 C3296 1.368 . S
C3300 C3299 1.523 . S
H3301 C3276 0.950 . S
H3302 C3278 0.950 . S
H3303 C3279 0.949 . S
H3304 C3281 0.950 . S
H3305 C3283 0.950 . S
C3306 C3307 1.349 . S
C3306 C3308 1.327 . S
C3306 H3331 0.950 . S
C3307 C3306 1.349 . S
C3307 C3323 1.349 . S
C3308 C3306 1.327 . S
C3308 C3327 1.429 . S
C3308 H3332 0.950 . S
C3309 C3326 1.574 . S
C3309 C3328 1.368 . S
C3309 H3333 0.949 . S
H3310 C3314 0.949 . S
C3311 C3312 1.349 . S
C3311 C3313 1.327 . S
C3311 H3334 0.950 . S
C3312 C3311 1.349 . S
C3312 C3324 1.349 . S
C3313 C3311 1.327 . S
C3313 C3329 1.429 . S
C3313 H3335 0.950 . S
C3314 H3310 0.949 . S
C3314 C3322 1.574 . S
C3314 C3330 1.368 . S
H3315 C3323 0.950 . S
H3316 C3321 0.950 . S
H3317 C3322 0.949 . S
H3318 C3324 0.950 . S
H3319 C3325 0.950 . S
H3320 C3326 0.949 . S
C3321 H3316 0.950 . S
C3321 C3323 1.327 . S
C3321 C3327 1.429 . S
C3322 C3314 1.574 . S
C3322 H3317 0.949 . S
C3322 C3328 1.368 . S
C3323 C3307 1.349 . S
C3323 H3315 0.950 . S
C3323 C3321 1.327 . S
C3324 C3312 1.349 . S
C3324 H3318 0.950 . S
C3324 C3325 1.327 . S
C3325 H3319 0.950 . S
C3325 C3324 1.327 . S
C3325 C3329 1.429 . S
C3326 C3309 1.574 . S
C3326 H3320 0.949 . S
C3326 C3330 1.368 . S
C3327 C3308 1.429 . S
C3327 C3321 1.429 . S
C3327 C3328 1.523 . S
C3328 C3309 1.368 . S
C3328 C3322 1.368 . S
C3328 C3327 1.523 . S
C3329 C3313 1.429 . S
C3329 C3325 1.429 . S
C3329 C3330 1.523 . S
C3330 C3314 1.368 . S
C3330 C3326 1.368 . S
C3330 C3329 1.523 . S
H3331 C3306 0.950 . S
H3332 C3308 0.950 . S
H3333 C3309 0.949 . S
H3334 C3311 0.950 . S
H3335 C3313 0.950 . S
C3336 C3337 1.349 . S
C3336 C3338 1.327 . S
C3336 H3361 0.950 . S
C3337 C3336 1.349 . S
C3337 C3353 1.349 . S
C3338 C3336 1.327 . S
C3338 C3357 1.429 . S
C3338 H3362 0.950 . S
C3339 C3356 1.574 . S
C3339 C3358 1.368 1_554 S
C3339 H3363 0.949 . S
H3340 C3344 0.949 . S
C3341 C3342 1.349 . S
C3341 C3343 1.327 . S
C3341 H3364 0.950 . S
C3342 C3341 1.349 . S
C3342 C3354 1.349 . S
C3343 C3341 1.327 . S
C3343 C3359 1.429 . S
C3343 H3365 0.950 . S
C3344 H3340 0.949 . S
C3344 C3352 1.574 . S
C3344 C3360 1.368 1_556 S
H3345 C3353 0.950 . S
H3346 C3351 0.950 . S
H3347 C3352 0.949 . S
H3348 C3354 0.950 . S
H3349 C3355 0.950 . S
H3350 C3356 0.949 . S
C3351 H3346 0.950 . S
C3351 C3353 1.327 . S
C3351 C3357 1.429 . S
C3352 C3344 1.574 . S
C3352 H3347 0.949 . S
C3352 C3358 1.368 . S
C3353 C3337 1.349 . S
C3353 H3345 0.950 . S
C3353 C3351 1.327 . S
C3354 C3342 1.349 . S
C3354 H3348 0.950 . S
C3354 C3355 1.327 . S
C3355 H3349 0.950 . S
C3355 C3354 1.327 . S
C3355 C3359 1.429 . S
C3356 C3339 1.574 . S
C3356 H3350 0.949 . S
C3356 C3360 1.368 . S
C3357 C3338 1.429 . S
C3357 C3351 1.429 . S
C3357 C3358 1.523 . S
C3358 C3339 1.368 1_556 S
C3358 C3352 1.368 . S
C3358 C3357 1.523 . S
C3359 C3343 1.429 . S
C3359 C3355 1.429 . S
C3359 C3360 1.523 . S
C3360 C3344 1.368 1_554 S
C3360 C3356 1.368 . S
C3360 C3359 1.523 . S
H3361 C3336 0.950 . S
H3362 C3338 0.950 . S
H3363 C3339 0.949 . S
H3364 C3341 0.950 . S
H3365 C3343 0.950 . S
C3366 C3367 1.349 . S
C3366 C3368 1.327 . S
C3366 H3391 0.950 . S
C3367 C3366 1.349 . S
C3367 C3383 1.349 . S
C3368 C3366 1.327 . S
C3368 C3387 1.429 . S
C3368 H3392 0.950 . S
C3369 C3386 1.595 . S
C3369 C3388 1.368 . S
C3369 H3393 0.949 . S
H3370 C3374 0.949 . S
C3371 C3372 1.349 . S
C3371 C3373 1.327 . S
C3371 H3394 0.950 . S
C3372 C3371 1.349 . S
C3372 C3384 1.349 . S
C3373 C3371 1.327 . S
C3373 C3389 1.429 . S
C3373 H3395 0.950 . S
C3374 H3370 0.949 . S
C3374 C3382 1.595 . S
C3374 C3390 1.368 . S
H3375 C3383 0.950 . S
H3376 C3381 0.950 . S
H3377 C3382 0.949 . S
H3378 C3384 0.950 . S
H3379 C3385 0.950 . S
H3380 C3386 0.949 . S
C3381 H3376 0.950 . S
C3381 C3383 1.327 . S
C3381 C3387 1.429 . S
C3382 C3374 1.595 . S
C3382 H3377 0.949 . S
C3382 C3388 1.347 1_655 S
C3383 C3367 1.349 . S
C3383 H3375 0.950 . S
C3383 C3381 1.327 . S
C3384 C3372 1.349 . S
C3384 H3378 0.950 . S
C3384 C3385 1.327 . S
C3385 H3379 0.950 . S
C3385 C3384 1.327 . S
C3385 C3389 1.429 . S
C3386 C3369 1.595 . S
C3386 H3380 0.949 . S
C3386 C3390 1.347 1_455 S
C3387 C3368 1.429 . S
C3387 C3381 1.429 . S
C3387 C3388 1.523 . S
C3388 C3369 1.368 . S
C3388 C3382 1.347 1_455 S
C3388 C3387 1.523 . S
C3389 C3373 1.429 . S
C3389 C3385 1.429 . S
C3389 C3390 1.523 . S
C3390 C3374 1.368 . S
C3390 C3386 1.347 1_655 S
C3390 C3389 1.523 . S
H3391 C3366 0.950 . S
H3392 C3368 0.950 . S
H3393 C3369 0.949 . S
H3394 C3371 0.950 . S
H3395 C3373 0.950 . S
C3396 C3397 1.349 . S
C3396 C3398 1.327 . S
C3396 H3421 0.950 . S
C3397 C3396 1.349 . S
C3397 C3413 1.349 . S
C3398 C3396 1.327 . S
C3398 C3417 1.429 . S
C3398 H3422 0.950 . S
C3399 C3416 1.574 . S
C3399 C3418 1.368 1_655 S
C3399 H3423 0.949 . S
H3400 C3404 0.949 . S
C3401 C3402 1.349 . S
C3401 C3403 1.327 . S
C3401 H3424 0.950 . S
C3402 C3401 1.349 . S
C3402 C3414 1.349 . S
C3403 C3401 1.327 . S
C3403 C3419 1.429 . S
C3403 H3425 0.950 . S
C3404 H3400 0.949 . S
C3404 C3412 1.574 . S
C3404 C3420 1.368 1_455 S
H3405 C3413 0.950 . S
H3406 C3411 0.950 . S
H3407 C3412 0.949 . S
H3408 C3414 0.950 . S
H3409 C3415 0.950 . S
H3410 C3416 0.949 . S
C3411 H3406 0.950 . S
C3411 C3413 1.327 . S
C3411 C3417 1.429 . S
C3412 C3404 1.574 . S
C3412 H3407 0.949 . S
C3412 C3418 1.368 1_556 S
C3413 C3397 1.349 . S
C3413 H3405 0.950 . S
C3413 C3411 1.327 . S
C3414 C3402 1.349 . S
C3414 H3408 0.950 . S
C3414 C3415 1.327 . S
C3415 H3409 0.950 . S
C3415 C3414 1.327 . S
C3415 C3419 1.429 . S
C3416 C3399 1.574 . S
C3416 H3410 0.949 . S
C3416 C3420 1.368 1_554 S
C3417 C3398 1.429 . S
C3417 C3411 1.429 . S
C3417 C3418 1.523 . S
C3418 C3399 1.368 1_455 S
C3418 C3412 1.368 1_554 S
C3418 C3417 1.523 . S
C3419 C3403 1.429 . S
C3419 C3415 1.429 . S
C3419 C3420 1.523 . S
C3420 C3404 1.368 1_655 S
C3420 C3416 1.368 1_556 S
C3420 C3419 1.523 . S
H3421 C3396 0.950 . S
H3422 C3398 0.950 . S
H3423 C3399 0.949 . S
H3424 C3401 0.950 . S
H3425 C3403 0.950 . S
C3426 C3427 1.349 . S
C3426 C3428 1.327 . S
C3426 H3451 0.950 . S
C3427 C3426 1.349 . S
C3427 C3443 1.349 . S
C3428 C3426 1.327 . S
C3428 C3447 1.429 . S
C3428 H3452 0.950 . S
C3429 C3446 1.574 . S
C3429 C3448 1.368 . S
C3429 H3453 0.949 . S
H3430 C3434 0.949 . S
C3431 C3432 1.349 . S
C3431 C3433 1.327 . S
C3431 H3454 0.950 . S
C3432 C3431 1.349 . S
C3432 C3444 1.349 . S
C3433 C3431 1.327 . S
C3433 C3449 1.429 . S
C3433 H3455 0.950 . S
C3434 H3430 0.949 . S
C3434 C3442 1.574 . S
C3434 C3450 1.368 . S
H3435 C3443 0.950 . S
H3436 C3441 0.950 . S
H3437 C3442 0.949 . S
H3438 C3444 0.950 . S
H3439 C3445 0.950 . S
H3440 C3446 0.949 . S
C3441 H3436 0.950 . S
C3441 C3443 1.327 . S
C3441 C3447 1.429 . S
C3442 C3434 1.574 . S
C3442 H3437 0.949 . S
C3442 C3448 1.368 . S
C3443 C3427 1.349 . S
C3443 H3435 0.950 . S
C3443 C3441 1.327 . S
C3444 C3432 1.349 . S
C3444 H3438 0.950 . S
C3444 C3445 1.327 . S
C3445 H3439 0.950 . S
C3445 C3444 1.327 . S
C3445 C3449 1.429 . S
C3446 C3429 1.574 . S
C3446 H3440 0.949 . S
C3446 C3450 1.368 . S
C3447 C3428 1.429 . S
C3447 C3441 1.429 . S
C3447 C3448 1.523 . S
C3448 C3429 1.368 . S
C3448 C3442 1.368 . S
C3448 C3447 1.523 . S
C3449 C3433 1.429 . S
C3449 C3445 1.429 . S
C3449 C3450 1.523 . S
C3450 C3434 1.368 . S
C3450 C3446 1.368 . S
C3450 C3449 1.523 . S
H3451 C3426 0.950 . S
H3452 C3428 0.950 . S
H3453 C3429 0.949 . S
H3454 C3431 0.950 . S
H3455 C3433 0.950 . S
C1057 N5 1.395 . S
C1062 C919 1.376 . S
C1087 N38 1.395 . S
C1092 C292 1.376 . S
C1117 C853 1.376 . S
C1122 N71 1.395 . S
C1147 C358 1.376 . S
C1152 N104 1.395 . S
C1177 C985 1.376 . S
C1182 N137 1.395 . S
C1207 N170 1.395 . S
C1212 C490 1.376 . S
C1237 N203 1.395 . S
C1242 C1051 1.376 . S
C1267 C424 1.376 . S
C1272 N236 1.395 . S
C1297 N269 1.395 . S
C1302 C655 1.376 . S
C1327 N302 1.395 . S
C1332 C28 1.376 . S
C1357 N335 1.395 . S
C1362 C589 1.376 . S
C1387 C94 1.376 . S
C1392 N368 1.395 . S
C1417 N401 1.395 . S
C1422 C721 1.376 . S
C1447 N434 1.395 . S
C1452 C226 1.376 . S
C1477 C787 1.376 . S
C1482 N467 1.395 . S
C1507 N500 1.395 . S
C1512 C160 1.376 . S
C1537 N533 1.395 . S
C1542 C391 1.376 . S
C1567 C820 1.376 . S
C1572 N566 1.395 . S
C1597 C325 1.376 . S
C1602 N599 1.395 . S
C1627 N632 1.395 . S
C1632 C886 1.376 . S
C1657 N665 1.395 . S
C1662 C457 1.376 . S
C1687 C1018 1.376 . S
C1692 N698 1.395 . S
C1717 N731 1.395 . S
C1722 C523 1.376 . S
C1747 C952 1.376 . S
C1752 N764 1.395 . S
C1777 N797 1.395 . S
C1782 C127 1.376 . S
C1807 C556 1.376 . S
C1812 N830 1.395 . S
C1837 N863 1.395 . S
C1842 C61 1.376 . S
C1867 C622 1.376 . S
C1872 N896 1.395 . S
C1897 N929 1.395 . S
C1902 C193 1.376 . S
C1927 C754 1.376 . S
C1932 N962 1.395 . S
C1957 C259 1.376 . S
C1962 N995 1.395 . S
C1987 N1028 1.395 . S
C1992 C688 1.376 . S
C2017 N14 1.455 . S
C2022 N146 1.455 . S
C2047 N47 1.455 . S
C2052 N179 1.455 . S
C2077 N212 1.455 . S
C2082 N80 1.455 . S
C2107 N113 1.455 . S
C2112 N245 1.455 . S
C2137 N278 1.455 . S
C2142 N410 1.455 . S
C2167 N311 1.455 . S
C2172 N443 1.455 . S
C2197 N344 1.455 . S
C2202 N476 1.455 . S
C2227 N377 1.455 . S
C2232 N509 1.455 . S
C2257 N542 1.455 . S
C2262 N674 1.455 . S
C2287 N707 1.455 . S
C2292 N575 1.455 . S
C2317 N740 1.455 . S
C2322 N608 1.455 . S
C2347 N773 1.455 . S
C2352 N641 1.455 . S
C2377 N938 1.455 . S
C2382 N806 1.455 . S
C2407 N839 1.455 . S
C2412 N971 1.455 . S
C2437 N872 1.455 . S
C2442 N1004 1.455 . S
C2467 N1037 1.455 . S
C2472 N905 1.455 . S
C2497 C173 1.855 . S
C2502 C8 1.855 . S
C2527 C206 1.855 . S
C2532 C41 1.855 . S
C2557 C239 1.855 . S
C2562 C74 1.855 . S
C2587 C140 1.855 . S
C2592 C107 1.855 . S
C2617 C437 1.855 . S
C2622 C272 1.855 . S
C2647 C470 1.855 . S
C2652 C305 1.855 . S
C2677 C338 1.855 . S
C2682 C503 1.855 . S
C2707 C371 1.855 . S
C2712 C404 1.855 . S
C2737 C701 1.855 . S
C2742 C536 1.855 . S
C2767 C569 1.855 . S
C2772 C734 1.855 . S
C2797 C767 1.855 . S
C2802 C602 1.855 . S
C2827 C635 1.855 . S
C2832 C668 1.855 . S
C2857 C965 1.855 . S
C2862 C800 1.855 . S
C2887 C833 1.855 . S
C2892 C998 1.855 . S
C2917 C866 1.855 . S
C2922 C1031 1.855 . S
C2947 C932 1.855 . S
C2952 C899 1.855 . S
C2977 C809 1.048 . S
C2982 C17 1.048 . S
C3007 C50 1.048 . S
C3012 C314 1.048 . S
C3037 C83 1.048 . S
C3042 C875 1.048 . S
C3067 C116 1.048 . S
C3072 C380 1.048 . S
C3097 C149 1.048 . S
C3102 C941 1.048 . S
C3127 C446 1.048 . S
C3132 C182 1.048 . S
C3157 C1007 1.048 . S
C3162 C215 1.048 . S
C3187 C512 1.048 . S
C3192 C248 1.048 . S
C3217 C281 1.048 . S
C3222 C545 1.048 . S
C3247 C611 1.048 . S
C3252 C347 1.048 . S
C3277 C413 1.048 . S
C3282 C677 1.048 . S
C3307 C479 1.048 . S
C3312 C743 1.048 . S
C3337 C842 1.048 . S
C3342 C578 1.048 . S
C3367 C908 1.048 . S
C3372 C644 1.048 . S
C3397 C974 1.048 . S
C3402 C710 1.048 . S
C3427 C776 1.048 . S
C3432 C1040 1.048 . S
