# Generated by pormake.
# Topology uos, (4)-cn, num edge types: 1
# Building blocks:
#     Node 0, Type 0, BuildingBlock: GALJAG_clean_sbu_0, # of connection points: 4
#     Node 1, Type 0, BuildingBlock: GALJAG_clean_sbu_0, # of connection points: 4
#     Node 2, Type 0, BuildingBlock: GALJAG_clean_sbu_0, # of connection points: 4
#     Node 3, Type 0, BuildingBlock: GALJAG_clean_sbu_0, # of connection points: 4
#     Node 4, Type 0, BuildingBlock: GALJAG_clean_sbu_0, # of connection points: 4
#     Node 5, Type 0, BuildingBlock: GALJAG_clean_sbu_0, # of connection points: 4
#     Node 6, Type 0, BuildingBlock: GALJAG_clean_sbu_0, # of connection points: 4
#     Node 7, Type 0, BuildingBlock: GALJAG_clean_sbu_0, # of connection points: 4
#     Node 8, Type 0, BuildingBlock: GALJAG_clean_sbu_0, # of connection points: 4
#     Node 9, Type 0, BuildingBlock: GALJAG_clean_sbu_0, # of connection points: 4
#     Node 10, Type 0, BuildingBlock: GALJAG_clean_sbu_0, # of connection points: 4
#     Node 11, Type 0, BuildingBlock: GALJAG_clean_sbu_0, # of connection points: 4
#     Node 12, Type 0, BuildingBlock: GALJAG_clean_sbu_0, # of connection points: 4
#     Node 13, Type 0, BuildingBlock: GALJAG_clean_sbu_0, # of connection points: 4
#     Node 14, Type 0, BuildingBlock: GALJAG_clean_sbu_0, # of connection points: 4
#     Node 15, Type 0, BuildingBlock: GALJAG_clean_sbu_0, # of connection points: 4
#     Node 16, Type 0, BuildingBlock: GALJAG_clean_sbu_0, # of connection points: 4
#     Node 17, Type 0, BuildingBlock: GALJAG_clean_sbu_0, # of connection points: 4
#     Node 18, Type 0, BuildingBlock: GALJAG_clean_sbu_0, # of connection points: 4
#     Node 19, Type 0, BuildingBlock: GALJAG_clean_sbu_0, # of connection points: 4
#     Node 20, Type 0, BuildingBlock: GALJAG_clean_sbu_0, # of connection points: 4
#     Node 21, Type 0, BuildingBlock: GALJAG_clean_sbu_0, # of connection points: 4
#     Node 22, Type 0, BuildingBlock: GALJAG_clean_sbu_0, # of connection points: 4
#     Node 23, Type 0, BuildingBlock: GALJAG_clean_sbu_0, # of connection points: 4
#     Node 24, Type 0, BuildingBlock: GALJAG_clean_sbu_0, # of connection points: 4
#     Node 25, Type 0, BuildingBlock: GALJAG_clean_sbu_0, # of connection points: 4
#     Node 26, Type 0, BuildingBlock: GALJAG_clean_sbu_0, # of connection points: 4
#     Node 27, Type 0, BuildingBlock: GALJAG_clean_sbu_0, # of connection points: 4
#     Node 28, Type 0, BuildingBlock: GALJAG_clean_sbu_0, # of connection points: 4
#     Node 29, Type 0, BuildingBlock: GALJAG_clean_sbu_0, # of connection points: 4
#     Node 30, Type 0, BuildingBlock: GALJAG_clean_sbu_0, # of connection points: 4
#     Node 31, Type 0, BuildingBlock: GALJAG_clean_sbu_0, # of connection points: 4
#     Edge 32, Type (0, 0), BuildingBlock: ZUJKAS_clean_linker_0, # of connection points: 2
#     Edge 33, Type (0, 0), BuildingBlock: ZUJKAS_clean_linker_0, # of connection points: 2
#     Edge 34, Type (0, 0), BuildingBlock: ZUJKAS_clean_linker_0, # of connection points: 2
#     Edge 35, Type (0, 0), BuildingBlock: ZUJKAS_clean_linker_0, # of connection points: 2
#     Edge 36, Type (0, 0), BuildingBlock: ZUJKAS_clean_linker_0, # of connection points: 2
#     Edge 37, Type (0, 0), BuildingBlock: ZUJKAS_clean_linker_0, # of connection points: 2
#     Edge 38, Type (0, 0), BuildingBlock: ZUJKAS_clean_linker_0, # of connection points: 2
#     Edge 39, Type (0, 0), BuildingBlock: ZUJKAS_clean_linker_0, # of connection points: 2
#     Edge 40, Type (0, 0), BuildingBlock: ZUJKAS_clean_linker_0, # of connection points: 2
#     Edge 41, Type (0, 0), BuildingBlock: ZUJKAS_clean_linker_0, # of connection points: 2
#     Edge 42, Type (0, 0), BuildingBlock: ZUJKAS_clean_linker_0, # of connection points: 2
#     Edge 43, Type (0, 0), BuildingBlock: ZUJKAS_clean_linker_0, # of connection points: 2
#     Edge 44, Type (0, 0), BuildingBlock: ZUJKAS_clean_linker_0, # of connection points: 2
#     Edge 45, Type (0, 0), BuildingBlock: ZUJKAS_clean_linker_0, # of connection points: 2
#     Edge 46, Type (0, 0), BuildingBlock: ZUJKAS_clean_linker_0, # of connection points: 2
#     Edge 47, Type (0, 0), BuildingBlock: ZUJKAS_clean_linker_0, # of connection points: 2
#     Edge 48, Type (0, 0), BuildingBlock: ZUJKAS_clean_linker_0, # of connection points: 2
#     Edge 49, Type (0, 0), BuildingBlock: ZUJKAS_clean_linker_0, # of connection points: 2
#     Edge 50, Type (0, 0), BuildingBlock: ZUJKAS_clean_linker_0, # of connection points: 2
#     Edge 51, Type (0, 0), BuildingBlock: ZUJKAS_clean_linker_0, # of connection points: 2
#     Edge 52, Type (0, 0), BuildingBlock: ZUJKAS_clean_linker_0, # of connection points: 2
#     Edge 53, Type (0, 0), BuildingBlock: ZUJKAS_clean_linker_0, # of connection points: 2
#     Edge 54, Type (0, 0), BuildingBlock: ZUJKAS_clean_linker_0, # of connection points: 2
#     Edge 55, Type (0, 0), BuildingBlock: ZUJKAS_clean_linker_0, # of connection points: 2
#     Edge 56, Type (0, 0), BuildingBlock: ZUJKAS_clean_linker_0, # of connection points: 2
#     Edge 57, Type (0, 0), BuildingBlock: ZUJKAS_clean_linker_0, # of connection points: 2
#     Edge 58, Type (0, 0), BuildingBlock: ZUJKAS_clean_linker_0, # of connection points: 2
#     Edge 59, Type (0, 0), BuildingBlock: ZUJKAS_clean_linker_0, # of connection points: 2
#     Edge 60, Type (0, 0), BuildingBlock: ZUJKAS_clean_linker_0, # of connection points: 2
#     Edge 61, Type (0, 0), BuildingBlock: ZUJKAS_clean_linker_0, # of connection points: 2
#     Edge 62, Type (0, 0), BuildingBlock: ZUJKAS_clean_linker_0, # of connection points: 2
#     Edge 63, Type (0, 0), BuildingBlock: ZUJKAS_clean_linker_0, # of connection points: 2
#     Edge 64, Type (0, 0), BuildingBlock: ZUJKAS_clean_linker_0, # of connection points: 2
#     Edge 65, Type (0, 0), BuildingBlock: ZUJKAS_clean_linker_0, # of connection points: 2
#     Edge 66, Type (0, 0), BuildingBlock: ZUJKAS_clean_linker_0, # of connection points: 2
#     Edge 67, Type (0, 0), BuildingBlock: ZUJKAS_clean_linker_0, # of connection points: 2
#     Edge 68, Type (0, 0), BuildingBlock: ZUJKAS_clean_linker_0, # of connection points: 2
#     Edge 69, Type (0, 0), BuildingBlock: ZUJKAS_clean_linker_0, # of connection points: 2
#     Edge 70, Type (0, 0), BuildingBlock: ZUJKAS_clean_linker_0, # of connection points: 2
#     Edge 71, Type (0, 0), BuildingBlock: ZUJKAS_clean_linker_0, # of connection points: 2
#     Edge 72, Type (0, 0), BuildingBlock: ZUJKAS_clean_linker_0, # of connection points: 2
#     Edge 73, Type (0, 0), BuildingBlock: ZUJKAS_clean_linker_0, # of connection points: 2
#     Edge 74, Type (0, 0), BuildingBlock: ZUJKAS_clean_linker_0, # of connection points: 2
#     Edge 75, Type (0, 0), BuildingBlock: ZUJKAS_clean_linker_0, # of connection points: 2
#     Edge 76, Type (0, 0), BuildingBlock: ZUJKAS_clean_linker_0, # of connection points: 2
#     Edge 77, Type (0, 0), BuildingBlock: ZUJKAS_clean_linker_0, # of connection points: 2
#     Edge 78, Type (0, 0), BuildingBlock: ZUJKAS_clean_linker_0, # of connection points: 2
#     Edge 79, Type (0, 0), BuildingBlock: ZUJKAS_clean_linker_0, # of connection points: 2
#     Edge 80, Type (0, 0), BuildingBlock: ZUJKAS_clean_linker_0, # of connection points: 2
#     Edge 81, Type (0, 0), BuildingBlock: ZUJKAS_clean_linker_0, # of connection points: 2
#     Edge 82, Type (0, 0), BuildingBlock: ZUJKAS_clean_linker_0, # of connection points: 2
#     Edge 83, Type (0, 0), BuildingBlock: ZUJKAS_clean_linker_0, # of connection points: 2
#     Edge 84, Type (0, 0), BuildingBlock: ZUJKAS_clean_linker_0, # of connection points: 2
#     Edge 85, Type (0, 0), BuildingBlock: ZUJKAS_clean_linker_0, # of connection points: 2
#     Edge 86, Type (0, 0), BuildingBlock: ZUJKAS_clean_linker_0, # of connection points: 2
#     Edge 87, Type (0, 0), BuildingBlock: ZUJKAS_clean_linker_0, # of connection points: 2
#     Edge 88, Type (0, 0), BuildingBlock: ZUJKAS_clean_linker_0, # of connection points: 2
#     Edge 89, Type (0, 0), BuildingBlock: ZUJKAS_clean_linker_0, # of connection points: 2
#     Edge 90, Type (0, 0), BuildingBlock: ZUJKAS_clean_linker_0, # of connection points: 2
#     Edge 91, Type (0, 0), BuildingBlock: ZUJKAS_clean_linker_0, # of connection points: 2
#     Edge 92, Type (0, 0), BuildingBlock: ZUJKAS_clean_linker_0, # of connection points: 2
#     Edge 93, Type (0, 0), BuildingBlock: ZUJKAS_clean_linker_0, # of connection points: 2
#     Edge 94, Type (0, 0), BuildingBlock: ZUJKAS_clean_linker_0, # of connection points: 2
#     Edge 95, Type (0, 0), BuildingBlock: ZUJKAS_clean_linker_0, # of connection points: 2
# Relax obj value: 0.041
# Max RMSD: 0.074
# Mean RMSD: 0.074
data_MOF--net-uos--node1-GALJAG_clean_sbu_0--edge1-ZUJKAS_clean_linker_0
_symmetry_space_group_name_H-M    P1
_symmetry_Int_Tables_number       1
_symmetry_cell_setting            triclinic
loop_
_symmetry_equiv_pos_as_xyz
'x, y, z'
_cell_length_a     116.94384
_cell_length_b     116.93389
_cell_length_c     27.04246
_cell_angle_alpha  90.004032
_cell_angle_beta   90.009845
_cell_angle_gamma 90.00054
loop_
_atom_site_label
_atom_site_type_symbol
_atom_site_fract_x
_atom_site_fract_y
_atom_site_fract_z
_atom_type_partial_charge
In0 In 0.17211 0.1657 0.11899 0.0
O1 O 0.17265 0.1522 0.05767 0.0
O2 O 0.1594 0.16461 0.05524 0.0
C3 C 0.19364 0.16255 0.15328 0.0
C4 C 0.15895 0.15517 0.18702 0.0
C5 C 0.17068 0.18855 0.10479 0.0
O6 O 0.1913 0.16237 0.1077 0.0
O7 O 0.18516 0.16421 0.18109 0.0
O8 O 0.16329 0.18298 0.12876 0.0
O9 O 0.17872 0.18258 0.08741 0.0
C10 C 0.16375 0.15578 0.03618 0.0
O11 O 0.16148 0.16565 0.19006 0.0
O12 O 0.16311 0.15007 0.15015 0.0
In13 In 0.08536 0.92245 0.37022 0.0
O14 O 0.10002 0.92278 0.31423 0.0
O15 O 0.08659 0.91082 0.30279 0.0
C16 C 0.08943 0.94427 0.39955 0.0
C17 C 0.09467 0.90883 0.44001 0.0
C18 C 0.06244 0.92044 0.35814 0.0
O19 O 0.08756 0.94168 0.355 0.0
O20 O 0.08946 0.93589 0.42874 0.0
O21 O 0.06822 0.91355 0.3838 0.0
O22 O 0.06821 0.92827 0.33812 0.0
C23 C 0.09611 0.91467 0.28838 0.0
O24 O 0.08566 0.9145 0.44767 0.0
O25 O 0.0989 0.91002 0.39748 0.0
In26 In 0.32911 0.83497 0.61955 0.0
O27 O 0.3292 0.84837 0.55781 0.0
O28 O 0.34308 0.83668 0.56126 0.0
C29 C 0.30721 0.83764 0.65032 0.0
C30 C 0.3415 0.84566 0.68972 0.0
C31 C 0.33079 0.81218 0.60422 0.0
O32 O 0.30991 0.83775 0.60514 0.0
O33 O 0.31549 0.83628 0.67942 0.0
O34 O 0.33672 0.81741 0.63597 0.0
O35 O 0.32409 0.81846 0.57975 0.0
C36 C 0.33869 0.84523 0.54011 0.0
O37 O 0.3399 0.83498 0.69004 0.0
O38 O 0.33679 0.8509 0.6544 0.0
In39 In 0.41627 0.08004 0.87353 0.0
O40 O 0.40309 0.07973 0.81093 0.0
O41 O 0.41485 0.09356 0.81311 0.0
C42 C 0.41349 0.05831 0.90589 0.0
C43 C 0.40537 0.09256 0.94272 0.0
C44 C 0.43908 0.0815 0.85832 0.0
O45 O 0.41272 0.06096 0.86075 0.0
O46 O 0.41558 0.06659 0.93432 0.0
O47 O 0.43367 0.0885 0.88506 0.0
O48 O 0.43296 0.07385 0.83872 0.0
C49 C 0.40633 0.08907 0.79209 0.0
O50 O 0.41603 0.09083 0.94411 0.0
O51 O 0.40028 0.08788 0.90696 0.0
In52 In 0.17063 0.83518 0.87375 0.0
O53 O 0.1577 0.83556 0.81052 0.0
O54 O 0.16515 0.8513 0.83308 0.0
C55 C 0.16905 0.81248 0.89136 0.0
C56 C 0.16154 0.84585 0.95332 0.0
C57 C 0.19232 0.83684 0.83947 0.0
O58 O 0.16338 0.81747 0.85808 0.0
O59 O 0.17546 0.81895 0.91636 0.0
O60 O 0.18979 0.8387 0.88414 0.0
O61 O 0.18395 0.83418 0.81245 0.0
C62 C 0.15825 0.84625 0.80463 0.0
O63 O 0.17136 0.84824 0.93689 0.0
O64 O 0.15657 0.83782 0.93086 0.0
In65 In 0.41616 0.92121 0.12225 0.0
O66 O 0.41578 0.90968 0.05395 0.0
O67 O 0.39996 0.91395 0.0881 0.0
C68 C 0.43897 0.91962 0.13731 0.0
C69 C 0.40605 0.912 0.20284 0.0
C70 C 0.4137 0.94298 0.0896 0.0
O71 O 0.43376 0.91372 0.10543 0.0
O72 O 0.43266 0.92623 0.16214 0.0
O73 O 0.41312 0.94041 0.13485 0.0
O74 O 0.41544 0.93462 0.06127 0.0
C75 C 0.40504 0.90859 0.0541 0.0
O76 O 0.40308 0.92154 0.18513 0.0
O77 O 0.41439 0.90736 0.18109 0.0
In78 In 0.32999 0.16675 0.37714 0.0
O79 O 0.32974 0.15358 0.43975 0.0
O80 O 0.34378 0.16507 0.43631 0.0
C81 C 0.30819 0.16413 0.3452 0.0
C82 C 0.3423 0.15582 0.30737 0.0
C83 C 0.3317 0.18955 0.39222 0.0
O84 O 0.31088 0.16331 0.39028 0.0
O85 O 0.31645 0.16621 0.31672 0.0
O86 O 0.33821 0.18414 0.36332 0.0
O87 O 0.3244 0.18344 0.41419 0.0
C88 C 0.33922 0.15665 0.45774 0.0
O89 O 0.34078 0.16651 0.30668 0.0
O90 O 0.33754 0.15069 0.34284 0.0
In91 In 0.08445 0.08062 0.62272 0.0
O92 O 0.09753 0.08014 0.68565 0.0
O93 O 0.08681 0.09474 0.67993 0.0
C94 C 0.08668 0.05896 0.58869 0.0
C95 C 0.09533 0.09285 0.55258 0.0
C96 C 0.06176 0.08217 0.64094 0.0
O97 O 0.08838 0.06152 0.63346 0.0
O98 O 0.08388 0.06726 0.56164 0.0
O99 O 0.06683 0.08841 0.60984 0.0
O100 O 0.06816 0.07523 0.66354 0.0
C101 C 0.09497 0.0899 0.7022 0.0
O102 O 0.08457 0.09213 0.55441 0.0
O103 O 0.10055 0.08735 0.58574 0.0
In104 In 0.83007 0.83491 0.87441 0.0
O105 O 0.82942 0.84803 0.93755 0.0
O106 O 0.84435 0.83782 0.92997 0.0
C107 C 0.80782 0.83774 0.84946 0.0
C108 C 0.84335 0.84507 0.80586 0.0
C109 C 0.83123 0.81188 0.88229 0.0
O110 O 0.81084 0.83558 0.89333 0.0
O111 O 0.81595 0.83863 0.81924 0.0
O112 O 0.83094 0.81699 0.84127 0.0
O113 O 0.83098 0.81837 0.91955 0.0
C114 C 0.83938 0.84578 0.95294 0.0
O115 O 0.84433 0.8346 0.81645 0.0
O116 O 0.83568 0.8503 0.82958 0.0
In117 In 0.91646 0.07965 0.62923 0.0
O118 O 0.91621 0.09285 0.56707 0.0
O119 O 0.90054 0.08478 0.58634 0.0
C120 C 0.93926 0.08115 0.64439 0.0
C121 C 0.90581 0.08895 0.70858 0.0
C122 C 0.91485 0.0578 0.59673 0.0
O123 O 0.93414 0.08661 0.61079 0.0
O124 O 0.93285 0.075 0.67095 0.0
O125 O 0.9136 0.06042 0.64172 0.0
O126 O 0.91686 0.06615 0.56864 0.0
C127 C 0.90561 0.09194 0.55918 0.0
O128 O 0.90289 0.07945 0.69045 0.0
O129 O 0.91433 0.0935 0.68793 0.0
In130 In 0.67138 0.16629 0.37843 0.0
O131 O 0.6721 0.15304 0.44119 0.0
O132 O 0.65705 0.16301 0.43353 0.0
C133 C 0.69326 0.16497 0.34635 0.0
C134 C 0.65918 0.15541 0.30832 0.0
C135 C 0.66981 0.18911 0.39312 0.0
O136 O 0.69063 0.16358 0.39127 0.0
O137 O 0.6849 0.16698 0.31823 0.0
O138 O 0.66569 0.18415 0.35576 0.0
O139 O 0.67467 0.18255 0.42362 0.0
C140 C 0.6621 0.15509 0.45637 0.0
O141 O 0.65694 0.16548 0.32198 0.0
O142 O 0.66762 0.15086 0.32983 0.0
In143 In 0.58443 0.92105 0.12798 0.0
O144 O 0.5984 0.92177 0.18762 0.0
O145 O 0.58692 0.90775 0.18871 0.0
C146 C 0.58553 0.94281 0.09448 0.0
C147 C 0.59531 0.90854 0.05877 0.0
C148 C 0.56159 0.9195 0.1416 0.0
O149 O 0.58711 0.94032 0.13945 0.0
O150 O 0.5834 0.93437 0.06697 0.0
O151 O 0.56676 0.91453 0.10676 0.0
O152 O 0.56796 0.9252 0.17014 0.0
C153 C 0.59558 0.91244 0.2076 0.0
O154 O 0.58533 0.90618 0.07342 0.0
O155 O 0.59974 0.9172 0.07886 0.0
In156 In 0.83033 0.16694 0.12813 0.0
O157 O 0.84383 0.16646 0.18908 0.0
O158 O 0.83518 0.15099 0.17134 0.0
C159 C 0.83176 0.18978 0.11365 0.0
C160 C 0.83978 0.15628 0.0492 0.0
C161 C 0.80845 0.16524 0.16005 0.0
O162 O 0.83653 0.18474 0.14939 0.0
O163 O 0.82635 0.18327 0.08465 0.0
O164 O 0.81111 0.16412 0.11505 0.0
O165 O 0.81677 0.16718 0.18841 0.0
C166 C 0.84262 0.15591 0.19759 0.0
O167 O 0.83009 0.15357 0.0661 0.0
O168 O 0.84445 0.16461 0.07083 0.0
In169 In 0.58451 0.07993 0.877 0.0
O170 O 0.59757 0.07912 0.81362 0.0
O171 O 0.58803 0.09441 0.82294 0.0
C172 C 0.58604 0.05792 0.90706 0.0
C173 C 0.59547 0.09217 0.94669 0.0
C174 C 0.5616 0.08147 0.86468 0.0
O175 O 0.58676 0.06068 0.86199 0.0
O176 O 0.58462 0.06619 0.93621 0.0
O177 O 0.5666 0.0844 0.90396 0.0
O178 O 0.56816 0.07786 0.83108 0.0
C179 C 0.59575 0.08924 0.79932 0.0
O180 O 0.58549 0.09461 0.93233 0.0
O181 O 0.59987 0.08356 0.926 0.0
In182 In 0.67122 0.83476 0.6261 0.0
O183 O 0.65654 0.83558 0.68161 0.0
O184 O 0.66739 0.85008 0.67522 0.0
C185 C 0.66979 0.81204 0.60915 0.0
C186 C 0.66239 0.84588 0.54693 0.0
C187 C 0.69293 0.83574 0.66025 0.0
O188 O 0.6649 0.8169 0.64502 0.0
O189 O 0.67537 0.81867 0.58129 0.0
O190 O 0.69039 0.83832 0.6162 0.0
O191 O 0.68457 0.83268 0.6865 0.0
C192 C 0.65883 0.84559 0.6959 0.0
O193 O 0.67193 0.84852 0.56553 0.0
O194 O 0.65758 0.83744 0.56709 0.0
In195 In 0.91688 0.92107 0.37375 0.0
O196 O 0.91713 0.90834 0.43766 0.0
O197 O 0.90105 0.91504 0.41518 0.0
C198 C 0.93967 0.91926 0.35898 0.0
C199 C 0.90601 0.91238 0.29353 0.0
C200 C 0.91523 0.94285 0.40715 0.0
O201 O 0.93424 0.91298 0.38874 0.0
O202 O 0.93357 0.92638 0.33581 0.0
O203 O 0.91441 0.94035 0.36187 0.0
O204 O 0.91683 0.9344 0.43522 0.0
C205 C 0.90644 0.90847 0.44395 0.0
O206 O 0.90297 0.92158 0.31403 0.0
O207 O 0.91478 0.90784 0.31222 0.0
In208 In 0.67156 0.66703 0.62191 0.0
O209 O 0.67123 0.65679 0.54917 0.0
O210 O 0.65543 0.66194 0.58092 0.0
C211 C 0.69362 0.66542 0.65118 0.0
C212 C 0.66167 0.65506 0.69519 0.0
C213 C 0.66922 0.6897 0.60453 0.0
O214 O 0.69037 0.66209 0.60898 0.0
O215 O 0.68581 0.66955 0.67782 0.0
O216 O 0.66447 0.68469 0.64033 0.0
O217 O 0.67504 0.68326 0.5769 0.0
C218 C 0.66043 0.6566 0.54676 0.0
O219 O 0.65997 0.66564 0.68919 0.0
O220 O 0.66849 0.65057 0.6646 0.0
In221 In 0.58474 0.4212 0.87473 0.0
O222 O 0.58628 0.40826 0.9371 0.0
O223 O 0.60084 0.41853 0.92054 0.0
C224 C 0.56198 0.41914 0.85856 0.0
C225 C 0.59542 0.41056 0.79883 0.0
C226 C 0.58626 0.44316 0.90525 0.0
O227 O 0.56696 0.41481 0.89541 0.0
O228 O 0.5685 0.42443 0.8293 0.0
O229 O 0.58908 0.44015 0.86203 0.0
O230 O 0.58269 0.43516 0.93234 0.0
C231 C 0.59657 0.41069 0.94682 0.0
O232 O 0.59561 0.42131 0.80364 0.0
O233 O 0.58959 0.40539 0.83094 0.0
In234 In 0.83039 0.33532 0.12216 0.0
O235 O 0.84482 0.3357 0.17889 0.0
O236 O 0.83548 0.35105 0.16634 0.0
C237 C 0.83186 0.31241 0.10976 0.0
C238 C 0.83908 0.34625 0.04225 0.0
C239 C 0.80867 0.33712 0.15599 0.0
O240 O 0.83621 0.31757 0.14613 0.0
O241 O 0.82682 0.31882 0.07915 0.0
O242 O 0.81101 0.33713 0.11041 0.0
O243 O 0.81723 0.33625 0.18399 0.0
C244 C 0.84347 0.34614 0.18944 0.0
O245 O 0.82945 0.34874 0.06032 0.0
O246 O 0.84405 0.338 0.06318 0.0
In247 In 0.91744 0.58119 0.37595 0.0
O248 O 0.90452 0.58025 0.31205 0.0
O249 O 0.91418 0.59547 0.32041 0.0
C250 C 0.91663 0.55927 0.40725 0.0
C251 C 0.9067 0.59298 0.44828 0.0
C252 C 0.94011 0.58257 0.35806 0.0
O253 O 0.91146 0.56258 0.3688 0.0
O254 O 0.92218 0.56696 0.42943 0.0
O255 O 0.93535 0.58725 0.39468 0.0
O256 O 0.93339 0.57727 0.32952 0.0
C257 C 0.90645 0.59028 0.29696 0.0
O258 O 0.91621 0.59601 0.43073 0.0
O259 O 0.90269 0.58394 0.42983 0.0
In260 In 0.67155 0.33415 0.37188 0.0
O261 O 0.65868 0.3356 0.30917 0.0
O262 O 0.66949 0.3499 0.32332 0.0
C263 C 0.66918 0.31149 0.3898 0.0
C264 C 0.66065 0.34528 0.44585 0.0
C265 C 0.69363 0.33553 0.34288 0.0
O266 O 0.66523 0.31631 0.3518 0.0
O267 O 0.67423 0.31812 0.41942 0.0
O268 O 0.69031 0.33931 0.38427 0.0
O269 O 0.68588 0.33105 0.31694 0.0
C270 C 0.66149 0.3457 0.29777 0.0
O271 O 0.67143 0.34461 0.44421 0.0
O272 O 0.65555 0.34006 0.41164 0.0
In273 In 0.91653 0.42194 0.62405 0.0
O274 O 0.90114 0.42195 0.67679 0.0
O275 O 0.91444 0.41008 0.69054 0.0
C276 C 0.91612 0.4441 0.59589 0.0
C277 C 0.90683 0.40941 0.55111 0.0
C278 C 0.93923 0.42034 0.63992 0.0
O279 O 0.91113 0.44067 0.63459 0.0
O280 O 0.92127 0.43641 0.57197 0.0
O281 O 0.93423 0.41547 0.6043 0.0
O282 O 0.93273 0.42594 0.66836 0.0
C283 C 0.90475 0.41379 0.70299 0.0
O284 O 0.91506 0.40578 0.57674 0.0
O285 O 0.90356 0.41936 0.56199 0.0
In286 In 0.8297 0.6662 0.87872 0.0
O287 O 0.84269 0.66641 0.81553 0.0
O288 O 0.8356 0.65041 0.83688 0.0
C289 C 0.83117 0.68903 0.89277 0.0
C290 C 0.83762 0.65565 0.9613 0.0
C291 C 0.80826 0.66444 0.84241 0.0
O292 O 0.83908 0.68327 0.87319 0.0
O293 O 0.82257 0.68327 0.90596 0.0
O294 O 0.81038 0.66371 0.88815 0.0
O295 O 0.81691 0.66603 0.81543 0.0
C296 C 0.84234 0.65573 0.8087 0.0
O297 O 0.82889 0.65221 0.93837 0.0
O298 O 0.84198 0.66464 0.944 0.0
In299 In 0.5843 0.58049 0.11913 0.0
O300 O 0.5859 0.59246 0.05313 0.0
O301 O 0.60085 0.58369 0.07748 0.0
C302 C 0.5616 0.58273 0.13601 0.0
C303 C 0.59476 0.5914 0.19476 0.0
C304 C 0.58579 0.55855 0.08829 0.0
O305 O 0.5666 0.58739 0.09995 0.0
O306 O 0.56807 0.57705 0.16409 0.0
O307 O 0.58852 0.56149 0.13169 0.0
O308 O 0.58232 0.5666 0.06125 0.0
C309 C 0.59649 0.59071 0.04743 0.0
O310 O 0.595 0.58064 0.19062 0.0
O311 O 0.58894 0.59646 0.1622 0.0
In312 In 0.32949 0.33515 0.38015 0.0
O313 O 0.32908 0.34855 0.44207 0.0
O314 O 0.34303 0.33696 0.44039 0.0
C315 C 0.30775 0.33687 0.34654 0.0
C316 C 0.34177 0.34626 0.31088 0.0
C317 C 0.33127 0.31232 0.39365 0.0
O318 O 0.3102 0.3377 0.39189 0.0
O319 O 0.31622 0.33522 0.31865 0.0
O320 O 0.33744 0.31779 0.36358 0.0
O321 O 0.32427 0.31839 0.41764 0.0
C322 C 0.33846 0.34549 0.46098 0.0
O323 O 0.34208 0.33552 0.31571 0.0
O324 O 0.33522 0.35134 0.34071 0.0
In325 In 0.41641 0.58031 0.12394 0.0
O326 O 0.40262 0.57972 0.1843 0.0
O327 O 0.41382 0.59397 0.183 0.0
C328 C 0.41571 0.55836 0.09259 0.0
C329 C 0.40536 0.59233 0.05341 0.0
C330 C 0.43916 0.58202 0.13929 0.0
O331 O 0.41276 0.56121 0.13583 0.0
O332 O 0.41899 0.56654 0.06573 0.0
O333 O 0.43415 0.58662 0.10309 0.0
O334 O 0.43267 0.57661 0.16838 0.0
C335 C 0.40532 0.58923 0.20298 0.0
O336 O 0.41519 0.59502 0.06866 0.0
O337 O 0.40116 0.58354 0.07343 0.0
In338 In 0.17067 0.66751 0.87336 0.0
O339 O 0.1713 0.65581 0.94148 0.0
O340 O 0.15554 0.66383 0.92385 0.0
C341 C 0.19263 0.66661 0.84228 0.0
C342 C 0.1599 0.65653 0.79879 0.0
C343 C 0.16856 0.68997 0.89452 0.0
O344 O 0.18911 0.66087 0.87878 0.0
O345 O 0.18514 0.67276 0.82195 0.0
O346 O 0.16288 0.68505 0.86104 0.0
O347 O 0.17521 0.68349 0.91844 0.0
C348 C 0.16084 0.65703 0.95184 0.0
O349 O 0.15866 0.66708 0.80667 0.0
O350 O 0.16667 0.65157 0.82803 0.0
In351 In 0.0848 0.4212 0.63038 0.0
O352 O 0.09882 0.4216 0.68981 0.0
O353 O 0.087 0.40786 0.69114 0.0
C354 C 0.08636 0.44299 0.59747 0.0
C355 C 0.09535 0.40839 0.56121 0.0
C356 C 0.06192 0.42007 0.64337 0.0
O357 O 0.08755 0.44045 0.6426 0.0
O358 O 0.08442 0.43459 0.56953 0.0
O359 O 0.06702 0.41525 0.60797 0.0
O360 O 0.06838 0.42541 0.67282 0.0
C361 C 0.09579 0.41234 0.7099 0.0
O362 O 0.08531 0.40632 0.57581 0.0
O363 O 0.10002 0.41692 0.58139 0.0
In364 In 0.3297 0.66705 0.62242 0.0
O365 O 0.32923 0.65367 0.56028 0.0
O366 O 0.34392 0.6642 0.56612 0.0
C367 C 0.30768 0.66643 0.65251 0.0
C368 C 0.34123 0.6563 0.69547 0.0
C369 C 0.33126 0.6897 0.60438 0.0
O370 O 0.31094 0.66173 0.61286 0.0
O371 O 0.31548 0.67141 0.67647 0.0
O372 O 0.33606 0.6849 0.64064 0.0
O373 O 0.32574 0.68303 0.57638 0.0
C374 C 0.33906 0.65604 0.54407 0.0
O375 O 0.34409 0.66601 0.67943 0.0
O376 O 0.33252 0.65208 0.67507 0.0
In377 In 0.08555 0.57942 0.3717 0.0
O378 O 0.09925 0.57916 0.31108 0.0
O379 O 0.08743 0.59292 0.31137 0.0
C380 C 0.08702 0.55761 0.4046 0.0
C381 C 0.09665 0.59201 0.44003 0.0
C382 C 0.06271 0.58086 0.35805 0.0
O383 O 0.08823 0.56016 0.35952 0.0
O384 O 0.08513 0.56601 0.43258 0.0
O385 O 0.06786 0.58592 0.39273 0.0
O386 O 0.06911 0.57515 0.32965 0.0
C387 C 0.09612 0.58847 0.29169 0.0
O388 O 0.08614 0.59335 0.43084 0.0
O389 O 0.10147 0.58427 0.4151 0.0
In390 In 0.17071 0.334 0.12892 0.0
O391 O 0.15558 0.33494 0.1822 0.0
O392 O 0.16691 0.34914 0.17897 0.0
C393 C 0.16953 0.3111 0.11638 0.0
C394 C 0.16174 0.3451 0.05009 0.0
C395 C 0.19272 0.33556 0.15887 0.0
O396 O 0.16609 0.31606 0.155 0.0
O397 O 0.17348 0.31769 0.08361 0.0
O398 O 0.18985 0.33681 0.11414 0.0
O399 O 0.18453 0.33356 0.18788 0.0
C400 C 0.15805 0.3448 0.19788 0.0
O401 O 0.17128 0.34777 0.06855 0.0
O402 O 0.15697 0.33662 0.07024 0.0
In403 In 0.41691 0.42096 0.87826 0.0
O404 O 0.41615 0.40741 0.93896 0.0
O405 O 0.4011 0.417 0.92427 0.0
C406 C 0.43959 0.41925 0.86082 0.0
C407 C 0.40606 0.41154 0.79974 0.0
C408 C 0.41598 0.44288 0.90992 0.0
O409 O 0.4347 0.41433 0.89654 0.0
O410 O 0.433 0.42496 0.83322 0.0
O411 O 0.41304 0.44002 0.8667 0.0
O412 O 0.41934 0.43473 0.93668 0.0
C413 C 0.40579 0.40922 0.94939 0.0
O414 O 0.4036 0.42136 0.81595 0.0
O415 O 0.41421 0.40671 0.82195 0.0
H416 H 0.30096 0.16465 0.2495 0.0
H417 H 0.28133 0.1634 0.21877 0.0
H418 H 0.26898 0.1597 0.36815 0.0
H419 H 0.28864 0.16101 0.39933 0.0
H420 H 0.26482 0.1455 0.23262 0.0
H421 H 0.25064 0.18709 0.31133 0.0
H422 H 0.26554 0.18332 0.30506 0.0
H423 H 0.25716 0.17734 0.35432 0.0
C424 C 0.29407 0.16356 0.27586 0.0
C425 C 0.29633 0.16299 0.32688 0.0
C426 C 0.28287 0.16282 0.2582 0.0
C427 C 0.27371 0.16159 0.29121 0.0
C428 C 0.27593 0.16082 0.34213 0.0
H429 H 0.20013 0.16136 0.24983 0.0
H430 H 0.21954 0.16029 0.28297 0.0
C431 C 0.28716 0.16152 0.35986 0.0
C432 C 0.26184 0.1612 0.2721 0.0
H433 H 0.23662 0.17588 0.27147 0.0
C434 C 0.25864 0.15213 0.24107 0.0
C435 C 0.25382 0.16987 0.28322 0.0
C436 C 0.25694 0.18002 0.31497 0.0
C437 C 0.24755 0.15142 0.2213 0.0
C438 C 0.23955 0.16015 0.23205 0.0
C439 C 0.24276 0.16919 0.26329 0.0
C440 C 0.22779 0.16013 0.21135 0.0
C441 C 0.24445 0.14121 0.1899 0.0
C442 C 0.22596 0.1604 0.16001 0.0
C443 C 0.21485 0.16095 0.14091 0.0
C444 C 0.20539 0.16136 0.17289 0.0
C445 C 0.20724 0.16104 0.22423 0.0
C446 C 0.21833 0.16044 0.24325 0.0
H447 H 0.2503 0.13389 0.19667 0.0
H448 H 0.23553 0.1384 0.19715 0.0
H449 H 0.24514 0.14358 0.15028 0.0
H450 H 0.23314 0.16044 0.1347 0.0
H451 H 0.21368 0.16127 0.1012 0.0
H452 H 0.08736 0.96399 0.34582 0.0
H453 H 0.08821 0.98368 0.37683 0.0
H454 H 0.09515 0.97107 0.52365 0.0
H455 H 0.09438 0.95142 0.49299 0.0
H456 H 0.07384 0.9927 0.45155 0.0
H457 H 0.11961 0.99599 0.50419 0.0
H458 H 0.11429 0.98505 0.463 0.0
H459 H 0.11235 0.98369 0.52865 0.0
C460 C 0.08923 0.96543 0.38455 0.0
C461 C 0.09082 0.95617 0.41697 0.0
C462 C 0.08969 0.97667 0.40221 0.0
C463 C 0.09187 0.97883 0.45241 0.0
C464 C 0.09367 0.9696 0.48463 0.0
H465 H 0.09185 0.03936 0.63955 0.0
H466 H 0.09312 0.01986 0.60632 0.0
C467 C 0.09316 0.95838 0.46707 0.0
C468 C 0.09152 0.99068 0.47182 0.0
H469 H 0.10738 0.01096 0.53153 0.0
C470 C 0.08119 0.99673 0.4687 0.0
C471 C 0.1011 0.99586 0.49457 0.0
C472 C 0.11251 0.98987 0.49753 0.0
C473 C 0.08011 0.00778 0.48848 0.0
C474 C 0.0897 0.01299 0.5111 0.0
C475 C 0.10004 0.00693 0.51423 0.0
C476 C 0.08918 0.02478 0.53107 0.0
C477 C 0.06863 0.01366 0.48605 0.0
C478 C 0.08675 0.03401 0.49963 0.0
C479 C 0.08599 0.0451 0.51847 0.0
C480 C 0.08774 0.0472 0.5691 0.0
C481 C 0.09042 0.03799 0.60042 0.0
C482 C 0.09116 0.02686 0.5815 0.0
H483 H 0.06157 0.00746 0.47998 0.0
H484 H 0.06689 0.0185 0.52054 0.0
H485 H 0.06862 0.01978 0.4547 0.0
H486 H 0.08544 0.03262 0.46043 0.0
H487 H 0.08401 0.05203 0.49331 0.0
H488 H 0.19932 0.83402 0.74411 0.0
H489 H 0.21886 0.83482 0.71194 0.0
H490 H 0.23151 0.84222 0.85826 0.0
H491 H 0.21196 0.84138 0.89087 0.0
H492 H 0.23503 0.85336 0.71749 0.0
H493 H 0.2503 0.81404 0.8123 0.0
H494 H 0.23531 0.81731 0.80502 0.0
H495 H 0.24361 0.82449 0.85149 0.0
C496 C 0.20626 0.83581 0.76948 0.0
C497 C 0.20412 0.83757 0.82009 0.0
C498 C 0.2174 0.83629 0.751 0.0
C499 C 0.22662 0.83845 0.78281 0.0
C500 C 0.22452 0.84037 0.83325 0.0
H501 H 0.30008 0.84009 0.74548 0.0
H502 H 0.28046 0.84099 0.77615 0.0
C503 C 0.21335 0.83993 0.85177 0.0
C504 C 0.23844 0.83867 0.76309 0.0
H505 H 0.2641 0.82483 0.76884 0.0
C506 C 0.24141 0.84712 0.72858 0.0
C507 C 0.2467 0.83051 0.77767 0.0
C508 C 0.24385 0.821 0.81335 0.0
C509 C 0.25251 0.84778 0.70892 0.0
C510 C 0.26077 0.83959 0.72338 0.0
C511 C 0.25777 0.83112 0.75782 0.0
C512 C 0.27264 0.83967 0.70384 0.0
C513 C 0.25535 0.85741 0.67385 0.0
C514 C 0.27479 0.83864 0.6529 0.0
C515 C 0.28603 0.83823 0.63518 0.0
C516 C 0.2953 0.83867 0.6682 0.0
C517 C 0.29312 0.83973 0.7191 0.0
C518 C 0.28191 0.84023 0.73671 0.0
H519 H 0.24923 0.86463 0.67751 0.0
H520 H 0.26413 0.86068 0.68037 0.0
H521 H 0.25485 0.85421 0.63528 0.0
H522 H 0.26778 0.83792 0.62691 0.0
H523 H 0.28746 0.83731 0.5958 0.0
H524 H 0.41103 0.0387 0.85161 0.0
H525 H 0.41 0.01902 0.88272 0.0
H526 H 0.41261 0.03147 0.03238 0.0
H527 H 0.41362 0.05112 0.00172 0.0
H528 H 0.427 0.00801 0.94312 0.0
H529 H 0.38464 0.00972 0.03578 0.0
H530 H 0.38901 0.02005 0.98981 0.0
H531 H 0.39433 0.02106 0.05198 0.0
C532 C 0.41128 0.03724 0.89115 0.0
C533 C 0.41238 0.04645 0.92424 0.0
C534 C 0.41071 0.02601 0.90884 0.0
C535 C 0.41108 0.02382 0.95985 0.0
C536 C 0.4121 0.033 0.99293 0.0
H537 H 0.41225 0.96279 0.14331 0.0
H538 H 0.41161 0.98242 0.11142 0.0
C539 C 0.41273 0.04421 0.97531 0.0
C540 C 0.41099 0.0119 0.97851 0.0
H541 H 0.39595 0.99322 0.05055 0.0
C542 C 0.42018 0.00474 0.96632 0.0
C543 C 0.40213 0.00772 0.00912 0.0
C544 C 0.39191 0.01498 0.02223 0.0
C545 C 0.42086 0.99353 0.98469 0.0
C546 C 0.41196 0.9893 0.01509 0.0
C547 C 0.40276 0.99648 0.02724 0.0
C548 C 0.41203 0.97742 0.03437 0.0
C549 C 0.43127 0.98644 0.97241 0.0
C550 C 0.41224 0.96811 0.00166 0.0
C551 C 0.41268 0.95693 0.01974 0.0
C552 C 0.41277 0.95483 0.07093 0.0
C553 C 0.41222 0.96414 0.10369 0.0
C554 C 0.41185 0.97535 0.08553 0.0
H555 H 0.43861 0.99187 0.96109 0.0
H556 H 0.43393 0.98112 0.00445 0.0
H557 H 0.42922 0.98065 0.94113 0.0
H558 H 0.41209 0.96948 0.96206 0.0
H559 H 0.41298 0.94992 0.99355 0.0
H560 H 0.8 0.84374 0.75848 0.0
H561 H 0.78026 0.84408 0.72934 0.0
H562 H 0.76859 0.83377 0.87392 0.0
H563 H 0.78842 0.83359 0.90371 0.0
H564 H 0.76548 0.82577 0.72633 0.0
H565 H 0.74757 0.8607 0.84198 0.0
H566 H 0.76276 0.85842 0.83515 0.0
H567 H 0.75455 0.84952 0.87606 0.0
C568 C 0.79323 0.84167 0.78431 0.0
C569 C 0.79576 0.83866 0.83345 0.0
C570 C 0.78195 0.84185 0.76754 0.0
C571 C 0.77294 0.83906 0.79952 0.0
C572 C 0.77539 0.83617 0.84884 0.0
H573 H 0.69995 0.83073 0.75382 0.0
H574 H 0.71939 0.83146 0.78703 0.0
C575 C 0.78672 0.83602 0.86577 0.0
C576 C 0.76107 0.83861 0.78013 0.0
H577 H 0.73442 0.85019 0.79305 0.0
C578 C 0.7587 0.83114 0.7408 0.0
C579 C 0.75224 0.8456 0.79916 0.0
C580 C 0.75438 0.85409 0.84013 0.0
C581 C 0.7477 0.83037 0.72028 0.0
C582 C 0.73888 0.8374 0.73908 0.0
C583 C 0.74122 0.84483 0.77864 0.0
C584 C 0.72712 0.83708 0.71857 0.0
C585 C 0.74556 0.82187 0.67929 0.0
C586 C 0.72501 0.84011 0.66914 0.0
C587 C 0.7139 0.83968 0.64998 0.0
C588 C 0.70471 0.83627 0.68005 0.0
C589 C 0.70685 0.83336 0.72967 0.0
C590 C 0.71794 0.8338 0.74876 0.0
H591 H 0.75236 0.81524 0.67759 0.0
H592 H 0.73717 0.81757 0.68414 0.0
H593 H 0.74545 0.82644 0.64333 0.0
H594 H 0.73195 0.84287 0.64545 0.0
H595 H 0.7125 0.84204 0.61171 0.0
H596 H 0.91356 0.96268 0.35383 0.0
H597 H 0.91297 0.98229 0.38592 0.0
H598 H 0.91483 0.96938 0.53504 0.0
H599 H 0.9154 0.94978 0.50337 0.0
H600 H 0.8976 0.98679 0.51783 0.0
H601 H 0.94071 0.99919 0.44954 0.0
H602 H 0.93126 0.99303 0.40433 0.0
H603 H 0.93625 0.98446 0.45501 0.0
C604 C 0.91383 0.96402 0.39344 0.0
C605 C 0.91458 0.9547 0.42608 0.0
C606 C 0.91354 0.97522 0.41168 0.0
C607 C 0.91399 0.97727 0.46281 0.0
C608 C 0.91452 0.96797 0.49546 0.0
H609 H 0.91269 0.03803 0.65025 0.0
H610 H 0.91218 0.0184 0.61846 0.0
C611 C 0.91486 0.95679 0.47728 0.0
C612 C 0.91392 0.9891 0.48241 0.0
H613 H 0.92957 0.01372 0.48643 0.0
C614 C 0.90459 0.99269 0.5111 0.0
C615 C 0.92305 0.99674 0.4735 0.0
C616 C 0.93345 0.99318 0.44426 0.0
C617 C 0.90405 0.00384 0.53043 0.0
C618 C 0.91321 0.01148 0.52174 0.0
C619 C 0.92255 0.00785 0.49307 0.0
C620 C 0.91328 0.02334 0.54142 0.0
C621 C 0.89353 0.00739 0.5589 0.0
C622 C 0.91433 0.03262 0.50885 0.0
C623 C 0.91477 0.0438 0.52694 0.0
C624 C 0.91416 0.04593 0.57803 0.0
C625 C 0.91309 0.03664 0.61069 0.0
C626 C 0.91272 0.02543 0.59254 0.0
H627 H 0.88612 0.00177 0.5506 0.0
H628 H 0.89532 0.00678 0.59911 0.0
H629 H 0.89113 0.01637 0.55035 0.0
H630 H 0.91483 0.0312 0.46931 0.0
H631 H 0.9156 0.05077 0.50082 0.0
H632 H 0.71309 0.16316 0.39981 0.0
H633 H 0.73273 0.16294 0.36776 0.0
H634 H 0.71975 0.16499 0.2187 0.0
H635 H 0.70021 0.16548 0.25038 0.0
H636 H 0.74348 0.14795 0.30476 0.0
H637 H 0.74227 0.19124 0.22122 0.0
H638 H 0.73146 0.18625 0.26363 0.0
H639 H 0.73102 0.18209 0.19959 0.0
C640 C 0.71445 0.16359 0.36023 0.0
C641 C 0.70513 0.16444 0.32763 0.0
C642 C 0.72566 0.16346 0.34197 0.0
C643 C 0.72771 0.16418 0.29088 0.0
C644 C 0.71839 0.16473 0.2583 0.0
H645 H 0.78872 0.16322 0.1061 0.0
H646 H 0.76905 0.16244 0.13773 0.0
C647 C 0.70722 0.16494 0.27648 0.0
C648 C 0.73959 0.16422 0.27145 0.0
H649 H 0.75826 0.1796 0.20051 0.0
C650 C 0.74674 0.1549 0.2822 0.0
C651 C 0.74382 0.1733 0.24198 0.0
C652 C 0.73679 0.18384 0.23129 0.0
C653 C 0.75794 0.15432 0.26359 0.0
C654 C 0.76211 0.16334 0.23382 0.0
C655 C 0.75498 0.17266 0.22305 0.0
C656 C 0.77398 0.16345 0.21473 0.0
C657 C 0.76518 0.14399 0.27524 0.0
C658 C 0.78321 0.16438 0.24756 0.0
C659 C 0.7944 0.16488 0.22966 0.0
C660 C 0.79657 0.16447 0.17854 0.0
C661 C 0.78731 0.16352 0.14566 0.0
C662 C 0.77609 0.16308 0.16364 0.0
H663 H 0.75993 0.1367 0.28875 0.0
H664 H 0.77004 0.14119 0.24212 0.0
H665 H 0.77143 0.14624 0.30454 0.0
H666 H 0.78175 0.16486 0.28706 0.0
H667 H 0.80136 0.16565 0.25592 0.0
H668 H 0.58655 0.03819 0.85217 0.0
H669 H 0.58662 0.01845 0.88325 0.0
H670 H 0.58715 0.03106 0.03312 0.0
H671 H 0.58682 0.05069 0.00253 0.0
H672 H 0.60213 0.00701 0.94243 0.0
H673 H 0.56002 0.00951 0.03588 0.0
H674 H 0.56482 0.0202 0.99247 0.0
H675 H 0.56976 0.02046 0.05549 0.0
C676 C 0.58667 0.03673 0.89172 0.0
C677 C 0.58657 0.04598 0.92492 0.0
C678 C 0.58671 0.02547 0.90942 0.0
C679 C 0.58664 0.02329 0.96052 0.0
C680 C 0.58688 0.03253 0.99359 0.0
H681 H 0.58835 0.9627 0.14657 0.0
H682 H 0.58904 0.98224 0.11348 0.0
C683 C 0.58677 0.04375 0.976 0.0
C684 C 0.58644 0.01139 0.97953 0.0
H685 H 0.57146 0.99321 0.05428 0.0
C686 C 0.59539 0.00396 0.9666 0.0
C687 C 0.57762 0.00743 0.01108 0.0
C688 C 0.56745 0.01477 0.02419 0.0
C689 C 0.59589 0.99276 0.98527 0.0
C690 C 0.58715 0.98887 0.0173 0.0
C691 C 0.57818 0.99626 0.03003 0.0
C692 C 0.58702 0.97707 0.03715 0.0
C693 C 0.60586 0.98523 0.97139 0.0
C694 C 0.58555 0.96774 0.00521 0.0
C695 C 0.5851 0.95662 0.02397 0.0
C696 C 0.58611 0.95462 0.07506 0.0
C697 C 0.58758 0.96398 0.10704 0.0
C698 C 0.58797 0.97513 0.08823 0.0
H699 H 0.61308 0.99026 0.95592 0.0
H700 H 0.60896 0.98035 0.00397 0.0
H701 H 0.60307 0.97899 0.94293 0.0
H702 H 0.58461 0.96908 0.96578 0.0
H703 H 0.58393 0.94959 0.99839 0.0
H704 H 0.71269 0.65943 0.59814 0.0
H705 H 0.73248 0.6583 0.62847 0.0
H706 H 0.72118 0.66823 0.77399 0.0
H707 H 0.7015 0.66947 0.74413 0.0
H708 H 0.74493 0.67763 0.68082 0.0
H709 H 0.74056 0.63777 0.79141 0.0
H710 H 0.73106 0.64124 0.74085 0.0
H711 H 0.72953 0.64835 0.79928 0.0
C712 C 0.71444 0.66133 0.63661 0.0
C713 C 0.70556 0.66453 0.66877 0.0
C714 C 0.72572 0.66069 0.65382 0.0
C715 C 0.72823 0.66307 0.70353 0.0
C716 C 0.71938 0.66623 0.73565 0.0
H717 H 0.78794 0.66438 0.8926 0.0
H718 H 0.76863 0.66401 0.85738 0.0
C719 C 0.70815 0.66698 0.71844 0.0
C720 C 0.74014 0.66264 0.72188 0.0
H721 H 0.75775 0.64822 0.80094 0.0
C722 C 0.7478 0.67116 0.70673 0.0
C723 C 0.74376 0.65424 0.75606 0.0
C724 C 0.73585 0.64481 0.77277 0.0
C725 C 0.75895 0.67169 0.72588 0.0
C726 C 0.76262 0.66327 0.76004 0.0
C727 C 0.75495 0.65467 0.77478 0.0
C728 C 0.77433 0.66327 0.78127 0.0
C729 C 0.76655 0.68152 0.71062 0.0
C730 C 0.78395 0.66276 0.7503 0.0
C731 C 0.79496 0.66309 0.77029 0.0
C732 C 0.79658 0.66374 0.82173 0.0
C733 C 0.78696 0.66391 0.85283 0.0
C734 C 0.77593 0.66369 0.83275 0.0
H735 H 0.76149 0.68885 0.69629 0.0
H736 H 0.77185 0.68455 0.74207 0.0
H737 H 0.77235 0.67864 0.68064 0.0
H738 H 0.78294 0.66212 0.71059 0.0
H739 H 0.80221 0.66283 0.74541 0.0
H740 H 0.59057 0.46259 0.85164 0.0
H741 H 0.59129 0.48235 0.88259 0.0
H742 H 0.58453 0.4703 0.03033 0.0
H743 H 0.58367 0.45062 -0.00014 0.0
H744 H 0.57119 0.49283 0.94901 0.0
H745 H 0.61498 0.49214 0.03011 0.0
H746 H 0.61101 0.48315 0.9785 0.0
H747 H 0.60586 0.4799 0.03929 0.0
C748 C 0.58929 0.46416 0.89072 0.0
C749 C 0.58705 0.45507 0.92332 0.0
C750 C 0.5897 0.47542 0.90828 0.0
C751 C 0.58804 0.47771 0.95871 0.0
C752 C 0.58591 0.46866 0.99135 0.0
H753 H 0.58969 0.53896 0.14149 0.0
H754 H 0.59012 0.51927 0.11006 0.0
C755 C 0.58539 0.45744 0.97381 0.0
C756 C 0.58807 0.4896 0.97729 0.0
H757 H 0.60396 0.50877 0.04316 0.0
C758 C 0.57836 0.49637 0.96935 0.0
C759 C 0.59737 0.49405 0.00441 0.0
C760 C 0.60796 0.487 0.01363 0.0
C761 C 0.57765 0.50752 0.98836 0.0
C762 C 0.58706 0.51211 0.01479 0.0
C763 C 0.59677 0.50527 0.02282 0.0
C764 C 0.58704 0.52402 0.03382 0.0
C765 C 0.5667 0.51414 0.98109 0.0
C766 C 0.5854 0.53323 0.00134 0.0
C767 C 0.58503 0.54442 0.01923 0.0
C768 C 0.5865 0.54666 0.06991 0.0
C769 C 0.5885 0.53748 0.10229 0.0
C770 C 0.58875 0.52624 0.08437 0.0
H771 H 0.55934 0.50836 0.97412 0.0
H772 H 0.56472 0.51952 0.01383 0.0
H773 H 0.56761 0.51982 0.94844 0.0
H774 H 0.5844 0.53177 0.96203 0.0
H775 H 0.58362 0.55133 0.99325 0.0
H776 H 0.71252 0.34269 0.39442 0.0
H777 H 0.73229 0.34391 0.36398 0.0
H778 H 0.72136 0.33158 0.22138 0.0
H779 H 0.70169 0.33026 0.25136 0.0
H780 H 0.74543 0.32453 0.31843 0.0
H781 H 0.73975 0.362 0.19422 0.0
H782 H 0.73018 0.359 0.24504 0.0
H783 H 0.72922 0.35085 0.18895 0.0
C784 C 0.71435 0.34027 0.35657 0.0
C785 C 0.70557 0.33639 0.32526 0.0
C786 C 0.72562 0.34097 0.33928 0.0
C787 C 0.72822 0.33796 0.29031 0.0
C788 C 0.71948 0.33408 0.25908 0.0
H789 H 0.78857 0.33547 0.1046 0.0
H790 H 0.76911 0.33574 0.13841 0.0
C791 C 0.70826 0.33329 0.27638 0.0
C792 C 0.74013 0.33848 0.27196 0.0
H793 H 0.75733 0.35204 0.18851 0.0
C794 C 0.74809 0.3306 0.29034 0.0
C795 C 0.74348 0.34633 0.23496 0.0
C796 C 0.73526 0.3551 0.21473 0.0
C797 C 0.7593 0.33016 0.2718 0.0
C798 C 0.76271 0.33805 0.23486 0.0
C799 C 0.75473 0.346 0.2168 0.0
C800 C 0.77448 0.33816 0.21432 0.0
C801 C 0.76725 0.32098 0.29082 0.0
C802 C 0.78395 0.33967 0.24556 0.0
C803 C 0.79504 0.33939 0.22642 0.0
C804 C 0.79688 0.33781 0.17551 0.0
C805 C 0.7874 0.33668 0.14399 0.0
C806 C 0.77629 0.33683 0.16327 0.0
H807 H 0.76245 0.31374 0.30741 0.0
H808 H 0.77278 0.31761 0.26081 0.0
H809 H 0.77282 0.32466 0.31999 0.0
H810 H 0.78277 0.34103 0.28483 0.0
H811 H 0.80218 0.34042 0.25157 0.0
H812 H 0.93051 0.45423 0.53032 0.0
H813 H 0.93007 0.47393 0.50052 0.0
H814 H 0.90039 0.48061 0.59089 0.0
H815 H 0.90116 0.461 0.62268 0.0
H816 H 0.91487 0.48477 0.44862 0.0
H817 H 0.91951 0.50745 0.62738 0.0
H818 H 0.92149 0.49222 0.62176 0.0
H819 H 0.90732 0.49816 0.62618 0.0
C820 C 0.92396 0.45994 0.54421 0.0
C821 C 0.91591 0.45612 0.57905 0.0
C822 C 0.9237 0.47119 0.52707 0.0
C823 C 0.9153 0.47885 0.54391 0.0
C824 C 0.90716 0.475 0.57835 0.0
H825 H 0.90136 0.5425 0.38246 0.0
H826 H 0.9004 0.52301 0.4155 0.0
C827 C 0.90755 0.46377 0.59628 0.0
C828 C 0.91496 0.49071 0.52404 0.0
H829 H 0.91493 0.51887 0.55753 0.0
C830 C 0.91492 0.49223 0.47248 0.0
C831 C 0.91516 0.50046 0.55507 0.0
C832 C 0.91599 0.49951 0.61063 0.0
C833 C 0.91517 0.50317 0.4511 0.0
C834 C 0.915 0.51292 0.48213 0.0
C835 C 0.91496 0.51141 0.53369 0.0
C836 C 0.91536 0.52477 0.46214 0.0
C837 C 0.91602 0.50411 0.39555 0.0
C838 C 0.92384 0.53239 0.47852 0.0
C839 C 0.92422 0.54359 0.4606 0.0
C840 C 0.91621 0.54737 0.42551 0.0
C841 C 0.90772 0.53976 0.40903 0.0
C842 C 0.90722 0.5286 0.42767 0.0
H843 H 0.91951 0.49616 0.37883 0.0
H844 H 0.90736 0.50551 0.37992 0.0
H845 H 0.92156 0.51138 0.38445 0.0
H846 H 0.93021 0.52967 0.50512 0.0
H847 H 0.93086 0.54926 0.47399 0.0
H848 H 0.30107 0.33726 0.25012 0.0
H849 H 0.2816 0.33803 0.21751 0.0
H850 H 0.26825 0.33842 0.3662 0.0
H851 H 0.28777 0.33793 0.39914 0.0
H852 H 0.26446 0.32272 0.22947 0.0
H853 H 0.25116 0.36485 0.30406 0.0
H854 H 0.26588 0.36022 0.30365 0.0
H855 H 0.25623 0.35518 0.35067 0.0
C856 C 0.29399 0.33761 0.27591 0.0
C857 C 0.29594 0.33759 0.32721 0.0
C858 C 0.28287 0.33803 0.25719 0.0
C859 C 0.27347 0.33845 0.28935 0.0
C860 C 0.27538 0.33838 0.34066 0.0
H861 H 0.20026 0.33436 0.25393 0.0
H862 H 0.21999 0.33523 0.28361 0.0
C863 C 0.28653 0.33803 0.35944 0.0
C864 C 0.26167 0.33847 0.26899 0.0
H865 H 0.23648 0.35327 0.26901 0.0
C866 C 0.25837 0.32945 0.23782 0.0
C867 C 0.25374 0.34727 0.27986 0.0
C868 C 0.25694 0.35749 0.31099 0.0
C869 C 0.24728 0.32884 0.21811 0.0
C870 C 0.23932 0.33755 0.22949 0.0
C871 C 0.24262 0.34661 0.26041 0.0
C872 C 0.22741 0.33723 0.21089 0.0
C873 C 0.24405 0.31874 0.18629 0.0
C874 C 0.22505 0.3382 0.16014 0.0
C875 C 0.21376 0.33773 0.14301 0.0
C876 C 0.20467 0.33628 0.17642 0.0
C877 C 0.20708 0.33544 0.22724 0.0
C878 C 0.21834 0.33596 0.2443 0.0
H879 H 0.25037 0.31168 0.18921 0.0
H880 H 0.23549 0.31542 0.19678 0.0
H881 H 0.24365 0.32149 0.14705 0.0
H882 H 0.23194 0.33934 0.13384 0.0
H883 H 0.21216 0.33844 0.10368 0.0
H884 H 0.42309 0.55048 0.00343 0.0
H885 H 0.42257 0.53084 0.97247 0.0
H886 H 0.40717 0.51964 0.10897 0.0
H887 H 0.40763 0.53934 0.14035 0.0
H888 H 0.433 0.51117 0.01685 0.0
H889 H 0.38583 0.50688 0.99817 0.0
H890 H 0.39287 0.52058 0.00327 0.0
H891 H 0.3909 0.51185 0.05718 0.0
C892 C 0.41956 0.54385 0.02687 0.0
C893 C 0.41537 0.54645 0.07431 0.0
C894 C 0.41928 0.53264 0.00911 0.0
C895 C 0.41472 0.52383 0.03821 0.0
C896 C 0.41056 0.52636 0.08568 0.0
H897 H 0.42312 0.45079 0.99945 0.0
H898 H 0.42275 0.47048 0.02986 0.0
C899 C 0.41089 0.53759 0.10362 0.0
C900 C 0.41462 0.51196 0.0191 0.0
H901 H 0.3969 0.49026 0.98327 0.0
C902 C 0.42511 0.50659 0.0095 0.0
C903 C 0.40431 0.50608 0.00903 0.0
C904 C 0.39281 0.51163 0.017 0.0
C905 C 0.42558 0.49541 0.99072 0.0
C906 C 0.41528 0.48944 0.98165 0.0
C907 C 0.40477 0.49486 0.99055 0.0
C908 C 0.41528 0.4775 0.9633 0.0
C909 C 0.43709 0.4901 0.98016 0.0
C910 C 0.411 0.47492 0.9161 0.0
C911 C 0.41122 0.46365 0.89852 0.0
C912 C 0.41562 0.4548 0.92813 0.0
C913 C 0.41972 0.45742 0.97568 0.0
C914 C 0.41955 0.46867 0.99308 0.0
H915 H 0.44399 0.49662 0.97866 0.0
H916 H 0.43921 0.48393 0.00994 0.0
H917 H 0.43693 0.48537 0.94456 0.0
H918 H 0.40763 0.48163 0.89268 0.0
H919 H 0.40796 0.46188 0.86182 0.0
H920 H 0.29039 0.65235 0.62164 0.0
H921 H 0.27082 0.65148 0.65378 0.0
H922 H 0.27842 0.67911 0.75437 0.0
H923 H 0.29807 0.67966 0.72395 0.0
H924 H 0.2671 0.66308 0.80069 0.0
H925 H 0.24466 0.67231 0.62466 0.0
H926 H 0.2536 0.65988 0.62099 0.0
H927 H 0.25994 0.67372 0.63111 0.0
C928 C 0.28785 0.65827 0.65043 0.0
C929 C 0.29573 0.6661 0.67018 0.0
C930 C 0.27664 0.65782 0.66857 0.0
C931 C 0.27305 0.66537 0.70592 0.0
C932 C 0.28095 0.6732 0.72552 0.0
H933 H 0.20322 0.68185 0.7818 0.0
H934 H 0.22283 0.68118 0.75079 0.0
C935 C 0.29218 0.67353 0.70801 0.0
C936 C 0.26119 0.66501 0.7257 0.0
H937 H 0.23307 0.66672 0.69249 0.0
C938 C 0.25966 0.66391 0.77702 0.0
C939 C 0.25147 0.66623 0.69493 0.0
C940 C 0.25248 0.66822 0.63995 0.0
C941 C 0.24872 0.66408 0.79846 0.0
C942 C 0.23898 0.66494 0.76755 0.0
C943 C 0.24052 0.66596 0.7162 0.0
C944 C 0.22714 0.66532 0.78764 0.0
C945 C 0.24778 0.66374 0.85412 0.0
C946 C 0.22298 0.65661 0.81865 0.0
C947 C 0.21182 0.65711 0.8373 0.0
C948 C 0.20454 0.66617 0.82418 0.0
C949 C 0.20865 0.67476 0.79253 0.0
C950 C 0.21985 0.67437 0.77468 0.0
H951 H 0.25585 0.66654 0.87216 0.0
H952 H 0.24072 0.66927 0.8675 0.0
H953 H 0.24606 0.65483 0.86609 0.0
H954 H 0.22831 0.64936 0.82806 0.0
H955 H 0.20882 0.6503 0.86114 0.0
H956 H 0.08605 0.44977 0.50124 0.0
H957 H 0.08702 0.46925 0.46887 0.0
H958 H 0.08894 0.48244 0.61761 0.0
H959 H 0.08824 0.4629 0.6503 0.0
H960 H 0.0723 0.4868 0.48327 0.0
H961 H 0.11537 0.49883 0.55186 0.0
H962 H 0.11031 0.48425 0.55196 0.0
H963 H 0.10587 0.49402 0.59964 0.0
C964 C 0.08676 0.45681 0.52709 0.0
C965 C 0.08712 0.45481 0.57833 0.0
C966 C 0.0873 0.46794 0.50851 0.0
C967 C 0.08822 0.4773 0.54073 0.0
C968 C 0.08851 0.47534 0.59199 0.0
H969 H 0.08617 0.55068 0.50066 0.0
H970 H 0.0866 0.53109 0.53242 0.0
C971 C 0.08804 0.46418 0.61064 0.0
C972 C 0.08843 0.4891 0.52046 0.0
H973 H 0.10409 0.51377 0.51735 0.0
C974 C 0.07929 0.49267 0.49048 0.0
C975 C 0.09756 0.49675 0.52986 0.0
C976 C 0.10789 0.49326 0.55969 0.0
C977 C 0.07893 0.50373 0.47035 0.0
C978 C 0.088 0.51139 0.48008 0.0
C979 C 0.09715 0.50785 0.51 0.0
C980 C 0.08802 0.5232 0.46036 0.0
C981 C 0.06873 0.50723 0.43969 0.0
C982 C 0.08883 0.52524 0.40931 0.0
C983 C 0.08863 0.53644 0.391 0.0
C984 C 0.08759 0.54576 0.42351 0.0
C985 C 0.08693 0.54367 0.47465 0.0
C986 C 0.0872 0.5325 0.49289 0.0
H987 H 0.06147 0.50119 0.44396 0.0
H988 H 0.06581 0.51594 0.45009 0.0
H989 H 0.07121 0.50741 0.40009 0.0
H990 H 0.08962 0.51817 0.38367 0.0
H991 H 0.08918 0.53779 0.35145 0.0
H992 H 0.16979 0.13505 0.99738 0.0
H993 H 0.15894 0.12351 0.93796 0.0
H994 H 0.13378 0.15034 0.92632 0.0
H995 H 0.14459 0.16193 0.98524 0.0
H996 H 0.13624 0.1161 0.95182 0.0
H997 H 0.14027 0.14222 0.78152 0.0
H998 H 0.14962 0.14401 0.83412 0.0
H999 H 0.13553 0.15015 0.83455 0.0
C1000 C 0.16207 0.13857 0.98141 0.0
C1001 C 0.15806 0.14941 0.99584 0.0
C1002 C 0.15586 0.13195 0.94766 0.0
C1003 C 0.14561 0.13611 0.92742 0.0
C1004 C 0.14176 0.14704 0.94081 0.0
H1005 H 0.09115 0.11101 0.74172 0.0
H1006 H 0.10348 0.12162 0.79862 0.0
C1007 C 0.14794 0.15365 0.97461 0.0
C1008 C 0.13853 0.12875 0.89486 0.0
H1009 H 0.12614 0.12755 0.7807 0.0
C1010 C 0.13411 0.11853 0.91422 0.0
C1011 C 0.13575 0.13198 0.84595 0.0
C1012 C 0.14062 0.14263 0.82255 0.0
C1013 C 0.12669 0.1116 0.88643 0.0
C1014 C 0.12378 0.11491 0.83773 0.0
C1015 C 0.12834 0.12506 0.81816 0.0
C1016 C 0.11594 0.10806 0.80638 0.0
C1017 C 0.12174 0.101 0.90997 0.0
C1018 C 0.11879 0.09686 0.79227 0.0
C1019 C 0.11172 0.09075 0.75991 0.0
C1020 C 0.10173 0.09577 0.74084 0.0
C1021 C 0.09877 0.10689 0.7559 0.0
C1022 C 0.10583 0.11298 0.78827 0.0
H1023 H 0.1225 0.10121 0.95092 0.0
H1024 H 0.11259 0.09995 0.90002 0.0
H1025 H 0.12646 0.09339 0.89638 0.0
H1026 H 0.12665 0.09297 0.80509 0.0
H1027 H 0.11428 0.08223 0.74864 0.0
H1028 H 0.16994 0.86435 0.00365 0.0
H1029 H 0.15968 0.87648 0.06283 0.0
H1030 H 0.12987 0.85502 0.04848 0.0
H1031 H 0.14009 0.84279 0.99017 0.0
H1032 H 0.13981 0.88874 0.0453 0.0
H1033 H 0.1331 0.85777 0.19757 0.0
H1034 H 0.14325 0.85532 0.14842 0.0
H1035 H 0.12829 0.85251 0.13882 0.0
C1036 C 0.16126 0.86212 0.01379 0.0
C1037 C 0.15584 0.85258 0.9925 0.0
C1038 C 0.1554 0.86908 0.04741 0.0
C1039 C 0.14406 0.86658 0.06053 0.0
C1040 C 0.13869 0.85698 0.03976 0.0
H1041 H 0.0896 0.89679 0.2301 0.0
H1042 H 0.10151 0.88593 0.17252 0.0
C1043 C 0.14454 0.85001 0.00627 0.0
C1044 C 0.13757 0.87431 0.0938 0.0
H1045 H 0.12181 0.87478 0.2 0.0
C1046 C 0.13596 0.88574 0.07941 0.0
C1047 C 0.13257 0.87036 0.13825 0.0
C1048 C 0.13447 0.85835 0.15699 0.0
C1049 C 0.12915 0.89322 0.10745 0.0
C1050 C 0.12394 0.88918 0.15127 0.0
C1051 C 0.12574 0.87782 0.16612 0.0
C1052 C 0.11651 0.89652 0.18232 0.0
C1053 C 0.1273 0.90527 0.08919 0.0
C1054 C 0.12094 0.9062 0.20635 0.0
C1055 C 0.11413 0.91246 0.23915 0.0
C1056 C 0.10279 0.9091 0.24871 0.0
C1057 C 0.09828 0.89962 0.22342 0.0
C1058 C 0.10509 0.89338 0.19064 0.0
H1059 H 0.12964 0.90621 0.04957 0.0
H1060 H 0.11825 0.9079 0.09408 0.0
H1061 H 0.13273 0.91121 0.11097 0.0
H1062 H 0.12978 0.90867 0.20111 0.0
H1063 H 0.11787 0.91968 0.25839 0.0
H1064 H 0.41088 0.89148 0.24597 0.0
H1065 H 0.39899 0.88075 0.30423 0.0
H1066 H 0.37456 0.90836 0.30656 0.0
H1067 H 0.38638 0.91913 0.24798 0.0
H1068 H 0.39076 0.88675 0.40048 0.0
H1069 H 0.35551 0.88002 0.26548 0.0
H1070 H 0.36961 0.88464 0.24701 0.0
H1071 H 0.35984 0.89462 0.27462 0.0
C1072 C 0.40303 0.89532 0.25925 0.0
C1073 C 0.39953 0.90612 0.24223 0.0
C1074 C 0.39625 0.88917 0.29246 0.0
C1075 C 0.38581 0.89368 0.30898 0.0
C1076 C 0.38249 0.90465 0.29352 0.0
H1077 H 0.33227 0.8654 0.49703 0.0
H1078 H 0.34358 0.87728 0.44058 0.0
C1079 C 0.38929 0.91082 0.26037 0.0
C1080 C 0.37834 0.88679 0.34174 0.0
H1081 H 0.35255 0.87311 0.34656 0.0
C1082 C 0.3824 0.88376 0.38876 0.0
C1083 C 0.36745 0.88293 0.32627 0.0
C1084 C 0.36283 0.88562 0.27547 0.0
C1085 C 0.37581 0.87705 0.42099 0.0
C1086 C 0.36498 0.87304 0.40527 0.0
C1087 C 0.36086 0.87617 0.35843 0.0
C1088 C 0.35784 0.86552 0.43688 0.0
C1089 C 0.38043 0.87446 0.47189 0.0
C1090 C 0.36194 0.85481 0.45216 0.0
C1091 C 0.35552 0.84802 0.48436 0.0
C1092 C 0.34481 0.85178 0.50153 0.0
C1093 C 0.34048 0.86228 0.48443 0.0
C1094 C 0.34694 0.86908 0.4523 0.0
H1095 H 0.38719 0.88063 0.48292 0.0
H1096 H 0.37351 0.87468 0.50003 0.0
H1097 H 0.38425 0.86578 0.47196 0.0
H1098 H 0.3702 0.85177 0.43974 0.0
H1099 H 0.35905 0.83995 0.49665 0.0
H1100 H 0.38627 0.08241 0.74878 0.0
H1101 H 0.37464 0.09332 0.68993 0.0
H1102 H 0.40002 0.12008 0.68864 0.0
H1103 H 0.41171 0.10921 0.74701 0.0
H1104 H 0.36579 0.11544 0.70701 0.0
H1105 H 0.39371 0.11469 0.5412 0.0
H1106 H 0.39552 0.10488 0.59221 0.0
H1107 H 0.4008 0.11929 0.59666 0.0
C1108 C 0.38947 0.09053 0.73525 0.0
C1109 C 0.39993 0.09494 0.75236 0.0
C1110 C 0.38279 0.09676 0.70182 0.0
C1111 C 0.38651 0.10746 0.6846 0.0
C1112 C 0.39708 0.11175 0.70077 0.0
H1113 H 0.35967 0.16164 0.50114 0.0
H1114 H 0.37056 0.14975 0.55877 0.0
C1115 C 0.40373 0.10555 0.73425 0.0
C1116 C 0.37908 0.11445 0.65208 0.0
H1117 H 0.37815 0.12778 0.53987 0.0
C1118 C 0.36843 0.11807 0.67027 0.0
C1119 C 0.38258 0.1179 0.60433 0.0
C1120 C 0.39373 0.11392 0.58215 0.0
C1121 C 0.36131 0.1253 0.64245 0.0
C1122 C 0.36486 0.12883 0.59485 0.0
C1123 C 0.37546 0.12511 0.57648 0.0
C1124 C 0.35777 0.13641 0.5633 0.0
C1125 C 0.35021 0.12936 0.66484 0.0
C1126 C 0.3469 0.13293 0.54716 0.0
C1127 C 0.34063 0.13975 0.51443 0.0
C1128 C 0.34516 0.15012 0.49694 0.0
C1129 C 0.35593 0.15371 0.51407 0.0
C1130 C 0.36218 0.14691 0.54685 0.0
H1131 H 0.35017 0.12838 0.70571 0.0
H1132 H 0.34859 0.13847 0.65566 0.0
H1133 H 0.34306 0.1242 0.64968 0.0
H1134 H 0.34342 0.12477 0.55862 0.0
H1135 H 0.3324 0.13671 0.50155 0.0
H1136 H 0.83183 0.86523 0.9992 0.0
H1137 H 0.84267 0.8775 0.056 0.0
H1138 H 0.871 0.85393 0.05028 0.0
H1139 H 0.86033 0.84175 0.99318 0.0
H1140 H 0.85264 0.87325 0.14862 0.0
H1141 H 0.88565 0.88422 0.00936 0.0
H1142 H 0.87227 0.87751 0.99301 0.0
H1143 H 0.88381 0.8691 0.01776 0.0
C1144 C 0.84033 0.86262 0.01042 0.0
C1145 C 0.84527 0.85257 0.99145 0.0
C1146 C 0.84652 0.86965 0.04275 0.0
C1147 C 0.85774 0.86676 0.05643 0.0
C1148 C 0.86247 0.85647 0.03921 0.0
H1149 H 0.91105 0.89263 0.2445 0.0
H1150 H 0.89896 0.88229 0.18568 0.0
C1151 C 0.85632 0.84948 0.00688 0.0
C1152 C 0.86459 0.87449 0.08835 0.0
H1153 H 0.88971 0.88938 0.0928 0.0
C1154 C 0.86068 0.87688 0.13632 0.0
C1155 C 0.87507 0.87924 0.07209 0.0
C1156 C 0.87941 0.87749 0.02008 0.0
C1157 C 0.8672 0.88356 0.16911 0.0
C1158 C 0.8778 0.88808 0.15318 0.0
C1159 C 0.88159 0.88587 0.10492 0.0
C1160 C 0.88529 0.89476 0.1867 0.0
C1161 C 0.86287 0.88539 0.22109 0.0
C1162 C 0.88175 0.90535 0.20572 0.0
C1163 C 0.88866 0.91131 0.23922 0.0
C1164 C 0.89925 0.90677 0.25417 0.0
C1165 C 0.90294 0.89635 0.23373 0.0
C1166 C 0.89604 0.89042 0.20018 0.0
H1167 H 0.85582 0.87942 0.23057 0.0
H1168 H 0.86989 0.88427 0.24834 0.0
H1169 H 0.85959 0.89426 0.22463 0.0
H1170 H 0.87357 0.90895 0.19508 0.0
H1171 H 0.8856 0.91933 0.25428 0.0
H1172 H 0.83262 0.13654 0.00445 0.0
H1173 H 0.84352 0.12442 0.94742 0.0
H1174 H 0.87125 0.14873 0.94982 0.0
H1175 H 0.8605 0.16077 0.00726 0.0
H1176 H 0.85287 0.12864 0.85401 0.0
H1177 H 0.88688 0.11894 0.99068 0.0
H1178 H 0.87344 0.12539 0.00792 0.0
H1179 H 0.88462 0.13397 0.98126 0.0
C1180 C 0.841 0.13934 0.99248 0.0
C1181 C 0.84574 0.14957 0.0106 0.0
C1182 C 0.84722 0.1324 0.96 0.0
C1183 C 0.8583 0.13555 0.94527 0.0
C1184 C 0.86284 0.14599 0.96167 0.0
H1185 H 0.91089 0.10916 0.75384 0.0
H1186 H 0.89905 0.11984 0.81245 0.0
C1187 C 0.85664 0.15291 0.99419 0.0
C1188 C 0.86517 0.12789 0.91313 0.0
H1189 H 0.89046 0.1133 0.90753 0.0
C1190 C 0.86104 0.1252 0.8658 0.0
C1191 C 0.87581 0.12338 0.92873 0.0
C1192 C 0.88042 0.12546 0.98009 0.0
C1193 C 0.86745 0.11842 0.83304 0.0
C1194 C 0.87818 0.1141 0.84834 0.0
C1195 C 0.88223 0.11665 0.8959 0.0
C1196 C 0.88553 0.10724 0.81487 0.0
C1197 C 0.86286 0.11622 0.78176 0.0
C1198 C 0.88197 0.09647 0.79783 0.0
C1199 C 0.88875 0.09031 0.76448 0.0
C1200 C 0.89919 0.09483 0.74767 0.0
C1201 C 0.90288 0.10546 0.76605 0.0
C1202 C 0.89613 0.11158 0.79949 0.0
H1203 H 0.85569 0.12207 0.77235 0.0
H1204 H 0.8697 0.11725 0.75366 0.0
H1205 H 0.85965 0.10731 0.77956 0.0
H1206 H 0.8739 0.09289 0.80994 0.0
H1207 H 0.88568 0.08215 0.75099 0.0
H1208 H 0.59469 0.11157 0.77138 0.0
H1209 H 0.60703 0.12157 0.7126 0.0
H1210 H 0.6249 0.09013 0.68182 0.0
H1211 H 0.61261 0.08001 0.74116 0.0
H1212 H 0.63351 0.12095 0.71881 0.0
H1213 H 0.61387 0.10539 0.54337 0.0
H1214 H 0.60586 0.10603 0.60047 0.0
H1215 H 0.61662 0.09529 0.59234 0.0
C1216 C 0.60117 0.10674 0.75183 0.0
C1217 C 0.60267 0.09499 0.76083 0.0
C1218 C 0.60823 0.11248 0.71842 0.0
C1219 C 0.61684 0.10658 0.69299 0.0
C1220 C 0.61826 0.09481 0.70106 0.0
H1221 H 0.67106 0.13772 0.51247 0.0
H1222 H 0.66083 0.12548 0.57162 0.0
C1223 C 0.61123 0.08905 0.73486 0.0
C1224 C 0.62446 0.11289 0.6589 0.0
H1225 H 0.62906 0.11852 0.53664 0.0
C1226 C 0.63265 0.12035 0.67896 0.0
C1227 C 0.62322 0.1121 0.60707 0.0
C1228 C 0.61441 0.10432 0.58413 0.0
C1229 C 0.63955 0.12717 0.64834 0.0
C1230 C 0.63819 0.1265 0.59652 0.0
C1231 C 0.6301 0.11895 0.57645 0.0
C1232 C 0.64459 0.1341 0.56259 0.0
C1233 C 0.64801 0.13531 0.67141 0.0
C1234 C 0.63885 0.143 0.53834 0.0
C1235 C 0.64466 0.15002 0.50501 0.0
C1236 C 0.65632 0.1482 0.49489 0.0
C1237 C 0.6621 0.13935 0.51968 0.0
C1238 C 0.65628 0.13236 0.55339 0.0
H1239 H 0.64718 0.13567 0.71231 0.0
H1240 H 0.65683 0.13253 0.66217 0.0
H1241 H 0.64682 0.14404 0.65616 0.0
H1242 H 0.62983 0.14446 0.54502 0.0
H1243 H 0.63995 0.15673 0.48638 0.0
H1244 H 0.64211 0.84137 0.50145 0.0
H1245 H 0.63189 0.85335 0.4421 0.0
H1246 H 0.65951 0.87778 0.44463 0.0
H1247 H 0.66979 0.86584 0.50462 0.0
H1248 H 0.63766 0.88756 0.45766 0.0
H1249 H 0.63836 0.85869 0.29511 0.0
H1250 H 0.63318 0.85196 0.35038 0.0
H1251 H 0.64776 0.8568 0.34747 0.0
C1252 C 0.64609 0.84922 0.4889 0.0
C1253 C 0.65678 0.85264 0.50755 0.0
C1254 C 0.64026 0.85603 0.45482 0.0
C1255 C 0.645 0.86639 0.43849 0.0
C1256 C 0.65573 0.86979 0.45658 0.0
H1257 H 0.61594 0.91957 0.24707 0.0
H1258 H 0.62827 0.90905 0.30453 0.0
C1259 C 0.6616 0.86294 0.49066 0.0
C1260 C 0.63844 0.87388 0.40448 0.0
H1261 H 0.62526 0.87431 0.29185 0.0
C1262 C 0.63505 0.88474 0.42116 0.0
C1263 C 0.63504 0.87016 0.35695 0.0
C1264 C 0.63886 0.85881 0.33614 0.0
C1265 C 0.62797 0.8918 0.39226 0.0
C1266 C 0.62437 0.88796 0.34517 0.0
C1267 C 0.62798 0.87721 0.32811 0.0
C1268 C 0.61663 0.8948 0.31323 0.0
C1269 C 0.6241 0.90313 0.41305 0.0
C1270 C 0.60602 0.89028 0.29897 0.0
C1271 C 0.59899 0.89624 0.26607 0.0
C1272 C 0.60247 0.90682 0.24658 0.0
C1273 C 0.61299 0.91148 0.26178 0.0
C1274 C 0.62003 0.90549 0.2947 0.0
H1275 H 0.62537 0.90361 0.45371 0.0
H1276 H 0.62913 0.9101 0.39573 0.0
H1277 H 0.61492 0.90465 0.40477 0.0
H1278 H 0.60324 0.88203 0.31276 0.0
H1279 H 0.59096 0.89241 0.25498 0.0
H1280 H 0.66808 0.64848 0.45746 0.0
H1281 H 0.6571 0.63757 0.39604 0.0
H1282 H 0.62766 0.63832 0.49219 0.0
H1283 H 0.63835 0.64966 0.55203 0.0
H1284 H 0.64746 0.61736 0.39791 0.0
H1285 H 0.61323 0.6492 0.36835 0.0
H1286 H 0.62601 0.65249 0.40279 0.0
H1287 H 0.61419 0.6453 0.43226 0.0
C1288 C 0.65922 0.64641 0.46506 0.0
C1289 C 0.65401 0.65007 0.5091 0.0
C1290 C 0.65297 0.64015 0.43009 0.0
C1291 C 0.64145 0.63734 0.43887 0.0
C1292 C 0.63638 0.64072 0.48361 0.0
H1293 H 0.60406 0.58347 0.28144 0.0
H1294 H 0.61544 0.59435 0.34146 0.0
C1295 C 0.64254 0.64715 0.51798 0.0
C1296 C 0.63476 0.63067 0.40198 0.0
H1297 H 0.60938 0.63026 0.3396 0.0
C1298 C 0.63917 0.62023 0.38478 0.0
C1299 C 0.62402 0.63448 0.38416 0.0
C1300 C 0.61916 0.64604 0.39744 0.0
C1301 C 0.63309 0.61342 0.35093 0.0
C1302 C 0.62208 0.61694 0.33525 0.0
C1303 C 0.61774 0.62745 0.35204 0.0
C1304 C 0.61506 0.61018 0.29975 0.0
C1305 C 0.6387 0.60271 0.33144 0.0
C1306 C 0.61061 0.61552 0.2574 0.0
C1307 C 0.60383 0.60943 0.22411 0.0
C1308 C 0.60146 0.5978 0.23196 0.0
C1309 C 0.60583 0.59241 0.27435 0.0
C1310 C 0.61244 0.5986 0.30836 0.0
H1311 H 0.64817 0.60315 0.33471 0.0
H1312 H 0.63576 0.59526 0.35346 0.0
H1313 H 0.63648 0.60121 0.29206 0.0
H1314 H 0.61246 0.62443 0.24982 0.0
H1315 H 0.60064 0.61381 0.19159 0.0
H1316 H 0.6051 0.41901 0.71387 0.0
H1317 H 0.61613 0.40832 0.65189 0.0
H1318 H 0.61236 0.37759 0.7387 0.0
H1319 H 0.60095 0.38804 0.799 0.0
H1320 H 0.63574 0.39727 0.65584 0.0
H1321 H 0.60214 0.36595 0.60817 0.0
H1322 H 0.59924 0.37839 0.64549 0.0
H1323 H 0.60518 0.36567 0.67307 0.0
C1324 C 0.60654 0.40995 0.71928 0.0
C1325 C 0.60202 0.40432 0.76081 0.0
C1326 C 0.61286 0.40385 0.684 0.0
C1327 C 0.61486 0.39207 0.68996 0.0
C1328 C 0.61061 0.38656 0.73225 0.0
H1329 H 0.66809 0.35306 0.53616 0.0
H1330 H 0.65726 0.36456 0.59594 0.0
C1331 C 0.60413 0.39257 0.7669 0.0
C1332 C 0.62157 0.38553 0.6527 0.0
H1333 H 0.62114 0.36121 0.58297 0.0
C1334 C 0.63251 0.38944 0.63951 0.0
C1335 C 0.6173 0.3754 0.63073 0.0
C1336 C 0.60527 0.37118 0.63969 0.0
C1337 C 0.63937 0.38341 0.60568 0.0
C1338 C 0.63534 0.37294 0.58583 0.0
C1339 C 0.62433 0.36913 0.59859 0.0
C1340 C 0.64211 0.36597 0.55017 0.0
C1341 C 0.65071 0.38849 0.59074 0.0
C1342 C 0.63709 0.36254 0.50538 0.0
C1343 C 0.64311 0.35569 0.47214 0.0
C1344 C 0.65436 0.35224 0.48249 0.0
C1345 C 0.65945 0.35567 0.52715 0.0
C1346 C 0.6533 0.36235 0.56105 0.0
H1347 H 0.65087 0.3979 0.59668 0.0
H1348 H 0.65759 0.38469 0.61375 0.0
H1349 H 0.65264 0.38675 0.55126 0.0
H1350 H 0.62848 0.36519 0.49599 0.0
H1351 H 0.63899 0.35324 0.43785 0.0
H1352 H 0.88288 0.41901 0.73103 0.0
H1353 H 0.8709 0.40871 0.7907 0.0
H1354 H 0.89882 0.38567 0.82124 0.0
H1355 H 0.91085 0.39597 0.76233 0.0
H1356 H 0.86463 0.38581 0.78634 0.0
H1357 H 0.88836 0.39468 0.95945 0.0
H1358 H 0.89063 0.40277 0.90343 0.0
H1359 H 0.8973 0.38902 0.91136 0.0
C1360 C 0.88651 0.41186 0.75109 0.0
C1361 C 0.89782 0.40833 0.74219 0.0
C1362 C 0.87965 0.40597 0.78501 0.0
C1363 C 0.88401 0.39651 0.81086 0.0
C1364 C 0.89535 0.39309 0.8025 0.0
H1365 H 0.8603 0.34312 0.00295 0.0
H1366 H 0.8704 0.35558 0.94497 0.0
C1367 C 0.9022 0.39896 0.76865 0.0
C1368 C 0.87657 0.38979 0.84452 0.0
H1369 H 0.87479 0.3794 0.96227 0.0
C1370 C 0.86676 0.38452 0.82497 0.0
C1371 C 0.87936 0.38812 0.8949 0.0
C1372 C 0.88942 0.39404 0.91871 0.0
C1373 C 0.85993 0.37726 0.85402 0.0
C1374 C 0.86292 0.37535 0.90398 0.0
C1375 C 0.87257 0.38083 0.92381 0.0
C1376 C 0.85637 0.36745 0.93617 0.0
C1377 C 0.84979 0.37138 0.83068 0.0
C1378 C 0.84507 0.36995 0.95007 0.0
C1379 C 0.83926 0.36283 0.98327 0.0
C1380 C 0.84467 0.35312 0.00315 0.0
C1381 C 0.85588 0.35051 0.98817 0.0
C1382 C 0.86168 0.35764 0.95518 0.0
H1383 H 0.84995 0.37199 0.78968 0.0
H1384 H 0.84953 0.36222 0.8414 0.0
H1385 H 0.8418 0.37547 0.84404 0.0
H1386 H 0.84087 0.37757 0.93633 0.0
H1387 H 0.83065 0.3651 0.99437 0.0
H1388 H 0.88775 0.58184 0.24804 0.0
H1389 H 0.87547 0.59204 0.18907 0.0
H1390 H 0.89714 0.62176 0.20072 0.0
H1391 H 0.90946 0.61164 0.25907 0.0
H1392 H 0.86352 0.61262 0.20703 0.0
H1393 H 0.8939 0.61747 0.05108 0.0
H1394 H 0.89616 0.60737 0.10066 0.0
H1395 H 0.89954 0.62224 0.10926 0.0
C1396 C 0.88999 0.59049 0.2374 0.0
C1397 C 0.8996 0.59592 0.25798 0.0
C1398 C 0.88294 0.59631 0.20391 0.0
C1399 C 0.88547 0.60761 0.19012 0.0
C1400 C 0.89515 0.61297 0.21011 0.0
H1401 H 0.8563 0.66169 0.01554 0.0
H1402 H 0.86707 0.64975 0.07331 0.0
C1403 C 0.90216 0.60719 0.2436 0.0
C1404 C 0.87772 0.61404 0.15673 0.0
H1405 H 0.87712 0.62902 0.04844 0.0
C1406 C 0.86644 0.61611 0.17208 0.0
C1407 C 0.88156 0.61859 0.11123 0.0
C1408 C 0.89342 0.61623 0.09176 0.0
C1409 C 0.85901 0.62297 0.14394 0.0
C1410 C 0.86293 0.62772 0.09893 0.0
C1411 C 0.87415 0.62544 0.08315 0.0
C1412 C 0.85568 0.63523 0.06775 0.0
C1413 C 0.84716 0.62539 0.16339 0.0
C1414 C 0.84558 0.63109 0.04603 0.0
C1415 C 0.83936 0.63794 0.01314 0.0
C1416 C 0.84319 0.64899 0.00114 0.0
C1417 C 0.85311 0.65322 0.02411 0.0
C1418 C 0.8593 0.6464 0.057 0.0
H1419 H 0.84644 0.62346 0.2035 0.0
H1420 H 0.84479 0.63447 0.15724 0.0
H1421 H 0.8409 0.61995 0.14341 0.0
H1422 H 0.84273 0.62244 0.0531 0.0
H1423 H 0.8318 0.63441 0.99569 0.0
H1424 H 0.35838 0.34012 0.50784 0.0
H1425 H 0.36912 0.35191 0.56633 0.0
H1426 H 0.34278 0.37768 0.56002 0.0
H1427 H 0.33188 0.36583 0.5021 0.0
H1428 H 0.37759 0.37343 0.54732 0.0
H1429 H 0.34811 0.37463 0.70822 0.0
H1430 H 0.34658 0.3644 0.65866 0.0
H1431 H 0.34173 0.37887 0.65067 0.0
C1432 C 0.35478 0.34821 0.51957 0.0
C1433 C 0.34427 0.35203 0.5005 0.0
C1434 C 0.36094 0.35495 0.55287 0.0
C1435 C 0.35672 0.36564 0.56788 0.0
C1436 C 0.34611 0.36938 0.54973 0.0
H1437 H 0.38655 0.41905 0.75413 0.0
H1438 H 0.37463 0.40852 0.69494 0.0
C1439 C 0.3399 0.3626 0.51651 0.0
C1440 C 0.36379 0.37312 0.60004 0.0
H1441 H 0.36431 0.38681 0.71161 0.0
C1442 C 0.3747 0.37633 0.5833 0.0
C1443 C 0.35996 0.37697 0.64679 0.0
C1444 C 0.3485 0.37348 0.66747 0.0
C1445 C 0.38188 0.38329 0.61201 0.0
C1446 C 0.37812 0.38701 0.65901 0.0
C1447 C 0.36715 0.38396 0.67548 0.0
C1448 C 0.38563 0.39366 0.69256 0.0
C1449 C 0.3934 0.38669 0.5916 0.0
C1450 C 0.39577 0.3888 0.71069 0.0
C1451 C 0.40258 0.39477 0.74439 0.0
C1452 C 0.39936 0.40572 0.76074 0.0
C1453 C 0.38929 0.41066 0.74197 0.0
C1454 C 0.38245 0.40464 0.70834 0.0
H1455 H 0.39372 0.3858 0.55072 0.0
H1456 H 0.39552 0.39565 0.60156 0.0
H1457 H 0.40007 0.38103 0.60757 0.0
H1458 H 0.39828 0.38025 0.69967 0.0
H1459 H 0.41024 0.39071 0.75841 0.0
H1460 H 0.33164 0.63634 0.49967 0.0
H1461 H 0.34241 0.62404 0.44284 0.0
H1462 H 0.37042 0.64802 0.4449 0.0
H1463 H 0.35982 0.66023 0.50214 0.0
H1464 H 0.35182 0.62801 0.34945 0.0
H1465 H 0.38574 0.61814 0.48617 0.0
H1466 H 0.37236 0.62475 0.50332 0.0
H1467 H 0.38366 0.63319 0.47671 0.0
C1468 C 0.34006 0.63903 0.48767 0.0
C1469 C 0.34492 0.64921 0.50565 0.0
C1470 C 0.3462 0.63198 0.45531 0.0
C1471 C 0.35732 0.63498 0.44057 0.0
C1472 C 0.36198 0.64539 0.4568 0.0
H1473 H 0.41001 0.60937 0.24939 0.0
H1474 H 0.39796 0.6197 0.3083 0.0
C1475 C 0.35587 0.6524 0.48922 0.0
C1476 C 0.36412 0.62724 0.40855 0.0
H1477 H 0.38943 0.6127 0.40274 0.0
C1478 C 0.35998 0.62456 0.36121 0.0
C1479 C 0.37475 0.6227 0.42413 0.0
C1480 C 0.37935 0.62474 0.47553 0.0
C1481 C 0.36641 0.61783 0.32832 0.0
C1482 C 0.37717 0.61354 0.34352 0.0
C1483 C 0.38119 0.61603 0.39118 0.0
C1484 C 0.38461 0.60689 0.30971 0.0
C1485 C 0.36183 0.61568 0.27699 0.0
C1486 C 0.38123 0.59613 0.29194 0.0
C1487 C 0.38813 0.59018 0.25837 0.0
C1488 C 0.39853 0.5949 0.2421 0.0
C1489 C 0.40204 0.60552 0.26117 0.0
C1490 C 0.39516 0.61143 0.29479 0.0
H1491 H 0.35457 0.62143 0.26784 0.0
H1492 H 0.36866 0.61687 0.2489 0.0
H1493 H 0.35876 0.60672 0.27442 0.0
H1494 H 0.3732 0.59239 0.30368 0.0
H1495 H 0.3852 0.58201 0.24435 0.0
H1496 H 0.16947 0.63945 0.00731 0.0
H1497 H 0.15892 0.62696 0.06413 0.0
H1498 H 0.12841 0.64693 0.04035 0.0
H1499 H 0.1388 0.65927 0.98297 0.0
H1500 H 0.14701 0.63117 0.15059 0.0
H1501 H 0.11773 0.61483 0.00572 0.0
H1502 H 0.13049 0.62284 0.99131 0.0
H1503 H 0.11768 0.63014 0.01033 0.0
C1504 C 0.16054 0.64122 0.01453 0.0
C1505 C 0.15494 0.65028 0.99039 0.0
C1506 C 0.15452 0.63407 0.04689 0.0
C1507 C 0.14281 0.63584 0.05552 0.0
C1508 C 0.13735 0.6452 0.03318 0.0
H1509 H 0.09017 0.6077 0.24084 0.0
H1510 H 0.1019 0.61849 0.18217 0.0
C1511 C 0.14334 0.65231 0.00071 0.0
C1512 C 0.13624 0.62791 0.08758 0.0
H1513 H 0.11276 0.61051 0.08922 0.0
C1514 C 0.13959 0.62656 0.13709 0.0
C1515 C 0.12659 0.62184 0.06977 0.0
C1516 C 0.12297 0.62238 0.01626 0.0
C1517 C 0.13331 0.61963 0.1697 0.0
C1518 C 0.1235 0.61383 0.15216 0.0
C1519 C 0.12026 0.61501 0.10251 0.0
C1520 C 0.11625 0.60685 0.18534 0.0
C1521 C 0.13698 0.61881 0.22307 0.0
C1522 C 0.12034 0.59657 0.20547 0.0
C1523 C 0.11361 0.59032 0.23871 0.0
C1524 C 0.10272 0.5943 0.25243 0.0
C1525 C 0.09853 0.60442 0.23101 0.0
C1526 C 0.10522 0.6106 0.19756 0.0
H1527 H 0.14359 0.62528 0.23259 0.0
H1528 H 0.12953 0.61997 0.24801 0.0
H1529 H 0.14059 0.61019 0.23011 0.0
H1530 H 0.12878 0.59346 0.19596 0.0
H1531 H 0.11707 0.58257 0.25467 0.0
H1532 H 0.09069 0.39247 0.75758 0.0
H1533 H 0.10271 0.38187 0.81565 0.0
H1534 H 0.12837 0.40829 0.80696 0.0
H1535 H 0.1163 0.41903 0.74923 0.0
H1536 H 0.12454 0.37359 0.79526 0.0
H1537 H 0.12528 0.40315 0.95619 0.0
H1538 H 0.11489 0.40437 0.90708 0.0
H1539 H 0.12923 0.40949 0.89812 0.0
C1540 C 0.09881 0.39612 0.76862 0.0
C1541 C 0.10254 0.4066 0.74894 0.0
C1542 C 0.10568 0.39003 0.80169 0.0
C1543 C 0.1164 0.39432 0.81593 0.0
C1544 C 0.12005 0.40491 0.79717 0.0
H1545 H 0.16923 0.36491 0.00696 0.0
H1546 H 0.15897 0.37685 0.94699 0.0
C1547 C 0.11316 0.41102 0.76408 0.0
C1548 C 0.12396 0.38736 0.84812 0.0
H1549 H 0.13732 0.38691 0.96043 0.0
C1550 C 0.12733 0.3765 0.83139 0.0
C1551 C 0.12766 0.39121 0.89505 0.0
C1552 C 0.12402 0.40265 0.91552 0.0
C1553 C 0.13428 0.36937 0.86038 0.0
C1554 C 0.1378 0.37312 0.9077 0.0
C1555 C 0.13462 0.38406 0.92408 0.0
C1556 C 0.14432 0.36561 0.94174 0.0
C1557 C 0.13786 0.35791 0.83989 0.0
C1558 C 0.1395 0.35533 0.95857 0.0
C1559 C 0.14534 0.3485 0.99265 0.0
C1560 C 0.15609 0.35185 0.01079 0.0
C1561 C 0.16099 0.36207 0.99342 0.0
C1562 C 0.15512 0.36892 0.95933 0.0
H1563 H 0.1373 0.35771 0.79888 0.0
H1564 H 0.14675 0.35577 0.85101 0.0
H1565 H 0.13209 0.35119 0.85459 0.0
H1566 H 0.13109 0.35272 0.94623 0.0
H1567 H 0.1413 0.34072 0.00558 0.0
H1568 H 0.16344 0.29532 0.18572 0.0
H1569 H 0.1637 0.27448 0.17783 0.0
H1570 H 0.17523 0.27755 0.02701 0.0
H1571 H 0.17505 0.29847 0.0346 0.0
H1572 H 0.15588 0.26126 0.04751 0.0
H1573 H 0.19427 0.25522 0.16612 0.0
H1574 H 0.18324 0.2643 0.19086 0.0
H1575 H 0.19094 0.26869 0.13668 0.0
C1576 C 0.166 0.29157 0.15081 0.0
C1577 C 0.16927 0.29852 0.11082 0.0
C1578 C 0.16617 0.27967 0.14644 0.0
C1579 C 0.16958 0.27452 0.10202 0.0
C1580 C 0.17261 0.28141 0.06164 0.0
H1581 H 0.18676 0.20255 0.06372 0.0
H1582 H 0.18639 0.22348 0.05876 0.0
C1583 C 0.17252 0.29333 0.06607 0.0
C1584 C 0.17007 0.26191 0.0981 0.0
H1585 H 0.18417 0.23852 0.14262 0.0
C1586 C 0.16209 0.25627 0.06804 0.0
C1587 C 0.17826 0.25548 0.12462 0.0
C1588 C 0.18724 0.26119 0.15616 0.0
C1589 C 0.1619 0.24428 0.06485 0.0
C1590 C 0.16986 0.23783 0.0926 0.0
C1591 C 0.17804 0.2435 0.12161 0.0
C1592 C 0.16975 0.22517 0.09292 0.0
C1593 C 0.15321 0.23858 0.03178 0.0
C1594 C 0.16052 0.21922 0.11386 0.0
C1595 C 0.16074 0.20729 0.11699 0.0
C1596 C 0.17019 0.20111 0.09919 0.0
C1597 C 0.17935 0.20708 0.0776 0.0
C1598 C 0.17916 0.21902 0.07478 0.0
H1599 H 0.1495 0.24467 0.00463 0.0
H1600 H 0.15711 0.23132 0.01143 0.0
H1601 H 0.14614 0.23515 0.0548 0.0
H1602 H 0.15327 0.22383 0.12877 0.0
H1603 H 0.15357 0.20293 0.13394 0.0
H1604 H 0.95419 0.90413 0.40292 0.0
H1605 H 0.97507 0.90381 0.39857 0.0
H1606 H 0.9745 0.93277 0.29987 0.0
H1607 H 0.95355 0.93304 0.30342 0.0
H1608 H 0.98993 0.91553 0.27118 0.0
H1609 H 0.9955 0.9271 0.4688 0.0
H1610 H 0.9867 0.91473 0.45895 0.0
H1611 H 0.98198 0.92847 0.43714 0.0
C1612 C 0.9585 0.9104 0.38009 0.0
C1613 C 0.95224 0.91867 0.35377 0.0
C1614 C 0.97043 0.91024 0.37787 0.0
C1615 C 0.97633 0.91841 0.34968 0.0
C1616 C 0.9701 0.92645 0.3221 0.0
H1617 H 0.04827 0.9343 0.30469 0.0
H1618 H 0.02737 0.93351 0.30018 0.0
C1619 C 0.95815 0.92659 0.32418 0.0
C1620 C 0.98901 0.91862 0.34956 0.0
H1621 H 0.01221 0.92165 0.4251 0.0
C1622 C 0.99482 0.91692 0.30474 0.0
C1623 C 0.99535 0.92046 0.39343 0.0
C1624 C 0.98958 0.9229 0.44225 0.0
C1625 C 0.00683 0.91676 0.30283 0.0
C1626 C 0.01315 0.9185 0.34679 0.0
C1627 C 0.00733 0.92026 0.39152 0.0
C1628 C 0.02582 0.91864 0.34735 0.0
C1629 C 0.01265 0.91448 0.25404 0.0
C1630 C 0.03185 0.91064 0.37587 0.0
C1631 C 0.04378 0.91109 0.37867 0.0
C1632 C 0.04987 0.91963 0.35328 0.0
C1633 C 0.04381 0.9276 0.32448 0.0
C1634 C 0.03188 0.92712 0.32163 0.0
H1635 H 0.00672 0.91057 0.22674 0.0
H1636 H 0.01578 0.92268 0.23848 0.0
H1637 H 0.02012 0.90873 0.25898 0.0
H1638 H 0.02731 0.90407 0.39623 0.0
H1639 H 0.04821 0.90486 0.40125 0.0
H1640 H 0.34375 0.79696 0.65618 0.0
H1641 H 0.34419 0.77616 0.64738 0.0
H1642 H 0.31978 0.77824 0.52811 0.0
H1643 H 0.31915 0.79908 0.53729 0.0
H1644 H 0.31407 0.76203 0.59735 0.0
H1645 H 0.35934 0.75673 0.54156 0.0
H1646 H 0.35772 0.7648 0.59757 0.0
H1647 H 0.35218 0.77041 0.54042 0.0
C1648 C 0.33855 0.793 0.62777 0.0
C1649 C 0.33144 0.79965 0.59731 0.0
C1650 C 0.33887 0.78111 0.62257 0.0
C1651 C 0.33217 0.77566 0.5865 0.0
C1652 C 0.32508 0.78229 0.55594 0.0
H1653 H 0.32063 0.70238 0.53264 0.0
H1654 H 0.32079 0.72327 0.52355 0.0
C1655 C 0.32474 0.79418 0.5612 0.0
C1656 C 0.33213 0.76301 0.58259 0.0
H1657 H 0.34958 0.73982 0.56816 0.0
C1658 C 0.3218 0.75717 0.59031 0.0
C1659 C 0.34223 0.75669 0.57337 0.0
C1660 C 0.35347 0.76248 0.56227 0.0
C1661 C 0.32137 0.74516 0.59106 0.0
C1662 C 0.33153 0.73886 0.58316 0.0
C1663 C 0.34181 0.74469 0.57428 0.0
C1664 C 0.33178 0.72622 0.58669 0.0
C1665 C 0.31015 0.73933 0.60224 0.0
C1666 C 0.33815 0.72097 0.62431 0.0
C1667 C 0.3381 0.70909 0.62946 0.0
C1668 C 0.33174 0.70222 0.59687 0.0
C1669 C 0.32558 0.70746 0.5584 0.0
C1670 C 0.32562 0.71938 0.55332 0.0
H1671 H 0.3037 0.74539 0.61717 0.0
H1672 H 0.30668 0.73556 0.56772 0.0
H1673 H 0.31139 0.7323 0.62933 0.0
H1674 H 0.34298 0.72609 0.65033 0.0
H1675 H 0.34295 0.7053 0.6594 0.0
H1676 H 0.45376 0.09783 0.89262 0.0
H1677 H 0.47464 0.09802 0.88612 0.0
H1678 H 0.47365 0.0664 0.80422 0.0
H1679 H 0.45275 0.06613 0.81053 0.0
H1680 H 0.48901 0.06673 0.88712 0.0
H1681 H 0.49511 0.10408 0.76287 0.0
H1682 H 0.48585 0.10653 0.81487 0.0
H1683 H 0.48167 0.09654 0.76779 0.0
C1684 C 0.45798 0.09098 0.87279 0.0
C1685 C 0.45162 0.08197 0.85203 0.0
C1686 C 0.4699 0.09113 0.8689 0.0
C1687 C 0.47566 0.08229 0.84423 0.0
C1688 C 0.46934 0.07333 0.82315 0.0
H1689 H 0.54888 0.07725 0.78169 0.0
H1690 H 0.52794 0.07733 0.7744 0.0
C1691 C 0.45741 0.0732 0.82675 0.0
C1692 C 0.48832 0.08205 0.84301 0.0
H1693 H 0.51176 0.09673 0.80241 0.0
C1694 C 0.49399 0.07324 0.86832 0.0
C1695 C 0.49477 0.09051 0.81816 0.0
C1696 C 0.48907 0.09991 0.78898 0.0
C1697 C 0.50597 0.07286 0.87061 0.0
C1698 C 0.5124 0.08152 0.84713 0.0
C1699 C 0.50676 0.09015 0.82063 0.0
C1700 C 0.52501 0.08187 0.85088 0.0
C1701 C 0.51169 0.06323 0.89828 0.0
C1702 C 0.53023 0.08456 0.89609 0.0
C1703 C 0.54213 0.0846 0.90028 0.0
C1704 C 0.54902 0.08189 0.85935 0.0
C1705 C 0.54378 0.07934 0.81387 0.0
C1706 C 0.53185 0.0794 0.80962 0.0
H1707 H 0.50567 0.0561 0.90621 0.0
H1708 H 0.51904 0.05983 0.87683 0.0
H1709 H 0.51502 0.06651 0.934 0.0
H1710 H 0.52507 0.08658 0.9282 0.0
H1711 H 0.54592 0.0866 0.93579 0.0
H1712 H 0.15573 0.79715 0.84206 0.0
H1713 H 0.15557 0.77635 0.85085 0.0
H1714 H 0.18118 0.77864 0.96521 0.0
H1715 H 0.18129 0.79952 0.95704 0.0
H1716 H 0.17442 0.7621 0.83584 0.0
H1717 H 0.15715 0.75718 0.02621 0.0
H1718 H 0.15587 0.77033 0.99164 0.0
H1719 H 0.16921 0.76661 0.02029 0.0
C1720 C 0.16124 0.79324 0.86948 0.0
C1721 C 0.16852 0.79996 0.89889 0.0
C1722 C 0.16114 0.78136 0.87444 0.0
C1723 C 0.16827 0.77596 0.90902 0.0
C1724 C 0.17545 0.78265 0.93894 0.0
H1725 H 0.18129 0.70306 0.95814 0.0
H1726 H 0.18143 0.72401 0.96441 0.0
C1727 C 0.17555 0.79457 0.93404 0.0
C1728 C 0.16866 0.7633 0.91127 0.0
H1729 H 0.16328 0.7403 0.98569 0.0
C1730 C 0.17198 0.75734 0.8686 0.0
C1731 C 0.16556 0.75712 0.95421 0.0
C1732 C 0.16166 0.7631 0.00065 0.0
C1733 C 0.17224 0.74536 0.86754 0.0
C1734 C 0.16889 0.73916 0.91005 0.0
C1735 C 0.1658 0.74509 0.95314 0.0
C1736 C 0.16821 0.72651 0.90951 0.0
C1737 C 0.17616 0.73942 0.82097 0.0
C1738 C 0.1605 0.72102 0.87767 0.0
C1739 C 0.16041 0.70911 0.87399 0.0
C1740 C 0.16798 0.70247 0.90233 0.0
C1741 C 0.17538 0.70796 0.93577 0.0
C1742 C 0.17547 0.71991 0.9394 0.0
H1743 H 0.18121 0.74523 0.79684 0.0
H1744 H 0.18145 0.73181 0.82981 0.0
H1745 H 0.16858 0.73652 0.79976 0.0
H1746 H 0.15469 0.72596 0.85494 0.0
H1747 H 0.15455 0.70513 0.84814 0.0
H1748 H 0.45203 0.9312 0.20457 0.0
H1749 H 0.47289 0.9309 0.21272 0.0
H1750 H 0.4751 0.90679 0.09239 0.0
H1751 H 0.45426 0.9069 0.08457 0.0
H1752 H 0.48904 0.90112 0.17221 0.0
H1753 H 0.49503 0.94654 0.11755 0.0
H1754 H 0.48549 0.94436 0.16872 0.0
H1755 H 0.4817 0.93905 0.10853 0.0
C1756 C 0.45696 0.92581 0.17995 0.0
C1757 C 0.45152 0.91912 0.14374 0.0
C1758 C 0.46888 0.9257 0.18447 0.0
C1759 C 0.47555 0.91897 0.15259 0.0
C1760 C 0.47011 0.91208 0.1172 0.0
H1761 H 0.54652 0.90719 0.08614 0.0
H1762 H 0.52569 0.90681 0.09312 0.0
C1763 C 0.45821 0.91217 0.11275 0.0
C1764 C 0.48821 0.91912 0.15576 0.0
H1765 H 0.51155 0.93641 0.1422 0.0
C1766 C 0.49396 0.90884 0.16574 0.0
C1767 C 0.49462 0.92921 0.14737 0.0
C1768 C 0.48893 0.94041 0.13451 0.0
C1769 C 0.50595 0.90836 0.16752 0.0
C1770 C 0.51235 0.91841 0.1584 0.0
C1771 C 0.50661 0.92873 0.14931 0.0
C1772 C 0.52501 0.9183 0.1558 0.0
C1773 C 0.51168 0.89713 0.17941 0.0
C1774 C 0.53152 0.92503 0.18826 0.0
C1775 C 0.54345 0.92529 0.18427 0.0
C1776 C 0.54904 0.91891 0.14743 0.0
C1777 C 0.54248 0.91216 0.11507 0.0
C1778 C 0.53057 0.91188 0.11917 0.0
H1779 H 0.50575 0.89117 0.19855 0.0
H1780 H 0.51448 0.89301 0.1445 0.0
H1781 H 0.51933 0.89846 0.20303 0.0
H1782 H 0.52737 0.93011 0.21655 0.0
H1783 H 0.54828 0.9306 0.20961 0.0
H1784 H 0.34649 0.20429 0.34737 0.0
H1785 H 0.3468 0.22516 0.3534 0.0
H1786 H 0.31844 0.2241 0.45518 0.0
H1787 H 0.31814 0.20319 0.44974 0.0
H1788 H 0.3287 0.23973 0.32818 0.0
H1789 H 0.34131 0.2454 0.52476 0.0
H1790 H 0.34317 0.23205 0.49219 0.0
H1791 H 0.3293 0.23611 0.51476 0.0
C1792 C 0.3404 0.20849 0.37147 0.0
C1793 C 0.3323 0.2021 0.39815 0.0
C1794 C 0.34058 0.22041 0.37483 0.0
C1795 C 0.33273 0.22617 0.40516 0.0
C1796 C 0.32471 0.21981 0.4323 0.0
H1797 H 0.31788 0.29842 0.45082 0.0
H1798 H 0.31822 0.27746 0.4545 0.0
C1799 C 0.32452 0.20787 0.42895 0.0
C1800 C 0.33254 0.23884 0.40594 0.0
H1801 H 0.33581 0.26211 0.48102 0.0
C1802 C 0.3303 0.24463 0.36154 0.0
C1803 C 0.33454 0.24519 0.44962 0.0
C1804 C 0.33731 0.2394 0.49802 0.0
C1805 C 0.32993 0.25661 0.35964 0.0
C1806 C 0.33207 0.26298 0.40316 0.0
C1807 C 0.3342 0.25719 0.44772 0.0
C1808 C 0.33224 0.27565 0.40285 0.0
C1809 C 0.32703 0.26234 0.31121 0.0
C1810 C 0.34017 0.28156 0.37352 0.0
C1811 C 0.33997 0.29349 0.37123 0.0
C1812 C 0.33189 0.29974 0.3986 0.0
C1813 C 0.32418 0.29383 0.42922 0.0
C1814 C 0.32437 0.28187 0.43139 0.0
H1815 H 0.32266 0.25638 0.28538 0.0
H1816 H 0.32145 0.2699 0.31716 0.0
H1817 H 0.33503 0.26528 0.29322 0.0
H1818 H 0.34647 0.27693 0.35202 0.0
H1819 H 0.34608 0.29781 0.34759 0.0
H1820 H 0.95448 0.09398 0.59199 0.0
H1821 H 0.97532 0.09419 0.59984 0.0
H1822 H 0.97326 0.06982 0.71916 0.0
H1823 H 0.95238 0.06947 0.71127 0.0
H1824 H 0.98918 0.09958 0.68345 0.0
H1825 H 0.99541 0.05479 0.61939 0.0
H1826 H 0.98217 0.06245 0.61031 0.0
H1827 H 0.98563 0.05668 0.67001 0.0
C1828 C 0.95846 0.08868 0.62 0.0
C1829 C 0.9518 0.08165 0.65084 0.0
C1830 C 0.97036 0.08883 0.62447 0.0
C1831 C 0.97583 0.08191 0.65963 0.0
C1832 C 0.96921 0.07507 0.69124 0.0
H1833 H 0.04886 0.06947 0.70497 0.0
H1834 H 0.02802 0.06976 0.71461 0.0
C1835 C 0.95728 0.07493 0.68685 0.0
C1836 C 0.98848 0.08183 0.66262 0.0
H1837 H 0.0119 0.06498 0.64317 0.0
C1838 C 0.99417 0.09201 0.67483 0.0
C1839 C 0.99494 0.07192 0.65151 0.0
C1840 C 0.98927 0.06085 0.63668 0.0
C1841 C 0.00616 0.09258 0.67608 0.0
C1842 C 0.01262 0.08275 0.66379 0.0
C1843 C 0.00693 0.0725 0.6526 0.0
C1844 C 0.02527 0.08303 0.66008 0.0
C1845 C 0.01178 0.10368 0.69086 0.0
C1846 C 0.03063 0.09035 0.62609 0.0
C1847 C 0.04251 0.09021 0.62061 0.0
C1848 C 0.04925 0.08268 0.64873 0.0
C1849 C 0.04389 0.07539 0.68291 0.0
C1850 C 0.03199 0.07554 0.68842 0.0
H1851 H 0.00594 0.1091 0.71321 0.0
H1852 H 0.01971 0.10212 0.71244 0.0
H1853 H 0.01409 0.10853 0.65705 0.0
H1854 H 0.0256 0.096 0.60297 0.0
H1855 H 0.04639 0.09588 0.59372 0.0
H1856 H 0.85017 0.70252 0.8905 0.0
H1857 H 0.85104 0.7234 0.89598 0.0
H1858 H 0.81426 0.72472 0.90831 0.0
H1859 H 0.81344 0.70385 0.90554 0.0
H1860 H 0.84343 0.73875 0.83697 0.0
H1861 H 0.82227 0.74593 0.01683 0.0
H1862 H 0.82655 0.73188 0.99651 0.0
H1863 H 0.81318 0.73796 0.97619 0.0
C1864 C 0.84229 0.70728 0.89512 0.0
C1865 C 0.83175 0.70159 0.89798 0.0
C1866 C 0.84279 0.71921 0.89817 0.0
C1867 C 0.83273 0.72568 0.90349 0.0
C1868 C 0.82218 0.71996 0.90593 0.0
H1869 H 0.82599 0.79626 0.81121 0.0
H1870 H 0.82665 0.77543 0.81765 0.0
C1871 C 0.8217 0.70802 0.90394 0.0
C1872 C 0.83324 0.7384 0.90339 0.0
H1873 H 0.82352 0.76223 0.96304 0.0
C1874 C 0.83918 0.74387 0.86492 0.0
C1875 C 0.82789 0.74514 0.94026 0.0
C1876 C 0.82223 0.73991 0.98503 0.0
C1877 C 0.83967 0.75583 0.86156 0.0
C1878 C 0.83365 0.76256 0.89648 0.0
C1879 C 0.82798 0.7571 0.93574 0.0
C1880 C 0.83305 0.77524 0.89284 0.0
C1881 C 0.84683 0.76109 0.82104 0.0
C1882 C 0.83592 0.78211 0.93365 0.0
C1883 C 0.83523 0.79404 0.93045 0.0
C1884 C 0.83178 0.7993 0.8862 0.0
C1885 C 0.82883 0.79243 0.84555 0.0
C1886 C 0.8293 0.78052 0.84908 0.0
H1887 H 0.85379 0.75523 0.80926 0.0
H1888 H 0.84135 0.76273 0.7883 0.0
H1889 H 0.85072 0.7693 0.83303 0.0
H1890 H 0.83876 0.77826 0.96793 0.0
H1891 H 0.83754 0.79913 0.96237 0.0
H1892 H 0.65993 0.20465 0.33141 0.0
H1893 H 0.65952 0.22545 0.34026 0.0
H1894 H 0.67772 0.22277 0.47847 0.0
H1895 H 0.6783 0.2019 0.46958 0.0
H1896 H 0.65027 0.23897 0.41677 0.0
H1897 H 0.69721 0.24531 0.39768 0.0
H1898 H 0.69026 0.23207 0.38122 0.0
H1899 H 0.69282 0.23547 0.44503 0.0
C1900 C 0.66384 0.20848 0.36374 0.0
C1901 C 0.66921 0.20165 0.39968 0.0
C1902 C 0.66358 0.22036 0.36876 0.0
C1903 C 0.66872 0.22565 0.40967 0.0
C1904 C 0.67389 0.21886 0.44618 0.0
H1905 H 0.67792 0.29891 0.46634 0.0
H1906 H 0.67725 0.27807 0.47656 0.0
C1907 C 0.67416 0.20695 0.44117 0.0
C1908 C 0.66865 0.23829 0.41361 0.0
H1909 H 0.68603 0.26176 0.41151 0.0
C1910 C 0.65808 0.24396 0.41587 0.0
C1911 C 0.67887 0.24477 0.4126 0.0
C1912 C 0.69045 0.23914 0.40861 0.0
C1913 C 0.65745 0.25595 0.41667 0.0
C1914 C 0.66765 0.26242 0.41428 0.0
C1915 C 0.67823 0.25676 0.41338 0.0
C1916 C 0.66752 0.27506 0.40976 0.0
C1917 C 0.64586 0.26156 0.42011 0.0
C1918 C 0.66232 0.28025 0.36873 0.0
C1919 C 0.66269 0.29211 0.36282 0.0
C1920 C 0.66833 0.29901 0.3977 0.0
C1921 C 0.67348 0.29381 0.43897 0.0
C1922 C 0.67311 0.28192 0.44483 0.0
H1923 H 0.6394 0.2557 0.43641 0.0
H1924 H 0.64623 0.26948 0.44276 0.0
H1925 H 0.64293 0.2639 0.38242 0.0
H1926 H 0.65818 0.2751 0.34065 0.0
H1927 H 0.6587 0.29585 0.33049 0.0
H1928 H 0.84238 0.29719 0.17102 0.0
H1929 H 0.84279 0.27636 0.1639 0.0
H1930 H 0.82304 0.27832 0.02949 0.0
H1931 H 0.82249 0.29922 0.03661 0.0
H1932 H 0.81473 0.26232 0.0981 0.0
H1933 H 0.86126 0.25661 0.06761 0.0
H1934 H 0.85791 0.26513 0.12091 0.0
H1935 H 0.8542 0.27025 0.06028 0.0
C1936 C 0.8382 0.2932 0.13972 0.0
C1937 C 0.83243 0.29984 0.10427 0.0
C1938 C 0.8385 0.2813 0.13555 0.0
C1939 C 0.8331 0.27581 0.09575 0.0
C1940 C 0.82733 0.28241 0.06029 0.0
H1941 H 0.82228 0.20262 0.03965 0.0
H1942 H 0.82261 0.22349 0.03124 0.0
C1943 C 0.82703 0.29433 0.06439 0.0
C1944 C 0.83307 0.26315 0.09261 0.0
H1945 H 0.85066 0.23986 0.08854 0.0
C1946 C 0.82256 0.25739 0.09541 0.0
C1947 C 0.84331 0.25677 0.08916 0.0
C1948 C 0.85481 0.26249 0.08384 0.0
C1949 C 0.82205 0.24539 0.0968 0.0
C1950 C 0.83231 0.23901 0.09439 0.0
C1951 C 0.8428 0.24478 0.09049 0.0
C1952 C 0.8324 0.22636 0.09804 0.0
C1953 C 0.81056 0.23968 0.10278 0.0
C1954 C 0.83808 0.22104 0.13753 0.0
C1955 C 0.83798 0.20914 0.1422 0.0
C1956 C 0.83222 0.20233 0.10734 0.0
C1957 C 0.82673 0.20765 0.06723 0.0
C1958 C 0.82685 0.21957 0.06253 0.0
H1959 H 0.80389 0.24578 0.11542 0.0
H1960 H 0.80781 0.23612 0.06664 0.0
H1961 H 0.81107 0.23252 0.12968 0.0
H1962 H 0.84245 0.22611 0.16522 0.0
H1963 H 0.84231 0.20529 0.17346 0.0
H1964 H 0.65718 0.70505 0.65968 0.0
H1965 H 0.65674 0.72584 0.65062 0.0
H1966 H 0.679 0.72346 0.52389 0.0
H1967 H 0.67958 0.7026 0.53305 0.0
H1968 H 0.68612 0.73947 0.59375 0.0
H1969 H 0.64033 0.74564 0.54833 0.0
H1970 H 0.64257 0.73723 0.60299 0.0
H1971 H 0.64731 0.7319 0.54404 0.0
C1972 C 0.66188 0.70894 0.62954 0.0
C1973 C 0.6684 0.7022 0.597 0.0
C1974 C 0.66157 0.72081 0.62423 0.0
C1975 C 0.66769 0.72618 0.58612 0.0
C1976 C 0.67414 0.71947 0.55332 0.0
H1977 H 0.67994 0.79946 0.53591 0.0
H1978 H 0.67946 0.77863 0.52545 0.0
C1979 C 0.67446 0.70757 0.55858 0.0
C1980 C 0.6679 0.73883 0.58261 0.0
H1981 H 0.65067 0.76231 0.57361 0.0
C1982 C 0.6784 0.74448 0.58866 0.0
C1983 C 0.65781 0.74532 0.57601 0.0
C1984 C 0.64638 0.73972 0.56699 0.0
C1985 C 0.67902 0.75646 0.5904 0.0
C1986 C 0.66888 0.76295 0.58511 0.0
C1987 C 0.65842 0.7573 0.57777 0.0
C1988 C 0.66885 0.77558 0.58971 0.0
C1989 C 0.69043 0.76207 0.59994 0.0
C1990 C 0.6628 0.78077 0.62844 0.0
C1991 C 0.66301 0.79263 0.63434 0.0
C1992 C 0.66924 0.79954 0.60144 0.0
C1993 C 0.67511 0.79435 0.56199 0.0
C1994 C 0.67489 0.78246 0.55611 0.0
H1995 H 0.6969 0.75586 0.61357 0.0
H1996 H 0.69367 0.76584 0.565 0.0
H1997 H 0.68958 0.76906 0.62747 0.0
H1998 H 0.65806 0.77561 0.65467 0.0
H1999 H 0.65838 0.79638 0.66502 0.0
H2000 H 0.54658 0.40786 0.91629 0.0
H2001 H 0.52579 0.40736 0.90717 0.0
H2002 H 0.52825 0.42823 0.77612 0.0
H2003 H 0.54911 0.42886 0.78525 0.0
H2004 H 0.51206 0.43599 0.84529 0.0
H2005 H 0.5063 0.38979 0.80657 0.0
H2006 H 0.51471 0.39262 0.86076 0.0
H2007 H 0.51997 0.39688 0.80104 0.0
C2008 C 0.54271 0.41226 0.88525 0.0
C2009 C 0.54947 0.41838 0.8514 0.0
C2010 C 0.53084 0.41191 0.87992 0.0
C2011 C 0.5255 0.41761 0.84054 0.0
C2012 C 0.53222 0.4237 0.80656 0.0
H2013 H 0.45222 0.42919 0.78721 0.0
H2014 H 0.47306 0.42878 0.77736 0.0
C2015 C 0.54412 0.42404 0.81179 0.0
C2016 C 0.51285 0.41771 0.83667 0.0
H2017 H 0.48953 0.40023 0.82921 0.0
C2018 C 0.50712 0.4282 0.8411 0.0
C2019 C 0.50645 0.40752 0.83127 0.0
C2020 C 0.51217 0.39607 0.82416 0.0
C2021 C 0.49512 0.42873 0.84241 0.0
C2022 C 0.48872 0.4185 0.83822 0.0
C2023 C 0.49446 0.40805 0.8325 0.0
C2024 C 0.47608 0.4184 0.84235 0.0
C2025 C 0.48943 0.44016 0.85038 0.0
C2026 C 0.47085 0.41242 0.88122 0.0
C2027 C 0.45898 0.41257 0.8867 0.0
C2028 C 0.45209 0.41868 0.85329 0.0
C2029 C 0.45731 0.42446 0.81368 0.0
C2030 C 0.46921 0.42429 0.80817 0.0
H2031 H 0.49555 0.44673 0.86383 0.0
H2032 H 0.48579 0.4432 0.81483 0.0
H2033 H 0.48233 0.43943 0.87745 0.0
H2034 H 0.47599 0.40779 0.9079 0.0
H2035 H 0.45521 0.40801 0.91753 0.0
H2036 H 0.95578 0.59359 0.41512 0.0
H2037 H 0.97657 0.59315 0.40752 0.0
H2038 H 0.97371 0.57158 0.27876 0.0
H2039 H 0.95279 0.57207 0.28585 0.0
H2040 H 0.99 0.57319 0.41129 0.0
H2041 H 0.99629 0.59679 0.23472 0.0
H2042 H 0.98312 0.5975 0.2695 0.0
H2043 H 0.98631 0.5851 0.23289 0.0
C2044 C 0.95955 0.58885 0.38482 0.0
C2045 C 0.95265 0.58287 0.35104 0.0
C2046 C 0.97144 0.5886 0.38058 0.0
C2047 C 0.97668 0.58242 0.34237 0.0
C2048 C 0.96983 0.57656 0.30804 0.0
H2049 H 0.04955 0.57036 0.28768 0.0
H2050 H 0.0286 0.57035 0.28176 0.0
C2051 C 0.95789 0.57681 0.31226 0.0
C2052 C 0.98932 0.58163 0.34059 0.0
H2053 H 0.0128 0.58907 0.27264 0.0
C2054 C 0.99498 0.57665 0.38094 0.0
C2055 C 0.99578 0.58607 0.30076 0.0
C2056 C 0.99011 0.59175 0.25709 0.0
C2057 C 0.00695 0.57607 0.3828 0.0
C2058 C 0.01343 0.58078 0.34365 0.0
C2059 C 0.00778 0.58551 0.30266 0.0
C2060 C 0.02609 0.58119 0.34564 0.0
C2061 C 0.01256 0.57036 0.4266 0.0
C2062 C 0.03158 0.5875 0.38284 0.0
C2063 C 0.04349 0.58752 0.38632 0.0
C2064 C 0.05014 0.58128 0.35247 0.0
C2065 C 0.04464 0.57522 0.31438 0.0
C2066 C 0.03269 0.57521 0.3109 0.0
H2067 H 0.00655 0.56457 0.44626 0.0
H2068 H 0.02016 0.56535 0.41497 0.0
H2069 H 0.01542 0.57701 0.45315 0.0
H2070 H 0.02663 0.59234 0.40947 0.0
H2071 H 0.04748 0.59233 0.41589 0.0
H2072 H 0.95231 0.43112 0.70991 0.0
H2073 H 0.97327 0.4313 0.71579 0.0
H2074 H 0.97536 0.40873 0.58998 0.0
H2075 H 0.95452 0.40859 0.58356 0.0
H2076 H 0.98928 0.41285 0.7263 0.0
H2077 H 0.9951 0.43643 0.55002 0.0
H2078 H 0.98151 0.43564 0.5815 0.0
H2079 H 0.98641 0.42383 0.54455 0.0
C2080 C 0.95725 0.42616 0.68368 0.0
C2081 C 0.95179 0.41991 0.64604 0.0
C2082 C 0.9692 0.42627 0.6871 0.0
C2083 C 0.97584 0.42019 0.65279 0.0
C2084 C 0.97039 0.41366 0.61622 0.0
H2085 H 0.04665 0.40888 0.58475 0.0
H2086 H 0.0258 0.40896 0.59098 0.0
C2087 C 0.95848 0.41355 0.61276 0.0
C2088 C 0.98849 0.42074 0.65448 0.0
H2089 H 0.01178 0.42826 0.58576 0.0
C2090 C 0.99423 0.41631 0.69584 0.0
C2091 C 0.99489 0.4253 0.6147 0.0
C2092 C 0.98918 0.43067 0.57035 0.0
C2093 C 0.00624 0.41592 0.69764 0.0
C2094 C 0.01262 0.42024 0.65733 0.0
C2095 C 0.00686 0.42489 0.61648 0.0
C2096 C 0.02528 0.41978 0.65586 0.0
C2097 C 0.01199 0.41055 0.74185 0.0
C2098 C 0.03191 0.42584 0.69032 0.0
C2099 C 0.04386 0.4258 0.68689 0.0
C2100 C 0.04934 0.41974 0.64874 0.0
C2101 C 0.04268 0.41362 0.61458 0.0
C2102 C 0.03076 0.41366 0.61805 0.0
H2103 H 0.00593 0.40535 0.76412 0.0
H2104 H 0.01922 0.40502 0.73013 0.0
H2105 H 0.01547 0.4174 0.76596 0.0
H2106 H 0.02785 0.4308 0.71922 0.0
H2107 H 0.04877 0.43064 0.71359 0.0
H2108 H 0.45453 0.59303 0.08049 0.0
H2109 H 0.47534 0.59341 0.08882 0.0
H2110 H 0.47298 0.57301 0.22128 0.0
H2111 H 0.45211 0.57246 0.21285 0.0
H2112 H 0.48907 0.60141 0.16721 0.0
H2113 H 0.49531 0.55488 0.13381 0.0
H2114 H 0.48203 0.56209 0.12016 0.0
H2115 H 0.48559 0.55848 0.18286 0.0
C2116 C 0.45843 0.58863 0.11147 0.0
C2117 C 0.4517 0.58265 0.14587 0.0
C2118 C 0.47032 0.58888 0.1162 0.0
C2119 C 0.47571 0.58311 0.15526 0.0
C2120 C 0.469 0.57735 0.19036 0.0
H2121 H 0.54881 0.57281 0.209 0.0
H2122 H 0.52798 0.57341 0.21865 0.0
C2123 C 0.45708 0.57709 0.18564 0.0
C2124 C 0.48836 0.58312 0.15866 0.0
H2125 H 0.51179 0.56578 0.15084 0.0
C2126 C 0.49405 0.59362 0.16384 0.0
C2127 C 0.49482 0.57293 0.15439 0.0
C2128 C 0.48917 0.56145 0.1471 0.0
C2129 C 0.50603 0.59423 0.16456 0.0
C2130 C 0.51249 0.58408 0.15907 0.0
C2131 C 0.50681 0.57355 0.15507 0.0
C2132 C 0.52514 0.58424 0.15493 0.0
C2133 C 0.51168 0.60573 0.17136 0.0
C2134 C 0.53043 0.59008 0.1158 0.0
C2135 C 0.5423 0.58975 0.11022 0.0
C2136 C 0.5491 0.58351 0.14351 0.0
C2137 C 0.5438 0.57772 0.18287 0.0
C2138 C 0.53191 0.57804 0.1884 0.0
H2139 H 0.50582 0.61194 0.1894 0.0
H2140 H 0.51957 0.60499 0.19395 0.0
H2141 H 0.51405 0.60922 0.13462 0.0
H2142 H 0.52535 0.59469 0.08889 0.0
H2143 H 0.54613 0.59424 0.07936 0.0
H2144 H 0.14894 0.13431 0.17766 0.0
H2145 H 0.13715 0.12428 0.23828 0.0
H2146 H 0.14128 0.15236 0.34037 0.0
H2147 H 0.15273 0.16263 0.27894 0.0
H2148 H 0.14273 0.11664 0.32622 0.0
H2149 H 0.10737 0.14776 0.3474 0.0
H2150 H 0.11783 0.14885 0.2986 0.0
H2151 H 0.12109 0.15399 0.35977 0.0
C2152 C 0.14725 0.13839 0.21289 0.0
C2153 C 0.15171 0.14926 0.22361 0.0
C2154 C 0.14051 0.13265 0.24748 0.0
C2155 C 0.13817 0.13763 0.29361 0.0
C2156 C 0.1427 0.14847 0.30454 0.0
H2157 H 0.11782 0.09878 0.55192 0.0
H2158 H 0.12801 0.10979 0.48908 0.0
C2159 C 0.14931 0.1543 0.2696 0.0
C2160 C 0.13148 0.13119 0.33093 0.0
H2161 H 0.10828 0.13277 0.40725 0.0
C2162 C 0.13515 0.12015 0.3437 0.0
C2163 C 0.12149 0.13569 0.35319 0.0
C2164 C 0.11664 0.14717 0.33869 0.0
C2165 C 0.12923 0.11354 0.37853 0.0
C2166 C 0.11957 0.11826 0.40255 0.0
C2167 C 0.11577 0.12922 0.38925 0.0
C2168 C 0.11328 0.11193 0.44147 0.0
C2169 C 0.13327 0.10149 0.38841 0.0
C2170 C 0.1015 0.10987 0.4366 0.0
C2171 C 0.0956 0.10376 0.47297 0.0
C2172 C 0.10141 0.09956 0.51465 0.0
C2173 C 0.11316 0.10179 0.51984 0.0
C2174 C 0.11901 0.10802 0.48383 0.0
H2175 H 0.13828 0.09805 0.35684 0.0
H2176 H 0.13891 0.10148 0.4214 0.0
H2177 H 0.12596 0.09565 0.39557 0.0
H2178 H 0.0969 0.11288 0.40434 0.0
H2179 H 0.08654 0.10219 0.46813 0.0
H2180 H 0.09034 0.90846 0.53934 0.0
H2181 H 0.10066 0.89759 0.6028 0.0
H2182 H 0.12142 0.88195 0.48961 0.0
H2183 H 0.11142 0.89303 0.4264 0.0
H2184 H 0.10366 0.87483 0.61909 0.0
H2185 H 0.14541 0.89533 0.57984 0.0
H2186 H 0.13216 0.90062 0.55454 0.0
H2187 H 0.13929 0.88863 0.5264 0.0
C2188 C 0.09708 0.90267 0.52809 0.0
C2189 C 0.10018 0.90168 0.47809 0.0
C2190 C 0.10296 0.89647 0.5643 0.0
C2191 C 0.11198 0.88916 0.55098 0.0
C2192 C 0.11472 0.88779 0.50083 0.0
H2193 H 0.14402 0.8372 0.7347 0.0
H2194 H 0.13244 0.84759 0.67407 0.0
C2195 C 0.10896 0.89407 0.46475 0.0
C2196 C 0.11863 0.88308 0.58947 0.0
H2197 H 0.14575 0.87909 0.63277 0.0
C2198 C 0.11286 0.87579 0.62229 0.0
C2199 C 0.13061 0.8845 0.59408 0.0
C2200 C 0.13722 0.89278 0.56218 0.0
C2201 C 0.11878 0.8697 0.65902 0.0
C2202 C 0.13081 0.87075 0.66217 0.0
C2203 C 0.13654 0.87819 0.62991 0.0
C2204 C 0.13765 0.86439 0.69918 0.0
C2205 C 0.11206 0.86238 0.69463 0.0
C2206 C 0.14466 0.87037 0.73244 0.0
C2207 C 0.1514 0.86445 0.76655 0.0
C2208 C 0.15124 0.85244 0.76802 0.0
C2209 C 0.14426 0.84646 0.73457 0.0
C2210 C 0.13757 0.85238 0.7002 0.0
H2211 H 0.10294 0.86502 0.69629 0.0
H2212 H 0.11236 0.85335 0.68211 0.0
H2213 H 0.11572 0.86283 0.73247 0.0
H2214 H 0.1449 0.87963 0.73209 0.0
H2215 H 0.15669 0.8693 0.79189 0.0
H2216 H 0.38298 0.90138 0.05939 0.0
H2217 H 0.37256 0.88972 0.99947 0.0
H2218 H 0.40242 0.88871 0.90581 0.0
H2219 H 0.41303 0.9 0.96674 0.0
H2220 H 0.3669 0.89427 0.90801 0.0
H2221 H 0.39411 0.85553 0.90822 0.0
H2222 H 0.39567 0.86673 0.9536 0.0
H2223 H 0.40204 0.86819 0.89331 0.0
C2224 C 0.38734 0.8986 0.02617 0.0
C2225 C 0.39882 0.90155 0.01773 0.0
C2226 C 0.38138 0.89194 0.99197 0.0
C2227 C 0.38675 0.88817 0.94848 0.0
C2228 C 0.39819 0.89123 0.93972 0.0
H2229 H 0.3497 0.8674 0.68578 0.0
H2230 H 0.3608 0.87748 0.74868 0.0
C2231 C 0.40422 0.89775 0.97433 0.0
C2232 C 0.38016 0.8815 0.91148 0.0
H2233 H 0.38033 0.85693 0.8433 0.0
C2234 C 0.36981 0.88607 0.89412 0.0
C2235 C 0.38386 0.87071 0.89392 0.0
C2236 C 0.39446 0.86494 0.91361 0.0
C2237 C 0.36312 0.88023 0.85923 0.0
C2238 C 0.36711 0.86972 0.8398 0.0
C2239 C 0.37736 0.86505 0.85774 0.0
C2240 C 0.36074 0.86344 0.8009 0.0
C2241 C 0.35176 0.88531 0.84443 0.0
C2242 C 0.35744 0.85202 0.80841 0.0
C2243 C 0.35129 0.84616 0.77201 0.0
C2244 C 0.34829 0.85165 0.72769 0.0
C2245 C 0.35177 0.86301 0.7199 0.0
C2246 C 0.35805 0.8688 0.75594 0.0
H2247 H 0.3484 0.89116 0.87337 0.0
H2248 H 0.35286 0.89037 0.81005 0.0
H2249 H 0.34529 0.87855 0.83746 0.0
H2250 H 0.3595 0.8477 0.84269 0.0
H2251 H 0.34874 0.8374 0.77889 0.0
H2252 H 0.38361 0.1006 0.93687 0.0
H2253 H 0.37337 0.11218 0.9976 0.0
H2254 H 0.40287 0.11147 0.09345 0.0
H2255 H 0.41332 0.10022 0.03184 0.0
H2256 H 0.3673 0.1071 0.08873 0.0
H2257 H 0.39567 0.14503 0.09362 0.0
H2258 H 0.39694 0.13406 0.04701 0.0
H2259 H 0.40311 0.132 0.10736 0.0
C2260 C 0.38794 0.10298 0.97076 0.0
C2261 C 0.39927 0.09956 0.97963 0.0
C2262 C 0.38208 0.1096 0.00541 0.0
C2263 C 0.38741 0.11286 0.04975 0.0
C2264 C 0.39869 0.10933 0.05894 0.0
H2265 H 0.35003 0.1339 0.3114 0.0
H2266 H 0.36114 0.12366 0.24901 0.0
C2267 C 0.40462 0.10283 0.02392 0.0
C2268 C 0.38092 0.11951 0.08705 0.0
H2269 H 0.3815 0.14384 0.15684 0.0
C2270 C 0.37038 0.11517 0.10341 0.0
C2271 C 0.38485 0.13012 0.10564 0.0
C2272 C 0.3957 0.13564 0.08714 0.0
C2273 C 0.36374 0.12105 0.13824 0.0
C2274 C 0.36792 0.1314 0.15854 0.0
C2275 C 0.37837 0.13584 0.14168 0.0
C2276 C 0.36155 0.13775 0.19712 0.0
C2277 C 0.3522 0.11623 0.15204 0.0
C2278 C 0.35849 0.14924 0.18959 0.0
C2279 C 0.35233 0.15519 0.22566 0.0
C2280 C 0.34907 0.14971 0.26969 0.0
C2281 C 0.3523 0.13828 0.2775 0.0
C2282 C 0.35858 0.1324 0.24176 0.0
H2283 H 0.34882 0.11049 0.12274 0.0
H2284 H 0.35304 0.11112 0.18642 0.0
H2285 H 0.34587 0.12314 0.15862 0.0
H2286 H 0.36076 0.15356 0.15553 0.0
H2287 H 0.34997 0.164 0.21877 0.0
H2288 H 0.88353 0.90666 0.46054 0.0
H2289 H 0.87391 0.89495 0.5229 0.0
H2290 H 0.90655 0.88258 0.57436 0.0
H2291 H 0.91627 0.89432 0.51216 0.0
H2292 H 0.87546 0.87055 0.536 0.0
H2293 H 0.89031 0.89511 0.70021 0.0
H2294 H 0.89088 0.90084 0.63825 0.0
H2295 H 0.90124 0.89046 0.65794 0.0
C2296 C 0.88867 0.90147 0.48522 0.0
C2297 C 0.90065 0.90144 0.48169 0.0
C2298 C 0.88316 0.89477 0.52068 0.0
C2299 C 0.88953 0.888 0.55339 0.0
C2300 C 0.9015 0.88787 0.54979 0.0
H2301 H 0.86003 0.83568 0.74764 0.0
H2302 H 0.87189 0.84551 0.68601 0.0
C2303 C 0.90703 0.89455 0.51421 0.0
C2304 C 0.88359 0.88105 0.59111 0.0
H2305 H 0.87916 0.87866 0.71539 0.0
C2306 C 0.8763 0.87226 0.57527 0.0
C2307 C 0.88468 0.8834 0.64216 0.0
C2308 C 0.89212 0.89301 0.6609 0.0
C2309 C 0.86997 0.86577 0.60926 0.0
C2310 C 0.87107 0.86812 0.66032 0.0
C2311 C 0.87843 0.87685 0.67617 0.0
C2312 C 0.8641 0.86208 0.69773 0.0
C2313 C 0.86189 0.85672 0.5903 0.0
C2314 C 0.85597 0.8682 0.72511 0.0
C2315 C 0.84923 0.86264 0.7602 0.0
C2316 C 0.85056 0.85086 0.76874 0.0
C2317 C 0.8588 0.84475 0.74164 0.0
C2318 C 0.86554 0.85034 0.70638 0.0
H2319 H 0.86046 0.85745 0.54981 0.0
H2320 H 0.86554 0.84814 0.598 0.0
H2321 H 0.8535 0.85729 0.60942 0.0
H2322 H 0.85477 0.87728 0.71897 0.0
H2323 H 0.84298 0.86757 0.7806 0.0
H2324 H 0.8423 0.13308 0.21757 0.0
H2325 H 0.85356 0.1228 0.27951 0.0
H2326 H 0.86959 0.15439 0.32378 0.0
H2327 H 0.85832 0.16478 0.2619 0.0
H2328 H 0.87819 0.1221 0.28807 0.0
H2329 H 0.85673 0.14023 0.45415 0.0
H2330 H 0.85045 0.14085 0.39319 0.0
H2331 H 0.86185 0.15041 0.40947 0.0
C2332 C 0.8482 0.13785 0.24058 0.0
C2333 C 0.84941 0.14974 0.23508 0.0
C2334 C 0.85463 0.13196 0.27582 0.0
C2335 C 0.8623 0.13786 0.3064 0.0
C2336 C 0.86359 0.14972 0.30088 0.0
H2337 H 0.91477 0.10725 0.49396 0.0
H2338 H 0.90459 0.11864 0.43188 0.0
C2339 C 0.85719 0.15563 0.26546 0.0
C2340 C 0.86902 0.13153 0.34374 0.0
H2341 H 0.87246 0.12796 0.46811 0.0
C2342 C 0.87699 0.12339 0.32745 0.0
C2343 C 0.86731 0.1332 0.39497 0.0
C2344 C 0.85857 0.14158 0.41426 0.0
C2345 C 0.88333 0.11685 0.3612 0.0
C2346 C 0.8817 0.1186 0.41244 0.0
C2347 C 0.87372 0.12672 0.42873 0.0
C2348 C 0.88791 0.11178 0.44981 0.0
C2349 C 0.89153 0.10795 0.34189 0.0
C2350 C 0.88186 0.1043 0.48079 0.0
C2351 C 0.88764 0.09781 0.51619 0.0
C2352 C 0.89956 0.09875 0.52143 0.0
C2353 C 0.90559 0.10632 0.4906 0.0
C2354 C 0.8998 0.11279 0.45505 0.0
H2355 H 0.89009 0.10609 0.30207 0.0
H2356 H 0.90042 0.11109 0.34635 0.0
H2357 H 0.89071 0.09986 0.36313 0.0
H2358 H 0.87267 0.10344 0.47732 0.0
H2359 H 0.88276 0.09208 0.53954 0.0
H2360 H 0.66341 0.13441 0.26863 0.0
H2361 H 0.65208 0.12425 0.20654 0.0
H2362 H 0.62818 0.15233 0.20179 0.0
H2363 H 0.63961 0.16265 0.26312 0.0
H2364 H 0.62975 0.11721 0.21246 0.0
H2365 H 0.63536 0.14753 0.05626 0.0
H2366 H 0.64405 0.14812 0.11137 0.0
H2367 H 0.62982 0.15396 0.11159 0.0
C2368 C 0.65578 0.13845 0.25411 0.0
C2369 C 0.65241 0.14934 0.27049 0.0
C2370 C 0.64932 0.13264 0.21872 0.0
C2371 C 0.63939 0.13761 0.19906 0.0
C2372 C 0.63595 0.14845 0.21565 0.0
H2373 H 0.58856 0.11202 0.99081 0.0
H2374 H 0.59887 0.12313 0.05354 0.0
C2375 C 0.64245 0.1543 0.25088 0.0
C2376 C 0.63248 0.13126 0.16232 0.0
H2377 H 0.62217 0.13237 0.04425 0.0
C2378 C 0.62811 0.12051 0.17565 0.0
C2379 C 0.63034 0.13562 0.11437 0.0
C2380 C 0.63522 0.14689 0.09725 0.0
C2381 C 0.62163 0.114 0.14234 0.0
C2382 C 0.61955 0.11833 0.09441 0.0
C2383 C 0.62378 0.12913 0.08118 0.0
C2384 C 0.6133 0.1116 0.05694 0.0
C2385 C 0.61696 0.10258 0.15871 0.0
C2386 C 0.6181 0.10153 0.03793 0.0
C2387 C 0.61229 0.09521 0.00207 0.0
C2388 C 0.60157 0.09887 0.98468 0.0
C2389 C 0.59679 0.10898 0.00368 0.0
C2390 C 0.60266 0.11534 0.03939 0.0
H2391 H 0.61712 0.10165 0.1996 0.0
H2392 H 0.60804 0.10141 0.14553 0.0
H2393 H 0.62226 0.09565 0.14256 0.0
H2394 H 0.62639 0.09861 0.0506 0.0
H2395 H 0.61619 0.08747 0.988 0.0
H2396 H 0.63918 0.83835 0.74063 0.0
H2397 H 0.62759 0.84877 0.80118 0.0
H2398 H 0.65155 0.8768 0.79694 0.0
H2399 H 0.66304 0.86655 0.73583 0.0
H2400 H 0.6334 0.85672 0.89405 0.0
H2401 H 0.62121 0.89273 0.77156 0.0
H2402 H 0.62746 0.87969 0.74826 0.0
H2403 H 0.63637 0.89057 0.7752 0.0
C2404 C 0.64195 0.84675 0.75254 0.0
C2405 C 0.65196 0.85168 0.7333 0.0
C2406 C 0.63533 0.85268 0.78709 0.0
C2407 C 0.63861 0.86364 0.80279 0.0
C2408 C 0.64873 0.86847 0.78437 0.0
H2409 H 0.61607 0.91298 0.01737 0.0
H2410 H 0.62618 0.90161 0.95524 0.0
C2411 C 0.65531 0.86258 0.74971 0.0
C2412 C 0.63158 0.86995 0.83922 0.0
H2413 H 0.61737 0.8951 0.8576 0.0
C2414 C 0.6298 0.86506 0.88599 0.0
C2415 C 0.62687 0.88081 0.82844 0.0
C2416 C 0.62797 0.88622 0.77798 0.0
C2417 C 0.62372 0.87092 0.92286 0.0
C2418 C 0.61925 0.88188 0.91237 0.0
C2419 C 0.62088 0.8867 0.86544 0.0
C2420 C 0.61307 0.88862 0.95003 0.0
C2421 C 0.62238 0.86551 0.97319 0.0
C2422 C 0.60232 0.88509 0.96716 0.0
C2423 C 0.59649 0.89159 0.00249 0.0
C2424 C 0.60136 0.90169 0.02118 0.0
C2425 C 0.61212 0.90521 0.00373 0.0
C2426 C 0.6179 0.89875 0.96826 0.0
H2427 H 0.62807 0.85799 0.97801 0.0
H2428 H 0.62427 0.87182 0.00278 0.0
H2429 H 0.61341 0.86264 0.97794 0.0
H2430 H 0.59841 0.87736 0.95296 0.0
H2431 H 0.5882 0.88869 0.01521 0.0
H2432 H 0.58899 0.60586 0.97779 0.0
H2433 H 0.60057 0.61636 0.91749 0.0
H2434 H 0.63097 0.59972 0.97191 0.0
H2435 H 0.61949 0.58923 0.03246 0.0
H2436 H 0.63263 0.62399 0.96288 0.0
H2437 H 0.61621 0.6034 0.7918 0.0
H2438 H 0.60541 0.60883 0.83282 0.0
H2439 H 0.61434 0.59718 0.85241 0.0
C2440 C 0.59813 0.60438 0.97665 0.0
C2441 C 0.60334 0.59671 0.00969 0.0
C2442 C 0.60471 0.61035 0.94211 0.0
C2443 C 0.61659 0.60871 0.94002 0.0
C2444 C 0.62181 0.60105 0.9729 0.0
H2445 H 0.66294 0.63206 0.7108 0.0
H2446 H 0.65244 0.62079 0.77209 0.0
C2447 C 0.61524 0.59505 0.00734 0.0
C2448 C 0.62363 0.61526 0.90457 0.0
H2449 H 0.62818 0.61961 0.78139 0.0
C2450 C 0.6317 0.62302 0.92319 0.0
C2451 C 0.62244 0.61386 0.85292 0.0
C2452 C 0.61421 0.6053 0.83111 0.0
C2453 C 0.63851 0.6296 0.89135 0.0
C2454 C 0.6371 0.62843 0.83969 0.0
C2455 C 0.62917 0.62052 0.82108 0.0
C2456 C 0.64377 0.63535 0.80419 0.0
C2457 C 0.64723 0.63766 0.91314 0.0
C2458 C 0.64233 0.64725 0.80205 0.0
C2459 C 0.6483 0.6537 0.76709 0.0
C2460 C 0.65577 0.64834 0.73367 0.0
C2461 C 0.65726 0.63643 0.73619 0.0
C2462 C 0.65127 0.62998 0.77106 0.0
H2463 H 0.64911 0.63561 0.95244 0.0
H2464 H 0.65534 0.63738 0.89181 0.0
H2465 H 0.64387 0.64653 0.91148 0.0
H2466 H 0.63643 0.65151 0.82685 0.0
H2467 H 0.64694 0.66286 0.76584 0.0
H2468 H 0.64222 0.33958 0.24753 0.0
H2469 H 0.6316 0.35103 0.18714 0.0
H2470 H 0.65641 0.37811 0.20097 0.0
H2471 H 0.66707 0.36676 0.26169 0.0
H2472 H 0.62335 0.37533 0.20875 0.0
H2473 H 0.65241 0.37077 0.04671 0.0
H2474 H 0.65202 0.3604 0.09622 0.0
H2475 H 0.65874 0.37399 0.10583 0.0
C2476 C 0.64547 0.34793 0.2374 0.0
C2477 C 0.65547 0.35229 0.25923 0.0
C2478 C 0.63939 0.35445 0.20305 0.0
C2479 C 0.64329 0.36535 0.18962 0.0
C2480 C 0.65335 0.36966 0.21072 0.0
H2481 H 0.61813 0.41551 0.9792 0.0
H2482 H 0.62934 0.40494 0.04049 0.0
C2483 C 0.6594 0.36319 0.24538 0.0
C2484 C 0.63658 0.37239 0.15493 0.0
H2485 H 0.63641 0.38282 0.03722 0.0
C2486 C 0.62617 0.37698 0.17119 0.0
C2487 C 0.64039 0.37456 0.10632 0.0
C2488 C 0.65147 0.36965 0.08731 0.0
C2489 C 0.61944 0.38381 0.14 0.0
C2490 C 0.62312 0.3858 0.09089 0.0
C2491 C 0.6336 0.38127 0.07484 0.0
C2492 C 0.61615 0.39242 0.05525 0.0
C2493 C 0.60859 0.38899 0.16027 0.0
C2494 C 0.60504 0.38884 0.0431 0.0
C2495 C 0.59859 0.39491 0.00848 0.0
C2496 C 0.60321 0.40457 0.98488 0.0
C2497 C 0.61435 0.40811 0.99691 0.0
C2498 C 0.62076 0.40208 0.03181 0.0
H2499 H 0.6088 0.38955 0.20128 0.0
H2500 H 0.60713 0.39769 0.14505 0.0
H2501 H 0.60123 0.38351 0.14984 0.0
H2502 H 0.60142 0.38125 0.05981 0.0
H2503 H 0.59007 0.39193 0.99958 0.0
H2504 H 0.88953 0.41588 0.4897 0.0
H2505 H 0.8799 0.40426 0.42702 0.0
H2506 H 0.90196 0.37581 0.46171 0.0
H2507 H 0.91161 0.38737 0.52479 0.0
H2508 H 0.88977 0.39286 0.34309 0.0
H2509 H 0.86909 0.36277 0.47508 0.0
H2510 H 0.87496 0.37635 0.49427 0.0
H2511 H 0.88429 0.36452 0.48152 0.0
C2512 C 0.89234 0.40715 0.48397 0.0
C2513 C 0.90128 0.4025 0.51226 0.0
C2514 C 0.88684 0.40054 0.44815 0.0
C2515 C 0.89014 0.38916 0.44026 0.0
C2516 C 0.89919 0.38454 0.46785 0.0
H2517 H 0.86099 0.33736 0.24454 0.0
H2518 H 0.87307 0.34757 0.30409 0.0
C2519 C 0.90472 0.39116 0.50365 0.0
C2520 C 0.88407 0.38217 0.40303 0.0
H2521 H 0.86621 0.35929 0.39007 0.0
C2522 C 0.88464 0.3855 0.35326 0.0
C2523 C 0.87743 0.37256 0.41657 0.0
C2524 C 0.87629 0.36884 0.46977 0.0
C2525 C 0.8787 0.37947 0.31652 0.0
C2526 C 0.87185 0.37002 0.33018 0.0
C2527 C 0.87147 0.36655 0.37982 0.0
C2528 C 0.86467 0.36388 0.29378 0.0
C2529 C 0.87986 0.38322 0.26336 0.0
C2530 C 0.85587 0.36966 0.26892 0.0
C2531 C 0.84897 0.36387 0.23503 0.0
C2532 C 0.85072 0.35218 0.22564 0.0
C2533 C 0.85947 0.34638 0.25096 0.0
C2534 C 0.86637 0.35218 0.28493 0.0
H2535 H 0.88773 0.38837 0.25749 0.0
H2536 H 0.88006 0.37574 0.23807 0.0
H2537 H 0.87241 0.38861 0.25326 0.0
H2538 H 0.85428 0.37863 0.27604 0.0
H2539 H 0.84227 0.36856 0.21625 0.0
H2540 H 0.84113 0.63336 0.7814 0.0
H2541 H 0.85266 0.62352 0.71903 0.0
H2542 H 0.87075 0.65485 0.68839 0.0
H2543 H 0.85917 0.66484 0.75061 0.0
H2544 H 0.85538 0.63175 0.61089 0.0
H2545 H 0.89537 0.62841 0.7222 0.0
H2546 H 0.88147 0.62978 0.75076 0.0
H2547 H 0.88788 0.64188 0.72102 0.0
C2548 C 0.84756 0.63817 0.76141 0.0
C2549 C 0.84927 0.64986 0.77085 0.0
C2550 C 0.85412 0.63253 0.72584 0.0
C2551 C 0.86256 0.63847 0.69957 0.0
C2552 C 0.8643 0.65015 0.70871 0.0
H2553 H 0.9126 0.61379 0.48622 0.0
H2554 H 0.90186 0.62527 0.54611 0.0
C2555 C 0.85767 0.65582 0.74407 0.0
C2556 C 0.86944 0.63242 0.66211 0.0
H2557 H 0.89572 0.62068 0.64183 0.0
C2558 C 0.86421 0.62934 0.61744 0.0
C2559 C 0.88095 0.6294 0.67096 0.0
C2560 C 0.88681 0.63246 0.71885 0.0
C2561 C 0.87023 0.62327 0.58108 0.0
C2562 C 0.88166 0.61994 0.59042 0.0
C2563 C 0.88694 0.6232 0.63489 0.0
C2564 C 0.88823 0.61291 0.55484 0.0
C2565 C 0.86433 0.62063 0.53276 0.0
C2566 C 0.88424 0.60207 0.54074 0.0
C2567 C 0.89031 0.59554 0.5064 0.0
C2568 C 0.90056 0.59968 0.48607 0.0
C2569 C 0.90471 0.6104 0.50124 0.0
C2570 C 0.89859 0.61696 0.53539 0.0
H2571 H 0.85709 0.62657 0.52578 0.0
H2572 H 0.87038 0.62117 0.50122 0.0
H2573 H 0.86082 0.61182 0.53418 0.0
H2574 H 0.87642 0.59866 0.55629 0.0
H2575 H 0.88695 0.58727 0.49569 0.0
H2576 H 0.3433 0.3693 0.29783 0.0
H2577 H 0.35456 0.37958 0.23583 0.0
H2578 H 0.36689 0.34752 0.17778 0.0
H2579 H 0.35561 0.33715 0.23964 0.0
H2580 H 0.37891 0.37829 0.22026 0.0
H2581 H 0.35364 0.36486 0.05588 0.0
H2582 H 0.34821 0.36373 0.11821 0.0
H2583 H 0.35844 0.35353 0.09577 0.0
C2584 C 0.34838 0.36444 0.27178 0.0
C2585 C 0.34855 0.35243 0.2734 0.0
C2586 C 0.35482 0.37032 0.23651 0.0
C2587 C 0.36144 0.36429 0.20205 0.0
C2588 C 0.36169 0.3523 0.20371 0.0
H2589 H 0.41419 0.39245 0.00966 0.0
H2590 H 0.40368 0.38139 0.07177 0.0
C2591 C 0.35529 0.34641 0.23912 0.0
C2592 C 0.36818 0.37061 0.16476 0.0
H2593 H 0.37035 0.37571 0.04088 0.0
C2594 C 0.37707 0.37773 0.18101 0.0
C2595 C 0.36565 0.3699 0.11374 0.0
C2596 C 0.35592 0.36267 0.09464 0.0
C2597 C 0.38358 0.38415 0.14741 0.0
C2598 C 0.38115 0.38332 0.09632 0.0
C2599 C 0.37222 0.37624 0.0801 0.0
C2600 C 0.38756 0.39001 0.05916 0.0
C2601 C 0.39282 0.39195 0.16681 0.0
C2602 C 0.38192 0.39837 0.03113 0.0
C2603 C 0.38788 0.40468 0.99569 0.0
C2604 C 0.39957 0.40266 0.98745 0.0
C2605 C 0.4052 0.39422 0.01539 0.0
C2606 C 0.39923 0.38794 0.05096 0.0
H2607 H 0.392 0.39342 0.20725 0.0
H2608 H 0.4013 0.38801 0.15974 0.0
H2609 H 0.39259 0.40034 0.1476 0.0
H2610 H 0.37291 0.40005 0.03689 0.0
H2611 H 0.38332 0.4111 0.97461 0.0
H2612 H 0.38462 0.58751 0.01252 0.0
H2613 H 0.37413 0.59879 0.95129 0.0
H2614 H 0.40137 0.62366 0.94925 0.0
H2615 H 0.41201 0.61232 0.00985 0.0
H2616 H 0.36642 0.62103 0.9598 0.0
H2617 H 0.39673 0.61689 0.80275 0.0
H2618 H 0.39752 0.6079 0.85691 0.0
H2619 H 0.40306 0.62224 0.85865 0.0
C2620 C 0.38841 0.59534 0.99876 0.0
C2621 C 0.39915 0.59902 0.01575 0.0
C2622 C 0.3824 0.60177 0.96386 0.0
C2623 C 0.38704 0.61197 0.94527 0.0
C2624 C 0.39775 0.61569 0.96234 0.0
H2625 H 0.3611 0.66301 0.73984 0.0
H2626 H 0.37214 0.65258 0.80229 0.0
C2627 C 0.40378 0.60924 0.99714 0.0
C2628 C 0.38048 0.61886 0.9092 0.0
H2629 H 0.38128 0.62979 0.79218 0.0
C2630 C 0.36965 0.62292 0.9231 0.0
C2631 C 0.38474 0.62133 0.86142 0.0
C2632 C 0.3961 0.61679 0.84374 0.0
C2633 C 0.36298 0.62947 0.89057 0.0
C2634 C 0.36723 0.63189 0.84279 0.0
C2635 C 0.37809 0.62793 0.82898 0.0
C2636 C 0.3604 0.63831 0.8061 0.0
C2637 C 0.35152 0.63386 0.90773 0.0
C2638 C 0.35021 0.63367 0.78749 0.0
C2639 C 0.34392 0.63958 0.75183 0.0
C2640 C 0.34773 0.65022 0.73416 0.0
C2641 C 0.35794 0.65485 0.75294 0.0
C2642 C 0.36425 0.64891 0.78848 0.0
H2643 H 0.35072 0.63361 0.94866 0.0
H2644 H 0.3501 0.64277 0.89494 0.0
H2645 H 0.34466 0.62843 0.89185 0.0
H2646 H 0.34721 0.62541 0.8001 0.0
H2647 H 0.33611 0.63578 0.73787 0.0
H2648 H 0.15998 0.63361 0.7807 0.0
H2649 H 0.14902 0.62325 0.71794 0.0
H2650 H 0.13458 0.65503 0.66643 0.0
H2651 H 0.14553 0.66548 0.72915 0.0
H2652 H 0.12432 0.62368 0.70702 0.0
H2653 H 0.14754 0.63896 0.53999 0.0
H2654 H 0.15357 0.6398 0.60138 0.0
H2655 H 0.14278 0.6498 0.58247 0.0
C2656 C 0.15453 0.63841 0.75579 0.0
C2657 C 0.15362 0.65035 0.75969 0.0
C2658 C 0.14827 0.63248 0.7201 0.0
C2659 C 0.14108 0.6384 0.68744 0.0
C2660 C 0.1402 0.65034 0.69098 0.0
H2661 H 0.08801 0.60861 0.50064 0.0
H2662 H 0.09851 0.62018 0.56113 0.0
C2663 C 0.14642 0.65628 0.72686 0.0
C2664 C 0.13428 0.63201 0.6506 0.0
H2665 H 0.13128 0.62734 0.52671 0.0
C2666 C 0.1258 0.62449 0.66757 0.0
C2667 C 0.13634 0.63305 0.59931 0.0
C2668 C 0.1456 0.64077 0.57944 0.0
C2669 C 0.11927 0.61796 0.63444 0.0
C2670 C 0.12125 0.61909 0.58311 0.0
C2671 C 0.12976 0.62659 0.56614 0.0
C2672 C 0.11487 0.61222 0.54647 0.0
C2673 C 0.11049 0.60973 0.65455 0.0
C2674 C 0.12064 0.60406 0.51784 0.0
C2675 C 0.11469 0.59746 0.48338 0.0
C2676 C 0.10287 0.59897 0.47674 0.0
C2677 C 0.09711 0.60723 0.50515 0.0
C2678 C 0.10308 0.61381 0.53977 0.0
H2679 H 0.11161 0.60823 0.69483 0.0
H2680 H 0.10181 0.6133 0.64848 0.0
H2681 H 0.11098 0.6014 0.635 0.0
H2682 H 0.12975 0.60275 0.52247 0.0
H2683 H 0.11936 0.59119 0.46189 0.0
H2684 H 0.13786 0.33795 0.23923 0.0
H2685 H 0.12618 0.34841 0.29945 0.0
H2686 H 0.15103 0.37567 0.30116 0.0
H2687 H 0.1626 0.3654 0.24047 0.0
H2688 H 0.13165 0.35566 0.39391 0.0
H2689 H 0.12138 0.39272 0.2741 0.0
H2690 H 0.12733 0.3796 0.25007 0.0
H2691 H 0.13644 0.39005 0.27894 0.0
C2692 C 0.1408 0.34619 0.25238 0.0
C2693 C 0.15109 0.3509 0.23495 0.0
C2694 C 0.13413 0.35214 0.28672 0.0
C2695 C 0.13764 0.3629 0.304 0.0
C2696 C 0.14803 0.36751 0.28735 0.0
H2697 H 0.11634 0.41212 0.52067 0.0
H2698 H 0.12609 0.40057 0.45811 0.0
C2699 C 0.15466 0.3616 0.25292 0.0
C2700 C 0.1306 0.36924 0.34032 0.0
H2701 H 0.11734 0.39483 0.36016 0.0
C2702 C 0.12841 0.36417 0.38641 0.0
C2703 C 0.12636 0.38033 0.33027 0.0
C2704 C 0.12789 0.38596 0.28048 0.0
C2705 C 0.12242 0.37008 0.42343 0.0
C2706 C 0.11846 0.38128 0.41376 0.0
C2707 C 0.12046 0.38626 0.36741 0.0
C2708 C 0.1125 0.38811 0.45178 0.0
C2709 C 0.12068 0.36447 0.4731 0.0
C2710 C 0.10159 0.38495 0.46846 0.0
C2711 C 0.09598 0.39155 0.50408 0.0
C2712 C 0.1012 0.40141 0.52348 0.0
C2713 C 0.11211 0.40456 0.50648 0.0
C2714 C 0.11769 0.39799 0.47076 0.0
H2715 H 0.12605 0.3567 0.47756 0.0
H2716 H 0.1227 0.37055 0.50345 0.0
H2717 H 0.11158 0.36193 0.47694 0.0
H2718 H 0.09739 0.37743 0.45367 0.0
H2719 H 0.08756 0.38894 0.51641 0.0
loop_
_geom_bond_atom_site_label_1
_geom_bond_atom_site_label_2
_geom_bond_distance
_geom_bond_site_symmetry_2
_ccdc_geom_bond_type
In0 O1 2.294 . S
In0 O2 2.326 . S
In0 O6 2.266 . S
In0 O7 2.326 . S
In0 O8 2.266 . S
In0 O9 2.326 . S
In0 O11 2.294 . S
In0 O12 2.326 . S
O1 In0 2.294 . S
O1 C10 1.240 . S
O2 In0 2.326 . S
O2 C10 1.252 . S
C3 O6 1.252 . S
C3 O7 1.260 . S
C4 O11 1.240 . S
C4 O12 1.252 . S
C5 O8 1.252 . S
C5 O9 1.260 . S
O6 In0 2.266 . S
O6 C3 1.252 . S
O7 In0 2.326 . S
O7 C3 1.260 . S
O8 In0 2.266 . S
O8 C5 1.252 . S
O9 In0 2.326 . S
O9 C5 1.260 . S
C10 O1 1.240 . S
C10 O2 1.252 . S
O11 In0 2.294 . S
O11 C4 1.240 . S
O12 In0 2.326 . S
O12 C4 1.252 . S
In13 O14 2.294 . S
In13 O15 2.326 . S
In13 O19 2.266 . S
In13 O20 2.326 . S
In13 O21 2.266 . S
In13 O22 2.326 . S
In13 O24 2.294 . S
In13 O25 2.326 . S
O14 In13 2.294 . S
O14 C23 1.240 . S
O15 In13 2.326 . S
O15 C23 1.252 . S
C16 O19 1.252 . S
C16 O20 1.260 . S
C17 O24 1.240 . S
C17 O25 1.252 . S
C18 O21 1.252 . S
C18 O22 1.260 . S
O19 In13 2.266 . S
O19 C16 1.252 . S
O20 In13 2.326 . S
O20 C16 1.260 . S
O21 In13 2.266 . S
O21 C18 1.252 . S
O22 In13 2.326 . S
O22 C18 1.260 . S
C23 O14 1.240 . S
C23 O15 1.252 . S
O24 In13 2.294 . S
O24 C17 1.240 . S
O25 In13 2.326 . S
O25 C17 1.252 . S
In26 O27 2.294 . S
In26 O28 2.326 . S
In26 O32 2.266 . S
In26 O33 2.326 . S
In26 O34 2.266 . S
In26 O35 2.326 . S
In26 O37 2.294 . S
In26 O38 2.326 . S
O27 In26 2.294 . S
O27 C36 1.240 . S
O28 In26 2.326 . S
O28 C36 1.252 . S
C29 O32 1.252 . S
C29 O33 1.260 . S
C30 O37 1.240 . S
C30 O38 1.252 . S
C31 O34 1.252 . S
C31 O35 1.260 . S
O32 In26 2.266 . S
O32 C29 1.252 . S
O33 In26 2.326 . S
O33 C29 1.260 . S
O34 In26 2.266 . S
O34 C31 1.252 . S
O35 In26 2.326 . S
O35 C31 1.260 . S
C36 O27 1.240 . S
C36 O28 1.252 . S
O37 In26 2.294 . S
O37 C30 1.240 . S
O38 In26 2.326 . S
O38 C30 1.252 . S
In39 O40 2.294 . S
In39 O41 2.326 . S
In39 O45 2.266 . S
In39 O46 2.326 . S
In39 O47 2.266 . S
In39 O48 2.326 . S
In39 O50 2.294 . S
In39 O51 2.326 . S
O40 In39 2.294 . S
O40 C49 1.240 . S
O41 In39 2.326 . S
O41 C49 1.252 . S
C42 O45 1.252 . S
C42 O46 1.260 . S
C43 O50 1.240 . S
C43 O51 1.252 . S
C44 O47 1.252 . S
C44 O48 1.260 . S
O45 In39 2.266 . S
O45 C42 1.252 . S
O46 In39 2.326 . S
O46 C42 1.260 . S
O47 In39 2.266 . S
O47 C44 1.252 . S
O48 In39 2.326 . S
O48 C44 1.260 . S
C49 O40 1.240 . S
C49 O41 1.252 . S
O50 In39 2.294 . S
O50 C43 1.240 . S
O51 In39 2.326 . S
O51 C43 1.252 . S
In52 O53 2.294 . S
In52 O54 2.326 . S
In52 O58 2.266 . S
In52 O59 2.326 . S
In52 O60 2.266 . S
In52 O61 2.326 . S
In52 O63 2.294 . S
In52 O64 2.326 . S
O53 In52 2.294 . S
O53 C62 1.240 . S
O54 In52 2.326 . S
O54 C62 1.252 . S
C55 O58 1.252 . S
C55 O59 1.260 . S
C56 O63 1.240 . S
C56 O64 1.252 . S
C57 O60 1.252 . S
C57 O61 1.260 . S
O58 In52 2.266 . S
O58 C55 1.252 . S
O59 In52 2.326 . S
O59 C55 1.260 . S
O60 In52 2.266 . S
O60 C57 1.252 . S
O61 In52 2.326 . S
O61 C57 1.260 . S
C62 O53 1.240 . S
C62 O54 1.252 . S
O63 In52 2.294 . S
O63 C56 1.240 . S
O64 In52 2.326 . S
O64 C56 1.252 . S
In65 O66 2.294 . S
In65 O67 2.326 . S
In65 O71 2.266 . S
In65 O72 2.326 . S
In65 O73 2.266 . S
In65 O74 2.326 . S
In65 O76 2.294 . S
In65 O77 2.326 . S
O66 In65 2.294 . S
O66 C75 1.240 . S
O67 In65 2.326 . S
O67 C75 1.252 . S
C68 O71 1.252 . S
C68 O72 1.260 . S
C69 O76 1.240 . S
C69 O77 1.252 . S
C70 O73 1.252 . S
C70 O74 1.260 . S
O71 In65 2.266 . S
O71 C68 1.252 . S
O72 In65 2.326 . S
O72 C68 1.260 . S
O73 In65 2.266 . S
O73 C70 1.252 . S
O74 In65 2.326 . S
O74 C70 1.260 . S
C75 O66 1.240 . S
C75 O67 1.252 . S
O76 In65 2.294 . S
O76 C69 1.240 . S
O77 In65 2.326 . S
O77 C69 1.252 . S
In78 O79 2.294 . S
In78 O80 2.326 . S
In78 O84 2.266 . S
In78 O85 2.326 . S
In78 O86 2.266 . S
In78 O87 2.326 . S
In78 O89 2.294 . S
In78 O90 2.326 . S
O79 In78 2.294 . S
O79 C88 1.240 . S
O80 In78 2.326 . S
O80 C88 1.252 . S
C81 O84 1.252 . S
C81 O85 1.260 . S
C82 O89 1.240 . S
C82 O90 1.252 . S
C83 O86 1.252 . S
C83 O87 1.260 . S
O84 In78 2.266 . S
O84 C81 1.252 . S
O85 In78 2.326 . S
O85 C81 1.260 . S
O86 In78 2.266 . S
O86 C83 1.252 . S
O87 In78 2.326 . S
O87 C83 1.260 . S
C88 O79 1.240 . S
C88 O80 1.252 . S
O89 In78 2.294 . S
O89 C82 1.240 . S
O90 In78 2.326 . S
O90 C82 1.252 . S
In91 O92 2.294 . S
In91 O93 2.326 . S
In91 O97 2.266 . S
In91 O98 2.326 . S
In91 O99 2.266 . S
In91 O100 2.326 . S
In91 O102 2.294 . S
In91 O103 2.326 . S
O92 In91 2.294 . S
O92 C101 1.240 . S
O93 In91 2.326 . S
O93 C101 1.252 . S
C94 O97 1.252 . S
C94 O98 1.260 . S
C95 O102 1.240 . S
C95 O103 1.252 . S
C96 O99 1.252 . S
C96 O100 1.260 . S
O97 In91 2.266 . S
O97 C94 1.252 . S
O98 In91 2.326 . S
O98 C94 1.260 . S
O99 In91 2.266 . S
O99 C96 1.252 . S
O100 In91 2.326 . S
O100 C96 1.260 . S
C101 O92 1.240 . S
C101 O93 1.252 . S
O102 In91 2.294 . S
O102 C95 1.240 . S
O103 In91 2.326 . S
O103 C95 1.252 . S
In104 O105 2.294 . S
In104 O106 2.326 . S
In104 O110 2.266 . S
In104 O111 2.326 . S
In104 O112 2.266 . S
In104 O113 2.326 . S
In104 O115 2.294 . S
In104 O116 2.326 . S
O105 In104 2.294 . S
O105 C114 1.240 . S
O106 In104 2.326 . S
O106 C114 1.252 . S
C107 O110 1.252 . S
C107 O111 1.260 . S
C108 O115 1.240 . S
C108 O116 1.252 . S
C109 O112 1.252 . S
C109 O113 1.260 . S
O110 In104 2.266 . S
O110 C107 1.252 . S
O111 In104 2.326 . S
O111 C107 1.260 . S
O112 In104 2.266 . S
O112 C109 1.252 . S
O113 In104 2.326 . S
O113 C109 1.260 . S
C114 O105 1.240 . S
C114 O106 1.252 . S
O115 In104 2.294 . S
O115 C108 1.240 . S
O116 In104 2.326 . S
O116 C108 1.252 . S
In117 O118 2.294 . S
In117 O119 2.326 . S
In117 O123 2.266 . S
In117 O124 2.326 . S
In117 O125 2.266 . S
In117 O126 2.326 . S
In117 O128 2.294 . S
In117 O129 2.326 . S
O118 In117 2.294 . S
O118 C127 1.240 . S
O119 In117 2.326 . S
O119 C127 1.252 . S
C120 O123 1.252 . S
C120 O124 1.260 . S
C121 O128 1.240 . S
C121 O129 1.252 . S
C122 O125 1.252 . S
C122 O126 1.260 . S
O123 In117 2.266 . S
O123 C120 1.252 . S
O124 In117 2.326 . S
O124 C120 1.260 . S
O125 In117 2.266 . S
O125 C122 1.252 . S
O126 In117 2.326 . S
O126 C122 1.260 . S
C127 O118 1.240 . S
C127 O119 1.252 . S
O128 In117 2.294 . S
O128 C121 1.240 . S
O129 In117 2.326 . S
O129 C121 1.252 . S
In130 O131 2.294 . S
In130 O132 2.326 . S
In130 O136 2.266 . S
In130 O137 2.326 . S
In130 O138 2.266 . S
In130 O139 2.326 . S
In130 O141 2.294 . S
In130 O142 2.326 . S
O131 In130 2.294 . S
O131 C140 1.240 . S
O132 In130 2.326 . S
O132 C140 1.252 . S
C133 O136 1.252 . S
C133 O137 1.260 . S
C134 O141 1.240 . S
C134 O142 1.252 . S
C135 O138 1.252 . S
C135 O139 1.260 . S
O136 In130 2.266 . S
O136 C133 1.252 . S
O137 In130 2.326 . S
O137 C133 1.260 . S
O138 In130 2.266 . S
O138 C135 1.252 . S
O139 In130 2.326 . S
O139 C135 1.260 . S
C140 O131 1.240 . S
C140 O132 1.252 . S
O141 In130 2.294 . S
O141 C134 1.240 . S
O142 In130 2.326 . S
O142 C134 1.252 . S
In143 O144 2.294 . S
In143 O145 2.326 . S
In143 O149 2.266 . S
In143 O150 2.326 . S
In143 O151 2.266 . S
In143 O152 2.326 . S
In143 O154 2.294 . S
In143 O155 2.326 . S
O144 In143 2.294 . S
O144 C153 1.240 . S
O145 In143 2.326 . S
O145 C153 1.252 . S
C146 O149 1.252 . S
C146 O150 1.260 . S
C147 O154 1.240 . S
C147 O155 1.252 . S
C148 O151 1.252 . S
C148 O152 1.260 . S
O149 In143 2.266 . S
O149 C146 1.252 . S
O150 In143 2.326 . S
O150 C146 1.260 . S
O151 In143 2.266 . S
O151 C148 1.252 . S
O152 In143 2.326 . S
O152 C148 1.260 . S
C153 O144 1.240 . S
C153 O145 1.252 . S
O154 In143 2.294 . S
O154 C147 1.240 . S
O155 In143 2.326 . S
O155 C147 1.252 . S
In156 O157 2.294 . S
In156 O158 2.326 . S
In156 O162 2.266 . S
In156 O163 2.326 . S
In156 O164 2.266 . S
In156 O165 2.326 . S
In156 O167 2.294 . S
In156 O168 2.326 . S
O157 In156 2.294 . S
O157 C166 1.240 . S
O158 In156 2.326 . S
O158 C166 1.252 . S
C159 O162 1.252 . S
C159 O163 1.260 . S
C160 O167 1.240 . S
C160 O168 1.252 . S
C161 O164 1.252 . S
C161 O165 1.260 . S
O162 In156 2.266 . S
O162 C159 1.252 . S
O163 In156 2.326 . S
O163 C159 1.260 . S
O164 In156 2.266 . S
O164 C161 1.252 . S
O165 In156 2.326 . S
O165 C161 1.260 . S
C166 O157 1.240 . S
C166 O158 1.252 . S
O167 In156 2.294 . S
O167 C160 1.240 . S
O168 In156 2.326 . S
O168 C160 1.252 . S
In169 O170 2.294 . S
In169 O171 2.326 . S
In169 O175 2.266 . S
In169 O176 2.326 . S
In169 O177 2.266 . S
In169 O178 2.326 . S
In169 O180 2.294 . S
In169 O181 2.326 . S
O170 In169 2.294 . S
O170 C179 1.240 . S
O171 In169 2.326 . S
O171 C179 1.252 . S
C172 O175 1.252 . S
C172 O176 1.260 . S
C173 O180 1.240 . S
C173 O181 1.252 . S
C174 O177 1.252 . S
C174 O178 1.260 . S
O175 In169 2.266 . S
O175 C172 1.252 . S
O176 In169 2.326 . S
O176 C172 1.260 . S
O177 In169 2.266 . S
O177 C174 1.252 . S
O178 In169 2.326 . S
O178 C174 1.260 . S
C179 O170 1.240 . S
C179 O171 1.252 . S
O180 In169 2.294 . S
O180 C173 1.240 . S
O181 In169 2.326 . S
O181 C173 1.252 . S
In182 O183 2.294 . S
In182 O184 2.326 . S
In182 O188 2.266 . S
In182 O189 2.326 . S
In182 O190 2.266 . S
In182 O191 2.326 . S
In182 O193 2.294 . S
In182 O194 2.326 . S
O183 In182 2.294 . S
O183 C192 1.240 . S
O184 In182 2.326 . S
O184 C192 1.252 . S
C185 O188 1.252 . S
C185 O189 1.260 . S
C186 O193 1.240 . S
C186 O194 1.252 . S
C187 O190 1.252 . S
C187 O191 1.260 . S
O188 In182 2.266 . S
O188 C185 1.252 . S
O189 In182 2.326 . S
O189 C185 1.260 . S
O190 In182 2.266 . S
O190 C187 1.252 . S
O191 In182 2.326 . S
O191 C187 1.260 . S
C192 O183 1.240 . S
C192 O184 1.252 . S
O193 In182 2.294 . S
O193 C186 1.240 . S
O194 In182 2.326 . S
O194 C186 1.252 . S
In195 O196 2.294 . S
In195 O197 2.326 . S
In195 O201 2.266 . S
In195 O202 2.326 . S
In195 O203 2.266 . S
In195 O204 2.326 . S
In195 O206 2.294 . S
In195 O207 2.326 . S
O196 In195 2.294 . S
O196 C205 1.240 . S
O197 In195 2.326 . S
O197 C205 1.252 . S
C198 O201 1.252 . S
C198 O202 1.260 . S
C199 O206 1.240 . S
C199 O207 1.252 . S
C200 O203 1.252 . S
C200 O204 1.260 . S
O201 In195 2.266 . S
O201 C198 1.252 . S
O202 In195 2.326 . S
O202 C198 1.260 . S
O203 In195 2.266 . S
O203 C200 1.252 . S
O204 In195 2.326 . S
O204 C200 1.260 . S
C205 O196 1.240 . S
C205 O197 1.252 . S
O206 In195 2.294 . S
O206 C199 1.240 . S
O207 In195 2.326 . S
O207 C199 1.252 . S
In208 O209 2.294 . S
In208 O210 2.326 . S
In208 O214 2.266 . S
In208 O215 2.326 . S
In208 O216 2.266 . S
In208 O217 2.326 . S
In208 O219 2.294 . S
In208 O220 2.326 . S
O209 In208 2.294 . S
O209 C218 1.240 . S
O210 In208 2.326 . S
O210 C218 1.252 . S
C211 O214 1.252 . S
C211 O215 1.260 . S
C212 O219 1.240 . S
C212 O220 1.252 . S
C213 O216 1.252 . S
C213 O217 1.260 . S
O214 In208 2.266 . S
O214 C211 1.252 . S
O215 In208 2.326 . S
O215 C211 1.260 . S
O216 In208 2.266 . S
O216 C213 1.252 . S
O217 In208 2.326 . S
O217 C213 1.260 . S
C218 O209 1.240 . S
C218 O210 1.252 . S
O219 In208 2.294 . S
O219 C212 1.240 . S
O220 In208 2.326 . S
O220 C212 1.252 . S
In221 O222 2.294 . S
In221 O223 2.326 . S
In221 O227 2.266 . S
In221 O228 2.326 . S
In221 O229 2.266 . S
In221 O230 2.326 . S
In221 O232 2.294 . S
In221 O233 2.326 . S
O222 In221 2.294 . S
O222 C231 1.240 . S
O223 In221 2.326 . S
O223 C231 1.252 . S
C224 O227 1.252 . S
C224 O228 1.260 . S
C225 O232 1.240 . S
C225 O233 1.252 . S
C226 O229 1.252 . S
C226 O230 1.260 . S
O227 In221 2.266 . S
O227 C224 1.252 . S
O228 In221 2.326 . S
O228 C224 1.260 . S
O229 In221 2.266 . S
O229 C226 1.252 . S
O230 In221 2.326 . S
O230 C226 1.260 . S
C231 O222 1.240 . S
C231 O223 1.252 . S
O232 In221 2.294 . S
O232 C225 1.240 . S
O233 In221 2.326 . S
O233 C225 1.252 . S
In234 O235 2.294 . S
In234 O236 2.326 . S
In234 O240 2.266 . S
In234 O241 2.326 . S
In234 O242 2.266 . S
In234 O243 2.326 . S
In234 O245 2.294 . S
In234 O246 2.326 . S
O235 In234 2.294 . S
O235 C244 1.240 . S
O236 In234 2.326 . S
O236 C244 1.252 . S
C237 O240 1.252 . S
C237 O241 1.260 . S
C238 O245 1.240 . S
C238 O246 1.252 . S
C239 O242 1.252 . S
C239 O243 1.260 . S
O240 In234 2.266 . S
O240 C237 1.252 . S
O241 In234 2.326 . S
O241 C237 1.260 . S
O242 In234 2.266 . S
O242 C239 1.252 . S
O243 In234 2.326 . S
O243 C239 1.260 . S
C244 O235 1.240 . S
C244 O236 1.252 . S
O245 In234 2.294 . S
O245 C238 1.240 . S
O246 In234 2.326 . S
O246 C238 1.252 . S
In247 O248 2.294 . S
In247 O249 2.326 . S
In247 O253 2.266 . S
In247 O254 2.326 . S
In247 O255 2.266 . S
In247 O256 2.326 . S
In247 O258 2.294 . S
In247 O259 2.326 . S
O248 In247 2.294 . S
O248 C257 1.240 . S
O249 In247 2.326 . S
O249 C257 1.252 . S
C250 O253 1.252 . S
C250 O254 1.260 . S
C251 O258 1.240 . S
C251 O259 1.252 . S
C252 O255 1.252 . S
C252 O256 1.260 . S
O253 In247 2.266 . S
O253 C250 1.252 . S
O254 In247 2.326 . S
O254 C250 1.260 . S
O255 In247 2.266 . S
O255 C252 1.252 . S
O256 In247 2.326 . S
O256 C252 1.260 . S
C257 O248 1.240 . S
C257 O249 1.252 . S
O258 In247 2.294 . S
O258 C251 1.240 . S
O259 In247 2.326 . S
O259 C251 1.252 . S
In260 O261 2.294 . S
In260 O262 2.326 . S
In260 O266 2.266 . S
In260 O267 2.326 . S
In260 O268 2.266 . S
In260 O269 2.326 . S
In260 O271 2.294 . S
In260 O272 2.326 . S
O261 In260 2.294 . S
O261 C270 1.240 . S
O262 In260 2.326 . S
O262 C270 1.252 . S
C263 O266 1.252 . S
C263 O267 1.260 . S
C264 O271 1.240 . S
C264 O272 1.252 . S
C265 O268 1.252 . S
C265 O269 1.260 . S
O266 In260 2.266 . S
O266 C263 1.252 . S
O267 In260 2.326 . S
O267 C263 1.260 . S
O268 In260 2.266 . S
O268 C265 1.252 . S
O269 In260 2.326 . S
O269 C265 1.260 . S
C270 O261 1.240 . S
C270 O262 1.252 . S
O271 In260 2.294 . S
O271 C264 1.240 . S
O272 In260 2.326 . S
O272 C264 1.252 . S
In273 O274 2.294 . S
In273 O275 2.326 . S
In273 O279 2.266 . S
In273 O280 2.326 . S
In273 O281 2.266 . S
In273 O282 2.326 . S
In273 O284 2.294 . S
In273 O285 2.326 . S
O274 In273 2.294 . S
O274 C283 1.240 . S
O275 In273 2.326 . S
O275 C283 1.252 . S
C276 O279 1.252 . S
C276 O280 1.260 . S
C277 O284 1.240 . S
C277 O285 1.252 . S
C278 O281 1.252 . S
C278 O282 1.260 . S
O279 In273 2.266 . S
O279 C276 1.252 . S
O280 In273 2.326 . S
O280 C276 1.260 . S
O281 In273 2.266 . S
O281 C278 1.252 . S
O282 In273 2.326 . S
O282 C278 1.260 . S
C283 O274 1.240 . S
C283 O275 1.252 . S
O284 In273 2.294 . S
O284 C277 1.240 . S
O285 In273 2.326 . S
O285 C277 1.252 . S
In286 O287 2.294 . S
In286 O288 2.326 . S
In286 O292 2.266 . S
In286 O293 2.326 . S
In286 O294 2.266 . S
In286 O295 2.326 . S
In286 O297 2.294 . S
In286 O298 2.326 . S
O287 In286 2.294 . S
O287 C296 1.240 . S
O288 In286 2.326 . S
O288 C296 1.252 . S
C289 O292 1.252 . S
C289 O293 1.260 . S
C290 O297 1.240 . S
C290 O298 1.252 . S
C291 O294 1.252 . S
C291 O295 1.260 . S
O292 In286 2.266 . S
O292 C289 1.252 . S
O293 In286 2.326 . S
O293 C289 1.260 . S
O294 In286 2.266 . S
O294 C291 1.252 . S
O295 In286 2.326 . S
O295 C291 1.260 . S
C296 O287 1.240 . S
C296 O288 1.252 . S
O297 In286 2.294 . S
O297 C290 1.240 . S
O298 In286 2.326 . S
O298 C290 1.252 . S
In299 O300 2.294 . S
In299 O301 2.326 . S
In299 O305 2.266 . S
In299 O306 2.326 . S
In299 O307 2.266 . S
In299 O308 2.326 . S
In299 O310 2.294 . S
In299 O311 2.326 . S
O300 In299 2.294 . S
O300 C309 1.240 . S
O301 In299 2.326 . S
O301 C309 1.252 . S
C302 O305 1.252 . S
C302 O306 1.260 . S
C303 O310 1.240 . S
C303 O311 1.252 . S
C304 O307 1.252 . S
C304 O308 1.260 . S
O305 In299 2.266 . S
O305 C302 1.252 . S
O306 In299 2.326 . S
O306 C302 1.260 . S
O307 In299 2.266 . S
O307 C304 1.252 . S
O308 In299 2.326 . S
O308 C304 1.260 . S
C309 O300 1.240 . S
C309 O301 1.252 . S
O310 In299 2.294 . S
O310 C303 1.240 . S
O311 In299 2.326 . S
O311 C303 1.252 . S
In312 O313 2.294 . S
In312 O314 2.326 . S
In312 O318 2.266 . S
In312 O319 2.326 . S
In312 O320 2.266 . S
In312 O321 2.326 . S
In312 O323 2.294 . S
In312 O324 2.326 . S
O313 In312 2.294 . S
O313 C322 1.240 . S
O314 In312 2.326 . S
O314 C322 1.252 . S
C315 O318 1.252 . S
C315 O319 1.260 . S
C316 O323 1.240 . S
C316 O324 1.252 . S
C317 O320 1.252 . S
C317 O321 1.260 . S
O318 In312 2.266 . S
O318 C315 1.252 . S
O319 In312 2.326 . S
O319 C315 1.260 . S
O320 In312 2.266 . S
O320 C317 1.252 . S
O321 In312 2.326 . S
O321 C317 1.260 . S
C322 O313 1.240 . S
C322 O314 1.252 . S
O323 In312 2.294 . S
O323 C316 1.240 . S
O324 In312 2.326 . S
O324 C316 1.252 . S
In325 O326 2.294 . S
In325 O327 2.326 . S
In325 O331 2.266 . S
In325 O332 2.326 . S
In325 O333 2.266 . S
In325 O334 2.326 . S
In325 O336 2.294 . S
In325 O337 2.326 . S
O326 In325 2.294 . S
O326 C335 1.240 . S
O327 In325 2.326 . S
O327 C335 1.252 . S
C328 O331 1.252 . S
C328 O332 1.260 . S
C329 O336 1.240 . S
C329 O337 1.252 . S
C330 O333 1.252 . S
C330 O334 1.260 . S
O331 In325 2.266 . S
O331 C328 1.252 . S
O332 In325 2.326 . S
O332 C328 1.260 . S
O333 In325 2.266 . S
O333 C330 1.252 . S
O334 In325 2.326 . S
O334 C330 1.260 . S
C335 O326 1.240 . S
C335 O327 1.252 . S
O336 In325 2.294 . S
O336 C329 1.240 . S
O337 In325 2.326 . S
O337 C329 1.252 . S
In338 O339 2.294 . S
In338 O340 2.326 . S
In338 O344 2.266 . S
In338 O345 2.326 . S
In338 O346 2.266 . S
In338 O347 2.326 . S
In338 O349 2.294 . S
In338 O350 2.326 . S
O339 In338 2.294 . S
O339 C348 1.240 . S
O340 In338 2.326 . S
O340 C348 1.252 . S
C341 O344 1.252 . S
C341 O345 1.260 . S
C342 O349 1.240 . S
C342 O350 1.252 . S
C343 O346 1.252 . S
C343 O347 1.260 . S
O344 In338 2.266 . S
O344 C341 1.252 . S
O345 In338 2.326 . S
O345 C341 1.260 . S
O346 In338 2.266 . S
O346 C343 1.252 . S
O347 In338 2.326 . S
O347 C343 1.260 . S
C348 O339 1.240 . S
C348 O340 1.252 . S
O349 In338 2.294 . S
O349 C342 1.240 . S
O350 In338 2.326 . S
O350 C342 1.252 . S
In351 O352 2.294 . S
In351 O353 2.326 . S
In351 O357 2.266 . S
In351 O358 2.326 . S
In351 O359 2.266 . S
In351 O360 2.326 . S
In351 O362 2.294 . S
In351 O363 2.326 . S
O352 In351 2.294 . S
O352 C361 1.240 . S
O353 In351 2.326 . S
O353 C361 1.252 . S
C354 O357 1.252 . S
C354 O358 1.260 . S
C355 O362 1.240 . S
C355 O363 1.252 . S
C356 O359 1.252 . S
C356 O360 1.260 . S
O357 In351 2.266 . S
O357 C354 1.252 . S
O358 In351 2.326 . S
O358 C354 1.260 . S
O359 In351 2.266 . S
O359 C356 1.252 . S
O360 In351 2.326 . S
O360 C356 1.260 . S
C361 O352 1.240 . S
C361 O353 1.252 . S
O362 In351 2.294 . S
O362 C355 1.240 . S
O363 In351 2.326 . S
O363 C355 1.252 . S
In364 O365 2.294 . S
In364 O366 2.326 . S
In364 O370 2.266 . S
In364 O371 2.326 . S
In364 O372 2.266 . S
In364 O373 2.326 . S
In364 O375 2.294 . S
In364 O376 2.326 . S
O365 In364 2.294 . S
O365 C374 1.240 . S
O366 In364 2.326 . S
O366 C374 1.252 . S
C367 O370 1.252 . S
C367 O371 1.260 . S
C368 O375 1.240 . S
C368 O376 1.252 . S
C369 O372 1.252 . S
C369 O373 1.260 . S
O370 In364 2.266 . S
O370 C367 1.252 . S
O371 In364 2.326 . S
O371 C367 1.260 . S
O372 In364 2.266 . S
O372 C369 1.252 . S
O373 In364 2.326 . S
O373 C369 1.260 . S
C374 O365 1.240 . S
C374 O366 1.252 . S
O375 In364 2.294 . S
O375 C368 1.240 . S
O376 In364 2.326 . S
O376 C368 1.252 . S
In377 O378 2.294 . S
In377 O379 2.326 . S
In377 O383 2.266 . S
In377 O384 2.326 . S
In377 O385 2.266 . S
In377 O386 2.326 . S
In377 O388 2.294 . S
In377 O389 2.326 . S
O378 In377 2.294 . S
O378 C387 1.240 . S
O379 In377 2.326 . S
O379 C387 1.252 . S
C380 O383 1.252 . S
C380 O384 1.260 . S
C381 O388 1.240 . S
C381 O389 1.252 . S
C382 O385 1.252 . S
C382 O386 1.260 . S
O383 In377 2.266 . S
O383 C380 1.252 . S
O384 In377 2.326 . S
O384 C380 1.260 . S
O385 In377 2.266 . S
O385 C382 1.252 . S
O386 In377 2.326 . S
O386 C382 1.260 . S
C387 O378 1.240 . S
C387 O379 1.252 . S
O388 In377 2.294 . S
O388 C381 1.240 . S
O389 In377 2.326 . S
O389 C381 1.252 . S
In390 O391 2.294 . S
In390 O392 2.326 . S
In390 O396 2.266 . S
In390 O397 2.326 . S
In390 O398 2.266 . S
In390 O399 2.326 . S
In390 O401 2.294 . S
In390 O402 2.326 . S
O391 In390 2.294 . S
O391 C400 1.240 . S
O392 In390 2.326 . S
O392 C400 1.252 . S
C393 O396 1.252 . S
C393 O397 1.260 . S
C394 O401 1.240 . S
C394 O402 1.252 . S
C395 O398 1.252 . S
C395 O399 1.260 . S
O396 In390 2.266 . S
O396 C393 1.252 . S
O397 In390 2.326 . S
O397 C393 1.260 . S
O398 In390 2.266 . S
O398 C395 1.252 . S
O399 In390 2.326 . S
O399 C395 1.260 . S
C400 O391 1.240 . S
C400 O392 1.252 . S
O401 In390 2.294 . S
O401 C394 1.240 . S
O402 In390 2.326 . S
O402 C394 1.252 . S
In403 O404 2.294 . S
In403 O405 2.326 . S
In403 O409 2.266 . S
In403 O410 2.326 . S
In403 O411 2.266 . S
In403 O412 2.326 . S
In403 O414 2.294 . S
In403 O415 2.326 . S
O404 In403 2.294 . S
O404 C413 1.240 . S
O405 In403 2.326 . S
O405 C413 1.252 . S
C406 O409 1.252 . S
C406 O410 1.260 . S
C407 O414 1.240 . S
C407 O415 1.252 . S
C408 O411 1.252 . S
C408 O412 1.260 . S
O409 In403 2.266 . S
O409 C406 1.252 . S
O410 In403 2.326 . S
O410 C406 1.260 . S
O411 In403 2.266 . S
O411 C408 1.252 . S
O412 In403 2.326 . S
O412 C408 1.260 . S
C413 O404 1.240 . S
C413 O405 1.252 . S
O414 In403 2.294 . S
O414 C407 1.240 . S
O415 In403 2.326 . S
O415 C407 1.252 . S
H416 C424 0.929 . S
H417 C426 0.930 . S
H418 C428 0.930 . S
H419 C431 0.929 . S
H420 C434 0.930 . S
H421 C436 0.960 . S
H422 C436 0.960 . S
H423 C436 0.960 . S
C424 H416 0.929 . S
C424 C425 1.377 . S
C424 C426 1.384 . S
C425 C424 1.377 . S
C425 C431 1.390 . S
C426 H417 0.930 . S
C426 C424 1.384 . S
C426 C427 1.372 . S
C427 C426 1.372 . S
C427 C428 1.400 . S
C427 C432 1.490 . S
C428 H418 0.930 . S
C428 C427 1.400 . S
C428 C431 1.386 . S
H429 C445 0.930 . S
H430 C446 0.931 . S
C431 H419 0.929 . S
C431 C425 1.390 . S
C431 C428 1.386 . S
C432 C427 1.490 . S
C432 C434 1.395 . S
C432 C435 1.403 . S
H433 C439 0.930 . S
C434 H420 0.930 . S
C434 C432 1.395 . S
C434 C437 1.403 . S
C435 C432 1.403 . S
C435 C436 1.524 . S
C435 C439 1.400 . S
C436 H421 0.960 . S
C436 H422 0.960 . S
C436 H423 0.960 . S
C436 C435 1.524 . S
C437 C434 1.403 . S
C437 C438 1.392 . S
C437 C441 1.495 . S
C438 C437 1.392 . S
C438 C439 1.385 . S
C438 C440 1.478 . S
C439 H433 0.930 . S
C439 C435 1.400 . S
C439 C438 1.385 . S
C440 C438 1.478 . S
C440 C442 1.381 . S
C440 C446 1.383 . S
C441 C437 1.495 . S
C441 H447 0.959 . S
C441 H448 0.961 . S
C441 H449 0.960 . S
C442 C440 1.381 . S
C442 C443 1.394 . S
C442 H450 0.930 . S
C443 C442 1.394 . S
C443 C444 1.383 . S
C443 H451 0.929 . S
C444 C443 1.383 . S
C444 C445 1.377 . S
C445 H429 0.930 . S
C445 C444 1.377 . S
C445 C446 1.379 . S
C446 H430 0.931 . S
C446 C440 1.383 . S
C446 C445 1.379 . S
H447 C441 0.959 . S
H448 C441 0.961 . S
H449 C441 0.960 . S
H450 C442 0.930 . S
H451 C443 0.929 . S
H452 C460 0.929 . S
H453 C462 0.930 . S
H454 C464 0.930 . S
H455 C467 0.929 . S
H456 C470 0.930 . S
H457 C472 0.960 . S
H458 C472 0.960 . S
H459 C472 0.960 . S
C460 H452 0.929 . S
C460 C461 1.377 . S
C460 C462 1.384 . S
C461 C460 1.377 . S
C461 C467 1.390 . S
C462 H453 0.930 . S
C462 C460 1.384 . S
C462 C463 1.372 . S
C463 C462 1.372 . S
C463 C464 1.400 . S
C463 C468 1.490 . S
C464 H454 0.930 . S
C464 C463 1.400 . S
C464 C467 1.386 . S
H465 C481 0.930 . S
H466 C482 0.931 . S
C467 H455 0.929 . S
C467 C461 1.390 . S
C467 C464 1.386 . S
C468 C463 1.490 . S
C468 C470 1.395 . S
C468 C471 1.403 . S
H469 C475 0.930 . S
C470 H456 0.930 . S
C470 C468 1.395 . S
C470 C473 1.403 1_565 S
C471 C468 1.403 . S
C471 C472 1.524 . S
C471 C475 1.400 1_565 S
C472 H457 0.960 . S
C472 H458 0.960 . S
C472 H459 0.960 . S
C472 C471 1.524 . S
C473 C470 1.403 1_545 S
C473 C474 1.392 . S
C473 C477 1.495 . S
C474 C473 1.392 . S
C474 C475 1.385 . S
C474 C476 1.478 . S
C475 H469 0.930 . S
C475 C471 1.400 1_545 S
C475 C474 1.385 . S
C476 C474 1.478 . S
C476 C478 1.381 . S
C476 C482 1.383 . S
C477 C473 1.495 . S
C477 H483 0.959 . S
C477 H484 0.961 . S
C477 H485 0.960 . S
C478 C476 1.381 . S
C478 C479 1.394 . S
C478 H486 0.930 . S
C479 C478 1.394 . S
C479 C480 1.383 . S
C479 H487 0.929 . S
C480 C479 1.383 . S
C480 C481 1.377 . S
C481 H465 0.930 . S
C481 C480 1.377 . S
C481 C482 1.379 . S
C482 H466 0.931 . S
C482 C476 1.383 . S
C482 C481 1.379 . S
H483 C477 0.959 . S
H484 C477 0.961 . S
H485 C477 0.960 . S
H486 C478 0.930 . S
H487 C479 0.929 . S
H488 C496 0.929 . S
H489 C498 0.930 . S
H490 C500 0.930 . S
H491 C503 0.929 . S
H492 C506 0.930 . S
H493 C508 0.960 . S
H494 C508 0.960 . S
H495 C508 0.960 . S
C496 H488 0.929 . S
C496 C497 1.377 . S
C496 C498 1.384 . S
C497 C496 1.377 . S
C497 C503 1.390 . S
C498 H489 0.930 . S
C498 C496 1.384 . S
C498 C499 1.372 . S
C499 C498 1.372 . S
C499 C500 1.400 . S
C499 C504 1.490 . S
C500 H490 0.930 . S
C500 C499 1.400 . S
C500 C503 1.386 . S
H501 C517 0.930 . S
H502 C518 0.931 . S
C503 H491 0.929 . S
C503 C497 1.390 . S
C503 C500 1.386 . S
C504 C499 1.490 . S
C504 C506 1.395 . S
C504 C507 1.403 . S
H505 C511 0.930 . S
C506 H492 0.930 . S
C506 C504 1.395 . S
C506 C509 1.403 . S
C507 C504 1.403 . S
C507 C508 1.524 . S
C507 C511 1.400 . S
C508 H493 0.960 . S
C508 H494 0.960 . S
C508 H495 0.960 . S
C508 C507 1.524 . S
C509 C506 1.403 . S
C509 C510 1.392 . S
C509 C513 1.495 . S
C510 C509 1.392 . S
C510 C511 1.385 . S
C510 C512 1.478 . S
C511 H505 0.930 . S
C511 C507 1.400 . S
C511 C510 1.385 . S
C512 C510 1.478 . S
C512 C514 1.381 . S
C512 C518 1.383 . S
C513 C509 1.495 . S
C513 H519 0.959 . S
C513 H520 0.961 . S
C513 H521 0.960 . S
C514 C512 1.381 . S
C514 C515 1.394 . S
C514 H522 0.930 . S
C515 C514 1.394 . S
C515 C516 1.383 . S
C515 H523 0.929 . S
C516 C515 1.383 . S
C516 C517 1.377 . S
C517 H501 0.930 . S
C517 C516 1.377 . S
C517 C518 1.379 . S
C518 H502 0.931 . S
C518 C512 1.383 . S
C518 C517 1.379 . S
H519 C513 0.959 . S
H520 C513 0.961 . S
H521 C513 0.960 . S
H522 C514 0.930 . S
H523 C515 0.929 . S
H524 C532 0.929 . S
H525 C534 0.930 . S
H526 C536 0.930 1_554 S
H527 C539 0.929 . S
H528 C542 0.930 . S
H529 C544 0.960 . S
H530 C544 0.960 . S
H531 C544 0.960 . S
C532 H524 0.929 . S
C532 C533 1.377 . S
C532 C534 1.384 . S
C533 C532 1.377 . S
C533 C539 1.390 . S
C534 H525 0.930 . S
C534 C532 1.384 . S
C534 C535 1.372 . S
C535 C534 1.372 . S
C535 C536 1.400 . S
C535 C540 1.490 . S
C536 H526 0.930 1_556 S
C536 C535 1.400 . S
C536 C539 1.386 . S
H537 C553 0.930 . S
H538 C554 0.931 . S
C539 H527 0.929 . S
C539 C533 1.390 . S
C539 C536 1.386 . S
C540 C535 1.490 . S
C540 C542 1.395 . S
C540 C543 1.403 1_556 S
H541 C547 0.930 . S
C542 H528 0.930 . S
C542 C540 1.395 . S
C542 C545 1.403 1_545 S
C543 C540 1.403 1_554 S
C543 C544 1.524 . S
C543 C547 1.400 1_545 S
C544 H529 0.960 . S
C544 H530 0.960 . S
C544 H531 0.960 . S
C544 C543 1.524 . S
C545 C542 1.403 1_565 S
C545 C546 1.392 1_556 S
C545 C549 1.495 . S
C546 C545 1.392 1_554 S
C546 C547 1.385 . S
C546 C548 1.478 . S
C547 H541 0.930 . S
C547 C543 1.400 1_565 S
C547 C546 1.385 . S
C548 C546 1.478 . S
C548 C550 1.381 . S
C548 C554 1.383 . S
C549 C545 1.495 . S
C549 H555 0.959 . S
C549 H556 0.961 . S
C549 H557 0.960 . S
C550 C548 1.381 . S
C550 C551 1.394 . S
C550 H558 0.930 1_554 S
C551 C550 1.394 . S
C551 C552 1.383 . S
C551 H559 0.929 . S
C552 C551 1.383 . S
C552 C553 1.377 . S
C553 H537 0.930 . S
C553 C552 1.377 . S
C553 C554 1.379 . S
C554 H538 0.931 . S
C554 C548 1.383 . S
C554 C553 1.379 . S
H555 C549 0.959 . S
H556 C549 0.961 . S
H557 C549 0.960 . S
H558 C550 0.930 1_556 S
H559 C551 0.929 . S
H560 C568 0.929 . S
H561 C570 0.930 . S
H562 C572 0.930 . S
H563 C575 0.929 . S
H564 C578 0.930 . S
H565 C580 0.960 . S
H566 C580 0.960 . S
H567 C580 0.960 . S
C568 H560 0.929 . S
C568 C569 1.377 . S
C568 C570 1.384 . S
C569 C568 1.377 . S
C569 C575 1.390 . S
C570 H561 0.930 . S
C570 C568 1.384 . S
C570 C571 1.372 . S
C571 C570 1.372 . S
C571 C572 1.400 . S
C571 C576 1.490 . S
C572 H562 0.930 . S
C572 C571 1.400 . S
C572 C575 1.386 . S
H573 C589 0.930 . S
H574 C590 0.931 . S
C575 H563 0.929 . S
C575 C569 1.390 . S
C575 C572 1.386 . S
C576 C571 1.490 . S
C576 C578 1.395 . S
C576 C579 1.403 . S
H577 C583 0.930 . S
C578 H564 0.930 . S
C578 C576 1.395 . S
C578 C581 1.403 . S
C579 C576 1.403 . S
C579 C580 1.524 . S
C579 C583 1.400 . S
C580 H565 0.960 . S
C580 H566 0.960 . S
C580 H567 0.960 . S
C580 C579 1.524 . S
C581 C578 1.403 . S
C581 C582 1.392 . S
C581 C585 1.495 . S
C582 C581 1.392 . S
C582 C583 1.385 . S
C582 C584 1.478 . S
C583 H577 0.930 . S
C583 C579 1.400 . S
C583 C582 1.385 . S
C584 C582 1.478 . S
C584 C586 1.381 . S
C584 C590 1.383 . S
C585 C581 1.495 . S
C585 H591 0.959 . S
C585 H592 0.961 . S
C585 H593 0.960 . S
C586 C584 1.381 . S
C586 C587 1.394 . S
C586 H594 0.930 . S
C587 C586 1.394 . S
C587 C588 1.383 . S
C587 H595 0.929 . S
C588 C587 1.383 . S
C588 C589 1.377 . S
C589 H573 0.930 . S
C589 C588 1.377 . S
C589 C590 1.379 . S
C590 H574 0.931 . S
C590 C584 1.383 . S
C590 C589 1.379 . S
H591 C585 0.959 . S
H592 C585 0.961 . S
H593 C585 0.960 . S
H594 C586 0.930 . S
H595 C587 0.929 . S
H596 C604 0.929 . S
H597 C606 0.930 . S
H598 C608 0.930 . S
H599 C611 0.929 . S
H600 C614 0.930 . S
H601 C616 0.960 1_545 S
H602 C616 0.960 . S
H603 C616 0.960 . S
C604 H596 0.929 . S
C604 C605 1.377 . S
C604 C606 1.384 . S
C605 C604 1.377 . S
C605 C611 1.390 . S
C606 H597 0.930 . S
C606 C604 1.384 . S
C606 C607 1.372 . S
C607 C606 1.372 . S
C607 C608 1.400 . S
C607 C612 1.490 . S
C608 H598 0.930 . S
C608 C607 1.400 . S
C608 C611 1.386 . S
H609 C625 0.930 . S
H610 C626 0.931 . S
C611 H599 0.929 . S
C611 C605 1.390 . S
C611 C608 1.386 . S
C612 C607 1.490 . S
C612 C614 1.395 . S
C612 C615 1.403 . S
H613 C619 0.930 . S
C614 H600 0.930 . S
C614 C612 1.395 . S
C614 C617 1.403 1_565 S
C615 C612 1.403 . S
C615 C616 1.524 . S
C615 C619 1.400 1_565 S
C616 H601 0.960 1_565 S
C616 H602 0.960 . S
C616 H603 0.960 . S
C616 C615 1.524 . S
C617 C614 1.403 1_545 S
C617 C618 1.392 . S
C617 C621 1.495 . S
C618 C617 1.392 . S
C618 C619 1.385 . S
C618 C620 1.478 . S
C619 H613 0.930 . S
C619 C615 1.400 1_545 S
C619 C618 1.385 . S
C620 C618 1.478 . S
C620 C622 1.381 . S
C620 C626 1.383 . S
C621 C617 1.495 . S
C621 H627 0.883 1_545 S
C621 H628 0.961 . S
C621 H629 0.960 . S
C622 C620 1.381 . S
C622 C623 1.394 . S
C622 H630 0.930 . S
C623 C622 1.394 . S
C623 C624 1.383 . S
C623 H631 0.929 . S
C624 C623 1.383 . S
C624 C625 1.377 . S
C625 H609 0.930 . S
C625 C624 1.377 . S
C625 C626 1.379 . S
C626 H610 0.931 . S
C626 C620 1.383 . S
C626 C625 1.379 . S
H627 C621 0.883 1_565 S
H628 C621 0.961 . S
H629 C621 0.960 . S
H630 C622 0.930 . S
H631 C623 0.929 . S
H632 C640 0.929 . S
H633 C642 0.930 . S
H634 C644 0.930 . S
H635 C647 0.929 . S
H636 C650 0.930 . S
H637 C652 0.960 . S
H638 C652 0.960 . S
H639 C652 0.960 . S
C640 H632 0.929 . S
C640 C641 1.377 . S
C640 C642 1.384 . S
C641 C640 1.377 . S
C641 C647 1.390 . S
C642 H633 0.930 . S
C642 C640 1.384 . S
C642 C643 1.372 . S
C643 C642 1.372 . S
C643 C644 1.400 . S
C643 C648 1.490 . S
C644 H634 0.930 . S
C644 C643 1.400 . S
C644 C647 1.386 . S
H645 C661 0.930 . S
H646 C662 0.931 . S
C647 H635 0.929 . S
C647 C641 1.390 . S
C647 C644 1.386 . S
C648 C643 1.490 . S
C648 C650 1.395 . S
C648 C651 1.403 . S
H649 C655 0.930 . S
C650 H636 0.930 . S
C650 C648 1.395 . S
C650 C653 1.403 . S
C651 C648 1.403 . S
C651 C652 1.524 . S
C651 C655 1.400 . S
C652 H637 0.960 . S
C652 H638 0.960 . S
C652 H639 0.960 . S
C652 C651 1.524 . S
C653 C650 1.403 . S
C653 C654 1.392 . S
C653 C657 1.495 . S
C654 C653 1.392 . S
C654 C655 1.385 . S
C654 C656 1.478 . S
C655 H649 0.930 . S
C655 C651 1.400 . S
C655 C654 1.385 . S
C656 C654 1.478 . S
C656 C658 1.381 . S
C656 C662 1.383 . S
C657 C653 1.495 . S
C657 H663 0.959 . S
C657 H664 0.961 . S
C657 H665 0.960 . S
C658 C656 1.381 . S
C658 C659 1.394 . S
C658 H666 0.930 . S
C659 C658 1.394 . S
C659 C660 1.383 . S
C659 H667 0.929 . S
C660 C659 1.383 . S
C660 C661 1.377 . S
C661 H645 0.930 . S
C661 C660 1.377 . S
C661 C662 1.379 . S
C662 H646 0.931 . S
C662 C656 1.383 . S
C662 C661 1.379 . S
H663 C657 0.959 . S
H664 C657 0.961 . S
H665 C657 0.960 . S
H666 C658 0.930 . S
H667 C659 0.929 . S
H668 C676 0.929 . S
H669 C678 0.930 . S
H670 C680 0.930 1_554 S
H671 C683 0.929 . S
H672 C686 0.930 . S
H673 C688 0.960 . S
H674 C688 0.960 . S
H675 C688 0.960 . S
C676 H668 0.929 . S
C676 C677 1.377 . S
C676 C678 1.384 . S
C677 C676 1.377 . S
C677 C683 1.390 . S
C678 H669 0.930 . S
C678 C676 1.384 . S
C678 C679 1.372 . S
C679 C678 1.372 . S
C679 C680 1.400 . S
C679 C684 1.490 . S
C680 H670 0.930 1_556 S
C680 C679 1.400 . S
C680 C683 1.386 . S
H681 C697 0.930 . S
H682 C698 0.931 . S
C683 H671 0.929 . S
C683 C677 1.390 . S
C683 C680 1.386 . S
C684 C679 1.490 . S
C684 C686 1.395 . S
C684 C687 1.403 1_556 S
H685 C691 0.930 . S
C686 H672 0.930 . S
C686 C684 1.395 . S
C686 C689 1.403 1_545 S
C687 C684 1.403 1_554 S
C687 C688 1.524 . S
C687 C691 1.400 1_545 S
C688 H673 0.960 . S
C688 H674 0.960 . S
C688 H675 0.960 . S
C688 C687 1.524 . S
C689 C686 1.403 1_565 S
C689 C690 1.392 1_556 S
C689 C693 1.495 . S
C690 C689 1.392 1_554 S
C690 C691 1.385 . S
C690 C692 1.478 . S
C691 H685 0.930 . S
C691 C687 1.400 1_565 S
C691 C690 1.385 . S
C692 C690 1.478 . S
C692 C694 1.381 . S
C692 C698 1.383 . S
C693 C689 1.495 . S
C693 H699 0.959 . S
C693 H700 0.961 . S
C693 H701 0.960 . S
C694 C692 1.381 . S
C694 C695 1.394 . S
C694 H702 0.930 1_554 S
C695 C694 1.394 . S
C695 C696 1.383 . S
C695 H703 0.929 . S
C696 C695 1.383 . S
C696 C697 1.377 . S
C697 H681 0.930 . S
C697 C696 1.377 . S
C697 C698 1.379 . S
C698 H682 0.931 . S
C698 C692 1.383 . S
C698 C697 1.379 . S
H699 C693 0.959 . S
H700 C693 0.961 . S
H701 C693 0.960 . S
H702 C694 0.930 1_556 S
H703 C695 0.929 . S
H704 C712 0.929 . S
H705 C714 0.930 . S
H706 C716 0.930 . S
H707 C719 0.929 . S
H708 C722 0.930 . S
H709 C724 0.960 . S
H710 C724 0.960 . S
H711 C724 0.960 . S
C712 H704 0.929 . S
C712 C713 1.377 . S
C712 C714 1.384 . S
C713 C712 1.377 . S
C713 C719 1.390 . S
C714 H705 0.930 . S
C714 C712 1.384 . S
C714 C715 1.372 . S
C715 C714 1.372 . S
C715 C716 1.400 . S
C715 C720 1.490 . S
C716 H706 0.930 . S
C716 C715 1.400 . S
C716 C719 1.386 . S
H717 C733 0.930 . S
H718 C734 0.931 . S
C719 H707 0.929 . S
C719 C713 1.390 . S
C719 C716 1.386 . S
C720 C715 1.490 . S
C720 C722 1.395 . S
C720 C723 1.403 . S
H721 C727 0.930 . S
C722 H708 0.930 . S
C722 C720 1.395 . S
C722 C725 1.403 . S
C723 C720 1.403 . S
C723 C724 1.524 . S
C723 C727 1.400 . S
C724 H709 0.960 . S
C724 H710 0.960 . S
C724 H711 0.960 . S
C724 C723 1.524 . S
C725 C722 1.403 . S
C725 C726 1.392 . S
C725 C729 1.495 . S
C726 C725 1.392 . S
C726 C727 1.385 . S
C726 C728 1.478 . S
C727 H721 0.930 . S
C727 C723 1.400 . S
C727 C726 1.385 . S
C728 C726 1.478 . S
C728 C730 1.381 . S
C728 C734 1.383 . S
C729 C725 1.495 . S
C729 H735 0.959 . S
C729 H736 0.961 . S
C729 H737 0.960 . S
C730 C728 1.381 . S
C730 C731 1.394 . S
C730 H738 0.930 . S
C731 C730 1.394 . S
C731 C732 1.383 . S
C731 H739 0.929 . S
C732 C731 1.383 . S
C732 C733 1.377 . S
C733 H717 0.930 . S
C733 C732 1.377 . S
C733 C734 1.379 . S
C734 H718 0.931 . S
C734 C728 1.383 . S
C734 C733 1.379 . S
H735 C729 0.959 . S
H736 C729 0.961 . S
H737 C729 0.960 . S
H738 C730 0.930 . S
H739 C731 0.929 . S
H740 C748 0.929 . S
H741 C750 0.930 . S
H742 C752 0.930 1_554 S
H743 C755 0.934 . S
H744 C758 0.930 . S
H745 C760 0.960 . S
H746 C760 0.960 1_556 S
H747 C760 0.960 . S
C748 H740 0.929 . S
C748 C749 1.377 . S
C748 C750 1.384 . S
C749 C748 1.377 . S
C749 C755 1.390 . S
C750 H741 0.930 . S
C750 C748 1.384 . S
C750 C751 1.372 . S
C751 C750 1.372 . S
C751 C752 1.400 . S
C751 C756 1.490 . S
C752 H742 0.930 1_556 S
C752 C751 1.400 . S
C752 C755 1.386 . S
H753 C769 0.930 . S
H754 C770 0.931 . S
C755 H743 0.934 . S
C755 C749 1.390 . S
C755 C752 1.386 . S
C756 C751 1.490 . S
C756 C758 1.395 . S
C756 C759 1.403 1_556 S
H757 C763 0.930 . S
C758 H744 0.930 . S
C758 C756 1.395 . S
C758 C761 1.403 . S
C759 C756 1.403 1_554 S
C759 C760 1.524 . S
C759 C763 1.400 . S
C760 H745 0.960 . S
C760 H746 0.960 1_554 S
C760 H747 0.960 . S
C760 C759 1.524 . S
C761 C758 1.403 . S
C761 C762 1.392 1_556 S
C761 C765 1.495 . S
C762 C761 1.392 1_554 S
C762 C763 1.385 . S
C762 C764 1.478 . S
C763 H757 0.930 . S
C763 C759 1.400 . S
C763 C762 1.385 . S
C764 C762 1.478 . S
C764 C766 1.381 . S
C764 C770 1.383 . S
C765 C761 1.495 . S
C765 H771 0.959 . S
C765 H772 0.961 1_556 S
C765 H773 0.960 . S
C766 C764 1.381 . S
C766 C767 1.394 . S
C766 H774 0.930 1_554 S
C767 C766 1.394 . S
C767 C768 1.383 . S
C767 H775 0.926 1_554 S
C768 C767 1.383 . S
C768 C769 1.377 . S
C769 H753 0.930 . S
C769 C768 1.377 . S
C769 C770 1.379 . S
C770 H754 0.931 . S
C770 C764 1.383 . S
C770 C769 1.379 . S
H771 C765 0.959 . S
H772 C765 0.961 1_554 S
H773 C765 0.960 . S
H774 C766 0.930 1_556 S
H775 C767 0.926 1_556 S
H776 C784 0.929 . S
H777 C786 0.930 . S
H778 C788 0.930 . S
H779 C791 0.929 . S
H780 C794 0.930 . S
H781 C796 0.960 . S
H782 C796 0.960 . S
H783 C796 0.960 . S
C784 H776 0.929 . S
C784 C785 1.377 . S
C784 C786 1.384 . S
C785 C784 1.377 . S
C785 C791 1.390 . S
C786 H777 0.930 . S
C786 C784 1.384 . S
C786 C787 1.372 . S
C787 C786 1.372 . S
C787 C788 1.400 . S
C787 C792 1.490 . S
C788 H778 0.930 . S
C788 C787 1.400 . S
C788 C791 1.386 . S
H789 C805 0.930 . S
H790 C806 0.931 . S
C791 H779 0.929 . S
C791 C785 1.390 . S
C791 C788 1.386 . S
C792 C787 1.490 . S
C792 C794 1.395 . S
C792 C795 1.403 . S
H793 C799 0.930 . S
C794 H780 0.930 . S
C794 C792 1.395 . S
C794 C797 1.403 . S
C795 C792 1.403 . S
C795 C796 1.524 . S
C795 C799 1.400 . S
C796 H781 0.960 . S
C796 H782 0.960 . S
C796 H783 0.960 . S
C796 C795 1.524 . S
C797 C794 1.403 . S
C797 C798 1.392 . S
C797 C801 1.495 . S
C798 C797 1.392 . S
C798 C799 1.385 . S
C798 C800 1.478 . S
C799 H793 0.930 . S
C799 C795 1.400 . S
C799 C798 1.385 . S
C800 C798 1.478 . S
C800 C802 1.381 . S
C800 C806 1.383 . S
C801 C797 1.495 . S
C801 H807 0.959 . S
C801 H808 0.961 . S
C801 H809 0.960 . S
C802 C800 1.381 . S
C802 C803 1.394 . S
C802 H810 0.930 . S
C803 C802 1.394 . S
C803 C804 1.383 . S
C803 H811 0.929 . S
C804 C803 1.383 . S
C804 C805 1.377 . S
C805 H789 0.930 . S
C805 C804 1.377 . S
C805 C806 1.379 . S
C806 H790 0.931 . S
C806 C800 1.383 . S
C806 C805 1.379 . S
H807 C801 0.959 . S
H808 C801 0.961 . S
H809 C801 0.960 . S
H810 C802 0.930 . S
H811 C803 0.929 . S
H812 C820 0.929 . S
H813 C822 0.930 . S
H814 C824 0.930 . S
H815 C827 0.929 . S
H816 C830 0.930 . S
H817 C832 0.960 . S
H818 C832 0.960 . S
H819 C832 0.960 . S
C820 H812 0.929 . S
C820 C821 1.377 . S
C820 C822 1.384 . S
C821 C820 1.377 . S
C821 C827 1.390 . S
C822 H813 0.930 . S
C822 C820 1.384 . S
C822 C823 1.372 . S
C823 C822 1.372 . S
C823 C824 1.400 . S
C823 C828 1.490 . S
C824 H814 0.930 . S
C824 C823 1.400 . S
C824 C827 1.386 . S
H825 C841 0.930 . S
H826 C842 0.931 . S
C827 H815 0.929 . S
C827 C821 1.390 . S
C827 C824 1.386 . S
C828 C823 1.490 . S
C828 C830 1.395 . S
C828 C831 1.403 . S
H829 C835 0.930 . S
C830 H816 0.930 . S
C830 C828 1.395 . S
C830 C833 1.403 . S
C831 C828 1.403 . S
C831 C832 1.524 . S
C831 C835 1.400 . S
C832 H817 0.960 . S
C832 H818 0.960 . S
C832 H819 0.960 . S
C832 C831 1.524 . S
C833 C830 1.403 . S
C833 C834 1.392 . S
C833 C837 1.495 . S
C834 C833 1.392 . S
C834 C835 1.385 . S
C834 C836 1.478 . S
C835 H829 0.930 . S
C835 C831 1.400 . S
C835 C834 1.385 . S
C836 C834 1.478 . S
C836 C838 1.381 . S
C836 C842 1.383 . S
C837 C833 1.495 . S
C837 H843 0.959 . S
C837 H844 0.961 . S
C837 H845 0.960 . S
C838 C836 1.381 . S
C838 C839 1.394 . S
C838 H846 0.930 . S
C839 C838 1.394 . S
C839 C840 1.383 . S
C839 H847 0.929 . S
C840 C839 1.383 . S
C840 C841 1.377 . S
C841 H825 0.930 . S
C841 C840 1.377 . S
C841 C842 1.379 . S
C842 H826 0.931 . S
C842 C836 1.383 . S
C842 C841 1.379 . S
H843 C837 0.959 . S
H844 C837 0.961 . S
H845 C837 0.960 . S
H846 C838 0.930 . S
H847 C839 0.929 . S
H848 C856 0.929 . S
H849 C858 0.930 . S
H850 C860 0.930 . S
H851 C863 0.929 . S
H852 C866 0.930 . S
H853 C868 0.960 . S
H854 C868 0.960 . S
H855 C868 0.960 . S
C856 H848 0.929 . S
C856 C857 1.377 . S
C856 C858 1.384 . S
C857 C856 1.377 . S
C857 C863 1.390 . S
C858 H849 0.930 . S
C858 C856 1.384 . S
C858 C859 1.372 . S
C859 C858 1.372 . S
C859 C860 1.400 . S
C859 C864 1.490 . S
C860 H850 0.930 . S
C860 C859 1.400 . S
C860 C863 1.386 . S
H861 C877 0.930 . S
H862 C878 0.931 . S
C863 H851 0.929 . S
C863 C857 1.390 . S
C863 C860 1.386 . S
C864 C859 1.490 . S
C864 C866 1.395 . S
C864 C867 1.403 . S
H865 C871 0.930 . S
C866 H852 0.930 . S
C866 C864 1.395 . S
C866 C869 1.403 . S
C867 C864 1.403 . S
C867 C868 1.524 . S
C867 C871 1.400 . S
C868 H853 0.960 . S
C868 H854 0.960 . S
C868 H855 0.960 . S
C868 C867 1.524 . S
C869 C866 1.403 . S
C869 C870 1.392 . S
C869 C873 1.495 . S
C870 C869 1.392 . S
C870 C871 1.385 . S
C870 C872 1.478 . S
C871 H865 0.930 . S
C871 C867 1.400 . S
C871 C870 1.385 . S
C872 C870 1.478 . S
C872 C874 1.381 . S
C872 C878 1.383 . S
C873 C869 1.495 . S
C873 H879 0.959 . S
C873 H880 0.961 . S
C873 H881 0.960 . S
C874 C872 1.381 . S
C874 C875 1.394 . S
C874 H882 0.930 . S
C875 C874 1.394 . S
C875 C876 1.383 . S
C875 H883 0.929 . S
C876 C875 1.383 . S
C876 C877 1.377 . S
C877 H861 0.930 . S
C877 C876 1.377 . S
C877 C878 1.379 . S
C878 H862 0.931 . S
C878 C872 1.383 . S
C878 C877 1.379 . S
H879 C873 0.959 . S
H880 C873 0.961 . S
H881 C873 0.960 . S
H882 C874 0.930 . S
H883 C875 0.929 . S
H884 C892 0.929 . S
H885 C894 0.930 1_556 S
H886 C896 0.930 . S
H887 C899 0.929 . S
H888 C902 0.930 . S
H889 C904 0.960 . S
H890 C904 0.960 . S
H891 C904 0.960 1_554 S
C892 H884 0.929 . S
C892 C893 1.377 . S
C892 C894 1.384 . S
C893 C892 1.377 . S
C893 C899 1.390 . S
C894 H885 0.930 1_554 S
C894 C892 1.384 . S
C894 C895 1.372 . S
C895 C894 1.372 . S
C895 C896 1.400 . S
C895 C900 1.490 . S
C896 H886 0.930 . S
C896 C895 1.400 . S
C896 C899 1.386 . S
H897 C913 0.930 . S
H898 C914 0.931 1_554 S
C899 H887 0.929 . S
C899 C893 1.390 . S
C899 C896 1.386 . S
C900 C895 1.490 . S
C900 C902 1.395 . S
C900 C903 1.403 1_554 S
H901 C907 0.930 . S
C902 H888 0.930 . S
C902 C900 1.395 . S
C902 C905 1.403 . S
C903 C900 1.403 1_556 S
C903 C904 1.524 . S
C903 C907 1.400 . S
C904 H889 0.960 . S
C904 H890 0.960 . S
C904 H891 0.960 1_556 S
C904 C903 1.524 . S
C905 C902 1.403 . S
C905 C906 1.392 1_554 S
C905 C909 1.495 . S
C906 C905 1.392 1_556 S
C906 C907 1.385 . S
C906 C908 1.478 . S
C907 H901 0.930 . S
C907 C903 1.400 . S
C907 C906 1.385 . S
C908 C906 1.478 . S
C908 C910 1.381 . S
C908 C914 1.383 . S
C909 C905 1.495 . S
C909 H915 0.959 . S
C909 H916 0.961 . S
C909 H917 0.960 1_554 S
C910 C908 1.381 . S
C910 C911 1.394 . S
C910 H918 0.930 . S
C911 C910 1.394 . S
C911 C912 1.383 . S
C911 H919 0.929 . S
C912 C911 1.383 . S
C912 C913 1.377 . S
C913 H897 0.930 . S
C913 C912 1.377 . S
C913 C914 1.379 . S
C914 H898 0.931 1_556 S
C914 C908 1.383 . S
C914 C913 1.379 . S
H915 C909 0.959 . S
H916 C909 0.961 . S
H917 C909 0.960 1_556 S
H918 C910 0.930 . S
H919 C911 0.929 . S
H920 C928 0.929 . S
H921 C930 0.930 . S
H922 C932 0.930 . S
H923 C935 0.929 . S
H924 C938 0.930 . S
H925 C940 0.960 . S
H926 C940 0.960 . S
H927 C940 0.960 . S
C928 H920 0.929 . S
C928 C929 1.377 . S
C928 C930 1.384 . S
C929 C928 1.377 . S
C929 C935 1.390 . S
C930 H921 0.930 . S
C930 C928 1.384 . S
C930 C931 1.372 . S
C931 C930 1.372 . S
C931 C932 1.400 . S
C931 C936 1.490 . S
C932 H922 0.930 . S
C932 C931 1.400 . S
C932 C935 1.386 . S
H933 C949 0.930 . S
H934 C950 0.931 . S
C935 H923 0.929 . S
C935 C929 1.390 . S
C935 C932 1.386 . S
C936 C931 1.490 . S
C936 C938 1.395 . S
C936 C939 1.403 . S
H937 C943 0.930 . S
C938 H924 0.930 . S
C938 C936 1.395 . S
C938 C941 1.403 . S
C939 C936 1.403 . S
C939 C940 1.524 . S
C939 C943 1.400 . S
C940 H925 0.960 . S
C940 H926 0.960 . S
C940 H927 0.960 . S
C940 C939 1.524 . S
C941 C938 1.403 . S
C941 C942 1.392 . S
C941 C945 1.495 . S
C942 C941 1.392 . S
C942 C943 1.385 . S
C942 C944 1.478 . S
C943 H937 0.930 . S
C943 C939 1.400 . S
C943 C942 1.385 . S
C944 C942 1.478 . S
C944 C946 1.381 . S
C944 C950 1.383 . S
C945 C941 1.495 . S
C945 H951 0.959 . S
C945 H952 0.961 . S
C945 H953 0.960 . S
C946 C944 1.381 . S
C946 C947 1.394 . S
C946 H954 0.930 . S
C947 C946 1.394 . S
C947 C948 1.383 . S
C947 H955 0.929 . S
C948 C947 1.383 . S
C948 C949 1.377 . S
C949 H933 0.930 . S
C949 C948 1.377 . S
C949 C950 1.379 . S
C950 H934 0.931 . S
C950 C944 1.383 . S
C950 C949 1.379 . S
H951 C945 0.959 . S
H952 C945 0.961 . S
H953 C945 0.960 . S
H954 C946 0.930 . S
H955 C947 0.929 . S
H956 C964 0.929 . S
H957 C966 0.930 . S
H958 C968 0.930 . S
H959 C971 0.929 . S
H960 C974 0.930 . S
H961 C976 0.960 . S
H962 C976 0.960 . S
H963 C976 0.960 . S
C964 H956 0.929 . S
C964 C965 1.377 . S
C964 C966 1.384 . S
C965 C964 1.377 . S
C965 C971 1.390 . S
C966 H957 0.930 . S
C966 C964 1.384 . S
C966 C967 1.372 . S
C967 C966 1.372 . S
C967 C968 1.400 . S
C967 C972 1.490 . S
C968 H958 0.930 . S
C968 C967 1.400 . S
C968 C971 1.386 . S
H969 C985 0.930 . S
H970 C986 0.931 . S
C971 H959 0.929 . S
C971 C965 1.390 . S
C971 C968 1.386 . S
C972 C967 1.490 . S
C972 C974 1.395 . S
C972 C975 1.403 . S
H973 C979 0.930 . S
C974 H960 0.930 . S
C974 C972 1.395 . S
C974 C977 1.403 . S
C975 C972 1.403 . S
C975 C976 1.524 . S
C975 C979 1.400 . S
C976 H961 0.960 . S
C976 H962 0.960 . S
C976 H963 0.960 . S
C976 C975 1.524 . S
C977 C974 1.403 . S
C977 C978 1.392 . S
C977 C981 1.495 . S
C978 C977 1.392 . S
C978 C979 1.385 . S
C978 C980 1.478 . S
C979 H973 0.930 . S
C979 C975 1.400 . S
C979 C978 1.385 . S
C980 C978 1.478 . S
C980 C982 1.381 . S
C980 C986 1.383 . S
C981 C977 1.495 . S
C981 H987 0.959 . S
C981 H988 0.961 . S
C981 H989 0.960 . S
C982 C980 1.381 . S
C982 C983 1.394 . S
C982 H990 0.930 . S
C983 C982 1.394 . S
C983 C984 1.383 . S
C983 H991 0.929 . S
C984 C983 1.383 . S
C984 C985 1.377 . S
C985 H969 0.930 . S
C985 C984 1.377 . S
C985 C986 1.379 . S
C986 H970 0.931 . S
C986 C980 1.383 . S
C986 C985 1.379 . S
H987 C981 0.959 . S
H988 C981 0.961 . S
H989 C981 0.960 . S
H990 C982 0.930 . S
H991 C983 0.929 . S
H992 C1000 0.929 . S
H993 C1002 0.930 . S
H994 C1004 0.930 . S
H995 C1007 0.929 . S
H996 C1010 0.930 . S
H997 C1012 0.960 . S
H998 C1012 0.960 . S
H999 C1012 0.960 . S
C1000 H992 0.929 . S
C1000 C1001 1.377 . S
C1000 C1002 1.384 1_554 S
C1001 C1000 1.377 . S
C1001 C1007 1.390 1_554 S
C1002 H993 0.930 . S
C1002 C1000 1.384 1_556 S
C1002 C1003 1.372 . S
C1003 C1002 1.372 . S
C1003 C1004 1.400 . S
C1003 C1008 1.490 . S
C1004 H994 0.930 . S
C1004 C1003 1.400 . S
C1004 C1007 1.386 . S
H1005 C1021 0.930 . S
H1006 C1022 0.931 . S
C1007 H995 0.929 . S
C1007 C1001 1.390 1_556 S
C1007 C1004 1.386 . S
C1008 C1003 1.490 . S
C1008 C1010 1.395 . S
C1008 C1011 1.403 . S
H1009 C1015 0.930 . S
C1010 H996 0.930 . S
C1010 C1008 1.395 . S
C1010 C1013 1.403 . S
C1011 C1008 1.403 . S
C1011 C1012 1.524 . S
C1011 C1015 1.400 . S
C1012 H997 0.960 . S
C1012 H998 0.960 . S
C1012 H999 0.960 . S
C1012 C1011 1.524 . S
C1013 C1010 1.403 . S
C1013 C1014 1.392 . S
C1013 C1017 1.495 . S
C1014 C1013 1.392 . S
C1014 C1015 1.385 . S
C1014 C1016 1.478 . S
C1015 H1009 0.930 . S
C1015 C1011 1.400 . S
C1015 C1014 1.385 . S
C1016 C1014 1.478 . S
C1016 C1018 1.381 . S
C1016 C1022 1.383 . S
C1017 C1013 1.495 . S
C1017 H1023 0.959 . S
C1017 H1024 0.961 . S
C1017 H1025 0.960 . S
C1018 C1016 1.381 . S
C1018 C1019 1.394 . S
C1018 H1026 0.930 . S
C1019 C1018 1.394 . S
C1019 C1020 1.383 . S
C1019 H1027 0.929 . S
C1020 C1019 1.383 . S
C1020 C1021 1.377 . S
C1021 H1005 0.930 . S
C1021 C1020 1.377 . S
C1021 C1022 1.379 . S
C1022 H1006 0.931 . S
C1022 C1016 1.383 . S
C1022 C1021 1.379 . S
H1023 C1017 0.959 . S
H1024 C1017 0.961 . S
H1025 C1017 0.960 . S
H1026 C1018 0.930 . S
H1027 C1019 0.929 . S
H1028 C1036 0.929 . S
H1029 C1038 0.930 . S
H1030 C1040 0.924 1_556 S
H1031 C1043 0.929 . S
H1032 C1046 0.930 . S
H1033 C1048 0.960 . S
H1034 C1048 0.960 . S
H1035 C1048 0.960 . S
C1036 H1028 0.929 . S
C1036 C1037 1.377 1_554 S
C1036 C1038 1.384 . S
C1037 C1036 1.377 1_556 S
C1037 C1043 1.390 . S
C1038 H1029 0.930 . S
C1038 C1036 1.384 . S
C1038 C1039 1.372 . S
C1039 C1038 1.372 . S
C1039 C1040 1.400 . S
C1039 C1044 1.490 . S
C1040 H1030 0.924 1_554 S
C1040 C1039 1.400 . S
C1040 C1043 1.386 1_554 S
H1041 C1057 0.930 . S
H1042 C1058 0.931 . S
C1043 H1031 0.929 . S
C1043 C1037 1.390 . S
C1043 C1040 1.386 1_556 S
C1044 C1039 1.490 . S
C1044 C1046 1.395 . S
C1044 C1047 1.403 . S
H1045 C1051 0.930 . S
C1046 H1032 0.930 . S
C1046 C1044 1.395 . S
C1046 C1049 1.403 . S
C1047 C1044 1.403 . S
C1047 C1048 1.524 . S
C1047 C1051 1.400 . S
C1048 H1033 0.960 . S
C1048 H1034 0.960 . S
C1048 H1035 0.960 . S
C1048 C1047 1.524 . S
C1049 C1046 1.403 . S
C1049 C1050 1.392 . S
C1049 C1053 1.495 . S
C1050 C1049 1.392 . S
C1050 C1051 1.385 . S
C1050 C1052 1.478 . S
C1051 H1045 0.930 . S
C1051 C1047 1.400 . S
C1051 C1050 1.385 . S
C1052 C1050 1.478 . S
C1052 C1054 1.381 . S
C1052 C1058 1.383 . S
C1053 C1049 1.495 . S
C1053 H1059 0.959 . S
C1053 H1060 0.961 . S
C1053 H1061 0.960 . S
C1054 C1052 1.381 . S
C1054 C1055 1.394 . S
C1054 H1062 0.930 . S
C1055 C1054 1.394 . S
C1055 C1056 1.383 . S
C1055 H1063 0.929 . S
C1056 C1055 1.383 . S
C1056 C1057 1.377 . S
C1057 H1041 0.930 . S
C1057 C1056 1.377 . S
C1057 C1058 1.379 . S
C1058 H1042 0.931 . S
C1058 C1052 1.383 . S
C1058 C1057 1.379 . S
H1059 C1053 0.959 . S
H1060 C1053 0.961 . S
H1061 C1053 0.960 . S
H1062 C1054 0.930 . S
H1063 C1055 0.929 . S
H1064 C1072 0.929 . S
H1065 C1074 0.930 . S
H1066 C1076 0.930 . S
H1067 C1079 0.929 . S
H1068 C1082 0.930 . S
H1069 C1084 0.960 . S
H1070 C1084 0.960 . S
H1071 C1084 0.960 . S
C1072 H1064 0.929 . S
C1072 C1073 1.377 . S
C1072 C1074 1.384 . S
C1073 C1072 1.377 . S
C1073 C1079 1.390 . S
C1074 H1065 0.930 . S
C1074 C1072 1.384 . S
C1074 C1075 1.372 . S
C1075 C1074 1.372 . S
C1075 C1076 1.400 . S
C1075 C1080 1.490 . S
C1076 H1066 0.930 . S
C1076 C1075 1.400 . S
C1076 C1079 1.386 . S
H1077 C1093 0.930 . S
H1078 C1094 0.931 . S
C1079 H1067 0.929 . S
C1079 C1073 1.390 . S
C1079 C1076 1.386 . S
C1080 C1075 1.490 . S
C1080 C1082 1.395 . S
C1080 C1083 1.403 . S
H1081 C1087 0.930 . S
C1082 H1068 0.930 . S
C1082 C1080 1.395 . S
C1082 C1085 1.403 . S
C1083 C1080 1.403 . S
C1083 C1084 1.524 . S
C1083 C1087 1.400 . S
C1084 H1069 0.960 . S
C1084 H1070 0.960 . S
C1084 H1071 0.960 . S
C1084 C1083 1.524 . S
C1085 C1082 1.403 . S
C1085 C1086 1.392 . S
C1085 C1089 1.495 . S
C1086 C1085 1.392 . S
C1086 C1087 1.385 . S
C1086 C1088 1.478 . S
C1087 H1081 0.930 . S
C1087 C1083 1.400 . S
C1087 C1086 1.385 . S
C1088 C1086 1.478 . S
C1088 C1090 1.381 . S
C1088 C1094 1.383 . S
C1089 C1085 1.495 . S
C1089 H1095 0.959 . S
C1089 H1096 0.961 . S
C1089 H1097 0.960 . S
C1090 C1088 1.381 . S
C1090 C1091 1.394 . S
C1090 H1098 0.930 . S
C1091 C1090 1.394 . S
C1091 C1092 1.383 . S
C1091 H1099 0.929 . S
C1092 C1091 1.383 . S
C1092 C1093 1.377 . S
C1093 H1077 0.930 . S
C1093 C1092 1.377 . S
C1093 C1094 1.379 . S
C1094 H1078 0.931 . S
C1094 C1088 1.383 . S
C1094 C1093 1.379 . S
H1095 C1089 0.959 . S
H1096 C1089 0.961 . S
H1097 C1089 0.960 . S
H1098 C1090 0.930 . S
H1099 C1091 0.929 . S
H1100 C1108 0.929 . S
H1101 C1110 0.930 . S
H1102 C1112 0.930 . S
H1103 C1115 0.929 . S
H1104 C1118 0.930 . S
H1105 C1120 0.960 . S
H1106 C1120 0.960 . S
H1107 C1120 0.960 . S
C1108 H1100 0.929 . S
C1108 C1109 1.377 . S
C1108 C1110 1.384 . S
C1109 C1108 1.377 . S
C1109 C1115 1.390 . S
C1110 H1101 0.930 . S
C1110 C1108 1.384 . S
C1110 C1111 1.372 . S
C1111 C1110 1.372 . S
C1111 C1112 1.400 . S
C1111 C1116 1.490 . S
C1112 H1102 0.930 . S
C1112 C1111 1.400 . S
C1112 C1115 1.386 . S
H1113 C1129 0.930 . S
H1114 C1130 0.931 . S
C1115 H1103 0.929 . S
C1115 C1109 1.390 . S
C1115 C1112 1.386 . S
C1116 C1111 1.490 . S
C1116 C1118 1.395 . S
C1116 C1119 1.403 . S
H1117 C1123 0.930 . S
C1118 H1104 0.930 . S
C1118 C1116 1.395 . S
C1118 C1121 1.403 . S
C1119 C1116 1.403 . S
C1119 C1120 1.524 . S
C1119 C1123 1.400 . S
C1120 H1105 0.960 . S
C1120 H1106 0.960 . S
C1120 H1107 0.960 . S
C1120 C1119 1.524 . S
C1121 C1118 1.403 . S
C1121 C1122 1.392 . S
C1121 C1125 1.495 . S
C1122 C1121 1.392 . S
C1122 C1123 1.385 . S
C1122 C1124 1.478 . S
C1123 H1117 0.930 . S
C1123 C1119 1.400 . S
C1123 C1122 1.385 . S
C1124 C1122 1.478 . S
C1124 C1126 1.381 . S
C1124 C1130 1.383 . S
C1125 C1121 1.495 . S
C1125 H1131 0.959 . S
C1125 H1132 0.961 . S
C1125 H1133 0.960 . S
C1126 C1124 1.381 . S
C1126 C1127 1.394 . S
C1126 H1134 0.930 . S
C1127 C1126 1.394 . S
C1127 C1128 1.383 . S
C1127 H1135 0.929 . S
C1128 C1127 1.383 . S
C1128 C1129 1.377 . S
C1129 H1113 0.930 . S
C1129 C1128 1.377 . S
C1129 C1130 1.379 . S
C1130 H1114 0.931 . S
C1130 C1124 1.383 . S
C1130 C1129 1.379 . S
H1131 C1125 0.959 . S
H1132 C1125 0.961 . S
H1133 C1125 0.960 . S
H1134 C1126 0.930 . S
H1135 C1127 0.929 . S
H1136 C1144 0.929 . S
H1137 C1146 0.930 . S
H1138 C1148 0.930 . S
H1139 C1151 0.929 . S
H1140 C1154 0.930 . S
H1141 C1156 0.960 . S
H1142 C1156 0.960 . S
H1143 C1156 0.960 . S
C1144 H1136 0.929 . S
C1144 C1145 1.377 . S
C1144 C1146 1.384 1_556 S
C1145 C1144 1.377 . S
C1145 C1151 1.390 1_556 S
C1146 H1137 0.930 . S
C1146 C1144 1.384 1_554 S
C1146 C1147 1.372 . S
C1147 C1146 1.372 . S
C1147 C1148 1.400 . S
C1147 C1152 1.490 . S
C1148 H1138 0.930 . S
C1148 C1147 1.400 . S
C1148 C1151 1.386 . S
H1149 C1165 0.930 . S
H1150 C1166 0.931 . S
C1151 H1139 0.929 . S
C1151 C1145 1.390 1_554 S
C1151 C1148 1.386 . S
C1152 C1147 1.490 . S
C1152 C1154 1.395 . S
C1152 C1155 1.403 . S
H1153 C1159 0.930 . S
C1154 H1140 0.930 . S
C1154 C1152 1.395 . S
C1154 C1157 1.403 . S
C1155 C1152 1.403 . S
C1155 C1156 1.524 . S
C1155 C1159 1.400 . S
C1156 H1141 0.960 . S
C1156 H1142 0.960 . S
C1156 H1143 0.960 . S
C1156 C1155 1.524 . S
C1157 C1154 1.403 . S
C1157 C1158 1.392 . S
C1157 C1161 1.495 . S
C1158 C1157 1.392 . S
C1158 C1159 1.385 . S
C1158 C1160 1.478 . S
C1159 H1153 0.930 . S
C1159 C1155 1.400 . S
C1159 C1158 1.385 . S
C1160 C1158 1.478 . S
C1160 C1162 1.381 . S
C1160 C1166 1.383 . S
C1161 C1157 1.495 . S
C1161 H1167 0.959 . S
C1161 H1168 0.961 . S
C1161 H1169 0.960 . S
C1162 C1160 1.381 . S
C1162 C1163 1.394 . S
C1162 H1170 0.930 . S
C1163 C1162 1.394 . S
C1163 C1164 1.383 . S
C1163 H1171 0.929 . S
C1164 C1163 1.383 . S
C1164 C1165 1.377 . S
C1165 H1149 0.930 . S
C1165 C1164 1.377 . S
C1165 C1166 1.379 . S
C1166 H1150 0.931 . S
C1166 C1160 1.383 . S
C1166 C1165 1.379 . S
H1167 C1161 0.959 . S
H1168 C1161 0.961 . S
H1169 C1161 0.960 . S
H1170 C1162 0.930 . S
H1171 C1163 0.929 . S
H1172 C1180 0.929 . S
H1173 C1182 0.930 . S
H1174 C1184 0.930 . S
H1175 C1187 0.929 . S
H1176 C1190 0.930 . S
H1177 C1192 0.960 . S
H1178 C1192 0.960 . S
H1179 C1192 0.960 . S
C1180 H1172 0.929 . S
C1180 C1181 1.377 1_556 S
C1180 C1182 1.384 . S
C1181 C1180 1.377 1_554 S
C1181 C1187 1.390 . S
C1182 H1173 0.930 . S
C1182 C1180 1.384 . S
C1182 C1183 1.372 . S
C1183 C1182 1.372 . S
C1183 C1184 1.400 . S
C1183 C1188 1.490 . S
C1184 H1174 0.930 . S
C1184 C1183 1.400 . S
C1184 C1187 1.386 1_556 S
H1185 C1201 0.930 . S
H1186 C1202 0.931 . S
C1187 H1175 0.929 . S
C1187 C1181 1.390 . S
C1187 C1184 1.386 1_554 S
C1188 C1183 1.490 . S
C1188 C1190 1.395 . S
C1188 C1191 1.403 . S
H1189 C1195 0.930 . S
C1190 H1176 0.930 . S
C1190 C1188 1.395 . S
C1190 C1193 1.403 . S
C1191 C1188 1.403 . S
C1191 C1192 1.524 . S
C1191 C1195 1.400 . S
C1192 H1177 0.960 . S
C1192 H1178 0.960 . S
C1192 H1179 0.960 . S
C1192 C1191 1.524 . S
C1193 C1190 1.403 . S
C1193 C1194 1.392 . S
C1193 C1197 1.495 . S
C1194 C1193 1.392 . S
C1194 C1195 1.385 . S
C1194 C1196 1.478 . S
C1195 H1189 0.930 . S
C1195 C1191 1.400 . S
C1195 C1194 1.385 . S
C1196 C1194 1.478 . S
C1196 C1198 1.381 . S
C1196 C1202 1.383 . S
C1197 C1193 1.495 . S
C1197 H1203 0.959 . S
C1197 H1204 0.961 . S
C1197 H1205 0.960 . S
C1198 C1196 1.381 . S
C1198 C1199 1.394 . S
C1198 H1206 0.930 . S
C1199 C1198 1.394 . S
C1199 C1200 1.383 . S
C1199 H1207 0.929 . S
C1200 C1199 1.383 . S
C1200 C1201 1.377 . S
C1201 H1185 0.930 . S
C1201 C1200 1.377 . S
C1201 C1202 1.379 . S
C1202 H1186 0.931 . S
C1202 C1196 1.383 . S
C1202 C1201 1.379 . S
H1203 C1197 0.959 . S
H1204 C1197 0.961 . S
H1205 C1197 0.960 . S
H1206 C1198 0.930 . S
H1207 C1199 0.929 . S
H1208 C1216 0.929 . S
H1209 C1218 0.930 . S
H1210 C1220 0.930 . S
H1211 C1223 0.929 . S
H1212 C1226 0.930 . S
H1213 C1228 0.960 . S
H1214 C1228 0.960 . S
H1215 C1228 0.960 . S
C1216 H1208 0.929 . S
C1216 C1217 1.377 . S
C1216 C1218 1.384 . S
C1217 C1216 1.377 . S
C1217 C1223 1.390 . S
C1218 H1209 0.930 . S
C1218 C1216 1.384 . S
C1218 C1219 1.372 . S
C1219 C1218 1.372 . S
C1219 C1220 1.400 . S
C1219 C1224 1.490 . S
C1220 H1210 0.930 . S
C1220 C1219 1.400 . S
C1220 C1223 1.386 . S
H1221 C1237 0.930 . S
H1222 C1238 0.931 . S
C1223 H1211 0.929 . S
C1223 C1217 1.390 . S
C1223 C1220 1.386 . S
C1224 C1219 1.490 . S
C1224 C1226 1.395 . S
C1224 C1227 1.403 . S
H1225 C1231 0.930 . S
C1226 H1212 0.930 . S
C1226 C1224 1.395 . S
C1226 C1229 1.403 . S
C1227 C1224 1.403 . S
C1227 C1228 1.524 . S
C1227 C1231 1.400 . S
C1228 H1213 0.960 . S
C1228 H1214 0.960 . S
C1228 H1215 0.960 . S
C1228 C1227 1.524 . S
C1229 C1226 1.403 . S
C1229 C1230 1.392 . S
C1229 C1233 1.495 . S
C1230 C1229 1.392 . S
C1230 C1231 1.385 . S
C1230 C1232 1.478 . S
C1231 H1225 0.930 . S
C1231 C1227 1.400 . S
C1231 C1230 1.385 . S
C1232 C1230 1.478 . S
C1232 C1234 1.381 . S
C1232 C1238 1.383 . S
C1233 C1229 1.495 . S
C1233 H1239 0.959 . S
C1233 H1240 0.961 . S
C1233 H1241 0.960 . S
C1234 C1232 1.381 . S
C1234 C1235 1.394 . S
C1234 H1242 0.930 . S
C1235 C1234 1.394 . S
C1235 C1236 1.383 . S
C1235 H1243 0.929 . S
C1236 C1235 1.383 . S
C1236 C1237 1.377 . S
C1237 H1221 0.930 . S
C1237 C1236 1.377 . S
C1237 C1238 1.379 . S
C1238 H1222 0.931 . S
C1238 C1232 1.383 . S
C1238 C1237 1.379 . S
H1239 C1233 0.959 . S
H1240 C1233 0.961 . S
H1241 C1233 0.960 . S
H1242 C1234 0.930 . S
H1243 C1235 0.929 . S
H1244 C1252 0.929 . S
H1245 C1254 0.930 . S
H1246 C1256 0.930 . S
H1247 C1259 0.929 . S
H1248 C1262 0.930 . S
H1249 C1264 0.960 . S
H1250 C1264 0.960 . S
H1251 C1264 0.960 . S
C1252 H1244 0.929 . S
C1252 C1253 1.377 . S
C1252 C1254 1.384 . S
C1253 C1252 1.377 . S
C1253 C1259 1.390 . S
C1254 H1245 0.930 . S
C1254 C1252 1.384 . S
C1254 C1255 1.372 . S
C1255 C1254 1.372 . S
C1255 C1256 1.400 . S
C1255 C1260 1.490 . S
C1256 H1246 0.930 . S
C1256 C1255 1.400 . S
C1256 C1259 1.386 . S
H1257 C1273 0.930 . S
H1258 C1274 0.931 . S
C1259 H1247 0.929 . S
C1259 C1253 1.390 . S
C1259 C1256 1.386 . S
C1260 C1255 1.490 . S
C1260 C1262 1.395 . S
C1260 C1263 1.403 . S
H1261 C1267 0.930 . S
C1262 H1248 0.930 . S
C1262 C1260 1.395 . S
C1262 C1265 1.403 . S
C1263 C1260 1.403 . S
C1263 C1264 1.524 . S
C1263 C1267 1.400 . S
C1264 H1249 0.960 . S
C1264 H1250 0.960 . S
C1264 H1251 0.960 . S
C1264 C1263 1.524 . S
C1265 C1262 1.403 . S
C1265 C1266 1.392 . S
C1265 C1269 1.495 . S
C1266 C1265 1.392 . S
C1266 C1267 1.385 . S
C1266 C1268 1.478 . S
C1267 H1261 0.930 . S
C1267 C1263 1.400 . S
C1267 C1266 1.385 . S
C1268 C1266 1.478 . S
C1268 C1270 1.381 . S
C1268 C1274 1.383 . S
C1269 C1265 1.495 . S
C1269 H1275 0.959 . S
C1269 H1276 0.961 . S
C1269 H1277 0.960 . S
C1270 C1268 1.381 . S
C1270 C1271 1.394 . S
C1270 H1278 0.930 . S
C1271 C1270 1.394 . S
C1271 C1272 1.383 . S
C1271 H1279 0.929 . S
C1272 C1271 1.383 . S
C1272 C1273 1.377 . S
C1273 H1257 0.930 . S
C1273 C1272 1.377 . S
C1273 C1274 1.379 . S
C1274 H1258 0.931 . S
C1274 C1268 1.383 . S
C1274 C1273 1.379 . S
H1275 C1269 0.959 . S
H1276 C1269 0.961 . S
H1277 C1269 0.960 . S
H1278 C1270 0.930 . S
H1279 C1271 0.929 . S
H1280 C1288 0.929 . S
H1281 C1290 0.930 . S
H1282 C1292 0.930 . S
H1283 C1295 0.929 . S
H1284 C1298 0.930 . S
H1285 C1300 0.960 . S
H1286 C1300 0.960 . S
H1287 C1300 0.960 . S
C1288 H1280 0.929 . S
C1288 C1289 1.377 . S
C1288 C1290 1.384 . S
C1289 C1288 1.377 . S
C1289 C1295 1.390 . S
C1290 H1281 0.930 . S
C1290 C1288 1.384 . S
C1290 C1291 1.372 . S
C1291 C1290 1.372 . S
C1291 C1292 1.400 . S
C1291 C1296 1.490 . S
C1292 H1282 0.930 . S
C1292 C1291 1.400 . S
C1292 C1295 1.386 . S
H1293 C1309 0.930 . S
H1294 C1310 0.931 . S
C1295 H1283 0.929 . S
C1295 C1289 1.390 . S
C1295 C1292 1.386 . S
C1296 C1291 1.490 . S
C1296 C1298 1.395 . S
C1296 C1299 1.403 . S
H1297 C1303 0.930 . S
C1298 H1284 0.930 . S
C1298 C1296 1.395 . S
C1298 C1301 1.403 . S
C1299 C1296 1.403 . S
C1299 C1300 1.524 . S
C1299 C1303 1.400 . S
C1300 H1285 0.960 . S
C1300 H1286 0.960 . S
C1300 H1287 0.960 . S
C1300 C1299 1.524 . S
C1301 C1298 1.403 . S
C1301 C1302 1.392 . S
C1301 C1305 1.495 . S
C1302 C1301 1.392 . S
C1302 C1303 1.385 . S
C1302 C1304 1.478 . S
C1303 H1297 0.930 . S
C1303 C1299 1.400 . S
C1303 C1302 1.385 . S
C1304 C1302 1.478 . S
C1304 C1306 1.381 . S
C1304 C1310 1.383 . S
C1305 C1301 1.495 . S
C1305 H1311 0.959 . S
C1305 H1312 0.961 . S
C1305 H1313 0.960 . S
C1306 C1304 1.381 . S
C1306 C1307 1.394 . S
C1306 H1314 0.930 . S
C1307 C1306 1.394 . S
C1307 C1308 1.383 . S
C1307 H1315 0.929 . S
C1308 C1307 1.383 . S
C1308 C1309 1.377 . S
C1309 H1293 0.930 . S
C1309 C1308 1.377 . S
C1309 C1310 1.379 . S
C1310 H1294 0.931 . S
C1310 C1304 1.383 . S
C1310 C1309 1.379 . S
H1311 C1305 0.959 . S
H1312 C1305 0.961 . S
H1313 C1305 0.960 . S
H1314 C1306 0.930 . S
H1315 C1307 0.929 . S
H1316 C1324 0.929 . S
H1317 C1326 0.930 . S
H1318 C1328 0.930 . S
H1319 C1331 0.929 . S
H1320 C1334 0.930 . S
H1321 C1336 0.960 . S
H1322 C1336 0.960 . S
H1323 C1336 0.960 . S
C1324 H1316 0.929 . S
C1324 C1325 1.377 . S
C1324 C1326 1.384 . S
C1325 C1324 1.377 . S
C1325 C1331 1.390 . S
C1326 H1317 0.930 . S
C1326 C1324 1.384 . S
C1326 C1327 1.372 . S
C1327 C1326 1.372 . S
C1327 C1328 1.400 . S
C1327 C1332 1.490 . S
C1328 H1318 0.930 . S
C1328 C1327 1.400 . S
C1328 C1331 1.386 . S
H1329 C1345 0.930 . S
H1330 C1346 0.931 . S
C1331 H1319 0.929 . S
C1331 C1325 1.390 . S
C1331 C1328 1.386 . S
C1332 C1327 1.490 . S
C1332 C1334 1.395 . S
C1332 C1335 1.403 . S
H1333 C1339 0.930 . S
C1334 H1320 0.930 . S
C1334 C1332 1.395 . S
C1334 C1337 1.403 . S
C1335 C1332 1.403 . S
C1335 C1336 1.524 . S
C1335 C1339 1.400 . S
C1336 H1321 0.960 . S
C1336 H1322 0.960 . S
C1336 H1323 0.960 . S
C1336 C1335 1.524 . S
C1337 C1334 1.403 . S
C1337 C1338 1.392 . S
C1337 C1341 1.495 . S
C1338 C1337 1.392 . S
C1338 C1339 1.385 . S
C1338 C1340 1.478 . S
C1339 H1333 0.930 . S
C1339 C1335 1.400 . S
C1339 C1338 1.385 . S
C1340 C1338 1.478 . S
C1340 C1342 1.381 . S
C1340 C1346 1.383 . S
C1341 C1337 1.495 . S
C1341 H1347 0.959 . S
C1341 H1348 0.961 . S
C1341 H1349 0.960 . S
C1342 C1340 1.381 . S
C1342 C1343 1.394 . S
C1342 H1350 0.930 . S
C1343 C1342 1.394 . S
C1343 C1344 1.383 . S
C1343 H1351 0.929 . S
C1344 C1343 1.383 . S
C1344 C1345 1.377 . S
C1345 H1329 0.930 . S
C1345 C1344 1.377 . S
C1345 C1346 1.379 . S
C1346 H1330 0.931 . S
C1346 C1340 1.383 . S
C1346 C1345 1.379 . S
H1347 C1341 0.959 . S
H1348 C1341 0.961 . S
H1349 C1341 0.960 . S
H1350 C1342 0.930 . S
H1351 C1343 0.929 . S
H1352 C1360 0.929 . S
H1353 C1362 0.930 . S
H1354 C1364 0.930 . S
H1355 C1367 0.929 . S
H1356 C1370 0.930 . S
H1357 C1372 0.960 . S
H1358 C1372 0.960 . S
H1359 C1372 0.960 . S
C1360 H1352 0.929 . S
C1360 C1361 1.377 . S
C1360 C1362 1.384 . S
C1361 C1360 1.377 . S
C1361 C1367 1.390 . S
C1362 H1353 0.930 . S
C1362 C1360 1.384 . S
C1362 C1363 1.372 . S
C1363 C1362 1.372 . S
C1363 C1364 1.400 . S
C1363 C1368 1.490 . S
C1364 H1354 0.930 . S
C1364 C1363 1.400 . S
C1364 C1367 1.386 . S
H1365 C1381 0.930 . S
H1366 C1382 0.931 . S
C1367 H1355 0.929 . S
C1367 C1361 1.390 . S
C1367 C1364 1.386 . S
C1368 C1363 1.490 . S
C1368 C1370 1.395 . S
C1368 C1371 1.403 . S
H1369 C1375 0.930 . S
C1370 H1356 0.930 . S
C1370 C1368 1.395 . S
C1370 C1373 1.403 . S
C1371 C1368 1.403 . S
C1371 C1372 1.524 . S
C1371 C1375 1.400 . S
C1372 H1357 0.960 . S
C1372 H1358 0.960 . S
C1372 H1359 0.960 . S
C1372 C1371 1.524 . S
C1373 C1370 1.403 . S
C1373 C1374 1.392 . S
C1373 C1377 1.495 . S
C1374 C1373 1.392 . S
C1374 C1375 1.385 . S
C1374 C1376 1.478 . S
C1375 H1369 0.930 . S
C1375 C1371 1.400 . S
C1375 C1374 1.385 . S
C1376 C1374 1.478 . S
C1376 C1378 1.381 . S
C1376 C1382 1.383 . S
C1377 C1373 1.495 . S
C1377 H1383 0.959 . S
C1377 H1384 0.961 . S
C1377 H1385 0.960 . S
C1378 C1376 1.381 . S
C1378 C1379 1.394 . S
C1378 H1386 0.930 . S
C1379 C1378 1.394 . S
C1379 C1380 1.383 1_556 S
C1379 H1387 0.929 . S
C1380 C1379 1.383 1_554 S
C1380 C1381 1.377 . S
C1381 H1365 0.930 . S
C1381 C1380 1.377 . S
C1381 C1382 1.379 1_554 S
C1382 H1366 0.931 . S
C1382 C1376 1.383 . S
C1382 C1381 1.379 1_556 S
H1383 C1377 0.959 . S
H1384 C1377 0.961 . S
H1385 C1377 0.960 . S
H1386 C1378 0.930 . S
H1387 C1379 0.929 . S
H1388 C1396 0.929 . S
H1389 C1398 0.930 . S
H1390 C1400 0.930 . S
H1391 C1403 0.929 . S
H1392 C1406 0.930 . S
H1393 C1408 0.960 . S
H1394 C1408 0.960 . S
H1395 C1408 0.960 . S
C1396 H1388 0.929 . S
C1396 C1397 1.377 . S
C1396 C1398 1.384 . S
C1397 C1396 1.377 . S
C1397 C1403 1.390 . S
C1398 H1389 0.930 . S
C1398 C1396 1.384 . S
C1398 C1399 1.372 . S
C1399 C1398 1.372 . S
C1399 C1400 1.400 . S
C1399 C1404 1.490 . S
C1400 H1390 0.930 . S
C1400 C1399 1.400 . S
C1400 C1403 1.386 . S
H1401 C1417 0.930 . S
H1402 C1418 0.931 . S
C1403 H1391 0.929 . S
C1403 C1397 1.390 . S
C1403 C1400 1.386 . S
C1404 C1399 1.490 . S
C1404 C1406 1.395 . S
C1404 C1407 1.403 . S
H1405 C1411 0.930 . S
C1406 H1392 0.930 . S
C1406 C1404 1.395 . S
C1406 C1409 1.403 . S
C1407 C1404 1.403 . S
C1407 C1408 1.524 . S
C1407 C1411 1.400 . S
C1408 H1393 0.960 . S
C1408 H1394 0.960 . S
C1408 H1395 0.960 . S
C1408 C1407 1.524 . S
C1409 C1406 1.403 . S
C1409 C1410 1.392 . S
C1409 C1413 1.495 . S
C1410 C1409 1.392 . S
C1410 C1411 1.385 . S
C1410 C1412 1.478 . S
C1411 H1405 0.930 . S
C1411 C1407 1.400 . S
C1411 C1410 1.385 . S
C1412 C1410 1.478 . S
C1412 C1414 1.381 . S
C1412 C1418 1.383 . S
C1413 C1409 1.495 . S
C1413 H1419 0.959 . S
C1413 H1420 0.961 . S
C1413 H1421 0.960 . S
C1414 C1412 1.381 . S
C1414 C1415 1.394 1_554 S
C1414 H1422 0.930 1_554 S
C1415 C1414 1.394 1_556 S
C1415 C1416 1.383 . S
C1415 H1423 0.929 . S
C1416 C1415 1.383 . S
C1416 C1417 1.377 1_556 S
C1417 H1401 0.930 . S
C1417 C1416 1.377 1_554 S
C1417 C1418 1.379 . S
C1418 H1402 0.931 . S
C1418 C1412 1.383 . S
C1418 C1417 1.379 . S
H1419 C1413 0.959 . S
H1420 C1413 0.961 . S
H1421 C1413 0.960 . S
H1422 C1414 0.930 1_556 S
H1423 C1415 0.929 . S
H1424 C1432 0.929 . S
H1425 C1434 0.930 . S
H1426 C1436 0.930 . S
H1427 C1439 0.929 . S
H1428 C1442 0.930 . S
H1429 C1444 0.960 . S
H1430 C1444 0.960 . S
H1431 C1444 0.960 . S
C1432 H1424 0.929 . S
C1432 C1433 1.377 . S
C1432 C1434 1.384 . S
C1433 C1432 1.377 . S
C1433 C1439 1.390 . S
C1434 H1425 0.930 . S
C1434 C1432 1.384 . S
C1434 C1435 1.372 . S
C1435 C1434 1.372 . S
C1435 C1436 1.400 . S
C1435 C1440 1.490 . S
C1436 H1426 0.930 . S
C1436 C1435 1.400 . S
C1436 C1439 1.386 . S
H1437 C1453 0.930 . S
H1438 C1454 0.931 . S
C1439 H1427 0.929 . S
C1439 C1433 1.390 . S
C1439 C1436 1.386 . S
C1440 C1435 1.490 . S
C1440 C1442 1.395 . S
C1440 C1443 1.403 . S
H1441 C1447 0.930 . S
C1442 H1428 0.930 . S
C1442 C1440 1.395 . S
C1442 C1445 1.403 . S
C1443 C1440 1.403 . S
C1443 C1444 1.524 . S
C1443 C1447 1.400 . S
C1444 H1429 0.960 . S
C1444 H1430 0.960 . S
C1444 H1431 0.960 . S
C1444 C1443 1.524 . S
C1445 C1442 1.403 . S
C1445 C1446 1.392 . S
C1445 C1449 1.495 . S
C1446 C1445 1.392 . S
C1446 C1447 1.385 . S
C1446 C1448 1.478 . S
C1447 H1441 0.930 . S
C1447 C1443 1.400 . S
C1447 C1446 1.385 . S
C1448 C1446 1.478 . S
C1448 C1450 1.381 . S
C1448 C1454 1.383 . S
C1449 C1445 1.495 . S
C1449 H1455 0.959 . S
C1449 H1456 0.961 . S
C1449 H1457 0.960 . S
C1450 C1448 1.381 . S
C1450 C1451 1.394 . S
C1450 H1458 0.930 . S
C1451 C1450 1.394 . S
C1451 C1452 1.383 . S
C1451 H1459 0.929 . S
C1452 C1451 1.383 . S
C1452 C1453 1.377 . S
C1453 H1437 0.930 . S
C1453 C1452 1.377 . S
C1453 C1454 1.379 . S
C1454 H1438 0.931 . S
C1454 C1448 1.383 . S
C1454 C1453 1.379 . S
H1455 C1449 0.959 . S
H1456 C1449 0.961 . S
H1457 C1449 0.960 . S
H1458 C1450 0.930 . S
H1459 C1451 0.929 . S
H1460 C1468 0.929 . S
H1461 C1470 0.930 . S
H1462 C1472 0.930 . S
H1463 C1475 0.929 . S
H1464 C1478 0.930 . S
H1465 C1480 0.960 . S
H1466 C1480 0.960 . S
H1467 C1480 0.960 . S
C1468 H1460 0.929 . S
C1468 C1469 1.377 . S
C1468 C1470 1.384 . S
C1469 C1468 1.377 . S
C1469 C1475 1.390 . S
C1470 H1461 0.930 . S
C1470 C1468 1.384 . S
C1470 C1471 1.372 . S
C1471 C1470 1.372 . S
C1471 C1472 1.400 . S
C1471 C1476 1.490 . S
C1472 H1462 0.930 . S
C1472 C1471 1.400 . S
C1472 C1475 1.386 . S
H1473 C1489 0.930 . S
H1474 C1490 0.931 . S
C1475 H1463 0.929 . S
C1475 C1469 1.390 . S
C1475 C1472 1.386 . S
C1476 C1471 1.490 . S
C1476 C1478 1.395 . S
C1476 C1479 1.403 . S
H1477 C1483 0.930 . S
C1478 H1464 0.930 . S
C1478 C1476 1.395 . S
C1478 C1481 1.403 . S
C1479 C1476 1.403 . S
C1479 C1480 1.524 . S
C1479 C1483 1.400 . S
C1480 H1465 0.960 . S
C1480 H1466 0.960 . S
C1480 H1467 0.960 . S
C1480 C1479 1.524 . S
C1481 C1478 1.403 . S
C1481 C1482 1.392 . S
C1481 C1485 1.495 . S
C1482 C1481 1.392 . S
C1482 C1483 1.385 . S
C1482 C1484 1.478 . S
C1483 H1477 0.930 . S
C1483 C1479 1.400 . S
C1483 C1482 1.385 . S
C1484 C1482 1.478 . S
C1484 C1486 1.381 . S
C1484 C1490 1.383 . S
C1485 C1481 1.495 . S
C1485 H1491 0.959 . S
C1485 H1492 0.961 . S
C1485 H1493 0.960 . S
C1486 C1484 1.381 . S
C1486 C1487 1.394 . S
C1486 H1494 0.930 . S
C1487 C1486 1.394 . S
C1487 C1488 1.383 . S
C1487 H1495 0.929 . S
C1488 C1487 1.383 . S
C1488 C1489 1.377 . S
C1489 H1473 0.930 . S
C1489 C1488 1.377 . S
C1489 C1490 1.379 . S
C1490 H1474 0.931 . S
C1490 C1484 1.383 . S
C1490 C1489 1.379 . S
H1491 C1485 0.959 . S
H1492 C1485 0.961 . S
H1493 C1485 0.960 . S
H1494 C1486 0.930 . S
H1495 C1487 0.929 . S
H1496 C1504 0.929 . S
H1497 C1506 0.930 . S
H1498 C1508 0.930 . S
H1499 C1511 0.929 . S
H1500 C1514 0.930 . S
H1501 C1516 0.960 . S
H1502 C1516 0.960 . S
H1503 C1516 0.960 . S
C1504 H1496 0.929 . S
C1504 C1505 1.377 1_554 S
C1504 C1506 1.384 . S
C1505 C1504 1.377 1_556 S
C1505 C1511 1.390 . S
C1506 H1497 0.930 . S
C1506 C1504 1.384 . S
C1506 C1507 1.372 . S
C1507 C1506 1.372 . S
C1507 C1508 1.400 . S
C1507 C1512 1.490 . S
C1508 H1498 0.930 . S
C1508 C1507 1.400 . S
C1508 C1511 1.386 1_554 S
H1509 C1525 0.930 . S
H1510 C1526 0.931 . S
C1511 H1499 0.929 . S
C1511 C1505 1.390 . S
C1511 C1508 1.386 1_556 S
C1512 C1507 1.490 . S
C1512 C1514 1.395 . S
C1512 C1515 1.403 . S
H1513 C1519 0.930 . S
C1514 H1500 0.930 . S
C1514 C1512 1.395 . S
C1514 C1517 1.403 . S
C1515 C1512 1.403 . S
C1515 C1516 1.524 . S
C1515 C1519 1.400 . S
C1516 H1501 0.960 . S
C1516 H1502 0.960 . S
C1516 H1503 0.960 . S
C1516 C1515 1.524 . S
C1517 C1514 1.403 . S
C1517 C1518 1.392 . S
C1517 C1521 1.495 . S
C1518 C1517 1.392 . S
C1518 C1519 1.385 . S
C1518 C1520 1.478 . S
C1519 H1513 0.930 . S
C1519 C1515 1.400 . S
C1519 C1518 1.385 . S
C1520 C1518 1.478 . S
C1520 C1522 1.381 . S
C1520 C1526 1.383 . S
C1521 C1517 1.495 . S
C1521 H1527 0.959 . S
C1521 H1528 0.961 . S
C1521 H1529 0.960 . S
C1522 C1520 1.381 . S
C1522 C1523 1.394 . S
C1522 H1530 0.930 . S
C1523 C1522 1.394 . S
C1523 C1524 1.383 . S
C1523 H1531 0.929 . S
C1524 C1523 1.383 . S
C1524 C1525 1.377 . S
C1525 H1509 0.930 . S
C1525 C1524 1.377 . S
C1525 C1526 1.379 . S
C1526 H1510 0.931 . S
C1526 C1520 1.383 . S
C1526 C1525 1.379 . S
H1527 C1521 0.959 . S
H1528 C1521 0.961 . S
H1529 C1521 0.960 . S
H1530 C1522 0.930 . S
H1531 C1523 0.929 . S
H1532 C1540 0.929 . S
H1533 C1542 0.930 . S
H1534 C1544 0.930 . S
H1535 C1547 0.929 . S
H1536 C1550 0.930 . S
H1537 C1552 0.960 . S
H1538 C1552 0.960 . S
H1539 C1552 0.960 . S
C1540 H1532 0.929 . S
C1540 C1541 1.377 . S
C1540 C1542 1.384 . S
C1541 C1540 1.377 . S
C1541 C1547 1.390 . S
C1542 H1533 0.930 . S
C1542 C1540 1.384 . S
C1542 C1543 1.372 . S
C1543 C1542 1.372 . S
C1543 C1544 1.400 . S
C1543 C1548 1.490 . S
C1544 H1534 0.930 . S
C1544 C1543 1.400 . S
C1544 C1547 1.386 . S
H1545 C1561 0.930 . S
H1546 C1562 0.931 . S
C1547 H1535 0.929 . S
C1547 C1541 1.390 . S
C1547 C1544 1.386 . S
C1548 C1543 1.490 . S
C1548 C1550 1.395 . S
C1548 C1551 1.403 . S
H1549 C1555 0.930 . S
C1550 H1536 0.930 . S
C1550 C1548 1.395 . S
C1550 C1553 1.403 . S
C1551 C1548 1.403 . S
C1551 C1552 1.524 . S
C1551 C1555 1.400 . S
C1552 H1537 0.960 . S
C1552 H1538 0.960 . S
C1552 H1539 0.960 . S
C1552 C1551 1.524 . S
C1553 C1550 1.403 . S
C1553 C1554 1.392 . S
C1553 C1557 1.495 . S
C1554 C1553 1.392 . S
C1554 C1555 1.385 . S
C1554 C1556 1.478 . S
C1555 H1549 0.930 . S
C1555 C1551 1.400 . S
C1555 C1554 1.385 . S
C1556 C1554 1.478 . S
C1556 C1558 1.381 . S
C1556 C1562 1.383 . S
C1557 C1553 1.495 . S
C1557 H1563 0.959 . S
C1557 H1564 0.961 . S
C1557 H1565 0.960 . S
C1558 C1556 1.381 . S
C1558 C1559 1.394 1_556 S
C1558 H1566 0.930 . S
C1559 C1558 1.394 1_554 S
C1559 C1560 1.383 . S
C1559 H1567 0.929 . S
C1560 C1559 1.383 . S
C1560 C1561 1.377 1_554 S
C1561 H1545 0.930 . S
C1561 C1560 1.377 1_556 S
C1561 C1562 1.379 . S
C1562 H1546 0.931 . S
C1562 C1556 1.383 . S
C1562 C1561 1.379 . S
H1563 C1557 0.959 . S
H1564 C1557 0.961 . S
H1565 C1557 0.960 . S
H1566 C1558 0.930 . S
H1567 C1559 0.929 . S
H1568 C1576 0.929 . S
H1569 C1578 0.930 . S
H1570 C1580 0.930 . S
H1571 C1583 0.929 . S
H1572 C1586 0.930 . S
H1573 C1588 0.960 . S
H1574 C1588 0.960 . S
H1575 C1588 0.960 . S
C1576 H1568 0.929 . S
C1576 C1577 1.377 . S
C1576 C1578 1.384 . S
C1577 C1576 1.377 . S
C1577 C1583 1.390 . S
C1578 H1569 0.930 . S
C1578 C1576 1.384 . S
C1578 C1579 1.372 . S
C1579 C1578 1.372 . S
C1579 C1580 1.400 . S
C1579 C1584 1.490 . S
C1580 H1570 0.930 . S
C1580 C1579 1.400 . S
C1580 C1583 1.386 . S
H1581 C1597 0.930 . S
H1582 C1598 0.931 . S
C1583 H1571 0.929 . S
C1583 C1577 1.390 . S
C1583 C1580 1.386 . S
C1584 C1579 1.490 . S
C1584 C1586 1.395 . S
C1584 C1587 1.403 . S
H1585 C1591 0.930 . S
C1586 H1572 0.930 . S
C1586 C1584 1.395 . S
C1586 C1589 1.403 . S
C1587 C1584 1.403 . S
C1587 C1588 1.524 . S
C1587 C1591 1.400 . S
C1588 H1573 0.960 . S
C1588 H1574 0.960 . S
C1588 H1575 0.960 . S
C1588 C1587 1.524 . S
C1589 C1586 1.403 . S
C1589 C1590 1.392 . S
C1589 C1593 1.495 . S
C1590 C1589 1.392 . S
C1590 C1591 1.385 . S
C1590 C1592 1.478 . S
C1591 H1585 0.930 . S
C1591 C1587 1.400 . S
C1591 C1590 1.385 . S
C1592 C1590 1.478 . S
C1592 C1594 1.381 . S
C1592 C1598 1.383 . S
C1593 C1589 1.495 . S
C1593 H1599 0.959 . S
C1593 H1600 0.961 . S
C1593 H1601 0.960 . S
C1594 C1592 1.381 . S
C1594 C1595 1.394 . S
C1594 H1602 0.930 . S
C1595 C1594 1.394 . S
C1595 C1596 1.383 . S
C1595 H1603 0.929 . S
C1596 C1595 1.383 . S
C1596 C1597 1.377 . S
C1597 H1581 0.930 . S
C1597 C1596 1.377 . S
C1597 C1598 1.379 . S
C1598 H1582 0.931 . S
C1598 C1592 1.383 . S
C1598 C1597 1.379 . S
H1599 C1593 0.959 . S
H1600 C1593 0.961 . S
H1601 C1593 0.960 . S
H1602 C1594 0.930 . S
H1603 C1595 0.929 . S
H1604 C1612 0.929 . S
H1605 C1614 0.930 . S
H1606 C1616 0.930 . S
H1607 C1619 0.929 . S
H1608 C1622 0.930 . S
H1609 C1624 0.960 . S
H1610 C1624 0.960 . S
H1611 C1624 0.960 . S
C1612 H1604 0.929 . S
C1612 C1613 1.377 . S
C1612 C1614 1.384 . S
C1613 C1612 1.377 . S
C1613 C1619 1.390 . S
C1614 H1605 0.930 . S
C1614 C1612 1.384 . S
C1614 C1615 1.372 . S
C1615 C1614 1.372 . S
C1615 C1616 1.400 . S
C1615 C1620 1.490 . S
C1616 H1606 0.930 . S
C1616 C1615 1.400 . S
C1616 C1619 1.386 . S
H1617 C1633 0.930 . S
H1618 C1634 0.931 . S
C1619 H1607 0.929 . S
C1619 C1613 1.390 . S
C1619 C1616 1.386 . S
C1620 C1615 1.490 . S
C1620 C1622 1.395 . S
C1620 C1623 1.403 . S
H1621 C1627 0.930 . S
C1622 H1608 0.930 . S
C1622 C1620 1.395 . S
C1622 C1625 1.403 1_655 S
C1623 C1620 1.403 . S
C1623 C1624 1.524 . S
C1623 C1627 1.400 1_655 S
C1624 H1609 0.960 . S
C1624 H1610 0.960 . S
C1624 H1611 0.960 . S
C1624 C1623 1.524 . S
C1625 C1622 1.403 1_455 S
C1625 C1626 1.392 . S
C1625 C1629 1.495 . S
C1626 C1625 1.392 . S
C1626 C1627 1.385 . S
C1626 C1628 1.478 . S
C1627 H1621 0.930 . S
C1627 C1623 1.400 1_455 S
C1627 C1626 1.385 . S
C1628 C1626 1.478 . S
C1628 C1630 1.381 . S
C1628 C1634 1.383 . S
C1629 C1625 1.495 . S
C1629 H1635 0.959 . S
C1629 H1636 0.961 . S
C1629 H1637 0.960 . S
C1630 C1628 1.381 . S
C1630 C1631 1.394 . S
C1630 H1638 0.930 . S
C1631 C1630 1.394 . S
C1631 C1632 1.383 . S
C1631 H1639 0.929 . S
C1632 C1631 1.383 . S
C1632 C1633 1.377 . S
C1633 H1617 0.930 . S
C1633 C1632 1.377 . S
C1633 C1634 1.379 . S
C1634 H1618 0.931 . S
C1634 C1628 1.383 . S
C1634 C1633 1.379 . S
H1635 C1629 0.959 . S
H1636 C1629 0.961 . S
H1637 C1629 0.960 . S
H1638 C1630 0.930 . S
H1639 C1631 0.929 . S
H1640 C1648 0.929 . S
H1641 C1650 0.930 . S
H1642 C1652 0.930 . S
H1643 C1655 0.929 . S
H1644 C1658 0.930 . S
H1645 C1660 0.960 . S
H1646 C1660 0.960 . S
H1647 C1660 0.960 . S
C1648 H1640 0.929 . S
C1648 C1649 1.377 . S
C1648 C1650 1.384 . S
C1649 C1648 1.377 . S
C1649 C1655 1.390 . S
C1650 H1641 0.930 . S
C1650 C1648 1.384 . S
C1650 C1651 1.372 . S
C1651 C1650 1.372 . S
C1651 C1652 1.400 . S
C1651 C1656 1.490 . S
C1652 H1642 0.930 . S
C1652 C1651 1.400 . S
C1652 C1655 1.386 . S
H1653 C1669 0.930 . S
H1654 C1670 0.931 . S
C1655 H1643 0.929 . S
C1655 C1649 1.390 . S
C1655 C1652 1.386 . S
C1656 C1651 1.490 . S
C1656 C1658 1.395 . S
C1656 C1659 1.403 . S
H1657 C1663 0.930 . S
C1658 H1644 0.930 . S
C1658 C1656 1.395 . S
C1658 C1661 1.403 . S
C1659 C1656 1.403 . S
C1659 C1660 1.524 . S
C1659 C1663 1.400 . S
C1660 H1645 0.960 . S
C1660 H1646 0.960 . S
C1660 H1647 0.960 . S
C1660 C1659 1.524 . S
C1661 C1658 1.403 . S
C1661 C1662 1.392 . S
C1661 C1665 1.495 . S
C1662 C1661 1.392 . S
C1662 C1663 1.385 . S
C1662 C1664 1.478 . S
C1663 H1657 0.930 . S
C1663 C1659 1.400 . S
C1663 C1662 1.385 . S
C1664 C1662 1.478 . S
C1664 C1666 1.381 . S
C1664 C1670 1.383 . S
C1665 C1661 1.495 . S
C1665 H1671 0.959 . S
C1665 H1672 0.961 . S
C1665 H1673 0.960 . S
C1666 C1664 1.381 . S
C1666 C1667 1.394 . S
C1666 H1674 0.930 . S
C1667 C1666 1.394 . S
C1667 C1668 1.383 . S
C1667 H1675 0.929 . S
C1668 C1667 1.383 . S
C1668 C1669 1.377 . S
C1669 H1653 0.930 . S
C1669 C1668 1.377 . S
C1669 C1670 1.379 . S
C1670 H1654 0.931 . S
C1670 C1664 1.383 . S
C1670 C1669 1.379 . S
H1671 C1665 0.959 . S
H1672 C1665 0.961 . S
H1673 C1665 0.960 . S
H1674 C1666 0.930 . S
H1675 C1667 0.929 . S
H1676 C1684 0.929 . S
H1677 C1686 0.930 . S
H1678 C1688 0.930 . S
H1679 C1691 0.929 . S
H1680 C1694 0.930 . S
H1681 C1696 0.960 . S
H1682 C1696 0.960 . S
H1683 C1696 0.960 . S
C1684 H1676 0.929 . S
C1684 C1685 1.377 . S
C1684 C1686 1.384 . S
C1685 C1684 1.377 . S
C1685 C1691 1.390 . S
C1686 H1677 0.930 . S
C1686 C1684 1.384 . S
C1686 C1687 1.372 . S
C1687 C1686 1.372 . S
C1687 C1688 1.400 . S
C1687 C1692 1.490 . S
C1688 H1678 0.930 . S
C1688 C1687 1.400 . S
C1688 C1691 1.386 . S
H1689 C1705 0.930 . S
H1690 C1706 0.931 . S
C1691 H1679 0.929 . S
C1691 C1685 1.390 . S
C1691 C1688 1.386 . S
C1692 C1687 1.490 . S
C1692 C1694 1.395 . S
C1692 C1695 1.403 . S
H1693 C1699 0.930 . S
C1694 H1680 0.930 . S
C1694 C1692 1.395 . S
C1694 C1697 1.403 . S
C1695 C1692 1.403 . S
C1695 C1696 1.524 . S
C1695 C1699 1.400 . S
C1696 H1681 0.960 . S
C1696 H1682 0.960 . S
C1696 H1683 0.960 . S
C1696 C1695 1.524 . S
C1697 C1694 1.403 . S
C1697 C1698 1.392 . S
C1697 C1701 1.495 . S
C1698 C1697 1.392 . S
C1698 C1699 1.385 . S
C1698 C1700 1.478 . S
C1699 H1693 0.930 . S
C1699 C1695 1.400 . S
C1699 C1698 1.385 . S
C1700 C1698 1.478 . S
C1700 C1702 1.381 . S
C1700 C1706 1.383 . S
C1701 C1697 1.495 . S
C1701 H1707 0.959 . S
C1701 H1708 0.961 . S
C1701 H1709 0.960 . S
C1702 C1700 1.381 . S
C1702 C1703 1.394 . S
C1702 H1710 0.930 . S
C1703 C1702 1.394 . S
C1703 C1704 1.383 . S
C1703 H1711 0.929 . S
C1704 C1703 1.383 . S
C1704 C1705 1.377 . S
C1705 H1689 0.930 . S
C1705 C1704 1.377 . S
C1705 C1706 1.379 . S
C1706 H1690 0.931 . S
C1706 C1700 1.383 . S
C1706 C1705 1.379 . S
H1707 C1701 0.959 . S
H1708 C1701 0.961 . S
H1709 C1701 0.960 . S
H1710 C1702 0.930 . S
H1711 C1703 0.929 . S
H1712 C1720 0.929 . S
H1713 C1722 0.930 . S
H1714 C1724 0.930 . S
H1715 C1727 0.929 . S
H1716 C1730 0.930 . S
H1717 C1732 0.960 . S
H1718 C1732 0.960 . S
H1719 C1732 0.960 . S
C1720 H1712 0.929 . S
C1720 C1721 1.377 . S
C1720 C1722 1.384 . S
C1721 C1720 1.377 . S
C1721 C1727 1.390 . S
C1722 H1713 0.930 . S
C1722 C1720 1.384 . S
C1722 C1723 1.372 . S
C1723 C1722 1.372 . S
C1723 C1724 1.400 . S
C1723 C1728 1.490 . S
C1724 H1714 0.930 . S
C1724 C1723 1.400 . S
C1724 C1727 1.386 . S
H1725 C1741 0.930 . S
H1726 C1742 0.931 . S
C1727 H1715 0.929 . S
C1727 C1721 1.390 . S
C1727 C1724 1.386 . S
C1728 C1723 1.490 . S
C1728 C1730 1.395 . S
C1728 C1731 1.403 . S
H1729 C1735 0.930 . S
C1730 H1716 0.930 . S
C1730 C1728 1.395 . S
C1730 C1733 1.403 . S
C1731 C1728 1.403 . S
C1731 C1732 1.524 . S
C1731 C1735 1.400 . S
C1732 H1717 0.960 . S
C1732 H1718 0.960 . S
C1732 H1719 0.960 . S
C1732 C1731 1.524 . S
C1733 C1730 1.403 . S
C1733 C1734 1.392 . S
C1733 C1737 1.495 . S
C1734 C1733 1.392 . S
C1734 C1735 1.385 . S
C1734 C1736 1.478 . S
C1735 H1729 0.930 . S
C1735 C1731 1.400 . S
C1735 C1734 1.385 . S
C1736 C1734 1.478 . S
C1736 C1738 1.381 . S
C1736 C1742 1.383 . S
C1737 C1733 1.495 . S
C1737 H1743 0.959 . S
C1737 H1744 0.961 . S
C1737 H1745 0.960 . S
C1738 C1736 1.381 . S
C1738 C1739 1.394 . S
C1738 H1746 0.930 . S
C1739 C1738 1.394 . S
C1739 C1740 1.383 . S
C1739 H1747 0.929 . S
C1740 C1739 1.383 . S
C1740 C1741 1.377 . S
C1741 H1725 0.930 . S
C1741 C1740 1.377 . S
C1741 C1742 1.379 . S
C1742 H1726 0.931 . S
C1742 C1736 1.383 . S
C1742 C1741 1.379 . S
H1743 C1737 0.959 . S
H1744 C1737 0.961 . S
H1745 C1737 0.960 . S
H1746 C1738 0.930 . S
H1747 C1739 0.929 . S
H1748 C1756 0.929 . S
H1749 C1758 0.930 . S
H1750 C1760 0.930 . S
H1751 C1763 0.929 . S
H1752 C1766 0.930 . S
H1753 C1768 0.960 . S
H1754 C1768 0.960 . S
H1755 C1768 0.960 . S
C1756 H1748 0.929 . S
C1756 C1757 1.377 . S
C1756 C1758 1.384 . S
C1757 C1756 1.377 . S
C1757 C1763 1.390 . S
C1758 H1749 0.930 . S
C1758 C1756 1.384 . S
C1758 C1759 1.372 . S
C1759 C1758 1.372 . S
C1759 C1760 1.400 . S
C1759 C1764 1.490 . S
C1760 H1750 0.930 . S
C1760 C1759 1.400 . S
C1760 C1763 1.386 . S
H1761 C1777 0.930 . S
H1762 C1778 0.931 . S
C1763 H1751 0.929 . S
C1763 C1757 1.390 . S
C1763 C1760 1.386 . S
C1764 C1759 1.490 . S
C1764 C1766 1.395 . S
C1764 C1767 1.403 . S
H1765 C1771 0.930 . S
C1766 H1752 0.930 . S
C1766 C1764 1.395 . S
C1766 C1769 1.403 . S
C1767 C1764 1.403 . S
C1767 C1768 1.524 . S
C1767 C1771 1.400 . S
C1768 H1753 0.960 . S
C1768 H1754 0.960 . S
C1768 H1755 0.960 . S
C1768 C1767 1.524 . S
C1769 C1766 1.403 . S
C1769 C1770 1.392 . S
C1769 C1773 1.495 . S
C1770 C1769 1.392 . S
C1770 C1771 1.385 . S
C1770 C1772 1.478 . S
C1771 H1765 0.930 . S
C1771 C1767 1.400 . S
C1771 C1770 1.385 . S
C1772 C1770 1.478 . S
C1772 C1774 1.381 . S
C1772 C1778 1.383 . S
C1773 C1769 1.495 . S
C1773 H1779 0.959 . S
C1773 H1780 0.961 . S
C1773 H1781 0.960 . S
C1774 C1772 1.381 . S
C1774 C1775 1.394 . S
C1774 H1782 0.930 . S
C1775 C1774 1.394 . S
C1775 C1776 1.383 . S
C1775 H1783 0.929 . S
C1776 C1775 1.383 . S
C1776 C1777 1.377 . S
C1777 H1761 0.930 . S
C1777 C1776 1.377 . S
C1777 C1778 1.379 . S
C1778 H1762 0.931 . S
C1778 C1772 1.383 . S
C1778 C1777 1.379 . S
H1779 C1773 0.959 . S
H1780 C1773 0.961 . S
H1781 C1773 0.960 . S
H1782 C1774 0.930 . S
H1783 C1775 0.929 . S
H1784 C1792 0.929 . S
H1785 C1794 0.930 . S
H1786 C1796 0.930 . S
H1787 C1799 0.929 . S
H1788 C1802 0.930 . S
H1789 C1804 0.960 . S
H1790 C1804 0.960 . S
H1791 C1804 0.960 . S
C1792 H1784 0.929 . S
C1792 C1793 1.377 . S
C1792 C1794 1.384 . S
C1793 C1792 1.377 . S
C1793 C1799 1.390 . S
C1794 H1785 0.930 . S
C1794 C1792 1.384 . S
C1794 C1795 1.372 . S
C1795 C1794 1.372 . S
C1795 C1796 1.400 . S
C1795 C1800 1.490 . S
C1796 H1786 0.930 . S
C1796 C1795 1.400 . S
C1796 C1799 1.386 . S
H1797 C1813 0.930 . S
H1798 C1814 0.931 . S
C1799 H1787 0.929 . S
C1799 C1793 1.390 . S
C1799 C1796 1.386 . S
C1800 C1795 1.490 . S
C1800 C1802 1.395 . S
C1800 C1803 1.403 . S
H1801 C1807 0.930 . S
C1802 H1788 0.930 . S
C1802 C1800 1.395 . S
C1802 C1805 1.403 . S
C1803 C1800 1.403 . S
C1803 C1804 1.524 . S
C1803 C1807 1.400 . S
C1804 H1789 0.960 . S
C1804 H1790 0.960 . S
C1804 H1791 0.960 . S
C1804 C1803 1.524 . S
C1805 C1802 1.403 . S
C1805 C1806 1.392 . S
C1805 C1809 1.495 . S
C1806 C1805 1.392 . S
C1806 C1807 1.385 . S
C1806 C1808 1.478 . S
C1807 H1801 0.930 . S
C1807 C1803 1.400 . S
C1807 C1806 1.385 . S
C1808 C1806 1.478 . S
C1808 C1810 1.381 . S
C1808 C1814 1.383 . S
C1809 C1805 1.495 . S
C1809 H1815 0.959 . S
C1809 H1816 0.961 . S
C1809 H1817 0.960 . S
C1810 C1808 1.381 . S
C1810 C1811 1.394 . S
C1810 H1818 0.930 . S
C1811 C1810 1.394 . S
C1811 C1812 1.383 . S
C1811 H1819 0.929 . S
C1812 C1811 1.383 . S
C1812 C1813 1.377 . S
C1813 H1797 0.930 . S
C1813 C1812 1.377 . S
C1813 C1814 1.379 . S
C1814 H1798 0.931 . S
C1814 C1808 1.383 . S
C1814 C1813 1.379 . S
H1815 C1809 0.959 . S
H1816 C1809 0.961 . S
H1817 C1809 0.960 . S
H1818 C1810 0.930 . S
H1819 C1811 0.929 . S
H1820 C1828 0.929 . S
H1821 C1830 0.930 . S
H1822 C1832 0.930 . S
H1823 C1835 0.929 . S
H1824 C1838 0.930 . S
H1825 C1840 0.960 . S
H1826 C1840 0.960 . S
H1827 C1840 0.960 . S
C1828 H1820 0.929 . S
C1828 C1829 1.377 . S
C1828 C1830 1.384 . S
C1829 C1828 1.377 . S
C1829 C1835 1.390 . S
C1830 H1821 0.930 . S
C1830 C1828 1.384 . S
C1830 C1831 1.372 . S
C1831 C1830 1.372 . S
C1831 C1832 1.400 . S
C1831 C1836 1.490 . S
C1832 H1822 0.930 . S
C1832 C1831 1.400 . S
C1832 C1835 1.386 . S
H1833 C1849 0.930 . S
H1834 C1850 0.931 . S
C1835 H1823 0.929 . S
C1835 C1829 1.390 . S
C1835 C1832 1.386 . S
C1836 C1831 1.490 . S
C1836 C1838 1.395 . S
C1836 C1839 1.403 . S
H1837 C1843 0.930 . S
C1838 H1824 0.930 . S
C1838 C1836 1.395 . S
C1838 C1841 1.403 1_655 S
C1839 C1836 1.403 . S
C1839 C1840 1.524 . S
C1839 C1843 1.400 1_655 S
C1840 H1825 0.960 . S
C1840 H1826 0.960 . S
C1840 H1827 0.960 . S
C1840 C1839 1.524 . S
C1841 C1838 1.403 1_455 S
C1841 C1842 1.392 . S
C1841 C1845 1.495 . S
C1842 C1841 1.392 . S
C1842 C1843 1.385 . S
C1842 C1844 1.478 . S
C1843 H1837 0.930 . S
C1843 C1839 1.400 1_455 S
C1843 C1842 1.385 . S
C1844 C1842 1.478 . S
C1844 C1846 1.381 . S
C1844 C1850 1.383 . S
C1845 C1841 1.495 . S
C1845 H1851 0.959 . S
C1845 H1852 0.961 . S
C1845 H1853 0.960 . S
C1846 C1844 1.381 . S
C1846 C1847 1.394 . S
C1846 H1854 0.930 . S
C1847 C1846 1.394 . S
C1847 C1848 1.383 . S
C1847 H1855 0.929 . S
C1848 C1847 1.383 . S
C1848 C1849 1.377 . S
C1849 H1833 0.930 . S
C1849 C1848 1.377 . S
C1849 C1850 1.379 . S
C1850 H1834 0.931 . S
C1850 C1844 1.383 . S
C1850 C1849 1.379 . S
H1851 C1845 0.959 . S
H1852 C1845 0.961 . S
H1853 C1845 0.960 . S
H1854 C1846 0.930 . S
H1855 C1847 0.929 . S
H1856 C1864 0.929 . S
H1857 C1866 0.930 . S
H1858 C1868 0.930 . S
H1859 C1871 0.929 . S
H1860 C1874 0.930 . S
H1861 C1876 0.960 . S
H1862 C1876 0.960 . S
H1863 C1876 0.960 . S
C1864 H1856 0.929 . S
C1864 C1865 1.377 . S
C1864 C1866 1.384 . S
C1865 C1864 1.377 . S
C1865 C1871 1.390 . S
C1866 H1857 0.930 . S
C1866 C1864 1.384 . S
C1866 C1867 1.372 . S
C1867 C1866 1.372 . S
C1867 C1868 1.400 . S
C1867 C1872 1.490 . S
C1868 H1858 0.930 . S
C1868 C1867 1.400 . S
C1868 C1871 1.386 . S
H1869 C1885 0.930 . S
H1870 C1886 0.931 . S
C1871 H1859 0.929 . S
C1871 C1865 1.390 . S
C1871 C1868 1.386 . S
C1872 C1867 1.490 . S
C1872 C1874 1.395 . S
C1872 C1875 1.403 . S
H1873 C1879 0.930 . S
C1874 H1860 0.930 . S
C1874 C1872 1.395 . S
C1874 C1877 1.403 . S
C1875 C1872 1.403 . S
C1875 C1876 1.524 . S
C1875 C1879 1.400 . S
C1876 H1861 0.960 . S
C1876 H1862 0.960 . S
C1876 H1863 0.960 . S
C1876 C1875 1.524 . S
C1877 C1874 1.403 . S
C1877 C1878 1.392 . S
C1877 C1881 1.495 . S
C1878 C1877 1.392 . S
C1878 C1879 1.385 . S
C1878 C1880 1.478 . S
C1879 H1873 0.930 . S
C1879 C1875 1.400 . S
C1879 C1878 1.385 . S
C1880 C1878 1.478 . S
C1880 C1882 1.381 . S
C1880 C1886 1.383 . S
C1881 C1877 1.495 . S
C1881 H1887 0.959 . S
C1881 H1888 0.961 . S
C1881 H1889 0.960 . S
C1882 C1880 1.381 . S
C1882 C1883 1.394 . S
C1882 H1890 0.930 . S
C1883 C1882 1.394 . S
C1883 C1884 1.383 . S
C1883 H1891 0.929 . S
C1884 C1883 1.383 . S
C1884 C1885 1.377 . S
C1885 H1869 0.930 . S
C1885 C1884 1.377 . S
C1885 C1886 1.379 . S
C1886 H1870 0.931 . S
C1886 C1880 1.383 . S
C1886 C1885 1.379 . S
H1887 C1881 0.959 . S
H1888 C1881 0.961 . S
H1889 C1881 0.960 . S
H1890 C1882 0.930 . S
H1891 C1883 0.929 . S
H1892 C1900 0.929 . S
H1893 C1902 0.930 . S
H1894 C1904 0.930 . S
H1895 C1907 0.929 . S
H1896 C1910 0.930 . S
H1897 C1912 0.960 . S
H1898 C1912 0.960 . S
H1899 C1912 0.960 . S
C1900 H1892 0.929 . S
C1900 C1901 1.377 . S
C1900 C1902 1.384 . S
C1901 C1900 1.377 . S
C1901 C1907 1.390 . S
C1902 H1893 0.930 . S
C1902 C1900 1.384 . S
C1902 C1903 1.372 . S
C1903 C1902 1.372 . S
C1903 C1904 1.400 . S
C1903 C1908 1.490 . S
C1904 H1894 0.930 . S
C1904 C1903 1.400 . S
C1904 C1907 1.386 . S
H1905 C1921 0.930 . S
H1906 C1922 0.931 . S
C1907 H1895 0.929 . S
C1907 C1901 1.390 . S
C1907 C1904 1.386 . S
C1908 C1903 1.490 . S
C1908 C1910 1.395 . S
C1908 C1911 1.403 . S
H1909 C1915 0.930 . S
C1910 H1896 0.930 . S
C1910 C1908 1.395 . S
C1910 C1913 1.403 . S
C1911 C1908 1.403 . S
C1911 C1912 1.524 . S
C1911 C1915 1.400 . S
C1912 H1897 0.960 . S
C1912 H1898 0.960 . S
C1912 H1899 0.960 . S
C1912 C1911 1.524 . S
C1913 C1910 1.403 . S
C1913 C1914 1.392 . S
C1913 C1917 1.495 . S
C1914 C1913 1.392 . S
C1914 C1915 1.385 . S
C1914 C1916 1.478 . S
C1915 H1909 0.930 . S
C1915 C1911 1.400 . S
C1915 C1914 1.385 . S
C1916 C1914 1.478 . S
C1916 C1918 1.381 . S
C1916 C1922 1.383 . S
C1917 C1913 1.495 . S
C1917 H1923 0.959 . S
C1917 H1924 0.961 . S
C1917 H1925 0.960 . S
C1918 C1916 1.381 . S
C1918 C1919 1.394 . S
C1918 H1926 0.930 . S
C1919 C1918 1.394 . S
C1919 C1920 1.383 . S
C1919 H1927 0.929 . S
C1920 C1919 1.383 . S
C1920 C1921 1.377 . S
C1921 H1905 0.930 . S
C1921 C1920 1.377 . S
C1921 C1922 1.379 . S
C1922 H1906 0.931 . S
C1922 C1916 1.383 . S
C1922 C1921 1.379 . S
H1923 C1917 0.959 . S
H1924 C1917 0.961 . S
H1925 C1917 0.960 . S
H1926 C1918 0.930 . S
H1927 C1919 0.929 . S
H1928 C1936 0.929 . S
H1929 C1938 0.930 . S
H1930 C1940 0.930 . S
H1931 C1943 0.929 . S
H1932 C1946 0.930 . S
H1933 C1948 0.960 . S
H1934 C1948 0.960 . S
H1935 C1948 0.960 . S
C1936 H1928 0.929 . S
C1936 C1937 1.377 . S
C1936 C1938 1.384 . S
C1937 C1936 1.377 . S
C1937 C1943 1.390 . S
C1938 H1929 0.930 . S
C1938 C1936 1.384 . S
C1938 C1939 1.372 . S
C1939 C1938 1.372 . S
C1939 C1940 1.400 . S
C1939 C1944 1.490 . S
C1940 H1930 0.930 . S
C1940 C1939 1.400 . S
C1940 C1943 1.386 . S
H1941 C1957 0.930 . S
H1942 C1958 0.931 . S
C1943 H1931 0.929 . S
C1943 C1937 1.390 . S
C1943 C1940 1.386 . S
C1944 C1939 1.490 . S
C1944 C1946 1.395 . S
C1944 C1947 1.403 . S
H1945 C1951 0.930 . S
C1946 H1932 0.930 . S
C1946 C1944 1.395 . S
C1946 C1949 1.403 . S
C1947 C1944 1.403 . S
C1947 C1948 1.524 . S
C1947 C1951 1.400 . S
C1948 H1933 0.960 . S
C1948 H1934 0.960 . S
C1948 H1935 0.960 . S
C1948 C1947 1.524 . S
C1949 C1946 1.403 . S
C1949 C1950 1.392 . S
C1949 C1953 1.495 . S
C1950 C1949 1.392 . S
C1950 C1951 1.385 . S
C1950 C1952 1.478 . S
C1951 H1945 0.930 . S
C1951 C1947 1.400 . S
C1951 C1950 1.385 . S
C1952 C1950 1.478 . S
C1952 C1954 1.381 . S
C1952 C1958 1.383 . S
C1953 C1949 1.495 . S
C1953 H1959 0.959 . S
C1953 H1960 0.961 . S
C1953 H1961 0.960 . S
C1954 C1952 1.381 . S
C1954 C1955 1.394 . S
C1954 H1962 0.930 . S
C1955 C1954 1.394 . S
C1955 C1956 1.383 . S
C1955 H1963 0.929 . S
C1956 C1955 1.383 . S
C1956 C1957 1.377 . S
C1957 H1941 0.930 . S
C1957 C1956 1.377 . S
C1957 C1958 1.379 . S
C1958 H1942 0.931 . S
C1958 C1952 1.383 . S
C1958 C1957 1.379 . S
H1959 C1953 0.959 . S
H1960 C1953 0.961 . S
H1961 C1953 0.960 . S
H1962 C1954 0.930 . S
H1963 C1955 0.929 . S
H1964 C1972 0.929 . S
H1965 C1974 0.930 . S
H1966 C1976 0.930 . S
H1967 C1979 0.929 . S
H1968 C1982 0.930 . S
H1969 C1984 0.960 . S
H1970 C1984 0.960 . S
H1971 C1984 0.960 . S
C1972 H1964 0.929 . S
C1972 C1973 1.377 . S
C1972 C1974 1.384 . S
C1973 C1972 1.377 . S
C1973 C1979 1.390 . S
C1974 H1965 0.930 . S
C1974 C1972 1.384 . S
C1974 C1975 1.372 . S
C1975 C1974 1.372 . S
C1975 C1976 1.400 . S
C1975 C1980 1.490 . S
C1976 H1966 0.930 . S
C1976 C1975 1.400 . S
C1976 C1979 1.386 . S
H1977 C1993 0.930 . S
H1978 C1994 0.931 . S
C1979 H1967 0.929 . S
C1979 C1973 1.390 . S
C1979 C1976 1.386 . S
C1980 C1975 1.490 . S
C1980 C1982 1.395 . S
C1980 C1983 1.403 . S
H1981 C1987 0.930 . S
C1982 H1968 0.930 . S
C1982 C1980 1.395 . S
C1982 C1985 1.403 . S
C1983 C1980 1.403 . S
C1983 C1984 1.524 . S
C1983 C1987 1.400 . S
C1984 H1969 0.960 . S
C1984 H1970 0.960 . S
C1984 H1971 0.960 . S
C1984 C1983 1.524 . S
C1985 C1982 1.403 . S
C1985 C1986 1.392 . S
C1985 C1989 1.495 . S
C1986 C1985 1.392 . S
C1986 C1987 1.385 . S
C1986 C1988 1.478 . S
C1987 H1981 0.930 . S
C1987 C1983 1.400 . S
C1987 C1986 1.385 . S
C1988 C1986 1.478 . S
C1988 C1990 1.381 . S
C1988 C1994 1.383 . S
C1989 C1985 1.495 . S
C1989 H1995 0.959 . S
C1989 H1996 0.961 . S
C1989 H1997 0.960 . S
C1990 C1988 1.381 . S
C1990 C1991 1.394 . S
C1990 H1998 0.930 . S
C1991 C1990 1.394 . S
C1991 C1992 1.383 . S
C1991 H1999 0.929 . S
C1992 C1991 1.383 . S
C1992 C1993 1.377 . S
C1993 H1977 0.930 . S
C1993 C1992 1.377 . S
C1993 C1994 1.379 . S
C1994 H1978 0.931 . S
C1994 C1988 1.383 . S
C1994 C1993 1.379 . S
H1995 C1989 0.959 . S
H1996 C1989 0.961 . S
H1997 C1989 0.960 . S
H1998 C1990 0.930 . S
H1999 C1991 0.929 . S
H2000 C2008 0.929 . S
H2001 C2010 0.930 . S
H2002 C2012 0.930 . S
H2003 C2015 0.929 . S
H2004 C2018 0.930 . S
H2005 C2020 0.960 . S
H2006 C2020 0.960 . S
H2007 C2020 0.960 . S
C2008 H2000 0.929 . S
C2008 C2009 1.377 . S
C2008 C2010 1.384 . S
C2009 C2008 1.377 . S
C2009 C2015 1.390 . S
C2010 H2001 0.930 . S
C2010 C2008 1.384 . S
C2010 C2011 1.372 . S
C2011 C2010 1.372 . S
C2011 C2012 1.400 . S
C2011 C2016 1.490 . S
C2012 H2002 0.930 . S
C2012 C2011 1.400 . S
C2012 C2015 1.386 . S
H2013 C2029 0.930 . S
H2014 C2030 0.931 . S
C2015 H2003 0.929 . S
C2015 C2009 1.390 . S
C2015 C2012 1.386 . S
C2016 C2011 1.490 . S
C2016 C2018 1.395 . S
C2016 C2019 1.403 . S
H2017 C2023 0.930 . S
C2018 H2004 0.930 . S
C2018 C2016 1.395 . S
C2018 C2021 1.403 . S
C2019 C2016 1.403 . S
C2019 C2020 1.524 . S
C2019 C2023 1.400 . S
C2020 H2005 0.960 . S
C2020 H2006 0.960 . S
C2020 H2007 0.960 . S
C2020 C2019 1.524 . S
C2021 C2018 1.403 . S
C2021 C2022 1.392 . S
C2021 C2025 1.495 . S
C2022 C2021 1.392 . S
C2022 C2023 1.385 . S
C2022 C2024 1.478 . S
C2023 H2017 0.930 . S
C2023 C2019 1.400 . S
C2023 C2022 1.385 . S
C2024 C2022 1.478 . S
C2024 C2026 1.381 . S
C2024 C2030 1.383 . S
C2025 C2021 1.495 . S
C2025 H2031 0.959 . S
C2025 H2032 0.961 . S
C2025 H2033 0.960 . S
C2026 C2024 1.381 . S
C2026 C2027 1.394 . S
C2026 H2034 0.930 . S
C2027 C2026 1.394 . S
C2027 C2028 1.383 . S
C2027 H2035 0.929 . S
C2028 C2027 1.383 . S
C2028 C2029 1.377 . S
C2029 H2013 0.930 . S
C2029 C2028 1.377 . S
C2029 C2030 1.379 . S
C2030 H2014 0.931 . S
C2030 C2024 1.383 . S
C2030 C2029 1.379 . S
H2031 C2025 0.959 . S
H2032 C2025 0.961 . S
H2033 C2025 0.960 . S
H2034 C2026 0.930 . S
H2035 C2027 0.929 . S
H2036 C2044 0.929 . S
H2037 C2046 0.930 . S
H2038 C2048 0.930 . S
H2039 C2051 0.929 . S
H2040 C2054 0.930 . S
H2041 C2056 0.960 . S
H2042 C2056 0.960 . S
H2043 C2056 0.960 . S
C2044 H2036 0.929 . S
C2044 C2045 1.377 . S
C2044 C2046 1.384 . S
C2045 C2044 1.377 . S
C2045 C2051 1.390 . S
C2046 H2037 0.930 . S
C2046 C2044 1.384 . S
C2046 C2047 1.372 . S
C2047 C2046 1.372 . S
C2047 C2048 1.400 . S
C2047 C2052 1.490 . S
C2048 H2038 0.930 . S
C2048 C2047 1.400 . S
C2048 C2051 1.386 . S
H2049 C2065 0.930 . S
H2050 C2066 0.931 . S
C2051 H2039 0.929 . S
C2051 C2045 1.390 . S
C2051 C2048 1.386 . S
C2052 C2047 1.490 . S
C2052 C2054 1.395 . S
C2052 C2055 1.403 . S
H2053 C2059 0.930 . S
C2054 H2040 0.930 . S
C2054 C2052 1.395 . S
C2054 C2057 1.403 1_655 S
C2055 C2052 1.403 . S
C2055 C2056 1.524 . S
C2055 C2059 1.400 1_655 S
C2056 H2041 0.960 . S
C2056 H2042 0.960 . S
C2056 H2043 0.960 . S
C2056 C2055 1.524 . S
C2057 C2054 1.403 1_455 S
C2057 C2058 1.392 . S
C2057 C2061 1.495 . S
C2058 C2057 1.392 . S
C2058 C2059 1.385 . S
C2058 C2060 1.478 . S
C2059 H2053 0.930 . S
C2059 C2055 1.400 1_455 S
C2059 C2058 1.385 . S
C2060 C2058 1.478 . S
C2060 C2062 1.381 . S
C2060 C2066 1.383 . S
C2061 C2057 1.495 . S
C2061 H2067 0.959 . S
C2061 H2068 0.961 . S
C2061 H2069 0.960 . S
C2062 C2060 1.381 . S
C2062 C2063 1.394 . S
C2062 H2070 0.930 . S
C2063 C2062 1.394 . S
C2063 C2064 1.383 . S
C2063 H2071 0.929 . S
C2064 C2063 1.383 . S
C2064 C2065 1.377 . S
C2065 H2049 0.930 . S
C2065 C2064 1.377 . S
C2065 C2066 1.379 . S
C2066 H2050 0.931 . S
C2066 C2060 1.383 . S
C2066 C2065 1.379 . S
H2067 C2061 0.959 . S
H2068 C2061 0.961 . S
H2069 C2061 0.960 . S
H2070 C2062 0.930 . S
H2071 C2063 0.929 . S
H2072 C2080 0.929 . S
H2073 C2082 0.930 . S
H2074 C2084 0.930 . S
H2075 C2087 0.929 . S
H2076 C2090 0.930 . S
H2077 C2092 0.960 . S
H2078 C2092 0.960 . S
H2079 C2092 0.960 . S
C2080 H2072 0.929 . S
C2080 C2081 1.377 . S
C2080 C2082 1.384 . S
C2081 C2080 1.377 . S
C2081 C2087 1.390 . S
C2082 H2073 0.930 . S
C2082 C2080 1.384 . S
C2082 C2083 1.372 . S
C2083 C2082 1.372 . S
C2083 C2084 1.400 . S
C2083 C2088 1.490 . S
C2084 H2074 0.930 . S
C2084 C2083 1.400 . S
C2084 C2087 1.386 . S
H2085 C2101 0.930 . S
H2086 C2102 0.931 . S
C2087 H2075 0.929 . S
C2087 C2081 1.390 . S
C2087 C2084 1.386 . S
C2088 C2083 1.490 . S
C2088 C2090 1.395 . S
C2088 C2091 1.403 . S
H2089 C2095 0.930 . S
C2090 H2076 0.930 . S
C2090 C2088 1.395 . S
C2090 C2093 1.403 1_655 S
C2091 C2088 1.403 . S
C2091 C2092 1.524 . S
C2091 C2095 1.400 1_655 S
C2092 H2077 0.960 . S
C2092 H2078 0.960 . S
C2092 H2079 0.960 . S
C2092 C2091 1.524 . S
C2093 C2090 1.403 1_455 S
C2093 C2094 1.392 . S
C2093 C2097 1.495 . S
C2094 C2093 1.392 . S
C2094 C2095 1.385 . S
C2094 C2096 1.478 . S
C2095 H2089 0.930 . S
C2095 C2091 1.400 1_455 S
C2095 C2094 1.385 . S
C2096 C2094 1.478 . S
C2096 C2098 1.381 . S
C2096 C2102 1.383 . S
C2097 C2093 1.495 . S
C2097 H2103 0.959 . S
C2097 H2104 0.961 . S
C2097 H2105 0.960 . S
C2098 C2096 1.381 . S
C2098 C2099 1.394 . S
C2098 H2106 0.930 . S
C2099 C2098 1.394 . S
C2099 C2100 1.383 . S
C2099 H2107 0.929 . S
C2100 C2099 1.383 . S
C2100 C2101 1.377 . S
C2101 H2085 0.930 . S
C2101 C2100 1.377 . S
C2101 C2102 1.379 . S
C2102 H2086 0.931 . S
C2102 C2096 1.383 . S
C2102 C2101 1.379 . S
H2103 C2097 0.959 . S
H2104 C2097 0.961 . S
H2105 C2097 0.960 . S
H2106 C2098 0.930 . S
H2107 C2099 0.929 . S
H2108 C2116 0.929 . S
H2109 C2118 0.930 . S
H2110 C2120 0.930 . S
H2111 C2123 0.929 . S
H2112 C2126 0.930 . S
H2113 C2128 0.960 . S
H2114 C2128 0.960 . S
H2115 C2128 0.960 . S
C2116 H2108 0.929 . S
C2116 C2117 1.377 . S
C2116 C2118 1.384 . S
C2117 C2116 1.377 . S
C2117 C2123 1.390 . S
C2118 H2109 0.930 . S
C2118 C2116 1.384 . S
C2118 C2119 1.372 . S
C2119 C2118 1.372 . S
C2119 C2120 1.400 . S
C2119 C2124 1.490 . S
C2120 H2110 0.930 . S
C2120 C2119 1.400 . S
C2120 C2123 1.386 . S
H2121 C2137 0.930 . S
H2122 C2138 0.931 . S
C2123 H2111 0.929 . S
C2123 C2117 1.390 . S
C2123 C2120 1.386 . S
C2124 C2119 1.490 . S
C2124 C2126 1.395 . S
C2124 C2127 1.403 . S
H2125 C2131 0.930 . S
C2126 H2112 0.930 . S
C2126 C2124 1.395 . S
C2126 C2129 1.403 . S
C2127 C2124 1.403 . S
C2127 C2128 1.524 . S
C2127 C2131 1.400 . S
C2128 H2113 0.960 . S
C2128 H2114 0.960 . S
C2128 H2115 0.960 . S
C2128 C2127 1.524 . S
C2129 C2126 1.403 . S
C2129 C2130 1.392 . S
C2129 C2133 1.495 . S
C2130 C2129 1.392 . S
C2130 C2131 1.385 . S
C2130 C2132 1.478 . S
C2131 H2125 0.930 . S
C2131 C2127 1.400 . S
C2131 C2130 1.385 . S
C2132 C2130 1.478 . S
C2132 C2134 1.381 . S
C2132 C2138 1.383 . S
C2133 C2129 1.495 . S
C2133 H2139 0.959 . S
C2133 H2140 0.961 . S
C2133 H2141 0.960 . S
C2134 C2132 1.381 . S
C2134 C2135 1.394 . S
C2134 H2142 0.930 . S
C2135 C2134 1.394 . S
C2135 C2136 1.383 . S
C2135 H2143 0.929 . S
C2136 C2135 1.383 . S
C2136 C2137 1.377 . S
C2137 H2121 0.930 . S
C2137 C2136 1.377 . S
C2137 C2138 1.379 . S
C2138 H2122 0.931 . S
C2138 C2132 1.383 . S
C2138 C2137 1.379 . S
H2139 C2133 0.959 . S
H2140 C2133 0.961 . S
H2141 C2133 0.960 . S
H2142 C2134 0.930 . S
H2143 C2135 0.929 . S
H2144 C2152 0.929 . S
H2145 C2154 0.930 . S
H2146 C2156 0.930 . S
H2147 C2159 0.929 . S
H2148 C2162 0.930 . S
H2149 C2164 0.960 . S
H2150 C2164 0.960 . S
H2151 C2164 0.960 . S
C2152 H2144 0.929 . S
C2152 C2153 1.377 . S
C2152 C2154 1.384 . S
C2153 C2152 1.377 . S
C2153 C2159 1.390 . S
C2154 H2145 0.930 . S
C2154 C2152 1.384 . S
C2154 C2155 1.372 . S
C2155 C2154 1.372 . S
C2155 C2156 1.400 . S
C2155 C2160 1.490 . S
C2156 H2146 0.930 . S
C2156 C2155 1.400 . S
C2156 C2159 1.386 . S
H2157 C2173 0.930 . S
H2158 C2174 0.931 . S
C2159 H2147 0.929 . S
C2159 C2153 1.390 . S
C2159 C2156 1.386 . S
C2160 C2155 1.490 . S
C2160 C2162 1.395 . S
C2160 C2163 1.403 . S
H2161 C2167 0.930 . S
C2162 H2148 0.930 . S
C2162 C2160 1.395 . S
C2162 C2165 1.403 . S
C2163 C2160 1.403 . S
C2163 C2164 1.524 . S
C2163 C2167 1.400 . S
C2164 H2149 0.960 . S
C2164 H2150 0.960 . S
C2164 H2151 0.960 . S
C2164 C2163 1.524 . S
C2165 C2162 1.403 . S
C2165 C2166 1.392 . S
C2165 C2169 1.495 . S
C2166 C2165 1.392 . S
C2166 C2167 1.385 . S
C2166 C2168 1.478 . S
C2167 H2161 0.930 . S
C2167 C2163 1.400 . S
C2167 C2166 1.385 . S
C2168 C2166 1.478 . S
C2168 C2170 1.381 . S
C2168 C2174 1.383 . S
C2169 C2165 1.495 . S
C2169 H2175 0.959 . S
C2169 H2176 0.961 . S
C2169 H2177 0.960 . S
C2170 C2168 1.381 . S
C2170 C2171 1.394 . S
C2170 H2178 0.930 . S
C2171 C2170 1.394 . S
C2171 C2172 1.383 . S
C2171 H2179 0.929 . S
C2172 C2171 1.383 . S
C2172 C2173 1.377 . S
C2173 H2157 0.930 . S
C2173 C2172 1.377 . S
C2173 C2174 1.379 . S
C2174 H2158 0.931 . S
C2174 C2168 1.383 . S
C2174 C2173 1.379 . S
H2175 C2169 0.959 . S
H2176 C2169 0.961 . S
H2177 C2169 0.960 . S
H2178 C2170 0.930 . S
H2179 C2171 0.929 . S
H2180 C2188 0.929 . S
H2181 C2190 0.930 . S
H2182 C2192 0.930 . S
H2183 C2195 0.929 . S
H2184 C2198 0.930 . S
H2185 C2200 0.960 . S
H2186 C2200 0.960 . S
H2187 C2200 0.960 . S
C2188 H2180 0.929 . S
C2188 C2189 1.377 . S
C2188 C2190 1.384 . S
C2189 C2188 1.377 . S
C2189 C2195 1.390 . S
C2190 H2181 0.930 . S
C2190 C2188 1.384 . S
C2190 C2191 1.372 . S
C2191 C2190 1.372 . S
C2191 C2192 1.400 . S
C2191 C2196 1.490 . S
C2192 H2182 0.930 . S
C2192 C2191 1.400 . S
C2192 C2195 1.386 . S
H2193 C2209 0.930 . S
H2194 C2210 0.931 . S
C2195 H2183 0.929 . S
C2195 C2189 1.390 . S
C2195 C2192 1.386 . S
C2196 C2191 1.490 . S
C2196 C2198 1.395 . S
C2196 C2199 1.403 . S
H2197 C2203 0.930 . S
C2198 H2184 0.930 . S
C2198 C2196 1.395 . S
C2198 C2201 1.403 . S
C2199 C2196 1.403 . S
C2199 C2200 1.524 . S
C2199 C2203 1.400 . S
C2200 H2185 0.960 . S
C2200 H2186 0.960 . S
C2200 H2187 0.960 . S
C2200 C2199 1.524 . S
C2201 C2198 1.403 . S
C2201 C2202 1.392 . S
C2201 C2205 1.495 . S
C2202 C2201 1.392 . S
C2202 C2203 1.385 . S
C2202 C2204 1.478 . S
C2203 H2197 0.930 . S
C2203 C2199 1.400 . S
C2203 C2202 1.385 . S
C2204 C2202 1.478 . S
C2204 C2206 1.381 . S
C2204 C2210 1.383 . S
C2205 C2201 1.495 . S
C2205 H2211 0.959 . S
C2205 H2212 0.961 . S
C2205 H2213 0.960 . S
C2206 C2204 1.381 . S
C2206 C2207 1.394 . S
C2206 H2214 0.930 . S
C2207 C2206 1.394 . S
C2207 C2208 1.383 . S
C2207 H2215 0.929 . S
C2208 C2207 1.383 . S
C2208 C2209 1.377 . S
C2209 H2193 0.930 . S
C2209 C2208 1.377 . S
C2209 C2210 1.379 . S
C2210 H2194 0.931 . S
C2210 C2204 1.383 . S
C2210 C2209 1.379 . S
H2211 C2205 0.959 . S
H2212 C2205 0.961 . S
H2213 C2205 0.960 . S
H2214 C2206 0.930 . S
H2215 C2207 0.929 . S
H2216 C2224 0.929 . S
H2217 C2226 0.927 1_554 S
H2218 C2228 0.930 . S
H2219 C2231 0.929 . S
H2220 C2234 0.930 . S
H2221 C2236 0.960 . S
H2222 C2236 0.960 . S
H2223 C2236 0.960 . S
C2224 H2216 0.929 . S
C2224 C2225 1.377 . S
C2224 C2226 1.375 1_554 S
C2225 C2224 1.377 . S
C2225 C2231 1.390 1_554 S
C2226 H2217 0.927 1_556 S
C2226 C2224 1.375 1_556 S
C2226 C2227 1.384 . S
C2227 C2226 1.384 . S
C2227 C2228 1.400 . S
C2227 C2232 1.490 . S
C2228 H2218 0.930 . S
C2228 C2227 1.400 . S
C2228 C2231 1.386 . S
H2229 C2245 0.930 . S
H2230 C2246 0.931 . S
C2231 H2219 0.929 . S
C2231 C2225 1.390 1_556 S
C2231 C2228 1.386 . S
C2232 C2227 1.490 . S
C2232 C2234 1.395 . S
C2232 C2235 1.403 . S
H2233 C2239 0.930 . S
C2234 H2220 0.930 . S
C2234 C2232 1.395 . S
C2234 C2237 1.403 . S
C2235 C2232 1.403 . S
C2235 C2236 1.524 . S
C2235 C2239 1.400 . S
C2236 H2221 0.960 . S
C2236 H2222 0.960 . S
C2236 H2223 0.960 . S
C2236 C2235 1.524 . S
C2237 C2234 1.403 . S
C2237 C2238 1.392 . S
C2237 C2241 1.495 . S
C2238 C2237 1.392 . S
C2238 C2239 1.385 . S
C2238 C2240 1.478 . S
C2239 H2233 0.930 . S
C2239 C2235 1.400 . S
C2239 C2238 1.385 . S
C2240 C2238 1.478 . S
C2240 C2242 1.381 . S
C2240 C2246 1.383 . S
C2241 C2237 1.495 . S
C2241 H2247 0.959 . S
C2241 H2248 0.961 . S
C2241 H2249 0.960 . S
C2242 C2240 1.381 . S
C2242 C2243 1.394 . S
C2242 H2250 0.930 . S
C2243 C2242 1.394 . S
C2243 C2244 1.383 . S
C2243 H2251 0.929 . S
C2244 C2243 1.383 . S
C2244 C2245 1.377 . S
C2245 H2229 0.930 . S
C2245 C2244 1.377 . S
C2245 C2246 1.379 . S
C2246 H2230 0.931 . S
C2246 C2240 1.383 . S
C2246 C2245 1.379 . S
H2247 C2241 0.959 . S
H2248 C2241 0.961 . S
H2249 C2241 0.960 . S
H2250 C2242 0.930 . S
H2251 C2243 0.929 . S
H2252 C2260 0.929 . S
H2253 C2262 0.930 1_556 S
H2254 C2264 0.930 . S
H2255 C2267 0.929 . S
H2256 C2270 0.930 . S
H2257 C2272 0.960 . S
H2258 C2272 0.960 . S
H2259 C2272 0.960 . S
C2260 H2252 0.929 . S
C2260 C2261 1.377 . S
C2260 C2262 1.384 1_556 S
C2261 C2260 1.377 . S
C2261 C2267 1.390 1_556 S
C2262 H2253 0.930 1_554 S
C2262 C2260 1.384 1_554 S
C2262 C2263 1.372 . S
C2263 C2262 1.372 . S
C2263 C2264 1.400 . S
C2263 C2268 1.490 . S
C2264 H2254 0.930 . S
C2264 C2263 1.400 . S
C2264 C2267 1.386 . S
H2265 C2281 0.930 . S
H2266 C2282 0.931 . S
C2267 H2255 0.929 . S
C2267 C2261 1.390 1_554 S
C2267 C2264 1.386 . S
C2268 C2263 1.490 . S
C2268 C2270 1.395 . S
C2268 C2271 1.403 . S
H2269 C2275 0.930 . S
C2270 H2256 0.930 . S
C2270 C2268 1.395 . S
C2270 C2273 1.403 . S
C2271 C2268 1.403 . S
C2271 C2272 1.524 . S
C2271 C2275 1.400 . S
C2272 H2257 0.960 . S
C2272 H2258 0.960 . S
C2272 H2259 0.960 . S
C2272 C2271 1.524 . S
C2273 C2270 1.403 . S
C2273 C2274 1.392 . S
C2273 C2277 1.495 . S
C2274 C2273 1.392 . S
C2274 C2275 1.385 . S
C2274 C2276 1.478 . S
C2275 H2269 0.930 . S
C2275 C2271 1.400 . S
C2275 C2274 1.385 . S
C2276 C2274 1.478 . S
C2276 C2278 1.381 . S
C2276 C2282 1.383 . S
C2277 C2273 1.495 . S
C2277 H2283 0.959 . S
C2277 H2284 0.961 . S
C2277 H2285 0.960 . S
C2278 C2276 1.381 . S
C2278 C2279 1.394 . S
C2278 H2286 0.930 . S
C2279 C2278 1.394 . S
C2279 C2280 1.383 . S
C2279 H2287 0.929 . S
C2280 C2279 1.383 . S
C2280 C2281 1.377 . S
C2281 H2265 0.930 . S
C2281 C2280 1.377 . S
C2281 C2282 1.379 . S
C2282 H2266 0.931 . S
C2282 C2276 1.383 . S
C2282 C2281 1.379 . S
H2283 C2277 0.959 . S
H2284 C2277 0.961 . S
H2285 C2277 0.960 . S
H2286 C2278 0.930 . S
H2287 C2279 0.929 . S
H2288 C2296 0.929 . S
H2289 C2298 0.930 . S
H2290 C2300 0.930 . S
H2291 C2303 0.929 . S
H2292 C2306 0.930 . S
H2293 C2308 0.960 . S
H2294 C2308 0.960 . S
H2295 C2308 0.960 . S
C2296 H2288 0.929 . S
C2296 C2297 1.377 . S
C2296 C2298 1.384 . S
C2297 C2296 1.377 . S
C2297 C2303 1.390 . S
C2298 H2289 0.930 . S
C2298 C2296 1.384 . S
C2298 C2299 1.372 . S
C2299 C2298 1.372 . S
C2299 C2300 1.400 . S
C2299 C2304 1.490 . S
C2300 H2290 0.930 . S
C2300 C2299 1.400 . S
C2300 C2303 1.386 . S
H2301 C2317 0.930 . S
H2302 C2318 0.931 . S
C2303 H2291 0.929 . S
C2303 C2297 1.390 . S
C2303 C2300 1.386 . S
C2304 C2299 1.490 . S
C2304 C2306 1.395 . S
C2304 C2307 1.403 . S
H2305 C2311 0.930 . S
C2306 H2292 0.930 . S
C2306 C2304 1.395 . S
C2306 C2309 1.403 . S
C2307 C2304 1.403 . S
C2307 C2308 1.524 . S
C2307 C2311 1.400 . S
C2308 H2293 0.960 . S
C2308 H2294 0.960 . S
C2308 H2295 0.960 . S
C2308 C2307 1.524 . S
C2309 C2306 1.403 . S
C2309 C2310 1.392 . S
C2309 C2313 1.495 . S
C2310 C2309 1.392 . S
C2310 C2311 1.385 . S
C2310 C2312 1.478 . S
C2311 H2305 0.930 . S
C2311 C2307 1.400 . S
C2311 C2310 1.385 . S
C2312 C2310 1.478 . S
C2312 C2314 1.381 . S
C2312 C2318 1.383 . S
C2313 C2309 1.495 . S
C2313 H2319 0.959 . S
C2313 H2320 0.961 . S
C2313 H2321 0.960 . S
C2314 C2312 1.381 . S
C2314 C2315 1.394 . S
C2314 H2322 0.930 . S
C2315 C2314 1.394 . S
C2315 C2316 1.383 . S
C2315 H2323 0.929 . S
C2316 C2315 1.383 . S
C2316 C2317 1.377 . S
C2317 H2301 0.930 . S
C2317 C2316 1.377 . S
C2317 C2318 1.379 . S
C2318 H2302 0.931 . S
C2318 C2312 1.383 . S
C2318 C2317 1.379 . S
H2319 C2313 0.959 . S
H2320 C2313 0.961 . S
H2321 C2313 0.960 . S
H2322 C2314 0.930 . S
H2323 C2315 0.929 . S
H2324 C2332 0.929 . S
H2325 C2334 0.930 . S
H2326 C2336 0.930 . S
H2327 C2339 0.929 . S
H2328 C2342 0.930 . S
H2329 C2344 0.960 . S
H2330 C2344 0.960 . S
H2331 C2344 0.960 . S
C2332 H2324 0.929 . S
C2332 C2333 1.377 . S
C2332 C2334 1.384 . S
C2333 C2332 1.377 . S
C2333 C2339 1.390 . S
C2334 H2325 0.930 . S
C2334 C2332 1.384 . S
C2334 C2335 1.372 . S
C2335 C2334 1.372 . S
C2335 C2336 1.400 . S
C2335 C2340 1.490 . S
C2336 H2326 0.930 . S
C2336 C2335 1.400 . S
C2336 C2339 1.386 . S
H2337 C2353 0.930 . S
H2338 C2354 0.931 . S
C2339 H2327 0.929 . S
C2339 C2333 1.390 . S
C2339 C2336 1.386 . S
C2340 C2335 1.490 . S
C2340 C2342 1.395 . S
C2340 C2343 1.403 . S
H2341 C2347 0.930 . S
C2342 H2328 0.930 . S
C2342 C2340 1.395 . S
C2342 C2345 1.403 . S
C2343 C2340 1.403 . S
C2343 C2344 1.524 . S
C2343 C2347 1.400 . S
C2344 H2329 0.960 . S
C2344 H2330 0.960 . S
C2344 H2331 0.960 . S
C2344 C2343 1.524 . S
C2345 C2342 1.403 . S
C2345 C2346 1.392 . S
C2345 C2349 1.495 . S
C2346 C2345 1.392 . S
C2346 C2347 1.385 . S
C2346 C2348 1.478 . S
C2347 H2341 0.930 . S
C2347 C2343 1.400 . S
C2347 C2346 1.385 . S
C2348 C2346 1.478 . S
C2348 C2350 1.381 . S
C2348 C2354 1.383 . S
C2349 C2345 1.495 . S
C2349 H2355 0.959 . S
C2349 H2356 0.961 . S
C2349 H2357 0.960 . S
C2350 C2348 1.381 . S
C2350 C2351 1.394 . S
C2350 H2358 0.930 . S
C2351 C2350 1.394 . S
C2351 C2352 1.383 . S
C2351 H2359 0.929 . S
C2352 C2351 1.383 . S
C2352 C2353 1.377 . S
C2353 H2337 0.930 . S
C2353 C2352 1.377 . S
C2353 C2354 1.379 . S
C2354 H2338 0.931 . S
C2354 C2348 1.383 . S
C2354 C2353 1.379 . S
H2355 C2349 0.959 . S
H2356 C2349 0.961 . S
H2357 C2349 0.960 . S
H2358 C2350 0.930 . S
H2359 C2351 0.929 . S
H2360 C2368 0.929 . S
H2361 C2370 0.930 . S
H2362 C2372 0.930 . S
H2363 C2375 0.929 . S
H2364 C2378 0.930 . S
H2365 C2380 0.960 . S
H2366 C2380 0.960 . S
H2367 C2380 0.960 . S
C2368 H2360 0.929 . S
C2368 C2369 1.377 . S
C2368 C2370 1.384 . S
C2369 C2368 1.377 . S
C2369 C2375 1.390 . S
C2370 H2361 0.930 . S
C2370 C2368 1.384 . S
C2370 C2371 1.372 . S
C2371 C2370 1.372 . S
C2371 C2372 1.400 . S
C2371 C2376 1.490 . S
C2372 H2362 0.930 . S
C2372 C2371 1.400 . S
C2372 C2375 1.386 . S
H2373 C2389 0.930 1_556 S
H2374 C2390 0.931 . S
C2375 H2363 0.929 . S
C2375 C2369 1.390 . S
C2375 C2372 1.386 . S
C2376 C2371 1.490 . S
C2376 C2378 1.395 . S
C2376 C2379 1.403 . S
H2377 C2383 0.930 . S
C2378 H2364 0.930 . S
C2378 C2376 1.395 . S
C2378 C2381 1.403 . S
C2379 C2376 1.403 . S
C2379 C2380 1.524 . S
C2379 C2383 1.400 . S
C2380 H2365 0.960 . S
C2380 H2366 0.960 . S
C2380 H2367 0.960 . S
C2380 C2379 1.524 . S
C2381 C2378 1.403 . S
C2381 C2382 1.392 . S
C2381 C2385 1.495 . S
C2382 C2381 1.392 . S
C2382 C2383 1.385 . S
C2382 C2384 1.478 . S
C2383 H2377 0.930 . S
C2383 C2379 1.400 . S
C2383 C2382 1.385 . S
C2384 C2382 1.478 . S
C2384 C2386 1.381 . S
C2384 C2390 1.383 . S
C2385 C2381 1.495 . S
C2385 H2391 0.959 . S
C2385 H2392 0.961 . S
C2385 H2393 0.960 . S
C2386 C2384 1.381 . S
C2386 C2387 1.394 1_554 S
C2386 H2394 0.930 . S
C2387 C2386 1.394 1_556 S
C2387 C2388 1.383 . S
C2387 H2395 0.929 . S
C2388 C2387 1.383 . S
C2388 C2389 1.377 1_556 S
C2389 H2373 0.930 1_554 S
C2389 C2388 1.377 1_554 S
C2389 C2390 1.379 . S
C2390 H2374 0.931 . S
C2390 C2384 1.383 . S
C2390 C2389 1.379 . S
H2391 C2385 0.959 . S
H2392 C2385 0.961 . S
H2393 C2385 0.960 . S
H2394 C2386 0.930 . S
H2395 C2387 0.929 . S
H2396 C2404 0.929 . S
H2397 C2406 0.930 . S
H2398 C2408 0.930 . S
H2399 C2411 0.929 . S
H2400 C2414 0.930 . S
H2401 C2416 0.960 . S
H2402 C2416 0.960 . S
H2403 C2416 0.960 . S
C2404 H2396 0.929 . S
C2404 C2405 1.377 . S
C2404 C2406 1.384 . S
C2405 C2404 1.377 . S
C2405 C2411 1.390 . S
C2406 H2397 0.930 . S
C2406 C2404 1.384 . S
C2406 C2407 1.372 . S
C2407 C2406 1.372 . S
C2407 C2408 1.400 . S
C2407 C2412 1.490 . S
C2408 H2398 0.930 . S
C2408 C2407 1.400 . S
C2408 C2411 1.386 . S
H2409 C2425 0.930 . S
H2410 C2426 0.931 . S
C2411 H2399 0.929 . S
C2411 C2405 1.390 . S
C2411 C2408 1.386 . S
C2412 C2407 1.490 . S
C2412 C2414 1.395 . S
C2412 C2415 1.403 . S
H2413 C2419 0.930 . S
C2414 H2400 0.930 . S
C2414 C2412 1.395 . S
C2414 C2417 1.403 . S
C2415 C2412 1.403 . S
C2415 C2416 1.524 . S
C2415 C2419 1.400 . S
C2416 H2401 0.960 . S
C2416 H2402 0.960 . S
C2416 H2403 0.960 . S
C2416 C2415 1.524 . S
C2417 C2414 1.403 . S
C2417 C2418 1.392 . S
C2417 C2421 1.495 . S
C2418 C2417 1.392 . S
C2418 C2419 1.385 . S
C2418 C2420 1.478 . S
C2419 H2413 0.930 . S
C2419 C2415 1.400 . S
C2419 C2418 1.385 . S
C2420 C2418 1.478 . S
C2420 C2422 1.381 . S
C2420 C2426 1.383 . S
C2421 C2417 1.495 . S
C2421 H2427 0.959 . S
C2421 H2428 0.967 . S
C2421 H2429 0.960 . S
C2422 C2420 1.381 . S
C2422 C2423 1.394 1_556 S
C2422 H2430 0.930 . S
C2423 C2422 1.394 1_554 S
C2423 C2424 1.383 . S
C2423 H2431 0.929 . S
C2424 C2423 1.383 . S
C2424 C2425 1.377 . S
C2425 H2409 0.930 . S
C2425 C2424 1.377 . S
C2425 C2426 1.379 1_554 S
C2426 H2410 0.931 . S
C2426 C2420 1.383 . S
C2426 C2425 1.379 1_556 S
H2427 C2421 0.959 . S
H2428 C2421 0.967 . S
H2429 C2421 0.960 . S
H2430 C2422 0.930 . S
H2431 C2423 0.929 . S
H2432 C2440 0.929 . S
H2433 C2442 0.930 . S
H2434 C2444 0.930 . S
H2435 C2447 0.929 . S
H2436 C2450 0.930 . S
H2437 C2452 0.960 . S
H2438 C2452 0.960 . S
H2439 C2452 0.960 . S
C2440 H2432 0.929 . S
C2440 C2441 1.377 . S
C2440 C2442 1.384 1_554 S
C2441 C2440 1.377 . S
C2441 C2447 1.390 1_554 S
C2442 H2433 0.930 . S
C2442 C2440 1.384 1_556 S
C2442 C2443 1.372 . S
C2443 C2442 1.372 . S
C2443 C2444 1.400 . S
C2443 C2448 1.490 . S
C2444 H2434 0.930 . S
C2444 C2443 1.400 . S
C2444 C2447 1.386 . S
H2445 C2461 0.930 . S
H2446 C2462 0.931 . S
C2447 H2435 0.929 . S
C2447 C2441 1.390 1_556 S
C2447 C2444 1.386 . S
C2448 C2443 1.490 . S
C2448 C2450 1.395 . S
C2448 C2451 1.403 . S
H2449 C2455 0.930 . S
C2450 H2436 0.930 . S
C2450 C2448 1.395 . S
C2450 C2453 1.403 . S
C2451 C2448 1.403 . S
C2451 C2452 1.524 . S
C2451 C2455 1.400 . S
C2452 H2437 0.960 . S
C2452 H2438 0.960 . S
C2452 H2439 0.960 . S
C2452 C2451 1.524 . S
C2453 C2450 1.403 . S
C2453 C2454 1.392 . S
C2453 C2457 1.495 . S
C2454 C2453 1.392 . S
C2454 C2455 1.385 . S
C2454 C2456 1.478 . S
C2455 H2449 0.930 . S
C2455 C2451 1.400 . S
C2455 C2454 1.385 . S
C2456 C2454 1.478 . S
C2456 C2458 1.381 . S
C2456 C2462 1.383 . S
C2457 C2453 1.495 . S
C2457 H2463 0.959 . S
C2457 H2464 0.961 . S
C2457 H2465 0.960 . S
C2458 C2456 1.381 . S
C2458 C2459 1.394 . S
C2458 H2466 0.930 . S
C2459 C2458 1.394 . S
C2459 C2460 1.383 . S
C2459 H2467 0.929 . S
C2460 C2459 1.383 . S
C2460 C2461 1.377 . S
C2461 H2445 0.930 . S
C2461 C2460 1.377 . S
C2461 C2462 1.379 . S
C2462 H2446 0.931 . S
C2462 C2456 1.383 . S
C2462 C2461 1.379 . S
H2463 C2457 0.959 . S
H2464 C2457 0.961 . S
H2465 C2457 0.960 . S
H2466 C2458 0.930 . S
H2467 C2459 0.929 . S
H2468 C2476 0.929 . S
H2469 C2478 0.930 . S
H2470 C2480 0.930 . S
H2471 C2483 0.929 . S
H2472 C2486 0.930 . S
H2473 C2488 0.960 . S
H2474 C2488 0.960 . S
H2475 C2488 0.960 . S
C2476 H2468 0.929 . S
C2476 C2477 1.377 . S
C2476 C2478 1.384 . S
C2477 C2476 1.377 . S
C2477 C2483 1.390 . S
C2478 H2469 0.930 . S
C2478 C2476 1.384 . S
C2478 C2479 1.372 . S
C2479 C2478 1.372 . S
C2479 C2480 1.400 . S
C2479 C2484 1.490 . S
C2480 H2470 0.930 . S
C2480 C2479 1.400 . S
C2480 C2483 1.386 . S
H2481 C2497 0.930 . S
H2482 C2498 0.931 . S
C2483 H2471 0.929 . S
C2483 C2477 1.390 . S
C2483 C2480 1.386 . S
C2484 C2479 1.490 . S
C2484 C2486 1.395 . S
C2484 C2487 1.403 . S
H2485 C2491 0.930 . S
C2486 H2472 0.930 . S
C2486 C2484 1.395 . S
C2486 C2489 1.403 . S
C2487 C2484 1.403 . S
C2487 C2488 1.524 . S
C2487 C2491 1.400 . S
C2488 H2473 0.960 . S
C2488 H2474 0.960 . S
C2488 H2475 0.960 . S
C2488 C2487 1.524 . S
C2489 C2486 1.403 . S
C2489 C2490 1.392 . S
C2489 C2493 1.495 . S
C2490 C2489 1.392 . S
C2490 C2491 1.385 . S
C2490 C2492 1.478 . S
C2491 H2485 0.930 . S
C2491 C2487 1.400 . S
C2491 C2490 1.385 . S
C2492 C2490 1.478 . S
C2492 C2494 1.381 . S
C2492 C2498 1.383 . S
C2493 C2489 1.495 . S
C2493 H2499 0.959 . S
C2493 H2500 0.961 . S
C2493 H2501 0.960 . S
C2494 C2492 1.381 . S
C2494 C2495 1.394 . S
C2494 H2502 0.930 . S
C2495 C2494 1.394 . S
C2495 C2496 1.383 1_554 S
C2495 H2503 0.932 . S
C2496 C2495 1.383 1_556 S
C2496 C2497 1.377 . S
C2497 H2481 0.930 . S
C2497 C2496 1.377 . S
C2497 C2498 1.379 1_556 S
C2498 H2482 0.931 . S
C2498 C2492 1.383 . S
C2498 C2497 1.379 1_554 S
H2499 C2493 0.959 . S
H2500 C2493 0.961 . S
H2501 C2493 0.960 . S
H2502 C2494 0.930 . S
H2503 C2495 0.932 . S
H2504 C2512 0.929 . S
H2505 C2514 0.930 . S
H2506 C2516 0.930 . S
H2507 C2519 0.929 . S
H2508 C2522 0.930 . S
H2509 C2524 0.960 . S
H2510 C2524 0.960 . S
H2511 C2524 0.960 . S
C2512 H2504 0.929 . S
C2512 C2513 1.377 . S
C2512 C2514 1.384 . S
C2513 C2512 1.377 . S
C2513 C2519 1.390 . S
C2514 H2505 0.930 . S
C2514 C2512 1.384 . S
C2514 C2515 1.372 . S
C2515 C2514 1.372 . S
C2515 C2516 1.400 . S
C2515 C2520 1.490 . S
C2516 H2506 0.930 . S
C2516 C2515 1.400 . S
C2516 C2519 1.386 . S
H2517 C2533 0.930 . S
H2518 C2534 0.931 . S
C2519 H2507 0.929 . S
C2519 C2513 1.390 . S
C2519 C2516 1.386 . S
C2520 C2515 1.490 . S
C2520 C2522 1.395 . S
C2520 C2523 1.403 . S
H2521 C2527 0.930 . S
C2522 H2508 0.930 . S
C2522 C2520 1.395 . S
C2522 C2525 1.403 . S
C2523 C2520 1.403 . S
C2523 C2524 1.524 . S
C2523 C2527 1.400 . S
C2524 H2509 0.960 . S
C2524 H2510 0.960 . S
C2524 H2511 0.960 . S
C2524 C2523 1.524 . S
C2525 C2522 1.403 . S
C2525 C2526 1.392 . S
C2525 C2529 1.495 . S
C2526 C2525 1.392 . S
C2526 C2527 1.385 . S
C2526 C2528 1.478 . S
C2527 H2521 0.930 . S
C2527 C2523 1.400 . S
C2527 C2526 1.385 . S
C2528 C2526 1.478 . S
C2528 C2530 1.381 . S
C2528 C2534 1.383 . S
C2529 C2525 1.495 . S
C2529 H2535 0.959 . S
C2529 H2536 0.961 . S
C2529 H2537 0.960 . S
C2530 C2528 1.381 . S
C2530 C2531 1.394 . S
C2530 H2538 0.930 . S
C2531 C2530 1.394 . S
C2531 C2532 1.383 . S
C2531 H2539 0.929 . S
C2532 C2531 1.383 . S
C2532 C2533 1.377 . S
C2533 H2517 0.930 . S
C2533 C2532 1.377 . S
C2533 C2534 1.379 . S
C2534 H2518 0.931 . S
C2534 C2528 1.383 . S
C2534 C2533 1.379 . S
H2535 C2529 0.959 . S
H2536 C2529 0.961 . S
H2537 C2529 0.960 . S
H2538 C2530 0.930 . S
H2539 C2531 0.929 . S
H2540 C2548 0.929 . S
H2541 C2550 0.930 . S
H2542 C2552 0.930 . S
H2543 C2555 0.929 . S
H2544 C2558 0.930 . S
H2545 C2560 0.960 . S
H2546 C2560 0.960 . S
H2547 C2560 0.960 . S
C2548 H2540 0.929 . S
C2548 C2549 1.377 . S
C2548 C2550 1.384 . S
C2549 C2548 1.377 . S
C2549 C2555 1.390 . S
C2550 H2541 0.930 . S
C2550 C2548 1.384 . S
C2550 C2551 1.372 . S
C2551 C2550 1.372 . S
C2551 C2552 1.400 . S
C2551 C2556 1.490 . S
C2552 H2542 0.930 . S
C2552 C2551 1.400 . S
C2552 C2555 1.386 . S
H2553 C2569 0.930 . S
H2554 C2570 0.931 . S
C2555 H2543 0.929 . S
C2555 C2549 1.390 . S
C2555 C2552 1.386 . S
C2556 C2551 1.490 . S
C2556 C2558 1.395 . S
C2556 C2559 1.403 . S
H2557 C2563 0.930 . S
C2558 H2544 0.930 . S
C2558 C2556 1.395 . S
C2558 C2561 1.403 . S
C2559 C2556 1.403 . S
C2559 C2560 1.524 . S
C2559 C2563 1.400 . S
C2560 H2545 0.960 . S
C2560 H2546 0.960 . S
C2560 H2547 0.960 . S
C2560 C2559 1.524 . S
C2561 C2558 1.403 . S
C2561 C2562 1.392 . S
C2561 C2565 1.495 . S
C2562 C2561 1.392 . S
C2562 C2563 1.385 . S
C2562 C2564 1.478 . S
C2563 H2557 0.930 . S
C2563 C2559 1.400 . S
C2563 C2562 1.385 . S
C2564 C2562 1.478 . S
C2564 C2566 1.381 . S
C2564 C2570 1.383 . S
C2565 C2561 1.495 . S
C2565 H2571 0.959 . S
C2565 H2572 0.961 . S
C2565 H2573 0.960 . S
C2566 C2564 1.381 . S
C2566 C2567 1.394 . S
C2566 H2574 0.930 . S
C2567 C2566 1.394 . S
C2567 C2568 1.383 . S
C2567 H2575 0.929 . S
C2568 C2567 1.383 . S
C2568 C2569 1.377 . S
C2569 H2553 0.930 . S
C2569 C2568 1.377 . S
C2569 C2570 1.379 . S
C2570 H2554 0.931 . S
C2570 C2564 1.383 . S
C2570 C2569 1.379 . S
H2571 C2565 0.959 . S
H2572 C2565 0.961 . S
H2573 C2565 0.960 . S
H2574 C2566 0.930 . S
H2575 C2567 0.929 . S
H2576 C2584 0.929 . S
H2577 C2586 0.930 . S
H2578 C2588 0.930 . S
H2579 C2591 0.929 . S
H2580 C2594 0.930 . S
H2581 C2596 0.960 . S
H2582 C2596 0.960 . S
H2583 C2596 0.960 . S
C2584 H2576 0.929 . S
C2584 C2585 1.377 . S
C2584 C2586 1.384 . S
C2585 C2584 1.377 . S
C2585 C2591 1.390 . S
C2586 H2577 0.930 . S
C2586 C2584 1.384 . S
C2586 C2587 1.372 . S
C2587 C2586 1.372 . S
C2587 C2588 1.400 . S
C2587 C2592 1.490 . S
C2588 H2578 0.930 . S
C2588 C2587 1.400 . S
C2588 C2591 1.386 . S
H2589 C2605 0.930 . S
H2590 C2606 0.931 . S
C2591 H2579 0.929 . S
C2591 C2585 1.390 . S
C2591 C2588 1.386 . S
C2592 C2587 1.490 . S
C2592 C2594 1.395 . S
C2592 C2595 1.403 . S
H2593 C2599 0.930 . S
C2594 H2580 0.930 . S
C2594 C2592 1.395 . S
C2594 C2597 1.403 . S
C2595 C2592 1.403 . S
C2595 C2596 1.524 . S
C2595 C2599 1.400 . S
C2596 H2581 0.960 . S
C2596 H2582 0.960 . S
C2596 H2583 0.960 . S
C2596 C2595 1.524 . S
C2597 C2594 1.403 . S
C2597 C2598 1.392 . S
C2597 C2601 1.495 . S
C2598 C2597 1.392 . S
C2598 C2599 1.385 . S
C2598 C2600 1.478 . S
C2599 H2593 0.930 . S
C2599 C2595 1.400 . S
C2599 C2598 1.385 . S
C2600 C2598 1.478 . S
C2600 C2602 1.381 . S
C2600 C2606 1.383 . S
C2601 C2597 1.495 . S
C2601 H2607 0.959 . S
C2601 H2608 0.961 . S
C2601 H2609 0.960 . S
C2602 C2600 1.381 . S
C2602 C2603 1.394 . S
C2602 H2610 0.930 . S
C2603 C2602 1.394 . S
C2603 C2604 1.383 1_554 S
C2603 H2611 0.929 . S
C2604 C2603 1.383 1_556 S
C2604 C2605 1.377 . S
C2605 H2589 0.930 . S
C2605 C2604 1.377 . S
C2605 C2606 1.379 1_556 S
C2606 H2590 0.931 . S
C2606 C2600 1.383 . S
C2606 C2605 1.379 1_554 S
H2607 C2601 0.959 . S
H2608 C2601 0.961 . S
H2609 C2601 0.960 . S
H2610 C2602 0.930 . S
H2611 C2603 0.929 . S
H2612 C2620 0.929 . S
H2613 C2622 0.930 . S
H2614 C2624 0.930 . S
H2615 C2627 0.929 . S
H2616 C2630 0.930 . S
H2617 C2632 0.960 . S
H2618 C2632 0.960 . S
H2619 C2632 0.960 . S
C2620 H2612 0.929 . S
C2620 C2621 1.377 1_556 S
C2620 C2622 1.384 . S
C2621 C2620 1.377 1_554 S
C2621 C2627 1.390 . S
C2622 H2613 0.930 . S
C2622 C2620 1.384 . S
C2622 C2623 1.372 . S
C2623 C2622 1.372 . S
C2623 C2624 1.400 . S
C2623 C2628 1.490 . S
C2624 H2614 0.930 . S
C2624 C2623 1.400 . S
C2624 C2627 1.386 1_556 S
H2625 C2641 0.930 . S
H2626 C2642 0.931 . S
C2627 H2615 0.929 . S
C2627 C2621 1.390 . S
C2627 C2624 1.386 1_554 S
C2628 C2623 1.490 . S
C2628 C2630 1.395 . S
C2628 C2631 1.403 . S
H2629 C2635 0.930 . S
C2630 H2616 0.930 . S
C2630 C2628 1.395 . S
C2630 C2633 1.403 . S
C2631 C2628 1.403 . S
C2631 C2632 1.524 . S
C2631 C2635 1.400 . S
C2632 H2617 0.960 . S
C2632 H2618 0.960 . S
C2632 H2619 0.960 . S
C2632 C2631 1.524 . S
C2633 C2630 1.403 . S
C2633 C2634 1.392 . S
C2633 C2637 1.495 . S
C2634 C2633 1.392 . S
C2634 C2635 1.385 . S
C2634 C2636 1.478 . S
C2635 H2629 0.930 . S
C2635 C2631 1.400 . S
C2635 C2634 1.385 . S
C2636 C2634 1.478 . S
C2636 C2638 1.381 . S
C2636 C2642 1.383 . S
C2637 C2633 1.495 . S
C2637 H2643 0.959 . S
C2637 H2644 0.961 . S
C2637 H2645 0.960 . S
C2638 C2636 1.381 . S
C2638 C2639 1.394 . S
C2638 H2646 0.930 . S
C2639 C2638 1.394 . S
C2639 C2640 1.383 . S
C2639 H2647 0.929 . S
C2640 C2639 1.383 . S
C2640 C2641 1.377 . S
C2641 H2625 0.930 . S
C2641 C2640 1.377 . S
C2641 C2642 1.379 . S
C2642 H2626 0.931 . S
C2642 C2636 1.383 . S
C2642 C2641 1.379 . S
H2643 C2637 0.959 . S
H2644 C2637 0.961 . S
H2645 C2637 0.960 . S
H2646 C2638 0.930 . S
H2647 C2639 0.929 . S
H2648 C2656 0.929 . S
H2649 C2658 0.930 . S
H2650 C2660 0.930 . S
H2651 C2663 0.929 . S
H2652 C2666 0.930 . S
H2653 C2668 0.960 . S
H2654 C2668 0.960 . S
H2655 C2668 0.960 . S
C2656 H2648 0.929 . S
C2656 C2657 1.377 . S
C2656 C2658 1.384 . S
C2657 C2656 1.377 . S
C2657 C2663 1.390 . S
C2658 H2649 0.930 . S
C2658 C2656 1.384 . S
C2658 C2659 1.372 . S
C2659 C2658 1.372 . S
C2659 C2660 1.400 . S
C2659 C2664 1.490 . S
C2660 H2650 0.930 . S
C2660 C2659 1.400 . S
C2660 C2663 1.386 . S
H2661 C2677 0.930 . S
H2662 C2678 0.931 . S
C2663 H2651 0.929 . S
C2663 C2657 1.390 . S
C2663 C2660 1.386 . S
C2664 C2659 1.490 . S
C2664 C2666 1.395 . S
C2664 C2667 1.403 . S
H2665 C2671 0.930 . S
C2666 H2652 0.930 . S
C2666 C2664 1.395 . S
C2666 C2669 1.403 . S
C2667 C2664 1.403 . S
C2667 C2668 1.524 . S
C2667 C2671 1.400 . S
C2668 H2653 0.960 . S
C2668 H2654 0.960 . S
C2668 H2655 0.960 . S
C2668 C2667 1.524 . S
C2669 C2666 1.403 . S
C2669 C2670 1.392 . S
C2669 C2673 1.495 . S
C2670 C2669 1.392 . S
C2670 C2671 1.385 . S
C2670 C2672 1.478 . S
C2671 H2665 0.930 . S
C2671 C2667 1.400 . S
C2671 C2670 1.385 . S
C2672 C2670 1.478 . S
C2672 C2674 1.381 . S
C2672 C2678 1.383 . S
C2673 C2669 1.495 . S
C2673 H2679 0.959 . S
C2673 H2680 0.961 . S
C2673 H2681 0.960 . S
C2674 C2672 1.381 . S
C2674 C2675 1.394 . S
C2674 H2682 0.930 . S
C2675 C2674 1.394 . S
C2675 C2676 1.383 . S
C2675 H2683 0.929 . S
C2676 C2675 1.383 . S
C2676 C2677 1.377 . S
C2677 H2661 0.930 . S
C2677 C2676 1.377 . S
C2677 C2678 1.379 . S
C2678 H2662 0.931 . S
C2678 C2672 1.383 . S
C2678 C2677 1.379 . S
H2679 C2673 0.959 . S
H2680 C2673 0.961 . S
H2681 C2673 0.960 . S
H2682 C2674 0.930 . S
H2683 C2675 0.929 . S
H2684 C2692 0.929 . S
H2685 C2694 0.930 . S
H2686 C2696 0.930 . S
H2687 C2699 0.929 . S
H2688 C2702 0.930 . S
H2689 C2704 0.960 . S
H2690 C2704 0.960 . S
H2691 C2704 0.960 . S
C2692 H2684 0.929 . S
C2692 C2693 1.377 . S
C2692 C2694 1.384 . S
C2693 C2692 1.377 . S
C2693 C2699 1.390 . S
C2694 H2685 0.930 . S
C2694 C2692 1.384 . S
C2694 C2695 1.372 . S
C2695 C2694 1.372 . S
C2695 C2696 1.400 . S
C2695 C2700 1.490 . S
C2696 H2686 0.930 . S
C2696 C2695 1.400 . S
C2696 C2699 1.386 . S
H2697 C2713 0.930 . S
H2698 C2714 0.931 . S
C2699 H2687 0.929 . S
C2699 C2693 1.390 . S
C2699 C2696 1.386 . S
C2700 C2695 1.490 . S
C2700 C2702 1.395 . S
C2700 C2703 1.403 . S
H2701 C2707 0.930 . S
C2702 H2688 0.930 . S
C2702 C2700 1.395 . S
C2702 C2705 1.403 . S
C2703 C2700 1.403 . S
C2703 C2704 1.524 . S
C2703 C2707 1.400 . S
C2704 H2689 0.960 . S
C2704 H2690 0.960 . S
C2704 H2691 0.960 . S
C2704 C2703 1.524 . S
C2705 C2702 1.403 . S
C2705 C2706 1.392 . S
C2705 C2709 1.495 . S
C2706 C2705 1.392 . S
C2706 C2707 1.385 . S
C2706 C2708 1.478 . S
C2707 H2701 0.930 . S
C2707 C2703 1.400 . S
C2707 C2706 1.385 . S
C2708 C2706 1.478 . S
C2708 C2710 1.381 . S
C2708 C2714 1.383 . S
C2709 C2705 1.495 . S
C2709 H2715 0.959 . S
C2709 H2716 0.961 . S
C2709 H2717 0.960 . S
C2710 C2708 1.381 . S
C2710 C2711 1.394 . S
C2710 H2718 0.930 . S
C2711 C2710 1.394 . S
C2711 C2712 1.383 . S
C2711 H2719 0.929 . S
C2712 C2711 1.383 . S
C2712 C2713 1.377 . S
C2713 H2697 0.930 . S
C2713 C2712 1.377 . S
C2713 C2714 1.379 . S
C2714 H2698 0.931 . S
C2714 C2708 1.383 . S
C2714 C2713 1.379 . S
H2715 C2709 0.959 . S
H2716 C2709 0.961 . S
H2717 C2709 0.960 . S
H2718 C2710 0.930 . S
H2719 C2711 0.929 . S
C425 C81 1.570 . S
C444 C3 1.570 . S
C461 C16 1.571 . S
C480 C94 1.567 . S
C497 C57 1.571 . S
C516 C29 1.571 . S
C533 C42 1.570 . S
C552 C70 1.564 . S
C569 C107 1.571 . S
C588 C187 1.571 . S
C605 C200 1.571 . S
C624 C122 1.569 . S
C641 C133 1.570 . S
C660 C161 1.564 . S
C677 C172 1.570 . S
C696 C146 1.563 . S
C713 C211 1.570 . S
C732 C291 1.563 . S
C749 C226 1.571 . S
C768 C304 1.566 . S
C785 C265 1.570 . S
C804 C239 1.563 . S
C821 C276 1.571 . S
C840 C250 1.570 . S
C857 C315 1.571 . S
C876 C395 1.571 . S
C893 C328 1.569 . S
C912 C408 1.565 . S
C929 C367 1.571 . S
C948 C341 1.570 . S
C965 C354 1.570 . S
C984 C380 1.570 . S
C1001 C10 1.616 . S
C1020 C101 1.622 . S
C1037 C56 1.618 . S
C1056 C23 1.609 . S
C1073 C69 1.615 . S
C1092 C36 1.609 . S
C1109 C49 1.617 . S
C1128 C88 1.620 . S
C1145 C114 1.614 . S
C1164 C199 1.604 . S
C1181 C160 1.615 . S
C1200 C121 1.605 . S
C1217 C179 1.617 . S
C1236 C140 1.620 . S
C1253 C186 1.617 . S
C1272 C153 1.617 . S
C1289 C218 1.618 . S
C1308 C303 1.608 . S
C1325 C225 1.618 . S
C1344 C264 1.608 . S
C1361 C283 1.617 . S
C1380 C238 1.622 . S
C1397 C257 1.618 . S
C1416 C290 1.610 . S
C1433 C322 1.618 . S
C1452 C407 1.618 . S
C1469 C374 1.614 . S
C1488 C335 1.604 . S
C1505 C348 1.616 . S
C1524 C387 1.606 . S
C1541 C361 1.618 . S
C1560 C394 1.621 . S
C1577 C393 1.555 . S
C1596 C5 1.558 . S
C1613 C198 1.555 . S
C1632 C18 1.560 . S
C1649 C31 1.554 . S
C1668 C369 1.556 . S
C1685 C44 1.555 . S
C1704 C174 1.552 . S
C1721 C55 1.557 . S
C1740 C343 1.546 . S
C1757 C68 1.557 . S
C1776 C148 1.552 . S
C1793 C83 1.557 . S
C1812 C317 1.546 . S
C1829 C120 1.555 . S
C1848 C96 1.553 . S
C1865 C289 1.557 . S
C1884 C109 1.548 . S
C1901 C135 1.556 . S
C1920 C263 1.547 . S
C1937 C237 1.554 . S
C1956 C159 1.557 . S
C1973 C213 1.554 . S
C1992 C185 1.555 . S
C2009 C224 1.554 . S
C2028 C406 1.555 . S
C2045 C252 1.555 . S
C2064 C382 1.550 . S
C2081 C278 1.555 . S
C2100 C356 1.559 . S
C2117 C330 1.556 . S
C2136 C302 1.547 . S
C2153 C4 1.418 . S
C2172 C95 1.419 . S
C2189 C17 1.419 . S
C2208 C62 1.414 . S
C2225 C75 1.418 . S
C2244 C30 1.420 . S
C2261 C43 1.418 . S
C2280 C82 1.420 . S
C2297 C205 1.419 . S
C2316 C108 1.411 . S
C2333 C166 1.419 . S
C2352 C127 1.412 . S
C2369 C134 1.419 . S
C2388 C173 1.415 . S
C2405 C192 1.418 . S
C2424 C147 1.416 . S
C2441 C309 1.417 . S
C2460 C212 1.415 . S
C2477 C270 1.417 . S
C2496 C231 1.413 . S
C2513 C277 1.419 . S
C2532 C244 1.415 . S
C2549 C296 1.419 . S
C2568 C251 1.419 . S
C2585 C316 1.419 . S
C2604 C413 1.412 . S
C2621 C329 1.418 . S
C2640 C368 1.417 . S
C2657 C342 1.419 . S
C2676 C381 1.411 . S
C2693 C400 1.419 . S
C2712 C355 1.414 . S
