# Generated by pormake.
# Topology ukf, (4)-cn, num edge types: 1
# Building blocks:
#     Node 0, Type 0, BuildingBlock: NAHDIM_clean_sbu_0, # of connection points: 4
#     Node 1, Type 0, BuildingBlock: NAHDIM_clean_sbu_0, # of connection points: 4
#     Node 2, Type 0, BuildingBlock: NAHDIM_clean_sbu_0, # of connection points: 4
#     Node 3, Type 0, BuildingBlock: NAHDIM_clean_sbu_0, # of connection points: 4
#     Node 4, Type 0, BuildingBlock: NAHDIM_clean_sbu_0, # of connection points: 4
#     Node 5, Type 0, BuildingBlock: NAHDIM_clean_sbu_0, # of connection points: 4
#     Node 6, Type 0, BuildingBlock: NAHDIM_clean_sbu_0, # of connection points: 4
#     Node 7, Type 0, BuildingBlock: NAHDIM_clean_sbu_0, # of connection points: 4
#     Node 8, Type 0, BuildingBlock: NAHDIM_clean_sbu_0, # of connection points: 4
#     Node 9, Type 0, BuildingBlock: NAHDIM_clean_sbu_0, # of connection points: 4
#     Node 10, Type 0, BuildingBlock: NAHDIM_clean_sbu_0, # of connection points: 4
#     Node 11, Type 0, BuildingBlock: NAHDIM_clean_sbu_0, # of connection points: 4
#     Edge 12, Type (0, 0), BuildingBlock: XIVTED_clean_linker_0, # of connection points: 2
#     Edge 13, Type (0, 0), BuildingBlock: XIVTED_clean_linker_0, # of connection points: 2
#     Edge 14, Type (0, 0), BuildingBlock: XIVTED_clean_linker_0, # of connection points: 2
#     Edge 15, Type (0, 0), BuildingBlock: XIVTED_clean_linker_0, # of connection points: 2
#     Edge 16, Type (0, 0), BuildingBlock: XIVTED_clean_linker_0, # of connection points: 2
#     Edge 17, Type (0, 0), BuildingBlock: XIVTED_clean_linker_0, # of connection points: 2
#     Edge 18, Type (0, 0), BuildingBlock: XIVTED_clean_linker_0, # of connection points: 2
#     Edge 19, Type (0, 0), BuildingBlock: XIVTED_clean_linker_0, # of connection points: 2
#     Edge 20, Type (0, 0), BuildingBlock: XIVTED_clean_linker_0, # of connection points: 2
#     Edge 21, Type (0, 0), BuildingBlock: XIVTED_clean_linker_0, # of connection points: 2
#     Edge 22, Type (0, 0), BuildingBlock: XIVTED_clean_linker_0, # of connection points: 2
#     Edge 23, Type (0, 0), BuildingBlock: XIVTED_clean_linker_0, # of connection points: 2
#     Edge 24, Type (0, 0), BuildingBlock: XIVTED_clean_linker_0, # of connection points: 2
#     Edge 25, Type (0, 0), BuildingBlock: XIVTED_clean_linker_0, # of connection points: 2
#     Edge 26, Type (0, 0), BuildingBlock: XIVTED_clean_linker_0, # of connection points: 2
#     Edge 27, Type (0, 0), BuildingBlock: XIVTED_clean_linker_0, # of connection points: 2
#     Edge 28, Type (0, 0), BuildingBlock: XIVTED_clean_linker_0, # of connection points: 2
#     Edge 29, Type (0, 0), BuildingBlock: XIVTED_clean_linker_0, # of connection points: 2
#     Edge 30, Type (0, 0), BuildingBlock: XIVTED_clean_linker_0, # of connection points: 2
#     Edge 31, Type (0, 0), BuildingBlock: XIVTED_clean_linker_0, # of connection points: 2
#     Edge 32, Type (0, 0), BuildingBlock: XIVTED_clean_linker_0, # of connection points: 2
#     Edge 33, Type (0, 0), BuildingBlock: XIVTED_clean_linker_0, # of connection points: 2
#     Edge 34, Type (0, 0), BuildingBlock: XIVTED_clean_linker_0, # of connection points: 2
#     Edge 35, Type (0, 0), BuildingBlock: XIVTED_clean_linker_0, # of connection points: 2
# Relax obj value: 0.169
# Max RMSD: 0.176
# Mean RMSD: 0.169
data_MOF--net-ukf--node1-NAHDIM_clean_sbu_0--edge1-XIVTED_clean_linker_0
_symmetry_space_group_name_H-M    P1
_symmetry_Int_Tables_number       1
_symmetry_cell_setting            triclinic
loop_
_symmetry_equiv_pos_as_xyz
'x, y, z'
_cell_length_a     32.99248
_cell_length_b     32.5333
_cell_length_c     61.655006
_cell_angle_alpha  90.008835
_cell_angle_beta   89.987744
_cell_angle_gamma 120.52204
loop_
_atom_site_label
_atom_site_type_symbol
_atom_site_fract_x
_atom_site_fract_y
_atom_site_fract_z
_atom_type_partial_charge
C0 C 0.43229 0.31234 0.02075 0.0
O1 O 0.45595 0.2981 0.0089 0.0
O2 O 0.45649 0.22258 0.02837 0.0
Zn3 Zn 0.40338 0.22418 0.04357 0.0
O4 O 0.41261 0.22546 0.07587 0.0
C5 C 0.32453 0.15415 0.01721 0.0
O6 O 0.34547 0.18401 0.00109 0.0
O7 O 0.40511 0.2851 0.03558 0.0
C8 C 0.39339 0.1875 0.08715 0.0
O9 O 0.36802 0.14616 0.07742 0.0
C10 C 0.46887 0.19202 0.0318 0.0
O11 O 0.44606 0.15828 0.04625 0.0
O12 O 0.34225 0.16524 0.03607 0.0
C13 C 0.09594 0.43427 0.35899 0.0
O14 O 0.12461 0.44699 0.34231 0.0
O15 O 0.20931 0.44966 0.36115 0.0
Zn16 Zn 0.15218 0.39532 0.37517 0.0
O17 O 0.16514 0.38912 0.40668 0.0
C18 C 0.13503 0.29961 0.36889 0.0
O19 O 0.13327 0.29856 0.39018 0.0
O20 O 0.09954 0.40965 0.37408 0.0
C21 C 0.20545 0.41097 0.4156 0.0
O22 O 0.24251 0.44024 0.40408 0.0
C23 C 0.22711 0.49277 0.36717 0.0
O24 O 0.20821 0.503 0.38353 0.0
O25 O 0.13897 0.33578 0.35899 0.0
C26 C 0.84466 0.14634 0.69454 0.0
O27 O 0.84371 0.14321 0.71579 0.0
O28 O 0.7725 0.16214 0.73294 0.0
Zn29 Zn 0.76862 0.16628 0.70049 0.0
O30 O 0.78581 0.23276 0.6922 0.0
C31 C 0.67677 0.08085 0.69737 0.0
O32 O 0.69595 0.06207 0.70952 0.0
O33 O 0.81416 0.15264 0.68492 0.0
C34 C 0.76505 0.2527 0.70064 0.0
O35 O 0.73274 0.22974 0.71552 0.0
C36 C 0.80411 0.19696 0.74374 0.0
O37 O 0.8354 0.23546 0.73342 0.0
O38 O 0.7018 0.12371 0.69103 0.0
C39 C 0.54217 0.65797 0.03897 0.0
O40 O 0.5155 0.67136 0.0489 0.0
O41 O 0.54918 0.7647 0.02728 0.0
Zn42 Zn 0.59823 0.75534 0.04214 0.0
O43 O 0.59368 0.75751 0.07462 0.0
C44 C 0.67228 0.81979 0.01319 0.0
O45 O 0.6419 0.79374 0.99809 0.0
O46 O 0.58396 0.68961 0.03385 0.0
C47 C 0.61442 0.79683 0.08487 0.0
O48 O 0.63788 0.83691 0.07396 0.0
C49 C 0.52985 0.78699 0.03473 0.0
O50 O 0.54236 0.80741 0.05386 0.0
O51 O 0.66208 0.80792 0.03293 0.0
C52 C 0.90145 0.58575 0.38764 0.0
O53 O 0.88307 0.58122 0.40701 0.0
O54 O 0.77552 0.55712 0.36741 0.0
Zn55 Zn 0.8349 0.61501 0.37805 0.0
O56 O 0.82928 0.62373 0.41024 0.0
C57 C 0.84424 0.7077 0.37179 0.0
O58 O 0.84711 0.70909 0.39305 0.0
O59 O 0.88826 0.60253 0.37233 0.0
C60 C 0.79062 0.60179 0.42056 0.0
O61 O 0.75186 0.57202 0.4102 0.0
C62 C 0.76396 0.51565 0.37415 0.0
O63 O 0.79099 0.51086 0.38833 0.0
O64 O 0.84158 0.67221 0.36175 0.0
C65 C 0.16223 0.86523 0.70029 0.0
O66 O 0.16165 0.86523 0.72159 0.0
O67 O 0.22638 0.83947 0.73862 0.0
Zn68 Zn 0.23423 0.84009 0.70626 0.0
O69 O 0.21574 0.77426 0.69606 0.0
C70 C 0.32618 0.92249 0.69169 0.0
O71 O 0.30441 0.9455 0.68649 0.0
O72 O 0.19267 0.85905 0.6905 0.0
C73 C 0.23871 0.75509 0.70272 0.0
O74 O 0.27276 0.77809 0.71685 0.0
C75 C 0.19427 0.80313 0.74843 0.0
O76 O 0.16449 0.76558 0.7371 0.0
O77 O 0.30298 0.88074 0.69957 0.0
C78 C 0.67391 0.55945 0.62767 0.0
O79 O 0.6887 0.53404 0.61746 0.0
O80 O 0.77777 0.56623 0.64062 0.0
Zn81 Zn 0.76959 0.61675 0.6261 0.0
O82 O 0.77174 0.61058 0.59365 0.0
C83 C 0.86136 0.69718 0.62711 0.0
O84 O 0.86467 0.6733 0.6107 0.0
O85 O 0.70411 0.60144 0.63381 0.0
C86 C 0.77969 0.64444 0.58082 0.0
O87 O 0.78773 0.68536 0.5888 0.0
C88 C 0.80205 0.54925 0.63308 0.0
O89 O 0.82474 0.56578 0.61469 0.0
O90 O 0.82189 0.68081 0.63662 0.0
C91 C 0.0846 0.66551 0.97519 0.0
O92 O 0.07628 0.69294 0.98781 0.0
O93 O 0.22489 0.76936 0.96478 0.0
Zn94 Zn 0.16153 0.75256 0.9531 0.0
O95 O 0.16424 0.75739 0.92068 0.0
C96 C 0.15419 0.81339 0.98447 0.0
O97 O 0.16613 0.78976 0.99777 0.0
O98 O 0.11638 0.68412 0.96076 0.0
C99 C 0.19169 0.79635 0.91106 0.0
O100 O 0.21943 0.83437 0.92264 0.0
C101 C 0.2488 0.75296 0.95623 0.0
O102 O 0.23212 0.72537 0.93906 0.0
O103 O 0.14609 0.80064 0.96473 0.0
C104 C 0.30277 0.16287 0.29503 0.0
O105 O 0.30824 0.16709 0.27389 0.0
O106 O 0.39082 0.17035 0.26053 0.0
Zn107 Zn 0.39307 0.16842 0.29313 0.0
O108 O 0.44825 0.22945 0.30404 0.0
C109 C 0.3865 0.07721 0.28994 0.0
O110 O 0.35557 0.07052 0.27487 0.0
O111 O 0.33363 0.16064 0.30652 0.0
C112 C 0.46609 0.22947 0.32231 0.0
O113 O 0.44719 0.18996 0.33376 0.0
C114 C 0.41109 0.20865 0.24953 0.0
O115 O 0.43423 0.24983 0.25962 0.0
O116 O 0.40498 0.11551 0.30092 0.0
C117 C 0.3289 0.43313 0.64262 0.0
O118 O 0.31272 0.45491 0.65469 0.0
O119 O 0.23713 0.45189 0.63474 0.0
Zn120 Zn 0.24048 0.39841 0.62024 0.0
O121 O 0.23946 0.40575 0.58784 0.0
C122 C 0.14614 0.3193 0.62007 0.0
O123 O 0.14439 0.3416 0.60266 0.0
O124 O 0.30289 0.40477 0.62779 0.0
C125 C 0.23201 0.37198 0.57505 0.0
O126 O 0.22418 0.3312 0.58311 0.0
C127 C 0.20903 0.46616 0.62961 0.0
O128 O 0.17941 0.44546 0.61351 0.0
O129 O 0.18475 0.33619 0.63039 0.0
C130 C 0.88293 0.31018 0.97618 0.0
O131 O 0.84383 0.28837 0.9875 0.0
O132 O 0.77483 0.21106 0.96157 0.0
Zn133 Zn 0.83712 0.22454 0.94966 0.0
O134 O 0.83558 0.22682 0.91718 0.0
C135 C 0.84553 0.15822 0.97772 0.0
O136 O 0.84385 0.18521 0.99314 0.0
O137 O 0.88853 0.28864 0.96027 0.0
C138 C 0.80632 0.19035 0.90645 0.0
O139 O 0.77663 0.15129 0.91692 0.0
C140 C 0.75566 0.23423 0.95509 0.0
O141 O 0.77677 0.26712 0.94011 0.0
O142 O 0.84603 0.17011 0.95806 0.0
C143 C 0.69421 0.86184 0.29553 0.0
O144 O 0.69761 0.8683 0.27444 0.0
O145 O 0.60587 0.83815 0.25682 0.0
Zn146 Zn 0.59852 0.84255 0.28908 0.0
O147 O 0.544 0.78165 0.30094 0.0
C148 C 0.5444 0.88385 0.2832 0.0
O149 O 0.52617 0.84713 0.26996 0.0
O150 O 0.65682 0.854 0.30515 0.0
C151 C 0.51112 0.74815 0.29004 0.0
O152 O 0.51186 0.7505 0.26877 0.0
C153 C 0.60875 0.80502 0.24737 0.0
O154 O 0.60767 0.77058 0.25896 0.0
O155 O 0.58063 0.89263 0.29416 0.0
H156 H 0.17036 0.8521 0.02519 0.0
H157 H 0.28146 0.1141 0.97845 0.0
H158 H 0.15569 0.88245 0.95844 0.0
H159 H 0.27811 0.08213 0.04662 0.0
H160 H 0.22569 0.02969 0.97148 0.0
H161 H 0.19918 0.93549 0.03424 0.0
C162 C 0.17235 0.87608 0.0125 0.0
C163 C 0.16141 0.86043 0.99096 0.0
C164 C 0.2366 0.04127 0.98801 0.0
C165 C 0.19519 0.95622 0.00111 0.0
C166 C 0.26848 0.08951 0.992 0.0
C167 C 0.28519 0.10511 0.01309 0.0
C168 C 0.22168 0.0084 0.00522 0.0
C169 C 0.26678 0.07166 0.03004 0.0
C170 C 0.1889 0.92379 0.01767 0.0
C171 C 0.16423 0.89303 0.97523 0.0
N172 N 0.23662 0.02484 0.02569 0.0
N173 N 0.1817 0.93959 0.98054 0.0
H174 H 0.13904 0.28971 0.3249 0.0
H175 H 0.27875 0.15299 0.3381 0.0
H176 H 0.15094 0.23127 0.38582 0.0
H177 H 0.24162 0.18524 0.27585 0.0
H178 H 0.225 0.1737 0.35554 0.0
H179 H 0.16846 0.2439 0.30618 0.0
C180 C 0.14703 0.26659 0.33431 0.0
C181 C 0.14325 0.26497 0.357 0.0
C182 C 0.22805 0.17556 0.33804 0.0
C183 C 0.17769 0.213 0.33571 0.0
C184 C 0.25882 0.1638 0.32807 0.0
C185 C 0.26527 0.16809 0.30551 0.0
C186 C 0.204 0.19234 0.32539 0.0
C187 C 0.23817 0.18187 0.29332 0.0
C188 C 0.16389 0.24045 0.32361 0.0
C189 C 0.15374 0.23405 0.36832 0.0
N190 N 0.2093 0.19422 0.30344 0.0
N191 N 0.17129 0.20997 0.3576 0.0
H192 H 0.92654 0.15592 0.71067 0.0
H193 H 0.06085 0.26941 0.60005 0.0
H194 H 0.85822 0.15374 0.65061 0.0
H195 H 0.13123 0.27771 0.6603 0.0
H196 H 0.98599 0.21229 0.61664 0.0
H197 H 0.00039 0.18492 0.69092 0.0
C198 C 0.92678 0.16056 0.69326 0.0
C199 C 0.88634 0.15337 0.68235 0.0
C200 C 0.01782 0.22606 0.62618 0.0
C201 C 0.97084 0.18699 0.65972 0.0
C202 C 0.06064 0.25876 0.61671 0.0
C203 C 0.10224 0.27906 0.62894 0.0
C204 C 0.01643 0.2139 0.64814 0.0
C205 C 0.09992 0.26335 0.65035 0.0
C206 C 0.96905 0.17731 0.68201 0.0
C207 C 0.88871 0.15962 0.65976 0.0
N208 N 0.05758 0.23226 0.65939 0.0
N209 N 0.9304 0.17677 0.64927 0.0
H210 H 0.73385 0.88856 0.04123 0.0
H211 H 0.83403 0.08842 0.94926 0.0
H212 H 0.70294 0.85978 0.973 0.0
H213 H 0.8372 0.11783 0.01773 0.0
H214 H 0.80494 0.0047 0.95771 0.0
H215 H 0.79021 0.97176 0.03256 0.0
C216 C 0.73951 0.89946 0.02438 0.0
C217 C 0.7129 0.86729 0.00783 0.0
C218 C 0.8127 0.02962 0.97089 0.0
C219 C 0.77728 0.96261 0.99786 0.0
C220 C 0.82946 0.07752 0.9661 0.0
C221 C 0.83717 0.11008 0.98281 0.0
C222 C 0.80367 0.01416 0.99253 0.0
C223 C 0.83105 0.09387 0.00432 0.0
C224 C 0.77163 0.94706 0.01947 0.0
C225 C 0.72214 0.88346 0.9863 0.0
N226 N 0.81405 0.0469 0.00855 0.0
N227 N 0.75312 0.93016 0.98196 0.0
H228 H 0.70519 0.85878 0.33943 0.0
H229 H 0.84242 0.72002 0.32783 0.0
H230 H 0.76133 0.84574 0.27826 0.0
H231 H 0.82642 0.77427 0.38916 0.0
H232 H 0.81671 0.76926 0.30922 0.0
H233 H 0.75299 0.83192 0.35808 0.0
C234 C 0.72814 0.851 0.32995 0.0
C235 C 0.72887 0.85402 0.30724 0.0
C236 C 0.81955 0.77096 0.32673 0.0
C237 C 0.78305 0.82246 0.32843 0.0
C238 C 0.83415 0.74278 0.33737 0.0
C239 C 0.83602 0.74255 0.3601 0.0
C240 C 0.80599 0.79849 0.33894 0.0
C241 C 0.82519 0.77301 0.37162 0.0
C242 C 0.75546 0.8357 0.3406 0.0
C243 C 0.75948 0.84374 0.29578 0.0
N244 N 0.8099 0.79913 0.36094 0.0
N245 N 0.78472 0.82759 0.30647 0.0
H246 H 0.87389 0.74098 0.6667 0.0
H247 H 0.15169 0.86502 0.65623 0.0
H248 H 0.94747 0.74652 0.60788 0.0
H249 H 0.07974 0.85412 0.71634 0.0
H250 H 0.07838 0.83896 0.63664 0.0
H251 H 0.94921 0.79843 0.68329 0.0
C252 C 0.90574 0.75497 0.65713 0.0
C253 C 0.90456 0.7382 0.63604 0.0
C254 C 0.07873 0.84301 0.65409 0.0
C255 C 0.9907 0.8036 0.65492 0.0
C256 C 0.12069 0.85803 0.66529 0.0
C257 C 0.12163 0.86069 0.68801 0.0
C258 C 0.03728 0.83006 0.6657 0.0
C259 C 0.0805 0.85186 0.69884 0.0
C260 C 0.94875 0.78768 0.66663 0.0
C261 C 0.94684 0.75775 0.62435 0.0
N262 N 0.03974 0.83602 0.68763 0.0
N263 N 0.98821 0.78887 0.63404 0.0
H264 H 0.70716 0.28013 0.94652 0.0
H265 H 0.50969 0.13715 0.03673 0.0
H266 H 0.70343 0.16953 0.98667 0.0
H267 H 0.52026 0.25469 -0.00045 0.0
H268 H 0.57795 0.14522 0.01721 0.0
H269 H 0.63581 0.26794 0.96437 0.0
C270 C 0.69126 0.25315 0.95903 0.0
C271 C 0.71142 0.22593 0.96515 0.0
C272 C 0.56524 0.16916 0.0133 0.0
C273 C 0.6297 0.21182 0.98571 0.0
C274 C 0.52624 0.16454 0.02443 0.0
C275 C 0.50931 0.19538 0.01983 0.0
C276 C 0.58737 0.2048 0.99743 0.0
C277 C 0.53216 0.23021 0.00371 0.0
C278 C 0.65052 0.24624 0.96925 0.0
C279 C 0.68919 0.19143 0.98146 0.0
N280 N 0.57001 0.23399 0.99313 0.0
N281 N 0.6496 0.18544 0.99121 0.0
H282 H 0.2859 0.58467 0.38062 0.0
H283 H 0.44142 0.66404 0.27291 0.0
H284 H 0.2643 0.48699 0.32848 0.0
H285 H 0.48785 0.74312 0.33291 0.0
H286 H 0.37232 0.60128 0.29179 0.0
H287 H 0.35612 0.64638 0.36199 0.0
C288 C 0.29585 0.57624 0.36524 0.0
C289 C 0.26928 0.53065 0.35609 0.0
C290 C 0.3978 0.6323 0.30081 0.0
C291 C 0.3493 0.60099 0.3347 0.0
C292 C 0.43717 0.66813 0.29006 0.0
C293 C 0.47043 0.70884 0.30136 0.0
C294 C 0.39135 0.63756 0.32294 0.0
C295 C 0.46318 0.71226 0.32357 0.0
C296 C 0.33602 0.61138 0.35468 0.0
C297 C 0.28388 0.52163 0.33616 0.0
N298 N 0.42425 0.67723 0.3336 0.0
N299 N 0.3228 0.55656 0.32607 0.0
H300 H 0.72739 0.3059 0.71493 0.0
H301 H 0.84837 0.50239 0.62155 0.0
H302 H 0.82538 0.30679 0.66822 0.0
H303 H 0.75558 0.50466 0.67034 0.0
H304 H 0.84371 0.43307 0.63948 0.0
H305 H 0.74061 0.3812 0.69992 0.0
C306 C 0.75189 0.32205 0.7016 0.0
C307 C 0.77505 0.29982 0.69273 0.0
C308 C 0.8246 0.44893 0.64632 0.0
C309 C 0.79022 0.38594 0.67539 0.0
C310 C 0.82724 0.48851 0.63609 0.0
C311 C 0.8021 0.50919 0.64437 0.0
C312 C 0.79648 0.42982 0.66492 0.0
C313 C 0.7754 0.48978 0.6633 0.0
C314 C 0.75944 0.36507 0.69303 0.0
C315 C 0.80657 0.32253 0.67551 0.0
N316 N 0.7731 0.45106 0.67285 0.0
N317 N 0.813 0.36418 0.66732 0.0
H318 H 0.30843 0.72284 0.94257 0.0
H319 H 0.47756 0.82773 0.04601 0.0
H320 H 0.29086 0.80481 0.9929 0.0
H321 H 0.49502 0.74685 0.99509 0.0
H322 H 0.41176 0.82372 0.02588 0.0
H323 H 0.37963 0.73528 0.96064 0.0
C324 C 0.31965 0.74366 0.95736 0.0
C325 C 0.29345 0.76255 0.96629 0.0
C326 C 0.43016 0.80706 0.01908 0.0
C327 C 0.37493 0.77683 0.98714 0.0
C328 C 0.46775 0.80935 0.03056 0.0
C329 C 0.49169 0.78735 0.0223 0.0
C330 C 0.41637 0.78252 -0.00079 0.0
C331 C 0.47748 0.76414 0.00216 0.0
C332 C 0.36034 0.75075 0.96769 0.0
C333 C 0.30983 0.78939 0.98547 0.0
N334 N 0.44066 0.76216 0.99138 0.0
N335 N 0.34938 0.79551 0.99531 0.0
H336 H 0.51076 0.3189 0.30429 0.0
H337 H 0.724 0.42387 0.38883 0.0
H338 H 0.51892 0.23843 0.35808 0.0
H339 H 0.70329 0.51131 0.34264 0.0
H340 H 0.65079 0.35462 0.37654 0.0
H341 H 0.58296 0.38911 0.31701 0.0
C342 C 0.52765 0.31601 0.3188 0.0
C343 C 0.50879 0.27271 0.33013 0.0
C344 C 0.6622 0.38897 0.36912 0.0
C345 C 0.59151 0.3528 0.34468 0.0
C346 C 0.7041 0.42852 0.37608 0.0
C347 C 0.71982 0.47347 0.36674 0.0
C348 C 0.63592 0.39426 0.35259 0.0
C349 C 0.69247 0.47734 0.35032 0.0
C350 C 0.56883 0.35612 0.32606 0.0
C351 C 0.53215 0.27107 0.34884 0.0
N352 N 0.65191 0.4382 0.34372 0.0
N353 N 0.57238 0.31048 0.35548 0.0
H354 H 0.26495 0.51489 0.66408 0.0
H355 H 0.17385 0.70017 0.67182 0.0
H356 H 0.15669 0.5089 0.62255 0.0
H357 H 0.28323 0.70576 0.71238 0.0
H358 H 0.16354 0.62745 0.65497 0.0
H359 H 0.26886 0.58234 0.68316 0.0
C360 C 0.24189 0.52769 0.65897 0.0
C361 C 0.21058 0.5063 0.64159 0.0
C362 C 0.18963 0.64447 0.66763 0.0
C363 C 0.21494 0.58379 0.66345 0.0
C364 C 0.1955 0.68596 0.67729 0.0
C365 C 0.22968 0.70927 0.69346 0.0
C366 C 0.21815 0.62616 0.67417 0.0
C367 C 0.25661 0.68915 0.69992 0.0
C368 C 0.24413 0.56625 0.66992 0.0
C369 C 0.18145 0.52438 0.6358 0.0
N370 N 0.25041 0.64891 0.69018 0.0
N371 N 0.18446 0.56222 0.64667 0.0
H372 H 0.35563 0.11361 0.11616 0.0
H373 H 0.45123 0.283 0.22066 0.0
H374 H 0.44047 0.26721 0.11262 0.0
H375 H 0.36682 0.12932 0.2238 0.0
H376 H 0.44831 0.27812 0.18107 0.0
H377 H 0.36044 0.11878 0.15566 0.0
C378 C 0.37542 0.14844 0.12368 0.0
C379 C 0.39761 0.19005 0.11105 0.0
C380 C 0.43044 0.24547 0.19043 0.0
C381 C 0.40313 0.19625 0.15631 0.0
C382 C 0.43205 0.24824 0.21304 0.0
C383 C 0.40922 0.20651 0.22557 0.0
C384 C 0.40583 0.20066 0.18028 0.0
C385 C 0.38493 0.16244 0.2148 0.0
C386 C 0.3781 0.15137 0.14625 0.0
C387 C 0.42277 0.23419 0.1217 0.0
N388 N 0.38388 0.1607 0.1928 0.0
N389 N 0.42475 0.23613 0.14372 0.0
H390 H 0.14574 0.33542 0.44102 0.0
H391 H 0.27059 0.4553 0.5521 0.0
H392 H 0.27603 0.47056 0.4431 0.0
H393 H 0.18909 0.30236 0.5443 0.0
H394 H 0.26574 0.46443 0.5129 0.0
H395 H 0.15369 0.32521 0.47986 0.0
C396 C 0.17598 0.36293 0.44966 0.0
C397 C 0.2103 0.40392 0.43888 0.0
C398 C 0.24914 0.42892 0.5198 0.0
C399 C 0.21921 0.39268 0.4832 0.0
C400 C 0.25169 0.42367 0.54213 0.0
C401 C 0.23022 0.37799 0.55141 0.0
C402 C 0.2241 0.38825 0.50677 0.0
C403 C 0.20632 0.3382 0.53776 0.0
C404 C 0.18058 0.35696 0.47175 0.0
C405 C 0.2489 0.43835 0.4508 0.0
N406 N 0.2035 0.34425 0.51612 0.0
N407 N 0.25211 0.43219 0.47241 0.0
H408 H 0.86438 0.26466 0.87987 0.0
H409 H 0.74523 0.12257 0.77017 0.0
H410 H 0.74858 0.11915 0.87837 0.0
H411 H 0.86439 0.26621 0.77189 0.0
H412 H 0.74578 0.12053 0.80977 0.0
H413 H 0.86451 0.26593 0.8403 0.0
C414 C 0.83892 0.23296 0.87123 0.0
C415 C 0.80639 0.19171 0.88247 0.0
C416 C 0.77186 0.15247 0.80148 0.0
C417 C 0.80641 0.19293 0.8371 0.0
C418 C 0.77159 0.15366 0.77886 0.0
C419 C 0.8048 0.19467 0.76768 0.0
C420 C 0.80551 0.1926 0.81304 0.0
C421 C 0.83812 0.23385 0.77982 0.0
C422 C 0.83907 0.2337 0.84861 0.0
C423 C 0.77428 0.15172 0.87039 0.0
N424 N 0.83755 0.23187 0.80183 0.0
N425 N 0.77509 0.15334 0.84835 0.0
H426 H 0.58154 0.72078 0.11263 0.0
H427 H 0.62536 0.87693 0.21932 0.0
H428 H 0.64466 0.874 0.11169 0.0
H429 H 0.59799 0.73233 0.22094 0.0
H430 H 0.62706 0.87504 0.17977 0.0
H431 H 0.5813 0.72274 0.15227 0.0
C432 C 0.59523 0.75483 0.12075 0.0
C433 C 0.61316 0.79732 0.10882 0.0
C434 C 0.62086 0.84378 0.18877 0.0
C435 C 0.6129 0.79974 0.15416 0.0
C436 C 0.61979 0.84478 0.21136 0.0
C437 C 0.61149 0.80468 0.22346 0.0
C438 C 0.61308 0.80223 0.17815 0.0
C439 C 0.60463 0.76408 0.21226 0.0
C440 C 0.59526 0.75591 0.14337 0.0
C441 C 0.63058 0.84039 0.12022 0.0
N442 N 0.60531 0.76379 0.19021 0.0
N443 N 0.62987 0.84048 0.14225 0.0
H444 H 0.73994 0.56063 0.5583 0.0
H445 H 0.85432 0.67752 0.44491 0.0
H446 H 0.82183 0.71333 0.54967 0.0
H447 H 0.72415 0.54275 0.44971 0.0
H448 H 0.85143 0.68856 0.48411 0.0
H449 H 0.74223 0.55047 0.51905 0.0
C450 C 0.75847 0.592 0.54814 0.0
C451 C 0.78067 0.63791 0.55719 0.0
C452 C 0.8235 0.65668 0.47651 0.0
C453 C 0.78383 0.62647 0.51247 0.0
C454 C 0.82522 0.65024 0.45422 0.0
C455 C 0.78937 0.60918 0.44409 0.0
C456 C 0.78622 0.62134 0.48877 0.0
C457 C 0.75236 0.57504 0.45688 0.0
C458 C 0.75957 0.58616 0.52578 0.0
C459 C 0.80405 0.67733 0.5433 0.0
N460 N 0.75192 0.58169 0.47861 0.0
N461 N 0.80535 0.67072 0.5216 0.0
H462 H 0.24725 0.8729 0.88494 0.0
H463 H 0.13306 0.72994 0.77475 0.0
H464 H 0.13651 0.7251 0.8826 0.0
H465 H 0.24978 0.87495 0.77668 0.0
H466 H 0.1315 0.72881 0.81434 0.0
H467 H 0.24673 0.87553 0.84531 0.0
C468 C 0.22282 0.84101 0.87611 0.0
C469 C 0.19194 0.7987 0.88711 0.0
C470 C 0.15741 0.76092 0.80611 0.0
C471 C 0.19108 0.80147 0.84177 0.0
C472 C 0.15826 0.76162 0.78349 0.0
C473 C 0.19169 0.80255 0.77237 0.0
C474 C 0.19018 0.80147 0.81773 0.0
C475 C 0.22346 0.84255 0.78457 0.0
C476 C 0.22254 0.84254 0.85348 0.0
C477 C 0.16102 0.75849 0.87481 0.0
N478 N 0.22197 0.84097 0.80659 0.0
N479 N 0.16139 0.76088 0.85282 0.0
H480 H 0.45649 0.58283 0.05023 0.0
H481 H 0.50183 0.3855 0.99714 0.0
H482 H 0.58448 0.61683 0.01645 0.0
H483 H 0.38854 0.3534 0.04172 0.0
H484 H 0.52645 0.47004 -0.00069 0.0
H485 H 0.42581 0.49854 0.04286 0.0
C486 C 0.47817 0.57261 0.04121 0.0
C487 C 0.52333 0.60696 0.03408 0.0
C488 C 0.49598 0.44442 0.00847 0.0
C489 C 0.48816 0.51026 0.02551 0.0
C490 C 0.48169 0.39609 0.00715 0.0
C491 C 0.44329 0.36233 0.01944 0.0
C492 C 0.47152 0.45904 0.02207 0.0
C493 C 0.41856 0.3782 0.0321 0.0
C494 C 0.46056 0.5244 0.037 0.0
C495 C 0.54963 0.59152 0.02237 0.0
N496 N 0.43328 0.42543 0.03319 0.0
N497 N 0.53169 0.54422 0.01849 0.0
H498 H 0.92877 0.54042 0.4162 0.0
H499 H 0.07985 0.48932 0.33049 0.0
H500 H 0.94385 0.58499 0.34927 0.0
H501 H 0.0408 0.42473 0.39397 0.0
H502 H 0.03318 0.52737 0.33702 0.0
H503 H 0.97437 0.50226 0.40858 0.0
C504 C 0.94193 0.5425 0.3999 0.0
C505 C 0.93235 0.56594 0.38334 0.0
C506 C 0.03465 0.50463 0.34944 0.0
C507 C 0.98456 0.52182 0.37446 0.0
C508 C 0.06117 0.48279 0.34572 0.0
C509 C 0.06435 0.45382 0.36172 0.0
C510 C 0.01146 0.49775 0.36938 0.0
C511 C 0.03944 0.44673 0.38115 0.0
C512 C 0.96781 0.52041 0.39553 0.0
C513 C 0.95038 0.56732 0.36253 0.0
N514 N 0.01434 0.46876 0.38446 0.0
N515 N 0.97563 0.54551 0.35867 0.0
H516 H 0.61239 0.98804 0.70748 0.0
H517 H 0.38999 0.01317 0.67761 0.0
H518 H 0.62422 0.11415 0.67809 0.0
H519 H 0.38019 0.88319 0.70084 0.0
H520 H 0.47578 0.05021 0.67624 0.0
H521 H 0.52702 0.94803 0.7036 0.0
C522 C 0.59708 0.0072 0.70005 0.0
C523 C 0.62551 0.0546 0.69323 0.0
C524 C 0.45475 0.01348 0.6815 0.0
C525 C 0.52768 0.00918 0.68891 0.0
C526 C 0.40579 0.99235 0.68229 0.0
C527 C 0.37784 0.94514 0.6895 0.0
C528 C 0.47581 0.98721 0.68803 0.0
C529 C 0.40026 0.9198 0.69532 0.0
C530 C 0.54829 0.98435 0.69785 0.0
C531 C 0.60368 0.0776 0.68364 0.0
N532 N 0.44783 0.94122 0.69457 0.0
N533 N 0.55605 0.05481 0.68194 0.0
H534 H 0.60239 0.47286 0.61447 0.0
H535 H 0.39846 0.50503 0.66677 0.0
H536 H 0.62943 0.59842 0.65025 0.0
H537 H 0.3739 0.39403 0.62112 0.0
H538 H 0.48283 0.53418 0.66507 0.0
H539 H 0.51849 0.43874 0.62063 0.0
C540 C 0.59072 0.49331 0.62367 0.0
C541 C 0.62304 0.53877 0.63175 0.0
C542 C 0.45891 0.50325 0.65555 0.0
C543 C 0.52664 0.49961 0.63892 0.0
C544 C 0.4107 0.48638 0.6566 0.0
C545 C 0.37906 0.4472 0.64393 0.0
C546 C 0.47556 0.48061 0.64184 0.0
C547 C 0.39699 0.42451 0.63105 0.0
C548 C 0.5427 0.47372 0.62718 0.0
C549 C 0.60572 0.56339 0.64363 0.0
N550 N 0.44405 0.4417 0.63027 0.0
N551 N 0.55861 0.54351 0.64683 0.0
H552 H 0.09966 0.60084 0.95407 0.0
H553 H 0.87554 0.37152 0.00427 0.0
H554 H 0.00869 0.61024 0.00169 0.0
H555 H 0.96722 0.36609 0.95582 0.0
H556 H 0.92728 0.45819 0.00628 0.0
H557 H 0.05458 0.51444 0.95697 0.0
C558 C 0.07016 0.58475 0.96519 0.0
C559 C 0.05773 0.61295 0.97754 0.0
C560 C 0.93625 0.43794 0.99536 0.0
C561 C 0.0057 0.51341 0.98094 0.0
C562 C 0.90684 0.38842 0.99426 0.0
C563 C 0.91683 0.3615 0.9797 0.0
C564 C 0.9759 0.46064 0.98183 0.0
C565 C 0.95789 0.38536 0.96715 0.0
C566 C 0.04444 0.53526 0.96687 0.0
C567 C 0.01938 0.58991 0.99179 0.0
N568 N 0.98566 0.43352 0.9684 0.0
N569 N 0.9945 0.54139 0.99301 0.0
H570 H 0.56921 0.96116 0.30987 0.0
H571 H 0.35676 0.99331 0.2683 0.0
H572 H 0.46608 0.8708 0.26235 0.0
H573 H 0.45925 0.08695 0.31529 0.0
H574 H 0.3939 0.94492 0.26804 0.0
H575 H 0.52795 0.00582 0.31368 0.0
C576 C 0.53802 0.95077 0.30024 0.0
C577 C 0.5212 0.91231 0.28572 0.0
C578 C 0.40815 0.97587 0.27853 0.0
C579 C 0.47377 0.96284 0.29008 0.0
C580 C 0.3868 0.00345 0.27874 0.0
C581 C 0.40507 0.04444 0.29172 0.0
C582 C 0.44827 0.98942 0.29132 0.0
C583 C 0.44405 0.05571 0.30496 0.0
C584 C 0.51441 0.97614 0.30246 0.0
C585 C 0.48049 0.90025 0.27371 0.0
N586 N 0.46459 0.02856 0.3043 0.0
N587 N 0.45829 0.92541 0.27615 0.0
loop_
_geom_bond_atom_site_label_1
_geom_bond_atom_site_label_2
_geom_bond_distance
_geom_bond_site_symmetry_2
_ccdc_geom_bond_type
C0 O1 1.160 . S
C0 O7 1.185 . S
O1 C0 1.160 . S
O2 Zn3 1.899 . S
O2 C10 1.284 . S
Zn3 O2 1.899 . S
Zn3 O4 2.032 . S
Zn3 O7 2.086 . S
Zn3 O12 1.977 . S
O4 Zn3 2.032 . S
O4 C8 1.278 . S
C5 O6 1.203 . S
C5 O12 1.267 . S
O6 C5 1.203 . S
O7 C0 1.185 . S
O7 Zn3 2.086 . S
C8 O4 1.278 . S
C8 O9 1.211 . S
O9 C8 1.211 . S
C10 O2 1.284 . S
C10 O11 1.273 . S
O11 C10 1.273 . S
O12 Zn3 1.977 . S
O12 C5 1.267 . S
C13 O14 1.160 . S
C13 O20 1.185 . S
O14 C13 1.160 . S
O15 Zn16 1.899 . S
O15 C23 1.284 . S
Zn16 O15 1.899 . S
Zn16 O17 2.032 . S
Zn16 O20 2.086 . S
Zn16 O25 1.977 . S
O17 Zn16 2.032 . S
O17 C21 1.278 . S
C18 O19 1.203 . S
C18 O25 1.267 . S
O19 C18 1.203 . S
O20 C13 1.185 . S
O20 Zn16 2.086 . S
C21 O17 1.278 . S
C21 O22 1.211 . S
O22 C21 1.211 . S
C23 O15 1.284 . S
C23 O24 1.273 . S
O24 C23 1.273 . S
O25 Zn16 1.977 . S
O25 C18 1.267 . S
C26 O27 1.160 . S
C26 O33 1.185 . S
O27 C26 1.160 . S
O28 Zn29 1.899 . S
O28 C36 1.284 . S
Zn29 O28 1.899 . S
Zn29 O30 2.032 . S
Zn29 O33 2.086 . S
Zn29 O38 1.977 . S
O30 Zn29 2.032 . S
O30 C34 1.278 . S
C31 O32 1.203 . S
C31 O38 1.267 . S
O32 C31 1.203 . S
O33 C26 1.185 . S
O33 Zn29 2.086 . S
C34 O30 1.278 . S
C34 O35 1.211 . S
O35 C34 1.211 . S
C36 O28 1.284 . S
C36 O37 1.273 . S
O37 C36 1.273 . S
O38 Zn29 1.977 . S
O38 C31 1.267 . S
C39 O40 1.160 . S
C39 O46 1.185 . S
O40 C39 1.160 . S
O41 Zn42 1.899 . S
O41 C49 1.284 . S
Zn42 O41 1.899 . S
Zn42 O43 2.032 . S
Zn42 O46 2.086 . S
Zn42 O51 1.977 . S
O43 Zn42 2.032 . S
O43 C47 1.278 . S
C44 O45 1.203 . S
C44 O51 1.267 . S
O45 C44 1.203 . S
O46 C39 1.185 . S
O46 Zn42 2.086 . S
C47 O43 1.278 . S
C47 O48 1.211 . S
O48 C47 1.211 . S
C49 O41 1.284 . S
C49 O50 1.273 . S
O50 C49 1.273 . S
O51 Zn42 1.977 . S
O51 C44 1.267 . S
C52 O53 1.160 . S
C52 O59 1.185 . S
O53 C52 1.160 . S
O54 Zn55 1.899 . S
O54 C62 1.284 . S
Zn55 O54 1.899 . S
Zn55 O56 2.032 . S
Zn55 O59 2.086 . S
Zn55 O64 1.977 . S
O56 Zn55 2.032 . S
O56 C60 1.278 . S
C57 O58 1.203 . S
C57 O64 1.267 . S
O58 C57 1.203 . S
O59 C52 1.185 . S
O59 Zn55 2.086 . S
C60 O56 1.278 . S
C60 O61 1.211 . S
O61 C60 1.211 . S
C62 O54 1.284 . S
C62 O63 1.273 . S
O63 C62 1.273 . S
O64 Zn55 1.977 . S
O64 C57 1.267 . S
C65 O66 1.160 . S
C65 O72 1.185 . S
O66 C65 1.160 . S
O67 Zn68 1.899 . S
O67 C75 1.284 . S
Zn68 O67 1.899 . S
Zn68 O69 2.032 . S
Zn68 O72 2.086 . S
Zn68 O77 1.977 . S
O69 Zn68 2.032 . S
O69 C73 1.278 . S
C70 O71 1.203 . S
C70 O77 1.267 . S
O71 C70 1.203 . S
O72 C65 1.185 . S
O72 Zn68 2.086 . S
C73 O69 1.278 . S
C73 O74 1.211 . S
O74 C73 1.211 . S
C75 O67 1.284 . S
C75 O76 1.273 . S
O76 C75 1.273 . S
O77 Zn68 1.977 . S
O77 C70 1.267 . S
C78 O79 1.160 . S
C78 O85 1.185 . S
O79 C78 1.160 . S
O80 Zn81 1.899 . S
O80 C88 1.284 . S
Zn81 O80 1.899 . S
Zn81 O82 2.032 . S
Zn81 O85 2.086 . S
Zn81 O90 1.977 . S
O82 Zn81 2.032 . S
O82 C86 1.278 . S
C83 O84 1.203 . S
C83 O90 1.267 . S
O84 C83 1.203 . S
O85 C78 1.185 . S
O85 Zn81 2.086 . S
C86 O82 1.278 . S
C86 O87 1.211 . S
O87 C86 1.211 . S
C88 O80 1.284 . S
C88 O89 1.273 . S
O89 C88 1.273 . S
O90 Zn81 1.977 . S
O90 C83 1.267 . S
C91 O92 1.160 . S
C91 O98 1.185 . S
O92 C91 1.160 . S
O93 Zn94 1.899 . S
O93 C101 1.284 . S
Zn94 O93 1.899 . S
Zn94 O95 2.032 . S
Zn94 O98 2.086 . S
Zn94 O103 1.977 . S
O95 Zn94 2.032 . S
O95 C99 1.278 . S
C96 O97 1.203 . S
C96 O103 1.267 . S
O97 C96 1.203 . S
O98 C91 1.185 . S
O98 Zn94 2.086 . S
C99 O95 1.278 . S
C99 O100 1.211 . S
O100 C99 1.211 . S
C101 O93 1.284 . S
C101 O102 1.273 . S
O102 C101 1.273 . S
O103 Zn94 1.977 . S
O103 C96 1.267 . S
C104 O105 1.160 . S
C104 O111 1.185 . S
O105 C104 1.160 . S
O106 Zn107 1.899 . S
O106 C114 1.284 . S
Zn107 O106 1.899 . S
Zn107 O108 2.032 . S
Zn107 O111 2.086 . S
Zn107 O116 1.977 . S
O108 Zn107 2.032 . S
O108 C112 1.278 . S
C109 O110 1.203 . S
C109 O116 1.267 . S
O110 C109 1.203 . S
O111 C104 1.185 . S
O111 Zn107 2.086 . S
C112 O108 1.278 . S
C112 O113 1.211 . S
O113 C112 1.211 . S
C114 O106 1.284 . S
C114 O115 1.273 . S
O115 C114 1.273 . S
O116 Zn107 1.977 . S
O116 C109 1.267 . S
C117 O118 1.160 . S
C117 O124 1.185 . S
O118 C117 1.160 . S
O119 Zn120 1.899 . S
O119 C127 1.284 . S
Zn120 O119 1.899 . S
Zn120 O121 2.032 . S
Zn120 O124 2.086 . S
Zn120 O129 1.977 . S
O121 Zn120 2.032 . S
O121 C125 1.278 . S
C122 O123 1.203 . S
C122 O129 1.267 . S
O123 C122 1.203 . S
O124 C117 1.185 . S
O124 Zn120 2.086 . S
C125 O121 1.278 . S
C125 O126 1.211 . S
O126 C125 1.211 . S
C127 O119 1.284 . S
C127 O128 1.273 . S
O128 C127 1.273 . S
O129 Zn120 1.977 . S
O129 C122 1.267 . S
C130 O131 1.160 . S
C130 O137 1.185 . S
O131 C130 1.160 . S
O132 Zn133 1.899 . S
O132 C140 1.284 . S
Zn133 O132 1.899 . S
Zn133 O134 2.032 . S
Zn133 O137 2.086 . S
Zn133 O142 1.977 . S
O134 Zn133 2.032 . S
O134 C138 1.278 . S
C135 O136 1.203 . S
C135 O142 1.267 . S
O136 C135 1.203 . S
O137 C130 1.185 . S
O137 Zn133 2.086 . S
C138 O134 1.278 . S
C138 O139 1.211 . S
O139 C138 1.211 . S
C140 O132 1.284 . S
C140 O141 1.273 . S
O141 C140 1.273 . S
O142 Zn133 1.977 . S
O142 C135 1.267 . S
C143 O144 1.160 . S
C143 O150 1.185 . S
O144 C143 1.160 . S
O145 Zn146 1.899 . S
O145 C153 1.284 . S
Zn146 O145 1.899 . S
Zn146 O147 2.032 . S
Zn146 O150 2.086 . S
Zn146 O155 1.977 . S
O147 Zn146 2.032 . S
O147 C151 1.278 . S
C148 O149 1.203 . S
C148 O155 1.267 . S
O149 C148 1.203 . S
O150 C143 1.185 . S
O150 Zn146 2.086 . S
C151 O147 1.278 . S
C151 O152 1.211 . S
O152 C151 1.211 . S
C153 O145 1.284 . S
C153 O154 1.273 . S
O154 C153 1.273 . S
O155 Zn146 1.977 . S
O155 C148 1.267 . S
H156 C162 0.931 . S
H157 C166 0.931 . S
H158 C171 0.929 . S
H159 C169 0.929 . S
H160 C164 0.929 . S
H161 C170 0.929 . S
C162 H156 0.931 . S
C162 C163 1.366 1_554 S
C162 C170 1.378 . S
C163 C162 1.366 1_556 S
C163 C171 1.433 . S
C164 H160 0.929 . S
C164 C166 1.378 . S
C164 C168 1.350 1_556 S
C165 C168 1.463 1_566 S
C165 C170 1.350 1_556 S
C165 N173 1.427 . S
C166 H157 0.931 . S
C166 C164 1.378 . S
C166 C167 1.366 1_556 S
C167 C166 1.366 1_554 S
C167 C169 1.433 . S
C168 C164 1.350 1_554 S
C168 C165 1.463 1_544 S
C168 N172 1.427 . S
C169 H159 0.929 . S
C169 C167 1.433 . S
C169 N172 1.384 . S
C170 H161 0.929 . S
C170 C162 1.378 . S
C170 C165 1.350 1_554 S
C171 H158 0.929 . S
C171 C163 1.433 . S
C171 N173 1.384 . S
N172 C168 1.427 . S
N172 C169 1.384 . S
N173 C165 1.427 . S
N173 C171 1.384 . S
H174 C180 0.930 . S
H175 C184 0.930 . S
H176 C189 0.929 . S
H177 C187 0.929 . S
H178 C182 0.929 . S
H179 C188 0.929 . S
C180 H174 0.930 . S
C180 C181 1.367 . S
C180 C188 1.378 . S
C181 C180 1.367 . S
C181 C189 1.433 . S
C182 H178 0.929 . S
C182 C184 1.378 . S
C182 C186 1.350 . S
C183 C186 1.463 . S
C183 C188 1.350 . S
C183 N191 1.427 . S
C184 H175 0.930 . S
C184 C182 1.378 . S
C184 C185 1.367 . S
C185 C184 1.367 . S
C185 C187 1.433 . S
C186 C182 1.350 . S
C186 C183 1.463 . S
C186 N190 1.427 . S
C187 H177 0.929 . S
C187 C185 1.433 . S
C187 N190 1.384 . S
C188 H179 0.929 . S
C188 C180 1.378 . S
C188 C183 1.350 . S
C189 H176 0.929 . S
C189 C181 1.433 . S
C189 N191 1.384 . S
N190 C186 1.427 . S
N190 C187 1.384 . S
N191 C183 1.427 . S
N191 C189 1.384 . S
H192 C198 0.930 . S
H193 C202 0.930 . S
H194 C207 0.929 . S
H195 C205 0.929 . S
H196 C200 0.929 . S
H197 C206 0.929 . S
C198 H192 0.930 . S
C198 C199 1.367 . S
C198 C206 1.378 . S
C199 C198 1.367 . S
C199 C207 1.433 . S
C200 H196 0.929 . S
C200 C202 1.378 . S
C200 C204 1.350 . S
C201 C204 1.463 1_655 S
C201 C206 1.350 . S
C201 N209 1.427 . S
C202 H193 0.930 . S
C202 C200 1.378 . S
C202 C203 1.367 . S
C203 C202 1.367 . S
C203 C205 1.433 . S
C204 C200 1.350 . S
C204 C201 1.463 1_455 S
C204 N208 1.427 . S
C205 H195 0.929 . S
C205 C203 1.433 . S
C205 N208 1.384 . S
C206 H197 0.929 . S
C206 C198 1.378 . S
C206 C201 1.350 . S
C207 H194 0.929 . S
C207 C199 1.433 . S
C207 N209 1.384 . S
N208 C204 1.427 . S
N208 C205 1.384 . S
N209 C201 1.427 . S
N209 C207 1.384 . S
H210 C216 0.930 . S
H211 C220 0.930 . S
H212 C225 0.929 . S
H213 C223 0.929 . S
H214 C218 0.929 . S
H215 C224 0.929 . S
C216 H210 0.930 . S
C216 C217 1.367 . S
C216 C224 1.378 . S
C217 C216 1.367 . S
C217 C225 1.433 1_554 S
C218 H214 0.929 . S
C218 C220 1.378 . S
C218 C222 1.350 . S
C219 C222 1.463 1_564 S
C219 C224 1.350 . S
C219 N227 1.427 1_554 S
C220 H211 0.930 . S
C220 C218 1.378 . S
C220 C221 1.367 . S
C221 C220 1.367 . S
C221 C223 1.433 1_556 S
C222 C218 1.350 . S
C222 C219 1.463 1_546 S
C222 N226 1.427 1_556 S
C223 H213 0.929 . S
C223 C221 1.433 1_554 S
C223 N226 1.384 . S
C224 H215 0.929 . S
C224 C216 1.378 . S
C224 C219 1.350 . S
C225 H212 0.929 . S
C225 C217 1.433 1_556 S
C225 N227 1.384 . S
N226 C222 1.427 1_554 S
N226 C223 1.384 . S
N227 C219 1.427 1_556 S
N227 C225 1.384 . S
H228 C234 0.930 . S
H229 C238 0.930 . S
H230 C243 0.929 . S
H231 C241 0.929 . S
H232 C236 0.929 . S
H233 C242 0.929 . S
C234 H228 0.930 . S
C234 C235 1.367 . S
C234 C242 1.378 . S
C235 C234 1.367 . S
C235 C243 1.433 . S
C236 H232 0.929 . S
C236 C238 1.378 . S
C236 C240 1.350 . S
C237 C240 1.463 . S
C237 C242 1.350 . S
C237 N245 1.427 . S
C238 H229 0.930 . S
C238 C236 1.378 . S
C238 C239 1.367 . S
C239 C238 1.367 . S
C239 C241 1.433 . S
C240 C236 1.350 . S
C240 C237 1.463 . S
C240 N244 1.427 . S
C241 H231 0.929 . S
C241 C239 1.433 . S
C241 N244 1.384 . S
C242 H233 0.929 . S
C242 C234 1.378 . S
C242 C237 1.350 . S
C243 H230 0.929 . S
C243 C235 1.433 . S
C243 N245 1.384 . S
N244 C240 1.427 . S
N244 C241 1.384 . S
N245 C237 1.427 . S
N245 C243 1.384 . S
H246 C252 0.930 . S
H247 C256 0.930 . S
H248 C261 0.929 . S
H249 C259 0.929 . S
H250 C254 0.929 . S
H251 C260 0.929 . S
C252 H246 0.930 . S
C252 C253 1.367 . S
C252 C260 1.378 . S
C253 C252 1.367 . S
C253 C261 1.433 . S
C254 H250 0.929 . S
C254 C256 1.378 . S
C254 C258 1.350 . S
C255 C258 1.463 1_655 S
C255 C260 1.350 . S
C255 N263 1.427 . S
C256 H247 0.930 . S
C256 C254 1.378 . S
C256 C257 1.367 . S
C257 C256 1.367 . S
C257 C259 1.433 . S
C258 C254 1.350 . S
C258 C255 1.463 1_455 S
C258 N262 1.427 . S
C259 H249 0.929 . S
C259 C257 1.433 . S
C259 N262 1.384 . S
C260 H251 0.929 . S
C260 C252 1.378 . S
C260 C255 1.350 . S
C261 H248 0.929 . S
C261 C253 1.433 . S
C261 N263 1.384 . S
N262 C258 1.427 . S
N262 C259 1.384 . S
N263 C255 1.427 . S
N263 C261 1.384 . S
H264 C270 0.930 . S
H265 C274 0.930 . S
H266 C279 0.929 . S
H267 C277 0.929 . S
H268 C272 0.929 . S
H269 C278 0.929 . S
C270 H264 0.930 . S
C270 C271 1.367 . S
C270 C278 1.378 . S
C271 C270 1.367 . S
C271 C279 1.433 . S
C272 H268 0.929 . S
C272 C274 1.378 . S
C272 C276 1.350 . S
C273 C276 1.463 1_556 S
C273 C278 1.350 . S
C273 N281 1.427 1_556 S
C274 H265 0.930 . S
C274 C272 1.378 . S
C274 C275 1.367 . S
C275 C274 1.367 . S
C275 C277 1.433 . S
C276 C272 1.350 . S
C276 C273 1.463 1_554 S
C276 N280 1.427 1_554 S
C277 H267 0.929 . S
C277 C275 1.433 . S
C277 N280 1.384 1_554 S
C278 H269 0.929 . S
C278 C270 1.378 . S
C278 C273 1.350 . S
C279 H266 0.929 . S
C279 C271 1.433 . S
C279 N281 1.384 1_556 S
N280 C276 1.427 1_556 S
N280 C277 1.384 1_556 S
N281 C273 1.427 1_554 S
N281 C279 1.384 1_554 S
H282 C288 0.930 . S
H283 C292 0.930 . S
H284 C297 0.929 . S
H285 C295 0.929 . S
H286 C290 0.929 . S
H287 C296 0.929 . S
C288 H282 0.930 . S
C288 C289 1.367 . S
C288 C296 1.378 . S
C289 C288 1.367 . S
C289 C297 1.433 . S
C290 H286 0.929 . S
C290 C292 1.378 . S
C290 C294 1.350 . S
C291 C294 1.463 . S
C291 C296 1.350 . S
C291 N299 1.427 . S
C292 H283 0.930 . S
C292 C290 1.378 . S
C292 C293 1.367 . S
C293 C292 1.367 . S
C293 C295 1.433 . S
C294 C290 1.350 . S
C294 C291 1.463 . S
C294 N298 1.427 . S
C295 H285 0.929 . S
C295 C293 1.433 . S
C295 N298 1.384 . S
C296 H287 0.929 . S
C296 C288 1.378 . S
C296 C291 1.350 . S
C297 H284 0.929 . S
C297 C289 1.433 . S
C297 N299 1.384 . S
N298 C294 1.427 . S
N298 C295 1.384 . S
N299 C291 1.427 . S
N299 C297 1.384 . S
H300 C306 0.930 . S
H301 C310 0.930 . S
H302 C315 0.929 . S
H303 C313 0.929 . S
H304 C308 0.929 . S
H305 C314 0.929 . S
C306 H300 0.930 . S
C306 C307 1.367 . S
C306 C314 1.378 . S
C307 C306 1.367 . S
C307 C315 1.433 . S
C308 H304 0.929 . S
C308 C310 1.378 . S
C308 C312 1.350 . S
C309 C312 1.463 . S
C309 C314 1.350 . S
C309 N317 1.427 . S
C310 H301 0.930 . S
C310 C308 1.378 . S
C310 C311 1.367 . S
C311 C310 1.367 . S
C311 C313 1.433 . S
C312 C308 1.350 . S
C312 C309 1.463 . S
C312 N316 1.427 . S
C313 H303 0.929 . S
C313 C311 1.433 . S
C313 N316 1.384 . S
C314 H305 0.929 . S
C314 C306 1.378 . S
C314 C309 1.350 . S
C315 H302 0.929 . S
C315 C307 1.433 . S
C315 N317 1.384 . S
N316 C312 1.427 . S
N316 C313 1.384 . S
N317 C309 1.427 . S
N317 C315 1.384 . S
H318 C324 0.930 . S
H319 C328 0.930 . S
H320 C333 0.929 . S
H321 C331 0.929 . S
H322 C326 0.929 . S
H323 C332 0.929 . S
C324 H318 0.930 . S
C324 C325 1.367 . S
C324 C332 1.378 . S
C325 C324 1.367 . S
C325 C333 1.433 . S
C326 H322 0.929 . S
C326 C328 1.378 . S
C326 C330 1.350 . S
C327 C330 1.463 1_556 S
C327 C332 1.350 . S
C327 N335 1.427 . S
C328 H319 0.930 . S
C328 C326 1.378 . S
C328 C329 1.367 . S
C329 C328 1.367 . S
C329 C331 1.433 . S
C330 C326 1.350 . S
C330 C327 1.463 1_554 S
C330 N334 1.427 . S
C331 H321 0.929 . S
C331 C329 1.433 . S
C331 N334 1.384 . S
C332 H323 0.929 . S
C332 C324 1.378 . S
C332 C327 1.350 . S
C333 H320 0.929 . S
C333 C325 1.433 . S
C333 N335 1.384 . S
N334 C330 1.427 . S
N334 C331 1.384 . S
N335 C327 1.427 . S
N335 C333 1.384 . S
H336 C342 0.930 . S
H337 C346 0.930 . S
H338 C351 0.929 . S
H339 C349 0.929 . S
H340 C344 0.929 . S
H341 C350 0.929 . S
C342 H336 0.930 . S
C342 C343 1.367 . S
C342 C350 1.378 . S
C343 C342 1.367 . S
C343 C351 1.433 . S
C344 H340 0.929 . S
C344 C346 1.378 . S
C344 C348 1.350 . S
C345 C348 1.463 . S
C345 C350 1.350 . S
C345 N353 1.427 . S
C346 H337 0.930 . S
C346 C344 1.378 . S
C346 C347 1.367 . S
C347 C346 1.367 . S
C347 C349 1.433 . S
C348 C344 1.350 . S
C348 C345 1.463 . S
C348 N352 1.427 . S
C349 H339 0.929 . S
C349 C347 1.433 . S
C349 N352 1.384 . S
C350 H341 0.929 . S
C350 C342 1.378 . S
C350 C345 1.350 . S
C351 H338 0.929 . S
C351 C343 1.433 . S
C351 N353 1.384 . S
N352 C348 1.427 . S
N352 C349 1.384 . S
N353 C345 1.427 . S
N353 C351 1.384 . S
H354 C360 0.930 . S
H355 C364 0.930 . S
H356 C369 0.929 . S
H357 C367 0.929 . S
H358 C362 0.929 . S
H359 C368 0.929 . S
C360 H354 0.930 . S
C360 C361 1.367 . S
C360 C368 1.378 . S
C361 C360 1.367 . S
C361 C369 1.433 . S
C362 H358 0.929 . S
C362 C364 1.378 . S
C362 C366 1.350 . S
C363 C366 1.463 . S
C363 C368 1.350 . S
C363 N371 1.427 . S
C364 H355 0.930 . S
C364 C362 1.378 . S
C364 C365 1.367 . S
C365 C364 1.367 . S
C365 C367 1.433 . S
C366 C362 1.350 . S
C366 C363 1.463 . S
C366 N370 1.427 . S
C367 H357 0.929 . S
C367 C365 1.433 . S
C367 N370 1.384 . S
C368 H359 0.929 . S
C368 C360 1.378 . S
C368 C363 1.350 . S
C369 H356 0.929 . S
C369 C361 1.433 . S
C369 N371 1.384 . S
N370 C366 1.427 . S
N370 C367 1.384 . S
N371 C363 1.427 . S
N371 C369 1.384 . S
H372 C378 0.930 . S
H373 C382 0.930 . S
H374 C387 0.929 . S
H375 C385 0.929 . S
H376 C380 0.929 . S
H377 C386 0.929 . S
C378 H372 0.930 . S
C378 C379 1.367 . S
C378 C386 1.378 . S
C379 C378 1.367 . S
C379 C387 1.433 . S
C380 H376 0.929 . S
C380 C382 1.378 . S
C380 C384 1.350 . S
C381 C384 1.463 . S
C381 C386 1.350 . S
C381 N389 1.427 . S
C382 H373 0.930 . S
C382 C380 1.378 . S
C382 C383 1.367 . S
C383 C382 1.367 . S
C383 C385 1.433 . S
C384 C380 1.350 . S
C384 C381 1.463 . S
C384 N388 1.427 . S
C385 H375 0.929 . S
C385 C383 1.433 . S
C385 N388 1.384 . S
C386 H377 0.929 . S
C386 C378 1.378 . S
C386 C381 1.350 . S
C387 H374 0.929 . S
C387 C379 1.433 . S
C387 N389 1.384 . S
N388 C384 1.427 . S
N388 C385 1.384 . S
N389 C381 1.427 . S
N389 C387 1.384 . S
H390 C396 0.930 . S
H391 C400 0.930 . S
H392 C405 0.929 . S
H393 C403 0.929 . S
H394 C398 0.929 . S
H395 C404 0.929 . S
C396 H390 0.930 . S
C396 C397 1.367 . S
C396 C404 1.378 . S
C397 C396 1.367 . S
C397 C405 1.433 . S
C398 H394 0.929 . S
C398 C400 1.378 . S
C398 C402 1.350 . S
C399 C402 1.463 . S
C399 C404 1.350 . S
C399 N407 1.427 . S
C400 H391 0.930 . S
C400 C398 1.378 . S
C400 C401 1.367 . S
C401 C400 1.367 . S
C401 C403 1.433 . S
C402 C398 1.350 . S
C402 C399 1.463 . S
C402 N406 1.427 . S
C403 H393 0.929 . S
C403 C401 1.433 . S
C403 N406 1.384 . S
C404 H395 0.929 . S
C404 C396 1.378 . S
C404 C399 1.350 . S
C405 H392 0.929 . S
C405 C397 1.433 . S
C405 N407 1.384 . S
N406 C402 1.427 . S
N406 C403 1.384 . S
N407 C399 1.427 . S
N407 C405 1.384 . S
H408 C414 0.930 . S
H409 C418 0.930 . S
H410 C423 0.929 . S
H411 C421 0.929 . S
H412 C416 0.929 . S
H413 C422 0.929 . S
C414 H408 0.930 . S
C414 C415 1.367 . S
C414 C422 1.378 . S
C415 C414 1.367 . S
C415 C423 1.433 . S
C416 H412 0.929 . S
C416 C418 1.378 . S
C416 C420 1.350 . S
C417 C420 1.463 . S
C417 C422 1.350 . S
C417 N425 1.427 . S
C418 H409 0.930 . S
C418 C416 1.378 . S
C418 C419 1.367 . S
C419 C418 1.367 . S
C419 C421 1.433 . S
C420 C416 1.350 . S
C420 C417 1.463 . S
C420 N424 1.427 . S
C421 H411 0.929 . S
C421 C419 1.433 . S
C421 N424 1.384 . S
C422 H413 0.929 . S
C422 C414 1.378 . S
C422 C417 1.350 . S
C423 H410 0.929 . S
C423 C415 1.433 . S
C423 N425 1.384 . S
N424 C420 1.427 . S
N424 C421 1.384 . S
N425 C417 1.427 . S
N425 C423 1.384 . S
H426 C432 0.930 . S
H427 C436 0.930 . S
H428 C441 0.929 . S
H429 C439 0.929 . S
H430 C434 0.929 . S
H431 C440 0.929 . S
C432 H426 0.930 . S
C432 C433 1.367 . S
C432 C440 1.378 . S
C433 C432 1.367 . S
C433 C441 1.433 . S
C434 H430 0.929 . S
C434 C436 1.378 . S
C434 C438 1.350 . S
C435 C438 1.463 . S
C435 C440 1.350 . S
C435 N443 1.427 . S
C436 H427 0.930 . S
C436 C434 1.378 . S
C436 C437 1.367 . S
C437 C436 1.367 . S
C437 C439 1.433 . S
C438 C434 1.350 . S
C438 C435 1.463 . S
C438 N442 1.427 . S
C439 H429 0.929 . S
C439 C437 1.433 . S
C439 N442 1.384 . S
C440 H431 0.929 . S
C440 C432 1.378 . S
C440 C435 1.350 . S
C441 H428 0.929 . S
C441 C433 1.433 . S
C441 N443 1.384 . S
N442 C438 1.427 . S
N442 C439 1.384 . S
N443 C435 1.427 . S
N443 C441 1.384 . S
H444 C450 0.930 . S
H445 C454 0.930 . S
H446 C459 0.929 . S
H447 C457 0.929 . S
H448 C452 0.929 . S
H449 C458 0.929 . S
C450 H444 0.930 . S
C450 C451 1.367 . S
C450 C458 1.378 . S
C451 C450 1.367 . S
C451 C459 1.433 . S
C452 H448 0.929 . S
C452 C454 1.378 . S
C452 C456 1.350 . S
C453 C456 1.463 . S
C453 C458 1.350 . S
C453 N461 1.427 . S
C454 H445 0.930 . S
C454 C452 1.378 . S
C454 C455 1.367 . S
C455 C454 1.367 . S
C455 C457 1.433 . S
C456 C452 1.350 . S
C456 C453 1.463 . S
C456 N460 1.427 . S
C457 H447 0.929 . S
C457 C455 1.433 . S
C457 N460 1.384 . S
C458 H449 0.929 . S
C458 C450 1.378 . S
C458 C453 1.350 . S
C459 H446 0.929 . S
C459 C451 1.433 . S
C459 N461 1.384 . S
N460 C456 1.427 . S
N460 C457 1.384 . S
N461 C453 1.427 . S
N461 C459 1.384 . S
H462 C468 0.930 . S
H463 C472 0.930 . S
H464 C477 0.929 . S
H465 C475 0.929 . S
H466 C470 0.929 . S
H467 C476 0.929 . S
C468 H462 0.930 . S
C468 C469 1.367 . S
C468 C476 1.378 . S
C469 C468 1.367 . S
C469 C477 1.433 . S
C470 H466 0.929 . S
C470 C472 1.378 . S
C470 C474 1.350 . S
C471 C474 1.463 . S
C471 C476 1.350 . S
C471 N479 1.427 . S
C472 H463 0.930 . S
C472 C470 1.378 . S
C472 C473 1.367 . S
C473 C472 1.367 . S
C473 C475 1.433 . S
C474 C470 1.350 . S
C474 C471 1.463 . S
C474 N478 1.427 . S
C475 H465 0.929 . S
C475 C473 1.433 . S
C475 N478 1.384 . S
C476 H467 0.929 . S
C476 C468 1.378 . S
C476 C471 1.350 . S
C477 H464 0.929 . S
C477 C469 1.433 . S
C477 N479 1.384 . S
N478 C474 1.427 . S
N478 C475 1.384 . S
N479 C471 1.427 . S
N479 C477 1.384 . S
H480 C486 0.930 . S
H481 C490 0.930 . S
H482 C495 0.929 . S
H483 C493 0.929 . S
H484 C488 0.929 . S
H485 C494 0.929 . S
C486 H480 0.930 . S
C486 C487 1.367 . S
C486 C494 1.378 . S
C487 C486 1.367 . S
C487 C495 1.433 . S
C488 H484 0.929 . S
C488 C490 1.378 . S
C488 C492 1.350 . S
C489 C492 1.463 . S
C489 C494 1.350 . S
C489 N497 1.427 . S
C490 H481 0.930 . S
C490 C488 1.378 . S
C490 C491 1.367 . S
C491 C490 1.367 . S
C491 C493 1.433 . S
C492 C488 1.350 . S
C492 C489 1.463 . S
C492 N496 1.427 . S
C493 H483 0.929 . S
C493 C491 1.433 . S
C493 N496 1.384 . S
C494 H485 0.929 . S
C494 C486 1.378 . S
C494 C489 1.350 . S
C495 H482 0.929 . S
C495 C487 1.433 . S
C495 N497 1.384 . S
N496 C492 1.427 . S
N496 C493 1.384 . S
N497 C489 1.427 . S
N497 C495 1.384 . S
H498 C504 0.930 . S
H499 C508 0.930 . S
H500 C513 0.929 1_455 S
H501 C511 0.929 1_655 S
H502 C506 0.929 . S
H503 C512 0.929 . S
C504 H498 0.930 . S
C504 C505 1.367 . S
C504 C512 1.378 . S
C505 C504 1.367 . S
C505 C513 1.433 . S
C506 H502 0.929 . S
C506 C508 1.378 . S
C506 C510 1.350 . S
C507 C510 1.463 1_655 S
C507 C512 1.350 . S
C507 N515 1.427 1_655 S
C508 H499 0.930 . S
C508 C506 1.378 . S
C508 C509 1.367 . S
C509 C508 1.367 . S
C509 C511 1.433 . S
C510 C506 1.350 . S
C510 C507 1.463 1_455 S
C510 N514 1.427 1_455 S
C511 H501 0.929 1_455 S
C511 C509 1.433 . S
C511 N514 1.384 1_455 S
C512 H503 0.929 . S
C512 C504 1.378 . S
C512 C507 1.350 . S
C513 H500 0.929 1_655 S
C513 C505 1.433 . S
C513 N515 1.384 1_655 S
N514 C510 1.427 1_655 S
N514 C511 1.384 1_655 S
N515 C507 1.427 1_455 S
N515 C513 1.384 1_455 S
H516 C522 0.930 1_565 S
H517 C526 0.930 1_545 S
H518 C531 0.929 . S
H519 C529 0.929 . S
H520 C524 0.929 . S
H521 C530 0.929 . S
C522 H516 0.930 1_545 S
C522 C523 1.367 . S
C522 C530 1.378 1_545 S
C523 C522 1.367 . S
C523 C531 1.433 . S
C524 H520 0.929 . S
C524 C526 1.378 1_545 S
C524 C528 1.350 1_545 S
C525 C528 1.463 1_545 S
C525 C530 1.350 1_545 S
C525 N533 1.427 . S
C526 H517 0.930 1_565 S
C526 C524 1.378 1_565 S
C526 C527 1.367 . S
C527 C526 1.367 . S
C527 C529 1.433 . S
C528 C524 1.350 1_565 S
C528 C525 1.463 1_565 S
C528 N532 1.427 . S
C529 H519 0.929 . S
C529 C527 1.433 . S
C529 N532 1.384 . S
C530 H521 0.929 . S
C530 C522 1.378 1_565 S
C530 C525 1.350 1_565 S
C531 H518 0.929 . S
C531 C523 1.433 . S
C531 N533 1.384 . S
N532 C528 1.427 . S
N532 C529 1.384 . S
N533 C525 1.427 . S
N533 C531 1.384 . S
H534 C540 0.930 . S
H535 C544 0.930 . S
H536 C549 0.929 . S
H537 C547 0.929 . S
H538 C542 0.929 . S
H539 C548 0.929 . S
C540 H534 0.930 . S
C540 C541 1.367 . S
C540 C548 1.378 . S
C541 C540 1.367 . S
C541 C549 1.433 . S
C542 H538 0.929 . S
C542 C544 1.378 . S
C542 C546 1.350 . S
C543 C546 1.463 . S
C543 C548 1.350 . S
C543 N551 1.427 . S
C544 H535 0.930 . S
C544 C542 1.378 . S
C544 C545 1.367 . S
C545 C544 1.367 . S
C545 C547 1.433 . S
C546 C542 1.350 . S
C546 C543 1.463 . S
C546 N550 1.427 . S
C547 H537 0.929 . S
C547 C545 1.433 . S
C547 N550 1.384 . S
C548 H539 0.929 . S
C548 C540 1.378 . S
C548 C543 1.350 . S
C549 H536 0.929 . S
C549 C541 1.433 . S
C549 N551 1.384 . S
N550 C546 1.427 . S
N550 C547 1.384 . S
N551 C543 1.427 . S
N551 C549 1.384 . S
H552 C558 0.930 . S
H553 C562 0.930 . S
H554 C567 0.929 . S
H555 C565 0.929 . S
H556 C560 0.929 . S
H557 C566 0.929 . S
C558 H552 0.930 . S
C558 C559 1.367 . S
C558 C566 1.378 . S
C559 C558 1.367 . S
C559 C567 1.433 . S
C560 H556 0.929 . S
C560 C562 1.378 . S
C560 C564 1.350 . S
C561 C564 1.463 1_455 S
C561 C566 1.350 . S
C561 N569 1.427 1_455 S
C562 H553 0.930 . S
C562 C560 1.378 . S
C562 C563 1.367 . S
C563 C562 1.367 . S
C563 C565 1.433 . S
C564 C560 1.350 . S
C564 C561 1.463 1_655 S
C564 N568 1.427 1_655 S
C565 H555 0.929 . S
C565 C563 1.433 . S
C565 N568 1.384 1_655 S
C566 H557 0.929 . S
C566 C558 1.378 . S
C566 C561 1.350 . S
C567 H554 0.929 . S
C567 C559 1.433 . S
C567 N569 1.384 1_455 S
N568 C564 1.427 1_455 S
N568 C565 1.384 1_455 S
N569 C561 1.427 1_655 S
N569 C567 1.384 1_655 S
H570 C576 0.930 . S
H571 C580 0.930 . S
H572 C585 0.929 . S
H573 C583 0.929 . S
H574 C578 0.929 . S
H575 C584 0.929 . S
C576 H570 0.930 . S
C576 C577 1.367 . S
C576 C584 1.378 . S
C577 C576 1.367 . S
C577 C585 1.433 . S
C578 H574 0.929 . S
C578 C580 1.378 . S
C578 C582 1.350 . S
C579 C582 1.463 1_565 S
C579 C584 1.350 . S
C579 N587 1.427 . S
C580 H571 0.930 . S
C580 C578 1.378 . S
C580 C581 1.367 . S
C581 C580 1.367 . S
C581 C583 1.433 . S
C582 C578 1.350 . S
C582 C579 1.463 1_545 S
C582 N586 1.427 . S
C583 H573 0.929 . S
C583 C581 1.433 . S
C583 N586 1.384 . S
C584 H575 0.929 . S
C584 C576 1.378 . S
C584 C579 1.350 . S
C585 H572 0.929 . S
C585 C577 1.433 . S
C585 N587 1.384 . S
N586 C582 1.427 . S
N586 C583 1.384 . S
N587 C579 1.427 . S
N587 C585 1.384 . S
C163 C96 1.132 . S
C167 C5 1.147 . S
C181 C18 1.272 . S
C185 C104 1.301 . S
C199 C26 1.291 . S
C203 C122 1.266 . S
C217 C44 1.140 . S
C221 C135 1.129 . S
C235 C143 1.288 . S
C239 C57 1.288 . S
C253 C83 1.288 . S
C257 C65 1.286 . S
C271 C140 1.112 . S
C275 C10 1.109 . S
C289 C23 1.176 . S
C293 C151 1.177 . S
C307 C34 1.169 . S
C311 C88 1.176 . S
C325 C101 1.114 . S
C329 C49 1.110 . S
C343 C112 1.178 . S
C347 C62 1.178 . S
C361 C127 1.184 . S
C365 C73 1.174 . S
C379 C8 1.568 . S
C383 C114 1.575 . S
C397 C21 1.558 . S
C401 C125 1.562 . S
C415 C138 1.574 . S
C419 C36 1.576 . S
C433 C47 1.576 . S
C437 C153 1.578 . S
C451 C86 1.563 . S
C455 C60 1.559 . S
C469 C99 1.567 . S
C473 C75 1.573 . S
C487 C39 1.263 . S
C491 C0 1.261 . S
C505 C52 1.243 . S
C509 C13 1.244 . S
C523 C31 1.377 . S
C527 C70 1.377 . S
C541 C78 1.250 . S
C545 C117 1.249 . S
C559 C91 1.254 . S
C563 C130 1.253 . S
C577 C148 1.376 . S
C581 C109 1.362 . S
