# Generated by pormake.
# Topology fcr, (5)-cn, num edge types: 1
# Building blocks:
#     Node 0, Type 0, BuildingBlock: XOMCOT_clean_sbu_0, # of connection points: 5
#     Node 1, Type 0, BuildingBlock: XOMCOT_clean_sbu_0, # of connection points: 5
#     Node 2, Type 0, BuildingBlock: XOMCOT_clean_sbu_0, # of connection points: 5
#     Node 3, Type 0, BuildingBlock: XOMCOT_clean_sbu_0, # of connection points: 5
#     Node 4, Type 0, BuildingBlock: XOMCOT_clean_sbu_0, # of connection points: 5
#     Node 5, Type 0, BuildingBlock: XOMCOT_clean_sbu_0, # of connection points: 5
#     Node 6, Type 0, BuildingBlock: XOMCOT_clean_sbu_0, # of connection points: 5
#     Node 7, Type 0, BuildingBlock: XOMCOT_clean_sbu_0, # of connection points: 5
#     Node 8, Type 0, BuildingBlock: XOMCOT_clean_sbu_0, # of connection points: 5
#     Node 9, Type 0, BuildingBlock: XOMCOT_clean_sbu_0, # of connection points: 5
#     Node 10, Type 0, BuildingBlock: XOMCOT_clean_sbu_0, # of connection points: 5
#     Node 11, Type 0, BuildingBlock: XOMCOT_clean_sbu_0, # of connection points: 5
#     Node 12, Type 0, BuildingBlock: XOMCOT_clean_sbu_0, # of connection points: 5
#     Node 13, Type 0, BuildingBlock: XOMCOT_clean_sbu_0, # of connection points: 5
#     Node 14, Type 0, BuildingBlock: XOMCOT_clean_sbu_0, # of connection points: 5
#     Node 15, Type 0, BuildingBlock: XOMCOT_clean_sbu_0, # of connection points: 5
#     Node 16, Type 0, BuildingBlock: XOMCOT_clean_sbu_0, # of connection points: 5
#     Node 17, Type 0, BuildingBlock: XOMCOT_clean_sbu_0, # of connection points: 5
#     Node 18, Type 0, BuildingBlock: XOMCOT_clean_sbu_0, # of connection points: 5
#     Node 19, Type 0, BuildingBlock: XOMCOT_clean_sbu_0, # of connection points: 5
#     Node 20, Type 0, BuildingBlock: XOMCOT_clean_sbu_0, # of connection points: 5
#     Node 21, Type 0, BuildingBlock: XOMCOT_clean_sbu_0, # of connection points: 5
#     Node 22, Type 0, BuildingBlock: XOMCOT_clean_sbu_0, # of connection points: 5
#     Node 23, Type 0, BuildingBlock: XOMCOT_clean_sbu_0, # of connection points: 5
#     Node 24, Type 0, BuildingBlock: XOMCOT_clean_sbu_0, # of connection points: 5
#     Node 25, Type 0, BuildingBlock: XOMCOT_clean_sbu_0, # of connection points: 5
#     Node 26, Type 0, BuildingBlock: XOMCOT_clean_sbu_0, # of connection points: 5
#     Node 27, Type 0, BuildingBlock: XOMCOT_clean_sbu_0, # of connection points: 5
#     Node 28, Type 0, BuildingBlock: XOMCOT_clean_sbu_0, # of connection points: 5
#     Node 29, Type 0, BuildingBlock: XOMCOT_clean_sbu_0, # of connection points: 5
#     Node 30, Type 0, BuildingBlock: XOMCOT_clean_sbu_0, # of connection points: 5
#     Node 31, Type 0, BuildingBlock: XOMCOT_clean_sbu_0, # of connection points: 5
#     Node 32, Type 0, BuildingBlock: XOMCOT_clean_sbu_0, # of connection points: 5
#     Node 33, Type 0, BuildingBlock: XOMCOT_clean_sbu_0, # of connection points: 5
#     Node 34, Type 0, BuildingBlock: XOMCOT_clean_sbu_0, # of connection points: 5
#     Node 35, Type 0, BuildingBlock: XOMCOT_clean_sbu_0, # of connection points: 5
#     Node 36, Type 0, BuildingBlock: XOMCOT_clean_sbu_0, # of connection points: 5
#     Node 37, Type 0, BuildingBlock: XOMCOT_clean_sbu_0, # of connection points: 5
#     Node 38, Type 0, BuildingBlock: XOMCOT_clean_sbu_0, # of connection points: 5
#     Node 39, Type 0, BuildingBlock: XOMCOT_clean_sbu_0, # of connection points: 5
#     Node 40, Type 0, BuildingBlock: XOMCOT_clean_sbu_0, # of connection points: 5
#     Node 41, Type 0, BuildingBlock: XOMCOT_clean_sbu_0, # of connection points: 5
#     Node 42, Type 0, BuildingBlock: XOMCOT_clean_sbu_0, # of connection points: 5
#     Node 43, Type 0, BuildingBlock: XOMCOT_clean_sbu_0, # of connection points: 5
#     Node 44, Type 0, BuildingBlock: XOMCOT_clean_sbu_0, # of connection points: 5
#     Node 45, Type 0, BuildingBlock: XOMCOT_clean_sbu_0, # of connection points: 5
#     Node 46, Type 0, BuildingBlock: XOMCOT_clean_sbu_0, # of connection points: 5
#     Node 47, Type 0, BuildingBlock: XOMCOT_clean_sbu_0, # of connection points: 5
#     Edge 48, Type (0, 0), BuildingBlock: CIFDUS_clean_linker_0, # of connection points: 2
#     Edge 49, Type (0, 0), BuildingBlock: CIFDUS_clean_linker_0, # of connection points: 2
#     Edge 50, Type (0, 0), BuildingBlock: CIFDUS_clean_linker_0, # of connection points: 2
#     Edge 51, Type (0, 0), BuildingBlock: CIFDUS_clean_linker_0, # of connection points: 2
#     Edge 52, Type (0, 0), BuildingBlock: CIFDUS_clean_linker_0, # of connection points: 2
#     Edge 53, Type (0, 0), BuildingBlock: CIFDUS_clean_linker_0, # of connection points: 2
#     Edge 54, Type (0, 0), BuildingBlock: CIFDUS_clean_linker_0, # of connection points: 2
#     Edge 55, Type (0, 0), BuildingBlock: CIFDUS_clean_linker_0, # of connection points: 2
#     Edge 56, Type (0, 0), BuildingBlock: CIFDUS_clean_linker_0, # of connection points: 2
#     Edge 57, Type (0, 0), BuildingBlock: CIFDUS_clean_linker_0, # of connection points: 2
#     Edge 58, Type (0, 0), BuildingBlock: CIFDUS_clean_linker_0, # of connection points: 2
#     Edge 59, Type (0, 0), BuildingBlock: CIFDUS_clean_linker_0, # of connection points: 2
#     Edge 60, Type (0, 0), BuildingBlock: CIFDUS_clean_linker_0, # of connection points: 2
#     Edge 61, Type (0, 0), BuildingBlock: CIFDUS_clean_linker_0, # of connection points: 2
#     Edge 62, Type (0, 0), BuildingBlock: CIFDUS_clean_linker_0, # of connection points: 2
#     Edge 63, Type (0, 0), BuildingBlock: CIFDUS_clean_linker_0, # of connection points: 2
#     Edge 64, Type (0, 0), BuildingBlock: CIFDUS_clean_linker_0, # of connection points: 2
#     Edge 65, Type (0, 0), BuildingBlock: CIFDUS_clean_linker_0, # of connection points: 2
#     Edge 66, Type (0, 0), BuildingBlock: CIFDUS_clean_linker_0, # of connection points: 2
#     Edge 67, Type (0, 0), BuildingBlock: CIFDUS_clean_linker_0, # of connection points: 2
#     Edge 68, Type (0, 0), BuildingBlock: CIFDUS_clean_linker_0, # of connection points: 2
#     Edge 69, Type (0, 0), BuildingBlock: CIFDUS_clean_linker_0, # of connection points: 2
#     Edge 70, Type (0, 0), BuildingBlock: CIFDUS_clean_linker_0, # of connection points: 2
#     Edge 71, Type (0, 0), BuildingBlock: CIFDUS_clean_linker_0, # of connection points: 2
#     Edge 72, Type (0, 0), BuildingBlock: CIFDUS_clean_linker_0, # of connection points: 2
#     Edge 73, Type (0, 0), BuildingBlock: CIFDUS_clean_linker_0, # of connection points: 2
#     Edge 74, Type (0, 0), BuildingBlock: CIFDUS_clean_linker_0, # of connection points: 2
#     Edge 75, Type (0, 0), BuildingBlock: CIFDUS_clean_linker_0, # of connection points: 2
#     Edge 76, Type (0, 0), BuildingBlock: CIFDUS_clean_linker_0, # of connection points: 2
#     Edge 77, Type (0, 0), BuildingBlock: CIFDUS_clean_linker_0, # of connection points: 2
#     Edge 78, Type (0, 0), BuildingBlock: CIFDUS_clean_linker_0, # of connection points: 2
#     Edge 79, Type (0, 0), BuildingBlock: CIFDUS_clean_linker_0, # of connection points: 2
#     Edge 80, Type (0, 0), BuildingBlock: CIFDUS_clean_linker_0, # of connection points: 2
#     Edge 81, Type (0, 0), BuildingBlock: CIFDUS_clean_linker_0, # of connection points: 2
#     Edge 82, Type (0, 0), BuildingBlock: CIFDUS_clean_linker_0, # of connection points: 2
#     Edge 83, Type (0, 0), BuildingBlock: CIFDUS_clean_linker_0, # of connection points: 2
#     Edge 84, Type (0, 0), BuildingBlock: CIFDUS_clean_linker_0, # of connection points: 2
#     Edge 85, Type (0, 0), BuildingBlock: CIFDUS_clean_linker_0, # of connection points: 2
#     Edge 86, Type (0, 0), BuildingBlock: CIFDUS_clean_linker_0, # of connection points: 2
#     Edge 87, Type (0, 0), BuildingBlock: CIFDUS_clean_linker_0, # of connection points: 2
#     Edge 88, Type (0, 0), BuildingBlock: CIFDUS_clean_linker_0, # of connection points: 2
#     Edge 89, Type (0, 0), BuildingBlock: CIFDUS_clean_linker_0, # of connection points: 2
#     Edge 90, Type (0, 0), BuildingBlock: CIFDUS_clean_linker_0, # of connection points: 2
#     Edge 91, Type (0, 0), BuildingBlock: CIFDUS_clean_linker_0, # of connection points: 2
#     Edge 92, Type (0, 0), BuildingBlock: CIFDUS_clean_linker_0, # of connection points: 2
#     Edge 93, Type (0, 0), BuildingBlock: CIFDUS_clean_linker_0, # of connection points: 2
#     Edge 94, Type (0, 0), BuildingBlock: CIFDUS_clean_linker_0, # of connection points: 2
#     Edge 95, Type (0, 0), BuildingBlock: CIFDUS_clean_linker_0, # of connection points: 2
#     Edge 96, Type (0, 0), BuildingBlock: CIFDUS_clean_linker_0, # of connection points: 2
#     Edge 97, Type (0, 0), BuildingBlock: CIFDUS_clean_linker_0, # of connection points: 2
#     Edge 98, Type (0, 0), BuildingBlock: CIFDUS_clean_linker_0, # of connection points: 2
#     Edge 99, Type (0, 0), BuildingBlock: CIFDUS_clean_linker_0, # of connection points: 2
#     Edge 100, Type (0, 0), BuildingBlock: CIFDUS_clean_linker_0, # of connection points: 2
#     Edge 101, Type (0, 0), BuildingBlock: CIFDUS_clean_linker_0, # of connection points: 2
#     Edge 102, Type (0, 0), BuildingBlock: CIFDUS_clean_linker_0, # of connection points: 2
#     Edge 103, Type (0, 0), BuildingBlock: CIFDUS_clean_linker_0, # of connection points: 2
#     Edge 104, Type (0, 0), BuildingBlock: CIFDUS_clean_linker_0, # of connection points: 2
#     Edge 105, Type (0, 0), BuildingBlock: CIFDUS_clean_linker_0, # of connection points: 2
#     Edge 106, Type (0, 0), BuildingBlock: CIFDUS_clean_linker_0, # of connection points: 2
#     Edge 107, Type (0, 0), BuildingBlock: CIFDUS_clean_linker_0, # of connection points: 2
#     Edge 108, Type (0, 0), BuildingBlock: CIFDUS_clean_linker_0, # of connection points: 2
#     Edge 109, Type (0, 0), BuildingBlock: CIFDUS_clean_linker_0, # of connection points: 2
#     Edge 110, Type (0, 0), BuildingBlock: CIFDUS_clean_linker_0, # of connection points: 2
#     Edge 111, Type (0, 0), BuildingBlock: CIFDUS_clean_linker_0, # of connection points: 2
#     Edge 112, Type (0, 0), BuildingBlock: CIFDUS_clean_linker_0, # of connection points: 2
#     Edge 113, Type (0, 0), BuildingBlock: CIFDUS_clean_linker_0, # of connection points: 2
#     Edge 114, Type (0, 0), BuildingBlock: CIFDUS_clean_linker_0, # of connection points: 2
#     Edge 115, Type (0, 0), BuildingBlock: CIFDUS_clean_linker_0, # of connection points: 2
#     Edge 116, Type (0, 0), BuildingBlock: CIFDUS_clean_linker_0, # of connection points: 2
#     Edge 117, Type (0, 0), BuildingBlock: CIFDUS_clean_linker_0, # of connection points: 2
#     Edge 118, Type (0, 0), BuildingBlock: CIFDUS_clean_linker_0, # of connection points: 2
#     Edge 119, Type (0, 0), BuildingBlock: CIFDUS_clean_linker_0, # of connection points: 2
#     Edge 120, Type (0, 0), BuildingBlock: CIFDUS_clean_linker_0, # of connection points: 2
#     Edge 121, Type (0, 0), BuildingBlock: CIFDUS_clean_linker_0, # of connection points: 2
#     Edge 122, Type (0, 0), BuildingBlock: CIFDUS_clean_linker_0, # of connection points: 2
#     Edge 123, Type (0, 0), BuildingBlock: CIFDUS_clean_linker_0, # of connection points: 2
#     Edge 124, Type (0, 0), BuildingBlock: CIFDUS_clean_linker_0, # of connection points: 2
#     Edge 125, Type (0, 0), BuildingBlock: CIFDUS_clean_linker_0, # of connection points: 2
#     Edge 126, Type (0, 0), BuildingBlock: CIFDUS_clean_linker_0, # of connection points: 2
#     Edge 127, Type (0, 0), BuildingBlock: CIFDUS_clean_linker_0, # of connection points: 2
#     Edge 128, Type (0, 0), BuildingBlock: CIFDUS_clean_linker_0, # of connection points: 2
#     Edge 129, Type (0, 0), BuildingBlock: CIFDUS_clean_linker_0, # of connection points: 2
#     Edge 130, Type (0, 0), BuildingBlock: CIFDUS_clean_linker_0, # of connection points: 2
#     Edge 131, Type (0, 0), BuildingBlock: CIFDUS_clean_linker_0, # of connection points: 2
#     Edge 132, Type (0, 0), BuildingBlock: CIFDUS_clean_linker_0, # of connection points: 2
#     Edge 133, Type (0, 0), BuildingBlock: CIFDUS_clean_linker_0, # of connection points: 2
#     Edge 134, Type (0, 0), BuildingBlock: CIFDUS_clean_linker_0, # of connection points: 2
#     Edge 135, Type (0, 0), BuildingBlock: CIFDUS_clean_linker_0, # of connection points: 2
#     Edge 136, Type (0, 0), BuildingBlock: CIFDUS_clean_linker_0, # of connection points: 2
#     Edge 137, Type (0, 0), BuildingBlock: CIFDUS_clean_linker_0, # of connection points: 2
#     Edge 138, Type (0, 0), BuildingBlock: CIFDUS_clean_linker_0, # of connection points: 2
#     Edge 139, Type (0, 0), BuildingBlock: CIFDUS_clean_linker_0, # of connection points: 2
#     Edge 140, Type (0, 0), BuildingBlock: CIFDUS_clean_linker_0, # of connection points: 2
#     Edge 141, Type (0, 0), BuildingBlock: CIFDUS_clean_linker_0, # of connection points: 2
#     Edge 142, Type (0, 0), BuildingBlock: CIFDUS_clean_linker_0, # of connection points: 2
#     Edge 143, Type (0, 0), BuildingBlock: CIFDUS_clean_linker_0, # of connection points: 2
#     Edge 144, Type (0, 0), BuildingBlock: CIFDUS_clean_linker_0, # of connection points: 2
#     Edge 145, Type (0, 0), BuildingBlock: CIFDUS_clean_linker_0, # of connection points: 2
#     Edge 146, Type (0, 0), BuildingBlock: CIFDUS_clean_linker_0, # of connection points: 2
#     Edge 147, Type (0, 0), BuildingBlock: CIFDUS_clean_linker_0, # of connection points: 2
#     Edge 148, Type (0, 0), BuildingBlock: CIFDUS_clean_linker_0, # of connection points: 2
#     Edge 149, Type (0, 0), BuildingBlock: CIFDUS_clean_linker_0, # of connection points: 2
#     Edge 150, Type (0, 0), BuildingBlock: CIFDUS_clean_linker_0, # of connection points: 2
#     Edge 151, Type (0, 0), BuildingBlock: CIFDUS_clean_linker_0, # of connection points: 2
#     Edge 152, Type (0, 0), BuildingBlock: CIFDUS_clean_linker_0, # of connection points: 2
#     Edge 153, Type (0, 0), BuildingBlock: CIFDUS_clean_linker_0, # of connection points: 2
#     Edge 154, Type (0, 0), BuildingBlock: CIFDUS_clean_linker_0, # of connection points: 2
#     Edge 155, Type (0, 0), BuildingBlock: CIFDUS_clean_linker_0, # of connection points: 2
#     Edge 156, Type (0, 0), BuildingBlock: CIFDUS_clean_linker_0, # of connection points: 2
#     Edge 157, Type (0, 0), BuildingBlock: CIFDUS_clean_linker_0, # of connection points: 2
#     Edge 158, Type (0, 0), BuildingBlock: CIFDUS_clean_linker_0, # of connection points: 2
#     Edge 159, Type (0, 0), BuildingBlock: CIFDUS_clean_linker_0, # of connection points: 2
#     Edge 160, Type (0, 0), BuildingBlock: CIFDUS_clean_linker_0, # of connection points: 2
#     Edge 161, Type (0, 0), BuildingBlock: CIFDUS_clean_linker_0, # of connection points: 2
#     Edge 162, Type (0, 0), BuildingBlock: CIFDUS_clean_linker_0, # of connection points: 2
#     Edge 163, Type (0, 0), BuildingBlock: CIFDUS_clean_linker_0, # of connection points: 2
#     Edge 164, Type (0, 0), BuildingBlock: CIFDUS_clean_linker_0, # of connection points: 2
#     Edge 165, Type (0, 0), BuildingBlock: CIFDUS_clean_linker_0, # of connection points: 2
#     Edge 166, Type (0, 0), BuildingBlock: CIFDUS_clean_linker_0, # of connection points: 2
#     Edge 167, Type (0, 0), BuildingBlock: CIFDUS_clean_linker_0, # of connection points: 2
# Relax obj value: 0.111
# Max RMSD: 0.155
# Mean RMSD: 0.155
data_MOF--net-fcr--node1-XOMCOT_clean_sbu_0--edge1-CIFDUS_clean_linker_0
_symmetry_space_group_name_H-M    P1
_symmetry_Int_Tables_number       1
_symmetry_cell_setting            triclinic
loop_
_symmetry_equiv_pos_as_xyz
'x, y, z'
_cell_length_a     58.835223
_cell_length_b     58.834589
_cell_length_c     58.822657
_cell_angle_alpha  90.054375
_cell_angle_beta   89.995175
_cell_angle_gamma 89.935698
loop_
_atom_site_label
_atom_site_type_symbol
_atom_site_fract_x
_atom_site_fract_y
_atom_site_fract_z
_atom_type_partial_charge
Co0 Co 0.13683 0.33507 0.24969 0.0
C1 C 0.15607 0.2942 0.27255 0.0
C2 C 0.15871 0.32359 0.29375 0.0
C3 C 0.16957 0.30575 0.30432 0.0
N4 N 0.14954 0.31627 0.27404 0.0
N5 N 0.16801 0.2872 0.29091 0.0
H6 H 0.15393 0.28393 0.2575 0.0
H7 H 0.15896 0.341 0.29956 0.0
C8 C 0.11865 0.35925 0.29115 0.0
O9 O 0.10987 0.33989 0.29796 0.0
N10 N 0.12519 0.35347 0.22495 0.0
C11 C 0.11196 0.34564 0.20799 0.0
C12 C 0.10905 0.36258 0.19224 0.0
C13 C 0.13067 0.37501 0.21899 0.0
N14 N 0.12081 0.38106 0.19905 0.0
C15 C 0.10444 0.29797 0.24985 0.0
C16 C 0.0659 0.32428 0.25526 0.0
C17 C 0.06335 0.30065 0.25305 0.0
C18 C 0.08307 0.28752 0.25033 0.0
C19 C 0.08763 0.33405 0.25485 0.0
N20 N 0.10673 0.32089 0.25277 0.0
H21 H 0.11899 0.2876 0.24609 0.0
H22 H 0.08904 0.35234 0.25566 0.0
H23 H 0.10545 0.3285 0.20678 0.0
H24 H 0.14189 0.3858 0.22878 0.0
O25 O 0.1504 0.31479 0.22739 0.0
O26 O 0.16716 0.345 0.24247 0.0
O27 O 0.12928 0.36028 0.27218 0.0
C28 C 0.16831 0.32774 0.22868 0.0
H29 H 0.17863 0.30675 0.32029 0.0
H30 H 0.09969 0.3611 0.17646 0.0
H31 H 0.05121 0.33523 0.25715 0.0
H32 H 0.08199 0.26933 0.24766 0.0
Co33 Co 0.58386 0.62673 0.01329 0.0
C34 C 0.54107 0.60957 0.99246 0.0
C35 C 0.56847 0.61077 0.96844 0.0
C36 C 0.54988 0.60132 0.95798 0.0
N37 N 0.56299 0.61603 0.99005 0.0
N38 N 0.53266 0.6003 0.97311 0.0
H39 H 0.53185 0.61063 1.00834 0.0
H40 H 0.58505 0.61278 0.96087 0.0
C41 C 0.62562 0.62951 0.98676 0.0
O42 O 0.63414 0.61628 1.0026 0.0
N43 N 0.6052 0.63743 0.0363 0.0
C44 C 0.61659 0.65729 0.03548 0.0
C45 C 0.63238 0.65776 0.05277 0.0
C46 C 0.61414 0.62618 0.05431 0.0
N47 N 0.6308 0.63819 0.06455 0.0
C48 C 0.56012 0.66369 0.03381 0.0
C49 C 0.55425 0.68936 0.99485 0.0
C50 C 0.5457 0.69775 0.01554 0.0
C51 C 0.54871 0.68448 0.03515 0.0
C52 C 0.56566 0.66842 0.99427 0.0
N53 N 0.56861 0.65602 0.01365 0.0
H54 H 0.56228 0.65366 0.04906 0.0
H55 H 0.57203 0.66214 0.97821 0.0
H56 H 0.61417 0.67022 0.02264 0.0
H57 H 0.60948 0.60916 0.05934 0.0
O58 O 0.56607 0.61137 0.03619 0.0
O59 O 0.5946 0.59592 0.01693 0.0
O60 O 0.60535 0.637 0.98882 0.0
C61 C 0.57847 0.59354 0.03188 0.0
H62 H 0.54935 0.59529 0.94061 0.0
H63 H 0.64434 0.6713 0.05621 0.0
H64 H 0.55243 0.69901 0.97929 0.0
H65 H 0.54208 0.68997 0.05143 0.0
Co66 Co 0.87792 0.18634 0.25215 0.0
C67 C 0.8561 0.22358 0.27962 0.0
C68 C 0.85644 0.19169 0.29697 0.0
C69 C 0.84429 0.20689 0.3098 0.0
N70 N 0.86469 0.20218 0.27831 0.0
N71 N 0.84384 0.22698 0.29885 0.0
H72 H 0.85699 0.2358 0.26596 0.0
H73 H 0.85747 0.17371 0.30041 0.0
C74 C 0.89983 0.16288 0.29159 0.0
O75 O 0.90722 0.18295 0.29804 0.0
N76 N 0.88967 0.17001 0.226 0.0
C77 C 0.89978 0.17954 0.20781 0.0
C78 C 0.90126 0.16356 0.19077 0.0
C79 C 0.88506 0.14835 0.21976 0.0
N80 N 0.89192 0.144 0.19822 0.0
C81 C 0.90782 0.22563 0.25521 0.0
C82 C 0.94802 0.20128 0.25559 0.0
C83 C 0.94917 0.22508 0.25712 0.0
C84 C 0.9286 0.23724 0.25665 0.0
C85 C 0.92693 0.19037 0.25429 0.0
N86 N 0.90704 0.20243 0.25489 0.0
H87 H 0.89246 0.23542 0.2539 0.0
H88 H 0.92659 0.17206 0.25277 0.0
H89 H 0.90457 0.19724 0.20659 0.0
H90 H 0.87542 0.13659 0.23011 0.0
O91 O 0.8621 0.20686 0.23168 0.0
O92 O 0.84811 0.17466 0.24533 0.0
O93 O 0.88859 0.16094 0.27301 0.0
C94 C 0.8453 0.19246 0.2325 0.0
H95 H 0.83562 0.20299 0.32553 0.0
H96 H 0.90792 0.16637 0.17384 0.0
H97 H 0.96332 0.19105 0.25504 0.0
H98 H 0.92845 0.25562 0.25752 0.0
Co99 Co 0.43313 0.88288 0.01873 0.0
C100 C 0.47178 0.91085 1.00081 0.0
C101 C 0.45592 0.89054 0.97504 0.0
C102 C 0.47402 0.90176 0.96549 0.0
N103 N 0.45423 0.89641 0.99714 0.0
N104 N 0.48403 0.91449 0.98169 0.0
H105 H 0.47592 0.91821 0.01713 0.0
H106 H 0.4455 0.87801 0.9666 0.0
C107 C 0.391 0.87108 0.98991 0.0
O108 O 0.38033 0.8614 1.0069 0.0
N109 N 0.41254 0.86917 0.04079 0.0
C110 C 0.41656 0.85005 0.05283 0.0
C111 C 0.39878 0.8464 0.06749 0.0
C112 C 0.39279 0.87754 0.04932 0.0
N113 N 0.38392 0.86365 0.06531 0.0
C114 C 0.47056 0.85207 0.0196 0.0
C115 C 0.44843 0.8146 1.00187 0.0
C116 C 0.47137 0.81241 1.00822 0.0
C117 C 0.48243 0.83164 0.01701 0.0
C118 C 0.43718 0.83543 1.00466 0.0
N119 N 0.44821 0.85378 0.01365 0.0
H120 H 0.47936 0.86666 0.02644 0.0
H121 H 0.41944 0.83649 1.00028 0.0
H122 H 0.4315 0.83947 0.05143 0.0
H123 H 0.38466 0.89294 0.04338 0.0
O124 O 0.45097 0.89426 0.04413 0.0
O125 O 0.42247 0.91252 0.0275 0.0
O126 O 0.41141 0.87824 0.99222 0.0
C127 C 0.43806 0.91226 0.04316 0.0
H128 H 0.48001 0.89981 0.9482 0.0
H129 H 0.39683 0.83211 0.07892 0.0
H130 H 0.43904 0.80021 0.99531 0.0
H131 H 0.5002 0.83102 0.02173 0.0
Co132 Co 0.13393 0.68798 0.26864 0.0
C133 C 0.15982 0.72396 0.24343 0.0
C134 C 0.13902 0.70378 0.22134 0.0
C135 C 0.15004 0.71989 0.20848 0.0
N136 N 0.14529 0.70608 0.24327 0.0
N137 N 0.16308 0.73259 0.22238 0.0
H138 H 0.16785 0.7307 0.25851 0.0
H139 H 0.12679 0.69165 0.21507 0.0
C140 C 0.14015 0.64608 0.24123 0.0
O141 O 0.15975 0.64383 0.25164 0.0
N142 N 0.12281 0.66989 0.2939 0.0
C143 C 0.11016 0.67781 0.3113 0.0
C144 C 0.10953 0.66162 0.32818 0.0
C145 C 0.12974 0.64895 0.30048 0.0
N146 N 0.12186 0.64351 0.32139 0.0
C147 C 0.102 0.7241 0.26412 0.0
C148 C 0.06325 0.69779 0.26076 0.0
C149 C 0.06092 0.72164 0.26089 0.0
C150 C 0.08085 0.73471 0.26225 0.0
C151 C 0.08489 0.68781 0.26226 0.0
N152 N 0.10387 0.70099 0.26412 0.0
H153 H 0.11702 0.73451 0.26576 0.0
H154 H 0.08636 0.66949 0.26262 0.0
H155 H 0.10293 0.6947 0.31216 0.0
H156 H 0.14154 0.63854 0.29099 0.0
O157 O 0.14541 0.71003 0.29017 0.0
O158 O 0.16482 0.68039 0.27741 0.0
O159 O 0.12691 0.6625 0.24656 0.0
C160 C 0.16408 0.69824 0.2905 0.0
H161 H 0.1481 0.72247 0.19037 0.0
H162 H 0.10125 0.66331 0.34453 0.0
H163 H 0.0485 0.68685 0.26008 0.0
H164 H 0.08025 0.75309 0.26188 0.0
Co165 Co 0.93576 0.6324 1.00398 0.0
C166 C 0.97897 0.61528 0.02411 0.0
C167 C 0.95225 0.61773 0.04883 0.0
C168 C 0.97113 0.60879 0.05918 0.0
N169 N 0.95711 0.62191 0.02685 0.0
N170 N 0.98793 0.60695 0.04363 0.0
H171 H 0.98778 0.61565 1.00798 0.0
H172 H 0.93595 0.62028 0.05684 0.0
C173 C 0.89429 0.63535 0.0311 0.0
O174 O 0.88572 0.62207 0.01533 0.0
N175 N 0.91402 0.64299 0.98134 0.0
C176 C 0.90227 0.66264 0.98259 0.0
C177 C 0.88656 0.66326 0.96526 0.0
C178 C 0.90544 0.63203 0.96298 0.0
N179 N 0.88861 0.64401 0.95299 0.0
C180 C 0.95873 0.66953 0.98282 0.0
C181 C 0.96747 0.69402 0.02203 0.0
C182 C 0.97578 0.70239 1.00123 0.0
C183 C 0.97092 0.68988 0.98143 0.0
C184 C 0.95507 0.67368 0.02263 0.0
N185 N 0.95099 0.66168 1.00319 0.0
H186 H 0.95552 0.65992 0.96748 0.0
H187 H 0.94922 0.6673 0.03883 0.0
H188 H 0.90447 0.67535 0.99571 0.0
H189 H 0.91056 0.61528 0.95746 0.0
O190 O 0.95305 0.61659 0.98071 0.0
O191 O 0.92501 0.60158 1.00083 0.0
O192 O 0.91456 0.64285 0.02885 0.0
C193 C 0.94075 0.59884 0.98554 0.0
H194 H 0.97215 0.60373 0.07682 0.0
H195 H 0.87437 0.67668 0.96206 0.0
H196 H 0.97099 0.70274 0.03786 0.0
H197 H 0.97647 0.69569 0.96488 0.0
Co198 Co 0.87398 0.83246 0.27001 0.0
C199 C 0.8569 0.79143 0.24643 0.0
C200 C 0.85347 0.82085 0.22539 0.0
C201 C 0.84397 0.80258 0.21427 0.0
N202 N 0.86223 0.81375 0.24536 0.0
N203 N 0.84611 0.78405 0.22758 0.0
H204 H 0.85899 0.78114 0.26143 0.0
H205 H 0.85263 0.83827 0.21973 0.0
C206 C 0.89145 0.85897 0.22886 0.0
O207 O 0.90162 0.84108 0.22015 0.0
N208 N 0.88498 0.85093 0.29468 0.0
C209 C 0.89436 0.84334 0.31412 0.0
C210 C 0.89743 0.86154 0.32851 0.0
C211 C 0.88249 0.87355 0.29735 0.0
N212 N 0.88996 0.88046 0.31791 0.0
C213 C 0.90617 0.7955 0.27225 0.0
C214 C 0.94471 0.82096 0.2641 0.0
C215 C 0.94704 0.79743 0.26737 0.0
C216 C 0.92736 0.78473 0.27158 0.0
C217 C 0.92308 0.83102 0.26461 0.0
N218 N 0.90399 0.81819 0.26784 0.0
H219 H 0.89167 0.78562 0.27724 0.0
H220 H 0.92179 0.84925 0.2629 0.0
H221 H 0.8981 0.82571 0.31778 0.0
H222 H 0.8745 0.88455 0.28495 0.0
O223 O 0.85927 0.81246 0.29201 0.0
O224 O 0.84363 0.84279 0.27611 0.0
O225 O 0.88163 0.85778 0.24819 0.0
C226 C 0.84164 0.82581 0.29003 0.0
H227 H 0.83547 0.80319 0.19797 0.0
H228 H 0.90439 0.86093 0.34553 0.0
H229 H 0.95947 0.83156 0.26126 0.0
H230 H 0.92841 0.76672 0.27522 0.0
Co231 Co 0.08323 0.89085 1.00424 0.0
C232 C 0.03964 0.90806 0.02372 0.0
C233 C 0.06877 0.91718 0.04375 0.0
C234 C 0.04978 0.92651 0.05361 0.0
N235 N 0.06244 0.90553 0.02512 0.0
N236 N 0.03138 0.92081 0.0411 0.0
H237 H 0.02944 0.90093 0.01018 0.0
H238 H 0.08611 0.91935 0.04942 0.0
C239 C 0.12361 0.88799 0.03315 0.0
O240 O 0.13392 0.89882 0.01659 0.0
N241 N 0.10477 0.87619 0.98366 0.0
C242 C 0.11287 0.85489 0.98621 0.0
C243 C 0.1304 0.85147 0.97111 0.0
C244 C 0.11768 0.88545 0.96694 0.0
N245 N 0.13352 0.87072 0.95908 0.0
C246 C 0.05787 0.85284 0.98734 0.0
C247 C 0.04829 0.83361 0.02917 0.0
C248 C 0.04007 0.82291 0.00945 0.0
C249 C 0.0451 0.83279 0.98832 0.0
C250 C 0.06125 0.85348 0.02741 0.0
N251 N 0.06597 0.86277 1.00668 0.0
H252 H 0.06141 0.86043 0.97098 0.0
H253 H 0.06727 0.86158 0.04277 0.0
H254 H 0.10716 0.84296 0.99896 0.0
H255 H 0.11657 0.90296 0.96153 0.0
O256 O 0.0673 0.90472 0.97903 0.0
O257 O 0.09615 0.92029 0.99762 0.0
O258 O 0.10287 0.88208 0.0308 0.0
C259 C 0.08064 0.92213 0.98194 0.0
H260 H 0.04975 0.93746 0.0684 0.0
H261 H 0.14047 0.83614 0.96954 0.0
H262 H 0.04488 0.82657 0.04583 0.0
H263 H 0.03886 0.82533 0.97269 0.0
Co264 Co 0.25749 0.14275 0.33158 0.0
C265 C 0.28246 0.16333 0.29266 0.0
C266 C 0.30518 0.14796 0.31664 0.0
C267 C 0.31786 0.15728 0.29941 0.0
N268 N 0.28294 0.15197 0.31264 0.0
N269 N 0.30357 0.16691 0.28438 0.0
H270 H 0.26711 0.16915 0.28439 0.0
H271 H 0.31202 0.13873 0.33088 0.0
C272 C 0.28623 0.14522 0.37282 0.0
O273 O 0.27711 0.16529 0.37621 0.0
N274 N 0.23206 0.13332 0.35012 0.0
C275 C 0.21288 0.1237 0.34213 0.0
C276 C 0.19746 0.12195 0.35963 0.0
C277 C 0.22809 0.13726 0.37239 0.0
N278 N 0.20706 0.13049 0.3786 0.0
C279 C 0.25123 0.11039 0.29547 0.0
C280 C 0.26645 0.07264 0.31884 0.0
C281 C 0.25881 0.06959 0.29634 0.0
C282 C 0.25103 0.08906 0.28475 0.0
C283 C 0.26556 0.09404 0.32917 0.0
N284 N 0.25831 0.1127 0.31744 0.0
H285 H 0.2454 0.12508 0.28614 0.0
H286 H 0.27067 0.09533 0.34673 0.0
H287 H 0.21004 0.11895 0.32459 0.0
H288 H 0.2398 0.14575 0.38367 0.0
O289 O 0.23601 0.15842 0.31147 0.0
O290 O 0.25306 0.17386 0.34103 0.0
O291 O 0.27974 0.13303 0.356 0.0
C292 C 0.23907 0.17627 0.32421 0.0
H293 H 0.33619 0.15671 0.29788 0.0
H294 H 0.18043 0.1151 0.35847 0.0
H295 H 0.27325 0.0587 0.32869 0.0
H296 H 0.24445 0.08802 0.26762 0.0
Co297 Co 0.38742 0.5138 0.93269 0.0
C298 C 0.40155 0.48753 0.97375 0.0
C299 C 0.40537 0.46876 0.94265 0.0
C300 C 0.41348 0.45573 0.96016 0.0
N301 N 0.39774 0.48861 0.9511 0.0
N302 N 0.41115 0.46744 0.97977 0.0
H303 H 0.39788 0.50131 0.98537 0.0
H304 H 0.40606 0.46438 0.92483 0.0
C305 C 0.3828 0.48925 0.88948 0.0
O306 O 0.39723 0.50419 0.88139 0.0
N307 N 0.3772 0.53882 0.91335 0.0
C308 C 0.35552 0.54501 0.90898 0.0
C309 C 0.3554 0.56131 0.89217 0.0
C310 C 0.38987 0.55131 0.89873 0.0
N311 N 0.37701 0.5651 0.88563 0.0
C312 C 0.35414 0.53248 0.96278 0.0
C313 C 0.32289 0.49751 0.96017 0.0
C314 C 0.31765 0.5165 0.9738 0.0
C315 C 0.33393 0.53393 0.97519 0.0
C316 C 0.34358 0.49655 0.94828 0.0
N317 N 0.35868 0.51416 0.94929 0.0
H318 H 0.36609 0.54636 0.9638 0.0
H319 H 0.34733 0.48162 0.93828 0.0
H320 H 0.34059 0.53745 0.91652 0.0
H321 H 0.40809 0.5498 0.89694 0.0
O322 O 0.40443 0.53478 0.95155 0.0
O323 O 0.41823 0.51698 0.92142 0.0
O324 O 0.37544 0.49136 0.9098 0.0
C325 C 0.42165 0.53094 0.93826 0.0
H326 H 0.4216 0.43932 0.95832 0.0
H327 H 0.34048 0.56877 0.8844 0.0
H328 H 0.31104 0.48358 0.95836 0.0
H329 H 0.33126 0.54866 0.98588 0.0
Co330 Co 0.76357 0.37758 0.33246 0.0
C331 C 0.74143 0.36283 0.28937 0.0
C332 C 0.72199 0.35437 0.31904 0.0
C333 C 0.71145 0.34517 0.30041 0.0
N334 N 0.74072 0.3655 0.31218 0.0
N335 N 0.72363 0.35036 0.28165 0.0
H336 H 0.75513 0.36917 0.2789 0.0
H337 H 0.717 0.35187 0.33654 0.0
C338 C 0.73767 0.3771 0.37551 0.0
O339 O 0.75464 0.3653 0.38396 0.0
N340 N 0.78612 0.38951 0.35354 0.0
C341 C 0.78408 0.40905 0.36537 0.0
C342 C 0.80141 0.41032 0.38106 0.0
C343 C 0.80483 0.37922 0.36217 0.0
N344 N 0.81439 0.39154 0.37902 0.0
C345 C 0.77928 0.41698 0.30904 0.0
C346 C 0.73804 0.43945 0.30658 0.0
C347 C 0.75724 0.44951 0.29653 0.0
C348 C 0.77805 0.43793 0.2979 0.0
C349 C 0.73997 0.41828 0.31738 0.0
N350 N 0.76046 0.40743 0.31863 0.0
H351 H 0.79547 0.40832 0.31003 0.0
H352 H 0.72492 0.41049 0.32445 0.0
H353 H 0.77034 0.42113 0.36338 0.0
H354 H 0.81081 0.36257 0.35721 0.0
O355 O 0.78718 0.36562 0.31301 0.0
O356 O 0.77094 0.34655 0.3411 0.0
O357 O 0.73881 0.38451 0.35514 0.0
C358 C 0.78533 0.3467 0.32421 0.0
H359 H 0.69668 0.33426 0.30102 0.0
H360 H 0.80401 0.42381 0.39332 0.0
H361 H 0.72158 0.44765 0.3057 0.0
H362 H 0.79335 0.44512 0.29066 0.0
Co363 Co 0.62575 1.00391 0.93632 0.0
C364 C 0.60746 0.03055 0.97592 0.0
C365 C 0.60422 0.04809 0.94424 0.0
C366 C 0.59328 0.06047 0.96061 0.0
N367 N 0.61387 0.02959 0.95375 0.0
N368 N 0.5949 0.04936 0.98059 0.0
H369 H 0.61008 0.01689 0.98788 0.0
H370 H 0.60339 0.05158 0.92626 0.0
C371 C 0.6444 0.04436 0.91059 0.0
O372 O 0.65229 0.05297 0.92964 0.0
N373 N 0.63638 0.97843 0.91835 0.0
C374 C 0.64896 0.96061 0.9252 0.0
C375 C 0.65072 0.9454 0.90741 0.0
C376 C 0.63048 0.97377 0.89664 0.0
N377 N 0.63898 0.9536 0.88941 0.0
C378 C 0.65746 1.0013 0.9737 0.0
C379 C 0.69635 0.00987 0.94889 0.0
C380 C 0.69875 1.0055 0.97233 0.0
C381 C 0.67869 1.0009 0.98458 0.0
C382 C 0.6749 0.00926 0.93856 0.0
N383 N 0.65561 1.00594 0.95105 0.0
H384 H 0.64257 0.99699 0.98344 0.0
H385 H 0.67396 0.01112 0.92033 0.0
H386 H 0.65599 0.95858 0.94207 0.0
H387 H 0.61945 0.98463 0.88673 0.0
O388 O 0.61063 0.98299 0.95696 0.0
O389 O 0.5953 0.99796 0.92598 0.0
O390 O 0.63474 0.02489 0.91061 0.0
C391 C 0.59307 0.98477 0.94355 0.0
H392 H 0.58384 0.07595 0.95756 0.0
H393 H 0.65988 0.92946 0.90789 0.0
H394 H 0.71083 0.01367 0.93826 0.0
H395 H 0.67916 0.99636 1.00238 0.0
Co396 Co 0.2516 0.87904 0.19048 0.0
C397 C 0.27794 0.85521 0.22685 0.0
C398 C 0.29904 0.87631 0.20596 0.0
C399 C 0.31252 0.86596 0.22202 0.0
N400 N 0.27736 0.86939 0.20877 0.0
N401 N 0.29923 0.85273 0.23514 0.0
H402 H 0.26324 0.84673 0.23385 0.0
H403 H 0.30473 0.88835 0.19332 0.0
C404 C 0.27991 0.87045 0.15009 0.0
O405 O 0.27164 0.84979 0.15117 0.0
N406 N 0.22614 0.88888 0.17222 0.0
C407 C 0.20749 0.89974 0.17989 0.0
C408 C 0.19204 0.90143 0.16237 0.0
C409 C 0.22187 0.88413 0.15017 0.0
N410 N 0.20112 0.89162 0.14373 0.0
C411 C 0.24892 0.91339 0.22456 0.0
C412 C 0.26428 0.94951 0.19892 0.0
C413 C 0.25757 0.95376 0.22158 0.0
C414 C 0.2496 0.93508 0.23421 0.0
C415 C 0.26248 0.92758 0.1896 0.0
N416 N 0.25503 0.90979 0.20249 0.0
H417 H 0.24312 0.89942 0.23492 0.0
H418 H 0.26699 0.92512 0.17199 0.0
H419 H 0.20506 0.90549 0.19719 0.0
H420 H 0.23326 0.87465 0.13928 0.0
O421 O 0.23032 0.86705 0.21287 0.0
O422 O 0.24382 0.84754 0.18393 0.0
O423 O 0.27324 0.88542 0.16441 0.0
C424 C 0.23069 0.84805 0.20164 0.0
H425 H 0.33062 0.86841 0.22423 0.0
H426 H 0.17539 0.90923 0.16327 0.0
H427 H 0.27097 0.96287 0.18825 0.0
H428 H 0.24344 0.93693 0.25141 0.0
Co429 Co 0.13017 0.51577 0.08529 0.0
C430 C 0.11227 0.4946 0.04318 0.0
C431 C 0.11306 0.47074 0.07071 0.0
C432 C 0.10379 0.46025 0.05195 0.0
N433 N 0.11836 0.49231 0.06525 0.0
N434 N 0.1031 0.47529 0.03461 0.0
H435 H 0.11385 0.51033 0.03384 0.0
H436 H 0.11528 0.46309 0.08725 0.0
C437 C 0.15201 0.48991 0.12472 0.0
O438 O 0.16884 0.50449 0.12627 0.0
N439 N 0.1415 0.5397 0.10519 0.0
C440 C 0.15179 0.55908 0.09851 0.0
C441 C 0.15309 0.57377 0.11667 0.0
C442 C 0.1364 0.54311 0.12743 0.0
N443 N 0.14348 0.5637 0.13477 0.0
C444 C 0.16496 0.52798 0.05311 0.0
C445 C 0.19428 0.49237 0.06173 0.0
C446 C 0.20044 0.50823 0.04495 0.0
C447 C 0.18515 0.52608 0.04061 0.0
C448 C 0.17369 0.49465 0.0735 0.0
N449 N 0.15967 0.51285 0.0699 0.0
H450 H 0.15335 0.54152 0.04885 0.0
H451 H 0.169 0.48122 0.08495 0.0
H452 H 0.15694 0.56302 0.08139 0.0
H453 H 0.12686 0.53124 0.13773 0.0
O454 O 0.11577 0.53896 0.06644 0.0
O455 O 0.09988 0.52189 0.0959 0.0
O456 O 0.13719 0.49181 0.10894 0.0
C457 C 0.09803 0.53649 0.07947 0.0
H458 H 0.09789 0.44286 0.05132 0.0
H459 H 0.16015 0.59076 0.11653 0.0
H460 H 0.20516 0.47811 0.06581 0.0
H461 H 0.18836 0.53829 0.02726 0.0
Co462 Co 0.76396 0.63658 0.18682 0.0
C463 C 0.73901 0.65082 0.22833 0.0
C464 C 0.71873 0.65547 0.19857 0.0
C465 C 0.7072 0.66433 0.21693 0.0
N466 N 0.73847 0.64629 0.20576 0.0
N467 N 0.72005 0.66153 0.23574 0.0
H468 H 0.75384 0.64843 0.23878 0.0
H469 H 0.7136 0.65713 0.18102 0.0
C470 C 0.72347 0.61754 0.1609 0.0
O471 O 0.71465 0.60905 0.17958 0.0
N472 N 0.78964 0.62783 0.16829 0.0
C473 C 0.80946 0.6195 0.17617 0.0
C474 C 0.82498 0.61912 0.15865 0.0
C475 C 0.79328 0.63238 0.14608 0.0
N476 N 0.8148 0.62726 0.13979 0.0
C477 C 0.76921 0.60401 0.2232 0.0
C478 C 0.76081 0.56558 0.19756 0.0
C479 C 0.7645 0.5631 0.22101 0.0
C480 C 0.769 0.58271 0.23378 0.0
C481 C 0.76089 0.58727 0.18771 0.0
N482 N 0.76407 0.6063 0.20068 0.0
H483 H 0.77419 0.61854 0.2331 0.0
H484 H 0.75871 0.58864 0.16955 0.0
H485 H 0.81267 0.6149 0.19368 0.0
H486 H 0.78085 0.64033 0.13508 0.0
O487 O 0.78466 0.65278 0.20698 0.0
O488 O 0.76734 0.66736 0.17687 0.0
O489 O 0.74288 0.62723 0.1614 0.0
C490 C 0.78095 0.67035 0.19396 0.0
H491 H 0.69103 0.67304 0.21612 0.0
H492 H 0.84249 0.61358 0.15974 0.0
H493 H 0.75778 0.55088 0.18689 0.0
H494 H 0.773 0.58156 0.25172 0.0
Co495 Co 0.8859 1.00313 0.08634 0.0
C496 C 0.90112 0.02415 0.0424 0.0
C497 C 0.91442 0.0408 0.07195 0.0
C498 C 0.92415 0.0504 0.05312 0.0
N499 N 0.89953 0.02468 0.06535 0.0
N500 N 0.91586 0.03995 0.03449 0.0
H501 H 0.89265 0.01189 0.03173 0.0
H502 H 0.91884 0.04449 0.08941 0.0
C503 C 0.87274 0.0493 0.10286 0.0
O504 O 0.8672 0.05348 0.08161 0.0
N505 N 0.8736 0.98112 0.10788 0.0
C506 C 0.85439 0.96865 0.10607 0.0
C507 C 0.85406 0.95257 0.12308 0.0
C508 C 0.88481 0.97201 0.12582 0.0
N509 N 0.87328 0.9546 0.13528 0.0
C510 C 0.85282 0.99535 0.05077 0.0
C511 C 0.81629 0.01613 0.07165 0.0
C512 C 0.81276 1.00629 0.0501 0.0
C513 C 0.83157 0.99548 0.03993 0.0
C514 C 0.83758 0.01488 0.08223 0.0
N515 N 0.85596 1.00556 0.07141 0.0
H516 H 0.86659 0.98625 0.04278 0.0
H517 H 0.83893 0.02091 0.09948 0.0
H518 H 0.84204 0.96989 0.09257 0.0
H519 H 0.90155 0.97723 0.13133 0.0
O520 O 0.89899 0.97833 0.06868 0.0
O521 O 0.91623 0.99628 0.09689 0.0
O522 O 0.87917 0.02919 0.10844 0.0
C523 C 0.91707 0.98073 0.0812 0.0
H524 H 0.93744 0.0631 0.05328 0.0
H525 H 0.84148 0.93935 0.1253 0.0
H526 H 0.80278 0.02473 0.08067 0.0
H527 H 0.83 0.98655 0.02394 0.0
Co528 Co 0.32982 0.24723 0.13361 0.0
C529 C 0.28868 0.26654 0.15702 0.0
C530 C 0.30437 0.2902 0.13419 0.0
C531 C 0.28561 0.30041 0.14369 0.0
N532 N 0.30656 0.26903 0.14271 0.0
N533 N 0.27574 0.28554 0.15801 0.0
H534 H 0.28498 0.25124 0.16645 0.0
H535 H 0.31525 0.29754 0.12135 0.0
C536 C 0.37168 0.27656 0.12355 0.0
O537 O 0.38392 0.25916 0.11688 0.0
N538 N 0.35285 0.22506 0.12453 0.0
C539 C 0.35145 0.21051 0.10686 0.0
C540 C 0.36912 0.19521 0.10809 0.0
C541 C 0.37114 0.21787 0.13663 0.0
N542 N 0.38152 0.19978 0.12682 0.0
C543 C 0.29582 0.2428 0.0997 0.0
C544 C 0.32057 0.2586 0.06305 0.0
C545 C 0.29771 0.25241 0.05968 0.0
C546 C 0.2854 0.24444 0.07847 0.0
C547 C 0.33037 0.2568 0.08474 0.0
N548 N 0.31794 0.249 0.10273 0.0
H549 H 0.28588 0.23695 0.11399 0.0
H550 H 0.34796 0.26139 0.08691 0.0
H551 H 0.33802 0.21028 0.09433 0.0
H552 H 0.3764 0.22537 0.15259 0.0
O553 O 0.31168 0.22224 0.1448 0.0
O554 O 0.33696 0.24152 0.16508 0.0
O555 O 0.35078 0.27409 0.12893 0.0
C556 C 0.32201 0.22525 0.16416 0.0
H557 H 0.2793 0.31725 0.13979 0.0
H558 H 0.37239 0.18159 0.09615 0.0
H559 H 0.33088 0.26456 0.04904 0.0
H560 H 0.26763 0.23992 0.07698 0.0
Co561 Co 0.32873 0.76322 0.38087 0.0
C562 C 0.28731 0.73791 0.36498 0.0
C563 C 0.31877 0.72131 0.35674 0.0
C564 C 0.30135 0.70861 0.34807 0.0
N565 N 0.31011 0.73953 0.36758 0.0
N566 N 0.28153 0.71894 0.35319 0.0
H567 H 0.27534 0.75042 0.37123 0.0
H568 H 0.33665 0.71783 0.35442 0.0
C569 C 0.37187 0.73784 0.38014 0.0
O570 O 0.37984 0.75414 0.36715 0.0
N571 N 0.34874 0.78637 0.3937 0.0
C572 C 0.35998 0.78436 0.41359 0.0
C573 C 0.37636 0.80102 0.4149 0.0
C574 C 0.35856 0.80437 0.38319 0.0
N575 N 0.3755 0.81354 0.39574 0.0
C576 C 0.30561 0.77747 0.42121 0.0
C577 C 0.29848 0.73458 0.43915 0.0
C578 C 0.28982 0.75355 0.45071 0.0
C579 C 0.29372 0.77521 0.44168 0.0
C580 C 0.31082 0.73762 0.41898 0.0
N581 N 0.3141 0.75887 0.41021 0.0
H582 H 0.3079 0.79422 0.41401 0.0
H583 H 0.31726 0.72286 0.4101 0.0
H584 H 0.35736 0.77084 0.42576 0.0
H585 H 0.35459 0.80984 0.36611 0.0
O586 O 0.3085 0.78595 0.36896 0.0
O587 O 0.33795 0.7716 0.35026 0.0
O588 O 0.35192 0.73946 0.38841 0.0
C589 C 0.32027 0.78503 0.35029 0.0
H590 H 0.30323 0.69346 0.33778 0.0
H591 H 0.38843 0.80333 0.42859 0.0
H592 H 0.2957 0.71759 0.44564 0.0
H593 H 0.2871 0.79022 0.45008 0.0
Co594 Co 0.01505 0.43736 0.88886 0.0
C595 C 0.99352 0.47922 0.90657 0.0
C596 C 0.97015 0.45125 0.90636 0.0
C597 C 0.95948 0.46982 0.91577 0.0
N598 N 0.9915 0.45714 0.90059 0.0
N599 N 0.97422 0.48739 0.91608 0.0
H600 H 0.00909 0.48881 0.90482 0.0
H601 H 0.96285 0.43452 0.90451 0.0
C602 C 0.98913 0.3983 0.86594 0.0
O603 O 1.00439 0.39581 0.84982 0.0
N604 N 0.03898 0.41756 0.87756 0.0
C605 C 0.05804 0.42407 0.86659 0.0
C606 C 0.07287 0.40602 0.86563 0.0
C607 C 0.04266 0.39558 0.88332 0.0
N608 N 0.06321 0.38817 0.87615 0.0
C609 C 0.02871 0.4711 0.85636 0.0
C610 C 0.99568 0.46329 0.82395 0.0
C611 C 0.0116 0.48063 0.82 0.0
C612 C 0.02821 0.48441 0.83667 0.0
C613 C 0.99668 0.45041 0.84408 0.0
N614 N 0.01352 0.45387 0.85978 0.0
H615 H 0.04151 0.47483 0.86893 0.0
H616 H 0.98339 0.43825 0.84708 0.0
H617 H 0.06169 0.441 0.86071 0.0
H618 H 0.03104 0.38559 0.89349 0.0
O619 O 0.03805 0.45532 0.90472 0.0
O620 O 0.0201 0.42574 0.91914 0.0
O621 O 0.99085 0.41442 0.88041 0.0
C622 C 0.03487 0.44187 0.92199 0.0
H623 H 0.94223 0.47016 0.92212 0.0
H624 H 0.08969 0.40612 0.85816 0.0
H625 H 0.9821 0.46015 0.81193 0.0
H626 H 0.04088 0.49757 0.83453 0.0
Co627 Co 0.67973 0.74631 0.38267 0.0
C628 C 0.72092 0.77062 0.36634 0.0
C629 C 0.69032 0.78765 0.35657 0.0
C630 C 0.70837 0.79816 0.34604 0.0
N631 N 0.69817 0.77063 0.36979 0.0
N632 N 0.72766 0.78733 0.35209 0.0
H633 H 0.73223 0.7578 0.37273 0.0
H634 H 0.67255 0.7912 0.35348 0.0
C635 C 0.65741 0.78944 0.39866 0.0
O636 O 0.67768 0.79712 0.40402 0.0
N637 N 0.66154 0.7214 0.39449 0.0
C638 C 0.66897 0.7056 0.40938 0.0
C639 C 0.65438 0.68742 0.40913 0.0
C640 C 0.64241 0.71242 0.38532 0.0
N641 N 0.63777 0.69164 0.39398 0.0
C642 C 0.71748 0.74151 0.41402 0.0
C643 C 0.6947 0.75529 0.4527 0.0
C644 C 0.71774 0.74938 0.45457 0.0
C645 C 0.72909 0.74234 0.43482 0.0
C646 C 0.68384 0.7546 0.43148 0.0
N647 N 0.69541 0.7486 0.41218 0.0
H648 H 0.72604 0.7341 0.39964 0.0
H649 H 0.66587 0.75816 0.43085 0.0
H650 H 0.68495 0.70616 0.41838 0.0
H651 H 0.63334 0.71986 0.37115 0.0
O652 O 0.69895 0.72415 0.367 0.0
O653 O 0.66828 0.74052 0.35264 0.0
O654 O 0.65515 0.76893 0.39168 0.0
C655 C 0.68524 0.7267 0.34974 0.0
H656 H 0.70714 0.81165 0.33361 0.0
H657 H 0.6567 0.67154 0.41813 0.0
H658 H 0.68505 0.76027 0.46758 0.0
H659 H 0.74657 0.7366 0.43561 0.0
Co660 Co 0.49639 0.57961 0.38775 0.0
C661 C 0.52073 0.53873 0.40492 0.0
C662 C 0.53793 0.56946 0.41383 0.0
C663 C 0.54885 0.55155 0.42422 0.0
N664 N 0.52058 0.5614 0.40119 0.0
N665 N 0.53792 0.53219 0.41867 0.0
H666 H 0.50776 0.52732 0.39906 0.0
H667 H 0.54159 0.58726 0.41652 0.0
C668 C 0.53914 0.60282 0.37195 0.0
O669 O 0.54742 0.58289 0.36614 0.0
N670 N 0.47221 0.59784 0.37534 0.0
C671 C 0.453 0.59009 0.3656 0.0
C672 C 0.43831 0.6081 0.36272 0.0
C673 C 0.4691 0.62038 0.37817 0.0
N674 N 0.44848 0.62706 0.37063 0.0
C675 C 0.49358 0.54194 0.35641 0.0
C676 C 0.50692 0.56526 0.31803 0.0
C677 C 0.50309 0.5417 0.31619 0.0
C678 C 0.49601 0.5302 0.33587 0.0
C679 C 0.50483 0.5762 0.33911 0.0
N680 N 0.49944 0.5643 0.3583 0.0
H681 H 0.48636 0.53303 0.37062 0.0
H682 H 0.50713 0.59439 0.33982 0.0
H683 H 0.44954 0.57242 0.36187 0.0
H684 H 0.48104 0.63138 0.38682 0.0
O685 O 0.47404 0.55997 0.40223 0.0
O686 O 0.48912 0.59086 0.4176 0.0
O687 O 0.51884 0.60434 0.37954 0.0
C688 C 0.47529 0.57376 0.41953 0.0
H689 H 0.56279 0.5529 0.43614 0.0
H690 H 0.42123 0.60727 0.35592 0.0
H691 H 0.51112 0.57539 0.30328 0.0
H692 H 0.49233 0.5122 0.33566 0.0
Co693 Co 0.18438 0.7614 0.64078 0.0
C694 C 0.22353 0.73674 0.66149 0.0
C695 C 0.19638 0.71408 0.65263 0.0
C696 C 0.21332 0.70171 0.66286 0.0
N697 N 0.20264 0.73613 0.65184 0.0
N698 N 0.23033 0.71593 0.66858 0.0
H699 H 0.23323 0.75214 0.66399 0.0
H700 H 0.18049 0.70719 0.64661 0.0
C701 C 0.14516 0.73763 0.61582 0.0
O702 O 0.14434 0.75246 0.59916 0.0
N703 N 0.16593 0.78678 0.63015 0.0
C704 C 0.17354 0.80646 0.62116 0.0
C705 C 0.15599 0.82184 0.62029 0.0
C706 C 0.14371 0.79069 0.63486 0.0
N707 N 0.13728 0.81198 0.62894 0.0
C708 C 0.21785 0.77536 0.60832 0.0
C709 C 0.21169 0.74091 0.57704 0.0
C710 C 0.22835 0.75746 0.57259 0.0
C711 C 0.23113 0.77488 0.58867 0.0
C712 C 0.1984 0.74227 0.59688 0.0
N713 N 0.20103 0.75981 0.61194 0.0
H714 H 0.2214 0.7883 0.62079 0.0
H715 H 0.18669 0.72865 0.60034 0.0
H716 H 0.19085 0.81024 0.6167 0.0
H717 H 0.13282 0.77869 0.64354 0.0
O718 O 0.2034 0.7828 0.65738 0.0
O719 O 0.17267 0.76602 0.671 0.0
O720 O 0.16026 0.73912 0.6313 0.0
C721 C 0.18952 0.77984 0.67436 0.0
H722 H 0.21302 0.68358 0.66596 0.0
H723 H 0.15703 0.83918 0.61425 0.0
H724 H 0.20934 0.72661 0.5657 0.0
H725 H 0.24358 0.7882 0.58628 0.0
Co726 Co 0.01878 0.58449 0.62854 0.0
C727 C 0.99867 0.54321 0.60798 0.0
C728 C 0.97614 0.57174 0.60541 0.0
C729 C 0.96647 0.55355 0.59436 0.0
N730 N 0.99629 0.56523 0.61411 0.0
N731 N 0.98066 0.53555 0.59594 0.0
H732 H 0.01358 0.5332 0.61169 0.0
H733 H 0.96923 0.58873 0.60612 0.0
C734 C 0.98958 0.62557 0.62824 0.0
O735 O 1.00333 0.63329 0.61249 0.0
N736 N 0.04168 0.60376 0.64274 0.0
C737 C 0.05449 0.5984 0.66097 0.0
C738 C 0.07026 0.61522 0.66444 0.0
C739 C 0.05036 0.62369 0.63509 0.0
N740 N 0.0677 0.63122 0.64822 0.0
C741 C 0.02465 0.54599 0.65818 0.0
C742 C 1.00214 0.56321 0.69568 0.0
C743 C 0.0113 0.54118 0.69701 0.0
C744 C 0.02276 0.53274 0.67785 0.0
C745 C 1.00424 0.57591 0.67554 0.0
N746 N 0.01519 0.56718 0.65692 0.0
H747 H 0.03413 0.5392 0.64404 0.0
H748 H 0.99736 0.5929 0.67532 0.0
H749 H 0.05325 0.58293 0.67074 0.0
H750 H 0.0446 0.63222 0.61991 0.0
O751 O 0.04294 0.56697 0.61401 0.0
O752 O 0.02616 0.59696 0.599 0.0
O753 O 0.99361 0.60631 0.63754 0.0
C754 C 0.04094 0.58071 0.59683 0.0
H755 H 0.95062 0.55398 0.58505 0.0
H756 H 0.08323 0.61512 0.67748 0.0
H757 H 0.99321 0.57056 0.71001 0.0
H758 H 0.03067 0.51611 0.67814 0.0
Co759 Co 1.00527 0.93734 0.6276 0.0
C760 C 0.02699 0.9803 0.61225 0.0
C761 C 0.05085 0.95276 0.61396 0.0
C762 C 0.06189 0.97166 0.6059 0.0
N763 N 0.02898 0.95814 0.61802 0.0
N764 N 0.04688 0.98901 0.60456 0.0
H765 H 0.01111 0.98955 0.61285 0.0
H766 H 0.05831 0.93612 0.61606 0.0
C767 C 0.03105 0.8949 0.63133 0.0
O768 O 0.01556 0.88667 0.61752 0.0
N769 N 0.98178 0.91616 0.63734 0.0
C770 C 0.98154 0.90534 0.65755 0.0
C771 C 0.96468 0.88914 0.65732 0.0
C772 C 0.96482 0.90644 0.62515 0.0
N773 N 0.95423 0.88985 0.63695 0.0
C774 C 0.98425 0.96271 0.66324 0.0
C775 C 0.02248 0.96753 0.69023 0.0
C776 C 1.00234 0.97861 0.69673 0.0
C777 C 0.98302 0.97586 0.68302 0.0
C778 C 0.02306 0.95469 0.67015 0.0
N779 N 1.0041 0.95251 0.65693 0.0
H780 H 0.9693 0.96095 0.65271 0.0
H781 H 0.03894 0.94707 0.66491 0.0
H782 H 0.9935 0.90835 0.67119 0.0
H783 H 0.96093 0.91043 0.60765 0.0
O784 O 0.98296 0.95545 0.61147 0.0
O785 O 1.00269 0.92702 0.59652 0.0
O786 O 0.0292 0.91533 0.63851 0.0
C787 C 0.98797 0.94332 0.59365 0.0
H788 H 0.07963 0.97232 0.60113 0.0
H789 H 0.96067 0.87744 0.67093 0.0
H790 H 0.03786 0.96938 0.70017 0.0
H791 H 0.96705 0.98387 0.6875 0.0
Co792 Co 0.6405 0.83418 0.74886 0.0
C793 C 0.66524 0.79454 0.7688 0.0
C794 C 0.64312 0.8108 0.7928 0.0
C795 C 0.65272 0.79213 0.80304 0.0
N796 N 0.65112 0.81251 0.77138 0.0
N797 N 0.66653 0.7819 0.78789 0.0
H798 H 0.67397 0.79032 0.75319 0.0
H799 H 0.63021 0.82161 0.80015 0.0
C800 C 0.62739 0.87625 0.7779 0.0
O801 O 0.61772 0.88716 0.76103 0.0
N802 N 0.62986 0.85545 0.72604 0.0
C803 C 0.61436 0.85075 0.70979 0.0
C804 C 0.61327 0.86869 0.69487 0.0
C805 C 0.63863 0.8759 0.72024 0.0
N806 N 0.62852 0.88436 0.70147 0.0
C807 C 0.60821 0.7982 0.74847 0.0
C808 C 0.56989 0.82344 0.75843 0.0
C809 C 0.56757 0.79976 0.75561 0.0
C810 C 0.5873 0.78721 0.75067 0.0
C811 C 0.59133 0.83371 0.75661 0.0
N812 N 0.61017 0.82107 0.75172 0.0
H813 H 0.62307 0.78818 0.7444 0.0
H814 H 0.5926 0.85186 0.7586 0.0
H815 H 0.6048 0.83511 0.70855 0.0
H816 H 0.652 0.88443 0.72958 0.0
O817 O 0.65203 0.81543 0.72427 0.0
O818 O 0.67162 0.84233 0.74185 0.0
O819 O 0.63541 0.85619 0.7751 0.0
C820 C 0.67103 0.82661 0.72624 0.0
H821 H 0.64893 0.78592 0.81994 0.0
H822 H 0.60207 0.87024 0.68034 0.0
H823 H 0.55526 0.83412 0.7617 0.0
H824 H 0.58684 0.76893 0.74879 0.0
Co825 Co 0.08761 0.13251 0.51604 0.0
C826 C 0.04494 0.11649 0.49426 0.0
C827 C 0.07481 0.10685 0.47559 0.0
C828 C 0.05615 0.09792 0.46482 0.0
N829 N 0.06779 0.11852 0.49397 0.0
N830 N 0.0373 0.10394 0.4765 0.0
H831 H 0.0343 0.12376 0.50739 0.0
H832 H 0.09237 0.10433 0.47078 0.0
C833 C 0.1291 0.13519 0.48867 0.0
O834 O 0.13874 0.12364 0.50516 0.0
N835 N 0.10827 0.1466 0.53776 0.0
C836 C 0.11594 0.16815 0.53637 0.0
C837 C 0.13355 0.171 0.55147 0.0
C838 C 0.1215 0.13662 0.55379 0.0
N839 N 0.13713 0.15114 0.56231 0.0
C840 C 0.06028 0.1697 0.53207 0.0
C841 C 0.05746 0.19237 0.49096 0.0
C842 C 0.04718 0.20212 0.51016 0.0
C843 C 0.04839 0.19032 0.53086 0.0
C844 C 0.06888 0.17159 0.49282 0.0
N845 N 0.07065 0.16081 0.5133 0.0
H846 H 0.06156 0.161 0.5482 0.0
H847 H 0.07629 0.1642 0.47772 0.0
H848 H 0.11007 0.18065 0.52424 0.0
H849 H 0.1209 0.11877 0.55806 0.0
O850 O 0.07055 0.11812 0.54036 0.0
O851 O 0.10002 0.10287 0.52252 0.0
O852 O 0.10847 0.14154 0.49062 0.0
C853 C 0.08396 0.1007 0.53757 0.0
H854 H 0.05665 0.08696 0.45005 0.0
H855 H 0.14349 0.18631 0.55372 0.0
H856 H 0.05655 0.20068 0.47456 0.0
H857 H 0.04075 0.19727 0.54611 0.0
Co858 Co 0.38066 0.68978 0.75119 0.0
C859 C 0.35612 0.72941 0.7717 0.0
C860 C 0.37647 0.71161 0.79613 0.0
C861 C 0.36605 0.72961 0.80687 0.0
N862 N 0.3701 0.71129 0.77409 0.0
N863 N 0.35333 0.7408 0.79146 0.0
H864 H 0.34826 0.73443 0.75588 0.0
H865 H 0.38836 0.69995 0.80389 0.0
C866 C 0.39448 0.64783 0.77987 0.0
O867 O 0.40592 0.63779 0.76354 0.0
N868 N 0.39091 0.66841 0.72819 0.0
C869 C 0.40494 0.67331 0.71075 0.0
C870 C 0.40501 0.65534 0.69572 0.0
C871 C 0.38219 0.64771 0.72322 0.0
N872 N 0.39079 0.63925 0.70364 0.0
C873 C 0.41297 0.72573 0.75095 0.0
C874 C 0.45179 0.70001 0.75707 0.0
C875 C 0.45395 0.7236 0.75417 0.0
C876 C 0.43413 0.73649 0.75135 0.0
C877 C 0.43018 0.68994 0.757 0.0
N878 N 0.41109 0.70277 0.75381 0.0
H879 H 0.39798 0.7359 0.74792 0.0
H880 H 0.429 0.67181 0.7587 0.0
H881 H 0.41386 0.68923 0.70863 0.0
H882 H 0.36938 0.6393 0.73339 0.0
O883 O 0.3692 0.70885 0.72693 0.0
O884 O 0.34956 0.68182 0.74429 0.0
O885 O 0.38552 0.66742 0.77691 0.0
C886 C 0.3502 0.69767 0.72886 0.0
H887 H 0.36828 0.73454 0.82446 0.0
H888 H 0.41468 0.65421 0.6801 0.0
H889 H 0.46669 0.6894 0.75923 0.0
H890 H 0.435 0.75468 0.74867 0.0
Co891 Co 0.9372 0.38934 0.51281 0.0
C892 C 0.97789 0.40333 0.48643 0.0
C893 C 0.947 0.41431 0.47074 0.0
C894 C 0.96497 0.42406 0.45938 0.0
N895 N 0.95506 0.40096 0.48753 0.0
N896 N 0.98447 0.41727 0.46938 0.0
H897 H 0.98941 0.3964 0.49877 0.0
H898 H 0.92922 0.41813 0.468 0.0
C899 C 0.91185 0.37349 0.47111 0.0
O900 O 0.93105 0.36702 0.46169 0.0
N901 N 0.91943 0.37873 0.53818 0.0
C902 C 0.92768 0.36994 0.55764 0.0
C903 C 0.91026 0.36859 0.57322 0.0
C904 C 0.89715 0.38256 0.54205 0.0
N905 N 0.89115 0.37656 0.56338 0.0
C906 C 0.97358 0.35686 0.518 0.0
C907 C 0.94891 0.31868 0.50635 0.0
C908 C 0.97187 0.31607 0.51224 0.0
C909 C 0.98418 0.33556 0.5182 0.0
C910 C 0.93904 0.34037 0.50608 0.0
N911 N 0.95157 0.35933 0.511 0.0
H912 H 0.9829 0.37119 0.52451 0.0
H913 H 0.92108 0.34167 0.50267 0.0
H914 H 0.94535 0.36582 0.56064 0.0
H915 H 0.8859 0.39077 0.53002 0.0
O916 O 0.9577 0.40455 0.53391 0.0
O917 O 0.92673 0.41971 0.51871 0.0
O918 O 0.91164 0.38087 0.49155 0.0
C919 C 0.94408 0.42196 0.53216 0.0
H920 H 0.96359 0.43655 0.44597 0.0
H921 H 0.9116 0.36264 0.59058 0.0
H922 H 0.93856 0.30405 0.50216 0.0
H923 H 1.00165 0.33426 0.52387 0.0
Co924 Co 0.6415 0.18707 0.76654 0.0
C925 C 0.65893 0.22908 0.74481 0.0
C926 C 0.66027 0.20037 0.72233 0.0
C927 C 0.66966 0.2187 0.71145 0.0
N928 N 0.65345 0.20686 0.7432 0.0
N929 N 0.66908 0.23674 0.72563 0.0
H930 H 0.65649 0.23909 0.76006 0.0
H931 H 0.65929 0.18332 0.71561 0.0
C932 C 0.63895 0.14472 0.74028 0.0
O933 O 0.65167 0.13591 0.75638 0.0
N934 N 0.62947 0.16662 0.78956 0.0
C935 C 0.60909 0.15622 0.78848 0.0
C936 C 0.60784 0.14013 0.80542 0.0
C937 C 0.64031 0.15674 0.8073 0.0
N938 N 0.62749 0.14047 0.81718 0.0
C939 C 0.60352 0.21268 0.78397 0.0
C940 C 0.57995 0.21523 0.74334 0.0
C941 C 0.5702 0.22503 0.76281 0.0
C942 C 0.58245 0.22389 0.78329 0.0
C943 C 0.60108 0.20438 0.7447 0.0
N944 N 0.61239 0.20283 0.76491 0.0
H945 H 0.61265 0.2116 0.79989 0.0
H946 H 0.60835 0.19727 0.7294 0.0
H947 H 0.59638 0.15936 0.77556 0.0
H948 H 0.65763 0.1603 0.81224 0.0
O949 O 0.65666 0.20526 0.78963 0.0
O950 O 0.67195 0.17591 0.77165 0.0
O951 O 0.63176 0.1651 0.74225 0.0
C952 C 0.67441 0.19245 0.78615 0.0
H953 H 0.67673 0.21851 0.69447 0.0
H954 H 0.59378 0.1287 0.80853 0.0
H955 H 0.5714 0.21608 0.72706 0.0
H956 H 0.57558 0.23113 0.79877 0.0
Co957 Co 0.44081 0.12692 0.50264 0.0
C958 C 0.47767 0.10399 0.52894 0.0
C959 C 0.4553 0.12302 0.55053 0.0
C960 C 0.47187 0.11326 0.56381 0.0
N961 N 0.4587 0.11701 0.52864 0.0
N962 N 0.48593 0.10137 0.55019 0.0
H963 H 0.48547 0.09662 0.51401 0.0
H964 H 0.44212 0.13426 0.55655 0.0
C965 C 0.39876 0.12245 0.5297 0.0
O966 O 0.39636 0.10275 0.51952 0.0
N967 N 0.42318 0.13695 0.4767 0.0
C968 C 0.43198 0.144 0.45674 0.0
C969 C 0.41462 0.1465 0.44123 0.0
C970 C 0.40052 0.13555 0.47316 0.0
N971 N 0.39496 0.1412 0.45164 0.0
C972 C 0.47725 0.15863 0.50185 0.0
C973 C 0.45201 0.19767 0.50917 0.0
C974 C 0.47545 0.19961 0.50513 0.0
C975 C 0.48807 0.17974 0.50158 0.0
C976 C 0.44169 0.17612 0.50885 0.0
N977 N 0.45436 0.15698 0.50517 0.0
H978 H 0.48728 0.14351 0.49897 0.0
H979 H 0.42349 0.17492 0.51101 0.0
H980 H 0.4499 0.14649 0.45349 0.0
H981 H 0.38835 0.12979 0.48559 0.0
O982 O 0.46254 0.11317 0.48183 0.0
O983 O 0.43262 0.0956 0.49594 0.0
O984 O 0.41531 0.13546 0.52423 0.0
C985 C 0.4504 0.09478 0.48287 0.0
H986 H 0.47386 0.11533 0.58199 0.0
H987 H 0.41626 0.15171 0.42366 0.0
H988 H 0.44168 0.2127 0.51172 0.0
H989 H 0.50619 0.18054 0.49843 0.0
Co990 Co 0.38024 0.33118 0.7619 0.0
C991 C 0.36508 0.28945 0.73757 0.0
C992 C 0.36228 0.3189 0.71654 0.0
C993 C 0.35322 0.3007 0.70503 0.0
N994 N 0.37052 0.3118 0.73674 0.0
N995 N 0.35485 0.2821 0.71832 0.0
H996 H 0.36655 0.27922 0.75269 0.0
H997 H 0.36132 0.33636 0.71101 0.0
C998 C 0.40088 0.35475 0.72129 0.0
O999 O 0.41065 0.33552 0.71544 0.0
N1000 N 0.38887 0.35039 0.7871 0.0
C1001 C 0.39706 0.34301 0.80717 0.0
C1002 C 0.3975 0.36096 0.82217 0.0
C1003 C 0.38446 0.37274 0.79008 0.0
N1004 N 0.38955 0.37958 0.81144 0.0
C1005 C 0.41312 0.29488 0.76666 0.0
C1006 C 0.45153 0.3215 0.76235 0.0
C1007 C 0.45428 0.29799 0.76552 0.0
C1008 C 0.43462 0.28473 0.76786 0.0
C1009 C 0.42966 0.33095 0.76111 0.0
N1010 N 0.4107 0.31756 0.76238 0.0
H1011 H 0.3985 0.28451 0.77003 0.0
H1012 H 0.42799 0.34915 0.75938 0.0
H1013 H 0.40156 0.32557 0.81087 0.0
H1014 H 0.37666 0.38345 0.77731 0.0
O1015 O 0.36458 0.31123 0.7832 0.0
O1016 O 0.34919 0.34069 0.76555 0.0
O1017 O 0.38947 0.35595 0.73978 0.0
C1018 C 0.34671 0.32386 0.77962 0.0
H1019 H 0.34516 0.30151 0.68853 0.0
H1020 H 0.40295 0.36033 0.83974 0.0
H1021 H 0.46614 0.33255 0.76078 0.0
H1022 H 0.43581 0.26668 0.77131 0.0
Co1023 Co 0.58107 0.38867 0.50394 0.0
C1024 C 0.53804 0.40449 0.52553 0.0
C1025 C 0.56784 0.41866 0.54108 0.0
C1026 C 0.54905 0.42778 0.55148 0.0
N1027 N 0.561 0.40392 0.525 0.0
N1028 N 0.53025 0.41891 0.54176 0.0
H1029 H 0.52734 0.39498 0.51399 0.0
H1030 H 0.58531 0.42334 0.54424 0.0
C1031 C 0.61886 0.36985 0.53469 0.0
O1032 O 0.62453 0.35347 0.52061 0.0
N1033 N 0.6017 0.37404 0.48246 0.0
C1034 C 0.59608 0.35975 0.46538 0.0
C1035 C 0.61429 0.35747 0.45091 0.0
C1036 C 0.6234 0.38033 0.4779 0.0
N1037 N 0.63142 0.37041 0.45875 0.0
C1038 C 0.548 0.35447 0.49276 0.0
C1039 C 0.55365 0.32736 0.53063 0.0
C1040 C 0.53822 0.32043 0.5138 0.0
C1041 C 0.53534 0.33447 0.49481 0.0
C1042 C 0.56626 0.34741 0.52776 0.0
N1043 N 0.564 0.36035 0.50857 0.0
H1044 H 0.54506 0.3651 0.47813 0.0
H1045 H 0.57744 0.35247 0.54132 0.0
H1046 H 0.57959 0.35243 0.4625 0.0
H1047 H 0.63265 0.39293 0.48761 0.0
O1048 O 0.56408 0.40165 0.47876 0.0
O1049 O 0.59366 0.41771 0.49557 0.0
O1050 O 0.60221 0.38304 0.53026 0.0
C1051 C 0.5778 0.41894 0.48028 0.0
H1052 H 0.54927 0.44086 0.56443 0.0
H1053 H 0.61468 0.34763 0.43534 0.0
H1054 H 0.55616 0.31726 0.54581 0.0
H1055 H 0.52314 0.3302 0.4817 0.0
Co1056 Co 0.75386 0.63917 0.83178 0.0
C1057 C 0.77809 0.65716 0.79152 0.0
C1058 C 0.79438 0.66682 0.82254 0.0
C1059 C 0.80438 0.67851 0.80492 0.0
N1060 N 0.77809 0.65307 0.81413 0.0
N1061 N 0.79395 0.67256 0.78539 0.0
H1062 H 0.7657 0.65042 0.77993 0.0
H1063 H 0.79755 0.6696 0.84044 0.0
C1064 C 0.79676 0.62435 0.85581 0.0
O1065 O 0.80641 0.61952 0.83625 0.0
N1066 N 0.72945 0.62632 0.84938 0.0
C1067 C 0.71037 0.6168 0.84108 0.0
C1068 C 0.69505 0.61427 0.85861 0.0
C1069 C 0.72563 0.62939 0.87179 0.0
N1070 N 0.7047 0.62222 0.87783 0.0
C1071 C 0.74954 0.6092 0.79358 0.0
C1072 C 0.76589 0.57029 0.8141 0.0
C1073 C 0.76006 0.56955 0.79098 0.0
C1074 C 0.75146 0.58927 0.78089 0.0
C1075 C 0.76404 0.59083 0.82615 0.0
N1076 N 0.757 0.6103 0.81554 0.0
H1077 H 0.74145 0.62361 0.78574 0.0
H1078 H 0.76788 0.59084 0.84407 0.0
H1079 H 0.70733 0.61313 0.82332 0.0
H1080 H 0.73728 0.63806 0.88309 0.0
O1081 O 0.73179 0.65414 0.81239 0.0
O1082 O 0.74656 0.66872 0.84385 0.0
O1083 O 0.77592 0.63045 0.85653 0.0
C1084 C 0.73306 0.67112 0.82655 0.0
H1085 H 0.81707 0.69169 0.80666 0.0
H1086 H 0.67792 0.60771 0.85726 0.0
H1087 H 0.77196 0.55521 0.82274 0.0
H1088 H 0.74572 0.58917 0.76338 0.0
Co1089 Co 0.89259 0.02208 0.43184 0.0
C1090 C 0.91272 1.00157 0.47356 0.0
C1091 C 0.91675 0.98041 0.44408 0.0
C1092 C 0.92683 0.96981 0.46221 0.0
N1093 N 0.90777 1.00023 0.45116 0.0
N1094 N 0.92454 0.98313 0.4808 0.0
H1095 H 0.90825 0.01599 0.48408 0.0
H1096 H 0.91637 0.97411 0.42683 0.0
C1097 C 0.88941 0.99408 0.3906 0.0
O1098 O 0.90131 0.00998 0.38045 0.0
N1099 N 0.87733 0.04342 0.41157 0.0
C1100 C 0.85525 0.0423 0.40549 0.0
C1101 C 0.85148 0.05668 0.38748 0.0
C1102 C 0.88671 0.05844 0.39684 0.0
N1103 N 0.8713 0.06669 0.38188 0.0
C1104 C 0.85568 0.03701 0.46001 0.0
C1105 C 0.83493 0.99503 0.46412 0.0
C1106 C 0.82456 0.01402 0.47421 0.0
C1107 C 0.83541 0.03517 0.47235 0.0
C1108 C 0.85523 0.99757 0.45207 0.0
N1109 N 0.86501 0.01846 0.44963 0.0
H1110 H 0.86364 0.05347 0.45823 0.0
H1111 H 0.86306 0.98268 0.44469 0.0
H1112 H 0.8429 0.03077 0.41268 0.0
H1113 H 0.90469 0.0621 0.39592 0.0
O1114 O 0.90647 0.04661 0.44871 0.0
O1115 O 0.92176 0.02959 0.41872 0.0
O1116 O 0.88329 0.99668 0.41121 0.0
C1117 C 0.92363 0.0446 0.43492 0.0
H1118 H 0.93521 0.95346 0.46155 0.0
H1119 H 0.83548 0.05895 0.3787 0.0
H1120 H 0.82743 0.97829 0.46556 0.0
H1121 H 0.82799 0.0503 0.47979 0.0
Co1122 Co 0.2605 0.88027 0.8357 0.0
C1123 C 0.23833 0.86205 0.79384 0.0
C1124 C 0.21891 0.85541 0.82384 0.0
C1125 C 0.20857 0.84481 0.80581 0.0
N1126 N 0.23726 0.86685 0.81633 0.0
N1127 N 0.22087 0.84878 0.78685 0.0
H1128 H 0.2525 0.86656 0.78318 0.0
H1129 H 0.21399 0.85376 0.84146 0.0
C1130 C 0.21653 0.89775 0.85554 0.0
O1131 O 0.20998 0.90362 0.83501 0.0
N1132 N 0.28383 0.89258 0.85539 0.0
C1133 C 0.30092 0.90661 0.84957 0.0
C1134 C 0.31614 0.9077 0.86736 0.0
C1135 C 0.28892 0.88525 0.87655 0.0
N1136 N 0.30871 0.89408 0.88428 0.0
C1137 C 0.26818 0.90931 0.79749 0.0
C1138 C 0.25079 0.94915 0.81515 0.0
C1139 C 0.25863 0.94916 0.7925 0.0
C1140 C 0.26806 0.92889 0.78417 0.0
C1141 C 0.25179 0.92912 0.82821 0.0
N1142 N 0.25918 0.90911 0.81888 0.0
H1143 H 0.27618 0.89441 0.79054 0.0
H1144 H 0.24671 0.92988 0.84582 0.0
H1145 H 0.30287 0.91463 0.83316 0.0
H1146 H 0.27905 0.87256 0.88546 0.0
O1147 O 0.2837 0.86522 0.81792 0.0
O1148 O 0.26653 0.85018 0.84779 0.0
O1149 O 0.2365 0.88963 0.85868 0.0
C1150 C 0.28123 0.84795 0.8314 0.0
H1151 H 0.19357 0.83429 0.80699 0.0
H1152 H 0.33179 0.91734 0.86746 0.0
H1153 H 0.2438 0.96435 0.8228 0.0
H1154 H 0.27578 0.92803 0.7675 0.0
Co1155 Co 0.12948 0.50241 0.42986 0.0
C1156 C 0.11239 0.52374 0.47341 0.0
C1157 C 0.09995 0.54012 0.4434 0.0
C1158 C 0.09005 0.55025 0.46198 0.0
N1159 N 0.11439 0.52374 0.45044 0.0
N1160 N 0.09783 0.53996 0.48092 0.0
H1161 H 0.12071 0.51184 0.48452 0.0
H1162 H 0.09628 0.54394 0.42579 0.0
C1163 C 0.14435 0.54867 0.4156 0.0
O1164 O 0.14873 0.55238 0.43721 0.0
N1165 N 0.14342 0.48077 0.40883 0.0
C1166 C 0.16149 0.46712 0.41275 0.0
C1167 C 0.16432 0.45266 0.39456 0.0
C1168 C 0.13517 0.47384 0.38842 0.0
N1169 N 0.14773 0.45681 0.37941 0.0
C1170 C 0.15851 0.4929 0.46794 0.0
C1171 C 0.19823 0.51119 0.45099 0.0
C1172 C 0.19878 0.50069 0.47245 0.0
C1173 C 0.1784 0.49163 0.48082 0.0
C1174 C 0.17778 0.51225 0.43864 0.0
N1175 N 0.15796 0.50375 0.44743 0.0
H1176 H 0.14364 0.48436 0.47434 0.0
H1177 H 0.17825 0.51899 0.4216 0.0
H1178 H 0.17144 0.46672 0.42816 0.0
H1179 H 0.11996 0.4806 0.38061 0.0
O1180 O 0.11483 0.47746 0.44552 0.0
O1181 O 0.10006 0.49625 0.41647 0.0
O1182 O 0.1383 0.52874 0.40919 0.0
C1183 C 0.09782 0.48042 0.43172 0.0
H1184 H 0.07724 0.56346 0.46146 0.0
H1185 H 0.17688 0.43926 0.39311 0.0
H1186 H 0.21363 0.51776 0.44337 0.0
H1187 H 0.17775 0.48326 0.4972 0.0
Co1188 Co 0.75628 0.38081 0.68478 0.0
C1189 C 0.77701 0.36581 0.72818 0.0
C1190 C 0.80143 0.36684 0.7011 0.0
C1191 C 0.81206 0.35922 0.72042 0.0
N1192 N 0.77947 0.37104 0.70596 0.0
N1193 N 0.79669 0.35831 0.73748 0.0
H1194 H 0.76095 0.36675 0.73706 0.0
H1195 H 0.80922 0.36863 0.68459 0.0
C1196 C 0.78283 0.38376 0.64301 0.0
O1197 O 0.76754 0.36979 0.63473 0.0
N1198 N 0.73311 0.39064 0.66317 0.0
C1199 C 0.72873 0.41219 0.65662 0.0
C1200 C 0.71271 0.41188 0.63954 0.0
C1201 C 0.71991 0.37754 0.64958 0.0
N1202 N 0.70735 0.39008 0.63506 0.0
C1203 C 0.73595 0.41616 0.71125 0.0
C1204 C 0.77443 0.44289 0.71521 0.0
C1205 C 0.75472 0.44929 0.72706 0.0
C1206 C 0.73525 0.43571 0.72477 0.0
C1207 C 0.77447 0.4231 0.70198 0.0
N1208 N 0.75538 0.41004 0.70015 0.0
H1209 H 0.72092 0.40571 0.70987 0.0
H1210 H 0.79011 0.41792 0.69388 0.0
H1211 H 0.73719 0.42715 0.66311 0.0
H1212 H 0.71985 0.35917 0.64969 0.0
O1213 O 0.73346 0.365 0.70242 0.0
O1214 O 0.7536 0.34977 0.67444 0.0
O1215 O 0.78055 0.39143 0.66319 0.0
C1216 C 0.73832 0.34719 0.69023 0.0
H1217 H 0.82978 0.3545 0.72154 0.0
H1218 H 0.70628 0.42649 0.63038 0.0
H1219 H 0.78994 0.45266 0.71676 0.0
H1220 H 0.71959 0.44012 0.7334 0.0
Co1221 Co 0.63631 0.02028 0.58002 0.0
C1222 C 0.61306 0.99793 0.54094 0.0
C1223 C 0.6322 0.974 0.56063 0.0
C1224 C 0.62232 0.96267 0.54265 0.0
N1225 N 0.62625 0.99613 0.5597 0.0
N1226 N 0.61036 0.97779 0.53026 0.0
H1227 H 0.60564 0.01362 0.53497 0.0
H1228 H 0.64343 0.96658 0.57311 0.0
C1229 C 0.63014 0.99016 0.61957 0.0
O1230 O 0.61012 0.99978 0.62176 0.0
N1231 N 0.64631 0.04442 0.60003 0.0
C1232 C 0.65674 0.06363 0.59322 0.0
C1233 C 0.65801 0.07839 0.61136 0.0
C1234 C 0.64145 0.04768 0.62225 0.0
N1235 N 0.64841 0.0683 0.62953 0.0
C1236 C 0.66941 0.02039 0.54469 0.0
C1237 C 0.7072 0.01462 0.57209 0.0
C1238 C 0.7103 0.01722 0.54855 0.0
C1239 C 0.69099 0.02 0.53483 0.0
C1240 C 0.68523 0.01492 0.58128 0.0
N1241 N 0.66673 0.01783 0.56757 0.0
H1242 H 0.65476 0.02308 0.53396 0.0
H1243 H 0.6831 0.01333 0.59946 0.0
H1244 H 0.66226 0.067 0.57601 0.0
H1245 H 0.63207 0.03585 0.63265 0.0
O1246 O 0.62421 0.04311 0.55961 0.0
O1247 O 0.60501 0.02715 0.58767 0.0
O1248 O 0.64361 0.99667 0.60384 0.0
C1249 C 0.60531 0.04156 0.57094 0.0
H1250 H 0.62435 0.94482 0.53863 0.0
H1251 H 0.66513 0.09535 0.61116 0.0
H1252 H 0.72161 0.01237 0.58332 0.0
H1253 H 0.69254 0.02248 0.51666 0.0
Co1254 Co 0.26652 0.13729 0.68163 0.0
C1255 C 0.24197 0.15442 0.72253 0.0
C1256 C 0.2268 0.16558 0.6914 0.0
C1257 C 0.21597 0.17626 0.70915 0.0
N1258 N 0.24292 0.1516 0.69976 0.0
N1259 N 0.22558 0.16933 0.7288 0.0
H1260 H 0.25371 0.14671 0.73422 0.0
H1261 H 0.22398 0.16878 0.67352 0.0
C1262 C 0.22232 0.1206 0.66261 0.0
O1263 O 0.21555 0.11643 0.68349 0.0
N1264 N 0.29037 0.12399 0.66336 0.0
C1265 C 0.30989 0.11522 0.67155 0.0
C1266 C 0.32501 0.11261 0.65388 0.0
C1267 C 0.29379 0.12653 0.64077 0.0
N1268 N 0.31486 0.11971 0.63464 0.0
C1269 C 0.27476 0.10908 0.72066 0.0
C1270 C 0.25475 0.06981 0.70474 0.0
C1271 C 0.26324 0.06991 0.72714 0.0
C1272 C 0.27403 0.08987 0.73459 0.0
C1273 C 0.25651 0.08929 0.69107 0.0
N1274 N 0.26501 0.10916 0.69959 0.0
H1275 H 0.28351 0.12391 0.72692 0.0
H1276 H 0.25101 0.08817 0.67363 0.0
H1277 H 0.31343 0.11231 0.68935 0.0
H1278 H 0.28177 0.13459 0.6294 0.0
O1279 O 0.28931 0.15363 0.69902 0.0
O1280 O 0.27251 0.16654 0.66795 0.0
O1281 O 0.24277 0.12702 0.65886 0.0
C1282 C 0.28685 0.17003 0.6844 0.0
H1283 H 0.20303 0.18922 0.70749 0.0
H1284 H 0.34239 0.10666 0.65512 0.0
H1285 H 0.24661 0.05494 0.69764 0.0
H1286 H 0.28225 0.09077 0.75102 0.0
Co1287 Co 0.38452 0.49982 0.58592 0.0
C1288 C 0.40167 0.51906 0.5425 0.0
C1289 C 0.41029 0.53965 0.57141 0.0
C1290 C 0.41986 0.54916 0.55238 0.0
N1291 N 0.39882 0.52088 0.56522 0.0
N1292 N 0.41449 0.53625 0.53414 0.0
H1293 H 0.39486 0.50524 0.53245 0.0
H1294 H 0.41234 0.54554 0.5887 0.0
C1295 C 0.38188 0.52847 0.62688 0.0
O1296 O 0.39235 0.51175 0.63731 0.0
N1297 N 0.37027 0.47887 0.60732 0.0
C1298 C 0.34864 0.48013 0.61477 0.0
C1299 C 0.34574 0.46497 0.63235 0.0
C1300 C 0.38024 0.46293 0.62068 0.0
N1301 N 0.36566 0.45424 0.63619 0.0
C1302 C 0.34727 0.48378 0.55874 0.0
C1303 C 0.32652 0.52554 0.5526 0.0
C1304 C 0.31697 0.50642 0.54187 0.0
C1305 C 0.32771 0.4853 0.5452 0.0
C1306 C 0.34619 0.52332 0.56583 0.0
N1307 N 0.35622 0.50261 0.56889 0.0
H1308 H 0.35541 0.46745 0.56097 0.0
H1309 H 0.35354 0.5384 0.57327 0.0
H1310 H 0.33604 0.492 0.60859 0.0
H1311 H 0.3981 0.45868 0.62013 0.0
O1312 O 0.3983 0.47477 0.56945 0.0
O1313 O 0.41414 0.49306 0.59834 0.0
O1314 O 0.37606 0.52619 0.60609 0.0
C1315 C 0.41585 0.47755 0.58263 0.0
H1316 H 0.43082 0.56391 0.55223 0.0
H1317 H 0.33024 0.46248 0.64193 0.0
H1318 H 0.31888 0.54219 0.55088 0.0
H1319 H 0.32139 0.47006 0.53706 0.0
Co1320 Co 0.83447 0.75611 0.63866 0.0
C1321 C 0.79644 0.78396 0.65817 0.0
C1322 C 0.82782 0.8022 0.65749 0.0
C1323 C 0.81196 0.81521 0.66862 0.0
N1324 N 0.81807 0.78279 0.65013 0.0
N1325 N 0.79217 0.80372 0.66926 0.0
H1326 H 0.78464 0.76992 0.65785 0.0
H1327 H 0.84571 0.8061 0.65665 0.0
C1328 C 0.86094 0.79446 0.6167 0.0
O1329 O 0.84212 0.80296 0.60817 0.0
N1330 N 0.85111 0.7295 0.62857 0.0
C1331 C 0.84212 0.70964 0.62158 0.0
C1332 C 0.8593 0.69373 0.61996 0.0
C1333 C 0.87359 0.72546 0.63109 0.0
N1334 N 0.87905 0.70371 0.62597 0.0
C1335 C 0.79573 0.75685 0.60817 0.0
C1336 C 0.82036 0.75676 0.5682 0.0
C1337 C 0.79648 0.7573 0.56674 0.0
C1338 C 0.78424 0.75726 0.58728 0.0
C1339 C 0.83116 0.75676 0.58947 0.0
N1340 N 0.8189 0.75742 0.60919 0.0
H1341 H 0.78583 0.75559 0.62346 0.0
H1342 H 0.8495 0.75587 0.59005 0.0
H1343 H 0.8242 0.70671 0.61872 0.0
H1344 H 0.8855 0.73785 0.63764 0.0
O1345 O 0.81391 0.73643 0.65541 0.0
O1346 O 0.84591 0.75115 0.66881 0.0
O1347 O 0.86039 0.77583 0.62785 0.0
C1348 C 0.82823 0.7384 0.67224 0.0
H1349 H 0.81521 0.83148 0.67655 0.0
H1350 H 0.85739 0.67611 0.61499 0.0
H1351 H 0.83079 0.7559 0.55307 0.0
H1352 H 0.76586 0.7576 0.58741 0.0
Co1353 Co 0.83596 0.27108 0.88231 0.0
C1354 C 0.7955 0.2507 0.85957 0.0
C1355 C 0.82025 0.22529 0.86779 0.0
C1356 C 0.80195 0.21486 0.85766 0.0
N1357 N 0.81629 0.24784 0.86907 0.0
N1358 N 0.78633 0.23083 0.85248 0.0
H1359 H 0.78724 0.26701 0.85772 0.0
H1360 H 0.83524 0.21669 0.87385 0.0
C1361 C 0.87694 0.24203 0.88103 0.0
O1362 O 0.8837 0.25502 0.86424 0.0
N1363 N 0.85524 0.29471 0.89539 0.0
C1364 C 0.84881 0.3092 0.91195 0.0
C1365 C 0.86533 0.3254 0.91482 0.0
C1366 C 0.87553 0.30287 0.88797 0.0
N1367 N 0.88223 0.32151 0.89979 0.0
C1368 C 0.79726 0.27324 0.91216 0.0
C1369 C 0.81899 0.25763 0.95081 0.0
C1370 C 0.79568 0.26273 0.95212 0.0
C1371 C 0.7849 0.27075 0.93237 0.0
C1372 C 0.83071 0.26029 0.93025 0.0
N1373 N 0.81979 0.26779 0.91116 0.0
H1374 H 0.78866 0.27958 0.89725 0.0
H1375 H 0.84872 0.25677 0.92991 0.0
H1376 H 0.83269 0.30882 0.92073 0.0
H1377 H 0.88484 0.29589 0.87379 0.0
O1378 O 0.81791 0.29489 0.86786 0.0
O1379 O 0.84764 0.27771 0.85256 0.0
O1380 O 0.85834 0.24657 0.89136 0.0
C1381 C 0.83152 0.2926 0.85053 0.0
H1382 H 0.80017 0.19678 0.85478 0.0
H1383 H 0.86437 0.33963 0.92645 0.0
H1384 H 0.82828 0.25196 0.96565 0.0
H1385 H 0.76695 0.27481 0.93238 0.0
Co1386 Co 0.51498 0.93052 0.39313 0.0
C1387 C 0.48675 0.96881 0.41186 0.0
C1388 C 0.47453 0.93596 0.42152 0.0
C1389 C 0.46189 0.95212 0.43268 0.0
N1390 N 0.48985 0.9463 0.40798 0.0
N1391 N 0.4696 0.97284 0.4267 0.0
H1392 H 0.4974 0.98197 0.40498 0.0
H1393 H 0.47345 0.9178 0.42414 0.0
C1394 C 0.47297 0.9058 0.37792 0.0
O1395 O 0.46378 0.92553 0.37289 0.0
N1396 N 0.54048 0.91444 0.37945 0.0
C1397 C 0.55559 0.92341 0.36475 0.0
C1398 C 0.57423 0.90936 0.36344 0.0
C1399 C 0.55027 0.89493 0.38689 0.0
N1400 N 0.57099 0.89154 0.37746 0.0
C1401 C 0.51686 0.96957 0.36393 0.0
C1402 C 0.50382 0.94862 0.32396 0.0
C1403 C 0.51049 0.9715 0.32326 0.0
C1404 C 0.51693 0.98192 0.34366 0.0
C1405 C 0.50434 0.93668 0.34468 0.0
N1406 N 0.51032 0.94729 0.36456 0.0
H1407 H 0.52347 0.97776 0.3789 0.0
H1408 H 0.50102 0.91865 0.34439 0.0
H1409 H 0.55414 0.93991 0.35683 0.0
H1410 H 0.54336 0.88456 0.40042 0.0
O1411 O 0.53623 0.95093 0.40789 0.0
O1412 O 0.52366 0.91868 0.42255 0.0
O1413 O 0.49378 0.90482 0.38428 0.0
C1414 C 0.53631 0.93665 0.42476 0.0
H1415 H 0.44899 0.94876 0.44535 0.0
H1416 H 0.58966 0.91271 0.35399 0.0
H1417 H 0.49942 0.93971 0.30846 0.0
H1418 H 0.52264 0.99942 0.34385 0.0
Co1419 Co 0.18292 0.25108 0.87546 0.0
C1420 C 0.22623 0.2705 0.85793 0.0
C1421 C 0.19934 0.29516 0.85875 0.0
C1422 C 0.21822 0.30506 0.84931 0.0
N1423 N 0.20431 0.27351 0.86424 0.0
N1424 N 0.23512 0.28953 0.84852 0.0
H1425 H 0.23511 0.25444 0.85925 0.0
H1426 H 0.18292 0.30314 0.86068 0.0
C1427 C 0.14188 0.27882 0.87981 0.0
O1428 O 0.13246 0.26317 0.86697 0.0
N1429 N 0.16116 0.22883 0.88679 0.0
C1430 C 0.15025 0.23021 0.90691 0.0
C1431 C 0.13424 0.2132 0.90808 0.0
C1432 C 0.15175 0.21073 0.87609 0.0
N1433 N 0.13523 0.20101 0.8887 0.0
C1434 C 0.20705 0.22969 0.91152 0.0
C1435 C 0.215 0.26829 0.93723 0.0
C1436 C 0.22315 0.24728 0.94518 0.0
C1437 C 0.2191 0.22787 0.93188 0.0
C1438 C 0.20291 0.26936 0.91669 0.0
N1439 N 0.19894 0.25015 0.90428 0.0
H1440 H 0.20409 0.21458 0.90148 0.0
H1441 H 0.19685 0.28565 0.91071 0.0
H1442 H 0.15323 0.2432 0.91959 0.0
H1443 H 0.15606 0.20522 0.85911 0.0
O1444 O 0.19953 0.22759 0.85956 0.0
O1445 O 0.17126 0.24776 0.8449 0.0
O1446 O 0.16245 0.27633 0.88633 0.0
C1447 C 0.18687 0.23232 0.84205 0.0
H1448 H 0.21919 0.32235 0.84315 0.0
H1449 H 0.12259 0.21017 0.92199 0.0
H1450 H 0.21761 0.28371 0.94693 0.0
H1451 H 0.22538 0.21135 0.93703 0.0
Co1452 Co 0.99848 0.08151 0.88819 0.0
C1453 C 0.02419 0.04081 0.90394 0.0
C1454 C 0.03966 0.07191 0.91462 0.0
C1455 C 0.05094 0.05413 0.9248 0.0
N1456 N 0.02309 0.06359 0.90116 0.0
N1457 N 0.04112 0.0345 0.91818 0.0
H1458 H 0.01208 0.02909 0.89691 0.0
H1459 H 0.04241 0.08976 0.91803 0.0
C1460 C 0.04121 0.10525 0.87244 0.0
O1461 O 0.05043 0.08562 0.86702 0.0
N1462 N 0.97386 0.09963 0.87631 0.0
C1463 C 0.95373 0.09187 0.86863 0.0
C1464 C 0.93893 0.10997 0.86679 0.0
C1465 C 0.97116 0.12226 0.8789 0.0
N1466 N 0.94996 0.12898 0.87325 0.0
C1467 C 0.99322 0.04371 0.85775 0.0
C1468 C 0.00923 0.06451 0.81886 0.0
C1469 C 1.00362 0.04135 0.81799 0.0
C1470 C 0.99509 0.03113 0.8377 0.0
C1471 C 1.00743 0.07643 0.83949 0.0
N1472 N 1.00069 0.06565 0.85897 0.0
H1473 H 0.98542 0.03573 0.87225 0.0
H1474 H 0.01123 0.09436 0.83961 0.0
H1475 H 0.94972 0.07415 0.86583 0.0
H1476 H 0.9839 0.13334 0.88619 0.0
O1477 O 0.97661 0.0621 0.90357 0.0
O1478 O 0.99204 0.09322 0.91806 0.0
O1479 O 0.02058 0.10616 0.87919 0.0
C1480 C 0.97825 0.07617 0.92058 0.0
H1481 H 0.06427 0.05573 0.93737 0.0
H1482 H 0.92127 0.10919 0.86165 0.0
H1483 H 0.01524 0.07327 0.80383 0.0
H1484 H 0.98953 0.01358 0.83754 0.0
Co1485 Co 0.68095 0.26526 0.13684 0.0
C1486 C 0.72475 0.24572 0.15324 0.0
C1487 C 0.69644 0.22333 0.15831 0.0
C1488 C 0.71529 0.21381 0.16821 0.0
N1489 N 0.70232 0.24326 0.14882 0.0
N1490 N 0.73319 0.22785 0.16515 0.0
H1491 H 0.73439 0.26065 0.14855 0.0
H1492 H 0.67934 0.21673 0.15926 0.0
C1493 C 0.63993 0.23712 0.13419 0.0
O1494 O 0.63036 0.25342 0.1461 0.0
N1495 N 0.65891 0.28704 0.12496 0.0
C1496 C 0.64807 0.28527 0.10484 0.0
C1497 C 0.63163 0.30193 0.10352 0.0
C1498 C 0.64892 0.30491 0.13555 0.0
N1499 N 0.63218 0.31422 0.12287 0.0
C1500 C 0.70419 0.28532 0.09948 0.0
C1501 C 0.71181 0.24598 0.0748 0.0
C1502 C 0.71934 0.26682 0.06581 0.0
C1503 C 0.71548 0.28659 0.07864 0.0
C1504 C 0.70042 0.24547 0.0958 0.0
N1505 N 0.69655 0.26505 0.10768 0.0
H1506 H 0.70133 0.30074 0.10907 0.0
H1507 H 0.69474 0.22935 0.10253 0.0
H1508 H 0.65136 0.27224 0.09228 0.0
H1509 H 0.65292 0.31049 0.15258 0.0
O1510 O 0.6979 0.28937 0.1515 0.0
O1511 O 0.66978 0.27 0.1674 0.0
O1512 O 0.66044 0.23943 0.12741 0.0
C1513 C 0.68546 0.28549 0.16936 0.0
H1514 H 0.7153 0.19834 0.17813 0.0
H1515 H 0.62 0.30462 0.08952 0.0
H1516 H 0.71436 0.23027 0.06554 0.0
H1517 H 0.72133 0.303 0.07273 0.0
Co1518 Co 0.51607 0.07639 0.13297 0.0
C1519 C 0.49499 0.0325 0.11907 0.0
C1520 C 0.4764 0.06165 0.10732 0.0
C1521 C 0.46614 0.04248 0.09894 0.0
N1522 N 0.49431 0.05545 0.12012 0.0
N1523 N 0.47778 0.02411 0.10626 0.0
H1524 H 0.50813 0.0223 0.12693 0.0
H1525 H 0.47182 0.07897 0.10327 0.0
C1526 C 0.48628 0.11635 0.14951 0.0
O1527 O 0.50127 0.12352 0.1644 0.0
N1528 N 0.5382 0.09786 0.14503 0.0
C1529 C 0.55602 0.09326 0.15876 0.0
C1530 C 0.57045 0.11164 0.15905 0.0
C1531 C 0.54231 0.11906 0.137 0.0
N1532 N 0.56183 0.12782 0.14539 0.0
C1533 C 0.52753 0.04647 0.16989 0.0
C1534 C 0.48893 0.05301 0.19578 0.0
C1535 C 0.50553 0.03777 0.20369 0.0
C1536 C 0.52499 0.03459 0.19033 0.0
C1537 C 0.49228 0.06483 0.1753 0.0
N1538 N 0.51173 0.062 0.16282 0.0
H1539 H 0.54231 0.04291 0.15965 0.0
H1540 H 0.47876 0.07566 0.16938 0.0
H1541 H 0.5593 0.07732 0.16711 0.0
H1542 H 0.53183 0.12743 0.1244 0.0
O1543 O 0.54082 0.05776 0.12136 0.0
O1544 O 0.52416 0.08566 0.10248 0.0
O1545 O 0.4901 0.0986 0.13753 0.0
C1546 C 0.53927 0.0695 0.1027 0.0
H1547 H 0.45197 0.04223 0.08722 0.0
H1548 H 0.58636 0.11286 0.16822 0.0
H1549 H 0.47344 0.05579 0.20533 0.0
H1550 H 0.53797 0.02251 0.19531 0.0
Co1551 Co 0.49542 0.43568 0.12747 0.0
C1552 C 0.5205 0.47619 0.11035 0.0
C1553 C 0.53745 0.44509 0.10229 0.0
C1554 C 0.5485 0.46251 0.09142 0.0
N1555 N 0.52019 0.45363 0.11478 0.0
N1556 N 0.53778 0.48215 0.09641 0.0
H1557 H 0.50734 0.48776 0.11554 0.0
H1558 H 0.5407 0.42722 0.09953 0.0
C1559 C 0.53683 0.40885 0.14112 0.0
O1560 O 0.54554 0.42746 0.14988 0.0
N1561 N 0.47084 0.41725 0.13875 0.0
C1562 C 0.4531 0.42362 0.15173 0.0
C1563 C 0.43825 0.40553 0.15333 0.0
C1564 C 0.46659 0.39563 0.13254 0.0
N1565 N 0.44676 0.38796 0.14117 0.0
C1566 C 0.4972 0.47064 0.16154 0.0
C1567 C 0.50388 0.4427 0.19863 0.0
C1568 C 0.50177 0.46621 0.20216 0.0
C1569 C 0.49849 0.48017 0.18322 0.0
C1570 C 0.503 0.43386 0.17645 0.0
N1571 N 0.50021 0.44788 0.1581 0.0
H1572 H 0.49247 0.48158 0.14777 0.0
H1573 H 0.50376 0.41565 0.17413 0.0
H1574 H 0.45084 0.44037 0.15899 0.0
H1575 H 0.47735 0.38612 0.12102 0.0
O1576 O 0.47374 0.45794 0.11656 0.0
O1577 O 0.48621 0.42833 0.09677 0.0
O1578 O 0.51686 0.40924 0.13251 0.0
C1579 C 0.47346 0.44643 0.09767 0.0
H1580 H 0.56221 0.46049 0.07933 0.0
H1581 H 0.42233 0.40546 0.16253 0.0
H1582 H 0.5059 0.43123 0.21288 0.0
H1583 H 0.49577 0.49828 0.18525 0.0
H1584 H 0.20429 0.18611 0.2946 0.0
H1585 H 0.2488 0.21653 0.34437 0.0
H1586 H 0.23097 0.25336 0.33837 0.0
H1587 H 0.20305 0.27712 0.31912 0.0
H1588 H 0.15706 0.24711 0.27045 0.0
H1589 H 0.17532 0.21023 0.2757 0.0
C1590 C 0.21008 0.20082 0.30408 0.0
C1591 C 0.22788 0.19849 0.31991 0.0
C1592 C 0.19953 0.22213 0.30072 0.0
C1593 C 0.23511 0.21774 0.33212 0.0
C1594 C 0.22493 0.23889 0.3287 0.0
C1595 C 0.19673 0.26258 0.30978 0.0
C1596 C 0.17861 0.26519 0.29434 0.0
C1597 C 0.20709 0.24129 0.31311 0.0
C1598 C 0.17113 0.24591 0.28222 0.0
C1599 C 0.18151 0.22468 0.28531 0.0
H1600 H 0.43256 0.5625 0.97042 0.0
H1601 H 0.46079 0.52435 0.91439 0.0
H1602 H 0.49764 0.54241 0.92039 0.0
H1603 H 0.52184 0.56852 0.94164 0.0
H1604 H 0.49375 0.60775 0.99699 0.0
H1605 H 0.45692 0.58945 0.99137 0.0
C1606 C 0.44678 0.55814 0.95951 0.0
C1607 C 0.44391 0.54207 0.94198 0.0
C1608 C 0.46795 0.56869 0.96299 0.0
C1609 C 0.4625 0.53666 0.928 0.0
C1610 C 0.4836 0.54697 0.93142 0.0
C1611 C 0.50769 0.57342 0.95233 0.0
C1612 C 0.51073 0.58968 0.96969 0.0
C1613 C 0.48651 0.56301 0.94885 0.0
C1614 C 0.4921 0.5952 0.98364 0.0
C1615 C 0.47095 0.58481 0.98036 0.0
H1616 H 0.85096 0.27056 0.28577 0.0
H1617 H 0.80705 0.22851 0.32681 0.0
H1618 H 0.78597 0.26179 0.33906 0.0
H1619 H 0.77936 0.30298 0.33802 0.0
H1620 H 0.82184 0.3451 0.29574 0.0
H1621 H 0.8438 0.31182 0.28405 0.0
C1622 C 0.83668 0.26862 0.29723 0.0
C1623 C 0.83092 0.24689 0.30544 0.0
C1624 C 0.82426 0.28795 0.30408 0.0
C1625 C 0.81237 0.2449 0.32049 0.0
C1626 C 0.8001 0.26399 0.32745 0.0
C1627 C 0.7935 0.30488 0.32635 0.0
C1628 C 0.79898 0.32649 0.31786 0.0
C1629 C 0.8059 0.28561 0.31943 0.0
C1630 C 0.81723 0.32864 0.30255 0.0
C1631 C 0.82982 0.3096 0.29583 0.0
H1632 H 0.49753 0.93638 0.94407 0.0
H1633 H 0.51665 0.92246 0.0134 0.0
H1634 H 0.55242 0.94302 1.0079 0.0
H1635 H 0.57885 0.96412 0.98276 0.0
H1636 H 0.55874 0.97812 0.9136 0.0
H1637 H 0.52302 0.95813 0.91955 0.0
C1638 C 0.50957 0.93776 0.95796 0.0
C1639 C 0.50448 0.92776 0.97904 0.0
C1640 C 0.53004 0.94952 0.95464 0.0
C1641 C 0.52005 0.93013 0.99703 0.0
C1642 C 0.54059 0.94175 0.99384 0.0
C1643 C 0.56664 0.96272 0.96902 0.0
C1644 C 0.57152 0.9725 0.94773 0.0
C1645 C 0.54587 0.95136 0.97263 0.0
C1646 C 0.55544 0.97077 0.93015 0.0
C1647 C 0.53497 0.95933 0.93352 0.0
H1648 H 0.1713 0.77058 0.24688 0.0
H1649 H 0.18611 0.73769 0.18306 0.0
H1650 H 0.20864 0.7704 0.17106 0.0
H1651 H 0.22373 0.80867 0.1784 0.0
H1652 H 0.20809 0.84221 0.24174 0.0
H1653 H 0.18645 0.80903 0.25425 0.0
C1654 C 0.17966 0.77052 0.23046 0.0
C1655 C 0.17702 0.7517 0.21589 0.0
C1656 C 0.19238 0.78957 0.22353 0.0
C1657 C 0.18768 0.75203 0.19449 0.0
C1658 C 0.20063 0.77071 0.18765 0.0
C1659 C 0.21562 0.8087 0.19496 0.0
C1660 C 0.21752 0.8279 0.20909 0.0
C1661 C 0.20299 0.78964 0.20195 0.0
C1662 C 0.20682 0.82769 0.23047 0.0
C1663 C 0.19447 0.80869 0.23766 0.0
H1664 H 0.0877 0.56732 0.04595 0.0
H1665 H 0.0596 0.53321 0.10454 0.0
H1666 H 0.02329 0.55192 0.09846 0.0
H1667 H 0.99922 0.57695 0.07639 0.0
H1668 H 0.02637 0.61249 0.0183 0.0
H1669 H 0.06317 0.5939 0.02408 0.0
C1670 C 0.07364 0.5641 0.05741 0.0
C1671 C 0.07642 0.54885 0.07567 0.0
C1672 C 0.05257 0.57501 0.05384 0.0
C1673 C 0.05801 0.54483 0.09035 0.0
C1674 C 0.03717 0.55551 0.08689 0.0
C1675 C 0.01316 0.58106 0.06513 0.0
C1676 C 0.00987 0.59632 0.047 0.0
C1677 C 0.03424 0.57055 0.06869 0.0
C1678 C 0.02823 0.60073 0.0323 0.0
C1679 C 0.04936 0.59017 0.03567 0.0
H1680 H 0.81553 0.68152 0.22306 0.0
H1681 H 0.76889 0.71005 0.17411 0.0
H1682 H 0.78493 0.74764 0.18012 0.0
H1683 H 0.81176 0.77258 0.19934 0.0
H1684 H 0.85978 0.7445 0.24717 0.0
H1685 H 0.84349 0.70678 0.24171 0.0
C1686 C 0.8089 0.69599 0.21378 0.0
C1687 C 0.79105 0.69296 0.19819 0.0
C1688 C 0.81838 0.71771 0.21713 0.0
C1689 C 0.78269 0.71186 0.18617 0.0
C1690 C 0.79183 0.73342 0.18959 0.0
C1691 C 0.81893 0.75826 0.2084 0.0
C1692 C 0.83695 0.76158 0.22373 0.0
C1693 C 0.80969 0.73655 0.20498 0.0
C1694 C 0.84567 0.74265 0.23553 0.0
C1695 C 0.83644 0.72098 0.23233 0.0
H1696 H 0.01322 0.93394 0.0811 0.0
H1697 H 0.99711 0.92484 0.01013 0.0
H1698 H 0.95924 0.9408 0.0166 0.0
H1699 H 0.93163 0.96017 0.04207 0.0
H1700 H 0.9496 0.97131 0.1123 0.0
H1701 H 0.98584 0.95202 0.10641 0.0
C1702 C 1.00157 0.93554 0.06694 0.0
C1703 C 1.00829 0.9284 0.04508 0.0
C1704 C 0.98009 0.94526 0.07067 0.0
C1705 C 0.99251 0.93005 0.02716 0.0
C1706 C 0.97085 0.93936 0.03083 0.0
C1707 C 0.9434 0.95808 0.0561 0.0
C1708 C 0.93798 0.96719 0.07759 0.0
C1709 C 0.96457 0.94738 0.05245 0.0
C1710 C 0.95345 0.96459 0.09558 0.0
C1711 C 0.97418 0.95355 0.09223 0.0
H1712 H 0.28103 0.16715 0.24455 0.0
H1713 H 0.34037 0.19343 0.2785 0.0
H1714 H 0.35164 0.21352 0.24399 0.0
H1715 H 0.34446 0.22392 0.20432 0.0
H1716 H 0.28561 0.1971 0.16979 0.0
H1717 H 0.2743 0.17689 0.20429 0.0
C1718 C 0.29632 0.17741 0.24436 0.0
C1719 C 0.30983 0.17887 0.26401 0.0
C1720 C 0.30282 0.18873 0.22435 0.0
C1721 C 0.32982 0.19191 0.2635 0.0
C1722 C 0.33623 0.20345 0.24382 0.0
C1723 C 0.3292 0.2136 0.20433 0.0
C1724 C 0.31588 0.21203 0.18457 0.0
C1725 C 0.32287 0.20198 0.22415 0.0
C1726 C 0.29621 0.1985 0.18478 0.0
C1727 C 0.28968 0.18701 0.20452 0.0
H1728 H 0.42379 0.49415 0.01533 0.0
H1729 H 0.41729 0.4242 0.99408 0.0
H1730 H 0.436 0.41158 0.02865 0.0
H1731 H 0.45611 0.42027 0.0641 0.0
H1732 H 0.4608 0.4897 0.08699 0.0
H1733 H 0.44072 0.50261 0.05286 0.0
C1734 C 0.4261 0.47615 0.01841 0.0
C1735 C 0.41953 0.46024 1.00174 0.0
C1736 C 0.4367 0.46887 0.03863 0.0
C1737 C 0.42272 0.43693 1.00618 0.0
C1738 C 0.43335 0.42963 0.02606 0.0
C1739 C 0.45263 0.43821 0.06162 0.0
C1740 C 0.46005 0.45402 0.07786 0.0
C1741 C 0.44081 0.44544 0.04218 0.0
C1742 C 0.45519 0.4772 0.07468 0.0
C1743 C 0.44377 0.48459 0.05515 0.0
H1744 H 0.68439 0.33295 0.26519 0.0
H1745 H 0.75367 0.34812 0.24628 0.0
H1746 H 0.74748 0.33061 0.20922 0.0
H1747 H 0.72306 0.30871 0.18296 0.0
H1748 H 0.65498 0.29101 0.20362 0.0
H1749 H 0.66027 0.31132 0.23945 0.0
C1750 C 0.69831 0.33231 0.25319 0.0
C1751 C 0.7196 0.34171 0.25893 0.0
C1752 C 0.69489 0.32152 0.23219 0.0
C1753 C 0.73707 0.34121 0.24256 0.0
C1754 C 0.73359 0.331 0.22133 0.0
C1755 C 0.70936 0.30945 0.19528 0.0
C1756 C 0.68866 0.29836 0.19069 0.0
C1757 C 0.71268 0.32078 0.21609 0.0
C1758 C 0.67111 0.29928 0.20683 0.0
C1759 C 0.6741 0.31094 0.22729 0.0
H1760 H 0.6039 0.03475 0.02362 0.0
H1761 H 0.55786 0.07676 0.98468 0.0
H1762 H 0.53793 0.08744 0.01893 0.0
H1763 H 0.53259 0.08474 0.05988 0.0
H1764 H 0.57636 0.04136 0.09953 0.0
H1765 H 0.59783 0.03129 0.06523 0.0
C1766 C 0.58945 0.04613 0.02258 0.0
C1767 C 0.58285 0.0551 1.00133 0.0
C1768 C 0.57751 0.05203 0.04257 0.0
C1769 C 0.56399 0.06992 1.00057 0.0
C1770 C 0.55231 0.07598 0.02026 0.0
C1771 C 0.54692 0.07319 0.06109 0.0
C1772 C 0.55293 0.06394 0.08225 0.0
C1773 C 0.5589 0.0672 0.04132 0.0
C1774 C 0.5714 0.04878 0.08343 0.0
C1775 C 0.58367 0.04299 0.06381 0.0
H1776 H 0.34444 0.79295 0.31141 0.0
H1777 H 0.28026 0.8071 0.34404 0.0
H1778 H 0.26783 0.82882 0.31106 0.0
H1779 H 0.27516 0.8442 0.27305 0.0
H1780 H 0.33946 0.83112 0.24046 0.0
H1781 H 0.35191 0.80877 0.27324 0.0
C1782 C 0.32775 0.80079 0.31126 0.0
C1783 C 0.31333 0.79841 0.33017 0.0
C1784 C 0.32072 0.8135 0.29224 0.0
C1785 C 0.29177 0.80876 0.32977 0.0
C1786 C 0.28459 0.82115 0.31088 0.0
C1787 C 0.2918 0.83627 0.27305 0.0
C1788 C 0.30633 0.83925 0.25433 0.0
C1789 C 0.2989 0.82365 0.29202 0.0
C1790 C 0.32804 0.82922 0.25475 0.0
C1791 C 0.33513 0.81637 0.27345 0.0
H1792 H 0.06658 0.47404 0.93361 0.0
H1793 H 0.02959 0.4166 0.96024 0.0
H1794 H 0.04752 0.42177 0.99717 0.0
H1795 H 0.07274 0.44297 0.02227 0.0
H1796 H 0.11083 0.49989 0.9961 0.0
H1797 H 0.09322 0.49471 0.95888 0.0
C1798 C 0.06253 0.46262 0.94748 0.0
C1799 C 0.0467 0.44497 0.94408 0.0
C1800 C 0.07298 0.46566 0.96887 0.0
C1801 C 0.04167 0.43033 0.96228 0.0
C1802 C 0.05191 0.43328 0.98348 0.0
C1803 C 0.07755 0.45412 1.00847 0.0
C1804 C 0.09321 0.47184 0.01228 0.0
C1805 C 0.06751 0.45092 0.98701 0.0
C1806 C 0.09868 0.48628 0.99398 0.0
C1807 C 0.08868 0.48324 0.97256 0.0
H1808 H 0.68934 0.69376 0.24795 0.0
H1809 H 0.74117 0.6495 0.27525 0.0
H1810 H 0.73542 0.6658 0.31291 0.0
H1811 H 0.71578 0.69313 0.33837 0.0
H1812 H 0.66283 0.7357 0.31058 0.0
H1813 H 0.66874 0.71927 0.27313 0.0
C1814 C 0.69927 0.68735 0.26203 0.0
C1815 C 0.71586 0.67045 0.25837 0.0
C1816 C 0.69566 0.69654 0.28379 0.0
C1817 C 0.72858 0.66276 0.27718 0.0
C1818 C 0.72521 0.672 0.29889 0.0
C1819 C 0.70552 0.69872 0.32411 0.0
C1820 C 0.68891 0.71567 0.32736 0.0
C1821 C 0.70887 0.68902 0.30241 0.0
C1822 C 0.6757 0.72266 0.30868 0.0
C1823 C 0.67909 0.7133 0.28717 0.0
H1824 H 0.93251 0.07865 0.01717 0.0
H1825 H 0.91687 0.00917 0.99984 0.0
H1826 H 0.9336 0.01458 0.96215 0.0
H1827 H 0.95521 0.0385 0.93504 0.0
H1828 H 0.97235 0.10728 0.95404 0.0
H1829 H 0.95285 0.10256 0.99023 0.0
C1830 C 0.93282 0.06463 1.00521 0.0
C1831 C 0.92364 0.04349 0.01149 0.0
C1832 C 0.94295 0.06769 0.98388 0.0
C1833 C 0.92366 0.02569 0.99549 0.0
C1834 C 0.93341 0.02872 0.97397 0.0
C1835 C 0.9545 0.05247 0.94707 0.0
C1836 C 0.96533 0.07317 0.94191 0.0
C1837 C 0.94347 0.04955 0.96812 0.0
C1838 C 0.96433 0.09111 0.95765 0.0
C1839 C 0.95314 0.08846 0.97836 0.0
H1840 H 0.26176 0.32498 0.17625 0.0
H1841 H 0.24368 0.25438 0.16913 0.0
H1842 H 0.20829 0.26116 0.19004 0.0
H1843 H 0.1822 0.28752 0.21005 0.0
H1844 H 0.20147 0.35782 0.21798 0.0
H1845 H 0.23647 0.35091 0.19682 0.0
C1846 C 0.25001 0.31111 0.17916 0.0
C1847 C 0.25528 0.28925 0.17103 0.0
C1848 C 0.22982 0.31513 0.19125 0.0
C1849 C 0.2401 0.27133 0.17535 0.0
C1850 C 0.21979 0.27524 0.18718 0.0
C1851 C 0.19404 0.30131 0.20701 0.0
C1852 C 0.1892 0.32318 0.21544 0.0
C1853 C 0.21442 0.29711 0.19514 0.0
C1854 C 0.20481 0.34083 0.21168 0.0
C1855 C 0.22483 0.3369 0.19958 0.0
H1856 H 0.19819 0.67193 0.30676 0.0
H1857 H 0.17394 0.74106 0.30503 0.0
H1858 H 0.20758 0.75374 0.32594 0.0
H1859 H 0.24526 0.74535 0.34265 0.0
H1860 H 0.26817 0.67576 0.3458 0.0
H1861 H 0.23374 0.66311 0.3267 0.0
C1862 C 0.20028 0.68975 0.31105 0.0
C1863 C 0.18381 0.70556 0.30418 0.0
C1864 C 0.21946 0.69685 0.32337 0.0
C1865 C 0.18647 0.72855 0.31013 0.0
C1866 C 0.2057 0.73583 0.32206 0.0
C1867 C 0.24248 0.72741 0.33956 0.0
C1868 C 0.25951 0.7116 0.34528 0.0
C1869 C 0.22248 0.72016 0.32857 0.0
C1870 C 0.25562 0.68836 0.34109 0.0
C1871 C 0.23589 0.68107 0.3302 0.0
H1872 H 0.94389 0.4983 0.94879 0.0
H1873 H 0.99656 0.52665 0.90639 0.0
H1874 H 0.99101 0.56379 0.92419 0.0
H1875 H 0.97112 0.58827 0.95199 0.0
H1876 H 0.91795 0.5595 0.99353 0.0
H1877 H 0.92355 0.52259 0.97555 0.0
C1878 C 0.95398 0.51259 0.94312 0.0
C1879 C 0.97061 0.50954 0.92617 0.0
C1880 C 0.95059 0.53391 0.9533 0.0
C1881 C 0.98381 0.52834 0.91954 0.0
C1882 C 0.98056 0.54965 0.92965 0.0
C1883 C 0.96074 0.57392 0.95706 0.0
C1884 C 0.94415 0.57666 0.9741 0.0
C1885 C 0.96403 0.55263 0.9466 0.0
C1886 C 0.93084 0.5579 0.98046 0.0
C1887 C 0.93403 0.53675 0.9702 0.0
H1888 H 0.82709 0.78736 0.31189 0.0
H1889 H 0.8077 0.85633 0.2961 0.0
H1890 H 0.77116 0.85079 0.31469 0.0
H1891 H 0.74414 0.82624 0.33445 0.0
H1892 H 0.76236 0.75665 0.34883 0.0
H1893 H 0.79979 0.76269 0.33225 0.0
C1894 C 0.81491 0.80119 0.3127 0.0
C1895 C 0.82012 0.82219 0.30257 0.0
C1896 C 0.79363 0.79781 0.3232 0.0
C1897 C 0.8041 0.83993 0.30364 0.0
C1898 C 0.78316 0.8368 0.31429 0.0
C1899 C 0.75619 0.81232 0.33387 0.0
C1900 C 0.75021 0.79104 0.34295 0.0
C1901 C 0.77762 0.81576 0.3239 0.0
C1902 C 0.76638 0.77335 0.34234 0.0
C1903 C 0.78785 0.77672 0.33265 0.0
H1904 H 0.57763 0.51575 0.43468 0.0
H1905 H 0.50748 0.49761 0.42313 0.0
H1906 H 0.51427 0.46013 0.43913 0.0
H1907 H 0.53952 0.43303 0.45856 0.0
H1908 H 0.60897 0.452 0.47228 0.0
H1909 H 0.60303 0.4885 0.45343 0.0
C1910 C 0.56379 0.50367 0.43574 0.0
C1911 C 0.5421 0.50969 0.42762 0.0
C1912 C 0.56767 0.48218 0.44542 0.0
C1913 C 0.52447 0.49355 0.42885 0.0
C1914 C 0.52828 0.47205 0.43818 0.0
C1915 C 0.55342 0.44504 0.45712 0.0
C1916 C 0.57465 0.43984 0.46675 0.0
C1917 C 0.54974 0.46624 0.44672 0.0
C1918 C 0.59245 0.45565 0.46503 0.0
C1919 C 0.58906 0.47655 0.45429 0.0
H1920 H 0.27145 0.73646 0.66653 0.0
H1921 H 0.23484 0.68206 0.69924 0.0
H1922 H 0.26881 0.67126 0.7202 0.0
H1923 H 0.30885 0.6773 0.72968 0.0
H1924 H 0.34589 0.73174 0.69755 0.0
H1925 H 0.31194 0.7425 0.67608 0.0
C1926 C 0.27091 0.72235 0.67835 0.0
C1927 C 0.25059 0.71003 0.68114 0.0
C1928 C 0.29063 0.71619 0.69047 0.0
C1929 C 0.25027 0.69162 0.6964 0.0
C1930 C 0.2697 0.68549 0.70854 0.0
C1931 C 0.30954 0.69148 0.71793 0.0
C1932 C 0.32989 0.70366 0.71522 0.0
C1933 C 0.28997 0.6976 0.70569 0.0
C1934 C 0.33045 0.72201 0.69993 0.0
C1935 C 0.31102 0.72822 0.68767 0.0
H1936 H 0.94137 0.51685 0.58132 0.0
H1937 H 0.01336 0.50368 0.58723 0.0
H1938 H 1.00829 0.46673 0.56929 0.0
H1939 H 0.98351 0.43845 0.5504 0.0
H1940 H 0.91213 0.45337 0.54244 0.0
H1941 H 0.91699 0.48936 0.56234 0.0
C1942 C 0.95607 0.50612 0.57855 0.0
C1943 C 0.97771 0.51335 0.5857 0.0
C1944 C 0.95316 0.48508 0.5677 0.0
C1945 C 0.99639 0.49871 0.58226 0.0
C1946 C 0.99355 0.47752 0.57181 0.0
C1947 C 0.96905 0.44956 0.55318 0.0
C1948 C 0.94751 0.44328 0.54495 0.0
C1949 C 0.97203 0.47056 0.56431 0.0
C1950 C 0.92893 0.45789 0.54848 0.0
C1951 C 0.93167 0.47847 0.55989 0.0
H1952 H 0.08141 1.00138 0.57683 0.0
H1953 H 0.02154 0.02743 0.61043 0.0
H1954 H 0.02791 0.06461 0.59312 0.0
H1955 H 0.05024 0.08964 0.5677 0.0
H1956 H 0.11046 0.06298 0.53521 0.0
H1957 H 0.1044 0.0263 0.55334 0.0
C1958 C 0.06987 0.01514 0.5808 0.0
C1959 C 0.05098 0.01134 0.59504 0.0
C1960 C 0.07373 0.03652 0.57099 0.0
C1961 C 0.03607 0.02959 0.59938 0.0
C1962 C 0.03977 0.05097 0.58956 0.0
C1963 C 0.06212 0.07585 0.56475 0.0
C1964 C 0.08076 0.07908 0.55006 0.0
C1965 C 0.0585 0.05461 0.57522 0.0
C1966 C 0.09596 0.061 0.54639 0.0
C1967 C 0.09249 0.03997 0.55672 0.0
H1968 H 0.71438 0.68643 0.78719 0.0
H1969 H 0.72394 0.7038 0.85783 0.0
H1970 H 0.70419 0.73983 0.85201 0.0
H1971 H 0.68457 0.76656 0.82682 0.0
H1972 H 0.67558 0.74985 0.75603 0.0
H1973 H 0.69505 0.71358 0.76179 0.0
C1974 C 0.71197 0.69806 0.80131 0.0
C1975 C 0.72045 0.69245 0.82292 0.0
C1976 C 0.70091 0.71893 0.79776 0.0
C1977 C 0.71754 0.70777 0.84102 0.0
C1978 C 0.70627 0.72837 0.83772 0.0
C1979 C 0.68676 0.7549 0.81271 0.0
C1980 C 0.67862 0.76086 0.79107 0.0
C1981 C 0.69794 0.73414 0.81616 0.0
C1982 C 0.68192 0.74578 0.77281 0.0
C1983 C 0.6929 0.72497 0.77613 0.0
H1984 H 0.9373 0.06656 0.47318 0.0
H1985 H 0.95753 0.05165 0.40425 0.0
H1986 H 0.99396 0.07052 0.41063 0.0
H1987 H 0.02068 0.08933 0.43624 0.0
H1988 H 1.00172 0.10182 0.50606 0.0
H1989 H 0.96398 0.08638 0.49869 0.0
C1990 C 0.94959 0.0677 0.45948 0.0
C1991 C 0.94476 0.05772 0.43827 0.0
C1992 C 0.97072 0.07812 0.46343 0.0
C1993 C 0.9609 0.05912 0.42074 0.0
C1994 C 0.98173 0.0699 0.42439 0.0
C1995 C 1.00843 0.08858 0.44996 0.0
C1996 C 0.01433 0.09656 0.47178 0.0
C1997 C 0.98696 0.07909 0.44578 0.0
C1998 C 0.9978 0.09598 0.48908 0.0
C1999 C 0.9762 0.08697 0.48491 0.0
H2000 H 0.3034 0.83508 0.79318 0.0
H2001 H 0.28733 0.81287 0.86117 0.0
H2002 H 0.30839 0.77752 0.85478 0.0
H2003 H 0.33138 0.75296 0.82975 0.0
H2004 H 0.34642 0.7749 0.76148 0.0
H2005 H 0.32553 0.81023 0.76797 0.0
C2006 C 0.30459 0.82254 0.80664 0.0
C2007 C 0.29399 0.82662 0.82768 0.0
C2008 C 0.31642 0.80217 0.80272 0.0
C2009 C 0.29539 0.8101 0.84484 0.0
C2010 C 0.30742 0.78991 0.84119 0.0
C2011 C 0.33015 0.76554 0.81636 0.0
C2012 C 0.34048 0.76134 0.79518 0.0
C2013 C 0.31802 0.78577 0.8202 0.0
C2014 C 0.33844 0.77762 0.77784 0.0
C2015 C 0.32662 0.79788 0.78159 0.0
H2016 H 0.99975 0.43719 0.43079 0.0
H2017 H 0.02079 0.4172 0.49827 0.0
H2018 H 0.05813 0.43327 0.49168 0.0
H2019 H 0.08441 0.45508 0.46781 0.0
H2020 H 0.0629 0.47736 0.40136 0.0
H2021 H 0.02622 0.45858 0.40665 0.0
C2022 C 0.01239 0.43641 0.44414 0.0
C2023 C 1.00712 0.4259 0.46502 0.0
C2024 C 0.03387 0.44623 0.44049 0.0
C2025 C 0.0241 0.42479 0.48189 0.0
C2026 C 0.04558 0.43418 0.47823 0.0
C2027 C 0.07178 0.45561 0.45438 0.0
C2028 C 0.07637 0.46758 0.43423 0.0
C2029 C 0.05057 0.44517 0.45771 0.0
C2030 C 0.05976 0.4683 0.41707 0.0
C2031 C 0.03878 0.45758 0.42009 0.0
H2032 H 0.70441 0.3375 0.72024 0.0
H2033 H 0.74713 0.30723 0.66874 0.0
H2034 H 0.72939 0.27039 0.67526 0.0
H2035 H 0.70254 0.24674 0.69592 0.0
H2036 H 0.65869 0.27661 0.74667 0.0
H2037 H 0.67642 0.31363 0.74035 0.0
C2038 C 0.70979 0.32283 0.71042 0.0
C2039 C 0.72709 0.32509 0.69405 0.0
C2040 C 0.69944 0.30164 0.7142 0.0
C2041 C 0.73385 0.30596 0.68144 0.0
C2042 C 0.72374 0.28487 0.68517 0.0
C2043 C 0.6965 0.26131 0.7054 0.0
C2044 C 0.67916 0.25876 0.7217 0.0
C2045 C 0.70656 0.28253 0.70152 0.0
C2046 C 0.67212 0.27794 0.73417 0.0
C2047 C 0.68218 0.29916 0.73048 0.0
H2048 H 0.56555 0.04556 0.59412 0.0
H2049 H 0.599 0.06607 0.53218 0.0
H2050 H 0.56468 0.08598 0.51992 0.0
H2051 H 0.52506 0.09759 0.5268 0.0
H2052 H 0.49198 0.07797 0.58912 0.0
H2053 H 0.52621 0.05775 0.60129 0.0
C2054 C 0.56533 0.05443 0.57797 0.0
C2055 C 0.58478 0.05434 0.56409 0.0
C2056 C 0.54558 0.06598 0.57108 0.0
C2057 C 0.58428 0.06597 0.54324 0.0
C2058 C 0.56463 0.0773 0.53617 0.0
C2059 C 0.52533 0.08871 0.54293 0.0
C2060 C 0.50603 0.08917 0.55701 0.0
C2061 C 0.54516 0.07736 0.54992 0.0
C2062 C 0.50671 0.07796 0.57808 0.0
C2063 C 0.52624 0.06636 0.58501 0.0
H2064 H 0.3232 0.2706 0.68671 0.0
H2065 H 0.36508 0.24261 0.74016 0.0
H2066 H 0.34786 0.20545 0.73435 0.0
H2067 H 0.32032 0.18086 0.71455 0.0
H2068 H 0.2798 0.20876 0.66014 0.0
H2069 H 0.29749 0.24584 0.66563 0.0
C2070 C 0.3289 0.25646 0.69697 0.0
C2071 C 0.34537 0.25977 0.71407 0.0
C2072 C 0.31917 0.23496 0.69333 0.0
C2073 C 0.35215 0.24093 0.7272 0.0
C2074 C 0.3424 0.21952 0.72379 0.0
C2075 C 0.31546 0.19504 0.70383 0.0
C2076 C 0.29871 0.19205 0.68701 0.0
C2077 C 0.32577 0.21637 0.70701 0.0
C2078 C 0.29266 0.21056 0.67319 0.0
C2079 C 0.30273 0.23182 0.67636 0.0
H2080 H 0.51412 0.43529 0.58135 0.0
H2081 H 0.49392 0.4175 0.51314 0.0
H2082 H 0.45576 0.43234 0.52045 0.0
H2083 H 0.42907 0.45333 0.54532 0.0
H2084 H 0.45058 0.4729 0.61268 0.0
H2085 H 0.48733 0.45464 0.60652 0.0
C2086 C 0.50144 0.43471 0.56801 0.0
C2087 C 0.50708 0.42552 0.54662 0.0
C2088 C 0.47976 0.44375 0.57216 0.0
C2089 C 0.49013 0.42435 0.52979 0.0
C2090 C 0.46831 0.43301 0.53391 0.0
C2091 C 0.44172 0.45333 0.55873 0.0
C2092 C 0.43714 0.46453 0.57941 0.0
C2093 C 0.46306 0.44315 0.5549 0.0
C2094 C 0.45373 0.46452 0.59658 0.0
C2095 C 0.47476 0.45408 0.59307 0.0
H2096 H 0.83141 0.69363 0.76955 0.0
H2097 H 0.76282 0.67526 0.75111 0.0
H2098 H 0.76757 0.69328 0.71424 0.0
H2099 H 0.7909 0.71526 0.68725 0.0
H2100 H 0.85883 0.735 0.70661 0.0
H2101 H 0.85445 0.71585 0.74302 0.0
C2102 C 0.81742 0.69367 0.75758 0.0
C2103 C 0.79687 0.6829 0.76328 0.0
C2104 C 0.82008 0.70448 0.73646 0.0
C2105 C 0.77904 0.68294 0.74726 0.0
C2106 C 0.78165 0.69346 0.72612 0.0
C2107 C 0.80473 0.71532 0.69944 0.0
C2108 C 0.82513 0.72657 0.6942 0.0
C2109 C 0.80206 0.70437 0.72054 0.0
C2110 C 0.84288 0.72656 0.71021 0.0
C2111 C 0.84043 0.71556 0.73107 0.0
H2112 H 0.95451 0.97381 0.58329 0.0
H2113 H 0.99867 0.9233 0.5534 0.0
H2114 H 0.98315 0.93154 0.51589 0.0
H2115 H 0.95791 0.95336 0.49162 0.0
H2116 H 0.91222 1.00285 0.52096 0.0
H2117 H 0.9279 0.99504 0.5586 0.0
C2118 C 0.96066 0.96456 0.56856 0.0
C2119 C 0.97774 0.94796 0.57115 0.0
C2120 C 0.95156 0.96932 0.54694 0.0
C2121 C 0.98552 0.93611 0.55192 0.0
C2122 C 0.97669 0.94085 0.53043 0.0
C2123 C 0.95099 0.96229 0.50614 0.0
C2124 C 0.93371 0.97865 0.5032 0.0
C2125 C 0.95977 0.95744 0.52775 0.0
C2126 C 0.92561 0.99033 0.52247 0.0
C2127 C 0.93449 0.98576 0.5441 0.0
H2128 H 0.21804 0.81497 0.685 0.0
H2129 H 0.1684 0.76943 0.71395 0.0
H2130 H 0.17379 0.78668 0.7512 0.0
H2131 H 0.1928 0.81395 0.77558 0.0
H2132 H 0.24106 0.86126 0.74693 0.0
H2133 H 0.23616 0.84382 0.7097 0.0
C2134 C 0.20842 0.80886 0.69949 0.0
C2135 C 0.19288 0.7909 0.69669 0.0
C2136 C 0.21141 0.81907 0.72096 0.0
C2137 C 0.18043 0.78326 0.71558 0.0
C2138 C 0.18352 0.79309 0.73694 0.0
C2139 C 0.20215 0.8208 0.76133 0.0
C2140 C 0.21744 0.83896 0.76448 0.0
C2141 C 0.19897 0.81097 0.73982 0.0
C2142 C 0.22945 0.84712 0.74542 0.0
C2143 C 0.22656 0.83721 0.72396 0.0
H2144 H 0.08146 0.57943 0.4976 0.0
H2145 H 0.09752 0.51046 0.51659 0.0
H2146 H 0.08296 0.51747 0.55486 0.0
H2147 H 0.06337 0.54261 0.58238 0.0
H2148 H 0.04598 0.61099 0.56238 0.0
H2149 H 0.06316 0.60473 0.52514 0.0
C2150 C 0.08171 0.56586 0.51003 0.0
C2151 C 0.09049 0.54439 0.50401 0.0
C2152 C 0.07297 0.5699 0.53191 0.0
C2153 C 0.09109 0.52721 0.52064 0.0
C2154 C 0.0826 0.53117 0.54256 0.0
C2155 C 0.06362 0.55621 0.56996 0.0
C2156 C 0.05339 0.57724 0.57517 0.0
C2157 C 0.07324 0.55237 0.54832 0.0
C2158 C 0.05366 0.59463 0.55881 0.0
C2159 C 0.06347 0.59106 0.53747 0.0
H2160 H 0.83165 0.332 0.75153 0.0
H2161 H 0.76972 0.36378 0.77494 0.0
H2162 H 0.77508 0.34673 0.8124 0.0
H2163 H 0.79712 0.32178 0.83837 0.0
H2164 H 0.85948 0.29149 0.81407 0.0
H2165 H 0.85434 0.30948 0.77731 0.0
C2166 C 0.81941 0.33567 0.76475 0.0
C2167 C 0.80025 0.34924 0.7601 0.0
C2168 C 0.8227 0.32604 0.78627 0.0
C2169 C 0.7845 0.3532 0.77771 0.0
C2170 C 0.78761 0.34353 0.79927 0.0
C2171 C 0.80964 0.31931 0.82507 0.0
C2172 C 0.82859 0.3052 0.82898 0.0
C2173 C 0.80659 0.32976 0.80371 0.0
C2174 C 0.84467 0.30215 0.81155 0.0
C2175 C 0.84176 0.31243 0.79045 0.0
H2176 H 0.58905 0.93905 0.5183 0.0
H2177 H 0.60353 1.00715 0.49549 0.0
H2178 H 0.58202 1.00039 0.46068 0.0
H2179 H 0.55894 0.97516 0.43665 0.0
H2180 H 0.54404 0.90716 0.45963 0.0
H2181 H 0.56602 0.91375 0.49424 0.0
C2182 C 0.58765 0.95233 0.50562 0.0
C2183 C 0.59787 0.97358 0.50957 0.0
C2184 C 0.57519 0.94833 0.48562 0.0
C2185 C 0.5956 0.99074 0.49308 0.0
C2186 C 0.5834 0.98684 0.47308 0.0
C2187 C 0.56057 0.96176 0.4492 0.0
C2188 C 0.5499 0.94069 0.44554 0.0
C2189 C 0.57308 0.96573 0.46918 0.0
C2190 C 0.55206 0.92355 0.46204 0.0
C2191 C 0.56464 0.9273 0.48184 0.0
H2192 H 0.22263 0.20625 0.82909 0.0
H2193 H 0.15826 0.2324 0.80558 0.0
H2194 H 0.16407 0.21411 0.76869 0.0
H2195 H 0.18778 0.19148 0.74298 0.0
H2196 H 0.25328 0.16737 0.76598 0.0
H2197 H 0.24636 0.18361 0.80328 0.0
C2198 C 0.20981 0.20783 0.81594 0.0
C2199 C 0.19005 0.22065 0.82004 0.0
C2200 C 0.21341 0.19756 0.79468 0.0
C2201 C 0.17366 0.22268 0.80279 0.0
C2202 C 0.17696 0.21221 0.78172 0.0
C2203 C 0.20068 0.18987 0.756 0.0
C2204 C 0.22107 0.17816 0.75134 0.0
C2205 C 0.19687 0.19978 0.7774 0.0
C2206 C 0.23729 0.17596 0.76883 0.0
C2207 C 0.23344 0.18544 0.79027 0.0
H2208 H 0.42759 0.57573 0.51518 0.0
H2209 H 0.41974 0.50423 0.50101 0.0
H2210 H 0.43641 0.50968 0.4633 0.0
H2211 H 0.45574 0.53456 0.43523 0.0
H2212 H 0.46536 0.60549 0.45131 0.0
H2213 H 0.44582 0.60038 0.48744 0.0
C2214 C 0.42962 0.56125 0.50398 0.0
C2215 C 0.42259 0.53956 0.51116 0.0
C2216 C 0.43972 0.56441 0.48262 0.0
C2217 C 0.42483 0.52116 0.496 0.0
C2218 C 0.43455 0.52424 0.47445 0.0
C2219 C 0.45333 0.54889 0.44659 0.0
C2220 C 0.46205 0.57036 0.44063 0.0
C2221 C 0.44238 0.54575 0.46769 0.0
C2222 C 0.45897 0.58876 0.45556 0.0
C2223 C 0.44776 0.58588 0.47623 0.0
H2224 H 0.71415 0.8423 0.73161 0.0
H2225 H 0.67382 0.79697 0.69047 0.0
H2226 H 0.70771 0.78584 0.66903 0.0
H2227 H 0.74907 0.78882 0.66213 0.0
H2228 H 0.78909 0.83326 0.70469 0.0
H2229 H 0.75518 0.84491 0.72508 0.0
C2230 C 0.71272 0.83008 0.71787 0.0
C2231 C 0.69143 0.82058 0.71262 0.0
C2232 C 0.73231 0.82355 0.70578 0.0
C2233 C 0.68998 0.80461 0.69486 0.0
C2234 C 0.70938 0.7982 0.6826 0.0
C2235 C 0.75042 0.80092 0.67595 0.0
C2236 C 0.7718 0.8102 0.68157 0.0
C2237 C 0.7307 0.80747 0.68797 0.0
C2238 C 0.77301 0.82606 0.6995 0.0
C2239 C 0.75355 0.83269 0.71138 0.0
H2240 H 0.7742 0.19584 0.82531 0.0
H2241 H 0.74872 0.25762 0.85562 0.0
H2242 H 0.71169 0.25122 0.83798 0.0
H2243 H 0.68631 0.22784 0.81395 0.0
H2244 H 0.71219 0.16588 0.78426 0.0
H2245 H 0.74904 0.17239 0.802 0.0
C2246 C 0.76055 0.20783 0.82831 0.0
C2247 C 0.76442 0.22719 0.84187 0.0
C2248 C 0.73922 0.20394 0.81827 0.0
C2249 C 0.74646 0.24272 0.84508 0.0
C2250 C 0.72517 0.23898 0.83511 0.0
C2251 C 0.69999 0.21572 0.81147 0.0
C2252 C 0.69642 0.19637 0.7978 0.0
C2253 C 0.72132 0.21963 0.82167 0.0
C2254 C 0.7144 0.18091 0.79467 0.0
C2255 C 0.73553 0.18462 0.8048 0.0
H2256 H 0.49423 0.01172 0.43044 0.0
H2257 H 0.4284 0.98272 0.4447 0.0
H2258 H 0.41666 0.01778 0.46338 0.0
H2259 H 0.42525 0.05648 0.47659 0.0
H2260 H 0.49053 0.08605 0.46133 0.0
H2261 H 0.50214 0.05116 0.44192 0.0
C2262 C 0.4772 0.01311 0.4373 0.0
C2263 C 0.46235 0.99435 0.43626 0.0
C2264 C 0.47043 0.03349 0.44795 0.0
C2265 C 0.44041 0.99661 0.44557 0.0
C2266 C 0.4336 0.01674 0.4562 0.0
C2267 C 0.442 0.0553 0.46898 0.0
C2268 C 0.45702 0.07382 0.4705 0.0
C2269 C 0.44853 0.03522 0.45771 0.0
C2270 C 0.47861 0.07207 0.46039 0.0
C2271 C 0.48529 0.05209 0.44931 0.0
H2272 H 0.33602 0.29181 0.81188 0.0
H2273 H 0.30722 0.34627 0.77196 0.0
H2274 H 0.27034 0.34014 0.78949 0.0
H2275 H 0.24614 0.31959 0.81578 0.0
H2276 H 0.27398 0.26574 0.857 0.0
H2277 H 0.31116 0.27108 0.83905 0.0
C2278 C 0.32165 0.3023 0.80705 0.0
C2279 C 0.32446 0.31951 0.79063 0.0
C2280 C 0.30027 0.29876 0.81735 0.0
C2281 C 0.30565 0.33295 0.78456 0.0
C2282 C 0.28447 0.32946 0.79457 0.0
C2283 C 0.26031 0.30917 0.82118 0.0
C2284 C 0.25715 0.29241 0.83795 0.0
C2285 C 0.2816 0.3125 0.811 0.0
C2286 C 0.27578 0.27869 0.84408 0.0
C2287 C 0.29712 0.28183 0.83389 0.0
H2288 H 0.08002 0.01972 0.93777 0.0
H2289 H 0.01253 0.99802 0.9187 0.0
H2290 H 0.01965 0.96082 0.93504 0.0
H2291 H 0.04406 0.93491 0.95686 0.0
H2292 H 0.11057 0.95723 0.9781 0.0
H2293 H 0.10468 0.99366 0.95905 0.0
C2294 C 0.06678 1.00696 0.93725 0.0
C2295 C 0.04574 0.01197 0.92694 0.0
C2296 C 0.07077 0.98561 0.9472 0.0
C2297 C 0.02902 0.99486 0.92615 0.0
C2298 C 0.03299 0.97349 0.93569 0.0
C2299 C 0.05736 0.94766 0.9571 0.0
C2300 C 0.07772 0.94338 0.96887 0.0
C2301 C 0.05369 0.96875 0.94649 0.0
C2302 C 0.09471 0.96014 0.96921 0.0
C2303 C 0.09135 0.98099 0.95833 0.0
H2304 H 0.75219 0.18875 0.17996 0.0
H2305 H 0.76525 0.26058 0.17284 0.0
H2306 H 0.80173 0.25589 0.1921 0.0
H2307 H 0.82921 0.23154 0.21292 0.0
H2308 H 0.81398 0.16039 0.22206 0.0
H2309 H 0.77887 0.16484 0.20057 0.0
C2310 C 0.76277 0.20353 0.18275 0.0
C2311 C 0.7556 0.22505 0.17504 0.0
C2312 C 0.78338 0.20085 0.19446 0.0
C2313 C 0.77016 0.24375 0.17836 0.0
C2314 C 0.79104 0.24112 0.18958 0.0
C2315 C 0.81821 0.21703 0.21012 0.0
C2316 C 0.82419 0.19567 0.21916 0.0
C2317 C 0.79771 0.21978 0.19798 0.0
C2318 C 0.80972 0.17705 0.21547 0.0
C2319 C 0.78965 0.17955 0.2031 0.0
H2320 H 0.47699 0.9256 0.06476 0.0
H2321 H 0.40664 0.94377 0.05465 0.0
H2322 H 0.41233 0.97904 0.07567 0.0
H2323 H 0.4377 1.006 0.09419 0.0
H2324 H 0.50875 0.98988 0.10218 0.0
H2325 H 0.50232 0.95235 0.08535 0.0
C2326 C 0.46288 0.93716 0.0675 0.0
C2327 C 0.44144 0.93218 0.05809 0.0
C2328 C 0.46642 0.9578 0.07916 0.0
C2329 C 0.42333 0.94734 0.06157 0.0
C2330 C 0.42656 0.96751 0.07359 0.0
C2331 C 0.45183 0.99432 0.09226 0.0
C2332 C 0.47373 1.00094 0.09916 0.0
C2333 C 0.44812 0.97314 0.08198 0.0
C2334 C 0.49169 0.98527 0.0971 0.0
C2335 C 0.48805 0.96385 0.08729 0.0
H2336 H 0.54089 0.58063 0.05508 0.0
H2337 H 0.6076 0.55769 0.035 0.0
H2338 H 0.60121 0.5214 0.05415 0.0
H2339 H 0.57657 0.49622 0.0762 0.0
H2340 H 0.50878 0.5184 0.09396 0.0
H2341 H 0.51596 0.55505 0.07658 0.0
C2342 C 0.55405 0.56771 0.055 0.0
C2343 C 0.57468 0.57179 0.0437 0.0
C2344 C 0.55013 0.54678 0.06572 0.0
C2345 C 0.59153 0.55487 0.04353 0.0
C2346 C 0.58791 0.53415 0.0545 0.0
C2347 C 0.56322 0.50889 0.07613 0.0
C2348 C 0.54215 0.50422 0.08651 0.0
C2349 C 0.56721 0.52987 0.06554 0.0
C2350 C 0.52531 0.52128 0.08652 0.0
C2351 C 0.52931 0.54234 0.07637 0.0
H2352 H 0.0498 0.2609 0.27302 0.0
H2353 H 0.02497 0.31599 0.2315 0.0
H2354 H 0.98766 0.29794 0.22939 0.0
H2355 H 0.96229 0.26584 0.23826 0.0
H2356 H 0.98702 0.21118 0.28053 0.0
H2357 H 0.02409 0.22944 0.28289 0.0
C2358 C 0.03626 0.26893 0.26342 0.0
C2359 C 0.04032 0.28984 0.25245 0.0
C2360 C 0.01477 0.25841 0.26222 0.0
C2361 C 0.02237 0.30009 0.24037 0.0
C2362 C 1.00101 0.28967 0.23903 0.0
C2363 C 0.97564 0.258 0.24824 0.0
C2364 C 0.97167 0.23694 0.25903 0.0
C2365 C 0.99701 0.26878 0.24981 0.0
C2366 C 0.98951 0.22707 0.27161 0.0
C2367 C 0.01076 0.23761 0.27314 0.0
H2368 H 0.51501 0.71617 0.98561 0.0
H2369 H 0.54986 0.73008 0.04867 0.0
H2370 H 0.52991 0.76626 0.05204 0.0
H2371 H 0.50227 0.79384 0.03752 0.0
H2372 H 0.4681 0.78082 0.97391 0.0
H2373 H 0.48796 0.74449 0.97046 0.0
C2374 C 0.51843 0.72721 0.99997 0.0
C2375 C 0.53389 0.72022 0.01691 0.0
C2376 C 0.50691 0.74817 1.00181 0.0
C2377 C 0.53782 0.73473 0.03554 0.0
C2378 C 0.52649 0.75554 0.03745 0.0
C2379 C 0.49933 0.78323 0.02273 0.0
C2380 C 0.48364 0.79022 1.00601 0.0
C2381 C 0.51094 0.76241 0.02074 0.0
C2382 C 0.4798 0.77587 0.98723 0.0
C2383 C 0.49129 0.7551 0.98515 0.0
H2384 H 0.95976 0.75749 0.24723 0.0
H2385 H 0.98559 0.81228 0.28856 0.0
H2386 H 0.02266 0.79363 0.29048 0.0
H2387 H 0.04743 0.76141 0.28133 0.0
H2388 H 0.02245 0.70747 0.2382 0.0
H2389 H 0.98527 0.72578 0.23675 0.0
C2390 C 0.97351 0.76532 0.25668 0.0
C2391 C 0.96985 0.78631 0.26772 0.0
C2392 C 0.9949 0.75453 0.25763 0.0
C2393 C 0.98795 0.79631 0.27968 0.0
C2394 C 0.00914 0.78557 0.28092 0.0
C2395 C 0.03407 0.75373 0.27125 0.0
C2396 C 0.03804 0.73293 0.2599 0.0
C2397 C 0.0128 0.76465 0.26999 0.0
C2398 C 0.02004 0.72319 0.24747 0.0
C2399 C 0.99873 0.73378 0.24645 0.0
H2400 H 0.97195 0.7413 0.02699 0.0
H2401 H 0.01193 0.71134 0.97311 0.0
H2402 H 0.03459 0.7458 0.9705 0.0
H2403 H 0.04365 0.78445 0.98368 0.0
H2404 H 1.005 0.81388 0.03863 0.0
H2405 H 0.98177 0.77952 0.04098 0.0
C2406 C 0.98576 0.74212 0.01482 0.0
C2407 C 0.9899 0.72359 1.00013 0.0
C2408 C 0.99916 0.76196 0.01366 0.0
C2409 C 1.00781 0.72535 0.98432 0.0
C2410 C 0.021 0.74506 0.98292 0.0
C2411 C 0.03006 0.7834 0.99608 0.0
C2412 C 0.02609 0.80179 0.01092 0.0
C2413 C 0.01682 0.7635 0.99745 0.0
C2414 C 1.0086 0.79994 0.02713 0.0
C2415 C 0.99522 0.78032 0.02841 0.0
H2416 H 0.26052 0.96582 0.26701 0.0
H2417 H 0.25675 0.99581 0.19994 0.0
H2418 H 0.25846 0.03345 0.21676 0.0
H2419 H 0.26036 0.05816 0.25046 0.0
H2420 H 0.25632 0.02752 0.31724 0.0
H2421 H 0.25802 0.99016 0.3003 0.0
C2422 C 0.25946 0.98034 0.25579 0.0
C2423 C 0.25854 0.97728 0.23194 0.0
C2424 C 0.25914 1.00219 0.26558 0.0
C2425 C 0.25805 0.99698 0.21823 0.0
C2426 C 0.25874 0.01878 0.22789 0.0
C2427 C 0.25942 0.04349 0.2615 0.0
C2428 C 0.25872 0.04633 0.28541 0.0
C2429 C 0.25916 0.02162 0.25158 0.0
C2430 C 0.25783 0.02654 0.29895 0.0
C2431 C 0.25848 1.00488 0.28923 0.0
H2432 H 0.2916 0.48236 0.99269 0.0
H2433 H 0.29298 0.55516 0.98303 0.0
H2434 H 0.25804 0.55897 1.00469 0.0
H2435 H 0.22714 0.54202 0.02676 0.0
H2436 H 0.22323 0.46892 0.03283 0.0
H2437 H 0.25895 0.46511 0.01236 0.0
C2438 C 0.28419 0.49907 0.99497 0.0
C2439 C 0.29545 0.51843 0.98634 0.0
C2440 C 0.26354 0.50121 1.00702 0.0
C2441 C 0.28537 0.5399 0.9899 0.0
C2442 C 0.26513 0.54214 1.00217 0.0
C2443 C 0.23376 0.52516 0.02337 0.0
C2444 C 0.22223 0.50586 0.03175 0.0
C2445 C 0.25409 0.52294 0.01089 0.0
C2446 C 0.23171 0.48426 0.02731 0.0
C2447 C 0.25215 0.48199 0.01531 0.0
H2448 H 0.74459 0.55057 0.26103 0.0
H2449 H 0.78469 0.52412 0.20559 0.0
H2450 H 0.78575 0.4868 0.22379 0.0
H2451 H 0.77583 0.4617 0.25579 0.0
H2452 H 0.73522 0.48789 0.31097 0.0
H2453 H 0.73375 0.52513 0.29257 0.0
C2454 C 0.75362 0.53664 0.25298 0.0
C2455 C 0.76459 0.54021 0.23197 0.0
C2456 C 0.75405 0.51513 0.2635 0.0
C2457 C 0.77594 0.52186 0.22163 0.0
C2458 C 0.77665 0.50051 0.23209 0.0
C2459 C 0.76672 0.47559 0.26383 0.0
C2460 C 0.75573 0.47198 0.28482 0.0
C2461 C 0.76585 0.49696 0.25308 0.0
C2462 C 0.74369 0.49009 0.29478 0.0
C2463 C 0.74294 0.51145 0.2843 0.0
H2464 H 0.80214 1.00273 1.00424 0.0
H2465 H 0.77012 0.01027 0.07009 0.0
H2466 H 0.73327 0.01247 0.05201 0.0
H2467 H 0.70966 0.01219 0.01777 0.0
H2468 H 0.74105 0.99739 0.95285 0.0
H2469 H 0.77815 0.99812 0.97054 0.0
C2470 C 0.78726 1.00441 0.01493 0.0
C2471 C 0.78965 1.0067 0.03878 0.0
C2472 C 0.76563 1.00451 1.00453 0.0
C2473 C 0.76959 0.00928 0.05175 0.0
C2474 C 0.74818 0.01024 0.0414 0.0
C2475 C 0.72437 1.00864 1.00731 0.0
C2476 C 0.72187 1.00512 0.98363 0.0
C2477 C 0.74595 1.00788 0.0178 0.0
C2478 C 0.74181 1.00102 0.97084 0.0
C2479 C 0.76331 1.00111 0.98105 0.0
H2480 H 0.25539 0.27589 0.96309 0.0
H2481 H 0.2185 0.21413 0.97727 0.0
H2482 H 0.23889 0.20983 0.01304 0.0
H2483 H 0.26702 0.22342 0.04044 0.0
H2484 H 0.30307 0.28594 0.02755 0.0
H2485 H 0.28346 0.28989 0.99112 0.0
C2486 C 0.25167 0.2616 0.9741 0.0
C2487 C 0.23545 0.24531 0.96732 0.0
C2488 C 0.26345 0.25924 0.99486 0.0
C2489 C 0.23111 0.22675 0.98176 0.0
C2490 C 0.2427 0.22431 1.00233 0.0
C2491 C 0.27049 0.23807 0.02982 0.0
C2492 C 0.28651 0.25439 0.03693 0.0
C2493 C 0.2589 0.24043 0.00905 0.0
C2494 C 0.29107 0.27293 0.02252 0.0
C2495 C 0.27969 0.27532 1.00172 0.0
H2496 H 0.30135 0.76627 0.49346 0.0
H2497 H 0.24764 0.73514 0.45478 0.0
H2498 H 0.22375 0.73321 0.48896 0.0
H2499 H 0.21768 0.74201 0.52958 0.0
H2500 H 0.2731 0.77026 0.56865 0.0
H2501 H 0.29653 0.77185 0.53471 0.0
C2502 C 0.28447 0.75893 0.49265 0.0
C2503 C 0.27616 0.75092 0.47174 0.0
C2504 C 0.27103 0.75756 0.51242 0.0
C2505 C 0.25434 0.74133 0.47079 0.0
C2506 C 0.24069 0.7403 0.49029 0.0
C2507 C 0.23498 0.7482 0.53084 0.0
C2508 C 0.2432 0.7565 0.55183 0.0
C2509 C 0.24879 0.74854 0.51121 0.0
C2510 C 0.26578 0.7645 0.55279 0.0
C2511 C 0.2794 0.76523 0.53334 0.0
H2512 H 1.00378 0.46758 0.77583 0.0
H2513 H 0.01742 0.52669 0.81706 0.0
H2514 H 0.01797 0.55054 0.78315 0.0
H2515 H 0.01578 0.55468 0.7415 0.0
H2516 H 1.00219 0.49564 0.70017 0.0
H2517 H 1.00042 0.47194 0.73418 0.0
C2518 C 1.00664 0.48571 0.77743 0.0
C2519 C 0.01071 0.49519 0.79909 0.0
C2520 C 1.00707 0.49944 0.75772 0.0
C2521 C 0.0146 0.51876 0.80067 0.0
C2522 C 0.01482 0.5325 0.78125 0.0
C2523 C 0.01217 0.53668 0.73991 0.0
C2524 C 0.00923 0.52705 0.71814 0.0
C2525 C 0.01126 0.52303 0.75964 0.0
C2526 C 1.00486 0.50356 0.71657 0.0
C2527 C 1.00373 0.48996 0.73608 0.0
H2528 H 0.75948 0.76684 0.4653 0.0
H2529 H 0.7024 0.73151 0.49457 0.0
H2530 H 0.72159 0.73047 0.53143 0.0
H2531 H 0.75484 0.73891 0.55522 0.0
H2532 H 0.81086 0.77679 0.52663 0.0
H2533 H 0.79212 0.77692 0.48975 0.0
C2534 C 0.75128 0.75888 0.47976 0.0
C2535 C 0.72949 0.74926 0.47711 0.0
C2536 C 0.76233 0.75859 0.50107 0.0
C2537 C 0.71903 0.73923 0.49612 0.0
C2538 C 0.73007 0.73853 0.5172 0.0
C2539 C 0.76293 0.74755 0.54113 0.0
C2540 C 0.78453 0.75768 0.54407 0.0
C2541 C 0.75173 0.74817 0.51991 0.0
C2542 C 0.79461 0.76833 0.52511 0.0
C2543 C 0.78376 0.76863 0.50391 0.0
H2544 H 0.52565 0.50254 0.21791 0.0
H2545 H 0.476 0.45275 0.23828 0.0
H2546 H 0.47172 0.47173 0.2751 0.0
H2547 H 0.48052 0.50361 0.30048 0.0
H2548 H 0.5327 0.55164 0.2813 0.0
H2549 H 0.53691 0.53263 0.24483 0.0
C2550 C 0.51403 0.49577 0.23052 0.0
C2551 C 0.50114 0.47628 0.22537 0.0
C2552 C 0.51178 0.50669 0.25171 0.0
C2553 C 0.48627 0.46759 0.2419 0.0
C2554 C 0.48369 0.47856 0.26288 0.0
C2555 C 0.4932 0.50981 0.28868 0.0
C2556 C 0.50605 0.52941 0.29395 0.0
C2557 C 0.49619 0.49828 0.26789 0.0
C2558 C 0.522 0.53711 0.2778 0.0
C2559 C 0.52466 0.52604 0.25691 0.0
H2560 H 0.98934 0.05181 0.77501 0.0
H2561 H 0.02389 1.00001 0.81364 0.0
H2562 H 0.02718 0.97633 0.77963 0.0
H2563 H 0.0193 0.96976 0.73902 0.0
H2564 H 0.98357 0.02092 0.70059 0.0
H2565 H 0.98161 0.04528 0.73423 0.0
C2566 C 0.99777 0.03543 0.77588 0.0
C2567 C 1.00637 0.0277 0.79682 0.0
C2568 C 0.99926 0.02168 0.75628 0.0
C2569 C 0.01699 1.00629 0.79776 0.0
C2570 C 0.01891 0.99274 0.7783 0.0
C2571 C 0.01124 0.98631 0.73798 0.0
C2572 C 1.00156 0.99345 0.7173 0.0
C2573 C 0.00996 1.00017 0.7575 0.0
C2574 C 0.99093 0.01487 0.71634 0.0
C2575 C 0.9899 0.02888 0.73556 0.0
H2576 H 0.46828 0.762 0.77598 0.0
H2577 H 0.49056 0.7102 0.72908 0.0
H2578 H 0.52719 0.72937 0.72491 0.0
H2579 H 0.55233 0.76135 0.73359 0.0
H2580 H 0.53129 0.81168 0.78291 0.0
H2581 H 0.49456 0.793 0.78644 0.0
C2582 C 0.4812 0.75491 0.76489 0.0
C2583 C 0.47668 0.73469 0.75286 0.0
C2584 C 0.50235 0.76593 0.76273 0.0
C2585 C 0.49367 0.7256 0.73871 0.0
C2586 C 0.51457 0.73664 0.7362 0.0
C2587 C 0.54001 0.76815 0.74547 0.0
C2588 C 0.54492 0.78815 0.75786 0.0
C2589 C 0.51907 0.75687 0.74806 0.0
C2590 C 0.52813 0.79671 0.77269 0.0
C2591 C 0.50708 0.78586 0.77494 0.0
H2592 H 0.0133 0.30337 0.49583 0.0
H2593 H 0.95468 0.27725 0.53115 0.0
H2594 H 0.97273 0.23987 0.53389 0.0
H2595 H 1.00547 0.21453 0.52655 0.0
H2596 H 0.06354 0.24054 0.49024 0.0
H2597 H 0.04552 0.2779 0.48765 0.0
C2598 C 1.00452 0.2895 0.50418 0.0
C2599 C 0.98268 0.29315 0.51329 0.0
C2600 C 0.01494 0.26798 0.50554 0.0
C2601 C 0.9714 0.27489 0.5238 0.0
C2602 C 0.98177 0.25352 0.52549 0.0
C2603 C 0.01418 0.22843 0.51815 0.0
C2604 C 0.03584 0.22474 0.50863 0.0
C2605 C 1.00357 0.24986 0.51648 0.0
C2606 C 0.0468 0.24285 0.49755 0.0
C2607 C 0.03654 0.26426 0.49613 0.0
H2608 H 0.46866 0.25781 0.74709 0.0
H2609 H 0.49202 0.31429 0.7876 0.0
H2610 H 0.52962 0.29682 0.79062 0.0
H2611 H 0.55608 0.2653 0.78179 0.0
H2612 H 0.53245 0.20901 0.74115 0.0
H2613 H 0.49492 0.22647 0.73831 0.0
C2614 C 0.48191 0.26625 0.75672 0.0
C2615 C 0.47738 0.28739 0.76709 0.0
C2616 C 0.50356 0.25609 0.75839 0.0
C2617 C 0.49498 0.29818 0.77919 0.0
C2618 C 0.51651 0.28811 0.78105 0.0
C2619 C 0.54267 0.25679 0.77245 0.0
C2620 C 0.5472 0.23585 0.76165 0.0
C2621 C 0.52102 0.26704 0.77074 0.0
C2622 C 0.52962 0.22524 0.7494 0.0
C2623 C 0.50807 0.23518 0.74784 0.0
H2624 H 0.5314 0.28815 0.48135 0.0
H2625 H 0.5156 0.30406 0.55114 0.0
H2626 H 0.49382 0.26876 0.55447 0.0
H2627 H 0.47949 0.23282 0.53749 0.0
H2628 H 0.49719 0.21645 0.4683 0.0
H2629 H 0.51763 0.25244 0.46465 0.0
C2630 C 0.52305 0.28397 0.49725 0.0
C2631 C 0.5251 0.29881 0.51594 0.0
C2632 C 0.51078 0.26352 0.4991 0.0
C2633 C 0.51447 0.2929 0.53654 0.0
C2634 C 0.5019 0.27275 0.53841 0.0
C2635 C 0.4877 0.23731 0.52161 0.0
C2636 C 0.48675 0.22211 0.50313 0.0
C2637 C 0.49995 0.25787 0.51981 0.0
C2638 C 0.4977 0.22792 0.48272 0.0
C2639 C 0.5094 0.24847 0.48064 0.0
H2640 H 0.74505 0.5269 0.80139 0.0
H2641 H 0.77998 0.56506 0.74955 0.0
H2642 H 0.78191 0.53127 0.72543 0.0
H2643 H 0.77252 0.49117 0.71844 0.0
H2644 H 0.73667 0.45309 0.76975 0.0
H2645 H 0.73609 0.48644 0.79455 0.0
C2646 C 0.7533 0.52769 0.78492 0.0
C2647 C 0.76239 0.54843 0.77727 0.0
C2648 C 0.75399 0.50824 0.77093 0.0
C2649 C 0.77276 0.54931 0.75575 0.0
C2650 C 0.77387 0.53 0.74196 0.0
C2651 C 0.76476 0.49012 0.73512 0.0
C2652 C 0.75461 0.46965 0.74216 0.0
C2653 C 0.76436 0.50942 0.74926 0.0
C2654 C 0.74435 0.4687 0.76375 0.0
C2655 C 0.74413 0.48774 0.77802 0.0
H2656 H 0.72451 0.99667 0.50953 0.0
H2657 H 0.74814 0.03914 0.56445 0.0
H2658 H 0.78559 0.0417 0.5466 0.0
H2659 H 0.81141 0.03269 0.51474 0.0
H2660 H 0.78743 0.99036 0.45984 0.0
H2661 H 0.75041 0.98701 0.47826 0.0
C2662 C 0.73783 1.00655 0.51757 0.0
C2663 C 0.73345 0.01776 0.53828 0.0
C2664 C 0.75929 1.00802 0.50717 0.0
C2665 C 0.75107 0.03016 0.54864 0.0
C2666 C 0.77246 0.03177 0.53835 0.0
C2667 C 0.79804 0.02281 0.50679 0.0
C2668 C 0.80223 0.01181 0.48592 0.0
C2669 C 0.77673 0.02091 0.51752 0.0
C2670 C 0.78479 0.99881 0.476 0.0
C2671 C 0.76356 0.99697 0.48647 0.0
H2672 H 0.26063 0.99461 0.80471 0.0
H2673 H 0.25359 0.95086 0.74603 0.0
H2674 H 0.25544 0.98358 0.7211 0.0
H2675 H 0.26031 0.02441 0.7155 0.0
H2676 H 0.26137 0.06883 0.77412 0.0
H2677 H 0.2607 0.03607 0.79912 0.0
C2678 C 0.2591 0.99209 0.78653 0.0
C2679 C 0.25761 0.96988 0.77754 0.0
C2680 C 0.25934 0.01122 0.77203 0.0
C2681 C 0.2557 0.96743 0.75373 0.0
C2682 C 0.25651 0.98626 0.7393 0.0
C2683 C 0.25994 0.02722 0.73368 0.0
C2684 C 0.26138 0.0495 0.74252 0.0
C2685 C 0.25857 1.00824 0.74822 0.0
C2686 C 0.26116 0.05214 0.7664 0.0
C2687 C 0.26048 0.0333 0.78091 0.0
H2688 H 0.28199 0.47599 0.53647 0.0
H2689 H 0.305 0.5418 0.51365 0.0
H2690 H 0.27092 0.5459 0.49046 0.0
H2691 H 0.2341 0.53107 0.47678 0.0
H2692 H 0.2126 0.46421 0.49793 0.0
H2693 H 0.24651 0.46034 0.52125 0.0
C2694 C 0.27981 0.49114 0.52623 0.0
C2695 C 0.29622 0.50859 0.52714 0.0
C2696 C 0.26026 0.4933 0.51253 0.0
C2697 C 0.29262 0.52821 0.51385 0.0
C2698 C 0.27314 0.53053 0.50035 0.0
C2699 C 0.23691 0.51554 0.48627 0.0
C2700 C 0.22042 0.49815 0.48572 0.0
C2701 C 0.25677 0.51322 0.49959 0.0
C2702 C 0.22451 0.47821 0.49836 0.0
C2703 C 0.24408 0.47586 0.51164 0.0
H2704 H 0.75164 0.23824 0.04778 0.0
H2705 H 0.71308 0.29883 0.03275 0.0
H2706 H 0.73306 0.3029 0.99668 0.0
H2707 H 0.76213 0.28997 0.96966 0.0
H2708 H 0.80017 0.22886 0.98394 0.0
H2709 H 0.7799 0.22445 0.01988 0.0
C2710 C 0.74742 0.25219 0.03651 0.0
C2711 C 0.73093 0.26828 0.0432 0.0
C2712 C 0.75903 0.25448 0.01562 0.0
C2713 C 0.72593 0.28637 0.02835 0.0
C2714 C 0.73729 0.28868 1.0076 0.0
C2715 C 0.76584 0.2755 0.98044 0.0
C2716 C 0.78282 0.25985 0.97394 0.0
C2717 C 0.75399 0.27294 1.00111 0.0
C2718 C 0.78752 0.24144 0.98852 0.0
C2719 C 0.7758 0.23879 0.00908 0.0
H2720 H 0.47863 0.97783 0.2897 0.0
H2721 H 0.54787 0.99351 0.30777 0.0
H2722 H 0.55248 0.01519 0.27268 0.0
H2723 H 0.53687 0.03017 0.23699 0.0
H2724 H 0.46728 0.01594 0.21906 0.0
H2725 H 0.46268 0.9936 0.25387 0.0
C2726 C 0.49473 0.98592 0.28583 0.0
C2727 C 0.51289 0.98404 0.30135 0.0
C2728 C 0.49715 0.9988 0.26569 0.0
C2729 C 0.53359 0.99481 0.29621 0.0
C2730 C 0.53625 1.00719 0.27612 0.0
C2731 C 0.52072 0.0221 0.24063 0.0
C2732 C 0.50248 0.02474 0.22532 0.0
C2733 C 0.51815 0.0094 0.26076 0.0
C2734 C 0.48156 0.01441 0.23058 0.0
C2735 C 0.47896 1.00149 0.25045 0.0
H2736 H 0.11515 0.46333 0.13185 0.0
H2737 H 0.18399 0.4736 0.15484 0.0
H2738 H 0.18016 0.44145 0.1811 0.0
H2739 H 0.15742 0.40917 0.1964 0.0
H2740 H 0.08852 0.40022 0.17305 0.0
H2741 H 0.09222 0.43304 0.14817 0.0
C2742 C 0.12941 0.45856 0.14252 0.0
C2743 C 0.14993 0.47075 0.14112 0.0
C2744 C 0.12704 0.44022 0.1576 0.0
C2745 C 0.16802 0.46448 0.15545 0.0
C2746 C 0.16583 0.44608 0.17049 0.0
C2747 C 0.14316 0.41465 0.18611 0.0
C2748 C 0.12277 0.40205 0.18644 0.0
C2749 C 0.14544 0.43368 0.17162 0.0
C2750 C 0.1045 0.40932 0.17285 0.0
C2751 C 0.10658 0.42815 0.15864 0.0
H2752 H 0.67905 0.6048 0.154 0.0
H2753 H 0.73649 0.63574 0.12036 0.0
H2754 H 0.71292 0.64461 0.08761 0.0
H2755 H 0.67555 0.64573 0.06916 0.0
H2756 H 0.61813 0.61408 0.10156 0.0
H2757 H 0.64204 0.60326 0.13397 0.0
C2758 C 0.68649 0.6132 0.13939 0.0
C2759 C 0.70954 0.61974 0.13988 0.0
C2760 C 0.67276 0.61835 0.1204 0.0
C2761 C 0.71882 0.63057 0.12067 0.0
C2762 C 0.70532 0.63576 0.10187 0.0
C2763 C 0.6683 0.63651 0.08336 0.0
C2764 C 0.64507 0.63099 0.08315 0.0
C2765 C 0.6822 0.63016 0.10173 0.0
C2766 C 0.63597 0.61854 0.10139 0.0
C2767 C 0.64964 0.61242 0.11992 0.0
H2768 H 0.87854 0.14312 0.15474 0.0
H2769 H 0.89519 0.09988 0.21129 0.0
H2770 H 0.8901 0.06605 0.18716 0.0
H2771 H 0.88253 0.049 0.14898 0.0
H2772 H 0.86462 0.09366 0.09349 0.0
H2773 H 0.86857 0.12645 0.11809 0.0
C2774 C 0.88111 0.12628 0.16176 0.0
C2775 C 0.88756 0.12399 0.18464 0.0
C2776 C 0.87793 0.10709 0.1479 0.0
C2777 C 0.89026 0.10204 0.19369 0.0
C2778 C 0.88742 0.08274 0.17986 0.0
C2779 C 0.87932 0.06589 0.14235 0.0
C2780 C 0.87342 0.06867 0.11924 0.0
C2781 C 0.88148 0.08505 0.15679 0.0
C2782 C 0.86923 0.09078 0.11107 0.0
C2783 C 0.87153 0.1097 0.12515 0.0
H2784 H 0.36769 0.89651 0.09309 0.0
H2785 H 0.35144 0.83238 0.06187 0.0
H2786 H 0.31633 0.83003 0.08395 0.0
H2787 H 0.29233 0.84423 0.11449 0.0
H2788 H 0.30859 0.90746 0.14786 0.0
H2789 H 0.3414 0.9124 0.12255 0.0
C2790 C 0.35611 0.88236 0.09091 0.0
C2791 C 0.36194 0.86461 0.07592 0.0
C2792 C 0.33616 0.88087 0.10422 0.0
C2793 C 0.34713 0.84614 0.07334 0.0
C2794 C 0.32716 0.84478 0.08601 0.0
C2795 C 0.30289 0.85923 0.11618 0.0
C2796 C 0.29811 0.87532 0.13324 0.0
C2797 C 0.32182 0.86173 0.1019 0.0
C2798 C 0.31189 0.89477 0.13491 0.0
C2799 C 0.33072 0.89755 0.12049 0.0
H2800 H 0.1326 0.64299 0.36566 0.0
H2801 H 0.12388 0.59971 0.30733 0.0
H2802 H 0.13094 0.56599 0.33099 0.0
H2803 H 0.13779 0.54883 0.36908 0.0
H2804 H 0.14814 0.59335 0.4266 0.0
H2805 H 0.1424 0.62636 0.40254 0.0
C2806 C 0.13224 0.62615 0.35817 0.0
C2807 C 0.12741 0.62377 0.33489 0.0
C2808 C 0.13664 0.60701 0.37178 0.0
C2809 C 0.12752 0.60192 0.32524 0.0
C2810 C 0.13149 0.58267 0.33879 0.0
C2811 C 0.13901 0.56575 0.37628 0.0
C2812 C 0.14327 0.56842 0.39976 0.0
C2813 C 0.13583 0.58498 0.3622 0.0
C2814 C 0.1449 0.59058 0.40869 0.0
C2815 C 0.14152 0.60959 0.39493 0.0
H2816 H 0.84175 0.6135 0.86188 0.0
H2817 H 0.78303 0.63999 0.89722 0.0
H2818 H 0.80626 0.64813 0.93041 0.0
H2819 H 0.84362 0.64987 0.94887 0.0
H2820 H 0.90228 0.62233 0.91483 0.0
H2821 H 0.87881 0.61237 0.88179 0.0
C2822 C 0.83398 0.62081 0.87692 0.0
C2823 C 0.81065 0.62629 0.87684 0.0
C2824 C 0.84749 0.62546 0.89617 0.0
C2825 C 0.80091 0.63563 0.89663 0.0
C2826 C 0.81421 0.6404 0.91568 0.0
C2827 C 0.85121 0.64171 0.93418 0.0
C2828 C 0.87464 0.63713 0.93408 0.0
C2829 C 0.83757 0.6358 0.91549 0.0
C2830 C 0.88425 0.62605 0.91521 0.0
C2831 C 0.87085 0.62042 0.89634 0.0
H2832 H 0.89581 0.98323 0.34589 0.0
H2833 H 0.87507 0.95473 0.41027 0.0
H2834 H 0.87306 0.91707 0.39324 0.0
H2835 H 0.87909 0.89176 0.36064 0.0
H2836 H 0.89852 0.91977 0.29592 0.0
H2837 H 0.89903 0.9581 0.31239 0.0
C2838 C 0.89066 0.96881 0.35613 0.0
C2839 C 0.88579 0.97183 0.37937 0.0
C2840 C 0.88944 0.94708 0.3462 0.0
C2841 C 0.87893 0.95297 0.39235 0.0
C2842 C 0.87787 0.93136 0.38266 0.0
C2843 C 0.88346 0.9063 0.35021 0.0
C2844 C 0.88906 0.90304 0.32724 0.0
C2845 C 0.88344 0.92816 0.35973 0.0
C2846 C 0.89417 0.92198 0.31367 0.0
C2847 C 0.89453 0.94382 0.3231 0.0
H2848 H 0.1319 0.89822 0.92224 0.0
H2849 H 0.17595 0.85309 0.95959 0.0
H2850 H 0.20609 0.8588 0.93174 0.0
H2851 H 0.21952 0.87517 0.89586 0.0
H2852 H 0.17528 0.91924 0.8574 0.0
H2853 H 0.14593 0.9157 0.88663 0.0
C2854 C 0.14817 0.88983 0.92435 0.0
C2855 C 0.15152 0.87507 0.94291 0.0
C2856 C 0.16548 0.89303 0.90805 0.0
C2857 C 0.1727 0.86419 0.9453 0.0
C2858 C 0.19004 0.86757 0.92943 0.0
C2859 C 0.20359 0.88427 0.89398 0.0
C2860 C 0.19969 0.8975 0.87442 0.0
C2861 C 0.18656 0.88173 0.9106 0.0
C2862 C 0.17879 0.90893 0.87223 0.0
C2863 C 0.16194 0.90687 0.88894 0.0
H2864 H 0.16351 0.14107 0.38728 0.0
H2865 H 0.22726 0.12482 0.41941 0.0
H2866 H 0.209 0.12605 0.45685 0.0
H2867 H 0.17432 0.12968 0.48014 0.0
H2868 H 0.11079 0.14701 0.44774 0.0
H2869 H 0.12953 0.14758 0.41076 0.0
C2870 C 0.17335 0.13779 0.40251 0.0
C2871 C 0.1966 0.13258 0.40064 0.0
C2872 C 0.16277 0.13874 0.4239 0.0
C2873 C 0.20933 0.12887 0.42049 0.0
C2874 C 0.19888 0.1295 0.44185 0.0
C2875 C 0.16462 0.13378 0.46501 0.0
C2876 C 0.14114 0.13813 0.46673 0.0
C2877 C 0.17553 0.13414 0.44373 0.0
C2878 C 0.12888 0.14362 0.44696 0.0
C2879 C 0.13956 0.14384 0.42576 0.0
H2880 H 0.4149 0.60909 0.79586 0.0
H2881 H 0.36415 0.65935 0.81301 0.0
H2882 H 0.35468 0.63849 0.84745 0.0
H2883 H 0.35955 0.60511 0.87215 0.0
H2884 H 0.4108 0.55534 0.85593 0.0
H2885 H 0.42143 0.57686 0.82198 0.0
C2886 C 0.40187 0.61555 0.80719 0.0
C2887 C 0.3902 0.63573 0.80166 0.0
C2888 C 0.39654 0.60351 0.82722 0.0
C2889 C 0.37347 0.6439 0.81672 0.0
C2890 C 0.36795 0.63194 0.83646 0.0
C2891 C 0.37307 0.59906 0.86118 0.0
C2892 C 0.3843 0.57864 0.86652 0.0
C2893 C 0.37916 0.6116 0.84176 0.0
C2894 C 0.40203 0.57111 0.85233 0.0
C2895 C 0.40801 0.58335 0.83283 0.0
H2896 H 0.90545 0.36163 0.42645 0.0
H2897 H 0.87076 0.39031 0.48452 0.0
H2898 H 0.83757 0.39824 0.46116 0.0
H2899 H 0.81888 0.3989 0.42387 0.0
H2900 H 0.85252 0.36949 0.36584 0.0
H2901 H 0.8855 0.35989 0.38948 0.0
C2902 C 0.89055 0.36938 0.43406 0.0
C2903 C 0.8908 0.37549 0.45723 0.0
C2904 C 0.87134 0.37395 0.42047 0.0
C2905 C 0.87121 0.38545 0.46676 0.0
C2906 C 0.85217 0.3901 0.45338 0.0
C2907 C 0.83348 0.39047 0.41642 0.0
C2908 C 0.83343 0.38519 0.3931 0.0
C2909 C 0.85219 0.3848 0.43015 0.0
C2910 C 0.85222 0.37374 0.38375 0.0
C2911 C 0.87106 0.36831 0.39726 0.0
H2912 H 0.64494 0.90898 0.8789 0.0
H2913 H 0.62485 0.97337 0.84994 0.0
H2914 H 0.61842 0.95504 0.81335 0.0
H2915 H 0.61922 0.92079 0.78907 0.0
H2916 H 0.64123 0.85701 0.81791 0.0
H2917 H 0.64632 0.87513 0.85476 0.0
C2918 C 0.63938 0.91919 0.86465 0.0
C2919 C 0.63541 0.94268 0.86752 0.0
C2920 C 0.636 0.90859 0.84343 0.0
C2921 C 0.62782 0.95528 0.84861 0.0
C2922 C 0.62423 0.9448 0.82752 0.0
C2923 C 0.625 0.9108 0.80343 0.0
C2924 C 0.62965 0.88743 0.80057 0.0
C2925 C 0.62828 0.92145 0.82469 0.0
C2926 C 0.63736 0.87492 0.81945 0.0
C2927 C 0.64035 0.88531 0.84062 0.0
H2928 H 0.15696 0.88357 0.13511 0.0
H2929 H 0.22174 0.89454 0.10285 0.0
H2930 H 0.20362 0.89323 0.06537 0.0
H2931 H 0.16895 0.89102 0.04196 0.0
H2932 H 0.10427 0.87885 0.07434 0.0
H2933 H 0.12272 0.87842 0.11154 0.0
C2934 C 0.16705 0.88567 0.11984 0.0
C2935 C 0.1906 0.88941 0.12171 0.0
C2936 C 0.15653 0.88467 0.0984 0.0
C2937 C 0.20361 0.89161 0.10181 0.0
C2938 C 0.19323 0.89095 0.08041 0.0
C2939 C 0.15891 0.88808 0.05714 0.0
C2940 C 0.13523 0.88514 0.05535 0.0
C2941 C 0.16965 0.88777 0.07852 0.0
C2942 C 0.12252 0.88113 0.07519 0.0
C2943 C 0.13304 0.88099 0.0965 0.0
H2944 H 0.11998 0.60115 0.14572 0.0
H2945 H 0.1628 0.54876 0.17333 0.0
H2946 H 0.16469 0.56911 0.2098 0.0
H2947 H 0.15683 0.60369 0.23243 0.0
H2948 H 0.1116 0.65479 0.20554 0.0
H2949 H 0.10768 0.63309 0.17034 0.0
C2950 C 0.12931 0.59409 0.15996 0.0
C2951 C 0.14129 0.5736 0.15703 0.0
C2952 C 0.13002 0.60577 0.18086 0.0
C2953 C 0.15336 0.56444 0.17542 0.0
C2954 C 0.15454 0.57616 0.19614 0.0
C2955 C 0.14589 0.60995 0.21897 0.0
C2956 C 0.13492 0.63113 0.22149 0.0
C2957 C 0.14336 0.59712 0.19888 0.0
C2958 C 0.12047 0.63873 0.20403 0.0
C2959 C 0.11824 0.62633 0.18383 0.0
H2960 H 0.84944 0.62708 0.03895 0.0
H2961 H 0.91038 0.65143 0.07175 0.0
H2962 H 0.8908 0.65169 0.10837 0.0
H2963 H 0.85715 0.6423 0.13157 0.0
H2964 H 0.79586 0.61943 0.09876 0.0
H2965 H 0.81468 0.62144 0.06161 0.0
C2966 C 0.8584 0.63268 0.05406 0.0
C2967 C 0.88149 0.63888 0.0526 0.0
C2968 C 0.84698 0.6329 0.07509 0.0
C2969 C 0.89268 0.64641 0.07233 0.0
C2970 C 0.88151 0.64648 0.09334 0.0
C2971 C 0.84795 0.63784 0.11624 0.0
C2972 C 0.82526 0.63042 0.11786 0.0
C2973 C 0.85883 0.63928 0.09499 0.0
C2974 C 0.81332 0.62517 0.09788 0.0
C2975 C 0.82411 0.62624 0.07669 0.0
H2976 H 0.85139 0.9412 0.17269 0.0
H2977 H 0.91317 0.932 0.13473 0.0
H2978 H 0.92502 0.90144 0.16063 0.0
H2979 H 0.91641 0.87578 0.19309 0.0
H2980 H 0.85555 0.88766 0.23238 0.0
H2981 H 0.84485 0.91866 0.20727 0.0
C2982 C 0.86755 0.93262 0.17037 0.0
C2983 C 0.88138 0.93864 0.15194 0.0
C2984 C 0.87435 0.91546 0.18554 0.0
C2985 C 0.90237 0.92763 0.14898 0.0
C2986 C 0.90905 0.91011 0.16369 0.0
C2987 C 0.90094 0.88532 0.19623 0.0
C2988 C 0.88678 0.87923 0.21454 0.0
C2989 C 0.895 0.90362 0.18188 0.0
C2990 C 0.86687 0.89194 0.21851 0.0
C2991 C 0.86062 0.90967 0.20407 0.0
H2992 H 0.47523 0.16034 0.1615 0.0
H2993 H 0.44783 0.10014 0.1297 0.0
H2994 H 0.41302 0.12041 0.12054 0.0
H2995 H 0.39065 0.15539 0.1201 0.0
H2996 H 0.41709 0.21607 0.15144 0.0
H2997 H 0.45158 0.19545 0.16258 0.0
C2998 C 0.46155 0.15162 0.15276 0.0
C2999 C 0.46443 0.12875 0.14603 0.0
C3000 C 0.44131 0.16349 0.14742 0.0
C3001 C 0.44642 0.11779 0.13473 0.0
C3002 C 0.42638 0.12936 0.12953 0.0
C3003 C 0.40397 0.16419 0.12926 0.0
C3004 C 0.4013 0.18736 0.13467 0.0
C3005 C 0.42375 0.15227 0.13546 0.0
C3006 C 0.41859 0.19825 0.1471 0.0
C3007 C 0.4384 0.18647 0.15338 0.0
H3008 H 0.42037 0.816 0.40459 0.0
H3009 H 0.36529 0.85137 0.37179 0.0
H3010 H 0.39093 0.88269 0.36198 0.0
H3011 H 0.42869 0.90084 0.3645 0.0
H3012 H 0.48393 0.86466 0.39657 0.0
H3013 H 0.45866 0.83285 0.40469 0.0
C3014 C 0.41399 0.83061 0.39536 0.0
C3015 C 0.39087 0.83152 0.3892 0.0
C3016 C 0.42891 0.84839 0.38958 0.0
C3017 C 0.38298 0.8503 0.37674 0.0
C3018 C 0.39764 0.86822 0.37119 0.0
C3019 C 0.43529 0.8859 0.37305 0.0
C3020 C 0.45823 0.88532 0.38 0.0
C3021 C 0.42061 0.86756 0.37772 0.0
C3022 C 0.46642 0.86569 0.39096 0.0
C3023 C 0.45193 0.84748 0.39574 0.0
H3024 H 0.09647 0.28694 0.87537 0.0
H3025 H 0.1596 0.31946 0.89373 0.0
H3026 H 0.14042 0.35626 0.8952 0.0
H3027 H 0.10636 0.37967 0.88821 0.0
H3028 H 0.04294 0.34733 0.87146 0.0
H3029 H 0.06145 0.30993 0.87263 0.0
C3030 C 0.10599 0.30204 0.87994 0.0
C3031 C 0.12955 0.30045 0.88407 0.0
C3032 C 0.0948 0.32318 0.88092 0.0
C3033 C 0.14152 0.32015 0.89032 0.0
C3034 C 0.13058 0.34125 0.89109 0.0
C3035 C 0.09663 0.36437 0.88499 0.0
C3036 C 0.07343 0.36616 0.87946 0.0
C3037 C 0.10736 0.34303 0.88591 0.0
C3038 C 0.06081 0.34627 0.87575 0.0
C3039 C 0.07142 0.32496 0.87631 0.0
H3040 H 0.59209 0.6945 0.39178 0.0
H3041 H 0.64901 0.65094 0.37707 0.0
H3042 H 0.62331 0.62002 0.36654 0.0
H3043 H 0.58485 0.60431 0.3649 0.0
H3044 H 0.52747 0.64695 0.3815 0.0
H3045 H 0.5529 0.67919 0.38771 0.0
C3046 C 0.59869 0.67832 0.38588 0.0
C3047 C 0.62231 0.67485 0.38522 0.0
C3048 C 0.58372 0.66039 0.38041 0.0
C3049 C 0.63084 0.65381 0.37779 0.0
C3050 C 0.61617 0.63617 0.37182 0.0
C3051 C 0.57782 0.62071 0.36955 0.0
C3052 C 0.55425 0.62307 0.37283 0.0
C3053 C 0.59258 0.63908 0.37357 0.0
C3054 C 0.54554 0.64454 0.37893 0.0
C3055 C 0.5601 0.66303 0.38255 0.0
H3056 H 0.41635 0.7289 0.36978 0.0
H3057 H 0.35505 0.69741 0.39496 0.0
H3058 H 0.37348 0.66038 0.39435 0.0
H3059 H 0.40631 0.63644 0.38482 0.0
H3060 H 0.46833 0.66735 0.36155 0.0
H3061 H 0.45047 0.70509 0.36329 0.0
C3062 C 0.40712 0.71397 0.37533 0.0
C3063 C 0.38428 0.71599 0.38222 0.0
C3064 C 0.4179 0.69258 0.37511 0.0
C3065 C 0.37263 0.69645 0.38957 0.0
C3066 C 0.38312 0.67518 0.38913 0.0
C3067 C 0.41584 0.65149 0.38013 0.0
C3068 C 0.43841 0.64924 0.37273 0.0
C3069 C 0.40559 0.67299 0.38158 0.0
C3070 C 0.45087 0.66881 0.3672 0.0
C3071 C 0.44065 0.6903 0.36817 0.0
H3072 H 0.12967 0.85455 0.64349 0.0
H3073 H 0.09598 0.79365 0.62094 0.0
H3074 H 0.05931 0.81364 0.62118 0.0
H3075 H 0.03759 0.84945 0.62468 0.0
H3076 H 0.07149 0.91 0.64852 0.0
H3077 H 0.1073 0.88914 0.65107 0.0
C3078 C 0.11423 0.84566 0.6388 0.0
C3079 C 0.11548 0.82278 0.6319 0.0
C3080 C 0.09333 0.85725 0.63911 0.0
C3081 C 0.09537 0.81126 0.6263 0.0
C3082 C 0.07447 0.82273 0.62632 0.0
C3083 C 0.05276 0.85803 0.63068 0.0
C3084 C 0.05188 0.88139 0.63606 0.0
C3085 C 0.07334 0.84587 0.63223 0.0
C3086 C 0.07164 0.89212 0.64412 0.0
C3087 C 0.09218 0.8802 0.64552 0.0
H3088 H 0.07488 0.65593 0.60953 0.0
H3089 H 0.09136 0.65292 0.68106 0.0
H3090 H 0.11651 0.68526 0.67697 0.0
H3091 H 0.13459 0.71387 0.65348 0.0
H3092 H 0.11788 0.71914 0.5823 0.0
H3093 H 0.09175 0.68676 0.58599 0.0
C3094 C 0.08375 0.66247 0.62428 0.0
C3095 C 0.08139 0.65152 0.64554 0.0
C3096 C 0.09818 0.68153 0.6219 0.0
C3097 C 0.09318 0.66041 0.66437 0.0
C3098 C 0.10751 0.6791 0.66211 0.0
C3099 C 0.1253 0.70798 0.63867 0.0
C3100 C 0.12843 0.71878 0.61756 0.0
C3101 C 0.11033 0.6896 0.64097 0.0
C3102 C 0.11586 0.71111 0.59873 0.0
C3103 C 0.10096 0.69256 0.60085 0.0
H3104 H 0.86729 0.83839 0.60217 0.0
H3105 H 0.90171 0.78259 0.63527 0.0
H3106 H 0.9338 0.80712 0.64393 0.0
H3107 H 0.95107 0.84506 0.6448 0.0
H3108 H 0.91789 0.90085 0.61105 0.0
H3109 H 0.88649 0.87577 0.59986 0.0
C3110 C 0.88195 0.83148 0.61095 0.0
C3111 C 0.88183 0.80865 0.61826 0.0
C3112 C 0.90052 0.84578 0.61602 0.0
C3113 C 0.90112 0.80007 0.62955 0.0
C3114 C 0.91953 0.81413 0.63462 0.0
C3115 C 0.93695 0.85167 0.63498 0.0
C3116 C 0.93656 0.87481 0.62905 0.0
C3117 C 0.91918 0.83712 0.62845 0.0
C3118 C 0.91847 0.8831 0.61585 0.0
C3119 C 0.90053 0.86877 0.60951 0.0
H3120 H 0.61378 0.98123 0.66165 0.0
H3121 H 0.65969 0.95527 0.61067 0.0
H3122 H 0.66481 0.92037 0.6327 0.0
H3123 H 0.65298 0.89559 0.66479 0.0
H3124 H 0.60823 0.92222 0.71609 0.0
H3125 H 0.60598 0.95864 0.69588 0.0
C3126 C 0.62512 0.96804 0.65549 0.0
C3127 C 0.63601 0.97066 0.63436 0.0
C3128 C 0.62812 0.94815 0.66834 0.0
C3129 C 0.65097 0.95361 0.6268 0.0
C3130 C 0.65385 0.93361 0.63936 0.0
C3131 C 0.64325 0.90967 0.67167 0.0
C3132 C 0.63086 0.90657 0.69182 0.0
C3133 C 0.64209 0.93046 0.65989 0.0
C3134 C 0.61802 0.92458 0.70068 0.0
C3135 C 0.61664 0.94524 0.68906 0.0
H3136 H 0.22485 0.14364 0.62265 0.0
H3137 H 0.18115 0.09918 0.66115 0.0
H3138 H 0.15114 0.10365 0.6327 0.0
H3139 H 0.13633 0.12236 0.59805 0.0
H3140 H 0.17964 0.16832 0.561 0.0
H3141 H 0.21061 0.16123 0.58765 0.0
C3142 C 0.2089 0.13462 0.62464 0.0
C3143 C 0.20531 0.12102 0.64397 0.0
C3144 C 0.19147 0.13781 0.60858 0.0
C3145 C 0.18438 0.10975 0.64642 0.0
C3146 C 0.16717 0.11235 0.63019 0.0
C3147 C 0.15263 0.13062 0.59575 0.0
C3148 C 0.15557 0.14601 0.57768 0.0
C3149 C 0.17036 0.12668 0.6114 0.0
C3150 C 0.17676 0.15673 0.57498 0.0
C3151 C 0.19455 0.15257 0.59014 0.0
H3152 H 0.38401 0.63085 0.65926 0.0
H3153 H 0.38759 0.59881 0.72492 0.0
H3154 H 0.38398 0.56127 0.70707 0.0
H3155 H 0.38244 0.53755 0.67239 0.0
H3156 H 0.37687 0.56999 0.60686 0.0
H3157 H 0.37841 0.60732 0.62497 0.0
C3158 C 0.38383 0.61561 0.6696 0.0
C3159 C 0.38629 0.61749 0.69332 0.0
C3160 C 0.38145 0.59418 0.65922 0.0
C3161 C 0.38566 0.59771 0.70664 0.0
C3162 C 0.38372 0.57629 0.69642 0.0
C3163 C 0.38132 0.55279 0.6621 0.0
C3164 C 0.37977 0.55093 0.63827 0.0
C3165 C 0.38198 0.57429 0.67267 0.0
C3166 C 0.37806 0.57087 0.62522 0.0
C3167 C 0.37906 0.59227 0.63556 0.0
H3168 H 0.88299 0.39148 0.60574 0.0
H3169 H 0.85031 0.36792 0.54463 0.0
H3170 H 0.81318 0.36969 0.5635 0.0
H3171 H 0.79057 0.37541 0.59823 0.0
H3172 H 0.82318 0.40051 0.65899 0.0
H3173 H 0.85976 0.40098 0.63937 0.0
C3174 C 0.86768 0.3868 0.59662 0.0
C3175 C 0.86929 0.37924 0.57399 0.0
C3176 C 0.84646 0.38817 0.6075 0.0
C3177 C 0.84938 0.37372 0.56208 0.0
C3178 C 0.82822 0.37468 0.57288 0.0
C3179 C 0.80563 0.38123 0.60712 0.0
C3180 C 0.80417 0.38757 0.63017 0.0
C3181 C 0.82661 0.38153 0.5957 0.0
C3182 C 0.8238 0.3954 0.64131 0.0
C3183 C 0.84477 0.39557 0.63013 0.0
H3184 H 0.65937 0.08804 0.90462 0.0
H3185 H 0.62482 0.03326 0.87002 0.0
H3186 H 0.61682 0.05816 0.83798 0.0
H3187 H 0.61757 0.09606 0.82056 0.0
H3188 H 0.65269 0.15076 0.85418 0.0
H3189 H 0.66262 0.12538 0.88572 0.0
C3190 C 0.65034 0.08145 0.88996 0.0
C3191 C 0.64256 0.0588 0.88994 0.0
C3192 C 0.64569 0.09593 0.87146 0.0
C3193 C 0.63097 0.0506 0.87067 0.0
C3194 C 0.62627 0.06487 0.8523 0.0
C3195 C 0.62733 0.1024 0.83484 0.0
C3196 C 0.63411 0.1253 0.83524 0.0
C3197 C 0.63314 0.08766 0.85271 0.0
C3198 C 0.64726 0.13319 0.85355 0.0
C3199 C 0.65288 0.1187 0.87158 0.0
H3200 H 0.38194 0.11957 0.41372 0.0
H3201 H 0.35832 0.16343 0.46732 0.0
H3202 H 0.32138 0.16736 0.44831 0.0
H3203 H 0.29718 0.16064 0.41486 0.0
H3204 H 0.31966 0.11431 0.36257 0.0
H3205 H 0.35555 0.10863 0.38273 0.0
C3206 C 0.36853 0.12978 0.42121 0.0
C3207 C 0.37271 0.14148 0.44162 0.0
C3208 C 0.34727 0.13151 0.41041 0.0
C3209 C 0.3553 0.15438 0.45156 0.0
C3210 C 0.33429 0.15664 0.44067 0.0
C3211 C 0.30982 0.14908 0.408 0.0
C3212 C 0.30598 0.13839 0.38692 0.0
C3213 C 0.33026 0.14563 0.41987 0.0
C3214 C 0.3223 0.12305 0.37855 0.0
C3215 C 0.34287 0.11984 0.39005 0.0
H3216 H 0.37367 0.38883 0.85321 0.0
H3217 H 0.39831 0.42011 0.79185 0.0
H3218 H 0.3967 0.45762 0.81009 0.0
H3219 H 0.39118 0.48091 0.8446 0.0
H3220 H 0.36534 0.44938 0.9056 0.0
H3221 H 0.36425 0.41265 0.88635 0.0
C3222 C 0.37857 0.40392 0.84385 0.0
C3223 C 0.38641 0.40177 0.82136 0.0
C3224 C 0.37739 0.42533 0.8544 0.0
C3225 C 0.39225 0.42142 0.80919 0.0
C3226 C 0.39141 0.44281 0.81965 0.0
C3227 C 0.38501 0.46606 0.8536 0.0
C3228 C 0.37859 0.46792 0.87662 0.0
C3229 C 0.38441 0.44491 0.8424 0.0
C3230 C 0.37041 0.44852 0.88791 0.0
C3231 C 0.36991 0.42743 0.87695 0.0
H3232 H 0.63766 0.37952 0.41459 0.0
H3233 H 0.6732 0.3695 0.4777 0.0
H3234 H 0.70984 0.37148 0.45767 0.0
H3235 H 0.73149 0.3736 0.42152 0.0
H3236 H 0.69536 0.38585 0.35885 0.0
H3237 H 0.65929 0.38562 0.37929 0.0
C3238 C 0.65349 0.37794 0.4239 0.0
C3239 C 0.65286 0.37411 0.4475 0.0
C3240 C 0.67434 0.37942 0.41231 0.0
C3241 C 0.67338 0.37247 0.45954 0.0
C3242 C 0.69426 0.37349 0.44805 0.0
C3243 C 0.71573 0.37642 0.41239 0.0
C3244 C 0.71617 0.37949 0.38861 0.0
C3245 C 0.69494 0.37659 0.42435 0.0
C3246 C 0.69559 0.38341 0.3771 0.0
C3247 C 0.6749 0.3832 0.38877 0.0
H3248 H 0.66215 0.63638 0.88618 0.0
H3249 H 0.72362 0.61341 0.91855 0.0
H3250 H 0.70493 0.615 0.95581 0.0
H3251 H 0.67034 0.62079 0.97868 0.0
H3252 H 0.60932 0.64559 0.9463 0.0
H3253 H 0.62862 0.64571 0.90957 0.0
C3254 C 0.67137 0.63175 0.90145 0.0
C3255 C 0.69406 0.62444 0.89974 0.0
C3256 C 0.66061 0.63309 0.92274 0.0
C3257 C 0.70611 0.61899 0.91959 0.0
C3258 C 0.69542 0.61987 0.94081 0.0
C3259 C 0.66132 0.62645 0.96364 0.0
C3260 C 0.6383 0.63284 0.96523 0.0
C3261 C 0.67257 0.62661 0.94255 0.0
C3262 C 0.62699 0.64044 0.94559 0.0
C3263 C 0.63799 0.64043 0.92453 0.0
H3264 H 0.90365 0.09906 0.37771 0.0
H3265 H 0.84835 0.06687 0.34194 0.0
H3266 H 0.85377 0.09238 0.30982 0.0
H3267 H 0.87264 0.12538 0.29265 0.0
H3268 H 0.92729 0.1584 0.32866 0.0
H3269 H 0.92409 0.13078 0.35948 0.0
C3270 C 0.89297 0.09746 0.36278 0.0
C3271 C 0.87542 0.08121 0.36248 0.0
C3272 C 0.89612 0.11233 0.34427 0.0
C3273 C 0.86165 0.07951 0.34297 0.0
C3274 C 0.86485 0.09401 0.32445 0.0
C3275 C 0.88414 0.12629 0.30703 0.0
C3276 C 0.90018 0.14397 0.3083 0.0
C3277 C 0.88181 0.1107 0.32502 0.0
C3278 C 0.91476 0.145 0.32724 0.0
C3279 C 0.91288 0.12926 0.34494 0.0
H3280 H 0.35395 0.89697 0.89239 0.0
H3281 H 0.29031 0.87799 0.92347 0.0
H3282 H 0.31025 0.86791 0.95846 0.0
H3283 H 0.34573 0.86543 0.9807 0.0
H3284 H 0.40899 0.88583 0.94966 0.0
H3285 H 0.38919 0.89447 0.91437 0.0
C3286 C 0.34432 0.89089 0.90682 0.0
C3287 C 0.32054 0.88839 0.90514 0.0
C3288 C 0.35588 0.88528 0.927 0.0
C3289 C 0.30859 0.87995 0.92406 0.0
C3290 C 0.31999 0.87424 0.94417 0.0
C3291 C 0.35524 0.87158 0.96617 0.0
C3292 C 0.37893 0.87485 0.96797 0.0
C3293 C 0.34365 0.87688 0.94587 0.0
C3294 C 0.39084 0.88305 0.94892 0.0
C3295 C 0.37949 0.88808 0.92866 0.0
H3296 H 0.11136 0.43036 0.37179 0.0
H3297 H 0.17487 0.45224 0.34312 0.0
H3298 H 0.17031 0.42547 0.31142 0.0
H3299 H 0.14983 0.39345 0.29377 0.0
H3300 H 0.08809 0.36892 0.32465 0.0
H3301 H 0.09015 0.39895 0.35338 0.0
C3302 C 0.12385 0.4295 0.35826 0.0
C3303 C 0.14324 0.44341 0.35943 0.0
C3304 C 0.12151 0.41338 0.34064 0.0
C3305 C 0.15972 0.44183 0.34226 0.0
C3306 C 0.15715 0.42646 0.32427 0.0
C3307 C 0.13663 0.39492 0.30656 0.0
C3308 C 0.11878 0.37898 0.30699 0.0
C3309 C 0.13834 0.4118 0.32351 0.0
C3310 C 0.10203 0.38092 0.32394 0.0
C3311 C 0.10321 0.3981 0.3404 0.0
H3312 H 0.65745 0.34812 0.55017 0.0
H3313 H 0.6102 0.40181 0.56702 0.0
H3314 H 0.6332 0.41254 0.59941 0.0
H3315 H 0.66763 0.40814 0.62234 0.0
H3316 H 0.71442 0.35385 0.60752 0.0
H3317 H 0.69077 0.34178 0.57534 0.0
C3318 C 0.6521 0.36202 0.56104 0.0
C3319 C 0.63222 0.37433 0.55574 0.0
C3320 C 0.6654 0.36809 0.58009 0.0
C3321 C 0.62552 0.39219 0.57025 0.0
C3322 C 0.63868 0.39839 0.58893 0.0
C3323 C 0.67256 0.39365 0.61205 0.0
C3324 C 0.69274 0.38201 0.61713 0.0
C3325 C 0.6588 0.38673 0.59382 0.0
C3326 C 0.69885 0.363 0.60396 0.0
C3327 C 0.68539 0.35618 0.58551 0.0
H3328 H 0.64734 0.09992 0.73139 0.0
H3329 H 0.62412 0.16199 0.69984 0.0
H3330 H 0.6246 0.14356 0.66271 0.0
H3331 H 0.63418 0.11059 0.63872 0.0
H3332 H 0.6554 0.04797 0.66997 0.0
H3333 H 0.65305 0.06569 0.70771 0.0
C3334 C 0.64213 0.10934 0.71643 0.0
C3335 C 0.63603 0.13242 0.71843 0.0
C3336 C 0.64227 0.09857 0.69505 0.0
C3337 C 0.62903 0.14426 0.69887 0.0
C3338 C 0.62939 0.13377 0.67756 0.0
C3339 C 0.6382 0.10089 0.65386 0.0
C3340 C 0.64527 0.07817 0.6517 0.0
C3341 C 0.63643 0.1111 0.67539 0.0
C3342 C 0.64998 0.06551 0.67135 0.0
C3343 C 0.64869 0.07566 0.69285 0.0
H3344 H 0.35229 0.14332 0.62414 0.0
H3345 H 0.3011 0.0993 0.5962 0.0
H3346 H 0.32193 0.09744 0.56003 0.0
H3347 H 0.35651 0.10573 0.53786 0.0
H3348 H 0.40651 0.15202 0.56492 0.0
H3349 H 0.38429 0.15597 0.59983 0.0
C3350 C 0.34565 0.13363 0.60993 0.0
C3351 C 0.3254 0.12127 0.61266 0.0
C3352 C 0.35757 0.13299 0.58919 0.0
C3353 C 0.31666 0.10891 0.59427 0.0
C3354 C 0.32863 0.1078 0.57372 0.0
C3355 C 0.36242 0.11692 0.55128 0.0
C3356 C 0.38345 0.12813 0.54898 0.0
C3357 C 0.34936 0.11937 0.57117 0.0
C3358 C 0.39059 0.14293 0.56633 0.0
C3359 C 0.3779 0.14516 0.58635 0.0
H3360 H 0.39773 0.42109 0.63654 0.0
H3361 H 0.34513 0.45195 0.67734 0.0
H3362 H 0.35254 0.42497 0.70783 0.0
H3363 H 0.37281 0.39166 0.72254 0.0
H3364 H 0.4249 0.35992 0.68172 0.0
H3365 H 0.41918 0.38839 0.65199 0.0
C3366 C 0.38804 0.42205 0.65217 0.0
C3367 C 0.37071 0.43848 0.65442 0.0
C3368 C 0.39236 0.40633 0.66977 0.0
C3369 C 0.35823 0.43928 0.67483 0.0
C3370 C 0.36258 0.42392 0.69242 0.0
C3371 C 0.38316 0.3911 0.70728 0.0
C3372 C 0.3993 0.3736 0.70446 0.0
C3373 C 0.37944 0.40723 0.69001 0.0
C3374 C 0.41236 0.37314 0.68442 0.0
C3375 C 0.40903 0.3894 0.66733 0.0
H3376 H 0.98022 0.67 0.61966 0.0
H3377 H 0.94996 0.60865 0.64594 0.0
H3378 H 0.91293 0.62759 0.64789 0.0
H3379 H 0.88864 0.66103 0.63989 0.0
H3380 H 0.91929 0.72264 0.61499 0.0
H3381 H 0.95666 0.70425 0.61479 0.0
C3382 C 0.96557 0.66082 0.62604 0.0
C3383 C 0.96788 0.63785 0.63249 0.0
C3384 C 0.94435 0.67184 0.62718 0.0
C3385 C 0.94874 0.62632 0.64093 0.0
C3386 C 0.9275 0.63711 0.6419 0.0
C3387 C 0.90353 0.67038 0.63444 0.0
C3388 C 0.90118 0.6931 0.6272 0.0
C3389 C 0.92502 0.65975 0.63467 0.0
C3390 C 0.92068 0.70518 0.62064 0.0
C3391 C 0.94202 0.69463 0.62046 0.0
H3392 H 0.90828 0.32658 0.86159 0.0
H3393 H 0.90223 0.34787 0.93162 0.0
H3394 H 0.93406 0.3736 0.92694 0.0
H3395 H 0.96338 0.39068 0.90328 0.0
H3396 H 0.97164 0.369 0.83374 0.0
H3397 H 0.93952 0.34273 0.83801 0.0
C3398 C 0.91405 0.33665 0.87589 0.0
C3399 C 0.90239 0.33541 0.89687 0.0
C3400 C 0.93281 0.35147 0.87318 0.0
C3401 C 0.91029 0.34875 0.91512 0.0
C3402 C 0.92868 0.36345 0.91252 0.0
C3403 C 0.95812 0.38035 0.88895 0.0
C3404 C 0.96978 0.3821 0.86812 0.0
C3405 C 0.93991 0.36514 0.89161 0.0
C3406 C 0.96295 0.36812 0.84994 0.0
C3407 C 0.94456 0.35308 0.85239 0.0
H3408 H 0.65867 0.83556 0.40068 0.0
H3409 H 0.61202 0.77953 0.39343 0.0
H3410 H 0.58055 0.80626 0.38782 0.0
H3411 H 0.56661 0.84598 0.38253 0.0
H3412 H 0.61437 0.90117 0.38764 0.0
H3413 H 0.64491 0.87453 0.39659 0.0
C3414 C 0.64159 0.82911 0.39819 0.0
C3415 C 0.6378 0.80549 0.39756 0.0
C3416 C 0.6237 0.84455 0.39438 0.0
C3417 C 0.6155 0.79759 0.39402 0.0
C3418 C 0.59747 0.8129 0.39075 0.0
C3419 C 0.58368 0.85205 0.38585 0.0
C3420 C 0.58828 0.87549 0.38428 0.0
C3421 C 0.6014 0.83646 0.39053 0.0
C3422 C 0.6105 0.8832 0.38847 0.0
C3423 C 0.62795 0.86798 0.39365 0.0
H3424 H 0.09053 0.19733 0.8969 0.0
H3425 H 0.14724 0.16294 0.86589 0.0
H3426 H 0.12288 0.13034 0.85677 0.0
H3427 H 0.08568 0.1109 0.85952 0.0
H3428 H 0.02887 0.14654 0.88955 0.0
H3429 H 0.05292 0.17931 0.89694 0.0
C3430 C 0.09751 0.18266 0.88818 0.0
C3431 C 0.12067 0.18235 0.88234 0.0
C3432 C 0.08335 0.16421 0.88277 0.0
C3433 C 0.12944 0.1635 0.87056 0.0
C3434 C 0.11553 0.14487 0.86542 0.0
C3435 C 0.0785 0.12592 0.86745 0.0
C3436 C 0.05548 0.12605 0.8741 0.0
C3437 C 0.09248 0.14492 0.87166 0.0
C3438 C 0.04649 0.1458 0.88425 0.0
C3439 C 0.06027 0.1646 0.88861 0.0
H3440 H 0.91976 0.23093 0.86781 0.0
H3441 H 0.86161 0.20422 0.90362 0.0
H3442 H 0.87923 0.16658 0.90441 0.0
H3443 H 0.91009 0.14056 0.89232 0.0
H3444 H 0.96909 0.16781 0.85882 0.0
H3445 H 0.95231 0.20598 0.8597 0.0
C3446 C 0.91102 0.21695 0.87603 0.0
C3447 C 0.88916 0.22033 0.8852 0.0
C3448 C 0.92135 0.1954 0.87662 0.0
C3449 C 0.87831 0.2021 0.89617 0.0
C3450 C 0.88835 0.18051 0.89656 0.0
C3451 C 0.91919 0.15494 0.8853 0.0
C3452 C 0.94058 0.15149 0.87517 0.0
C3453 C 0.90962 0.17685 0.88634 0.0
C3454 C 0.95257 0.17019 0.86657 0.0
C3455 C 0.94296 0.19194 0.86707 0.0
H3456 H 0.58051 0.40202 0.15564 0.0
H3457 H 0.52578 0.36942 0.11917 0.0
H3458 H 0.55044 0.33727 0.11042 0.0
H3459 H 0.58799 0.31891 0.11174 0.0
H3460 H 0.6426 0.35089 0.14858 0.0
H3461 H 0.61758 0.38262 0.15865 0.0
C3462 C 0.57389 0.38781 0.14594 0.0
C3463 C 0.55129 0.38832 0.13799 0.0
C3464 C 0.58822 0.36926 0.1409 0.0
C3465 C 0.54307 0.36962 0.12552 0.0
C3466 C 0.5572 0.3512 0.12041 0.0
C3467 C 0.59443 0.33289 0.12186 0.0
C3468 C 0.6172 0.33264 0.1292 0.0
C3469 C 0.57989 0.35098 0.12771 0.0
C3470 C 0.62514 0.35065 0.14277 0.0
C3471 C 0.61085 0.36882 0.14847 0.0
H3472 H 0.59438 0.22899 0.13706 0.0
H3473 H 0.65868 0.19541 0.12593 0.0
H3474 H 0.63992 0.15842 0.1276 0.0
H3475 H 0.60566 0.13546 0.13529 0.0
H3476 H 0.54109 0.16868 0.14433 0.0
H3477 H 0.55938 0.20597 0.14025 0.0
C3478 C 0.60424 0.21358 0.13472 0.0
C3479 C 0.62797 0.21501 0.13166 0.0
C3480 C 0.59328 0.1923 0.13548 0.0
C3481 C 0.64043 0.19487 0.12836 0.0
C3482 C 0.62972 0.17367 0.12943 0.0
C3483 C 0.59564 0.15091 0.13616 0.0
C3484 C 0.57214 0.14945 0.14037 0.0
C3485 C 0.60626 0.17217 0.13348 0.0
C3486 C 0.55919 0.16949 0.14109 0.0
C3487 C 0.56968 0.19074 0.13886 0.0
H3488 H 0.40194 0.37795 0.14209 0.0
H3489 H 0.46814 0.34846 0.1307 0.0
H3490 H 0.45072 0.31163 0.12298 0.0
H3491 H 0.41669 0.28748 0.12032 0.0
H3492 H 0.35062 0.31697 0.13285 0.0
H3493 H 0.368 0.35395 0.13932 0.0
C3494 C 0.4126 0.36346 0.13815 0.0
C3495 C 0.43636 0.36609 0.13703 0.0
C3496 C 0.40247 0.34225 0.13385 0.0
C3497 C 0.44981 0.34709 0.13146 0.0
C3498 C 0.43986 0.32595 0.12712 0.0
C3499 C 0.40605 0.30201 0.12428 0.0
C3500 C 0.38233 0.29933 0.126 0.0
C3501 C 0.4162 0.32331 0.12829 0.0
C3502 C 0.36889 0.31841 0.13134 0.0
C3503 C 0.37883 0.33963 0.13512 0.0
loop_
_geom_bond_atom_site_label_1
_geom_bond_atom_site_label_2
_geom_bond_distance
_geom_bond_site_symmetry_2
_ccdc_geom_bond_type
Co0 N4 2.148 . S
Co0 N10 2.128 . S
Co0 N20 2.194 . S
Co0 O25 2.351 . S
Co0 O26 2.155 . S
Co0 O27 2.096 . S
C1 N4 1.301 . S
C1 N5 1.328 . S
C1 H6 0.930 . S
C2 C3 1.333 . S
C2 N4 1.317 . S
C2 H7 0.930 . S
C3 C2 1.333 . S
C3 N5 1.350 . S
C3 H29 0.931 . S
N4 Co0 2.148 . S
N4 C1 1.301 . S
N4 C2 1.317 . S
N5 C1 1.328 . S
N5 C3 1.350 . S
H6 C1 0.930 . S
H7 C2 0.930 . S
C8 O9 1.224 . S
C8 O27 1.247 . S
O9 C8 1.224 . S
N10 Co0 2.128 . S
N10 C11 1.355 . S
N10 C13 1.311 . S
C11 N10 1.355 . S
C11 C12 1.363 . S
C11 H23 0.929 . S
C12 C11 1.363 . S
C12 N14 1.375 . S
C12 H30 0.931 . S
C13 N10 1.311 . S
C13 N14 1.347 . S
C13 H24 0.929 . S
N14 C12 1.375 . S
N14 C13 1.347 . S
C15 C18 1.365 . S
C15 N20 1.328 . S
C15 H21 0.929 . S
C16 C17 1.362 . S
C16 C19 1.378 . S
C16 H31 0.929 . S
C17 C16 1.362 . S
C17 C18 1.366 . S
C18 C15 1.365 . S
C18 C17 1.366 . S
C18 H32 0.930 . S
C19 C16 1.378 . S
C19 N20 1.315 . S
C19 H22 0.930 . S
N20 Co0 2.194 . S
N20 C15 1.328 . S
N20 C19 1.315 . S
H21 C15 0.929 . S
H22 C19 0.930 . S
H23 C11 0.929 . S
H24 C13 0.929 . S
O25 Co0 2.351 . S
O25 C28 1.244 . S
O26 Co0 2.155 . S
O26 C28 1.240 . S
O27 Co0 2.096 . S
O27 C8 1.247 . S
C28 O25 1.244 . S
C28 O26 1.240 . S
H29 C3 0.931 . S
H30 C12 0.931 . S
H31 C16 0.929 . S
H32 C18 0.930 . S
Co33 N37 2.148 1_554 S
Co33 N43 2.128 . S
Co33 N53 2.194 . S
Co33 O58 2.351 . S
Co33 O59 2.155 . S
Co33 O60 2.095 1_554 S
C34 N37 1.301 . S
C34 N38 1.328 . S
C34 H39 0.930 1_556 S
C35 C36 1.333 . S
C35 N37 1.317 . S
C35 H40 0.930 . S
C36 C35 1.333 . S
C36 N38 1.350 . S
C36 H62 0.931 . S
N37 Co33 2.148 1_556 S
N37 C34 1.301 . S
N37 C35 1.317 . S
N38 C34 1.328 . S
N38 C36 1.350 . S
H39 C34 0.930 1_554 S
H40 C35 0.930 . S
C41 O42 1.224 . S
C41 O60 1.247 . S
O42 C41 1.224 . S
N43 Co33 2.128 . S
N43 C44 1.355 . S
N43 C46 1.311 . S
C44 N43 1.355 . S
C44 C45 1.363 . S
C44 H56 0.929 . S
C45 C44 1.363 . S
C45 N47 1.375 . S
C45 H63 0.931 . S
C46 N43 1.311 . S
C46 N47 1.347 . S
C46 H57 0.929 . S
N47 C45 1.375 . S
N47 C46 1.347 . S
C48 C51 1.365 . S
C48 N53 1.328 . S
C48 H54 0.929 . S
C49 C50 1.362 . S
C49 C52 1.378 . S
C49 H64 0.929 . S
C50 C49 1.362 . S
C50 C51 1.366 . S
C51 C48 1.365 . S
C51 C50 1.366 . S
C51 H65 0.930 . S
C52 C49 1.378 . S
C52 N53 1.315 . S
C52 H55 0.930 . S
N53 Co33 2.194 . S
N53 C48 1.328 . S
N53 C52 1.315 . S
H54 C48 0.929 . S
H55 C52 0.930 . S
H56 C44 0.929 . S
H57 C46 0.929 . S
O58 Co33 2.351 . S
O58 C61 1.244 . S
O59 Co33 2.155 . S
O59 C61 1.240 . S
O60 Co33 2.095 1_556 S
O60 C41 1.247 . S
C61 O58 1.244 . S
C61 O59 1.240 . S
H62 C36 0.931 . S
H63 C45 0.931 . S
H64 C49 0.929 . S
H65 C51 0.930 . S
Co66 N70 2.148 . S
Co66 N76 2.128 . S
Co66 N86 2.194 . S
Co66 O91 2.351 . S
Co66 O92 2.155 . S
Co66 O93 2.096 . S
C67 N70 1.301 . S
C67 N71 1.328 . S
C67 H72 0.930 . S
C68 C69 1.333 . S
C68 N70 1.317 . S
C68 H73 0.930 . S
C69 C68 1.333 . S
C69 N71 1.350 . S
C69 H95 0.931 . S
N70 Co66 2.148 . S
N70 C67 1.301 . S
N70 C68 1.317 . S
N71 C67 1.328 . S
N71 C69 1.350 . S
H72 C67 0.930 . S
H73 C68 0.930 . S
C74 O75 1.224 . S
C74 O93 1.247 . S
O75 C74 1.224 . S
N76 Co66 2.128 . S
N76 C77 1.355 . S
N76 C79 1.311 . S
C77 N76 1.355 . S
C77 C78 1.363 . S
C77 H89 0.929 . S
C78 C77 1.363 . S
C78 N80 1.375 . S
C78 H96 0.931 . S
C79 N76 1.311 . S
C79 N80 1.347 . S
C79 H90 0.929 . S
N80 C78 1.375 . S
N80 C79 1.347 . S
C81 C84 1.365 . S
C81 N86 1.328 . S
C81 H87 0.929 . S
C82 C83 1.362 . S
C82 C85 1.378 . S
C82 H97 0.929 . S
C83 C82 1.362 . S
C83 C84 1.366 . S
C84 C81 1.365 . S
C84 C83 1.366 . S
C84 H98 0.930 . S
C85 C82 1.378 . S
C85 N86 1.315 . S
C85 H88 0.930 . S
N86 Co66 2.194 . S
N86 C81 1.328 . S
N86 C85 1.315 . S
H87 C81 0.929 . S
H88 C85 0.930 . S
H89 C77 0.929 . S
H90 C79 0.929 . S
O91 Co66 2.351 . S
O91 C94 1.244 . S
O92 Co66 2.155 . S
O92 C94 1.240 . S
O93 Co66 2.096 . S
O93 C74 1.247 . S
C94 O91 1.244 . S
C94 O92 1.240 . S
H95 C69 0.931 . S
H96 C78 0.931 . S
H97 C82 0.929 . S
H98 C84 0.930 . S
Co99 N103 2.148 1_554 S
Co99 N109 2.128 . S
Co99 N119 2.194 . S
Co99 O124 2.351 . S
Co99 O125 2.155 . S
Co99 O126 2.095 1_554 S
C100 N103 1.301 . S
C100 N104 1.328 . S
C100 H105 0.930 1_556 S
C101 C102 1.333 . S
C101 N103 1.317 . S
C101 H106 0.930 . S
C102 C101 1.333 . S
C102 N104 1.350 . S
C102 H128 0.931 . S
N103 Co99 2.148 1_556 S
N103 C100 1.301 . S
N103 C101 1.317 . S
N104 C100 1.328 . S
N104 C102 1.350 . S
H105 C100 0.930 1_554 S
H106 C101 0.930 . S
C107 O108 1.224 . S
C107 O126 1.247 . S
O108 C107 1.224 . S
N109 Co99 2.128 . S
N109 C110 1.355 . S
N109 C112 1.311 . S
C110 N109 1.355 . S
C110 C111 1.363 . S
C110 H122 0.929 . S
C111 C110 1.363 . S
C111 N113 1.375 . S
C111 H129 0.931 . S
C112 N109 1.311 . S
C112 N113 1.347 . S
C112 H123 0.929 . S
N113 C111 1.375 . S
N113 C112 1.347 . S
C114 C117 1.365 . S
C114 N119 1.328 . S
C114 H120 0.929 . S
C115 C116 1.362 . S
C115 C118 1.378 . S
C115 H130 0.929 . S
C116 C115 1.362 . S
C116 C117 1.366 . S
C117 C114 1.365 . S
C117 C116 1.366 . S
C117 H131 0.930 . S
C118 C115 1.378 . S
C118 N119 1.315 . S
C118 H121 0.930 . S
N119 Co99 2.194 . S
N119 C114 1.328 . S
N119 C118 1.315 . S
H120 C114 0.929 . S
H121 C118 0.930 . S
H122 C110 0.929 . S
H123 C112 0.929 . S
O124 Co99 2.351 . S
O124 C127 1.244 . S
O125 Co99 2.155 . S
O125 C127 1.240 . S
O126 Co99 2.095 1_556 S
O126 C107 1.247 . S
C127 O124 1.244 . S
C127 O125 1.240 . S
H128 C102 0.931 . S
H129 C111 0.931 . S
H130 C115 0.929 . S
H131 C117 0.930 . S
Co132 N136 2.148 . S
Co132 N142 2.128 . S
Co132 N152 2.194 . S
Co132 O157 2.351 . S
Co132 O158 2.155 . S
Co132 O159 2.096 . S
C133 N136 1.301 . S
C133 N137 1.328 . S
C133 H138 0.930 . S
C134 C135 1.333 . S
C134 N136 1.317 . S
C134 H139 0.930 . S
C135 C134 1.333 . S
C135 N137 1.350 . S
C135 H161 0.931 . S
N136 Co132 2.148 . S
N136 C133 1.301 . S
N136 C134 1.317 . S
N137 C133 1.328 . S
N137 C135 1.350 . S
H138 C133 0.930 . S
H139 C134 0.930 . S
C140 O141 1.224 . S
C140 O159 1.247 . S
O141 C140 1.224 . S
N142 Co132 2.128 . S
N142 C143 1.355 . S
N142 C145 1.311 . S
C143 N142 1.355 . S
C143 C144 1.363 . S
C143 H155 0.929 . S
C144 C143 1.363 . S
C144 N146 1.375 . S
C144 H162 0.931 . S
C145 N142 1.311 . S
C145 N146 1.347 . S
C145 H156 0.929 . S
N146 C144 1.375 . S
N146 C145 1.347 . S
C147 C150 1.365 . S
C147 N152 1.328 . S
C147 H153 0.929 . S
C148 C149 1.362 . S
C148 C151 1.378 . S
C148 H163 0.929 . S
C149 C148 1.362 . S
C149 C150 1.366 . S
C150 C147 1.365 . S
C150 C149 1.366 . S
C150 H164 0.930 . S
C151 C148 1.378 . S
C151 N152 1.315 . S
C151 H154 0.930 . S
N152 Co132 2.194 . S
N152 C147 1.328 . S
N152 C151 1.315 . S
H153 C147 0.929 . S
H154 C151 0.930 . S
H155 C143 0.929 . S
H156 C145 0.929 . S
O157 Co132 2.351 . S
O157 C160 1.244 . S
O158 Co132 2.155 . S
O158 C160 1.240 . S
O159 Co132 2.096 . S
O159 C140 1.247 . S
C160 O157 1.244 . S
C160 O158 1.240 . S
H161 C135 0.931 . S
H162 C144 0.931 . S
H163 C148 0.929 . S
H164 C150 0.930 . S
Co165 N169 2.148 1_556 S
Co165 N175 2.128 . S
Co165 N185 2.194 . S
Co165 O190 2.351 . S
Co165 O191 2.155 . S
Co165 O192 2.095 1_556 S
C166 N169 1.301 . S
C166 N170 1.328 . S
C166 H171 0.930 1_554 S
C167 C168 1.333 . S
C167 N169 1.317 . S
C167 H172 0.930 . S
C168 C167 1.333 . S
C168 N170 1.350 . S
C168 H194 0.931 . S
N169 Co165 2.148 1_554 S
N169 C166 1.301 . S
N169 C167 1.317 . S
N170 C166 1.328 . S
N170 C168 1.350 . S
H171 C166 0.930 1_556 S
H172 C167 0.930 . S
C173 O174 1.224 . S
C173 O192 1.247 . S
O174 C173 1.224 . S
N175 Co165 2.128 . S
N175 C176 1.355 . S
N175 C178 1.311 . S
C176 N175 1.355 . S
C176 C177 1.363 . S
C176 H188 0.929 . S
C177 C176 1.363 . S
C177 N179 1.375 . S
C177 H195 0.931 . S
C178 N175 1.311 . S
C178 N179 1.347 . S
C178 H189 0.929 . S
N179 C177 1.375 . S
N179 C178 1.347 . S
C180 C183 1.365 . S
C180 N185 1.328 . S
C180 H186 0.929 . S
C181 C182 1.362 . S
C181 C184 1.378 . S
C181 H196 0.929 . S
C182 C181 1.362 . S
C182 C183 1.366 . S
C183 C180 1.365 . S
C183 C182 1.366 . S
C183 H197 0.930 . S
C184 C181 1.378 . S
C184 N185 1.315 . S
C184 H187 0.930 . S
N185 Co165 2.194 . S
N185 C180 1.328 . S
N185 C184 1.315 . S
H186 C180 0.929 . S
H187 C184 0.930 . S
H188 C176 0.929 . S
H189 C178 0.929 . S
O190 Co165 2.351 . S
O190 C193 1.244 . S
O191 Co165 2.155 . S
O191 C193 1.240 . S
O192 Co165 2.095 1_554 S
O192 C173 1.247 . S
C193 O190 1.244 . S
C193 O191 1.240 . S
H194 C168 0.931 . S
H195 C177 0.931 . S
H196 C181 0.929 . S
H197 C183 0.930 . S
Co198 N202 2.148 . S
Co198 N208 2.128 . S
Co198 N218 2.194 . S
Co198 O223 2.351 . S
Co198 O224 2.155 . S
Co198 O225 2.096 . S
C199 N202 1.301 . S
C199 N203 1.328 . S
C199 H204 0.930 . S
C200 C201 1.333 . S
C200 N202 1.317 . S
C200 H205 0.930 . S
C201 C200 1.333 . S
C201 N203 1.350 . S
C201 H227 0.931 . S
N202 Co198 2.148 . S
N202 C199 1.301 . S
N202 C200 1.317 . S
N203 C199 1.328 . S
N203 C201 1.350 . S
H204 C199 0.930 . S
H205 C200 0.930 . S
C206 O207 1.224 . S
C206 O225 1.247 . S
O207 C206 1.224 . S
N208 Co198 2.128 . S
N208 C209 1.355 . S
N208 C211 1.311 . S
C209 N208 1.355 . S
C209 C210 1.363 . S
C209 H221 0.929 . S
C210 C209 1.363 . S
C210 N212 1.375 . S
C210 H228 0.931 . S
C211 N208 1.311 . S
C211 N212 1.347 . S
C211 H222 0.929 . S
N212 C210 1.375 . S
N212 C211 1.347 . S
C213 C216 1.365 . S
C213 N218 1.328 . S
C213 H219 0.929 . S
C214 C215 1.362 . S
C214 C217 1.378 . S
C214 H229 0.929 . S
C215 C214 1.362 . S
C215 C216 1.366 . S
C216 C213 1.365 . S
C216 C215 1.366 . S
C216 H230 0.930 . S
C217 C214 1.378 . S
C217 N218 1.315 . S
C217 H220 0.930 . S
N218 Co198 2.194 . S
N218 C213 1.328 . S
N218 C217 1.315 . S
H219 C213 0.929 . S
H220 C217 0.930 . S
H221 C209 0.929 . S
H222 C211 0.929 . S
O223 Co198 2.351 . S
O223 C226 1.244 . S
O224 Co198 2.155 . S
O224 C226 1.240 . S
O225 Co198 2.096 . S
O225 C206 1.247 . S
C226 O223 1.244 . S
C226 O224 1.240 . S
H227 C201 0.931 . S
H228 C210 0.931 . S
H229 C214 0.929 . S
H230 C216 0.930 . S
Co231 N235 2.148 1_556 S
Co231 N241 2.128 . S
Co231 N251 2.194 . S
Co231 O256 2.351 . S
Co231 O257 2.155 . S
Co231 O258 2.095 1_556 S
C232 N235 1.301 . S
C232 N236 1.328 . S
C232 H237 0.930 1_554 S
C233 C234 1.333 . S
C233 N235 1.317 . S
C233 H238 0.930 . S
C234 C233 1.333 . S
C234 N236 1.350 . S
C234 H260 0.931 . S
N235 Co231 2.148 1_554 S
N235 C232 1.301 . S
N235 C233 1.317 . S
N236 C232 1.328 . S
N236 C234 1.350 . S
H237 C232 0.930 1_556 S
H238 C233 0.930 . S
C239 O240 1.224 . S
C239 O258 1.247 . S
O240 C239 1.224 . S
N241 Co231 2.128 . S
N241 C242 1.355 . S
N241 C244 1.311 . S
C242 N241 1.355 . S
C242 C243 1.363 . S
C242 H254 0.929 . S
C243 C242 1.363 . S
C243 N245 1.375 . S
C243 H261 0.931 . S
C244 N241 1.311 . S
C244 N245 1.347 . S
C244 H255 0.929 . S
N245 C243 1.375 . S
N245 C244 1.347 . S
C246 C249 1.365 . S
C246 N251 1.328 . S
C246 H252 0.929 . S
C247 C248 1.362 . S
C247 C250 1.378 . S
C247 H262 0.929 . S
C248 C247 1.362 . S
C248 C249 1.366 . S
C249 C246 1.365 . S
C249 C248 1.366 . S
C249 H263 0.930 . S
C250 C247 1.378 . S
C250 N251 1.315 . S
C250 H253 0.930 . S
N251 Co231 2.194 . S
N251 C246 1.328 . S
N251 C250 1.315 . S
H252 C246 0.929 . S
H253 C250 0.930 . S
H254 C242 0.929 . S
H255 C244 0.929 . S
O256 Co231 2.351 . S
O256 C259 1.244 . S
O257 Co231 2.155 . S
O257 C259 1.240 . S
O258 Co231 2.095 1_554 S
O258 C239 1.247 . S
C259 O256 1.244 . S
C259 O257 1.240 . S
H260 C234 0.931 . S
H261 C243 0.931 . S
H262 C247 0.929 . S
H263 C249 0.930 . S
Co264 N268 2.148 . S
Co264 N274 2.128 . S
Co264 N284 2.194 . S
Co264 O289 2.351 . S
Co264 O290 2.155 . S
Co264 O291 2.096 . S
C265 N268 1.301 . S
C265 N269 1.328 . S
C265 H270 0.930 . S
C266 C267 1.333 . S
C266 N268 1.317 . S
C266 H271 0.930 . S
C267 C266 1.333 . S
C267 N269 1.350 . S
C267 H293 0.931 . S
N268 Co264 2.148 . S
N268 C265 1.301 . S
N268 C266 1.317 . S
N269 C265 1.328 . S
N269 C267 1.350 . S
H270 C265 0.930 . S
H271 C266 0.930 . S
C272 O273 1.224 . S
C272 O291 1.247 . S
O273 C272 1.224 . S
N274 Co264 2.128 . S
N274 C275 1.355 . S
N274 C277 1.311 . S
C275 N274 1.355 . S
C275 C276 1.363 . S
C275 H287 0.929 . S
C276 C275 1.363 . S
C276 N278 1.375 . S
C276 H294 0.931 . S
C277 N274 1.311 . S
C277 N278 1.347 . S
C277 H288 0.929 . S
N278 C276 1.375 . S
N278 C277 1.347 . S
C279 C282 1.365 . S
C279 N284 1.328 . S
C279 H285 0.929 . S
C280 C281 1.362 . S
C280 C283 1.378 . S
C280 H295 0.929 . S
C281 C280 1.362 . S
C281 C282 1.366 . S
C282 C279 1.365 . S
C282 C281 1.366 . S
C282 H296 0.930 . S
C283 C280 1.378 . S
C283 N284 1.315 . S
C283 H286 0.930 . S
N284 Co264 2.194 . S
N284 C279 1.328 . S
N284 C283 1.315 . S
H285 C279 0.929 . S
H286 C283 0.930 . S
H287 C275 0.929 . S
H288 C277 0.929 . S
O289 Co264 2.351 . S
O289 C292 1.244 . S
O290 Co264 2.155 . S
O290 C292 1.240 . S
O291 Co264 2.096 . S
O291 C272 1.247 . S
C292 O289 1.244 . S
C292 O290 1.240 . S
H293 C267 0.931 . S
H294 C276 0.931 . S
H295 C280 0.929 . S
H296 C282 0.930 . S
Co297 N301 2.148 . S
Co297 N307 2.128 . S
Co297 N317 2.194 . S
Co297 O322 2.351 . S
Co297 O323 2.155 . S
Co297 O324 2.096 . S
C298 N301 1.301 . S
C298 N302 1.328 . S
C298 H303 0.930 . S
C299 C300 1.333 . S
C299 N301 1.317 . S
C299 H304 0.930 . S
C300 C299 1.333 . S
C300 N302 1.350 . S
C300 H326 0.931 . S
N301 Co297 2.148 . S
N301 C298 1.301 . S
N301 C299 1.317 . S
N302 C298 1.328 . S
N302 C300 1.350 . S
H303 C298 0.930 . S
H304 C299 0.930 . S
C305 O306 1.224 . S
C305 O324 1.247 . S
O306 C305 1.224 . S
N307 Co297 2.128 . S
N307 C308 1.355 . S
N307 C310 1.311 . S
C308 N307 1.355 . S
C308 C309 1.363 . S
C308 H320 0.929 . S
C309 C308 1.363 . S
C309 N311 1.375 . S
C309 H327 0.931 . S
C310 N307 1.311 . S
C310 N311 1.347 . S
C310 H321 0.929 . S
N311 C309 1.375 . S
N311 C310 1.347 . S
C312 C315 1.365 . S
C312 N317 1.328 . S
C312 H318 0.929 . S
C313 C314 1.362 . S
C313 C316 1.378 . S
C313 H328 0.929 . S
C314 C313 1.362 . S
C314 C315 1.366 . S
C315 C312 1.365 . S
C315 C314 1.366 . S
C315 H329 0.930 . S
C316 C313 1.378 . S
C316 N317 1.315 . S
C316 H319 0.930 . S
N317 Co297 2.194 . S
N317 C312 1.328 . S
N317 C316 1.315 . S
H318 C312 0.929 . S
H319 C316 0.930 . S
H320 C308 0.929 . S
H321 C310 0.929 . S
O322 Co297 2.351 . S
O322 C325 1.244 . S
O323 Co297 2.155 . S
O323 C325 1.240 . S
O324 Co297 2.096 . S
O324 C305 1.247 . S
C325 O322 1.244 . S
C325 O323 1.240 . S
H326 C300 0.931 . S
H327 C309 0.931 . S
H328 C313 0.929 . S
H329 C315 0.930 . S
Co330 N334 2.148 . S
Co330 N340 2.128 . S
Co330 N350 2.194 . S
Co330 O355 2.351 . S
Co330 O356 2.155 . S
Co330 O357 2.096 . S
C331 N334 1.301 . S
C331 N335 1.328 . S
C331 H336 0.930 . S
C332 C333 1.333 . S
C332 N334 1.317 . S
C332 H337 0.930 . S
C333 C332 1.333 . S
C333 N335 1.350 . S
C333 H359 0.931 . S
N334 Co330 2.148 . S
N334 C331 1.301 . S
N334 C332 1.317 . S
N335 C331 1.328 . S
N335 C333 1.350 . S
H336 C331 0.930 . S
H337 C332 0.930 . S
C338 O339 1.224 . S
C338 O357 1.247 . S
O339 C338 1.224 . S
N340 Co330 2.128 . S
N340 C341 1.355 . S
N340 C343 1.311 . S
C341 N340 1.355 . S
C341 C342 1.363 . S
C341 H353 0.929 . S
C342 C341 1.363 . S
C342 N344 1.375 . S
C342 H360 0.931 . S
C343 N340 1.311 . S
C343 N344 1.347 . S
C343 H354 0.929 . S
N344 C342 1.375 . S
N344 C343 1.347 . S
C345 C348 1.365 . S
C345 N350 1.328 . S
C345 H351 0.929 . S
C346 C347 1.362 . S
C346 C349 1.378 . S
C346 H361 0.929 . S
C347 C346 1.362 . S
C347 C348 1.366 . S
C348 C345 1.365 . S
C348 C347 1.366 . S
C348 H362 0.930 . S
C349 C346 1.378 . S
C349 N350 1.315 . S
C349 H352 0.930 . S
N350 Co330 2.194 . S
N350 C345 1.328 . S
N350 C349 1.315 . S
H351 C345 0.929 . S
H352 C349 0.930 . S
H353 C341 0.929 . S
H354 C343 0.929 . S
O355 Co330 2.351 . S
O355 C358 1.244 . S
O356 Co330 2.155 . S
O356 C358 1.240 . S
O357 Co330 2.096 . S
O357 C338 1.247 . S
C358 O355 1.244 . S
C358 O356 1.240 . S
H359 C333 0.931 . S
H360 C342 0.931 . S
H361 C346 0.929 . S
H362 C348 0.930 . S
Co363 N367 2.148 1_565 S
Co363 N373 2.128 . S
Co363 N383 2.194 . S
Co363 O388 2.351 . S
Co363 O389 2.155 . S
Co363 O390 2.095 1_565 S
C364 N367 1.301 . S
C364 N368 1.328 . S
C364 H369 0.930 1_545 S
C365 C366 1.333 . S
C365 N367 1.317 . S
C365 H370 0.930 . S
C366 C365 1.333 . S
C366 N368 1.350 . S
C366 H392 0.931 . S
N367 Co363 2.148 1_545 S
N367 C364 1.301 . S
N367 C365 1.317 . S
N368 C364 1.328 . S
N368 C366 1.350 . S
H369 C364 0.930 1_565 S
H370 C365 0.930 . S
C371 O372 1.224 . S
C371 O390 1.247 . S
O372 C371 1.224 . S
N373 Co363 2.128 . S
N373 C374 1.355 . S
N373 C376 1.311 . S
C374 N373 1.355 . S
C374 C375 1.363 . S
C374 H386 0.929 . S
C375 C374 1.363 . S
C375 N377 1.375 . S
C375 H393 0.931 . S
C376 N373 1.311 . S
C376 N377 1.347 . S
C376 H387 0.929 . S
N377 C375 1.375 . S
N377 C376 1.347 . S
C378 C381 1.365 . S
C378 N383 1.328 . S
C378 H384 0.929 . S
C379 C380 1.362 . S
C379 C382 1.378 . S
C379 H394 0.929 . S
C380 C379 1.362 . S
C380 C381 1.366 . S
C381 C378 1.365 . S
C381 C380 1.366 . S
C381 H395 0.930 . S
C382 C379 1.378 . S
C382 N383 1.315 . S
C382 H385 0.930 . S
N383 Co363 2.194 . S
N383 C378 1.328 . S
N383 C382 1.315 . S
H384 C378 0.929 . S
H385 C382 0.930 . S
H386 C374 0.929 . S
H387 C376 0.929 . S
O388 Co363 2.351 . S
O388 C391 1.244 . S
O389 Co363 2.155 . S
O389 C391 1.240 . S
O390 Co363 2.095 1_545 S
O390 C371 1.247 . S
C391 O388 1.244 . S
C391 O389 1.240 . S
H392 C366 0.931 . S
H393 C375 0.931 . S
H394 C379 0.929 . S
H395 C381 0.930 . S
Co396 N400 2.148 . S
Co396 N406 2.128 . S
Co396 N416 2.194 . S
Co396 O421 2.351 . S
Co396 O422 2.155 . S
Co396 O423 2.096 . S
C397 N400 1.301 . S
C397 N401 1.328 . S
C397 H402 0.930 . S
C398 C399 1.333 . S
C398 N400 1.317 . S
C398 H403 0.930 . S
C399 C398 1.333 . S
C399 N401 1.350 . S
C399 H425 0.931 . S
N400 Co396 2.148 . S
N400 C397 1.301 . S
N400 C398 1.317 . S
N401 C397 1.328 . S
N401 C399 1.350 . S
H402 C397 0.930 . S
H403 C398 0.930 . S
C404 O405 1.224 . S
C404 O423 1.247 . S
O405 C404 1.224 . S
N406 Co396 2.128 . S
N406 C407 1.355 . S
N406 C409 1.311 . S
C407 N406 1.355 . S
C407 C408 1.363 . S
C407 H419 0.929 . S
C408 C407 1.363 . S
C408 N410 1.375 . S
C408 H426 0.931 . S
C409 N406 1.311 . S
C409 N410 1.347 . S
C409 H420 0.929 . S
N410 C408 1.375 . S
N410 C409 1.347 . S
C411 C414 1.365 . S
C411 N416 1.328 . S
C411 H417 0.929 . S
C412 C413 1.362 . S
C412 C415 1.378 . S
C412 H427 0.929 . S
C413 C412 1.362 . S
C413 C414 1.366 . S
C414 C411 1.365 . S
C414 C413 1.366 . S
C414 H428 0.930 . S
C415 C412 1.378 . S
C415 N416 1.315 . S
C415 H418 0.930 . S
N416 Co396 2.194 . S
N416 C411 1.328 . S
N416 C415 1.315 . S
H417 C411 0.929 . S
H418 C415 0.930 . S
H419 C407 0.929 . S
H420 C409 0.929 . S
O421 Co396 2.351 . S
O421 C424 1.244 . S
O422 Co396 2.155 . S
O422 C424 1.240 . S
O423 Co396 2.096 . S
O423 C404 1.247 . S
C424 O421 1.244 . S
C424 O422 1.240 . S
H425 C399 0.931 . S
H426 C408 0.931 . S
H427 C412 0.929 . S
H428 C414 0.930 . S
Co429 N433 2.148 . S
Co429 N439 2.128 . S
Co429 N449 2.194 . S
Co429 O454 2.351 . S
Co429 O455 2.155 . S
Co429 O456 2.096 . S
C430 N433 1.301 . S
C430 N434 1.328 . S
C430 H435 0.930 . S
C431 C432 1.333 . S
C431 N433 1.317 . S
C431 H436 0.930 . S
C432 C431 1.333 . S
C432 N434 1.350 . S
C432 H458 0.931 . S
N433 Co429 2.148 . S
N433 C430 1.301 . S
N433 C431 1.317 . S
N434 C430 1.328 . S
N434 C432 1.350 . S
H435 C430 0.930 . S
H436 C431 0.930 . S
C437 O438 1.224 . S
C437 O456 1.247 . S
O438 C437 1.224 . S
N439 Co429 2.128 . S
N439 C440 1.355 . S
N439 C442 1.311 . S
C440 N439 1.355 . S
C440 C441 1.363 . S
C440 H452 0.929 . S
C441 C440 1.363 . S
C441 N443 1.375 . S
C441 H459 0.931 . S
C442 N439 1.311 . S
C442 N443 1.347 . S
C442 H453 0.929 . S
N443 C441 1.375 . S
N443 C442 1.347 . S
C444 C447 1.365 . S
C444 N449 1.328 . S
C444 H450 0.929 . S
C445 C446 1.362 . S
C445 C448 1.378 . S
C445 H460 0.929 . S
C446 C445 1.362 . S
C446 C447 1.366 . S
C447 C444 1.365 . S
C447 C446 1.366 . S
C447 H461 0.930 . S
C448 C445 1.378 . S
C448 N449 1.315 . S
C448 H451 0.930 . S
N449 Co429 2.194 . S
N449 C444 1.328 . S
N449 C448 1.315 . S
H450 C444 0.929 . S
H451 C448 0.930 . S
H452 C440 0.929 . S
H453 C442 0.929 . S
O454 Co429 2.351 . S
O454 C457 1.244 . S
O455 Co429 2.155 . S
O455 C457 1.240 . S
O456 Co429 2.096 . S
O456 C437 1.247 . S
C457 O454 1.244 . S
C457 O455 1.240 . S
H458 C432 0.931 . S
H459 C441 0.931 . S
H460 C445 0.929 . S
H461 C447 0.930 . S
Co462 N466 2.148 . S
Co462 N472 2.128 . S
Co462 N482 2.194 . S
Co462 O487 2.351 . S
Co462 O488 2.155 . S
Co462 O489 2.096 . S
C463 N466 1.301 . S
C463 N467 1.328 . S
C463 H468 0.930 . S
C464 C465 1.333 . S
C464 N466 1.317 . S
C464 H469 0.930 . S
C465 C464 1.333 . S
C465 N467 1.350 . S
C465 H491 0.931 . S
N466 Co462 2.148 . S
N466 C463 1.301 . S
N466 C464 1.317 . S
N467 C463 1.328 . S
N467 C465 1.350 . S
H468 C463 0.930 . S
H469 C464 0.930 . S
C470 O471 1.224 . S
C470 O489 1.247 . S
O471 C470 1.224 . S
N472 Co462 2.128 . S
N472 C473 1.355 . S
N472 C475 1.311 . S
C473 N472 1.355 . S
C473 C474 1.363 . S
C473 H485 0.929 . S
C474 C473 1.363 . S
C474 N476 1.375 . S
C474 H492 0.931 . S
C475 N472 1.311 . S
C475 N476 1.347 . S
C475 H486 0.929 . S
N476 C474 1.375 . S
N476 C475 1.347 . S
C477 C480 1.365 . S
C477 N482 1.328 . S
C477 H483 0.929 . S
C478 C479 1.362 . S
C478 C481 1.378 . S
C478 H493 0.929 . S
C479 C478 1.362 . S
C479 C480 1.366 . S
C480 C477 1.365 . S
C480 C479 1.366 . S
C480 H494 0.930 . S
C481 C478 1.378 . S
C481 N482 1.315 . S
C481 H484 0.930 . S
N482 Co462 2.194 . S
N482 C477 1.328 . S
N482 C481 1.315 . S
H483 C477 0.929 . S
H484 C481 0.930 . S
H485 C473 0.929 . S
H486 C475 0.929 . S
O487 Co462 2.351 . S
O487 C490 1.244 . S
O488 Co462 2.155 . S
O488 C490 1.240 . S
O489 Co462 2.096 . S
O489 C470 1.247 . S
C490 O487 1.244 . S
C490 O488 1.240 . S
H491 C465 0.931 . S
H492 C474 0.931 . S
H493 C478 0.929 . S
H494 C480 0.930 . S
Co495 N499 2.148 1_565 S
Co495 N505 2.128 . S
Co495 N515 2.194 . S
Co495 O520 2.351 . S
Co495 O521 2.155 . S
Co495 O522 2.095 1_565 S
C496 N499 1.301 . S
C496 N500 1.328 . S
C496 H501 0.930 1_545 S
C497 C498 1.333 . S
C497 N499 1.317 . S
C497 H502 0.930 . S
C498 C497 1.333 . S
C498 N500 1.350 . S
C498 H524 0.931 . S
N499 Co495 2.148 1_545 S
N499 C496 1.301 . S
N499 C497 1.317 . S
N500 C496 1.328 . S
N500 C498 1.350 . S
H501 C496 0.930 1_565 S
H502 C497 0.930 . S
C503 O504 1.224 . S
C503 O522 1.247 . S
O504 C503 1.224 . S
N505 Co495 2.128 . S
N505 C506 1.355 . S
N505 C508 1.311 . S
C506 N505 1.355 . S
C506 C507 1.363 . S
C506 H518 0.929 . S
C507 C506 1.363 . S
C507 N509 1.375 . S
C507 H525 0.931 . S
C508 N505 1.311 . S
C508 N509 1.347 . S
C508 H519 0.929 . S
N509 C507 1.375 . S
N509 C508 1.347 . S
C510 C513 1.365 . S
C510 N515 1.328 . S
C510 H516 0.929 . S
C511 C512 1.362 . S
C511 C514 1.378 . S
C511 H526 0.929 . S
C512 C511 1.362 . S
C512 C513 1.366 . S
C513 C510 1.365 . S
C513 C512 1.366 . S
C513 H527 0.930 . S
C514 C511 1.378 . S
C514 N515 1.315 . S
C514 H517 0.930 . S
N515 Co495 2.194 . S
N515 C510 1.328 . S
N515 C514 1.315 . S
H516 C510 0.929 . S
H517 C514 0.930 . S
H518 C506 0.929 . S
H519 C508 0.929 . S
O520 Co495 2.351 . S
O520 C523 1.244 . S
O521 Co495 2.155 . S
O521 C523 1.240 . S
O522 Co495 2.095 1_545 S
O522 C503 1.247 . S
C523 O520 1.244 . S
C523 O521 1.240 . S
H524 C498 0.931 . S
H525 C507 0.931 . S
H526 C511 0.929 . S
H527 C513 0.930 . S
Co528 N532 2.148 . S
Co528 N538 2.128 . S
Co528 N548 2.194 . S
Co528 O553 2.351 . S
Co528 O554 2.155 . S
Co528 O555 2.096 . S
C529 N532 1.301 . S
C529 N533 1.328 . S
C529 H534 0.930 . S
C530 C531 1.333 . S
C530 N532 1.317 . S
C530 H535 0.930 . S
C531 C530 1.333 . S
C531 N533 1.350 . S
C531 H557 0.931 . S
N532 Co528 2.148 . S
N532 C529 1.301 . S
N532 C530 1.317 . S
N533 C529 1.328 . S
N533 C531 1.350 . S
H534 C529 0.930 . S
H535 C530 0.930 . S
C536 O537 1.224 . S
C536 O555 1.247 . S
O537 C536 1.224 . S
N538 Co528 2.128 . S
N538 C539 1.355 . S
N538 C541 1.311 . S
C539 N538 1.355 . S
C539 C540 1.363 . S
C539 H551 0.929 . S
C540 C539 1.363 . S
C540 N542 1.375 . S
C540 H558 0.931 . S
C541 N538 1.311 . S
C541 N542 1.347 . S
C541 H552 0.929 . S
N542 C540 1.375 . S
N542 C541 1.347 . S
C543 C546 1.365 . S
C543 N548 1.328 . S
C543 H549 0.929 . S
C544 C545 1.362 . S
C544 C547 1.378 . S
C544 H559 0.929 . S
C545 C544 1.362 . S
C545 C546 1.366 . S
C546 C543 1.365 . S
C546 C545 1.366 . S
C546 H560 0.930 . S
C547 C544 1.378 . S
C547 N548 1.315 . S
C547 H550 0.930 . S
N548 Co528 2.194 . S
N548 C543 1.328 . S
N548 C547 1.315 . S
H549 C543 0.929 . S
H550 C547 0.930 . S
H551 C539 0.929 . S
H552 C541 0.929 . S
O553 Co528 2.351 . S
O553 C556 1.244 . S
O554 Co528 2.155 . S
O554 C556 1.240 . S
O555 Co528 2.096 . S
O555 C536 1.247 . S
C556 O553 1.244 . S
C556 O554 1.240 . S
H557 C531 0.931 . S
H558 C540 0.931 . S
H559 C544 0.929 . S
H560 C546 0.930 . S
Co561 N565 2.148 . S
Co561 N571 2.128 . S
Co561 N581 2.194 . S
Co561 O586 2.351 . S
Co561 O587 2.155 . S
Co561 O588 2.096 . S
C562 N565 1.301 . S
C562 N566 1.328 . S
C562 H567 0.930 . S
C563 C564 1.333 . S
C563 N565 1.317 . S
C563 H568 0.930 . S
C564 C563 1.333 . S
C564 N566 1.350 . S
C564 H590 0.931 . S
N565 Co561 2.148 . S
N565 C562 1.301 . S
N565 C563 1.317 . S
N566 C562 1.328 . S
N566 C564 1.350 . S
H567 C562 0.930 . S
H568 C563 0.930 . S
C569 O570 1.224 . S
C569 O588 1.247 . S
O570 C569 1.224 . S
N571 Co561 2.128 . S
N571 C572 1.355 . S
N571 C574 1.311 . S
C572 N571 1.355 . S
C572 C573 1.363 . S
C572 H584 0.929 . S
C573 C572 1.363 . S
C573 N575 1.375 . S
C573 H591 0.931 . S
C574 N571 1.311 . S
C574 N575 1.347 . S
C574 H585 0.929 . S
N575 C573 1.375 . S
N575 C574 1.347 . S
C576 C579 1.365 . S
C576 N581 1.328 . S
C576 H582 0.929 . S
C577 C578 1.362 . S
C577 C580 1.378 . S
C577 H592 0.929 . S
C578 C577 1.362 . S
C578 C579 1.366 . S
C579 C576 1.365 . S
C579 C578 1.366 . S
C579 H593 0.930 . S
C580 C577 1.378 . S
C580 N581 1.315 . S
C580 H583 0.930 . S
N581 Co561 2.194 . S
N581 C576 1.328 . S
N581 C580 1.315 . S
H582 C576 0.929 . S
H583 C580 0.930 . S
H584 C572 0.929 . S
H585 C574 0.929 . S
O586 Co561 2.351 . S
O586 C589 1.244 . S
O587 Co561 2.155 . S
O587 C589 1.240 . S
O588 Co561 2.096 . S
O588 C569 1.247 . S
C589 O586 1.244 . S
C589 O587 1.240 . S
H590 C564 0.931 . S
H591 C573 0.931 . S
H592 C577 0.929 . S
H593 C579 0.930 . S
Co594 N598 2.148 1_455 S
Co594 N604 2.128 . S
Co594 N614 2.194 . S
Co594 O619 2.351 . S
Co594 O620 2.155 . S
Co594 O621 2.095 1_455 S
C595 N598 1.301 . S
C595 N599 1.328 . S
C595 H600 0.930 1_655 S
C596 C597 1.333 . S
C596 N598 1.317 . S
C596 H601 0.930 . S
C597 C596 1.333 . S
C597 N599 1.350 . S
C597 H623 0.931 . S
N598 Co594 2.148 1_655 S
N598 C595 1.301 . S
N598 C596 1.317 . S
N599 C595 1.328 . S
N599 C597 1.350 . S
H600 C595 0.930 1_455 S
H601 C596 0.930 . S
C602 O603 1.224 . S
C602 O621 1.247 . S
O603 C602 1.224 . S
N604 Co594 2.128 . S
N604 C605 1.355 . S
N604 C607 1.311 . S
C605 N604 1.355 . S
C605 C606 1.363 . S
C605 H617 0.929 . S
C606 C605 1.363 . S
C606 N608 1.375 . S
C606 H624 0.931 . S
C607 N604 1.311 . S
C607 N608 1.347 . S
C607 H618 0.929 . S
N608 C606 1.375 . S
N608 C607 1.347 . S
C609 C612 1.365 . S
C609 N614 1.328 . S
C609 H615 0.929 . S
C610 C611 1.362 . S
C610 C613 1.378 . S
C610 H625 0.929 . S
C611 C610 1.362 . S
C611 C612 1.366 . S
C612 C609 1.365 . S
C612 C611 1.366 . S
C612 H626 0.930 . S
C613 C610 1.378 . S
C613 N614 1.315 . S
C613 H616 0.930 . S
N614 Co594 2.194 . S
N614 C609 1.328 . S
N614 C613 1.315 . S
H615 C609 0.929 . S
H616 C613 0.930 . S
H617 C605 0.929 . S
H618 C607 0.929 . S
O619 Co594 2.351 . S
O619 C622 1.244 . S
O620 Co594 2.155 . S
O620 C622 1.240 . S
O621 Co594 2.095 1_655 S
O621 C602 1.247 . S
C622 O619 1.244 . S
C622 O620 1.240 . S
H623 C597 0.931 . S
H624 C606 0.931 . S
H625 C610 0.929 . S
H626 C612 0.930 . S
Co627 N631 2.148 . S
Co627 N637 2.128 . S
Co627 N647 2.194 . S
Co627 O652 2.351 . S
Co627 O653 2.155 . S
Co627 O654 2.096 . S
C628 N631 1.301 . S
C628 N632 1.328 . S
C628 H633 0.930 . S
C629 C630 1.333 . S
C629 N631 1.317 . S
C629 H634 0.930 . S
C630 C629 1.333 . S
C630 N632 1.350 . S
C630 H656 0.931 . S
N631 Co627 2.148 . S
N631 C628 1.301 . S
N631 C629 1.317 . S
N632 C628 1.328 . S
N632 C630 1.350 . S
H633 C628 0.930 . S
H634 C629 0.930 . S
C635 O636 1.224 . S
C635 O654 1.247 . S
O636 C635 1.224 . S
N637 Co627 2.128 . S
N637 C638 1.355 . S
N637 C640 1.311 . S
C638 N637 1.355 . S
C638 C639 1.363 . S
C638 H650 0.929 . S
C639 C638 1.363 . S
C639 N641 1.375 . S
C639 H657 0.931 . S
C640 N637 1.311 . S
C640 N641 1.347 . S
C640 H651 0.929 . S
N641 C639 1.375 . S
N641 C640 1.347 . S
C642 C645 1.365 . S
C642 N647 1.328 . S
C642 H648 0.929 . S
C643 C644 1.362 . S
C643 C646 1.378 . S
C643 H658 0.929 . S
C644 C643 1.362 . S
C644 C645 1.366 . S
C645 C642 1.365 . S
C645 C644 1.366 . S
C645 H659 0.930 . S
C646 C643 1.378 . S
C646 N647 1.315 . S
C646 H649 0.930 . S
N647 Co627 2.194 . S
N647 C642 1.328 . S
N647 C646 1.315 . S
H648 C642 0.929 . S
H649 C646 0.930 . S
H650 C638 0.929 . S
H651 C640 0.929 . S
O652 Co627 2.351 . S
O652 C655 1.244 . S
O653 Co627 2.155 . S
O653 C655 1.240 . S
O654 Co627 2.096 . S
O654 C635 1.247 . S
C655 O652 1.244 . S
C655 O653 1.240 . S
H656 C630 0.931 . S
H657 C639 0.931 . S
H658 C643 0.929 . S
H659 C645 0.930 . S
Co660 N664 2.148 . S
Co660 N670 2.128 . S
Co660 N680 2.194 . S
Co660 O685 2.351 . S
Co660 O686 2.155 . S
Co660 O687 2.096 . S
C661 N664 1.301 . S
C661 N665 1.328 . S
C661 H666 0.930 . S
C662 C663 1.333 . S
C662 N664 1.317 . S
C662 H667 0.930 . S
C663 C662 1.333 . S
C663 N665 1.350 . S
C663 H689 0.931 . S
N664 Co660 2.148 . S
N664 C661 1.301 . S
N664 C662 1.317 . S
N665 C661 1.328 . S
N665 C663 1.350 . S
H666 C661 0.930 . S
H667 C662 0.930 . S
C668 O669 1.224 . S
C668 O687 1.247 . S
O669 C668 1.224 . S
N670 Co660 2.128 . S
N670 C671 1.355 . S
N670 C673 1.311 . S
C671 N670 1.355 . S
C671 C672 1.363 . S
C671 H683 0.929 . S
C672 C671 1.363 . S
C672 N674 1.375 . S
C672 H690 0.931 . S
C673 N670 1.311 . S
C673 N674 1.347 . S
C673 H684 0.929 . S
N674 C672 1.375 . S
N674 C673 1.347 . S
C675 C678 1.365 . S
C675 N680 1.328 . S
C675 H681 0.929 . S
C676 C677 1.362 . S
C676 C679 1.378 . S
C676 H691 0.929 . S
C677 C676 1.362 . S
C677 C678 1.366 . S
C678 C675 1.365 . S
C678 C677 1.366 . S
C678 H692 0.930 . S
C679 C676 1.378 . S
C679 N680 1.315 . S
C679 H682 0.930 . S
N680 Co660 2.194 . S
N680 C675 1.328 . S
N680 C679 1.315 . S
H681 C675 0.929 . S
H682 C679 0.930 . S
H683 C671 0.929 . S
H684 C673 0.929 . S
O685 Co660 2.351 . S
O685 C688 1.244 . S
O686 Co660 2.155 . S
O686 C688 1.240 . S
O687 Co660 2.096 . S
O687 C668 1.247 . S
C688 O685 1.244 . S
C688 O686 1.240 . S
H689 C663 0.931 . S
H690 C672 0.931 . S
H691 C676 0.929 . S
H692 C678 0.930 . S
Co693 N697 2.148 . S
Co693 N703 2.128 . S
Co693 N713 2.194 . S
Co693 O718 2.351 . S
Co693 O719 2.155 . S
Co693 O720 2.096 . S
C694 N697 1.301 . S
C694 N698 1.328 . S
C694 H699 0.930 . S
C695 C696 1.333 . S
C695 N697 1.317 . S
C695 H700 0.930 . S
C696 C695 1.333 . S
C696 N698 1.350 . S
C696 H722 0.931 . S
N697 Co693 2.148 . S
N697 C694 1.301 . S
N697 C695 1.317 . S
N698 C694 1.328 . S
N698 C696 1.350 . S
H699 C694 0.930 . S
H700 C695 0.930 . S
C701 O702 1.224 . S
C701 O720 1.247 . S
O702 C701 1.224 . S
N703 Co693 2.128 . S
N703 C704 1.355 . S
N703 C706 1.311 . S
C704 N703 1.355 . S
C704 C705 1.363 . S
C704 H716 0.929 . S
C705 C704 1.363 . S
C705 N707 1.375 . S
C705 H723 0.931 . S
C706 N703 1.311 . S
C706 N707 1.347 . S
C706 H717 0.929 . S
N707 C705 1.375 . S
N707 C706 1.347 . S
C708 C711 1.365 . S
C708 N713 1.328 . S
C708 H714 0.929 . S
C709 C710 1.362 . S
C709 C712 1.378 . S
C709 H724 0.929 . S
C710 C709 1.362 . S
C710 C711 1.366 . S
C711 C708 1.365 . S
C711 C710 1.366 . S
C711 H725 0.930 . S
C712 C709 1.378 . S
C712 N713 1.315 . S
C712 H715 0.930 . S
N713 Co693 2.194 . S
N713 C708 1.328 . S
N713 C712 1.315 . S
H714 C708 0.929 . S
H715 C712 0.930 . S
H716 C704 0.929 . S
H717 C706 0.929 . S
O718 Co693 2.351 . S
O718 C721 1.244 . S
O719 Co693 2.155 . S
O719 C721 1.240 . S
O720 Co693 2.096 . S
O720 C701 1.247 . S
C721 O718 1.244 . S
C721 O719 1.240 . S
H722 C696 0.931 . S
H723 C705 0.931 . S
H724 C709 0.929 . S
H725 C711 0.930 . S
Co726 N730 2.148 1_455 S
Co726 N736 2.128 . S
Co726 N746 2.194 . S
Co726 O751 2.351 . S
Co726 O752 2.155 . S
Co726 O753 2.095 1_455 S
C727 N730 1.301 . S
C727 N731 1.328 . S
C727 H732 0.930 1_655 S
C728 C729 1.333 . S
C728 N730 1.317 . S
C728 H733 0.930 . S
C729 C728 1.333 . S
C729 N731 1.350 . S
C729 H755 0.931 . S
N730 Co726 2.148 1_655 S
N730 C727 1.301 . S
N730 C728 1.317 . S
N731 C727 1.328 . S
N731 C729 1.350 . S
H732 C727 0.930 1_455 S
H733 C728 0.930 . S
C734 O735 1.224 . S
C734 O753 1.247 . S
O735 C734 1.224 . S
N736 Co726 2.128 . S
N736 C737 1.355 . S
N736 C739 1.311 . S
C737 N736 1.355 . S
C737 C738 1.363 . S
C737 H749 0.929 . S
C738 C737 1.363 . S
C738 N740 1.375 . S
C738 H756 0.931 . S
C739 N736 1.311 . S
C739 N740 1.347 . S
C739 H750 0.929 . S
N740 C738 1.375 . S
N740 C739 1.347 . S
C741 C744 1.365 . S
C741 N746 1.328 . S
C741 H747 0.929 . S
C742 C743 1.362 . S
C742 C745 1.378 . S
C742 H757 0.929 . S
C743 C742 1.362 . S
C743 C744 1.366 . S
C744 C741 1.365 . S
C744 C743 1.366 . S
C744 H758 0.930 . S
C745 C742 1.378 . S
C745 N746 1.315 . S
C745 H748 0.930 . S
N746 Co726 2.194 . S
N746 C741 1.328 . S
N746 C745 1.315 . S
H747 C741 0.929 . S
H748 C745 0.930 . S
H749 C737 0.929 . S
H750 C739 0.929 . S
O751 Co726 2.351 . S
O751 C754 1.244 . S
O752 Co726 2.155 . S
O752 C754 1.240 . S
O753 Co726 2.095 1_655 S
O753 C734 1.247 . S
C754 O751 1.244 . S
C754 O752 1.240 . S
H755 C729 0.931 . S
H756 C738 0.931 . S
H757 C742 0.929 . S
H758 C744 0.930 . S
Co759 N763 2.148 1_655 S
Co759 N769 2.128 . S
Co759 N779 2.194 . S
Co759 O784 2.351 . S
Co759 O785 2.155 . S
Co759 O786 2.095 1_655 S
C760 N763 1.301 . S
C760 N764 1.328 . S
C760 H765 0.930 1_455 S
C761 C762 1.333 . S
C761 N763 1.317 . S
C761 H766 0.930 . S
C762 C761 1.333 . S
C762 N764 1.350 . S
C762 H788 0.931 . S
N763 Co759 2.148 1_455 S
N763 C760 1.301 . S
N763 C761 1.317 . S
N764 C760 1.328 . S
N764 C762 1.350 . S
H765 C760 0.930 1_655 S
H766 C761 0.930 . S
C767 O768 1.224 . S
C767 O786 1.247 . S
O768 C767 1.224 . S
N769 Co759 2.128 . S
N769 C770 1.355 . S
N769 C772 1.311 . S
C770 N769 1.355 . S
C770 C771 1.363 . S
C770 H782 0.929 . S
C771 C770 1.363 . S
C771 N773 1.375 . S
C771 H789 0.931 . S
C772 N769 1.311 . S
C772 N773 1.347 . S
C772 H783 0.929 . S
N773 C771 1.375 . S
N773 C772 1.347 . S
C774 C777 1.365 . S
C774 N779 1.328 . S
C774 H780 0.929 . S
C775 C776 1.362 . S
C775 C778 1.378 . S
C775 H790 0.929 . S
C776 C775 1.362 . S
C776 C777 1.366 . S
C777 C774 1.365 . S
C777 C776 1.366 . S
C777 H791 0.930 . S
C778 C775 1.378 . S
C778 N779 1.315 . S
C778 H781 0.930 . S
N779 Co759 2.194 . S
N779 C774 1.328 . S
N779 C778 1.315 . S
H780 C774 0.929 . S
H781 C778 0.930 . S
H782 C770 0.929 . S
H783 C772 0.929 . S
O784 Co759 2.351 . S
O784 C787 1.244 . S
O785 Co759 2.155 . S
O785 C787 1.240 . S
O786 Co759 2.095 1_455 S
O786 C767 1.247 . S
C787 O784 1.244 . S
C787 O785 1.240 . S
H788 C762 0.931 . S
H789 C771 0.931 . S
H790 C775 0.929 . S
H791 C777 0.930 . S
Co792 N796 2.148 . S
Co792 N802 2.128 . S
Co792 N812 2.194 . S
Co792 O817 2.351 . S
Co792 O818 2.155 . S
Co792 O819 2.096 . S
C793 N796 1.301 . S
C793 N797 1.328 . S
C793 H798 0.930 . S
C794 C795 1.333 . S
C794 N796 1.317 . S
C794 H799 0.930 . S
C795 C794 1.333 . S
C795 N797 1.350 . S
C795 H821 0.931 . S
N796 Co792 2.148 . S
N796 C793 1.301 . S
N796 C794 1.317 . S
N797 C793 1.328 . S
N797 C795 1.350 . S
H798 C793 0.930 . S
H799 C794 0.930 . S
C800 O801 1.224 . S
C800 O819 1.247 . S
O801 C800 1.224 . S
N802 Co792 2.128 . S
N802 C803 1.355 . S
N802 C805 1.311 . S
C803 N802 1.355 . S
C803 C804 1.363 . S
C803 H815 0.929 . S
C804 C803 1.363 . S
C804 N806 1.375 . S
C804 H822 0.931 . S
C805 N802 1.311 . S
C805 N806 1.347 . S
C805 H816 0.929 . S
N806 C804 1.375 . S
N806 C805 1.347 . S
C807 C810 1.365 . S
C807 N812 1.328 . S
C807 H813 0.929 . S
C808 C809 1.362 . S
C808 C811 1.378 . S
C808 H823 0.929 . S
C809 C808 1.362 . S
C809 C810 1.366 . S
C810 C807 1.365 . S
C810 C809 1.366 . S
C810 H824 0.930 . S
C811 C808 1.378 . S
C811 N812 1.315 . S
C811 H814 0.930 . S
N812 Co792 2.194 . S
N812 C807 1.328 . S
N812 C811 1.315 . S
H813 C807 0.929 . S
H814 C811 0.930 . S
H815 C803 0.929 . S
H816 C805 0.929 . S
O817 Co792 2.351 . S
O817 C820 1.244 . S
O818 Co792 2.155 . S
O818 C820 1.240 . S
O819 Co792 2.096 . S
O819 C800 1.247 . S
C820 O817 1.244 . S
C820 O818 1.240 . S
H821 C795 0.931 . S
H822 C804 0.931 . S
H823 C808 0.929 . S
H824 C810 0.930 . S
Co825 N829 2.148 . S
Co825 N835 2.128 . S
Co825 N845 2.194 . S
Co825 O850 2.351 . S
Co825 O851 2.155 . S
Co825 O852 2.096 . S
C826 N829 1.301 . S
C826 N830 1.328 . S
C826 H831 0.930 . S
C827 C828 1.333 . S
C827 N829 1.317 . S
C827 H832 0.930 . S
C828 C827 1.333 . S
C828 N830 1.350 . S
C828 H854 0.931 . S
N829 Co825 2.148 . S
N829 C826 1.301 . S
N829 C827 1.317 . S
N830 C826 1.328 . S
N830 C828 1.350 . S
H831 C826 0.930 . S
H832 C827 0.930 . S
C833 O834 1.224 . S
C833 O852 1.247 . S
O834 C833 1.224 . S
N835 Co825 2.128 . S
N835 C836 1.355 . S
N835 C838 1.311 . S
C836 N835 1.355 . S
C836 C837 1.363 . S
C836 H848 0.929 . S
C837 C836 1.363 . S
C837 N839 1.375 . S
C837 H855 0.931 . S
C838 N835 1.311 . S
C838 N839 1.347 . S
C838 H849 0.929 . S
N839 C837 1.375 . S
N839 C838 1.347 . S
C840 C843 1.365 . S
C840 N845 1.328 . S
C840 H846 0.929 . S
C841 C842 1.362 . S
C841 C844 1.378 . S
C841 H856 0.929 . S
C842 C841 1.362 . S
C842 C843 1.366 . S
C843 C840 1.365 . S
C843 C842 1.366 . S
C843 H857 0.930 . S
C844 C841 1.378 . S
C844 N845 1.315 . S
C844 H847 0.930 . S
N845 Co825 2.194 . S
N845 C840 1.328 . S
N845 C844 1.315 . S
H846 C840 0.929 . S
H847 C844 0.930 . S
H848 C836 0.929 . S
H849 C838 0.929 . S
O850 Co825 2.351 . S
O850 C853 1.244 . S
O851 Co825 2.155 . S
O851 C853 1.240 . S
O852 Co825 2.096 . S
O852 C833 1.247 . S
C853 O850 1.244 . S
C853 O851 1.240 . S
H854 C828 0.931 . S
H855 C837 0.931 . S
H856 C841 0.929 . S
H857 C843 0.930 . S
Co858 N862 2.148 . S
Co858 N868 2.128 . S
Co858 N878 2.194 . S
Co858 O883 2.351 . S
Co858 O884 2.155 . S
Co858 O885 2.096 . S
C859 N862 1.301 . S
C859 N863 1.328 . S
C859 H864 0.930 . S
C860 C861 1.333 . S
C860 N862 1.317 . S
C860 H865 0.930 . S
C861 C860 1.333 . S
C861 N863 1.350 . S
C861 H887 0.931 . S
N862 Co858 2.148 . S
N862 C859 1.301 . S
N862 C860 1.317 . S
N863 C859 1.328 . S
N863 C861 1.350 . S
H864 C859 0.930 . S
H865 C860 0.930 . S
C866 O867 1.224 . S
C866 O885 1.247 . S
O867 C866 1.224 . S
N868 Co858 2.128 . S
N868 C869 1.355 . S
N868 C871 1.311 . S
C869 N868 1.355 . S
C869 C870 1.363 . S
C869 H881 0.929 . S
C870 C869 1.363 . S
C870 N872 1.375 . S
C870 H888 0.931 . S
C871 N868 1.311 . S
C871 N872 1.347 . S
C871 H882 0.929 . S
N872 C870 1.375 . S
N872 C871 1.347 . S
C873 C876 1.365 . S
C873 N878 1.328 . S
C873 H879 0.929 . S
C874 C875 1.362 . S
C874 C877 1.378 . S
C874 H889 0.929 . S
C875 C874 1.362 . S
C875 C876 1.366 . S
C876 C873 1.365 . S
C876 C875 1.366 . S
C876 H890 0.930 . S
C877 C874 1.378 . S
C877 N878 1.315 . S
C877 H880 0.930 . S
N878 Co858 2.194 . S
N878 C873 1.328 . S
N878 C877 1.315 . S
H879 C873 0.929 . S
H880 C877 0.930 . S
H881 C869 0.929 . S
H882 C871 0.929 . S
O883 Co858 2.351 . S
O883 C886 1.244 . S
O884 Co858 2.155 . S
O884 C886 1.240 . S
O885 Co858 2.096 . S
O885 C866 1.247 . S
C886 O883 1.244 . S
C886 O884 1.240 . S
H887 C861 0.931 . S
H888 C870 0.931 . S
H889 C874 0.929 . S
H890 C876 0.930 . S
Co891 N895 2.148 . S
Co891 N901 2.128 . S
Co891 N911 2.194 . S
Co891 O916 2.351 . S
Co891 O917 2.155 . S
Co891 O918 2.096 . S
C892 N895 1.301 . S
C892 N896 1.328 . S
C892 H897 0.930 . S
C893 C894 1.333 . S
C893 N895 1.317 . S
C893 H898 0.930 . S
C894 C893 1.333 . S
C894 N896 1.350 . S
C894 H920 0.931 . S
N895 Co891 2.148 . S
N895 C892 1.301 . S
N895 C893 1.317 . S
N896 C892 1.328 . S
N896 C894 1.350 . S
H897 C892 0.930 . S
H898 C893 0.930 . S
C899 O900 1.224 . S
C899 O918 1.247 . S
O900 C899 1.224 . S
N901 Co891 2.128 . S
N901 C902 1.355 . S
N901 C904 1.311 . S
C902 N901 1.355 . S
C902 C903 1.363 . S
C902 H914 0.929 . S
C903 C902 1.363 . S
C903 N905 1.375 . S
C903 H921 0.931 . S
C904 N901 1.311 . S
C904 N905 1.347 . S
C904 H915 0.929 . S
N905 C903 1.375 . S
N905 C904 1.347 . S
C906 C909 1.365 . S
C906 N911 1.328 . S
C906 H912 0.929 . S
C907 C908 1.362 . S
C907 C910 1.378 . S
C907 H922 0.929 . S
C908 C907 1.362 . S
C908 C909 1.366 . S
C909 C906 1.365 . S
C909 C908 1.366 . S
C909 H923 0.930 . S
C910 C907 1.378 . S
C910 N911 1.315 . S
C910 H913 0.930 . S
N911 Co891 2.194 . S
N911 C906 1.328 . S
N911 C910 1.315 . S
H912 C906 0.929 . S
H913 C910 0.930 . S
H914 C902 0.929 . S
H915 C904 0.929 . S
O916 Co891 2.351 . S
O916 C919 1.244 . S
O917 Co891 2.155 . S
O917 C919 1.240 . S
O918 Co891 2.096 . S
O918 C899 1.247 . S
C919 O916 1.244 . S
C919 O917 1.240 . S
H920 C894 0.931 . S
H921 C903 0.931 . S
H922 C907 0.929 . S
H923 C909 0.930 . S
Co924 N928 2.148 . S
Co924 N934 2.128 . S
Co924 N944 2.194 . S
Co924 O949 2.351 . S
Co924 O950 2.155 . S
Co924 O951 2.096 . S
C925 N928 1.301 . S
C925 N929 1.328 . S
C925 H930 0.930 . S
C926 C927 1.333 . S
C926 N928 1.317 . S
C926 H931 0.930 . S
C927 C926 1.333 . S
C927 N929 1.350 . S
C927 H953 0.931 . S
N928 Co924 2.148 . S
N928 C925 1.301 . S
N928 C926 1.317 . S
N929 C925 1.328 . S
N929 C927 1.350 . S
H930 C925 0.930 . S
H931 C926 0.930 . S
C932 O933 1.224 . S
C932 O951 1.247 . S
O933 C932 1.224 . S
N934 Co924 2.128 . S
N934 C935 1.355 . S
N934 C937 1.311 . S
C935 N934 1.355 . S
C935 C936 1.363 . S
C935 H947 0.929 . S
C936 C935 1.363 . S
C936 N938 1.375 . S
C936 H954 0.931 . S
C937 N934 1.311 . S
C937 N938 1.347 . S
C937 H948 0.929 . S
N938 C936 1.375 . S
N938 C937 1.347 . S
C939 C942 1.365 . S
C939 N944 1.328 . S
C939 H945 0.929 . S
C940 C941 1.362 . S
C940 C943 1.378 . S
C940 H955 0.929 . S
C941 C940 1.362 . S
C941 C942 1.366 . S
C942 C939 1.365 . S
C942 C941 1.366 . S
C942 H956 0.930 . S
C943 C940 1.378 . S
C943 N944 1.315 . S
C943 H946 0.930 . S
N944 Co924 2.194 . S
N944 C939 1.328 . S
N944 C943 1.315 . S
H945 C939 0.929 . S
H946 C943 0.930 . S
H947 C935 0.929 . S
H948 C937 0.929 . S
O949 Co924 2.351 . S
O949 C952 1.244 . S
O950 Co924 2.155 . S
O950 C952 1.240 . S
O951 Co924 2.096 . S
O951 C932 1.247 . S
C952 O949 1.244 . S
C952 O950 1.240 . S
H953 C927 0.931 . S
H954 C936 0.931 . S
H955 C940 0.929 . S
H956 C942 0.930 . S
Co957 N961 2.148 . S
Co957 N967 2.128 . S
Co957 N977 2.194 . S
Co957 O982 2.351 . S
Co957 O983 2.155 . S
Co957 O984 2.096 . S
C958 N961 1.301 . S
C958 N962 1.328 . S
C958 H963 0.930 . S
C959 C960 1.333 . S
C959 N961 1.317 . S
C959 H964 0.930 . S
C960 C959 1.333 . S
C960 N962 1.350 . S
C960 H986 0.931 . S
N961 Co957 2.148 . S
N961 C958 1.301 . S
N961 C959 1.317 . S
N962 C958 1.328 . S
N962 C960 1.350 . S
H963 C958 0.930 . S
H964 C959 0.930 . S
C965 O966 1.224 . S
C965 O984 1.247 . S
O966 C965 1.224 . S
N967 Co957 2.128 . S
N967 C968 1.355 . S
N967 C970 1.311 . S
C968 N967 1.355 . S
C968 C969 1.363 . S
C968 H980 0.929 . S
C969 C968 1.363 . S
C969 N971 1.375 . S
C969 H987 0.931 . S
C970 N967 1.311 . S
C970 N971 1.347 . S
C970 H981 0.929 . S
N971 C969 1.375 . S
N971 C970 1.347 . S
C972 C975 1.365 . S
C972 N977 1.328 . S
C972 H978 0.929 . S
C973 C974 1.362 . S
C973 C976 1.378 . S
C973 H988 0.929 . S
C974 C973 1.362 . S
C974 C975 1.366 . S
C975 C972 1.365 . S
C975 C974 1.366 . S
C975 H989 0.930 . S
C976 C973 1.378 . S
C976 N977 1.315 . S
C976 H979 0.930 . S
N977 Co957 2.194 . S
N977 C972 1.328 . S
N977 C976 1.315 . S
H978 C972 0.929 . S
H979 C976 0.930 . S
H980 C968 0.929 . S
H981 C970 0.929 . S
O982 Co957 2.351 . S
O982 C985 1.244 . S
O983 Co957 2.155 . S
O983 C985 1.240 . S
O984 Co957 2.096 . S
O984 C965 1.247 . S
C985 O982 1.244 . S
C985 O983 1.240 . S
H986 C960 0.931 . S
H987 C969 0.931 . S
H988 C973 0.929 . S
H989 C975 0.930 . S
Co990 N994 2.148 . S
Co990 N1000 2.128 . S
Co990 N1010 2.194 . S
Co990 O1015 2.351 . S
Co990 O1016 2.155 . S
Co990 O1017 2.096 . S
C991 N994 1.301 . S
C991 N995 1.328 . S
C991 H996 0.930 . S
C992 C993 1.333 . S
C992 N994 1.317 . S
C992 H997 0.930 . S
C993 C992 1.333 . S
C993 N995 1.350 . S
C993 H1019 0.931 . S
N994 Co990 2.148 . S
N994 C991 1.301 . S
N994 C992 1.317 . S
N995 C991 1.328 . S
N995 C993 1.350 . S
H996 C991 0.930 . S
H997 C992 0.930 . S
C998 O999 1.224 . S
C998 O1017 1.247 . S
O999 C998 1.224 . S
N1000 Co990 2.128 . S
N1000 C1001 1.355 . S
N1000 C1003 1.311 . S
C1001 N1000 1.355 . S
C1001 C1002 1.363 . S
C1001 H1013 0.929 . S
C1002 C1001 1.363 . S
C1002 N1004 1.375 . S
C1002 H1020 0.931 . S
C1003 N1000 1.311 . S
C1003 N1004 1.347 . S
C1003 H1014 0.929 . S
N1004 C1002 1.375 . S
N1004 C1003 1.347 . S
C1005 C1008 1.365 . S
C1005 N1010 1.328 . S
C1005 H1011 0.929 . S
C1006 C1007 1.362 . S
C1006 C1009 1.378 . S
C1006 H1021 0.929 . S
C1007 C1006 1.362 . S
C1007 C1008 1.366 . S
C1008 C1005 1.365 . S
C1008 C1007 1.366 . S
C1008 H1022 0.930 . S
C1009 C1006 1.378 . S
C1009 N1010 1.315 . S
C1009 H1012 0.930 . S
N1010 Co990 2.194 . S
N1010 C1005 1.328 . S
N1010 C1009 1.315 . S
H1011 C1005 0.929 . S
H1012 C1009 0.930 . S
H1013 C1001 0.929 . S
H1014 C1003 0.929 . S
O1015 Co990 2.351 . S
O1015 C1018 1.244 . S
O1016 Co990 2.155 . S
O1016 C1018 1.240 . S
O1017 Co990 2.096 . S
O1017 C998 1.247 . S
C1018 O1015 1.244 . S
C1018 O1016 1.240 . S
H1019 C993 0.931 . S
H1020 C1002 0.931 . S
H1021 C1006 0.929 . S
H1022 C1008 0.930 . S
Co1023 N1027 2.148 . S
Co1023 N1033 2.128 . S
Co1023 N1043 2.194 . S
Co1023 O1048 2.351 . S
Co1023 O1049 2.155 . S
Co1023 O1050 2.096 . S
C1024 N1027 1.301 . S
C1024 N1028 1.328 . S
C1024 H1029 0.930 . S
C1025 C1026 1.333 . S
C1025 N1027 1.317 . S
C1025 H1030 0.930 . S
C1026 C1025 1.333 . S
C1026 N1028 1.350 . S
C1026 H1052 0.931 . S
N1027 Co1023 2.148 . S
N1027 C1024 1.301 . S
N1027 C1025 1.317 . S
N1028 C1024 1.328 . S
N1028 C1026 1.350 . S
H1029 C1024 0.930 . S
H1030 C1025 0.930 . S
C1031 O1032 1.224 . S
C1031 O1050 1.247 . S
O1032 C1031 1.224 . S
N1033 Co1023 2.128 . S
N1033 C1034 1.355 . S
N1033 C1036 1.311 . S
C1034 N1033 1.355 . S
C1034 C1035 1.363 . S
C1034 H1046 0.929 . S
C1035 C1034 1.363 . S
C1035 N1037 1.375 . S
C1035 H1053 0.931 . S
C1036 N1033 1.311 . S
C1036 N1037 1.347 . S
C1036 H1047 0.929 . S
N1037 C1035 1.375 . S
N1037 C1036 1.347 . S
C1038 C1041 1.365 . S
C1038 N1043 1.328 . S
C1038 H1044 0.929 . S
C1039 C1040 1.362 . S
C1039 C1042 1.378 . S
C1039 H1054 0.929 . S
C1040 C1039 1.362 . S
C1040 C1041 1.366 . S
C1041 C1038 1.365 . S
C1041 C1040 1.366 . S
C1041 H1055 0.930 . S
C1042 C1039 1.378 . S
C1042 N1043 1.315 . S
C1042 H1045 0.930 . S
N1043 Co1023 2.194 . S
N1043 C1038 1.328 . S
N1043 C1042 1.315 . S
H1044 C1038 0.929 . S
H1045 C1042 0.930 . S
H1046 C1034 0.929 . S
H1047 C1036 0.929 . S
O1048 Co1023 2.351 . S
O1048 C1051 1.244 . S
O1049 Co1023 2.155 . S
O1049 C1051 1.240 . S
O1050 Co1023 2.096 . S
O1050 C1031 1.247 . S
C1051 O1048 1.244 . S
C1051 O1049 1.240 . S
H1052 C1026 0.931 . S
H1053 C1035 0.931 . S
H1054 C1039 0.929 . S
H1055 C1041 0.930 . S
Co1056 N1060 2.148 . S
Co1056 N1066 2.128 . S
Co1056 N1076 2.194 . S
Co1056 O1081 2.351 . S
Co1056 O1082 2.155 . S
Co1056 O1083 2.096 . S
C1057 N1060 1.301 . S
C1057 N1061 1.328 . S
C1057 H1062 0.930 . S
C1058 C1059 1.333 . S
C1058 N1060 1.317 . S
C1058 H1063 0.930 . S
C1059 C1058 1.333 . S
C1059 N1061 1.350 . S
C1059 H1085 0.931 . S
N1060 Co1056 2.148 . S
N1060 C1057 1.301 . S
N1060 C1058 1.317 . S
N1061 C1057 1.328 . S
N1061 C1059 1.350 . S
H1062 C1057 0.930 . S
H1063 C1058 0.930 . S
C1064 O1065 1.224 . S
C1064 O1083 1.247 . S
O1065 C1064 1.224 . S
N1066 Co1056 2.128 . S
N1066 C1067 1.355 . S
N1066 C1069 1.311 . S
C1067 N1066 1.355 . S
C1067 C1068 1.363 . S
C1067 H1079 0.929 . S
C1068 C1067 1.363 . S
C1068 N1070 1.375 . S
C1068 H1086 0.931 . S
C1069 N1066 1.311 . S
C1069 N1070 1.347 . S
C1069 H1080 0.929 . S
N1070 C1068 1.375 . S
N1070 C1069 1.347 . S
C1071 C1074 1.365 . S
C1071 N1076 1.328 . S
C1071 H1077 0.929 . S
C1072 C1073 1.362 . S
C1072 C1075 1.378 . S
C1072 H1087 0.929 . S
C1073 C1072 1.362 . S
C1073 C1074 1.366 . S
C1074 C1071 1.365 . S
C1074 C1073 1.366 . S
C1074 H1088 0.930 . S
C1075 C1072 1.378 . S
C1075 N1076 1.315 . S
C1075 H1078 0.930 . S
N1076 Co1056 2.194 . S
N1076 C1071 1.328 . S
N1076 C1075 1.315 . S
H1077 C1071 0.929 . S
H1078 C1075 0.930 . S
H1079 C1067 0.929 . S
H1080 C1069 0.929 . S
O1081 Co1056 2.351 . S
O1081 C1084 1.244 . S
O1082 Co1056 2.155 . S
O1082 C1084 1.240 . S
O1083 Co1056 2.096 . S
O1083 C1064 1.247 . S
C1084 O1081 1.244 . S
C1084 O1082 1.240 . S
H1085 C1059 0.931 . S
H1086 C1068 0.931 . S
H1087 C1072 0.929 . S
H1088 C1074 0.930 . S
Co1089 N1093 2.148 1_545 S
Co1089 N1099 2.128 . S
Co1089 N1109 2.194 . S
Co1089 O1114 2.351 . S
Co1089 O1115 2.155 . S
Co1089 O1116 2.095 1_545 S
C1090 N1093 1.301 . S
C1090 N1094 1.328 . S
C1090 H1095 0.930 1_565 S
C1091 C1092 1.333 . S
C1091 N1093 1.317 . S
C1091 H1096 0.930 . S
C1092 C1091 1.333 . S
C1092 N1094 1.350 . S
C1092 H1118 0.931 . S
N1093 Co1089 2.148 1_565 S
N1093 C1090 1.301 . S
N1093 C1091 1.317 . S
N1094 C1090 1.328 . S
N1094 C1092 1.350 . S
H1095 C1090 0.930 1_545 S
H1096 C1091 0.930 . S
C1097 O1098 1.224 . S
C1097 O1116 1.247 . S
O1098 C1097 1.224 . S
N1099 Co1089 2.128 . S
N1099 C1100 1.355 . S
N1099 C1102 1.311 . S
C1100 N1099 1.355 . S
C1100 C1101 1.363 . S
C1100 H1112 0.929 . S
C1101 C1100 1.363 . S
C1101 N1103 1.375 . S
C1101 H1119 0.931 . S
C1102 N1099 1.311 . S
C1102 N1103 1.347 . S
C1102 H1113 0.929 . S
N1103 C1101 1.375 . S
N1103 C1102 1.347 . S
C1104 C1107 1.365 . S
C1104 N1109 1.328 . S
C1104 H1110 0.929 . S
C1105 C1106 1.362 . S
C1105 C1108 1.378 . S
C1105 H1120 0.929 . S
C1106 C1105 1.362 . S
C1106 C1107 1.366 . S
C1107 C1104 1.365 . S
C1107 C1106 1.366 . S
C1107 H1121 0.930 . S
C1108 C1105 1.378 . S
C1108 N1109 1.315 . S
C1108 H1111 0.930 . S
N1109 Co1089 2.194 . S
N1109 C1104 1.328 . S
N1109 C1108 1.315 . S
H1110 C1104 0.929 . S
H1111 C1108 0.930 . S
H1112 C1100 0.929 . S
H1113 C1102 0.929 . S
O1114 Co1089 2.351 . S
O1114 C1117 1.244 . S
O1115 Co1089 2.155 . S
O1115 C1117 1.240 . S
O1116 Co1089 2.095 1_565 S
O1116 C1097 1.247 . S
C1117 O1114 1.244 . S
C1117 O1115 1.240 . S
H1118 C1092 0.931 . S
H1119 C1101 0.931 . S
H1120 C1105 0.929 . S
H1121 C1107 0.930 . S
Co1122 N1126 2.148 . S
Co1122 N1132 2.128 . S
Co1122 N1142 2.194 . S
Co1122 O1147 2.351 . S
Co1122 O1148 2.155 . S
Co1122 O1149 2.096 . S
C1123 N1126 1.301 . S
C1123 N1127 1.328 . S
C1123 H1128 0.930 . S
C1124 C1125 1.333 . S
C1124 N1126 1.317 . S
C1124 H1129 0.930 . S
C1125 C1124 1.333 . S
C1125 N1127 1.350 . S
C1125 H1151 0.931 . S
N1126 Co1122 2.148 . S
N1126 C1123 1.301 . S
N1126 C1124 1.317 . S
N1127 C1123 1.328 . S
N1127 C1125 1.350 . S
H1128 C1123 0.930 . S
H1129 C1124 0.930 . S
C1130 O1131 1.224 . S
C1130 O1149 1.247 . S
O1131 C1130 1.224 . S
N1132 Co1122 2.128 . S
N1132 C1133 1.355 . S
N1132 C1135 1.311 . S
C1133 N1132 1.355 . S
C1133 C1134 1.363 . S
C1133 H1145 0.929 . S
C1134 C1133 1.363 . S
C1134 N1136 1.375 . S
C1134 H1152 0.931 . S
C1135 N1132 1.311 . S
C1135 N1136 1.347 . S
C1135 H1146 0.929 . S
N1136 C1134 1.375 . S
N1136 C1135 1.347 . S
C1137 C1140 1.365 . S
C1137 N1142 1.328 . S
C1137 H1143 0.929 . S
C1138 C1139 1.362 . S
C1138 C1141 1.378 . S
C1138 H1153 0.929 . S
C1139 C1138 1.362 . S
C1139 C1140 1.366 . S
C1140 C1137 1.365 . S
C1140 C1139 1.366 . S
C1140 H1154 0.930 . S
C1141 C1138 1.378 . S
C1141 N1142 1.315 . S
C1141 H1144 0.930 . S
N1142 Co1122 2.194 . S
N1142 C1137 1.328 . S
N1142 C1141 1.315 . S
H1143 C1137 0.929 . S
H1144 C1141 0.930 . S
H1145 C1133 0.929 . S
H1146 C1135 0.929 . S
O1147 Co1122 2.351 . S
O1147 C1150 1.244 . S
O1148 Co1122 2.155 . S
O1148 C1150 1.240 . S
O1149 Co1122 2.096 . S
O1149 C1130 1.247 . S
C1150 O1147 1.244 . S
C1150 O1148 1.240 . S
H1151 C1125 0.931 . S
H1152 C1134 0.931 . S
H1153 C1138 0.929 . S
H1154 C1140 0.930 . S
Co1155 N1159 2.148 . S
Co1155 N1165 2.128 . S
Co1155 N1175 2.194 . S
Co1155 O1180 2.351 . S
Co1155 O1181 2.155 . S
Co1155 O1182 2.096 . S
C1156 N1159 1.301 . S
C1156 N1160 1.328 . S
C1156 H1161 0.930 . S
C1157 C1158 1.333 . S
C1157 N1159 1.317 . S
C1157 H1162 0.930 . S
C1158 C1157 1.333 . S
C1158 N1160 1.350 . S
C1158 H1184 0.931 . S
N1159 Co1155 2.148 . S
N1159 C1156 1.301 . S
N1159 C1157 1.317 . S
N1160 C1156 1.328 . S
N1160 C1158 1.350 . S
H1161 C1156 0.930 . S
H1162 C1157 0.930 . S
C1163 O1164 1.224 . S
C1163 O1182 1.247 . S
O1164 C1163 1.224 . S
N1165 Co1155 2.128 . S
N1165 C1166 1.355 . S
N1165 C1168 1.311 . S
C1166 N1165 1.355 . S
C1166 C1167 1.363 . S
C1166 H1178 0.929 . S
C1167 C1166 1.363 . S
C1167 N1169 1.375 . S
C1167 H1185 0.931 . S
C1168 N1165 1.311 . S
C1168 N1169 1.347 . S
C1168 H1179 0.929 . S
N1169 C1167 1.375 . S
N1169 C1168 1.347 . S
C1170 C1173 1.365 . S
C1170 N1175 1.328 . S
C1170 H1176 0.929 . S
C1171 C1172 1.362 . S
C1171 C1174 1.378 . S
C1171 H1186 0.929 . S
C1172 C1171 1.362 . S
C1172 C1173 1.366 . S
C1173 C1170 1.365 . S
C1173 C1172 1.366 . S
C1173 H1187 0.930 . S
C1174 C1171 1.378 . S
C1174 N1175 1.315 . S
C1174 H1177 0.930 . S
N1175 Co1155 2.194 . S
N1175 C1170 1.328 . S
N1175 C1174 1.315 . S
H1176 C1170 0.929 . S
H1177 C1174 0.930 . S
H1178 C1166 0.929 . S
H1179 C1168 0.929 . S
O1180 Co1155 2.351 . S
O1180 C1183 1.244 . S
O1181 Co1155 2.155 . S
O1181 C1183 1.240 . S
O1182 Co1155 2.096 . S
O1182 C1163 1.247 . S
C1183 O1180 1.244 . S
C1183 O1181 1.240 . S
H1184 C1158 0.931 . S
H1185 C1167 0.931 . S
H1186 C1171 0.929 . S
H1187 C1173 0.930 . S
Co1188 N1192 2.148 . S
Co1188 N1198 2.128 . S
Co1188 N1208 2.194 . S
Co1188 O1213 2.351 . S
Co1188 O1214 2.155 . S
Co1188 O1215 2.096 . S
C1189 N1192 1.301 . S
C1189 N1193 1.328 . S
C1189 H1194 0.930 . S
C1190 C1191 1.333 . S
C1190 N1192 1.317 . S
C1190 H1195 0.930 . S
C1191 C1190 1.333 . S
C1191 N1193 1.350 . S
C1191 H1217 0.931 . S
N1192 Co1188 2.148 . S
N1192 C1189 1.301 . S
N1192 C1190 1.317 . S
N1193 C1189 1.328 . S
N1193 C1191 1.350 . S
H1194 C1189 0.930 . S
H1195 C1190 0.930 . S
C1196 O1197 1.224 . S
C1196 O1215 1.247 . S
O1197 C1196 1.224 . S
N1198 Co1188 2.128 . S
N1198 C1199 1.355 . S
N1198 C1201 1.311 . S
C1199 N1198 1.355 . S
C1199 C1200 1.363 . S
C1199 H1211 0.929 . S
C1200 C1199 1.363 . S
C1200 N1202 1.375 . S
C1200 H1218 0.931 . S
C1201 N1198 1.311 . S
C1201 N1202 1.347 . S
C1201 H1212 0.929 . S
N1202 C1200 1.375 . S
N1202 C1201 1.347 . S
C1203 C1206 1.365 . S
C1203 N1208 1.328 . S
C1203 H1209 0.929 . S
C1204 C1205 1.362 . S
C1204 C1207 1.378 . S
C1204 H1219 0.929 . S
C1205 C1204 1.362 . S
C1205 C1206 1.366 . S
C1206 C1203 1.365 . S
C1206 C1205 1.366 . S
C1206 H1220 0.930 . S
C1207 C1204 1.378 . S
C1207 N1208 1.315 . S
C1207 H1210 0.930 . S
N1208 Co1188 2.194 . S
N1208 C1203 1.328 . S
N1208 C1207 1.315 . S
H1209 C1203 0.929 . S
H1210 C1207 0.930 . S
H1211 C1199 0.929 . S
H1212 C1201 0.929 . S
O1213 Co1188 2.351 . S
O1213 C1216 1.244 . S
O1214 Co1188 2.155 . S
O1214 C1216 1.240 . S
O1215 Co1188 2.096 . S
O1215 C1196 1.247 . S
C1216 O1213 1.244 . S
C1216 O1214 1.240 . S
H1217 C1191 0.931 . S
H1218 C1200 0.931 . S
H1219 C1204 0.929 . S
H1220 C1206 0.930 . S
Co1221 N1225 2.148 1_545 S
Co1221 N1231 2.128 . S
Co1221 N1241 2.194 . S
Co1221 O1246 2.351 . S
Co1221 O1247 2.155 . S
Co1221 O1248 2.095 1_545 S
C1222 N1225 1.301 . S
C1222 N1226 1.328 . S
C1222 H1227 0.930 1_565 S
C1223 C1224 1.333 . S
C1223 N1225 1.317 . S
C1223 H1228 0.930 . S
C1224 C1223 1.333 . S
C1224 N1226 1.350 . S
C1224 H1250 0.931 . S
N1225 Co1221 2.148 1_565 S
N1225 C1222 1.301 . S
N1225 C1223 1.317 . S
N1226 C1222 1.328 . S
N1226 C1224 1.350 . S
H1227 C1222 0.930 1_545 S
H1228 C1223 0.930 . S
C1229 O1230 1.224 . S
C1229 O1248 1.247 . S
O1230 C1229 1.224 . S
N1231 Co1221 2.128 . S
N1231 C1232 1.355 . S
N1231 C1234 1.311 . S
C1232 N1231 1.355 . S
C1232 C1233 1.363 . S
C1232 H1244 0.929 . S
C1233 C1232 1.363 . S
C1233 N1235 1.375 . S
C1233 H1251 0.931 . S
C1234 N1231 1.311 . S
C1234 N1235 1.347 . S
C1234 H1245 0.929 . S
N1235 C1233 1.375 . S
N1235 C1234 1.347 . S
C1236 C1239 1.365 . S
C1236 N1241 1.328 . S
C1236 H1242 0.929 . S
C1237 C1238 1.362 . S
C1237 C1240 1.378 . S
C1237 H1252 0.929 . S
C1238 C1237 1.362 . S
C1238 C1239 1.366 . S
C1239 C1236 1.365 . S
C1239 C1238 1.366 . S
C1239 H1253 0.930 . S
C1240 C1237 1.378 . S
C1240 N1241 1.315 . S
C1240 H1243 0.930 . S
N1241 Co1221 2.194 . S
N1241 C1236 1.328 . S
N1241 C1240 1.315 . S
H1242 C1236 0.929 . S
H1243 C1240 0.930 . S
H1244 C1232 0.929 . S
H1245 C1234 0.929 . S
O1246 Co1221 2.351 . S
O1246 C1249 1.244 . S
O1247 Co1221 2.155 . S
O1247 C1249 1.240 . S
O1248 Co1221 2.095 1_565 S
O1248 C1229 1.247 . S
C1249 O1246 1.244 . S
C1249 O1247 1.240 . S
H1250 C1224 0.931 . S
H1251 C1233 0.931 . S
H1252 C1237 0.929 . S
H1253 C1239 0.930 . S
Co1254 N1258 2.148 . S
Co1254 N1264 2.128 . S
Co1254 N1274 2.194 . S
Co1254 O1279 2.351 . S
Co1254 O1280 2.155 . S
Co1254 O1281 2.096 . S
C1255 N1258 1.301 . S
C1255 N1259 1.328 . S
C1255 H1260 0.930 . S
C1256 C1257 1.333 . S
C1256 N1258 1.317 . S
C1256 H1261 0.930 . S
C1257 C1256 1.333 . S
C1257 N1259 1.350 . S
C1257 H1283 0.931 . S
N1258 Co1254 2.148 . S
N1258 C1255 1.301 . S
N1258 C1256 1.317 . S
N1259 C1255 1.328 . S
N1259 C1257 1.350 . S
H1260 C1255 0.930 . S
H1261 C1256 0.930 . S
C1262 O1263 1.224 . S
C1262 O1281 1.247 . S
O1263 C1262 1.224 . S
N1264 Co1254 2.128 . S
N1264 C1265 1.355 . S
N1264 C1267 1.311 . S
C1265 N1264 1.355 . S
C1265 C1266 1.363 . S
C1265 H1277 0.929 . S
C1266 C1265 1.363 . S
C1266 N1268 1.375 . S
C1266 H1284 0.931 . S
C1267 N1264 1.311 . S
C1267 N1268 1.347 . S
C1267 H1278 0.929 . S
N1268 C1266 1.375 . S
N1268 C1267 1.347 . S
C1269 C1272 1.365 . S
C1269 N1274 1.328 . S
C1269 H1275 0.929 . S
C1270 C1271 1.362 . S
C1270 C1273 1.378 . S
C1270 H1285 0.929 . S
C1271 C1270 1.362 . S
C1271 C1272 1.366 . S
C1272 C1269 1.365 . S
C1272 C1271 1.366 . S
C1272 H1286 0.930 . S
C1273 C1270 1.378 . S
C1273 N1274 1.315 . S
C1273 H1276 0.930 . S
N1274 Co1254 2.194 . S
N1274 C1269 1.328 . S
N1274 C1273 1.315 . S
H1275 C1269 0.929 . S
H1276 C1273 0.930 . S
H1277 C1265 0.929 . S
H1278 C1267 0.929 . S
O1279 Co1254 2.351 . S
O1279 C1282 1.244 . S
O1280 Co1254 2.155 . S
O1280 C1282 1.240 . S
O1281 Co1254 2.096 . S
O1281 C1262 1.247 . S
C1282 O1279 1.244 . S
C1282 O1280 1.240 . S
H1283 C1257 0.931 . S
H1284 C1266 0.931 . S
H1285 C1270 0.929 . S
H1286 C1272 0.930 . S
Co1287 N1291 2.148 . S
Co1287 N1297 2.128 . S
Co1287 N1307 2.194 . S
Co1287 O1312 2.351 . S
Co1287 O1313 2.155 . S
Co1287 O1314 2.096 . S
C1288 N1291 1.301 . S
C1288 N1292 1.328 . S
C1288 H1293 0.930 . S
C1289 C1290 1.333 . S
C1289 N1291 1.317 . S
C1289 H1294 0.930 . S
C1290 C1289 1.333 . S
C1290 N1292 1.350 . S
C1290 H1316 0.931 . S
N1291 Co1287 2.148 . S
N1291 C1288 1.301 . S
N1291 C1289 1.317 . S
N1292 C1288 1.328 . S
N1292 C1290 1.350 . S
H1293 C1288 0.930 . S
H1294 C1289 0.930 . S
C1295 O1296 1.224 . S
C1295 O1314 1.247 . S
O1296 C1295 1.224 . S
N1297 Co1287 2.128 . S
N1297 C1298 1.355 . S
N1297 C1300 1.311 . S
C1298 N1297 1.355 . S
C1298 C1299 1.363 . S
C1298 H1310 0.929 . S
C1299 C1298 1.363 . S
C1299 N1301 1.375 . S
C1299 H1317 0.931 . S
C1300 N1297 1.311 . S
C1300 N1301 1.347 . S
C1300 H1311 0.929 . S
N1301 C1299 1.375 . S
N1301 C1300 1.347 . S
C1302 C1305 1.365 . S
C1302 N1307 1.328 . S
C1302 H1308 0.929 . S
C1303 C1304 1.362 . S
C1303 C1306 1.378 . S
C1303 H1318 0.929 . S
C1304 C1303 1.362 . S
C1304 C1305 1.366 . S
C1305 C1302 1.365 . S
C1305 C1304 1.366 . S
C1305 H1319 0.930 . S
C1306 C1303 1.378 . S
C1306 N1307 1.315 . S
C1306 H1309 0.930 . S
N1307 Co1287 2.194 . S
N1307 C1302 1.328 . S
N1307 C1306 1.315 . S
H1308 C1302 0.929 . S
H1309 C1306 0.930 . S
H1310 C1298 0.929 . S
H1311 C1300 0.929 . S
O1312 Co1287 2.351 . S
O1312 C1315 1.244 . S
O1313 Co1287 2.155 . S
O1313 C1315 1.240 . S
O1314 Co1287 2.096 . S
O1314 C1295 1.247 . S
C1315 O1312 1.244 . S
C1315 O1313 1.240 . S
H1316 C1290 0.931 . S
H1317 C1299 0.931 . S
H1318 C1303 0.929 . S
H1319 C1305 0.930 . S
Co1320 N1324 2.148 . S
Co1320 N1330 2.128 . S
Co1320 N1340 2.194 . S
Co1320 O1345 2.351 . S
Co1320 O1346 2.155 . S
Co1320 O1347 2.096 . S
C1321 N1324 1.301 . S
C1321 N1325 1.328 . S
C1321 H1326 0.930 . S
C1322 C1323 1.333 . S
C1322 N1324 1.317 . S
C1322 H1327 0.930 . S
C1323 C1322 1.333 . S
C1323 N1325 1.350 . S
C1323 H1349 0.931 . S
N1324 Co1320 2.148 . S
N1324 C1321 1.301 . S
N1324 C1322 1.317 . S
N1325 C1321 1.328 . S
N1325 C1323 1.350 . S
H1326 C1321 0.930 . S
H1327 C1322 0.930 . S
C1328 O1329 1.224 . S
C1328 O1347 1.247 . S
O1329 C1328 1.224 . S
N1330 Co1320 2.128 . S
N1330 C1331 1.355 . S
N1330 C1333 1.311 . S
C1331 N1330 1.355 . S
C1331 C1332 1.363 . S
C1331 H1343 0.929 . S
C1332 C1331 1.363 . S
C1332 N1334 1.375 . S
C1332 H1350 0.931 . S
C1333 N1330 1.311 . S
C1333 N1334 1.347 . S
C1333 H1344 0.929 . S
N1334 C1332 1.375 . S
N1334 C1333 1.347 . S
C1335 C1338 1.365 . S
C1335 N1340 1.328 . S
C1335 H1341 0.929 . S
C1336 C1337 1.362 . S
C1336 C1339 1.378 . S
C1336 H1351 0.929 . S
C1337 C1336 1.362 . S
C1337 C1338 1.366 . S
C1338 C1335 1.365 . S
C1338 C1337 1.366 . S
C1338 H1352 0.930 . S
C1339 C1336 1.378 . S
C1339 N1340 1.315 . S
C1339 H1342 0.930 . S
N1340 Co1320 2.194 . S
N1340 C1335 1.328 . S
N1340 C1339 1.315 . S
H1341 C1335 0.929 . S
H1342 C1339 0.930 . S
H1343 C1331 0.929 . S
H1344 C1333 0.929 . S
O1345 Co1320 2.351 . S
O1345 C1348 1.244 . S
O1346 Co1320 2.155 . S
O1346 C1348 1.240 . S
O1347 Co1320 2.096 . S
O1347 C1328 1.247 . S
C1348 O1345 1.244 . S
C1348 O1346 1.240 . S
H1349 C1323 0.931 . S
H1350 C1332 0.931 . S
H1351 C1336 0.929 . S
H1352 C1338 0.930 . S
Co1353 N1357 2.148 . S
Co1353 N1363 2.128 . S
Co1353 N1373 2.194 . S
Co1353 O1378 2.351 . S
Co1353 O1379 2.155 . S
Co1353 O1380 2.096 . S
C1354 N1357 1.301 . S
C1354 N1358 1.328 . S
C1354 H1359 0.930 . S
C1355 C1356 1.333 . S
C1355 N1357 1.317 . S
C1355 H1360 0.930 . S
C1356 C1355 1.333 . S
C1356 N1358 1.350 . S
C1356 H1382 0.931 . S
N1357 Co1353 2.148 . S
N1357 C1354 1.301 . S
N1357 C1355 1.317 . S
N1358 C1354 1.328 . S
N1358 C1356 1.350 . S
H1359 C1354 0.930 . S
H1360 C1355 0.930 . S
C1361 O1362 1.224 . S
C1361 O1380 1.247 . S
O1362 C1361 1.224 . S
N1363 Co1353 2.128 . S
N1363 C1364 1.355 . S
N1363 C1366 1.311 . S
C1364 N1363 1.355 . S
C1364 C1365 1.363 . S
C1364 H1376 0.929 . S
C1365 C1364 1.363 . S
C1365 N1367 1.375 . S
C1365 H1383 0.931 . S
C1366 N1363 1.311 . S
C1366 N1367 1.347 . S
C1366 H1377 0.929 . S
N1367 C1365 1.375 . S
N1367 C1366 1.347 . S
C1368 C1371 1.365 . S
C1368 N1373 1.328 . S
C1368 H1374 0.929 . S
C1369 C1370 1.362 . S
C1369 C1372 1.378 . S
C1369 H1384 0.929 . S
C1370 C1369 1.362 . S
C1370 C1371 1.366 . S
C1371 C1368 1.365 . S
C1371 C1370 1.366 . S
C1371 H1385 0.930 . S
C1372 C1369 1.378 . S
C1372 N1373 1.315 . S
C1372 H1375 0.930 . S
N1373 Co1353 2.194 . S
N1373 C1368 1.328 . S
N1373 C1372 1.315 . S
H1374 C1368 0.929 . S
H1375 C1372 0.930 . S
H1376 C1364 0.929 . S
H1377 C1366 0.929 . S
O1378 Co1353 2.351 . S
O1378 C1381 1.244 . S
O1379 Co1353 2.155 . S
O1379 C1381 1.240 . S
O1380 Co1353 2.096 . S
O1380 C1361 1.247 . S
C1381 O1378 1.244 . S
C1381 O1379 1.240 . S
H1382 C1356 0.931 . S
H1383 C1365 0.931 . S
H1384 C1369 0.929 . S
H1385 C1371 0.930 . S
Co1386 N1390 2.148 . S
Co1386 N1396 2.128 . S
Co1386 N1406 2.194 . S
Co1386 O1411 2.351 . S
Co1386 O1412 2.155 . S
Co1386 O1413 2.096 . S
C1387 N1390 1.301 . S
C1387 N1391 1.328 . S
C1387 H1392 0.930 . S
C1388 C1389 1.333 . S
C1388 N1390 1.317 . S
C1388 H1393 0.930 . S
C1389 C1388 1.333 . S
C1389 N1391 1.350 . S
C1389 H1415 0.931 . S
N1390 Co1386 2.148 . S
N1390 C1387 1.301 . S
N1390 C1388 1.317 . S
N1391 C1387 1.328 . S
N1391 C1389 1.350 . S
H1392 C1387 0.930 . S
H1393 C1388 0.930 . S
C1394 O1395 1.224 . S
C1394 O1413 1.247 . S
O1395 C1394 1.224 . S
N1396 Co1386 2.128 . S
N1396 C1397 1.355 . S
N1396 C1399 1.311 . S
C1397 N1396 1.355 . S
C1397 C1398 1.363 . S
C1397 H1409 0.929 . S
C1398 C1397 1.363 . S
C1398 N1400 1.375 . S
C1398 H1416 0.931 . S
C1399 N1396 1.311 . S
C1399 N1400 1.347 . S
C1399 H1410 0.929 . S
N1400 C1398 1.375 . S
N1400 C1399 1.347 . S
C1401 C1404 1.365 . S
C1401 N1406 1.328 . S
C1401 H1407 0.929 . S
C1402 C1403 1.362 . S
C1402 C1405 1.378 . S
C1402 H1417 0.929 . S
C1403 C1402 1.362 . S
C1403 C1404 1.366 . S
C1404 C1401 1.365 . S
C1404 C1403 1.366 . S
C1404 H1418 0.930 . S
C1405 C1402 1.378 . S
C1405 N1406 1.315 . S
C1405 H1408 0.930 . S
N1406 Co1386 2.194 . S
N1406 C1401 1.328 . S
N1406 C1405 1.315 . S
H1407 C1401 0.929 . S
H1408 C1405 0.930 . S
H1409 C1397 0.929 . S
H1410 C1399 0.929 . S
O1411 Co1386 2.351 . S
O1411 C1414 1.244 . S
O1412 Co1386 2.155 . S
O1412 C1414 1.240 . S
O1413 Co1386 2.096 . S
O1413 C1394 1.247 . S
C1414 O1411 1.244 . S
C1414 O1412 1.240 . S
H1415 C1389 0.931 . S
H1416 C1398 0.931 . S
H1417 C1402 0.929 . S
H1418 C1404 0.930 . S
Co1419 N1423 2.148 . S
Co1419 N1429 2.128 . S
Co1419 N1439 2.194 . S
Co1419 O1444 2.351 . S
Co1419 O1445 2.155 . S
Co1419 O1446 2.096 . S
C1420 N1423 1.301 . S
C1420 N1424 1.328 . S
C1420 H1425 0.930 . S
C1421 C1422 1.333 . S
C1421 N1423 1.317 . S
C1421 H1426 0.930 . S
C1422 C1421 1.333 . S
C1422 N1424 1.350 . S
C1422 H1448 0.931 . S
N1423 Co1419 2.148 . S
N1423 C1420 1.301 . S
N1423 C1421 1.317 . S
N1424 C1420 1.328 . S
N1424 C1422 1.350 . S
H1425 C1420 0.930 . S
H1426 C1421 0.930 . S
C1427 O1428 1.224 . S
C1427 O1446 1.247 . S
O1428 C1427 1.224 . S
N1429 Co1419 2.128 . S
N1429 C1430 1.355 . S
N1429 C1432 1.311 . S
C1430 N1429 1.355 . S
C1430 C1431 1.363 . S
C1430 H1442 0.929 . S
C1431 C1430 1.363 . S
C1431 N1433 1.375 . S
C1431 H1449 0.931 . S
C1432 N1429 1.311 . S
C1432 N1433 1.347 . S
C1432 H1443 0.929 . S
N1433 C1431 1.375 . S
N1433 C1432 1.347 . S
C1434 C1437 1.365 . S
C1434 N1439 1.328 . S
C1434 H1440 0.929 . S
C1435 C1436 1.362 . S
C1435 C1438 1.378 . S
C1435 H1450 0.929 . S
C1436 C1435 1.362 . S
C1436 C1437 1.366 . S
C1437 C1434 1.365 . S
C1437 C1436 1.366 . S
C1437 H1451 0.930 . S
C1438 C1435 1.378 . S
C1438 N1439 1.315 . S
C1438 H1441 0.930 . S
N1439 Co1419 2.194 . S
N1439 C1434 1.328 . S
N1439 C1438 1.315 . S
H1440 C1434 0.929 . S
H1441 C1438 0.930 . S
H1442 C1430 0.929 . S
H1443 C1432 0.929 . S
O1444 Co1419 2.351 . S
O1444 C1447 1.244 . S
O1445 Co1419 2.155 . S
O1445 C1447 1.240 . S
O1446 Co1419 2.096 . S
O1446 C1427 1.247 . S
C1447 O1444 1.244 . S
C1447 O1445 1.240 . S
H1448 C1422 0.931 . S
H1449 C1431 0.931 . S
H1450 C1435 0.929 . S
H1451 C1437 0.930 . S
Co1452 N1456 2.148 1_655 S
Co1452 N1462 2.128 . S
Co1452 N1472 2.194 . S
Co1452 O1477 2.351 . S
Co1452 O1478 2.155 . S
Co1452 O1479 2.095 1_655 S
C1453 N1456 1.301 . S
C1453 N1457 1.328 . S
C1453 H1458 0.930 1_455 S
C1454 C1455 1.333 . S
C1454 N1456 1.317 . S
C1454 H1459 0.930 . S
C1455 C1454 1.333 . S
C1455 N1457 1.350 . S
C1455 H1481 0.931 . S
N1456 Co1452 2.148 1_455 S
N1456 C1453 1.301 . S
N1456 C1454 1.317 . S
N1457 C1453 1.328 . S
N1457 C1455 1.350 . S
H1458 C1453 0.930 1_655 S
H1459 C1454 0.930 . S
C1460 O1461 1.224 . S
C1460 O1479 1.247 . S
O1461 C1460 1.224 . S
N1462 Co1452 2.128 . S
N1462 C1463 1.355 . S
N1462 C1465 1.311 . S
C1463 N1462 1.355 . S
C1463 C1464 1.363 . S
C1463 H1475 0.929 . S
C1464 C1463 1.363 . S
C1464 N1466 1.375 . S
C1464 H1482 0.931 . S
C1465 N1462 1.311 . S
C1465 N1466 1.347 . S
C1465 H1476 0.929 . S
N1466 C1464 1.375 . S
N1466 C1465 1.347 . S
C1467 C1470 1.365 . S
C1467 N1472 1.328 . S
C1467 H1473 0.929 . S
C1468 C1469 1.362 . S
C1468 C1471 1.378 . S
C1468 H1483 0.929 . S
C1469 C1468 1.362 . S
C1469 C1470 1.366 . S
C1470 C1467 1.365 . S
C1470 C1469 1.366 . S
C1470 H1484 0.930 . S
C1471 C1468 1.378 . S
C1471 N1472 1.315 . S
C1471 H1474 0.930 . S
N1472 Co1452 2.194 . S
N1472 C1467 1.328 . S
N1472 C1471 1.315 . S
H1473 C1467 0.929 . S
H1474 C1471 0.930 . S
H1475 C1463 0.929 . S
H1476 C1465 0.929 . S
O1477 Co1452 2.351 . S
O1477 C1480 1.244 . S
O1478 Co1452 2.155 . S
O1478 C1480 1.240 . S
O1479 Co1452 2.095 1_455 S
O1479 C1460 1.247 . S
C1480 O1477 1.244 . S
C1480 O1478 1.240 . S
H1481 C1455 0.931 . S
H1482 C1464 0.931 . S
H1483 C1468 0.929 . S
H1484 C1470 0.930 . S
Co1485 N1489 2.148 . S
Co1485 N1495 2.128 . S
Co1485 N1505 2.194 . S
Co1485 O1510 2.351 . S
Co1485 O1511 2.155 . S
Co1485 O1512 2.096 . S
C1486 N1489 1.301 . S
C1486 N1490 1.328 . S
C1486 H1491 0.930 . S
C1487 C1488 1.333 . S
C1487 N1489 1.317 . S
C1487 H1492 0.930 . S
C1488 C1487 1.333 . S
C1488 N1490 1.350 . S
C1488 H1514 0.931 . S
N1489 Co1485 2.148 . S
N1489 C1486 1.301 . S
N1489 C1487 1.317 . S
N1490 C1486 1.328 . S
N1490 C1488 1.350 . S
H1491 C1486 0.930 . S
H1492 C1487 0.930 . S
C1493 O1494 1.224 . S
C1493 O1512 1.247 . S
O1494 C1493 1.224 . S
N1495 Co1485 2.128 . S
N1495 C1496 1.355 . S
N1495 C1498 1.311 . S
C1496 N1495 1.355 . S
C1496 C1497 1.363 . S
C1496 H1508 0.929 . S
C1497 C1496 1.363 . S
C1497 N1499 1.375 . S
C1497 H1515 0.931 . S
C1498 N1495 1.311 . S
C1498 N1499 1.347 . S
C1498 H1509 0.929 . S
N1499 C1497 1.375 . S
N1499 C1498 1.347 . S
C1500 C1503 1.365 . S
C1500 N1505 1.328 . S
C1500 H1506 0.929 . S
C1501 C1502 1.362 . S
C1501 C1504 1.378 . S
C1501 H1516 0.929 . S
C1502 C1501 1.362 . S
C1502 C1503 1.366 . S
C1503 C1500 1.365 . S
C1503 C1502 1.366 . S
C1503 H1517 0.930 . S
C1504 C1501 1.378 . S
C1504 N1505 1.315 . S
C1504 H1507 0.930 . S
N1505 Co1485 2.194 . S
N1505 C1500 1.328 . S
N1505 C1504 1.315 . S
H1506 C1500 0.929 . S
H1507 C1504 0.930 . S
H1508 C1496 0.929 . S
H1509 C1498 0.929 . S
O1510 Co1485 2.351 . S
O1510 C1513 1.244 . S
O1511 Co1485 2.155 . S
O1511 C1513 1.240 . S
O1512 Co1485 2.096 . S
O1512 C1493 1.247 . S
C1513 O1510 1.244 . S
C1513 O1511 1.240 . S
H1514 C1488 0.931 . S
H1515 C1497 0.931 . S
H1516 C1501 0.929 . S
H1517 C1503 0.930 . S
Co1518 N1522 2.148 . S
Co1518 N1528 2.128 . S
Co1518 N1538 2.194 . S
Co1518 O1543 2.351 . S
Co1518 O1544 2.155 . S
Co1518 O1545 2.096 . S
C1519 N1522 1.301 . S
C1519 N1523 1.328 . S
C1519 H1524 0.930 . S
C1520 C1521 1.333 . S
C1520 N1522 1.317 . S
C1520 H1525 0.930 . S
C1521 C1520 1.333 . S
C1521 N1523 1.350 . S
C1521 H1547 0.931 . S
N1522 Co1518 2.148 . S
N1522 C1519 1.301 . S
N1522 C1520 1.317 . S
N1523 C1519 1.328 . S
N1523 C1521 1.350 . S
H1524 C1519 0.930 . S
H1525 C1520 0.930 . S
C1526 O1527 1.224 . S
C1526 O1545 1.247 . S
O1527 C1526 1.224 . S
N1528 Co1518 2.128 . S
N1528 C1529 1.355 . S
N1528 C1531 1.311 . S
C1529 N1528 1.355 . S
C1529 C1530 1.363 . S
C1529 H1541 0.929 . S
C1530 C1529 1.363 . S
C1530 N1532 1.375 . S
C1530 H1548 0.931 . S
C1531 N1528 1.311 . S
C1531 N1532 1.347 . S
C1531 H1542 0.929 . S
N1532 C1530 1.375 . S
N1532 C1531 1.347 . S
C1533 C1536 1.365 . S
C1533 N1538 1.328 . S
C1533 H1539 0.929 . S
C1534 C1535 1.362 . S
C1534 C1537 1.378 . S
C1534 H1549 0.929 . S
C1535 C1534 1.362 . S
C1535 C1536 1.366 . S
C1536 C1533 1.365 . S
C1536 C1535 1.366 . S
C1536 H1550 0.930 . S
C1537 C1534 1.378 . S
C1537 N1538 1.315 . S
C1537 H1540 0.930 . S
N1538 Co1518 2.194 . S
N1538 C1533 1.328 . S
N1538 C1537 1.315 . S
H1539 C1533 0.929 . S
H1540 C1537 0.930 . S
H1541 C1529 0.929 . S
H1542 C1531 0.929 . S
O1543 Co1518 2.351 . S
O1543 C1546 1.244 . S
O1544 Co1518 2.155 . S
O1544 C1546 1.240 . S
O1545 Co1518 2.096 . S
O1545 C1526 1.247 . S
C1546 O1543 1.244 . S
C1546 O1544 1.240 . S
H1547 C1521 0.931 . S
H1548 C1530 0.931 . S
H1549 C1534 0.929 . S
H1550 C1536 0.930 . S
Co1551 N1555 2.148 . S
Co1551 N1561 2.128 . S
Co1551 N1571 2.194 . S
Co1551 O1576 2.351 . S
Co1551 O1577 2.155 . S
Co1551 O1578 2.096 . S
C1552 N1555 1.301 . S
C1552 N1556 1.328 . S
C1552 H1557 0.930 . S
C1553 C1554 1.333 . S
C1553 N1555 1.317 . S
C1553 H1558 0.930 . S
C1554 C1553 1.333 . S
C1554 N1556 1.350 . S
C1554 H1580 0.931 . S
N1555 Co1551 2.148 . S
N1555 C1552 1.301 . S
N1555 C1553 1.317 . S
N1556 C1552 1.328 . S
N1556 C1554 1.350 . S
H1557 C1552 0.930 . S
H1558 C1553 0.930 . S
C1559 O1560 1.224 . S
C1559 O1578 1.247 . S
O1560 C1559 1.224 . S
N1561 Co1551 2.128 . S
N1561 C1562 1.355 . S
N1561 C1564 1.311 . S
C1562 N1561 1.355 . S
C1562 C1563 1.363 . S
C1562 H1574 0.929 . S
C1563 C1562 1.363 . S
C1563 N1565 1.375 . S
C1563 H1581 0.931 . S
C1564 N1561 1.311 . S
C1564 N1565 1.347 . S
C1564 H1575 0.929 . S
N1565 C1563 1.375 . S
N1565 C1564 1.347 . S
C1566 C1569 1.365 . S
C1566 N1571 1.328 . S
C1566 H1572 0.929 . S
C1567 C1568 1.362 . S
C1567 C1570 1.378 . S
C1567 H1582 0.929 . S
C1568 C1567 1.362 . S
C1568 C1569 1.366 . S
C1569 C1566 1.365 . S
C1569 C1568 1.366 . S
C1569 H1583 0.930 . S
C1570 C1567 1.378 . S
C1570 N1571 1.315 . S
C1570 H1573 0.930 . S
N1571 Co1551 2.194 . S
N1571 C1566 1.328 . S
N1571 C1570 1.315 . S
H1572 C1566 0.929 . S
H1573 C1570 0.930 . S
H1574 C1562 0.929 . S
H1575 C1564 0.929 . S
O1576 Co1551 2.351 . S
O1576 C1579 1.244 . S
O1577 Co1551 2.155 . S
O1577 C1579 1.240 . S
O1578 Co1551 2.096 . S
O1578 C1559 1.247 . S
C1579 O1576 1.244 . S
C1579 O1577 1.240 . S
H1580 C1554 0.931 . S
H1581 C1563 0.931 . S
H1582 C1567 0.929 . S
H1583 C1569 0.930 . S
H1584 C1590 0.930 . S
H1585 C1593 0.930 . S
H1586 C1594 0.930 . S
H1587 C1595 0.930 . S
H1588 C1598 0.930 . S
H1589 C1599 0.930 . S
C1590 H1584 0.930 . S
C1590 C1591 1.355 . S
C1590 C1592 1.415 . S
C1591 C1590 1.355 . S
C1591 C1593 1.419 . S
C1592 C1590 1.415 . S
C1592 C1597 1.425 . S
C1592 C1599 1.409 . S
C1593 H1585 0.930 . S
C1593 C1591 1.419 . S
C1593 C1594 1.362 . S
C1594 H1586 0.930 . S
C1594 C1593 1.362 . S
C1594 C1597 1.409 . S
C1595 H1587 0.930 . S
C1595 C1596 1.355 . S
C1595 C1597 1.415 . S
C1596 C1595 1.355 . S
C1596 C1598 1.419 . S
C1597 C1592 1.425 . S
C1597 C1594 1.409 . S
C1597 C1595 1.415 . S
C1598 H1588 0.930 . S
C1598 C1596 1.419 . S
C1598 C1599 1.362 . S
C1599 H1589 0.930 . S
C1599 C1592 1.409 . S
C1599 C1598 1.362 . S
H1600 C1606 0.930 . S
H1601 C1609 0.930 . S
H1602 C1610 0.930 . S
H1603 C1611 0.930 . S
H1604 C1614 0.930 . S
H1605 C1615 0.930 . S
C1606 H1600 0.930 . S
C1606 C1607 1.355 . S
C1606 C1608 1.415 . S
C1607 C1606 1.355 . S
C1607 C1609 1.419 . S
C1608 C1606 1.415 . S
C1608 C1613 1.425 . S
C1608 C1615 1.409 . S
C1609 H1601 0.930 . S
C1609 C1607 1.419 . S
C1609 C1610 1.362 . S
C1610 H1602 0.930 . S
C1610 C1609 1.362 . S
C1610 C1613 1.409 . S
C1611 H1603 0.930 . S
C1611 C1612 1.355 . S
C1611 C1613 1.415 . S
C1612 C1611 1.355 . S
C1612 C1614 1.419 . S
C1613 C1608 1.425 . S
C1613 C1610 1.409 . S
C1613 C1611 1.415 . S
C1614 H1604 0.930 . S
C1614 C1612 1.419 . S
C1614 C1615 1.362 . S
C1615 H1605 0.930 . S
C1615 C1608 1.409 . S
C1615 C1614 1.362 . S
H1616 C1622 0.930 . S
H1617 C1625 0.930 . S
H1618 C1626 0.930 . S
H1619 C1627 0.930 . S
H1620 C1630 0.930 . S
H1621 C1631 0.930 . S
C1622 H1616 0.930 . S
C1622 C1623 1.355 . S
C1622 C1624 1.415 . S
C1623 C1622 1.355 . S
C1623 C1625 1.419 . S
C1624 C1622 1.415 . S
C1624 C1629 1.425 . S
C1624 C1631 1.409 . S
C1625 H1617 0.930 . S
C1625 C1623 1.419 . S
C1625 C1626 1.362 . S
C1626 H1618 0.930 . S
C1626 C1625 1.362 . S
C1626 C1629 1.409 . S
C1627 H1619 0.930 . S
C1627 C1628 1.355 . S
C1627 C1629 1.415 . S
C1628 C1627 1.355 . S
C1628 C1630 1.419 . S
C1629 C1624 1.425 . S
C1629 C1626 1.409 . S
C1629 C1627 1.415 . S
C1630 H1620 0.930 . S
C1630 C1628 1.419 . S
C1630 C1631 1.362 . S
C1631 H1621 0.930 . S
C1631 C1624 1.409 . S
C1631 C1630 1.362 . S
H1632 C1638 0.930 . S
H1633 C1641 0.930 . S
H1634 C1642 0.930 . S
H1635 C1643 0.930 . S
H1636 C1646 0.930 . S
H1637 C1647 0.930 . S
C1638 H1632 0.930 . S
C1638 C1639 1.355 . S
C1638 C1640 1.415 . S
C1639 C1638 1.355 . S
C1639 C1641 1.419 . S
C1640 C1638 1.415 . S
C1640 C1645 1.425 . S
C1640 C1647 1.409 . S
C1641 H1633 0.930 . S
C1641 C1639 1.419 . S
C1641 C1642 1.362 . S
C1642 H1634 0.930 . S
C1642 C1641 1.362 . S
C1642 C1645 1.409 . S
C1643 H1635 0.930 . S
C1643 C1644 1.355 . S
C1643 C1645 1.415 . S
C1644 C1643 1.355 . S
C1644 C1646 1.419 . S
C1645 C1640 1.425 . S
C1645 C1642 1.409 . S
C1645 C1643 1.415 . S
C1646 H1636 0.930 . S
C1646 C1644 1.419 . S
C1646 C1647 1.362 . S
C1647 H1637 0.930 . S
C1647 C1640 1.409 . S
C1647 C1646 1.362 . S
H1648 C1654 0.930 . S
H1649 C1657 0.930 . S
H1650 C1658 0.930 . S
H1651 C1659 0.930 . S
H1652 C1662 0.930 . S
H1653 C1663 0.930 . S
C1654 H1648 0.930 . S
C1654 C1655 1.355 . S
C1654 C1656 1.415 . S
C1655 C1654 1.355 . S
C1655 C1657 1.419 . S
C1656 C1654 1.415 . S
C1656 C1661 1.425 . S
C1656 C1663 1.409 . S
C1657 H1649 0.930 . S
C1657 C1655 1.419 . S
C1657 C1658 1.362 . S
C1658 H1650 0.930 . S
C1658 C1657 1.362 . S
C1658 C1661 1.409 . S
C1659 H1651 0.930 . S
C1659 C1660 1.355 . S
C1659 C1661 1.415 . S
C1660 C1659 1.355 . S
C1660 C1662 1.419 . S
C1661 C1656 1.425 . S
C1661 C1658 1.409 . S
C1661 C1659 1.415 . S
C1662 H1652 0.930 . S
C1662 C1660 1.419 . S
C1662 C1663 1.362 . S
C1663 H1653 0.930 . S
C1663 C1656 1.409 . S
C1663 C1662 1.362 . S
H1664 C1670 0.930 . S
H1665 C1673 0.930 . S
H1666 C1674 0.930 . S
H1667 C1675 0.930 . S
H1668 C1678 0.930 . S
H1669 C1679 0.930 . S
C1670 H1664 0.930 . S
C1670 C1671 1.355 . S
C1670 C1672 1.415 . S
C1671 C1670 1.355 . S
C1671 C1673 1.419 . S
C1672 C1670 1.415 . S
C1672 C1677 1.425 . S
C1672 C1679 1.409 . S
C1673 H1665 0.930 . S
C1673 C1671 1.419 . S
C1673 C1674 1.362 . S
C1674 H1666 0.930 . S
C1674 C1673 1.362 . S
C1674 C1677 1.409 . S
C1675 H1667 0.930 . S
C1675 C1676 1.355 . S
C1675 C1677 1.415 . S
C1676 C1675 1.355 . S
C1676 C1678 1.419 . S
C1677 C1672 1.425 . S
C1677 C1674 1.409 . S
C1677 C1675 1.415 . S
C1678 H1668 0.930 . S
C1678 C1676 1.419 . S
C1678 C1679 1.362 . S
C1679 H1669 0.930 . S
C1679 C1672 1.409 . S
C1679 C1678 1.362 . S
H1680 C1686 0.930 . S
H1681 C1689 0.930 . S
H1682 C1690 0.930 . S
H1683 C1691 0.930 . S
H1684 C1694 0.930 . S
H1685 C1695 0.930 . S
C1686 H1680 0.930 . S
C1686 C1687 1.355 . S
C1686 C1688 1.415 . S
C1687 C1686 1.355 . S
C1687 C1689 1.419 . S
C1688 C1686 1.415 . S
C1688 C1693 1.425 . S
C1688 C1695 1.409 . S
C1689 H1681 0.930 . S
C1689 C1687 1.419 . S
C1689 C1690 1.362 . S
C1690 H1682 0.930 . S
C1690 C1689 1.362 . S
C1690 C1693 1.409 . S
C1691 H1683 0.930 . S
C1691 C1692 1.355 . S
C1691 C1693 1.415 . S
C1692 C1691 1.355 . S
C1692 C1694 1.419 . S
C1693 C1688 1.425 . S
C1693 C1690 1.409 . S
C1693 C1691 1.415 . S
C1694 H1684 0.930 . S
C1694 C1692 1.419 . S
C1694 C1695 1.362 . S
C1695 H1685 0.930 . S
C1695 C1688 1.409 . S
C1695 C1694 1.362 . S
H1696 C1702 0.930 1_455 S
H1697 C1705 0.930 . S
H1698 C1706 0.930 . S
H1699 C1707 0.930 . S
H1700 C1710 0.930 . S
H1701 C1711 0.930 . S
C1702 H1696 0.930 1_655 S
C1702 C1703 1.355 . S
C1702 C1704 1.415 . S
C1703 C1702 1.355 . S
C1703 C1705 1.419 . S
C1704 C1702 1.415 . S
C1704 C1709 1.425 . S
C1704 C1711 1.409 . S
C1705 H1697 0.930 . S
C1705 C1703 1.419 . S
C1705 C1706 1.362 . S
C1706 H1698 0.930 . S
C1706 C1705 1.362 . S
C1706 C1709 1.409 . S
C1707 H1699 0.930 . S
C1707 C1708 1.355 . S
C1707 C1709 1.415 . S
C1708 C1707 1.355 . S
C1708 C1710 1.419 . S
C1709 C1704 1.425 . S
C1709 C1706 1.409 . S
C1709 C1707 1.415 . S
C1710 H1700 0.930 . S
C1710 C1708 1.419 . S
C1710 C1711 1.362 . S
C1711 H1701 0.930 . S
C1711 C1704 1.409 . S
C1711 C1710 1.362 . S
H1712 C1718 0.930 . S
H1713 C1721 0.930 . S
H1714 C1722 0.930 . S
H1715 C1723 0.930 . S
H1716 C1726 0.930 . S
H1717 C1727 0.930 . S
C1718 H1712 0.930 . S
C1718 C1719 1.355 . S
C1718 C1720 1.415 . S
C1719 C1718 1.355 . S
C1719 C1721 1.419 . S
C1720 C1718 1.415 . S
C1720 C1725 1.425 . S
C1720 C1727 1.409 . S
C1721 H1713 0.930 . S
C1721 C1719 1.419 . S
C1721 C1722 1.362 . S
C1722 H1714 0.930 . S
C1722 C1721 1.362 . S
C1722 C1725 1.409 . S
C1723 H1715 0.930 . S
C1723 C1724 1.355 . S
C1723 C1725 1.415 . S
C1724 C1723 1.355 . S
C1724 C1726 1.419 . S
C1725 C1720 1.425 . S
C1725 C1722 1.409 . S
C1725 C1723 1.415 . S
C1726 H1716 0.930 . S
C1726 C1724 1.419 . S
C1726 C1727 1.362 . S
C1727 H1717 0.930 . S
C1727 C1720 1.409 . S
C1727 C1726 1.362 . S
H1728 C1734 0.930 . S
H1729 C1737 0.930 1_556 S
H1730 C1738 0.930 . S
H1731 C1739 0.930 . S
H1732 C1742 0.930 . S
H1733 C1743 0.930 . S
C1734 H1728 0.930 . S
C1734 C1735 1.353 1_554 S
C1734 C1736 1.415 . S
C1735 C1734 1.353 1_556 S
C1735 C1737 1.418 1_556 S
C1736 C1734 1.415 . S
C1736 C1741 1.425 . S
C1736 C1743 1.409 . S
C1737 H1729 0.930 1_554 S
C1737 C1735 1.418 1_554 S
C1737 C1738 1.362 . S
C1738 H1730 0.930 . S
C1738 C1737 1.362 . S
C1738 C1741 1.409 . S
C1739 H1731 0.930 . S
C1739 C1740 1.355 . S
C1739 C1741 1.415 . S
C1740 C1739 1.355 . S
C1740 C1742 1.419 . S
C1741 C1736 1.425 . S
C1741 C1738 1.409 . S
C1741 C1739 1.415 . S
C1742 H1732 0.930 . S
C1742 C1740 1.419 . S
C1742 C1743 1.362 . S
C1743 H1733 0.930 . S
C1743 C1736 1.409 . S
C1743 C1742 1.362 . S
H1744 C1750 0.930 . S
H1745 C1753 0.930 . S
H1746 C1754 0.930 . S
H1747 C1755 0.930 . S
H1748 C1758 0.930 . S
H1749 C1759 0.930 . S
C1750 H1744 0.930 . S
C1750 C1751 1.355 . S
C1750 C1752 1.415 . S
C1751 C1750 1.355 . S
C1751 C1753 1.419 . S
C1752 C1750 1.415 . S
C1752 C1757 1.425 . S
C1752 C1759 1.409 . S
C1753 H1745 0.930 . S
C1753 C1751 1.419 . S
C1753 C1754 1.362 . S
C1754 H1746 0.930 . S
C1754 C1753 1.362 . S
C1754 C1757 1.409 . S
C1755 H1747 0.930 . S
C1755 C1756 1.355 . S
C1755 C1757 1.415 . S
C1756 C1755 1.355 . S
C1756 C1758 1.419 . S
C1757 C1752 1.425 . S
C1757 C1754 1.409 . S
C1757 C1755 1.415 . S
C1758 H1748 0.930 . S
C1758 C1756 1.419 . S
C1758 C1759 1.362 . S
C1759 H1749 0.930 . S
C1759 C1752 1.409 . S
C1759 C1758 1.362 . S
H1760 C1766 0.930 . S
H1761 C1769 0.930 . S
H1762 C1770 0.930 . S
H1763 C1771 0.930 . S
H1764 C1774 0.930 . S
H1765 C1775 0.930 . S
C1766 H1760 0.930 . S
C1766 C1767 1.347 1_554 S
C1766 C1768 1.415 . S
C1767 C1766 1.347 1_556 S
C1767 C1769 1.420 . S
C1768 C1766 1.415 . S
C1768 C1773 1.425 . S
C1768 C1775 1.409 . S
C1769 H1761 0.930 . S
C1769 C1767 1.420 . S
C1769 C1770 1.362 1_556 S
C1770 H1762 0.930 . S
C1770 C1769 1.362 1_554 S
C1770 C1773 1.409 . S
C1771 H1763 0.930 . S
C1771 C1772 1.355 . S
C1771 C1773 1.415 . S
C1772 C1771 1.355 . S
C1772 C1774 1.419 . S
C1773 C1768 1.425 . S
C1773 C1770 1.409 . S
C1773 C1771 1.415 . S
C1774 H1764 0.930 . S
C1774 C1772 1.419 . S
C1774 C1775 1.362 . S
C1775 H1765 0.930 . S
C1775 C1768 1.409 . S
C1775 C1774 1.362 . S
H1776 C1782 0.930 . S
H1777 C1785 0.930 . S
H1778 C1786 0.930 . S
H1779 C1787 0.930 . S
H1780 C1790 0.930 . S
H1781 C1791 0.930 . S
C1782 H1776 0.930 . S
C1782 C1783 1.355 . S
C1782 C1784 1.415 . S
C1783 C1782 1.355 . S
C1783 C1785 1.419 . S
C1784 C1782 1.415 . S
C1784 C1789 1.425 . S
C1784 C1791 1.409 . S
C1785 H1777 0.930 . S
C1785 C1783 1.419 . S
C1785 C1786 1.362 . S
C1786 H1778 0.930 . S
C1786 C1785 1.362 . S
C1786 C1789 1.409 . S
C1787 H1779 0.930 . S
C1787 C1788 1.355 . S
C1787 C1789 1.415 . S
C1788 C1787 1.355 . S
C1788 C1790 1.419 . S
C1789 C1784 1.425 . S
C1789 C1786 1.409 . S
C1789 C1787 1.415 . S
C1790 H1780 0.930 . S
C1790 C1788 1.419 . S
C1790 C1791 1.362 . S
C1791 H1781 0.930 . S
C1791 C1784 1.409 . S
C1791 C1790 1.362 . S
H1792 C1798 0.930 . S
H1793 C1801 0.930 . S
H1794 C1802 0.930 . S
H1795 C1803 0.930 1_554 S
H1796 C1806 0.930 . S
H1797 C1807 0.930 . S
C1798 H1792 0.930 . S
C1798 C1799 1.355 . S
C1798 C1800 1.415 . S
C1799 C1798 1.355 . S
C1799 C1801 1.419 . S
C1800 C1798 1.415 . S
C1800 C1805 1.425 . S
C1800 C1807 1.409 . S
C1801 H1793 0.930 . S
C1801 C1799 1.419 . S
C1801 C1802 1.362 . S
C1802 H1794 0.930 . S
C1802 C1801 1.362 . S
C1802 C1805 1.409 . S
C1803 H1795 0.930 1_556 S
C1803 C1804 1.355 . S
C1803 C1805 1.415 . S
C1804 C1803 1.355 . S
C1804 C1806 1.419 . S
C1805 C1800 1.425 . S
C1805 C1802 1.409 . S
C1805 C1803 1.415 . S
C1806 H1796 0.930 . S
C1806 C1804 1.419 . S
C1806 C1807 1.362 . S
C1807 H1797 0.930 . S
C1807 C1800 1.409 . S
C1807 C1806 1.362 . S
H1808 C1814 0.930 . S
H1809 C1817 0.930 . S
H1810 C1818 0.930 . S
H1811 C1819 0.930 . S
H1812 C1822 0.930 . S
H1813 C1823 0.930 . S
C1814 H1808 0.930 . S
C1814 C1815 1.355 . S
C1814 C1816 1.415 . S
C1815 C1814 1.355 . S
C1815 C1817 1.419 . S
C1816 C1814 1.415 . S
C1816 C1821 1.425 . S
C1816 C1823 1.409 . S
C1817 H1809 0.930 . S
C1817 C1815 1.419 . S
C1817 C1818 1.362 . S
C1818 H1810 0.930 . S
C1818 C1817 1.362 . S
C1818 C1821 1.409 . S
C1819 H1811 0.930 . S
C1819 C1820 1.355 . S
C1819 C1821 1.415 . S
C1820 C1819 1.355 . S
C1820 C1822 1.419 . S
C1821 C1816 1.425 . S
C1821 C1818 1.409 . S
C1821 C1819 1.415 . S
C1822 H1812 0.930 . S
C1822 C1820 1.419 . S
C1822 C1823 1.362 . S
C1823 H1813 0.930 . S
C1823 C1816 1.409 . S
C1823 C1822 1.362 . S
H1824 C1830 0.930 . S
H1825 C1833 0.908 1_564 S
H1826 C1834 0.930 . S
H1827 C1835 0.930 . S
H1828 C1838 0.930 . S
H1829 C1839 0.930 . S
C1830 H1824 0.930 . S
C1830 C1831 1.367 . S
C1830 C1832 1.415 . S
C1831 C1830 1.367 . S
C1831 C1833 1.422 . S
C1832 C1830 1.415 . S
C1832 C1837 1.425 . S
C1832 C1839 1.409 . S
C1833 H1825 0.908 1_546 S
C1833 C1831 1.422 . S
C1833 C1834 1.362 . S
C1834 H1826 0.930 . S
C1834 C1833 1.362 . S
C1834 C1837 1.409 . S
C1835 H1827 0.930 . S
C1835 C1836 1.355 . S
C1835 C1837 1.415 . S
C1836 C1835 1.355 . S
C1836 C1838 1.419 . S
C1837 C1832 1.425 . S
C1837 C1834 1.409 . S
C1837 C1835 1.415 . S
C1838 H1828 0.930 . S
C1838 C1836 1.419 . S
C1838 C1839 1.362 . S
C1839 H1829 0.930 . S
C1839 C1832 1.409 . S
C1839 C1838 1.362 . S
H1840 C1846 0.930 . S
H1841 C1849 0.930 . S
H1842 C1850 0.930 . S
H1843 C1851 0.930 . S
H1844 C1854 0.930 . S
H1845 C1855 0.930 . S
C1846 H1840 0.930 . S
C1846 C1847 1.355 . S
C1846 C1848 1.415 . S
C1847 C1846 1.355 . S
C1847 C1849 1.419 . S
C1848 C1846 1.415 . S
C1848 C1853 1.425 . S
C1848 C1855 1.409 . S
C1849 H1841 0.930 . S
C1849 C1847 1.419 . S
C1849 C1850 1.362 . S
C1850 H1842 0.930 . S
C1850 C1849 1.362 . S
C1850 C1853 1.409 . S
C1851 H1843 0.930 . S
C1851 C1852 1.355 . S
C1851 C1853 1.415 . S
C1852 C1851 1.355 . S
C1852 C1854 1.419 . S
C1853 C1848 1.425 . S
C1853 C1850 1.409 . S
C1853 C1851 1.415 . S
C1854 H1844 0.930 . S
C1854 C1852 1.419 . S
C1854 C1855 1.362 . S
C1855 H1845 0.930 . S
C1855 C1848 1.409 . S
C1855 C1854 1.362 . S
H1856 C1862 0.930 . S
H1857 C1865 0.930 . S
H1858 C1866 0.930 . S
H1859 C1867 0.930 . S
H1860 C1870 0.930 . S
H1861 C1871 0.930 . S
C1862 H1856 0.930 . S
C1862 C1863 1.355 . S
C1862 C1864 1.415 . S
C1863 C1862 1.355 . S
C1863 C1865 1.419 . S
C1864 C1862 1.415 . S
C1864 C1869 1.425 . S
C1864 C1871 1.409 . S
C1865 H1857 0.930 . S
C1865 C1863 1.419 . S
C1865 C1866 1.362 . S
C1866 H1858 0.930 . S
C1866 C1865 1.362 . S
C1866 C1869 1.409 . S
C1867 H1859 0.930 . S
C1867 C1868 1.355 . S
C1867 C1869 1.415 . S
C1868 C1867 1.355 . S
C1868 C1870 1.419 . S
C1869 C1864 1.425 . S
C1869 C1866 1.409 . S
C1869 C1867 1.415 . S
C1870 H1860 0.930 . S
C1870 C1868 1.419 . S
C1870 C1871 1.362 . S
C1871 H1861 0.930 . S
C1871 C1864 1.409 . S
C1871 C1870 1.362 . S
H1872 C1878 0.930 . S
H1873 C1881 0.930 . S
H1874 C1882 0.930 . S
H1875 C1883 0.930 . S
H1876 C1886 0.930 . S
H1877 C1887 0.930 . S
C1878 H1872 0.930 . S
C1878 C1879 1.355 . S
C1878 C1880 1.415 . S
C1879 C1878 1.355 . S
C1879 C1881 1.419 . S
C1880 C1878 1.415 . S
C1880 C1885 1.425 . S
C1880 C1887 1.409 . S
C1881 H1873 0.930 . S
C1881 C1879 1.419 . S
C1881 C1882 1.362 . S
C1882 H1874 0.930 . S
C1882 C1881 1.362 . S
C1882 C1885 1.409 . S
C1883 H1875 0.930 . S
C1883 C1884 1.355 . S
C1883 C1885 1.415 . S
C1884 C1883 1.355 . S
C1884 C1886 1.419 . S
C1885 C1880 1.425 . S
C1885 C1882 1.409 . S
C1885 C1883 1.415 . S
C1886 H1876 0.930 . S
C1886 C1884 1.419 . S
C1886 C1887 1.362 . S
C1887 H1877 0.930 . S
C1887 C1880 1.409 . S
C1887 C1886 1.362 . S
H1888 C1894 0.930 . S
H1889 C1897 0.930 . S
H1890 C1898 0.930 . S
H1891 C1899 0.930 . S
H1892 C1902 0.930 . S
H1893 C1903 0.930 . S
C1894 H1888 0.930 . S
C1894 C1895 1.355 . S
C1894 C1896 1.415 . S
C1895 C1894 1.355 . S
C1895 C1897 1.419 . S
C1896 C1894 1.415 . S
C1896 C1901 1.425 . S
C1896 C1903 1.409 . S
C1897 H1889 0.930 . S
C1897 C1895 1.419 . S
C1897 C1898 1.362 . S
C1898 H1890 0.930 . S
C1898 C1897 1.362 . S
C1898 C1901 1.409 . S
C1899 H1891 0.930 . S
C1899 C1900 1.355 . S
C1899 C1901 1.415 . S
C1900 C1899 1.355 . S
C1900 C1902 1.419 . S
C1901 C1896 1.425 . S
C1901 C1898 1.409 . S
C1901 C1899 1.415 . S
C1902 H1892 0.930 . S
C1902 C1900 1.419 . S
C1902 C1903 1.362 . S
C1903 H1893 0.930 . S
C1903 C1896 1.409 . S
C1903 C1902 1.362 . S
H1904 C1910 0.930 . S
H1905 C1913 0.930 . S
H1906 C1914 0.930 . S
H1907 C1915 0.930 . S
H1908 C1918 0.930 . S
H1909 C1919 0.930 . S
C1910 H1904 0.930 . S
C1910 C1911 1.355 . S
C1910 C1912 1.415 . S
C1911 C1910 1.355 . S
C1911 C1913 1.419 . S
C1912 C1910 1.415 . S
C1912 C1917 1.425 . S
C1912 C1919 1.409 . S
C1913 H1905 0.930 . S
C1913 C1911 1.419 . S
C1913 C1914 1.362 . S
C1914 H1906 0.930 . S
C1914 C1913 1.362 . S
C1914 C1917 1.409 . S
C1915 H1907 0.930 . S
C1915 C1916 1.355 . S
C1915 C1917 1.415 . S
C1916 C1915 1.355 . S
C1916 C1918 1.419 . S
C1917 C1912 1.425 . S
C1917 C1914 1.409 . S
C1917 C1915 1.415 . S
C1918 H1908 0.930 . S
C1918 C1916 1.419 . S
C1918 C1919 1.362 . S
C1919 H1909 0.930 . S
C1919 C1912 1.409 . S
C1919 C1918 1.362 . S
H1920 C1926 0.930 . S
H1921 C1929 0.930 . S
H1922 C1930 0.930 . S
H1923 C1931 0.930 . S
H1924 C1934 0.930 . S
H1925 C1935 0.930 . S
C1926 H1920 0.930 . S
C1926 C1927 1.355 . S
C1926 C1928 1.415 . S
C1927 C1926 1.355 . S
C1927 C1929 1.419 . S
C1928 C1926 1.415 . S
C1928 C1933 1.425 . S
C1928 C1935 1.409 . S
C1929 H1921 0.930 . S
C1929 C1927 1.419 . S
C1929 C1930 1.362 . S
C1930 H1922 0.930 . S
C1930 C1929 1.362 . S
C1930 C1933 1.409 . S
C1931 H1923 0.930 . S
C1931 C1932 1.355 . S
C1931 C1933 1.415 . S
C1932 C1931 1.355 . S
C1932 C1934 1.419 . S
C1933 C1928 1.425 . S
C1933 C1930 1.409 . S
C1933 C1931 1.415 . S
C1934 H1924 0.930 . S
C1934 C1932 1.419 . S
C1934 C1935 1.362 . S
C1935 H1925 0.930 . S
C1935 C1928 1.409 . S
C1935 C1934 1.362 . S
H1936 C1942 0.930 . S
H1937 C1945 0.930 . S
H1938 C1946 0.930 . S
H1939 C1947 0.930 . S
H1940 C1950 0.930 . S
H1941 C1951 0.930 . S
C1942 H1936 0.930 . S
C1942 C1943 1.355 . S
C1942 C1944 1.415 . S
C1943 C1942 1.355 . S
C1943 C1945 1.419 . S
C1944 C1942 1.415 . S
C1944 C1949 1.425 . S
C1944 C1951 1.409 . S
C1945 H1937 0.930 . S
C1945 C1943 1.419 . S
C1945 C1946 1.362 . S
C1946 H1938 0.930 . S
C1946 C1945 1.362 . S
C1946 C1949 1.409 . S
C1947 H1939 0.930 . S
C1947 C1948 1.355 . S
C1947 C1949 1.415 . S
C1948 C1947 1.355 . S
C1948 C1950 1.419 . S
C1949 C1944 1.425 . S
C1949 C1946 1.409 . S
C1949 C1947 1.415 . S
C1950 H1940 0.930 . S
C1950 C1948 1.419 . S
C1950 C1951 1.362 . S
C1951 H1941 0.930 . S
C1951 C1944 1.409 . S
C1951 C1950 1.362 . S
H1952 C1958 0.930 1_565 S
H1953 C1961 0.930 . S
H1954 C1962 0.930 . S
H1955 C1963 0.930 . S
H1956 C1966 0.930 . S
H1957 C1967 0.930 . S
C1958 H1952 0.930 1_545 S
C1958 C1959 1.367 . S
C1958 C1960 1.415 . S
C1959 C1958 1.367 . S
C1959 C1961 1.456 . S
C1960 C1958 1.415 . S
C1960 C1965 1.425 . S
C1960 C1967 1.409 . S
C1961 H1953 0.930 . S
C1961 C1959 1.456 . S
C1961 C1962 1.362 . S
C1962 H1954 0.930 . S
C1962 C1961 1.362 . S
C1962 C1965 1.409 . S
C1963 H1955 0.930 . S
C1963 C1964 1.355 . S
C1963 C1965 1.415 . S
C1964 C1963 1.355 . S
C1964 C1966 1.419 . S
C1965 C1960 1.425 . S
C1965 C1962 1.409 . S
C1965 C1963 1.415 . S
C1966 H1956 0.930 . S
C1966 C1964 1.419 . S
C1966 C1967 1.362 . S
C1967 H1957 0.930 . S
C1967 C1960 1.409 . S
C1967 C1966 1.362 . S
H1968 C1974 0.930 . S
H1969 C1977 0.930 . S
H1970 C1978 0.930 . S
H1971 C1979 0.930 . S
H1972 C1982 0.930 . S
H1973 C1983 0.930 . S
C1974 H1968 0.930 . S
C1974 C1975 1.355 . S
C1974 C1976 1.415 . S
C1975 C1974 1.355 . S
C1975 C1977 1.419 . S
C1976 C1974 1.415 . S
C1976 C1981 1.425 . S
C1976 C1983 1.409 . S
C1977 H1969 0.930 . S
C1977 C1975 1.419 . S
C1977 C1978 1.362 . S
C1978 H1970 0.930 . S
C1978 C1977 1.362 . S
C1978 C1981 1.409 . S
C1979 H1971 0.930 . S
C1979 C1980 1.355 . S
C1979 C1981 1.415 . S
C1980 C1979 1.355 . S
C1980 C1982 1.419 . S
C1981 C1976 1.425 . S
C1981 C1978 1.409 . S
C1981 C1979 1.415 . S
C1982 H1972 0.930 . S
C1982 C1980 1.419 . S
C1982 C1983 1.362 . S
C1983 H1973 0.930 . S
C1983 C1976 1.409 . S
C1983 C1982 1.362 . S
H1984 C1990 0.930 . S
H1985 C1993 0.930 . S
H1986 C1994 0.930 . S
H1987 C1995 0.930 1_455 S
H1988 C1998 0.930 . S
H1989 C1999 0.930 . S
C1990 H1984 0.930 . S
C1990 C1991 1.355 . S
C1990 C1992 1.415 . S
C1991 C1990 1.355 . S
C1991 C1993 1.419 . S
C1992 C1990 1.415 . S
C1992 C1997 1.425 . S
C1992 C1999 1.409 . S
C1993 H1985 0.930 . S
C1993 C1991 1.419 . S
C1993 C1994 1.362 . S
C1994 H1986 0.930 . S
C1994 C1993 1.362 . S
C1994 C1997 1.409 . S
C1995 H1987 0.930 1_655 S
C1995 C1996 1.355 . S
C1995 C1997 1.415 . S
C1996 C1995 1.355 . S
C1996 C1998 1.419 . S
C1997 C1992 1.425 . S
C1997 C1994 1.409 . S
C1997 C1995 1.415 . S
C1998 H1988 0.930 . S
C1998 C1996 1.419 . S
C1998 C1999 1.362 . S
C1999 H1989 0.930 . S
C1999 C1992 1.409 . S
C1999 C1998 1.362 . S
H2000 C2006 0.930 . S
H2001 C2009 0.930 . S
H2002 C2010 0.930 . S
H2003 C2011 0.930 . S
H2004 C2014 0.930 . S
H2005 C2015 0.930 . S
C2006 H2000 0.930 . S
C2006 C2007 1.355 . S
C2006 C2008 1.415 . S
C2007 C2006 1.355 . S
C2007 C2009 1.419 . S
C2008 C2006 1.415 . S
C2008 C2013 1.425 . S
C2008 C2015 1.409 . S
C2009 H2001 0.930 . S
C2009 C2007 1.419 . S
C2009 C2010 1.362 . S
C2010 H2002 0.930 . S
C2010 C2009 1.362 . S
C2010 C2013 1.409 . S
C2011 H2003 0.930 . S
C2011 C2012 1.355 . S
C2011 C2013 1.415 . S
C2012 C2011 1.355 . S
C2012 C2014 1.419 . S
C2013 C2008 1.425 . S
C2013 C2010 1.409 . S
C2013 C2011 1.415 . S
C2014 H2004 0.930 . S
C2014 C2012 1.419 . S
C2014 C2015 1.362 . S
C2015 H2005 0.930 . S
C2015 C2008 1.409 . S
C2015 C2014 1.362 . S
H2016 C2022 0.930 1_655 S
H2017 C2025 0.930 . S
H2018 C2026 0.930 . S
H2019 C2027 0.930 . S
H2020 C2030 0.930 . S
H2021 C2031 0.930 . S
C2022 H2016 0.930 1_455 S
C2022 C2023 1.355 . S
C2022 C2024 1.415 . S
C2023 C2022 1.355 . S
C2023 C2025 1.419 . S
C2024 C2022 1.415 . S
C2024 C2029 1.425 . S
C2024 C2031 1.409 . S
C2025 H2017 0.930 . S
C2025 C2023 1.419 . S
C2025 C2026 1.362 . S
C2026 H2018 0.930 . S
C2026 C2025 1.362 . S
C2026 C2029 1.409 . S
C2027 H2019 0.930 . S
C2027 C2028 1.355 . S
C2027 C2029 1.415 . S
C2028 C2027 1.355 . S
C2028 C2030 1.419 . S
C2029 C2024 1.425 . S
C2029 C2026 1.409 . S
C2029 C2027 1.415 . S
C2030 H2020 0.930 . S
C2030 C2028 1.419 . S
C2030 C2031 1.362 . S
C2031 H2021 0.930 . S
C2031 C2024 1.409 . S
C2031 C2030 1.362 . S
H2032 C2038 0.930 . S
H2033 C2041 0.930 . S
H2034 C2042 0.930 . S
H2035 C2043 0.930 . S
H2036 C2046 0.930 . S
H2037 C2047 0.930 . S
C2038 H2032 0.930 . S
C2038 C2039 1.355 . S
C2038 C2040 1.415 . S
C2039 C2038 1.355 . S
C2039 C2041 1.419 . S
C2040 C2038 1.415 . S
C2040 C2045 1.425 . S
C2040 C2047 1.409 . S
C2041 H2033 0.930 . S
C2041 C2039 1.419 . S
C2041 C2042 1.362 . S
C2042 H2034 0.930 . S
C2042 C2041 1.362 . S
C2042 C2045 1.409 . S
C2043 H2035 0.930 . S
C2043 C2044 1.355 . S
C2043 C2045 1.415 . S
C2044 C2043 1.355 . S
C2044 C2046 1.419 . S
C2045 C2040 1.425 . S
C2045 C2042 1.409 . S
C2045 C2043 1.415 . S
C2046 H2036 0.930 . S
C2046 C2044 1.419 . S
C2046 C2047 1.362 . S
C2047 H2037 0.930 . S
C2047 C2040 1.409 . S
C2047 C2046 1.362 . S
H2048 C2054 0.930 . S
H2049 C2057 0.930 . S
H2050 C2058 0.930 . S
H2051 C2059 0.930 . S
H2052 C2062 0.930 . S
H2053 C2063 0.930 . S
C2054 H2048 0.930 . S
C2054 C2055 1.355 . S
C2054 C2056 1.415 . S
C2055 C2054 1.355 . S
C2055 C2057 1.419 . S
C2056 C2054 1.415 . S
C2056 C2061 1.425 . S
C2056 C2063 1.409 . S
C2057 H2049 0.930 . S
C2057 C2055 1.419 . S
C2057 C2058 1.362 . S
C2058 H2050 0.930 . S
C2058 C2057 1.362 . S
C2058 C2061 1.409 . S
C2059 H2051 0.930 . S
C2059 C2060 1.355 . S
C2059 C2061 1.415 . S
C2060 C2059 1.355 . S
C2060 C2062 1.419 . S
C2061 C2056 1.425 . S
C2061 C2058 1.409 . S
C2061 C2059 1.415 . S
C2062 H2052 0.930 . S
C2062 C2060 1.419 . S
C2062 C2063 1.362 . S
C2063 H2053 0.930 . S
C2063 C2056 1.409 . S
C2063 C2062 1.362 . S
H2064 C2070 0.930 . S
H2065 C2073 0.930 . S
H2066 C2074 0.930 . S
H2067 C2075 0.930 . S
H2068 C2078 0.930 . S
H2069 C2079 0.930 . S
C2070 H2064 0.930 . S
C2070 C2071 1.355 . S
C2070 C2072 1.415 . S
C2071 C2070 1.355 . S
C2071 C2073 1.419 . S
C2072 C2070 1.415 . S
C2072 C2077 1.425 . S
C2072 C2079 1.409 . S
C2073 H2065 0.930 . S
C2073 C2071 1.419 . S
C2073 C2074 1.362 . S
C2074 H2066 0.930 . S
C2074 C2073 1.362 . S
C2074 C2077 1.409 . S
C2075 H2067 0.930 . S
C2075 C2076 1.355 . S
C2075 C2077 1.415 . S
C2076 C2075 1.355 . S
C2076 C2078 1.419 . S
C2077 C2072 1.425 . S
C2077 C2074 1.409 . S
C2077 C2075 1.415 . S
C2078 H2068 0.930 . S
C2078 C2076 1.419 . S
C2078 C2079 1.362 . S
C2079 H2069 0.930 . S
C2079 C2072 1.409 . S
C2079 C2078 1.362 . S
H2080 C2086 0.930 . S
H2081 C2089 0.930 . S
H2082 C2090 0.930 . S
H2083 C2091 0.930 . S
H2084 C2094 0.930 . S
H2085 C2095 0.930 . S
C2086 H2080 0.930 . S
C2086 C2087 1.355 . S
C2086 C2088 1.415 . S
C2087 C2086 1.355 . S
C2087 C2089 1.419 . S
C2088 C2086 1.415 . S
C2088 C2093 1.425 . S
C2088 C2095 1.409 . S
C2089 H2081 0.930 . S
C2089 C2087 1.419 . S
C2089 C2090 1.362 . S
C2090 H2082 0.930 . S
C2090 C2089 1.362 . S
C2090 C2093 1.409 . S
C2091 H2083 0.930 . S
C2091 C2092 1.355 . S
C2091 C2093 1.415 . S
C2092 C2091 1.355 . S
C2092 C2094 1.419 . S
C2093 C2088 1.425 . S
C2093 C2090 1.409 . S
C2093 C2091 1.415 . S
C2094 H2084 0.930 . S
C2094 C2092 1.419 . S
C2094 C2095 1.362 . S
C2095 H2085 0.930 . S
C2095 C2088 1.409 . S
C2095 C2094 1.362 . S
H2096 C2102 0.930 . S
H2097 C2105 0.930 . S
H2098 C2106 0.930 . S
H2099 C2107 0.930 . S
H2100 C2110 0.930 . S
H2101 C2111 0.930 . S
C2102 H2096 0.930 . S
C2102 C2103 1.355 . S
C2102 C2104 1.415 . S
C2103 C2102 1.355 . S
C2103 C2105 1.419 . S
C2104 C2102 1.415 . S
C2104 C2109 1.425 . S
C2104 C2111 1.409 . S
C2105 H2097 0.930 . S
C2105 C2103 1.419 . S
C2105 C2106 1.362 . S
C2106 H2098 0.930 . S
C2106 C2105 1.362 . S
C2106 C2109 1.409 . S
C2107 H2099 0.930 . S
C2107 C2108 1.355 . S
C2107 C2109 1.415 . S
C2108 C2107 1.355 . S
C2108 C2110 1.419 . S
C2109 C2104 1.425 . S
C2109 C2106 1.409 . S
C2109 C2107 1.415 . S
C2110 H2100 0.930 . S
C2110 C2108 1.419 . S
C2110 C2111 1.362 . S
C2111 H2101 0.930 . S
C2111 C2104 1.409 . S
C2111 C2110 1.362 . S
H2112 C2118 0.930 . S
H2113 C2121 0.930 . S
H2114 C2122 0.930 . S
H2115 C2123 0.930 . S
H2116 C2126 0.930 . S
H2117 C2127 0.930 . S
C2118 H2112 0.930 . S
C2118 C2119 1.355 . S
C2118 C2120 1.415 . S
C2119 C2118 1.355 . S
C2119 C2121 1.419 . S
C2120 C2118 1.415 . S
C2120 C2125 1.425 . S
C2120 C2127 1.409 . S
C2121 H2113 0.930 . S
C2121 C2119 1.419 . S
C2121 C2122 1.362 . S
C2122 H2114 0.930 . S
C2122 C2121 1.362 . S
C2122 C2125 1.409 . S
C2123 H2115 0.930 . S
C2123 C2124 1.355 . S
C2123 C2125 1.415 . S
C2124 C2123 1.355 . S
C2124 C2126 1.419 . S
C2125 C2120 1.425 . S
C2125 C2122 1.409 . S
C2125 C2123 1.415 . S
C2126 H2116 0.930 . S
C2126 C2124 1.419 . S
C2126 C2127 1.362 . S
C2127 H2117 0.930 . S
C2127 C2120 1.409 . S
C2127 C2126 1.362 . S
H2128 C2134 0.930 . S
H2129 C2137 0.930 . S
H2130 C2138 0.930 . S
H2131 C2139 0.930 . S
H2132 C2142 0.930 . S
H2133 C2143 0.930 . S
C2134 H2128 0.930 . S
C2134 C2135 1.355 . S
C2134 C2136 1.415 . S
C2135 C2134 1.355 . S
C2135 C2137 1.419 . S
C2136 C2134 1.415 . S
C2136 C2141 1.425 . S
C2136 C2143 1.409 . S
C2137 H2129 0.930 . S
C2137 C2135 1.419 . S
C2137 C2138 1.362 . S
C2138 H2130 0.930 . S
C2138 C2137 1.362 . S
C2138 C2141 1.409 . S
C2139 H2131 0.930 . S
C2139 C2140 1.355 . S
C2139 C2141 1.415 . S
C2140 C2139 1.355 . S
C2140 C2142 1.419 . S
C2141 C2136 1.425 . S
C2141 C2138 1.409 . S
C2141 C2139 1.415 . S
C2142 H2132 0.930 . S
C2142 C2140 1.419 . S
C2142 C2143 1.362 . S
C2143 H2133 0.930 . S
C2143 C2136 1.409 . S
C2143 C2142 1.362 . S
H2144 C2150 0.930 . S
H2145 C2153 0.930 . S
H2146 C2154 0.930 . S
H2147 C2155 0.930 . S
H2148 C2158 0.930 . S
H2149 C2159 0.930 . S
C2150 H2144 0.930 . S
C2150 C2151 1.355 . S
C2150 C2152 1.415 . S
C2151 C2150 1.355 . S
C2151 C2153 1.419 . S
C2152 C2150 1.415 . S
C2152 C2157 1.425 . S
C2152 C2159 1.409 . S
C2153 H2145 0.930 . S
C2153 C2151 1.419 . S
C2153 C2154 1.362 . S
C2154 H2146 0.930 . S
C2154 C2153 1.362 . S
C2154 C2157 1.409 . S
C2155 H2147 0.930 . S
C2155 C2156 1.355 . S
C2155 C2157 1.415 . S
C2156 C2155 1.355 . S
C2156 C2158 1.419 . S
C2157 C2152 1.425 . S
C2157 C2154 1.409 . S
C2157 C2155 1.415 . S
C2158 H2148 0.930 . S
C2158 C2156 1.419 . S
C2158 C2159 1.362 . S
C2159 H2149 0.930 . S
C2159 C2152 1.409 . S
C2159 C2158 1.362 . S
H2160 C2166 0.930 . S
H2161 C2169 0.930 . S
H2162 C2170 0.930 . S
H2163 C2171 0.930 . S
H2164 C2174 0.930 . S
H2165 C2175 0.930 . S
C2166 H2160 0.930 . S
C2166 C2167 1.355 . S
C2166 C2168 1.415 . S
C2167 C2166 1.355 . S
C2167 C2169 1.419 . S
C2168 C2166 1.415 . S
C2168 C2173 1.425 . S
C2168 C2175 1.409 . S
C2169 H2161 0.930 . S
C2169 C2167 1.419 . S
C2169 C2170 1.362 . S
C2170 H2162 0.930 . S
C2170 C2169 1.362 . S
C2170 C2173 1.409 . S
C2171 H2163 0.930 . S
C2171 C2172 1.355 . S
C2171 C2173 1.415 . S
C2172 C2171 1.355 . S
C2172 C2174 1.419 . S
C2173 C2168 1.425 . S
C2173 C2170 1.409 . S
C2173 C2171 1.415 . S
C2174 H2164 0.930 . S
C2174 C2172 1.419 . S
C2174 C2175 1.362 . S
C2175 H2165 0.930 . S
C2175 C2168 1.409 . S
C2175 C2174 1.362 . S
H2176 C2182 0.930 . S
H2177 C2185 0.930 . S
H2178 C2186 0.930 . S
H2179 C2187 0.930 . S
H2180 C2190 0.930 . S
H2181 C2191 0.930 . S
C2182 H2176 0.930 . S
C2182 C2183 1.355 . S
C2182 C2184 1.415 . S
C2183 C2182 1.355 . S
C2183 C2185 1.419 . S
C2184 C2182 1.415 . S
C2184 C2189 1.425 . S
C2184 C2191 1.409 . S
C2185 H2177 0.930 . S
C2185 C2183 1.419 . S
C2185 C2186 1.362 . S
C2186 H2178 0.930 . S
C2186 C2185 1.362 . S
C2186 C2189 1.409 . S
C2187 H2179 0.930 . S
C2187 C2188 1.355 . S
C2187 C2189 1.415 . S
C2188 C2187 1.355 . S
C2188 C2190 1.419 . S
C2189 C2184 1.425 . S
C2189 C2186 1.409 . S
C2189 C2187 1.415 . S
C2190 H2180 0.930 . S
C2190 C2188 1.419 . S
C2190 C2191 1.362 . S
C2191 H2181 0.930 . S
C2191 C2184 1.409 . S
C2191 C2190 1.362 . S
H2192 C2198 0.930 . S
H2193 C2201 0.930 . S
H2194 C2202 0.930 . S
H2195 C2203 0.930 . S
H2196 C2206 0.930 . S
H2197 C2207 0.930 . S
C2198 H2192 0.930 . S
C2198 C2199 1.355 . S
C2198 C2200 1.415 . S
C2199 C2198 1.355 . S
C2199 C2201 1.419 . S
C2200 C2198 1.415 . S
C2200 C2205 1.425 . S
C2200 C2207 1.409 . S
C2201 H2193 0.930 . S
C2201 C2199 1.419 . S
C2201 C2202 1.362 . S
C2202 H2194 0.930 . S
C2202 C2201 1.362 . S
C2202 C2205 1.409 . S
C2203 H2195 0.930 . S
C2203 C2204 1.355 . S
C2203 C2205 1.415 . S
C2204 C2203 1.355 . S
C2204 C2206 1.419 . S
C2205 C2200 1.425 . S
C2205 C2202 1.409 . S
C2205 C2203 1.415 . S
C2206 H2196 0.930 . S
C2206 C2204 1.419 . S
C2206 C2207 1.362 . S
C2207 H2197 0.930 . S
C2207 C2200 1.409 . S
C2207 C2206 1.362 . S
H2208 C2214 0.930 . S
H2209 C2217 0.930 . S
H2210 C2218 0.930 . S
H2211 C2219 0.930 . S
H2212 C2222 0.930 . S
H2213 C2223 0.930 . S
C2214 H2208 0.930 . S
C2214 C2215 1.355 . S
C2214 C2216 1.415 . S
C2215 C2214 1.355 . S
C2215 C2217 1.419 . S
C2216 C2214 1.415 . S
C2216 C2221 1.425 . S
C2216 C2223 1.409 . S
C2217 H2209 0.930 . S
C2217 C2215 1.419 . S
C2217 C2218 1.362 . S
C2218 H2210 0.930 . S
C2218 C2217 1.362 . S
C2218 C2221 1.409 . S
C2219 H2211 0.930 . S
C2219 C2220 1.355 . S
C2219 C2221 1.415 . S
C2220 C2219 1.355 . S
C2220 C2222 1.419 . S
C2221 C2216 1.425 . S
C2221 C2218 1.409 . S
C2221 C2219 1.415 . S
C2222 H2212 0.930 . S
C2222 C2220 1.419 . S
C2222 C2223 1.362 . S
C2223 H2213 0.930 . S
C2223 C2216 1.409 . S
C2223 C2222 1.362 . S
H2224 C2230 0.930 . S
H2225 C2233 0.930 . S
H2226 C2234 0.930 . S
H2227 C2235 0.930 . S
H2228 C2238 0.930 . S
H2229 C2239 0.930 . S
C2230 H2224 0.930 . S
C2230 C2231 1.355 . S
C2230 C2232 1.415 . S
C2231 C2230 1.355 . S
C2231 C2233 1.419 . S
C2232 C2230 1.415 . S
C2232 C2237 1.425 . S
C2232 C2239 1.409 . S
C2233 H2225 0.930 . S
C2233 C2231 1.419 . S
C2233 C2234 1.362 . S
C2234 H2226 0.930 . S
C2234 C2233 1.362 . S
C2234 C2237 1.409 . S
C2235 H2227 0.930 . S
C2235 C2236 1.355 . S
C2235 C2237 1.415 . S
C2236 C2235 1.355 . S
C2236 C2238 1.419 . S
C2237 C2232 1.425 . S
C2237 C2234 1.409 . S
C2237 C2235 1.415 . S
C2238 H2228 0.930 . S
C2238 C2236 1.419 . S
C2238 C2239 1.362 . S
C2239 H2229 0.930 . S
C2239 C2232 1.409 . S
C2239 C2238 1.362 . S
H2240 C2246 0.930 . S
H2241 C2249 0.930 . S
H2242 C2250 0.930 . S
H2243 C2251 0.930 . S
H2244 C2254 0.930 . S
H2245 C2255 0.930 . S
C2246 H2240 0.930 . S
C2246 C2247 1.355 . S
C2246 C2248 1.415 . S
C2247 C2246 1.355 . S
C2247 C2249 1.419 . S
C2248 C2246 1.415 . S
C2248 C2253 1.425 . S
C2248 C2255 1.409 . S
C2249 H2241 0.930 . S
C2249 C2247 1.419 . S
C2249 C2250 1.362 . S
C2250 H2242 0.930 . S
C2250 C2249 1.362 . S
C2250 C2253 1.409 . S
C2251 H2243 0.930 . S
C2251 C2252 1.355 . S
C2251 C2253 1.415 . S
C2252 C2251 1.355 . S
C2252 C2254 1.419 . S
C2253 C2248 1.425 . S
C2253 C2250 1.409 . S
C2253 C2251 1.415 . S
C2254 H2244 0.930 . S
C2254 C2252 1.419 . S
C2254 C2255 1.362 . S
C2255 H2245 0.930 . S
C2255 C2248 1.409 . S
C2255 C2254 1.362 . S
H2256 C2262 0.930 . S
H2257 C2265 0.930 1_565 S
H2258 C2266 0.930 . S
H2259 C2267 0.930 . S
H2260 C2270 0.930 . S
H2261 C2271 0.930 . S
C2262 H2256 0.930 . S
C2262 C2263 1.355 1_545 S
C2262 C2264 1.415 . S
C2263 C2262 1.355 1_565 S
C2263 C2265 1.419 1_565 S
C2264 C2262 1.415 . S
C2264 C2269 1.425 . S
C2264 C2271 1.409 . S
C2265 H2257 0.930 1_545 S
C2265 C2263 1.419 1_545 S
C2265 C2266 1.362 . S
C2266 H2258 0.930 . S
C2266 C2265 1.362 . S
C2266 C2269 1.409 . S
C2267 H2259 0.930 . S
C2267 C2268 1.355 . S
C2267 C2269 1.415 . S
C2268 C2267 1.355 . S
C2268 C2270 1.419 . S
C2269 C2264 1.425 . S
C2269 C2266 1.409 . S
C2269 C2267 1.415 . S
C2270 H2260 0.930 . S
C2270 C2268 1.419 . S
C2270 C2271 1.362 . S
C2271 H2261 0.930 . S
C2271 C2264 1.409 . S
C2271 C2270 1.362 . S
H2272 C2278 0.930 . S
H2273 C2281 0.930 . S
H2274 C2282 0.930 . S
H2275 C2283 0.930 . S
H2276 C2286 0.930 . S
H2277 C2287 0.930 . S
C2278 H2272 0.930 . S
C2278 C2279 1.355 . S
C2278 C2280 1.415 . S
C2279 C2278 1.355 . S
C2279 C2281 1.419 . S
C2280 C2278 1.415 . S
C2280 C2285 1.425 . S
C2280 C2287 1.409 . S
C2281 H2273 0.930 . S
C2281 C2279 1.419 . S
C2281 C2282 1.362 . S
C2282 H2274 0.930 . S
C2282 C2281 1.362 . S
C2282 C2285 1.409 . S
C2283 H2275 0.930 . S
C2283 C2284 1.355 . S
C2283 C2285 1.415 . S
C2284 C2283 1.355 . S
C2284 C2286 1.419 . S
C2285 C2280 1.425 . S
C2285 C2282 1.409 . S
C2285 C2283 1.415 . S
C2286 H2276 0.930 . S
C2286 C2284 1.419 . S
C2286 C2287 1.362 . S
C2287 H2277 0.930 . S
C2287 C2280 1.409 . S
C2287 C2286 1.362 . S
H2288 C2294 0.930 . S
H2289 C2297 0.930 1_655 S
H2290 C2298 0.930 1_655 S
H2291 C2299 0.930 . S
H2292 C2302 0.930 . S
H2293 C2303 0.930 . S
C2294 H2288 0.930 . S
C2294 C2295 1.379 . S
C2294 C2296 1.415 . S
C2295 C2294 1.379 . S
C2295 C2297 1.437 . S
C2296 C2294 1.415 . S
C2296 C2301 1.425 . S
C2296 C2303 1.409 . S
C2297 H2289 0.930 1_455 S
C2297 C2295 1.437 . S
C2297 C2298 1.362 . S
C2298 H2290 0.930 1_455 S
C2298 C2297 1.362 . S
C2298 C2301 1.409 . S
C2299 H2291 0.930 . S
C2299 C2300 1.355 . S
C2299 C2301 1.415 . S
C2300 C2299 1.355 . S
C2300 C2302 1.419 . S
C2301 C2296 1.425 . S
C2301 C2298 1.409 . S
C2301 C2299 1.415 . S
C2302 H2292 0.930 . S
C2302 C2300 1.419 . S
C2302 C2303 1.362 . S
C2303 H2293 0.930 . S
C2303 C2296 1.409 . S
C2303 C2302 1.362 . S
H2304 C2310 0.930 . S
H2305 C2313 0.930 . S
H2306 C2314 0.930 . S
H2307 C2315 0.930 . S
H2308 C2318 0.930 . S
H2309 C2319 0.930 . S
C2310 H2304 0.930 . S
C2310 C2311 1.355 . S
C2310 C2312 1.415 . S
C2311 C2310 1.355 . S
C2311 C2313 1.419 . S
C2312 C2310 1.415 . S
C2312 C2317 1.425 . S
C2312 C2319 1.409 . S
C2313 H2305 0.930 . S
C2313 C2311 1.419 . S
C2313 C2314 1.362 . S
C2314 H2306 0.930 . S
C2314 C2313 1.362 . S
C2314 C2317 1.409 . S
C2315 H2307 0.930 . S
C2315 C2316 1.355 . S
C2315 C2317 1.415 . S
C2316 C2315 1.355 . S
C2316 C2318 1.419 . S
C2317 C2312 1.425 . S
C2317 C2314 1.409 . S
C2317 C2315 1.415 . S
C2318 H2308 0.930 . S
C2318 C2316 1.419 . S
C2318 C2319 1.362 . S
C2319 H2309 0.930 . S
C2319 C2312 1.409 . S
C2319 C2318 1.362 . S
H2320 C2326 0.930 . S
H2321 C2329 0.930 . S
H2322 C2330 0.930 . S
H2323 C2331 0.930 . S
H2324 C2334 0.901 1_545 S
H2325 C2335 0.930 . S
C2326 H2320 0.930 . S
C2326 C2327 1.355 . S
C2326 C2328 1.415 . S
C2327 C2326 1.355 . S
C2327 C2329 1.419 . S
C2328 C2326 1.415 . S
C2328 C2333 1.425 . S
C2328 C2335 1.409 . S
C2329 H2321 0.930 . S
C2329 C2327 1.419 . S
C2329 C2330 1.362 . S
C2330 H2322 0.930 . S
C2330 C2329 1.362 . S
C2330 C2333 1.409 . S
C2331 H2323 0.930 . S
C2331 C2332 1.335 1_565 S
C2331 C2333 1.415 . S
C2332 C2331 1.335 1_545 S
C2332 C2334 1.417 1_545 S
C2333 C2328 1.425 . S
C2333 C2330 1.409 . S
C2333 C2331 1.415 . S
C2334 H2324 0.901 1_565 S
C2334 C2332 1.417 1_565 S
C2334 C2335 1.394 . S
C2335 H2325 0.930 . S
C2335 C2328 1.409 . S
C2335 C2334 1.394 . S
H2336 C2342 0.930 . S
H2337 C2345 0.930 . S
H2338 C2346 0.930 . S
H2339 C2347 0.930 . S
H2340 C2350 0.930 . S
H2341 C2351 0.930 . S
C2342 H2336 0.930 . S
C2342 C2343 1.355 . S
C2342 C2344 1.415 . S
C2343 C2342 1.355 . S
C2343 C2345 1.419 . S
C2344 C2342 1.415 . S
C2344 C2349 1.425 . S
C2344 C2351 1.409 . S
C2345 H2337 0.930 . S
C2345 C2343 1.419 . S
C2345 C2346 1.362 . S
C2346 H2338 0.930 . S
C2346 C2345 1.362 . S
C2346 C2349 1.409 . S
C2347 H2339 0.930 . S
C2347 C2348 1.355 . S
C2347 C2349 1.415 . S
C2348 C2347 1.355 . S
C2348 C2350 1.419 . S
C2349 C2344 1.425 . S
C2349 C2346 1.409 . S
C2349 C2347 1.415 . S
C2350 H2340 0.930 . S
C2350 C2348 1.419 . S
C2350 C2351 1.362 . S
C2351 H2341 0.930 . S
C2351 C2344 1.409 . S
C2351 C2350 1.362 . S
H2352 C2358 0.930 . S
H2353 C2361 0.930 . S
H2354 C2362 0.930 . S
H2355 C2363 0.930 . S
H2356 C2366 0.930 . S
H2357 C2367 0.930 . S
C2358 H2352 0.930 . S
C2358 C2359 1.355 . S
C2358 C2360 1.415 . S
C2359 C2358 1.355 . S
C2359 C2361 1.419 . S
C2360 C2358 1.415 . S
C2360 C2365 1.425 1_455 S
C2360 C2367 1.409 . S
C2361 H2353 0.930 . S
C2361 C2359 1.419 . S
C2361 C2362 1.362 1_455 S
C2362 H2354 0.930 . S
C2362 C2361 1.362 1_655 S
C2362 C2365 1.409 . S
C2363 H2355 0.930 . S
C2363 C2364 1.355 . S
C2363 C2365 1.415 . S
C2364 C2363 1.355 . S
C2364 C2366 1.419 . S
C2365 C2360 1.425 1_655 S
C2365 C2362 1.409 . S
C2365 C2363 1.415 . S
C2366 H2356 0.930 . S
C2366 C2364 1.419 . S
C2366 C2367 1.362 1_655 S
C2367 H2357 0.930 . S
C2367 C2360 1.409 . S
C2367 C2366 1.362 1_455 S
H2368 C2374 0.930 . S
H2369 C2377 0.930 . S
H2370 C2378 0.930 . S
H2371 C2379 0.930 . S
H2372 C2382 0.930 . S
H2373 C2383 0.930 1_556 S
C2374 H2368 0.930 . S
C2374 C2375 1.355 . S
C2374 C2376 1.415 . S
C2375 C2374 1.355 . S
C2375 C2377 1.419 . S
C2376 C2374 1.415 . S
C2376 C2381 1.425 . S
C2376 C2383 1.409 . S
C2377 H2369 0.930 . S
C2377 C2375 1.419 . S
C2377 C2378 1.362 . S
C2378 H2370 0.930 . S
C2378 C2377 1.362 . S
C2378 C2381 1.409 . S
C2379 H2371 0.930 . S
C2379 C2380 1.355 . S
C2379 C2381 1.415 . S
C2380 C2379 1.355 . S
C2380 C2382 1.419 . S
C2381 C2376 1.425 . S
C2381 C2378 1.409 . S
C2381 C2379 1.415 . S
C2382 H2372 0.930 . S
C2382 C2380 1.419 . S
C2382 C2383 1.362 . S
C2383 H2373 0.930 1_554 S
C2383 C2376 1.409 . S
C2383 C2382 1.362 . S
H2384 C2390 0.930 . S
H2385 C2393 0.930 . S
H2386 C2394 0.930 1_455 S
H2387 C2395 0.930 . S
H2388 C2398 0.930 . S
H2389 C2399 0.930 1_655 S
C2390 H2384 0.930 . S
C2390 C2391 1.355 . S
C2390 C2392 1.415 . S
C2391 C2390 1.355 . S
C2391 C2393 1.419 . S
C2392 C2390 1.415 . S
C2392 C2397 1.425 1_655 S
C2392 C2399 1.409 1_655 S
C2393 H2385 0.930 . S
C2393 C2391 1.419 . S
C2393 C2394 1.362 . S
C2394 H2386 0.930 1_655 S
C2394 C2393 1.362 . S
C2394 C2397 1.409 1_655 S
C2395 H2387 0.930 . S
C2395 C2396 1.355 . S
C2395 C2397 1.415 . S
C2396 C2395 1.355 . S
C2396 C2398 1.419 . S
C2397 C2392 1.425 1_455 S
C2397 C2394 1.409 1_455 S
C2397 C2395 1.415 . S
C2398 H2388 0.930 . S
C2398 C2396 1.419 . S
C2398 C2399 1.362 . S
C2399 H2389 0.930 1_455 S
C2399 C2392 1.409 1_455 S
C2399 C2398 1.362 . S
H2400 C2406 0.930 . S
H2401 C2409 0.921 1_455 S
H2402 C2410 0.930 . S
H2403 C2411 0.930 . S
H2404 C2414 0.921 1_655 S
H2405 C2415 0.930 . S
C2406 H2400 0.930 . S
C2406 C2407 1.355 . S
C2406 C2408 1.415 . S
C2407 C2406 1.355 . S
C2407 C2409 1.461 . S
C2408 C2406 1.415 . S
C2408 C2413 1.425 1_655 S
C2408 C2415 1.409 . S
C2409 H2401 0.921 1_655 S
C2409 C2407 1.461 . S
C2409 C2410 1.331 1_655 S
C2410 H2402 0.930 . S
C2410 C2409 1.331 1_455 S
C2410 C2413 1.409 . S
C2411 H2403 0.930 . S
C2411 C2412 1.355 . S
C2411 C2413 1.415 . S
C2412 C2411 1.355 . S
C2412 C2414 1.461 . S
C2413 C2408 1.425 1_455 S
C2413 C2410 1.409 . S
C2413 C2411 1.415 . S
C2414 H2404 0.921 1_455 S
C2414 C2412 1.461 . S
C2414 C2415 1.331 1_455 S
C2415 H2405 0.930 . S
C2415 C2408 1.409 . S
C2415 C2414 1.331 1_655 S
H2416 C2422 0.930 . S
H2417 C2425 0.930 . S
H2418 C2426 0.930 . S
H2419 C2427 0.930 . S
H2420 C2430 0.930 . S
H2421 C2431 0.930 . S
C2422 H2416 0.930 . S
C2422 C2423 1.355 . S
C2422 C2424 1.415 . S
C2423 C2422 1.355 . S
C2423 C2425 1.419 . S
C2424 C2422 1.415 . S
C2424 C2429 1.425 1_565 S
C2424 C2431 1.409 . S
C2425 H2417 0.930 . S
C2425 C2423 1.419 . S
C2425 C2426 1.362 1_565 S
C2426 H2418 0.930 . S
C2426 C2425 1.362 1_545 S
C2426 C2429 1.409 . S
C2427 H2419 0.930 . S
C2427 C2428 1.355 . S
C2427 C2429 1.415 . S
C2428 C2427 1.355 . S
C2428 C2430 1.419 . S
C2429 C2424 1.425 1_545 S
C2429 C2426 1.409 . S
C2429 C2427 1.415 . S
C2430 H2420 0.930 . S
C2430 C2428 1.419 . S
C2430 C2431 1.362 1_545 S
C2431 H2421 0.930 . S
C2431 C2424 1.409 . S
C2431 C2430 1.362 1_565 S
H2432 C2438 0.930 . S
H2433 C2441 0.930 . S
H2434 C2442 0.949 . S
H2435 C2443 0.930 . S
H2436 C2446 0.930 . S
H2437 C2447 0.949 . S
C2438 H2432 0.930 . S
C2438 C2439 1.355 . S
C2438 C2440 1.415 . S
C2439 C2438 1.355 . S
C2439 C2441 1.419 . S
C2440 C2438 1.415 . S
C2440 C2445 1.425 1_556 S
C2440 C2447 1.418 . S
C2441 H2433 0.930 . S
C2441 C2439 1.419 . S
C2441 C2442 1.337 1_556 S
C2442 H2434 0.949 . S
C2442 C2441 1.337 1_554 S
C2442 C2445 1.418 . S
C2443 H2435 0.930 . S
C2443 C2444 1.355 . S
C2443 C2445 1.415 . S
C2444 C2443 1.355 . S
C2444 C2446 1.419 . S
C2445 C2440 1.425 1_554 S
C2445 C2442 1.418 . S
C2445 C2443 1.415 . S
C2446 H2436 0.930 . S
C2446 C2444 1.419 . S
C2446 C2447 1.337 1_554 S
C2447 H2437 0.949 . S
C2447 C2440 1.418 . S
C2447 C2446 1.337 1_556 S
H2448 C2454 0.930 . S
H2449 C2457 0.930 . S
H2450 C2458 0.930 . S
H2451 C2459 0.930 . S
H2452 C2462 0.930 . S
H2453 C2463 0.930 . S
C2454 H2448 0.930 . S
C2454 C2455 1.355 . S
C2454 C2456 1.415 . S
C2455 C2454 1.355 . S
C2455 C2457 1.419 . S
C2456 C2454 1.415 . S
C2456 C2461 1.425 . S
C2456 C2463 1.409 . S
C2457 H2449 0.930 . S
C2457 C2455 1.419 . S
C2457 C2458 1.362 . S
C2458 H2450 0.930 . S
C2458 C2457 1.362 . S
C2458 C2461 1.409 . S
C2459 H2451 0.930 . S
C2459 C2460 1.355 . S
C2459 C2461 1.415 . S
C2460 C2459 1.355 . S
C2460 C2462 1.419 . S
C2461 C2456 1.425 . S
C2461 C2458 1.409 . S
C2461 C2459 1.415 . S
C2462 H2452 0.930 . S
C2462 C2460 1.419 . S
C2462 C2463 1.362 . S
C2463 H2453 0.930 . S
C2463 C2456 1.409 . S
C2463 C2462 1.362 . S
H2464 C2470 0.930 1_556 S
H2465 C2473 0.930 . S
H2466 C2474 0.930 . S
H2467 C2475 0.930 1_554 S
H2468 C2478 0.930 . S
H2469 C2479 0.930 . S
C2470 H2464 0.930 1_554 S
C2470 C2471 1.355 . S
C2470 C2472 1.415 1_554 S
C2471 C2470 1.355 . S
C2471 C2473 1.419 . S
C2472 C2470 1.415 1_556 S
C2472 C2477 1.425 1_556 S
C2472 C2479 1.409 . S
C2473 H2465 0.930 . S
C2473 C2471 1.419 . S
C2473 C2474 1.362 . S
C2474 H2466 0.930 . S
C2474 C2473 1.362 . S
C2474 C2477 1.409 . S
C2475 H2467 0.930 1_556 S
C2475 C2476 1.355 . S
C2475 C2477 1.415 1_556 S
C2476 C2475 1.355 . S
C2476 C2478 1.419 . S
C2477 C2472 1.425 1_554 S
C2477 C2474 1.409 . S
C2477 C2475 1.415 1_554 S
C2478 H2468 0.930 . S
C2478 C2476 1.419 . S
C2478 C2479 1.362 . S
C2479 H2469 0.930 . S
C2479 C2472 1.409 . S
C2479 C2478 1.362 . S
H2480 C2486 0.930 . S
H2481 C2489 0.930 . S
H2482 C2490 0.930 . S
H2483 C2491 0.930 . S
H2484 C2494 0.930 . S
H2485 C2495 0.930 . S
C2486 H2480 0.930 . S
C2486 C2487 1.355 . S
C2486 C2488 1.445 . S
C2487 C2486 1.355 . S
C2487 C2489 1.419 . S
C2488 C2486 1.445 . S
C2488 C2493 1.422 1_556 S
C2488 C2495 1.381 1_556 S
C2489 H2481 0.930 . S
C2489 C2487 1.419 . S
C2489 C2490 1.362 . S
C2490 H2482 0.930 . S
C2490 C2489 1.362 . S
C2490 C2493 1.381 1_556 S
C2491 H2483 0.930 . S
C2491 C2492 1.355 . S
C2491 C2493 1.445 . S
C2492 C2491 1.355 . S
C2492 C2494 1.419 . S
C2493 C2488 1.422 1_554 S
C2493 C2490 1.381 1_554 S
C2493 C2491 1.445 . S
C2494 H2484 0.930 . S
C2494 C2492 1.419 . S
C2494 C2495 1.362 . S
C2495 H2485 0.930 . S
C2495 C2488 1.381 1_554 S
C2495 C2494 1.362 . S
H2496 C2502 0.930 . S
H2497 C2505 0.930 . S
H2498 C2506 0.930 . S
H2499 C2507 0.930 . S
H2500 C2510 0.930 . S
H2501 C2511 0.930 . S
C2502 H2496 0.930 . S
C2502 C2503 1.355 . S
C2502 C2504 1.415 . S
C2503 C2502 1.355 . S
C2503 C2505 1.419 . S
C2504 C2502 1.415 . S
C2504 C2509 1.425 . S
C2504 C2511 1.409 . S
C2505 H2497 0.930 . S
C2505 C2503 1.419 . S
C2505 C2506 1.362 . S
C2506 H2498 0.930 . S
C2506 C2505 1.362 . S
C2506 C2509 1.409 . S
C2507 H2499 0.930 . S
C2507 C2508 1.355 . S
C2507 C2509 1.415 . S
C2508 C2507 1.355 . S
C2508 C2510 1.419 . S
C2509 C2504 1.425 . S
C2509 C2506 1.409 . S
C2509 C2507 1.415 . S
C2510 H2500 0.930 . S
C2510 C2508 1.419 . S
C2510 C2511 1.362 . S
C2511 H2501 0.930 . S
C2511 C2504 1.409 . S
C2511 C2510 1.362 . S
H2512 C2518 0.930 . S
H2513 C2521 0.930 . S
H2514 C2522 0.930 . S
H2515 C2523 0.930 . S
H2516 C2526 0.930 . S
H2517 C2527 0.930 . S
C2518 H2512 0.930 . S
C2518 C2519 1.355 . S
C2518 C2520 1.415 . S
C2519 C2518 1.355 . S
C2519 C2521 1.419 . S
C2520 C2518 1.415 . S
C2520 C2525 1.425 . S
C2520 C2527 1.409 . S
C2521 H2513 0.930 . S
C2521 C2519 1.419 . S
C2521 C2522 1.362 . S
C2522 H2514 0.930 . S
C2522 C2521 1.362 . S
C2522 C2525 1.409 . S
C2523 H2515 0.930 . S
C2523 C2524 1.355 . S
C2523 C2525 1.415 . S
C2524 C2523 1.355 . S
C2524 C2526 1.419 . S
C2525 C2520 1.425 . S
C2525 C2522 1.409 . S
C2525 C2523 1.415 . S
C2526 H2516 0.930 . S
C2526 C2524 1.419 . S
C2526 C2527 1.362 . S
C2527 H2517 0.930 . S
C2527 C2520 1.409 . S
C2527 C2526 1.362 . S
H2528 C2534 0.930 . S
H2529 C2537 0.930 . S
H2530 C2538 0.930 . S
H2531 C2539 0.930 . S
H2532 C2542 0.930 . S
H2533 C2543 0.930 . S
C2534 H2528 0.930 . S
C2534 C2535 1.355 . S
C2534 C2536 1.415 . S
C2535 C2534 1.355 . S
C2535 C2537 1.419 . S
C2536 C2534 1.415 . S
C2536 C2541 1.425 . S
C2536 C2543 1.409 . S
C2537 H2529 0.930 . S
C2537 C2535 1.419 . S
C2537 C2538 1.362 . S
C2538 H2530 0.930 . S
C2538 C2537 1.362 . S
C2538 C2541 1.409 . S
C2539 H2531 0.930 . S
C2539 C2540 1.355 . S
C2539 C2541 1.415 . S
C2540 C2539 1.355 . S
C2540 C2542 1.419 . S
C2541 C2536 1.425 . S
C2541 C2538 1.409 . S
C2541 C2539 1.415 . S
C2542 H2532 0.930 . S
C2542 C2540 1.419 . S
C2542 C2543 1.362 . S
C2543 H2533 0.930 . S
C2543 C2536 1.409 . S
C2543 C2542 1.362 . S
H2544 C2550 0.930 . S
H2545 C2553 0.930 . S
H2546 C2554 0.930 . S
H2547 C2555 0.930 . S
H2548 C2558 0.930 . S
H2549 C2559 0.930 . S
C2550 H2544 0.930 . S
C2550 C2551 1.355 . S
C2550 C2552 1.415 . S
C2551 C2550 1.355 . S
C2551 C2553 1.419 . S
C2552 C2550 1.415 . S
C2552 C2557 1.425 . S
C2552 C2559 1.409 . S
C2553 H2545 0.930 . S
C2553 C2551 1.419 . S
C2553 C2554 1.362 . S
C2554 H2546 0.930 . S
C2554 C2553 1.362 . S
C2554 C2557 1.409 . S
C2555 H2547 0.930 . S
C2555 C2556 1.355 . S
C2555 C2557 1.415 . S
C2556 C2555 1.355 . S
C2556 C2558 1.419 . S
C2557 C2552 1.425 . S
C2557 C2554 1.409 . S
C2557 C2555 1.415 . S
C2558 H2548 0.930 . S
C2558 C2556 1.419 . S
C2558 C2559 1.362 . S
C2559 H2549 0.930 . S
C2559 C2552 1.409 . S
C2559 C2558 1.362 . S
H2560 C2566 0.930 . S
H2561 C2569 0.930 1_565 S
H2562 C2570 0.930 . S
H2563 C2571 0.930 . S
H2564 C2574 0.930 1_545 S
H2565 C2575 0.930 . S
C2566 H2560 0.930 . S
C2566 C2567 1.355 . S
C2566 C2568 1.415 . S
C2567 C2566 1.355 . S
C2567 C2569 1.419 . S
C2568 C2566 1.415 . S
C2568 C2573 1.425 1_545 S
C2568 C2575 1.409 . S
C2569 H2561 0.930 1_545 S
C2569 C2567 1.419 . S
C2569 C2570 1.362 1_545 S
C2570 H2562 0.930 . S
C2570 C2569 1.362 1_565 S
C2570 C2573 1.409 . S
C2571 H2563 0.930 . S
C2571 C2572 1.355 . S
C2571 C2573 1.415 . S
C2572 C2571 1.355 . S
C2572 C2574 1.419 . S
C2573 C2568 1.425 1_565 S
C2573 C2570 1.409 . S
C2573 C2571 1.415 . S
C2574 H2564 0.930 1_565 S
C2574 C2572 1.419 . S
C2574 C2575 1.362 1_565 S
C2575 H2565 0.930 . S
C2575 C2568 1.409 . S
C2575 C2574 1.362 1_545 S
H2576 C2582 0.930 . S
H2577 C2585 0.930 . S
H2578 C2586 0.930 . S
H2579 C2587 0.930 . S
H2580 C2590 0.930 . S
H2581 C2591 0.930 . S
C2582 H2576 0.930 . S
C2582 C2583 1.355 . S
C2582 C2584 1.415 . S
C2583 C2582 1.355 . S
C2583 C2585 1.419 . S
C2584 C2582 1.415 . S
C2584 C2589 1.425 . S
C2584 C2591 1.409 . S
C2585 H2577 0.930 . S
C2585 C2583 1.419 . S
C2585 C2586 1.362 . S
C2586 H2578 0.930 . S
C2586 C2585 1.362 . S
C2586 C2589 1.409 . S
C2587 H2579 0.930 . S
C2587 C2588 1.355 . S
C2587 C2589 1.415 . S
C2588 C2587 1.355 . S
C2588 C2590 1.419 . S
C2589 C2584 1.425 . S
C2589 C2586 1.409 . S
C2589 C2587 1.415 . S
C2590 H2580 0.930 . S
C2590 C2588 1.419 . S
C2590 C2591 1.362 . S
C2591 H2581 0.930 . S
C2591 C2584 1.409 . S
C2591 C2590 1.362 . S
H2592 C2598 0.930 1_455 S
H2593 C2601 0.930 . S
H2594 C2602 0.930 . S
H2595 C2603 0.930 1_655 S
H2596 C2606 0.930 . S
H2597 C2607 0.930 . S
C2598 H2592 0.930 1_655 S
C2598 C2599 1.355 . S
C2598 C2600 1.415 1_655 S
C2599 C2598 1.355 . S
C2599 C2601 1.419 . S
C2600 C2598 1.415 1_455 S
C2600 C2605 1.425 1_455 S
C2600 C2607 1.409 . S
C2601 H2593 0.930 . S
C2601 C2599 1.419 . S
C2601 C2602 1.362 . S
C2602 H2594 0.930 . S
C2602 C2601 1.362 . S
C2602 C2605 1.409 . S
C2603 H2595 0.930 1_455 S
C2603 C2604 1.355 . S
C2603 C2605 1.415 1_455 S
C2604 C2603 1.355 . S
C2604 C2606 1.419 . S
C2605 C2600 1.425 1_655 S
C2605 C2602 1.409 . S
C2605 C2603 1.415 1_655 S
C2606 H2596 0.930 . S
C2606 C2604 1.419 . S
C2606 C2607 1.362 . S
C2607 H2597 0.930 . S
C2607 C2600 1.409 . S
C2607 C2606 1.362 . S
H2608 C2614 0.930 . S
H2609 C2617 0.930 . S
H2610 C2618 0.930 . S
H2611 C2619 0.930 . S
H2612 C2622 0.930 . S
H2613 C2623 0.930 . S
C2614 H2608 0.930 . S
C2614 C2615 1.355 . S
C2614 C2616 1.415 . S
C2615 C2614 1.355 . S
C2615 C2617 1.419 . S
C2616 C2614 1.415 . S
C2616 C2621 1.425 . S
C2616 C2623 1.409 . S
C2617 H2609 0.930 . S
C2617 C2615 1.419 . S
C2617 C2618 1.362 . S
C2618 H2610 0.930 . S
C2618 C2617 1.362 . S
C2618 C2621 1.409 . S
C2619 H2611 0.930 . S
C2619 C2620 1.355 . S
C2619 C2621 1.415 . S
C2620 C2619 1.355 . S
C2620 C2622 1.419 . S
C2621 C2616 1.425 . S
C2621 C2618 1.409 . S
C2621 C2619 1.415 . S
C2622 H2612 0.930 . S
C2622 C2620 1.419 . S
C2622 C2623 1.362 . S
C2623 H2613 0.930 . S
C2623 C2616 1.409 . S
C2623 C2622 1.362 . S
H2624 C2630 0.930 . S
H2625 C2633 0.930 . S
H2626 C2634 0.930 . S
H2627 C2635 0.930 . S
H2628 C2638 0.930 . S
H2629 C2639 0.930 . S
C2630 H2624 0.930 . S
C2630 C2631 1.355 . S
C2630 C2632 1.415 . S
C2631 C2630 1.355 . S
C2631 C2633 1.419 . S
C2632 C2630 1.415 . S
C2632 C2637 1.425 . S
C2632 C2639 1.409 . S
C2633 H2625 0.930 . S
C2633 C2631 1.419 . S
C2633 C2634 1.362 . S
C2634 H2626 0.930 . S
C2634 C2633 1.362 . S
C2634 C2637 1.409 . S
C2635 H2627 0.930 . S
C2635 C2636 1.355 . S
C2635 C2637 1.415 . S
C2636 C2635 1.355 . S
C2636 C2638 1.419 . S
C2637 C2632 1.425 . S
C2637 C2634 1.409 . S
C2637 C2635 1.415 . S
C2638 H2628 0.930 . S
C2638 C2636 1.419 . S
C2638 C2639 1.362 . S
C2639 H2629 0.930 . S
C2639 C2632 1.409 . S
C2639 C2638 1.362 . S
H2640 C2646 0.930 . S
H2641 C2649 0.930 . S
H2642 C2650 0.930 . S
H2643 C2651 0.930 . S
H2644 C2654 0.930 . S
H2645 C2655 0.930 . S
C2646 H2640 0.930 . S
C2646 C2647 1.355 . S
C2646 C2648 1.415 . S
C2647 C2646 1.355 . S
C2647 C2649 1.419 . S
C2648 C2646 1.415 . S
C2648 C2653 1.425 . S
C2648 C2655 1.409 . S
C2649 H2641 0.930 . S
C2649 C2647 1.419 . S
C2649 C2650 1.362 . S
C2650 H2642 0.930 . S
C2650 C2649 1.362 . S
C2650 C2653 1.409 . S
C2651 H2643 0.930 . S
C2651 C2652 1.355 . S
C2651 C2653 1.415 . S
C2652 C2651 1.355 . S
C2652 C2654 1.419 . S
C2653 C2648 1.425 . S
C2653 C2650 1.409 . S
C2653 C2651 1.415 . S
C2654 H2644 0.930 . S
C2654 C2652 1.419 . S
C2654 C2655 1.362 . S
C2655 H2645 0.930 . S
C2655 C2648 1.409 . S
C2655 C2654 1.362 . S
H2656 C2662 0.930 . S
H2657 C2665 0.930 . S
H2658 C2666 0.930 . S
H2659 C2667 0.930 . S
H2660 C2670 0.930 . S
H2661 C2671 0.930 . S
C2662 H2656 0.930 . S
C2662 C2663 1.355 . S
C2662 C2664 1.415 . S
C2663 C2662 1.355 . S
C2663 C2665 1.419 . S
C2664 C2662 1.415 . S
C2664 C2669 1.425 . S
C2664 C2671 1.409 . S
C2665 H2657 0.930 . S
C2665 C2663 1.419 . S
C2665 C2666 1.362 . S
C2666 H2658 0.930 . S
C2666 C2665 1.362 . S
C2666 C2669 1.409 . S
C2667 H2659 0.930 . S
C2667 C2668 1.355 . S
C2667 C2669 1.415 . S
C2668 C2667 1.355 . S
C2668 C2670 1.419 . S
C2669 C2664 1.425 . S
C2669 C2666 1.409 . S
C2669 C2667 1.415 . S
C2670 H2660 0.930 . S
C2670 C2668 1.419 . S
C2670 C2671 1.362 . S
C2671 H2661 0.930 . S
C2671 C2664 1.409 . S
C2671 C2670 1.362 . S
H2672 C2678 0.930 . S
H2673 C2681 0.930 . S
H2674 C2682 0.930 . S
H2675 C2683 0.930 . S
H2676 C2686 0.930 . S
H2677 C2687 0.930 . S
C2678 H2672 0.930 . S
C2678 C2679 1.355 . S
C2678 C2680 1.415 1_565 S
C2679 C2678 1.355 . S
C2679 C2681 1.419 . S
C2680 C2678 1.415 1_545 S
C2680 C2685 1.425 1_545 S
C2680 C2687 1.409 . S
C2681 H2673 0.930 . S
C2681 C2679 1.419 . S
C2681 C2682 1.362 . S
C2682 H2674 0.930 . S
C2682 C2681 1.362 . S
C2682 C2685 1.409 . S
C2683 H2675 0.930 . S
C2683 C2684 1.355 . S
C2683 C2685 1.415 1_545 S
C2684 C2683 1.355 . S
C2684 C2686 1.419 . S
C2685 C2680 1.425 1_565 S
C2685 C2682 1.409 . S
C2685 C2683 1.415 1_565 S
C2686 H2676 0.930 . S
C2686 C2684 1.419 . S
C2686 C2687 1.362 . S
C2687 H2677 0.930 . S
C2687 C2680 1.409 . S
C2687 C2686 1.362 . S
H2688 C2694 0.930 . S
H2689 C2697 0.930 . S
H2690 C2698 0.930 . S
H2691 C2699 0.930 . S
H2692 C2702 0.930 . S
H2693 C2703 0.930 . S
C2694 H2688 0.930 . S
C2694 C2695 1.355 . S
C2694 C2696 1.415 . S
C2695 C2694 1.355 . S
C2695 C2697 1.419 . S
C2696 C2694 1.415 . S
C2696 C2701 1.425 . S
C2696 C2703 1.409 . S
C2697 H2689 0.930 . S
C2697 C2695 1.419 . S
C2697 C2698 1.362 . S
C2698 H2690 0.930 . S
C2698 C2697 1.362 . S
C2698 C2701 1.409 . S
C2699 H2691 0.930 . S
C2699 C2700 1.355 . S
C2699 C2701 1.415 . S
C2700 C2699 1.355 . S
C2700 C2702 1.419 . S
C2701 C2696 1.425 . S
C2701 C2698 1.409 . S
C2701 C2699 1.415 . S
C2702 H2692 0.930 . S
C2702 C2700 1.419 . S
C2702 C2703 1.362 . S
C2703 H2693 0.930 . S
C2703 C2696 1.409 . S
C2703 C2702 1.362 . S
H2704 C2710 0.930 . S
H2705 C2713 0.930 . S
H2706 C2714 0.930 . S
H2707 C2715 0.930 . S
H2708 C2718 0.930 . S
H2709 C2719 0.930 . S
C2710 H2704 0.930 . S
C2710 C2711 1.355 . S
C2710 C2712 1.451 . S
C2711 C2710 1.355 . S
C2711 C2713 1.419 . S
C2712 C2710 1.451 . S
C2712 C2717 1.422 1_554 S
C2712 C2719 1.377 1_554 S
C2713 H2705 0.930 . S
C2713 C2711 1.419 . S
C2713 C2714 1.362 . S
C2714 H2706 0.930 . S
C2714 C2713 1.362 . S
C2714 C2717 1.377 1_554 S
C2715 H2707 0.930 . S
C2715 C2716 1.355 . S
C2715 C2717 1.451 . S
C2716 C2715 1.355 . S
C2716 C2718 1.419 . S
C2717 C2712 1.422 1_556 S
C2717 C2714 1.377 1_556 S
C2717 C2715 1.451 . S
C2718 H2708 0.930 . S
C2718 C2716 1.419 . S
C2718 C2719 1.362 . S
C2719 H2709 0.930 . S
C2719 C2712 1.377 1_556 S
C2719 C2718 1.362 . S
H2720 C2726 0.930 . S
H2721 C2729 0.930 . S
H2722 C2730 0.930 . S
H2723 C2731 0.930 . S
H2724 C2734 0.930 . S
H2725 C2735 0.930 . S
C2726 H2720 0.930 . S
C2726 C2727 1.355 . S
C2726 C2728 1.415 . S
C2727 C2726 1.355 . S
C2727 C2729 1.419 . S
C2728 C2726 1.415 . S
C2728 C2733 1.425 1_565 S
C2728 C2735 1.409 . S
C2729 H2721 0.930 . S
C2729 C2727 1.419 . S
C2729 C2730 1.362 1_565 S
C2730 H2722 0.930 . S
C2730 C2729 1.362 1_545 S
C2730 C2733 1.409 . S
C2731 H2723 0.930 . S
C2731 C2732 1.355 . S
C2731 C2733 1.415 . S
C2732 C2731 1.355 . S
C2732 C2734 1.419 . S
C2733 C2728 1.425 1_545 S
C2733 C2730 1.409 . S
C2733 C2731 1.415 . S
C2734 H2724 0.930 . S
C2734 C2732 1.419 . S
C2734 C2735 1.362 1_545 S
C2735 H2725 0.930 . S
C2735 C2728 1.409 . S
C2735 C2734 1.362 1_565 S
H2736 C2742 0.930 . S
H2737 C2745 0.930 . S
H2738 C2746 0.930 . S
H2739 C2747 0.930 . S
H2740 C2750 0.930 . S
H2741 C2751 0.930 . S
C2742 H2736 0.930 . S
C2742 C2743 1.355 . S
C2742 C2744 1.415 . S
C2743 C2742 1.355 . S
C2743 C2745 1.419 . S
C2744 C2742 1.415 . S
C2744 C2749 1.425 . S
C2744 C2751 1.409 . S
C2745 H2737 0.930 . S
C2745 C2743 1.419 . S
C2745 C2746 1.362 . S
C2746 H2738 0.930 . S
C2746 C2745 1.362 . S
C2746 C2749 1.409 . S
C2747 H2739 0.930 . S
C2747 C2748 1.355 . S
C2747 C2749 1.415 . S
C2748 C2747 1.355 . S
C2748 C2750 1.419 . S
C2749 C2744 1.425 . S
C2749 C2746 1.409 . S
C2749 C2747 1.415 . S
C2750 H2740 0.930 . S
C2750 C2748 1.419 . S
C2750 C2751 1.362 . S
C2751 H2741 0.930 . S
C2751 C2744 1.409 . S
C2751 C2750 1.362 . S
H2752 C2758 0.930 . S
H2753 C2761 0.930 . S
H2754 C2762 0.930 . S
H2755 C2763 0.930 . S
H2756 C2766 0.930 . S
H2757 C2767 0.930 . S
C2758 H2752 0.930 . S
C2758 C2759 1.355 . S
C2758 C2760 1.415 . S
C2759 C2758 1.355 . S
C2759 C2761 1.419 . S
C2760 C2758 1.415 . S
C2760 C2765 1.425 . S
C2760 C2767 1.409 . S
C2761 H2753 0.930 . S
C2761 C2759 1.419 . S
C2761 C2762 1.362 . S
C2762 H2754 0.930 . S
C2762 C2761 1.362 . S
C2762 C2765 1.409 . S
C2763 H2755 0.930 . S
C2763 C2764 1.355 . S
C2763 C2765 1.415 . S
C2764 C2763 1.355 . S
C2764 C2766 1.419 . S
C2765 C2760 1.425 . S
C2765 C2762 1.409 . S
C2765 C2763 1.415 . S
C2766 H2756 0.930 . S
C2766 C2764 1.419 . S
C2766 C2767 1.362 . S
C2767 H2757 0.930 . S
C2767 C2760 1.409 . S
C2767 C2766 1.362 . S
H2768 C2774 0.930 . S
H2769 C2777 0.930 . S
H2770 C2778 0.930 . S
H2771 C2779 0.930 . S
H2772 C2782 0.930 . S
H2773 C2783 0.930 . S
C2774 H2768 0.930 . S
C2774 C2775 1.355 . S
C2774 C2776 1.415 . S
C2775 C2774 1.355 . S
C2775 C2777 1.419 . S
C2776 C2774 1.415 . S
C2776 C2781 1.425 . S
C2776 C2783 1.409 . S
C2777 H2769 0.930 . S
C2777 C2775 1.419 . S
C2777 C2778 1.362 . S
C2778 H2770 0.930 . S
C2778 C2777 1.362 . S
C2778 C2781 1.409 . S
C2779 H2771 0.930 . S
C2779 C2780 1.355 . S
C2779 C2781 1.415 . S
C2780 C2779 1.355 . S
C2780 C2782 1.419 . S
C2781 C2776 1.425 . S
C2781 C2778 1.409 . S
C2781 C2779 1.415 . S
C2782 H2772 0.930 . S
C2782 C2780 1.419 . S
C2782 C2783 1.362 . S
C2783 H2773 0.930 . S
C2783 C2776 1.409 . S
C2783 C2782 1.362 . S
H2784 C2790 0.930 . S
H2785 C2793 0.930 . S
H2786 C2794 0.930 . S
H2787 C2795 0.930 . S
H2788 C2798 0.930 . S
H2789 C2799 0.930 . S
C2790 H2784 0.930 . S
C2790 C2791 1.355 . S
C2790 C2792 1.415 . S
C2791 C2790 1.355 . S
C2791 C2793 1.419 . S
C2792 C2790 1.415 . S
C2792 C2797 1.425 . S
C2792 C2799 1.409 . S
C2793 H2785 0.930 . S
C2793 C2791 1.419 . S
C2793 C2794 1.362 . S
C2794 H2786 0.930 . S
C2794 C2793 1.362 . S
C2794 C2797 1.409 . S
C2795 H2787 0.930 . S
C2795 C2796 1.355 . S
C2795 C2797 1.415 . S
C2796 C2795 1.355 . S
C2796 C2798 1.419 . S
C2797 C2792 1.425 . S
C2797 C2794 1.409 . S
C2797 C2795 1.415 . S
C2798 H2788 0.930 . S
C2798 C2796 1.419 . S
C2798 C2799 1.362 . S
C2799 H2789 0.930 . S
C2799 C2792 1.409 . S
C2799 C2798 1.362 . S
H2800 C2806 0.930 . S
H2801 C2809 0.930 . S
H2802 C2810 0.930 . S
H2803 C2811 0.930 . S
H2804 C2814 0.930 . S
H2805 C2815 0.930 . S
C2806 H2800 0.930 . S
C2806 C2807 1.355 . S
C2806 C2808 1.415 . S
C2807 C2806 1.355 . S
C2807 C2809 1.419 . S
C2808 C2806 1.415 . S
C2808 C2813 1.425 . S
C2808 C2815 1.409 . S
C2809 H2801 0.930 . S
C2809 C2807 1.419 . S
C2809 C2810 1.362 . S
C2810 H2802 0.930 . S
C2810 C2809 1.362 . S
C2810 C2813 1.409 . S
C2811 H2803 0.930 . S
C2811 C2812 1.355 . S
C2811 C2813 1.415 . S
C2812 C2811 1.355 . S
C2812 C2814 1.419 . S
C2813 C2808 1.425 . S
C2813 C2810 1.409 . S
C2813 C2811 1.415 . S
C2814 H2804 0.930 . S
C2814 C2812 1.419 . S
C2814 C2815 1.362 . S
C2815 H2805 0.930 . S
C2815 C2808 1.409 . S
C2815 C2814 1.362 . S
H2816 C2822 0.930 . S
H2817 C2825 0.930 . S
H2818 C2826 0.930 . S
H2819 C2827 0.930 . S
H2820 C2830 0.930 . S
H2821 C2831 0.930 . S
C2822 H2816 0.930 . S
C2822 C2823 1.355 . S
C2822 C2824 1.415 . S
C2823 C2822 1.355 . S
C2823 C2825 1.419 . S
C2824 C2822 1.415 . S
C2824 C2829 1.425 . S
C2824 C2831 1.409 . S
C2825 H2817 0.930 . S
C2825 C2823 1.419 . S
C2825 C2826 1.362 . S
C2826 H2818 0.930 . S
C2826 C2825 1.362 . S
C2826 C2829 1.409 . S
C2827 H2819 0.930 . S
C2827 C2828 1.355 . S
C2827 C2829 1.415 . S
C2828 C2827 1.355 . S
C2828 C2830 1.419 . S
C2829 C2824 1.425 . S
C2829 C2826 1.409 . S
C2829 C2827 1.415 . S
C2830 H2820 0.930 . S
C2830 C2828 1.419 . S
C2830 C2831 1.362 . S
C2831 H2821 0.930 . S
C2831 C2824 1.409 . S
C2831 C2830 1.362 . S
H2832 C2838 0.930 . S
H2833 C2841 0.930 . S
H2834 C2842 0.930 . S
H2835 C2843 0.930 . S
H2836 C2846 0.930 . S
H2837 C2847 0.930 . S
C2838 H2832 0.930 . S
C2838 C2839 1.355 . S
C2838 C2840 1.415 . S
C2839 C2838 1.355 . S
C2839 C2841 1.419 . S
C2840 C2838 1.415 . S
C2840 C2845 1.425 . S
C2840 C2847 1.409 . S
C2841 H2833 0.930 . S
C2841 C2839 1.419 . S
C2841 C2842 1.362 . S
C2842 H2834 0.930 . S
C2842 C2841 1.362 . S
C2842 C2845 1.409 . S
C2843 H2835 0.930 . S
C2843 C2844 1.355 . S
C2843 C2845 1.415 . S
C2844 C2843 1.355 . S
C2844 C2846 1.419 . S
C2845 C2840 1.425 . S
C2845 C2842 1.409 . S
C2845 C2843 1.415 . S
C2846 H2836 0.930 . S
C2846 C2844 1.419 . S
C2846 C2847 1.362 . S
C2847 H2837 0.930 . S
C2847 C2840 1.409 . S
C2847 C2846 1.362 . S
H2848 C2854 0.930 . S
H2849 C2857 0.930 . S
H2850 C2858 0.930 . S
H2851 C2859 0.930 . S
H2852 C2862 0.930 . S
H2853 C2863 0.930 . S
C2854 H2848 0.930 . S
C2854 C2855 1.355 . S
C2854 C2856 1.415 . S
C2855 C2854 1.355 . S
C2855 C2857 1.419 . S
C2856 C2854 1.415 . S
C2856 C2861 1.425 . S
C2856 C2863 1.409 . S
C2857 H2849 0.930 . S
C2857 C2855 1.419 . S
C2857 C2858 1.362 . S
C2858 H2850 0.930 . S
C2858 C2857 1.362 . S
C2858 C2861 1.409 . S
C2859 H2851 0.930 . S
C2859 C2860 1.355 . S
C2859 C2861 1.415 . S
C2860 C2859 1.355 . S
C2860 C2862 1.419 . S
C2861 C2856 1.425 . S
C2861 C2858 1.409 . S
C2861 C2859 1.415 . S
C2862 H2852 0.930 . S
C2862 C2860 1.419 . S
C2862 C2863 1.362 . S
C2863 H2853 0.930 . S
C2863 C2856 1.409 . S
C2863 C2862 1.362 . S
H2864 C2870 0.930 . S
H2865 C2873 0.930 . S
H2866 C2874 0.930 . S
H2867 C2875 0.930 . S
H2868 C2878 0.930 . S
H2869 C2879 0.930 . S
C2870 H2864 0.930 . S
C2870 C2871 1.355 . S
C2870 C2872 1.415 . S
C2871 C2870 1.355 . S
C2871 C2873 1.419 . S
C2872 C2870 1.415 . S
C2872 C2877 1.425 . S
C2872 C2879 1.409 . S
C2873 H2865 0.930 . S
C2873 C2871 1.419 . S
C2873 C2874 1.362 . S
C2874 H2866 0.930 . S
C2874 C2873 1.362 . S
C2874 C2877 1.409 . S
C2875 H2867 0.930 . S
C2875 C2876 1.355 . S
C2875 C2877 1.415 . S
C2876 C2875 1.355 . S
C2876 C2878 1.419 . S
C2877 C2872 1.425 . S
C2877 C2874 1.409 . S
C2877 C2875 1.415 . S
C2878 H2868 0.930 . S
C2878 C2876 1.419 . S
C2878 C2879 1.362 . S
C2879 H2869 0.930 . S
C2879 C2872 1.409 . S
C2879 C2878 1.362 . S
H2880 C2886 0.930 . S
H2881 C2889 0.930 . S
H2882 C2890 0.930 . S
H2883 C2891 0.930 . S
H2884 C2894 0.930 . S
H2885 C2895 0.930 . S
C2886 H2880 0.930 . S
C2886 C2887 1.355 . S
C2886 C2888 1.415 . S
C2887 C2886 1.355 . S
C2887 C2889 1.419 . S
C2888 C2886 1.415 . S
C2888 C2893 1.425 . S
C2888 C2895 1.409 . S
C2889 H2881 0.930 . S
C2889 C2887 1.419 . S
C2889 C2890 1.362 . S
C2890 H2882 0.930 . S
C2890 C2889 1.362 . S
C2890 C2893 1.409 . S
C2891 H2883 0.930 . S
C2891 C2892 1.355 . S
C2891 C2893 1.415 . S
C2892 C2891 1.355 . S
C2892 C2894 1.419 . S
C2893 C2888 1.425 . S
C2893 C2890 1.409 . S
C2893 C2891 1.415 . S
C2894 H2884 0.930 . S
C2894 C2892 1.419 . S
C2894 C2895 1.362 . S
C2895 H2885 0.930 . S
C2895 C2888 1.409 . S
C2895 C2894 1.362 . S
H2896 C2902 0.930 . S
H2897 C2905 0.930 . S
H2898 C2906 0.930 . S
H2899 C2907 0.930 . S
H2900 C2910 0.930 . S
H2901 C2911 0.930 . S
C2902 H2896 0.930 . S
C2902 C2903 1.355 . S
C2902 C2904 1.415 . S
C2903 C2902 1.355 . S
C2903 C2905 1.419 . S
C2904 C2902 1.415 . S
C2904 C2909 1.425 . S
C2904 C2911 1.409 . S
C2905 H2897 0.930 . S
C2905 C2903 1.419 . S
C2905 C2906 1.362 . S
C2906 H2898 0.930 . S
C2906 C2905 1.362 . S
C2906 C2909 1.409 . S
C2907 H2899 0.930 . S
C2907 C2908 1.355 . S
C2907 C2909 1.415 . S
C2908 C2907 1.355 . S
C2908 C2910 1.419 . S
C2909 C2904 1.425 . S
C2909 C2906 1.409 . S
C2909 C2907 1.415 . S
C2910 H2900 0.930 . S
C2910 C2908 1.419 . S
C2910 C2911 1.362 . S
C2911 H2901 0.930 . S
C2911 C2904 1.409 . S
C2911 C2910 1.362 . S
H2912 C2918 0.930 . S
H2913 C2921 0.930 . S
H2914 C2922 0.930 . S
H2915 C2923 0.930 . S
H2916 C2926 0.930 . S
H2917 C2927 0.930 . S
C2918 H2912 0.930 . S
C2918 C2919 1.355 . S
C2918 C2920 1.415 . S
C2919 C2918 1.355 . S
C2919 C2921 1.419 . S
C2920 C2918 1.415 . S
C2920 C2925 1.425 . S
C2920 C2927 1.409 . S
C2921 H2913 0.930 . S
C2921 C2919 1.419 . S
C2921 C2922 1.362 . S
C2922 H2914 0.930 . S
C2922 C2921 1.362 . S
C2922 C2925 1.409 . S
C2923 H2915 0.930 . S
C2923 C2924 1.355 . S
C2923 C2925 1.415 . S
C2924 C2923 1.355 . S
C2924 C2926 1.419 . S
C2925 C2920 1.425 . S
C2925 C2922 1.409 . S
C2925 C2923 1.415 . S
C2926 H2916 0.930 . S
C2926 C2924 1.419 . S
C2926 C2927 1.362 . S
C2927 H2917 0.930 . S
C2927 C2920 1.409 . S
C2927 C2926 1.362 . S
H2928 C2934 0.930 . S
H2929 C2937 0.930 . S
H2930 C2938 0.930 . S
H2931 C2939 0.930 . S
H2932 C2942 0.930 . S
H2933 C2943 0.930 . S
C2934 H2928 0.930 . S
C2934 C2935 1.355 . S
C2934 C2936 1.415 . S
C2935 C2934 1.355 . S
C2935 C2937 1.419 . S
C2936 C2934 1.415 . S
C2936 C2941 1.425 . S
C2936 C2943 1.409 . S
C2937 H2929 0.930 . S
C2937 C2935 1.419 . S
C2937 C2938 1.362 . S
C2938 H2930 0.930 . S
C2938 C2937 1.362 . S
C2938 C2941 1.409 . S
C2939 H2931 0.930 . S
C2939 C2940 1.355 . S
C2939 C2941 1.415 . S
C2940 C2939 1.355 . S
C2940 C2942 1.419 . S
C2941 C2936 1.425 . S
C2941 C2938 1.409 . S
C2941 C2939 1.415 . S
C2942 H2932 0.930 . S
C2942 C2940 1.419 . S
C2942 C2943 1.362 . S
C2943 H2933 0.930 . S
C2943 C2936 1.409 . S
C2943 C2942 1.362 . S
H2944 C2950 0.930 . S
H2945 C2953 0.930 . S
H2946 C2954 0.930 . S
H2947 C2955 0.930 . S
H2948 C2958 0.930 . S
H2949 C2959 0.930 . S
C2950 H2944 0.930 . S
C2950 C2951 1.355 . S
C2950 C2952 1.415 . S
C2951 C2950 1.355 . S
C2951 C2953 1.419 . S
C2952 C2950 1.415 . S
C2952 C2957 1.425 . S
C2952 C2959 1.409 . S
C2953 H2945 0.930 . S
C2953 C2951 1.419 . S
C2953 C2954 1.362 . S
C2954 H2946 0.930 . S
C2954 C2953 1.362 . S
C2954 C2957 1.409 . S
C2955 H2947 0.930 . S
C2955 C2956 1.355 . S
C2955 C2957 1.415 . S
C2956 C2955 1.355 . S
C2956 C2958 1.419 . S
C2957 C2952 1.425 . S
C2957 C2954 1.409 . S
C2957 C2955 1.415 . S
C2958 H2948 0.930 . S
C2958 C2956 1.419 . S
C2958 C2959 1.362 . S
C2959 H2949 0.930 . S
C2959 C2952 1.409 . S
C2959 C2958 1.362 . S
H2960 C2966 0.930 . S
H2961 C2969 0.930 . S
H2962 C2970 0.930 . S
H2963 C2971 0.930 . S
H2964 C2974 0.930 . S
H2965 C2975 0.930 . S
C2966 H2960 0.930 . S
C2966 C2967 1.355 . S
C2966 C2968 1.415 . S
C2967 C2966 1.355 . S
C2967 C2969 1.419 . S
C2968 C2966 1.415 . S
C2968 C2973 1.425 . S
C2968 C2975 1.409 . S
C2969 H2961 0.930 . S
C2969 C2967 1.419 . S
C2969 C2970 1.362 . S
C2970 H2962 0.930 . S
C2970 C2969 1.362 . S
C2970 C2973 1.409 . S
C2971 H2963 0.930 . S
C2971 C2972 1.355 . S
C2971 C2973 1.415 . S
C2972 C2971 1.355 . S
C2972 C2974 1.419 . S
C2973 C2968 1.425 . S
C2973 C2970 1.409 . S
C2973 C2971 1.415 . S
C2974 H2964 0.930 . S
C2974 C2972 1.419 . S
C2974 C2975 1.362 . S
C2975 H2965 0.930 . S
C2975 C2968 1.409 . S
C2975 C2974 1.362 . S
H2976 C2982 0.930 . S
H2977 C2985 0.930 . S
H2978 C2986 0.930 . S
H2979 C2987 0.930 . S
H2980 C2990 0.930 . S
H2981 C2991 0.930 . S
C2982 H2976 0.930 . S
C2982 C2983 1.355 . S
C2982 C2984 1.415 . S
C2983 C2982 1.355 . S
C2983 C2985 1.419 . S
C2984 C2982 1.415 . S
C2984 C2989 1.425 . S
C2984 C2991 1.409 . S
C2985 H2977 0.930 . S
C2985 C2983 1.419 . S
C2985 C2986 1.362 . S
C2986 H2978 0.930 . S
C2986 C2985 1.362 . S
C2986 C2989 1.409 . S
C2987 H2979 0.930 . S
C2987 C2988 1.355 . S
C2987 C2989 1.415 . S
C2988 C2987 1.355 . S
C2988 C2990 1.419 . S
C2989 C2984 1.425 . S
C2989 C2986 1.409 . S
C2989 C2987 1.415 . S
C2990 H2980 0.930 . S
C2990 C2988 1.419 . S
C2990 C2991 1.362 . S
C2991 H2981 0.930 . S
C2991 C2984 1.409 . S
C2991 C2990 1.362 . S
H2992 C2998 0.930 . S
H2993 C3001 0.930 . S
H2994 C3002 0.930 . S
H2995 C3003 0.930 . S
H2996 C3006 0.930 . S
H2997 C3007 0.930 . S
C2998 H2992 0.930 . S
C2998 C2999 1.355 . S
C2998 C3000 1.415 . S
C2999 C2998 1.355 . S
C2999 C3001 1.419 . S
C3000 C2998 1.415 . S
C3000 C3005 1.425 . S
C3000 C3007 1.409 . S
C3001 H2993 0.930 . S
C3001 C2999 1.419 . S
C3001 C3002 1.362 . S
C3002 H2994 0.930 . S
C3002 C3001 1.362 . S
C3002 C3005 1.409 . S
C3003 H2995 0.930 . S
C3003 C3004 1.355 . S
C3003 C3005 1.415 . S
C3004 C3003 1.355 . S
C3004 C3006 1.419 . S
C3005 C3000 1.425 . S
C3005 C3002 1.409 . S
C3005 C3003 1.415 . S
C3006 H2996 0.930 . S
C3006 C3004 1.419 . S
C3006 C3007 1.362 . S
C3007 H2997 0.930 . S
C3007 C3000 1.409 . S
C3007 C3006 1.362 . S
H3008 C3014 0.930 . S
H3009 C3017 0.930 . S
H3010 C3018 0.930 . S
H3011 C3019 0.930 . S
H3012 C3022 0.930 . S
H3013 C3023 0.930 . S
C3014 H3008 0.930 . S
C3014 C3015 1.355 . S
C3014 C3016 1.415 . S
C3015 C3014 1.355 . S
C3015 C3017 1.419 . S
C3016 C3014 1.415 . S
C3016 C3021 1.425 . S
C3016 C3023 1.409 . S
C3017 H3009 0.930 . S
C3017 C3015 1.419 . S
C3017 C3018 1.362 . S
C3018 H3010 0.930 . S
C3018 C3017 1.362 . S
C3018 C3021 1.409 . S
C3019 H3011 0.930 . S
C3019 C3020 1.355 . S
C3019 C3021 1.415 . S
C3020 C3019 1.355 . S
C3020 C3022 1.419 . S
C3021 C3016 1.425 . S
C3021 C3018 1.409 . S
C3021 C3019 1.415 . S
C3022 H3012 0.930 . S
C3022 C3020 1.419 . S
C3022 C3023 1.362 . S
C3023 H3013 0.930 . S
C3023 C3016 1.409 . S
C3023 C3022 1.362 . S
H3024 C3030 0.930 . S
H3025 C3033 0.930 . S
H3026 C3034 0.930 . S
H3027 C3035 0.930 . S
H3028 C3038 0.930 . S
H3029 C3039 0.930 . S
C3030 H3024 0.930 . S
C3030 C3031 1.355 . S
C3030 C3032 1.415 . S
C3031 C3030 1.355 . S
C3031 C3033 1.419 . S
C3032 C3030 1.415 . S
C3032 C3037 1.425 . S
C3032 C3039 1.409 . S
C3033 H3025 0.930 . S
C3033 C3031 1.419 . S
C3033 C3034 1.362 . S
C3034 H3026 0.930 . S
C3034 C3033 1.362 . S
C3034 C3037 1.409 . S
C3035 H3027 0.930 . S
C3035 C3036 1.355 . S
C3035 C3037 1.415 . S
C3036 C3035 1.355 . S
C3036 C3038 1.419 . S
C3037 C3032 1.425 . S
C3037 C3034 1.409 . S
C3037 C3035 1.415 . S
C3038 H3028 0.930 . S
C3038 C3036 1.419 . S
C3038 C3039 1.362 . S
C3039 H3029 0.930 . S
C3039 C3032 1.409 . S
C3039 C3038 1.362 . S
H3040 C3046 0.930 . S
H3041 C3049 0.930 . S
H3042 C3050 0.930 . S
H3043 C3051 0.930 . S
H3044 C3054 0.930 . S
H3045 C3055 0.930 . S
C3046 H3040 0.930 . S
C3046 C3047 1.355 . S
C3046 C3048 1.415 . S
C3047 C3046 1.355 . S
C3047 C3049 1.419 . S
C3048 C3046 1.415 . S
C3048 C3053 1.425 . S
C3048 C3055 1.409 . S
C3049 H3041 0.930 . S
C3049 C3047 1.419 . S
C3049 C3050 1.362 . S
C3050 H3042 0.930 . S
C3050 C3049 1.362 . S
C3050 C3053 1.409 . S
C3051 H3043 0.930 . S
C3051 C3052 1.355 . S
C3051 C3053 1.415 . S
C3052 C3051 1.355 . S
C3052 C3054 1.419 . S
C3053 C3048 1.425 . S
C3053 C3050 1.409 . S
C3053 C3051 1.415 . S
C3054 H3044 0.930 . S
C3054 C3052 1.419 . S
C3054 C3055 1.362 . S
C3055 H3045 0.930 . S
C3055 C3048 1.409 . S
C3055 C3054 1.362 . S
H3056 C3062 0.930 . S
H3057 C3065 0.930 . S
H3058 C3066 0.930 . S
H3059 C3067 0.930 . S
H3060 C3070 0.930 . S
H3061 C3071 0.930 . S
C3062 H3056 0.930 . S
C3062 C3063 1.355 . S
C3062 C3064 1.415 . S
C3063 C3062 1.355 . S
C3063 C3065 1.419 . S
C3064 C3062 1.415 . S
C3064 C3069 1.425 . S
C3064 C3071 1.409 . S
C3065 H3057 0.930 . S
C3065 C3063 1.419 . S
C3065 C3066 1.362 . S
C3066 H3058 0.930 . S
C3066 C3065 1.362 . S
C3066 C3069 1.409 . S
C3067 H3059 0.930 . S
C3067 C3068 1.355 . S
C3067 C3069 1.415 . S
C3068 C3067 1.355 . S
C3068 C3070 1.419 . S
C3069 C3064 1.425 . S
C3069 C3066 1.409 . S
C3069 C3067 1.415 . S
C3070 H3060 0.930 . S
C3070 C3068 1.419 . S
C3070 C3071 1.362 . S
C3071 H3061 0.930 . S
C3071 C3064 1.409 . S
C3071 C3070 1.362 . S
H3072 C3078 0.930 . S
H3073 C3081 0.930 . S
H3074 C3082 0.930 . S
H3075 C3083 0.930 . S
H3076 C3086 0.930 . S
H3077 C3087 0.930 . S
C3078 H3072 0.930 . S
C3078 C3079 1.355 . S
C3078 C3080 1.415 . S
C3079 C3078 1.355 . S
C3079 C3081 1.419 . S
C3080 C3078 1.415 . S
C3080 C3085 1.425 . S
C3080 C3087 1.409 . S
C3081 H3073 0.930 . S
C3081 C3079 1.419 . S
C3081 C3082 1.362 . S
C3082 H3074 0.930 . S
C3082 C3081 1.362 . S
C3082 C3085 1.409 . S
C3083 H3075 0.930 . S
C3083 C3084 1.355 . S
C3083 C3085 1.415 . S
C3084 C3083 1.355 . S
C3084 C3086 1.419 . S
C3085 C3080 1.425 . S
C3085 C3082 1.409 . S
C3085 C3083 1.415 . S
C3086 H3076 0.930 . S
C3086 C3084 1.419 . S
C3086 C3087 1.362 . S
C3087 H3077 0.930 . S
C3087 C3080 1.409 . S
C3087 C3086 1.362 . S
H3088 C3094 0.930 . S
H3089 C3097 0.930 . S
H3090 C3098 0.930 . S
H3091 C3099 0.930 . S
H3092 C3102 0.930 . S
H3093 C3103 0.930 . S
C3094 H3088 0.930 . S
C3094 C3095 1.355 . S
C3094 C3096 1.415 . S
C3095 C3094 1.355 . S
C3095 C3097 1.419 . S
C3096 C3094 1.415 . S
C3096 C3101 1.425 . S
C3096 C3103 1.409 . S
C3097 H3089 0.930 . S
C3097 C3095 1.419 . S
C3097 C3098 1.362 . S
C3098 H3090 0.930 . S
C3098 C3097 1.362 . S
C3098 C3101 1.409 . S
C3099 H3091 0.930 . S
C3099 C3100 1.355 . S
C3099 C3101 1.415 . S
C3100 C3099 1.355 . S
C3100 C3102 1.419 . S
C3101 C3096 1.425 . S
C3101 C3098 1.409 . S
C3101 C3099 1.415 . S
C3102 H3092 0.930 . S
C3102 C3100 1.419 . S
C3102 C3103 1.362 . S
C3103 H3093 0.930 . S
C3103 C3096 1.409 . S
C3103 C3102 1.362 . S
H3104 C3110 0.930 . S
H3105 C3113 0.930 . S
H3106 C3114 0.930 . S
H3107 C3115 0.930 . S
H3108 C3118 0.930 . S
H3109 C3119 0.930 . S
C3110 H3104 0.930 . S
C3110 C3111 1.355 . S
C3110 C3112 1.415 . S
C3111 C3110 1.355 . S
C3111 C3113 1.419 . S
C3112 C3110 1.415 . S
C3112 C3117 1.425 . S
C3112 C3119 1.409 . S
C3113 H3105 0.930 . S
C3113 C3111 1.419 . S
C3113 C3114 1.362 . S
C3114 H3106 0.930 . S
C3114 C3113 1.362 . S
C3114 C3117 1.409 . S
C3115 H3107 0.930 . S
C3115 C3116 1.355 . S
C3115 C3117 1.415 . S
C3116 C3115 1.355 . S
C3116 C3118 1.419 . S
C3117 C3112 1.425 . S
C3117 C3114 1.409 . S
C3117 C3115 1.415 . S
C3118 H3108 0.930 . S
C3118 C3116 1.419 . S
C3118 C3119 1.362 . S
C3119 H3109 0.930 . S
C3119 C3112 1.409 . S
C3119 C3118 1.362 . S
H3120 C3126 0.930 . S
H3121 C3129 0.930 . S
H3122 C3130 0.930 . S
H3123 C3131 0.930 . S
H3124 C3134 0.930 . S
H3125 C3135 0.930 . S
C3126 H3120 0.930 . S
C3126 C3127 1.355 . S
C3126 C3128 1.415 . S
C3127 C3126 1.355 . S
C3127 C3129 1.419 . S
C3128 C3126 1.415 . S
C3128 C3133 1.425 . S
C3128 C3135 1.409 . S
C3129 H3121 0.930 . S
C3129 C3127 1.419 . S
C3129 C3130 1.362 . S
C3130 H3122 0.930 . S
C3130 C3129 1.362 . S
C3130 C3133 1.409 . S
C3131 H3123 0.930 . S
C3131 C3132 1.355 . S
C3131 C3133 1.415 . S
C3132 C3131 1.355 . S
C3132 C3134 1.419 . S
C3133 C3128 1.425 . S
C3133 C3130 1.409 . S
C3133 C3131 1.415 . S
C3134 H3124 0.930 . S
C3134 C3132 1.419 . S
C3134 C3135 1.362 . S
C3135 H3125 0.930 . S
C3135 C3128 1.409 . S
C3135 C3134 1.362 . S
H3136 C3142 0.930 . S
H3137 C3145 0.930 . S
H3138 C3146 0.930 . S
H3139 C3147 0.930 . S
H3140 C3150 0.930 . S
H3141 C3151 0.930 . S
C3142 H3136 0.930 . S
C3142 C3143 1.355 . S
C3142 C3144 1.415 . S
C3143 C3142 1.355 . S
C3143 C3145 1.419 . S
C3144 C3142 1.415 . S
C3144 C3149 1.425 . S
C3144 C3151 1.409 . S
C3145 H3137 0.930 . S
C3145 C3143 1.419 . S
C3145 C3146 1.362 . S
C3146 H3138 0.930 . S
C3146 C3145 1.362 . S
C3146 C3149 1.409 . S
C3147 H3139 0.930 . S
C3147 C3148 1.355 . S
C3147 C3149 1.415 . S
C3148 C3147 1.355 . S
C3148 C3150 1.419 . S
C3149 C3144 1.425 . S
C3149 C3146 1.409 . S
C3149 C3147 1.415 . S
C3150 H3140 0.930 . S
C3150 C3148 1.419 . S
C3150 C3151 1.362 . S
C3151 H3141 0.930 . S
C3151 C3144 1.409 . S
C3151 C3150 1.362 . S
H3152 C3158 0.930 . S
H3153 C3161 0.930 . S
H3154 C3162 0.930 . S
H3155 C3163 0.930 . S
H3156 C3166 0.930 . S
H3157 C3167 0.930 . S
C3158 H3152 0.930 . S
C3158 C3159 1.355 . S
C3158 C3160 1.415 . S
C3159 C3158 1.355 . S
C3159 C3161 1.419 . S
C3160 C3158 1.415 . S
C3160 C3165 1.425 . S
C3160 C3167 1.409 . S
C3161 H3153 0.930 . S
C3161 C3159 1.419 . S
C3161 C3162 1.362 . S
C3162 H3154 0.930 . S
C3162 C3161 1.362 . S
C3162 C3165 1.409 . S
C3163 H3155 0.930 . S
C3163 C3164 1.355 . S
C3163 C3165 1.415 . S
C3164 C3163 1.355 . S
C3164 C3166 1.419 . S
C3165 C3160 1.425 . S
C3165 C3162 1.409 . S
C3165 C3163 1.415 . S
C3166 H3156 0.930 . S
C3166 C3164 1.419 . S
C3166 C3167 1.362 . S
C3167 H3157 0.930 . S
C3167 C3160 1.409 . S
C3167 C3166 1.362 . S
H3168 C3174 0.930 . S
H3169 C3177 0.930 . S
H3170 C3178 0.930 . S
H3171 C3179 0.930 . S
H3172 C3182 0.930 . S
H3173 C3183 0.930 . S
C3174 H3168 0.930 . S
C3174 C3175 1.355 . S
C3174 C3176 1.415 . S
C3175 C3174 1.355 . S
C3175 C3177 1.419 . S
C3176 C3174 1.415 . S
C3176 C3181 1.425 . S
C3176 C3183 1.409 . S
C3177 H3169 0.930 . S
C3177 C3175 1.419 . S
C3177 C3178 1.362 . S
C3178 H3170 0.930 . S
C3178 C3177 1.362 . S
C3178 C3181 1.409 . S
C3179 H3171 0.930 . S
C3179 C3180 1.355 . S
C3179 C3181 1.415 . S
C3180 C3179 1.355 . S
C3180 C3182 1.419 . S
C3181 C3176 1.425 . S
C3181 C3178 1.409 . S
C3181 C3179 1.415 . S
C3182 H3172 0.930 . S
C3182 C3180 1.419 . S
C3182 C3183 1.362 . S
C3183 H3173 0.930 . S
C3183 C3176 1.409 . S
C3183 C3182 1.362 . S
H3184 C3190 0.930 . S
H3185 C3193 0.930 . S
H3186 C3194 0.930 . S
H3187 C3195 0.930 . S
H3188 C3198 0.930 . S
H3189 C3199 0.930 . S
C3190 H3184 0.930 . S
C3190 C3191 1.355 . S
C3190 C3192 1.415 . S
C3191 C3190 1.355 . S
C3191 C3193 1.419 . S
C3192 C3190 1.415 . S
C3192 C3197 1.425 . S
C3192 C3199 1.409 . S
C3193 H3185 0.930 . S
C3193 C3191 1.419 . S
C3193 C3194 1.362 . S
C3194 H3186 0.930 . S
C3194 C3193 1.362 . S
C3194 C3197 1.409 . S
C3195 H3187 0.930 . S
C3195 C3196 1.355 . S
C3195 C3197 1.415 . S
C3196 C3195 1.355 . S
C3196 C3198 1.419 . S
C3197 C3192 1.425 . S
C3197 C3194 1.409 . S
C3197 C3195 1.415 . S
C3198 H3188 0.930 . S
C3198 C3196 1.419 . S
C3198 C3199 1.362 . S
C3199 H3189 0.930 . S
C3199 C3192 1.409 . S
C3199 C3198 1.362 . S
H3200 C3206 0.930 . S
H3201 C3209 0.930 . S
H3202 C3210 0.930 . S
H3203 C3211 0.930 . S
H3204 C3214 0.930 . S
H3205 C3215 0.930 . S
C3206 H3200 0.930 . S
C3206 C3207 1.355 . S
C3206 C3208 1.415 . S
C3207 C3206 1.355 . S
C3207 C3209 1.419 . S
C3208 C3206 1.415 . S
C3208 C3213 1.425 . S
C3208 C3215 1.409 . S
C3209 H3201 0.930 . S
C3209 C3207 1.419 . S
C3209 C3210 1.362 . S
C3210 H3202 0.930 . S
C3210 C3209 1.362 . S
C3210 C3213 1.409 . S
C3211 H3203 0.930 . S
C3211 C3212 1.355 . S
C3211 C3213 1.415 . S
C3212 C3211 1.355 . S
C3212 C3214 1.419 . S
C3213 C3208 1.425 . S
C3213 C3210 1.409 . S
C3213 C3211 1.415 . S
C3214 H3204 0.930 . S
C3214 C3212 1.419 . S
C3214 C3215 1.362 . S
C3215 H3205 0.930 . S
C3215 C3208 1.409 . S
C3215 C3214 1.362 . S
H3216 C3222 0.930 . S
H3217 C3225 0.930 . S
H3218 C3226 0.930 . S
H3219 C3227 0.930 . S
H3220 C3230 0.930 . S
H3221 C3231 0.930 . S
C3222 H3216 0.930 . S
C3222 C3223 1.355 . S
C3222 C3224 1.415 . S
C3223 C3222 1.355 . S
C3223 C3225 1.419 . S
C3224 C3222 1.415 . S
C3224 C3229 1.425 . S
C3224 C3231 1.409 . S
C3225 H3217 0.930 . S
C3225 C3223 1.419 . S
C3225 C3226 1.362 . S
C3226 H3218 0.930 . S
C3226 C3225 1.362 . S
C3226 C3229 1.409 . S
C3227 H3219 0.930 . S
C3227 C3228 1.355 . S
C3227 C3229 1.415 . S
C3228 C3227 1.355 . S
C3228 C3230 1.419 . S
C3229 C3224 1.425 . S
C3229 C3226 1.409 . S
C3229 C3227 1.415 . S
C3230 H3220 0.930 . S
C3230 C3228 1.419 . S
C3230 C3231 1.362 . S
C3231 H3221 0.930 . S
C3231 C3224 1.409 . S
C3231 C3230 1.362 . S
H3232 C3238 0.930 . S
H3233 C3241 0.930 . S
H3234 C3242 0.930 . S
H3235 C3243 0.930 . S
H3236 C3246 0.930 . S
H3237 C3247 0.930 . S
C3238 H3232 0.930 . S
C3238 C3239 1.355 . S
C3238 C3240 1.415 . S
C3239 C3238 1.355 . S
C3239 C3241 1.419 . S
C3240 C3238 1.415 . S
C3240 C3245 1.425 . S
C3240 C3247 1.409 . S
C3241 H3233 0.930 . S
C3241 C3239 1.419 . S
C3241 C3242 1.362 . S
C3242 H3234 0.930 . S
C3242 C3241 1.362 . S
C3242 C3245 1.409 . S
C3243 H3235 0.930 . S
C3243 C3244 1.355 . S
C3243 C3245 1.415 . S
C3244 C3243 1.355 . S
C3244 C3246 1.419 . S
C3245 C3240 1.425 . S
C3245 C3242 1.409 . S
C3245 C3243 1.415 . S
C3246 H3236 0.930 . S
C3246 C3244 1.419 . S
C3246 C3247 1.362 . S
C3247 H3237 0.930 . S
C3247 C3240 1.409 . S
C3247 C3246 1.362 . S
H3248 C3254 0.930 . S
H3249 C3257 0.930 . S
H3250 C3258 0.930 . S
H3251 C3259 0.930 . S
H3252 C3262 0.930 . S
H3253 C3263 0.930 . S
C3254 H3248 0.930 . S
C3254 C3255 1.355 . S
C3254 C3256 1.415 . S
C3255 C3254 1.355 . S
C3255 C3257 1.419 . S
C3256 C3254 1.415 . S
C3256 C3261 1.425 . S
C3256 C3263 1.409 . S
C3257 H3249 0.930 . S
C3257 C3255 1.419 . S
C3257 C3258 1.362 . S
C3258 H3250 0.930 . S
C3258 C3257 1.362 . S
C3258 C3261 1.409 . S
C3259 H3251 0.930 . S
C3259 C3260 1.355 . S
C3259 C3261 1.415 . S
C3260 C3259 1.355 . S
C3260 C3262 1.419 . S
C3261 C3256 1.425 . S
C3261 C3258 1.409 . S
C3261 C3259 1.415 . S
C3262 H3252 0.930 . S
C3262 C3260 1.419 . S
C3262 C3263 1.362 . S
C3263 H3253 0.930 . S
C3263 C3256 1.409 . S
C3263 C3262 1.362 . S
H3264 C3270 0.930 . S
H3265 C3273 0.930 . S
H3266 C3274 0.930 . S
H3267 C3275 0.930 . S
H3268 C3278 0.930 . S
H3269 C3279 0.930 . S
C3270 H3264 0.930 . S
C3270 C3271 1.355 . S
C3270 C3272 1.415 . S
C3271 C3270 1.355 . S
C3271 C3273 1.419 . S
C3272 C3270 1.415 . S
C3272 C3277 1.425 . S
C3272 C3279 1.409 . S
C3273 H3265 0.930 . S
C3273 C3271 1.419 . S
C3273 C3274 1.362 . S
C3274 H3266 0.930 . S
C3274 C3273 1.362 . S
C3274 C3277 1.409 . S
C3275 H3267 0.930 . S
C3275 C3276 1.355 . S
C3275 C3277 1.415 . S
C3276 C3275 1.355 . S
C3276 C3278 1.419 . S
C3277 C3272 1.425 . S
C3277 C3274 1.409 . S
C3277 C3275 1.415 . S
C3278 H3268 0.930 . S
C3278 C3276 1.419 . S
C3278 C3279 1.362 . S
C3279 H3269 0.930 . S
C3279 C3272 1.409 . S
C3279 C3278 1.362 . S
H3280 C3286 0.930 . S
H3281 C3289 0.930 . S
H3282 C3290 0.930 . S
H3283 C3291 0.930 . S
H3284 C3294 0.930 . S
H3285 C3295 0.930 . S
C3286 H3280 0.930 . S
C3286 C3287 1.355 . S
C3286 C3288 1.415 . S
C3287 C3286 1.355 . S
C3287 C3289 1.419 . S
C3288 C3286 1.415 . S
C3288 C3293 1.425 . S
C3288 C3295 1.409 . S
C3289 H3281 0.930 . S
C3289 C3287 1.419 . S
C3289 C3290 1.362 . S
C3290 H3282 0.930 . S
C3290 C3289 1.362 . S
C3290 C3293 1.409 . S
C3291 H3283 0.930 . S
C3291 C3292 1.355 . S
C3291 C3293 1.415 . S
C3292 C3291 1.355 . S
C3292 C3294 1.419 . S
C3293 C3288 1.425 . S
C3293 C3290 1.409 . S
C3293 C3291 1.415 . S
C3294 H3284 0.930 . S
C3294 C3292 1.419 . S
C3294 C3295 1.362 . S
C3295 H3285 0.930 . S
C3295 C3288 1.409 . S
C3295 C3294 1.362 . S
H3296 C3302 0.930 . S
H3297 C3305 0.930 . S
H3298 C3306 0.930 . S
H3299 C3307 0.930 . S
H3300 C3310 0.930 . S
H3301 C3311 0.930 . S
C3302 H3296 0.930 . S
C3302 C3303 1.355 . S
C3302 C3304 1.415 . S
C3303 C3302 1.355 . S
C3303 C3305 1.419 . S
C3304 C3302 1.415 . S
C3304 C3309 1.425 . S
C3304 C3311 1.409 . S
C3305 H3297 0.930 . S
C3305 C3303 1.419 . S
C3305 C3306 1.362 . S
C3306 H3298 0.930 . S
C3306 C3305 1.362 . S
C3306 C3309 1.409 . S
C3307 H3299 0.930 . S
C3307 C3308 1.355 . S
C3307 C3309 1.415 . S
C3308 C3307 1.355 . S
C3308 C3310 1.419 . S
C3309 C3304 1.425 . S
C3309 C3306 1.409 . S
C3309 C3307 1.415 . S
C3310 H3300 0.930 . S
C3310 C3308 1.419 . S
C3310 C3311 1.362 . S
C3311 H3301 0.930 . S
C3311 C3304 1.409 . S
C3311 C3310 1.362 . S
H3312 C3318 0.930 . S
H3313 C3321 0.930 . S
H3314 C3322 0.930 . S
H3315 C3323 0.930 . S
H3316 C3326 0.930 . S
H3317 C3327 0.930 . S
C3318 H3312 0.930 . S
C3318 C3319 1.355 . S
C3318 C3320 1.415 . S
C3319 C3318 1.355 . S
C3319 C3321 1.419 . S
C3320 C3318 1.415 . S
C3320 C3325 1.425 . S
C3320 C3327 1.409 . S
C3321 H3313 0.930 . S
C3321 C3319 1.419 . S
C3321 C3322 1.362 . S
C3322 H3314 0.930 . S
C3322 C3321 1.362 . S
C3322 C3325 1.409 . S
C3323 H3315 0.930 . S
C3323 C3324 1.355 . S
C3323 C3325 1.415 . S
C3324 C3323 1.355 . S
C3324 C3326 1.419 . S
C3325 C3320 1.425 . S
C3325 C3322 1.409 . S
C3325 C3323 1.415 . S
C3326 H3316 0.930 . S
C3326 C3324 1.419 . S
C3326 C3327 1.362 . S
C3327 H3317 0.930 . S
C3327 C3320 1.409 . S
C3327 C3326 1.362 . S
H3328 C3334 0.930 . S
H3329 C3337 0.930 . S
H3330 C3338 0.930 . S
H3331 C3339 0.930 . S
H3332 C3342 0.930 . S
H3333 C3343 0.930 . S
C3334 H3328 0.930 . S
C3334 C3335 1.355 . S
C3334 C3336 1.415 . S
C3335 C3334 1.355 . S
C3335 C3337 1.419 . S
C3336 C3334 1.415 . S
C3336 C3341 1.425 . S
C3336 C3343 1.409 . S
C3337 H3329 0.930 . S
C3337 C3335 1.419 . S
C3337 C3338 1.362 . S
C3338 H3330 0.930 . S
C3338 C3337 1.362 . S
C3338 C3341 1.409 . S
C3339 H3331 0.930 . S
C3339 C3340 1.355 . S
C3339 C3341 1.415 . S
C3340 C3339 1.355 . S
C3340 C3342 1.419 . S
C3341 C3336 1.425 . S
C3341 C3338 1.409 . S
C3341 C3339 1.415 . S
C3342 H3332 0.930 . S
C3342 C3340 1.419 . S
C3342 C3343 1.362 . S
C3343 H3333 0.930 . S
C3343 C3336 1.409 . S
C3343 C3342 1.362 . S
H3344 C3350 0.930 . S
H3345 C3353 0.930 . S
H3346 C3354 0.930 . S
H3347 C3355 0.930 . S
H3348 C3358 0.930 . S
H3349 C3359 0.930 . S
C3350 H3344 0.930 . S
C3350 C3351 1.355 . S
C3350 C3352 1.415 . S
C3351 C3350 1.355 . S
C3351 C3353 1.419 . S
C3352 C3350 1.415 . S
C3352 C3357 1.425 . S
C3352 C3359 1.409 . S
C3353 H3345 0.930 . S
C3353 C3351 1.419 . S
C3353 C3354 1.362 . S
C3354 H3346 0.930 . S
C3354 C3353 1.362 . S
C3354 C3357 1.409 . S
C3355 H3347 0.930 . S
C3355 C3356 1.355 . S
C3355 C3357 1.415 . S
C3356 C3355 1.355 . S
C3356 C3358 1.419 . S
C3357 C3352 1.425 . S
C3357 C3354 1.409 . S
C3357 C3355 1.415 . S
C3358 H3348 0.930 . S
C3358 C3356 1.419 . S
C3358 C3359 1.362 . S
C3359 H3349 0.930 . S
C3359 C3352 1.409 . S
C3359 C3358 1.362 . S
H3360 C3366 0.930 . S
H3361 C3369 0.930 . S
H3362 C3370 0.930 . S
H3363 C3371 0.930 . S
H3364 C3374 0.930 . S
H3365 C3375 0.930 . S
C3366 H3360 0.930 . S
C3366 C3367 1.355 . S
C3366 C3368 1.415 . S
C3367 C3366 1.355 . S
C3367 C3369 1.419 . S
C3368 C3366 1.415 . S
C3368 C3373 1.425 . S
C3368 C3375 1.409 . S
C3369 H3361 0.930 . S
C3369 C3367 1.419 . S
C3369 C3370 1.362 . S
C3370 H3362 0.930 . S
C3370 C3369 1.362 . S
C3370 C3373 1.409 . S
C3371 H3363 0.930 . S
C3371 C3372 1.355 . S
C3371 C3373 1.415 . S
C3372 C3371 1.355 . S
C3372 C3374 1.419 . S
C3373 C3368 1.425 . S
C3373 C3370 1.409 . S
C3373 C3371 1.415 . S
C3374 H3364 0.930 . S
C3374 C3372 1.419 . S
C3374 C3375 1.362 . S
C3375 H3365 0.930 . S
C3375 C3368 1.409 . S
C3375 C3374 1.362 . S
H3376 C3382 0.930 . S
H3377 C3385 0.930 . S
H3378 C3386 0.930 . S
H3379 C3387 0.930 . S
H3380 C3390 0.930 . S
H3381 C3391 0.930 . S
C3382 H3376 0.930 . S
C3382 C3383 1.355 . S
C3382 C3384 1.415 . S
C3383 C3382 1.355 . S
C3383 C3385 1.419 . S
C3384 C3382 1.415 . S
C3384 C3389 1.425 . S
C3384 C3391 1.409 . S
C3385 H3377 0.930 . S
C3385 C3383 1.419 . S
C3385 C3386 1.362 . S
C3386 H3378 0.930 . S
C3386 C3385 1.362 . S
C3386 C3389 1.409 . S
C3387 H3379 0.930 . S
C3387 C3388 1.355 . S
C3387 C3389 1.415 . S
C3388 C3387 1.355 . S
C3388 C3390 1.419 . S
C3389 C3384 1.425 . S
C3389 C3386 1.409 . S
C3389 C3387 1.415 . S
C3390 H3380 0.930 . S
C3390 C3388 1.419 . S
C3390 C3391 1.362 . S
C3391 H3381 0.930 . S
C3391 C3384 1.409 . S
C3391 C3390 1.362 . S
H3392 C3398 0.930 . S
H3393 C3401 0.930 . S
H3394 C3402 0.930 . S
H3395 C3403 0.930 . S
H3396 C3406 0.930 . S
H3397 C3407 0.930 . S
C3398 H3392 0.930 . S
C3398 C3399 1.355 . S
C3398 C3400 1.415 . S
C3399 C3398 1.355 . S
C3399 C3401 1.419 . S
C3400 C3398 1.415 . S
C3400 C3405 1.425 . S
C3400 C3407 1.409 . S
C3401 H3393 0.930 . S
C3401 C3399 1.419 . S
C3401 C3402 1.362 . S
C3402 H3394 0.930 . S
C3402 C3401 1.362 . S
C3402 C3405 1.409 . S
C3403 H3395 0.930 . S
C3403 C3404 1.355 . S
C3403 C3405 1.415 . S
C3404 C3403 1.355 . S
C3404 C3406 1.419 . S
C3405 C3400 1.425 . S
C3405 C3402 1.409 . S
C3405 C3403 1.415 . S
C3406 H3396 0.930 . S
C3406 C3404 1.419 . S
C3406 C3407 1.362 . S
C3407 H3397 0.930 . S
C3407 C3400 1.409 . S
C3407 C3406 1.362 . S
H3408 C3414 0.930 . S
H3409 C3417 0.930 . S
H3410 C3418 0.930 . S
H3411 C3419 0.930 . S
H3412 C3422 0.930 . S
H3413 C3423 0.930 . S
C3414 H3408 0.930 . S
C3414 C3415 1.355 . S
C3414 C3416 1.415 . S
C3415 C3414 1.355 . S
C3415 C3417 1.419 . S
C3416 C3414 1.415 . S
C3416 C3421 1.425 . S
C3416 C3423 1.409 . S
C3417 H3409 0.930 . S
C3417 C3415 1.419 . S
C3417 C3418 1.362 . S
C3418 H3410 0.930 . S
C3418 C3417 1.362 . S
C3418 C3421 1.409 . S
C3419 H3411 0.930 . S
C3419 C3420 1.355 . S
C3419 C3421 1.415 . S
C3420 C3419 1.355 . S
C3420 C3422 1.419 . S
C3421 C3416 1.425 . S
C3421 C3418 1.409 . S
C3421 C3419 1.415 . S
C3422 H3412 0.930 . S
C3422 C3420 1.419 . S
C3422 C3423 1.362 . S
C3423 H3413 0.930 . S
C3423 C3416 1.409 . S
C3423 C3422 1.362 . S
H3424 C3430 0.930 . S
H3425 C3433 0.930 . S
H3426 C3434 0.930 . S
H3427 C3435 0.930 . S
H3428 C3438 0.930 . S
H3429 C3439 0.930 . S
C3430 H3424 0.930 . S
C3430 C3431 1.355 . S
C3430 C3432 1.415 . S
C3431 C3430 1.355 . S
C3431 C3433 1.419 . S
C3432 C3430 1.415 . S
C3432 C3437 1.425 . S
C3432 C3439 1.409 . S
C3433 H3425 0.930 . S
C3433 C3431 1.419 . S
C3433 C3434 1.362 . S
C3434 H3426 0.930 . S
C3434 C3433 1.362 . S
C3434 C3437 1.409 . S
C3435 H3427 0.930 . S
C3435 C3436 1.355 . S
C3435 C3437 1.415 . S
C3436 C3435 1.355 . S
C3436 C3438 1.419 . S
C3437 C3432 1.425 . S
C3437 C3434 1.409 . S
C3437 C3435 1.415 . S
C3438 H3428 0.930 . S
C3438 C3436 1.419 . S
C3438 C3439 1.362 . S
C3439 H3429 0.930 . S
C3439 C3432 1.409 . S
C3439 C3438 1.362 . S
H3440 C3446 0.930 . S
H3441 C3449 0.930 . S
H3442 C3450 0.930 . S
H3443 C3451 0.930 . S
H3444 C3454 0.930 . S
H3445 C3455 0.930 . S
C3446 H3440 0.930 . S
C3446 C3447 1.355 . S
C3446 C3448 1.415 . S
C3447 C3446 1.355 . S
C3447 C3449 1.419 . S
C3448 C3446 1.415 . S
C3448 C3453 1.425 . S
C3448 C3455 1.409 . S
C3449 H3441 0.930 . S
C3449 C3447 1.419 . S
C3449 C3450 1.362 . S
C3450 H3442 0.930 . S
C3450 C3449 1.362 . S
C3450 C3453 1.409 . S
C3451 H3443 0.930 . S
C3451 C3452 1.355 . S
C3451 C3453 1.415 . S
C3452 C3451 1.355 . S
C3452 C3454 1.419 . S
C3453 C3448 1.425 . S
C3453 C3450 1.409 . S
C3453 C3451 1.415 . S
C3454 H3444 0.930 . S
C3454 C3452 1.419 . S
C3454 C3455 1.362 . S
C3455 H3445 0.930 . S
C3455 C3448 1.409 . S
C3455 C3454 1.362 . S
H3456 C3462 0.930 . S
H3457 C3465 0.930 . S
H3458 C3466 0.930 . S
H3459 C3467 0.930 . S
H3460 C3470 0.930 . S
H3461 C3471 0.930 . S
C3462 H3456 0.930 . S
C3462 C3463 1.355 . S
C3462 C3464 1.415 . S
C3463 C3462 1.355 . S
C3463 C3465 1.419 . S
C3464 C3462 1.415 . S
C3464 C3469 1.425 . S
C3464 C3471 1.409 . S
C3465 H3457 0.930 . S
C3465 C3463 1.419 . S
C3465 C3466 1.362 . S
C3466 H3458 0.930 . S
C3466 C3465 1.362 . S
C3466 C3469 1.409 . S
C3467 H3459 0.930 . S
C3467 C3468 1.355 . S
C3467 C3469 1.415 . S
C3468 C3467 1.355 . S
C3468 C3470 1.419 . S
C3469 C3464 1.425 . S
C3469 C3466 1.409 . S
C3469 C3467 1.415 . S
C3470 H3460 0.930 . S
C3470 C3468 1.419 . S
C3470 C3471 1.362 . S
C3471 H3461 0.930 . S
C3471 C3464 1.409 . S
C3471 C3470 1.362 . S
H3472 C3478 0.930 . S
H3473 C3481 0.930 . S
H3474 C3482 0.930 . S
H3475 C3483 0.930 . S
H3476 C3486 0.930 . S
H3477 C3487 0.930 . S
C3478 H3472 0.930 . S
C3478 C3479 1.355 . S
C3478 C3480 1.415 . S
C3479 C3478 1.355 . S
C3479 C3481 1.419 . S
C3480 C3478 1.415 . S
C3480 C3485 1.425 . S
C3480 C3487 1.409 . S
C3481 H3473 0.930 . S
C3481 C3479 1.419 . S
C3481 C3482 1.362 . S
C3482 H3474 0.930 . S
C3482 C3481 1.362 . S
C3482 C3485 1.409 . S
C3483 H3475 0.930 . S
C3483 C3484 1.355 . S
C3483 C3485 1.415 . S
C3484 C3483 1.355 . S
C3484 C3486 1.419 . S
C3485 C3480 1.425 . S
C3485 C3482 1.409 . S
C3485 C3483 1.415 . S
C3486 H3476 0.930 . S
C3486 C3484 1.419 . S
C3486 C3487 1.362 . S
C3487 H3477 0.930 . S
C3487 C3480 1.409 . S
C3487 C3486 1.362 . S
H3488 C3494 0.930 . S
H3489 C3497 0.930 . S
H3490 C3498 0.930 . S
H3491 C3499 0.930 . S
H3492 C3502 0.930 . S
H3493 C3503 0.930 . S
C3494 H3488 0.930 . S
C3494 C3495 1.355 . S
C3494 C3496 1.415 . S
C3495 C3494 1.355 . S
C3495 C3497 1.419 . S
C3496 C3494 1.415 . S
C3496 C3501 1.425 . S
C3496 C3503 1.409 . S
C3497 H3489 0.930 . S
C3497 C3495 1.419 . S
C3497 C3498 1.362 . S
C3498 H3490 0.930 . S
C3498 C3497 1.362 . S
C3498 C3501 1.409 . S
C3499 H3491 0.930 . S
C3499 C3500 1.355 . S
C3499 C3501 1.415 . S
C3500 C3499 1.355 . S
C3500 C3502 1.419 . S
C3501 C3496 1.425 . S
C3501 C3498 1.409 . S
C3501 C3499 1.415 . S
C3502 H3492 0.930 . S
C3502 C3500 1.419 . S
C3502 C3503 1.362 . S
C3503 H3493 0.930 . S
C3503 C3496 1.409 . S
C3503 C3502 1.362 . S
C1591 C292 1.140 . S
C1596 N5 1.162 . S
C1607 C325 1.139 . S
C1612 N38 1.166 . S
C1623 N71 1.117 . S
C1628 C358 1.159 . S
C1639 N104 1.149 . S
C1644 C391 1.147 . S
C1655 N137 1.136 . S
C1660 C424 1.152 . S
C1671 C457 1.143 . S
C1676 N170 1.157 1_455 S
C1687 C490 1.140 . S
C1692 N203 1.165 . S
C1703 N236 1.165 1_655 S
C1708 C523 1.140 . S
C1719 N269 1.122 . S
C1724 C556 1.157 . S
C1735 N302 1.132 . S
C1740 C1579 1.154 . S
C1751 N335 1.147 . S
C1756 C1513 1.145 . S
C1767 N368 1.133 . S
C1772 C1546 1.154 . S
C1783 C589 1.157 . S
C1788 N401 1.122 . S
C1799 C622 1.140 . S
C1804 N434 1.165 1_556 S
C1815 N467 1.160 . S
C1820 C655 1.142 . S
C1831 N500 1.122 1_556 S
C1836 C1480 1.148 . S
C1847 N533 1.113 . S
C1852 C28 1.159 . S
C1863 C160 1.159 . S
C1868 N566 1.117 . S
C1879 N599 1.153 . S
C1884 C193 1.145 . S
C1895 C226 1.140 . S
C1900 N632 1.165 . S
C1911 N665 1.151 . S
C1916 C1051 1.146 . S
C1927 N698 1.117 . S
C1932 C886 1.159 . S
C1943 N731 1.128 . S
C1948 C919 1.153 . S
C1959 N764 1.105 1_545 S
C1964 C853 1.144 . S
C1975 C1084 1.157 . S
C1980 N797 1.119 . S
C1991 C1117 1.142 . S
C1996 N830 1.156 1_655 S
C2007 C1150 1.144 . S
C2012 N863 1.155 . S
C2023 N896 1.164 1_455 S
C2028 C1183 1.140 . S
C2039 C1216 1.141 . S
C2044 N929 1.161 . S
C2055 C1249 1.159 . S
C2060 N962 1.115 . S
C2071 N995 1.159 . S
C2076 C1282 1.142 . S
C2087 N1028 1.164 . S
C2092 C1315 1.140 . S
C2103 N1061 1.166 . S
C2108 C1348 1.139 . S
C2119 C787 1.143 . S
C2124 N1094 1.157 . S
C2135 C721 1.145 . S
C2140 N1127 1.153 . S
C2151 N1160 1.166 . S
C2156 C754 1.139 . S
C2167 N1193 1.139 . S
C2172 C1381 1.148 . S
C2183 N1226 1.116 . S
C2188 C1414 1.158 . S
C2199 C1447 1.149 . S
C2204 N1259 1.136 . S
C2215 N1292 1.145 . S
C2220 C688 1.146 . S
C2231 C820 1.157 . S
C2236 N1325 1.119 . S
C2247 N1358 1.165 . S
C2252 C952 1.139 . S
C2263 N1391 1.131 . S
C2268 C985 1.154 . S
C2279 C1018 1.146 . S
C2284 N1424 1.150 . S
C2295 N1457 1.105 1_565 S
C2300 C259 1.144 . S
C2311 N1490 1.124 . S
C2316 C94 1.154 . S
C2327 C127 1.157 . S
C2332 N1523 1.143 . S
C2343 C61 1.154 . S
C2348 N1556 1.125 . S
C2359 C17 1.737 . S
C2364 C83 1.732 . S
C2375 C50 1.726 . S
C2380 C116 1.702 . S
C2391 C215 1.729 . S
C2396 C149 1.705 . S
C2407 C182 1.705 . S
C2412 C248 1.696 . S
C2423 C413 1.735 . S
C2428 C281 1.735 . S
C2439 C314 1.729 . S
C2444 C446 1.705 . S
C2455 C479 1.733 . S
C2460 C347 1.710 . S
C2471 C512 1.735 . S
C2476 C380 1.735 . S
C2487 C1436 1.715 . S
C2492 C545 1.696 . S
C2503 C578 1.696 . S
C2508 C710 1.706 . S
C2519 C611 1.708 . S
C2524 C743 1.696 . S
C2535 C644 1.723 . S
C2540 C1337 1.700 . S
C2551 C1568 1.738 . S
C2556 C677 1.730 . S
C2567 C1469 1.702 . S
C2572 C776 1.698 . S
C2583 C875 1.735 . S
C2588 C809 1.713 . S
C2599 C908 1.721 . S
C2604 C842 1.738 . S
C2615 C1007 1.739 . S
C2620 C941 1.726 . S
C2631 C1040 1.696 . S
C2636 C974 1.706 . S
C2647 C1073 1.700 . S
C2652 C1205 1.699 . S
C2663 C1238 1.737 . S
C2668 C1106 1.733 . S
C2679 C1139 1.700 . S
C2684 C1271 1.699 . S
C2695 C1304 1.697 . S
C2700 C1172 1.703 . S
C2711 C1502 1.716 . S
C2716 C1370 1.696 . S
C2727 C1403 1.718 . S
C2732 C1535 1.697 . S
C2743 C437 1.692 . S
C2748 N14 1.638 . S
C2759 C470 1.702 . S
C2764 N47 1.586 . S
C2775 N80 1.644 . S
C2780 C503 1.691 . S
C2791 N113 1.646 . S
C2796 C404 1.691 . S
C2807 N146 1.622 . S
C2812 C1163 1.695 . S
C2823 C1064 1.698 . S
C2828 N179 1.603 . S
C2839 C1097 1.689 . S
C2844 N212 1.657 . S
C2855 N245 1.593 . S
C2860 C1130 1.700 . S
C2871 N278 1.657 . S
C2876 C833 1.689 . S
C2887 C866 1.690 . S
C2892 N311 1.652 . S
C2903 C899 1.702 . S
C2908 N344 1.589 . S
C2919 N377 1.650 . S
C2924 C800 1.691 . S
C2935 N410 1.601 . S
C2940 C239 1.700 . S
C2951 N443 1.653 . S
C2956 C140 1.689 . S
C2967 C173 1.695 . S
C2972 N476 1.628 . S
C2983 N509 1.588 . S
C2988 C206 1.701 . S
C2999 C1526 1.690 . S
C3004 N542 1.655 . S
C3015 N575 1.602 . S
C3020 C1394 1.698 . S
C3031 C1427 1.693 . S
C3036 N608 1.641 . S
C3047 N641 1.602 . S
C3052 C668 1.698 . S
C3063 C569 1.691 . S
C3068 N674 1.650 . S
C3079 N707 1.623 . S
C3084 C767 1.696 . S
C3095 N740 1.642 . S
C3100 C701 1.691 . S
C3111 C1328 1.701 . S
C3116 N773 1.591 . S
C3127 C1229 1.691 . S
C3132 N806 1.641 . S
C3143 C1262 1.695 . S
C3148 N839 1.619 . S
C3159 N872 1.655 . S
C3164 C1295 1.690 . S
C3175 N905 1.646 . S
C3180 C1196 1.692 . S
C3191 C371 1.701 . S
C3196 N938 1.592 . S
C3207 N971 1.653 . S
C3212 C272 1.689 . S
C3223 N1004 1.655 . S
C3228 C305 1.690 . S
C3239 N1037 1.648 . S
C3244 C338 1.690 . S
C3255 N1070 1.657 . S
C3260 C41 1.689 . S
C3271 N1103 1.594 . S
C3276 C74 1.700 . S
C3287 N1136 1.616 . S
C3292 C107 1.697 . S
C3303 N1169 1.607 . S
C3308 C8 1.697 . S
C3319 C1031 1.689 . S
C3324 N1202 1.657 . S
C3335 C932 1.701 . S
C3340 N1235 1.595 . S
C3351 N1268 1.646 . S
C3356 C965 1.692 . S
C3367 N1301 1.604 . S
C3372 C998 1.698 . S
C3383 C734 1.693 . S
C3388 N1334 1.640 . S
C3399 N1367 1.654 . S
C3404 C602 1.689 . S
C3415 C635 1.697 . S
C3420 N1400 1.608 . S
C3431 N1433 1.598 . S
C3436 C1460 1.699 . S
C3447 C1361 1.699 . S
C3452 N1466 1.603 . S
C3463 C1559 1.701 . S
C3468 N1499 1.589 . S
C3479 C1493 1.692 . S
C3484 N1532 1.643 . S
C3495 N1565 1.606 . S
C3500 C536 1.699 . S
