# Generated by pormake.
# Topology wjw, (5)-cn, num edge types: 1
# Building blocks:
#     Node 0, Type 0, BuildingBlock: XOMCOT_clean_sbu_1, # of connection points: 5
#     Node 1, Type 0, BuildingBlock: XOMCOT_clean_sbu_1, # of connection points: 5
#     Node 2, Type 0, BuildingBlock: XOMCOT_clean_sbu_1, # of connection points: 5
#     Node 3, Type 0, BuildingBlock: XOMCOT_clean_sbu_1, # of connection points: 5
#     Node 4, Type 0, BuildingBlock: XOMCOT_clean_sbu_1, # of connection points: 5
#     Node 5, Type 0, BuildingBlock: XOMCOT_clean_sbu_1, # of connection points: 5
#     Node 6, Type 0, BuildingBlock: XOMCOT_clean_sbu_1, # of connection points: 5
#     Node 7, Type 0, BuildingBlock: XOMCOT_clean_sbu_1, # of connection points: 5
#     Node 8, Type 0, BuildingBlock: XOMCOT_clean_sbu_1, # of connection points: 5
#     Node 9, Type 0, BuildingBlock: XOMCOT_clean_sbu_1, # of connection points: 5
#     Node 10, Type 0, BuildingBlock: XOMCOT_clean_sbu_1, # of connection points: 5
#     Node 11, Type 0, BuildingBlock: XOMCOT_clean_sbu_1, # of connection points: 5
#     Edge 12, Type (0, 0), BuildingBlock: XIVTED_clean_linker_0, # of connection points: 2
#     Edge 13, Type (0, 0), BuildingBlock: XIVTED_clean_linker_0, # of connection points: 2
#     Edge 14, Type (0, 0), BuildingBlock: XIVTED_clean_linker_0, # of connection points: 2
#     Edge 15, Type (0, 0), BuildingBlock: XIVTED_clean_linker_0, # of connection points: 2
#     Edge 16, Type (0, 0), BuildingBlock: XIVTED_clean_linker_0, # of connection points: 2
#     Edge 17, Type (0, 0), BuildingBlock: XIVTED_clean_linker_0, # of connection points: 2
#     Edge 18, Type (0, 0), BuildingBlock: XIVTED_clean_linker_0, # of connection points: 2
#     Edge 19, Type (0, 0), BuildingBlock: XIVTED_clean_linker_0, # of connection points: 2
#     Edge 20, Type (0, 0), BuildingBlock: XIVTED_clean_linker_0, # of connection points: 2
#     Edge 21, Type (0, 0), BuildingBlock: XIVTED_clean_linker_0, # of connection points: 2
#     Edge 22, Type (0, 0), BuildingBlock: XIVTED_clean_linker_0, # of connection points: 2
#     Edge 23, Type (0, 0), BuildingBlock: XIVTED_clean_linker_0, # of connection points: 2
#     Edge 24, Type (0, 0), BuildingBlock: XIVTED_clean_linker_0, # of connection points: 2
#     Edge 25, Type (0, 0), BuildingBlock: XIVTED_clean_linker_0, # of connection points: 2
#     Edge 26, Type (0, 0), BuildingBlock: XIVTED_clean_linker_0, # of connection points: 2
#     Edge 27, Type (0, 0), BuildingBlock: XIVTED_clean_linker_0, # of connection points: 2
#     Edge 28, Type (0, 0), BuildingBlock: XIVTED_clean_linker_0, # of connection points: 2
#     Edge 29, Type (0, 0), BuildingBlock: XIVTED_clean_linker_0, # of connection points: 2
#     Edge 30, Type (0, 0), BuildingBlock: XIVTED_clean_linker_0, # of connection points: 2
#     Edge 31, Type (0, 0), BuildingBlock: XIVTED_clean_linker_0, # of connection points: 2
#     Edge 32, Type (0, 0), BuildingBlock: XIVTED_clean_linker_0, # of connection points: 2
#     Edge 33, Type (0, 0), BuildingBlock: XIVTED_clean_linker_0, # of connection points: 2
#     Edge 34, Type (0, 0), BuildingBlock: XIVTED_clean_linker_0, # of connection points: 2
#     Edge 35, Type (0, 0), BuildingBlock: XIVTED_clean_linker_0, # of connection points: 2
#     Edge 36, Type (0, 0), BuildingBlock: XIVTED_clean_linker_0, # of connection points: 2
#     Edge 37, Type (0, 0), BuildingBlock: XIVTED_clean_linker_0, # of connection points: 2
#     Edge 38, Type (0, 0), BuildingBlock: XIVTED_clean_linker_0, # of connection points: 2
#     Edge 39, Type (0, 0), BuildingBlock: XIVTED_clean_linker_0, # of connection points: 2
#     Edge 40, Type (0, 0), BuildingBlock: XIVTED_clean_linker_0, # of connection points: 2
#     Edge 41, Type (0, 0), BuildingBlock: XIVTED_clean_linker_0, # of connection points: 2
# Relax obj value: 0.184
# Max RMSD: 0.165
# Mean RMSD: 0.161
data_MOF--net-wjw--node1-XOMCOT_clean_sbu_1--edge1-XIVTED_clean_linker_0
_symmetry_space_group_name_H-M    P1
_symmetry_Int_Tables_number       1
_symmetry_cell_setting            triclinic
loop_
_symmetry_equiv_pos_as_xyz
'x, y, z'
_cell_length_a     40.487261
_cell_length_b     40.475992
_cell_length_c     37.026147
_cell_angle_alpha  90.08433
_cell_angle_beta   89.942812
_cell_angle_gamma 120.02086
loop_
_atom_site_label
_atom_site_type_symbol
_atom_site_fract_x
_atom_site_fract_y
_atom_site_fract_z
_atom_type_partial_charge
C0 C 0.19828 0.38866 0.28276 0.0
C1 C 0.21842 0.3695 0.28133 0.0
N2 N 0.20632 0.34393 0.30848 0.0
N3 N 0.17353 0.37513 0.3106 0.0
C4 C 0.17883 0.34763 0.32544 0.0
H5 H 0.2024 0.41196 0.26549 0.0
Co6 Co 0.14247 0.39404 0.32738 0.0
C7 C 0.11877 0.35178 0.39711 0.0
O8 O 0.08229 0.3362 0.38956 0.0
N9 N 0.11175 0.41341 0.34472 0.0
C10 C 0.0944 0.44754 0.3787 0.0
C11 C 0.1159 0.42997 0.37739 0.0
C12 C 0.08719 0.42104 0.32669 0.0
N13 N 0.0764 0.44193 0.34688 0.0
O14 O 0.09827 0.34751 0.31313 0.0
H15 H 0.13532 0.43142 0.39817 0.0
H16 H 0.07948 0.41377 0.29863 0.0
O17 O 0.1436 0.37487 0.37491 0.0
C18 C 0.09603 0.34967 0.27894 0.0
O19 O 0.121 0.38127 0.26268 0.0
N20 N 0.18568 0.4404 0.3375 0.0
C21 C 0.25033 0.51205 0.34214 0.0
C22 C 0.24755 0.48155 0.3625 0.0
C23 C 0.2147 0.44569 0.35986 0.0
C24 C 0.18828 0.4696 0.31716 0.0
C25 C 0.22012 0.50586 0.31948 0.0
H26 H 0.21315 0.42206 0.37477 0.0
H27 H 0.16565 0.46447 0.29852 0.0
H28 H 0.16333 0.33097 0.34871 0.0
H29 H 0.2414 0.37524 0.26284 0.0
H30 H 0.09315 0.46439 0.40084 0.0
H31 H 0.27063 0.48535 0.38 0.0
H32 H 0.22168 0.52853 0.30275 0.0
C33 C 0.81532 0.18575 0.61668 0.0
C34 C 0.85449 0.20321 0.61432 0.0
N35 N 0.86702 0.18932 0.64074 0.0
N36 N 0.80316 0.16096 0.64448 0.0
C37 C 0.83522 0.16326 0.6581 0.0
H38 H 0.7971 0.19235 0.60058 0.0
Co39 Co 0.75375 0.13551 0.66396 0.0
C40 C 0.76937 0.11191 0.7369 0.0
O41 O 0.74017 0.07696 0.73648 0.0
N42 N 0.70428 0.11061 0.68414 0.0
C43 C 0.65796 0.09842 0.72329 0.0
C44 C 0.69632 0.11955 0.7169 0.0
C45 C 0.66979 0.08416 0.67077 0.0
N46 N 0.64105 0.07598 0.69441 0.0
O47 O 0.74837 0.0879 0.64862 0.0
H48 H 0.7171 0.14092 0.73487 0.0
H49 H 0.6658 0.07136 0.6443 0.0
O50 O 0.77526 0.13418 0.71034 0.0
C51 C 0.74122 0.08693 0.61492 0.0
O52 O 0.73597 0.11401 0.6015 0.0
N53 N 0.75845 0.18239 0.67489 0.0
C54 C 0.76581 0.2543 0.67831 0.0
C55 C 0.7888 0.24543 0.69986 0.0
C56 C 0.78492 0.20922 0.6975 0.0
C57 C 0.73557 0.19036 0.65419 0.0
C58 C 0.73863 0.22611 0.65559 0.0
H59 H 0.80411 0.20338 0.71275 0.0
H60 H 0.71545 0.16898 0.63579 0.0
H61 H 0.83544 0.1471 0.6812 0.0
H62 H 0.87242 0.22617 0.59611 0.0
H63 H 0.64348 0.10035 0.7471 0.0
H64 H 0.81049 0.26667 0.71734 0.0
H65 H 0.72009 0.23172 0.6388 0.0
C66 C 0.6097 0.8102 0.93881 0.0
C67 C 0.62642 0.84911 0.93473 0.0
N68 N 0.65474 0.86606 0.95915 0.0
N69 N 0.62721 0.80264 0.96585 0.0
C70 C 0.65491 0.83726 0.97731 0.0
H71 H 0.58489 0.7888 0.92447 0.0
Co72 Co 0.60997 0.75479 0.98699 0.0
C73 C 0.65976 0.77791 0.05227 0.0
O74 O 0.67335 0.75549 0.04367 0.0
N75 N 0.59205 0.70676 1.00875 0.0
C76 C 0.56622 0.66141 0.0504 0.0
C77 C 0.58063 0.69936 0.04351 0.0
C78 C 0.58355 0.67236 0.99481 0.0
N79 N 0.56799 0.64421 0.01988 0.0
O80 O 0.65354 0.75384 0.96823 0.0
H81 H 0.58128 0.72002 0.06247 0.0
H82 H 0.58803 0.66797 0.96681 0.0
O83 O 0.63548 0.77968 0.0317 0.0
C84 C 0.6458 0.74474 0.93502 0.0
O85 O 0.61212 0.73682 0.92288 0.0
N86 N 0.56601 0.75444 1.00138 0.0
C87 C 0.49729 0.75348 1.00871 0.0
C88 C 0.52993 0.78072 0.02721 0.0
C89 C 0.56428 0.78081 0.02308 0.0
C90 C 0.53458 0.72759 0.98363 0.0
C91 C 0.49984 0.72639 0.9871 0.0
H92 H 0.58965 0.80299 0.03595 0.0
H93 H 0.53693 0.70785 0.96554 0.0
H94 H 0.67314 0.84152 1.00024 0.0
H95 H 0.61738 0.86377 0.91629 0.0
H96 H 0.55381 0.64728 0.07572 0.0
H97 H 0.52909 0.80219 0.04406 0.0
H98 H 0.47566 0.70548 0.97164 0.0
C99 C 0.80586 0.62499 0.27413 0.0
C100 C 0.78407 0.64231 0.27282 0.0
N101 N 0.7942 0.667 0.30064 0.0
N102 N 0.82962 0.63855 0.30269 0.0
C103 C 0.82228 0.66462 0.31794 0.0
H104 H 0.80265 0.60198 0.25687 0.0
Co105 Co 0.8575 0.61657 0.32069 0.0
C106 C 0.88654 0.65855 0.39097 0.0
O107 O 0.92155 0.66539 0.38602 0.0
N108 N 0.8846 0.59352 0.33893 0.0
C109 C 0.89763 0.5567 0.37371 0.0
C110 C 0.87786 0.57598 0.37134 0.0
C111 C 0.90897 0.58467 0.32214 0.0
N112 N 0.91714 0.56214 0.34281 0.0
O113 O 0.90366 0.65905 0.30292 0.0
H114 H 0.85824 0.57564 0.39139 0.0
H115 H 0.91878 0.59268 0.29464 0.0
O116 O 0.86119 0.64046 0.36706 0.0
C117 C 0.90353 0.65229 0.2692 0.0
O118 O 0.87612 0.61972 0.25647 0.0
N119 N 0.81202 0.57405 0.33398 0.0
C120 C 0.74076 0.50903 0.33939 0.0
C121 C 0.75045 0.54058 0.36179 0.0
C122 C 0.78635 0.57319 0.35843 0.0
C123 C 0.80339 0.54337 0.31269 0.0
C124 C 0.76795 0.51044 0.31506 0.0
H125 H 0.79272 0.59807 0.37431 0.0
H126 H 0.82385 0.54504 0.29291 0.0
H127 H 0.83504 0.67947 0.34284 0.0
H128 H 0.76116 0.63573 0.25399 0.0
H129 H 0.89704 0.53921 0.39608 0.0
H130 H 0.72996 0.54065 0.38058 0.0
H131 H 0.7617 0.4865 0.29761 0.0
C132 C 0.19013 0.79837 0.60964 0.0
C133 C 0.15113 0.77627 0.60621 0.0
N134 N 0.13479 0.78952 0.62941 0.0
N135 N 0.19836 0.82521 0.63514 0.0
C136 C 0.16403 0.81957 0.64608 0.0
H137 H 0.21106 0.79337 0.5964 0.0
Co138 Co 0.24626 0.85499 0.65675 0.0
C139 C 0.22439 0.88519 0.72098 0.0
O140 O 0.25087 0.92081 0.71532 0.0
N141 N 0.29429 0.8841 0.67893 0.0
C142 C 0.3391 0.90288 0.72109 0.0
C143 C 0.30099 0.88057 0.714 0.0
C144 C 0.32925 0.90844 0.66503 0.0
N145 N 0.35713 0.92058 0.69039 0.0
O146 O 0.2499 0.89965 0.63561 0.0
H147 H 0.27963 0.86172 0.73309 0.0
H148 H 0.33422 0.91652 0.63686 0.0
O149 O 0.22128 0.85905 0.69972 0.0
C150 C 0.25903 0.89909 0.60272 0.0
O151 O 0.26605 0.8721 0.59241 0.0
N152 N 0.24357 0.8108 0.67384 0.0
C153 C 0.23676 0.7397 0.68276 0.0
C154 C 0.21269 0.74923 0.70174 0.0
C155 C 0.21633 0.78507 0.69664 0.0
C156 C 0.26817 0.80256 0.65645 0.0
C157 C 0.26539 0.76716 0.66064 0.0
H158 H 0.19595 0.79115 0.70936 0.0
H159 H 0.2889 0.82305 0.63786 0.0
H160 H 0.16024 0.83506 0.66797 0.0
H161 H 0.13599 0.7511 0.58947 0.0
H162 H 0.35267 0.90456 0.74674 0.0
H163 H 0.18999 0.7285 0.71874 0.0
H164 H 0.28474 0.76093 0.64585 0.0
C165 C 0.39935 0.19012 0.9478 0.0
C166 C 0.38067 0.15083 0.94533 0.0
N167 N 0.35226 0.13635 0.96985 0.0
N168 N 0.38267 0.20028 0.97368 0.0
C169 C 0.35375 0.16689 0.98613 0.0
H170 H 0.42464 0.20993 0.93301 0.0
Co171 Co 0.40005 0.24929 0.99262 0.0
C172 C 0.3506 0.22837 0.05848 0.0
O173 O 0.3382 0.25204 0.05112 0.0
N174 N 0.41773 0.29822 1.01251 0.0
C175 C 0.44349 0.34511 0.05277 0.0
C176 C 0.42907 0.30694 0.04717 0.0
C177 C 0.42627 0.33209 0.9973 0.0
N178 N 0.44179 0.36118 0.02151 0.0
O179 O 0.35656 0.24923 0.97269 0.0
H180 H 0.42845 0.28704 0.06698 0.0
H181 H 0.42192 0.33544 0.96902 0.0
O182 O 0.37433 0.22615 0.03747 0.0
C183 C 0.36471 0.25686 0.93931 0.0
O184 O 0.39854 0.26423 0.92807 0.0
N185 N 0.44403 0.25057 1.00824 0.0
C186 C 0.51401 0.25568 0.02042 0.0
C187 C 0.48115 0.22776 0.0381 0.0
C188 C 0.44613 0.22566 0.03161 0.0
C189 C 0.47558 0.27756 0.99072 0.0
C190 C 0.51096 0.28094 0.99673 0.0
H191 H 0.42073 0.20338 0.04437 0.0
H192 H 0.47298 0.29611 0.97134 0.0
H193 H 0.33464 0.16477 1.00756 0.0
H194 H 0.38879 0.13426 0.92837 0.0
H195 H 0.45595 0.36015 0.07773 0.0
H196 H 0.48246 0.20754 0.05632 0.0
H197 H 0.53546 0.30221 0.98186 0.0
C198 C 0.59522 0.78774 0.40882 0.0
C199 C 0.61239 0.76599 0.41263 0.0
N200 N 0.64701 0.78455 0.39698 0.0
N201 N 0.61845 0.81967 0.38995 0.0
C202 C 0.65058 0.81764 0.38493 0.0
H203 H 0.56709 0.77963 0.41851 0.0
Co204 Co 0.61026 0.85903 0.37157 0.0
C205 C 0.63181 0.82905 0.30762 0.0
O206 O 0.60973 0.7945 0.32038 0.0
N207 N 0.60308 0.89835 0.35432 0.0
C208 C 0.60864 0.94728 0.3224 0.0
C209 C 0.62378 0.92405 0.32863 0.0
C210 C 0.576 0.90704 0.3639 0.0
N211 N 0.57856 0.93656 0.34456 0.0
O212 O 0.65773 0.89602 0.39272 0.0
H213 H 0.64824 0.92578 0.31505 0.0
H214 H 0.55419 0.89134 0.38392 0.0
O215 O 0.63478 0.85803 0.32484 0.0
C216 C 0.65068 0.89557 0.42642 0.0
O217 O 0.6159 0.87198 0.43784 0.0
N218 N 0.56149 0.8237 0.3547 0.0
C219 C 0.48695 0.76697 0.34139 0.0
C220 C 0.51254 0.78406 0.31268 0.0
C221 C 0.54953 0.81368 0.31985 0.0
C222 C 0.53556 0.81076 0.38207 0.0
C223 C 0.49821 0.78189 0.37619 0.0
H224 H 0.56836 0.82787 0.29742 0.0
H225 H 0.54449 0.82191 0.40906 0.0
H226 H 0.6749 0.83859 0.36969 0.0
H227 H 0.59963 0.73789 0.42464 0.0
H228 H 0.61903 0.97039 0.30307 0.0
H229 H 0.50413 0.77435 0.28518 0.0
H230 H 0.47897 0.77008 0.39896 0.0
C231 C 0.81476 0.61087 0.74576 0.0
C232 C 0.85391 0.62871 0.74813 0.0
N233 N 0.86893 0.65724 0.72379 0.0
N234 N 0.80514 0.62781 0.71977 0.0
C235 C 0.83879 0.65647 0.70743 0.0
H236 H 0.79465 0.58543 0.76019 0.0
Co237 Co 0.75643 0.60802 0.69956 0.0
C238 C 0.77564 0.65572 0.63247 0.0
O239 O 0.74943 0.66523 0.63808 0.0
N240 N 0.7076 0.5875 0.67878 0.0
C241 C 0.66127 0.55886 0.63834 0.0
C242 C 0.69955 0.5746 0.64448 0.0
C243 C 0.67329 0.57861 0.69322 0.0
N244 N 0.64452 0.56133 0.6689 0.0
O245 O 0.75325 0.65033 0.71852 0.0
H246 H 0.72011 0.57544 0.6253 0.0
H247 H 0.66946 0.58426 0.72102 0.0
O248 O 0.77971 0.63414 0.65482 0.0
C249 C 0.74551 0.64305 0.752 0.0
O250 O 0.73975 0.61018 0.76446 0.0
N251 N 0.75865 0.56542 0.68477 0.0
C252 C 0.76402 0.5 0.67792 0.0
C253 C 0.78796 0.5327 0.65771 0.0
C254 C 0.78504 0.56546 0.66177 0.0
C255 C 0.73439 0.53357 0.70364 0.0
C256 C 0.73644 0.50043 0.70049 0.0
H257 H 0.80521 0.59118 0.64788 0.0
H258 H 0.71433 0.53448 0.72236 0.0
H259 H 0.84142 0.67456 0.68487 0.0
H260 H 0.87005 0.62007 0.76506 0.0
H261 H 0.6467 0.54532 0.61349 0.0
H262 H 0.80992 0.53353 0.64036 0.0
H263 H 0.71718 0.47562 0.71624 0.0
C264 C 0.19626 0.80995 0.0717 0.0
C265 C 0.21834 0.8491 0.07443 0.0
N266 N 0.20681 0.86482 0.04892 0.0
N267 N 0.17082 0.80106 0.04471 0.0
C268 C 0.17765 0.83514 0.03178 0.0
H269 H 0.19996 0.78929 0.08701 0.0
Co270 Co 0.13907 0.75227 0.02525 0.0
C271 C 0.1104 0.77327 0.95909 0.0
O272 O 0.07429 0.74849 0.9651 0.0
N273 N 0.10786 0.70342 1.0051 0.0
C274 C 0.08741 0.65614 0.96531 0.0
C275 C 0.11014 0.69459 0.9704 0.0
C276 C 0.08368 0.66942 0.02076 0.0
N277 N 0.07059 0.63995 0.99694 0.0
O278 O 0.09565 0.75185 0.0462 0.0
H279 H 0.12885 0.71459 0.95032 0.0
H280 H 0.07695 0.6663 0.04926 0.0
O281 O 0.13589 0.77579 0.98088 0.0
C282 C 0.09646 0.74349 0.07931 0.0
O283 O 0.12261 0.73524 0.08947 0.0
N284 N 0.18189 0.75165 1.00871 0.0
C285 C 0.24898 0.75024 0.9976 0.0
C286 C 0.24255 0.77696 0.97948 0.0
C287 C 0.2086 0.77724 0.98548 0.0
C288 C 0.18756 0.72539 0.02622 0.0
C289 C 0.22074 0.72393 0.02083 0.0
H290 H 0.2046 0.79895 0.97271 0.0
H291 H 0.16663 0.70629 0.04549 0.0
H292 H 0.16248 0.83839 1.00934 0.0
H293 H 0.24254 0.86467 0.09218 0.0
H294 H 0.08539 0.64121 0.94044 0.0
H295 H 0.26382 0.79785 0.96148 0.0
H296 H 0.22496 0.70349 0.03603 0.0
C297 C 0.38149 0.19477 0.41354 0.0
C298 C 0.36185 0.21435 0.41626 0.0
N299 N 0.33619 0.20283 0.38922 0.0
N300 N 0.36816 0.17086 0.38502 0.0
C301 C 0.34023 0.17609 0.37111 0.0
H302 H 0.40546 0.1993 0.43 0.0
Co303 Co 0.38998 0.14337 0.36535 0.0
C304 C 0.34467 0.11372 0.29738 0.0
O305 O 0.33666 0.07847 0.30327 0.0
N306 N 0.41237 0.11642 0.34498 0.0
C307 C 0.4422 0.09987 0.30468 0.0
C308 C 0.42698 0.12282 0.31126 0.0
C309 C 0.41976 0.08968 0.35867 0.0
N310 N 0.43767 0.07885 0.33438 0.0
O311 O 0.34822 0.09711 0.38336 0.0
H312 H 0.42716 0.14347 0.29265 0.0
H313 H 0.41222 0.07843 0.38579 0.0
O314 O 0.36475 0.13984 0.32001 0.0
C315 C 0.35574 0.09696 0.4168 0.0
O316 O 0.38853 0.12435 0.42916 0.0
N317 N 0.43194 0.18903 0.35165 0.0
C318 C 0.49626 0.26079 0.34618 0.0
C319 C 0.46388 0.25128 0.32515 0.0
C320 C 0.43165 0.21511 0.32852 0.0
C321 C 0.46345 0.19745 0.37148 0.0
C322 C 0.49606 0.23314 0.36903 0.0
H323 H 0.40611 0.20884 0.31389 0.0
H324 H 0.46268 0.17663 0.39027 0.0
H325 H 0.32397 0.16163 0.34731 0.0
H326 H 0.36777 0.23706 0.43518 0.0
H327 H 0.45655 0.09955 0.28011 0.0
H328 H 0.46287 0.2721 0.30754 0.0
H329 H 0.52065 0.23925 0.38538 0.0
C330 C 0.18653 0.37234 0.75336 0.0
C331 C 0.14739 0.34983 0.75529 0.0
N332 N 0.13558 0.32505 0.72743 0.0
N333 N 0.19935 0.36174 0.72447 0.0
C334 C 0.16769 0.33246 0.70966 0.0
H335 H 0.20425 0.39639 0.7706 0.0
Co336 Co 0.24888 0.38776 0.70521 0.0
C337 C 0.23584 0.34858 0.6331 0.0
O338 O 0.2653 0.3434 0.63548 0.0
N339 N 0.29837 0.41429 0.68509 0.0
C340 C 0.34392 0.44941 0.64562 0.0
C341 C 0.30572 0.43212 0.65284 0.0
C342 C 0.33308 0.42174 0.69726 0.0
N343 N 0.36132 0.44288 0.67339 0.0
O344 O 0.25652 0.34694 0.72011 0.0
H345 H 0.28453 0.43279 0.63557 0.0
H346 H 0.33753 0.41165 0.72283 0.0
O347 O 0.22843 0.36492 0.65868 0.0
C348 C 0.26397 0.35365 0.75371 0.0
O349 O 0.26771 0.38544 0.76714 0.0
N350 N 0.24197 0.42861 0.69482 0.0
C351 C 0.23184 0.49142 0.6918 0.0
C352 C 0.21 0.45952 0.66981 0.0
C353 C 0.21524 0.42803 0.672 0.0
C354 C 0.2636 0.45943 0.7161 0.0
C355 C 0.25913 0.49128 0.71492 0.0
H356 H 0.19701 0.40293 0.65631 0.0
H357 H 0.28394 0.45885 0.73463 0.0
H358 H 0.16785 0.31764 0.68543 0.0
H359 H 0.12893 0.35323 0.77424 0.0
H360 H 0.35793 0.46615 0.62185 0.0
H361 H 0.18829 0.45846 0.65199 0.0
H362 H 0.27681 0.51553 0.73204 0.0
C363 C 0.79258 0.18764 0.07336 0.0
C364 C 0.76711 0.14926 0.0697 0.0
N365 N 0.78282 0.13414 0.04796 0.0
N366 N 0.82404 0.19681 0.05362 0.0
C367 C 0.81751 0.16345 0.03901 0.0
H368 H 0.78797 0.20781 0.08855 0.0
Co369 Co 0.86489 0.24606 0.0456 0.0
C370 C 0.88235 0.24694 0.96756 0.0
O371 O 0.8907 0.28274 0.96606 0.0
N372 N 0.90709 0.29607 0.03803 0.0
C373 C 0.96644 0.34079 0.02361 0.0
C374 C 0.94195 0.30236 0.0281 0.0
C375 C 0.91176 0.33169 0.04048 0.0
N376 N 0.94743 0.35917 0.03155 0.0
O377 O 0.89858 0.23259 0.06889 0.0
H378 H 0.9489 0.28017 0.02332 0.0
H379 H 0.88959 0.33789 0.04753 0.0
O380 O 0.87298 0.22938 0.99787 0.0
C381 C 0.89435 0.23288 0.10301 0.0
O382 O 0.86746 0.23902 0.11542 0.0
N383 N 0.83022 0.25917 0.02669 0.0
C384 C 0.76582 0.26609 0.01659 0.0
C385 C 0.775 0.24576 0.99175 0.0
C386 C 0.80701 0.24204 0.99762 0.0
C387 C 0.82159 0.27903 0.05096 0.0
C388 C 0.79005 0.28359 0.04606 0.0
H389 H 0.81076 0.22259 0.98054 0.0
H390 H 0.83773 0.28899 0.07577 0.0
H391 H 0.83716 0.16089 0.02103 0.0
H392 H 0.73898 0.13379 0.08167 0.0
H393 H 0.99589 0.35424 0.01492 0.0
H394 H 0.75644 0.23108 0.96911 0.0
H395 H 0.78314 0.2982 0.06665 0.0
H396 H 0.96751 0.24833 0.08961 0.0
H397 H 0.02252 0.29554 0.29754 0.0
H398 H 0.88538 0.21993 0.17532 0.0
H399 H 0.10312 0.3337 0.20956 0.0
H400 H 0.97204 0.25325 0.25527 0.0
H401 H 0.01722 0.26442 0.13505 0.0
C402 C 0.95976 0.24453 0.11794 0.0
C403 C 0.9225 0.23356 0.12876 0.0
C404 C 0.00096 0.27037 0.24542 0.0
C405 C 0.97913 0.25248 0.18085 0.0
C406 C 0.0297 0.29432 0.26956 0.0
C407 C 0.06671 0.31857 0.25677 0.0
C408 C 0.0096 0.27077 0.20847 0.0
C409 C 0.07467 0.31598 0.22031 0.0
C410 C 0.98815 0.25395 0.14392 0.0
C411 C 0.91399 0.22906 0.16585 0.0
N412 N 0.04632 0.29293 0.19739 0.0
N413 N 0.94218 0.23916 0.19058 0.0
H414 H 0.70962 0.96897 0.41588 0.0
H415 H 0.72043 0.01174 0.62791 0.0
H416 H 0.6541 0.88242 0.49748 0.0
H417 H 0.76097 0.09752 0.54453 0.0
H418 H 0.71032 0.96373 0.58171 0.0
H419 H 0.74367 0.01597 0.46378 0.0
C420 C 0.70547 0.95969 0.44377 0.0
C421 C 0.67863 0.92206 0.45287 0.0
C422 C 0.72203 0.99323 0.5737 0.0
C423 C 0.71672 0.97537 0.50765 0.0
C424 C 0.72788 0.02053 0.60007 0.0
C425 C 0.74074 0.05834 0.58983 0.0
C426 C 0.72943 0.0041 0.5371 0.0
C427 C 0.75013 0.06841 0.55342 0.0
C428 C 0.7246 0.9865 0.47114 0.0
C429 C 0.67412 0.91144 0.48943 0.0
N430 N 0.74392 0.04145 0.52837 0.0
N431 N 0.69249 0.93803 0.51551 0.0
H432 H 0.70187 0.72672 0.94888 0.0
H433 H 0.72677 0.6986 0.738 0.0
H434 H 0.64991 0.75677 0.86301 0.0
H435 H 0.7576 0.64752 0.8241 0.0
H436 H 0.71264 0.73428 0.78338 0.0
H437 H 0.73683 0.71187 0.90331 0.0
C438 C 0.69849 0.73096 0.92054 0.0
C439 C 0.67258 0.74232 0.90958 0.0
C440 C 0.72306 0.71566 0.79223 0.0
C441 C 0.71203 0.72541 0.85754 0.0
C442 C 0.73123 0.69548 0.76634 0.0
C443 C 0.74266 0.66965 0.77741 0.0
C444 C 0.72669 0.71004 0.82925 0.0
C445 C 0.74809 0.66663 0.81447 0.0
C446 C 0.71821 0.72232 0.89454 0.0
C447 C 0.66913 0.74737 0.87253 0.0
N448 N 0.73974 0.68625 0.83905 0.0
N449 N 0.68829 0.73854 0.84785 0.0
H450 H 0.11041 0.75709 0.1507 0.0
H451 H 0.89168 0.66356 0.19982 0.0
H452 H 0.02248 0.7287 0.07111 0.0
H453 H 0.98056 0.70083 0.27984 0.0
H454 H 0.9397 0.69685 0.15335 0.0
H455 H 0.06475 0.74638 0.19843 0.0
C456 C 0.08144 0.74899 0.14325 0.0
C457 C 0.06996 0.74311 0.10692 0.0
C458 C 0.94885 0.69841 0.18108 0.0
C459 C 0.01729 0.7304 0.16167 0.0
C460 C 0.92144 0.6794 0.20767 0.0
C461 C 0.93232 0.67911 0.24359 0.0
C462 C 0.98759 0.71678 0.19032 0.0
C463 C 0.97108 0.70035 0.25242 0.0
C464 C 0.0554 0.74298 0.17059 0.0
C465 C 0.03238 0.7333 0.0988 0.0
N466 N 0.99746 0.71779 0.22577 0.0
N467 N 0.00714 0.72658 0.12606 0.0
H468 H 0.3474 0.10753 0.48743 0.0
H469 H 0.24843 0.88759 0.53072 0.0
H470 H 0.30482 0.02077 0.40479 0.0
H471 H 0.27477 0.97312 0.61264 0.0
H472 H 0.26102 0.93488 0.48421 0.0
H473 H 0.31329 0.05867 0.53294 0.0
C474 C 0.33033 0.07808 0.47884 0.0
C475 C 0.32931 0.06797 0.44242 0.0
C476 C 0.26357 0.94334 0.51229 0.0
C477 C 0.29059 0.01175 0.49453 0.0
C478 C 0.25655 0.91638 0.53892 0.0
C479 C 0.26125 0.92672 0.57556 0.0
C480 C 0.27605 0.9812 0.52226 0.0
C481 C 0.27109 0.96412 0.58467 0.0
C482 C 0.31078 0.05021 0.50486 0.0
C483 C 0.3064 0.02963 0.43264 0.0
N484 N 0.27885 0.99027 0.55811 0.0
N485 N 0.28846 0.00272 0.4587 0.0
H486 H 0.28875 0.30259 0.73959 0.0
H487 H 0.30569 0.27111 0.95096 0.0
H488 H 0.2466 0.34461 0.82465 0.0
H489 H 0.36417 0.24623 0.86716 0.0
H490 H 0.27055 0.28388 0.90412 0.0
H491 H 0.30342 0.26754 0.78512 0.0
C492 C 0.28193 0.3038 0.76768 0.0
C493 C 0.26721 0.32701 0.77856 0.0
C494 C 0.29069 0.27506 0.89606 0.0
C495 C 0.28378 0.28742 0.83052 0.0
C496 C 0.31056 0.26764 0.92279 0.0
C497 C 0.33832 0.25838 0.91283 0.0
C498 C 0.29865 0.27295 0.85932 0.0
C499 C 0.34354 0.25413 0.87595 0.0
C500 C 0.2904 0.284 0.79367 0.0
C501 C 0.25875 0.32763 0.81527 0.0
N502 N 0.32425 0.26184 0.85055 0.0
N503 N 0.2675 0.30851 0.83994 0.0
H504 H 0.07649 0.31795 0.45811 0.0
H505 H 0.16651 0.34311 0.62365 0.0
H506 H 0.19053 0.36691 0.41511 0.0
H507 H 0.25508 0.33663 0.56483 0.0
H508 H 0.13359 0.33757 0.56728 0.0
H509 H 0.09989 0.30909 0.51614 0.0
C510 C 0.10644 0.3269 0.46088 0.0
C511 C 0.1317 0.34395 0.43189 0.0
C512 C 0.15962 0.33627 0.56655 0.0
C513 C 0.15895 0.33459 0.49846 0.0
C514 C 0.1787 0.33976 0.59889 0.0
C515 C 0.21364 0.34029 0.59912 0.0
C516 C 0.17569 0.33358 0.53384 0.0
C517 C 0.22812 0.33615 0.56601 0.0
C518 C 0.11991 0.32218 0.49415 0.0
C519 C 0.17016 0.35447 0.43691 0.0
N520 N 0.20937 0.33355 0.53464 0.0
N521 N 0.18259 0.34972 0.46953 0.0
H522 H 0.83933 0.1755 0.742 0.0
H523 H 0.90592 0.27592 0.90015 0.0
H524 H 0.75277 0.08587 0.80725 0.0
H525 H 0.84029 0.16907 0.95627 0.0
H526 H 0.88445 0.2427 0.84317 0.0
H527 H 0.87511 0.20654 0.79597 0.0
C528 C 0.82787 0.16226 0.7678 0.0
C529 C 0.79281 0.12815 0.76994 0.0
C530 C 0.8755 0.22593 0.86762 0.0
C531 C 0.8327 0.16516 0.83301 0.0
C532 C 0.88768 0.24519 0.90046 0.0
C533 C 0.87496 0.22539 0.9332 0.0
C534 C 0.85027 0.18623 0.86719 0.0
C535 C 0.85109 0.18555 0.93177 0.0
C536 C 0.8481 0.18045 0.79896 0.0
C537 C 0.7796 0.11225 0.80428 0.0
N538 N 0.83911 0.16738 0.89934 0.0
N539 N 0.7993 0.13115 0.8345 0.0
H540 H 0.64953 0.88462 0.25595 0.0
H541 H 0.64602 0.83432 0.07524 0.0
H542 H 0.6511 0.78054 0.27623 0.0
H543 H 0.68902 0.762 0.11235 0.0
H544 H 0.64786 0.8559 0.13703 0.0
H545 H 0.66589 0.88187 0.19257 0.0
C546 C 0.65386 0.86153 0.24716 0.0
C547 C 0.64838 0.83246 0.2712 0.0
C548 C 0.65793 0.83615 0.13177 0.0
C549 C 0.66589 0.82831 0.19861 0.0
C550 C 0.65648 0.82344 0.09635 0.0
C551 C 0.66692 0.79589 0.08857 0.0
C552 C 0.66982 0.8211 0.15982 0.0
C553 C 0.6806 0.78316 0.11701 0.0
C554 C 0.66262 0.85958 0.21081 0.0
C555 C 0.6544 0.80322 0.25844 0.0
N556 N 0.68104 0.79539 0.15137 0.0
N557 N 0.66255 0.80177 0.22309 0.0
H558 H 0.84224 0.65628 0.61843 0.0
H559 H 0.82209 0.66204 0.40568 0.0
H560 H 0.75772 0.67592 0.56767 0.0
H561 H 0.92304 0.67334 0.45665 0.0
H562 H 0.79888 0.66849 0.46453 0.0
H563 H 0.87307 0.66388 0.55987 0.0
C564 C 0.83033 0.66253 0.595 0.0
C565 C 0.7971 0.66515 0.59795 0.0
C566 C 0.82632 0.67002 0.46287 0.0
C567 C 0.83219 0.67354 0.53058 0.0
C568 C 0.83963 0.66627 0.42919 0.0
C569 C 0.87456 0.66694 0.42611 0.0
C570 C 0.84772 0.67388 0.494 0.0
C571 C 0.89599 0.67267 0.45767 0.0
C572 C 0.84806 0.66698 0.56155 0.0
C573 C 0.78324 0.67367 0.56669 0.0
N574 N 0.882 0.67542 0.49034 0.0
N575 N 0.80054 0.67704 0.53424 0.0
H576 H 0.17842 0.83725 0.94506 0.0
H577 H 0.15616 0.82052 0.73361 0.0
H578 H 0.07143 0.75846 0.89468 0.0
H579 H 0.24204 0.92301 0.78595 0.0
H580 H 0.12421 0.79727 0.79171 0.0
H581 H 0.20205 0.86913 0.88722 0.0
C582 C 0.15966 0.82696 0.92193 0.0
C583 C 0.12286 0.79511 0.92483 0.0
C584 C 0.1497 0.8251 0.79042 0.0
C585 C 0.15015 0.83109 0.85801 0.0
C586 C 0.16804 0.8384 0.75725 0.0
C587 C 0.202 0.87371 0.75493 0.0
C588 C 0.1658 0.84688 0.82172 0.0
C589 C 0.21594 0.89567 0.78647 0.0
C590 C 0.1732 0.84524 0.88884 0.0
C591 C 0.09993 0.78297 0.89375 0.0
N592 N 0.19814 0.88162 0.81867 0.0
N593 N 0.11417 0.80061 0.86148 0.0
H594 H 0.32289 0.24243 0.121 0.0
H595 H 0.32858 0.07566 0.23253 0.0
H596 H 0.35651 0.16583 0.07467 0.0
H597 H 0.34134 0.17795 0.28206 0.0
H598 H 0.32264 0.09967 0.17347 0.0
H599 H 0.31372 0.21023 0.17941 0.0
C600 C 0.32774 0.21849 0.12293 0.0
C601 C 0.34068 0.20693 0.09294 0.0
C602 C 0.32625 0.11657 0.1974 0.0
C603 C 0.33001 0.16991 0.15942 0.0
C604 C 0.32942 0.1028 0.23111 0.0
C605 C 0.3357 0.12494 0.26227 0.0
C606 C 0.32883 0.15245 0.19495 0.0
C607 C 0.33677 0.16004 0.25875 0.0
C608 C 0.32267 0.20026 0.15626 0.0
C609 C 0.34669 0.17582 0.09708 0.0
N610 N 0.3335 0.17276 0.22574 0.0
N611 N 0.34137 0.15845 0.12965 0.0
H612 H 0.98948 0.59675 0.31715 0.0
H613 H 0.00376 0.40602 0.32227 0.0
H614 H 0.89559 0.4877 0.3488 0.0
H615 H 0.09838 0.51663 0.34871 0.0
H616 H 0.96349 0.43529 0.3136 0.0
H617 H 0.02968 0.56715 0.31039 0.0
C618 C 0.97723 0.56646 0.32189 0.0
C619 C 0.93941 0.54456 0.33369 0.0
C620 C 0.99325 0.45318 0.32071 0.0
C621 C 0.98463 0.51058 0.32573 0.0
C622 C 0.01613 0.43656 0.32539 0.0
C623 C 0.05419 0.45906 0.33625 0.0
C624 C 0.00891 0.49264 0.32623 0.0
C625 C 0.06904 0.49846 0.34044 0.0
C626 C 1.00009 0.54966 0.31827 0.0
C627 C 0.92476 0.50546 0.33988 0.0
N628 N 0.04641 0.51405 0.33544 0.0
N629 N 0.94735 0.48968 0.33583 0.0
H630 H 0.59144 0.03778 0.74805 0.0
H631 H 0.40152 0.93372 0.63002 0.0
H632 H 0.59759 0.0545 0.63272 0.0
H633 H 0.4066 0.96434 0.74236 0.0
H634 H 0.47196 0.97075 0.62774 0.0
H635 H 0.52245 0.00086 0.74412 0.0
C636 C 0.57824 0.03373 0.72179 0.0
C637 C 0.60047 0.05005 0.6908 0.0
C638 C 0.45741 0.96933 0.65274 0.0
C639 C 0.52062 0.0071 0.68597 0.0
C640 C 0.41726 0.94841 0.65404 0.0
C641 C 0.39797 0.94525 0.68665 0.0
C642 C 0.47815 0.98679 0.68434 0.0
C643 C 0.41998 0.96489 0.7169 0.0
C644 C 0.5387 0.01256 0.71954 0.0
C645 C 0.58156 0.04257 0.65731 0.0
N646 N 0.45859 0.98435 0.71506 0.0
N647 N 0.54258 0.02177 0.65575 0.0
H648 H 0.47064 0.40321 0.95952 0.0
H649 H 0.56459 0.59586 0.07171 0.0
H650 H 0.44663 0.41197 0.07156 0.0
H651 H 0.53867 0.59961 0.95933 0.0
H652 H 0.53236 0.52675 0.06847 0.0
H653 H 0.50318 0.47356 0.95503 0.0
C654 C 0.47177 0.41973 0.98297 0.0
C655 C 0.45652 0.40159 0.01621 0.0
C656 C 0.53367 0.54258 0.04442 0.0
C657 C 0.49421 0.4815 1.0114 0.0
C658 C 0.55209 0.58215 0.04625 0.0
C659 C 0.5536 0.6037 0.016 0.0
C660 C 0.51675 0.52388 1.01198 0.0
C661 C 0.53799 0.58413 0.98337 0.0
C662 C 0.49048 0.45978 0.98041 0.0
C663 C 0.45889 0.42452 0.0457 0.0
N664 N 0.51992 0.54514 0.98221 0.0
N665 N 0.47773 0.46304 0.0427 0.0
H666 H 0.54423 0.94754 0.40312 0.0
H667 H 0.44377 0.03595 0.28174 0.0
H668 H 0.55591 0.96182 0.28766 0.0
H669 H 0.46216 0.0599 0.39577 0.0
H670 H 0.47427 0.99742 0.28592 0.0
H671 H 0.50472 0.97832 0.40318 0.0
C672 C 0.53818 0.95683 0.37782 0.0
C673 C 0.55359 0.95244 0.34535 0.0
C674 C 0.4716 0.01093 0.31015 0.0
C675 C 0.50839 0.98711 0.34515 0.0
C676 C 0.4542 0.03307 0.30777 0.0
C677 C 0.45106 0.05193 0.33829 0.0
C678 C 0.48606 0.00724 0.34337 0.0
C679 C 0.4641 0.04601 0.37153 0.0
C680 C 0.51587 0.97452 0.37789 0.0
C681 C 0.54509 0.96512 0.31333 0.0
N682 N 0.48139 0.02443 0.37317 0.0
N683 N 0.5231 0.98172 0.31405 0.0
H684 H 0.60175 0.53493 0.73078 0.0
H685 H 0.40835 0.45297 0.61772 0.0
H686 H 0.59427 0.55416 0.61729 0.0
H687 H 0.40694 0.4633 0.73355 0.0
H688 H 0.47723 0.4826 0.61928 0.0
H689 H 0.53155 0.50406 0.7349 0.0
C690 C 0.58552 0.53302 0.70688 0.0
C691 C 0.60402 0.54664 0.67347 0.0
C692 C 0.4621 0.47856 0.64449 0.0
C693 C 0.52407 0.51094 0.67788 0.0
C694 C 0.4226 0.46159 0.6436 0.0
C695 C 0.40176 0.45628 0.67546 0.0
C696 C 0.48154 0.49045 0.67755 0.0
C697 C 0.42192 0.46697 0.70834 0.0
C698 C 0.54551 0.51523 0.70922 0.0
C699 C 0.58145 0.54326 0.64339 0.0
N700 N 0.46084 0.48383 0.70856 0.0
N701 N 0.54295 0.52561 0.64629 0.0
H702 H 0.9393 0.40596 0.07893 0.0
H703 H 0.03322 0.58394 0.94693 0.0
H704 H 0.9882 0.40414 0.97614 0.0
H705 H 0.05311 0.60177 0.06179 0.0
H706 H 0.00111 0.51554 0.95671 0.0
H707 H 0.96649 0.47568 0.07255 0.0
C708 C 0.95551 0.42027 0.05498 0.0
C709 C 0.96175 0.39954 0.02804 0.0
C710 C 0.01243 0.53447 0.97977 0.0
C711 C 0.99199 0.47834 0.02031 0.0
C712 C 0.03108 0.57375 0.97428 0.0
C713 C 0.04719 0.59925 1.00344 0.0
C714 C 0.00882 0.52003 0.01477 0.0
C715 C 0.04159 0.58354 0.03838 0.0
C716 C 0.97111 0.45985 0.05147 0.0
C717 C 0.98307 0.41922 0.99758 0.0
N718 N 0.02296 0.54489 0.04308 0.0
N719 N 0.99712 0.45739 0.99439 0.0
H720 H 0.23924 0.31383 0.26588 0.0
H721 H 0.30668 0.23603 0.43234 0.0
H722 H 0.21037 0.32129 0.3766 0.0
H723 H 0.31547 0.20967 0.32108 0.0
H724 H 0.27253 0.26862 0.41274 0.0
H725 H 0.26873 0.27687 0.2857 0.0
C726 C 0.23907 0.30765 0.29433 0.0
C727 C 0.22226 0.32065 0.31956 0.0
C728 C 0.28169 0.25543 0.39265 0.0
C729 C 0.25603 0.27842 0.34255 0.0
C730 C 0.3013 0.23696 0.40383 0.0
C731 C 0.3139 0.21997 0.37837 0.0
C732 C 0.27501 0.25735 0.35566 0.0
C733 C 0.30588 0.22182 0.34174 0.0
C734 C 0.25573 0.28639 0.30564 0.0
C735 C 0.22254 0.31148 0.35613 0.0
N736 N 0.28723 0.24037 0.3315 0.0
N737 N 0.23937 0.29117 0.36653 0.0
H738 H 0.93097 0.22519 0.5993 0.0
H739 H 0.07166 0.29032 0.76881 0.0
H740 H 0.89294 0.18776 0.70825 0.0
H741 H 0.11055 0.30488 0.65843 0.0
H742 H 0.00572 0.25333 0.7473 0.0
H743 H 0.99707 0.25523 0.62032 0.0
C744 C 0.93642 0.22315 0.62758 0.0
C745 C 0.90611 0.20409 0.65202 0.0
C746 C 0.02876 0.26436 0.72781 0.0
C747 C 0.98179 0.23853 0.67635 0.0
C748 C 0.06637 0.2856 0.7401 0.0
C749 C 0.09678 0.30079 0.71545 0.0
C750 C 0.02143 0.25867 0.69054 0.0
C751 C 0.08822 0.29348 0.67849 0.0
C752 C 0.97418 0.24017 0.63956 0.0
C753 C 0.91507 0.20194 0.68832 0.0
N754 N 0.05141 0.27327 0.66717 0.0
N755 N 0.95198 0.21924 0.69941 0.0
H756 H 0.70784 0.08789 0.03345 0.0
H757 H 0.72653 0.90583 0.98614 0.0
H758 H 0.81668 0.09281 0.03066 0.0
H759 H 0.63007 0.91706 0.95479 0.0
H760 H 0.75929 0.97242 1.00685 0.0
H761 H 0.67761 0.02294 1.00955 0.0
C762 C 0.72533 0.07516 0.02805 0.0
C763 C 0.7648 0.09568 0.03423 0.0
C764 C 0.73109 0.96035 0.99513 0.0
C765 C 0.73041 0.02135 1.00666 0.0
C766 C 0.71238 0.92239 0.98344 0.0
C767 C 0.67558 0.90594 0.96866 0.0
C768 C 0.71257 0.98175 0.99258 0.0
C769 C 0.65857 0.92869 0.96559 0.0
C770 C 0.70812 0.03821 0.01409 0.0
C771 C 0.7862 0.07801 0.02611 0.0
N772 N 0.67704 0.96528 0.97775 0.0
N773 N 0.7687 0.04171 0.01297 0.0
H774 H 0.71854 0.64138 0.29491 0.0
H775 H 0.72393 0.82195 0.38714 0.0
H776 H 0.82329 0.73421 0.33711 0.0
H777 H 0.62323 0.71053 0.38183 0.0
H778 H 0.76176 0.79432 0.36362 0.0
H779 H 0.68382 0.67087 0.32005 0.0
C780 C 0.73434 0.66827 0.30907 0.0
C781 C 0.77394 0.68549 0.31372 0.0
C782 C 0.73144 0.77598 0.368 0.0
C783 C 0.73416 0.71929 0.34305 0.0
C784 C 0.70989 0.79169 0.38134 0.0
C785 C 0.67042 0.76848 0.3867 0.0
C786 C 0.71317 0.73697 0.3593 0.0
C787 C 0.65361 0.72943 0.37873 0.0
C788 C 0.71442 0.68489 0.32379 0.0
C789 C 0.79275 0.71999 0.33304 0.0
N790 N 0.67497 0.71504 0.36515 0.0
N791 N 0.77272 0.73592 0.34689 0.0
H792 H 0.08547 0.71342 0.6324 0.0
H793 H 0.90691 0.72985 0.69865 0.0
H794 H 0.09456 0.8226 0.65263 0.0
H795 H 0.91964 0.63225 0.7206 0.0
H796 H 0.97217 0.76344 0.67421 0.0
H797 H 0.02034 0.68182 0.65598 0.0
C798 C 0.07353 0.73074 0.64128 0.0
C799 C 0.09536 0.7707 0.6404 0.0
C800 C 0.96069 0.73478 0.68464 0.0
C801 C 0.02094 0.73471 0.66777 0.0
C802 C 0.92356 0.71565 0.6985 0.0
C803 C 0.90803 0.67838 0.7119 0.0
C804 C 0.98203 0.71611 0.68347 0.0
C805 C 0.9307 0.66115 0.71108 0.0
C806 C 0.03652 0.7127 0.65512 0.0
C807 C 0.07865 0.79173 0.65297 0.0
N808 N 0.9664 0.68002 0.69682 0.0
N809 N 0.04233 0.77349 0.66603 0.0
H810 H 0.32619 0.07366 0.9271 0.0
H811 H 0.24335 0.9271 0.09211 0.0
H812 H 0.32591 0.10895 0.03696 0.0
H813 H 0.21414 0.89285 0.98108 0.0
H814 H 0.27776 0.99404 0.07269 0.0
H815 H 0.28888 0.00683 0.94642 0.0
C816 C 0.31822 0.06734 0.95523 0.0
C817 C 0.32904 0.09694 0.98039 0.0
C818 C 0.26356 0.97183 0.05261 0.0
C819 C 0.2867 0.02073 1.00279 0.0
C820 C 0.24409 0.93369 0.0637 0.0
C821 C 0.22564 0.90437 0.03822 0.0
C822 C 0.26514 0.98066 0.01571 0.0
C823 C 0.22737 0.91448 1.00169 0.0
C824 C 0.29683 0.02927 0.96624 0.0
C825 C 0.31779 0.08715 0.01654 0.0
N826 N 0.24697 0.95171 0.99151 0.0
N827 N 0.2975 0.04995 0.02669 0.0
H828 H 0.41662 0.75148 0.36501 0.0
H829 H 0.32387 0.52828 0.33376 0.0
H830 H 0.47414 0.70207 0.30747 0.0
H831 H 0.25565 0.58145 0.35094 0.0
H832 H 0.38094 0.59166 0.33017 0.0
H833 H 0.35794 0.68918 0.36453 0.0
C834 C 0.41662 0.72757 0.35182 0.0
C835 C 0.45003 0.73173 0.33616 0.0
C836 C 0.35346 0.58941 0.33471 0.0
C837 C 0.38372 0.6606 0.33628 0.0
C838 C 0.32106 0.55336 0.33716 0.0
C839 C 0.28522 0.54986 0.34273 0.0
C840 C 0.34992 0.62204 0.33836 0.0
C841 C 0.28288 0.58311 0.34648 0.0
C842 C 0.38328 0.69213 0.3516 0.0
C843 C 0.44878 0.70001 0.31948 0.0
N844 N 0.31487 0.61791 0.34439 0.0
N845 N 0.41623 0.66558 0.32037 0.0
H846 H 0.77418 0.46489 0.61904 0.0
H847 H 0.77476 0.29939 0.73687 0.0
H848 H 0.76542 0.45864 0.73528 0.0
H849 H 0.76787 0.29711 0.6205 0.0
H850 H 0.77913 0.36188 0.73672 0.0
H851 H 0.77951 0.40721 0.61893 0.0
C852 C 0.77362 0.45148 0.64451 0.0
C853 C 0.76885 0.46616 0.67716 0.0
C854 C 0.77679 0.34775 0.71121 0.0
C855 C 0.77486 0.40043 0.67731 0.0
C856 C 0.77449 0.31222 0.7113 0.0
C857 C 0.77053 0.29295 0.67869 0.0
C858 C 0.77528 0.36414 0.67826 0.0
C859 C 0.77015 0.31073 0.6463 0.0
C860 C 0.7765 0.41854 0.64445 0.0
C861 C 0.76825 0.44774 0.70944 0.0
N862 N 0.77234 0.34528 0.6469 0.0
N863 N 0.77109 0.41577 0.70869 0.0
H864 H 0.48797 0.81597 1.00516 0.0
H865 H 0.26086 0.6898 0.99097 0.0
H866 H 0.42461 0.69313 0.0135 0.0
H867 H 0.32088 0.81268 0.99873 0.0
H868 H 0.32162 0.69111 0.99456 0.0
H869 H 0.42776 0.81607 1.00037 0.0
C870 C 0.4614 0.78908 1.0065 0.0
C871 C 0.46127 0.75446 1.00962 0.0
C872 C 0.32158 0.71784 0.99534 0.0
C873 C 0.39249 0.75433 1.00334 0.0
C874 C 0.28691 0.71709 0.99322 0.0
C875 C 0.28586 0.75116 0.99481 0.0
C876 C 0.35551 0.75292 0.99906 0.0
C877 C 0.32047 0.78577 0.99714 0.0
C878 C 0.42708 0.78914 1.00341 0.0
C879 C 0.42604 0.72043 1.01062 0.0
N880 N 0.35396 0.78577 0.99943 0.0
N881 N 0.3931 0.72122 1.00732 0.0
H882 H 0.53664 0.30424 0.40379 0.0
H883 H 0.69582 0.47006 0.28205 0.0
H884 H 0.53154 0.30595 0.28744 0.0
H885 H 0.69791 0.47123 0.39858 0.0
H886 H 0.63385 0.41168 0.28356 0.0
H887 H 0.59395 0.36706 0.40256 0.0
C888 C 0.54768 0.31788 0.37796 0.0
C889 C 0.52968 0.29973 0.34561 0.0
C890 C 0.64772 0.42476 0.30882 0.0
C891 C 0.59504 0.37171 0.34401 0.0
C892 C 0.68317 0.45794 0.30798 0.0
C893 C 0.70216 0.47514 0.34026 0.0
C894 C 0.63119 0.40854 0.34221 0.0
C895 C 0.68417 0.45883 0.37309 0.0
C896 C 0.58025 0.35383 0.37729 0.0
C897 C 0.54459 0.319 0.31297 0.0
N898 N 0.64977 0.42619 0.37323 0.0
N899 N 0.57665 0.35388 0.31298 0.0
H900 H 0.23434 0.69591 0.62594 0.0
H901 H 0.22694 0.53116 0.74921 0.0
H902 H 0.22496 0.69469 0.74208 0.0
H903 H 0.22408 0.52737 0.63271 0.0
H904 H 0.22308 0.58945 0.74737 0.0
H905 H 0.22767 0.63266 0.62797 0.0
C906 C 0.23095 0.68225 0.65191 0.0
C907 C 0.23077 0.70065 0.68396 0.0
C908 C 0.22299 0.57573 0.72221 0.0
C909 C 0.22282 0.6282 0.6865 0.0
C910 C 0.2254 0.54262 0.72324 0.0
C911 C 0.22627 0.52477 0.69103 0.0
C912 C 0.22172 0.59122 0.68872 0.0
C913 C 0.22343 0.54026 0.65815 0.0
C914 C 0.22687 0.64606 0.65304 0.0
C915 C 0.22535 0.68142 0.71679 0.0
N916 N 0.22165 0.57286 0.65783 0.0
N917 N 0.22195 0.64629 0.71727 0.0
H918 H 0.58401 0.31865 0.03074 0.0
H919 H 0.69581 0.20449 1.00258 0.0
H920 H 0.52815 0.19644 0.01778 0.0
H921 H 0.75154 0.32466 0.02776 0.0
H922 H 0.63418 0.20152 1.00551 0.0
H923 H 0.64579 0.3217 0.02912 0.0
C924 C 0.58483 0.29243 0.02785 0.0
C925 C 0.55105 0.25725 0.02428 0.0
C926 C 0.65988 0.22858 1.01026 0.0
C927 C 0.62146 0.2605 0.02207 0.0
C928 C 0.69509 0.2304 1.00815 0.0
C929 C 0.72881 0.26495 0.01473 0.0
C930 C 0.65838 0.26157 0.01897 0.0
C931 C 0.72617 0.29744 0.02267 0.0
C932 C 0.62004 0.29417 0.0269 0.0
C933 C 0.55356 0.22408 0.02092 0.0
N934 N 0.69152 0.29496 0.02458 0.0
N935 N 0.58824 0.22655 0.01961 0.0
loop_
_geom_bond_atom_site_label_1
_geom_bond_atom_site_label_2
_geom_bond_distance
_geom_bond_site_symmetry_2
_ccdc_geom_bond_type
C0 C1 1.351 . S
C0 N3 1.368 . S
C0 H5 0.931 . S
C1 C0 1.351 . S
C1 N2 1.373 . S
C1 H29 0.930 . S
N2 C1 1.373 . S
N2 C4 1.340 . S
N3 C0 1.368 . S
N3 C4 1.321 . S
N3 Co6 2.135 . S
C4 N2 1.340 . S
C4 N3 1.321 . S
C4 H28 0.930 . S
H5 C0 0.931 . S
Co6 N3 2.135 . S
Co6 N9 2.121 . S
Co6 O14 2.055 . S
Co6 O17 2.039 . S
Co6 N20 2.140 . S
C7 O8 1.227 . S
C7 O17 1.265 . S
O8 C7 1.227 . S
N9 Co6 2.121 . S
N9 C11 1.375 . S
N9 C12 1.313 . S
C10 C11 1.338 . S
C10 N13 1.377 . S
C10 H30 0.930 . S
C11 N9 1.375 . S
C11 C10 1.338 . S
C11 H15 0.931 . S
C12 N9 1.313 . S
C12 N13 1.344 . S
C12 H16 0.930 . S
N13 C10 1.377 . S
N13 C12 1.344 . S
O14 Co6 2.055 . S
O14 C18 1.253 . S
H15 C11 0.931 . S
H16 C12 0.930 . S
O17 Co6 2.039 . S
O17 C7 1.265 . S
C18 O14 1.253 . S
C18 O19 1.227 . S
O19 C18 1.227 . S
N20 Co6 2.140 . S
N20 C23 1.346 . S
N20 C24 1.345 . S
C21 C22 1.387 . S
C21 C25 1.391 . S
C22 C21 1.387 . S
C22 C23 1.369 . S
C22 H31 0.929 . S
C23 N20 1.346 . S
C23 C22 1.369 . S
C23 H26 0.928 . S
C24 N20 1.345 . S
C24 C25 1.371 . S
C24 H27 0.931 . S
C25 C21 1.391 . S
C25 C24 1.371 . S
C25 H32 0.930 . S
H26 C23 0.928 . S
H27 C24 0.931 . S
H28 C4 0.930 . S
H29 C1 0.930 . S
H30 C10 0.930 . S
H31 C22 0.929 . S
H32 C25 0.930 . S
C33 C34 1.351 . S
C33 N36 1.368 . S
C33 H38 0.931 . S
C34 C33 1.351 . S
C34 N35 1.373 . S
C34 H62 0.930 . S
N35 C34 1.373 . S
N35 C37 1.340 . S
N36 C33 1.368 . S
N36 C37 1.321 . S
N36 Co39 2.135 . S
C37 N35 1.340 . S
C37 N36 1.321 . S
C37 H61 0.930 . S
H38 C33 0.931 . S
Co39 N36 2.135 . S
Co39 N42 2.121 . S
Co39 O47 2.055 . S
Co39 O50 2.039 . S
Co39 N53 2.140 . S
C40 O41 1.227 . S
C40 O50 1.265 . S
O41 C40 1.227 . S
N42 Co39 2.121 . S
N42 C44 1.375 . S
N42 C45 1.313 . S
C43 C44 1.338 . S
C43 N46 1.377 . S
C43 H63 0.930 . S
C44 N42 1.375 . S
C44 C43 1.338 . S
C44 H48 0.931 . S
C45 N42 1.313 . S
C45 N46 1.344 . S
C45 H49 0.930 . S
N46 C43 1.377 . S
N46 C45 1.344 . S
O47 Co39 2.055 . S
O47 C51 1.253 . S
H48 C44 0.931 . S
H49 C45 0.930 . S
O50 Co39 2.039 . S
O50 C40 1.265 . S
C51 O47 1.253 . S
C51 O52 1.227 . S
O52 C51 1.227 . S
N53 Co39 2.140 . S
N53 C56 1.346 . S
N53 C57 1.345 . S
C54 C55 1.387 . S
C54 C58 1.391 . S
C55 C54 1.387 . S
C55 C56 1.369 . S
C55 H64 0.929 . S
C56 N53 1.346 . S
C56 C55 1.369 . S
C56 H59 0.928 . S
C57 N53 1.345 . S
C57 C58 1.371 . S
C57 H60 0.931 . S
C58 C54 1.391 . S
C58 C57 1.371 . S
C58 H65 0.930 . S
H59 C56 0.928 . S
H60 C57 0.931 . S
H61 C37 0.930 . S
H62 C34 0.930 . S
H63 C43 0.930 . S
H64 C55 0.929 . S
H65 C58 0.930 . S
C66 C67 1.351 . S
C66 N69 1.368 . S
C66 H71 0.931 . S
C67 C66 1.351 . S
C67 N68 1.373 . S
C67 H95 0.930 . S
N68 C67 1.373 . S
N68 C70 1.340 1_556 S
N69 C66 1.368 . S
N69 C70 1.321 1_556 S
N69 Co72 2.135 1_556 S
C70 N68 1.340 1_554 S
C70 N69 1.321 1_554 S
C70 H94 0.930 . S
H71 C66 0.931 . S
Co72 N69 2.135 1_554 S
Co72 N75 2.121 . S
Co72 O80 2.055 1_554 S
Co72 O83 2.039 . S
Co72 N86 2.140 1_554 S
C73 O74 1.227 . S
C73 O83 1.265 . S
O74 C73 1.227 . S
N75 Co72 2.121 . S
N75 C77 1.375 . S
N75 C78 1.315 . S
C76 C77 1.338 . S
C76 N79 1.377 . S
C76 H96 0.930 . S
C77 N75 1.375 . S
C77 C76 1.338 . S
C77 H81 0.931 . S
C78 N75 1.315 . S
C78 N79 1.345 . S
C78 H82 0.928 1_554 S
N79 C76 1.377 . S
N79 C78 1.345 . S
O80 Co72 2.055 1_556 S
O80 C84 1.253 . S
H81 C77 0.931 . S
H82 C78 0.928 1_556 S
O83 Co72 2.039 . S
O83 C73 1.265 . S
C84 O80 1.253 . S
C84 O85 1.227 . S
O85 C84 1.227 . S
N86 Co72 2.140 1_556 S
N86 C89 1.346 1_556 S
N86 C90 1.345 . S
C87 C88 1.387 . S
C87 C91 1.391 . S
C88 C87 1.387 . S
C88 C89 1.369 1_556 S
C88 H97 0.929 1_556 S
C89 N86 1.346 1_554 S
C89 C88 1.369 1_554 S
C89 H92 0.928 . S
C90 N86 1.345 . S
C90 C91 1.371 . S
C90 H93 0.931 . S
C91 C87 1.391 . S
C91 C90 1.371 . S
C91 H98 0.930 . S
H92 C89 0.928 . S
H93 C90 0.931 . S
H94 C70 0.930 . S
H95 C67 0.930 . S
H96 C76 0.930 . S
H97 C88 0.929 1_554 S
H98 C91 0.930 . S
C99 C100 1.351 . S
C99 N102 1.368 . S
C99 H104 0.931 . S
C100 C99 1.351 . S
C100 N101 1.373 . S
C100 H128 0.930 . S
N101 C100 1.373 . S
N101 C103 1.340 . S
N102 C99 1.368 . S
N102 C103 1.321 . S
N102 Co105 2.135 . S
C103 N101 1.340 . S
C103 N102 1.321 . S
C103 H127 0.930 . S
H104 C99 0.931 . S
Co105 N102 2.135 . S
Co105 N108 2.121 . S
Co105 O113 2.055 . S
Co105 O116 2.039 . S
Co105 N119 2.140 . S
C106 O107 1.227 . S
C106 O116 1.265 . S
O107 C106 1.227 . S
N108 Co105 2.121 . S
N108 C110 1.375 . S
N108 C111 1.313 . S
C109 C110 1.338 . S
C109 N112 1.377 . S
C109 H129 0.930 . S
C110 N108 1.375 . S
C110 C109 1.338 . S
C110 H114 0.931 . S
C111 N108 1.313 . S
C111 N112 1.344 . S
C111 H115 0.930 . S
N112 C109 1.377 . S
N112 C111 1.344 . S
O113 Co105 2.055 . S
O113 C117 1.253 . S
H114 C110 0.931 . S
H115 C111 0.930 . S
O116 Co105 2.039 . S
O116 C106 1.265 . S
C117 O113 1.253 . S
C117 O118 1.227 . S
O118 C117 1.227 . S
N119 Co105 2.140 . S
N119 C122 1.346 . S
N119 C123 1.345 . S
C120 C121 1.387 . S
C120 C124 1.391 . S
C121 C120 1.387 . S
C121 C122 1.369 . S
C121 H130 0.929 . S
C122 N119 1.346 . S
C122 C121 1.369 . S
C122 H125 0.928 . S
C123 N119 1.345 . S
C123 C124 1.371 . S
C123 H126 0.931 . S
C124 C120 1.391 . S
C124 C123 1.371 . S
C124 H131 0.930 . S
H125 C122 0.928 . S
H126 C123 0.931 . S
H127 C103 0.930 . S
H128 C100 0.930 . S
H129 C109 0.930 . S
H130 C121 0.929 . S
H131 C124 0.930 . S
C132 C133 1.351 . S
C132 N135 1.368 . S
C132 H137 0.931 . S
C133 C132 1.351 . S
C133 N134 1.373 . S
C133 H161 0.930 . S
N134 C133 1.373 . S
N134 C136 1.340 . S
N135 C132 1.368 . S
N135 C136 1.321 . S
N135 Co138 2.135 . S
C136 N134 1.340 . S
C136 N135 1.321 . S
C136 H160 0.930 . S
H137 C132 0.931 . S
Co138 N135 2.135 . S
Co138 N141 2.121 . S
Co138 O146 2.055 . S
Co138 O149 2.039 . S
Co138 N152 2.140 . S
C139 O140 1.227 . S
C139 O149 1.265 . S
O140 C139 1.227 . S
N141 Co138 2.121 . S
N141 C143 1.375 . S
N141 C144 1.313 . S
C142 C143 1.338 . S
C142 N145 1.377 . S
C142 H162 0.930 . S
C143 N141 1.375 . S
C143 C142 1.338 . S
C143 H147 0.931 . S
C144 N141 1.313 . S
C144 N145 1.344 . S
C144 H148 0.930 . S
N145 C142 1.377 . S
N145 C144 1.344 . S
O146 Co138 2.055 . S
O146 C150 1.253 . S
H147 C143 0.931 . S
H148 C144 0.930 . S
O149 Co138 2.039 . S
O149 C139 1.265 . S
C150 O146 1.253 . S
C150 O151 1.227 . S
O151 C150 1.227 . S
N152 Co138 2.140 . S
N152 C155 1.346 . S
N152 C156 1.345 . S
C153 C154 1.387 . S
C153 C157 1.391 . S
C154 C153 1.387 . S
C154 C155 1.369 . S
C154 H163 0.929 . S
C155 N152 1.346 . S
C155 C154 1.369 . S
C155 H158 0.928 . S
C156 N152 1.345 . S
C156 C157 1.371 . S
C156 H159 0.931 . S
C157 C153 1.391 . S
C157 C156 1.371 . S
C157 H164 0.930 . S
H158 C155 0.928 . S
H159 C156 0.931 . S
H160 C136 0.930 . S
H161 C133 0.930 . S
H162 C142 0.930 . S
H163 C154 0.929 . S
H164 C157 0.930 . S
C165 C166 1.351 . S
C165 N168 1.368 . S
C165 H170 0.931 . S
C166 C165 1.351 . S
C166 N167 1.373 . S
C166 H194 0.930 . S
N167 C166 1.373 . S
N167 C169 1.340 1_556 S
N168 C165 1.368 . S
N168 C169 1.321 1_556 S
N168 Co171 2.135 1_556 S
C169 N167 1.340 1_554 S
C169 N168 1.321 1_554 S
C169 H193 0.930 . S
H170 C165 0.931 . S
Co171 N168 2.135 1_554 S
Co171 N174 2.121 . S
Co171 O179 2.055 1_554 S
Co171 O182 2.039 . S
Co171 N185 2.140 1_554 S
C172 O173 1.227 . S
C172 O182 1.265 . S
O173 C172 1.227 . S
N174 Co171 2.121 . S
N174 C176 1.375 . S
N174 C177 1.315 . S
C175 C176 1.338 . S
C175 N178 1.377 . S
C175 H195 0.930 . S
C176 N174 1.375 . S
C176 C175 1.338 . S
C176 H180 0.931 . S
C177 N174 1.315 . S
C177 N178 1.345 . S
C177 H181 0.928 1_554 S
N178 C175 1.377 . S
N178 C177 1.345 . S
O179 Co171 2.055 1_556 S
O179 C183 1.253 . S
H180 C176 0.931 . S
H181 C177 0.928 1_556 S
O182 Co171 2.039 . S
O182 C172 1.265 . S
C183 O179 1.253 . S
C183 O184 1.227 . S
O184 C183 1.227 . S
N185 Co171 2.140 1_556 S
N185 C188 1.346 1_556 S
N185 C189 1.345 . S
C186 C187 1.387 . S
C186 C190 1.391 . S
C187 C186 1.387 . S
C187 C188 1.369 1_556 S
C187 H196 0.929 1_556 S
C188 N185 1.346 1_554 S
C188 C187 1.369 1_554 S
C188 H191 0.928 . S
C189 N185 1.345 . S
C189 C190 1.371 . S
C189 H192 0.931 . S
C190 C186 1.391 . S
C190 C189 1.371 . S
C190 H197 0.930 . S
H191 C188 0.928 . S
H192 C189 0.931 . S
H193 C169 0.930 . S
H194 C166 0.930 . S
H195 C175 0.930 . S
H196 C187 0.929 1_554 S
H197 C190 0.930 . S
C198 C199 1.351 . S
C198 N201 1.368 . S
C198 H203 0.931 . S
C199 C198 1.351 . S
C199 N200 1.373 . S
C199 H227 0.930 . S
N200 C199 1.373 . S
N200 C202 1.340 . S
N201 C198 1.368 . S
N201 C202 1.321 . S
N201 Co204 2.135 . S
C202 N200 1.340 . S
C202 N201 1.321 . S
C202 H226 0.930 . S
H203 C198 0.931 . S
Co204 N201 2.135 . S
Co204 N207 2.121 . S
Co204 O212 2.055 . S
Co204 O215 2.039 . S
Co204 N218 2.140 . S
C205 O206 1.227 . S
C205 O215 1.265 . S
O206 C205 1.227 . S
N207 Co204 2.121 . S
N207 C209 1.375 . S
N207 C210 1.313 . S
C208 C209 1.338 . S
C208 N211 1.377 . S
C208 H228 0.930 . S
C209 N207 1.375 . S
C209 C208 1.338 . S
C209 H213 0.931 . S
C210 N207 1.313 . S
C210 N211 1.344 . S
C210 H214 0.930 . S
N211 C208 1.377 . S
N211 C210 1.344 . S
O212 Co204 2.055 . S
O212 C216 1.253 . S
H213 C209 0.931 . S
H214 C210 0.930 . S
O215 Co204 2.039 . S
O215 C205 1.265 . S
C216 O212 1.253 . S
C216 O217 1.227 . S
O217 C216 1.227 . S
N218 Co204 2.140 . S
N218 C221 1.346 . S
N218 C222 1.345 . S
C219 C220 1.387 . S
C219 C223 1.391 . S
C220 C219 1.387 . S
C220 C221 1.369 . S
C220 H229 0.929 . S
C221 N218 1.346 . S
C221 C220 1.369 . S
C221 H224 0.928 . S
C222 N218 1.345 . S
C222 C223 1.371 . S
C222 H225 0.931 . S
C223 C219 1.391 . S
C223 C222 1.371 . S
C223 H230 0.930 . S
H224 C221 0.928 . S
H225 C222 0.931 . S
H226 C202 0.930 . S
H227 C199 0.930 . S
H228 C208 0.930 . S
H229 C220 0.929 . S
H230 C223 0.930 . S
C231 C232 1.351 . S
C231 N234 1.368 . S
C231 H236 0.931 . S
C232 C231 1.351 . S
C232 N233 1.373 . S
C232 H260 0.930 . S
N233 C232 1.373 . S
N233 C235 1.340 . S
N234 C231 1.368 . S
N234 C235 1.321 . S
N234 Co237 2.135 . S
C235 N233 1.340 . S
C235 N234 1.321 . S
C235 H259 0.930 . S
H236 C231 0.931 . S
Co237 N234 2.135 . S
Co237 N240 2.121 . S
Co237 O245 2.055 . S
Co237 O248 2.039 . S
Co237 N251 2.140 . S
C238 O239 1.227 . S
C238 O248 1.265 . S
O239 C238 1.227 . S
N240 Co237 2.121 . S
N240 C242 1.375 . S
N240 C243 1.313 . S
C241 C242 1.338 . S
C241 N244 1.377 . S
C241 H261 0.930 . S
C242 N240 1.375 . S
C242 C241 1.338 . S
C242 H246 0.931 . S
C243 N240 1.313 . S
C243 N244 1.344 . S
C243 H247 0.930 . S
N244 C241 1.377 . S
N244 C243 1.344 . S
O245 Co237 2.055 . S
O245 C249 1.253 . S
H246 C242 0.931 . S
H247 C243 0.930 . S
O248 Co237 2.039 . S
O248 C238 1.265 . S
C249 O245 1.253 . S
C249 O250 1.227 . S
O250 C249 1.227 . S
N251 Co237 2.140 . S
N251 C254 1.346 . S
N251 C255 1.345 . S
C252 C253 1.387 . S
C252 C256 1.391 . S
C253 C252 1.387 . S
C253 C254 1.369 . S
C253 H262 0.929 . S
C254 N251 1.346 . S
C254 C253 1.369 . S
C254 H257 0.928 . S
C255 N251 1.345 . S
C255 C256 1.371 . S
C255 H258 0.931 . S
C256 C252 1.391 . S
C256 C255 1.371 . S
C256 H263 0.930 . S
H257 C254 0.928 . S
H258 C255 0.931 . S
H259 C235 0.930 . S
H260 C232 0.930 . S
H261 C241 0.930 . S
H262 C253 0.929 . S
H263 C256 0.930 . S
C264 C265 1.351 . S
C264 N267 1.368 . S
C264 H269 0.931 . S
C265 C264 1.351 . S
C265 N266 1.373 . S
C265 H293 0.930 . S
N266 C265 1.373 . S
N266 C268 1.340 1_554 S
N267 C264 1.368 . S
N267 C268 1.321 1_554 S
N267 Co270 2.135 1_554 S
C268 N266 1.340 1_556 S
C268 N267 1.321 1_556 S
C268 H292 0.930 . S
H269 C264 0.931 . S
Co270 N267 2.135 1_556 S
Co270 N273 2.121 . S
Co270 O278 2.055 1_556 S
Co270 O281 2.039 . S
Co270 N284 2.140 1_556 S
C271 O272 1.227 . S
C271 O281 1.265 . S
O272 C271 1.227 . S
N273 Co270 2.121 . S
N273 C275 1.375 . S
N273 C276 1.315 . S
C274 C275 1.338 . S
C274 N277 1.377 . S
C274 H294 0.930 . S
C275 N273 1.375 . S
C275 C274 1.338 . S
C275 H279 0.931 . S
C276 N273 1.315 . S
C276 N277 1.345 . S
C276 H280 0.928 1_556 S
N277 C274 1.377 . S
N277 C276 1.345 . S
O278 Co270 2.055 1_554 S
O278 C282 1.253 . S
H279 C275 0.931 . S
H280 C276 0.928 1_554 S
O281 Co270 2.039 . S
O281 C271 1.265 . S
C282 O278 1.253 . S
C282 O283 1.227 . S
O283 C282 1.227 . S
N284 Co270 2.140 1_554 S
N284 C287 1.346 1_554 S
N284 C288 1.345 . S
C285 C286 1.387 . S
C285 C289 1.391 . S
C286 C285 1.387 . S
C286 C287 1.369 1_554 S
C286 H295 0.929 1_554 S
C287 N284 1.346 1_556 S
C287 C286 1.369 1_556 S
C287 H290 0.928 . S
C288 N284 1.345 . S
C288 C289 1.371 . S
C288 H291 0.931 . S
C289 C285 1.391 . S
C289 C288 1.371 . S
C289 H296 0.930 . S
H290 C287 0.928 . S
H291 C288 0.931 . S
H292 C268 0.930 . S
H293 C265 0.930 . S
H294 C274 0.930 . S
H295 C286 0.929 1_556 S
H296 C289 0.930 . S
C297 C298 1.351 . S
C297 N300 1.368 . S
C297 H302 0.931 . S
C298 C297 1.351 . S
C298 N299 1.373 . S
C298 H326 0.930 . S
N299 C298 1.373 . S
N299 C301 1.340 . S
N300 C297 1.368 . S
N300 C301 1.321 . S
N300 Co303 2.135 . S
C301 N299 1.340 . S
C301 N300 1.321 . S
C301 H325 0.930 . S
H302 C297 0.931 . S
Co303 N300 2.135 . S
Co303 N306 2.121 . S
Co303 O311 2.055 . S
Co303 O314 2.039 . S
Co303 N317 2.140 . S
C304 O305 1.227 . S
C304 O314 1.265 . S
O305 C304 1.227 . S
N306 Co303 2.121 . S
N306 C308 1.375 . S
N306 C309 1.313 . S
C307 C308 1.338 . S
C307 N310 1.377 . S
C307 H327 0.930 . S
C308 N306 1.375 . S
C308 C307 1.338 . S
C308 H312 0.931 . S
C309 N306 1.313 . S
C309 N310 1.344 . S
C309 H313 0.930 . S
N310 C307 1.377 . S
N310 C309 1.344 . S
O311 Co303 2.055 . S
O311 C315 1.253 . S
H312 C308 0.931 . S
H313 C309 0.930 . S
O314 Co303 2.039 . S
O314 C304 1.265 . S
C315 O311 1.253 . S
C315 O316 1.227 . S
O316 C315 1.227 . S
N317 Co303 2.140 . S
N317 C320 1.346 . S
N317 C321 1.345 . S
C318 C319 1.387 . S
C318 C322 1.391 . S
C319 C318 1.387 . S
C319 C320 1.369 . S
C319 H328 0.929 . S
C320 N317 1.346 . S
C320 C319 1.369 . S
C320 H323 0.928 . S
C321 N317 1.345 . S
C321 C322 1.371 . S
C321 H324 0.931 . S
C322 C318 1.391 . S
C322 C321 1.371 . S
C322 H329 0.930 . S
H323 C320 0.928 . S
H324 C321 0.931 . S
H325 C301 0.930 . S
H326 C298 0.930 . S
H327 C307 0.930 . S
H328 C319 0.929 . S
H329 C322 0.930 . S
C330 C331 1.351 . S
C330 N333 1.368 . S
C330 H335 0.931 . S
C331 C330 1.351 . S
C331 N332 1.373 . S
C331 H359 0.930 . S
N332 C331 1.373 . S
N332 C334 1.340 . S
N333 C330 1.368 . S
N333 C334 1.321 . S
N333 Co336 2.135 . S
C334 N332 1.340 . S
C334 N333 1.321 . S
C334 H358 0.930 . S
H335 C330 0.931 . S
Co336 N333 2.135 . S
Co336 N339 2.121 . S
Co336 O344 2.055 . S
Co336 O347 2.039 . S
Co336 N350 2.140 . S
C337 O338 1.227 . S
C337 O347 1.265 . S
O338 C337 1.227 . S
N339 Co336 2.121 . S
N339 C341 1.375 . S
N339 C342 1.313 . S
C340 C341 1.338 . S
C340 N343 1.377 . S
C340 H360 0.930 . S
C341 N339 1.375 . S
C341 C340 1.338 . S
C341 H345 0.931 . S
C342 N339 1.313 . S
C342 N343 1.344 . S
C342 H346 0.930 . S
N343 C340 1.377 . S
N343 C342 1.344 . S
O344 Co336 2.055 . S
O344 C348 1.253 . S
H345 C341 0.931 . S
H346 C342 0.930 . S
O347 Co336 2.039 . S
O347 C337 1.265 . S
C348 O344 1.253 . S
C348 O349 1.227 . S
O349 C348 1.227 . S
N350 Co336 2.140 . S
N350 C353 1.346 . S
N350 C354 1.345 . S
C351 C352 1.387 . S
C351 C355 1.391 . S
C352 C351 1.387 . S
C352 C353 1.369 . S
C352 H361 0.929 . S
C353 N350 1.346 . S
C353 C352 1.369 . S
C353 H356 0.928 . S
C354 N350 1.345 . S
C354 C355 1.371 . S
C354 H357 0.931 . S
C355 C351 1.391 . S
C355 C354 1.371 . S
C355 H362 0.930 . S
H356 C353 0.928 . S
H357 C354 0.931 . S
H358 C334 0.930 . S
H359 C331 0.930 . S
H360 C340 0.930 . S
H361 C352 0.929 . S
H362 C355 0.930 . S
C363 C364 1.351 . S
C363 N366 1.368 . S
C363 H368 0.931 . S
C364 C363 1.351 . S
C364 N365 1.373 . S
C364 H392 0.930 . S
N365 C364 1.373 . S
N365 C367 1.340 1_554 S
N366 C363 1.368 . S
N366 C367 1.321 1_554 S
N366 Co369 2.135 1_554 S
C367 N365 1.340 1_556 S
C367 N366 1.321 1_556 S
C367 H391 0.930 . S
H368 C363 0.931 . S
Co369 N366 2.135 1_556 S
Co369 N372 2.121 . S
Co369 O377 2.055 1_556 S
Co369 O380 2.039 . S
Co369 N383 2.140 1_556 S
C370 O371 1.227 . S
C370 O380 1.265 . S
O371 C370 1.227 . S
N372 Co369 2.121 . S
N372 C374 1.375 . S
N372 C375 1.315 . S
C373 C374 1.338 . S
C373 N376 1.377 . S
C373 H393 0.930 . S
C374 N372 1.375 . S
C374 C373 1.338 . S
C374 H378 0.931 . S
C375 N372 1.315 . S
C375 N376 1.345 . S
C375 H379 0.928 1_556 S
N376 C373 1.377 . S
N376 C375 1.345 . S
O377 Co369 2.055 1_554 S
O377 C381 1.253 . S
H378 C374 0.931 . S
H379 C375 0.928 1_554 S
O380 Co369 2.039 . S
O380 C370 1.265 . S
C381 O377 1.253 . S
C381 O382 1.227 . S
O382 C381 1.227 . S
N383 Co369 2.140 1_554 S
N383 C386 1.346 1_554 S
N383 C387 1.345 . S
C384 C385 1.387 . S
C384 C388 1.391 . S
C385 C384 1.387 . S
C385 C386 1.369 1_554 S
C385 H394 0.929 1_554 S
C386 N383 1.346 1_556 S
C386 C385 1.369 1_556 S
C386 H389 0.928 . S
C387 N383 1.345 . S
C387 C388 1.371 . S
C387 H390 0.931 . S
C388 C384 1.391 . S
C388 C387 1.371 . S
C388 H395 0.930 . S
H389 C386 0.928 . S
H390 C387 0.931 . S
H391 C367 0.930 . S
H392 C364 0.930 . S
H393 C373 0.930 . S
H394 C385 0.929 1_556 S
H395 C388 0.930 . S
H396 C402 0.930 . S
H397 C406 0.930 . S
H398 C411 0.929 . S
H399 C409 0.929 . S
H400 C404 0.929 1_655 S
H401 C410 0.929 1_455 S
C402 H396 0.930 . S
C402 C403 1.367 . S
C402 C410 1.378 . S
C403 C402 1.367 . S
C403 C411 1.433 . S
C404 H400 0.929 1_455 S
C404 C406 1.378 . S
C404 C408 1.350 . S
C405 C408 1.463 1_655 S
C405 C410 1.350 . S
C405 N413 1.427 . S
C406 H397 0.930 . S
C406 C404 1.378 . S
C406 C407 1.367 . S
C407 C406 1.367 . S
C407 C409 1.433 . S
C408 C404 1.350 . S
C408 C405 1.463 1_455 S
C408 N412 1.427 . S
C409 H399 0.929 . S
C409 C407 1.433 . S
C409 N412 1.384 . S
C410 H401 0.929 1_655 S
C410 C402 1.378 . S
C410 C405 1.350 . S
C411 H398 0.929 . S
C411 C403 1.433 . S
C411 N413 1.384 . S
N412 C408 1.427 . S
N412 C409 1.384 . S
N413 C405 1.427 . S
N413 C411 1.384 . S
H414 C420 0.930 . S
H415 C424 0.930 . S
H416 C429 0.929 . S
H417 C427 0.929 . S
H418 C422 0.929 1_565 S
H419 C428 0.929 1_545 S
C420 H414 0.930 . S
C420 C421 1.367 . S
C420 C428 1.378 . S
C421 C420 1.367 . S
C421 C429 1.433 . S
C422 H418 0.929 1_545 S
C422 C424 1.378 . S
C422 C426 1.350 . S
C423 C426 1.463 1_565 S
C423 C428 1.350 . S
C423 N431 1.427 . S
C424 H415 0.930 . S
C424 C422 1.378 . S
C424 C425 1.367 . S
C425 C424 1.367 . S
C425 C427 1.433 . S
C426 C422 1.350 . S
C426 C423 1.463 1_545 S
C426 N430 1.427 . S
C427 H417 0.929 . S
C427 C425 1.433 . S
C427 N430 1.384 . S
C428 H419 0.929 1_565 S
C428 C420 1.378 . S
C428 C423 1.350 . S
C429 H416 0.929 . S
C429 C421 1.433 . S
C429 N431 1.384 . S
N430 C426 1.427 . S
N430 C427 1.384 . S
N431 C423 1.427 . S
N431 C429 1.384 . S
H432 C438 0.930 . S
H433 C442 0.930 . S
H434 C447 0.929 . S
H435 C445 0.929 . S
H436 C440 0.929 . S
H437 C446 0.929 . S
C438 H432 0.930 . S
C438 C439 1.367 . S
C438 C446 1.378 . S
C439 C438 1.367 . S
C439 C447 1.433 . S
C440 H436 0.929 . S
C440 C442 1.378 . S
C440 C444 1.350 . S
C441 C444 1.463 . S
C441 C446 1.350 . S
C441 N449 1.427 . S
C442 H433 0.930 . S
C442 C440 1.378 . S
C442 C443 1.367 . S
C443 C442 1.367 . S
C443 C445 1.433 . S
C444 C440 1.350 . S
C444 C441 1.463 . S
C444 N448 1.427 . S
C445 H435 0.929 . S
C445 C443 1.433 . S
C445 N448 1.384 . S
C446 H437 0.929 . S
C446 C438 1.378 . S
C446 C441 1.350 . S
C447 H434 0.929 . S
C447 C439 1.433 . S
C447 N449 1.384 . S
N448 C444 1.427 . S
N448 C445 1.384 . S
N449 C441 1.427 . S
N449 C447 1.384 . S
H450 C456 0.930 . S
H451 C460 0.930 . S
H452 C465 0.929 . S
H453 C463 0.929 . S
H454 C458 0.929 . S
H455 C464 0.929 . S
C456 H450 0.930 . S
C456 C457 1.367 . S
C456 C464 1.378 . S
C457 C456 1.367 . S
C457 C465 1.433 . S
C458 H454 0.929 . S
C458 C460 1.378 . S
C458 C462 1.350 . S
C459 C462 1.463 1_455 S
C459 C464 1.350 . S
C459 N467 1.427 . S
C460 H451 0.930 . S
C460 C458 1.378 . S
C460 C461 1.367 . S
C461 C460 1.367 . S
C461 C463 1.433 . S
C462 C458 1.350 . S
C462 C459 1.463 1_655 S
C462 N466 1.427 . S
C463 H453 0.929 . S
C463 C461 1.433 . S
C463 N466 1.384 . S
C464 H455 0.929 . S
C464 C456 1.378 . S
C464 C459 1.350 . S
C465 H452 0.929 . S
C465 C457 1.433 . S
C465 N467 1.384 . S
N466 C462 1.427 . S
N466 C463 1.384 . S
N467 C459 1.427 . S
N467 C465 1.384 . S
H468 C474 0.930 . S
H469 C478 0.930 . S
H470 C483 0.929 . S
H471 C481 0.929 . S
H472 C476 0.929 . S
H473 C482 0.929 . S
C474 H468 0.930 . S
C474 C475 1.367 . S
C474 C482 1.378 . S
C475 C474 1.367 . S
C475 C483 1.433 . S
C476 H472 0.929 . S
C476 C478 1.378 . S
C476 C480 1.350 . S
C477 C480 1.463 1_545 S
C477 C482 1.350 . S
C477 N485 1.433 . S
C478 H469 0.930 . S
C478 C476 1.378 . S
C478 C479 1.367 . S
C479 C478 1.367 . S
C479 C481 1.433 . S
C480 C476 1.350 . S
C480 C477 1.463 1_565 S
C480 N484 1.433 . S
C481 H471 0.929 . S
C481 C479 1.433 . S
C481 N484 1.389 . S
C482 H473 0.929 . S
C482 C474 1.378 . S
C482 C477 1.350 . S
C483 H470 0.929 . S
C483 C475 1.433 . S
C483 N485 1.389 . S
N484 C480 1.433 . S
N484 C481 1.389 . S
N485 C477 1.433 . S
N485 C483 1.389 . S
H486 C492 0.930 . S
H487 C496 0.930 . S
H488 C501 0.929 . S
H489 C499 0.929 . S
H490 C494 0.929 . S
H491 C500 0.929 . S
C492 H486 0.930 . S
C492 C493 1.367 . S
C492 C500 1.378 . S
C493 C492 1.367 . S
C493 C501 1.433 . S
C494 H490 0.929 . S
C494 C496 1.378 . S
C494 C498 1.350 . S
C495 C498 1.463 . S
C495 C500 1.350 . S
C495 N503 1.427 . S
C496 H487 0.930 . S
C496 C494 1.378 . S
C496 C497 1.367 . S
C497 C496 1.367 . S
C497 C499 1.433 . S
C498 C494 1.350 . S
C498 C495 1.463 . S
C498 N502 1.427 . S
C499 H489 0.929 . S
C499 C497 1.433 . S
C499 N502 1.384 . S
C500 H491 0.929 . S
C500 C492 1.378 . S
C500 C495 1.350 . S
C501 H488 0.929 . S
C501 C493 1.433 . S
C501 N503 1.384 . S
N502 C498 1.427 . S
N502 C499 1.384 . S
N503 C495 1.427 . S
N503 C501 1.384 . S
H504 C510 0.930 . S
H505 C514 0.930 . S
H506 C519 0.929 . S
H507 C517 0.929 . S
H508 C512 0.929 . S
H509 C518 0.929 . S
C510 H504 0.930 . S
C510 C511 1.367 . S
C510 C518 1.378 . S
C511 C510 1.367 . S
C511 C519 1.433 . S
C512 H508 0.929 . S
C512 C514 1.378 . S
C512 C516 1.350 . S
C513 C516 1.463 . S
C513 C518 1.350 . S
C513 N521 1.427 . S
C514 H505 0.930 . S
C514 C512 1.378 . S
C514 C515 1.367 . S
C515 C514 1.367 . S
C515 C517 1.433 . S
C516 C512 1.350 . S
C516 C513 1.463 . S
C516 N520 1.427 . S
C517 H507 0.929 . S
C517 C515 1.433 . S
C517 N520 1.384 . S
C518 H509 0.929 . S
C518 C510 1.378 . S
C518 C513 1.350 . S
C519 H506 0.929 . S
C519 C511 1.433 . S
C519 N521 1.384 . S
N520 C516 1.427 . S
N520 C517 1.384 . S
N521 C513 1.427 . S
N521 C519 1.384 . S
H522 C528 0.930 . S
H523 C532 0.930 . S
H524 C537 0.929 . S
H525 C535 0.929 . S
H526 C530 0.929 . S
H527 C536 0.929 . S
C528 H522 0.930 . S
C528 C529 1.367 . S
C528 C536 1.378 . S
C529 C528 1.367 . S
C529 C537 1.433 . S
C530 H526 0.929 . S
C530 C532 1.378 . S
C530 C534 1.350 . S
C531 C534 1.463 . S
C531 C536 1.350 . S
C531 N539 1.427 . S
C532 H523 0.930 . S
C532 C530 1.378 . S
C532 C533 1.367 . S
C533 C532 1.367 . S
C533 C535 1.433 . S
C534 C530 1.350 . S
C534 C531 1.463 . S
C534 N538 1.427 . S
C535 H525 0.929 . S
C535 C533 1.433 . S
C535 N538 1.384 . S
C536 H527 0.929 . S
C536 C528 1.378 . S
C536 C531 1.350 . S
C537 H524 0.929 . S
C537 C529 1.433 . S
C537 N539 1.384 . S
N538 C534 1.427 . S
N538 C535 1.384 . S
N539 C531 1.427 . S
N539 C537 1.384 . S
H540 C546 0.930 . S
H541 C550 0.930 . S
H542 C555 0.929 . S
H543 C553 0.929 . S
H544 C548 0.929 . S
H545 C554 0.929 . S
C546 H540 0.930 . S
C546 C547 1.367 . S
C546 C554 1.378 . S
C547 C546 1.367 . S
C547 C555 1.433 . S
C548 H544 0.929 . S
C548 C550 1.378 . S
C548 C552 1.350 . S
C549 C552 1.463 . S
C549 C554 1.350 . S
C549 N557 1.427 . S
C550 H541 0.930 . S
C550 C548 1.378 . S
C550 C551 1.367 . S
C551 C550 1.367 . S
C551 C553 1.433 . S
C552 C548 1.350 . S
C552 C549 1.463 . S
C552 N556 1.427 . S
C553 H543 0.929 . S
C553 C551 1.433 . S
C553 N556 1.384 . S
C554 H545 0.929 . S
C554 C546 1.378 . S
C554 C549 1.350 . S
C555 H542 0.929 . S
C555 C547 1.433 . S
C555 N557 1.384 . S
N556 C552 1.427 . S
N556 C553 1.384 . S
N557 C549 1.427 . S
N557 C555 1.384 . S
H558 C564 0.930 . S
H559 C568 0.930 . S
H560 C573 0.929 . S
H561 C571 0.929 . S
H562 C566 0.929 . S
H563 C572 0.929 . S
C564 H558 0.930 . S
C564 C565 1.367 . S
C564 C572 1.378 . S
C565 C564 1.367 . S
C565 C573 1.433 . S
C566 H562 0.929 . S
C566 C568 1.378 . S
C566 C570 1.350 . S
C567 C570 1.463 . S
C567 C572 1.350 . S
C567 N575 1.427 . S
C568 H559 0.930 . S
C568 C566 1.378 . S
C568 C569 1.367 . S
C569 C568 1.367 . S
C569 C571 1.433 . S
C570 C566 1.350 . S
C570 C567 1.463 . S
C570 N574 1.427 . S
C571 H561 0.929 . S
C571 C569 1.433 . S
C571 N574 1.384 . S
C572 H563 0.929 . S
C572 C564 1.378 . S
C572 C567 1.350 . S
C573 H560 0.929 . S
C573 C565 1.433 . S
C573 N575 1.384 . S
N574 C570 1.427 . S
N574 C571 1.384 . S
N575 C567 1.427 . S
N575 C573 1.384 . S
H576 C582 0.930 . S
H577 C586 0.930 . S
H578 C591 0.929 . S
H579 C589 0.929 . S
H580 C584 0.929 . S
H581 C590 0.929 . S
C582 H576 0.930 . S
C582 C583 1.367 . S
C582 C590 1.378 . S
C583 C582 1.367 . S
C583 C591 1.433 . S
C584 H580 0.929 . S
C584 C586 1.378 . S
C584 C588 1.350 . S
C585 C588 1.463 . S
C585 C590 1.350 . S
C585 N593 1.427 . S
C586 H577 0.930 . S
C586 C584 1.378 . S
C586 C587 1.367 . S
C587 C586 1.367 . S
C587 C589 1.433 . S
C588 C584 1.350 . S
C588 C585 1.463 . S
C588 N592 1.427 . S
C589 H579 0.929 . S
C589 C587 1.433 . S
C589 N592 1.384 . S
C590 H581 0.929 . S
C590 C582 1.378 . S
C590 C585 1.350 . S
C591 H578 0.929 . S
C591 C583 1.433 . S
C591 N593 1.384 . S
N592 C588 1.427 . S
N592 C589 1.384 . S
N593 C585 1.427 . S
N593 C591 1.384 . S
H594 C600 0.930 . S
H595 C604 0.930 . S
H596 C609 0.929 . S
H597 C607 0.929 . S
H598 C602 0.929 . S
H599 C608 0.929 . S
C600 H594 0.930 . S
C600 C601 1.367 . S
C600 C608 1.378 . S
C601 C600 1.367 . S
C601 C609 1.433 . S
C602 H598 0.929 . S
C602 C604 1.378 . S
C602 C606 1.350 . S
C603 C606 1.463 . S
C603 C608 1.350 . S
C603 N611 1.427 . S
C604 H595 0.930 . S
C604 C602 1.378 . S
C604 C605 1.367 . S
C605 C604 1.367 . S
C605 C607 1.433 . S
C606 C602 1.350 . S
C606 C603 1.463 . S
C606 N610 1.427 . S
C607 H597 0.929 . S
C607 C605 1.433 . S
C607 N610 1.384 . S
C608 H599 0.929 . S
C608 C600 1.378 . S
C608 C603 1.350 . S
C609 H596 0.929 . S
C609 C601 1.433 . S
C609 N611 1.384 . S
N610 C606 1.427 . S
N610 C607 1.384 . S
N611 C603 1.427 . S
N611 C609 1.384 . S
H612 C618 0.930 1_455 S
H613 C622 0.930 1_655 S
H614 C627 0.929 . S
H615 C625 0.929 . S
H616 C620 0.929 . S
H617 C626 0.929 . S
C618 H612 0.930 1_655 S
C618 C619 1.367 . S
C618 C626 1.378 1_655 S
C619 C618 1.367 . S
C619 C627 1.433 . S
C620 H616 0.929 . S
C620 C622 1.378 1_655 S
C620 C624 1.350 1_655 S
C621 C624 1.463 1_655 S
C621 C626 1.350 1_655 S
C621 N629 1.427 . S
C622 H613 0.930 1_455 S
C622 C620 1.378 1_455 S
C622 C623 1.367 . S
C623 C622 1.367 . S
C623 C625 1.433 . S
C624 C620 1.350 1_455 S
C624 C621 1.463 1_455 S
C624 N628 1.427 . S
C625 H615 0.929 . S
C625 C623 1.433 . S
C625 N628 1.384 . S
C626 H617 0.929 . S
C626 C618 1.378 1_455 S
C626 C621 1.350 1_455 S
C627 H614 0.929 . S
C627 C619 1.433 . S
C627 N629 1.384 . S
N628 C624 1.427 . S
N628 C625 1.384 . S
N629 C621 1.427 . S
N629 C627 1.384 . S
H630 C636 0.930 . S
H631 C640 0.930 . S
H632 C645 0.929 . S
H633 C643 0.929 . S
H634 C638 0.929 . S
H635 C644 0.929 . S
C636 H630 0.930 . S
C636 C637 1.367 . S
C636 C644 1.378 . S
C637 C636 1.367 . S
C637 C645 1.433 . S
C638 H634 0.929 . S
C638 C640 1.378 . S
C638 C642 1.350 . S
C639 C642 1.463 1_545 S
C639 C644 1.350 . S
C639 N647 1.427 . S
C640 H631 0.930 . S
C640 C638 1.378 . S
C640 C641 1.367 . S
C641 C640 1.367 . S
C641 C643 1.433 . S
C642 C638 1.350 . S
C642 C639 1.463 1_565 S
C642 N646 1.427 . S
C643 H633 0.929 . S
C643 C641 1.433 . S
C643 N646 1.384 . S
C644 H635 0.929 . S
C644 C636 1.378 . S
C644 C639 1.350 . S
C645 H632 0.929 . S
C645 C637 1.433 . S
C645 N647 1.384 . S
N646 C642 1.427 . S
N646 C643 1.384 . S
N647 C639 1.427 . S
N647 C645 1.384 . S
H648 C654 0.930 . S
H649 C658 0.930 . S
H650 C663 0.929 . S
H651 C661 0.929 . S
H652 C656 0.929 . S
H653 C662 0.929 . S
C654 H648 0.930 . S
C654 C655 1.367 1_556 S
C654 C662 1.378 . S
C655 C654 1.367 1_554 S
C655 C663 1.433 . S
C656 H652 0.929 . S
C656 C658 1.378 . S
C656 C660 1.350 . S
C657 C660 1.463 . S
C657 C662 1.350 1_554 S
C657 N665 1.427 . S
C658 H649 0.930 . S
C658 C656 1.378 . S
C658 C659 1.367 . S
C659 C658 1.367 . S
C659 C661 1.433 1_554 S
C660 C656 1.350 . S
C660 C657 1.463 . S
C660 N664 1.427 1_554 S
C661 H651 0.929 . S
C661 C659 1.433 1_556 S
C661 N664 1.384 . S
C662 H653 0.929 . S
C662 C654 1.378 . S
C662 C657 1.350 1_556 S
C663 H650 0.929 . S
C663 C655 1.433 . S
C663 N665 1.384 . S
N664 C660 1.427 1_556 S
N664 C661 1.384 . S
N665 C657 1.427 . S
N665 C663 1.384 . S
H666 C672 0.931 1_545 S
H667 C676 0.931 1_565 S
H668 C681 0.929 . S
H669 C679 0.929 . S
H670 C674 0.929 . S
H671 C680 0.929 . S
C672 H666 0.931 1_565 S
C672 C673 1.367 . S
C672 C680 1.378 1_565 S
C673 C672 1.367 . S
C673 C681 1.433 . S
C674 H670 0.929 . S
C674 C676 1.378 1_565 S
C674 C678 1.350 1_565 S
C675 C678 1.463 1_565 S
C675 C680 1.350 1_565 S
C675 N683 1.427 . S
C676 H667 0.931 1_545 S
C676 C674 1.378 1_545 S
C676 C677 1.367 . S
C677 C676 1.367 . S
C677 C679 1.433 . S
C678 C674 1.350 1_545 S
C678 C675 1.463 1_545 S
C678 N682 1.427 . S
C679 H669 0.929 . S
C679 C677 1.433 . S
C679 N682 1.384 . S
C680 H671 0.929 . S
C680 C672 1.378 1_545 S
C680 C675 1.350 1_545 S
C681 H668 0.929 . S
C681 C673 1.433 . S
C681 N683 1.384 . S
N682 C678 1.427 . S
N682 C679 1.384 . S
N683 C675 1.427 . S
N683 C681 1.384 . S
H684 C690 0.930 . S
H685 C694 0.930 . S
H686 C699 0.929 . S
H687 C697 0.929 . S
H688 C692 0.929 . S
H689 C698 0.929 . S
C690 H684 0.930 . S
C690 C691 1.367 . S
C690 C698 1.378 . S
C691 C690 1.367 . S
C691 C699 1.433 . S
C692 H688 0.929 . S
C692 C694 1.378 . S
C692 C696 1.350 . S
C693 C696 1.463 . S
C693 C698 1.350 . S
C693 N701 1.427 . S
C694 H685 0.930 . S
C694 C692 1.378 . S
C694 C695 1.367 . S
C695 C694 1.367 . S
C695 C697 1.433 . S
C696 C692 1.350 . S
C696 C693 1.463 . S
C696 N700 1.427 . S
C697 H687 0.929 . S
C697 C695 1.433 . S
C697 N700 1.384 . S
C698 H689 0.929 . S
C698 C690 1.378 . S
C698 C693 1.350 . S
C699 H686 0.929 . S
C699 C691 1.433 . S
C699 N701 1.384 . S
N700 C696 1.427 . S
N700 C697 1.384 . S
N701 C693 1.427 . S
N701 C699 1.384 . S
H702 C708 0.930 . S
H703 C712 0.930 . S
H704 C717 0.929 . S
H705 C715 0.929 . S
H706 C710 0.922 1_655 S
H707 C716 0.922 1_455 S
C708 H702 0.930 . S
C708 C709 1.367 1_554 S
C708 C716 1.378 . S
C709 C708 1.367 1_556 S
C709 C717 1.433 . S
C710 H706 0.922 1_455 S
C710 C712 1.378 . S
C710 C714 1.356 . S
C711 C714 1.463 1_655 S
C711 C716 1.356 1_556 S
C711 N719 1.427 . S
C712 H703 0.930 . S
C712 C710 1.378 . S
C712 C713 1.367 . S
C713 C712 1.367 . S
C713 C715 1.433 1_556 S
C714 C710 1.356 . S
C714 C711 1.463 1_455 S
C714 N718 1.427 1_556 S
C715 H705 0.929 . S
C715 C713 1.433 1_554 S
C715 N718 1.384 . S
C716 H707 0.922 1_655 S
C716 C708 1.378 . S
C716 C711 1.356 1_554 S
C717 H704 0.929 . S
C717 C709 1.433 . S
C717 N719 1.384 . S
N718 C714 1.427 1_554 S
N718 C715 1.384 . S
N719 C711 1.427 . S
N719 C717 1.384 . S
H720 C726 0.930 . S
H721 C730 0.930 . S
H722 C735 0.929 . S
H723 C733 0.929 . S
H724 C728 0.929 . S
H725 C734 0.929 . S
C726 H720 0.930 . S
C726 C727 1.367 . S
C726 C734 1.378 . S
C727 C726 1.367 . S
C727 C735 1.433 . S
C728 H724 0.929 . S
C728 C730 1.378 . S
C728 C732 1.350 . S
C729 C732 1.463 . S
C729 C734 1.350 . S
C729 N737 1.427 . S
C730 H721 0.930 . S
C730 C728 1.378 . S
C730 C731 1.367 . S
C731 C730 1.367 . S
C731 C733 1.433 . S
C732 C728 1.350 . S
C732 C729 1.463 . S
C732 N736 1.427 . S
C733 H723 0.929 . S
C733 C731 1.433 . S
C733 N736 1.384 . S
C734 H725 0.929 . S
C734 C726 1.378 . S
C734 C729 1.350 . S
C735 H722 0.929 . S
C735 C727 1.433 . S
C735 N737 1.384 . S
N736 C732 1.427 . S
N736 C733 1.384 . S
N737 C729 1.427 . S
N737 C735 1.384 . S
H738 C744 0.930 . S
H739 C748 0.930 . S
H740 C753 0.929 . S
H741 C751 0.929 . S
H742 C746 0.929 . S
H743 C752 0.929 . S
C744 H738 0.930 . S
C744 C745 1.367 . S
C744 C752 1.378 . S
C745 C744 1.367 . S
C745 C753 1.433 . S
C746 H742 0.929 . S
C746 C748 1.378 . S
C746 C750 1.350 . S
C747 C750 1.463 1_655 S
C747 C752 1.350 . S
C747 N755 1.427 . S
C748 H739 0.930 . S
C748 C746 1.378 . S
C748 C749 1.367 . S
C749 C748 1.367 . S
C749 C751 1.433 . S
C750 C746 1.350 . S
C750 C747 1.463 1_455 S
C750 N754 1.427 . S
C751 H741 0.929 . S
C751 C749 1.433 . S
C751 N754 1.384 . S
C752 H743 0.929 . S
C752 C744 1.378 . S
C752 C747 1.350 . S
C753 H740 0.929 . S
C753 C745 1.433 . S
C753 N755 1.384 . S
N754 C750 1.427 . S
N754 C751 1.384 . S
N755 C747 1.427 . S
N755 C753 1.384 . S
H756 C762 0.930 . S
H757 C766 0.930 . S
H758 C771 0.929 . S
H759 C769 0.929 . S
H760 C764 0.928 1_554 S
H761 C770 0.928 1_556 S
C762 H756 0.930 . S
C762 C763 1.367 . S
C762 C770 1.379 . S
C763 C762 1.367 . S
C763 C771 1.433 . S
C764 H760 0.928 1_556 S
C764 C766 1.378 . S
C764 C768 1.350 . S
C765 C768 1.463 1_544 S
C765 C770 1.350 . S
C765 N773 1.427 . S
C766 H757 0.930 . S
C766 C764 1.378 . S
C766 C767 1.367 . S
C767 C766 1.367 . S
C767 C769 1.433 . S
C768 C764 1.350 . S
C768 C765 1.463 1_566 S
C768 N772 1.427 . S
C769 H759 0.929 . S
C769 C767 1.433 . S
C769 N772 1.384 . S
C770 H761 0.928 1_554 S
C770 C762 1.379 . S
C770 C765 1.350 . S
C771 H758 0.929 . S
C771 C763 1.433 . S
C771 N773 1.384 . S
N772 C768 1.427 . S
N772 C769 1.384 . S
N773 C765 1.427 . S
N773 C771 1.384 . S
H774 C780 0.930 . S
H775 C784 0.930 . S
H776 C789 0.929 . S
H777 C787 0.929 . S
H778 C782 0.929 . S
H779 C788 0.929 . S
C780 H774 0.930 . S
C780 C781 1.367 . S
C780 C788 1.378 . S
C781 C780 1.367 . S
C781 C789 1.433 . S
C782 H778 0.929 . S
C782 C784 1.378 . S
C782 C786 1.350 . S
C783 C786 1.463 . S
C783 C788 1.350 . S
C783 N791 1.427 . S
C784 H775 0.930 . S
C784 C782 1.378 . S
C784 C785 1.367 . S
C785 C784 1.367 . S
C785 C787 1.433 . S
C786 C782 1.350 . S
C786 C783 1.463 . S
C786 N790 1.427 . S
C787 H777 0.929 . S
C787 C785 1.433 . S
C787 N790 1.384 . S
C788 H779 0.929 . S
C788 C780 1.378 . S
C788 C783 1.350 . S
C789 H776 0.929 . S
C789 C781 1.433 . S
C789 N791 1.384 . S
N790 C786 1.427 . S
N790 C787 1.384 . S
N791 C783 1.427 . S
N791 C789 1.384 . S
H792 C798 0.930 . S
H793 C802 0.930 . S
H794 C807 0.929 . S
H795 C805 0.929 . S
H796 C800 0.929 . S
H797 C806 0.929 . S
C798 H792 0.930 . S
C798 C799 1.367 . S
C798 C806 1.378 . S
C799 C798 1.367 . S
C799 C807 1.433 . S
C800 H796 0.929 . S
C800 C802 1.378 . S
C800 C804 1.350 . S
C801 C804 1.463 1_455 S
C801 C806 1.350 . S
C801 N809 1.427 . S
C802 H793 0.930 . S
C802 C800 1.378 . S
C802 C803 1.367 . S
C803 C802 1.367 . S
C803 C805 1.433 . S
C804 C800 1.350 . S
C804 C801 1.463 1_655 S
C804 N808 1.427 . S
C805 H795 0.929 . S
C805 C803 1.433 . S
C805 N808 1.384 . S
C806 H797 0.929 . S
C806 C798 1.378 . S
C806 C801 1.350 . S
C807 H794 0.929 . S
C807 C799 1.433 . S
C807 N809 1.384 . S
N808 C804 1.427 . S
N808 C805 1.384 . S
N809 C801 1.427 . S
N809 C807 1.384 . S
H810 C816 0.930 . S
H811 C820 0.930 . S
H812 C825 0.929 . S
H813 C823 0.929 . S
H814 C818 0.929 . S
H815 C824 0.929 . S
C816 H810 0.930 . S
C816 C817 1.367 . S
C816 C824 1.378 . S
C817 C816 1.367 . S
C817 C825 1.433 1_556 S
C818 H814 0.929 . S
C818 C820 1.378 . S
C818 C822 1.350 . S
C819 C822 1.463 1_546 S
C819 C824 1.350 . S
C819 N827 1.427 1_556 S
C820 H811 0.930 . S
C820 C818 1.378 . S
C820 C821 1.367 . S
C821 C820 1.367 . S
C821 C823 1.433 1_554 S
C822 C818 1.350 . S
C822 C819 1.463 1_564 S
C822 N826 1.427 1_554 S
C823 H813 0.929 . S
C823 C821 1.433 1_556 S
C823 N826 1.384 . S
C824 H815 0.929 . S
C824 C816 1.378 . S
C824 C819 1.350 . S
C825 H812 0.929 . S
C825 C817 1.433 1_554 S
C825 N827 1.384 . S
N826 C822 1.427 1_556 S
N826 C823 1.384 . S
N827 C819 1.427 1_554 S
N827 C825 1.384 . S
H828 C834 0.930 . S
H829 C838 0.930 . S
H830 C843 0.929 . S
H831 C841 0.929 . S
H832 C836 0.929 . S
H833 C842 0.929 . S
C834 H828 0.930 . S
C834 C835 1.367 . S
C834 C842 1.378 . S
C835 C834 1.367 . S
C835 C843 1.433 . S
C836 H832 0.929 . S
C836 C838 1.378 . S
C836 C840 1.350 . S
C837 C840 1.463 . S
C837 C842 1.350 . S
C837 N845 1.427 . S
C838 H829 0.930 . S
C838 C836 1.378 . S
C838 C839 1.367 . S
C839 C838 1.367 . S
C839 C841 1.433 . S
C840 C836 1.350 . S
C840 C837 1.463 . S
C840 N844 1.427 . S
C841 H831 0.929 . S
C841 C839 1.433 . S
C841 N844 1.384 . S
C842 H833 0.929 . S
C842 C834 1.378 . S
C842 C837 1.350 . S
C843 H830 0.929 . S
C843 C835 1.433 . S
C843 N845 1.384 . S
N844 C840 1.427 . S
N844 C841 1.384 . S
N845 C837 1.427 . S
N845 C843 1.384 . S
H846 C852 0.930 . S
H847 C856 0.930 . S
H848 C861 0.929 . S
H849 C859 0.929 . S
H850 C854 0.929 . S
H851 C860 0.929 . S
C852 H846 0.930 . S
C852 C853 1.367 . S
C852 C860 1.378 . S
C853 C852 1.367 . S
C853 C861 1.433 . S
C854 H850 0.929 . S
C854 C856 1.378 . S
C854 C858 1.350 . S
C855 C858 1.463 . S
C855 C860 1.350 . S
C855 N863 1.427 . S
C856 H847 0.930 . S
C856 C854 1.378 . S
C856 C857 1.367 . S
C857 C856 1.367 . S
C857 C859 1.433 . S
C858 C854 1.350 . S
C858 C855 1.463 . S
C858 N862 1.427 . S
C859 H849 0.929 . S
C859 C857 1.433 . S
C859 N862 1.384 . S
C860 H851 0.929 . S
C860 C852 1.378 . S
C860 C855 1.350 . S
C861 H848 0.929 . S
C861 C853 1.433 . S
C861 N863 1.384 . S
N862 C858 1.427 . S
N862 C859 1.384 . S
N863 C855 1.427 . S
N863 C861 1.384 . S
H864 C870 0.930 . S
H865 C874 0.930 . S
H866 C879 0.929 . S
H867 C877 0.929 . S
H868 C872 0.929 . S
H869 C878 0.929 . S
C870 H864 0.930 . S
C870 C871 1.367 . S
C870 C878 1.378 . S
C871 C870 1.367 . S
C871 C879 1.433 . S
C872 H868 0.929 . S
C872 C874 1.378 . S
C872 C876 1.350 . S
C873 C876 1.463 1_556 S
C873 C878 1.350 . S
C873 N881 1.427 1_556 S
C874 H865 0.930 . S
C874 C872 1.378 . S
C874 C875 1.367 . S
C875 C874 1.367 . S
C875 C877 1.433 . S
C876 C872 1.350 . S
C876 C873 1.463 1_554 S
C876 N880 1.427 1_554 S
C877 H867 0.929 . S
C877 C875 1.433 . S
C877 N880 1.384 1_554 S
C878 H869 0.929 . S
C878 C870 1.378 . S
C878 C873 1.350 . S
C879 H866 0.929 . S
C879 C871 1.433 . S
C879 N881 1.384 1_556 S
N880 C876 1.427 1_556 S
N880 C877 1.384 1_556 S
N881 C873 1.427 1_554 S
N881 C879 1.384 1_554 S
H882 C888 0.930 . S
H883 C892 0.930 . S
H884 C897 0.929 . S
H885 C895 0.929 . S
H886 C890 0.929 . S
H887 C896 0.929 . S
C888 H882 0.930 . S
C888 C889 1.367 . S
C888 C896 1.378 . S
C889 C888 1.367 . S
C889 C897 1.433 . S
C890 H886 0.929 . S
C890 C892 1.378 . S
C890 C894 1.350 . S
C891 C894 1.463 . S
C891 C896 1.350 . S
C891 N899 1.427 . S
C892 H883 0.930 . S
C892 C890 1.378 . S
C892 C893 1.367 . S
C893 C892 1.367 . S
C893 C895 1.433 . S
C894 C890 1.350 . S
C894 C891 1.463 . S
C894 N898 1.427 . S
C895 H885 0.929 . S
C895 C893 1.433 . S
C895 N898 1.384 . S
C896 H887 0.929 . S
C896 C888 1.378 . S
C896 C891 1.350 . S
C897 H884 0.929 . S
C897 C889 1.433 . S
C897 N899 1.384 . S
N898 C894 1.427 . S
N898 C895 1.384 . S
N899 C891 1.427 . S
N899 C897 1.384 . S
H900 C906 0.930 . S
H901 C910 0.930 . S
H902 C915 0.929 . S
H903 C913 0.929 . S
H904 C908 0.929 . S
H905 C914 0.929 . S
C906 H900 0.930 . S
C906 C907 1.367 . S
C906 C914 1.378 . S
C907 C906 1.367 . S
C907 C915 1.433 . S
C908 H904 0.929 . S
C908 C910 1.378 . S
C908 C912 1.350 . S
C909 C912 1.463 . S
C909 C914 1.350 . S
C909 N917 1.427 . S
C910 H901 0.930 . S
C910 C908 1.378 . S
C910 C911 1.367 . S
C911 C910 1.367 . S
C911 C913 1.433 . S
C912 C908 1.350 . S
C912 C909 1.463 . S
C912 N916 1.427 . S
C913 H903 0.929 . S
C913 C911 1.433 . S
C913 N916 1.384 . S
C914 H905 0.929 . S
C914 C906 1.378 . S
C914 C909 1.350 . S
C915 H902 0.929 . S
C915 C907 1.433 . S
C915 N917 1.384 . S
N916 C912 1.427 . S
N916 C913 1.384 . S
N917 C909 1.427 . S
N917 C915 1.384 . S
H918 C924 0.930 . S
H919 C928 0.930 . S
H920 C933 0.929 . S
H921 C931 0.929 . S
H922 C926 0.932 . S
H923 C932 0.929 . S
C924 H918 0.930 . S
C924 C925 1.367 . S
C924 C932 1.377 1_556 S
C925 C924 1.367 . S
C925 C933 1.433 . S
C926 H922 0.932 . S
C926 C928 1.376 1_556 S
C926 C930 1.349 1_556 S
C927 C930 1.463 1_556 S
C927 C932 1.350 1_556 S
C927 N935 1.427 . S
C928 H919 0.930 . S
C928 C926 1.376 1_554 S
C928 C929 1.367 . S
C929 C928 1.367 . S
C929 C931 1.433 . S
C930 C926 1.349 1_554 S
C930 C927 1.463 1_554 S
C930 N934 1.427 . S
C931 H921 0.929 . S
C931 C929 1.433 . S
C931 N934 1.384 . S
C932 H923 0.929 . S
C932 C924 1.377 1_554 S
C932 C927 1.350 1_554 S
C933 H920 0.929 . S
C933 C925 1.433 . S
C933 N935 1.384 . S
N934 C930 1.427 . S
N934 C931 1.384 . S
N935 C927 1.427 . S
N935 C933 1.384 . S
C403 C381 1.907 . S
C407 C18 1.899 . S
C421 C216 1.991 . S
C425 C51 1.995 . S
C439 C84 1.904 . S
C443 C249 1.903 . S
C457 C282 1.901 . S
C461 C117 1.903 . S
C475 C315 1.992 . S
C479 C150 1.989 . S
C493 C348 1.906 . S
C497 C183 1.900 . S
C511 C7 0.556 . S
C515 C337 0.575 . S
C529 C40 0.604 . S
C533 C370 0.586 . S
C547 C205 0.572 . S
C551 C73 0.592 . S
C565 C238 0.543 . S
C569 C106 0.526 . S
C583 C271 0.575 . S
C587 C139 0.576 . S
C601 C172 0.611 . S
C605 C304 0.622 . S
C619 N112 1.283 . S
C623 N13 1.284 . S
C637 N46 1.282 . S
C641 N145 1.293 . S
C655 N178 1.293 . S
C659 N79 1.284 . S
C673 N211 1.292 . S
C677 N310 1.289 . S
C691 N244 1.287 . S
C695 N343 1.278 . S
C709 N376 1.293 . S
C713 N277 1.286 . S
C727 N2 0.944 . S
C731 N299 0.945 . S
C745 N35 0.944 . S
C749 N332 0.945 . S
C763 N365 0.943 . S
C767 N68 0.936 . S
C781 N101 0.953 . S
C785 N200 0.945 . S
C799 N134 0.956 . S
C803 N233 0.947 . S
C817 N167 0.936 . S
C821 N266 0.932 . S
C835 C219 1.692 . S
C839 C21 1.691 . S
C853 C252 1.689 . S
C857 C54 1.690 . S
C871 C87 1.689 . S
C875 C285 1.690 . S
C889 C318 1.698 . S
C893 C120 1.697 . S
C907 C153 1.697 . S
C911 C351 1.696 . S
C925 C186 1.687 . S
C929 C384 1.687 . S
