# Generated by pormake.
# Topology ske, (6)-cn, num edge types: 1
# Building blocks:
#     Node 0, Type 0, BuildingBlock: PAMTOO_clean_sbu_0, # of connection points: 6
#     Node 1, Type 0, BuildingBlock: PAMTOO_clean_sbu_0, # of connection points: 6
#     Node 2, Type 0, BuildingBlock: PAMTOO_clean_sbu_0, # of connection points: 6
#     Node 3, Type 0, BuildingBlock: PAMTOO_clean_sbu_0, # of connection points: 6
#     Node 4, Type 0, BuildingBlock: PAMTOO_clean_sbu_0, # of connection points: 6
#     Node 5, Type 0, BuildingBlock: PAMTOO_clean_sbu_0, # of connection points: 6
#     Node 6, Type 0, BuildingBlock: PAMTOO_clean_sbu_0, # of connection points: 6
#     Node 7, Type 0, BuildingBlock: PAMTOO_clean_sbu_0, # of connection points: 6
#     Edge 8, Type (0, 0), BuildingBlock: CIFDUS_clean_linker_0, # of connection points: 2
#     Edge 9, Type (0, 0), BuildingBlock: CIFDUS_clean_linker_0, # of connection points: 2
#     Edge 10, Type (0, 0), BuildingBlock: CIFDUS_clean_linker_0, # of connection points: 2
#     Edge 11, Type (0, 0), BuildingBlock: CIFDUS_clean_linker_0, # of connection points: 2
#     Edge 12, Type (0, 0), BuildingBlock: CIFDUS_clean_linker_0, # of connection points: 2
#     Edge 13, Type (0, 0), BuildingBlock: CIFDUS_clean_linker_0, # of connection points: 2
#     Edge 14, Type (0, 0), BuildingBlock: CIFDUS_clean_linker_0, # of connection points: 2
#     Edge 15, Type (0, 0), BuildingBlock: CIFDUS_clean_linker_0, # of connection points: 2
#     Edge 16, Type (0, 0), BuildingBlock: CIFDUS_clean_linker_0, # of connection points: 2
#     Edge 17, Type (0, 0), BuildingBlock: CIFDUS_clean_linker_0, # of connection points: 2
#     Edge 18, Type (0, 0), BuildingBlock: CIFDUS_clean_linker_0, # of connection points: 2
#     Edge 19, Type (0, 0), BuildingBlock: CIFDUS_clean_linker_0, # of connection points: 2
#     Edge 20, Type (0, 0), BuildingBlock: CIFDUS_clean_linker_0, # of connection points: 2
#     Edge 21, Type (0, 0), BuildingBlock: CIFDUS_clean_linker_0, # of connection points: 2
#     Edge 22, Type (0, 0), BuildingBlock: CIFDUS_clean_linker_0, # of connection points: 2
#     Edge 23, Type (0, 0), BuildingBlock: CIFDUS_clean_linker_0, # of connection points: 2
#     Edge 24, Type (0, 0), BuildingBlock: CIFDUS_clean_linker_0, # of connection points: 2
#     Edge 25, Type (0, 0), BuildingBlock: CIFDUS_clean_linker_0, # of connection points: 2
#     Edge 26, Type (0, 0), BuildingBlock: CIFDUS_clean_linker_0, # of connection points: 2
#     Edge 27, Type (0, 0), BuildingBlock: CIFDUS_clean_linker_0, # of connection points: 2
#     Edge 28, Type (0, 0), BuildingBlock: CIFDUS_clean_linker_0, # of connection points: 2
#     Edge 29, Type (0, 0), BuildingBlock: CIFDUS_clean_linker_0, # of connection points: 2
#     Edge 30, Type (0, 0), BuildingBlock: CIFDUS_clean_linker_0, # of connection points: 2
#     Edge 31, Type (0, 0), BuildingBlock: CIFDUS_clean_linker_0, # of connection points: 2
# Relax obj value: 0.157
# Max RMSD: 0.181
# Mean RMSD: 0.175
data_MOF--net-ske--node1-PAMTOO_clean_sbu_0--edge1-CIFDUS_clean_linker_0
_symmetry_space_group_name_H-M    P1
_symmetry_Int_Tables_number       1
_symmetry_cell_setting            triclinic
loop_
_symmetry_equiv_pos_as_xyz
'x, y, z'
_cell_length_a     94.997123
_cell_length_b     26.627146
_cell_length_c     13.458635
_cell_angle_alpha  90.307147
_cell_angle_beta   89.893704
_cell_angle_gamma 89.79992
loop_
_atom_site_label
_atom_site_type_symbol
_atom_site_fract_x
_atom_site_fract_y
_atom_site_fract_z
_atom_type_partial_charge
Dy0 Dy 0.16552 0.2145 0.55405 0.0
Dy1 Dy 0.13048 0.21867 0.53722 0.0
C2 C 0.147 0.11659 0.55412 0.0
O3 O 0.16108 0.22769 0.39439 0.0
O4 O 0.13779 0.20417 0.38177 0.0
O5 O 0.18415 0.17071 0.58662 0.0
O6 O 0.18611 0.24655 0.52957 0.0
O7 O 0.1386 0.29389 0.49377 0.0
O8 O 0.15877 0.29368 0.5871 0.0
O9 O 0.13536 0.23524 0.69569 0.0
O10 O 0.1581 0.20561 0.7102 0.0
O11 O 0.11072 0.25594 0.57016 0.0
O12 O 0.11094 0.18288 0.49699 0.0
C13 C 0.15 0.21549 0.34154 0.0
O14 O 0.15749 0.13888 0.50907 0.0
O15 O 0.13676 0.1432 0.5931 0.0
C16 C 0.20587 0.21224 0.61624 0.0
C17 C 0.23256 0.22385 0.70585 0.0
C18 C 0.22942 0.18072 0.64945 0.0
C19 C 0.21624 0.17503 0.60541 0.0
C20 C 0.20876 0.255 0.67404 0.0
C21 C 0.22201 0.26072 0.71862 0.0
C22 C 0.1927 0.20637 0.5598 0.0
C23 C 0.14879 0.318 0.53927 0.0
C24 C 0.14615 0.22098 0.74957 0.0
C25 C 0.09022 0.23358 0.47691 0.0
C26 C 0.06253 0.24525 0.40348 0.0
C27 C 0.06725 0.2741 0.4846 0.0
C28 C 0.08092 0.26824 0.5209 0.0
C29 C 0.08586 0.207 0.39189 0.0
C30 C 0.07216 0.21291 0.3554 0.0
C31 C 0.10324 0.21999 0.53067 0.0
H32 H 0.23731 0.15197 0.63635 0.0
H33 H 0.21426 0.14196 0.56032 0.0
H34 H 0.20091 0.28425 0.68339 0.0
H35 H 0.224 0.29412 0.76255 0.0
H36 H 0.06012 0.29886 0.52444 0.0
H37 H 0.08393 0.28872 0.58728 0.0
H38 H 0.09277 0.17988 0.35636 0.0
H39 H 0.06893 0.19064 0.29189 0.0
Dy40 Dy 0.87578 0.23094 0.45653 0.0
Dy41 Dy 0.91059 0.23645 0.48168 0.0
C42 C 0.89166 0.33495 0.47541 0.0
O43 O 0.88383 0.24844 0.30512 0.0
O44 O 0.90719 0.22563 0.3188 0.0
O45 O 0.85595 0.26246 0.40839 0.0
O46 O 0.85683 0.18702 0.46819 0.0
O47 O 0.9036 0.15882 0.51956 0.0
O48 O 0.88527 0.15766 0.41144 0.0
O49 O 0.9021 0.24772 0.63445 0.0
O50 O 0.87935 0.2188 0.6187 0.0
O51 O 0.931 0.20211 0.46144 0.0
O52 O 0.92915 0.27388 0.538 0.0
C53 C 0.89611 0.23752 0.26527 0.0
O54 O 0.88095 0.30855 0.50778 0.0
O55 O 0.903 0.31295 0.43927 0.0
C56 C 0.83558 0.2316 0.48828 0.0
C57 C 0.80987 0.24424 0.59039 0.0
C58 C 0.82268 0.2578 0.63565 0.0
C59 C 0.83545 0.25144 0.58497 0.0
C60 C 0.82287 0.21844 0.44266 0.0
C61 C 0.81013 0.2247 0.49313 0.0
C62 C 0.8488 0.22286 0.4344 0.0
C63 C 0.89461 0.13375 0.46501 0.0
C64 C 0.8901 0.23312 0.67324 0.0
C65 C 0.95121 0.25557 0.4602 0.0
C66 C 0.9793 0.27515 0.40236 0.0
C67 C 0.97098 0.24116 0.34791 0.0
C68 C 0.95708 0.2314 0.37658 0.0
C69 C 0.95928 0.29134 0.51142 0.0
C70 C 0.97314 0.30114 0.48275 0.0
C71 C 0.93766 0.23932 0.50365 0.0
H72 H 0.82286 0.27247 0.71085 0.0
H73 H 0.84522 0.26152 0.62139 0.0
H74 H 0.82281 0.20305 0.36796 0.0
H75 H 0.80046 0.21457 0.45562 0.0
H76 H 0.97535 0.22096 0.28491 0.0
H77 H 0.95115 0.20351 0.33559 0.0
H78 H 0.9551 0.31004 0.57687 0.0
H79 H 0.97927 0.32702 0.52729 0.0
Dy80 Dy 0.17522 0.71677 0.59359 0.0
Dy81 Dy 0.14035 0.71761 0.56908 0.0
C82 C 0.15797 0.81833 0.57073 0.0
O83 O 0.167 0.73319 0.7455 0.0
O84 O 0.14386 0.70826 0.73178 0.0
O85 O 0.19434 0.75278 0.64357 0.0
O86 O 0.19504 0.67776 0.57989 0.0
O87 O 0.14818 0.64027 0.53306 0.0
O88 O 0.16709 0.64146 0.63678 0.0
O89 O 0.1487 0.7277 0.41587 0.0
O90 O 0.17186 0.70276 0.4316 0.0
O91 O 0.12015 0.68291 0.59459 0.0
O92 O 0.12158 0.75099 0.50719 0.0
C93 C 0.15485 0.72115 0.78529 0.0
O94 O 0.1689 0.79252 0.53881 0.0
O95 O 0.14697 0.79569 0.60911 0.0
C96 C 0.21519 0.72824 0.56025 0.0
C97 C 0.24059 0.74653 0.4582 0.0
C98 C 0.22774 0.744 0.40625 0.0
C99 C 0.21513 0.73492 0.45694 0.0
C100 C 0.22787 0.73196 0.61252 0.0
C101 C 0.24046 0.74109 0.5621 0.0
C102 C 0.20231 0.71543 0.61471 0.0
C103 C 0.15769 0.61644 0.58557 0.0
C104 C 0.1609 0.71482 0.37708 0.0
C105 C 0.09968 0.73575 0.58844 0.0
C106 C 0.07166 0.75951 0.64355 0.0
C107 C 0.0795 0.72411 0.69785 0.0
C108 C 0.09336 0.71226 0.67049 0.0
C109 C 0.09206 0.77269 0.53712 0.0
C110 C 0.07825 0.78455 0.56445 0.0
C111 C 0.11326 0.71779 0.54703 0.0
H112 H 0.22748 0.74758 0.32616 0.0
H113 H 0.2054 0.73218 0.41545 0.0
H114 H 0.22808 0.72709 0.6924 0.0
H115 H 0.25011 0.74366 0.60453 0.0
H116 H 0.07479 0.70455 0.75986 0.0
H117 H 0.0989 0.68342 0.71138 0.0
H118 H 0.09657 0.79089 0.4727 0.0
H119 H 0.0725 0.81143 0.51995 0.0
Dy120 Dy 0.88467 0.73841 0.49503 0.0
Dy121 Dy 0.91965 0.73234 0.51219 0.0
C122 C 0.90119 0.63361 0.48061 0.0
O123 O 0.88997 0.75463 0.6531 0.0
O124 O 0.91165 0.71662 0.66523 0.0
O125 O 0.86388 0.71011 0.52844 0.0
O126 O 0.86627 0.78254 0.45781 0.0
O127 O 0.91361 0.81001 0.55889 0.0
O128 O 0.89383 0.8138 0.46332 0.0
O129 O 0.91445 0.7474 0.35294 0.0
O130 O 0.89149 0.72006 0.34034 0.0
O131 O 0.94002 0.76368 0.47626 0.0
O132 O 0.93853 0.69262 0.55443 0.0
C133 C 0.90014 0.7349 0.70619 0.0
O134 O 0.89 0.65705 0.51542 0.0
O135 O 0.91258 0.65805 0.45493 0.0
C136 C 0.84413 0.74234 0.43846 0.0
C137 C 0.81695 0.73009 0.35678 0.0
C138 C 0.82671 0.69007 0.35579 0.0
C139 C 0.84019 0.6961 0.39644 0.0
C140 C 0.83456 0.78251 0.43722 0.0
C141 C 0.82114 0.77653 0.39703 0.0
C142 C 0.85751 0.74932 0.49196 0.0
C143 C 0.90388 0.83618 0.5133 0.0
C144 C 0.90355 0.73292 0.29975 0.0
C145 C 0.96014 0.73828 0.57069 0.0
C146 C 0.98807 0.74484 0.64191 0.0
C147 C 0.98362 0.77417 0.56117 0.0
C148 C 0.96983 0.77081 0.52592 0.0
C149 C 0.96428 0.7113 0.65534 0.0
C150 C 0.97811 0.71467 0.69073 0.0
C151 C 0.94686 0.72685 0.51807 0.0
H152 H 0.8239 0.65397 0.3243 0.0
H153 H 0.8474 0.66449 0.39666 0.0
H154 H 0.83733 0.81835 0.47024 0.0
H155 H 0.81388 0.80792 0.40077 0.0
H156 H 0.99102 0.7973 0.52083 0.0
H157 H 0.967 0.79152 0.45976 0.0
H158 H 0.95708 0.68574 0.69142 0.0
H159 H 0.98114 0.69212 0.75396 0.0
Dy160 Dy 0.67078 0.74327 1.00428 0.0
Dy161 Dy 0.636 0.76305 0.98633 0.0
C162 C 0.6489 0.65209 0.98645 0.0
O163 O 0.66617 0.76125 0.8458 0.0
O164 O 0.64291 0.73847 0.83471 0.0
O165 O 0.68802 0.69468 0.04777 0.0
O166 O 0.69213 0.76349 0.96703 0.0
O167 O 0.64654 0.8372 0.97101 0.0
O168 O 0.6678 0.82367 0.04835 0.0
O169 O 0.64157 0.7784 0.14485 0.0
O170 O 0.66256 0.73545 0.15911 0.0
O171 O 0.61857 0.79832 0.90989 0.0
O172 O 0.61499 0.75706 0.04608 0.0
C173 C 0.65507 0.74897 0.79306 0.0
O174 O 0.66109 0.6705 0.95869 0.0
O175 O 0.6383 0.68091 1.01315 0.0
C176 C 0.7109 0.72974 0.06364 0.0
C177 C 0.73806 0.74039 0.1462 0.0
C178 C 0.73376 0.69435 0.1048 0.0
C179 C 0.72034 0.68916 0.06409 0.0
C180 C 0.71493 0.77545 0.10741 0.0
C181 C 0.7284 0.7807 0.14845 0.0
C182 C 0.69754 0.72396 1.00949 0.0
C183 C 0.65797 0.85393 1.0146 0.0
C184 C 0.65141 0.75711 0.19893 0.0
C185 C 0.59552 0.76467 0.93447 0.0
C186 C 0.56719 0.74586 0.88174 0.0
C187 C 0.57531 0.78032 0.82766 0.0
C188 C 0.5893 0.78974 0.854 0.0
C189 C 0.58762 0.72843 0.98553 0.0
C190 C 0.57363 0.71907 0.95931 0.0
C191 C 0.60927 0.78192 0.97319 0.0
H192 H 0.74094 0.66275 0.10038 0.0
H193 H 0.71746 0.65369 0.02997 0.0
H194 H 0.7078 0.8073 0.10803 0.0
H195 H 0.7313 0.81646 0.18101 0.0
H196 H 0.57075 0.8011 0.76667 0.0
H197 H 0.59506 0.81824 0.81386 0.0
H198 H 0.59201 0.70885 0.04869 0.0
H199 H 0.56766 0.69272 1.00343 0.0
Dy200 Dy 0.37994 0.72845 1.00514 0.0
Dy201 Dy 0.41501 0.73973 0.98653 0.0
C202 C 0.39485 0.83525 0.99817 0.0
O203 O 0.38401 0.74324 0.8454 0.0
O204 O 0.40784 0.72733 0.83062 0.0
O205 O 0.35896 0.7572 0.9777 0.0
O206 O 0.36191 0.68395 0.04469 0.0
O207 O 0.40992 0.66192 0.0345 0.0
O208 O 0.38876 0.65484 0.95595 0.0
O209 O 0.4101 0.75227 0.14622 0.0
O210 O 0.38774 0.71943 0.16022 0.0
O211 O 0.43489 0.70591 0.94631 0.0
O212 O 0.43439 0.77947 1.01716 0.0
C213 C 0.39535 0.73524 0.79164 0.0
O214 O 0.38527 0.80777 0.04256 0.0
O215 O 0.40582 0.81509 0.95322 0.0
C216 C 0.3408 0.72736 0.08253 0.0
C217 C 0.31676 0.73608 0.20461 0.0
C218 C 0.3155 0.73624 0.1005 0.0
C219 C 0.32741 0.73192 0.0402 0.0
C220 C 0.34223 0.7287 0.18628 0.0
C221 C 0.33029 0.73298 0.24689 0.0
C222 C 0.3529 0.7181 1.0167 0.0
C223 C 0.4 0.63433 0.9949 0.0
C224 C 0.39949 0.73612 0.19967 0.0
C225 C 0.45541 0.75729 0.92711 0.0
C226 C 0.48361 0.77095 0.86539 0.0
C227 C 0.47565 0.73052 0.82854 0.0
C228 C 0.46171 0.72367 0.85926 0.0
C229 C 0.46308 0.7994 0.95894 0.0
C230 C 0.477 0.80625 0.92821 0.0
C231 C 0.44223 0.74383 0.97925 0.0
H232 H 0.30526 0.73783 0.06542 0.0
H233 H 0.32613 0.73075 0.96022 0.0
H234 H 0.35252 0.7254 0.2203 0.0
H235 H 0.33162 0.73335 0.32679 0.0
H236 H 0.48037 0.70304 0.77896 0.0
H237 H 0.45615 0.69057 0.83388 0.0
H238 H 0.45862 0.82552 1.01247 0.0
H239 H 0.48284 0.83752 0.95899 0.0
Dy240 Dy 0.67016 0.25191 0.03884 0.0
Dy241 Dy 0.63496 0.25676 0.05604 0.0
C242 C 0.65347 0.35421 0.04398 0.0
O243 O 0.66544 0.2373 0.19744 0.0
O244 O 0.6426 0.26626 0.21194 0.0
O245 O 0.68942 0.29154 1.00817 0.0
O246 O 0.6902 0.21489 0.06182 0.0
O247 O 0.64133 0.17804 0.09025 0.0
O248 O 0.66235 0.17468 1.00468 0.0
O249 O 0.63961 0.24212 0.89669 0.0
O250 O 0.66309 0.26303 0.88263 0.0
O251 O 0.61469 0.22886 1.01198 0.0
O252 O 0.61599 0.29451 0.10853 0.0
C253 C 0.65459 0.25146 0.25116 0.0
O254 O 0.66343 0.32846 0.08781 0.0
O255 O 0.64258 0.33145 1.0053 0.0
C256 C 0.70992 0.24475 0.97143 0.0
C257 C 0.7345 0.23351 0.85579 0.0
C258 C 0.73526 0.25129 0.95414 0.0
C259 C 0.72309 0.25686 1.01122 0.0
C260 C 0.70901 0.22633 0.87383 0.0
C261 C 0.72125 0.22056 0.81639 0.0
C262 C 0.69742 0.25379 0.03301 0.0
C263 C 0.65158 0.1525 0.04735 0.0
C264 C 0.65078 0.25248 0.84325 0.0
C265 C 0.59417 0.2493 0.10633 0.0
C266 C 0.56594 0.22343 0.14798 0.0
C267 C 0.57652 0.18622 0.1445 0.0
C268 C 0.59051 0.19901 0.12349 0.0
C269 C 0.58385 0.28671 0.11677 0.0
C270 C 0.5699 0.27401 0.13725 0.0
C271 C 0.60778 0.26323 0.06152 0.0
H272 H 0.74529 0.26074 0.9873 0.0
H273 H 0.72395 0.27113 0.08654 0.0
H274 H 0.69888 0.21704 0.84197 0.0
H275 H 0.72033 0.207 0.74068 0.0
H276 H 0.57391 0.14699 0.15406 0.0
H277 H 0.59829 0.16938 0.11591 0.0
H278 H 0.58641 0.32569 0.10285 0.0
H279 H 0.56209 0.30372 0.13796 0.0
Dy280 Dy 0.37931 0.23206 0.02776 0.0
Dy281 Dy 0.4144 0.23997 1.00215 0.0
C282 C 0.39885 0.13466 1.0119 0.0
O283 O 0.38788 0.21825 0.17907 0.0
O284 O 0.41037 0.2501 0.16468 0.0
O285 O 0.36016 0.19234 0.0649 0.0
O286 O 0.35943 0.27156 0.02831 0.0
O287 O 0.40517 0.31408 0.96247 0.0
O288 O 0.38629 0.30955 0.06674 0.0
O289 O 0.40622 0.22562 0.84955 0.0
O290 O 0.38253 0.24412 0.86528 0.0
O291 O 0.43358 0.2816 0.02377 0.0
O292 O 0.43409 0.21002 0.94555 0.0
C293 C 0.39973 0.23401 0.21847 0.0
O294 O 0.38703 0.15581 0.98282 0.0
O295 O 0.40954 0.16121 0.04454 0.0
C296 C 0.33849 0.22557 1.00167 0.0
C297 C 0.31125 0.21424 0.92035 0.0
C298 C 0.3218 0.17795 0.90209 0.0
C299 C 0.33531 0.18356 0.94237 0.0
C300 C 0.32805 0.26202 1.01868 0.0
C301 C 0.31461 0.25651 0.97854 0.0
C302 C 0.3522 0.23179 0.0514 0.0
C303 C 0.39512 0.3359 1.0136 0.0
C304 C 0.39377 0.23461 0.81091 0.0
C305 C 0.45511 0.23569 0.02658 0.0
C306 C 0.48258 0.22416 0.10364 0.0
C307 C 0.47126 0.23701 0.16675 0.0
C308 C 0.45762 0.2427 0.12856 0.0
C309 C 0.46625 0.22108 0.96442 0.0
C310 C 0.47982 0.21538 1.00234 0.0
C311 C 0.44141 0.24742 0.98086 0.0
H312 H 0.31961 0.14521 0.85669 0.0
H313 H 0.34319 0.15491 0.92801 0.0
H314 H 0.33024 0.29453 0.06485 0.0
H315 H 0.30673 0.28477 0.99549 0.0
H316 H 0.47298 0.24353 0.24527 0.0
H317 H 0.44916 0.25383 0.17812 0.0
H318 H 0.46455 0.21582 0.88544 0.0
H319 H 0.48827 0.2063 0.95111 0.0
H320 H 0.24971 0.15309 0.78905 0.0
H321 H 0.24803 0.31045 0.71413 0.0
H322 H 0.27211 0.32122 0.77318 0.0
H323 H 0.29392 0.28554 0.84131 0.0
H324 H 0.2957 0.12799 0.91415 0.0
H325 H 0.2715 0.11743 0.85706 0.0
C326 C 0.25462 0.18972 0.78492 0.0
C327 C 0.24699 0.23087 0.74708 0.0
C328 C 0.26858 0.1955 0.81734 0.0
C329 C 0.25351 0.27822 0.74422 0.0
C330 C 0.26735 0.28434 0.77711 0.0
C331 C 0.28899 0.24893 0.84536 0.0
C332 C 0.29667 0.20761 0.88191 0.0
C333 C 0.27501 0.2432 0.81329 0.0
C334 C 0.29015 0.1603 0.88504 0.0
C335 C 0.27626 0.15431 0.8532 0.0
H336 H 0.75592 0.30047 0.84338 0.0
H337 H 0.74239 0.15619 0.7326 0.0
H338 H 0.76442 0.1471 0.63969 0.0
H339 H 0.78786 0.17886 0.59508 0.0
H340 H 0.80132 0.32318 0.7066 0.0
H341 H 0.7791 0.33292 0.79627 0.0
C342 C 0.75782 0.26688 0.79934 0.0
C343 C 0.74755 0.22894 0.79535 0.0
C344 C 0.77054 0.26172 0.74706 0.0
C345 C 0.75006 0.18614 0.73628 0.0
C346 C 0.76269 0.18078 0.68371 0.0
C347 C 0.78588 0.21269 0.63817 0.0
C348 C 0.79628 0.25018 0.64428 0.0
C349 C 0.77304 0.21819 0.6891 0.0
C350 C 0.7936 0.29342 0.70175 0.0
C351 C 0.78086 0.29917 0.75253 0.0
H352 H 0.29281 0.79163 0.18089 0.0
H353 H 0.31176 0.67993 0.37014 0.0
H354 H 0.29009 0.67484 0.4671 0.0
H355 H 0.26538 0.6983 0.4922 0.0
H356 H 0.2462 0.80914 0.30222 0.0
H357 H 0.26825 0.81733 0.20981 0.0
C358 C 0.29219 0.76612 0.24329 0.0
C359 C 0.30391 0.73618 0.26801 0.0
C360 C 0.27961 0.76276 0.29784 0.0
C361 C 0.30299 0.70392 0.35015 0.0
C362 C 0.29055 0.70064 0.40516 0.0
C363 C 0.26606 0.72483 0.43154 0.0
C364 C 0.25413 0.75301 0.40418 0.0
C365 C 0.27876 0.72945 0.37899 0.0
C366 C 0.25516 0.78651 0.32408 0.0
C367 C 0.26778 0.79142 0.27156 0.0
H368 H 0.75408 0.67347 0.25038 0.0
H369 H 0.75531 0.82144 0.12118 0.0
H370 H 0.77976 0.83079 0.17285 0.0
H371 H 0.80097 0.79641 0.25129 0.0
H372 H 0.79978 0.64863 0.38129 0.0
H373 H 0.77534 0.63905 0.32904 0.0
C374 C 0.75971 0.70767 0.23293 0.0
C375 C 0.75279 0.74673 0.18211 0.0
C376 C 0.77386 0.71258 0.26169 0.0
C377 C 0.76024 0.79107 0.16161 0.0
C378 C 0.77429 0.79628 0.19029 0.0
C379 C 0.79536 0.7622 0.26888 0.0
C380 C 0.80227 0.72331 0.3202 0.0
C381 C 0.78122 0.75724 0.24007 0.0
C382 C 0.79485 0.67891 0.3406 0.0
C383 C 0.7808 0.67357 0.31158 0.0
H384 H 0.13735 0.88468 0.62588 0.0
H385 H 0.17876 0.87715 0.49352 0.0
H386 H 0.17893 0.96816 0.47551 0.0
H387 H 0.16743 0.05016 0.49742 0.0
H388 H 0.1261 0.05797 0.63076 0.0
H389 H 0.12584 0.96681 0.64789 0.0
C390 C 0.14643 0.90288 0.59318 0.0
C391 C 0.15802 0.87387 0.56125 0.0
C392 C 0.14649 0.95544 0.58295 0.0
C393 C 0.16968 0.89832 0.51894 0.0
C394 C 0.1698 0.95049 0.50846 0.0
C395 C 0.15834 0.03198 0.52998 0.0
C396 C 0.1468 0.06105 0.56259 0.0
C397 C 0.15827 0.97944 0.54013 0.0
C398 C 0.13514 0.03668 0.60499 0.0
C399 C 0.13498 0.98445 0.6149 0.0
H400 H 0.91164 0.40143 0.4161 0.0
H401 H 0.87015 0.39384 0.54659 0.0
H402 H 0.86925 0.48534 0.55796 0.0
H403 H 0.88043 0.56775 0.53344 0.0
H404 H 0.922 0.57426 0.40347 0.0
H405 H 0.92259 0.48319 0.38935 0.0
C406 C 0.90237 0.41967 0.44689 0.0
C407 C 0.891 0.3906 0.48054 0.0
C408 C 0.90192 0.4723 0.45346 0.0
C409 C 0.87908 0.41513 0.52013 0.0
C410 C 0.87855 0.46755 0.52672 0.0
C411 C 0.8896 0.5493 0.50172 0.0
C412 C 0.90115 0.57809 0.46985 0.0
C413 C 0.88993 0.49656 0.49397 0.0
C414 C 0.91295 0.55332 0.42895 0.0
C415 C 0.91332 0.50108 0.42076 0.0
H416 H 0.88644 0.90016 0.41681 0.0
H417 H 0.92228 0.89753 0.61354 0.0
H418 H 0.92267 -0.01058 0.6158 0.0
H419 H 0.91268 0.07064 0.56218 0.0
H420 H 0.87688 0.0715 0.36459 0.0
H421 H 0.8767 0.98015 0.36258 0.0
C422 C 0.89437 0.91951 0.46034 0.0
C423 C 0.90431 0.89184 0.51501 0.0
C424 C 0.89455 0.97215 0.46114 0.0
C425 C 0.9145 0.9178 0.57068 0.0
C426 C 0.91472 0.97039 0.57205 0.0
C427 C 0.90485 0.05085 0.5186 0.0
C428 C 0.89481 0.07808 0.46368 0.0
C429 C 0.90478 -0.00202 0.51759 0.0
C430 C 0.88475 0.05171 0.40757 0.0
C431 C 0.88462 -0.00065 0.40635 0.0
H432 H 0.13996 0.55204 0.48983 0.0
H433 H 0.17605 0.55515 0.68429 0.0
H434 H 0.17662 0.46356 0.68632 0.0
H435 H 0.16685 0.38224 0.63356 0.0
H436 H 0.13068 0.37957 0.43968 0.0
H437 H 0.13025 0.471 0.43689 0.0
C438 C 0.14796 0.53277 0.53273 0.0
C439 C 0.15793 0.56067 0.58683 0.0
C440 C 0.14825 0.47996 0.53371 0.0
C441 C 0.16822 0.53482 0.64193 0.0
C442 C 0.16857 0.48233 0.64315 0.0
C443 C 0.15889 0.4016 0.5905 0.0
C444 C 0.14882 0.37379 0.53699 0.0
C445 C 0.15864 0.45446 0.58935 0.0
C446 C 0.13857 0.39975 0.48179 0.0
C447 C 0.13829 0.45219 0.48007 0.0
H448 H 0.6695 0.58324 1.01344 0.0
H449 H 0.62465 0.59744 0.97159 0.0
H450 H 0.62209 0.50619 0.98391 0.0
H451 H 0.63265 0.42242 1.00861 0.0
H452 H 0.67735 0.40973 0.06058 0.0
H453 H 0.6799 0.50037 0.04268 0.0
C454 C 0.65917 0.56633 1.00614 0.0
C455 C 0.6473 0.59693 0.99062 0.0
C456 C 0.65775 0.51415 1.0158 0.0
C457 C 0.63396 0.57461 0.98334 0.0
C458 C 0.63249 0.52248 0.99042 0.0
C459 C 0.64294 0.43954 1.01592 0.0
C460 C 0.65479 0.40936 0.03573 0.0
C461 C 0.64432 0.49189 1.00704 0.0
C462 C 0.66804 0.43211 0.0459 0.0
C463 C 0.66953 0.48394 0.03528 0.0
H464 H 0.41548 0.90524 0.98515 0.0
H465 H 0.37052 0.88896 1.01614 0.0
H466 H 0.36769 0.98022 0.02001 0.0
H467 H 0.37804 0.06481 1.01631 0.0
H468 H 0.42314 0.08072 0.99612 0.0
H469 H 0.42587 -0.01038 0.98638 0.0
C470 C 0.40507 0.92172 0.99226 0.0
C471 C 0.39323 0.89047 0.99985 0.0
C472 C 0.40354 0.97418 0.99666 0.0
C473 C 0.37981 0.91228 1.01046 0.0
C474 C 0.37818 0.96444 1.01249 0.0
C475 C 0.38845 0.04828 1.00946 0.0
C476 C 0.40035 0.07944 1.00665 0.0
C477 C 0.38997 -0.00422 1.00591 0.0
C478 C 0.4138 0.05752 0.99893 0.0
C479 C 0.41538 0.00543 0.99307 0.0
H480 H 0.41595 0.4042 0.99166 0.0
H481 H 0.37108 0.3908 0.032 0.0
H482 H 0.36853 0.48217 0.02578 0.0
H483 H 0.37911 0.56592 1.00939 0.0
H484 H 0.42417 0.57967 0.98333 0.0
H485 H 0.42665 0.48815 0.98339 0.0
C486 C 0.40563 0.4214 0.99882 0.0
C487 C 0.39371 0.39102 1.01162 0.0
C488 C 0.4043 0.47393 0.99777 0.0
C489 C 0.38041 0.41358 0.02236 0.0
C490 C 0.37894 0.46574 1.01853 0.0
C491 C 0.38945 0.54875 1.00334 0.0
C492 C 0.40143 0.57922 0.99556 0.0
C493 C 0.39081 0.49627 1.00625 0.0
C494 C 0.41481 0.55678 0.98949 0.0
C495 C 0.41622 0.50454 0.98934 0.0
H496 H 0.67318 0.08484 0.03756 0.0
H497 H 0.62788 0.09597 0.05274 0.0
H498 H 0.62598 0.00472 0.04457 0.0
H499 H 0.63705 0.92207 0.03003 0.0
H500 H 0.6823 0.90896 0.02454 0.0
H501 H 0.6844 0.00072 0.03287 0.0
C502 C 0.66291 0.06718 0.03898 0.0
C503 C 0.65068 0.0971 0.04501 0.0
C504 C 0.6619 0.01446 0.03622 0.0
C505 C 0.63745 0.07378 0.04832 0.0
C506 C 0.63635 0.02161 0.04342 0.0
C507 C 0.64738 0.93927 0.0306 0.0
C508 C 0.6595 0.90891 0.02554 0.0
C509 C 0.64848 -0.00834 0.0369 0.0
C510 C 0.67282 0.93162 0.02831 0.0
C511 C 0.67401 0.98403 0.0327 0.0
H512 H 0.12921 0.22194 0.2033 0.0
H513 H 0.17428 0.20815 0.2348 0.0
H514 H 0.17708 0.20847 0.05478 0.0
H515 H 0.16681 0.21299 0.8883 0.0
H516 H 0.12181 0.22956 0.85641 0.0
H517 H 0.11896 0.22804 0.03639 0.0
C518 C 0.13963 0.21877 0.17069 0.0
C519 C 0.1515 0.21492 0.23233 0.0
C520 C 0.14121 0.21968 0.06698 0.0
C521 C 0.16496 0.21138 0.18903 0.0
C522 C 0.16658 0.21148 0.08603 0.0
C523 C 0.15637 0.21623 0.92065 0.0
C524 C 0.14456 0.22131 0.85886 0.0
C525 C 0.15479 0.21573 0.0243 0.0
C526 C 0.13112 0.22584 0.90216 0.0
C527 C 0.12945 0.2248 1.00517 0.0
H528 H 0.87489 0.23391 0.13021 0.0
H529 H 0.92017 0.24093 0.15393 0.0
H530 H 0.92222 0.24053 0.97301 0.0
H531 H 0.91122 0.23797 0.80861 0.0
H532 H 0.86599 0.22816 0.78439 0.0
H533 H 0.86389 0.22972 0.96542 0.0
C534 C 0.88522 0.23561 0.0959 0.0
C535 C 0.89736 0.23773 0.15563 0.0
C536 C 0.88633 0.2347 0.99186 0.0
C537 C 0.91065 0.23923 0.10982 0.0
C538 C 0.91184 0.23906 1.00634 0.0
C539 C 0.90088 0.2363 0.84275 0.0
C540 C 0.88877 0.23315 0.78288 0.0
C541 C 0.89976 0.23676 0.94672 0.0
C542 C 0.87548 0.23046 0.8286 0.0
C543 C 0.87427 0.23149 0.93213 0.0
H544 H 0.13977 0.71818 0.24173 0.0
H545 H 0.18506 0.7117 0.26578 0.0
H546 H 0.18716 0.71432 0.08485 0.0
H547 H 0.17612 0.71867 0.92013 0.0
H548 H 0.1308 0.72259 0.89678 0.0
H549 H 0.12875 0.72097 0.07761 0.0
C550 C 0.15012 0.71741 0.20762 0.0
C551 C 0.16224 0.71491 0.26743 0.0
C552 C 0.15124 0.7186 0.10372 0.0
C553 C 0.17555 0.71345 0.22165 0.0
C554 C 0.17676 0.71512 0.11817 0.0
C555 C 0.16579 0.71946 0.95454 0.0
C556 C 0.15363 0.72103 0.89493 0.0
C557 C 0.16468 0.71781 0.05853 0.0
C558 C 0.14033 0.72134 0.94081 0.0
C559 C 0.13914 0.72044 0.04423 0.0
H560 H 0.92072 0.72647 0.84603 0.0
H561 H 0.87573 0.74143 0.81208 0.0
H562 H 0.87272 0.74045 0.99212 0.0
H563 H 0.88286 0.7365 0.15994 0.0
H564 H 0.92793 0.72583 0.19386 0.0
H565 H 0.93088 0.72392 1.01378 0.0
C566 C 0.91026 0.72931 0.87806 0.0
C567 C 0.89848 0.73395 0.81561 0.0
C568 C 0.9086 0.72959 0.9819 0.0
C569 C 0.885 0.73809 0.85839 0.0
C570 C 0.88325 0.73742 0.96144 0.0
C571 C 0.89331 0.73354 0.12786 0.0
C572 C 0.90514 0.73126 0.19031 0.0
C573 C 0.89497 0.73335 0.024 0.0
C574 C 0.91864 0.72793 0.14753 0.0
C575 C 0.92034 0.72672 0.04446 0.0
H576 H 0.6717 0.74108 0.33838 0.0
H577 H 0.62739 0.77344 0.30638 0.0
H578 H 0.62444 0.77179 0.4866 0.0
H579 H 0.63446 0.76155 0.65426 0.0
H580 H 0.67899 0.73354 0.68566 0.0
H581 H 0.68179 0.73284 0.50538 0.0
C582 C 0.66139 0.74772 0.37075 0.0
C583 C 0.64979 0.75729 0.30868 0.0
C584 C 0.65978 0.74738 0.47468 0.0
C585 C 0.63653 0.76624 0.35221 0.0
C586 C 0.63481 0.76513 0.45541 0.0
C587 C 0.64475 0.75501 0.62151 0.0
C588 C 0.65648 0.74742 0.68338 0.0
C589 C 0.64636 0.75571 0.51748 0.0
C590 C 0.66979 0.73965 0.63982 0.0
C591 C 0.6714 0.73919 0.53663 0.0
H592 H 0.4161 0.74155 0.65287 0.0
H593 H 0.37104 0.72776 0.68504 0.0
H594 H 0.36835 0.72616 0.50503 0.0
H595 H 0.37874 0.72868 0.33827 0.0
H596 H 0.42374 0.74488 0.30623 0.0
H597 H 0.42645 0.74551 0.48623 0.0
C598 C 0.4057 0.73807 0.62055 0.0
C599 C 0.39382 0.7347 0.68241 0.0
C600 C 0.40419 0.73763 0.5169 0.0
C601 C 0.38039 0.73064 0.63922 0.0
C602 C 0.37882 0.72959 0.5362 0.0
C603 C 0.38915 0.7322 0.37065 0.0
C604 C 0.401 0.73663 0.30886 0.0
C605 C 0.39064 0.73305 0.47432 0.0
C606 C 0.41441 0.74162 0.35205 0.0
C607 C 0.41599 0.74188 0.45505 0.0
H608 H 0.63384 0.25599 0.39058 0.0
H609 H 0.67899 0.24618 0.35688 0.0
H610 H 0.68183 0.24618 0.53671 0.0
H611 H 0.67156 0.24898 0.7039 0.0
H612 H 0.62638 0.25636 0.73752 0.0
H613 H 0.62355 0.25726 0.55771 0.0
C614 C 0.6443 0.25397 0.42257 0.0
C615 C 0.65616 0.25117 0.36032 0.0
C616 C 0.64589 0.25351 0.52618 0.0
C617 C 0.66965 0.24815 0.40302 0.0
C618 C 0.67131 0.24827 0.50596 0.0
C619 C 0.6611 0.25091 0.67189 0.0
C620 C 0.64922 0.25267 0.7341 0.0
C621 C 0.65951 0.25094 0.56827 0.0
C622 C 0.63572 0.25473 0.69139 0.0
C623 C 0.63407 0.25538 0.58847 0.0
H624 H 0.3786 0.22831 0.35437 0.0
H625 H 0.42377 0.24076 0.32903 0.0
H626 H 0.42586 0.2415 0.50988 0.0
H627 H 0.4149 0.23885 0.67479 0.0
H628 H 0.36967 0.22918 0.70034 0.0
H629 H 0.36759 0.22721 0.51947 0.0
C630 C 0.38892 0.23096 0.38829 0.0
C631 C 0.40101 0.23423 0.32811 0.0
C632 C 0.39003 0.23198 0.49229 0.0
C633 C 0.41428 0.23827 0.37348 0.0
C634 C 0.41549 0.23863 0.47693 0.0
C635 C 0.40457 0.23615 0.64097 0.0
C636 C 0.39246 0.23395 0.70124 0.0
C637 C 0.40344 0.23553 0.537 0.0
C638 C 0.37917 0.23103 0.65589 0.0
C639 C 0.37797 0.22979 0.55241 0.0
H640 H 0.04417 0.32462 0.39568 0.0
H641 H 0.04645 0.16378 0.35628 0.0
H642 H 1.02095 0.15986 0.34043 0.0
H643 H 0.99789 0.20028 0.35902 0.0
H644 H 0.99534 0.36064 0.40379 0.0
H645 H 1.021 0.36636 0.39783 0.0
C646 C 0.0391 0.28876 0.38284 0.0
C647 C 0.04728 0.24457 0.37788 0.0
C648 C 1.02434 0.28652 0.37626 0.0
C649 C 0.04051 0.19853 0.3594 0.0
C650 C 0.02587 0.19613 0.35133 0.0
C651 C 1.0029 0.2367 0.36491 0.0
C652 C 0.99467 0.2799 0.38272 0.0
C653 C 1.01766 0.23966 0.36243 0.0
C654 C 1.00142 0.32666 0.3916 0.0
C655 C 1.0161 0.32999 0.388 0.0
H656 H 1.00743 0.82069 0.64946 0.0
H657 H 1.00315 0.66056 0.68719 0.0
H658 H 0.02858 0.65196 0.70247 0.0
H659 H 0.05211 0.68808 0.68469 0.0
H660 H 0.05666 0.84775 0.64247 0.0
H661 H 0.0311 0.85812 0.64781 0.0
C662 C 1.01206 0.78396 0.66179 0.0
C663 C 1.00333 0.74136 0.66654 0.0
C664 C 0.02677 0.77902 0.66823 0.0
C665 C 1.00952 0.69416 0.68428 0.0
C666 C 1.02411 0.68907 0.69203 0.0
C667 C 0.04756 0.72537 0.67917 0.0
C668 C 0.05633 0.76699 0.66228 0.0
C669 C 0.03286 0.73102 0.68147 0.0
C670 C 0.05017 0.81491 0.65389 0.0
C671 C 0.03554 0.82091 0.65717 0.0
H672 H 0.54836 0.82052 0.84242 0.0
H673 H 0.55132 0.66005 0.8817 0.0
H674 H 0.52572 0.65333 0.87219 0.0
H675 H 0.5025 0.69389 0.86706 0.0
H676 H 0.49954 0.85423 0.82625 0.0
H677 H 0.5252 0.85999 0.82078 0.0
C678 C 0.54346 0.78388 0.84659 0.0
C679 C 0.55179 0.74089 0.86344 0.0
C680 C 0.52872 0.7803 0.84149 0.0
C681 C 0.54517 0.69386 0.87029 0.0
C682 C 0.53053 0.68996 0.86452 0.0
C683 C 0.50743 0.72997 0.85449 0.0
C684 C 0.49907 0.77361 0.8476 0.0
C685 C 0.52219 0.73306 0.8522 0.0
C686 C 0.50571 0.82014 0.8331 0.0
C687 C 0.52038 0.82345 0.8298 0.0
H688 H 0.50364 0.15838 0.05524 0.0
H689 H 0.49489 0.29001 0.23371 0.0
H690 H 0.51981 0.29728 0.27457 0.0
H691 H 0.54437 0.27207 0.24429 0.0
H692 H 0.55313 0.14437 0.05461 0.0
H693 H 0.52803 0.12947 0.0351 0.0
C694 C 0.50716 0.18854 0.10348 0.0
C695 C 0.49737 0.22388 0.14031 0.0
C696 C 0.52158 0.19337 0.12454 0.0
C697 C 0.50212 0.26202 0.20467 0.0
C698 C 0.51642 0.26651 0.22743 0.0
C699 C 0.5408 0.24079 0.19908 0.0
C700 C 0.55072 0.20975 0.1504 0.0
C701 C 0.52629 0.23329 0.18539 0.0
C702 C 0.54584 0.1687 0.09398 0.0
C703 C 0.53143 0.1604 0.08176 0.0
loop_
_geom_bond_atom_site_label_1
_geom_bond_atom_site_label_2
_geom_bond_distance
_geom_bond_site_symmetry_2
_ccdc_geom_bond_type
Dy0 O3 2.307 . S
Dy0 O5 2.395 . S
Dy0 O6 2.379 . S
Dy0 O8 2.339 . S
Dy0 O10 2.298 . S
Dy0 O14 2.275 . S
Dy0 C22 2.738 . S
Dy1 O4 2.298 . S
Dy1 O7 2.275 . S
Dy1 O9 2.307 . S
Dy1 O11 2.395 . S
Dy1 O12 2.379 . S
Dy1 O15 2.339 . S
Dy1 C31 2.738 . S
C2 O14 1.254 . S
C2 O15 1.257 . S
O3 Dy0 2.307 . S
O3 C13 1.266 . S
O4 Dy1 2.298 . S
O4 C13 1.236 . S
O5 Dy0 2.395 . S
O5 C22 1.255 . S
O6 Dy0 2.379 . S
O6 C22 1.249 . S
O7 Dy1 2.275 . S
O7 C23 1.254 . S
O8 Dy0 2.339 . S
O8 C23 1.257 . S
O9 Dy1 2.307 . S
O9 C24 1.266 . S
O10 Dy0 2.298 . S
O10 C24 1.236 . S
O11 Dy1 2.395 . S
O11 C31 1.255 . S
O12 Dy1 2.379 . S
O12 C31 1.249 . S
C13 O3 1.266 . S
C13 O4 1.236 . S
O14 Dy0 2.275 . S
O14 C2 1.254 . S
O15 Dy1 2.339 . S
O15 C2 1.257 . S
C16 C19 1.344 . S
C16 C20 1.328 . S
C16 C22 1.516 . S
C17 C18 1.304 . S
C17 C21 1.323 . S
C18 C17 1.304 . S
C18 C19 1.371 . S
C18 H32 0.930 . S
C19 C16 1.344 . S
C19 C18 1.371 . S
C19 H33 0.931 . S
C20 C16 1.328 . S
C20 C21 1.433 . S
C20 H34 0.931 . S
C21 C17 1.323 . S
C21 C20 1.433 . S
C21 H35 0.933 . S
C22 Dy0 2.738 . S
C22 O5 1.255 . S
C22 O6 1.249 . S
C22 C16 1.516 . S
C23 O7 1.254 . S
C23 O8 1.257 . S
C24 O9 1.266 . S
C24 O10 1.236 . S
C25 C28 1.344 . S
C25 C29 1.328 . S
C25 C31 1.516 . S
C26 C27 1.304 . S
C26 C30 1.323 . S
C27 C26 1.304 . S
C27 C28 1.371 . S
C27 H36 0.930 . S
C28 C25 1.344 . S
C28 C27 1.371 . S
C28 H37 0.931 . S
C29 C25 1.328 . S
C29 C30 1.433 . S
C29 H38 0.931 . S
C30 C26 1.323 . S
C30 C29 1.433 . S
C30 H39 0.933 . S
C31 Dy1 2.738 . S
C31 O11 1.255 . S
C31 O12 1.249 . S
C31 C25 1.516 . S
H32 C18 0.930 . S
H33 C19 0.931 . S
H34 C20 0.931 . S
H35 C21 0.933 . S
H36 C27 0.930 . S
H37 C28 0.931 . S
H38 C29 0.931 . S
H39 C30 0.933 . S
Dy40 O43 2.307 . S
Dy40 O45 2.395 . S
Dy40 O46 2.379 . S
Dy40 O48 2.339 . S
Dy40 O50 2.298 . S
Dy40 O54 2.275 . S
Dy40 C62 2.738 . S
Dy41 O44 2.298 . S
Dy41 O47 2.275 . S
Dy41 O49 2.307 . S
Dy41 O51 2.395 . S
Dy41 O52 2.379 . S
Dy41 O55 2.339 . S
Dy41 C71 2.738 . S
C42 O54 1.254 . S
C42 O55 1.257 . S
O43 Dy40 2.307 . S
O43 C53 1.266 . S
O44 Dy41 2.298 . S
O44 C53 1.236 . S
O45 Dy40 2.395 . S
O45 C62 1.255 . S
O46 Dy40 2.379 . S
O46 C62 1.249 . S
O47 Dy41 2.275 . S
O47 C63 1.254 . S
O48 Dy40 2.339 . S
O48 C63 1.257 . S
O49 Dy41 2.307 . S
O49 C64 1.266 . S
O50 Dy40 2.298 . S
O50 C64 1.236 . S
O51 Dy41 2.395 . S
O51 C71 1.255 . S
O52 Dy41 2.379 . S
O52 C71 1.249 . S
C53 O43 1.266 . S
C53 O44 1.236 . S
O54 Dy40 2.275 . S
O54 C42 1.254 . S
O55 Dy41 2.339 . S
O55 C42 1.257 . S
C56 C59 1.344 . S
C56 C60 1.328 . S
C56 C62 1.516 . S
C57 C58 1.304 . S
C57 C61 1.323 . S
C58 C57 1.304 . S
C58 C59 1.371 . S
C58 H72 0.930 . S
C59 C56 1.344 . S
C59 C58 1.371 . S
C59 H73 0.931 . S
C60 C56 1.328 . S
C60 C61 1.433 . S
C60 H74 0.931 . S
C61 C57 1.323 . S
C61 C60 1.433 . S
C61 H75 0.933 . S
C62 Dy40 2.738 . S
C62 O45 1.255 . S
C62 O46 1.249 . S
C62 C56 1.516 . S
C63 O47 1.254 . S
C63 O48 1.257 . S
C64 O49 1.266 . S
C64 O50 1.236 . S
C65 C68 1.344 . S
C65 C69 1.328 . S
C65 C71 1.516 . S
C66 C67 1.304 . S
C66 C70 1.323 . S
C67 C66 1.304 . S
C67 C68 1.371 . S
C67 H76 0.930 . S
C68 C65 1.344 . S
C68 C67 1.371 . S
C68 H77 0.931 . S
C69 C65 1.328 . S
C69 C70 1.433 . S
C69 H78 0.931 . S
C70 C66 1.323 . S
C70 C69 1.433 . S
C70 H79 0.933 . S
C71 Dy41 2.738 . S
C71 O51 1.255 . S
C71 O52 1.249 . S
C71 C65 1.516 . S
H72 C58 0.930 . S
H73 C59 0.931 . S
H74 C60 0.931 . S
H75 C61 0.933 . S
H76 C67 0.930 . S
H77 C68 0.931 . S
H78 C69 0.931 . S
H79 C70 0.933 . S
Dy80 O83 2.307 . S
Dy80 O85 2.395 . S
Dy80 O86 2.379 . S
Dy80 O88 2.339 . S
Dy80 O90 2.298 . S
Dy80 O94 2.275 . S
Dy80 C102 2.738 . S
Dy81 O84 2.298 . S
Dy81 O87 2.275 . S
Dy81 O89 2.307 . S
Dy81 O91 2.395 . S
Dy81 O92 2.379 . S
Dy81 O95 2.339 . S
Dy81 C111 2.738 . S
C82 O94 1.254 . S
C82 O95 1.257 . S
O83 Dy80 2.307 . S
O83 C93 1.266 . S
O84 Dy81 2.298 . S
O84 C93 1.236 . S
O85 Dy80 2.395 . S
O85 C102 1.255 . S
O86 Dy80 2.379 . S
O86 C102 1.249 . S
O87 Dy81 2.275 . S
O87 C103 1.254 . S
O88 Dy80 2.339 . S
O88 C103 1.257 . S
O89 Dy81 2.307 . S
O89 C104 1.266 . S
O90 Dy80 2.298 . S
O90 C104 1.236 . S
O91 Dy81 2.395 . S
O91 C111 1.255 . S
O92 Dy81 2.379 . S
O92 C111 1.249 . S
C93 O83 1.266 . S
C93 O84 1.236 . S
O94 Dy80 2.275 . S
O94 C82 1.254 . S
O95 Dy81 2.339 . S
O95 C82 1.257 . S
C96 C99 1.344 . S
C96 C100 1.328 . S
C96 C102 1.516 . S
C97 C98 1.304 . S
C97 C101 1.323 . S
C98 C97 1.304 . S
C98 C99 1.371 . S
C98 H112 0.930 . S
C99 C96 1.344 . S
C99 C98 1.371 . S
C99 H113 0.931 . S
C100 C96 1.328 . S
C100 C101 1.433 . S
C100 H114 0.931 . S
C101 C97 1.323 . S
C101 C100 1.433 . S
C101 H115 0.933 . S
C102 Dy80 2.738 . S
C102 O85 1.255 . S
C102 O86 1.249 . S
C102 C96 1.516 . S
C103 O87 1.254 . S
C103 O88 1.257 . S
C104 O89 1.266 . S
C104 O90 1.236 . S
C105 C108 1.344 . S
C105 C109 1.328 . S
C105 C111 1.516 . S
C106 C107 1.304 . S
C106 C110 1.323 . S
C107 C106 1.304 . S
C107 C108 1.371 . S
C107 H116 0.930 . S
C108 C105 1.344 . S
C108 C107 1.371 . S
C108 H117 0.931 . S
C109 C105 1.328 . S
C109 C110 1.433 . S
C109 H118 0.931 . S
C110 C106 1.323 . S
C110 C109 1.433 . S
C110 H119 0.933 . S
C111 Dy81 2.738 . S
C111 O91 1.255 . S
C111 O92 1.249 . S
C111 C105 1.516 . S
H112 C98 0.930 . S
H113 C99 0.931 . S
H114 C100 0.931 . S
H115 C101 0.933 . S
H116 C107 0.930 . S
H117 C108 0.931 . S
H118 C109 0.931 . S
H119 C110 0.933 . S
Dy120 O123 2.307 . S
Dy120 O125 2.395 . S
Dy120 O126 2.379 . S
Dy120 O128 2.339 . S
Dy120 O130 2.298 . S
Dy120 O134 2.275 . S
Dy120 C142 2.738 . S
Dy121 O124 2.298 . S
Dy121 O127 2.275 . S
Dy121 O129 2.307 . S
Dy121 O131 2.395 . S
Dy121 O132 2.379 . S
Dy121 O135 2.339 . S
Dy121 C151 2.738 . S
C122 O134 1.254 . S
C122 O135 1.257 . S
O123 Dy120 2.307 . S
O123 C133 1.266 . S
O124 Dy121 2.298 . S
O124 C133 1.236 . S
O125 Dy120 2.395 . S
O125 C142 1.255 . S
O126 Dy120 2.379 . S
O126 C142 1.249 . S
O127 Dy121 2.275 . S
O127 C143 1.254 . S
O128 Dy120 2.339 . S
O128 C143 1.257 . S
O129 Dy121 2.307 . S
O129 C144 1.266 . S
O130 Dy120 2.298 . S
O130 C144 1.236 . S
O131 Dy121 2.395 . S
O131 C151 1.255 . S
O132 Dy121 2.379 . S
O132 C151 1.249 . S
C133 O123 1.266 . S
C133 O124 1.236 . S
O134 Dy120 2.275 . S
O134 C122 1.254 . S
O135 Dy121 2.339 . S
O135 C122 1.257 . S
C136 C139 1.344 . S
C136 C140 1.328 . S
C136 C142 1.516 . S
C137 C138 1.304 . S
C137 C141 1.323 . S
C138 C137 1.304 . S
C138 C139 1.371 . S
C138 H152 0.930 . S
C139 C136 1.344 . S
C139 C138 1.371 . S
C139 H153 0.931 . S
C140 C136 1.328 . S
C140 C141 1.433 . S
C140 H154 0.931 . S
C141 C137 1.323 . S
C141 C140 1.433 . S
C141 H155 0.933 . S
C142 Dy120 2.738 . S
C142 O125 1.255 . S
C142 O126 1.249 . S
C142 C136 1.516 . S
C143 O127 1.254 . S
C143 O128 1.257 . S
C144 O129 1.266 . S
C144 O130 1.236 . S
C145 C148 1.344 . S
C145 C149 1.328 . S
C145 C151 1.516 . S
C146 C147 1.304 . S
C146 C150 1.323 . S
C147 C146 1.304 . S
C147 C148 1.371 . S
C147 H156 0.930 . S
C148 C145 1.344 . S
C148 C147 1.371 . S
C148 H157 0.931 . S
C149 C145 1.328 . S
C149 C150 1.433 . S
C149 H158 0.931 . S
C150 C146 1.323 . S
C150 C149 1.433 . S
C150 H159 0.933 . S
C151 Dy121 2.738 . S
C151 O131 1.255 . S
C151 O132 1.249 . S
C151 C145 1.516 . S
H152 C138 0.930 . S
H153 C139 0.931 . S
H154 C140 0.931 . S
H155 C141 0.933 . S
H156 C147 0.930 . S
H157 C148 0.931 . S
H158 C149 0.931 . S
H159 C150 0.933 . S
Dy160 O163 2.307 . S
Dy160 O165 2.395 1_556 S
Dy160 O166 2.379 1_556 S
Dy160 O168 2.339 . S
Dy160 O170 2.298 1_556 S
Dy160 O174 2.275 . S
Dy160 C182 2.738 1_556 S
Dy161 O164 2.298 1_554 S
Dy161 O167 2.275 . S
Dy161 O169 2.307 . S
Dy161 O171 2.395 1_554 S
Dy161 O172 2.379 1_554 S
Dy161 O175 2.339 . S
Dy161 C191 2.738 1_554 S
C162 O174 1.254 1_554 S
C162 O175 1.257 . S
O163 Dy160 2.307 . S
O163 C173 1.266 . S
O164 Dy161 2.298 1_556 S
O164 C173 1.236 . S
O165 Dy160 2.395 1_554 S
O165 C182 1.255 . S
O166 Dy160 2.379 1_554 S
O166 C182 1.249 . S
O167 Dy161 2.275 . S
O167 C183 1.254 1_554 S
O168 Dy160 2.339 . S
O168 C183 1.257 . S
O169 Dy161 2.307 . S
O169 C184 1.266 . S
O170 Dy160 2.298 1_554 S
O170 C184 1.236 . S
O171 Dy161 2.395 1_556 S
O171 C191 1.255 . S
O172 Dy161 2.379 1_556 S
O172 C191 1.249 . S
C173 O163 1.266 . S
C173 O164 1.236 . S
O174 Dy160 2.275 . S
O174 C162 1.254 1_556 S
O175 Dy161 2.339 . S
O175 C162 1.257 . S
C176 C179 1.344 . S
C176 C180 1.328 . S
C176 C182 1.516 . S
C177 C178 1.304 . S
C177 C181 1.323 . S
C178 C177 1.304 . S
C178 C179 1.371 . S
C178 H192 0.930 . S
C179 C176 1.344 . S
C179 C178 1.371 . S
C179 H193 0.931 . S
C180 C176 1.328 . S
C180 C181 1.433 . S
C180 H194 0.931 . S
C181 C177 1.323 . S
C181 C180 1.433 . S
C181 H195 0.933 . S
C182 Dy160 2.738 1_554 S
C182 O165 1.255 . S
C182 O166 1.249 . S
C182 C176 1.516 . S
C183 O167 1.254 1_556 S
C183 O168 1.257 . S
C184 O169 1.266 . S
C184 O170 1.236 . S
C185 C188 1.344 . S
C185 C189 1.328 . S
C185 C191 1.516 . S
C186 C187 1.304 . S
C186 C190 1.323 . S
C187 C186 1.304 . S
C187 C188 1.371 . S
C187 H196 0.930 . S
C188 C185 1.344 . S
C188 C187 1.371 . S
C188 H197 0.931 . S
C189 C185 1.328 . S
C189 C190 1.433 . S
C189 H198 0.931 . S
C190 C186 1.323 . S
C190 C189 1.433 . S
C190 H199 0.933 . S
C191 Dy161 2.738 1_556 S
C191 O171 1.255 . S
C191 O172 1.249 . S
C191 C185 1.516 . S
H192 C178 0.930 . S
H193 C179 0.931 . S
H194 C180 0.931 . S
H195 C181 0.933 . S
H196 C187 0.930 . S
H197 C188 0.931 . S
H198 C189 0.931 . S
H199 C190 0.933 . S
Dy200 O203 2.307 . S
Dy200 O205 2.395 1_556 S
Dy200 O206 2.379 1_556 S
Dy200 O208 2.339 . S
Dy200 O210 2.298 1_556 S
Dy200 O214 2.275 . S
Dy200 C222 2.738 1_556 S
Dy201 O204 2.298 1_554 S
Dy201 O207 2.275 . S
Dy201 O209 2.307 . S
Dy201 O211 2.395 1_554 S
Dy201 O212 2.379 1_554 S
Dy201 O215 2.339 . S
Dy201 C231 2.738 1_554 S
C202 O214 1.254 1_554 S
C202 O215 1.257 . S
O203 Dy200 2.307 . S
O203 C213 1.266 . S
O204 Dy201 2.298 1_556 S
O204 C213 1.236 . S
O205 Dy200 2.395 1_554 S
O205 C222 1.255 . S
O206 Dy200 2.379 1_554 S
O206 C222 1.249 . S
O207 Dy201 2.275 . S
O207 C223 1.254 1_554 S
O208 Dy200 2.339 . S
O208 C223 1.257 . S
O209 Dy201 2.307 . S
O209 C224 1.266 . S
O210 Dy200 2.298 1_554 S
O210 C224 1.236 . S
O211 Dy201 2.395 1_556 S
O211 C231 1.255 . S
O212 Dy201 2.379 1_556 S
O212 C231 1.249 . S
C213 O203 1.266 . S
C213 O204 1.236 . S
O214 Dy200 2.275 . S
O214 C202 1.254 1_556 S
O215 Dy201 2.339 . S
O215 C202 1.257 . S
C216 C219 1.344 . S
C216 C220 1.328 . S
C216 C222 1.516 . S
C217 C218 1.304 . S
C217 C221 1.323 . S
C218 C217 1.304 . S
C218 C219 1.371 . S
C218 H232 0.930 . S
C219 C216 1.344 . S
C219 C218 1.371 . S
C219 H233 0.931 . S
C220 C216 1.328 . S
C220 C221 1.433 . S
C220 H234 0.931 . S
C221 C217 1.323 . S
C221 C220 1.433 . S
C221 H235 0.933 . S
C222 Dy200 2.738 1_554 S
C222 O205 1.255 . S
C222 O206 1.249 . S
C222 C216 1.516 . S
C223 O207 1.254 1_556 S
C223 O208 1.257 . S
C224 O209 1.266 . S
C224 O210 1.236 . S
C225 C228 1.344 . S
C225 C229 1.328 . S
C225 C231 1.516 . S
C226 C227 1.304 . S
C226 C230 1.323 . S
C227 C226 1.304 . S
C227 C228 1.371 . S
C227 H236 0.930 . S
C228 C225 1.344 . S
C228 C227 1.371 . S
C228 H237 0.931 . S
C229 C225 1.328 . S
C229 C230 1.433 . S
C229 H238 0.931 . S
C230 C226 1.323 . S
C230 C229 1.433 . S
C230 H239 0.933 . S
C231 Dy201 2.738 1_556 S
C231 O211 1.255 . S
C231 O212 1.249 . S
C231 C225 1.516 . S
H232 C218 0.930 . S
H233 C219 0.931 . S
H234 C220 0.931 . S
H235 C221 0.933 . S
H236 C227 0.930 . S
H237 C228 0.931 . S
H238 C229 0.931 . S
H239 C230 0.933 . S
Dy240 O243 2.307 . S
Dy240 O245 2.395 1_554 S
Dy240 O246 2.379 1_554 S
Dy240 O248 2.339 . S
Dy240 O250 2.298 1_554 S
Dy240 O254 2.275 . S
Dy240 C262 2.738 1_554 S
Dy241 O244 2.298 1_556 S
Dy241 O247 2.275 . S
Dy241 O249 2.307 . S
Dy241 O251 2.395 1_556 S
Dy241 O252 2.379 1_556 S
Dy241 O255 2.339 . S
Dy241 C271 2.738 1_556 S
C242 O254 1.254 1_556 S
C242 O255 1.257 . S
O243 Dy240 2.307 . S
O243 C253 1.266 . S
O244 Dy241 2.298 1_554 S
O244 C253 1.236 . S
O245 Dy240 2.395 1_556 S
O245 C262 1.255 . S
O246 Dy240 2.379 1_556 S
O246 C262 1.249 . S
O247 Dy241 2.275 . S
O247 C263 1.254 1_556 S
O248 Dy240 2.339 . S
O248 C263 1.257 . S
O249 Dy241 2.307 . S
O249 C264 1.266 . S
O250 Dy240 2.298 1_556 S
O250 C264 1.236 . S
O251 Dy241 2.395 1_554 S
O251 C271 1.255 . S
O252 Dy241 2.379 1_554 S
O252 C271 1.249 . S
C253 O243 1.266 . S
C253 O244 1.236 . S
O254 Dy240 2.275 . S
O254 C242 1.254 1_554 S
O255 Dy241 2.339 . S
O255 C242 1.257 . S
C256 C259 1.344 . S
C256 C260 1.328 . S
C256 C262 1.516 . S
C257 C258 1.304 . S
C257 C261 1.323 . S
C258 C257 1.304 . S
C258 C259 1.371 . S
C258 H272 0.930 . S
C259 C256 1.344 . S
C259 C258 1.371 . S
C259 H273 0.931 . S
C260 C256 1.328 . S
C260 C261 1.433 . S
C260 H274 0.931 . S
C261 C257 1.323 . S
C261 C260 1.433 . S
C261 H275 0.933 . S
C262 Dy240 2.738 1_556 S
C262 O245 1.255 . S
C262 O246 1.249 . S
C262 C256 1.516 . S
C263 O247 1.254 1_554 S
C263 O248 1.257 . S
C264 O249 1.266 . S
C264 O250 1.236 . S
C265 C268 1.344 . S
C265 C269 1.328 . S
C265 C271 1.516 . S
C266 C267 1.304 . S
C266 C270 1.323 . S
C267 C266 1.304 . S
C267 C268 1.371 . S
C267 H276 0.930 . S
C268 C265 1.344 . S
C268 C267 1.371 . S
C268 H277 0.931 . S
C269 C265 1.328 . S
C269 C270 1.433 . S
C269 H278 0.931 . S
C270 C266 1.323 . S
C270 C269 1.433 . S
C270 H279 0.933 . S
C271 Dy241 2.738 1_554 S
C271 O251 1.255 . S
C271 O252 1.249 . S
C271 C265 1.516 . S
H272 C258 0.930 . S
H273 C259 0.931 . S
H274 C260 0.931 . S
H275 C261 0.933 . S
H276 C267 0.930 . S
H277 C268 0.931 . S
H278 C269 0.931 . S
H279 C270 0.933 . S
Dy280 O283 2.307 . S
Dy280 O285 2.395 1_554 S
Dy280 O286 2.379 1_554 S
Dy280 O288 2.339 . S
Dy280 O290 2.298 1_554 S
Dy280 O294 2.275 . S
Dy280 C302 2.738 1_554 S
Dy281 O284 2.298 1_556 S
Dy281 O287 2.275 . S
Dy281 O289 2.307 . S
Dy281 O291 2.395 1_556 S
Dy281 O292 2.379 1_556 S
Dy281 O295 2.339 . S
Dy281 C311 2.738 1_556 S
C282 O294 1.254 1_556 S
C282 O295 1.257 . S
O283 Dy280 2.307 . S
O283 C293 1.266 . S
O284 Dy281 2.298 1_554 S
O284 C293 1.236 . S
O285 Dy280 2.395 1_556 S
O285 C302 1.255 . S
O286 Dy280 2.379 1_556 S
O286 C302 1.249 . S
O287 Dy281 2.275 . S
O287 C303 1.254 1_556 S
O288 Dy280 2.339 . S
O288 C303 1.257 . S
O289 Dy281 2.307 . S
O289 C304 1.266 . S
O290 Dy280 2.298 1_556 S
O290 C304 1.236 . S
O291 Dy281 2.395 1_554 S
O291 C311 1.255 . S
O292 Dy281 2.379 1_554 S
O292 C311 1.249 . S
C293 O283 1.266 . S
C293 O284 1.236 . S
O294 Dy280 2.275 . S
O294 C282 1.254 1_554 S
O295 Dy281 2.339 . S
O295 C282 1.257 . S
C296 C299 1.344 . S
C296 C300 1.328 . S
C296 C302 1.516 . S
C297 C298 1.304 . S
C297 C301 1.323 . S
C298 C297 1.304 . S
C298 C299 1.371 . S
C298 H312 0.930 . S
C299 C296 1.344 . S
C299 C298 1.371 . S
C299 H313 0.931 . S
C300 C296 1.328 . S
C300 C301 1.433 . S
C300 H314 0.931 . S
C301 C297 1.323 . S
C301 C300 1.433 . S
C301 H315 0.933 . S
C302 Dy280 2.738 1_556 S
C302 O285 1.255 . S
C302 O286 1.249 . S
C302 C296 1.516 . S
C303 O287 1.254 1_554 S
C303 O288 1.257 . S
C304 O289 1.266 . S
C304 O290 1.236 . S
C305 C308 1.344 . S
C305 C309 1.328 . S
C305 C311 1.516 . S
C306 C307 1.304 . S
C306 C310 1.323 . S
C307 C306 1.304 . S
C307 C308 1.371 . S
C307 H316 0.930 . S
C308 C305 1.344 . S
C308 C307 1.371 . S
C308 H317 0.931 . S
C309 C305 1.328 . S
C309 C310 1.433 . S
C309 H318 0.931 . S
C310 C306 1.323 . S
C310 C309 1.433 . S
C310 H319 0.933 . S
C311 Dy281 2.738 1_554 S
C311 O291 1.255 . S
C311 O292 1.249 . S
C311 C305 1.516 . S
H312 C298 0.930 . S
H313 C299 0.931 . S
H314 C300 0.931 . S
H315 C301 0.933 . S
H316 C307 0.930 . S
H317 C308 0.931 . S
H318 C309 0.931 . S
H319 C310 0.933 . S
H320 C326 0.930 . S
H321 C329 0.930 . S
H322 C330 0.930 . S
H323 C331 0.930 . S
H324 C334 0.930 . S
H325 C335 0.930 . S
C326 H320 0.930 . S
C326 C327 1.355 . S
C326 C328 1.415 . S
C327 C326 1.355 . S
C327 C329 1.419 . S
C328 C326 1.415 . S
C328 C333 1.425 . S
C328 C335 1.409 . S
C329 H321 0.930 . S
C329 C327 1.419 . S
C329 C330 1.362 . S
C330 H322 0.930 . S
C330 C329 1.362 . S
C330 C333 1.409 . S
C331 H323 0.930 . S
C331 C332 1.355 . S
C331 C333 1.415 . S
C332 C331 1.355 . S
C332 C334 1.419 . S
C333 C328 1.425 . S
C333 C330 1.409 . S
C333 C331 1.415 . S
C334 H324 0.930 . S
C334 C332 1.419 . S
C334 C335 1.362 . S
C335 H325 0.930 . S
C335 C328 1.409 . S
C335 C334 1.362 . S
H336 C342 0.930 . S
H337 C345 0.930 . S
H338 C346 0.930 . S
H339 C347 0.930 . S
H340 C350 0.930 . S
H341 C351 0.930 . S
C342 H336 0.930 . S
C342 C343 1.355 . S
C342 C344 1.415 . S
C343 C342 1.355 . S
C343 C345 1.419 . S
C344 C342 1.415 . S
C344 C349 1.425 . S
C344 C351 1.409 . S
C345 H337 0.930 . S
C345 C343 1.419 . S
C345 C346 1.362 . S
C346 H338 0.930 . S
C346 C345 1.362 . S
C346 C349 1.409 . S
C347 H339 0.930 . S
C347 C348 1.355 . S
C347 C349 1.415 . S
C348 C347 1.355 . S
C348 C350 1.419 . S
C349 C344 1.425 . S
C349 C346 1.409 . S
C349 C347 1.415 . S
C350 H340 0.930 . S
C350 C348 1.419 . S
C350 C351 1.362 . S
C351 H341 0.930 . S
C351 C344 1.409 . S
C351 C350 1.362 . S
H352 C358 0.930 . S
H353 C361 0.930 . S
H354 C362 0.930 . S
H355 C363 0.930 . S
H356 C366 0.930 . S
H357 C367 0.930 . S
C358 H352 0.930 . S
C358 C359 1.355 . S
C358 C360 1.415 . S
C359 C358 1.355 . S
C359 C361 1.419 . S
C360 C358 1.415 . S
C360 C365 1.425 . S
C360 C367 1.409 . S
C361 H353 0.930 . S
C361 C359 1.419 . S
C361 C362 1.362 . S
C362 H354 0.930 . S
C362 C361 1.362 . S
C362 C365 1.409 . S
C363 H355 0.930 . S
C363 C364 1.355 . S
C363 C365 1.415 . S
C364 C363 1.355 . S
C364 C366 1.419 . S
C365 C360 1.425 . S
C365 C362 1.409 . S
C365 C363 1.415 . S
C366 H356 0.930 . S
C366 C364 1.419 . S
C366 C367 1.362 . S
C367 H357 0.930 . S
C367 C360 1.409 . S
C367 C366 1.362 . S
H368 C374 0.930 . S
H369 C377 0.930 . S
H370 C378 0.930 . S
H371 C379 0.930 . S
H372 C382 0.930 . S
H373 C383 0.930 . S
C374 H368 0.930 . S
C374 C375 1.355 . S
C374 C376 1.415 . S
C375 C374 1.355 . S
C375 C377 1.419 . S
C376 C374 1.415 . S
C376 C381 1.425 . S
C376 C383 1.409 . S
C377 H369 0.930 . S
C377 C375 1.419 . S
C377 C378 1.362 . S
C378 H370 0.930 . S
C378 C377 1.362 . S
C378 C381 1.409 . S
C379 H371 0.930 . S
C379 C380 1.355 . S
C379 C381 1.415 . S
C380 C379 1.355 . S
C380 C382 1.419 . S
C381 C376 1.425 . S
C381 C378 1.409 . S
C381 C379 1.415 . S
C382 H372 0.930 . S
C382 C380 1.419 . S
C382 C383 1.362 . S
C383 H373 0.930 . S
C383 C376 1.409 . S
C383 C382 1.362 . S
H384 C390 0.930 . S
H385 C393 0.930 . S
H386 C394 0.930 . S
H387 C395 0.930 . S
H388 C398 0.930 . S
H389 C399 0.930 . S
C390 H384 0.930 . S
C390 C391 1.355 . S
C390 C392 1.415 . S
C391 C390 1.355 . S
C391 C393 1.419 . S
C392 C390 1.415 . S
C392 C397 1.425 1_565 S
C392 C399 1.409 1_565 S
C393 H385 0.930 . S
C393 C391 1.419 . S
C393 C394 1.362 . S
C394 H386 0.930 . S
C394 C393 1.362 . S
C394 C397 1.409 1_565 S
C395 H387 0.930 . S
C395 C396 1.355 . S
C395 C397 1.415 . S
C396 C395 1.355 . S
C396 C398 1.419 . S
C397 C392 1.425 1_545 S
C397 C394 1.409 1_545 S
C397 C395 1.415 . S
C398 H388 0.930 . S
C398 C396 1.419 . S
C398 C399 1.362 . S
C399 H389 0.930 . S
C399 C392 1.409 1_545 S
C399 C398 1.362 . S
H400 C406 0.930 . S
H401 C409 0.930 . S
H402 C410 0.930 . S
H403 C411 0.930 . S
H404 C414 0.930 . S
H405 C415 0.930 . S
C406 H400 0.930 . S
C406 C407 1.355 . S
C406 C408 1.415 . S
C407 C406 1.355 . S
C407 C409 1.419 . S
C408 C406 1.415 . S
C408 C413 1.425 . S
C408 C415 1.409 . S
C409 H401 0.930 . S
C409 C407 1.419 . S
C409 C410 1.362 . S
C410 H402 0.930 . S
C410 C409 1.362 . S
C410 C413 1.409 . S
C411 H403 0.930 . S
C411 C412 1.355 . S
C411 C413 1.415 . S
C412 C411 1.355 . S
C412 C414 1.419 . S
C413 C408 1.425 . S
C413 C410 1.409 . S
C413 C411 1.415 . S
C414 H404 0.930 . S
C414 C412 1.419 . S
C414 C415 1.362 . S
C415 H405 0.930 . S
C415 C408 1.409 . S
C415 C414 1.362 . S
H416 C422 0.930 . S
H417 C425 0.930 . S
H418 C426 0.930 1_545 S
H419 C427 0.930 . S
H420 C430 0.930 . S
H421 C431 0.930 1_565 S
C422 H416 0.930 . S
C422 C423 1.355 . S
C422 C424 1.415 . S
C423 C422 1.355 . S
C423 C425 1.419 . S
C424 C422 1.415 . S
C424 C429 1.425 1_565 S
C424 C431 1.409 1_565 S
C425 H417 0.930 . S
C425 C423 1.419 . S
C425 C426 1.362 . S
C426 H418 0.930 1_565 S
C426 C425 1.362 . S
C426 C429 1.409 1_565 S
C427 H419 0.930 . S
C427 C428 1.355 . S
C427 C429 1.415 . S
C428 C427 1.355 . S
C428 C430 1.419 . S
C429 C424 1.425 1_545 S
C429 C426 1.409 1_545 S
C429 C427 1.415 . S
C430 H420 0.930 . S
C430 C428 1.419 . S
C430 C431 1.362 . S
C431 H421 0.930 1_545 S
C431 C424 1.409 1_545 S
C431 C430 1.362 . S
H432 C438 0.930 . S
H433 C441 0.930 . S
H434 C442 0.930 . S
H435 C443 0.930 . S
H436 C446 0.930 . S
H437 C447 0.930 . S
C438 H432 0.930 . S
C438 C439 1.355 . S
C438 C440 1.415 . S
C439 C438 1.355 . S
C439 C441 1.419 . S
C440 C438 1.415 . S
C440 C445 1.425 . S
C440 C447 1.409 . S
C441 H433 0.930 . S
C441 C439 1.419 . S
C441 C442 1.362 . S
C442 H434 0.930 . S
C442 C441 1.362 . S
C442 C445 1.409 . S
C443 H435 0.930 . S
C443 C444 1.355 . S
C443 C445 1.415 . S
C444 C443 1.355 . S
C444 C446 1.419 . S
C445 C440 1.425 . S
C445 C442 1.409 . S
C445 C443 1.415 . S
C446 H436 0.930 . S
C446 C444 1.419 . S
C446 C447 1.362 . S
C447 H437 0.930 . S
C447 C440 1.409 . S
C447 C446 1.362 . S
H448 C454 0.930 . S
H449 C457 0.930 . S
H450 C458 0.930 . S
H451 C459 0.930 . S
H452 C462 0.930 . S
H453 C463 0.930 . S
C454 H448 0.930 . S
C454 C455 1.355 1_556 S
C454 C456 1.415 . S
C455 C454 1.355 1_554 S
C455 C457 1.419 . S
C456 C454 1.415 . S
C456 C461 1.425 1_556 S
C456 C463 1.409 . S
C457 H449 0.930 . S
C457 C455 1.419 . S
C457 C458 1.362 . S
C458 H450 0.930 . S
C458 C457 1.362 . S
C458 C461 1.409 . S
C459 H451 0.930 . S
C459 C460 1.355 1_554 S
C459 C461 1.415 . S
C460 C459 1.355 1_556 S
C460 C462 1.419 . S
C461 C456 1.425 1_554 S
C461 C458 1.409 . S
C461 C459 1.415 . S
C462 H452 0.930 . S
C462 C460 1.419 . S
C462 C463 1.362 . S
C463 H453 0.930 . S
C463 C456 1.409 . S
C463 C462 1.362 . S
H464 C470 0.930 . S
H465 C473 0.930 . S
H466 C474 0.930 . S
H467 C475 0.930 . S
H468 C478 0.930 . S
H469 C479 0.930 . S
C470 H464 0.930 . S
C470 C471 1.355 . S
C470 C472 1.415 . S
C471 C470 1.355 . S
C471 C473 1.419 1_554 S
C472 C470 1.415 . S
C472 C477 1.425 1_564 S
C472 C479 1.409 1_565 S
C473 H465 0.930 . S
C473 C471 1.419 1_556 S
C473 C474 1.362 . S
C474 H466 0.930 . S
C474 C473 1.362 . S
C474 C477 1.409 1_565 S
C475 H467 0.930 . S
C475 C476 1.355 . S
C475 C477 1.415 . S
C476 C475 1.355 . S
C476 C478 1.419 1_556 S
C477 C472 1.425 1_546 S
C477 C474 1.409 1_545 S
C477 C475 1.415 . S
C478 H468 0.930 . S
C478 C476 1.419 1_554 S
C478 C479 1.362 . S
C479 H469 0.930 . S
C479 C472 1.409 1_545 S
C479 C478 1.362 . S
H480 C486 0.930 . S
H481 C489 0.930 . S
H482 C490 0.930 . S
H483 C491 0.930 . S
H484 C494 0.930 . S
H485 C495 0.930 . S
C486 H480 0.930 . S
C486 C487 1.355 . S
C486 C488 1.415 . S
C487 C486 1.355 . S
C487 C489 1.419 1_554 S
C488 C486 1.415 . S
C488 C493 1.425 1_554 S
C488 C495 1.409 . S
C489 H481 0.930 . S
C489 C487 1.419 1_556 S
C489 C490 1.362 . S
C490 H482 0.930 . S
C490 C489 1.362 . S
C490 C493 1.409 . S
C491 H483 0.930 . S
C491 C492 1.355 . S
C491 C493 1.415 . S
C492 C491 1.355 . S
C492 C494 1.419 1_556 S
C493 C488 1.425 1_556 S
C493 C490 1.409 . S
C493 C491 1.415 . S
C494 H484 0.930 . S
C494 C492 1.419 1_554 S
C494 C495 1.362 . S
C495 H485 0.930 . S
C495 C488 1.409 . S
C495 C494 1.362 . S
H496 C502 0.930 . S
H497 C505 0.930 . S
H498 C506 0.930 . S
H499 C507 0.930 . S
H500 C510 0.930 . S
H501 C511 0.930 . S
C502 H496 0.930 . S
C502 C503 1.355 1_556 S
C502 C504 1.415 . S
C503 C502 1.355 1_554 S
C503 C505 1.419 . S
C504 C502 1.415 . S
C504 C509 1.425 1_546 S
C504 C511 1.409 1_545 S
C505 H497 0.930 . S
C505 C503 1.419 . S
C505 C506 1.362 . S
C506 H498 0.930 . S
C506 C505 1.362 . S
C506 C509 1.409 1_545 S
C507 H499 0.930 . S
C507 C508 1.355 1_554 S
C507 C509 1.415 . S
C508 C507 1.355 1_556 S
C508 C510 1.419 . S
C509 C504 1.425 1_564 S
C509 C506 1.409 1_565 S
C509 C507 1.415 . S
C510 H500 0.930 . S
C510 C508 1.419 . S
C510 C511 1.362 . S
C511 H501 0.930 . S
C511 C504 1.409 1_565 S
C511 C510 1.362 . S
H512 C518 0.930 . S
H513 C521 0.930 . S
H514 C522 0.930 1_556 S
H515 C523 0.930 . S
H516 C526 0.930 . S
H517 C527 0.930 . S
C518 H512 0.930 . S
C518 C519 1.355 . S
C518 C520 1.415 1_554 S
C519 C518 1.355 . S
C519 C521 1.419 . S
C520 C518 1.415 1_556 S
C520 C525 1.425 . S
C520 C527 1.409 . S
C521 H513 0.930 . S
C521 C519 1.419 . S
C521 C522 1.362 . S
C522 H514 0.930 1_554 S
C522 C521 1.362 . S
C522 C525 1.409 1_554 S
C523 H515 0.930 . S
C523 C524 1.355 . S
C523 C525 1.415 . S
C524 C523 1.355 . S
C524 C526 1.419 . S
C525 C520 1.425 . S
C525 C522 1.409 1_556 S
C525 C523 1.415 . S
C526 H516 0.930 . S
C526 C524 1.419 . S
C526 C527 1.362 . S
C527 H517 0.930 . S
C527 C520 1.409 . S
C527 C526 1.362 . S
H528 C534 0.930 . S
H529 C537 0.930 . S
H530 C538 0.930 . S
H531 C539 0.930 . S
H532 C542 0.930 . S
H533 C543 0.930 . S
C534 H528 0.930 . S
C534 C535 1.355 . S
C534 C536 1.415 1_554 S
C535 C534 1.355 . S
C535 C537 1.419 . S
C536 C534 1.415 1_556 S
C536 C541 1.425 . S
C536 C543 1.409 . S
C537 H529 0.930 . S
C537 C535 1.419 . S
C537 C538 1.362 1_554 S
C538 H530 0.930 . S
C538 C537 1.362 1_556 S
C538 C541 1.409 . S
C539 H531 0.930 . S
C539 C540 1.355 . S
C539 C541 1.415 . S
C540 C539 1.355 . S
C540 C542 1.419 . S
C541 C536 1.425 . S
C541 C538 1.409 . S
C541 C539 1.415 . S
C542 H532 0.930 . S
C542 C540 1.419 . S
C542 C543 1.362 . S
C543 H533 0.930 . S
C543 C536 1.409 . S
C543 C542 1.362 . S
H544 C550 0.930 . S
H545 C553 0.930 . S
H546 C554 0.930 . S
H547 C555 0.930 . S
H548 C558 0.930 . S
H549 C559 0.930 . S
C550 H544 0.930 . S
C550 C551 1.355 . S
C550 C552 1.415 . S
C551 C550 1.355 . S
C551 C553 1.419 . S
C552 C550 1.415 . S
C552 C557 1.425 . S
C552 C559 1.409 . S
C553 H545 0.930 . S
C553 C551 1.419 . S
C553 C554 1.362 . S
C554 H546 0.930 . S
C554 C553 1.362 . S
C554 C557 1.409 . S
C555 H547 0.930 . S
C555 C556 1.355 . S
C555 C557 1.415 1_556 S
C556 C555 1.355 . S
C556 C558 1.419 . S
C557 C552 1.425 . S
C557 C554 1.409 . S
C557 C555 1.415 1_554 S
C558 H548 0.930 . S
C558 C556 1.419 . S
C558 C559 1.362 1_556 S
C559 H549 0.930 . S
C559 C552 1.409 . S
C559 C558 1.362 1_554 S
H560 C566 0.930 . S
H561 C569 0.930 . S
H562 C570 0.930 . S
H563 C571 0.930 . S
H564 C574 0.930 . S
H565 C575 0.930 . S
C566 H560 0.930 . S
C566 C567 1.355 . S
C566 C568 1.415 1_556 S
C567 C566 1.355 . S
C567 C569 1.419 . S
C568 C566 1.415 1_554 S
C568 C573 1.425 . S
C568 C575 1.409 . S
C569 H561 0.930 . S
C569 C567 1.419 . S
C569 C570 1.362 . S
C570 H562 0.930 . S
C570 C569 1.362 . S
C570 C573 1.409 1_556 S
C571 H563 0.930 . S
C571 C572 1.355 . S
C571 C573 1.415 . S
C572 C571 1.355 . S
C572 C574 1.419 . S
C573 C568 1.425 . S
C573 C570 1.409 1_554 S
C573 C571 1.415 . S
C574 H564 0.930 . S
C574 C572 1.419 . S
C574 C575 1.362 . S
C575 H565 0.930 . S
C575 C568 1.409 . S
C575 C574 1.362 . S
H576 C582 0.930 . S
H577 C585 0.930 . S
H578 C586 0.930 . S
H579 C587 0.930 . S
H580 C590 0.930 . S
H581 C591 0.930 . S
C582 H576 0.930 . S
C582 C583 1.355 . S
C582 C584 1.415 . S
C583 C582 1.355 . S
C583 C585 1.419 . S
C584 C582 1.415 . S
C584 C589 1.425 . S
C584 C591 1.409 . S
C585 H577 0.930 . S
C585 C583 1.419 . S
C585 C586 1.362 . S
C586 H578 0.930 . S
C586 C585 1.362 . S
C586 C589 1.409 . S
C587 H579 0.930 . S
C587 C588 1.355 . S
C587 C589 1.415 . S
C588 C587 1.355 . S
C588 C590 1.419 . S
C589 C584 1.425 . S
C589 C586 1.409 . S
C589 C587 1.415 . S
C590 H580 0.930 . S
C590 C588 1.419 . S
C590 C591 1.362 . S
C591 H581 0.930 . S
C591 C584 1.409 . S
C591 C590 1.362 . S
H592 C598 0.930 . S
H593 C601 0.930 . S
H594 C602 0.930 . S
H595 C603 0.930 . S
H596 C606 0.930 . S
H597 C607 0.930 . S
C598 H592 0.930 . S
C598 C599 1.355 . S
C598 C600 1.415 . S
C599 C598 1.355 . S
C599 C601 1.419 . S
C600 C598 1.415 . S
C600 C605 1.425 . S
C600 C607 1.409 . S
C601 H593 0.930 . S
C601 C599 1.419 . S
C601 C602 1.362 . S
C602 H594 0.930 . S
C602 C601 1.362 . S
C602 C605 1.409 . S
C603 H595 0.930 . S
C603 C604 1.355 . S
C603 C605 1.415 . S
C604 C603 1.355 . S
C604 C606 1.419 . S
C605 C600 1.425 . S
C605 C602 1.409 . S
C605 C603 1.415 . S
C606 H596 0.930 . S
C606 C604 1.419 . S
C606 C607 1.362 . S
C607 H597 0.930 . S
C607 C600 1.409 . S
C607 C606 1.362 . S
H608 C614 0.930 . S
H609 C617 0.930 . S
H610 C618 0.930 . S
H611 C619 0.930 . S
H612 C622 0.930 . S
H613 C623 0.930 . S
C614 H608 0.930 . S
C614 C615 1.355 . S
C614 C616 1.415 . S
C615 C614 1.355 . S
C615 C617 1.419 . S
C616 C614 1.415 . S
C616 C621 1.425 . S
C616 C623 1.409 . S
C617 H609 0.930 . S
C617 C615 1.419 . S
C617 C618 1.362 . S
C618 H610 0.930 . S
C618 C617 1.362 . S
C618 C621 1.409 . S
C619 H611 0.930 . S
C619 C620 1.355 . S
C619 C621 1.415 . S
C620 C619 1.355 . S
C620 C622 1.419 . S
C621 C616 1.425 . S
C621 C618 1.409 . S
C621 C619 1.415 . S
C622 H612 0.930 . S
C622 C620 1.419 . S
C622 C623 1.362 . S
C623 H613 0.930 . S
C623 C616 1.409 . S
C623 C622 1.362 . S
H624 C630 0.930 . S
H625 C633 0.930 . S
H626 C634 0.930 . S
H627 C635 0.930 . S
H628 C638 0.930 . S
H629 C639 0.930 . S
C630 H624 0.930 . S
C630 C631 1.355 . S
C630 C632 1.415 . S
C631 C630 1.355 . S
C631 C633 1.419 . S
C632 C630 1.415 . S
C632 C637 1.425 . S
C632 C639 1.409 . S
C633 H625 0.930 . S
C633 C631 1.419 . S
C633 C634 1.362 . S
C634 H626 0.930 . S
C634 C633 1.362 . S
C634 C637 1.409 . S
C635 H627 0.930 . S
C635 C636 1.355 . S
C635 C637 1.415 . S
C636 C635 1.355 . S
C636 C638 1.419 . S
C637 C632 1.425 . S
C637 C634 1.409 . S
C637 C635 1.415 . S
C638 H628 0.930 . S
C638 C636 1.419 . S
C638 C639 1.362 . S
C639 H629 0.930 . S
C639 C632 1.409 . S
C639 C638 1.362 . S
H640 C646 0.930 . S
H641 C649 0.930 . S
H642 C650 0.930 . S
H643 C651 0.930 . S
H644 C654 0.930 . S
H645 C655 0.930 . S
C646 H640 0.930 . S
C646 C647 1.355 . S
C646 C648 1.415 . S
C647 C646 1.355 . S
C647 C649 1.419 . S
C648 C646 1.415 . S
C648 C653 1.425 1_455 S
C648 C655 1.409 1_455 S
C649 H641 0.930 . S
C649 C647 1.419 . S
C649 C650 1.362 . S
C650 H642 0.930 . S
C650 C649 1.362 . S
C650 C653 1.409 1_455 S
C651 H643 0.930 . S
C651 C652 1.355 . S
C651 C653 1.415 . S
C652 C651 1.355 . S
C652 C654 1.419 . S
C653 C648 1.425 1_655 S
C653 C650 1.409 1_655 S
C653 C651 1.415 . S
C654 H644 0.930 . S
C654 C652 1.419 . S
C654 C655 1.362 . S
C655 H645 0.930 . S
C655 C648 1.409 1_655 S
C655 C654 1.362 . S
H656 C662 0.930 . S
H657 C665 0.930 . S
H658 C666 0.930 . S
H659 C667 0.930 . S
H660 C670 0.930 . S
H661 C671 0.930 . S
C662 H656 0.930 . S
C662 C663 1.355 . S
C662 C664 1.415 . S
C663 C662 1.355 . S
C663 C665 1.419 . S
C664 C662 1.415 . S
C664 C669 1.425 1_655 S
C664 C671 1.409 1_655 S
C665 H657 0.930 . S
C665 C663 1.419 . S
C665 C666 1.362 . S
C666 H658 0.930 . S
C666 C665 1.362 . S
C666 C669 1.409 1_655 S
C667 H659 0.930 . S
C667 C668 1.355 . S
C667 C669 1.415 . S
C668 C667 1.355 . S
C668 C670 1.419 . S
C669 C664 1.425 1_455 S
C669 C666 1.409 1_455 S
C669 C667 1.415 . S
C670 H660 0.930 . S
C670 C668 1.419 . S
C670 C671 1.362 . S
C671 H661 0.930 . S
C671 C664 1.409 1_455 S
C671 C670 1.362 . S
H672 C678 0.930 . S
H673 C681 0.930 . S
H674 C682 0.930 . S
H675 C683 0.930 . S
H676 C686 0.930 . S
H677 C687 0.930 . S
C678 H672 0.930 . S
C678 C679 1.355 . S
C678 C680 1.415 . S
C679 C678 1.355 . S
C679 C681 1.419 . S
C680 C678 1.415 . S
C680 C685 1.425 . S
C680 C687 1.409 . S
C681 H673 0.930 . S
C681 C679 1.419 . S
C681 C682 1.362 . S
C682 H674 0.930 . S
C682 C681 1.362 . S
C682 C685 1.409 . S
C683 H675 0.930 . S
C683 C684 1.355 . S
C683 C685 1.415 . S
C684 C683 1.355 . S
C684 C686 1.419 . S
C685 C680 1.425 . S
C685 C682 1.409 . S
C685 C683 1.415 . S
C686 H676 0.930 . S
C686 C684 1.419 . S
C686 C687 1.362 . S
C687 H677 0.930 . S
C687 C680 1.409 . S
C687 C686 1.362 . S
H688 C694 0.930 . S
H689 C697 0.930 . S
H690 C698 0.930 . S
H691 C699 0.930 . S
H692 C702 0.930 . S
H693 C703 0.930 . S
C694 H688 0.930 . S
C694 C695 1.355 . S
C694 C696 1.415 . S
C695 C694 1.355 . S
C695 C697 1.419 . S
C696 C694 1.415 . S
C696 C701 1.425 . S
C696 C703 1.409 . S
C697 H689 0.930 . S
C697 C695 1.419 . S
C697 C698 1.362 . S
C698 H690 0.930 . S
C698 C697 1.362 . S
C698 C701 1.409 . S
C699 H691 0.930 . S
C699 C700 1.355 . S
C699 C701 1.415 . S
C700 C699 1.355 . S
C700 C702 1.419 . S
C701 C696 1.425 . S
C701 C698 1.409 . S
C701 C699 1.415 . S
C702 H692 0.930 . S
C702 C700 1.419 . S
C702 C703 1.362 . S
C703 H693 0.930 . S
C703 C696 1.409 . S
C703 C702 1.362 . S
C327 C17 1.637 . S
C332 C297 1.636 . S
C343 C257 1.637 . S
C348 C57 1.636 . S
C359 C217 1.637 . S
C364 C97 1.636 . S
C375 C177 1.637 . S
C380 C137 1.636 . S
C391 C82 1.160 . S
C396 C2 1.079 . S
C407 C42 1.122 . S
C412 C122 1.109 . S
C423 C143 1.961 . S
C428 C63 1.934 . S
C439 C103 1.936 . S
C444 C23 1.960 . S
C455 C162 1.056 . S
C460 C242 1.106 . S
C471 C202 1.077 . S
C476 C282 1.035 . S
C487 C303 1.822 . S
C492 C223 1.861 . S
C503 C263 1.866 . S
C508 C183 1.843 . S
C519 C13 1.885 . S
C524 C24 1.885 . S
C535 C53 1.915 . S
C540 C64 1.915 . S
C551 C104 1.885 . S
C556 C93 1.885 . S
C567 C133 1.873 . S
C572 C144 1.873 . S
C583 C184 1.872 . S
C588 C173 1.872 . S
C599 C213 1.900 . S
C604 C224 1.900 . S
C615 C253 1.894 . S
C620 C264 1.894 . S
C631 C293 1.914 . S
C636 C304 1.914 . S
C647 C26 2.103 . S
C652 C66 2.121 . S
C663 C146 2.103 . S
C668 C106 2.120 . S
C679 C186 2.109 . S
C684 C226 2.112 . S
C695 C306 2.125 . S
C700 C266 2.111 . S
