# Generated by pormake.
# Topology uoj, (4)-cn, num edge types: 1
# Building blocks:
#     Node 0, Type 0, BuildingBlock: KOZSID_clean_sbu_0, # of connection points: 4
#     Node 1, Type 0, BuildingBlock: KOZSID_clean_sbu_0, # of connection points: 4
#     Node 2, Type 0, BuildingBlock: KOZSID_clean_sbu_0, # of connection points: 4
#     Node 3, Type 0, BuildingBlock: KOZSID_clean_sbu_0, # of connection points: 4
#     Node 4, Type 0, BuildingBlock: KOZSID_clean_sbu_0, # of connection points: 4
#     Node 5, Type 0, BuildingBlock: KOZSID_clean_sbu_0, # of connection points: 4
#     Node 6, Type 0, BuildingBlock: KOZSID_clean_sbu_0, # of connection points: 4
#     Node 7, Type 0, BuildingBlock: KOZSID_clean_sbu_0, # of connection points: 4
#     Edge 8, Type (0, 0), BuildingBlock: AJUNOK_clean_linker_0, # of connection points: 2
#     Edge 9, Type (0, 0), BuildingBlock: AJUNOK_clean_linker_0, # of connection points: 2
#     Edge 10, Type (0, 0), BuildingBlock: AJUNOK_clean_linker_0, # of connection points: 2
#     Edge 11, Type (0, 0), BuildingBlock: AJUNOK_clean_linker_0, # of connection points: 2
#     Edge 12, Type (0, 0), BuildingBlock: AJUNOK_clean_linker_0, # of connection points: 2
#     Edge 13, Type (0, 0), BuildingBlock: AJUNOK_clean_linker_0, # of connection points: 2
#     Edge 14, Type (0, 0), BuildingBlock: AJUNOK_clean_linker_0, # of connection points: 2
#     Edge 15, Type (0, 0), BuildingBlock: AJUNOK_clean_linker_0, # of connection points: 2
#     Edge 16, Type (0, 0), BuildingBlock: AJUNOK_clean_linker_0, # of connection points: 2
#     Edge 17, Type (0, 0), BuildingBlock: AJUNOK_clean_linker_0, # of connection points: 2
#     Edge 18, Type (0, 0), BuildingBlock: AJUNOK_clean_linker_0, # of connection points: 2
#     Edge 19, Type (0, 0), BuildingBlock: AJUNOK_clean_linker_0, # of connection points: 2
#     Edge 20, Type (0, 0), BuildingBlock: AJUNOK_clean_linker_0, # of connection points: 2
#     Edge 21, Type (0, 0), BuildingBlock: AJUNOK_clean_linker_0, # of connection points: 2
#     Edge 22, Type (0, 0), BuildingBlock: AJUNOK_clean_linker_0, # of connection points: 2
#     Edge 23, Type (0, 0), BuildingBlock: AJUNOK_clean_linker_0, # of connection points: 2
# Relax obj value: 0.040
# Max RMSD: 0.327
# Mean RMSD: 0.302
data_MOF--net-uoj--node1-KOZSID_clean_sbu_0--edge1-AJUNOK_clean_linker_0
_symmetry_space_group_name_H-M    P1
_symmetry_Int_Tables_number       1
_symmetry_cell_setting            triclinic
loop_
_symmetry_equiv_pos_as_xyz
'x, y, z'
_cell_length_a     29.245678
_cell_length_b     31.346942
_cell_length_c     37.405074
_cell_angle_alpha  90.054863
_cell_angle_beta   90.121593
_cell_angle_gamma 95.487403
loop_
_atom_site_label
_atom_site_type_symbol
_atom_site_fract_x
_atom_site_fract_y
_atom_site_fract_z
_atom_type_partial_charge
C0 C 0.15437 0.333 0.38706 0.0
C1 C 0.19249 0.36246 0.3914 0.0
C2 C 0.19245 0.37589 0.42631 0.0
C3 C 0.15449 0.35393 0.44145 0.0
N4 N 0.13111 0.32667 0.41852 0.0
Co5 Co 0.07086 0.29374 0.42933 0.0
N6 N 0.07623 0.30402 0.48204 0.0
C7 C 0.10782 0.33173 0.49801 0.0
C8 C 0.10689 0.32843 0.53463 0.0
C9 C 0.07229 0.29693 0.54219 0.0
C10 C 0.05314 0.28319 0.50974 0.0
N11 N 1.00934 0.26307 0.43935 0.0
C12 C 0.98871 0.25102 0.47067 0.0
C13 C 0.9428 0.2362 0.46531 0.0
C14 C 0.93493 0.23755 0.42941 0.0
C15 C 0.97591 0.25379 0.41498 0.0
N16 N 0.06528 0.28068 0.37698 0.0
C17 C 1.02677 0.26422 0.36013 0.0
C18 C 1.03224 0.25816 0.32424 0.0
C19 C 0.07683 0.27253 0.31753 0.0
C20 C 0.09622 0.28694 0.3499 0.0
N21 N 0.10197 0.24073 0.43693 0.0
C22 C 0.14997 0.16819 0.45204 0.0
C23 C 0.10692 0.1638 0.4346 0.0
C24 C 0.08367 0.20054 0.42698 0.0
C25 C 0.16755 0.20945 0.46197 0.0
C26 C 0.14341 0.24463 0.45441 0.0
N27 N 0.04252 0.34874 0.42293 0.0
C28 C 0.04675 0.41656 0.39142 0.0
C29 C 0.03333 0.43811 0.42193 0.0
C30 C 1.0188 0.41264 0.4515 0.0
C31 C 1.02287 0.36809 0.45121 0.0
C32 C 0.05122 0.37244 0.39247 0.0
H33 H 1.01266 0.35002 0.47487 0.0
H34 H 0.06455 0.35859 0.36898 0.0
H35 H 0.05096 0.19643 0.41333 0.0
H36 H 0.15865 0.27508 0.46354 0.0
C37 C 0.14187 0.35508 0.47765 0.0
C38 C 0.1398 0.31446 0.35202 0.0
C39 C 1.01107 0.25293 0.50589 0.0
C40 C 0.98607 0.25461 0.37876 0.0
H41 H 0.21712 0.37378 0.37117 0.0
H42 H 0.21727 0.39883 0.43912 0.0
H43 H 0.12998 0.34546 0.55358 0.0
H44 H 0.06264 0.28535 0.56858 0.0
H45 H 0.9175 0.22524 0.48515 0.0
H46 H 0.90351 0.22665 0.41544 0.0
H47 H 1.00654 0.24579 0.30506 0.0
H48 H 0.09208 0.27463 0.29123 0.0
H49 H 0.09161 0.13242 0.42661 0.0
H50 H 0.19982 0.21466 0.47634 0.0
H51 H 0.05535 0.43393 0.36698 0.0
H52 H 1.00646 0.42721 0.47544 0.0
C53 C 0.42629 0.9565 0.57596 0.0
C54 C 0.45986 0.93514 0.5591 0.0
C55 C 0.43849 0.89848 0.54514 0.0
C56 C 0.39344 0.89894 0.55456 0.0
N57 N 0.38411 0.93368 0.57345 0.0
Co58 Co 0.32205 0.9439 0.59355 0.0
N59 N 0.29188 0.88852 0.57329 0.0
C60 C 0.31362 0.85895 0.5556 0.0
C61 C 0.28545 0.8246 0.5437 0.0
C62 C 0.24267 0.83257 0.55423 0.0
C63 C 0.24715 0.87128 0.57284 0.0
N64 N 0.25956 0.95486 0.61153 0.0
C65 C 0.217 0.93411 0.6047 0.0
C66 C 0.18282 0.955 0.62084 0.0
C67 C 0.20427 0.99008 0.63797 0.0
C68 C 0.25031 0.98869 0.63146 0.0
N69 N 0.3537 0.99735 0.61587 0.0
C70 C 0.33283 1.02533 0.63598 0.0
C71 C 0.36231 0.05863 0.64868 0.0
C72 C 0.40479 0.05124 0.6361 0.0
C73 C 0.39908 1.01351 0.61654 0.0
N74 N 0.30678 0.97673 0.54952 0.0
C75 C 0.26094 0.03504 0.50708 0.0
C76 C 0.30288 0.04776 0.5242 0.0
C77 C 0.32555 1.01815 0.54443 0.0
C78 C 0.24565 0.9914 0.50834 0.0
C79 C 0.26937 0.96298 0.52875 0.0
N80 N 0.33488 0.91328 0.63884 0.0
C81 C 0.30501 0.88375 0.69505 0.0
C82 C 0.34871 0.88869 0.71118 0.0
C83 C 0.38561 0.90363 0.68908 0.0
C84 C 0.37804 0.9159 0.65358 0.0
C85 C 0.29921 0.89475 0.65898 0.0
H86 H 0.40748 0.92886 0.63894 0.0
H87 H 0.26507 0.88983 0.64817 0.0
H88 H 0.35716 1.03 0.55718 0.0
H89 H 0.25531 0.93033 0.52838 0.0
C90 C 0.3598 0.86597 0.54782 0.0
C91 C 0.43746 0.99541 0.59767 0.0
C92 C 0.20753 0.89324 0.58501 0.0
C93 C 0.2855 1.01947 0.64189 0.0
H94 H 0.49652 0.94361 0.55834 0.0
H95 H 0.45428 0.87355 0.53102 0.0
H96 H 0.29463 0.79794 0.52769 0.0
H97 H 0.21189 0.81277 0.5469 0.0
H98 H 0.14623 0.94562 0.62043 0.0
H99 H 0.18813 1.01406 0.65297 0.0
H100 H 0.35389 0.08531 0.665 0.0
H101 H 0.4363 0.07161 0.6405 0.0
H102 H 0.31718 0.0809 0.52362 0.0
H103 H 0.2147 0.97923 0.49426 0.0
H104 H 0.27464 0.87323 0.71025 0.0
H105 H 0.42044 0.90695 0.69928 0.0
C106 C 0.91311 0.73178 0.38255 0.0
C107 C 0.87475 0.70265 0.38686 0.0
C108 C 0.87474 0.6894 0.42182 0.0
C109 C 0.91299 0.71104 0.437 0.0
N110 N 0.9366 0.7379 0.41402 0.0
Co111 Co 0.99716 0.77039 0.42495 0.0
N112 N 0.99147 0.76112 0.47768 0.0
C113 C 0.95978 0.73366 0.49366 0.0
C114 C 0.96095 0.73713 0.53029 0.0
C115 C 0.9958 0.76848 0.53782 0.0
C116 C 1.01477 0.78206 0.50536 0.0
N117 N 0.05887 0.80084 0.43511 0.0
C118 C 0.07921 0.81394 0.46639 0.0
C119 C 0.12515 0.82864 0.46119 0.0
C120 C 0.13341 0.82593 0.42545 0.0
C121 C 0.09259 0.80914 0.41093 0.0
N122 N 1.00336 0.782 0.37248 0.0
C123 C 0.04236 0.797 0.3557 0.0
C124 C 0.03737 0.80207 0.31963 0.0
C125 C 0.99254 0.78861 0.31276 0.0
C126 C 0.97254 0.77574 0.34523 0.0
N127 N 0.96657 0.82387 0.43166 0.0
C128 C 0.9205 0.89743 0.44734 0.0
C129 C 0.96365 0.90106 0.43017 0.0
C130 C 0.98591 0.86385 0.42226 0.0
C131 C 0.90138 0.85629 0.45605 0.0
C132 C 0.92474 0.82061 0.44844 0.0
N133 N 1.02494 0.71509 0.41956 0.0
C134 C 1.01896 0.6452 0.3911 0.0
C135 C 0.03767 0.62672 0.42107 0.0
C136 C 0.05373 0.65406 0.44905 0.0
C137 C 0.04771 0.69818 0.44753 0.0
C138 C 1.01326 0.68914 0.39074 0.0
H139 H 0.05921 0.71801 0.47 0.0
H140 H 0.9965 0.70106 0.36781 0.0
H141 H 1.01883 0.86744 0.40901 0.0
H142 H 0.9087 0.79034 0.45721 0.0
C143 C 0.9256 0.71026 0.47328 0.0
C144 C 0.92782 0.75009 0.34753 0.0
C145 C 0.05683 0.81235 0.50153 0.0
C146 C 0.08288 0.80689 0.37463 0.0
H147 H 0.84993 0.69149 0.36661 0.0
H148 H 0.84965 0.66685 0.43465 0.0
H149 H 0.93794 0.72022 0.54925 0.0
H150 H 1.00585 0.78003 0.5642 0.0
H151 H 0.15033 0.84018 0.48103 0.0
H152 H 0.165 0.83623 0.41159 0.0
H153 H 0.06345 0.8134 0.30049 0.0
H154 H 0.97737 0.7862 0.28637 0.0
H155 H 0.97993 0.93226 0.42276 0.0
H156 H 0.86872 0.85159 0.46982 0.0
H157 H 1.00695 0.62544 0.36856 0.0
H158 H 0.06948 0.64123 0.47243 0.0
C159 C 0.64442 0.10635 0.5845 0.0
C160 C 0.6101 0.12958 0.57088 0.0
C161 C 0.63137 0.1636 0.55305 0.0
C162 C 0.67727 0.16011 0.55747 0.0
N163 N 0.68696 0.12607 0.57715 0.0
Co164 Co 0.75002 0.11381 0.59345 0.0
N165 N 0.77875 0.17144 0.57712 0.0
C166 C 0.75705 0.20014 0.55827 0.0
C167 C 0.78433 0.23596 0.54859 0.0
C168 C 0.82662 0.22973 0.56143 0.0
C169 C 0.82285 0.19027 0.57891 0.0
N170 N 0.81344 0.10099 0.60769 0.0
C171 C 0.85507 0.12471 0.60485 0.0
C172 C 0.89051 0.10073 0.61478 0.0
C173 C 0.87095 0.06045 0.62278 0.0
C174 C 0.82469 0.06195 0.61758 0.0
N175 N 0.71984 0.05758 0.61135 0.0
C176 C 0.74243 1.02449 0.62227 0.0
C177 C 0.71367 0.98942 0.63242 0.0
C178 C 0.67 1.00092 0.62753 0.0
C179 C 0.67435 0.04262 0.61473 0.0
N180 N 0.76317 0.08707 0.54628 0.0
C181 C 0.81032 0.03125 0.50285 0.0
C182 C 0.76658 1.01832 0.51693 0.0
C183 C 0.74315 0.04698 0.53763 0.0
C184 C 0.82581 0.07474 0.5062 0.0
C185 C 0.80176 0.10193 0.52747 0.0
N186 N 0.73923 0.13808 0.64177 0.0
C187 C 0.75037 0.13324 0.70588 0.0
C188 C 0.71979 0.16399 0.71291 0.0
C189 C 0.70002 0.18245 0.68284 0.0
C190 C 0.71082 0.16972 0.64773 0.0
C191 C 0.75867 0.12034 0.6709 0.0
H192 H 0.69518 0.18493 0.62566 0.0
H193 H 0.78035 0.09495 0.66811 0.0
H194 H 0.71042 0.0352 0.54874 0.0
H195 H 0.81709 0.13407 0.53027 0.0
C196 C 0.71111 0.19243 0.54951 0.0
C197 C 0.63448 0.06514 0.60302 0.0
C198 C 0.86323 0.16871 0.59038 0.0
C199 C 0.79051 1.02826 0.62356 0.0
H200 H 0.57333 0.12329 0.57397 0.0
H201 H 0.61526 0.18933 0.5403 0.0
H202 H 0.77497 0.26275 0.53282 0.0
H203 H 0.85684 0.2511 0.55589 0.0
H204 H 0.9269 0.11102 0.61525 0.0
H205 H 0.88845 0.03325 0.6312 0.0
H206 H 0.72327 0.959 0.64214 0.0
H207 H 0.63856 0.98055 0.63204 0.0
H208 H 0.75156 0.9856 0.51382 0.0
H209 H 0.8575 0.08761 0.49365 0.0
H210 H 0.76777 0.11832 0.72742 0.0
H211 H 0.6753 0.20567 0.68606 0.0
C212 C 0.38921 0.75691 0.99704 0.0
C213 C 0.35362 0.75056 1.02165 0.0
C214 C 0.35374 0.78737 0.04103 0.0
C215 C 0.38908 0.81412 0.02728 0.0
N216 N 0.4112 0.79708 0.99995 0.0
Co217 Co 0.46423 0.82646 0.97264 0.0
N218 N 0.45986 0.88205 0.9987 0.0
C219 C 0.4357 0.88688 0.0288 0.0
C220 C 0.44311 0.92681 0.0439 0.0
C221 C 0.47384 0.94915 1.02193 0.0
C222 C 0.48289 0.9216 0.9943 0.0
N223 N 0.51496 0.8581 0.94413 0.0
C224 C 0.52802 0.90129 0.94098 0.0
C225 C 0.56139 0.90885 0.91491 0.0
C226 C 0.56987 0.86958 0.90156 0.0
C227 C 0.54102 0.84011 0.91985 0.0
N228 N 0.47072 0.76999 0.9489 0.0
C229 C 0.50381 0.7624 0.9255 0.0
C230 C 0.50245 0.72009 0.91553 0.0
C231 C 0.46631 0.69951 0.93399 0.0
C232 C 0.4476 0.73045 0.95431 0.0
N233 N 0.4206 0.84143 0.93402 0.0
C234 C 0.38444 0.85837 0.86513 0.0
C235 C 0.38215 0.81672 0.87914 0.0
C236 C 0.3984 0.80936 0.91367 0.0
C237 C 0.40102 0.89173 0.8883 0.0
C238 C 0.41842 0.88262 0.92237 0.0
N239 N 0.50941 0.8087 1.00919 0.0
C240 C 0.58921 0.80842 0.02823 0.0
C241 C 0.58067 0.76749 0.04384 0.0
C242 C 0.53489 0.74976 0.04412 0.0
C243 C 0.50033 0.77063 0.02722 0.0
C244 C 0.5533 0.82854 1.01158 0.0
H245 H 0.4668 0.75385 0.02748 0.0
H246 H 0.56196 0.85929 0.99925 0.0
H247 H 0.39462 0.7769 0.92263 0.0
H248 H 0.43107 0.90918 0.93847 0.0
C249 C 0.4032 0.85474 0.04019 0.0
C250 C 0.40567 0.72169 0.9762 0.0
C251 C 0.5102 0.9357 0.96284 0.0
C252 C 0.53463 0.79601 0.9131 0.0
H253 H 0.33145 0.72156 0.02665 0.0
H254 H 0.33162 0.79343 0.06327 0.0
H255 H 0.42702 0.93864 0.06748 0.0
H256 H 0.48702 0.98239 0.02523 0.0
H257 H 0.57772 0.93945 0.90618 0.0
H258 H 0.59335 0.86339 0.88026 0.0
H259 H 0.52482 0.70591 0.89685 0.0
H260 H 0.45454 0.66576 0.9323 0.0
H261 H 0.3701 0.78913 0.8632 0.0
H262 H 0.40175 0.92485 0.87995 0.0
H263 H 0.62379 0.82411 0.02723 0.0
H264 H 0.52569 0.71895 0.05657 0.0
C265 C 0.73251 0.63026 0.11311 0.0
C266 C 0.69532 0.6172 0.13466 0.0
C267 C 0.70833 0.58442 0.15543 0.0
C268 C 0.75265 0.57923 0.1455 0.0
N269 N 0.76873 0.60659 0.11982 0.0
Co270 Co 0.83138 0.60777 0.09743 0.0
N271 N 0.85152 0.56041 0.12848 0.0
C272 C 0.82573 0.54036 0.15429 0.0
C273 C 0.84917 0.51312 0.17454 0.0
C274 C 0.89273 0.516 0.1608 0.0
C275 C 0.89346 0.54432 0.1323 0.0
N276 N 0.89318 0.60816 0.0736 0.0
C277 C 0.92923 0.5842 0.07917 0.0
C278 C 0.96211 0.59111 0.05251 0.0
C279 C 0.94735 0.62117 0.03015 0.0
C280 C 0.90609 0.6304 0.0439 0.0
N281 N 0.81288 0.65617 0.06679 0.0
C282 C 0.83761 0.67462 0.03961 0.0
C283 C 0.81719 0.7065 1.02262 0.0
C284 C 0.77643 0.70849 0.03974 0.0
C285 C 0.7743 0.67754 0.06641 0.0
N286 N 0.85617 0.64969 0.13492 0.0
C287 C 0.87737 0.68819 0.20273 0.0
C288 C 0.90861 0.66431 0.18488 0.0
C289 C 0.89773 0.64606 0.15113 0.0
C290 C 0.83733 0.69576 0.18401 0.0
C291 C 0.8281 0.67729 0.15016 0.0
N292 N 0.8045 0.56448 0.06183 0.0
C293 C 0.73794 0.53597 0.02721 0.0
C294 C 0.75485 0.49584 0.02389 0.0
C295 C 0.79876 0.49178 0.03824 0.0
C296 C 0.82292 0.52626 0.05678 0.0
C297 C 0.76317 0.56954 0.04567 0.0
H298 H 0.85573 0.52106 0.06818 0.0
H299 H 0.74766 0.59896 0.04783 0.0
H300 H 0.92264 0.62774 0.1392 0.0
H301 H 0.79681 0.68404 0.13751 0.0
C302 C 0.78076 0.55019 0.16024 0.0
C303 C 0.73285 0.66687 0.08804 0.0
C304 C 0.93478 0.55546 0.1097 0.0
C305 C 0.8793 0.66051 0.03003 0.0
H306 H 0.66252 0.63049 0.13561 0.0
H307 H 0.68802 0.5668 0.17568 0.0
H308 H 0.83653 0.49441 0.19738 0.0
H309 H 0.92087 0.49974 0.1712 0.0
H310 H 0.99363 0.57602 0.04944 0.0
H311 H 0.96465 0.63471 1.00663 0.0
H312 H 0.82998 0.72541 0.99992 0.0
H313 H 0.75052 0.72934 0.03241 0.0
H314 H 0.94109 0.6589 0.19721 0.0
H315 H 0.81187 0.71419 0.19594 0.0
H316 H 0.70471 0.54132 1.01615 0.0
H317 H 0.81366 0.46152 0.03664 0.0
C318 C 0.65822 0.30471 0.9997 0.0
C319 C 0.69158 0.31142 0.02617 0.0
C320 C 0.69569 0.2727 0.04165 0.0
C321 C 0.66478 0.24464 0.02395 0.0
N322 N 0.64116 0.26286 0.99799 0.0
Co323 Co 0.59256 0.23258 0.9666 0.0
N324 N 0.59151 0.17822 0.99531 0.0
C325 C 0.61798 0.17195 0.02402 0.0
C326 C 0.60818 0.13303 0.04026 0.0
C327 C 0.57392 0.11251 1.0202 0.0
C328 C 0.56538 0.13994 0.99234 0.0
N329 N 0.54532 0.20059 0.93463 0.0
C330 C 0.52722 0.15844 0.93465 0.0
C331 C 0.5023 0.14865 0.90365 0.0
C332 C 0.50524 0.18511 0.88331 0.0
C333 C 0.53202 0.21517 0.90269 0.0
N334 N 0.59318 0.28742 0.93902 0.0
C335 C 0.57297 0.29173 0.90707 0.0
C336 C 0.57937 0.33276 0.89389 0.0
C337 C 0.60557 0.35585 0.91904 0.0
C338 C 0.61377 0.32757 0.94624 0.0
N339 N 0.64049 0.21386 0.93374 0.0
C340 C 0.67693 0.19794 0.86526 0.0
C341 C 0.68892 0.2368 0.88343 0.0
C342 C 0.67069 0.24395 0.91755 0.0
C343 C 0.65225 0.16529 0.88502 0.0
C344 C 0.63593 0.1735 0.91939 0.0
N345 N 0.54317 0.25368 0.99719 0.0
C346 C 0.4736 0.29039 0.99863 0.0
C347 C 0.47904 0.30022 0.03502 0.0
C348 C 0.5165 0.28407 0.05257 0.0
C349 C 0.54798 0.26099 0.03329 0.0
C350 C 0.50533 0.26735 0.98059 0.0
H351 H 0.57688 0.25044 0.04753 0.0
H352 H 0.49973 0.26249 0.95252 0.0
H353 H 0.67848 0.27508 0.92949 0.0
H354 H 0.61655 0.14769 0.9328 0.0
C355 C 0.65208 0.20299 0.03487 0.0
C356 C 0.64464 0.33915 0.97675 0.0
C357 C 0.5377 0.1254 0.96107 0.0
C358 C 0.54638 0.25702 0.89152 0.0
H359 H 0.71055 0.34132 0.03398 0.0
H360 H 0.71713 0.26615 0.06424 0.0
H361 H 0.62465 0.12071 0.06351 0.0
H362 H 0.55854 0.08014 0.02454 0.0
H363 H 0.48569 0.11781 0.89564 0.0
H364 H 0.49099 0.18875 0.85688 0.0
H365 H 0.5664 0.34458 0.86904 0.0
H366 H 0.6181 0.38941 0.91727 0.0
H367 H 0.71112 0.26221 0.87115 0.0
H368 H 0.64315 0.13393 0.87353 0.0
H369 H 0.44503 0.30108 0.98373 0.0
H370 H 0.52256 0.29054 0.0807 0.0
C371 C 0.32985 0.43379 0.11546 0.0
C372 C 0.36699 0.44917 0.13634 0.0
C373 C 0.35275 0.48201 0.15645 0.0
C374 C 0.30782 0.48494 0.14675 0.0
N375 N 0.29248 0.45604 0.12188 0.0
Co376 Co 0.2295 0.4518 0.09953 0.0
N377 N 0.20783 0.49968 0.12921 0.0
C378 C 0.23332 0.52202 0.1541 0.0
C379 C 0.2093 0.55016 0.17287 0.0
C380 C 0.16563 0.54539 0.15915 0.0
C381 C 0.16534 0.51482 0.13232 0.0
N382 N 0.16743 0.44842 0.07567 0.0
C383 C 0.13081 0.47191 0.0802 0.0
C384 C 0.09829 0.46339 0.05336 0.0
C385 C 0.11362 0.43234 0.03228 0.0
C386 C 0.15498 0.42436 0.04677 0.0
N387 N 0.24949 0.40275 0.07046 0.0
C388 C 0.22448 0.38121 0.04479 0.0
C389 C 0.24546 0.34838 0.0297 0.0
C390 C 0.28693 0.34914 0.04647 0.0
C391 C 0.28902 0.38283 0.07074 0.0
N392 N 0.20653 0.41099 0.13809 0.0
C393 C 0.1868 0.37577 0.20692 0.0
C394 C 0.15425 0.39689 0.18788 0.0
C395 C 0.16452 0.41368 0.15367 0.0
C396 C 0.22705 0.3681 0.1887 0.0
C397 C 0.23582 0.38528 0.15439 0.0
N398 N 0.2544 0.49412 0.06274 0.0
C399 C 0.3197 0.52331 0.02744 0.0
C400 C 0.30144 0.56276 1.02371 0.0
C401 C 0.25746 0.56599 0.03798 0.0
C402 C 0.23457 0.53147 0.05702 0.0
C403 C 0.29567 0.48965 0.04643 0.0
H404 H 0.20161 0.53606 0.06828 0.0
H405 H 0.31206 0.46077 0.04889 0.0
H406 H 0.13876 0.43019 0.14083 0.0
H407 H 0.26759 0.37914 0.14215 0.0
C408 C 0.2788 0.51387 0.16042 0.0
C409 C 0.33111 0.39711 0.09064 0.0
C410 C 0.12404 0.50099 0.11034 0.0
C411 C 0.18221 0.39365 0.0345 0.0
H412 H 0.40066 0.43756 0.1371 0.0
H413 H 0.37279 0.50138 0.17591 0.0
H414 H 0.22175 0.57096 0.19462 0.0
H415 H 0.13725 0.56218 0.16831 0.0
H416 H 0.06639 0.4777 0.04964 0.0
H417 H 0.09655 0.41724 1.00919 0.0
H418 H 0.23254 0.327 1.00847 0.0
H419 H 0.31328 0.32817 0.0406 0.0
H420 H 0.12117 0.40128 0.19956 0.0
H421 H 0.25276 0.35054 0.20143 0.0
H422 H 0.35305 0.51863 1.01635 0.0
H423 H 0.24156 0.59571 0.036 0.0
C424 C 0.18956 0.3215 0.25725 0.0
C425 C 0.17894 0.36213 0.24529 0.0
C426 C 0.17999 0.30741 0.29255 0.0
C427 C 0.15944 0.33331 0.31753 0.0
H428 H 0.20379 0.29965 0.23881 0.0
H429 H 0.1866 0.27515 0.29989 0.0
S430 S 0.13041 0.44439 0.30175 0.0
N431 N 0.15121 0.42976 0.26309 0.0
N432 N 0.13238 0.40286 0.32863 0.0
C433 C 0.15093 0.37474 0.30657 0.0
C434 C 0.16072 0.38916 0.27074 0.0
C435 C 0.38986 0.90589 0.77019 0.0
C436 C 0.35604 0.88028 0.75068 0.0
C437 C 0.398 0.89905 0.80681 0.0
C438 C 0.37228 0.86668 0.82644 0.0
H439 H 0.41046 0.93186 0.75716 0.0
H440 H 0.42554 0.91905 0.81961 0.0
S441 S 0.27764 0.79164 0.78923 0.0
N442 N 0.29668 0.82046 0.75453 0.0
N443 N 0.30886 0.81047 0.82355 0.0
C444 C 0.33727 0.84162 0.80763 0.0
C445 C 0.32985 0.84778 0.76998 0.0
C446 C 0.91536 0.69113 0.3014 0.0
C447 C 0.90686 0.73236 0.31303 0.0
C448 C 0.90508 0.6771 0.26616 0.0
C449 C 0.88613 0.70374 0.24069 0.0
H450 H 0.93183 0.67013 0.3193 0.0
H451 H 0.91265 0.64514 0.2587 0.0
S452 S 0.85773 0.81505 0.258 0.0
N453 N 0.87774 0.79945 0.29668 0.0
N454 N 0.85947 0.77399 0.2305 0.0
C455 C 0.87651 0.74481 0.25244 0.0
C456 C 0.88659 0.75883 0.28846 0.0
C457 C 0.69843 0.15028 0.81408 0.0
C458 C 0.68903 0.19113 0.82629 0.0
C459 C 0.70716 0.14209 0.77784 0.0
C460 C 0.70828 0.17443 0.75141 0.0
H461 H 0.69923 0.12395 0.83268 0.0
H462 H 0.71272 0.10956 0.77061 0.0
S463 S 0.68578 0.28745 0.76847 0.0
N464 N 0.67954 0.26432 0.808 0.0
N465 N 0.6996 0.24977 0.74075 0.0
C466 C 0.69929 0.21566 0.76315 0.0
C467 C 0.68918 0.22382 0.80016 0.0
C468 C 0.1844 0.06493 0.49551 0.0
C469 C 0.23232 0.06687 0.48949 0.0
C470 C 0.15735 0.09626 0.48175 0.0
C471 C 0.17694 0.13102 0.4613 0.0
H472 H 0.16782 0.03982 0.5122 0.0
H473 H 0.12122 0.09428 0.48855 0.0
S474 S 0.29911 0.14793 0.43317 0.0
N475 N 0.29681 0.10441 0.45819 0.0
N476 N 0.2465 0.16292 0.43273 0.0
C477 C 0.22428 0.13212 0.45358 0.0
C478 C 0.25175 0.10032 0.46756 0.0
C479 C 0.13562 0.89935 0.54794 0.0
C480 C 0.15944 0.87635 0.57306 0.0
C481 C 0.09786 0.87954 0.52845 0.0
C482 C 0.08326 0.83537 0.5321 0.0
H483 H 0.1484 0.93194 0.54127 0.0
H484 H 0.08302 0.89788 0.5076 0.0
S485 S 0.12967 0.76287 0.59871 0.0
N486 N 0.1598 0.80946 0.60559 0.0
N487 N 0.09372 0.77074 0.56578 0.0
C488 C 0.10433 0.81316 0.55941 0.0
C489 C 0.141 0.83408 0.58068 0.0
C490 C 0.8209 0.9663 0.46388 0.0
C491 C 0.84012 0.99969 0.48616 0.0
C492 C 0.84759 0.93488 0.45009 0.0
C493 C 0.89498 0.93519 0.45768 0.0
H494 H 0.78469 0.96409 0.45725 0.0
H495 H 0.83067 0.90945 0.43381 0.0
S496 S 0.96238 1.01438 0.51547 0.0
N497 N 0.91009 1.03013 0.51572 0.0
N498 N 0.95979 0.97173 0.48933 0.0
C499 C 0.91494 0.96878 0.47925 0.0
C500 C 0.88773 1.0007 0.49356 0.0
C501 C 0.93351 0.16465 0.55115 0.0
C502 C 0.91062 0.18657 0.57756 0.0
C503 C 0.97068 0.1851 0.53167 0.0
C504 C 0.98528 0.22913 0.53625 0.0
H505 H 0.92054 0.13237 0.54359 0.0
H506 H 0.98493 0.16747 0.5101 0.0
S507 S 0.94094 0.29916 0.60577 0.0
N508 N 0.91138 0.2522 0.61208 0.0
N509 N 0.97558 0.29261 0.5718 0.0
C510 C 0.96501 0.25038 0.56452 0.0
C511 C 0.92926 0.22857 0.58604 0.0
C512 C 0.3757 0.61111 1.01753 0.0
C513 C 0.32942 0.60069 1.0072 0.0
C514 C 0.40149 0.64864 1.00526 0.0
C515 C 0.38241 0.67715 0.98172 0.0
H516 H 0.39154 0.59114 0.03665 0.0
H517 H 0.43584 0.65654 1.0157 0.0
S518 S 0.26494 0.66315 0.94335 0.0
N519 N 0.26725 0.62096 0.9695 0.0
N520 N 0.31565 0.69102 0.94663 0.0
C521 C 0.3372 0.66607 0.96968 0.0
C522 C 0.31076 0.62814 0.9824 0.0
C523 C 0.65353 0.67305 0.06169 0.0
C524 C 0.69126 0.69139 0.08169 0.0
C525 C 0.61804 0.69762 0.05026 0.0
C526 C 0.61857 0.74195 0.05796 0.0
H527 H 0.65226 0.63974 0.05369 0.0
H528 H 0.59059 0.68187 0.03415 0.0
S529 S 0.70858 0.80465 0.11169 0.0
N530 N 0.72604 0.7561 0.11011 0.0
N531 N 0.65982 0.80205 0.08904 0.0
C532 C 0.6557 0.76028 0.07881 0.0
C533 C 0.69168 0.73514 0.09059 0.0
C534 C 0.67904 0.4494 1.01784 0.0
C535 C 0.72553 0.45829 1.00762 0.0
C536 C 0.65179 0.41259 1.00552 0.0
C537 C 0.66937 0.38334 0.98182 0.0
H538 H 0.66411 0.47005 0.03691 0.0
H539 H 0.61734 0.40588 1.01597 0.0
S540 S 0.78712 0.3928 0.94421 0.0
N541 N 0.78657 0.43536 0.97026 0.0
N542 N 0.73541 0.36679 0.94724 0.0
C543 C 0.71493 0.39275 0.97006 0.0
C544 C 0.74291 0.42989 0.98291 0.0
C545 C 0.43268 0.36486 0.03557 0.0
C546 C 0.44605 0.32803 0.05313 0.0
C547 C 0.39807 0.38881 0.04929 0.0
C548 C 0.37495 0.37736 0.08137 0.0
H549 H 0.44835 0.37473 1.01032 0.0
H550 H 0.38781 0.41547 0.03377 0.0
S551 S 0.39673 0.28499 0.13872 0.0
N552 N 0.43346 0.28248 0.10543 0.0
N553 N 0.36858 0.32728 0.13082 0.0
C554 C 0.38887 0.34171 0.09994 0.0
C555 C 0.42433 0.31728 0.08605 0.0
C556 C 1.00164 0.55316 0.43837 0.0
C557 C 0.03862 0.57905 0.42318 0.0
C558 C 1.0003 0.50793 0.43834 0.0
C559 C 0.03576 0.48654 0.42286 0.0
H560 H 0.97311 0.56801 0.44988 0.0
H561 H 0.97069 0.48958 0.44984 0.0
S562 S 0.1418 0.54028 0.38162 0.0
N563 N 0.11214 0.5803 0.39341 0.0
N564 N 0.1106 0.49603 0.39388 0.0
C565 C 0.07344 0.51248 0.40829 0.0
C566 C 0.0746 0.55841 0.40829 0.0
C567 C 0.56037 0.0389 0.57046 0.0
C568 C 0.58505 0.04411 0.60296 0.0
C569 C 0.5128 1.0259 0.56943 0.0
C570 C 0.48744 1.01453 0.60062 0.0
H571 H 0.57783 0.04639 0.54541 0.0
H572 H 0.4958 1.02366 0.54364 0.0
S573 S 0.53562 1.01891 0.69268 0.0
N574 N 0.57978 0.03644 0.66742 0.0
N575 N 0.49185 1.00744 0.66518 0.0
C576 C 0.5119 1.01802 0.63329 0.0
C577 C 0.56017 0.03328 0.63449 0.0
C578 C 0.56735 0.05172 0.95323 0.0
C579 C 0.52983 0.0772 0.95386 0.0
C580 C 0.56116 1.00627 0.95392 0.0
C581 C 0.51706 0.98369 0.95435 0.0
H582 H 0.60207 0.06718 0.95426 0.0
H583 H 0.59126 0.98885 0.95615 0.0
S584 S 0.40714 0.03458 0.95338 0.0
N585 N 0.4469 0.0757 0.95376 0.0
N586 N 0.43506 0.99124 0.95278 0.0
C587 C 0.47932 1.00888 0.95273 0.0
C588 C 0.48568 0.05511 0.95294 0.0
C589 C 0.06706 0.558 0.11801 0.0
C590 C 0.07581 0.5145 0.11759 0.0
C591 C 1.0217 0.57055 0.11856 0.0
C592 C 0.98234 0.54043 0.11702 0.0
H593 H 0.09541 0.58276 0.1162 0.0
H594 H 1.01738 0.60448 0.11803 0.0
S595 S 0.98576 0.42228 0.11712 0.0
N596 N 0.04036 0.44117 0.11942 0.0
N597 N 0.95623 0.46459 0.11558 0.0
C598 C 0.99061 0.49685 0.11757 0.0
C599 C 0.03677 0.48406 0.11895 0.0
loop_
_geom_bond_atom_site_label_1
_geom_bond_atom_site_label_2
_geom_bond_distance
_geom_bond_site_symmetry_2
_ccdc_geom_bond_type
C0 C1 1.443 . S
C0 N4 1.376 . S
C0 C38 1.389 . S
C1 C0 1.443 . S
C1 C2 1.340 . S
C1 H41 0.951 . S
C2 C1 1.340 . S
C2 C3 1.439 . S
C2 H42 0.950 . S
C3 C2 1.439 . S
C3 N4 1.374 . S
C3 C37 1.395 . S
N4 C0 1.376 . S
N4 C3 1.374 . S
N4 Co5 2.008 . S
Co5 N4 2.008 . S
Co5 N6 1.995 . S
Co5 N11 2.008 1_455 S
Co5 N16 1.995 . S
Co5 N21 2.282 . S
Co5 N27 2.282 1_455 S
N6 Co5 1.995 . S
N6 C7 1.376 . S
N6 C10 1.383 1_455 S
C7 N6 1.376 . S
C7 C8 1.446 . S
C7 C37 1.391 . S
C8 C7 1.446 . S
C8 C9 1.339 . S
C8 H43 0.949 . S
C9 C8 1.339 . S
C9 C10 1.439 1_455 S
C9 H44 0.950 1_455 S
C10 N6 1.383 1_655 S
C10 C9 1.439 1_655 S
C10 C39 1.392 . S
N11 Co5 2.008 1_655 S
N11 C12 1.376 . S
N11 C15 1.374 . S
C12 N11 1.376 . S
C12 C13 1.443 . S
C12 C39 1.389 . S
C13 C12 1.443 . S
C13 C14 1.340 . S
C13 H45 0.951 . S
C14 C13 1.340 . S
C14 C15 1.439 . S
C14 H46 0.950 . S
C15 N11 1.374 . S
C15 C14 1.439 . S
C15 C40 1.395 . S
N16 Co5 1.995 . S
N16 C17 1.376 1_455 S
N16 C20 1.383 . S
C17 N16 1.376 1_655 S
C17 C18 1.446 1_655 S
C17 C40 1.391 . S
C18 C17 1.446 1_455 S
C18 C19 1.339 . S
C18 H47 0.949 1_455 S
C19 C18 1.339 . S
C19 C20 1.439 . S
C19 H48 0.950 . S
C20 N16 1.383 . S
C20 C19 1.439 . S
C20 C38 1.392 . S
N21 Co5 2.282 . S
N21 C24 1.332 . S
N21 C26 1.332 . S
C22 C23 1.386 . S
C22 C25 1.388 . S
C23 C22 1.386 . S
C23 C24 1.382 . S
C23 H49 0.950 . S
C24 N21 1.332 . S
C24 C23 1.382 . S
C24 H35 0.952 . S
C25 C22 1.388 . S
C25 C26 1.382 . S
C25 H50 0.950 . S
C26 N21 1.332 . S
C26 C25 1.382 . S
C26 H36 0.948 . S
N27 Co5 2.282 1_655 S
N27 C31 1.332 1_655 S
N27 C32 1.332 . S
C28 C29 1.388 . S
C28 C32 1.382 . S
C28 H51 0.950 . S
C29 C28 1.388 . S
C29 C30 1.386 . S
C30 C29 1.386 . S
C30 C31 1.382 1_655 S
C30 H52 0.950 . S
C31 N27 1.332 1_455 S
C31 C30 1.382 1_455 S
C31 H33 0.952 . S
C32 N27 1.332 . S
C32 C28 1.382 . S
C32 H34 0.948 . S
H33 C31 0.952 . S
H34 C32 0.948 . S
H35 C24 0.952 . S
H36 C26 0.948 . S
C37 C3 1.395 . S
C37 C7 1.391 . S
C38 C0 1.389 . S
C38 C20 1.392 . S
C39 C10 1.392 . S
C39 C12 1.389 . S
C40 C15 1.395 . S
C40 C17 1.391 . S
H41 C1 0.951 . S
H42 C2 0.950 . S
H43 C8 0.949 . S
H44 C9 0.950 1_655 S
H45 C13 0.951 . S
H46 C14 0.950 . S
H47 C18 0.949 1_655 S
H48 C19 0.950 . S
H49 C23 0.950 . S
H50 C25 0.950 . S
H51 C28 0.950 . S
H52 C30 0.950 . S
C53 C54 1.443 . S
C53 N57 1.376 . S
C53 C91 1.389 . S
C54 C53 1.443 . S
C54 C55 1.340 . S
C54 H94 0.951 . S
C55 C54 1.340 . S
C55 C56 1.439 . S
C55 H95 0.950 . S
C56 C55 1.439 . S
C56 N57 1.374 . S
C56 C90 1.395 . S
N57 C53 1.376 . S
N57 C56 1.374 . S
N57 Co58 2.008 . S
Co58 N57 2.008 . S
Co58 N59 1.995 . S
Co58 N64 2.008 . S
Co58 N69 1.995 . S
Co58 N74 2.282 . S
Co58 N80 2.282 . S
N59 Co58 1.995 . S
N59 C60 1.376 . S
N59 C63 1.383 . S
C60 N59 1.376 . S
C60 C61 1.446 . S
C60 C90 1.391 . S
C61 C60 1.446 . S
C61 C62 1.339 . S
C61 H96 0.949 . S
C62 C61 1.339 . S
C62 C63 1.439 . S
C62 H97 0.950 . S
C63 N59 1.383 . S
C63 C62 1.439 . S
C63 C92 1.392 . S
N64 Co58 2.008 . S
N64 C65 1.376 . S
N64 C68 1.374 . S
C65 N64 1.376 . S
C65 C66 1.443 . S
C65 C92 1.389 . S
C66 C65 1.443 . S
C66 C67 1.340 . S
C66 H98 0.951 . S
C67 C66 1.340 . S
C67 C68 1.439 . S
C67 H99 0.950 . S
C68 N64 1.374 . S
C68 C67 1.439 . S
C68 C93 1.395 . S
N69 Co58 1.995 . S
N69 C70 1.376 . S
N69 C73 1.383 . S
C70 N69 1.376 . S
C70 C71 1.446 1_565 S
C70 C93 1.391 . S
C71 C70 1.446 1_545 S
C71 C72 1.339 . S
C71 H100 0.949 . S
C72 C71 1.339 . S
C72 C73 1.439 1_545 S
C72 H101 0.950 . S
C73 N69 1.383 . S
C73 C72 1.439 1_565 S
C73 C91 1.392 . S
N74 Co58 2.282 . S
N74 C77 1.332 1_565 S
N74 C79 1.332 . S
C75 C76 1.386 . S
C75 C78 1.388 1_545 S
C76 C75 1.386 . S
C76 C77 1.382 . S
C76 H102 0.950 . S
C77 N74 1.332 1_545 S
C77 C76 1.382 . S
C77 H88 0.952 . S
C78 C75 1.388 1_565 S
C78 C79 1.382 . S
C78 H103 0.950 . S
C79 N74 1.332 . S
C79 C78 1.382 . S
C79 H89 0.948 . S
N80 Co58 2.282 . S
N80 C84 1.332 . S
N80 C85 1.332 . S
C81 C82 1.388 . S
C81 C85 1.382 . S
C81 H104 0.950 . S
C82 C81 1.388 . S
C82 C83 1.386 . S
C83 C82 1.386 . S
C83 C84 1.382 . S
C83 H105 0.950 . S
C84 N80 1.332 . S
C84 C83 1.382 . S
C84 H86 0.952 . S
C85 N80 1.332 . S
C85 C81 1.382 . S
C85 H87 0.948 . S
H86 C84 0.952 . S
H87 C85 0.948 . S
H88 C77 0.952 . S
H89 C79 0.948 . S
C90 C56 1.395 . S
C90 C60 1.391 . S
C91 C53 1.389 . S
C91 C73 1.392 . S
C92 C63 1.392 . S
C92 C65 1.389 . S
C93 C68 1.395 . S
C93 C70 1.391 . S
H94 C54 0.951 . S
H95 C55 0.950 . S
H96 C61 0.949 . S
H97 C62 0.950 . S
H98 C66 0.951 . S
H99 C67 0.950 . S
H100 C71 0.949 . S
H101 C72 0.950 . S
H102 C76 0.950 . S
H103 C78 0.950 . S
H104 C81 0.950 . S
H105 C83 0.950 . S
C106 C107 1.443 . S
C106 N110 1.376 . S
C106 C144 1.389 . S
C107 C106 1.443 . S
C107 C108 1.340 . S
C107 H147 0.951 . S
C108 C107 1.340 . S
C108 C109 1.439 . S
C108 H148 0.950 . S
C109 C108 1.439 . S
C109 N110 1.374 . S
C109 C143 1.395 . S
N110 C106 1.376 . S
N110 C109 1.374 . S
N110 Co111 2.008 . S
Co111 N110 2.008 . S
Co111 N112 1.995 . S
Co111 N117 2.008 1_655 S
Co111 N122 1.995 . S
Co111 N127 2.282 . S
Co111 N133 2.282 1_655 S
N112 Co111 1.995 . S
N112 C113 1.376 . S
N112 C116 1.383 1_655 S
C113 N112 1.376 . S
C113 C114 1.446 . S
C113 C143 1.391 . S
C114 C113 1.446 . S
C114 C115 1.339 . S
C114 H149 0.949 . S
C115 C114 1.339 . S
C115 C116 1.439 1_655 S
C115 H150 0.950 1_655 S
C116 N112 1.383 1_455 S
C116 C115 1.439 1_455 S
C116 C145 1.392 . S
N117 Co111 2.008 1_455 S
N117 C118 1.376 . S
N117 C121 1.374 . S
C118 N117 1.376 . S
C118 C119 1.443 . S
C118 C145 1.389 . S
C119 C118 1.443 . S
C119 C120 1.340 . S
C119 H151 0.951 . S
C120 C119 1.340 . S
C120 C121 1.439 . S
C120 H152 0.950 . S
C121 N117 1.374 . S
C121 C120 1.439 . S
C121 C146 1.395 . S
N122 Co111 1.995 . S
N122 C123 1.376 1_655 S
N122 C126 1.383 . S
C123 N122 1.376 1_455 S
C123 C124 1.446 1_455 S
C123 C146 1.391 . S
C124 C123 1.446 1_655 S
C124 C125 1.339 . S
C124 H153 0.949 1_655 S
C125 C124 1.339 . S
C125 C126 1.439 . S
C125 H154 0.950 . S
C126 N122 1.383 . S
C126 C125 1.439 . S
C126 C144 1.392 . S
N127 Co111 2.282 . S
N127 C130 1.332 . S
N127 C132 1.332 . S
C128 C129 1.386 . S
C128 C131 1.388 . S
C129 C128 1.386 . S
C129 C130 1.382 . S
C129 H155 0.950 . S
C130 N127 1.332 . S
C130 C129 1.382 . S
C130 H141 0.952 . S
C131 C128 1.388 . S
C131 C132 1.382 . S
C131 H156 0.950 . S
C132 N127 1.332 . S
C132 C131 1.382 . S
C132 H142 0.948 . S
N133 Co111 2.282 1_455 S
N133 C137 1.332 1_455 S
N133 C138 1.332 . S
C134 C135 1.388 . S
C134 C138 1.382 . S
C134 H157 0.950 . S
C135 C134 1.388 . S
C135 C136 1.386 . S
C136 C135 1.386 . S
C136 C137 1.382 1_455 S
C136 H158 0.950 . S
C137 N133 1.332 1_655 S
C137 C136 1.382 1_655 S
C137 H139 0.952 . S
C138 N133 1.332 . S
C138 C134 1.382 . S
C138 H140 0.948 . S
H139 C137 0.952 . S
H140 C138 0.948 . S
H141 C130 0.952 . S
H142 C132 0.948 . S
C143 C109 1.395 . S
C143 C113 1.391 . S
C144 C106 1.389 . S
C144 C126 1.392 . S
C145 C116 1.392 . S
C145 C118 1.389 . S
C146 C121 1.395 . S
C146 C123 1.391 . S
H147 C107 0.951 . S
H148 C108 0.950 . S
H149 C114 0.949 . S
H150 C115 0.950 1_455 S
H151 C119 0.951 . S
H152 C120 0.950 . S
H153 C124 0.949 1_455 S
H154 C125 0.950 . S
H155 C129 0.950 . S
H156 C131 0.950 . S
H157 C134 0.950 . S
H158 C136 0.950 . S
C159 C160 1.443 . S
C159 N163 1.376 . S
C159 C197 1.389 . S
C160 C159 1.443 . S
C160 C161 1.340 . S
C160 H200 0.951 . S
C161 C160 1.340 . S
C161 C162 1.439 . S
C161 H201 0.950 . S
C162 C161 1.439 . S
C162 N163 1.374 . S
C162 C196 1.395 . S
N163 C159 1.376 . S
N163 C162 1.374 . S
N163 Co164 2.008 . S
Co164 N163 2.008 . S
Co164 N165 1.995 . S
Co164 N170 2.008 . S
Co164 N175 1.995 . S
Co164 N180 2.282 . S
Co164 N186 2.282 . S
N165 Co164 1.995 . S
N165 C166 1.376 . S
N165 C169 1.383 . S
C166 N165 1.376 . S
C166 C167 1.446 . S
C166 C196 1.391 . S
C167 C166 1.446 . S
C167 C168 1.339 . S
C167 H202 0.949 . S
C168 C167 1.339 . S
C168 C169 1.439 . S
C168 H203 0.950 . S
C169 N165 1.383 . S
C169 C168 1.439 . S
C169 C198 1.392 . S
N170 Co164 2.008 . S
N170 C171 1.376 . S
N170 C174 1.374 . S
C171 N170 1.376 . S
C171 C172 1.443 . S
C171 C198 1.389 . S
C172 C171 1.443 . S
C172 C173 1.340 . S
C172 H204 0.951 . S
C173 C172 1.340 . S
C173 C174 1.439 . S
C173 H205 0.950 . S
C174 N170 1.374 . S
C174 C173 1.439 . S
C174 C199 1.395 . S
N175 Co164 1.995 . S
N175 C176 1.376 . S
N175 C179 1.383 . S
C176 N175 1.376 . S
C176 C177 1.446 1_545 S
C176 C199 1.391 . S
C177 C176 1.446 1_565 S
C177 C178 1.339 . S
C177 H206 0.949 . S
C178 C177 1.339 . S
C178 C179 1.439 1_565 S
C178 H207 0.950 . S
C179 N175 1.383 . S
C179 C178 1.439 1_545 S
C179 C197 1.392 . S
N180 Co164 2.282 . S
N180 C183 1.332 1_545 S
N180 C185 1.332 . S
C181 C182 1.386 . S
C181 C184 1.388 1_565 S
C182 C181 1.386 . S
C182 C183 1.382 . S
C182 H208 0.950 . S
C183 N180 1.332 1_565 S
C183 C182 1.382 . S
C183 H194 0.952 . S
C184 C181 1.388 1_545 S
C184 C185 1.382 . S
C184 H209 0.950 . S
C185 N180 1.332 . S
C185 C184 1.382 . S
C185 H195 0.948 . S
N186 Co164 2.282 . S
N186 C190 1.332 . S
N186 C191 1.332 . S
C187 C188 1.388 . S
C187 C191 1.382 . S
C187 H210 0.950 . S
C188 C187 1.388 . S
C188 C189 1.386 . S
C189 C188 1.386 . S
C189 C190 1.382 . S
C189 H211 0.950 . S
C190 N186 1.332 . S
C190 C189 1.382 . S
C190 H192 0.952 . S
C191 N186 1.332 . S
C191 C187 1.382 . S
C191 H193 0.948 . S
H192 C190 0.952 . S
H193 C191 0.948 . S
H194 C183 0.952 . S
H195 C185 0.948 . S
C196 C162 1.395 . S
C196 C166 1.391 . S
C197 C159 1.389 . S
C197 C179 1.392 . S
C198 C169 1.392 . S
C198 C171 1.389 . S
C199 C174 1.395 . S
C199 C176 1.391 . S
H200 C160 0.951 . S
H201 C161 0.950 . S
H202 C167 0.949 . S
H203 C168 0.950 . S
H204 C172 0.951 . S
H205 C173 0.950 . S
H206 C177 0.949 . S
H207 C178 0.950 . S
H208 C182 0.950 . S
H209 C184 0.950 . S
H210 C187 0.950 . S
H211 C189 0.950 . S
C212 C213 1.472 . S
C212 N216 1.376 . S
C212 C250 1.389 . S
C213 C212 1.472 . S
C213 C214 1.326 1_556 S
C213 H253 0.940 1_556 S
C214 C213 1.326 1_554 S
C214 C215 1.439 1_554 S
C214 H254 0.950 . S
C215 C214 1.439 1_556 S
C215 N216 1.374 . S
C215 C249 1.390 1_556 S
N216 C212 1.376 . S
N216 C215 1.374 . S
N216 Co217 2.008 . S
Co217 N216 2.008 . S
Co217 N218 1.995 . S
Co217 N223 2.008 . S
Co217 N228 1.995 . S
Co217 N233 2.282 . S
Co217 N239 2.282 . S
N218 Co217 1.995 . S
N218 C219 1.376 . S
N218 C222 1.383 . S
C219 N218 1.376 . S
C219 C220 1.446 . S
C219 C249 1.379 1_556 S
C220 C219 1.446 . S
C220 C221 1.339 . S
C220 H255 0.949 1_556 S
C221 C220 1.339 . S
C221 C222 1.439 . S
C221 H256 0.950 . S
C222 N218 1.383 . S
C222 C221 1.439 . S
C222 C251 1.392 . S
N223 Co217 2.008 . S
N223 C224 1.376 . S
N223 C227 1.374 . S
C224 N223 1.376 . S
C224 C225 1.443 . S
C224 C251 1.389 . S
C225 C224 1.443 . S
C225 C226 1.340 . S
C225 H257 0.951 . S
C226 C225 1.340 . S
C226 C227 1.439 . S
C226 H258 0.950 . S
C227 N223 1.374 . S
C227 C226 1.439 . S
C227 C252 1.395 . S
N228 Co217 1.995 . S
N228 C229 1.376 . S
N228 C232 1.383 . S
C229 N228 1.376 . S
C229 C230 1.446 . S
C229 C252 1.391 . S
C230 C229 1.446 . S
C230 C231 1.339 . S
C230 H259 0.949 . S
C231 C230 1.339 . S
C231 C232 1.439 . S
C231 H260 0.950 . S
C232 N228 1.383 . S
C232 C231 1.439 . S
C232 C250 1.392 . S
N233 Co217 2.282 . S
N233 C236 1.332 . S
N233 C238 1.332 . S
C234 C235 1.386 . S
C234 C237 1.388 . S
C235 C234 1.386 . S
C235 C236 1.382 . S
C235 H261 0.950 . S
C236 N233 1.332 . S
C236 C235 1.382 . S
C236 H247 0.952 . S
C237 C234 1.388 . S
C237 C238 1.382 . S
C237 H262 0.950 . S
C238 N233 1.332 . S
C238 C237 1.382 . S
C238 H248 0.948 . S
N239 Co217 2.282 . S
N239 C243 1.332 1_556 S
N239 C244 1.332 . S
C240 C241 1.388 1_556 S
C240 C244 1.382 . S
C240 H263 0.950 . S
C241 C240 1.388 1_554 S
C241 C242 1.386 . S
C242 C241 1.386 . S
C242 C243 1.382 . S
C242 H264 0.950 . S
C243 N239 1.332 1_554 S
C243 C242 1.382 . S
C243 H245 0.952 . S
C244 N239 1.332 . S
C244 C240 1.382 . S
C244 H246 0.948 . S
H245 C243 0.952 . S
H246 C244 0.948 . S
H247 C236 0.952 . S
H248 C238 0.948 . S
C249 C215 1.390 1_554 S
C249 C219 1.379 1_554 S
C250 C212 1.389 . S
C250 C232 1.392 . S
C251 C222 1.392 . S
C251 C224 1.389 . S
C252 C227 1.395 . S
C252 C229 1.391 . S
H253 C213 0.940 1_554 S
H254 C214 0.950 . S
H255 C220 0.949 1_554 S
H256 C221 0.950 . S
H257 C225 0.951 . S
H258 C226 0.950 . S
H259 C230 0.949 . S
H260 C231 0.950 . S
H261 C235 0.950 . S
H262 C237 0.950 . S
H263 C240 0.950 . S
H264 C242 0.950 . S
C265 C266 1.443 . S
C265 N269 1.376 . S
C265 C303 1.389 . S
C266 C265 1.443 . S
C266 C267 1.340 . S
C266 H306 0.951 . S
C267 C266 1.340 . S
C267 C268 1.439 . S
C267 H307 0.950 . S
C268 C267 1.439 . S
C268 N269 1.374 . S
C268 C302 1.395 . S
N269 C265 1.376 . S
N269 C268 1.374 . S
N269 Co270 2.008 . S
Co270 N269 2.008 . S
Co270 N271 1.995 . S
Co270 N276 2.008 . S
Co270 N281 1.995 . S
Co270 N286 2.282 . S
Co270 N292 2.282 . S
N271 Co270 1.995 . S
N271 C272 1.376 . S
N271 C275 1.383 . S
C272 N271 1.376 . S
C272 C273 1.446 . S
C272 C302 1.391 . S
C273 C272 1.446 . S
C273 C274 1.339 . S
C273 H308 0.949 . S
C274 C273 1.339 . S
C274 C275 1.439 . S
C274 H309 0.950 . S
C275 N271 1.383 . S
C275 C274 1.439 . S
C275 C304 1.392 . S
N276 Co270 2.008 . S
N276 C277 1.376 . S
N276 C280 1.374 . S
C277 N276 1.376 . S
C277 C278 1.443 . S
C277 C304 1.389 . S
C278 C277 1.443 . S
C278 C279 1.340 . S
C278 H310 0.951 . S
C279 C278 1.340 . S
C279 C280 1.439 . S
C279 H311 0.950 . S
C280 N276 1.374 . S
C280 C279 1.439 . S
C280 C305 1.395 . S
N281 Co270 1.995 . S
N281 C282 1.376 . S
N281 C285 1.383 . S
C282 N281 1.376 . S
C282 C283 1.446 . S
C282 C305 1.391 . S
C283 C282 1.446 . S
C283 C284 1.339 . S
C283 H312 0.950 1_554 S
C284 C283 1.339 . S
C284 C285 1.439 . S
C284 H313 0.950 . S
C285 N281 1.383 . S
C285 C284 1.439 . S
C285 C303 1.392 . S
N286 Co270 2.282 . S
N286 C289 1.332 . S
N286 C291 1.332 . S
C287 C288 1.386 . S
C287 C290 1.388 . S
C288 C287 1.386 . S
C288 C289 1.382 . S
C288 H314 0.950 . S
C289 N286 1.332 . S
C289 C288 1.382 . S
C289 H300 0.952 . S
C290 C287 1.388 . S
C290 C291 1.382 . S
C290 H315 0.950 . S
C291 N286 1.332 . S
C291 C290 1.382 . S
C291 H301 0.948 . S
N292 Co270 2.282 . S
N292 C296 1.332 . S
N292 C297 1.332 . S
C293 C294 1.388 1_556 S
C293 C297 1.382 1_556 S
C293 H316 0.950 . S
C294 C293 1.388 1_554 S
C294 C295 1.386 . S
C295 C294 1.386 . S
C295 C296 1.382 . S
C295 H317 0.950 . S
C296 N292 1.332 . S
C296 C295 1.382 . S
C296 H298 0.952 . S
C297 N292 1.332 . S
C297 C293 1.382 1_554 S
C297 H299 0.948 . S
H298 C296 0.952 . S
H299 C297 0.948 . S
H300 C289 0.952 . S
H301 C291 0.948 . S
C302 C268 1.395 . S
C302 C272 1.391 . S
C303 C265 1.389 . S
C303 C285 1.392 . S
C304 C275 1.392 . S
C304 C277 1.389 . S
C305 C280 1.395 . S
C305 C282 1.391 . S
H306 C266 0.951 . S
H307 C267 0.950 . S
H308 C273 0.949 . S
H309 C274 0.950 . S
H310 C278 0.951 . S
H311 C279 0.950 . S
H312 C283 0.950 1_556 S
H313 C284 0.950 . S
H314 C288 0.950 . S
H315 C290 0.950 . S
H316 C293 0.950 . S
H317 C295 0.950 . S
C318 C319 1.472 . S
C318 N322 1.376 . S
C318 C356 1.389 . S
C319 C318 1.472 . S
C319 C320 1.326 1_556 S
C319 H359 0.940 1_556 S
C320 C319 1.326 1_554 S
C320 C321 1.439 1_554 S
C320 H360 0.950 . S
C321 C320 1.439 1_556 S
C321 N322 1.374 . S
C321 C355 1.390 1_556 S
N322 C318 1.376 . S
N322 C321 1.374 . S
N322 Co323 2.008 . S
Co323 N322 2.008 . S
Co323 N324 1.995 . S
Co323 N329 2.008 . S
Co323 N334 1.995 . S
Co323 N339 2.282 . S
Co323 N345 2.282 . S
N324 Co323 1.995 . S
N324 C325 1.376 . S
N324 C328 1.383 . S
C325 N324 1.376 . S
C325 C326 1.446 . S
C325 C355 1.379 1_556 S
C326 C325 1.446 . S
C326 C327 1.339 . S
C326 H361 0.949 1_556 S
C327 C326 1.339 . S
C327 C328 1.439 . S
C327 H362 0.950 . S
C328 N324 1.383 . S
C328 C327 1.439 . S
C328 C357 1.392 . S
N329 Co323 2.008 . S
N329 C330 1.376 . S
N329 C333 1.374 . S
C330 N329 1.376 . S
C330 C331 1.443 . S
C330 C357 1.389 . S
C331 C330 1.443 . S
C331 C332 1.340 . S
C331 H363 0.951 . S
C332 C331 1.340 . S
C332 C333 1.439 . S
C332 H364 0.950 . S
C333 N329 1.374 . S
C333 C332 1.439 . S
C333 C358 1.395 . S
N334 Co323 1.995 . S
N334 C335 1.376 . S
N334 C338 1.383 . S
C335 N334 1.376 . S
C335 C336 1.446 . S
C335 C358 1.391 . S
C336 C335 1.446 . S
C336 C337 1.339 . S
C336 H365 0.949 . S
C337 C336 1.339 . S
C337 C338 1.439 . S
C337 H366 0.950 . S
C338 N334 1.383 . S
C338 C337 1.439 . S
C338 C356 1.392 . S
N339 Co323 2.282 . S
N339 C342 1.332 . S
N339 C344 1.332 . S
C340 C341 1.386 . S
C340 C343 1.388 . S
C341 C340 1.386 . S
C341 C342 1.382 . S
C341 H367 0.950 . S
C342 N339 1.332 . S
C342 C341 1.382 . S
C342 H353 0.952 . S
C343 C340 1.388 . S
C343 C344 1.382 . S
C343 H368 0.950 . S
C344 N339 1.332 . S
C344 C343 1.382 . S
C344 H354 0.948 . S
N345 Co323 2.282 . S
N345 C349 1.332 1_556 S
N345 C350 1.332 . S
C346 C347 1.388 1_556 S
C346 C350 1.382 . S
C346 H369 0.950 . S
C347 C346 1.388 1_554 S
C347 C348 1.386 . S
C348 C347 1.386 . S
C348 C349 1.382 . S
C348 H370 0.950 . S
C349 N345 1.332 1_554 S
C349 C348 1.382 . S
C349 H351 0.952 . S
C350 N345 1.332 . S
C350 C346 1.382 . S
C350 H352 0.948 . S
H351 C349 0.952 . S
H352 C350 0.948 . S
H353 C342 0.952 . S
H354 C344 0.948 . S
C355 C321 1.390 1_554 S
C355 C325 1.379 1_554 S
C356 C318 1.389 . S
C356 C338 1.392 . S
C357 C328 1.392 . S
C357 C330 1.389 . S
C358 C333 1.395 . S
C358 C335 1.391 . S
H359 C319 0.940 1_554 S
H360 C320 0.950 . S
H361 C326 0.949 1_554 S
H362 C327 0.950 . S
H363 C331 0.951 . S
H364 C332 0.950 . S
H365 C336 0.949 . S
H366 C337 0.950 . S
H367 C341 0.950 . S
H368 C343 0.950 . S
H369 C346 0.950 . S
H370 C348 0.950 . S
C371 C372 1.443 . S
C371 N375 1.376 . S
C371 C409 1.389 . S
C372 C371 1.443 . S
C372 C373 1.340 . S
C372 H412 0.951 . S
C373 C372 1.340 . S
C373 C374 1.439 . S
C373 H413 0.950 . S
C374 C373 1.439 . S
C374 N375 1.374 . S
C374 C408 1.395 . S
N375 C371 1.376 . S
N375 C374 1.374 . S
N375 Co376 2.008 . S
Co376 N375 2.008 . S
Co376 N377 1.995 . S
Co376 N382 2.008 . S
Co376 N387 1.995 . S
Co376 N392 2.282 . S
Co376 N398 2.282 . S
N377 Co376 1.995 . S
N377 C378 1.376 . S
N377 C381 1.383 . S
C378 N377 1.376 . S
C378 C379 1.446 . S
C378 C408 1.391 . S
C379 C378 1.446 . S
C379 C380 1.339 . S
C379 H414 0.949 . S
C380 C379 1.339 . S
C380 C381 1.439 . S
C380 H415 0.950 . S
C381 N377 1.383 . S
C381 C380 1.439 . S
C381 C410 1.392 . S
N382 Co376 2.008 . S
N382 C383 1.376 . S
N382 C386 1.374 . S
C383 N382 1.376 . S
C383 C384 1.443 . S
C383 C410 1.389 . S
C384 C383 1.443 . S
C384 C385 1.340 . S
C384 H416 0.951 . S
C385 C384 1.340 . S
C385 C386 1.439 . S
C385 H417 0.950 . S
C386 N382 1.374 . S
C386 C385 1.439 . S
C386 C411 1.395 . S
N387 Co376 1.995 . S
N387 C388 1.376 . S
N387 C391 1.383 . S
C388 N387 1.376 . S
C388 C389 1.446 . S
C388 C411 1.391 . S
C389 C388 1.446 . S
C389 C390 1.339 . S
C389 H418 0.950 1_554 S
C390 C389 1.339 . S
C390 C391 1.439 . S
C390 H419 0.950 . S
C391 N387 1.383 . S
C391 C390 1.439 . S
C391 C409 1.392 . S
N392 Co376 2.282 . S
N392 C395 1.332 . S
N392 C397 1.332 . S
C393 C394 1.386 . S
C393 C396 1.388 . S
C394 C393 1.386 . S
C394 C395 1.382 . S
C394 H420 0.950 . S
C395 N392 1.332 . S
C395 C394 1.382 . S
C395 H406 0.952 . S
C396 C393 1.388 . S
C396 C397 1.382 . S
C396 H421 0.950 . S
C397 N392 1.332 . S
C397 C396 1.382 . S
C397 H407 0.948 . S
N398 Co376 2.282 . S
N398 C402 1.332 . S
N398 C403 1.332 . S
C399 C400 1.388 1_556 S
C399 C403 1.382 1_556 S
C399 H422 0.950 . S
C400 C399 1.388 1_554 S
C400 C401 1.386 . S
C401 C400 1.386 . S
C401 C402 1.382 . S
C401 H423 0.950 . S
C402 N398 1.332 . S
C402 C401 1.382 . S
C402 H404 0.952 . S
C403 N398 1.332 . S
C403 C399 1.382 1_554 S
C403 H405 0.948 . S
H404 C402 0.952 . S
H405 C403 0.948 . S
H406 C395 0.952 . S
H407 C397 0.948 . S
C408 C374 1.395 . S
C408 C378 1.391 . S
C409 C371 1.389 . S
C409 C391 1.392 . S
C410 C381 1.392 . S
C410 C383 1.389 . S
C411 C386 1.395 . S
C411 C388 1.391 . S
H412 C372 0.951 . S
H413 C373 0.950 . S
H414 C379 0.949 . S
H415 C380 0.950 . S
H416 C384 0.951 . S
H417 C385 0.950 . S
H418 C389 0.950 1_556 S
H419 C390 0.950 . S
H420 C394 0.950 . S
H421 C396 0.950 . S
H422 C399 0.950 . S
H423 C401 0.950 . S
C424 C425 1.369 . S
C424 C426 1.419 . S
C424 H428 0.930 . S
C425 C424 1.369 . S
C425 C434 1.429 . S
C426 C424 1.419 . S
C426 C427 1.363 . S
C426 H429 0.929 . S
C427 C426 1.363 . S
C427 C433 1.428 . S
H428 C424 0.930 . S
H429 C426 0.929 . S
S430 N431 1.613 . S
S430 N432 1.610 . S
N431 S430 1.613 . S
N431 C434 1.350 . S
N432 S430 1.610 . S
N432 C433 1.351 . S
C433 C427 1.428 . S
C433 N432 1.351 . S
C433 C434 1.434 . S
C434 C425 1.429 . S
C434 N431 1.350 . S
C434 C433 1.434 . S
C435 C436 1.369 . S
C435 C437 1.419 . S
C435 H439 0.930 . S
C436 C435 1.369 . S
C436 C445 1.429 . S
C437 C435 1.419 . S
C437 C438 1.363 . S
C437 H440 0.929 . S
C438 C437 1.363 . S
C438 C444 1.428 . S
H439 C435 0.930 . S
H440 C437 0.929 . S
S441 N442 1.613 . S
S441 N443 1.610 . S
N442 S441 1.613 . S
N442 C445 1.350 . S
N443 S441 1.610 . S
N443 C444 1.351 . S
C444 C438 1.428 . S
C444 N443 1.351 . S
C444 C445 1.434 . S
C445 C436 1.429 . S
C445 N442 1.350 . S
C445 C444 1.434 . S
C446 C447 1.369 . S
C446 C448 1.419 . S
C446 H450 0.930 . S
C447 C446 1.369 . S
C447 C456 1.429 . S
C448 C446 1.419 . S
C448 C449 1.363 . S
C448 H451 0.929 . S
C449 C448 1.363 . S
C449 C455 1.428 . S
H450 C446 0.930 . S
H451 C448 0.929 . S
S452 N453 1.613 . S
S452 N454 1.610 . S
N453 S452 1.613 . S
N453 C456 1.350 . S
N454 S452 1.610 . S
N454 C455 1.351 . S
C455 C449 1.428 . S
C455 N454 1.351 . S
C455 C456 1.434 . S
C456 C447 1.429 . S
C456 N453 1.350 . S
C456 C455 1.434 . S
C457 C458 1.369 . S
C457 C459 1.419 . S
C457 H461 0.930 . S
C458 C457 1.369 . S
C458 C467 1.429 . S
C459 C457 1.419 . S
C459 C460 1.363 . S
C459 H462 0.929 . S
C460 C459 1.363 . S
C460 C466 1.428 . S
H461 C457 0.930 . S
H462 C459 0.929 . S
S463 N464 1.613 . S
S463 N465 1.610 . S
N464 S463 1.613 . S
N464 C467 1.350 . S
N465 S463 1.610 . S
N465 C466 1.351 . S
C466 C460 1.428 . S
C466 N465 1.351 . S
C466 C467 1.434 . S
C467 C458 1.429 . S
C467 N464 1.350 . S
C467 C466 1.434 . S
C468 C469 1.369 . S
C468 C470 1.419 . S
C468 H472 0.930 . S
C469 C468 1.369 . S
C469 C478 1.429 . S
C470 C468 1.419 . S
C470 C471 1.363 . S
C470 H473 0.929 . S
C471 C470 1.363 . S
C471 C477 1.428 . S
H472 C468 0.930 . S
H473 C470 0.929 . S
S474 N475 1.613 . S
S474 N476 1.610 . S
N475 S474 1.613 . S
N475 C478 1.350 . S
N476 S474 1.610 . S
N476 C477 1.351 . S
C477 C471 1.428 . S
C477 N476 1.351 . S
C477 C478 1.434 . S
C478 C469 1.429 . S
C478 N475 1.350 . S
C478 C477 1.434 . S
C479 C480 1.369 . S
C479 C481 1.419 . S
C479 H483 0.930 . S
C480 C479 1.369 . S
C480 C489 1.429 . S
C481 C479 1.419 . S
C481 C482 1.363 . S
C481 H484 0.929 . S
C482 C481 1.363 . S
C482 C488 1.428 . S
H483 C479 0.930 . S
H484 C481 0.929 . S
S485 N486 1.613 . S
S485 N487 1.610 . S
N486 S485 1.613 . S
N486 C489 1.350 . S
N487 S485 1.610 . S
N487 C488 1.351 . S
C488 C482 1.428 . S
C488 N487 1.351 . S
C488 C489 1.434 . S
C489 C480 1.429 . S
C489 N486 1.350 . S
C489 C488 1.434 . S
C490 C491 1.369 . S
C490 C492 1.419 . S
C490 H494 0.930 . S
C491 C490 1.369 . S
C491 C500 1.429 . S
C492 C490 1.419 . S
C492 C493 1.363 . S
C492 H495 0.929 . S
C493 C492 1.363 . S
C493 C499 1.428 . S
H494 C490 0.930 . S
H495 C492 0.929 . S
S496 N497 1.613 . S
S496 N498 1.610 1_545 S
N497 S496 1.613 . S
N497 C500 1.350 1_545 S
N498 S496 1.610 1_565 S
N498 C499 1.351 . S
C499 C493 1.428 . S
C499 N498 1.351 . S
C499 C500 1.434 . S
C500 C491 1.429 . S
C500 N497 1.350 1_565 S
C500 C499 1.434 . S
C501 C502 1.369 . S
C501 C503 1.419 . S
C501 H505 0.930 . S
C502 C501 1.369 . S
C502 C511 1.429 . S
C503 C501 1.419 . S
C503 C504 1.363 . S
C503 H506 0.929 . S
C504 C503 1.363 . S
C504 C510 1.428 . S
H505 C501 0.930 . S
H506 C503 0.929 . S
S507 N508 1.613 . S
S507 N509 1.610 . S
N508 S507 1.613 . S
N508 C511 1.350 . S
N509 S507 1.610 . S
N509 C510 1.351 . S
C510 C504 1.428 . S
C510 N509 1.351 . S
C510 C511 1.434 . S
C511 C502 1.429 . S
C511 N508 1.350 . S
C511 C510 1.434 . S
C512 C513 1.369 . S
C512 C514 1.419 . S
C512 H516 0.930 . S
C513 C512 1.369 . S
C513 C522 1.435 . S
C514 C512 1.419 . S
C514 C515 1.363 . S
C514 H517 0.929 . S
C515 C514 1.363 . S
C515 C521 1.428 . S
H516 C512 0.930 . S
H517 C514 0.929 . S
S518 N519 1.613 . S
S518 N520 1.610 . S
N519 S518 1.613 . S
N519 C522 1.338 1_554 S
N520 S518 1.610 . S
N520 C521 1.351 1_554 S
C521 C515 1.428 . S
C521 N520 1.351 1_556 S
C521 C522 1.439 . S
C522 C513 1.435 . S
C522 N519 1.338 1_556 S
C522 C521 1.439 . S
C523 C524 1.369 . S
C523 C525 1.419 . S
C523 H527 0.930 . S
C524 C523 1.369 . S
C524 C533 1.429 . S
C525 C523 1.419 . S
C525 C526 1.363 . S
C525 H528 0.929 . S
C526 C525 1.363 . S
C526 C532 1.428 . S
H527 C523 0.930 . S
H528 C525 0.929 . S
S529 N530 1.613 . S
S529 N531 1.610 . S
N530 S529 1.613 . S
N530 C533 1.350 . S
N531 S529 1.610 . S
N531 C532 1.351 . S
C532 C526 1.428 . S
C532 N531 1.351 . S
C532 C533 1.434 . S
C533 C524 1.429 . S
C533 N530 1.350 . S
C533 C532 1.434 . S
C534 C535 1.369 . S
C534 C536 1.419 . S
C534 H538 0.930 . S
C535 C534 1.369 . S
C535 C544 1.429 . S
C536 C534 1.419 . S
C536 C537 1.363 . S
C536 H539 0.929 . S
C537 C536 1.363 . S
C537 C543 1.428 . S
H538 C534 0.930 . S
H539 C536 0.929 . S
S540 N541 1.613 . S
S540 N542 1.610 . S
N541 S540 1.613 . S
N541 C544 1.350 . S
N542 S540 1.610 . S
N542 C543 1.351 . S
C543 C537 1.428 . S
C543 N542 1.351 . S
C543 C544 1.434 . S
C544 C535 1.429 . S
C544 N541 1.350 . S
C544 C543 1.434 . S
C545 C546 1.369 . S
C545 C547 1.419 . S
C545 H549 0.914 1_554 S
C546 C545 1.369 . S
C546 C555 1.429 . S
C547 C545 1.419 . S
C547 C548 1.363 . S
C547 H550 0.929 . S
C548 C547 1.363 . S
C548 C554 1.428 . S
H549 C545 0.914 1_556 S
H550 C547 0.929 . S
S551 N552 1.613 . S
S551 N553 1.610 . S
N552 S551 1.613 . S
N552 C555 1.350 . S
N553 S551 1.610 . S
N553 C554 1.351 . S
C554 C548 1.428 . S
C554 N553 1.351 . S
C554 C555 1.434 . S
C555 C546 1.429 . S
C555 N552 1.350 . S
C555 C554 1.434 . S
C556 C557 1.369 1_655 S
C556 C558 1.419 . S
C556 H560 0.930 . S
C557 C556 1.369 1_455 S
C557 C566 1.429 . S
C558 C556 1.419 . S
C558 C559 1.363 . S
C558 H561 0.929 . S
C559 C558 1.363 . S
C559 C565 1.428 1_655 S
H560 C556 0.930 . S
H561 C558 0.929 . S
S562 N563 1.613 . S
S562 N564 1.610 . S
N563 S562 1.613 . S
N563 C566 1.350 . S
N564 S562 1.610 . S
N564 C565 1.351 . S
C565 C559 1.428 1_455 S
C565 N564 1.351 . S
C565 C566 1.434 . S
C566 C557 1.429 . S
C566 N563 1.350 . S
C566 C565 1.434 . S
C567 C568 1.368 1_565 S
C567 C569 1.418 . S
C567 H571 0.932 . S
C568 C567 1.368 1_545 S
C568 C577 1.429 . S
C569 C567 1.418 . S
C569 C570 1.363 . S
C569 H572 0.929 . S
C570 C569 1.363 . S
C570 C576 1.428 1_565 S
H571 C567 0.932 . S
H572 C569 0.929 . S
S573 N574 1.613 . S
S573 N575 1.610 1_545 S
N574 S573 1.613 . S
N574 C577 1.350 . S
N575 S573 1.610 1_565 S
N575 C576 1.351 1_565 S
C576 C570 1.428 1_545 S
C576 N575 1.351 1_545 S
C576 C577 1.434 . S
C577 C568 1.429 . S
C577 N574 1.350 . S
C577 C576 1.434 . S
C578 C579 1.369 . S
C578 C580 1.419 1_545 S
C578 H582 0.930 . S
C579 C578 1.369 . S
C579 C588 1.429 . S
C580 C578 1.419 1_565 S
C580 C581 1.363 . S
C580 H583 0.929 . S
C581 C580 1.363 . S
C581 C587 1.428 . S
H582 C578 0.930 . S
H583 C580 0.929 . S
S584 N585 1.613 1_565 S
S584 N586 1.610 . S
N585 S584 1.613 1_545 S
N585 C588 1.350 . S
N586 S584 1.610 . S
N586 C587 1.351 . S
C587 C581 1.428 . S
C587 N586 1.351 . S
C587 C588 1.434 1_565 S
C588 C579 1.429 . S
C588 N585 1.350 . S
C588 C587 1.434 1_545 S
C589 C590 1.369 . S
C589 C591 1.419 1_455 S
C589 H593 0.930 . S
C590 C589 1.369 . S
C590 C599 1.429 . S
C591 C589 1.419 1_655 S
C591 C592 1.363 . S
C591 H594 0.929 . S
C592 C591 1.363 . S
C592 C598 1.428 . S
H593 C589 0.930 . S
H594 C591 0.929 . S
S595 N596 1.613 1_655 S
S595 N597 1.610 . S
N596 S595 1.613 1_455 S
N596 C599 1.350 . S
N597 S595 1.610 . S
N597 C598 1.351 . S
C598 C592 1.428 . S
C598 N597 1.351 . S
C598 C599 1.434 1_655 S
C599 C590 1.429 . S
C599 N596 1.350 . S
C599 C598 1.434 1_455 S
C425 C393 1.840 . S
C427 C38 1.879 . S
C436 C82 2.124 . S
C438 C234 2.159 . S
C447 C144 1.882 . S
C449 C287 1.840 . S
C458 C340 2.152 . S
C460 C188 2.132 . S
C469 C75 1.855 . S
C471 C22 1.827 . S
C480 C92 1.767 . S
C482 C145 1.791 . S
C491 C181 1.857 . S
C493 C128 1.832 . S
C502 C198 1.767 . S
C504 C39 1.791 . S
C513 C400 1.924 1_556 S
C515 C250 1.921 . S
C524 C303 2.063 . S
C526 C241 2.027 . S
C535 C294 1.925 1_556 S
C537 C356 1.921 . S
C546 C347 2.028 . S
C548 C409 2.064 . S
C557 C135 1.950 . S
C559 C29 1.946 . S
C568 C197 2.054 . S
C570 C91 2.053 . S
C579 C357 2.505 . S
C581 C251 2.500 . S
C590 C410 2.042 . S
C592 C304 2.045 . S
