# Generated by pormake.
# Topology lon, (4)-cn, num edge types: 1
# Building blocks:
#     Node 0, Type 0, BuildingBlock: AZAVOO_clean_sbu_0, # of connection points: 4
#     Node 1, Type 0, BuildingBlock: AZAVOO_clean_sbu_0, # of connection points: 4
#     Node 2, Type 0, BuildingBlock: AZAVOO_clean_sbu_0, # of connection points: 4
#     Node 3, Type 0, BuildingBlock: AZAVOO_clean_sbu_0, # of connection points: 4
#     Edge 4, Type (0, 0), BuildingBlock: ZUJKAS_clean_linker_0, # of connection points: 2
#     Edge 5, Type (0, 0), BuildingBlock: ZUJKAS_clean_linker_0, # of connection points: 2
#     Edge 6, Type (0, 0), BuildingBlock: ZUJKAS_clean_linker_0, # of connection points: 2
#     Edge 7, Type (0, 0), BuildingBlock: ZUJKAS_clean_linker_0, # of connection points: 2
#     Edge 8, Type (0, 0), BuildingBlock: ZUJKAS_clean_linker_0, # of connection points: 2
#     Edge 9, Type (0, 0), BuildingBlock: ZUJKAS_clean_linker_0, # of connection points: 2
#     Edge 10, Type (0, 0), BuildingBlock: ZUJKAS_clean_linker_0, # of connection points: 2
#     Edge 11, Type (0, 0), BuildingBlock: ZUJKAS_clean_linker_0, # of connection points: 2
# Relax obj value: 0.018
# Max RMSD: 0.070
# Mean RMSD: 0.063
data_MOF--net-lon--node1-AZAVOO_clean_sbu_0--edge1-ZUJKAS_clean_linker_0
_symmetry_space_group_name_H-M    P1
_symmetry_Int_Tables_number       1
_symmetry_cell_setting            triclinic
loop_
_symmetry_equiv_pos_as_xyz
'x, y, z'
_cell_length_a     32.340658
_cell_length_b     31.818402
_cell_length_c     54.019033
_cell_angle_alpha  93.411055
_cell_angle_beta   89.759883
_cell_angle_gamma 120.37104
loop_
_atom_site_label
_atom_site_type_symbol
_atom_site_fract_x
_atom_site_fract_y
_atom_site_fract_z
_atom_type_partial_charge
Mg0 Mg 0.38483 0.66264 0.06497 0.0
O1 O 0.30567 0.63187 0.05185 0.0
O2 O 0.28181 0.67754 0.07367 0.0
Mg3 Mg 0.34088 0.73386 0.10017 0.0
C4 C 0.27371 0.64306 0.05751 0.0
C5 C 0.44606 0.63863 0.03231 0.0
O6 O 0.47538 0.67713 0.04677 0.0
O7 O 0.40937 0.73011 0.04286 0.0
O8 O 0.38443 0.77205 0.06697 0.0
O9 O 0.36221 0.61221 0.09602 0.0
O10 O 0.37018 0.68543 0.09876 0.0
C11 C 0.4061 0.76804 0.04798 0.0
C12 C 0.35838 0.64557 0.10896 0.0
O13 O 0.40123 0.62232 0.03364 0.0
Mg14 Mg 0.66295 0.36342 0.56133 0.0
O15 O 0.62063 0.28065 0.5508 0.0
O16 O 0.55507 0.24928 0.5736 0.0
Mg17 Mg 0.55649 0.30972 0.59932 0.0
C18 C 0.58117 0.24439 0.5572 0.0
C19 C 0.73786 0.35825 0.52835 0.0
O20 O 0.72986 0.32566 0.54438 0.0
O21 O 0.60883 0.37404 0.53977 0.0
O22 O 0.54763 0.34563 0.56565 0.0
O23 O 0.70294 0.35376 0.59177 0.0
O24 O 0.63451 0.35254 0.5964 0.0
C25 C 0.56737 0.36618 0.54584 0.0
C26 C 0.66863 0.34862 0.60601 0.0
O27 O 0.71189 0.37775 0.52869 0.0
Mg28 Mg 0.30636 0.65824 0.41362 0.0
O29 O 0.34383 0.73773 0.43043 0.0
O30 O 0.30783 0.77233 0.41198 0.0
Mg31 Mg 0.25139 0.7183 0.3833 0.0
C32 C 0.33876 0.77447 0.42741 0.0
C33 C 0.34585 0.60087 0.43067 0.0
O34 O 0.33086 0.58809 0.40738 0.0
O35 O 0.23945 0.63761 0.43583 0.0
O36 O 0.20549 0.6707 0.4142 0.0
O37 O 0.35824 0.67916 0.38322 0.0
O38 O 0.28946 0.67778 0.38091 0.0
C39 C 0.20475 0.64485 0.43163 0.0
C40 C 0.32833 0.68559 0.37047 0.0
O41 O 0.34005 0.63367 0.44199 0.0
Mg42 Mg 0.71676 0.32016 0.91307 0.0
O43 O 0.67175 0.35559 0.92519 0.0
O44 O 0.60203 0.31291 0.90377 0.0
Mg45 Mg 0.60226 0.25389 0.87787 0.0
C46 C 0.62966 0.34719 0.91962 0.0
C47 C 0.80161 0.40513 0.9441 0.0
O48 O 0.79568 0.42922 0.92687 0.0
O49 O 0.67091 0.25415 0.93541 0.0
O50 O 0.60433 0.21409 0.91132 0.0
O51 O 0.74692 0.36888 0.88162 0.0
O52 O 0.68058 0.29692 0.87901 0.0
C53 C 0.62925 0.21724 0.93038 0.0
C54 C 0.71023 0.33576 0.86849 0.0
O55 O 0.7719 0.35971 0.94482 0.0
H56 H 0.3108 0.68455 0.13378 0.0
H57 H 0.30306 0.6908 0.17855 0.0
H58 H 0.36454 0.59986 0.18796 0.0
H59 H 0.3732 0.59408 0.14287 0.0
H60 H 0.27934 0.58412 0.21942 0.0
H61 H 0.43386 0.77447 0.22134 0.0
H62 H 0.38648 0.75871 0.19888 0.0
H63 H 0.42191 0.72992 0.19591 0.0
C64 C 0.32253 0.66573 0.14528 0.0
C65 C 0.34385 0.63999 0.13495 0.0
C66 C 0.31776 0.66907 0.17084 0.0
C67 C 0.33421 0.64667 0.18641 0.0
C68 C 0.35202 0.61766 0.17609 0.0
H69 H 0.40519 0.70069 0.34308 0.0
H70 H 0.40762 0.69478 0.2978 0.0
C71 C 0.35672 0.61423 0.15041 0.0
C72 C 0.33617 0.6569 0.21344 0.0
H73 H 0.39374 0.74804 0.25894 0.0
C74 C 0.3043 0.61984 0.22814 0.0
C75 C 0.36921 0.70352 0.22457 0.0
C76 C 0.40514 0.74399 0.20947 0.0
C77 C 0.30407 0.62853 0.25387 0.0
C78 C 0.3363 0.67554 0.26492 0.0
C79 C 0.36877 0.7123 0.25025 0.0
C80 C 0.3377 0.68647 0.29188 0.0
C81 C 0.26983 0.58731 0.26912 0.0
C82 C 0.29862 0.68626 0.3033 0.0
C83 C 0.29721 0.68992 0.32911 0.0
C84 C 0.33486 0.69369 0.34382 0.0
C85 C 0.37557 0.6976 0.33224 0.0
C86 C 0.37699 0.6941 0.30641 0.0
H87 H 0.2541 0.5513 0.25852 0.0
H88 H 0.28825 0.58625 0.28617 0.0
H89 H 0.2401 0.59325 0.27488 0.0
H90 H 0.26837 0.6812 0.29224 0.0
H91 H 0.26542 0.68693 0.33747 0.0
H92 H 0.7383 0.34403 0.632 0.0
H93 H 0.74463 0.34162 0.67691 0.0
H94 H 0.60861 0.33469 0.68504 0.0
H95 H 0.60253 0.33836 0.64034 0.0
H96 H 0.67988 0.4058 0.71635 0.0
H97 H 0.67267 0.22837 0.72117 0.0
H98 H 0.71776 0.26957 0.70126 0.0
H99 H 0.65546 0.2456 0.6935 0.0
C100 C 0.70938 0.34123 0.6433 0.0
C101 C 0.66979 0.34114 0.6326 0.0
C102 C 0.71301 0.33972 0.66894 0.0
C103 C 0.67687 0.33755 0.6842 0.0
C104 C 0.63681 0.33627 0.67352 0.0
H105 H 0.63698 0.27126 0.83698 0.0
H106 H 0.62888 0.27572 0.79267 0.0
C107 C 0.63326 0.33804 0.64794 0.0
C108 C 0.68184 0.33914 0.71144 0.0
H109 H 0.69286 0.27856 0.75856 0.0
C110 C 0.68259 0.37795 0.72564 0.0
C111 C 0.68506 0.30255 0.72338 0.0
C112 C 0.68227 0.25891 0.7091 0.0
C113 C 0.68653 0.38119 0.7516 0.0
C114 C 0.69069 0.34511 0.76351 0.0
C115 C 0.68995 0.30632 0.74929 0.0
C116 C 0.69401 0.34556 0.79077 0.0
C117 C 0.68507 0.42247 0.76606 0.0
C118 C 0.73303 0.38385 0.80447 0.0
C119 C 0.73747 0.38177 0.83004 0.0
C120 C 0.70319 0.3411 0.84215 0.0
C121 C 0.66374 0.30339 0.82837 0.0
C122 C 0.65917 0.30567 0.80296 0.0
H123 H 0.67013 0.43987 0.75463 0.0
H124 H 0.6632 0.40939 0.7828 0.0
H125 H 0.72205 0.45079 0.77222 0.0
H126 H 0.76075 0.41457 0.79529 0.0
H127 H 0.76847 0.41119 0.84012 0.0
H128 H 0.3959 0.55181 0.0041 0.0
H129 H 0.42844 0.50422 0.98357 0.0
H130 H 0.57157 0.61708 0.00658 0.0
H131 H 0.53972 0.66474 0.02704 0.0
H132 H 0.50373 0.53257 0.94589 0.0
H133 H 0.55273 0.4895 0.03561 0.0
H134 H 0.51037 0.51034 0.03326 0.0
H135 H 0.57354 0.55292 0.03208 0.0
C136 C 0.43433 0.56673 0.00455 0.0
C137 C 0.46515 0.61189 0.01741 0.0
C138 C 0.45283 0.53948 -0.00715 0.0
C139 C 0.5023 0.55684 -0.00603 0.0
C140 C 0.53322 0.60272 0.00587 0.0
H141 H 0.67989 0.43248 0.9491 0.0
H142 H 0.65011 0.48487 0.96653 0.0
C143 C 0.51488 0.62997 0.01748 0.0
C144 C 0.52175 0.52662 0.9833 0.0
H145 H 0.57766 0.46487 -0.00084 0.0
C146 C 0.51976 0.51758 0.95749 0.0
C147 C 0.54293 0.5075 -0.00147 0.0
C148 C 0.54484 0.51512 0.02643 0.0
C149 C 0.539 0.49036 0.94643 0.0
C150 C 0.55973 0.47071 0.96168 0.0
C151 C 0.56188 0.48001 -0.0125 0.0
C152 C 0.57793 0.43908 0.95126 0.0
C153 C 0.5378 0.48377 0.9185 0.0
C154 C 0.54703 0.39547 0.93741 0.0
C155 C 0.56388 0.36566 0.92741 0.0
C156 C 0.612 0.37844 0.93126 0.0
C157 C 0.64269 0.42156 0.94572 0.0
C158 C 0.62575 0.45157 0.95566 0.0
H159 H 0.53445 0.5126 0.90965 0.0
H160 H 0.57059 0.4844 0.91176 0.0
H161 H 0.50625 0.44798 0.91234 0.0
H162 H 0.50968 0.38433 0.93437 0.0
H163 H 0.53898 0.3325 0.91662 0.0
H164 H 0.17881 0.56935 0.46176 0.0
H165 H 0.09919 0.51674 0.47802 0.0
H166 H 0.0493 0.60668 0.4484 0.0
H167 H 0.12826 0.65908 0.43189 0.0
H168 H 0.03969 0.53539 0.51008 0.0
H169 H 0.95837 0.47006 0.41526 0.0
H170 H 0.02237 0.50272 0.42127 0.0
H171 H 0.9904 0.53531 0.42066 0.0
C172 C 0.15114 0.57842 0.45904 0.0
C173 C 0.15976 0.61807 0.44522 0.0
C174 C 0.10563 0.54819 0.46826 0.0
C175 C 0.06816 0.55715 0.46379 0.0
C176 C 0.07748 0.59844 0.45145 0.0
H177 H 0.77134 0.43375 0.49776 0.0
H178 H 0.85158 0.47814 0.48095 0.0
C179 C 0.12276 0.62853 0.44217 0.0
C180 C 0.01889 0.52271 0.47136 0.0
H181 H 0.90432 0.44853 0.44854 0.0
C182 C 0.01012 0.51601 0.49666 0.0
C183 C 0.98052 0.49738 0.45372 0.0
C184 C 0.98831 0.50127 0.42619 0.0
C185 C 0.96354 0.48594 0.5049 0.0
C186 C 0.92504 0.46143 0.48728 0.0
C187 C 0.93396 0.46745 0.46196 0.0
C188 C 0.87498 0.43102 0.49495 0.0
C189 C 0.95564 0.4819 0.53242 0.0
C190 C 0.86102 0.38863 0.5074 0.0
C191 C 0.81517 0.36308 0.51698 0.0
C192 C 0.78252 0.37953 0.51423 0.0
C193 C 0.79566 0.42023 0.50032 0.0
C194 C 0.84152 0.44571 0.49074 0.0
H195 H 0.98713 0.51075 0.54354 0.0
H196 H 0.92363 0.48445 0.5375 0.0
H197 H 0.9493 0.4459 0.53755 0.0
H198 H 0.88608 0.37617 0.51036 0.0
H199 H 0.8061 0.33167 0.52743 0.0
H200 H 0.67877 0.19542 0.96348 0.0
H201 H 0.64923 0.11808 0.98311 0.0
H202 H 0.50835 0.06499 0.95078 0.0
H203 H 0.53738 0.14137 0.93093 0.0
H204 H 0.57579 0.06925 0.0157 0.0
H205 H 0.5392 0.96001 0.92645 0.0
H206 H 0.57503 0.02584 0.92885 0.0
H207 H 0.51059 0.99585 0.92761 0.0
C208 C 0.64137 0.16748 0.96081 0.0
C209 C 0.61056 0.17428 0.9454 0.0
C210 C 0.62467 0.12329 0.97191 0.0
C211 C 0.57704 0.08541 0.96772 0.0
C212 C 0.54563 0.09323 0.95357 0.0
H213 H 0.38892 0.843 0.04632 0.0
H214 H 0.43587 0.91898 0.0262 0.0
C215 C 0.56223 0.1371 0.94241 0.0
C216 C 0.55953 0.03757 0.97815 0.0
H217 H 0.50046 0.9152 0.96204 0.0
C218 C 0.55998 0.0356 0.00399 0.0
C219 C 0.53991 0.99379 0.96279 0.0
C220 C 0.54158 0.99391 0.93487 0.0
C221 C 0.53851 0.99072 0.01492 0.0
C222 C 0.51535 0.94691 -0.00043 0.0
C223 C 0.51762 0.94889 0.97373 0.0
C224 C 0.48547 0.89912 0.01008 0.0
C225 C 0.54001 0.99061 0.04283 0.0
C226 C 0.49627 0.86168 0.00648 0.0
C227 C 0.46904 0.81765 0.0178 0.0
C228 C 0.43072 0.81072 0.03282 0.0
C229 C 0.41865 0.84745 0.03519 0.0
C230 C 0.44562 0.89106 0.02385 0.0
H231 H 0.57088 0.02486 0.05122 0.0
H232 H 0.50669 0.98782 0.05021 0.0
H233 H 0.54248 0.95911 0.04878 0.0
H234 H 0.52658 0.86711 -0.00443 0.0
H235 H 0.47916 0.79001 0.01563 0.0
H236 H 0.47841 0.35425 0.55257 0.0
H237 H 0.44166 0.39308 0.53133 0.0
H238 H 0.56314 0.46008 0.48406 0.0
H239 H 0.60095 0.42193 0.50556 0.0
H240 H 0.5383 0.52556 0.50564 0.0
H241 H 0.3785 0.36176 0.4625 0.0
H242 H 0.38504 0.35875 0.49522 0.0
H243 H 0.42943 0.3599 0.47464 0.0
C244 C 0.49722 0.37668 0.53744 0.0
C245 C 0.54276 0.38497 0.53081 0.0
C246 C 0.47594 0.39869 0.52524 0.0
C247 C 0.49946 0.42905 0.50599 0.0
C248 C 0.54438 0.43661 0.49886 0.0
H249 H 0.37081 0.53845 0.40852 0.0
H250 H 0.40997 0.49952 0.42726 0.0
C251 C 0.56581 0.41459 0.51109 0.0
C252 C 0.47812 0.45489 0.49431 0.0
H253 H 0.37763 0.43633 0.46373 0.0
C254 C 0.50332 0.50614 0.4963 0.0
C255 C 0.43264 0.42939 0.48205 0.0
C256 C 0.405 0.37442 0.47823 0.0
C257 C 0.48387 0.53265 0.48664 0.0
C258 C 0.43766 0.50708 0.47515 0.0
C259 C 0.41281 0.45584 0.47286 0.0
C260 C 0.41521 0.53255 0.46415 0.0
C261 C 0.51328 0.58768 0.48844 0.0
C262 C 0.405 0.5641 0.47873 0.0
C263 C 0.38268 0.58685 0.46799 0.0
C264 C 0.36983 0.57787 0.44258 0.0
C265 C 0.38005 0.54612 0.42816 0.0
C266 C 0.40248 0.52376 0.43883 0.0
H267 H 0.55189 0.6011 0.49216 0.0
H268 H 0.5096 0.6027 0.47109 0.0
H269 H 0.50035 0.60211 0.50393 0.0
H270 H 0.41372 0.57063 0.49843 0.0
H271 H 0.37507 0.61097 0.47957 0.0
H272 H 0.23618 0.56139 0.02481 0.0
H273 H 0.15469 0.51573 0.00632 0.0
H274 H 0.12037 0.61666 0.04447 0.0
H275 H 0.20064 0.6618 0.06315 0.0
H276 H 0.05064 0.52002 0.04881 0.0
H277 H 0.10057 0.55829 0.95061 0.0
H278 H 0.12902 0.53111 0.9665 0.0
H279 H 0.14211 0.59164 0.97631 0.0
C280 C 0.21133 0.57395 0.02917 0.0
C281 C 0.22515 0.61537 0.04546 0.0
C282 C 0.16484 0.54791 0.01853 0.0
C283 C 0.13161 0.56307 0.02389 0.0
C284 C 0.14537 0.60427 0.04011 0.0
H285 H 0.87299 0.5008 0.9464 0.0
H286 H 0.95165 0.53706 0.96722 0.0
C287 C 0.1915 0.63012 0.05073 0.0
C288 C 0.08221 0.53635 0.01292 0.0
H289 H 0.01839 0.50828 0.95825 0.0
C290 C 0.04351 0.51715 0.02899 0.0
C291 C 0.07311 0.53325 -0.01289 0.0
C292 C 0.11328 0.55495 0.96906 0.0
C293 C 0.99594 0.4954 0.01998 0.0
C294 C 0.98684 0.4921 -0.00585 0.0
C295 C 0.0255 0.51079 0.97805 0.0
C296 C 0.93761 0.47063 0.98337 0.0
C297 C 0.956 0.47763 0.03823 0.0
C298 C 0.90327 0.42141 0.9859 0.0
C299 C 0.85805 0.40061 0.97415 0.0
C300 C 0.84657 0.42856 0.95944 0.0
C301 C 0.8806 0.47821 0.95757 0.0
C302 C 0.92569 0.49898 0.96938 0.0
H303 H 0.96956 0.49362 0.05736 0.0
H304 H 0.92854 0.48677 0.03278 0.0
H305 H 0.93833 0.43735 0.0385 0.0
H306 H 0.91193 0.39865 -0.00371 0.0
H307 H 0.83282 0.36218 0.97585 0.0
H308 H 0.49518 0.16112 0.5625 0.0
H309 H 0.46584 0.08087 0.54152 0.0
H310 H 0.59909 0.13454 0.50353 0.0
H311 H 0.62861 0.21581 0.52411 0.0
H312 H 0.52388 0.08358 0.47213 0.0
H313 H 0.49651 0.97591 0.55336 0.0
H314 H 0.46629 0.01001 0.55672 0.0
H315 H 0.53074 0.0418 0.55541 0.0
C316 C 0.51861 0.15597 0.54987 0.0
C317 C 0.56439 0.19508 0.54506 0.0
C318 C 0.50183 0.10977 0.53804 0.0
C319 C 0.53061 0.10129 0.52136 0.0
C320 C 0.57641 0.14012 0.51652 0.0
H321 H 0.41734 0.7998 0.4577 0.0
H322 H 0.4701 0.87922 0.4798 0.0
C323 C 0.59321 0.18658 0.52828 0.0
C324 C 0.51115 0.05275 0.50774 0.0
H325 H 0.45122 0.93042 0.51594 0.0
C326 C 0.50872 0.05014 0.48172 0.0
C327 C 0.49219 0.00903 0.52016 0.0
C328 C 0.49705 0.00933 0.54794 0.0
C329 C 0.48534 0.00504 0.46787 0.0
C330 C 0.46276 0.96137 0.48041 0.0
C331 C 0.46776 0.96389 0.50634 0.0
C332 C 0.43126 0.91315 0.46707 0.0
C333 C 0.48463 0.0047 0.43993 0.0
C334 C 0.39135 0.90554 0.45308 0.0
C335 C 0.36135 0.86049 0.44042 0.0
C336 C 0.37016 0.82163 0.44169 0.0
C337 C 0.40954 0.82891 0.45625 0.0
C338 C 0.43978 0.87429 0.46887 0.0
H339 H 0.51594 0.0381 0.43335 0.0
H340 H 0.48473 0.97222 0.43128 0.0
H341 H 0.45171 0.00391 0.43346 0.0
H342 H 0.3832 0.93448 0.45202 0.0
H343 H 0.33112 0.8562 0.42965 0.0
loop_
_geom_bond_atom_site_label_1
_geom_bond_atom_site_label_2
_geom_bond_distance
_geom_bond_site_symmetry_2
_ccdc_geom_bond_type
Mg0 O1 2.028 . S
Mg0 O7 1.986 . S
Mg0 O9 2.114 . S
Mg0 O10 2.251 . S
Mg0 O13 2.010 . S
O1 Mg0 2.028 . S
O1 C4 1.250 . S
O2 Mg3 2.028 . S
O2 C4 1.248 . S
Mg3 O2 2.028 . S
Mg3 O8 2.032 . S
Mg3 O10 2.079 . S
C4 O1 1.250 . S
C4 O2 1.248 . S
C5 O6 1.264 . S
C5 O13 1.249 . S
O6 C5 1.264 . S
O7 Mg0 1.986 . S
O7 C11 1.246 . S
O8 Mg3 2.032 . S
O8 C11 1.259 . S
O9 Mg0 2.114 . S
O9 C12 1.252 . S
O10 Mg0 2.251 . S
O10 Mg3 2.079 . S
O10 C12 1.273 . S
C11 O7 1.246 . S
C11 O8 1.259 . S
C12 O9 1.252 . S
C12 O10 1.273 . S
O13 Mg0 2.010 . S
O13 C5 1.249 . S
Mg14 O15 2.028 . S
Mg14 O21 1.986 . S
Mg14 O23 2.114 . S
Mg14 O24 2.251 . S
Mg14 O27 2.010 . S
O15 Mg14 2.028 . S
O15 C18 1.250 . S
O16 Mg17 2.028 . S
O16 C18 1.248 . S
Mg17 O16 2.028 . S
Mg17 O22 2.032 . S
Mg17 O24 2.079 . S
C18 O15 1.250 . S
C18 O16 1.248 . S
C19 O20 1.264 . S
C19 O27 1.249 . S
O20 C19 1.264 . S
O21 Mg14 1.986 . S
O21 C25 1.246 . S
O22 Mg17 2.032 . S
O22 C25 1.259 . S
O23 Mg14 2.114 . S
O23 C26 1.252 . S
O24 Mg14 2.251 . S
O24 Mg17 2.079 . S
O24 C26 1.273 . S
C25 O21 1.246 . S
C25 O22 1.259 . S
C26 O23 1.252 . S
C26 O24 1.273 . S
O27 Mg14 2.010 . S
O27 C19 1.249 . S
Mg28 O29 2.028 . S
Mg28 O35 1.986 . S
Mg28 O37 2.114 . S
Mg28 O38 2.251 . S
Mg28 O41 2.010 . S
O29 Mg28 2.028 . S
O29 C32 1.250 . S
O30 Mg31 2.028 . S
O30 C32 1.248 . S
Mg31 O30 2.028 . S
Mg31 O36 2.032 . S
Mg31 O38 2.079 . S
C32 O29 1.250 . S
C32 O30 1.248 . S
C33 O34 1.264 . S
C33 O41 1.249 . S
O34 C33 1.264 . S
O35 Mg28 1.986 . S
O35 C39 1.246 . S
O36 Mg31 2.032 . S
O36 C39 1.259 . S
O37 Mg28 2.114 . S
O37 C40 1.252 . S
O38 Mg28 2.251 . S
O38 Mg31 2.079 . S
O38 C40 1.273 . S
C39 O35 1.246 . S
C39 O36 1.259 . S
C40 O37 1.252 . S
C40 O38 1.273 . S
O41 Mg28 2.010 . S
O41 C33 1.249 . S
Mg42 O43 2.028 . S
Mg42 O49 1.986 . S
Mg42 O51 2.114 . S
Mg42 O52 2.251 . S
Mg42 O55 2.010 . S
O43 Mg42 2.028 . S
O43 C46 1.250 . S
O44 Mg45 2.028 . S
O44 C46 1.248 . S
Mg45 O44 2.028 . S
Mg45 O50 2.032 . S
Mg45 O52 2.079 . S
C46 O43 1.250 . S
C46 O44 1.248 . S
C47 O48 1.264 . S
C47 O55 1.249 . S
O48 C47 1.264 . S
O49 Mg42 1.986 . S
O49 C53 1.246 . S
O50 Mg45 2.032 . S
O50 C53 1.259 . S
O51 Mg42 2.114 . S
O51 C54 1.252 . S
O52 Mg42 2.251 . S
O52 Mg45 2.079 . S
O52 C54 1.273 . S
C53 O49 1.246 . S
C53 O50 1.259 . S
C54 O51 1.252 . S
C54 O52 1.273 . S
O55 Mg42 2.010 . S
O55 C47 1.249 . S
H56 C64 0.929 . S
H57 C66 0.930 . S
H58 C68 0.930 . S
H59 C71 0.929 . S
H60 C74 0.930 . S
H61 C76 0.960 . S
H62 C76 0.960 . S
H63 C76 0.960 . S
C64 H56 0.929 . S
C64 C65 1.377 . S
C64 C66 1.384 . S
C65 C64 1.377 . S
C65 C71 1.390 . S
C66 H57 0.930 . S
C66 C64 1.384 . S
C66 C67 1.372 . S
C67 C66 1.372 . S
C67 C68 1.400 . S
C67 C72 1.490 . S
C68 H58 0.930 . S
C68 C67 1.400 . S
C68 C71 1.386 . S
H69 C85 0.930 . S
H70 C86 0.931 . S
C71 H59 0.929 . S
C71 C65 1.390 . S
C71 C68 1.386 . S
C72 C67 1.490 . S
C72 C74 1.395 . S
C72 C75 1.403 . S
H73 C79 0.930 . S
C74 H60 0.930 . S
C74 C72 1.395 . S
C74 C77 1.403 . S
C75 C72 1.403 . S
C75 C76 1.524 . S
C75 C79 1.400 . S
C76 H61 0.960 . S
C76 H62 0.960 . S
C76 H63 0.960 . S
C76 C75 1.524 . S
C77 C74 1.403 . S
C77 C78 1.392 . S
C77 C81 1.495 . S
C78 C77 1.392 . S
C78 C79 1.385 . S
C78 C80 1.478 . S
C79 H73 0.930 . S
C79 C75 1.400 . S
C79 C78 1.385 . S
C80 C78 1.478 . S
C80 C82 1.381 . S
C80 C86 1.383 . S
C81 C77 1.495 . S
C81 H87 0.959 . S
C81 H88 0.961 . S
C81 H89 0.960 . S
C82 C80 1.381 . S
C82 C83 1.394 . S
C82 H90 0.930 . S
C83 C82 1.394 . S
C83 C84 1.383 . S
C83 H91 0.929 . S
C84 C83 1.383 . S
C84 C85 1.377 . S
C85 H69 0.930 . S
C85 C84 1.377 . S
C85 C86 1.379 . S
C86 H70 0.931 . S
C86 C80 1.383 . S
C86 C85 1.379 . S
H87 C81 0.959 . S
H88 C81 0.961 . S
H89 C81 0.960 . S
H90 C82 0.930 . S
H91 C83 0.929 . S
H92 C100 0.929 . S
H93 C102 0.930 . S
H94 C104 0.930 . S
H95 C107 0.929 . S
H96 C110 0.930 . S
H97 C112 0.960 . S
H98 C112 0.960 . S
H99 C112 0.960 . S
C100 H92 0.929 . S
C100 C101 1.377 . S
C100 C102 1.384 . S
C101 C100 1.377 . S
C101 C107 1.390 . S
C102 H93 0.930 . S
C102 C100 1.384 . S
C102 C103 1.372 . S
C103 C102 1.372 . S
C103 C104 1.400 . S
C103 C108 1.490 . S
C104 H94 0.930 . S
C104 C103 1.400 . S
C104 C107 1.386 . S
H105 C121 0.930 . S
H106 C122 0.931 . S
C107 H95 0.929 . S
C107 C101 1.390 . S
C107 C104 1.386 . S
C108 C103 1.490 . S
C108 C110 1.395 . S
C108 C111 1.403 . S
H109 C115 0.930 . S
C110 H96 0.930 . S
C110 C108 1.395 . S
C110 C113 1.403 . S
C111 C108 1.403 . S
C111 C112 1.524 . S
C111 C115 1.400 . S
C112 H97 0.960 . S
C112 H98 0.960 . S
C112 H99 0.960 . S
C112 C111 1.524 . S
C113 C110 1.403 . S
C113 C114 1.392 . S
C113 C117 1.495 . S
C114 C113 1.392 . S
C114 C115 1.385 . S
C114 C116 1.478 . S
C115 H109 0.930 . S
C115 C111 1.400 . S
C115 C114 1.385 . S
C116 C114 1.478 . S
C116 C118 1.381 . S
C116 C122 1.383 . S
C117 C113 1.495 . S
C117 H123 0.959 . S
C117 H124 0.961 . S
C117 H125 0.960 . S
C118 C116 1.381 . S
C118 C119 1.394 . S
C118 H126 0.930 . S
C119 C118 1.394 . S
C119 C120 1.383 . S
C119 H127 0.929 . S
C120 C119 1.383 . S
C120 C121 1.377 . S
C121 H105 0.930 . S
C121 C120 1.377 . S
C121 C122 1.379 . S
C122 H106 0.931 . S
C122 C116 1.383 . S
C122 C121 1.379 . S
H123 C117 0.959 . S
H124 C117 0.961 . S
H125 C117 0.960 . S
H126 C118 0.930 . S
H127 C119 0.929 . S
H128 C136 0.929 . S
H129 C138 0.930 1_556 S
H130 C140 0.930 . S
H131 C143 0.929 . S
H132 C146 0.930 . S
H133 C148 0.960 . S
H134 C148 0.960 . S
H135 C148 0.960 . S
C136 H128 0.929 . S
C136 C137 1.377 . S
C136 C138 1.384 . S
C137 C136 1.377 . S
C137 C143 1.390 . S
C138 H129 0.930 1_554 S
C138 C136 1.384 . S
C138 C139 1.372 . S
C139 C138 1.372 . S
C139 C140 1.400 . S
C139 C144 1.490 . S
C140 H130 0.930 . S
C140 C139 1.400 . S
C140 C143 1.386 . S
H141 C157 0.930 . S
H142 C158 0.931 . S
C143 H131 0.929 . S
C143 C137 1.390 . S
C143 C140 1.386 . S
C144 C139 1.490 . S
C144 C146 1.395 1_554 S
C144 C147 1.403 . S
H145 C151 0.930 . S
C146 H132 0.930 . S
C146 C144 1.395 1_556 S
C146 C149 1.403 . S
C147 C144 1.403 . S
C147 C148 1.524 . S
C147 C151 1.400 . S
C148 H133 0.960 . S
C148 H134 0.960 . S
C148 H135 0.960 . S
C148 C147 1.524 . S
C149 C146 1.403 . S
C149 C150 1.392 . S
C149 C153 1.495 . S
C150 C149 1.392 . S
C150 C151 1.385 1_556 S
C150 C152 1.478 . S
C151 H145 0.930 . S
C151 C147 1.400 . S
C151 C150 1.385 1_554 S
C152 C150 1.478 . S
C152 C154 1.381 . S
C152 C158 1.383 . S
C153 C149 1.495 . S
C153 H159 0.959 . S
C153 H160 0.961 . S
C153 H161 0.960 . S
C154 C152 1.381 . S
C154 C155 1.394 . S
C154 H162 0.930 . S
C155 C154 1.394 . S
C155 C156 1.383 . S
C155 H163 0.929 . S
C156 C155 1.383 . S
C156 C157 1.377 . S
C157 H141 0.930 . S
C157 C156 1.377 . S
C157 C158 1.379 . S
C158 H142 0.931 . S
C158 C152 1.383 . S
C158 C157 1.379 . S
H159 C153 0.959 . S
H160 C153 0.961 . S
H161 C153 0.960 . S
H162 C154 0.930 . S
H163 C155 0.929 . S
H164 C172 0.929 . S
H165 C174 0.930 . S
H166 C176 0.930 . S
H167 C179 0.929 . S
H168 C182 0.930 . S
H169 C184 0.960 1_655 S
H170 C184 0.960 . S
H171 C184 0.960 . S
C172 H164 0.929 . S
C172 C173 1.377 . S
C172 C174 1.384 . S
C173 C172 1.377 . S
C173 C179 1.390 . S
C174 H165 0.930 . S
C174 C172 1.384 . S
C174 C175 1.372 . S
C175 C174 1.372 . S
C175 C176 1.400 . S
C175 C180 1.490 . S
C176 H166 0.930 . S
C176 C175 1.400 . S
C176 C179 1.386 . S
H177 C193 0.930 . S
H178 C194 0.931 . S
C179 H167 0.929 . S
C179 C173 1.390 . S
C179 C176 1.386 . S
C180 C175 1.490 . S
C180 C182 1.395 . S
C180 C183 1.403 . S
H181 C187 0.930 . S
C182 H168 0.930 . S
C182 C180 1.395 . S
C182 C185 1.403 1_455 S
C183 C180 1.403 . S
C183 C184 1.524 . S
C183 C187 1.400 1_455 S
C184 H169 0.960 1_455 S
C184 H170 0.960 . S
C184 H171 0.960 . S
C184 C183 1.524 . S
C185 C182 1.403 1_655 S
C185 C186 1.392 . S
C185 C189 1.495 . S
C186 C185 1.392 . S
C186 C187 1.385 . S
C186 C188 1.478 . S
C187 H181 0.930 . S
C187 C183 1.400 1_655 S
C187 C186 1.385 . S
C188 C186 1.478 . S
C188 C190 1.381 . S
C188 C194 1.383 . S
C189 C185 1.495 . S
C189 H195 0.959 1_655 S
C189 H196 0.961 . S
C189 H197 0.960 . S
C190 C188 1.381 . S
C190 C191 1.394 . S
C190 H198 0.930 . S
C191 C190 1.394 . S
C191 C192 1.383 . S
C191 H199 0.929 . S
C192 C191 1.383 . S
C192 C193 1.377 . S
C193 H177 0.930 . S
C193 C192 1.377 . S
C193 C194 1.379 . S
C194 H178 0.931 . S
C194 C188 1.383 . S
C194 C193 1.379 . S
H195 C189 0.959 1_455 S
H196 C189 0.961 . S
H197 C189 0.960 . S
H198 C190 0.930 . S
H199 C191 0.929 . S
H200 C208 0.929 . S
H201 C210 0.930 . S
H202 C212 0.930 . S
H203 C215 0.929 . S
H204 C218 0.930 . S
H205 C220 0.960 1_565 S
H206 C220 0.960 . S
H207 C220 0.960 . S
C208 H200 0.929 . S
C208 C209 1.377 . S
C208 C210 1.384 . S
C209 C208 1.377 . S
C209 C215 1.390 . S
C210 H201 0.930 . S
C210 C208 1.384 . S
C210 C211 1.372 . S
C211 C210 1.372 . S
C211 C212 1.400 . S
C211 C216 1.490 . S
C212 H202 0.930 . S
C212 C211 1.400 . S
C212 C215 1.386 . S
H213 C229 0.930 . S
H214 C230 0.931 . S
C215 H203 0.929 . S
C215 C209 1.390 . S
C215 C212 1.386 . S
C216 C211 1.490 . S
C216 C218 1.395 1_556 S
C216 C219 1.403 . S
H217 C223 0.930 . S
C218 H204 0.930 . S
C218 C216 1.395 1_554 S
C218 C221 1.403 1_545 S
C219 C216 1.403 . S
C219 C220 1.524 . S
C219 C223 1.400 1_545 S
C220 H205 0.960 1_545 S
C220 H206 0.960 . S
C220 H207 0.960 . S
C220 C219 1.524 . S
C221 C218 1.403 1_565 S
C221 C222 1.392 . S
C221 C225 1.495 . S
C222 C221 1.392 . S
C222 C223 1.385 1_554 S
C222 C224 1.478 . S
C223 H217 0.930 . S
C223 C219 1.400 1_565 S
C223 C222 1.385 1_556 S
C224 C222 1.478 . S
C224 C226 1.381 . S
C224 C230 1.383 . S
C225 C221 1.495 . S
C225 H231 0.959 1_565 S
C225 H232 0.961 . S
C225 H233 0.960 . S
C226 C224 1.381 . S
C226 C227 1.394 . S
C226 H234 0.930 . S
C227 C226 1.394 . S
C227 C228 1.383 . S
C227 H235 0.929 . S
C228 C227 1.383 . S
C228 C229 1.377 . S
C229 H213 0.930 . S
C229 C228 1.377 . S
C229 C230 1.379 . S
C230 H214 0.931 . S
C230 C224 1.383 . S
C230 C229 1.379 . S
H231 C225 0.959 1_545 S
H232 C225 0.961 . S
H233 C225 0.960 . S
H234 C226 0.930 . S
H235 C227 0.929 . S
H236 C244 0.929 . S
H237 C246 0.930 . S
H238 C248 0.930 . S
H239 C251 0.929 . S
H240 C254 0.930 . S
H241 C256 0.960 . S
H242 C256 0.960 . S
H243 C256 0.960 . S
C244 H236 0.929 . S
C244 C245 1.377 . S
C244 C246 1.384 . S
C245 C244 1.377 . S
C245 C251 1.390 . S
C246 H237 0.930 . S
C246 C244 1.384 . S
C246 C247 1.372 . S
C247 C246 1.372 . S
C247 C248 1.400 . S
C247 C252 1.490 . S
C248 H238 0.930 . S
C248 C247 1.400 . S
C248 C251 1.386 . S
H249 C265 0.930 . S
H250 C266 0.931 . S
C251 H239 0.929 . S
C251 C245 1.390 . S
C251 C248 1.386 . S
C252 C247 1.490 . S
C252 C254 1.395 . S
C252 C255 1.403 . S
H253 C259 0.930 . S
C254 H240 0.930 . S
C254 C252 1.395 . S
C254 C257 1.403 . S
C255 C252 1.403 . S
C255 C256 1.524 . S
C255 C259 1.400 . S
C256 H241 0.960 . S
C256 H242 0.960 . S
C256 H243 0.960 . S
C256 C255 1.524 . S
C257 C254 1.403 . S
C257 C258 1.392 . S
C257 C261 1.495 . S
C258 C257 1.392 . S
C258 C259 1.385 . S
C258 C260 1.478 . S
C259 H253 0.930 . S
C259 C255 1.400 . S
C259 C258 1.385 . S
C260 C258 1.478 . S
C260 C262 1.381 . S
C260 C266 1.383 . S
C261 C257 1.495 . S
C261 H267 0.959 . S
C261 H268 0.961 . S
C261 H269 0.960 . S
C262 C260 1.381 . S
C262 C263 1.394 . S
C262 H270 0.930 . S
C263 C262 1.394 . S
C263 C264 1.383 . S
C263 H271 0.929 . S
C264 C263 1.383 . S
C264 C265 1.377 . S
C265 H249 0.930 . S
C265 C264 1.377 . S
C265 C266 1.379 . S
C266 H250 0.931 . S
C266 C260 1.383 . S
C266 C265 1.379 . S
H267 C261 0.959 . S
H268 C261 0.961 . S
H269 C261 0.960 . S
H270 C262 0.930 . S
H271 C263 0.929 . S
H272 C280 0.929 . S
H273 C282 0.930 . S
H274 C284 0.943 . S
H275 C287 0.929 . S
H276 C290 0.930 . S
H277 C292 0.960 . S
H278 C292 0.960 . S
H279 C292 0.960 . S
C280 H272 0.929 . S
C280 C281 1.377 . S
C280 C282 1.384 . S
C281 C280 1.377 . S
C281 C287 1.390 . S
C282 H273 0.930 . S
C282 C280 1.384 . S
C282 C283 1.372 . S
C283 C282 1.372 . S
C283 C284 1.400 . S
C283 C288 1.490 . S
C284 H274 0.943 . S
C284 C283 1.400 . S
C284 C287 1.386 . S
H285 C301 0.930 . S
H286 C302 0.931 . S
C287 H275 0.929 . S
C287 C281 1.390 . S
C287 C284 1.386 . S
C288 C283 1.490 . S
C288 C290 1.395 . S
C288 C291 1.403 1_554 S
H289 C295 0.930 1_655 S
C290 H276 0.930 . S
C290 C288 1.395 . S
C290 C293 1.403 1_455 S
C291 C288 1.403 1_556 S
C291 C292 1.524 . S
C291 C295 1.400 . S
C292 H277 0.960 . S
C292 H278 0.960 . S
C292 H279 0.960 . S
C292 C291 1.524 . S
C293 C290 1.403 1_655 S
C293 C294 1.421 . S
C293 C297 1.495 . S
C294 C293 1.421 . S
C294 C295 1.364 1_654 S
C294 C296 1.469 1_554 S
C295 H289 0.930 1_455 S
C295 C291 1.400 . S
C295 C294 1.364 1_456 S
C296 C294 1.469 1_556 S
C296 C298 1.381 . S
C296 C302 1.383 . S
C297 C293 1.495 . S
C297 H303 0.959 . S
C297 H304 0.961 . S
C297 H305 0.960 . S
C298 C296 1.381 . S
C298 C299 1.394 . S
C298 H306 0.930 1_556 S
C299 C298 1.394 . S
C299 C300 1.383 . S
C299 H307 0.929 . S
C300 C299 1.383 . S
C300 C301 1.377 . S
C301 H285 0.930 . S
C301 C300 1.377 . S
C301 C302 1.379 . S
C302 H286 0.931 . S
C302 C296 1.383 . S
C302 C301 1.379 . S
H303 C297 0.959 . S
H304 C297 0.961 . S
H305 C297 0.960 . S
H306 C298 0.930 1_554 S
H307 C299 0.929 . S
H308 C316 0.929 . S
H309 C318 0.930 . S
H310 C320 0.930 . S
H311 C323 0.929 . S
H312 C326 0.930 . S
H313 C328 0.960 1_565 S
H314 C328 0.960 . S
H315 C328 0.960 . S
C316 H308 0.929 . S
C316 C317 1.377 . S
C316 C318 1.384 . S
C317 C316 1.377 . S
C317 C323 1.390 . S
C318 H309 0.930 . S
C318 C316 1.384 . S
C318 C319 1.372 . S
C319 C318 1.372 . S
C319 C320 1.400 . S
C319 C324 1.490 . S
C320 H310 0.930 . S
C320 C319 1.400 . S
C320 C323 1.386 . S
H321 C337 0.930 . S
H322 C338 0.931 . S
C323 H311 0.929 . S
C323 C317 1.390 . S
C323 C320 1.386 . S
C324 C319 1.490 . S
C324 C326 1.395 . S
C324 C327 1.403 . S
H325 C331 0.930 . S
C326 H312 0.930 . S
C326 C324 1.395 . S
C326 C329 1.403 1_545 S
C327 C324 1.403 . S
C327 C328 1.524 . S
C327 C331 1.400 1_545 S
C328 H313 0.960 1_545 S
C328 H314 0.960 . S
C328 H315 0.960 . S
C328 C327 1.524 . S
C329 C326 1.403 1_565 S
C329 C330 1.392 . S
C329 C333 1.495 . S
C330 C329 1.392 . S
C330 C331 1.385 . S
C330 C332 1.478 . S
C331 H325 0.930 . S
C331 C327 1.400 1_565 S
C331 C330 1.385 . S
C332 C330 1.478 . S
C332 C334 1.381 . S
C332 C338 1.383 . S
C333 C329 1.495 . S
C333 H339 0.959 1_565 S
C333 H340 0.961 . S
C333 H341 0.960 . S
C334 C332 1.381 . S
C334 C335 1.394 . S
C334 H342 0.930 . S
C335 C334 1.394 . S
C335 C336 1.383 . S
C335 H343 0.929 . S
C336 C335 1.383 . S
C336 C337 1.377 . S
C337 H321 0.930 . S
C337 C336 1.377 . S
C337 C338 1.379 . S
C338 H322 0.931 . S
C338 C332 1.383 . S
C338 C337 1.379 . S
H339 C333 0.959 1_545 S
H340 C333 0.961 . S
H341 C333 0.960 . S
H342 C334 0.930 . S
H343 C335 0.929 . S
C65 C12 1.502 . S
C84 C40 1.499 . S
C101 C26 1.502 . S
C120 C54 1.499 . S
C137 C5 1.331 . S
C156 C46 1.568 . S
C173 C39 1.374 . S
C192 C19 1.082 . S
C209 C53 1.251 . S
C228 C11 1.245 . S
C245 C25 1.369 . S
C264 C33 1.188 . S
C281 C4 1.582 . S
C300 C47 1.361 . S
C317 C18 1.698 . S
C336 C32 1.685 . S
