# Generated by pormake.
# Topology wmc, (6)-cn, num edge types: 1
# Building blocks:
#     Node 0, Type 0, BuildingBlock: MIDCAF_clean_sbu_0, # of connection points: 6
#     Node 1, Type 0, BuildingBlock: MIDCAF_clean_sbu_0, # of connection points: 6
#     Node 2, Type 0, BuildingBlock: MIDCAF_clean_sbu_0, # of connection points: 6
#     Node 3, Type 0, BuildingBlock: MIDCAF_clean_sbu_0, # of connection points: 6
#     Node 4, Type 0, BuildingBlock: MIDCAF_clean_sbu_0, # of connection points: 6
#     Node 5, Type 0, BuildingBlock: MIDCAF_clean_sbu_0, # of connection points: 6
#     Node 6, Type 0, BuildingBlock: MIDCAF_clean_sbu_0, # of connection points: 6
#     Node 7, Type 0, BuildingBlock: MIDCAF_clean_sbu_0, # of connection points: 6
#     Node 8, Type 0, BuildingBlock: MIDCAF_clean_sbu_0, # of connection points: 6
#     Node 9, Type 0, BuildingBlock: MIDCAF_clean_sbu_0, # of connection points: 6
#     Node 10, Type 0, BuildingBlock: MIDCAF_clean_sbu_0, # of connection points: 6
#     Node 11, Type 0, BuildingBlock: MIDCAF_clean_sbu_0, # of connection points: 6
#     Node 12, Type 0, BuildingBlock: MIDCAF_clean_sbu_0, # of connection points: 6
#     Node 13, Type 0, BuildingBlock: MIDCAF_clean_sbu_0, # of connection points: 6
#     Node 14, Type 0, BuildingBlock: MIDCAF_clean_sbu_0, # of connection points: 6
#     Node 15, Type 0, BuildingBlock: MIDCAF_clean_sbu_0, # of connection points: 6
#     Node 16, Type 0, BuildingBlock: MIDCAF_clean_sbu_0, # of connection points: 6
#     Node 17, Type 0, BuildingBlock: MIDCAF_clean_sbu_0, # of connection points: 6
#     Edge 18, Type (0, 0), BuildingBlock: AJUNOK_clean_linker_0, # of connection points: 2
#     Edge 19, Type (0, 0), BuildingBlock: AJUNOK_clean_linker_0, # of connection points: 2
#     Edge 20, Type (0, 0), BuildingBlock: AJUNOK_clean_linker_0, # of connection points: 2
#     Edge 21, Type (0, 0), BuildingBlock: AJUNOK_clean_linker_0, # of connection points: 2
#     Edge 22, Type (0, 0), BuildingBlock: AJUNOK_clean_linker_0, # of connection points: 2
#     Edge 23, Type (0, 0), BuildingBlock: AJUNOK_clean_linker_0, # of connection points: 2
#     Edge 24, Type (0, 0), BuildingBlock: AJUNOK_clean_linker_0, # of connection points: 2
#     Edge 25, Type (0, 0), BuildingBlock: AJUNOK_clean_linker_0, # of connection points: 2
#     Edge 26, Type (0, 0), BuildingBlock: AJUNOK_clean_linker_0, # of connection points: 2
#     Edge 27, Type (0, 0), BuildingBlock: AJUNOK_clean_linker_0, # of connection points: 2
#     Edge 28, Type (0, 0), BuildingBlock: AJUNOK_clean_linker_0, # of connection points: 2
#     Edge 29, Type (0, 0), BuildingBlock: AJUNOK_clean_linker_0, # of connection points: 2
#     Edge 30, Type (0, 0), BuildingBlock: AJUNOK_clean_linker_0, # of connection points: 2
#     Edge 31, Type (0, 0), BuildingBlock: AJUNOK_clean_linker_0, # of connection points: 2
#     Edge 32, Type (0, 0), BuildingBlock: AJUNOK_clean_linker_0, # of connection points: 2
#     Edge 33, Type (0, 0), BuildingBlock: AJUNOK_clean_linker_0, # of connection points: 2
#     Edge 34, Type (0, 0), BuildingBlock: AJUNOK_clean_linker_0, # of connection points: 2
#     Edge 35, Type (0, 0), BuildingBlock: AJUNOK_clean_linker_0, # of connection points: 2
#     Edge 36, Type (0, 0), BuildingBlock: AJUNOK_clean_linker_0, # of connection points: 2
#     Edge 37, Type (0, 0), BuildingBlock: AJUNOK_clean_linker_0, # of connection points: 2
#     Edge 38, Type (0, 0), BuildingBlock: AJUNOK_clean_linker_0, # of connection points: 2
#     Edge 39, Type (0, 0), BuildingBlock: AJUNOK_clean_linker_0, # of connection points: 2
#     Edge 40, Type (0, 0), BuildingBlock: AJUNOK_clean_linker_0, # of connection points: 2
#     Edge 41, Type (0, 0), BuildingBlock: AJUNOK_clean_linker_0, # of connection points: 2
#     Edge 42, Type (0, 0), BuildingBlock: AJUNOK_clean_linker_0, # of connection points: 2
#     Edge 43, Type (0, 0), BuildingBlock: AJUNOK_clean_linker_0, # of connection points: 2
#     Edge 44, Type (0, 0), BuildingBlock: AJUNOK_clean_linker_0, # of connection points: 2
#     Edge 45, Type (0, 0), BuildingBlock: AJUNOK_clean_linker_0, # of connection points: 2
#     Edge 46, Type (0, 0), BuildingBlock: AJUNOK_clean_linker_0, # of connection points: 2
#     Edge 47, Type (0, 0), BuildingBlock: AJUNOK_clean_linker_0, # of connection points: 2
#     Edge 48, Type (0, 0), BuildingBlock: AJUNOK_clean_linker_0, # of connection points: 2
#     Edge 49, Type (0, 0), BuildingBlock: AJUNOK_clean_linker_0, # of connection points: 2
#     Edge 50, Type (0, 0), BuildingBlock: AJUNOK_clean_linker_0, # of connection points: 2
#     Edge 51, Type (0, 0), BuildingBlock: AJUNOK_clean_linker_0, # of connection points: 2
#     Edge 52, Type (0, 0), BuildingBlock: AJUNOK_clean_linker_0, # of connection points: 2
#     Edge 53, Type (0, 0), BuildingBlock: AJUNOK_clean_linker_0, # of connection points: 2
#     Edge 54, Type (0, 0), BuildingBlock: AJUNOK_clean_linker_0, # of connection points: 2
#     Edge 55, Type (0, 0), BuildingBlock: AJUNOK_clean_linker_0, # of connection points: 2
#     Edge 56, Type (0, 0), BuildingBlock: AJUNOK_clean_linker_0, # of connection points: 2
#     Edge 57, Type (0, 0), BuildingBlock: AJUNOK_clean_linker_0, # of connection points: 2
#     Edge 58, Type (0, 0), BuildingBlock: AJUNOK_clean_linker_0, # of connection points: 2
#     Edge 59, Type (0, 0), BuildingBlock: AJUNOK_clean_linker_0, # of connection points: 2
#     Edge 60, Type (0, 0), BuildingBlock: AJUNOK_clean_linker_0, # of connection points: 2
#     Edge 61, Type (0, 0), BuildingBlock: AJUNOK_clean_linker_0, # of connection points: 2
#     Edge 62, Type (0, 0), BuildingBlock: AJUNOK_clean_linker_0, # of connection points: 2
#     Edge 63, Type (0, 0), BuildingBlock: AJUNOK_clean_linker_0, # of connection points: 2
#     Edge 64, Type (0, 0), BuildingBlock: AJUNOK_clean_linker_0, # of connection points: 2
#     Edge 65, Type (0, 0), BuildingBlock: AJUNOK_clean_linker_0, # of connection points: 2
#     Edge 66, Type (0, 0), BuildingBlock: AJUNOK_clean_linker_0, # of connection points: 2
#     Edge 67, Type (0, 0), BuildingBlock: AJUNOK_clean_linker_0, # of connection points: 2
#     Edge 68, Type (0, 0), BuildingBlock: AJUNOK_clean_linker_0, # of connection points: 2
#     Edge 69, Type (0, 0), BuildingBlock: AJUNOK_clean_linker_0, # of connection points: 2
#     Edge 70, Type (0, 0), BuildingBlock: AJUNOK_clean_linker_0, # of connection points: 2
#     Edge 71, Type (0, 0), BuildingBlock: AJUNOK_clean_linker_0, # of connection points: 2
# Relax obj value: 0.257
# Max RMSD: 0.170
# Mean RMSD: 0.170
data_MOF--net-wmc--node1-MIDCAF_clean_sbu_0--edge1-AJUNOK_clean_linker_0
_symmetry_space_group_name_H-M    P1
_symmetry_Int_Tables_number       1
_symmetry_cell_setting            triclinic
loop_
_symmetry_equiv_pos_as_xyz
'x, y, z'
_cell_length_a     34.342264
_cell_length_b     34.419227
_cell_length_c     21.852963
_cell_angle_alpha  89.875429
_cell_angle_beta   90.113094
_cell_angle_gamma 120.12888
loop_
_atom_site_label
_atom_site_type_symbol
_atom_site_fract_x
_atom_site_fract_y
_atom_site_fract_z
_atom_type_partial_charge
Zn0 Zn 0.62953 0.18351 0.94972 0.0
Zn1 Zn 0.61395 0.05527 0.05712 0.0
Zn2 Zn 0.61807 0.12372 0.00863 0.0
C3 C 0.57579 0.09411 0.13569 0.0
C4 C 0.70294 0.11224 0.05482 0.0
O5 O 0.59502 0.10521 0.91307 0.0
O6 O 0.64458 0.16813 0.86836 0.0
C7 C 0.55701 0.16482 0.01719 0.0
O8 O 0.5802 0.11845 0.08893 0.0
O9 O 0.58957 0.06628 0.13407 0.0
O10 O 0.6778 0.07039 0.06187 0.0
O11 O 0.68609 0.13623 0.03599 0.0
O12 O 0.56717 0.17271 0.96133 0.0
O13 O 0.5786 0.15114 0.05075 0.0
O14 O 0.69011 0.17653 0.01685 0.0
O15 O 0.67717 0.23204 2e-05 0.0
C16 C 0.70268 0.21857 0.02035 0.0
O17 O 0.57396 0.06502 0.94981 0.0
O18 O 0.56819 0.00814 0.0036 0.0
C19 C 0.61337 0.12783 0.86392 0.0
C20 C 0.55462 0.02232 0.95987 0.0
Zn21 Zn 0.81114 0.43567 0.94855 0.0
Zn22 Zn 0.94625 0.55725 0.03878 0.0
Zn23 Zn 0.87071 0.48649 0.00656 0.0
C24 C 0.90829 0.48759 0.13216 0.0
C25 C 0.8838 0.58527 0.02439 0.0
O26 O 0.88675 0.48004 0.91081 0.0
O27 O 0.82317 0.46221 0.86371 0.0
C28 C 0.83653 0.38807 0.02189 0.0
O29 O 0.88262 0.46212 0.0896 0.0
O30 O 0.9341 0.52927 0.12311 0.0
O31 O 0.92611 0.60225 0.0217 0.0
O32 O 0.85804 0.54223 0.02342 0.0
O33 O 0.82981 0.39015 0.96544 0.0
O34 O 0.84723 0.42275 0.05532 0.0
O35 O 0.81602 0.50271 0.01541 0.0
O36 O 0.76247 0.43285 0.00096 0.0
C37 C 0.77453 0.47162 0.02082 0.0
O38 O 0.92494 0.49501 0.94529 0.0
O39 O 0.98859 0.54696 0.98698 0.0
C40 C 0.86435 0.47391 0.86094 0.0
C41 C 0.9682 0.51544 0.94906 0.0
Zn42 Zn 0.56447 0.37496 0.95084 0.0
Zn43 Zn 0.43302 0.38475 0.02623 0.0
Zn44 Zn 0.50868 0.38104 -0.00251 0.0
C45 C 0.50547 0.42577 0.1184 0.0
C46 C 0.4116 0.29383 0.02111 0.0
O47 O 0.52062 0.40145 0.90039 0.0
O48 O 0.54342 0.35647 0.86443 0.0
C49 C 0.60729 0.44699 0.02087 0.0
O50 O 0.5295 0.42032 0.07835 0.0
O51 O 0.46384 0.41093 0.10898 0.0
O52 O 0.39193 0.31663 0.01888 0.0
O53 O 0.45468 0.31329 0.01671 0.0
O54 O 0.60749 0.44026 0.96424 0.0
O55 O 0.57074 0.42217 0.05074 0.0
O56 O 0.49449 0.31139 0.00908 0.0
O57 O 0.56623 0.33202 0.01024 0.0
C58 C 0.52606 0.30297 0.02226 0.0
O59 O 0.49781 0.42031 0.92834 0.0
O60 O 0.44174 0.42972 0.95893 0.0
C61 C 0.53068 0.38453 0.85474 0.0
C62 C 0.47396 0.43941 0.9225 0.0
Zn63 Zn 0.79953 0.37011 0.46651 0.0
Zn64 Zn 0.9484 0.38994 0.54653 0.0
Zn65 Zn 0.87334 0.38745 0.50783 0.0
C66 C 0.91519 0.43291 0.6295 0.0
C67 C 0.88234 0.30111 0.54569 0.0
O68 O 0.88471 0.40651 0.41095 0.0
O69 O 0.8195 0.40073 0.38678 0.0
C70 C 0.81891 0.43458 0.55261 0.0
O71 O 0.89096 0.43149 0.58404 0.0
O72 O 0.93909 0.41447 0.62586 0.0
O73 O 0.92475 0.32335 0.54061 0.0
O74 O 0.85914 0.32085 0.53948 0.0
O75 O 0.78435 0.40125 0.53055 0.0
O76 O 0.85696 0.43599 0.54916 0.0
O77 O 0.81697 0.3161 0.52488 0.0
O78 O 0.76079 0.30523 0.46451 0.0
C79 C 0.77696 0.29033 0.50356 0.0
O80 O 0.92663 0.42137 0.43754 0.0
O81 O 0.989 0.43554 0.48521 0.0
C82 C 0.85912 0.41128 0.37233 0.0
C83 C 0.96995 0.44289 0.44084 0.0
Zn84 Zn 0.61326 0.5563 0.54557 0.0
Zn85 Zn 0.63561 0.44138 0.42378 0.0
Zn86 Zn 0.61933 0.48978 0.4932 0.0
C87 C 0.71546 0.49397 0.48067 0.0
C88 C 0.56974 0.3872 0.51418 0.0
O89 O 0.57584 0.50534 0.43722 0.0
O90 O 0.56574 0.55386 0.49102 0.0
C91 C 0.70339 0.5889 0.53193 0.0
O92 O 0.6921 0.51169 0.49842 0.0
O93 O 0.6978 0.45971 0.44684 0.0
O94 O 0.58528 0.38598 0.46226 0.0
O95 O 0.5824 0.42504 0.54041 0.0
O96 O 0.67763 0.60437 0.54272 0.0
O97 O 0.68683 0.54755 0.51571 0.0
O98 O 0.58354 0.45909 0.57674 0.0
O99 O 0.59229 0.52019 0.62294 0.0
C100 C 0.57961 0.47875 0.62421 0.0
O101 O 0.59021 0.4825 0.39928 0.0
O102 O 0.62499 0.45676 0.34141 0.0
C103 C 0.55551 0.52772 0.44583 0.0
C104 C 0.59816 0.47146 0.34635 0.0
Zn105 Zn 0.44236 0.04973 0.55333 0.0
Zn106 Zn 0.557 0.18234 0.45305 0.0
Zn107 Zn 0.50692 0.12175 0.50758 0.0
C108 C 0.52069 0.21587 0.53006 0.0
C109 C 0.60865 0.16015 0.51747 0.0
O110 O 0.49385 0.06689 0.44298 0.0
O111 O 0.44805 0.00718 0.49734 0.0
C112 C 0.40842 0.10659 0.53732 0.0
O113 O 0.48915 0.17511 0.52054 0.0
O114 O 0.55975 0.22809 0.51095 0.0
O115 O 0.60601 0.16776 0.46158 0.0
O116 O 0.57374 0.14756 0.55155 0.0
O117 O 0.39377 0.06519 0.54576 0.0
O118 O 0.45055 0.13345 0.52664 0.0
O119 O 0.53802 0.11375 0.58822 0.0
O120 O 0.4756 0.06254 0.6334 0.0
C121 C 0.5176 0.08967 0.63499 0.0
O122 O 0.51272 0.10745 0.41179 0.0
O123 O 0.52774 0.17193 0.37044 0.0
C124 C 0.47325 0.02407 0.45129 0.0
C125 C 0.51818 0.13164 0.364 0.0
Zn126 Zn 0.29648 0.51964 0.29093 0.0
Zn127 Zn 0.28078 0.393 0.39551 0.0
Zn128 Zn 0.28764 0.46202 0.34534 0.0
C129 C 0.25766 0.44223 0.48072 0.0
C130 C 0.37086 0.44705 0.3681 0.0
O131 O 0.2673 0.44442 0.24729 0.0
O132 O 0.31939 0.50976 0.21207 0.0
C133 C 0.22276 0.49659 0.35164 0.0
O134 O 0.25489 0.46137 0.4316 0.0
O135 O 0.27074 0.41384 0.47738 0.0
O136 O 0.34377 0.40583 0.3781 0.0
O137 O 0.3558 0.47413 0.35989 0.0
O138 O 0.23071 0.49903 0.29504 0.0
O139 O 0.24752 0.48843 0.38777 0.0
O140 O 0.35903 0.51544 0.35234 0.0
O141 O 0.33808 0.56596 0.35072 0.0
C142 C 0.36728 0.55544 0.36444 0.0
O143 O 0.24299 0.4075 0.28481 0.0
O144 O 0.22636 0.35031 0.34613 0.0
C145 C 0.28937 0.46962 0.2015 0.0
C146 C 0.21779 0.36576 0.29863 0.0
Zn147 Zn 0.48063 0.77456 0.27583 0.0
Zn148 Zn 0.61424 0.8926 0.37357 0.0
Zn149 Zn 0.54176 0.82627 0.32512 0.0
C150 C 0.57757 0.81896 0.45614 0.0
C151 C 0.5548 0.9245 0.35727 0.0
O152 O 0.5561 0.81259 0.23073 0.0
O153 O 0.49162 0.79879 0.1905 0.0
C154 C 0.5015 0.72573 0.3482 0.0
O155 O 0.54927 0.80028 0.41221 0.0
O156 O 0.60891 0.85938 0.45216 0.0
O157 O 0.59519 0.93894 0.37305 0.0
O158 O 0.5302 0.88349 0.33965 0.0
O159 O 0.49356 0.72509 0.29174 0.0
O160 O 0.51504 0.7627 0.3777 0.0
O161 O 0.48888 0.84609 0.32458 0.0
O162 O 0.43343 0.77616 0.3266 0.0
C163 C 0.44703 0.8173 0.33415 0.0
O164 O 0.59784 0.8366 0.26433 0.0
O165 O 0.65613 0.89119 0.31226 0.0
C166 C 0.53097 0.80554 0.18327 0.0
C167 C 0.64083 0.86177 0.27066 0.0
Zn168 Zn 0.22091 0.70213 0.26421 0.0
Zn169 Zn 0.11104 0.71814 0.37202 0.0
Zn170 Zn 0.17228 0.71249 0.31657 0.0
C171 C 0.1892 0.75416 0.44662 0.0
C172 C 0.07514 0.62701 0.35533 0.0
O173 O 0.17262 0.7301 0.21886 0.0
O174 O 0.18515 0.67674 0.18795 0.0
C175 C 0.27451 0.77943 0.31619 0.0
O176 O 0.20691 0.75023 0.39697 0.0
O177 O 0.14747 0.74032 0.4493 0.0
O178 O 0.06138 0.65384 0.36851 0.0
O179 O 0.11641 0.64278 0.3386 0.0
O180 O 0.26848 0.7668 0.26117 0.0
O181 O 0.24193 0.75712 0.35421 0.0
O182 O 0.15558 0.64165 0.32912 0.0
O183 O 0.22727 0.66252 0.3259 0.0
C184 C 0.18773 0.63382 0.34142 0.0
O185 O 0.15784 0.75478 0.2548 0.0
O186 O 0.11439 0.76596 0.31752 0.0
C187 C 0.17513 0.70645 0.17497 0.0
C188 C 0.1379 0.77673 0.26943 0.0
Zn189 Zn 0.48999 0.68194 0.7548 0.0
Zn190 Zn 0.6097 0.71276 0.87532 0.0
Zn191 Zn 0.54502 0.70698 0.82209 0.0
C192 C 0.55821 0.73721 0.95585 0.0
C193 C 0.55381 0.62193 0.8381 0.0
O194 O 0.56424 0.73874 0.73025 0.0
O195 O 0.51921 0.67775 0.67819 0.0
C196 C 0.49627 0.75714 0.8194 0.0
O197 O 0.53409 0.73101 0.90788 0.0
O198 O 0.59058 0.72945 0.95449 0.0
O199 O 0.59202 0.64772 0.86171 0.0
O200 O 0.53041 0.63871 0.81887 0.0
O201 O 0.49018 0.74216 0.76529 0.0
O202 O 0.50711 0.73728 0.86054 0.0
O203 O 0.48207 0.68593 0.8754 0.0
O204 O 0.44853 0.63077 0.80928 0.0
C205 C 0.44869 0.64702 0.86125 0.0
O206 O 0.60068 0.76353 0.77587 0.0
O207 O 0.65708 0.76458 0.82513 0.0
C208 C 0.55095 0.71819 0.67868 0.0
C209 C 0.64317 0.78182 0.78569 0.0
Zn210 Zn 0.27696 0.8848 0.87944 0.0
Zn211 Zn 0.30966 0.77028 0.77934 0.0
Zn212 Zn 0.2897 0.81841 0.82538 0.0
C213 C 0.38925 0.82854 0.80843 0.0
C214 C 0.25344 0.71813 0.8654 0.0
O215 O 0.25334 0.83619 0.75999 0.0
O216 O 0.23492 0.88003 0.8114 0.0
C217 C 0.36986 0.91231 0.87728 0.0
O218 O 0.36266 0.83711 0.83984 0.0
O219 O 0.37392 0.80314 0.76278 0.0
O220 O 0.28846 0.72187 0.84129 0.0
O221 O 0.24661 0.75149 0.86355 0.0
O222 O 0.3448 0.92939 0.88194 0.0
O223 O 0.3534 0.87124 0.86063 0.0
O224 O 0.24437 0.78549 0.9 0.0
O225 O 0.24549 0.84172 0.95077 0.0
C226 C 0.23289 0.80032 0.94625 0.0
O227 O 0.27257 0.81504 0.72551 0.0
O228 O 0.27608 0.75463 0.70373 0.0
C229 C 0.22985 0.85566 0.76542 0.0
C230 C 0.26868 0.78522 0.6865 0.0
Zn231 Zn 0.11492 0.37859 0.8947 0.0
Zn232 Zn 0.26897 0.59267 0.74424 0.0
Zn233 Zn 0.17391 0.45648 0.8458 0.0
C234 C 0.17406 0.53978 0.8164 0.0
C235 C 0.26452 0.53422 0.86298 0.0
O236 O 0.16799 0.40725 0.77986 0.0
O237 O 0.12419 0.34304 0.82691 0.0
C238 C 0.07467 0.43433 0.88256 0.0
O239 O 0.14889 0.50252 0.84335 0.0
O240 O 0.20697 0.54265 0.78535 0.0
O241 O 0.24979 0.54181 0.81325 0.0
O242 O 0.23866 0.49723 0.89078 0.0
O243 O 0.06436 0.39449 0.8966 0.0
O244 O 0.11465 0.46194 0.86381 0.0
O245 O 0.21002 0.4565 0.92572 0.0
O246 O 0.15718 0.39362 0.96837 0.0
C247 C 0.19638 0.42792 0.9697 0.0
O248 O 0.19068 0.44823 0.75289 0.0
O249 O 0.22883 0.52124 0.74657 0.0
C250 C 0.14949 0.36439 0.7823 0.0
C251 C 0.21531 0.48317 0.7208 0.0
Zn252 Zn 0.98837 0.8376 0.57677 0.0
Zn253 Zn 0.95157 0.72203 0.71264 0.0
Zn254 Zn 0.96271 0.79049 0.65449 0.0
C255 C 0.92223 0.77472 0.78416 0.0
C256 C 0.04578 0.77941 0.68351 0.0
O257 O 0.93026 0.76527 0.56191 0.0
O258 O 0.98961 0.80368 0.50344 0.0
C259 C 0.91754 0.84334 0.64095 0.0
O260 O 0.93478 0.80076 0.73732 0.0
O261 O 0.92728 0.74066 0.78512 0.0
O262 O 0.01882 0.74166 0.70755 0.0
O263 O 0.02996 0.80238 0.65962 0.0
O264 O 0.92981 0.84258 0.58637 0.0
O265 O 0.93687 0.83342 0.68402 0.0
O266 O 0.99214 0.86133 0.68786 0.0
O267 O 0.04365 0.88638 0.61611 0.0
C268 C 0.02944 0.89298 0.66609 0.0
O269 O 0.90578 0.73331 0.61125 0.0
O270 O 0.90159 0.67479 0.65963 0.0
C271 C 0.9487 0.77352 0.5085 0.0
C272 C 0.88628 0.69068 0.62024 0.0
Zn273 Zn 0.15897 0.16327 0.58865 0.0
Zn274 Zn 0.28354 0.22879 0.70869 0.0
Zn275 Zn 0.21208 0.17713 0.65694 0.0
C276 C 0.22274 0.15212 0.78613 0.0
C277 C 0.24054 0.27752 0.68126 0.0
O278 O 0.22395 0.1563 0.56698 0.0
O279 O 0.19398 0.18741 0.51038 0.0
C280 C 0.13239 0.08241 0.65279 0.0
O281 O 0.19487 0.1399 0.74126 0.0
O282 O 0.26065 0.18788 0.78297 0.0
O283 O 0.27571 0.28303 0.7079 0.0
O284 O 0.21483 0.24037 0.65492 0.0
O285 O 0.13082 0.09523 0.59894 0.0
O286 O 0.15761 0.11231 0.69254 0.0
O287 O 0.14956 0.15346 0.71125 0.0
O288 O 0.12986 0.18823 0.64388 0.0
C289 C 0.12489 0.17056 0.69651 0.0
O290 O 0.26118 0.16449 0.61419 0.0
O291 O 0.32462 0.21954 0.65218 0.0
C292 C 0.21631 0.16724 0.51386 0.0
C293 C 0.30427 0.18574 0.61757 0.0
Zn294 Zn 0.96348 0.07087 0.60145 0.0
Zn295 Zn 0.77885 0.05623 0.72884 0.0
Zn296 Zn 0.84675 0.05543 0.68076 0.0
C297 C 0.85236 0.09375 0.81275 0.0
C298 C 0.7601 0.96529 0.70643 0.0
O299 O 0.84521 0.07294 0.58597 0.0
O300 O 0.90548 0.07044 0.59651 0.0
C301 C 0.94619 0.11676 0.69884 0.0
O302 O 0.87312 0.09101 0.76567 0.0
O303 O 0.81026 0.07836 0.81077 0.0
O304 O 0.74108 0.98849 0.71353 0.0
O305 O 0.80262 0.98486 0.69676 0.0
O306 O 0.94304 0.11221 0.64126 0.0
O307 O 0.90979 0.09669 0.72987 0.0
O308 O 0.8485 0.99249 0.66908 0.0
O309 O 0.91577 0.00684 0.62943 0.0
C310 C 0.87664 0.98014 0.65127 0.0
O311 O 0.82963 0.09664 0.61941 0.0
O312 O 0.78112 0.10531 0.67466 0.0
C313 C 0.87738 0.07107 0.5601 0.0
C314 C 0.80765 0.1172 0.62946 0.0
Zn315 Zn 0.27125 0.04926 0.20414 0.0
Zn316 Zn 0.14486 0.0463 0.10816 0.0
Zn317 Zn 0.20447 0.05237 0.15906 0.0
C318 C 0.1078 0.9736 0.17572 0.0
C319 C 0.17179 0.11936 0.17496 0.0
O320 O 0.25913 0.09248 0.09504 0.0
O321 O 0.31555 0.0963 0.148 0.0
C322 C 0.21026 0.96122 0.18867 0.0
O323 O 0.14854 0.98289 0.16577 0.0
O324 O 0.09682 0.00267 0.16393 0.0
O325 O 0.16494 0.11135 0.11848 0.0
O326 O 0.18253 0.09469 0.20709 0.0
O327 O 0.25249 0.98408 0.19472 0.0
O328 O 0.18763 0.98134 0.17868 0.0
O329 O 0.21654 0.09067 0.24229 0.0
O330 O 0.26303 0.07223 0.28602 0.0
C331 C 0.23979 0.09142 0.2888 0.0
O332 O 0.21842 0.07582 0.06176 0.0
O333 O 0.15198 0.02728 0.02438 0.0
C334 C 0.30173 0.11031 0.10428 0.0
C335 C 0.19227 0.05747 0.01524 0.0
Zn336 Zn 0.95465 0.06874 0.10742 0.0
Zn337 Zn 0.94804 0.22274 0.24958 0.0
Zn338 Zn 0.9472 0.16169 0.18482 0.0
C339 C 0.92047 0.14306 0.31877 0.0
C340 C 0.03528 0.25344 0.21447 0.0
O341 O 0.92563 0.16771 0.09215 0.0
O342 O 0.9397 0.1142 0.07457 0.0
C343 C 0.8874 0.06218 0.1813 0.0
O344 O 0.91133 0.12515 0.26548 0.0
O345 O 0.94214 0.18536 0.3245 0.0
O346 O 0.01045 0.27028 0.22376 0.0
O347 O 0.01722 0.21096 0.20515 0.0
O348 O 0.89801 0.07232 0.12605 0.0
O349 O 0.90574 0.09403 0.22035 0.0
O350 O 0.01561 0.17049 0.18387 0.0
O351 O 0.00973 0.10357 0.16074 0.0
C352 C 0.03139 0.14331 0.18224 0.0
O353 O 0.90856 0.18544 0.13283 0.0
O354 O 0.89053 0.21349 0.21101 0.0
C355 C 0.93029 0.14257 0.05348 0.0
C356 C 0.88281 0.19826 0.15706 0.0
Zn357 Zn 0.77599 0.72313 0.203 0.0
Zn358 Zn 0.90165 0.85065 0.11267 0.0
Zn359 Zn 0.84584 0.79288 0.15951 0.0
C360 C 0.87072 0.89081 0.18126 0.0
C361 C 0.94303 0.82075 0.17658 0.0
O362 O 0.83427 0.74246 0.09172 0.0
O363 O 0.7854 0.68314 0.14425 0.0
C364 C 0.7522 0.78912 0.18894 0.0
O365 O 0.83698 0.85192 0.16801 0.0
O366 O 0.91006 0.89788 0.17278 0.0
O367 O 0.93947 0.82161 0.11929 0.0
O368 O 0.90868 0.81321 0.20887 0.0
O369 O 0.73255 0.74668 0.19186 0.0
O370 O 0.79501 0.81198 0.18035 0.0
O371 O 0.86963 0.7751 0.24183 0.0
O372 O 0.80492 0.72817 0.28595 0.0
C373 C 0.84755 0.75019 0.28743 0.0
O374 O 0.85233 0.7817 0.0582 0.0
O375 O 0.87876 0.85166 0.02956 0.0
C376 C 0.81346 0.69976 0.10083 0.0
C377 C 0.86389 0.81117 0.01488 0.0
C378 C 0.55351 0.2192 0.08576 0.0
C379 C 0.53122 0.18426 0.04333 0.0
C380 C 0.54704 0.25627 0.08464 0.0
C381 C 0.51719 0.25849 0.04243 0.0
H382 H 0.58098 0.22141 0.11297 0.0
H383 H 0.56912 0.2854 0.11198 0.0
S384 S 0.43995 0.16826 0.93757 0.0
N385 N 0.47027 0.14866 0.96968 0.0
N386 N 0.45742 0.21808 0.9685 0.0
C387 C 0.48878 0.22008 0.00837 0.0
C388 C 0.4958 0.18266 0.00895 0.0
C389 C 0.78462 0.26643 0.0055 0.0
C390 C 0.74709 0.25262 0.04348 0.0
C391 C 0.82077 0.31062 0.00811 0.0
C392 C 0.81937 0.34254 0.04705 0.0
H393 H 0.78337 0.24531 0.96801 0.0
H394 H 0.84612 0.3216 0.97255 0.0
S395 S 0.73449 0.31888 0.16716 0.0
N396 N 0.71548 0.27065 0.13074 0.0
N397 N 0.78297 0.35424 0.13449 0.0
C398 C 0.786 0.3269 0.09236 0.0
C399 C 0.74944 0.28173 0.09018 0.0
C400 C 0.68692 0.50566 0.01658 0.0
C401 C 0.65203 0.47022 0.05006 0.0
C402 C 0.72963 0.50988 0.01254 0.0
C403 C 0.73909 0.47999 0.04395 0.0
H404 H 0.67912 0.52543 0.98555 0.0
H405 H 0.75339 0.53316 0.97945 0.0
S406 S 0.66411 0.39138 0.15311 0.0
N407 N 0.63318 0.41203 0.12635 0.0
N408 N 0.7139 0.42079 0.12019 0.0
C409 C 0.70711 0.44984 0.08585 0.0
C410 C 0.66354 0.44532 0.08952 0.0
C411 C 0.79328 0.50875 0.47148 0.0
C412 C 0.75899 0.50621 0.5091 0.0
C413 C 0.82337 0.49579 0.4936 0.0
C414 C 0.81735 0.47639 0.5521 0.0
H415 H 0.79328 0.51523 0.42292 0.0
H416 H 0.84522 0.49253 0.46085 0.0
S417 S 0.74335 0.47749 0.67384 0.0
N418 N 0.73036 0.49714 0.6128 0.0
N419 N 0.78361 0.46752 0.65214 0.0
C420 C 0.78888 0.48145 0.59303 0.0
C421 C 0.76006 0.49735 0.57165 0.0
C422 C 0.49044 0.26602 0.51188 0.0
C423 C 0.51251 0.25154 0.55189 0.0
C424 C 0.50364 0.31162 0.5079 0.0
C425 C 0.53948 0.34381 0.54354 0.0
H426 H 0.46867 0.24377 0.47659 0.0
H427 H 0.49057 0.32239 0.47038 0.0
S428 S 0.59764 0.3206 0.66863 0.0
N429 N 0.56349 0.27083 0.63833 0.0
N430 N 0.58868 0.35686 0.63035 0.0
C431 C 0.55574 0.32867 0.59134 0.0
C432 C 0.54215 0.28217 0.59553 0.0
C433 C 0.68529 0.17295 0.50496 0.0
C434 C 0.65439 0.17765 0.54209 0.0
C435 C 0.73004 0.20789 0.49986 0.0
C436 C 0.74515 0.24772 0.53306 0.0
H437 H 0.67319 0.14548 0.47256 0.0
H438 H 0.75086 0.20618 0.46396 0.0
S439 S 0.68116 0.27093 0.64915 0.0
N440 N 0.64461 0.22079 0.62214 0.0
N441 N 0.72916 0.28588 0.61386 0.0
C442 C 0.71702 0.24901 0.57863 0.0
C443 C 0.67129 0.21376 0.58322 0.0
C444 C 0.15518 0.55174 0.32944 0.0
C445 C 0.17995 0.59036 0.36506 0.0
C446 C 0.16333 0.51575 0.33353 0.0
C447 C 0.19715 0.51791 0.37253 0.0
H448 H 0.13418 0.55182 0.29262 0.0
H449 H 0.14767 0.4891 0.29995 0.0
S450 S 0.26321 0.60722 0.48525 0.0
N451 N 0.23254 0.6247 0.449 0.0
N452 N 0.24906 0.55795 0.45533 0.0
C453 C 0.21701 0.55326 0.41466 0.0
C454 C 0.20839 0.58961 0.4108 0.0
C455 C 0.48492 0.64734 0.3449 0.0
C456 C 0.48348 0.68162 0.3783 0.0
C457 C 0.44923 0.60287 0.34765 0.0
C458 C 0.41169 0.5916 0.38453 0.0
H459 H 0.5102 0.65601 0.30973 0.0
H460 H 0.44809 0.57915 0.31436 0.0
S461 S 0.39863 0.66557 0.49492 0.0
N462 N 0.44671 0.69891 0.45985 0.0
N463 N 0.38018 0.61502 0.46597 0.0
C464 C 0.41399 0.62366 0.42622 0.0
C465 C 0.45013 0.66896 0.42322 0.0
C466 C 0.38246 0.80968 0.39336 0.0
C467 C 0.41271 0.83017 0.34461 0.0
C468 C 0.33785 0.80047 0.38915 0.0
C469 C 0.32186 0.81004 0.33538 0.0
H470 H 0.39171 0.79589 0.43166 0.0
H471 H 0.31474 0.78047 0.42445 0.0
S472 S 0.3915 0.87551 0.20288 0.0
N473 N 0.42672 0.86905 0.24754 0.0
N474 N 0.34281 0.85156 0.23935 0.0
C475 C 0.35394 0.83756 0.2913 0.0
C476 C 0.39949 0.84741 0.29586 0.0
C477 C 0.45221 0.78254 0.88138 0.0
C478 C 0.48327 0.7908 0.83439 0.0
C479 C 0.42666 0.80414 0.88115 0.0
C480 C 0.43132 0.83389 0.83356 0.0
H481 H 0.44383 0.75569 0.91395 0.0
H482 H 0.3985 0.79207 0.91248 0.0
S483 S 0.51763 0.8762 0.7118 0.0
N484 N 0.52483 0.83822 0.74838 0.0
N485 N 0.47654 0.87833 0.74796 0.0
C486 C 0.46766 0.84794 0.79331 0.0
C487 C 0.49344 0.826 0.79325 0.0
C488 C 0.19754 0.59697 0.89663 0.0
C489 C 0.17685 0.5808 0.83947 0.0
C490 C 0.21722 0.6426 0.91103 0.0
C491 C 0.21529 0.67253 0.86926 0.0
H492 H 0.20329 0.57543 0.92708 0.0
H493 H 0.23824 0.65523 0.95145 0.0
S494 S 0.1577 0.64467 0.71879 0.0
N495 N 0.15071 0.59641 0.7446 0.0
N496 N 0.18518 0.68188 0.77312 0.0
C497 C 0.18906 0.65534 0.81603 0.0
C498 C 0.1706 0.60935 0.80042 0.0
C499 C 0.32923 0.61239 0.87013 0.0
C500 C 0.3104 0.56659 0.88482 0.0
C501 C 0.37575 0.64204 0.8744 0.0
C502 C 0.40495 0.62661 0.89233 0.0
H503 H 0.30835 0.62468 0.85075 0.0
H504 H 0.38932 0.67564 0.85593 0.0
S505 S 0.37158 0.51262 0.94911 0.0
N506 N 0.32363 0.50932 0.92894 0.0
N507 N 0.41131 0.56499 0.93528 0.0
C508 C 0.386 0.58245 0.91445 0.0
C509 C 0.33853 0.55233 0.91097 0.0
C510 C 0.85605 0.90616 0.60889 0.0
C511 C 0.86712 0.93407 0.66032 0.0
C512 C 0.8683 0.87301 0.60562 0.0
C513 C 0.89235 0.86704 0.65354 0.0
H514 H 0.84228 0.91315 0.56845 0.0
H515 H 0.86241 0.85472 0.56312 0.0
S516 S 0.92303 0.92767 0.80176 0.0
N517 N 0.89846 0.95055 0.76265 0.0
N518 N 0.9211 0.88807 0.75723 0.0
C519 C 0.89902 0.8915 0.70783 0.0
C520 C 0.88664 0.92526 0.71092 0.0
C521 C 0.11535 0.01119 0.70677 0.0
C522 C 0.10112 0.03519 0.66985 0.0
C523 C 0.089 0.9642 0.71259 0.0
C524 C 0.04723 0.94024 0.68272 0.0
H525 H 0.14847 0.02822 0.72685 0.0
H526 H 0.10282 0.9463 0.73664 0.0
S527 S 0.99262 0.98819 0.58677 0.0
N528 N 0.04077 0.03206 0.60791 0.0
N529 N 0.99143 0.94431 0.61926 0.0
C530 C 0.03112 0.96446 0.65015 0.0
C531 C 0.0581 0.01183 0.64335 0.0
C532 C 0.02279 0.17785 0.7216 0.0
C533 C 0.99037 0.13223 0.7271 0.0
C534 C 0.06875 0.19201 0.72359 0.0
C535 C 0.08357 0.16077 0.72979 0.0
H536 H 0.01272 0.20206 0.70926 0.0
H537 H 0.09253 0.22665 0.71211 0.0
S538 S 0.01175 0.03941 0.76244 0.0
N539 N 0.97572 0.05717 0.75072 0.0
N540 N 0.06246 0.08408 0.75608 0.0
C541 C 0.05158 0.1163 0.74505 0.0
C542 C 0.00465 0.10176 0.74251 0.0
C543 C 0.1513 0.17817 0.16409 0.0
C544 C 0.1531 0.14582 0.20198 0.0
C545 C 0.11338 0.18346 0.16414 0.0
C546 C 0.07719 0.15749 0.20336 0.0
H547 H 0.17566 0.19399 0.12762 0.0
H548 H 0.10988 0.20318 0.1281 0.0
S549 S 0.07361 0.082 0.32677 0.0
N550 N 0.12161 0.09764 0.29106 0.0
N551 N 0.0508 0.10842 0.29195 0.0
C552 C 0.08296 0.13239 0.24952 0.0
C553 C 0.12132 0.12672 0.24918 0.0
C554 C 0.83691 0.9384 0.16017 0.0
C555 C 0.86532 0.92947 0.19625 0.0
C556 C 0.84092 0.98093 0.16097 0.0
C557 C 0.87295 0.0155 0.19847 0.0
H558 H 0.81431 0.91383 0.12733 0.0
H559 H 0.8214 0.98794 0.12838 0.0
S560 S 0.94824 0.00538 0.31086 0.0
N561 N 0.92146 0.95577 0.27717 0.0
N562 N 0.92848 0.0357 0.27938 0.0
C563 C 0.89783 0.00528 0.23981 0.0
C564 C 0.89425 0.96218 0.23831 0.0
C565 C 0.03924 0.92343 0.23563 0.0
C566 C 0.07227 0.92839 0.19339 0.0
C567 C 0.99837 0.88285 0.24019 0.0
C568 C 0.98907 0.84695 0.20081 0.0
H569 H 0.04353 0.9521 0.26163 0.0
H570 H 0.9719 0.88212 0.26795 0.0
S571 S 0.06746 0.84105 0.09076 0.0
N572 N 0.09583 0.89236 0.11882 0.0
N573 N 0.0189 0.81598 0.12729 0.0
C574 C 0.0244 0.84951 0.16541 0.0
C575 C 0.06594 0.8907 0.16083 0.0
C576 C 0.51134 0.1228 0.25023 0.0
C577 C 0.52915 0.11834 0.30597 0.0
C578 C 0.52596 0.11417 0.19462 0.0
C579 C 0.55902 0.10144 0.19368 0.0
H580 H 0.4864 0.13326 0.24969 0.0
H581 H 0.51152 0.11765 0.15228 0.0
S582 S 0.61945 0.09039 0.32755 0.0
N583 N 0.58327 0.1034 0.3569 0.0
N584 N 0.61119 0.08795 0.25293 0.0
C585 C 0.57748 0.09775 0.24928 0.0
C586 C 0.56242 0.10608 0.30539 0.0
C587 C 0.89539 0.41673 0.27135 0.0
C588 C 0.87687 0.43366 0.31366 0.0
C589 C 0.9065 0.4347 0.21199 0.0
C590 C 0.90072 0.47086 0.1949 0.0
H591 H 0.89936 0.38835 0.2833 0.0
H592 H 0.91909 0.42007 0.17924 0.0
S593 S 0.85655 0.52869 0.29072 0.0
N594 N 0.85489 0.48915 0.33539 0.0
N595 N 0.87753 0.52408 0.22501 0.0
C596 C 0.88434 0.48925 0.23783 0.0
C597 C 0.87198 0.47033 0.29715 0.0
C598 C 0.59527 0.48816 0.23696 0.0
C599 C 0.57228 0.46982 0.29198 0.0
C600 C 0.57249 0.47648 0.18096 0.0
C601 C 0.52601 0.44565 0.17806 0.0
H602 H 0.63157 0.50956 0.23693 0.0
H603 H 0.5919 0.4898 0.1394 0.0
S604 S 0.45022 0.38992 0.31008 0.0
N605 N 0.50048 0.42112 0.34105 0.0
N606 N 0.4572 0.39936 0.23565 0.0
C607 C 0.50205 0.42952 0.23325 0.0
C608 C 0.52539 0.44146 0.29037 0.0
C609 C 0.87892 0.48825 0.74871 0.0
C610 C 0.88305 0.46891 0.80314 0.0
C611 C 0.89217 0.47879 0.69257 0.0
C612 C 0.90935 0.44927 0.6893 0.0
H613 H 0.8645 0.50994 0.74939 0.0
H614 H 0.88765 0.49359 0.65135 0.0
S615 S 0.92313 0.38749 0.8192 0.0
N616 N 0.9033 0.41762 0.85041 0.0
N617 N 0.92878 0.40027 0.74578 0.0
C618 C 0.91445 0.43062 0.74397 0.0
C619 C 0.90095 0.4402 0.80071 0.0
C620 C 0.53121 0.40936 0.68566 0.0
C621 C 0.56552 0.45471 0.68285 0.0
C622 C 0.51914 0.3862 0.74175 0.0
C623 C 0.54125 0.40799 0.79595 0.0
H624 H 0.51364 0.39184 0.64446 0.0
H625 H 0.49263 0.35132 0.74277 0.0
S626 S 0.63776 0.52379 0.81121 0.0
N627 N 0.62379 0.51898 0.73818 0.0
N628 N 0.60188 0.47511 0.84258 0.0
C629 C 0.57634 0.45269 0.79324 0.0
C630 C 0.58827 0.47625 0.73683 0.0
C631 C 0.60744 0.10954 0.7521 0.0
C632 C 0.58823 0.11439 0.80619 0.0
C633 C 0.58442 0.10125 0.69604 0.0
C634 C 0.54164 0.09733 0.69322 0.0
H635 H 0.64045 0.11269 0.75307 0.0
H636 H 0.59998 0.09783 0.65489 0.0
S637 S 0.48056 0.11411 0.82047 0.0
N638 N 0.52713 0.12049 0.8519 0.0
N639 N 0.48287 0.10241 0.74785 0.0
C640 C 0.52283 0.10314 0.74679 0.0
C641 C 0.54659 0.11264 0.80296 0.0
C642 C 0.22088 0.4739 0.54854 0.0
C643 C 0.24844 0.45466 0.54207 0.0
C644 C 0.21218 0.48575 0.60648 0.0
C645 C 0.23042 0.47824 0.65981 0.0
H646 H 0.20475 0.4785 0.50885 0.0
H647 H 0.18969 0.49916 0.6098 0.0
S648 S 0.30545 0.43021 0.66896 0.0
N649 N 0.29504 0.4302 0.59517 0.0
N650 N 0.27734 0.45122 0.70328 0.0
C651 C 0.25806 0.45938 0.65422 0.0
C652 C 0.26736 0.44781 0.5956 0.0
C653 C 0.60574 0.78652 0.53556 0.0
C654 C 0.57167 0.79421 0.51333 0.0
C655 C 0.5995 0.76192 0.58978 0.0
C656 C 0.55908 0.74466 0.62264 0.0
H657 H 0.63697 0.79903 0.5105 0.0
H658 H 0.626 0.75603 0.60565 0.0
S659 S 0.46364 0.76301 0.58931 0.0
N660 N 0.49912 0.78784 0.5322 0.0
N661 N 0.48688 0.74095 0.63296 0.0
C662 C 0.52578 0.75382 0.60198 0.0
C663 C 0.53219 0.77882 0.54744 0.0
C664 C 0.23011 0.80477 0.60361 0.0
C665 C 0.25498 0.78453 0.62205 0.0
C666 C 0.21007 0.79634 0.54542 0.0
C667 C 0.21563 0.76858 0.50342 0.0
H668 H 0.22472 0.82583 0.63462 0.0
H669 H 0.18925 0.8107 0.53375 0.0
S670 S 0.28388 0.71392 0.52596 0.0
N671 N 0.28976 0.74127 0.59011 0.0
N672 N 0.24966 0.72294 0.48295 0.0
C673 C 0.24279 0.75063 0.5199 0.0
C674 C 0.2634 0.75953 0.57852 0.0
C675 C 0.55047 0.73537 0.06893 0.0
C676 C 0.55002 0.75488 0.01264 0.0
C677 C 0.54536 0.75297 0.12402 0.0
C678 C 0.54128 0.79159 0.12487 0.0
H679 H 0.55422 0.70595 0.07034 0.0
H680 H 0.54418 0.73596 0.16638 0.0
S681 S 0.54103 0.85674 0.99 0.0
N682 N 0.5466 0.81557 0.96085 0.0
N683 N 0.53735 0.84901 0.06494 0.0
C684 C 0.54088 0.81152 0.06898 0.0
C685 C 0.54548 0.79321 0.01268 0.0
C686 C 0.22686 0.74202 0.01862 0.0
C687 C 0.21074 0.77012 -0.00143 0.0
C688 C 0.21204 0.71841 0.07369 0.0
C689 C 0.18055 0.72208 0.11085 0.0
H690 H 0.25332 0.74052 0.99375 0.0
H691 H 0.22786 0.69969 0.0891 0.0
S692 S 0.119 0.78086 0.06965 0.0
N693 N 0.15586 0.7939 0.0138 0.0
N694 N 0.12696 0.7482 0.1173 0.0
C695 C 0.16089 0.74639 0.08824 0.0
C696 C 0.17636 0.7709 0.03219 0.0
C697 C 0.25445 0.4815 0.04209 0.0
C698 C 0.22496 0.43689 0.02454 0.0
C699 C 0.27785 0.49142 0.0975 0.0
C700 C 0.27251 0.45714 0.13795 0.0
H701 H 0.25781 0.50916 0.01442 0.0
H702 H 0.29813 0.52644 0.11022 0.0
S703 S 0.20708 0.3348 0.10687 0.0
N704 N 0.19663 0.35798 0.04748 0.0
N705 N 0.2417 0.37685 0.15145 0.0
C706 C 0.24612 0.41237 0.11861 0.0
C707 C 0.22191 0.40219 0.0621 0.0
C708 C 0.92292 0.82742 0.86281 0.0
C709 C 0.90249 0.78399 0.83844 0.0
C710 C 0.90777 0.83611 0.91776 0.0
C711 C 0.87195 0.80153 0.95126 0.0
H712 H 0.9524 0.85446 0.841 0.0
H713 H 0.92622 0.86995 0.93578 0.0
S714 S 0.8038 0.68257 0.903 0.0
N715 N 0.84238 0.70637 0.849 0.0
N716 N 0.8135 0.72288 0.95216 0.0
C717 C 0.84968 0.75828 0.92564 0.0
C718 C 0.86525 0.74941 0.86955 0.0
C719 C 0.20918 0.14467 0.89781 0.0
C720 C 0.21219 0.12556 0.84265 0.0
C721 C 0.20424 0.12268 0.95364 0.0
C722 C 0.20273 0.08114 0.95625 0.0
H723 H 0.21086 0.17697 0.89777 0.0
H724 H 0.20112 0.13808 0.99514 0.0
S725 S 0.21378 0.01931 0.8253 0.0
N726 N 0.21758 0.06497 0.79438 0.0
N727 N 0.20584 0.02223 0.89939 0.0
C728 C 0.20609 0.06179 0.90156 0.0
C729 C 0.21169 0.08453 0.84466 0.0
C730 C 0.86373 0.13482 0.91143 0.0
C731 C 0.87696 0.11199 0.87065 0.0
C732 C 0.88374 0.14825 0.96937 0.0
C733 C 0.91707 0.13874 0.98857 0.0
H734 H 0.83691 0.14127 0.89912 0.0
H735 H 0.87129 0.16374 0.0004 0.0
S736 S 0.96493 0.08143 0.89823 0.0
N737 N 0.92632 0.08147 0.85323 0.0
N738 N 0.96473 0.10792 0.96086 0.0
C739 C 0.93217 0.11803 0.94696 0.0
C740 C 0.91182 0.10423 0.88833 0.0
C741 C 0.22816 0.14807 0.34532 0.0
C742 C 0.23822 0.11319 0.34649 0.0
C743 C 0.22327 0.16688 0.39963 0.0
C744 C 0.228 0.15136 0.45733 0.0
H745 H 0.22352 0.16068 0.3021 0.0
H746 H 0.21455 0.193 0.39624 0.0
S747 S 0.25481 0.0607 0.48522 0.0
N748 N 0.25417 0.06474 0.41003 0.0
N749 N 0.24351 0.09877 0.51184 0.0
C750 C 0.23918 0.11716 0.459 0.0
C751 C 0.24472 0.09846 0.40369 0.0
C752 C 0.94229 0.12143 0.41508 0.0
C753 C 0.90823 0.11514 0.37387 0.0
C754 C 0.93172 0.10331 0.47409 0.0
C755 C 0.88676 0.07945 0.49409 0.0
H756 H 0.97738 0.14254 0.40269 0.0
H757 H 0.95912 0.11125 0.50556 0.0
S758 S 0.78537 0.04789 0.39958 0.0
N759 N 0.82807 0.07847 0.35334 0.0
N760 N 0.80782 0.04529 0.46535 0.0
C761 C 0.85232 0.06971 0.45143 0.0
C762 C 0.86319 0.08746 0.39086 0.0
C763 C 0.85137 0.74269 0.4009 0.0
C764 C 0.87152 0.74862 0.34303 0.0
C765 C 0.87551 0.74692 0.45471 0.0
C766 C 0.92062 0.75703 0.45257 0.0
H767 H 0.81751 0.73715 0.40486 0.0
H768 H 0.85955 0.74509 0.49817 0.0
S769 S 0.98464 0.76415 0.31234 0.0
N770 N 0.93602 0.75647 0.28671 0.0
N771 N 0.98179 0.76523 0.38771 0.0
C772 C 0.93966 0.75883 0.39495 0.0
C773 C 0.91503 0.75447 0.34021 0.0
C774 C 0.44594 0.98154 0.87007 0.0
C775 C 0.41795 0.93849 0.89418 0.0
C776 C 0.49134 0.00683 0.88763 0.0
C777 C 0.51039 0.99074 0.93068 0.0
H778 H 0.4326 0.99592 0.83789 0.0
H779 H 0.5112 0.03995 0.86923 0.0
S780 S 0.44978 0.87922 0.0077 0.0
N781 N 0.41169 0.8801 0.96256 0.0
N782 N 0.49656 0.92744 -0.00396 0.0
C783 C 0.48262 0.94677 0.95356 0.0
C784 C 0.43653 0.92089 0.93534 0.0
C785 C 0.02653 0.51291 0.88289 0.0
C786 C 0.99137 0.49244 0.92524 0.0
C787 C 0.05143 0.49232 0.86635 0.0
C788 C 0.04287 0.45122 0.89288 0.0
H789 H 0.03525 0.54519 0.86323 0.0
H790 H 0.07825 0.50948 0.83349 0.0
S791 S 0.95271 0.38403 0.00525 0.0
N792 N 0.94764 0.42848 0.99178 0.0
N793 N 0.99493 0.39033 0.96211 0.0
C794 C 0.00663 0.42995 0.93395 0.0
C795 C 0.98099 0.45061 0.95005 0.0
C796 C 0.55966 0.55627 0.87342 0.0
C797 C 0.53403 0.57241 0.84416 0.0
C798 C 0.53984 0.51215 0.89471 0.0
C799 C 0.49363 0.48177 0.88712 0.0
H800 H 0.5949 0.57862 0.88384 0.0
H801 H 0.56051 0.50282 0.9214 0.0
S802 S 0.41318 0.50343 0.80168 0.0
N803 N 0.46099 0.55193 0.79982 0.0
N804 N 0.42372 0.46859 0.84089 0.0
C805 C 0.46808 0.49594 0.85364 0.0
C806 C 0.48839 0.54123 0.83145 0.0
C807 C 1.00093 0.52423 0.45005 0.0
C808 C 0.99465 0.48814 0.4132 0.0
C809 C 0.02606 0.56861 0.42974 0.0
C810 C 0.04648 0.57897 0.37181 0.0
H811 H 0.98667 0.51806 0.49569 0.0
H812 H 0.03057 0.59521 0.46052 0.0
S813 S 0.03621 0.49642 0.25478 0.0
N814 N 0.00798 0.46509 0.31418 0.0
N815 N 0.05573 0.54924 0.27552 0.0
C816 C 0.03951 0.54317 0.33345 0.0
C817 C 0.01334 0.49751 0.3542 0.0
C818 C 0.47455 0.47961 0.4607 0.0
C819 C 0.50972 0.50854 0.42167 0.0
C820 C 0.42989 0.45837 0.44134 0.0
C821 C 0.41871 0.46571 0.38242 0.0
H822 H 0.48172 0.47325 0.50681 0.0
H823 H 0.40375 0.43706 0.47344 0.0
S824 S 0.49859 0.53531 0.2608 0.0
N825 N 0.53111 0.54138 0.32019 0.0
N826 N 0.44616 0.50172 0.28361 0.0
C827 C 0.4535 0.49397 0.34227 0.0
C828 C 0.49941 0.5153 0.36192 0.0
C829 C 0.53111 0.95638 0.43972 0.0
C830 C 0.53308 0.95 0.37675 0.0
C831 C 0.51037 0.97934 0.46224 0.0
C832 C 0.49124 0.99749 0.42275 0.0
H833 H 0.54556 0.94319 0.47207 0.0
H834 H 0.51019 0.98376 0.51133 0.0
S835 S 0.48654 0.98898 0.25359 0.0
N836 N 0.51342 0.96249 0.27463 0.0
N837 N 0.47465 0.0068 0.3173 0.0
C838 C 0.49274 0.99137 0.35939 0.0
C839 C 0.51349 0.96713 0.33629 0.0
C840 C 0.15193 0.2904 0.27474 0.0
C841 C 0.17498 0.33717 0.26532 0.0
C842 C 0.1074 0.26327 0.25521 0.0
C843 C 0.08437 0.28152 0.22425 0.0
H844 H 0.16745 0.27483 0.30055 0.0
H845 H 0.08991 0.22834 0.26863 0.0
S846 S 0.13005 0.40127 0.18352 0.0
N847 N 0.17149 0.40032 0.22056 0.0
N848 N 0.0885 0.34862 0.1814 0.0
C849 C 0.10761 0.32776 0.21145 0.0
C850 C 0.1528 0.35569 0.23226 0.0
C851 C 0.65633 0.81422 0.19812 0.0
C852 C 0.67255 0.8502 0.23976 0.0
C853 C 0.68272 0.79557 0.17984 0.0
C854 C 0.72662 0.81232 0.20245 0.0
H855 H 0.62227 0.79889 0.18182 0.0
H856 H 0.66815 0.76698 0.14921 0.0
S857 S 0.78542 0.90529 0.31383 0.0
N858 N 0.73679 0.90269 0.30159 0.0
N859 N 0.78461 0.86567 0.27058 0.0
C860 C 0.74383 0.84891 0.24292 0.0
C861 C 0.71739 0.86847 0.26052 0.0
C862 C 0.1848 0.84006 0.19603 0.0
C863 C 0.14952 0.82029 0.23911 0.0
C864 C 0.20292 0.88508 0.17736 0.0
C865 C 0.18694 0.91231 0.20166 0.0
H866 H 0.20016 0.82145 0.17877 0.0
H867 H 0.23075 0.89917 0.14537 0.0
S868 S 0.09814 0.87894 0.31935 0.0
N869 N 0.09951 0.83262 0.30518 0.0
N870 N 0.13662 0.91758 0.27429 0.0
C871 C 0.15186 0.89321 0.24445 0.0
C872 C 0.13236 0.84717 0.26197 0.0
C873 C 0.68719 0.89253 0.70082 0.0
C874 C 0.73315 0.91606 0.71655 0.0
C875 C 0.65886 0.84796 0.71971 0.0
C876 C 0.67526 0.82526 0.75581 0.0
H877 H 0.6726 0.90928 0.67563 0.0
H878 H 0.6234 0.83214 0.70848 0.0
S879 S 0.79346 0.87144 0.80746 0.0
N880 N 0.794 0.91293 0.76868 0.0
N881 N 0.7413 0.82916 0.8033 0.0
C882 C 0.72171 0.84771 0.76905 0.0
C883 C 0.75051 0.89308 0.7497 0.0
C884 C 0.11198 0.7718 0.7148 0.0
C885 C 0.09543 0.79888 0.69124 0.0
C886 C 0.15682 0.79046 0.73407 0.0
C887 C 0.18691 0.83707 0.73142 0.0
H888 H 0.08964 0.73605 0.72112 0.0
H889 H 0.1672 0.76848 0.75485 0.0
S890 S 0.1637 0.92216 0.66449 0.0
N891 N 0.1154 0.87446 0.65864 0.0
N892 N 0.19909 0.90933 0.69753 0.0
C893 C 0.17203 0.86427 0.70458 0.0
C894 C 0.12652 0.84519 0.68357 0.0
C895 C 0.23523 0.32976 0.75381 0.0
C896 C 0.22249 0.30725 0.69728 0.0
C897 C 0.21085 0.34788 0.7799 0.0
C898 C 0.17312 0.34481 0.75041 0.0
H899 H 0.26262 0.33112 0.78022 0.0
H900 H 0.2211 0.36371 0.82443 0.0
S901 S 0.13063 0.29729 0.5968 0.0
N902 N 0.17279 0.28797 0.60901 0.0
N903 N 0.12748 0.3235 0.65829 0.0
C904 C 0.16187 0.32581 0.69187 0.0
C905 C 0.1865 0.30667 0.66525 0.0
C906 C 0.76057 0.63452 0.60945 0.0
C907 C 0.75094 0.61533 0.55077 0.0
C908 C 0.80465 0.65753 0.63167 0.0
C909 C 0.84071 0.66245 0.59591 0.0
H910 H 0.73368 0.63113 0.63892 0.0
H911 H 0.81068 0.67214 0.67705 0.0
S912 S 0.83419 0.62171 0.43754 0.0
N913 N 0.78129 0.60446 0.45606 0.0
N914 N 0.86477 0.64832 0.49822 0.0
C915 C 0.83195 0.64411 0.53684 0.0
C916 C 0.78678 0.62024 0.51419 0.0
C917 C 0.33236 0.1332 0.62908 0.0
C918 C 0.32902 0.16502 0.59279 0.0
C919 C 0.35692 0.11335 0.60923 0.0
C920 C 0.37914 0.12491 0.55255 0.0
H921 H 0.31641 0.12411 0.67365 0.0
H922 H 0.35972 0.08982 0.63937 0.0
S923 S 0.37428 0.20101 0.4365 0.0
N924 N 0.34564 0.204 0.49525 0.0
N925 N 0.392 0.16623 0.45731 0.0
C926 C 0.37453 0.15536 0.5146 0.0
C927 C 0.34931 0.17559 0.53492 0.0
C928 C 0.82334 0.23328 0.60132 0.0
C929 C 0.85932 0.25248 0.55964 0.0
C930 C 0.80416 0.18819 0.61965 0.0
C931 C 0.82044 0.16051 0.59736 0.0
H932 H 0.8113 0.2538 0.62222 0.0
H933 H 0.77807 0.17585 0.65422 0.0
S934 S 0.91019 0.19425 0.48003 0.0
N935 N 0.9073 0.24 0.49146 0.0
N936 N 0.87194 0.15569 0.52548 0.0
C937 C 0.85458 0.17902 0.55246 0.0
C938 C 0.874 0.2249 0.534 0.0
C939 C 0.31976 0.17092 0.02609 0.0
C940 C 0.33386 0.15384 0.07467 0.0
C941 C 0.34531 0.21609 0.00768 0.0
C942 C 0.38602 0.24564 0.03701 0.0
H943 H 0.28798 0.14978 0.00369 0.0
H944 H 0.33274 0.22815 0.97112 0.0
S945 S 0.43848 0.21868 0.16645 0.0
N946 N 0.39278 0.17069 0.15007 0.0
N947 N 0.43905 0.25538 0.11731 0.0
C948 C 0.40123 0.22891 0.08428 0.0
C949 C 0.37577 0.18301 0.10238 0.0
C950 C 0.8289 0.19204 0.07424 0.0
C951 C 0.83698 0.17997 0.13234 0.0
C952 C 0.78542 0.16959 0.04845 0.0
C953 C 0.74908 0.1345 0.08002 0.0
H954 H 0.85637 0.21836 0.04832 0.0
H955 H 0.78033 0.17891 0.00311 0.0
S956 S 0.75272 0.09236 0.23516 0.0
N957 N 0.80511 0.13206 0.22154 0.0
N958 N 0.72378 0.09044 0.17368 0.0
C959 C 0.75682 0.12297 0.13869 0.0
C960 C 0.80068 0.14578 0.16484 0.0
C961 C 0.82282 0.59722 0.06554 0.0
C962 C 0.86419 0.61461 0.03491 0.0
C963 C 0.80481 0.62437 0.08131 0.0
C964 C 0.82849 0.67093 0.06995 0.0
H965 H 0.80533 0.56279 0.08097 0.0
H966 H 0.77327 0.60899 0.10615 0.0
S967 S 0.94006 0.73404 0.99323 0.0
N968 N 0.92829 0.68129 0.99249 0.0
N969 N 0.89705 0.7335 0.02755 0.0
C970 C 0.87024 0.68899 0.03928 0.0
C971 C 0.88762 0.66072 0.02096 0.0
loop_
_geom_bond_atom_site_label_1
_geom_bond_atom_site_label_2
_geom_bond_distance
_geom_bond_site_symmetry_2
_ccdc_geom_bond_type
Zn0 O6 1.920 . S
Zn0 O12 1.898 . S
Zn0 O15 1.905 . S
Zn1 O9 1.905 . S
Zn1 O10 1.898 . S
Zn1 O18 1.920 . S
Zn2 O5 2.080 1_554 S
Zn2 O8 2.114 . S
Zn2 O11 2.120 . S
Zn2 O13 2.120 1_554 S
Zn2 O14 2.114 . S
Zn2 O17 2.080 . S
C3 O8 1.166 . S
C3 O9 1.182 . S
C4 O10 1.167 . S
C4 O11 1.299 . S
O5 Zn2 2.080 1_556 S
O5 C19 1.305 . S
O6 Zn0 1.920 . S
O6 C19 1.234 . S
C7 O12 1.173 . S
C7 O13 1.299 . S
O8 Zn2 2.114 . S
O8 C3 1.166 . S
O9 Zn1 1.905 . S
O9 C3 1.182 . S
O10 Zn1 1.898 . S
O10 C4 1.167 . S
O11 Zn2 2.120 . S
O11 C4 1.299 . S
O12 Zn0 1.898 . S
O12 C7 1.173 . S
O13 Zn2 2.120 1_556 S
O13 C7 1.299 . S
O14 Zn2 2.114 . S
O14 C16 1.166 1_554 S
O15 Zn0 1.905 . S
O15 C16 1.182 . S
C16 O14 1.166 1_556 S
C16 O15 1.182 . S
O17 Zn2 2.080 . S
O17 C20 1.305 1_554 S
O18 Zn1 1.920 . S
O18 C20 1.234 1_554 S
C19 O5 1.305 . S
C19 O6 1.234 . S
C20 O17 1.305 1_556 S
C20 O18 1.234 1_556 S
Zn21 O27 1.920 . S
Zn21 O33 1.898 . S
Zn21 O36 1.905 . S
Zn22 O30 1.905 . S
Zn22 O31 1.898 . S
Zn22 O39 1.920 . S
Zn23 O26 2.080 1_554 S
Zn23 O29 2.114 . S
Zn23 O32 2.120 . S
Zn23 O34 2.120 1_554 S
Zn23 O35 2.114 . S
Zn23 O38 2.080 . S
C24 O29 1.166 . S
C24 O30 1.182 . S
C25 O31 1.167 . S
C25 O32 1.299 . S
O26 Zn23 2.080 1_556 S
O26 C40 1.305 . S
O27 Zn21 1.920 . S
O27 C40 1.234 . S
C28 O33 1.173 . S
C28 O34 1.299 . S
O29 Zn23 2.114 . S
O29 C24 1.166 . S
O30 Zn22 1.905 . S
O30 C24 1.182 . S
O31 Zn22 1.898 . S
O31 C25 1.167 . S
O32 Zn23 2.120 . S
O32 C25 1.299 . S
O33 Zn21 1.898 . S
O33 C28 1.173 . S
O34 Zn23 2.120 1_556 S
O34 C28 1.299 . S
O35 Zn23 2.114 . S
O35 C37 1.166 1_554 S
O36 Zn21 1.905 . S
O36 C37 1.182 . S
C37 O35 1.166 1_556 S
C37 O36 1.182 . S
O38 Zn23 2.080 . S
O38 C41 1.305 1_554 S
O39 Zn22 1.920 . S
O39 C41 1.234 1_554 S
C40 O26 1.305 . S
C40 O27 1.234 . S
C41 O38 1.305 1_556 S
C41 O39 1.234 1_556 S
Zn42 O48 1.920 . S
Zn42 O54 1.898 . S
Zn42 O57 1.905 . S
Zn43 O51 1.905 . S
Zn43 O52 1.898 . S
Zn43 O60 1.920 . S
Zn44 O47 2.080 1_554 S
Zn44 O50 2.114 . S
Zn44 O53 2.120 . S
Zn44 O55 2.120 1_554 S
Zn44 O56 2.114 . S
Zn44 O59 2.080 . S
C45 O50 1.166 . S
C45 O51 1.182 . S
C46 O52 1.167 . S
C46 O53 1.299 . S
O47 Zn44 2.080 1_556 S
O47 C61 1.305 . S
O48 Zn42 1.920 . S
O48 C61 1.234 . S
C49 O54 1.173 . S
C49 O55 1.299 . S
O50 Zn44 2.114 . S
O50 C45 1.166 . S
O51 Zn43 1.905 . S
O51 C45 1.182 . S
O52 Zn43 1.898 . S
O52 C46 1.167 . S
O53 Zn44 2.120 . S
O53 C46 1.299 . S
O54 Zn42 1.898 . S
O54 C49 1.173 . S
O55 Zn44 2.120 1_556 S
O55 C49 1.299 . S
O56 Zn44 2.114 . S
O56 C58 1.166 1_554 S
O57 Zn42 1.905 . S
O57 C58 1.182 . S
C58 O56 1.166 1_556 S
C58 O57 1.182 . S
O59 Zn44 2.080 . S
O59 C62 1.305 1_554 S
O60 Zn43 1.920 . S
O60 C62 1.234 1_554 S
C61 O47 1.305 . S
C61 O48 1.234 . S
C62 O59 1.305 1_556 S
C62 O60 1.234 1_556 S
Zn63 O69 1.920 . S
Zn63 O75 1.898 . S
Zn63 O78 1.905 . S
Zn64 O72 1.905 . S
Zn64 O73 1.898 . S
Zn64 O81 1.920 . S
Zn65 O68 2.080 . S
Zn65 O71 2.114 . S
Zn65 O74 2.120 . S
Zn65 O76 2.120 . S
Zn65 O77 2.114 . S
Zn65 O80 2.080 . S
C66 O71 1.166 . S
C66 O72 1.182 . S
C67 O73 1.167 . S
C67 O74 1.299 . S
O68 Zn65 2.080 . S
O68 C82 1.305 . S
O69 Zn63 1.920 . S
O69 C82 1.234 . S
C70 O75 1.167 . S
C70 O76 1.299 . S
O71 Zn65 2.114 . S
O71 C66 1.166 . S
O72 Zn64 1.905 . S
O72 C66 1.182 . S
O73 Zn64 1.898 . S
O73 C67 1.167 . S
O74 Zn65 2.120 . S
O74 C67 1.299 . S
O75 Zn63 1.898 . S
O75 C70 1.167 . S
O76 Zn65 2.120 . S
O76 C70 1.299 . S
O77 Zn65 2.114 . S
O77 C79 1.166 . S
O78 Zn63 1.905 . S
O78 C79 1.182 . S
C79 O77 1.166 . S
C79 O78 1.182 . S
O80 Zn65 2.080 . S
O80 C83 1.305 . S
O81 Zn64 1.920 . S
O81 C83 1.234 . S
C82 O68 1.305 . S
C82 O69 1.234 . S
C83 O80 1.305 . S
C83 O81 1.234 . S
Zn84 O90 1.920 . S
Zn84 O96 1.898 . S
Zn84 O99 1.905 . S
Zn85 O93 1.905 . S
Zn85 O94 1.898 . S
Zn85 O102 1.920 . S
Zn86 O89 2.080 . S
Zn86 O92 2.114 . S
Zn86 O95 2.120 . S
Zn86 O97 2.120 . S
Zn86 O98 2.114 . S
Zn86 O101 2.080 . S
C87 O92 1.166 . S
C87 O93 1.182 . S
C88 O94 1.167 . S
C88 O95 1.299 . S
O89 Zn86 2.080 . S
O89 C103 1.305 . S
O90 Zn84 1.920 . S
O90 C103 1.234 . S
C91 O96 1.167 . S
C91 O97 1.299 . S
O92 Zn86 2.114 . S
O92 C87 1.166 . S
O93 Zn85 1.905 . S
O93 C87 1.182 . S
O94 Zn85 1.898 . S
O94 C88 1.167 . S
O95 Zn86 2.120 . S
O95 C88 1.299 . S
O96 Zn84 1.898 . S
O96 C91 1.167 . S
O97 Zn86 2.120 . S
O97 C91 1.299 . S
O98 Zn86 2.114 . S
O98 C100 1.166 . S
O99 Zn84 1.905 . S
O99 C100 1.182 . S
C100 O98 1.166 . S
C100 O99 1.182 . S
O101 Zn86 2.080 . S
O101 C104 1.305 . S
O102 Zn85 1.920 . S
O102 C104 1.234 . S
C103 O89 1.305 . S
C103 O90 1.234 . S
C104 O101 1.305 . S
C104 O102 1.234 . S
Zn105 O111 1.920 . S
Zn105 O117 1.898 . S
Zn105 O120 1.905 . S
Zn106 O114 1.905 . S
Zn106 O115 1.898 . S
Zn106 O123 1.920 . S
Zn107 O110 2.080 . S
Zn107 O113 2.114 . S
Zn107 O116 2.120 . S
Zn107 O118 2.120 . S
Zn107 O119 2.114 . S
Zn107 O122 2.080 . S
C108 O113 1.166 . S
C108 O114 1.182 . S
C109 O115 1.167 . S
C109 O116 1.299 . S
O110 Zn107 2.080 . S
O110 C124 1.305 . S
O111 Zn105 1.920 . S
O111 C124 1.234 . S
C112 O117 1.167 . S
C112 O118 1.299 . S
O113 Zn107 2.114 . S
O113 C108 1.166 . S
O114 Zn106 1.905 . S
O114 C108 1.182 . S
O115 Zn106 1.898 . S
O115 C109 1.167 . S
O116 Zn107 2.120 . S
O116 C109 1.299 . S
O117 Zn105 1.898 . S
O117 C112 1.167 . S
O118 Zn107 2.120 . S
O118 C112 1.299 . S
O119 Zn107 2.114 . S
O119 C121 1.166 . S
O120 Zn105 1.905 . S
O120 C121 1.182 . S
C121 O119 1.166 . S
C121 O120 1.182 . S
O122 Zn107 2.080 . S
O122 C125 1.305 . S
O123 Zn106 1.920 . S
O123 C125 1.234 . S
C124 O110 1.305 . S
C124 O111 1.234 . S
C125 O122 1.305 . S
C125 O123 1.234 . S
Zn126 O132 1.920 . S
Zn126 O138 1.898 . S
Zn126 O141 1.905 . S
Zn127 O135 1.905 . S
Zn127 O136 1.898 . S
Zn127 O144 1.920 . S
Zn128 O131 2.080 . S
Zn128 O134 2.114 . S
Zn128 O137 2.120 . S
Zn128 O139 2.120 . S
Zn128 O140 2.114 . S
Zn128 O143 2.080 . S
C129 O134 1.166 . S
C129 O135 1.182 . S
C130 O136 1.167 . S
C130 O137 1.299 . S
O131 Zn128 2.080 . S
O131 C145 1.305 . S
O132 Zn126 1.920 . S
O132 C145 1.234 . S
C133 O138 1.167 . S
C133 O139 1.299 . S
O134 Zn128 2.114 . S
O134 C129 1.166 . S
O135 Zn127 1.905 . S
O135 C129 1.182 . S
O136 Zn127 1.898 . S
O136 C130 1.167 . S
O137 Zn128 2.120 . S
O137 C130 1.299 . S
O138 Zn126 1.898 . S
O138 C133 1.167 . S
O139 Zn128 2.120 . S
O139 C133 1.299 . S
O140 Zn128 2.114 . S
O140 C142 1.166 . S
O141 Zn126 1.905 . S
O141 C142 1.182 . S
C142 O140 1.166 . S
C142 O141 1.182 . S
O143 Zn128 2.080 . S
O143 C146 1.305 . S
O144 Zn127 1.920 . S
O144 C146 1.234 . S
C145 O131 1.305 . S
C145 O132 1.234 . S
C146 O143 1.305 . S
C146 O144 1.234 . S
Zn147 O153 1.920 . S
Zn147 O159 1.898 . S
Zn147 O162 1.905 . S
Zn148 O156 1.905 . S
Zn148 O157 1.898 . S
Zn148 O165 1.920 . S
Zn149 O152 2.080 . S
Zn149 O155 2.114 . S
Zn149 O158 2.120 . S
Zn149 O160 2.120 . S
Zn149 O161 2.114 . S
Zn149 O164 2.080 . S
C150 O155 1.166 . S
C150 O156 1.182 . S
C151 O157 1.167 . S
C151 O158 1.299 . S
O152 Zn149 2.080 . S
O152 C166 1.305 . S
O153 Zn147 1.920 . S
O153 C166 1.234 . S
C154 O159 1.167 . S
C154 O160 1.299 . S
O155 Zn149 2.114 . S
O155 C150 1.166 . S
O156 Zn148 1.905 . S
O156 C150 1.182 . S
O157 Zn148 1.898 . S
O157 C151 1.167 . S
O158 Zn149 2.120 . S
O158 C151 1.299 . S
O159 Zn147 1.898 . S
O159 C154 1.167 . S
O160 Zn149 2.120 . S
O160 C154 1.299 . S
O161 Zn149 2.114 . S
O161 C163 1.166 . S
O162 Zn147 1.905 . S
O162 C163 1.182 . S
C163 O161 1.166 . S
C163 O162 1.182 . S
O164 Zn149 2.080 . S
O164 C167 1.305 . S
O165 Zn148 1.920 . S
O165 C167 1.234 . S
C166 O152 1.305 . S
C166 O153 1.234 . S
C167 O164 1.305 . S
C167 O165 1.234 . S
Zn168 O174 1.920 . S
Zn168 O180 1.898 . S
Zn168 O183 1.905 . S
Zn169 O177 1.905 . S
Zn169 O178 1.898 . S
Zn169 O186 1.920 . S
Zn170 O173 2.080 . S
Zn170 O176 2.114 . S
Zn170 O179 2.120 . S
Zn170 O181 2.120 . S
Zn170 O182 2.114 . S
Zn170 O185 2.080 . S
C171 O176 1.166 . S
C171 O177 1.182 . S
C172 O178 1.167 . S
C172 O179 1.299 . S
O173 Zn170 2.080 . S
O173 C187 1.305 . S
O174 Zn168 1.920 . S
O174 C187 1.234 . S
C175 O180 1.167 . S
C175 O181 1.299 . S
O176 Zn170 2.114 . S
O176 C171 1.166 . S
O177 Zn169 1.905 . S
O177 C171 1.182 . S
O178 Zn169 1.898 . S
O178 C172 1.167 . S
O179 Zn170 2.120 . S
O179 C172 1.299 . S
O180 Zn168 1.898 . S
O180 C175 1.167 . S
O181 Zn170 2.120 . S
O181 C175 1.299 . S
O182 Zn170 2.114 . S
O182 C184 1.166 . S
O183 Zn168 1.905 . S
O183 C184 1.182 . S
C184 O182 1.166 . S
C184 O183 1.182 . S
O185 Zn170 2.080 . S
O185 C188 1.305 . S
O186 Zn169 1.920 . S
O186 C188 1.234 . S
C187 O173 1.305 . S
C187 O174 1.234 . S
C188 O185 1.305 . S
C188 O186 1.234 . S
Zn189 O195 1.920 . S
Zn189 O201 1.898 . S
Zn189 O204 1.905 . S
Zn190 O198 1.905 . S
Zn190 O199 1.898 . S
Zn190 O207 1.920 . S
Zn191 O194 2.080 . S
Zn191 O197 2.114 . S
Zn191 O200 2.120 . S
Zn191 O202 2.120 . S
Zn191 O203 2.114 . S
Zn191 O206 2.080 . S
C192 O197 1.166 . S
C192 O198 1.182 . S
C193 O199 1.167 . S
C193 O200 1.299 . S
O194 Zn191 2.080 . S
O194 C208 1.305 . S
O195 Zn189 1.920 . S
O195 C208 1.234 . S
C196 O201 1.167 . S
C196 O202 1.299 . S
O197 Zn191 2.114 . S
O197 C192 1.166 . S
O198 Zn190 1.905 . S
O198 C192 1.182 . S
O199 Zn190 1.898 . S
O199 C193 1.167 . S
O200 Zn191 2.120 . S
O200 C193 1.299 . S
O201 Zn189 1.898 . S
O201 C196 1.167 . S
O202 Zn191 2.120 . S
O202 C196 1.299 . S
O203 Zn191 2.114 . S
O203 C205 1.166 . S
O204 Zn189 1.905 . S
O204 C205 1.182 . S
C205 O203 1.166 . S
C205 O204 1.182 . S
O206 Zn191 2.080 . S
O206 C209 1.305 . S
O207 Zn190 1.920 . S
O207 C209 1.234 . S
C208 O194 1.305 . S
C208 O195 1.234 . S
C209 O206 1.305 . S
C209 O207 1.234 . S
Zn210 O216 1.920 . S
Zn210 O222 1.898 . S
Zn210 O225 1.905 . S
Zn211 O219 1.905 . S
Zn211 O220 1.898 . S
Zn211 O228 1.920 . S
Zn212 O215 2.080 . S
Zn212 O218 2.114 . S
Zn212 O221 2.120 . S
Zn212 O223 2.120 . S
Zn212 O224 2.114 . S
Zn212 O227 2.080 . S
C213 O218 1.166 . S
C213 O219 1.182 . S
C214 O220 1.167 . S
C214 O221 1.299 . S
O215 Zn212 2.080 . S
O215 C229 1.305 . S
O216 Zn210 1.920 . S
O216 C229 1.234 . S
C217 O222 1.167 . S
C217 O223 1.299 . S
O218 Zn212 2.114 . S
O218 C213 1.166 . S
O219 Zn211 1.905 . S
O219 C213 1.182 . S
O220 Zn211 1.898 . S
O220 C214 1.167 . S
O221 Zn212 2.120 . S
O221 C214 1.299 . S
O222 Zn210 1.898 . S
O222 C217 1.167 . S
O223 Zn212 2.120 . S
O223 C217 1.299 . S
O224 Zn212 2.114 . S
O224 C226 1.166 . S
O225 Zn210 1.905 . S
O225 C226 1.182 . S
C226 O224 1.166 . S
C226 O225 1.182 . S
O227 Zn212 2.080 . S
O227 C230 1.305 . S
O228 Zn211 1.920 . S
O228 C230 1.234 . S
C229 O215 1.305 . S
C229 O216 1.234 . S
C230 O227 1.305 . S
C230 O228 1.234 . S
Zn231 O237 1.920 . S
Zn231 O243 1.898 . S
Zn231 O246 1.905 . S
Zn232 O240 1.905 . S
Zn232 O241 1.898 . S
Zn232 O249 1.920 . S
Zn233 O236 2.080 . S
Zn233 O239 2.114 . S
Zn233 O242 2.120 . S
Zn233 O244 2.120 . S
Zn233 O245 2.114 . S
Zn233 O248 2.080 . S
C234 O239 1.166 . S
C234 O240 1.182 . S
C235 O241 1.167 . S
C235 O242 1.299 . S
O236 Zn233 2.080 . S
O236 C250 1.305 . S
O237 Zn231 1.920 . S
O237 C250 1.234 . S
C238 O243 1.167 . S
C238 O244 1.299 . S
O239 Zn233 2.114 . S
O239 C234 1.166 . S
O240 Zn232 1.905 . S
O240 C234 1.182 . S
O241 Zn232 1.898 . S
O241 C235 1.167 . S
O242 Zn233 2.120 . S
O242 C235 1.299 . S
O243 Zn231 1.898 . S
O243 C238 1.167 . S
O244 Zn233 2.120 . S
O244 C238 1.299 . S
O245 Zn233 2.114 . S
O245 C247 1.166 . S
O246 Zn231 1.905 . S
O246 C247 1.182 . S
C247 O245 1.166 . S
C247 O246 1.182 . S
O248 Zn233 2.080 . S
O248 C251 1.305 . S
O249 Zn232 1.920 . S
O249 C251 1.234 . S
C250 O236 1.305 . S
C250 O237 1.234 . S
C251 O248 1.305 . S
C251 O249 1.234 . S
Zn252 O258 1.920 . S
Zn252 O264 1.898 . S
Zn252 O267 1.905 1_655 S
Zn253 O261 1.905 . S
Zn253 O262 1.898 . S
Zn253 O270 1.920 . S
Zn254 O257 2.080 . S
Zn254 O260 2.114 . S
Zn254 O263 2.120 . S
Zn254 O265 2.120 . S
Zn254 O266 2.114 . S
Zn254 O269 2.080 . S
C255 O260 1.166 . S
C255 O261 1.182 . S
C256 O262 1.167 . S
C256 O263 1.299 . S
O257 Zn254 2.080 . S
O257 C271 1.305 . S
O258 Zn252 1.920 . S
O258 C271 1.234 . S
C259 O264 1.167 . S
C259 O265 1.299 . S
O260 Zn254 2.114 . S
O260 C255 1.166 . S
O261 Zn253 1.905 . S
O261 C255 1.182 . S
O262 Zn253 1.898 . S
O262 C256 1.167 . S
O263 Zn254 2.120 . S
O263 C256 1.299 . S
O264 Zn252 1.898 . S
O264 C259 1.167 . S
O265 Zn254 2.120 . S
O265 C259 1.299 . S
O266 Zn254 2.114 . S
O266 C268 1.166 1_655 S
O267 Zn252 1.905 1_455 S
O267 C268 1.182 . S
C268 O266 1.166 1_455 S
C268 O267 1.182 . S
O269 Zn254 2.080 . S
O269 C272 1.305 . S
O270 Zn253 1.920 . S
O270 C272 1.234 . S
C271 O257 1.305 . S
C271 O258 1.234 . S
C272 O269 1.305 . S
C272 O270 1.234 . S
Zn273 O279 1.920 . S
Zn273 O285 1.898 . S
Zn273 O288 1.905 . S
Zn274 O282 1.905 . S
Zn274 O283 1.898 . S
Zn274 O291 1.920 . S
Zn275 O278 2.080 . S
Zn275 O281 2.114 . S
Zn275 O284 2.120 . S
Zn275 O286 2.120 . S
Zn275 O287 2.114 . S
Zn275 O290 2.080 . S
C276 O281 1.166 . S
C276 O282 1.182 . S
C277 O283 1.167 . S
C277 O284 1.299 . S
O278 Zn275 2.080 . S
O278 C292 1.305 . S
O279 Zn273 1.920 . S
O279 C292 1.234 . S
C280 O285 1.167 . S
C280 O286 1.299 . S
O281 Zn275 2.114 . S
O281 C276 1.166 . S
O282 Zn274 1.905 . S
O282 C276 1.182 . S
O283 Zn274 1.898 . S
O283 C277 1.167 . S
O284 Zn275 2.120 . S
O284 C277 1.299 . S
O285 Zn273 1.898 . S
O285 C280 1.167 . S
O286 Zn275 2.120 . S
O286 C280 1.299 . S
O287 Zn275 2.114 . S
O287 C289 1.166 . S
O288 Zn273 1.905 . S
O288 C289 1.182 . S
C289 O287 1.166 . S
C289 O288 1.182 . S
O290 Zn275 2.080 . S
O290 C293 1.305 . S
O291 Zn274 1.920 . S
O291 C293 1.234 . S
C292 O278 1.305 . S
C292 O279 1.234 . S
C293 O290 1.305 . S
C293 O291 1.234 . S
Zn294 O300 1.920 . S
Zn294 O306 1.898 . S
Zn294 O309 1.905 1_545 S
Zn295 O303 1.905 . S
Zn295 O304 1.898 . S
Zn295 O312 1.920 . S
Zn296 O299 2.080 . S
Zn296 O302 2.114 . S
Zn296 O305 2.120 . S
Zn296 O307 2.120 . S
Zn296 O308 2.114 . S
Zn296 O311 2.080 . S
C297 O302 1.166 . S
C297 O303 1.182 . S
C298 O304 1.167 . S
C298 O305 1.299 . S
O299 Zn296 2.080 . S
O299 C313 1.305 . S
O300 Zn294 1.920 . S
O300 C313 1.234 . S
C301 O306 1.167 . S
C301 O307 1.299 . S
O302 Zn296 2.114 . S
O302 C297 1.166 . S
O303 Zn295 1.905 . S
O303 C297 1.182 . S
O304 Zn295 1.898 . S
O304 C298 1.167 . S
O305 Zn296 2.120 . S
O305 C298 1.299 . S
O306 Zn294 1.898 . S
O306 C301 1.167 . S
O307 Zn296 2.120 . S
O307 C301 1.299 . S
O308 Zn296 2.114 . S
O308 C310 1.166 1_545 S
O309 Zn294 1.905 1_565 S
O309 C310 1.182 . S
C310 O308 1.166 1_565 S
C310 O309 1.182 . S
O311 Zn296 2.080 . S
O311 C314 1.305 . S
O312 Zn295 1.920 . S
O312 C314 1.234 . S
C313 O299 1.305 . S
C313 O300 1.234 . S
C314 O311 1.305 . S
C314 O312 1.234 . S
Zn315 O321 1.920 . S
Zn315 O327 1.898 . S
Zn315 O330 1.905 . S
Zn316 O324 1.905 1_545 S
Zn316 O325 1.898 . S
Zn316 O333 1.920 . S
Zn317 O320 2.080 . S
Zn317 O323 2.114 . S
Zn317 O326 2.120 . S
Zn317 O328 2.120 . S
Zn317 O329 2.114 . S
Zn317 O332 2.080 . S
C318 O323 1.166 1_565 S
C318 O324 1.182 . S
C319 O325 1.167 . S
C319 O326 1.299 . S
O320 Zn317 2.080 . S
O320 C334 1.305 . S
O321 Zn315 1.920 . S
O321 C334 1.234 . S
C322 O327 1.167 . S
C322 O328 1.299 . S
O323 Zn317 2.114 . S
O323 C318 1.166 1_545 S
O324 Zn316 1.905 1_565 S
O324 C318 1.182 . S
O325 Zn316 1.898 . S
O325 C319 1.167 . S
O326 Zn317 2.120 . S
O326 C319 1.299 . S
O327 Zn315 1.898 . S
O327 C322 1.167 . S
O328 Zn317 2.120 . S
O328 C322 1.299 . S
O329 Zn317 2.114 . S
O329 C331 1.166 . S
O330 Zn315 1.905 . S
O330 C331 1.182 . S
C331 O329 1.166 . S
C331 O330 1.182 . S
O332 Zn317 2.080 . S
O332 C335 1.305 . S
O333 Zn316 1.920 . S
O333 C335 1.234 . S
C334 O320 1.305 . S
C334 O321 1.234 . S
C335 O332 1.305 . S
C335 O333 1.234 . S
Zn336 O342 1.920 . S
Zn336 O348 1.898 . S
Zn336 O351 1.905 1_655 S
Zn337 O345 1.905 . S
Zn337 O346 1.898 . S
Zn337 O354 1.920 . S
Zn338 O341 2.080 . S
Zn338 O344 2.114 . S
Zn338 O347 2.120 . S
Zn338 O349 2.120 . S
Zn338 O350 2.114 . S
Zn338 O353 2.080 . S
C339 O344 1.166 . S
C339 O345 1.182 . S
C340 O346 1.167 . S
C340 O347 1.299 . S
O341 Zn338 2.080 . S
O341 C355 1.305 . S
O342 Zn336 1.920 . S
O342 C355 1.234 . S
C343 O348 1.167 . S
C343 O349 1.299 . S
O344 Zn338 2.114 . S
O344 C339 1.166 . S
O345 Zn337 1.905 . S
O345 C339 1.182 . S
O346 Zn337 1.898 . S
O346 C340 1.167 . S
O347 Zn338 2.120 . S
O347 C340 1.299 . S
O348 Zn336 1.898 . S
O348 C343 1.167 . S
O349 Zn338 2.120 . S
O349 C343 1.299 . S
O350 Zn338 2.114 . S
O350 C352 1.166 1_655 S
O351 Zn336 1.905 1_455 S
O351 C352 1.182 . S
C352 O350 1.166 1_455 S
C352 O351 1.182 . S
O353 Zn338 2.080 . S
O353 C356 1.305 . S
O354 Zn337 1.920 . S
O354 C356 1.234 . S
C355 O341 1.305 . S
C355 O342 1.234 . S
C356 O353 1.305 . S
C356 O354 1.234 . S
Zn357 O363 1.920 . S
Zn357 O369 1.898 . S
Zn357 O372 1.905 . S
Zn358 O366 1.905 . S
Zn358 O367 1.898 . S
Zn358 O375 1.920 . S
Zn359 O362 2.080 . S
Zn359 O365 2.114 . S
Zn359 O368 2.120 . S
Zn359 O370 2.120 . S
Zn359 O371 2.114 . S
Zn359 O374 2.080 . S
C360 O365 1.166 . S
C360 O366 1.182 . S
C361 O367 1.167 . S
C361 O368 1.299 . S
O362 Zn359 2.080 . S
O362 C376 1.305 . S
O363 Zn357 1.920 . S
O363 C376 1.234 . S
C364 O369 1.167 . S
C364 O370 1.299 . S
O365 Zn359 2.114 . S
O365 C360 1.166 . S
O366 Zn358 1.905 . S
O366 C360 1.182 . S
O367 Zn358 1.898 . S
O367 C361 1.167 . S
O368 Zn359 2.120 . S
O368 C361 1.299 . S
O369 Zn357 1.898 . S
O369 C364 1.167 . S
O370 Zn359 2.120 . S
O370 C364 1.299 . S
O371 Zn359 2.114 . S
O371 C373 1.166 . S
O372 Zn357 1.905 . S
O372 C373 1.182 . S
C373 O371 1.166 . S
C373 O372 1.182 . S
O374 Zn359 2.080 . S
O374 C377 1.305 . S
O375 Zn358 1.920 . S
O375 C377 1.234 . S
C376 O362 1.305 . S
C376 O363 1.234 . S
C377 O374 1.305 . S
C377 O375 1.234 . S
C378 C379 1.369 . S
C378 C380 1.419 . S
C378 H382 0.930 . S
C379 C378 1.369 . S
C379 C388 1.429 1_554 S
C380 C378 1.419 . S
C380 C381 1.363 1_554 S
C380 H383 0.929 . S
C381 C380 1.363 1_556 S
C381 C387 1.428 . S
H382 C378 0.930 . S
H383 C380 0.929 . S
S384 N385 1.613 . S
S384 N386 1.610 . S
N385 S384 1.613 . S
N385 C388 1.350 . S
N386 S384 1.610 . S
N386 C387 1.351 . S
C387 C381 1.428 . S
C387 N386 1.351 . S
C387 C388 1.434 . S
C388 C379 1.429 1_556 S
C388 N385 1.350 . S
C388 C387 1.434 . S
C389 C390 1.369 . S
C389 C391 1.419 . S
C389 H393 0.930 . S
C390 C389 1.369 . S
C390 C399 1.429 1_556 S
C391 C389 1.419 . S
C391 C392 1.363 1_556 S
C391 H394 0.929 . S
C392 C391 1.363 1_554 S
C392 C398 1.428 . S
H393 C389 0.930 . S
H394 C391 0.929 . S
S395 N396 1.613 . S
S395 N397 1.610 . S
N396 S395 1.613 . S
N396 C399 1.350 . S
N397 S395 1.610 . S
N397 C398 1.351 . S
C398 C392 1.428 . S
C398 N397 1.351 . S
C398 C399 1.434 . S
C399 C390 1.429 1_554 S
C399 N396 1.350 . S
C399 C398 1.434 . S
C400 C401 1.369 . S
C400 C402 1.419 . S
C400 H404 0.930 . S
C401 C400 1.369 . S
C401 C410 1.429 1_554 S
C402 C400 1.419 . S
C402 C403 1.363 1_554 S
C402 H405 0.929 . S
C403 C402 1.363 1_556 S
C403 C409 1.428 . S
H404 C400 0.930 . S
H405 C402 0.929 . S
S406 N407 1.613 . S
S406 N408 1.610 . S
N407 S406 1.613 . S
N407 C410 1.350 . S
N408 S406 1.610 . S
N408 C409 1.351 . S
C409 C403 1.428 . S
C409 N408 1.351 . S
C409 C410 1.434 . S
C410 C401 1.429 1_556 S
C410 N407 1.350 . S
C410 C409 1.434 . S
C411 C412 1.369 . S
C411 C413 1.419 . S
C411 H415 0.930 . S
C412 C411 1.369 . S
C412 C421 1.429 . S
C413 C411 1.419 . S
C413 C414 1.363 . S
C413 H416 0.929 . S
C414 C413 1.363 . S
C414 C420 1.428 . S
H415 C411 0.930 . S
H416 C413 0.929 . S
S417 N418 1.613 . S
S417 N419 1.610 . S
N418 S417 1.613 . S
N418 C421 1.350 . S
N419 S417 1.610 . S
N419 C420 1.351 . S
C420 C414 1.428 . S
C420 N419 1.351 . S
C420 C421 1.434 . S
C421 C412 1.429 . S
C421 N418 1.350 . S
C421 C420 1.434 . S
C422 C423 1.369 . S
C422 C424 1.419 . S
C422 H426 0.930 . S
C423 C422 1.369 . S
C423 C432 1.429 . S
C424 C422 1.419 . S
C424 C425 1.363 . S
C424 H427 0.929 . S
C425 C424 1.363 . S
C425 C431 1.428 . S
H426 C422 0.930 . S
H427 C424 0.929 . S
S428 N429 1.613 . S
S428 N430 1.610 . S
N429 S428 1.613 . S
N429 C432 1.350 . S
N430 S428 1.610 . S
N430 C431 1.351 . S
C431 C425 1.428 . S
C431 N430 1.351 . S
C431 C432 1.434 . S
C432 C423 1.429 . S
C432 N429 1.350 . S
C432 C431 1.434 . S
C433 C434 1.369 . S
C433 C435 1.419 . S
C433 H437 0.930 . S
C434 C433 1.369 . S
C434 C443 1.429 . S
C435 C433 1.419 . S
C435 C436 1.363 . S
C435 H438 0.929 . S
C436 C435 1.363 . S
C436 C442 1.428 . S
H437 C433 0.930 . S
H438 C435 0.929 . S
S439 N440 1.613 . S
S439 N441 1.610 . S
N440 S439 1.613 . S
N440 C443 1.350 . S
N441 S439 1.610 . S
N441 C442 1.351 . S
C442 C436 1.428 . S
C442 N441 1.351 . S
C442 C443 1.434 . S
C443 C434 1.429 . S
C443 N440 1.350 . S
C443 C442 1.434 . S
C444 C445 1.369 . S
C444 C446 1.419 . S
C444 H448 0.930 . S
C445 C444 1.369 . S
C445 C454 1.429 . S
C446 C444 1.419 . S
C446 C447 1.363 . S
C446 H449 0.929 . S
C447 C446 1.363 . S
C447 C453 1.428 . S
H448 C444 0.930 . S
H449 C446 0.929 . S
S450 N451 1.613 . S
S450 N452 1.610 . S
N451 S450 1.613 . S
N451 C454 1.350 . S
N452 S450 1.610 . S
N452 C453 1.351 . S
C453 C447 1.428 . S
C453 N452 1.351 . S
C453 C454 1.434 . S
C454 C445 1.429 . S
C454 N451 1.350 . S
C454 C453 1.434 . S
C455 C456 1.369 . S
C455 C457 1.419 . S
C455 H459 0.930 . S
C456 C455 1.369 . S
C456 C465 1.429 . S
C457 C455 1.419 . S
C457 C458 1.363 . S
C457 H460 0.929 . S
C458 C457 1.363 . S
C458 C464 1.428 . S
H459 C455 0.930 . S
H460 C457 0.929 . S
S461 N462 1.613 . S
S461 N463 1.610 . S
N462 S461 1.613 . S
N462 C465 1.350 . S
N463 S461 1.610 . S
N463 C464 1.351 . S
C464 C458 1.428 . S
C464 N463 1.351 . S
C464 C465 1.434 . S
C465 C456 1.429 . S
C465 N462 1.350 . S
C465 C464 1.434 . S
C466 C467 1.369 . S
C466 C468 1.419 . S
C466 H470 0.930 . S
C467 C466 1.369 . S
C467 C476 1.429 . S
C468 C466 1.419 . S
C468 C469 1.363 . S
C468 H471 0.929 . S
C469 C468 1.363 . S
C469 C475 1.428 . S
H470 C466 0.930 . S
H471 C468 0.929 . S
S472 N473 1.613 . S
S472 N474 1.610 . S
N473 S472 1.613 . S
N473 C476 1.350 . S
N474 S472 1.610 . S
N474 C475 1.351 . S
C475 C469 1.428 . S
C475 N474 1.351 . S
C475 C476 1.434 . S
C476 C467 1.429 . S
C476 N473 1.350 . S
C476 C475 1.434 . S
C477 C478 1.369 . S
C477 C479 1.419 . S
C477 H481 0.930 . S
C478 C477 1.369 . S
C478 C487 1.429 . S
C479 C477 1.419 . S
C479 C480 1.363 . S
C479 H482 0.929 . S
C480 C479 1.363 . S
C480 C486 1.428 . S
H481 C477 0.930 . S
H482 C479 0.929 . S
S483 N484 1.613 . S
S483 N485 1.610 . S
N484 S483 1.613 . S
N484 C487 1.350 . S
N485 S483 1.610 . S
N485 C486 1.351 . S
C486 C480 1.428 . S
C486 N485 1.351 . S
C486 C487 1.434 . S
C487 C478 1.429 . S
C487 N484 1.350 . S
C487 C486 1.434 . S
C488 C489 1.369 . S
C488 C490 1.419 . S
C488 H492 0.930 . S
C489 C488 1.369 . S
C489 C498 1.429 . S
C490 C488 1.419 . S
C490 C491 1.363 . S
C490 H493 0.929 . S
C491 C490 1.363 . S
C491 C497 1.428 . S
H492 C488 0.930 . S
H493 C490 0.929 . S
S494 N495 1.613 . S
S494 N496 1.610 . S
N495 S494 1.613 . S
N495 C498 1.350 . S
N496 S494 1.610 . S
N496 C497 1.351 . S
C497 C491 1.428 . S
C497 N496 1.351 . S
C497 C498 1.434 . S
C498 C489 1.429 . S
C498 N495 1.350 . S
C498 C497 1.434 . S
C499 C500 1.369 . S
C499 C501 1.419 . S
C499 H503 0.930 . S
C500 C499 1.369 . S
C500 C509 1.429 . S
C501 C499 1.419 . S
C501 C502 1.363 . S
C501 H504 0.929 . S
C502 C501 1.363 . S
C502 C508 1.428 . S
H503 C499 0.930 . S
H504 C501 0.929 . S
S505 N506 1.613 . S
S505 N507 1.610 . S
N506 S505 1.613 . S
N506 C509 1.350 . S
N507 S505 1.610 . S
N507 C508 1.351 . S
C508 C502 1.428 . S
C508 N507 1.351 . S
C508 C509 1.434 . S
C509 C500 1.429 . S
C509 N506 1.350 . S
C509 C508 1.434 . S
C510 C511 1.369 . S
C510 C512 1.419 . S
C510 H514 0.930 . S
C511 C510 1.369 . S
C511 C520 1.429 . S
C512 C510 1.419 . S
C512 C513 1.363 . S
C512 H515 0.929 . S
C513 C512 1.363 . S
C513 C519 1.428 . S
H514 C510 0.930 . S
H515 C512 0.929 . S
S516 N517 1.613 . S
S516 N518 1.610 . S
N517 S516 1.613 . S
N517 C520 1.350 . S
N518 S516 1.610 . S
N518 C519 1.351 . S
C519 C513 1.428 . S
C519 N518 1.351 . S
C519 C520 1.434 . S
C520 C511 1.429 . S
C520 N517 1.350 . S
C520 C519 1.434 . S
C521 C522 1.369 1_565 S
C521 C523 1.419 . S
C521 H525 0.930 . S
C522 C521 1.369 1_545 S
C522 C531 1.429 1_545 S
C523 C521 1.419 . S
C523 C524 1.363 . S
C523 H526 0.929 . S
C524 C523 1.363 . S
C524 C530 1.428 . S
H525 C521 0.930 . S
H526 C523 0.929 . S
S527 N528 1.613 . S
S527 N529 1.610 1_545 S
N528 S527 1.613 . S
N528 C531 1.350 1_545 S
N529 S527 1.610 1_565 S
N529 C530 1.351 . S
C530 C524 1.428 . S
C530 N529 1.351 . S
C530 C531 1.434 . S
C531 C522 1.429 1_565 S
C531 N528 1.350 1_565 S
C531 C530 1.434 . S
C532 C533 1.369 1_455 S
C532 C534 1.419 . S
C532 H536 0.930 . S
C533 C532 1.369 1_655 S
C533 C542 1.429 1_655 S
C534 C532 1.419 . S
C534 C535 1.363 . S
C534 H537 0.929 . S
C535 C534 1.363 . S
C535 C541 1.428 . S
H536 C532 0.930 . S
H537 C534 0.929 . S
S538 N539 1.613 1_455 S
S538 N540 1.610 . S
N539 S538 1.613 1_655 S
N539 C542 1.350 1_655 S
N540 S538 1.610 . S
N540 C541 1.351 . S
C541 C535 1.428 . S
C541 N540 1.351 . S
C541 C542 1.434 . S
C542 C533 1.429 1_455 S
C542 N539 1.350 1_455 S
C542 C541 1.434 . S
C543 C544 1.369 . S
C543 C545 1.419 . S
C543 H547 0.930 . S
C544 C543 1.369 . S
C544 C553 1.429 . S
C545 C543 1.419 . S
C545 C546 1.363 . S
C545 H548 0.929 . S
C546 C545 1.363 . S
C546 C552 1.428 . S
H547 C543 0.930 . S
H548 C545 0.929 . S
S549 N550 1.613 . S
S549 N551 1.610 . S
N550 S549 1.613 . S
N550 C553 1.350 . S
N551 S549 1.610 . S
N551 C552 1.351 . S
C552 C546 1.428 . S
C552 N551 1.351 . S
C552 C553 1.434 . S
C553 C544 1.429 . S
C553 N550 1.350 . S
C553 C552 1.434 . S
C554 C555 1.369 . S
C554 C556 1.419 . S
C554 H558 0.930 . S
C555 C554 1.369 . S
C555 C564 1.429 . S
C556 C554 1.419 . S
C556 C557 1.363 1_565 S
C556 H559 0.929 . S
C557 C556 1.363 1_545 S
C557 C563 1.428 1_545 S
H558 C554 0.930 . S
H559 C556 0.929 . S
S560 N561 1.613 . S
S560 N562 1.610 1_565 S
N561 S560 1.613 . S
N561 C564 1.350 . S
N562 S560 1.610 1_545 S
N562 C563 1.351 1_545 S
C563 C557 1.428 1_565 S
C563 N562 1.351 1_565 S
C563 C564 1.434 . S
C564 C555 1.429 . S
C564 N561 1.350 . S
C564 C563 1.434 . S
C565 C566 1.369 . S
C565 C567 1.419 . S
C565 H569 0.930 . S
C566 C565 1.369 . S
C566 C575 1.429 . S
C567 C565 1.419 . S
C567 C568 1.363 1_455 S
C567 H570 0.929 1_455 S
C568 C567 1.363 1_655 S
C568 C574 1.428 1_655 S
H569 C565 0.930 . S
H570 C567 0.929 1_655 S
S571 N572 1.613 . S
S571 N573 1.610 . S
N572 S571 1.613 . S
N572 C575 1.350 . S
N573 S571 1.610 . S
N573 C574 1.351 . S
C574 C568 1.428 1_455 S
C574 N573 1.351 . S
C574 C575 1.434 . S
C575 C566 1.429 . S
C575 N572 1.350 . S
C575 C574 1.434 . S
C576 C577 1.369 . S
C576 C578 1.419 . S
C576 H580 0.930 . S
C577 C576 1.369 . S
C577 C586 1.429 . S
C578 C576 1.419 . S
C578 C579 1.363 . S
C578 H581 0.929 . S
C579 C578 1.363 . S
C579 C585 1.428 . S
H580 C576 0.930 . S
H581 C578 0.929 . S
S582 N583 1.613 . S
S582 N584 1.610 . S
N583 S582 1.613 . S
N583 C586 1.350 . S
N584 S582 1.610 . S
N584 C585 1.351 . S
C585 C579 1.428 . S
C585 N584 1.351 . S
C585 C586 1.434 . S
C586 C577 1.429 . S
C586 N583 1.350 . S
C586 C585 1.434 . S
C587 C588 1.369 . S
C587 C589 1.419 . S
C587 H591 0.930 . S
C588 C587 1.369 . S
C588 C597 1.429 . S
C589 C587 1.419 . S
C589 C590 1.363 . S
C589 H592 0.929 . S
C590 C589 1.363 . S
C590 C596 1.428 . S
H591 C587 0.930 . S
H592 C589 0.929 . S
S593 N594 1.613 . S
S593 N595 1.610 . S
N594 S593 1.613 . S
N594 C597 1.350 . S
N595 S593 1.610 . S
N595 C596 1.351 . S
C596 C590 1.428 . S
C596 N595 1.351 . S
C596 C597 1.434 . S
C597 C588 1.429 . S
C597 N594 1.350 . S
C597 C596 1.434 . S
C598 C599 1.369 . S
C598 C600 1.419 . S
C598 H602 0.930 . S
C599 C598 1.369 . S
C599 C608 1.429 . S
C600 C598 1.419 . S
C600 C601 1.363 . S
C600 H603 0.929 . S
C601 C600 1.363 . S
C601 C607 1.428 . S
H602 C598 0.930 . S
H603 C600 0.929 . S
S604 N605 1.613 . S
S604 N606 1.610 . S
N605 S604 1.613 . S
N605 C608 1.350 . S
N606 S604 1.610 . S
N606 C607 1.351 . S
C607 C601 1.428 . S
C607 N606 1.351 . S
C607 C608 1.434 . S
C608 C599 1.429 . S
C608 N605 1.350 . S
C608 C607 1.434 . S
C609 C610 1.369 . S
C609 C611 1.419 . S
C609 H613 0.930 . S
C610 C609 1.369 . S
C610 C619 1.429 . S
C611 C609 1.419 . S
C611 C612 1.363 . S
C611 H614 0.929 . S
C612 C611 1.363 . S
C612 C618 1.428 . S
H613 C609 0.930 . S
H614 C611 0.929 . S
S615 N616 1.613 . S
S615 N617 1.610 . S
N616 S615 1.613 . S
N616 C619 1.350 . S
N617 S615 1.610 . S
N617 C618 1.351 . S
C618 C612 1.428 . S
C618 N617 1.351 . S
C618 C619 1.434 . S
C619 C610 1.429 . S
C619 N616 1.350 . S
C619 C618 1.434 . S
C620 C621 1.369 . S
C620 C622 1.419 . S
C620 H624 0.930 . S
C621 C620 1.369 . S
C621 C630 1.429 . S
C622 C620 1.419 . S
C622 C623 1.363 . S
C622 H625 0.929 . S
C623 C622 1.363 . S
C623 C629 1.428 . S
H624 C620 0.930 . S
H625 C622 0.929 . S
S626 N627 1.613 . S
S626 N628 1.610 . S
N627 S626 1.613 . S
N627 C630 1.350 . S
N628 S626 1.610 . S
N628 C629 1.351 . S
C629 C623 1.428 . S
C629 N628 1.351 . S
C629 C630 1.434 . S
C630 C621 1.429 . S
C630 N627 1.350 . S
C630 C629 1.434 . S
C631 C632 1.369 . S
C631 C633 1.419 . S
C631 H635 0.930 . S
C632 C631 1.369 . S
C632 C641 1.429 . S
C633 C631 1.419 . S
C633 C634 1.363 . S
C633 H636 0.929 . S
C634 C633 1.363 . S
C634 C640 1.428 . S
H635 C631 0.930 . S
H636 C633 0.929 . S
S637 N638 1.613 . S
S637 N639 1.610 . S
N638 S637 1.613 . S
N638 C641 1.350 . S
N639 S637 1.610 . S
N639 C640 1.351 . S
C640 C634 1.428 . S
C640 N639 1.351 . S
C640 C641 1.434 . S
C641 C632 1.429 . S
C641 N638 1.350 . S
C641 C640 1.434 . S
C642 C643 1.369 . S
C642 C644 1.419 . S
C642 H646 0.930 . S
C643 C642 1.369 . S
C643 C652 1.429 . S
C644 C642 1.419 . S
C644 C645 1.363 . S
C644 H647 0.929 . S
C645 C644 1.363 . S
C645 C651 1.428 . S
H646 C642 0.930 . S
H647 C644 0.929 . S
S648 N649 1.613 . S
S648 N650 1.610 . S
N649 S648 1.613 . S
N649 C652 1.350 . S
N650 S648 1.610 . S
N650 C651 1.351 . S
C651 C645 1.428 . S
C651 N650 1.351 . S
C651 C652 1.434 . S
C652 C643 1.429 . S
C652 N649 1.350 . S
C652 C651 1.434 . S
C653 C654 1.369 . S
C653 C655 1.419 . S
C653 H657 0.930 . S
C654 C653 1.369 . S
C654 C663 1.429 . S
C655 C653 1.419 . S
C655 C656 1.363 . S
C655 H658 0.929 . S
C656 C655 1.363 . S
C656 C662 1.428 . S
H657 C653 0.930 . S
H658 C655 0.929 . S
S659 N660 1.613 . S
S659 N661 1.610 . S
N660 S659 1.613 . S
N660 C663 1.350 . S
N661 S659 1.610 . S
N661 C662 1.351 . S
C662 C656 1.428 . S
C662 N661 1.351 . S
C662 C663 1.434 . S
C663 C654 1.429 . S
C663 N660 1.350 . S
C663 C662 1.434 . S
C664 C665 1.369 . S
C664 C666 1.419 . S
C664 H668 0.930 . S
C665 C664 1.369 . S
C665 C674 1.429 . S
C666 C664 1.419 . S
C666 C667 1.363 . S
C666 H669 0.929 . S
C667 C666 1.363 . S
C667 C673 1.428 . S
H668 C664 0.930 . S
H669 C666 0.929 . S
S670 N671 1.613 . S
S670 N672 1.610 . S
N671 S670 1.613 . S
N671 C674 1.350 . S
N672 S670 1.610 . S
N672 C673 1.351 . S
C673 C667 1.428 . S
C673 N672 1.351 . S
C673 C674 1.434 . S
C674 C665 1.429 . S
C674 N671 1.350 . S
C674 C673 1.434 . S
C675 C676 1.369 . S
C675 C677 1.419 . S
C675 H679 0.930 . S
C676 C675 1.369 . S
C676 C685 1.429 . S
C677 C675 1.419 . S
C677 C678 1.363 . S
C677 H680 0.929 . S
C678 C677 1.363 . S
C678 C684 1.428 . S
H679 C675 0.930 . S
H680 C677 0.929 . S
S681 N682 1.621 . S
S681 N683 1.610 . S
N682 S681 1.621 . S
N682 C685 1.357 . S
N683 S681 1.610 . S
N683 C684 1.351 . S
C684 C678 1.428 . S
C684 N683 1.351 . S
C684 C685 1.434 . S
C685 C676 1.429 . S
C685 N682 1.357 . S
C685 C684 1.434 . S
C686 C687 1.369 . S
C686 C688 1.419 . S
C686 H690 0.930 . S
C687 C686 1.369 . S
C687 C696 1.429 . S
C688 C686 1.419 . S
C688 C689 1.363 . S
C688 H691 0.929 . S
C689 C688 1.363 . S
C689 C695 1.428 . S
H690 C686 0.930 . S
H691 C688 0.929 . S
S692 N693 1.613 . S
S692 N694 1.610 . S
N693 S692 1.613 . S
N693 C696 1.350 . S
N694 S692 1.610 . S
N694 C695 1.351 . S
C695 C689 1.428 . S
C695 N694 1.351 . S
C695 C696 1.434 . S
C696 C687 1.429 . S
C696 N693 1.350 . S
C696 C695 1.434 . S
C697 C698 1.369 . S
C697 C699 1.419 . S
C697 H701 0.930 . S
C698 C697 1.369 . S
C698 C707 1.429 . S
C699 C697 1.419 . S
C699 C700 1.363 . S
C699 H702 0.929 . S
C700 C699 1.363 . S
C700 C706 1.428 . S
H701 C697 0.930 . S
H702 C699 0.929 . S
S703 N704 1.613 . S
S703 N705 1.610 . S
N704 S703 1.613 . S
N704 C707 1.350 . S
N705 S703 1.610 . S
N705 C706 1.351 . S
C706 C700 1.428 . S
C706 N705 1.351 . S
C706 C707 1.434 . S
C707 C698 1.429 . S
C707 N704 1.350 . S
C707 C706 1.434 . S
C708 C709 1.369 . S
C708 C710 1.419 . S
C708 H712 0.930 . S
C709 C708 1.369 . S
C709 C718 1.429 . S
C710 C708 1.419 . S
C710 C711 1.363 . S
C710 H713 0.929 . S
C711 C710 1.363 . S
C711 C717 1.428 . S
H712 C708 0.930 . S
H713 C710 0.929 . S
S714 N715 1.613 . S
S714 N716 1.610 . S
N715 S714 1.613 . S
N715 C718 1.350 . S
N716 S714 1.610 . S
N716 C717 1.351 . S
C717 C711 1.428 . S
C717 N716 1.351 . S
C717 C718 1.434 . S
C718 C709 1.429 . S
C718 N715 1.350 . S
C718 C717 1.434 . S
C719 C720 1.369 . S
C719 C721 1.419 . S
C719 H723 0.930 . S
C720 C719 1.369 . S
C720 C729 1.429 . S
C721 C719 1.419 . S
C721 C722 1.363 . S
C721 H724 0.929 . S
C722 C721 1.363 . S
C722 C728 1.428 . S
H723 C719 0.930 . S
H724 C721 0.929 . S
S725 N726 1.613 1_565 S
S725 N727 1.610 1_565 S
N726 S725 1.613 1_545 S
N726 C729 1.350 . S
N727 S725 1.610 1_545 S
N727 C728 1.351 . S
C728 C722 1.428 . S
C728 N727 1.351 . S
C728 C729 1.434 . S
C729 C720 1.429 . S
C729 N726 1.350 . S
C729 C728 1.434 . S
C730 C731 1.369 . S
C730 C732 1.419 . S
C730 H734 0.930 . S
C731 C730 1.369 . S
C731 C740 1.429 . S
C732 C730 1.419 . S
C732 C733 1.363 . S
C732 H735 0.929 . S
C733 C732 1.363 . S
C733 C739 1.428 . S
H734 C730 0.930 . S
H735 C732 0.929 . S
S736 N737 1.613 1_455 S
S736 N738 1.610 1_455 S
N737 S736 1.613 1_655 S
N737 C740 1.350 . S
N738 S736 1.610 1_655 S
N738 C739 1.351 . S
C739 C733 1.428 . S
C739 N738 1.351 . S
C739 C740 1.434 . S
C740 C731 1.429 . S
C740 N737 1.350 . S
C740 C739 1.434 . S
C741 C742 1.369 . S
C741 C743 1.419 . S
C741 H745 0.930 . S
C742 C741 1.369 . S
C742 C751 1.429 . S
C743 C741 1.419 . S
C743 C744 1.363 . S
C743 H746 0.929 . S
C744 C743 1.363 . S
C744 C750 1.428 . S
H745 C741 0.930 . S
H746 C743 0.929 . S
S747 N748 1.613 . S
S747 N749 1.610 . S
N748 S747 1.613 . S
N748 C751 1.350 . S
N749 S747 1.610 . S
N749 C750 1.351 . S
C750 C744 1.428 . S
C750 N749 1.351 . S
C750 C751 1.434 . S
C751 C742 1.429 . S
C751 N748 1.350 . S
C751 C750 1.434 . S
C752 C753 1.369 . S
C752 C754 1.419 . S
C752 H756 0.930 . S
C753 C752 1.369 . S
C753 C762 1.429 . S
C754 C752 1.419 . S
C754 C755 1.363 . S
C754 H757 0.929 . S
C755 C754 1.363 . S
C755 C761 1.428 . S
H756 C752 0.930 . S
H757 C754 0.929 . S
S758 N759 1.613 . S
S758 N760 1.610 . S
N759 S758 1.613 . S
N759 C762 1.350 . S
N760 S758 1.610 . S
N760 C761 1.351 . S
C761 C755 1.428 . S
C761 N760 1.351 . S
C761 C762 1.434 . S
C762 C753 1.429 . S
C762 N759 1.350 . S
C762 C761 1.434 . S
C763 C764 1.369 . S
C763 C765 1.419 . S
C763 H767 0.930 . S
C764 C763 1.369 . S
C764 C773 1.429 . S
C765 C763 1.419 . S
C765 C766 1.363 . S
C765 H768 0.929 . S
C766 C765 1.363 . S
C766 C772 1.428 . S
H767 C763 0.930 . S
H768 C765 0.929 . S
S769 N770 1.613 . S
S769 N771 1.610 . S
N770 S769 1.613 . S
N770 C773 1.350 . S
N771 S769 1.610 . S
N771 C772 1.351 . S
C772 C766 1.428 . S
C772 N771 1.351 . S
C772 C773 1.434 . S
C773 C764 1.429 . S
C773 N770 1.350 . S
C773 C772 1.434 . S
C774 C775 1.369 . S
C774 C776 1.419 1_565 S
C774 H778 0.930 . S
C775 C774 1.369 . S
C775 C784 1.429 . S
C776 C774 1.419 1_545 S
C776 C777 1.363 1_545 S
C776 H779 0.929 . S
C777 C776 1.363 1_565 S
C777 C783 1.428 . S
H778 C774 0.930 . S
H779 C776 0.929 . S
S780 N781 1.613 . S
S780 N782 1.610 . S
N781 S780 1.613 . S
N781 C784 1.350 . S
N782 S780 1.610 . S
N782 C783 1.351 . S
C783 C777 1.428 . S
C783 N782 1.351 . S
C783 C784 1.434 . S
C784 C775 1.429 . S
C784 N781 1.350 . S
C784 C783 1.434 . S
C785 C786 1.369 . S
C785 C787 1.419 . S
C785 H789 0.930 . S
C786 C785 1.369 . S
C786 C795 1.429 . S
C787 C785 1.419 . S
C787 C788 1.363 . S
C787 H790 0.929 . S
C788 C787 1.363 . S
C788 C794 1.428 . S
H789 C785 0.930 . S
H790 C787 0.929 . S
S791 N792 1.613 . S
S791 N793 1.610 1_554 S
N792 S791 1.613 . S
N792 C795 1.350 1_554 S
N793 S791 1.610 1_556 S
N793 C794 1.351 . S
C794 C788 1.428 . S
C794 N793 1.351 . S
C794 C795 1.434 . S
C795 C786 1.429 . S
C795 N792 1.350 1_556 S
C795 C794 1.434 . S
C796 C797 1.369 . S
C796 C798 1.419 . S
C796 H800 0.930 . S
C797 C796 1.369 . S
C797 C806 1.429 . S
C798 C796 1.419 . S
C798 C799 1.363 . S
C798 H801 0.929 . S
C799 C798 1.363 . S
C799 C805 1.428 . S
H800 C796 0.930 . S
H801 C798 0.929 . S
S802 N803 1.613 . S
S802 N804 1.610 . S
N803 S802 1.613 . S
N803 C806 1.350 . S
N804 S802 1.610 . S
N804 C805 1.351 . S
C805 C799 1.428 . S
C805 N804 1.351 . S
C805 C806 1.434 . S
C806 C797 1.429 . S
C806 N803 1.350 . S
C806 C805 1.434 . S
C807 C808 1.369 1_655 S
C807 C809 1.419 1_655 S
C807 H811 0.930 . S
C808 C807 1.369 1_455 S
C808 C817 1.429 . S
C809 C807 1.419 1_455 S
C809 C810 1.363 . S
C809 H812 0.929 . S
C810 C809 1.363 . S
C810 C816 1.428 . S
H811 C807 0.930 . S
H812 C809 0.929 . S
S813 N814 1.613 . S
S813 N815 1.610 . S
N814 S813 1.613 . S
N814 C817 1.350 . S
N815 S813 1.610 . S
N815 C816 1.351 . S
C816 C810 1.428 . S
C816 N815 1.351 . S
C816 C817 1.434 . S
C817 C808 1.429 . S
C817 N814 1.350 . S
C817 C816 1.434 . S
C818 C819 1.369 . S
C818 C820 1.419 . S
C818 H822 0.930 . S
C819 C818 1.369 . S
C819 C828 1.429 . S
C820 C818 1.419 . S
C820 C821 1.363 . S
C820 H823 0.929 . S
C821 C820 1.363 . S
C821 C827 1.428 . S
H822 C818 0.930 . S
H823 C820 0.929 . S
S824 N825 1.613 . S
S824 N826 1.610 . S
N825 S824 1.613 . S
N825 C828 1.350 . S
N826 S824 1.610 . S
N826 C827 1.351 . S
C827 C821 1.428 . S
C827 N826 1.351 . S
C827 C828 1.434 . S
C828 C819 1.429 . S
C828 N825 1.350 . S
C828 C827 1.434 . S
C829 C830 1.369 . S
C829 C831 1.419 . S
C829 H833 0.930 . S
C830 C829 1.369 . S
C830 C839 1.429 . S
C831 C829 1.419 . S
C831 C832 1.363 . S
C831 H834 0.929 . S
C832 C831 1.363 . S
C832 C838 1.428 . S
H833 C829 0.930 . S
H834 C831 0.929 . S
S835 N836 1.613 . S
S835 N837 1.610 . S
N836 S835 1.613 . S
N836 C839 1.350 . S
N837 S835 1.610 . S
N837 C838 1.351 . S
C838 C832 1.428 . S
C838 N837 1.351 . S
C838 C839 1.434 . S
C839 C830 1.429 . S
C839 N836 1.350 . S
C839 C838 1.434 . S
C840 C841 1.369 . S
C840 C842 1.419 . S
C840 H844 0.930 . S
C841 C840 1.369 . S
C841 C850 1.429 . S
C842 C840 1.419 . S
C842 C843 1.363 . S
C842 H845 0.929 . S
C843 C842 1.363 . S
C843 C849 1.428 . S
H844 C840 0.930 . S
H845 C842 0.929 . S
S846 N847 1.613 . S
S846 N848 1.610 . S
N847 S846 1.613 . S
N847 C850 1.350 . S
N848 S846 1.610 . S
N848 C849 1.351 . S
C849 C843 1.428 . S
C849 N848 1.351 . S
C849 C850 1.434 . S
C850 C841 1.429 . S
C850 N847 1.350 . S
C850 C849 1.434 . S
C851 C852 1.369 . S
C851 C853 1.419 . S
C851 H855 0.930 . S
C852 C851 1.369 . S
C852 C861 1.429 . S
C853 C851 1.419 . S
C853 C854 1.363 . S
C853 H856 0.929 . S
C854 C853 1.363 . S
C854 C860 1.428 . S
H855 C851 0.930 . S
H856 C853 0.929 . S
S857 N858 1.613 . S
S857 N859 1.610 . S
N858 S857 1.613 . S
N858 C861 1.350 . S
N859 S857 1.610 . S
N859 C860 1.351 . S
C860 C854 1.428 . S
C860 N859 1.351 . S
C860 C861 1.434 . S
C861 C852 1.429 . S
C861 N858 1.350 . S
C861 C860 1.434 . S
C862 C863 1.369 . S
C862 C864 1.419 . S
C862 H866 0.930 . S
C863 C862 1.369 . S
C863 C872 1.429 . S
C864 C862 1.419 . S
C864 C865 1.363 . S
C864 H867 0.929 . S
C865 C864 1.363 . S
C865 C871 1.428 . S
H866 C862 0.930 . S
H867 C864 0.929 . S
S868 N869 1.613 . S
S868 N870 1.610 . S
N869 S868 1.613 . S
N869 C872 1.350 . S
N870 S868 1.610 . S
N870 C871 1.351 . S
C871 C865 1.428 . S
C871 N870 1.351 . S
C871 C872 1.434 . S
C872 C863 1.429 . S
C872 N869 1.350 . S
C872 C871 1.434 . S
C873 C874 1.369 . S
C873 C875 1.419 . S
C873 H877 0.930 . S
C874 C873 1.369 . S
C874 C883 1.429 . S
C875 C873 1.419 . S
C875 C876 1.363 . S
C875 H878 0.929 . S
C876 C875 1.363 . S
C876 C882 1.428 . S
H877 C873 0.930 . S
H878 C875 0.929 . S
S879 N880 1.613 . S
S879 N881 1.610 . S
N880 S879 1.613 . S
N880 C883 1.350 . S
N881 S879 1.610 . S
N881 C882 1.351 . S
C882 C876 1.428 . S
C882 N881 1.351 . S
C882 C883 1.434 . S
C883 C874 1.429 . S
C883 N880 1.350 . S
C883 C882 1.434 . S
C884 C885 1.369 . S
C884 C886 1.419 . S
C884 H888 0.930 . S
C885 C884 1.369 . S
C885 C894 1.429 . S
C886 C884 1.419 . S
C886 C887 1.363 . S
C886 H889 0.929 . S
C887 C886 1.363 . S
C887 C893 1.428 . S
H888 C884 0.930 . S
H889 C886 0.929 . S
S890 N891 1.613 . S
S890 N892 1.610 . S
N891 S890 1.613 . S
N891 C894 1.350 . S
N892 S890 1.610 . S
N892 C893 1.351 . S
C893 C887 1.428 . S
C893 N892 1.351 . S
C893 C894 1.434 . S
C894 C885 1.429 . S
C894 N891 1.350 . S
C894 C893 1.434 . S
C895 C896 1.369 . S
C895 C897 1.419 . S
C895 H899 0.930 . S
C896 C895 1.369 . S
C896 C905 1.429 . S
C897 C895 1.419 . S
C897 C898 1.363 . S
C897 H900 0.929 . S
C898 C897 1.363 . S
C898 C904 1.428 . S
H899 C895 0.930 . S
H900 C897 0.929 . S
S901 N902 1.613 . S
S901 N903 1.610 . S
N902 S901 1.613 . S
N902 C905 1.350 . S
N903 S901 1.610 . S
N903 C904 1.351 . S
C904 C898 1.428 . S
C904 N903 1.351 . S
C904 C905 1.434 . S
C905 C896 1.429 . S
C905 N902 1.350 . S
C905 C904 1.434 . S
C906 C907 1.369 . S
C906 C908 1.419 . S
C906 H910 0.930 . S
C907 C906 1.369 . S
C907 C916 1.429 . S
C908 C906 1.419 . S
C908 C909 1.363 . S
C908 H911 0.929 . S
C909 C908 1.363 . S
C909 C915 1.428 . S
H910 C906 0.930 . S
H911 C908 0.929 . S
S912 N913 1.613 . S
S912 N914 1.610 . S
N913 S912 1.613 . S
N913 C916 1.350 . S
N914 S912 1.610 . S
N914 C915 1.351 . S
C915 C909 1.428 . S
C915 N914 1.351 . S
C915 C916 1.434 . S
C916 C907 1.429 . S
C916 N913 1.350 . S
C916 C915 1.434 . S
C917 C918 1.369 . S
C917 C919 1.419 . S
C917 H921 0.930 . S
C918 C917 1.369 . S
C918 C927 1.429 . S
C919 C917 1.419 . S
C919 C920 1.363 . S
C919 H922 0.929 . S
C920 C919 1.363 . S
C920 C926 1.428 . S
H921 C917 0.930 . S
H922 C919 0.929 . S
S923 N924 1.613 . S
S923 N925 1.610 . S
N924 S923 1.613 . S
N924 C927 1.350 . S
N925 S923 1.610 . S
N925 C926 1.351 . S
C926 C920 1.428 . S
C926 N925 1.351 . S
C926 C927 1.434 . S
C927 C918 1.429 . S
C927 N924 1.350 . S
C927 C926 1.434 . S
C928 C929 1.369 . S
C928 C930 1.419 . S
C928 H932 0.930 . S
C929 C928 1.369 . S
C929 C938 1.429 . S
C930 C928 1.419 . S
C930 C931 1.363 . S
C930 H933 0.929 . S
C931 C930 1.363 . S
C931 C937 1.428 . S
H932 C928 0.930 . S
H933 C930 0.929 . S
S934 N935 1.613 . S
S934 N936 1.610 . S
N935 S934 1.613 . S
N935 C938 1.350 . S
N936 S934 1.610 . S
N936 C937 1.351 . S
C937 C931 1.428 . S
C937 N936 1.351 . S
C937 C938 1.434 . S
C938 C929 1.429 . S
C938 N935 1.350 . S
C938 C937 1.434 . S
C939 C940 1.369 . S
C939 C941 1.419 . S
C939 H943 0.930 . S
C940 C939 1.369 . S
C940 C949 1.429 . S
C941 C939 1.419 . S
C941 C942 1.363 . S
C941 H944 0.929 1_554 S
C942 C941 1.363 . S
C942 C948 1.428 . S
H943 C939 0.930 . S
H944 C941 0.929 1_556 S
S945 N946 1.613 . S
S945 N947 1.610 . S
N946 S945 1.613 . S
N946 C949 1.350 . S
N947 S945 1.610 . S
N947 C948 1.351 . S
C948 C942 1.428 . S
C948 N947 1.351 . S
C948 C949 1.434 . S
C949 C940 1.429 . S
C949 N946 1.350 . S
C949 C948 1.434 . S
C950 C951 1.369 . S
C950 C952 1.419 . S
C950 H954 0.930 . S
C951 C950 1.369 . S
C951 C960 1.429 . S
C952 C950 1.419 . S
C952 C953 1.363 . S
C952 H955 0.929 1_554 S
C953 C952 1.363 . S
C953 C959 1.428 . S
H954 C950 0.930 . S
H955 C952 0.929 1_556 S
S956 N957 1.613 . S
S956 N958 1.610 . S
N957 S956 1.613 . S
N957 C960 1.350 . S
N958 S956 1.610 . S
N958 C959 1.351 . S
C959 C953 1.428 . S
C959 N958 1.351 . S
C959 C960 1.434 . S
C960 C951 1.429 . S
C960 N957 1.350 . S
C960 C959 1.434 . S
C961 C962 1.369 . S
C961 C963 1.419 . S
C961 H965 0.930 . S
C962 C961 1.369 . S
C962 C971 1.429 . S
C963 C961 1.419 . S
C963 C964 1.363 . S
C963 H966 0.929 . S
C964 C963 1.363 . S
C964 C970 1.428 . S
H965 C961 0.930 . S
H966 C963 0.929 . S
S967 N968 1.613 . S
S967 N969 1.610 1_556 S
N968 S967 1.613 . S
N968 C971 1.350 1_556 S
N969 S967 1.610 1_554 S
N969 C970 1.351 . S
C970 C964 1.428 . S
C970 N969 1.351 . S
C970 C971 1.434 . S
C971 C962 1.429 . S
C971 N968 1.350 1_554 S
C971 C970 1.434 . S
C379 C7 0.855 1_554 S
C381 C58 0.937 . S
C390 C16 0.942 . S
C392 C28 0.874 1_554 S
C401 C49 0.852 1_554 S
C403 C37 0.929 . S
C412 C87 0.948 . S
C414 C70 0.879 . S
C423 C108 0.937 . S
C425 C88 0.873 . S
C434 C109 0.854 . S
C436 C79 0.930 . S
C445 C184 0.943 . S
C447 C133 0.879 . S
C456 C154 0.880 . S
C458 C142 0.940 . S
C467 C163 0.938 . S
C469 C175 0.863 . S
C478 C196 0.882 . S
C480 C213 0.946 . S
C489 C234 0.927 . S
C491 C214 0.858 . S
C500 C235 0.883 . S
C502 C205 0.944 . S
C511 C310 0.928 . S
C513 C259 0.864 . S
C522 C280 0.857 . S
C524 C268 0.929 . S
C533 C301 0.864 . S
C535 C289 0.931 . S
C544 C319 0.867 . S
C546 C352 0.933 . S
C555 C360 0.932 . S
C557 C343 0.868 . S
C566 C318 0.947 . S
C568 C361 0.875 . S
C577 C125 1.128 . S
C579 C3 1.179 . S
C588 C82 1.130 . S
C590 C24 1.176 . S
C599 C104 1.141 . S
C601 C45 1.171 . S
C610 C40 1.144 . S
C612 C66 1.171 . S
C621 C100 1.176 . S
C623 C61 1.133 . S
C632 C19 1.145 . S
C634 C121 1.171 . S
C643 C129 1.169 . S
C645 C251 1.139 . S
C654 C150 1.180 . S
C656 C208 1.130 . S
C665 C230 1.130 . S
C667 C171 1.182 . S
C676 C192 1.181 1_554 S
C678 C166 1.139 . S
C687 C226 1.169 1_554 S
C689 C187 1.144 . S
C698 C247 1.169 1_554 S
C700 C145 1.142 . S
C709 C255 1.170 . S
C711 C377 1.143 1_556 S
C720 C276 1.184 . S
C722 C335 1.133 1_556 S
C731 C297 1.183 . S
C733 C355 1.131 1_556 S
C742 C331 1.173 . S
C744 C292 1.136 . S
C753 C339 1.177 . S
C755 C313 1.142 . S
C764 C373 1.177 . S
C766 C271 1.142 . S
C775 C217 1.899 . S
C777 C20 1.949 1_565 S
C786 C41 1.946 1_455 S
C788 C238 1.895 . S
C797 C193 1.900 . S
C799 C62 1.950 . S
C808 C83 1.948 1_455 S
C810 C172 1.899 . S
C819 C103 1.950 . S
C821 C130 1.900 . S
C830 C151 1.903 . S
C832 C124 1.952 1_565 S
C841 C146 1.947 . S
C843 C340 1.896 1_455 S
C852 C167 1.947 . S
C854 C364 1.897 . S
C863 C188 1.947 . S
C865 C322 1.897 1_565 S
C874 C298 1.898 1_565 S
C876 C209 1.948 . S
C885 C256 1.903 1_455 S
C887 C229 1.951 . S
C896 C277 1.903 . S
C898 C250 1.952 . S
C907 C91 1.903 . S
C909 C272 1.951 . S
C918 C293 1.952 . S
C920 C112 1.902 . S
C929 C67 1.903 . S
C931 C314 1.952 . S
C940 C334 1.946 . S
C942 C46 1.896 . S
C951 C356 1.947 . S
C953 C4 1.896 . S
C962 C25 1.900 . S
C964 C376 1.951 . S
