# Generated by pormake.
# Topology uou, (4)-cn, num edge types: 1
# Building blocks:
#     Node 0, Type 0, BuildingBlock: AZAVOO_clean_sbu_0, # of connection points: 4
#     Node 1, Type 0, BuildingBlock: AZAVOO_clean_sbu_0, # of connection points: 4
#     Node 2, Type 0, BuildingBlock: AZAVOO_clean_sbu_0, # of connection points: 4
#     Node 3, Type 0, BuildingBlock: AZAVOO_clean_sbu_0, # of connection points: 4
#     Node 4, Type 0, BuildingBlock: AZAVOO_clean_sbu_0, # of connection points: 4
#     Node 5, Type 0, BuildingBlock: AZAVOO_clean_sbu_0, # of connection points: 4
#     Node 6, Type 0, BuildingBlock: AZAVOO_clean_sbu_0, # of connection points: 4
#     Node 7, Type 0, BuildingBlock: AZAVOO_clean_sbu_0, # of connection points: 4
#     Node 8, Type 0, BuildingBlock: AZAVOO_clean_sbu_0, # of connection points: 4
#     Node 9, Type 0, BuildingBlock: AZAVOO_clean_sbu_0, # of connection points: 4
#     Node 10, Type 0, BuildingBlock: AZAVOO_clean_sbu_0, # of connection points: 4
#     Node 11, Type 0, BuildingBlock: AZAVOO_clean_sbu_0, # of connection points: 4
#     Node 12, Type 0, BuildingBlock: AZAVOO_clean_sbu_0, # of connection points: 4
#     Node 13, Type 0, BuildingBlock: AZAVOO_clean_sbu_0, # of connection points: 4
#     Node 14, Type 0, BuildingBlock: AZAVOO_clean_sbu_0, # of connection points: 4
#     Node 15, Type 0, BuildingBlock: AZAVOO_clean_sbu_0, # of connection points: 4
#     Edge 16, Type (0, 0), BuildingBlock: CIFDUS_clean_linker_0, # of connection points: 2
#     Edge 17, Type (0, 0), BuildingBlock: CIFDUS_clean_linker_0, # of connection points: 2
#     Edge 18, Type (0, 0), BuildingBlock: CIFDUS_clean_linker_0, # of connection points: 2
#     Edge 19, Type (0, 0), BuildingBlock: CIFDUS_clean_linker_0, # of connection points: 2
#     Edge 20, Type (0, 0), BuildingBlock: CIFDUS_clean_linker_0, # of connection points: 2
#     Edge 21, Type (0, 0), BuildingBlock: CIFDUS_clean_linker_0, # of connection points: 2
#     Edge 22, Type (0, 0), BuildingBlock: CIFDUS_clean_linker_0, # of connection points: 2
#     Edge 23, Type (0, 0), BuildingBlock: CIFDUS_clean_linker_0, # of connection points: 2
#     Edge 24, Type (0, 0), BuildingBlock: CIFDUS_clean_linker_0, # of connection points: 2
#     Edge 25, Type (0, 0), BuildingBlock: CIFDUS_clean_linker_0, # of connection points: 2
#     Edge 26, Type (0, 0), BuildingBlock: CIFDUS_clean_linker_0, # of connection points: 2
#     Edge 27, Type (0, 0), BuildingBlock: CIFDUS_clean_linker_0, # of connection points: 2
#     Edge 28, Type (0, 0), BuildingBlock: CIFDUS_clean_linker_0, # of connection points: 2
#     Edge 29, Type (0, 0), BuildingBlock: CIFDUS_clean_linker_0, # of connection points: 2
#     Edge 30, Type (0, 0), BuildingBlock: CIFDUS_clean_linker_0, # of connection points: 2
#     Edge 31, Type (0, 0), BuildingBlock: CIFDUS_clean_linker_0, # of connection points: 2
#     Edge 32, Type (0, 0), BuildingBlock: CIFDUS_clean_linker_0, # of connection points: 2
#     Edge 33, Type (0, 0), BuildingBlock: CIFDUS_clean_linker_0, # of connection points: 2
#     Edge 34, Type (0, 0), BuildingBlock: CIFDUS_clean_linker_0, # of connection points: 2
#     Edge 35, Type (0, 0), BuildingBlock: CIFDUS_clean_linker_0, # of connection points: 2
#     Edge 36, Type (0, 0), BuildingBlock: CIFDUS_clean_linker_0, # of connection points: 2
#     Edge 37, Type (0, 0), BuildingBlock: CIFDUS_clean_linker_0, # of connection points: 2
#     Edge 38, Type (0, 0), BuildingBlock: CIFDUS_clean_linker_0, # of connection points: 2
#     Edge 39, Type (0, 0), BuildingBlock: CIFDUS_clean_linker_0, # of connection points: 2
#     Edge 40, Type (0, 0), BuildingBlock: CIFDUS_clean_linker_0, # of connection points: 2
#     Edge 41, Type (0, 0), BuildingBlock: CIFDUS_clean_linker_0, # of connection points: 2
#     Edge 42, Type (0, 0), BuildingBlock: CIFDUS_clean_linker_0, # of connection points: 2
#     Edge 43, Type (0, 0), BuildingBlock: CIFDUS_clean_linker_0, # of connection points: 2
#     Edge 44, Type (0, 0), BuildingBlock: CIFDUS_clean_linker_0, # of connection points: 2
#     Edge 45, Type (0, 0), BuildingBlock: CIFDUS_clean_linker_0, # of connection points: 2
#     Edge 46, Type (0, 0), BuildingBlock: CIFDUS_clean_linker_0, # of connection points: 2
#     Edge 47, Type (0, 0), BuildingBlock: CIFDUS_clean_linker_0, # of connection points: 2
# Relax obj value: 0.174
# Max RMSD: 0.209
# Mean RMSD: 0.188
data_MOF--net-uou--node1-AZAVOO_clean_sbu_0--edge1-CIFDUS_clean_linker_0
_symmetry_space_group_name_H-M    P1
_symmetry_Int_Tables_number       1
_symmetry_cell_setting            triclinic
loop_
_symmetry_equiv_pos_as_xyz
'x, y, z'
_cell_length_a     34.566508
_cell_length_b     32.488527
_cell_length_c     46.425186
_cell_angle_alpha  90.006435
_cell_angle_beta   89.909998
_cell_angle_gamma 90.334474
loop_
_atom_site_label
_atom_site_type_symbol
_atom_site_fract_x
_atom_site_fract_y
_atom_site_fract_z
_atom_type_partial_charge
Mg0 Mg 0.04949 0.10165 0.12642 0.0
O1 O 0.03873 0.06499 0.16797 0.0
O2 O 0.07725 0.00978 0.16615 0.0
Mg3 Mg 0.1164 0.01459 0.12656 0.0
C4 C 0.05124 0.03124 0.17855 0.0
C5 C 0.97469 0.1491 0.11059 0.0
O6 O 0.98228 0.13224 0.0855 0.0
O7 O 0.01881 0.05202 0.10002 0.0
O8 O 0.06439 0.00359 0.09693 0.0
O9 O 0.09505 0.14032 0.14776 0.0
O10 O 0.10513 0.08073 0.12592 0.0
C11 C 0.0314 0.01801 0.08995 0.0
C12 C 0.11844 0.11102 0.14078 0.0
O13 O -0.00484 0.13942 0.13223 0.0
Mg14 Mg 0.39705 0.03381 0.10711 0.0
O15 O 0.42278 0.05408 0.14926 0.0
O16 O 0.41018 0.12037 0.15789 0.0
Mg17 Mg 0.37016 0.14031 0.12074 0.0
C18 C 0.42555 0.08617 0.16488 0.0
C19 C 0.42719 0.94378 0.11277 0.0
O20 O 0.39097 0.9372 0.12013 0.0
O21 O 0.44037 0.07175 0.08306 0.0
O22 O 0.41952 0.13658 0.08676 0.0
O23 O 0.34627 0.01156 0.13063 0.0
O24 O 0.35233 0.07508 0.11354 0.0
C25 C 0.44288 0.10974 0.07678 0.0
C26 C 0.3329 0.04862 0.1286 0.0
O27 O 0.43805 0.97992 0.1061 0.0
Mg28 Mg 0.569 0.92304 0.33838 0.0
O29 O 0.5353 0.96609 0.30962 0.0
O30 O 0.55929 0.02995 0.31297 0.0
Mg31 Mg 0.61114 0.02648 0.34379 0.0
C32 C 0.53492 0.0041 0.30274 0.0
C33 C 0.51838 0.84788 0.35409 0.0
O34 O 0.54014 0.851 0.37718 0.0
O35 O 0.54051 0.95098 0.37769 0.0
O36 O 0.57157 0.01132 0.38237 0.0
O37 O 0.61049 0.90909 0.30277 0.0
O38 O 0.61625 0.96066 0.33375 0.0
C39 C 0.54753 0.98421 0.39145 0.0
C40 C 0.62875 0.9418 0.31127 0.0
O41 O 0.52243 0.8742 0.3341 0.0
Mg42 Mg 0.88297 0.0119 0.37977 0.0
O43 O 0.92801 0.0107 0.34387 0.0
O44 O 0.93141 0.947 0.32612 0.0
Mg45 Mg 0.88881 0.90719 0.35179 0.0
C46 C 0.94183 0.98476 0.32605 0.0
C47 C 0.90801 0.10339 0.37738 0.0
O48 O 0.89263 0.09911 0.35169 0.0
O49 O 0.92171 0.97877 0.41042 0.0
O50 O 0.92431 0.9142 0.39387 0.0
O51 O 0.83915 0.02654 0.34719 0.0
O52 O 0.85402 0.96307 0.36059 0.0
C53 C 0.93319 0.94175 0.4124 0.0
C54 C 0.83486 0.98717 0.34381 0.0
O55 O 0.90746 0.07305 0.39459 0.0
Mg56 Mg 0.93936 0.94239 0.88706 0.0
O57 O 0.94092 0.87182 0.88623 0.0
O58 O 0.9037 0.84793 0.92183 0.0
Mg59 Mg 0.88102 0.90417 0.94682 0.0
C60 C 0.92648 0.84202 0.90059 0.0
C61 C 0.96481 0.97488 0.82664 0.0
O62 O 0.95177 0.00928 0.83781 0.0
O63 O 0.87709 0.94891 0.87098 0.0
O64 O 0.84334 0.9291 0.90978 0.0
O65 O 0.9906 0.94034 0.91568 0.0
O66 O 0.93017 0.94257 0.93148 0.0
C67 C 0.84505 0.94379 0.88428 0.0
C68 C 0.96655 0.94029 0.93712 0.0
O69 O 0.96343 0.94214 0.84154 0.0
Mg70 Mg 0.57206 0.09215 0.87772 0.0
O71 O 0.5729 0.16366 0.87725 0.0
O72 O 0.59697 0.18158 0.92014 0.0
Mg73 Mg 0.61853 0.12519 0.94435 0.0
C74 C 0.58072 0.19086 0.89635 0.0
C75 C 0.52766 0.10611 0.81979 0.0
O76 O 0.50373 0.12532 0.83714 0.0
O77 O 0.63632 0.08384 0.86853 0.0
O78 O 0.66292 0.10373 0.9101 0.0
O79 O 0.51531 0.09784 0.89926 0.0
O80 O 0.57089 0.09238 0.92266 0.0
C81 C 0.6658 0.08942 0.88455 0.0
C82 C 0.53423 0.0995 0.9233 0.0
O83 O 0.55842 0.09069 0.82999 0.0
Mg84 Mg 0.44873 0.02799 0.60137 0.0
O85 O 0.44525 0.09702 0.59119 0.0
O86 O 0.41825 0.10298 0.54787 0.0
Mg87 Mg 0.4026 0.03839 0.5309 0.0
C88 C 0.43429 0.11901 0.57 0.0
C89 C 0.49678 0.0348 0.65699 0.0
O90 O 0.52044 0.01439 0.64012 0.0
O91 O 0.38393 0.02056 0.61201 0.0
O92 O 0.3606 0.02016 0.56709 0.0
O93 O 0.50539 0.02737 0.57739 0.0
O94 O 0.4488 0.01316 0.55773 0.0
C95 C 0.35619 0.01527 0.59419 0.0
C96 C 0.48534 0.01863 0.55464 0.0
O97 O 0.46371 0.04476 0.64747 0.0
Mg98 Mg 0.07047 0.90267 0.60971 0.0
O99 O 0.05863 0.83243 0.60495 0.0
O100 O 0.07559 0.81651 0.55984 0.0
Mg101 Mg 0.1007 0.87302 0.53704 0.0
C102 C 0.06119 0.80658 0.58423 0.0
C103 C 0.04882 0.93244 0.66924 0.0
O104 O 0.04455 0.96484 0.65263 0.0
O105 O 0.1361 0.89642 0.614 0.0
O106 O 0.15155 0.88211 0.56836 0.0
O107 O 0.01169 0.91523 0.59245 0.0
O108 O 0.06413 0.91036 0.56534 0.0
C109 C 0.16123 0.89018 0.59432 0.0
C110 C 0.02722 0.91469 0.56707 0.0
O111 O 0.06102 0.89925 0.65804 0.0
Mg112 Mg 0.59076 0.65562 0.12447 0.0
O113 O 0.56266 0.62034 0.16152 0.0
O114 O 0.58807 0.55725 0.1629 0.0
Mg115 Mg 0.63499 0.55385 0.12788 0.0
C116 C 0.56493 0.58448 0.17263 0.0
C117 C 0.55349 0.73954 0.11947 0.0
O118 O 0.58977 0.74688 0.11257 0.0
O119 O 0.55735 0.61723 0.0919 0.0
O120 O 0.58983 0.55778 0.09153 0.0
O121 O 0.63634 0.67949 0.15446 0.0
O122 O 0.63954 0.6212 0.12968 0.0
C123 C 0.56355 0.5814 0.08167 0.0
C124 C 0.65392 0.64533 0.14889 0.0
O125 O 0.54344 0.70309 0.12595 0.0
Mg126 Mg 0.8796 0.46661 0.14273 0.0
O127 O 0.92158 0.48478 0.17788 0.0
O128 O 0.92896 0.55307 0.17908 0.0
Mg129 Mg 0.88606 0.57885 0.14574 0.0
C130 C 0.93697 0.51716 0.18843 0.0
C131 C 0.88805 0.37311 0.12859 0.0
O132 O 0.86239 0.38281 0.10892 0.0
O133 O 0.92349 0.48329 0.108 0.0
O134 O 0.91988 0.55214 0.10732 0.0
O135 O 0.83111 0.46858 0.17406 0.0
O136 O 0.85104 0.52185 0.14821 0.0
C137 C 0.93203 0.51815 0.09695 0.0
C138 C 0.82821 0.50726 0.1677 0.0
O139 O 0.90104 0.40096 0.14523 0.0
Mg140 Mg 0.10036 0.37072 0.36281 0.0
O141 O 0.06639 0.41035 0.33181 0.0
O142 O 0.0924 0.47317 0.32829 0.0
Mg143 Mg 0.14583 0.47248 0.35789 0.0
C144 C 0.06669 0.44659 0.32132 0.0
C145 C 0.04063 0.30352 0.38433 0.0
O146 O 0.05966 0.30708 0.40869 0.0
O147 O 0.07602 0.40615 0.4009 0.0
O148 O 0.10835 0.46598 0.3988 0.0
O149 O 0.13801 0.3496 0.32655 0.0
O150 O 0.14868 0.40498 0.35348 0.0
C151 C 0.08464 0.44144 0.41128 0.0
C152 C 0.15787 0.3827 0.33161 0.0
O153 O 0.0506 0.32539 0.36291 0.0
Mg154 Mg 0.38493 0.53955 0.35661 0.0
O155 O 0.4309 0.52983 0.32201 0.0
O156 O 0.43322 0.46305 0.31077 0.0
Mg157 Mg 0.38736 0.4303 0.33815 0.0
C158 C 0.44483 0.50011 0.30741 0.0
C159 C 0.40952 0.63137 0.34836 0.0
O160 O 0.39293 0.62503 0.32329 0.0
O161 O 0.42156 0.51045 0.39117 0.0
O162 O 0.42079 0.44337 0.38022 0.0
O163 O 0.34113 0.54945 0.32244 0.0
O164 O 0.35504 0.48886 0.3415 0.0
C165 C 0.43065 0.47329 0.39655 0.0
C166 C 0.33573 0.50995 0.32298 0.0
O167 O 0.41046 0.6023 0.3666 0.0
Mg168 Mg 0.43867 0.48719 0.8879 0.0
O169 O 0.45709 0.41982 0.89652 0.0
O170 O 0.44141 0.40717 0.94229 0.0
Mg171 Mg 0.41057 0.46274 0.96179 0.0
C172 C 0.45681 0.39615 0.9185 0.0
C173 C 0.43689 0.50468 0.82291 0.0
O174 O 0.41832 0.53658 0.83333 0.0
O175 O 0.37397 0.47183 0.88386 0.0
O176 O 0.35965 0.45935 0.93002 0.0
O177 O 0.49589 0.50743 0.90569 0.0
O178 O 0.44228 0.50214 0.93147 0.0
C179 C 0.34957 0.46312 0.90368 0.0
C180 C 0.47881 0.50953 0.93049 0.0
O181 O 0.4489 0.47728 0.84018 0.0
Mg182 Mg 0.0418 0.53255 0.88778 0.0
O183 O 0.03419 0.60283 0.88683 0.0
O184 O 0.06367 0.62809 0.9259 0.0
Mg185 Mg 0.08573 0.57386 0.95324 0.0
C186 C 0.04436 0.63303 0.90274 0.0
C187 C 0.03204 0.49422 0.82803 0.0
O188 O 0.0474 0.46431 0.84316 0.0
O189 O 0.10687 0.53472 0.87701 0.0
O190 O 0.13078 0.5528 0.91999 0.0
O191 O 0.9858 0.52878 0.91191 0.0
O192 O 0.04321 0.5328 0.93267 0.0
C193 C 0.13536 0.54075 0.89403 0.0
C194 C 0.00622 0.53167 0.9352 0.0
O195 O 0.02579 0.52852 0.8403 0.0
Mg196 Mg 0.93358 0.50291 0.60193 0.0
O197 O 0.9481 0.57051 0.59027 0.0
O198 O 0.92943 0.57977 0.54483 0.0
Mg199 Mg 0.90046 0.52077 0.52821 0.0
C200 C 0.94541 0.59303 0.56783 0.0
C201 C 0.96349 0.49022 0.66366 0.0
O202 O 0.97197 0.45498 0.65134 0.0
O203 O 0.86836 0.51423 0.60761 0.0
O204 O 0.85147 0.52293 0.56148 0.0
O205 O 0.99027 0.48417 0.58184 0.0
O206 O 0.93428 0.48473 0.55899 0.0
C207 C 0.8428 0.52014 0.58817 0.0
C208 C 0.97084 0.47855 0.55832 0.0
O209 O 0.94669 0.51769 0.64886 0.0
Mg210 Mg 0.54117 0.43751 0.60373 0.0
O211 O 0.53022 0.36767 0.59967 0.0
O212 O 0.55282 0.34906 0.55648 0.0
Mg213 Mg 0.5793 0.4055 0.53368 0.0
C214 C 0.53576 0.34055 0.58019 0.0
C215 C 0.50634 0.46338 0.66147 0.0
O216 O 0.49438 0.49238 0.64394 0.0
O217 O 0.60596 0.43022 0.61229 0.0
O218 O 0.62666 0.4196 0.56727 0.0
O219 O 0.4845 0.45036 0.58221 0.0
O220 O 0.53988 0.4438 0.55898 0.0
C221 C 0.6332 0.42678 0.59388 0.0
C222 C 0.5031 0.44907 0.55801 0.0
O223 O 0.52725 0.43471 0.65146 0.0
H224 H 0.29592 0.12252 0.12795 0.0
H225 H 0.28526 0.99733 0.15845 0.0
H226 H 0.21776 0.00882 0.17064 0.0
H227 H 0.15952 0.05 0.16411 0.0
H228 H 0.16877 0.17441 0.13281 0.0
H229 H 0.23936 0.16826 0.13031 0.0
C230 C 0.27907 0.09808 0.13786 0.0
C231 C 0.29522 0.05883 0.14151 0.0
C232 C 0.24002 0.10471 0.14455 0.0
C233 C 0.27328 0.02763 0.15486 0.0
C234 C 0.23463 0.03411 0.16185 0.0
C235 C 0.17723 0.07602 0.15749 0.0
C236 C 0.15951 0.11223 0.14813 0.0
C237 C 0.21734 0.07184 0.15549 0.0
C238 C 0.18222 0.14623 0.14009 0.0
C239 C 0.22243 0.14253 0.13835 0.0
H240 H 0.68999 0.89326 0.30355 0.0
H241 H 0.65085 0.01809 0.29417 0.0
H242 H 0.71761 0.04314 0.29541 0.0
H243 H 0.78275 0.03075 0.3133 0.0
H244 H 0.8196 0.90654 0.33071 0.0
H245 H 0.75884 0.87977 0.31157 0.0
C246 C 0.69643 0.92568 0.30033 0.0
C247 C 0.66607 0.95401 0.29912 0.0
C248 C 0.73452 0.93996 0.30342 0.0
C249 C 0.67416 0.99599 0.29531 0.0
C250 C 0.71222 0.01027 0.29635 0.0
C251 C 0.77799 0.99776 0.31211 0.0
C252 C 0.80496 0.97072 0.3243 0.0
C253 C 0.74216 0.98279 0.30268 0.0
C254 C 0.79883 0.92805 0.32207 0.0
C255 C 0.764 0.91271 0.31121 0.0
H256 H 0.83635 0.02512 0.87893 0.0
H257 H 0.77549 0.91006 0.86885 0.0
H258 H 0.71438 0.94709 0.8624 0.0
H259 H 0.67741 0.01148 0.86698 0.0
H260 H 0.73748 0.12494 0.88551 0.0
H261 H 0.79981 0.08985 0.88098 0.0
C262 C 0.80981 0.00836 0.87436 0.0
C263 C 0.81031 0.96508 0.87365 0.0
C264 C 0.77464 0.02977 0.8726 0.0
C265 C 0.77572 0.94341 0.86887 0.0
C266 C 0.74083 0.9646 0.86547 0.0
C267 C 0.70426 0.02867 0.86915 0.0
C268 C 0.70306 0.07085 0.87608 0.0
C269 C 0.73976 0.00769 0.86828 0.0
C270 C 0.73785 0.09261 0.87982 0.0
C271 C 0.7734 0.07246 0.87741 0.0
H272 H 0.19052 0.95023 0.62936 0.0
H273 H 0.22392 0.85525 0.56944 0.0
H274 H 0.28897 0.88441 0.56655 0.0
H275 H 0.33288 0.94217 0.5752 0.0
H276 H 0.3009 0.03889 0.63383 0.0
H277 H 0.23862 0.00398 0.64319 0.0
C278 C 0.21247 0.93515 0.61647 0.0
C279 C 0.20239 0.90061 0.59955 0.0
C280 C 0.24963 0.95304 0.61414 0.0
C281 C 0.23096 0.88179 0.58261 0.0
C282 C 0.26805 0.89867 0.58076 0.0
C283 C 0.31239 0.95531 0.59032 0.0
C284 C 0.32088 0.99322 0.60348 0.0
C285 C 0.2771 0.93518 0.59542 0.0
C286 C 0.29467 0.00981 0.62336 0.0
C287 C 0.25915 0.98986 0.62862 0.0
H288 H 0.82144 0.59047 0.16644 0.0
H289 H 0.76208 0.47969 0.19326 0.0
H290 H 0.70132 0.5172 0.19617 0.0
H291 H 0.66371 0.57642 0.1795 0.0
H292 H 0.72234 0.68626 0.15076 0.0
H293 H 0.7851 0.65461 0.16072 0.0
C294 C 0.79546 0.57481 0.17369 0.0
C295 C 0.7959 0.53215 0.17864 0.0
C296 C 0.7605 0.59633 0.17459 0.0
C297 C 0.76231 0.51244 0.18886 0.0
C298 C 0.72748 0.53379 0.19033 0.0
C299 C 0.69031 0.59376 0.17642 0.0
C300 C 0.68898 0.63304 0.16403 0.0
C301 C 0.72594 0.57498 0.18147 0.0
C302 C 0.72312 0.65586 0.16032 0.0
C303 C 0.75887 0.63761 0.16572 0.0
H304 H 0.32552 0.42887 0.31108 0.0
H305 H 0.27273 0.54783 0.30025 0.0
H306 H 0.20976 0.51514 0.29352 0.0
H307 H 0.169 0.45542 0.30553 0.0
H308 H 0.22128 0.33723 0.31978 0.0
H309 H 0.28527 0.36647 0.30961 0.0
C310 C 0.30047 0.44752 0.30628 0.0
C311 C 0.30331 0.49064 0.30741 0.0
C312 C 0.26418 0.42858 0.30352 0.0
C313 C 0.27104 0.51453 0.3001 0.0
C314 C 0.23493 0.49587 0.2965 0.0
C315 C 0.19435 0.43589 0.30522 0.0
C316 C 0.19111 0.39476 0.31402 0.0
C317 C 0.2309 0.45328 0.30045 0.0
C318 C 0.22354 0.36913 0.31314 0.0
C319 C 0.26008 0.38597 0.30768 0.0
H320 H 0.17059 0.47624 0.91715 0.0
H321 H 0.18649 0.57165 0.85386 0.0
H322 H 0.25447 0.55111 0.8475 0.0
H323 H 0.3111 0.51155 0.86515 0.0
H324 H 0.29367 0.4179 0.92986 0.0
H325 H 0.22434 0.43126 0.92992 0.0
C326 C 0.18886 0.49199 0.90157 0.0
C327 C 0.17401 0.52547 0.88613 0.0
C328 C 0.22757 0.48021 0.89833 0.0
C329 C 0.19755 0.54573 0.86593 0.0
C330 C 0.23635 0.53405 0.86242 0.0
C331 C 0.29191 0.49321 0.87854 0.0
C332 C 0.30753 0.46384 0.89758 0.0
C333 C 0.25198 0.50204 0.87915 0.0
C334 C 0.28237 0.44071 0.91511 0.0
C335 C 0.24276 0.44853 0.9153 0.0
H336 H 0.66535 0.49581 0.57456 0.0
H337 H 0.68726 0.39262 0.6302 0.0
H338 H 0.75407 0.41719 0.63781 0.0
H339 H 0.80803 0.46393 0.62338 0.0
H340 H 0.78455 0.56562 0.56645 0.0
H341 H 0.71616 0.54674 0.56532 0.0
C342 C 0.68475 0.47901 0.58862 0.0
C343 C 0.67201 0.44224 0.60146 0.0
C344 C 0.72261 0.49337 0.5928 0.0
C345 C 0.69682 0.42085 0.61995 0.0
C346 C 0.73488 0.43494 0.62426 0.0
C347 C 0.78761 0.48277 0.61164 0.0
C348 C 0.80121 0.51626 0.59509 0.0
C349 C 0.74839 0.47069 0.61021 0.0
C350 C 0.77466 0.53991 0.57945 0.0
C351 C 0.73566 0.52885 0.57854 0.0
H352 H 0.98167 0.93955 0.28658 0.0
H353 H 0.95725 0.06479 0.31171 0.0
H354 H 0.98936 0.09021 0.26845 0.0
H355 H 0.02034 0.07683 0.22174 0.0
H356 H 0.04646 0.95191 0.19723 0.0
H357 H 0.01756 0.92651 0.24192 0.0
C358 C 0.98375 0.97243 0.2828 0.0
C359 C 0.96666 1.00009 0.30228 0.0
C360 C 0.00214 0.98695 0.25778 0.0
C361 C 0.97003 0.04267 0.29712 0.0
C362 C 0.9882 0.05731 0.27225 0.0
C363 C 0.0197 0.04406 0.22622 0.0
C364 C 0.03502 0.01626 0.20609 0.0
C365 C 0.00357 0.0297 0.25213 0.0
C366 C 0.03471 0.97393 0.21238 0.0
C367 C 0.01819 0.95938 0.23791 0.0
H368 H 0.41994 0.02107 0.19947 0.0
H369 H 0.47331 0.14091 0.19304 0.0
H370 H 0.51018 0.12757 0.23734 0.0
H371 H 0.53113 0.07859 0.27511 0.0
H372 H 0.4757 0.95912 0.28035 0.0
H373 H 0.43537 0.97585 0.23934 0.0
C374 C 0.43953 0.04438 0.20788 0.0
C375 C 0.44465 0.08152 0.19294 0.0
C376 C 0.46024 0.0365 0.23302 0.0
C377 C 0.46923 0.11197 0.20426 0.0
C378 C 0.49032 0.10425 0.22944 0.0
C379 C 0.50986 0.05647 0.26753 0.0
C380 C 0.50702 0.01736 0.28054 0.0
C381 C 0.48667 0.06616 0.24364 0.0
C382 C 0.47902 0.98921 0.27056 0.0
C383 C 0.45587 0.99868 0.24706 0.0
H384 H 0.02125 0.99843 0.69842 0.0
H385 H 0.04975 0.87008 0.70888 0.0
H386 H 0.02684 0.87216 0.75867 0.0
H387 H -0.00304 0.90987 0.79868 0.0
H388 H 0.9683 0.03816 0.78799 0.0
H389 H -0.00692 0.03655 0.73876 0.0
C390 C 0.02264 0.97091 0.71159 0.0
C391 C 0.03708 0.93411 0.69988 0.0
C392 C 0.00924 0.97225 0.74011 0.0
C393 C 0.03874 0.89881 0.71732 0.0
C394 C 0.02557 0.89994 0.74579 0.0
C395 C -0.00384 0.93752 0.78562 0.0
C396 C 0.98061 0.97404 0.797 0.0
C397 C 0.01045 0.9364 0.75731 0.0
C398 C 0.98001 0.00961 0.77979 0.0
C399 C -0.00582 0.00873 0.75161 0.0
H400 H 0.45714 0.08144 0.69567 0.0
H401 H 0.56335 0.01383 0.68461 0.0
H402 H 0.58292 0.03159 0.73351 0.0
H403 H 0.56924 0.06455 0.77972 0.0
H404 H 0.463 0.13188 0.79123 0.0
H405 H 0.44429 0.11624 0.74167 0.0
C406 C 0.48458 0.07059 0.70394 0.0
C407 C 0.50863 0.04614 0.68654 0.0
C408 C 0.49572 0.08093 0.73211 0.0
C409 C 0.5442 0.03259 0.69755 0.0
C410 C 0.55546 0.04274 0.72552 0.0
C411 C 0.54207 0.07604 0.77139 0.0
C412 C 0.5175 0.09921 0.78922 0.0
C413 C 0.53136 0.06668 0.74302 0.0
C414 C 0.48245 0.11391 0.778 0.0
C415 C 0.47167 0.1049 0.74968 0.0
H416 H 0.55708 0.51072 0.20031 0.0
H417 H 0.51949 0.63728 0.20324 0.0
H418 H 0.48153 0.62279 0.24629 0.0
H419 H 0.4577 0.57425 0.2824 0.0
H420 H 0.49272 0.44702 0.27882 0.0
H421 H 0.53339 0.46196 0.23692 0.0
C422 C 0.54059 0.53515 0.21033 0.0
C423 C 0.54114 0.575 0.1984 0.0
C424 C 0.51854 0.52661 0.23508 0.0
C425 C 0.51952 0.60624 0.21175 0.0
C426 C 0.49786 0.59806 0.23649 0.0
C427 C 0.47457 0.54982 0.27271 0.0
C428 C 0.47227 0.5096 0.28381 0.0
C429 C 0.4971 0.55838 0.24828 0.0
C430 C 0.49397 0.47826 0.27071 0.0
C431 C 0.51714 0.48675 0.2467 0.0
H432 H 0.06106 0.51666 0.28853 0.0
H433 H 0.00672 0.39836 0.30364 0.0
H434 H 0.96229 0.41032 0.2642 0.0
H435 H 0.94027 0.45231 0.22438 0.0
H436 H -0.00786 0.57132 0.20865 0.0
H437 H 0.03607 0.56108 0.24946 0.0
C438 C 0.03928 0.49369 0.28336 0.0
C439 C 0.0376 0.45652 0.29899 0.0
C440 C 0.01354 0.50066 0.26042 0.0
C441 C 0.00903 0.42715 0.29198 0.0
C442 C 0.98353 0.43387 0.26934 0.0
C443 C 0.96125 0.47606 0.22974 0.0
C444 C 0.9633 0.51228 0.21327 0.0
C445 C 0.98591 0.47015 0.2532 0.0
C446 C 0.99012 0.54305 0.22093 0.0
C447 C 0.01522 0.53719 0.24424 0.0
H448 H 0.46314 0.5208 0.68896 0.0
H449 H 0.52588 0.40816 0.7034 0.0
H450 H 0.50909 0.41047 0.75449 0.0
H451 H 0.47751 0.44506 0.79515 0.0
H452 H 0.41522 0.55799 0.78058 0.0
H453 H 0.43088 0.55481 0.72938 0.0
C454 C 0.47312 0.49669 0.70324 0.0
C455 C 0.4958 0.46442 0.69236 0.0
C456 C 0.46344 0.49823 0.73257 0.0
C457 C 0.50844 0.43342 0.7112 0.0
C458 C 0.49884 0.43469 0.74043 0.0
C459 C 0.46722 0.46891 0.78077 0.0
C460 C 0.44526 0.50174 0.79172 0.0
C461 C 0.47648 0.46703 0.75136 0.0
C462 C 0.43219 0.53238 0.77277 0.0
C463 C 0.44116 0.53063 0.74347 0.0
H464 H -0.00222 0.54829 0.79114 0.0
H465 H 0.04308 0.42489 0.7961 0.0
H466 H 0.02582 0.41294 0.74592 0.0
H467 H -0.00214 0.43715 0.70067 0.0
H468 H 0.95221 0.56031 0.69529 0.0
H469 H 0.9696 0.5726 0.74557 0.0
C470 C 0.00393 0.5188 0.78123 0.0
C471 C 0.02174 0.48757 0.79742 0.0
C472 C -0.00617 0.51202 0.75229 0.0
C473 C 0.02942 0.44952 0.78422 0.0
C474 C 0.01955 0.4426 0.75548 0.0
C475 C -0.00832 0.46672 0.71045 0.0
C476 C 0.97375 0.49773 0.69419 0.0
C477 C 0.00173 0.47359 0.73933 0.0
C478 C 0.96596 0.53584 0.70729 0.0
C479 C 0.97592 0.54293 0.73605 0.0
H480 H 0.97096 0.2052 0.15365 0.0
H481 H 0.92194 0.1751 0.07078 0.0
H482 H 0.88816 0.24104 0.07001 0.0
H483 H 0.87776 0.30983 0.09082 0.0
H484 H 0.93061 0.34075 0.17228 0.0
H485 H 0.95778 0.27188 0.17557 0.0
C486 C 0.95236 0.21266 0.13562 0.0
C487 C 0.94912 0.18535 0.11224 0.0
C488 C 0.93418 0.25108 0.13487 0.0
C489 C 0.92503 0.19567 0.08901 0.0
C490 C 0.90587 0.23345 0.08849 0.0
C491 C 0.89494 0.30137 0.1094 0.0
C492 C 0.90243 0.33051 0.13113 0.0
C493 C 0.9111 0.26185 0.11095 0.0
C494 C 0.92474 0.31906 0.15509 0.0
C495 C 0.94022 0.27964 0.15705 0.0
H496 H 0.41384 0.86328 0.12568 0.0
H497 H 0.50393 0.94802 0.09934 0.0
H498 H 0.55076 0.89228 0.09917 0.0
H499 H 0.56627 0.81976 0.10651 0.0
H500 H 0.47653 0.73467 0.13281 0.0
H501 H 0.42944 0.79041 0.13298 0.0
C502 C 0.4437 0.86956 0.11988 0.0
C503 C 0.45531 0.90975 0.11253 0.0
C504 C 0.47057 0.83737 0.11982 0.0
C505 C 0.49415 0.91736 0.10508 0.0
C506 C 0.52101 0.88552 0.10498 0.0
C507 C 0.53642 0.81335 0.11228 0.0
C508 C 0.52495 0.77315 0.11963 0.0
C509 C 0.50953 0.84545 0.11232 0.0
C510 C 0.48614 0.76539 0.12706 0.0
C511 C 0.45917 0.79722 0.12716 0.0
H512 H 0.41334 0.69936 0.31426 0.0
H513 H 0.44869 0.65265 0.39719 0.0
H514 H 0.48345 0.71662 0.40697 0.0
H515 H 0.50665 0.78423 0.39103 0.0
H516 H 0.47204 0.83078 0.30791 0.0
H517 H 0.43388 0.76858 0.29935 0.0
C518 C 0.42846 0.70323 0.33455 0.0
C519 C 0.42862 0.67112 0.35484 0.0
C520 C 0.44859 0.74004 0.34002 0.0
C521 C 0.44821 0.67678 0.38109 0.0
C522 C 0.46814 0.71336 0.38673 0.0
C523 C 0.49052 0.78096 0.37113 0.0
C524 C 0.49246 0.81199 0.35008 0.0
C525 C 0.46893 0.74497 0.3662 0.0
C526 C 0.47122 0.80729 0.32446 0.0
C527 C 0.44943 0.77168 0.31949 0.0
H528 H 0.0193 0.24346 0.4222 0.0
H529 H -0.0066 0.29264 0.33802 0.0
H530 H 0.9477 0.23668 0.32945 0.0
H531 H 0.91892 0.1711 0.34415 0.0
H532 H 0.94565 0.12062 0.42777 0.0
H533 H 0.98685 0.17998 0.43829 0.0
C534 C 0.00335 0.24218 0.40212 0.0
C535 C 0.01011 0.27193 0.38069 0.0
C536 C 0.97738 0.20958 0.39712 0.0
C537 C 0.98907 0.26991 0.35481 0.0
C538 C 0.9629 0.23791 0.34984 0.0
C539 C 0.93342 0.17324 0.36481 0.0
C540 C 0.92948 0.1413 0.385 0.0
C541 C 0.95744 0.20713 0.37059 0.0
C542 C 0.94835 0.14469 0.41173 0.0
C543 C 0.97199 0.17859 0.41777 0.0
H544 H 0.9692 0.65328 0.89736 0.0
H545 H 0.08416 0.70509 0.89628 0.0
H546 H 0.05724 0.77449 0.89153 0.0
H547 H 0.00092 0.82062 0.89188 0.0
H548 H 0.88617 0.76936 0.90002 0.0
H549 H 0.91272 0.69956 0.8976 0.0
C550 C 0.98824 0.67982 0.89551 0.0
C551 C 0.02857 0.67428 0.89664 0.0
C552 C 0.97246 0.71965 0.89426 0.0
C553 C 0.05307 0.70877 0.89513 0.0
C554 C 0.03766 0.74836 0.89253 0.0
C555 C 0.98171 0.79411 0.89252 0.0
C556 C 0.94158 0.80002 0.89565 0.0
C557 C -0.0026 0.75423 0.8926 0.0
C558 C 0.91708 0.76549 0.89735 0.0
C559 C 0.93229 0.72566 0.89608 0.0
H560 H 0.4875 0.3551 0.8716 0.0
H561 H 0.47644 0.34865 0.96427 0.0
H562 H 0.51656 0.28774 0.96522 0.0
H563 H 0.55434 0.23599 0.94055 0.0
H564 H 0.56229 0.23625 0.84787 0.0
H565 H 0.52443 0.30013 0.84618 0.0
C566 C 0.4937 0.34021 0.89196 0.0
C567 C 0.47874 0.35677 0.91782 0.0
C568 C 0.51674 0.30438 0.89244 0.0
C569 C 0.48713 0.33681 0.94397 0.0
C570 C 0.51039 0.30197 0.94462 0.0
C571 C 0.54855 0.25033 0.91991 0.0
C572 C 0.56204 0.23187 0.8944 0.0
C573 C 0.5255 0.28567 0.91909 0.0
C574 C 0.55286 0.25021 0.86786 0.0
C575 C 0.53096 0.28654 0.86691 0.0
H576 H 0.46563 0.16624 0.61325 0.0
H577 H 0.43149 0.17102 0.52384 0.0
H578 H 0.46104 0.23886 0.5191 0.0
H579 H 0.49956 0.29555 0.53934 0.0
H580 H 0.53043 0.29391 0.62922 0.0
H581 H 0.49964 0.22606 0.63469 0.0
C582 C 0.46415 0.18232 0.59282 0.0
C583 C 0.44641 0.16312 0.56891 0.0
C584 C 0.48127 0.22166 0.59017 0.0
C585 C 0.44474 0.18476 0.54268 0.0
C586 C 0.46196 0.22357 0.53983 0.0
C587 C 0.49978 0.28016 0.56009 0.0
C588 C 0.51798 0.29922 0.58371 0.0
C589 C 0.48096 0.24194 0.56324 0.0
C590 C 0.51701 0.27957 0.61066 0.0
C591 C 0.49929 0.24089 0.61378 0.0
H592 H 0.03081 0.76108 0.54113 0.0
H593 H 0.047 0.7608 0.6332 0.0
H594 H 0.01218 0.69483 0.63659 0.0
H595 H 0.97676 0.63717 0.61297 0.0
H596 H 0.95819 0.64168 0.52098 0.0
H597 H -0.0061 0.70614 0.51817 0.0
C598 C 0.02718 0.74644 0.56197 0.0
C599 C 0.04213 0.76557 0.58682 0.0
C600 C 0.00623 0.70938 0.56381 0.0
C601 C 0.03613 0.74658 0.61369 0.0
C602 C 0.01609 0.70893 0.61563 0.0
C603 C 0.98032 0.65238 0.59234 0.0
C604 C 0.96465 0.63424 0.56723 0.0
C605 C 0.00085 0.69006 0.59079 0.0
C606 C 0.96959 0.65467 0.54073 0.0
C607 C 0.99027 0.69158 0.53901 0.0
H608 H 0.92898 0.9715 0.98322 0.0
H609 H 0.03579 0.91378 0.95774 0.0
H610 H 0.06302 0.92712 0.00543 0.0
H611 H 0.05947 0.96323 0.05143 0.0
H612 H 0.9553 0.02783 0.075 0.0
H613 H 0.92374 1.00328 0.03108 0.0
C614 C 0.95792 0.96108 0.98835 0.0
C615 C 0.9805 0.94188 0.96706 0.0
C616 C 0.97392 0.97048 0.01532 0.0
C617 C 0.01803 0.92885 0.9738 0.0
C618 C 0.0336 0.93655 0.001 0.0
C619 C 0.02958 0.97129 0.04733 0.0
C620 C 0.00984 0.99756 0.0664 0.0
C621 C 0.01227 0.95858 0.02154 0.0
C622 C 0.97121 0.00787 0.06059 0.0
C623 C 0.9532 0.99394 0.03544 0.0
H624 H 0.56183 0.09277 0.97769 0.0
H625 H 0.46344 0.13515 0.92912 0.0
H626 H 0.42934 0.15129 0.97378 0.0
H627 H 0.42418 0.14431 0.02633 0.0
H628 H 0.51981 0.09502 0.07434 0.0
H629 H 0.55897 0.09202 0.03042 0.0
C630 C 0.53314 0.10607 0.97688 0.0
C631 C 0.51494 0.11217 0.95021 0.0
C632 C 0.51339 0.11438 0.00262 0.0
C633 C 0.4778 0.12948 0.94945 0.0
C634 C 0.45835 0.13893 0.97496 0.0
C635 C 0.45411 0.13449 0.02722 0.0
C636 C 0.4695 0.12046 0.05334 0.0
C637 C 0.47544 0.1304 0.00165 0.0
C638 C 0.5078 0.10651 0.05436 0.0
C639 C 0.52992 0.10429 0.02925 0.0
H640 H 0.45435 0.98293 0.50774 0.0
H641 H 0.55484 0.05064 0.53653 0.0
H642 H 0.5818 0.0484 0.48766 0.0
H643 H 0.57703 0.02579 0.4371 0.0
H644 H 0.47796 0.9545 0.40969 0.0
H645 H 0.44979 0.96001 0.45783 0.0
C646 C 0.48209 0.99741 0.50333 0.0
C647 C 0.50255 0.01709 0.5256 0.0
C648 C 0.49746 0.99549 0.47548 0.0
C649 C 0.53866 0.0352 0.51969 0.0
C650 C 0.55396 0.03405 0.49178 0.0
C651 C 0.54905 0.0119 0.44162 0.0
C652 C 0.52938 0.99004 0.41989 0.0
C653 C 0.5336 0.01419 0.46954 0.0
C654 C 0.49355 0.97151 0.4261 0.0
C655 C 0.4775 0.97459 0.45359 0.0
H656 H 0.03892 0.88106 0.51411 0.0
H657 H 0.96235 0.96018 0.56192 0.0
H658 H 0.92656 0.97559 0.51792 0.0
H659 H 0.91918 0.96921 0.46576 0.0
H660 H -0.00715 0.88722 0.41787 0.0
H661 H 0.02818 0.87029 0.46214 0.0
C662 C 0.01449 0.9017 0.51485 0.0
C663 C 0.00362 0.92006 0.54103 0.0
C664 C -0.00614 0.91002 0.48953 0.0
C665 C 0.97118 0.94577 0.54194 0.0
C666 C 0.95089 0.95475 0.51681 0.0
C667 C 0.94308 0.94772 0.46504 0.0
C668 C 0.95405 0.93001 0.43869 0.0
C669 C 0.96239 0.93756 0.49047 0.0
C670 C 0.98425 0.90138 0.438 0.0
C671 C 0.00435 0.89177 0.46323 0.0
H672 H 0.59074 0.53946 0.03575 0.0
H673 H 0.48742 0.59455 0.07034 0.0
H674 H 0.45158 0.57508 0.02691 0.0
H675 H 0.45035 0.5444 0.97863 0.0
H676 H 0.55511 0.49536 0.94194 0.0
H677 H 0.58995 0.51054 0.98669 0.0
C678 C 0.56026 0.54677 0.03382 0.0
C679 C 0.54149 0.56795 0.0562 0.0
C680 C 0.54034 0.53686 0.00841 0.0
C681 C 0.5023 0.57814 0.05334 0.0
C682 C 0.48189 0.56706 0.02855 0.0
C683 C 0.48079 0.53689 0.98051 0.0
C684 C 0.5002 0.51865 0.95719 0.0
C685 C 0.50072 0.54674 0.00588 0.0
C686 C 0.53969 0.50956 0.95965 0.0
C687 C 0.55952 0.51811 0.98521 0.0
H688 H 0.90989 0.55766 0.04905 0.0
H689 H -0.00098 0.47915 0.08283 0.0
H690 H 0.03127 0.47856 0.03568 0.0
H691 H 0.0327 0.49891 0.98458 0.0
H692 H 0.93921 0.5704 0.94956 0.0
H693 H 0.9097 0.57531 -0.00251 0.0
C694 C 0.93661 0.54082 0.04604 0.0
C695 C 0.95261 0.51903 0.06924 0.0
C696 C 0.95385 0.5392 0.0187 0.0
C697 C 0.98657 0.49636 0.06517 0.0
C698 C 0.00485 0.49599 0.03829 0.0
C699 C 0.00593 0.51567 0.98756 0.0
C700 C 0.98813 0.53452 0.96382 0.0
C701 C 0.98858 0.51706 0.01487 0.0
C702 C 0.95322 0.55561 0.96764 0.0
C703 C 0.93648 0.55849 -0.00502 0.0
H704 H 0.03916 0.50554 0.53548 0.0
H705 H 0.94209 0.4247 0.51992 0.0
H706 H 0.96886 0.40541 0.47318 0.0
H707 H 0.01905 0.41242 0.43633 0.0
H708 H 0.11387 0.4972 0.44967 0.0
H709 H 0.08871 0.51443 0.49737 0.0
C710 C 0.02425 0.48344 0.52187 0.0
C711 C 0.98906 0.46616 0.53107 0.0
C712 C 0.03915 0.47357 0.49452 0.0
C713 C 0.96937 0.43823 0.51316 0.0
C714 C 0.98458 0.42725 0.48646 0.0
C715 C 0.03419 0.43469 0.44966 0.0
C716 C 0.06826 0.45341 0.43949 0.0
C717 C 0.01928 0.44493 0.47683 0.0
C718 C 0.08739 0.48252 0.45693 0.0
C719 C 0.07316 0.49224 0.48429 0.0
H720 H 0.52014 0.41326 0.50675 0.0
H721 H 0.4418 0.49836 0.54726 0.0
H722 H 0.41368 0.51491 0.50036 0.0
H723 H 0.41298 0.50674 0.44778 0.0
H724 H 0.48785 0.41796 0.40752 0.0
H725 H 0.51649 0.40161 0.45445 0.0
C726 C 0.497 0.43545 0.50528 0.0
C727 C 0.48337 0.45503 0.53027 0.0
C728 C 0.48079 0.44441 0.47833 0.0
C729 C 0.45262 0.48287 0.52824 0.0
C730 C 0.43678 0.49255 0.50145 0.0
C731 C 0.43583 0.48408 0.44933 0.0
C732 C 0.449 0.46411 0.42436 0.0
C733 C 0.45101 0.47391 0.47635 0.0
C734 C 0.4777 0.43394 0.42655 0.0
C735 C 0.49391 0.42456 0.45331 0.0
loop_
_geom_bond_atom_site_label_1
_geom_bond_atom_site_label_2
_geom_bond_distance
_geom_bond_site_symmetry_2
_ccdc_geom_bond_type
Mg0 O1 2.028 . S
Mg0 O7 1.986 . S
Mg0 O9 2.114 . S
Mg0 O10 2.251 . S
Mg0 O13 2.010 . S
O1 Mg0 2.028 . S
O1 C4 1.250 . S
O2 Mg3 2.028 . S
O2 C4 1.248 1_565 S
Mg3 O2 2.028 . S
Mg3 O8 2.032 . S
Mg3 O10 2.079 1_565 S
C4 O1 1.250 . S
C4 O2 1.248 1_545 S
C5 O6 1.264 . S
C5 O13 1.249 . S
O6 C5 1.264 . S
O7 Mg0 1.986 . S
O7 C11 1.246 1_545 S
O8 Mg3 2.032 . S
O8 C11 1.259 . S
O9 Mg0 2.114 . S
O9 C12 1.252 . S
O10 Mg0 2.251 . S
O10 Mg3 2.079 1_545 S
O10 C12 1.273 . S
C11 O7 1.246 1_565 S
C11 O8 1.259 . S
C12 O9 1.252 . S
C12 O10 1.273 . S
O13 Mg0 2.010 . S
O13 C5 1.249 . S
Mg14 O15 2.028 . S
Mg14 O21 1.986 . S
Mg14 O23 2.114 . S
Mg14 O24 2.251 . S
Mg14 O27 2.010 . S
O15 Mg14 2.028 . S
O15 C18 1.250 . S
O16 Mg17 2.028 . S
O16 C18 1.248 1_545 S
Mg17 O16 2.028 . S
Mg17 O22 2.032 . S
Mg17 O24 2.079 1_545 S
C18 O15 1.250 . S
C18 O16 1.248 1_565 S
C19 O20 1.264 . S
C19 O27 1.249 . S
O20 C19 1.264 . S
O21 Mg14 1.986 . S
O21 C25 1.246 1_565 S
O22 Mg17 2.032 . S
O22 C25 1.259 . S
O23 Mg14 2.114 . S
O23 C26 1.252 . S
O24 Mg14 2.251 . S
O24 Mg17 2.079 1_565 S
O24 C26 1.273 . S
C25 O21 1.246 1_545 S
C25 O22 1.259 . S
C26 O23 1.252 . S
C26 O24 1.273 . S
O27 Mg14 2.010 . S
O27 C19 1.249 . S
Mg28 O29 2.028 . S
Mg28 O35 1.986 . S
Mg28 O37 2.114 . S
Mg28 O38 2.251 . S
Mg28 O41 2.010 . S
O29 Mg28 2.028 . S
O29 C32 1.250 . S
O30 Mg31 2.028 . S
O30 C32 1.248 1_545 S
Mg31 O30 2.028 . S
Mg31 O36 2.032 . S
Mg31 O38 2.079 1_545 S
C32 O29 1.250 . S
C32 O30 1.248 1_565 S
C33 O34 1.264 . S
C33 O41 1.249 . S
O34 C33 1.264 . S
O35 Mg28 1.986 . S
O35 C39 1.246 1_565 S
O36 Mg31 2.032 . S
O36 C39 1.259 . S
O37 Mg28 2.114 . S
O37 C40 1.252 . S
O38 Mg28 2.251 . S
O38 Mg31 2.079 1_565 S
O38 C40 1.273 . S
C39 O35 1.246 1_545 S
C39 O36 1.259 . S
C40 O37 1.252 . S
C40 O38 1.273 . S
O41 Mg28 2.010 . S
O41 C33 1.249 . S
Mg42 O43 2.028 . S
Mg42 O49 1.986 . S
Mg42 O51 2.114 . S
Mg42 O52 2.251 . S
Mg42 O55 2.010 . S
O43 Mg42 2.028 . S
O43 C46 1.250 . S
O44 Mg45 2.028 . S
O44 C46 1.248 1_565 S
Mg45 O44 2.028 . S
Mg45 O50 2.032 . S
Mg45 O52 2.079 1_565 S
C46 O43 1.250 . S
C46 O44 1.248 1_545 S
C47 O48 1.264 . S
C47 O55 1.249 . S
O48 C47 1.264 . S
O49 Mg42 1.986 . S
O49 C53 1.246 1_545 S
O50 Mg45 2.032 . S
O50 C53 1.259 . S
O51 Mg42 2.114 . S
O51 C54 1.252 . S
O52 Mg42 2.251 . S
O52 Mg45 2.079 1_545 S
O52 C54 1.273 . S
C53 O49 1.246 1_565 S
C53 O50 1.259 . S
C54 O51 1.252 . S
C54 O52 1.273 . S
O55 Mg42 2.010 . S
O55 C47 1.249 . S
Mg56 O57 2.028 . S
Mg56 O63 1.986 . S
Mg56 O65 2.114 . S
Mg56 O66 2.251 . S
Mg56 O69 2.010 . S
O57 Mg56 2.028 . S
O57 C60 1.250 . S
O58 Mg59 2.028 . S
O58 C60 1.248 . S
Mg59 O58 2.028 . S
Mg59 O64 2.032 . S
Mg59 O66 2.079 . S
C60 O57 1.250 . S
C60 O58 1.248 . S
C61 O62 1.264 1_565 S
C61 O69 1.249 . S
O62 C61 1.264 1_545 S
O63 Mg56 1.986 . S
O63 C67 1.246 . S
O64 Mg59 2.032 . S
O64 C67 1.259 . S
O65 Mg56 2.114 . S
O65 C68 1.252 . S
O66 Mg56 2.251 . S
O66 Mg59 2.079 . S
O66 C68 1.273 . S
C67 O63 1.246 . S
C67 O64 1.259 . S
C68 O65 1.252 . S
C68 O66 1.273 . S
O69 Mg56 2.010 . S
O69 C61 1.249 . S
Mg70 O71 2.028 . S
Mg70 O77 1.986 . S
Mg70 O79 2.114 . S
Mg70 O80 2.251 . S
Mg70 O83 2.010 . S
O71 Mg70 2.028 . S
O71 C74 1.250 . S
O72 Mg73 2.028 . S
O72 C74 1.248 . S
Mg73 O72 2.028 . S
Mg73 O78 2.032 . S
Mg73 O80 2.079 . S
C74 O71 1.250 . S
C74 O72 1.248 . S
C75 O76 1.264 1_545 S
C75 O83 1.249 . S
O76 C75 1.264 1_565 S
O77 Mg70 1.986 . S
O77 C81 1.246 . S
O78 Mg73 2.032 . S
O78 C81 1.259 . S
O79 Mg70 2.114 . S
O79 C82 1.252 . S
O80 Mg70 2.251 . S
O80 Mg73 2.079 . S
O80 C82 1.273 . S
C81 O77 1.246 . S
C81 O78 1.259 . S
C82 O79 1.252 . S
C82 O80 1.273 . S
O83 Mg70 2.010 . S
O83 C75 1.249 . S
Mg84 O85 2.028 . S
Mg84 O91 1.986 . S
Mg84 O93 2.114 . S
Mg84 O94 2.251 . S
Mg84 O97 2.010 . S
O85 Mg84 2.028 . S
O85 C88 1.250 . S
O86 Mg87 2.028 . S
O86 C88 1.248 . S
Mg87 O86 2.028 . S
Mg87 O92 2.032 . S
Mg87 O94 2.079 . S
C88 O85 1.250 . S
C88 O86 1.248 . S
C89 O90 1.264 1_545 S
C89 O97 1.249 . S
O90 C89 1.264 1_565 S
O91 Mg84 1.986 . S
O91 C95 1.246 . S
O92 Mg87 2.032 . S
O92 C95 1.259 . S
O93 Mg84 2.114 . S
O93 C96 1.252 . S
O94 Mg84 2.251 . S
O94 Mg87 2.079 . S
O94 C96 1.273 . S
C95 O91 1.246 . S
C95 O92 1.259 . S
C96 O93 1.252 . S
C96 O94 1.273 . S
O97 Mg84 2.010 . S
O97 C89 1.249 . S
Mg98 O99 2.028 . S
Mg98 O105 1.986 . S
Mg98 O107 2.114 . S
Mg98 O108 2.251 . S
Mg98 O111 2.010 . S
O99 Mg98 2.028 . S
O99 C102 1.250 . S
O100 Mg101 2.028 . S
O100 C102 1.248 . S
Mg101 O100 2.028 . S
Mg101 O106 2.032 . S
Mg101 O108 2.079 . S
C102 O99 1.250 . S
C102 O100 1.248 . S
C103 O104 1.264 1_565 S
C103 O111 1.249 . S
O104 C103 1.264 1_545 S
O105 Mg98 1.986 . S
O105 C109 1.246 . S
O106 Mg101 2.032 . S
O106 C109 1.259 . S
O107 Mg98 2.114 . S
O107 C110 1.252 . S
O108 Mg98 2.251 . S
O108 Mg101 2.079 . S
O108 C110 1.273 . S
C109 O105 1.246 . S
C109 O106 1.259 . S
C110 O107 1.252 . S
C110 O108 1.273 . S
O111 Mg98 2.010 . S
O111 C103 1.249 . S
Mg112 O113 2.028 . S
Mg112 O119 1.986 . S
Mg112 O121 2.114 . S
Mg112 O122 2.251 . S
Mg112 O125 2.010 . S
O113 Mg112 2.028 . S
O113 C116 1.250 . S
O114 Mg115 2.028 . S
O114 C116 1.248 . S
Mg115 O114 2.028 . S
Mg115 O120 2.032 . S
Mg115 O122 2.079 . S
C116 O113 1.250 . S
C116 O114 1.248 . S
C117 O118 1.264 . S
C117 O125 1.249 . S
O118 C117 1.264 . S
O119 Mg112 1.986 . S
O119 C123 1.246 . S
O120 Mg115 2.032 . S
O120 C123 1.259 . S
O121 Mg112 2.114 . S
O121 C124 1.252 . S
O122 Mg112 2.251 . S
O122 Mg115 2.079 . S
O122 C124 1.273 . S
C123 O119 1.246 . S
C123 O120 1.259 . S
C124 O121 1.252 . S
C124 O122 1.273 . S
O125 Mg112 2.010 . S
O125 C117 1.249 . S
Mg126 O127 2.028 . S
Mg126 O133 1.986 . S
Mg126 O135 2.114 . S
Mg126 O136 2.251 . S
Mg126 O139 2.010 . S
O127 Mg126 2.028 . S
O127 C130 1.250 . S
O128 Mg129 2.028 . S
O128 C130 1.248 . S
Mg129 O128 2.028 . S
Mg129 O134 2.032 . S
Mg129 O136 2.079 . S
C130 O127 1.250 . S
C130 O128 1.248 . S
C131 O132 1.264 . S
C131 O139 1.249 . S
O132 C131 1.264 . S
O133 Mg126 1.986 . S
O133 C137 1.246 . S
O134 Mg129 2.032 . S
O134 C137 1.259 . S
O135 Mg126 2.114 . S
O135 C138 1.252 . S
O136 Mg126 2.251 . S
O136 Mg129 2.079 . S
O136 C138 1.273 . S
C137 O133 1.246 . S
C137 O134 1.259 . S
C138 O135 1.252 . S
C138 O136 1.273 . S
O139 Mg126 2.010 . S
O139 C131 1.249 . S
Mg140 O141 2.028 . S
Mg140 O147 1.986 . S
Mg140 O149 2.114 . S
Mg140 O150 2.251 . S
Mg140 O153 2.010 . S
O141 Mg140 2.028 . S
O141 C144 1.250 . S
O142 Mg143 2.028 . S
O142 C144 1.248 . S
Mg143 O142 2.028 . S
Mg143 O148 2.032 . S
Mg143 O150 2.079 . S
C144 O141 1.250 . S
C144 O142 1.248 . S
C145 O146 1.264 . S
C145 O153 1.249 . S
O146 C145 1.264 . S
O147 Mg140 1.986 . S
O147 C151 1.246 . S
O148 Mg143 2.032 . S
O148 C151 1.259 . S
O149 Mg140 2.114 . S
O149 C152 1.252 . S
O150 Mg140 2.251 . S
O150 Mg143 2.079 . S
O150 C152 1.273 . S
C151 O147 1.246 . S
C151 O148 1.259 . S
C152 O149 1.252 . S
C152 O150 1.273 . S
O153 Mg140 2.010 . S
O153 C145 1.249 . S
Mg154 O155 2.028 . S
Mg154 O161 1.986 . S
Mg154 O163 2.114 . S
Mg154 O164 2.251 . S
Mg154 O167 2.010 . S
O155 Mg154 2.028 . S
O155 C158 1.250 . S
O156 Mg157 2.028 . S
O156 C158 1.248 . S
Mg157 O156 2.028 . S
Mg157 O162 2.032 . S
Mg157 O164 2.079 . S
C158 O155 1.250 . S
C158 O156 1.248 . S
C159 O160 1.264 . S
C159 O167 1.249 . S
O160 C159 1.264 . S
O161 Mg154 1.986 . S
O161 C165 1.246 . S
O162 Mg157 2.032 . S
O162 C165 1.259 . S
O163 Mg154 2.114 . S
O163 C166 1.252 . S
O164 Mg154 2.251 . S
O164 Mg157 2.079 . S
O164 C166 1.273 . S
C165 O161 1.246 . S
C165 O162 1.259 . S
C166 O163 1.252 . S
C166 O164 1.273 . S
O167 Mg154 2.010 . S
O167 C159 1.249 . S
Mg168 O169 2.028 . S
Mg168 O175 1.986 . S
Mg168 O177 2.114 . S
Mg168 O178 2.251 . S
Mg168 O181 2.010 . S
O169 Mg168 2.028 . S
O169 C172 1.250 . S
O170 Mg171 2.028 . S
O170 C172 1.248 . S
Mg171 O170 2.028 . S
Mg171 O176 2.032 . S
Mg171 O178 2.079 . S
C172 O169 1.250 . S
C172 O170 1.248 . S
C173 O174 1.264 . S
C173 O181 1.249 . S
O174 C173 1.264 . S
O175 Mg168 1.986 . S
O175 C179 1.246 . S
O176 Mg171 2.032 . S
O176 C179 1.259 . S
O177 Mg168 2.114 . S
O177 C180 1.252 . S
O178 Mg168 2.251 . S
O178 Mg171 2.079 . S
O178 C180 1.273 . S
C179 O175 1.246 . S
C179 O176 1.259 . S
C180 O177 1.252 . S
C180 O178 1.273 . S
O181 Mg168 2.010 . S
O181 C173 1.249 . S
Mg182 O183 2.028 . S
Mg182 O189 1.986 . S
Mg182 O191 2.114 . S
Mg182 O192 2.251 . S
Mg182 O195 2.010 . S
O183 Mg182 2.028 . S
O183 C186 1.250 . S
O184 Mg185 2.028 . S
O184 C186 1.248 . S
Mg185 O184 2.028 . S
Mg185 O190 2.032 . S
Mg185 O192 2.079 . S
C186 O183 1.250 . S
C186 O184 1.248 . S
C187 O188 1.264 . S
C187 O195 1.249 . S
O188 C187 1.264 . S
O189 Mg182 1.986 . S
O189 C193 1.246 . S
O190 Mg185 2.032 . S
O190 C193 1.259 . S
O191 Mg182 2.114 . S
O191 C194 1.252 . S
O192 Mg182 2.251 . S
O192 Mg185 2.079 . S
O192 C194 1.273 . S
C193 O189 1.246 . S
C193 O190 1.259 . S
C194 O191 1.252 . S
C194 O192 1.273 . S
O195 Mg182 2.010 . S
O195 C187 1.249 . S
Mg196 O197 2.028 . S
Mg196 O203 1.986 . S
Mg196 O205 2.114 . S
Mg196 O206 2.251 . S
Mg196 O209 2.010 . S
O197 Mg196 2.028 . S
O197 C200 1.250 . S
O198 Mg199 2.028 . S
O198 C200 1.248 . S
Mg199 O198 2.028 . S
Mg199 O204 2.032 . S
Mg199 O206 2.079 . S
C200 O197 1.250 . S
C200 O198 1.248 . S
C201 O202 1.264 . S
C201 O209 1.249 . S
O202 C201 1.264 . S
O203 Mg196 1.986 . S
O203 C207 1.246 . S
O204 Mg199 2.032 . S
O204 C207 1.259 . S
O205 Mg196 2.114 . S
O205 C208 1.252 . S
O206 Mg196 2.251 . S
O206 Mg199 2.079 . S
O206 C208 1.273 . S
C207 O203 1.246 . S
C207 O204 1.259 . S
C208 O205 1.252 . S
C208 O206 1.273 . S
O209 Mg196 2.010 . S
O209 C201 1.249 . S
Mg210 O211 2.028 . S
Mg210 O217 1.986 . S
Mg210 O219 2.114 . S
Mg210 O220 2.251 . S
Mg210 O223 2.010 . S
O211 Mg210 2.028 . S
O211 C214 1.250 . S
O212 Mg213 2.028 . S
O212 C214 1.248 . S
Mg213 O212 2.028 . S
Mg213 O218 2.032 . S
Mg213 O220 2.079 . S
C214 O211 1.250 . S
C214 O212 1.248 . S
C215 O216 1.264 . S
C215 O223 1.249 . S
O216 C215 1.264 . S
O217 Mg210 1.986 . S
O217 C221 1.246 . S
O218 Mg213 2.032 . S
O218 C221 1.259 . S
O219 Mg210 2.114 . S
O219 C222 1.252 . S
O220 Mg210 2.251 . S
O220 Mg213 2.079 . S
O220 C222 1.273 . S
C221 O217 1.246 . S
C221 O218 1.259 . S
C222 O219 1.252 . S
C222 O220 1.273 . S
O223 Mg210 2.010 . S
O223 C215 1.249 . S
H224 C230 0.930 . S
H225 C233 0.930 . S
H226 C234 0.930 . S
H227 C235 0.930 . S
H228 C238 0.930 . S
H229 C239 0.930 . S
C230 H224 0.930 . S
C230 C231 1.355 . S
C230 C232 1.417 . S
C231 C230 1.355 . S
C231 C233 1.419 . S
C232 C230 1.417 . S
C232 C237 1.425 1_565 S
C232 C239 1.407 1_565 S
C233 H225 0.930 . S
C233 C231 1.419 . S
C233 C234 1.362 . S
C234 H226 0.930 . S
C234 C233 1.362 . S
C234 C237 1.407 1_565 S
C235 H227 0.930 . S
C235 C236 1.355 . S
C235 C237 1.417 . S
C236 C235 1.355 . S
C236 C238 1.419 . S
C237 C232 1.425 1_545 S
C237 C234 1.407 1_545 S
C237 C235 1.417 . S
C238 H228 0.930 . S
C238 C236 1.419 . S
C238 C239 1.362 . S
C239 H229 0.930 . S
C239 C232 1.407 1_545 S
C239 C238 1.362 . S
H240 C246 0.930 . S
H241 C249 0.930 . S
H242 C250 0.930 . S
H243 C251 0.930 . S
H244 C254 0.930 . S
H245 C255 0.930 . S
C246 H240 0.930 . S
C246 C247 1.355 . S
C246 C248 1.415 . S
C247 C246 1.355 . S
C247 C249 1.419 1_565 S
C248 C246 1.415 . S
C248 C253 1.425 1_565 S
C248 C255 1.409 . S
C249 H241 0.930 . S
C249 C247 1.419 1_545 S
C249 C250 1.362 . S
C250 H242 0.930 . S
C250 C249 1.362 . S
C250 C253 1.409 . S
C251 H243 0.930 . S
C251 C252 1.355 . S
C251 C253 1.415 . S
C252 C251 1.355 . S
C252 C254 1.419 1_545 S
C253 C248 1.425 1_545 S
C253 C250 1.409 . S
C253 C251 1.415 . S
C254 H244 0.930 . S
C254 C252 1.419 1_565 S
C254 C255 1.362 . S
C255 H245 0.930 . S
C255 C248 1.409 . S
C255 C254 1.362 . S
H256 C262 0.930 1_545 S
H257 C265 0.930 . S
H258 C266 0.930 . S
H259 C267 0.930 1_565 S
H260 C270 0.930 . S
H261 C271 0.930 . S
C262 H256 0.930 1_565 S
C262 C263 1.355 . S
C262 C264 1.415 1_565 S
C263 C262 1.355 . S
C263 C265 1.419 . S
C264 C262 1.415 1_545 S
C264 C269 1.425 1_545 S
C264 C271 1.409 . S
C265 H257 0.930 . S
C265 C263 1.419 . S
C265 C266 1.362 . S
C266 H258 0.930 . S
C266 C265 1.362 . S
C266 C269 1.409 . S
C267 H259 0.930 1_545 S
C267 C268 1.355 . S
C267 C269 1.415 1_545 S
C268 C267 1.355 . S
C268 C270 1.419 . S
C269 C264 1.425 1_565 S
C269 C266 1.409 . S
C269 C267 1.415 1_565 S
C270 H260 0.930 . S
C270 C268 1.419 . S
C270 C271 1.362 . S
C271 H261 0.930 . S
C271 C264 1.409 . S
C271 C270 1.362 . S
H272 C278 0.931 1_545 S
H273 C281 0.930 . S
H274 C282 0.930 . S
H275 C283 0.931 1_565 S
H276 C286 0.930 . S
H277 C287 0.930 . S
C278 H272 0.931 1_565 S
C278 C279 1.352 . S
C278 C280 1.415 1_565 S
C279 C278 1.352 . S
C279 C281 1.419 . S
C280 C278 1.415 1_545 S
C280 C285 1.425 1_545 S
C280 C287 1.409 . S
C281 H273 0.930 . S
C281 C279 1.419 . S
C281 C282 1.362 . S
C282 H274 0.930 . S
C282 C281 1.362 . S
C282 C285 1.409 . S
C283 H275 0.931 1_545 S
C283 C284 1.352 . S
C283 C285 1.415 1_545 S
C284 C283 1.352 . S
C284 C286 1.419 . S
C285 C280 1.425 1_565 S
C285 C282 1.409 . S
C285 C283 1.415 1_565 S
C286 H276 0.930 . S
C286 C284 1.419 . S
C286 C287 1.362 . S
C287 H277 0.930 . S
C287 C280 1.409 . S
C287 C286 1.362 . S
H288 C294 0.930 . S
H289 C297 0.930 . S
H290 C298 0.930 . S
H291 C299 0.930 . S
H292 C302 0.930 . S
H293 C303 0.930 . S
C294 H288 0.930 . S
C294 C295 1.355 . S
C294 C296 1.415 . S
C295 C294 1.355 . S
C295 C297 1.419 . S
C296 C294 1.415 . S
C296 C301 1.425 . S
C296 C303 1.409 . S
C297 H289 0.930 . S
C297 C295 1.419 . S
C297 C298 1.362 . S
C298 H290 0.930 . S
C298 C297 1.362 . S
C298 C301 1.409 . S
C299 H291 0.930 . S
C299 C300 1.355 . S
C299 C301 1.415 . S
C300 C299 1.355 . S
C300 C302 1.419 . S
C301 C296 1.425 . S
C301 C298 1.409 . S
C301 C299 1.415 . S
C302 H292 0.930 . S
C302 C300 1.419 . S
C302 C303 1.362 . S
C303 H293 0.930 . S
C303 C296 1.409 . S
C303 C302 1.362 . S
H304 C310 0.930 . S
H305 C313 0.930 . S
H306 C314 0.930 . S
H307 C315 0.930 . S
H308 C318 0.930 . S
H309 C319 0.930 . S
C310 H304 0.930 . S
C310 C311 1.355 . S
C310 C312 1.415 . S
C311 C310 1.355 . S
C311 C313 1.419 . S
C312 C310 1.415 . S
C312 C317 1.425 . S
C312 C319 1.409 . S
C313 H305 0.930 . S
C313 C311 1.419 . S
C313 C314 1.362 . S
C314 H306 0.930 . S
C314 C313 1.362 . S
C314 C317 1.409 . S
C315 H307 0.930 . S
C315 C316 1.355 . S
C315 C317 1.415 . S
C316 C315 1.355 . S
C316 C318 1.419 . S
C317 C312 1.425 . S
C317 C314 1.409 . S
C317 C315 1.415 . S
C318 H308 0.930 . S
C318 C316 1.419 . S
C318 C319 1.362 . S
C319 H309 0.930 . S
C319 C312 1.409 . S
C319 C318 1.362 . S
H320 C326 0.930 . S
H321 C329 0.930 . S
H322 C330 0.930 . S
H323 C331 0.930 . S
H324 C334 0.930 . S
H325 C335 0.930 . S
C326 H320 0.930 . S
C326 C327 1.355 . S
C326 C328 1.415 . S
C327 C326 1.355 . S
C327 C329 1.419 . S
C328 C326 1.415 . S
C328 C333 1.425 . S
C328 C335 1.409 . S
C329 H321 0.930 . S
C329 C327 1.419 . S
C329 C330 1.362 . S
C330 H322 0.930 . S
C330 C329 1.362 . S
C330 C333 1.409 . S
C331 H323 0.930 . S
C331 C332 1.355 . S
C331 C333 1.415 . S
C332 C331 1.355 . S
C332 C334 1.419 . S
C333 C328 1.425 . S
C333 C330 1.409 . S
C333 C331 1.415 . S
C334 H324 0.930 . S
C334 C332 1.419 . S
C334 C335 1.362 . S
C335 H325 0.930 . S
C335 C328 1.409 . S
C335 C334 1.362 . S
H336 C342 0.930 . S
H337 C345 0.930 . S
H338 C346 0.930 . S
H339 C347 0.930 . S
H340 C350 0.930 . S
H341 C351 0.930 . S
C342 H336 0.930 . S
C342 C343 1.355 . S
C342 C344 1.415 . S
C343 C342 1.355 . S
C343 C345 1.419 . S
C344 C342 1.415 . S
C344 C349 1.425 . S
C344 C351 1.409 . S
C345 H337 0.930 . S
C345 C343 1.419 . S
C345 C346 1.362 . S
C346 H338 0.930 . S
C346 C345 1.362 . S
C346 C349 1.409 . S
C347 H339 0.930 . S
C347 C348 1.355 . S
C347 C349 1.415 . S
C348 C347 1.355 . S
C348 C350 1.419 . S
C349 C344 1.425 . S
C349 C346 1.409 . S
C349 C347 1.415 . S
C350 H340 0.930 . S
C350 C348 1.419 . S
C350 C351 1.362 . S
C351 H341 0.930 . S
C351 C344 1.409 . S
C351 C350 1.362 . S
H352 C358 0.930 . S
H353 C361 0.930 . S
H354 C362 0.930 . S
H355 C363 0.930 . S
H356 C366 0.930 . S
H357 C367 0.930 . S
C358 H352 0.930 . S
C358 C359 1.355 1_565 S
C358 C360 1.415 1_565 S
C359 C358 1.355 1_545 S
C359 C361 1.419 1_655 S
C360 C358 1.415 1_545 S
C360 C365 1.425 1_655 S
C360 C367 1.409 1_545 S
C361 H353 0.930 . S
C361 C359 1.419 1_455 S
C361 C362 1.362 . S
C362 H354 0.930 . S
C362 C361 1.362 . S
C362 C365 1.409 . S
C363 H355 0.930 . S
C363 C364 1.355 . S
C363 C365 1.415 . S
C364 C363 1.355 . S
C364 C366 1.419 1_445 S
C365 C360 1.425 1_455 S
C365 C362 1.409 . S
C365 C363 1.415 . S
C366 H356 0.930 . S
C366 C364 1.419 1_665 S
C366 C367 1.362 . S
C367 H357 0.930 . S
C367 C360 1.409 1_565 S
C367 C366 1.362 . S
H368 C374 0.930 . S
H369 C377 0.930 . S
H370 C378 0.930 . S
H371 C379 0.930 . S
H372 C382 0.930 . S
H373 C383 0.930 . S
C374 H368 0.930 . S
C374 C375 1.355 . S
C374 C376 1.415 . S
C375 C374 1.355 . S
C375 C377 1.419 1_565 S
C376 C374 1.415 . S
C376 C381 1.425 1_565 S
C376 C383 1.409 . S
C377 H369 0.930 . S
C377 C375 1.419 1_545 S
C377 C378 1.362 . S
C378 H370 0.930 . S
C378 C377 1.362 . S
C378 C381 1.409 . S
C379 H371 0.930 . S
C379 C380 1.355 1_545 S
C379 C381 1.415 . S
C380 C379 1.355 1_565 S
C380 C382 1.419 . S
C381 C376 1.425 1_545 S
C381 C378 1.409 . S
C381 C379 1.415 . S
C382 H372 0.930 . S
C382 C380 1.419 . S
C382 C383 1.362 . S
C383 H373 0.930 . S
C383 C376 1.409 . S
C383 C382 1.362 . S
H384 C390 0.930 1_545 S
H385 C393 0.930 . S
H386 C394 0.930 . S
H387 C395 0.930 . S
H388 C398 0.930 1_545 S
H389 C399 0.930 . S
C390 H384 0.930 1_565 S
C390 C391 1.355 1_655 S
C390 C392 1.415 . S
C391 C390 1.355 1_455 S
C391 C393 1.419 . S
C392 C390 1.415 . S
C392 C397 1.425 1_655 S
C392 C399 1.409 1_565 S
C393 H385 0.930 . S
C393 C391 1.419 . S
C393 C394 1.362 . S
C394 H386 0.930 . S
C394 C393 1.362 . S
C394 C397 1.409 . S
C395 H387 0.930 . S
C395 C396 1.355 1_455 S
C395 C397 1.415 . S
C396 C395 1.355 1_655 S
C396 C398 1.419 . S
C397 C392 1.425 1_455 S
C397 C394 1.409 . S
C397 C395 1.415 . S
C398 H388 0.930 1_565 S
C398 C396 1.419 . S
C398 C399 1.362 1_565 S
C399 H389 0.930 . S
C399 C392 1.409 1_545 S
C399 C398 1.362 1_545 S
H400 C406 0.930 . S
H401 C409 0.930 . S
H402 C410 0.930 . S
H403 C411 0.930 . S
H404 C414 0.930 1_565 S
H405 C415 0.930 1_565 S
C406 H400 0.930 . S
C406 C407 1.355 . S
C406 C408 1.415 . S
C407 C406 1.355 . S
C407 C409 1.419 . S
C408 C406 1.415 . S
C408 C413 1.425 . S
C408 C415 1.409 . S
C409 H401 0.930 . S
C409 C407 1.419 . S
C409 C410 1.362 . S
C410 H402 0.930 . S
C410 C409 1.362 . S
C410 C413 1.409 . S
C411 H403 0.930 . S
C411 C412 1.355 . S
C411 C413 1.415 . S
C412 C411 1.355 . S
C412 C414 1.419 . S
C413 C408 1.425 . S
C413 C410 1.409 . S
C413 C411 1.415 . S
C414 H404 0.930 1_545 S
C414 C412 1.419 . S
C414 C415 1.362 . S
C415 H405 0.930 1_545 S
C415 C408 1.409 . S
C415 C414 1.362 . S
H416 C422 0.930 . S
H417 C425 0.930 . S
H418 C426 0.930 . S
H419 C427 0.930 . S
H420 C430 0.930 . S
H421 C431 0.930 . S
C422 H416 0.930 . S
C422 C423 1.355 . S
C422 C424 1.415 . S
C423 C422 1.355 . S
C423 C425 1.419 . S
C424 C422 1.415 . S
C424 C429 1.425 . S
C424 C431 1.409 . S
C425 H417 0.930 . S
C425 C423 1.419 . S
C425 C426 1.362 . S
C426 H418 0.930 . S
C426 C425 1.362 . S
C426 C429 1.409 . S
C427 H419 0.930 . S
C427 C428 1.355 . S
C427 C429 1.415 . S
C428 C427 1.355 . S
C428 C430 1.419 . S
C429 C424 1.425 . S
C429 C426 1.409 . S
C429 C427 1.415 . S
C430 H420 0.930 . S
C430 C428 1.419 . S
C430 C431 1.362 . S
C431 H421 0.930 . S
C431 C424 1.409 . S
C431 C430 1.362 . S
H432 C438 0.930 . S
H433 C441 0.930 . S
H434 C442 0.930 . S
H435 C443 0.930 . S
H436 C446 0.930 . S
H437 C447 0.930 . S
C438 H432 0.930 . S
C438 C439 1.355 . S
C438 C440 1.415 . S
C439 C438 1.355 . S
C439 C441 1.419 1_455 S
C440 C438 1.415 . S
C440 C445 1.425 1_455 S
C440 C447 1.409 . S
C441 H433 0.930 . S
C441 C439 1.419 1_655 S
C441 C442 1.362 . S
C442 H434 0.930 . S
C442 C441 1.362 . S
C442 C445 1.409 . S
C443 H435 0.930 . S
C443 C444 1.355 . S
C443 C445 1.415 . S
C444 C443 1.355 . S
C444 C446 1.419 1_655 S
C445 C440 1.425 1_655 S
C445 C442 1.409 . S
C445 C443 1.415 . S
C446 H436 0.930 . S
C446 C444 1.419 1_455 S
C446 C447 1.362 . S
C447 H437 0.930 . S
C447 C440 1.409 . S
C447 C446 1.362 . S
H448 C454 0.930 . S
H449 C457 0.930 . S
H450 C458 0.930 . S
H451 C459 0.930 . S
H452 C462 0.930 . S
H453 C463 0.930 . S
C454 H448 0.930 . S
C454 C455 1.355 . S
C454 C456 1.415 . S
C455 C454 1.355 . S
C455 C457 1.419 . S
C456 C454 1.415 . S
C456 C461 1.425 . S
C456 C463 1.409 . S
C457 H449 0.930 . S
C457 C455 1.419 . S
C457 C458 1.362 . S
C458 H450 0.930 . S
C458 C457 1.362 . S
C458 C461 1.409 . S
C459 H451 0.930 . S
C459 C460 1.355 . S
C459 C461 1.415 . S
C460 C459 1.355 . S
C460 C462 1.419 . S
C461 C456 1.425 . S
C461 C458 1.409 . S
C461 C459 1.415 . S
C462 H452 0.930 . S
C462 C460 1.419 . S
C462 C463 1.362 . S
C463 H453 0.930 . S
C463 C456 1.409 . S
C463 C462 1.362 . S
H464 C470 0.930 . S
H465 C473 0.930 . S
H466 C474 0.930 . S
H467 C475 0.930 . S
H468 C478 0.930 . S
H469 C479 0.930 . S
C470 H464 0.930 . S
C470 C471 1.355 . S
C470 C472 1.415 . S
C471 C470 1.355 . S
C471 C473 1.419 1_455 S
C472 C470 1.415 . S
C472 C477 1.425 1_455 S
C472 C479 1.409 . S
C473 H465 0.930 . S
C473 C471 1.419 1_655 S
C473 C474 1.362 . S
C474 H466 0.930 . S
C474 C473 1.362 . S
C474 C477 1.409 . S
C475 H467 0.930 . S
C475 C476 1.355 . S
C475 C477 1.415 . S
C476 C475 1.355 . S
C476 C478 1.419 1_655 S
C477 C472 1.425 1_655 S
C477 C474 1.409 . S
C477 C475 1.415 . S
C478 H468 0.930 . S
C478 C476 1.419 1_455 S
C478 C479 1.362 . S
C479 H469 0.930 . S
C479 C472 1.409 . S
C479 C478 1.362 . S
H480 C486 0.930 . S
H481 C489 0.930 . S
H482 C490 0.930 . S
H483 C491 0.930 . S
H484 C494 0.930 . S
H485 C495 0.930 . S
C486 H480 0.930 . S
C486 C487 1.355 . S
C486 C488 1.415 . S
C487 C486 1.355 . S
C487 C489 1.419 . S
C488 C486 1.415 . S
C488 C493 1.425 1_455 S
C488 C495 1.409 1_455 S
C489 H481 0.930 . S
C489 C487 1.419 . S
C489 C490 1.362 . S
C490 H482 0.930 . S
C490 C489 1.362 . S
C490 C493 1.409 1_455 S
C491 H483 0.930 . S
C491 C492 1.355 . S
C491 C493 1.415 . S
C492 C491 1.355 . S
C492 C494 1.419 . S
C493 C488 1.425 1_655 S
C493 C490 1.409 1_655 S
C493 C491 1.415 . S
C494 H484 0.930 . S
C494 C492 1.419 . S
C494 C495 1.362 . S
C495 H485 0.930 . S
C495 C488 1.409 1_655 S
C495 C494 1.362 . S
H496 C502 0.930 . S
H497 C505 0.930 . S
H498 C506 0.930 . S
H499 C507 0.930 . S
H500 C510 0.930 . S
H501 C511 0.930 . S
C502 H496 0.930 . S
C502 C503 1.355 . S
C502 C504 1.415 . S
C503 C502 1.355 . S
C503 C505 1.419 . S
C504 C502 1.415 . S
C504 C509 1.425 . S
C504 C511 1.409 . S
C505 H497 0.930 . S
C505 C503 1.419 . S
C505 C506 1.362 . S
C506 H498 0.930 . S
C506 C505 1.362 . S
C506 C509 1.409 . S
C507 H499 0.930 . S
C507 C508 1.355 . S
C507 C509 1.415 . S
C508 C507 1.355 . S
C508 C510 1.419 . S
C509 C504 1.425 . S
C509 C506 1.409 . S
C509 C507 1.415 . S
C510 H500 0.930 . S
C510 C508 1.419 . S
C510 C511 1.362 . S
C511 H501 0.930 . S
C511 C504 1.409 . S
C511 C510 1.362 . S
H512 C518 0.930 . S
H513 C521 0.930 . S
H514 C522 0.930 . S
H515 C523 0.930 . S
H516 C526 0.930 . S
H517 C527 0.930 . S
C518 H512 0.930 . S
C518 C519 1.355 . S
C518 C520 1.415 . S
C519 C518 1.355 . S
C519 C521 1.419 . S
C520 C518 1.415 . S
C520 C525 1.425 . S
C520 C527 1.409 . S
C521 H513 0.930 . S
C521 C519 1.419 . S
C521 C522 1.362 . S
C522 H514 0.930 . S
C522 C521 1.362 . S
C522 C525 1.409 . S
C523 H515 0.930 . S
C523 C524 1.355 . S
C523 C525 1.415 . S
C524 C523 1.355 . S
C524 C526 1.419 . S
C525 C520 1.425 . S
C525 C522 1.409 . S
C525 C523 1.415 . S
C526 H516 0.930 . S
C526 C524 1.419 . S
C526 C527 1.362 . S
C527 H517 0.930 . S
C527 C520 1.409 . S
C527 C526 1.362 . S
H528 C534 0.930 . S
H529 C537 0.935 . S
H530 C538 0.930 . S
H531 C539 0.930 . S
H532 C542 0.935 . S
H533 C543 0.930 . S
C534 H528 0.930 . S
C534 C535 1.355 . S
C534 C536 1.415 . S
C535 C534 1.355 . S
C535 C537 1.401 1_455 S
C536 C534 1.415 . S
C536 C541 1.425 1_455 S
C536 C543 1.409 . S
C537 H529 0.935 . S
C537 C535 1.401 1_655 S
C537 C538 1.376 . S
C538 H530 0.930 . S
C538 C537 1.376 . S
C538 C541 1.409 . S
C539 H531 0.930 . S
C539 C540 1.355 . S
C539 C541 1.415 . S
C540 C539 1.355 . S
C540 C542 1.401 1_655 S
C541 C536 1.425 1_655 S
C541 C538 1.409 . S
C541 C539 1.415 . S
C542 H532 0.935 . S
C542 C540 1.401 1_455 S
C542 C543 1.376 . S
C543 H533 0.930 . S
C543 C536 1.409 . S
C543 C542 1.376 . S
H544 C550 0.930 . S
H545 C553 0.930 . S
H546 C554 0.930 . S
H547 C555 0.930 . S
H548 C558 0.930 . S
H549 C559 0.930 . S
C550 H544 0.930 . S
C550 C551 1.355 . S
C550 C552 1.415 . S
C551 C550 1.355 . S
C551 C553 1.419 . S
C552 C550 1.415 . S
C552 C557 1.425 1_455 S
C552 C559 1.409 . S
C553 H545 0.930 . S
C553 C551 1.419 . S
C553 C554 1.362 1_455 S
C554 H546 0.930 . S
C554 C553 1.362 1_655 S
C554 C557 1.409 . S
C555 H547 0.930 . S
C555 C556 1.355 . S
C555 C557 1.415 . S
C556 C555 1.355 . S
C556 C558 1.419 . S
C557 C552 1.425 1_655 S
C557 C554 1.409 . S
C557 C555 1.415 . S
C558 H548 0.930 . S
C558 C556 1.419 . S
C558 C559 1.362 1_655 S
C559 H549 0.930 . S
C559 C552 1.409 . S
C559 C558 1.362 1_455 S
H560 C566 0.930 . S
H561 C569 0.930 . S
H562 C570 0.930 . S
H563 C571 0.930 . S
H564 C574 0.930 . S
H565 C575 0.930 . S
C566 H560 0.930 . S
C566 C567 1.355 . S
C566 C568 1.415 . S
C567 C566 1.355 . S
C567 C569 1.419 . S
C568 C566 1.415 . S
C568 C573 1.425 . S
C568 C575 1.409 . S
C569 H561 0.930 . S
C569 C567 1.419 . S
C569 C570 1.362 . S
C570 H562 0.930 . S
C570 C569 1.362 . S
C570 C573 1.409 . S
C571 H563 0.930 . S
C571 C572 1.355 . S
C571 C573 1.415 . S
C572 C571 1.355 . S
C572 C574 1.419 . S
C573 C568 1.425 . S
C573 C570 1.409 . S
C573 C571 1.415 . S
C574 H564 0.930 . S
C574 C572 1.419 . S
C574 C575 1.362 . S
C575 H565 0.930 . S
C575 C568 1.409 . S
C575 C574 1.362 . S
H576 C582 0.930 . S
H577 C585 0.930 . S
H578 C586 0.930 . S
H579 C587 0.930 . S
H580 C590 0.930 . S
H581 C591 0.930 . S
C582 H576 0.930 . S
C582 C583 1.355 . S
C582 C584 1.415 . S
C583 C582 1.355 . S
C583 C585 1.419 . S
C584 C582 1.415 . S
C584 C589 1.425 . S
C584 C591 1.409 . S
C585 H577 0.930 . S
C585 C583 1.419 . S
C585 C586 1.362 . S
C586 H578 0.930 . S
C586 C585 1.362 . S
C586 C589 1.409 . S
C587 H579 0.930 . S
C587 C588 1.355 . S
C587 C589 1.415 . S
C588 C587 1.355 . S
C588 C590 1.419 . S
C589 C584 1.425 . S
C589 C586 1.409 . S
C589 C587 1.415 . S
C590 H580 0.930 . S
C590 C588 1.419 . S
C590 C591 1.362 . S
C591 H581 0.930 . S
C591 C584 1.409 . S
C591 C590 1.362 . S
H592 C598 0.930 . S
H593 C601 0.930 . S
H594 C602 0.930 . S
H595 C603 0.930 . S
H596 C606 0.930 . S
H597 C607 0.930 . S
C598 H592 0.930 . S
C598 C599 1.355 . S
C598 C600 1.415 . S
C599 C598 1.355 . S
C599 C601 1.419 . S
C600 C598 1.415 . S
C600 C605 1.425 1_455 S
C600 C607 1.409 . S
C601 H593 0.930 . S
C601 C599 1.419 . S
C601 C602 1.362 1_455 S
C602 H594 0.930 . S
C602 C601 1.362 1_655 S
C602 C605 1.409 . S
C603 H595 0.930 . S
C603 C604 1.355 . S
C603 C605 1.415 . S
C604 C603 1.355 . S
C604 C606 1.419 . S
C605 C600 1.425 1_655 S
C605 C602 1.409 . S
C605 C603 1.415 . S
C606 H596 0.930 . S
C606 C604 1.419 . S
C606 C607 1.362 1_655 S
C607 H597 0.930 . S
C607 C600 1.409 . S
C607 C606 1.362 1_455 S
H608 C614 0.930 . S
H609 C617 0.930 . S
H610 C618 0.930 1_554 S
H611 C619 0.930 . S
H612 C622 0.930 . S
H613 C623 0.930 . S
C614 H608 0.930 . S
C614 C615 1.355 1_545 S
C614 C616 1.415 1_556 S
C615 C614 1.355 1_565 S
C615 C617 1.419 1_655 S
C616 C614 1.415 1_554 S
C616 C621 1.416 1_645 S
C616 C623 1.417 . S
C617 H609 0.930 . S
C617 C615 1.419 1_455 S
C617 C618 1.362 . S
C618 H610 0.930 1_556 S
C618 C617 1.362 . S
C618 C621 1.409 1_556 S
C619 H611 0.930 . S
C619 C620 1.355 . S
C619 C621 1.415 . S
C620 C619 1.355 . S
C620 C622 1.419 1_465 S
C621 C616 1.416 1_465 S
C621 C618 1.409 1_554 S
C621 C619 1.415 . S
C622 H612 0.930 . S
C622 C620 1.419 1_645 S
C622 C623 1.362 . S
C623 H613 0.930 . S
C623 C616 1.417 . S
C623 C622 1.362 . S
H624 C630 0.930 . S
H625 C633 0.930 . S
H626 C634 0.930 . S
H627 C635 0.930 . S
H628 C638 0.932 . S
H629 C639 0.925 1_565 S
C630 H624 0.930 . S
C630 C631 1.355 . S
C630 C632 1.415 1_556 S
C631 C630 1.355 . S
C631 C633 1.419 . S
C632 C630 1.415 1_554 S
C632 C637 1.425 . S
C632 C639 1.415 . S
C633 H625 0.930 . S
C633 C631 1.419 . S
C633 C634 1.362 . S
C634 H626 0.930 . S
C634 C633 1.362 . S
C634 C637 1.409 1_556 S
C635 H627 0.930 . S
C635 C636 1.355 . S
C635 C637 1.415 . S
C636 C635 1.355 . S
C636 C638 1.417 1_545 S
C637 C632 1.425 . S
C637 C634 1.409 1_554 S
C637 C635 1.415 . S
C638 H628 0.932 . S
C638 C636 1.417 1_565 S
C638 C639 1.362 1_565 S
C639 H629 0.925 1_545 S
C639 C632 1.415 . S
C639 C638 1.362 1_545 S
H640 C646 0.920 1_565 S
H641 C649 0.930 . S
H642 C650 0.930 . S
H643 C651 0.930 . S
H644 C654 0.930 . S
H645 C655 0.930 . S
C646 H640 0.920 1_545 S
C646 C647 1.355 . S
C646 C648 1.415 . S
C647 C646 1.355 . S
C647 C649 1.419 . S
C648 C646 1.415 . S
C648 C653 1.425 . S
C648 C655 1.409 1_545 S
C649 H641 0.930 . S
C649 C647 1.419 . S
C649 C650 1.362 . S
C650 H642 0.930 . S
C650 C649 1.362 . S
C650 C653 1.409 . S
C651 H643 0.930 . S
C651 C652 1.355 . S
C651 C653 1.415 . S
C652 C651 1.355 . S
C652 C654 1.419 1_545 S
C653 C648 1.425 . S
C653 C650 1.409 . S
C653 C651 1.415 . S
C654 H644 0.930 . S
C654 C652 1.419 1_565 S
C654 C655 1.362 . S
C655 H645 0.930 . S
C655 C648 1.409 1_565 S
C655 C654 1.362 . S
H656 C662 0.930 . S
H657 C665 0.930 . S
H658 C666 0.930 . S
H659 C667 0.930 . S
H660 C670 0.930 . S
H661 C671 0.930 . S
C662 H656 0.930 . S
C662 C663 1.355 1_655 S
C662 C664 1.415 . S
C663 C662 1.355 1_455 S
C663 C665 1.419 1_565 S
C664 C662 1.415 . S
C664 C669 1.425 1_655 S
C664 C671 1.409 . S
C665 H657 0.930 . S
C665 C663 1.419 1_545 S
C665 C666 1.362 . S
C666 H658 0.930 . S
C666 C665 1.362 . S
C666 C669 1.409 1_545 S
C667 H659 0.930 . S
C667 C668 1.355 1_445 S
C667 C669 1.415 1_545 S
C668 C667 1.355 1_665 S
C668 C670 1.419 . S
C669 C664 1.425 1_455 S
C669 C666 1.409 1_565 S
C669 C667 1.415 1_565 S
C670 H660 0.930 . S
C670 C668 1.419 . S
C670 C671 1.362 . S
C671 H661 0.930 . S
C671 C664 1.409 . S
C671 C670 1.362 . S
H672 C678 0.930 . S
H673 C681 0.930 . S
H674 C682 0.930 . S
H675 C683 0.930 . S
H676 C686 0.930 . S
H677 C687 0.930 1_554 S
C678 H672 0.930 . S
C678 C679 1.355 . S
C678 C680 1.415 . S
C679 C678 1.355 . S
C679 C681 1.419 . S
C680 C678 1.415 . S
C680 C685 1.425 . S
C680 C687 1.409 1_554 S
C681 H673 0.930 . S
C681 C679 1.419 . S
C681 C682 1.362 . S
C682 H674 0.930 . S
C682 C681 1.362 . S
C682 C685 1.409 . S
C683 H675 0.930 . S
C683 C684 1.355 . S
C683 C685 1.415 1_556 S
C684 C683 1.355 . S
C684 C686 1.419 . S
C685 C680 1.425 . S
C685 C682 1.409 . S
C685 C683 1.415 1_554 S
C686 H676 0.930 . S
C686 C684 1.419 . S
C686 C687 1.362 . S
C687 H677 0.930 1_556 S
C687 C680 1.409 1_556 S
C687 C686 1.362 . S
H688 C694 0.930 . S
H689 C697 0.930 . S
H690 C698 0.930 . S
H691 C699 0.930 . S
H692 C702 0.930 . S
H693 C703 0.930 . S
C694 H688 0.930 . S
C694 C695 1.355 . S
C694 C696 1.414 1_655 S
C695 C694 1.355 . S
C695 C697 1.419 . S
C696 C694 1.414 1_455 S
C696 C701 1.425 1_455 S
C696 C703 1.410 . S
C697 H689 0.930 . S
C697 C695 1.419 . S
C697 C698 1.362 . S
C698 H690 0.930 . S
C698 C697 1.362 . S
C698 C701 1.410 . S
C699 H691 0.930 . S
C699 C700 1.355 . S
C699 C701 1.414 1_456 S
C700 C699 1.355 . S
C700 C702 1.419 . S
C701 C696 1.425 1_655 S
C701 C698 1.410 . S
C701 C699 1.414 1_654 S
C702 H692 0.930 . S
C702 C700 1.419 . S
C702 C703 1.362 1_556 S
C703 H693 0.930 . S
C703 C696 1.410 . S
C703 C702 1.362 1_554 S
H704 C710 0.930 . S
H705 C713 0.930 . S
H706 C714 0.930 . S
H707 C715 0.930 . S
H708 C718 0.930 . S
H709 C719 0.930 . S
C710 H704 0.930 . S
C710 C711 1.355 1_455 S
C710 C712 1.415 . S
C711 C710 1.355 1_655 S
C711 C713 1.419 . S
C712 C710 1.415 . S
C712 C717 1.425 1_455 S
C712 C719 1.409 . S
C713 H705 0.930 . S
C713 C711 1.419 . S
C713 C714 1.362 . S
C714 H706 0.930 . S
C714 C713 1.362 . S
C714 C717 1.409 . S
C715 H707 0.930 . S
C715 C716 1.355 1_655 S
C715 C717 1.415 . S
C716 C715 1.355 1_455 S
C716 C718 1.419 . S
C717 C712 1.425 1_655 S
C717 C714 1.409 . S
C717 C715 1.415 . S
C718 H708 0.930 . S
C718 C716 1.419 . S
C718 C719 1.362 . S
C719 H709 0.930 . S
C719 C712 1.409 . S
C719 C718 1.362 . S
H720 C726 0.930 . S
H721 C729 0.930 . S
H722 C730 0.930 . S
H723 C731 0.930 . S
H724 C734 0.930 . S
H725 C735 0.930 . S
C726 H720 0.930 . S
C726 C727 1.355 . S
C726 C728 1.415 . S
C727 C726 1.355 . S
C727 C729 1.419 . S
C728 C726 1.415 . S
C728 C733 1.425 . S
C728 C735 1.409 . S
C729 H721 0.930 . S
C729 C727 1.419 . S
C729 C730 1.362 . S
C730 H722 0.930 . S
C730 C729 1.362 . S
C730 C733 1.409 . S
C731 H723 0.930 . S
C731 C732 1.355 . S
C731 C733 1.415 . S
C732 C731 1.355 . S
C732 C734 1.419 . S
C733 C728 1.425 . S
C733 C730 1.409 . S
C733 C731 1.415 . S
C734 H724 0.930 . S
C734 C732 1.419 . S
C734 C735 1.362 . S
C735 H725 0.930 . S
C735 C728 1.409 . S
C735 C734 1.362 . S
C231 C26 1.482 . S
C236 C12 1.472 . S
C247 C40 1.475 . S
C252 C54 1.482 . S
C263 C67 1.580 . S
C268 C81 1.566 . S
C279 C109 1.567 . S
C284 C95 1.579 . S
C295 C138 1.477 . S
C300 C124 1.470 . S
C311 C166 1.471 . S
C316 C152 1.474 . S
C327 C193 1.577 . S
C332 C179 1.571 . S
C343 C221 1.558 . S
C348 C207 1.548 . S
C359 C46 1.105 . S
C364 C4 1.094 . S
C375 C18 1.061 . S
C380 C32 1.081 . S
C391 C103 1.171 . S
C396 C61 1.065 . S
C407 C89 1.209 . S
C412 C75 1.086 . S
C423 C116 1.070 . S
C428 C158 1.056 . S
C439 C144 1.099 . S
C444 C130 1.104 . S
C455 C215 1.187 . S
C460 C173 1.060 . S
C471 C187 1.098 . S
C476 C201 1.205 . S
C487 C5 1.233 . S
C492 C131 1.350 . S
C503 C19 1.298 . S
C508 C117 1.328 . S
C519 C159 1.332 . S
C524 C33 1.293 . S
C535 C145 1.278 . S
C540 C47 1.341 . S
C551 C186 1.641 . S
C556 C60 1.620 . S
C567 C172 1.621 . S
C572 C74 1.638 . S
C583 C88 1.619 . S
C588 C214 1.654 . S
C599 C102 1.640 . S
C604 C200 1.620 . S
C615 C68 1.201 . S
C620 C11 1.226 . S
C631 C82 1.231 . S
C636 C25 1.244 . S
C647 C96 1.229 . S
C652 C39 1.243 . S
C663 C110 1.200 . S
C668 C53 1.194 . S
C679 C123 1.206 . S
C684 C180 1.180 . S
C695 C137 1.195 . S
C700 C194 1.172 . S
C711 C208 1.173 . S
C716 C151 1.184 . S
C727 C222 1.183 . S
C732 C165 1.185 . S
