# Generated by pormake.
# Topology zfy, (5)-cn, num edge types: 1
# Building blocks:
#     Node 0, Type 0, BuildingBlock: BEQFEK_clean_sbu_0, # of connection points: 5
#     Node 1, Type 0, BuildingBlock: BEQFEK_clean_sbu_0, # of connection points: 5
#     Node 2, Type 0, BuildingBlock: BEQFEK_clean_sbu_0, # of connection points: 5
#     Node 3, Type 0, BuildingBlock: BEQFEK_clean_sbu_0, # of connection points: 5
#     Node 4, Type 0, BuildingBlock: BEQFEK_clean_sbu_0, # of connection points: 5
#     Node 5, Type 0, BuildingBlock: BEQFEK_clean_sbu_0, # of connection points: 5
#     Node 6, Type 0, BuildingBlock: BEQFEK_clean_sbu_0, # of connection points: 5
#     Node 7, Type 0, BuildingBlock: BEQFEK_clean_sbu_0, # of connection points: 5
#     Node 8, Type 0, BuildingBlock: BEQFEK_clean_sbu_0, # of connection points: 5
#     Node 9, Type 0, BuildingBlock: BEQFEK_clean_sbu_0, # of connection points: 5
#     Node 10, Type 0, BuildingBlock: BEQFEK_clean_sbu_0, # of connection points: 5
#     Node 11, Type 0, BuildingBlock: BEQFEK_clean_sbu_0, # of connection points: 5
#     Node 12, Type 0, BuildingBlock: BEQFEK_clean_sbu_0, # of connection points: 5
#     Node 13, Type 0, BuildingBlock: BEQFEK_clean_sbu_0, # of connection points: 5
#     Node 14, Type 0, BuildingBlock: BEQFEK_clean_sbu_0, # of connection points: 5
#     Node 15, Type 0, BuildingBlock: BEQFEK_clean_sbu_0, # of connection points: 5
#     Edge 16, Type (0, 0), BuildingBlock: CIFDUS_clean_linker_0, # of connection points: 2
#     Edge 17, Type (0, 0), BuildingBlock: CIFDUS_clean_linker_0, # of connection points: 2
#     Edge 18, Type (0, 0), BuildingBlock: CIFDUS_clean_linker_0, # of connection points: 2
#     Edge 19, Type (0, 0), BuildingBlock: CIFDUS_clean_linker_0, # of connection points: 2
#     Edge 20, Type (0, 0), BuildingBlock: CIFDUS_clean_linker_0, # of connection points: 2
#     Edge 21, Type (0, 0), BuildingBlock: CIFDUS_clean_linker_0, # of connection points: 2
#     Edge 22, Type (0, 0), BuildingBlock: CIFDUS_clean_linker_0, # of connection points: 2
#     Edge 23, Type (0, 0), BuildingBlock: CIFDUS_clean_linker_0, # of connection points: 2
#     Edge 24, Type (0, 0), BuildingBlock: CIFDUS_clean_linker_0, # of connection points: 2
#     Edge 25, Type (0, 0), BuildingBlock: CIFDUS_clean_linker_0, # of connection points: 2
#     Edge 26, Type (0, 0), BuildingBlock: CIFDUS_clean_linker_0, # of connection points: 2
#     Edge 27, Type (0, 0), BuildingBlock: CIFDUS_clean_linker_0, # of connection points: 2
#     Edge 28, Type (0, 0), BuildingBlock: CIFDUS_clean_linker_0, # of connection points: 2
#     Edge 29, Type (0, 0), BuildingBlock: CIFDUS_clean_linker_0, # of connection points: 2
#     Edge 30, Type (0, 0), BuildingBlock: CIFDUS_clean_linker_0, # of connection points: 2
#     Edge 31, Type (0, 0), BuildingBlock: CIFDUS_clean_linker_0, # of connection points: 2
#     Edge 32, Type (0, 0), BuildingBlock: CIFDUS_clean_linker_0, # of connection points: 2
#     Edge 33, Type (0, 0), BuildingBlock: CIFDUS_clean_linker_0, # of connection points: 2
#     Edge 34, Type (0, 0), BuildingBlock: CIFDUS_clean_linker_0, # of connection points: 2
#     Edge 35, Type (0, 0), BuildingBlock: CIFDUS_clean_linker_0, # of connection points: 2
#     Edge 36, Type (0, 0), BuildingBlock: CIFDUS_clean_linker_0, # of connection points: 2
#     Edge 37, Type (0, 0), BuildingBlock: CIFDUS_clean_linker_0, # of connection points: 2
#     Edge 38, Type (0, 0), BuildingBlock: CIFDUS_clean_linker_0, # of connection points: 2
#     Edge 39, Type (0, 0), BuildingBlock: CIFDUS_clean_linker_0, # of connection points: 2
#     Edge 40, Type (0, 0), BuildingBlock: CIFDUS_clean_linker_0, # of connection points: 2
#     Edge 41, Type (0, 0), BuildingBlock: CIFDUS_clean_linker_0, # of connection points: 2
#     Edge 42, Type (0, 0), BuildingBlock: CIFDUS_clean_linker_0, # of connection points: 2
#     Edge 43, Type (0, 0), BuildingBlock: CIFDUS_clean_linker_0, # of connection points: 2
#     Edge 44, Type (0, 0), BuildingBlock: CIFDUS_clean_linker_0, # of connection points: 2
#     Edge 45, Type (0, 0), BuildingBlock: CIFDUS_clean_linker_0, # of connection points: 2
#     Edge 46, Type (0, 0), BuildingBlock: CIFDUS_clean_linker_0, # of connection points: 2
#     Edge 47, Type (0, 0), BuildingBlock: CIFDUS_clean_linker_0, # of connection points: 2
#     Edge 48, Type (0, 0), BuildingBlock: CIFDUS_clean_linker_0, # of connection points: 2
#     Edge 49, Type (0, 0), BuildingBlock: CIFDUS_clean_linker_0, # of connection points: 2
#     Edge 50, Type (0, 0), BuildingBlock: CIFDUS_clean_linker_0, # of connection points: 2
#     Edge 51, Type (0, 0), BuildingBlock: CIFDUS_clean_linker_0, # of connection points: 2
#     Edge 52, Type (0, 0), BuildingBlock: CIFDUS_clean_linker_0, # of connection points: 2
#     Edge 53, Type (0, 0), BuildingBlock: CIFDUS_clean_linker_0, # of connection points: 2
#     Edge 54, Type (0, 0), BuildingBlock: CIFDUS_clean_linker_0, # of connection points: 2
#     Edge 55, Type (0, 0), BuildingBlock: CIFDUS_clean_linker_0, # of connection points: 2
# Relax obj value: 0.220
# Max RMSD: 0.146
# Mean RMSD: 0.146
data_MOF--net-zfy--node1-BEQFEK_clean_sbu_0--edge1-CIFDUS_clean_linker_0
_symmetry_space_group_name_H-M    P1
_symmetry_Int_Tables_number       1
_symmetry_cell_setting            triclinic
loop_
_symmetry_equiv_pos_as_xyz
'x, y, z'
_cell_length_a     49.461293
_cell_length_b     49.436984
_cell_length_c     24.276482
_cell_angle_alpha  89.973986
_cell_angle_beta   90.14698
_cell_angle_gamma 90.321108
loop_
_atom_site_label
_atom_site_type_symbol
_atom_site_fract_x
_atom_site_fract_y
_atom_site_fract_z
_atom_type_partial_charge
Co0 Co 0.31626 0.15858 0.10671 0.0
Co1 Co 0.31114 0.20768 0.02522 0.0
C2 C 0.29853 0.21248 0.14708 0.0
O3 O 0.30538 0.18815 0.15616 0.0
O4 O 0.30014 0.22267 0.0989 0.0
C5 C 0.34266 0.12817 0.19004 0.0
O6 O 0.35614 0.15089 0.1971 0.0
C7 C 0.33518 0.25681 0.97744 0.0
C8 C 0.31136 0.26242 0.90135 0.0
C9 C 0.33328 0.2727 0.93042 0.0
N10 N 0.31565 0.23772 0.97567 0.0
N11 N 0.30127 0.24142 0.93035 0.0
C12 C 0.35454 0.26026 0.02444 0.0
H13 H 0.34957 0.24604 0.05838 0.0
H14 H 0.37553 0.25662 0.01067 0.0
H15 H 0.35365 0.28141 0.03965 0.0
C16 C 0.36872 0.15258 0.04964 0.0
N17 N 0.34619 0.1668 0.0609 0.0
N18 N 0.3439 0.18665 0.02497 0.0
C19 C 0.36488 0.18523 0.98921 0.0
C20 C 0.38157 0.16409 1.00488 0.0
C21 C 0.37569 0.12581 0.07457 0.0
H22 H 0.35715 0.11368 0.08167 0.0
H23 H 0.38631 0.12937 0.11407 0.0
H24 H 0.38933 0.11401 0.0476 0.0
O25 O 0.28535 0.14908 0.05897 0.0
O26 O 0.28041 0.18389 1.00119 0.0
H27 H 0.34722 0.20551 0.91963 0.0
H28 H 0.37994 0.19099 0.90636 0.0
C29 C 0.36744 0.20151 0.93745 0.0
H30 H 0.37759 0.22095 0.94689 0.0
H31 H 0.2851 0.22911 0.91836 0.0
O32 O 0.32412 0.12704 0.15385 0.0
C33 C 0.27305 0.16073 0.01944 0.0
Co34 Co 0.60882 0.56892 0.35694 0.0
Co35 Co 0.56092 0.55929 0.27331 0.0
C36 C 0.55562 0.54891 0.39692 0.0
O37 O 0.57969 0.55686 0.40684 0.0
O38 O 0.54588 0.54955 0.34811 0.0
C39 C 0.6476 0.57792 0.4488 0.0
O40 O 0.63124 0.56456 0.48171 0.0
C41 C 0.51127 0.58039 0.22316 0.0
C42 C 0.50957 0.55888 0.1436 0.0
C43 C 0.49692 0.57897 0.17384 0.0
N44 N 0.53144 0.5622 0.22177 0.0
N45 N 0.53005 0.54915 0.17436 0.0
C46 C 0.508 0.60075 0.26818 0.0
H47 H 0.52643 0.60172 0.29429 0.0
H48 H 0.50366 0.621 0.25057 0.0
H49 H 0.49071 0.59469 0.29453 0.0
C50 C 0.6127 0.61995 0.2972 0.0
N51 N 0.5985 0.59754 0.31009 0.0
N52 N 0.58089 0.59255 0.27075 0.0
C53 C 0.5844 0.61104 0.23016 0.0
C54 C 0.60487 0.62895 0.24558 0.0
C55 C 0.63615 0.63049 0.32982 0.0
H56 H 0.63171 0.62924 0.37449 0.0
H57 H 0.64073 0.65183 0.31885 0.0
H58 H 0.65411 0.61805 0.3203 0.0
O59 O 0.61972 0.53756 0.31128 0.0
O60 O 0.58561 0.52906 0.25328 0.0
H61 H 0.57202 0.5872 0.16069 0.0
H62 H 0.58314 0.62112 0.14332 0.0
C63 C 0.57208 0.60866 0.174 0.0
H64 H 0.55086 0.61571 0.17561 0.0
H65 H 0.54384 0.53447 0.16192 0.0
O66 O 0.6414 0.58074 0.39833 0.0
C67 C 0.60892 0.52353 0.27297 0.0
Co68 Co 0.20609 0.85895 0.61084 0.0
Co69 Co 0.20897 0.80881 0.53191 0.0
C70 C 0.21704 0.80237 0.65318 0.0
O71 O 0.21303 0.82757 0.6599 0.0
O72 O 0.2151 0.79154 0.60559 0.0
C73 C 0.17577 0.88966 0.68593 0.0
O74 O 0.15994 0.86827 0.68301 0.0
C75 C 0.1903 0.76029 0.47075 0.0
C76 C 0.20948 0.76775 0.39005 0.0
C77 C 0.19114 0.751 0.41669 0.0
N78 N 0.2068 0.78197 0.47509 0.0
N79 N 0.21877 0.78576 0.4271 0.0
C80 C 0.17167 0.75102 0.51549 0.0
H81 H 0.17017 0.76663 0.5482 0.0
H82 H 0.15131 0.74639 0.49849 0.0
H83 H 0.17978 0.73219 0.53393 0.0
C84 C 0.15838 0.87095 0.54102 0.0
N85 N 0.17784 0.8539 0.55854 0.0
N86 N 0.17793 0.83229 0.52689 0.0
C87 C 0.1578 0.83471 0.48918 0.0
C88 C 0.14469 0.85924 0.49711 0.0
C89 C 0.15611 0.89988 0.55868 0.0
H90 H 0.17596 0.90777 0.5727 0.0
H91 H 0.14129 0.90129 0.59268 0.0
H92 H 0.14881 0.91279 0.52437 0.0
O93 O 0.23976 0.86666 0.57137 0.0
O94 O 0.24254 0.83037 0.51743 0.0
H95 H 0.16931 0.8129 0.41692 0.0
H96 H 0.13357 0.82003 0.42063 0.0
C97 C 0.15173 0.81453 0.4449 0.0
H98 H 0.14781 0.7946 0.46392 0.0
H99 H 0.23192 0.8018 0.41859 0.0
O100 O 0.19769 0.88996 0.65885 0.0
C101 C 0.25217 0.85269 0.53551 0.0
Co102 Co 0.91584 0.45408 0.86314 0.0
Co103 Co 0.96036 0.46022 0.77169 0.0
C104 C 0.97021 0.47432 0.89315 0.0
O105 O 0.94653 0.46725 0.90823 0.0
O106 O 0.97776 0.47186 0.84308 0.0
C107 C 0.87851 0.44557 0.95859 0.0
O108 O 0.89643 0.4561 0.99248 0.0
C109 C 1.00874 0.43866 0.71809 0.0
C110 C 1.00706 0.45766 0.63586 0.0
C111 C 0.02135 0.43903 0.66701 0.0
N112 N 0.98794 0.4561 0.71696 0.0
N113 N 0.9873 0.46768 0.6679 0.0
C114 C 0.01437 0.41997 0.76515 0.0
H115 H 0.99689 0.41916 0.7937 0.0
H116 H 0.01898 0.39938 0.74968 0.0
H117 H 0.03227 0.42752 0.78822 0.0
C118 C 0.90947 0.40125 0.80991 0.0
N119 N 0.92433 0.42378 0.81837 0.0
N120 N 0.94055 0.42735 0.77623 0.0
C121 C 0.93535 0.40805 0.73813 0.0
C122 C 0.91517 0.39094 0.75805 0.0
C123 C 0.88825 0.39104 0.84851 0.0
H124 H 0.86935 0.40233 0.84106 0.0
H125 H 0.89477 0.39415 0.8918 0.0
H126 H 0.88416 0.36921 0.84149 0.0
O127 O 0.90402 0.4846 0.81581 0.0
O128 O 0.9348 0.489 0.74962 0.0
H129 H 0.94524 0.43051 0.66532 0.0
H130 H 0.93324 0.3966 0.65186 0.0
C131 C 0.94553 0.4093 0.68014 0.0
H132 H 0.96671 0.40209 0.67919 0.0
H133 H 0.97265 0.48154 0.65549 0.0
O134 O 0.88374 0.44408 0.9075 0.0
C135 C 0.9129 0.49639 0.77273 0.0
Co136 Co 0.71064 0.85579 0.91003 0.0
Co137 Co 0.71196 0.80819 0.99612 0.0
C138 C 0.72286 0.79872 0.87603 0.0
O139 O 0.71947 0.82359 0.86431 0.0
O140 O 0.71948 0.79009 0.92492 0.0
C141 C 0.68288 0.88555 0.82744 0.0
O142 O 0.66789 0.86353 0.82629 0.0
C143 C 0.68659 0.76072 0.0455 0.0
C144 C 0.70775 0.75653 0.12515 0.0
C145 C 0.68692 0.7457 0.09368 0.0
N146 N 0.70599 0.77985 0.04862 0.0
N147 N 0.71881 0.77704 0.0961 0.0
C148 C 0.66859 0.75666 0.99649 0.0
H149 H 0.6697 0.77438 0.96848 0.0
H150 H 0.64738 0.75319 0.00936 0.0
H151 H 0.67528 0.7384 0.97383 0.0
C152 C 0.65951 0.86744 0.96969 0.0
N153 N 0.68079 0.85131 0.9588 0.0
N154 N 0.68104 0.83134 0.99475 0.0
C155 C 0.65962 0.83408 0.02898 0.0
C156 C 0.6451 0.8567 0.01323 0.0
C157 C 0.6553 0.89506 0.94609 0.0
H158 H 0.67485 0.90454 0.93488 0.0
H159 H 0.64208 0.89333 0.90945 0.0
H160 H 0.64497 0.90843 0.97605 0.0
O161 O 0.74291 0.86424 0.95453 0.0
O162 O 0.74522 0.83005 0.01454 0.0
H163 H 0.67286 0.81246 0.10074 0.0
H164 H 0.63914 0.82591 0.10616 0.0
C165 C 0.65391 0.81652 0.07786 0.0
H166 H 0.6451 0.79714 0.06356 0.0
H167 H 0.73458 0.78957 0.10932 0.0
O168 O 0.70337 0.88637 0.85915 0.0
C169 C 0.75466 0.85203 0.99411 0.0
Co170 Co 0.41009 0.44871 0.64975 0.0
Co171 Co 0.4603 0.45302 0.72815 0.0
C172 C 0.46422 0.46148 0.6039 0.0
O173 O 0.43925 0.45618 0.59597 0.0
O174 O 0.47469 0.46016 0.652 0.0
C175 C 0.37087 0.43219 0.56544 0.0
O176 O 0.39141 0.42877 0.53202 0.0
C177 C 0.50963 0.43117 0.77814 0.0
C178 C 0.51199 0.45428 0.85591 0.0
C179 C 0.52422 0.4336 0.82681 0.0
N180 N 0.48963 0.44948 0.7787 0.0
N181 N 0.4914 0.46347 0.82494 0.0
C182 C 0.51269 0.41005 0.73458 0.0
H183 H 0.49398 0.40844 0.70938 0.0
H184 H 0.51742 0.39019 0.75355 0.0
H185 H 0.5297 0.41578 0.7072 0.0
C186 C 0.40129 0.39883 0.71297 0.0
N187 N 0.4175 0.41954 0.69809 0.0
N188 N 0.43693 0.42224 0.7347 0.0
C189 C 0.43292 0.40394 0.77547 0.0
C190 C 0.40996 0.38858 0.76319 0.0
C191 C 0.37671 0.39007 0.68153 0.0
H192 H 0.38133 0.38955 0.63692 0.0
H193 H 0.36981 0.36965 0.69454 0.0
H194 H 0.3602 0.40469 0.68883 0.0
O195 O 0.40447 0.48231 0.69266 0.0
O196 O 0.44024 0.48585 0.74793 0.0
H197 H 0.45046 0.42534 0.84357 0.0
H198 H 0.4374 0.39221 0.86108 0.0
C199 C 0.44797 0.40421 0.82901 0.0
H200 H 0.46837 0.39557 0.82264 0.0
H201 H 0.47787 0.47859 0.83636 0.0
O202 O 0.37506 0.44123 0.61364 0.0
C203 C 0.41797 0.49492 0.72939 0.0
Co204 Co 0.81223 0.16715 0.40522 0.0
Co205 Co 0.81109 0.21557 0.48913 0.0
C206 C 0.80127 0.2241 0.36828 0.0
O207 O 0.80442 0.19909 0.35786 0.0
O208 O 0.80442 0.23319 0.41691 0.0
C209 C 0.84159 0.13731 0.32716 0.0
O210 O 0.85689 0.15909 0.32983 0.0
C211 C 0.8355 0.26317 0.54197 0.0
C212 C 0.8133 0.26536 0.6206 0.0
C213 C 0.83441 0.27708 0.59151 0.0
N214 N 0.8164 0.24366 0.54237 0.0
N215 N 0.80292 0.24537 0.58917 0.0
C216 C 0.8541 0.26859 0.49458 0.0
H217 H 0.84568 0.26003 0.45596 0.0
H218 H 0.874 0.2591 0.50224 0.0
H219 H 0.85746 0.2907 0.48986 0.0
C220 C 0.86045 0.15331 0.47232 0.0
N221 N 0.84135 0.17113 0.45638 0.0
N222 N 0.84122 0.19155 0.49121 0.0
C223 C 0.86054 0.18742 0.52992 0.0
C224 C 0.87356 0.16326 0.51859 0.0
C225 C 0.86252 0.12487 0.45156 0.0
H226 H 0.84251 0.11727 0.43793 0.0
H227 H 0.87692 0.1244 0.41676 0.0
H228 H 0.8703 0.11108 0.48395 0.0
O229 O 0.77926 0.1596 0.44794 0.0
O230 O 0.77759 0.1944 0.50648 0.0
H231 H 0.84526 0.20739 0.60164 0.0
H232 H 0.87981 0.19617 0.60865 0.0
C233 C 0.86473 0.20475 0.57985 0.0
H234 H 0.87235 0.22481 0.56708 0.0
H235 H 0.78722 0.23233 0.60041 0.0
O236 O 0.81994 0.13643 0.35521 0.0
C237 C 0.76768 0.1725 0.48668 0.0
Co238 Co 0.10115 0.57681 0.16209 0.0
Co239 Co 0.05735 0.56413 0.25206 0.0
C240 C 0.04511 0.55856 0.13107 0.0
O241 O 0.06901 0.56566 0.11751 0.0
O242 O 0.03767 0.55855 0.18131 0.0
C243 C 0.14588 0.57695 0.08503 0.0
O244 O 0.14225 0.55063 0.08297 0.0
C245 C 0.01017 0.57869 0.3169 0.0
C246 C 0.0177 0.55736 0.39534 0.0
C247 C 1.00085 0.57614 0.37053 0.0
N248 N 0.0318 0.56262 0.31079 0.0
N249 N 0.03573 0.54933 0.35732 0.0
C250 C 1.00154 0.59913 0.27497 0.0
H251 H 0.01716 0.60154 0.24258 0.0
H252 H 0.99766 0.61893 0.2949 0.0
H253 H 0.98244 0.59217 0.2554 0.0
C254 C 0.10937 0.62468 0.23201 0.0
N255 N 0.09436 0.60298 0.2174 0.0
N256 N 0.07695 0.59752 0.25674 0.0
C257 C 0.08054 0.61564 0.29799 0.0
C258 C 0.10119 0.63347 0.2836 0.0
C259 C 0.13411 0.63361 0.20154 0.0
H260 H 0.14821 0.61632 0.19809 0.0
H261 H 0.12814 0.64005 0.15949 0.0
H262 H 0.14491 0.65048 0.22213 0.0
O263 O 0.11515 0.54393 0.19793 0.0
O264 O 0.08299 0.53337 0.25872 0.0
H265 H 0.06798 0.59431 0.37046 0.0
H266 H 0.07386 0.63005 0.38141 0.0
C267 C 0.06606 0.61472 0.35204 0.0
H268 H 0.0444 0.61903 0.34519 0.0
H269 H 0.05188 0.53627 0.36436 0.0
O270 O 0.1299 0.59126 0.11349 0.0
C271 C 0.10535 0.52838 0.23472 0.0
Co272 Co 0.82257 0.6673 0.60597 0.0
Co273 Co 0.81636 0.71335 0.51761 0.0
C274 C 0.80467 0.72159 0.64003 0.0
O275 O 0.81135 0.6977 0.65401 0.0
O276 O 0.80631 0.7294 0.5901 0.0
C277 C 0.8246 0.62587 0.69601 0.0
O278 O 0.80623 0.63907 0.72405 0.0
C279 C 0.84037 0.76181 0.47 0.0
C280 C 0.81593 0.76896 0.3953 0.0
C281 C 0.83815 0.77853 0.42445 0.0
N282 N 0.82073 0.74292 0.46752 0.0
N283 N 0.80597 0.74747 0.42304 0.0
C284 C 0.86052 0.76402 0.51592 0.0
H285 H 0.85368 0.75225 0.55228 0.0
H286 H 0.88029 0.75598 0.50235 0.0
H287 H 0.86357 0.78557 0.52731 0.0
C288 C 0.87426 0.66045 0.54724 0.0
N289 N 0.85222 0.67541 0.55849 0.0
N290 N 0.84886 0.69325 0.51895 0.0
C291 C 0.86804 0.6895 0.48018 0.0
C292 C 0.88491 0.66864 0.49701 0.0
C293 C 0.88137 0.6352 0.57774 0.0
H294 H 0.86594 0.61957 0.56791 0.0
H295 H 0.8813 0.63921 0.62266 0.0
H296 H 0.90143 0.62725 0.56613 0.0
O297 O 0.79084 0.65705 0.56057 0.0
O298 O 0.78654 0.68842 0.49509 0.0
H299 H 0.84715 0.70418 0.40857 0.0
H300 H 0.88128 0.69292 0.39498 0.0
C301 C 0.86805 0.7032 0.42505 0.0
H302 H 0.87584 0.72408 0.42967 0.0
H303 H 0.78949 0.73559 0.41101 0.0
O304 O 0.83251 0.63496 0.64979 0.0
C305 C 0.77875 0.66653 0.51838 0.0
Co306 Co 0.10246 0.07152 0.84443 0.0
Co307 Co 0.05414 0.06561 0.76122 0.0
C308 C 0.04543 0.05751 0.88143 0.0
O309 O 0.07046 0.0618 0.89078 0.0
O310 O 0.03563 0.06015 0.83311 0.0
C311 C 0.12936 0.10568 0.91996 0.0
O312 O 0.10619 0.11847 0.91682 0.0
C313 C 1.00574 0.08097 0.69752 0.0
C314 C 0.01255 0.05882 0.61984 0.0
C315 C 0.99558 0.07751 0.64438 0.0
N316 N 0.02791 0.06554 0.70317 0.0
N317 N 0.03147 0.0519 0.65703 0.0
C318 C 0.99662 0.1007 0.74028 0.0
H319 H 0.01277 0.10408 0.77141 0.0
H320 H 0.99099 0.12023 0.72095 0.0
H321 H 0.97856 0.09237 0.7615 0.0
C322 C 0.11382 0.119 0.77329 0.0
N323 N 0.09704 0.09907 0.79049 0.0
N324 N 0.07631 0.09743 0.75654 0.0
C325 C 0.07902 0.11682 0.71743 0.0
C326 C 0.10279 0.13123 0.72706 0.0
C327 C 0.14223 0.12292 0.79351 0.0
H328 H 0.1507 0.10353 0.80828 0.0
H329 H 0.14231 0.13787 0.82753 0.0
H330 H 0.15552 0.13085 0.7604 0.0
O331 O 0.11288 0.03813 0.80621 0.0
O332 O 0.07729 0.03311 0.75059 0.0
H333 H 0.05954 0.10185 0.64465 0.0
H334 H 0.06611 0.13787 0.64344 0.0
C335 C 0.06014 0.12055 0.6698 0.0
H336 H 0.03961 0.12457 0.68552 0.0
H337 H 0.04764 0.03889 0.64996 0.0
O338 O 0.132 0.08347 0.89416 0.0
C339 C 0.09974 0.02473 0.77005 0.0
Co340 Co 0.70049 0.35575 0.10307 0.0
Co341 Co 0.70745 0.3119 0.00988 0.0
C342 C 0.71937 0.29955 0.12908 0.0
O343 O 0.71259 0.32324 0.14419 0.0
O344 O 0.71756 0.29229 0.07881 0.0
C345 C 0.66899 0.38032 0.18773 0.0
O346 O 0.65735 0.35636 0.18876 0.0
C347 C 0.69144 0.2634 0.94645 0.0
C348 C 0.71089 0.27141 0.86634 0.0
C349 C 0.69349 0.25348 0.89275 0.0
N350 N 0.70632 0.28625 0.95046 0.0
N351 N 0.71832 0.29057 0.90274 0.0
C352 C 0.67381 0.2532 0.99207 0.0
H353 H 0.67147 0.26891 0.02436 0.0
H354 H 0.65362 0.24722 0.97598 0.0
H355 H 0.68334 0.23519 0.01106 0.0
C356 C 0.64914 0.36415 0.04183 0.0
N357 N 0.67157 0.34953 0.0522 0.0
N358 N 0.67378 0.33058 0.01436 0.0
C359 C 0.65244 0.33231 0.97947 0.0
C360 C 0.63601 0.35341 0.99633 0.0
C361 C 0.64292 0.39091 0.06771 0.0
H362 H 0.66181 0.40164 0.07917 0.0
H363 H 0.6303 0.38754 0.10476 0.0
H364 H 0.6314 0.40407 0.03913 0.0
O365 O 0.73207 0.36937 0.06248 0.0
O366 O 0.73661 0.33932 0.99465 0.0
H367 H 0.66697 0.31642 0.90302 0.0
H368 H 0.63081 0.3215 0.9045 0.0
C369 C 0.64862 0.31528 0.92905 0.0
H370 H 0.6453 0.29404 0.94154 0.0
H371 H 0.73063 0.30727 0.89428 0.0
O372 O 0.68924 0.384 0.15639 0.0
C373 C 0.74419 0.36082 0.01973 0.0
Co374 Co 0.41831 0.95171 0.35951 0.0
Co375 Co 0.46566 0.95335 0.27412 0.0
C376 C 0.47551 0.96564 0.39301 0.0
O377 O 0.45061 0.96197 0.40407 0.0
O378 O 0.48454 0.96161 0.34464 0.0
C379 C 0.38891 0.92445 0.44338 0.0
O380 O 0.41029 0.90879 0.44364 0.0
C381 C 0.51518 0.93454 0.22132 0.0
C382 C 0.51099 0.95061 0.13685 0.0
C383 C 0.52751 0.93481 0.16991 0.0
N384 N 0.49245 0.94927 0.2184 0.0
N385 N 0.49024 0.95913 0.16802 0.0
C386 C 0.52301 0.91835 0.27091 0.0
H387 H 0.50523 0.91497 0.29789 0.0
H388 H 0.53164 0.8986 0.25849 0.0
H389 H 0.53853 0.9297 0.2947 0.0
C390 C 0.40655 0.90025 0.30031 0.0
N391 N 0.42283 0.92157 0.31151 0.0
N392 N 0.44305 0.92174 0.27633 0.0
C393 C 0.44049 0.90007 0.24253 0.0
C394 C 0.4174 0.88564 0.2571 0.0
C395 C 0.3788 0.89626 0.32356 0.0
H396 H 0.3697 0.91593 0.3345 0.0
H397 H 0.3802 0.88329 0.36064 0.0
H398 H 0.36533 0.88588 0.29355 0.0
O399 O 0.40893 0.98331 0.31504 0.0
O400 O 0.44347 0.98594 0.25643 0.0
H401 H 0.45931 0.91117 0.16653 0.0
H402 H 0.45284 0.87529 0.17342 0.0
C403 C 0.45904 0.8939 0.19567 0.0
H404 H 0.47979 0.891 0.21172 0.0
H405 H 0.47412 0.97094 0.15446 0.0
O406 O 0.38833 0.94471 0.41122 0.0
C407 C 0.42137 0.9951 0.2759 0.0
Co408 Co 0.19034 0.35431 0.3822 0.0
Co409 Co 0.20016 0.3106 0.47373 0.0
C410 C 0.20609 0.29857 0.35141 0.0
O411 O 0.19753 0.32189 0.33815 0.0
O412 O 0.20794 0.29147 0.40189 0.0
C413 C 0.15903 0.38076 0.29996 0.0
O414 O 0.14661 0.35722 0.29746 0.0
C415 C 0.18391 0.26289 0.53935 0.0
C416 C 0.20732 0.26938 0.61577 0.0
C417 C 0.18761 0.25284 0.59252 0.0
N418 N 0.20021 0.28457 0.53249 0.0
N419 N 0.21455 0.28794 0.57795 0.0
C420 C 0.16337 0.25409 0.49757 0.0
H421 H 0.16031 0.27014 0.4662 0.0
H422 H 0.14387 0.24911 0.51778 0.0
H423 H 0.17075 0.23567 0.47645 0.0
C424 C 0.14171 0.36448 0.45025 0.0
N425 N 0.16358 0.34954 0.43753 0.0
N426 N 0.16705 0.33093 0.47569 0.0
C427 C 0.14724 0.33354 0.51386 0.0
C428 C 0.13033 0.35461 0.49832 0.0
C429 C 0.13407 0.39035 0.42222 0.0
H430 H 0.15241 0.40163 0.4095 0.0
H431 H 0.12152 0.38561 0.38557 0.0
H432 H 0.12211 0.40359 0.44974 0.0
O433 O 0.22493 0.36519 0.41575 0.0
O434 O 0.23102 0.33633 0.4853 0.0
H435 H 0.16523 0.3168 0.58659 0.0
H436 H 0.13002 0.32551 0.59444 0.0
C437 C 0.14529 0.3173 0.56574 0.0
H438 H 0.13915 0.29636 0.55541 0.0
H439 H 0.22829 0.30374 0.58417 0.0
O440 O 0.17927 0.38347 0.33178 0.0
C441 C 0.23854 0.35669 0.45672 0.0
Co442 Co 0.91945 0.95922 0.16082 0.0
Co443 Co 0.96681 0.96399 0.24799 0.0
C444 C 0.97607 0.97358 0.12654 0.0
O445 O 0.95129 0.96894 0.11543 0.0
O446 O 0.98518 0.97083 0.17549 0.0
C447 C 0.88897 0.93241 0.07503 0.0
O448 O 0.91151 0.91901 0.0673 0.0
C449 C 0.01284 0.94222 0.31269 0.0
C450 C 0.01258 0.96918 0.38513 0.0
C451 C 0.02508 0.94643 0.36381 0.0
N452 N 0.99386 0.96135 0.30497 0.0
N453 N 0.9942 0.97763 0.34809 0.0
C454 C 0.01705 0.91902 0.27418 0.0
H455 H 0.9998 0.91713 0.24507 0.0
H456 H 0.01957 0.89991 0.29761 0.0
H457 H 0.03572 0.92268 0.25001 0.0
C458 C 0.90785 0.91001 0.2259 0.0
N459 N 0.92484 0.9303 0.21178 0.0
N460 N 0.94343 0.93293 0.25039 0.0
C461 C 0.93825 0.91478 0.29094 0.0
C462 C 0.91557 0.89964 0.27655 0.0
C463 C 0.88351 0.90167 0.19325 0.0
H464 H 0.87003 0.91924 0.18698 0.0
H465 H 0.89041 0.89406 0.15295 0.0
H466 H 0.87198 0.88503 0.21297 0.0
O467 O 0.91012 0.99208 0.20305 0.0
O468 O 0.94449 0.99668 0.26201 0.0
H469 H 0.95471 0.93635 0.36012 0.0
H470 H 0.93897 0.90448 0.37769 0.0
C471 C 0.95142 0.91519 0.34653 0.0
H472 H 0.97126 0.90497 0.34404 0.0
H473 H 0.98108 0.9939 0.35328 0.0
O474 O 0.8883 0.95087 0.11142 0.0
C475 C 0.92231 1.00504 0.24123 0.0
Co476 Co 0.3184 0.65933 0.90691 0.0
Co477 Co 0.31596 0.70834 0.98857 0.0
C478 C 0.30341 0.71478 0.86752 0.0
O479 O 0.30896 0.69005 0.85916 0.0
O480 O 0.30556 0.7251 0.91555 0.0
C481 C 0.34475 0.62956 0.82383 0.0
O482 O 0.35965 0.6516 0.82122 0.0
C483 C 0.33638 0.75867 0.0397 0.0
C484 C 0.31905 0.75586 0.12322 0.0
C485 C 0.33629 0.77139 0.09096 0.0
N486 N 0.32031 0.73661 0.04223 0.0
N487 N 0.30968 0.73533 0.09203 0.0
C488 C 0.35346 0.76544 0.99077 0.0
H489 H 0.35522 0.74764 0.96317 0.0
H490 H 0.37388 0.77228 1.00403 0.0
H491 H 0.3438 0.78208 0.96736 0.0
C492 C 0.37004 0.64993 0.96557 0.0
N493 N 0.34853 0.66557 0.95377 0.0
N494 N 0.34825 0.68642 0.98752 0.0
C495 C 0.37006 0.68472 0.02139 0.0
C496 C 0.38472 0.66171 0.00793 0.0
C497 C 0.37416 0.62192 0.94374 0.0
H498 H 0.35448 0.6121 0.93468 0.0
H499 H 0.38639 0.6231 0.90568 0.0
H500 H 0.38524 0.60916 0.97378 0.0
O501 O 0.28687 0.65051 0.95215 0.0
O502 O 0.28454 0.68489 0.01108 0.0
H503 H 0.35816 0.70525 0.09498 0.0
H504 H 0.39379 0.69737 0.09219 0.0
C505 C 0.37602 0.70382 0.06769 0.0
H506 H 0.38038 0.72414 0.05066 0.0
H507 H 0.2969 0.71983 0.10542 0.0
O508 O 0.32526 0.62848 0.85768 0.0
C509 C 0.27546 0.66245 0.99221 0.0
Co510 Co 0.60692 0.06404 0.66516 0.0
Co511 Co 0.55922 0.06148 0.75 0.0
C512 C 0.54971 0.0506 0.6305 0.0
O513 O 0.57463 0.05441 0.61981 0.0
O514 O 0.54063 0.054 0.67899 0.0
C515 C 0.63539 0.09449 0.58582 0.0
O516 O 0.61397 0.10992 0.59044 0.0
C517 C 0.50926 0.08045 0.80099 0.0
C518 C 0.51336 0.06609 0.88671 0.0
C519 C 0.49699 0.08137 0.85235 0.0
N520 N 0.5319 0.06561 0.80507 0.0
N521 N 0.53399 0.0567 0.8562 0.0
C522 C 0.50167 0.09614 0.75057 0.0
H523 H 0.51964 0.09952 0.72413 0.0
H524 H 0.49269 0.11588 0.76193 0.0
H525 H 0.48646 0.0844 0.7267 0.0
C526 C 0.61969 0.11345 0.72993 0.0
N527 N 0.60259 0.09326 0.71542 0.0
N528 N 0.58195 0.09302 0.74952 0.0
C529 C 0.5849 0.11375 0.78555 0.0
C530 C 0.60886 0.12742 0.77408 0.0
C531 C 0.64821 0.1161 0.70992 0.0
H532 H 0.65599 0.09629 0.69601 0.0
H533 H 0.64883 0.13076 0.67544 0.0
H534 H 0.66171 0.1239 0.74294 0.0
O535 O 0.61622 0.03173 0.70768 0.0
O536 O 0.58164 0.02853 0.76631 0.0
H537 H 0.56633 0.10255 0.86172 0.0
H538 H 0.57138 0.13858 0.85362 0.0
C539 C 0.56596 0.11956 0.83196 0.0
H540 H 0.54517 0.12161 0.81563 0.0
H541 H 0.55013 0.04518 0.87085 0.0
O542 O 0.63655 0.07268 0.6134 0.0
C543 C 0.60375 0.01951 0.74632 0.0
H544 H 0.4925 0.11012 0.94626 0.0
H545 H 0.44881 0.08895 0.79847 0.0
H546 H 0.40979 0.11494 0.83002 0.0
H547 H 0.38704 0.14142 0.90305 0.0
H548 H 0.43109 0.1621 0.05054 0.0
H549 H 0.47104 0.1387 0.01592 0.0
C550 C 0.47444 0.11127 0.92093 0.0
C551 C 0.47354 0.09772 0.87009 0.0
C552 C 0.45219 0.12626 0.9393 0.0
C553 C 0.45012 0.09951 0.83744 0.0
C554 C 0.42776 0.11427 0.85561 0.0
C555 C 0.40568 0.14139 0.92667 0.0
C556 C 0.40646 0.15382 0.97872 0.0
C557 C 0.42847 0.12757 0.9067 0.0
C558 C 0.43033 0.15296 0.00999 0.0
C559 C 0.45304 0.13944 0.9904 0.0
H560 H 0.59145 0.67625 0.19442 0.0
H561 H 0.65654 0.61962 0.2157 0.0
H562 H 0.68766 0.65029 0.16857 0.0
H563 H 0.69732 0.69486 0.12786 0.0
H564 H 0.63246 0.75146 0.10435 0.0
H565 H 0.60032 0.71937 0.14497 0.0
C566 C 0.61233 0.67058 0.18775 0.0
C567 C 0.62189 0.64604 0.2092 0.0
C568 C 0.63019 0.68838 0.16041 0.0
C569 C 0.64893 0.63869 0.20025 0.0
C570 C 0.66672 0.65619 0.17334 0.0
C571 C 0.67606 0.6999 0.131 0.0
C572 C 0.66715 0.72523 0.11267 0.0
C573 C 0.65775 0.68136 0.1544 0.0
C574 C 0.63963 0.73178 0.11714 0.0
C575 C 0.6213 0.71353 0.1408 0.0
H576 H 0.09891 0.88305 0.53268 0.0
H577 H 0.14353 0.86564 0.38488 0.0
H578 H 0.10982 0.88974 0.32966 0.0
H579 H 0.0688 0.91807 0.32428 0.0
H580 H 0.02556 0.93675 0.47352 0.0
H581 H 0.05776 0.91046 0.52721 0.0
C582 C 0.10111 0.88442 0.48831 0.0
C583 C 0.12341 0.87223 0.46281 0.0
C584 C 0.08201 0.89884 0.4571 0.0
C585 C 0.12617 0.87429 0.40534 0.0
C586 C 0.10704 0.8883 0.37383 0.0
C587 C 0.06611 0.91596 0.36833 0.0
C588 C 0.04455 0.9292 0.39462 0.0
C589 C 0.08495 0.90088 0.3993 0.0
C590 C 0.04196 0.92687 0.45213 0.0
C591 C 0.06034 0.91175 0.48296 0.0
H592 H 0.92897 0.34723 0.69529 0.0
H593 H 0.86084 0.39521 0.74559 0.0
H594 H 0.82997 0.36452 0.69824 0.0
H595 H 0.82193 0.32302 0.64518 0.0
H596 H 0.88968 0.27599 0.5898 0.0
H597 H 0.92102 0.30742 0.63495 0.0
C598 C 0.90738 0.35094 0.69546 0.0
C599 C 0.89712 0.37289 0.72549 0.0
C600 C 0.88966 0.33349 0.66673 0.0
C601 C 0.86915 0.37781 0.72471 0.0
C602 C 0.85147 0.36044 0.69709 0.0
C603 C 0.84358 0.31989 0.64256 0.0
C604 C 0.8535 0.29749 0.61371 0.0
C605 C 0.86143 0.33802 0.66859 0.0
C606 C 0.88157 0.2935 0.61062 0.0
C607 C 0.8995 0.31131 0.63699 0.0
H608 H 0.63784 0.87579 0.11743 0.0
H609 H 0.59761 0.86456 0.96145 0.0
H610 H 0.55743 0.88744 0.99644 0.0
H611 H 0.53435 0.91177 0.07032 0.0
H612 H 0.57473 0.92437 0.22591 0.0
H613 H 0.61404 0.89951 0.19274 0.0
C614 C 0.62 0.87791 0.09174 0.0
C615 C 0.6203 0.86817 0.0374 0.0
C616 C 0.5971 0.89137 0.11202 0.0
C617 C 0.59753 0.87169 1.00366 0.0
C618 C 0.57467 0.88483 0.02355 0.0
C619 C 0.55175 0.90905 0.09701 0.0
C620 C 0.55143 0.91956 0.15078 0.0
C621 C 0.57433 0.89498 0.07746 0.0
C622 C 0.57412 0.91588 0.18487 0.0
C623 C 0.59673 0.90185 0.16573 0.0
H624 H 0.32075 0.32209 0.89075 0.0
H625 H 0.38822 0.26933 0.92057 0.0
H626 H 0.41866 0.30135 0.87492 0.0
H627 H 0.42535 0.34298 0.81902 0.0
H628 H 0.35773 0.39607 0.79254 0.0
H629 H 0.32825 0.36557 0.844 0.0
C630 C 0.34221 0.31788 0.88798 0.0
C631 C 0.35227 0.2936 0.90964 0.0
C632 C 0.35956 0.33636 0.8615 0.0
C633 C 0.38007 0.28822 0.90556 0.0
C634 C 0.39746 0.30641 0.87882 0.0
C635 C 0.40426 0.34795 0.82531 0.0
C636 C 0.39356 0.37136 0.80081 0.0
C637 C 0.38736 0.33036 0.8557 0.0
C638 C 0.36625 0.37777 0.80968 0.0
C639 C 0.34939 0.3604 0.83933 0.0
H640 H 0.94756 0.09768 0.68348 0.0
H641 H 0.9968 0.09277 0.53732 0.0
H642 H 0.96386 0.11934 0.48628 0.0
H643 H 0.92113 0.14422 0.48272 0.0
H644 H 0.87115 0.14868 0.62736 0.0
H645 H 0.90459 0.12282 0.67993 0.0
C646 C 0.95133 0.10282 0.64081 0.0
C647 C 0.97487 0.09353 0.61462 0.0
C648 C 0.93226 0.11827 0.61152 0.0
C649 C 0.97886 0.09959 0.55859 0.0
C650 C 0.9601 0.11492 0.52933 0.0
C651 C 0.91775 0.13967 0.5259 0.0
C652 C 0.89417 0.14886 0.55164 0.0
C653 C 0.93677 0.12441 0.55535 0.0
C654 C 0.88963 0.14249 0.60725 0.0
C655 C 0.9086 0.12748 0.63708 0.0
H656 H 0.11206 0.68584 0.26073 0.0
H657 H 0.12373 0.62474 0.38487 0.0
H658 H 0.15119 0.65624 0.43958 0.0
H659 H 0.17448 0.70051 0.44893 0.0
H660 H 0.16537 0.75997 0.32028 0.0
H661 H 0.13484 0.72982 0.27018 0.0
C662 C 0.12046 0.6796 0.30004 0.0
C663 C 0.11564 0.65324 0.31917 0.0
C664 C 0.13704 0.69744 0.33008 0.0
C665 C 0.12674 0.64518 0.36989 0.0
C666 C 0.14267 0.66308 0.40087 0.0
C667 C 0.16554 0.70688 0.41025 0.0
C668 C 0.17213 0.73239 0.38834 0.0
C669 C 0.1483 0.68918 0.38101 0.0
C670 C 0.16077 0.7403 0.33773 0.0
C671 C 0.14322 0.72314 0.30915 0.0
H672 H 0.93672 0.6569 0.52254 0.0
H673 H 0.87586 0.64426 0.39788 0.0
H674 H 0.90674 0.61541 0.34597 0.0
H675 H 0.95049 0.59186 0.33856 0.0
H676 H 1.00954 0.60115 0.46819 0.0
H677 H 0.97984 0.63253 0.51644 0.0
C678 C 0.93041 0.64795 0.48376 0.0
C679 C 0.90438 0.65313 0.46334 0.0
C680 C 0.94779 0.63038 0.45561 0.0
C681 C 0.89614 0.64117 0.41352 0.0
C682 C 0.91365 0.62441 0.38423 0.0
C683 C 0.95681 0.6009 0.37722 0.0
C684 C 0.98212 0.59433 0.39979 0.0
C685 C 0.93944 0.61862 0.40518 0.0
C686 C 0.99001 0.60578 0.45031 0.0
C687 C 0.97314 0.62385 0.47772 0.0
H688 H 0.12313 0.17919 0.76057 0.0
H689 H 0.11342 0.12935 0.61636 0.0
H690 H 0.1382 0.16272 0.56107 0.0
H691 H 0.16451 0.20529 0.55504 0.0
H692 H 0.17475 0.2543 0.7008 0.0
H693 H 0.14864 0.22178 0.75431 0.0
C694 C 0.12629 0.17581 0.71691 0.0
C695 C 0.11606 0.15216 0.69231 0.0
C696 C 0.141 0.19478 0.6858 0.0
C697 C 0.12051 0.14777 0.63588 0.0
C698 C 0.13492 0.16672 0.60442 0.0
C699 C 0.16061 0.20914 0.59817 0.0
C700 C 0.17136 0.23249 0.62349 0.0
C701 C 0.14543 0.19026 0.62901 0.0
C702 C 0.16682 0.23653 0.68009 0.0
C703 C 0.15176 0.21799 0.71082 0.0
H704 H 0.52853 0.41223 0.92837 0.0
H705 H 0.56942 0.41685 0.77211 0.0
H706 H 0.60732 0.3909 0.80969 0.0
H707 H 0.63007 0.36964 0.88946 0.0
H708 H 0.58804 0.36375 0.04434 0.0
H709 H 0.54936 0.38769 1.00519 0.0
C710 C 0.54571 0.40739 0.90254 0.0
C711 C 0.5463 0.41639 0.8477 0.0
C712 C 0.56719 0.39235 0.9243 0.0
C713 C 0.56846 0.40985 0.81433 0.0
C714 C 0.59016 0.39517 0.8359 0.0
C715 C 0.6121 0.37293 0.91401 0.0
C716 C 0.61166 0.36473 0.96947 0.0
C717 C 0.58988 0.38656 0.89105 0.0
C718 C 0.58866 0.36983 1.00147 0.0
C719 C 0.56663 0.38354 0.97917 0.0
H720 H 0.40213 0.87829 0.14972 0.0
H721 H 0.40443 0.83888 0.30798 0.0
H722 H 0.38012 0.79986 0.27018 0.0
H723 H 0.35676 0.77773 0.19338 0.0
H724 H 0.35272 0.81737 0.03531 0.0
H725 H 0.37943 0.85522 0.07127 0.0
C726 C 0.39772 0.86088 0.17543 0.0
C727 C 0.40529 0.86121 0.23135 0.0
C728 C 0.38337 0.83862 0.15348 0.0
C729 C 0.39893 0.8389 0.26474 0.0
C730 C 0.38497 0.81667 0.2432 0.0
C731 C 0.36174 0.79462 0.16666 0.0
C732 C 0.35302 0.79443 0.11143 0.0
C733 C 0.3768 0.81645 0.18784 0.0
C734 C 0.35971 0.81652 0.0775 0.0
C735 C 0.37481 0.83836 0.09825 0.0
H736 H 0.12698 0.37447 0.60337 0.0
H737 H 0.08057 0.36146 0.45517 0.0
H738 H 0.04249 0.38602 0.4946 0.0
H739 H 0.02335 0.41343 0.56901 0.0
H740 H 0.06884 0.42579 0.71857 0.0
H741 H 0.1061 0.39893 0.68153 0.0
C742 C 0.10823 0.3764 0.58049 0.0
C743 C 0.1064 0.36596 0.52668 0.0
C744 C 0.08637 0.39061 0.60352 0.0
C745 C 0.0823 0.36922 0.49678 0.0
C746 C 0.0606 0.38335 0.51919 0.0
C747 C 0.0414 0.41011 0.59355 0.0
C748 C 0.04337 0.42154 0.6464 0.0
C749 C 0.06258 0.39454 0.5721 0.0
C750 C 0.06672 0.41692 0.67803 0.0
C751 C 0.08809 0.40169 0.65671 0.0
H752 H 0.93056 0.85226 0.32483 0.0
H753 H 0.86367 0.90713 0.30837 0.0
H754 H 0.83377 0.87483 0.3545 0.0
H755 H 0.82577 0.82933 0.39255 0.0
H756 H 0.89278 0.77494 0.41293 0.0
H757 H 0.92353 0.80852 0.37292 0.0
C758 C 0.90954 0.85719 0.33225 0.0
C759 C 0.89907 0.88162 0.31212 0.0
C760 C 0.89247 0.83852 0.35921 0.0
C761 C 0.87193 0.8881 0.32253 0.0
C762 C 0.85485 0.86966 0.34884 0.0
C763 C 0.84718 0.82506 0.38878 0.0
C764 C 0.85707 0.79986 0.40577 0.0
C765 C 0.86472 0.84453 0.3661 0.0
C766 C 0.88481 0.79443 0.40091 0.0
C767 C 0.90236 0.81355 0.37765 0.0
H768 H 0.49095 0.59903 0.07094 0.0
H769 H 0.45301 0.59824 0.23056 0.0
H770 H 0.41597 0.62589 0.19493 0.0
H771 H 0.39276 0.64794 0.11613 0.0
H772 H 0.43113 0.64833 0.95698 0.0
H773 H 0.46948 0.62327 0.9944 0.0
C774 C 0.47461 0.605 0.09799 0.0
C775 C 0.47486 0.5967 0.15342 0.0
C776 C 0.4534 0.62086 0.07717 0.0
C777 C 0.45362 0.60473 0.18801 0.0
C778 C 0.4323 0.62041 0.16751 0.0
C779 C 0.40987 0.6431 0.09017 0.0
C780 C 0.40932 0.65019 0.03401 0.0
C781 C 0.43183 0.62842 0.11199 0.0
C782 C 0.43125 0.64321 1.00039 0.0
C783 C 0.4531 0.62878 0.0217 0.0
H784 H 0.6294 0.17408 0.73418 0.0
H785 H 0.61974 0.12897 0.88469 0.0
H786 H 0.64518 0.16371 0.93534 0.0
H787 H 0.67183 0.20602 0.93555 0.0
H788 H 0.68032 0.25134 0.78436 0.0
H789 H 0.65461 0.21698 0.73508 0.0
C790 C 0.63273 0.17204 0.77818 0.0
C791 C 0.62244 0.14928 0.80587 0.0
C792 C 0.64752 0.19193 0.80677 0.0
C793 C 0.627 0.14665 0.86275 0.0
C794 C 0.64175 0.16637 0.89157 0.0
C795 C 0.66754 0.20886 0.89225 0.0
C796 C 0.67773 0.23174 0.8643 0.0
C797 C 0.65224 0.18909 0.86394 0.0
C798 C 0.67284 0.23408 0.8073 0.0
C799 C 0.65797 0.21446 0.77892 0.0
H800 H 0.26004 0.25124 0.137 0.0
H801 H 0.30528 0.20628 0.25802 0.0
H802 H 0.27907 0.22701 0.332 0.0
H803 H 0.24331 0.25818 0.36247 0.0
H804 H 0.19752 0.30225 0.24069 0.0
H805 H 0.22339 0.28112 0.16715 0.0
C806 C 0.26445 0.2463 0.17961 0.0
C807 C 0.28491 0.22756 0.19195 0.0
C808 C 0.24876 0.25771 0.22189 0.0
C809 C 0.28985 0.22086 0.24738 0.0
C810 C 0.27472 0.23255 0.28971 0.0
C811 C 0.23861 0.26276 0.31983 0.0
C812 C 0.21835 0.28175 0.30734 0.0
C813 C 0.25395 0.25086 0.27748 0.0
C814 C 0.21289 0.28768 0.25169 0.0
C815 C 0.22785 0.27576 0.20949 0.0
H816 H 0.5098 0.49242 0.61135 0.0
H817 H 0.45344 0.45907 0.49326 0.0
H818 H 0.47571 0.48424 0.4193 0.0
H819 H 0.51066 0.51658 0.38829 0.0
H820 H 0.56641 0.55033 0.50728 0.0
H821 H 0.54458 0.52458 0.58056 0.0
C822 C 0.50263 0.49026 0.56932 0.0
C823 C 0.48008 0.4736 0.55798 0.0
C824 C 0.51511 0.50534 0.52714 0.0
C825 C 0.47083 0.47156 0.50326 0.0
C826 C 0.48345 0.48612 0.46093 0.0
C827 C 0.51784 0.51859 0.43034 0.0
C828 C 0.54012 0.53559 0.44205 0.0
C829 C 0.50539 0.50337 0.47247 0.0
C830 C 0.54929 0.53756 0.49685 0.0
C831 C 0.53691 0.52268 0.53888 0.0
H832 H 0.24951 0.75814 0.64846 0.0
H833 H 0.21205 0.81285 0.76322 0.0
H834 H 0.23682 0.79202 0.83937 0.0
H835 H 0.26996 0.75868 0.87343 0.0
H836 H 0.30777 0.7046 0.75773 0.0
H837 H 0.28258 0.72511 0.68219 0.0
C838 C 0.24635 0.76518 0.69025 0.0
C839 C 0.22864 0.78684 0.70004 0.0
C840 C 0.26126 0.75361 0.73373 0.0
C841 C 0.22534 0.79607 0.75445 0.0
C842 C 0.2397 0.78431 0.79803 0.0
C843 C 0.27302 0.75169 0.83158 0.0
C844 C 0.29095 0.73022 0.82143 0.0
C845 C 0.25803 0.7633 0.78812 0.0
C846 C 0.29423 0.72115 0.76689 0.0
C847 C 0.27967 0.73275 0.72359 0.0
H848 H 0.95644 0.49618 0.99217 0.0
H849 H 0.02429 0.48553 0.88295 0.0
H850 H 0.05283 0.51243 0.94464 0.0
H851 H 0.05867 0.53877 0.02995 0.0
H852 H 0.99073 0.54923 0.13903 0.0
H853 H 0.96204 0.5231 0.07642 0.0
C854 C 0.97754 0.49947 0.98201 0.0
C855 C 0.98819 0.48858 0.93304 0.0
C856 C 0.99376 0.51534 0.01725 0.0
C857 C 0.01553 0.4935 0.92039 0.0
C858 C 0.03185 0.50902 0.95555 0.0
C859 C 0.03748 0.53574 0.03966 0.0
C860 C 0.0269 0.54615 0.08915 0.0
C861 C 0.02116 0.52019 1.00394 0.0
C862 C 0.99945 0.54159 0.10125 0.0
C863 C 0.98303 0.52647 0.0656 0.0
H864 H 0.78015 0.70765 0.73651 0.0
H865 H 0.79919 0.77641 0.6338 0.0
H866 H 0.77395 0.80595 0.69547 0.0
H867 H 0.74642 0.81235 0.77839 0.0
H868 H 0.72712 0.74361 0.88104 0.0
H869 H 0.75203 0.71398 0.81897 0.0
C870 C 0.77909 0.72915 0.72799 0.0
C871 C 0.79179 0.7398 0.68078 0.0
C872 C 0.76407 0.746 0.7631 0.0
C873 C 0.78974 0.76767 0.66992 0.0
C874 C 0.77517 0.78457 0.70503 0.0
C875 C 0.74729 0.79083 0.78686 0.0
C876 C 0.73475 0.78028 0.83435 0.0
C877 C 0.76207 0.77394 0.75149 0.0
C878 C 0.73647 0.75234 0.8448 0.0
C879 C 0.75088 0.73537 0.80948 0.0
H880 H 0.74352 0.31368 0.22562 0.0
H881 H 0.72658 0.24475 0.12187 0.0
H882 H 0.75216 0.21566 0.18451 0.0
H883 H 0.77905 0.20978 0.2692 0.0
H884 H 0.79637 0.27911 0.37181 0.0
H885 H 0.77142 0.3081 0.30843 0.0
C886 C 0.74513 0.29223 0.21694 0.0
C887 C 0.73282 0.28138 0.16936 0.0
C888 C 0.76035 0.27575 0.25247 0.0
C889 C 0.73565 0.25362 0.15834 0.0
C890 C 0.75042 0.237 0.19401 0.0
C891 C 0.77775 0.2313 0.27735 0.0
C892 C 0.78969 0.24218 0.32537 0.0
C893 C 0.76297 0.24787 0.24107 0.0
C894 C 0.78749 0.27012 0.33528 0.0
C895 C 0.77304 0.28672 0.2992 0.0
H896 H 0.95972 0.99708 0.0307 0.0
H897 H 0.0312 0.98063 0.12717 0.0
H898 H 0.05858 1.00673 0.06204 0.0
H899 H 0.06217 0.03453 0.97803 0.0
H900 H 0.99042 0.05112 0.88239 0.0
H901 H 0.96319 0.02516 0.94767 0.0
C902 C 0.98135 0.99884 0.03726 0.0
C903 C 0.99336 0.98657 0.08372 0.0
C904 C 0.99688 0.01439 1.00031 0.0
C905 C 0.02139 0.9896 0.09171 0.0
C906 C 0.03704 1.00471 0.05463 0.0
C907 C 0.04051 0.03285 0.9718 0.0
C908 C 0.02841 0.04502 0.92529 0.0
C909 C 0.02497 0.01742 0.00906 0.0
C910 C 1.00033 0.04217 0.91778 0.0
C911 C 0.98474 0.02714 0.95494 0.0
H912 H 0.46047 0.99161 0.48692 0.0
H913 H 0.53074 0.96998 0.39181 0.0
H914 H 0.55956 0.99595 0.4546 0.0
H915 H 0.56482 0.0251 0.53601 0.0
H916 H 0.49451 0.04669 0.63103 0.0
H917 H 0.46569 0.02091 0.56798 0.0
C918 C 0.48214 0.99224 0.48024 0.0
C919 C 0.49339 0.9786 0.43481 0.0
C920 C 0.49855 1.00765 0.51591 0.0
C921 C 0.5215 0.98009 0.42652 0.0
C922 C 0.53799 0.99511 0.46223 0.0
C923 C 0.54314 0.02453 0.54256 0.0
C924 C 0.53188 0.03804 0.58814 0.0
C925 C 0.52672 1.00919 0.50674 0.0
C926 C 0.50376 0.03664 0.59625 0.0
C927 C 0.48726 0.02173 0.56039 0.0
H928 H 0.1789 0.08412 0.93935 0.0
H929 H 0.13429 0.15872 0.94985 0.0
H930 H 0.17535 0.18287 0.97719 0.0
H931 H 0.22425 0.18293 0.99753 0.0
H932 H 0.26798 0.10781 0.99298 0.0
H933 H 0.22715 0.08381 0.9629 0.0
C934 C 0.17811 0.10562 0.94804 0.0
C935 C 0.15355 0.11955 0.94258 0.0
C936 C 0.20176 0.11938 0.96396 0.0
C937 C 0.15287 0.14741 0.95414 0.0
C938 C 0.1764 0.16132 0.96934 0.0
C939 C 0.2248 0.16138 0.98916 0.0
C940 C 0.24901 0.14714 0.99648 0.0
C941 C 0.20101 0.14757 0.97394 0.0
C942 C 0.24949 0.11913 0.98704 0.0
C943 C 0.22617 0.10541 0.97017 0.0
H944 H 0.58934 0.47259 0.26262 0.0
H945 H 0.66154 0.52075 0.24309 0.0
H946 H 0.68706 0.48042 0.21708 0.0
H947 H 0.68868 0.43149 0.19972 0.0
H948 H 0.61716 0.38278 0.22585 0.0
H949 H 0.59171 0.42309 0.25071 0.0
C950 C 0.61059 0.47417 0.25201 0.0
C951 C 0.62353 0.49951 0.25356 0.0
C952 C 0.62532 0.45076 0.23926 0.0
C953 C 0.6512 0.50139 0.24141 0.0
C954 C 0.66578 0.47836 0.22688 0.0
C955 C 0.66761 0.42965 0.21146 0.0
C956 C 0.65488 0.40413 0.21078 0.0
C957 C 0.65308 0.45292 0.2259 0.0
C958 C 0.62757 0.40211 0.22635 0.0
C959 C 0.61289 0.42521 0.24008 0.0
H960 H 0.27139 0.90413 0.53328 0.0
H961 H 0.29334 0.8217 0.49692 0.0
H962 H 0.33884 0.83649 0.47142 0.0
H963 H 0.37204 0.87288 0.45797 0.0
H964 H 0.34867 0.95576 0.48439 0.0
H965 H 0.30421 0.94075 0.5169 0.0
C966 C 0.28616 0.88943 0.51974 0.0
C967 C 0.27907 0.86189 0.517 0.0
C968 C 0.31207 0.89813 0.50414 0.0
C969 C 0.29827 0.84305 0.49892 0.0
C970 C 0.32433 0.85146 0.48474 0.0
C971 C 0.35731 0.88762 0.47145 0.0
C972 C 0.36358 0.91534 0.46932 0.0
C973 C 0.33143 0.87894 0.48721 0.0
C974 C 0.34423 0.93429 0.48606 0.0
C975 C 0.31882 0.92573 0.50426 0.0
H976 H 0.86006 0.59308 0.64421 0.0
H977 H 0.81714 0.60208 0.79742 0.0
H978 H 0.83996 0.56201 0.83401 0.0
H979 H 0.87349 0.52561 0.82318 0.0
H980 H 0.91798 0.5191 0.67086 0.0
H981 H 0.8934 0.55762 0.6334 0.0
C982 C 0.85582 0.58662 0.68578 0.0
C983 C 0.83717 0.60093 0.71815 0.0
C984 C 0.86941 0.56409 0.70674 0.0
C985 C 0.83148 0.59158 0.77158 0.0
C986 C 0.84458 0.56871 0.79255 0.0
C987 C 0.87773 0.53253 0.78168 0.0
C988 C 0.89757 0.51945 0.74984 0.0
C989 C 0.86379 0.55498 0.76061 0.0
C990 C 0.90293 0.52883 0.69632 0.0
C991 C 0.88884 0.55081 0.67482 0.0
H992 H 0.77014 0.90461 0.99849 0.0
H993 H 0.79805 0.82374 0.03193 0.0
H994 H 0.8431 0.84143 0.05417 0.0
H995 H 0.87456 0.87986 0.06319 0.0
H996 H 0.84526 0.96109 0.04079 0.0
H997 H 0.80083 0.94332 0.01349 0.0
C998 C 0.78608 0.89091 0.011 0.0
C999 C 0.78087 0.86293 0.0135 0.0
C1000 C 0.81172 0.90127 0.02468 0.0
C1001 C 0.80155 0.84538 0.03021 0.0
C1002 C 0.82735 0.85545 0.04241 0.0
C1003 C 0.8585 0.89364 0.05188 0.0
C1004 C 0.86318 0.92172 0.05317 0.0
C1005 C 0.8327 0.88334 0.03937 0.0
C1006 C 0.8421 0.9394 0.03947 0.0
C1007 C 0.81672 0.92925 0.02429 0.0
H1008 H 0.36621 0.51255 0.73294 0.0
H1009 H 0.44847 0.53693 0.76712 0.0
H1010 H 0.43312 0.58199 0.79328 0.0
H1011 H 0.39633 0.61412 0.80799 0.0
H1012 H 0.3137 0.58836 0.7842 0.0
H1013 H 0.32915 0.54431 0.75092 0.0
C1014 C 0.38073 0.52777 0.74616 0.0
C1015 C 0.40839 0.52151 0.74812 0.0
C1016 C 0.37172 0.55341 0.76226 0.0
C1017 C 0.42703 0.54125 0.76576 0.0
C1018 C 0.4183 0.56705 0.78033 0.0
C1019 C 0.38175 0.59895 0.7949 0.0
C1020 C 0.35398 0.6044 0.79791 0.0
C1021 C 0.39071 0.57333 0.77873 0.0
C1022 C 0.33521 0.58451 0.7818 0.0
C1023 C 0.34402 0.55935 0.76314 0.0
H1024 H 0.74969 0.12067 0.48506 0.0
H1025 H 0.72712 0.20125 0.53456 0.0
H1026 H 0.68295 0.18444 0.56451 0.0
H1027 H 0.65109 0.14678 0.57764 0.0
H1028 H 0.67534 0.06558 0.53684 0.0
H1029 H 0.7184 0.08275 0.50111 0.0
C1030 C 0.73508 0.13454 0.50238 0.0
C1031 C 0.74158 0.16216 0.50747 0.0
C1032 C 0.70999 0.12466 0.52041 0.0
C1033 C 0.72262 0.17987 0.53055 0.0
C1034 C 0.69733 0.17031 0.54733 0.0
C1035 C 0.66569 0.1329 0.56034 0.0
C1036 C 0.66006 0.10501 0.55929 0.0
C1037 C 0.6908 0.14276 0.54239 0.0
C1038 C 0.67928 0.08716 0.53773 0.0
C1039 C 0.70389 0.09694 0.51761 0.0
H1040 H 0.08326 0.47861 0.24282 0.0
H1041 H 0.15918 0.52163 0.25099 0.0
H1042 H 0.18305 0.47917 0.26849 0.0
H1043 H 0.18191 0.43007 0.28403 0.0
H1044 H 0.10626 0.38669 0.26956 0.0
H1045 H 0.08272 0.42895 0.25043 0.0
C1046 C 0.105 0.47858 0.24885 0.0
C1047 C 0.1195 0.50304 0.24689 0.0
C1048 C 0.11861 0.45407 0.25685 0.0
C1049 C 0.14771 0.50292 0.25306 0.0
C1050 C 0.16131 0.4787 0.26279 0.0
C1051 C 0.16033 0.42984 0.27591 0.0
C1052 C 0.14583 0.40533 0.2785 0.0
C1053 C 0.14694 0.45418 0.26491 0.0
C1054 C 0.11793 0.40526 0.26748 0.0
C1055 C 0.10439 0.42945 0.25712 0.0
H1056 H 0.68261 0.60997 0.39236 0.0
H1057 H 0.66843 0.5762 0.55369 0.0
H1058 H 0.70823 0.60025 0.58902 0.0
H1059 H 0.74626 0.63174 0.57426 0.0
H1060 H 0.75795 0.66792 0.41412 0.0
H1061 H 0.71927 0.64238 0.37817 0.0
C1062 C 0.68793 0.60798 0.43534 0.0
C1063 C 0.6723 0.59144 0.47031 0.0
C1064 C 0.71028 0.62243 0.45557 0.0
C1065 C 0.68 0.58881 0.5258 0.0
C1066 C 0.70273 0.60262 0.54605 0.0
C1067 C 0.74038 0.63399 0.53142 0.0
C1068 C 0.75502 0.65161 0.49676 0.0
C1069 C 0.71788 0.61962 0.51134 0.0
C1070 C 0.74697 0.65457 0.44161 0.0
C1071 C 0.72494 0.63991 0.42104 0.0
H1072 H 0.15148 1.00663 0.77483 0.0
H1073 H 0.07068 0.98298 0.72651 0.0
H1074 H 0.08682 0.93811 0.7014 0.0
H1075 H 0.12389 0.90589 0.69163 0.0
H1076 H 0.20537 0.93058 0.73145 0.0
H1077 H 0.18892 0.97463 0.76261 0.0
C1078 C 0.13743 0.99163 0.75882 0.0
C1079 C 0.10995 0.99809 0.75258 0.0
C1080 C 0.14692 0.96602 0.74354 0.0
C1081 C 0.09199 0.97857 0.73133 0.0
C1082 C 0.10115 0.95285 0.71728 0.0
C1083 C 0.13798 0.92081 0.70781 0.0
C1084 C 0.16572 0.91503 0.70988 0.0
C1085 C 0.12855 0.94637 0.72322 0.0
C1086 C 0.18388 0.93465 0.72983 0.0
C1087 C 0.17451 0.95982 0.74735 0.0
H1088 H 0.77974 0.39029 0.08045 0.0
H1089 H 0.76163 0.36564 0.91384 0.0
H1090 H 0.80036 0.39179 0.88022 0.0
H1091 H 0.839 0.42131 0.89833 0.0
H1092 H 0.86058 0.442 0.06547 0.0
H1093 H 0.8201 0.41848 0.09885 0.0
C1094 C 0.78426 0.39074 0.03676 0.0
C1095 C 0.76783 0.3762 0.99953 0.0
C1096 C 0.80694 0.40522 0.01797 0.0
C1097 C 0.77406 0.3766 0.94319 0.0
C1098 C 0.7961 0.39162 0.924 0.0
C1099 C 0.83525 0.42036 0.94215 0.0
C1100 C 0.85317 0.43303 0.97933 0.0
C1101 C 0.81269 0.40589 0.96106 0.0
C1102 C 0.84725 0.43234 0.03589 0.0
C1103 C 0.82417 0.41879 0.05501 0.0
H1104 H 0.369 1.01008 0.26942 0.0
H1105 H 0.45025 0.0385 0.23945 0.0
H1106 H 0.43303 0.08342 0.21642 0.0
H1107 H 0.39491 0.11453 0.20557 0.0
H1108 H 0.31337 0.08464 0.22396 0.0
H1109 H 0.33063 0.04046 0.25273 0.0
C1110 C 0.38287 0.02611 0.2575 0.0
C1111 C 0.4108 0.02113 0.25614 0.0
C1112 C 0.3728 0.05164 0.24335 0.0
C1113 C 0.42863 0.04188 0.24023 0.0
C1114 C 0.41883 0.06758 0.22761 0.0
C1115 C 0.38095 0.09837 0.21621 0.0
C1116 C 0.35296 0.10275 0.21326 0.0
C1117 C 0.39098 0.07271 0.22939 0.0
C1118 C 0.33502 0.08165 0.22646 0.0
C1119 C 0.34487 0.05641 0.24246 0.0
H1120 H 0.25459 0.3792 0.55303 0.0
H1121 H 0.27981 0.36451 0.38608 0.0
H1122 H 0.32305 0.38725 0.40395 0.0
H1123 H 0.35388 0.41076 0.46775 0.0
H1124 H 0.32677 0.42893 0.63253 0.0
H1125 H 0.28408 0.40585 0.61468 0.0
C1126 C 0.2697 0.38096 0.52087 0.0
C1127 C 0.26445 0.37003 0.46871 0.0
C1128 C 0.29406 0.39486 0.5309 0.0
C1129 C 0.28371 0.37276 0.42669 0.0
C1130 C 0.30834 0.38578 0.43684 0.0
C1131 C 0.33855 0.40987 0.49958 0.0
C1132 C 0.34379 0.42119 0.55162 0.0
C1133 C 0.31375 0.39691 0.48883 0.0
C1134 C 0.32351 0.42012 0.59221 0.0
C1135 C 0.29903 0.40686 0.58217 0.0
H1136 H 0.89404 0.12305 0.3192 0.0
H1137 H 0.81319 0.09488 0.28376 0.0
H1138 H 0.83114 0.05141 0.25249 0.0
H1139 H 0.86982 0.02095 0.23873 0.0
H1140 H 0.94999 0.04789 0.28401 0.0
H1141 H 0.93226 0.09221 0.30912 0.0
C1142 C 0.88037 0.1075 0.30403 0.0
C1143 C 0.85237 0.11218 0.30317 0.0
C1144 C 0.8907 0.08224 0.28885 0.0
C1145 C 0.83484 0.09171 0.28444 0.0
C1146 C 0.84508 0.06686 0.26688 0.0
C1147 C 0.88337 0.03655 0.25414 0.0
C1148 C 0.91117 0.03121 0.25941 0.0
C1149 C 0.87296 0.06179 0.26958 0.0
C1150 C 0.92849 0.05146 0.27995 0.0
C1151 C 0.9184 0.07685 0.29396 0.0
H1152 H 0.16554 0.62764 0.10302 0.0
H1153 H 0.18106 0.55462 0.01137 0.0
H1154 H 0.2226 0.57472 0.97483 0.0
H1155 H 0.25475 0.61254 0.97063 0.0
H1156 H 0.24007 0.68482 0.0657 0.0
H1157 H 0.19797 0.66513 0.10024 0.0
C1158 C 0.17788 0.61607 0.07502 0.0
C1159 C 0.17013 0.58963 0.06004 0.0
C1160 C 0.20199 0.6275 0.05531 0.0
C1161 C 0.18653 0.575 0.02362 0.0
C1162 C 0.21031 0.58645 1.00284 0.0
C1163 C 0.2424 0.62406 0.99896 0.0
C1164 C 0.25058 0.65019 0.01545 0.0
C1165 C 0.21832 0.6126 0.01878 0.0
C1166 C 0.23434 0.66466 0.05244 0.0
C1167 C 0.2102 0.65346 0.07202 0.0
H1168 H 0.65613 1.00398 0.7494 0.0
H1169 H 0.57513 0.97602 0.78375 0.0
H1170 H 0.5924 0.93094 0.80533 0.0
H1171 H 0.63046 0.8996 0.81413 0.0
H1172 H 0.71192 0.92897 0.79108 0.0
H1173 H 0.69451 0.97324 0.76334 0.0
C1174 C 0.6423 0.98802 0.76191 0.0
C1175 C 0.61442 0.99323 0.76497 0.0
C1176 C 0.65242 0.96236 0.7752 0.0
C1177 C 0.59671 0.97252 0.78164 0.0
C1178 C 0.60654 0.94671 0.79345 0.0
C1179 C 0.6444 0.91564 0.80264 0.0
C1180 C 0.67243 0.91105 0.80424 0.0
C1181 C 0.63433 0.94138 0.79006 0.0
C1182 C 0.69026 0.93206 0.78983 0.0
C1183 C 0.68033 0.95737 0.7744 0.0
loop_
_geom_bond_atom_site_label_1
_geom_bond_atom_site_label_2
_geom_bond_distance
_geom_bond_site_symmetry_2
_ccdc_geom_bond_type
Co0 O3 1.970 . S
Co0 N17 1.989 . S
Co0 O25 1.967 . S
Co0 O32 1.920 . S
Co1 O4 1.966 . S
Co1 N10 2.022 1_554 S
Co1 N18 1.993 . S
Co1 O26 1.941 1_554 S
C2 O3 1.258 . S
C2 O4 1.263 . S
O3 Co0 1.970 . S
O3 C2 1.258 . S
O4 Co1 1.966 . S
O4 C2 1.263 . S
C5 O6 1.235 . S
C5 O32 1.289 . S
O6 C5 1.235 . S
C7 C9 1.400 . S
C7 N10 1.351 . S
C7 C12 1.501 1_556 S
C8 C9 1.387 . S
C8 N11 1.341 . S
C9 C7 1.400 . S
C9 C8 1.387 . S
N10 Co1 2.022 1_556 S
N10 C7 1.351 . S
N10 N11 1.365 . S
N11 C8 1.341 . S
N11 N10 1.365 . S
N11 H31 0.862 . S
C12 C7 1.501 1_554 S
C12 H13 0.961 . S
C12 H14 0.961 . S
C12 H15 0.960 . S
H13 C12 0.961 . S
H14 C12 0.961 . S
H15 C12 0.960 . S
C16 N17 1.342 . S
C16 C20 1.401 1_554 S
C16 C21 1.499 . S
N17 Co0 1.989 . S
N17 C16 1.342 . S
N17 N18 1.388 . S
N18 Co1 1.993 . S
N18 N17 1.388 . S
N18 C19 1.346 1_554 S
C19 N18 1.346 1_556 S
C19 C20 1.396 . S
C19 C29 1.510 . S
C20 C16 1.401 1_556 S
C20 C19 1.396 . S
C21 C16 1.499 . S
C21 H22 0.959 . S
C21 H23 0.960 . S
C21 H24 0.961 . S
H22 C21 0.959 . S
H23 C21 0.960 . S
H24 C21 0.961 . S
O25 Co0 1.967 . S
O25 C33 1.258 . S
O26 Co1 1.941 1_556 S
O26 C33 1.266 1_556 S
H27 C29 0.959 . S
H28 C29 0.961 . S
C29 C19 1.510 . S
C29 H27 0.959 . S
C29 H28 0.961 . S
C29 H30 0.960 . S
H30 C29 0.960 . S
H31 N11 0.862 . S
O32 Co0 1.920 . S
O32 C5 1.289 . S
C33 O25 1.258 . S
C33 O26 1.266 1_554 S
Co34 O37 1.970 . S
Co34 N51 1.989 . S
Co34 O59 1.967 . S
Co34 O66 1.920 . S
Co35 O38 1.966 . S
Co35 N44 2.022 . S
Co35 N52 1.993 . S
Co35 O60 1.941 . S
C36 O37 1.258 . S
C36 O38 1.263 . S
O37 Co34 1.970 . S
O37 C36 1.258 . S
O38 Co35 1.966 . S
O38 C36 1.263 . S
C39 O40 1.235 . S
C39 O66 1.289 . S
O40 C39 1.235 . S
C41 C43 1.400 . S
C41 N44 1.351 . S
C41 C46 1.501 . S
C42 C43 1.387 . S
C42 N45 1.341 . S
C43 C41 1.400 . S
C43 C42 1.387 . S
N44 Co35 2.022 . S
N44 C41 1.351 . S
N44 N45 1.365 . S
N45 C42 1.341 . S
N45 N44 1.365 . S
N45 H65 0.862 . S
C46 C41 1.501 . S
C46 H47 0.961 . S
C46 H48 0.961 . S
C46 H49 0.960 . S
H47 C46 0.961 . S
H48 C46 0.961 . S
H49 C46 0.960 . S
C50 N51 1.342 . S
C50 C54 1.401 . S
C50 C55 1.499 . S
N51 Co34 1.989 . S
N51 C50 1.342 . S
N51 N52 1.388 . S
N52 Co35 1.993 . S
N52 N51 1.388 . S
N52 C53 1.346 . S
C53 N52 1.346 . S
C53 C54 1.396 . S
C53 C63 1.510 . S
C54 C50 1.401 . S
C54 C53 1.396 . S
C55 C50 1.499 . S
C55 H56 0.959 . S
C55 H57 0.960 . S
C55 H58 0.961 . S
H56 C55 0.959 . S
H57 C55 0.960 . S
H58 C55 0.961 . S
O59 Co34 1.967 . S
O59 C67 1.258 . S
O60 Co35 1.941 . S
O60 C67 1.266 . S
H61 C63 0.959 . S
H62 C63 0.961 . S
C63 C53 1.510 . S
C63 H61 0.959 . S
C63 H62 0.961 . S
C63 H64 0.960 . S
H64 C63 0.960 . S
H65 N45 0.862 . S
O66 Co34 1.920 . S
O66 C39 1.289 . S
C67 O59 1.258 . S
C67 O60 1.266 . S
Co68 O71 1.970 . S
Co68 N85 1.989 . S
Co68 O93 1.967 . S
Co68 O100 1.920 . S
Co69 O72 1.966 . S
Co69 N78 2.022 . S
Co69 N86 1.993 . S
Co69 O94 1.941 . S
C70 O71 1.258 . S
C70 O72 1.263 . S
O71 Co68 1.970 . S
O71 C70 1.258 . S
O72 Co69 1.966 . S
O72 C70 1.263 . S
C73 O74 1.235 . S
C73 O100 1.289 . S
O74 C73 1.235 . S
C75 C77 1.400 . S
C75 N78 1.351 . S
C75 C80 1.501 . S
C76 C77 1.387 . S
C76 N79 1.341 . S
C77 C75 1.400 . S
C77 C76 1.387 . S
N78 Co69 2.022 . S
N78 C75 1.351 . S
N78 N79 1.365 . S
N79 C76 1.341 . S
N79 N78 1.365 . S
N79 H99 0.862 . S
C80 C75 1.501 . S
C80 H81 0.961 . S
C80 H82 0.961 . S
C80 H83 0.960 . S
H81 C80 0.961 . S
H82 C80 0.961 . S
H83 C80 0.960 . S
C84 N85 1.342 . S
C84 C88 1.401 . S
C84 C89 1.499 . S
N85 Co68 1.989 . S
N85 C84 1.342 . S
N85 N86 1.388 . S
N86 Co69 1.993 . S
N86 N85 1.388 . S
N86 C87 1.346 . S
C87 N86 1.346 . S
C87 C88 1.396 . S
C87 C97 1.510 . S
C88 C84 1.401 . S
C88 C87 1.396 . S
C89 C84 1.499 . S
C89 H90 0.959 . S
C89 H91 0.960 . S
C89 H92 0.961 . S
H90 C89 0.959 . S
H91 C89 0.960 . S
H92 C89 0.961 . S
O93 Co68 1.967 . S
O93 C101 1.258 . S
O94 Co69 1.941 . S
O94 C101 1.266 . S
H95 C97 0.959 . S
H96 C97 0.961 . S
C97 C87 1.510 . S
C97 H95 0.959 . S
C97 H96 0.961 . S
C97 H98 0.960 . S
H98 C97 0.960 . S
H99 N79 0.862 . S
O100 Co68 1.920 . S
O100 C73 1.289 . S
C101 O93 1.258 . S
C101 O94 1.266 . S
Co102 O105 1.970 . S
Co102 N119 1.989 . S
Co102 O127 1.967 . S
Co102 O134 1.920 . S
Co103 O106 1.966 . S
Co103 N112 2.022 . S
Co103 N120 1.993 . S
Co103 O128 1.941 . S
C104 O105 1.258 . S
C104 O106 1.263 . S
O105 Co102 1.970 . S
O105 C104 1.258 . S
O106 Co103 1.966 . S
O106 C104 1.263 . S
C107 O108 1.235 . S
C107 O134 1.289 . S
O108 C107 1.235 . S
C109 C111 1.403 1_655 S
C109 N112 1.347 . S
C109 C114 1.502 1_655 S
C110 C111 1.387 1_655 S
C110 N113 1.341 . S
C111 C109 1.403 1_455 S
C111 C110 1.387 1_455 S
N112 Co103 2.022 . S
N112 C109 1.347 . S
N112 N113 1.365 . S
N113 C110 1.341 . S
N113 N112 1.365 . S
N113 H133 0.862 . S
C114 C109 1.502 1_455 S
C114 H115 0.961 1_455 S
C114 H116 0.961 . S
C114 H117 0.960 . S
H115 C114 0.961 1_655 S
H116 C114 0.961 . S
H117 C114 0.960 . S
C118 N119 1.342 . S
C118 C122 1.401 . S
C118 C123 1.499 . S
N119 Co102 1.989 . S
N119 C118 1.342 . S
N119 N120 1.388 . S
N120 Co103 1.993 . S
N120 N119 1.388 . S
N120 C121 1.346 . S
C121 N120 1.346 . S
C121 C122 1.396 . S
C121 C131 1.510 . S
C122 C118 1.401 . S
C122 C121 1.396 . S
C123 C118 1.499 . S
C123 H124 0.959 . S
C123 H125 0.960 . S
C123 H126 0.961 . S
H124 C123 0.959 . S
H125 C123 0.960 . S
H126 C123 0.961 . S
O127 Co102 1.967 . S
O127 C135 1.258 . S
O128 Co103 1.941 . S
O128 C135 1.266 . S
H129 C131 0.959 . S
H130 C131 0.961 . S
C131 C121 1.510 . S
C131 H129 0.959 . S
C131 H130 0.961 . S
C131 H132 0.960 . S
H132 C131 0.960 . S
H133 N113 0.862 . S
O134 Co102 1.920 . S
O134 C107 1.289 . S
C135 O127 1.258 . S
C135 O128 1.266 . S
Co136 O139 1.970 . S
Co136 N153 1.989 . S
Co136 O161 1.967 . S
Co136 O168 1.920 . S
Co137 O140 1.966 . S
Co137 N146 2.022 1_556 S
Co137 N154 1.993 . S
Co137 O162 1.941 1_556 S
C138 O139 1.258 . S
C138 O140 1.263 . S
O139 Co136 1.970 . S
O139 C138 1.258 . S
O140 Co137 1.966 . S
O140 C138 1.263 . S
C141 O142 1.235 . S
C141 O168 1.289 . S
O142 C141 1.235 . S
C143 C145 1.400 . S
C143 N146 1.351 . S
C143 C148 1.501 1_554 S
C144 C145 1.387 . S
C144 N147 1.341 . S
C145 C143 1.400 . S
C145 C144 1.387 . S
N146 Co137 2.022 1_554 S
N146 C143 1.351 . S
N146 N147 1.365 . S
N147 C144 1.341 . S
N147 N146 1.365 . S
N147 H167 0.862 . S
C148 C143 1.501 1_556 S
C148 H149 0.961 . S
C148 H150 0.961 . S
C148 H151 0.960 . S
H149 C148 0.961 . S
H150 C148 0.961 . S
H151 C148 0.960 . S
C152 N153 1.342 . S
C152 C156 1.401 1_556 S
C152 C157 1.499 . S
N153 Co136 1.989 . S
N153 C152 1.342 . S
N153 N154 1.388 . S
N154 Co137 1.993 . S
N154 N153 1.388 . S
N154 C155 1.346 1_556 S
C155 N154 1.346 1_554 S
C155 C156 1.396 . S
C155 C165 1.510 . S
C156 C152 1.401 1_554 S
C156 C155 1.396 . S
C157 C152 1.499 . S
C157 H158 0.959 . S
C157 H159 0.960 . S
C157 H160 0.961 . S
H158 C157 0.959 . S
H159 C157 0.960 . S
H160 C157 0.961 . S
O161 Co136 1.967 . S
O161 C169 1.258 . S
O162 Co137 1.941 1_554 S
O162 C169 1.266 1_554 S
H163 C165 0.959 . S
H164 C165 0.961 . S
C165 C155 1.510 . S
C165 H163 0.959 . S
C165 H164 0.961 . S
C165 H166 0.960 . S
H166 C165 0.960 . S
H167 N147 0.862 . S
O168 Co136 1.920 . S
O168 C141 1.289 . S
C169 O161 1.258 . S
C169 O162 1.266 1_556 S
Co170 O173 1.970 . S
Co170 N187 1.989 . S
Co170 O195 1.967 . S
Co170 O202 1.920 . S
Co171 O174 1.966 . S
Co171 N180 2.022 . S
Co171 N188 1.993 . S
Co171 O196 1.941 . S
C172 O173 1.258 . S
C172 O174 1.263 . S
O173 Co170 1.970 . S
O173 C172 1.258 . S
O174 Co171 1.966 . S
O174 C172 1.263 . S
C175 O176 1.235 . S
C175 O202 1.289 . S
O176 C175 1.235 . S
C177 C179 1.400 . S
C177 N180 1.351 . S
C177 C182 1.501 . S
C178 C179 1.387 . S
C178 N181 1.341 . S
C179 C177 1.400 . S
C179 C178 1.387 . S
N180 Co171 2.022 . S
N180 C177 1.351 . S
N180 N181 1.365 . S
N181 C178 1.341 . S
N181 N180 1.365 . S
N181 H201 0.862 . S
C182 C177 1.501 . S
C182 H183 0.961 . S
C182 H184 0.961 . S
C182 H185 0.960 . S
H183 C182 0.961 . S
H184 C182 0.961 . S
H185 C182 0.960 . S
C186 N187 1.342 . S
C186 C190 1.401 . S
C186 C191 1.499 . S
N187 Co170 1.989 . S
N187 C186 1.342 . S
N187 N188 1.388 . S
N188 Co171 1.993 . S
N188 N187 1.388 . S
N188 C189 1.346 . S
C189 N188 1.346 . S
C189 C190 1.396 . S
C189 C199 1.510 . S
C190 C186 1.401 . S
C190 C189 1.396 . S
C191 C186 1.499 . S
C191 H192 0.959 . S
C191 H193 0.960 . S
C191 H194 0.961 . S
H192 C191 0.959 . S
H193 C191 0.960 . S
H194 C191 0.961 . S
O195 Co170 1.967 . S
O195 C203 1.258 . S
O196 Co171 1.941 . S
O196 C203 1.266 . S
H197 C199 0.959 . S
H198 C199 0.961 . S
C199 C189 1.510 . S
C199 H197 0.959 . S
C199 H198 0.961 . S
C199 H200 0.960 . S
H200 C199 0.960 . S
H201 N181 0.862 . S
O202 Co170 1.920 . S
O202 C175 1.289 . S
C203 O195 1.258 . S
C203 O196 1.266 . S
Co204 O207 1.970 . S
Co204 N221 1.989 . S
Co204 O229 1.967 . S
Co204 O236 1.920 . S
Co205 O208 1.966 . S
Co205 N214 2.022 . S
Co205 N222 1.993 . S
Co205 O230 1.941 . S
C206 O207 1.258 . S
C206 O208 1.263 . S
O207 Co204 1.970 . S
O207 C206 1.258 . S
O208 Co205 1.966 . S
O208 C206 1.263 . S
C209 O210 1.235 . S
C209 O236 1.289 . S
O210 C209 1.235 . S
C211 C213 1.400 . S
C211 N214 1.351 . S
C211 C216 1.501 . S
C212 C213 1.387 . S
C212 N215 1.341 . S
C213 C211 1.400 . S
C213 C212 1.387 . S
N214 Co205 2.022 . S
N214 C211 1.351 . S
N214 N215 1.365 . S
N215 C212 1.341 . S
N215 N214 1.365 . S
N215 H235 0.862 . S
C216 C211 1.501 . S
C216 H217 0.961 . S
C216 H218 0.961 . S
C216 H219 0.960 . S
H217 C216 0.961 . S
H218 C216 0.961 . S
H219 C216 0.960 . S
C220 N221 1.342 . S
C220 C224 1.401 . S
C220 C225 1.499 . S
N221 Co204 1.989 . S
N221 C220 1.342 . S
N221 N222 1.388 . S
N222 Co205 1.993 . S
N222 N221 1.388 . S
N222 C223 1.346 . S
C223 N222 1.346 . S
C223 C224 1.396 . S
C223 C233 1.510 . S
C224 C220 1.401 . S
C224 C223 1.396 . S
C225 C220 1.499 . S
C225 H226 0.959 . S
C225 H227 0.960 . S
C225 H228 0.961 . S
H226 C225 0.959 . S
H227 C225 0.960 . S
H228 C225 0.961 . S
O229 Co204 1.967 . S
O229 C237 1.258 . S
O230 Co205 1.941 . S
O230 C237 1.266 . S
H231 C233 0.959 . S
H232 C233 0.961 . S
C233 C223 1.510 . S
C233 H231 0.959 . S
C233 H232 0.961 . S
C233 H234 0.960 . S
H234 C233 0.960 . S
H235 N215 0.862 . S
O236 Co204 1.920 . S
O236 C209 1.289 . S
C237 O229 1.258 . S
C237 O230 1.266 . S
Co238 O241 1.970 . S
Co238 N255 1.989 . S
Co238 O263 1.967 . S
Co238 O270 1.920 . S
Co239 O242 1.966 . S
Co239 N248 2.022 . S
Co239 N256 1.993 . S
Co239 O264 1.941 . S
C240 O241 1.258 . S
C240 O242 1.263 . S
O241 Co238 1.970 . S
O241 C240 1.258 . S
O242 Co239 1.966 . S
O242 C240 1.263 . S
C243 O244 1.235 . S
C243 O270 1.289 . S
O244 C243 1.235 . S
C245 C247 1.403 1_455 S
C245 N248 1.347 . S
C245 C250 1.502 1_455 S
C246 C247 1.387 1_455 S
C246 N249 1.341 . S
C247 C245 1.403 1_655 S
C247 C246 1.387 1_655 S
N248 Co239 2.022 . S
N248 C245 1.347 . S
N248 N249 1.365 . S
N249 C246 1.341 . S
N249 N248 1.365 . S
N249 H269 0.862 . S
C250 C245 1.502 1_655 S
C250 H251 0.961 1_655 S
C250 H252 0.961 . S
C250 H253 0.960 . S
H251 C250 0.961 1_455 S
H252 C250 0.961 . S
H253 C250 0.960 . S
C254 N255 1.342 . S
C254 C258 1.401 . S
C254 C259 1.499 . S
N255 Co238 1.989 . S
N255 C254 1.342 . S
N255 N256 1.388 . S
N256 Co239 1.993 . S
N256 N255 1.388 . S
N256 C257 1.346 . S
C257 N256 1.346 . S
C257 C258 1.396 . S
C257 C267 1.510 . S
C258 C254 1.401 . S
C258 C257 1.396 . S
C259 C254 1.499 . S
C259 H260 0.959 . S
C259 H261 0.960 . S
C259 H262 0.961 . S
H260 C259 0.959 . S
H261 C259 0.960 . S
H262 C259 0.961 . S
O263 Co238 1.967 . S
O263 C271 1.258 . S
O264 Co239 1.941 . S
O264 C271 1.266 . S
H265 C267 0.959 . S
H266 C267 0.961 . S
C267 C257 1.510 . S
C267 H265 0.959 . S
C267 H266 0.961 . S
C267 H268 0.960 . S
H268 C267 0.960 . S
H269 N249 0.862 . S
O270 Co238 1.920 . S
O270 C243 1.289 . S
C271 O263 1.258 . S
C271 O264 1.266 . S
Co272 O275 1.970 . S
Co272 N289 1.989 . S
Co272 O297 1.967 . S
Co272 O304 1.920 . S
Co273 O276 1.966 . S
Co273 N282 2.022 . S
Co273 N290 1.993 . S
Co273 O298 1.941 . S
C274 O275 1.258 . S
C274 O276 1.263 . S
O275 Co272 1.970 . S
O275 C274 1.258 . S
O276 Co273 1.966 . S
O276 C274 1.263 . S
C277 O278 1.235 . S
C277 O304 1.289 . S
O278 C277 1.235 . S
C279 C281 1.400 . S
C279 N282 1.351 . S
C279 C284 1.501 . S
C280 C281 1.387 . S
C280 N283 1.341 . S
C281 C279 1.400 . S
C281 C280 1.387 . S
N282 Co273 2.022 . S
N282 C279 1.351 . S
N282 N283 1.365 . S
N283 C280 1.341 . S
N283 N282 1.365 . S
N283 H303 0.862 . S
C284 C279 1.501 . S
C284 H285 0.961 . S
C284 H286 0.961 . S
C284 H287 0.960 . S
H285 C284 0.961 . S
H286 C284 0.961 . S
H287 C284 0.960 . S
C288 N289 1.342 . S
C288 C292 1.401 . S
C288 C293 1.499 . S
N289 Co272 1.989 . S
N289 C288 1.342 . S
N289 N290 1.388 . S
N290 Co273 1.993 . S
N290 N289 1.388 . S
N290 C291 1.346 . S
C291 N290 1.346 . S
C291 C292 1.396 . S
C291 C301 1.510 . S
C292 C288 1.401 . S
C292 C291 1.396 . S
C293 C288 1.499 . S
C293 H294 0.959 . S
C293 H295 0.960 . S
C293 H296 0.961 . S
H294 C293 0.959 . S
H295 C293 0.960 . S
H296 C293 0.961 . S
O297 Co272 1.967 . S
O297 C305 1.258 . S
O298 Co273 1.941 . S
O298 C305 1.266 . S
H299 C301 0.959 . S
H300 C301 0.961 . S
C301 C291 1.510 . S
C301 H299 0.959 . S
C301 H300 0.961 . S
C301 H302 0.960 . S
H302 C301 0.960 . S
H303 N283 0.862 . S
O304 Co272 1.920 . S
O304 C277 1.289 . S
C305 O297 1.258 . S
C305 O298 1.266 . S
Co306 O309 1.970 . S
Co306 N323 1.989 . S
Co306 O331 1.967 . S
Co306 O338 1.920 . S
Co307 O310 1.966 . S
Co307 N316 2.022 . S
Co307 N324 1.993 . S
Co307 O332 1.941 . S
C308 O309 1.258 . S
C308 O310 1.263 . S
O309 Co306 1.970 . S
O309 C308 1.258 . S
O310 Co307 1.966 . S
O310 C308 1.263 . S
C311 O312 1.235 . S
C311 O338 1.289 . S
O312 C311 1.235 . S
C313 C315 1.403 1_455 S
C313 N316 1.347 . S
C313 C318 1.502 1_455 S
C314 C315 1.387 1_455 S
C314 N317 1.341 . S
C315 C313 1.403 1_655 S
C315 C314 1.387 1_655 S
N316 Co307 2.022 . S
N316 C313 1.347 . S
N316 N317 1.365 . S
N317 C314 1.341 . S
N317 N316 1.365 . S
N317 H337 0.862 . S
C318 C313 1.502 1_655 S
C318 H319 0.961 1_655 S
C318 H320 0.961 . S
C318 H321 0.960 . S
H319 C318 0.961 1_455 S
H320 C318 0.961 . S
H321 C318 0.960 . S
C322 N323 1.342 . S
C322 C326 1.401 . S
C322 C327 1.499 . S
N323 Co306 1.989 . S
N323 C322 1.342 . S
N323 N324 1.388 . S
N324 Co307 1.993 . S
N324 N323 1.388 . S
N324 C325 1.346 . S
C325 N324 1.346 . S
C325 C326 1.396 . S
C325 C335 1.510 . S
C326 C322 1.401 . S
C326 C325 1.396 . S
C327 C322 1.499 . S
C327 H328 0.959 . S
C327 H329 0.960 . S
C327 H330 0.961 . S
H328 C327 0.959 . S
H329 C327 0.960 . S
H330 C327 0.961 . S
O331 Co306 1.967 . S
O331 C339 1.258 . S
O332 Co307 1.941 . S
O332 C339 1.266 . S
H333 C335 0.959 . S
H334 C335 0.961 . S
C335 C325 1.510 . S
C335 H333 0.959 . S
C335 H334 0.961 . S
C335 H336 0.960 . S
H336 C335 0.960 . S
H337 N317 0.862 . S
O338 Co306 1.920 . S
O338 C311 1.289 . S
C339 O331 1.258 . S
C339 O332 1.266 . S
Co340 O343 1.970 . S
Co340 N357 1.989 . S
Co340 O365 1.967 . S
Co340 O372 1.920 . S
Co341 O344 1.966 . S
Co341 N350 2.022 1_554 S
Co341 N358 1.993 . S
Co341 O366 1.941 1_554 S
C342 O343 1.258 . S
C342 O344 1.263 . S
O343 Co340 1.970 . S
O343 C342 1.258 . S
O344 Co341 1.966 . S
O344 C342 1.263 . S
C345 O346 1.235 . S
C345 O372 1.289 . S
O346 C345 1.235 . S
C347 C349 1.400 . S
C347 N350 1.351 . S
C347 C352 1.501 1_556 S
C348 C349 1.387 . S
C348 N351 1.341 . S
C349 C347 1.400 . S
C349 C348 1.387 . S
N350 Co341 2.022 1_556 S
N350 C347 1.351 . S
N350 N351 1.365 . S
N351 C348 1.341 . S
N351 N350 1.365 . S
N351 H371 0.862 . S
C352 C347 1.501 1_554 S
C352 H353 0.961 . S
C352 H354 0.961 . S
C352 H355 0.960 . S
H353 C352 0.961 . S
H354 C352 0.961 . S
H355 C352 0.960 . S
C356 N357 1.342 . S
C356 C360 1.401 1_554 S
C356 C361 1.499 . S
N357 Co340 1.989 . S
N357 C356 1.342 . S
N357 N358 1.388 . S
N358 Co341 1.993 . S
N358 N357 1.388 . S
N358 C359 1.346 1_554 S
C359 N358 1.346 1_556 S
C359 C360 1.396 . S
C359 C369 1.510 . S
C360 C356 1.401 1_556 S
C360 C359 1.396 . S
C361 C356 1.499 . S
C361 H362 0.959 . S
C361 H363 0.960 . S
C361 H364 0.961 . S
H362 C361 0.959 . S
H363 C361 0.960 . S
H364 C361 0.961 . S
O365 Co340 1.967 . S
O365 C373 1.258 . S
O366 Co341 1.941 1_556 S
O366 C373 1.266 1_556 S
H367 C369 0.959 . S
H368 C369 0.961 . S
C369 C359 1.510 . S
C369 H367 0.959 . S
C369 H368 0.961 . S
C369 H370 0.960 . S
H370 C369 0.960 . S
H371 N351 0.862 . S
O372 Co340 1.920 . S
O372 C345 1.289 . S
C373 O365 1.258 . S
C373 O366 1.266 1_554 S
Co374 O377 1.970 . S
Co374 N391 1.989 . S
Co374 O399 1.967 . S
Co374 O406 1.920 . S
Co375 O378 1.966 . S
Co375 N384 2.022 . S
Co375 N392 1.993 . S
Co375 O400 1.941 . S
C376 O377 1.258 . S
C376 O378 1.263 . S
O377 Co374 1.970 . S
O377 C376 1.258 . S
O378 Co375 1.966 . S
O378 C376 1.263 . S
C379 O380 1.235 . S
C379 O406 1.289 . S
O380 C379 1.235 . S
C381 C383 1.400 . S
C381 N384 1.351 . S
C381 C386 1.501 . S
C382 C383 1.387 . S
C382 N385 1.341 . S
C383 C381 1.400 . S
C383 C382 1.387 . S
N384 Co375 2.022 . S
N384 C381 1.351 . S
N384 N385 1.365 . S
N385 C382 1.341 . S
N385 N384 1.365 . S
N385 H405 0.862 . S
C386 C381 1.501 . S
C386 H387 0.961 . S
C386 H388 0.961 . S
C386 H389 0.960 . S
H387 C386 0.961 . S
H388 C386 0.961 . S
H389 C386 0.960 . S
C390 N391 1.342 . S
C390 C394 1.401 . S
C390 C395 1.499 . S
N391 Co374 1.989 . S
N391 C390 1.342 . S
N391 N392 1.388 . S
N392 Co375 1.993 . S
N392 N391 1.388 . S
N392 C393 1.346 . S
C393 N392 1.346 . S
C393 C394 1.396 . S
C393 C403 1.510 . S
C394 C390 1.401 . S
C394 C393 1.396 . S
C395 C390 1.499 . S
C395 H396 0.959 . S
C395 H397 0.960 . S
C395 H398 0.961 . S
H396 C395 0.959 . S
H397 C395 0.960 . S
H398 C395 0.961 . S
O399 Co374 1.967 . S
O399 C407 1.258 . S
O400 Co375 1.941 . S
O400 C407 1.266 . S
H401 C403 0.959 . S
H402 C403 0.961 . S
C403 C393 1.510 . S
C403 H401 0.959 . S
C403 H402 0.961 . S
C403 H404 0.960 . S
H404 C403 0.960 . S
H405 N385 0.862 . S
O406 Co374 1.920 . S
O406 C379 1.289 . S
C407 O399 1.258 . S
C407 O400 1.266 . S
Co408 O411 1.970 . S
Co408 N425 1.989 . S
Co408 O433 1.967 . S
Co408 O440 1.920 . S
Co409 O412 1.966 . S
Co409 N418 2.022 . S
Co409 N426 1.993 . S
Co409 O434 1.941 . S
C410 O411 1.258 . S
C410 O412 1.263 . S
O411 Co408 1.970 . S
O411 C410 1.258 . S
O412 Co409 1.966 . S
O412 C410 1.263 . S
C413 O414 1.235 . S
C413 O440 1.289 . S
O414 C413 1.235 . S
C415 C417 1.400 . S
C415 N418 1.351 . S
C415 C420 1.501 . S
C416 C417 1.387 . S
C416 N419 1.341 . S
C417 C415 1.400 . S
C417 C416 1.387 . S
N418 Co409 2.022 . S
N418 C415 1.351 . S
N418 N419 1.365 . S
N419 C416 1.341 . S
N419 N418 1.365 . S
N419 H439 0.862 . S
C420 C415 1.501 . S
C420 H421 0.961 . S
C420 H422 0.961 . S
C420 H423 0.960 . S
H421 C420 0.961 . S
H422 C420 0.961 . S
H423 C420 0.960 . S
C424 N425 1.342 . S
C424 C428 1.401 . S
C424 C429 1.499 . S
N425 Co408 1.989 . S
N425 C424 1.342 . S
N425 N426 1.388 . S
N426 Co409 1.993 . S
N426 N425 1.388 . S
N426 C427 1.346 . S
C427 N426 1.346 . S
C427 C428 1.396 . S
C427 C437 1.510 . S
C428 C424 1.401 . S
C428 C427 1.396 . S
C429 C424 1.499 . S
C429 H430 0.959 . S
C429 H431 0.960 . S
C429 H432 0.961 . S
H430 C429 0.959 . S
H431 C429 0.960 . S
H432 C429 0.961 . S
O433 Co408 1.967 . S
O433 C441 1.258 . S
O434 Co409 1.941 . S
O434 C441 1.266 . S
H435 C437 0.959 . S
H436 C437 0.961 . S
C437 C427 1.510 . S
C437 H435 0.959 . S
C437 H436 0.961 . S
C437 H438 0.960 . S
H438 C437 0.960 . S
H439 N419 0.862 . S
O440 Co408 1.920 . S
O440 C413 1.289 . S
C441 O433 1.258 . S
C441 O434 1.266 . S
Co442 O445 1.970 . S
Co442 N459 1.989 . S
Co442 O467 1.967 . S
Co442 O474 1.920 . S
Co443 O446 1.966 . S
Co443 N452 2.022 . S
Co443 N460 1.993 . S
Co443 O468 1.941 . S
C444 O445 1.258 . S
C444 O446 1.263 . S
O445 Co442 1.970 . S
O445 C444 1.258 . S
O446 Co443 1.966 . S
O446 C444 1.263 . S
C447 O448 1.235 . S
C447 O474 1.289 . S
O448 C447 1.235 . S
C449 C451 1.403 1_655 S
C449 N452 1.347 . S
C449 C454 1.502 1_655 S
C450 C451 1.387 1_655 S
C450 N453 1.341 . S
C451 C449 1.403 1_455 S
C451 C450 1.387 1_455 S
N452 Co443 2.022 . S
N452 C449 1.347 . S
N452 N453 1.365 . S
N453 C450 1.341 . S
N453 N452 1.365 . S
N453 H473 0.862 . S
C454 C449 1.502 1_455 S
C454 H455 0.961 1_455 S
C454 H456 0.961 . S
C454 H457 0.960 . S
H455 C454 0.961 1_655 S
H456 C454 0.961 . S
H457 C454 0.960 . S
C458 N459 1.342 . S
C458 C462 1.401 . S
C458 C463 1.499 . S
N459 Co442 1.989 . S
N459 C458 1.342 . S
N459 N460 1.388 . S
N460 Co443 1.993 . S
N460 N459 1.388 . S
N460 C461 1.346 . S
C461 N460 1.346 . S
C461 C462 1.396 . S
C461 C471 1.510 . S
C462 C458 1.401 . S
C462 C461 1.396 . S
C463 C458 1.499 . S
C463 H464 0.959 . S
C463 H465 0.960 . S
C463 H466 0.961 . S
H464 C463 0.959 . S
H465 C463 0.960 . S
H466 C463 0.961 . S
O467 Co442 1.967 . S
O467 C475 1.258 . S
O468 Co443 1.941 . S
O468 C475 1.266 . S
H469 C471 0.959 . S
H470 C471 0.961 . S
C471 C461 1.510 . S
C471 H469 0.959 . S
C471 H470 0.961 . S
C471 H472 0.960 . S
H472 C471 0.960 . S
H473 N453 0.862 . S
O474 Co442 1.920 . S
O474 C447 1.289 . S
C475 O467 1.258 . S
C475 O468 1.266 . S
Co476 O479 1.970 . S
Co476 N493 1.989 . S
Co476 O501 1.967 . S
Co476 O508 1.920 . S
Co477 O480 1.966 . S
Co477 N486 2.022 1_556 S
Co477 N494 1.993 . S
Co477 O502 1.941 1_556 S
C478 O479 1.258 . S
C478 O480 1.263 . S
O479 Co476 1.970 . S
O479 C478 1.258 . S
O480 Co477 1.966 . S
O480 C478 1.263 . S
C481 O482 1.235 . S
C481 O508 1.289 . S
O482 C481 1.235 . S
C483 C485 1.400 . S
C483 N486 1.351 . S
C483 C488 1.501 1_554 S
C484 C485 1.387 . S
C484 N487 1.341 . S
C485 C483 1.400 . S
C485 C484 1.387 . S
N486 Co477 2.022 1_554 S
N486 C483 1.351 . S
N486 N487 1.365 . S
N487 C484 1.341 . S
N487 N486 1.365 . S
N487 H507 0.862 . S
C488 C483 1.501 1_556 S
C488 H489 0.961 . S
C488 H490 0.961 . S
C488 H491 0.960 . S
H489 C488 0.961 . S
H490 C488 0.961 . S
H491 C488 0.960 . S
C492 N493 1.342 . S
C492 C496 1.401 1_556 S
C492 C497 1.499 . S
N493 Co476 1.989 . S
N493 C492 1.342 . S
N493 N494 1.388 . S
N494 Co477 1.993 . S
N494 N493 1.388 . S
N494 C495 1.346 1_556 S
C495 N494 1.346 1_554 S
C495 C496 1.396 . S
C495 C505 1.510 . S
C496 C492 1.401 1_554 S
C496 C495 1.396 . S
C497 C492 1.499 . S
C497 H498 0.959 . S
C497 H499 0.960 . S
C497 H500 0.961 . S
H498 C497 0.959 . S
H499 C497 0.960 . S
H500 C497 0.961 . S
O501 Co476 1.967 . S
O501 C509 1.258 . S
O502 Co477 1.941 1_554 S
O502 C509 1.266 1_554 S
H503 C505 0.959 . S
H504 C505 0.961 . S
C505 C495 1.510 . S
C505 H503 0.959 . S
C505 H504 0.961 . S
C505 H506 0.960 . S
H506 C505 0.960 . S
H507 N487 0.862 . S
O508 Co476 1.920 . S
O508 C481 1.289 . S
C509 O501 1.258 . S
C509 O502 1.266 1_556 S
Co510 O513 1.970 . S
Co510 N527 1.989 . S
Co510 O535 1.967 . S
Co510 O542 1.920 . S
Co511 O514 1.966 . S
Co511 N520 2.022 . S
Co511 N528 1.993 . S
Co511 O536 1.941 . S
C512 O513 1.258 . S
C512 O514 1.263 . S
O513 Co510 1.970 . S
O513 C512 1.258 . S
O514 Co511 1.966 . S
O514 C512 1.263 . S
C515 O516 1.235 . S
C515 O542 1.289 . S
O516 C515 1.235 . S
C517 C519 1.400 . S
C517 N520 1.351 . S
C517 C522 1.501 . S
C518 C519 1.387 . S
C518 N521 1.341 . S
C519 C517 1.400 . S
C519 C518 1.387 . S
N520 Co511 2.022 . S
N520 C517 1.351 . S
N520 N521 1.365 . S
N521 C518 1.341 . S
N521 N520 1.365 . S
N521 H541 0.862 . S
C522 C517 1.501 . S
C522 H523 0.961 . S
C522 H524 0.961 . S
C522 H525 0.960 . S
H523 C522 0.961 . S
H524 C522 0.961 . S
H525 C522 0.960 . S
C526 N527 1.342 . S
C526 C530 1.401 . S
C526 C531 1.499 . S
N527 Co510 1.989 . S
N527 C526 1.342 . S
N527 N528 1.388 . S
N528 Co511 1.993 . S
N528 N527 1.388 . S
N528 C529 1.346 . S
C529 N528 1.346 . S
C529 C530 1.396 . S
C529 C539 1.510 . S
C530 C526 1.401 . S
C530 C529 1.396 . S
C531 C526 1.499 . S
C531 H532 0.959 . S
C531 H533 0.960 . S
C531 H534 0.961 . S
H532 C531 0.959 . S
H533 C531 0.960 . S
H534 C531 0.961 . S
O535 Co510 1.967 . S
O535 C543 1.258 . S
O536 Co511 1.941 . S
O536 C543 1.266 . S
H537 C539 0.959 . S
H538 C539 0.961 . S
C539 C529 1.510 . S
C539 H537 0.959 . S
C539 H538 0.961 . S
C539 H540 0.960 . S
H540 C539 0.960 . S
H541 N521 0.862 . S
O542 Co510 1.920 . S
O542 C515 1.289 . S
C543 O535 1.258 . S
C543 O536 1.266 . S
H544 C550 0.930 . S
H545 C553 0.930 . S
H546 C554 0.930 . S
H547 C555 0.930 . S
H548 C558 0.930 1_554 S
H549 C559 0.930 . S
C550 H544 0.930 . S
C550 C551 1.355 . S
C550 C552 1.415 . S
C551 C550 1.355 . S
C551 C553 1.419 . S
C552 C550 1.415 . S
C552 C557 1.425 . S
C552 C559 1.409 . S
C553 H545 0.930 . S
C553 C551 1.419 . S
C553 C554 1.362 . S
C554 H546 0.930 . S
C554 C553 1.362 . S
C554 C557 1.409 . S
C555 H547 0.930 . S
C555 C556 1.355 . S
C555 C557 1.415 . S
C556 C555 1.355 . S
C556 C558 1.419 . S
C557 C552 1.425 . S
C557 C554 1.409 . S
C557 C555 1.415 . S
C558 H548 0.930 1_556 S
C558 C556 1.419 . S
C558 C559 1.362 . S
C559 H549 0.930 . S
C559 C552 1.409 . S
C559 C558 1.362 . S
H560 C566 0.930 . S
H561 C569 0.930 . S
H562 C570 0.930 . S
H563 C571 0.930 . S
H564 C574 0.930 . S
H565 C575 0.930 . S
C566 H560 0.930 . S
C566 C567 1.355 . S
C566 C568 1.415 . S
C567 C566 1.355 . S
C567 C569 1.419 . S
C568 C566 1.415 . S
C568 C573 1.425 . S
C568 C575 1.409 . S
C569 H561 0.930 . S
C569 C567 1.419 . S
C569 C570 1.362 . S
C570 H562 0.930 . S
C570 C569 1.362 . S
C570 C573 1.409 . S
C571 H563 0.930 . S
C571 C572 1.355 . S
C571 C573 1.415 . S
C572 C571 1.355 . S
C572 C574 1.419 . S
C573 C568 1.425 . S
C573 C570 1.409 . S
C573 C571 1.415 . S
C574 H564 0.930 . S
C574 C572 1.419 . S
C574 C575 1.362 . S
C575 H565 0.930 . S
C575 C568 1.409 . S
C575 C574 1.362 . S
H576 C582 0.930 . S
H577 C585 0.930 . S
H578 C586 0.930 . S
H579 C587 0.930 . S
H580 C590 0.930 . S
H581 C591 0.930 . S
C582 H576 0.930 . S
C582 C583 1.355 . S
C582 C584 1.415 . S
C583 C582 1.355 . S
C583 C585 1.419 . S
C584 C582 1.415 . S
C584 C589 1.425 . S
C584 C591 1.409 . S
C585 H577 0.930 . S
C585 C583 1.419 . S
C585 C586 1.362 . S
C586 H578 0.930 . S
C586 C585 1.362 . S
C586 C589 1.409 . S
C587 H579 0.930 . S
C587 C588 1.355 . S
C587 C589 1.415 . S
C588 C587 1.355 . S
C588 C590 1.419 . S
C589 C584 1.425 . S
C589 C586 1.409 . S
C589 C587 1.415 . S
C590 H580 0.930 . S
C590 C588 1.419 . S
C590 C591 1.362 . S
C591 H581 0.930 . S
C591 C584 1.409 . S
C591 C590 1.362 . S
H592 C598 0.930 . S
H593 C601 0.930 . S
H594 C602 0.930 . S
H595 C603 0.930 . S
H596 C606 0.930 . S
H597 C607 0.930 . S
C598 H592 0.930 . S
C598 C599 1.355 . S
C598 C600 1.415 . S
C599 C598 1.355 . S
C599 C601 1.419 . S
C600 C598 1.415 . S
C600 C605 1.425 . S
C600 C607 1.409 . S
C601 H593 0.930 . S
C601 C599 1.419 . S
C601 C602 1.362 . S
C602 H594 0.930 . S
C602 C601 1.362 . S
C602 C605 1.409 . S
C603 H595 0.930 . S
C603 C604 1.355 . S
C603 C605 1.415 . S
C604 C603 1.355 . S
C604 C606 1.419 . S
C605 C600 1.425 . S
C605 C602 1.409 . S
C605 C603 1.415 . S
C606 H596 0.930 . S
C606 C604 1.419 . S
C606 C607 1.362 . S
C607 H597 0.930 . S
C607 C600 1.409 . S
C607 C606 1.362 . S
H608 C614 0.930 . S
H609 C617 0.930 1_556 S
H610 C618 0.930 . S
H611 C619 0.930 . S
H612 C622 0.930 . S
H613 C623 0.930 . S
C614 H608 0.930 . S
C614 C615 1.355 . S
C614 C616 1.415 . S
C615 C614 1.355 . S
C615 C617 1.419 . S
C616 C614 1.415 . S
C616 C621 1.425 . S
C616 C623 1.409 . S
C617 H609 0.930 1_554 S
C617 C615 1.419 . S
C617 C618 1.362 . S
C618 H610 0.930 . S
C618 C617 1.362 . S
C618 C621 1.409 . S
C619 H611 0.930 . S
C619 C620 1.355 . S
C619 C621 1.415 . S
C620 C619 1.355 . S
C620 C622 1.419 . S
C621 C616 1.425 . S
C621 C618 1.409 . S
C621 C619 1.415 . S
C622 H612 0.930 . S
C622 C620 1.419 . S
C622 C623 1.362 . S
C623 H613 0.930 . S
C623 C616 1.409 . S
C623 C622 1.362 . S
H624 C630 0.930 . S
H625 C633 0.930 . S
H626 C634 0.930 . S
H627 C635 0.930 . S
H628 C638 0.930 . S
H629 C639 0.930 . S
C630 H624 0.930 . S
C630 C631 1.355 . S
C630 C632 1.415 . S
C631 C630 1.355 . S
C631 C633 1.419 . S
C632 C630 1.415 . S
C632 C637 1.425 . S
C632 C639 1.409 . S
C633 H625 0.930 . S
C633 C631 1.419 . S
C633 C634 1.362 . S
C634 H626 0.930 . S
C634 C633 1.362 . S
C634 C637 1.409 . S
C635 H627 0.930 . S
C635 C636 1.355 . S
C635 C637 1.415 . S
C636 C635 1.355 . S
C636 C638 1.419 . S
C637 C632 1.425 . S
C637 C634 1.409 . S
C637 C635 1.415 . S
C638 H628 0.930 . S
C638 C636 1.419 . S
C638 C639 1.362 . S
C639 H629 0.930 . S
C639 C632 1.409 . S
C639 C638 1.362 . S
H640 C646 0.930 . S
H641 C649 0.930 . S
H642 C650 0.930 . S
H643 C651 0.930 . S
H644 C654 0.930 . S
H645 C655 0.930 . S
C646 H640 0.930 . S
C646 C647 1.355 . S
C646 C648 1.415 . S
C647 C646 1.355 . S
C647 C649 1.419 . S
C648 C646 1.415 . S
C648 C653 1.425 . S
C648 C655 1.409 . S
C649 H641 0.930 . S
C649 C647 1.419 . S
C649 C650 1.362 . S
C650 H642 0.930 . S
C650 C649 1.362 . S
C650 C653 1.409 . S
C651 H643 0.930 . S
C651 C652 1.355 . S
C651 C653 1.415 . S
C652 C651 1.355 . S
C652 C654 1.419 . S
C653 C648 1.425 . S
C653 C650 1.409 . S
C653 C651 1.415 . S
C654 H644 0.930 . S
C654 C652 1.419 . S
C654 C655 1.362 . S
C655 H645 0.930 . S
C655 C648 1.409 . S
C655 C654 1.362 . S
H656 C662 0.930 . S
H657 C665 0.930 . S
H658 C666 0.930 . S
H659 C667 0.930 . S
H660 C670 0.930 . S
H661 C671 0.930 . S
C662 H656 0.930 . S
C662 C663 1.355 . S
C662 C664 1.415 . S
C663 C662 1.355 . S
C663 C665 1.419 . S
C664 C662 1.415 . S
C664 C669 1.425 . S
C664 C671 1.409 . S
C665 H657 0.930 . S
C665 C663 1.419 . S
C665 C666 1.362 . S
C666 H658 0.930 . S
C666 C665 1.362 . S
C666 C669 1.409 . S
C667 H659 0.930 . S
C667 C668 1.355 . S
C667 C669 1.415 . S
C668 C667 1.355 . S
C668 C670 1.419 . S
C669 C664 1.425 . S
C669 C666 1.409 . S
C669 C667 1.415 . S
C670 H660 0.930 . S
C670 C668 1.419 . S
C670 C671 1.362 . S
C671 H661 0.930 . S
C671 C664 1.409 . S
C671 C670 1.362 . S
H672 C678 0.930 . S
H673 C681 0.930 . S
H674 C682 0.930 . S
H675 C683 0.930 . S
H676 C686 0.930 . S
H677 C687 0.930 . S
C678 H672 0.930 . S
C678 C679 1.355 . S
C678 C680 1.415 . S
C679 C678 1.355 . S
C679 C681 1.419 . S
C680 C678 1.415 . S
C680 C685 1.425 . S
C680 C687 1.409 . S
C681 H673 0.930 . S
C681 C679 1.419 . S
C681 C682 1.362 . S
C682 H674 0.930 . S
C682 C681 1.362 . S
C682 C685 1.409 . S
C683 H675 0.930 . S
C683 C684 1.355 . S
C683 C685 1.415 . S
C684 C683 1.355 . S
C684 C686 1.419 . S
C685 C680 1.425 . S
C685 C682 1.409 . S
C685 C683 1.415 . S
C686 H676 0.930 . S
C686 C684 1.419 . S
C686 C687 1.362 . S
C687 H677 0.930 . S
C687 C680 1.409 . S
C687 C686 1.362 . S
H688 C694 0.930 . S
H689 C697 0.930 . S
H690 C698 0.930 . S
H691 C699 0.930 . S
H692 C702 0.930 . S
H693 C703 0.930 . S
C694 H688 0.930 . S
C694 C695 1.355 . S
C694 C696 1.415 . S
C695 C694 1.355 . S
C695 C697 1.419 . S
C696 C694 1.415 . S
C696 C701 1.425 . S
C696 C703 1.409 . S
C697 H689 0.930 . S
C697 C695 1.419 . S
C697 C698 1.362 . S
C698 H690 0.930 . S
C698 C697 1.362 . S
C698 C701 1.409 . S
C699 H691 0.930 . S
C699 C700 1.355 . S
C699 C701 1.415 . S
C700 C699 1.355 . S
C700 C702 1.419 . S
C701 C696 1.425 . S
C701 C698 1.409 . S
C701 C699 1.415 . S
C702 H692 0.930 . S
C702 C700 1.419 . S
C702 C703 1.362 . S
C703 H693 0.930 . S
C703 C696 1.409 . S
C703 C702 1.362 . S
H704 C710 0.930 . S
H705 C713 0.930 . S
H706 C714 0.930 . S
H707 C715 0.930 . S
H708 C718 0.930 1_554 S
H709 C719 0.930 . S
C710 H704 0.930 . S
C710 C711 1.355 . S
C710 C712 1.415 . S
C711 C710 1.355 . S
C711 C713 1.419 . S
C712 C710 1.415 . S
C712 C717 1.425 . S
C712 C719 1.409 . S
C713 H705 0.930 . S
C713 C711 1.419 . S
C713 C714 1.362 . S
C714 H706 0.930 . S
C714 C713 1.362 . S
C714 C717 1.409 . S
C715 H707 0.930 . S
C715 C716 1.355 . S
C715 C717 1.415 . S
C716 C715 1.355 . S
C716 C718 1.419 . S
C717 C712 1.425 . S
C717 C714 1.409 . S
C717 C715 1.415 . S
C718 H708 0.930 1_556 S
C718 C716 1.419 . S
C718 C719 1.362 . S
C719 H709 0.930 . S
C719 C712 1.409 . S
C719 C718 1.362 . S
H720 C726 0.930 . S
H721 C729 0.930 . S
H722 C730 0.930 . S
H723 C731 0.930 . S
H724 C734 0.930 . S
H725 C735 0.930 . S
C726 H720 0.930 . S
C726 C727 1.355 . S
C726 C728 1.415 . S
C727 C726 1.355 . S
C727 C729 1.419 . S
C728 C726 1.415 . S
C728 C733 1.425 . S
C728 C735 1.409 . S
C729 H721 0.930 . S
C729 C727 1.419 . S
C729 C730 1.362 . S
C730 H722 0.930 . S
C730 C729 1.362 . S
C730 C733 1.409 . S
C731 H723 0.930 . S
C731 C732 1.355 . S
C731 C733 1.415 . S
C732 C731 1.355 . S
C732 C734 1.419 . S
C733 C728 1.425 . S
C733 C730 1.409 . S
C733 C731 1.415 . S
C734 H724 0.930 . S
C734 C732 1.419 . S
C734 C735 1.362 . S
C735 H725 0.930 . S
C735 C728 1.409 . S
C735 C734 1.362 . S
H736 C742 0.930 . S
H737 C745 0.930 . S
H738 C746 0.930 . S
H739 C747 0.930 . S
H740 C750 0.930 . S
H741 C751 0.930 . S
C742 H736 0.930 . S
C742 C743 1.355 . S
C742 C744 1.415 . S
C743 C742 1.355 . S
C743 C745 1.419 . S
C744 C742 1.415 . S
C744 C749 1.425 . S
C744 C751 1.409 . S
C745 H737 0.930 . S
C745 C743 1.419 . S
C745 C746 1.362 . S
C746 H738 0.930 . S
C746 C745 1.362 . S
C746 C749 1.409 . S
C747 H739 0.930 . S
C747 C748 1.355 . S
C747 C749 1.415 . S
C748 C747 1.355 . S
C748 C750 1.419 . S
C749 C744 1.425 . S
C749 C746 1.409 . S
C749 C747 1.415 . S
C750 H740 0.930 . S
C750 C748 1.419 . S
C750 C751 1.362 . S
C751 H741 0.930 . S
C751 C744 1.409 . S
C751 C750 1.362 . S
H752 C758 0.930 . S
H753 C761 0.930 . S
H754 C762 0.930 . S
H755 C763 0.930 . S
H756 C766 0.930 . S
H757 C767 0.930 . S
C758 H752 0.930 . S
C758 C759 1.355 . S
C758 C760 1.415 . S
C759 C758 1.355 . S
C759 C761 1.419 . S
C760 C758 1.415 . S
C760 C765 1.425 . S
C760 C767 1.409 . S
C761 H753 0.930 . S
C761 C759 1.419 . S
C761 C762 1.362 . S
C762 H754 0.930 . S
C762 C761 1.362 . S
C762 C765 1.409 . S
C763 H755 0.930 . S
C763 C764 1.355 . S
C763 C765 1.415 . S
C764 C763 1.355 . S
C764 C766 1.419 . S
C765 C760 1.425 . S
C765 C762 1.409 . S
C765 C763 1.415 . S
C766 H756 0.930 . S
C766 C764 1.419 . S
C766 C767 1.362 . S
C767 H757 0.930 . S
C767 C760 1.409 . S
C767 C766 1.362 . S
H768 C774 0.930 . S
H769 C777 0.930 . S
H770 C778 0.930 . S
H771 C779 0.930 . S
H772 C782 0.930 1_556 S
H773 C783 0.930 . S
C774 H768 0.930 . S
C774 C775 1.355 . S
C774 C776 1.415 . S
C775 C774 1.355 . S
C775 C777 1.419 . S
C776 C774 1.415 . S
C776 C781 1.425 . S
C776 C783 1.409 . S
C777 H769 0.930 . S
C777 C775 1.419 . S
C777 C778 1.362 . S
C778 H770 0.930 . S
C778 C777 1.362 . S
C778 C781 1.409 . S
C779 H771 0.930 . S
C779 C780 1.355 . S
C779 C781 1.415 . S
C780 C779 1.355 . S
C780 C782 1.419 . S
C781 C776 1.425 . S
C781 C778 1.409 . S
C781 C779 1.415 . S
C782 H772 0.930 1_554 S
C782 C780 1.419 . S
C782 C783 1.362 . S
C783 H773 0.930 . S
C783 C776 1.409 . S
C783 C782 1.362 . S
H784 C790 0.930 . S
H785 C793 0.930 . S
H786 C794 0.930 . S
H787 C795 0.930 . S
H788 C798 0.930 . S
H789 C799 0.930 . S
C790 H784 0.930 . S
C790 C791 1.355 . S
C790 C792 1.415 . S
C791 C790 1.355 . S
C791 C793 1.419 . S
C792 C790 1.415 . S
C792 C797 1.425 . S
C792 C799 1.409 . S
C793 H785 0.930 . S
C793 C791 1.419 . S
C793 C794 1.362 . S
C794 H786 0.930 . S
C794 C793 1.362 . S
C794 C797 1.409 . S
C795 H787 0.930 . S
C795 C796 1.355 . S
C795 C797 1.415 . S
C796 C795 1.355 . S
C796 C798 1.419 . S
C797 C792 1.425 . S
C797 C794 1.409 . S
C797 C795 1.415 . S
C798 H788 0.930 . S
C798 C796 1.419 . S
C798 C799 1.362 . S
C799 H789 0.930 . S
C799 C792 1.409 . S
C799 C798 1.362 . S
H800 C806 0.930 . S
H801 C809 0.930 . S
H802 C810 0.930 . S
H803 C811 0.930 . S
H804 C814 0.930 . S
H805 C815 0.930 . S
C806 H800 0.930 . S
C806 C807 1.355 . S
C806 C808 1.415 . S
C807 C806 1.355 . S
C807 C809 1.419 . S
C808 C806 1.415 . S
C808 C813 1.425 . S
C808 C815 1.409 . S
C809 H801 0.930 . S
C809 C807 1.419 . S
C809 C810 1.362 . S
C810 H802 0.930 . S
C810 C809 1.362 . S
C810 C813 1.409 . S
C811 H803 0.930 . S
C811 C812 1.355 . S
C811 C813 1.415 . S
C812 C811 1.355 . S
C812 C814 1.419 . S
C813 C808 1.425 . S
C813 C810 1.409 . S
C813 C811 1.415 . S
C814 H804 0.930 . S
C814 C812 1.419 . S
C814 C815 1.362 . S
C815 H805 0.930 . S
C815 C808 1.409 . S
C815 C814 1.362 . S
H816 C822 0.930 . S
H817 C825 0.930 . S
H818 C826 0.930 . S
H819 C827 0.930 . S
H820 C830 0.930 . S
H821 C831 0.930 . S
C822 H816 0.930 . S
C822 C823 1.355 . S
C822 C824 1.415 . S
C823 C822 1.355 . S
C823 C825 1.419 . S
C824 C822 1.415 . S
C824 C829 1.425 . S
C824 C831 1.409 . S
C825 H817 0.930 . S
C825 C823 1.419 . S
C825 C826 1.362 . S
C826 H818 0.930 . S
C826 C825 1.362 . S
C826 C829 1.409 . S
C827 H819 0.930 . S
C827 C828 1.355 . S
C827 C829 1.415 . S
C828 C827 1.355 . S
C828 C830 1.419 . S
C829 C824 1.425 . S
C829 C826 1.409 . S
C829 C827 1.415 . S
C830 H820 0.930 . S
C830 C828 1.419 . S
C830 C831 1.362 . S
C831 H821 0.930 . S
C831 C824 1.409 . S
C831 C830 1.362 . S
H832 C838 0.930 . S
H833 C841 0.930 . S
H834 C842 0.930 . S
H835 C843 0.930 . S
H836 C846 0.930 . S
H837 C847 0.930 . S
C838 H832 0.930 . S
C838 C839 1.355 . S
C838 C840 1.415 . S
C839 C838 1.355 . S
C839 C841 1.419 . S
C840 C838 1.415 . S
C840 C845 1.425 . S
C840 C847 1.409 . S
C841 H833 0.930 . S
C841 C839 1.419 . S
C841 C842 1.362 . S
C842 H834 0.930 . S
C842 C841 1.362 . S
C842 C845 1.409 . S
C843 H835 0.930 . S
C843 C844 1.355 . S
C843 C845 1.415 . S
C844 C843 1.355 . S
C844 C846 1.419 . S
C845 C840 1.425 . S
C845 C842 1.409 . S
C845 C843 1.415 . S
C846 H836 0.930 . S
C846 C844 1.419 . S
C846 C847 1.362 . S
C847 H837 0.930 . S
C847 C840 1.409 . S
C847 C846 1.362 . S
H848 C854 0.930 1_554 S
H849 C857 0.930 . S
H850 C858 0.930 . S
H851 C859 0.930 1_556 S
H852 C862 0.930 . S
H853 C863 0.930 . S
C854 H848 0.930 1_556 S
C854 C855 1.355 . S
C854 C856 1.415 1_556 S
C855 C854 1.355 . S
C855 C857 1.419 . S
C856 C854 1.415 1_554 S
C856 C861 1.425 1_654 S
C856 C863 1.409 1_655 S
C857 H849 0.930 . S
C857 C855 1.419 . S
C857 C858 1.362 . S
C858 H850 0.930 . S
C858 C857 1.362 . S
C858 C861 1.409 1_655 S
C859 H851 0.930 1_554 S
C859 C860 1.355 . S
C859 C861 1.415 1_554 S
C860 C859 1.355 . S
C860 C862 1.419 . S
C861 C856 1.425 1_456 S
C861 C858 1.409 1_455 S
C861 C859 1.415 1_556 S
C862 H852 0.930 . S
C862 C860 1.419 . S
C862 C863 1.362 . S
C863 H853 0.930 . S
C863 C856 1.409 1_455 S
C863 C862 1.362 . S
H864 C870 0.930 . S
H865 C873 0.930 . S
H866 C874 0.930 . S
H867 C875 0.930 . S
H868 C878 0.930 . S
H869 C879 0.930 . S
C870 H864 0.930 . S
C870 C871 1.355 . S
C870 C872 1.415 . S
C871 C870 1.355 . S
C871 C873 1.419 . S
C872 C870 1.415 . S
C872 C877 1.425 . S
C872 C879 1.409 . S
C873 H865 0.930 . S
C873 C871 1.419 . S
C873 C874 1.362 . S
C874 H866 0.930 . S
C874 C873 1.362 . S
C874 C877 1.409 . S
C875 H867 0.930 . S
C875 C876 1.355 . S
C875 C877 1.415 . S
C876 C875 1.355 . S
C876 C878 1.419 . S
C877 C872 1.425 . S
C877 C874 1.409 . S
C877 C875 1.415 . S
C878 H868 0.930 . S
C878 C876 1.419 . S
C878 C879 1.362 . S
C879 H869 0.930 . S
C879 C872 1.409 . S
C879 C878 1.362 . S
H880 C886 0.930 . S
H881 C889 0.930 . S
H882 C890 0.930 . S
H883 C891 0.930 . S
H884 C894 0.930 . S
H885 C895 0.930 . S
C886 H880 0.930 . S
C886 C887 1.355 . S
C886 C888 1.415 . S
C887 C886 1.355 . S
C887 C889 1.419 . S
C888 C886 1.415 . S
C888 C893 1.425 . S
C888 C895 1.409 . S
C889 H881 0.930 . S
C889 C887 1.419 . S
C889 C890 1.362 . S
C890 H882 0.930 . S
C890 C889 1.362 . S
C890 C893 1.409 . S
C891 H883 0.930 . S
C891 C892 1.355 . S
C891 C893 1.415 . S
C892 C891 1.355 . S
C892 C894 1.419 . S
C893 C888 1.425 . S
C893 C890 1.409 . S
C893 C891 1.415 . S
C894 H884 0.930 . S
C894 C892 1.419 . S
C894 C895 1.362 . S
C895 H885 0.930 . S
C895 C888 1.409 . S
C895 C894 1.362 . S
H896 C902 0.930 1_556 S
H897 C905 0.930 . S
H898 C906 0.930 . S
H899 C907 0.930 1_554 S
H900 C910 0.930 . S
H901 C911 0.930 . S
C902 H896 0.930 1_554 S
C902 C903 1.355 . S
C902 C904 1.415 1_554 S
C903 C902 1.355 . S
C903 C905 1.419 . S
C904 C902 1.415 1_556 S
C904 C909 1.425 1_666 S
C904 C911 1.409 1_565 S
C905 H897 0.930 . S
C905 C903 1.419 . S
C905 C906 1.362 1_655 S
C906 H898 0.930 . S
C906 C905 1.362 1_455 S
C906 C909 1.409 1_565 S
C907 H899 0.930 1_556 S
C907 C908 1.355 . S
C907 C909 1.415 1_556 S
C908 C907 1.355 . S
C908 C910 1.419 . S
C909 C904 1.425 1_444 S
C909 C906 1.409 1_545 S
C909 C907 1.415 1_554 S
C910 H900 0.930 . S
C910 C908 1.419 . S
C910 C911 1.362 1_455 S
C911 H901 0.930 . S
C911 C904 1.409 1_545 S
C911 C910 1.362 1_655 S
H912 C918 0.930 1_545 S
H913 C921 0.930 . S
H914 C922 0.930 . S
H915 C923 0.930 1_565 S
H916 C926 0.930 . S
H917 C927 0.930 . S
C918 H912 0.930 1_565 S
C918 C919 1.355 . S
C918 C920 1.415 1_565 S
C919 C918 1.355 . S
C919 C921 1.419 . S
C920 C918 1.415 1_545 S
C920 C925 1.425 1_545 S
C920 C927 1.409 . S
C921 H913 0.930 . S
C921 C919 1.419 . S
C921 C922 1.362 . S
C922 H914 0.930 . S
C922 C921 1.362 . S
C922 C925 1.409 . S
C923 H915 0.930 1_545 S
C923 C924 1.355 . S
C923 C925 1.415 1_545 S
C924 C923 1.355 . S
C924 C926 1.419 . S
C925 C920 1.425 1_565 S
C925 C922 1.409 . S
C925 C923 1.415 1_565 S
C926 H916 0.930 . S
C926 C924 1.419 . S
C926 C927 1.362 . S
C927 H917 0.930 . S
C927 C920 1.409 . S
C927 C926 1.362 . S
H928 C934 0.930 . S
H929 C937 0.930 . S
H930 C938 0.930 . S
H931 C939 0.930 . S
H932 C942 0.930 . S
H933 C943 0.930 1_554 S
C934 H928 0.930 . S
C934 C935 1.355 . S
C934 C936 1.415 . S
C935 C934 1.355 . S
C935 C937 1.419 . S
C936 C934 1.415 . S
C936 C941 1.425 . S
C936 C943 1.409 . S
C937 H929 0.930 . S
C937 C935 1.419 . S
C937 C938 1.362 . S
C938 H930 0.930 . S
C938 C937 1.362 . S
C938 C941 1.409 . S
C939 H931 0.930 . S
C939 C940 1.355 . S
C939 C941 1.415 . S
C940 C939 1.355 . S
C940 C942 1.419 1_556 S
C941 C936 1.425 . S
C941 C938 1.409 . S
C941 C939 1.415 . S
C942 H932 0.930 . S
C942 C940 1.419 1_554 S
C942 C943 1.362 1_554 S
C943 H933 0.930 1_556 S
C943 C936 1.409 . S
C943 C942 1.362 1_556 S
H944 C950 0.930 . S
H945 C953 0.930 . S
H946 C954 0.930 . S
H947 C955 0.930 . S
H948 C958 0.930 . S
H949 C959 0.930 . S
C950 H944 0.930 . S
C950 C951 1.355 . S
C950 C952 1.415 . S
C951 C950 1.355 . S
C951 C953 1.419 . S
C952 C950 1.415 . S
C952 C957 1.425 . S
C952 C959 1.409 . S
C953 H945 0.930 . S
C953 C951 1.419 . S
C953 C954 1.362 . S
C954 H946 0.930 . S
C954 C953 1.362 . S
C954 C957 1.409 . S
C955 H947 0.930 . S
C955 C956 1.355 . S
C955 C957 1.415 . S
C956 C955 1.355 . S
C956 C958 1.419 . S
C957 C952 1.425 . S
C957 C954 1.409 . S
C957 C955 1.415 . S
C958 H948 0.930 . S
C958 C956 1.419 . S
C958 C959 1.362 . S
C959 H949 0.930 . S
C959 C952 1.409 . S
C959 C958 1.362 . S
H960 C966 0.930 . S
H961 C969 0.930 . S
H962 C970 0.930 . S
H963 C971 0.930 . S
H964 C974 0.930 . S
H965 C975 0.930 . S
C966 H960 0.930 . S
C966 C967 1.355 . S
C966 C968 1.415 . S
C967 C966 1.355 . S
C967 C969 1.419 . S
C968 C966 1.415 . S
C968 C973 1.425 . S
C968 C975 1.409 . S
C969 H961 0.930 . S
C969 C967 1.419 . S
C969 C970 1.362 . S
C970 H962 0.930 . S
C970 C969 1.362 . S
C970 C973 1.409 . S
C971 H963 0.930 . S
C971 C972 1.355 . S
C971 C973 1.415 . S
C972 C971 1.355 . S
C972 C974 1.419 . S
C973 C968 1.425 . S
C973 C970 1.409 . S
C973 C971 1.415 . S
C974 H964 0.930 . S
C974 C972 1.419 . S
C974 C975 1.362 . S
C975 H965 0.930 . S
C975 C968 1.409 . S
C975 C974 1.362 . S
H976 C982 0.930 . S
H977 C985 0.930 . S
H978 C986 0.930 . S
H979 C987 0.930 . S
H980 C990 0.930 . S
H981 C991 0.930 . S
C982 H976 0.930 . S
C982 C983 1.355 . S
C982 C984 1.415 . S
C983 C982 1.355 . S
C983 C985 1.419 . S
C984 C982 1.415 . S
C984 C989 1.425 . S
C984 C991 1.409 . S
C985 H977 0.930 . S
C985 C983 1.419 . S
C985 C986 1.362 . S
C986 H978 0.930 . S
C986 C985 1.362 . S
C986 C989 1.409 . S
C987 H979 0.930 . S
C987 C988 1.355 . S
C987 C989 1.415 . S
C988 C987 1.355 . S
C988 C990 1.419 . S
C989 C984 1.425 . S
C989 C986 1.409 . S
C989 C987 1.415 . S
C990 H980 0.930 . S
C990 C988 1.419 . S
C990 C991 1.362 . S
C991 H981 0.930 . S
C991 C984 1.409 . S
C991 C990 1.362 . S
H992 C998 0.930 . S
H993 C1001 0.930 . S
H994 C1002 0.930 . S
H995 C1003 0.930 1_556 S
H996 C1006 0.930 . S
H997 C1007 0.930 . S
C998 H992 0.930 . S
C998 C999 1.355 1_554 S
C998 C1000 1.415 . S
C999 C998 1.355 1_556 S
C999 C1001 1.419 . S
C1000 C998 1.415 . S
C1000 C1005 1.425 . S
C1000 C1007 1.409 . S
C1001 H993 0.930 . S
C1001 C999 1.419 . S
C1001 C1002 1.362 . S
C1002 H994 0.930 . S
C1002 C1001 1.362 . S
C1002 C1005 1.409 1_556 S
C1003 H995 0.930 1_554 S
C1003 C1004 1.355 . S
C1003 C1005 1.415 . S
C1004 C1003 1.355 . S
C1004 C1006 1.419 . S
C1005 C1000 1.425 . S
C1005 C1002 1.409 1_554 S
C1005 C1003 1.415 . S
C1006 H996 0.930 . S
C1006 C1004 1.419 . S
C1006 C1007 1.362 . S
C1007 H997 0.930 . S
C1007 C1000 1.409 . S
C1007 C1006 1.362 . S
H1008 C1014 0.930 . S
H1009 C1017 0.930 . S
H1010 C1018 0.930 . S
H1011 C1019 0.930 . S
H1012 C1022 0.930 . S
H1013 C1023 0.930 . S
C1014 H1008 0.930 . S
C1014 C1015 1.355 . S
C1014 C1016 1.415 . S
C1015 C1014 1.355 . S
C1015 C1017 1.419 . S
C1016 C1014 1.415 . S
C1016 C1021 1.425 . S
C1016 C1023 1.409 . S
C1017 H1009 0.930 . S
C1017 C1015 1.419 . S
C1017 C1018 1.362 . S
C1018 H1010 0.930 . S
C1018 C1017 1.362 . S
C1018 C1021 1.409 . S
C1019 H1011 0.930 . S
C1019 C1020 1.355 . S
C1019 C1021 1.415 . S
C1020 C1019 1.355 . S
C1020 C1022 1.419 . S
C1021 C1016 1.425 . S
C1021 C1018 1.409 . S
C1021 C1019 1.415 . S
C1022 H1012 0.930 . S
C1022 C1020 1.419 . S
C1022 C1023 1.362 . S
C1023 H1013 0.930 . S
C1023 C1016 1.409 . S
C1023 C1022 1.362 . S
H1024 C1030 0.930 . S
H1025 C1033 0.930 . S
H1026 C1034 0.930 . S
H1027 C1035 0.930 . S
H1028 C1038 0.930 . S
H1029 C1039 0.930 . S
C1030 H1024 0.930 . S
C1030 C1031 1.355 . S
C1030 C1032 1.415 . S
C1031 C1030 1.355 . S
C1031 C1033 1.419 . S
C1032 C1030 1.415 . S
C1032 C1037 1.425 . S
C1032 C1039 1.409 . S
C1033 H1025 0.930 . S
C1033 C1031 1.419 . S
C1033 C1034 1.362 . S
C1034 H1026 0.930 . S
C1034 C1033 1.362 . S
C1034 C1037 1.409 . S
C1035 H1027 0.930 . S
C1035 C1036 1.355 . S
C1035 C1037 1.415 . S
C1036 C1035 1.355 . S
C1036 C1038 1.419 . S
C1037 C1032 1.425 . S
C1037 C1034 1.409 . S
C1037 C1035 1.415 . S
C1038 H1028 0.930 . S
C1038 C1036 1.419 . S
C1038 C1039 1.362 . S
C1039 H1029 0.930 . S
C1039 C1032 1.409 . S
C1039 C1038 1.362 . S
H1040 C1046 0.930 . S
H1041 C1049 0.930 . S
H1042 C1050 0.930 . S
H1043 C1051 0.930 . S
H1044 C1054 0.930 . S
H1045 C1055 0.930 . S
C1046 H1040 0.930 . S
C1046 C1047 1.355 . S
C1046 C1048 1.415 . S
C1047 C1046 1.355 . S
C1047 C1049 1.419 . S
C1048 C1046 1.415 . S
C1048 C1053 1.425 . S
C1048 C1055 1.409 . S
C1049 H1041 0.930 . S
C1049 C1047 1.419 . S
C1049 C1050 1.362 . S
C1050 H1042 0.930 . S
C1050 C1049 1.362 . S
C1050 C1053 1.409 . S
C1051 H1043 0.930 . S
C1051 C1052 1.355 . S
C1051 C1053 1.415 . S
C1052 C1051 1.355 . S
C1052 C1054 1.419 . S
C1053 C1048 1.425 . S
C1053 C1050 1.409 . S
C1053 C1051 1.415 . S
C1054 H1044 0.930 . S
C1054 C1052 1.419 . S
C1054 C1055 1.362 . S
C1055 H1045 0.930 . S
C1055 C1048 1.409 . S
C1055 C1054 1.362 . S
H1056 C1062 0.930 . S
H1057 C1065 0.930 . S
H1058 C1066 0.930 . S
H1059 C1067 0.930 . S
H1060 C1070 0.930 . S
H1061 C1071 0.930 . S
C1062 H1056 0.930 . S
C1062 C1063 1.355 . S
C1062 C1064 1.415 . S
C1063 C1062 1.355 . S
C1063 C1065 1.419 . S
C1064 C1062 1.415 . S
C1064 C1069 1.425 . S
C1064 C1071 1.409 . S
C1065 H1057 0.930 . S
C1065 C1063 1.419 . S
C1065 C1066 1.362 . S
C1066 H1058 0.930 . S
C1066 C1065 1.362 . S
C1066 C1069 1.409 . S
C1067 H1059 0.930 . S
C1067 C1068 1.355 . S
C1067 C1069 1.415 . S
C1068 C1067 1.355 . S
C1068 C1070 1.419 . S
C1069 C1064 1.425 . S
C1069 C1066 1.409 . S
C1069 C1067 1.415 . S
C1070 H1060 0.930 . S
C1070 C1068 1.419 . S
C1070 C1071 1.362 . S
C1071 H1061 0.930 . S
C1071 C1064 1.409 . S
C1071 C1070 1.362 . S
H1072 C1078 0.930 1_545 S
H1073 C1081 0.930 . S
H1074 C1082 0.930 . S
H1075 C1083 0.930 . S
H1076 C1086 0.930 . S
H1077 C1087 0.930 . S
C1078 H1072 0.930 1_565 S
C1078 C1079 1.355 . S
C1078 C1080 1.415 . S
C1079 C1078 1.355 . S
C1079 C1081 1.419 . S
C1080 C1078 1.415 . S
C1080 C1085 1.425 . S
C1080 C1087 1.409 . S
C1081 H1073 0.930 . S
C1081 C1079 1.419 . S
C1081 C1082 1.362 . S
C1082 H1074 0.930 . S
C1082 C1081 1.362 . S
C1082 C1085 1.409 . S
C1083 H1075 0.930 . S
C1083 C1084 1.355 . S
C1083 C1085 1.415 . S
C1084 C1083 1.355 . S
C1084 C1086 1.419 . S
C1085 C1080 1.425 . S
C1085 C1082 1.409 . S
C1085 C1083 1.415 . S
C1086 H1076 0.930 . S
C1086 C1084 1.419 . S
C1086 C1087 1.362 . S
C1087 H1077 0.930 . S
C1087 C1080 1.409 . S
C1087 C1086 1.362 . S
H1088 C1094 0.930 . S
H1089 C1097 0.930 . S
H1090 C1098 0.930 . S
H1091 C1099 0.930 . S
H1092 C1102 0.930 . S
H1093 C1103 0.930 . S
C1094 H1088 0.930 . S
C1094 C1095 1.355 . S
C1094 C1096 1.415 . S
C1095 C1094 1.355 . S
C1095 C1097 1.419 . S
C1096 C1094 1.415 . S
C1096 C1101 1.425 . S
C1096 C1103 1.409 . S
C1097 H1089 0.930 . S
C1097 C1095 1.419 . S
C1097 C1098 1.362 . S
C1098 H1090 0.930 . S
C1098 C1097 1.362 . S
C1098 C1101 1.409 . S
C1099 H1091 0.930 . S
C1099 C1100 1.355 . S
C1099 C1101 1.415 . S
C1100 C1099 1.355 . S
C1100 C1102 1.419 . S
C1101 C1096 1.425 . S
C1101 C1098 1.409 . S
C1101 C1099 1.415 . S
C1102 H1092 0.930 . S
C1102 C1100 1.419 . S
C1102 C1103 1.362 . S
C1103 H1093 0.930 . S
C1103 C1096 1.409 . S
C1103 C1102 1.362 . S
H1104 C1110 0.930 1_565 S
H1105 C1113 0.930 . S
H1106 C1114 0.930 . S
H1107 C1115 0.930 . S
H1108 C1118 0.930 . S
H1109 C1119 0.930 . S
C1110 H1104 0.930 1_545 S
C1110 C1111 1.355 . S
C1110 C1112 1.415 . S
C1111 C1110 1.355 . S
C1111 C1113 1.419 . S
C1112 C1110 1.415 . S
C1112 C1117 1.425 . S
C1112 C1119 1.409 . S
C1113 H1105 0.930 . S
C1113 C1111 1.419 . S
C1113 C1114 1.362 . S
C1114 H1106 0.930 . S
C1114 C1113 1.362 . S
C1114 C1117 1.409 . S
C1115 H1107 0.930 . S
C1115 C1116 1.355 . S
C1115 C1117 1.415 . S
C1116 C1115 1.355 . S
C1116 C1118 1.419 . S
C1117 C1112 1.425 . S
C1117 C1114 1.409 . S
C1117 C1115 1.415 . S
C1118 H1108 0.930 . S
C1118 C1116 1.419 . S
C1118 C1119 1.362 . S
C1119 H1109 0.930 . S
C1119 C1112 1.409 . S
C1119 C1118 1.362 . S
H1120 C1126 0.930 . S
H1121 C1129 0.930 . S
H1122 C1130 0.930 . S
H1123 C1131 0.930 . S
H1124 C1134 0.930 . S
H1125 C1135 0.930 . S
C1126 H1120 0.930 . S
C1126 C1127 1.355 . S
C1126 C1128 1.415 . S
C1127 C1126 1.355 . S
C1127 C1129 1.419 . S
C1128 C1126 1.415 . S
C1128 C1133 1.425 . S
C1128 C1135 1.409 . S
C1129 H1121 0.930 . S
C1129 C1127 1.419 . S
C1129 C1130 1.362 . S
C1130 H1122 0.930 . S
C1130 C1129 1.362 . S
C1130 C1133 1.409 . S
C1131 H1123 0.930 . S
C1131 C1132 1.355 . S
C1131 C1133 1.415 . S
C1132 C1131 1.355 . S
C1132 C1134 1.419 . S
C1133 C1128 1.425 . S
C1133 C1130 1.409 . S
C1133 C1131 1.415 . S
C1134 H1124 0.930 . S
C1134 C1132 1.419 . S
C1134 C1135 1.362 . S
C1135 H1125 0.930 . S
C1135 C1128 1.409 . S
C1135 C1134 1.362 . S
H1136 C1142 0.930 . S
H1137 C1145 0.930 . S
H1138 C1146 0.930 . S
H1139 C1147 0.930 1_565 S
H1140 C1150 0.930 . S
H1141 C1151 0.930 . S
C1142 H1136 0.930 . S
C1142 C1143 1.355 . S
C1142 C1144 1.415 . S
C1143 C1142 1.355 . S
C1143 C1145 1.419 . S
C1144 C1142 1.415 . S
C1144 C1149 1.425 . S
C1144 C1151 1.409 . S
C1145 H1137 0.930 . S
C1145 C1143 1.419 . S
C1145 C1146 1.362 . S
C1146 H1138 0.930 . S
C1146 C1145 1.362 . S
C1146 C1149 1.409 . S
C1147 H1139 0.930 1_545 S
C1147 C1148 1.355 . S
C1147 C1149 1.415 . S
C1148 C1147 1.355 . S
C1148 C1150 1.419 . S
C1149 C1144 1.425 . S
C1149 C1146 1.409 . S
C1149 C1147 1.415 . S
C1150 H1140 0.930 . S
C1150 C1148 1.419 . S
C1150 C1151 1.362 . S
C1151 H1141 0.930 . S
C1151 C1144 1.409 . S
C1151 C1150 1.362 . S
H1152 C1158 0.930 . S
H1153 C1161 0.930 1_556 S
H1154 C1162 0.930 . S
H1155 C1163 0.930 . S
H1156 C1166 0.930 . S
H1157 C1167 0.930 . S
C1158 H1152 0.930 . S
C1158 C1159 1.355 . S
C1158 C1160 1.415 . S
C1159 C1158 1.355 . S
C1159 C1161 1.419 . S
C1160 C1158 1.415 . S
C1160 C1165 1.425 . S
C1160 C1167 1.409 . S
C1161 H1153 0.930 1_554 S
C1161 C1159 1.419 . S
C1161 C1162 1.362 1_554 S
C1162 H1154 0.930 . S
C1162 C1161 1.362 1_556 S
C1162 C1165 1.409 1_556 S
C1163 H1155 0.930 . S
C1163 C1164 1.355 1_556 S
C1163 C1165 1.415 1_556 S
C1164 C1163 1.355 1_554 S
C1164 C1166 1.419 . S
C1165 C1160 1.425 . S
C1165 C1162 1.409 1_554 S
C1165 C1163 1.415 1_554 S
C1166 H1156 0.930 . S
C1166 C1164 1.419 . S
C1166 C1167 1.362 . S
C1167 H1157 0.930 . S
C1167 C1160 1.409 . S
C1167 C1166 1.362 . S
H1168 C1174 0.930 1_545 S
H1169 C1177 0.930 . S
H1170 C1178 0.930 . S
H1171 C1179 0.930 . S
H1172 C1182 0.930 . S
H1173 C1183 0.930 . S
C1174 H1168 0.930 1_565 S
C1174 C1175 1.355 . S
C1174 C1176 1.415 . S
C1175 C1174 1.355 . S
C1175 C1177 1.419 . S
C1176 C1174 1.415 . S
C1176 C1181 1.425 . S
C1176 C1183 1.409 . S
C1177 H1169 0.930 . S
C1177 C1175 1.419 . S
C1177 C1178 1.362 . S
C1178 H1170 0.930 . S
C1178 C1177 1.362 . S
C1178 C1181 1.409 . S
C1179 H1171 0.930 . S
C1179 C1180 1.355 . S
C1179 C1181 1.415 . S
C1180 C1179 1.355 . S
C1180 C1182 1.419 . S
C1181 C1176 1.425 . S
C1181 C1178 1.409 . S
C1181 C1179 1.415 . S
C1182 H1172 0.930 . S
C1182 C1180 1.419 . S
C1182 C1183 1.362 . S
C1183 H1173 0.930 . S
C1183 C1176 1.409 . S
C1183 C1182 1.362 . S
C551 C519 1.403 . S
C556 C20 1.447 . S
C567 C54 1.413 . S
C572 C145 1.333 . S
C583 C88 1.441 . S
C588 C451 1.336 . S
C599 C122 1.413 . S
C604 C213 1.324 . S
C615 C156 1.448 . S
C620 C383 1.402 . S
C631 C9 1.307 . S
C636 C190 1.415 . S
C647 C315 1.305 . S
C652 C224 1.417 . S
C663 C258 1.415 . S
C668 C77 1.307 . S
C679 C292 1.425 . S
C684 C247 1.307 . S
C695 C326 1.430 . S
C700 C417 1.313 . S
C711 C179 1.403 . S
C716 C360 1.442 . S
C727 C394 1.421 . S
C732 C485 1.367 . S
C743 C428 1.449 . S
C748 C111 1.365 . S
C759 C462 1.414 . S
C764 C281 1.341 . S
C775 C43 1.394 . S
C780 C496 1.434 . S
C791 C530 1.431 . S
C796 C349 1.315 . S
C807 C2 2.233 . S
C812 C410 2.233 . S
C823 C172 2.215 . S
C828 C36 2.215 . S
C839 C70 2.235 . S
C844 C478 2.235 . S
C855 C104 2.215 . S
C860 C240 2.215 . S
C871 C274 2.217 . S
C876 C138 2.217 . S
C887 C342 2.217 . S
C892 C206 2.217 . S
C903 C444 2.222 . S
C908 C308 2.222 . S
C919 C376 2.223 . S
C924 C512 2.223 . S
C935 C311 1.241 . S
C940 C33 1.346 1_556 S
C951 C67 1.345 . S
C956 C345 1.238 . S
C967 C101 1.369 . S
C972 C379 1.335 . S
C983 C277 1.332 . S
C988 C135 1.369 . S
C999 C169 1.352 . S
C1004 C447 1.273 . S
C1015 C203 1.346 . S
C1020 C481 1.245 . S
C1031 C237 1.365 . S
C1036 C515 1.324 . S
C1047 C271 1.345 . S
C1052 C413 1.239 . S
C1063 C39 1.249 . S
C1068 C305 1.349 . S
C1079 C339 1.365 1_565 S
C1084 C73 1.323 . S
C1095 C373 1.345 1_556 S
C1100 C107 1.238 . S
C1111 C407 1.368 1_545 S
C1116 C5 1.334 . S
C1127 C441 1.347 . S
C1132 C175 1.247 . S
C1143 C209 1.334 . S
C1148 C475 1.369 1_545 S
C1159 C243 1.269 . S
C1164 C509 1.354 1_554 S
C1175 C543 1.366 1_565 S
C1180 C141 1.327 . S
