# Generated by pormake.
# Topology dia, (4)-cn, num edge types: 1
# Building blocks:
#     Node 0, Type 0, BuildingBlock: QUQFOY_clean_sbu_1, # of connection points: 4
#     Node 1, Type 0, BuildingBlock: QUQFOY_clean_sbu_1, # of connection points: 4
#     Node 2, Type 0, BuildingBlock: QUQFOY_clean_sbu_1, # of connection points: 4
#     Node 3, Type 0, BuildingBlock: QUQFOY_clean_sbu_1, # of connection points: 4
#     Node 4, Type 0, BuildingBlock: QUQFOY_clean_sbu_1, # of connection points: 4
#     Node 5, Type 0, BuildingBlock: QUQFOY_clean_sbu_1, # of connection points: 4
#     Node 6, Type 0, BuildingBlock: QUQFOY_clean_sbu_1, # of connection points: 4
#     Node 7, Type 0, BuildingBlock: QUQFOY_clean_sbu_1, # of connection points: 4
#     Edge 8, Type (0, 0), BuildingBlock: ZUJKAS_clean_linker_0, # of connection points: 2
#     Edge 9, Type (0, 0), BuildingBlock: ZUJKAS_clean_linker_0, # of connection points: 2
#     Edge 10, Type (0, 0), BuildingBlock: ZUJKAS_clean_linker_0, # of connection points: 2
#     Edge 11, Type (0, 0), BuildingBlock: ZUJKAS_clean_linker_0, # of connection points: 2
#     Edge 12, Type (0, 0), BuildingBlock: ZUJKAS_clean_linker_0, # of connection points: 2
#     Edge 13, Type (0, 0), BuildingBlock: ZUJKAS_clean_linker_0, # of connection points: 2
#     Edge 14, Type (0, 0), BuildingBlock: ZUJKAS_clean_linker_0, # of connection points: 2
#     Edge 15, Type (0, 0), BuildingBlock: ZUJKAS_clean_linker_0, # of connection points: 2
#     Edge 16, Type (0, 0), BuildingBlock: ZUJKAS_clean_linker_0, # of connection points: 2
#     Edge 17, Type (0, 0), BuildingBlock: ZUJKAS_clean_linker_0, # of connection points: 2
#     Edge 18, Type (0, 0), BuildingBlock: ZUJKAS_clean_linker_0, # of connection points: 2
#     Edge 19, Type (0, 0), BuildingBlock: ZUJKAS_clean_linker_0, # of connection points: 2
#     Edge 20, Type (0, 0), BuildingBlock: ZUJKAS_clean_linker_0, # of connection points: 2
#     Edge 21, Type (0, 0), BuildingBlock: ZUJKAS_clean_linker_0, # of connection points: 2
#     Edge 22, Type (0, 0), BuildingBlock: ZUJKAS_clean_linker_0, # of connection points: 2
#     Edge 23, Type (0, 0), BuildingBlock: ZUJKAS_clean_linker_0, # of connection points: 2
# Relax obj value: 0.202
# Max RMSD: 0.232
# Mean RMSD: 0.232
data_MOF--net-dia--node1-QUQFOY_clean_sbu_1--edge1-ZUJKAS_clean_linker_0
_symmetry_space_group_name_H-M    P1
_symmetry_Int_Tables_number       1
_symmetry_cell_setting            triclinic
loop_
_symmetry_equiv_pos_as_xyz
'x, y, z'
_cell_length_a     44.261354
_cell_length_b     44.16265
_cell_length_c     51.973235
_cell_angle_alpha  90.069062
_cell_angle_beta   90.039944
_cell_angle_gamma 104.88644
loop_
_atom_site_label
_atom_site_type_symbol
_atom_site_fract_x
_atom_site_fract_y
_atom_site_fract_z
_atom_type_partial_charge
O0 O 0.13198 0.16747 0.60858 0.0
Cd1 Cd 0.098 0.13624 0.62936 0.0
Cd2 Cd 0.14539 0.10475 0.63008 0.0
O3 O 0.17093 0.14524 0.61331 0.0
O4 O 0.06594 0.1601 0.63461 0.0
O5 O 0.09029 0.14391 0.66684 0.0
C6 C 0.07028 0.15863 0.65902 0.0
C7 C 0.17078 0.08036 0.66009 0.0
C8 C 0.16029 0.16732 0.60465 0.0
C9 C 0.08592 0.07538 0.60107 0.0
O10 O 0.11399 0.07542 0.60614 0.0
O11 O 0.07397 0.09638 0.61016 0.0
O12 O 0.17708 0.08063 0.63592 0.0
O13 O 0.15002 0.09436 0.66751 0.0
O14 O 0.82291 0.35692 0.88555 0.0
Cd15 Cd 0.85384 0.38976 0.8635 0.0
Cd16 Cd 0.88398 0.34147 0.86288 0.0
O17 O 0.84367 0.31693 0.88044 0.0
O18 O 0.83085 0.42254 0.85799 0.0
O19 O 0.84517 0.39637 0.82602 0.0
C20 C 0.83141 0.41726 0.83366 0.0
C21 C 0.90702 0.3149 0.83271 0.0
C22 C 0.82248 0.32844 0.88967 0.0
C23 C 0.91501 0.40129 0.89093 0.0
O24 O 0.91413 0.37283 0.88634 0.0
O25 O 0.89444 0.41367 0.88169 0.0
O26 O 0.9071 0.30891 0.85693 0.0
O27 O 0.89344 0.33604 0.82535 0.0
O28 O 0.63489 0.16801 0.11275 0.0
Cd29 Cd 0.59955 0.13873 0.1334 0.0
Cd30 Cd 0.64162 0.10041 0.13171 0.0
O31 O 0.66756 0.1378 0.11095 0.0
O32 O 0.57024 0.16558 0.13904 0.0
O33 O 0.59214 0.14616 0.17103 0.0
C34 C 0.57379 0.16285 0.16342 0.0
C35 C 0.66852 0.07664 0.16107 0.0
C36 C 0.66039 0.16299 0.10503 0.0
C37 C 0.57894 0.07644 0.10611 0.0
O38 O 0.60501 0.07133 0.11215 0.0
O39 O 0.57224 0.10147 0.11323 0.0
O40 O 0.67106 0.0735 0.1366 0.0
O41 O 0.65058 0.09358 0.1691 0.0
O42 O 0.8231 0.85715 0.38326 0.0
Cd43 Cd 0.85472 0.8904 0.36209 0.0
Cd44 Cd 0.88479 0.84222 0.36174 0.0
O45 O 0.84394 0.81721 0.37827 0.0
O46 O 0.83185 0.92327 0.35657 0.0
O47 O 0.847 0.89777 0.32455 0.0
C48 C 0.83298 0.91846 0.33221 0.0
C49 C 0.90871 0.81662 0.33148 0.0
C50 C 0.82249 0.82858 0.38715 0.0
C51 C 0.9148 0.9014 0.391 0.0
O52 O 0.91408 0.87303 0.38617 0.0
O53 O 0.89463 0.91399 0.38134 0.0
O54 O 0.90823 0.80996 0.3556 0.0
O55 O 0.89522 0.83789 0.32428 0.0
O56 O 0.13286 0.66731 0.10758 0.0
Cd57 Cd 0.09891 0.63635 0.12859 0.0
Cd58 Cd 0.14612 0.60492 0.1299 0.0
O59 O 0.17178 0.64517 0.11286 0.0
O60 O 0.06695 0.66033 0.13387 0.0
O61 O 0.0914 0.64418 0.16606 0.0
C62 C 0.07141 0.65895 0.15827 0.0
C63 C 0.17172 0.58089 0.16007 0.0
C64 C 0.16117 0.66707 0.1038 0.0
C65 C 0.08695 0.5755 0.10044 0.0
O66 O 0.11492 0.57548 0.10586 0.0
O67 O 0.07491 0.59652 0.10935 0.0
O68 O 0.1779 0.58092 0.13588 0.0
O69 O 0.15087 0.59483 0.1674 0.0
O70 O 0.32347 0.35815 0.38501 0.0
Cd71 Cd 0.35274 0.39365 0.36453 0.0
Cd72 Cd 0.39048 0.35115 0.36544 0.0
O73 O 0.35304 0.32483 0.38585 0.0
O74 O 0.32594 0.42301 0.35895 0.0
O75 O 0.34538 0.40112 0.32693 0.0
C76 C 0.32862 0.41942 0.33456 0.0
C77 C 0.41431 0.32464 0.33583 0.0
C78 C 0.32814 0.33223 0.39217 0.0
C79 C 0.41488 0.41355 0.39172 0.0
O80 O 0.4196 0.38733 0.38545 0.0
O81 O 0.39009 0.42071 0.38472 0.0
O82 O 0.41711 0.32152 0.36026 0.0
O83 O 0.39766 0.34292 0.32796 0.0
O84 O 0.323 0.85548 0.88281 0.0
Cd85 Cd 0.35221 0.89175 0.86306 0.0
Cd86 Cd 0.39095 0.85005 0.86396 0.0
O87 O 0.35349 0.82305 0.88394 0.0
O88 O 0.32506 0.92084 0.85779 0.0
O89 O 0.34533 0.90014 0.82555 0.0
C90 C 0.32824 0.91802 0.83338 0.0
C91 C 0.41556 0.82416 0.83443 0.0
C92 C 0.32815 0.82976 0.88993 0.0
C93 C 0.41396 0.91214 0.89092 0.0
O94 O 0.41938 0.88632 0.88437 0.0
O95 O 0.38893 0.91881 0.8839 0.0
O96 O 0.41815 0.82094 0.85888 0.0
O97 O 0.39872 0.84224 0.82651 0.0
O98 O 0.63895 0.66955 0.61164 0.0
Cd99 Cd 0.60377 0.64048 0.63258 0.0
Cd100 Cd 0.64572 0.6021 0.63079 0.0
O101 O 0.67155 0.63927 0.6097 0.0
O102 O 0.57456 0.66746 0.63816 0.0
O103 O 0.59657 0.64825 0.67019 0.0
C104 C 0.57822 0.66493 0.66254 0.0
C105 C 0.67261 0.5786 0.66035 0.0
C106 C 0.66434 0.66442 0.60373 0.0
C107 C 0.58287 0.57803 0.60553 0.0
O108 O 0.60897 0.57291 0.61146 0.0
O109 O 0.57627 0.60311 0.61264 0.0
O110 O 0.67516 0.57523 0.63591 0.0
O111 O 0.6547 0.59564 0.66824 0.0
H112 H 0.33495 0.2799 0.41712 0.0
H113 H 0.30421 0.25347 0.45344 0.0
H114 H 0.24236 0.31419 0.4466 0.0
H115 H 0.27284 0.34081 0.41021 0.0
H116 H 0.296 0.28847 0.49948 0.0
H117 H 0.18342 0.22422 0.45478 0.0
H118 H 0.21922 0.23664 0.43657 0.0
H119 H 0.19819 0.26466 0.44581 0.0
C120 C 0.31442 0.28723 0.42292 0.0
C121 C 0.30646 0.31261 0.41083 0.0
C122 C 0.29697 0.27216 0.44374 0.0
C123 C 0.2711 0.28194 0.45262 0.0
C124 C 0.26211 0.30615 0.43983 0.0
H125 H 0.14472 0.2164 0.58064 0.0
H126 H 0.17309 0.24844 0.54568 0.0
C127 C 0.2796 0.32135 0.41906 0.0
C128 C 0.25518 0.26856 0.47653 0.0
H129 H 0.18631 0.22384 0.50012 0.0
C130 C 0.27202 0.27431 0.49968 0.0
C131 C 0.22384 0.25053 0.47664 0.0
C132 C 0.20504 0.24337 0.45214 0.0
C133 C 0.2583 0.26232 0.52308 0.0
C134 C 0.22716 0.24358 0.52315 0.0
C135 C 0.21016 0.23831 0.50001 0.0
C136 C 0.21226 0.22757 0.54665 0.0
C137 C 0.27717 0.27012 0.5475 0.0
C138 C 0.22527 0.20577 0.55915 0.0
C139 C 0.20927 0.18758 0.57923 0.0
C140 C 0.17971 0.19057 0.58695 0.0
C141 C 0.16741 0.21348 0.57517 0.0
C142 C 0.18352 0.23175 0.55513 0.0
H143 H 0.29595 0.29217 0.54549 0.0
H144 H 0.26214 0.27256 0.56407 0.0
H145 H 0.28847 0.251 0.55182 0.0
H146 H 0.24712 0.20171 0.55259 0.0
H147 H 0.21939 0.1701 0.58779 0.0
H148 H 0.6739 0.58178 0.71312 0.0
H149 H 0.70231 0.55557 0.74263 0.0
H150 H 0.73745 0.51363 0.67803 0.0
H151 H 0.70972 0.53997 0.64853 0.0
H152 H 0.69638 0.49178 0.74861 0.0
H153 H 0.81691 0.55216 0.71831 0.0
H154 H 0.78341 0.56623 0.7097 0.0
H155 H 0.7921 0.53436 0.69217 0.0
C156 C 0.68784 0.56713 0.70522 0.0
C157 C 0.68969 0.56312 0.67848 0.0
C158 C 0.70403 0.55217 0.72208 0.0
C159 C 0.72244 0.5331 0.71249 0.0
C160 C 0.72403 0.52883 0.68584 0.0
H161 H 0.8288 0.41284 0.78094 0.0
H162 H 0.80204 0.44069 0.75136 0.0
C163 C 0.70796 0.54378 0.66901 0.0
C164 C 0.73914 0.51672 0.73029 0.0
H165 H 0.81145 0.50758 0.74534 0.0
C166 C 0.72156 0.49539 0.74803 0.0
C167 C 0.77198 0.52137 0.7294 0.0
C168 C 0.79227 0.54499 0.71154 0.0
C169 C 0.73587 0.47816 0.7646 0.0
C170 C 0.76867 0.48272 0.76362 0.0
C171 C 0.78628 0.50404 0.74592 0.0
C172 C 0.7852 0.46616 0.78136 0.0
C173 C 0.71572 0.45478 0.78271 0.0
C174 C 0.78501 0.47172 0.80791 0.0
C175 C 0.80026 0.45598 0.82477 0.0
C176 C 0.81612 0.4344 0.81542 0.0
C177 C 0.81672 0.42923 0.78874 0.0
C178 C 0.80148 0.44511 0.77184 0.0
H179 H 0.69078 0.44848 0.77673 0.0
H180 H 0.7239 0.43305 0.78378 0.0
H181 H 0.71724 0.46511 0.80229 0.0
H182 H 0.77307 0.4883 0.81559 0.0
H183 H 0.79945 0.46066 0.84518 0.0
H184 H 0.5239 0.08264 0.0856 0.0
H185 H 0.49504 0.05326 0.04954 0.0
H186 H 0.55864 0.9939 0.04803 0.0
H187 H 0.58752 0.02287 0.08421 0.0
H188 H 0.52356 0.05015 0.00141 0.0
H189 H 0.47234 0.9315 0.04142 0.0
H190 H 0.48606 0.96564 0.06156 0.0
H191 H 0.51344 0.94672 0.04738 0.0
C192 C 0.53136 0.06287 0.07803 0.0
C193 C 0.55815 0.05523 0.08773 0.0
C194 C 0.51488 0.0462 0.05736 0.0
C195 C 0.52469 0.02142 0.0462 0.0
C196 C 0.55044 0.01269 0.05662 0.0
H197 H 0.46793 0.90391 0.91207 0.0
H198 H 0.49718 0.93268 0.94825 0.0
C199 C 0.56697 0.02936 0.07728 0.0
C200 C 0.50983 0.00664 0.02225 0.0
H201 H 0.47023 0.93689 0.99605 0.0
C202 C 0.51172 0.02542 0.00023 0.0
C203 C 0.49471 0.97436 0.02081 0.0
C204 C 0.49121 0.95337 0.04408 0.0
C205 C 0.49918 0.01267 0.97663 0.0
C206 C 0.48393 0.98041 0.9752 0.0
C207 C 0.48211 0.96161 -0.00278 0.0
C208 C 0.46876 0.96572 0.95131 0.0
C209 C 0.50286 0.03369 0.95336 0.0
C210 C 0.44355 0.97526 0.94072 0.0
C211 C 0.42686 0.95899 0.91997 0.0
C212 C 0.43491 0.93267 0.90962 0.0
C213 C 0.46108 0.92406 0.91957 0.0
C214 C 0.47777 0.94038 0.9403 0.0
H215 H 0.52229 0.05514 0.95587 0.0
H216 H 0.5073 0.02121 0.93577 0.0
H217 H 0.48099 0.04112 0.9504 0.0
H218 H 0.43591 0.99444 0.94921 0.0
H219 H 0.40678 0.9662 0.91286 0.0
H220 H 0.91177 0.82243 0.27887 0.0
H221 H 0.93898 0.79555 0.24886 0.0
H222 H 0.96891 0.74759 0.31236 0.0
H223 H 0.94201 0.77422 0.34239 0.0
H224 H 0.01728 0.77674 0.27635 0.0
H225 H 0.91207 0.70077 0.22893 0.0
H226 H 0.91392 0.7419 0.23048 0.0
H227 H 0.91028 0.71948 0.25962 0.0
C228 C 0.92406 0.80608 0.28641 0.0
C229 C 0.92464 0.8004 0.313 0.0
C230 C 0.93947 0.79067 0.26925 0.0
C231 C 0.95567 0.76938 0.27842 0.0
C232 C 0.95644 0.76385 0.30492 0.0
H233 H 0.07209 0.6577 0.21108 0.0
H234 H 0.04412 0.68426 0.24062 0.0
C235 C 0.94099 0.77908 0.32203 0.0
C236 C 0.97242 0.7532 0.26057 0.0
H237 H 0.96122 0.6988 0.21244 0.0
C238 C 0.00509 0.75966 0.26237 0.0
C239 C 0.95637 0.731 0.24241 0.0
C240 C 0.9212 0.72258 0.24024 0.0
C241 C 0.02226 0.74481 0.24617 0.0
C242 C 0.00619 0.72234 0.22814 0.0
C243 C 0.97349 0.71595 0.22634 0.0
C244 C 0.02288 0.70571 0.2105 0.0
C245 C 0.05746 0.75393 0.24811 0.0
C246 C 0.01948 0.70816 0.18382 0.0
C247 C 0.03508 0.69274 0.16697 0.0
C248 C 0.05443 0.6745 0.17644 0.0
C249 C 0.05753 0.67174 0.20319 0.0
C250 C 0.04173 0.68707 0.22008 0.0
H251 H 0.06631 0.77704 0.25766 0.0
H252 H 0.06511 0.73618 0.25974 0.0
H253 H 0.06838 0.75492 0.22879 0.0
H254 H 0.00496 0.72229 0.176 0.0
H255 H 0.03214 0.69537 0.14647 0.0
H256 H 0.33097 0.91884 0.78058 0.0
H257 H 0.30473 0.94727 0.7511 0.0
H258 H 0.26334 0.98288 0.81575 0.0
H259 H 0.28966 0.95512 0.84521 0.0
H260 H 0.24072 0.9419 0.74536 0.0
H261 H 0.30303 0.06232 0.7755 0.0
H262 H 0.31663 0.0284 0.78386 0.0
H263 H 0.28529 0.03759 0.80166 0.0
C264 C 0.3164 0.93286 0.78849 0.0
C265 C 0.31257 0.93488 0.81523 0.0
C266 C 0.30143 0.94905 0.77165 0.0
C267 C 0.28255 0.96762 0.78129 0.0
C268 C 0.27838 0.9693 0.80793 0.0
H269 H 0.16527 0.0771 0.71272 0.0
H270 H 0.19175 0.04912 0.74242 0.0
C271 C 0.29333 0.95323 0.82474 0.0
C272 C 0.26642 0.98459 0.76356 0.0
H273 H 0.25859 0.05748 0.74852 0.0
C274 C 0.24476 0.96718 0.74592 0.0
C275 C 0.27165 0.01757 0.76444 0.0
C276 C 0.29562 0.03764 0.78221 0.0
C277 C 0.22779 0.98184 0.7294 0.0
C278 C 0.23295 0.01478 0.73036 0.0
C279 C 0.25458 0.0322 0.74799 0.0
C280 C 0.2169 0.03168 0.71256 0.0
C281 C 0.20408 0.96193 0.71134 0.0
C282 C 0.2227 0.03147 0.68607 0.0
C283 C 0.20778 0.04743 0.66915 0.0
C284 C 0.18677 0.064 0.67839 0.0
C285 C 0.18123 0.06447 0.70501 0.0
C286 C 0.19633 0.04854 0.72198 0.0
H287 H 0.19742 0.93695 0.71731 0.0
H288 H 0.18266 0.97057 0.71034 0.0
H289 H 0.21423 0.96322 0.69174 0.0
H290 H 0.23892 0.01906 0.67848 0.0
H291 H 0.21268 0.04667 0.64878 0.0
H292 H 0.94307 0.46415 0.89224 0.0
H293 H 0.97666 0.49304 0.92644 0.0
H294 H 0.96747 0.4066 0.96812 0.0
H295 H 0.93623 0.37768 0.93321 0.0
H296 H 0.96419 0.50252 0.97224 0.0
H297 H 0.05722 0.44044 0.97759 0.0
H298 H 0.02926 0.43376 0.95166 0.0
H299 H 0.02006 0.41296 0.98172 0.0
C300 C 0.94902 0.45137 0.90844 0.0
C301 C 0.93754 0.41871 0.90996 0.0
C302 C 0.96804 0.46784 0.92803 0.0
C303 C 0.97523 0.45199 0.94975 0.0
C304 C 0.9635 0.41933 0.95121 0.0
H305 H 0.02384 0.5501 0.09614 0.0
H306 H -0.00372 0.51825 0.06047 0.0
C307 C 0.9454 0.4028 0.93128 0.0
C308 C 0.99285 0.46974 0.97174 0.0
H309 H 0.05036 0.4695 0.01542 0.0
C310 C 0.98337 0.49556 0.98141 0.0
C311 C 0.01818 0.46105 0.98363 0.0
C312 C 0.03195 0.43576 0.97287 0.0
C313 C -0.00184 0.51264 0.00272 0.0
C314 C 0.02197 0.50254 0.01573 0.0
C315 C 0.03171 0.47696 0.00585 0.0
C316 C 0.03829 0.51908 0.03873 0.0
C317 C 0.98863 0.54186 0.0104 0.0
C318 C 0.0711 0.52817 0.03938 0.0
C319 C 0.08681 0.545 0.06024 0.0
C320 C 0.07003 0.55373 0.08065 0.0
C321 C 0.03726 0.54386 0.0805 0.0
C322 C 0.02153 0.52607 0.05996 0.0
H323 H 0.97828 0.55171 0.99392 0.0
H324 H 0.97058 0.53596 0.02567 0.0
H325 H 0.00884 0.56026 0.01777 0.0
H326 H 0.08466 0.52303 0.02337 0.0
H327 H 0.11211 0.55252 0.05976 0.0
H328 H 0.451 0.28564 0.3477 0.0
H329 H 0.47788 0.25837 0.3182 0.0
H330 H 0.44001 0.29752 0.25352 0.0
H331 H 0.41324 0.3254 0.28301 0.0
H332 H 0.453 0.21436 0.2805 0.0
H333 H 0.53393 0.31996 0.23825 0.0
H334 H 0.51195 0.32149 0.26725 0.0
H335 H 0.49329 0.31947 0.23634 0.0
C336 C 0.44839 0.28857 0.3272 0.0
C337 C 0.43009 0.30784 0.31769 0.0
C338 C 0.46377 0.2729 0.31037 0.0
C339 C 0.4613 0.27625 0.2837 0.0
C340 C 0.44271 0.29512 0.27407 0.0
H341 H 0.53493 0.1998 0.15199 0.0
H342 H 0.50762 0.22626 0.18178 0.0
C343 C 0.4273 0.31088 0.29093 0.0
C344 C 0.47793 0.25958 0.26611 0.0
H345 H 0.53395 0.27107 0.21943 0.0
C346 C 0.47078 0.22673 0.26719 0.0
C347 C 0.50117 0.27582 0.24886 0.0
C348 C 0.51082 0.31114 0.24767 0.0
C349 C 0.48585 0.20963 0.25112 0.0
C350 C 0.50901 0.22587 0.23382 0.0
C351 C 0.51619 0.25871 0.23276 0.0
C352 C 0.52549 0.20924 0.21609 0.0
C353 C 0.47639 0.17431 0.25236 0.0
C354 C 0.54482 0.19103 0.22553 0.0
C355 C 0.56055 0.17578 0.2085 0.0
C356 C 0.55725 0.17863 0.18177 0.0
C357 C 0.53796 0.19703 0.17246 0.0
C358 C 0.52234 0.21224 0.18945 0.0
H359 H 0.45361 0.16538 0.26227 0.0
H360 H 0.4747 0.16398 0.23276 0.0
H361 H 0.49437 0.16608 0.2632 0.0
H362 H 0.54798 0.18887 0.24605 0.0
H363 H 0.57533 0.1619 0.21626 0.0
H364 H 0.81751 0.76859 0.4032 0.0
H365 H 0.78668 0.74176 0.43914 0.0
H366 H 0.74455 0.81895 0.44856 0.0
H367 H 0.7758 0.84638 0.41283 0.0
H368 H 0.77058 0.80422 0.49306 0.0
H369 H 0.69563 0.69659 0.44921 0.0
H370 H 0.73612 0.70226 0.44124 0.0
H371 H 0.71548 0.73003 0.43027 0.0
C372 C 0.80116 0.77961 0.41246 0.0
C373 C 0.79929 0.80975 0.40521 0.0
C374 C 0.78342 0.76412 0.43297 0.0
C375 C 0.76319 0.77827 0.44642 0.0
C376 C 0.76002 0.80762 0.43839 0.0
H377 H 0.65647 0.72055 0.58669 0.0
H378 H 0.68165 0.75062 0.54957 0.0
C379 C 0.77782 0.8232 0.4179 0.0
C380 C 0.74795 0.76387 0.47036 0.0
H381 H 0.70192 0.69608 0.49503 0.0
C382 C 0.75522 0.78073 0.49347 0.0
C383 C 0.72803 0.73321 0.47082 0.0
C384 C 0.7181 0.71459 0.44651 0.0
C385 C 0.74388 0.76732 0.51716 0.0
C386 C 0.72471 0.73639 0.51764 0.0
C387 C 0.71694 0.71973 0.49453 0.0
C388 C 0.71236 0.72068 0.54191 0.0
C389 C 0.75317 0.78589 0.54158 0.0
C390 C 0.7218 0.6943 0.55011 0.0
C391 C 0.70759 0.67712 0.57136 0.0
C392 C 0.68338 0.68583 0.58456 0.0
C393 C 0.67503 0.71319 0.57697 0.0
C394 C 0.6894 0.73044 0.55578 0.0
H395 H 0.77254 0.8072 0.53836 0.0
H396 H 0.73275 0.79331 0.54915 0.0
H397 H 0.76048 0.77123 0.5565 0.0
H398 H 0.73952 0.68648 0.53957 0.0
H399 H 0.71456 0.65617 0.57663 0.0
H400 H 0.16606 0.57775 0.21268 0.0
H401 H 0.19354 0.55108 0.24262 0.0
H402 H 0.24094 0.52093 0.17884 0.0
H403 H 0.21418 0.54778 0.14899 0.0
H404 H 0.19271 0.48787 0.24459 0.0
H405 H 0.31304 0.56055 0.22673 0.0
H406 H 0.27875 0.57231 0.21654 0.0
H407 H 0.29275 0.54432 0.19796 0.0
C408 C 0.18249 0.5656 0.20508 0.0
C409 C 0.18808 0.56506 0.17849 0.0
C410 C 0.19813 0.55037 0.22218 0.0
C411 C 0.21969 0.53451 0.21297 0.0
C412 C 0.22499 0.53366 0.18643 0.0
H413 H 0.33138 0.41966 0.28177 0.0
H414 H 0.30429 0.44694 0.25197 0.0
C415 C 0.20949 0.54889 0.16937 0.0
C416 C 0.23599 0.51796 0.23093 0.0
H417 H 0.30844 0.5135 0.25047 0.0
C418 C 0.218 0.49361 0.24602 0.0
C419 C 0.26901 0.52542 0.23266 0.0
C420 C 0.28954 0.55226 0.2178 0.0
C421 C 0.23216 0.47612 0.26248 0.0
C422 C 0.26514 0.48346 0.26408 0.0
C423 C 0.28315 0.50782 0.24903 0.0
C424 C 0.28137 0.46681 0.28194 0.0
C425 C 0.21174 0.44955 0.2777 0.0
C426 C 0.27773 0.46936 0.30856 0.0
C427 C 0.29316 0.45397 0.32555 0.0
C428 C 0.31263 0.43575 0.31624 0.0
C429 C 0.31647 0.43342 0.28952 0.0
C430 C 0.30105 0.44898 0.2725 0.0
H431 H 0.18769 0.44205 0.26969 0.0
H432 H 0.22191 0.42903 0.27806 0.0
H433 H 0.21008 0.45734 0.29783 0.0
H434 H 0.26308 0.48345 0.31623 0.0
H435 H 0.28977 0.45637 0.34601 0.0
H436 H 0.77654 0.34655 0.91622 0.0
H437 H 0.74697 0.31986 0.9531 0.0
H438 H 0.78843 0.24239 0.94294 0.0
H439 H 0.81808 0.26868 0.90611 0.0
H440 H 0.70536 0.25417 0.95918 0.0
H441 H 0.81484 0.28097 0.01704 0.0
H442 H 0.81092 0.30168 0.98778 0.0
H443 H 0.81657 0.2629 0.98622 0.0
C444 C 0.77892 0.32354 0.92147 0.0
C445 C 0.8 0.30993 0.9084 0.0
C446 C 0.76204 0.3084 0.94257 0.0
C447 C 0.76609 0.27954 0.95091 0.0
C448 C 0.78543 0.26491 0.93692 0.0
H449 H 0.71151 0.15545 0.07881 0.0
H450 H 0.73738 0.18631 0.0424 0.0
C451 C 0.80223 0.27994 0.91581 0.0
C452 C 0.75173 0.26556 0.97518 0.0
H453 H 0.76979 0.24831 0.03635 0.0
C454 C 0.7193 0.25301 0.97615 0.0
C455 C 0.77016 0.26427 -0.00283 0.0
C456 C 0.80505 0.27836 -0.00277 0.0
C457 C 0.70482 0.23816 -0.00155 0.0
C458 C 0.72331 0.23659 0.02043 0.0
C459 C 0.75571 0.24964 0.0195 0.0
C460 C 0.70966 0.2201 0.04412 0.0
C461 C 0.67007 0.22329 -0.00205 0.0
C462 C 0.68644 0.2297 0.05782 0.0
C463 C 0.67151 0.21207 0.07863 0.0
C464 C 0.67976 0.18467 0.0862 0.0
C465 C 0.70449 0.17634 0.07346 0.0
C466 C 0.71927 0.19391 0.05259 0.0
H467 H 0.66078 0.22006 0.97798 0.0
H468 H 0.6644 0.20014 0.00767 0.0
H469 H 0.65783 0.23864 0.0083 0.0
H470 H 0.6793 0.25036 0.05199 0.0
H471 H 0.65276 0.21931 0.08817 0.0
H472 H 0.83013 0.91381 0.2795 0.0
H473 H 0.80315 0.94142 0.24996 0.0
H474 H 0.77472 0.98955 0.31414 0.0
H475 H 0.80129 0.96207 0.34371 0.0
H476 H 0.72579 0.96181 0.27978 0.0
H477 H 0.82939 0.03472 0.22867 0.0
H478 H 0.82685 0.99346 0.22975 0.0
H479 H 0.83243 0.01586 0.25903 0.0
C480 C 0.81832 0.93044 0.28728 0.0
C481 C 0.81791 0.93578 0.31395 0.0
C482 C 0.80304 0.94628 0.27039 0.0
C483 C 0.78722 0.96776 0.27987 0.0
C484 C 0.78687 0.97315 0.30643 0.0
H485 H 0.67102 0.08055 0.21379 0.0
H486 H 0.69973 0.05442 0.24304 0.0
C487 C 0.80213 0.95743 0.32329 0.0
C488 C 0.77004 0.9839 0.26234 0.0
H489 H 0.77966 0.03631 0.21289 0.0
C490 C 0.73753 0.97818 0.26518 0.0
C491 C 0.78548 0.00518 0.24334 0.0
C492 C 0.82049 0.01297 0.24004 0.0
C493 C 0.71991 0.9928 0.24924 0.0
C494 C 0.73535 0.01424 0.23031 0.0
C495 C 0.76788 0.01993 0.22746 0.0
C496 C 0.71812 0.03045 0.21283 0.0
C497 C 0.68485 0.98455 0.25239 0.0
C498 C 0.71958 0.0263 0.18616 0.0
C499 C 0.70349 0.04138 0.16945 0.0
C500 C 0.68562 0.06102 0.17906 0.0
C501 C 0.6844 0.06541 0.2058 0.0
C502 C 0.70064 0.05036 0.22253 0.0
H503 H 0.67608 0.96211 0.26289 0.0
H504 H 0.67825 0.00326 0.26362 0.0
H505 H 0.67296 0.98266 0.23342 0.0
H506 H 0.733 0.01114 0.17825 0.0
H507 H 0.70499 0.03749 0.14896 0.0
H508 H 0.93451 0.87641 0.43332 0.0
H509 H 0.96325 0.90425 0.46989 0.0
H510 H 0.97377 0.99209 0.43 0.0
H511 H 0.94264 0.96426 0.3941 0.0
H512 H 0.01715 0.9368 0.47883 0.0
H513 H 0.93887 0.01454 0.49447 0.0
H514 H 0.93003 0.98306 0.47138 0.0
H515 H 0.95611 0.02036 0.46312 0.0
C516 C 0.94314 0.90166 0.43228 0.0
C517 C 0.93624 0.91827 0.411 0.0
C518 C 0.95954 0.9176 0.45324 0.0
C519 C 0.97 0.95043 0.45312 0.0
C520 C 0.96485 0.9669 0.43108 0.0
H521 H 0.10973 0.05163 0.56006 0.0
H522 H 0.0811 0.02004 0.52519 0.0
C523 C 0.94748 0.951 0.41041 0.0
C524 C 0.98606 0.96711 0.47618 0.0
H525 H 0.98709 0.02748 0.51748 0.0
C526 C 0.01033 0.95645 0.4874 0.0
C527 C 0.97673 0.99225 0.4879 0.0
C528 C 0.94878 0.00296 0.47876 0.0
C529 C 0.02572 0.97037 0.50969 0.0
C530 C 0.01793 -0.00305 0.52027 0.0
C531 C 0.99339 0.00734 0.50929 0.0
C532 C 0.03538 0.01492 0.54223 0.0
C533 C 0.04948 0.95571 0.52193 0.0
C534 C 0.0193 0.02371 0.56314 0.0
C535 C 0.03566 0.0429 0.58269 0.0
C536 C 0.06841 0.05298 0.58194 0.0
C537 C 0.0845 0.04359 0.5614 0.0
C538 C 0.06813 0.02529 0.5415 0.0
H539 H 0.04388 0.93014 0.51796 0.0
H540 H 0.07286 0.96634 0.51358 0.0
H541 H 0.05068 0.95924 0.54309 0.0
H542 H 0.99403 0.01617 0.56413 0.0
H543 H 0.02274 0.05 0.59827 0.0
H544 H 0.91008 0.32034 0.78008 0.0
H545 H 0.9365 0.29257 0.75017 0.0
H546 H 0.96608 0.24477 0.81398 0.0
H547 H 0.93943 0.2718 0.8438 0.0
H548 H -0.00085 0.29332 0.74807 0.0
H549 H 0.92719 0.17259 0.76609 0.0
H550 H 0.91538 0.20687 0.77642 0.0
H551 H 0.94339 0.19284 0.79489 0.0
C552 C 0.92202 0.30374 0.78769 0.0
C553 C 0.92248 0.29814 0.81429 0.0
C554 C 0.93711 0.28792 0.7706 0.0
C555 C 0.95277 0.26619 0.77982 0.0
C556 C 0.95349 0.26083 0.80637 0.0
H557 H 0.07061 0.15708 0.71184 0.0
H558 H 0.0424 0.18358 0.74136 0.0
C559 C 0.93838 0.2765 0.82341 0.0
C560 C 0.96938 0.24988 0.76188 0.0
H561 H 0.9744 0.17733 0.74258 0.0
C562 C 0.99359 0.26797 0.74672 0.0
C563 C 0.96214 0.21679 0.76023 0.0
C564 C 0.93541 0.19612 0.77508 0.0
C565 C 0.01115 0.25384 0.7303 0.0
C566 C 0.00409 0.22079 0.72885 0.0
C567 C 0.97986 0.20268 0.74393 0.0
C568 C 0.021 0.20463 0.71115 0.0
C569 C 0.0375 0.27432 0.71494 0.0
C570 C 0.01787 0.20737 0.68449 0.0
C571 C 0.03374 0.19221 0.66766 0.0
C572 C 0.05309 0.17398 0.67717 0.0
C573 C 0.05596 0.17101 0.70393 0.0
C574 C 0.03988 0.1861 0.7208 0.0
H575 H 0.0444 0.29871 0.72244 0.0
H576 H 0.0583 0.26463 0.71512 0.0
H577 H 0.02991 0.27512 0.69466 0.0
H578 H 0.00304 0.22119 0.67669 0.0
H579 H 0.03094 0.19496 0.64716 0.0
H580 H 0.53969 0.70217 0.65101 0.0
H581 H 0.51258 0.72894 0.68072 0.0
H582 H 0.55159 0.69034 0.74509 0.0
H583 H 0.57931 0.66368 0.71537 0.0
H584 H 0.4686 0.70337 0.71796 0.0
H585 H 0.57348 0.7842 0.7615 0.0
H586 H 0.5753 0.76259 0.73229 0.0
H587 H 0.57302 0.74345 0.76299 0.0
C588 C 0.54265 0.6994 0.67149 0.0
C589 C 0.56179 0.68088 0.68084 0.0
C590 C 0.52708 0.71471 0.68843 0.0
C591 C 0.53038 0.71196 0.71508 0.0
C592 C 0.54921 0.69325 0.72457 0.0
H593 H 0.45255 0.78551 0.84645 0.0
H594 H 0.47944 0.75812 0.81705 0.0
C595 C 0.56489 0.67791 0.70758 0.0
C596 C 0.51356 0.72833 0.73278 0.0
H597 H 0.52448 0.78413 0.77983 0.0
C598 C 0.48079 0.72109 0.73145 0.0
C599 C 0.52957 0.75147 0.7503 0.0
C600 C 0.56479 0.76117 0.75179 0.0
C601 C 0.46354 0.73605 0.74746 0.0
C602 C 0.47955 0.75919 0.76497 0.0
C603 C 0.5123 0.76639 0.76634 0.0
C604 C 0.46274 0.77575 0.78249 0.0
C605 C 0.42832 0.7265 0.7459 0.0
C606 C 0.44458 0.79498 0.77278 0.0
C607 C 0.42908 0.81073 0.78958 0.0
C608 C 0.43163 0.80758 0.81635 0.0
C609 C 0.45001 0.78842 0.82594 0.0
C610 C 0.46546 0.77275 0.80917 0.0
H611 H 0.41956 0.70359 0.73603 0.0
H612 H 0.41778 0.72494 0.7654 0.0
H613 H 0.4202 0.74441 0.73485 0.0
H614 H 0.44263 0.79804 0.75223 0.0
H615 H 0.41523 0.82543 0.78161 0.0
H616 H 0.2204 0.66957 0.08734 0.0
H617 H 0.24776 0.69955 0.05106 0.0
H618 H 0.17292 0.74475 0.04188 0.0
H619 H 0.14527 0.71495 0.07821 0.0
H620 H 0.21784 0.69373 0.00079 0.0
H621 H 0.2548 0.8169 0.0358 0.0
H622 H 0.24612 0.78375 0.05739 0.0
H623 H 0.21492 0.79599 0.04202 0.0
C624 C 0.21004 0.68642 0.07805 0.0
C625 C 0.1805 0.68967 0.08557 0.0
C626 C 0.22569 0.70344 0.05727 0.0
C627 C 0.21229 0.72425 0.04386 0.0
C628 C 0.18374 0.72898 0.05219 0.0
H629 H 0.27175 0.83655 0.90699 0.0
H630 H 0.24056 0.80861 0.94252 0.0
C631 C 0.16797 0.71188 0.07294 0.0
C632 C 0.22669 0.73858 0.0197 0.0
H633 H 0.2625 0.80829 0.99169 0.0
C634 C 0.22767 0.71878 -0.00125 0.0
C635 C 0.23906 0.77123 0.01714 0.0
C636 C 0.23896 0.79331 0.03928 0.0
C637 C 0.24078 0.73081 0.97517 0.0
C638 C 0.2538 0.76343 0.97273 0.0
C639 C 0.25241 0.78328 0.99361 0.0
C640 C 0.27031 0.77744 0.94916 0.0
C641 C 0.24016 0.70852 0.95303 0.0
C642 C 0.29697 0.76867 0.94076 0.0
C643 C 0.31472 0.78438 0.92034 0.0
C644 C 0.30636 0.80949 0.90817 0.0
C645 C 0.27887 0.81734 0.91594 0.0
C646 C 0.26107 0.80149 0.9363 0.0
H647 H 0.22124 0.68664 0.95536 0.0
H648 H 0.23683 0.71948 0.93438 0.0
H649 H 0.26273 0.70197 0.95234 0.0
H650 H 0.30487 0.75058 0.95072 0.0
H651 H 0.33583 0.77784 0.91497 0.0
H652 H 0.40913 0.46834 0.41327 0.0
H653 H 0.43906 0.49656 0.44927 0.0
H654 H 0.49868 0.43318 0.44844 0.0
H655 H 0.46864 0.40445 0.41261 0.0
H656 H 0.47248 0.43843 0.4963 0.0
H657 H 0.52621 0.55584 0.45528 0.0
H658 H 0.48481 0.54258 0.45005 0.0
H659 H 0.51043 0.52187 0.43542 0.0
C660 C 0.42903 0.46077 0.42032 0.0
C661 C 0.43637 0.43401 0.41012 0.0
C662 C 0.44618 0.47702 0.44088 0.0
C663 C 0.47115 0.46702 0.45142 0.0
C664 C 0.47947 0.44124 0.44053 0.0
H665 H 0.59104 0.52416 0.58386 0.0
H666 H 0.56191 0.4951 0.5478 0.0
C667 C 0.46232 0.42494 0.42 0.0
C668 C 0.48674 0.48171 0.47517 0.0
H669 H 0.52751 0.55131 0.50089 0.0
C670 C 0.48474 0.46306 0.49729 0.0
C671 C 0.5025 0.51385 0.47637 0.0
C672 C 0.50642 0.53468 0.45297 0.0
C673 C 0.49764 0.47587 0.52077 0.0
C674 C 0.51321 0.50804 0.52201 0.0
C675 C 0.51532 0.52666 0.49987 0.0
C676 C 0.52822 0.5229 0.54588 0.0
C677 C 0.49396 0.45507 0.54418 0.0
C678 C 0.51861 0.54784 0.55695 0.0
C679 C 0.53521 0.56455 0.57755 0.0
C680 C 0.56194 0.55678 0.58726 0.0
C681 C 0.57055 0.53075 0.5769 0.0
C682 C 0.55389 0.51403 0.55632 0.0
H683 H 0.47499 0.43327 0.54162 0.0
H684 H 0.51611 0.44833 0.54761 0.0
H685 H 0.48886 0.46758 0.56155 0.0
H686 H 0.49884 0.555 0.54911 0.0
H687 H 0.52791 0.58445 0.58504 0.0
loop_
_geom_bond_atom_site_label_1
_geom_bond_atom_site_label_2
_geom_bond_distance
_geom_bond_site_symmetry_2
_ccdc_geom_bond_type
O0 Cd1 2.223 . S
O0 C8 1.315 . S
Cd1 O0 2.223 . S
Cd1 O4 2.297 . S
Cd1 O5 2.439 . S
Cd1 O11 2.240 . S
Cd2 O3 2.240 . S
Cd2 O10 2.223 . S
Cd2 O12 2.297 . S
Cd2 O13 2.439 . S
O3 Cd2 2.240 . S
O3 C8 1.279 . S
O4 Cd1 2.297 . S
O4 C6 1.247 . S
O5 Cd1 2.439 . S
O5 C6 1.208 . S
C6 O4 1.247 . S
C6 O5 1.208 . S
C7 O12 1.247 . S
C7 O13 1.208 . S
C8 O0 1.315 . S
C8 O3 1.279 . S
C9 O10 1.315 . S
C9 O11 1.279 . S
O10 Cd2 2.223 . S
O10 C9 1.315 . S
O11 Cd1 2.240 . S
O11 C9 1.279 . S
O12 Cd2 2.297 . S
O12 C7 1.247 . S
O13 Cd2 2.439 . S
O13 C7 1.208 . S
O14 Cd15 2.223 . S
O14 C22 1.315 . S
Cd15 O14 2.223 . S
Cd15 O18 2.297 . S
Cd15 O19 2.439 . S
Cd15 O25 2.240 . S
Cd16 O17 2.240 . S
Cd16 O24 2.223 . S
Cd16 O26 2.297 . S
Cd16 O27 2.439 . S
O17 Cd16 2.240 . S
O17 C22 1.279 . S
O18 Cd15 2.297 . S
O18 C20 1.247 . S
O19 Cd15 2.439 . S
O19 C20 1.208 . S
C20 O18 1.247 . S
C20 O19 1.208 . S
C21 O26 1.247 . S
C21 O27 1.208 . S
C22 O14 1.315 . S
C22 O17 1.279 . S
C23 O24 1.315 . S
C23 O25 1.279 . S
O24 Cd16 2.223 . S
O24 C23 1.315 . S
O25 Cd15 2.240 . S
O25 C23 1.279 . S
O26 Cd16 2.297 . S
O26 C21 1.247 . S
O27 Cd16 2.439 . S
O27 C21 1.208 . S
O28 Cd29 2.223 . S
O28 C36 1.315 . S
Cd29 O28 2.223 . S
Cd29 O32 2.297 . S
Cd29 O33 2.439 . S
Cd29 O39 2.240 . S
Cd30 O31 2.240 . S
Cd30 O38 2.223 . S
Cd30 O40 2.297 . S
Cd30 O41 2.439 . S
O31 Cd30 2.240 . S
O31 C36 1.279 . S
O32 Cd29 2.297 . S
O32 C34 1.247 . S
O33 Cd29 2.439 . S
O33 C34 1.208 . S
C34 O32 1.247 . S
C34 O33 1.208 . S
C35 O40 1.247 . S
C35 O41 1.208 . S
C36 O28 1.315 . S
C36 O31 1.279 . S
C37 O38 1.315 . S
C37 O39 1.279 . S
O38 Cd30 2.223 . S
O38 C37 1.315 . S
O39 Cd29 2.240 . S
O39 C37 1.279 . S
O40 Cd30 2.297 . S
O40 C35 1.247 . S
O41 Cd30 2.439 . S
O41 C35 1.208 . S
O42 Cd43 2.223 . S
O42 C50 1.315 . S
Cd43 O42 2.223 . S
Cd43 O46 2.297 . S
Cd43 O47 2.439 . S
Cd43 O53 2.240 . S
Cd44 O45 2.240 . S
Cd44 O52 2.223 . S
Cd44 O54 2.297 . S
Cd44 O55 2.439 . S
O45 Cd44 2.240 . S
O45 C50 1.279 . S
O46 Cd43 2.297 . S
O46 C48 1.247 . S
O47 Cd43 2.439 . S
O47 C48 1.208 . S
C48 O46 1.247 . S
C48 O47 1.208 . S
C49 O54 1.247 . S
C49 O55 1.208 . S
C50 O42 1.315 . S
C50 O45 1.279 . S
C51 O52 1.315 . S
C51 O53 1.279 . S
O52 Cd44 2.223 . S
O52 C51 1.315 . S
O53 Cd43 2.240 . S
O53 C51 1.279 . S
O54 Cd44 2.297 . S
O54 C49 1.247 . S
O55 Cd44 2.439 . S
O55 C49 1.208 . S
O56 Cd57 2.223 . S
O56 C64 1.315 . S
Cd57 O56 2.223 . S
Cd57 O60 2.297 . S
Cd57 O61 2.439 . S
Cd57 O67 2.240 . S
Cd58 O59 2.240 . S
Cd58 O66 2.223 . S
Cd58 O68 2.297 . S
Cd58 O69 2.439 . S
O59 Cd58 2.240 . S
O59 C64 1.279 . S
O60 Cd57 2.297 . S
O60 C62 1.247 . S
O61 Cd57 2.439 . S
O61 C62 1.208 . S
C62 O60 1.247 . S
C62 O61 1.208 . S
C63 O68 1.247 . S
C63 O69 1.208 . S
C64 O56 1.315 . S
C64 O59 1.279 . S
C65 O66 1.315 . S
C65 O67 1.279 . S
O66 Cd58 2.223 . S
O66 C65 1.315 . S
O67 Cd57 2.240 . S
O67 C65 1.279 . S
O68 Cd58 2.297 . S
O68 C63 1.247 . S
O69 Cd58 2.439 . S
O69 C63 1.208 . S
O70 Cd71 2.223 . S
O70 C78 1.315 . S
Cd71 O70 2.223 . S
Cd71 O74 2.297 . S
Cd71 O75 2.439 . S
Cd71 O81 2.240 . S
Cd72 O73 2.240 . S
Cd72 O80 2.223 . S
Cd72 O82 2.297 . S
Cd72 O83 2.439 . S
O73 Cd72 2.240 . S
O73 C78 1.279 . S
O74 Cd71 2.297 . S
O74 C76 1.247 . S
O75 Cd71 2.439 . S
O75 C76 1.208 . S
C76 O74 1.247 . S
C76 O75 1.208 . S
C77 O82 1.247 . S
C77 O83 1.208 . S
C78 O70 1.315 . S
C78 O73 1.279 . S
C79 O80 1.315 . S
C79 O81 1.279 . S
O80 Cd72 2.223 . S
O80 C79 1.315 . S
O81 Cd71 2.240 . S
O81 C79 1.279 . S
O82 Cd72 2.297 . S
O82 C77 1.247 . S
O83 Cd72 2.439 . S
O83 C77 1.208 . S
O84 Cd85 2.223 . S
O84 C92 1.315 . S
Cd85 O84 2.223 . S
Cd85 O88 2.297 . S
Cd85 O89 2.439 . S
Cd85 O95 2.240 . S
Cd86 O87 2.240 . S
Cd86 O94 2.223 . S
Cd86 O96 2.297 . S
Cd86 O97 2.439 . S
O87 Cd86 2.240 . S
O87 C92 1.279 . S
O88 Cd85 2.297 . S
O88 C90 1.247 . S
O89 Cd85 2.439 . S
O89 C90 1.208 . S
C90 O88 1.247 . S
C90 O89 1.208 . S
C91 O96 1.247 . S
C91 O97 1.208 . S
C92 O84 1.315 . S
C92 O87 1.279 . S
C93 O94 1.315 . S
C93 O95 1.279 . S
O94 Cd86 2.223 . S
O94 C93 1.315 . S
O95 Cd85 2.240 . S
O95 C93 1.279 . S
O96 Cd86 2.297 . S
O96 C91 1.247 . S
O97 Cd86 2.439 . S
O97 C91 1.208 . S
O98 Cd99 2.223 . S
O98 C106 1.315 . S
Cd99 O98 2.223 . S
Cd99 O102 2.297 . S
Cd99 O103 2.439 . S
Cd99 O109 2.240 . S
Cd100 O101 2.240 . S
Cd100 O108 2.223 . S
Cd100 O110 2.297 . S
Cd100 O111 2.439 . S
O101 Cd100 2.240 . S
O101 C106 1.279 . S
O102 Cd99 2.297 . S
O102 C104 1.247 . S
O103 Cd99 2.439 . S
O103 C104 1.208 . S
C104 O102 1.247 . S
C104 O103 1.208 . S
C105 O110 1.247 . S
C105 O111 1.208 . S
C106 O98 1.315 . S
C106 O101 1.279 . S
C107 O108 1.315 . S
C107 O109 1.279 . S
O108 Cd100 2.223 . S
O108 C107 1.315 . S
O109 Cd99 2.240 . S
O109 C107 1.279 . S
O110 Cd100 2.297 . S
O110 C105 1.247 . S
O111 Cd100 2.439 . S
O111 C105 1.208 . S
H112 C120 0.929 . S
H113 C122 0.930 . S
H114 C124 0.930 . S
H115 C127 0.929 . S
H116 C130 0.930 . S
H117 C132 0.960 . S
H118 C132 0.960 . S
H119 C132 0.960 . S
C120 H112 0.929 . S
C120 C121 1.377 . S
C120 C122 1.384 . S
C121 C120 1.377 . S
C121 C127 1.390 . S
C122 H113 0.930 . S
C122 C120 1.384 . S
C122 C123 1.372 . S
C123 C122 1.372 . S
C123 C124 1.400 . S
C123 C128 1.490 . S
C124 H114 0.930 . S
C124 C123 1.400 . S
C124 C127 1.386 . S
H125 C141 0.930 . S
H126 C142 0.931 . S
C127 H115 0.929 . S
C127 C121 1.390 . S
C127 C124 1.386 . S
C128 C123 1.490 . S
C128 C130 1.395 . S
C128 C131 1.403 . S
H129 C135 0.930 . S
C130 H116 0.930 . S
C130 C128 1.395 . S
C130 C133 1.403 . S
C131 C128 1.403 . S
C131 C132 1.524 . S
C131 C135 1.400 . S
C132 H117 0.960 . S
C132 H118 0.960 . S
C132 H119 0.960 . S
C132 C131 1.524 . S
C133 C130 1.403 . S
C133 C134 1.392 . S
C133 C137 1.495 . S
C134 C133 1.392 . S
C134 C135 1.385 . S
C134 C136 1.478 . S
C135 H129 0.930 . S
C135 C131 1.400 . S
C135 C134 1.385 . S
C136 C134 1.478 . S
C136 C138 1.381 . S
C136 C142 1.383 . S
C137 C133 1.495 . S
C137 H143 0.959 . S
C137 H144 0.961 . S
C137 H145 0.960 . S
C138 C136 1.381 . S
C138 C139 1.394 . S
C138 H146 0.930 . S
C139 C138 1.394 . S
C139 C140 1.383 . S
C139 H147 0.929 . S
C140 C139 1.383 . S
C140 C141 1.377 . S
C141 H125 0.930 . S
C141 C140 1.377 . S
C141 C142 1.379 . S
C142 H126 0.931 . S
C142 C136 1.383 . S
C142 C141 1.379 . S
H143 C137 0.959 . S
H144 C137 0.961 . S
H145 C137 0.960 . S
H146 C138 0.930 . S
H147 C139 0.929 . S
H148 C156 0.929 . S
H149 C158 0.930 . S
H150 C160 0.930 . S
H151 C163 0.929 . S
H152 C166 0.930 . S
H153 C168 0.960 . S
H154 C168 0.960 . S
H155 C168 0.960 . S
C156 H148 0.929 . S
C156 C157 1.377 . S
C156 C158 1.384 . S
C157 C156 1.377 . S
C157 C163 1.390 . S
C158 H149 0.930 . S
C158 C156 1.384 . S
C158 C159 1.372 . S
C159 C158 1.372 . S
C159 C160 1.400 . S
C159 C164 1.490 . S
C160 H150 0.930 . S
C160 C159 1.400 . S
C160 C163 1.386 . S
H161 C177 0.930 . S
H162 C178 0.931 . S
C163 H151 0.929 . S
C163 C157 1.390 . S
C163 C160 1.386 . S
C164 C159 1.490 . S
C164 C166 1.395 . S
C164 C167 1.403 . S
H165 C171 0.930 . S
C166 H152 0.930 . S
C166 C164 1.395 . S
C166 C169 1.403 . S
C167 C164 1.403 . S
C167 C168 1.524 . S
C167 C171 1.400 . S
C168 H153 0.960 . S
C168 H154 0.960 . S
C168 H155 0.960 . S
C168 C167 1.524 . S
C169 C166 1.403 . S
C169 C170 1.392 . S
C169 C173 1.495 . S
C170 C169 1.392 . S
C170 C171 1.385 . S
C170 C172 1.478 . S
C171 H165 0.930 . S
C171 C167 1.400 . S
C171 C170 1.385 . S
C172 C170 1.478 . S
C172 C174 1.381 . S
C172 C178 1.383 . S
C173 C169 1.495 . S
C173 H179 0.959 . S
C173 H180 0.961 . S
C173 H181 0.960 . S
C174 C172 1.381 . S
C174 C175 1.394 . S
C174 H182 0.930 . S
C175 C174 1.394 . S
C175 C176 1.383 . S
C175 H183 0.929 . S
C176 C175 1.383 . S
C176 C177 1.377 . S
C177 H161 0.930 . S
C177 C176 1.377 . S
C177 C178 1.379 . S
C178 H162 0.931 . S
C178 C172 1.383 . S
C178 C177 1.379 . S
H179 C173 0.959 . S
H180 C173 0.961 . S
H181 C173 0.960 . S
H182 C174 0.930 . S
H183 C175 0.929 . S
H184 C192 0.929 . S
H185 C194 0.930 . S
H186 C196 0.930 . S
H187 C199 0.929 . S
H188 C202 0.933 . S
H189 C204 0.960 . S
H190 C204 0.960 . S
H191 C204 0.960 . S
C192 H184 0.929 . S
C192 C193 1.377 . S
C192 C194 1.384 . S
C193 C192 1.377 . S
C193 C199 1.390 . S
C194 H185 0.930 . S
C194 C192 1.384 . S
C194 C195 1.372 . S
C195 C194 1.372 . S
C195 C196 1.400 . S
C195 C200 1.490 . S
C196 H186 0.930 . S
C196 C195 1.400 . S
C196 C199 1.386 . S
H197 C213 0.930 . S
H198 C214 0.931 . S
C199 H187 0.929 . S
C199 C193 1.390 . S
C199 C196 1.386 . S
C200 C195 1.490 . S
C200 C202 1.417 . S
C200 C203 1.403 1_545 S
H201 C207 0.930 . S
C202 H188 0.933 . S
C202 C200 1.417 . S
C202 C205 1.379 1_554 S
C203 C200 1.403 1_565 S
C203 C204 1.524 . S
C203 C207 1.400 1_554 S
C204 H189 0.960 . S
C204 H190 0.960 . S
C204 H191 0.960 . S
C204 C203 1.524 . S
C205 C202 1.379 1_556 S
C205 C206 1.392 1_545 S
C205 C209 1.495 . S
C206 C205 1.392 1_565 S
C206 C207 1.385 . S
C206 C208 1.478 . S
C207 H201 0.930 . S
C207 C203 1.400 1_556 S
C207 C206 1.385 . S
C208 C206 1.478 . S
C208 C210 1.381 . S
C208 C214 1.383 . S
C209 C205 1.495 . S
C209 H215 0.959 . S
C209 H216 0.961 . S
C209 H217 0.960 . S
C210 C208 1.381 . S
C210 C211 1.394 . S
C210 H218 0.930 . S
C211 C210 1.394 . S
C211 C212 1.383 . S
C211 H219 0.929 . S
C212 C211 1.383 . S
C212 C213 1.377 . S
C213 H197 0.930 . S
C213 C212 1.377 . S
C213 C214 1.379 . S
C214 H198 0.931 . S
C214 C208 1.383 . S
C214 C213 1.379 . S
H215 C209 0.959 . S
H216 C209 0.961 . S
H217 C209 0.960 . S
H218 C210 0.930 . S
H219 C211 0.929 . S
H220 C228 0.929 . S
H221 C230 0.912 1_455 S
H222 C232 0.930 . S
H223 C235 0.929 . S
H224 C238 0.930 . S
H225 C240 0.960 . S
H226 C240 0.960 . S
H227 C240 0.960 . S
C228 H220 0.929 . S
C228 C229 1.377 . S
C228 C230 1.384 . S
C229 C228 1.377 . S
C229 C235 1.390 . S
C230 H221 0.912 1_655 S
C230 C228 1.384 . S
C230 C231 1.372 . S
C231 C230 1.372 . S
C231 C232 1.400 . S
C231 C236 1.490 1_655 S
C232 H222 0.930 . S
C232 C231 1.400 . S
C232 C235 1.386 . S
H233 C249 0.930 . S
H234 C250 0.931 . S
C235 H223 0.929 . S
C235 C229 1.390 . S
C235 C232 1.386 . S
C236 C231 1.490 1_455 S
C236 C238 1.395 . S
C236 C239 1.403 1_455 S
H237 C243 0.930 1_655 S
C238 H224 0.930 . S
C238 C236 1.395 . S
C238 C241 1.403 . S
C239 C236 1.403 1_655 S
C239 C240 1.524 . S
C239 C243 1.400 1_655 S
C240 H225 0.960 . S
C240 H226 0.960 . S
C240 H227 0.960 . S
C240 C239 1.524 . S
C241 C238 1.403 . S
C241 C242 1.392 . S
C241 C245 1.495 . S
C242 C241 1.392 . S
C242 C243 1.385 . S
C242 C244 1.478 . S
C243 H237 0.930 1_455 S
C243 C239 1.400 1_455 S
C243 C242 1.385 . S
C244 C242 1.478 . S
C244 C246 1.381 . S
C244 C250 1.383 . S
C245 C241 1.495 . S
C245 H251 0.959 . S
C245 H252 0.961 . S
C245 H253 0.960 . S
C246 C244 1.381 . S
C246 C247 1.394 . S
C246 H254 0.930 . S
C247 C246 1.394 . S
C247 C248 1.383 . S
C247 H255 0.929 . S
C248 C247 1.383 . S
C248 C249 1.377 . S
C249 H233 0.930 . S
C249 C248 1.377 . S
C249 C250 1.379 . S
C250 H234 0.931 . S
C250 C244 1.383 . S
C250 C249 1.379 . S
H251 C245 0.959 . S
H252 C245 0.961 . S
H253 C245 0.960 . S
H254 C246 0.930 . S
H255 C247 0.929 . S
H256 C264 0.929 . S
H257 C266 0.930 . S
H258 C268 0.930 . S
H259 C271 0.929 . S
H260 C274 0.930 . S
H261 C276 0.960 . S
H262 C276 0.960 1_565 S
H263 C276 0.960 . S
C264 H256 0.929 . S
C264 C265 1.377 . S
C264 C266 1.384 . S
C265 C264 1.377 . S
C265 C271 1.390 . S
C266 H257 0.930 . S
C266 C264 1.384 . S
C266 C267 1.372 . S
C267 C266 1.372 . S
C267 C268 1.400 . S
C267 C272 1.490 . S
C268 H258 0.930 . S
C268 C267 1.400 . S
C268 C271 1.386 . S
H269 C285 0.930 . S
H270 C286 0.931 . S
C271 H259 0.929 . S
C271 C265 1.390 . S
C271 C268 1.386 . S
C272 C267 1.490 . S
C272 C274 1.395 . S
C272 C275 1.403 . S
H273 C279 0.930 . S
C274 H260 0.930 . S
C274 C272 1.395 . S
C274 C277 1.403 . S
C275 C272 1.403 . S
C275 C276 1.524 1_565 S
C275 C279 1.400 1_565 S
C276 H261 0.960 . S
C276 H262 0.960 1_545 S
C276 H263 0.960 . S
C276 C275 1.524 1_545 S
C277 C274 1.403 . S
C277 C278 1.392 . S
C277 C281 1.495 . S
C278 C277 1.392 . S
C278 C279 1.385 1_565 S
C278 C280 1.478 1_565 S
C279 H273 0.930 . S
C279 C275 1.400 1_545 S
C279 C278 1.385 1_545 S
C280 C278 1.478 1_545 S
C280 C282 1.381 . S
C280 C286 1.383 . S
C281 C277 1.495 . S
C281 H287 0.959 . S
C281 H288 0.961 . S
C281 H289 0.960 . S
C282 C280 1.381 . S
C282 C283 1.394 . S
C282 H290 0.930 1_545 S
C283 C282 1.394 . S
C283 C284 1.383 . S
C283 H291 0.929 . S
C284 C283 1.383 . S
C284 C285 1.377 . S
C285 H269 0.930 . S
C285 C284 1.377 . S
C285 C286 1.379 . S
C286 H270 0.931 . S
C286 C280 1.383 . S
C286 C285 1.379 . S
H287 C281 0.959 . S
H288 C281 0.961 . S
H289 C281 0.960 . S
H290 C282 0.930 1_565 S
H291 C283 0.929 . S
H292 C300 0.929 . S
H293 C302 0.930 1_455 S
H294 C304 0.930 . S
H295 C307 0.929 . S
H296 C310 0.917 1_655 S
H297 C312 0.971 . S
H298 C312 0.972 1_556 S
H299 C312 0.941 1_655 S
C300 H292 0.929 . S
C300 C301 1.377 . S
C300 C302 1.384 . S
C301 C300 1.377 . S
C301 C307 1.390 . S
C302 H293 0.930 1_655 S
C302 C300 1.384 . S
C302 C303 1.372 . S
C303 C302 1.372 . S
C303 C304 1.400 . S
C303 C308 1.490 . S
C304 H294 0.930 . S
C304 C303 1.400 . S
C304 C307 1.386 . S
H305 C321 0.930 . S
H306 C322 0.931 . S
C307 H295 0.929 . S
C307 C301 1.390 . S
C307 C304 1.386 . S
C308 C303 1.490 . S
C308 C310 1.397 1_655 S
C308 C311 1.377 1_656 S
H309 C315 0.930 . S
C310 H296 0.917 1_455 S
C310 C308 1.397 1_455 S
C310 C313 1.414 . S
C311 C308 1.377 1_454 S
C311 C312 1.525 . S
C311 C315 1.422 . S
C312 H297 0.971 . S
C312 H298 0.972 1_554 S
C312 H299 0.941 1_455 S
C312 C311 1.525 . S
C313 C310 1.414 . S
C313 C314 1.392 1_556 S
C313 C317 1.495 . S
C314 C313 1.392 1_554 S
C314 C315 1.385 . S
C314 C316 1.478 . S
C315 H309 0.930 . S
C315 C311 1.422 . S
C315 C314 1.385 . S
C316 C314 1.478 . S
C316 C318 1.381 . S
C316 C322 1.383 . S
C317 C313 1.495 . S
C317 H323 0.959 . S
C317 H324 0.961 1_556 S
C317 H325 0.960 . S
C318 C316 1.381 . S
C318 C319 1.394 . S
C318 H326 0.930 . S
C319 C318 1.394 . S
C319 C320 1.383 . S
C319 H327 0.929 . S
C320 C319 1.383 . S
C320 C321 1.377 . S
C321 H305 0.930 . S
C321 C320 1.377 . S
C321 C322 1.379 . S
C322 H306 0.931 . S
C322 C316 1.383 . S
C322 C321 1.379 . S
H323 C317 0.959 . S
H324 C317 0.961 1_554 S
H325 C317 0.960 . S
H326 C318 0.930 . S
H327 C319 0.929 . S
H328 C336 0.929 . S
H329 C338 0.930 . S
H330 C340 0.930 . S
H331 C343 0.929 . S
H332 C346 0.930 . S
H333 C348 0.960 . S
H334 C348 0.960 . S
H335 C348 0.960 . S
C336 H328 0.929 . S
C336 C337 1.377 . S
C336 C338 1.384 . S
C337 C336 1.377 . S
C337 C343 1.390 . S
C338 H329 0.930 . S
C338 C336 1.384 . S
C338 C339 1.372 . S
C339 C338 1.372 . S
C339 C340 1.400 . S
C339 C344 1.490 . S
C340 H330 0.930 . S
C340 C339 1.400 . S
C340 C343 1.386 . S
H341 C357 0.930 . S
H342 C358 0.931 . S
C343 H331 0.929 . S
C343 C337 1.390 . S
C343 C340 1.386 . S
C344 C339 1.490 . S
C344 C346 1.395 . S
C344 C347 1.403 . S
H345 C351 0.930 . S
C346 H332 0.930 . S
C346 C344 1.395 . S
C346 C349 1.403 . S
C347 C344 1.403 . S
C347 C348 1.524 . S
C347 C351 1.400 . S
C348 H333 0.960 . S
C348 H334 0.960 . S
C348 H335 0.960 . S
C348 C347 1.524 . S
C349 C346 1.403 . S
C349 C350 1.392 . S
C349 C353 1.495 . S
C350 C349 1.392 . S
C350 C351 1.385 . S
C350 C352 1.478 . S
C351 H345 0.930 . S
C351 C347 1.400 . S
C351 C350 1.385 . S
C352 C350 1.478 . S
C352 C354 1.381 . S
C352 C358 1.383 . S
C353 C349 1.495 . S
C353 H359 0.959 . S
C353 H360 0.961 . S
C353 H361 0.960 . S
C354 C352 1.381 . S
C354 C355 1.394 . S
C354 H362 0.930 . S
C355 C354 1.394 . S
C355 C356 1.383 . S
C355 H363 0.929 . S
C356 C355 1.383 . S
C356 C357 1.377 . S
C357 H341 0.930 . S
C357 C356 1.377 . S
C357 C358 1.379 . S
C358 H342 0.931 . S
C358 C352 1.383 . S
C358 C357 1.379 . S
H359 C353 0.959 . S
H360 C353 0.961 . S
H361 C353 0.960 . S
H362 C354 0.930 . S
H363 C355 0.929 . S
H364 C372 0.929 . S
H365 C374 0.930 . S
H366 C376 0.930 . S
H367 C379 0.929 . S
H368 C382 0.930 . S
H369 C384 0.960 . S
H370 C384 0.960 . S
H371 C384 0.960 . S
C372 H364 0.929 . S
C372 C373 1.377 . S
C372 C374 1.384 . S
C373 C372 1.377 . S
C373 C379 1.390 . S
C374 H365 0.930 . S
C374 C372 1.384 . S
C374 C375 1.372 . S
C375 C374 1.372 . S
C375 C376 1.400 . S
C375 C380 1.490 . S
C376 H366 0.930 . S
C376 C375 1.400 . S
C376 C379 1.386 . S
H377 C393 0.930 . S
H378 C394 0.931 . S
C379 H367 0.929 . S
C379 C373 1.390 . S
C379 C376 1.386 . S
C380 C375 1.490 . S
C380 C382 1.395 . S
C380 C383 1.403 . S
H381 C387 0.930 . S
C382 H368 0.930 . S
C382 C380 1.395 . S
C382 C385 1.403 . S
C383 C380 1.403 . S
C383 C384 1.524 . S
C383 C387 1.400 . S
C384 H369 0.960 . S
C384 H370 0.960 . S
C384 H371 0.960 . S
C384 C383 1.524 . S
C385 C382 1.403 . S
C385 C386 1.392 . S
C385 C389 1.495 . S
C386 C385 1.392 . S
C386 C387 1.385 . S
C386 C388 1.478 . S
C387 H381 0.930 . S
C387 C383 1.400 . S
C387 C386 1.385 . S
C388 C386 1.478 . S
C388 C390 1.381 . S
C388 C394 1.383 . S
C389 C385 1.495 . S
C389 H395 0.959 . S
C389 H396 0.961 . S
C389 H397 0.960 . S
C390 C388 1.381 . S
C390 C391 1.394 . S
C390 H398 0.930 . S
C391 C390 1.394 . S
C391 C392 1.383 . S
C391 H399 0.929 . S
C392 C391 1.383 . S
C392 C393 1.377 . S
C393 H377 0.930 . S
C393 C392 1.377 . S
C393 C394 1.379 . S
C394 H378 0.931 . S
C394 C388 1.383 . S
C394 C393 1.379 . S
H395 C389 0.959 . S
H396 C389 0.961 . S
H397 C389 0.960 . S
H398 C390 0.930 . S
H399 C391 0.929 . S
H400 C408 0.929 . S
H401 C410 0.930 . S
H402 C412 0.930 . S
H403 C415 0.929 . S
H404 C418 0.930 . S
H405 C420 0.960 . S
H406 C420 0.960 . S
H407 C420 0.960 . S
C408 H400 0.929 . S
C408 C409 1.377 . S
C408 C410 1.384 . S
C409 C408 1.377 . S
C409 C415 1.390 . S
C410 H401 0.930 . S
C410 C408 1.384 . S
C410 C411 1.372 . S
C411 C410 1.372 . S
C411 C412 1.400 . S
C411 C416 1.490 . S
C412 H402 0.930 . S
C412 C411 1.400 . S
C412 C415 1.386 . S
H413 C429 0.930 . S
H414 C430 0.931 . S
C415 H403 0.929 . S
C415 C409 1.390 . S
C415 C412 1.386 . S
C416 C411 1.490 . S
C416 C418 1.395 . S
C416 C419 1.403 . S
H417 C423 0.930 . S
C418 H404 0.930 . S
C418 C416 1.395 . S
C418 C421 1.403 . S
C419 C416 1.403 . S
C419 C420 1.524 . S
C419 C423 1.400 . S
C420 H405 0.960 . S
C420 H406 0.960 . S
C420 H407 0.960 . S
C420 C419 1.524 . S
C421 C418 1.403 . S
C421 C422 1.392 . S
C421 C425 1.495 . S
C422 C421 1.392 . S
C422 C423 1.385 . S
C422 C424 1.478 . S
C423 H417 0.930 . S
C423 C419 1.400 . S
C423 C422 1.385 . S
C424 C422 1.478 . S
C424 C426 1.381 . S
C424 C430 1.383 . S
C425 C421 1.495 . S
C425 H431 0.959 . S
C425 H432 0.961 . S
C425 H433 0.960 . S
C426 C424 1.381 . S
C426 C427 1.394 . S
C426 H434 0.930 . S
C427 C426 1.394 . S
C427 C428 1.383 . S
C427 H435 0.929 . S
C428 C427 1.383 . S
C428 C429 1.377 . S
C429 H413 0.930 . S
C429 C428 1.377 . S
C429 C430 1.379 . S
C430 H414 0.931 . S
C430 C424 1.383 . S
C430 C429 1.379 . S
H431 C425 0.959 . S
H432 C425 0.961 . S
H433 C425 0.960 . S
H434 C426 0.930 . S
H435 C427 0.929 . S
H436 C444 0.929 . S
H437 C446 0.930 . S
H438 C448 0.930 . S
H439 C451 0.929 . S
H440 C454 0.930 . S
H441 C456 0.934 1_554 S
H442 C456 0.954 1_554 S
H443 C456 0.994 . S
C444 H436 0.929 . S
C444 C445 1.377 . S
C444 C446 1.384 . S
C445 C444 1.377 . S
C445 C451 1.390 . S
C446 H437 0.930 . S
C446 C444 1.384 . S
C446 C447 1.372 . S
C447 C446 1.372 . S
C447 C448 1.400 . S
C447 C452 1.490 . S
C448 H438 0.930 . S
C448 C447 1.400 . S
C448 C451 1.386 . S
H449 C465 0.930 . S
H450 C466 0.931 . S
C451 H439 0.929 . S
C451 C445 1.390 . S
C451 C448 1.386 . S
C452 C447 1.490 . S
C452 C454 1.395 . S
C452 C455 1.403 . S
H453 C459 0.930 . S
C454 H440 0.930 . S
C454 C452 1.395 . S
C454 C457 1.403 1_556 S
C455 C452 1.403 . S
C455 C456 1.525 . S
C455 C459 1.400 1_556 S
C456 H441 0.934 1_556 S
C456 H442 0.954 1_556 S
C456 H443 0.994 . S
C456 C455 1.525 . S
C457 C454 1.403 1_554 S
C457 C458 1.392 . S
C457 C461 1.495 . S
C458 C457 1.392 . S
C458 C459 1.385 . S
C458 C460 1.478 . S
C459 H453 0.930 . S
C459 C455 1.400 1_554 S
C459 C458 1.385 . S
C460 C458 1.478 . S
C460 C462 1.381 . S
C460 C466 1.383 . S
C461 C457 1.495 . S
C461 H467 0.959 1_554 S
C461 H468 0.961 1_554 S
C461 H469 0.960 . S
C462 C460 1.381 . S
C462 C463 1.394 . S
C462 H470 0.930 . S
C463 C462 1.394 . S
C463 C464 1.383 . S
C463 H471 0.929 . S
C464 C463 1.383 . S
C464 C465 1.377 . S
C465 H449 0.930 . S
C465 C464 1.377 . S
C465 C466 1.379 . S
C466 H450 0.931 . S
C466 C460 1.383 . S
C466 C465 1.379 . S
H467 C461 0.959 1_556 S
H468 C461 0.961 1_556 S
H469 C461 0.960 . S
H470 C462 0.930 . S
H471 C463 0.929 . S
H472 C480 0.929 . S
H473 C482 0.930 . S
H474 C484 0.930 . S
H475 C487 0.929 . S
H476 C490 0.930 . S
H477 C492 0.960 1_545 S
H478 C492 0.960 . S
H479 C492 0.958 1_545 S
C480 H472 0.929 . S
C480 C481 1.377 . S
C480 C482 1.384 . S
C481 C480 1.377 . S
C481 C487 1.390 . S
C482 H473 0.930 . S
C482 C480 1.384 . S
C482 C483 1.372 . S
C483 C482 1.372 . S
C483 C484 1.400 . S
C483 C488 1.490 . S
C484 H474 0.930 . S
C484 C483 1.400 . S
C484 C487 1.386 . S
H485 C501 0.930 . S
H486 C502 0.931 . S
C487 H475 0.929 . S
C487 C481 1.390 . S
C487 C484 1.386 . S
C488 C483 1.490 . S
C488 C490 1.395 . S
C488 C491 1.403 . S
H489 C495 0.930 . S
C490 H476 0.930 . S
C490 C488 1.395 . S
C490 C493 1.403 . S
C491 C488 1.403 . S
C491 C492 1.524 . S
C491 C495 1.400 1_565 S
C492 H477 0.960 1_565 S
C492 H478 0.960 . S
C492 H479 0.958 1_565 S
C492 C491 1.524 . S
C493 C490 1.403 . S
C493 C494 1.392 . S
C493 C497 1.495 . S
C494 C493 1.392 . S
C494 C495 1.385 1_565 S
C494 C496 1.478 1_565 S
C495 H489 0.930 . S
C495 C491 1.400 1_545 S
C495 C494 1.385 1_545 S
C496 C494 1.478 1_545 S
C496 C498 1.379 1_545 S
C496 C502 1.383 . S
C497 C493 1.495 . S
C497 H503 0.959 . S
C497 H504 0.961 . S
C497 H505 0.960 . S
C498 C496 1.379 1_565 S
C498 C499 1.389 1_565 S
C498 H506 0.937 . S
C499 C498 1.389 1_545 S
C499 C500 1.383 . S
C499 H507 0.929 . S
C500 C499 1.383 . S
C500 C501 1.377 . S
C501 H485 0.930 . S
C501 C500 1.377 . S
C501 C502 1.379 . S
C502 H486 0.931 . S
C502 C496 1.383 . S
C502 C501 1.379 . S
H503 C497 0.959 . S
H504 C497 0.961 . S
H505 C497 0.960 . S
H506 C498 0.937 . S
H507 C499 0.929 . S
H508 C516 0.929 . S
H509 C518 0.930 . S
H510 C520 0.930 . S
H511 C523 0.929 . S
H512 C526 0.930 . S
H513 C528 0.960 . S
H514 C528 0.960 . S
H515 C528 0.960 . S
C516 H508 0.929 . S
C516 C517 1.377 . S
C516 C518 1.384 . S
C517 C516 1.377 . S
C517 C523 1.390 . S
C518 H509 0.930 . S
C518 C516 1.384 . S
C518 C519 1.372 . S
C519 C518 1.372 . S
C519 C520 1.400 . S
C519 C524 1.490 . S
C520 H510 0.930 . S
C520 C519 1.400 . S
C520 C523 1.386 . S
H521 C537 0.930 . S
H522 C538 0.931 . S
C523 H511 0.929 . S
C523 C517 1.390 . S
C523 C520 1.386 . S
C524 C519 1.490 . S
C524 C526 1.395 1_655 S
C524 C527 1.403 1_565 S
H525 C531 0.930 . S
C526 H512 0.930 . S
C526 C524 1.395 1_455 S
C526 C529 1.403 . S
C527 C524 1.403 1_545 S
C527 C528 1.524 . S
C527 C531 1.400 1_655 S
C528 H513 0.960 . S
C528 H514 0.960 . S
C528 H515 0.960 . S
C528 C527 1.524 . S
C529 C526 1.403 . S
C529 C530 1.392 1_565 S
C529 C533 1.495 . S
C530 C529 1.392 1_545 S
C530 C531 1.385 . S
C530 C532 1.478 . S
C531 H525 0.930 . S
C531 C527 1.400 1_455 S
C531 C530 1.385 . S
C532 C530 1.478 . S
C532 C534 1.381 . S
C532 C538 1.383 . S
C533 C529 1.495 . S
C533 H539 0.959 . S
C533 H540 0.961 . S
C533 H541 0.960 . S
C534 C532 1.381 . S
C534 C535 1.394 . S
C534 H542 0.924 1_545 S
C535 C534 1.394 . S
C535 C536 1.383 . S
C535 H543 0.929 . S
C536 C535 1.383 . S
C536 C537 1.377 . S
C537 H521 0.930 . S
C537 C536 1.377 . S
C537 C538 1.379 . S
C538 H522 0.931 . S
C538 C532 1.383 . S
C538 C537 1.379 . S
H539 C533 0.959 . S
H540 C533 0.961 . S
H541 C533 0.960 . S
H542 C534 0.924 1_565 S
H543 C535 0.929 . S
H544 C552 0.929 . S
H545 C554 0.930 . S
H546 C556 0.930 . S
H547 C559 0.929 . S
H548 C562 0.930 . S
H549 C564 0.960 . S
H550 C564 0.960 . S
H551 C564 0.960 . S
C552 H544 0.929 . S
C552 C553 1.377 . S
C552 C554 1.384 . S
C553 C552 1.377 . S
C553 C559 1.390 . S
C554 H545 0.930 . S
C554 C552 1.384 . S
C554 C555 1.372 . S
C555 C554 1.372 . S
C555 C556 1.400 . S
C555 C560 1.466 1_655 S
C556 H546 0.930 . S
C556 C555 1.400 . S
C556 C559 1.386 . S
H557 C573 0.930 . S
H558 C574 0.931 . S
C559 H547 0.929 . S
C559 C553 1.390 . S
C559 C556 1.386 . S
C560 C555 1.466 1_455 S
C560 C562 1.422 . S
C560 C563 1.400 1_455 S
H561 C567 0.930 . S
C562 H548 0.930 . S
C562 C560 1.422 . S
C562 C565 1.403 . S
C563 C560 1.400 1_655 S
C563 C564 1.524 . S
C563 C567 1.400 1_655 S
C564 H549 0.960 . S
C564 H550 0.960 . S
C564 H551 0.960 . S
C564 C563 1.524 . S
C565 C562 1.403 . S
C565 C566 1.392 . S
C565 C569 1.495 . S
C566 C565 1.392 . S
C566 C567 1.385 . S
C566 C568 1.478 . S
C567 H561 0.930 . S
C567 C563 1.400 1_455 S
C567 C566 1.385 . S
C568 C566 1.478 . S
C568 C570 1.381 . S
C568 C574 1.383 . S
C569 C565 1.495 . S
C569 H575 0.959 . S
C569 H576 0.961 . S
C569 H577 0.960 . S
C570 C568 1.381 . S
C570 C571 1.394 . S
C570 H578 0.930 . S
C571 C570 1.394 . S
C571 C572 1.383 . S
C571 H579 0.929 . S
C572 C571 1.383 . S
C572 C573 1.377 . S
C573 H557 0.930 . S
C573 C572 1.377 . S
C573 C574 1.379 . S
C574 H558 0.931 . S
C574 C568 1.383 . S
C574 C573 1.379 . S
H575 C569 0.959 . S
H576 C569 0.961 . S
H577 C569 0.960 . S
H578 C570 0.930 . S
H579 C571 0.929 . S
H580 C588 0.929 . S
H581 C590 0.930 . S
H582 C592 0.930 . S
H583 C595 0.929 . S
H584 C598 0.930 . S
H585 C600 0.960 . S
H586 C600 0.960 . S
H587 C600 0.960 . S
C588 H580 0.929 . S
C588 C589 1.377 . S
C588 C590 1.384 . S
C589 C588 1.377 . S
C589 C595 1.390 . S
C590 H581 0.930 . S
C590 C588 1.384 . S
C590 C591 1.372 . S
C591 C590 1.372 . S
C591 C592 1.400 . S
C591 C596 1.490 . S
C592 H582 0.930 . S
C592 C591 1.400 . S
C592 C595 1.386 . S
H593 C609 0.930 . S
H594 C610 0.931 . S
C595 H583 0.929 . S
C595 C589 1.390 . S
C595 C592 1.386 . S
C596 C591 1.490 . S
C596 C598 1.395 . S
C596 C599 1.403 . S
H597 C603 0.930 . S
C598 H584 0.930 . S
C598 C596 1.395 . S
C598 C601 1.403 . S
C599 C596 1.403 . S
C599 C600 1.524 . S
C599 C603 1.400 . S
C600 H585 0.960 . S
C600 H586 0.960 . S
C600 H587 0.960 . S
C600 C599 1.524 . S
C601 C598 1.403 . S
C601 C602 1.392 . S
C601 C605 1.495 . S
C602 C601 1.392 . S
C602 C603 1.385 . S
C602 C604 1.478 . S
C603 H597 0.930 . S
C603 C599 1.400 . S
C603 C602 1.385 . S
C604 C602 1.478 . S
C604 C606 1.381 . S
C604 C610 1.383 . S
C605 C601 1.495 . S
C605 H611 0.959 . S
C605 H612 0.961 . S
C605 H613 0.960 . S
C606 C604 1.381 . S
C606 C607 1.394 . S
C606 H614 0.930 . S
C607 C606 1.394 . S
C607 C608 1.383 . S
C607 H615 0.929 . S
C608 C607 1.383 . S
C608 C609 1.377 . S
C609 H593 0.930 . S
C609 C608 1.377 . S
C609 C610 1.379 . S
C610 H594 0.931 . S
C610 C604 1.383 . S
C610 C609 1.379 . S
H611 C605 0.959 . S
H612 C605 0.961 . S
H613 C605 0.960 . S
H614 C606 0.930 . S
H615 C607 0.929 . S
H616 C624 0.929 . S
H617 C626 0.930 . S
H618 C628 0.930 . S
H619 C631 0.929 . S
H620 C634 0.930 . S
H621 C636 0.960 . S
H622 C636 0.960 . S
H623 C636 0.960 . S
C624 H616 0.929 . S
C624 C625 1.377 . S
C624 C626 1.384 . S
C625 C624 1.377 . S
C625 C631 1.390 . S
C626 H617 0.930 . S
C626 C624 1.384 . S
C626 C627 1.372 . S
C627 C626 1.372 . S
C627 C628 1.400 . S
C627 C632 1.490 . S
C628 H618 0.930 . S
C628 C627 1.400 . S
C628 C631 1.386 . S
H629 C645 0.930 . S
H630 C646 0.931 . S
C631 H619 0.929 . S
C631 C625 1.390 . S
C631 C628 1.386 . S
C632 C627 1.490 . S
C632 C634 1.395 . S
C632 C635 1.403 . S
H633 C639 0.930 . S
C634 H620 0.930 . S
C634 C632 1.395 . S
C634 C637 1.403 1_554 S
C635 C632 1.403 . S
C635 C636 1.524 . S
C635 C639 1.400 1_554 S
C636 H621 0.960 . S
C636 H622 0.960 . S
C636 H623 0.960 . S
C636 C635 1.524 . S
C637 C634 1.403 1_556 S
C637 C638 1.392 . S
C637 C641 1.495 . S
C638 C637 1.392 . S
C638 C639 1.385 . S
C638 C640 1.478 . S
C639 H633 0.930 . S
C639 C635 1.400 1_556 S
C639 C638 1.385 . S
C640 C638 1.478 . S
C640 C642 1.381 . S
C640 C646 1.383 . S
C641 C637 1.495 . S
C641 H647 0.959 . S
C641 H648 0.961 . S
C641 H649 0.960 . S
C642 C640 1.381 . S
C642 C643 1.394 . S
C642 H650 0.930 . S
C643 C642 1.394 . S
C643 C644 1.383 . S
C643 H651 0.929 . S
C644 C643 1.383 . S
C644 C645 1.377 . S
C645 H629 0.930 . S
C645 C644 1.377 . S
C645 C646 1.379 . S
C646 H630 0.931 . S
C646 C640 1.383 . S
C646 C645 1.379 . S
H647 C641 0.959 . S
H648 C641 0.961 . S
H649 C641 0.960 . S
H650 C642 0.930 . S
H651 C643 0.929 . S
H652 C660 0.929 . S
H653 C662 0.930 . S
H654 C664 0.930 . S
H655 C667 0.929 . S
H656 C670 0.930 . S
H657 C672 0.960 . S
H658 C672 0.960 . S
H659 C672 0.960 . S
C660 H652 0.929 . S
C660 C661 1.377 . S
C660 C662 1.384 . S
C661 C660 1.377 . S
C661 C667 1.390 . S
C662 H653 0.930 . S
C662 C660 1.384 . S
C662 C663 1.372 . S
C663 C662 1.372 . S
C663 C664 1.400 . S
C663 C668 1.490 . S
C664 H654 0.930 . S
C664 C663 1.400 . S
C664 C667 1.386 . S
H665 C681 0.930 . S
H666 C682 0.931 . S
C667 H655 0.929 . S
C667 C661 1.390 . S
C667 C664 1.386 . S
C668 C663 1.490 . S
C668 C670 1.395 . S
C668 C671 1.403 . S
H669 C675 0.930 . S
C670 H656 0.930 . S
C670 C668 1.395 . S
C670 C673 1.403 . S
C671 C668 1.403 . S
C671 C672 1.524 . S
C671 C675 1.400 . S
C672 H657 0.960 . S
C672 H658 0.960 . S
C672 H659 0.960 . S
C672 C671 1.524 . S
C673 C670 1.403 . S
C673 C674 1.392 . S
C673 C677 1.495 . S
C674 C673 1.392 . S
C674 C675 1.385 . S
C674 C676 1.478 . S
C675 H669 0.930 . S
C675 C671 1.400 . S
C675 C674 1.385 . S
C676 C674 1.478 . S
C676 C678 1.381 . S
C676 C682 1.383 . S
C677 C673 1.495 . S
C677 H683 0.959 . S
C677 H684 0.961 . S
C677 H685 0.960 . S
C678 C676 1.381 . S
C678 C679 1.394 . S
C678 H686 0.930 . S
C679 C678 1.394 . S
C679 C680 1.383 . S
C679 H687 0.929 . S
C680 C679 1.383 . S
C680 C681 1.377 . S
C681 H665 0.930 . S
C681 C680 1.377 . S
C681 C682 1.379 . S
C682 H666 0.931 . S
C682 C676 1.383 . S
C682 C681 1.379 . S
H683 C677 0.959 . S
H684 C677 0.961 . S
H685 C677 0.960 . S
H686 C678 0.930 . S
H687 C679 0.929 . S
C121 C78 1.592 . S
C140 C8 1.591 . S
C157 C105 1.535 . S
C176 C20 1.532 . S
C193 C37 1.591 . S
C212 C93 1.592 . S
C229 C49 1.541 . S
C248 C62 1.559 . S
C265 C90 1.540 . S
C284 C7 1.556 . S
C301 C23 1.590 . S
C320 C65 1.591 . S
C337 C77 1.537 . S
C356 C34 1.517 . S
C373 C50 1.592 . S
C392 C106 1.588 . S
C409 C63 1.534 . S
C428 C76 1.527 . S
C445 C22 1.590 . S
C464 C36 1.582 . S
C481 C48 1.542 . S
C500 C35 1.560 . S
C517 C51 1.591 . S
C536 C9 1.582 . S
C553 C21 1.539 . S
C572 C6 1.552 . S
C589 C104 1.543 . S
C608 C91 1.551 . S
C625 C64 1.591 . S
C644 C92 1.593 . S
C661 C79 1.592 . S
C680 C107 1.587 . S
