# Generated by pormake.
# Topology crb, (4)-cn, num edge types: 1
# Building blocks:
#     Node 0, Type 0, BuildingBlock: KUFVIS_clean_sbu_0, # of connection points: 4
#     Node 1, Type 0, BuildingBlock: KUFVIS_clean_sbu_0, # of connection points: 4
#     Node 2, Type 0, BuildingBlock: KUFVIS_clean_sbu_0, # of connection points: 4
#     Node 3, Type 0, BuildingBlock: KUFVIS_clean_sbu_0, # of connection points: 4
#     Node 4, Type 0, BuildingBlock: KUFVIS_clean_sbu_0, # of connection points: 4
#     Node 5, Type 0, BuildingBlock: KUFVIS_clean_sbu_0, # of connection points: 4
#     Node 6, Type 0, BuildingBlock: KUFVIS_clean_sbu_0, # of connection points: 4
#     Node 7, Type 0, BuildingBlock: KUFVIS_clean_sbu_0, # of connection points: 4
#     Edge 8, Type (0, 0), BuildingBlock: KIFKEQ_clean_linker_1, # of connection points: 2
#     Edge 9, Type (0, 0), BuildingBlock: KIFKEQ_clean_linker_1, # of connection points: 2
#     Edge 10, Type (0, 0), BuildingBlock: KIFKEQ_clean_linker_1, # of connection points: 2
#     Edge 11, Type (0, 0), BuildingBlock: KIFKEQ_clean_linker_1, # of connection points: 2
#     Edge 12, Type (0, 0), BuildingBlock: KIFKEQ_clean_linker_1, # of connection points: 2
#     Edge 13, Type (0, 0), BuildingBlock: KIFKEQ_clean_linker_1, # of connection points: 2
#     Edge 14, Type (0, 0), BuildingBlock: KIFKEQ_clean_linker_1, # of connection points: 2
#     Edge 15, Type (0, 0), BuildingBlock: KIFKEQ_clean_linker_1, # of connection points: 2
#     Edge 16, Type (0, 0), BuildingBlock: KIFKEQ_clean_linker_1, # of connection points: 2
#     Edge 17, Type (0, 0), BuildingBlock: KIFKEQ_clean_linker_1, # of connection points: 2
#     Edge 18, Type (0, 0), BuildingBlock: KIFKEQ_clean_linker_1, # of connection points: 2
#     Edge 19, Type (0, 0), BuildingBlock: KIFKEQ_clean_linker_1, # of connection points: 2
#     Edge 20, Type (0, 0), BuildingBlock: KIFKEQ_clean_linker_1, # of connection points: 2
#     Edge 21, Type (0, 0), BuildingBlock: KIFKEQ_clean_linker_1, # of connection points: 2
#     Edge 22, Type (0, 0), BuildingBlock: KIFKEQ_clean_linker_1, # of connection points: 2
#     Edge 23, Type (0, 0), BuildingBlock: KIFKEQ_clean_linker_1, # of connection points: 2
# Relax obj value: 0.084
# Max RMSD: 0.128
# Mean RMSD: 0.128
data_MOF--net-crb--node1-KUFVIS_clean_sbu_0--edge1-KIFKEQ_clean_linker_1
_symmetry_space_group_name_H-M    P1
_symmetry_Int_Tables_number       1
_symmetry_cell_setting            triclinic
loop_
_symmetry_equiv_pos_as_xyz
'x, y, z'
_cell_length_a     42.351431
_cell_length_b     44.332401
_cell_length_c     23.498489
_cell_angle_alpha  90.117766
_cell_angle_beta   90.013055
_cell_angle_gamma 89.281563
loop_
_atom_site_label
_atom_site_type_symbol
_atom_site_fract_x
_atom_site_fract_y
_atom_site_fract_z
_atom_type_partial_charge
Mn0 Mn 0.33111 0.3536 0.05732 0.0
Mn1 Mn 0.35651 0.2829 0.02563 0.0
C2 C 0.38424 0.34065 0.06744 0.0
C3 C 0.31951 0.40452 0.03999 0.0
C4 C 0.32057 0.29808 0.13274 0.0
O5 O 0.296 0.33848 1.00523 0.0
O6 O 0.31545 0.29166 0.98822 0.0
C7 C 0.36751 0.28998 0.90186 0.0
N8 N 0.37816 0.28187 0.95439 0.0
C9 C 0.4267 0.26209 0.91539 0.0
C10 C 0.41631 0.27025 0.86081 0.0
C11 C 0.38667 0.28445 0.85408 0.0
C12 C 0.40685 0.26869 0.96144 0.0
H13 H 0.34452 0.30041 0.8965 0.0
C14 C 0.29449 0.31245 0.98188 0.0
O15 O 0.30615 0.38964 0.08049 0.0
O16 O 0.3387 0.38942 1.00699 0.0
N17 N 0.39602 0.27112 0.05837 0.0
C18 C 0.40315 0.26625 0.11416 0.0
C19 C 0.43181 0.25195 0.12844 0.0
C20 C 0.45257 0.24246 0.0852 0.0
C21 C 0.445 0.24833 0.02812 0.0
C22 C 0.41614 0.26268 0.01653 0.0
H23 H 0.38682 0.2727 0.14745 0.0
O24 O 0.37141 0.36203 0.0978 0.0
O25 O 0.36532 0.32649 0.03313 0.0
O26 O 0.31699 0.32591 0.12147 0.0
O27 O 0.33524 0.2799 0.09995 0.0
C28 C 0.46485 0.24034 0.98226 0.0
C29 C 0.45593 0.24761 0.92598 0.0
H30 H 0.43088 0.26575 0.82379 0.0
H31 H 0.37848 0.2908 0.8121 0.0
H32 H 0.43765 0.24777 0.17258 0.0
H33 H 0.47445 0.23102 0.09636 0.0
H34 H 0.48726 0.22901 0.98987 0.0
H35 H 0.4717 0.24192 0.8912 0.0
Mn36 Mn 0.67349 0.36112 0.01622 0.0
Mn37 Mn 0.64324 0.29235 0.0426 0.0
C38 C 0.62011 0.35231 1.00316 0.0
C39 C 0.68551 0.4111 0.0386 0.0
C40 C 0.6824 0.30562 0.93853 0.0
O41 O 0.70652 0.34244 0.06994 0.0
O42 O 0.68417 0.29682 0.08285 0.0
C43 C 0.63061 0.29874 0.16604 0.0
N44 N 0.62001 0.29328 0.11231 0.0
C45 C 0.5669 0.28665 0.14595 0.0
C46 C 0.57727 0.29202 0.20168 0.0
C47 C 0.60928 0.29805 0.21175 0.0
C48 C 0.58935 0.28704 0.10221 0.0
H49 H 0.65513 0.30365 0.17397 0.0
C50 C 0.70611 0.31596 0.09179 0.0
O51 O 0.70018 0.39656 0.99841 0.0
O52 O 0.66549 0.39593 0.0687 0.0
N53 N 0.60347 0.28592 1.0065 0.0
C54 C 0.59685 0.28402 0.94985 0.0
C55 C 0.56555 0.27998 0.9322 0.0
C56 C 0.54144 0.27802 0.97292 0.0
C57 C 0.54891 0.27956 0.03099 0.0
C58 C 0.58057 0.28325 0.0461 0.0
H59 H 0.61522 0.28617 0.91833 0.0
O60 O 0.63405 0.37314 0.97404 0.0
O61 O 0.63811 0.33637 0.03659 0.0
O62 O 0.68757 0.33307 0.95123 0.0
O63 O 0.66587 0.28838 0.96957 0.0
C64 C 0.526 0.2792 0.07429 0.0
C65 C 0.53495 0.28228 0.13178 0.0
H66 H 0.5608 0.29201 0.23693 0.0
H67 H 0.61744 0.30241 0.2546 0.0
H68 H 0.55992 0.27895 0.88732 0.0
H69 H 0.51723 0.27607 0.95898 0.0
H70 H 0.50132 0.278 0.06353 0.0
H71 H 0.51694 0.28246 0.1645 0.0
Mn72 Mn 0.66831 0.68902 0.05378 0.0
Mn73 Mn 0.64284 0.76005 0.02577 0.0
C74 C 0.61545 0.70223 0.06714 0.0
C75 C 0.67896 0.63822 0.03324 0.0
C76 C 0.68027 0.74394 0.13061 0.0
O77 O 0.70252 0.70425 1.0001 0.0
O78 O 0.68346 0.75148 0.98657 0.0
C79 C 0.63045 0.75407 0.90216 0.0
N80 N 0.6204 0.76173 0.95536 0.0
C81 C 0.57152 0.78201 0.9188 0.0
C82 C 0.58129 0.77433 0.86356 0.0
C83 C 0.6108 0.7601 0.85527 0.0
C84 C 0.59184 0.77492 0.9639 0.0
H85 H 0.65334 0.74364 0.89559 0.0
C86 C 0.70406 0.73055 0.97813 0.0
O87 O 0.69358 0.65245 0.07332 0.0
O88 O 0.65898 0.65384 1.00288 0.0
N89 N 0.60374 0.77166 0.06033 0.0
C90 C 0.59718 0.77596 0.11654 0.0
C91 C 0.56864 0.79003 0.13236 0.0
C92 C 0.54741 0.79991 0.09023 0.0
C93 C 0.55442 0.79469 0.03267 0.0
C94 C 0.58316 0.78046 0.01952 0.0
H95 H 0.61386 0.76919 0.149 0.0
O96 O 0.62863 0.68064 0.09637 0.0
O97 O 0.63395 0.7165 0.03242 0.0
O98 O 0.68397 0.71623 0.118 0.0
O99 O 0.66491 0.76229 0.09934 0.0
C100 C 0.53413 0.80318 0.98781 0.0
C101 C 0.54246 0.79648 0.93095 0.0
H102 H 0.56635 0.77921 0.82724 0.0
H103 H 0.61851 0.75411 0.81277 0.0
H104 H 0.56325 0.79373 0.17687 0.0
H105 H 0.52561 0.81116 0.10259 0.0
H106 H 0.51181 0.81443 0.99663 0.0
H107 H 0.52635 0.80254 0.89693 0.0
Mn108 Mn 0.32607 0.68174 1.01141 0.0
Mn109 Mn 0.35657 0.75017 0.04071 0.0
C110 C 0.37977 0.68993 1.0019 0.0
C111 C 0.31258 0.63191 0.0314 0.0
C112 C 0.31906 0.73746 0.93427 0.0
O113 O 0.29221 0.70074 0.06318 0.0
O114 O 0.31507 0.74592 0.07898 0.0
C115 C 0.36743 0.74344 0.16459 0.0
N116 N 0.37881 0.74896 0.11146 0.0
C117 C 0.43143 0.75547 0.14771 0.0
C118 C 0.42024 0.75004 0.20285 0.0
C119 C 0.38809 0.74402 0.21131 0.0
C120 C 0.40962 0.75516 0.10291 0.0
H121 H 0.34279 0.73856 0.17126 0.0
C122 C 0.2927 0.72703 0.08605 0.0
O123 O 0.29941 0.64692 0.99033 0.0
O124 O 0.332 0.64656 0.06385 0.0
N125 N 0.39689 0.75638 1.00658 0.0
C126 C 0.40432 0.7583 0.95028 0.0
C127 C 0.43588 0.76225 0.93418 0.0
C128 C 0.4594 0.76416 0.97606 0.0
C129 C 0.45108 0.76266 0.03374 0.0
C130 C 0.41921 0.759 0.04729 0.0
H131 H 0.38641 0.75621 0.91788 0.0
O132 O 0.36613 0.66928 0.97175 0.0
O133 O 0.36139 0.70604 0.03455 0.0
O134 O 0.31378 0.70998 0.94604 0.0
O135 O 0.33497 0.7546 0.96666 0.0
C136 C 0.47336 0.76303 0.07815 0.0
C137 C 0.46356 0.75987 0.13514 0.0
H138 H 0.4362 0.74998 0.23889 0.0
H139 H 0.37931 0.73962 0.25369 0.0
H140 H 0.44217 0.76325 0.88959 0.0
H141 H 0.4838 0.76596 0.9633 0.0
H142 H 0.49819 0.76436 0.06864 0.0
H143 H 0.48109 0.7597 0.16873 0.0
Mn144 Mn 0.83183 0.85377 0.55419 0.0
Mn145 Mn 0.85695 0.78262 0.52572 0.0
C146 C 0.88467 0.84037 0.56714 0.0
C147 C 0.82136 0.90457 0.53377 0.0
C148 C 0.81976 0.79897 0.63084 0.0
O149 O 0.79744 0.83861 0.50068 0.0
O150 O 0.8163 0.7913 0.48676 0.0
C151 C 0.86915 0.78846 0.40209 0.0
N152 N 0.87927 0.78082 0.4552 0.0
C153 C 0.9281 0.76052 0.41834 0.0
C154 C 0.91825 0.76819 0.36319 0.0
C155 C 0.88874 0.78241 0.35509 0.0
C156 C 0.90783 0.76761 0.46355 0.0
H157 H 0.84626 0.79891 0.39566 0.0
C158 C 0.79576 0.8123 0.47856 0.0
O159 O 0.80677 0.89048 0.57394 0.0
O160 O 0.84122 0.88881 0.50328 0.0
N161 N 0.89606 0.77092 0.56005 0.0
C162 C 0.9027 0.76667 0.61621 0.0
C163 C 0.93128 0.75262 0.63185 0.0
C164 C 0.95245 0.74274 0.58959 0.0
C165 C 0.94535 0.7479 0.53207 0.0
C166 C 0.91658 0.76209 0.51912 0.0
H167 H 0.88608 0.77347 0.64877 0.0
O168 O 0.87166 0.86205 0.59653 0.0
O169 O 0.86601 0.82613 0.53251 0.0
O170 O 0.81618 0.82669 0.61842 0.0
O171 O 0.83498 0.78053 0.59938 0.0
C172 C 0.9656 0.73942 0.48709 0.0
C173 C 0.95719 0.74609 0.43031 0.0
H174 H 0.93316 0.7633 0.32678 0.0
H175 H 0.88098 0.78839 0.31266 0.0
H176 H 0.93674 0.74896 0.67632 0.0
H177 H 0.97427 0.7315 0.60182 0.0
H178 H 0.98794 0.72819 0.49576 0.0
H179 H 0.97327 0.74003 0.39619 0.0
Mn180 Mn 0.17385 0.861 0.51296 0.0
Mn181 Mn 0.14418 0.7921 0.54017 0.0
C182 C 0.12041 0.85203 0.50149 0.0
C183 C 0.186 0.91089 0.53549 0.0
C184 C 0.1822 0.80561 0.4348 0.0
O185 O 0.20746 0.84242 0.56549 0.0
O186 O 0.18547 0.79671 0.57917 0.0
C187 C 0.13272 0.79841 0.66399 0.0
N188 N 0.12163 0.79291 0.6106 0.0
C189 C 0.06889 0.786 0.64593 0.0
C190 C 0.07978 0.79141 0.70132 0.0
C191 C 0.11184 0.79762 0.71037 0.0
C192 C 0.09091 0.78652 0.60147 0.0
H193 H 0.15728 0.80345 0.67114 0.0
C194 C 0.20739 0.81597 0.58741 0.0
O195 O 0.20026 0.89653 0.4946 0.0
O196 O 0.16626 0.89562 0.56598 0.0
N197 N 0.10409 0.78551 0.50533 0.0
C198 C 0.09693 0.78358 0.4489 0.0
C199 C 0.06548 0.77938 0.43225 0.0
C200 C 0.04179 0.77726 0.47373 0.0
C201 C 0.04982 0.77882 0.53156 0.0
C202 C 0.0816 0.78269 0.54566 0.0
H203 H 0.11497 0.78584 0.4168 0.0
O204 O 0.134 0.87295 0.47208 0.0
O205 O 0.13877 0.83611 0.53436 0.0
O206 O 0.18738 0.83307 0.44737 0.0
O207 O 0.16611 0.78828 0.4664 0.0
C208 C 0.02735 0.77829 0.57559 0.0
C209 C 0.03685 0.78143 0.63278 0.0
H210 H 0.06366 0.79131 0.73709 0.0
H211 H 0.12039 0.80201 0.75296 0.0
H212 H 0.05942 0.77834 0.38756 0.0
H213 H 0.01747 0.77518 0.46057 0.0
H214 H 0.00258 0.77683 0.56566 0.0
H215 H 0.01917 0.78147 0.66608 0.0
Mn216 Mn 0.16962 0.1887 0.55571 0.0
Mn217 Mn 0.14472 0.25974 0.5264 0.0
C218 C 0.11678 0.20217 0.56797 0.0
C219 C 0.18014 0.13791 0.53531 0.0
C220 C 0.18132 0.24376 0.63232 0.0
O221 O 0.20427 0.2036 0.50274 0.0
O222 O 0.18556 0.25086 0.4881 0.0
C223 C 0.13305 0.25329 0.40265 0.0
N224 N 0.12272 0.26123 0.45553 0.0
C225 C 0.07402 0.2813 0.41776 0.0
C226 C 0.0841 0.27333 0.36283 0.0
C227 C 0.11365 0.25907 0.35531 0.0
C228 C 0.09412 0.27448 0.46333 0.0
H229 H 0.15596 0.24279 0.39667 0.0
C230 C 0.2061 0.22979 0.48043 0.0
O231 O 0.19455 0.15201 0.57581 0.0
O232 O 0.16041 0.15363 0.50461 0.0
N233 N 0.10547 0.27166 0.56002 0.0
C234 C 0.09861 0.27624 0.61604 0.0
C235 C 0.06999 0.29043 0.63111 0.0
C236 C 0.04901 0.3001 0.58843 0.0
C237 C 0.05632 0.29457 0.53108 0.0
C238 C 0.08514 0.28029 0.5187 0.0
H239 H 0.11508 0.26961 0.64892 0.0
O240 O 0.12967 0.18056 0.59754 0.0
O241 O 0.13554 0.21628 0.53345 0.0
O242 O 0.18496 0.21598 0.62013 0.0
O243 O 0.16634 0.2621 0.60041 0.0
C244 C 0.03624 0.30276 0.48573 0.0
C245 C 0.04487 0.29575 0.42915 0.0
H246 H 0.06934 0.278 0.32616 0.0
H247 H 0.12159 0.25285 0.31306 0.0
H248 H 0.06436 0.29436 0.67545 0.0
H249 H 0.02715 0.31143 0.60021 0.0
H250 H 0.01386 0.31403 0.49396 0.0
H251 H 0.02892 0.3016 0.39475 0.0
Mn252 Mn 0.82758 0.18167 0.51578 0.0
Mn253 Mn 0.85775 0.25049 0.54267 0.0
C254 C 0.88098 0.19049 0.50313 0.0
C255 C 0.81553 0.13173 0.53797 0.0
C256 C 0.81876 0.2371 0.43828 0.0
O257 O 0.79446 0.20038 0.56934 0.0
O258 O 0.81676 0.24602 0.58263 0.0
C259 C 0.87016 0.24419 0.66616 0.0
N260 N 0.88085 0.24962 0.61253 0.0
C261 C 0.93388 0.25639 0.64658 0.0
C262 C 0.92341 0.25104 0.70221 0.0
C263 C 0.8914 0.24495 0.71202 0.0
C264 C 0.91152 0.25591 0.60267 0.0
H265 H 0.84564 0.23924 0.67389 0.0
C266 C 0.79481 0.22688 0.59134 0.0
O267 O 0.80094 0.1462 0.49769 0.0
O268 O 0.8355 0.14694 0.56821 0.0
N269 N 0.89759 0.25691 0.50687 0.0
C270 C 0.90431 0.25879 0.45028 0.0
C271 C 0.93564 0.26291 0.43288 0.0
C272 C 0.95966 0.26498 0.47378 0.0
C273 C 0.95208 0.26344 0.53179 0.0
C274 C 0.9204 0.25967 0.54665 0.0
H275 H 0.886 0.25659 0.41862 0.0
O276 O 0.86712 0.16963 0.47383 0.0
O277 O 0.8629 0.20646 0.53649 0.0
O278 O 0.81359 0.20966 0.45081 0.0
O279 O 0.83523 0.25438 0.46951 0.0
C280 C 0.9749 0.26391 0.57526 0.0
C281 C 0.96584 0.26084 0.63267 0.0
H282 H 0.93982 0.25112 0.73758 0.0
H283 H 0.88317 0.24062 0.75479 0.0
H284 H 0.94134 0.26393 0.38804 0.0
H285 H 0.98389 0.26703 0.46004 0.0
H286 H 0.99959 0.26525 0.56471 0.0
H287 H 0.98379 0.26076 0.66552 0.0
H288 H 0.29221 0.44163 0.1185 0.0
H289 H 0.33729 0.44258 0.9536 0.0
H290 H 0.28837 0.49651 0.11742 0.0
H291 H 0.33282 0.49786 0.95227 0.0
H292 H 0.28749 0.59421 0.95213 0.0
H293 H 0.28763 0.53912 0.95258 0.0
H294 H 0.33019 0.53922 0.11941 0.0
H295 H 0.33069 0.5945 0.1187 0.0
C296 C 0.30098 0.45351 0.08163 0.0
C297 C 0.31507 0.43769 0.03603 0.0
C298 C 0.29893 0.48498 0.08131 0.0
C299 C 0.3104 0.50143 0.03495 0.0
C300 C 0.32367 0.48568 0.98849 0.0
C301 C 0.32626 0.45409 0.98925 0.0
C302 C 0.29653 0.58255 0.98929 0.0
C303 C 0.30902 0.59876 0.03552 0.0
C304 C 0.29686 0.55099 0.98921 0.0
C305 C 0.3091 0.53493 0.0358 0.0
C306 C 0.32053 0.55108 0.08297 0.0
C307 C 0.32077 0.58269 0.08261 0.0
H308 H 0.41782 0.32782 0.97117 0.0
H309 H 0.42867 0.35675 0.14483 0.0
H310 H 0.4742 0.33034 0.95677 0.0
H311 H 0.48429 0.3648 0.12857 0.0
H312 H 0.58931 0.35317 0.10339 0.0
H313 H 0.53332 0.35034 0.12025 0.0
H314 H 0.51658 0.35716 0.93859 0.0
H315 H 0.57346 0.35736 0.92266 0.0
C316 C 0.43251 0.3338 1.00691 0.0
C317 C 0.41901 0.34006 0.06018 0.0
C318 C 0.46497 0.33673 0.99801 0.0
C319 C 0.48474 0.34816 0.0411 0.0
C320 C 0.47079 0.35511 0.09425 0.0
C321 C 0.43855 0.35071 0.10378 0.0
C322 C 0.57351 0.35358 0.06711 0.0
C323 C 0.5856 0.35366 1.01165 0.0
C324 C 0.54103 0.35258 0.07667 0.0
C325 C 0.5195 0.35247 0.03087 0.0
C326 C 0.5319 0.35551 0.97526 0.0
C327 C 0.56461 0.35604 0.96581 0.0
H328 H 0.64303 0.45021 0.08676 0.0
H329 H 0.73267 0.44713 0.99922 0.0
H330 H 0.64276 0.50532 0.08141 0.0
H331 H 0.73266 0.50238 0.99516 0.0
H332 H 0.72915 0.60338 0.06615 0.0
H333 H 0.7326 0.54823 0.0687 0.0
H334 H 0.63998 0.54301 0.99312 0.0
H335 H 0.63677 0.59823 0.98928 0.0
C336 C 0.66299 0.4613 0.06747 0.0
C337 C 0.68793 0.44432 0.04356 0.0
C338 C 0.66264 0.49282 0.06384 0.0
C339 C 0.68751 0.50804 0.0373 0.0
C340 C 0.71316 0.49118 1.01574 0.0
C341 C 0.7132 0.4596 0.01825 0.0
C342 C 0.70976 0.59044 0.04915 0.0
C343 C 0.68272 0.60511 0.02734 0.0
C344 C 0.71175 0.55892 0.05069 0.0
C345 C 0.68643 0.54141 0.03167 0.0
C346 C 0.6597 0.55602 1.00857 0.0
C347 C 0.658 0.58758 1.00585 0.0
H348 H 0.42668 0.68474 0.92226 0.0
H349 H 0.41018 0.68925 0.10279 0.0
H350 H 0.48347 0.68497 0.93886 0.0
H351 H 0.46623 0.69203 0.12032 0.0
H352 H 0.57129 0.68533 0.14462 0.0
H353 H 0.51553 0.67725 0.12847 0.0
H354 H 0.52517 0.71284 0.95773 0.0
H355 H 0.5815 0.71555 0.97182 0.0
C356 C 0.43538 0.68616 0.96553 0.0
C357 C 0.41422 0.68866 1.0111 0.0
C358 C 0.46802 0.6867 0.97535 0.0
C359 C 0.48023 0.68987 0.03109 0.0
C360 C 0.45859 0.68978 0.07668 0.0
C361 C 0.42612 0.68879 0.06673 0.0
C362 C 0.56126 0.69161 0.10385 0.0
C363 C 0.58064 0.70265 0.06043 0.0
C364 C 0.52899 0.68717 0.0944 0.0
C365 C 0.51493 0.69436 0.04151 0.0
C366 C 0.53452 0.7062 0.9987 0.0
C367 C 0.56696 0.70924 1.00749 0.0
H368 H 0.86359 0.94428 0.4894 0.0
H369 H 0.77136 0.93968 0.56689 0.0
H370 H 0.86056 0.99953 0.49294 0.0
H371 H 0.76807 0.99485 0.5691 0.0
H372 H 0.7683 0.09569 0.49856 0.0
H373 H 0.76812 0.04042 0.49485 0.0
H374 H 0.85796 0.03753 0.58134 0.0
H375 H 0.85787 0.09267 0.58637 0.0
C376 C 0.84243 0.95506 0.50605 0.0
C377 C 0.81771 0.93768 0.5278 0.0
C378 C 0.84083 0.98662 0.50858 0.0
C379 C 0.81418 1.00139 0.53175 0.0
C380 C 0.78886 0.98403 0.55105 0.0
C381 C 0.79076 0.95249 0.54971 0.0
C382 C 0.78772 0.08323 0.51771 0.0
C383 C 0.81302 0.09853 0.54301 0.0
C384 C 0.78764 0.05164 0.5154 0.0
C385 C 0.81321 0.03478 0.53715 0.0
C386 C 0.83813 0.05003 0.56365 0.0
C387 C 0.83789 0.08156 0.56708 0.0
H388 H 0.09001 0.85244 0.60227 0.0
H389 H 0.07344 0.85704 0.42179 0.0
H390 H 0.034 0.8495 0.6198 0.0
H391 H 0.01664 0.85671 0.43843 0.0
H392 H 0.91834 0.82697 0.47147 0.0
H393 H 0.97469 0.82924 0.45717 0.0
H394 H 0.98487 0.86457 0.62828 0.0
H395 H 0.92908 0.8569 0.64458 0.0
C396 C 0.07406 0.85288 0.56621 0.0
C397 C 0.08594 0.85313 0.51058 0.0
C398 C 0.04161 0.85181 0.57617 0.0
C399 C 0.01993 0.8518 0.53062 0.0
C400 C 0.03211 0.85497 0.47489 0.0
C401 C 0.06476 0.85557 0.46504 0.0
C402 C 0.933 0.83311 0.50715 0.0
C403 C 0.91946 0.83974 0.56023 0.0
C404 C 0.96546 0.83589 0.49826 0.0
C405 C 0.98521 0.84752 0.54113 0.0
C406 C 0.97128 0.85478 0.59415 0.0
C407 C 0.93899 0.85059 0.60369 0.0
H408 H 0.13817 0.09825 0.48981 0.0
H409 H 0.23007 0.10283 0.56872 0.0
H410 H 0.14131 0.04301 0.49243 0.0
H411 H 0.23347 0.04764 0.56994 0.0
H412 H 0.2331 0.94695 0.49605 0.0
H413 H 0.23339 1.00225 0.49353 0.0
H414 H 0.14399 1.00496 0.58144 0.0
H415 H 0.14399 0.94981 0.58535 0.0
C416 C 0.15928 0.08747 0.5066 0.0
C417 C 0.18388 0.10483 0.52902 0.0
C418 C 0.16095 0.05591 0.50858 0.0
C419 C 0.18753 0.04115 0.53183 0.0
C420 C 0.21274 0.05848 0.55182 0.0
C421 C 0.21077 0.09002 0.55104 0.0
C422 C 0.21382 0.95938 0.51576 0.0
C423 C 0.1886 0.94405 0.54113 0.0
C424 C 0.21395 0.99097 0.51414 0.0
C425 C 0.18852 1.00777 0.53664 0.0
C426 C 0.1637 0.99249 0.56321 0.0
C427 C 0.1639 0.96096 0.56597 0.0
H428 H 0.91163 0.18979 0.60357 0.0
H429 H 0.92774 0.1854 0.4229 0.0
H430 H 0.96763 0.19268 0.62073 0.0
H431 H 0.98459 0.18567 0.43915 0.0
H432 H 0.08309 0.21535 0.47218 0.0
H433 H 0.02673 0.21289 0.45783 0.0
H434 H 0.01671 0.17792 0.62898 0.0
H435 H 0.07241 0.18585 0.64531 0.0
C436 C 0.92749 0.18935 0.56738 0.0
C437 C 0.91547 0.18919 0.51184 0.0
C438 C 0.95995 0.1904 0.57712 0.0
C439 C 0.98153 0.19046 0.53143 0.0
C440 C 0.96921 0.18735 0.47574 0.0
C441 C 0.93653 0.18678 0.46611 0.0
C442 C 0.06845 0.20927 0.50785 0.0
C443 C 0.082 0.20282 0.56096 0.0
C444 C 0.03599 0.20637 0.49893 0.0
C445 C 0.01627 0.1948 0.54182 0.0
C446 C 0.03023 0.1877 0.59484 0.0
C447 C 0.06249 0.19204 0.6044 0.0
H448 H 0.23007 0.19248 0.39785 0.0
H449 H 0.2377 0.28204 0.46826 0.0
H450 H 0.26129 0.20783 0.31544 0.0
H451 H 0.26994 0.2971 0.38775 0.0
H452 H 0.27924 0.32675 0.20431 0.0
H453 H 0.25691 0.30816 0.29221 0.0
H454 H 0.3098 0.22474 0.27311 0.0
H455 H 0.33157 0.24312 0.18353 0.0
C456 C 0.23944 0.2151 0.39665 0.0
C457 C 0.23132 0.23617 0.43905 0.0
C458 C 0.25726 0.22396 0.3494 0.0
C459 C 0.26752 0.25395 0.34422 0.0
C460 C 0.2616 0.27412 0.38936 0.0
C461 C 0.24344 0.26542 0.43586 0.0
C462 C 0.28627 0.30447 0.21878 0.0
C463 C 0.30724 0.28648 0.18672 0.0
C464 C 0.27363 0.29385 0.26964 0.0
C465 C 0.28184 0.26504 0.29035 0.0
C466 C 0.30282 0.24695 0.25832 0.0
C467 C 0.31535 0.25754 0.20701 0.0
H468 H 0.73206 0.26031 0.10568 0.0
H469 H 0.73364 0.35059 0.1744 0.0
H470 H 0.76285 0.24203 0.18617 0.0
H471 H 0.76351 0.33215 0.25675 0.0
H472 H 0.77417 0.21186 0.36931 0.0
H473 H 0.75148 0.23227 0.28247 0.0
H474 H 0.81053 0.3107 0.29742 0.0
H475 H 0.83257 0.29064 0.3857 0.0
C476 C 0.73946 0.27634 0.13776 0.0
C477 C 0.7304 0.30685 0.13387 0.0
C478 C 0.75678 0.26581 0.18433 0.0
C479 C 0.76505 0.2854 0.22891 0.0
C480 C 0.75767 0.31637 0.22325 0.0
C481 C 0.74063 0.32702 0.17598 0.0
C482 C 0.78243 0.23342 0.35413 0.0
C483 C 0.80522 0.24954 0.38471 0.0
C484 C 0.76957 0.24509 0.30388 0.0
C485 C 0.77935 0.27309 0.28231 0.0
C486 C 0.80219 0.28923 0.31286 0.0
C487 C 0.81492 0.27764 0.36348 0.0
H488 H 0.77111 0.84948 0.39656 0.0
H489 H 0.76526 0.7595 0.46504 0.0
H490 H 0.74009 0.8339 0.31393 0.0
H491 H 0.7333 0.74417 0.38422 0.0
H492 H 0.72271 0.71523 0.20013 0.0
H493 H 0.74567 0.73365 0.28796 0.0
H494 H 0.69158 0.81655 0.27254 0.0
H495 H 0.66922 0.79841 0.18326 0.0
C496 C 0.7622 0.82669 0.39488 0.0
C497 C 0.77073 0.80562 0.43685 0.0
C498 C 0.7445 0.81769 0.34749 0.0
C499 C 0.73479 0.78754 0.34169 0.0
C500 C 0.74121 0.76728 0.3863 0.0
C501 C 0.75921 0.77613 0.43299 0.0
C502 C 0.7156 0.73736 0.2154 0.0
C503 C 0.69411 0.75529 0.18448 0.0
C504 C 0.72859 0.74787 0.26619 0.0
C505 C 0.72024 0.77651 0.28788 0.0
C506 C 0.69873 0.7945 0.25697 0.0
C507 C 0.68586 0.78404 0.2058 0.0
H508 H 0.22606 0.83095 0.36465 0.0
H509 H 0.16785 0.75214 0.38205 0.0
H510 H 0.24785 0.81064 0.27685 0.0
H511 H 0.18895 0.73219 0.29282 0.0
H512 H 0.26505 0.69232 0.16791 0.0
H513 H 0.23548 0.71074 0.25068 0.0
H514 H 0.23586 0.80087 0.18079 0.0
H515 H 0.26643 0.78258 0.09987 0.0
C516 C 0.21764 0.80941 0.34948 0.0
C517 C 0.19519 0.79324 0.38065 0.0
C518 C 0.22997 0.7978 0.29868 0.0
C519 C 0.21998 0.76982 0.27711 0.0
C520 C 0.19745 0.75365 0.30822 0.0
C521 C 0.18526 0.76517 0.3594 0.0
C522 C 0.258 0.71587 0.16967 0.0
C523 C 0.26813 0.73604 0.12766 0.0
C524 C 0.24114 0.72652 0.21722 0.0
C525 C 0.23384 0.75749 0.22325 0.0
C526 C 0.24189 0.77708 0.17867 0.0
C527 C 0.25906 0.76655 0.13182 0.0
H528 H 0.23448 0.76073 0.60021 0.0
H529 H 0.2345 0.85079 0.67003 0.0
H530 H 0.26562 0.74267 0.68047 0.0
H531 H 0.26464 0.83256 0.75221 0.0
H532 H 0.33308 0.79132 0.88273 0.0
H533 H 0.31171 0.81147 0.79385 0.0
H534 H 0.25356 0.73257 0.77627 0.0
H535 H 0.27553 0.71213 0.86351 0.0
C536 C 0.24164 0.77677 0.63244 0.0
C537 C 0.23201 0.80713 0.629 0.0
C538 C 0.25917 0.76637 0.67888 0.0
C539 C 0.267 0.78594 0.72378 0.0
C540 C 0.25914 0.81681 0.71847 0.0
C541 C 0.24194 0.82733 0.6713 0.0
C542 C 0.31579 0.77824 0.85974 0.0
C543 C 0.30611 0.75002 0.88034 0.0
C544 C 0.30346 0.78987 0.8088 0.0
C545 C 0.28106 0.77361 0.77735 0.0
C546 C 0.27134 0.74547 0.79832 0.0
C547 C 0.28379 0.73379 0.84883 0.0
H548 H 0.2702 0.34967 0.89976 0.0
H549 H 0.26335 0.25998 0.96911 0.0
H550 H 0.23957 0.33403 0.81671 0.0
H551 H 0.23172 0.24458 0.88786 0.0
H552 H 0.17006 0.29847 0.68395 0.0
H553 H 0.1915 0.31677 0.77384 0.0
H554 H 0.2449 0.23363 0.79216 0.0
H555 H 0.22282 0.21505 0.70369 0.0
C556 C 0.26108 0.32696 0.89822 0.0
C557 C 0.26923 0.30597 0.94055 0.0
C558 C 0.24362 0.31791 0.85056 0.0
C559 C 0.23379 0.2878 0.84486 0.0
C560 C 0.23974 0.26766 0.88987 0.0
C561 C 0.2575 0.27656 0.93683 0.0
C562 C 0.18635 0.28408 0.70725 0.0
C563 C 0.19467 0.25522 0.68653 0.0
C564 C 0.19869 0.29463 0.75878 0.0
C565 C 0.21973 0.27663 0.79069 0.0
C566 C 0.22815 0.24788 0.76962 0.0
C567 C 0.21568 0.23727 0.71846 0.0
H568 H 0.72703 0.33082 0.86983 0.0
H569 H 0.66852 0.2521 0.88553 0.0
H570 H 0.74962 0.31042 0.78275 0.0
H571 H 0.69047 0.23207 0.79702 0.0
H572 H 0.76729 0.1922 0.67355 0.0
H573 H 0.73747 0.21061 0.7561 0.0
H574 H 0.73808 0.30076 0.68634 0.0
H575 H 0.76882 0.28251 0.60565 0.0
C576 C 0.71873 0.30927 0.85445 0.0
C577 C 0.69593 0.29316 0.88489 0.0
C578 C 0.73153 0.29762 0.80407 0.0
C579 C 0.72169 0.26965 0.78223 0.0
C580 C 0.69885 0.25351 0.81267 0.0
C581 C 0.68618 0.26509 0.86341 0.0
C582 C 0.76029 0.21577 0.67535 0.0
C583 C 0.77051 0.23596 0.63342 0.0
C584 C 0.74328 0.2264 0.72274 0.0
C585 C 0.73592 0.25736 0.72869 0.0
C586 C 0.74414 0.27698 0.68427 0.0
C587 C 0.76144 0.26646 0.63758 0.0
H588 H 0.73428 0.78349 0.96483 0.0
H589 H 0.72885 0.69344 0.89587 0.0
H590 H 0.76626 0.79888 0.88423 0.0
H591 H 0.75987 0.70907 0.81342 0.0
H592 H 0.83077 0.74454 0.68327 0.0
H593 H 0.8083 0.72645 0.77232 0.0
H594 H 0.75422 0.80938 0.78801 0.0
H595 H 0.77732 0.82776 0.70043 0.0
C596 C 0.74042 0.76686 0.9327 0.0
C597 C 0.72902 0.73733 0.9364 0.0
C598 C 0.75843 0.77574 0.88612 0.0
C599 C 0.76498 0.75547 0.84144 0.0
C600 C 0.75536 0.7253 0.84703 0.0
C601 C 0.73765 0.71626 0.89432 0.0
C602 C 0.81411 0.75894 0.70583 0.0
C603 C 0.80591 0.78768 0.68465 0.0
C604 C 0.80117 0.7485 0.75686 0.0
C605 C 0.77962 0.7665 0.78779 0.0
C606 C 0.77132 0.79514 0.76625 0.0
C607 C 0.7844 0.80564 0.7156 0.0
loop_
_geom_bond_atom_site_label_1
_geom_bond_atom_site_label_2
_geom_bond_distance
_geom_bond_site_symmetry_2
_ccdc_geom_bond_type
Mn0 O5 2.095 1_554 S
Mn0 O15 2.162 . S
Mn0 O16 2.297 1_554 S
Mn0 O24 2.385 . S
Mn0 O25 2.209 . S
Mn0 O26 2.094 . S
Mn1 O6 2.121 1_554 S
Mn1 N8 2.257 1_554 S
Mn1 N17 2.282 . S
Mn1 O25 2.215 . S
Mn1 O27 2.117 . S
C2 O24 1.234 . S
C2 O25 1.283 . S
C3 O15 1.281 . S
C3 O16 1.236 1_554 S
C4 O26 1.240 . S
C4 O27 1.264 . S
O5 Mn0 2.095 1_556 S
O5 C14 1.250 . S
O6 Mn1 2.121 1_556 S
O6 C14 1.258 . S
C7 N8 1.326 . S
C7 C11 1.460 . S
C7 H13 0.929 . S
N8 Mn1 2.257 1_556 S
N8 C7 1.326 . S
N8 C12 1.362 . S
C9 C10 1.258 . S
C9 C12 1.431 . S
C9 C29 1.449 . S
C10 C9 1.258 . S
C10 C11 1.477 . S
C10 H30 0.931 . S
C11 C7 1.460 . S
C11 C10 1.477 . S
C11 H31 0.930 . S
C12 N8 1.362 . S
C12 C9 1.431 . S
C12 C22 1.476 1_556 S
H13 C7 0.929 . S
C14 O5 1.250 . S
C14 O6 1.258 . S
O15 Mn0 2.162 . S
O15 C3 1.281 . S
O16 Mn0 2.297 1_556 S
O16 C3 1.236 1_556 S
N17 Mn1 2.282 . S
N17 C18 1.328 . S
N17 C22 1.318 . S
C18 N17 1.328 . S
C18 C19 1.457 . S
C18 H23 0.929 . S
C19 C18 1.457 . S
C19 C20 1.291 . S
C19 H32 0.931 . S
C20 C19 1.291 . S
C20 C21 1.373 . S
C20 H33 0.929 . S
C21 C20 1.373 . S
C21 C22 1.396 . S
C21 C28 1.403 . S
C22 C12 1.476 1_554 S
C22 N17 1.318 . S
C22 C21 1.396 . S
H23 C18 0.929 . S
O24 Mn0 2.385 . S
O24 C2 1.234 . S
O25 Mn0 2.209 . S
O25 Mn1 2.215 . S
O25 C2 1.283 . S
O26 Mn0 2.094 . S
O26 C4 1.240 . S
O27 Mn1 2.117 . S
O27 C4 1.264 . S
C28 C21 1.403 . S
C28 C29 1.399 1_554 S
C28 H34 0.929 . S
C29 C9 1.449 . S
C29 C28 1.399 1_556 S
C29 H35 0.930 . S
H30 C10 0.931 . S
H31 C11 0.930 . S
H32 C19 0.931 . S
H33 C20 0.929 . S
H34 C28 0.929 . S
H35 C29 0.930 . S
Mn36 O41 2.095 1_556 S
Mn36 O51 2.162 . S
Mn36 O52 2.297 1_556 S
Mn36 O60 2.385 . S
Mn36 O61 2.209 1_556 S
Mn36 O62 2.094 . S
Mn37 O42 2.121 . S
Mn37 N44 2.257 . S
Mn37 N53 2.282 1_554 S
Mn37 O61 2.215 . S
Mn37 O63 2.117 1_554 S
C38 O60 1.234 . S
C38 O61 1.283 1_556 S
C39 O51 1.281 1_554 S
C39 O52 1.236 . S
C40 O62 1.240 . S
C40 O63 1.264 . S
O41 Mn36 2.095 1_554 S
O41 C50 1.250 . S
O42 Mn37 2.121 . S
O42 C50 1.258 . S
C43 N44 1.326 . S
C43 C47 1.460 . S
C43 H49 0.929 . S
N44 Mn37 2.257 . S
N44 C43 1.326 . S
N44 C48 1.362 . S
C45 C46 1.258 . S
C45 C48 1.431 . S
C45 C65 1.449 . S
C46 C45 1.258 . S
C46 C47 1.477 . S
C46 H66 0.931 . S
C47 C43 1.460 . S
C47 C46 1.477 . S
C47 H67 0.930 . S
C48 N44 1.362 . S
C48 C45 1.431 . S
C48 C58 1.476 1_554 S
H49 C43 0.929 . S
C50 O41 1.250 . S
C50 O42 1.258 . S
O51 Mn36 2.162 . S
O51 C39 1.281 1_556 S
O52 Mn36 2.297 1_554 S
O52 C39 1.236 . S
N53 Mn37 2.282 1_556 S
N53 C54 1.328 . S
N53 C58 1.318 . S
C54 N53 1.328 . S
C54 C55 1.457 . S
C54 H59 0.929 . S
C55 C54 1.457 . S
C55 C56 1.291 . S
C55 H68 0.931 . S
C56 C55 1.291 . S
C56 C57 1.373 . S
C56 H69 0.929 . S
C57 C56 1.373 . S
C57 C58 1.396 . S
C57 C64 1.403 1_556 S
C58 C48 1.476 1_556 S
C58 N53 1.318 . S
C58 C57 1.396 . S
H59 C54 0.929 . S
O60 Mn36 2.385 . S
O60 C38 1.234 . S
O61 Mn36 2.209 1_554 S
O61 Mn37 2.215 . S
O61 C38 1.283 1_554 S
O62 Mn36 2.094 . S
O62 C40 1.240 . S
O63 Mn37 2.117 1_556 S
O63 C40 1.264 . S
C64 C57 1.403 1_554 S
C64 C65 1.399 . S
C64 H70 0.929 1_554 S
C65 C45 1.449 . S
C65 C64 1.399 . S
C65 H71 0.930 . S
H66 C46 0.931 . S
H67 C47 0.930 . S
H68 C55 0.931 . S
H69 C56 0.929 . S
H70 C64 0.929 1_556 S
H71 C65 0.930 . S
Mn72 O77 2.095 1_554 S
Mn72 O87 2.162 . S
Mn72 O88 2.297 1_554 S
Mn72 O96 2.385 . S
Mn72 O97 2.209 . S
Mn72 O98 2.094 . S
Mn73 O78 2.121 1_554 S
Mn73 N80 2.257 1_554 S
Mn73 N89 2.282 . S
Mn73 O97 2.215 . S
Mn73 O99 2.117 . S
C74 O96 1.234 . S
C74 O97 1.283 . S
C75 O87 1.281 . S
C75 O88 1.236 1_554 S
C76 O98 1.240 . S
C76 O99 1.264 . S
O77 Mn72 2.095 1_556 S
O77 C86 1.250 . S
O78 Mn73 2.121 1_556 S
O78 C86 1.258 . S
C79 N80 1.326 . S
C79 C83 1.460 . S
C79 H85 0.929 . S
N80 Mn73 2.257 1_556 S
N80 C79 1.326 . S
N80 C84 1.362 . S
C81 C82 1.258 . S
C81 C84 1.431 . S
C81 C101 1.449 . S
C82 C81 1.258 . S
C82 C83 1.477 . S
C82 H102 0.931 . S
C83 C79 1.460 . S
C83 C82 1.477 . S
C83 H103 0.930 . S
C84 N80 1.362 . S
C84 C81 1.431 . S
C84 C94 1.476 1_556 S
H85 C79 0.929 . S
C86 O77 1.250 . S
C86 O78 1.258 . S
O87 Mn72 2.162 . S
O87 C75 1.281 . S
O88 Mn72 2.297 1_556 S
O88 C75 1.236 1_556 S
N89 Mn73 2.282 . S
N89 C90 1.328 . S
N89 C94 1.318 . S
C90 N89 1.328 . S
C90 C91 1.457 . S
C90 H95 0.929 . S
C91 C90 1.457 . S
C91 C92 1.291 . S
C91 H104 0.931 . S
C92 C91 1.291 . S
C92 C93 1.373 . S
C92 H105 0.929 . S
C93 C92 1.373 . S
C93 C94 1.396 . S
C93 C100 1.403 . S
C94 C84 1.476 1_554 S
C94 N89 1.318 . S
C94 C93 1.396 . S
H95 C90 0.929 . S
O96 Mn72 2.385 . S
O96 C74 1.234 . S
O97 Mn72 2.209 . S
O97 Mn73 2.215 . S
O97 C74 1.283 . S
O98 Mn72 2.094 . S
O98 C76 1.240 . S
O99 Mn73 2.117 . S
O99 C76 1.264 . S
C100 C93 1.403 . S
C100 C101 1.399 1_554 S
C100 H106 0.929 . S
C101 C81 1.449 . S
C101 C100 1.399 1_556 S
C101 H107 0.930 . S
H102 C82 0.931 . S
H103 C83 0.930 . S
H104 C91 0.931 . S
H105 C92 0.929 . S
H106 C100 0.929 . S
H107 C101 0.930 . S
Mn108 O113 2.095 1_556 S
Mn108 O123 2.162 . S
Mn108 O124 2.297 1_556 S
Mn108 O132 2.385 . S
Mn108 O133 2.209 1_556 S
Mn108 O134 2.094 . S
Mn109 O114 2.121 . S
Mn109 N116 2.257 . S
Mn109 N125 2.282 1_554 S
Mn109 O133 2.215 . S
Mn109 O135 2.117 1_554 S
C110 O132 1.234 . S
C110 O133 1.283 1_556 S
C111 O123 1.281 1_554 S
C111 O124 1.236 . S
C112 O134 1.240 . S
C112 O135 1.264 . S
O113 Mn108 2.095 1_554 S
O113 C122 1.250 . S
O114 Mn109 2.121 . S
O114 C122 1.258 . S
C115 N116 1.326 . S
C115 C119 1.460 . S
C115 H121 0.929 . S
N116 Mn109 2.257 . S
N116 C115 1.326 . S
N116 C120 1.362 . S
C117 C118 1.258 . S
C117 C120 1.431 . S
C117 C137 1.449 . S
C118 C117 1.258 . S
C118 C119 1.477 . S
C118 H138 0.931 . S
C119 C115 1.460 . S
C119 C118 1.477 . S
C119 H139 0.930 . S
C120 N116 1.362 . S
C120 C117 1.431 . S
C120 C130 1.476 1_554 S
H121 C115 0.929 . S
C122 O113 1.250 . S
C122 O114 1.258 . S
O123 Mn108 2.162 . S
O123 C111 1.281 1_556 S
O124 Mn108 2.297 1_554 S
O124 C111 1.236 . S
N125 Mn109 2.282 1_556 S
N125 C126 1.328 . S
N125 C130 1.318 . S
C126 N125 1.328 . S
C126 C127 1.457 . S
C126 H131 0.929 . S
C127 C126 1.457 . S
C127 C128 1.291 . S
C127 H140 0.931 . S
C128 C127 1.291 . S
C128 C129 1.373 . S
C128 H141 0.929 . S
C129 C128 1.373 . S
C129 C130 1.396 . S
C129 C136 1.403 1_556 S
C130 C120 1.476 1_556 S
C130 N125 1.318 . S
C130 C129 1.396 . S
H131 C126 0.929 . S
O132 Mn108 2.385 . S
O132 C110 1.234 . S
O133 Mn108 2.209 1_554 S
O133 Mn109 2.215 . S
O133 C110 1.283 1_554 S
O134 Mn108 2.094 . S
O134 C112 1.240 . S
O135 Mn109 2.117 1_556 S
O135 C112 1.264 . S
C136 C129 1.403 1_554 S
C136 C137 1.399 . S
C136 H142 0.929 1_554 S
C137 C117 1.449 . S
C137 C136 1.399 . S
C137 H143 0.930 . S
H138 C118 0.931 . S
H139 C119 0.930 . S
H140 C127 0.931 . S
H141 C128 0.929 . S
H142 C136 0.929 1_556 S
H143 C137 0.930 . S
Mn144 O149 2.095 . S
Mn144 O159 2.162 . S
Mn144 O160 2.297 . S
Mn144 O168 2.385 . S
Mn144 O169 2.209 . S
Mn144 O170 2.094 . S
Mn145 O150 2.121 . S
Mn145 N152 2.257 . S
Mn145 N161 2.282 . S
Mn145 O169 2.215 . S
Mn145 O171 2.117 . S
C146 O168 1.234 . S
C146 O169 1.283 . S
C147 O159 1.281 . S
C147 O160 1.236 . S
C148 O170 1.240 . S
C148 O171 1.264 . S
O149 Mn144 2.095 . S
O149 C158 1.250 . S
O150 Mn145 2.121 . S
O150 C158 1.258 . S
C151 N152 1.326 . S
C151 C155 1.460 . S
C151 H157 0.929 . S
N152 Mn145 2.257 . S
N152 C151 1.326 . S
N152 C156 1.362 . S
C153 C154 1.258 . S
C153 C156 1.431 . S
C153 C173 1.449 . S
C154 C153 1.258 . S
C154 C155 1.477 . S
C154 H174 0.931 . S
C155 C151 1.460 . S
C155 C154 1.477 . S
C155 H175 0.930 . S
C156 N152 1.362 . S
C156 C153 1.431 . S
C156 C166 1.476 . S
H157 C151 0.929 . S
C158 O149 1.250 . S
C158 O150 1.258 . S
O159 Mn144 2.162 . S
O159 C147 1.281 . S
O160 Mn144 2.297 . S
O160 C147 1.236 . S
N161 Mn145 2.282 . S
N161 C162 1.328 . S
N161 C166 1.318 . S
C162 N161 1.328 . S
C162 C163 1.457 . S
C162 H167 0.929 . S
C163 C162 1.457 . S
C163 C164 1.291 . S
C163 H176 0.931 . S
C164 C163 1.291 . S
C164 C165 1.373 . S
C164 H177 0.929 . S
C165 C164 1.373 . S
C165 C166 1.396 . S
C165 C172 1.403 . S
C166 C156 1.476 . S
C166 N161 1.318 . S
C166 C165 1.396 . S
H167 C162 0.929 . S
O168 Mn144 2.385 . S
O168 C146 1.234 . S
O169 Mn144 2.209 . S
O169 Mn145 2.215 . S
O169 C146 1.283 . S
O170 Mn144 2.094 . S
O170 C148 1.240 . S
O171 Mn145 2.117 . S
O171 C148 1.264 . S
C172 C165 1.403 . S
C172 C173 1.399 . S
C172 H178 0.929 . S
C173 C153 1.449 . S
C173 C172 1.399 . S
C173 H179 0.930 . S
H174 C154 0.931 . S
H175 C155 0.930 . S
H176 C163 0.931 . S
H177 C164 0.929 . S
H178 C172 0.929 . S
H179 C173 0.930 . S
Mn180 O185 2.095 . S
Mn180 O195 2.162 . S
Mn180 O196 2.297 . S
Mn180 O204 2.385 . S
Mn180 O205 2.209 . S
Mn180 O206 2.094 . S
Mn181 O186 2.121 . S
Mn181 N188 2.257 . S
Mn181 N197 2.282 . S
Mn181 O205 2.215 . S
Mn181 O207 2.117 . S
C182 O204 1.234 . S
C182 O205 1.283 . S
C183 O195 1.281 . S
C183 O196 1.236 . S
C184 O206 1.240 . S
C184 O207 1.264 . S
O185 Mn180 2.095 . S
O185 C194 1.250 . S
O186 Mn181 2.121 . S
O186 C194 1.258 . S
C187 N188 1.326 . S
C187 C191 1.460 . S
C187 H193 0.929 . S
N188 Mn181 2.257 . S
N188 C187 1.326 . S
N188 C192 1.362 . S
C189 C190 1.258 . S
C189 C192 1.431 . S
C189 C209 1.449 . S
C190 C189 1.258 . S
C190 C191 1.477 . S
C190 H210 0.931 . S
C191 C187 1.460 . S
C191 C190 1.477 . S
C191 H211 0.930 . S
C192 N188 1.362 . S
C192 C189 1.431 . S
C192 C202 1.476 . S
H193 C187 0.929 . S
C194 O185 1.250 . S
C194 O186 1.258 . S
O195 Mn180 2.162 . S
O195 C183 1.281 . S
O196 Mn180 2.297 . S
O196 C183 1.236 . S
N197 Mn181 2.282 . S
N197 C198 1.328 . S
N197 C202 1.318 . S
C198 N197 1.328 . S
C198 C199 1.457 . S
C198 H203 0.929 . S
C199 C198 1.457 . S
C199 C200 1.291 . S
C199 H212 0.931 . S
C200 C199 1.291 . S
C200 C201 1.373 . S
C200 H213 0.929 . S
C201 C200 1.373 . S
C201 C202 1.396 . S
C201 C208 1.403 . S
C202 C192 1.476 . S
C202 N197 1.318 . S
C202 C201 1.396 . S
H203 C198 0.929 . S
O204 Mn180 2.385 . S
O204 C182 1.234 . S
O205 Mn180 2.209 . S
O205 Mn181 2.215 . S
O205 C182 1.283 . S
O206 Mn180 2.094 . S
O206 C184 1.240 . S
O207 Mn181 2.117 . S
O207 C184 1.264 . S
C208 C201 1.403 . S
C208 C209 1.399 . S
C208 H214 0.929 . S
C209 C189 1.449 . S
C209 C208 1.399 . S
C209 H215 0.930 . S
H210 C190 0.931 . S
H211 C191 0.930 . S
H212 C199 0.931 . S
H213 C200 0.929 . S
H214 C208 0.929 . S
H215 C209 0.930 . S
Mn216 O221 2.095 . S
Mn216 O231 2.162 . S
Mn216 O232 2.297 . S
Mn216 O240 2.385 . S
Mn216 O241 2.209 . S
Mn216 O242 2.094 . S
Mn217 O222 2.121 . S
Mn217 N224 2.257 . S
Mn217 N233 2.282 . S
Mn217 O241 2.215 . S
Mn217 O243 2.117 . S
C218 O240 1.234 . S
C218 O241 1.283 . S
C219 O231 1.281 . S
C219 O232 1.236 . S
C220 O242 1.240 . S
C220 O243 1.264 . S
O221 Mn216 2.095 . S
O221 C230 1.250 . S
O222 Mn217 2.121 . S
O222 C230 1.258 . S
C223 N224 1.326 . S
C223 C227 1.460 . S
C223 H229 0.929 . S
N224 Mn217 2.257 . S
N224 C223 1.326 . S
N224 C228 1.362 . S
C225 C226 1.258 . S
C225 C228 1.431 . S
C225 C245 1.449 . S
C226 C225 1.258 . S
C226 C227 1.477 . S
C226 H246 0.931 . S
C227 C223 1.460 . S
C227 C226 1.477 . S
C227 H247 0.930 . S
C228 N224 1.362 . S
C228 C225 1.431 . S
C228 C238 1.476 . S
H229 C223 0.929 . S
C230 O221 1.250 . S
C230 O222 1.258 . S
O231 Mn216 2.162 . S
O231 C219 1.281 . S
O232 Mn216 2.297 . S
O232 C219 1.236 . S
N233 Mn217 2.282 . S
N233 C234 1.328 . S
N233 C238 1.318 . S
C234 N233 1.328 . S
C234 C235 1.457 . S
C234 H239 0.929 . S
C235 C234 1.457 . S
C235 C236 1.291 . S
C235 H248 0.931 . S
C236 C235 1.291 . S
C236 C237 1.373 . S
C236 H249 0.929 . S
C237 C236 1.373 . S
C237 C238 1.396 . S
C237 C244 1.403 . S
C238 C228 1.476 . S
C238 N233 1.318 . S
C238 C237 1.396 . S
H239 C234 0.929 . S
O240 Mn216 2.385 . S
O240 C218 1.234 . S
O241 Mn216 2.209 . S
O241 Mn217 2.215 . S
O241 C218 1.283 . S
O242 Mn216 2.094 . S
O242 C220 1.240 . S
O243 Mn217 2.117 . S
O243 C220 1.264 . S
C244 C237 1.403 . S
C244 C245 1.399 . S
C244 H250 0.929 . S
C245 C225 1.449 . S
C245 C244 1.399 . S
C245 H251 0.930 . S
H246 C226 0.931 . S
H247 C227 0.930 . S
H248 C235 0.931 . S
H249 C236 0.929 . S
H250 C244 0.929 . S
H251 C245 0.930 . S
Mn252 O257 2.095 . S
Mn252 O267 2.162 . S
Mn252 O268 2.297 . S
Mn252 O276 2.385 . S
Mn252 O277 2.209 . S
Mn252 O278 2.094 . S
Mn253 O258 2.121 . S
Mn253 N260 2.257 . S
Mn253 N269 2.282 . S
Mn253 O277 2.215 . S
Mn253 O279 2.117 . S
C254 O276 1.234 . S
C254 O277 1.283 . S
C255 O267 1.281 . S
C255 O268 1.236 . S
C256 O278 1.240 . S
C256 O279 1.264 . S
O257 Mn252 2.095 . S
O257 C266 1.250 . S
O258 Mn253 2.121 . S
O258 C266 1.258 . S
C259 N260 1.326 . S
C259 C263 1.460 . S
C259 H265 0.929 . S
N260 Mn253 2.257 . S
N260 C259 1.326 . S
N260 C264 1.362 . S
C261 C262 1.258 . S
C261 C264 1.431 . S
C261 C281 1.449 . S
C262 C261 1.258 . S
C262 C263 1.477 . S
C262 H282 0.931 . S
C263 C259 1.460 . S
C263 C262 1.477 . S
C263 H283 0.930 . S
C264 N260 1.362 . S
C264 C261 1.431 . S
C264 C274 1.476 . S
H265 C259 0.929 . S
C266 O257 1.250 . S
C266 O258 1.258 . S
O267 Mn252 2.162 . S
O267 C255 1.281 . S
O268 Mn252 2.297 . S
O268 C255 1.236 . S
N269 Mn253 2.282 . S
N269 C270 1.328 . S
N269 C274 1.318 . S
C270 N269 1.328 . S
C270 C271 1.457 . S
C270 H275 0.929 . S
C271 C270 1.457 . S
C271 C272 1.291 . S
C271 H284 0.931 . S
C272 C271 1.291 . S
C272 C273 1.373 . S
C272 H285 0.929 . S
C273 C272 1.373 . S
C273 C274 1.396 . S
C273 C280 1.403 . S
C274 C264 1.476 . S
C274 N269 1.318 . S
C274 C273 1.396 . S
H275 C270 0.929 . S
O276 Mn252 2.385 . S
O276 C254 1.234 . S
O277 Mn252 2.209 . S
O277 Mn253 2.215 . S
O277 C254 1.283 . S
O278 Mn252 2.094 . S
O278 C256 1.240 . S
O279 Mn253 2.117 . S
O279 C256 1.264 . S
C280 C273 1.403 . S
C280 C281 1.399 . S
C280 H286 0.929 . S
C281 C261 1.449 . S
C281 C280 1.399 . S
C281 H287 0.930 . S
H282 C262 0.931 . S
H283 C263 0.930 . S
H284 C271 0.931 . S
H285 C272 0.929 . S
H286 C280 0.929 . S
H287 C281 0.930 . S
H288 C296 0.950 . S
H289 C301 0.950 . S
H290 C298 0.950 . S
H291 C300 0.950 . S
H292 C302 0.950 . S
H293 C304 0.950 . S
H294 C306 0.950 . S
H295 C307 0.950 . S
C296 H288 0.950 . S
C296 C297 1.386 . S
C296 C298 1.391 . S
C297 C296 1.386 . S
C297 C301 1.393 1_554 S
C298 H290 0.950 . S
C298 C296 1.391 . S
C298 C299 1.400 . S
C299 C298 1.400 . S
C299 C300 1.398 1_554 S
C299 C305 1.491 . S
C300 H291 0.950 . S
C300 C299 1.398 1_556 S
C300 C301 1.391 . S
C301 H289 0.950 . S
C301 C297 1.393 1_556 S
C301 C300 1.391 . S
C302 H292 0.950 . S
C302 C303 1.386 1_556 S
C302 C304 1.391 . S
C303 C302 1.386 1_554 S
C303 C307 1.393 . S
C304 H293 0.950 . S
C304 C302 1.391 . S
C304 C305 1.400 1_556 S
C305 C299 1.491 . S
C305 C304 1.400 1_554 S
C305 C306 1.398 . S
C306 H294 0.950 . S
C306 C305 1.398 . S
C306 C307 1.391 . S
C307 H295 0.950 . S
C307 C303 1.393 . S
C307 C306 1.391 . S
H308 C316 0.950 . S
H309 C321 0.950 . S
H310 C318 0.950 . S
H311 C320 0.950 . S
H312 C322 0.950 . S
H313 C324 0.950 . S
H314 C326 0.950 . S
H315 C327 0.950 . S
C316 H308 0.950 . S
C316 C317 1.386 1_556 S
C316 C318 1.391 . S
C317 C316 1.386 1_554 S
C317 C321 1.393 . S
C318 H310 0.950 . S
C318 C316 1.391 . S
C318 C319 1.400 1_556 S
C319 C318 1.400 1_554 S
C319 C320 1.398 . S
C319 C325 1.491 . S
C320 H311 0.950 . S
C320 C319 1.398 . S
C320 C321 1.391 . S
C321 H309 0.950 . S
C321 C317 1.393 . S
C321 C320 1.391 . S
C322 H312 0.950 . S
C322 C323 1.386 . S
C322 C324 1.391 . S
C323 C322 1.386 . S
C323 C327 1.393 1_554 S
C324 H313 0.950 . S
C324 C322 1.391 . S
C324 C325 1.400 . S
C325 C319 1.491 . S
C325 C324 1.400 . S
C325 C326 1.398 1_554 S
C326 H314 0.950 . S
C326 C325 1.398 1_556 S
C326 C327 1.391 . S
C327 H315 0.950 . S
C327 C323 1.393 1_556 S
C327 C326 1.391 . S
H328 C336 0.950 . S
H329 C341 0.950 . S
H330 C338 0.950 . S
H331 C340 0.950 . S
H332 C342 0.950 . S
H333 C344 0.950 . S
H334 C346 0.950 . S
H335 C347 0.950 . S
C336 H328 0.950 . S
C336 C337 1.386 . S
C336 C338 1.391 . S
C337 C336 1.386 . S
C337 C341 1.393 . S
C338 H330 0.950 . S
C338 C336 1.391 . S
C338 C339 1.400 . S
C339 C338 1.400 . S
C339 C340 1.398 . S
C339 C345 1.491 . S
C340 H331 0.950 . S
C340 C339 1.398 . S
C340 C341 1.391 . S
C341 H329 0.950 . S
C341 C337 1.393 . S
C341 C340 1.391 . S
C342 H332 0.950 . S
C342 C343 1.386 . S
C342 C344 1.391 . S
C343 C342 1.386 . S
C343 C347 1.393 . S
C344 H333 0.950 . S
C344 C342 1.391 . S
C344 C345 1.400 . S
C345 C339 1.491 . S
C345 C344 1.400 . S
C345 C346 1.398 . S
C346 H334 0.950 . S
C346 C345 1.398 . S
C346 C347 1.391 . S
C347 H335 0.950 . S
C347 C343 1.393 . S
C347 C346 1.391 . S
H348 C356 0.950 . S
H349 C361 0.950 . S
H350 C358 0.950 . S
H351 C360 0.950 . S
H352 C362 0.950 . S
H353 C364 0.950 . S
H354 C366 0.950 . S
H355 C367 0.950 . S
C356 H348 0.950 . S
C356 C357 1.386 1_556 S
C356 C358 1.391 . S
C357 C356 1.386 1_554 S
C357 C361 1.393 . S
C358 H350 0.950 . S
C358 C356 1.391 . S
C358 C359 1.400 1_556 S
C359 C358 1.400 1_554 S
C359 C360 1.398 . S
C359 C365 1.491 . S
C360 H351 0.950 . S
C360 C359 1.398 . S
C360 C361 1.391 . S
C361 H349 0.950 . S
C361 C357 1.393 . S
C361 C360 1.391 . S
C362 H352 0.950 . S
C362 C363 1.386 . S
C362 C364 1.391 . S
C363 C362 1.386 . S
C363 C367 1.393 1_554 S
C364 H353 0.950 . S
C364 C362 1.391 . S
C364 C365 1.400 . S
C365 C359 1.491 . S
C365 C364 1.400 . S
C365 C366 1.398 1_554 S
C366 H354 0.950 . S
C366 C365 1.398 1_556 S
C366 C367 1.391 . S
C367 H355 0.950 . S
C367 C363 1.393 1_556 S
C367 C366 1.391 . S
H368 C376 0.950 . S
H369 C381 0.950 . S
H370 C378 0.950 . S
H371 C380 0.950 . S
H372 C382 0.950 . S
H373 C384 0.950 . S
H374 C386 0.950 . S
H375 C387 0.950 . S
C376 H368 0.950 . S
C376 C377 1.386 . S
C376 C378 1.391 . S
C377 C376 1.386 . S
C377 C381 1.393 . S
C378 H370 0.950 . S
C378 C376 1.391 . S
C378 C379 1.400 . S
C379 C378 1.400 . S
C379 C380 1.398 . S
C379 C385 1.491 1_565 S
C380 H371 0.950 . S
C380 C379 1.398 . S
C380 C381 1.391 . S
C381 H369 0.950 . S
C381 C377 1.393 . S
C381 C380 1.391 . S
C382 H372 0.950 . S
C382 C383 1.386 . S
C382 C384 1.391 . S
C383 C382 1.386 . S
C383 C387 1.393 . S
C384 H373 0.950 . S
C384 C382 1.391 . S
C384 C385 1.400 . S
C385 C379 1.491 1_545 S
C385 C384 1.400 . S
C385 C386 1.398 . S
C386 H374 0.950 . S
C386 C385 1.398 . S
C386 C387 1.391 . S
C387 H375 0.950 . S
C387 C383 1.393 . S
C387 C386 1.391 . S
H388 C396 0.950 . S
H389 C401 0.950 . S
H390 C398 0.950 . S
H391 C400 0.950 . S
H392 C402 0.950 . S
H393 C404 0.950 . S
H394 C406 0.950 . S
H395 C407 0.950 . S
C396 H388 0.950 . S
C396 C397 1.386 . S
C396 C398 1.391 . S
C397 C396 1.386 . S
C397 C401 1.393 . S
C398 H390 0.950 . S
C398 C396 1.391 . S
C398 C399 1.400 . S
C399 C398 1.400 . S
C399 C400 1.398 . S
C399 C405 1.491 1_455 S
C400 H391 0.950 . S
C400 C399 1.398 . S
C400 C401 1.391 . S
C401 H389 0.950 . S
C401 C397 1.393 . S
C401 C400 1.391 . S
C402 H392 0.950 . S
C402 C403 1.386 . S
C402 C404 1.391 . S
C403 C402 1.386 . S
C403 C407 1.393 . S
C404 H393 0.950 . S
C404 C402 1.391 . S
C404 C405 1.400 . S
C405 C399 1.491 1_655 S
C405 C404 1.400 . S
C405 C406 1.398 . S
C406 H394 0.950 . S
C406 C405 1.398 . S
C406 C407 1.391 . S
C407 H395 0.950 . S
C407 C403 1.393 . S
C407 C406 1.391 . S
H408 C416 0.950 . S
H409 C421 0.950 . S
H410 C418 0.950 . S
H411 C420 0.950 . S
H412 C422 0.950 . S
H413 C424 0.950 . S
H414 C426 0.950 . S
H415 C427 0.950 . S
C416 H408 0.950 . S
C416 C417 1.386 . S
C416 C418 1.391 . S
C417 C416 1.386 . S
C417 C421 1.393 . S
C418 H410 0.950 . S
C418 C416 1.391 . S
C418 C419 1.400 . S
C419 C418 1.400 . S
C419 C420 1.398 . S
C419 C425 1.491 1_545 S
C420 H411 0.950 . S
C420 C419 1.398 . S
C420 C421 1.391 . S
C421 H409 0.950 . S
C421 C417 1.393 . S
C421 C420 1.391 . S
C422 H412 0.950 . S
C422 C423 1.386 . S
C422 C424 1.391 . S
C423 C422 1.386 . S
C423 C427 1.393 . S
C424 H413 0.950 . S
C424 C422 1.391 . S
C424 C425 1.400 . S
C425 C419 1.491 1_565 S
C425 C424 1.400 . S
C425 C426 1.398 . S
C426 H414 0.950 . S
C426 C425 1.398 . S
C426 C427 1.391 . S
C427 H415 0.950 . S
C427 C423 1.393 . S
C427 C426 1.391 . S
H428 C436 0.950 . S
H429 C441 0.950 . S
H430 C438 0.950 . S
H431 C440 0.950 . S
H432 C442 0.950 . S
H433 C444 0.950 . S
H434 C446 0.950 . S
H435 C447 0.950 . S
C436 H428 0.950 . S
C436 C437 1.386 . S
C436 C438 1.391 . S
C437 C436 1.386 . S
C437 C441 1.393 . S
C438 H430 0.950 . S
C438 C436 1.391 . S
C438 C439 1.400 . S
C439 C438 1.400 . S
C439 C440 1.398 . S
C439 C445 1.491 1_655 S
C440 H431 0.950 . S
C440 C439 1.398 . S
C440 C441 1.391 . S
C441 H429 0.950 . S
C441 C437 1.393 . S
C441 C440 1.391 . S
C442 H432 0.950 . S
C442 C443 1.386 . S
C442 C444 1.391 . S
C443 C442 1.386 . S
C443 C447 1.393 . S
C444 H433 0.950 . S
C444 C442 1.391 . S
C444 C445 1.400 . S
C445 C439 1.491 1_455 S
C445 C444 1.400 . S
C445 C446 1.398 . S
C446 H434 0.950 . S
C446 C445 1.398 . S
C446 C447 1.391 . S
C447 H435 0.950 . S
C447 C443 1.393 . S
C447 C446 1.391 . S
H448 C456 0.950 . S
H449 C461 0.950 . S
H450 C458 0.950 . S
H451 C460 0.950 . S
H452 C462 0.950 . S
H453 C464 0.950 . S
H454 C466 0.950 . S
H455 C467 0.950 . S
C456 H448 0.950 . S
C456 C457 1.386 . S
C456 C458 1.391 . S
C457 C456 1.386 . S
C457 C461 1.393 . S
C458 H450 0.950 . S
C458 C456 1.391 . S
C458 C459 1.400 . S
C459 C458 1.400 . S
C459 C460 1.398 . S
C459 C465 1.491 . S
C460 H451 0.950 . S
C460 C459 1.398 . S
C460 C461 1.391 . S
C461 H449 0.950 . S
C461 C457 1.393 . S
C461 C460 1.391 . S
C462 H452 0.950 . S
C462 C463 1.386 . S
C462 C464 1.391 . S
C463 C462 1.386 . S
C463 C467 1.393 . S
C464 H453 0.950 . S
C464 C462 1.391 . S
C464 C465 1.400 . S
C465 C459 1.491 . S
C465 C464 1.400 . S
C465 C466 1.398 . S
C466 H454 0.950 . S
C466 C465 1.398 . S
C466 C467 1.391 . S
C467 H455 0.950 . S
C467 C463 1.393 . S
C467 C466 1.391 . S
H468 C476 0.950 . S
H469 C481 0.950 . S
H470 C478 0.950 . S
H471 C480 0.950 . S
H472 C482 0.950 . S
H473 C484 0.950 . S
H474 C486 0.950 . S
H475 C487 0.950 . S
C476 H468 0.950 . S
C476 C477 1.386 . S
C476 C478 1.391 . S
C477 C476 1.386 . S
C477 C481 1.393 . S
C478 H470 0.950 . S
C478 C476 1.391 . S
C478 C479 1.400 . S
C479 C478 1.400 . S
C479 C480 1.398 . S
C479 C485 1.491 . S
C480 H471 0.950 . S
C480 C479 1.398 . S
C480 C481 1.391 . S
C481 H469 0.950 . S
C481 C477 1.393 . S
C481 C480 1.391 . S
C482 H472 0.950 . S
C482 C483 1.386 . S
C482 C484 1.391 . S
C483 C482 1.386 . S
C483 C487 1.393 . S
C484 H473 0.950 . S
C484 C482 1.391 . S
C484 C485 1.400 . S
C485 C479 1.491 . S
C485 C484 1.400 . S
C485 C486 1.398 . S
C486 H474 0.950 . S
C486 C485 1.398 . S
C486 C487 1.391 . S
C487 H475 0.950 . S
C487 C483 1.393 . S
C487 C486 1.391 . S
H488 C496 0.950 . S
H489 C501 0.950 . S
H490 C498 0.950 . S
H491 C500 0.950 . S
H492 C502 0.950 . S
H493 C504 0.950 . S
H494 C506 0.950 . S
H495 C507 0.950 . S
C496 H488 0.950 . S
C496 C497 1.386 . S
C496 C498 1.391 . S
C497 C496 1.386 . S
C497 C501 1.393 . S
C498 H490 0.950 . S
C498 C496 1.391 . S
C498 C499 1.400 . S
C499 C498 1.400 . S
C499 C500 1.398 . S
C499 C505 1.491 . S
C500 H491 0.950 . S
C500 C499 1.398 . S
C500 C501 1.391 . S
C501 H489 0.950 . S
C501 C497 1.393 . S
C501 C500 1.391 . S
C502 H492 0.950 . S
C502 C503 1.386 . S
C502 C504 1.391 . S
C503 C502 1.386 . S
C503 C507 1.393 . S
C504 H493 0.950 . S
C504 C502 1.391 . S
C504 C505 1.400 . S
C505 C499 1.491 . S
C505 C504 1.400 . S
C505 C506 1.398 . S
C506 H494 0.950 . S
C506 C505 1.398 . S
C506 C507 1.391 . S
C507 H495 0.950 . S
C507 C503 1.393 . S
C507 C506 1.391 . S
H508 C516 0.950 . S
H509 C521 0.950 . S
H510 C518 0.950 . S
H511 C520 0.950 . S
H512 C522 0.950 . S
H513 C524 0.950 . S
H514 C526 0.950 . S
H515 C527 0.950 . S
C516 H508 0.950 . S
C516 C517 1.386 . S
C516 C518 1.391 . S
C517 C516 1.386 . S
C517 C521 1.393 . S
C518 H510 0.950 . S
C518 C516 1.391 . S
C518 C519 1.400 . S
C519 C518 1.400 . S
C519 C520 1.398 . S
C519 C525 1.491 . S
C520 H511 0.950 . S
C520 C519 1.398 . S
C520 C521 1.391 . S
C521 H509 0.950 . S
C521 C517 1.393 . S
C521 C520 1.391 . S
C522 H512 0.950 . S
C522 C523 1.386 . S
C522 C524 1.391 . S
C523 C522 1.386 . S
C523 C527 1.393 . S
C524 H513 0.950 . S
C524 C522 1.391 . S
C524 C525 1.400 . S
C525 C519 1.491 . S
C525 C524 1.400 . S
C525 C526 1.398 . S
C526 H514 0.950 . S
C526 C525 1.398 . S
C526 C527 1.391 . S
C527 H515 0.950 . S
C527 C523 1.393 . S
C527 C526 1.391 . S
H528 C536 0.950 . S
H529 C541 0.950 . S
H530 C538 0.950 . S
H531 C540 0.950 . S
H532 C542 0.950 . S
H533 C544 0.950 . S
H534 C546 0.950 . S
H535 C547 0.950 . S
C536 H528 0.950 . S
C536 C537 1.386 . S
C536 C538 1.391 . S
C537 C536 1.386 . S
C537 C541 1.393 . S
C538 H530 0.950 . S
C538 C536 1.391 . S
C538 C539 1.400 . S
C539 C538 1.400 . S
C539 C540 1.398 . S
C539 C545 1.491 . S
C540 H531 0.950 . S
C540 C539 1.398 . S
C540 C541 1.391 . S
C541 H529 0.950 . S
C541 C537 1.393 . S
C541 C540 1.391 . S
C542 H532 0.950 . S
C542 C543 1.386 . S
C542 C544 1.391 . S
C543 C542 1.386 . S
C543 C547 1.393 . S
C544 H533 0.950 . S
C544 C542 1.391 . S
C544 C545 1.400 . S
C545 C539 1.491 . S
C545 C544 1.400 . S
C545 C546 1.398 . S
C546 H534 0.950 . S
C546 C545 1.398 . S
C546 C547 1.391 . S
C547 H535 0.950 . S
C547 C543 1.393 . S
C547 C546 1.391 . S
H548 C556 0.950 . S
H549 C561 0.950 . S
H550 C558 0.950 . S
H551 C560 0.950 . S
H552 C562 0.950 . S
H553 C564 0.950 . S
H554 C566 0.950 . S
H555 C567 0.950 . S
C556 H548 0.950 . S
C556 C557 1.386 . S
C556 C558 1.391 . S
C557 C556 1.386 . S
C557 C561 1.393 . S
C558 H550 0.950 . S
C558 C556 1.391 . S
C558 C559 1.400 . S
C559 C558 1.400 . S
C559 C560 1.398 . S
C559 C565 1.491 . S
C560 H551 0.950 . S
C560 C559 1.398 . S
C560 C561 1.391 . S
C561 H549 0.950 . S
C561 C557 1.393 . S
C561 C560 1.391 . S
C562 H552 0.950 . S
C562 C563 1.386 . S
C562 C564 1.391 . S
C563 C562 1.386 . S
C563 C567 1.393 . S
C564 H553 0.950 . S
C564 C562 1.391 . S
C564 C565 1.400 . S
C565 C559 1.491 . S
C565 C564 1.400 . S
C565 C566 1.398 . S
C566 H554 0.950 . S
C566 C565 1.398 . S
C566 C567 1.391 . S
C567 H555 0.950 . S
C567 C563 1.393 . S
C567 C566 1.391 . S
H568 C576 0.950 . S
H569 C581 0.950 . S
H570 C578 0.950 . S
H571 C580 0.950 . S
H572 C582 0.950 . S
H573 C584 0.950 . S
H574 C586 0.950 . S
H575 C587 0.950 . S
C576 H568 0.950 . S
C576 C577 1.386 . S
C576 C578 1.391 . S
C577 C576 1.386 . S
C577 C581 1.393 . S
C578 H570 0.950 . S
C578 C576 1.391 . S
C578 C579 1.400 . S
C579 C578 1.400 . S
C579 C580 1.398 . S
C579 C585 1.491 . S
C580 H571 0.950 . S
C580 C579 1.398 . S
C580 C581 1.391 . S
C581 H569 0.950 . S
C581 C577 1.393 . S
C581 C580 1.391 . S
C582 H572 0.950 . S
C582 C583 1.386 . S
C582 C584 1.391 . S
C583 C582 1.386 . S
C583 C587 1.393 . S
C584 H573 0.950 . S
C584 C582 1.391 . S
C584 C585 1.400 . S
C585 C579 1.491 . S
C585 C584 1.400 . S
C585 C586 1.398 . S
C586 H574 0.950 . S
C586 C585 1.398 . S
C586 C587 1.391 . S
C587 H575 0.950 . S
C587 C583 1.393 . S
C587 C586 1.391 . S
H588 C596 0.950 . S
H589 C601 0.950 . S
H590 C598 0.950 . S
H591 C600 0.950 . S
H592 C602 0.950 . S
H593 C604 0.950 . S
H594 C606 0.950 . S
H595 C607 0.950 . S
C596 H588 0.950 . S
C596 C597 1.386 . S
C596 C598 1.391 . S
C597 C596 1.386 . S
C597 C601 1.393 . S
C598 H590 0.950 . S
C598 C596 1.391 . S
C598 C599 1.400 . S
C599 C598 1.400 . S
C599 C600 1.398 . S
C599 C605 1.491 . S
C600 H591 0.950 . S
C600 C599 1.398 . S
C600 C601 1.391 . S
C601 H589 0.950 . S
C601 C597 1.393 . S
C601 C600 1.391 . S
C602 H592 0.950 . S
C602 C603 1.386 . S
C602 C604 1.391 . S
C603 C602 1.386 . S
C603 C607 1.393 . S
C604 H593 0.950 . S
C604 C602 1.391 . S
C604 C605 1.400 . S
C605 C599 1.491 . S
C605 C604 1.400 . S
C605 C606 1.398 . S
C606 H594 0.950 . S
C606 C605 1.398 . S
C606 C607 1.391 . S
C607 H595 0.950 . S
C607 C603 1.393 . S
C607 C606 1.391 . S
C297 C3 1.505 . S
C303 C111 1.505 . S
C317 C2 1.502 . S
C323 C38 1.510 1_554 S
C337 C39 1.513 . S
C343 C75 1.513 . S
C357 C110 1.509 1_554 S
C363 C74 1.502 . S
C377 C147 1.511 . S
C383 C255 1.511 . S
C397 C182 1.503 . S
C403 C146 1.510 . S
C417 C219 1.511 . S
C423 C183 1.511 . S
C437 C254 1.504 . S
C443 C218 1.509 . S
C457 C230 1.394 . S
C463 C4 1.469 . S
C477 C50 1.419 . S
C483 C256 1.472 . S
C497 C158 1.393 . S
C503 C76 1.470 . S
C517 C184 1.472 . S
C523 C122 1.407 . S
C537 C194 1.422 . S
C543 C112 1.473 . S
C557 C14 1.395 . S
C563 C220 1.470 . S
C577 C40 1.471 . S
C583 C266 1.401 . S
C597 C86 1.406 . S
C603 C148 1.472 . S
