# Generated by pormake.
# Topology cha, (4)-cn, num edge types: 1
# Building blocks:
#     Node 0, Type 0, BuildingBlock: ICAMEG_clean_sbu_1, # of connection points: 4
#     Node 1, Type 0, BuildingBlock: ICAMEG_clean_sbu_1, # of connection points: 4
#     Node 2, Type 0, BuildingBlock: ICAMEG_clean_sbu_1, # of connection points: 4
#     Node 3, Type 0, BuildingBlock: ICAMEG_clean_sbu_1, # of connection points: 4
#     Node 4, Type 0, BuildingBlock: ICAMEG_clean_sbu_1, # of connection points: 4
#     Node 5, Type 0, BuildingBlock: ICAMEG_clean_sbu_1, # of connection points: 4
#     Node 6, Type 0, BuildingBlock: ICAMEG_clean_sbu_1, # of connection points: 4
#     Node 7, Type 0, BuildingBlock: ICAMEG_clean_sbu_1, # of connection points: 4
#     Node 8, Type 0, BuildingBlock: ICAMEG_clean_sbu_1, # of connection points: 4
#     Node 9, Type 0, BuildingBlock: ICAMEG_clean_sbu_1, # of connection points: 4
#     Node 10, Type 0, BuildingBlock: ICAMEG_clean_sbu_1, # of connection points: 4
#     Node 11, Type 0, BuildingBlock: ICAMEG_clean_sbu_1, # of connection points: 4
#     Node 12, Type 0, BuildingBlock: ICAMEG_clean_sbu_1, # of connection points: 4
#     Node 13, Type 0, BuildingBlock: ICAMEG_clean_sbu_1, # of connection points: 4
#     Node 14, Type 0, BuildingBlock: ICAMEG_clean_sbu_1, # of connection points: 4
#     Node 15, Type 0, BuildingBlock: ICAMEG_clean_sbu_1, # of connection points: 4
#     Node 16, Type 0, BuildingBlock: ICAMEG_clean_sbu_1, # of connection points: 4
#     Node 17, Type 0, BuildingBlock: ICAMEG_clean_sbu_1, # of connection points: 4
#     Node 18, Type 0, BuildingBlock: ICAMEG_clean_sbu_1, # of connection points: 4
#     Node 19, Type 0, BuildingBlock: ICAMEG_clean_sbu_1, # of connection points: 4
#     Node 20, Type 0, BuildingBlock: ICAMEG_clean_sbu_1, # of connection points: 4
#     Node 21, Type 0, BuildingBlock: ICAMEG_clean_sbu_1, # of connection points: 4
#     Node 22, Type 0, BuildingBlock: ICAMEG_clean_sbu_1, # of connection points: 4
#     Node 23, Type 0, BuildingBlock: ICAMEG_clean_sbu_1, # of connection points: 4
#     Node 24, Type 0, BuildingBlock: ICAMEG_clean_sbu_1, # of connection points: 4
#     Node 25, Type 0, BuildingBlock: ICAMEG_clean_sbu_1, # of connection points: 4
#     Node 26, Type 0, BuildingBlock: ICAMEG_clean_sbu_1, # of connection points: 4
#     Node 27, Type 0, BuildingBlock: ICAMEG_clean_sbu_1, # of connection points: 4
#     Node 28, Type 0, BuildingBlock: ICAMEG_clean_sbu_1, # of connection points: 4
#     Node 29, Type 0, BuildingBlock: ICAMEG_clean_sbu_1, # of connection points: 4
#     Node 30, Type 0, BuildingBlock: ICAMEG_clean_sbu_1, # of connection points: 4
#     Node 31, Type 0, BuildingBlock: ICAMEG_clean_sbu_1, # of connection points: 4
#     Node 32, Type 0, BuildingBlock: ICAMEG_clean_sbu_1, # of connection points: 4
#     Node 33, Type 0, BuildingBlock: ICAMEG_clean_sbu_1, # of connection points: 4
#     Node 34, Type 0, BuildingBlock: ICAMEG_clean_sbu_1, # of connection points: 4
#     Node 35, Type 0, BuildingBlock: ICAMEG_clean_sbu_1, # of connection points: 4
#     Edge 36, Type (0, 0), BuildingBlock: XIVTED_clean_linker_0, # of connection points: 2
#     Edge 37, Type (0, 0), BuildingBlock: XIVTED_clean_linker_0, # of connection points: 2
#     Edge 38, Type (0, 0), BuildingBlock: XIVTED_clean_linker_0, # of connection points: 2
#     Edge 39, Type (0, 0), BuildingBlock: XIVTED_clean_linker_0, # of connection points: 2
#     Edge 40, Type (0, 0), BuildingBlock: XIVTED_clean_linker_0, # of connection points: 2
#     Edge 41, Type (0, 0), BuildingBlock: XIVTED_clean_linker_0, # of connection points: 2
#     Edge 42, Type (0, 0), BuildingBlock: XIVTED_clean_linker_0, # of connection points: 2
#     Edge 43, Type (0, 0), BuildingBlock: XIVTED_clean_linker_0, # of connection points: 2
#     Edge 44, Type (0, 0), BuildingBlock: XIVTED_clean_linker_0, # of connection points: 2
#     Edge 45, Type (0, 0), BuildingBlock: XIVTED_clean_linker_0, # of connection points: 2
#     Edge 46, Type (0, 0), BuildingBlock: XIVTED_clean_linker_0, # of connection points: 2
#     Edge 47, Type (0, 0), BuildingBlock: XIVTED_clean_linker_0, # of connection points: 2
#     Edge 48, Type (0, 0), BuildingBlock: XIVTED_clean_linker_0, # of connection points: 2
#     Edge 49, Type (0, 0), BuildingBlock: XIVTED_clean_linker_0, # of connection points: 2
#     Edge 50, Type (0, 0), BuildingBlock: XIVTED_clean_linker_0, # of connection points: 2
#     Edge 51, Type (0, 0), BuildingBlock: XIVTED_clean_linker_0, # of connection points: 2
#     Edge 52, Type (0, 0), BuildingBlock: XIVTED_clean_linker_0, # of connection points: 2
#     Edge 53, Type (0, 0), BuildingBlock: XIVTED_clean_linker_0, # of connection points: 2
#     Edge 54, Type (0, 0), BuildingBlock: XIVTED_clean_linker_0, # of connection points: 2
#     Edge 55, Type (0, 0), BuildingBlock: XIVTED_clean_linker_0, # of connection points: 2
#     Edge 56, Type (0, 0), BuildingBlock: XIVTED_clean_linker_0, # of connection points: 2
#     Edge 57, Type (0, 0), BuildingBlock: XIVTED_clean_linker_0, # of connection points: 2
#     Edge 58, Type (0, 0), BuildingBlock: XIVTED_clean_linker_0, # of connection points: 2
#     Edge 59, Type (0, 0), BuildingBlock: XIVTED_clean_linker_0, # of connection points: 2
#     Edge 60, Type (0, 0), BuildingBlock: XIVTED_clean_linker_0, # of connection points: 2
#     Edge 61, Type (0, 0), BuildingBlock: XIVTED_clean_linker_0, # of connection points: 2
#     Edge 62, Type (0, 0), BuildingBlock: XIVTED_clean_linker_0, # of connection points: 2
#     Edge 63, Type (0, 0), BuildingBlock: XIVTED_clean_linker_0, # of connection points: 2
#     Edge 64, Type (0, 0), BuildingBlock: XIVTED_clean_linker_0, # of connection points: 2
#     Edge 65, Type (0, 0), BuildingBlock: XIVTED_clean_linker_0, # of connection points: 2
#     Edge 66, Type (0, 0), BuildingBlock: XIVTED_clean_linker_0, # of connection points: 2
#     Edge 67, Type (0, 0), BuildingBlock: XIVTED_clean_linker_0, # of connection points: 2
#     Edge 68, Type (0, 0), BuildingBlock: XIVTED_clean_linker_0, # of connection points: 2
#     Edge 69, Type (0, 0), BuildingBlock: XIVTED_clean_linker_0, # of connection points: 2
#     Edge 70, Type (0, 0), BuildingBlock: XIVTED_clean_linker_0, # of connection points: 2
#     Edge 71, Type (0, 0), BuildingBlock: XIVTED_clean_linker_0, # of connection points: 2
#     Edge 72, Type (0, 0), BuildingBlock: XIVTED_clean_linker_0, # of connection points: 2
#     Edge 73, Type (0, 0), BuildingBlock: XIVTED_clean_linker_0, # of connection points: 2
#     Edge 74, Type (0, 0), BuildingBlock: XIVTED_clean_linker_0, # of connection points: 2
#     Edge 75, Type (0, 0), BuildingBlock: XIVTED_clean_linker_0, # of connection points: 2
#     Edge 76, Type (0, 0), BuildingBlock: XIVTED_clean_linker_0, # of connection points: 2
#     Edge 77, Type (0, 0), BuildingBlock: XIVTED_clean_linker_0, # of connection points: 2
#     Edge 78, Type (0, 0), BuildingBlock: XIVTED_clean_linker_0, # of connection points: 2
#     Edge 79, Type (0, 0), BuildingBlock: XIVTED_clean_linker_0, # of connection points: 2
#     Edge 80, Type (0, 0), BuildingBlock: XIVTED_clean_linker_0, # of connection points: 2
#     Edge 81, Type (0, 0), BuildingBlock: XIVTED_clean_linker_0, # of connection points: 2
#     Edge 82, Type (0, 0), BuildingBlock: XIVTED_clean_linker_0, # of connection points: 2
#     Edge 83, Type (0, 0), BuildingBlock: XIVTED_clean_linker_0, # of connection points: 2
#     Edge 84, Type (0, 0), BuildingBlock: XIVTED_clean_linker_0, # of connection points: 2
#     Edge 85, Type (0, 0), BuildingBlock: XIVTED_clean_linker_0, # of connection points: 2
#     Edge 86, Type (0, 0), BuildingBlock: XIVTED_clean_linker_0, # of connection points: 2
#     Edge 87, Type (0, 0), BuildingBlock: XIVTED_clean_linker_0, # of connection points: 2
#     Edge 88, Type (0, 0), BuildingBlock: XIVTED_clean_linker_0, # of connection points: 2
#     Edge 89, Type (0, 0), BuildingBlock: XIVTED_clean_linker_0, # of connection points: 2
#     Edge 90, Type (0, 0), BuildingBlock: XIVTED_clean_linker_0, # of connection points: 2
#     Edge 91, Type (0, 0), BuildingBlock: XIVTED_clean_linker_0, # of connection points: 2
#     Edge 92, Type (0, 0), BuildingBlock: XIVTED_clean_linker_0, # of connection points: 2
#     Edge 93, Type (0, 0), BuildingBlock: XIVTED_clean_linker_0, # of connection points: 2
#     Edge 94, Type (0, 0), BuildingBlock: XIVTED_clean_linker_0, # of connection points: 2
#     Edge 95, Type (0, 0), BuildingBlock: XIVTED_clean_linker_0, # of connection points: 2
#     Edge 96, Type (0, 0), BuildingBlock: XIVTED_clean_linker_0, # of connection points: 2
#     Edge 97, Type (0, 0), BuildingBlock: XIVTED_clean_linker_0, # of connection points: 2
#     Edge 98, Type (0, 0), BuildingBlock: XIVTED_clean_linker_0, # of connection points: 2
#     Edge 99, Type (0, 0), BuildingBlock: XIVTED_clean_linker_0, # of connection points: 2
#     Edge 100, Type (0, 0), BuildingBlock: XIVTED_clean_linker_0, # of connection points: 2
#     Edge 101, Type (0, 0), BuildingBlock: XIVTED_clean_linker_0, # of connection points: 2
#     Edge 102, Type (0, 0), BuildingBlock: XIVTED_clean_linker_0, # of connection points: 2
#     Edge 103, Type (0, 0), BuildingBlock: XIVTED_clean_linker_0, # of connection points: 2
#     Edge 104, Type (0, 0), BuildingBlock: XIVTED_clean_linker_0, # of connection points: 2
#     Edge 105, Type (0, 0), BuildingBlock: XIVTED_clean_linker_0, # of connection points: 2
#     Edge 106, Type (0, 0), BuildingBlock: XIVTED_clean_linker_0, # of connection points: 2
#     Edge 107, Type (0, 0), BuildingBlock: XIVTED_clean_linker_0, # of connection points: 2
# Relax obj value: 0.067
# Max RMSD: 0.073
# Mean RMSD: 0.073
data_MOF--net-cha--node1-ICAMEG_clean_sbu_1--edge1-XIVTED_clean_linker_0
_symmetry_space_group_name_H-M    P1
_symmetry_Int_Tables_number       1
_symmetry_cell_setting            triclinic
loop_
_symmetry_equiv_pos_as_xyz
'x, y, z'
_cell_length_a     58.928783
_cell_length_b     58.924671
_cell_length_c     91.049929
_cell_angle_alpha  90.003366
_cell_angle_beta   89.998542
_cell_angle_gamma 120.00559
loop_
_atom_site_label
_atom_site_type_symbol
_atom_site_fract_x
_atom_site_fract_y
_atom_site_fract_z
_atom_type_partial_charge
Co0 Co 0.03052 0.26882 0.079 0.0
Co1 Co 0.00068 0.3061 0.08192 0.0
O2 O 0.02677 0.29674 0.08796 0.0
C3 C 0.08555 0.31308 0.07606 0.0
O4 O 0.07746 0.32608 0.06795 0.0
C5 C 0.99158 0.29446 0.11336 0.0
O6 O 0.99233 0.27309 0.1103 0.0
O7 O 0.97199 0.26896 0.08277 0.0
O8 O 0.99176 0.24612 0.07681 0.0
H9 H 0.92458 0.29778 0.05266 0.0
H10 H 0.05612 0.29083 0.10763 0.0
O11 O 0.06938 0.2906 0.08122 0.0
H12 H 0.99616 0.19676 0.1168 0.0
H13 H 0.07073 0.21135 0.07355 0.0
H14 H 0.00634 0.23337 0.05354 0.0
H15 H -6e-05 0.2153 0.09205 0.0
H16 H 0.06464 0.24584 0.08504 0.0
O17 O 0.99434 0.31043 0.10313 0.0
H18 H 0.95772 0.28605 0.06 0.0
H19 H 0.98799 0.34656 0.09202 0.0
H20 H 0.01165 0.19859 0.04178 0.0
H21 H 0.05316 0.27303 0.13252 0.0
H22 H 0.04404 0.18738 0.05179 0.0
H23 H 0.02292 0.2257 0.13724 0.0
O24 O 0.03252 0.28377 0.05919 0.0
H25 H 0.0801 0.38693 0.10081 0.0
H26 H 0.01747 0.34884 0.05979 0.0
H27 H 0.05344 0.39469 0.05822 0.0
H28 H 0.08503 0.41403 0.07885 0.0
H29 H 0.04394 0.34111 0.10188 0.0
H30 H 0.95504 0.35882 0.08512 0.0
H31 H 0.92312 0.33442 0.06526 0.0
O32 O 0.00646 0.30156 0.06067 0.0
C33 C 0.9713 0.24764 0.07941 0.0
C34 C 0.93846 0.30864 0.06128 0.0
C35 C 0.95553 0.34287 0.07952 0.0
N36 N 0.97492 0.31579 0.07631 0.0
C37 C 0.95732 0.30214 0.06545 0.0
C38 C 0.97411 0.33581 0.08339 0.0
C39 C 0.93763 0.32917 0.06837 0.0
C40 C 0.04314 0.27015 0.10956 0.0
N41 N 0.02829 0.25411 0.09838 0.0
C42 C 0.04146 0.26021 0.12369 0.0
C43 C 0.02445 0.23366 0.12634 0.0
C44 C 0.00941 0.21742 0.11488 0.0
C45 C 0.01158 0.22804 0.10089 0.0
C46 C 0.05651 0.21601 0.06911 0.0
C47 C 0.02036 0.22849 0.05802 0.0
C48 C 0.05301 0.23556 0.07555 0.0
N49 N 0.03499 0.24145 0.07004 0.0
C50 C 0.02333 0.20883 0.05129 0.0
C51 C 0.04152 0.20257 0.0569 0.0
C52 C 0.0203 0.29431 0.0534 0.0
C53 C 0.06641 0.37875 0.09177 0.0
C54 C 0.03118 0.3571 0.0688 0.0
C55 C 0.05148 0.38309 0.06785 0.0
C56 C 0.06919 0.39393 0.07943 0.0
N57 N 0.02853 0.34237 0.08096 0.0
C58 C 0.04585 0.35284 0.09234 0.0
Co59 Co 0.778 0.78557 0.07977 0.0
Co60 Co 0.74137 0.71842 0.08274 0.0
O61 O 0.75058 0.75379 0.08889 0.0
C62 C 0.73356 0.79626 0.07741 0.0
O63 O 0.72047 0.7754 0.06915 0.0
C64 C 0.7541 0.72121 0.11399 0.0
O65 O 0.77529 0.74338 0.11074 0.0
O66 O 0.77864 0.7272 0.08315 0.0
O67 O 0.80085 0.7698 0.07712 0.0
H68 H 0.74945 0.65104 0.05292 0.0
H69 H 0.75689 0.78894 0.10875 0.0
O70 O 0.75608 0.8024 0.08245 0.0
H71 H 0.85138 0.82379 0.11677 0.0
H72 H 0.83466 0.88334 0.07419 0.0
H73 H 0.81258 0.79711 0.05387 0.0
H74 H 0.83201 0.80894 0.09218 0.0
H75 H 0.8008 0.84263 0.08589 0.0
O76 O 0.73782 0.70782 0.10392 0.0
H77 H 0.76102 0.69581 0.06039 0.0
H78 H 0.70161 0.66514 0.09304 0.0
H79 H 0.84673 0.83732 0.04189 0.0
H80 H 0.77551 0.80388 0.13348 0.0
H81 H 0.85797 0.88083 0.05206 0.0
H82 H 0.82306 0.82134 0.13762 0.0
O83 O 0.76239 0.77252 0.06009 0.0
H84 H 0.66076 0.71619 0.10268 0.0
H85 H 0.69797 0.69212 0.06101 0.0
H86 H 0.65195 0.68181 0.05998 0.0
H87 H 0.63305 0.69382 0.08093 0.0
H88 H 0.70674 0.72629 0.10321 0.0
H89 H 0.68952 0.62002 0.08601 0.0
H90 H 0.71345 0.61277 0.06577 0.0
O91 O 0.74513 0.72872 0.0615 0.0
C92 C 0.79972 0.74796 0.07962 0.0
C93 C 0.7388 0.65395 0.06171 0.0
C94 C 0.70519 0.63654 0.0803 0.0
N95 N 0.73182 0.68305 0.07702 0.0
C96 C 0.74521 0.67924 0.06595 0.0
C97 C 0.71215 0.66212 0.08425 0.0
C98 C 0.71862 0.63248 0.06894 0.0
C99 C 0.77765 0.79681 0.11042 0.0
N100 N 0.79335 0.79814 0.09902 0.0
C101 C 0.78806 0.80512 0.12447 0.0
C102 C 0.81474 0.81487 0.12679 0.0
C103 C 0.83063 0.81622 0.1151 0.0
C104 C 0.81954 0.80771 0.10121 0.0
C105 C 0.82998 0.8645 0.06968 0.0
C106 C 0.81748 0.81597 0.05841 0.0
C107 C 0.81079 0.84138 0.07624 0.0
N108 N 0.80488 0.81752 0.07064 0.0
C109 C 0.83678 0.83867 0.05156 0.0
C110 C 0.84305 0.86308 0.05726 0.0
C111 C 0.75187 0.74977 0.0543 0.0
C112 C 0.66875 0.71079 0.0935 0.0
C113 C 0.6899 0.69746 0.07016 0.0
C114 C 0.66382 0.69153 0.06952 0.0
C115 C 0.65322 0.69827 0.08128 0.0
N116 N 0.70497 0.70966 0.0822 0.0
C117 C 0.69474 0.71638 0.09375 0.0
Co118 Co 0.2646 0.02002 0.07946 0.0
Co119 Co 0.3318 0.04998 0.08176 0.0
O120 O 0.29654 0.02407 0.08818 0.0
C121 C 0.25273 0.96448 0.07666 0.0
O122 O 0.27263 0.97173 0.06769 0.0
C123 C 0.32991 0.06012 0.11307 0.0
O124 O 0.30787 0.05951 0.10997 0.0
O125 O 0.32335 0.07869 0.08237 0.0
O126 O 0.28057 0.05868 0.0768 0.0
H127 H 0.39871 0.125 0.05149 0.0
H128 H 0.26196 0.99554 0.10834 0.0
O129 O 0.24755 0.98124 0.08218 0.0
H130 H 0.22822 0.05589 0.11715 0.0
H131 H 0.16675 0.97966 0.07497 0.0
H132 H 0.25248 0.04318 0.05383 0.0
H133 H 0.2421 0.05112 0.09235 0.0
H134 H 0.20771 0.98617 0.08615 0.0
O135 O 0.34298 0.05703 0.10289 0.0
H136 H 0.35406 0.09209 0.05932 0.0
H137 H 0.38523 0.06315 0.09155 0.0
H138 H 0.212 0.03744 0.04237 0.0
H139 H 0.24798 0.99949 0.13328 0.0
H140 H 0.16875 0.00548 0.05295 0.0
H141 H 0.23108 0.02994 0.13783 0.0
O142 O 0.27695 0.01731 0.05959 0.0
H143 H 0.33393 0.97134 0.10136 0.0
H144 H 0.3572 0.03248 0.05968 0.0
H145 H 0.36716 0.99655 0.0584 0.0
H146 H 0.35556 0.96571 0.07936 0.0
H147 H 0.32415 0.00743 0.10214 0.0
H148 H 0.43024 0.09588 0.08417 0.0
H149 H 0.43718 0.12702 0.06395 0.0
O150 O 0.32085 0.04339 0.0606 0.0
C151 C 0.30262 0.07924 0.07911 0.0
C152 C 0.39594 0.11146 0.06027 0.0
C153 C 0.41364 0.09514 0.07863 0.0
N154 N 0.36707 0.07556 0.07577 0.0
C155 C 0.37071 0.09273 0.06471 0.0
C156 C 0.38812 0.07669 0.08278 0.0
C157 C 0.41752 0.11261 0.06728 0.0
C158 C 0.25432 0.00859 0.11019 0.0
N159 N 0.25276 0.023 0.09888 0.0
C160 C 0.24655 0.01083 0.12435 0.0
C161 C 0.23712 0.02796 0.1269 0.0
C162 C 0.23554 0.04255 0.11531 0.0
C163 C 0.2435 0.03982 0.10129 0.0
C164 C 0.18548 0.99368 0.07028 0.0
C165 C 0.23373 0.02936 0.05855 0.0
C166 C 0.20874 0.99742 0.07654 0.0
N167 N 0.23246 0.01521 0.07072 0.0
C168 C 0.21088 0.02614 0.05199 0.0
C169 C 0.18662 0.00818 0.05792 0.0
C170 C 0.29952 0.02927 0.05358 0.0
C171 C 0.33915 0.9847 0.09218 0.0
C172 C 0.35202 0.01909 0.06883 0.0
C173 C 0.35776 0.99882 0.06805 0.0
C174 C 0.35126 0.98153 0.07982 0.0
N175 N 0.34024 0.02213 0.08101 0.0
C176 C 0.33373 0.00522 0.09257 0.0
Co177 Co 0.26954 0.0314 0.91831 0.0
Co178 Co 0.30617 0.00078 0.91581 0.0
O179 O 0.29716 0.027 0.9095 0.0
C180 C 0.31417 0.08639 0.92095 0.0
O181 O 0.32696 0.07843 0.92934 0.0
C182 C 0.29375 0.99076 0.88454 0.0
O183 O 0.2726 0.99185 0.88771 0.0
O184 O 0.26888 0.97236 0.9153 0.0
O185 O 0.24645 0.99276 0.92078 0.0
H186 H 0.29741 0.92533 0.94591 0.0
H187 H 0.29168 0.05612 0.88952 0.0
O188 O 0.29171 0.07016 0.91578 0.0
H189 H 0.19738 0.99703 0.88057 0.0
H190 H 0.21313 0.0729 0.92318 0.0
H191 H 0.23409 0.00819 0.94386 0.0
H192 H 0.21591 0.00115 0.90535 0.0
H193 H 0.24723 0.06598 0.91187 0.0
O194 O 0.30993 0.99361 0.89466 0.0
H195 H 0.28611 0.95863 0.93823 0.0
H196 H 0.3459 0.98702 0.90581 0.0
H197 H 0.19969 0.01433 0.95544 0.0
H198 H 0.2739 0.05282 0.86459 0.0
H199 H 0.18902 0.04689 0.94509 0.0
H200 H 0.22645 0.02301 0.85998 0.0
O201 O 0.28451 0.03369 0.93815 0.0
H202 H 0.38719 0.07892 0.89604 0.0
H203 H 0.34924 0.01784 0.93774 0.0
H204 H 0.3953 0.05346 0.93891 0.0
H205 H 0.41457 0.08426 0.91794 0.0
H206 H 0.34116 0.04315 0.89537 0.0
H207 H 0.35772 0.9539 0.91304 0.0
H208 H 0.33346 0.92283 0.93328 0.0
O209 O 0.30215 0.00745 0.937 0.0
C210 C 0.24769 0.97206 0.91848 0.0
C211 C 0.3082 0.93883 0.93712 0.0
C212 C 0.34203 0.95484 0.91866 0.0
N213 N 0.31552 0.9749 0.9217 0.0
C214 C 0.30195 0.95778 0.93277 0.0
C215 C 0.33522 0.97352 0.91459 0.0
C216 C 0.32841 0.93742 0.93002 0.0
C217 C 0.27095 0.04334 0.88764 0.0
N218 N 0.25485 0.02892 0.8989 0.0
C219 C 0.26102 0.04146 0.87348 0.0
C220 C 0.23441 0.02469 0.8709 0.0
C221 C 0.21809 0.01009 0.88244 0.0
C222 C 0.22871 0.01245 0.89645 0.0
C223 C 0.21756 0.05862 0.92777 0.0
C224 C 0.22944 0.02228 0.93924 0.0
C225 C 0.23689 0.05465 0.92143 0.0
N226 N 0.24248 0.03654 0.92713 0.0
C227 C 0.21 0.02572 0.94587 0.0
C228 C 0.20404 0.04401 0.94006 0.0
C229 C 0.29507 0.02161 0.94409 0.0
C230 C 0.37904 0.06558 0.90523 0.0
C231 C 0.35747 0.03121 0.92858 0.0
C232 C 0.38358 0.05131 0.9293 0.0
C233 C 0.39438 0.06858 0.91752 0.0
N234 N 0.34259 0.02834 0.91646 0.0
C235 C 0.35302 0.04523 0.90489 0.0
Co236 Co 0.01695 0.2601 0.91862 0.0
Co237 Co 0.04745 0.32719 0.91527 0.0
O238 O 0.0211 0.29173 0.9094 0.0
C239 C 0.96202 0.24977 0.92138 0.0
O240 O 0.97013 0.27083 0.92951 0.0
C241 C 0.05646 0.32397 0.88389 0.0
O242 O 0.0554 0.30175 0.88708 0.0
O243 O 0.07584 0.3183 0.9146 0.0
O244 O 0.05566 0.27584 0.92092 0.0
H245 H 0.12394 0.39496 0.94431 0.0
H246 H 0.99164 0.25625 0.88986 0.0
O247 O 0.97815 0.24333 0.9163 0.0
H248 H 0.05087 0.22106 0.88139 0.0
H249 H 0.97578 0.16242 0.9247 0.0
H250 H 0.04073 0.24895 0.94433 0.0
H251 H 0.04713 0.2364 0.90599 0.0
H252 H 0.98238 0.20295 0.91289 0.0
O253 O 0.05389 0.33746 0.89402 0.0
H254 H 0.09044 0.3501 0.93719 0.0
H255 H 0.06074 0.38033 0.90483 0.0
H256 H 0.03492 0.20891 0.95641 0.0
H257 H 0.99456 0.24083 0.86513 0.0
H258 H 0.00224 0.16525 0.94659 0.0
H259 H 0.02443 0.2232 0.86076 0.0
O260 O 0.01502 0.27353 0.93831 0.0
H261 H 0.96855 0.32923 0.89607 0.0
H262 H 0.03112 0.35394 0.93714 0.0
H263 H 0.9955 0.36435 0.93849 0.0
H264 H 0.96394 0.35202 0.91784 0.0
H265 H 0.00435 0.31903 0.89522 0.0
H266 H 0.09406 0.42554 0.91151 0.0
H267 H 0.12588 0.43306 0.93143 0.0
O268 O 0.04157 0.31727 0.93658 0.0
C269 C 0.07627 0.29762 0.91819 0.0
C270 C 0.11011 0.39194 0.93566 0.0
C271 C 0.09336 0.4091 0.91723 0.0
N272 N 0.0735 0.36263 0.92072 0.0
C273 C 0.09104 0.36659 0.93162 0.0
C274 C 0.07458 0.38347 0.91348 0.0
C275 C 0.11121 0.41331 0.92841 0.0
C276 C 0.00445 0.24831 0.88809 0.0
N277 N 0.01913 0.24715 0.89938 0.0
C278 C 0.00611 0.23973 0.87404 0.0
C279 C 0.02292 0.22988 0.87159 0.0
C280 C 0.03778 0.2287 0.88316 0.0
C281 C 0.03564 0.23749 0.89706 0.0
C282 C 0.99012 0.18133 0.92906 0.0
C283 C 0.02659 0.23002 0.93994 0.0
C284 C 0.99391 0.20435 0.92244 0.0
N285 N 0.01208 0.22829 0.92785 0.0
C286 C 0.02333 0.20742 0.94685 0.0
C287 C 0.00498 0.18293 0.94134 0.0
C288 C 0.02749 0.29638 0.94396 0.0
C289 C 0.98223 0.33477 0.90512 0.0
C290 C 0.01742 0.34845 0.92812 0.0
C291 C 0.99732 0.35444 0.92894 0.0
C292 C 0.97963 0.34753 0.91735 0.0
N293 N 0.01989 0.33602 0.91607 0.0
C294 C 0.00258 0.32912 0.90468 0.0
Co295 Co 0.78314 0.77686 0.91915 0.0
Co296 Co 0.71589 0.741 0.91654 0.0
O297 O 0.751 0.74958 0.91027 0.0
C298 C 0.79365 0.73229 0.92215 0.0
O299 O 0.77389 0.72021 0.93127 0.0
C300 C 0.71852 0.75343 0.88525 0.0
O301 O 0.74084 0.7745 0.88842 0.0
O302 O 0.72529 0.77843 0.91603 0.0
O303 O 0.76805 0.80034 0.92171 0.0
H304 H 0.6497 0.75079 0.94652 0.0
H305 H 0.7855 0.75481 0.89028 0.0
O306 O 0.79926 0.75427 0.91651 0.0
H307 H 0.8219 0.84938 0.88165 0.0
H308 H 0.88115 0.83209 0.92416 0.0
H309 H 0.79576 0.8122 0.9448 0.0
H310 H 0.80715 0.83066 0.90637 0.0
H311 H 0.83995 0.7985 0.91276 0.0
O312 O 0.70508 0.73735 0.89538 0.0
H313 H 0.69416 0.76153 0.93891 0.0
H314 H 0.66226 0.70176 0.90648 0.0
H315 H 0.83649 0.8461 0.95648 0.0
H316 H 0.80032 0.77278 0.86542 0.0
H317 H 0.87957 0.85623 0.94615 0.0
H318 H 0.81856 0.82037 0.86097 0.0
O319 O 0.77024 0.76187 0.93895 0.0
H320 H 0.71183 0.6594 0.89681 0.0
H321 H 0.68932 0.69799 0.93845 0.0
H322 H 0.67819 0.65172 0.93963 0.0
H323 H 0.68941 0.63213 0.91868 0.0
H324 H 0.72277 0.70564 0.89615 0.0
H325 H 0.61743 0.6905 0.91365 0.0
H326 H 0.61095 0.71504 0.93385 0.0
O327 O 0.72647 0.74489 0.93774 0.0
C328 C 0.74629 0.79944 0.91935 0.0
C329 C 0.65226 0.73988 0.93775 0.0
C330 C 0.63416 0.70607 0.91928 0.0
N331 N 0.68076 0.7321 0.92238 0.0
C332 C 0.67738 0.74582 0.93343 0.0
C333 C 0.65957 0.71256 0.91525 0.0
C334 C 0.63053 0.71984 0.93062 0.0
C335 C 0.79371 0.77559 0.88847 0.0
N336 N 0.79555 0.79167 0.89978 0.0
C337 C 0.80195 0.78563 0.87435 0.0
C338 C 0.81214 0.81233 0.87185 0.0
C339 C 0.81399 0.82861 0.88345 0.0
C340 C 0.80554 0.81788 0.89742 0.0
C341 C 0.86249 0.82789 0.92875 0.0
C342 C 0.81444 0.81662 0.94019 0.0
C343 C 0.8391 0.80886 0.92235 0.0
N344 N 0.81547 0.80356 0.92804 0.0
C345 C 0.83743 0.83578 0.94687 0.0
C346 C 0.8616 0.84143 0.94108 0.0
C347 C 0.7476 0.75163 0.94486 0.0
C348 C 0.70678 0.66769 0.90599 0.0
C349 C 0.69433 0.68962 0.92932 0.0
C350 C 0.68793 0.6634 0.93003 0.0
C351 C 0.69422 0.65241 0.91827 0.0
N352 N 0.70655 0.70444 0.91721 0.0
C353 C 0.71285 0.69384 0.90566 0.0
Co354 Co 0.01581 0.78375 0.91701 0.0
Co355 Co 0.04463 0.74515 0.91641 0.0
O356 O 0.01922 0.75474 0.90944 0.0
C357 C 0.96148 0.73914 0.92122 0.0
O358 O 0.97059 0.72703 0.92932 0.0
C359 C 0.05572 0.75673 0.88507 0.0
O360 O 0.05474 0.77806 0.88785 0.0
O361 O 0.07384 0.78229 0.91602 0.0
O362 O 0.05448 0.80661 0.91834 0.0
H363 H 0.11742 0.75212 0.94832 0.0
H364 H 0.98863 0.75743 0.88941 0.0
O365 O 0.97688 0.76153 0.91568 0.0
H366 H 0.04761 0.84988 0.87596 0.0
H367 H 0.97529 0.84132 0.91936 0.0
H368 H 0.04154 0.82316 0.94065 0.0
H369 H 0.04535 0.83512 0.90154 0.0
H370 H 0.98097 0.80536 0.90969 0.0
O371 O 0.05258 0.74087 0.89544 0.0
H372 H 0.08527 0.76434 0.93969 0.0
H373 H 0.05794 0.70471 0.90719 0.0
H374 H 0.03666 0.85943 0.95058 0.0
H375 H 0.99011 0.77141 0.86373 0.0
H376 H 0.00334 0.86871 0.93992 0.0
H377 H 0.01984 0.81791 0.85685 0.0
O378 O 0.01524 0.77205 0.93755 0.0
H379 H 0.96629 0.66494 0.89608 0.0
H380 H 0.02584 0.7021 0.93846 0.0
H381 H 0.98946 0.65639 0.9395 0.0
H382 H 0.95941 0.63751 0.91818 0.0
H383 H 0.00279 0.71062 0.89557 0.0
H384 H 0.08994 0.69197 0.91539 0.0
H385 H 0.11989 0.7157 0.93614 0.0
O386 O 0.03699 0.74961 0.93736 0.0
C387 C 0.07479 0.80427 0.9175 0.0
C388 C 0.10442 0.74158 0.9393 0.0
C389 C 0.08902 0.70785 0.9208 0.0
N390 N 0.06963 0.73511 0.92303 0.0
C391 C 0.08613 0.74836 0.9344 0.0
C392 C 0.07099 0.71518 0.91619 0.0
C393 C 0.10581 0.72116 0.93245 0.0
C394 C 0.0014 0.77776 0.88654 0.0
N395 N 0.01677 0.79546 0.89698 0.0
C396 C 0.00223 0.78554 0.87196 0.0
C397 C 0.01895 0.81162 0.86811 0.0
C398 C 0.03456 0.82957 0.87882 0.0
C399 C 0.03323 0.82108 0.89329 0.0
C400 C 0.98991 0.8375 0.92408 0.0
C401 C 0.0271 0.82717 0.9359 0.0
C402 C 0.99318 0.81714 0.91867 0.0
N403 N 0.0117 0.81229 0.92454 0.0
C404 C 0.02438 0.84769 0.94159 0.0
C405 C 0.00566 0.85287 0.93561 0.0
C406 C 0.02523 0.75988 0.94404 0.0
C407 C 0.97929 0.67292 0.90542 0.0
C408 C 0.01279 0.69405 0.92917 0.0
C409 C 0.99226 0.66814 0.9298 0.0
C410 C 0.97542 0.65755 0.91783 0.0
N411 N 0.01649 0.70897 0.91695 0.0
C412 C 4e-05 0.69875 0.90518 0.0
Co413 Co 0.2689 0.26137 0.91735 0.0
Co414 Co 0.30591 0.32864 0.91531 0.0
O415 O 0.29679 0.29351 0.90878 0.0
C416 C 0.31338 0.25088 0.92012 0.0
O417 O 0.32595 0.27143 0.92866 0.0
C418 C 0.29428 0.32712 0.88394 0.0
O419 O 0.27294 0.30486 0.88684 0.0
O420 O 0.26871 0.31999 0.91461 0.0
O421 O 0.24592 0.27706 0.91983 0.0
H422 H 0.29704 0.39498 0.94569 0.0
H423 H 0.29147 0.2592 0.88862 0.0
O424 O 0.29102 0.24471 0.91482 0.0
H425 H 0.19742 0.22469 0.8792 0.0
H426 H 0.21208 0.1634 0.92154 0.0
H427 H 0.23299 0.24874 0.94271 0.0
H428 H 0.21555 0.23857 0.90411 0.0
H429 H 0.2465 0.2046 0.91055 0.0
O430 O 0.3102 0.34007 0.89424 0.0
H431 H 0.28562 0.35048 0.93775 0.0
H432 H 0.3461 0.38227 0.90573 0.0
H433 H 0.19826 0.20801 0.95398 0.0
H434 H 0.27409 0.24525 0.86357 0.0
H435 H 0.18762 0.16496 0.94338 0.0
H436 H 0.22677 0.22796 0.85873 0.0
O437 O 0.2835 0.27359 0.93731 0.0
H438 H 0.38704 0.33137 0.89586 0.0
H439 H 0.34859 0.35399 0.93752 0.0
H440 H 0.39453 0.36412 0.93891 0.0
H441 H 0.41405 0.35284 0.91796 0.0
H442 H 0.34112 0.32142 0.89497 0.0
H443 H 0.35806 0.42713 0.91324 0.0
H444 H 0.3335 0.43369 0.9334 0.0
O445 O 0.30142 0.31751 0.93642 0.0
C446 C 0.24738 0.29913 0.91765 0.0
C447 C 0.30795 0.39238 0.93694 0.0
C448 C 0.34218 0.41043 0.9187 0.0
N449 N 0.31536 0.36381 0.9214 0.0
C450 C 0.30164 0.36723 0.93243 0.0
C451 C 0.3353 0.38499 0.91449 0.0
C452 C 0.3284 0.41409 0.93002 0.0
C453 C 0.2708 0.25141 0.88663 0.0
N454 N 0.25453 0.24962 0.89783 0.0
C455 C 0.26109 0.24365 0.87241 0.0
C456 C 0.23455 0.234 0.8697 0.0
C457 C 0.21807 0.23219 0.88118 0.0
C458 C 0.22847 0.24015 0.89525 0.0
C459 C 0.2165 0.18204 0.92624 0.0
C460 C 0.22835 0.23008 0.93798 0.0
C461 C 0.236 0.20544 0.92008 0.0
N462 N 0.24158 0.22905 0.92592 0.0
C463 C 0.20872 0.20708 0.94443 0.0
C464 C 0.20278 0.18293 0.93849 0.0
C465 C 0.29406 0.29611 0.94339 0.0
C466 C 0.37878 0.33645 0.90504 0.0
C467 C 0.35693 0.34896 0.92837 0.0
C468 C 0.38297 0.35479 0.92921 0.0
C469 C 0.39391 0.34847 0.91745 0.0
N470 N 0.34225 0.33726 0.91614 0.0
C471 C 0.35282 0.33094 0.90458 0.0
Co472 Co 0.78563 0.02949 0.91931 0.0
Co473 Co 0.71855 -6e-05 0.91641 0.0
O474 O 0.75402 0.02581 0.91032 0.0
C475 C 0.79694 0.08478 0.92203 0.0
O476 O 0.77639 0.07715 0.93053 0.0
C477 C 0.72097 0.9906 0.88501 0.0
O478 O 0.743 0.99116 0.88808 0.0
O479 O 0.72681 0.97114 0.91565 0.0
O480 O 0.76937 0.99072 0.92171 0.0
H481 H 0.65059 0.9242 0.94582 0.0
H482 H 0.78924 0.05465 0.89052 0.0
O483 O 0.80284 0.06832 0.91684 0.0
H484 H 0.82297 0.99426 0.88181 0.0
H485 H 0.88328 0.0694 0.9247 0.0
H486 H 0.79684 0.00556 0.94491 0.0
H487 H 0.8083 0.9985 0.9065 0.0
H488 H 0.84273 0.06333 0.91318 0.0
O489 O 0.70784 0.99351 0.89522 0.0
H490 H 0.6955 0.95714 0.93842 0.0
H491 H 0.66546 0.98746 0.90633 0.0
H492 H 0.8369 0.01085 0.9567 0.0
H493 H 0.80402 0.05125 0.86569 0.0
H494 H 0.88051 0.04296 0.94658 0.0
H495 H 0.82092 0.02079 0.8612 0.0
O496 O 0.77278 0.03186 0.93909 0.0
H497 H 0.71764 0.0795 0.89734 0.0
H498 H 0.69283 0.01709 0.93848 0.0
H499 H 0.68323 0.05325 0.93997 0.0
H500 H 0.69561 0.08474 0.91927 0.0
H501 H 0.72704 0.04317 0.89636 0.0
H502 H 0.6202 0.95472 0.91328 0.0
H503 H 0.61256 0.92286 0.9332 0.0
O504 O 0.72893 0.00583 0.93765 0.0
C505 C 0.74734 0.97032 0.9191 0.0
C506 C 0.65367 0.93805 0.93716 0.0
C507 C 0.63661 0.95515 0.91889 0.0
N508 N 0.68307 0.97436 0.92208 0.0
C509 C 0.67905 0.9568 0.93297 0.0
C510 C 0.66227 0.97361 0.91498 0.0
C511 C 0.63234 0.93729 0.93007 0.0
C512 C 0.79686 0.04158 0.88869 0.0
N513 N 0.79799 0.02686 0.89997 0.0
C514 C 0.80509 0.03965 0.87459 0.0
C515 C 0.81452 0.02251 0.87208 0.0
C516 C 0.81565 0.0076 0.88363 0.0
C517 C 0.80724 0.01003 0.89758 0.0
C518 C 0.86439 0.05531 0.92919 0.0
C519 C 0.81574 0.01946 0.94039 0.0
C520 C 0.84136 0.05182 0.92273 0.0
N521 N 0.81744 0.03395 0.9283 0.0
C522 C 0.83836 0.02242 0.94714 0.0
C523 C 0.86282 0.04046 0.94147 0.0
C524 C 0.75004 0.01971 0.94489 0.0
C525 C 0.71208 0.06587 0.9064 0.0
C526 C 0.69833 0.03075 0.92945 0.0
C527 C 0.6928 0.05116 0.93034 0.0
C528 C 0.69975 0.06881 0.91872 0.0
N529 N 0.71034 0.02794 0.9173 0.0
C530 C 0.71727 0.04521 0.90589 0.0
Co531 Co 0.77976 0.01729 0.07981 0.0
Co532 Co 0.7432 0.04784 0.08288 0.0
O533 O 0.75229 0.02157 0.08892 0.0
C534 C 0.73528 0.96218 0.07727 0.0
O535 O 0.72248 0.96995 0.06877 0.0
C536 C 0.75547 0.0572 0.11421 0.0
O537 O 0.77674 0.05636 0.11099 0.0
O538 O 0.78047 0.07625 0.0835 0.0
O539 O 0.8027 0.05596 0.07726 0.0
H540 H 0.75188 0.12392 0.05343 0.0
H541 H 0.75844 0.99258 0.10872 0.0
O542 O 0.75772 0.97852 0.08242 0.0
H543 H 0.85289 0.0521 0.11696 0.0
H544 H 0.83631 0.97608 0.07422 0.0
H545 H 0.81457 0.04054 0.05401 0.0
H546 H 0.83369 0.0478 0.09235 0.0
H547 H 0.80238 0.98287 0.08588 0.0
O548 O 0.73933 0.05448 0.1041 0.0
H549 H 0.76327 0.09054 0.06079 0.0
H550 H 0.70335 0.06125 0.09314 0.0
H551 H 0.84878 0.03453 0.04208 0.0
H552 H 0.77689 0.99605 0.13348 0.0
H553 H 0.85985 0.00211 0.05219 0.0
H554 H 0.82442 0.02608 0.13773 0.0
O555 O 0.76431 0.01497 0.0601 0.0
H556 H 0.6622 0.96915 0.10223 0.0
H557 H 0.70017 0.03124 0.06096 0.0
H558 H 0.65414 0.99561 0.05964 0.0
H559 H 0.63485 0.96429 0.08039 0.0
H560 H 0.70821 0.00496 0.10304 0.0
H561 H 0.69143 0.09445 0.08623 0.0
H562 H 0.71571 0.126 0.0662 0.0
O563 O 0.7473 0.04171 0.06161 0.0
C564 C 0.80155 0.07662 0.0799 0.0
C565 C 0.74108 0.1102 0.06214 0.0
C566 C 0.70718 0.09369 0.08056 0.0
N567 N 0.7338 0.07381 0.07726 0.0
C568 C 0.74738 0.09121 0.06631 0.0
C569 C 0.71404 0.07497 0.08444 0.0
C570 C 0.7208 0.11138 0.06932 0.0
C571 C 0.7792 0.00544 0.11045 0.0
N572 N 0.79497 0.01989 0.09908 0.0
C573 C 0.78951 0.00742 0.1245 0.0
C574 C 0.81617 0.02431 0.12689 0.0
C575 C 0.83215 0.03894 0.11524 0.0
C576 C 0.82115 0.03648 0.10133 0.0
C577 C 0.8317 0.99031 0.06973 0.0
C578 C 0.81939 0.02651 0.05853 0.0
C579 C 0.81248 0.99421 0.07627 0.0
N580 N 0.80666 0.01225 0.0707 0.0
C581 C 0.83873 0.02314 0.0517 0.0
C582 C 0.84491 0.00492 0.05737 0.0
C583 C 0.75405 0.02747 0.05434 0.0
C584 C 0.67036 0.98272 0.09313 0.0
C585 C 0.69193 0.01764 0.07002 0.0
C586 C 0.66584 0.99754 0.06922 0.0
C587 C 0.65503 0.97998 0.08087 0.0
N588 N 0.7068 0.02025 0.08211 0.0
C589 C 0.69637 0.00308 0.09356 0.0
Co590 Co 0.03003 0.79006 0.08117 0.0
Co591 Co 0.00261 0.72277 0.08191 0.0
O592 O 0.02736 0.75802 0.0889 0.0
C593 C 0.08506 0.80154 0.07732 0.0
O594 O 0.07672 0.78042 0.06921 0.0
C595 C 0.9911 0.72272 0.11326 0.0
O596 O 0.99155 0.74482 0.11057 0.0
O597 O 0.97277 0.72977 0.08225 0.0
O598 O 0.9913 0.77331 0.07958 0.0
H599 H 0.93084 0.65587 0.0499 0.0
H600 H 0.05701 0.79183 0.10901 0.0
O601 O 0.06901 0.80775 0.08277 0.0
H602 H 0.99581 0.82293 0.12173 0.0
H603 H 0.06812 0.88784 0.07868 0.0
H604 H 0.00404 0.80267 0.0572 0.0
H605 H 0.99904 0.81065 0.09625 0.0
H606 H 0.06346 0.84672 0.08852 0.0
O607 O 0.99476 0.71043 0.10285 0.0
H608 H 0.96212 0.7005 0.05858 0.0
H609 H 0.99061 0.6694 0.09113 0.0
H610 H 0.00792 0.8433 0.04709 0.0
H611 H 0.05459 0.80415 0.13461 0.0
H612 H 0.04015 0.88628 0.05785 0.0
H613 H 0.02374 0.81973 0.14112 0.0
O614 O 0.03138 0.77906 0.0607 0.0
H615 H 0.08202 0.72323 0.1024 0.0
H616 H 0.02244 0.69935 0.05994 0.0
H617 H 0.05961 0.69122 0.05899 0.0
H618 H 0.08968 0.70314 0.08035 0.0
H619 H 0.04473 0.73121 0.10282 0.0
H620 H 0.95948 0.62442 0.08289 0.0
H621 H 0.9294 0.61746 0.06209 0.0
O622 O 0.01013 0.73489 0.06097 0.0
C623 C 0.9713 0.75048 0.08055 0.0
C624 C 0.94391 0.65866 0.05894 0.0
C625 C 0.95996 0.641 0.07747 0.0
N626 N 0.97829 0.68752 0.07526 0.0
C627 C 0.96171 0.68387 0.06387 0.0
C628 C 0.97749 0.6665 0.08211 0.0
C629 C 0.94309 0.63711 0.0658 0.0
C630 C 0.04376 0.79888 0.11172 0.0
N631 N 0.02829 0.80065 0.10113 0.0
C632 C 0.04239 0.80572 0.12625 0.0
C633 C 0.02504 0.81441 0.1299 0.0
C634 C 0.00935 0.81619 0.11903 0.0
C635 C 0.01122 0.80916 0.10462 0.0
C636 C 0.05397 0.86923 0.07392 0.0
C637 C 0.01801 0.82129 0.06199 0.0
C638 C 0.05128 0.84589 0.07942 0.0
N639 N 0.03336 0.8223 0.0735 0.0
C640 C 0.02016 0.84423 0.0562 0.0
C641 C 0.03827 0.86834 0.06223 0.0
C642 C 0.02173 0.75689 0.05425 0.0
C643 C 0.06902 0.7179 0.09304 0.0
C644 C 0.0355 0.70469 0.06924 0.0
C645 C 0.05648 0.69997 0.06866 0.0
C646 C 0.07333 0.70665 0.08065 0.0
N647 N 0.03137 0.71566 0.08144 0.0
C648 C 0.04783 0.72229 0.09323 0.0
Co649 Co 0.26258 0.26993 0.07839 0.0
Co650 Co 0.32965 0.30689 0.08155 0.0
O651 O 0.29421 0.29768 0.08748 0.0
C652 C 0.25112 0.31382 0.07523 0.0
O653 O 0.27124 0.32637 0.06639 0.0
C654 C 0.32692 0.29533 0.113 0.0
O655 O 0.30477 0.27398 0.10996 0.0
O656 O 0.32101 0.26969 0.08246 0.0
O657 O 0.27855 0.24717 0.07611 0.0
H658 H 0.39744 0.29808 0.0526 0.0
H659 H 0.25888 0.29161 0.10712 0.0
O660 O 0.2456 0.29179 0.08075 0.0
H661 H 0.22432 0.19735 0.11587 0.0
H662 H 0.1649 0.21281 0.07267 0.0
H663 H 0.25137 0.23473 0.05281 0.0
H664 H 0.23936 0.21622 0.09121 0.0
H665 H 0.20546 0.24708 0.0843 0.0
O666 O 0.34018 0.31125 0.10277 0.0
H667 H 0.35257 0.28653 0.05982 0.0
H668 H 0.3828 0.34728 0.09169 0.0
H669 H 0.21132 0.20018 0.04091 0.0
H670 H 0.24375 0.27348 0.13192 0.0
H671 H 0.16769 0.18902 0.05084 0.0
H672 H 0.22643 0.22605 0.13643 0.0
O673 O 0.27575 0.28504 0.05862 0.0
H674 H 0.33131 0.38796 0.10022 0.0
H675 H 0.35591 0.34955 0.0594 0.0
H676 H 0.366 0.39545 0.05774 0.0
H677 H 0.35372 0.41496 0.07827 0.0
H678 H 0.32142 0.34207 0.10138 0.0
H679 H 0.42801 0.35936 0.08492 0.0
H680 H 0.43554 0.33474 0.0652 0.0
O681 O 0.3195 0.30232 0.06028 0.0
C682 C 0.3004 0.24849 0.07888 0.0
C683 C 0.39442 0.30903 0.06117 0.0
C684 C 0.41157 0.3434 0.07932 0.0
N685 N 0.3651 0.31642 0.07604 0.0
C686 C 0.36906 0.30264 0.06526 0.0
C687 C 0.38594 0.33645 0.08313 0.0
C688 C 0.41579 0.32958 0.06825 0.0
C689 C 0.25107 0.27089 0.10896 0.0
N690 N 0.24992 0.25499 0.09771 0.0
C691 C 0.24265 0.26076 0.12304 0.0
C692 C 0.23298 0.23416 0.12557 0.0
C693 C 0.23182 0.21805 0.11404 0.0
C694 C 0.24044 0.22887 0.1001 0.0
C695 C 0.1838 0.21746 0.06825 0.0
C696 C 0.23246 0.22987 0.05725 0.0
C697 C 0.20683 0.23687 0.07478 0.0
N698 N 0.23076 0.24274 0.06931 0.0
C699 C 0.20985 0.21034 0.05044 0.0
C700 C 0.18538 0.20411 0.05601 0.0
C701 C 0.29855 0.29528 0.05291 0.0
C702 C 0.33682 0.3797 0.09122 0.0
C703 C 0.35045 0.35788 0.06836 0.0
C704 C 0.35626 0.3839 0.06737 0.0
C705 C 0.34937 0.39483 0.07889 0.0
N706 N 0.33823 0.34321 0.08051 0.0
C707 C 0.33135 0.35376 0.09184 0.0
Co708 Co 0.69746 0.60073 0.41369 0.0
Co709 Co 0.66763 0.63817 0.41552 0.0
O710 O 0.69335 0.62874 0.4222 0.0
C711 C 0.75234 0.64528 0.41134 0.0
O712 O 0.74423 0.65829 0.40325 0.0
C713 C 0.65695 0.6263 0.44681 0.0
O714 O 0.6577 0.60489 0.44389 0.0
O715 O 0.63885 0.60104 0.41606 0.0
O716 O 0.6588 0.57797 0.41109 0.0
H717 H 0.59323 0.63017 0.3847 0.0
H718 H 0.722 0.62317 0.44247 0.0
O719 O 0.73622 0.62261 0.4163 0.0
H720 H 0.66179 0.52922 0.45183 0.0
H721 H 0.73797 0.54331 0.40976 0.0
H722 H 0.67426 0.56491 0.38828 0.0
H723 H 0.66644 0.54739 0.4269 0.0
H724 H 0.73141 0.57793 0.42067 0.0
O725 O 0.6602 0.64237 0.43654 0.0
H726 H 0.62592 0.61834 0.39284 0.0
H727 H 0.65444 0.67857 0.42501 0.0
H728 H 0.68004 0.53 0.3771 0.0
H729 H 0.71817 0.60574 0.46754 0.0
H730 H 0.7121 0.519 0.38786 0.0
H731 H 0.6878 0.55847 0.47236 0.0
O732 O 0.7002 0.61541 0.39373 0.0
H733 H 0.74606 0.71883 0.43538 0.0
H734 H 0.68565 0.68105 0.39339 0.0
H735 H 0.72174 0.72688 0.39218 0.0
H736 H 0.75222 0.74607 0.4133 0.0
H737 H 0.70982 0.67302 0.43608 0.0
H738 H 0.62192 0.69093 0.41731 0.0
H739 H 0.5911 0.66671 0.39697 0.0
O740 O 0.67458 0.63376 0.39445 0.0
C741 C 0.63826 0.57962 0.4131 0.0
C742 C 0.60662 0.64094 0.39353 0.0
C743 C 0.6227 0.67501 0.41185 0.0
N744 N 0.64222 0.64793 0.40927 0.0
C745 C 0.62523 0.63439 0.39815 0.0
C746 C 0.64104 0.66791 0.41618 0.0
C747 C 0.60542 0.66142 0.40043 0.0
C748 C 0.70898 0.60252 0.44444 0.0
N749 N 0.69454 0.58631 0.43322 0.0
C750 C 0.7068 0.59278 0.45868 0.0
C751 C 0.68971 0.56627 0.46138 0.0
C752 C 0.67509 0.54985 0.44987 0.0
C753 C 0.67776 0.56027 0.43578 0.0
C754 C 0.7239 0.54788 0.405 0.0
C755 C 0.68812 0.56012 0.39308 0.0
C756 C 0.72013 0.56749 0.41111 0.0
N757 N 0.7023 0.57327 0.40519 0.0
C758 C 0.69137 0.54039 0.38668 0.0
C759 C 0.70937 0.53425 0.39271 0.0
C760 C 0.68856 0.62623 0.38757 0.0
C761 C 0.73286 0.71071 0.42613 0.0
C762 C 0.69887 0.68924 0.40261 0.0
C763 C 0.71924 0.71522 0.40187 0.0
C764 C 0.73633 0.72598 0.41372 0.0
N765 N 0.69555 0.67443 0.41483 0.0
C766 C 0.71226 0.68482 0.42648 0.0
Co767 Co 0.44742 0.11993 0.41246 0.0
Co768 Co 0.41076 0.05279 0.41535 0.0
O769 O 0.41983 0.08812 0.42148 0.0
C770 C 0.40273 0.13011 0.40996 0.0
O771 O 0.38975 0.10899 0.40187 0.0
C772 C 0.42253 0.05525 0.44677 0.0
O773 O 0.44383 0.07746 0.44375 0.0
O774 O 0.44802 0.06162 0.4161 0.0
O775 O 0.47035 0.10419 0.40999 0.0
H776 H 0.41971 0.98562 0.38583 0.0
H777 H 0.42578 0.1232 0.44128 0.0
O778 O 0.42538 0.13667 0.41494 0.0
H779 H 0.52013 0.15807 0.44986 0.0
H780 H 0.50408 0.21773 0.40704 0.0
H781 H 0.4825 0.1316 0.38678 0.0
H782 H 0.5012 0.14326 0.42518 0.0
H783 H 0.47002 0.17696 0.4186 0.0
O784 O 0.4066 0.04203 0.43653 0.0
H785 H 0.43106 0.03034 0.39329 0.0
H786 H 0.37072 0.99944 0.4254 0.0
H787 H 0.51685 0.17188 0.37495 0.0
H788 H 0.44397 0.13808 0.4661 0.0
H789 H 0.52783 0.21534 0.38509 0.0
H790 H 0.49144 0.15556 0.47052 0.0
O791 O 0.43217 0.10696 0.39269 0.0
H792 H 0.32963 0.05045 0.43447 0.0
H793 H 0.36795 0.0266 0.39327 0.0
H794 H 0.32196 0.01629 0.39181 0.0
H795 H 0.3025 0.02819 0.41253 0.0
H796 H 0.37559 0.06056 0.43543 0.0
H797 H 0.35884 0.95437 0.41838 0.0
H798 H 0.38335 0.94726 0.39842 0.0
O799 O 0.4151 0.0632 0.39411 0.0
C800 C 0.46916 0.08236 0.41261 0.0
C801 C 0.40881 0.98847 0.3945 0.0
C802 C 0.37467 0.97093 0.41279 0.0
N803 N 0.40138 0.01746 0.40965 0.0
C804 C 0.41509 0.01373 0.39873 0.0
C805 C 0.38151 0.99648 0.41673 0.0
C806 C 0.38843 0.96695 0.40158 0.0
C807 C 0.44652 0.13107 0.44308 0.0
N808 N 0.46241 0.13244 0.43178 0.0
C809 C 0.45668 0.13935 0.45717 0.0
C810 C 0.48331 0.14911 0.45965 0.0
C811 C 0.49941 0.15049 0.44806 0.0
C812 C 0.48856 0.14201 0.43412 0.0
C813 C 0.49951 0.19891 0.40254 0.0
C814 C 0.48729 0.15044 0.39131 0.0
C815 C 0.48021 0.17576 0.40902 0.0
N816 N 0.47444 0.15192 0.40344 0.0
C817 C 0.5067 0.17318 0.38454 0.0
C818 C 0.51284 0.19756 0.39023 0.0
C819 C 0.42191 0.08424 0.38688 0.0
C820 C 0.33786 0.0451 0.42539 0.0
C821 C 0.35964 0.03189 0.40232 0.0
C822 C 0.33358 0.02596 0.40144 0.0
C823 C 0.32266 0.03264 0.41307 0.0
N824 N 0.37439 0.04403 0.41446 0.0
C825 C 0.36385 0.05069 0.42589 0.0
Co826 Co 0.9284 0.35114 0.41281 0.0
Co827 Co 0.9955 0.38086 0.41581 0.0
O828 O 0.96001 0.35496 0.42188 0.0
C829 C 0.9177 0.29607 0.41039 0.0
O830 O 0.93887 0.30401 0.40237 0.0
C831 C 0.99283 0.3905 0.44713 0.0
O832 O 0.97075 0.38975 0.44394 0.0
O833 O 0.98715 0.40962 0.41638 0.0
O834 O 0.94456 0.38987 0.41038 0.0
H835 H 0.06349 0.45638 0.38628 0.0
H836 H 0.9247 0.32603 0.44162 0.0
O837 O 0.91127 0.31233 0.41527 0.0
H838 H 0.89077 0.3863 0.45016 0.0
H839 H 0.83075 0.31099 0.40724 0.0
H840 H 0.91724 0.37492 0.38712 0.0
H841 H 0.90554 0.38203 0.42551 0.0
H842 H 0.87129 0.3172 0.41886 0.0
O843 O 0.0061 0.38755 0.43702 0.0
H844 H 0.01857 0.42345 0.39366 0.0
H845 H 0.04857 0.39358 0.42605 0.0
H846 H 0.8772 0.36949 0.37523 0.0
H847 H 0.90985 0.32947 0.46642 0.0
H848 H 0.83356 0.33733 0.3853 0.0
H849 H 0.89285 0.35987 0.47083 0.0
O850 O 0.94137 0.34874 0.39306 0.0
H851 H 0.99657 0.30163 0.43531 0.0
H852 H 0.0214 0.36358 0.39393 0.0
H853 H 0.03112 0.32748 0.39268 0.0
H854 H 0.01873 0.29623 0.41349 0.0
H855 H 0.98705 0.3379 0.43606 0.0
H856 H 0.09384 0.42632 0.41911 0.0
H857 H 0.10151 0.45794 0.39905 0.0
O858 O 0.98522 0.37473 0.39455 0.0
C859 C 0.96657 0.41034 0.41292 0.0
C860 C 0.06041 0.44263 0.395 0.0
C861 C 0.07744 0.42579 0.41344 0.0
N862 N 0.03098 0.40645 0.41016 0.0
C863 C 0.03502 0.42389 0.39918 0.0
C864 C 0.05178 0.40733 0.41733 0.0
C865 C 0.08173 0.44352 0.40218 0.0
C866 C 0.91704 0.33907 0.44341 0.0
N867 N 0.91591 0.35374 0.43211 0.0
C868 C 0.90877 0.34103 0.45749 0.0
C869 C 0.89928 0.35813 0.45997 0.0
C870 C 0.89814 0.37298 0.44838 0.0
C871 C 0.9066 0.37054 0.43445 0.0
C872 C 0.84965 0.32511 0.40277 0.0
C873 C 0.89832 0.36101 0.39161 0.0
C874 C 0.87267 0.32868 0.40928 0.0
N875 N 0.8966 0.34657 0.40374 0.0
C876 C 0.87572 0.35796 0.38481 0.0
C877 C 0.85124 0.33989 0.39046 0.0
C878 C 0.96414 0.36083 0.38729 0.0
C879 C 0.00214 0.31517 0.42619 0.0
C880 C 0.01589 0.35002 0.40301 0.0
C881 C 0.02149 0.32965 0.40225 0.0
C882 C 0.01454 0.31213 0.41394 0.0
N883 N 0.00381 0.35292 0.4151 0.0
C884 C 0.99688 0.33579 0.42658 0.0
Co885 Co 0.93616 0.36475 0.25204 0.0
Co886 Co 0.97178 0.33312 0.24936 0.0
O887 O 0.9636 0.36 0.24325 0.0
C888 C 0.98102 0.41953 0.25552 0.0
O889 O 0.99291 0.41133 0.26445 0.0
C890 C 0.9605 0.32444 0.21787 0.0
O891 O 0.93945 0.32585 0.22082 0.0
O892 O 0.93433 0.30528 0.24835 0.0
O893 O 0.91246 0.32611 0.25419 0.0
H894 H 0.96039 0.25581 0.27863 0.0
H895 H 0.95911 0.39003 0.22347 0.0
O896 O 0.95898 0.40353 0.24981 0.0
H897 H 0.86474 0.33251 0.21391 0.0
H898 H 0.88117 0.40777 0.25709 0.0
H899 H 0.90006 0.34132 0.27732 0.0
H900 H 0.88272 0.33561 0.23876 0.0
H901 H 0.91498 0.40035 0.24581 0.0
O902 O 0.97613 0.32664 0.22817 0.0
H903 H 0.95023 0.29002 0.27122 0.0
H904 H 0.01116 0.31877 0.23948 0.0
H905 H 0.86593 0.34794 0.28885 0.0
H906 H 0.94189 0.38774 0.1985 0.0
H907 H 0.8563 0.38137 0.27873 0.0
H908 H 0.8944 0.35873 0.19358 0.0
O909 O 0.95059 0.36615 0.27195 0.0
H910 H 0.05428 0.41109 0.23082 0.0
H911 H 0.01399 0.34852 0.27169 0.0
H912 H 0.06027 0.38342 0.27347 0.0
H913 H 0.08073 0.41497 0.25291 0.0
H914 H 0.00799 0.376 0.22956 0.0
H915 H 0.02186 0.28473 0.24645 0.0
H916 H 0.99645 0.25302 0.26621 0.0
O917 O 0.96721 0.33907 0.27058 0.0
C918 C 0.9133 0.30527 0.25162 0.0
C919 C 0.97168 0.26958 0.27005 0.0
C920 C 0.00616 0.28579 0.25197 0.0
N921 N 0.98027 0.30653 0.25505 0.0
C922 C 0.96608 0.28905 0.26585 0.0
C923 C -1e-05 0.30499 0.24806 0.0
C924 C 0.99189 0.26801 0.26306 0.0
C925 C 0.93837 0.37759 0.22146 0.0
N926 N 0.92194 0.36305 0.23258 0.0
C927 C 0.92875 0.37629 0.20728 0.0
C928 C 0.90212 0.35997 0.20452 0.0
C929 C 0.88547 0.34523 0.21592 0.0
C930 C 0.89578 0.34701 0.22996 0.0
C931 C 0.88515 0.3931 0.26158 0.0
C932 C 0.89586 0.35579 0.27279 0.0
C933 C 0.9043 0.38885 0.25526 0.0
N934 N 0.90933 0.37026 0.26083 0.0
C935 C 0.87657 0.3595 0.2794 0.0
C936 C 0.8712 0.37828 0.27372 0.0
C937 C 0.96044 0.35333 0.27779 0.0
C938 C 0.04561 0.39742 0.23983 0.0
C939 C 0.02273 0.36222 0.26272 0.0
C940 C 0.04896 0.38191 0.26378 0.0
C941 C 0.06043 0.3996 0.25224 0.0
N942 N 0.00836 0.36015 0.25049 0.0
C943 C 0.01944 0.37746 0.23915 0.0
Co944 Co 0.6842 0.59398 0.25261 0.0
Co945 Co 0.71444 0.66111 0.24942 0.0
O946 O 0.68806 0.62566 0.24361 0.0
C947 C 0.62931 0.58356 0.25613 0.0
O948 O 0.63752 0.60409 0.26472 0.0
C949 C 0.72298 0.65784 0.21802 0.0
O950 O 0.72201 0.63566 0.2212 0.0
O951 O 0.74288 0.65232 0.24853 0.0
O952 O 0.72299 0.60969 0.25449 0.0
H953 H 0.79136 0.72897 0.27816 0.0
H954 H 0.65807 0.59041 0.22416 0.0
O955 O 0.64532 0.57733 0.25064 0.0
H956 H 0.7168 0.555 0.21457 0.0
H957 H 0.64298 0.49625 0.25841 0.0
H958 H 0.70875 0.58261 0.27784 0.0
H959 H 0.71387 0.57025 0.23934 0.0
H960 H 0.64932 0.53689 0.24687 0.0
O961 O 0.72054 0.67138 0.22816 0.0
H962 H 0.75782 0.68408 0.27109 0.0
H963 H 0.72741 0.71422 0.2391 0.0
H964 H 0.70321 0.54246 0.28965 0.0
H965 H 0.66017 0.57509 0.19926 0.0
H966 H 0.67012 0.49889 0.27992 0.0
H967 H 0.68979 0.55734 0.19432 0.0
O968 O 0.68296 0.60732 0.27246 0.0
H969 H 0.63515 0.66298 0.23075 0.0
H970 H 0.69834 0.68772 0.2715 0.0
H971 H 0.66267 0.69803 0.27313 0.0
H972 H 0.6308 0.68568 0.25264 0.0
H973 H 0.671 0.65288 0.22962 0.0
H974 H 0.76076 0.75945 0.24573 0.0
H975 H 0.79296 0.76703 0.26543 0.0
O976 O 0.70891 0.65114 0.27071 0.0
C977 C 0.74348 0.63161 0.25182 0.0
C978 C 0.77736 0.72592 0.2696 0.0
C979 C 0.76021 0.74303 0.25138 0.0
N980 N 0.74051 0.69657 0.25482 0.0
C981 C 0.75827 0.70056 0.26559 0.0
C982 C 0.7414 0.71739 0.24766 0.0
C983 C 0.77827 0.74727 0.26244 0.0
C984 C 0.67077 0.58242 0.22214 0.0
N985 N 0.68575 0.58114 0.23321 0.0
C986 C 0.67197 0.57389 0.208 0.0
C987 C 0.68863 0.56398 0.20523 0.0
C988 C 0.70381 0.56269 0.21658 0.0
C989 C 0.70212 0.57142 0.23058 0.0
C990 C 0.6575 0.51512 0.26273 0.0
C991 C 0.69443 0.56372 0.2735 0.0
C992 C 0.66114 0.5382 0.25626 0.0
N993 N 0.67954 0.5621 0.26161 0.0
C994 C 0.69133 0.54106 0.28025 0.0
C995 C 0.67274 0.51662 0.2748 0.0
C996 C 0.69531 0.63018 0.27812 0.0
C997 C 0.64896 0.66852 0.23973 0.0
C998 C 0.6845 0.68223 0.26255 0.0
C999 C 0.66438 0.68816 0.26353 0.0
C1000 C 0.64651 0.68124 0.25203 0.0
N1001 N 0.68683 0.66985 0.25043 0.0
C1002 C 0.66935 0.66294 0.23913 0.0
Co1003 Co 0.45619 0.11475 0.25207 0.0
Co1004 Co 0.3891 0.07776 0.24862 0.0
O1005 O 0.42464 0.08697 0.24296 0.0
C1006 C 0.46595 0.06993 0.25563 0.0
O1007 O 0.44495 0.05753 0.26387 0.0
C1008 C 0.39289 0.08989 0.21722 0.0
O1009 O 0.41507 0.11103 0.2205 0.0
O1010 O 0.39783 0.11496 0.24786 0.0
O1011 O 0.44048 0.13786 0.25379 0.0
H1012 H 0.32071 0.08627 0.27712 0.0
H1013 H 0.46018 0.09219 0.22372 0.0
O1014 O 0.47275 0.09243 0.25029 0.0
H1015 H 0.49602 0.18639 0.2141 0.0
H1016 H 0.55383 0.17109 0.25837 0.0
H1017 H 0.46721 0.15072 0.27725 0.0
H1018 H 0.48021 0.16818 0.23881 0.0
H1019 H 0.51335 0.13682 0.24667 0.0
O1020 O 0.37916 0.07386 0.2273 0.0
H1021 H 0.36572 0.09774 0.27029 0.0
H1022 H 0.3362 0.03773 0.23798 0.0
H1023 H 0.50719 0.18531 0.2892 0.0
H1024 H 0.47605 0.10964 0.19889 0.0
H1025 H 0.55089 0.19568 0.27976 0.0
H1026 H 0.49403 0.15705 0.19394 0.0
O1027 O 0.44257 0.10013 0.27187 0.0
H1028 H 0.38783 0.99697 0.22979 0.0
H1029 H 0.36217 0.03471 0.27048 0.0
H1030 H 0.35202 0.98877 0.27199 0.0
H1031 H 0.36483 0.9696 0.25153 0.0
H1032 H 0.39776 0.04289 0.22878 0.0
H1033 H 0.29084 0.02573 0.24436 0.0
H1034 H 0.28289 0.05002 0.26411 0.0
O1035 O 0.39872 0.0819 0.26998 0.0
C1036 C 0.41851 0.13632 0.25112 0.0
C1037 C 0.32392 0.07546 0.26854 0.0
C1038 C 0.30716 0.04151 0.25014 0.0
N1039 N 0.35354 0.06823 0.25387 0.0
C1040 C 0.34935 0.08181 0.26467 0.0
C1041 C 0.33287 0.04842 0.24656 0.0
C1042 C 0.30271 0.05514 0.26123 0.0
C1043 C 0.46826 0.11289 0.2217 0.0
N1044 N 0.46936 0.12915 0.23273 0.0
C1045 C 0.4771 0.12264 0.2076 0.0
C1046 C 0.48714 0.14923 0.20482 0.0
C1047 C 0.48823 0.1657 0.21613 0.0
C1048 C 0.47918 0.15526 0.23009 0.0
C1049 C 0.5349 0.16679 0.26257 0.0
C1050 C 0.48616 0.15525 0.27302 0.0
C1051 C 0.51191 0.14738 0.256 0.0
N1052 N 0.48794 0.14194 0.2612 0.0
C1053 C 0.50872 0.17479 0.27986 0.0
C1054 C 0.53324 0.18058 0.27456 0.0
C1055 C 0.41965 0.08936 0.27744 0.0
C1056 C 0.38208 0.00508 0.23875 0.0
C1057 C 0.36786 0.02652 0.26155 0.0
C1058 C 0.36201 0.00048 0.26245 0.0
C1059 C 0.3692 0.98974 0.25096 0.0
N1060 N 0.38041 0.0414 0.24951 0.0
C1061 C 0.38757 0.03103 0.23822 0.0
Co1062 Co 0.68381 0.11253 0.25247 0.0
Co1063 Co 0.71444 0.07592 0.24977 0.0
O1064 O 0.68798 0.08473 0.24372 0.0
C1065 C 0.62919 0.06768 0.25602 0.0
O1066 O 0.63768 0.0554 0.26444 0.0
C1067 C 0.7234 0.08787 0.2184 0.0
O1068 O 0.72223 0.10897 0.22157 0.0
O1069 O 0.74273 0.11321 0.24901 0.0
O1070 O 0.72254 0.13591 0.25434 0.0
H1071 H 0.79094 0.0854 0.2791 0.0
H1072 H 0.65777 0.08927 0.22412 0.0
O1073 O 0.64499 0.09001 0.25055 0.0
H1074 H 0.71583 0.18333 0.21398 0.0
H1075 H 0.64183 0.16845 0.25764 0.0
H1076 H 0.70809 0.14898 0.27753 0.0
H1077 H 0.71313 0.16571 0.23888 0.0
H1078 H 0.64856 0.13418 0.2464 0.0
O1079 O 0.721 0.0719 0.22854 0.0
H1080 H 0.75728 0.0964 0.27178 0.0
H1081 H 0.72808 0.03618 0.2396 0.0
H1082 H 0.70217 0.18358 0.28903 0.0
H1083 H 0.65965 0.10612 0.19909 0.0
H1084 H 0.66883 0.1935 0.27907 0.0
H1085 H 0.68893 0.15346 0.19388 0.0
O1086 O 0.6826 0.09832 0.27241 0.0
H1087 H 0.63588 0.99447 0.23072 0.0
H1088 H 0.69819 0.03316 0.27183 0.0
H1089 H 0.66274 0.98707 0.27332 0.0
H1090 H 0.63131 0.96742 0.25264 0.0
H1091 H 0.67151 0.04054 0.22973 0.0
H1092 H 0.76156 0.02463 0.24648 0.0
H1093 H 0.79322 0.04927 0.26641 0.0
O1094 O 0.70839 0.0802 0.27102 0.0
C1095 C 0.74315 0.13454 0.252 0.0
C1096 C 0.77719 0.07445 0.27045 0.0
C1097 C 0.76072 0.04037 0.25212 0.0
N1098 N 0.74058 0.06676 0.25539 0.0
C1099 C 0.75803 0.08053 0.2663 0.0
C1100 C 0.74184 0.04701 0.24826 0.0
C1101 C 0.77847 0.0542 0.26331 0.0
C1102 C 0.67033 0.10994 0.22198 0.0
N1103 N 0.68524 0.12649 0.23297 0.0
C1104 C 0.6714 0.11935 0.20777 0.0
C1105 C 0.68787 0.1459 0.20485 0.0
C1106 C 0.70299 0.16267 0.21611 0.0
C1107 C 0.70144 0.15257 0.23019 0.0
C1108 C 0.65646 0.16435 0.26205 0.0
C1109 C 0.69367 0.15331 0.27308 0.0
C1110 C 0.66033 0.14493 0.25575 0.0
N1111 N 0.67886 0.13975 0.26123 0.0
C1112 C 0.69035 0.17286 0.27966 0.0
C1113 C 0.67162 0.1784 0.27408 0.0
C1114 C 0.69469 0.08768 0.27823 0.0
C1115 C 0.6495 0.00279 0.23978 0.0
C1116 C 0.68455 0.02477 0.2628 0.0
C1117 C 0.66455 0.99864 0.2637 0.0
C1118 C 0.64693 0.98763 0.25209 0.0
N1119 N 0.687 0.03947 0.25066 0.0
C1120 C 0.66976 0.02883 0.23926 0.0
Co1121 Co 0.93618 0.59423 0.25214 0.0
Co1122 Co 0.97212 0.66136 0.24883 0.0
O1123 O 0.96367 0.62606 0.24305 0.0
C1124 C 0.98096 0.58426 0.25564 0.0
O1125 O 0.99328 0.60496 0.26411 0.0
C1126 C 0.96103 0.65833 0.21723 0.0
O1127 O 0.94001 0.63581 0.22015 0.0
O1128 O 0.93472 0.65196 0.24773 0.0
O1129 O 0.91276 0.6095 0.2541 0.0
H1130 H 0.96127 0.72832 0.27737 0.0
H1131 H 0.95867 0.59078 0.22364 0.0
O1132 O 0.9587 0.57792 0.25013 0.0
H1133 H 0.86432 0.55441 0.21429 0.0
H1134 H 0.88055 0.49642 0.25807 0.0
H1135 H 0.90041 0.58257 0.27749 0.0
H1136 H 0.88262 0.56993 0.23901 0.0
H1137 H 0.91447 0.53719 0.24644 0.0
O1138 O 0.97656 0.67179 0.22757 0.0
H1139 H 0.95076 0.68367 0.27032 0.0
H1140 H 0.01186 0.71477 0.23867 0.0
H1141 H 0.86618 0.54229 0.28938 0.0
H1142 H 0.94112 0.57518 0.1988 0.0
H1143 H 0.85606 0.49882 0.27966 0.0
H1144 H 0.89364 0.55695 0.19398 0.0
O1145 O 0.95085 0.60774 0.27196 0.0
H1146 H 0.05424 0.66469 0.23066 0.0
H1147 H 0.01441 0.68847 0.2711 0.0
H1148 H 0.06057 0.69948 0.27299 0.0
H1149 H 0.08079 0.68762 0.25265 0.0
H1150 H 0.00809 0.65388 0.22927 0.0
H1151 H 0.02292 0.75977 0.24528 0.0
H1152 H 0.9976 0.76675 0.2648 0.0
O1153 O 0.96752 0.65138 0.27015 0.0
C1154 C 0.91368 0.63113 0.25123 0.0
C1155 C 0.97252 0.72553 0.26889 0.0
C1156 C 0.0071 0.74318 0.25086 0.0
N1157 N 0.98087 0.69665 0.25422 0.0
C1158 C 0.96672 0.70031 0.2649 0.0
C1159 C 0.00073 0.71767 0.24715 0.0
C1160 C 0.99288 0.74709 0.26182 0.0
C1161 C 0.93794 0.58258 0.22168 0.0
N1162 N 0.92169 0.5812 0.23279 0.0
C1163 C 0.92813 0.5739 0.20757 0.0
C1164 C 0.9015 0.56372 0.20487 0.0
C1165 C 0.88504 0.56231 0.21625 0.0
C1166 C 0.89554 0.57121 0.23022 0.0
C1167 C 0.88474 0.51524 0.26238 0.0
C1168 C 0.896 0.56372 0.27314 0.0
C1169 C 0.90396 0.5384 0.25587 0.0
N1170 N 0.90926 0.56223 0.26121 0.0
C1171 C 0.87665 0.54098 0.27994 0.0
C1172 C 0.87101 0.5166 0.27449 0.0
C1173 C 0.96074 0.63057 0.2776 0.0
C1174 C 0.04567 0.67002 0.23957 0.0
C1175 C 0.02306 0.68318 0.26222 0.0
C1176 C 0.04922 0.68951 0.26334 0.0
C1177 C 0.06055 0.68286 0.25193 0.0
N1178 N 0.00863 0.67068 0.25005 0.0
C1179 C 0.01958 0.66403 0.23883 0.0
Co1180 Co 0.45341 0.36555 0.25154 0.0
Co1181 Co 0.38614 0.3336 0.24891 0.0
O1182 O 0.42115 0.36071 0.24282 0.0
C1183 C 0.46312 0.4202 0.25524 0.0
O1184 O 0.44279 0.41178 0.264 0.0
C1185 C 0.38868 0.32526 0.21738 0.0
O1186 O 0.41123 0.32681 0.22025 0.0
O1187 O 0.39595 0.3059 0.24773 0.0
O1188 O 0.43865 0.32693 0.25357 0.0
H1189 H 0.32058 0.25583 0.27804 0.0
H1190 H 0.45561 0.39107 0.22309 0.0
O1191 O 0.46926 0.40432 0.24947 0.0
H1192 H 0.49273 0.33392 0.21315 0.0
H1193 H 0.55146 0.40886 0.25651 0.0
H1194 H 0.46626 0.34203 0.27671 0.0
H1195 H 0.47788 0.33672 0.23806 0.0
H1196 H 0.51016 0.40135 0.2453 0.0
O1197 O 0.37524 0.32728 0.22774 0.0
H1198 H 0.36487 0.29028 0.27063 0.0
H1199 H 0.3323 0.31906 0.23915 0.0
H1200 H 0.5071 0.34874 0.28818 0.0
H1201 H 0.4705 0.38909 0.19806 0.0
H1202 H 0.55009 0.38237 0.27807 0.0
H1203 H 0.48911 0.36026 0.19295 0.0
O1204 O 0.44038 0.36669 0.27149 0.0
H1205 H 0.38101 0.41145 0.23077 0.0
H1206 H 0.35923 0.34855 0.27141 0.0
H1207 H 0.34757 0.38324 0.2734 0.0
H1208 H 0.35842 0.41495 0.25296 0.0
H1209 H 0.39248 0.37657 0.22929 0.0
H1210 H 0.28765 0.28479 0.24612 0.0
H1211 H 0.28159 0.25295 0.26574 0.0
O1212 O 0.39672 0.33938 0.27012 0.0
C1213 C 0.41706 0.30603 0.25096 0.0
C1214 C 0.32297 0.26966 0.26952 0.0
C1215 C 0.30448 0.28589 0.25159 0.0
N1216 N 0.35113 0.30681 0.25459 0.0
C1217 C 0.34799 0.28926 0.26532 0.0
C1218 C 0.3298 0.30522 0.24767 0.0
C1219 C 0.3011 0.26803 0.2626 0.0
C1220 C 0.46397 0.37872 0.221 0.0
N1221 N 0.46595 0.3641 0.23204 0.0
C1222 C 0.47226 0.37758 0.20678 0.0
C1223 C 0.48265 0.36136 0.20392 0.0
C1224 C 0.48466 0.34656 0.21524 0.0
C1225 C 0.47614 0.34816 0.22932 0.0
C1226 C 0.53285 0.39411 0.261 0.0
C1227 C 0.4849 0.35658 0.27219 0.0
C1228 C 0.5094 0.3898 0.25471 0.0
N1229 N 0.48583 0.37112 0.26028 0.0
C1230 C 0.50795 0.36035 0.27876 0.0
C1231 C 0.53207 0.37924 0.27309 0.0
C1232 C 0.41774 0.35368 0.27734 0.0
C1233 C 0.37612 0.3977 0.23973 0.0
C1234 C 0.36408 0.36233 0.26249 0.0
C1235 C 0.35739 0.38189 0.26366 0.0
C1236 C 0.36347 0.39967 0.25219 0.0
N1237 N 0.37639 0.36046 0.25021 0.0
C1238 C 0.38249 0.37787 0.23894 0.0
Co1239 Co 0.44621 0.3496 0.41251 0.0
Co1240 Co 0.40982 0.38037 0.4153 0.0
O1241 O 0.41868 0.35399 0.42147 0.0
C1242 C 0.40176 0.29449 0.40973 0.0
O1243 O 0.38923 0.30223 0.40098 0.0
C1244 C 0.4215 0.38967 0.44671 0.0
O1245 O 0.44272 0.3886 0.44372 0.0
O1246 O 0.44712 0.40866 0.41611 0.0
O1247 O 0.4693 0.38825 0.41002 0.0
H1248 H 0.41938 0.45671 0.38577 0.0
H1249 H 0.4244 0.32486 0.44136 0.0
O1250 O 0.42401 0.31083 0.41508 0.0
H1251 H 0.51881 0.38397 0.44997 0.0
H1252 H 0.50247 0.308 0.40728 0.0
H1253 H 0.48143 0.37283 0.38687 0.0
H1254 H 0.49997 0.37987 0.42527 0.0
H1255 H 0.46851 0.31496 0.41876 0.0
O1256 O 0.40562 0.38702 0.43646 0.0
H1257 H 0.43046 0.42318 0.39327 0.0
H1258 H 0.3699 0.39392 0.42525 0.0
H1259 H 0.51569 0.36665 0.37512 0.0
H1260 H 0.4425 0.32813 0.46619 0.0
H1261 H 0.52639 0.33404 0.38534 0.0
H1262 H 0.49001 0.35794 0.47064 0.0
O1263 O 0.43109 0.3474 0.39271 0.0
H1264 H 0.32834 0.30181 0.43432 0.0
H1265 H 0.36717 0.36396 0.39315 0.0
H1266 H 0.32111 0.32845 0.39162 0.0
H1267 H 0.30139 0.2971 0.41232 0.0
H1268 H 0.37439 0.3375 0.43534 0.0
H1269 H 0.35829 0.42728 0.41819 0.0
H1270 H 0.38305 0.4589 0.39827 0.0
O1271 O 0.41423 0.37427 0.39409 0.0
C1272 C 0.46821 0.40895 0.41263 0.0
C1273 C 0.40837 0.44297 0.39442 0.0
C1274 C 0.37411 0.42648 0.41263 0.0
N1275 N 0.40065 0.40645 0.40956 0.0
C1276 C 0.41449 0.42389 0.39867 0.0
C1277 C 0.3808 0.40767 0.41659 0.0
C1278 C 0.38801 0.44421 0.40145 0.0
C1279 C 0.44515 0.33764 0.44316 0.0
N1280 N 0.46112 0.35208 0.43186 0.0
C1281 C 0.45527 0.3395 0.45726 0.0
C1282 C 0.48191 0.35627 0.45976 0.0
C1283 C 0.49808 0.3709 0.44817 0.0
C1284 C 0.48728 0.36856 0.43421 0.0
C1285 C 0.49802 0.32231 0.40275 0.0
C1286 C 0.4861 0.35872 0.39143 0.0
C1287 C 0.47877 0.3263 0.40918 0.0
N1288 N 0.47316 0.34444 0.40356 0.0
C1289 C 0.50546 0.35525 0.38471 0.0
C1290 C 0.51144 0.33693 0.39044 0.0
C1291 C 0.42101 0.36 0.38687 0.0
C1292 C 0.33669 0.31539 0.42525 0.0
C1293 C 0.35875 0.35035 0.40218 0.0
C1294 C 0.33264 0.33032 0.40127 0.0
C1295 C 0.32159 0.31274 0.41289 0.0
N1296 N 0.37339 0.35288 0.41436 0.0
C1297 C 0.36272 0.33569 0.42578 0.0
Co1298 Co 0.69819 0.11931 0.41351 0.0
Co1299 Co 0.66826 0.05212 0.41596 0.0
O1300 O 0.6941 0.08743 0.42235 0.0
C1301 C 0.75341 0.13035 0.41104 0.0
O1302 O 0.74578 0.10983 0.40251 0.0
C1303 C 0.65799 0.05407 0.44726 0.0
O1304 O 0.65877 0.0762 0.4442 0.0
O1305 O 0.63955 0.06056 0.41647 0.0
O1306 O 0.65952 0.10333 0.41086 0.0
H1307 H 0.59331 0.98498 0.38575 0.0
H1308 H 0.72269 0.12218 0.44242 0.0
O1309 O 0.73696 0.13628 0.4162 0.0
H1310 H 0.66251 0.1562 0.451 0.0
H1311 H 0.73874 0.21714 0.40871 0.0
H1312 H 0.675 0.13125 0.38783 0.0
H1313 H 0.66718 0.14199 0.42627 0.0
H1314 H 0.73215 0.17625 0.42004 0.0
O1315 O 0.66112 0.04102 0.43708 0.0
H1316 H 0.62616 0.02969 0.39351 0.0
H1317 H 0.65517 0.99876 0.42586 0.0
H1318 H 0.68082 0.17165 0.37622 0.0
H1319 H 0.71885 0.13648 0.46729 0.0
H1320 H 0.71289 0.21499 0.38667 0.0
H1321 H 0.68849 0.15352 0.47172 0.0
O1322 O 0.7009 0.10682 0.39368 0.0
H1323 H 0.74691 0.05028 0.43578 0.0
H1324 H 0.6859 0.02665 0.39401 0.0
H1325 H 0.72191 0.01679 0.39285 0.0
H1326 H 0.75269 0.02858 0.41386 0.0
H1327 H 0.71074 0.05996 0.43643 0.0
H1328 H 0.62249 0.9537 0.41853 0.0
H1329 H 0.59134 0.9466 0.39829 0.0
O1330 O 0.67489 0.06293 0.3948 0.0
C1331 C 0.63897 0.08127 0.41317 0.0
C1332 C 0.60685 0.98782 0.39454 0.0
C1333 C 0.6232 0.97026 0.41295 0.0
N1334 N 0.64273 0.0168 0.41001 0.0
C1335 C 0.62555 0.01308 0.39894 0.0
C1336 C 0.64163 0.99581 0.41707 0.0
C1337 C 0.60574 0.96629 0.40159 0.0
C1338 C 0.70967 0.12987 0.44422 0.0
N1339 N 0.69525 0.13133 0.43288 0.0
C1340 C 0.70748 0.13782 0.45834 0.0
C1341 C 0.69041 0.14733 0.46083 0.0
C1342 C 0.67581 0.14881 0.44921 0.0
C1343 C 0.67848 0.14066 0.43523 0.0
C1344 C 0.72467 0.19837 0.40407 0.0
C1345 C 0.68887 0.15003 0.39249 0.0
C1346 C 0.72089 0.17516 0.41042 0.0
N1347 N 0.70304 0.15139 0.40467 0.0
C1348 C 0.69214 0.17284 0.38585 0.0
C1349 C 0.71015 0.19715 0.39171 0.0
C1350 C 0.68896 0.0842 0.38773 0.0
C1351 C 0.73358 0.04498 0.42657 0.0
C1352 C 0.69926 0.0319 0.40318 0.0
C1353 C 0.71958 0.02622 0.40247 0.0
C1354 C 0.73683 0.03283 0.41426 0.0
N1355 N 0.69614 0.04373 0.41531 0.0
C1356 C 0.71302 0.05033 0.4269 0.0
Co1357 Co 0.92857 0.60223 0.41327 0.0
Co1358 Co 0.99581 0.63888 0.4153 0.0
O1359 O 0.96075 0.62992 0.4219 0.0
C1360 C 0.91786 0.64665 0.41087 0.0
O1361 O 0.93811 0.65928 0.40213 0.0
C1362 C 0.99444 0.62741 0.44673 0.0
O1363 O 0.97222 0.60601 0.44386 0.0
O1364 O 0.98697 0.60161 0.41604 0.0
O1365 O 0.94416 0.57924 0.41048 0.0
H1366 H 0.06175 0.62957 0.3848 0.0
H1367 H 0.92653 0.62423 0.44221 0.0
O1368 O 0.91196 0.62432 0.41611 0.0
H1369 H 0.89191 0.52996 0.45096 0.0
H1370 H 0.83057 0.54559 0.40912 0.0
H1371 H 0.91578 0.56681 0.38764 0.0
H1372 H 0.90574 0.54859 0.42614 0.0
H1373 H 0.87183 0.57976 0.42018 0.0
O1374 O 0.00735 0.64326 0.43639 0.0
H1375 H 0.01735 0.61836 0.39282 0.0
H1376 H 0.04954 0.67893 0.42479 0.0
H1377 H 0.87499 0.53234 0.3763 0.0
H1378 H 0.91262 0.60635 0.46717 0.0
H1379 H 0.832 0.52154 0.38706 0.0
H1380 H 0.89527 0.55891 0.47168 0.0
O1381 O 0.94074 0.61721 0.39337 0.0
H1382 H 0.99898 0.72028 0.43467 0.0
H1383 H 0.02121 0.68144 0.39303 0.0
H1384 H 0.03152 0.72744 0.39158 0.0
H1385 H 0.02044 0.74716 0.41252 0.0
H1386 H 0.98884 0.6743 0.43561 0.0
H1387 H 0.09431 0.69066 0.4172 0.0
H1388 H 0.10062 0.66596 0.39703 0.0
O1389 O 0.98455 0.63435 0.39417 0.0
C1390 C 0.96608 0.58045 0.41278 0.0
C1391 C 0.05926 0.64055 0.39356 0.0
C1392 C 0.07754 0.67481 0.41177 0.0
N1393 N 0.03089 0.64816 0.40915 0.0
C1394 C 0.03417 0.63435 0.39811 0.0
C1395 C 0.05215 0.66805 0.41603 0.0
C1396 C 0.08106 0.66095 0.40044 0.0
C1397 C 0.91871 0.60351 0.44405 0.0
N1398 N 0.91687 0.58747 0.43271 0.0
C1399 C 0.91098 0.59352 0.45822 0.0
C1400 C 0.90129 0.56691 0.46075 0.0
C1401 C 0.89943 0.55067 0.44913 0.0
C1402 C 0.90737 0.56135 0.43511 0.0
C1403 C 0.84918 0.55008 0.40435 0.0
C1404 C 0.89714 0.5621 0.39244 0.0
C1405 C 0.87261 0.56944 0.41055 0.0
N1406 N 0.89619 0.57511 0.40463 0.0
C1407 C 0.87412 0.54262 0.38595 0.0
C1408 C 0.85 0.53659 0.39198 0.0
C1409 C 0.96319 0.62744 0.38724 0.0
C1410 C 0.00397 0.71193 0.42549 0.0
C1411 C 0.01627 0.68987 0.40217 0.0
C1412 C 0.0222 0.71594 0.4013 0.0
C1413 C 0.01598 0.72699 0.41306 0.0
N1414 N 0.00458 0.67526 0.41443 0.0
C1415 C 0.99836 0.68594 0.42598 0.0
Co1416 Co 0.36364 0.93313 0.74589 0.0
Co1417 Co 0.33315 0.96972 0.74911 0.0
O1418 O 0.35947 0.96064 0.75504 0.0
C1419 C 0.41862 0.97772 0.7432 0.0
O1420 O 0.41072 0.99045 0.73473 0.0
C1421 C 0.3242 0.95765 0.7805 0.0
O1422 O 0.32509 0.9364 0.77732 0.0
O1423 O 0.30477 0.93245 0.74985 0.0
O1424 O 0.32493 0.91014 0.74351 0.0
H1425 H 0.25667 0.96084 0.72001 0.0
H1426 H 0.38871 0.95461 0.77471 0.0
O1427 O 0.40242 0.95523 0.74834 0.0
H1428 H 0.3295 0.86015 0.78311 0.0
H1429 H 0.40492 0.87669 0.74003 0.0
H1430 H 0.34003 0.89815 0.72018 0.0
H1431 H 0.33338 0.87924 0.75851 0.0
H1432 H 0.39822 0.91063 0.75175 0.0
O1433 O 0.32676 0.97369 0.77036 0.0
H1434 H 0.29016 0.94951 0.7272 0.0
H1435 H 0.31988 0.00964 0.75945 0.0
H1436 H 0.34594 0.86391 0.70819 0.0
H1437 H 0.38566 0.93625 0.79945 0.0
H1438 H 0.37858 0.85299 0.71812 0.0
H1439 H 0.35579 0.88872 0.80379 0.0
O1440 O 0.36569 0.94848 0.72618 0.0
H1441 H 0.41213 0.05077 0.76817 0.0
H1442 H 0.34947 0.01266 0.72716 0.0
H1443 H 0.38512 0.05868 0.72572 0.0
H1444 H 0.41672 0.07803 0.74634 0.0
H1445 H 0.3763 0.00478 0.76912 0.0
H1446 H 0.28657 0.02149 0.75271 0.0
H1447 H 0.25474 0.99708 0.73281 0.0
O1448 O 0.33901 0.96553 0.72782 0.0
C1449 C 0.30433 0.91133 0.74627 0.0
C1450 C 0.2705 0.9717 0.72866 0.0
C1451 C 0.28726 0.00571 0.74702 0.0
N1452 N 0.30711 0.97909 0.74362 0.0
C1453 C 0.28956 0.96544 0.73274 0.0
C1454 C 0.30604 0.99889 0.75081 0.0
C1455 C 0.26941 0.99201 0.73585 0.0
C1456 C 0.37591 0.93384 0.77646 0.0
N1457 N 0.36132 0.91801 0.76515 0.0
C1458 C 0.37417 0.92359 0.79051 0.0
C1459 C 0.35736 0.89693 0.79295 0.0
C1460 C 0.34259 0.88089 0.78135 0.0
C1461 C 0.34481 0.89183 0.76745 0.0
C1462 C 0.3906 0.88124 0.73562 0.0
C1463 C 0.35416 0.89339 0.72462 0.0
C1464 C 0.38675 0.90047 0.74219 0.0
N1465 N 0.36859 0.9062 0.73673 0.0
C1466 C 0.35747 0.87404 0.71776 0.0
C1467 C 0.37581 0.86794 0.72333 0.0
C1468 C 0.35316 0.95876 0.72048 0.0
C1469 C 0.39843 0.04258 0.75913 0.0
C1470 C 0.36319 0.02093 0.73617 0.0
C1471 C 0.3833 0.04701 0.7353 0.0
C1472 C 0.40102 0.05786 0.74687 0.0
N1473 N 0.36073 0.00611 0.74825 0.0
C1474 C 0.37806 0.01659 0.75963 0.0
Co1475 Co 0.11419 0.45369 0.74624 0.0
Co1476 Co 0.07767 0.38644 0.74868 0.0
O1477 O 0.08651 0.42161 0.75497 0.0
C1478 C 0.06946 0.4638 0.74327 0.0
O1479 O 0.05708 0.4433 0.73466 0.0
C1480 C 0.08948 0.38868 0.78005 0.0
O1481 O 0.11067 0.41097 0.77701 0.0
O1482 O 0.11497 0.39544 0.74942 0.0
O1483 O 0.13745 0.43827 0.74392 0.0
H1484 H 0.08723 0.31997 0.71883 0.0
H1485 H 0.09157 0.45609 0.77491 0.0
O1486 O 0.09181 0.47009 0.74863 0.0
H1487 H 0.18577 0.49157 0.78432 0.0
H1488 H 0.17031 0.55166 0.74153 0.0
H1489 H 0.15011 0.46618 0.72089 0.0
H1490 H 0.16763 0.47718 0.75945 0.0
H1491 H 0.13615 0.51052 0.7527 0.0
O1492 O 0.07353 0.37542 0.76983 0.0
H1493 H 0.09828 0.3645 0.72648 0.0
H1494 H 0.03782 0.33286 0.75852 0.0
H1495 H 0.18458 0.50684 0.70945 0.0
H1496 H 0.10895 0.47053 0.7999 0.0
H1497 H 0.19487 0.54998 0.71978 0.0
H1498 H 0.15636 0.48831 0.80475 0.0
O1499 O 0.0996 0.44103 0.72632 0.0
H1500 H 0.99619 0.38326 0.76789 0.0
H1501 H 0.03502 0.3604 0.72652 0.0
H1502 H 0.98895 0.34983 0.72505 0.0
H1503 H 0.96923 0.36123 0.74586 0.0
H1504 H 0.04224 0.39364 0.76885 0.0
H1505 H 0.02624 0.28796 0.7513 0.0
H1506 H 0.05097 0.28131 0.73128 0.0
O1507 O 0.08207 0.39718 0.7275 0.0
C1508 C 0.13619 0.41634 0.74627 0.0
C1509 C 0.07624 0.32261 0.72753 0.0
C1510 C 0.04203 0.30465 0.74577 0.0
N1511 N 0.06852 0.35124 0.74281 0.0
C1512 C 0.08234 0.34777 0.73187 0.0
C1513 C 0.0487 0.3301 0.74982 0.0
C1514 C 0.05591 0.30093 0.73453 0.0
C1515 C 0.11227 0.4641 0.77689 0.0
N1516 N 0.12857 0.46587 0.76571 0.0
C1517 C 0.12198 0.47213 0.79108 0.0
C1518 C 0.14857 0.48206 0.7938 0.0
C1519 C 0.16508 0.48386 0.78234 0.0
C1520 C 0.15468 0.47561 0.76829 0.0
C1521 C 0.16604 0.53299 0.73694 0.0
C1522 C 0.1546 0.48487 0.7255 0.0
C1523 C 0.14669 0.50962 0.74321 0.0
N1524 N 0.1413 0.48597 0.73752 0.0
C1525 C 0.17408 0.50783 0.71895 0.0
C1526 C 0.17982 0.53203 0.72474 0.0
C1527 C 0.08925 0.4184 0.72038 0.0
C1528 C 0.00454 0.37813 0.75877 0.0
C1529 C 0.02659 0.36548 0.7356 0.0
C1530 C 0.00048 0.3594 0.73472 0.0
C1531 C 0.98943 0.36579 0.7464 0.0
N1532 N 0.04124 0.37748 0.7478 0.0
C1533 C 0.03057 0.38388 0.75927 0.0
Co1534 Co 0.59579 0.68424 0.74595 0.0
Co1535 Co 0.66296 0.71526 0.74898 0.0
O1536 O 0.62768 0.68871 0.75498 0.0
C1537 C 0.58613 0.62956 0.7431 0.0
O1538 O 0.60712 0.63792 0.73488 0.0
C1539 C 0.65988 0.7243 0.78034 0.0
O1540 O 0.63762 0.72317 0.77716 0.0
O1541 O 0.65377 0.74343 0.74968 0.0
O1542 O 0.61114 0.7229 0.74369 0.0
H1543 H 0.72999 0.79187 0.7197 0.0
H1544 H 0.59265 0.659 0.77464 0.0
O1545 O 0.57945 0.64547 0.74825 0.0
H1546 H 0.55666 0.71744 0.78355 0.0
H1547 H 0.49794 0.64214 0.74036 0.0
H1548 H 0.5839 0.70777 0.72041 0.0
H1549 H 0.5718 0.71396 0.75885 0.0
H1550 H 0.53881 0.64917 0.75193 0.0
O1551 O 0.67342 0.72183 0.7702 0.0
H1552 H 0.68531 0.75814 0.72699 0.0
H1553 H 0.71633 0.72907 0.75924 0.0
H1554 H 0.54352 0.70153 0.70858 0.0
H1555 H 0.57743 0.66165 0.79948 0.0
H1556 H 0.50014 0.66851 0.71856 0.0
H1557 H 0.5594 0.69113 0.80407 0.0
O1558 O 0.60903 0.6825 0.72617 0.0
H1559 H 0.66606 0.63688 0.76813 0.0
H1560 H 0.68972 0.69916 0.72699 0.0
H1561 H 0.70053 0.66383 0.72557 0.0
H1562 H 0.68874 0.63242 0.74626 0.0
H1563 H 0.65545 0.67239 0.76904 0.0
H1564 H 0.76136 0.76262 0.7524 0.0
H1565 H 0.76839 0.79425 0.73245 0.0
O1566 O 0.65278 0.70921 0.72771 0.0
C1567 C 0.63291 0.74364 0.74627 0.0
C1568 C 0.72718 0.77813 0.72837 0.0
C1569 C 0.74478 0.76174 0.74673 0.0
N1570 N 0.69825 0.7415 0.74341 0.0
C1571 C 0.70194 0.75893 0.7325 0.0
C1572 C 0.71926 0.74282 0.75057 0.0
C1573 C 0.74872 0.77947 0.73554 0.0
C1574 C 0.58453 0.67163 0.77651 0.0
N1575 N 0.58303 0.68623 0.76529 0.0
C1576 C 0.57606 0.67315 0.79062 0.0
C1577 C 0.56599 0.68973 0.79319 0.0
C1578 C 0.56448 0.70451 0.78169 0.0
C1579 C 0.57316 0.70252 0.76773 0.0
C1580 C 0.51672 0.65662 0.73593 0.0
C1581 C 0.5651 0.69348 0.72487 0.0
C1582 C 0.53993 0.66066 0.74241 0.0
N1583 N 0.56372 0.67902 0.73692 0.0
C1584 C 0.5423 0.68998 0.7181 0.0
C1585 C 0.51797 0.67143 0.7237 0.0
C1586 C 0.63179 0.69506 0.72042 0.0
C1587 C 0.67137 0.65049 0.75906 0.0
C1588 C 0.68446 0.68552 0.73602 0.0
C1589 C 0.69068 0.66559 0.73517 0.0
C1590 C 0.68407 0.64798 0.74678 0.0
N1591 N 0.6721 0.68791 0.74813 0.0
C1592 C 0.66549 0.67068 0.75954 0.0
Co1593 Co 0.60277 0.69871 0.58537 0.0
Co1594 Co 0.63893 0.66769 0.58249 0.0
O1595 O 0.63022 0.69421 0.5764 0.0
C1596 C 0.64736 0.75372 0.5884 0.0
O1597 O 0.65969 0.74585 0.5972 0.0
C1598 C 0.62708 0.65851 0.55109 0.0
O1599 O 0.60597 0.65976 0.55413 0.0
O1600 O 0.60157 0.63953 0.58172 0.0
O1601 O 0.57948 0.66005 0.58774 0.0
H1602 H 0.62907 0.59112 0.61191 0.0
H1603 H 0.62482 0.72367 0.55661 0.0
O1604 O 0.62517 0.73748 0.58293 0.0
H1605 H 0.53037 0.66515 0.54781 0.0
H1606 H 0.54699 0.74081 0.59075 0.0
H1607 H 0.56736 0.67537 0.61094 0.0
H1608 H 0.54904 0.66885 0.57251 0.0
H1609 H 0.58083 0.7337 0.57925 0.0
O1610 O 0.64297 0.66103 0.56131 0.0
H1611 H 0.6182 0.62484 0.6045 0.0
H1612 H 0.67859 0.65388 0.57242 0.0
H1613 H 0.53321 0.68169 0.6227 0.0
H1614 H 0.60689 0.7208 0.53177 0.0
H1615 H 0.52284 0.71462 0.6126 0.0
H1616 H 0.55936 0.69127 0.52723 0.0
O1617 O 0.61775 0.70061 0.60518 0.0
H1618 H 0.72054 0.74603 0.56342 0.0
H1619 H 0.68165 0.68385 0.60457 0.0
H1620 H 0.72779 0.71919 0.60605 0.0
H1621 H 0.74754 0.75055 0.58536 0.0
H1622 H 0.67441 0.71051 0.56244 0.0
H1623 H 0.68999 0.62033 0.57939 0.0
H1624 H 0.66521 0.58872 0.59931 0.0
O1625 O 0.63466 0.67379 0.60372 0.0
C1626 C 0.5805 0.63932 0.58514 0.0
C1627 C 0.64009 0.60485 0.60325 0.0
C1628 C 0.67425 0.62122 0.58499 0.0
N1629 N 0.64794 0.64147 0.58816 0.0
C1630 C 0.63408 0.62404 0.59905 0.0
C1631 C 0.66769 0.64014 0.58108 0.0
C1632 C 0.66034 0.60349 0.59617 0.0
C1633 C 0.60406 0.71102 0.55476 0.0
N1634 N 0.58799 0.69653 0.56602 0.0
C1635 C 0.59404 0.70938 0.54065 0.0
C1636 C 0.56738 0.69277 0.53811 0.0
C1637 C 0.55111 0.67809 0.54965 0.0
C1638 C 0.56181 0.68021 0.56361 0.0
C1639 C 0.55129 0.72637 0.59523 0.0
C1640 C 0.56284 0.68961 0.60642 0.0
C1641 C 0.57047 0.72229 0.58879 0.0
N1642 N 0.5759 0.70398 0.59435 0.0
C1643 C 0.54354 0.69316 0.61316 0.0
C1644 C 0.53775 0.71166 0.60749 0.0
C1645 C 0.62788 0.68801 0.61097 0.0
C1646 C 0.71218 0.73244 0.57249 0.0
C1647 C 0.69009 0.69747 0.59554 0.0
C1648 C 0.71624 0.7174 0.59643 0.0
C1649 C 0.72731 0.73498 0.58481 0.0
N1650 N 0.67541 0.69504 0.58339 0.0
C1651 C 0.6861 0.71224 0.57197 0.0
Co1652 Co 0.34964 0.92905 0.58516 0.0
Co1653 Co 0.38128 0.99635 0.58266 0.0
O1654 O 0.35451 0.96132 0.57642 0.0
C1655 C 0.29496 0.9194 0.58842 0.0
O1656 O 0.30325 0.93969 0.59721 0.0
C1657 C 0.39058 0.99392 0.55125 0.0
O1658 O 0.38907 0.97143 0.55425 0.0
O1659 O 0.40917 0.98678 0.58186 0.0
O1660 O 0.38825 0.94396 0.58742 0.0
H1661 H 0.45797 0.06214 0.61238 0.0
H1662 H 0.32463 0.92695 0.55653 0.0
O1663 O 0.31089 0.91314 0.58283 0.0
H1664 H 0.38222 0.89017 0.54705 0.0
H1665 H 0.3065 0.83099 0.58997 0.0
H1666 H 0.37279 0.91615 0.61048 0.0
H1667 H 0.37889 0.90485 0.57191 0.0
H1668 H 0.31407 0.87232 0.57877 0.0
O1669 O 0.38818 0.00732 0.5615 0.0
H1670 H 0.42396 0.01779 0.60478 0.0
H1671 H 0.39576 0.05013 0.57281 0.0
H1672 H 0.36602 0.87529 0.62194 0.0
H1673 H 0.32715 0.91222 0.53154 0.0
H1674 H 0.33267 0.83232 0.61168 0.0
H1675 H 0.3562 0.89379 0.52666 0.0
O1676 O 0.34806 0.94192 0.60508 0.0
H1677 H 0.30365 0.00094 0.56359 0.0
H1678 H 0.36539 0.02295 0.60486 0.0
H1679 H 0.33042 0.03426 0.60639 0.0
H1680 H 0.29929 0.0233 0.58563 0.0
H1681 H 0.3388 0.98981 0.56257 0.0
H1682 H 0.4296 0.09485 0.57997 0.0
H1683 H 0.46093 0.10105 0.59994 0.0
O1684 O 0.37494 0.98568 0.60385 0.0
C1685 C 0.40913 0.9657 0.58504 0.0
C1686 C 0.44436 0.05969 0.60371 0.0
C1687 C 0.42846 0.07805 0.5855 0.0
N1688 N 0.40774 0.03141 0.58848 0.0
C1689 C 0.42501 0.03463 0.5994 0.0
C1690 C 0.40938 0.05269 0.58148 0.0
C1691 C 0.44603 0.08152 0.59671 0.0
C1692 C 0.33708 0.91866 0.55453 0.0
N1693 N 0.35151 0.91667 0.56569 0.0
C1694 C 0.33852 0.91047 0.54034 0.0
C1695 C 0.35486 0.90017 0.53761 0.0
C1696 C 0.36949 0.89817 0.54904 0.0
C1697 C 0.36757 0.90658 0.56309 0.0
C1698 C 0.32113 0.84959 0.59452 0.0
C1699 C 0.35836 0.89752 0.60589 0.0
C1700 C 0.32547 0.87306 0.58824 0.0
N1701 N 0.34401 0.89662 0.59389 0.0
C1702 C 0.35456 0.87445 0.61246 0.0
C1703 C 0.33582 0.85035 0.6067 0.0
C1704 C 0.36068 0.96454 0.611 0.0
C1705 C 0.31715 0.00588 0.57269 0.0
C1706 C 0.35187 0.01805 0.5958 0.0
C1707 C 0.33215 0.02455 0.59672 0.0
C1708 C 0.31469 0.0184 0.58507 0.0
N1709 N 0.35421 0.00587 0.5836 0.0
C1710 C 0.33713 0.99971 0.57215 0.0
Co1711 Co 0.12173 0.44979 0.58533 0.0
Co1712 Co 0.05462 0.41236 0.58242 0.0
O1713 O 0.09009 0.42184 0.57637 0.0
C1714 C 0.13226 0.40538 0.58806 0.0
O1715 O 0.11104 0.3923 0.59606 0.0
C1716 C 0.05721 0.42412 0.55101 0.0
O1717 O 0.07929 0.44551 0.5541 0.0
O1718 O 0.06299 0.44947 0.58163 0.0
O1719 O 0.10562 0.47245 0.58755 0.0
H1720 H 0.98675 0.42039 0.61176 0.0
H1721 H 0.12533 0.42783 0.55668 0.0
O1722 O 0.13881 0.42803 0.58307 0.0
H1723 H 0.15933 0.52189 0.54755 0.0
H1724 H 0.21941 0.50734 0.59073 0.0
H1725 H 0.13301 0.48524 0.61079 0.0
H1726 H 0.14461 0.50332 0.5723 0.0
H1727 H 0.17882 0.47281 0.57926 0.0
O1728 O 0.04397 0.4081 0.56121 0.0
H1729 H 0.03164 0.43224 0.6044 0.0
H1730 H 0.00151 0.37187 0.5723 0.0
H1731 H 0.17311 0.52007 0.62253 0.0
H1732 H 0.14013 0.44566 0.53179 0.0
H1733 H 0.2167 0.53131 0.61249 0.0
H1734 H 0.15717 0.49299 0.52709 0.0
O1735 O 0.10882 0.43479 0.60515 0.0
H1736 H 0.05348 0.33174 0.56341 0.0
H1737 H 0.02874 0.36952 0.6045 0.0
H1738 H 0.019 0.32371 0.60601 0.0
H1739 H 0.03136 0.30452 0.58535 0.0
H1740 H 0.06302 0.37752 0.5624 0.0
H1741 H 0.95627 0.35949 0.57921 0.0
H1742 H 0.94868 0.38377 0.59912 0.0
O1743 O 0.06495 0.41683 0.60367 0.0
C1744 C 0.08359 0.47083 0.58498 0.0
C1745 C 0.9898 0.40959 0.60311 0.0
C1746 C 0.97269 0.37543 0.58483 0.0
N1747 N 0.01916 0.40257 0.58805 0.0
C1748 C 0.01517 0.41615 0.59894 0.0
C1749 C 0.99834 0.38255 0.58095 0.0
C1750 C 0.96845 0.38906 0.596 0.0
C1751 C 0.13301 0.44851 0.55476 0.0
N1752 N 0.13418 0.46452 0.56595 0.0
C1753 C 0.14125 0.45847 0.54063 0.0
C1754 C 0.15076 0.48501 0.53799 0.0
C1755 C 0.15195 0.50123 0.54946 0.0
C1756 C 0.14351 0.49059 0.56345 0.0
C1757 C 0.20053 0.50266 0.59519 0.0
C1758 C 0.15191 0.49014 0.60631 0.0
C1759 C 0.17748 0.48309 0.58876 0.0
N1760 N 0.15357 0.47718 0.59428 0.0
C1761 C 0.17454 0.50982 0.61302 0.0
C1762 C 0.199 0.51611 0.60739 0.0
C1763 C 0.08606 0.42414 0.61093 0.0
C1764 C 0.04794 0.33985 0.57247 0.0
C1765 C 0.03423 0.36132 0.59548 0.0
C1766 C 0.02862 0.33536 0.59639 0.0
C1767 C 0.03555 0.3246 0.58479 0.0
N1768 N 0.04629 0.37612 0.58333 0.0
C1769 C 0.0532 0.36573 0.57194 0.0
Co1770 Co 0.35121 0.44715 0.5846 0.0
Co1771 Co 0.38135 0.41007 0.58239 0.0
O1772 O 0.35528 0.41918 0.57598 0.0
C1773 C 0.29602 0.40302 0.58763 0.0
O1774 O 0.30376 0.39053 0.59641 0.0
C1775 C 0.39103 0.42142 0.55098 0.0
O1776 O 0.39019 0.4428 0.55388 0.0
O1777 O 0.40993 0.44724 0.58153 0.0
O1778 O 0.38991 0.47006 0.58699 0.0
H1779 H 0.45706 0.41918 0.61238 0.0
H1780 H 0.32622 0.42458 0.55592 0.0
O1781 O 0.31241 0.42513 0.58214 0.0
H1782 H 0.38587 0.5186 0.54643 0.0
H1783 H 0.31034 0.50419 0.58898 0.0
H1784 H 0.37476 0.48308 0.60994 0.0
H1785 H 0.38177 0.50048 0.57133 0.0
H1786 H 0.31692 0.46969 0.57793 0.0
O1787 O 0.38814 0.40555 0.56129 0.0
H1788 H 0.42389 0.43057 0.60459 0.0
H1789 H 0.39452 0.3697 0.5728 0.0
H1790 H 0.36897 0.51788 0.62126 0.0
H1791 H 0.3295 0.44195 0.53088 0.0
H1792 H 0.33656 0.52863 0.61077 0.0
H1793 H 0.35959 0.48926 0.526 0.0
O1794 O 0.34896 0.43257 0.60455 0.0
H1795 H 0.30257 0.32878 0.56338 0.0
H1796 H 0.36433 0.36762 0.60472 0.0
H1797 H 0.3285 0.32171 0.60632 0.0
H1798 H 0.29735 0.30198 0.58553 0.0
H1799 H 0.33856 0.37468 0.56229 0.0
H1800 H 0.42751 0.35776 0.58015 0.0
H1801 H 0.459 0.38252 0.60012 0.0
O1802 O 0.3751 0.41482 0.60353 0.0
C1803 C 0.41047 0.46858 0.58466 0.0
C1804 C 0.44337 0.40817 0.60371 0.0
C1805 C 0.42681 0.37372 0.5856 0.0
N1806 N 0.40713 0.40063 0.58837 0.0
C1807 C 0.42449 0.41447 0.59929 0.0
C1808 C 0.40821 0.38059 0.58147 0.0
C1809 C 0.44447 0.38762 0.59681 0.0
C1810 C 0.33913 0.44525 0.55392 0.0
N1811 N 0.35371 0.4615 0.56509 0.0
C1812 C 0.34099 0.45495 0.5397 0.0
C1813 C 0.35791 0.48148 0.53697 0.0
C1814 C 0.37269 0.49795 0.54842 0.0
C1815 C 0.37034 0.48756 0.56249 0.0
C1816 C 0.32457 0.49973 0.59363 0.0
C1817 C 0.36074 0.48776 0.60526 0.0
C1818 C 0.32834 0.48018 0.58744 0.0
N1819 N 0.34637 0.47454 0.59321 0.0
C1820 C 0.3575 0.50744 0.61174 0.0
C1821 C 0.33929 0.51344 0.60586 0.0
C1822 C 0.36111 0.42216 0.61057 0.0
C1823 C 0.31606 0.33713 0.57249 0.0
C1824 C 0.3508 0.35919 0.59565 0.0
C1825 C 0.33059 0.33317 0.59661 0.0
C1826 C 0.31313 0.32212 0.58493 0.0
N1827 N 0.35361 0.37375 0.58339 0.0
C1828 C 0.33653 0.36308 0.57192 0.0
Co1829 Co 0.60079 0.92764 0.58556 0.0
Co1830 Co 0.638 0.99485 0.58308 0.0
O1831 O 0.62874 0.95955 0.57682 0.0
C1832 C 0.64544 0.9175 0.58837 0.0
O1833 O 0.6583 0.93867 0.59643 0.0
C1834 C 0.62637 0.99273 0.55168 0.0
O1835 O 0.60503 0.97053 0.55467 0.0
O1836 O 0.60084 0.98631 0.5823 0.0
O1837 O 0.5779 0.94348 0.58779 0.0
H1838 H 0.62939 0.06197 0.61286 0.0
H1839 H 0.62331 0.92476 0.55696 0.0
O1840 O 0.62281 0.91084 0.5833 0.0
H1841 H 0.5293 0.89028 0.54743 0.0
H1842 H 0.54372 0.8298 0.5904 0.0
H1843 H 0.56491 0.91568 0.61088 0.0
H1844 H 0.54744 0.90466 0.57229 0.0
H1845 H 0.57823 0.8707 0.57919 0.0
O1846 O 0.6423 0.00586 0.56194 0.0
H1847 H 0.61782 0.01726 0.60525 0.0
H1848 H 0.67833 0.04822 0.57323 0.0
H1849 H 0.5301 0.87526 0.62236 0.0
H1850 H 0.60591 0.91031 0.53197 0.0
H1851 H 0.51931 0.83193 0.61211 0.0
H1852 H 0.55861 0.89303 0.52706 0.0
O1853 O 0.61545 0.94025 0.60547 0.0
H1854 H 0.71895 0.99684 0.56395 0.0
H1855 H 0.6807 0.02054 0.60525 0.0
H1856 H 0.72659 0.03051 0.60675 0.0
H1857 H 0.74601 0.01869 0.58598 0.0
H1858 H 0.67309 0.98706 0.56296 0.0
H1859 H 0.69043 0.09328 0.5804 0.0
H1860 H 0.66594 0.10036 0.60039 0.0
O1861 O 0.63348 0.98415 0.60427 0.0
C1862 C 0.57945 0.96555 0.58542 0.0
C1863 C 0.64028 0.05914 0.60417 0.0
C1864 C 0.67451 0.07671 0.58594 0.0
N1865 N 0.64757 0.03017 0.58892 0.0
C1866 C 0.63388 0.03388 0.59986 0.0
C1867 C 0.66755 0.05117 0.58191 0.0
C1868 C 0.66077 0.08067 0.59716 0.0
C1869 C 0.60264 0.91698 0.55495 0.0
N1870 N 0.5864 0.91548 0.56609 0.0
C1871 C 0.59293 0.90894 0.54076 0.0
C1872 C 0.56639 0.89929 0.53801 0.0
C1873 C 0.54994 0.89777 0.54943 0.0
C1874 C 0.56035 0.90602 0.56348 0.0
C1875 C 0.5482 0.84856 0.59495 0.0
C1876 C 0.56021 0.8969 0.6063 0.0
C1877 C 0.56775 0.87179 0.58867 0.0
N1878 N 0.57341 0.89555 0.5943 0.0
C1879 C 0.54053 0.87408 0.61287 0.0
C1880 C 0.53451 0.84977 0.60713 0.0
C1881 C 0.62609 0.9629 0.61139 0.0
C1882 C 0.71073 0.00216 0.57305 0.0
C1883 C 0.689 0.01527 0.59619 0.0
C1884 C 0.71501 0.02102 0.59708 0.0
C1885 C 0.7259 0.01439 0.58542 0.0
N1886 N 0.67429 0.00336 0.58399 0.0
C1887 C 0.68481 0.99675 0.57253 0.0
Co1888 Co 0.11969 0.70031 0.58611 0.0
Co1889 Co 0.05257 0.66897 0.58278 0.0
O1890 O 0.08786 0.6958 0.57695 0.0
C1891 C 0.12973 0.75516 0.58924 0.0
O1892 O 0.1091 0.747 0.59774 0.0
C1893 C 0.0558 0.66057 0.55127 0.0
O1894 O 0.07822 0.66197 0.55434 0.0
O1895 O 0.06203 0.641 0.58184 0.0
O1896 O 0.10443 0.66163 0.5883 0.0
H1897 H 0.98564 0.59148 0.61153 0.0
H1898 H 0.12312 0.72571 0.55743 0.0
O1899 O 0.136 0.7391 0.58386 0.0
H1900 H 0.15953 0.6676 0.54866 0.0
H1901 H 0.21749 0.74263 0.59209 0.0
H1902 H 0.13136 0.67668 0.61169 0.0
H1903 H 0.14401 0.67083 0.5733 0.0
H1904 H 0.17672 0.73555 0.58036 0.0
O1905 O 0.04223 0.66276 0.5615 0.0
H1906 H 0.03028 0.62559 0.60446 0.0
H1907 H 0.99918 0.65506 0.57248 0.0
H1908 H 0.17164 0.68297 0.62369 0.0
H1909 H 0.13871 0.72331 0.53266 0.0
H1910 H 0.2151 0.71615 0.61388 0.0
H1911 H 0.15696 0.69399 0.52814 0.0
O1912 O 0.10616 0.70183 0.60585 0.0
H1913 H 0.04908 0.74746 0.5642 0.0
H1914 H 0.02538 0.68432 0.60489 0.0
H1915 H 0.01426 0.71942 0.60657 0.0
H1916 H 0.02608 0.75126 0.58611 0.0
H1917 H 0.06 0.71218 0.56302 0.0
H1918 H 0.95419 0.62112 0.57911 0.0
H1919 H 0.94721 0.5891 0.59881 0.0
O1920 O 0.06254 0.6746 0.60411 0.0
C1921 C 0.08285 0.64087 0.58544 0.0
C1922 C 0.98842 0.60538 0.60297 0.0
C1923 C 0.97077 0.622 0.58476 0.0
N1924 N 0.01729 0.64245 0.58819 0.0
C1925 C 0.01364 0.6248 0.59896 0.0
C1926 C 0.99628 0.64114 0.58104 0.0
C1927 C 0.96687 0.60404 0.59582 0.0
C1928 C 0.13132 0.71315 0.55559 0.0
N1929 N 0.13272 0.6985 0.56682 0.0
C1930 C 0.14001 0.71177 0.54153 0.0
C1931 C 0.1502 0.69528 0.53899 0.0
C1932 C 0.15162 0.68045 0.5505 0.0
C1933 C 0.14272 0.6823 0.56442 0.0
C1934 C 0.19867 0.72808 0.59645 0.0
C1935 C 0.1502 0.69104 0.60731 0.0
C1936 C 0.17552 0.72401 0.58987 0.0
N1937 N 0.15169 0.70556 0.59527 0.0
C1938 C 0.17294 0.69457 0.61417 0.0
C1939 C 0.19732 0.71321 0.60867 0.0
C1940 C 0.08335 0.68888 0.61151 0.0
C1941 C 0.04376 0.73366 0.57317 0.0
C1942 C 0.03065 0.69815 0.59596 0.0
C1943 C 0.02426 0.71795 0.59696 0.0
C1944 C 0.03088 0.7358 0.58547 0.0
N1945 N 0.04319 0.69613 0.58383 0.0
C1946 C 0.04982 0.71359 0.57254 0.0
Co1947 Co 0.1114 0.68256 0.74643 0.0
Co1948 Co 0.07467 0.71287 0.74993 0.0
O1949 O 0.08378 0.68648 0.75568 0.0
C1950 C 0.06707 0.62748 0.74338 0.0
O1951 O 0.05421 0.63546 0.73508 0.0
C1952 C 0.08647 0.72136 0.78143 0.0
O1953 O 0.10766 0.72032 0.77829 0.0
O1954 O 0.11191 0.7413 0.75079 0.0
O1955 O 0.13428 0.72131 0.74426 0.0
H1956 H 0.08359 0.78981 0.72129 0.0
H1957 H 0.08984 0.65688 0.77511 0.0
O1958 O 0.08945 0.64372 0.74864 0.0
H1959 H 0.18418 0.71628 0.78377 0.0
H1960 H 0.16818 0.64173 0.74021 0.0
H1961 H 0.14642 0.70669 0.7208 0.0
H1962 H 0.1652 0.71277 0.75917 0.0
H1963 H 0.13411 0.64808 0.75205 0.0
O1964 O 0.07056 0.71895 0.77124 0.0
H1965 H 0.09494 0.75624 0.72826 0.0
H1966 H 0.0346 0.72585 0.76038 0.0
H1967 H 0.18078 0.70113 0.70869 0.0
H1968 H 0.10808 0.65957 0.79984 0.0
H1969 H 0.19185 0.66846 0.7184 0.0
H1970 H 0.15555 0.68953 0.80431 0.0
O1971 O 0.09612 0.68081 0.72673 0.0
H1972 H 0.99359 0.63352 0.76864 0.0
H1973 H 0.03184 0.69682 0.72793 0.0
H1974 H 0.98586 0.66115 0.72634 0.0
H1975 H 0.96643 0.62923 0.74681 0.0
H1976 H 0.03955 0.66939 0.76973 0.0
H1977 H 0.02272 0.75923 0.75384 0.0
H1978 H 0.04723 0.79143 0.73412 0.0
O1979 O 0.07899 0.70738 0.72858 0.0
C1980 C 0.13305 0.74185 0.74714 0.0
C1981 C 0.07269 0.77581 0.72985 0.0
C1982 C 0.03855 0.75867 0.74814 0.0
N1983 N 0.06526 0.73895 0.7446 0.0
C1984 C 0.07897 0.75671 0.73381 0.0
C1985 C 0.04539 0.73985 0.75181 0.0
C1986 C 0.05231 0.77673 0.73707 0.0
C1987 C 0.11058 0.66973 0.77692 0.0
N1988 N 0.12644 0.68458 0.76569 0.0
C1989 C 0.12077 0.67126 0.79097 0.0
C1990 C 0.1474 0.68811 0.79348 0.0
C1991 C 0.16346 0.70315 0.78196 0.0
C1992 C 0.15259 0.70114 0.76806 0.0
C1993 C 0.16357 0.65608 0.73589 0.0
C1994 C 0.15125 0.69255 0.72514 0.0
C1995 C 0.14426 0.65972 0.74253 0.0
N1996 N 0.13844 0.6779 0.73719 0.0
C1997 C 0.17067 0.68943 0.71822 0.0
C1998 C 0.17685 0.67108 0.72366 0.0
C1999 C 0.08585 0.69341 0.72112 0.0
C2000 C 0.00181 0.64736 0.75967 0.0
C2001 C 0.02354 0.68296 0.73687 0.0
C2002 C 0.99748 0.66284 0.73592 0.0
C2003 C 0.98659 0.64494 0.74741 0.0
N2004 N 0.0383 0.68526 0.74895 0.0
C2005 C 0.02779 0.66775 0.76025 0.0
Co2006 Co 0.36683 0.45515 0.74609 0.0
Co2007 Co 0.33576 0.38787 0.74835 0.0
O2008 O 0.36221 0.42292 0.75473 0.0
C2009 C 0.4216 0.46503 0.74312 0.0
O2010 O 0.41345 0.44467 0.73441 0.0
C2011 C 0.3262 0.38982 0.77976 0.0
O2012 O 0.32745 0.41223 0.77684 0.0
O2013 O 0.30761 0.39706 0.74917 0.0
O2014 O 0.32819 0.43993 0.74373 0.0
H2015 H 0.2596 0.32192 0.71837 0.0
H2016 H 0.39167 0.45719 0.77477 0.0
O2017 O 0.40558 0.47133 0.74853 0.0
H2018 H 0.33329 0.49306 0.78424 0.0
H2019 H 0.4092 0.5532 0.74162 0.0
H2020 H 0.34366 0.46802 0.72077 0.0
H2021 H 0.33704 0.47876 0.75935 0.0
H2022 H 0.40193 0.51188 0.75269 0.0
O2023 O 0.32882 0.37665 0.76946 0.0
H2024 H 0.29324 0.36632 0.72614 0.0
H2025 H 0.32177 0.33413 0.758 0.0
H2026 H 0.35015 0.50886 0.70942 0.0
H2027 H 0.38875 0.47156 0.79979 0.0
H2028 H 0.38312 0.55184 0.71986 0.0
H2029 H 0.3593 0.48953 0.80467 0.0
O2030 O 0.36879 0.44261 0.72614 0.0
H2031 H 0.4138 0.38406 0.76743 0.0
H2032 H 0.35221 0.36187 0.72607 0.0
H2033 H 0.38756 0.35109 0.72451 0.0
H2034 H 0.41862 0.36215 0.74531 0.0
H2035 H 0.37829 0.39466 0.76848 0.0
H2036 H 0.2883 0.28936 0.75067 0.0
H2037 H 0.257 0.28306 0.73068 0.0
O2038 O 0.34217 0.39879 0.7272 0.0
C2039 C 0.30743 0.41805 0.74605 0.0
C2040 C 0.27321 0.32441 0.72705 0.0
C2041 C 0.28929 0.30614 0.7452 0.0
N2042 N 0.30961 0.35278 0.74239 0.0
C2043 C 0.29235 0.3495 0.73146 0.0
C2044 C 0.30816 0.33152 0.74932 0.0
C2045 C 0.27173 0.30261 0.73398 0.0
C2046 C 0.37905 0.46529 0.77677 0.0
N2047 N 0.36462 0.46722 0.76559 0.0
C2048 C 0.37738 0.47327 0.79097 0.0
C2049 C 0.36082 0.48331 0.7937 0.0
C2050 C 0.3462 0.48526 0.78225 0.0
C2051 C 0.34834 0.47706 0.76819 0.0
C2052 C 0.39474 0.53459 0.73699 0.0
C2053 C 0.35793 0.48665 0.72543 0.0
C2054 C 0.39056 0.51113 0.7432 0.0
N2055 N 0.37223 0.48756 0.73746 0.0
C2056 C 0.36157 0.50971 0.71893 0.0
C2057 C 0.38009 0.53382 0.72479 0.0
C2058 C 0.35638 0.42005 0.72015 0.0
C2059 C 0.40034 0.37907 0.75832 0.0
C2060 C 0.3657 0.3668 0.73515 0.0
C2061 C 0.38564 0.36061 0.73422 0.0
C2062 C 0.40306 0.36681 0.74589 0.0
N2063 N 0.36311 0.37874 0.74739 0.0
C2064 C 0.38015 0.38495 0.75887 0.0
Co2065 Co 0.59504 0.93521 0.74675 0.0
Co2066 Co 0.66224 0.97263 0.74912 0.0
O2067 O 0.62693 0.9632 0.75547 0.0
C2068 C 0.58435 0.97953 0.74404 0.0
O2069 O 0.60535 0.9925 0.73586 0.0
C2070 C 0.66028 0.96076 0.78047 0.0
O2071 O 0.63815 0.93938 0.77743 0.0
O2072 O 0.65388 0.93551 0.74978 0.0
O2073 O 0.61104 0.9125 0.74435 0.0
H2074 H 0.72942 0.96459 0.71908 0.0
H2075 H 0.59216 0.95743 0.77545 0.0
O2076 O 0.57804 0.95702 0.74916 0.0
H2077 H 0.55827 0.86344 0.78473 0.0
H2078 H 0.49722 0.87771 0.74206 0.0
H2079 H 0.58311 0.89955 0.72132 0.0
H2080 H 0.57243 0.88179 0.75989 0.0
H2081 H 0.5381 0.91229 0.75325 0.0
O2082 O 0.67335 0.97683 0.77025 0.0
H2083 H 0.6847 0.95277 0.7268 0.0
H2084 H 0.71559 0.01305 0.75896 0.0
H2085 H 0.54272 0.86468 0.70985 0.0
H2086 H 0.57791 0.93983 0.80043 0.0
H2087 H 0.49939 0.85356 0.72023 0.0
H2088 H 0.56094 0.89254 0.80521 0.0
O2089 O 0.60749 0.95001 0.72685 0.0
H2090 H 0.664 0.0533 0.76857 0.0
H2091 H 0.68765 0.01549 0.72702 0.0
H2092 H 0.69744 0.06133 0.72567 0.0
H2093 H 0.68564 0.08054 0.74657 0.0
H2094 H 0.65439 0.00748 0.76942 0.0
H2095 H 0.76066 0.0254 0.75168 0.0
H2096 H 0.76778 0.00115 0.73156 0.0
O2097 O 0.65142 0.96819 0.72795 0.0
C2098 C 0.63315 0.91412 0.74664 0.0
C2099 C 0.72657 0.97538 0.72782 0.0
C2100 C 0.74411 0.00948 0.74613 0.0
N2101 N 0.69757 0.98239 0.7432 0.0
C2102 C 0.7013 0.96883 0.7322 0.0
C2103 C 0.71855 0.00238 0.75022 0.0
C2104 C 0.74809 0.99587 0.73484 0.0
C2105 C 0.5845 0.93677 0.7774 0.0
N2106 N 0.58305 0.92065 0.7662 0.0
C2107 C 0.57658 0.92694 0.79158 0.0
C2108 C 0.5671 0.90041 0.79426 0.0
C2109 C 0.56563 0.88408 0.78278 0.0
C2110 C 0.57375 0.8946 0.76874 0.0
C2111 C 0.51599 0.88233 0.73745 0.0
C2112 C 0.56433 0.89471 0.72595 0.0
C2113 C 0.5392 0.90193 0.74373 0.0
N2114 N 0.56297 0.90777 0.73801 0.0
C2115 C 0.54153 0.875 0.71939 0.0
C2116 C 0.51722 0.86879 0.72521 0.0
C2117 C 0.6301 0.96075 0.72088 0.0
C2118 C 0.6693 0.04518 0.75942 0.0
C2119 C 0.6824 0.02369 0.73614 0.0
C2120 C 0.68804 0.04967 0.73533 0.0
C2121 C 0.68142 0.06044 0.74706 0.0
N2122 N 0.6706 0.00889 0.74833 0.0
C2123 C 0.66399 0.01928 0.75985 0.0
H2124 H 0.1268 0.34598 0.05826 0.0
H2125 H 0.22022 0.30467 0.09907 0.0
H2126 H 0.10829 0.3015 0.09848 0.0
H2127 H 0.23937 0.34392 0.05712 0.0
H2128 H 0.18369 0.31266 0.10142 0.0
H2129 H 0.17195 0.35422 0.05993 0.0
C2130 C 0.1324 0.33849 0.06761 0.0
C2131 C 0.11375 0.32271 0.07814 0.0
C2132 C 0.19601 0.31988 0.09176 0.0
C2133 C 0.16503 0.33192 0.08009 0.0
C2134 C 0.21692 0.31534 0.09043 0.0
C2135 C 0.23255 0.3233 0.07778 0.0
C2136 C 0.19029 0.33204 0.08022 0.0
C2137 C 0.22765 0.33736 0.06702 0.0
C2138 C 0.1581 0.34308 0.06852 0.0
C2139 C 0.12196 0.31342 0.09 0.0
N2140 N 0.20656 0.34086 0.06834 0.0
N2141 N 0.14686 0.31794 0.09056 0.0
H2142 H 0.74503 0.94037 0.10086 0.0
H2143 H 0.70073 0.8052 0.05992 0.0
H2144 H 0.7039 0.92031 0.05948 0.0
H2145 H 0.74551 0.83023 0.10007 0.0
H2146 H 0.69309 0.84246 0.06187 0.0
H2147 H 0.73636 0.8956 0.10316 0.0
C2148 C 0.7338 0.92635 0.09235 0.0
C2149 C 0.7255 0.93409 0.07986 0.0
C2150 C 0.70415 0.83946 0.07038 0.0
C2151 C 0.71597 0.88279 0.08223 0.0
C2152 C 0.7084 0.81815 0.06931 0.0
C2153 C 0.72411 0.81493 0.07973 0.0
C2154 C 0.71561 0.85742 0.08199 0.0
C2155 C 0.73364 0.83226 0.09166 0.0
C2156 C 0.72887 0.90076 0.09365 0.0
C2157 C 0.71074 0.91509 0.06925 0.0
N2158 N 0.72947 0.85285 0.09237 0.0
N2159 N 0.70687 0.89035 0.07053 0.0
H2160 H 0.12607 0.80918 0.05951 0.0
H2161 H 0.22183 0.94307 0.10054 0.0
H2162 H 0.10822 0.83616 0.09958 0.0
H2163 H 0.24008 0.92254 0.05846 0.0
H2164 H 0.18453 0.89895 0.10278 0.0
H2165 H 0.17157 0.84547 0.06121 0.0
C2166 C 0.13186 0.82239 0.06881 0.0
C2167 C 0.11333 0.81998 0.07929 0.0
C2168 C 0.19682 0.90385 0.09311 0.0
C2169 C 0.16501 0.86129 0.0813 0.0
C2170 C 0.21818 0.92906 0.09186 0.0
C2171 C 0.23379 0.93652 0.0792 0.0
C2172 C 0.19064 0.88601 0.0815 0.0
C2173 C 0.2284 0.91754 0.06837 0.0
C2174 C 0.15776 0.84312 0.06974 0.0
C2175 C 0.12179 0.83757 0.09111 0.0
N2176 N 0.2069 0.89321 0.06962 0.0
N2177 N 0.14689 0.85756 0.09171 0.0
H2178 H 0.34662 0.12803 0.93863 0.0
H2179 H 0.30438 0.21946 0.89654 0.0
H2180 H 0.30331 0.10861 0.89797 0.0
H2181 H 0.34418 0.2403 0.93832 0.0
H2182 H 0.31302 0.18331 0.89453 0.0
H2183 H 0.35468 0.17307 0.93648 0.0
C2184 C 0.33937 0.13342 0.92909 0.0
C2185 C 0.32393 0.11454 0.91858 0.0
C2186 C 0.32024 0.19592 0.90407 0.0
C2187 C 0.33292 0.16568 0.91608 0.0
C2188 C 0.31533 0.21661 0.9052 0.0
C2189 C 0.32325 0.2326 0.91771 0.0
C2190 C 0.33272 0.19076 0.91568 0.0
C2191 C 0.33764 0.22829 0.92853 0.0
C2192 C 0.34386 0.15905 0.9279 0.0
C2193 C 0.31495 0.12246 0.90645 0.0
N2194 N 0.34148 0.20739 0.92741 0.0
N2195 N 0.31934 0.1473 0.90562 0.0
H2196 H 0.92069 0.24128 0.93914 0.0
H2197 H 0.82816 0.10643 0.89831 0.0
H2198 H 0.9394 0.21585 0.89879 0.0
H2199 H 0.80811 0.12671 0.93994 0.0
H2200 H 0.86448 0.15105 0.89592 0.0
H2201 H 0.87557 0.20431 0.93736 0.0
C2202 C 0.91513 0.2283 0.92974 0.0
C2203 C 0.93382 0.23131 0.91921 0.0
C2204 C 0.85201 0.14598 0.90552 0.0
C2205 C 0.8826 0.18918 0.91714 0.0
C2206 C 0.83123 0.12047 0.90686 0.0
C2207 C 0.81541 0.11283 0.91944 0.0
C2208 C 0.85744 0.16396 0.91698 0.0
C2209 C 0.82 0.13186 0.9301 0.0
C2210 C 0.88945 0.20717 0.92877 0.0
C2211 C 0.92569 0.21397 0.90728 0.0
N2212 N 0.84099 0.1565 0.92878 0.0
N2213 N 0.90081 0.19355 0.90666 0.0
H2214 H 0.8228 0.7393 0.89779 0.0
H2215 H 0.92133 0.70606 0.93957 0.0
H2216 H 0.80695 0.70422 0.94087 0.0
H2217 H 0.93713 0.74814 0.89862 0.0
H2218 H 0.87542 0.69557 0.93797 0.0
H2219 H 0.85995 0.73224 0.89551 0.0
C2220 C 0.82692 0.72966 0.90668 0.0
C2221 C 0.81209 0.72268 0.91962 0.0
C2222 C 0.88887 0.70668 0.92922 0.0
C2223 C 0.85509 0.71515 0.91728 0.0
C2224 C 0.91499 0.71256 0.9301 0.0
C2225 C 0.93306 0.72835 0.91933 0.0
C2226 C 0.88092 0.71651 0.91743 0.0
C2227 C 0.92392 0.7363 0.90729 0.0
C2228 C 0.8482 0.72569 0.9054 0.0
C2229 C 0.81804 0.70998 0.93073 0.0
N2230 N 0.89861 0.73051 0.90675 0.0
N2231 N 0.83949 0.7071 0.92945 0.0
H2232 H 0.79381 0.67884 0.39389 0.0
H2233 H 0.887 0.63739 0.43474 0.0
H2234 H 0.77485 0.63361 0.43385 0.0
H2235 H 0.90648 0.67723 0.39297 0.0
H2236 H 0.85051 0.64544 0.43714 0.0
H2237 H 0.83907 0.68748 0.39579 0.0
C2238 C 0.79933 0.67127 0.40323 0.0
C2239 C 0.78054 0.65515 0.41361 0.0
C2240 C 0.86291 0.65279 0.42751 0.0
C2241 C 0.83194 0.66482 0.41582 0.0
C2242 C 0.8838 0.64823 0.42616 0.0
C2243 C 0.89949 0.65632 0.41354 0.0
C2244 C 0.85726 0.66509 0.41601 0.0
C2245 C 0.89471 0.67057 0.40284 0.0
C2246 C 0.82509 0.67609 0.40427 0.0
C2247 C 0.78864 0.64578 0.42547 0.0
N2248 N 0.87363 0.67407 0.40418 0.0
N2249 N 0.81361 0.65053 0.42617 0.0
H2250 H 0.41064 0.27258 0.43358 0.0
H2251 H 0.36943 0.13824 0.3924 0.0
H2252 H 0.37137 0.25273 0.39164 0.0
H2253 H 0.41414 0.16407 0.43255 0.0
H2254 H 0.36088 0.17493 0.39432 0.0
H2255 H 0.40246 0.22798 0.43588 0.0
C2256 C 0.3999 0.25863 0.42494 0.0
C2257 C 0.39201 0.2664 0.4123 0.0
C2258 C 0.37213 0.17222 0.40283 0.0
C2259 C 0.38309 0.21532 0.41467 0.0
C2260 C 0.37689 0.15124 0.40178 0.0
C2261 C 0.39285 0.14843 0.41222 0.0
C2262 C 0.38328 0.19024 0.41445 0.0
C2263 C 0.4021 0.1658 0.42413 0.0
C2264 C 0.39526 0.23314 0.42624 0.0
C2265 C 0.37788 0.24749 0.40153 0.0
N2266 N 0.3974 0.18606 0.42484 0.0
N2267 N 0.37431 0.22287 0.40281 0.0
H2268 H 0.90949 0.25425 0.39315 0.0
H2269 H 0.77519 0.16198 0.43461 0.0
H2270 H 0.88365 0.27405 0.43298 0.0
H2271 H 0.7952 0.14136 0.39307 0.0
H2272 H 0.81972 0.19861 0.43672 0.0
H2273 H 0.8728 0.20904 0.39533 0.0
C2274 C 0.89648 0.24892 0.40252 0.0
C2275 C 0.89929 0.26793 0.41278 0.0
C2276 C 0.81461 0.18595 0.42721 0.0
C2277 C 0.8575 0.2166 0.41531 0.0
C2278 C 0.78916 0.16498 0.42602 0.0
C2279 C 0.78146 0.14891 0.41355 0.0
C2280 C 0.83245 0.19129 0.41569 0.0
C2281 C 0.8004 0.15343 0.40284 0.0
C2282 C 0.87551 0.2232 0.40372 0.0
C2283 C 0.88192 0.26009 0.42469 0.0
N2284 N 0.82497 0.17458 0.404 0.0
N2285 N 0.86167 0.23515 0.42554 0.0
H2286 H 0.97396 0.44249 0.23154 0.0
H2287 H 0.01273 0.57514 0.27393 0.0
H2288 H 0.01044 0.46051 0.27427 0.0
H2289 H 0.97143 0.5515 0.23264 0.0
H2290 H 0.02125 0.53842 0.2721 0.0
H2291 H 0.9826 0.48728 0.2295 0.0
C2292 C 0.9842 0.45608 0.24041 0.0
C2293 C 0.99116 0.44775 0.25318 0.0
C2294 C 0.01077 0.54163 0.26332 0.0
C2295 C 0.00058 0.49903 0.25111 0.0
C2296 C 0.00603 0.56262 0.26433 0.0
C2297 C 0.99101 0.56604 0.25353 0.0
C2298 C 0.00053 0.5242 0.25139 0.0
C2299 C 0.98272 0.54929 0.24133 0.0
C2300 C 0.9891 0.48168 0.23927 0.0
C2301 C 0.00466 0.46621 0.26427 0.0
N2302 N 0.98736 0.52899 0.24068 0.0
N2303 N 0.00848 0.49093 0.26311 0.0
H2304 H 0.60659 0.55323 0.23223 0.0
H2305 H 0.47307 0.46076 0.27401 0.0
H2306 H 0.5881 0.57261 0.27458 0.0
H2307 H 0.4954 0.44378 0.2321 0.0
H2308 H 0.51033 0.50573 0.27246 0.0
H2309 H 0.56157 0.51765 0.22994 0.0
C2310 C 0.59286 0.55017 0.24097 0.0
C2311 C 0.6011 0.56558 0.2537 0.0
C2312 C 0.50672 0.49228 0.26348 0.0
C2313 C 0.54952 0.52438 0.25134 0.0
C2314 C 0.4854 0.46669 0.26432 0.0
C2315 C 0.48147 0.44848 0.25327 0.0
C2316 C 0.52399 0.49953 0.25147 0.0
C2317 C 0.49801 0.45709 0.24099 0.0
C2318 C 0.56712 0.52982 0.23968 0.0
C2319 C 0.58247 0.56104 0.26461 0.0
N2320 N 0.51866 0.48185 0.2405 0.0
N2321 N 0.55759 0.54044 0.26333 0.0
H2322 H 0.49601 0.07656 0.23178 0.0
H2323 H 0.58855 0.03704 0.27472 0.0
H2324 H 0.47665 0.04007 0.27448 0.0
H2325 H 0.60578 0.07585 0.23266 0.0
H2326 H 0.54343 0.02887 0.27285 0.0
H2327 H 0.53149 0.06693 0.2298 0.0
C2328 C 0.49905 0.06612 0.24066 0.0
C2329 C 0.4837 0.05942 0.25339 0.0
C2330 C 0.55697 0.03868 0.26391 0.0
C2331 C 0.52481 0.04889 0.25142 0.0
C2332 C 0.58263 0.04322 0.26494 0.0
C2333 C 0.60093 0.0575 0.25393 0.0
C2334 C 0.54974 0.04841 0.25175 0.0
C2335 C 0.59237 0.06515 0.24151 0.0
C2336 C 0.51934 0.06064 0.23956 0.0
C2337 C 0.4882 0.04565 0.26451 0.0
N2338 N 0.56753 0.06076 0.24084 0.0
N2339 N 0.50877 0.04129 0.26341 0.0
H2340 H 0.44055 0.96884 0.76703 0.0
H2341 H 0.57551 0.01201 0.72619 0.0
H2342 H 0.4604 0.00874 0.72527 0.0
H2343 H 0.55056 0.9683 0.76669 0.0
H2344 H 0.53835 0.01985 0.72794 0.0
H2345 H 0.48538 0.97777 0.76947 0.0
C2346 C 0.45454 0.97986 0.75846 0.0
C2347 C 0.44673 0.98773 0.74583 0.0
C2348 C 0.54135 0.00899 0.73657 0.0
C2349 C 0.49808 0.99752 0.74836 0.0
C2350 C 0.5626 0.00463 0.73562 0.0
C2351 C 0.5658 0.98914 0.7462 0.0
C2352 C 0.52344 0.99787 0.74823 0.0
C2353 C 0.54854 0.97998 0.75817 0.0
C2354 C 0.48017 0.98494 0.75984 0.0
C2355 C 0.46569 0.00224 0.73515 0.0
N2356 N 0.528 0.98425 0.75877 0.0
N2357 N 0.49045 0.00623 0.73651 0.0
H2358 H 0.07774 0.49459 0.76704 0.0
H2359 H 0.03512 0.58612 0.7254 0.0
H2360 H 0.03876 0.47445 0.72502 0.0
H2361 H 0.07787 0.60497 0.76624 0.0
H2362 H 0.02741 0.54117 0.72726 0.0
H2363 H 0.06865 0.53042 0.76924 0.0
C2364 C 0.06688 0.49752 0.75836 0.0
C2365 C 0.05932 0.48184 0.74573 0.0
C2366 C 0.03803 0.55504 0.73594 0.0
C2367 C 0.04935 0.52332 0.74798 0.0
C2368 C 0.04231 0.58062 0.73491 0.0
C2369 C 0.0575 0.59932 0.74557 0.0
C2370 C 0.04892 0.54829 0.74773 0.0
C2371 C 0.06642 0.59125 0.75766 0.0
C2372 C 0.06171 0.51803 0.7596 0.0
C2373 C 0.04502 0.48624 0.7349 0.0
N2374 N 0.06224 0.56648 0.75832 0.0
N2375 N 0.04093 0.50697 0.73612 0.0
H2376 H 0.44419 0.49522 0.76709 0.0
H2377 H 0.57747 0.58844 0.72513 0.0
H2378 H 0.46285 0.4762 0.72469 0.0
H2379 H 0.55318 0.60663 0.76604 0.0
H2380 H 0.54082 0.54317 0.72706 0.0
H2381 H 0.48902 0.53125 0.76928 0.0
C2382 C 0.45794 0.49843 0.75832 0.0
C2383 C 0.44978 0.48302 0.74559 0.0
C2384 C 0.54387 0.55697 0.73574 0.0
C2385 C 0.50109 0.52474 0.74784 0.0
C2386 C 0.56483 0.58273 0.73468 0.0
C2387 C 0.56802 0.60132 0.74533 0.0
C2388 C 0.52627 0.54993 0.74758 0.0
C2389 C 0.55112 0.59299 0.75746 0.0
C2390 C 0.48355 0.51905 0.75956 0.0
C2391 C 0.46841 0.48777 0.73465 0.0
N2392 N 0.53087 0.56804 0.75817 0.0
N2393 N 0.49316 0.50862 0.73588 0.0
H2394 H 0.63928 0.77598 0.56443 0.0
H2395 H 0.67855 0.90943 0.60612 0.0
H2396 H 0.67709 0.79518 0.6068 0.0
H2397 H 0.63465 0.88384 0.5657 0.0
H2398 H 0.68749 0.87299 0.60421 0.0
H2399 H 0.64735 0.82056 0.56225 0.0
C2400 C 0.64969 0.78979 0.57319 0.0
C2401 C 0.65718 0.78184 0.58591 0.0
C2402 C 0.67634 0.8757 0.59563 0.0
C2403 C 0.66595 0.83287 0.58367 0.0
C2404 C 0.67135 0.89653 0.59668 0.0
C2405 C 0.6555 0.89933 0.58617 0.0
C2406 C 0.66553 0.85784 0.58393 0.0
C2407 C 0.64659 0.88211 0.57418 0.0
C2408 C 0.65426 0.81526 0.57196 0.0
C2409 C 0.6709 0.80057 0.59684 0.0
N2410 N 0.65151 0.862 0.57347 0.0
N2411 N 0.67439 0.82516 0.59561 0.0
H2412 H 0.13918 0.79645 0.6073 0.0
H2413 H 0.27188 0.88886 0.56462 0.0
H2414 H 0.16231 0.77788 0.56611 0.0
H2415 H 0.25403 0.9085 0.60706 0.0
H2416 H 0.22699 0.85287 0.56269 0.0
H2417 H 0.17606 0.84156 0.60524 0.0
C2418 C 0.15162 0.80204 0.59767 0.0
C2419 C 0.14801 0.78338 0.58697 0.0
C2420 C 0.23265 0.86519 0.57237 0.0
C2421 C 0.19004 0.8346 0.58457 0.0
C2422 C 0.25831 0.8858 0.57345 0.0
C2423 C 0.26672 0.90139 0.58611 0.0
C2424 C 0.21531 0.85971 0.58418 0.0
C2425 C 0.24829 0.8968 0.59714 0.0
C2426 C 0.1727 0.82771 0.59653 0.0
C2427 C 0.16466 0.79156 0.57473 0.0
N2428 N 0.22349 0.87598 0.59607 0.0
N2429 N 0.18506 0.81644 0.57395 0.0
H2430 H 0.27388 0.41175 0.56383 0.0
H2431 H 0.14031 0.37198 0.60559 0.0
H2432 H 0.25452 0.37322 0.60599 0.0
H2433 H 0.16621 0.41679 0.56547 0.0
H2434 H 0.17679 0.36312 0.60356 0.0
H2435 H 0.2294 0.40399 0.56176 0.0
C2436 C 0.26006 0.40126 0.57257 0.0
C2437 C 0.26794 0.39346 0.5852 0.0
C2438 C 0.17414 0.37447 0.59508 0.0
C2439 C 0.21702 0.38503 0.58309 0.0
C2440 C 0.1533 0.37942 0.59619 0.0
C2441 C 0.15056 0.39547 0.5858 0.0
C2442 C 0.19209 0.38552 0.58343 0.0
C2443 C 0.16788 0.40468 0.57386 0.0
C2444 C 0.23464 0.39687 0.57141 0.0
C2445 C 0.24919 0.37965 0.5961 0.0
N2446 N 0.188 0.39978 0.57309 0.0
N2447 N 0.22465 0.37631 0.59494 0.0
H2448 H 0.9757 0.3282 0.12323 0.0
H2449 H 0.99346 0.30751 0.2081 0.0
H2450 H 0.99898 0.2734 0.13835 0.0
H2451 H 0.94052 0.33306 0.19281 0.0
H2452 H 0.00191 0.30094 0.18253 0.0
H2453 H 0.96886 0.33633 0.14881 0.0
C2454 C 0.97946 0.31796 0.13193 0.0
C2455 C 0.98778 0.3 0.12868 0.0
C2456 C 0.98845 0.30797 0.18481 0.0
C2457 C 0.98029 0.3094 0.15786 0.0
C2458 C 0.9837 0.31181 0.19937 0.0
C2459 C 0.96616 0.3207 0.20256 0.0
C2460 C 0.97594 0.31353 0.1734 0.0
C2461 C 0.95402 0.32597 0.19083 0.0
C2462 C 0.97547 0.32254 0.14649 0.0
C2463 C 0.99235 0.28725 0.14037 0.0
N2464 N 0.95923 0.32242 0.17675 0.0
N2465 N 0.98865 0.29229 0.15446 0.0
H2466 H 0.77574 0.75018 0.13874 0.0
H2467 H 0.71469 0.6287 0.19323 0.0
H2468 H 0.72096 0.67169 0.12419 0.0
H2469 H 0.73965 0.70744 0.20785 0.0
H2470 H 0.72148 0.64405 0.16777 0.0
H2471 H 0.76739 0.73481 0.16419 0.0
C2472 C 0.762 0.7297 0.1409 0.0
C2473 C 0.74904 0.71214 0.12936 0.0
C2474 C 0.72537 0.65792 0.17656 0.0
C2475 C 0.7396 0.69448 0.15838 0.0
C2476 C 0.72164 0.64923 0.19108 0.0
C2477 C 0.72668 0.66686 0.20264 0.0
C2478 C 0.73465 0.68451 0.17362 0.0
C2479 C 0.73548 0.6932 0.19924 0.0
C2480 C 0.75716 0.721 0.15542 0.0
C2481 C 0.73131 0.68586 0.13278 0.0
N2482 N 0.73941 0.70129 0.18502 0.0
N2483 N 0.72726 0.67776 0.147 0.0
H2484 H 0.30116 0.0528 0.1379 0.0
H2485 H 0.42235 0.11076 0.19251 0.0
H2486 H 0.37935 0.07559 0.12319 0.0
H2487 H 0.34332 0.05742 0.20686 0.0
H2488 H 0.40719 0.1027 0.167 0.0
H2489 H 0.3165 0.05907 0.16332 0.0
C2490 C 0.32158 0.05918 0.14002 0.0
C2491 C 0.33905 0.06374 0.12843 0.0
C2492 C 0.39323 0.09271 0.17575 0.0
C2493 C 0.35669 0.07112 0.15745 0.0
C2494 C 0.40181 0.09738 0.19029 0.0
C2495 C 0.38402 0.08477 0.2018 0.0
C2496 C 0.36661 0.0757 0.17272 0.0
C2497 C 0.35767 0.06749 0.1983 0.0
C2498 C 0.33026 0.06261 0.15452 0.0
C2499 C 0.36524 0.07181 0.13181 0.0
N2500 N 0.3497 0.06363 0.18406 0.0
N2501 N 0.37335 0.07547 0.14604 0.0
H2502 H 0.27239 0.99831 0.85975 0.0
H2503 H 0.33226 0.93664 0.80531 0.0
H2504 H 0.32665 0.97399 0.87439 0.0
H2505 H 0.30795 0.99091 0.79068 0.0
H2506 H 0.32575 0.94547 0.83077 0.0
H2507 H 0.2806 0.99106 0.83433 0.0
C2508 C 0.286 0.9914 0.85761 0.0
C2509 C 0.29884 0.98668 0.86918 0.0
C2510 C 0.32194 0.95548 0.82198 0.0
C2511 C 0.30811 0.97819 0.84017 0.0
C2512 C 0.32551 0.95038 0.80746 0.0
C2513 C 0.32057 0.96304 0.79588 0.0
C2514 C 0.31293 0.97301 0.82492 0.0
C2515 C 0.31203 0.98078 0.79929 0.0
C2516 C 0.29076 0.9874 0.84311 0.0
C2517 C 0.3164 0.97791 0.86578 0.0
N2518 N 0.30826 0.98508 0.81351 0.0
N2519 N 0.32037 0.97372 0.85156 0.0
H2520 H 0.11033 0.4173 0.805 0.0
H2521 H 0.04871 0.29508 0.85902 0.0
H2522 H 0.05631 0.3389 0.78997 0.0
H2523 H 0.07318 0.37362 0.87381 0.0
H2524 H 0.0559 0.3107 0.8336 0.0
H2525 H 0.1015 0.40155 0.83036 0.0
C2526 C 0.09664 0.39675 0.80704 0.0
C2527 C 0.08405 0.37934 0.79538 0.0
C2528 C 0.0596 0.32446 0.84242 0.0
C2529 C 0.07407 0.36123 0.82433 0.0
C2530 C 0.05564 0.31562 0.85692 0.0
C2531 C 0.06042 0.33313 0.86852 0.0
C2532 C 0.06885 0.35107 0.83954 0.0
C2533 C 0.0692 0.35948 0.86518 0.0
C2534 C 0.09153 0.38783 0.82151 0.0
C2535 C 0.06638 0.35297 0.79866 0.0
N2536 N 0.07335 0.36771 0.85098 0.0
N2537 N 0.06206 0.34465 0.81284 0.0
H2538 H 0.7094 0.74066 0.79053 0.0
H2539 H 0.66895 0.72028 0.87509 0.0
H2540 H 0.63074 0.71612 0.80513 0.0
H2541 H 0.74754 0.77456 0.86046 0.0
H2542 H 0.65452 0.71241 0.84941 0.0
H2543 H 0.72376 0.74712 0.81622 0.0
C2544 C 0.69516 0.73656 0.79914 0.0
C2545 C 0.66888 0.72799 0.79572 0.0
C2546 C 0.6749 0.72604 0.85186 0.0
C2547 C 0.68508 0.73503 0.82501 0.0
C2548 C 0.68316 0.73047 0.86648 0.0
C2549 C 0.70944 0.74819 0.86988 0.0
C2550 C 0.69317 0.73907 0.8406 0.0
C2551 C 0.72705 0.76089 0.85831 0.0
C2552 C 0.70337 0.74033 0.81376 0.0
C2553 C 0.65123 0.72297 0.80729 0.0
N2554 N 0.71862 0.75598 0.84417 0.0
N2555 N 0.65962 0.72644 0.82144 0.0
H2556 H 0.04831 0.77728 0.85991 0.0
H2557 H 0.10728 0.71341 0.80638 0.0
H2558 H 0.07177 0.72286 0.87546 0.0
H2559 H 0.05375 0.73843 0.79142 0.0
H2560 H 0.09903 0.72101 0.83177 0.0
H2561 H 0.05483 0.76766 0.83465 0.0
C2562 C 0.0549 0.76335 0.85801 0.0
C2563 C 0.05957 0.75088 0.8698 0.0
C2564 C 0.08904 0.72473 0.82292 0.0
C2565 C 0.06723 0.73997 0.84093 0.0
C2566 C 0.09381 0.72053 0.80844 0.0
C2567 C 0.08122 0.72537 0.79679 0.0
C2568 C 0.07193 0.73429 0.82574 0.0
C2569 C 0.06383 0.7344 0.80009 0.0
C2570 C 0.05848 0.75778 0.84359 0.0
C2571 C 0.06791 0.73287 0.86668 0.0
N2572 N 0.05987 0.7388 0.81426 0.0
N2573 N 0.0717 0.7281 0.85253 0.0
H2574 H 0.30933 0.33985 0.78934 0.0
H2575 H 0.32804 0.37695 0.87438 0.0
H2576 H 0.33405 0.41803 0.8049 0.0
H2577 H 0.27357 0.2991 0.85878 0.0
H2578 H 0.33661 0.39235 0.84888 0.0
H2579 H 0.30221 0.32446 0.81485 0.0
C2580 C 0.31333 0.35376 0.79812 0.0
C2581 C 0.32215 0.38021 0.79503 0.0
C2582 C 0.32279 0.37192 0.85108 0.0
C2583 C 0.31435 0.36283 0.82411 0.0
C2584 C 0.31796 0.36311 0.86559 0.0
C2585 C 0.29997 0.33676 0.86868 0.0
C2586 C 0.30989 0.35413 0.8396 0.0
C2587 C 0.28743 0.31963 0.85689 0.0
C2588 C 0.30918 0.34496 0.81264 0.0
C2589 C 0.32703 0.39743 0.80681 0.0
N2590 N 0.29273 0.32859 0.84285 0.0
N2591 N 0.32318 0.38846 0.82085 0.0
H2592 H 0.67139 0.97473 0.87512 0.0
H2593 H 0.71 0.99424 0.79031 0.0
H2594 H 0.74958 0.99834 0.86004 0.0
H2595 H 0.63179 0.93989 0.80545 0.0
H2596 H 0.72497 0.00237 0.81591 0.0
H2597 H 0.65654 0.96822 0.84952 0.0
C2598 C 0.68543 0.97863 0.86642 0.0
C2599 C 0.71171 0.98694 0.86968 0.0
C2600 C 0.70455 0.98868 0.81358 0.0
C2601 C 0.69495 0.97985 0.84049 0.0
C2602 C 0.69599 0.9841 0.79902 0.0
C2603 C 0.66966 0.96627 0.79578 0.0
C2604 C 0.68654 0.9757 0.82495 0.0
C2605 C 0.65231 0.95364 0.80747 0.0
C2606 C 0.67693 0.97482 0.85186 0.0
C2607 C 0.72909 0.9917 0.858 0.0
N2608 N 0.66102 0.9587 0.82155 0.0
N2609 N 0.72043 0.9882 0.8439 0.0
H2610 H 0.77692 0.04953 0.13895 0.0
H2611 H 0.71488 0.10863 0.19365 0.0
H2612 H 0.72194 0.07304 0.12449 0.0
H2613 H 0.74041 0.05523 0.20814 0.0
H2614 H 0.72177 0.10029 0.16818 0.0
H2615 H 0.76822 0.05601 0.16443 0.0
C2616 C 0.76305 0.05611 0.14114 0.0
C2617 C 0.75016 0.06083 0.12961 0.0
C2618 C 0.72576 0.09035 0.17694 0.0
C2619 C 0.74033 0.06843 0.15868 0.0
C2620 C 0.72198 0.09518 0.19147 0.0
C2621 C 0.72716 0.08263 0.20301 0.0
C2622 C 0.73524 0.07322 0.17395 0.0
C2623 C 0.73614 0.06526 0.19955 0.0
C2624 C 0.75802 0.05965 0.15567 0.0
C2625 C 0.73226 0.06914 0.13307 0.0
N2626 N 0.74012 0.06123 0.18531 0.0
N2627 N 0.72802 0.0729 0.14731 0.0
H2628 H 0.97595 0.67283 0.12246 0.0
H2629 H 0.99341 0.70851 0.20774 0.0
H2630 H 0.99745 0.74988 0.13864 0.0
H2631 H 0.94133 0.63013 0.19197 0.0
H2632 H 0.0014 0.72417 0.18229 0.0
H2633 H 0.96926 0.65688 0.14788 0.0
C2634 C 0.97932 0.68638 0.13136 0.0
C2635 C 0.98712 0.71267 0.12846 0.0
C2636 C 0.98824 0.70355 0.18443 0.0
C2637 C 0.97987 0.69468 0.15744 0.0
C2638 C 0.98375 0.69459 0.19892 0.0
C2639 C 0.96657 0.66802 0.20195 0.0
C2640 C 0.97583 0.68573 0.1729 0.0
C2641 C 0.95456 0.65083 0.19012 0.0
C2642 C 0.97543 0.67726 0.14582 0.0
C2643 C 0.99122 0.72941 0.14038 0.0
N2644 N 0.95951 0.65996 0.17609 0.0
N2645 N 0.98768 0.72016 0.15436 0.0
H2646 H 0.37657 0.32907 0.1228 0.0
H2647 H 0.33868 0.30817 0.20776 0.0
H2648 H 0.29856 0.27426 0.13804 0.0
H2649 H 0.41712 0.33406 0.19223 0.0
H2650 H 0.32345 0.30161 0.18223 0.0
H2651 H 0.39168 0.3372 0.14835 0.0
C2652 C 0.36262 0.31883 0.13152 0.0
C2653 C 0.33631 0.30087 0.12832 0.0
C2654 C 0.34398 0.30871 0.18445 0.0
C2655 C 0.35339 0.31026 0.15746 0.0
C2656 C 0.35269 0.31255 0.19898 0.0
C2657 C 0.37916 0.32153 0.20209 0.0
C2658 C 0.36197 0.31436 0.17298 0.0
C2659 C 0.3965 0.3269 0.19032 0.0
C2660 C 0.37127 0.3234 0.14606 0.0
C2661 C 0.31906 0.28811 0.14003 0.0
N2662 N 0.38762 0.32334 0.17626 0.0
N2663 N 0.32788 0.29314 0.1541 0.0
H2664 H 0.65987 0.64141 0.54135 0.0
H2665 H 0.6412 0.66031 0.45641 0.0
H2666 H 0.60658 0.66651 0.52605 0.0
H2667 H 0.66392 0.6053 0.47193 0.0
H2668 H 0.63451 0.66894 0.48193 0.0
H2669 H 0.66782 0.63419 0.51581 0.0
C2670 C 0.64993 0.64548 0.53261 0.0
C2671 C 0.63244 0.65443 0.53579 0.0
C2672 C 0.64094 0.65498 0.4797 0.0
C2673 C 0.64164 0.6465 0.50667 0.0
C2674 C 0.64484 0.65012 0.46518 0.0
C2675 C 0.65299 0.63197 0.46208 0.0
C2676 C 0.6457 0.64196 0.49116 0.0
C2677 C 0.65742 0.61929 0.47384 0.0
C2678 C 0.65439 0.64126 0.51808 0.0
C2679 C 0.62005 0.65938 0.52407 0.0
N2680 N 0.65385 0.62463 0.48789 0.0
N2681 N 0.62498 0.65547 0.51 0.0
H2682 H 0.38877 0.0056 0.45657 0.0
H2683 H 0.40785 0.04389 0.54147 0.0
H2684 H 0.44337 0.08367 0.47182 0.0
H2685 H 0.38248 0.9654 0.52621 0.0
H2686 H 0.41506 0.059 0.5159 0.0
H2687 H 0.38025 0.9906 0.48214 0.0
C2688 C 0.3989 0.01958 0.4653 0.0
C2689 C 0.4169 0.04588 0.46209 0.0
C2690 C 0.40793 0.03849 0.51819 0.0
C2691 C 0.40704 0.02894 0.49126 0.0
C2692 C 0.40372 0.02985 0.53274 0.0
C2693 C 0.39469 0.00339 0.53594 0.0
C2694 C 0.4026 0.02045 0.50679 0.0
C2695 C 0.38966 0.98601 0.52423 0.0
C2696 C 0.3941 0.011 0.47985 0.0
C2697 C 0.4295 0.06318 0.47381 0.0
N2698 N 0.39357 0.99482 0.51015 0.0
N2699 N 0.42423 0.05443 0.48789 0.0
H2700 H 0.96403 0.38307 0.47198 0.0
H2701 H 0.08599 0.44496 0.5261 0.0
H2702 H 0.04247 0.40704 0.45722 0.0
H2703 H 0.0076 0.39068 0.54102 0.0
H2704 H 0.07038 0.43593 0.5007 0.0
H2705 H 0.97964 0.39037 0.49738 0.0
C2706 C 0.98455 0.38991 0.47408 0.0
C2707 C 0.00202 0.39452 0.46249 0.0
C2708 C 0.05665 0.42595 0.50954 0.0
C2709 C 0.01996 0.40308 0.49147 0.0
C2710 C 0.06548 0.43118 0.52403 0.0
C2711 C 0.04802 0.41857 0.53566 0.0
C2712 C 0.03009 0.40837 0.50669 0.0
C2713 C 0.02171 0.40077 0.53235 0.0
C2714 C 0.99339 0.39393 0.48858 0.0
C2715 C 0.02835 0.4032 0.46585 0.0
N2716 N 0.01347 0.39635 0.51815 0.0
N2717 N 0.03659 0.40742 0.48005 0.0
H2718 H 0.40714 0.3877 0.54139 0.0
H2719 H 0.38825 0.40626 0.4564 0.0
H2720 H 0.38348 0.44198 0.52585 0.0
H2721 H 0.44207 0.3819 0.4718 0.0
H2722 H 0.38004 0.41328 0.48193 0.0
H2723 H 0.4139 0.37913 0.51587 0.0
C2724 C 0.40329 0.39773 0.53261 0.0
C2725 C 0.39487 0.41567 0.53571 0.0
C2726 C 0.39364 0.40641 0.47968 0.0
C2727 C 0.40225 0.40575 0.50662 0.0
C2728 C 0.39826 0.40231 0.46516 0.0
C2729 C 0.41597 0.39363 0.46201 0.0
C2730 C 0.40646 0.40132 0.49112 0.0
C2731 C 0.42843 0.38882 0.47375 0.0
C2732 C 0.40723 0.39291 0.51809 0.0
C2733 C 0.39019 0.42816 0.52394 0.0
N2734 N 0.42334 0.39261 0.48781 0.0
N2735 N 0.39382 0.42286 0.50989 0.0
H2736 H 0.65985 0.0425 0.54194 0.0
H2737 H 0.6418 0.00435 0.45707 0.0
H2738 H 0.60586 0.96428 0.52663 0.0
H2739 H 0.66517 0.08243 0.47226 0.0
H2740 H 0.63473 0.98928 0.48264 0.0
H2741 H 0.66831 0.05755 0.51637 0.0
C2742 C 0.64986 0.0285 0.5332 0.0
C2743 C 0.63203 0.00215 0.53638 0.0
C2744 C 0.6414 0.00969 0.48033 0.0
C2745 C 0.64183 0.01913 0.50724 0.0
C2746 C 0.64551 0.01831 0.46578 0.0
C2747 C 0.65394 0.04463 0.46257 0.0
C2748 C 0.64622 0.02763 0.49172 0.0
C2749 C 0.65846 0.06192 0.47426 0.0
C2750 C 0.65462 0.03711 0.51865 0.0
C2751 C 0.61959 0.98482 0.52466 0.0
N2752 N 0.65467 0.05314 0.48834 0.0
N2753 N 0.62483 0.99359 0.51058 0.0
H2754 H 0.04414 0.66161 0.4564 0.0
H2755 H 0.00591 0.64321 0.54135 0.0
H2756 H 0.96632 0.60677 0.47186 0.0
H2757 H 0.08455 0.66894 0.52626 0.0
H2758 H 0.99093 0.63584 0.51577 0.0
H2759 H 0.05927 0.6706 0.48196 0.0
C2760 C 0.03025 0.65153 0.46517 0.0
C2761 C 0.00398 0.63332 0.46202 0.0
C2762 C 0.01145 0.6431 0.51809 0.0
C2763 C 0.02105 0.64373 0.49118 0.0
C2764 C 0.02002 0.6474 0.53266 0.0
C2765 C 0.04647 0.65656 0.53592 0.0
C2766 C 0.02955 0.64844 0.50672 0.0
C2767 C 0.06394 0.66165 0.52423 0.0
C2768 C 0.0389 0.6566 0.47972 0.0
C2769 C 0.98679 0.6208 0.4738 0.0
N2770 N 0.05519 0.65764 0.51014 0.0
N2771 N 0.99559 0.62633 0.48786 0.0
H2772 H 0.98169 0.2898 0.03503 0.0
H2773 H 0.06624 0.33072 0.96218 0.0
H2774 H 0.06151 0.30555 0.03527 0.0
H2775 H 0.98618 0.26711 0.96219 0.0
H2776 H 0.06478 0.33227 0.9891 0.0
H2777 H 0.98314 0.29204 0.00808 0.0
C2778 C 0.9996 0.29405 0.02942 0.0
C2779 C 0.0215 0.2974 0.03732 0.0
C2780 C 0.04754 0.31815 0.98314 0.0
C2781 C 0.02334 0.30041 0.00674 0.0
C2782 C 0.04828 0.31732 0.96784 0.0
C2783 C 0.02631 0.29868 0.96002 0.0
C2784 C 0.02445 0.30072 0.99057 0.0
C2785 C 0.00357 0.28164 0.96786 0.0
C2786 C 0.00033 0.29517 0.0141 0.0
C2787 C 0.04417 0.30268 0.02954 0.0
N2788 N 0.00315 0.28317 0.98275 0.0
N2789 N 0.04459 0.30421 0.01464 0.0
H2790 H 0.77763 0.73979 0.96254 0.0
H2791 H 0.73999 0.77973 0.03656 0.0
H2792 H 0.71413 0.75635 0.96365 0.0
H2793 H 0.75581 0.71572 0.03562 0.0
H2794 H 0.73637 0.77766 0.00966 0.0
H2795 H 0.77613 0.73682 0.98946 0.0
C2796 C 0.76333 0.74269 0.96846 0.0
C2797 C 0.74594 0.74828 0.96093 0.0
C2798 C 0.74043 0.76398 0.01541 0.0
C2799 C 0.74458 0.74551 0.99151 0.0
C2800 C 0.74261 0.76521 0.03068 0.0
C2801 C 0.74818 0.74784 0.03825 0.0
C2802 C 0.74465 0.74581 0.0077 0.0
C2803 C 0.75134 0.72934 0.03016 0.0
C2804 C 0.76243 0.74089 0.98375 0.0
C2805 C 0.72775 0.75185 0.96907 0.0
N2806 N 0.74993 0.72906 0.01526 0.0
N2807 N 0.72779 0.75081 0.98399 0.0
H2808 H 0.30692 0.06366 0.96162 0.0
H2809 H 0.26881 0.98731 0.03609 0.0
H2810 H 0.29065 0.9837 0.96301 0.0
H2811 H 0.33307 0.06699 0.03459 0.0
H2812 H 0.27004 0.9854 0.00917 0.0
H2813 H 0.31036 0.06555 0.98854 0.0
C2814 C 0.30415 0.04657 0.96761 0.0
C2815 C 0.29853 0.0235 0.96015 0.0
C2816 C 0.28395 0.00318 0.01479 0.0
C2817 C 0.30185 0.02538 0.99073 0.0
C2818 C 0.2832 0.00434 0.03008 0.0
C2819 C 0.3009 0.02733 0.03751 0.0
C2820 C 0.30197 0.02542 0.00692 0.0
C2821 C 0.31921 0.04885 0.02925 0.0
C2822 C 0.30623 0.0477 0.98289 0.0
C2823 C 0.29517 0.00189 0.96837 0.0
N2824 N 0.31903 0.04753 0.01434 0.0
N2825 N 0.29648 0.0032 0.98328 0.0
H2826 H 0.01454 0.78958 0.96279 0.0
H2827 H 0.01457 0.71646 0.03611 0.0
H2828 H 0.03301 0.72728 0.96241 0.0
H2829 H 0.03193 0.79688 0.03529 0.0
H2830 H 0.01534 0.71652 0.00919 0.0
H2831 H 0.01421 0.78859 0.98956 0.0
C2832 C 0.01836 0.77555 0.96831 0.0
C2833 C 0.02384 0.75849 0.96029 0.0
C2834 C 0.0191 0.73414 0.01496 0.0
C2835 C 0.02337 0.75725 0.99102 0.0
C2836 C 0.01863 0.73414 0.03031 0.0
C2837 C 0.02325 0.75673 0.03801 0.0
C2838 C 0.02368 0.75669 0.00727 0.0
C2839 C 0.02837 0.77905 0.02986 0.0
C2840 C 0.01832 0.77513 0.98361 0.0
C2841 C 0.02876 0.74084 0.96812 0.0
N2842 N 0.02822 0.77838 0.01496 0.0
N2843 N 0.02828 0.74057 0.98307 0.0
H2844 H 0.33509 0.29366 0.0352 0.0
H2845 H 0.30442 0.26465 0.96076 0.0
H2846 H 0.26682 0.30274 0.03396 0.0
H2847 H 0.2909 0.33014 0.96249 0.0
H2848 H 0.30831 0.2661 0.98763 0.0
H2849 H 0.33639 0.2948 0.00828 0.0
C2850 C 0.32054 0.29614 0.02927 0.0
C2851 C 0.30069 0.29792 0.03678 0.0
C2852 C 0.30479 0.2803 0.98207 0.0
C2853 C 0.3022 0.29934 0.00616 0.0
C2854 C 0.30239 0.27938 0.96681 0.0
C2855 C 0.29747 0.29739 0.95946 0.0
C2856 C 0.30161 0.29894 0.98999 0.0
C2857 C 0.29495 0.31608 0.96777 0.0
C2858 C 0.3212 0.29657 0.01396 0.0
C2859 C 0.28228 0.30105 0.02856 0.0
N2860 N 0.29664 0.31612 0.98266 0.0
N2861 N 0.28359 0.30185 0.01365 0.0
H2862 H 0.71574 0.98128 0.96327 0.0
H2863 H 0.7589 0.06619 0.03596 0.0
H2864 H 0.78015 0.06093 0.963 0.0
H2865 H 0.74201 0.98599 0.03625 0.0
H2866 H 0.7563 0.06461 0.00903 0.0
H2867 H 0.71475 0.98288 0.99021 0.0
C2868 C 0.72944 0.99918 0.96888 0.0
C2869 C 0.74813 0.02099 0.96097 0.0
C2870 C 0.753 0.04737 0.01505 0.0
C2871 C 0.74674 0.02301 0.99154 0.0
C2872 C 0.75432 0.04817 0.03036 0.0
C2873 C 0.75075 0.02619 0.03827 0.0
C2874 C 0.74733 0.02421 0.00771 0.0
C2875 C 0.74506 0.00338 0.0305 0.0
C2876 C 0.72894 -0.0 0.98419 0.0
C2877 C 0.76557 0.04366 0.96874 0.0
N2878 N 0.74334 0.0029 0.01561 0.0
N2879 N 0.76435 0.04417 0.98364 0.0
H2880 H 0.73334 0.66685 0.29583 0.0
H2881 H 0.73069 0.63665 0.37048 0.0
H2882 H 0.65603 0.59851 0.297 0.0
H2883 H 0.65174 0.62315 0.36823 0.0
H2884 H 0.73358 0.64048 0.34361 0.0
H2885 H 0.73323 0.6684 0.32275 0.0
C2886 C 0.71627 0.65233 0.30175 0.0
C2887 C 0.69473 0.63239 0.29423 0.0
C2888 C 0.71578 0.63699 0.34906 0.0
C2889 C 0.69449 0.6342 0.32483 0.0
C2890 C 0.71404 0.63463 0.36432 0.0
C2891 C 0.69098 0.62971 0.37152 0.0
C2892 C 0.69407 0.63376 0.34099 0.0
C2893 C 0.66993 0.6272 0.36307 0.0
C2894 C 0.71634 0.65313 0.31706 0.0
C2895 C 0.67312 0.61403 0.30242 0.0
N2896 N 0.67182 0.62883 0.34818 0.0
N2897 N 0.67346 0.61548 0.31732 0.0
H2898 H 0.42664 0.05039 0.36843 0.0
H2899 H 0.38495 0.09334 0.2956 0.0
H2900 H 0.41011 0.11393 0.36883 0.0
H2901 H 0.44921 0.07788 0.29573 0.0
H2902 H 0.38335 0.09035 0.32254 0.0
H2903 H 0.42426 0.04962 0.34149 0.0
C2904 C 0.42218 0.06393 0.36285 0.0
C2905 C 0.41868 0.08234 0.3708 0.0
C2906 C 0.39763 0.08746 0.3166 0.0
C2907 C 0.41549 0.08119 0.34022 0.0
C2908 C 0.39848 0.08901 0.30129 0.0
C2909 C 0.41732 0.08595 0.2935 0.0
C2910 C 0.41522 0.08205 0.32405 0.0
C2911 C 0.43453 0.08054 0.30138 0.0
C2912 C 0.42098 0.06355 0.34754 0.0
C2913 C 0.41312 0.09958 0.36306 0.0
N2914 N 0.43296 0.07857 0.31625 0.0
N2915 N 0.41152 0.09849 0.34816 0.0
H2916 H 0.99855 0.39915 0.36889 0.0
H2917 H 0.95499 0.31434 0.29616 0.0
H2918 H 0.93396 0.31959 0.3692 0.0
H2919 H 0.97238 0.3947 0.29596 0.0
H2920 H 0.95747 0.31579 0.3231 0.0
H2921 H 0.99945 0.39753 0.34195 0.0
C2922 C 0.9848 0.38126 0.36329 0.0
C2923 C 0.96608 0.35949 0.37121 0.0
C2924 C 0.96088 0.33308 0.31709 0.0
C2925 C 0.96736 0.35745 0.34064 0.0
C2926 C 0.95962 0.33235 0.30178 0.0
C2927 C 0.9634 0.35442 0.29389 0.0
C2928 C 0.96669 0.35626 0.32447 0.0
C2929 C 0.96917 0.37723 0.30169 0.0
C2930 C 0.98525 0.38044 0.34798 0.0
C2931 C 0.94857 0.33683 0.36345 0.0
N2932 N 0.97084 0.37764 0.31658 0.0
N2933 N 0.94973 0.33632 0.34855 0.0
H2934 H 0.73074 0.11479 0.37007 0.0
H2935 H 0.65313 0.07621 0.29607 0.0
H2936 H 0.65109 0.05045 0.3689 0.0
H2937 H 0.73303 0.09225 0.29687 0.0
H2938 H 0.65183 0.07302 0.32298 0.0
H2939 H 0.7323 0.11335 0.34314 0.0
C2940 C 0.71365 0.10033 0.36414 0.0
C2941 C 0.69076 0.08268 0.37166 0.0
C2942 C 0.66954 0.07705 0.3172 0.0
C2943 C 0.69226 0.08139 0.34107 0.0
C2944 C 0.67034 0.07898 0.30192 0.0
C2945 C 0.69321 0.08445 0.29431 0.0
C2946 C 0.692 0.08142 0.32488 0.0
C2947 C 0.71499 0.08784 0.30237 0.0
C2948 C 0.7146 0.09947 0.34884 0.0
C2949 C 0.66915 0.06428 0.36349 0.0
N2950 N 0.714 0.08667 0.31728 0.0
N2951 N 0.67027 0.06436 0.34858 0.0
H2952 H 0.93184 0.63813 0.36997 0.0
H2953 H 0.95903 0.66719 0.29524 0.0
H2954 H 0.99683 0.62389 0.36796 0.0
H2955 H 0.9686 0.59923 0.29666 0.0
H2956 H 0.96065 0.66895 0.32216 0.0
H2957 H 0.93283 0.64169 0.3431 0.0
C2958 C 0.94639 0.6359 0.36387 0.0
C2959 C 0.96437 0.63085 0.37115 0.0
C2960 C 0.9624 0.6537 0.31652 0.0
C2961 C 0.9654 0.63461 0.34057 0.0
C2962 C 0.96169 0.65278 0.30121 0.0
C2963 C 0.96347 0.63289 0.29374 0.0
C2964 C 0.96546 0.63493 0.32438 0.0
C2965 C 0.96687 0.6147 0.30202 0.0
C2966 C 0.94704 0.6381 0.3486 0.0
C2967 C 0.9828 0.62805 0.36274 0.0
N2968 N 0.96794 0.61626 0.31693 0.0
N2969 N 0.98258 0.62956 0.34784 0.0
H2970 H 0.4255 0.39865 0.36856 0.0
H2971 H 0.38422 0.31447 0.2956 0.0
H2972 H 0.40989 0.31887 0.36866 0.0
H2973 H 0.44716 0.39486 0.29563 0.0
H2974 H 0.38319 0.31563 0.32255 0.0
H2975 H 0.42319 0.39731 0.34163 0.0
C2976 C 0.42128 0.38077 0.36291 0.0
C2977 C 0.41797 0.35885 0.37078 0.0
C2978 C 0.39707 0.33299 0.31659 0.0
C2979 C 0.4149 0.35713 0.3402 0.0
C2980 C 0.3976 0.33242 0.30128 0.0
C2981 C 0.41588 0.35459 0.29344 0.0
C2982 C 0.41442 0.3561 0.32403 0.0
C2983 C 0.4329 0.37732 0.3013 0.0
C2984 C 0.42012 0.3801 0.34761 0.0
C2985 C 0.41273 0.33622 0.36296 0.0
N2986 N 0.43165 0.37757 0.3162 0.0
N2987 N 0.41116 0.33586 0.34805 0.0
H2988 H 0.3145 0.95442 0.70222 0.0
H2989 H 0.39939 0.99813 0.6295 0.0
H2990 H 0.39446 0.97059 0.70228 0.0
H2991 H 0.3193 0.93459 0.62905 0.0
H2992 H 0.39785 0.9986 0.65644 0.0
H2993 H 0.31604 0.95747 0.6753 0.0
C2994 C 0.33245 0.95891 0.69657 0.0
C2995 C 0.35437 0.96217 0.70441 0.0
C2996 C 0.38062 0.98472 0.65038 0.0
C2997 C 0.35632 0.9661 0.67386 0.0
C2998 C 0.38141 0.98452 0.63507 0.0
C2999 C 0.35945 0.96622 0.6271 0.0
C3000 C 0.35751 0.96702 0.65769 0.0
C3001 C 0.33668 0.94887 0.63483 0.0
C3002 C 0.33324 0.9605 0.68127 0.0
C3003 C 0.3771 0.96778 0.69659 0.0
N3004 N 0.33622 0.94981 0.64974 0.0
N3005 N 0.37757 0.96976 0.6817 0.0
H3006 H 0.09404 0.38479 0.70176 0.0
H3007 H 0.05188 0.42834 0.62938 0.0
H3008 H 0.07785 0.44855 0.70249 0.0
H3009 H 0.11599 0.41266 0.62894 0.0
H3010 H 0.0508 0.42538 0.65632 0.0
H3011 H 0.09172 0.38437 0.67481 0.0
C3012 C 0.08969 0.39846 0.69625 0.0
C3013 C 0.08621 0.41681 0.70429 0.0
C3014 C 0.06494 0.42244 0.65026 0.0
C3015 C 0.08311 0.41606 0.67372 0.0
C3016 C 0.0655 0.42398 0.63495 0.0
C3017 C 0.08413 0.42083 0.627 0.0
C3018 C 0.08262 0.41698 0.65755 0.0
C3019 C 0.10147 0.41538 0.63472 0.0
C3020 C 0.08852 0.39829 0.68094 0.0
C3021 C 0.0808 0.43424 0.69665 0.0
N3022 N 0.10018 0.41343 0.64961 0.0
N3023 N 0.07922 0.43333 0.68174 0.0
H3024 H 0.6657 0.73391 0.70211 0.0
H3025 H 0.6234 0.64935 0.62927 0.0
H3026 H 0.6023 0.65374 0.70226 0.0
H3027 H 0.63935 0.72925 0.62917 0.0
H3028 H 0.62607 0.65081 0.65619 0.0
H3029 H 0.66669 0.73252 0.67517 0.0
C3030 C 0.65223 0.71595 0.69647 0.0
C3031 C 0.63381 0.69392 0.70435 0.0
C3032 C 0.62914 0.66801 0.65021 0.0
C3033 C 0.6352 0.69215 0.67378 0.0
C3034 C 0.62777 0.66727 0.63491 0.0
C3035 C 0.63107 0.6892 0.62705 0.0
C3036 C 0.63456 0.69105 0.65761 0.0
C3037 C 0.63651 0.71189 0.63487 0.0
C3038 C 0.65273 0.71525 0.68116 0.0
C3039 C 0.61666 0.67118 0.69654 0.0
N3040 N 0.63828 0.71231 0.64976 0.0
N3041 N 0.61787 0.6708 0.68165 0.0
H3042 H 0.39799 0.45028 0.70231 0.0
H3043 H 0.31965 0.41138 0.62839 0.0
H3044 H 0.31792 0.38673 0.70145 0.0
H3045 H 0.39935 0.42683 0.62929 0.0
H3046 H 0.31846 0.40876 0.65533 0.0
H3047 H 0.39915 0.4487 0.67537 0.0
C3048 C 0.38071 0.43598 0.69644 0.0
C3049 C 0.35784 0.41856 0.70405 0.0
C3050 C 0.3361 0.41255 0.64957 0.0
C3051 C 0.35889 0.41711 0.67345 0.0
C3052 C 0.33684 0.41415 0.63427 0.0
C3053 C 0.35962 0.41927 0.62667 0.0
C3054 C 0.35854 0.4169 0.65727 0.0
C3055 C 0.38137 0.42267 0.63476 0.0
C3056 C 0.38144 0.43503 0.68115 0.0
C3057 C 0.33598 0.40037 0.69597 0.0
N3058 N 0.38044 0.42181 0.64968 0.0
N3059 N 0.3369 0.40035 0.68105 0.0
H3060 H 0.59956 0.97199 0.70326 0.0
H3061 H 0.63744 0.93256 0.62911 0.0
H3062 H 0.66358 0.95622 0.70203 0.0
H3063 H 0.62174 0.99664 0.63013 0.0
H3064 H 0.64076 0.93435 0.65603 0.0
H3065 H 0.60083 0.9748 0.67633 0.0
C3066 C 0.61391 0.96921 0.69731 0.0
C3067 C 0.63153 0.96391 0.70481 0.0
C3068 C 0.63677 0.94809 0.6503 0.0
C3069 C 0.63263 0.96649 0.67422 0.0
C3070 C 0.63476 0.94701 0.63502 0.0
C3071 C 0.62935 0.9645 0.62746 0.0
C3072 C 0.63253 0.96622 0.65803 0.0
C3073 C 0.6261 0.98293 0.63558 0.0
C3074 C 0.61468 0.97092 0.68202 0.0
C3075 C 0.64979 0.9605 0.69663 0.0
N3076 N 0.62734 0.98306 0.65049 0.0
N3077 N 0.64962 0.96145 0.68171 0.0
H3078 H 0.09036 0.73247 0.7031 0.0
H3079 H 0.04931 0.64956 0.62957 0.0
H3080 H 0.07446 0.6526 0.7026 0.0
H3081 H 0.11241 0.72986 0.63002 0.0
H3082 H 0.0479 0.65034 0.65652 0.0
H3083 H 0.08805 0.73167 0.67615 0.0
C3084 C 0.08606 0.71469 0.69733 0.0
C3085 C 0.08268 0.69258 0.70503 0.0
C3086 C 0.06188 0.66778 0.65066 0.0
C3087 C 0.0796 0.69147 0.67442 0.0
C3088 C 0.06262 0.66743 0.63534 0.0
C3089 C 0.08108 0.68966 0.62761 0.0
C3090 C 0.0792 0.69074 0.65823 0.0
C3091 C 0.09801 0.71227 0.6356 0.0
C3092 C 0.0849 0.71432 0.68201 0.0
C3093 C 0.07734 0.67009 0.69703 0.0
N3094 N 0.09657 0.7123 0.65051 0.0
N3095 N 0.07578 0.67003 0.68213 0.0
H3096 H 0.8502 0.08572 0.072 0.0
H3097 H 0.92235 0.24069 0.08523 0.0
H3098 H 0.80929 0.12588 0.0857 0.0
H3099 H 0.96151 0.19852 0.07207 0.0
H3100 H 0.8805 0.19945 0.08472 0.0
H3101 H 0.89083 0.12748 0.07122 0.0
C3102 C 0.84969 0.10331 0.07484 0.0
C3103 C 0.8262 0.10217 0.079 0.0
C3104 C 0.89828 0.1993 0.08192 0.0
C3105 C 0.87299 0.15034 0.07812 0.0
C3106 C 0.92219 0.22283 0.08221 0.0
C3107 C 0.94559 0.22313 0.07876 0.0
C3108 C 0.89775 0.17592 0.07816 0.0
C3109 C 0.9441 0.19935 0.07488 0.0
C3110 C 0.87299 0.12723 0.07438 0.0
C3111 C 0.82691 0.12576 0.08247 0.0
N3112 N 0.92065 0.17678 0.07472 0.0
N3113 N 0.84996 0.14889 0.082 0.0
H3114 H 0.92244 0.70673 0.08437 0.0
H3115 H 0.84822 0.78778 0.07186 0.0
H3116 H 0.96055 0.78966 0.07499 0.0
H3117 H 0.80784 0.70659 0.08537 0.0
H3118 H 0.88911 0.78728 0.07144 0.0
H3119 H 0.87991 0.70488 0.08343 0.0
C3120 C 0.92192 0.7245 0.08209 0.0
C3121 C 0.9452 0.7484 0.07982 0.0
C3122 C 0.87135 0.76952 0.07449 0.0
C3123 C 0.8967 0.74637 0.07868 0.0
C3124 C 0.84788 0.76977 0.07473 0.0
C3125 C 0.82446 0.74723 0.07877 0.0
C3126 C 0.87163 0.74657 0.07831 0.0
C3127 C 0.82542 0.72447 0.08225 0.0
C3128 C 0.89765 0.72342 0.08157 0.0
C3129 C 0.94326 0.77078 0.07689 0.0
N3130 N 0.84866 0.72474 0.08199 0.0
N3131 N 0.91952 0.76918 0.07642 0.0
H3132 H 0.3446 0.12838 0.0846 0.0
H3133 H 0.26103 0.19966 0.07113 0.0
H3134 H 0.2631 0.08871 0.07173 0.0
H3135 H 0.34211 0.24111 0.08482 0.0
H3136 H 0.26243 0.15918 0.07049 0.0
H3137 H 0.34501 0.17013 0.08392 0.0
C3138 C 0.32683 0.12841 0.0816 0.0
C3139 C 0.30374 0.1049 0.07829 0.0
C3140 C 0.27996 0.1771 0.07363 0.0
C3141 C 0.30413 0.15261 0.07751 0.0
C3142 C 0.27919 0.20032 0.074 0.0
C3143 C 0.30147 0.22393 0.07812 0.0
C3144 C 0.30316 0.1773 0.07739 0.0
C3145 C 0.32443 0.2234 0.08163 0.0
C3146 C 0.32709 0.15226 0.08122 0.0
C3147 C 0.28134 0.10622 0.07444 0.0
N3148 N 0.32466 0.20043 0.08123 0.0
N3149 N 0.28211 0.12961 0.07419 0.0
H3150 H 0.24016 0.92259 0.91359 0.0
H3151 H 0.08457 0.85416 0.92217 0.0
H3152 H 0.19858 0.96326 0.92486 0.0
H3153 H 0.12404 0.81014 0.91436 0.0
H3154 H 0.1267 0.89417 0.92302 0.0
H3155 H 0.19844 0.88113 0.9138 0.0
C3156 C 0.22234 0.92285 0.91614 0.0
C3157 C 0.22295 0.94656 0.91912 0.0
C3158 C 0.12625 0.87581 0.92114 0.0
C3159 C 0.17521 0.89922 0.91935 0.0
C3160 C 0.1021 0.85283 0.92063 0.0
C3161 C 0.10064 0.82862 0.91814 0.0
C3162 C 0.14934 0.87479 0.91912 0.0
C3163 C 0.12418 0.82834 0.91628 0.0
C3164 C 0.19854 0.89917 0.91626 0.0
C3165 C 0.1992 0.94561 0.9224 0.0
N3166 N 0.14759 0.85112 0.91677 0.0
N3167 N 0.17639 0.9224 0.92237 0.0
H3168 H 0.24037 0.34129 0.91258 0.0
H3169 H 0.08543 0.25798 0.92578 0.0
H3170 H 0.1982 0.25935 0.92454 0.0
H3171 H 0.12547 0.33921 0.91237 0.0
H3172 H 0.1272 0.25909 0.92629 0.0
H3173 H 0.19911 0.3418 0.91334 0.0
C3174 C 0.22251 0.32343 0.91539 0.0
C3175 C 0.22282 0.3002 0.91843 0.0
C3176 C 0.12691 0.27671 0.92325 0.0
C3177 C 0.17557 0.30071 0.91932 0.0
C3178 C 0.103 0.27611 0.92295 0.0
C3179 C 0.10182 0.29851 0.91894 0.0
C3180 C 0.14999 0.29988 0.91952 0.0
C3181 C 0.12538 0.32143 0.91548 0.0
C3182 C 0.19896 0.32375 0.91581 0.0
C3183 C 0.19902 0.2777 0.92204 0.0
N3184 N 0.1485 0.32151 0.91581 0.0
N3185 N 0.17643 0.27854 0.92236 0.0
H3186 H 0.78653 0.84805 0.92677 0.0
H3187 H 0.70495 0.92148 0.91363 0.0
H3188 H 0.70502 0.8077 0.9139 0.0
H3189 H 0.78649 0.9602 0.92637 0.0
H3190 H 0.70383 0.87942 0.91436 0.0
H3191 H 0.78605 0.88904 0.92738 0.0
C3192 C 0.76847 0.84774 0.92408 0.0
C3193 C 0.7458 0.8243 0.92019 0.0
C3194 C 0.72193 0.89715 0.91702 0.0
C3195 C 0.74516 0.87148 0.92088 0.0
C3196 C 0.7226 0.92119 0.9166 0.0
C3197 C 0.7459 0.94452 0.91986 0.0
C3198 C 0.7447 0.89642 0.92072 0.0
C3199 C 0.7681 0.94283 0.92369 0.0
C3200 C 0.76822 0.87124 0.92444 0.0
C3201 C 0.72299 0.82527 0.91691 0.0
N3202 N 0.76694 0.91925 0.92397 0.0
N3203 N 0.72328 0.84849 0.91728 0.0
H3204 H 0.51697 0.41784 0.40517 0.0
H3205 H 0.58915 0.57293 0.41797 0.0
H3206 H 0.47599 0.45829 0.41821 0.0
H3207 H 0.62863 0.53035 0.40628 0.0
H3208 H 0.54726 0.53177 0.41719 0.0
H3209 H 0.55772 0.45952 0.40459 0.0
C3210 C 0.51647 0.43548 0.40791 0.0
C3211 C 0.49293 0.43444 0.41183 0.0
C3212 C 0.56512 0.53151 0.41478 0.0
C3213 C 0.53984 0.48251 0.41117 0.0
C3214 C 0.58906 0.555 0.41521 0.0
C3215 C 0.61255 0.55516 0.41227 0.0
C3216 C 0.56465 0.50804 0.41135 0.0
C3217 C 0.61113 0.53128 0.40871 0.0
C3218 C 0.53984 0.45935 0.40757 0.0
C3219 C 0.49366 0.45809 0.41517 0.0
N3220 N 0.58765 0.50876 0.40839 0.0
N3221 N 0.51676 0.48116 0.41481 0.0
H3222 H 0.58988 0.03911 0.41848 0.0
H3223 H 0.51791 0.12199 0.40492 0.0
H3224 H 0.62934 0.12072 0.40583 0.0
H3225 H 0.47683 0.04079 0.41841 0.0
H3226 H 0.55857 0.12091 0.40434 0.0
H3227 H 0.54803 0.03845 0.41766 0.0
C3228 C 0.58979 0.05686 0.4155 0.0
C3229 C 0.61327 0.08005 0.4123 0.0
C3230 C 0.54069 0.10329 0.40741 0.0
C3231 C 0.56542 0.07937 0.41134 0.0
C3232 C 0.51737 0.10387 0.40776 0.0
C3233 C 0.49382 0.08147 0.41181 0.0
C3234 C 0.54064 0.08015 0.41115 0.0
C3235 C 0.4945 0.05857 0.41527 0.0
C3236 C 0.56588 0.05645 0.41504 0.0
C3237 C 0.61186 0.1024 0.40846 0.0
N3238 N 0.51756 0.05852 0.41491 0.0
N3239 N 0.5884 0.10149 0.40813 0.0
H3240 H 0.00876 0.4593 0.41845 0.0
H3241 H 0.92622 0.53171 0.40528 0.0
H3242 H 0.92731 0.4202 0.40551 0.0
H3243 H 0.00769 0.57268 0.41823 0.0
H3244 H 0.92715 0.49098 0.40461 0.0
H3245 H 0.00958 0.50123 0.41773 0.0
C3246 C 0.99108 0.45948 0.41543 0.0
C3247 C 0.96789 0.43608 0.41212 0.0
C3248 C 0.94487 0.50885 0.40758 0.0
C3249 C 0.96874 0.48402 0.41127 0.0
C3250 C 0.94437 0.53221 0.40798 0.0
C3251 C 0.96689 0.55575 0.4119 0.0
C3252 C 0.96804 0.50884 0.41115 0.0
C3253 C 0.98982 0.55502 0.41519 0.0
C3254 C 0.99158 0.48345 0.41503 0.0
C3255 C 0.94562 0.43762 0.40823 0.0
N3256 N 0.98979 0.53192 0.41478 0.0
N3257 N 0.94662 0.46111 0.40796 0.0
H3258 H 0.79226 0.1414 0.24702 0.0
H3259 H 0.86436 0.29687 0.25823 0.0
H3260 H 0.75256 0.18403 0.2581 0.0
H3261 H 0.90531 0.25575 0.24653 0.0
H3262 H 0.82344 0.25528 0.25878 0.0
H3263 H 0.83401 0.18265 0.24736 0.0
C3264 C 0.79227 0.15937 0.24954 0.0
C3265 C 0.76876 0.15918 0.25247 0.0
C3266 C 0.84135 0.2553 0.2561 0.0
C3267 C 0.81653 0.20645 0.25288 0.0
C3268 C 0.86481 0.27911 0.25577 0.0
C3269 C 0.88841 0.27992 0.25225 0.0
C3270 C 0.84134 0.23199 0.2529 0.0
C3271 C 0.88762 0.25613 0.24925 0.0
C3272 C 0.81614 0.18292 0.24973 0.0
C3273 C 0.77008 0.18312 0.25571 0.0
N3274 N 0.86445 0.23314 0.24961 0.0
N3275 N 0.79351 0.20573 0.2558 0.0
H3276 H 0.86491 0.59103 0.25851 0.0
H3277 H 0.79239 0.67367 0.24607 0.0
H3278 H 0.90562 0.67245 0.24546 0.0
H3279 H 0.75324 0.59203 0.25863 0.0
H3280 H 0.83422 0.6743 0.24634 0.0
H3281 H 0.82408 0.59179 0.25913 0.0
C3282 C 0.86533 0.60912 0.25577 0.0
C3283 C 0.88884 0.6317 0.25186 0.0
C3284 C 0.81645 0.65629 0.24905 0.0
C3285 C 0.84183 0.63266 0.25257 0.0
C3286 C 0.79254 0.6559 0.2489 0.0
C3287 C 0.76916 0.63272 0.25227 0.0
C3288 C 0.81701 0.63337 0.25259 0.0
C3289 C 0.77066 0.61034 0.2559 0.0
C3290 C 0.84191 0.60953 0.25614 0.0
C3291 C 0.888 0.65455 0.24849 0.0
N3292 N 0.79412 0.61124 0.25593 0.0
N3293 N 0.86485 0.65443 0.2489 0.0
H3294 H 0.45779 0.29804 0.2577 0.0
H3295 H 0.37612 0.14273 0.24568 0.0
H3296 H 0.37593 0.25638 0.24556 0.0
H3297 H 0.45803 0.18589 0.25764 0.0
H3298 H 0.3751 0.18371 0.24603 0.0
H3299 H 0.4576 0.25671 0.25817 0.0
C3300 C 0.43973 0.28022 0.25513 0.0
C3301 C 0.41685 0.2808 0.25152 0.0
C3302 C 0.39326 0.18416 0.24859 0.0
C3303 C 0.41655 0.23315 0.25206 0.0
C3304 C 0.39388 0.16077 0.24839 0.0
C3305 C 0.41724 0.1608 0.25157 0.0
C3306 C 0.41614 0.20776 0.252 0.0
C3307 C 0.43959 0.18481 0.25505 0.0
C3308 C 0.43965 0.25655 0.25541 0.0
C3309 C 0.39406 0.25693 0.24836 0.0
N3310 N 0.43847 0.20726 0.25514 0.0
N3311 N 0.3945 0.23408 0.24868 0.0
H3312 H 0.29498 0.86252 0.73849 0.0
H3313 H 0.14042 0.79091 0.75309 0.0
H3314 H 0.25526 0.90375 0.75243 0.0
H3315 H 0.18192 0.75132 0.73945 0.0
H3316 H 0.18172 0.83265 0.75227 0.0
H3317 H 0.25316 0.82188 0.73812 0.0
C3318 C 0.27748 0.8631 0.74147 0.0
C3319 C 0.27876 0.88668 0.74558 0.0
C3320 C 0.18172 0.8148 0.74944 0.0
C3321 C 0.23054 0.83991 0.74517 0.0
C3322 C 0.15814 0.79094 0.7499 0.0
C3323 C 0.15763 0.76747 0.7464 0.0
C3324 C 0.20494 0.81518 0.74544 0.0
C3325 C 0.18126 0.76881 0.74231 0.0
C3326 C 0.25353 0.8398 0.74124 0.0
C3327 C 0.25527 0.88606 0.74923 0.0
N3328 N 0.20388 0.7922 0.74198 0.0
N3329 N 0.23213 0.86302 0.74898 0.0
H3330 H 0.29863 0.4583 0.73937 0.0
H3331 H 0.14336 0.37425 0.75119 0.0
H3332 H 0.25805 0.37622 0.75106 0.0
H3333 H 0.18543 0.45643 0.73973 0.0
H3334 H 0.1847 0.37395 0.75057 0.0
H3335 H 0.25687 0.45728 0.73884 0.0
C3336 C 0.28095 0.44001 0.74182 0.0
C3337 C 0.28196 0.41733 0.74534 0.0
C3338 C 0.18483 0.39201 0.74817 0.0
C3339 C 0.23384 0.41606 0.74473 0.0
C3340 C 0.16122 0.39222 0.74852 0.0
C3341 C 0.16085 0.41544 0.74558 0.0
C3342 C 0.20823 0.41517 0.74485 0.0
C3343 C 0.18467 0.43807 0.74215 0.0
C3344 C 0.25705 0.43946 0.7415 0.0
C3345 C 0.25828 0.39422 0.74834 0.0
N3346 N 0.20732 0.43735 0.74191 0.0
N3347 N 0.23519 0.3942 0.748 0.0
H3348 H 0.59289 0.75238 0.73893 0.0
H3349 H 0.6755 0.90745 0.75181 0.0
H3350 H 0.67438 0.79302 0.75185 0.0
H3351 H 0.59364 0.86485 0.73969 0.0
H3352 H 0.6763 0.86634 0.7511 0.0
H3353 H 0.59371 0.794 0.73838 0.0
C3354 C 0.61101 0.77005 0.74165 0.0
C3355 C 0.63358 0.76908 0.74552 0.0
C3356 C 0.65821 0.86606 0.74858 0.0
C3357 C 0.6346 0.81708 0.7449 0.0
C3358 C 0.65772 0.88952 0.74897 0.0
C3359 C 0.63443 0.88967 0.74588 0.0
C3360 C 0.63527 0.84258 0.74505 0.0
C3361 C 0.61204 0.86579 0.74223 0.0
C3362 C 0.61145 0.79388 0.74132 0.0
C3363 C 0.65648 0.79276 0.74885 0.0
N3364 N 0.61303 0.84329 0.74196 0.0
N3365 N 0.65638 0.8158 0.74849 0.0
H3366 H 0.53167 0.63051 0.59238 0.0
H3367 H 0.45956 0.47544 0.57956 0.0
H3368 H 0.57267 0.58997 0.57959 0.0
H3369 H 0.42001 0.51785 0.59146 0.0
H3370 H 0.5014 0.51663 0.58027 0.0
H3371 H 0.49087 0.58885 0.59287 0.0
C3372 C 0.53216 0.61286 0.58968 0.0
C3373 C 0.55573 0.61386 0.58586 0.0
C3374 C 0.48354 0.51685 0.58275 0.0
C3375 C 0.50878 0.56583 0.58641 0.0
C3376 C 0.45963 0.49334 0.58235 0.0
C3377 C 0.43613 0.49311 0.58538 0.0
C3378 C 0.48397 0.5403 0.58622 0.0
C3379 C 0.43751 0.51696 0.58896 0.0
C3380 C 0.50877 0.58901 0.58997 0.0
C3381 C 0.555 0.5902 0.58255 0.0
N3382 N 0.46097 0.53952 0.58925 0.0
N3383 N 0.53188 0.56715 0.58286 0.0
H3384 H 0.41743 0.92516 0.59181 0.0
H3385 H 0.57285 0.00794 0.58032 0.0
H3386 H 0.45871 0.0072 0.58002 0.0
H3387 H 0.53 0.92585 0.59194 0.0
H3388 H 0.53173 0.00871 0.58076 0.0
H3389 H 0.45896 0.92576 0.59248 0.0
C3390 C 0.43522 0.94335 0.58936 0.0
C3391 C 0.43447 0.96615 0.58578 0.0
C3392 C 0.53139 0.99056 0.58323 0.0
C3393 C 0.48235 0.96693 0.58655 0.0
C3394 C 0.55486 0.99009 0.58299 0.0
C3395 C 0.55495 0.96675 0.58602 0.0
C3396 C 0.50783 0.96755 0.58654 0.0
C3397 C 0.53099 0.94429 0.58945 0.0
C3398 C 0.459 0.94367 0.58976 0.0
C3399 C 0.45829 0.98912 0.58279 0.0
N3400 N 0.50847 0.94526 0.58958 0.0
N3401 N 0.48125 0.9889 0.58321 0.0
H3402 H 0.1229 0.63231 0.593 0.0
H3403 H 0.0413 0.47739 0.5794 0.0
H3404 H 0.04176 0.59148 0.57943 0.0
H3405 H 0.12284 0.52013 0.59215 0.0
H3406 H 0.04029 0.5184 0.58006 0.0
H3407 H 0.12238 0.59082 0.59345 0.0
C3408 C 0.10492 0.61463 0.59012 0.0
C3409 C 0.08236 0.61551 0.58609 0.0
C3410 C 0.05836 0.51874 0.58273 0.0
C3411 C 0.08167 0.56766 0.58661 0.0
C3412 C 0.05897 0.49533 0.58236 0.0
C3413 C 0.08223 0.49525 0.58566 0.0
C3414 C 0.08116 0.54222 0.58643 0.0
C3415 C 0.10447 0.51914 0.58945 0.0
C3416 C 0.10465 0.59087 0.59039 0.0
C3417 C 0.05964 0.59181 0.58255 0.0
N3418 N 0.10337 0.54159 0.5897 0.0
N3419 N 0.0599 0.56885 0.58286 0.0
loop_
_geom_bond_atom_site_label_1
_geom_bond_atom_site_label_2
_geom_bond_distance
_geom_bond_site_symmetry_2
_ccdc_geom_bond_type
Co0 O2 2.143 . S
Co0 O8 2.074 1_455 S
Co0 O11 2.093 . S
Co0 O24 2.097 . S
Co0 N41 2.151 . S
Co0 N49 2.214 . S
Co1 O2 2.160 . S
Co1 O7 2.058 1_455 S
Co1 O17 2.057 . S
Co1 O32 2.037 . S
Co1 N36 2.145 1_455 S
Co1 N57 2.257 . S
O2 Co0 2.143 . S
O2 Co1 2.160 . S
C3 O4 1.278 . S
C3 O11 1.224 . S
O4 C3 1.278 . S
C5 O6 1.245 . S
C5 O17 1.232 . S
O6 C5 1.245 . S
O7 Co1 2.058 1_655 S
O7 C33 1.269 . S
O8 Co0 2.074 1_655 S
O8 C33 1.257 . S
H9 C34 0.930 . S
H10 C40 0.930 . S
O11 Co0 2.093 . S
O11 C3 1.224 . S
H12 C44 0.929 1_655 S
H13 C46 0.930 . S
H14 C47 0.930 . S
H15 C45 0.929 1_655 S
H16 C48 0.928 . S
O17 Co1 2.057 . S
O17 C5 1.232 . S
H18 C37 0.929 . S
H19 C38 0.929 . S
H20 C50 0.931 1_655 S
H21 C42 0.929 . S
H22 C51 0.930 . S
H23 C43 0.931 . S
O24 Co0 2.097 . S
O24 C52 1.214 . S
H25 C53 0.929 . S
H26 C54 0.929 . S
H27 C55 0.930 . S
H28 C56 0.929 . S
H29 C58 0.930 . S
H30 C35 0.930 . S
H31 C39 0.930 . S
O32 Co1 2.037 . S
O32 C52 1.234 . S
C33 O7 1.269 . S
C33 O8 1.257 . S
C34 H9 0.930 . S
C34 C37 1.388 . S
C34 C39 1.418 . S
C35 H30 0.930 . S
C35 C38 1.404 . S
C35 C39 1.353 . S
N36 Co1 2.145 1_655 S
N36 C37 1.397 . S
N36 C38 1.334 . S
C37 H18 0.929 . S
C37 C34 1.388 . S
C37 N36 1.397 . S
C38 H19 0.929 . S
C38 C35 1.404 . S
C38 N36 1.334 . S
C39 H31 0.930 . S
C39 C34 1.418 . S
C39 C35 1.353 . S
C40 H10 0.930 . S
C40 N41 1.330 . S
C40 C42 1.446 . S
N41 Co0 2.151 . S
N41 C40 1.330 . S
N41 C45 1.418 . S
C42 H21 0.929 . S
C42 C40 1.446 . S
C42 C43 1.332 . S
C43 H23 0.931 . S
C43 C42 1.332 . S
C43 C44 1.267 . S
C44 H12 0.929 1_455 S
C44 C43 1.267 . S
C44 C45 1.251 . S
C45 H15 0.929 1_455 S
C45 N41 1.418 . S
C45 C44 1.251 . S
C46 H13 0.930 . S
C46 C48 1.406 . S
C46 C51 1.261 . S
C47 H14 0.930 . S
C47 N49 1.325 . S
C47 C50 1.357 . S
C48 H16 0.928 . S
C48 C46 1.406 . S
C48 N49 1.261 . S
N49 Co0 2.214 . S
N49 C47 1.325 . S
N49 C48 1.261 . S
C50 H20 0.931 1_455 S
C50 C47 1.357 . S
C50 C51 1.312 . S
C51 H22 0.930 . S
C51 C46 1.261 . S
C51 C50 1.312 . S
C52 O24 1.214 . S
C52 O32 1.234 . S
C53 H25 0.929 . S
C53 C56 1.391 . S
C53 C58 1.391 . S
C54 H26 0.929 . S
C54 C55 1.390 . S
C54 N57 1.391 . S
C55 H27 0.930 . S
C55 C54 1.390 . S
C55 C56 1.392 . S
C56 H28 0.929 . S
C56 C53 1.391 . S
C56 C55 1.392 . S
N57 Co1 2.257 . S
N57 C54 1.391 . S
N57 C58 1.388 . S
C58 H29 0.930 . S
C58 C53 1.391 . S
C58 N57 1.388 . S
Co59 O61 2.143 . S
Co59 O67 2.074 . S
Co59 O70 2.093 . S
Co59 O83 2.097 . S
Co59 N100 2.151 . S
Co59 N108 2.214 . S
Co60 O61 2.160 . S
Co60 O66 2.058 . S
Co60 O76 2.057 . S
Co60 O91 2.037 . S
Co60 N95 2.145 . S
Co60 N116 2.257 . S
O61 Co59 2.143 . S
O61 Co60 2.160 . S
C62 O63 1.278 . S
C62 O70 1.224 . S
O63 C62 1.278 . S
C64 O65 1.245 . S
C64 O76 1.232 . S
O65 C64 1.245 . S
O66 Co60 2.058 . S
O66 C92 1.269 . S
O67 Co59 2.074 . S
O67 C92 1.257 . S
H68 C93 0.930 . S
H69 C99 0.930 . S
O70 Co59 2.093 . S
O70 C62 1.224 . S
H71 C103 0.929 . S
H72 C105 0.930 . S
H73 C106 0.930 . S
H74 C104 0.929 . S
H75 C107 0.928 . S
O76 Co60 2.057 . S
O76 C64 1.232 . S
H77 C96 0.929 . S
H78 C97 0.929 . S
H79 C109 0.931 . S
H80 C101 0.929 . S
H81 C110 0.930 . S
H82 C102 0.931 . S
O83 Co59 2.097 . S
O83 C111 1.214 . S
H84 C112 0.929 . S
H85 C113 0.929 . S
H86 C114 0.930 . S
H87 C115 0.929 . S
H88 C117 0.930 . S
H89 C94 0.930 . S
H90 C98 0.930 . S
O91 Co60 2.037 . S
O91 C111 1.234 . S
C92 O66 1.269 . S
C92 O67 1.257 . S
C93 H68 0.930 . S
C93 C96 1.388 . S
C93 C98 1.418 . S
C94 H89 0.930 . S
C94 C97 1.404 . S
C94 C98 1.353 . S
N95 Co60 2.145 . S
N95 C96 1.397 . S
N95 C97 1.334 . S
C96 H77 0.929 . S
C96 C93 1.388 . S
C96 N95 1.397 . S
C97 H78 0.929 . S
C97 C94 1.404 . S
C97 N95 1.334 . S
C98 H90 0.930 . S
C98 C93 1.418 . S
C98 C94 1.353 . S
C99 H69 0.930 . S
C99 N100 1.330 . S
C99 C101 1.446 . S
N100 Co59 2.151 . S
N100 C99 1.330 . S
N100 C104 1.418 . S
C101 H80 0.929 . S
C101 C99 1.446 . S
C101 C102 1.332 . S
C102 H82 0.931 . S
C102 C101 1.332 . S
C102 C103 1.267 . S
C103 H71 0.929 . S
C103 C102 1.267 . S
C103 C104 1.251 . S
C104 H74 0.929 . S
C104 N100 1.418 . S
C104 C103 1.251 . S
C105 H72 0.930 . S
C105 C107 1.406 . S
C105 C110 1.261 . S
C106 H73 0.930 . S
C106 N108 1.325 . S
C106 C109 1.357 . S
C107 H75 0.928 . S
C107 C105 1.406 . S
C107 N108 1.261 . S
N108 Co59 2.214 . S
N108 C106 1.325 . S
N108 C107 1.261 . S
C109 H79 0.931 . S
C109 C106 1.357 . S
C109 C110 1.312 . S
C110 H81 0.930 . S
C110 C105 1.261 . S
C110 C109 1.312 . S
C111 O83 1.214 . S
C111 O91 1.234 . S
C112 H84 0.929 . S
C112 C115 1.391 . S
C112 C117 1.391 . S
C113 H85 0.929 . S
C113 C114 1.390 . S
C113 N116 1.391 . S
C114 H86 0.930 . S
C114 C113 1.390 . S
C114 C115 1.392 . S
C115 H87 0.929 . S
C115 C112 1.391 . S
C115 C114 1.392 . S
N116 Co60 2.257 . S
N116 C113 1.391 . S
N116 C117 1.388 . S
C117 H88 0.930 . S
C117 C112 1.391 . S
C117 N116 1.388 . S
Co118 O120 2.143 . S
Co118 O126 2.074 . S
Co118 O129 2.093 1_545 S
Co118 O142 2.097 . S
Co118 N159 2.151 . S
Co118 N167 2.214 . S
Co119 O120 2.160 . S
Co119 O125 2.058 . S
Co119 O135 2.057 . S
Co119 O150 2.037 . S
Co119 N154 2.145 . S
Co119 N175 2.257 . S
O120 Co118 2.143 . S
O120 Co119 2.160 . S
C121 O122 1.278 . S
C121 O129 1.224 . S
O122 C121 1.278 . S
C123 O124 1.245 . S
C123 O135 1.232 . S
O124 C123 1.245 . S
O125 Co119 2.058 . S
O125 C151 1.269 . S
O126 Co118 2.074 . S
O126 C151 1.257 . S
H127 C152 0.930 . S
H128 C158 0.930 1_565 S
O129 Co118 2.093 1_565 S
O129 C121 1.224 . S
H130 C162 0.929 . S
H131 C164 0.930 . S
H132 C165 0.930 . S
H133 C163 0.929 . S
H134 C166 0.928 1_565 S
O135 Co119 2.057 . S
O135 C123 1.232 . S
H136 C155 0.929 . S
H137 C156 0.929 . S
H138 C168 0.931 . S
H139 C160 0.929 1_565 S
H140 C169 0.930 . S
H141 C161 0.931 . S
O142 Co118 2.097 . S
O142 C170 1.214 . S
H143 C171 0.929 . S
H144 C172 0.929 . S
H145 C173 0.930 . S
H146 C174 0.929 . S
H147 C176 0.930 . S
H148 C153 0.930 . S
H149 C157 0.930 . S
O150 Co119 2.037 . S
O150 C170 1.234 . S
C151 O125 1.269 . S
C151 O126 1.257 . S
C152 H127 0.930 . S
C152 C155 1.388 . S
C152 C157 1.418 . S
C153 H148 0.930 . S
C153 C156 1.404 . S
C153 C157 1.353 . S
N154 Co119 2.145 . S
N154 C155 1.397 . S
N154 C156 1.334 . S
C155 H136 0.929 . S
C155 C152 1.388 . S
C155 N154 1.397 . S
C156 H137 0.929 . S
C156 C153 1.404 . S
C156 N154 1.334 . S
C157 H149 0.930 . S
C157 C152 1.418 . S
C157 C153 1.353 . S
C158 H128 0.930 1_545 S
C158 N159 1.330 . S
C158 C160 1.446 . S
N159 Co118 2.151 . S
N159 C158 1.330 . S
N159 C163 1.418 . S
C160 H139 0.929 1_545 S
C160 C158 1.446 . S
C160 C161 1.332 . S
C161 H141 0.931 . S
C161 C160 1.332 . S
C161 C162 1.267 . S
C162 H130 0.929 . S
C162 C161 1.267 . S
C162 C163 1.251 . S
C163 H133 0.929 . S
C163 N159 1.418 . S
C163 C162 1.251 . S
C164 H131 0.930 . S
C164 C166 1.406 . S
C164 C169 1.261 . S
C165 H132 0.930 . S
C165 N167 1.325 . S
C165 C168 1.357 . S
C166 H134 0.928 1_545 S
C166 C164 1.406 . S
C166 N167 1.261 . S
N167 Co118 2.214 . S
N167 C165 1.325 . S
N167 C166 1.261 . S
C168 H138 0.931 . S
C168 C165 1.357 . S
C168 C169 1.312 . S
C169 H140 0.930 . S
C169 C164 1.261 . S
C169 C168 1.312 . S
C170 O142 1.214 . S
C170 O150 1.234 . S
C171 H143 0.929 . S
C171 C174 1.391 . S
C171 C176 1.391 . S
C172 H144 0.929 . S
C172 C173 1.390 1_545 S
C172 N175 1.391 . S
C173 H145 0.930 . S
C173 C172 1.390 1_565 S
C173 C174 1.392 . S
C174 H146 0.929 . S
C174 C171 1.391 . S
C174 C173 1.392 . S
N175 Co119 2.257 . S
N175 C172 1.391 . S
N175 C176 1.388 1_545 S
C176 H147 0.930 . S
C176 C171 1.391 . S
C176 N175 1.388 1_565 S
Co177 O179 2.143 . S
Co177 O185 2.074 1_545 S
Co177 O188 2.093 . S
Co177 O201 2.097 . S
Co177 N218 2.151 . S
Co177 N226 2.214 . S
Co178 O179 2.160 . S
Co178 O184 2.058 1_545 S
Co178 O194 2.057 . S
Co178 O209 2.037 . S
Co178 N213 2.145 1_545 S
Co178 N234 2.257 . S
O179 Co177 2.143 . S
O179 Co178 2.160 . S
C180 O181 1.278 . S
C180 O188 1.224 . S
O181 C180 1.278 . S
C182 O183 1.245 . S
C182 O194 1.232 . S
O183 C182 1.245 . S
O184 Co178 2.058 1_565 S
O184 C210 1.269 . S
O185 Co177 2.074 1_565 S
O185 C210 1.257 . S
H186 C211 0.930 . S
H187 C217 0.930 . S
O188 Co177 2.093 . S
O188 C180 1.224 . S
H189 C221 0.929 1_565 S
H190 C223 0.930 . S
H191 C224 0.930 . S
H192 C222 0.929 1_565 S
H193 C225 0.928 . S
O194 Co178 2.057 . S
O194 C182 1.232 . S
H195 C214 0.929 . S
H196 C215 0.929 . S
H197 C227 0.931 1_565 S
H198 C219 0.929 . S
H199 C228 0.930 . S
H200 C220 0.931 . S
O201 Co177 2.097 . S
O201 C229 1.214 . S
H202 C230 0.929 . S
H203 C231 0.929 . S
H204 C232 0.930 . S
H205 C233 0.929 . S
H206 C235 0.930 . S
H207 C212 0.930 . S
H208 C216 0.930 . S
O209 Co178 2.037 . S
O209 C229 1.234 . S
C210 O184 1.269 . S
C210 O185 1.257 . S
C211 H186 0.930 . S
C211 C214 1.388 . S
C211 C216 1.418 . S
C212 H207 0.930 . S
C212 C215 1.404 . S
C212 C216 1.353 . S
N213 Co178 2.145 1_565 S
N213 C214 1.397 . S
N213 C215 1.334 . S
C214 H195 0.929 . S
C214 C211 1.388 . S
C214 N213 1.397 . S
C215 H196 0.929 . S
C215 C212 1.404 . S
C215 N213 1.334 . S
C216 H208 0.930 . S
C216 C211 1.418 . S
C216 C212 1.353 . S
C217 H187 0.930 . S
C217 N218 1.330 . S
C217 C219 1.446 . S
N218 Co177 2.151 . S
N218 C217 1.330 . S
N218 C222 1.418 . S
C219 H198 0.929 . S
C219 C217 1.446 . S
C219 C220 1.332 . S
C220 H200 0.931 . S
C220 C219 1.332 . S
C220 C221 1.267 . S
C221 H189 0.929 1_545 S
C221 C220 1.267 . S
C221 C222 1.251 . S
C222 H192 0.929 1_545 S
C222 N218 1.418 . S
C222 C221 1.251 . S
C223 H190 0.930 . S
C223 C225 1.406 . S
C223 C228 1.261 . S
C224 H191 0.930 . S
C224 N226 1.325 . S
C224 C227 1.357 . S
C225 H193 0.928 . S
C225 C223 1.406 . S
C225 N226 1.261 . S
N226 Co177 2.214 . S
N226 C224 1.325 . S
N226 C225 1.261 . S
C227 H197 0.931 1_545 S
C227 C224 1.357 . S
C227 C228 1.312 . S
C228 H199 0.930 . S
C228 C223 1.261 . S
C228 C227 1.312 . S
C229 O201 1.214 . S
C229 O209 1.234 . S
C230 H202 0.929 . S
C230 C233 1.391 . S
C230 C235 1.391 . S
C231 H203 0.929 . S
C231 C232 1.390 . S
C231 N234 1.391 . S
C232 H204 0.930 . S
C232 C231 1.390 . S
C232 C233 1.392 . S
C233 H205 0.929 . S
C233 C230 1.391 . S
C233 C232 1.392 . S
N234 Co178 2.257 . S
N234 C231 1.391 . S
N234 C235 1.388 . S
C235 H206 0.930 . S
C235 C230 1.391 . S
C235 N234 1.388 . S
Co236 O238 2.143 . S
Co236 O244 2.074 . S
Co236 O247 2.093 1_455 S
Co236 O260 2.097 . S
Co236 N277 2.151 . S
Co236 N285 2.214 . S
Co237 O238 2.160 . S
Co237 O243 2.058 . S
Co237 O253 2.057 . S
Co237 O268 2.037 . S
Co237 N272 2.145 . S
Co237 N293 2.257 . S
O238 Co236 2.143 . S
O238 Co237 2.160 . S
C239 O240 1.278 . S
C239 O247 1.224 . S
O240 C239 1.278 . S
C241 O242 1.245 . S
C241 O253 1.232 . S
O242 C241 1.245 . S
O243 Co237 2.058 . S
O243 C269 1.269 . S
O244 Co236 2.074 . S
O244 C269 1.257 . S
H245 C270 0.930 . S
H246 C276 0.930 1_655 S
O247 Co236 2.093 1_655 S
O247 C239 1.224 . S
H248 C280 0.929 . S
H249 C282 0.930 . S
H250 C283 0.930 . S
H251 C281 0.929 . S
H252 C284 0.928 1_655 S
O253 Co237 2.057 . S
O253 C241 1.232 . S
H254 C273 0.929 . S
H255 C274 0.929 . S
H256 C286 0.931 . S
H257 C278 0.929 1_655 S
H258 C287 0.930 . S
H259 C279 0.931 . S
O260 Co236 2.097 . S
O260 C288 1.214 . S
H261 C289 0.929 . S
H262 C290 0.929 . S
H263 C291 0.930 . S
H264 C292 0.929 . S
H265 C294 0.930 . S
H266 C271 0.930 . S
H267 C275 0.930 . S
O268 Co237 2.037 . S
O268 C288 1.234 . S
C269 O243 1.269 . S
C269 O244 1.257 . S
C270 H245 0.930 . S
C270 C273 1.388 . S
C270 C275 1.418 . S
C271 H266 0.930 . S
C271 C274 1.404 . S
C271 C275 1.353 . S
N272 Co237 2.145 . S
N272 C273 1.397 . S
N272 C274 1.334 . S
C273 H254 0.929 . S
C273 C270 1.388 . S
C273 N272 1.397 . S
C274 H255 0.929 . S
C274 C271 1.404 . S
C274 N272 1.334 . S
C275 H267 0.930 . S
C275 C270 1.418 . S
C275 C271 1.353 . S
C276 H246 0.930 1_455 S
C276 N277 1.330 . S
C276 C278 1.446 . S
N277 Co236 2.151 . S
N277 C276 1.330 . S
N277 C281 1.418 . S
C278 H257 0.929 1_455 S
C278 C276 1.446 . S
C278 C279 1.332 . S
C279 H259 0.931 . S
C279 C278 1.332 . S
C279 C280 1.267 . S
C280 H248 0.929 . S
C280 C279 1.267 . S
C280 C281 1.251 . S
C281 H251 0.929 . S
C281 N277 1.418 . S
C281 C280 1.251 . S
C282 H249 0.930 . S
C282 C284 1.406 . S
C282 C287 1.261 . S
C283 H250 0.930 . S
C283 N285 1.325 . S
C283 C286 1.357 . S
C284 H252 0.928 1_455 S
C284 C282 1.406 . S
C284 N285 1.261 . S
N285 Co236 2.214 . S
N285 C283 1.325 . S
N285 C284 1.261 . S
C286 H256 0.931 . S
C286 C283 1.357 . S
C286 C287 1.312 . S
C287 H258 0.930 . S
C287 C282 1.261 . S
C287 C286 1.312 . S
C288 O260 1.214 . S
C288 O268 1.234 . S
C289 H261 0.929 . S
C289 C292 1.391 . S
C289 C294 1.391 . S
C290 H262 0.929 . S
C290 C291 1.390 1_455 S
C290 N293 1.391 . S
C291 H263 0.930 . S
C291 C290 1.390 1_655 S
C291 C292 1.392 . S
C292 H264 0.929 . S
C292 C289 1.391 . S
C292 C291 1.392 . S
N293 Co237 2.257 . S
N293 C290 1.391 . S
N293 C294 1.388 1_455 S
C294 H265 0.930 . S
C294 C289 1.391 . S
C294 N293 1.388 1_655 S
Co295 O297 2.143 . S
Co295 O303 2.074 . S
Co295 O306 2.093 . S
Co295 O319 2.097 . S
Co295 N336 2.151 . S
Co295 N344 2.214 . S
Co296 O297 2.160 . S
Co296 O302 2.058 . S
Co296 O312 2.057 . S
Co296 O327 2.037 . S
Co296 N331 2.145 . S
Co296 N352 2.257 . S
O297 Co295 2.143 . S
O297 Co296 2.160 . S
C298 O299 1.278 . S
C298 O306 1.224 . S
O299 C298 1.278 . S
C300 O301 1.245 . S
C300 O312 1.232 . S
O301 C300 1.245 . S
O302 Co296 2.058 . S
O302 C328 1.269 . S
O303 Co295 2.074 . S
O303 C328 1.257 . S
H304 C329 0.930 . S
H305 C335 0.930 . S
O306 Co295 2.093 . S
O306 C298 1.224 . S
H307 C339 0.929 . S
H308 C341 0.930 . S
H309 C342 0.930 . S
H310 C340 0.929 . S
H311 C343 0.928 . S
O312 Co296 2.057 . S
O312 C300 1.232 . S
H313 C332 0.929 . S
H314 C333 0.929 . S
H315 C345 0.931 . S
H316 C337 0.929 . S
H317 C346 0.930 . S
H318 C338 0.931 . S
O319 Co295 2.097 . S
O319 C347 1.214 . S
H320 C348 0.929 . S
H321 C349 0.929 . S
H322 C350 0.930 . S
H323 C351 0.929 . S
H324 C353 0.930 . S
H325 C330 0.930 . S
H326 C334 0.930 . S
O327 Co296 2.037 . S
O327 C347 1.234 . S
C328 O302 1.269 . S
C328 O303 1.257 . S
C329 H304 0.930 . S
C329 C332 1.388 . S
C329 C334 1.418 . S
C330 H325 0.930 . S
C330 C333 1.404 . S
C330 C334 1.353 . S
N331 Co296 2.145 . S
N331 C332 1.397 . S
N331 C333 1.334 . S
C332 H313 0.929 . S
C332 C329 1.388 . S
C332 N331 1.397 . S
C333 H314 0.929 . S
C333 C330 1.404 . S
C333 N331 1.334 . S
C334 H326 0.930 . S
C334 C329 1.418 . S
C334 C330 1.353 . S
C335 H305 0.930 . S
C335 N336 1.330 . S
C335 C337 1.446 . S
N336 Co295 2.151 . S
N336 C335 1.330 . S
N336 C340 1.418 . S
C337 H316 0.929 . S
C337 C335 1.446 . S
C337 C338 1.332 . S
C338 H318 0.931 . S
C338 C337 1.332 . S
C338 C339 1.267 . S
C339 H307 0.929 . S
C339 C338 1.267 . S
C339 C340 1.251 . S
C340 H310 0.929 . S
C340 N336 1.418 . S
C340 C339 1.251 . S
C341 H308 0.930 . S
C341 C343 1.406 . S
C341 C346 1.261 . S
C342 H309 0.930 . S
C342 N344 1.325 . S
C342 C345 1.357 . S
C343 H311 0.928 . S
C343 C341 1.406 . S
C343 N344 1.261 . S
N344 Co295 2.214 . S
N344 C342 1.325 . S
N344 C343 1.261 . S
C345 H315 0.931 . S
C345 C342 1.357 . S
C345 C346 1.312 . S
C346 H317 0.930 . S
C346 C341 1.261 . S
C346 C345 1.312 . S
C347 O319 1.214 . S
C347 O327 1.234 . S
C348 H320 0.929 . S
C348 C351 1.391 . S
C348 C353 1.391 . S
C349 H321 0.929 . S
C349 C350 1.390 . S
C349 N352 1.391 . S
C350 H322 0.930 . S
C350 C349 1.390 . S
C350 C351 1.392 . S
C351 H323 0.929 . S
C351 C348 1.391 . S
C351 C350 1.392 . S
N352 Co296 2.257 . S
N352 C349 1.391 . S
N352 C353 1.388 . S
C353 H324 0.930 . S
C353 C348 1.391 . S
C353 N352 1.388 . S
Co354 O356 2.143 . S
Co354 O362 2.074 . S
Co354 O365 2.093 1_455 S
Co354 O378 2.097 . S
Co354 N395 2.151 . S
Co354 N403 2.214 . S
Co355 O356 2.160 . S
Co355 O361 2.058 . S
Co355 O371 2.057 . S
Co355 O386 2.037 . S
Co355 N390 2.145 . S
Co355 N411 2.257 . S
O356 Co354 2.143 . S
O356 Co355 2.160 . S
C357 O358 1.278 . S
C357 O365 1.224 . S
O358 C357 1.278 . S
C359 O360 1.245 . S
C359 O371 1.232 . S
O360 C359 1.245 . S
O361 Co355 2.058 . S
O361 C387 1.269 . S
O362 Co354 2.074 . S
O362 C387 1.257 . S
H363 C388 0.930 . S
H364 C394 0.930 1_655 S
O365 Co354 2.093 1_655 S
O365 C357 1.224 . S
H366 C398 0.929 . S
H367 C400 0.930 . S
H368 C401 0.930 . S
H369 C399 0.929 . S
H370 C402 0.928 1_655 S
O371 Co355 2.057 . S
O371 C359 1.232 . S
H372 C391 0.929 . S
H373 C392 0.929 . S
H374 C404 0.931 . S
H375 C396 0.929 1_655 S
H376 C405 0.930 . S
H377 C397 0.931 . S
O378 Co354 2.097 . S
O378 C406 1.214 . S
H379 C407 0.929 . S
H380 C408 0.929 . S
H381 C409 0.930 . S
H382 C410 0.929 . S
H383 C412 0.930 . S
H384 C389 0.930 . S
H385 C393 0.930 . S
O386 Co355 2.037 . S
O386 C406 1.234 . S
C387 O361 1.269 . S
C387 O362 1.257 . S
C388 H363 0.930 . S
C388 C391 1.388 . S
C388 C393 1.418 . S
C389 H384 0.930 . S
C389 C392 1.404 . S
C389 C393 1.353 . S
N390 Co355 2.145 . S
N390 C391 1.397 . S
N390 C392 1.334 . S
C391 H372 0.929 . S
C391 C388 1.388 . S
C391 N390 1.397 . S
C392 H373 0.929 . S
C392 C389 1.404 . S
C392 N390 1.334 . S
C393 H385 0.930 . S
C393 C388 1.418 . S
C393 C389 1.353 . S
C394 H364 0.930 1_455 S
C394 N395 1.330 . S
C394 C396 1.446 . S
N395 Co354 2.151 . S
N395 C394 1.330 . S
N395 C399 1.418 . S
C396 H375 0.929 1_455 S
C396 C394 1.446 . S
C396 C397 1.332 . S
C397 H377 0.931 . S
C397 C396 1.332 . S
C397 C398 1.267 . S
C398 H366 0.929 . S
C398 C397 1.267 . S
C398 C399 1.251 . S
C399 H369 0.929 . S
C399 N395 1.418 . S
C399 C398 1.251 . S
C400 H367 0.930 . S
C400 C402 1.406 . S
C400 C405 1.261 . S
C401 H368 0.930 . S
C401 N403 1.325 . S
C401 C404 1.357 . S
C402 H370 0.928 1_455 S
C402 C400 1.406 . S
C402 N403 1.261 . S
N403 Co354 2.214 . S
N403 C401 1.325 . S
N403 C402 1.261 . S
C404 H374 0.931 . S
C404 C401 1.357 . S
C404 C405 1.312 . S
C405 H376 0.930 . S
C405 C400 1.261 . S
C405 C404 1.312 . S
C406 O378 1.214 . S
C406 O386 1.234 . S
C407 H379 0.929 . S
C407 C410 1.391 . S
C407 C412 1.391 . S
C408 H380 0.929 . S
C408 C409 1.390 1_455 S
C408 N411 1.391 . S
C409 H381 0.930 . S
C409 C408 1.390 1_655 S
C409 C410 1.392 . S
C410 H382 0.929 . S
C410 C407 1.391 . S
C410 C409 1.392 . S
N411 Co355 2.257 . S
N411 C408 1.391 . S
N411 C412 1.388 1_455 S
C412 H383 0.930 . S
C412 C407 1.391 . S
C412 N411 1.388 1_655 S
Co413 O415 2.143 . S
Co413 O421 2.074 . S
Co413 O424 2.093 . S
Co413 O437 2.097 . S
Co413 N454 2.151 . S
Co413 N462 2.214 . S
Co414 O415 2.160 . S
Co414 O420 2.058 . S
Co414 O430 2.057 . S
Co414 O445 2.037 . S
Co414 N449 2.145 . S
Co414 N470 2.257 . S
O415 Co413 2.143 . S
O415 Co414 2.160 . S
C416 O417 1.278 . S
C416 O424 1.224 . S
O417 C416 1.278 . S
C418 O419 1.245 . S
C418 O430 1.232 . S
O419 C418 1.245 . S
O420 Co414 2.058 . S
O420 C446 1.269 . S
O421 Co413 2.074 . S
O421 C446 1.257 . S
H422 C447 0.930 . S
H423 C453 0.930 . S
O424 Co413 2.093 . S
O424 C416 1.224 . S
H425 C457 0.929 . S
H426 C459 0.930 . S
H427 C460 0.930 . S
H428 C458 0.929 . S
H429 C461 0.928 . S
O430 Co414 2.057 . S
O430 C418 1.232 . S
H431 C450 0.929 . S
H432 C451 0.929 . S
H433 C463 0.931 . S
H434 C455 0.929 . S
H435 C464 0.930 . S
H436 C456 0.931 . S
O437 Co413 2.097 . S
O437 C465 1.214 . S
H438 C466 0.929 . S
H439 C467 0.929 . S
H440 C468 0.930 . S
H441 C469 0.929 . S
H442 C471 0.930 . S
H443 C448 0.930 . S
H444 C452 0.930 . S
O445 Co414 2.037 . S
O445 C465 1.234 . S
C446 O420 1.269 . S
C446 O421 1.257 . S
C447 H422 0.930 . S
C447 C450 1.388 . S
C447 C452 1.418 . S
C448 H443 0.930 . S
C448 C451 1.404 . S
C448 C452 1.353 . S
N449 Co414 2.145 . S
N449 C450 1.397 . S
N449 C451 1.334 . S
C450 H431 0.929 . S
C450 C447 1.388 . S
C450 N449 1.397 . S
C451 H432 0.929 . S
C451 C448 1.404 . S
C451 N449 1.334 . S
C452 H444 0.930 . S
C452 C447 1.418 . S
C452 C448 1.353 . S
C453 H423 0.930 . S
C453 N454 1.330 . S
C453 C455 1.446 . S
N454 Co413 2.151 . S
N454 C453 1.330 . S
N454 C458 1.418 . S
C455 H434 0.929 . S
C455 C453 1.446 . S
C455 C456 1.332 . S
C456 H436 0.931 . S
C456 C455 1.332 . S
C456 C457 1.267 . S
C457 H425 0.929 . S
C457 C456 1.267 . S
C457 C458 1.251 . S
C458 H428 0.929 . S
C458 N454 1.418 . S
C458 C457 1.251 . S
C459 H426 0.930 . S
C459 C461 1.406 . S
C459 C464 1.261 . S
C460 H427 0.930 . S
C460 N462 1.325 . S
C460 C463 1.357 . S
C461 H429 0.928 . S
C461 C459 1.406 . S
C461 N462 1.261 . S
N462 Co413 2.214 . S
N462 C460 1.325 . S
N462 C461 1.261 . S
C463 H433 0.931 . S
C463 C460 1.357 . S
C463 C464 1.312 . S
C464 H435 0.930 . S
C464 C459 1.261 . S
C464 C463 1.312 . S
C465 O437 1.214 . S
C465 O445 1.234 . S
C466 H438 0.929 . S
C466 C469 1.391 . S
C466 C471 1.391 . S
C467 H439 0.929 . S
C467 C468 1.390 . S
C467 N470 1.391 . S
C468 H440 0.930 . S
C468 C467 1.390 . S
C468 C469 1.392 . S
C469 H441 0.929 . S
C469 C466 1.391 . S
C469 C468 1.392 . S
N470 Co414 2.257 . S
N470 C467 1.391 . S
N470 C471 1.388 . S
C471 H442 0.930 . S
C471 C466 1.391 . S
C471 N470 1.388 . S
Co472 O474 2.143 . S
Co472 O480 2.074 1_545 S
Co472 O483 2.093 . S
Co472 O496 2.097 . S
Co472 N513 2.151 . S
Co472 N521 2.214 . S
Co473 O474 2.160 . S
Co473 O479 2.058 1_545 S
Co473 O489 2.057 . S
Co473 O504 2.037 . S
Co473 N508 2.145 1_545 S
Co473 N529 2.257 . S
O474 Co472 2.143 . S
O474 Co473 2.160 . S
C475 O476 1.278 . S
C475 O483 1.224 . S
O476 C475 1.278 . S
C477 O478 1.245 . S
C477 O489 1.232 . S
O478 C477 1.245 . S
O479 Co473 2.058 1_565 S
O479 C505 1.269 . S
O480 Co472 2.074 1_565 S
O480 C505 1.257 . S
H481 C506 0.930 . S
H482 C512 0.930 . S
O483 Co472 2.093 . S
O483 C475 1.224 . S
H484 C516 0.929 1_565 S
H485 C518 0.930 . S
H486 C519 0.930 . S
H487 C517 0.929 1_565 S
H488 C520 0.928 . S
O489 Co473 2.057 . S
O489 C477 1.232 . S
H490 C509 0.929 . S
H491 C510 0.929 . S
H492 C522 0.931 1_565 S
H493 C514 0.929 . S
H494 C523 0.930 . S
H495 C515 0.931 . S
O496 Co472 2.097 . S
O496 C524 1.214 . S
H497 C525 0.929 . S
H498 C526 0.929 . S
H499 C527 0.930 . S
H500 C528 0.929 . S
H501 C530 0.930 . S
H502 C507 0.930 . S
H503 C511 0.930 . S
O504 Co473 2.037 . S
O504 C524 1.234 . S
C505 O479 1.269 . S
C505 O480 1.257 . S
C506 H481 0.930 . S
C506 C509 1.388 . S
C506 C511 1.418 . S
C507 H502 0.930 . S
C507 C510 1.404 . S
C507 C511 1.353 . S
N508 Co473 2.145 1_565 S
N508 C509 1.397 . S
N508 C510 1.334 . S
C509 H490 0.929 . S
C509 C506 1.388 . S
C509 N508 1.397 . S
C510 H491 0.929 . S
C510 C507 1.404 . S
C510 N508 1.334 . S
C511 H503 0.930 . S
C511 C506 1.418 . S
C511 C507 1.353 . S
C512 H482 0.930 . S
C512 N513 1.330 . S
C512 C514 1.446 . S
N513 Co472 2.151 . S
N513 C512 1.330 . S
N513 C517 1.418 . S
C514 H493 0.929 . S
C514 C512 1.446 . S
C514 C515 1.332 . S
C515 H495 0.931 . S
C515 C514 1.332 . S
C515 C516 1.267 . S
C516 H484 0.929 1_545 S
C516 C515 1.267 . S
C516 C517 1.251 . S
C517 H487 0.929 1_545 S
C517 N513 1.418 . S
C517 C516 1.251 . S
C518 H485 0.930 . S
C518 C520 1.406 . S
C518 C523 1.261 . S
C519 H486 0.930 . S
C519 N521 1.325 . S
C519 C522 1.357 . S
C520 H488 0.928 . S
C520 C518 1.406 . S
C520 N521 1.261 . S
N521 Co472 2.214 . S
N521 C519 1.325 . S
N521 C520 1.261 . S
C522 H492 0.931 1_545 S
C522 C519 1.357 . S
C522 C523 1.312 . S
C523 H494 0.930 . S
C523 C518 1.261 . S
C523 C522 1.312 . S
C524 O496 1.214 . S
C524 O504 1.234 . S
C525 H497 0.929 . S
C525 C528 1.391 . S
C525 C530 1.391 . S
C526 H498 0.929 . S
C526 C527 1.390 . S
C526 N529 1.391 . S
C527 H499 0.930 . S
C527 C526 1.390 . S
C527 C528 1.392 . S
C528 H500 0.929 . S
C528 C525 1.391 . S
C528 C527 1.392 . S
N529 Co473 2.257 . S
N529 C526 1.391 . S
N529 C530 1.388 . S
C530 H501 0.930 . S
C530 C525 1.391 . S
C530 N529 1.388 . S
Co531 O533 2.143 . S
Co531 O539 2.074 . S
Co531 O542 2.093 1_545 S
Co531 O555 2.097 . S
Co531 N572 2.151 . S
Co531 N580 2.214 . S
Co532 O533 2.160 . S
Co532 O538 2.058 . S
Co532 O548 2.057 . S
Co532 O563 2.037 . S
Co532 N567 2.145 . S
Co532 N588 2.257 . S
O533 Co531 2.143 . S
O533 Co532 2.160 . S
C534 O535 1.278 . S
C534 O542 1.224 . S
O535 C534 1.278 . S
C536 O537 1.245 . S
C536 O548 1.232 . S
O537 C536 1.245 . S
O538 Co532 2.058 . S
O538 C564 1.269 . S
O539 Co531 2.074 . S
O539 C564 1.257 . S
H540 C565 0.930 . S
H541 C571 0.930 1_565 S
O542 Co531 2.093 1_565 S
O542 C534 1.224 . S
H543 C575 0.929 . S
H544 C577 0.930 . S
H545 C578 0.930 . S
H546 C576 0.929 . S
H547 C579 0.928 1_565 S
O548 Co532 2.057 . S
O548 C536 1.232 . S
H549 C568 0.929 . S
H550 C569 0.929 . S
H551 C581 0.931 . S
H552 C573 0.929 1_565 S
H553 C582 0.930 . S
H554 C574 0.931 . S
O555 Co531 2.097 . S
O555 C583 1.214 . S
H556 C584 0.929 . S
H557 C585 0.929 . S
H558 C586 0.930 . S
H559 C587 0.929 . S
H560 C589 0.930 . S
H561 C566 0.930 . S
H562 C570 0.930 . S
O563 Co532 2.037 . S
O563 C583 1.234 . S
C564 O538 1.269 . S
C564 O539 1.257 . S
C565 H540 0.930 . S
C565 C568 1.388 . S
C565 C570 1.418 . S
C566 H561 0.930 . S
C566 C569 1.404 . S
C566 C570 1.353 . S
N567 Co532 2.145 . S
N567 C568 1.397 . S
N567 C569 1.334 . S
C568 H549 0.929 . S
C568 C565 1.388 . S
C568 N567 1.397 . S
C569 H550 0.929 . S
C569 C566 1.404 . S
C569 N567 1.334 . S
C570 H562 0.930 . S
C570 C565 1.418 . S
C570 C566 1.353 . S
C571 H541 0.930 1_545 S
C571 N572 1.330 . S
C571 C573 1.446 . S
N572 Co531 2.151 . S
N572 C571 1.330 . S
N572 C576 1.418 . S
C573 H552 0.929 1_545 S
C573 C571 1.446 . S
C573 C574 1.332 . S
C574 H554 0.931 . S
C574 C573 1.332 . S
C574 C575 1.267 . S
C575 H543 0.929 . S
C575 C574 1.267 . S
C575 C576 1.251 . S
C576 H546 0.929 . S
C576 N572 1.418 . S
C576 C575 1.251 . S
C577 H544 0.930 . S
C577 C579 1.406 . S
C577 C582 1.261 . S
C578 H545 0.930 . S
C578 N580 1.325 . S
C578 C581 1.357 . S
C579 H547 0.928 1_545 S
C579 C577 1.406 . S
C579 N580 1.261 . S
N580 Co531 2.214 . S
N580 C578 1.325 . S
N580 C579 1.261 . S
C581 H551 0.931 . S
C581 C578 1.357 . S
C581 C582 1.312 . S
C582 H553 0.930 . S
C582 C577 1.261 . S
C582 C581 1.312 . S
C583 O555 1.214 . S
C583 O563 1.234 . S
C584 H556 0.929 . S
C584 C587 1.391 . S
C584 C589 1.391 . S
C585 H557 0.929 . S
C585 C586 1.390 1_545 S
C585 N588 1.391 . S
C586 H558 0.930 . S
C586 C585 1.390 1_565 S
C586 C587 1.392 . S
C587 H559 0.929 . S
C587 C584 1.391 . S
C587 C586 1.392 . S
N588 Co532 2.257 . S
N588 C585 1.391 . S
N588 C589 1.388 1_545 S
C589 H560 0.930 . S
C589 C584 1.391 . S
C589 N588 1.388 1_565 S
Co590 O592 2.143 . S
Co590 O598 2.074 1_455 S
Co590 O601 2.093 . S
Co590 O614 2.097 . S
Co590 N631 2.151 . S
Co590 N639 2.214 . S
Co591 O592 2.160 . S
Co591 O597 2.058 1_455 S
Co591 O607 2.057 . S
Co591 O622 2.037 . S
Co591 N626 2.145 1_455 S
Co591 N647 2.257 . S
O592 Co590 2.143 . S
O592 Co591 2.160 . S
C593 O594 1.278 . S
C593 O601 1.224 . S
O594 C593 1.278 . S
C595 O596 1.245 . S
C595 O607 1.232 . S
O596 C595 1.245 . S
O597 Co591 2.058 1_655 S
O597 C623 1.269 . S
O598 Co590 2.074 1_655 S
O598 C623 1.257 . S
H599 C624 0.930 . S
H600 C630 0.930 . S
O601 Co590 2.093 . S
O601 C593 1.224 . S
H602 C634 0.929 1_655 S
H603 C636 0.930 . S
H604 C637 0.930 . S
H605 C635 0.929 1_655 S
H606 C638 0.928 . S
O607 Co591 2.057 . S
O607 C595 1.232 . S
H608 C627 0.929 . S
H609 C628 0.929 . S
H610 C640 0.931 1_655 S
H611 C632 0.929 . S
H612 C641 0.930 . S
H613 C633 0.931 . S
O614 Co590 2.097 . S
O614 C642 1.214 . S
H615 C643 0.929 . S
H616 C644 0.929 . S
H617 C645 0.930 . S
H618 C646 0.929 . S
H619 C648 0.930 . S
H620 C625 0.930 . S
H621 C629 0.930 . S
O622 Co591 2.037 . S
O622 C642 1.234 . S
C623 O597 1.269 . S
C623 O598 1.257 . S
C624 H599 0.930 . S
C624 C627 1.388 . S
C624 C629 1.418 . S
C625 H620 0.930 . S
C625 C628 1.404 . S
C625 C629 1.353 . S
N626 Co591 2.145 1_655 S
N626 C627 1.397 . S
N626 C628 1.334 . S
C627 H608 0.929 . S
C627 C624 1.388 . S
C627 N626 1.397 . S
C628 H609 0.929 . S
C628 C625 1.404 . S
C628 N626 1.334 . S
C629 H621 0.930 . S
C629 C624 1.418 . S
C629 C625 1.353 . S
C630 H600 0.930 . S
C630 N631 1.330 . S
C630 C632 1.446 . S
N631 Co590 2.151 . S
N631 C630 1.330 . S
N631 C635 1.418 . S
C632 H611 0.929 . S
C632 C630 1.446 . S
C632 C633 1.332 . S
C633 H613 0.931 . S
C633 C632 1.332 . S
C633 C634 1.267 . S
C634 H602 0.929 1_455 S
C634 C633 1.267 . S
C634 C635 1.251 . S
C635 H605 0.929 1_455 S
C635 N631 1.418 . S
C635 C634 1.251 . S
C636 H603 0.930 . S
C636 C638 1.406 . S
C636 C641 1.261 . S
C637 H604 0.930 . S
C637 N639 1.325 . S
C637 C640 1.357 . S
C638 H606 0.928 . S
C638 C636 1.406 . S
C638 N639 1.261 . S
N639 Co590 2.214 . S
N639 C637 1.325 . S
N639 C638 1.261 . S
C640 H610 0.931 1_455 S
C640 C637 1.357 . S
C640 C641 1.312 . S
C641 H612 0.930 . S
C641 C636 1.261 . S
C641 C640 1.312 . S
C642 O614 1.214 . S
C642 O622 1.234 . S
C643 H615 0.929 . S
C643 C646 1.391 . S
C643 C648 1.391 . S
C644 H616 0.929 . S
C644 C645 1.390 . S
C644 N647 1.391 . S
C645 H617 0.930 . S
C645 C644 1.390 . S
C645 C646 1.392 . S
C646 H618 0.929 . S
C646 C643 1.391 . S
C646 C645 1.392 . S
N647 Co591 2.257 . S
N647 C644 1.391 . S
N647 C648 1.388 . S
C648 H619 0.930 . S
C648 C643 1.391 . S
C648 N647 1.388 . S
Co649 O651 2.143 . S
Co649 O657 2.074 . S
Co649 O660 2.093 . S
Co649 O673 2.097 . S
Co649 N690 2.151 . S
Co649 N698 2.214 . S
Co650 O651 2.160 . S
Co650 O656 2.058 . S
Co650 O666 2.057 . S
Co650 O681 2.037 . S
Co650 N685 2.145 . S
Co650 N706 2.257 . S
O651 Co649 2.143 . S
O651 Co650 2.160 . S
C652 O653 1.278 . S
C652 O660 1.224 . S
O653 C652 1.278 . S
C654 O655 1.245 . S
C654 O666 1.232 . S
O655 C654 1.245 . S
O656 Co650 2.058 . S
O656 C682 1.269 . S
O657 Co649 2.074 . S
O657 C682 1.257 . S
H658 C683 0.930 . S
H659 C689 0.930 . S
O660 Co649 2.093 . S
O660 C652 1.224 . S
H661 C693 0.929 . S
H662 C695 0.930 . S
H663 C696 0.930 . S
H664 C694 0.929 . S
H665 C697 0.928 . S
O666 Co650 2.057 . S
O666 C654 1.232 . S
H667 C686 0.929 . S
H668 C687 0.929 . S
H669 C699 0.931 . S
H670 C691 0.929 . S
H671 C700 0.930 . S
H672 C692 0.931 . S
O673 Co649 2.097 . S
O673 C701 1.214 . S
H674 C702 0.929 . S
H675 C703 0.929 . S
H676 C704 0.930 . S
H677 C705 0.929 . S
H678 C707 0.930 . S
H679 C684 0.930 . S
H680 C688 0.930 . S
O681 Co650 2.037 . S
O681 C701 1.234 . S
C682 O656 1.269 . S
C682 O657 1.257 . S
C683 H658 0.930 . S
C683 C686 1.388 . S
C683 C688 1.418 . S
C684 H679 0.930 . S
C684 C687 1.404 . S
C684 C688 1.353 . S
N685 Co650 2.145 . S
N685 C686 1.397 . S
N685 C687 1.334 . S
C686 H667 0.929 . S
C686 C683 1.388 . S
C686 N685 1.397 . S
C687 H668 0.929 . S
C687 C684 1.404 . S
C687 N685 1.334 . S
C688 H680 0.930 . S
C688 C683 1.418 . S
C688 C684 1.353 . S
C689 H659 0.930 . S
C689 N690 1.330 . S
C689 C691 1.446 . S
N690 Co649 2.151 . S
N690 C689 1.330 . S
N690 C694 1.418 . S
C691 H670 0.929 . S
C691 C689 1.446 . S
C691 C692 1.332 . S
C692 H672 0.931 . S
C692 C691 1.332 . S
C692 C693 1.267 . S
C693 H661 0.929 . S
C693 C692 1.267 . S
C693 C694 1.251 . S
C694 H664 0.929 . S
C694 N690 1.418 . S
C694 C693 1.251 . S
C695 H662 0.930 . S
C695 C697 1.406 . S
C695 C700 1.261 . S
C696 H663 0.930 . S
C696 N698 1.325 . S
C696 C699 1.357 . S
C697 H665 0.928 . S
C697 C695 1.406 . S
C697 N698 1.261 . S
N698 Co649 2.214 . S
N698 C696 1.325 . S
N698 C697 1.261 . S
C699 H669 0.931 . S
C699 C696 1.357 . S
C699 C700 1.312 . S
C700 H671 0.930 . S
C700 C695 1.261 . S
C700 C699 1.312 . S
C701 O673 1.214 . S
C701 O681 1.234 . S
C702 H674 0.929 . S
C702 C705 1.391 . S
C702 C707 1.391 . S
C703 H675 0.929 . S
C703 C704 1.390 . S
C703 N706 1.391 . S
C704 H676 0.930 . S
C704 C703 1.390 . S
C704 C705 1.392 . S
C705 H677 0.929 . S
C705 C702 1.391 . S
C705 C704 1.392 . S
N706 Co650 2.257 . S
N706 C703 1.391 . S
N706 C707 1.388 . S
C707 H678 0.930 . S
C707 C702 1.391 . S
C707 N706 1.388 . S
Co708 O710 2.143 . S
Co708 O716 2.074 . S
Co708 O719 2.093 . S
Co708 O732 2.097 . S
Co708 N749 2.151 . S
Co708 N757 2.214 . S
Co709 O710 2.160 . S
Co709 O715 2.058 . S
Co709 O725 2.057 . S
Co709 O740 2.037 . S
Co709 N744 2.145 . S
Co709 N765 2.257 . S
O710 Co708 2.143 . S
O710 Co709 2.160 . S
C711 O712 1.278 . S
C711 O719 1.224 . S
O712 C711 1.278 . S
C713 O714 1.245 . S
C713 O725 1.232 . S
O714 C713 1.245 . S
O715 Co709 2.058 . S
O715 C741 1.269 . S
O716 Co708 2.074 . S
O716 C741 1.257 . S
H717 C742 0.930 . S
H718 C748 0.930 . S
O719 Co708 2.093 . S
O719 C711 1.224 . S
H720 C752 0.929 . S
H721 C754 0.930 . S
H722 C755 0.930 . S
H723 C753 0.929 . S
H724 C756 0.928 . S
O725 Co709 2.057 . S
O725 C713 1.232 . S
H726 C745 0.929 . S
H727 C746 0.929 . S
H728 C758 0.931 . S
H729 C750 0.929 . S
H730 C759 0.930 . S
H731 C751 0.931 . S
O732 Co708 2.097 . S
O732 C760 1.214 . S
H733 C761 0.929 . S
H734 C762 0.929 . S
H735 C763 0.930 . S
H736 C764 0.929 . S
H737 C766 0.930 . S
H738 C743 0.930 . S
H739 C747 0.930 . S
O740 Co709 2.037 . S
O740 C760 1.234 . S
C741 O715 1.269 . S
C741 O716 1.257 . S
C742 H717 0.930 . S
C742 C745 1.388 . S
C742 C747 1.418 . S
C743 H738 0.930 . S
C743 C746 1.404 . S
C743 C747 1.353 . S
N744 Co709 2.145 . S
N744 C745 1.397 . S
N744 C746 1.334 . S
C745 H726 0.929 . S
C745 C742 1.388 . S
C745 N744 1.397 . S
C746 H727 0.929 . S
C746 C743 1.404 . S
C746 N744 1.334 . S
C747 H739 0.930 . S
C747 C742 1.418 . S
C747 C743 1.353 . S
C748 H718 0.930 . S
C748 N749 1.330 . S
C748 C750 1.446 . S
N749 Co708 2.151 . S
N749 C748 1.330 . S
N749 C753 1.418 . S
C750 H729 0.929 . S
C750 C748 1.446 . S
C750 C751 1.332 . S
C751 H731 0.931 . S
C751 C750 1.332 . S
C751 C752 1.267 . S
C752 H720 0.929 . S
C752 C751 1.267 . S
C752 C753 1.251 . S
C753 H723 0.929 . S
C753 N749 1.418 . S
C753 C752 1.251 . S
C754 H721 0.930 . S
C754 C756 1.406 . S
C754 C759 1.261 . S
C755 H722 0.930 . S
C755 N757 1.325 . S
C755 C758 1.357 . S
C756 H724 0.928 . S
C756 C754 1.406 . S
C756 N757 1.261 . S
N757 Co708 2.214 . S
N757 C755 1.325 . S
N757 C756 1.261 . S
C758 H728 0.931 . S
C758 C755 1.357 . S
C758 C759 1.312 . S
C759 H730 0.930 . S
C759 C754 1.261 . S
C759 C758 1.312 . S
C760 O732 1.214 . S
C760 O740 1.234 . S
C761 H733 0.929 . S
C761 C764 1.391 . S
C761 C766 1.391 . S
C762 H734 0.929 . S
C762 C763 1.390 . S
C762 N765 1.391 . S
C763 H735 0.930 . S
C763 C762 1.390 . S
C763 C764 1.392 . S
C764 H736 0.929 . S
C764 C761 1.391 . S
C764 C763 1.392 . S
N765 Co709 2.257 . S
N765 C762 1.391 . S
N765 C766 1.388 . S
C766 H737 0.930 . S
C766 C761 1.391 . S
C766 N765 1.388 . S
Co767 O769 2.143 . S
Co767 O775 2.074 . S
Co767 O778 2.093 . S
Co767 O791 2.097 . S
Co767 N808 2.151 . S
Co767 N816 2.214 . S
Co768 O769 2.160 . S
Co768 O774 2.058 . S
Co768 O784 2.057 . S
Co768 O799 2.037 . S
Co768 N803 2.158 . S
Co768 N824 2.257 . S
O769 Co767 2.143 . S
O769 Co768 2.160 . S
C770 O771 1.278 . S
C770 O778 1.224 . S
O771 C770 1.278 . S
C772 O773 1.245 . S
C772 O784 1.232 . S
O773 C772 1.245 . S
O774 Co768 2.058 . S
O774 C800 1.269 . S
O775 Co767 2.074 . S
O775 C800 1.257 . S
H776 C801 0.930 . S
H777 C807 0.930 . S
O778 Co767 2.093 . S
O778 C770 1.224 . S
H779 C811 0.929 . S
H780 C813 0.930 . S
H781 C814 0.930 . S
H782 C812 0.929 . S
H783 C815 0.928 . S
O784 Co768 2.057 . S
O784 C772 1.232 . S
H785 C804 0.929 1_545 S
H786 C805 0.929 . S
H787 C817 0.931 . S
H788 C809 0.929 . S
H789 C818 0.930 . S
H790 C810 0.931 . S
O791 Co767 2.097 . S
O791 C819 1.214 . S
H792 C820 0.929 . S
H793 C821 0.929 . S
H794 C822 0.930 . S
H795 C823 0.929 . S
H796 C825 0.930 . S
H797 C802 0.930 . S
H798 C806 0.930 . S
O799 Co768 2.037 . S
O799 C819 1.234 . S
C800 O774 1.269 . S
C800 O775 1.257 . S
C801 H776 0.930 . S
C801 C804 1.388 . S
C801 C806 1.418 . S
C802 H797 0.930 . S
C802 C805 1.404 . S
C802 C806 1.353 . S
N803 Co768 2.158 . S
N803 C804 1.390 1_545 S
N803 C805 1.327 1_545 S
C804 H785 0.929 1_565 S
C804 C801 1.388 . S
C804 N803 1.390 1_565 S
C805 H786 0.929 . S
C805 C802 1.404 . S
C805 N803 1.327 1_565 S
C806 H798 0.930 . S
C806 C801 1.418 . S
C806 C802 1.353 . S
C807 H777 0.930 . S
C807 N808 1.330 . S
C807 C809 1.446 . S
N808 Co767 2.151 . S
N808 C807 1.330 . S
N808 C812 1.418 . S
C809 H788 0.929 . S
C809 C807 1.446 . S
C809 C810 1.332 . S
C810 H790 0.931 . S
C810 C809 1.332 . S
C810 C811 1.267 . S
C811 H779 0.929 . S
C811 C810 1.267 . S
C811 C812 1.251 . S
C812 H782 0.929 . S
C812 N808 1.418 . S
C812 C811 1.251 . S
C813 H780 0.930 . S
C813 C815 1.406 . S
C813 C818 1.261 . S
C814 H781 0.930 . S
C814 N816 1.325 . S
C814 C817 1.357 . S
C815 H783 0.928 . S
C815 C813 1.406 . S
C815 N816 1.261 . S
N816 Co767 2.214 . S
N816 C814 1.325 . S
N816 C815 1.261 . S
C817 H787 0.931 . S
C817 C814 1.357 . S
C817 C818 1.312 . S
C818 H789 0.930 . S
C818 C813 1.261 . S
C818 C817 1.312 . S
C819 O791 1.214 . S
C819 O799 1.234 . S
C820 H792 0.929 . S
C820 C823 1.391 . S
C820 C825 1.391 . S
C821 H793 0.929 . S
C821 C822 1.390 . S
C821 N824 1.391 . S
C822 H794 0.930 . S
C822 C821 1.390 . S
C822 C823 1.392 . S
C823 H795 0.929 . S
C823 C820 1.391 . S
C823 C822 1.392 . S
N824 Co768 2.257 . S
N824 C821 1.391 . S
N824 C825 1.388 . S
C825 H796 0.930 . S
C825 C820 1.391 . S
C825 N824 1.388 . S
Co826 O828 2.143 . S
Co826 O834 2.074 . S
Co826 O837 2.093 . S
Co826 O850 2.097 . S
Co826 N867 2.151 . S
Co826 N875 2.214 . S
Co827 O828 2.160 1_455 S
Co827 O833 2.056 1_455 S
Co827 O843 2.057 . S
Co827 O858 2.037 . S
Co827 N862 2.145 . S
Co827 N883 2.257 . S
O828 Co826 2.143 . S
O828 Co827 2.160 1_655 S
C829 O830 1.278 . S
C829 O837 1.224 . S
O830 C829 1.278 . S
C831 O832 1.245 1_455 S
C831 O843 1.232 . S
O832 C831 1.245 1_655 S
O833 Co827 2.056 1_655 S
O833 C859 1.272 . S
O834 Co826 2.074 . S
O834 C859 1.257 . S
H835 C860 0.930 . S
H836 C866 0.930 . S
O837 Co826 2.093 . S
O837 C829 1.224 . S
H838 C870 0.929 . S
H839 C872 0.930 . S
H840 C873 0.930 . S
H841 C871 0.929 . S
H842 C874 0.928 . S
O843 Co827 2.057 . S
O843 C831 1.232 . S
H844 C863 0.929 . S
H845 C864 0.929 . S
H846 C876 0.931 . S
H847 C868 0.929 . S
H848 C877 0.930 . S
H849 C869 0.931 . S
O850 Co826 2.097 . S
O850 C878 1.214 . S
H851 C879 0.929 . S
H852 C880 0.929 . S
H853 C881 0.930 . S
H854 C882 0.929 . S
H855 C884 0.930 1_655 S
H856 C861 0.930 . S
H857 C865 0.930 . S
O858 Co827 2.037 . S
O858 C878 1.234 1_455 S
C859 O833 1.272 . S
C859 O834 1.257 . S
C860 H835 0.930 . S
C860 C863 1.388 . S
C860 C865 1.418 . S
C861 H856 0.930 . S
C861 C864 1.404 . S
C861 C865 1.353 . S
N862 Co827 2.145 . S
N862 C863 1.397 . S
N862 C864 1.334 . S
C863 H844 0.929 . S
C863 C860 1.388 . S
C863 N862 1.397 . S
C864 H845 0.929 . S
C864 C861 1.404 . S
C864 N862 1.334 . S
C865 H857 0.930 . S
C865 C860 1.418 . S
C865 C861 1.353 . S
C866 H836 0.930 . S
C866 N867 1.330 . S
C866 C868 1.446 . S
N867 Co826 2.151 . S
N867 C866 1.330 . S
N867 C871 1.418 . S
C868 H847 0.929 . S
C868 C866 1.446 . S
C868 C869 1.332 . S
C869 H849 0.931 . S
C869 C868 1.332 . S
C869 C870 1.267 . S
C870 H838 0.929 . S
C870 C869 1.267 . S
C870 C871 1.251 . S
C871 H841 0.929 . S
C871 N867 1.418 . S
C871 C870 1.251 . S
C872 H839 0.930 . S
C872 C874 1.406 . S
C872 C877 1.261 . S
C873 H840 0.930 . S
C873 N875 1.325 . S
C873 C876 1.357 . S
C874 H842 0.928 . S
C874 C872 1.406 . S
C874 N875 1.261 . S
N875 Co826 2.214 . S
N875 C873 1.325 . S
N875 C874 1.261 . S
C876 H846 0.931 . S
C876 C873 1.357 . S
C876 C877 1.312 . S
C877 H848 0.930 . S
C877 C872 1.261 . S
C877 C876 1.312 . S
C878 O850 1.214 . S
C878 O858 1.234 1_655 S
C879 H851 0.929 . S
C879 C882 1.391 . S
C879 C884 1.391 . S
C880 H852 0.929 . S
C880 C881 1.390 . S
C880 N883 1.391 . S
C881 H853 0.930 . S
C881 C880 1.390 . S
C881 C882 1.392 . S
C882 H854 0.929 . S
C882 C879 1.391 . S
C882 C881 1.392 . S
N883 Co827 2.257 . S
N883 C880 1.391 . S
N883 C884 1.388 . S
C884 H855 0.930 1_455 S
C884 C879 1.391 . S
C884 N883 1.388 . S
Co885 O887 2.143 . S
Co885 O893 2.074 . S
Co885 O896 2.093 . S
Co885 O909 2.097 . S
Co885 N926 2.151 . S
Co885 N934 2.214 . S
Co886 O887 2.160 . S
Co886 O892 2.058 . S
Co886 O902 2.072 . S
Co886 O917 2.037 . S
Co886 N921 2.145 1_655 S
Co886 N942 2.257 1_655 S
O887 Co885 2.143 . S
O887 Co886 2.160 . S
C888 O889 1.278 1_655 S
C888 O896 1.224 . S
O889 C888 1.278 1_455 S
C890 O891 1.245 . S
C890 O902 1.256 . S
O891 C890 1.245 . S
O892 Co886 2.058 . S
O892 C918 1.269 . S
O893 Co885 2.074 . S
O893 C918 1.257 . S
H894 C919 0.930 . S
H895 C925 0.930 . S
O896 Co885 2.093 . S
O896 C888 1.224 . S
H897 C929 0.929 . S
H898 C931 0.930 . S
H899 C932 0.930 . S
H900 C930 0.929 . S
H901 C933 0.928 . S
O902 Co886 2.072 . S
O902 C890 1.256 . S
H903 C922 0.929 . S
H904 C923 0.929 . S
H905 C935 0.931 . S
H906 C927 0.929 . S
H907 C936 0.930 . S
H908 C928 0.931 . S
O909 Co885 2.097 . S
O909 C937 1.214 . S
H910 C938 0.929 . S
H911 C939 0.929 . S
H912 C940 0.930 . S
H913 C941 0.929 . S
H914 C943 0.930 . S
H915 C920 0.930 . S
H916 C924 0.930 . S
O917 Co886 2.037 . S
O917 C937 1.234 . S
C918 O892 1.269 . S
C918 O893 1.257 . S
C919 H894 0.930 . S
C919 C922 1.388 1_455 S
C919 C924 1.418 . S
C920 H915 0.930 . S
C920 C923 1.404 . S
C920 C924 1.353 . S
N921 Co886 2.145 1_455 S
N921 C922 1.397 1_455 S
N921 C923 1.334 . S
C922 H903 0.929 . S
C922 C919 1.388 1_655 S
C922 N921 1.397 1_655 S
C923 H904 0.929 . S
C923 C920 1.404 . S
C923 N921 1.334 . S
C924 H916 0.930 . S
C924 C919 1.418 . S
C924 C920 1.353 . S
C925 H895 0.930 . S
C925 N926 1.330 . S
C925 C927 1.446 . S
N926 Co885 2.151 . S
N926 C925 1.330 . S
N926 C930 1.418 . S
C927 H906 0.929 . S
C927 C925 1.446 . S
C927 C928 1.332 . S
C928 H908 0.931 . S
C928 C927 1.332 . S
C928 C929 1.267 . S
C929 H897 0.929 . S
C929 C928 1.267 . S
C929 C930 1.251 . S
C930 H900 0.929 . S
C930 N926 1.418 . S
C930 C929 1.251 . S
C931 H898 0.930 . S
C931 C933 1.406 . S
C931 C936 1.261 . S
C932 H899 0.930 . S
C932 N934 1.325 . S
C932 C935 1.357 . S
C933 H901 0.928 . S
C933 C931 1.406 . S
C933 N934 1.261 . S
N934 Co885 2.214 . S
N934 C932 1.325 . S
N934 C933 1.261 . S
C935 H905 0.931 . S
C935 C932 1.357 . S
C935 C936 1.312 . S
C936 H907 0.930 . S
C936 C931 1.261 . S
C936 C935 1.312 . S
C937 O909 1.214 . S
C937 O917 1.234 . S
C938 H910 0.929 . S
C938 C941 1.391 . S
C938 C943 1.391 . S
C939 H911 0.929 . S
C939 C940 1.390 . S
C939 N942 1.391 . S
C940 H912 0.930 . S
C940 C939 1.390 . S
C940 C941 1.392 . S
C941 H913 0.929 . S
C941 C938 1.391 . S
C941 C940 1.392 . S
N942 Co886 2.257 1_455 S
N942 C939 1.391 . S
N942 C943 1.388 . S
C943 H914 0.930 . S
C943 C938 1.391 . S
C943 N942 1.388 . S
Co944 O946 2.143 . S
Co944 O952 2.074 . S
Co944 O955 2.093 . S
Co944 O968 2.097 . S
Co944 N985 2.151 . S
Co944 N993 2.214 . S
Co945 O946 2.160 . S
Co945 O951 2.058 . S
Co945 O961 2.057 . S
Co945 O976 2.037 . S
Co945 N980 2.145 . S
Co945 N1001 2.257 . S
O946 Co944 2.143 . S
O946 Co945 2.160 . S
C947 O948 1.278 . S
C947 O955 1.224 . S
O948 C947 1.278 . S
C949 O950 1.245 . S
C949 O961 1.232 . S
O950 C949 1.245 . S
O951 Co945 2.058 . S
O951 C977 1.269 . S
O952 Co944 2.074 . S
O952 C977 1.257 . S
H953 C978 0.930 . S
H954 C984 0.930 . S
O955 Co944 2.093 . S
O955 C947 1.224 . S
H956 C988 0.929 . S
H957 C990 0.930 . S
H958 C991 0.930 . S
H959 C989 0.929 . S
H960 C992 0.928 . S
O961 Co945 2.057 . S
O961 C949 1.232 . S
H962 C981 0.929 . S
H963 C982 0.929 . S
H964 C994 0.931 . S
H965 C986 0.929 . S
H966 C995 0.930 . S
H967 C987 0.931 . S
O968 Co944 2.097 . S
O968 C996 1.214 . S
H969 C997 0.929 . S
H970 C998 0.929 . S
H971 C999 0.930 . S
H972 C1000 0.929 . S
H973 C1002 0.930 . S
H974 C979 0.930 . S
H975 C983 0.930 . S
O976 Co945 2.037 . S
O976 C996 1.234 . S
C977 O951 1.269 . S
C977 O952 1.257 . S
C978 H953 0.930 . S
C978 C981 1.388 . S
C978 C983 1.418 . S
C979 H974 0.930 . S
C979 C982 1.404 . S
C979 C983 1.353 . S
N980 Co945 2.145 . S
N980 C981 1.397 . S
N980 C982 1.334 . S
C981 H962 0.929 . S
C981 C978 1.388 . S
C981 N980 1.397 . S
C982 H963 0.929 . S
C982 C979 1.404 . S
C982 N980 1.334 . S
C983 H975 0.930 . S
C983 C978 1.418 . S
C983 C979 1.353 . S
C984 H954 0.930 . S
C984 N985 1.330 . S
C984 C986 1.446 . S
N985 Co944 2.151 . S
N985 C984 1.330 . S
N985 C989 1.418 . S
C986 H965 0.929 . S
C986 C984 1.446 . S
C986 C987 1.332 . S
C987 H967 0.931 . S
C987 C986 1.332 . S
C987 C988 1.267 . S
C988 H956 0.929 . S
C988 C987 1.267 . S
C988 C989 1.251 . S
C989 H959 0.929 . S
C989 N985 1.418 . S
C989 C988 1.251 . S
C990 H957 0.930 . S
C990 C992 1.406 . S
C990 C995 1.261 . S
C991 H958 0.930 . S
C991 N993 1.325 . S
C991 C994 1.357 . S
C992 H960 0.928 . S
C992 C990 1.406 . S
C992 N993 1.261 . S
N993 Co944 2.214 . S
N993 C991 1.325 . S
N993 C992 1.261 . S
C994 H964 0.931 . S
C994 C991 1.357 . S
C994 C995 1.312 . S
C995 H966 0.930 . S
C995 C990 1.261 . S
C995 C994 1.312 . S
C996 O968 1.214 . S
C996 O976 1.234 . S
C997 H969 0.929 . S
C997 C1000 1.391 . S
C997 C1002 1.391 . S
C998 H970 0.929 . S
C998 C999 1.390 . S
C998 N1001 1.391 . S
C999 H971 0.930 . S
C999 C998 1.390 . S
C999 C1000 1.392 . S
C1000 H972 0.929 . S
C1000 C997 1.391 . S
C1000 C999 1.392 . S
N1001 Co945 2.257 . S
N1001 C998 1.391 . S
N1001 C1002 1.388 . S
C1002 H973 0.930 . S
C1002 C997 1.391 . S
C1002 N1001 1.388 . S
Co1003 O1005 2.143 . S
Co1003 O1011 2.074 . S
Co1003 O1014 2.093 . S
Co1003 O1027 2.097 . S
Co1003 N1044 2.151 . S
Co1003 N1052 2.214 . S
Co1004 O1005 2.160 . S
Co1004 O1010 2.058 . S
Co1004 O1020 2.057 . S
Co1004 O1035 2.037 . S
Co1004 N1039 2.145 . S
Co1004 N1060 2.257 . S
O1005 Co1003 2.143 . S
O1005 Co1004 2.160 . S
C1006 O1007 1.278 . S
C1006 O1014 1.224 . S
O1007 C1006 1.278 . S
C1008 O1009 1.245 . S
C1008 O1020 1.232 . S
O1009 C1008 1.245 . S
O1010 Co1004 2.058 . S
O1010 C1036 1.269 . S
O1011 Co1003 2.074 . S
O1011 C1036 1.257 . S
H1012 C1037 0.930 . S
H1013 C1043 0.930 . S
O1014 Co1003 2.093 . S
O1014 C1006 1.224 . S
H1015 C1047 0.929 . S
H1016 C1049 0.930 . S
H1017 C1050 0.930 . S
H1018 C1048 0.929 . S
H1019 C1051 0.928 . S
O1020 Co1004 2.057 . S
O1020 C1008 1.232 . S
H1021 C1040 0.929 . S
H1022 C1041 0.929 . S
H1023 C1053 0.931 . S
H1024 C1045 0.929 . S
H1025 C1054 0.930 . S
H1026 C1046 0.931 . S
O1027 Co1003 2.097 . S
O1027 C1055 1.214 . S
H1028 C1056 0.929 . S
H1029 C1057 0.929 . S
H1030 C1058 0.930 . S
H1031 C1059 0.929 . S
H1032 C1061 0.930 . S
H1033 C1038 0.930 . S
H1034 C1042 0.930 . S
O1035 Co1004 2.037 . S
O1035 C1055 1.234 . S
C1036 O1010 1.269 . S
C1036 O1011 1.257 . S
C1037 H1012 0.930 . S
C1037 C1040 1.388 . S
C1037 C1042 1.418 . S
C1038 H1033 0.930 . S
C1038 C1041 1.404 . S
C1038 C1042 1.353 . S
N1039 Co1004 2.145 . S
N1039 C1040 1.397 . S
N1039 C1041 1.334 . S
C1040 H1021 0.929 . S
C1040 C1037 1.388 . S
C1040 N1039 1.397 . S
C1041 H1022 0.929 . S
C1041 C1038 1.404 . S
C1041 N1039 1.334 . S
C1042 H1034 0.930 . S
C1042 C1037 1.418 . S
C1042 C1038 1.353 . S
C1043 H1013 0.930 . S
C1043 N1044 1.330 . S
C1043 C1045 1.446 . S
N1044 Co1003 2.151 . S
N1044 C1043 1.330 . S
N1044 C1048 1.418 . S
C1045 H1024 0.929 . S
C1045 C1043 1.446 . S
C1045 C1046 1.332 . S
C1046 H1026 0.931 . S
C1046 C1045 1.332 . S
C1046 C1047 1.267 . S
C1047 H1015 0.929 . S
C1047 C1046 1.267 . S
C1047 C1048 1.251 . S
C1048 H1018 0.929 . S
C1048 N1044 1.418 . S
C1048 C1047 1.251 . S
C1049 H1016 0.930 . S
C1049 C1051 1.406 . S
C1049 C1054 1.261 . S
C1050 H1017 0.930 . S
C1050 N1052 1.325 . S
C1050 C1053 1.357 . S
C1051 H1019 0.928 . S
C1051 C1049 1.406 . S
C1051 N1052 1.261 . S
N1052 Co1003 2.214 . S
N1052 C1050 1.325 . S
N1052 C1051 1.261 . S
C1053 H1023 0.931 . S
C1053 C1050 1.357 . S
C1053 C1054 1.312 . S
C1054 H1025 0.930 . S
C1054 C1049 1.261 . S
C1054 C1053 1.312 . S
C1055 O1027 1.214 . S
C1055 O1035 1.234 . S
C1056 H1028 0.929 . S
C1056 C1059 1.391 . S
C1056 C1061 1.391 1_565 S
C1057 H1029 0.929 . S
C1057 C1058 1.390 1_545 S
C1057 N1060 1.391 . S
C1058 H1030 0.930 . S
C1058 C1057 1.390 1_565 S
C1058 C1059 1.392 . S
C1059 H1031 0.929 . S
C1059 C1056 1.391 . S
C1059 C1058 1.392 . S
N1060 Co1004 2.257 . S
N1060 C1057 1.391 . S
N1060 C1061 1.388 . S
C1061 H1032 0.930 . S
C1061 C1056 1.391 1_545 S
C1061 N1060 1.388 . S
Co1062 O1064 2.143 . S
Co1062 O1070 2.074 . S
Co1062 O1073 2.093 . S
Co1062 O1086 2.097 . S
Co1062 N1103 2.151 . S
Co1062 N1111 2.214 . S
Co1063 O1064 2.160 . S
Co1063 O1069 2.058 . S
Co1063 O1079 2.057 . S
Co1063 O1094 2.037 . S
Co1063 N1098 2.145 . S
Co1063 N1119 2.257 . S
O1064 Co1062 2.143 . S
O1064 Co1063 2.160 . S
C1065 O1066 1.278 . S
C1065 O1073 1.224 . S
O1066 C1065 1.278 . S
C1067 O1068 1.245 . S
C1067 O1079 1.232 . S
O1068 C1067 1.245 . S
O1069 Co1063 2.058 . S
O1069 C1095 1.269 . S
O1070 Co1062 2.074 . S
O1070 C1095 1.257 . S
H1071 C1096 0.930 . S
H1072 C1102 0.930 . S
O1073 Co1062 2.093 . S
O1073 C1065 1.224 . S
H1074 C1106 0.929 . S
H1075 C1108 0.930 . S
H1076 C1109 0.930 . S
H1077 C1107 0.929 . S
H1078 C1110 0.928 . S
O1079 Co1063 2.057 . S
O1079 C1067 1.232 . S
H1080 C1099 0.929 . S
H1081 C1100 0.929 . S
H1082 C1112 0.931 . S
H1083 C1104 0.929 . S
H1084 C1113 0.930 . S
H1085 C1105 0.931 . S
O1086 Co1062 2.097 . S
O1086 C1114 1.214 . S
H1087 C1115 0.929 . S
H1088 C1116 0.929 . S
H1089 C1117 0.930 . S
H1090 C1118 0.929 . S
H1091 C1120 0.930 . S
H1092 C1097 0.930 . S
H1093 C1101 0.930 . S
O1094 Co1063 2.037 . S
O1094 C1114 1.234 . S
C1095 O1069 1.269 . S
C1095 O1070 1.257 . S
C1096 H1071 0.930 . S
C1096 C1099 1.388 . S
C1096 C1101 1.418 . S
C1097 H1092 0.930 . S
C1097 C1100 1.404 . S
C1097 C1101 1.353 . S
N1098 Co1063 2.145 . S
N1098 C1099 1.397 . S
N1098 C1100 1.334 . S
C1099 H1080 0.929 . S
C1099 C1096 1.388 . S
C1099 N1098 1.397 . S
C1100 H1081 0.929 . S
C1100 C1097 1.404 . S
C1100 N1098 1.334 . S
C1101 H1093 0.930 . S
C1101 C1096 1.418 . S
C1101 C1097 1.353 . S
C1102 H1072 0.930 . S
C1102 N1103 1.330 . S
C1102 C1104 1.446 . S
N1103 Co1062 2.151 . S
N1103 C1102 1.330 . S
N1103 C1107 1.418 . S
C1104 H1083 0.929 . S
C1104 C1102 1.446 . S
C1104 C1105 1.332 . S
C1105 H1085 0.931 . S
C1105 C1104 1.332 . S
C1105 C1106 1.267 . S
C1106 H1074 0.929 . S
C1106 C1105 1.267 . S
C1106 C1107 1.251 . S
C1107 H1077 0.929 . S
C1107 N1103 1.418 . S
C1107 C1106 1.251 . S
C1108 H1075 0.930 . S
C1108 C1110 1.406 . S
C1108 C1113 1.261 . S
C1109 H1076 0.930 . S
C1109 N1111 1.325 . S
C1109 C1112 1.357 . S
C1110 H1078 0.928 . S
C1110 C1108 1.406 . S
C1110 N1111 1.261 . S
N1111 Co1062 2.214 . S
N1111 C1109 1.325 . S
N1111 C1110 1.261 . S
C1112 H1082 0.931 . S
C1112 C1109 1.357 . S
C1112 C1113 1.312 . S
C1113 H1084 0.930 . S
C1113 C1108 1.261 . S
C1113 C1112 1.312 . S
C1114 O1086 1.214 . S
C1114 O1094 1.234 . S
C1115 H1087 0.929 . S
C1115 C1118 1.391 . S
C1115 C1120 1.391 1_565 S
C1116 H1088 0.929 . S
C1116 C1117 1.390 1_545 S
C1116 N1119 1.391 . S
C1117 H1089 0.930 . S
C1117 C1116 1.390 1_565 S
C1117 C1118 1.392 . S
C1118 H1090 0.929 . S
C1118 C1115 1.391 . S
C1118 C1117 1.392 . S
N1119 Co1063 2.257 . S
N1119 C1116 1.391 . S
N1119 C1120 1.388 . S
C1120 H1091 0.930 . S
C1120 C1115 1.391 1_545 S
C1120 N1119 1.388 . S
Co1121 O1123 2.143 . S
Co1121 O1129 2.074 . S
Co1121 O1132 2.093 . S
Co1121 O1145 2.097 . S
Co1121 N1162 2.151 . S
Co1121 N1170 2.214 . S
Co1122 O1123 2.160 . S
Co1122 O1128 2.058 . S
Co1122 O1138 2.066 . S
Co1122 O1153 2.037 . S
Co1122 N1157 2.145 1_655 S
Co1122 N1178 2.257 1_655 S
O1123 Co1121 2.143 . S
O1123 Co1122 2.160 . S
C1124 O1125 1.278 1_655 S
C1124 O1132 1.224 . S
O1125 C1124 1.278 1_455 S
C1126 O1127 1.245 . S
C1126 O1138 1.231 . S
O1127 C1126 1.245 . S
O1128 Co1122 2.058 . S
O1128 C1154 1.269 . S
O1129 Co1121 2.074 . S
O1129 C1154 1.257 . S
H1130 C1155 0.930 . S
H1131 C1161 0.930 . S
O1132 Co1121 2.093 . S
O1132 C1124 1.224 . S
H1133 C1165 0.929 . S
H1134 C1167 0.930 . S
H1135 C1168 0.930 . S
H1136 C1166 0.929 . S
H1137 C1169 0.928 . S
O1138 Co1122 2.066 . S
O1138 C1126 1.231 . S
H1139 C1158 0.929 . S
H1140 C1159 0.929 . S
H1141 C1171 0.931 . S
H1142 C1163 0.929 . S
H1143 C1172 0.930 . S
H1144 C1164 0.931 . S
O1145 Co1121 2.097 . S
O1145 C1173 1.214 . S
H1146 C1174 0.929 . S
H1147 C1175 0.929 . S
H1148 C1176 0.930 . S
H1149 C1177 0.929 . S
H1150 C1179 0.930 . S
H1151 C1156 0.930 . S
H1152 C1160 0.930 . S
O1153 Co1122 2.037 . S
O1153 C1173 1.234 . S
C1154 O1128 1.269 . S
C1154 O1129 1.257 . S
C1155 H1130 0.930 . S
C1155 C1158 1.388 1_455 S
C1155 C1160 1.418 . S
C1156 H1151 0.930 . S
C1156 C1159 1.404 . S
C1156 C1160 1.353 . S
N1157 Co1122 2.145 1_455 S
N1157 C1158 1.397 1_455 S
N1157 C1159 1.334 . S
C1158 H1139 0.929 . S
C1158 C1155 1.388 1_655 S
C1158 N1157 1.397 1_655 S
C1159 H1140 0.929 . S
C1159 C1156 1.404 . S
C1159 N1157 1.334 . S
C1160 H1152 0.930 . S
C1160 C1155 1.418 . S
C1160 C1156 1.353 . S
C1161 H1131 0.930 . S
C1161 N1162 1.330 . S
C1161 C1163 1.446 . S
N1162 Co1121 2.151 . S
N1162 C1161 1.330 . S
N1162 C1166 1.418 . S
C1163 H1142 0.929 . S
C1163 C1161 1.446 . S
C1163 C1164 1.332 . S
C1164 H1144 0.931 . S
C1164 C1163 1.332 . S
C1164 C1165 1.267 . S
C1165 H1133 0.929 . S
C1165 C1164 1.267 . S
C1165 C1166 1.251 . S
C1166 H1136 0.929 . S
C1166 N1162 1.418 . S
C1166 C1165 1.251 . S
C1167 H1134 0.930 . S
C1167 C1169 1.406 . S
C1167 C1172 1.261 . S
C1168 H1135 0.930 . S
C1168 N1170 1.325 . S
C1168 C1171 1.357 . S
C1169 H1137 0.928 . S
C1169 C1167 1.406 . S
C1169 N1170 1.261 . S
N1170 Co1121 2.214 . S
N1170 C1168 1.325 . S
N1170 C1169 1.261 . S
C1171 H1141 0.931 . S
C1171 C1168 1.357 . S
C1171 C1172 1.312 . S
C1172 H1143 0.930 . S
C1172 C1167 1.261 . S
C1172 C1171 1.312 . S
C1173 O1145 1.214 . S
C1173 O1153 1.234 . S
C1174 H1146 0.929 . S
C1174 C1177 1.391 . S
C1174 C1179 1.391 . S
C1175 H1147 0.929 . S
C1175 C1176 1.390 . S
C1175 N1178 1.391 . S
C1176 H1148 0.930 . S
C1176 C1175 1.390 . S
C1176 C1177 1.392 . S
C1177 H1149 0.929 . S
C1177 C1174 1.391 . S
C1177 C1176 1.392 . S
N1178 Co1122 2.257 1_455 S
N1178 C1175 1.391 . S
N1178 C1179 1.388 . S
C1179 H1150 0.930 . S
C1179 C1174 1.391 . S
C1179 N1178 1.388 . S
Co1180 O1182 2.143 . S
Co1180 O1188 2.074 . S
Co1180 O1191 2.093 . S
Co1180 O1204 2.097 . S
Co1180 N1221 2.151 . S
Co1180 N1229 2.214 . S
Co1181 O1182 2.160 . S
Co1181 O1187 2.058 . S
Co1181 O1197 2.057 . S
Co1181 O1212 2.037 . S
Co1181 N1216 2.145 . S
Co1181 N1237 2.257 . S
O1182 Co1180 2.143 . S
O1182 Co1181 2.160 . S
C1183 O1184 1.278 . S
C1183 O1191 1.224 . S
O1184 C1183 1.278 . S
C1185 O1186 1.245 . S
C1185 O1197 1.232 . S
O1186 C1185 1.245 . S
O1187 Co1181 2.058 . S
O1187 C1213 1.269 . S
O1188 Co1180 2.074 . S
O1188 C1213 1.257 . S
H1189 C1214 0.930 . S
H1190 C1220 0.930 . S
O1191 Co1180 2.093 . S
O1191 C1183 1.224 . S
H1192 C1224 0.929 . S
H1193 C1226 0.930 . S
H1194 C1227 0.930 . S
H1195 C1225 0.929 . S
H1196 C1228 0.928 . S
O1197 Co1181 2.057 . S
O1197 C1185 1.232 . S
H1198 C1217 0.929 . S
H1199 C1218 0.929 . S
H1200 C1230 0.931 . S
H1201 C1222 0.929 . S
H1202 C1231 0.930 . S
H1203 C1223 0.931 . S
O1204 Co1180 2.097 . S
O1204 C1232 1.214 . S
H1205 C1233 0.929 . S
H1206 C1234 0.929 . S
H1207 C1235 0.930 . S
H1208 C1236 0.929 . S
H1209 C1238 0.930 . S
H1210 C1215 0.930 . S
H1211 C1219 0.930 . S
O1212 Co1181 2.037 . S
O1212 C1232 1.234 . S
C1213 O1187 1.269 . S
C1213 O1188 1.257 . S
C1214 H1189 0.930 . S
C1214 C1217 1.388 . S
C1214 C1219 1.418 . S
C1215 H1210 0.930 . S
C1215 C1218 1.404 . S
C1215 C1219 1.353 . S
N1216 Co1181 2.145 . S
N1216 C1217 1.397 . S
N1216 C1218 1.334 . S
C1217 H1198 0.929 . S
C1217 C1214 1.388 . S
C1217 N1216 1.397 . S
C1218 H1199 0.929 . S
C1218 C1215 1.404 . S
C1218 N1216 1.334 . S
C1219 H1211 0.930 . S
C1219 C1214 1.418 . S
C1219 C1215 1.353 . S
C1220 H1190 0.930 . S
C1220 N1221 1.330 . S
C1220 C1222 1.446 . S
N1221 Co1180 2.151 . S
N1221 C1220 1.330 . S
N1221 C1225 1.418 . S
C1222 H1201 0.929 . S
C1222 C1220 1.446 . S
C1222 C1223 1.332 . S
C1223 H1203 0.931 . S
C1223 C1222 1.332 . S
C1223 C1224 1.267 . S
C1224 H1192 0.929 . S
C1224 C1223 1.267 . S
C1224 C1225 1.251 . S
C1225 H1195 0.929 . S
C1225 N1221 1.418 . S
C1225 C1224 1.251 . S
C1226 H1193 0.930 . S
C1226 C1228 1.406 . S
C1226 C1231 1.261 . S
C1227 H1194 0.930 . S
C1227 N1229 1.325 . S
C1227 C1230 1.357 . S
C1228 H1196 0.928 . S
C1228 C1226 1.406 . S
C1228 N1229 1.261 . S
N1229 Co1180 2.214 . S
N1229 C1227 1.325 . S
N1229 C1228 1.261 . S
C1230 H1200 0.931 . S
C1230 C1227 1.357 . S
C1230 C1231 1.312 . S
C1231 H1202 0.930 . S
C1231 C1226 1.261 . S
C1231 C1230 1.312 . S
C1232 O1204 1.214 . S
C1232 O1212 1.234 . S
C1233 H1205 0.929 . S
C1233 C1236 1.391 . S
C1233 C1238 1.391 . S
C1234 H1206 0.929 . S
C1234 C1235 1.390 . S
C1234 N1237 1.391 . S
C1235 H1207 0.930 . S
C1235 C1234 1.390 . S
C1235 C1236 1.392 . S
C1236 H1208 0.929 . S
C1236 C1233 1.391 . S
C1236 C1235 1.392 . S
N1237 Co1181 2.257 . S
N1237 C1234 1.391 . S
N1237 C1238 1.388 . S
C1238 H1209 0.930 . S
C1238 C1233 1.391 . S
C1238 N1237 1.388 . S
Co1239 O1241 2.143 . S
Co1239 O1247 2.074 . S
Co1239 O1250 2.093 . S
Co1239 O1263 2.097 . S
Co1239 N1280 2.151 . S
Co1239 N1288 2.214 . S
Co1240 O1241 2.160 . S
Co1240 O1246 2.058 . S
Co1240 O1256 2.057 . S
Co1240 O1271 2.037 . S
Co1240 N1275 2.145 . S
Co1240 N1296 2.257 . S
O1241 Co1239 2.143 . S
O1241 Co1240 2.160 . S
C1242 O1243 1.278 . S
C1242 O1250 1.224 . S
O1243 C1242 1.278 . S
C1244 O1245 1.245 . S
C1244 O1256 1.232 . S
O1245 C1244 1.245 . S
O1246 Co1240 2.058 . S
O1246 C1272 1.269 . S
O1247 Co1239 2.074 . S
O1247 C1272 1.257 . S
H1248 C1273 0.930 . S
H1249 C1279 0.930 . S
O1250 Co1239 2.093 . S
O1250 C1242 1.224 . S
H1251 C1283 0.929 . S
H1252 C1285 0.930 . S
H1253 C1286 0.930 . S
H1254 C1284 0.929 . S
H1255 C1287 0.928 . S
O1256 Co1240 2.057 . S
O1256 C1244 1.232 . S
H1257 C1276 0.929 . S
H1258 C1277 0.929 . S
H1259 C1289 0.931 . S
H1260 C1281 0.929 . S
H1261 C1290 0.930 . S
H1262 C1282 0.931 . S
O1263 Co1239 2.097 . S
O1263 C1291 1.214 . S
H1264 C1292 0.929 . S
H1265 C1293 0.929 . S
H1266 C1294 0.930 . S
H1267 C1295 0.929 . S
H1268 C1297 0.930 . S
H1269 C1274 0.930 . S
H1270 C1278 0.930 . S
O1271 Co1240 2.037 . S
O1271 C1291 1.234 . S
C1272 O1246 1.269 . S
C1272 O1247 1.257 . S
C1273 H1248 0.930 . S
C1273 C1276 1.388 . S
C1273 C1278 1.418 . S
C1274 H1269 0.930 . S
C1274 C1277 1.404 . S
C1274 C1278 1.353 . S
N1275 Co1240 2.145 . S
N1275 C1276 1.397 . S
N1275 C1277 1.334 . S
C1276 H1257 0.929 . S
C1276 C1273 1.388 . S
C1276 N1275 1.397 . S
C1277 H1258 0.929 . S
C1277 C1274 1.404 . S
C1277 N1275 1.334 . S
C1278 H1270 0.930 . S
C1278 C1273 1.418 . S
C1278 C1274 1.353 . S
C1279 H1249 0.930 . S
C1279 N1280 1.330 . S
C1279 C1281 1.446 . S
N1280 Co1239 2.151 . S
N1280 C1279 1.330 . S
N1280 C1284 1.418 . S
C1281 H1260 0.929 . S
C1281 C1279 1.446 . S
C1281 C1282 1.332 . S
C1282 H1262 0.931 . S
C1282 C1281 1.332 . S
C1282 C1283 1.267 . S
C1283 H1251 0.929 . S
C1283 C1282 1.267 . S
C1283 C1284 1.251 . S
C1284 H1254 0.929 . S
C1284 N1280 1.418 . S
C1284 C1283 1.251 . S
C1285 H1252 0.930 . S
C1285 C1287 1.406 . S
C1285 C1290 1.261 . S
C1286 H1253 0.930 . S
C1286 N1288 1.325 . S
C1286 C1289 1.357 . S
C1287 H1255 0.928 . S
C1287 C1285 1.406 . S
C1287 N1288 1.261 . S
N1288 Co1239 2.214 . S
N1288 C1286 1.325 . S
N1288 C1287 1.261 . S
C1289 H1259 0.931 . S
C1289 C1286 1.357 . S
C1289 C1290 1.312 . S
C1290 H1261 0.930 . S
C1290 C1285 1.261 . S
C1290 C1289 1.312 . S
C1291 O1263 1.214 . S
C1291 O1271 1.234 . S
C1292 H1264 0.929 . S
C1292 C1295 1.391 . S
C1292 C1297 1.391 . S
C1293 H1265 0.929 . S
C1293 C1294 1.390 . S
C1293 N1296 1.391 . S
C1294 H1266 0.930 . S
C1294 C1293 1.390 . S
C1294 C1295 1.392 . S
C1295 H1267 0.929 . S
C1295 C1292 1.391 . S
C1295 C1294 1.392 . S
N1296 Co1240 2.257 . S
N1296 C1293 1.391 . S
N1296 C1297 1.388 . S
C1297 H1268 0.930 . S
C1297 C1292 1.391 . S
C1297 N1296 1.388 . S
Co1298 O1300 2.143 . S
Co1298 O1306 2.074 . S
Co1298 O1309 2.093 . S
Co1298 O1322 2.097 . S
Co1298 N1339 2.151 . S
Co1298 N1347 2.214 . S
Co1299 O1300 2.160 . S
Co1299 O1305 2.058 . S
Co1299 O1315 2.057 . S
Co1299 O1330 2.037 . S
Co1299 N1334 2.156 . S
Co1299 N1355 2.257 . S
O1300 Co1298 2.143 . S
O1300 Co1299 2.160 . S
C1301 O1302 1.278 . S
C1301 O1309 1.224 . S
O1302 C1301 1.278 . S
C1303 O1304 1.245 . S
C1303 O1315 1.232 . S
O1304 C1303 1.245 . S
O1305 Co1299 2.058 . S
O1305 C1331 1.269 . S
O1306 Co1298 2.074 . S
O1306 C1331 1.257 . S
H1307 C1332 0.930 . S
H1308 C1338 0.930 . S
O1309 Co1298 2.093 . S
O1309 C1301 1.224 . S
H1310 C1342 0.929 . S
H1311 C1344 0.930 . S
H1312 C1345 0.930 . S
H1313 C1343 0.929 . S
H1314 C1346 0.928 . S
O1315 Co1299 2.057 . S
O1315 C1303 1.232 . S
H1316 C1335 0.929 1_545 S
H1317 C1336 0.929 . S
H1318 C1348 0.931 . S
H1319 C1340 0.929 . S
H1320 C1349 0.930 . S
H1321 C1341 0.931 . S
O1322 Co1298 2.097 . S
O1322 C1350 1.214 . S
H1323 C1351 0.929 . S
H1324 C1352 0.929 . S
H1325 C1353 0.930 . S
H1326 C1354 0.929 . S
H1327 C1356 0.930 . S
H1328 C1333 0.930 . S
H1329 C1337 0.930 . S
O1330 Co1299 2.037 . S
O1330 C1350 1.234 . S
C1331 O1305 1.269 . S
C1331 O1306 1.257 . S
C1332 H1307 0.930 . S
C1332 C1335 1.388 . S
C1332 C1337 1.418 . S
C1333 H1328 0.930 . S
C1333 C1336 1.404 . S
C1333 C1337 1.353 . S
N1334 Co1299 2.156 . S
N1334 C1335 1.397 1_545 S
N1334 C1336 1.324 1_545 S
C1335 H1316 0.929 1_565 S
C1335 C1332 1.388 . S
C1335 N1334 1.397 1_565 S
C1336 H1317 0.929 . S
C1336 C1333 1.404 . S
C1336 N1334 1.324 1_565 S
C1337 H1329 0.930 . S
C1337 C1332 1.418 . S
C1337 C1333 1.353 . S
C1338 H1308 0.930 . S
C1338 N1339 1.330 . S
C1338 C1340 1.446 . S
N1339 Co1298 2.151 . S
N1339 C1338 1.330 . S
N1339 C1343 1.418 . S
C1340 H1319 0.929 . S
C1340 C1338 1.446 . S
C1340 C1341 1.332 . S
C1341 H1321 0.931 . S
C1341 C1340 1.332 . S
C1341 C1342 1.267 . S
C1342 H1310 0.929 . S
C1342 C1341 1.267 . S
C1342 C1343 1.251 . S
C1343 H1313 0.929 . S
C1343 N1339 1.418 . S
C1343 C1342 1.251 . S
C1344 H1311 0.930 . S
C1344 C1346 1.406 . S
C1344 C1349 1.261 . S
C1345 H1312 0.930 . S
C1345 N1347 1.325 . S
C1345 C1348 1.357 . S
C1346 H1314 0.928 . S
C1346 C1344 1.406 . S
C1346 N1347 1.261 . S
N1347 Co1298 2.214 . S
N1347 C1345 1.325 . S
N1347 C1346 1.261 . S
C1348 H1318 0.931 . S
C1348 C1345 1.357 . S
C1348 C1349 1.312 . S
C1349 H1320 0.930 . S
C1349 C1344 1.261 . S
C1349 C1348 1.312 . S
C1350 O1322 1.214 . S
C1350 O1330 1.234 . S
C1351 H1323 0.929 . S
C1351 C1354 1.391 . S
C1351 C1356 1.391 . S
C1352 H1324 0.929 . S
C1352 C1353 1.390 . S
C1352 N1355 1.391 . S
C1353 H1325 0.930 . S
C1353 C1352 1.390 . S
C1353 C1354 1.392 . S
C1354 H1326 0.929 . S
C1354 C1351 1.391 . S
C1354 C1353 1.392 . S
N1355 Co1299 2.257 . S
N1355 C1352 1.391 . S
N1355 C1356 1.388 . S
C1356 H1327 0.930 . S
C1356 C1351 1.391 . S
C1356 N1355 1.388 . S
Co1357 O1359 2.143 . S
Co1357 O1365 2.074 . S
Co1357 O1368 2.093 . S
Co1357 O1381 2.097 . S
Co1357 N1398 2.151 . S
Co1357 N1406 2.214 . S
Co1358 O1359 2.160 1_455 S
Co1358 O1364 2.059 1_455 S
Co1358 O1374 2.057 . S
Co1358 O1389 2.037 . S
Co1358 N1393 2.145 . S
Co1358 N1414 2.257 . S
O1359 Co1357 2.143 . S
O1359 Co1358 2.160 1_655 S
C1360 O1361 1.278 . S
C1360 O1368 1.224 . S
O1361 C1360 1.278 . S
C1362 O1363 1.245 1_455 S
C1362 O1374 1.232 . S
O1363 C1362 1.245 1_655 S
O1364 Co1358 2.059 1_655 S
O1364 C1390 1.270 . S
O1365 Co1357 2.074 . S
O1365 C1390 1.257 . S
H1366 C1391 0.930 . S
H1367 C1397 0.930 . S
O1368 Co1357 2.093 . S
O1368 C1360 1.224 . S
H1369 C1401 0.929 . S
H1370 C1403 0.930 . S
H1371 C1404 0.930 . S
H1372 C1402 0.929 . S
H1373 C1405 0.928 . S
O1374 Co1358 2.057 . S
O1374 C1362 1.232 . S
H1375 C1394 0.929 . S
H1376 C1395 0.929 . S
H1377 C1407 0.931 . S
H1378 C1399 0.929 . S
H1379 C1408 0.930 . S
H1380 C1400 0.931 . S
O1381 Co1357 2.097 . S
O1381 C1409 1.214 . S
H1382 C1410 0.929 . S
H1383 C1411 0.929 . S
H1384 C1412 0.930 . S
H1385 C1413 0.929 . S
H1386 C1415 0.930 1_655 S
H1387 C1392 0.930 . S
H1388 C1396 0.930 . S
O1389 Co1358 2.037 . S
O1389 C1409 1.234 1_455 S
C1390 O1364 1.270 . S
C1390 O1365 1.257 . S
C1391 H1366 0.930 . S
C1391 C1394 1.388 . S
C1391 C1396 1.418 . S
C1392 H1387 0.930 . S
C1392 C1395 1.404 . S
C1392 C1396 1.353 . S
N1393 Co1358 2.145 . S
N1393 C1394 1.397 . S
N1393 C1395 1.334 . S
C1394 H1375 0.929 . S
C1394 C1391 1.388 . S
C1394 N1393 1.397 . S
C1395 H1376 0.929 . S
C1395 C1392 1.404 . S
C1395 N1393 1.334 . S
C1396 H1388 0.930 . S
C1396 C1391 1.418 . S
C1396 C1392 1.353 . S
C1397 H1367 0.930 . S
C1397 N1398 1.330 . S
C1397 C1399 1.446 . S
N1398 Co1357 2.151 . S
N1398 C1397 1.330 . S
N1398 C1402 1.418 . S
C1399 H1378 0.929 . S
C1399 C1397 1.446 . S
C1399 C1400 1.332 . S
C1400 H1380 0.931 . S
C1400 C1399 1.332 . S
C1400 C1401 1.267 . S
C1401 H1369 0.929 . S
C1401 C1400 1.267 . S
C1401 C1402 1.251 . S
C1402 H1372 0.929 . S
C1402 N1398 1.418 . S
C1402 C1401 1.251 . S
C1403 H1370 0.930 . S
C1403 C1405 1.406 . S
C1403 C1408 1.261 . S
C1404 H1371 0.930 . S
C1404 N1406 1.325 . S
C1404 C1407 1.357 . S
C1405 H1373 0.928 . S
C1405 C1403 1.406 . S
C1405 N1406 1.261 . S
N1406 Co1357 2.214 . S
N1406 C1404 1.325 . S
N1406 C1405 1.261 . S
C1407 H1377 0.931 . S
C1407 C1404 1.357 . S
C1407 C1408 1.312 . S
C1408 H1379 0.930 . S
C1408 C1403 1.261 . S
C1408 C1407 1.312 . S
C1409 O1381 1.214 . S
C1409 O1389 1.234 1_655 S
C1410 H1382 0.929 . S
C1410 C1413 1.391 . S
C1410 C1415 1.391 . S
C1411 H1383 0.929 . S
C1411 C1412 1.390 . S
C1411 N1414 1.391 . S
C1412 H1384 0.930 . S
C1412 C1411 1.390 . S
C1412 C1413 1.392 . S
C1413 H1385 0.929 . S
C1413 C1410 1.391 . S
C1413 C1412 1.392 . S
N1414 Co1358 2.257 . S
N1414 C1411 1.391 . S
N1414 C1415 1.388 . S
C1415 H1386 0.930 1_455 S
C1415 C1410 1.391 . S
C1415 N1414 1.388 . S
Co1416 O1418 2.143 . S
Co1416 O1424 2.074 . S
Co1416 O1427 2.093 . S
Co1416 O1440 2.097 . S
Co1416 N1457 2.151 . S
Co1416 N1465 2.214 . S
Co1417 O1418 2.160 . S
Co1417 O1423 2.058 . S
Co1417 O1433 2.072 . S
Co1417 O1448 2.037 . S
Co1417 N1452 2.145 1_565 S
Co1417 N1473 2.257 1_565 S
O1418 Co1416 2.143 . S
O1418 Co1417 2.160 . S
C1419 O1420 1.278 1_565 S
C1419 O1427 1.224 . S
O1420 C1419 1.278 1_545 S
C1421 O1422 1.245 . S
C1421 O1433 1.256 . S
O1422 C1421 1.245 . S
O1423 Co1417 2.058 . S
O1423 C1449 1.269 . S
O1424 Co1416 2.074 . S
O1424 C1449 1.257 . S
H1425 C1450 0.930 . S
H1426 C1456 0.930 . S
O1427 Co1416 2.093 . S
O1427 C1419 1.224 . S
H1428 C1460 0.929 . S
H1429 C1462 0.930 . S
H1430 C1463 0.930 . S
H1431 C1461 0.929 . S
H1432 C1464 0.928 . S
O1433 Co1417 2.072 . S
O1433 C1421 1.256 . S
H1434 C1453 0.929 . S
H1435 C1454 0.929 . S
H1436 C1466 0.931 . S
H1437 C1458 0.929 . S
H1438 C1467 0.930 . S
H1439 C1459 0.931 . S
O1440 Co1416 2.097 . S
O1440 C1468 1.214 . S
H1441 C1469 0.929 . S
H1442 C1470 0.929 . S
H1443 C1471 0.930 . S
H1444 C1472 0.929 . S
H1445 C1474 0.930 . S
H1446 C1451 0.930 . S
H1447 C1455 0.930 . S
O1448 Co1417 2.037 . S
O1448 C1468 1.234 . S
C1449 O1423 1.269 . S
C1449 O1424 1.257 . S
C1450 H1425 0.930 . S
C1450 C1453 1.388 1_545 S
C1450 C1455 1.418 . S
C1451 H1446 0.930 . S
C1451 C1454 1.404 . S
C1451 C1455 1.353 . S
N1452 Co1417 2.145 1_545 S
N1452 C1453 1.397 1_545 S
N1452 C1454 1.334 . S
C1453 H1434 0.929 . S
C1453 C1450 1.388 1_565 S
C1453 N1452 1.397 1_565 S
C1454 H1435 0.929 . S
C1454 C1451 1.404 . S
C1454 N1452 1.334 . S
C1455 H1447 0.930 . S
C1455 C1450 1.418 . S
C1455 C1451 1.353 . S
C1456 H1426 0.930 . S
C1456 N1457 1.330 . S
C1456 C1458 1.446 . S
N1457 Co1416 2.151 . S
N1457 C1456 1.330 . S
N1457 C1461 1.418 . S
C1458 H1437 0.929 . S
C1458 C1456 1.446 . S
C1458 C1459 1.332 . S
C1459 H1439 0.931 . S
C1459 C1458 1.332 . S
C1459 C1460 1.267 . S
C1460 H1428 0.929 . S
C1460 C1459 1.267 . S
C1460 C1461 1.251 . S
C1461 H1431 0.929 . S
C1461 N1457 1.418 . S
C1461 C1460 1.251 . S
C1462 H1429 0.930 . S
C1462 C1464 1.406 . S
C1462 C1467 1.261 . S
C1463 H1430 0.930 . S
C1463 N1465 1.325 . S
C1463 C1466 1.357 . S
C1464 H1432 0.928 . S
C1464 C1462 1.406 . S
C1464 N1465 1.261 . S
N1465 Co1416 2.214 . S
N1465 C1463 1.325 . S
N1465 C1464 1.261 . S
C1466 H1436 0.931 . S
C1466 C1463 1.357 . S
C1466 C1467 1.312 . S
C1467 H1438 0.930 . S
C1467 C1462 1.261 . S
C1467 C1466 1.312 . S
C1468 O1440 1.214 . S
C1468 O1448 1.234 . S
C1469 H1441 0.929 . S
C1469 C1472 1.391 . S
C1469 C1474 1.391 . S
C1470 H1442 0.929 . S
C1470 C1471 1.390 . S
C1470 N1473 1.391 . S
C1471 H1443 0.930 . S
C1471 C1470 1.390 . S
C1471 C1472 1.392 . S
C1472 H1444 0.929 . S
C1472 C1469 1.391 . S
C1472 C1471 1.392 . S
N1473 Co1417 2.257 1_545 S
N1473 C1470 1.391 . S
N1473 C1474 1.388 . S
C1474 H1445 0.930 . S
C1474 C1469 1.391 . S
C1474 N1473 1.388 . S
Co1475 O1477 2.143 . S
Co1475 O1483 2.074 . S
Co1475 O1486 2.093 . S
Co1475 O1499 2.097 . S
Co1475 N1516 2.151 . S
Co1475 N1524 2.214 . S
Co1476 O1477 2.160 . S
Co1476 O1482 2.058 . S
Co1476 O1492 2.057 . S
Co1476 O1507 2.037 . S
Co1476 N1511 2.145 . S
Co1476 N1532 2.257 . S
O1477 Co1475 2.143 . S
O1477 Co1476 2.160 . S
C1478 O1479 1.278 . S
C1478 O1486 1.224 . S
O1479 C1478 1.278 . S
C1480 O1481 1.245 . S
C1480 O1492 1.232 . S
O1481 C1480 1.245 . S
O1482 Co1476 2.058 . S
O1482 C1508 1.269 . S
O1483 Co1475 2.074 . S
O1483 C1508 1.257 . S
H1484 C1509 0.930 . S
H1485 C1515 0.930 . S
O1486 Co1475 2.093 . S
O1486 C1478 1.224 . S
H1487 C1519 0.929 . S
H1488 C1521 0.930 . S
H1489 C1522 0.930 . S
H1490 C1520 0.929 . S
H1491 C1523 0.928 . S
O1492 Co1476 2.057 . S
O1492 C1480 1.232 . S
H1493 C1512 0.929 . S
H1494 C1513 0.929 . S
H1495 C1525 0.931 . S
H1496 C1517 0.929 . S
H1497 C1526 0.930 . S
H1498 C1518 0.931 . S
O1499 Co1475 2.097 . S
O1499 C1527 1.214 . S
H1500 C1528 0.929 . S
H1501 C1529 0.929 . S
H1502 C1530 0.930 . S
H1503 C1531 0.929 . S
H1504 C1533 0.930 . S
H1505 C1510 0.930 . S
H1506 C1514 0.930 . S
O1507 Co1476 2.037 . S
O1507 C1527 1.234 . S
C1508 O1482 1.269 . S
C1508 O1483 1.257 . S
C1509 H1484 0.930 . S
C1509 C1512 1.388 . S
C1509 C1514 1.418 . S
C1510 H1505 0.930 . S
C1510 C1513 1.404 . S
C1510 C1514 1.353 . S
N1511 Co1476 2.145 . S
N1511 C1512 1.397 . S
N1511 C1513 1.334 . S
C1512 H1493 0.929 . S
C1512 C1509 1.388 . S
C1512 N1511 1.397 . S
C1513 H1494 0.929 . S
C1513 C1510 1.404 . S
C1513 N1511 1.334 . S
C1514 H1506 0.930 . S
C1514 C1509 1.418 . S
C1514 C1510 1.353 . S
C1515 H1485 0.930 . S
C1515 N1516 1.330 . S
C1515 C1517 1.446 . S
N1516 Co1475 2.151 . S
N1516 C1515 1.330 . S
N1516 C1520 1.418 . S
C1517 H1496 0.929 . S
C1517 C1515 1.446 . S
C1517 C1518 1.332 . S
C1518 H1498 0.931 . S
C1518 C1517 1.332 . S
C1518 C1519 1.267 . S
C1519 H1487 0.929 . S
C1519 C1518 1.267 . S
C1519 C1520 1.251 . S
C1520 H1490 0.929 . S
C1520 N1516 1.418 . S
C1520 C1519 1.251 . S
C1521 H1488 0.930 . S
C1521 C1523 1.406 . S
C1521 C1526 1.261 . S
C1522 H1489 0.930 . S
C1522 N1524 1.325 . S
C1522 C1525 1.357 . S
C1523 H1491 0.928 . S
C1523 C1521 1.406 . S
C1523 N1524 1.261 . S
N1524 Co1475 2.214 . S
N1524 C1522 1.325 . S
N1524 C1523 1.261 . S
C1525 H1495 0.931 . S
C1525 C1522 1.357 . S
C1525 C1526 1.312 . S
C1526 H1497 0.930 . S
C1526 C1521 1.261 . S
C1526 C1525 1.312 . S
C1527 O1499 1.214 . S
C1527 O1507 1.234 . S
C1528 H1500 0.929 . S
C1528 C1531 1.391 . S
C1528 C1533 1.391 1_655 S
C1529 H1501 0.929 . S
C1529 C1530 1.390 1_455 S
C1529 N1532 1.391 . S
C1530 H1502 0.930 . S
C1530 C1529 1.390 1_655 S
C1530 C1531 1.392 . S
C1531 H1503 0.929 . S
C1531 C1528 1.391 . S
C1531 C1530 1.392 . S
N1532 Co1476 2.257 . S
N1532 C1529 1.391 . S
N1532 C1533 1.388 . S
C1533 H1504 0.930 . S
C1533 C1528 1.391 1_455 S
C1533 N1532 1.388 . S
Co1534 O1536 2.143 . S
Co1534 O1542 2.074 . S
Co1534 O1545 2.093 . S
Co1534 O1558 2.097 . S
Co1534 N1575 2.151 . S
Co1534 N1583 2.214 . S
Co1535 O1536 2.160 . S
Co1535 O1541 2.058 . S
Co1535 O1551 2.057 . S
Co1535 O1566 2.037 . S
Co1535 N1570 2.145 . S
Co1535 N1591 2.257 . S
O1536 Co1534 2.143 . S
O1536 Co1535 2.160 . S
C1537 O1538 1.278 . S
C1537 O1545 1.224 . S
O1538 C1537 1.278 . S
C1539 O1540 1.245 . S
C1539 O1551 1.232 . S
O1540 C1539 1.245 . S
O1541 Co1535 2.058 . S
O1541 C1567 1.269 . S
O1542 Co1534 2.074 . S
O1542 C1567 1.257 . S
H1543 C1568 0.930 . S
H1544 C1574 0.930 . S
O1545 Co1534 2.093 . S
O1545 C1537 1.224 . S
H1546 C1578 0.929 . S
H1547 C1580 0.930 . S
H1548 C1581 0.930 . S
H1549 C1579 0.929 . S
H1550 C1582 0.928 . S
O1551 Co1535 2.057 . S
O1551 C1539 1.232 . S
H1552 C1571 0.929 . S
H1553 C1572 0.929 . S
H1554 C1584 0.931 . S
H1555 C1576 0.929 . S
H1556 C1585 0.930 . S
H1557 C1577 0.931 . S
O1558 Co1534 2.097 . S
O1558 C1586 1.214 . S
H1559 C1587 0.929 . S
H1560 C1588 0.929 . S
H1561 C1589 0.930 . S
H1562 C1590 0.929 . S
H1563 C1592 0.930 . S
H1564 C1569 0.930 . S
H1565 C1573 0.930 . S
O1566 Co1535 2.037 . S
O1566 C1586 1.234 . S
C1567 O1541 1.269 . S
C1567 O1542 1.257 . S
C1568 H1543 0.930 . S
C1568 C1571 1.388 . S
C1568 C1573 1.418 . S
C1569 H1564 0.930 . S
C1569 C1572 1.404 . S
C1569 C1573 1.353 . S
N1570 Co1535 2.145 . S
N1570 C1571 1.397 . S
N1570 C1572 1.334 . S
C1571 H1552 0.929 . S
C1571 C1568 1.388 . S
C1571 N1570 1.397 . S
C1572 H1553 0.929 . S
C1572 C1569 1.404 . S
C1572 N1570 1.334 . S
C1573 H1565 0.930 . S
C1573 C1568 1.418 . S
C1573 C1569 1.353 . S
C1574 H1544 0.930 . S
C1574 N1575 1.330 . S
C1574 C1576 1.446 . S
N1575 Co1534 2.151 . S
N1575 C1574 1.330 . S
N1575 C1579 1.418 . S
C1576 H1555 0.929 . S
C1576 C1574 1.446 . S
C1576 C1577 1.332 . S
C1577 H1557 0.931 . S
C1577 C1576 1.332 . S
C1577 C1578 1.267 . S
C1578 H1546 0.929 . S
C1578 C1577 1.267 . S
C1578 C1579 1.251 . S
C1579 H1549 0.929 . S
C1579 N1575 1.418 . S
C1579 C1578 1.251 . S
C1580 H1547 0.930 . S
C1580 C1582 1.406 . S
C1580 C1585 1.261 . S
C1581 H1548 0.930 . S
C1581 N1583 1.325 . S
C1581 C1584 1.357 . S
C1582 H1550 0.928 . S
C1582 C1580 1.406 . S
C1582 N1583 1.261 . S
N1583 Co1534 2.214 . S
N1583 C1581 1.325 . S
N1583 C1582 1.261 . S
C1584 H1554 0.931 . S
C1584 C1581 1.357 . S
C1584 C1585 1.312 . S
C1585 H1556 0.930 . S
C1585 C1580 1.261 . S
C1585 C1584 1.312 . S
C1586 O1558 1.214 . S
C1586 O1566 1.234 . S
C1587 H1559 0.929 . S
C1587 C1590 1.391 . S
C1587 C1592 1.391 . S
C1588 H1560 0.929 . S
C1588 C1589 1.390 . S
C1588 N1591 1.391 . S
C1589 H1561 0.930 . S
C1589 C1588 1.390 . S
C1589 C1590 1.392 . S
C1590 H1562 0.929 . S
C1590 C1587 1.391 . S
C1590 C1589 1.392 . S
N1591 Co1535 2.257 . S
N1591 C1588 1.391 . S
N1591 C1592 1.388 . S
C1592 H1563 0.930 . S
C1592 C1587 1.391 . S
C1592 N1591 1.388 . S
Co1593 O1595 2.143 . S
Co1593 O1601 2.074 . S
Co1593 O1604 2.093 . S
Co1593 O1617 2.097 . S
Co1593 N1634 2.151 . S
Co1593 N1642 2.214 . S
Co1594 O1595 2.160 . S
Co1594 O1600 2.058 . S
Co1594 O1610 2.057 . S
Co1594 O1625 2.037 . S
Co1594 N1629 2.145 . S
Co1594 N1650 2.257 . S
O1595 Co1593 2.143 . S
O1595 Co1594 2.160 . S
C1596 O1597 1.278 . S
C1596 O1604 1.224 . S
O1597 C1596 1.278 . S
C1598 O1599 1.245 . S
C1598 O1610 1.232 . S
O1599 C1598 1.245 . S
O1600 Co1594 2.058 . S
O1600 C1626 1.269 . S
O1601 Co1593 2.074 . S
O1601 C1626 1.257 . S
H1602 C1627 0.930 . S
H1603 C1633 0.930 . S
O1604 Co1593 2.093 . S
O1604 C1596 1.224 . S
H1605 C1637 0.929 . S
H1606 C1639 0.930 . S
H1607 C1640 0.930 . S
H1608 C1638 0.929 . S
H1609 C1641 0.928 . S
O1610 Co1594 2.057 . S
O1610 C1598 1.232 . S
H1611 C1630 0.929 . S
H1612 C1631 0.929 . S
H1613 C1643 0.931 . S
H1614 C1635 0.929 . S
H1615 C1644 0.930 . S
H1616 C1636 0.931 . S
O1617 Co1593 2.097 . S
O1617 C1645 1.214 . S
H1618 C1646 0.929 . S
H1619 C1647 0.929 . S
H1620 C1648 0.930 . S
H1621 C1649 0.929 . S
H1622 C1651 0.930 . S
H1623 C1628 0.930 . S
H1624 C1632 0.930 . S
O1625 Co1594 2.037 . S
O1625 C1645 1.234 . S
C1626 O1600 1.269 . S
C1626 O1601 1.257 . S
C1627 H1602 0.930 . S
C1627 C1630 1.388 . S
C1627 C1632 1.418 . S
C1628 H1623 0.930 . S
C1628 C1631 1.404 . S
C1628 C1632 1.353 . S
N1629 Co1594 2.145 . S
N1629 C1630 1.397 . S
N1629 C1631 1.334 . S
C1630 H1611 0.929 . S
C1630 C1627 1.388 . S
C1630 N1629 1.397 . S
C1631 H1612 0.929 . S
C1631 C1628 1.404 . S
C1631 N1629 1.334 . S
C1632 H1624 0.930 . S
C1632 C1627 1.418 . S
C1632 C1628 1.353 . S
C1633 H1603 0.930 . S
C1633 N1634 1.330 . S
C1633 C1635 1.446 . S
N1634 Co1593 2.151 . S
N1634 C1633 1.330 . S
N1634 C1638 1.418 . S
C1635 H1614 0.929 . S
C1635 C1633 1.446 . S
C1635 C1636 1.332 . S
C1636 H1616 0.931 . S
C1636 C1635 1.332 . S
C1636 C1637 1.267 . S
C1637 H1605 0.929 . S
C1637 C1636 1.267 . S
C1637 C1638 1.251 . S
C1638 H1608 0.929 . S
C1638 N1634 1.418 . S
C1638 C1637 1.251 . S
C1639 H1606 0.930 . S
C1639 C1641 1.406 . S
C1639 C1644 1.261 . S
C1640 H1607 0.930 . S
C1640 N1642 1.325 . S
C1640 C1643 1.357 . S
C1641 H1609 0.928 . S
C1641 C1639 1.406 . S
C1641 N1642 1.261 . S
N1642 Co1593 2.214 . S
N1642 C1640 1.325 . S
N1642 C1641 1.261 . S
C1643 H1613 0.931 . S
C1643 C1640 1.357 . S
C1643 C1644 1.312 . S
C1644 H1615 0.930 . S
C1644 C1639 1.261 . S
C1644 C1643 1.312 . S
C1645 O1617 1.214 . S
C1645 O1625 1.234 . S
C1646 H1618 0.929 . S
C1646 C1649 1.391 . S
C1646 C1651 1.391 . S
C1647 H1619 0.929 . S
C1647 C1648 1.390 . S
C1647 N1650 1.391 . S
C1648 H1620 0.930 . S
C1648 C1647 1.390 . S
C1648 C1649 1.392 . S
C1649 H1621 0.929 . S
C1649 C1646 1.391 . S
C1649 C1648 1.392 . S
N1650 Co1594 2.257 . S
N1650 C1647 1.391 . S
N1650 C1651 1.388 . S
C1651 H1622 0.930 . S
C1651 C1646 1.391 . S
C1651 N1650 1.388 . S
Co1652 O1654 2.143 . S
Co1652 O1660 2.074 . S
Co1652 O1663 2.093 . S
Co1652 O1676 2.097 . S
Co1652 N1693 2.151 . S
Co1652 N1701 2.214 . S
Co1653 O1654 2.160 1_545 S
Co1653 O1659 2.056 1_545 S
Co1653 O1669 2.057 . S
Co1653 O1684 2.037 . S
Co1653 N1688 2.145 . S
Co1653 N1709 2.257 . S
O1654 Co1652 2.143 . S
O1654 Co1653 2.160 1_565 S
C1655 O1656 1.278 . S
C1655 O1663 1.224 . S
O1656 C1655 1.278 . S
C1657 O1658 1.245 1_545 S
C1657 O1669 1.232 . S
O1658 C1657 1.245 1_565 S
O1659 Co1653 2.056 1_565 S
O1659 C1685 1.272 . S
O1660 Co1652 2.074 . S
O1660 C1685 1.257 . S
H1661 C1686 0.930 . S
H1662 C1692 0.930 . S
O1663 Co1652 2.093 . S
O1663 C1655 1.224 . S
H1664 C1696 0.929 . S
H1665 C1698 0.930 . S
H1666 C1699 0.930 . S
H1667 C1697 0.929 . S
H1668 C1700 0.928 . S
O1669 Co1653 2.057 . S
O1669 C1657 1.232 . S
H1670 C1689 0.929 . S
H1671 C1690 0.929 . S
H1672 C1702 0.931 . S
H1673 C1694 0.929 . S
H1674 C1703 0.930 . S
H1675 C1695 0.931 . S
O1676 Co1652 2.097 . S
O1676 C1704 1.214 . S
H1677 C1705 0.929 . S
H1678 C1706 0.929 . S
H1679 C1707 0.930 . S
H1680 C1708 0.929 . S
H1681 C1710 0.930 1_565 S
H1682 C1687 0.930 . S
H1683 C1691 0.930 . S
O1684 Co1653 2.037 . S
O1684 C1704 1.234 1_545 S
C1685 O1659 1.272 . S
C1685 O1660 1.257 . S
C1686 H1661 0.930 . S
C1686 C1689 1.388 . S
C1686 C1691 1.418 . S
C1687 H1682 0.930 . S
C1687 C1690 1.404 . S
C1687 C1691 1.353 . S
N1688 Co1653 2.145 . S
N1688 C1689 1.397 . S
N1688 C1690 1.334 . S
C1689 H1670 0.929 . S
C1689 C1686 1.388 . S
C1689 N1688 1.397 . S
C1690 H1671 0.929 . S
C1690 C1687 1.404 . S
C1690 N1688 1.334 . S
C1691 H1683 0.930 . S
C1691 C1686 1.418 . S
C1691 C1687 1.353 . S
C1692 H1662 0.930 . S
C1692 N1693 1.330 . S
C1692 C1694 1.446 . S
N1693 Co1652 2.151 . S
N1693 C1692 1.330 . S
N1693 C1697 1.418 . S
C1694 H1673 0.929 . S
C1694 C1692 1.446 . S
C1694 C1695 1.332 . S
C1695 H1675 0.931 . S
C1695 C1694 1.332 . S
C1695 C1696 1.267 . S
C1696 H1664 0.929 . S
C1696 C1695 1.267 . S
C1696 C1697 1.251 . S
C1697 H1667 0.929 . S
C1697 N1693 1.418 . S
C1697 C1696 1.251 . S
C1698 H1665 0.930 . S
C1698 C1700 1.406 . S
C1698 C1703 1.261 . S
C1699 H1666 0.930 . S
C1699 N1701 1.325 . S
C1699 C1702 1.357 . S
C1700 H1668 0.928 . S
C1700 C1698 1.406 . S
C1700 N1701 1.261 . S
N1701 Co1652 2.214 . S
N1701 C1699 1.325 . S
N1701 C1700 1.261 . S
C1702 H1672 0.931 . S
C1702 C1699 1.357 . S
C1702 C1703 1.312 . S
C1703 H1674 0.930 . S
C1703 C1698 1.261 . S
C1703 C1702 1.312 . S
C1704 O1676 1.214 . S
C1704 O1684 1.234 1_565 S
C1705 H1677 0.929 . S
C1705 C1708 1.391 . S
C1705 C1710 1.391 . S
C1706 H1678 0.929 . S
C1706 C1707 1.390 . S
C1706 N1709 1.391 . S
C1707 H1679 0.930 . S
C1707 C1706 1.390 . S
C1707 C1708 1.392 . S
C1708 H1680 0.929 . S
C1708 C1705 1.391 . S
C1708 C1707 1.392 . S
N1709 Co1653 2.257 . S
N1709 C1706 1.391 . S
N1709 C1710 1.388 . S
C1710 H1681 0.930 1_545 S
C1710 C1705 1.391 . S
C1710 N1709 1.388 . S
Co1711 O1713 2.143 . S
Co1711 O1719 2.074 . S
Co1711 O1722 2.093 . S
Co1711 O1735 2.097 . S
Co1711 N1752 2.151 . S
Co1711 N1760 2.214 . S
Co1712 O1713 2.160 . S
Co1712 O1718 2.058 . S
Co1712 O1728 2.057 . S
Co1712 O1743 2.037 . S
Co1712 N1747 2.158 . S
Co1712 N1768 2.257 . S
O1713 Co1711 2.143 . S
O1713 Co1712 2.160 . S
C1714 O1715 1.278 . S
C1714 O1722 1.224 . S
O1715 C1714 1.278 . S
C1716 O1717 1.245 . S
C1716 O1728 1.232 . S
O1717 C1716 1.245 . S
O1718 Co1712 2.058 . S
O1718 C1744 1.269 . S
O1719 Co1711 2.074 . S
O1719 C1744 1.257 . S
H1720 C1745 0.930 . S
H1721 C1751 0.930 . S
O1722 Co1711 2.093 . S
O1722 C1714 1.224 . S
H1723 C1755 0.929 . S
H1724 C1757 0.930 . S
H1725 C1758 0.930 . S
H1726 C1756 0.929 . S
H1727 C1759 0.928 . S
O1728 Co1712 2.057 . S
O1728 C1716 1.232 . S
H1729 C1748 0.929 1_455 S
H1730 C1749 0.929 . S
H1731 C1761 0.931 . S
H1732 C1753 0.929 . S
H1733 C1762 0.930 . S
H1734 C1754 0.931 . S
O1735 Co1711 2.097 . S
O1735 C1763 1.214 . S
H1736 C1764 0.929 . S
H1737 C1765 0.929 . S
H1738 C1766 0.930 . S
H1739 C1767 0.929 . S
H1740 C1769 0.930 . S
H1741 C1746 0.930 . S
H1742 C1750 0.930 . S
O1743 Co1712 2.037 . S
O1743 C1763 1.234 . S
C1744 O1718 1.269 . S
C1744 O1719 1.257 . S
C1745 H1720 0.930 . S
C1745 C1748 1.388 . S
C1745 C1750 1.418 . S
C1746 H1741 0.930 . S
C1746 C1749 1.404 . S
C1746 C1750 1.353 . S
N1747 Co1712 2.158 . S
N1747 C1748 1.390 1_455 S
N1747 C1749 1.327 1_455 S
C1748 H1729 0.929 1_655 S
C1748 C1745 1.388 . S
C1748 N1747 1.390 1_655 S
C1749 H1730 0.929 . S
C1749 C1746 1.404 . S
C1749 N1747 1.327 1_655 S
C1750 H1742 0.930 . S
C1750 C1745 1.418 . S
C1750 C1746 1.353 . S
C1751 H1721 0.930 . S
C1751 N1752 1.330 . S
C1751 C1753 1.446 . S
N1752 Co1711 2.151 . S
N1752 C1751 1.330 . S
N1752 C1756 1.418 . S
C1753 H1732 0.929 . S
C1753 C1751 1.446 . S
C1753 C1754 1.332 . S
C1754 H1734 0.931 . S
C1754 C1753 1.332 . S
C1754 C1755 1.267 . S
C1755 H1723 0.929 . S
C1755 C1754 1.267 . S
C1755 C1756 1.251 . S
C1756 H1726 0.929 . S
C1756 N1752 1.418 . S
C1756 C1755 1.251 . S
C1757 H1724 0.930 . S
C1757 C1759 1.406 . S
C1757 C1762 1.261 . S
C1758 H1725 0.930 . S
C1758 N1760 1.325 . S
C1758 C1761 1.357 . S
C1759 H1727 0.928 . S
C1759 C1757 1.406 . S
C1759 N1760 1.261 . S
N1760 Co1711 2.214 . S
N1760 C1758 1.325 . S
N1760 C1759 1.261 . S
C1761 H1731 0.931 . S
C1761 C1758 1.357 . S
C1761 C1762 1.312 . S
C1762 H1733 0.930 . S
C1762 C1757 1.261 . S
C1762 C1761 1.312 . S
C1763 O1735 1.214 . S
C1763 O1743 1.234 . S
C1764 H1736 0.929 . S
C1764 C1767 1.391 . S
C1764 C1769 1.391 . S
C1765 H1737 0.929 . S
C1765 C1766 1.390 . S
C1765 N1768 1.391 . S
C1766 H1738 0.930 . S
C1766 C1765 1.390 . S
C1766 C1767 1.392 . S
C1767 H1739 0.929 . S
C1767 C1764 1.391 . S
C1767 C1766 1.392 . S
N1768 Co1712 2.257 . S
N1768 C1765 1.391 . S
N1768 C1769 1.388 . S
C1769 H1740 0.930 . S
C1769 C1764 1.391 . S
C1769 N1768 1.388 . S
Co1770 O1772 2.143 . S
Co1770 O1778 2.074 . S
Co1770 O1781 2.093 . S
Co1770 O1794 2.097 . S
Co1770 N1811 2.151 . S
Co1770 N1819 2.214 . S
Co1771 O1772 2.160 . S
Co1771 O1777 2.058 . S
Co1771 O1787 2.057 . S
Co1771 O1802 2.037 . S
Co1771 N1806 2.145 . S
Co1771 N1827 2.257 . S
O1772 Co1770 2.143 . S
O1772 Co1771 2.160 . S
C1773 O1774 1.278 . S
C1773 O1781 1.224 . S
O1774 C1773 1.278 . S
C1775 O1776 1.245 . S
C1775 O1787 1.232 . S
O1776 C1775 1.245 . S
O1777 Co1771 2.058 . S
O1777 C1803 1.269 . S
O1778 Co1770 2.074 . S
O1778 C1803 1.257 . S
H1779 C1804 0.930 . S
H1780 C1810 0.930 . S
O1781 Co1770 2.093 . S
O1781 C1773 1.224 . S
H1782 C1814 0.929 . S
H1783 C1816 0.930 . S
H1784 C1817 0.930 . S
H1785 C1815 0.929 . S
H1786 C1818 0.928 . S
O1787 Co1771 2.057 . S
O1787 C1775 1.232 . S
H1788 C1807 0.929 . S
H1789 C1808 0.929 . S
H1790 C1820 0.931 . S
H1791 C1812 0.929 . S
H1792 C1821 0.930 . S
H1793 C1813 0.931 . S
O1794 Co1770 2.097 . S
O1794 C1822 1.214 . S
H1795 C1823 0.929 . S
H1796 C1824 0.929 . S
H1797 C1825 0.930 . S
H1798 C1826 0.929 . S
H1799 C1828 0.930 . S
H1800 C1805 0.930 . S
H1801 C1809 0.930 . S
O1802 Co1771 2.037 . S
O1802 C1822 1.234 . S
C1803 O1777 1.269 . S
C1803 O1778 1.257 . S
C1804 H1779 0.930 . S
C1804 C1807 1.388 . S
C1804 C1809 1.418 . S
C1805 H1800 0.930 . S
C1805 C1808 1.404 . S
C1805 C1809 1.353 . S
N1806 Co1771 2.145 . S
N1806 C1807 1.397 . S
N1806 C1808 1.334 . S
C1807 H1788 0.929 . S
C1807 C1804 1.388 . S
C1807 N1806 1.397 . S
C1808 H1789 0.929 . S
C1808 C1805 1.404 . S
C1808 N1806 1.334 . S
C1809 H1801 0.930 . S
C1809 C1804 1.418 . S
C1809 C1805 1.353 . S
C1810 H1780 0.930 . S
C1810 N1811 1.330 . S
C1810 C1812 1.446 . S
N1811 Co1770 2.151 . S
N1811 C1810 1.330 . S
N1811 C1815 1.418 . S
C1812 H1791 0.929 . S
C1812 C1810 1.446 . S
C1812 C1813 1.332 . S
C1813 H1793 0.931 . S
C1813 C1812 1.332 . S
C1813 C1814 1.267 . S
C1814 H1782 0.929 . S
C1814 C1813 1.267 . S
C1814 C1815 1.251 . S
C1815 H1785 0.929 . S
C1815 N1811 1.418 . S
C1815 C1814 1.251 . S
C1816 H1783 0.930 . S
C1816 C1818 1.406 . S
C1816 C1821 1.261 . S
C1817 H1784 0.930 . S
C1817 N1819 1.325 . S
C1817 C1820 1.357 . S
C1818 H1786 0.928 . S
C1818 C1816 1.406 . S
C1818 N1819 1.261 . S
N1819 Co1770 2.214 . S
N1819 C1817 1.325 . S
N1819 C1818 1.261 . S
C1820 H1790 0.931 . S
C1820 C1817 1.357 . S
C1820 C1821 1.312 . S
C1821 H1792 0.930 . S
C1821 C1816 1.261 . S
C1821 C1820 1.312 . S
C1822 O1794 1.214 . S
C1822 O1802 1.234 . S
C1823 H1795 0.929 . S
C1823 C1826 1.391 . S
C1823 C1828 1.391 . S
C1824 H1796 0.929 . S
C1824 C1825 1.390 . S
C1824 N1827 1.391 . S
C1825 H1797 0.930 . S
C1825 C1824 1.390 . S
C1825 C1826 1.392 . S
C1826 H1798 0.929 . S
C1826 C1823 1.391 . S
C1826 C1825 1.392 . S
N1827 Co1771 2.257 . S
N1827 C1824 1.391 . S
N1827 C1828 1.388 . S
C1828 H1799 0.930 . S
C1828 C1823 1.391 . S
C1828 N1827 1.388 . S
Co1829 O1831 2.143 . S
Co1829 O1837 2.074 . S
Co1829 O1840 2.093 . S
Co1829 O1853 2.097 . S
Co1829 N1870 2.151 . S
Co1829 N1878 2.214 . S
Co1830 O1831 2.160 1_545 S
Co1830 O1836 2.059 1_545 S
Co1830 O1846 2.057 . S
Co1830 O1861 2.037 . S
Co1830 N1865 2.145 . S
Co1830 N1886 2.257 . S
O1831 Co1829 2.143 . S
O1831 Co1830 2.160 1_565 S
C1832 O1833 1.278 . S
C1832 O1840 1.224 . S
O1833 C1832 1.278 . S
C1834 O1835 1.245 1_545 S
C1834 O1846 1.232 . S
O1835 C1834 1.245 1_565 S
O1836 Co1830 2.059 1_565 S
O1836 C1862 1.270 . S
O1837 Co1829 2.074 . S
O1837 C1862 1.257 . S
H1838 C1863 0.930 . S
H1839 C1869 0.930 . S
O1840 Co1829 2.093 . S
O1840 C1832 1.224 . S
H1841 C1873 0.929 . S
H1842 C1875 0.930 . S
H1843 C1876 0.930 . S
H1844 C1874 0.929 . S
H1845 C1877 0.928 . S
O1846 Co1830 2.057 . S
O1846 C1834 1.232 . S
H1847 C1866 0.929 . S
H1848 C1867 0.929 . S
H1849 C1879 0.931 . S
H1850 C1871 0.929 . S
H1851 C1880 0.930 . S
H1852 C1872 0.931 . S
O1853 Co1829 2.097 . S
O1853 C1881 1.214 . S
H1854 C1882 0.929 . S
H1855 C1883 0.929 . S
H1856 C1884 0.930 . S
H1857 C1885 0.929 . S
H1858 C1887 0.930 1_565 S
H1859 C1864 0.930 . S
H1860 C1868 0.930 . S
O1861 Co1830 2.037 . S
O1861 C1881 1.234 1_545 S
C1862 O1836 1.270 . S
C1862 O1837 1.257 . S
C1863 H1838 0.930 . S
C1863 C1866 1.388 . S
C1863 C1868 1.418 . S
C1864 H1859 0.930 . S
C1864 C1867 1.404 . S
C1864 C1868 1.353 . S
N1865 Co1830 2.145 . S
N1865 C1866 1.397 . S
N1865 C1867 1.334 . S
C1866 H1847 0.929 . S
C1866 C1863 1.388 . S
C1866 N1865 1.397 . S
C1867 H1848 0.929 . S
C1867 C1864 1.404 . S
C1867 N1865 1.334 . S
C1868 H1860 0.930 . S
C1868 C1863 1.418 . S
C1868 C1864 1.353 . S
C1869 H1839 0.930 . S
C1869 N1870 1.330 . S
C1869 C1871 1.446 . S
N1870 Co1829 2.151 . S
N1870 C1869 1.330 . S
N1870 C1874 1.418 . S
C1871 H1850 0.929 . S
C1871 C1869 1.446 . S
C1871 C1872 1.332 . S
C1872 H1852 0.931 . S
C1872 C1871 1.332 . S
C1872 C1873 1.267 . S
C1873 H1841 0.929 . S
C1873 C1872 1.267 . S
C1873 C1874 1.251 . S
C1874 H1844 0.929 . S
C1874 N1870 1.418 . S
C1874 C1873 1.251 . S
C1875 H1842 0.930 . S
C1875 C1877 1.406 . S
C1875 C1880 1.261 . S
C1876 H1843 0.930 . S
C1876 N1878 1.325 . S
C1876 C1879 1.357 . S
C1877 H1845 0.928 . S
C1877 C1875 1.406 . S
C1877 N1878 1.261 . S
N1878 Co1829 2.214 . S
N1878 C1876 1.325 . S
N1878 C1877 1.261 . S
C1879 H1849 0.931 . S
C1879 C1876 1.357 . S
C1879 C1880 1.312 . S
C1880 H1851 0.930 . S
C1880 C1875 1.261 . S
C1880 C1879 1.312 . S
C1881 O1853 1.214 . S
C1881 O1861 1.234 1_565 S
C1882 H1854 0.929 . S
C1882 C1885 1.391 . S
C1882 C1887 1.391 . S
C1883 H1855 0.929 . S
C1883 C1884 1.390 . S
C1883 N1886 1.391 . S
C1884 H1856 0.930 . S
C1884 C1883 1.390 . S
C1884 C1885 1.392 . S
C1885 H1857 0.929 . S
C1885 C1882 1.391 . S
C1885 C1884 1.392 . S
N1886 Co1830 2.257 . S
N1886 C1883 1.391 . S
N1886 C1887 1.388 . S
C1887 H1858 0.930 1_545 S
C1887 C1882 1.391 . S
C1887 N1886 1.388 . S
Co1888 O1890 2.143 . S
Co1888 O1896 2.074 . S
Co1888 O1899 2.093 . S
Co1888 O1912 2.097 . S
Co1888 N1929 2.151 . S
Co1888 N1937 2.214 . S
Co1889 O1890 2.160 . S
Co1889 O1895 2.058 . S
Co1889 O1905 2.057 . S
Co1889 O1920 2.037 . S
Co1889 N1924 2.156 . S
Co1889 N1945 2.257 . S
O1890 Co1888 2.143 . S
O1890 Co1889 2.160 . S
C1891 O1892 1.278 . S
C1891 O1899 1.224 . S
O1892 C1891 1.278 . S
C1893 O1894 1.245 . S
C1893 O1905 1.232 . S
O1894 C1893 1.245 . S
O1895 Co1889 2.058 . S
O1895 C1921 1.269 . S
O1896 Co1888 2.074 . S
O1896 C1921 1.257 . S
H1897 C1922 0.930 . S
H1898 C1928 0.930 . S
O1899 Co1888 2.093 . S
O1899 C1891 1.224 . S
H1900 C1932 0.929 . S
H1901 C1934 0.930 . S
H1902 C1935 0.930 . S
H1903 C1933 0.929 . S
H1904 C1936 0.928 . S
O1905 Co1889 2.057 . S
O1905 C1893 1.232 . S
H1906 C1925 0.929 1_455 S
H1907 C1926 0.929 . S
H1908 C1938 0.931 . S
H1909 C1930 0.929 . S
H1910 C1939 0.930 . S
H1911 C1931 0.931 . S
O1912 Co1888 2.097 . S
O1912 C1940 1.214 . S
H1913 C1941 0.929 . S
H1914 C1942 0.929 . S
H1915 C1943 0.930 . S
H1916 C1944 0.929 . S
H1917 C1946 0.930 . S
H1918 C1923 0.930 . S
H1919 C1927 0.930 . S
O1920 Co1889 2.037 . S
O1920 C1940 1.234 . S
C1921 O1895 1.269 . S
C1921 O1896 1.257 . S
C1922 H1897 0.930 . S
C1922 C1925 1.388 . S
C1922 C1927 1.418 . S
C1923 H1918 0.930 . S
C1923 C1926 1.404 . S
C1923 C1927 1.353 . S
N1924 Co1889 2.156 . S
N1924 C1925 1.397 1_455 S
N1924 C1926 1.324 1_455 S
C1925 H1906 0.929 1_655 S
C1925 C1922 1.388 . S
C1925 N1924 1.397 1_655 S
C1926 H1907 0.929 . S
C1926 C1923 1.404 . S
C1926 N1924 1.324 1_655 S
C1927 H1919 0.930 . S
C1927 C1922 1.418 . S
C1927 C1923 1.353 . S
C1928 H1898 0.930 . S
C1928 N1929 1.330 . S
C1928 C1930 1.446 . S
N1929 Co1888 2.151 . S
N1929 C1928 1.330 . S
N1929 C1933 1.418 . S
C1930 H1909 0.929 . S
C1930 C1928 1.446 . S
C1930 C1931 1.332 . S
C1931 H1911 0.931 . S
C1931 C1930 1.332 . S
C1931 C1932 1.267 . S
C1932 H1900 0.929 . S
C1932 C1931 1.267 . S
C1932 C1933 1.251 . S
C1933 H1903 0.929 . S
C1933 N1929 1.418 . S
C1933 C1932 1.251 . S
C1934 H1901 0.930 . S
C1934 C1936 1.406 . S
C1934 C1939 1.261 . S
C1935 H1902 0.930 . S
C1935 N1937 1.325 . S
C1935 C1938 1.357 . S
C1936 H1904 0.928 . S
C1936 C1934 1.406 . S
C1936 N1937 1.261 . S
N1937 Co1888 2.214 . S
N1937 C1935 1.325 . S
N1937 C1936 1.261 . S
C1938 H1908 0.931 . S
C1938 C1935 1.357 . S
C1938 C1939 1.312 . S
C1939 H1910 0.930 . S
C1939 C1934 1.261 . S
C1939 C1938 1.312 . S
C1940 O1912 1.214 . S
C1940 O1920 1.234 . S
C1941 H1913 0.929 . S
C1941 C1944 1.391 . S
C1941 C1946 1.391 . S
C1942 H1914 0.929 . S
C1942 C1943 1.390 . S
C1942 N1945 1.391 . S
C1943 H1915 0.930 . S
C1943 C1942 1.390 . S
C1943 C1944 1.392 . S
C1944 H1916 0.929 . S
C1944 C1941 1.391 . S
C1944 C1943 1.392 . S
N1945 Co1889 2.257 . S
N1945 C1942 1.391 . S
N1945 C1946 1.388 . S
C1946 H1917 0.930 . S
C1946 C1941 1.391 . S
C1946 N1945 1.388 . S
Co1947 O1949 2.143 . S
Co1947 O1955 2.074 . S
Co1947 O1958 2.093 . S
Co1947 O1971 2.097 . S
Co1947 N1988 2.151 . S
Co1947 N1996 2.214 . S
Co1948 O1949 2.160 . S
Co1948 O1954 2.058 . S
Co1948 O1964 2.057 . S
Co1948 O1979 2.037 . S
Co1948 N1983 2.145 . S
Co1948 N2004 2.257 . S
O1949 Co1947 2.143 . S
O1949 Co1948 2.160 . S
C1950 O1951 1.278 . S
C1950 O1958 1.224 . S
O1951 C1950 1.278 . S
C1952 O1953 1.245 . S
C1952 O1964 1.232 . S
O1953 C1952 1.245 . S
O1954 Co1948 2.058 . S
O1954 C1980 1.269 . S
O1955 Co1947 2.074 . S
O1955 C1980 1.257 . S
H1956 C1981 0.930 . S
H1957 C1987 0.930 . S
O1958 Co1947 2.093 . S
O1958 C1950 1.224 . S
H1959 C1991 0.929 . S
H1960 C1993 0.930 . S
H1961 C1994 0.930 . S
H1962 C1992 0.929 . S
H1963 C1995 0.928 . S
O1964 Co1948 2.057 . S
O1964 C1952 1.232 . S
H1965 C1984 0.929 . S
H1966 C1985 0.929 . S
H1967 C1997 0.931 . S
H1968 C1989 0.929 . S
H1969 C1998 0.930 . S
H1970 C1990 0.931 . S
O1971 Co1947 2.097 . S
O1971 C1999 1.214 . S
H1972 C2000 0.929 . S
H1973 C2001 0.929 . S
H1974 C2002 0.930 . S
H1975 C2003 0.929 . S
H1976 C2005 0.930 . S
H1977 C1982 0.930 . S
H1978 C1986 0.930 . S
O1979 Co1948 2.037 . S
O1979 C1999 1.234 . S
C1980 O1954 1.269 . S
C1980 O1955 1.257 . S
C1981 H1956 0.930 . S
C1981 C1984 1.388 . S
C1981 C1986 1.418 . S
C1982 H1977 0.930 . S
C1982 C1985 1.404 . S
C1982 C1986 1.353 . S
N1983 Co1948 2.145 . S
N1983 C1984 1.397 . S
N1983 C1985 1.334 . S
C1984 H1965 0.929 . S
C1984 C1981 1.388 . S
C1984 N1983 1.397 . S
C1985 H1966 0.929 . S
C1985 C1982 1.404 . S
C1985 N1983 1.334 . S
C1986 H1978 0.930 . S
C1986 C1981 1.418 . S
C1986 C1982 1.353 . S
C1987 H1957 0.930 . S
C1987 N1988 1.330 . S
C1987 C1989 1.446 . S
N1988 Co1947 2.151 . S
N1988 C1987 1.330 . S
N1988 C1992 1.418 . S
C1989 H1968 0.929 . S
C1989 C1987 1.446 . S
C1989 C1990 1.332 . S
C1990 H1970 0.931 . S
C1990 C1989 1.332 . S
C1990 C1991 1.267 . S
C1991 H1959 0.929 . S
C1991 C1990 1.267 . S
C1991 C1992 1.251 . S
C1992 H1962 0.929 . S
C1992 N1988 1.418 . S
C1992 C1991 1.251 . S
C1993 H1960 0.930 . S
C1993 C1995 1.406 . S
C1993 C1998 1.261 . S
C1994 H1961 0.930 . S
C1994 N1996 1.325 . S
C1994 C1997 1.357 . S
C1995 H1963 0.928 . S
C1995 C1993 1.406 . S
C1995 N1996 1.261 . S
N1996 Co1947 2.214 . S
N1996 C1994 1.325 . S
N1996 C1995 1.261 . S
C1997 H1967 0.931 . S
C1997 C1994 1.357 . S
C1997 C1998 1.312 . S
C1998 H1969 0.930 . S
C1998 C1993 1.261 . S
C1998 C1997 1.312 . S
C1999 O1971 1.214 . S
C1999 O1979 1.234 . S
C2000 H1972 0.929 . S
C2000 C2003 1.391 . S
C2000 C2005 1.391 1_655 S
C2001 H1973 0.929 . S
C2001 C2002 1.390 1_455 S
C2001 N2004 1.391 . S
C2002 H1974 0.930 . S
C2002 C2001 1.390 1_655 S
C2002 C2003 1.392 . S
C2003 H1975 0.929 . S
C2003 C2000 1.391 . S
C2003 C2002 1.392 . S
N2004 Co1948 2.257 . S
N2004 C2001 1.391 . S
N2004 C2005 1.388 . S
C2005 H1976 0.930 . S
C2005 C2000 1.391 1_455 S
C2005 N2004 1.388 . S
Co2006 O2008 2.143 . S
Co2006 O2014 2.074 . S
Co2006 O2017 2.093 . S
Co2006 O2030 2.097 . S
Co2006 N2047 2.151 . S
Co2006 N2055 2.214 . S
Co2007 O2008 2.160 . S
Co2007 O2013 2.058 . S
Co2007 O2023 2.057 . S
Co2007 O2038 2.037 . S
Co2007 N2042 2.145 . S
Co2007 N2063 2.257 . S
O2008 Co2006 2.143 . S
O2008 Co2007 2.160 . S
C2009 O2010 1.278 . S
C2009 O2017 1.224 . S
O2010 C2009 1.278 . S
C2011 O2012 1.245 . S
C2011 O2023 1.232 . S
O2012 C2011 1.245 . S
O2013 Co2007 2.058 . S
O2013 C2039 1.269 . S
O2014 Co2006 2.074 . S
O2014 C2039 1.257 . S
H2015 C2040 0.930 . S
H2016 C2046 0.930 . S
O2017 Co2006 2.093 . S
O2017 C2009 1.224 . S
H2018 C2050 0.929 . S
H2019 C2052 0.930 . S
H2020 C2053 0.930 . S
H2021 C2051 0.929 . S
H2022 C2054 0.928 . S
O2023 Co2007 2.057 . S
O2023 C2011 1.232 . S
H2024 C2043 0.929 . S
H2025 C2044 0.929 . S
H2026 C2056 0.931 . S
H2027 C2048 0.929 . S
H2028 C2057 0.930 . S
H2029 C2049 0.931 . S
O2030 Co2006 2.097 . S
O2030 C2058 1.214 . S
H2031 C2059 0.929 . S
H2032 C2060 0.929 . S
H2033 C2061 0.930 . S
H2034 C2062 0.929 . S
H2035 C2064 0.930 . S
H2036 C2041 0.930 . S
H2037 C2045 0.930 . S
O2038 Co2007 2.037 . S
O2038 C2058 1.234 . S
C2039 O2013 1.269 . S
C2039 O2014 1.257 . S
C2040 H2015 0.930 . S
C2040 C2043 1.388 . S
C2040 C2045 1.418 . S
C2041 H2036 0.930 . S
C2041 C2044 1.404 . S
C2041 C2045 1.353 . S
N2042 Co2007 2.145 . S
N2042 C2043 1.397 . S
N2042 C2044 1.334 . S
C2043 H2024 0.929 . S
C2043 C2040 1.388 . S
C2043 N2042 1.397 . S
C2044 H2025 0.929 . S
C2044 C2041 1.404 . S
C2044 N2042 1.334 . S
C2045 H2037 0.930 . S
C2045 C2040 1.418 . S
C2045 C2041 1.353 . S
C2046 H2016 0.930 . S
C2046 N2047 1.330 . S
C2046 C2048 1.446 . S
N2047 Co2006 2.151 . S
N2047 C2046 1.330 . S
N2047 C2051 1.418 . S
C2048 H2027 0.929 . S
C2048 C2046 1.446 . S
C2048 C2049 1.332 . S
C2049 H2029 0.931 . S
C2049 C2048 1.332 . S
C2049 C2050 1.267 . S
C2050 H2018 0.929 . S
C2050 C2049 1.267 . S
C2050 C2051 1.251 . S
C2051 H2021 0.929 . S
C2051 N2047 1.418 . S
C2051 C2050 1.251 . S
C2052 H2019 0.930 . S
C2052 C2054 1.406 . S
C2052 C2057 1.261 . S
C2053 H2020 0.930 . S
C2053 N2055 1.325 . S
C2053 C2056 1.357 . S
C2054 H2022 0.928 . S
C2054 C2052 1.406 . S
C2054 N2055 1.261 . S
N2055 Co2006 2.214 . S
N2055 C2053 1.325 . S
N2055 C2054 1.261 . S
C2056 H2026 0.931 . S
C2056 C2053 1.357 . S
C2056 C2057 1.312 . S
C2057 H2028 0.930 . S
C2057 C2052 1.261 . S
C2057 C2056 1.312 . S
C2058 O2030 1.214 . S
C2058 O2038 1.234 . S
C2059 H2031 0.929 . S
C2059 C2062 1.391 . S
C2059 C2064 1.391 . S
C2060 H2032 0.929 . S
C2060 C2061 1.390 . S
C2060 N2063 1.391 . S
C2061 H2033 0.930 . S
C2061 C2060 1.390 . S
C2061 C2062 1.392 . S
C2062 H2034 0.929 . S
C2062 C2059 1.391 . S
C2062 C2061 1.392 . S
N2063 Co2007 2.257 . S
N2063 C2060 1.391 . S
N2063 C2064 1.388 . S
C2064 H2035 0.930 . S
C2064 C2059 1.391 . S
C2064 N2063 1.388 . S
Co2065 O2067 2.143 . S
Co2065 O2073 2.074 . S
Co2065 O2076 2.093 . S
Co2065 O2089 2.097 . S
Co2065 N2106 2.151 . S
Co2065 N2114 2.214 . S
Co2066 O2067 2.160 . S
Co2066 O2072 2.058 . S
Co2066 O2082 2.066 . S
Co2066 O2097 2.037 . S
Co2066 N2101 2.145 1_565 S
Co2066 N2122 2.257 1_565 S
O2067 Co2065 2.143 . S
O2067 Co2066 2.160 . S
C2068 O2069 1.278 1_565 S
C2068 O2076 1.224 . S
O2069 C2068 1.278 1_545 S
C2070 O2071 1.245 . S
C2070 O2082 1.231 . S
O2071 C2070 1.245 . S
O2072 Co2066 2.058 . S
O2072 C2098 1.269 . S
O2073 Co2065 2.074 . S
O2073 C2098 1.257 . S
H2074 C2099 0.930 . S
H2075 C2105 0.930 . S
O2076 Co2065 2.093 . S
O2076 C2068 1.224 . S
H2077 C2109 0.929 . S
H2078 C2111 0.930 . S
H2079 C2112 0.930 . S
H2080 C2110 0.929 . S
H2081 C2113 0.928 . S
O2082 Co2066 2.066 . S
O2082 C2070 1.231 . S
H2083 C2102 0.929 . S
H2084 C2103 0.929 . S
H2085 C2115 0.931 . S
H2086 C2107 0.929 . S
H2087 C2116 0.930 . S
H2088 C2108 0.931 . S
O2089 Co2065 2.097 . S
O2089 C2117 1.214 . S
H2090 C2118 0.929 . S
H2091 C2119 0.929 . S
H2092 C2120 0.930 . S
H2093 C2121 0.929 . S
H2094 C2123 0.930 . S
H2095 C2100 0.930 . S
H2096 C2104 0.930 . S
O2097 Co2066 2.037 . S
O2097 C2117 1.234 . S
C2098 O2072 1.269 . S
C2098 O2073 1.257 . S
C2099 H2074 0.930 . S
C2099 C2102 1.388 1_545 S
C2099 C2104 1.418 . S
C2100 H2095 0.930 . S
C2100 C2103 1.404 . S
C2100 C2104 1.353 . S
N2101 Co2066 2.145 1_545 S
N2101 C2102 1.397 1_545 S
N2101 C2103 1.334 . S
C2102 H2083 0.929 . S
C2102 C2099 1.388 1_565 S
C2102 N2101 1.397 1_565 S
C2103 H2084 0.929 . S
C2103 C2100 1.404 . S
C2103 N2101 1.334 . S
C2104 H2096 0.930 . S
C2104 C2099 1.418 . S
C2104 C2100 1.353 . S
C2105 H2075 0.930 . S
C2105 N2106 1.330 . S
C2105 C2107 1.446 . S
N2106 Co2065 2.151 . S
N2106 C2105 1.330 . S
N2106 C2110 1.418 . S
C2107 H2086 0.929 . S
C2107 C2105 1.446 . S
C2107 C2108 1.332 . S
C2108 H2088 0.931 . S
C2108 C2107 1.332 . S
C2108 C2109 1.267 . S
C2109 H2077 0.929 . S
C2109 C2108 1.267 . S
C2109 C2110 1.251 . S
C2110 H2080 0.929 . S
C2110 N2106 1.418 . S
C2110 C2109 1.251 . S
C2111 H2078 0.930 . S
C2111 C2113 1.406 . S
C2111 C2116 1.261 . S
C2112 H2079 0.930 . S
C2112 N2114 1.325 . S
C2112 C2115 1.357 . S
C2113 H2081 0.928 . S
C2113 C2111 1.406 . S
C2113 N2114 1.261 . S
N2114 Co2065 2.214 . S
N2114 C2112 1.325 . S
N2114 C2113 1.261 . S
C2115 H2085 0.931 . S
C2115 C2112 1.357 . S
C2115 C2116 1.312 . S
C2116 H2087 0.930 . S
C2116 C2111 1.261 . S
C2116 C2115 1.312 . S
C2117 O2089 1.214 . S
C2117 O2097 1.234 . S
C2118 H2090 0.929 . S
C2118 C2121 1.391 . S
C2118 C2123 1.391 . S
C2119 H2091 0.929 . S
C2119 C2120 1.390 . S
C2119 N2122 1.391 . S
C2120 H2092 0.930 . S
C2120 C2119 1.390 . S
C2120 C2121 1.392 . S
C2121 H2093 0.929 . S
C2121 C2118 1.391 . S
C2121 C2120 1.392 . S
N2122 Co2066 2.257 1_545 S
N2122 C2119 1.391 . S
N2122 C2123 1.388 . S
C2123 H2094 0.930 . S
C2123 C2118 1.391 . S
C2123 N2122 1.388 . S
H2124 C2130 0.930 . S
H2125 C2134 0.930 . S
H2126 C2139 0.929 . S
H2127 C2137 0.929 . S
H2128 C2132 0.929 . S
H2129 C2138 0.929 . S
C2130 H2124 0.930 . S
C2130 C2131 1.367 . S
C2130 C2138 1.378 . S
C2131 C2130 1.367 . S
C2131 C2139 1.433 . S
C2132 H2128 0.929 . S
C2132 C2134 1.378 . S
C2132 C2136 1.350 . S
C2133 C2136 1.463 . S
C2133 C2138 1.350 . S
C2133 N2141 1.427 . S
C2134 H2125 0.930 . S
C2134 C2132 1.378 . S
C2134 C2135 1.367 . S
C2135 C2134 1.367 . S
C2135 C2137 1.433 . S
C2136 C2132 1.350 . S
C2136 C2133 1.463 . S
C2136 N2140 1.427 . S
C2137 H2127 0.929 . S
C2137 C2135 1.433 . S
C2137 N2140 1.384 . S
C2138 H2129 0.929 . S
C2138 C2130 1.378 . S
C2138 C2133 1.350 . S
C2139 H2126 0.929 . S
C2139 C2131 1.433 . S
C2139 N2141 1.384 . S
N2140 C2136 1.427 . S
N2140 C2137 1.384 . S
N2141 C2133 1.427 . S
N2141 C2139 1.384 . S
H2142 C2148 0.930 . S
H2143 C2152 0.930 . S
H2144 C2157 0.929 . S
H2145 C2155 0.929 . S
H2146 C2150 0.929 . S
H2147 C2156 0.929 . S
C2148 H2142 0.930 . S
C2148 C2149 1.367 . S
C2148 C2156 1.378 . S
C2149 C2148 1.367 . S
C2149 C2157 1.433 . S
C2150 H2146 0.929 . S
C2150 C2152 1.378 . S
C2150 C2154 1.350 . S
C2151 C2154 1.463 . S
C2151 C2156 1.350 . S
C2151 N2159 1.427 . S
C2152 H2143 0.930 . S
C2152 C2150 1.378 . S
C2152 C2153 1.367 . S
C2153 C2152 1.367 . S
C2153 C2155 1.433 . S
C2154 C2150 1.350 . S
C2154 C2151 1.463 . S
C2154 N2158 1.427 . S
C2155 H2145 0.929 . S
C2155 C2153 1.433 . S
C2155 N2158 1.384 . S
C2156 H2147 0.929 . S
C2156 C2148 1.378 . S
C2156 C2151 1.350 . S
C2157 H2144 0.929 . S
C2157 C2149 1.433 . S
C2157 N2159 1.384 . S
N2158 C2154 1.427 . S
N2158 C2155 1.384 . S
N2159 C2151 1.427 . S
N2159 C2157 1.384 . S
H2160 C2166 0.930 . S
H2161 C2170 0.930 . S
H2162 C2175 0.929 . S
H2163 C2173 0.929 . S
H2164 C2168 0.929 . S
H2165 C2174 0.929 . S
C2166 H2160 0.930 . S
C2166 C2167 1.367 . S
C2166 C2174 1.378 . S
C2167 C2166 1.367 . S
C2167 C2175 1.433 . S
C2168 H2164 0.929 . S
C2168 C2170 1.378 . S
C2168 C2172 1.350 . S
C2169 C2172 1.463 . S
C2169 C2174 1.350 . S
C2169 N2177 1.427 . S
C2170 H2161 0.930 . S
C2170 C2168 1.378 . S
C2170 C2171 1.367 . S
C2171 C2170 1.367 . S
C2171 C2173 1.433 . S
C2172 C2168 1.350 . S
C2172 C2169 1.463 . S
C2172 N2176 1.427 . S
C2173 H2163 0.929 . S
C2173 C2171 1.433 . S
C2173 N2176 1.384 . S
C2174 H2165 0.929 . S
C2174 C2166 1.378 . S
C2174 C2169 1.350 . S
C2175 H2162 0.929 . S
C2175 C2167 1.433 . S
C2175 N2177 1.384 . S
N2176 C2172 1.427 . S
N2176 C2173 1.384 . S
N2177 C2169 1.427 . S
N2177 C2175 1.384 . S
H2178 C2184 0.930 . S
H2179 C2188 0.930 . S
H2180 C2193 0.929 . S
H2181 C2191 0.929 . S
H2182 C2186 0.929 . S
H2183 C2192 0.929 . S
C2184 H2178 0.930 . S
C2184 C2185 1.367 . S
C2184 C2192 1.378 . S
C2185 C2184 1.367 . S
C2185 C2193 1.433 . S
C2186 H2182 0.929 . S
C2186 C2188 1.378 . S
C2186 C2190 1.350 . S
C2187 C2190 1.463 . S
C2187 C2192 1.350 . S
C2187 N2195 1.427 . S
C2188 H2179 0.930 . S
C2188 C2186 1.378 . S
C2188 C2189 1.367 . S
C2189 C2188 1.367 . S
C2189 C2191 1.433 . S
C2190 C2186 1.350 . S
C2190 C2187 1.463 . S
C2190 N2194 1.427 . S
C2191 H2181 0.929 . S
C2191 C2189 1.433 . S
C2191 N2194 1.384 . S
C2192 H2183 0.929 . S
C2192 C2184 1.378 . S
C2192 C2187 1.350 . S
C2193 H2180 0.929 . S
C2193 C2185 1.433 . S
C2193 N2195 1.384 . S
N2194 C2190 1.427 . S
N2194 C2191 1.384 . S
N2195 C2187 1.427 . S
N2195 C2193 1.384 . S
H2196 C2202 0.930 . S
H2197 C2206 0.930 . S
H2198 C2211 0.929 . S
H2199 C2209 0.929 . S
H2200 C2204 0.929 . S
H2201 C2210 0.929 . S
C2202 H2196 0.930 . S
C2202 C2203 1.367 . S
C2202 C2210 1.378 . S
C2203 C2202 1.367 . S
C2203 C2211 1.433 . S
C2204 H2200 0.929 . S
C2204 C2206 1.378 . S
C2204 C2208 1.350 . S
C2205 C2208 1.463 . S
C2205 C2210 1.350 . S
C2205 N2213 1.427 . S
C2206 H2197 0.930 . S
C2206 C2204 1.378 . S
C2206 C2207 1.367 . S
C2207 C2206 1.367 . S
C2207 C2209 1.433 . S
C2208 C2204 1.350 . S
C2208 C2205 1.463 . S
C2208 N2212 1.427 . S
C2209 H2199 0.929 . S
C2209 C2207 1.433 . S
C2209 N2212 1.384 . S
C2210 H2201 0.929 . S
C2210 C2202 1.378 . S
C2210 C2205 1.350 . S
C2211 H2198 0.929 . S
C2211 C2203 1.433 . S
C2211 N2213 1.384 . S
N2212 C2208 1.427 . S
N2212 C2209 1.384 . S
N2213 C2205 1.427 . S
N2213 C2211 1.384 . S
H2214 C2220 0.930 . S
H2215 C2224 0.930 . S
H2216 C2229 0.929 . S
H2217 C2227 0.929 . S
H2218 C2222 0.929 . S
H2219 C2228 0.929 . S
C2220 H2214 0.930 . S
C2220 C2221 1.367 . S
C2220 C2228 1.378 . S
C2221 C2220 1.367 . S
C2221 C2229 1.433 . S
C2222 H2218 0.929 . S
C2222 C2224 1.378 . S
C2222 C2226 1.350 . S
C2223 C2226 1.463 . S
C2223 C2228 1.350 . S
C2223 N2231 1.427 . S
C2224 H2215 0.930 . S
C2224 C2222 1.378 . S
C2224 C2225 1.367 . S
C2225 C2224 1.367 . S
C2225 C2227 1.433 . S
C2226 C2222 1.350 . S
C2226 C2223 1.463 . S
C2226 N2230 1.427 . S
C2227 H2217 0.929 . S
C2227 C2225 1.433 . S
C2227 N2230 1.384 . S
C2228 H2219 0.929 . S
C2228 C2220 1.378 . S
C2228 C2223 1.350 . S
C2229 H2216 0.929 . S
C2229 C2221 1.433 . S
C2229 N2231 1.384 . S
N2230 C2226 1.427 . S
N2230 C2227 1.384 . S
N2231 C2223 1.427 . S
N2231 C2229 1.384 . S
H2232 C2238 0.930 . S
H2233 C2242 0.930 . S
H2234 C2247 0.929 . S
H2235 C2245 0.929 . S
H2236 C2240 0.929 . S
H2237 C2246 0.929 . S
C2238 H2232 0.930 . S
C2238 C2239 1.367 . S
C2238 C2246 1.378 . S
C2239 C2238 1.367 . S
C2239 C2247 1.433 . S
C2240 H2236 0.929 . S
C2240 C2242 1.378 . S
C2240 C2244 1.350 . S
C2241 C2244 1.463 . S
C2241 C2246 1.350 . S
C2241 N2249 1.427 . S
C2242 H2233 0.930 . S
C2242 C2240 1.378 . S
C2242 C2243 1.367 . S
C2243 C2242 1.367 . S
C2243 C2245 1.433 . S
C2244 C2240 1.350 . S
C2244 C2241 1.463 . S
C2244 N2248 1.427 . S
C2245 H2235 0.929 . S
C2245 C2243 1.433 . S
C2245 N2248 1.384 . S
C2246 H2237 0.929 . S
C2246 C2238 1.378 . S
C2246 C2241 1.350 . S
C2247 H2234 0.929 . S
C2247 C2239 1.433 . S
C2247 N2249 1.384 . S
N2248 C2244 1.427 . S
N2248 C2245 1.384 . S
N2249 C2241 1.427 . S
N2249 C2247 1.384 . S
H2250 C2256 0.930 . S
H2251 C2260 0.930 . S
H2252 C2265 0.929 . S
H2253 C2263 0.929 . S
H2254 C2258 0.929 . S
H2255 C2264 0.929 . S
C2256 H2250 0.930 . S
C2256 C2257 1.367 . S
C2256 C2264 1.378 . S
C2257 C2256 1.367 . S
C2257 C2265 1.433 . S
C2258 H2254 0.929 . S
C2258 C2260 1.378 . S
C2258 C2262 1.350 . S
C2259 C2262 1.463 . S
C2259 C2264 1.350 . S
C2259 N2267 1.427 . S
C2260 H2251 0.930 . S
C2260 C2258 1.378 . S
C2260 C2261 1.367 . S
C2261 C2260 1.367 . S
C2261 C2263 1.433 . S
C2262 C2258 1.350 . S
C2262 C2259 1.463 . S
C2262 N2266 1.427 . S
C2263 H2253 0.929 . S
C2263 C2261 1.433 . S
C2263 N2266 1.384 . S
C2264 H2255 0.929 . S
C2264 C2256 1.378 . S
C2264 C2259 1.350 . S
C2265 H2252 0.929 . S
C2265 C2257 1.433 . S
C2265 N2267 1.384 . S
N2266 C2262 1.427 . S
N2266 C2263 1.384 . S
N2267 C2259 1.427 . S
N2267 C2265 1.384 . S
H2268 C2274 0.930 . S
H2269 C2278 0.930 . S
H2270 C2283 0.929 . S
H2271 C2281 0.929 . S
H2272 C2276 0.929 . S
H2273 C2282 0.929 . S
C2274 H2268 0.930 . S
C2274 C2275 1.367 . S
C2274 C2282 1.378 . S
C2275 C2274 1.367 . S
C2275 C2283 1.433 . S
C2276 H2272 0.929 . S
C2276 C2278 1.378 . S
C2276 C2280 1.350 . S
C2277 C2280 1.463 . S
C2277 C2282 1.350 . S
C2277 N2285 1.427 . S
C2278 H2269 0.930 . S
C2278 C2276 1.378 . S
C2278 C2279 1.367 . S
C2279 C2278 1.367 . S
C2279 C2281 1.433 . S
C2280 C2276 1.350 . S
C2280 C2277 1.463 . S
C2280 N2284 1.427 . S
C2281 H2271 0.929 . S
C2281 C2279 1.433 . S
C2281 N2284 1.384 . S
C2282 H2273 0.929 . S
C2282 C2274 1.378 . S
C2282 C2277 1.350 . S
C2283 H2270 0.929 . S
C2283 C2275 1.433 . S
C2283 N2285 1.384 . S
N2284 C2280 1.427 . S
N2284 C2281 1.384 . S
N2285 C2277 1.427 . S
N2285 C2283 1.384 . S
H2286 C2292 0.930 . S
H2287 C2296 0.930 . S
H2288 C2301 0.929 . S
H2289 C2299 0.929 . S
H2290 C2294 0.929 . S
H2291 C2300 0.929 . S
C2292 H2286 0.930 . S
C2292 C2293 1.367 . S
C2292 C2300 1.378 . S
C2293 C2292 1.367 . S
C2293 C2301 1.433 1_655 S
C2294 H2290 0.929 . S
C2294 C2296 1.378 . S
C2294 C2298 1.350 1_455 S
C2295 C2298 1.463 . S
C2295 C2300 1.350 . S
C2295 N2303 1.427 1_655 S
C2296 H2287 0.930 . S
C2296 C2294 1.378 . S
C2296 C2297 1.367 1_455 S
C2297 C2296 1.367 1_655 S
C2297 C2299 1.433 . S
C2298 C2294 1.350 1_655 S
C2298 C2295 1.463 . S
C2298 N2302 1.427 . S
C2299 H2289 0.929 . S
C2299 C2297 1.433 . S
C2299 N2302 1.384 . S
C2300 H2291 0.929 . S
C2300 C2292 1.378 . S
C2300 C2295 1.350 . S
C2301 H2288 0.929 . S
C2301 C2293 1.433 1_455 S
C2301 N2303 1.384 . S
N2302 C2298 1.427 . S
N2302 C2299 1.384 . S
N2303 C2295 1.427 1_455 S
N2303 C2301 1.384 . S
H2304 C2310 0.930 . S
H2305 C2314 0.930 . S
H2306 C2319 0.929 . S
H2307 C2317 0.929 . S
H2308 C2312 0.929 . S
H2309 C2318 0.929 . S
C2310 H2304 0.930 . S
C2310 C2311 1.367 . S
C2310 C2318 1.378 . S
C2311 C2310 1.367 . S
C2311 C2319 1.433 . S
C2312 H2308 0.929 . S
C2312 C2314 1.378 . S
C2312 C2316 1.350 . S
C2313 C2316 1.463 . S
C2313 C2318 1.350 . S
C2313 N2321 1.427 . S
C2314 H2305 0.930 . S
C2314 C2312 1.378 . S
C2314 C2315 1.367 . S
C2315 C2314 1.367 . S
C2315 C2317 1.433 . S
C2316 C2312 1.350 . S
C2316 C2313 1.463 . S
C2316 N2320 1.427 . S
C2317 H2307 0.929 . S
C2317 C2315 1.433 . S
C2317 N2320 1.384 . S
C2318 H2309 0.929 . S
C2318 C2310 1.378 . S
C2318 C2313 1.350 . S
C2319 H2306 0.929 . S
C2319 C2311 1.433 . S
C2319 N2321 1.384 . S
N2320 C2316 1.427 . S
N2320 C2317 1.384 . S
N2321 C2313 1.427 . S
N2321 C2319 1.384 . S
H2322 C2328 0.930 . S
H2323 C2332 0.930 . S
H2324 C2337 0.929 . S
H2325 C2335 0.929 . S
H2326 C2330 0.929 . S
H2327 C2336 0.929 . S
C2328 H2322 0.930 . S
C2328 C2329 1.367 . S
C2328 C2336 1.378 . S
C2329 C2328 1.367 . S
C2329 C2337 1.433 . S
C2330 H2326 0.929 . S
C2330 C2332 1.378 . S
C2330 C2334 1.350 . S
C2331 C2334 1.463 . S
C2331 C2336 1.350 . S
C2331 N2339 1.427 . S
C2332 H2323 0.930 . S
C2332 C2330 1.378 . S
C2332 C2333 1.367 . S
C2333 C2332 1.367 . S
C2333 C2335 1.433 . S
C2334 C2330 1.350 . S
C2334 C2331 1.463 . S
C2334 N2338 1.427 . S
C2335 H2325 0.929 . S
C2335 C2333 1.433 . S
C2335 N2338 1.384 . S
C2336 H2327 0.929 . S
C2336 C2328 1.378 . S
C2336 C2331 1.350 . S
C2337 H2324 0.929 . S
C2337 C2329 1.433 . S
C2337 N2339 1.384 . S
N2338 C2334 1.427 . S
N2338 C2335 1.384 . S
N2339 C2331 1.427 . S
N2339 C2337 1.384 . S
H2340 C2346 0.930 . S
H2341 C2350 0.925 1_545 S
H2342 C2355 0.914 1_545 S
H2343 C2353 0.929 . S
H2344 C2348 0.904 1_545 S
H2345 C2354 0.929 . S
C2346 H2340 0.930 . S
C2346 C2347 1.367 . S
C2346 C2354 1.378 . S
C2347 C2346 1.367 . S
C2347 C2355 1.438 . S
C2348 H2344 0.904 1_565 S
C2348 C2350 1.378 . S
C2348 C2352 1.357 . S
C2349 C2352 1.463 . S
C2349 C2354 1.350 . S
C2349 N2357 1.450 . S
C2350 H2341 0.925 1_565 S
C2350 C2348 1.378 . S
C2350 C2351 1.393 . S
C2351 C2350 1.393 . S
C2351 C2353 1.433 . S
C2352 C2348 1.357 . S
C2352 C2349 1.463 . S
C2352 N2356 1.427 . S
C2353 H2343 0.929 . S
C2353 C2351 1.433 . S
C2353 N2356 1.384 . S
C2354 H2345 0.929 . S
C2354 C2346 1.378 . S
C2354 C2349 1.350 . S
C2355 H2342 0.914 1_565 S
C2355 C2347 1.438 . S
C2355 N2357 1.378 . S
N2356 C2352 1.427 . S
N2356 C2353 1.384 . S
N2357 C2349 1.450 . S
N2357 C2355 1.378 . S
H2358 C2364 0.930 . S
H2359 C2368 0.930 . S
H2360 C2373 0.929 . S
H2361 C2371 0.929 . S
H2362 C2366 0.929 . S
H2363 C2372 0.929 . S
C2364 H2358 0.930 . S
C2364 C2365 1.367 . S
C2364 C2372 1.378 . S
C2365 C2364 1.367 . S
C2365 C2373 1.433 . S
C2366 H2362 0.929 . S
C2366 C2368 1.378 . S
C2366 C2370 1.350 . S
C2367 C2370 1.463 . S
C2367 C2372 1.350 . S
C2367 N2375 1.427 . S
C2368 H2359 0.930 . S
C2368 C2366 1.378 . S
C2368 C2369 1.367 . S
C2369 C2368 1.367 . S
C2369 C2371 1.433 . S
C2370 C2366 1.350 . S
C2370 C2367 1.463 . S
C2370 N2374 1.427 . S
C2371 H2361 0.929 . S
C2371 C2369 1.433 . S
C2371 N2374 1.384 . S
C2372 H2363 0.929 . S
C2372 C2364 1.378 . S
C2372 C2367 1.350 . S
C2373 H2360 0.929 . S
C2373 C2365 1.433 . S
C2373 N2375 1.384 . S
N2374 C2370 1.427 . S
N2374 C2371 1.384 . S
N2375 C2367 1.427 . S
N2375 C2373 1.384 . S
H2376 C2382 0.930 . S
H2377 C2386 0.930 . S
H2378 C2391 0.929 . S
H2379 C2389 0.929 . S
H2380 C2384 0.929 . S
H2381 C2390 0.929 . S
C2382 H2376 0.930 . S
C2382 C2383 1.367 . S
C2382 C2390 1.378 . S
C2383 C2382 1.367 . S
C2383 C2391 1.433 . S
C2384 H2380 0.929 . S
C2384 C2386 1.378 . S
C2384 C2388 1.350 . S
C2385 C2388 1.463 . S
C2385 C2390 1.350 . S
C2385 N2393 1.427 . S
C2386 H2377 0.930 . S
C2386 C2384 1.378 . S
C2386 C2387 1.367 . S
C2387 C2386 1.367 . S
C2387 C2389 1.433 . S
C2388 C2384 1.350 . S
C2388 C2385 1.463 . S
C2388 N2392 1.427 . S
C2389 H2379 0.929 . S
C2389 C2387 1.433 . S
C2389 N2392 1.384 . S
C2390 H2381 0.929 . S
C2390 C2382 1.378 . S
C2390 C2385 1.350 . S
C2391 H2378 0.929 . S
C2391 C2383 1.433 . S
C2391 N2393 1.384 . S
N2392 C2388 1.427 . S
N2392 C2389 1.384 . S
N2393 C2385 1.427 . S
N2393 C2391 1.384 . S
H2394 C2400 0.930 . S
H2395 C2404 0.930 . S
H2396 C2409 0.929 . S
H2397 C2407 0.929 . S
H2398 C2402 0.929 . S
H2399 C2408 0.929 . S
C2400 H2394 0.930 . S
C2400 C2401 1.367 . S
C2400 C2408 1.378 . S
C2401 C2400 1.367 . S
C2401 C2409 1.433 . S
C2402 H2398 0.929 . S
C2402 C2404 1.378 . S
C2402 C2406 1.350 . S
C2403 C2406 1.463 . S
C2403 C2408 1.350 . S
C2403 N2411 1.427 . S
C2404 H2395 0.930 . S
C2404 C2402 1.378 . S
C2404 C2405 1.367 . S
C2405 C2404 1.367 . S
C2405 C2407 1.433 . S
C2406 C2402 1.350 . S
C2406 C2403 1.463 . S
C2406 N2410 1.427 . S
C2407 H2397 0.929 . S
C2407 C2405 1.433 . S
C2407 N2410 1.384 . S
C2408 H2399 0.929 . S
C2408 C2400 1.378 . S
C2408 C2403 1.350 . S
C2409 H2396 0.929 . S
C2409 C2401 1.433 . S
C2409 N2411 1.384 . S
N2410 C2406 1.427 . S
N2410 C2407 1.384 . S
N2411 C2403 1.427 . S
N2411 C2409 1.384 . S
H2412 C2418 0.930 . S
H2413 C2422 0.930 . S
H2414 C2427 0.929 . S
H2415 C2425 0.929 . S
H2416 C2420 0.929 . S
H2417 C2426 0.929 . S
C2418 H2412 0.930 . S
C2418 C2419 1.367 . S
C2418 C2426 1.378 . S
C2419 C2418 1.367 . S
C2419 C2427 1.433 . S
C2420 H2416 0.929 . S
C2420 C2422 1.378 . S
C2420 C2424 1.350 . S
C2421 C2424 1.463 . S
C2421 C2426 1.350 . S
C2421 N2429 1.427 . S
C2422 H2413 0.930 . S
C2422 C2420 1.378 . S
C2422 C2423 1.367 . S
C2423 C2422 1.367 . S
C2423 C2425 1.433 . S
C2424 C2420 1.350 . S
C2424 C2421 1.463 . S
C2424 N2428 1.427 . S
C2425 H2415 0.929 . S
C2425 C2423 1.433 . S
C2425 N2428 1.384 . S
C2426 H2417 0.929 . S
C2426 C2418 1.378 . S
C2426 C2421 1.350 . S
C2427 H2414 0.929 . S
C2427 C2419 1.433 . S
C2427 N2429 1.384 . S
N2428 C2424 1.427 . S
N2428 C2425 1.384 . S
N2429 C2421 1.427 . S
N2429 C2427 1.384 . S
H2430 C2436 0.930 . S
H2431 C2440 0.930 . S
H2432 C2445 0.929 . S
H2433 C2443 0.929 . S
H2434 C2438 0.929 . S
H2435 C2444 0.929 . S
C2436 H2430 0.930 . S
C2436 C2437 1.367 . S
C2436 C2444 1.378 . S
C2437 C2436 1.367 . S
C2437 C2445 1.433 . S
C2438 H2434 0.929 . S
C2438 C2440 1.378 . S
C2438 C2442 1.350 . S
C2439 C2442 1.463 . S
C2439 C2444 1.350 . S
C2439 N2447 1.427 . S
C2440 H2431 0.930 . S
C2440 C2438 1.378 . S
C2440 C2441 1.367 . S
C2441 C2440 1.367 . S
C2441 C2443 1.433 . S
C2442 C2438 1.350 . S
C2442 C2439 1.463 . S
C2442 N2446 1.427 . S
C2443 H2433 0.929 . S
C2443 C2441 1.433 . S
C2443 N2446 1.384 . S
C2444 H2435 0.929 . S
C2444 C2436 1.378 . S
C2444 C2439 1.350 . S
C2445 H2432 0.929 . S
C2445 C2437 1.433 . S
C2445 N2447 1.384 . S
N2446 C2442 1.427 . S
N2446 C2443 1.384 . S
N2447 C2439 1.427 . S
N2447 C2445 1.384 . S
H2448 C2454 0.930 . S
H2449 C2458 0.930 . S
H2450 C2463 0.929 . S
H2451 C2461 0.929 . S
H2452 C2456 0.929 . S
H2453 C2462 0.929 . S
C2454 H2448 0.930 . S
C2454 C2455 1.367 1_655 S
C2454 C2462 1.378 . S
C2455 C2454 1.367 1_455 S
C2455 C2463 1.433 . S
C2456 H2452 0.929 . S
C2456 C2458 1.378 . S
C2456 C2460 1.350 . S
C2457 C2460 1.463 . S
C2457 C2462 1.350 1_455 S
C2457 N2465 1.427 . S
C2458 H2449 0.930 . S
C2458 C2456 1.378 . S
C2458 C2459 1.403 . S
C2459 C2458 1.403 . S
C2459 C2461 1.403 1_455 S
C2460 C2456 1.350 . S
C2460 C2457 1.463 . S
C2460 N2464 1.427 1_455 S
C2461 H2451 0.929 . S
C2461 C2459 1.403 1_655 S
C2461 N2464 1.384 . S
C2462 H2453 0.929 . S
C2462 C2454 1.378 . S
C2462 C2457 1.350 1_655 S
C2463 H2450 0.929 . S
C2463 C2455 1.433 . S
C2463 N2465 1.384 . S
N2464 C2460 1.427 1_655 S
N2464 C2461 1.384 . S
N2465 C2457 1.427 . S
N2465 C2463 1.384 . S
H2466 C2472 0.930 . S
H2467 C2476 0.930 . S
H2468 C2481 0.929 . S
H2469 C2479 0.929 . S
H2470 C2474 0.929 . S
H2471 C2480 0.929 . S
C2472 H2466 0.930 . S
C2472 C2473 1.367 . S
C2472 C2480 1.378 . S
C2473 C2472 1.367 . S
C2473 C2481 1.433 . S
C2474 H2470 0.929 . S
C2474 C2476 1.378 . S
C2474 C2478 1.350 . S
C2475 C2478 1.463 . S
C2475 C2480 1.350 . S
C2475 N2483 1.427 . S
C2476 H2467 0.930 . S
C2476 C2474 1.378 . S
C2476 C2477 1.367 . S
C2477 C2476 1.367 . S
C2477 C2479 1.433 . S
C2478 C2474 1.350 . S
C2478 C2475 1.463 . S
C2478 N2482 1.427 . S
C2479 H2469 0.929 . S
C2479 C2477 1.433 . S
C2479 N2482 1.384 . S
C2480 H2471 0.929 . S
C2480 C2472 1.378 . S
C2480 C2475 1.350 . S
C2481 H2468 0.929 . S
C2481 C2473 1.433 . S
C2481 N2483 1.384 . S
N2482 C2478 1.427 . S
N2482 C2479 1.384 . S
N2483 C2475 1.427 . S
N2483 C2481 1.384 . S
H2484 C2490 0.930 . S
H2485 C2494 0.930 . S
H2486 C2499 0.929 . S
H2487 C2497 0.929 . S
H2488 C2492 0.929 . S
H2489 C2498 0.929 . S
C2490 H2484 0.930 . S
C2490 C2491 1.367 . S
C2490 C2498 1.378 . S
C2491 C2490 1.367 . S
C2491 C2499 1.433 . S
C2492 H2488 0.929 . S
C2492 C2494 1.378 . S
C2492 C2496 1.350 . S
C2493 C2496 1.463 . S
C2493 C2498 1.350 . S
C2493 N2501 1.427 . S
C2494 H2485 0.930 . S
C2494 C2492 1.378 . S
C2494 C2495 1.367 . S
C2495 C2494 1.367 . S
C2495 C2497 1.433 . S
C2496 C2492 1.350 . S
C2496 C2493 1.463 . S
C2496 N2500 1.427 . S
C2497 H2487 0.929 . S
C2497 C2495 1.433 . S
C2497 N2500 1.384 . S
C2498 H2489 0.929 . S
C2498 C2490 1.378 . S
C2498 C2493 1.350 . S
C2499 H2486 0.929 . S
C2499 C2491 1.433 . S
C2499 N2501 1.384 . S
N2500 C2496 1.427 . S
N2500 C2497 1.384 . S
N2501 C2493 1.427 . S
N2501 C2499 1.384 . S
H2502 C2508 0.930 1_565 S
H2503 C2512 0.930 . S
H2504 C2517 0.929 . S
H2505 C2515 0.929 . S
H2506 C2510 0.929 . S
H2507 C2516 0.929 . S
C2508 H2502 0.930 1_545 S
C2508 C2509 1.367 . S
C2508 C2516 1.378 1_545 S
C2509 C2508 1.367 . S
C2509 C2517 1.433 . S
C2510 H2506 0.929 . S
C2510 C2512 1.378 . S
C2510 C2514 1.350 . S
C2511 C2514 1.463 . S
C2511 C2516 1.350 1_545 S
C2511 N2519 1.427 . S
C2512 H2503 0.930 . S
C2512 C2510 1.378 . S
C2512 C2513 1.368 . S
C2513 C2512 1.368 . S
C2513 C2515 1.438 1_545 S
C2514 C2510 1.350 . S
C2514 C2511 1.463 . S
C2514 N2518 1.427 1_545 S
C2515 H2505 0.929 . S
C2515 C2513 1.438 1_565 S
C2515 N2518 1.384 . S
C2516 H2507 0.929 . S
C2516 C2508 1.378 1_565 S
C2516 C2511 1.350 1_565 S
C2517 H2504 0.929 . S
C2517 C2509 1.433 . S
C2517 N2519 1.384 . S
N2518 C2514 1.427 1_565 S
N2518 C2515 1.384 . S
N2519 C2511 1.427 . S
N2519 C2517 1.384 . S
H2520 C2526 0.930 . S
H2521 C2530 0.930 . S
H2522 C2535 0.929 . S
H2523 C2533 0.929 . S
H2524 C2528 0.929 . S
H2525 C2534 0.929 . S
C2526 H2520 0.930 . S
C2526 C2527 1.367 . S
C2526 C2534 1.378 . S
C2527 C2526 1.367 . S
C2527 C2535 1.433 . S
C2528 H2524 0.929 . S
C2528 C2530 1.378 . S
C2528 C2532 1.350 . S
C2529 C2532 1.463 . S
C2529 C2534 1.350 . S
C2529 N2537 1.427 . S
C2530 H2521 0.930 . S
C2530 C2528 1.378 . S
C2530 C2531 1.367 . S
C2531 C2530 1.367 . S
C2531 C2533 1.433 . S
C2532 C2528 1.350 . S
C2532 C2529 1.463 . S
C2532 N2536 1.427 . S
C2533 H2523 0.929 . S
C2533 C2531 1.433 . S
C2533 N2536 1.384 . S
C2534 H2525 0.929 . S
C2534 C2526 1.378 . S
C2534 C2529 1.350 . S
C2535 H2522 0.929 . S
C2535 C2527 1.433 . S
C2535 N2537 1.384 . S
N2536 C2532 1.427 . S
N2536 C2533 1.384 . S
N2537 C2529 1.427 . S
N2537 C2535 1.384 . S
H2538 C2544 0.930 . S
H2539 C2548 0.930 . S
H2540 C2553 0.929 . S
H2541 C2551 0.929 . S
H2542 C2546 0.929 . S
H2543 C2552 0.929 . S
C2544 H2538 0.930 . S
C2544 C2545 1.367 . S
C2544 C2552 1.378 . S
C2545 C2544 1.367 . S
C2545 C2553 1.433 . S
C2546 H2542 0.929 . S
C2546 C2548 1.378 . S
C2546 C2550 1.350 . S
C2547 C2550 1.463 . S
C2547 C2552 1.350 . S
C2547 N2555 1.427 . S
C2548 H2539 0.930 . S
C2548 C2546 1.378 . S
C2548 C2549 1.367 . S
C2549 C2548 1.367 . S
C2549 C2551 1.433 . S
C2550 C2546 1.350 . S
C2550 C2547 1.463 . S
C2550 N2554 1.427 . S
C2551 H2541 0.929 . S
C2551 C2549 1.433 . S
C2551 N2554 1.384 . S
C2552 H2543 0.929 . S
C2552 C2544 1.378 . S
C2552 C2547 1.350 . S
C2553 H2540 0.929 . S
C2553 C2545 1.433 . S
C2553 N2555 1.384 . S
N2554 C2550 1.427 . S
N2554 C2551 1.384 . S
N2555 C2547 1.427 . S
N2555 C2553 1.384 . S
H2556 C2562 0.930 . S
H2557 C2566 0.930 . S
H2558 C2571 0.929 . S
H2559 C2569 0.929 . S
H2560 C2564 0.929 . S
H2561 C2570 0.929 . S
C2562 H2556 0.930 . S
C2562 C2563 1.367 . S
C2562 C2570 1.378 . S
C2563 C2562 1.367 . S
C2563 C2571 1.433 . S
C2564 H2560 0.929 . S
C2564 C2566 1.378 . S
C2564 C2568 1.350 . S
C2565 C2568 1.463 . S
C2565 C2570 1.350 . S
C2565 N2573 1.427 . S
C2566 H2557 0.930 . S
C2566 C2564 1.378 . S
C2566 C2567 1.367 . S
C2567 C2566 1.367 . S
C2567 C2569 1.433 . S
C2568 C2564 1.350 . S
C2568 C2565 1.463 . S
C2568 N2572 1.427 . S
C2569 H2559 0.929 . S
C2569 C2567 1.433 . S
C2569 N2572 1.384 . S
C2570 H2561 0.929 . S
C2570 C2562 1.378 . S
C2570 C2565 1.350 . S
C2571 H2558 0.929 . S
C2571 C2563 1.433 . S
C2571 N2573 1.384 . S
N2572 C2568 1.427 . S
N2572 C2569 1.384 . S
N2573 C2565 1.427 . S
N2573 C2571 1.384 . S
H2574 C2580 0.930 . S
H2575 C2584 0.930 . S
H2576 C2589 0.929 . S
H2577 C2587 0.929 . S
H2578 C2582 0.929 . S
H2579 C2588 0.929 . S
C2580 H2574 0.930 . S
C2580 C2581 1.367 . S
C2580 C2588 1.378 . S
C2581 C2580 1.367 . S
C2581 C2589 1.433 . S
C2582 H2578 0.929 . S
C2582 C2584 1.378 . S
C2582 C2586 1.350 . S
C2583 C2586 1.463 . S
C2583 C2588 1.350 . S
C2583 N2591 1.427 . S
C2584 H2575 0.930 . S
C2584 C2582 1.378 . S
C2584 C2585 1.367 . S
C2585 C2584 1.367 . S
C2585 C2587 1.433 . S
C2586 C2582 1.350 . S
C2586 C2583 1.463 . S
C2586 N2590 1.427 . S
C2587 H2577 0.929 . S
C2587 C2585 1.433 . S
C2587 N2590 1.384 . S
C2588 H2579 0.929 . S
C2588 C2580 1.378 . S
C2588 C2583 1.350 . S
C2589 H2576 0.929 . S
C2589 C2581 1.433 . S
C2589 N2591 1.384 . S
N2590 C2586 1.427 . S
N2590 C2587 1.384 . S
N2591 C2583 1.427 . S
N2591 C2589 1.384 . S
H2592 C2598 0.930 . S
H2593 C2602 0.930 . S
H2594 C2607 0.929 . S
H2595 C2605 0.929 . S
H2596 C2600 0.944 . S
H2597 C2606 0.929 . S
C2598 H2592 0.930 . S
C2598 C2599 1.367 . S
C2598 C2606 1.378 . S
C2599 C2598 1.367 . S
C2599 C2607 1.433 . S
C2600 H2596 0.944 . S
C2600 C2602 1.378 . S
C2600 C2604 1.335 1_565 S
C2601 C2604 1.463 . S
C2601 C2606 1.350 . S
C2601 N2609 1.427 . S
C2602 H2593 0.930 . S
C2602 C2600 1.378 . S
C2602 C2603 1.361 1_565 S
C2603 C2602 1.361 1_545 S
C2603 C2605 1.439 . S
C2604 C2600 1.335 1_545 S
C2604 C2601 1.463 . S
C2604 N2608 1.427 . S
C2605 H2595 0.929 . S
C2605 C2603 1.439 . S
C2605 N2608 1.384 . S
C2606 H2597 0.929 . S
C2606 C2598 1.378 . S
C2606 C2601 1.350 . S
C2607 H2594 0.929 . S
C2607 C2599 1.433 . S
C2607 N2609 1.384 . S
N2608 C2604 1.427 . S
N2608 C2605 1.384 . S
N2609 C2601 1.427 . S
N2609 C2607 1.384 . S
H2610 C2616 0.952 . S
H2611 C2620 0.930 . S
H2612 C2625 0.929 . S
H2613 C2623 0.929 . S
H2614 C2618 0.929 . S
H2615 C2624 0.929 . S
C2616 H2610 0.952 . S
C2616 C2617 1.367 . S
C2616 C2624 1.378 . S
C2617 C2616 1.367 . S
C2617 C2625 1.433 . S
C2618 H2614 0.929 . S
C2618 C2620 1.378 . S
C2618 C2622 1.350 . S
C2619 C2622 1.463 . S
C2619 C2624 1.350 . S
C2619 N2627 1.427 . S
C2620 H2611 0.930 . S
C2620 C2618 1.378 . S
C2620 C2621 1.367 . S
C2621 C2620 1.367 . S
C2621 C2623 1.433 . S
C2622 C2618 1.350 . S
C2622 C2619 1.463 . S
C2622 N2626 1.427 . S
C2623 H2613 0.929 . S
C2623 C2621 1.433 . S
C2623 N2626 1.384 . S
C2624 H2615 0.929 . S
C2624 C2616 1.378 . S
C2624 C2619 1.350 . S
C2625 H2612 0.929 . S
C2625 C2617 1.433 . S
C2625 N2627 1.384 . S
N2626 C2622 1.427 . S
N2626 C2623 1.384 . S
N2627 C2619 1.427 . S
N2627 C2625 1.384 . S
H2628 C2634 0.930 . S
H2629 C2638 0.930 . S
H2630 C2643 0.929 . S
H2631 C2641 0.929 . S
H2632 C2636 0.929 . S
H2633 C2642 0.929 . S
C2634 H2628 0.930 . S
C2634 C2635 1.367 . S
C2634 C2642 1.378 . S
C2635 C2634 1.367 . S
C2635 C2643 1.433 . S
C2636 H2632 0.929 . S
C2636 C2638 1.378 . S
C2636 C2640 1.350 . S
C2637 C2640 1.463 . S
C2637 C2642 1.350 . S
C2637 N2645 1.427 . S
C2638 H2629 0.930 . S
C2638 C2636 1.378 . S
C2638 C2639 1.360 . S
C2639 C2638 1.360 . S
C2639 C2641 1.440 1_455 S
C2640 C2636 1.350 . S
C2640 C2637 1.463 . S
C2640 N2644 1.414 . S
C2641 H2631 0.929 . S
C2641 C2639 1.440 1_655 S
C2641 N2644 1.384 1_655 S
C2642 H2633 0.929 . S
C2642 C2634 1.378 . S
C2642 C2637 1.350 . S
C2643 H2630 0.929 . S
C2643 C2635 1.433 . S
C2643 N2645 1.384 . S
N2644 C2640 1.414 . S
N2644 C2641 1.384 1_455 S
N2645 C2637 1.427 . S
N2645 C2643 1.384 . S
H2646 C2652 0.930 . S
H2647 C2656 0.930 . S
H2648 C2661 0.929 . S
H2649 C2659 0.929 . S
H2650 C2654 0.929 . S
H2651 C2660 0.929 . S
C2652 H2646 0.930 . S
C2652 C2653 1.367 . S
C2652 C2660 1.378 . S
C2653 C2652 1.367 . S
C2653 C2661 1.433 . S
C2654 H2650 0.929 . S
C2654 C2656 1.378 . S
C2654 C2658 1.350 . S
C2655 C2658 1.463 . S
C2655 C2660 1.350 . S
C2655 N2663 1.427 . S
C2656 H2647 0.930 . S
C2656 C2654 1.378 . S
C2656 C2657 1.367 . S
C2657 C2656 1.367 . S
C2657 C2659 1.433 . S
C2658 C2654 1.350 . S
C2658 C2655 1.463 . S
C2658 N2662 1.427 . S
C2659 H2649 0.929 . S
C2659 C2657 1.433 . S
C2659 N2662 1.384 . S
C2660 H2651 0.929 . S
C2660 C2652 1.378 . S
C2660 C2655 1.350 . S
C2661 H2648 0.929 . S
C2661 C2653 1.433 . S
C2661 N2663 1.384 . S
N2662 C2658 1.427 . S
N2662 C2659 1.384 . S
N2663 C2655 1.427 . S
N2663 C2661 1.384 . S
H2664 C2670 0.930 . S
H2665 C2674 0.930 . S
H2666 C2679 0.929 . S
H2667 C2677 0.929 . S
H2668 C2672 0.929 . S
H2669 C2678 0.929 . S
C2670 H2664 0.930 . S
C2670 C2671 1.367 . S
C2670 C2678 1.378 . S
C2671 C2670 1.367 . S
C2671 C2679 1.433 . S
C2672 H2668 0.929 . S
C2672 C2674 1.378 . S
C2672 C2676 1.350 . S
C2673 C2676 1.463 . S
C2673 C2678 1.350 . S
C2673 N2681 1.427 . S
C2674 H2665 0.930 . S
C2674 C2672 1.378 . S
C2674 C2675 1.367 . S
C2675 C2674 1.367 . S
C2675 C2677 1.433 . S
C2676 C2672 1.350 . S
C2676 C2673 1.463 . S
C2676 N2680 1.427 . S
C2677 H2667 0.929 . S
C2677 C2675 1.433 . S
C2677 N2680 1.384 . S
C2678 H2669 0.929 . S
C2678 C2670 1.378 . S
C2678 C2673 1.350 . S
C2679 H2666 0.929 . S
C2679 C2671 1.433 . S
C2679 N2681 1.384 . S
N2680 C2676 1.427 . S
N2680 C2677 1.384 . S
N2681 C2673 1.427 . S
N2681 C2679 1.384 . S
H2682 C2688 0.930 . S
H2683 C2692 0.930 . S
H2684 C2697 0.929 . S
H2685 C2695 0.929 . S
H2686 C2690 0.929 . S
H2687 C2696 0.929 . S
C2688 H2682 0.930 . S
C2688 C2689 1.367 . S
C2688 C2696 1.378 . S
C2689 C2688 1.367 . S
C2689 C2697 1.433 . S
C2690 H2686 0.929 . S
C2690 C2692 1.378 . S
C2690 C2694 1.350 . S
C2691 C2694 1.463 . S
C2691 C2696 1.350 . S
C2691 N2699 1.427 . S
C2692 H2683 0.930 . S
C2692 C2690 1.378 . S
C2692 C2693 1.367 . S
C2693 C2692 1.367 . S
C2693 C2695 1.433 . S
C2694 C2690 1.350 . S
C2694 C2691 1.463 . S
C2694 N2698 1.427 . S
C2695 H2685 0.929 . S
C2695 C2693 1.433 . S
C2695 N2698 1.384 . S
C2696 H2687 0.929 . S
C2696 C2688 1.378 . S
C2696 C2691 1.350 . S
C2697 H2684 0.929 . S
C2697 C2689 1.433 . S
C2697 N2699 1.384 . S
N2698 C2694 1.427 . S
N2698 C2695 1.384 . S
N2699 C2691 1.427 . S
N2699 C2697 1.384 . S
H2700 C2706 0.930 . S
H2701 C2710 0.930 . S
H2702 C2715 0.929 . S
H2703 C2713 0.929 . S
H2704 C2708 0.929 . S
H2705 C2714 0.929 . S
C2706 H2700 0.930 . S
C2706 C2707 1.367 . S
C2706 C2714 1.378 . S
C2707 C2706 1.367 . S
C2707 C2715 1.433 . S
C2708 H2704 0.929 . S
C2708 C2710 1.378 . S
C2708 C2712 1.350 . S
C2709 C2712 1.463 . S
C2709 C2714 1.350 . S
C2709 N2717 1.427 . S
C2710 H2701 0.930 . S
C2710 C2708 1.378 . S
C2710 C2711 1.367 . S
C2711 C2710 1.367 . S
C2711 C2713 1.433 . S
C2712 C2708 1.350 . S
C2712 C2709 1.463 . S
C2712 N2716 1.427 . S
C2713 H2703 0.929 . S
C2713 C2711 1.433 . S
C2713 N2716 1.384 . S
C2714 H2705 0.929 . S
C2714 C2706 1.378 . S
C2714 C2709 1.350 . S
C2715 H2702 0.929 . S
C2715 C2707 1.433 . S
C2715 N2717 1.384 . S
N2716 C2712 1.427 . S
N2716 C2713 1.384 . S
N2717 C2709 1.427 . S
N2717 C2715 1.384 . S
H2718 C2724 0.930 . S
H2719 C2728 0.930 . S
H2720 C2733 0.929 . S
H2721 C2731 0.929 . S
H2722 C2726 0.929 . S
H2723 C2732 0.929 . S
C2724 H2718 0.930 . S
C2724 C2725 1.367 . S
C2724 C2732 1.378 . S
C2725 C2724 1.367 . S
C2725 C2733 1.433 . S
C2726 H2722 0.929 . S
C2726 C2728 1.378 . S
C2726 C2730 1.350 . S
C2727 C2730 1.463 . S
C2727 C2732 1.350 . S
C2727 N2735 1.427 . S
C2728 H2719 0.930 . S
C2728 C2726 1.378 . S
C2728 C2729 1.367 . S
C2729 C2728 1.367 . S
C2729 C2731 1.433 . S
C2730 C2726 1.350 . S
C2730 C2727 1.463 . S
C2730 N2734 1.427 . S
C2731 H2721 0.929 . S
C2731 C2729 1.433 . S
C2731 N2734 1.384 . S
C2732 H2723 0.929 . S
C2732 C2724 1.378 . S
C2732 C2727 1.350 . S
C2733 H2720 0.929 . S
C2733 C2725 1.433 . S
C2733 N2735 1.384 . S
N2734 C2730 1.427 . S
N2734 C2731 1.384 . S
N2735 C2727 1.427 . S
N2735 C2733 1.384 . S
H2736 C2742 0.930 . S
H2737 C2746 0.911 1_565 S
H2738 C2751 0.929 . S
H2739 C2749 0.929 . S
H2740 C2744 0.929 1_565 S
H2741 C2750 0.929 . S
C2742 H2736 0.930 . S
C2742 C2743 1.367 . S
C2742 C2750 1.378 . S
C2743 C2742 1.367 . S
C2743 C2751 1.433 1_545 S
C2744 H2740 0.929 1_545 S
C2744 C2746 1.378 . S
C2744 C2748 1.350 . S
C2745 C2748 1.463 . S
C2745 C2750 1.350 . S
C2745 N2753 1.427 1_545 S
C2746 H2737 0.911 1_545 S
C2746 C2744 1.378 . S
C2746 C2747 1.367 . S
C2747 C2746 1.367 . S
C2747 C2749 1.433 . S
C2748 C2744 1.350 . S
C2748 C2745 1.463 . S
C2748 N2752 1.427 . S
C2749 H2739 0.929 . S
C2749 C2747 1.433 . S
C2749 N2752 1.384 . S
C2750 H2741 0.929 . S
C2750 C2742 1.378 . S
C2750 C2745 1.350 . S
C2751 H2738 0.929 . S
C2751 C2743 1.433 1_565 S
C2751 N2753 1.384 . S
N2752 C2748 1.427 . S
N2752 C2749 1.384 . S
N2753 C2745 1.427 1_565 S
N2753 C2751 1.384 . S
H2754 C2760 0.930 . S
H2755 C2764 0.930 . S
H2756 C2769 0.929 . S
H2757 C2767 0.929 . S
H2758 C2762 0.929 . S
H2759 C2768 0.929 . S
C2760 H2754 0.930 . S
C2760 C2761 1.367 . S
C2760 C2768 1.378 . S
C2761 C2760 1.367 . S
C2761 C2769 1.433 . S
C2762 H2758 0.929 . S
C2762 C2764 1.378 . S
C2762 C2766 1.350 . S
C2763 C2766 1.463 . S
C2763 C2768 1.350 . S
C2763 N2771 1.427 . S
C2764 H2755 0.930 . S
C2764 C2762 1.378 . S
C2764 C2765 1.367 . S
C2765 C2764 1.367 . S
C2765 C2767 1.433 . S
C2766 C2762 1.350 . S
C2766 C2763 1.463 . S
C2766 N2770 1.427 . S
C2767 H2757 0.929 . S
C2767 C2765 1.433 . S
C2767 N2770 1.384 . S
C2768 H2759 0.929 . S
C2768 C2760 1.378 . S
C2768 C2763 1.350 . S
C2769 H2756 0.929 . S
C2769 C2761 1.433 . S
C2769 N2771 1.384 . S
N2770 C2766 1.427 . S
N2770 C2767 1.384 . S
N2771 C2763 1.427 . S
N2771 C2769 1.384 . S
H2772 C2778 0.930 1_655 S
H2773 C2782 0.930 . S
H2774 C2787 0.929 . S
H2775 C2785 0.929 1_655 S
H2776 C2780 0.929 . S
H2777 C2786 0.929 1_655 S
C2778 H2772 0.930 1_455 S
C2778 C2779 1.367 . S
C2778 C2786 1.378 . S
C2779 C2778 1.367 . S
C2779 C2787 1.433 . S
C2780 H2776 0.929 . S
C2780 C2782 1.378 . S
C2780 C2784 1.350 . S
C2781 C2784 1.463 1_554 S
C2781 C2786 1.350 . S
C2781 N2789 1.427 . S
C2782 H2773 0.930 . S
C2782 C2780 1.378 . S
C2782 C2783 1.367 . S
C2783 C2782 1.367 . S
C2783 C2785 1.433 . S
C2784 C2780 1.350 . S
C2784 C2781 1.463 1_556 S
C2784 N2788 1.427 . S
C2785 H2775 0.929 1_455 S
C2785 C2783 1.433 . S
C2785 N2788 1.384 . S
C2786 H2777 0.929 1_455 S
C2786 C2778 1.378 . S
C2786 C2781 1.350 . S
C2787 H2774 0.929 . S
C2787 C2779 1.433 . S
C2787 N2789 1.384 . S
N2788 C2784 1.427 . S
N2788 C2785 1.384 . S
N2789 C2781 1.427 . S
N2789 C2787 1.384 . S
H2790 C2796 0.930 . S
H2791 C2800 0.930 . S
H2792 C2805 0.929 . S
H2793 C2803 0.929 . S
H2794 C2798 0.929 . S
H2795 C2804 0.929 . S
C2796 H2790 0.930 . S
C2796 C2797 1.367 . S
C2796 C2804 1.378 . S
C2797 C2796 1.367 . S
C2797 C2805 1.433 . S
C2798 H2794 0.929 . S
C2798 C2800 1.378 . S
C2798 C2802 1.350 . S
C2799 C2802 1.463 1_556 S
C2799 C2804 1.350 . S
C2799 N2807 1.427 . S
C2800 H2791 0.930 . S
C2800 C2798 1.378 . S
C2800 C2801 1.367 . S
C2801 C2800 1.367 . S
C2801 C2803 1.433 . S
C2802 C2798 1.350 . S
C2802 C2799 1.463 1_554 S
C2802 N2806 1.427 . S
C2803 H2793 0.929 . S
C2803 C2801 1.433 . S
C2803 N2806 1.384 . S
C2804 H2795 0.929 . S
C2804 C2796 1.378 . S
C2804 C2799 1.350 . S
C2805 H2792 0.929 . S
C2805 C2797 1.433 . S
C2805 N2807 1.384 . S
N2806 C2802 1.427 . S
N2806 C2803 1.384 . S
N2807 C2799 1.427 . S
N2807 C2805 1.384 . S
H2808 C2814 0.930 . S
H2809 C2818 0.930 1_565 S
H2810 C2823 0.929 . S
H2811 C2821 0.929 . S
H2812 C2816 0.929 1_565 S
H2813 C2822 0.929 . S
C2814 H2808 0.930 . S
C2814 C2815 1.367 . S
C2814 C2822 1.378 . S
C2815 C2814 1.367 . S
C2815 C2823 1.433 1_545 S
C2816 H2812 0.929 1_545 S
C2816 C2818 1.378 . S
C2816 C2820 1.350 . S
C2817 C2820 1.463 1_556 S
C2817 C2822 1.350 . S
C2817 N2825 1.428 . S
C2818 H2809 0.930 1_545 S
C2818 C2816 1.378 . S
C2818 C2819 1.367 . S
C2819 C2818 1.367 . S
C2819 C2821 1.433 . S
C2820 C2816 1.350 . S
C2820 C2817 1.463 1_554 S
C2820 N2824 1.427 . S
C2821 H2811 0.929 . S
C2821 C2819 1.433 . S
C2821 N2824 1.384 . S
C2822 H2813 0.929 . S
C2822 C2814 1.378 . S
C2822 C2817 1.350 . S
C2823 H2810 0.929 . S
C2823 C2815 1.433 1_565 S
C2823 N2825 1.384 1_565 S
N2824 C2820 1.427 . S
N2824 C2821 1.384 . S
N2825 C2817 1.428 . S
N2825 C2823 1.384 1_545 S
H2826 C2832 0.930 . S
H2827 C2836 0.930 . S
H2828 C2841 0.929 . S
H2829 C2839 0.929 . S
H2830 C2834 0.929 . S
H2831 C2840 0.929 . S
C2832 H2826 0.930 . S
C2832 C2833 1.367 . S
C2832 C2840 1.378 . S
C2833 C2832 1.367 . S
C2833 C2841 1.433 . S
C2834 H2830 0.929 . S
C2834 C2836 1.378 . S
C2834 C2838 1.350 . S
C2835 C2838 1.463 1_556 S
C2835 C2840 1.350 . S
C2835 N2843 1.427 . S
C2836 H2827 0.930 . S
C2836 C2834 1.378 . S
C2836 C2837 1.367 . S
C2837 C2836 1.367 . S
C2837 C2839 1.433 . S
C2838 C2834 1.350 . S
C2838 C2835 1.463 1_554 S
C2838 N2842 1.427 . S
C2839 H2829 0.929 . S
C2839 C2837 1.433 . S
C2839 N2842 1.384 . S
C2840 H2831 0.929 . S
C2840 C2832 1.378 . S
C2840 C2835 1.350 . S
C2841 H2828 0.929 . S
C2841 C2833 1.433 . S
C2841 N2843 1.384 . S
N2842 C2838 1.427 . S
N2842 C2839 1.384 . S
N2843 C2835 1.427 . S
N2843 C2841 1.384 . S
H2844 C2850 0.930 . S
H2845 C2854 0.930 . S
H2846 C2859 0.929 . S
H2847 C2857 0.929 . S
H2848 C2852 0.929 . S
H2849 C2858 0.929 . S
C2850 H2844 0.930 . S
C2850 C2851 1.367 . S
C2850 C2858 1.378 . S
C2851 C2850 1.367 . S
C2851 C2859 1.433 . S
C2852 H2848 0.929 . S
C2852 C2854 1.378 . S
C2852 C2856 1.350 . S
C2853 C2856 1.463 1_554 S
C2853 C2858 1.350 . S
C2853 N2861 1.427 . S
C2854 H2845 0.930 . S
C2854 C2852 1.378 . S
C2854 C2855 1.367 . S
C2855 C2854 1.367 . S
C2855 C2857 1.433 . S
C2856 C2852 1.350 . S
C2856 C2853 1.463 1_556 S
C2856 N2860 1.427 . S
C2857 H2847 0.929 . S
C2857 C2855 1.433 . S
C2857 N2860 1.384 . S
C2858 H2849 0.929 . S
C2858 C2850 1.378 . S
C2858 C2853 1.350 . S
C2859 H2846 0.929 . S
C2859 C2851 1.433 . S
C2859 N2861 1.384 . S
N2860 C2856 1.427 . S
N2860 C2857 1.384 . S
N2861 C2853 1.427 . S
N2861 C2859 1.384 . S
H2862 C2868 0.935 . S
H2863 C2872 0.930 . S
H2864 C2877 0.929 . S
H2865 C2875 0.929 1_565 S
H2866 C2870 0.929 . S
H2867 C2876 0.929 1_565 S
C2868 H2862 0.935 . S
C2868 C2869 1.362 1_565 S
C2868 C2876 1.377 1_565 S
C2869 C2868 1.362 1_545 S
C2869 C2877 1.433 . S
C2870 H2866 0.929 . S
C2870 C2872 1.378 . S
C2870 C2874 1.350 . S
C2871 C2874 1.463 1_556 S
C2871 C2876 1.350 . S
C2871 N2879 1.427 . S
C2872 H2863 0.930 . S
C2872 C2870 1.378 . S
C2872 C2873 1.367 . S
C2873 C2872 1.367 . S
C2873 C2875 1.433 . S
C2874 C2870 1.350 . S
C2874 C2871 1.463 1_554 S
C2874 N2878 1.427 . S
C2875 H2865 0.929 1_545 S
C2875 C2873 1.433 . S
C2875 N2878 1.384 . S
C2876 H2867 0.929 1_545 S
C2876 C2868 1.377 1_545 S
C2876 C2871 1.350 . S
C2877 H2864 0.929 . S
C2877 C2869 1.433 . S
C2877 N2879 1.384 . S
N2878 C2874 1.427 . S
N2878 C2875 1.384 . S
N2879 C2871 1.427 . S
N2879 C2877 1.384 . S
H2880 C2886 0.930 . S
H2881 C2890 0.930 . S
H2882 C2895 0.929 . S
H2883 C2893 0.929 . S
H2884 C2888 0.929 . S
H2885 C2894 0.929 . S
C2886 H2880 0.930 . S
C2886 C2887 1.367 . S
C2886 C2894 1.378 . S
C2887 C2886 1.367 . S
C2887 C2895 1.433 . S
C2888 H2884 0.929 . S
C2888 C2890 1.378 . S
C2888 C2892 1.350 . S
C2889 C2892 1.463 . S
C2889 C2894 1.350 . S
C2889 N2897 1.427 . S
C2890 H2881 0.930 . S
C2890 C2888 1.378 . S
C2890 C2891 1.367 . S
C2891 C2890 1.367 . S
C2891 C2893 1.433 . S
C2892 C2888 1.350 . S
C2892 C2889 1.463 . S
C2892 N2896 1.427 . S
C2893 H2883 0.929 . S
C2893 C2891 1.433 . S
C2893 N2896 1.384 . S
C2894 H2885 0.929 . S
C2894 C2886 1.378 . S
C2894 C2889 1.350 . S
C2895 H2882 0.929 . S
C2895 C2887 1.433 . S
C2895 N2897 1.384 . S
N2896 C2892 1.427 . S
N2896 C2893 1.384 . S
N2897 C2889 1.427 . S
N2897 C2895 1.384 . S
H2898 C2904 0.930 . S
H2899 C2908 0.930 . S
H2900 C2913 0.929 . S
H2901 C2911 0.929 . S
H2902 C2906 0.929 . S
H2903 C2912 0.929 . S
C2904 H2898 0.930 . S
C2904 C2905 1.367 . S
C2904 C2912 1.378 . S
C2905 C2904 1.367 . S
C2905 C2913 1.433 . S
C2906 H2902 0.929 . S
C2906 C2908 1.378 . S
C2906 C2910 1.350 . S
C2907 C2910 1.463 . S
C2907 C2912 1.350 . S
C2907 N2915 1.427 . S
C2908 H2899 0.930 . S
C2908 C2906 1.378 . S
C2908 C2909 1.367 . S
C2909 C2908 1.367 . S
C2909 C2911 1.433 . S
C2910 C2906 1.350 . S
C2910 C2907 1.463 . S
C2910 N2914 1.427 . S
C2911 H2901 0.929 . S
C2911 C2909 1.433 . S
C2911 N2914 1.384 . S
C2912 H2903 0.929 . S
C2912 C2904 1.378 . S
C2912 C2907 1.350 . S
C2913 H2900 0.929 . S
C2913 C2905 1.433 . S
C2913 N2915 1.384 . S
N2914 C2910 1.427 . S
N2914 C2911 1.384 . S
N2915 C2907 1.427 . S
N2915 C2913 1.384 . S
H2916 C2922 0.930 . S
H2917 C2926 0.930 . S
H2918 C2931 0.929 . S
H2919 C2929 0.929 . S
H2920 C2924 0.929 . S
H2921 C2930 0.929 . S
C2922 H2916 0.930 . S
C2922 C2923 1.367 1_455 S
C2922 C2930 1.378 . S
C2923 C2922 1.367 1_655 S
C2923 C2931 1.433 . S
C2924 H2920 0.929 . S
C2924 C2926 1.378 . S
C2924 C2928 1.350 . S
C2925 C2928 1.463 . S
C2925 C2930 1.350 1_655 S
C2925 N2933 1.427 . S
C2926 H2917 0.930 . S
C2926 C2924 1.378 . S
C2926 C2927 1.367 . S
C2927 C2926 1.367 . S
C2927 C2929 1.433 1_655 S
C2928 C2924 1.350 . S
C2928 C2925 1.463 . S
C2928 N2932 1.427 1_655 S
C2929 H2919 0.929 . S
C2929 C2927 1.433 1_455 S
C2929 N2932 1.384 . S
C2930 H2921 0.929 . S
C2930 C2922 1.378 . S
C2930 C2925 1.350 1_455 S
C2931 H2918 0.929 . S
C2931 C2923 1.433 . S
C2931 N2933 1.384 . S
N2932 C2928 1.427 1_455 S
N2932 C2929 1.384 . S
N2933 C2925 1.427 . S
N2933 C2931 1.384 . S
H2934 C2940 0.930 . S
H2935 C2944 0.930 . S
H2936 C2949 0.929 . S
H2937 C2947 0.929 . S
H2938 C2942 0.929 . S
H2939 C2948 0.929 . S
C2940 H2934 0.930 . S
C2940 C2941 1.367 . S
C2940 C2948 1.378 . S
C2941 C2940 1.367 . S
C2941 C2949 1.433 . S
C2942 H2938 0.929 . S
C2942 C2944 1.378 . S
C2942 C2946 1.350 . S
C2943 C2946 1.463 . S
C2943 C2948 1.350 . S
C2943 N2951 1.427 . S
C2944 H2935 0.930 . S
C2944 C2942 1.378 . S
C2944 C2945 1.367 . S
C2945 C2944 1.367 . S
C2945 C2947 1.433 . S
C2946 C2942 1.350 . S
C2946 C2943 1.463 . S
C2946 N2950 1.427 . S
C2947 H2937 0.929 . S
C2947 C2945 1.433 . S
C2947 N2950 1.384 . S
C2948 H2939 0.929 . S
C2948 C2940 1.378 . S
C2948 C2943 1.350 . S
C2949 H2936 0.929 . S
C2949 C2941 1.433 . S
C2949 N2951 1.384 . S
N2950 C2946 1.427 . S
N2950 C2947 1.384 . S
N2951 C2943 1.427 . S
N2951 C2949 1.384 . S
H2952 C2958 0.930 . S
H2953 C2962 0.930 . S
H2954 C2967 0.929 . S
H2955 C2965 0.929 . S
H2956 C2960 0.929 . S
H2957 C2966 0.929 . S
C2958 H2952 0.930 . S
C2958 C2959 1.367 . S
C2958 C2966 1.378 . S
C2959 C2958 1.367 . S
C2959 C2967 1.433 1_655 S
C2960 H2956 0.929 . S
C2960 C2962 1.378 . S
C2960 C2964 1.350 1_455 S
C2961 C2964 1.463 . S
C2961 C2966 1.350 . S
C2961 N2969 1.427 1_655 S
C2962 H2953 0.930 . S
C2962 C2960 1.378 . S
C2962 C2963 1.367 1_455 S
C2963 C2962 1.367 1_655 S
C2963 C2965 1.433 . S
C2964 C2960 1.350 1_655 S
C2964 C2961 1.463 . S
C2964 N2968 1.427 . S
C2965 H2955 0.929 . S
C2965 C2963 1.433 . S
C2965 N2968 1.384 . S
C2966 H2957 0.929 . S
C2966 C2958 1.378 . S
C2966 C2961 1.350 . S
C2967 H2954 0.929 . S
C2967 C2959 1.433 1_455 S
C2967 N2969 1.384 . S
N2968 C2964 1.427 . S
N2968 C2965 1.384 . S
N2969 C2961 1.427 1_455 S
N2969 C2967 1.384 . S
H2970 C2976 0.930 . S
H2971 C2980 0.930 . S
H2972 C2985 0.929 . S
H2973 C2983 0.929 . S
H2974 C2978 0.929 . S
H2975 C2984 0.929 . S
C2976 H2970 0.930 . S
C2976 C2977 1.367 . S
C2976 C2984 1.378 . S
C2977 C2976 1.367 . S
C2977 C2985 1.433 . S
C2978 H2974 0.929 . S
C2978 C2980 1.378 . S
C2978 C2982 1.350 . S
C2979 C2982 1.463 . S
C2979 C2984 1.350 . S
C2979 N2987 1.427 . S
C2980 H2971 0.930 . S
C2980 C2978 1.378 . S
C2980 C2981 1.367 . S
C2981 C2980 1.367 . S
C2981 C2983 1.433 . S
C2982 C2978 1.350 . S
C2982 C2979 1.463 . S
C2982 N2986 1.427 . S
C2983 H2973 0.929 . S
C2983 C2981 1.433 . S
C2983 N2986 1.384 . S
C2984 H2975 0.929 . S
C2984 C2976 1.378 . S
C2984 C2979 1.350 . S
C2985 H2972 0.929 . S
C2985 C2977 1.433 . S
C2985 N2987 1.384 . S
N2986 C2982 1.427 . S
N2986 C2983 1.384 . S
N2987 C2979 1.427 . S
N2987 C2985 1.384 . S
H2988 C2994 0.930 . S
H2989 C2998 0.930 . S
H2990 C3003 0.923 1_545 S
H2991 C3001 0.929 . S
H2992 C2996 0.929 . S
H2993 C3002 0.929 . S
C2994 H2988 0.930 . S
C2994 C2995 1.367 . S
C2994 C3002 1.378 . S
C2995 C2994 1.367 . S
C2995 C3003 1.441 . S
C2996 H2992 0.929 . S
C2996 C2998 1.378 . S
C2996 C3000 1.350 1_545 S
C2997 C3000 1.463 . S
C2997 C3002 1.350 . S
C2997 N3005 1.426 1_565 S
C2998 H2989 0.930 . S
C2998 C2996 1.378 . S
C2998 C2999 1.367 1_545 S
C2999 C2998 1.367 1_565 S
C2999 C3001 1.433 . S
C3000 C2996 1.350 1_565 S
C3000 C2997 1.463 . S
C3000 N3004 1.427 . S
C3001 H2991 0.929 . S
C3001 C2999 1.433 . S
C3001 N3004 1.384 . S
C3002 H2993 0.929 . S
C3002 C2994 1.378 . S
C3002 C2997 1.350 . S
C3003 H2990 0.923 1_565 S
C3003 C2995 1.441 . S
C3003 N3005 1.384 1_565 S
N3004 C3000 1.427 . S
N3004 C3001 1.384 . S
N3005 C2997 1.426 1_545 S
N3005 C3003 1.384 1_545 S
H3006 C3012 0.930 . S
H3007 C3016 0.930 . S
H3008 C3021 0.929 . S
H3009 C3019 0.929 . S
H3010 C3014 0.929 . S
H3011 C3020 0.929 . S
C3012 H3006 0.930 . S
C3012 C3013 1.367 . S
C3012 C3020 1.378 . S
C3013 C3012 1.367 . S
C3013 C3021 1.433 . S
C3014 H3010 0.929 . S
C3014 C3016 1.378 . S
C3014 C3018 1.350 . S
C3015 C3018 1.463 . S
C3015 C3020 1.350 . S
C3015 N3023 1.427 . S
C3016 H3007 0.930 . S
C3016 C3014 1.378 . S
C3016 C3017 1.367 . S
C3017 C3016 1.367 . S
C3017 C3019 1.433 . S
C3018 C3014 1.350 . S
C3018 C3015 1.463 . S
C3018 N3022 1.427 . S
C3019 H3009 0.929 . S
C3019 C3017 1.433 . S
C3019 N3022 1.384 . S
C3020 H3011 0.929 . S
C3020 C3012 1.378 . S
C3020 C3015 1.350 . S
C3021 H3008 0.929 . S
C3021 C3013 1.433 . S
C3021 N3023 1.384 . S
N3022 C3018 1.427 . S
N3022 C3019 1.384 . S
N3023 C3015 1.427 . S
N3023 C3021 1.384 . S
H3024 C3030 0.930 . S
H3025 C3034 0.930 . S
H3026 C3039 0.929 . S
H3027 C3037 0.929 . S
H3028 C3032 0.929 . S
H3029 C3038 0.929 . S
C3030 H3024 0.930 . S
C3030 C3031 1.367 . S
C3030 C3038 1.378 . S
C3031 C3030 1.367 . S
C3031 C3039 1.433 . S
C3032 H3028 0.929 . S
C3032 C3034 1.378 . S
C3032 C3036 1.350 . S
C3033 C3036 1.463 . S
C3033 C3038 1.350 . S
C3033 N3041 1.427 . S
C3034 H3025 0.930 . S
C3034 C3032 1.378 . S
C3034 C3035 1.367 . S
C3035 C3034 1.367 . S
C3035 C3037 1.433 . S
C3036 C3032 1.350 . S
C3036 C3033 1.463 . S
C3036 N3040 1.427 . S
C3037 H3027 0.929 . S
C3037 C3035 1.433 . S
C3037 N3040 1.384 . S
C3038 H3029 0.929 . S
C3038 C3030 1.378 . S
C3038 C3033 1.350 . S
C3039 H3026 0.929 . S
C3039 C3031 1.433 . S
C3039 N3041 1.384 . S
N3040 C3036 1.427 . S
N3040 C3037 1.384 . S
N3041 C3033 1.427 . S
N3041 C3039 1.384 . S
H3042 C3048 0.930 . S
H3043 C3052 0.930 . S
H3044 C3057 0.929 . S
H3045 C3055 0.929 . S
H3046 C3050 0.929 . S
H3047 C3056 0.929 . S
C3048 H3042 0.930 . S
C3048 C3049 1.367 . S
C3048 C3056 1.378 . S
C3049 C3048 1.367 . S
C3049 C3057 1.433 . S
C3050 H3046 0.929 . S
C3050 C3052 1.378 . S
C3050 C3054 1.350 . S
C3051 C3054 1.463 . S
C3051 C3056 1.350 . S
C3051 N3059 1.427 . S
C3052 H3043 0.930 . S
C3052 C3050 1.378 . S
C3052 C3053 1.367 . S
C3053 C3052 1.367 . S
C3053 C3055 1.433 . S
C3054 C3050 1.350 . S
C3054 C3051 1.463 . S
C3054 N3058 1.427 . S
C3055 H3045 0.929 . S
C3055 C3053 1.433 . S
C3055 N3058 1.384 . S
C3056 H3047 0.929 . S
C3056 C3048 1.378 . S
C3056 C3051 1.350 . S
C3057 H3044 0.929 . S
C3057 C3049 1.433 . S
C3057 N3059 1.384 . S
N3058 C3054 1.427 . S
N3058 C3055 1.384 . S
N3059 C3051 1.427 . S
N3059 C3057 1.384 . S
H3060 C3066 0.930 . S
H3061 C3070 0.930 . S
H3062 C3075 0.929 . S
H3063 C3073 0.929 . S
H3064 C3068 0.929 . S
H3065 C3074 0.929 . S
C3066 H3060 0.930 . S
C3066 C3067 1.367 1_545 S
C3066 C3074 1.378 . S
C3067 C3066 1.367 1_565 S
C3067 C3075 1.433 . S
C3068 H3064 0.929 . S
C3068 C3070 1.378 . S
C3068 C3072 1.350 . S
C3069 C3072 1.463 . S
C3069 C3074 1.350 1_565 S
C3069 N3077 1.427 . S
C3070 H3061 0.930 . S
C3070 C3068 1.378 . S
C3070 C3071 1.367 . S
C3071 C3070 1.367 . S
C3071 C3073 1.433 1_565 S
C3072 C3068 1.350 . S
C3072 C3069 1.463 . S
C3072 N3076 1.427 1_565 S
C3073 H3063 0.929 . S
C3073 C3071 1.433 1_545 S
C3073 N3076 1.384 . S
C3074 H3065 0.929 . S
C3074 C3066 1.378 . S
C3074 C3069 1.350 1_545 S
C3075 H3062 0.929 . S
C3075 C3067 1.433 . S
C3075 N3077 1.384 . S
N3076 C3072 1.427 1_545 S
N3076 C3073 1.384 . S
N3077 C3069 1.427 . S
N3077 C3075 1.384 . S
H3078 C3084 0.930 . S
H3079 C3088 0.930 . S
H3080 C3093 0.929 . S
H3081 C3091 0.929 . S
H3082 C3086 0.929 . S
H3083 C3092 0.929 . S
C3084 H3078 0.930 . S
C3084 C3085 1.367 . S
C3084 C3092 1.378 . S
C3085 C3084 1.367 . S
C3085 C3093 1.433 . S
C3086 H3082 0.929 . S
C3086 C3088 1.378 . S
C3086 C3090 1.350 . S
C3087 C3090 1.463 . S
C3087 C3092 1.350 . S
C3087 N3095 1.427 . S
C3088 H3079 0.930 . S
C3088 C3086 1.378 . S
C3088 C3089 1.367 . S
C3089 C3088 1.367 . S
C3089 C3091 1.433 . S
C3090 C3086 1.350 . S
C3090 C3087 1.463 . S
C3090 N3094 1.427 . S
C3091 H3081 0.929 . S
C3091 C3089 1.433 . S
C3091 N3094 1.384 . S
C3092 H3083 0.929 . S
C3092 C3084 1.378 . S
C3092 C3087 1.350 . S
C3093 H3080 0.929 . S
C3093 C3085 1.433 . S
C3093 N3095 1.384 . S
N3094 C3090 1.427 . S
N3094 C3091 1.384 . S
N3095 C3087 1.427 . S
N3095 C3093 1.384 . S
H3096 C3102 0.930 . S
H3097 C3106 0.930 . S
H3098 C3111 0.929 . S
H3099 C3109 0.929 . S
H3100 C3104 0.929 . S
H3101 C3110 0.929 . S
C3102 H3096 0.930 . S
C3102 C3103 1.367 . S
C3102 C3110 1.378 . S
C3103 C3102 1.367 . S
C3103 C3111 1.433 . S
C3104 H3100 0.929 . S
C3104 C3106 1.378 . S
C3104 C3108 1.350 . S
C3105 C3108 1.463 . S
C3105 C3110 1.350 . S
C3105 N3113 1.427 . S
C3106 H3097 0.930 . S
C3106 C3104 1.378 . S
C3106 C3107 1.367 . S
C3107 C3106 1.367 . S
C3107 C3109 1.433 . S
C3108 C3104 1.350 . S
C3108 C3105 1.463 . S
C3108 N3112 1.427 . S
C3109 H3099 0.929 . S
C3109 C3107 1.433 . S
C3109 N3112 1.384 . S
C3110 H3101 0.929 . S
C3110 C3102 1.378 . S
C3110 C3105 1.350 . S
C3111 H3098 0.929 . S
C3111 C3103 1.433 . S
C3111 N3113 1.384 . S
N3112 C3108 1.427 . S
N3112 C3109 1.384 . S
N3113 C3105 1.427 . S
N3113 C3111 1.384 . S
H3114 C3120 0.930 . S
H3115 C3124 0.930 . S
H3116 C3129 0.929 . S
H3117 C3127 0.929 . S
H3118 C3122 0.929 . S
H3119 C3128 0.929 . S
C3120 H3114 0.930 . S
C3120 C3121 1.367 . S
C3120 C3128 1.378 . S
C3121 C3120 1.367 . S
C3121 C3129 1.433 . S
C3122 H3118 0.929 . S
C3122 C3124 1.378 . S
C3122 C3126 1.350 . S
C3123 C3126 1.463 . S
C3123 C3128 1.350 . S
C3123 N3131 1.427 . S
C3124 H3115 0.930 . S
C3124 C3122 1.378 . S
C3124 C3125 1.367 . S
C3125 C3124 1.367 . S
C3125 C3127 1.433 . S
C3126 C3122 1.350 . S
C3126 C3123 1.463 . S
C3126 N3130 1.427 . S
C3127 H3117 0.929 . S
C3127 C3125 1.433 . S
C3127 N3130 1.384 . S
C3128 H3119 0.929 . S
C3128 C3120 1.378 . S
C3128 C3123 1.350 . S
C3129 H3116 0.929 . S
C3129 C3121 1.433 . S
C3129 N3131 1.384 . S
N3130 C3126 1.427 . S
N3130 C3127 1.384 . S
N3131 C3123 1.427 . S
N3131 C3129 1.384 . S
H3132 C3138 0.930 . S
H3133 C3142 0.930 . S
H3134 C3147 0.929 . S
H3135 C3145 0.929 . S
H3136 C3140 0.929 . S
H3137 C3146 0.929 . S
C3138 H3132 0.930 . S
C3138 C3139 1.367 . S
C3138 C3146 1.378 . S
C3139 C3138 1.367 . S
C3139 C3147 1.433 . S
C3140 H3136 0.929 . S
C3140 C3142 1.378 . S
C3140 C3144 1.350 . S
C3141 C3144 1.463 . S
C3141 C3146 1.350 . S
C3141 N3149 1.427 . S
C3142 H3133 0.930 . S
C3142 C3140 1.378 . S
C3142 C3143 1.367 . S
C3143 C3142 1.367 . S
C3143 C3145 1.433 . S
C3144 C3140 1.350 . S
C3144 C3141 1.463 . S
C3144 N3148 1.427 . S
C3145 H3135 0.929 . S
C3145 C3143 1.433 . S
C3145 N3148 1.384 . S
C3146 H3137 0.929 . S
C3146 C3138 1.378 . S
C3146 C3141 1.350 . S
C3147 H3134 0.929 . S
C3147 C3139 1.433 . S
C3147 N3149 1.384 . S
N3148 C3144 1.427 . S
N3148 C3145 1.384 . S
N3149 C3141 1.427 . S
N3149 C3147 1.384 . S
H3150 C3156 0.930 . S
H3151 C3160 0.930 . S
H3152 C3165 0.929 . S
H3153 C3163 0.929 . S
H3154 C3158 0.929 . S
H3155 C3164 0.929 . S
C3156 H3150 0.930 . S
C3156 C3157 1.367 . S
C3156 C3164 1.378 . S
C3157 C3156 1.367 . S
C3157 C3165 1.433 . S
C3158 H3154 0.929 . S
C3158 C3160 1.378 . S
C3158 C3162 1.350 . S
C3159 C3162 1.463 . S
C3159 C3164 1.350 . S
C3159 N3167 1.427 . S
C3160 H3151 0.930 . S
C3160 C3158 1.378 . S
C3160 C3161 1.367 . S
C3161 C3160 1.367 . S
C3161 C3163 1.433 . S
C3162 C3158 1.350 . S
C3162 C3159 1.463 . S
C3162 N3166 1.427 . S
C3163 H3153 0.929 . S
C3163 C3161 1.433 . S
C3163 N3166 1.384 . S
C3164 H3155 0.929 . S
C3164 C3156 1.378 . S
C3164 C3159 1.350 . S
C3165 H3152 0.929 . S
C3165 C3157 1.433 . S
C3165 N3167 1.384 . S
N3166 C3162 1.427 . S
N3166 C3163 1.384 . S
N3167 C3159 1.427 . S
N3167 C3165 1.384 . S
H3168 C3174 0.930 . S
H3169 C3178 0.930 . S
H3170 C3183 0.929 . S
H3171 C3181 0.929 . S
H3172 C3176 0.929 . S
H3173 C3182 0.929 . S
C3174 H3168 0.930 . S
C3174 C3175 1.367 . S
C3174 C3182 1.378 . S
C3175 C3174 1.367 . S
C3175 C3183 1.433 . S
C3176 H3172 0.929 . S
C3176 C3178 1.378 . S
C3176 C3180 1.350 . S
C3177 C3180 1.463 . S
C3177 C3182 1.350 . S
C3177 N3185 1.427 . S
C3178 H3169 0.930 . S
C3178 C3176 1.378 . S
C3178 C3179 1.367 . S
C3179 C3178 1.367 . S
C3179 C3181 1.433 . S
C3180 C3176 1.350 . S
C3180 C3177 1.463 . S
C3180 N3184 1.427 . S
C3181 H3171 0.929 . S
C3181 C3179 1.433 . S
C3181 N3184 1.384 . S
C3182 H3173 0.929 . S
C3182 C3174 1.378 . S
C3182 C3177 1.350 . S
C3183 H3170 0.929 . S
C3183 C3175 1.433 . S
C3183 N3185 1.384 . S
N3184 C3180 1.427 . S
N3184 C3181 1.384 . S
N3185 C3177 1.427 . S
N3185 C3183 1.384 . S
H3186 C3192 0.930 . S
H3187 C3196 0.930 . S
H3188 C3201 0.929 . S
H3189 C3199 0.929 . S
H3190 C3194 0.929 . S
H3191 C3200 0.929 . S
C3192 H3186 0.930 . S
C3192 C3193 1.367 . S
C3192 C3200 1.378 . S
C3193 C3192 1.367 . S
C3193 C3201 1.433 . S
C3194 H3190 0.929 . S
C3194 C3196 1.378 . S
C3194 C3198 1.350 . S
C3195 C3198 1.463 . S
C3195 C3200 1.350 . S
C3195 N3203 1.427 . S
C3196 H3187 0.930 . S
C3196 C3194 1.378 . S
C3196 C3197 1.367 . S
C3197 C3196 1.367 . S
C3197 C3199 1.433 . S
C3198 C3194 1.350 . S
C3198 C3195 1.463 . S
C3198 N3202 1.427 . S
C3199 H3189 0.929 . S
C3199 C3197 1.433 . S
C3199 N3202 1.384 . S
C3200 H3191 0.929 . S
C3200 C3192 1.378 . S
C3200 C3195 1.350 . S
C3201 H3188 0.929 . S
C3201 C3193 1.433 . S
C3201 N3203 1.384 . S
N3202 C3198 1.427 . S
N3202 C3199 1.384 . S
N3203 C3195 1.427 . S
N3203 C3201 1.384 . S
H3204 C3210 0.930 . S
H3205 C3214 0.930 . S
H3206 C3219 0.929 . S
H3207 C3217 0.929 . S
H3208 C3212 0.929 . S
H3209 C3218 0.929 . S
C3210 H3204 0.930 . S
C3210 C3211 1.367 . S
C3210 C3218 1.378 . S
C3211 C3210 1.367 . S
C3211 C3219 1.433 . S
C3212 H3208 0.929 . S
C3212 C3214 1.378 . S
C3212 C3216 1.350 . S
C3213 C3216 1.463 . S
C3213 C3218 1.350 . S
C3213 N3221 1.427 . S
C3214 H3205 0.930 . S
C3214 C3212 1.378 . S
C3214 C3215 1.367 . S
C3215 C3214 1.367 . S
C3215 C3217 1.433 . S
C3216 C3212 1.350 . S
C3216 C3213 1.463 . S
C3216 N3220 1.427 . S
C3217 H3207 0.929 . S
C3217 C3215 1.433 . S
C3217 N3220 1.384 . S
C3218 H3209 0.929 . S
C3218 C3210 1.378 . S
C3218 C3213 1.350 . S
C3219 H3206 0.929 . S
C3219 C3211 1.433 . S
C3219 N3221 1.384 . S
N3220 C3216 1.427 . S
N3220 C3217 1.384 . S
N3221 C3213 1.427 . S
N3221 C3219 1.384 . S
H3222 C3228 0.930 . S
H3223 C3232 0.930 . S
H3224 C3237 0.929 . S
H3225 C3235 0.929 . S
H3226 C3230 0.929 . S
H3227 C3236 0.929 . S
C3228 H3222 0.930 . S
C3228 C3229 1.367 . S
C3228 C3236 1.378 . S
C3229 C3228 1.367 . S
C3229 C3237 1.433 . S
C3230 H3226 0.929 . S
C3230 C3232 1.378 . S
C3230 C3234 1.350 . S
C3231 C3234 1.463 . S
C3231 C3236 1.350 . S
C3231 N3239 1.427 . S
C3232 H3223 0.930 . S
C3232 C3230 1.378 . S
C3232 C3233 1.367 . S
C3233 C3232 1.367 . S
C3233 C3235 1.433 . S
C3234 C3230 1.350 . S
C3234 C3231 1.463 . S
C3234 N3238 1.427 . S
C3235 H3225 0.929 . S
C3235 C3233 1.433 . S
C3235 N3238 1.384 . S
C3236 H3227 0.929 . S
C3236 C3228 1.378 . S
C3236 C3231 1.350 . S
C3237 H3224 0.929 . S
C3237 C3229 1.433 . S
C3237 N3239 1.384 . S
N3238 C3234 1.427 . S
N3238 C3235 1.384 . S
N3239 C3231 1.427 . S
N3239 C3237 1.384 . S
H3240 C3246 0.934 . S
H3241 C3250 0.930 . S
H3242 C3255 0.929 . S
H3243 C3253 0.929 . S
H3244 C3248 0.929 . S
H3245 C3254 0.929 . S
C3246 H3240 0.934 . S
C3246 C3247 1.367 . S
C3246 C3254 1.378 . S
C3247 C3246 1.367 . S
C3247 C3255 1.433 . S
C3248 H3244 0.929 . S
C3248 C3250 1.378 . S
C3248 C3252 1.350 . S
C3249 C3252 1.463 . S
C3249 C3254 1.350 . S
C3249 N3257 1.427 . S
C3250 H3241 0.930 . S
C3250 C3248 1.378 . S
C3250 C3251 1.367 . S
C3251 C3250 1.367 . S
C3251 C3253 1.433 . S
C3252 C3248 1.350 . S
C3252 C3249 1.463 . S
C3252 N3256 1.427 . S
C3253 H3243 0.929 . S
C3253 C3251 1.433 . S
C3253 N3256 1.384 . S
C3254 H3245 0.929 . S
C3254 C3246 1.378 . S
C3254 C3249 1.350 . S
C3255 H3242 0.929 . S
C3255 C3247 1.433 . S
C3255 N3257 1.384 . S
N3256 C3252 1.427 . S
N3256 C3253 1.384 . S
N3257 C3249 1.427 . S
N3257 C3255 1.384 . S
H3258 C3264 0.930 . S
H3259 C3268 0.930 . S
H3260 C3273 0.929 . S
H3261 C3271 0.929 . S
H3262 C3266 0.929 . S
H3263 C3272 0.929 . S
C3264 H3258 0.930 . S
C3264 C3265 1.367 . S
C3264 C3272 1.378 . S
C3265 C3264 1.367 . S
C3265 C3273 1.433 . S
C3266 H3262 0.929 . S
C3266 C3268 1.378 . S
C3266 C3270 1.350 . S
C3267 C3270 1.463 . S
C3267 C3272 1.350 . S
C3267 N3275 1.427 . S
C3268 H3259 0.930 . S
C3268 C3266 1.378 . S
C3268 C3269 1.367 . S
C3269 C3268 1.367 . S
C3269 C3271 1.433 . S
C3270 C3266 1.350 . S
C3270 C3267 1.463 . S
C3270 N3274 1.427 . S
C3271 H3261 0.929 . S
C3271 C3269 1.433 . S
C3271 N3274 1.384 . S
C3272 H3263 0.929 . S
C3272 C3264 1.378 . S
C3272 C3267 1.350 . S
C3273 H3260 0.929 . S
C3273 C3265 1.433 . S
C3273 N3275 1.384 . S
N3274 C3270 1.427 . S
N3274 C3271 1.384 . S
N3275 C3267 1.427 . S
N3275 C3273 1.384 . S
H3276 C3282 0.930 . S
H3277 C3286 0.930 . S
H3278 C3291 0.929 . S
H3279 C3289 0.929 . S
H3280 C3284 0.929 . S
H3281 C3290 0.929 . S
C3282 H3276 0.930 . S
C3282 C3283 1.367 . S
C3282 C3290 1.378 . S
C3283 C3282 1.367 . S
C3283 C3291 1.433 . S
C3284 H3280 0.929 . S
C3284 C3286 1.378 . S
C3284 C3288 1.350 . S
C3285 C3288 1.463 . S
C3285 C3290 1.350 . S
C3285 N3293 1.427 . S
C3286 H3277 0.930 . S
C3286 C3284 1.378 . S
C3286 C3287 1.367 . S
C3287 C3286 1.367 . S
C3287 C3289 1.433 . S
C3288 C3284 1.350 . S
C3288 C3285 1.463 . S
C3288 N3292 1.427 . S
C3289 H3279 0.929 . S
C3289 C3287 1.433 . S
C3289 N3292 1.384 . S
C3290 H3281 0.929 . S
C3290 C3282 1.378 . S
C3290 C3285 1.350 . S
C3291 H3278 0.929 . S
C3291 C3283 1.433 . S
C3291 N3293 1.384 . S
N3292 C3288 1.427 . S
N3292 C3289 1.384 . S
N3293 C3285 1.427 . S
N3293 C3291 1.384 . S
H3294 C3300 0.930 . S
H3295 C3304 0.930 . S
H3296 C3309 0.929 . S
H3297 C3307 0.929 . S
H3298 C3302 0.929 . S
H3299 C3308 0.929 . S
C3300 H3294 0.930 . S
C3300 C3301 1.367 . S
C3300 C3308 1.378 . S
C3301 C3300 1.367 . S
C3301 C3309 1.433 . S
C3302 H3298 0.929 . S
C3302 C3304 1.378 . S
C3302 C3306 1.350 . S
C3303 C3306 1.463 . S
C3303 C3308 1.350 . S
C3303 N3311 1.427 . S
C3304 H3295 0.930 . S
C3304 C3302 1.378 . S
C3304 C3305 1.367 . S
C3305 C3304 1.367 . S
C3305 C3307 1.433 . S
C3306 C3302 1.350 . S
C3306 C3303 1.463 . S
C3306 N3310 1.427 . S
C3307 H3297 0.929 . S
C3307 C3305 1.433 . S
C3307 N3310 1.384 . S
C3308 H3299 0.929 . S
C3308 C3300 1.378 . S
C3308 C3303 1.350 . S
C3309 H3296 0.929 . S
C3309 C3301 1.433 . S
C3309 N3311 1.384 . S
N3310 C3306 1.427 . S
N3310 C3307 1.384 . S
N3311 C3303 1.427 . S
N3311 C3309 1.384 . S
H3312 C3318 0.930 . S
H3313 C3322 0.930 . S
H3314 C3327 0.929 . S
H3315 C3325 0.929 . S
H3316 C3320 0.929 . S
H3317 C3326 0.929 . S
C3318 H3312 0.930 . S
C3318 C3319 1.367 . S
C3318 C3326 1.378 . S
C3319 C3318 1.367 . S
C3319 C3327 1.433 . S
C3320 H3316 0.929 . S
C3320 C3322 1.378 . S
C3320 C3324 1.350 . S
C3321 C3324 1.463 . S
C3321 C3326 1.350 . S
C3321 N3329 1.427 . S
C3322 H3313 0.930 . S
C3322 C3320 1.378 . S
C3322 C3323 1.367 . S
C3323 C3322 1.367 . S
C3323 C3325 1.433 . S
C3324 C3320 1.350 . S
C3324 C3321 1.463 . S
C3324 N3328 1.427 . S
C3325 H3315 0.929 . S
C3325 C3323 1.433 . S
C3325 N3328 1.384 . S
C3326 H3317 0.929 . S
C3326 C3318 1.378 . S
C3326 C3321 1.350 . S
C3327 H3314 0.929 . S
C3327 C3319 1.433 . S
C3327 N3329 1.384 . S
N3328 C3324 1.427 . S
N3328 C3325 1.384 . S
N3329 C3321 1.427 . S
N3329 C3327 1.384 . S
H3330 C3336 0.930 . S
H3331 C3340 0.930 . S
H3332 C3345 0.929 . S
H3333 C3343 0.929 . S
H3334 C3338 0.929 . S
H3335 C3344 0.929 . S
C3336 H3330 0.930 . S
C3336 C3337 1.367 . S
C3336 C3344 1.378 . S
C3337 C3336 1.367 . S
C3337 C3345 1.433 . S
C3338 H3334 0.929 . S
C3338 C3340 1.378 . S
C3338 C3342 1.350 . S
C3339 C3342 1.463 . S
C3339 C3344 1.350 . S
C3339 N3347 1.427 . S
C3340 H3331 0.930 . S
C3340 C3338 1.378 . S
C3340 C3341 1.367 . S
C3341 C3340 1.367 . S
C3341 C3343 1.433 . S
C3342 C3338 1.350 . S
C3342 C3339 1.463 . S
C3342 N3346 1.427 . S
C3343 H3333 0.929 . S
C3343 C3341 1.433 . S
C3343 N3346 1.384 . S
C3344 H3335 0.929 . S
C3344 C3336 1.378 . S
C3344 C3339 1.350 . S
C3345 H3332 0.929 . S
C3345 C3337 1.433 . S
C3345 N3347 1.384 . S
N3346 C3342 1.427 . S
N3346 C3343 1.384 . S
N3347 C3339 1.427 . S
N3347 C3345 1.384 . S
H3348 C3354 0.930 . S
H3349 C3358 0.930 . S
H3350 C3363 0.929 . S
H3351 C3361 0.929 . S
H3352 C3356 0.929 . S
H3353 C3362 0.929 . S
C3354 H3348 0.930 . S
C3354 C3355 1.367 . S
C3354 C3362 1.378 . S
C3355 C3354 1.367 . S
C3355 C3363 1.433 . S
C3356 H3352 0.929 . S
C3356 C3358 1.378 . S
C3356 C3360 1.350 . S
C3357 C3360 1.463 . S
C3357 C3362 1.350 . S
C3357 N3365 1.427 . S
C3358 H3349 0.930 . S
C3358 C3356 1.378 . S
C3358 C3359 1.367 . S
C3359 C3358 1.367 . S
C3359 C3361 1.433 . S
C3360 C3356 1.350 . S
C3360 C3357 1.463 . S
C3360 N3364 1.427 . S
C3361 H3351 0.929 . S
C3361 C3359 1.433 . S
C3361 N3364 1.384 . S
C3362 H3353 0.929 . S
C3362 C3354 1.378 . S
C3362 C3357 1.350 . S
C3363 H3350 0.929 . S
C3363 C3355 1.433 . S
C3363 N3365 1.384 . S
N3364 C3360 1.427 . S
N3364 C3361 1.384 . S
N3365 C3357 1.427 . S
N3365 C3363 1.384 . S
H3366 C3372 0.930 . S
H3367 C3376 0.930 . S
H3368 C3381 0.929 . S
H3369 C3379 0.929 . S
H3370 C3374 0.929 . S
H3371 C3380 0.929 . S
C3372 H3366 0.930 . S
C3372 C3373 1.367 . S
C3372 C3380 1.378 . S
C3373 C3372 1.367 . S
C3373 C3381 1.433 . S
C3374 H3370 0.929 . S
C3374 C3376 1.378 . S
C3374 C3378 1.350 . S
C3375 C3378 1.463 . S
C3375 C3380 1.350 . S
C3375 N3383 1.427 . S
C3376 H3367 0.930 . S
C3376 C3374 1.378 . S
C3376 C3377 1.367 . S
C3377 C3376 1.367 . S
C3377 C3379 1.433 . S
C3378 C3374 1.350 . S
C3378 C3375 1.463 . S
C3378 N3382 1.427 . S
C3379 H3369 0.929 . S
C3379 C3377 1.433 . S
C3379 N3382 1.384 . S
C3380 H3371 0.929 . S
C3380 C3372 1.378 . S
C3380 C3375 1.350 . S
C3381 H3368 0.929 . S
C3381 C3373 1.433 . S
C3381 N3383 1.384 . S
N3382 C3378 1.427 . S
N3382 C3379 1.384 . S
N3383 C3375 1.427 . S
N3383 C3381 1.384 . S
H3384 C3390 0.930 . S
H3385 C3394 0.930 . S
H3386 C3399 0.929 . S
H3387 C3397 0.929 . S
H3388 C3392 0.929 . S
H3389 C3398 0.929 . S
C3390 H3384 0.930 . S
C3390 C3391 1.367 . S
C3390 C3398 1.378 . S
C3391 C3390 1.367 . S
C3391 C3399 1.433 1_565 S
C3392 H3388 0.929 . S
C3392 C3394 1.378 . S
C3392 C3396 1.350 1_545 S
C3393 C3396 1.463 . S
C3393 C3398 1.350 . S
C3393 N3401 1.427 1_565 S
C3394 H3385 0.930 . S
C3394 C3392 1.378 . S
C3394 C3395 1.367 1_545 S
C3395 C3394 1.367 1_565 S
C3395 C3397 1.433 . S
C3396 C3392 1.350 1_565 S
C3396 C3393 1.463 . S
C3396 N3400 1.427 . S
C3397 H3387 0.929 . S
C3397 C3395 1.433 . S
C3397 N3400 1.384 . S
C3398 H3389 0.929 . S
C3398 C3390 1.378 . S
C3398 C3393 1.350 . S
C3399 H3386 0.929 . S
C3399 C3391 1.433 1_545 S
C3399 N3401 1.384 . S
N3400 C3396 1.427 . S
N3400 C3397 1.384 . S
N3401 C3393 1.427 1_545 S
N3401 C3399 1.384 . S
H3402 C3408 0.930 . S
H3403 C3412 0.930 . S
H3404 C3417 0.929 . S
H3405 C3415 0.929 . S
H3406 C3410 0.929 . S
H3407 C3416 0.929 . S
C3408 H3402 0.930 . S
C3408 C3409 1.367 . S
C3408 C3416 1.378 . S
C3409 C3408 1.367 . S
C3409 C3417 1.433 . S
C3410 H3406 0.929 . S
C3410 C3412 1.378 . S
C3410 C3414 1.350 . S
C3411 C3414 1.463 . S
C3411 C3416 1.350 . S
C3411 N3419 1.427 . S
C3412 H3403 0.930 . S
C3412 C3410 1.378 . S
C3412 C3413 1.367 . S
C3413 C3412 1.367 . S
C3413 C3415 1.433 . S
C3414 C3410 1.350 . S
C3414 C3411 1.463 . S
C3414 N3418 1.427 . S
C3415 H3405 0.929 . S
C3415 C3413 1.433 . S
C3415 N3418 1.384 . S
C3416 H3407 0.929 . S
C3416 C3408 1.378 . S
C3416 C3411 1.350 . S
C3417 H3404 0.929 . S
C3417 C3409 1.433 . S
C3417 N3419 1.384 . S
N3418 C3414 1.427 . S
N3418 C3415 1.384 . S
N3419 C3411 1.427 . S
N3419 C3417 1.384 . S
C2131 C3 1.509 . S
C2135 C652 1.500 . S
C2149 C534 1.500 . S
C2153 C62 1.509 . S
C2167 C593 1.508 . S
C2171 C121 1.501 . S
C2185 C180 1.508 . S
C2189 C416 1.501 . S
C2203 C239 1.508 . S
C2207 C475 1.501 . S
C2221 C298 1.507 . S
C2225 C357 1.503 . S
C2239 C711 1.509 . S
C2243 C1360 1.501 . S
C2257 C1242 1.500 . S
C2261 C770 1.509 . S
C2275 C829 1.502 . S
C2279 C1301 1.507 . S
C2293 C888 1.504 . S
C2297 C1124 1.506 . S
C2311 C947 1.506 . S
C2315 C1183 1.503 . S
C2329 C1006 1.508 . S
C2333 C1065 1.501 . S
C2347 C1419 1.500 . S
C2351 C2068 1.509 . S
C2365 C1478 1.507 . S
C2369 C1950 1.503 . S
C2383 C2009 1.503 . S
C2387 C1537 1.506 . S
C2401 C1596 1.505 . S
C2405 C1832 1.504 . S
C2419 C1891 1.503 . S
C2423 C1655 1.507 . S
C2437 C1773 1.504 . S
C2441 C1714 1.505 . S
C2455 C5 1.377 . S
C2459 C890 1.365 1_455 S
C2473 C64 1.373 . S
C2477 C949 1.368 . S
C2491 C123 1.370 . S
C2495 C1008 1.376 . S
C2509 C182 1.368 . S
C2513 C1421 1.364 1_545 S
C2527 C1480 1.371 . S
C2531 C241 1.369 . S
C2545 C1539 1.379 . S
C2549 C300 1.377 . S
C2563 C359 1.369 . S
C2567 C1952 1.376 . S
C2581 C2011 1.379 . S
C2585 C418 1.373 . S
C2599 C477 1.379 . S
C2603 C2070 1.373 1_545 S
C2617 C536 1.372 . S
C2621 C1067 1.368 . S
C2635 C595 1.379 . S
C2639 C1126 1.374 1_455 S
C2653 C654 1.379 . S
C2657 C1185 1.373 . S
C2671 C1598 1.378 . S
C2675 C713 1.371 . S
C2689 C772 1.372 . S
C2693 C1657 1.378 . S
C2707 C831 1.370 . S
C2711 C1716 1.377 . S
C2725 C1775 1.372 . S
C2729 C1244 1.378 . S
C2743 C1834 1.379 . S
C2747 C1303 1.377 . S
C2761 C1362 1.377 . S
C2765 C1893 1.370 . S
C2779 C52 1.304 . S
C2783 C288 1.308 . S
C2797 C347 1.302 . S
C2801 C111 1.300 . S
C2815 C229 1.300 . S
C2819 C170 1.302 . S
C2833 C406 1.301 . S
C2837 C642 1.308 . S
C2851 C701 1.308 . S
C2855 C465 1.301 . S
C2869 C524 1.305 . S
C2873 C583 1.308 . S
C2887 C996 1.307 . S
C2891 C760 1.301 . S
C2905 C819 1.306 . S
C2909 C1055 1.308 . S
C2923 C878 1.308 . S
C2927 C937 1.305 . S
C2941 C1350 1.303 . S
C2945 C1114 1.300 . S
C2959 C1409 1.301 . S
C2963 C1173 1.307 . S
C2977 C1291 1.308 . S
C2981 C1232 1.305 . S
C2995 C1468 1.306 . S
C2999 C1704 1.308 . S
C3013 C1527 1.308 . S
C3017 C1763 1.302 . S
C3031 C1586 1.308 . S
C3035 C1645 1.304 . S
C3049 C2058 1.302 . S
C3053 C1822 1.300 . S
C3067 C2117 1.305 . S
C3071 C1881 1.300 . S
C3085 C1999 1.305 . S
C3089 C1940 1.308 . S
C3103 C564 2.070 . S
C3107 C33 2.072 . S
C3121 C623 2.071 . S
C3125 C92 2.072 . S
C3139 C151 2.072 . S
C3143 C682 2.070 . S
C3157 C210 2.072 . S
C3161 C387 2.070 . S
C3175 C446 2.071 . S
C3179 C269 2.071 . S
C3193 C328 2.071 . S
C3197 C505 2.071 . S
C3211 C1272 2.071 . S
C3215 C741 2.071 . S
C3229 C1331 2.072 . S
C3233 C800 2.070 . S
C3247 C859 2.071 . S
C3251 C1390 2.071 . S
C3265 C1095 2.071 . S
C3269 C918 2.071 . S
C3283 C1154 2.072 . S
C3287 C977 2.071 . S
C3301 C1213 2.070 . S
C3305 C1036 2.072 . S
C3319 C1449 2.070 . S
C3323 C1980 2.072 . S
C3337 C2039 2.070 . S
C3341 C1508 2.072 . S
C3355 C1567 2.071 . S
C3359 C2098 2.072 . S
C3373 C1626 2.071 . S
C3377 C1803 2.071 . S
C3391 C1685 2.070 . S
C3395 C1862 2.073 . S
C3409 C1921 2.070 . S
C3413 C1744 2.072 . S
