# Generated by pormake.
# Topology ict, (4)-cn, num edge types: 1
# Building blocks:
#     Node 0, Type 0, BuildingBlock: CEKHIL_clean_sbu_0, # of connection points: 4
#     Node 1, Type 0, BuildingBlock: CEKHIL_clean_sbu_0, # of connection points: 4
#     Node 2, Type 0, BuildingBlock: CEKHIL_clean_sbu_0, # of connection points: 4
#     Node 3, Type 0, BuildingBlock: CEKHIL_clean_sbu_0, # of connection points: 4
#     Node 4, Type 0, BuildingBlock: CEKHIL_clean_sbu_0, # of connection points: 4
#     Node 5, Type 0, BuildingBlock: CEKHIL_clean_sbu_0, # of connection points: 4
#     Node 6, Type 0, BuildingBlock: CEKHIL_clean_sbu_0, # of connection points: 4
#     Node 7, Type 0, BuildingBlock: CEKHIL_clean_sbu_0, # of connection points: 4
#     Node 8, Type 0, BuildingBlock: CEKHIL_clean_sbu_0, # of connection points: 4
#     Node 9, Type 0, BuildingBlock: CEKHIL_clean_sbu_0, # of connection points: 4
#     Node 10, Type 0, BuildingBlock: CEKHIL_clean_sbu_0, # of connection points: 4
#     Node 11, Type 0, BuildingBlock: CEKHIL_clean_sbu_0, # of connection points: 4
#     Node 12, Type 0, BuildingBlock: CEKHIL_clean_sbu_0, # of connection points: 4
#     Node 13, Type 0, BuildingBlock: CEKHIL_clean_sbu_0, # of connection points: 4
#     Node 14, Type 0, BuildingBlock: CEKHIL_clean_sbu_0, # of connection points: 4
#     Node 15, Type 0, BuildingBlock: CEKHIL_clean_sbu_0, # of connection points: 4
#     Node 16, Type 0, BuildingBlock: CEKHIL_clean_sbu_0, # of connection points: 4
#     Node 17, Type 0, BuildingBlock: CEKHIL_clean_sbu_0, # of connection points: 4
#     Node 18, Type 0, BuildingBlock: CEKHIL_clean_sbu_0, # of connection points: 4
#     Node 19, Type 0, BuildingBlock: CEKHIL_clean_sbu_0, # of connection points: 4
#     Node 20, Type 0, BuildingBlock: CEKHIL_clean_sbu_0, # of connection points: 4
#     Node 21, Type 0, BuildingBlock: CEKHIL_clean_sbu_0, # of connection points: 4
#     Node 22, Type 0, BuildingBlock: CEKHIL_clean_sbu_0, # of connection points: 4
#     Node 23, Type 0, BuildingBlock: CEKHIL_clean_sbu_0, # of connection points: 4
#     Node 24, Type 0, BuildingBlock: CEKHIL_clean_sbu_0, # of connection points: 4
#     Node 25, Type 0, BuildingBlock: CEKHIL_clean_sbu_0, # of connection points: 4
#     Node 26, Type 0, BuildingBlock: CEKHIL_clean_sbu_0, # of connection points: 4
#     Node 27, Type 0, BuildingBlock: CEKHIL_clean_sbu_0, # of connection points: 4
#     Node 28, Type 0, BuildingBlock: CEKHIL_clean_sbu_0, # of connection points: 4
#     Node 29, Type 0, BuildingBlock: CEKHIL_clean_sbu_0, # of connection points: 4
#     Node 30, Type 0, BuildingBlock: CEKHIL_clean_sbu_0, # of connection points: 4
#     Node 31, Type 0, BuildingBlock: CEKHIL_clean_sbu_0, # of connection points: 4
#     Node 32, Type 0, BuildingBlock: CEKHIL_clean_sbu_0, # of connection points: 4
#     Node 33, Type 0, BuildingBlock: CEKHIL_clean_sbu_0, # of connection points: 4
#     Node 34, Type 0, BuildingBlock: CEKHIL_clean_sbu_0, # of connection points: 4
#     Node 35, Type 0, BuildingBlock: CEKHIL_clean_sbu_0, # of connection points: 4
#     Edge 36, Type (0, 0), BuildingBlock: TEMPAE_clean_linker_10, # of connection points: 2
#     Edge 37, Type (0, 0), BuildingBlock: TEMPAE_clean_linker_10, # of connection points: 2
#     Edge 38, Type (0, 0), BuildingBlock: TEMPAE_clean_linker_10, # of connection points: 2
#     Edge 39, Type (0, 0), BuildingBlock: TEMPAE_clean_linker_10, # of connection points: 2
#     Edge 40, Type (0, 0), BuildingBlock: TEMPAE_clean_linker_10, # of connection points: 2
#     Edge 41, Type (0, 0), BuildingBlock: TEMPAE_clean_linker_10, # of connection points: 2
#     Edge 42, Type (0, 0), BuildingBlock: TEMPAE_clean_linker_10, # of connection points: 2
#     Edge 43, Type (0, 0), BuildingBlock: TEMPAE_clean_linker_10, # of connection points: 2
#     Edge 44, Type (0, 0), BuildingBlock: TEMPAE_clean_linker_10, # of connection points: 2
#     Edge 45, Type (0, 0), BuildingBlock: TEMPAE_clean_linker_10, # of connection points: 2
#     Edge 46, Type (0, 0), BuildingBlock: TEMPAE_clean_linker_10, # of connection points: 2
#     Edge 47, Type (0, 0), BuildingBlock: TEMPAE_clean_linker_10, # of connection points: 2
#     Edge 48, Type (0, 0), BuildingBlock: TEMPAE_clean_linker_10, # of connection points: 2
#     Edge 49, Type (0, 0), BuildingBlock: TEMPAE_clean_linker_10, # of connection points: 2
#     Edge 50, Type (0, 0), BuildingBlock: TEMPAE_clean_linker_10, # of connection points: 2
#     Edge 51, Type (0, 0), BuildingBlock: TEMPAE_clean_linker_10, # of connection points: 2
#     Edge 52, Type (0, 0), BuildingBlock: TEMPAE_clean_linker_10, # of connection points: 2
#     Edge 53, Type (0, 0), BuildingBlock: TEMPAE_clean_linker_10, # of connection points: 2
#     Edge 54, Type (0, 0), BuildingBlock: TEMPAE_clean_linker_10, # of connection points: 2
#     Edge 55, Type (0, 0), BuildingBlock: TEMPAE_clean_linker_10, # of connection points: 2
#     Edge 56, Type (0, 0), BuildingBlock: TEMPAE_clean_linker_10, # of connection points: 2
#     Edge 57, Type (0, 0), BuildingBlock: TEMPAE_clean_linker_10, # of connection points: 2
#     Edge 58, Type (0, 0), BuildingBlock: TEMPAE_clean_linker_10, # of connection points: 2
#     Edge 59, Type (0, 0), BuildingBlock: TEMPAE_clean_linker_10, # of connection points: 2
#     Edge 60, Type (0, 0), BuildingBlock: TEMPAE_clean_linker_10, # of connection points: 2
#     Edge 61, Type (0, 0), BuildingBlock: TEMPAE_clean_linker_10, # of connection points: 2
#     Edge 62, Type (0, 0), BuildingBlock: TEMPAE_clean_linker_10, # of connection points: 2
#     Edge 63, Type (0, 0), BuildingBlock: TEMPAE_clean_linker_10, # of connection points: 2
#     Edge 64, Type (0, 0), BuildingBlock: TEMPAE_clean_linker_10, # of connection points: 2
#     Edge 65, Type (0, 0), BuildingBlock: TEMPAE_clean_linker_10, # of connection points: 2
#     Edge 66, Type (0, 0), BuildingBlock: TEMPAE_clean_linker_10, # of connection points: 2
#     Edge 67, Type (0, 0), BuildingBlock: TEMPAE_clean_linker_10, # of connection points: 2
#     Edge 68, Type (0, 0), BuildingBlock: TEMPAE_clean_linker_10, # of connection points: 2
#     Edge 69, Type (0, 0), BuildingBlock: TEMPAE_clean_linker_10, # of connection points: 2
#     Edge 70, Type (0, 0), BuildingBlock: TEMPAE_clean_linker_10, # of connection points: 2
#     Edge 71, Type (0, 0), BuildingBlock: TEMPAE_clean_linker_10, # of connection points: 2
#     Edge 72, Type (0, 0), BuildingBlock: TEMPAE_clean_linker_10, # of connection points: 2
#     Edge 73, Type (0, 0), BuildingBlock: TEMPAE_clean_linker_10, # of connection points: 2
#     Edge 74, Type (0, 0), BuildingBlock: TEMPAE_clean_linker_10, # of connection points: 2
#     Edge 75, Type (0, 0), BuildingBlock: TEMPAE_clean_linker_10, # of connection points: 2
#     Edge 76, Type (0, 0), BuildingBlock: TEMPAE_clean_linker_10, # of connection points: 2
#     Edge 77, Type (0, 0), BuildingBlock: TEMPAE_clean_linker_10, # of connection points: 2
#     Edge 78, Type (0, 0), BuildingBlock: TEMPAE_clean_linker_10, # of connection points: 2
#     Edge 79, Type (0, 0), BuildingBlock: TEMPAE_clean_linker_10, # of connection points: 2
#     Edge 80, Type (0, 0), BuildingBlock: TEMPAE_clean_linker_10, # of connection points: 2
#     Edge 81, Type (0, 0), BuildingBlock: TEMPAE_clean_linker_10, # of connection points: 2
#     Edge 82, Type (0, 0), BuildingBlock: TEMPAE_clean_linker_10, # of connection points: 2
#     Edge 83, Type (0, 0), BuildingBlock: TEMPAE_clean_linker_10, # of connection points: 2
#     Edge 84, Type (0, 0), BuildingBlock: TEMPAE_clean_linker_10, # of connection points: 2
#     Edge 85, Type (0, 0), BuildingBlock: TEMPAE_clean_linker_10, # of connection points: 2
#     Edge 86, Type (0, 0), BuildingBlock: TEMPAE_clean_linker_10, # of connection points: 2
#     Edge 87, Type (0, 0), BuildingBlock: TEMPAE_clean_linker_10, # of connection points: 2
#     Edge 88, Type (0, 0), BuildingBlock: TEMPAE_clean_linker_10, # of connection points: 2
#     Edge 89, Type (0, 0), BuildingBlock: TEMPAE_clean_linker_10, # of connection points: 2
#     Edge 90, Type (0, 0), BuildingBlock: TEMPAE_clean_linker_10, # of connection points: 2
#     Edge 91, Type (0, 0), BuildingBlock: TEMPAE_clean_linker_10, # of connection points: 2
#     Edge 92, Type (0, 0), BuildingBlock: TEMPAE_clean_linker_10, # of connection points: 2
#     Edge 93, Type (0, 0), BuildingBlock: TEMPAE_clean_linker_10, # of connection points: 2
#     Edge 94, Type (0, 0), BuildingBlock: TEMPAE_clean_linker_10, # of connection points: 2
#     Edge 95, Type (0, 0), BuildingBlock: TEMPAE_clean_linker_10, # of connection points: 2
#     Edge 96, Type (0, 0), BuildingBlock: TEMPAE_clean_linker_10, # of connection points: 2
#     Edge 97, Type (0, 0), BuildingBlock: TEMPAE_clean_linker_10, # of connection points: 2
#     Edge 98, Type (0, 0), BuildingBlock: TEMPAE_clean_linker_10, # of connection points: 2
#     Edge 99, Type (0, 0), BuildingBlock: TEMPAE_clean_linker_10, # of connection points: 2
#     Edge 100, Type (0, 0), BuildingBlock: TEMPAE_clean_linker_10, # of connection points: 2
#     Edge 101, Type (0, 0), BuildingBlock: TEMPAE_clean_linker_10, # of connection points: 2
#     Edge 102, Type (0, 0), BuildingBlock: TEMPAE_clean_linker_10, # of connection points: 2
#     Edge 103, Type (0, 0), BuildingBlock: TEMPAE_clean_linker_10, # of connection points: 2
#     Edge 104, Type (0, 0), BuildingBlock: TEMPAE_clean_linker_10, # of connection points: 2
#     Edge 105, Type (0, 0), BuildingBlock: TEMPAE_clean_linker_10, # of connection points: 2
#     Edge 106, Type (0, 0), BuildingBlock: TEMPAE_clean_linker_10, # of connection points: 2
#     Edge 107, Type (0, 0), BuildingBlock: TEMPAE_clean_linker_10, # of connection points: 2
# Relax obj value: 0.096
# Max RMSD: 0.121
# Mean RMSD: 0.121
data_MOF--net-ict--node1-CEKHIL_clean_sbu_0--edge1-TEMPAE_clean_linker_10
_symmetry_space_group_name_H-M    P1
_symmetry_Int_Tables_number       1
_symmetry_cell_setting            triclinic
loop_
_symmetry_equiv_pos_as_xyz
'x, y, z'
_cell_length_a     65.01362
_cell_length_b     65.021667
_cell_length_c     37.349591
_cell_angle_alpha  90.018715
_cell_angle_beta   89.988413
_cell_angle_gamma 119.99525
loop_
_atom_site_label
_atom_site_type_symbol
_atom_site_fract_x
_atom_site_fract_y
_atom_site_fract_z
_atom_type_partial_charge
Co0 Co 0.23728 0.22164 0.03958 0.0
O1 O 0.24883 0.22753 0.99117 0.0
O2 O 0.27159 0.24132 0.03943 0.0
C3 C 0.20741 0.22914 0.02966 0.0
O4 O 0.23162 0.21972 0.09373 0.0
Co5 Co 0.18647 0.1808 0.05646 0.0
O6 O 0.1929 0.19503 0.10511 0.0
C7 C 0.22331 0.17049 0.03124 0.0
C8 C 0.26995 0.23962 0.0047 0.0
C9 C 0.2138 0.21018 0.11542 0.0
O10 O 0.23948 0.19172 0.03953 0.0
O11 O 0.20108 0.16349 0.03236 0.0
O12 O 0.22867 0.24656 0.03638 0.0
O13 O 0.20537 0.20844 0.02709 0.0
Co14 Co 0.77972 0.01344 0.04257 0.0
O15 O 0.77397 0.01799 0.9935 0.0
O16 O 0.76123 0.02938 0.04024 0.0
C17 C 0.77072 0.97534 0.03608 0.0
O18 O 0.78174 0.01093 0.09717 0.0
Co19 Co 0.82002 0.00248 0.06048 0.0
O20 O 0.80589 0.99627 0.10913 0.0
C21 C 0.83131 0.04931 0.03272 0.0
C22 C 0.76257 0.02818 0.00558 0.0
C23 C 0.79119 0.00269 0.11918 0.0
O24 O 0.81032 0.04494 0.04119 0.0
O25 O 0.83781 0.03372 0.03467 0.0
O26 O 0.75381 0.98025 0.04062 0.0
O27 O 0.79174 0.99339 0.03261 0.0
Co28 Co 0.985 0.76808 0.04506 0.0
O29 O 0.97933 0.75809 0.99575 0.0
O30 O 0.97001 0.73378 0.04212 0.0
C31 C 0.02265 0.79779 0.03697 0.0
O32 O 0.98873 0.77208 0.09978 0.0
Co33 Co 0.99539 0.81843 0.0668 0.0
O34 O 0.00576 0.81103 0.11241 0.0
C35 C 0.94679 0.78202 0.04611 0.0
C36 C 0.97014 0.73652 0.00759 0.0
C37 C 0.99886 0.78973 0.12179 0.0
O38 O 0.95301 0.76609 0.04611 0.0
O39 O 0.96129 0.80408 0.05178 0.0
O40 O 0.01819 0.77608 0.04082 0.0
O41 O 0.00431 0.80051 0.03534 0.0
Co42 Co 0.22156 0.2343 0.46006 0.0
O43 O 0.22501 0.24422 0.50934 0.0
O44 O 0.24126 0.26853 0.46323 0.0
C45 C 0.22855 0.20406 0.46933 0.0
O46 O 0.22232 0.23046 0.40548 0.0
Co47 Co 0.18145 0.18432 0.43704 0.0
O48 O 0.19974 0.19172 0.39192 0.0
C49 C 0.16978 0.22127 0.45667 0.0
C50 C 0.23785 0.26578 0.49764 0.0
C51 C 0.21471 0.213 0.38313 0.0
O52 O 0.192 0.23695 0.45719 0.0
O53 O 0.16196 0.19914 0.45122 0.0
O54 O 0.24618 0.22563 0.46598 0.0
O55 O 0.20766 0.20179 0.46971 0.0
Co56 Co 0.77022 0.98996 0.46399 0.0
O57 O 0.75921 0.98397 0.51269 0.0
O58 O 0.73589 0.97519 0.46516 0.0
C59 C 0.79987 0.02725 0.47449 0.0
O60 O 0.77522 0.99406 0.4096 0.0
Co61 Co 0.82077 0.00068 0.44454 0.0
O62 O 0.81405 0.0099 0.39728 0.0
C63 C 0.78453 0.95252 0.46779 0.0
C64 C 0.73792 0.975 0.49982 0.0
C65 C 0.79288 0.00343 0.38759 0.0
O66 O 0.76818 0.95794 0.46303 0.0
O67 O 0.80668 0.96772 0.4647 0.0
O68 O 0.77854 0.02331 0.46818 0.0
O69 O 0.80227 0.00877 0.47606 0.0
Co70 Co 0.01026 0.78055 0.46568 0.0
O71 O 0.01388 0.7722 0.51377 0.0
O72 O 0.02511 0.76113 0.46475 0.0
C73 C 0.97271 0.77302 0.47375 0.0
O74 O 0.00835 0.78454 0.41161 0.0
Co75 Co 0.00106 0.82203 0.45053 0.0
O76 O 0.99421 0.80919 0.40097 0.0
C77 C 0.04751 0.83149 0.4778 0.0
C78 C 0.0235 0.76088 0.49948 0.0
C79 C 1.00039 0.79447 0.39011 0.0
O80 O 0.04242 0.8103 0.46912 0.0
O81 O 0.03252 0.83876 0.47597 0.0
O82 O 0.97656 0.75574 0.46578 0.0
O83 O 0.99136 0.7935 0.47826 0.0
Co84 Co 0.76773 0.78238 0.95777 0.0
O85 O 0.75674 0.77537 0.00657 0.0
O86 O 0.73337 0.7636 0.95882 0.0
C87 C 0.79725 0.77404 0.96478 0.0
O88 O 0.77255 0.78493 0.90317 0.0
Co89 Co 0.81836 0.82285 0.93897 0.0
O90 O 0.81163 0.80693 0.8918 0.0
C91 C 0.78179 0.83464 0.96045 0.0
C92 C 0.73542 0.76401 0.99349 0.0
C93 C 0.7904 0.79301 0.88151 0.0
O94 O 0.76591 0.81247 0.95991 0.0
O95 O 0.80386 0.84234 0.95465 0.0
O96 O 0.77562 0.75698 0.95921 0.0
O97 O 0.79996 0.79499 0.96838 0.0
Co98 Co 0.22053 0.98584 0.9665 0.0
O99 O 0.22751 0.98154 0.01514 0.0
O100 O 0.23958 0.97048 0.96716 0.0
C101 C 0.22859 0.0235 0.97535 0.0
O102 O 0.21813 0.98855 0.91195 0.0
Co103 Co 0.18057 0.99659 0.94775 0.0
O104 O 0.19695 0.00652 0.90099 0.0
C105 C 0.16828 0.94773 0.96736 0.0
C106 C 0.23908 0.97187 1.00188 0.0
C107 C 0.21059 0.99892 0.89049 0.0
O108 O 0.19042 0.95386 0.96808 0.0
O109 O 0.16083 0.96228 0.96138 0.0
O110 O 0.24573 0.01928 0.96826 0.0
O111 O 0.20773 0.00508 0.97827 0.0
Co112 Co 0.01475 0.23231 0.96581 0.0
O113 O 0.01768 0.24383 0.01401 0.0
O114 O 0.02935 0.26662 0.96562 0.0
C115 C 0.97722 0.20209 0.97321 0.0
O116 O 0.01335 0.22665 0.91164 0.0
Co117 Co 0.00623 0.18186 0.9508 0.0
O118 O 0.9999 0.18797 0.90104 0.0
C119 C 0.05245 0.21913 0.97817 0.0
C120 C 0.02723 0.26494 1.00032 0.0
C121 C 0.00586 0.2088 0.89011 0.0
O122 O 0.04705 0.23505 0.96977 0.0
O123 O 0.0377 0.19682 0.9762 0.0
O124 O 0.98101 0.22319 0.96529 0.0
O125 O 0.99593 0.20039 0.97801 0.0
Co126 Co 0.77566 0.76708 0.53781 0.0
O127 O 0.76696 0.75465 0.49011 0.0
O128 O 0.75781 0.73268 0.53927 0.0
C129 C 0.76575 0.7954 0.53038 0.0
O130 O 0.78043 0.77371 0.59167 0.0
Co131 Co 0.81566 0.81872 0.55058 0.0
O132 O 0.80323 0.81301 0.60036 0.0
C133 C 0.8273 0.78297 0.52482 0.0
C134 C 0.75678 0.73374 0.50455 0.0
C135 C 0.78972 0.79209 0.61228 0.0
O136 O 0.80629 0.76642 0.53336 0.0
O137 O 0.83379 0.80507 0.52627 0.0
O138 O 0.74948 0.77392 0.53875 0.0
O139 O 0.78667 0.79858 0.52457 0.0
Co140 Co 0.23158 0.01343 0.54546 0.0
O141 O 0.24209 0.01751 0.49646 0.0
O142 O 0.26588 0.02785 0.54356 0.0
C143 C 0.20119 0.97612 0.53711 0.0
O144 O 0.22725 0.01083 0.60015 0.0
Co145 Co 0.18174 0.00426 0.56616 0.0
O146 O 0.18837 0.99399 0.61249 0.0
C147 C 0.21888 0.05256 0.54523 0.0
C148 C 0.26351 0.02663 0.50888 0.0
C149 C 0.20963 0.00094 0.62218 0.0
O150 O 0.23444 0.04584 0.54436 0.0
O151 O 0.19683 0.03848 0.55171 0.0
O152 O 0.22243 0.97977 0.54341 0.0
O153 O 0.19926 0.99487 0.53461 0.0
Co154 Co 0.99073 0.22093 0.54491 0.0
O155 O 0.9847 0.22502 0.49573 0.0
O156 O 0.97467 0.23927 0.54226 0.0
C157 C 0.02873 0.23012 0.5364 0.0
O158 O 0.99465 0.22055 0.5995 0.0
Co159 Co 0.00303 0.18188 0.56499 0.0
O160 O 0.01144 0.19831 0.61196 0.0
C161 C 0.95499 0.16888 0.53994 0.0
C162 C 0.97492 0.23681 0.50769 0.0
C163 C 0.0044 0.21261 0.62149 0.0
O164 O 0.95941 0.19018 0.54612 0.0
O165 O 0.97077 0.16265 0.54249 0.0
O166 O 0.02367 0.24695 0.54047 0.0
O167 O 0.01079 0.20889 0.53478 0.0
Co168 Co 0.90033 0.55315 0.37293 0.0
O169 O 0.91136 0.55874 0.32423 0.0
O170 O 0.9346 0.57328 0.37185 0.0
C171 C 0.87 0.55999 0.36335 0.0
O172 O 0.89527 0.55173 0.42725 0.0
Co173 Co 0.85004 0.51208 0.39144 0.0
O174 O 0.85677 0.52686 0.43971 0.0
C175 C 0.88699 0.50211 0.36564 0.0
C176 C 0.9326 0.57127 0.33717 0.0
C177 C 0.87771 0.5423 0.44941 0.0
O178 O 0.90307 0.52352 0.37321 0.0
O179 O 0.86472 0.49483 0.3674 0.0
O180 O 0.8912 0.57768 0.36956 0.0
O181 O 0.86823 0.53939 0.36112 0.0
Co182 Co 0.44795 0.34492 0.37268 0.0
O183 O 0.44284 0.35027 0.32365 0.0
O184 O 0.42694 0.35797 0.37061 0.0
C185 C 0.44262 0.3083 0.36334 0.0
O186 O 0.44853 0.34126 0.42718 0.0
Co187 Co 0.48946 0.33724 0.39447 0.0
O188 O 0.4724 0.32664 0.44065 0.0
C189 C 0.49907 0.38521 0.37455 0.0
C190 C 0.42961 0.35835 0.33605 0.0
C191 C 0.45702 0.33235 0.44966 0.0
O192 O 0.47666 0.37783 0.37384 0.0
O193 O 0.50769 0.37161 0.38034 0.0
O194 O 0.4244 0.3111 0.36865 0.0
O195 O 0.463 0.32751 0.3619 0.0
Co196 Co 0.65329 0.09807 0.37572 0.0
O197 O 0.64932 0.08677 0.32716 0.0
O198 O 0.63901 0.06377 0.37525 0.0
C199 C 0.69048 0.12859 0.36679 0.0
O200 O 0.65585 0.1034 0.43021 0.0
Co201 Co 0.66184 0.14805 0.39387 0.0
O202 O 0.67235 0.14248 0.44078 0.0
C203 C 0.61359 0.11 0.37444 0.0
C204 C 0.64022 0.0656 0.34051 0.0
C205 C 0.6656 0.12146 0.45149 0.0
O206 O 0.6207 0.09475 0.37414 0.0
O207 O 0.62743 0.13221 0.38007 0.0
O208 O 0.68705 0.10754 0.37403 0.0
O209 O 0.67158 0.13022 0.36367 0.0
Co210 Co 0.88796 0.56904 0.79389 0.0
O211 O 0.89156 0.5789 0.8432 0.0
O212 O 0.90741 0.60331 0.79714 0.0
C213 C 0.89543 0.53908 0.8029 0.0
O214 O 0.88847 0.56517 0.73924 0.0
Co215 Co 0.84801 0.51891 0.77135 0.0
O216 O 0.86612 0.52634 0.72605 0.0
C217 C 0.83601 0.55558 0.7912 0.0
C218 C 0.90418 0.6005 0.83158 0.0
C219 C 0.88088 0.54763 0.71702 0.0
O220 O 0.8582 0.57136 0.79151 0.0
O221 O 0.82832 0.53347 0.78576 0.0
O222 O 0.91286 0.56073 0.79936 0.0
O223 O 0.87443 0.53656 0.80361 0.0
Co224 Co 0.43858 0.32228 0.7941 0.0
O225 O 0.42958 0.31701 0.84381 0.0
O226 O 0.40453 0.30832 0.79851 0.0
C227 C 0.46925 0.35949 0.80145 0.0
O228 O 0.44131 0.3257 0.73936 0.0
Co229 Co 0.48776 0.33105 0.76913 0.0
O230 O 0.47968 0.34131 0.72399 0.0
C231 C 0.45088 0.28299 0.79133 0.0
C232 C 0.40787 0.30846 0.83287 0.0
C233 C 0.45827 0.33502 0.71614 0.0
O234 O 0.43543 0.28983 0.79241 0.0
O235 O 0.47291 0.29698 0.78455 0.0
O236 O 0.44771 0.35573 0.79861 0.0
O237 O 0.47131 0.34075 0.80233 0.0
Co238 Co 0.68023 0.11563 0.79659 0.0
O239 O 0.6859 0.11052 0.84555 0.0
O240 O 0.6958 0.09686 0.79805 0.0
C241 C 0.64234 0.10695 0.80484 0.0
O242 O 0.67656 0.11676 0.74212 0.0
Co243 Co 0.66899 0.15559 0.77794 0.0
O244 O 0.66168 0.14066 0.7298 0.0
C245 C 0.7163 0.16728 0.80422 0.0
C246 C 0.69536 0.09864 0.83269 0.0
C247 C 0.6679 0.12576 0.72004 0.0
O248 O 0.71185 0.14618 0.79629 0.0
O249 O 0.70065 0.17372 0.80256 0.0
O250 O 0.64706 0.08992 0.80026 0.0
O251 O 0.66051 0.128 0.80723 0.0
Co252 Co 0.43327 0.1094 0.30014 0.0
O253 O 0.42225 0.10248 0.34891 0.0
O254 O 0.39887 0.09228 0.30118 0.0
C255 C 0.46136 0.09893 0.30588 0.0
O256 O 0.4383 0.11235 0.24576 0.0
Co257 Co 0.48521 0.14867 0.28366 0.0
O258 O 0.47739 0.13518 0.23457 0.0
C259 C 0.45066 0.16158 0.31053 0.0
C260 C 0.40093 0.09228 0.33582 0.0
C261 C 0.45616 0.12131 0.22407 0.0
O262 O 0.43362 0.14062 0.30289 0.0
O263 O 0.47261 0.16755 0.30848 0.0
O264 O 0.43935 0.08264 0.30064 0.0
O265 O 0.46507 0.12015 0.31049 0.0
Co266 Co 0.88709 0.31901 0.29916 0.0
O267 O 0.89272 0.31321 0.34767 0.0
O268 O 0.90663 0.30415 0.29968 0.0
C269 C 0.89489 0.35647 0.30944 0.0
O270 O 0.88533 0.32292 0.24485 0.0
Co271 Co 0.84657 0.32946 0.28229 0.0
O272 O 0.86099 0.33742 0.23381 0.0
C273 C 0.83582 0.28216 0.30742 0.0
C274 C 0.90479 0.3041 0.3344 0.0
C275 C 0.87597 0.33149 0.22331 0.0
O276 O 0.85698 0.28701 0.29905 0.0
O277 O 0.82902 0.29755 0.3063 0.0
O278 O 0.9122 0.35247 0.30267 0.0
O279 O 0.87411 0.33791 0.31171 0.0
Co280 Co 0.67853 0.56441 0.29603 0.0
O281 O 0.68133 0.57449 0.34506 0.0
O282 O 0.69481 0.59876 0.29838 0.0
C283 C 0.64019 0.53556 0.30008 0.0
O284 O 0.67757 0.56024 0.24153 0.0
Co285 Co 0.66794 0.51337 0.27847 0.0
O286 O 0.66359 0.52165 0.22901 0.0
C287 C 0.71443 0.54851 0.30755 0.0
C288 C 0.69205 0.59604 0.33291 0.0
C289 C 0.6702 0.54284 0.21913 0.0
O290 O 0.70991 0.56514 0.29989 0.0
O291 O 0.69902 0.52643 0.30463 0.0
O292 O 0.64548 0.55747 0.29525 0.0
O293 O 0.65795 0.5323 0.30525 0.0
Co294 Co 0.44795 0.10243 0.87871 0.0
O295 O 0.44221 0.09281 0.82923 0.0
O296 O 0.42891 0.06817 0.87544 0.0
C297 C 0.44008 0.13229 0.87248 0.0
O298 O 0.44904 0.10578 0.93354 0.0
Co299 Co 0.48808 0.15235 0.90124 0.0
O300 O 0.47056 0.14456 0.94711 0.0
C301 C 0.50014 0.11609 0.87898 0.0
C302 C 0.43022 0.07117 0.84091 0.0
C303 C 0.45639 0.12311 0.95607 0.0
O304 O 0.47793 0.10036 0.87775 0.0
O305 O 0.50781 0.13801 0.88609 0.0
O306 O 0.42279 0.1106 0.87656 0.0
O307 O 0.46106 0.13493 0.86989 0.0
Co308 Co 0.89993 0.34968 0.87819 0.0
O309 O 0.91056 0.35578 0.82918 0.0
O310 O 0.93418 0.3634 0.876 0.0
C311 C 0.86922 0.31284 0.86753 0.0
O312 O 0.89541 0.34526 0.93279 0.0
Co313 Co 0.85017 0.34044 0.89991 0.0
O314 O 0.85661 0.32919 0.94548 0.0
C315 C 0.88773 0.38901 0.88089 0.0
C316 C 0.93191 0.36402 0.84145 0.0
C317 C 0.87777 0.33543 0.95484 0.0
O318 O 0.90327 0.38226 0.88017 0.0
O319 O 0.86557 0.37486 0.88638 0.0
O320 O 0.89037 0.31605 0.87307 0.0
O321 O 0.86758 0.33181 0.86692 0.0
Co322 Co 0.6569 0.55638 0.87443 0.0
O323 O 0.65276 0.5616 0.82477 0.0
O324 O 0.64056 0.57433 0.87068 0.0
C325 C 0.69505 0.56551 0.86851 0.0
O326 O 0.65905 0.55566 0.9293 0.0
Co327 Co 0.66874 0.51786 0.8985 0.0
O328 O 0.67876 0.53657 0.94337 0.0
C329 C 0.61995 0.50375 0.87557 0.0
C330 C 0.64231 0.57292 0.83618 0.0
C331 C 0.67022 0.54976 0.95188 0.0
O332 O 0.62554 0.52569 0.87361 0.0
O333 O 0.6348 0.49696 0.88345 0.0
O334 O 0.68992 0.58234 0.87215 0.0
O335 O 0.67719 0.54424 0.86625 0.0
Co336 Co 0.56558 0.887 0.7035 0.0
O337 O 0.57704 0.8928 0.65504 0.0
O338 O 0.59992 0.90642 0.7032 0.0
C339 C 0.53602 0.89496 0.69379 0.0
O340 O 0.55992 0.88513 0.7577 0.0
Co341 Co 0.5146 0.84648 0.72025 0.0
O342 O 0.52111 0.86079 0.76884 0.0
C343 C 0.55107 0.8357 0.69488 0.0
C344 C 0.5982 0.90477 0.66847 0.0
C345 C 0.54203 0.87579 0.77928 0.0
O346 O 0.56739 0.85685 0.70329 0.0
O347 O 0.52889 0.82892 0.69605 0.0
O348 O 0.55738 0.91221 0.70045 0.0
O349 O 0.53371 0.87416 0.69107 0.0
Co350 Co 0.1107 0.67836 0.70798 0.0
O351 O 0.1044 0.68232 0.65895 0.0
O352 O 0.09178 0.69379 0.70578 0.0
C353 C 0.10234 0.64044 0.70164 0.0
O354 O 0.11294 0.67617 0.76251 0.0
Co355 Co 0.15154 0.6684 0.72619 0.0
O356 O 0.13674 0.6611 0.77445 0.0
C357 C 0.16225 0.71521 0.69901 0.0
C358 C 0.0927 0.69216 0.67113 0.0
C359 C 0.12207 0.66759 0.78444 0.0
O360 O 0.1409 0.7102 0.70632 0.0
O361 O 0.16931 0.70007 0.70145 0.0
O362 O 0.08522 0.64502 0.70643 0.0
O363 O 0.12323 0.6587 0.69803 0.0
Co364 Co 0.31927 0.43359 0.71063 0.0
O365 O 0.31334 0.42384 0.6612 0.0
O366 O 0.30379 0.39931 0.70732 0.0
C367 C 0.35712 0.46292 0.70265 0.0
O368 O 0.32317 0.43712 0.76532 0.0
Co369 Co 0.33071 0.48409 0.73356 0.0
O370 O 0.34056 0.47593 0.77899 0.0
C371 C 0.28176 0.4485 0.71308 0.0
C372 C 0.30393 0.4022 0.67284 0.0
C373 C 0.33339 0.45446 0.78779 0.0
O374 O 0.28756 0.43226 0.71222 0.0
O375 O 0.2966 0.47043 0.71914 0.0
O376 O 0.3523 0.44106 0.70602 0.0
O377 O 0.339 0.46601 0.70139 0.0
Co378 Co 0.55309 0.89971 0.12478 0.0
O379 O 0.55934 0.90903 0.17435 0.0
O380 O 0.57186 0.93401 0.12854 0.0
C381 C 0.56141 0.87006 0.12939 0.0
O382 O 0.55127 0.89655 0.06985 0.0
Co383 Co 0.51279 0.84966 0.10281 0.0
O384 O 0.52988 0.85768 0.05654 0.0
C385 C 0.50077 0.88557 0.12701 0.0
C386 C 0.57091 0.93077 0.16302 0.0
C387 C 0.5438 0.87915 0.04738 0.0
O388 O 0.52295 0.90143 0.12726 0.0
O389 O 0.49312 0.86367 0.11977 0.0
O390 O 0.57852 0.89185 0.12542 0.0
O391 O 0.54041 0.86721 0.13302 0.0
Co392 Co 0.10291 0.65606 0.12941 0.0
O393 O 0.09266 0.65058 0.17853 0.0
O394 O 0.06863 0.64118 0.13174 0.0
C395 C 0.13273 0.69364 0.13736 0.0
O396 O 0.10731 0.65963 0.07489 0.0
Co397 Co 0.15353 0.66594 0.10989 0.0
O398 O 0.14585 0.67344 0.06197 0.0
C399 C 0.11723 0.61905 0.13658 0.0
C400 C 0.07119 0.64142 0.16633 0.0
C401 C 0.12481 0.6678 0.05256 0.0
O402 O 0.10097 0.62408 0.12878 0.0
O403 O 0.13943 0.63425 0.13456 0.0
O404 O 0.11109 0.6894 0.13329 0.0
O405 O 0.13515 0.67519 0.1395 0.0
Co406 Co 0.34814 0.44878 0.13146 0.0
O407 O 0.35379 0.44385 0.18047 0.0
O408 O 0.36158 0.42811 0.13337 0.0
C409 C 0.31129 0.44281 0.14119 0.0
O410 O 0.34414 0.44907 0.07697 0.0
Co411 Co 0.33947 0.48958 0.10946 0.0
O412 O 0.32847 0.47204 0.06369 0.0
C413 C 0.38785 0.50023 0.12909 0.0
C414 C 0.36189 0.43066 0.16795 0.0
C415 C 0.33456 0.45695 0.05465 0.0
O416 O 0.38086 0.4779 0.13008 0.0
O417 O 0.37389 0.50842 0.12317 0.0
O418 O 0.31447 0.42484 0.13582 0.0
O419 O 0.33031 0.46338 0.14237 0.0
Co420 Co 0.10034 0.44784 0.62892 0.0
O421 O 0.09057 0.44419 0.67833 0.0
O422 O 0.0661 0.42792 0.63247 0.0
C423 C 0.13076 0.44104 0.63784 0.0
O424 O 0.10407 0.44725 0.57419 0.0
Co425 Co 0.15015 0.48818 0.6058 0.0
O426 O 0.14285 0.4698 0.56078 0.0
C427 C 0.11302 0.49957 0.62565 0.0
C428 C 0.06898 0.43121 0.6669 0.0
C429 C 0.12159 0.45486 0.55189 0.0
O430 O 0.09747 0.47731 0.62646 0.0
O431 O 0.13515 0.50752 0.61988 0.0
O432 O 0.10923 0.42335 0.63446 0.0
O433 O 0.13291 0.46188 0.6384 0.0
Co434 Co 0.55229 0.65274 0.62822 0.0
O435 O 0.56016 0.64918 0.67672 0.0
O436 O 0.57236 0.63856 0.62834 0.0
C437 C 0.55888 0.69 0.63635 0.0
O438 O 0.54927 0.65487 0.5738 0.0
Co439 Co 0.51042 0.66086 0.61057 0.0
O440 O 0.52226 0.66574 0.56081 0.0
C441 C 0.50068 0.61307 0.63133 0.0
C442 C 0.57211 0.64001 0.66306 0.0
C443 C 0.53811 0.66082 0.55128 0.0
O444 O 0.52303 0.62009 0.63065 0.0
O445 O 0.49224 0.62688 0.62612 0.0
O446 O 0.57651 0.68655 0.62913 0.0
O447 O 0.53844 0.6711 0.64005 0.0
Co448 Co 0.34408 0.90037 0.63529 0.0
O449 O 0.34796 0.91265 0.68321 0.0
O450 O 0.35907 0.93469 0.63403 0.0
C451 C 0.30656 0.87043 0.64418 0.0
O452 O 0.34181 0.89406 0.58128 0.0
Co453 Co 0.33462 0.84947 0.62087 0.0
O454 O 0.32753 0.85517 0.57131 0.0
C455 C 0.38148 0.88668 0.64651 0.0
C456 C 0.35762 0.93356 0.66879 0.0
C457 C 0.33372 0.876 0.5601 0.0
O458 O 0.37623 0.90273 0.63826 0.0
O459 O 0.36648 0.86441 0.64509 0.0
O460 O 0.31035 0.89149 0.63592 0.0
O461 O 0.32525 0.86864 0.64838 0.0
Co462 Co 0.11327 0.43493 0.2076 0.0
O463 O 0.10565 0.4236 0.15914 0.0
O464 O 0.09412 0.40056 0.20725 0.0
C465 C 0.1053 0.46464 0.19937 0.0
O466 O 0.11651 0.44024 0.2619 0.0
Co467 Co 0.15404 0.48566 0.22427 0.0
O468 O 0.14059 0.47901 0.27342 0.0
C469 C 0.16456 0.4494 0.19708 0.0
C470 C 0.0942 0.4024 0.17254 0.0
C471 C 0.12599 0.45796 0.28379 0.0
O472 O 0.14332 0.43301 0.20485 0.0
O473 O 0.17153 0.47158 0.19927 0.0
O474 O 0.08814 0.44338 0.20692 0.0
O475 O 0.12599 0.46683 0.1956 0.0
Co476 Co 0.56774 0.6815 0.20628 0.0
O477 O 0.5768 0.68462 0.1565 0.0
O478 O 0.60196 0.69735 0.20213 0.0
C479 C 0.53823 0.64336 0.20224 0.0
O480 O 0.56535 0.68039 0.26115 0.0
Co481 Co 0.51783 0.6714 0.2299 0.0
O482 O 0.52737 0.66646 0.27795 0.0
C483 C 0.55302 0.71922 0.20452 0.0
C484 C 0.59862 0.69512 0.16769 0.0
C485 C 0.54891 0.67305 0.28515 0.0
O486 O 0.56909 0.7132 0.20402 0.0
O487 O 0.53122 0.70479 0.21207 0.0
O488 O 0.56015 0.64831 0.20563 0.0
O489 O 0.53512 0.66137 0.19886 0.0
Co490 Co 0.32245 0.88721 0.21424 0.0
O491 O 0.3186 0.89319 0.16483 0.0
O492 O 0.30661 0.90572 0.21122 0.0
C493 C 0.36043 0.89575 0.20825 0.0
O494 O 0.32448 0.8856 0.2691 0.0
Co495 Co 0.33302 0.84735 0.23571 0.0
O496 O 0.3422 0.86438 0.28202 0.0
C497 C 0.28462 0.83481 0.21324 0.0
C498 C 0.30839 0.90463 0.17665 0.0
C499 C 0.33453 0.87817 0.29139 0.0
O500 O 0.29073 0.85693 0.2127 0.0
O501 O 0.2991 0.82738 0.22 0.0
O502 O 0.35567 0.91279 0.21255 0.0
O503 O 0.34232 0.87468 0.20521 0.0
C504 C 0.36802 0.30114 0.85241 0.0
C505 C 0.38799 0.29881 0.85856 0.0
C506 C 0.34933 0.29248 0.87732 0.0
C507 C 0.35031 0.28044 0.90833 0.0
C508 C 0.37034 0.27773 0.91427 0.0
C509 C 0.38914 0.28734 0.88961 0.0
C510 C 0.32858 0.29629 0.87052 0.0
C511 C 0.37168 0.26424 0.94624 0.0
C512 C 0.31057 0.27235 0.98833 0.0
C513 C 0.29098 0.24996 0.98122 0.0
C514 C 0.32994 0.2827 0.96456 0.0
C515 C 0.32999 0.26989 0.93385 0.0
C516 C 0.31049 0.24691 0.92733 0.0
C517 C 0.29102 0.23744 0.95073 0.0
C518 C 0.35008 0.30751 0.97184 0.0
C519 C 0.3102 0.23229 0.89569 0.0
H520 H 0.36727 0.31019 0.8285 0.0
H521 H 0.40453 0.28535 0.89415 0.0
H522 H 0.31212 0.27894 0.86684 0.0
H523 H 0.32576 0.30506 0.894 0.0
H524 H 0.33126 0.30735 0.8464 0.0
H525 H 0.38832 0.26336 0.9466 0.0
H526 H 0.37065 0.27275 0.97138 0.0
H527 H 0.35633 0.24586 0.94606 0.0
H528 H 0.31039 0.28207 0.01181 0.0
H529 H 0.27591 0.22 0.94547 0.0
H530 H 0.3522 0.31922 0.94883 0.0
H531 H 0.367 0.3074 0.97473 0.0
H532 H 0.34712 0.31526 0.99647 0.0
H533 H 0.31039 0.2413 0.87039 0.0
H534 H 0.29433 0.21421 0.89566 0.0
H535 H 0.32636 0.2306 0.89589 0.0
C536 C 0.72599 0.1028 0.8763 0.0
C537 C 0.70545 0.08809 0.85674 0.0
C538 C 0.73536 0.09316 0.90066 0.0
C539 C 0.72339 0.06828 0.90632 0.0
C540 C 0.70238 0.0534 0.8868 0.0
C541 C 0.69382 0.0635 0.86182 0.0
C542 C 0.75812 0.10958 0.92016 0.0
C543 C 0.68882 0.02688 0.89261 0.0
C544 C 0.75811 0.04046 0.94408 0.0
C545 C 0.75226 0.03833 0.98059 0.0
C546 C 0.7489 0.05023 0.91974 0.0
C547 C 0.73317 0.05779 0.93203 0.0
C548 C 0.72702 0.05553 0.96882 0.0
C549 C 0.73679 0.04598 0.99274 0.0
C550 C 0.75622 0.05266 0.88088 0.0
C551 C 0.71005 0.06311 0.98286 0.0
H552 H 0.73482 0.12186 0.8723 0.0
H553 H 0.67772 0.05226 0.8469 0.0
H554 H 0.75496 0.10812 0.94947 0.0
H555 H 0.77163 0.10432 0.91468 0.0
H556 H 0.76548 0.12843 0.91216 0.0
H557 H 0.67241 0.0179 0.87616 0.0
H558 H 0.70021 0.0192 0.88584 0.0
H559 H 0.68387 0.02292 0.92126 0.0
H560 H 0.77016 0.03472 0.93447 0.0
H561 H 0.73215 0.04432 0.02088 0.0
H562 H 0.76467 0.07155 0.87259 0.0
H563 H 0.74036 0.04249 0.86372 0.0
H564 H 0.76887 0.04621 0.87572 0.0
H565 H 0.71736 0.08235 0.97802 0.0
H566 H 0.70659 0.05962 0.01198 0.0
H567 H 0.6929 0.05354 0.96831 0.0
C568 C 0.94791 0.71701 0.9519 0.0
C569 C 0.95989 0.71622 0.98258 0.0
C570 C 0.93831 0.69815 0.9273 0.0
C571 C 0.9416 0.67843 0.93282 0.0
C572 C 0.95392 0.67768 0.96368 0.0
C573 C 0.96253 0.69641 0.98859 0.0
C574 C 0.92451 0.69927 0.89557 0.0
C575 C 0.95836 0.6573 0.97005 0.0
C576 C 0.90057 0.61955 0.88717 0.0
C577 C 0.91369 0.62074 0.85669 0.0
C578 C 0.90923 0.63838 0.91177 0.0
C579 C 0.93197 0.65853 0.90644 0.0
C580 C 0.9454 0.65971 0.87579 0.0
C581 C 0.93588 0.64095 0.85089 0.0
C582 C 0.89394 0.63678 0.9433 0.0
C583 C 0.96996 0.68058 0.86962 0.0
H584 H 0.94568 0.73227 0.94746 0.0
H585 H 0.97198 0.69592 0.0122 0.0
H586 H 0.93361 0.69947 0.87034 0.0
H587 H 0.90658 0.68322 0.89494 0.0
H588 H 0.92249 0.71525 0.89619 0.0
H589 H 0.96898 0.6598 0.99464 0.0
H590 H 0.94123 0.64045 0.97255 0.0
H591 H 0.96791 0.65537 0.94682 0.0
H592 H 0.88327 0.604 0.89145 0.0
H593 H 0.94608 0.64177 0.82741 0.0
H594 H 0.89146 0.65247 0.94375 0.0
H595 H 0.90287 0.6369 0.96866 0.0
H596 H 0.87619 0.62046 0.94255 0.0
H597 H 0.96911 0.69712 0.86697 0.0
H598 H 0.97843 0.67839 0.84517 0.0
H599 H 0.98146 0.68288 0.893 0.0
C600 C 0.29529 0.36164 0.65461 0.0
C601 C 0.29368 0.38196 0.64771 0.0
C602 C 0.2866 0.34284 0.62985 0.0
C603 C 0.27527 0.34407 0.59814 0.0
C604 C 0.27306 0.36434 0.59162 0.0
C605 C 0.28269 0.38322 0.61618 0.0
C606 C 0.28989 0.32185 0.63732 0.0
C607 C 0.26035 0.366 0.55888 0.0
C608 C 0.27 0.30581 0.51748 0.0
C609 C 0.24737 0.2861 0.52257 0.0
C610 C 0.2795 0.32465 0.54222 0.0
C611 C 0.26561 0.32411 0.57187 0.0
C612 C 0.24242 0.30449 0.57641 0.0
C613 C 0.23377 0.28551 0.55207 0.0
C614 C 0.30453 0.34493 0.53698 0.0
C615 C 0.22667 0.30359 0.60681 0.0
H616 H 0.30396 0.36076 0.67889 0.0
H617 H 0.28126 0.39887 0.61102 0.0
H618 H 0.27236 0.3054 0.6393 0.0
H619 H 0.29962 0.31938 0.61484 0.0
H620 H 0.29986 0.32401 0.66252 0.0
H621 H 0.25914 0.38245 0.55867 0.0
H622 H 0.26976 0.36566 0.53431 0.0
H623 H 0.24211 0.35044 0.55767 0.0
H624 H 0.28055 0.30615 0.49475 0.0
H625 H 0.21613 0.27033 0.55575 0.0
H626 H 0.31534 0.34685 0.56107 0.0
H627 H 0.30444 0.36183 0.53364 0.0
H628 H 0.31325 0.34229 0.51324 0.0
H629 H 0.23477 0.30333 0.63281 0.0
H630 H 0.20862 0.28772 0.60533 0.0
H631 H 0.22497 0.31975 0.6065 0.0
C632 C 0.61938 0.90239 0.61478 0.0
C633 C 0.61914 0.91515 0.64484 0.0
C634 C 0.63878 0.91191 0.59123 0.0
C635 C 0.65797 0.93515 0.59713 0.0
C636 C 0.65766 0.94824 0.62732 0.0
C637 C 0.63841 0.93786 0.65128 0.0
C638 C 0.63882 0.89699 0.56025 0.0
C639 C 0.67745 0.97332 0.63393 0.0
C640 C 0.71794 0.95324 0.55546 0.0
C641 C 0.71718 0.96452 0.52394 0.0
C642 C 0.69868 0.94334 0.57926 0.0
C643 C 0.6785 0.94555 0.57198 0.0
C644 C 0.67778 0.95721 0.54033 0.0
C645 C 0.697 0.9662 0.51629 0.0
C646 C 0.69981 0.93026 0.61194 0.0
C647 C 0.65685 0.96048 0.53212 0.0
H648 H 0.60449 0.88472 0.61002 0.0
H649 H 0.63805 0.94776 0.6744 0.0
H650 H 0.6392 0.90569 0.53454 0.0
H651 H 0.65503 0.8954 0.56123 0.0
H652 H 0.62301 0.87886 0.56038 0.0
H653 H 0.67407 0.98142 0.65778 0.0
H654 H 0.69448 0.97357 0.63788 0.0
H655 H 0.67966 0.98452 0.6102 0.0
H656 H 0.73351 0.95177 0.5612 0.0
H657 H 0.69653 0.97511 0.49203 0.0
H658 H 0.68448 0.91187 0.61208 0.0
H659 H 0.6986 0.93911 0.63659 0.0
H660 H 0.71645 0.92943 0.61304 0.0
H661 H 0.64054 0.94294 0.52901 0.0
H662 H 0.65952 0.97093 0.50729 0.0
H663 H 0.65376 0.96968 0.55474 0.0
C664 C 0.05773 0.75994 0.52696 0.0
C665 C 0.03318 0.74935 0.52223 0.0
C666 C 0.06722 0.75061 0.55163 0.0
C667 C 0.05173 0.7299 0.57127 0.0
C668 C 0.02687 0.71887 0.56581 0.0
C669 C 0.01786 0.72901 0.54172 0.0
C670 C 0.09377 0.76318 0.55722 0.0
C671 C 0.00981 0.69647 0.58553 0.0
C672 C 0.07849 0.69454 0.61008 0.0
C673 C 0.08138 0.70127 0.64624 0.0
C674 C 0.0685 0.7034 0.58557 0.0
C675 C 0.06156 0.71973 0.59736 0.0
C676 C 0.06434 0.72653 0.63389 0.0
C677 C 0.07404 0.71705 0.658 0.0
C678 C 0.06547 0.69538 0.54702 0.0
C679 C 0.05745 0.74416 0.64735 0.0
H680 H 0.06944 0.77596 0.51218 0.0
H681 H 0.99884 0.72106 0.53809 0.0
H682 H 0.09799 0.76846 0.58571 0.0
H683 H 0.10061 0.75101 0.55098 0.0
H684 H 0.10331 0.77929 0.54026 0.0
H685 H 0.99109 0.68962 0.57721 0.0
H686 H 0.01449 0.68247 0.58067 0.0
H687 H 0.01121 0.69988 0.61478 0.0
H688 H 0.084 0.68222 0.60085 0.0
H689 H 0.07635 0.72239 0.68587 0.0
H690 H 0.07624 0.71081 0.52935 0.0
H691 H 0.04663 0.68775 0.53882 0.0
H692 H 0.07089 0.68187 0.54247 0.0
H693 H 0.0677 0.76123 0.6328 0.0
H694 H 0.06072 0.7476 0.67652 0.0
H695 H 0.03837 0.73753 0.64199 0.0
C696 C 0.61692 0.69198 0.11081 0.0
C697 C 0.61862 0.70453 0.14219 0.0
C698 C 0.6357 0.7008 0.08605 0.0
C699 C 0.65622 0.72317 0.09216 0.0
C700 C 0.65778 0.7361 0.12359 0.0
C701 C 0.63913 0.72638 0.14862 0.0
C702 C 0.63371 0.68604 0.05362 0.0
C703 C 0.67895 0.76037 0.13051 0.0
C704 C 0.71497 0.73968 0.04715 0.0
C705 C 0.7146 0.75255 0.01735 0.0
C706 C 0.69574 0.72937 0.07106 0.0
C707 C 0.67617 0.73295 0.06588 0.0
C708 C 0.67587 0.74618 0.03589 0.0
C709 C 0.69492 0.75541 0.01153 0.0
C710 C 0.69638 0.71465 0.10185 0.0
C711 C 0.65578 0.75116 0.03013 0.0
H712 H 0.60106 0.67502 0.10598 0.0
H713 H 0.64027 0.7362 0.17272 0.0
H714 H 0.63434 0.69571 0.02882 0.0
H715 H 0.649 0.68292 0.05273 0.0
H716 H 0.61701 0.66859 0.05358 0.0
H717 H 0.67687 0.76862 0.15529 0.0
H718 H 0.69526 0.75909 0.13301 0.0
H719 H 0.68161 0.7723 0.10756 0.0
H720 H 0.73022 0.73744 0.05149 0.0
H721 H 0.69485 0.76567 0.98868 0.0
H722 H 0.68005 0.69693 0.10183 0.0
H723 H 0.69682 0.72334 0.12763 0.0
H724 H 0.71208 0.71218 0.10063 0.0
H725 H 0.63873 0.73426 0.02734 0.0
H726 H 0.65848 0.76216 0.00593 0.0
H727 H 0.65411 0.76056 0.05379 0.0
C728 C 0.31151 0.92633 0.12015 0.0
C729 C 0.29899 0.91545 0.15154 0.0
C730 C 0.30262 0.93617 0.09532 0.0
C731 C 0.28017 0.93415 0.10133 0.0
C732 C 0.26729 0.92283 0.13284 0.0
C733 C 0.2771 0.91403 0.15795 0.0
C734 C 0.31734 0.94889 0.06285 0.0
C735 C 0.24296 0.91959 0.13968 0.0
C736 C 0.26352 0.97605 0.05552 0.0
C737 C 0.25075 0.9627 0.02572 0.0
C738 C 0.27379 0.96726 0.07972 0.0
C739 C 0.27028 0.94411 0.07484 0.0
C740 C 0.25719 0.93049 0.04482 0.0
C741 C 0.24798 0.94017 0.02016 0.0
C742 C 0.28838 0.98275 0.1105 0.0
C743 C 0.25233 0.90544 0.03932 0.0
H744 H 0.3285 0.92748 0.1153 0.0
H745 H 0.26729 0.90531 0.18203 0.0
H746 H 0.30776 0.93965 0.03809 0.0
H747 H 0.32024 0.96721 0.06169 0.0
H748 H 0.3349 0.94988 0.06299 0.0
H749 H 0.23482 0.90944 0.16462 0.0
H750 H 0.24409 0.93714 0.1418 0.0
H751 H 0.23102 0.91008 0.11684 0.0
H752 H 0.26567 0.99352 0.05969 0.0
H753 H 0.23779 0.92976 0.99733 0.0
H754 H 0.30616 0.98426 0.11065 0.0
H755 H 0.27967 0.97456 0.13628 0.0
H756 H 0.29075 0.00087 0.1091 0.0
H757 H 0.26928 0.90537 0.03667 0.0
H758 H 0.24137 0.89701 0.01512 0.0
H759 H 0.24294 0.89444 0.06302 0.0
C760 C 0.08419 0.36134 0.15524 0.0
C761 C 0.0824 0.38158 0.14877 0.0
C762 C 0.0751 0.34249 0.13054 0.0
C763 C 0.06315 0.34361 0.09947 0.0
C764 C 0.06054 0.36371 0.09366 0.0
C765 C 0.07065 0.38267 0.11802 0.0
C766 C 0.07889 0.32171 0.13714 0.0
C767 C 0.04715 0.36521 0.06168 0.0
C768 C 0.05791 0.30603 0.01801 0.0
C769 C 0.03572 0.28584 0.02377 0.0
C770 C 0.0672 0.32491 0.04267 0.0
C771 C 0.05352 0.32386 0.07292 0.0
C772 C 0.03066 0.30383 0.07795 0.0
C773 C 0.02226 0.28483 0.0537 0.0
C774 C 0.09194 0.34561 0.03696 0.0
C775 C 0.01512 0.3024 0.109 0.0
H776 H 0.09358 0.3607 0.17882 0.0
H777 H 0.06923 0.39836 0.11316 0.0
H778 H 0.06155 0.30504 0.13895 0.0
H779 H 0.0887 0.31974 0.1143 0.0
H780 H 0.08902 0.32381 0.16213 0.0
H781 H 0.04538 0.38135 0.06235 0.0
H782 H 0.05642 0.36546 0.03663 0.0
H783 H 0.02912 0.34932 0.06063 0.0
H784 H 0.06841 0.30659 0.99509 0.0
H785 H 0.00505 0.26917 0.05802 0.0
H786 H 0.10323 0.3475 0.06043 0.0
H787 H 0.09142 0.36234 0.03465 0.0
H788 H 0.10044 0.34349 0.01251 0.0
H789 H 0.02357 0.30205 0.13461 0.0
H790 H 0.99719 0.28635 0.10767 0.0
H791 H 0.01311 0.31837 0.10947 0.0
C792 C 0.72232 0.63713 0.35154 0.0
C793 C 0.70069 0.61632 0.35771 0.0
C794 C 0.73135 0.65582 0.37649 0.0
C795 C 0.71793 0.65393 0.40752 0.0
C796 C 0.69575 0.63315 0.41326 0.0
C797 C 0.68763 0.6144 0.38861 0.0
C798 C 0.7554 0.6774 0.36996 0.0
C799 C 0.68051 0.63079 0.44525 0.0
C800 C 0.74873 0.69316 0.48826 0.0
C801 C 0.74526 0.7124 0.48183 0.0
C802 C 0.74008 0.67402 0.46412 0.0
C803 C 0.72694 0.67384 0.43371 0.0
C804 C 0.7226 0.69287 0.42804 0.0
C805 C 0.73225 0.71216 0.4518 0.0
C806 C 0.74569 0.65442 0.47049 0.0
C807 C 0.70794 0.69297 0.39675 0.0
H808 H 0.73252 0.63844 0.32782 0.0
H809 H 0.67082 0.5983 0.39323 0.0
H810 H 0.75364 0.69343 0.36733 0.0
H811 H 0.76722 0.68032 0.39317 0.0
H812 H 0.76403 0.67564 0.34539 0.0
H813 H 0.66329 0.61384 0.44503 0.0
H814 H 0.69004 0.6317 0.47035 0.0
H815 H 0.67689 0.64576 0.44576 0.0
H816 H 0.75911 0.69358 0.51127 0.0
H817 H 0.72957 0.7271 0.44697 0.0
H818 H 0.75578 0.65323 0.44737 0.0
H819 H 0.72904 0.63707 0.47263 0.0
H820 H 0.75629 0.65731 0.49522 0.0
H821 H 0.71707 0.69377 0.37127 0.0
H822 H 0.70481 0.70826 0.39765 0.0
H823 H 0.69051 0.67629 0.39641 0.0
C824 C 0.28077 0.02612 0.44953 0.0
C825 C 0.28401 0.03546 0.48425 0.0
C826 C 0.29969 0.03469 0.42511 0.0
C827 C 0.32227 0.05355 0.43529 0.0
C828 C 0.32564 0.06312 0.47033 0.0
C829 C 0.30652 0.0537 0.4946 0.0
C830 C 0.29551 0.02351 0.38843 0.0
C831 C 0.34928 0.08364 0.48191 0.0
C832 C 0.37741 0.06415 0.38431 0.0
C833 C 0.38017 0.08158 0.35971 0.0
C834 C 0.35833 0.05448 0.40854 0.0
C835 C 0.34231 0.06327 0.40917 0.0
C836 C 0.34531 0.08119 0.38457 0.0
C837 C 0.36399 0.08981 0.35961 0.0
C838 C 0.35528 0.03481 0.43334 0.0
C839 C 0.3291 0.09158 0.38513 0.0
H840 H 0.2634 0.0119 0.44151 0.0
H841 H 0.30901 0.06109 0.52132 0.0
H842 H 0.29851 0.03686 0.36758 0.0
H843 H 0.30833 0.01728 0.3834 0.0
H844 H 0.27721 0.00823 0.38532 0.0
H845 H 0.34886 0.08935 0.5098 0.0
H846 H 0.36324 0.07863 0.47999 0.0
H847 H 0.35451 0.09898 0.46374 0.0
H848 H 0.39006 0.0579 0.38427 0.0
H849 H 0.36647 0.10359 0.34085 0.0
H850 H 0.33727 0.01915 0.43003 0.0
H851 H 0.35688 0.04069 0.46158 0.0
H852 H 0.36864 0.02925 0.42832 0.0
H853 H 0.31057 0.07753 0.37952 0.0
H854 H 0.33439 0.10603 0.36516 0.0
H855 H 0.32926 0.09878 0.41215 0.0
C856 C 0.90205 0.28035 0.38806 0.0
C857 C 0.91505 0.29347 0.35824 0.0
C858 C 0.91151 0.27064 0.41206 0.0
C859 C 0.93493 0.275 0.40691 0.0
C860 C 0.94821 0.28843 0.37687 0.0
C861 C 0.93791 0.29714 0.35244 0.0
C862 C 0.89637 0.25564 0.44284 0.0
C863 C 0.97348 0.29406 0.37102 0.0
C864 C 0.96546 0.26823 0.4895 0.0
C865 C 0.96431 0.2465 0.48267 0.0
C866 C 0.95651 0.27803 0.46462 0.0
C867 C 0.94537 0.26534 0.43289 0.0
C868 C 0.94369 0.24309 0.42641 0.0
C869 C 0.95358 0.23417 0.45105 0.0
C870 C 0.95924 0.3021 0.47204 0.0
C871 C 0.93117 0.22855 0.39368 0.0
H872 H 0.88427 0.2774 0.39235 0.0
H873 H 0.948 0.3075 0.32952 0.0
H874 H 0.89525 0.23805 0.44245 0.0
H875 H 0.90462 0.26424 0.46866 0.0
H876 H 0.87808 0.25288 0.44191 0.0
H877 H 0.98162 0.3053 0.34699 0.0
H878 H 0.98442 0.30344 0.39479 0.0
H879 H 0.97406 0.2774 0.36786 0.0
H880 H 0.97397 0.27786 0.5138 0.0
H881 H 0.95254 0.21726 0.4459 0.0
H882 H 0.94152 0.30053 0.47451 0.0
H883 H 0.96849 0.31427 0.44933 0.0
H884 H 0.96941 0.3102 0.49699 0.0
H885 H 0.91265 0.2251 0.39284 0.0
H886 H 0.93074 0.21125 0.39318 0.0
H887 H 0.94017 0.23853 0.36906 0.0
C888 C 0.03094 0.63374 0.18452 0.0
C889 C 0.05077 0.63122 0.19104 0.0
C890 C 0.01197 0.62491 0.20899 0.0
C891 C 0.01252 0.61249 0.23984 0.0
C892 C 0.03235 0.60949 0.24601 0.0
C893 C 0.05144 0.61931 0.22187 0.0
C894 C 0.99147 0.62909 0.20204 0.0
C895 C 0.03325 0.59558 0.27776 0.0
C896 C 0.97303 0.60418 0.32028 0.0
C897 C 0.95337 0.58183 0.31313 0.0
C898 C 0.99224 0.61465 0.29624 0.0
C899 C 0.99208 0.60202 0.26517 0.0
C900 C 0.97246 0.57915 0.25847 0.0
C901 C 0.95315 0.56954 0.28219 0.0
C902 C 0.01251 0.63935 0.30374 0.0
C903 C 0.97196 0.56469 0.22647 0.0
H904 H 0.03057 0.64316 0.16081 0.0
H905 H 0.06675 0.61723 0.22671 0.0
H906 H 0.97487 0.61188 0.19831 0.0
H907 H 0.98878 0.63796 0.22551 0.0
H908 H 0.99438 0.64022 0.17793 0.0
H909 H 0.04965 0.59429 0.27809 0.0
H910 H 0.03237 0.60407 0.30302 0.0
H911 H 0.01764 0.57736 0.27732 0.0
H912 H 0.97306 0.61373 0.34409 0.0
H913 H 0.93798 0.55215 0.27686 0.0
H914 H 0.01497 0.65115 0.28071 0.0
H915 H 0.02928 0.639 0.30701 0.0
H916 H 0.00949 0.64715 0.32827 0.0
H917 H 0.97253 0.57408 0.20137 0.0
H918 H 0.95583 0.54679 0.22599 0.0
H919 H 0.98787 0.56257 0.22665 0.0
C920 C 0.43167 0.38072 0.28095 0.0
C921 C 0.41921 0.36858 0.31173 0.0
C922 C 0.42245 0.39097 0.25755 0.0
C923 C 0.39981 0.38826 0.26445 0.0
C924 C 0.38697 0.37566 0.29528 0.0
C925 C 0.39705 0.36633 0.31897 0.0
C926 C 0.43711 0.405 0.22575 0.0
C927 C 0.36251 0.37184 0.30303 0.0
C928 C 0.38391 0.4319 0.22308 0.0
C929 C 0.37162 0.41974 0.1922 0.0
C930 C 0.39345 0.42199 0.24657 0.0
C931 C 0.3898 0.39898 0.23967 0.0
C932 C 0.37702 0.38647 0.20875 0.0
C933 C 0.36846 0.39722 0.18497 0.0
C934 C 0.40772 0.43629 0.27846 0.0
C935 C 0.37219 0.36165 0.201 0.0
H936 H 0.44896 0.38269 0.27559 0.0
H937 H 0.38738 0.35682 0.34271 0.0
H938 H 0.42756 0.39665 0.20054 0.0
H939 H 0.43982 0.42326 0.22654 0.0
H940 H 0.45476 0.4062 0.22498 0.0
H941 H 0.35443 0.36072 0.32721 0.0
H942 H 0.36343 0.38918 0.30709 0.0
H943 H 0.35065 0.36312 0.2798 0.0
H944 H 0.38654 0.44944 0.22845 0.0
H945 H 0.35878 0.38777 0.16119 0.0
H946 H 0.4257 0.4383 0.27775 0.0
H947 H 0.3991 0.42686 0.30361 0.0
H948 H 0.40963 0.45425 0.27927 0.0
H949 H 0.38917 0.36181 0.19699 0.0
H950 H 0.36099 0.3539 0.1768 0.0
H951 H 0.36311 0.34992 0.22421 0.0
C952 C 0.58081 0.97131 0.18334 0.0
C953 C 0.58213 0.95069 0.18859 0.0
C954 C 0.58999 0.98961 0.20898 0.0
C955 C 0.60159 0.98758 0.23981 0.0
C956 C 0.6035 0.96699 0.24462 0.0
C957 C 0.59329 0.94858 0.21932 0.0
C958 C 0.58687 0.01089 0.20345 0.0
C959 C 0.61649 0.96449 0.27634 0.0
C960 C 0.64414 0.04554 0.28643 0.0
C961 C 0.63106 0.04478 0.31669 0.0
C962 C 0.63507 0.02669 0.26184 0.0
C963 C 0.61193 0.00708 0.26684 0.0
C964 C 0.59861 0.0063 0.29742 0.0
C965 C 0.60856 0.025 0.32241 0.0
C966 C 0.65022 0.02783 0.2304 0.0
C967 C 0.57358 0.98614 0.30311 0.0
H968 H 0.57188 0.97276 0.15977 0.0
H969 H 0.59436 0.93262 0.22326 0.0
H970 H 0.57765 0.01311 0.22688 0.0
H971 H 0.60445 0.02725 0.20131 0.0
H972 H 0.57648 0.00925 0.17893 0.0
H973 H 0.61732 0.94785 0.27529 0.0
H974 H 0.63488 0.97981 0.27738 0.0
H975 H 0.60756 0.96463 0.30156 0.0
H976 H 0.66156 0.06091 0.2821 0.0
H977 H 0.59834 0.02466 0.34557 0.0
H978 H 0.64188 0.02884 0.20506 0.0
H979 H 0.65151 0.01145 0.22925 0.0
H980 H 0.66845 0.04343 0.23185 0.0
H981 H 0.56232 0.985 0.28 0.0
H982 H 0.5655 0.98835 0.32797 0.0
H983 H 0.5734 0.96902 0.30459 0.0
C984 C 0.35424 0.95539 0.72099 0.0
C985 C 0.36728 0.95491 0.69149 0.0
C986 C 0.3638 0.97476 0.74465 0.0
C987 C 0.38737 0.99356 0.73956 0.0
C988 C 0.40063 0.99309 0.70973 0.0
C989 C 0.39022 0.97394 0.68559 0.0
C990 C 0.34873 0.97499 0.77525 0.0
C991 C 0.42608 0.01235 0.70404 0.0
C992 C 0.40833 0.05335 0.78428 0.0
C993 C 0.41877 0.05107 0.81572 0.0
C994 C 0.39762 0.0346 0.7596 0.0
C995 C 0.39827 0.01345 0.76584 0.0
C996 C 0.40916 0.01124 0.79738 0.0
C997 C 0.41886 0.02994 0.82234 0.0
C998 C 0.3854 0.03733 0.72707 0.0
C999 C 0.41092 0.98932 0.80445 0.0
H1000 H 0.33647 0.9406 0.72543 0.0
H1001 H 0.40038 0.9733 0.66303 0.0
H1002 H 0.35649 0.97388 0.80111 0.0
H1003 H 0.34844 0.99192 0.77529 0.0
H1004 H 0.33016 0.96 0.77374 0.0
H1005 H 0.43401 0.00924 0.67974 0.0
H1006 H 0.42718 0.02986 0.7015 0.0
H1007 H 0.43692 0.01333 0.72763 0.0
H1008 H 0.40817 0.0697 0.77932 0.0
H1009 H 0.4272 0.02833 0.8465 0.0
H1010 H 0.36668 0.02265 0.72611 0.0
H1011 H 0.39421 0.03619 0.70234 0.0
H1012 H 0.38557 0.05451 0.72697 0.0
H1013 H 0.3929 0.97356 0.8068 0.0
H1014 H 0.42094 0.99086 0.82935 0.0
H1015 H 0.41986 0.98606 0.78163 0.0
C1016 C 0.02847 0.39929 0.68581 0.0
C1017 C 0.04877 0.42133 0.69218 0.0
C1018 C 0.00967 0.3895 0.71064 0.0
C1019 C 0.01088 0.40248 0.74187 0.0
C1020 C 0.03118 0.42502 0.7479 0.0
C1021 C 0.05004 0.43396 0.72331 0.0
C1022 C 0.98863 0.36516 0.70367 0.0
C1023 C 0.03285 0.43985 0.78009 0.0
C1024 C 0.95227 0.38689 0.78663 0.0
C1025 C 0.95248 0.37427 0.8169 0.0
C1026 C 0.97136 0.39656 0.76243 0.0
C1027 C 0.99075 0.39274 0.7679 0.0
C1028 C 0.99092 0.37978 0.79833 0.0
C1029 C 0.97196 0.37107 0.82288 0.0
C1030 C 0.97083 0.41101 0.73117 0.0
C1031 C 0.01093 0.37476 0.80461 0.0
H1032 H 0.02756 0.38945 0.66186 0.0
H1033 H 0.06566 0.45114 0.72808 0.0
H1034 H 0.98593 0.35331 0.72674 0.0
H1035 H 0.97227 0.36633 0.70088 0.0
H1036 H 0.9909 0.35692 0.67903 0.0
H1037 H 0.04946 0.45738 0.78017 0.0
H1038 H 0.01747 0.44283 0.78056 0.0
H1039 H 0.03216 0.43031 0.80506 0.0
H1040 H 0.93728 0.38956 0.78219 0.0
H1041 H 0.97202 0.36115 0.84616 0.0
H1042 H 0.97067 0.40222 0.70564 0.0
H1043 H 0.98707 0.4288 0.73121 0.0
H1044 H 0.95505 0.41338 0.7318 0.0
H1045 H 0.01281 0.36538 0.7811 0.0
H1046 H 0.00803 0.36374 0.82887 0.0
H1047 H 0.02795 0.39166 0.80767 0.0
C1048 C 0.61153 0.58322 0.81829 0.0
C1049 C 0.63275 0.58344 0.81081 0.0
C1050 C 0.60171 0.59214 0.79343 0.0
C1051 C 0.61393 0.60236 0.76101 0.0
C1052 C 0.63569 0.60312 0.75382 0.0
C1053 C 0.64458 0.5932 0.7785 0.0
C1054 C 0.57808 0.59025 0.80157 0.0
C1055 C 0.6497 0.61463 0.72026 0.0
C1056 C 0.58024 0.60795 0.68164 0.0
C1057 C 0.58406 0.63095 0.68639 0.0
C1058 C 0.58964 0.59829 0.70595 0.0
C1059 C 0.604 0.61238 0.73474 0.0
C1060 C 0.60859 0.63598 0.73872 0.0
C1061 C 0.59808 0.64478 0.71496 0.0
C1062 C 0.5836 0.57279 0.70151 0.0
C1063 C 0.62452 0.65191 0.76814 0.0
H1064 H 0.60226 0.57542 0.84313 0.0
H1065 H 0.66108 0.59349 0.77284 0.0
H1066 H 0.58016 0.60822 0.80321 0.0
H1067 H 0.56533 0.58065 0.77961 0.0
H1068 H 0.57034 0.58081 0.82716 0.0
H1069 H 0.66681 0.61468 0.71943 0.0
H1070 H 0.63917 0.60513 0.69628 0.0
H1071 H 0.65347 0.63323 0.71846 0.0
H1072 H 0.56906 0.59718 0.65977 0.0
H1073 H 0.601 0.6626 0.71849 0.0
H1074 H 0.57458 0.56256 0.72598 0.0
H1075 H 0.60005 0.57184 0.69812 0.0
H1076 H 0.57186 0.56411 0.67812 0.0
H1077 H 0.61642 0.64467 0.79463 0.0
H1078 H 0.6277 0.67032 0.76592 0.0
H1079 H 0.64189 0.65253 0.76737 0.0
C1080 C 0.21654 0.04959 0.00599 0.0
C1081 C 0.2324 0.04743 0.98305 0.0
C1082 C 0.21894 0.07176 0.01353 0.0
C1083 C 0.2373 0.09234 0.99692 0.0
C1084 C 0.25367 0.09037 0.97408 0.0
C1085 C 0.2512 0.06787 0.96775 0.0
C1086 C 0.20136 0.07303 0.03863 0.0
C1087 C 0.27313 0.11183 0.95529 0.0
C1088 C 0.21877 0.13871 0.9898 0.0
C1089 C 0.2302 0.15315 0.01942 0.0
C1090 C 0.22267 0.12011 0.98024 0.0
C1091 C 0.23779 0.11533 1.00159 0.0
C1092 C 0.25034 0.13064 0.03052 0.0
C1093 C 0.24663 0.14966 0.03882 0.0
C1094 C 0.2094 0.10465 0.94863 0.0
C1095 C 0.26625 0.12589 0.05434 0.0
H1096 H 0.20217 0.03384 0.01827 0.0
H1097 H 0.26345 0.06618 0.94997 0.0
H1098 H 0.21086 0.08661 0.05963 0.0
H1099 H 0.19013 0.07842 0.02354 0.0
H1100 H 0.18955 0.05575 0.05186 0.0
H1101 H 0.28563 0.10771 0.94098 0.0
H1102 H 0.26515 0.11857 0.93557 0.0
H1103 H 0.2833 0.12634 0.97473 0.0
H1104 H 0.2063 0.14168 0.9745 0.0
H1105 H 0.25544 0.16086 0.06177 0.0
H1106 H 0.19497 0.08724 0.95834 0.0
H1107 H 0.22143 0.1012 0.9318 0.0
H1108 H 0.20137 0.11284 0.93169 0.0
H1109 H 0.25515 0.1101 0.07122 0.0
H1110 H 0.2773 0.14116 0.07222 0.0
H1111 H 0.2781 0.12187 0.03814 0.0
C1112 C 0.95146 0.16493 0.00621 0.0
C1113 C 0.95347 0.18172 0.98089 0.0
C1114 C 0.9295 0.14493 0.01392 0.0
C1115 C 0.90903 0.14119 0.99505 0.0
C1116 C 0.91084 0.15828 0.96974 0.0
C1117 C 0.93309 0.17862 0.96329 0.0
C1118 C 0.92836 0.12749 0.0417 0.0
C1119 C 0.88952 0.1546 0.94852 0.0
C1120 C 0.86437 0.07557 0.99214 0.0
C1121 C 0.84896 0.07324 0.02005 0.0
C1122 C 0.88281 0.09794 0.98164 0.0
C1123 C 0.88641 0.11843 1.00032 0.0
C1124 C 0.8702 0.11628 0.02747 0.0
C1125 C 0.85139 0.09365 0.0367 0.0
C1126 C 0.89927 0.09945 0.95191 0.0
C1127 C 0.87369 0.1376 0.04851 0.0
H1128 H 0.96717 0.16748 0.02024 0.0
H1129 H 0.93468 0.19162 0.94367 0.0
H1130 H 0.91416 0.12371 0.06148 0.0
H1131 H 0.92394 0.11045 0.02861 0.0
H1132 H 0.94543 0.13415 0.05628 0.0
H1133 H 0.89338 0.17041 0.93218 0.0
H1134 H 0.88376 0.13917 0.93035 0.0
H1135 H 0.87441 0.15046 0.96663 0.0
H1136 H 0.86222 0.05978 0.97885 0.0
H1137 H 0.83942 0.09181 0.05827 0.0
H1138 H 0.91664 0.10353 0.96342 0.0
H1139 H 0.90258 0.114 0.93309 0.0
H1140 H 0.892 0.08258 0.93662 0.0
H1141 H 0.88926 0.14361 0.06646 0.0
H1142 H 0.85793 0.13354 0.06514 0.0
H1143 H 0.87746 0.15258 0.03035 0.0
C1144 C 0.84012 0.78691 0.96056 0.0
C1145 C 0.81721 0.76986 0.9713 0.0
C1146 C 0.85995 0.7853 0.97118 0.0
C1147 C 0.85684 0.76666 0.99425 0.0
C1148 C 0.8336 0.74885 0.00404 0.0
C1149 C 0.81397 0.75048 0.99195 0.0
C1150 C 0.88433 0.80425 0.95913 0.0
C1151 C 0.82954 0.72904 0.02926 0.0
C1152 C 0.91094 0.75951 0.0077 0.0
C1153 C 0.92213 0.775 0.03648 0.0
C1154 C 0.88916 0.75586 0.99427 0.0
C1155 C 0.87807 0.76743 0.01078 0.0
C1156 C 0.88859 0.78177 0.04142 0.0
C1157 C 0.91071 0.78573 0.05348 0.0
C1158 C 0.87889 0.74094 0.96105 0.0
C1159 C 0.87701 0.79383 0.06053 0.0
H1160 H 0.84258 0.80185 0.94446 0.0
H1161 H 0.79622 0.73744 1.00058 0.0
H1162 H 0.89418 0.81576 0.98217 0.0
H1163 H 0.89466 0.79605 0.94914 0.0
H1164 H 0.88347 0.81562 0.93766 0.0
H1165 H 0.8105 0.71514 0.03086 0.0
H1166 H 0.83999 0.72063 0.02082 0.0
H1167 H 0.8357 0.73645 0.05646 0.0
H1168 H 0.91992 0.75141 0.9943 0.0
H1169 H 0.91933 0.79761 0.07586 0.0
H1170 H 0.88049 0.75262 0.93828 0.0
H1171 H 0.85972 0.72805 0.96469 0.0
H1172 H 0.88817 0.73108 0.95383 0.0
H1173 H 0.87778 0.80811 0.04334 0.0
H1174 H 0.88588 0.80183 0.08637 0.0
H1175 H 0.858 0.78097 0.06578 0.0
C1176 C 0.15697 0.24497 0.49332 0.0
C1177 C 0.15232 0.22867 0.46559 0.0
C1178 C 0.13903 0.24904 0.50637 0.0
C1179 C 0.11618 0.23699 0.49056 0.0
C1180 C 0.11198 0.22183 0.46084 0.0
C1181 C 0.12999 0.21754 0.44912 0.0
C1182 C 0.14409 0.2649 0.53857 0.0
C1183 C 0.08808 0.20917 0.44252 0.0
C1184 C 0.05936 0.21822 0.54192 0.0
C1185 C 0.05298 0.23464 0.52991 0.0
C1186 C 0.08084 0.21992 0.53135 0.0
C1187 C 0.09587 0.23799 0.50712 0.0
C1188 C 0.08998 0.25528 0.49617 0.0
C1189 C 0.06867 0.25358 0.50815 0.0
C1190 C 0.08678 0.20156 0.54461 0.0
C1191 C 0.10525 0.27451 0.46981 0.0
H1192 H 0.1742 0.25342 0.50631 0.0
H1193 H 0.12645 0.20506 0.42752 0.0
H1194 H 0.13757 0.27753 0.53416 0.0
H1195 H 0.13449 0.25386 0.56214 0.0
H1196 H 0.16335 0.27512 0.545 0.0
H1197 H 0.08863 0.20049 0.4172 0.0
H1198 H 0.07486 0.19534 0.4606 0.0
H1199 H 0.08178 0.22182 0.43649 0.0
H1200 H 0.04725 0.20366 0.55894 0.0
H1201 H 0.06356 0.26614 0.4986 0.0
H1202 H 0.10545 0.21024 0.55404 0.0
H1203 H 0.08495 0.18946 0.52233 0.0
H1204 H 0.07493 0.19071 0.5668 0.0
H1205 H 0.12423 0.2832 0.47758 0.0
H1206 H 0.09996 0.28827 0.46761 0.0
H1207 H 0.10359 0.26646 0.44299 0.0
C1208 C 0.75595 0.82636 0.54877 0.0
C1209 C 0.76048 0.81428 0.52173 0.0
C1210 C 0.75594 0.84755 0.54109 0.0
C1211 C 0.76039 0.85651 0.50558 0.0
C1212 C 0.7632 0.84324 0.47789 0.0
C1213 C 0.76351 0.82242 0.48643 0.0
C1214 C 0.75305 0.86125 0.57139 0.0
C1215 C 0.76773 0.85194 0.43964 0.0
C1216 C 0.75403 0.9094 0.47735 0.0
C1217 C 0.77777 0.92787 0.47815 0.0
C1218 C 0.74786 0.88609 0.48706 0.0
C1219 C 0.76585 0.88123 0.49809 0.0
C1220 C 0.78972 0.8999 0.49977 0.0
C1221 C 0.79538 0.92288 0.48966 0.0
C1222 C 0.72225 0.86659 0.48474 0.0
C1223 C 0.80946 0.89556 0.51162 0.0
H1224 H 0.75392 0.82009 0.57615 0.0
H1225 H 0.7671 0.81297 0.46566 0.0
H1226 H 0.77054 0.87697 0.5777 0.0
H1227 H 0.74089 0.86783 0.56361 0.0
H1228 H 0.7461 0.8503 0.59601 0.0
H1229 H 0.76617 0.83804 0.42072 0.0
H1230 H 0.75507 0.85779 0.43141 0.0
H1231 H 0.7859 0.86749 0.43737 0.0
H1232 H 0.74026 0.91308 0.46868 0.0
H1233 H 0.81373 0.93697 0.49087 0.0
H1234 H 0.7165 0.8568 0.51047 0.0
H1235 H 0.72036 0.85362 0.46385 0.0
H1236 H 0.71018 0.87352 0.4781 0.0
H1237 H 0.80523 0.88672 0.53816 0.0
H1238 H 0.82686 0.91223 0.51346 0.0
H1239 H 0.8112 0.88351 0.49238 0.0
C1240 C 0.07448 0.86378 0.51889 0.0
C1241 C 0.07166 0.84856 0.49042 0.0
C1242 C 0.09703 0.88205 0.52901 0.0
C1243 C 0.11722 0.88569 0.50937 0.0
C1244 C 0.11459 0.86963 0.48167 0.0
C1245 C 0.09177 0.85098 0.47282 0.0
C1246 C 0.09906 0.89833 0.55934 0.0
C1247 C 0.13556 0.87317 0.45963 0.0
C1248 C 0.16374 0.9508 0.5044 0.0
C1249 C 0.18076 0.95249 0.52902 0.0
C1250 C 0.14369 0.92891 0.49645 0.0
C1251 C 0.14012 0.90822 0.51445 0.0
C1252 C 0.15746 0.90972 0.539 0.0
C1253 C 0.17785 0.9319 0.54563 0.0
C1254 C 0.126 0.92809 0.46942 0.0
C1255 C 0.15399 0.88817 0.55933 0.0
H1256 H 0.05891 0.86166 0.53285 0.0
H1257 H 0.08955 0.83919 0.45076 0.0
H1258 H 0.11384 0.90144 0.57752 0.0
H1259 H 0.10306 0.9158 0.54836 0.0
H1260 H 0.08241 0.89103 0.57521 0.0
H1261 H 0.13122 0.85744 0.44275 0.0
H1262 H 0.14126 0.88876 0.44184 0.0
H1263 H 0.15084 0.87691 0.47709 0.0
H1264 H 0.16616 0.96669 0.49112 0.0
H1265 H 0.19104 0.93326 0.56472 0.0
H1266 H 0.10913 0.92365 0.48311 0.0
H1267 H 0.12192 0.91403 0.44924 0.0
H1268 H 0.13258 0.94528 0.45526 0.0
H1269 H 0.13886 0.88233 0.57814 0.0
H1270 H 0.17002 0.89181 0.5749 0.0
H1271 H 0.14948 0.87321 0.54072 0.0
C1272 C 0.74782 0.93492 0.00919 0.0
C1273 C 0.76644 0.95105 0.03101 0.0
C1274 C 0.74659 0.91363 0.99818 0.0
C1275 C 0.76401 0.90821 0.01023 0.0
C1276 C 0.78169 0.92367 0.03464 0.0
C1277 C 0.78296 0.94512 0.04417 0.0
C1278 C 0.72778 0.89792 0.97157 0.0
C1279 C 0.80015 0.91823 0.04909 0.0
C1280 C 0.75804 0.84739 0.99734 0.0
C1281 C 0.77459 0.85219 0.96994 0.0
C1282 C 0.7537 0.86522 0.01013 0.0
C1283 C 0.7657 0.88809 0.99436 0.0
C1284 C 0.78125 0.89246 0.96511 0.0
C1285 C 0.78581 0.87458 0.95368 0.0
C1286 C 0.73745 0.86 0.04187 0.0
C1287 C 0.79388 0.91637 0.94682 0.0
H1288 H 0.73521 0.93968 0.99872 0.0
H1289 H 0.79729 0.9576 0.0612 0.0
H1290 H 0.73618 0.89955 0.94507 0.0
H1291 H 0.71931 0.87902 0.97969 0.0
H1292 H 0.71379 0.90285 0.96855 0.0
H1293 H 0.81047 0.93025 0.07147 0.0
H1294 H 0.79164 0.89961 0.05867 0.0
H1295 H 0.81271 0.92027 0.02743 0.0
H1296 H 0.7495 0.8301 0.01013 0.0
H1297 H 0.79845 0.87822 0.93227 0.0
H1298 H 0.72471 0.86631 0.03693 0.0
H1299 H 0.74818 0.86968 0.06564 0.0
H1300 H 0.72734 0.84074 0.04828 0.0
H1301 H 0.78109 0.92234 0.93995 0.0
H1302 H 0.80309 0.916 0.92197 0.0
H1303 H 0.80727 0.92975 0.96524 0.0
C1304 C 0.12907 0.91191 0.95586 0.0
C1305 C 0.15025 0.92295 0.97546 0.0
C1306 C 0.11019 0.88975 0.96622 0.0
C1307 C 0.11225 0.87877 0.9977 0.0
C1308 C 0.134 0.88942 0.01681 0.0
C1309 C 0.15292 0.9113 0.00512 0.0
C1310 C 0.08761 0.87867 0.94439 0.0
C1311 C 0.13674 0.87857 0.05091 0.0
C1312 C 0.05238 0.84079 0.04178 0.0
C1313 C 0.04684 0.81792 0.0313 0.0
C1314 C 0.07435 0.8606 0.03303 0.0
C1315 C 0.09083 0.85751 0.01218 0.0
C1316 C 0.08562 0.83432 1.00254 0.0
C1317 C 0.06376 0.81472 0.01271 0.0
C1318 C 0.07948 0.88494 0.0448 0.0
C1319 C 0.10241 0.83032 0.97961 0.0
H1320 H 0.1271 0.9209 0.93278 0.0
H1321 H 0.16927 0.91999 0.02046 0.0
H1322 H 0.08151 0.85968 0.93907 0.0
H1323 H 0.07336 0.87944 0.95964 0.0
H1324 H 0.08993 0.88789 0.9184 0.0
H1325 H 0.15549 0.88743 0.06017 0.0
H1326 H 0.12578 0.88022 0.07227 0.0
H1327 H 0.13027 0.85937 0.04721 0.0
H1328 H 0.03936 0.84324 0.05641 0.0
H1329 H 0.05937 0.79701 0.00437 0.0
H1330 H 0.07929 0.89519 0.0212 0.0
H1331 H 0.09741 0.89489 0.05702 0.0
H1332 H 0.06621 0.88402 0.06444 0.0
H1333 H 0.10282 0.8371 0.9522 0.0
H1334 H 0.09701 0.81122 0.97773 0.0
H1335 H 0.12075 0.84028 0.99035 0.0
C1336 C 0.18416 0.24994 0.04008 0.0
C1337 C 0.18693 0.23243 0.02254 0.0
C1338 C 0.16357 0.25158 0.03478 0.0
C1339 C 0.14585 0.23577 0.01066 0.0
C1340 C 0.14926 0.21885 0.9917 0.0
C1341 C 0.16954 0.21716 0.99831 0.0
C1342 C 0.16029 0.26944 0.05611 0.0
C1343 C 0.13114 0.202 0.9651 0.0
C1344 C 0.0802 0.21407 0.01795 0.0
C1345 C 0.07681 0.22648 0.99008 0.0
C1346 C 0.10298 0.21853 0.02703 0.0
C1347 C 0.12279 0.23525 0.00693 0.0
C1348 C 0.11959 0.24873 0.97992 0.0
C1349 C 0.09658 0.24439 0.97212 0.0
C1350 C 0.10562 0.20423 0.05669 0.0
C1351 C 0.14016 0.26639 0.95744 0.0
H1352 H 0.19761 0.26169 0.05892 0.0
H1353 H 0.17183 0.2038 0.98439 0.0
H1354 H 0.15521 0.27981 0.0383 0.0
H1355 H 0.14561 0.25997 0.07559 0.0
H1356 H 0.17661 0.28192 0.07105 0.0
H1357 H 0.13757 0.19155 0.9501 0.0
H1358 H 0.11456 0.18944 0.97932 0.0
H1359 H 0.12659 0.21199 0.9456 0.0
H1360 H 0.06489 0.20044 0.03218 0.0
H1361 H 0.09392 0.25395 0.95051 0.0
H1362 H 0.12068 0.21588 0.07444 0.0
H1363 H 0.10951 0.19086 0.04497 0.0
H1364 H 0.08925 0.19476 0.07316 0.0
H1365 H 0.15567 0.27792 0.9745 0.0
H1366 H 0.13543 0.27776 0.94126 0.0
H1367 H 0.14569 0.25668 0.93894 0.0
C1368 C 0.94664 0.78405 0.50663 0.0
C1369 C 0.94892 0.76972 0.48076 0.0
C1370 C 0.92478 0.78264 0.5131 0.0
C1371 C 0.90475 0.767 0.49241 0.0
C1372 C 0.9068 0.75207 0.46666 0.0
C1373 C 0.9289 0.75337 0.46146 0.0
C1374 C 0.92334 0.79848 0.54143 0.0
C1375 C 0.88598 0.73556 0.44356 0.0
C1376 C 0.84629 0.75773 0.52962 0.0
C1377 C 0.84509 0.77651 0.51333 0.0
C1378 C 0.86501 0.75348 0.52172 0.0
C1379 C 0.88244 0.76796 0.49625 0.0
C1380 C 0.88022 0.78581 0.4779 0.0
C1381 C 0.8618 0.79011 0.48708 0.0
C1382 C 0.867 0.73462 0.54241 0.0
C1383 C 0.89806 0.80126 0.44993 0.0
H1384 H 0.96208 0.79649 0.52191 0.0
H1385 H 0.93073 0.74237 0.44136 0.0
H1386 H 0.92005 0.81196 0.52858 0.0
H1387 H 0.90829 0.78789 0.55985 0.0
H1388 H 0.93991 0.80789 0.55746 0.0
H1389 H 0.88981 0.72359 0.42721 0.0
H1390 H 0.87009 0.72461 0.46031 0.0
H1391 H 0.88147 0.74617 0.42526 0.0
H1392 H 0.83336 0.74721 0.54993 0.0
H1393 H 0.86066 0.8044 0.47403 0.0
H1394 H 0.88199 0.74326 0.5616 0.0
H1395 H 0.87088 0.72353 0.52417 0.0
H1396 H 0.85055 0.7229 0.55766 0.0
H1397 H 0.91515 0.81369 0.46308 0.0
H1398 H 0.89195 0.81186 0.4346 0.0
H1399 H 0.90153 0.79025 0.43088 0.0
C1400 C 0.21441 0.16084 0.46528 0.0
C1401 C 0.23191 0.18358 0.47599 0.0
C1402 C 0.21574 0.14072 0.47509 0.0
C1403 C 0.23463 0.14337 0.49719 0.0
C1404 C 0.25282 0.16641 0.50706 0.0
C1405 C 0.25141 0.18632 0.49587 0.0
C1406 C 0.19635 0.11654 0.46306 0.0
C1407 C 0.27292 0.16996 0.53127 0.0
C1408 C 0.21609 0.08894 0.55478 0.0
C1409 C 0.2262 0.0774 0.53639 0.0
C1410 C 0.22008 0.11123 0.54363 0.0
C1411 C 0.23387 0.12186 0.51257 0.0
C1412 C 0.24489 0.11069 0.49468 0.0
C1413 C 0.24119 0.08868 0.50716 0.0
C1414 C 0.2086 0.12287 0.56415 0.0
C1415 C 0.25926 0.12114 0.46105 0.0
H1416 H 0.19942 0.15874 0.44967 0.0
H1417 H 0.26486 0.20393 0.5044 0.0
H1418 H 0.20415 0.10616 0.45182 0.0
H1419 H 0.18528 0.10655 0.48637 0.0
H1420 H 0.18462 0.11774 0.44255 0.0
H1421 H 0.28691 0.18894 0.53334 0.0
H1422 H 0.26586 0.16334 0.55848 0.0
H1423 H 0.28113 0.15961 0.5215 0.0
H1424 H 0.20461 0.08026 0.57753 0.0
H1425 H 0.24882 0.07962 0.49273 0.0
H1426 H 0.19412 0.12245 0.54788 0.0
H1427 H 0.22172 0.14177 0.56958 0.0
H1428 H 0.20097 0.11381 0.59002 0.0
H1429 H 0.24723 0.11981 0.43898 0.0
H1430 H 0.26886 0.1118 0.45275 0.0
H1431 H 0.27233 0.14024 0.46483 0.0
C1432 C 0.91075 0.15195 0.5389 0.0
C1433 C 0.93082 0.15068 0.52853 0.0
C1434 C 0.88778 0.13386 0.5295 0.0
C1435 C 0.88496 0.11442 0.5086 0.0
C1436 C 0.90527 0.11373 0.49664 0.0
C1437 C 0.92788 0.13169 0.50708 0.0
C1438 C 0.86655 0.13499 0.54328 0.0
C1439 C 0.90311 0.09358 0.47373 0.0
C1440 C 0.83215 0.05247 0.51621 0.0
C1441 C 0.8196 0.05064 0.48484 0.0
C1442 C 0.85251 0.07378 0.52552 0.0
C1443 C 0.86101 0.0935 0.50215 0.0
C1444 C 0.8479 0.09197 0.47091 0.0
C1445 C 0.82704 0.07053 0.46284 0.0
C1446 C 0.86556 0.07477 0.55953 0.0
C1447 C 0.85667 0.11242 0.44495 0.0
H1448 H 0.91296 0.16664 0.5554 0.0
H1449 H 0.94336 0.13084 0.4984 0.0
H1450 H 0.85395 0.13198 0.52118 0.0
H1451 H 0.85696 0.12068 0.56325 0.0
H1452 H 0.8717 0.15232 0.55614 0.0
H1453 H 0.92059 0.09698 0.46357 0.0
H1454 H 0.89503 0.07694 0.48962 0.0
H1455 H 0.89127 0.09063 0.45055 0.0
H1456 H 0.82617 0.03703 0.53331 0.0
H1457 H 0.81729 0.06893 0.43846 0.0
H1458 H 0.86991 0.09101 0.57501 0.0
H1459 H 0.88255 0.07555 0.55275 0.0
H1460 H 0.85505 0.05902 0.57686 0.0
H1461 H 0.86174 0.12923 0.45931 0.0
H1462 H 0.84313 0.10948 0.42436 0.0
H1463 H 0.8728 0.11469 0.43118 0.0
C1464 C 0.88194 0.46964 0.32525 0.0
C1465 C 0.89404 0.48486 0.35386 0.0
C1466 C 0.88614 0.45121 0.31578 0.0
C1467 C 0.90228 0.44741 0.3362 0.0
C1468 C 0.91543 0.46347 0.36408 0.0
C1469 C 0.91137 0.48228 0.37229 0.0
C1470 C 0.87219 0.43494 0.28526 0.0
C1471 C 0.93247 0.45978 0.3869 0.0
C1472 C 0.88299 0.38215 0.34169 0.0
C1473 C 0.89844 0.38024 0.31756 0.0
C1474 C 0.88502 0.40415 0.34939 0.0
C1475 C 0.9025 0.42476 0.33165 0.0
C1476 C 0.9185 0.42305 0.30766 0.0
C1477 C 0.91648 0.40075 0.30125 0.0
C1478 C 0.86793 0.40518 0.37578 0.0
C1479 C 0.93698 0.44452 0.28761 0.0
H1480 H 0.86877 0.47189 0.31067 0.0
H1481 H 0.9207 0.49408 0.39445 0.0
H1482 H 0.884 0.4317 0.26761 0.0
H1483 H 0.85849 0.41752 0.2961 0.0
H1484 H 0.86314 0.44233 0.26886 0.0
H1485 H 0.94369 0.47549 0.40393 0.0
H1486 H 0.92225 0.4442 0.40459 0.0
H1487 H 0.94417 0.45594 0.36999 0.0
H1488 H 0.86922 0.36632 0.35471 0.0
H1489 H 0.9284 0.39923 0.28253 0.0
H1490 H 0.85577 0.40974 0.36153 0.0
H1491 H 0.87776 0.41924 0.39602 0.0
H1492 H 0.85704 0.38803 0.3899 0.0
H1493 H 0.92805 0.45044 0.26825 0.0
H1494 H 0.9495 0.44073 0.2727 0.0
H1495 H 0.94725 0.45948 0.30631 0.0
C1496 C 0.59912 0.51906 0.32404 0.0
C1497 C 0.61568 0.51586 0.30447 0.0
C1498 C 0.57746 0.49942 0.33483 0.0
C1499 C 0.57216 0.47624 0.32488 0.0
C1500 C 0.58808 0.47324 0.30255 0.0
C1501 C 0.60985 0.49307 0.29316 0.0
C1502 C 0.56121 0.50335 0.35915 0.0
C1503 C 0.58283 0.44894 0.29038 0.0
C1504 C 0.53775 0.42223 0.38361 0.0
C1505 C 0.51592 0.41025 0.36581 0.0
C1506 C 0.55557 0.44464 0.37206 0.0
C1507 C 0.55172 0.45494 0.34119 0.0
C1508 C 0.52926 0.44339 0.32409 0.0
C1509 C 0.51146 0.42125 0.33695 0.0
C1510 C 0.57899 0.45666 0.39175 0.0
C1511 C 0.52459 0.45352 0.29075 0.0
H1512 H 0.60379 0.53672 0.33307 0.0
H1513 H 0.62266 0.49066 0.27782 0.0
H1514 H 0.54245 0.49247 0.35051 0.0
H1515 H 0.56246 0.49771 0.38672 0.0
H1516 H 0.56597 0.52231 0.35997 0.0
H1517 H 0.59532 0.44994 0.26923 0.0
H1518 H 0.58429 0.43901 0.31348 0.0
H1519 H 0.56443 0.43862 0.27993 0.0
H1520 H 0.54111 0.41375 0.40608 0.0
H1521 H 0.49461 0.41185 0.32298 0.0
H1522 H 0.58469 0.47558 0.39688 0.0
H1523 H 0.59286 0.4562 0.37503 0.0
H1524 H 0.57804 0.44789 0.41772 0.0
H1525 H 0.53094 0.47272 0.29409 0.0
H1526 H 0.50542 0.44424 0.28369 0.0
H1527 H 0.53454 0.45168 0.26801 0.0
C1528 C 0.47834 0.0751 0.33119 0.0
C1529 C 0.48092 0.09385 0.30959 0.0
C1530 C 0.49829 0.07339 0.34126 0.0
C1531 C 0.52108 0.09048 0.32854 0.0
C1532 C 0.5233 0.10819 0.30421 0.0
C1533 C 0.50325 0.10991 0.29559 0.0
C1534 C 0.49521 0.05453 0.36772 0.0
C1535 C 0.54712 0.12634 0.28911 0.0
C1536 C 0.57719 0.11288 0.38335 0.0
C1537 C 0.58845 0.10198 0.36638 0.0
C1538 C 0.55445 0.10788 0.37291 0.0
C1539 C 0.54297 0.09211 0.344 0.0
C1540 C 0.55382 0.08023 0.32778 0.0
C1541 C 0.57639 0.08509 0.33951 0.0
C1542 C 0.54325 0.12045 0.39164 0.0
C1543 C 0.54241 0.06366 0.2965 0.0
H1544 H 0.46104 0.06283 0.3423 0.0
H1545 H 0.50519 0.12435 0.27876 0.0
H1546 H 0.50567 0.0461 0.35955 0.0
H1547 H 0.50192 0.06287 0.39428 0.0
H1548 H 0.47629 0.04053 0.37066 0.0
H1549 H 0.54533 0.13662 0.26679 0.0
H1550 H 0.55799 0.13896 0.3105 0.0
H1551 H 0.55693 0.11757 0.27926 0.0
H1552 H 0.58642 0.12576 0.4044 0.0
H1553 H 0.58516 0.07674 0.32622 0.0
H1554 H 0.52457 0.10763 0.39888 0.0
H1555 H 0.54305 0.13379 0.37335 0.0
H1556 H 0.55304 0.12971 0.41633 0.0
H1557 H 0.52334 0.05116 0.30179 0.0
H1558 H 0.55131 0.05327 0.29032 0.0
H1559 H 0.54348 0.07418 0.27247 0.0
C1560 C 0.79607 0.55158 0.78392 0.0
C1561 C 0.81846 0.56288 0.80017 0.0
C1562 C 0.77811 0.55601 0.79543 0.0
C1563 C 0.78243 0.57151 0.82474 0.0
C1564 C 0.80532 0.58364 0.84043 0.0
C1565 C 0.8232 0.57942 0.82758 0.0
C1566 C 0.75416 0.54323 0.77727 0.0
C1567 C 0.81049 0.59982 0.87225 0.0
C1568 C 0.73521 0.58872 0.84083 0.0
C1569 C 0.71939 0.57005 0.86287 0.0
C1570 C 0.7565 0.59016 0.82928 0.0
C1571 C 0.76222 0.57289 0.84096 0.0
C1572 C 0.74709 0.55514 0.86552 0.0
C1573 C 0.72564 0.55369 0.87565 0.0
C1574 C 0.77188 0.60905 0.80255 0.0
C1575 C 0.75285 0.53682 0.87955 0.0
H1576 H 0.79246 0.53891 0.76257 0.0
H1577 H 0.84048 0.58799 0.84042 0.0
H1578 H 0.74093 0.52969 0.79567 0.0
H1579 H 0.74797 0.55588 0.77068 0.0
H1580 H 0.75459 0.53418 0.75228 0.0
H1581 H 0.82974 0.60992 0.87875 0.0
H1582 H 0.80418 0.61257 0.86731 0.0
H1583 H 0.80076 0.58906 0.89596 0.0
H1584 H 0.7302 0.60121 0.83065 0.0
H1585 H 0.71341 0.5393 0.89282 0.0
H1586 H 0.77015 0.60068 0.77598 0.0
H1587 H 0.79085 0.6177 0.81036 0.0
H1588 H 0.76673 0.62289 0.7998 0.0
H1589 H 0.75084 0.52438 0.85771 0.0
H1590 H 0.74101 0.52635 0.90198 0.0
H1591 H 0.77154 0.54547 0.8889 0.0
C1592 C 0.41697 0.14953 0.84537 0.0
C1593 C 0.43619 0.15245 0.86614 0.0
C1594 C 0.41567 0.16936 0.83339 0.0
C1595 C 0.43368 0.19247 0.84335 0.0
C1596 C 0.45213 0.19526 0.86659 0.0
C1597 C 0.45338 0.17523 0.87717 0.0
C1598 C 0.39602 0.16564 0.80805 0.0
C1599 C 0.47128 0.21951 0.8788 0.0
C1600 C 0.45377 0.24643 0.78407 0.0
C1601 C 0.4434 0.25822 0.80101 0.0
C1602 C 0.44936 0.22418 0.79618 0.0
C1603 C 0.43489 0.21387 0.82676 0.0
C1604 C 0.42365 0.22531 0.84317 0.0
C1605 C 0.42778 0.24725 0.82973 0.0
C1606 C 0.46112 0.21223 0.77722 0.0
C1607 C 0.40856 0.21522 0.87628 0.0
H1608 H 0.40381 0.13189 0.83654 0.0
H1609 H 0.46818 0.17744 0.8934 0.0
H1610 H 0.38791 0.17638 0.81635 0.0
H1611 H 0.40352 0.17165 0.78086 0.0
H1612 H 0.38187 0.14669 0.80649 0.0
H1613 H 0.48247 0.21842 0.90036 0.0
H1614 H 0.48293 0.22927 0.85585 0.0
H1615 H 0.46329 0.23004 0.88872 0.0
H1616 H 0.46572 0.25486 0.76171 0.0
H1617 H 0.41993 0.2565 0.84308 0.0
H1618 H 0.448 0.19332 0.77187 0.0
H1619 H 0.47519 0.21268 0.79456 0.0
H1620 H 0.46932 0.22105 0.75145 0.0
H1621 H 0.39544 0.19613 0.87258 0.0
H1622 H 0.39895 0.22478 0.88335 0.0
H1623 H 0.42008 0.21661 0.89916 0.0
C1624 C 0.76058 0.18881 0.79787 0.0
C1625 C 0.74029 0.18507 0.81643 0.0
C1626 C 0.78311 0.20788 0.80695 0.0
C1627 C 0.78531 0.22297 0.83591 0.0
C1628 C 0.76498 0.21808 0.85624 0.0
C1629 C 0.74268 0.19946 0.84586 0.0
C1630 C 0.80423 0.2128 0.7841 0.0
C1631 C 0.76658 0.23326 0.88793 0.0
C1632 C 0.84586 0.26845 0.87338 0.0
C1633 C 0.84857 0.28949 0.85871 0.0
C1634 C 0.8255 0.24644 0.86585 0.0
C1635 C 0.80798 0.24555 0.84226 0.0
C1636 C 0.81126 0.26674 0.82634 0.0
C1637 C 0.83128 0.28845 0.83524 0.0
C1638 C 0.8223 0.22434 0.88413 0.0
C1639 C 0.79336 0.26659 0.80036 0.0
H1640 H 0.75866 0.17766 0.77506 0.0
H1641 H 0.72696 0.19632 0.86051 0.0
H1642 H 0.80974 0.22915 0.76817 0.0
H1643 H 0.81955 0.216 0.80106 0.0
H1644 H 0.80019 0.19797 0.76538 0.0
H1645 H 0.7499 0.22513 0.90382 0.0
H1646 H 0.78145 0.23616 0.90573 0.0
H1647 H 0.77019 0.25092 0.87842 0.0
H1648 H 0.85924 0.2693 0.89161 0.0
H1649 H 0.83353 0.3047 0.82349 0.0
H1650 H 0.81842 0.21023 0.86415 0.0
H1651 H 0.80684 0.2174 0.90253 0.0
H1652 H 0.83822 0.22773 0.89979 0.0
H1653 H 0.78945 0.25333 0.77889 0.0
H1654 H 0.79967 0.28423 0.78779 0.0
H1655 H 0.77645 0.26137 0.81453 0.0
C1656 C 0.45795 0.19555 0.3495 0.0
C1657 C 0.44501 0.17996 0.32169 0.0
C1658 C 0.4545 0.21452 0.35864 0.0
C1659 C 0.43834 0.2185 0.33859 0.0
C1660 C 0.42463 0.20231 0.3112 0.0
C1661 C 0.42787 0.18295 0.30345 0.0
C1662 C 0.46896 0.23091 0.38874 0.0
C1663 C 0.4077 0.20628 0.28857 0.0
C1664 C 0.42288 0.26433 0.37311 0.0
C1665 C 0.44042 0.28497 0.35639 0.0
C1666 C 0.42174 0.24237 0.36743 0.0
C1667 C 0.43802 0.24106 0.34359 0.0
C1668 C 0.45516 0.2618 0.32568 0.0
C1669 C 0.4564 0.28354 0.33281 0.0
C1670 C 0.40372 0.2208 0.38782 0.0
C1671 C 0.47245 0.26113 0.29932 0.0
H1672 H 0.47101 0.19302 0.3639 0.0
H1673 H 0.41794 0.17091 0.28184 0.0
H1674 H 0.48253 0.24826 0.37757 0.0
H1675 H 0.45743 0.2343 0.40682 0.0
H1676 H 0.47817 0.22354 0.40477 0.0
H1677 H 0.39667 0.1909 0.27087 0.0
H1678 H 0.39579 0.20968 0.30572 0.0
H1679 H 0.41796 0.22224 0.2716 0.0
H1680 H 0.4106 0.26551 0.39147 0.0
H1681 H 0.46981 0.29948 0.31954 0.0
H1682 H 0.41305 0.21464 0.40598 0.0
H1683 H 0.39293 0.20603 0.36911 0.0
H1684 H 0.39162 0.22452 0.40404 0.0
H1685 H 0.48471 0.25667 0.31349 0.0
H1686 H 0.48321 0.27836 0.28535 0.0
H1687 H 0.46276 0.24711 0.27896 0.0
C1688 C 0.80323 0.25526 0.34809 0.0
C1689 C 0.81833 0.258 0.31949 0.0
C1690 C 0.78478 0.23277 0.35808 0.0
C1691 C 0.78085 0.21257 0.33822 0.0
C1692 C 0.79674 0.21512 0.31028 0.0
C1693 C 0.81557 0.23786 0.30154 0.0
C1694 C 0.76868 0.23084 0.38863 0.0
C1695 C 0.79289 0.19411 0.28803 0.0
C1696 C 0.73476 0.15202 0.37488 0.0
C1697 C 0.71406 0.1491 0.35859 0.0
C1698 C 0.75691 0.17238 0.36801 0.0
C1699 C 0.75829 0.18972 0.34356 0.0
C1700 C 0.73749 0.18619 0.32597 0.0
C1701 C 0.71563 0.16615 0.33412 0.0
C1702 C 0.77859 0.17582 0.38794 0.0
C1703 C 0.73817 0.20391 0.29912 0.0
H1704 H 0.80562 0.27084 0.36234 0.0
H1705 H 0.82728 0.24003 0.2794 0.0
H1706 H 0.75117 0.22689 0.3779 0.0
H1707 H 0.76561 0.21606 0.40677 0.0
H1708 H 0.77612 0.2475 0.4045 0.0
H1709 H 0.8084 0.1984 0.27066 0.0
H1710 H 0.78933 0.17885 0.30539 0.0
H1711 H 0.77707 0.18841 0.27072 0.0
H1712 H 0.73351 0.13882 0.39385 0.0
H1713 H 0.69967 0.16375 0.3211 0.0
H1714 H 0.78473 0.1911 0.40653 0.0
H1715 H 0.79334 0.18008 0.36902 0.0
H1716 H 0.77498 0.15986 0.40367 0.0
H1717 H 0.74281 0.2208 0.31288 0.0
H1718 H 0.72087 0.19739 0.2853 0.0
H1719 H 0.75205 0.20791 0.27865 0.0
C1720 C 0.83365 0.54907 0.32851 0.0
C1721 C 0.84942 0.56293 0.35553 0.0
C1722 C 0.81312 0.5502 0.32128 0.0
C1723 C 0.80775 0.56495 0.34251 0.0
C1724 C 0.82387 0.57936 0.36953 0.0
C1725 C 0.84482 0.57846 0.37537 0.0
C1726 C 0.79682 0.53503 0.29155 0.0
C1727 C 0.81845 0.59481 0.39333 0.0
C1728 C 0.75869 0.57431 0.30487 0.0
C1729 C 0.73853 0.55486 0.31964 0.0
C1730 C 0.78161 0.57864 0.31334 0.0
C1731 C 0.78432 0.56353 0.33789 0.0
C1732 C 0.76402 0.54491 0.35471 0.0
C1733 C 0.74137 0.54058 0.34496 0.0
C1734 C 0.80273 0.59835 0.29427 0.0
C1735 C 0.76611 0.52878 0.38173 0.0
H1736 H 0.8374 0.53725 0.31291 0.0
H1737 H 0.85702 0.58907 0.3964 0.0
H1738 H 0.7799 0.52087 0.30309 0.0
H1739 H 0.79245 0.54591 0.27362 0.0
H1740 H 0.80479 0.5265 0.27523 0.0
H1741 H 0.83371 0.60655 0.41075 0.0
H1742 H 0.81352 0.60595 0.37703 0.0
H1743 H 0.80299 0.58338 0.41061 0.0
H1744 H 0.7565 0.58537 0.28527 0.0
H1745 H 0.7258 0.52576 0.35685 0.0
H1746 H 0.80984 0.59054 0.27485 0.0
H1747 H 0.81716 0.60912 0.3135 0.0
H1748 H 0.79803 0.61026 0.27949 0.0
H1749 H 0.77149 0.51708 0.36796 0.0
H1750 H 0.7491 0.5174 0.39594 0.0
H1751 H 0.78001 0.53936 0.40182 0.0
C1752 C 0.61239 0.11972 0.79833 0.0
C1753 C 0.61812 0.10282 0.81036 0.0
C1754 C 0.59081 0.1182 0.80778 0.0
C1755 C 0.57496 0.0998 0.8309 0.0
C1756 C 0.58023 0.08207 0.84189 0.0
C1757 C 0.60169 0.08362 0.83101 0.0
C1758 C 0.58558 0.13705 0.7945 0.0
C1759 C 0.56408 0.06247 0.86711 0.0
C1760 C 0.53978 0.11968 0.88761 0.0
C1761 C 0.51785 0.10901 0.86997 0.0
C1762 C 0.55796 0.11545 0.87658 0.0
C1763 C 0.55438 0.10084 0.84638 0.0
C1764 C 0.53193 0.08931 0.82926 0.0
C1765 C 0.51378 0.09328 0.84161 0.0
C1766 C 0.58138 0.12754 0.89629 0.0
C1767 C 0.52756 0.07404 0.79653 0.0
H1768 H 0.62506 0.13447 0.78214 0.0
H1769 H 0.60627 0.07067 0.84056 0.0
H1770 H 0.5672 0.12878 0.78391 0.0
H1771 H 0.58695 0.14878 0.81705 0.0
H1772 H 0.59811 0.1482 0.77316 0.0
H1773 H 0.5691 0.04851 0.86949 0.0
H1774 H 0.56505 0.07008 0.89408 0.0
H1775 H 0.54535 0.05411 0.8581 0.0
H1776 H 0.54286 0.13168 0.90974 0.0
H1777 H 0.49685 0.08517 0.82777 0.0
H1778 H 0.59517 0.14155 0.87908 0.0
H1779 H 0.58727 0.11459 0.9025 0.0
H1780 H 0.58032 0.13587 0.92167 0.0
H1781 H 0.5378 0.08548 0.77365 0.0
H1782 H 0.50847 0.06408 0.78902 0.0
H1783 H 0.53382 0.0612 0.80098 0.0
C1784 C 0.88186 0.49594 0.79965 0.0
C1785 C 0.89917 0.51887 0.80991 0.0
C1786 C 0.88359 0.4761 0.80985 0.0
C1787 C 0.90268 0.47923 0.83191 0.0
C1788 C 0.92067 0.50246 0.84132 0.0
C1789 C 0.91887 0.52208 0.82973 0.0
C1790 C 0.8644 0.4517 0.79827 0.0
C1791 C 0.94098 0.50653 0.86547 0.0
C1792 C 0.88493 0.42538 0.89047 0.0
C1793 C 0.89517 0.41391 0.87227 0.0
C1794 C 0.88868 0.44753 0.87898 0.0
C1795 C 0.90232 0.45803 0.84776 0.0
C1796 C 0.91354 0.44696 0.83013 0.0
C1797 C 0.91009 0.42512 0.84295 0.0
C1798 C 0.87701 0.45907 0.89925 0.0
C1799 C 0.92776 0.45726 0.79633 0.0
H1800 H 0.86671 0.49348 0.78409 0.0
H1801 H 0.93217 0.53983 0.83792 0.0
H1802 H 0.87241 0.44145 0.78727 0.0
H1803 H 0.85349 0.44181 0.82176 0.0
H1804 H 0.85248 0.45252 0.7777 0.0
H1805 H 0.95478 0.5256 0.86712 0.0
H1806 H 0.93408 0.50013 0.89282 0.0
H1807 H 0.94936 0.49629 0.85597 0.0
H1808 H 0.87347 0.41672 0.91325 0.0
H1809 H 0.91778 0.41608 0.82861 0.0
H1810 H 0.86232 0.45823 0.88301 0.0
H1811 H 0.88994 0.47809 0.90424 0.0
H1812 H 0.86961 0.45022 0.92533 0.0
H1813 H 0.91558 0.45549 0.77421 0.0
H1814 H 0.93762 0.44812 0.78834 0.0
H1815 H 0.94059 0.47647 0.79969 0.0
C1816 C 0.58434 0.46397 0.88542 0.0
C1817 C 0.59556 0.4853 0.86621 0.0
C1818 C 0.56229 0.44516 0.87442 0.0
C1819 C 0.55168 0.44745 0.84267 0.0
C1820 C 0.56265 0.46923 0.82371 0.0
C1821 C 0.58434 0.48808 0.83607 0.0
C1822 C 0.5508 0.42252 0.89609 0.0
C1823 C 0.55225 0.47217 0.78926 0.0
C1824 C 0.51261 0.38811 0.79768 0.0
C1825 C 0.48987 0.3833 0.80766 0.0
C1826 C 0.53279 0.40962 0.80711 0.0
C1827 C 0.53019 0.42635 0.82805 0.0
C1828 C 0.50716 0.42187 0.83722 0.0
C1829 C 0.48721 0.40048 0.82644 0.0
C1830 C 0.55697 0.414 0.79583 0.0
C1831 C 0.50366 0.43898 0.86021 0.0
H1832 H 0.593 0.46192 0.90886 0.0
H1833 H 0.59318 0.50453 0.82102 0.0
H1834 H 0.53188 0.41678 0.90132 0.0
H1835 H 0.55126 0.40814 0.88075 0.0
H1836 H 0.55991 0.42458 0.92211 0.0
H1837 H 0.56175 0.49081 0.77953 0.0
H1838 H 0.55335 0.46064 0.76831 0.0
H1839 H 0.53321 0.46647 0.79279 0.0
H1840 H 0.51464 0.37487 0.78293 0.0
H1841 H 0.46961 0.39665 0.83442 0.0
H1842 H 0.56686 0.41344 0.81964 0.0
H1843 H 0.56745 0.43191 0.78371 0.0
H1844 H 0.55576 0.40058 0.77625 0.0
H1845 H 0.51047 0.43929 0.88757 0.0
H1846 H 0.48467 0.43398 0.86222 0.0
H1847 H 0.5139 0.45727 0.84939 0.0
C1848 C 0.57993 0.73429 0.62813 0.0
C1849 C 0.56192 0.71363 0.64418 0.0
C1850 C 0.58177 0.75649 0.63481 0.0
C1851 C 0.56565 0.75796 0.65883 0.0
C1852 C 0.54812 0.73719 0.67615 0.0
C1853 C 0.54627 0.71529 0.6682 0.0
C1854 C 0.6003 0.77815 0.61519 0.0
C1855 C 0.53089 0.73795 0.70255 0.0
C1856 C 0.57487 0.81521 0.70106 0.0
C1857 C 0.55774 0.81821 0.6828 0.0
C1858 C 0.5787 0.79632 0.69235 0.0
C1859 C 0.56554 0.78062 0.66412 0.0
C1860 C 0.54956 0.78481 0.64395 0.0
C1861 C 0.54558 0.8033 0.65391 0.0
C1862 C 0.59553 0.79219 0.71495 0.0
C1863 C 0.53561 0.76892 0.61308 0.0
H1864 H 0.59202 0.73299 0.60952 0.0
H1865 H 0.53253 0.69936 0.68106 0.0
H1866 H 0.59143 0.78452 0.59648 0.0
H1867 H 0.61078 0.79278 0.6343 0.0
H1868 H 0.61265 0.77443 0.59962 0.0
H1869 H 0.51984 0.72063 0.71616 0.0
H1870 H 0.54064 0.75172 0.72322 0.0
H1871 H 0.5189 0.7428 0.68846 0.0
H1872 H 0.58425 0.82677 0.72342 0.0
H1873 H 0.53258 0.80587 0.63945 0.0
H1874 H 0.60731 0.78858 0.69784 0.0
H1875 H 0.58515 0.77632 0.73205 0.0
H1876 H 0.60668 0.80759 0.73256 0.0
H1877 H 0.54741 0.76578 0.59522 0.0
H1878 H 0.52669 0.77658 0.597 0.0
H1879 H 0.52182 0.75142 0.62351 0.0
C1880 C 0.19563 0.74266 0.65976 0.0
C1881 C 0.17968 0.73948 0.68728 0.0
C1882 C 0.21376 0.76541 0.65008 0.0
C1883 C 0.21651 0.78542 0.66927 0.0
C1884 C 0.1998 0.78238 0.69612 0.0
C1885 C 0.1813 0.75939 0.70445 0.0
C1886 C 0.23078 0.76786 0.62065 0.0
C1887 C 0.2024 0.80316 0.71774 0.0
C1888 C 0.28103 0.83315 0.677 0.0
C1889 C 0.28285 0.84997 0.65187 0.0
C1890 C 0.25926 0.81274 0.68411 0.0
C1891 C 0.23881 0.80864 0.66487 0.0
C1892 C 0.24037 0.82582 0.63992 0.0
C1893 C 0.26243 0.84654 0.63403 0.0
C1894 C 0.25838 0.79522 0.71152 0.0
C1895 C 0.21905 0.82182 0.61839 0.0
H1896 H 0.19413 0.72725 0.64608 0.0
H1897 H 0.16892 0.7569 0.72575 0.0
H1898 H 0.23383 0.78249 0.60219 0.0
H1899 H 0.24818 0.77234 0.6325 0.0
H1900 H 0.22416 0.75124 0.6049 0.0
H1901 H 0.18636 0.7984 0.7341 0.0
H1902 H 0.21785 0.80935 0.73601 0.0
H1903 H 0.2059 0.81825 0.70002 0.0
H1904 H 0.29677 0.83592 0.6912 0.0
H1905 H 0.26388 0.85955 0.61452 0.0
H1906 H 0.25465 0.77851 0.69799 0.0
H1907 H 0.24382 0.79073 0.73094 0.0
H1908 H 0.27532 0.80216 0.72654 0.0
H1909 H 0.21401 0.80683 0.59957 0.0
H1910 H 0.2226 0.83778 0.60271 0.0
H1911 H 0.20361 0.81684 0.63618 0.0
C1912 C 0.24626 0.45294 0.72252 0.0
C1913 C 0.25713 0.44209 0.70429 0.0
C1914 C 0.22414 0.44953 0.71151 0.0
C1915 C 0.21306 0.43563 0.68071 0.0
C1916 C 0.22365 0.42402 0.66284 0.0
C1917 C 0.24544 0.42711 0.67522 0.0
C1918 C 0.21311 0.46161 0.73203 0.0
C1919 C 0.21276 0.40959 0.62938 0.0
C1920 C 0.14858 0.41842 0.66488 0.0
C1921 C 0.15128 0.43776 0.64463 0.0
C1922 C 0.1685 0.41703 0.67607 0.0
C1923 C 0.19152 0.43505 0.66576 0.0
C1924 C 0.19413 0.4538 0.64338 0.0
C1925 C 0.174 0.45515 0.63364 0.0
C1926 C 0.165 0.39711 0.70065 0.0
C1927 C 0.21827 0.47297 0.63083 0.0
H1928 H 0.25528 0.46444 0.74511 0.0
H1929 H 0.25402 0.41894 0.66086 0.0
H1930 H 0.21365 0.47605 0.71554 0.0
H1931 H 0.19419 0.4488 0.73796 0.0
H1932 H 0.22251 0.46938 0.75764 0.0
H1933 H 0.22196 0.39992 0.62063 0.0
H1934 H 0.1937 0.39656 0.63369 0.0
H1935 H 0.21381 0.42156 0.60741 0.0
H1936 H 0.13099 0.40507 0.67366 0.0
H1937 H 0.17606 0.47002 0.61777 0.0
H1938 H 0.17219 0.40445 0.72755 0.0
H1939 H 0.17491 0.38849 0.69064 0.0
H1940 H 0.14597 0.3834 0.70353 0.0
H1941 H 0.22852 0.48417 0.65389 0.0
H1942 H 0.21701 0.48461 0.61023 0.0
H1943 H 0.22843 0.46495 0.61953 0.0
C1944 C 0.40052 0.91867 0.18035 0.0
C1945 C 0.38463 0.89999 0.20231 0.0
C1946 C 0.42167 0.91994 0.16853 0.0
C1947 C 0.42723 0.90249 0.1799 0.0
C1948 C 0.41204 0.88471 0.20439 0.0
C1949 C 0.3907 0.88341 0.21474 0.0
C1950 C 0.43708 0.93884 0.14182 0.0
C1951 C 0.41765 0.86622 0.21811 0.0
C1952 C 0.46061 0.88127 0.12155 0.0
C1953 C 0.48316 0.89251 0.13737 0.0
C1954 C 0.44273 0.8856 0.13378 0.0
C1955 C 0.44727 0.90096 0.16334 0.0
C1956 C 0.47027 0.91298 0.17867 0.0
C1957 C 0.48808 0.90885 0.16514 0.0
C1958 C 0.41867 0.87294 0.11594 0.0
C1959 C 0.47569 0.92905 0.2107 0.0
H1960 H 0.39565 0.93133 0.17042 0.0
H1961 H 0.37841 0.86902 0.23185 0.0
H1962 H 0.45606 0.94737 0.14954 0.0
H1963 H 0.43526 0.93051 0.1152 0.0
H1964 H 0.43204 0.95277 0.13924 0.0
H1965 H 0.40584 0.85576 0.24058 0.0
H1966 H 0.41547 0.85379 0.19615 0.0
H1967 H 0.43636 0.87472 0.22732 0.0
H1968 H 0.45686 0.86879 0.09986 0.0
H1969 H 0.50548 0.91743 0.1776 0.0
H1970 H 0.41256 0.8857 0.10959 0.0
H1971 H 0.40548 0.85946 0.13446 0.0
H1972 H 0.41886 0.86386 0.09085 0.0
H1973 H 0.46938 0.94185 0.2062 0.0
H1974 H 0.49498 0.9391 0.21691 0.0
H1975 H 0.4661 0.91821 0.23442 0.0
C1976 C 0.09057 0.57479 0.13476 0.0
C1977 C 0.11035 0.59488 0.14904 0.0
C1978 C 0.08563 0.5518 0.14422 0.0
C1979 C 0.10048 0.549 0.16916 0.0
C1980 C 0.11943 0.56929 0.18547 0.0
C1981 C 0.12432 0.59195 0.17484 0.0
C1982 C 0.06552 0.53065 0.1258 0.0
C1983 C 0.13539 0.56714 0.21279 0.0
C1984 C 0.08602 0.48936 0.20954 0.0
C1985 C 0.10152 0.48452 0.19009 0.0
C1986 C 0.08469 0.50995 0.20232 0.0
C1987 C 0.09872 0.52547 0.17444 0.0
C1988 C 0.11326 0.5197 0.15347 0.0
C1989 C 0.11474 0.49953 0.16192 0.0
C1990 C 0.06934 0.51574 0.22568 0.0
C1991 C 0.12811 0.53538 0.12298 0.0
H1992 H 0.0797 0.57704 0.11491 0.0
H1993 H 0.13935 0.60748 0.18646 0.0
H1994 H 0.07293 0.52312 0.10641 0.0
H1995 H 0.05477 0.51651 0.14544 0.0
H1996 H 0.05369 0.53548 0.11107 0.0
H1997 H 0.14712 0.58428 0.22646 0.0
H1998 H 0.12465 0.55365 0.23329 0.0
H1999 H 0.14674 0.56118 0.19937 0.0
H2000 H 0.07584 0.47772 0.23137 0.0
H2001 H 0.12649 0.49557 0.14653 0.0
H2002 H 0.05851 0.52093 0.20912 0.0
H2003 H 0.08085 0.5311 0.24306 0.0
H2004 H 0.05731 0.50056 0.24303 0.0
H2005 H 0.1171 0.53955 0.10499 0.0
H2006 H 0.13633 0.52701 0.10688 0.0
H2007 H 0.14251 0.55244 0.13377 0.0
C2008 C 0.4954 0.61338 0.20789 0.0
C2009 C 0.51826 0.61896 0.19731 0.0
C2010 C 0.47553 0.59159 0.19858 0.0
C2011 C 0.47855 0.57531 0.17713 0.0
C2012 C 0.50176 0.58044 0.16771 0.0
C2013 C 0.52143 0.60214 0.17837 0.0
C2014 C 0.45119 0.58656 0.21014 0.0
C2015 C 0.50573 0.56382 0.14429 0.0
C2016 C 0.42396 0.51397 0.16714 0.0
C2017 C 0.41282 0.51756 0.13761 0.0
C2018 C 0.44595 0.53229 0.17966 0.0
C2019 C 0.45726 0.5544 0.16154 0.0
C2020 C 0.44681 0.55738 0.13011 0.0
C2021 C 0.42453 0.53907 0.11891 0.0
C2022 C 0.45619 0.52854 0.21365 0.0
C2023 C 0.45857 0.58038 0.10932 0.0
H2024 H 0.49298 0.62634 0.22276 0.0
H2025 H 0.53912 0.60657 0.16989 0.0
H2026 H 0.44128 0.58744 0.18656 0.0
H2027 H 0.44089 0.5684 0.22147 0.0
H2028 H 0.45212 0.5995 0.23043 0.0
H2029 H 0.52475 0.56882 0.1432 0.0
H2030 H 0.49518 0.54527 0.15399 0.0
H2031 H 0.49967 0.56427 0.11667 0.0
H2032 H 0.41476 0.49739 0.18183 0.0
H2033 H 0.41594 0.54178 0.09596 0.0
H2034 H 0.45442 0.53909 0.23555 0.0
H2035 H 0.4754 0.53484 0.21041 0.0
H2036 H 0.44698 0.50958 0.22187 0.0
H2037 H 0.45794 0.59449 0.12516 0.0
H2038 H 0.44972 0.57877 0.08319 0.0
H2039 H 0.47753 0.58619 0.10439 0.0
C2040 C 0.07916 0.59984 0.67537 0.0
C2041 C 0.09834 0.61629 0.69605 0.0
C2042 C 0.07783 0.57858 0.66403 0.0
C2043 C 0.09575 0.57349 0.6746 0.0
C2044 C 0.11414 0.58932 0.69777 0.0
C2045 C 0.11545 0.61074 0.70766 0.0
C2046 C 0.05826 0.56247 0.63872 0.0
C2047 C 0.13319 0.58425 0.71063 0.0
C2048 C 0.08973 0.5126 0.66286 0.0
C2049 C 0.1055 0.51695 0.63445 0.0
C2050 C 0.08558 0.53057 0.67556 0.0
C2051 C 0.09696 0.5531 0.6587 0.0
C2052 C 0.11157 0.55694 0.6284 0.0
C2053 C 0.11601 0.53896 0.61705 0.0
C2054 C 0.07036 0.52592 0.70842 0.0
C2055 C 0.12347 0.58045 0.60896 0.0
H2056 H 0.06608 0.60431 0.66608 0.0
H2057 H 0.13021 0.62345 0.72382 0.0
H2058 H 0.06586 0.5637 0.61167 0.0
H2059 H 0.05008 0.54369 0.6474 0.0
H2060 H 0.04416 0.56731 0.63666 0.0
H2061 H 0.1443 0.59669 0.7321 0.0
H2062 H 0.12511 0.56581 0.72091 0.0
H2063 H 0.14494 0.58592 0.68794 0.0
H2064 H 0.08179 0.49564 0.67656 0.0
H2065 H 0.12809 0.54225 0.59495 0.0
H2066 H 0.05731 0.53193 0.70419 0.0
H2067 H 0.08179 0.5362 0.73128 0.0
H2068 H 0.06064 0.50681 0.71584 0.0
H2069 H 0.11042 0.58628 0.60311 0.0
H2070 H 0.13174 0.57957 0.58341 0.0
H2071 H 0.13751 0.59421 0.62619 0.0
C2072 C 0.39838 0.47957 0.67904 0.0
C2073 C 0.38145 0.4829 0.69735 0.0
C2074 C 0.4203 0.49911 0.66889 0.0
C2075 C 0.42551 0.52236 0.67817 0.0
C2076 C 0.40908 0.52555 0.69895 0.0
C2077 C 0.38709 0.50581 0.70777 0.0
C2078 C 0.4371 0.49498 0.64619 0.0
C2079 C 0.41418 0.54995 0.71031 0.0
C2080 C 0.48691 0.57697 0.66944 0.0
C2081 C 0.48353 0.58807 0.6397 0.0
C2082 C 0.46852 0.55489 0.68158 0.0
C2083 C 0.44662 0.54355 0.66288 0.0
C2084 C 0.44394 0.55395 0.63119 0.0
C2085 C 0.46229 0.57627 0.62035 0.0
C2086 C 0.47195 0.54462 0.71579 0.0
C2087 C 0.42118 0.54217 0.60981 0.0
H2088 H 0.39394 0.46183 0.67079 0.0
H2089 H 0.37409 0.50837 0.72225 0.0
H2090 H 0.43703 0.50103 0.61843 0.0
H2091 H 0.45554 0.50545 0.65637 0.0
H2092 H 0.432 0.47593 0.64532 0.0
H2093 H 0.40104 0.54913 0.73012 0.0
H2094 H 0.4322 0.5601 0.72217 0.0
H2095 H 0.41372 0.55995 0.68655 0.0
H2096 H 0.50331 0.58625 0.68455 0.0
H2097 H 0.45979 0.58485 0.5972 0.0
H2098 H 0.46538 0.52536 0.71279 0.0
H2099 H 0.46146 0.5467 0.73749 0.0
H2100 H 0.49088 0.55363 0.72415 0.0
H2101 H 0.41541 0.5232 0.60505 0.0
H2102 H 0.42309 0.55098 0.58356 0.0
H2103 H 0.40689 0.54282 0.62513 0.0
C2104 C 0.42556 0.91167 0.63944 0.0
C2105 C 0.40591 0.89381 0.65768 0.0
C2106 C 0.44858 0.91581 0.64654 0.0
C2107 C 0.45191 0.90217 0.67311 0.0
C2108 C 0.43225 0.88548 0.69349 0.0
C2109 C 0.40945 0.88125 0.68514 0.0
C2110 C 0.46899 0.93345 0.6238 0.0
C2111 C 0.43505 0.87099 0.72268 0.0
C2112 C 0.49816 0.88355 0.66286 0.0
C2113 C 0.51572 0.89858 0.68706 0.0
C2114 C 0.478 0.88554 0.6567 0.0
C2115 C 0.47491 0.90251 0.67611 0.0
C2116 C 0.49283 0.9181 0.70016 0.0
C2117 C 0.51329 0.91617 0.70499 0.0
C2118 C 0.45965 0.86892 0.63017 0.0
C2119 C 0.4899 0.93602 0.72193 0.0
H2120 H 0.42278 0.92136 0.61817 0.0
H2121 H 0.39425 0.86766 0.6996 0.0
H2122 H 0.48471 0.94483 0.64061 0.0
H2123 H 0.47422 0.92373 0.60483 0.0
H2124 H 0.46423 0.94499 0.60811 0.0
H2125 H 0.41882 0.8615 0.73943 0.0
H2126 H 0.43876 0.85762 0.71049 0.0
H2127 H 0.45028 0.88251 0.74025 0.0
H2128 H 0.5002 0.87014 0.64863 0.0
H2129 H 0.52688 0.92773 0.7238 0.0
H2130 H 0.45506 0.87908 0.61107 0.0
H2131 H 0.44313 0.85636 0.64453 0.0
H2132 H 0.46587 0.85846 0.61472 0.0
H2133 H 0.48476 0.94651 0.70448 0.0
H2134 H 0.50637 0.94838 0.73664 0.0
H2135 H 0.47538 0.92657 0.74166 0.0
C2136 C 0.18622 0.42698 0.20505 0.0
C2137 C 0.1821 0.44281 0.18516 0.0
C2138 C 0.20551 0.42369 0.19683 0.0
C2139 C 0.22044 0.43602 0.16743 0.0
C2140 C 0.2151 0.45058 0.14572 0.0
C2141 C 0.19626 0.45414 0.15525 0.0
C2142 C 0.2109 0.40845 0.22112 0.0
C2143 C 0.2301 0.4635 0.11355 0.0
C2144 C 0.28622 0.45685 0.17016 0.0
C2145 C 0.28776 0.44014 0.14839 0.0
C2146 C 0.26427 0.45503 0.1777 0.0
C2147 C 0.24335 0.43643 0.16214 0.0
C2148 C 0.24476 0.4194 0.14015 0.0
C2149 C 0.26699 0.42126 0.13396 0.0
C2150 C 0.26355 0.47326 0.20198 0.0
C2151 C 0.22295 0.39975 0.12229 0.0
H2152 H 0.17528 0.41833 0.22829 0.0
H2153 H 0.19285 0.46621 0.13969 0.0
H2154 H 0.21457 0.39621 0.20526 0.0
H2155 H 0.2271 0.41999 0.23696 0.0
H2156 H 0.1961 0.39783 0.23997 0.0
H2157 H 0.22156 0.47115 0.09657 0.0
H2158 H 0.24756 0.47817 0.1226 0.0
H2159 H 0.23347 0.45134 0.09695 0.0
H2160 H 0.30225 0.47131 0.18171 0.0
H2161 H 0.26823 0.40837 0.11703 0.0
H2162 H 0.25035 0.4643 0.22366 0.0
H2163 H 0.25791 0.48416 0.18652 0.0
H2164 H 0.28109 0.48532 0.21433 0.0
H2165 H 0.20892 0.38966 0.14242 0.0
H2166 H 0.22682 0.38721 0.10758 0.0
H2167 H 0.21567 0.40752 0.10311 0.0
C2168 C 0.54871 0.82741 0.12191 0.0
C2169 C 0.56558 0.84996 0.13424 0.0
C2170 C 0.55021 0.80729 0.13109 0.0
C2171 C 0.56852 0.80972 0.15431 0.0
C2172 C 0.58623 0.83265 0.16557 0.0
C2173 C 0.58474 0.8526 0.1549 0.0
C2174 C 0.5314 0.78329 0.11749 0.0
C2175 C 0.6057 0.83596 0.19098 0.0
C2176 C 0.54863 0.75491 0.21161 0.0
C2177 C 0.55959 0.74373 0.19454 0.0
C2178 C 0.55262 0.77712 0.20005 0.0
C2179 C 0.56731 0.78805 0.16989 0.0
C2180 C 0.57902 0.77717 0.1532 0.0
C2181 C 0.57527 0.75523 0.16609 0.0
C2182 C 0.54034 0.78843 0.21931 0.0
C2183 C 0.59436 0.78795 0.12051 0.0
H2184 H 0.53396 0.82542 0.10578 0.0
H2185 H 0.59765 0.87007 0.16473 0.0
H2186 H 0.53968 0.77312 0.10716 0.0
H2187 H 0.51943 0.77292 0.13982 0.0
H2188 H 0.52049 0.78479 0.09588 0.0
H2189 H 0.61969 0.85491 0.19355 0.0
H2190 H 0.59795 0.82926 0.21786 0.0
H2191 H 0.61406 0.82558 0.18204 0.0
H2192 H 0.53666 0.7461 0.23382 0.0
H2193 H 0.58361 0.74649 0.15269 0.0
H2194 H 0.52649 0.78823 0.20175 0.0
H2195 H 0.55324 0.80726 0.22566 0.0
H2196 H 0.53178 0.77902 0.24458 0.0
H2197 H 0.58298 0.78681 0.09756 0.0
H2198 H 0.60424 0.77873 0.1131 0.0
H2199 H 0.60726 0.80703 0.12495 0.0
C2200 C 0.17557 0.72312 0.13083 0.0
C2201 C 0.15308 0.71762 0.14322 0.0
C2202 C 0.19585 0.74447 0.14049 0.0
C2203 C 0.19362 0.76025 0.16421 0.0
C2204 C 0.17077 0.75518 0.17567 0.0
C2205 C 0.15067 0.73401 0.16454 0.0
C2206 C 0.21977 0.74954 0.1267 0.0
C2207 C 0.16769 0.77124 0.20161 0.0
C2208 C 0.24886 0.79484 0.22079 0.0
C2209 C 0.25999 0.81699 0.20378 0.0
C2210 C 0.22651 0.77672 0.20951 0.0
C2211 C 0.2154 0.78059 0.17969 0.0
C2212 C 0.22624 0.8032 0.1631 0.0
C2213 C 0.24831 0.82129 0.17573 0.0
C2214 C 0.21523 0.7531 0.22865 0.0
C2215 C 0.21529 0.80787 0.13073 0.0
H2216 H 0.17738 0.71046 0.11415 0.0
H2217 H 0.13324 0.72958 0.17439 0.0
H2218 H 0.23001 0.768 0.11646 0.0
H2219 H 0.23016 0.74782 0.1489 0.0
H2220 H 0.21814 0.73714 0.10497 0.0
H2221 H 0.14877 0.76628 0.20467 0.0
H2222 H 0.17464 0.77011 0.22824 0.0
H2223 H 0.178 0.79001 0.19279 0.0
H2224 H 0.25782 0.79159 0.24268 0.0
H2225 H 0.25702 0.83839 0.16237 0.0
H2226 H 0.21531 0.73946 0.21091 0.0
H2227 H 0.19644 0.7472 0.23525 0.0
H2228 H 0.22475 0.75388 0.25377 0.0
H2229 H 0.21617 0.7976 0.10762 0.0
H2230 H 0.22457 0.82698 0.12335 0.0
H2231 H 0.19627 0.80183 0.13554 0.0
C2232 C 0.19809 0.20992 0.17677 0.0
C2233 C 0.21762 0.21593 0.15432 0.0
C2234 C 0.20081 0.21299 0.214 0.0
C2235 C 0.22362 0.22214 0.2295 0.0
C2236 C 0.24359 0.22925 0.20695 0.0
C2237 C 0.24038 0.22614 0.16961 0.0
C2238 C 0.17902 0.2054 0.2369 0.0
C2239 C 0.2682 0.23905 0.22236 0.0
C2240 C 0.22679 0.23884 0.32812 0.0
C2241 C 0.22156 0.21742 0.34475 0.0
C2242 C 0.22886 0.24124 0.29056 0.0
C2243 C 0.22587 0.22184 0.26931 0.0
C2244 C 0.22232 0.20085 0.28628 0.0
C2245 C 0.22011 0.19887 0.32365 0.0
C2246 C 0.23272 0.26394 0.27356 0.0
C2247 C 0.21935 0.17982 0.26485 0.0
H2248 H 0.18047 0.20232 0.16529 0.0
H2249 H 0.2556 0.23089 0.15257 0.0
H2250 H 0.17565 0.18979 0.25329 0.0
H2251 H 0.18189 0.21985 0.25563 0.0
H2252 H 0.16293 0.20058 0.22064 0.0
H2253 H 0.28214 0.24645 0.20133 0.0
H2254 H 0.2719 0.25316 0.24226 0.0
H2255 H 0.2694 0.22471 0.23657 0.0
H2256 H 0.22787 0.25323 0.3442 0.0
H2257 H 0.21637 0.18235 0.33633 0.0
H2258 H 0.21598 0.26074 0.26072 0.0
H2259 H 0.24645 0.26988 0.25232 0.0
H2260 H 0.23817 0.27844 0.2935 0.0
H2261 H 0.20235 0.17191 0.24985 0.0
H2262 H 0.21923 0.16585 0.2821 0.0
H2263 H 0.23386 0.18554 0.24494 0.0
C2264 C 0.79093 0.98696 0.18036 0.0
C2265 C 0.78599 0.00142 0.15823 0.0
C2266 C 0.78888 0.98724 0.21772 0.0
C2267 C 0.78183 0.00249 0.23374 0.0
C2268 C 0.77573 0.01635 0.21157 0.0
C2269 C 0.77779 0.01559 0.17404 0.0
C2270 C 0.79533 0.97195 0.24014 0.0
C2271 C 0.76812 0.03282 0.22754 0.0
C2272 C 0.76654 0.9904 0.33299 0.0
C2273 C 0.78866 0.00545 0.3489 0.0
C2274 C 0.76359 0.99007 0.29555 0.0
C2275 C 0.78313 0.00532 0.27357 0.0
C2276 C 0.80502 0.02159 0.28978 0.0
C2277 C 0.80755 0.02135 0.32709 0.0
C2278 C 0.73996 0.97243 0.27941 0.0
C2279 C 0.82626 0.03841 0.26757 0.0
H2280 H 0.79694 0.97567 0.16848 0.0
H2281 H 0.77393 0.02682 0.15723 0.0
H2282 H 0.81163 0.98343 0.2558 0.0
H2283 H 0.78094 0.96132 0.25953 0.0
H2284 H 0.79857 0.95966 0.22358 0.0
H2285 H 0.76121 0.04013 0.20693 0.0
H2286 H 0.75422 0.02345 0.24816 0.0
H2287 H 0.78352 0.04784 0.24101 0.0
H2288 H 0.75184 0.97805 0.34958 0.0
H2289 H 0.82461 0.03329 0.33914 0.0
H2290 H 0.7416 0.95814 0.26582 0.0
H2291 H 0.73452 0.9811 0.25888 0.0
H2292 H 0.72576 0.96419 0.29996 0.0
H2293 H 0.83265 0.02816 0.25199 0.0
H2294 H 0.84115 0.05161 0.28431 0.0
H2295 H 0.82126 0.04805 0.24813 0.0
C2296 C 0.98656 0.79648 0.32819 0.0
C2297 C 0.99903 0.78935 0.35099 0.0
C2298 C 0.98621 0.79326 0.29097 0.0
C2299 C 0.99878 0.78279 0.27583 0.0
C2300 C 0.01075 0.7748 0.29869 0.0
C2301 C 0.01067 0.7781 0.33599 0.0
C2302 C 0.97302 0.80186 0.26772 0.0
C2303 C 0.02442 0.76363 0.28366 0.0
C2304 C 0.98411 0.76488 0.17773 0.0
C2305 C 0.00107 0.78562 0.16038 0.0
C2306 C 0.98381 0.76307 0.21539 0.0
C2307 C 0.00102 0.78234 0.23602 0.0
C2308 C 0.01915 0.80256 0.21835 0.0
C2309 C 0.01887 0.80399 0.18089 0.0
C2310 C 0.9642 0.74119 0.23313 0.0
C2311 C 0.03807 0.82339 0.23909 0.0
H2312 H 0.97725 0.80492 0.33939 0.0
H2313 H 0.02032 0.77247 0.35327 0.0
H2314 H 0.98586 0.81687 0.25085 0.0
H2315 H 0.96073 0.78751 0.24943 0.0
H2316 H 0.96264 0.80793 0.28373 0.0
H2317 H 0.03066 0.75613 0.30497 0.0
H2318 H 0.01326 0.7493 0.2645 0.0
H2319 H 0.0401 0.77718 0.26868 0.0
H2320 H 0.97026 0.75065 0.16209 0.0
H2321 H 0.03222 0.81997 0.16765 0.0
H2322 H 0.95151 0.74564 0.24594 0.0
H2323 H 0.97146 0.73479 0.25452 0.0
H2324 H 0.95429 0.72656 0.21368 0.0
H2325 H 0.02991 0.8324 0.25364 0.0
H2326 H 0.05229 0.8366 0.2214 0.0
H2327 H 0.04628 0.81724 0.25934 0.0
C2328 C 0.76476 0.78107 0.82612 0.0
C2329 C 0.78657 0.78755 0.84257 0.0
C2330 C 0.76229 0.77901 0.78856 0.0
C2331 C 0.78204 0.78331 0.76706 0.0
C2332 C 0.80366 0.78852 0.78375 0.0
C2333 C 0.80567 0.79065 0.82113 0.0
C2334 C 0.73894 0.77342 0.77184 0.0
C2335 C 0.8251 0.79296 0.76202 0.0
C2336 C 0.77709 0.76684 0.66806 0.0
C2337 C 0.78545 0.78904 0.65161 0.0
C2338 C 0.77494 0.76442 0.70559 0.0
C2339 C 0.78108 0.78462 0.72717 0.0
C2340 C 0.78848 0.80682 0.71057 0.0
C2341 C 0.79067 0.80877 0.67315 0.0
C2342 C 0.76708 0.74046 0.72221 0.0
C2343 C 0.79498 0.82879 0.73243 0.0
H2344 H 0.74991 0.77865 0.84241 0.0
H2345 H 0.82253 0.79533 0.83357 0.0
H2346 H 0.74104 0.78939 0.75776 0.0
H2347 H 0.73339 0.75912 0.7516 0.0
H2348 H 0.7246 0.76787 0.79208 0.0
H2349 H 0.8399 0.79475 0.7791 0.0
H2350 H 0.82029 0.77827 0.74273 0.0
H2351 H 0.83156 0.80954 0.74627 0.0
H2352 H 0.77297 0.75147 0.65173 0.0
H2353 H 0.79682 0.82595 0.66078 0.0
H2354 H 0.75275 0.73604 0.74202 0.0
H2355 H 0.7822 0.74096 0.73678 0.0
H2356 H 0.76062 0.72609 0.70186 0.0
H2357 H 0.7805 0.82533 0.75147 0.0
H2358 H 0.79848 0.84423 0.71542 0.0
H2359 H 0.81114 0.83359 0.74845 0.0
C2360 C 0.19477 0.98341 0.68281 0.0
C2361 C 0.21386 0.99884 0.66088 0.0
C2362 C 0.19732 0.98299 0.72006 0.0
C2363 C 0.21952 0.99847 0.73615 0.0
C2364 C 0.23923 0.0132 0.71408 0.0
C2365 C 0.2362 0.01316 0.67666 0.0
C2366 C 0.17584 0.96681 0.74237 0.0
C2367 C 0.26322 0.02991 0.7301 0.0
C2368 C 0.21269 0.01649 0.83009 0.0
C2369 C 0.21628 0.00083 0.85155 0.0
C2370 C 0.21504 0.01679 0.79272 0.0
C2371 C 0.22106 0.00095 0.77603 0.0
C2372 C 0.22597 0.98596 0.79758 0.0
C2373 C 0.22359 0.98612 0.83512 0.0
C2374 C 0.20983 0.03325 0.77097 0.0
C2375 C 0.23254 0.96889 0.7809 0.0
H2376 H 0.1775 0.97198 0.67092 0.0
H2377 H 0.25108 0.02511 0.66001 0.0
H2378 H 0.18016 0.95635 0.76125 0.0
H2379 H 0.17043 0.97763 0.75858 0.0
H2380 H 0.16049 0.95432 0.72567 0.0
H2381 H 0.27738 0.03766 0.70943 0.0
H2382 H 0.2625 0.04462 0.744 0.0
H2383 H 0.26809 0.02059 0.75034 0.0
H2384 H 0.20739 0.02822 0.84245 0.0
H2385 H 0.22647 0.97399 0.8514 0.0
H2386 H 0.19333 0.02266 0.75523 0.0
H2387 H 0.22441 0.0435 0.75169 0.0
H2388 H 0.20749 0.04593 0.78804 0.0
H2389 H 0.21676 0.95438 0.76734 0.0
H2390 H 0.23897 0.96088 0.80113 0.0
H2391 H 0.2465 0.97798 0.76027 0.0
C2392 C 0.98818 0.22031 0.67789 0.0
C2393 C 0.00631 0.21865 0.66013 0.0
C2394 C 0.98788 0.22156 0.71557 0.0
C2395 C 0.00636 0.22158 0.73581 0.0
C2396 C 0.02555 0.22166 0.71771 0.0
C2397 C 0.02516 0.21996 0.68022 0.0
C2398 C 0.96701 0.22126 0.73375 0.0
C2399 C 0.04586 0.22212 0.73802 0.0
C2400 C 0.01453 0.23529 0.83604 0.0
C2401 C 0.00469 0.21242 0.85085 0.0
C2402 C 0.01457 0.23863 0.79872 0.0
C2403 C 0.00446 0.21865 0.77563 0.0
C2404 C 0.99384 0.19555 0.79053 0.0
C2405 C 0.99413 0.19274 0.82776 0.0
C2406 C 0.02611 0.26354 0.78394 0.0
C2407 C 0.98273 0.17371 0.76702 0.0
H2408 H 0.9735 0.21915 0.66252 0.0
H2409 H 0.03934 0.21891 0.6666 0.0
H2410 H 0.95587 0.20375 0.74672 0.0
H2411 H 0.97315 0.23495 0.75507 0.0
H2412 H 0.95579 0.22436 0.71456 0.0
H2413 H 0.06068 0.22495 0.72006 0.0
H2414 H 0.05281 0.23638 0.75851 0.0
H2415 H 0.03943 0.205 0.75225 0.0
H2416 H 0.02269 0.25065 0.85352 0.0
H2417 H 0.98625 0.17496 0.83872 0.0
H2418 H 0.01386 0.26539 0.76529 0.0
H2419 H 0.04217 0.26728 0.76842 0.0
H2420 H 0.03141 0.2771 0.80541 0.0
H2421 H 0.96945 0.17413 0.74883 0.0
H2422 H 0.97385 0.15701 0.78283 0.0
H2423 H 0.99658 0.17341 0.75005 0.0
C2424 C 0.86253 0.54251 0.51099 0.0
C2425 C 0.88188 0.54852 0.48816 0.0
C2426 C 0.86559 0.54601 0.54813 0.0
C2427 C 0.88858 0.55564 0.56316 0.0
C2428 C 0.90837 0.56276 0.5402 0.0
C2429 C 0.90481 0.5592 0.50295 0.0
C2430 C 0.84397 0.53838 0.57146 0.0
C2431 C 0.93316 0.57307 0.55508 0.0
C2432 C 0.89229 0.57308 0.66156 0.0
C2433 C 0.88752 0.55189 0.67853 0.0
C2434 C 0.89407 0.57519 0.62394 0.0
C2435 C 0.89123 0.55574 0.60295 0.0
C2436 C 0.88816 0.53502 0.62025 0.0
C2437 C 0.88625 0.53333 0.65767 0.0
C2438 C 0.89744 0.59762 0.60661 0.0
C2439 C 0.88536 0.51395 0.59913 0.0
H2440 H 0.84477 0.53456 0.4999 0.0
H2441 H 0.9199 0.56396 0.48561 0.0
H2442 H 0.84098 0.523 0.58814 0.0
H2443 H 0.84681 0.55293 0.58992 0.0
H2444 H 0.82767 0.53317 0.55551 0.0
H2445 H 0.94689 0.58048 0.53373 0.0
H2446 H 0.93682 0.58728 0.57477 0.0
H2447 H 0.9348 0.55901 0.56941 0.0
H2448 H 0.89323 0.58748 0.67745 0.0
H2449 H 0.88287 0.517 0.6706 0.0
H2450 H 0.8805 0.59407 0.59407 0.0
H2451 H 0.91098 0.60354 0.58509 0.0
H2452 H 0.9029 0.61226 0.62629 0.0
H2453 H 0.86823 0.50568 0.58445 0.0
H2454 H 0.88563 0.50025 0.61656 0.0
H2455 H 0.89973 0.5197 0.57897 0.0
C2456 C 0.4412 0.3439 0.503 0.0
C2457 C 0.45047 0.33037 0.48819 0.0
C2458 C 0.43837 0.34462 0.54032 0.0
C2459 C 0.44486 0.33144 0.56327 0.0
C2460 C 0.45272 0.31658 0.54821 0.0
C2461 C 0.45547 0.31627 0.51101 0.0
C2462 C 0.42978 0.36057 0.55524 0.0
C2463 C 0.45961 0.302 0.57155 0.0
C2464 C 0.47122 0.35286 0.65542 0.0
C2465 C 0.45296 0.33677 0.67794 0.0
C2466 C 0.46816 0.35234 0.61821 0.0
C2467 C 0.44634 0.33515 0.60287 0.0
C2468 C 0.42727 0.31988 0.62557 0.0
C2469 C 0.43078 0.32092 0.66293 0.0
C2470 C 0.4889 0.3692 0.59517 0.0
C2471 C 0.40369 0.3014 0.61034 0.0
H2472 H 0.43723 0.35481 0.48564 0.0
H2473 H 0.46229 0.30546 0.49986 0.0
H2474 H 0.41633 0.35131 0.57649 0.0
H2475 H 0.44492 0.37644 0.5676 0.0
H2476 H 0.42197 0.36663 0.53415 0.0
H2477 H 0.46318 0.28967 0.55566 0.0
H2478 H 0.47585 0.31401 0.58696 0.0
H2479 H 0.44534 0.29148 0.59114 0.0
H2480 H 0.48831 0.36541 0.66683 0.0
H2481 H 0.41658 0.30842 0.68012 0.0
H2482 H 0.48322 0.37805 0.57532 0.0
H2483 H 0.49566 0.3591 0.58006 0.0
H2484 H 0.50373 0.38307 0.61127 0.0
H2485 H 0.39787 0.30911 0.58882 0.0
H2486 H 0.38966 0.29368 0.63121 0.0
H2487 H 0.40557 0.28684 0.59826 0.0
C2488 C 0.65113 0.12415 0.65914 0.0
C2489 C 0.66597 0.11973 0.68124 0.0
C2490 C 0.65074 0.12116 0.62189 0.0
C2491 C 0.66571 0.11372 0.60597 0.0
C2492 C 0.67996 0.10817 0.62819 0.0
C2493 C 0.67984 0.11113 0.66559 0.0
C2494 C 0.63505 0.12705 0.59941 0.0
C2495 C 0.6962 0.10023 0.61233 0.0
C2496 C 0.65269 0.0963 0.50741 0.0
C2497 C 0.6677 0.11803 0.49046 0.0
C2498 C 0.65259 0.09418 0.54501 0.0
C2499 C 0.66801 0.11419 0.56607 0.0
C2500 C 0.68416 0.13571 0.54886 0.0
C2501 C 0.68373 0.13738 0.51144 0.0
C2502 C 0.6351 0.07093 0.56226 0.0
C2503 C 0.70112 0.15744 0.57008 0.0
H2504 H 0.64007 0.13048 0.67092 0.0
H2505 H 0.69137 0.10766 0.68238 0.0
H2506 H 0.64625 0.14305 0.58299 0.0
H2507 H 0.62421 0.11227 0.58071 0.0
H2508 H 0.62294 0.13055 0.61599 0.0
H2509 H 0.70388 0.09383 0.63314 0.0
H2510 H 0.6865 0.08584 0.59251 0.0
H2511 H 0.71097 0.1153 0.59794 0.0
H2512 H 0.64025 0.08124 0.49148 0.0
H2513 H 0.69564 0.15417 0.49861 0.0
H2514 H 0.62102 0.0729 0.57589 0.0
H2515 H 0.644 0.06587 0.58294 0.0
H2516 H 0.62657 0.05632 0.54238 0.0
H2517 H 0.69096 0.16402 0.58546 0.0
H2518 H 0.71406 0.17204 0.55266 0.0
H2519 H 0.71108 0.15293 0.58966 0.0
C2520 C 0.4297 0.10743 0.16945 0.0
C2521 C 0.45225 0.11629 0.18498 0.0
C2522 C 0.42666 0.10499 0.132 0.0
C2523 C 0.44659 0.11144 0.10962 0.0
C2524 C 0.46911 0.11922 0.12532 0.0
C2525 C 0.47166 0.12159 0.16263 0.0
C2526 C 0.40234 0.09657 0.11635 0.0
C2527 C 0.49085 0.12612 0.10261 0.0
C2528 C 0.44361 0.09641 0.0103 0.0
C2529 C 0.44991 0.11839 0.9946 0.0
C2530 C 0.44108 0.09332 0.04774 0.0
C2531 C 0.44476 0.11262 0.06985 0.0
C2532 C 0.44954 0.1343 0.05383 0.0
C2533 C 0.45212 0.13692 0.01656 0.0
C2534 C 0.43587 0.0699 0.06371 0.0
C2535 C 0.45337 0.15528 0.07621 0.0
H2536 H 0.41457 0.10321 0.18642 0.0
H2537 H 0.48911 0.1281 0.17426 0.0
H2538 H 0.40205 0.11162 0.10285 0.0
H2539 H 0.39812 0.08268 0.09582 0.0
H2540 H 0.38824 0.08934 0.13715 0.0
H2541 H 0.50663 0.12991 0.11897 0.0
H2542 H 0.48738 0.11175 0.08336 0.0
H2543 H 0.49512 0.14222 0.08679 0.0
H2544 H 0.44184 0.08198 0.99357 0.0
H2545 H 0.45661 0.15387 0.00467 0.0
H2546 H 0.42194 0.06414 0.08461 0.0
H2547 H 0.45213 0.07198 0.07677 0.0
H2548 H 0.43001 0.05572 0.04312 0.0
H2549 H 0.43871 0.14985 0.09577 0.0
H2550 H 0.45453 0.17 0.0596 0.0
H2551 H 0.47011 0.1621 0.09166 0.0
C2552 C 0.87649 0.34812 0.16261 0.0
C2553 C 0.88164 0.33363 0.18432 0.0
C2554 C 0.87923 0.34868 0.12527 0.0
C2555 C 0.88715 0.33425 0.10883 0.0
C2556 C 0.89342 0.32036 0.13063 0.0
C2557 C 0.89069 0.32029 0.16813 0.0
C2558 C 0.87258 0.36398 0.10326 0.0
C2559 C 0.9019 0.30471 0.11425 0.0
C2560 C 0.86294 0.31624 0.01452 0.0
C2561 C 0.88187 0.3328 0.99339 0.0
C2562 C 0.86499 0.3156 0.05186 0.0
C2563 C 0.88646 0.33209 0.06887 0.0
C2564 C 0.90612 0.348 0.04758 0.0
C2565 C 0.90363 0.34809 0.01005 0.0
C2566 C 0.84364 0.2981 0.07328 0.0
C2567 C 0.92933 0.36586 0.06456 0.0
H2568 H 0.8698 0.35876 0.17477 0.0
H2569 H 0.89474 0.30904 0.18458 0.0
H2570 H 0.88713 0.37521 0.08446 0.0
H2571 H 0.8566 0.3525 0.08698 0.0
H2572 H 0.86872 0.3757 0.12018 0.0
H2573 H 0.9088 0.2973 0.13473 0.0
H2574 H 0.88697 0.28973 0.09993 0.0
H2575 H 0.91607 0.31477 0.09427 0.0
H2576 H 0.84614 0.30413 1.00189 0.0
H2577 H 0.91835 0.36097 0.994 0.0
H2578 H 0.83667 0.30779 0.08899 0.0
H2579 H 0.84873 0.28845 0.09256 0.0
H2580 H 0.82914 0.28492 0.05595 0.0
H2581 H 0.92705 0.37972 0.07832 0.0
H2582 H 0.94377 0.37464 0.04448 0.0
H2583 H 0.93482 0.35723 0.08508 0.0
C2584 C 0.67605 0.56993 0.16675 0.0
C2585 C 0.66975 0.5473 0.18003 0.0
C2586 C 0.67614 0.57402 0.12964 0.0
C2587 C 0.66988 0.5551 0.10524 0.0
C2588 C 0.66316 0.5322 0.11854 0.0
C2589 C 0.66315 0.52861 0.15556 0.0
C2590 C 0.68337 0.59867 0.1165 0.0
C2591 C 0.65641 0.51148 0.09359 0.0
C2592 C 0.65152 0.55383 0.00812 0.0
C2593 C 0.67154 0.55628 0.99013 0.0
C2594 C 0.65115 0.55493 0.04578 0.0
C2595 C 0.67146 0.55906 0.06568 0.0
C2596 C 0.69235 0.56357 0.04727 0.0
C2597 C 0.69202 0.5618 0.0098 0.0
C2598 C 0.62844 0.5498 0.06428 0.0
C2599 C 0.71456 0.56852 0.06723 0.0
H2600 H 0.68109 0.5845 0.1853 0.0
H2601 H 0.65819 0.51102 0.16525 0.0
H2602 H 0.69988 0.60568 0.10041 0.0
H2603 H 0.66944 0.59811 0.09874 0.0
H2604 H 0.68652 0.61118 0.13886 0.0
H2605 H 0.65059 0.49458 0.10824 0.0
H2606 H 0.64183 0.50913 0.07555 0.0
H2607 H 0.67181 0.51505 0.07651 0.0
H2608 H 0.63559 0.54939 0.99298 0.0
H2609 H 0.70759 0.56386 0.99589 0.0
H2610 H 0.63212 0.56267 0.08625 0.0
H2611 H 0.62008 0.53183 0.07644 0.0
H2612 H 0.61554 0.55041 0.04543 0.0
H2613 H 0.71865 0.58185 0.08864 0.0
H2614 H 0.73018 0.57509 0.04917 0.0
H2615 H 0.71174 0.55197 0.08025 0.0
C2616 C 0.54936 0.86559 0.98757 0.0
C2617 C 0.5499 0.88369 0.00874 0.0
C2618 C 0.5514 0.86759 0.95019 0.0
C2619 C 0.55383 0.88816 0.93323 0.0
C2620 C 0.55578 0.90714 0.95453 0.0
C2621 C 0.55392 0.90473 0.99212 0.0
C2622 C 0.54955 0.84703 0.92875 0.0
C2623 C 0.55842 0.92937 0.93755 0.0
C2624 C 0.56849 0.89284 0.83351 0.0
C2625 C 0.54569 0.88165 0.81821 0.0
C2626 C 0.57162 0.89621 0.87085 0.0
C2627 C 0.55152 0.88831 0.8934 0.0
C2628 C 0.52862 0.87813 0.87789 0.0
C2629 C 0.526 0.87489 0.84066 0.0
C2630 C 0.59634 0.90719 0.88626 0.0
C2631 C 0.50667 0.8696 0.90077 0.0
H2632 H 0.54661 0.84939 1.00023 0.0
H2633 H 0.55432 0.91879 0.00827 0.0
H2634 H 0.53259 0.83845 0.91361 0.0
H2635 H 0.56419 0.85339 0.90895 0.0
H2636 H 0.55012 0.8334 0.94599 0.0
H2637 H 0.5631 0.94372 0.95751 0.0
H2638 H 0.57225 0.93598 0.9164 0.0
H2639 H 0.54144 0.92529 0.92457 0.0
H2640 H 0.58385 0.89822 0.8165 0.0
H2641 H 0.50831 0.86653 0.82923 0.0
H2642 H 0.59843 0.89338 0.90054 0.0
H2643 H 0.59931 0.92112 0.90609 0.0
H2644 H 0.61023 0.91514 0.86521 0.0
H2645 H 0.50408 0.85427 0.91724 0.0
H2646 H 0.49042 0.86399 0.88449 0.0
H2647 H 0.50881 0.88381 0.91943 0.0
C2648 C 0.09793 0.65649 0.99856 0.0
C2649 C 0.12062 0.66972 0.01381 0.0
C2650 C 0.09468 0.65615 0.96118 0.0
C2651 C 0.11455 0.66947 0.93859 0.0
C2652 C 0.13722 0.68387 0.95409 0.0
C2653 C 0.13997 0.68376 0.99133 0.0
C2654 C 0.07022 0.64059 0.94576 0.0
C2655 C 0.15889 0.69857 0.93119 0.0
C2656 C 0.11907 0.64974 0.84478 0.0
C2657 C 0.11656 0.66606 0.82332 0.0
C2658 C 0.11692 0.64972 0.88216 0.0
C2659 C 0.11245 0.66667 0.8988 0.0
C2660 C 0.1087 0.68245 0.87722 0.0
C2661 C 0.11064 0.68185 0.83967 0.0
C2662 C 0.1207 0.63232 0.90395 0.0
C2663 C 0.10398 0.70084 0.89385 0.0
H2664 H 0.08286 0.6456 0.01564 0.0
H2665 H 0.15754 0.69433 1.00279 0.0
H2666 H 0.06609 0.65045 0.92547 0.0
H2667 H 0.0696 0.62515 0.93204 0.0
H2668 H 0.05624 0.63385 0.96675 0.0
H2669 H 0.17479 0.71042 0.94745 0.0
H2670 H 0.16293 0.68665 0.91516 0.0
H2671 H 0.15548 0.70961 0.91214 0.0
H2672 H 0.1233 0.63723 0.83235 0.0
H2673 H 0.10869 0.69454 0.8233 0.0
H2674 H 0.10617 0.62313 0.92373 0.0
H2675 H 0.13758 0.64202 0.91913 0.0
H2676 H 0.12154 0.61874 0.88695 0.0
H2677 H 0.09007 0.69269 0.91479 0.0
H2678 H 0.09831 0.70955 0.87366 0.0
H2679 H 0.12039 0.71469 0.90703 0.0
C2680 C 0.31723 0.45416 0.99385 0.0
C2681 C 0.33206 0.44994 0.01626 0.0
C2682 C 0.31685 0.45082 0.9567 0.0
C2683 C 0.33177 0.44315 0.94126 0.0
C2684 C 0.34572 0.43744 0.96386 0.0
C2685 C 0.34567 0.44085 1.00114 0.0
C2686 C 0.30149 0.4569 0.93377 0.0
C2687 C 0.36175 0.42907 0.94855 0.0
C2688 C 0.31998 0.42772 0.84202 0.0
C2689 C 0.33544 0.44976 0.82623 0.0
C2690 C 0.31947 0.42473 0.87948 0.0
C2691 C 0.33483 0.44419 0.90152 0.0
C2692 C 0.35155 0.46591 0.88541 0.0
C2693 C 0.35162 0.46842 0.84813 0.0
C2694 C 0.30154 0.40121 0.89553 0.0
C2695 C 0.36844 0.48709 0.90771 0.0
H2696 H 0.30634 0.46081 0.00525 0.0
H2697 H 0.35713 0.43744 0.01818 0.0
H2698 H 0.31295 0.47302 0.91772 0.0
H2699 H 0.29086 0.44227 0.91474 0.0
H2700 H 0.28921 0.46034 0.95002 0.0
H2701 H 0.36845 0.42181 0.96955 0.0
H2702 H 0.35229 0.41524 0.92785 0.0
H2703 H 0.37722 0.44419 0.93538 0.0
H2704 H 0.30744 0.41319 0.82535 0.0
H2705 H 0.36392 0.48541 0.83618 0.0
H2706 H 0.28696 0.40292 0.90798 0.0
H2707 H 0.30978 0.39589 0.91691 0.0
H2708 H 0.29372 0.38691 0.87507 0.0
H2709 H 0.35826 0.49364 0.92312 0.0
H2710 H 0.38181 0.50192 0.89105 0.0
H2711 H 0.37791 0.48197 0.92728 0.0
C2712 C 0.13578 0.44898 0.49278 0.0
C2713 C 0.11731 0.44811 0.51343 0.0
C2714 C 0.13421 0.44709 0.45534 0.0
C2715 C 0.11374 0.44449 0.4378 0.0
C2716 C 0.09437 0.44205 0.45859 0.0
C2717 C 0.09633 0.44377 0.49624 0.0
C2718 C 0.15518 0.44944 0.43446 0.0
C2719 C 0.07221 0.43921 0.44102 0.0
C2720 C 0.12727 0.47332 0.34583 0.0
C2721 C 0.12064 0.4539 0.32284 0.0
C2722 C 0.12406 0.47029 0.38303 0.0
C2723 C 0.11406 0.44724 0.39798 0.0
C2724 C 0.1065 0.42742 0.37493 0.0
C2725 C 0.1098 0.43097 0.33764 0.0
C2726 C 0.13221 0.49194 0.40646 0.0
C2727 C 0.09581 0.40258 0.38974 0.0
H2728 H 0.15196 0.45206 0.50589 0.0
H2729 H 0.08202 0.44315 0.51197 0.0
H2730 H 0.14924 0.43513 0.41415 0.0
H2731 H 0.16389 0.46664 0.41996 0.0
H2732 H 0.16859 0.44872 0.45204 0.0
H2733 H 0.05755 0.43409 0.46056 0.0
H2734 H 0.0762 0.45626 0.42837 0.0
H2735 H 0.06608 0.42563 0.41954 0.0
H2736 H 0.13538 0.4911 0.33481 0.0
H2737 H 0.10455 0.41581 0.32021 0.0
H2738 H 0.14737 0.49443 0.42326 0.0
H2739 H 0.11774 0.48949 0.42481 0.0
H2740 H 0.13792 0.50837 0.39059 0.0
H2741 H 0.10962 0.40072 0.40446 0.0
H2742 H 0.08845 0.38889 0.36833 0.0
H2743 H 0.08147 0.39906 0.40909 0.0
C2744 C 0.5569 0.69169 0.34521 0.0
C2745 C 0.55497 0.67339 0.32321 0.0
C2746 C 0.5577 0.69014 0.38265 0.0
C2747 C 0.5561 0.66957 0.39844 0.0
C2748 C 0.55545 0.6516 0.3761 0.0
C2749 C 0.55485 0.65372 0.33865 0.0
C2750 C 0.5586 0.70981 0.4053 0.0
C2751 C 0.55359 0.62933 0.39171 0.0
C2752 C 0.56621 0.67045 0.49943 0.0
C2753 C 0.54302 0.66134 0.51243 0.0
C2754 C 0.57085 0.67293 0.46231 0.0
C2755 C 0.55177 0.66553 0.43779 0.0
C2756 C 0.52825 0.65531 0.45097 0.0
C2757 C 0.52423 0.65367 0.48802 0.0
C2758 C 0.59619 0.6843 0.44939 0.0
C2759 C 0.50728 0.64663 0.42592 0.0
H2760 H 0.55669 0.70675 0.33312 0.0
H2761 H 0.55298 0.63942 0.32151 0.0
H2762 H 0.5411 0.70352 0.41826 0.0
H2763 H 0.57199 0.71485 0.4269 0.0
H2764 H 0.56296 0.72585 0.38921 0.0
H2765 H 0.55668 0.61877 0.37124 0.0
H2766 H 0.56653 0.63373 0.4138 0.0
H2767 H 0.53557 0.61812 0.40313 0.0
H2768 H 0.58079 0.67653 0.51827 0.0
H2769 H 0.50624 0.64637 0.49799 0.0
H2770 H 0.60125 0.70156 0.4365 0.0
H2771 H 0.59801 0.67297 0.42888 0.0
H2772 H 0.60883 0.68745 0.47156 0.0
H2773 H 0.50832 0.66187 0.41096 0.0
H2774 H 0.49004 0.63752 0.44037 0.0
H2775 H 0.5076 0.63415 0.40597 0.0
C2776 C 0.35345 0.88344 0.35136 0.0
C2777 C 0.33593 0.88403 0.33012 0.0
C2778 C 0.35327 0.88522 0.38877 0.0
C2779 C 0.33496 0.88739 0.40569 0.0
C2780 C 0.31795 0.88933 0.38434 0.0
C2781 C 0.31871 0.88776 0.34674 0.0
C2782 C 0.37199 0.88343 0.41029 0.0
C2783 C 0.29814 0.89165 0.40127 0.0
C2784 C 0.31995 0.85964 0.49838 0.0
C2785 C 0.33234 0.87942 0.52087 0.0
C2786 C 0.31976 0.86217 0.46107 0.0
C2787 C 0.33241 0.88506 0.44551 0.0
C2788 C 0.34424 0.90522 0.46804 0.0
C2789 C 0.34401 0.90218 0.50544 0.0
C2790 C 0.30673 0.84017 0.43818 0.0
C2791 C 0.35797 0.92992 0.45256 0.0
H2792 H 0.36701 0.88087 0.33871 0.0
H2793 H 0.30509 0.88816 0.33054 0.0
H2794 H 0.38009 0.89799 0.43025 0.0
H2795 H 0.36365 0.86641 0.42525 0.0
H2796 H 0.38631 0.8842 0.39311 0.0
H2797 H 0.28829 0.89607 0.38128 0.0
H2798 H 0.28544 0.87463 0.41437 0.0
H2799 H 0.3052 0.90554 0.42233 0.0
H2800 H 0.31061 0.84198 0.5099 0.0
H2801 H 0.3536 0.91761 0.52247 0.0
H2802 H 0.31968 0.83781 0.4219 0.0
H2803 H 0.2946 0.84208 0.41935 0.0
H2804 H 0.2962 0.82388 0.45444 0.0
H2805 H 0.37378 0.93196 0.43808 0.0
H2806 H 0.36402 0.94385 0.47357 0.0
H2807 H 0.34694 0.93289 0.43288 0.0
loop_
_geom_bond_atom_site_label_1
_geom_bond_atom_site_label_2
_geom_bond_distance
_geom_bond_site_symmetry_2
_ccdc_geom_bond_type
Co0 O1 2.216 1_554 S
Co0 O2 2.091 . S
Co0 O4 2.004 . S
Co0 O10 2.021 . S
Co0 O12 2.137 . S
Co0 O13 2.244 . S
O1 Co0 2.216 1_556 S
O1 C8 1.247 . S
O2 Co0 2.091 . S
O2 C8 1.261 1_554 S
C3 O12 1.247 . S
C3 O13 1.272 . S
O4 Co0 2.004 . S
O4 C9 1.259 . S
Co5 O6 2.061 . S
Co5 O11 2.052 . S
Co5 O13 2.135 . S
O6 Co5 2.061 . S
O6 C9 1.235 . S
C7 O10 1.238 . S
C7 O11 1.241 . S
C8 O1 1.247 . S
C8 O2 1.261 1_556 S
C9 O4 1.259 . S
C9 O6 1.235 . S
O10 Co0 2.021 . S
O10 C7 1.238 . S
O11 Co5 2.052 . S
O11 C7 1.241 . S
O12 Co0 2.137 . S
O12 C3 1.247 . S
O13 Co0 2.244 . S
O13 C3 1.272 . S
O13 Co5 2.135 . S
Co14 O15 2.216 1_554 S
Co14 O16 2.091 . S
Co14 O18 2.004 . S
Co14 O24 2.021 . S
Co14 O26 2.137 1_545 S
Co14 O27 2.244 1_545 S
O15 Co14 2.216 1_556 S
O15 C22 1.247 . S
O16 Co14 2.091 . S
O16 C22 1.261 1_554 S
C17 O26 1.247 . S
C17 O27 1.272 . S
O18 Co14 2.004 . S
O18 C23 1.259 . S
Co19 O20 2.061 . S
Co19 O25 2.052 . S
Co19 O27 2.135 1_545 S
O20 Co19 2.061 . S
O20 C23 1.235 . S
C21 O24 1.238 . S
C21 O25 1.241 . S
C22 O15 1.247 . S
C22 O16 1.261 1_556 S
C23 O18 1.259 . S
C23 O20 1.235 . S
O24 Co14 2.021 . S
O24 C21 1.238 . S
O25 Co19 2.052 . S
O25 C21 1.241 . S
O26 Co14 2.137 1_565 S
O26 C17 1.247 . S
O27 Co14 2.244 1_565 S
O27 C17 1.272 . S
O27 Co19 2.135 1_565 S
Co28 O29 2.216 1_554 S
Co28 O30 2.091 . S
Co28 O32 2.004 . S
Co28 O38 2.021 . S
Co28 O40 2.137 1_655 S
Co28 O41 2.244 1_655 S
O29 Co28 2.216 1_556 S
O29 C36 1.247 . S
O30 Co28 2.091 . S
O30 C36 1.261 1_554 S
C31 O40 1.247 . S
C31 O41 1.272 . S
O32 Co28 2.004 . S
O32 C37 1.259 . S
Co33 O34 2.061 . S
Co33 O39 2.052 . S
Co33 O41 2.135 1_655 S
O34 Co33 2.061 . S
O34 C37 1.235 . S
C35 O38 1.238 . S
C35 O39 1.241 . S
C36 O29 1.247 . S
C36 O30 1.261 1_556 S
C37 O32 1.259 . S
C37 O34 1.235 . S
O38 Co28 2.021 . S
O38 C35 1.238 . S
O39 Co33 2.052 . S
O39 C35 1.241 . S
O40 Co28 2.137 1_455 S
O40 C31 1.247 . S
O41 Co28 2.244 1_455 S
O41 C31 1.272 . S
O41 Co33 2.135 1_455 S
Co42 O43 2.216 . S
Co42 O44 2.091 . S
Co42 O46 2.004 . S
Co42 O52 2.021 . S
Co42 O54 2.137 . S
Co42 O55 2.244 . S
O43 Co42 2.216 . S
O43 C50 1.247 . S
O44 Co42 2.091 . S
O44 C50 1.261 . S
C45 O54 1.247 . S
C45 O55 1.272 . S
O46 Co42 2.004 . S
O46 C51 1.259 . S
Co47 O48 2.061 . S
Co47 O53 2.052 . S
Co47 O55 2.135 . S
O48 Co47 2.061 . S
O48 C51 1.235 . S
C49 O52 1.238 . S
C49 O53 1.241 . S
C50 O43 1.247 . S
C50 O44 1.261 . S
C51 O46 1.259 . S
C51 O48 1.235 . S
O52 Co42 2.021 . S
O52 C49 1.238 . S
O53 Co47 2.052 . S
O53 C49 1.241 . S
O54 Co42 2.137 . S
O54 C45 1.247 . S
O55 Co42 2.244 . S
O55 C45 1.272 . S
O55 Co47 2.135 . S
Co56 O57 2.216 . S
Co56 O58 2.091 . S
Co56 O60 2.004 . S
Co56 O66 2.021 . S
Co56 O68 2.137 1_565 S
Co56 O69 2.244 1_565 S
O57 Co56 2.216 . S
O57 C64 1.247 . S
O58 Co56 2.091 . S
O58 C64 1.261 . S
C59 O68 1.247 . S
C59 O69 1.272 . S
O60 Co56 2.004 . S
O60 C65 1.259 . S
Co61 O62 2.061 . S
Co61 O67 2.052 . S
Co61 O69 2.135 1_565 S
O62 Co61 2.061 . S
O62 C65 1.235 . S
C63 O66 1.238 . S
C63 O67 1.241 . S
C64 O57 1.247 . S
C64 O58 1.261 . S
C65 O60 1.259 . S
C65 O62 1.235 . S
O66 Co56 2.021 . S
O66 C63 1.238 . S
O67 Co61 2.052 . S
O67 C63 1.241 . S
O68 Co56 2.137 1_545 S
O68 C59 1.247 . S
O69 Co56 2.244 1_545 S
O69 C59 1.272 . S
O69 Co61 2.135 1_545 S
Co70 O71 2.216 . S
Co70 O72 2.091 . S
Co70 O74 2.004 . S
Co70 O80 2.021 . S
Co70 O82 2.137 1_455 S
Co70 O83 2.244 1_455 S
O71 Co70 2.216 . S
O71 C78 1.247 . S
O72 Co70 2.091 . S
O72 C78 1.261 . S
C73 O82 1.247 . S
C73 O83 1.272 . S
O74 Co70 2.004 . S
O74 C79 1.259 . S
Co75 O76 2.061 . S
Co75 O81 2.052 . S
Co75 O83 2.135 1_455 S
O76 Co75 2.061 . S
O76 C79 1.235 . S
C77 O80 1.238 . S
C77 O81 1.241 . S
C78 O71 1.247 . S
C78 O72 1.261 . S
C79 O74 1.259 . S
C79 O76 1.235 . S
O80 Co70 2.021 . S
O80 C77 1.238 . S
O81 Co75 2.052 . S
O81 C77 1.241 . S
O82 Co70 2.137 1_655 S
O82 C73 1.247 . S
O83 Co70 2.244 1_655 S
O83 C73 1.272 . S
O83 Co75 2.135 1_655 S
Co84 O85 2.216 1_556 S
Co84 O86 2.091 . S
Co84 O88 2.004 . S
Co84 O94 2.021 . S
Co84 O96 2.137 . S
Co84 O97 2.244 . S
O85 Co84 2.216 1_554 S
O85 C92 1.247 . S
O86 Co84 2.091 . S
O86 C92 1.261 1_556 S
C87 O96 1.247 . S
C87 O97 1.272 . S
O88 Co84 2.004 . S
O88 C93 1.259 . S
Co89 O90 2.061 . S
Co89 O95 2.052 . S
Co89 O97 2.135 . S
O90 Co89 2.061 . S
O90 C93 1.235 . S
C91 O94 1.238 . S
C91 O95 1.241 . S
C92 O85 1.247 . S
C92 O86 1.261 1_554 S
C93 O88 1.259 . S
C93 O90 1.235 . S
O94 Co84 2.021 . S
O94 C91 1.238 . S
O95 Co89 2.052 . S
O95 C91 1.241 . S
O96 Co84 2.137 . S
O96 C87 1.247 . S
O97 Co84 2.244 . S
O97 C87 1.272 . S
O97 Co89 2.135 . S
Co98 O99 2.216 1_556 S
Co98 O100 2.091 . S
Co98 O102 2.004 . S
Co98 O108 2.021 . S
Co98 O110 2.137 1_565 S
Co98 O111 2.244 1_565 S
O99 Co98 2.216 1_554 S
O99 C106 1.247 . S
O100 Co98 2.091 . S
O100 C106 1.261 1_556 S
C101 O110 1.247 . S
C101 O111 1.272 . S
O102 Co98 2.004 . S
O102 C107 1.259 . S
Co103 O104 2.061 . S
Co103 O109 2.052 . S
Co103 O111 2.135 1_565 S
O104 Co103 2.061 . S
O104 C107 1.235 . S
C105 O108 1.238 . S
C105 O109 1.241 . S
C106 O99 1.247 . S
C106 O100 1.261 1_554 S
C107 O102 1.259 . S
C107 O104 1.235 . S
O108 Co98 2.021 . S
O108 C105 1.238 . S
O109 Co103 2.052 . S
O109 C105 1.241 . S
O110 Co98 2.137 1_545 S
O110 C101 1.247 . S
O111 Co98 2.244 1_545 S
O111 C101 1.272 . S
O111 Co103 2.135 1_545 S
Co112 O113 2.216 1_556 S
Co112 O114 2.091 . S
Co112 O116 2.004 . S
Co112 O122 2.021 . S
Co112 O124 2.137 1_455 S
Co112 O125 2.244 1_455 S
O113 Co112 2.216 1_554 S
O113 C120 1.247 . S
O114 Co112 2.091 . S
O114 C120 1.261 1_556 S
C115 O124 1.247 . S
C115 O125 1.272 . S
O116 Co112 2.004 . S
O116 C121 1.259 . S
Co117 O118 2.061 . S
Co117 O123 2.052 . S
Co117 O125 2.135 1_455 S
O118 Co117 2.061 . S
O118 C121 1.235 . S
C119 O122 1.238 . S
C119 O123 1.241 . S
C120 O113 1.247 . S
C120 O114 1.261 1_554 S
C121 O116 1.259 . S
C121 O118 1.235 . S
O122 Co112 2.021 . S
O122 C119 1.238 . S
O123 Co117 2.052 . S
O123 C119 1.241 . S
O124 Co112 2.137 1_655 S
O124 C115 1.247 . S
O125 Co112 2.244 1_655 S
O125 C115 1.272 . S
O125 Co117 2.135 1_655 S
Co126 O127 2.216 . S
Co126 O128 2.091 . S
Co126 O130 2.004 . S
Co126 O136 2.021 . S
Co126 O138 2.137 . S
Co126 O139 2.244 . S
O127 Co126 2.216 . S
O127 C134 1.247 . S
O128 Co126 2.091 . S
O128 C134 1.261 . S
C129 O138 1.247 . S
C129 O139 1.272 . S
O130 Co126 2.004 . S
O130 C135 1.259 . S
Co131 O132 2.061 . S
Co131 O137 2.052 . S
Co131 O139 2.135 . S
O132 Co131 2.061 . S
O132 C135 1.235 . S
C133 O136 1.238 . S
C133 O137 1.241 . S
C134 O127 1.247 . S
C134 O128 1.261 . S
C135 O130 1.259 . S
C135 O132 1.235 . S
O136 Co126 2.021 . S
O136 C133 1.238 . S
O137 Co131 2.052 . S
O137 C133 1.241 . S
O138 Co126 2.137 . S
O138 C129 1.247 . S
O139 Co126 2.244 . S
O139 C129 1.272 . S
O139 Co131 2.135 . S
Co140 O141 2.216 . S
Co140 O142 2.091 . S
Co140 O144 2.004 . S
Co140 O150 2.021 . S
Co140 O152 2.137 1_545 S
Co140 O153 2.244 1_545 S
O141 Co140 2.216 . S
O141 C148 1.247 . S
O142 Co140 2.091 . S
O142 C148 1.261 . S
C143 O152 1.247 . S
C143 O153 1.272 . S
O144 Co140 2.004 . S
O144 C149 1.259 . S
Co145 O146 2.061 . S
Co145 O151 2.052 . S
Co145 O153 2.135 1_545 S
O146 Co145 2.061 . S
O146 C149 1.235 . S
C147 O150 1.238 . S
C147 O151 1.241 . S
C148 O141 1.247 . S
C148 O142 1.261 . S
C149 O144 1.259 . S
C149 O146 1.235 . S
O150 Co140 2.021 . S
O150 C147 1.238 . S
O151 Co145 2.052 . S
O151 C147 1.241 . S
O152 Co140 2.137 1_565 S
O152 C143 1.247 . S
O153 Co140 2.244 1_565 S
O153 C143 1.272 . S
O153 Co145 2.135 1_565 S
Co154 O155 2.216 . S
Co154 O156 2.091 . S
Co154 O158 2.004 . S
Co154 O164 2.021 . S
Co154 O166 2.137 1_655 S
Co154 O167 2.244 1_655 S
O155 Co154 2.216 . S
O155 C162 1.247 . S
O156 Co154 2.091 . S
O156 C162 1.261 . S
C157 O166 1.247 . S
C157 O167 1.272 . S
O158 Co154 2.004 . S
O158 C163 1.259 . S
Co159 O160 2.061 . S
Co159 O165 2.052 . S
Co159 O167 2.135 1_655 S
O160 Co159 2.061 . S
O160 C163 1.235 . S
C161 O164 1.238 . S
C161 O165 1.241 . S
C162 O155 1.247 . S
C162 O156 1.261 . S
C163 O158 1.259 . S
C163 O160 1.235 . S
O164 Co154 2.021 . S
O164 C161 1.238 . S
O165 Co159 2.052 . S
O165 C161 1.241 . S
O166 Co154 2.137 1_455 S
O166 C157 1.247 . S
O167 Co154 2.244 1_455 S
O167 C157 1.272 . S
O167 Co159 2.135 1_455 S
Co168 O169 2.216 . S
Co168 O170 2.091 . S
Co168 O172 2.004 . S
Co168 O178 2.021 . S
Co168 O180 2.137 . S
Co168 O181 2.244 . S
O169 Co168 2.216 . S
O169 C176 1.247 . S
O170 Co168 2.091 . S
O170 C176 1.261 . S
C171 O180 1.247 . S
C171 O181 1.272 . S
O172 Co168 2.004 . S
O172 C177 1.259 . S
Co173 O174 2.061 . S
Co173 O179 2.052 . S
Co173 O181 2.135 . S
O174 Co173 2.061 . S
O174 C177 1.235 . S
C175 O178 1.238 . S
C175 O179 1.241 . S
C176 O169 1.247 . S
C176 O170 1.261 . S
C177 O172 1.259 . S
C177 O174 1.235 . S
O178 Co168 2.021 . S
O178 C175 1.238 . S
O179 Co173 2.052 . S
O179 C175 1.241 . S
O180 Co168 2.137 . S
O180 C171 1.247 . S
O181 Co168 2.244 . S
O181 C171 1.272 . S
O181 Co173 2.135 . S
Co182 O183 2.216 . S
Co182 O184 2.091 . S
Co182 O186 2.004 . S
Co182 O192 2.021 . S
Co182 O194 2.137 . S
Co182 O195 2.244 . S
O183 Co182 2.216 . S
O183 C190 1.247 . S
O184 Co182 2.091 . S
O184 C190 1.261 . S
C185 O194 1.247 . S
C185 O195 1.272 . S
O186 Co182 2.004 . S
O186 C191 1.259 . S
Co187 O188 2.061 . S
Co187 O193 2.052 . S
Co187 O195 2.135 . S
O188 Co187 2.061 . S
O188 C191 1.235 . S
C189 O192 1.238 . S
C189 O193 1.241 . S
C190 O183 1.247 . S
C190 O184 1.261 . S
C191 O186 1.259 . S
C191 O188 1.235 . S
O192 Co182 2.021 . S
O192 C189 1.238 . S
O193 Co187 2.052 . S
O193 C189 1.241 . S
O194 Co182 2.137 . S
O194 C185 1.247 . S
O195 Co182 2.244 . S
O195 C185 1.272 . S
O195 Co187 2.135 . S
Co196 O197 2.216 . S
Co196 O198 2.091 . S
Co196 O200 2.004 . S
Co196 O206 2.021 . S
Co196 O208 2.137 . S
Co196 O209 2.244 . S
O197 Co196 2.216 . S
O197 C204 1.247 . S
O198 Co196 2.091 . S
O198 C204 1.261 . S
C199 O208 1.247 . S
C199 O209 1.272 . S
O200 Co196 2.004 . S
O200 C205 1.259 . S
Co201 O202 2.061 . S
Co201 O207 2.052 . S
Co201 O209 2.135 . S
O202 Co201 2.061 . S
O202 C205 1.235 . S
C203 O206 1.238 . S
C203 O207 1.241 . S
C204 O197 1.247 . S
C204 O198 1.261 . S
C205 O200 1.259 . S
C205 O202 1.235 . S
O206 Co196 2.021 . S
O206 C203 1.238 . S
O207 Co201 2.052 . S
O207 C203 1.241 . S
O208 Co196 2.137 . S
O208 C199 1.247 . S
O209 Co196 2.244 . S
O209 C199 1.272 . S
O209 Co201 2.135 . S
Co210 O211 2.216 . S
Co210 O212 2.091 . S
Co210 O214 2.004 . S
Co210 O220 2.021 . S
Co210 O222 2.137 . S
Co210 O223 2.244 . S
O211 Co210 2.216 . S
O211 C218 1.247 . S
O212 Co210 2.091 . S
O212 C218 1.261 . S
C213 O222 1.247 . S
C213 O223 1.272 . S
O214 Co210 2.004 . S
O214 C219 1.259 . S
Co215 O216 2.061 . S
Co215 O221 2.052 . S
Co215 O223 2.135 . S
O216 Co215 2.061 . S
O216 C219 1.235 . S
C217 O220 1.238 . S
C217 O221 1.241 . S
C218 O211 1.247 . S
C218 O212 1.261 . S
C219 O214 1.259 . S
C219 O216 1.235 . S
O220 Co210 2.021 . S
O220 C217 1.238 . S
O221 Co215 2.052 . S
O221 C217 1.241 . S
O222 Co210 2.137 . S
O222 C213 1.247 . S
O223 Co210 2.244 . S
O223 C213 1.272 . S
O223 Co215 2.135 . S
Co224 O225 2.216 . S
Co224 O226 2.091 . S
Co224 O228 2.004 . S
Co224 O234 2.021 . S
Co224 O236 2.137 . S
Co224 O237 2.244 . S
O225 Co224 2.216 . S
O225 C232 1.247 . S
O226 Co224 2.091 . S
O226 C232 1.261 . S
C227 O236 1.247 . S
C227 O237 1.272 . S
O228 Co224 2.004 . S
O228 C233 1.259 . S
Co229 O230 2.061 . S
Co229 O235 2.052 . S
Co229 O237 2.135 . S
O230 Co229 2.061 . S
O230 C233 1.235 . S
C231 O234 1.238 . S
C231 O235 1.241 . S
C232 O225 1.247 . S
C232 O226 1.261 . S
C233 O228 1.259 . S
C233 O230 1.235 . S
O234 Co224 2.021 . S
O234 C231 1.238 . S
O235 Co229 2.052 . S
O235 C231 1.241 . S
O236 Co224 2.137 . S
O236 C227 1.247 . S
O237 Co224 2.244 . S
O237 C227 1.272 . S
O237 Co229 2.135 . S
Co238 O239 2.216 . S
Co238 O240 2.091 . S
Co238 O242 2.004 . S
Co238 O248 2.021 . S
Co238 O250 2.137 . S
Co238 O251 2.244 . S
O239 Co238 2.216 . S
O239 C246 1.247 . S
O240 Co238 2.091 . S
O240 C246 1.261 . S
C241 O250 1.247 . S
C241 O251 1.272 . S
O242 Co238 2.004 . S
O242 C247 1.259 . S
Co243 O244 2.061 . S
Co243 O249 2.052 . S
Co243 O251 2.135 . S
O244 Co243 2.061 . S
O244 C247 1.235 . S
C245 O248 1.238 . S
C245 O249 1.241 . S
C246 O239 1.247 . S
C246 O240 1.261 . S
C247 O242 1.259 . S
C247 O244 1.235 . S
O248 Co238 2.021 . S
O248 C245 1.238 . S
O249 Co243 2.052 . S
O249 C245 1.241 . S
O250 Co238 2.137 . S
O250 C241 1.247 . S
O251 Co238 2.244 . S
O251 C241 1.272 . S
O251 Co243 2.135 . S
Co252 O253 2.216 . S
Co252 O254 2.091 . S
Co252 O256 2.004 . S
Co252 O262 2.021 . S
Co252 O264 2.137 . S
Co252 O265 2.244 . S
O253 Co252 2.216 . S
O253 C260 1.247 . S
O254 Co252 2.091 . S
O254 C260 1.261 . S
C255 O264 1.247 . S
C255 O265 1.272 . S
O256 Co252 2.004 . S
O256 C261 1.259 . S
Co257 O258 2.061 . S
Co257 O263 2.052 . S
Co257 O265 2.135 . S
O258 Co257 2.061 . S
O258 C261 1.235 . S
C259 O262 1.238 . S
C259 O263 1.241 . S
C260 O253 1.247 . S
C260 O254 1.261 . S
C261 O256 1.259 . S
C261 O258 1.235 . S
O262 Co252 2.021 . S
O262 C259 1.238 . S
O263 Co257 2.052 . S
O263 C259 1.241 . S
O264 Co252 2.137 . S
O264 C255 1.247 . S
O265 Co252 2.244 . S
O265 C255 1.272 . S
O265 Co257 2.135 . S
Co266 O267 2.216 . S
Co266 O268 2.091 . S
Co266 O270 2.004 . S
Co266 O276 2.021 . S
Co266 O278 2.137 . S
Co266 O279 2.244 . S
O267 Co266 2.216 . S
O267 C274 1.247 . S
O268 Co266 2.091 . S
O268 C274 1.261 . S
C269 O278 1.247 . S
C269 O279 1.272 . S
O270 Co266 2.004 . S
O270 C275 1.259 . S
Co271 O272 2.061 . S
Co271 O277 2.052 . S
Co271 O279 2.135 . S
O272 Co271 2.061 . S
O272 C275 1.235 . S
C273 O276 1.238 . S
C273 O277 1.241 . S
C274 O267 1.247 . S
C274 O268 1.261 . S
C275 O270 1.259 . S
C275 O272 1.235 . S
O276 Co266 2.021 . S
O276 C273 1.238 . S
O277 Co271 2.052 . S
O277 C273 1.241 . S
O278 Co266 2.137 . S
O278 C269 1.247 . S
O279 Co266 2.244 . S
O279 C269 1.272 . S
O279 Co271 2.135 . S
Co280 O281 2.216 . S
Co280 O282 2.091 . S
Co280 O284 2.004 . S
Co280 O290 2.021 . S
Co280 O292 2.137 . S
Co280 O293 2.244 . S
O281 Co280 2.216 . S
O281 C288 1.247 . S
O282 Co280 2.091 . S
O282 C288 1.261 . S
C283 O292 1.247 . S
C283 O293 1.272 . S
O284 Co280 2.004 . S
O284 C289 1.259 . S
Co285 O286 2.061 . S
Co285 O291 2.052 . S
Co285 O293 2.135 . S
O286 Co285 2.061 . S
O286 C289 1.235 . S
C287 O290 1.238 . S
C287 O291 1.241 . S
C288 O281 1.247 . S
C288 O282 1.261 . S
C289 O284 1.259 . S
C289 O286 1.235 . S
O290 Co280 2.021 . S
O290 C287 1.238 . S
O291 Co285 2.052 . S
O291 C287 1.241 . S
O292 Co280 2.137 . S
O292 C283 1.247 . S
O293 Co280 2.244 . S
O293 C283 1.272 . S
O293 Co285 2.135 . S
Co294 O295 2.216 . S
Co294 O296 2.091 . S
Co294 O298 2.004 . S
Co294 O304 2.021 . S
Co294 O306 2.137 . S
Co294 O307 2.244 . S
O295 Co294 2.216 . S
O295 C302 1.247 . S
O296 Co294 2.091 . S
O296 C302 1.261 . S
C297 O306 1.247 . S
C297 O307 1.272 . S
O298 Co294 2.004 . S
O298 C303 1.259 . S
Co299 O300 2.061 . S
Co299 O305 2.052 . S
Co299 O307 2.135 . S
O300 Co299 2.061 . S
O300 C303 1.235 . S
C301 O304 1.238 . S
C301 O305 1.241 . S
C302 O295 1.247 . S
C302 O296 1.261 . S
C303 O298 1.259 . S
C303 O300 1.235 . S
O304 Co294 2.021 . S
O304 C301 1.238 . S
O305 Co299 2.052 . S
O305 C301 1.241 . S
O306 Co294 2.137 . S
O306 C297 1.247 . S
O307 Co294 2.244 . S
O307 C297 1.272 . S
O307 Co299 2.135 . S
Co308 O309 2.216 . S
Co308 O310 2.091 . S
Co308 O312 2.004 . S
Co308 O318 2.021 . S
Co308 O320 2.137 . S
Co308 O321 2.244 . S
O309 Co308 2.216 . S
O309 C316 1.247 . S
O310 Co308 2.091 . S
O310 C316 1.261 . S
C311 O320 1.247 . S
C311 O321 1.272 . S
O312 Co308 2.004 . S
O312 C317 1.259 . S
Co313 O314 2.061 . S
Co313 O319 2.052 . S
Co313 O321 2.135 . S
O314 Co313 2.061 . S
O314 C317 1.235 . S
C315 O318 1.238 . S
C315 O319 1.241 . S
C316 O309 1.247 . S
C316 O310 1.261 . S
C317 O312 1.259 . S
C317 O314 1.235 . S
O318 Co308 2.021 . S
O318 C315 1.238 . S
O319 Co313 2.052 . S
O319 C315 1.241 . S
O320 Co308 2.137 . S
O320 C311 1.247 . S
O321 Co308 2.244 . S
O321 C311 1.272 . S
O321 Co313 2.135 . S
Co322 O323 2.216 . S
Co322 O324 2.091 . S
Co322 O326 2.004 . S
Co322 O332 2.021 . S
Co322 O334 2.137 . S
Co322 O335 2.244 . S
O323 Co322 2.216 . S
O323 C330 1.247 . S
O324 Co322 2.091 . S
O324 C330 1.261 . S
C325 O334 1.247 . S
C325 O335 1.272 . S
O326 Co322 2.004 . S
O326 C331 1.259 . S
Co327 O328 2.061 . S
Co327 O333 2.052 . S
Co327 O335 2.135 . S
O328 Co327 2.061 . S
O328 C331 1.235 . S
C329 O332 1.238 . S
C329 O333 1.241 . S
C330 O323 1.247 . S
C330 O324 1.261 . S
C331 O326 1.259 . S
C331 O328 1.235 . S
O332 Co322 2.021 . S
O332 C329 1.238 . S
O333 Co327 2.052 . S
O333 C329 1.241 . S
O334 Co322 2.137 . S
O334 C325 1.247 . S
O335 Co322 2.244 . S
O335 C325 1.272 . S
O335 Co327 2.135 . S
Co336 O337 2.216 . S
Co336 O338 2.091 . S
Co336 O340 2.004 . S
Co336 O346 2.021 . S
Co336 O348 2.137 . S
Co336 O349 2.244 . S
O337 Co336 2.216 . S
O337 C344 1.247 . S
O338 Co336 2.091 . S
O338 C344 1.261 . S
C339 O348 1.247 . S
C339 O349 1.272 . S
O340 Co336 2.004 . S
O340 C345 1.259 . S
Co341 O342 2.061 . S
Co341 O347 2.052 . S
Co341 O349 2.135 . S
O342 Co341 2.061 . S
O342 C345 1.235 . S
C343 O346 1.238 . S
C343 O347 1.241 . S
C344 O337 1.247 . S
C344 O338 1.261 . S
C345 O340 1.259 . S
C345 O342 1.235 . S
O346 Co336 2.021 . S
O346 C343 1.238 . S
O347 Co341 2.052 . S
O347 C343 1.241 . S
O348 Co336 2.137 . S
O348 C339 1.247 . S
O349 Co336 2.244 . S
O349 C339 1.272 . S
O349 Co341 2.135 . S
Co350 O351 2.216 . S
Co350 O352 2.091 . S
Co350 O354 2.004 . S
Co350 O360 2.021 . S
Co350 O362 2.137 . S
Co350 O363 2.244 . S
O351 Co350 2.216 . S
O351 C358 1.247 . S
O352 Co350 2.091 . S
O352 C358 1.261 . S
C353 O362 1.247 . S
C353 O363 1.272 . S
O354 Co350 2.004 . S
O354 C359 1.259 . S
Co355 O356 2.061 . S
Co355 O361 2.052 . S
Co355 O363 2.135 . S
O356 Co355 2.061 . S
O356 C359 1.235 . S
C357 O360 1.238 . S
C357 O361 1.241 . S
C358 O351 1.247 . S
C358 O352 1.261 . S
C359 O354 1.259 . S
C359 O356 1.235 . S
O360 Co350 2.021 . S
O360 C357 1.238 . S
O361 Co355 2.052 . S
O361 C357 1.241 . S
O362 Co350 2.137 . S
O362 C353 1.247 . S
O363 Co350 2.244 . S
O363 C353 1.272 . S
O363 Co355 2.135 . S
Co364 O365 2.216 . S
Co364 O366 2.091 . S
Co364 O368 2.004 . S
Co364 O374 2.021 . S
Co364 O376 2.137 . S
Co364 O377 2.244 . S
O365 Co364 2.216 . S
O365 C372 1.247 . S
O366 Co364 2.091 . S
O366 C372 1.261 . S
C367 O376 1.247 . S
C367 O377 1.272 . S
O368 Co364 2.004 . S
O368 C373 1.259 . S
Co369 O370 2.061 . S
Co369 O375 2.052 . S
Co369 O377 2.135 . S
O370 Co369 2.061 . S
O370 C373 1.235 . S
C371 O374 1.238 . S
C371 O375 1.241 . S
C372 O365 1.247 . S
C372 O366 1.261 . S
C373 O368 1.259 . S
C373 O370 1.235 . S
O374 Co364 2.021 . S
O374 C371 1.238 . S
O375 Co369 2.052 . S
O375 C371 1.241 . S
O376 Co364 2.137 . S
O376 C367 1.247 . S
O377 Co364 2.244 . S
O377 C367 1.272 . S
O377 Co369 2.135 . S
Co378 O379 2.216 . S
Co378 O380 2.091 . S
Co378 O382 2.004 . S
Co378 O388 2.021 . S
Co378 O390 2.137 . S
Co378 O391 2.244 . S
O379 Co378 2.216 . S
O379 C386 1.247 . S
O380 Co378 2.091 . S
O380 C386 1.261 . S
C381 O390 1.247 . S
C381 O391 1.272 . S
O382 Co378 2.004 . S
O382 C387 1.259 . S
Co383 O384 2.061 . S
Co383 O389 2.052 . S
Co383 O391 2.135 . S
O384 Co383 2.061 . S
O384 C387 1.235 . S
C385 O388 1.238 . S
C385 O389 1.241 . S
C386 O379 1.247 . S
C386 O380 1.261 . S
C387 O382 1.259 . S
C387 O384 1.235 . S
O388 Co378 2.021 . S
O388 C385 1.238 . S
O389 Co383 2.052 . S
O389 C385 1.241 . S
O390 Co378 2.137 . S
O390 C381 1.247 . S
O391 Co378 2.244 . S
O391 C381 1.272 . S
O391 Co383 2.135 . S
Co392 O393 2.216 . S
Co392 O394 2.091 . S
Co392 O396 2.004 . S
Co392 O402 2.021 . S
Co392 O404 2.137 . S
Co392 O405 2.244 . S
O393 Co392 2.216 . S
O393 C400 1.247 . S
O394 Co392 2.091 . S
O394 C400 1.261 . S
C395 O404 1.247 . S
C395 O405 1.272 . S
O396 Co392 2.004 . S
O396 C401 1.259 . S
Co397 O398 2.061 . S
Co397 O403 2.052 . S
Co397 O405 2.135 . S
O398 Co397 2.061 . S
O398 C401 1.235 . S
C399 O402 1.238 . S
C399 O403 1.241 . S
C400 O393 1.247 . S
C400 O394 1.261 . S
C401 O396 1.259 . S
C401 O398 1.235 . S
O402 Co392 2.021 . S
O402 C399 1.238 . S
O403 Co397 2.052 . S
O403 C399 1.241 . S
O404 Co392 2.137 . S
O404 C395 1.247 . S
O405 Co392 2.244 . S
O405 C395 1.272 . S
O405 Co397 2.135 . S
Co406 O407 2.216 . S
Co406 O408 2.091 . S
Co406 O410 2.004 . S
Co406 O416 2.021 . S
Co406 O418 2.137 . S
Co406 O419 2.244 . S
O407 Co406 2.216 . S
O407 C414 1.247 . S
O408 Co406 2.091 . S
O408 C414 1.261 . S
C409 O418 1.247 . S
C409 O419 1.272 . S
O410 Co406 2.004 . S
O410 C415 1.259 . S
Co411 O412 2.061 . S
Co411 O417 2.052 . S
Co411 O419 2.135 . S
O412 Co411 2.061 . S
O412 C415 1.235 . S
C413 O416 1.238 . S
C413 O417 1.241 . S
C414 O407 1.247 . S
C414 O408 1.261 . S
C415 O410 1.259 . S
C415 O412 1.235 . S
O416 Co406 2.021 . S
O416 C413 1.238 . S
O417 Co411 2.052 . S
O417 C413 1.241 . S
O418 Co406 2.137 . S
O418 C409 1.247 . S
O419 Co406 2.244 . S
O419 C409 1.272 . S
O419 Co411 2.135 . S
Co420 O421 2.216 . S
Co420 O422 2.091 . S
Co420 O424 2.004 . S
Co420 O430 2.021 . S
Co420 O432 2.137 . S
Co420 O433 2.244 . S
O421 Co420 2.216 . S
O421 C428 1.247 . S
O422 Co420 2.091 . S
O422 C428 1.261 . S
C423 O432 1.247 . S
C423 O433 1.272 . S
O424 Co420 2.004 . S
O424 C429 1.259 . S
Co425 O426 2.061 . S
Co425 O431 2.052 . S
Co425 O433 2.135 . S
O426 Co425 2.061 . S
O426 C429 1.235 . S
C427 O430 1.238 . S
C427 O431 1.241 . S
C428 O421 1.247 . S
C428 O422 1.261 . S
C429 O424 1.259 . S
C429 O426 1.235 . S
O430 Co420 2.021 . S
O430 C427 1.238 . S
O431 Co425 2.052 . S
O431 C427 1.241 . S
O432 Co420 2.137 . S
O432 C423 1.247 . S
O433 Co420 2.244 . S
O433 C423 1.272 . S
O433 Co425 2.135 . S
Co434 O435 2.216 . S
Co434 O436 2.091 . S
Co434 O438 2.004 . S
Co434 O444 2.021 . S
Co434 O446 2.137 . S
Co434 O447 2.244 . S
O435 Co434 2.216 . S
O435 C442 1.247 . S
O436 Co434 2.091 . S
O436 C442 1.261 . S
C437 O446 1.247 . S
C437 O447 1.272 . S
O438 Co434 2.004 . S
O438 C443 1.259 . S
Co439 O440 2.061 . S
Co439 O445 2.052 . S
Co439 O447 2.135 . S
O440 Co439 2.061 . S
O440 C443 1.235 . S
C441 O444 1.238 . S
C441 O445 1.241 . S
C442 O435 1.247 . S
C442 O436 1.261 . S
C443 O438 1.259 . S
C443 O440 1.235 . S
O444 Co434 2.021 . S
O444 C441 1.238 . S
O445 Co439 2.052 . S
O445 C441 1.241 . S
O446 Co434 2.137 . S
O446 C437 1.247 . S
O447 Co434 2.244 . S
O447 C437 1.272 . S
O447 Co439 2.135 . S
Co448 O449 2.216 . S
Co448 O450 2.091 . S
Co448 O452 2.004 . S
Co448 O458 2.021 . S
Co448 O460 2.137 . S
Co448 O461 2.244 . S
O449 Co448 2.216 . S
O449 C456 1.247 . S
O450 Co448 2.091 . S
O450 C456 1.261 . S
C451 O460 1.247 . S
C451 O461 1.272 . S
O452 Co448 2.004 . S
O452 C457 1.259 . S
Co453 O454 2.061 . S
Co453 O459 2.052 . S
Co453 O461 2.135 . S
O454 Co453 2.061 . S
O454 C457 1.235 . S
C455 O458 1.238 . S
C455 O459 1.241 . S
C456 O449 1.247 . S
C456 O450 1.261 . S
C457 O452 1.259 . S
C457 O454 1.235 . S
O458 Co448 2.021 . S
O458 C455 1.238 . S
O459 Co453 2.052 . S
O459 C455 1.241 . S
O460 Co448 2.137 . S
O460 C451 1.247 . S
O461 Co448 2.244 . S
O461 C451 1.272 . S
O461 Co453 2.135 . S
Co462 O463 2.216 . S
Co462 O464 2.091 . S
Co462 O466 2.004 . S
Co462 O472 2.021 . S
Co462 O474 2.137 . S
Co462 O475 2.244 . S
O463 Co462 2.216 . S
O463 C470 1.247 . S
O464 Co462 2.091 . S
O464 C470 1.261 . S
C465 O474 1.247 . S
C465 O475 1.272 . S
O466 Co462 2.004 . S
O466 C471 1.259 . S
Co467 O468 2.061 . S
Co467 O473 2.052 . S
Co467 O475 2.135 . S
O468 Co467 2.061 . S
O468 C471 1.235 . S
C469 O472 1.238 . S
C469 O473 1.241 . S
C470 O463 1.247 . S
C470 O464 1.261 . S
C471 O466 1.259 . S
C471 O468 1.235 . S
O472 Co462 2.021 . S
O472 C469 1.238 . S
O473 Co467 2.052 . S
O473 C469 1.241 . S
O474 Co462 2.137 . S
O474 C465 1.247 . S
O475 Co462 2.244 . S
O475 C465 1.272 . S
O475 Co467 2.135 . S
Co476 O477 2.216 . S
Co476 O478 2.091 . S
Co476 O480 2.004 . S
Co476 O486 2.021 . S
Co476 O488 2.137 . S
Co476 O489 2.244 . S
O477 Co476 2.216 . S
O477 C484 1.247 . S
O478 Co476 2.091 . S
O478 C484 1.261 . S
C479 O488 1.247 . S
C479 O489 1.272 . S
O480 Co476 2.004 . S
O480 C485 1.259 . S
Co481 O482 2.061 . S
Co481 O487 2.052 . S
Co481 O489 2.135 . S
O482 Co481 2.061 . S
O482 C485 1.235 . S
C483 O486 1.238 . S
C483 O487 1.241 . S
C484 O477 1.247 . S
C484 O478 1.261 . S
C485 O480 1.259 . S
C485 O482 1.235 . S
O486 Co476 2.021 . S
O486 C483 1.238 . S
O487 Co481 2.052 . S
O487 C483 1.241 . S
O488 Co476 2.137 . S
O488 C479 1.247 . S
O489 Co476 2.244 . S
O489 C479 1.272 . S
O489 Co481 2.135 . S
Co490 O491 2.216 . S
Co490 O492 2.091 . S
Co490 O494 2.004 . S
Co490 O500 2.021 . S
Co490 O502 2.137 . S
Co490 O503 2.244 . S
O491 Co490 2.216 . S
O491 C498 1.247 . S
O492 Co490 2.091 . S
O492 C498 1.261 . S
C493 O502 1.247 . S
C493 O503 1.272 . S
O494 Co490 2.004 . S
O494 C499 1.259 . S
Co495 O496 2.061 . S
Co495 O501 2.052 . S
Co495 O503 2.135 . S
O496 Co495 2.061 . S
O496 C499 1.235 . S
C497 O500 1.238 . S
C497 O501 1.241 . S
C498 O491 1.247 . S
C498 O492 1.261 . S
C499 O494 1.259 . S
C499 O496 1.235 . S
O500 Co490 2.021 . S
O500 C497 1.238 . S
O501 Co495 2.052 . S
O501 C497 1.241 . S
O502 Co490 2.137 . S
O502 C493 1.247 . S
O503 Co490 2.244 . S
O503 C493 1.272 . S
O503 Co495 2.135 . S
C504 C505 1.391 . S
C504 C506 1.394 . S
C504 H520 0.931 . S
C505 C504 1.391 . S
C505 C509 1.376 . S
C506 C504 1.394 . S
C506 C507 1.369 . S
C506 C510 1.531 . S
C507 C506 1.369 . S
C507 C508 1.410 . S
C507 C515 1.503 . S
C508 C507 1.410 . S
C508 C509 1.392 . S
C508 C511 1.511 . S
C509 C505 1.376 . S
C509 C508 1.392 . S
C509 H521 0.929 . S
C510 C506 1.531 . S
C510 H522 0.960 . S
C510 H523 0.962 . S
C510 H524 0.960 . S
C511 C508 1.511 . S
C511 H525 0.961 . S
C511 H526 0.961 . S
C511 H527 0.961 . S
C512 C513 1.370 . S
C512 C514 1.363 . S
C512 H528 0.931 . S
C513 C512 1.370 . S
C513 C517 1.408 . S
C514 C512 1.363 . S
C514 C515 1.370 . S
C514 C518 1.524 . S
C515 C507 1.503 . S
C515 C514 1.370 . S
C515 C516 1.403 . S
C516 C515 1.403 . S
C516 C517 1.404 . S
C516 C519 1.539 . S
C517 C513 1.408 . S
C517 C516 1.404 . S
C517 H529 0.930 . S
C518 C514 1.524 . S
C518 H530 0.956 . S
C518 H531 0.961 . S
C518 H532 0.961 . S
C519 C516 1.539 . S
C519 H533 0.958 . S
C519 H534 0.961 . S
C519 H535 0.960 . S
H520 C504 0.931 . S
H521 C509 0.929 . S
H522 C510 0.960 . S
H523 C510 0.962 . S
H524 C510 0.960 . S
H525 C511 0.961 . S
H526 C511 0.961 . S
H527 C511 0.961 . S
H528 C512 0.931 . S
H529 C517 0.930 . S
H530 C518 0.956 . S
H531 C518 0.961 . S
H532 C518 0.961 . S
H533 C519 0.958 . S
H534 C519 0.961 . S
H535 C519 0.960 . S
C536 C537 1.391 . S
C536 C538 1.394 . S
C536 H552 0.931 . S
C537 C536 1.391 . S
C537 C541 1.376 . S
C538 C536 1.394 . S
C538 C539 1.369 . S
C538 C542 1.531 . S
C539 C538 1.369 . S
C539 C540 1.410 . S
C539 C547 1.503 . S
C540 C539 1.410 . S
C540 C541 1.392 . S
C540 C543 1.511 . S
C541 C537 1.376 . S
C541 C540 1.392 . S
C541 H553 0.929 . S
C542 C538 1.531 . S
C542 H554 0.960 . S
C542 H555 0.962 . S
C542 H556 0.960 . S
C543 C540 1.511 . S
C543 H557 0.961 . S
C543 H558 0.961 . S
C543 H559 0.961 . S
C544 C545 1.370 . S
C544 C546 1.363 . S
C544 H560 0.931 . S
C545 C544 1.370 . S
C545 C549 1.408 . S
C546 C544 1.363 . S
C546 C547 1.370 . S
C546 C550 1.524 . S
C547 C539 1.503 . S
C547 C546 1.370 . S
C547 C548 1.403 . S
C548 C547 1.403 . S
C548 C549 1.404 . S
C548 C551 1.539 . S
C549 C545 1.408 . S
C549 C548 1.404 . S
C549 H561 0.930 1_556 S
C550 C546 1.524 . S
C550 H562 0.956 . S
C550 H563 0.961 . S
C550 H564 0.961 . S
C551 C548 1.539 . S
C551 H565 0.958 . S
C551 H566 0.961 1_556 S
C551 H567 0.960 . S
H552 C536 0.931 . S
H553 C541 0.929 . S
H554 C542 0.960 . S
H555 C542 0.962 . S
H556 C542 0.960 . S
H557 C543 0.961 . S
H558 C543 0.961 . S
H559 C543 0.961 . S
H560 C544 0.931 . S
H561 C549 0.930 1_554 S
H562 C550 0.956 . S
H563 C550 0.961 . S
H564 C550 0.961 . S
H565 C551 0.958 . S
H566 C551 0.961 1_554 S
H567 C551 0.960 . S
C568 C569 1.391 . S
C568 C570 1.394 . S
C568 H584 0.931 . S
C569 C568 1.391 . S
C569 C573 1.376 . S
C570 C568 1.394 . S
C570 C571 1.369 . S
C570 C574 1.531 . S
C571 C570 1.369 . S
C571 C572 1.410 . S
C571 C579 1.503 . S
C572 C571 1.410 . S
C572 C573 1.392 . S
C572 C575 1.511 . S
C573 C569 1.376 . S
C573 C572 1.392 . S
C573 H585 0.929 . S
C574 C570 1.531 . S
C574 H586 0.960 . S
C574 H587 0.962 . S
C574 H588 0.960 . S
C575 C572 1.511 . S
C575 H589 0.961 . S
C575 H590 0.961 . S
C575 H591 0.961 . S
C576 C577 1.370 . S
C576 C578 1.363 . S
C576 H592 0.931 . S
C577 C576 1.370 . S
C577 C581 1.408 . S
C578 C576 1.363 . S
C578 C579 1.370 . S
C578 C582 1.524 . S
C579 C571 1.503 . S
C579 C578 1.370 . S
C579 C580 1.403 . S
C580 C579 1.403 . S
C580 C581 1.404 . S
C580 C583 1.539 . S
C581 C577 1.408 . S
C581 C580 1.404 . S
C581 H593 0.930 . S
C582 C578 1.524 . S
C582 H594 0.956 . S
C582 H595 0.961 . S
C582 H596 0.961 . S
C583 C580 1.539 . S
C583 H597 0.958 . S
C583 H598 0.961 . S
C583 H599 0.960 . S
H584 C568 0.931 . S
H585 C573 0.929 . S
H586 C574 0.960 . S
H587 C574 0.962 . S
H588 C574 0.960 . S
H589 C575 0.961 . S
H590 C575 0.961 . S
H591 C575 0.961 . S
H592 C576 0.931 . S
H593 C581 0.930 . S
H594 C582 0.956 . S
H595 C582 0.961 . S
H596 C582 0.961 . S
H597 C583 0.958 . S
H598 C583 0.961 . S
H599 C583 0.960 . S
C600 C601 1.391 . S
C600 C602 1.394 . S
C600 H616 0.931 . S
C601 C600 1.391 . S
C601 C605 1.376 . S
C602 C600 1.394 . S
C602 C603 1.369 . S
C602 C606 1.531 . S
C603 C602 1.369 . S
C603 C604 1.410 . S
C603 C611 1.503 . S
C604 C603 1.410 . S
C604 C605 1.392 . S
C604 C607 1.511 . S
C605 C601 1.376 . S
C605 C604 1.392 . S
C605 H617 0.929 . S
C606 C602 1.531 . S
C606 H618 0.960 . S
C606 H619 0.962 . S
C606 H620 0.960 . S
C607 C604 1.511 . S
C607 H621 0.961 . S
C607 H622 0.961 . S
C607 H623 0.961 . S
C608 C609 1.370 . S
C608 C610 1.363 . S
C608 H624 0.931 . S
C609 C608 1.370 . S
C609 C613 1.408 . S
C610 C608 1.363 . S
C610 C611 1.370 . S
C610 C614 1.524 . S
C611 C603 1.503 . S
C611 C610 1.370 . S
C611 C612 1.403 . S
C612 C611 1.403 . S
C612 C613 1.404 . S
C612 C615 1.539 . S
C613 C609 1.408 . S
C613 C612 1.404 . S
C613 H625 0.930 . S
C614 C610 1.524 . S
C614 H626 0.956 . S
C614 H627 0.961 . S
C614 H628 0.961 . S
C615 C612 1.539 . S
C615 H629 0.958 . S
C615 H630 0.961 . S
C615 H631 0.960 . S
H616 C600 0.931 . S
H617 C605 0.929 . S
H618 C606 0.960 . S
H619 C606 0.962 . S
H620 C606 0.960 . S
H621 C607 0.961 . S
H622 C607 0.961 . S
H623 C607 0.961 . S
H624 C608 0.931 . S
H625 C613 0.930 . S
H626 C614 0.956 . S
H627 C614 0.961 . S
H628 C614 0.961 . S
H629 C615 0.958 . S
H630 C615 0.961 . S
H631 C615 0.960 . S
C632 C633 1.391 . S
C632 C634 1.394 . S
C632 H648 0.931 . S
C633 C632 1.391 . S
C633 C637 1.376 . S
C634 C632 1.394 . S
C634 C635 1.369 . S
C634 C638 1.531 . S
C635 C634 1.369 . S
C635 C636 1.410 . S
C635 C643 1.503 . S
C636 C635 1.410 . S
C636 C637 1.392 . S
C636 C639 1.511 . S
C637 C633 1.376 . S
C637 C636 1.392 . S
C637 H649 0.929 . S
C638 C634 1.531 . S
C638 H650 0.960 . S
C638 H651 0.962 . S
C638 H652 0.960 . S
C639 C636 1.511 . S
C639 H653 0.961 . S
C639 H654 0.961 . S
C639 H655 0.961 . S
C640 C641 1.370 . S
C640 C642 1.363 . S
C640 H656 0.931 . S
C641 C640 1.370 . S
C641 C645 1.408 . S
C642 C640 1.363 . S
C642 C643 1.370 . S
C642 C646 1.524 . S
C643 C635 1.503 . S
C643 C642 1.370 . S
C643 C644 1.403 . S
C644 C643 1.403 . S
C644 C645 1.404 . S
C644 C647 1.539 . S
C645 C641 1.408 . S
C645 C644 1.404 . S
C645 H657 0.930 . S
C646 C642 1.524 . S
C646 H658 0.956 . S
C646 H659 0.961 . S
C646 H660 0.961 . S
C647 C644 1.539 . S
C647 H661 0.958 . S
C647 H662 0.961 . S
C647 H663 0.960 . S
H648 C632 0.931 . S
H649 C637 0.929 . S
H650 C638 0.960 . S
H651 C638 0.962 . S
H652 C638 0.960 . S
H653 C639 0.961 . S
H654 C639 0.961 . S
H655 C639 0.961 . S
H656 C640 0.931 . S
H657 C645 0.930 . S
H658 C646 0.956 . S
H659 C646 0.961 . S
H660 C646 0.961 . S
H661 C647 0.958 . S
H662 C647 0.961 . S
H663 C647 0.960 . S
C664 C665 1.391 . S
C664 C666 1.394 . S
C664 H680 0.931 . S
C665 C664 1.391 . S
C665 C669 1.376 . S
C666 C664 1.394 . S
C666 C667 1.369 . S
C666 C670 1.531 . S
C667 C666 1.369 . S
C667 C668 1.410 . S
C667 C675 1.503 . S
C668 C667 1.410 . S
C668 C669 1.392 . S
C668 C671 1.511 . S
C669 C665 1.376 . S
C669 C668 1.392 . S
C669 H681 0.929 . S
C670 C666 1.531 . S
C670 H682 0.960 . S
C670 H683 0.962 . S
C670 H684 0.960 . S
C671 C668 1.511 . S
C671 H685 0.961 1_455 S
C671 H686 0.961 . S
C671 H687 0.961 . S
C672 C673 1.370 . S
C672 C674 1.363 . S
C672 H688 0.931 . S
C673 C672 1.370 . S
C673 C677 1.408 . S
C674 C672 1.363 . S
C674 C675 1.370 . S
C674 C678 1.524 . S
C675 C667 1.503 . S
C675 C674 1.370 . S
C675 C676 1.403 . S
C676 C675 1.403 . S
C676 C677 1.404 . S
C676 C679 1.539 . S
C677 C673 1.408 . S
C677 C676 1.404 . S
C677 H689 0.930 . S
C678 C674 1.524 . S
C678 H690 0.956 . S
C678 H691 0.961 . S
C678 H692 0.961 . S
C679 C676 1.539 . S
C679 H693 0.958 . S
C679 H694 0.961 . S
C679 H695 0.960 . S
H680 C664 0.931 . S
H681 C669 0.929 . S
H682 C670 0.960 . S
H683 C670 0.962 . S
H684 C670 0.960 . S
H685 C671 0.961 1_655 S
H686 C671 0.961 . S
H687 C671 0.961 . S
H688 C672 0.931 . S
H689 C677 0.930 . S
H690 C678 0.956 . S
H691 C678 0.961 . S
H692 C678 0.961 . S
H693 C679 0.958 . S
H694 C679 0.961 . S
H695 C679 0.960 . S
C696 C697 1.391 . S
C696 C698 1.394 . S
C696 H712 0.931 . S
C697 C696 1.391 . S
C697 C701 1.376 . S
C698 C696 1.394 . S
C698 C699 1.369 . S
C698 C702 1.531 . S
C699 C698 1.369 . S
C699 C700 1.410 . S
C699 C707 1.503 . S
C700 C699 1.410 . S
C700 C701 1.392 . S
C700 C703 1.511 . S
C701 C697 1.376 . S
C701 C700 1.392 . S
C701 H713 0.929 . S
C702 C698 1.531 . S
C702 H714 0.960 . S
C702 H715 0.962 . S
C702 H716 0.960 . S
C703 C700 1.511 . S
C703 H717 0.961 . S
C703 H718 0.961 . S
C703 H719 0.961 . S
C704 C705 1.370 . S
C704 C706 1.363 . S
C704 H720 0.931 . S
C705 C704 1.370 . S
C705 C709 1.408 . S
C706 C704 1.363 . S
C706 C707 1.370 . S
C706 C710 1.524 . S
C707 C699 1.503 . S
C707 C706 1.370 . S
C707 C708 1.403 . S
C708 C707 1.403 . S
C708 C709 1.404 . S
C708 C711 1.539 . S
C709 C705 1.408 . S
C709 C708 1.404 . S
C709 H721 0.930 . S
C710 C706 1.524 . S
C710 H722 0.956 . S
C710 H723 0.961 . S
C710 H724 0.961 . S
C711 C708 1.539 . S
C711 H725 0.958 . S
C711 H726 0.961 . S
C711 H727 0.960 . S
H712 C696 0.931 . S
H713 C701 0.929 . S
H714 C702 0.960 . S
H715 C702 0.962 . S
H716 C702 0.960 . S
H717 C703 0.961 . S
H718 C703 0.961 . S
H719 C703 0.961 . S
H720 C704 0.931 . S
H721 C709 0.930 . S
H722 C710 0.956 . S
H723 C710 0.961 . S
H724 C710 0.961 . S
H725 C711 0.958 . S
H726 C711 0.961 . S
H727 C711 0.960 . S
C728 C729 1.391 . S
C728 C730 1.394 . S
C728 H744 0.931 . S
C729 C728 1.391 . S
C729 C733 1.376 . S
C730 C728 1.394 . S
C730 C731 1.369 . S
C730 C734 1.531 . S
C731 C730 1.369 . S
C731 C732 1.410 . S
C731 C739 1.503 . S
C732 C731 1.410 . S
C732 C733 1.392 . S
C732 C735 1.511 . S
C733 C729 1.376 . S
C733 C732 1.392 . S
C733 H745 0.929 . S
C734 C730 1.531 . S
C734 H746 0.960 . S
C734 H747 0.962 . S
C734 H748 0.960 . S
C735 C732 1.511 . S
C735 H749 0.961 . S
C735 H750 0.961 . S
C735 H751 0.961 . S
C736 C737 1.370 . S
C736 C738 1.363 . S
C736 H752 0.931 . S
C737 C736 1.370 . S
C737 C741 1.408 . S
C738 C736 1.363 . S
C738 C739 1.370 . S
C738 C742 1.524 . S
C739 C731 1.503 . S
C739 C738 1.370 . S
C739 C740 1.403 . S
C740 C739 1.403 . S
C740 C741 1.404 . S
C740 C743 1.539 . S
C741 C737 1.408 . S
C741 C740 1.404 . S
C741 H753 0.930 . S
C742 C738 1.524 . S
C742 H754 0.956 . S
C742 H755 0.961 . S
C742 H756 0.961 . S
C743 C740 1.539 . S
C743 H757 0.958 . S
C743 H758 0.961 . S
C743 H759 0.960 . S
H744 C728 0.931 . S
H745 C733 0.929 . S
H746 C734 0.960 . S
H747 C734 0.962 . S
H748 C734 0.960 . S
H749 C735 0.961 . S
H750 C735 0.961 . S
H751 C735 0.961 . S
H752 C736 0.931 . S
H753 C741 0.930 . S
H754 C742 0.956 . S
H755 C742 0.961 . S
H756 C742 0.961 . S
H757 C743 0.958 . S
H758 C743 0.961 . S
H759 C743 0.960 . S
C760 C761 1.391 . S
C760 C762 1.394 . S
C760 H776 0.931 . S
C761 C760 1.391 . S
C761 C765 1.376 . S
C762 C760 1.394 . S
C762 C763 1.369 . S
C762 C766 1.531 . S
C763 C762 1.369 . S
C763 C764 1.410 . S
C763 C771 1.503 . S
C764 C763 1.410 . S
C764 C765 1.392 . S
C764 C767 1.511 . S
C765 C761 1.376 . S
C765 C764 1.392 . S
C765 H777 0.929 . S
C766 C762 1.531 . S
C766 H778 0.960 . S
C766 H779 0.962 . S
C766 H780 0.960 . S
C767 C764 1.511 . S
C767 H781 0.961 . S
C767 H782 0.961 . S
C767 H783 0.961 . S
C768 C769 1.370 . S
C768 C770 1.363 . S
C768 H784 0.931 . S
C769 C768 1.370 . S
C769 C773 1.408 . S
C770 C768 1.363 . S
C770 C771 1.370 . S
C770 C774 1.524 . S
C771 C763 1.503 . S
C771 C770 1.370 . S
C771 C772 1.403 . S
C772 C771 1.403 . S
C772 C773 1.404 . S
C772 C775 1.539 . S
C773 C769 1.408 . S
C773 C772 1.404 . S
C773 H785 0.930 . S
C774 C770 1.524 . S
C774 H786 0.956 . S
C774 H787 0.961 . S
C774 H788 0.961 . S
C775 C772 1.539 . S
C775 H789 0.958 . S
C775 H790 0.961 1_455 S
C775 H791 0.960 . S
H776 C760 0.931 . S
H777 C765 0.929 . S
H778 C766 0.960 . S
H779 C766 0.962 . S
H780 C766 0.960 . S
H781 C767 0.961 . S
H782 C767 0.961 . S
H783 C767 0.961 . S
H784 C768 0.931 . S
H785 C773 0.930 . S
H786 C774 0.956 . S
H787 C774 0.961 . S
H788 C774 0.961 . S
H789 C775 0.958 . S
H790 C775 0.961 1_655 S
H791 C775 0.960 . S
C792 C793 1.391 . S
C792 C794 1.394 . S
C792 H808 0.931 . S
C793 C792 1.391 . S
C793 C797 1.376 . S
C794 C792 1.394 . S
C794 C795 1.369 . S
C794 C798 1.531 . S
C795 C794 1.369 . S
C795 C796 1.410 . S
C795 C803 1.503 . S
C796 C795 1.410 . S
C796 C797 1.392 . S
C796 C799 1.511 . S
C797 C793 1.376 . S
C797 C796 1.392 . S
C797 H809 0.929 . S
C798 C794 1.531 . S
C798 H810 0.960 . S
C798 H811 0.962 . S
C798 H812 0.960 . S
C799 C796 1.511 . S
C799 H813 0.961 . S
C799 H814 0.961 . S
C799 H815 0.961 . S
C800 C801 1.370 . S
C800 C802 1.363 . S
C800 H816 0.931 . S
C801 C800 1.370 . S
C801 C805 1.408 . S
C802 C800 1.363 . S
C802 C803 1.370 . S
C802 C806 1.524 . S
C803 C795 1.503 . S
C803 C802 1.370 . S
C803 C804 1.403 . S
C804 C803 1.403 . S
C804 C805 1.404 . S
C804 C807 1.539 . S
C805 C801 1.408 . S
C805 C804 1.404 . S
C805 H817 0.930 . S
C806 C802 1.524 . S
C806 H818 0.956 . S
C806 H819 0.961 . S
C806 H820 0.961 . S
C807 C804 1.539 . S
C807 H821 0.958 . S
C807 H822 0.961 . S
C807 H823 0.960 . S
H808 C792 0.931 . S
H809 C797 0.929 . S
H810 C798 0.960 . S
H811 C798 0.962 . S
H812 C798 0.960 . S
H813 C799 0.961 . S
H814 C799 0.961 . S
H815 C799 0.961 . S
H816 C800 0.931 . S
H817 C805 0.930 . S
H818 C806 0.956 . S
H819 C806 0.961 . S
H820 C806 0.961 . S
H821 C807 0.958 . S
H822 C807 0.961 . S
H823 C807 0.960 . S
C824 C825 1.391 . S
C824 C826 1.394 . S
C824 H840 0.931 . S
C825 C824 1.391 . S
C825 C829 1.376 . S
C826 C824 1.394 . S
C826 C827 1.369 . S
C826 C830 1.531 . S
C827 C826 1.369 . S
C827 C828 1.410 . S
C827 C835 1.503 . S
C828 C827 1.410 . S
C828 C829 1.392 . S
C828 C831 1.511 . S
C829 C825 1.376 . S
C829 C828 1.392 . S
C829 H841 0.929 . S
C830 C826 1.531 . S
C830 H842 0.960 . S
C830 H843 0.962 . S
C830 H844 0.960 . S
C831 C828 1.511 . S
C831 H845 0.961 . S
C831 H846 0.961 . S
C831 H847 0.961 . S
C832 C833 1.370 . S
C832 C834 1.363 . S
C832 H848 0.931 . S
C833 C832 1.370 . S
C833 C837 1.408 . S
C834 C832 1.363 . S
C834 C835 1.370 . S
C834 C838 1.524 . S
C835 C827 1.503 . S
C835 C834 1.370 . S
C835 C836 1.403 . S
C836 C835 1.403 . S
C836 C837 1.404 . S
C836 C839 1.539 . S
C837 C833 1.408 . S
C837 C836 1.404 . S
C837 H849 0.930 . S
C838 C834 1.524 . S
C838 H850 0.956 . S
C838 H851 0.961 . S
C838 H852 0.961 . S
C839 C836 1.539 . S
C839 H853 0.958 . S
C839 H854 0.961 . S
C839 H855 0.960 . S
H840 C824 0.931 . S
H841 C829 0.929 . S
H842 C830 0.960 . S
H843 C830 0.962 . S
H844 C830 0.960 . S
H845 C831 0.961 . S
H846 C831 0.961 . S
H847 C831 0.961 . S
H848 C832 0.931 . S
H849 C837 0.930 . S
H850 C838 0.956 . S
H851 C838 0.961 . S
H852 C838 0.961 . S
H853 C839 0.958 . S
H854 C839 0.961 . S
H855 C839 0.960 . S
C856 C857 1.391 . S
C856 C858 1.394 . S
C856 H872 0.931 . S
C857 C856 1.391 . S
C857 C861 1.376 . S
C858 C856 1.394 . S
C858 C859 1.369 . S
C858 C862 1.531 . S
C859 C858 1.369 . S
C859 C860 1.410 . S
C859 C867 1.503 . S
C860 C859 1.410 . S
C860 C861 1.392 . S
C860 C863 1.511 . S
C861 C857 1.376 . S
C861 C860 1.392 . S
C861 H873 0.929 . S
C862 C858 1.531 . S
C862 H874 0.960 . S
C862 H875 0.962 . S
C862 H876 0.960 . S
C863 C860 1.511 . S
C863 H877 0.961 . S
C863 H878 0.961 . S
C863 H879 0.961 . S
C864 C865 1.370 . S
C864 C866 1.363 . S
C864 H880 0.931 . S
C865 C864 1.370 . S
C865 C869 1.408 . S
C866 C864 1.363 . S
C866 C867 1.370 . S
C866 C870 1.524 . S
C867 C859 1.503 . S
C867 C866 1.370 . S
C867 C868 1.403 . S
C868 C867 1.403 . S
C868 C869 1.404 . S
C868 C871 1.539 . S
C869 C865 1.408 . S
C869 C868 1.404 . S
C869 H881 0.930 . S
C870 C866 1.524 . S
C870 H882 0.956 . S
C870 H883 0.961 . S
C870 H884 0.961 . S
C871 C868 1.539 . S
C871 H885 0.958 . S
C871 H886 0.961 . S
C871 H887 0.960 . S
H872 C856 0.931 . S
H873 C861 0.929 . S
H874 C862 0.960 . S
H875 C862 0.962 . S
H876 C862 0.960 . S
H877 C863 0.961 . S
H878 C863 0.961 . S
H879 C863 0.961 . S
H880 C864 0.931 . S
H881 C869 0.930 . S
H882 C870 0.956 . S
H883 C870 0.961 . S
H884 C870 0.961 . S
H885 C871 0.958 . S
H886 C871 0.961 . S
H887 C871 0.960 . S
C888 C889 1.391 . S
C888 C890 1.394 . S
C888 H904 0.931 . S
C889 C888 1.391 . S
C889 C893 1.376 . S
C890 C888 1.394 . S
C890 C891 1.369 . S
C890 C894 1.531 1_455 S
C891 C890 1.369 . S
C891 C892 1.410 . S
C891 C899 1.503 1_455 S
C892 C891 1.410 . S
C892 C893 1.392 . S
C892 C895 1.511 . S
C893 C889 1.376 . S
C893 C892 1.392 . S
C893 H905 0.929 . S
C894 C890 1.531 1_655 S
C894 H906 0.960 . S
C894 H907 0.962 . S
C894 H908 0.960 . S
C895 C892 1.511 . S
C895 H909 0.961 . S
C895 H910 0.961 . S
C895 H911 0.961 . S
C896 C897 1.370 . S
C896 C898 1.363 . S
C896 H912 0.931 . S
C897 C896 1.370 . S
C897 C901 1.408 . S
C898 C896 1.363 . S
C898 C899 1.370 . S
C898 C902 1.524 1_655 S
C899 C891 1.503 1_655 S
C899 C898 1.370 . S
C899 C900 1.403 . S
C900 C899 1.403 . S
C900 C901 1.404 . S
C900 C903 1.539 . S
C901 C897 1.408 . S
C901 C900 1.404 . S
C901 H913 0.930 . S
C902 C898 1.524 1_455 S
C902 H914 0.956 . S
C902 H915 0.961 . S
C902 H916 0.961 . S
C903 C900 1.539 . S
C903 H917 0.958 . S
C903 H918 0.961 . S
C903 H919 0.960 . S
H904 C888 0.931 . S
H905 C893 0.929 . S
H906 C894 0.960 . S
H907 C894 0.962 . S
H908 C894 0.960 . S
H909 C895 0.961 . S
H910 C895 0.961 . S
H911 C895 0.961 . S
H912 C896 0.931 . S
H913 C901 0.930 . S
H914 C902 0.956 . S
H915 C902 0.961 . S
H916 C902 0.961 . S
H917 C903 0.958 . S
H918 C903 0.961 . S
H919 C903 0.960 . S
C920 C921 1.391 . S
C920 C922 1.394 . S
C920 H936 0.931 . S
C921 C920 1.391 . S
C921 C925 1.376 . S
C922 C920 1.394 . S
C922 C923 1.369 . S
C922 C926 1.531 . S
C923 C922 1.369 . S
C923 C924 1.410 . S
C923 C931 1.503 . S
C924 C923 1.410 . S
C924 C925 1.392 . S
C924 C927 1.511 . S
C925 C921 1.376 . S
C925 C924 1.392 . S
C925 H937 0.929 . S
C926 C922 1.531 . S
C926 H938 0.960 . S
C926 H939 0.962 . S
C926 H940 0.960 . S
C927 C924 1.511 . S
C927 H941 0.961 . S
C927 H942 0.961 . S
C927 H943 0.961 . S
C928 C929 1.370 . S
C928 C930 1.363 . S
C928 H944 0.931 . S
C929 C928 1.370 . S
C929 C933 1.408 . S
C930 C928 1.363 . S
C930 C931 1.370 . S
C930 C934 1.524 . S
C931 C923 1.503 . S
C931 C930 1.370 . S
C931 C932 1.403 . S
C932 C931 1.403 . S
C932 C933 1.404 . S
C932 C935 1.539 . S
C933 C929 1.408 . S
C933 C932 1.404 . S
C933 H945 0.930 . S
C934 C930 1.524 . S
C934 H946 0.956 . S
C934 H947 0.961 . S
C934 H948 0.961 . S
C935 C932 1.539 . S
C935 H949 0.958 . S
C935 H950 0.961 . S
C935 H951 0.960 . S
H936 C920 0.931 . S
H937 C925 0.929 . S
H938 C926 0.960 . S
H939 C926 0.962 . S
H940 C926 0.960 . S
H941 C927 0.961 . S
H942 C927 0.961 . S
H943 C927 0.961 . S
H944 C928 0.931 . S
H945 C933 0.930 . S
H946 C934 0.956 . S
H947 C934 0.961 . S
H948 C934 0.961 . S
H949 C935 0.958 . S
H950 C935 0.961 . S
H951 C935 0.960 . S
C952 C953 1.391 . S
C952 C954 1.394 . S
C952 H968 0.931 . S
C953 C952 1.391 . S
C953 C957 1.376 . S
C954 C952 1.394 . S
C954 C955 1.369 . S
C954 C958 1.531 1_565 S
C955 C954 1.369 . S
C955 C956 1.410 . S
C955 C963 1.503 1_565 S
C956 C955 1.410 . S
C956 C957 1.392 . S
C956 C959 1.511 . S
C957 C953 1.376 . S
C957 C956 1.392 . S
C957 H969 0.929 . S
C958 C954 1.531 1_545 S
C958 H970 0.960 . S
C958 H971 0.962 . S
C958 H972 0.960 . S
C959 C956 1.511 . S
C959 H973 0.961 . S
C959 H974 0.961 . S
C959 H975 0.961 . S
C960 C961 1.370 . S
C960 C962 1.363 . S
C960 H976 0.931 . S
C961 C960 1.370 . S
C961 C965 1.408 . S
C962 C960 1.363 . S
C962 C963 1.370 . S
C962 C966 1.524 . S
C963 C955 1.503 1_545 S
C963 C962 1.370 . S
C963 C964 1.403 . S
C964 C963 1.403 . S
C964 C965 1.404 . S
C964 C967 1.539 1_545 S
C965 C961 1.408 . S
C965 C964 1.404 . S
C965 H977 0.930 . S
C966 C962 1.524 . S
C966 H978 0.956 . S
C966 H979 0.961 . S
C966 H980 0.961 . S
C967 C964 1.539 1_565 S
C967 H981 0.958 . S
C967 H982 0.961 . S
C967 H983 0.960 . S
H968 C952 0.931 . S
H969 C957 0.929 . S
H970 C958 0.960 . S
H971 C958 0.962 . S
H972 C958 0.960 . S
H973 C959 0.961 . S
H974 C959 0.961 . S
H975 C959 0.961 . S
H976 C960 0.931 . S
H977 C965 0.930 . S
H978 C966 0.956 . S
H979 C966 0.961 . S
H980 C966 0.961 . S
H981 C967 0.958 . S
H982 C967 0.961 . S
H983 C967 0.960 . S
C984 C985 1.391 . S
C984 C986 1.394 . S
C984 H1000 0.931 . S
C985 C984 1.391 . S
C985 C989 1.376 . S
C986 C984 1.394 . S
C986 C987 1.369 . S
C986 C990 1.531 . S
C987 C986 1.369 . S
C987 C988 1.410 . S
C987 C995 1.503 1_565 S
C988 C987 1.410 . S
C988 C989 1.392 . S
C988 C991 1.518 . S
C989 C985 1.376 . S
C989 C988 1.392 . S
C989 H1001 0.929 . S
C990 C986 1.531 . S
C990 H1002 0.960 . S
C990 H1003 0.962 . S
C990 H1004 0.960 . S
C991 C988 1.518 . S
C991 H1005 0.968 . S
C991 H1006 0.910 1_565 S
C991 H1007 0.997 . S
C992 C993 1.370 . S
C992 C994 1.363 . S
C992 H1008 0.931 . S
C993 C992 1.370 . S
C993 C997 1.408 . S
C994 C992 1.363 . S
C994 C995 1.370 . S
C994 C998 1.524 . S
C995 C987 1.503 1_545 S
C995 C994 1.370 . S
C995 C996 1.403 . S
C996 C995 1.403 . S
C996 C997 1.404 . S
C996 C999 1.539 1_545 S
C997 C993 1.408 . S
C997 C996 1.404 . S
C997 H1009 0.930 . S
C998 C994 1.524 . S
C998 H1010 0.956 . S
C998 H1011 0.961 . S
C998 H1012 0.961 . S
C999 C996 1.539 1_565 S
C999 H1013 0.958 . S
C999 H1014 0.961 . S
C999 H1015 0.960 . S
H1000 C984 0.931 . S
H1001 C989 0.929 . S
H1002 C990 0.960 . S
H1003 C990 0.962 . S
H1004 C990 0.960 . S
H1005 C991 0.968 . S
H1006 C991 0.910 1_545 S
H1007 C991 0.997 . S
H1008 C992 0.931 . S
H1009 C997 0.930 . S
H1010 C998 0.956 . S
H1011 C998 0.961 . S
H1012 C998 0.961 . S
H1013 C999 0.958 . S
H1014 C999 0.961 . S
H1015 C999 0.960 . S
C1016 C1017 1.391 . S
C1016 C1018 1.394 . S
C1016 H1032 0.931 . S
C1017 C1016 1.391 . S
C1017 C1021 1.376 . S
C1018 C1016 1.394 . S
C1018 C1019 1.369 . S
C1018 C1022 1.531 1_455 S
C1019 C1018 1.369 . S
C1019 C1020 1.410 . S
C1019 C1027 1.503 1_455 S
C1020 C1019 1.410 . S
C1020 C1021 1.392 . S
C1020 C1023 1.511 . S
C1021 C1017 1.376 . S
C1021 C1020 1.392 . S
C1021 H1033 0.929 . S
C1022 C1018 1.531 1_655 S
C1022 H1034 0.960 . S
C1022 H1035 0.962 . S
C1022 H1036 0.960 . S
C1023 C1020 1.511 . S
C1023 H1037 0.961 . S
C1023 H1038 0.961 . S
C1023 H1039 0.961 . S
C1024 C1025 1.370 . S
C1024 C1026 1.363 . S
C1024 H1040 0.931 . S
C1025 C1024 1.370 . S
C1025 C1029 1.408 . S
C1026 C1024 1.363 . S
C1026 C1027 1.370 . S
C1026 C1030 1.524 . S
C1027 C1019 1.503 1_655 S
C1027 C1026 1.370 . S
C1027 C1028 1.403 . S
C1028 C1027 1.403 . S
C1028 C1029 1.404 . S
C1028 C1031 1.539 . S
C1029 C1025 1.408 . S
C1029 C1028 1.404 . S
C1029 H1041 0.930 . S
C1030 C1026 1.524 . S
C1030 H1042 0.956 . S
C1030 H1043 0.921 1_655 S
C1030 H1044 0.961 . S
C1031 C1028 1.539 . S
C1031 H1045 0.958 . S
C1031 H1046 0.961 . S
C1031 H1047 0.960 1_655 S
H1032 C1016 0.931 . S
H1033 C1021 0.929 . S
H1034 C1022 0.960 . S
H1035 C1022 0.962 . S
H1036 C1022 0.960 . S
H1037 C1023 0.961 . S
H1038 C1023 0.961 . S
H1039 C1023 0.961 . S
H1040 C1024 0.931 . S
H1041 C1029 0.930 . S
H1042 C1030 0.956 . S
H1043 C1030 0.921 1_455 S
H1044 C1030 0.961 . S
H1045 C1031 0.958 . S
H1046 C1031 0.961 . S
H1047 C1031 0.960 1_455 S
C1048 C1049 1.391 . S
C1048 C1050 1.394 . S
C1048 H1064 0.931 . S
C1049 C1048 1.391 . S
C1049 C1053 1.376 . S
C1050 C1048 1.394 . S
C1050 C1051 1.369 . S
C1050 C1054 1.531 . S
C1051 C1050 1.369 . S
C1051 C1052 1.410 . S
C1051 C1059 1.503 . S
C1052 C1051 1.410 . S
C1052 C1053 1.392 . S
C1052 C1055 1.511 . S
C1053 C1049 1.376 . S
C1053 C1052 1.392 . S
C1053 H1065 0.929 . S
C1054 C1050 1.531 . S
C1054 H1066 0.960 . S
C1054 H1067 0.962 . S
C1054 H1068 0.960 . S
C1055 C1052 1.511 . S
C1055 H1069 0.961 . S
C1055 H1070 0.961 . S
C1055 H1071 0.961 . S
C1056 C1057 1.370 . S
C1056 C1058 1.363 . S
C1056 H1072 0.931 . S
C1057 C1056 1.370 . S
C1057 C1061 1.408 . S
C1058 C1056 1.363 . S
C1058 C1059 1.370 . S
C1058 C1062 1.524 . S
C1059 C1051 1.503 . S
C1059 C1058 1.370 . S
C1059 C1060 1.403 . S
C1060 C1059 1.403 . S
C1060 C1061 1.404 . S
C1060 C1063 1.539 . S
C1061 C1057 1.408 . S
C1061 C1060 1.404 . S
C1061 H1073 0.930 . S
C1062 C1058 1.524 . S
C1062 H1074 0.956 . S
C1062 H1075 0.961 . S
C1062 H1076 0.961 . S
C1063 C1060 1.539 . S
C1063 H1077 0.958 . S
C1063 H1078 0.961 . S
C1063 H1079 0.960 . S
H1064 C1048 0.931 . S
H1065 C1053 0.929 . S
H1066 C1054 0.960 . S
H1067 C1054 0.962 . S
H1068 C1054 0.960 . S
H1069 C1055 0.961 . S
H1070 C1055 0.961 . S
H1071 C1055 0.961 . S
H1072 C1056 0.931 . S
H1073 C1061 0.930 . S
H1074 C1062 0.956 . S
H1075 C1062 0.961 . S
H1076 C1062 0.961 . S
H1077 C1063 0.958 . S
H1078 C1063 0.961 . S
H1079 C1063 0.960 . S
C1080 C1081 1.391 1_554 S
C1080 C1082 1.394 . S
C1080 H1096 0.931 . S
C1081 C1080 1.391 1_556 S
C1081 C1085 1.376 . S
C1082 C1080 1.394 . S
C1082 C1083 1.369 . S
C1082 C1086 1.531 . S
C1083 C1082 1.369 . S
C1083 C1084 1.410 1_554 S
C1083 C1091 1.503 . S
C1084 C1083 1.410 1_556 S
C1084 C1085 1.392 . S
C1084 C1087 1.511 . S
C1085 C1081 1.376 . S
C1085 C1084 1.392 . S
C1085 H1097 0.929 . S
C1086 C1082 1.531 . S
C1086 H1098 0.960 . S
C1086 H1099 0.962 . S
C1086 H1100 0.960 . S
C1087 C1084 1.511 . S
C1087 H1101 0.961 . S
C1087 H1102 0.961 . S
C1087 H1103 0.961 . S
C1088 C1089 1.370 . S
C1088 C1090 1.363 1_554 S
C1088 H1104 0.931 1_554 S
C1089 C1088 1.370 . S
C1089 C1093 1.408 . S
C1090 C1088 1.363 1_556 S
C1090 C1091 1.370 1_556 S
C1090 C1094 1.524 . S
C1091 C1083 1.503 . S
C1091 C1090 1.370 1_554 S
C1091 C1092 1.403 . S
C1092 C1091 1.403 . S
C1092 C1093 1.404 . S
C1092 C1095 1.539 . S
C1093 C1089 1.408 . S
C1093 C1092 1.404 . S
C1093 H1105 0.930 . S
C1094 C1090 1.524 . S
C1094 H1106 0.956 . S
C1094 H1107 0.961 . S
C1094 H1108 0.961 . S
C1095 C1092 1.539 . S
C1095 H1109 0.958 . S
C1095 H1110 0.961 . S
C1095 H1111 0.960 . S
H1096 C1080 0.931 . S
H1097 C1085 0.929 . S
H1098 C1086 0.960 . S
H1099 C1086 0.962 . S
H1100 C1086 0.960 . S
H1101 C1087 0.961 . S
H1102 C1087 0.961 . S
H1103 C1087 0.961 . S
H1104 C1088 0.931 1_556 S
H1105 C1093 0.930 . S
H1106 C1094 0.956 . S
H1107 C1094 0.961 . S
H1108 C1094 0.961 . S
H1109 C1095 0.958 . S
H1110 C1095 0.961 . S
H1111 C1095 0.960 . S
C1112 C1113 1.391 1_554 S
C1112 C1114 1.394 . S
C1112 H1128 0.931 . S
C1113 C1112 1.391 1_556 S
C1113 C1117 1.376 . S
C1114 C1112 1.394 . S
C1114 C1115 1.369 . S
C1114 C1118 1.531 . S
C1115 C1114 1.369 . S
C1115 C1116 1.410 1_554 S
C1115 C1123 1.503 . S
C1116 C1115 1.410 1_556 S
C1116 C1117 1.392 . S
C1116 C1119 1.511 . S
C1117 C1113 1.376 . S
C1117 C1116 1.392 . S
C1117 H1129 0.929 . S
C1118 C1114 1.531 . S
C1118 H1130 0.960 . S
C1118 H1131 0.962 . S
C1118 H1132 0.960 . S
C1119 C1116 1.511 . S
C1119 H1133 0.961 . S
C1119 H1134 0.961 . S
C1119 H1135 0.961 . S
C1120 C1121 1.370 . S
C1120 C1122 1.363 1_554 S
C1120 H1136 0.931 1_554 S
C1121 C1120 1.370 . S
C1121 C1125 1.408 . S
C1122 C1120 1.363 1_556 S
C1122 C1123 1.370 1_556 S
C1122 C1126 1.524 . S
C1123 C1115 1.503 . S
C1123 C1122 1.370 1_554 S
C1123 C1124 1.403 . S
C1124 C1123 1.403 . S
C1124 C1125 1.404 . S
C1124 C1127 1.539 . S
C1125 C1121 1.408 . S
C1125 C1124 1.404 . S
C1125 H1137 0.930 . S
C1126 C1122 1.524 . S
C1126 H1138 0.956 . S
C1126 H1139 0.961 . S
C1126 H1140 0.961 . S
C1127 C1124 1.539 . S
C1127 H1141 0.958 . S
C1127 H1142 0.961 . S
C1127 H1143 0.960 . S
H1128 C1112 0.931 . S
H1129 C1117 0.929 . S
H1130 C1118 0.960 . S
H1131 C1118 0.962 . S
H1132 C1118 0.960 . S
H1133 C1119 0.961 . S
H1134 C1119 0.961 . S
H1135 C1119 0.961 . S
H1136 C1120 0.931 1_556 S
H1137 C1125 0.930 . S
H1138 C1126 0.956 . S
H1139 C1126 0.961 . S
H1140 C1126 0.961 . S
H1141 C1127 0.958 . S
H1142 C1127 0.961 . S
H1143 C1127 0.960 . S
C1144 C1145 1.391 . S
C1144 C1146 1.394 . S
C1144 H1160 0.931 . S
C1145 C1144 1.391 . S
C1145 C1149 1.376 . S
C1146 C1144 1.394 . S
C1146 C1147 1.369 1_556 S
C1146 C1150 1.531 . S
C1147 C1146 1.369 1_554 S
C1147 C1148 1.410 . S
C1147 C1155 1.503 . S
C1148 C1147 1.410 . S
C1148 C1149 1.392 1_554 S
C1148 C1151 1.511 . S
C1149 C1145 1.376 . S
C1149 C1148 1.392 1_556 S
C1149 H1161 0.929 . S
C1150 C1146 1.531 . S
C1150 H1162 0.960 1_556 S
C1150 H1163 0.962 . S
C1150 H1164 0.960 1_556 S
C1151 C1148 1.511 . S
C1151 H1165 0.961 . S
C1151 H1166 0.961 . S
C1151 H1167 0.961 . S
C1152 C1153 1.370 1_556 S
C1152 C1154 1.363 . S
C1152 H1168 0.931 . S
C1153 C1152 1.370 1_554 S
C1153 C1157 1.408 . S
C1154 C1152 1.363 . S
C1154 C1155 1.370 1_556 S
C1154 C1158 1.524 . S
C1155 C1147 1.503 . S
C1155 C1154 1.370 1_554 S
C1155 C1156 1.403 . S
C1156 C1155 1.403 . S
C1156 C1157 1.404 . S
C1156 C1159 1.539 . S
C1157 C1153 1.408 . S
C1157 C1156 1.404 . S
C1157 H1169 0.930 . S
C1158 C1154 1.524 . S
C1158 H1170 0.956 . S
C1158 H1171 0.961 . S
C1158 H1172 0.961 . S
C1159 C1156 1.539 . S
C1159 H1173 0.958 . S
C1159 H1174 0.961 . S
C1159 H1175 0.960 . S
H1160 C1144 0.931 . S
H1161 C1149 0.929 . S
H1162 C1150 0.960 1_554 S
H1163 C1150 0.962 . S
H1164 C1150 0.960 1_554 S
H1165 C1151 0.961 . S
H1166 C1151 0.961 . S
H1167 C1151 0.961 . S
H1168 C1152 0.931 . S
H1169 C1157 0.930 . S
H1170 C1158 0.956 . S
H1171 C1158 0.961 . S
H1172 C1158 0.961 . S
H1173 C1159 0.958 . S
H1174 C1159 0.961 . S
H1175 C1159 0.960 . S
C1176 C1177 1.391 . S
C1176 C1178 1.394 . S
C1176 H1192 0.931 . S
C1177 C1176 1.391 . S
C1177 C1181 1.376 . S
C1178 C1176 1.394 . S
C1178 C1179 1.369 . S
C1178 C1182 1.531 . S
C1179 C1178 1.369 . S
C1179 C1180 1.410 . S
C1179 C1187 1.503 . S
C1180 C1179 1.410 . S
C1180 C1181 1.392 . S
C1180 C1183 1.511 . S
C1181 C1177 1.376 . S
C1181 C1180 1.392 . S
C1181 H1193 0.929 . S
C1182 C1178 1.531 . S
C1182 H1194 0.960 . S
C1182 H1195 0.962 . S
C1182 H1196 0.960 . S
C1183 C1180 1.511 . S
C1183 H1197 0.961 . S
C1183 H1198 0.961 . S
C1183 H1199 0.961 . S
C1184 C1185 1.370 . S
C1184 C1186 1.363 . S
C1184 H1200 0.931 . S
C1185 C1184 1.370 . S
C1185 C1189 1.408 . S
C1186 C1184 1.363 . S
C1186 C1187 1.370 . S
C1186 C1190 1.524 . S
C1187 C1179 1.503 . S
C1187 C1186 1.370 . S
C1187 C1188 1.403 . S
C1188 C1187 1.403 . S
C1188 C1189 1.404 . S
C1188 C1191 1.539 . S
C1189 C1185 1.408 . S
C1189 C1188 1.404 . S
C1189 H1201 0.930 . S
C1190 C1186 1.524 . S
C1190 H1202 0.956 . S
C1190 H1203 0.961 . S
C1190 H1204 0.961 . S
C1191 C1188 1.539 . S
C1191 H1205 0.958 . S
C1191 H1206 0.961 . S
C1191 H1207 0.960 . S
H1192 C1176 0.931 . S
H1193 C1181 0.929 . S
H1194 C1182 0.960 . S
H1195 C1182 0.962 . S
H1196 C1182 0.960 . S
H1197 C1183 0.961 . S
H1198 C1183 0.961 . S
H1199 C1183 0.961 . S
H1200 C1184 0.931 . S
H1201 C1189 0.930 . S
H1202 C1190 0.956 . S
H1203 C1190 0.961 . S
H1204 C1190 0.961 . S
H1205 C1191 0.958 . S
H1206 C1191 0.961 . S
H1207 C1191 0.960 . S
C1208 C1209 1.391 . S
C1208 C1210 1.394 . S
C1208 H1224 0.931 . S
C1209 C1208 1.391 . S
C1209 C1213 1.376 . S
C1210 C1208 1.394 . S
C1210 C1211 1.369 . S
C1210 C1214 1.531 . S
C1211 C1210 1.369 . S
C1211 C1212 1.410 . S
C1211 C1219 1.503 . S
C1212 C1211 1.410 . S
C1212 C1213 1.392 . S
C1212 C1215 1.511 . S
C1213 C1209 1.376 . S
C1213 C1212 1.392 . S
C1213 H1225 0.929 . S
C1214 C1210 1.531 . S
C1214 H1226 0.960 . S
C1214 H1227 0.962 . S
C1214 H1228 0.960 . S
C1215 C1212 1.511 . S
C1215 H1229 0.961 . S
C1215 H1230 0.961 . S
C1215 H1231 0.961 . S
C1216 C1217 1.370 . S
C1216 C1218 1.363 . S
C1216 H1232 0.931 . S
C1217 C1216 1.370 . S
C1217 C1221 1.408 . S
C1218 C1216 1.363 . S
C1218 C1219 1.370 . S
C1218 C1222 1.524 . S
C1219 C1211 1.503 . S
C1219 C1218 1.370 . S
C1219 C1220 1.403 . S
C1220 C1219 1.403 . S
C1220 C1221 1.404 . S
C1220 C1223 1.539 . S
C1221 C1217 1.408 . S
C1221 C1220 1.404 . S
C1221 H1233 0.930 . S
C1222 C1218 1.524 . S
C1222 H1234 0.956 . S
C1222 H1235 0.961 . S
C1222 H1236 0.961 . S
C1223 C1220 1.539 . S
C1223 H1237 0.958 . S
C1223 H1238 0.961 . S
C1223 H1239 0.960 . S
H1224 C1208 0.931 . S
H1225 C1213 0.929 . S
H1226 C1214 0.960 . S
H1227 C1214 0.962 . S
H1228 C1214 0.960 . S
H1229 C1215 0.961 . S
H1230 C1215 0.961 . S
H1231 C1215 0.961 . S
H1232 C1216 0.931 . S
H1233 C1221 0.930 . S
H1234 C1222 0.956 . S
H1235 C1222 0.961 . S
H1236 C1222 0.961 . S
H1237 C1223 0.958 . S
H1238 C1223 0.961 . S
H1239 C1223 0.960 . S
C1240 C1241 1.391 . S
C1240 C1242 1.394 . S
C1240 H1256 0.931 . S
C1241 C1240 1.391 . S
C1241 C1245 1.376 . S
C1242 C1240 1.394 . S
C1242 C1243 1.369 . S
C1242 C1246 1.531 . S
C1243 C1242 1.369 . S
C1243 C1244 1.410 . S
C1243 C1251 1.503 . S
C1244 C1243 1.410 . S
C1244 C1245 1.392 . S
C1244 C1247 1.511 . S
C1245 C1241 1.376 . S
C1245 C1244 1.392 . S
C1245 H1257 0.929 . S
C1246 C1242 1.531 . S
C1246 H1258 0.960 . S
C1246 H1259 0.962 . S
C1246 H1260 0.960 . S
C1247 C1244 1.511 . S
C1247 H1261 0.961 . S
C1247 H1262 0.961 . S
C1247 H1263 0.961 . S
C1248 C1249 1.370 . S
C1248 C1250 1.363 . S
C1248 H1264 0.931 . S
C1249 C1248 1.370 . S
C1249 C1253 1.408 . S
C1250 C1248 1.363 . S
C1250 C1251 1.370 . S
C1250 C1254 1.524 . S
C1251 C1243 1.503 . S
C1251 C1250 1.370 . S
C1251 C1252 1.403 . S
C1252 C1251 1.403 . S
C1252 C1253 1.404 . S
C1252 C1255 1.539 . S
C1253 C1249 1.408 . S
C1253 C1252 1.404 . S
C1253 H1265 0.930 . S
C1254 C1250 1.524 . S
C1254 H1266 0.956 . S
C1254 H1267 0.961 . S
C1254 H1268 0.961 . S
C1255 C1252 1.539 . S
C1255 H1269 0.958 . S
C1255 H1270 0.961 . S
C1255 H1271 0.960 . S
H1256 C1240 0.931 . S
H1257 C1245 0.929 . S
H1258 C1246 0.960 . S
H1259 C1246 0.962 . S
H1260 C1246 0.960 . S
H1261 C1247 0.961 . S
H1262 C1247 0.961 . S
H1263 C1247 0.961 . S
H1264 C1248 0.931 . S
H1265 C1253 0.930 . S
H1266 C1254 0.956 . S
H1267 C1254 0.961 . S
H1268 C1254 0.961 . S
H1269 C1255 0.958 . S
H1270 C1255 0.961 . S
H1271 C1255 0.960 . S
C1272 C1273 1.391 1_556 S
C1272 C1274 1.394 . S
C1272 H1288 0.931 . S
C1273 C1272 1.391 1_554 S
C1273 C1277 1.376 . S
C1274 C1272 1.394 . S
C1274 C1275 1.369 . S
C1274 C1278 1.531 . S
C1275 C1274 1.369 . S
C1275 C1276 1.410 1_556 S
C1275 C1283 1.503 . S
C1276 C1275 1.410 1_554 S
C1276 C1277 1.392 . S
C1276 C1279 1.511 . S
C1277 C1273 1.376 . S
C1277 C1276 1.392 . S
C1277 H1289 0.929 . S
C1278 C1274 1.531 . S
C1278 H1290 0.960 . S
C1278 H1291 0.962 . S
C1278 H1292 0.960 . S
C1279 C1276 1.511 . S
C1279 H1293 0.961 . S
C1279 H1294 0.961 . S
C1279 H1295 0.961 . S
C1280 C1281 1.370 . S
C1280 C1282 1.363 1_556 S
C1280 H1296 0.931 1_556 S
C1281 C1280 1.370 . S
C1281 C1285 1.408 . S
C1282 C1280 1.363 1_554 S
C1282 C1283 1.370 1_554 S
C1282 C1286 1.524 . S
C1283 C1275 1.503 . S
C1283 C1282 1.370 1_556 S
C1283 C1284 1.403 . S
C1284 C1283 1.403 . S
C1284 C1285 1.404 . S
C1284 C1287 1.539 . S
C1285 C1281 1.408 . S
C1285 C1284 1.404 . S
C1285 H1297 0.930 . S
C1286 C1282 1.524 . S
C1286 H1298 0.956 . S
C1286 H1299 0.961 . S
C1286 H1300 0.961 . S
C1287 C1284 1.539 . S
C1287 H1301 0.958 . S
C1287 H1302 0.961 . S
C1287 H1303 0.960 . S
H1288 C1272 0.931 . S
H1289 C1277 0.929 . S
H1290 C1278 0.960 . S
H1291 C1278 0.962 . S
H1292 C1278 0.960 . S
H1293 C1279 0.961 . S
H1294 C1279 0.961 . S
H1295 C1279 0.961 . S
H1296 C1280 0.931 1_554 S
H1297 C1285 0.930 . S
H1298 C1286 0.956 . S
H1299 C1286 0.961 . S
H1300 C1286 0.961 . S
H1301 C1287 0.958 . S
H1302 C1287 0.961 . S
H1303 C1287 0.960 . S
C1304 C1305 1.391 . S
C1304 C1306 1.394 . S
C1304 H1320 0.931 . S
C1305 C1304 1.391 . S
C1305 C1309 1.376 . S
C1306 C1304 1.394 . S
C1306 C1307 1.369 . S
C1306 C1310 1.531 . S
C1307 C1306 1.369 . S
C1307 C1308 1.410 1_556 S
C1307 C1315 1.503 . S
C1308 C1307 1.410 1_554 S
C1308 C1309 1.392 1_554 S
C1308 C1311 1.511 . S
C1309 C1305 1.376 . S
C1309 C1308 1.392 1_556 S
C1309 H1321 0.929 1_556 S
C1310 C1306 1.531 . S
C1310 H1322 0.960 . S
C1310 H1323 0.962 . S
C1310 H1324 0.960 . S
C1311 C1308 1.511 . S
C1311 H1325 0.961 . S
C1311 H1326 0.961 . S
C1311 H1327 0.961 . S
C1312 C1313 1.370 . S
C1312 C1314 1.363 . S
C1312 H1328 0.931 . S
C1313 C1312 1.370 . S
C1313 C1317 1.408 1_554 S
C1314 C1312 1.363 . S
C1314 C1315 1.370 1_554 S
C1314 C1318 1.524 . S
C1315 C1307 1.503 . S
C1315 C1314 1.370 1_556 S
C1315 C1316 1.403 . S
C1316 C1315 1.403 . S
C1316 C1317 1.404 . S
C1316 C1319 1.539 . S
C1317 C1313 1.408 1_556 S
C1317 C1316 1.404 . S
C1317 H1329 0.930 . S
C1318 C1314 1.524 . S
C1318 H1330 0.956 . S
C1318 H1331 0.961 . S
C1318 H1332 0.961 . S
C1319 C1316 1.539 . S
C1319 H1333 0.958 . S
C1319 H1334 0.961 . S
C1319 H1335 0.960 . S
H1320 C1304 0.931 . S
H1321 C1309 0.929 1_554 S
H1322 C1310 0.960 . S
H1323 C1310 0.962 . S
H1324 C1310 0.960 . S
H1325 C1311 0.961 . S
H1326 C1311 0.961 . S
H1327 C1311 0.961 . S
H1328 C1312 0.931 . S
H1329 C1317 0.930 . S
H1330 C1318 0.956 . S
H1331 C1318 0.961 . S
H1332 C1318 0.961 . S
H1333 C1319 0.958 . S
H1334 C1319 0.961 . S
H1335 C1319 0.960 . S
C1336 C1337 1.391 . S
C1336 C1338 1.394 . S
C1336 H1352 0.931 . S
C1337 C1336 1.391 . S
C1337 C1341 1.376 1_554 S
C1338 C1336 1.394 . S
C1338 C1339 1.369 1_554 S
C1338 C1342 1.531 . S
C1339 C1338 1.369 1_556 S
C1339 C1340 1.410 . S
C1339 C1347 1.503 . S
C1340 C1339 1.410 . S
C1340 C1341 1.392 . S
C1340 C1343 1.511 . S
C1341 C1337 1.376 1_556 S
C1341 C1340 1.392 . S
C1341 H1353 0.929 . S
C1342 C1338 1.531 . S
C1342 H1354 0.960 . S
C1342 H1355 0.962 . S
C1342 H1356 0.960 . S
C1343 C1340 1.511 . S
C1343 H1357 0.961 . S
C1343 H1358 0.961 . S
C1343 H1359 0.961 . S
C1344 C1345 1.370 . S
C1344 C1346 1.363 . S
C1344 H1360 0.931 . S
C1345 C1344 1.370 . S
C1345 C1349 1.408 . S
C1346 C1344 1.363 . S
C1346 C1347 1.370 . S
C1346 C1350 1.524 1_556 S
C1347 C1339 1.503 . S
C1347 C1346 1.370 . S
C1347 C1348 1.403 . S
C1348 C1347 1.403 . S
C1348 C1349 1.404 . S
C1348 C1351 1.539 . S
C1349 C1345 1.408 . S
C1349 C1348 1.404 . S
C1349 H1361 0.930 . S
C1350 C1346 1.524 1_554 S
C1350 H1362 0.956 . S
C1350 H1363 0.961 . S
C1350 H1364 0.961 . S
C1351 C1348 1.539 . S
C1351 H1365 0.958 . S
C1351 H1366 0.961 . S
C1351 H1367 0.960 . S
H1352 C1336 0.931 . S
H1353 C1341 0.929 . S
H1354 C1342 0.960 . S
H1355 C1342 0.962 . S
H1356 C1342 0.960 . S
H1357 C1343 0.961 . S
H1358 C1343 0.961 . S
H1359 C1343 0.961 . S
H1360 C1344 0.931 . S
H1361 C1349 0.930 . S
H1362 C1350 0.956 . S
H1363 C1350 0.961 . S
H1364 C1350 0.961 . S
H1365 C1351 0.958 . S
H1366 C1351 0.961 . S
H1367 C1351 0.960 . S
C1368 C1369 1.391 . S
C1368 C1370 1.394 . S
C1368 H1384 0.931 . S
C1369 C1368 1.391 . S
C1369 C1373 1.376 . S
C1370 C1368 1.394 . S
C1370 C1371 1.369 . S
C1370 C1374 1.531 . S
C1371 C1370 1.369 . S
C1371 C1372 1.410 . S
C1371 C1379 1.503 . S
C1372 C1371 1.410 . S
C1372 C1373 1.392 . S
C1372 C1375 1.511 . S
C1373 C1369 1.376 . S
C1373 C1372 1.392 . S
C1373 H1385 0.929 . S
C1374 C1370 1.531 . S
C1374 H1386 0.960 . S
C1374 H1387 0.962 . S
C1374 H1388 0.960 . S
C1375 C1372 1.511 . S
C1375 H1389 0.961 . S
C1375 H1390 0.961 . S
C1375 H1391 0.961 . S
C1376 C1377 1.370 . S
C1376 C1378 1.363 . S
C1376 H1392 0.931 . S
C1377 C1376 1.370 . S
C1377 C1381 1.408 . S
C1378 C1376 1.363 . S
C1378 C1379 1.370 . S
C1378 C1382 1.524 . S
C1379 C1371 1.503 . S
C1379 C1378 1.370 . S
C1379 C1380 1.403 . S
C1380 C1379 1.403 . S
C1380 C1381 1.404 . S
C1380 C1383 1.539 . S
C1381 C1377 1.408 . S
C1381 C1380 1.404 . S
C1381 H1393 0.930 . S
C1382 C1378 1.524 . S
C1382 H1394 0.956 . S
C1382 H1395 0.961 . S
C1382 H1396 0.961 . S
C1383 C1380 1.539 . S
C1383 H1397 0.958 . S
C1383 H1398 0.961 . S
C1383 H1399 0.960 . S
H1384 C1368 0.931 . S
H1385 C1373 0.929 . S
H1386 C1374 0.960 . S
H1387 C1374 0.962 . S
H1388 C1374 0.960 . S
H1389 C1375 0.961 . S
H1390 C1375 0.961 . S
H1391 C1375 0.961 . S
H1392 C1376 0.931 . S
H1393 C1381 0.930 . S
H1394 C1382 0.956 . S
H1395 C1382 0.961 . S
H1396 C1382 0.961 . S
H1397 C1383 0.958 . S
H1398 C1383 0.961 . S
H1399 C1383 0.960 . S
C1400 C1401 1.391 . S
C1400 C1402 1.394 . S
C1400 H1416 0.931 . S
C1401 C1400 1.391 . S
C1401 C1405 1.376 . S
C1402 C1400 1.394 . S
C1402 C1403 1.369 . S
C1402 C1406 1.531 . S
C1403 C1402 1.369 . S
C1403 C1404 1.410 . S
C1403 C1411 1.503 . S
C1404 C1403 1.410 . S
C1404 C1405 1.392 . S
C1404 C1407 1.511 . S
C1405 C1401 1.376 . S
C1405 C1404 1.392 . S
C1405 H1417 0.929 . S
C1406 C1402 1.531 . S
C1406 H1418 0.960 . S
C1406 H1419 0.962 . S
C1406 H1420 0.960 . S
C1407 C1404 1.511 . S
C1407 H1421 0.961 . S
C1407 H1422 0.961 . S
C1407 H1423 0.961 . S
C1408 C1409 1.370 . S
C1408 C1410 1.363 . S
C1408 H1424 0.931 . S
C1409 C1408 1.370 . S
C1409 C1413 1.408 . S
C1410 C1408 1.363 . S
C1410 C1411 1.370 . S
C1410 C1414 1.524 . S
C1411 C1403 1.503 . S
C1411 C1410 1.370 . S
C1411 C1412 1.403 . S
C1412 C1411 1.403 . S
C1412 C1413 1.404 . S
C1412 C1415 1.539 . S
C1413 C1409 1.408 . S
C1413 C1412 1.404 . S
C1413 H1425 0.930 . S
C1414 C1410 1.524 . S
C1414 H1426 0.956 . S
C1414 H1427 0.961 . S
C1414 H1428 0.961 . S
C1415 C1412 1.539 . S
C1415 H1429 0.958 . S
C1415 H1430 0.961 . S
C1415 H1431 0.960 . S
H1416 C1400 0.931 . S
H1417 C1405 0.929 . S
H1418 C1406 0.960 . S
H1419 C1406 0.962 . S
H1420 C1406 0.960 . S
H1421 C1407 0.961 . S
H1422 C1407 0.961 . S
H1423 C1407 0.961 . S
H1424 C1408 0.931 . S
H1425 C1413 0.930 . S
H1426 C1414 0.956 . S
H1427 C1414 0.961 . S
H1428 C1414 0.961 . S
H1429 C1415 0.958 . S
H1430 C1415 0.961 . S
H1431 C1415 0.960 . S
C1432 C1433 1.391 . S
C1432 C1434 1.394 . S
C1432 H1448 0.931 . S
C1433 C1432 1.391 . S
C1433 C1437 1.376 . S
C1434 C1432 1.394 . S
C1434 C1435 1.369 . S
C1434 C1438 1.531 . S
C1435 C1434 1.369 . S
C1435 C1436 1.410 . S
C1435 C1443 1.503 . S
C1436 C1435 1.410 . S
C1436 C1437 1.392 . S
C1436 C1439 1.511 . S
C1437 C1433 1.376 . S
C1437 C1436 1.392 . S
C1437 H1449 0.929 . S
C1438 C1434 1.531 . S
C1438 H1450 0.960 . S
C1438 H1451 0.962 . S
C1438 H1452 0.960 . S
C1439 C1436 1.511 . S
C1439 H1453 0.961 . S
C1439 H1454 0.961 . S
C1439 H1455 0.961 . S
C1440 C1441 1.370 . S
C1440 C1442 1.363 . S
C1440 H1456 0.931 . S
C1441 C1440 1.370 . S
C1441 C1445 1.408 . S
C1442 C1440 1.363 . S
C1442 C1443 1.370 . S
C1442 C1446 1.524 . S
C1443 C1435 1.503 . S
C1443 C1442 1.370 . S
C1443 C1444 1.403 . S
C1444 C1443 1.403 . S
C1444 C1445 1.404 . S
C1444 C1447 1.539 . S
C1445 C1441 1.408 . S
C1445 C1444 1.404 . S
C1445 H1457 0.930 . S
C1446 C1442 1.524 . S
C1446 H1458 0.956 . S
C1446 H1459 0.961 . S
C1446 H1460 0.961 . S
C1447 C1444 1.539 . S
C1447 H1461 0.958 . S
C1447 H1462 0.961 . S
C1447 H1463 0.960 . S
H1448 C1432 0.931 . S
H1449 C1437 0.929 . S
H1450 C1438 0.960 . S
H1451 C1438 0.962 . S
H1452 C1438 0.960 . S
H1453 C1439 0.961 . S
H1454 C1439 0.961 . S
H1455 C1439 0.961 . S
H1456 C1440 0.931 . S
H1457 C1445 0.930 . S
H1458 C1446 0.956 . S
H1459 C1446 0.961 . S
H1460 C1446 0.961 . S
H1461 C1447 0.958 . S
H1462 C1447 0.961 . S
H1463 C1447 0.960 . S
C1464 C1465 1.391 . S
C1464 C1466 1.394 . S
C1464 H1480 0.931 . S
C1465 C1464 1.391 . S
C1465 C1469 1.376 . S
C1466 C1464 1.394 . S
C1466 C1467 1.369 . S
C1466 C1470 1.531 . S
C1467 C1466 1.369 . S
C1467 C1468 1.410 . S
C1467 C1475 1.503 . S
C1468 C1467 1.410 . S
C1468 C1469 1.392 . S
C1468 C1471 1.511 . S
C1469 C1465 1.376 . S
C1469 C1468 1.392 . S
C1469 H1481 0.929 . S
C1470 C1466 1.531 . S
C1470 H1482 0.960 . S
C1470 H1483 0.962 . S
C1470 H1484 0.960 . S
C1471 C1468 1.511 . S
C1471 H1485 0.961 . S
C1471 H1486 0.961 . S
C1471 H1487 0.961 . S
C1472 C1473 1.370 . S
C1472 C1474 1.363 . S
C1472 H1488 0.931 . S
C1473 C1472 1.370 . S
C1473 C1477 1.408 . S
C1474 C1472 1.363 . S
C1474 C1475 1.370 . S
C1474 C1478 1.524 . S
C1475 C1467 1.503 . S
C1475 C1474 1.370 . S
C1475 C1476 1.403 . S
C1476 C1475 1.403 . S
C1476 C1477 1.404 . S
C1476 C1479 1.539 . S
C1477 C1473 1.408 . S
C1477 C1476 1.404 . S
C1477 H1489 0.930 . S
C1478 C1474 1.524 . S
C1478 H1490 0.956 . S
C1478 H1491 0.961 . S
C1478 H1492 0.961 . S
C1479 C1476 1.539 . S
C1479 H1493 0.958 . S
C1479 H1494 0.961 . S
C1479 H1495 0.960 . S
H1480 C1464 0.931 . S
H1481 C1469 0.929 . S
H1482 C1470 0.960 . S
H1483 C1470 0.962 . S
H1484 C1470 0.960 . S
H1485 C1471 0.961 . S
H1486 C1471 0.961 . S
H1487 C1471 0.961 . S
H1488 C1472 0.931 . S
H1489 C1477 0.930 . S
H1490 C1478 0.956 . S
H1491 C1478 0.961 . S
H1492 C1478 0.961 . S
H1493 C1479 0.958 . S
H1494 C1479 0.961 . S
H1495 C1479 0.960 . S
C1496 C1497 1.391 . S
C1496 C1498 1.394 . S
C1496 H1512 0.931 . S
C1497 C1496 1.391 . S
C1497 C1501 1.376 . S
C1498 C1496 1.394 . S
C1498 C1499 1.369 . S
C1498 C1502 1.531 . S
C1499 C1498 1.369 . S
C1499 C1500 1.410 . S
C1499 C1507 1.503 . S
C1500 C1499 1.410 . S
C1500 C1501 1.392 . S
C1500 C1503 1.511 . S
C1501 C1497 1.376 . S
C1501 C1500 1.392 . S
C1501 H1513 0.929 . S
C1502 C1498 1.531 . S
C1502 H1514 0.960 . S
C1502 H1515 0.962 . S
C1502 H1516 0.960 . S
C1503 C1500 1.511 . S
C1503 H1517 0.961 . S
C1503 H1518 0.961 . S
C1503 H1519 0.961 . S
C1504 C1505 1.370 . S
C1504 C1506 1.363 . S
C1504 H1520 0.931 . S
C1505 C1504 1.370 . S
C1505 C1509 1.408 . S
C1506 C1504 1.363 . S
C1506 C1507 1.370 . S
C1506 C1510 1.524 . S
C1507 C1499 1.503 . S
C1507 C1506 1.370 . S
C1507 C1508 1.403 . S
C1508 C1507 1.403 . S
C1508 C1509 1.404 . S
C1508 C1511 1.539 . S
C1509 C1505 1.408 . S
C1509 C1508 1.404 . S
C1509 H1521 0.930 . S
C1510 C1506 1.524 . S
C1510 H1522 0.956 . S
C1510 H1523 0.961 . S
C1510 H1524 0.961 . S
C1511 C1508 1.539 . S
C1511 H1525 0.958 . S
C1511 H1526 0.961 . S
C1511 H1527 0.960 . S
H1512 C1496 0.931 . S
H1513 C1501 0.929 . S
H1514 C1502 0.960 . S
H1515 C1502 0.962 . S
H1516 C1502 0.960 . S
H1517 C1503 0.961 . S
H1518 C1503 0.961 . S
H1519 C1503 0.961 . S
H1520 C1504 0.931 . S
H1521 C1509 0.930 . S
H1522 C1510 0.956 . S
H1523 C1510 0.961 . S
H1524 C1510 0.961 . S
H1525 C1511 0.958 . S
H1526 C1511 0.961 . S
H1527 C1511 0.960 . S
C1528 C1529 1.391 . S
C1528 C1530 1.394 . S
C1528 H1544 0.931 . S
C1529 C1528 1.391 . S
C1529 C1533 1.376 . S
C1530 C1528 1.394 . S
C1530 C1531 1.369 . S
C1530 C1534 1.531 . S
C1531 C1530 1.369 . S
C1531 C1532 1.410 . S
C1531 C1539 1.503 . S
C1532 C1531 1.410 . S
C1532 C1533 1.392 . S
C1532 C1535 1.511 . S
C1533 C1529 1.376 . S
C1533 C1532 1.392 . S
C1533 H1545 0.929 . S
C1534 C1530 1.531 . S
C1534 H1546 0.960 . S
C1534 H1547 0.962 . S
C1534 H1548 0.960 . S
C1535 C1532 1.511 . S
C1535 H1549 0.961 . S
C1535 H1550 0.961 . S
C1535 H1551 0.961 . S
C1536 C1537 1.370 . S
C1536 C1538 1.363 . S
C1536 H1552 0.931 . S
C1537 C1536 1.370 . S
C1537 C1541 1.408 . S
C1538 C1536 1.363 . S
C1538 C1539 1.370 . S
C1538 C1542 1.524 . S
C1539 C1531 1.503 . S
C1539 C1538 1.370 . S
C1539 C1540 1.403 . S
C1540 C1539 1.403 . S
C1540 C1541 1.404 . S
C1540 C1543 1.539 . S
C1541 C1537 1.408 . S
C1541 C1540 1.404 . S
C1541 H1553 0.930 . S
C1542 C1538 1.524 . S
C1542 H1554 0.956 . S
C1542 H1555 0.961 . S
C1542 H1556 0.961 . S
C1543 C1540 1.539 . S
C1543 H1557 0.958 . S
C1543 H1558 0.961 . S
C1543 H1559 0.960 . S
H1544 C1528 0.931 . S
H1545 C1533 0.929 . S
H1546 C1534 0.960 . S
H1547 C1534 0.962 . S
H1548 C1534 0.960 . S
H1549 C1535 0.961 . S
H1550 C1535 0.961 . S
H1551 C1535 0.961 . S
H1552 C1536 0.931 . S
H1553 C1541 0.930 . S
H1554 C1542 0.956 . S
H1555 C1542 0.961 . S
H1556 C1542 0.961 . S
H1557 C1543 0.958 . S
H1558 C1543 0.961 . S
H1559 C1543 0.960 . S
C1560 C1561 1.391 . S
C1560 C1562 1.394 . S
C1560 H1576 0.931 . S
C1561 C1560 1.391 . S
C1561 C1565 1.376 . S
C1562 C1560 1.394 . S
C1562 C1563 1.369 . S
C1562 C1566 1.531 . S
C1563 C1562 1.369 . S
C1563 C1564 1.410 . S
C1563 C1571 1.503 . S
C1564 C1563 1.410 . S
C1564 C1565 1.392 . S
C1564 C1567 1.511 . S
C1565 C1561 1.376 . S
C1565 C1564 1.392 . S
C1565 H1577 0.929 . S
C1566 C1562 1.531 . S
C1566 H1578 0.960 . S
C1566 H1579 0.962 . S
C1566 H1580 0.960 . S
C1567 C1564 1.511 . S
C1567 H1581 0.961 . S
C1567 H1582 0.961 . S
C1567 H1583 0.961 . S
C1568 C1569 1.370 . S
C1568 C1570 1.363 . S
C1568 H1584 0.931 . S
C1569 C1568 1.370 . S
C1569 C1573 1.408 . S
C1570 C1568 1.363 . S
C1570 C1571 1.370 . S
C1570 C1574 1.524 . S
C1571 C1563 1.503 . S
C1571 C1570 1.370 . S
C1571 C1572 1.403 . S
C1572 C1571 1.403 . S
C1572 C1573 1.404 . S
C1572 C1575 1.539 . S
C1573 C1569 1.408 . S
C1573 C1572 1.404 . S
C1573 H1585 0.930 . S
C1574 C1570 1.524 . S
C1574 H1586 0.956 . S
C1574 H1587 0.961 . S
C1574 H1588 0.961 . S
C1575 C1572 1.539 . S
C1575 H1589 0.958 . S
C1575 H1590 0.961 . S
C1575 H1591 0.960 . S
H1576 C1560 0.931 . S
H1577 C1565 0.929 . S
H1578 C1566 0.960 . S
H1579 C1566 0.962 . S
H1580 C1566 0.960 . S
H1581 C1567 0.961 . S
H1582 C1567 0.961 . S
H1583 C1567 0.961 . S
H1584 C1568 0.931 . S
H1585 C1573 0.930 . S
H1586 C1574 0.956 . S
H1587 C1574 0.961 . S
H1588 C1574 0.961 . S
H1589 C1575 0.958 . S
H1590 C1575 0.961 . S
H1591 C1575 0.960 . S
C1592 C1593 1.391 . S
C1592 C1594 1.394 . S
C1592 H1608 0.931 . S
C1593 C1592 1.391 . S
C1593 C1597 1.376 . S
C1594 C1592 1.394 . S
C1594 C1595 1.369 . S
C1594 C1598 1.531 . S
C1595 C1594 1.369 . S
C1595 C1596 1.410 . S
C1595 C1603 1.503 . S
C1596 C1595 1.410 . S
C1596 C1597 1.392 . S
C1596 C1599 1.511 . S
C1597 C1593 1.376 . S
C1597 C1596 1.392 . S
C1597 H1609 0.929 . S
C1598 C1594 1.531 . S
C1598 H1610 0.960 . S
C1598 H1611 0.962 . S
C1598 H1612 0.960 . S
C1599 C1596 1.511 . S
C1599 H1613 0.961 . S
C1599 H1614 0.961 . S
C1599 H1615 0.961 . S
C1600 C1601 1.370 . S
C1600 C1602 1.363 . S
C1600 H1616 0.931 . S
C1601 C1600 1.370 . S
C1601 C1605 1.408 . S
C1602 C1600 1.363 . S
C1602 C1603 1.370 . S
C1602 C1606 1.524 . S
C1603 C1595 1.503 . S
C1603 C1602 1.370 . S
C1603 C1604 1.403 . S
C1604 C1603 1.403 . S
C1604 C1605 1.404 . S
C1604 C1607 1.539 . S
C1605 C1601 1.408 . S
C1605 C1604 1.404 . S
C1605 H1617 0.930 . S
C1606 C1602 1.524 . S
C1606 H1618 0.956 . S
C1606 H1619 0.961 . S
C1606 H1620 0.961 . S
C1607 C1604 1.539 . S
C1607 H1621 0.958 . S
C1607 H1622 0.961 . S
C1607 H1623 0.960 . S
H1608 C1592 0.931 . S
H1609 C1597 0.929 . S
H1610 C1598 0.960 . S
H1611 C1598 0.962 . S
H1612 C1598 0.960 . S
H1613 C1599 0.961 . S
H1614 C1599 0.961 . S
H1615 C1599 0.961 . S
H1616 C1600 0.931 . S
H1617 C1605 0.930 . S
H1618 C1606 0.956 . S
H1619 C1606 0.961 . S
H1620 C1606 0.961 . S
H1621 C1607 0.958 . S
H1622 C1607 0.961 . S
H1623 C1607 0.960 . S
C1624 C1625 1.391 . S
C1624 C1626 1.394 . S
C1624 H1640 0.931 . S
C1625 C1624 1.391 . S
C1625 C1629 1.376 . S
C1626 C1624 1.394 . S
C1626 C1627 1.369 . S
C1626 C1630 1.531 . S
C1627 C1626 1.369 . S
C1627 C1628 1.410 . S
C1627 C1635 1.503 . S
C1628 C1627 1.410 . S
C1628 C1629 1.392 . S
C1628 C1631 1.511 . S
C1629 C1625 1.376 . S
C1629 C1628 1.392 . S
C1629 H1641 0.929 . S
C1630 C1626 1.531 . S
C1630 H1642 0.960 . S
C1630 H1643 0.962 . S
C1630 H1644 0.960 . S
C1631 C1628 1.511 . S
C1631 H1645 0.961 . S
C1631 H1646 0.961 . S
C1631 H1647 0.961 . S
C1632 C1633 1.370 . S
C1632 C1634 1.363 . S
C1632 H1648 0.931 . S
C1633 C1632 1.370 . S
C1633 C1637 1.408 . S
C1634 C1632 1.363 . S
C1634 C1635 1.370 . S
C1634 C1638 1.524 . S
C1635 C1627 1.503 . S
C1635 C1634 1.370 . S
C1635 C1636 1.403 . S
C1636 C1635 1.403 . S
C1636 C1637 1.404 . S
C1636 C1639 1.539 . S
C1637 C1633 1.408 . S
C1637 C1636 1.404 . S
C1637 H1649 0.930 . S
C1638 C1634 1.524 . S
C1638 H1650 0.956 . S
C1638 H1651 0.961 . S
C1638 H1652 0.961 . S
C1639 C1636 1.539 . S
C1639 H1653 0.958 . S
C1639 H1654 0.961 . S
C1639 H1655 0.960 . S
H1640 C1624 0.931 . S
H1641 C1629 0.929 . S
H1642 C1630 0.960 . S
H1643 C1630 0.962 . S
H1644 C1630 0.960 . S
H1645 C1631 0.961 . S
H1646 C1631 0.961 . S
H1647 C1631 0.961 . S
H1648 C1632 0.931 . S
H1649 C1637 0.930 . S
H1650 C1638 0.956 . S
H1651 C1638 0.961 . S
H1652 C1638 0.961 . S
H1653 C1639 0.958 . S
H1654 C1639 0.961 . S
H1655 C1639 0.960 . S
C1656 C1657 1.391 . S
C1656 C1658 1.394 . S
C1656 H1672 0.931 . S
C1657 C1656 1.391 . S
C1657 C1661 1.376 . S
C1658 C1656 1.394 . S
C1658 C1659 1.369 . S
C1658 C1662 1.531 . S
C1659 C1658 1.369 . S
C1659 C1660 1.410 . S
C1659 C1667 1.503 . S
C1660 C1659 1.410 . S
C1660 C1661 1.392 . S
C1660 C1663 1.511 . S
C1661 C1657 1.376 . S
C1661 C1660 1.392 . S
C1661 H1673 0.929 . S
C1662 C1658 1.531 . S
C1662 H1674 0.960 . S
C1662 H1675 0.962 . S
C1662 H1676 0.960 . S
C1663 C1660 1.511 . S
C1663 H1677 0.961 . S
C1663 H1678 0.961 . S
C1663 H1679 0.961 . S
C1664 C1665 1.370 . S
C1664 C1666 1.363 . S
C1664 H1680 0.931 . S
C1665 C1664 1.370 . S
C1665 C1669 1.408 . S
C1666 C1664 1.363 . S
C1666 C1667 1.370 . S
C1666 C1670 1.524 . S
C1667 C1659 1.503 . S
C1667 C1666 1.370 . S
C1667 C1668 1.403 . S
C1668 C1667 1.403 . S
C1668 C1669 1.404 . S
C1668 C1671 1.539 . S
C1669 C1665 1.408 . S
C1669 C1668 1.404 . S
C1669 H1681 0.930 . S
C1670 C1666 1.524 . S
C1670 H1682 0.956 . S
C1670 H1683 0.961 . S
C1670 H1684 0.961 . S
C1671 C1668 1.539 . S
C1671 H1685 0.958 . S
C1671 H1686 0.961 . S
C1671 H1687 0.960 . S
H1672 C1656 0.931 . S
H1673 C1661 0.929 . S
H1674 C1662 0.960 . S
H1675 C1662 0.962 . S
H1676 C1662 0.960 . S
H1677 C1663 0.961 . S
H1678 C1663 0.961 . S
H1679 C1663 0.961 . S
H1680 C1664 0.931 . S
H1681 C1669 0.930 . S
H1682 C1670 0.956 . S
H1683 C1670 0.961 . S
H1684 C1670 0.961 . S
H1685 C1671 0.958 . S
H1686 C1671 0.961 . S
H1687 C1671 0.960 . S
C1688 C1689 1.391 . S
C1688 C1690 1.394 . S
C1688 H1704 0.931 . S
C1689 C1688 1.391 . S
C1689 C1693 1.376 . S
C1690 C1688 1.394 . S
C1690 C1691 1.369 . S
C1690 C1694 1.531 . S
C1691 C1690 1.369 . S
C1691 C1692 1.410 . S
C1691 C1699 1.503 . S
C1692 C1691 1.410 . S
C1692 C1693 1.392 . S
C1692 C1695 1.511 . S
C1693 C1689 1.376 . S
C1693 C1692 1.392 . S
C1693 H1705 0.929 . S
C1694 C1690 1.531 . S
C1694 H1706 0.960 . S
C1694 H1707 0.962 . S
C1694 H1708 0.960 . S
C1695 C1692 1.511 . S
C1695 H1709 0.961 . S
C1695 H1710 0.961 . S
C1695 H1711 0.961 . S
C1696 C1697 1.370 . S
C1696 C1698 1.363 . S
C1696 H1712 0.931 . S
C1697 C1696 1.370 . S
C1697 C1701 1.408 . S
C1698 C1696 1.363 . S
C1698 C1699 1.370 . S
C1698 C1702 1.524 . S
C1699 C1691 1.503 . S
C1699 C1698 1.370 . S
C1699 C1700 1.403 . S
C1700 C1699 1.403 . S
C1700 C1701 1.404 . S
C1700 C1703 1.539 . S
C1701 C1697 1.408 . S
C1701 C1700 1.404 . S
C1701 H1713 0.930 . S
C1702 C1698 1.524 . S
C1702 H1714 0.956 . S
C1702 H1715 0.961 . S
C1702 H1716 0.961 . S
C1703 C1700 1.539 . S
C1703 H1717 0.958 . S
C1703 H1718 0.961 . S
C1703 H1719 0.960 . S
H1704 C1688 0.931 . S
H1705 C1693 0.929 . S
H1706 C1694 0.960 . S
H1707 C1694 0.962 . S
H1708 C1694 0.960 . S
H1709 C1695 0.961 . S
H1710 C1695 0.961 . S
H1711 C1695 0.961 . S
H1712 C1696 0.931 . S
H1713 C1701 0.930 . S
H1714 C1702 0.956 . S
H1715 C1702 0.961 . S
H1716 C1702 0.961 . S
H1717 C1703 0.958 . S
H1718 C1703 0.961 . S
H1719 C1703 0.960 . S
C1720 C1721 1.391 . S
C1720 C1722 1.394 . S
C1720 H1736 0.931 . S
C1721 C1720 1.391 . S
C1721 C1725 1.376 . S
C1722 C1720 1.394 . S
C1722 C1723 1.369 . S
C1722 C1726 1.531 . S
C1723 C1722 1.369 . S
C1723 C1724 1.410 . S
C1723 C1731 1.503 . S
C1724 C1723 1.410 . S
C1724 C1725 1.392 . S
C1724 C1727 1.511 . S
C1725 C1721 1.376 . S
C1725 C1724 1.392 . S
C1725 H1737 0.929 . S
C1726 C1722 1.531 . S
C1726 H1738 0.960 . S
C1726 H1739 0.962 . S
C1726 H1740 0.960 . S
C1727 C1724 1.511 . S
C1727 H1741 0.961 . S
C1727 H1742 0.961 . S
C1727 H1743 0.961 . S
C1728 C1729 1.370 . S
C1728 C1730 1.363 . S
C1728 H1744 0.931 . S
C1729 C1728 1.370 . S
C1729 C1733 1.408 . S
C1730 C1728 1.363 . S
C1730 C1731 1.370 . S
C1730 C1734 1.524 . S
C1731 C1723 1.503 . S
C1731 C1730 1.370 . S
C1731 C1732 1.403 . S
C1732 C1731 1.403 . S
C1732 C1733 1.404 . S
C1732 C1735 1.539 . S
C1733 C1729 1.408 . S
C1733 C1732 1.404 . S
C1733 H1745 0.930 . S
C1734 C1730 1.524 . S
C1734 H1746 0.956 . S
C1734 H1747 0.961 . S
C1734 H1748 0.961 . S
C1735 C1732 1.539 . S
C1735 H1749 0.958 . S
C1735 H1750 0.961 . S
C1735 H1751 0.960 . S
H1736 C1720 0.931 . S
H1737 C1725 0.929 . S
H1738 C1726 0.960 . S
H1739 C1726 0.962 . S
H1740 C1726 0.960 . S
H1741 C1727 0.961 . S
H1742 C1727 0.961 . S
H1743 C1727 0.961 . S
H1744 C1728 0.931 . S
H1745 C1733 0.930 . S
H1746 C1734 0.956 . S
H1747 C1734 0.961 . S
H1748 C1734 0.961 . S
H1749 C1735 0.958 . S
H1750 C1735 0.961 . S
H1751 C1735 0.960 . S
C1752 C1753 1.391 . S
C1752 C1754 1.394 . S
C1752 H1768 0.931 . S
C1753 C1752 1.391 . S
C1753 C1757 1.376 . S
C1754 C1752 1.394 . S
C1754 C1755 1.369 . S
C1754 C1758 1.531 . S
C1755 C1754 1.369 . S
C1755 C1756 1.410 . S
C1755 C1763 1.503 . S
C1756 C1755 1.410 . S
C1756 C1757 1.392 . S
C1756 C1759 1.511 . S
C1757 C1753 1.376 . S
C1757 C1756 1.392 . S
C1757 H1769 0.929 . S
C1758 C1754 1.531 . S
C1758 H1770 0.960 . S
C1758 H1771 0.962 . S
C1758 H1772 0.960 . S
C1759 C1756 1.511 . S
C1759 H1773 0.961 . S
C1759 H1774 0.961 . S
C1759 H1775 0.961 . S
C1760 C1761 1.370 . S
C1760 C1762 1.363 . S
C1760 H1776 0.931 . S
C1761 C1760 1.370 . S
C1761 C1765 1.408 . S
C1762 C1760 1.363 . S
C1762 C1763 1.370 . S
C1762 C1766 1.524 . S
C1763 C1755 1.503 . S
C1763 C1762 1.370 . S
C1763 C1764 1.403 . S
C1764 C1763 1.403 . S
C1764 C1765 1.404 . S
C1764 C1767 1.539 . S
C1765 C1761 1.408 . S
C1765 C1764 1.404 . S
C1765 H1777 0.930 . S
C1766 C1762 1.524 . S
C1766 H1778 0.956 . S
C1766 H1779 0.961 . S
C1766 H1780 0.961 . S
C1767 C1764 1.539 . S
C1767 H1781 0.958 . S
C1767 H1782 0.961 . S
C1767 H1783 0.960 . S
H1768 C1752 0.931 . S
H1769 C1757 0.929 . S
H1770 C1758 0.960 . S
H1771 C1758 0.962 . S
H1772 C1758 0.960 . S
H1773 C1759 0.961 . S
H1774 C1759 0.961 . S
H1775 C1759 0.961 . S
H1776 C1760 0.931 . S
H1777 C1765 0.930 . S
H1778 C1766 0.956 . S
H1779 C1766 0.961 . S
H1780 C1766 0.961 . S
H1781 C1767 0.958 . S
H1782 C1767 0.961 . S
H1783 C1767 0.960 . S
C1784 C1785 1.391 . S
C1784 C1786 1.394 . S
C1784 H1800 0.931 . S
C1785 C1784 1.391 . S
C1785 C1789 1.376 . S
C1786 C1784 1.394 . S
C1786 C1787 1.369 . S
C1786 C1790 1.531 . S
C1787 C1786 1.369 . S
C1787 C1788 1.410 . S
C1787 C1795 1.503 . S
C1788 C1787 1.410 . S
C1788 C1789 1.392 . S
C1788 C1791 1.511 . S
C1789 C1785 1.376 . S
C1789 C1788 1.392 . S
C1789 H1801 0.929 . S
C1790 C1786 1.531 . S
C1790 H1802 0.960 . S
C1790 H1803 0.962 . S
C1790 H1804 0.960 . S
C1791 C1788 1.511 . S
C1791 H1805 0.961 . S
C1791 H1806 0.961 . S
C1791 H1807 0.961 . S
C1792 C1793 1.370 . S
C1792 C1794 1.363 . S
C1792 H1808 0.931 . S
C1793 C1792 1.370 . S
C1793 C1797 1.408 . S
C1794 C1792 1.363 . S
C1794 C1795 1.370 . S
C1794 C1798 1.524 . S
C1795 C1787 1.503 . S
C1795 C1794 1.370 . S
C1795 C1796 1.403 . S
C1796 C1795 1.403 . S
C1796 C1797 1.404 . S
C1796 C1799 1.539 . S
C1797 C1793 1.408 . S
C1797 C1796 1.404 . S
C1797 H1809 0.930 . S
C1798 C1794 1.524 . S
C1798 H1810 0.956 . S
C1798 H1811 0.961 . S
C1798 H1812 0.961 . S
C1799 C1796 1.539 . S
C1799 H1813 0.958 . S
C1799 H1814 0.961 . S
C1799 H1815 0.960 . S
H1800 C1784 0.931 . S
H1801 C1789 0.929 . S
H1802 C1790 0.960 . S
H1803 C1790 0.962 . S
H1804 C1790 0.960 . S
H1805 C1791 0.961 . S
H1806 C1791 0.961 . S
H1807 C1791 0.961 . S
H1808 C1792 0.931 . S
H1809 C1797 0.930 . S
H1810 C1798 0.956 . S
H1811 C1798 0.961 . S
H1812 C1798 0.961 . S
H1813 C1799 0.958 . S
H1814 C1799 0.961 . S
H1815 C1799 0.960 . S
C1816 C1817 1.391 . S
C1816 C1818 1.394 . S
C1816 H1832 0.931 . S
C1817 C1816 1.391 . S
C1817 C1821 1.376 . S
C1818 C1816 1.394 . S
C1818 C1819 1.369 . S
C1818 C1822 1.531 . S
C1819 C1818 1.369 . S
C1819 C1820 1.410 . S
C1819 C1827 1.503 . S
C1820 C1819 1.410 . S
C1820 C1821 1.392 . S
C1820 C1823 1.511 . S
C1821 C1817 1.376 . S
C1821 C1820 1.392 . S
C1821 H1833 0.929 . S
C1822 C1818 1.531 . S
C1822 H1834 0.960 . S
C1822 H1835 0.962 . S
C1822 H1836 0.960 . S
C1823 C1820 1.511 . S
C1823 H1837 0.961 . S
C1823 H1838 0.961 . S
C1823 H1839 0.961 . S
C1824 C1825 1.370 . S
C1824 C1826 1.363 . S
C1824 H1840 0.931 . S
C1825 C1824 1.370 . S
C1825 C1829 1.408 . S
C1826 C1824 1.363 . S
C1826 C1827 1.370 . S
C1826 C1830 1.524 . S
C1827 C1819 1.503 . S
C1827 C1826 1.370 . S
C1827 C1828 1.403 . S
C1828 C1827 1.403 . S
C1828 C1829 1.404 . S
C1828 C1831 1.539 . S
C1829 C1825 1.408 . S
C1829 C1828 1.404 . S
C1829 H1841 0.930 . S
C1830 C1826 1.524 . S
C1830 H1842 0.956 . S
C1830 H1843 0.961 . S
C1830 H1844 0.961 . S
C1831 C1828 1.539 . S
C1831 H1845 0.958 . S
C1831 H1846 0.961 . S
C1831 H1847 0.960 . S
H1832 C1816 0.931 . S
H1833 C1821 0.929 . S
H1834 C1822 0.960 . S
H1835 C1822 0.962 . S
H1836 C1822 0.960 . S
H1837 C1823 0.961 . S
H1838 C1823 0.961 . S
H1839 C1823 0.961 . S
H1840 C1824 0.931 . S
H1841 C1829 0.930 . S
H1842 C1830 0.956 . S
H1843 C1830 0.961 . S
H1844 C1830 0.961 . S
H1845 C1831 0.958 . S
H1846 C1831 0.961 . S
H1847 C1831 0.960 . S
C1848 C1849 1.391 . S
C1848 C1850 1.394 . S
C1848 H1864 0.931 . S
C1849 C1848 1.391 . S
C1849 C1853 1.376 . S
C1850 C1848 1.394 . S
C1850 C1851 1.369 . S
C1850 C1854 1.531 . S
C1851 C1850 1.369 . S
C1851 C1852 1.410 . S
C1851 C1859 1.503 . S
C1852 C1851 1.410 . S
C1852 C1853 1.392 . S
C1852 C1855 1.511 . S
C1853 C1849 1.376 . S
C1853 C1852 1.392 . S
C1853 H1865 0.929 . S
C1854 C1850 1.531 . S
C1854 H1866 0.960 . S
C1854 H1867 0.962 . S
C1854 H1868 0.960 . S
C1855 C1852 1.511 . S
C1855 H1869 0.961 . S
C1855 H1870 0.961 . S
C1855 H1871 0.961 . S
C1856 C1857 1.370 . S
C1856 C1858 1.363 . S
C1856 H1872 0.931 . S
C1857 C1856 1.370 . S
C1857 C1861 1.408 . S
C1858 C1856 1.363 . S
C1858 C1859 1.370 . S
C1858 C1862 1.524 . S
C1859 C1851 1.503 . S
C1859 C1858 1.370 . S
C1859 C1860 1.403 . S
C1860 C1859 1.403 . S
C1860 C1861 1.404 . S
C1860 C1863 1.539 . S
C1861 C1857 1.408 . S
C1861 C1860 1.404 . S
C1861 H1873 0.930 . S
C1862 C1858 1.524 . S
C1862 H1874 0.956 . S
C1862 H1875 0.961 . S
C1862 H1876 0.961 . S
C1863 C1860 1.539 . S
C1863 H1877 0.958 . S
C1863 H1878 0.961 . S
C1863 H1879 0.960 . S
H1864 C1848 0.931 . S
H1865 C1853 0.929 . S
H1866 C1854 0.960 . S
H1867 C1854 0.962 . S
H1868 C1854 0.960 . S
H1869 C1855 0.961 . S
H1870 C1855 0.961 . S
H1871 C1855 0.961 . S
H1872 C1856 0.931 . S
H1873 C1861 0.930 . S
H1874 C1862 0.956 . S
H1875 C1862 0.961 . S
H1876 C1862 0.961 . S
H1877 C1863 0.958 . S
H1878 C1863 0.961 . S
H1879 C1863 0.960 . S
C1880 C1881 1.391 . S
C1880 C1882 1.394 . S
C1880 H1896 0.931 . S
C1881 C1880 1.391 . S
C1881 C1885 1.376 . S
C1882 C1880 1.394 . S
C1882 C1883 1.369 . S
C1882 C1886 1.531 . S
C1883 C1882 1.369 . S
C1883 C1884 1.410 . S
C1883 C1891 1.503 . S
C1884 C1883 1.410 . S
C1884 C1885 1.392 . S
C1884 C1887 1.511 . S
C1885 C1881 1.376 . S
C1885 C1884 1.392 . S
C1885 H1897 0.929 . S
C1886 C1882 1.531 . S
C1886 H1898 0.960 . S
C1886 H1899 0.962 . S
C1886 H1900 0.960 . S
C1887 C1884 1.511 . S
C1887 H1901 0.961 . S
C1887 H1902 0.961 . S
C1887 H1903 0.961 . S
C1888 C1889 1.370 . S
C1888 C1890 1.363 . S
C1888 H1904 0.931 . S
C1889 C1888 1.370 . S
C1889 C1893 1.408 . S
C1890 C1888 1.363 . S
C1890 C1891 1.370 . S
C1890 C1894 1.524 . S
C1891 C1883 1.503 . S
C1891 C1890 1.370 . S
C1891 C1892 1.403 . S
C1892 C1891 1.403 . S
C1892 C1893 1.404 . S
C1892 C1895 1.539 . S
C1893 C1889 1.408 . S
C1893 C1892 1.404 . S
C1893 H1905 0.930 . S
C1894 C1890 1.524 . S
C1894 H1906 0.956 . S
C1894 H1907 0.961 . S
C1894 H1908 0.961 . S
C1895 C1892 1.539 . S
C1895 H1909 0.958 . S
C1895 H1910 0.961 . S
C1895 H1911 0.960 . S
H1896 C1880 0.931 . S
H1897 C1885 0.929 . S
H1898 C1886 0.960 . S
H1899 C1886 0.962 . S
H1900 C1886 0.960 . S
H1901 C1887 0.961 . S
H1902 C1887 0.961 . S
H1903 C1887 0.961 . S
H1904 C1888 0.931 . S
H1905 C1893 0.930 . S
H1906 C1894 0.956 . S
H1907 C1894 0.961 . S
H1908 C1894 0.961 . S
H1909 C1895 0.958 . S
H1910 C1895 0.961 . S
H1911 C1895 0.960 . S
C1912 C1913 1.391 . S
C1912 C1914 1.394 . S
C1912 H1928 0.931 . S
C1913 C1912 1.391 . S
C1913 C1917 1.376 . S
C1914 C1912 1.394 . S
C1914 C1915 1.369 . S
C1914 C1918 1.531 . S
C1915 C1914 1.369 . S
C1915 C1916 1.410 . S
C1915 C1923 1.503 . S
C1916 C1915 1.410 . S
C1916 C1917 1.392 . S
C1916 C1919 1.511 . S
C1917 C1913 1.376 . S
C1917 C1916 1.392 . S
C1917 H1929 0.929 . S
C1918 C1914 1.531 . S
C1918 H1930 0.960 . S
C1918 H1931 0.962 . S
C1918 H1932 0.960 . S
C1919 C1916 1.511 . S
C1919 H1933 0.961 . S
C1919 H1934 0.961 . S
C1919 H1935 0.961 . S
C1920 C1921 1.370 . S
C1920 C1922 1.363 . S
C1920 H1936 0.931 . S
C1921 C1920 1.370 . S
C1921 C1925 1.408 . S
C1922 C1920 1.363 . S
C1922 C1923 1.370 . S
C1922 C1926 1.524 . S
C1923 C1915 1.503 . S
C1923 C1922 1.370 . S
C1923 C1924 1.403 . S
C1924 C1923 1.403 . S
C1924 C1925 1.404 . S
C1924 C1927 1.539 . S
C1925 C1921 1.408 . S
C1925 C1924 1.404 . S
C1925 H1937 0.930 . S
C1926 C1922 1.524 . S
C1926 H1938 0.956 . S
C1926 H1939 0.961 . S
C1926 H1940 0.961 . S
C1927 C1924 1.539 . S
C1927 H1941 0.958 . S
C1927 H1942 0.961 . S
C1927 H1943 0.960 . S
H1928 C1912 0.931 . S
H1929 C1917 0.929 . S
H1930 C1918 0.960 . S
H1931 C1918 0.962 . S
H1932 C1918 0.960 . S
H1933 C1919 0.961 . S
H1934 C1919 0.961 . S
H1935 C1919 0.961 . S
H1936 C1920 0.931 . S
H1937 C1925 0.930 . S
H1938 C1926 0.956 . S
H1939 C1926 0.961 . S
H1940 C1926 0.961 . S
H1941 C1927 0.958 . S
H1942 C1927 0.961 . S
H1943 C1927 0.960 . S
C1944 C1945 1.391 . S
C1944 C1946 1.394 . S
C1944 H1960 0.931 . S
C1945 C1944 1.391 . S
C1945 C1949 1.376 . S
C1946 C1944 1.394 . S
C1946 C1947 1.369 . S
C1946 C1950 1.531 . S
C1947 C1946 1.369 . S
C1947 C1948 1.410 . S
C1947 C1955 1.503 . S
C1948 C1947 1.410 . S
C1948 C1949 1.392 . S
C1948 C1951 1.511 . S
C1949 C1945 1.376 . S
C1949 C1948 1.392 . S
C1949 H1961 0.929 . S
C1950 C1946 1.531 . S
C1950 H1962 0.960 . S
C1950 H1963 0.962 . S
C1950 H1964 0.960 . S
C1951 C1948 1.511 . S
C1951 H1965 0.961 . S
C1951 H1966 0.961 . S
C1951 H1967 0.961 . S
C1952 C1953 1.370 . S
C1952 C1954 1.363 . S
C1952 H1968 0.931 . S
C1953 C1952 1.370 . S
C1953 C1957 1.408 . S
C1954 C1952 1.363 . S
C1954 C1955 1.370 . S
C1954 C1958 1.524 . S
C1955 C1947 1.503 . S
C1955 C1954 1.370 . S
C1955 C1956 1.403 . S
C1956 C1955 1.403 . S
C1956 C1957 1.404 . S
C1956 C1959 1.539 . S
C1957 C1953 1.408 . S
C1957 C1956 1.404 . S
C1957 H1969 0.930 . S
C1958 C1954 1.524 . S
C1958 H1970 0.956 . S
C1958 H1971 0.961 . S
C1958 H1972 0.961 . S
C1959 C1956 1.539 . S
C1959 H1973 0.958 . S
C1959 H1974 0.961 . S
C1959 H1975 0.960 . S
H1960 C1944 0.931 . S
H1961 C1949 0.929 . S
H1962 C1950 0.960 . S
H1963 C1950 0.962 . S
H1964 C1950 0.960 . S
H1965 C1951 0.961 . S
H1966 C1951 0.961 . S
H1967 C1951 0.961 . S
H1968 C1952 0.931 . S
H1969 C1957 0.930 . S
H1970 C1958 0.956 . S
H1971 C1958 0.961 . S
H1972 C1958 0.961 . S
H1973 C1959 0.958 . S
H1974 C1959 0.961 . S
H1975 C1959 0.960 . S
C1976 C1977 1.391 . S
C1976 C1978 1.394 . S
C1976 H1992 0.931 . S
C1977 C1976 1.391 . S
C1977 C1981 1.376 . S
C1978 C1976 1.394 . S
C1978 C1979 1.369 . S
C1978 C1982 1.531 . S
C1979 C1978 1.369 . S
C1979 C1980 1.410 . S
C1979 C1987 1.503 . S
C1980 C1979 1.410 . S
C1980 C1981 1.392 . S
C1980 C1983 1.511 . S
C1981 C1977 1.376 . S
C1981 C1980 1.392 . S
C1981 H1993 0.929 . S
C1982 C1978 1.531 . S
C1982 H1994 0.960 . S
C1982 H1995 0.962 . S
C1982 H1996 0.960 . S
C1983 C1980 1.511 . S
C1983 H1997 0.961 . S
C1983 H1998 0.961 . S
C1983 H1999 0.961 . S
C1984 C1985 1.370 . S
C1984 C1986 1.363 . S
C1984 H2000 0.931 . S
C1985 C1984 1.370 . S
C1985 C1989 1.408 . S
C1986 C1984 1.363 . S
C1986 C1987 1.370 . S
C1986 C1990 1.524 . S
C1987 C1979 1.503 . S
C1987 C1986 1.370 . S
C1987 C1988 1.403 . S
C1988 C1987 1.403 . S
C1988 C1989 1.404 . S
C1988 C1991 1.539 . S
C1989 C1985 1.408 . S
C1989 C1988 1.404 . S
C1989 H2001 0.930 . S
C1990 C1986 1.524 . S
C1990 H2002 0.956 . S
C1990 H2003 0.961 . S
C1990 H2004 0.961 . S
C1991 C1988 1.539 . S
C1991 H2005 0.958 . S
C1991 H2006 0.961 . S
C1991 H2007 0.960 . S
H1992 C1976 0.931 . S
H1993 C1981 0.929 . S
H1994 C1982 0.960 . S
H1995 C1982 0.962 . S
H1996 C1982 0.960 . S
H1997 C1983 0.961 . S
H1998 C1983 0.961 . S
H1999 C1983 0.961 . S
H2000 C1984 0.931 . S
H2001 C1989 0.930 . S
H2002 C1990 0.956 . S
H2003 C1990 0.961 . S
H2004 C1990 0.961 . S
H2005 C1991 0.958 . S
H2006 C1991 0.961 . S
H2007 C1991 0.960 . S
C2008 C2009 1.391 . S
C2008 C2010 1.394 . S
C2008 H2024 0.931 . S
C2009 C2008 1.391 . S
C2009 C2013 1.376 . S
C2010 C2008 1.394 . S
C2010 C2011 1.369 . S
C2010 C2014 1.531 . S
C2011 C2010 1.369 . S
C2011 C2012 1.410 . S
C2011 C2019 1.503 . S
C2012 C2011 1.410 . S
C2012 C2013 1.392 . S
C2012 C2015 1.511 . S
C2013 C2009 1.376 . S
C2013 C2012 1.392 . S
C2013 H2025 0.929 . S
C2014 C2010 1.531 . S
C2014 H2026 0.960 . S
C2014 H2027 0.962 . S
C2014 H2028 0.960 . S
C2015 C2012 1.511 . S
C2015 H2029 0.961 . S
C2015 H2030 0.961 . S
C2015 H2031 0.961 . S
C2016 C2017 1.370 . S
C2016 C2018 1.363 . S
C2016 H2032 0.931 . S
C2017 C2016 1.370 . S
C2017 C2021 1.408 . S
C2018 C2016 1.363 . S
C2018 C2019 1.370 . S
C2018 C2022 1.524 . S
C2019 C2011 1.503 . S
C2019 C2018 1.370 . S
C2019 C2020 1.403 . S
C2020 C2019 1.403 . S
C2020 C2021 1.404 . S
C2020 C2023 1.539 . S
C2021 C2017 1.408 . S
C2021 C2020 1.404 . S
C2021 H2033 0.930 . S
C2022 C2018 1.524 . S
C2022 H2034 0.956 . S
C2022 H2035 0.961 . S
C2022 H2036 0.961 . S
C2023 C2020 1.539 . S
C2023 H2037 0.958 . S
C2023 H2038 0.961 . S
C2023 H2039 0.960 . S
H2024 C2008 0.931 . S
H2025 C2013 0.929 . S
H2026 C2014 0.960 . S
H2027 C2014 0.962 . S
H2028 C2014 0.960 . S
H2029 C2015 0.961 . S
H2030 C2015 0.961 . S
H2031 C2015 0.961 . S
H2032 C2016 0.931 . S
H2033 C2021 0.930 . S
H2034 C2022 0.956 . S
H2035 C2022 0.961 . S
H2036 C2022 0.961 . S
H2037 C2023 0.958 . S
H2038 C2023 0.961 . S
H2039 C2023 0.960 . S
C2040 C2041 1.391 . S
C2040 C2042 1.394 . S
C2040 H2056 0.931 . S
C2041 C2040 1.391 . S
C2041 C2045 1.376 . S
C2042 C2040 1.394 . S
C2042 C2043 1.369 . S
C2042 C2046 1.531 . S
C2043 C2042 1.369 . S
C2043 C2044 1.410 . S
C2043 C2051 1.503 . S
C2044 C2043 1.410 . S
C2044 C2045 1.392 . S
C2044 C2047 1.511 . S
C2045 C2041 1.376 . S
C2045 C2044 1.392 . S
C2045 H2057 0.929 . S
C2046 C2042 1.531 . S
C2046 H2058 0.960 . S
C2046 H2059 0.962 . S
C2046 H2060 0.960 . S
C2047 C2044 1.511 . S
C2047 H2061 0.961 . S
C2047 H2062 0.961 . S
C2047 H2063 0.961 . S
C2048 C2049 1.370 . S
C2048 C2050 1.363 . S
C2048 H2064 0.931 . S
C2049 C2048 1.370 . S
C2049 C2053 1.408 . S
C2050 C2048 1.363 . S
C2050 C2051 1.370 . S
C2050 C2054 1.524 . S
C2051 C2043 1.503 . S
C2051 C2050 1.370 . S
C2051 C2052 1.403 . S
C2052 C2051 1.403 . S
C2052 C2053 1.404 . S
C2052 C2055 1.539 . S
C2053 C2049 1.408 . S
C2053 C2052 1.404 . S
C2053 H2065 0.930 . S
C2054 C2050 1.524 . S
C2054 H2066 0.956 . S
C2054 H2067 0.961 . S
C2054 H2068 0.961 . S
C2055 C2052 1.539 . S
C2055 H2069 0.958 . S
C2055 H2070 0.961 . S
C2055 H2071 0.960 . S
H2056 C2040 0.931 . S
H2057 C2045 0.929 . S
H2058 C2046 0.960 . S
H2059 C2046 0.962 . S
H2060 C2046 0.960 . S
H2061 C2047 0.961 . S
H2062 C2047 0.961 . S
H2063 C2047 0.961 . S
H2064 C2048 0.931 . S
H2065 C2053 0.930 . S
H2066 C2054 0.956 . S
H2067 C2054 0.961 . S
H2068 C2054 0.961 . S
H2069 C2055 0.958 . S
H2070 C2055 0.961 . S
H2071 C2055 0.960 . S
C2072 C2073 1.391 . S
C2072 C2074 1.394 . S
C2072 H2088 0.931 . S
C2073 C2072 1.391 . S
C2073 C2077 1.376 . S
C2074 C2072 1.394 . S
C2074 C2075 1.369 . S
C2074 C2078 1.531 . S
C2075 C2074 1.369 . S
C2075 C2076 1.410 . S
C2075 C2083 1.503 . S
C2076 C2075 1.410 . S
C2076 C2077 1.392 . S
C2076 C2079 1.511 . S
C2077 C2073 1.376 . S
C2077 C2076 1.392 . S
C2077 H2089 0.929 . S
C2078 C2074 1.531 . S
C2078 H2090 0.960 . S
C2078 H2091 0.962 . S
C2078 H2092 0.960 . S
C2079 C2076 1.511 . S
C2079 H2093 0.961 . S
C2079 H2094 0.961 . S
C2079 H2095 0.961 . S
C2080 C2081 1.370 . S
C2080 C2082 1.363 . S
C2080 H2096 0.931 . S
C2081 C2080 1.370 . S
C2081 C2085 1.408 . S
C2082 C2080 1.363 . S
C2082 C2083 1.370 . S
C2082 C2086 1.524 . S
C2083 C2075 1.503 . S
C2083 C2082 1.370 . S
C2083 C2084 1.403 . S
C2084 C2083 1.403 . S
C2084 C2085 1.404 . S
C2084 C2087 1.539 . S
C2085 C2081 1.408 . S
C2085 C2084 1.404 . S
C2085 H2097 0.930 . S
C2086 C2082 1.524 . S
C2086 H2098 0.956 . S
C2086 H2099 0.961 . S
C2086 H2100 0.961 . S
C2087 C2084 1.539 . S
C2087 H2101 0.958 . S
C2087 H2102 0.961 . S
C2087 H2103 0.960 . S
H2088 C2072 0.931 . S
H2089 C2077 0.929 . S
H2090 C2078 0.960 . S
H2091 C2078 0.962 . S
H2092 C2078 0.960 . S
H2093 C2079 0.961 . S
H2094 C2079 0.961 . S
H2095 C2079 0.961 . S
H2096 C2080 0.931 . S
H2097 C2085 0.930 . S
H2098 C2086 0.956 . S
H2099 C2086 0.961 . S
H2100 C2086 0.961 . S
H2101 C2087 0.958 . S
H2102 C2087 0.961 . S
H2103 C2087 0.960 . S
C2104 C2105 1.391 . S
C2104 C2106 1.394 . S
C2104 H2120 0.931 . S
C2105 C2104 1.391 . S
C2105 C2109 1.376 . S
C2106 C2104 1.394 . S
C2106 C2107 1.369 . S
C2106 C2110 1.531 . S
C2107 C2106 1.369 . S
C2107 C2108 1.410 . S
C2107 C2115 1.503 . S
C2108 C2107 1.410 . S
C2108 C2109 1.392 . S
C2108 C2111 1.511 . S
C2109 C2105 1.376 . S
C2109 C2108 1.392 . S
C2109 H2121 0.929 . S
C2110 C2106 1.531 . S
C2110 H2122 0.960 . S
C2110 H2123 0.962 . S
C2110 H2124 0.960 . S
C2111 C2108 1.511 . S
C2111 H2125 0.961 . S
C2111 H2126 0.961 . S
C2111 H2127 0.961 . S
C2112 C2113 1.370 . S
C2112 C2114 1.363 . S
C2112 H2128 0.931 . S
C2113 C2112 1.370 . S
C2113 C2117 1.408 . S
C2114 C2112 1.363 . S
C2114 C2115 1.370 . S
C2114 C2118 1.524 . S
C2115 C2107 1.503 . S
C2115 C2114 1.370 . S
C2115 C2116 1.403 . S
C2116 C2115 1.403 . S
C2116 C2117 1.404 . S
C2116 C2119 1.539 . S
C2117 C2113 1.408 . S
C2117 C2116 1.404 . S
C2117 H2129 0.930 . S
C2118 C2114 1.524 . S
C2118 H2130 0.956 . S
C2118 H2131 0.961 . S
C2118 H2132 0.961 . S
C2119 C2116 1.539 . S
C2119 H2133 0.958 . S
C2119 H2134 0.961 . S
C2119 H2135 0.960 . S
H2120 C2104 0.931 . S
H2121 C2109 0.929 . S
H2122 C2110 0.960 . S
H2123 C2110 0.962 . S
H2124 C2110 0.960 . S
H2125 C2111 0.961 . S
H2126 C2111 0.961 . S
H2127 C2111 0.961 . S
H2128 C2112 0.931 . S
H2129 C2117 0.930 . S
H2130 C2118 0.956 . S
H2131 C2118 0.961 . S
H2132 C2118 0.961 . S
H2133 C2119 0.958 . S
H2134 C2119 0.961 . S
H2135 C2119 0.960 . S
C2136 C2137 1.391 . S
C2136 C2138 1.394 . S
C2136 H2152 0.931 . S
C2137 C2136 1.391 . S
C2137 C2141 1.376 . S
C2138 C2136 1.394 . S
C2138 C2139 1.369 . S
C2138 C2142 1.531 . S
C2139 C2138 1.369 . S
C2139 C2140 1.410 . S
C2139 C2147 1.503 . S
C2140 C2139 1.410 . S
C2140 C2141 1.392 . S
C2140 C2143 1.511 . S
C2141 C2137 1.376 . S
C2141 C2140 1.392 . S
C2141 H2153 0.929 . S
C2142 C2138 1.531 . S
C2142 H2154 0.960 . S
C2142 H2155 0.962 . S
C2142 H2156 0.960 . S
C2143 C2140 1.511 . S
C2143 H2157 0.961 . S
C2143 H2158 0.961 . S
C2143 H2159 0.961 . S
C2144 C2145 1.370 . S
C2144 C2146 1.363 . S
C2144 H2160 0.931 . S
C2145 C2144 1.370 . S
C2145 C2149 1.408 . S
C2146 C2144 1.363 . S
C2146 C2147 1.370 . S
C2146 C2150 1.524 . S
C2147 C2139 1.503 . S
C2147 C2146 1.370 . S
C2147 C2148 1.403 . S
C2148 C2147 1.403 . S
C2148 C2149 1.404 . S
C2148 C2151 1.539 . S
C2149 C2145 1.408 . S
C2149 C2148 1.404 . S
C2149 H2161 0.930 . S
C2150 C2146 1.524 . S
C2150 H2162 0.956 . S
C2150 H2163 0.961 . S
C2150 H2164 0.961 . S
C2151 C2148 1.539 . S
C2151 H2165 0.958 . S
C2151 H2166 0.961 . S
C2151 H2167 0.960 . S
H2152 C2136 0.931 . S
H2153 C2141 0.929 . S
H2154 C2142 0.960 . S
H2155 C2142 0.962 . S
H2156 C2142 0.960 . S
H2157 C2143 0.961 . S
H2158 C2143 0.961 . S
H2159 C2143 0.961 . S
H2160 C2144 0.931 . S
H2161 C2149 0.930 . S
H2162 C2150 0.956 . S
H2163 C2150 0.961 . S
H2164 C2150 0.961 . S
H2165 C2151 0.958 . S
H2166 C2151 0.961 . S
H2167 C2151 0.960 . S
C2168 C2169 1.391 . S
C2168 C2170 1.394 . S
C2168 H2184 0.931 . S
C2169 C2168 1.391 . S
C2169 C2173 1.376 . S
C2170 C2168 1.394 . S
C2170 C2171 1.369 . S
C2170 C2174 1.531 . S
C2171 C2170 1.369 . S
C2171 C2172 1.410 . S
C2171 C2179 1.503 . S
C2172 C2171 1.410 . S
C2172 C2173 1.392 . S
C2172 C2175 1.511 . S
C2173 C2169 1.376 . S
C2173 C2172 1.392 . S
C2173 H2185 0.929 . S
C2174 C2170 1.531 . S
C2174 H2186 0.960 . S
C2174 H2187 0.962 . S
C2174 H2188 0.960 . S
C2175 C2172 1.511 . S
C2175 H2189 0.961 . S
C2175 H2190 0.961 . S
C2175 H2191 0.961 . S
C2176 C2177 1.370 . S
C2176 C2178 1.363 . S
C2176 H2192 0.931 . S
C2177 C2176 1.370 . S
C2177 C2181 1.408 . S
C2178 C2176 1.363 . S
C2178 C2179 1.370 . S
C2178 C2182 1.524 . S
C2179 C2171 1.503 . S
C2179 C2178 1.370 . S
C2179 C2180 1.403 . S
C2180 C2179 1.403 . S
C2180 C2181 1.404 . S
C2180 C2183 1.539 . S
C2181 C2177 1.408 . S
C2181 C2180 1.404 . S
C2181 H2193 0.930 . S
C2182 C2178 1.524 . S
C2182 H2194 0.956 . S
C2182 H2195 0.961 . S
C2182 H2196 0.961 . S
C2183 C2180 1.539 . S
C2183 H2197 0.958 . S
C2183 H2198 0.961 . S
C2183 H2199 0.960 . S
H2184 C2168 0.931 . S
H2185 C2173 0.929 . S
H2186 C2174 0.960 . S
H2187 C2174 0.962 . S
H2188 C2174 0.960 . S
H2189 C2175 0.961 . S
H2190 C2175 0.961 . S
H2191 C2175 0.961 . S
H2192 C2176 0.931 . S
H2193 C2181 0.930 . S
H2194 C2182 0.956 . S
H2195 C2182 0.961 . S
H2196 C2182 0.961 . S
H2197 C2183 0.958 . S
H2198 C2183 0.961 . S
H2199 C2183 0.960 . S
C2200 C2201 1.391 . S
C2200 C2202 1.394 . S
C2200 H2216 0.931 . S
C2201 C2200 1.391 . S
C2201 C2205 1.376 . S
C2202 C2200 1.394 . S
C2202 C2203 1.369 . S
C2202 C2206 1.531 . S
C2203 C2202 1.369 . S
C2203 C2204 1.410 . S
C2203 C2211 1.503 . S
C2204 C2203 1.410 . S
C2204 C2205 1.392 . S
C2204 C2207 1.511 . S
C2205 C2201 1.376 . S
C2205 C2204 1.392 . S
C2205 H2217 0.929 . S
C2206 C2202 1.531 . S
C2206 H2218 0.960 . S
C2206 H2219 0.962 . S
C2206 H2220 0.960 . S
C2207 C2204 1.511 . S
C2207 H2221 0.961 . S
C2207 H2222 0.961 . S
C2207 H2223 0.961 . S
C2208 C2209 1.370 . S
C2208 C2210 1.363 . S
C2208 H2224 0.931 . S
C2209 C2208 1.370 . S
C2209 C2213 1.408 . S
C2210 C2208 1.363 . S
C2210 C2211 1.370 . S
C2210 C2214 1.524 . S
C2211 C2203 1.503 . S
C2211 C2210 1.370 . S
C2211 C2212 1.403 . S
C2212 C2211 1.403 . S
C2212 C2213 1.404 . S
C2212 C2215 1.539 . S
C2213 C2209 1.408 . S
C2213 C2212 1.404 . S
C2213 H2225 0.930 . S
C2214 C2210 1.524 . S
C2214 H2226 0.956 . S
C2214 H2227 0.961 . S
C2214 H2228 0.961 . S
C2215 C2212 1.539 . S
C2215 H2229 0.958 . S
C2215 H2230 0.961 . S
C2215 H2231 0.960 . S
H2216 C2200 0.931 . S
H2217 C2205 0.929 . S
H2218 C2206 0.960 . S
H2219 C2206 0.962 . S
H2220 C2206 0.960 . S
H2221 C2207 0.961 . S
H2222 C2207 0.961 . S
H2223 C2207 0.961 . S
H2224 C2208 0.931 . S
H2225 C2213 0.930 . S
H2226 C2214 0.956 . S
H2227 C2214 0.961 . S
H2228 C2214 0.961 . S
H2229 C2215 0.958 . S
H2230 C2215 0.961 . S
H2231 C2215 0.960 . S
C2232 C2233 1.391 . S
C2232 C2234 1.394 . S
C2232 H2248 0.931 . S
C2233 C2232 1.391 . S
C2233 C2237 1.376 . S
C2234 C2232 1.394 . S
C2234 C2235 1.369 . S
C2234 C2238 1.531 . S
C2235 C2234 1.369 . S
C2235 C2236 1.410 . S
C2235 C2243 1.503 . S
C2236 C2235 1.410 . S
C2236 C2237 1.392 . S
C2236 C2239 1.511 . S
C2237 C2233 1.376 . S
C2237 C2236 1.392 . S
C2237 H2249 0.929 . S
C2238 C2234 1.531 . S
C2238 H2250 0.960 . S
C2238 H2251 0.962 . S
C2238 H2252 0.960 . S
C2239 C2236 1.511 . S
C2239 H2253 0.961 . S
C2239 H2254 0.961 . S
C2239 H2255 0.961 . S
C2240 C2241 1.370 . S
C2240 C2242 1.363 . S
C2240 H2256 0.931 . S
C2241 C2240 1.370 . S
C2241 C2245 1.408 . S
C2242 C2240 1.363 . S
C2242 C2243 1.370 . S
C2242 C2246 1.524 . S
C2243 C2235 1.503 . S
C2243 C2242 1.370 . S
C2243 C2244 1.403 . S
C2244 C2243 1.403 . S
C2244 C2245 1.404 . S
C2244 C2247 1.539 . S
C2245 C2241 1.408 . S
C2245 C2244 1.404 . S
C2245 H2257 0.930 . S
C2246 C2242 1.524 . S
C2246 H2258 0.956 . S
C2246 H2259 0.961 . S
C2246 H2260 0.961 . S
C2247 C2244 1.539 . S
C2247 H2261 0.958 . S
C2247 H2262 0.961 . S
C2247 H2263 0.960 . S
H2248 C2232 0.931 . S
H2249 C2237 0.929 . S
H2250 C2238 0.960 . S
H2251 C2238 0.962 . S
H2252 C2238 0.960 . S
H2253 C2239 0.961 . S
H2254 C2239 0.961 . S
H2255 C2239 0.961 . S
H2256 C2240 0.931 . S
H2257 C2245 0.930 . S
H2258 C2246 0.956 . S
H2259 C2246 0.961 . S
H2260 C2246 0.961 . S
H2261 C2247 0.958 . S
H2262 C2247 0.961 . S
H2263 C2247 0.960 . S
C2264 C2265 1.391 . S
C2264 C2266 1.394 . S
C2264 H2280 0.931 . S
C2265 C2264 1.391 . S
C2265 C2269 1.376 . S
C2266 C2264 1.394 . S
C2266 C2267 1.369 . S
C2266 C2270 1.531 . S
C2267 C2266 1.369 . S
C2267 C2268 1.410 . S
C2267 C2275 1.503 . S
C2268 C2267 1.410 . S
C2268 C2269 1.392 . S
C2268 C2271 1.511 1_545 S
C2269 C2265 1.376 . S
C2269 C2268 1.392 . S
C2269 H2281 0.929 . S
C2270 C2266 1.531 . S
C2270 H2282 0.960 . S
C2270 H2283 0.962 . S
C2270 H2284 0.960 . S
C2271 C2268 1.511 1_565 S
C2271 H2285 0.961 . S
C2271 H2286 0.961 . S
C2271 H2287 0.961 1_565 S
C2272 C2273 1.370 . S
C2272 C2274 1.363 . S
C2272 H2288 0.931 . S
C2273 C2272 1.370 . S
C2273 C2277 1.408 1_565 S
C2274 C2272 1.363 . S
C2274 C2275 1.370 1_565 S
C2274 C2278 1.524 . S
C2275 C2267 1.503 . S
C2275 C2274 1.370 1_545 S
C2275 C2276 1.403 . S
C2276 C2275 1.403 . S
C2276 C2277 1.404 . S
C2276 C2279 1.539 . S
C2277 C2273 1.408 1_545 S
C2277 C2276 1.404 . S
C2277 H2289 0.930 . S
C2278 C2274 1.524 . S
C2278 H2290 0.956 . S
C2278 H2291 0.961 . S
C2278 H2292 0.961 . S
C2279 C2276 1.539 . S
C2279 H2293 0.958 . S
C2279 H2294 0.961 . S
C2279 H2295 0.960 . S
H2280 C2264 0.931 . S
H2281 C2269 0.929 . S
H2282 C2270 0.960 . S
H2283 C2270 0.962 . S
H2284 C2270 0.960 . S
H2285 C2271 0.961 . S
H2286 C2271 0.961 . S
H2287 C2271 0.961 1_545 S
H2288 C2272 0.931 . S
H2289 C2277 0.930 . S
H2290 C2278 0.956 . S
H2291 C2278 0.961 . S
H2292 C2278 0.961 . S
H2293 C2279 0.958 . S
H2294 C2279 0.961 . S
H2295 C2279 0.960 . S
C2296 C2297 1.362 1_655 S
C2296 C2298 1.397 . S
C2296 H2312 0.956 . S
C2297 C2296 1.362 1_455 S
C2297 C2301 1.376 . S
C2298 C2296 1.397 . S
C2298 C2299 1.369 1_655 S
C2298 C2302 1.531 . S
C2299 C2298 1.369 1_455 S
C2299 C2300 1.410 . S
C2299 C2307 1.503 . S
C2300 C2299 1.410 . S
C2300 C2301 1.392 . S
C2300 C2303 1.511 . S
C2301 C2297 1.376 . S
C2301 C2300 1.392 . S
C2301 H2313 0.929 . S
C2302 C2298 1.531 . S
C2302 H2314 0.960 . S
C2302 H2315 0.962 . S
C2302 H2316 0.960 . S
C2303 C2300 1.511 . S
C2303 H2317 0.961 . S
C2303 H2318 0.961 . S
C2303 H2319 0.961 . S
C2304 C2305 1.370 . S
C2304 C2306 1.363 . S
C2304 H2320 0.931 . S
C2305 C2304 1.370 . S
C2305 C2309 1.408 1_655 S
C2306 C2304 1.363 . S
C2306 C2307 1.370 1_655 S
C2306 C2310 1.524 . S
C2307 C2299 1.503 . S
C2307 C2306 1.370 1_455 S
C2307 C2308 1.403 . S
C2308 C2307 1.403 . S
C2308 C2309 1.404 . S
C2308 C2311 1.539 . S
C2309 C2305 1.408 1_455 S
C2309 C2308 1.404 . S
C2309 H2321 0.930 . S
C2310 C2306 1.524 . S
C2310 H2322 0.956 . S
C2310 H2323 0.961 . S
C2310 H2324 0.961 . S
C2311 C2308 1.539 . S
C2311 H2325 0.958 . S
C2311 H2326 0.961 . S
C2311 H2327 0.960 . S
H2312 C2296 0.956 . S
H2313 C2301 0.929 . S
H2314 C2302 0.960 . S
H2315 C2302 0.962 . S
H2316 C2302 0.960 . S
H2317 C2303 0.961 . S
H2318 C2303 0.961 . S
H2319 C2303 0.961 . S
H2320 C2304 0.931 . S
H2321 C2309 0.930 . S
H2322 C2310 0.956 . S
H2323 C2310 0.961 . S
H2324 C2310 0.961 . S
H2325 C2311 0.958 . S
H2326 C2311 0.961 . S
H2327 C2311 0.960 . S
C2328 C2329 1.391 . S
C2328 C2330 1.394 . S
C2328 H2344 0.931 . S
C2329 C2328 1.391 . S
C2329 C2333 1.376 . S
C2330 C2328 1.394 . S
C2330 C2331 1.369 . S
C2330 C2334 1.531 . S
C2331 C2330 1.369 . S
C2331 C2332 1.410 . S
C2331 C2339 1.503 . S
C2332 C2331 1.410 . S
C2332 C2333 1.392 . S
C2332 C2335 1.511 . S
C2333 C2329 1.376 . S
C2333 C2332 1.392 . S
C2333 H2345 0.929 . S
C2334 C2330 1.531 . S
C2334 H2346 0.960 . S
C2334 H2347 0.962 . S
C2334 H2348 0.960 . S
C2335 C2332 1.511 . S
C2335 H2349 0.961 . S
C2335 H2350 0.961 . S
C2335 H2351 0.961 . S
C2336 C2337 1.370 . S
C2336 C2338 1.363 . S
C2336 H2352 0.931 . S
C2337 C2336 1.370 . S
C2337 C2341 1.408 . S
C2338 C2336 1.363 . S
C2338 C2339 1.370 . S
C2338 C2342 1.524 . S
C2339 C2331 1.503 . S
C2339 C2338 1.370 . S
C2339 C2340 1.403 . S
C2340 C2339 1.403 . S
C2340 C2341 1.404 . S
C2340 C2343 1.539 . S
C2341 C2337 1.408 . S
C2341 C2340 1.404 . S
C2341 H2353 0.930 . S
C2342 C2338 1.524 . S
C2342 H2354 0.956 . S
C2342 H2355 0.961 . S
C2342 H2356 0.961 . S
C2343 C2340 1.539 . S
C2343 H2357 0.958 . S
C2343 H2358 0.961 . S
C2343 H2359 0.960 . S
H2344 C2328 0.931 . S
H2345 C2333 0.929 . S
H2346 C2334 0.960 . S
H2347 C2334 0.962 . S
H2348 C2334 0.960 . S
H2349 C2335 0.961 . S
H2350 C2335 0.961 . S
H2351 C2335 0.961 . S
H2352 C2336 0.931 . S
H2353 C2341 0.930 . S
H2354 C2342 0.956 . S
H2355 C2342 0.961 . S
H2356 C2342 0.961 . S
H2357 C2343 0.958 . S
H2358 C2343 0.961 . S
H2359 C2343 0.960 . S
C2360 C2361 1.391 1_565 S
C2360 C2362 1.394 . S
C2360 H2376 0.931 . S
C2361 C2360 1.391 1_545 S
C2361 C2365 1.376 . S
C2362 C2360 1.394 . S
C2362 C2363 1.369 . S
C2362 C2366 1.531 . S
C2363 C2362 1.369 . S
C2363 C2364 1.410 1_565 S
C2363 C2371 1.503 . S
C2364 C2363 1.410 1_545 S
C2364 C2365 1.392 . S
C2364 C2367 1.511 . S
C2365 C2361 1.376 . S
C2365 C2364 1.392 . S
C2365 H2377 0.929 . S
C2366 C2362 1.531 . S
C2366 H2378 0.960 . S
C2366 H2379 0.962 . S
C2366 H2380 0.960 . S
C2367 C2364 1.511 . S
C2367 H2381 0.961 . S
C2367 H2382 0.961 . S
C2367 H2383 0.961 . S
C2368 C2369 1.370 1_545 S
C2368 C2370 1.363 . S
C2368 H2384 0.931 . S
C2369 C2368 1.370 1_565 S
C2369 C2373 1.408 . S
C2370 C2368 1.363 . S
C2370 C2371 1.370 1_545 S
C2370 C2374 1.524 . S
C2371 C2363 1.503 . S
C2371 C2370 1.370 1_565 S
C2371 C2372 1.403 . S
C2372 C2371 1.403 . S
C2372 C2373 1.404 . S
C2372 C2375 1.539 . S
C2373 C2369 1.408 . S
C2373 C2372 1.404 . S
C2373 H2385 0.930 . S
C2374 C2370 1.524 . S
C2374 H2386 0.956 . S
C2374 H2387 0.961 . S
C2374 H2388 0.961 . S
C2375 C2372 1.539 . S
C2375 H2389 0.958 . S
C2375 H2390 0.961 . S
C2375 H2391 0.960 . S
H2376 C2360 0.931 . S
H2377 C2365 0.929 . S
H2378 C2366 0.960 . S
H2379 C2366 0.962 . S
H2380 C2366 0.960 . S
H2381 C2367 0.961 . S
H2382 C2367 0.961 . S
H2383 C2367 0.961 . S
H2384 C2368 0.931 . S
H2385 C2373 0.930 . S
H2386 C2374 0.956 . S
H2387 C2374 0.961 . S
H2388 C2374 0.961 . S
H2389 C2375 0.958 . S
H2390 C2375 0.961 . S
H2391 C2375 0.960 . S
C2392 C2393 1.391 . S
C2392 C2394 1.394 . S
C2392 H2408 0.931 . S
C2393 C2392 1.391 . S
C2393 C2397 1.376 1_655 S
C2394 C2392 1.394 . S
C2394 C2395 1.352 1_655 S
C2394 C2398 1.531 . S
C2395 C2394 1.352 1_455 S
C2395 C2396 1.422 . S
C2395 C2403 1.507 . S
C2396 C2395 1.422 . S
C2396 C2397 1.392 . S
C2396 C2399 1.511 . S
C2397 C2393 1.376 1_455 S
C2397 C2396 1.392 . S
C2397 H2409 0.929 . S
C2398 C2394 1.531 . S
C2398 H2410 0.960 . S
C2398 H2411 0.962 . S
C2398 H2412 0.960 . S
C2399 C2396 1.511 . S
C2399 H2413 0.961 . S
C2399 H2414 0.961 . S
C2399 H2415 0.961 . S
C2400 C2401 1.370 1_655 S
C2400 C2402 1.363 . S
C2400 H2416 0.931 . S
C2401 C2400 1.370 1_455 S
C2401 C2405 1.408 . S
C2402 C2400 1.363 . S
C2402 C2403 1.370 1_655 S
C2402 C2406 1.524 . S
C2403 C2395 1.507 . S
C2403 C2402 1.370 1_455 S
C2403 C2404 1.403 . S
C2404 C2403 1.403 . S
C2404 C2405 1.404 . S
C2404 C2407 1.539 . S
C2405 C2401 1.408 . S
C2405 C2404 1.404 . S
C2405 H2417 0.930 . S
C2406 C2402 1.524 . S
C2406 H2418 0.956 . S
C2406 H2419 0.961 . S
C2406 H2420 0.961 . S
C2407 C2404 1.539 . S
C2407 H2421 0.958 . S
C2407 H2422 0.961 . S
C2407 H2423 0.960 . S
H2408 C2392 0.931 . S
H2409 C2397 0.929 . S
H2410 C2398 0.960 . S
H2411 C2398 0.962 . S
H2412 C2398 0.960 . S
H2413 C2399 0.961 . S
H2414 C2399 0.961 . S
H2415 C2399 0.961 . S
H2416 C2400 0.931 . S
H2417 C2405 0.930 . S
H2418 C2406 0.956 . S
H2419 C2406 0.961 . S
H2420 C2406 0.961 . S
H2421 C2407 0.958 . S
H2422 C2407 0.961 . S
H2423 C2407 0.960 . S
C2424 C2425 1.391 . S
C2424 C2426 1.394 . S
C2424 H2440 0.931 . S
C2425 C2424 1.391 . S
C2425 C2429 1.376 . S
C2426 C2424 1.394 . S
C2426 C2427 1.369 . S
C2426 C2430 1.531 . S
C2427 C2426 1.369 . S
C2427 C2428 1.410 . S
C2427 C2435 1.503 . S
C2428 C2427 1.410 . S
C2428 C2429 1.392 . S
C2428 C2431 1.511 . S
C2429 C2425 1.376 . S
C2429 C2428 1.392 . S
C2429 H2441 0.929 . S
C2430 C2426 1.531 . S
C2430 H2442 0.960 . S
C2430 H2443 0.962 . S
C2430 H2444 0.960 . S
C2431 C2428 1.511 . S
C2431 H2445 0.961 . S
C2431 H2446 0.961 . S
C2431 H2447 0.961 . S
C2432 C2433 1.370 . S
C2432 C2434 1.363 . S
C2432 H2448 0.931 . S
C2433 C2432 1.370 . S
C2433 C2437 1.408 . S
C2434 C2432 1.363 . S
C2434 C2435 1.370 . S
C2434 C2438 1.524 . S
C2435 C2427 1.503 . S
C2435 C2434 1.370 . S
C2435 C2436 1.403 . S
C2436 C2435 1.403 . S
C2436 C2437 1.404 . S
C2436 C2439 1.539 . S
C2437 C2433 1.408 . S
C2437 C2436 1.404 . S
C2437 H2449 0.930 . S
C2438 C2434 1.524 . S
C2438 H2450 0.956 . S
C2438 H2451 0.961 . S
C2438 H2452 0.961 . S
C2439 C2436 1.539 . S
C2439 H2453 0.958 . S
C2439 H2454 0.961 . S
C2439 H2455 0.960 . S
H2440 C2424 0.931 . S
H2441 C2429 0.929 . S
H2442 C2430 0.960 . S
H2443 C2430 0.962 . S
H2444 C2430 0.960 . S
H2445 C2431 0.961 . S
H2446 C2431 0.961 . S
H2447 C2431 0.961 . S
H2448 C2432 0.931 . S
H2449 C2437 0.930 . S
H2450 C2438 0.956 . S
H2451 C2438 0.961 . S
H2452 C2438 0.961 . S
H2453 C2439 0.958 . S
H2454 C2439 0.961 . S
H2455 C2439 0.960 . S
C2456 C2457 1.391 . S
C2456 C2458 1.394 . S
C2456 H2472 0.931 . S
C2457 C2456 1.391 . S
C2457 C2461 1.376 . S
C2458 C2456 1.394 . S
C2458 C2459 1.369 . S
C2458 C2462 1.531 . S
C2459 C2458 1.369 . S
C2459 C2460 1.410 . S
C2459 C2467 1.503 . S
C2460 C2459 1.410 . S
C2460 C2461 1.392 . S
C2460 C2463 1.511 . S
C2461 C2457 1.376 . S
C2461 C2460 1.392 . S
C2461 H2473 0.929 . S
C2462 C2458 1.531 . S
C2462 H2474 0.960 . S
C2462 H2475 0.962 . S
C2462 H2476 0.960 . S
C2463 C2460 1.511 . S
C2463 H2477 0.961 . S
C2463 H2478 0.961 . S
C2463 H2479 0.961 . S
C2464 C2465 1.370 . S
C2464 C2466 1.363 . S
C2464 H2480 0.931 . S
C2465 C2464 1.370 . S
C2465 C2469 1.408 . S
C2466 C2464 1.363 . S
C2466 C2467 1.370 . S
C2466 C2470 1.524 . S
C2467 C2459 1.503 . S
C2467 C2466 1.370 . S
C2467 C2468 1.403 . S
C2468 C2467 1.403 . S
C2468 C2469 1.404 . S
C2468 C2471 1.539 . S
C2469 C2465 1.408 . S
C2469 C2468 1.404 . S
C2469 H2481 0.930 . S
C2470 C2466 1.524 . S
C2470 H2482 0.956 . S
C2470 H2483 0.961 . S
C2470 H2484 0.961 . S
C2471 C2468 1.539 . S
C2471 H2485 0.958 . S
C2471 H2486 0.961 . S
C2471 H2487 0.960 . S
H2472 C2456 0.931 . S
H2473 C2461 0.929 . S
H2474 C2462 0.960 . S
H2475 C2462 0.962 . S
H2476 C2462 0.960 . S
H2477 C2463 0.961 . S
H2478 C2463 0.961 . S
H2479 C2463 0.961 . S
H2480 C2464 0.931 . S
H2481 C2469 0.930 . S
H2482 C2470 0.956 . S
H2483 C2470 0.961 . S
H2484 C2470 0.961 . S
H2485 C2471 0.958 . S
H2486 C2471 0.961 . S
H2487 C2471 0.960 . S
C2488 C2489 1.391 . S
C2488 C2490 1.394 . S
C2488 H2504 0.931 . S
C2489 C2488 1.391 . S
C2489 C2493 1.376 . S
C2490 C2488 1.394 . S
C2490 C2491 1.369 . S
C2490 C2494 1.531 . S
C2491 C2490 1.369 . S
C2491 C2492 1.410 . S
C2491 C2499 1.503 . S
C2492 C2491 1.410 . S
C2492 C2493 1.392 . S
C2492 C2495 1.511 . S
C2493 C2489 1.376 . S
C2493 C2492 1.392 . S
C2493 H2505 0.929 . S
C2494 C2490 1.531 . S
C2494 H2506 0.960 . S
C2494 H2507 0.962 . S
C2494 H2508 0.960 . S
C2495 C2492 1.511 . S
C2495 H2509 0.961 . S
C2495 H2510 0.961 . S
C2495 H2511 0.961 . S
C2496 C2497 1.370 . S
C2496 C2498 1.363 . S
C2496 H2512 0.931 . S
C2497 C2496 1.370 . S
C2497 C2501 1.408 . S
C2498 C2496 1.363 . S
C2498 C2499 1.370 . S
C2498 C2502 1.524 . S
C2499 C2491 1.503 . S
C2499 C2498 1.370 . S
C2499 C2500 1.403 . S
C2500 C2499 1.403 . S
C2500 C2501 1.404 . S
C2500 C2503 1.539 . S
C2501 C2497 1.408 . S
C2501 C2500 1.404 . S
C2501 H2513 0.930 . S
C2502 C2498 1.524 . S
C2502 H2514 0.956 . S
C2502 H2515 0.961 . S
C2502 H2516 0.961 . S
C2503 C2500 1.539 . S
C2503 H2517 0.958 . S
C2503 H2518 0.961 . S
C2503 H2519 0.960 . S
H2504 C2488 0.931 . S
H2505 C2493 0.929 . S
H2506 C2494 0.960 . S
H2507 C2494 0.962 . S
H2508 C2494 0.960 . S
H2509 C2495 0.961 . S
H2510 C2495 0.961 . S
H2511 C2495 0.961 . S
H2512 C2496 0.931 . S
H2513 C2501 0.930 . S
H2514 C2502 0.956 . S
H2515 C2502 0.961 . S
H2516 C2502 0.961 . S
H2517 C2503 0.958 . S
H2518 C2503 0.961 . S
H2519 C2503 0.960 . S
C2520 C2521 1.391 . S
C2520 C2522 1.394 . S
C2520 H2536 0.931 . S
C2521 C2520 1.391 . S
C2521 C2525 1.376 . S
C2522 C2520 1.394 . S
C2522 C2523 1.369 . S
C2522 C2526 1.531 . S
C2523 C2522 1.369 . S
C2523 C2524 1.410 . S
C2523 C2531 1.503 . S
C2524 C2523 1.410 . S
C2524 C2525 1.392 . S
C2524 C2527 1.511 . S
C2525 C2521 1.376 . S
C2525 C2524 1.392 . S
C2525 H2537 0.929 . S
C2526 C2522 1.531 . S
C2526 H2538 0.960 . S
C2526 H2539 0.962 . S
C2526 H2540 0.960 . S
C2527 C2524 1.511 . S
C2527 H2541 0.961 . S
C2527 H2542 0.961 . S
C2527 H2543 0.961 . S
C2528 C2529 1.370 1_554 S
C2528 C2530 1.363 . S
C2528 H2544 0.931 . S
C2529 C2528 1.370 1_556 S
C2529 C2533 1.408 1_556 S
C2530 C2528 1.363 . S
C2530 C2531 1.370 . S
C2530 C2534 1.524 . S
C2531 C2523 1.503 . S
C2531 C2530 1.370 . S
C2531 C2532 1.403 . S
C2532 C2531 1.403 . S
C2532 C2533 1.404 . S
C2532 C2535 1.539 . S
C2533 C2529 1.408 1_554 S
C2533 C2532 1.404 . S
C2533 H2545 0.930 1_554 S
C2534 C2530 1.524 . S
C2534 H2546 0.956 . S
C2534 H2547 0.961 . S
C2534 H2548 0.961 . S
C2535 C2532 1.539 . S
C2535 H2549 0.958 . S
C2535 H2550 0.961 . S
C2535 H2551 0.960 . S
H2536 C2520 0.931 . S
H2537 C2525 0.929 . S
H2538 C2526 0.960 . S
H2539 C2526 0.962 . S
H2540 C2526 0.960 . S
H2541 C2527 0.961 . S
H2542 C2527 0.961 . S
H2543 C2527 0.961 . S
H2544 C2528 0.931 . S
H2545 C2533 0.930 1_556 S
H2546 C2534 0.956 . S
H2547 C2534 0.961 . S
H2548 C2534 0.961 . S
H2549 C2535 0.958 . S
H2550 C2535 0.961 . S
H2551 C2535 0.960 . S
C2552 C2553 1.391 . S
C2552 C2554 1.394 . S
C2552 H2568 0.931 . S
C2553 C2552 1.391 . S
C2553 C2557 1.376 . S
C2554 C2552 1.394 . S
C2554 C2555 1.369 . S
C2554 C2558 1.531 . S
C2555 C2554 1.369 . S
C2555 C2556 1.410 . S
C2555 C2563 1.503 . S
C2556 C2555 1.410 . S
C2556 C2557 1.392 . S
C2556 C2559 1.511 . S
C2557 C2553 1.376 . S
C2557 C2556 1.392 . S
C2557 H2569 0.929 . S
C2558 C2554 1.531 . S
C2558 H2570 0.960 . S
C2558 H2571 0.962 . S
C2558 H2572 0.960 . S
C2559 C2556 1.511 . S
C2559 H2573 0.961 . S
C2559 H2574 0.961 . S
C2559 H2575 0.961 . S
C2560 C2561 1.370 1_554 S
C2560 C2562 1.363 . S
C2560 H2576 0.931 1_554 S
C2561 C2560 1.370 1_556 S
C2561 C2565 1.408 1_556 S
C2562 C2560 1.363 . S
C2562 C2563 1.370 . S
C2562 C2566 1.524 . S
C2563 C2555 1.503 . S
C2563 C2562 1.370 . S
C2563 C2564 1.403 . S
C2564 C2563 1.403 . S
C2564 C2565 1.404 . S
C2564 C2567 1.539 . S
C2565 C2561 1.408 1_554 S
C2565 C2564 1.404 . S
C2565 H2577 0.930 1_554 S
C2566 C2562 1.524 . S
C2566 H2578 0.956 . S
C2566 H2579 0.961 . S
C2566 H2580 0.961 . S
C2567 C2564 1.539 . S
C2567 H2581 0.958 . S
C2567 H2582 0.961 . S
C2567 H2583 0.960 . S
H2568 C2552 0.931 . S
H2569 C2557 0.929 . S
H2570 C2558 0.960 . S
H2571 C2558 0.962 . S
H2572 C2558 0.960 . S
H2573 C2559 0.961 . S
H2574 C2559 0.961 . S
H2575 C2559 0.961 . S
H2576 C2560 0.931 1_556 S
H2577 C2565 0.930 1_556 S
H2578 C2566 0.956 . S
H2579 C2566 0.961 . S
H2580 C2566 0.961 . S
H2581 C2567 0.958 . S
H2582 C2567 0.961 . S
H2583 C2567 0.960 . S
C2584 C2585 1.391 . S
C2584 C2586 1.394 . S
C2584 H2600 0.931 . S
C2585 C2584 1.391 . S
C2585 C2589 1.376 . S
C2586 C2584 1.394 . S
C2586 C2587 1.369 . S
C2586 C2590 1.531 . S
C2587 C2586 1.369 . S
C2587 C2588 1.410 . S
C2587 C2595 1.503 . S
C2588 C2587 1.410 . S
C2588 C2589 1.392 . S
C2588 C2591 1.511 . S
C2589 C2585 1.376 . S
C2589 C2588 1.392 . S
C2589 H2601 0.929 . S
C2590 C2586 1.531 . S
C2590 H2602 0.960 . S
C2590 H2603 0.962 . S
C2590 H2604 0.960 . S
C2591 C2588 1.511 . S
C2591 H2605 0.961 . S
C2591 H2606 0.961 . S
C2591 H2607 0.961 . S
C2592 C2593 1.370 1_554 S
C2592 C2594 1.363 . S
C2592 H2608 0.931 . S
C2593 C2592 1.370 1_556 S
C2593 C2597 1.408 1_556 S
C2594 C2592 1.363 . S
C2594 C2595 1.370 . S
C2594 C2598 1.524 . S
C2595 C2587 1.503 . S
C2595 C2594 1.370 . S
C2595 C2596 1.403 . S
C2596 C2595 1.403 . S
C2596 C2597 1.404 . S
C2596 C2599 1.539 . S
C2597 C2593 1.408 1_554 S
C2597 C2596 1.404 . S
C2597 H2609 0.930 1_554 S
C2598 C2594 1.524 . S
C2598 H2610 0.956 . S
C2598 H2611 0.961 . S
C2598 H2612 0.961 . S
C2599 C2596 1.539 . S
C2599 H2613 0.958 . S
C2599 H2614 0.961 . S
C2599 H2615 0.960 . S
H2600 C2584 0.931 . S
H2601 C2589 0.929 . S
H2602 C2590 0.960 . S
H2603 C2590 0.962 . S
H2604 C2590 0.960 . S
H2605 C2591 0.961 . S
H2606 C2591 0.961 . S
H2607 C2591 0.961 . S
H2608 C2592 0.931 . S
H2609 C2597 0.930 1_556 S
H2610 C2598 0.956 . S
H2611 C2598 0.961 . S
H2612 C2598 0.961 . S
H2613 C2599 0.958 . S
H2614 C2599 0.961 . S
H2615 C2599 0.960 . S
C2616 C2617 1.391 1_556 S
C2616 C2618 1.394 . S
C2616 H2632 0.931 1_556 S
C2617 C2616 1.391 1_554 S
C2617 C2621 1.376 1_554 S
C2618 C2616 1.394 . S
C2618 C2619 1.369 . S
C2618 C2622 1.531 . S
C2619 C2618 1.369 . S
C2619 C2620 1.410 . S
C2619 C2627 1.503 . S
C2620 C2619 1.410 . S
C2620 C2621 1.392 . S
C2620 C2623 1.511 . S
C2621 C2617 1.376 1_556 S
C2621 C2620 1.392 . S
C2621 H2633 0.929 . S
C2622 C2618 1.531 . S
C2622 H2634 0.960 . S
C2622 H2635 0.962 . S
C2622 H2636 0.960 . S
C2623 C2620 1.511 . S
C2623 H2637 0.961 . S
C2623 H2638 0.961 . S
C2623 H2639 0.961 . S
C2624 C2625 1.370 . S
C2624 C2626 1.363 . S
C2624 H2640 0.931 . S
C2625 C2624 1.370 . S
C2625 C2629 1.408 . S
C2626 C2624 1.363 . S
C2626 C2627 1.370 . S
C2626 C2630 1.524 . S
C2627 C2619 1.503 . S
C2627 C2626 1.370 . S
C2627 C2628 1.403 . S
C2628 C2627 1.403 . S
C2628 C2629 1.404 . S
C2628 C2631 1.539 . S
C2629 C2625 1.408 . S
C2629 C2628 1.404 . S
C2629 H2641 0.930 . S
C2630 C2626 1.524 . S
C2630 H2642 0.956 . S
C2630 H2643 0.961 . S
C2630 H2644 0.961 . S
C2631 C2628 1.539 . S
C2631 H2645 0.958 . S
C2631 H2646 0.961 . S
C2631 H2647 0.960 . S
H2632 C2616 0.931 1_554 S
H2633 C2621 0.929 . S
H2634 C2622 0.960 . S
H2635 C2622 0.962 . S
H2636 C2622 0.960 . S
H2637 C2623 0.961 . S
H2638 C2623 0.961 . S
H2639 C2623 0.961 . S
H2640 C2624 0.931 . S
H2641 C2629 0.930 . S
H2642 C2630 0.956 . S
H2643 C2630 0.961 . S
H2644 C2630 0.961 . S
H2645 C2631 0.958 . S
H2646 C2631 0.961 . S
H2647 C2631 0.960 . S
C2648 C2649 1.391 1_556 S
C2648 C2650 1.394 . S
C2648 H2664 0.931 1_556 S
C2649 C2648 1.391 1_554 S
C2649 C2653 1.376 1_554 S
C2650 C2648 1.394 . S
C2650 C2651 1.369 . S
C2650 C2654 1.531 . S
C2651 C2650 1.369 . S
C2651 C2652 1.410 . S
C2651 C2659 1.503 . S
C2652 C2651 1.410 . S
C2652 C2653 1.392 . S
C2652 C2655 1.511 . S
C2653 C2649 1.376 1_556 S
C2653 C2652 1.392 . S
C2653 H2665 0.929 1_556 S
C2654 C2650 1.531 . S
C2654 H2666 0.960 . S
C2654 H2667 0.962 . S
C2654 H2668 0.960 . S
C2655 C2652 1.511 . S
C2655 H2669 0.961 . S
C2655 H2670 0.961 . S
C2655 H2671 0.961 . S
C2656 C2657 1.370 . S
C2656 C2658 1.363 . S
C2656 H2672 0.931 . S
C2657 C2656 1.370 . S
C2657 C2661 1.408 . S
C2658 C2656 1.363 . S
C2658 C2659 1.370 . S
C2658 C2662 1.524 . S
C2659 C2651 1.503 . S
C2659 C2658 1.370 . S
C2659 C2660 1.403 . S
C2660 C2659 1.403 . S
C2660 C2661 1.404 . S
C2660 C2663 1.539 . S
C2661 C2657 1.408 . S
C2661 C2660 1.404 . S
C2661 H2673 0.930 . S
C2662 C2658 1.524 . S
C2662 H2674 0.956 . S
C2662 H2675 0.961 . S
C2662 H2676 0.961 . S
C2663 C2660 1.539 . S
C2663 H2677 0.958 . S
C2663 H2678 0.961 . S
C2663 H2679 0.960 . S
H2664 C2648 0.931 1_554 S
H2665 C2653 0.929 1_554 S
H2666 C2654 0.960 . S
H2667 C2654 0.962 . S
H2668 C2654 0.960 . S
H2669 C2655 0.961 . S
H2670 C2655 0.961 . S
H2671 C2655 0.961 . S
H2672 C2656 0.931 . S
H2673 C2661 0.930 . S
H2674 C2662 0.956 . S
H2675 C2662 0.961 . S
H2676 C2662 0.961 . S
H2677 C2663 0.958 . S
H2678 C2663 0.961 . S
H2679 C2663 0.960 . S
C2680 C2681 1.391 1_556 S
C2680 C2682 1.394 . S
C2680 H2696 0.931 1_556 S
C2681 C2680 1.391 1_554 S
C2681 C2685 1.376 1_554 S
C2682 C2680 1.394 . S
C2682 C2683 1.369 . S
C2682 C2686 1.531 . S
C2683 C2682 1.369 . S
C2683 C2684 1.410 . S
C2683 C2691 1.503 . S
C2684 C2683 1.410 . S
C2684 C2685 1.392 . S
C2684 C2687 1.511 . S
C2685 C2681 1.376 1_556 S
C2685 C2684 1.392 . S
C2685 H2697 0.929 . S
C2686 C2682 1.531 . S
C2686 H2698 0.960 . S
C2686 H2699 0.962 . S
C2686 H2700 0.960 . S
C2687 C2684 1.511 . S
C2687 H2701 0.961 . S
C2687 H2702 0.961 . S
C2687 H2703 0.961 . S
C2688 C2689 1.370 . S
C2688 C2690 1.363 . S
C2688 H2704 0.931 . S
C2689 C2688 1.370 . S
C2689 C2693 1.408 . S
C2690 C2688 1.363 . S
C2690 C2691 1.370 . S
C2690 C2694 1.524 . S
C2691 C2683 1.503 . S
C2691 C2690 1.370 . S
C2691 C2692 1.403 . S
C2692 C2691 1.403 . S
C2692 C2693 1.404 . S
C2692 C2695 1.539 . S
C2693 C2689 1.408 . S
C2693 C2692 1.404 . S
C2693 H2705 0.930 . S
C2694 C2690 1.524 . S
C2694 H2706 0.956 . S
C2694 H2707 0.961 . S
C2694 H2708 0.961 . S
C2695 C2692 1.539 . S
C2695 H2709 0.958 . S
C2695 H2710 0.961 . S
C2695 H2711 0.960 . S
H2696 C2680 0.931 1_554 S
H2697 C2685 0.929 . S
H2698 C2686 0.960 . S
H2699 C2686 0.962 . S
H2700 C2686 0.960 . S
H2701 C2687 0.961 . S
H2702 C2687 0.961 . S
H2703 C2687 0.961 . S
H2704 C2688 0.931 . S
H2705 C2693 0.930 . S
H2706 C2694 0.956 . S
H2707 C2694 0.961 . S
H2708 C2694 0.961 . S
H2709 C2695 0.958 . S
H2710 C2695 0.961 . S
H2711 C2695 0.960 . S
C2712 C2713 1.391 . S
C2712 C2714 1.394 . S
C2712 H2728 0.931 . S
C2713 C2712 1.391 . S
C2713 C2717 1.376 . S
C2714 C2712 1.394 . S
C2714 C2715 1.369 . S
C2714 C2718 1.531 . S
C2715 C2714 1.369 . S
C2715 C2716 1.410 . S
C2715 C2723 1.503 . S
C2716 C2715 1.410 . S
C2716 C2717 1.392 . S
C2716 C2719 1.511 . S
C2717 C2713 1.376 . S
C2717 C2716 1.392 . S
C2717 H2729 0.929 . S
C2718 C2714 1.531 . S
C2718 H2730 0.960 . S
C2718 H2731 0.962 . S
C2718 H2732 0.960 . S
C2719 C2716 1.511 . S
C2719 H2733 0.961 . S
C2719 H2734 0.961 . S
C2719 H2735 0.961 . S
C2720 C2721 1.370 . S
C2720 C2722 1.363 . S
C2720 H2736 0.931 . S
C2721 C2720 1.370 . S
C2721 C2725 1.408 . S
C2722 C2720 1.363 . S
C2722 C2723 1.370 . S
C2722 C2726 1.524 . S
C2723 C2715 1.503 . S
C2723 C2722 1.370 . S
C2723 C2724 1.403 . S
C2724 C2723 1.403 . S
C2724 C2725 1.404 . S
C2724 C2727 1.539 . S
C2725 C2721 1.408 . S
C2725 C2724 1.404 . S
C2725 H2737 0.930 . S
C2726 C2722 1.524 . S
C2726 H2738 0.956 . S
C2726 H2739 0.961 . S
C2726 H2740 0.961 . S
C2727 C2724 1.539 . S
C2727 H2741 0.958 . S
C2727 H2742 0.961 . S
C2727 H2743 0.960 . S
H2728 C2712 0.931 . S
H2729 C2717 0.929 . S
H2730 C2718 0.960 . S
H2731 C2718 0.962 . S
H2732 C2718 0.960 . S
H2733 C2719 0.961 . S
H2734 C2719 0.961 . S
H2735 C2719 0.961 . S
H2736 C2720 0.931 . S
H2737 C2725 0.930 . S
H2738 C2726 0.956 . S
H2739 C2726 0.961 . S
H2740 C2726 0.961 . S
H2741 C2727 0.958 . S
H2742 C2727 0.961 . S
H2743 C2727 0.960 . S
C2744 C2745 1.391 . S
C2744 C2746 1.394 . S
C2744 H2760 0.931 . S
C2745 C2744 1.391 . S
C2745 C2749 1.376 . S
C2746 C2744 1.394 . S
C2746 C2747 1.369 . S
C2746 C2750 1.531 . S
C2747 C2746 1.369 . S
C2747 C2748 1.410 . S
C2747 C2755 1.503 . S
C2748 C2747 1.410 . S
C2748 C2749 1.392 . S
C2748 C2751 1.511 . S
C2749 C2745 1.376 . S
C2749 C2748 1.392 . S
C2749 H2761 0.929 . S
C2750 C2746 1.531 . S
C2750 H2762 0.960 . S
C2750 H2763 0.962 . S
C2750 H2764 0.960 . S
C2751 C2748 1.511 . S
C2751 H2765 0.961 . S
C2751 H2766 0.961 . S
C2751 H2767 0.961 . S
C2752 C2753 1.370 . S
C2752 C2754 1.363 . S
C2752 H2768 0.931 . S
C2753 C2752 1.370 . S
C2753 C2757 1.408 . S
C2754 C2752 1.363 . S
C2754 C2755 1.370 . S
C2754 C2758 1.524 . S
C2755 C2747 1.503 . S
C2755 C2754 1.370 . S
C2755 C2756 1.403 . S
C2756 C2755 1.403 . S
C2756 C2757 1.404 . S
C2756 C2759 1.539 . S
C2757 C2753 1.408 . S
C2757 C2756 1.404 . S
C2757 H2769 0.930 . S
C2758 C2754 1.524 . S
C2758 H2770 0.956 . S
C2758 H2771 0.961 . S
C2758 H2772 0.961 . S
C2759 C2756 1.539 . S
C2759 H2773 0.958 . S
C2759 H2774 0.961 . S
C2759 H2775 0.960 . S
H2760 C2744 0.931 . S
H2761 C2749 0.929 . S
H2762 C2750 0.960 . S
H2763 C2750 0.962 . S
H2764 C2750 0.960 . S
H2765 C2751 0.961 . S
H2766 C2751 0.961 . S
H2767 C2751 0.961 . S
H2768 C2752 0.931 . S
H2769 C2757 0.930 . S
H2770 C2758 0.956 . S
H2771 C2758 0.961 . S
H2772 C2758 0.961 . S
H2773 C2759 0.958 . S
H2774 C2759 0.961 . S
H2775 C2759 0.960 . S
C2776 C2777 1.391 . S
C2776 C2778 1.394 . S
C2776 H2792 0.931 . S
C2777 C2776 1.391 . S
C2777 C2781 1.376 . S
C2778 C2776 1.394 . S
C2778 C2779 1.369 . S
C2778 C2782 1.531 . S
C2779 C2778 1.369 . S
C2779 C2780 1.410 . S
C2779 C2787 1.503 . S
C2780 C2779 1.410 . S
C2780 C2781 1.392 . S
C2780 C2783 1.511 . S
C2781 C2777 1.376 . S
C2781 C2780 1.392 . S
C2781 H2793 0.929 . S
C2782 C2778 1.531 . S
C2782 H2794 0.960 . S
C2782 H2795 0.962 . S
C2782 H2796 0.960 . S
C2783 C2780 1.511 . S
C2783 H2797 0.961 . S
C2783 H2798 0.961 . S
C2783 H2799 0.961 . S
C2784 C2785 1.370 . S
C2784 C2786 1.363 . S
C2784 H2800 0.931 . S
C2785 C2784 1.370 . S
C2785 C2789 1.408 . S
C2786 C2784 1.363 . S
C2786 C2787 1.370 . S
C2786 C2790 1.524 . S
C2787 C2779 1.503 . S
C2787 C2786 1.370 . S
C2787 C2788 1.403 . S
C2788 C2787 1.403 . S
C2788 C2789 1.404 . S
C2788 C2791 1.539 . S
C2789 C2785 1.408 . S
C2789 C2788 1.404 . S
C2789 H2801 0.930 . S
C2790 C2786 1.524 . S
C2790 H2802 0.956 . S
C2790 H2803 0.961 . S
C2790 H2804 0.961 . S
C2791 C2788 1.539 . S
C2791 H2805 0.958 . S
C2791 H2806 0.961 . S
C2791 H2807 0.960 . S
H2792 C2776 0.931 . S
H2793 C2781 0.929 . S
H2794 C2782 0.960 . S
H2795 C2782 0.962 . S
H2796 C2782 0.960 . S
H2797 C2783 0.961 . S
H2798 C2783 0.961 . S
H2799 C2783 0.961 . S
H2800 C2784 0.931 . S
H2801 C2789 0.930 . S
H2802 C2790 0.956 . S
H2803 C2790 0.961 . S
H2804 C2790 0.961 . S
H2805 C2791 0.958 . S
H2806 C2791 0.961 . S
H2807 C2791 0.960 . S
C505 C232 1.115 . S
C513 C8 1.124 . S
C537 C246 1.132 . S
C545 C22 1.125 . S
C569 C36 1.136 . S
C577 C218 1.127 . S
C601 C372 1.114 . S
C609 C50 1.125 . S
C633 C344 1.135 . S
C641 C64 1.126 . S
C665 C78 1.132 . S
C673 C358 1.125 . S
C697 C484 1.122 . S
C705 C92 1.123 . S
C729 C498 1.122 . S
C737 C106 1.123 . S
C761 C470 1.127 . S
C769 C120 1.132 . S
C793 C288 1.127 . S
C801 C134 1.132 . S
C825 C148 1.117 . S
C833 C260 1.124 . S
C857 C274 1.115 . S
C865 C162 1.130 . S
C889 C400 1.114 . S
C897 C176 1.128 . S
C921 C190 1.136 . S
C929 C414 1.131 . S
C953 C386 1.125 . S
C961 C204 1.123 . S
C985 C456 1.128 . S
C993 C302 1.123 . S
C1017 C428 1.136 . S
C1025 C316 1.130 . S
C1049 C330 1.130 . S
C1057 C442 1.132 . S
C1081 C101 1.560 . S
C1089 C7 1.550 . S
C1113 C115 1.562 . S
C1121 C21 1.552 . S
C1145 C87 1.556 . S
C1153 C35 1.545 . S
C1177 C49 1.558 . S
C1185 C157 1.564 . S
C1209 C129 1.551 . S
C1217 C63 1.538 . S
C1241 C77 1.550 . S
C1249 C143 1.563 . S
C1273 C17 1.552 . S
C1281 C91 1.540 . S
C1305 C105 1.557 . S
C1313 C31 1.564 . S
C1337 C3 1.563 . S
C1345 C119 1.551 . S
C1369 C73 1.554 . S
C1377 C133 1.542 . S
C1401 C45 1.562 . S
C1409 C147 1.551 . S
C1433 C161 1.546 . S
C1441 C59 1.562 . S
C1465 C175 1.554 . S
C1473 C269 1.564 . S
C1497 C283 1.563 . S
C1505 C189 1.550 . S
C1529 C255 1.564 . S
C1537 C203 1.552 . S
C1561 C217 1.527 . S
C1569 C325 1.560 . S
C1593 C297 1.561 . S
C1601 C231 1.548 . S
C1625 C245 1.529 . S
C1633 C311 1.559 . S
C1657 C259 1.530 . S
C1665 C185 1.560 . S
C1689 C273 1.531 . S
C1697 C199 1.560 . S
C1721 C171 1.551 . S
C1729 C287 1.539 . S
C1753 C241 1.559 . S
C1761 C301 1.548 . S
C1785 C213 1.564 . S
C1793 C315 1.553 . S
C1817 C329 1.559 . S
C1825 C227 1.564 . S
C1849 C437 1.553 . S
C1857 C343 1.539 . S
C1881 C357 1.558 . S
C1889 C451 1.564 . S
C1913 C371 1.525 . S
C1921 C423 1.559 . S
C1945 C493 1.564 . S
C1953 C385 1.552 . S
C1977 C399 1.533 . S
C1985 C465 1.560 . S
C2009 C479 1.558 . S
C2017 C413 1.548 . S
C2041 C353 1.557 . S
C2049 C427 1.544 . S
C2073 C367 1.553 . S
C2081 C441 1.540 . S
C2105 C455 1.549 . S
C2113 C339 1.563 . S
C2137 C469 1.554 . S
C2145 C409 1.563 . S
C2169 C381 1.564 . S
C2177 C483 1.553 . S
C2201 C395 1.564 . S
C2209 C497 1.553 . S
C2233 C9 1.549 . S
C2241 C51 1.556 . S
C2265 C23 1.570 . S
C2273 C65 1.563 . S
C2297 C79 1.557 . S
C2305 C37 1.558 . S
C2329 C93 1.567 . S
C2337 C135 1.559 . S
C2361 C149 1.561 . S
C2369 C107 1.569 . S
C2393 C163 1.542 . S
C2401 C121 1.560 . S
C2425 C177 1.550 . S
C2433 C219 1.556 . S
C2457 C191 1.553 . S
C2465 C233 1.565 . S
C2489 C247 1.554 . S
C2497 C205 1.557 . S
C2521 C261 1.555 . S
C2529 C303 1.556 . S
C2553 C275 1.566 . S
C2561 C317 1.570 . S
C2585 C289 1.573 . S
C2593 C331 1.563 . S
C2617 C387 1.543 . S
C2625 C345 1.557 . S
C2649 C401 1.547 . S
C2657 C359 1.563 . S
C2681 C415 1.543 . S
C2689 C373 1.557 . S
C2713 C429 1.571 . S
C2721 C471 1.570 . S
C2745 C485 1.543 . S
C2753 C443 1.562 . S
C2777 C499 1.574 . S
C2785 C457 1.569 . S
