# Generated by pormake.
# Topology umd, (4)-cn, num edge types: 1
# Building blocks:
#     Node 0, Type 0, BuildingBlock: QUQFOY_clean_sbu_3, # of connection points: 4
#     Node 1, Type 0, BuildingBlock: QUQFOY_clean_sbu_3, # of connection points: 4
#     Node 2, Type 0, BuildingBlock: QUQFOY_clean_sbu_3, # of connection points: 4
#     Node 3, Type 0, BuildingBlock: QUQFOY_clean_sbu_3, # of connection points: 4
#     Node 4, Type 0, BuildingBlock: QUQFOY_clean_sbu_3, # of connection points: 4
#     Node 5, Type 0, BuildingBlock: QUQFOY_clean_sbu_3, # of connection points: 4
#     Node 6, Type 0, BuildingBlock: QUQFOY_clean_sbu_3, # of connection points: 4
#     Node 7, Type 0, BuildingBlock: QUQFOY_clean_sbu_3, # of connection points: 4
#     Node 8, Type 0, BuildingBlock: QUQFOY_clean_sbu_3, # of connection points: 4
#     Node 9, Type 0, BuildingBlock: QUQFOY_clean_sbu_3, # of connection points: 4
#     Node 10, Type 0, BuildingBlock: QUQFOY_clean_sbu_3, # of connection points: 4
#     Node 11, Type 0, BuildingBlock: QUQFOY_clean_sbu_3, # of connection points: 4
#     Node 12, Type 0, BuildingBlock: QUQFOY_clean_sbu_3, # of connection points: 4
#     Node 13, Type 0, BuildingBlock: QUQFOY_clean_sbu_3, # of connection points: 4
#     Node 14, Type 0, BuildingBlock: QUQFOY_clean_sbu_3, # of connection points: 4
#     Node 15, Type 0, BuildingBlock: QUQFOY_clean_sbu_3, # of connection points: 4
#     Edge 16, Type (0, 0), BuildingBlock: ZUJKAS_clean_linker_0, # of connection points: 2
#     Edge 17, Type (0, 0), BuildingBlock: ZUJKAS_clean_linker_0, # of connection points: 2
#     Edge 18, Type (0, 0), BuildingBlock: ZUJKAS_clean_linker_0, # of connection points: 2
#     Edge 19, Type (0, 0), BuildingBlock: ZUJKAS_clean_linker_0, # of connection points: 2
#     Edge 20, Type (0, 0), BuildingBlock: ZUJKAS_clean_linker_0, # of connection points: 2
#     Edge 21, Type (0, 0), BuildingBlock: ZUJKAS_clean_linker_0, # of connection points: 2
#     Edge 22, Type (0, 0), BuildingBlock: ZUJKAS_clean_linker_0, # of connection points: 2
#     Edge 23, Type (0, 0), BuildingBlock: ZUJKAS_clean_linker_0, # of connection points: 2
#     Edge 24, Type (0, 0), BuildingBlock: ZUJKAS_clean_linker_0, # of connection points: 2
#     Edge 25, Type (0, 0), BuildingBlock: ZUJKAS_clean_linker_0, # of connection points: 2
#     Edge 26, Type (0, 0), BuildingBlock: ZUJKAS_clean_linker_0, # of connection points: 2
#     Edge 27, Type (0, 0), BuildingBlock: ZUJKAS_clean_linker_0, # of connection points: 2
#     Edge 28, Type (0, 0), BuildingBlock: ZUJKAS_clean_linker_0, # of connection points: 2
#     Edge 29, Type (0, 0), BuildingBlock: ZUJKAS_clean_linker_0, # of connection points: 2
#     Edge 30, Type (0, 0), BuildingBlock: ZUJKAS_clean_linker_0, # of connection points: 2
#     Edge 31, Type (0, 0), BuildingBlock: ZUJKAS_clean_linker_0, # of connection points: 2
#     Edge 32, Type (0, 0), BuildingBlock: ZUJKAS_clean_linker_0, # of connection points: 2
#     Edge 33, Type (0, 0), BuildingBlock: ZUJKAS_clean_linker_0, # of connection points: 2
#     Edge 34, Type (0, 0), BuildingBlock: ZUJKAS_clean_linker_0, # of connection points: 2
#     Edge 35, Type (0, 0), BuildingBlock: ZUJKAS_clean_linker_0, # of connection points: 2
#     Edge 36, Type (0, 0), BuildingBlock: ZUJKAS_clean_linker_0, # of connection points: 2
#     Edge 37, Type (0, 0), BuildingBlock: ZUJKAS_clean_linker_0, # of connection points: 2
#     Edge 38, Type (0, 0), BuildingBlock: ZUJKAS_clean_linker_0, # of connection points: 2
#     Edge 39, Type (0, 0), BuildingBlock: ZUJKAS_clean_linker_0, # of connection points: 2
#     Edge 40, Type (0, 0), BuildingBlock: ZUJKAS_clean_linker_0, # of connection points: 2
#     Edge 41, Type (0, 0), BuildingBlock: ZUJKAS_clean_linker_0, # of connection points: 2
#     Edge 42, Type (0, 0), BuildingBlock: ZUJKAS_clean_linker_0, # of connection points: 2
#     Edge 43, Type (0, 0), BuildingBlock: ZUJKAS_clean_linker_0, # of connection points: 2
#     Edge 44, Type (0, 0), BuildingBlock: ZUJKAS_clean_linker_0, # of connection points: 2
#     Edge 45, Type (0, 0), BuildingBlock: ZUJKAS_clean_linker_0, # of connection points: 2
#     Edge 46, Type (0, 0), BuildingBlock: ZUJKAS_clean_linker_0, # of connection points: 2
#     Edge 47, Type (0, 0), BuildingBlock: ZUJKAS_clean_linker_0, # of connection points: 2
# Relax obj value: 0.100
# Max RMSD: 0.237
# Mean RMSD: 0.237
data_MOF--net-umd--node1-QUQFOY_clean_sbu_3--edge1-ZUJKAS_clean_linker_0
_symmetry_space_group_name_H-M    P1
_symmetry_Int_Tables_number       1
_symmetry_cell_setting            triclinic
loop_
_symmetry_equiv_pos_as_xyz
'x, y, z'
_cell_length_a     51.638929
_cell_length_b     51.712901
_cell_length_c     75.624943
_cell_angle_alpha  90.079517
_cell_angle_beta   89.997126
_cell_angle_gamma 90.037386
loop_
_atom_site_label
_atom_site_type_symbol
_atom_site_fract_x
_atom_site_fract_y
_atom_site_fract_z
_atom_type_partial_charge
C0 C 0.20063 0.49033 0.13964 0.0
O1 O 0.19557 0.51063 0.1309 0.0
Cd2 Cd 0.1838 0.5092 0.1001 0.0
O3 O 0.19898 0.4681 0.13254 0.0
Cd4 Cd 0.18771 0.44766 0.10435 0.0
C5 C 0.12773 0.47399 0.10462 0.0
O6 O 0.21028 0.47829 0.08506 0.0
O7 O 0.18374 0.45154 0.07264 0.0
O8 O 0.22338 0.41925 0.11134 0.0
C9 C 0.2005 0.46929 0.07095 0.0
O10 O 0.13902 0.4947 0.09976 0.0
C11 C 0.21184 0.39815 0.10801 0.0
O12 O 0.14068 0.45397 0.10899 0.0
O13 O 0.18834 0.39973 0.10309 0.0
C14 C 0.49497 0.20339 0.63608 0.0
O15 O 0.47492 0.20264 0.62637 0.0
Cd16 Cd 0.47703 0.19048 0.59576 0.0
O17 O 0.51727 0.19885 0.6296 0.0
Cd18 Cd 0.53938 0.18917 0.60152 0.0
C19 C 0.50811 0.13139 0.6003 0.0
O20 O 0.51099 0.21574 0.58309 0.0
O21 O 0.53872 0.19149 0.56956 0.0
O22 O 0.56949 0.22118 0.61268 0.0
C23 C 0.52113 0.20851 0.56864 0.0
O24 O 0.488 0.14462 0.59666 0.0
C25 C 0.59002 0.20961 0.60797 0.0
O26 O 0.52972 0.14249 0.60345 0.0
O27 O 0.58726 0.18761 0.60065 0.0
C28 C 0.77614 0.49008 0.13938 0.0
O29 O 0.77743 0.46988 0.12987 0.0
Cd30 Cd 0.79182 0.47172 0.09966 0.0
O31 O 0.78134 0.51212 0.13282 0.0
Cd32 Cd 0.79325 0.53266 0.10475 0.0
C33 C 0.85077 0.50211 0.10575 0.0
O34 O 0.76866 0.50493 0.08449 0.0
O35 O 0.79859 0.52891 0.07307 0.0
O36 O 0.75898 0.56259 0.1119 0.0
C37 C 0.77994 0.51331 0.07074 0.0
O38 O 0.83788 0.48236 0.10081 0.0
C39 C 0.77151 0.58321 0.10888 0.0
O40 O 0.83943 0.52325 0.10974 0.0
O41 O 0.79501 0.58065 0.10412 0.0
C42 C 0.4827 0.77982 0.63987 0.0
O43 O 0.50405 0.7806 0.63157 0.0
Cd44 Cd 0.50552 0.79548 0.60146 0.0
O45 O 0.46166 0.78572 0.63213 0.0
Cd46 Cd 0.443 0.79808 0.60358 0.0
C47 C 0.47521 0.85506 0.60601 0.0
O48 O 0.47276 0.77295 0.58512 0.0
O49 O 0.44731 0.79988 0.57188 0.0
O50 O 0.41309 0.76435 0.61161 0.0
C51 C 0.4646 0.78256 0.57073 0.0
O52 O 0.49538 0.84146 0.60326 0.0
C53 C 0.39242 0.77633 0.60782 0.0
O54 O 0.45299 0.84443 0.60758 0.0
O55 O 0.39489 0.79929 0.60201 0.0
C56 C 0.1994 0.48371 0.32742 0.0
O57 O 0.19424 0.46428 0.33704 0.0
Cd58 Cd 0.18481 0.46875 0.36814 0.0
O59 O 0.19834 0.50657 0.33357 0.0
Cd60 Cd 0.18775 0.52981 0.36084 0.0
C61 C 0.12798 0.50237 0.36441 0.0
O62 O 0.21334 0.50107 0.37977 0.0
O63 O 0.19085 0.53079 0.39273 0.0
O64 O 0.22057 0.55883 0.34938 0.0
C65 C 0.2072 0.51263 0.39395 0.0
O66 O 0.13985 0.48227 0.36973 0.0
C67 C 0.20934 0.57972 0.35366 0.0
O68 O 0.1404 0.52205 0.35875 0.0
O69 O 0.18718 0.57766 0.36085 0.0
C70 C 0.48303 0.19589 0.82411 0.0
O71 O 0.50395 0.19493 0.83291 0.0
Cd72 Cd 0.50414 0.18277 0.86356 0.0
O73 O 0.46138 0.19143 0.83156 0.0
Cd74 Cd 0.4416 0.18161 0.86034 0.0
C75 C 0.47265 0.1237 0.86049 0.0
O76 O 0.47151 0.2083 0.87772 0.0
O77 O 0.44451 0.18438 0.8922 0.0
O78 O 0.41104 0.21366 0.84999 0.0
C79 C 0.46227 0.2013 0.8925 0.0
O80 O 0.49311 0.13692 0.86319 0.0
C81 C 0.39071 0.20222 0.8552 0.0
O82 O 0.45084 0.13484 0.85824 0.0
O83 O 0.39373 0.18031 0.86256 0.0
C84 C 0.77974 0.48074 0.32732 0.0
O85 O 0.78141 0.50149 0.33626 0.0
Cd86 Cd 0.79252 0.50107 0.36725 0.0
O87 O 0.78351 0.45892 0.33463 0.0
Cd88 Cd 0.7933 0.43865 0.36309 0.0
C89 C 0.85135 0.46957 0.36462 0.0
O90 O 0.76651 0.46824 0.38058 0.0
O91 O 0.79024 0.4411 0.39501 0.0
O92 O 0.76158 0.40808 0.35216 0.0
C93 C 0.77337 0.45888 0.39534 0.0
O94 O 0.83834 0.48976 0.36841 0.0
C95 C 0.77297 0.3878 0.35746 0.0
O96 O 0.84009 0.44833 0.36074 0.0
O97 O 0.79469 0.39087 0.36512 0.0
C98 C 0.48673 0.77284 0.82707 0.0
O99 O 0.46683 0.77379 0.83692 0.0
Cd100 Cd 0.46997 0.78736 0.86727 0.0
O101 O 0.50905 0.778 0.83329 0.0
Cd102 Cd 0.53236 0.78915 0.86054 0.0
C103 C 0.50051 0.84664 0.86159 0.0
O104 O 0.50481 0.76325 0.87994 0.0
O105 O 0.53357 0.7875 0.8925 0.0
O106 O 0.56144 0.75651 0.84927 0.0
C107 C 0.51565 0.77089 0.89406 0.0
O108 O 0.48059 0.83326 0.8655 0.0
C109 C 0.58237 0.76854 0.85237 0.0
O110 O 0.52218 0.83572 0.85839 0.0
O111 O 0.58032 0.79101 0.85911 0.0
C112 C 0.77772 0.48014 0.82544 0.0
O113 O 0.78301 0.46072 0.83501 0.0
Cd114 Cd 0.79743 0.46601 0.86503 0.0
O115 O 0.78055 0.50308 0.8312 0.0
Cd116 Cd 0.7942 0.52709 0.85766 0.0
C117 C 0.85402 0.4992 0.85706 0.0
O118 O 0.771 0.49897 0.87837 0.0
O119 O 0.79508 0.52903 0.88958 0.0
O120 O 0.75994 0.5559 0.84818 0.0
C121 C 0.7789 0.51094 0.89199 0.0
O122 O 0.84256 0.4787 0.86212 0.0
C123 C 0.77223 0.57686 0.85057 0.0
O124 O 0.84114 0.51964 0.85359 0.0
O125 O 0.79545 0.5749 0.85601 0.0
C126 C 0.49989 0.76924 0.32568 0.0
O127 O 0.52062 0.7726 0.3344 0.0
Cd128 Cd 0.51964 0.79146 0.3634 0.0
O129 O 0.47804 0.77446 0.33259 0.0
Cd130 Cd 0.45828 0.78882 0.36046 0.0
C131 C 0.48546 0.8478 0.3553 0.0
O132 O 0.48866 0.76842 0.38097 0.0
O133 O 0.46297 0.79745 0.39175 0.0
O134 O 0.42957 0.75213 0.35778 0.0
C135 C 0.48011 0.78034 0.39442 0.0
O136 O 0.50664 0.83649 0.35913 0.0
C137 C 0.40847 0.76461 0.35844 0.0
O138 O 0.46443 0.83499 0.35394 0.0
O139 O 0.4102 0.78905 0.35999 0.0
C140 C 0.21186 0.49147 0.82475 0.0
O141 O 0.20916 0.51306 0.83254 0.0
Cd142 Cd 0.19029 0.51547 0.86154 0.0
O143 O 0.20557 0.47057 0.83248 0.0
Cd144 Cd 0.18938 0.45401 0.86079 0.0
C145 C 0.13189 0.48426 0.85475 0.0
O146 O 0.21106 0.48473 0.88056 0.0
O147 O 0.18073 0.46094 0.89176 0.0
O148 O 0.22456 0.42329 0.86049 0.0
C149 C 0.19857 0.47746 0.89413 0.0
O150 O 0.14456 0.50496 0.85773 0.0
C151 C 0.21086 0.40295 0.86086 0.0
O152 O 0.14338 0.46242 0.85417 0.0
O153 O 0.18642 0.40603 0.8611 0.0
C154 C 0.48422 0.20361 0.32349 0.0
O155 O 0.46284 0.20132 0.33161 0.0
Cd156 Cd 0.46138 0.18357 0.36086 0.0
O157 O 0.50537 0.19788 0.33116 0.0
Cd158 Cd 0.52202 0.18384 0.36007 0.0
C159 C 0.49348 0.12559 0.35505 0.0
O160 O 0.49137 0.20662 0.3793 0.0
O161 O 0.51434 0.17635 0.39125 0.0
O162 O 0.55222 0.21945 0.35851 0.0
C163 C 0.49851 0.19488 0.39319 0.0
O164 O 0.47251 0.13782 0.35798 0.0
C165 C 0.57279 0.20626 0.35996 0.0
O166 O 0.51502 0.13761 0.35414 0.0
O167 O 0.57009 0.18189 0.36134 0.0
C168 C 0.77425 0.49859 0.63962 0.0
O169 O 0.77949 0.52 0.63228 0.0
Cd170 Cd 0.79563 0.52189 0.60255 0.0
O171 O 0.77756 0.47736 0.63143 0.0
Cd172 Cd 0.79246 0.46142 0.60255 0.0
C173 C 0.85208 0.48777 0.60777 0.0
O174 O 0.77122 0.49346 0.58359 0.0
O175 O 0.80073 0.46949 0.57157 0.0
O176 O 0.7566 0.43123 0.6025 0.0
C177 C 0.78288 0.48611 0.56969 0.0
O178 O 0.8409 0.50926 0.60478 0.0
C179 C 0.77001 0.41073 0.6018 0.0
O180 O 0.83899 0.46689 0.60875 0.0
O181 O 0.79447 0.41351 0.60144 0.0
C182 C 0.4911 0.77467 0.13993 0.0
O183 O 0.4693 0.77693 0.13234 0.0
Cd184 Cd 0.46739 0.7947 0.10302 0.0
O185 O 0.5118 0.78068 0.13182 0.0
Cd186 Cd 0.52875 0.79526 0.10328 0.0
C187 C 0.49938 0.85289 0.10913 0.0
O188 O 0.49779 0.77215 0.08447 0.0
O189 O 0.52147 0.80143 0.07199 0.0
O190 O 0.55864 0.76032 0.10843 0.0
C191 C 0.50487 0.7835 0.07041 0.0
O192 O 0.47852 0.84041 0.10622 0.0
C193 C 0.5793 0.7727 0.10523 0.0
O194 O 0.5211 0.84118 0.1098 0.0
O195 O 0.5768 0.79631 0.10082 0.0
C196 C 0.20731 0.48723 0.63872 0.0
O197 O 0.20585 0.46659 0.62968 0.0
Cd198 Cd 0.18883 0.46702 0.60023 0.0
O199 O 0.20117 0.50888 0.63192 0.0
Cd200 Cd 0.18757 0.52839 0.60371 0.0
C201 C 0.13006 0.49776 0.60715 0.0
O202 O 0.21183 0.49958 0.58412 0.0
O203 O 0.18249 0.52348 0.572 0.0
O204 O 0.22137 0.55938 0.61013 0.0
C205 C 0.20087 0.50746 0.57013 0.0
O206 O 0.14282 0.4774 0.60338 0.0
C207 C 0.20823 0.57959 0.60706 0.0
O208 O 0.14155 0.51943 0.60904 0.0
O209 O 0.18477 0.57627 0.60246 0.0
C210 C 0.49718 0.20782 0.13705 0.0
O211 O 0.51876 0.20502 0.12927 0.0
Cd212 Cd 0.51977 0.18757 0.09978 0.0
O213 O 0.47617 0.20259 0.12904 0.0
Cd214 Cd 0.45886 0.18881 0.10039 0.0
C215 C 0.48648 0.13032 0.106 0.0
O216 O 0.49007 0.21089 0.08116 0.0
O217 O 0.46591 0.18146 0.06921 0.0
O218 O 0.42944 0.22453 0.1046 0.0
C219 C 0.48258 0.19926 0.06728 0.0
O220 O 0.50766 0.14208 0.10282 0.0
C221 C 0.40862 0.21211 0.10197 0.0
O222 O 0.4652 0.14275 0.10694 0.0
O223 O 0.41083 0.18817 0.09837 0.0
H224 H 0.09612 0.44969 0.12851 0.0
H225 H 0.04893 0.45395 0.13103 0.0
H226 H 0.04805 0.50173 0.08425 0.0
H227 H 0.09509 0.49876 0.08239 0.0
H228 H 0.01975 0.52299 0.10795 0.0
H229 H -0.00789 0.41949 0.10496 0.0
H230 H 0.01348 0.42662 0.123 0.0
H231 H 0.02465 0.43033 0.10058 0.0
C232 C 0.08571 0.4608 0.11868 0.0
C233 C 0.09917 0.47386 0.10525 0.0
C234 C 0.05874 0.46314 0.12006 0.0
C235 C 0.04476 0.47789 0.10769 0.0
C236 C 0.0583 0.49033 0.09402 0.0
H237 H 0.88176 0.47157 0.0857 0.0
H238 H 0.92868 0.46698 0.08728 0.0
C239 C 0.08518 0.48854 0.09291 0.0
C240 C 0.01624 0.4815 0.10918 0.0
H241 H 0.95863 0.44928 0.1115 0.0
C242 C 0.00639 0.50683 0.10866 0.0
C243 C -0.00127 0.46046 0.11003 0.0
C244 C 0.00774 0.43271 0.1095 0.0
C245 C 0.97965 0.51172 0.10848 0.0
C246 C 0.96214 0.49072 0.10969 0.0
C247 C 0.97201 0.46541 0.11067 0.0
C248 C 0.93357 0.49426 0.10879 0.0
C249 C 0.97061 0.53927 0.10617 0.0
C250 C 0.9205 0.5112 0.12031 0.0
C251 C 0.89362 0.5144 0.11907 0.0
C252 C 0.87927 0.50006 0.10669 0.0
C253 C 0.89231 0.48283 0.09541 0.0
C254 C 0.91915 0.48013 0.09635 0.0
H255 H 0.98593 0.55163 0.10026 0.0
H256 H 0.95318 0.54027 0.09761 0.0
H257 H 0.96569 0.54752 0.1193 0.0
H258 H 0.93101 0.52176 0.13039 0.0
H259 H 0.88399 0.52753 0.1281 0.0
H260 H 0.52009 0.88265 0.60829 0.0
H261 H 0.52549 0.92943 0.6087 0.0
H262 H 0.44265 0.93919 0.60598 0.0
H263 H 0.43697 0.89212 0.60593 0.0
H264 H 0.51169 0.96365 0.58336 0.0
H265 H 0.4617 0.98746 0.64625 0.0
H266 H 0.47065 0.95483 0.64037 0.0
H267 H 0.44214 0.96934 0.63101 0.0
C268 C 0.50293 0.89467 0.60792 0.0
C269 C 0.47805 0.88358 0.60709 0.0
C270 C 0.5061 0.92146 0.60815 0.0
C271 C 0.4845 0.93785 0.60757 0.0
C272 C 0.45959 0.92692 0.60683 0.0
H273 H 0.46413 0.10251 0.59683 0.0
H274 H 0.4596 0.05568 0.59871 0.0
C275 C 0.45637 0.90001 0.60671 0.0
C276 C 0.48835 0.96629 0.6069 0.0
H277 H 0.4736 0.0229 0.62794 0.0
C278 C 0.50349 0.97659 0.59317 0.0
C279 C 0.47769 0.98314 0.61974 0.0
C280 C 0.46234 0.97316 0.63528 0.0
C281 C 0.50786 0.0033 0.59173 0.0
C282 C 0.497 0.02013 0.60446 0.0
C283 C 0.48192 0.00989 0.61822 0.0
C284 C 0.50027 0.04855 0.60335 0.0
C285 C 0.52352 0.0134 0.57637 0.0
C286 C 0.52471 0.06011 0.60544 0.0
C287 C 0.52744 0.08702 0.6044 0.0
C288 C 0.50574 0.10281 0.60124 0.0
C289 C 0.48131 0.09103 0.59921 0.0
C290 C 0.47862 0.06423 0.60032 0.0
H291 H 0.52618 -0.00146 0.5659 0.0
H292 H 0.51406 0.03062 0.57045 0.0
H293 H 0.54295 0.01936 0.58116 0.0
H294 H 0.54162 0.04831 0.60801 0.0
H295 H 0.54649 0.09543 0.6061 0.0
H296 H 0.09641 0.47791 0.38764 0.0
H297 H 0.04946 0.47319 0.38613 0.0
H298 H 0.04799 0.51939 0.33866 0.0
H299 H 0.09507 0.52536 0.34073 0.0
H300 H 0.00836 0.53106 0.35788 0.0
H301 H 0.01223 0.42458 0.35471 0.0
H302 H 0.02751 0.43584 0.37453 0.0
H303 H 0.04097 0.44427 0.35328 0.0
C304 C 0.08604 0.48723 0.37695 0.0
C305 C 0.09937 0.50184 0.36422 0.0
C306 C 0.05922 0.48426 0.37598 0.0
C307 C 0.04521 0.49509 0.36191 0.0
C308 C 0.05838 0.51056 0.34953 0.0
H309 H 0.88547 0.44266 0.34382 0.0
H310 H 0.93238 0.4494 0.34149 0.0
C311 C 0.08525 0.51405 0.35074 0.0
C312 C 0.01684 0.49044 0.36035 0.0
H313 H 0.97092 0.44294 0.36231 0.0
C314 C 0.00021 0.51175 0.35864 0.0
C315 C 0.00607 0.46522 0.36081 0.0
C316 C 0.02268 0.4412 0.36072 0.0
C317 C 0.97319 0.50864 0.35813 0.0
C318 C 0.96239 0.4836 0.36016 0.0
C319 C 0.97905 0.46221 0.36112 0.0
C320 C 0.93397 0.4792 0.36165 0.0
C321 C 0.95664 0.53228 0.35513 0.0
C322 C 0.91928 0.4931 0.37406 0.0
C323 C 0.89252 0.48964 0.37514 0.0
C324 C 0.87991 0.47156 0.36423 0.0
C325 C 0.8947 0.45668 0.35241 0.0
C326 C 0.92148 0.4606 0.35105 0.0
H327 H 0.96735 0.54727 0.34756 0.0
H328 H 0.93862 0.52746 0.34783 0.0
H329 H 0.95134 0.54086 0.36809 0.0
H330 H 0.92849 0.50675 0.38293 0.0
H331 H 0.88165 0.50112 0.38456 0.0
H332 H 0.53901 0.88309 0.85786 0.0
H333 H 0.53404 0.93028 0.85736 0.0
H334 H 0.45129 0.92176 0.86234 0.0
H335 H 0.45602 0.87495 0.86323 0.0
H336 H 0.50682 0.96182 0.83444 0.0
H337 H 0.46756 0.97127 0.90237 0.0
H338 H 0.48262 0.94196 0.8945 0.0
H339 H 0.44952 0.94909 0.88888 0.0
C340 C 0.51977 0.89128 0.8589 0.0
C341 C 0.49796 0.8752 0.86077 0.0
C342 C 0.51696 0.91823 0.8586 0.0
C343 C 0.49233 0.92955 0.86019 0.0
C344 C 0.47053 0.91351 0.86159 0.0
H345 H 0.43341 0.08771 0.85882 0.0
H346 H 0.43776 0.04044 0.85794 0.0
C347 C 0.47331 0.88668 0.862 0.0
C348 C 0.48922 0.95808 0.86012 0.0
H349 H 0.46485 0.00859 0.8841 0.0
C350 C 0.49779 0.97206 0.84533 0.0
C351 C 0.47737 0.97143 0.87435 0.0
C352 C 0.46896 0.95772 0.891 0.0
C353 C 0.49444 -0.00103 0.84427 0.0
C354 C 0.48242 0.01223 0.85843 0.0
C355 C 0.47384 -0.00171 0.8732 0.0
C356 C 0.47965 0.04074 0.85852 0.0
C357 C 0.50346 0.01301 0.82791 0.0
C358 C 0.50173 0.05644 0.85935 0.0
C359 C 0.49934 0.0833 0.85996 0.0
C360 C 0.47476 0.0951 0.85976 0.0
C361 C 0.45261 0.07928 0.85894 0.0
C362 C 0.45505 0.0523 0.85844 0.0
H363 H 0.50661 -0.00045 0.81665 0.0
H364 H 0.48919 0.02795 0.82389 0.0
H365 H 0.52208 0.02289 0.83078 0.0
H366 H 0.52086 0.04787 0.85971 0.0
H367 H 0.51684 0.09481 0.86059 0.0
H368 H 0.88694 0.53993 0.85038 0.0
H369 H 0.93431 0.53846 0.84768 0.0
H370 H 0.93296 0.45617 0.85665 0.0
H371 H 0.88596 0.45734 0.85935 0.0
H372 H 0.96992 0.51924 0.87427 0.0
H373 H 0.97711 0.46466 0.81118 0.0
H374 H 0.94793 0.48121 0.81795 0.0
H375 H 0.9561 0.45044 0.82743 0.0
C376 C 0.89672 0.52151 0.85167 0.0
C377 C 0.88261 0.49877 0.85507 0.0
C378 C 0.92376 0.52071 0.85012 0.0
C379 C 0.93705 0.49714 0.85171 0.0
C380 C 0.92303 0.47447 0.85506 0.0
H381 H 0.0964 0.4446 0.85424 0.0
H382 H 0.04908 0.4483 0.85298 0.0
C383 C 0.89613 0.47525 0.85672 0.0
C384 C 0.96569 0.4962 0.85074 0.0
H385 H 0.01595 0.46939 0.82779 0.0
C386 C 0.98004 0.50858 0.86401 0.0
C387 C 0.97874 0.48205 0.83744 0.0
C388 C 0.96425 0.46898 0.82259 0.0
C389 C 0.00714 0.50664 0.86463 0.0
C390 C 0.02025 0.49243 0.85134 0.0
C391 C 0.00588 0.48023 0.83796 0.0
C392 C 0.04889 0.49006 0.85115 0.0
C393 C 0.02139 0.51912 0.87984 0.0
C394 C 0.06445 0.51223 0.85004 0.0
C395 C 0.09138 0.5102 0.85086 0.0
C396 C 0.10338 0.4859 0.85258 0.0
C397 C 0.08779 0.4636 0.85296 0.0
C398 C 0.06076 0.46568 0.85225 0.0
H399 H 0.00834 0.52292 0.89124 0.0
H400 H 0.03765 0.50678 0.88441 0.0
H401 H 0.02948 0.53793 0.87545 0.0
H402 H 0.05574 0.53117 0.84871 0.0
H403 H 0.10277 0.52778 0.8503 0.0
H404 H 0.45053 0.09488 0.35306 0.0
H405 H 0.44863 0.04785 0.35124 0.0
H406 H 0.53204 0.04425 0.35107 0.0
H407 H 0.53422 0.09156 0.3526 0.0
H408 H 0.50885 0.01127 0.32627 0.0
H409 H 0.46393 -0.0005 0.39245 0.0
H410 H 0.44637 0.02073 0.37803 0.0
H411 H 0.47835 0.02952 0.38531 0.0
C412 C 0.46854 0.08417 0.35262 0.0
C413 C 0.49256 0.09704 0.35313 0.0
C414 C 0.46738 0.05723 0.35166 0.0
C415 C 0.49017 0.04253 0.35139 0.0
C416 C 0.51421 0.05526 0.3514 0.0
H417 H 0.52741 0.87993 0.35391 0.0
H418 H 0.52775 0.92696 0.35162 0.0
C419 C 0.51541 0.08229 0.35228 0.0
C420 C 0.48884 0.01388 0.35119 0.0
H421 H 0.46655 0.96193 0.37454 0.0
C422 C 0.49968 0.00046 0.33684 0.0
C423 C 0.47682 -0.00017 0.36499 0.0
C424 C 0.46591 0.01308 0.38116 0.0
C425 C 0.49854 0.97335 0.33583 0.0
C426 C 0.48651 0.95935 0.34963 0.0
C427 C 0.47557 0.97276 0.36392 0.0
C428 C 0.48612 0.9307 0.34995 0.0
C429 C 0.50991 0.95991 0.3199 0.0
C430 C 0.46253 0.91718 0.34997 0.0
C431 C 0.46221 0.89018 0.35131 0.0
C432 C 0.48551 0.87627 0.35287 0.0
C433 C 0.50909 0.88996 0.35271 0.0
C434 C 0.50937 0.91687 0.35129 0.0
H435 H 0.51223 0.97335 0.30856 0.0
H436 H 0.52932 0.95225 0.32336 0.0
H437 H 0.49758 0.9434 0.31571 0.0
H438 H 0.44436 0.92756 0.34908 0.0
H439 H 0.44373 0.88027 0.35146 0.0
H440 H 0.88428 0.44555 0.6098 0.0
H441 H 0.93169 0.44561 0.61195 0.0
H442 H 0.93175 0.52898 0.61231 0.0
H443 H 0.88465 0.52919 0.61025 0.0
H444 H 0.96626 0.46967 0.58718 0.0
H445 H 0.97807 0.50965 0.65485 0.0
H446 H 0.94804 0.49565 0.64716 0.0
H447 H 0.95684 0.52797 0.64083 0.0
C448 C 0.89437 0.46389 0.61051 0.0
C449 C 0.88063 0.48735 0.60986 0.0
C450 C 0.92143 0.46388 0.61172 0.0
C451 C 0.93515 0.4873 0.61253 0.0
C452 C 0.9215 0.5107 0.61204 0.0
H453 H 0.09513 0.53735 0.61132 0.0
H454 H 0.04785 0.53401 0.61292 0.0
C455 C 0.89455 0.51074 0.61073 0.0
C456 C 0.96383 0.4875 0.61285 0.0
H457 H 0.01589 0.50817 0.63687 0.0
C458 C 0.97717 0.47782 0.59811 0.0
C459 C 0.97791 0.49838 0.62707 0.0
C460 C 0.96454 0.50832 0.64346 0.0
C461 C 0.00426 0.47936 0.59698 0.0
C462 C 0.01838 0.49036 0.61117 0.0
C463 C 0.00502 0.4998 0.626 0.0
C464 C 0.04703 0.49228 0.61082 0.0
C465 C 0.01743 0.46996 0.58036 0.0
C466 C 0.06222 0.46991 0.6095 0.0
C467 C 0.08916 0.47174 0.60849 0.0
C468 C 0.10151 0.49601 0.60898 0.0
C469 C 0.08626 0.51838 0.61085 0.0
C470 C 0.05925 0.51651 0.61178 0.0
H471 H 0.00369 0.46865 0.56908 0.0
H472 H 0.03364 0.48294 0.57658 0.0
H473 H 0.02544 0.45036 0.5827 0.0
H474 H 0.05323 0.45098 0.60917 0.0
H475 H 0.10028 0.45408 0.60725 0.0
H476 H 0.52872 0.09854 0.10638 0.0
H477 H 0.52954 0.05152 0.10889 0.0
H478 H 0.44634 0.05028 0.11356 0.0
H479 H 0.44522 0.09749 0.11089 0.0
H480 H 0.51046 0.01887 0.13627 0.0
H481 H 0.46179 0.00097 0.0718 0.0
H482 H 0.47537 0.032 0.07765 0.0
H483 H 0.44483 0.02203 0.08675 0.0
C484 C 0.51053 0.08835 0.10796 0.0
C485 C 0.48685 0.10183 0.10829 0.0
C486 C 0.51108 0.06146 0.10944 0.0
C487 C 0.488 0.04743 0.11118 0.0
C488 C 0.46435 0.06076 0.11194 0.0
H489 H 0.45604 0.88288 0.11164 0.0
H490 H 0.45349 0.92987 0.11359 0.0
C491 C 0.46376 0.08774 0.11049 0.0
C492 C 0.48885 0.01882 0.11192 0.0
H493 H 0.47145 0.96445 0.08922 0.0
C494 C 0.50192 0.00692 0.12601 0.0
C495 C 0.47773 0.00335 0.09849 0.0
C496 C 0.46431 0.01514 0.08272 0.0
C497 C 0.50392 0.97988 0.12713 0.0
C498 C 0.493 0.96441 0.1136 0.0
C499 C 0.4798 0.97635 0.09958 0.0
C500 C 0.49496 0.93579 0.11362 0.0
C501 C 0.51731 0.96812 0.14292 0.0
C502 C 0.51917 0.92346 0.11303 0.0
C503 C 0.52074 0.89647 0.11198 0.0
C504 C 0.49809 0.88137 0.1113 0.0
C505 C 0.4739 0.89385 0.11208 0.0
C506 C 0.47237 0.92075 0.11321 0.0
H507 H 0.5182 0.98186 0.15421 0.0
H508 H 0.50727 0.95024 0.14731 0.0
H509 H 0.53745 0.96296 0.13923 0.0
H510 H 0.53686 0.93472 0.11296 0.0
H511 H 0.53967 0.8875 0.1113 0.0
H512 H 0.23958 0.5045 0.3094 0.0
H513 H 0.24648 0.50365 0.27737 0.0
H514 H 0.17782 0.45675 0.27116 0.0
H515 H 0.17225 0.45588 0.30331 0.0
H516 H 0.21102 0.44237 0.24837 0.0
H517 H 0.20746 0.54933 0.24555 0.0
H518 H 0.23419 0.53809 0.25851 0.0
H519 H 0.20148 0.53176 0.26567 0.0
C520 C 0.22633 0.49363 0.30113 0.0
C521 C 0.20536 0.48034 0.30863 0.0
C522 C 0.23005 0.49342 0.28286 0.0
C523 C 0.21212 0.48098 0.27178 0.0
C524 C 0.19181 0.46668 0.2794 0.0
H525 H 0.17759 0.52105 0.1641 0.0
H526 H 0.18258 0.51859 0.19622 0.0
C527 C 0.18862 0.46614 0.29774 0.0
C528 C 0.21382 0.48354 0.25227 0.0
H529 H 0.21757 0.5277 0.21887 0.0
C530 C 0.21237 0.46105 0.24191 0.0
C531 C 0.21517 0.50796 0.24382 0.0
C532 C 0.21437 0.53314 0.25396 0.0
C533 C 0.21172 0.46225 0.2234 0.0
C534 C 0.21409 0.48659 0.21495 0.0
C535 C 0.21606 0.50904 0.22532 0.0
C536 C 0.21276 0.48945 0.19546 0.0
C537 C 0.2072 0.43748 0.21324 0.0
C538 C 0.22863 0.47461 0.1843 0.0
C539 C 0.22517 0.47542 0.166 0.0
C540 C 0.20661 0.49197 0.15857 0.0
C541 C 0.1921 0.50825 0.16959 0.0
C542 C 0.19495 0.50679 0.18791 0.0
H543 H 0.19795 0.42246 0.22163 0.0
H544 H 0.19467 0.44077 0.20153 0.0
H545 H 0.22607 0.42968 0.20868 0.0
H546 H 0.24325 0.4619 0.18973 0.0
H547 H 0.23676 0.4629 0.15767 0.0
H548 H 0.45049 0.20976 0.65536 0.0
H549 H 0.4468 0.21475 0.68745 0.0
H550 H 0.53001 0.21311 0.69216 0.0
H551 H 0.53397 0.20841 0.6602 0.0
H552 H 0.46561 0.17827 0.71142 0.0
H553 H 0.50978 0.27444 0.72363 0.0
H554 H 0.49864 0.26433 0.70205 0.0
H555 H 0.5294 0.2534 0.7103 0.0
C556 C 0.46802 0.21087 0.66319 0.0
C557 C 0.49252 0.20859 0.65523 0.0
C558 C 0.46586 0.21374 0.6815 0.0
C559 C 0.48814 0.21463 0.6921 0.0
C560 C 0.5126 0.21302 0.68417 0.0
H561 H 0.52545 0.20054 0.80255 0.0
H562 H 0.52567 0.20687 0.77046 0.0
C563 C 0.5148 0.21011 0.6659 0.0
C564 C 0.48587 0.21467 0.71156 0.0
H565 H 0.50436 0.24706 0.74883 0.0
C566 C 0.47377 0.19346 0.71962 0.0
C567 C 0.49676 0.23443 0.72214 0.0
C568 C 0.50918 0.25807 0.71411 0.0
C569 C 0.47293 0.19106 0.73805 0.0
C570 C 0.48407 0.21068 0.74865 0.0
C571 C 0.49588 0.23208 0.74061 0.0
C572 C 0.48396 0.20894 0.76813 0.0
C573 C 0.4609 0.16713 0.74601 0.0
C574 C 0.46047 0.20868 0.77738 0.0
C575 C 0.46025 0.20493 0.79563 0.0
C576 C 0.48357 0.20159 0.80497 0.0
C577 C 0.50716 0.20293 0.79573 0.0
C578 C 0.50734 0.20659 0.77743 0.0
H579 H 0.45887 0.15133 0.73613 0.0
H580 H 0.47266 0.15992 0.75726 0.0
H581 H 0.4413 0.17191 0.75105 0.0
H582 H 0.44226 0.21096 0.77044 0.0
H583 H 0.44174 0.20431 0.80237 0.0
H584 H 0.7686 0.4462 0.15901 0.0
H585 H 0.76243 0.44343 0.19105 0.0
H586 H 0.76395 0.52664 0.19475 0.0
H587 H 0.76978 0.52968 0.16285 0.0
H588 H 0.79842 0.46268 0.21503 0.0
H589 H 0.7023 0.50765 0.22609 0.0
H590 H 0.71267 0.49607 0.20468 0.0
H591 H 0.72367 0.52689 0.21277 0.0
C592 C 0.76716 0.46392 0.1666 0.0
C593 C 0.76981 0.48816 0.15839 0.0
C594 C 0.76362 0.46229 0.18488 0.0
C595 C 0.76243 0.48483 0.1952 0.0
C596 C 0.76426 0.50903 0.18698 0.0
H597 H 0.77655 0.52335 0.30582 0.0
H598 H 0.77045 0.52377 0.27367 0.0
C599 C 0.76783 0.5107 0.16874 0.0
C600 C 0.76212 0.48313 0.21469 0.0
H601 H 0.72939 0.50279 0.25155 0.0
C602 C 0.78317 0.47114 0.22302 0.0
C603 C 0.74231 0.49446 0.22502 0.0
C604 C 0.71883 0.5068 0.2167 0.0
C605 C 0.78532 0.47074 0.24147 0.0
C606 C 0.76564 0.48225 0.25182 0.0
C607 C 0.74443 0.49403 0.24352 0.0
C608 C 0.76699 0.48221 0.2713 0.0
C609 C 0.80903 0.45867 0.24973 0.0
C610 C 0.76637 0.45877 0.28054 0.0
C611 C 0.76996 0.45843 0.29879 0.0
C612 C 0.77407 0.48159 0.30818 0.0
C613 C 0.77357 0.50518 0.29897 0.0
C614 C 0.77004 0.50548 0.28064 0.0
H615 H 0.82496 0.45622 0.24 0.0
H616 H 0.81622 0.47062 0.26092 0.0
H617 H 0.80393 0.43929 0.25496 0.0
H618 H 0.76359 0.44067 0.27356 0.0
H619 H 0.76991 0.43993 0.3055 0.0
H620 H 0.44219 0.76573 0.8079 0.0
H621 H 0.43861 0.75896 0.77592 0.0
H622 H 0.52187 0.75948 0.77144 0.0
H623 H 0.5257 0.76589 0.80323 0.0
H624 H 0.45756 0.79401 0.75147 0.0
H625 H 0.50183 0.69773 0.74071 0.0
H626 H 0.49077 0.70851 0.76215 0.0
H627 H 0.5217 0.71886 0.75379 0.0
C628 C 0.45973 0.76396 0.80014 0.0
C629 C 0.48422 0.76649 0.80809 0.0
C630 C 0.45764 0.76005 0.78191 0.0
C631 C 0.47998 0.75835 0.7714 0.0
C632 C 0.50441 0.76013 0.77937 0.0
H633 H 0.52355 0.77411 0.66269 0.0
H634 H 0.52137 0.76624 0.69461 0.0
C635 C 0.50653 0.76407 0.79754 0.0
C636 C 0.47795 0.75772 0.75193 0.0
H637 H 0.49851 0.72522 0.71521 0.0
C638 C 0.46611 0.77876 0.74352 0.0
C639 C 0.48935 0.73789 0.74166 0.0
C640 C 0.50142 0.71434 0.75003 0.0
C641 C 0.46626 0.78108 0.72508 0.0
C642 C 0.47815 0.76154 0.71481 0.0
C643 C 0.48948 0.74016 0.72317 0.0
C644 C 0.47957 0.76352 0.69537 0.0
C645 C 0.45461 0.80493 0.71678 0.0
C646 C 0.45684 0.76383 0.68528 0.0
C647 C 0.45798 0.7685 0.66716 0.0
C648 C 0.48194 0.77271 0.65877 0.0
C649 C 0.50481 0.77108 0.66879 0.0
C650 C 0.50361 0.76653 0.68698 0.0
H651 H 0.4516 0.82063 0.72662 0.0
H652 H 0.46717 0.81238 0.70601 0.0
H653 H 0.4355 0.79996 0.71099 0.0
H654 H 0.43815 0.76106 0.69151 0.0
H655 H 0.44001 0.76926 0.65978 0.0
H656 H 0.80523 0.45669 0.79965 0.0
H657 H 0.79645 0.4582 0.76787 0.0
H658 H 0.72338 0.49596 0.77819 0.0
H659 H 0.73335 0.49638 0.8099 0.0
H660 H 0.76324 0.4411 0.74599 0.0
H661 H 0.75368 0.54796 0.74652 0.0
H662 H 0.76335 0.53008 0.76581 0.0
H663 H 0.72964 0.53223 0.75977 0.0
C664 C 0.78719 0.46501 0.79506 0.0
C665 C 0.77 0.47658 0.80699 0.0
C666 C 0.78215 0.4659 0.77694 0.0
C667 C 0.75958 0.47791 0.77056 0.0
C668 C 0.74139 0.48755 0.78271 0.0
H669 H 0.73964 0.46603 0.65512 0.0
H670 H 0.73068 0.46166 0.68679 0.0
C671 C 0.74688 0.48748 0.80079 0.0
C672 C 0.75604 0.48139 0.75123 0.0
H673 H 0.74698 0.52707 0.71929 0.0
C674 C 0.75967 0.45991 0.74014 0.0
C675 C 0.75162 0.50601 0.74358 0.0
C676 C 0.74961 0.53041 0.75452 0.0
C677 C 0.76014 0.46246 0.72168 0.0
C678 C 0.75529 0.487 0.71404 0.0
C679 C 0.75053 0.50826 0.72513 0.0
C680 C 0.7576 0.49167 0.69474 0.0
C681 C 0.76738 0.43909 0.71074 0.0
C682 C 0.7741 0.51133 0.68858 0.0
C683 C 0.7783 0.51459 0.6705 0.0
C684 C 0.76652 0.49787 0.65831 0.0
C685 C 0.74917 0.47894 0.66436 0.0
C686 C 0.74429 0.47625 0.68243 0.0
H687 H 0.77749 0.42422 0.71878 0.0
H688 H 0.74955 0.4301 0.70534 0.0
H689 H 0.78019 0.44451 0.69955 0.0
H690 H 0.78452 0.52359 0.69778 0.0
H691 H 0.79185 0.52926 0.66612 0.0
H692 H 0.45917 0.75984 0.30362 0.0
H693 H 0.46069 0.75122 0.27199 0.0
H694 H 0.54418 0.75039 0.27375 0.0
H695 H 0.54291 0.7595 0.3055 0.0
H696 H 0.52464 0.78453 0.24978 0.0
H697 H 0.47727 0.68935 0.24092 0.0
H698 H 0.4584 0.71103 0.25423 0.0
H699 H 0.4895 0.70027 0.26203 0.0
C700 C 0.47789 0.75738 0.29739 0.0
C701 C 0.50094 0.76062 0.30706 0.0
C702 C 0.4787 0.75216 0.27931 0.0
C703 C 0.50253 0.74981 0.27059 0.0
C704 C 0.52559 0.75193 0.28031 0.0
H705 H 0.53447 0.76006 0.15779 0.0
H706 H 0.53834 0.75016 0.18921 0.0
C707 C 0.52482 0.75719 0.29843 0.0
C708 C 0.50324 0.74883 0.25107 0.0
H709 H 0.47901 0.7168 0.21519 0.0
C710 C 0.5151 0.76947 0.2422 0.0
C711 C 0.49053 0.72927 0.24127 0.0
C712 C 0.47842 0.7061 0.2501 0.0
C713 C 0.51368 0.7717 0.22379 0.0
C714 C 0.50043 0.75249 0.214 0.0
C715 C 0.4891 0.73148 0.2228 0.0
C716 C 0.49749 0.75466 0.19467 0.0
C717 C 0.52545 0.79516 0.21503 0.0
C718 C 0.47303 0.75933 0.18727 0.0
C719 C 0.47067 0.76489 0.16926 0.0
C720 C 0.49281 0.76591 0.15846 0.0
C721 C 0.51708 0.75983 0.1658 0.0
C722 C 0.51937 0.75413 0.18373 0.0
H723 H 0.53001 0.81068 0.22472 0.0
H724 H 0.54374 0.78951 0.20837 0.0
H725 H 0.51218 0.80314 0.20485 0.0
H726 H 0.45592 0.75974 0.19557 0.0
H727 H 0.45171 0.76937 0.16397 0.0
H728 H 0.22604 0.44872 0.80598 0.0
H729 H 0.23518 0.44601 0.77439 0.0
H730 H 0.22634 0.52867 0.76983 0.0
H731 H 0.21759 0.53167 0.80153 0.0
H732 H 0.19892 0.46015 0.75016 0.0
H733 H 0.28952 0.51514 0.73888 0.0
H734 H 0.27994 0.50373 0.76049 0.0
H735 H 0.26597 0.53276 0.75153 0.0
C736 C 0.22653 0.46642 0.79834 0.0
C737 C 0.22084 0.49041 0.80622 0.0
C738 C 0.23185 0.46482 0.7803 0.0
C739 C 0.23165 0.48714 0.76982 0.0
C740 C 0.22714 0.51127 0.77776 0.0
H741 H 0.21007 0.52736 0.66213 0.0
H742 H 0.21958 0.52521 0.69369 0.0
C743 C 0.22195 0.51293 0.79586 0.0
C744 C 0.23257 0.48477 0.75036 0.0
H745 H 0.2629 0.50727 0.71336 0.0
C746 C 0.21318 0.47008 0.7421 0.0
C747 C 0.25111 0.49788 0.73995 0.0
C748 C 0.27297 0.51307 0.74816 0.0
C749 C 0.2111 0.46901 0.72367 0.0
C750 C 0.22925 0.48263 0.71323 0.0
C751 C 0.24909 0.4968 0.72145 0.0
C752 C 0.22656 0.48398 0.69382 0.0
C753 C 0.18877 0.45432 0.71555 0.0
C754 C 0.22801 0.46155 0.68342 0.0
C755 C 0.22235 0.46263 0.66537 0.0
C756 C 0.21536 0.48622 0.65746 0.0
C757 C 0.21519 0.50884 0.66782 0.0
C758 C 0.22074 0.5077 0.68584 0.0
H759 H 0.17368 0.44941 0.72546 0.0
H760 H 0.17964 0.46573 0.70479 0.0
H761 H 0.19605 0.43599 0.70975 0.0
H762 H 0.23288 0.44313 0.68934 0.0
H763 H 0.22293 0.44492 0.65772 0.0
H764 H 0.52657 0.21004 0.30235 0.0
H765 H 0.52723 0.21936 0.27078 0.0
H766 H 0.44393 0.22544 0.27062 0.0
H767 H 0.44298 0.21571 0.30227 0.0
H768 H 0.46289 0.19116 0.24613 0.0
H769 H 0.51575 0.28415 0.24127 0.0
H770 H 0.53242 0.26047 0.25433 0.0
H771 H 0.50166 0.27276 0.2617 0.0
C772 C 0.50837 0.21375 0.2957 0.0
C773 C 0.48469 0.21195 0.30481 0.0
C774 C 0.50883 0.21933 0.27767 0.0
C775 C 0.48567 0.22346 0.26844 0.0
C776 C 0.46203 0.22251 0.27758 0.0
H777 H 0.45474 0.22359 0.15552 0.0
H778 H 0.45148 0.23115 0.18729 0.0
C779 C 0.46153 0.21689 0.29564 0.0
C780 C 0.486 0.22559 0.24897 0.0
H781 H 0.51248 0.25915 0.21457 0.0
C782 C 0.47338 0.20625 0.23921 0.0
C783 C 0.49993 0.24517 0.24004 0.0
C784 C 0.51301 0.26696 0.24987 0.0
C785 C 0.47502 0.20544 0.22075 0.0
C786 C 0.48929 0.22478 0.21182 0.0
C787 C 0.50158 0.24439 0.22152 0.0
C788 C 0.4921 0.22426 0.19241 0.0
C789 C 0.46225 0.18333 0.211 0.0
C790 C 0.51629 0.21914 0.18474 0.0
C791 C 0.51829 0.21494 0.16652 0.0
C792 C 0.49607 0.21575 0.1558 0.0
C793 C 0.47216 0.22243 0.16345 0.0
C794 C 0.47023 0.22677 0.1816 0.0
H795 H 0.45706 0.16718 0.22001 0.0
H796 H 0.4442 0.19035 0.20466 0.0
H797 H 0.47515 0.17573 0.20046 0.0
H798 H 0.53339 0.21723 0.19294 0.0
H799 H 0.53699 0.20995 0.161 0.0
H800 H 0.23811 0.50986 0.90422 0.0
H801 H 0.24788 0.52491 0.93437 0.0
H802 H 0.18137 0.48339 0.95397 0.0
H803 H 0.17147 0.46847 0.92421 0.0
H804 H 0.18855 0.53702 0.9671 0.0
H805 H 0.27542 0.47348 0.97346 0.0
H806 H 0.27221 0.49505 0.95488 0.0
H807 H 0.25155 0.46729 0.95654 0.0
C808 C 0.22551 0.50414 0.91498 0.0
C809 C 0.20412 0.48783 0.91191 0.0
C810 C 0.23113 0.51273 0.93213 0.0
C811 C 0.21536 0.50516 0.94631 0.0
C812 C 0.19369 0.4895 0.94314 0.0
H813 H 0.17285 0.46264 0.04084 0.0
H814 H 0.18152 0.48084 0.01178 0.0
C815 C 0.18814 0.48088 0.92614 0.0
C816 C 0.2216 0.51185 0.96478 0.0
H817 H 0.2548 0.48656 -0.00035 0.0
C818 C 0.20366 0.52683 0.97422 0.0
C819 C 0.24148 0.49874 0.97396 0.0
C820 C 0.26136 0.48268 0.9643 0.0
C821 C 0.2033 0.5266 -0.00728 0.0
C822 C 0.22115 0.51085 0.00185 0.0
C823 C 0.24107 0.4985 -0.00749 0.0
C824 C 0.21565 0.502 0.01998 0.0
C825 C 0.18241 0.54132 0.00235 0.0
C826 C 0.23226 0.50764 0.03413 0.0
C827 C 0.22725 0.49731 0.0509 0.0
C828 C 0.20591 0.4808 0.05352 0.0
C829 C 0.18947 0.47522 0.03924 0.0
C830 C 0.19426 0.48577 0.02266 0.0
H831 H 0.17589 0.55834 -0.00542 0.0
H832 H 0.16545 0.52845 0.00434 0.0
H833 H 0.18926 0.54795 0.01552 0.0
H834 H 0.24905 0.51987 0.03217 0.0
H835 H 0.24025 0.50186 0.06171 0.0
H836 H 0.50188 0.16709 0.42349 0.0
H837 H 0.49081 0.18111 0.4533 0.0
H838 H 0.4637 0.25411 0.43293 0.0
H839 H 0.47465 0.24004 0.4028 0.0
H840 H 0.50155 0.25803 0.45971 0.0
H841 H 0.4229 0.19264 0.48059 0.0
H842 H 0.44816 0.17508 0.46959 0.0
H843 H 0.43001 0.19908 0.45759 0.0
C844 C 0.49314 0.18595 0.42529 0.0
C845 C 0.48924 0.20253 0.41086 0.0
C846 C 0.48656 0.19384 0.44231 0.0
C847 C 0.47602 0.21846 0.44526 0.0
C848 C 0.47147 0.23489 0.43085 0.0
H849 H 0.47485 0.23192 0.56108 0.0
H850 H 0.45829 0.24344 0.53162 0.0
C851 C 0.47778 0.22686 0.4137 0.0
C852 C 0.47342 0.22775 0.46364 0.0
H853 H 0.45343 0.20585 0.50383 0.0
C854 C 0.49031 0.24731 0.46935 0.0
C855 C 0.45839 0.21415 0.47616 0.0
C856 C 0.43863 0.19425 0.47063 0.0
C857 C 0.49497 0.25126 0.48741 0.0
C858 C 0.48256 0.23514 0.49986 0.0
C859 C 0.46323 0.21794 0.49422 0.0
C860 C 0.4931 0.23181 0.51784 0.0
C861 C 0.51461 0.27127 0.49296 0.0
C862 C 0.51803 0.22142 0.51972 0.0
C863 C 0.5273 0.2145 0.53633 0.0
C864 C 0.51185 0.21794 0.5514 0.0
C865 C 0.48718 0.22918 0.54964 0.0
C866 C 0.47772 0.23579 0.53289 0.0
H867 H 0.51545 0.28743 0.48331 0.0
H868 H 0.51007 0.27919 0.50626 0.0
H869 H 0.53407 0.2622 0.49346 0.0
H870 H 0.52996 0.21767 0.50821 0.0
H871 H 0.54639 0.20595 0.53731 0.0
H872 H 0.73613 0.4875 0.06029 0.0
H873 H 0.72485 0.47382 0.03008 0.0
H874 H 0.79762 0.50396 0.01115 0.0
H875 H 0.80883 0.51786 0.04096 0.0
H876 H 0.72274 0.51 0.00025 0.0
H877 H 0.79192 0.43015 -0.01119 0.0
H878 H 0.78157 0.43991 0.01068 0.0
H879 H 0.80677 0.45746 -0.00056 0.0
C880 C 0.74978 0.49093 0.04967 0.0
C881 C 0.77331 0.50382 0.05292 0.0
C882 C 0.74334 0.48306 0.0325 0.0
C883 C 0.76063 0.48749 0.01853 0.0
C884 C 0.78428 0.4999 0.02186 0.0
H885 H 0.78247 0.5406 0.92145 0.0
H886 H 0.76963 0.52935 0.95147 0.0
C887 C 0.79054 0.50805 0.03887 0.0
C888 C 0.75348 0.48185 5e-05 0.0
H889 H 0.77984 0.45544 0.96289 0.0
C890 C 0.73454 0.49737 -0.00791 0.0
C891 C 0.76862 0.4651 -0.01049 0.0
C892 C 0.78819 0.447 -0.00242 0.0
C893 C 0.73251 0.4988 0.97364 0.0
C894 C 0.74992 0.48446 0.96309 0.0
C895 C 0.76669 0.46664 0.97106 0.0
C896 C 0.75478 0.49153 0.9445 0.0
C897 C 0.71314 0.51711 0.96556 0.0
C898 C 0.75085 0.47384 0.9307 0.0
C899 C 0.75807 0.48031 0.91341 0.0
C900 C 0.76984 0.5043 0.90989 0.0
C901 C 0.77353 0.52196 0.92377 0.0
C902 C 0.76599 0.51565 0.9409 0.0
H903 H 0.69632 0.52016 0.97448 0.0
H904 H 0.72255 0.53614 0.96336 0.0
H905 H 0.70609 0.50975 0.95263 0.0
H906 H 0.74254 0.45499 0.93334 0.0
H907 H 0.75511 0.46633 0.90293 0.0
H908 H 0.44925 0.79963 0.53853 0.0
H909 H 0.46738 0.78861 0.50978 0.0
H910 H 0.52267 0.73788 0.53461 0.0
H911 H 0.5045 0.74884 0.5638 0.0
H912 H 0.53226 0.78973 0.50318 0.0
H913 H 0.47353 0.70147 0.49025 0.0
H914 H 0.45886 0.7266 0.50342 0.0
H915 H 0.48624 0.70927 0.51191 0.0
C916 C 0.46522 0.78609 0.53797 0.0
C917 C 0.47547 0.77511 0.55342 0.0
C918 C 0.47555 0.77984 0.52153 0.0
C919 C 0.49628 0.76252 0.52021 0.0
C920 C 0.50663 0.75131 0.5355 0.0
H921 H 0.50912 0.73918 0.40573 0.0
H922 H 0.52315 0.73014 0.43618 0.0
C923 C 0.49622 0.75755 0.55208 0.0
C924 C 0.50664 0.75689 0.5025 0.0
H925 H 0.48743 0.72565 0.46509 0.0
C926 C 0.52337 0.77507 0.49489 0.0
C927 C 0.49517 0.73761 0.49185 0.0
C928 C 0.47753 0.71744 0.49971 0.0
C929 C 0.52655 0.77626 0.47652 0.0
C930 C 0.5123 0.75911 0.46568 0.0
C931 C 0.49818 0.73892 0.47345 0.0
C932 C 0.50698 0.76533 0.447 0.0
C933 C 0.5434 0.7972 0.46877 0.0
C934 C 0.49309 0.78794 0.44316 0.0
C935 C 0.48477 0.79292 0.426 0.0
C936 C 0.49024 0.77541 0.41232 0.0
C937 C 0.50472 0.75303 0.41605 0.0
C938 C 0.5128 0.74787 0.43337 0.0
H939 H 0.5595 0.80224 0.47789 0.0
H940 H 0.55161 0.79121 0.45582 0.0
H941 H 0.53159 0.81487 0.46674 0.0
H942 H 0.48787 0.80134 0.45359 0.0
H943 H 0.47371 0.81034 0.42353 0.0
H944 H 0.20814 0.54109 0.42399 0.0
H945 H 0.22126 0.52718 0.45341 0.0
H946 H 0.24187 0.45214 0.4328 0.0
H947 H 0.22896 0.46617 0.403 0.0
H948 H 0.2058 0.45229 0.46175 0.0
H949 H 0.29187 0.51153 0.47709 0.0
H950 H 0.26711 0.53038 0.46657 0.0
H951 H 0.28202 0.50411 0.45469 0.0
C952 C 0.21586 0.52177 0.42564 0.0
C953 C 0.21744 0.50466 0.41127 0.0
C954 C 0.22361 0.51393 0.44241 0.0
C955 C 0.23294 0.4888 0.44518 0.0
C956 C 0.23508 0.47174 0.43082 0.0
H957 H 0.24459 0.48068 0.5609 0.0
H958 H 0.25738 0.46678 0.53105 0.0
C959 C 0.22766 0.47975 0.41388 0.0
C960 C 0.2369 0.47999 0.46352 0.0
H961 H 0.26291 0.50224 0.50202 0.0
C962 C 0.21896 0.46242 0.47054 0.0
C963 C 0.25437 0.49283 0.47491 0.0
C964 C 0.27513 0.51057 0.46789 0.0
C965 C 0.21582 0.45998 0.48887 0.0
C966 C 0.23088 0.47561 0.50024 0.0
C967 C 0.25109 0.49055 0.49324 0.0
C968 C 0.22253 0.48097 0.51853 0.0
C969 C 0.19503 0.44226 0.49588 0.0
C970 C 0.19889 0.49371 0.52122 0.0
C971 C 0.19177 0.50197 0.53805 0.0
C972 C 0.20814 0.49756 0.55254 0.0
C973 C 0.23159 0.48426 0.54994 0.0
C974 C 0.23889 0.47625 0.53296 0.0
H975 H 0.19171 0.42571 0.48678 0.0
H976 H 0.20017 0.43472 0.50917 0.0
H977 H 0.1766 0.45317 0.497 0.0
H978 H 0.18629 0.49806 0.51016 0.0
H979 H 0.17357 0.51212 0.53965 0.0
H980 H 0.43798 0.2004 0.9242 0.0
H981 H 0.45509 0.21403 0.95275 0.0
H982 H 0.52623 0.23823 0.92786 0.0
H983 H 0.50894 0.22484 0.89892 0.0
H984 H 0.53103 0.20221 0.95728 0.0
H985 H 0.47043 0.28643 0.97463 0.0
H986 H 0.45156 0.26073 0.96517 0.0
H987 H 0.47604 0.27638 0.95202 0.0
C988 C 0.45712 0.20896 0.92473 0.0
C989 C 0.47217 0.21151 0.90939 0.0
C990 C 0.46678 0.21697 0.94101 0.0
C991 C 0.49173 0.22751 0.94232 0.0
C992 C 0.50678 0.23047 0.92702 0.0
H993 H 0.50792 0.2434 0.05708 0.0
H994 H 0.52039 0.25553 0.02681 0.0
C995 C 0.49691 0.2228 0.91057 0.0
C996 C 0.5025 0.23233 0.96009 0.0
H997 H 0.48364 0.25875 -0.00072 0.0
C998 C 0.52144 0.21526 0.96641 0.0
C999 C 0.49038 0.24971 0.97189 0.0
C1000 C 0.47116 0.26955 0.96554 0.0
C1001 C 0.52602 0.21281 -0.0154 0.0
C1002 C 0.51111 0.22763 -0.00343 0.0
C1003 C 0.49479 0.2471 -0.00992 0.0
C1004 C 0.50769 0.21948 0.01513 0.0
C1005 C 0.54524 0.19294 -0.00907 0.0
C1006 C 0.49642 0.1953 0.01847 0.0
C1007 C 0.48896 0.18855 0.03554 0.0
C1008 C 0.4927 0.20583 0.04963 0.0
C1009 C 0.50489 0.2297 0.04643 0.0
C1010 C 0.51208 0.23662 0.02922 0.0
H1011 H 0.56118 0.19043 0.9812 0.0
H1012 H 0.55362 0.19842 0.00393 0.0
H1013 H 0.53532 0.17401 -0.00764 0.0
H1014 H 0.49226 0.18205 0.00773 0.0
H1015 H 0.47969 0.16999 0.0376 0.0
H1016 H 0.77486 0.43538 0.42729 0.0
H1017 H 0.76266 0.45352 0.45585 0.0
H1018 H 0.73853 0.52415 0.43046 0.0
H1019 H 0.75052 0.50585 0.40154 0.0
H1020 H 0.77555 0.5298 0.45879 0.0
H1021 H 0.692 0.47036 0.4793 0.0
H1022 H 0.71719 0.45088 0.4698 0.0
H1023 H 0.70104 0.47466 0.45637 0.0
C1024 C 0.76658 0.45462 0.42772 0.0
C1025 C 0.7637 0.46925 0.41224 0.0
C1026 C 0.75939 0.46487 0.44402 0.0
C1027 C 0.74931 0.48999 0.44519 0.0
C1028 C 0.74593 0.50458 0.42974 0.0
H1029 H 0.73835 0.51095 0.55976 0.0
H1030 H 0.72515 0.52222 0.52951 0.0
C1031 C 0.75281 0.49414 0.4133 0.0
C1032 C 0.74554 0.50145 0.46288 0.0
H1033 H 0.72103 0.48456 0.50303 0.0
C1034 C 0.76295 0.52065 0.46841 0.0
C1035 C 0.72874 0.48993 0.47533 0.0
C1036 C 0.70848 0.4705 0.46985 0.0
C1037 C 0.76631 0.52613 0.48642 0.0
C1038 C 0.75205 0.51186 0.49903 0.0
C1039 C 0.73226 0.49522 0.49334 0.0
C1040 C 0.76099 0.50949 0.51751 0.0
C1041 C 0.78644 0.5457 0.49186 0.0
C1042 C 0.78545 0.49869 0.5207 0.0
C1043 C 0.79283 0.49194 0.53778 0.0
C1044 C 0.77589 0.49591 0.55204 0.0
C1045 C 0.75179 0.50776 0.54899 0.0
C1046 C 0.74426 0.51425 0.53177 0.0
H1047 H 0.78836 0.56117 0.48176 0.0
H1048 H 0.78162 0.55466 0.50481 0.0
H1049 H 0.80551 0.53596 0.49303 0.0
H1050 H 0.7984 0.49426 0.50984 0.0
H1051 H 0.81154 0.48292 0.53974 0.0
H1052 H 0.50777 0.81146 0.04018 0.0
H1053 H 0.4942 0.79846 0.01065 0.0
H1054 H 0.46512 0.72636 0.03132 0.0
H1055 H 0.47859 0.73943 0.0612 0.0
H1056 H 0.50106 0.72141 0.00331 0.0
H1057 H 0.42404 0.79048 -0.01453 0.0
H1058 H 0.45075 0.80669 -0.00416 0.0
H1059 H 0.43235 0.78323 0.00817 0.0
C1060 C 0.49811 0.79301 0.03853 0.0
C1061 C 0.49437 0.77638 0.05295 0.0
C1062 C 0.4901 0.78573 0.02167 0.0
C1063 C 0.47825 0.76166 0.01888 0.0
C1064 C 0.4739 0.74517 0.03329 0.0
H1065 H 0.46929 0.74868 0.90301 0.0
H1066 H 0.45413 0.73793 0.93296 0.0
C1067 C 0.48166 0.75263 0.05029 0.0
C1068 C 0.474 0.75286 0.00053 0.0
H1069 H 0.45237 0.77646 0.96118 0.0
C1070 C 0.48966 0.73277 -0.00588 0.0
C1071 C 0.45878 0.76737 -0.0114 0.0
C1072 C 0.44031 0.78797 -0.00508 0.0
C1073 C 0.49297 0.72904 0.9759 0.0
C1074 C 0.48043 0.74591 0.964 0.0
C1075 C 0.46226 0.76377 0.97038 0.0
C1076 C 0.4899 0.74913 0.94573 0.0
C1077 C 0.51144 0.70846 0.96955 0.0
C1078 C 0.51488 0.75906 0.94315 0.0
C1079 C 0.52337 0.76556 0.92626 0.0
C1080 C 0.50706 0.7621 0.91162 0.0
C1081 C 0.48227 0.7514 0.9141 0.0
C1082 C 0.47361 0.74524 0.93113 0.0
H1083 H 0.51262 0.69224 0.97914 0.0
H1084 H 0.50547 0.70076 0.95645 0.0
H1085 H 0.53109 0.71695 0.96823 0.0
H1086 H 0.52753 0.76269 0.95432 0.0
H1087 H 0.54257 0.77371 0.92473 0.0
H1088 H 0.1962 0.35018 0.09636 0.0
H1089 H 0.22154 0.3099 0.09675 0.0
H1090 H 0.28433 0.35002 0.12253 0.0
H1091 H 0.25937 0.38991 0.12228 0.0
H1092 H 0.27032 0.3026 0.08062 0.0
H1093 H 0.27667 0.28472 0.15248 0.0
H1094 H 0.25258 0.30582 0.14291 0.0
H1095 H 0.28488 0.31748 0.14709 0.0
C1096 C 0.21525 0.35024 0.10235 0.0
C1097 C 0.22577 0.37321 0.10931 0.0
C1098 C 0.22969 0.32727 0.10253 0.0
C1099 C 0.25463 0.32689 0.10993 0.0
C1100 C 0.2649 0.34971 0.11712 0.0
H1101 H 0.39965 0.26135 0.11282 0.0
H1102 H 0.35843 0.28404 0.11459 0.0
C1103 C 0.25065 0.37258 0.11684 0.0
C1104 C 0.27112 0.30346 0.10908 0.0
H1105 H 0.31148 0.26699 0.13462 0.0
C1106 C 0.2788 0.29423 0.09241 0.0
C1107 C 0.28204 0.29249 0.12449 0.0
C1108 C 0.2734 0.30047 0.14275 0.0
C1109 C 0.29874 0.27588 0.09075 0.0
C1110 C 0.31105 0.26651 0.10615 0.0
C1111 C 0.30207 0.27434 0.12282 0.0
C1112 C 0.33557 0.25176 0.10523 0.0
C1113 C 0.30783 0.26803 0.07257 0.0
C1114 C 0.33633 0.22595 0.09946 0.0
C1115 C 0.36004 0.21277 0.09847 0.0
C1116 C 0.38324 0.22532 0.10317 0.0
C1117 C 0.3822 0.25111 0.10904 0.0
C1118 C 0.35864 0.26412 0.11011 0.0
H1119 H 0.29716 0.27824 0.06191 0.0
H1120 H 0.32884 0.27216 0.07114 0.0
H1121 H 0.30508 0.2469 0.0708 0.0
H1122 H 0.31865 0.21606 0.09574 0.0
H1123 H 0.36022 0.1929 0.09393 0.0
H1124 H 0.79235 0.36285 0.60607 0.0
H1125 H 0.77019 0.3207 0.60653 0.0
H1126 H 0.69715 0.35873 0.59739 0.0
H1127 H 0.71886 0.40059 0.59704 0.0
H1128 H 0.72663 0.3066 0.63029 0.0
H1129 H 0.70156 0.30007 0.55916 0.0
H1130 H 0.72742 0.32038 0.56739 0.0
H1131 H 0.69432 0.33093 0.56892 0.0
C1132 C 0.7716 0.36215 0.60404 0.0
C1133 C 0.75735 0.38504 0.6015 0.0
C1134 C 0.75901 0.33811 0.60432 0.0
C1135 C 0.73212 0.33665 0.60177 0.0
C1136 C 0.71797 0.35943 0.59912 0.0
H1137 H 0.60185 0.25154 0.62812 0.0
H1138 H 0.64151 0.27709 0.62747 0.0
C1139 C 0.73042 0.38336 0.59901 0.0
C1140 C 0.71818 0.31165 0.60262 0.0
H1141 H 0.67587 0.27448 0.57905 0.0
C1142 C 0.71597 0.29916 0.61901 0.0
C1143 C 0.70458 0.30182 0.58785 0.0
C1144 C 0.70723 0.31383 0.56978 0.0
C1145 C 0.69895 0.27822 0.62129 0.0
C1146 C 0.68369 0.2698 0.60685 0.0
C1147 C 0.68743 0.28104 0.59016 0.0
C1148 C 0.66153 0.25188 0.60916 0.0
C1149 C 0.69679 0.26586 0.63928 0.0
C1150 C 0.6596 0.22907 0.59913 0.0
C1151 C 0.63683 0.21431 0.5995 0.0
C1152 C 0.61551 0.22244 0.60966 0.0
C1153 C 0.61792 0.24476 0.62017 0.0
C1154 C 0.64068 0.2593 0.61992 0.0
H1155 H 0.71498 0.26824 0.64696 0.0
H1156 H 0.68097 0.27538 0.64679 0.0
H1157 H 0.69224 0.24492 0.63818 0.0
H1158 H 0.67538 0.22316 0.59061 0.0
H1159 H 0.63548 0.1973 0.59118 0.0
H1160 H 0.72391 0.59319 0.12248 0.0
H1161 H 0.70048 0.63403 0.12257 0.0
H1162 H 0.76587 0.67201 0.09842 0.0
H1163 H 0.78965 0.63078 0.09816 0.0
H1164 H 0.71409 0.68322 0.1379 0.0
H1165 H 0.70383 0.68661 0.06451 0.0
H1166 H 0.71287 0.65729 0.07586 0.0
H1167 H 0.73577 0.68319 0.07374 0.0
C1168 C 0.73347 0.61021 0.11727 0.0
C1169 C 0.75859 0.6087 0.1102 0.0
C1170 C 0.72004 0.63358 0.11738 0.0
C1171 C 0.73133 0.65597 0.11035 0.0
C1172 C 0.75672 0.65485 0.10373 0.0
H1173 H 0.627 0.79008 0.09396 0.0
H1174 H 0.66855 0.76683 0.09574 0.0
C1175 C 0.7703 0.63135 0.10367 0.0
C1176 C 0.71564 0.67993 0.10954 0.0
H1177 H 0.67873 0.71556 0.08109 0.0
C1178 C 0.70681 0.69071 0.12547 0.0
C1179 C 0.70628 0.68976 0.0933 0.0
C1180 C 0.71499 0.67867 0.07582 0.0
C1181 C 0.68767 0.70995 0.12562 0.0
C1182 C 0.67686 0.71833 0.10945 0.0
C1183 C 0.68707 0.70902 0.09347 0.0
C1184 C 0.65248 0.73341 0.10898 0.0
C1185 C 0.67834 0.72032 0.14315 0.0
C1186 C 0.62979 0.72217 0.11563 0.0
C1187 C 0.60624 0.73516 0.11451 0.0
C1188 C 0.60478 0.75977 0.10669 0.0
C1189 C 0.62756 0.77119 0.10012 0.0
C1190 C 0.65125 0.75797 0.10112 0.0
H1191 H 0.69349 0.71852 0.1535 0.0
H1192 H 0.67254 0.74094 0.14206 0.0
H1193 H 0.66123 0.709 0.1475 0.0
H1194 H 0.63022 0.70302 0.12144 0.0
H1195 H 0.58909 0.72578 0.1197 0.0
H1196 H 0.1885 0.62649 0.5964 0.0
H1197 H 0.21046 0.66873 0.59733 0.0
H1198 H 0.27697 0.63313 0.62167 0.0
H1199 H 0.2554 0.59123 0.62081 0.0
H1200 H 0.25856 0.68207 0.63766 0.0
H1201 H 0.27458 0.68652 0.56476 0.0
H1202 H 0.24249 0.68015 0.57304 0.0
H1203 H 0.2674 0.65637 0.57575 0.0
C1204 C 0.20772 0.62777 0.60205 0.0
C1205 C 0.22027 0.60551 0.60844 0.0
C1206 C 0.22025 0.65185 0.60252 0.0
C1207 C 0.24538 0.65395 0.60946 0.0
C1208 C 0.25757 0.63189 0.61626 0.0
H1209 H 0.3824 0.73162 0.62519 0.0
H1210 H 0.34198 0.70752 0.62625 0.0
C1211 C 0.24522 0.60793 0.6157 0.0
C1212 C 0.25983 0.67869 0.6093 0.0
H1213 H 0.2973 0.71618 0.58237 0.0
C1214 C 0.26658 0.68994 0.62555 0.0
C1215 C 0.27007 0.68902 0.59347 0.0
C1216 C 0.26345 0.67748 0.5757 0.0
C1217 C 0.28454 0.71026 0.62646 0.0
C1218 C 0.29643 0.71916 0.61076 0.0
C1219 C 0.28821 0.70926 0.5944 0.0
C1220 C 0.32001 0.73553 0.61123 0.0
C1221 C 0.29141 0.72132 0.64432 0.0
C1222 C 0.32125 0.75926 0.60223 0.0
C1223 C 0.34455 0.77321 0.60158 0.0
C1224 C 0.367 0.76335 0.60966 0.0
C1225 C 0.36548 0.73979 0.61884 0.0
C1226 C 0.34229 0.72605 0.61959 0.0
H1227 H 0.27498 0.71945 0.65373 0.0
H1228 H 0.30804 0.71044 0.64987 0.0
H1229 H 0.29694 0.74203 0.64334 0.0
H1230 H 0.30432 0.76676 0.59552 0.0
H1231 H 0.34519 0.79124 0.59432 0.0
H1232 H 0.40072 0.71266 0.35783 0.0
H1233 H 0.35974 0.68934 0.35663 0.0
H1234 H 0.31808 0.76152 0.35587 0.0
H1235 H 0.35936 0.78533 0.35716 0.0
H1236 H 0.31492 0.69789 0.38285 0.0
H1237 H 0.29308 0.71392 0.31149 0.0
H1238 H 0.32593 0.71504 0.31967 0.0
H1239 H 0.30381 0.74049 0.32515 0.0
C1240 C 0.38291 0.7237 0.35739 0.0
C1241 C 0.38331 0.75089 0.35758 0.0
C1242 C 0.3595 0.71029 0.35672 0.0
C1243 C 0.33598 0.72372 0.35611 0.0
C1244 C 0.33612 0.75087 0.35626 0.0
H1245 H 0.19627 0.62649 0.36836 0.0
H1246 H 0.22255 0.66611 0.36853 0.0
C1247 C 0.35966 0.76439 0.35702 0.0
C1248 C 0.31156 0.70879 0.35553 0.0
H1249 H 0.26763 0.68331 0.32661 0.0
C1250 C 0.30411 0.69512 0.3707 0.0
C1251 C 0.2978 0.70517 0.33958 0.0
C1252 C 0.30541 0.71932 0.32295 0.0
C1253 C 0.28395 0.67693 0.37014 0.0
C1254 C 0.27086 0.67245 0.35398 0.0
C1255 C 0.27758 0.68697 0.33899 0.0
C1256 C 0.25282 0.65037 0.35193 0.0
C1257 C 0.27791 0.66141 0.38652 0.0
C1258 C 0.2607 0.62885 0.34201 0.0
C1259 C 0.24585 0.6063 0.34192 0.0
C1260 C 0.2227 0.60488 0.35166 0.0
C1261 C 0.21402 0.627 0.36075 0.0
C1262 C 0.22904 0.64958 0.36092 0.0
H1263 H 0.29198 0.6651 0.39735 0.0
H1264 H 0.25828 0.66652 0.39136 0.0
H1265 H 0.27798 0.6404 0.38343 0.0
H1266 H 0.27898 0.62908 0.33498 0.0
H1267 H 0.25299 0.58965 0.33471 0.0
H1268 H 0.34565 0.19004 0.87259 0.0
H1269 H 0.30553 0.21554 0.87322 0.0
H1270 H 0.33848 0.26904 0.83574 0.0
H1271 H 0.37832 0.24385 0.83503 0.0
H1272 H 0.30422 0.26692 0.88432 0.0
H1273 H 0.26517 0.25898 0.8165 0.0
H1274 H 0.28828 0.23618 0.82537 0.0
H1275 H 0.29906 0.26664 0.8165 0.0
C1276 C 0.34406 0.2069 0.86417 0.0
C1277 C 0.36515 0.21499 0.85379 0.0
C1278 C 0.32116 0.22145 0.86457 0.0
C1279 C 0.31888 0.244 0.85434 0.0
C1280 C 0.33955 0.25142 0.84344 0.0
H1281 H 0.26187 0.39241 0.8656 0.0
H1282 H 0.28319 0.35042 0.86543 0.0
C1283 C 0.36243 0.23709 0.84316 0.0
C1284 C 0.29651 0.26169 0.85654 0.0
H1285 H 0.25348 0.29781 0.8328 0.0
C1286 C 0.29265 0.2732 0.87315 0.0
C1287 C 0.28121 0.26972 0.84203 0.0
C1288 C 0.28344 0.25703 0.82414 0.0
C1289 C 0.27539 0.29392 0.87529 0.0
C1290 C 0.26183 0.30344 0.86043 0.0
C1291 C 0.2641 0.29062 0.84414 0.0
C1292 C 0.24807 0.32853 0.86105 0.0
C1293 C 0.27266 0.30624 0.89328 0.0
C1294 C 0.22121 0.33017 0.85839 0.0
C1295 C 0.20882 0.35432 0.85856 0.0
C1296 C 0.22325 0.37713 0.86108 0.0
C1297 C 0.25015 0.37526 0.86363 0.0
C1298 C 0.26239 0.35125 0.86363 0.0
H1299 H 0.27812 0.29261 0.904 0.0
H1300 H 0.28571 0.32326 0.89411 0.0
H1301 H 0.25251 0.31296 0.89555 0.0
H1302 H 0.20988 0.31282 0.85623 0.0
H1303 H 0.18808 0.35517 0.85649 0.0
H1304 H 0.62123 0.18402 0.35858 0.0
H1305 H 0.6633 0.20651 0.35885 0.0
H1306 H 0.62397 0.27984 0.36227 0.0
H1307 H 0.58224 0.25783 0.36187 0.0
H1308 H 0.67936 0.24951 0.33354 0.0
H1309 H 0.67835 0.27784 0.40431 0.0
H1310 H 0.65984 0.25086 0.3958 0.0
H1311 H 0.64834 0.28336 0.39287 0.0
C1312 C 0.62162 0.20492 0.35944 0.0
C1313 C 0.59842 0.21914 0.36023 0.0
C1314 C 0.64561 0.2177 0.35957 0.0
C1315 C 0.64665 0.24477 0.36078 0.0
C1316 C 0.62354 0.25891 0.36155 0.0
H1317 H 0.73248 0.37505 0.33621 0.0
H1318 H 0.70724 0.3352 0.33649 0.0
C1319 C 0.5997 0.24627 0.36125 0.0
C1320 C 0.6716 0.25886 0.36078 0.0
H1321 H 0.70594 0.3025 0.3852 0.0
C1322 C 0.68561 0.26064 0.34493 0.0
C1323 C 0.67981 0.27313 0.37571 0.0
C1324 C 0.66596 0.2711 0.39321 0.0
C1325 C 0.70654 0.27786 0.34329 0.0
C1326 C 0.71339 0.29372 0.35781 0.0
C1327 C 0.7006 0.29044 0.37403 0.0
C1328 C 0.73123 0.31602 0.35592 0.0
C1329 C 0.72055 0.27961 0.32584 0.0
C1330 C 0.75322 0.31849 0.36672 0.0
C1331 C 0.76782 0.34136 0.36655 0.0
C1332 C 0.7603 0.36224 0.35583 0.0
C1333 C 0.73878 0.35932 0.34462 0.0
C1334 C 0.72442 0.33645 0.34466 0.0
H1335 H 0.71898 0.26123 0.31829 0.0
H1336 H 0.71166 0.29515 0.31775 0.0
H1337 H 0.74134 0.28431 0.32777 0.0
H1338 H 0.75863 0.30304 0.37564 0.0
H1339 H 0.78421 0.34312 0.37541 0.0
H1340 H 0.79004 0.62521 0.85962 0.0
H1341 H 0.76623 0.66625 0.85769 0.0
H1342 H 0.70153 0.62638 0.83404 0.0
H1343 H 0.72504 0.58559 0.83581 0.0
H1344 H 0.71508 0.67518 0.81766 0.0
H1345 H 0.7036 0.68169 0.89087 0.0
H1346 H 0.7358 0.67809 0.8821 0.0
H1347 H 0.71307 0.65201 0.88007 0.0
C1348 C 0.77086 0.62529 0.85383 0.0
C1349 C 0.75934 0.60213 0.84799 0.0
C1350 C 0.75726 0.6487 0.85281 0.0
C1351 C 0.73203 0.64925 0.8459 0.0
C1352 C 0.72098 0.62635 0.83944 0.0
H1353 H 0.59119 0.72416 0.83411 0.0
H1354 H 0.63167 0.70047 0.8313 0.0
C1355 C 0.73443 0.60303 0.84051 0.0
C1356 C 0.71623 0.67316 0.84609 0.0
H1357 H 0.67987 0.71082 0.87364 0.0
C1358 C 0.70775 0.68334 0.8299 0.0
C1359 C 0.70685 0.68386 0.86207 0.0
C1360 C 0.7151 0.67339 0.87982 0.0
C1361 C 0.68913 0.70307 0.82927 0.0
C1362 C 0.67837 0.71249 0.84522 0.0
C1363 C 0.68812 0.70354 0.86143 0.0
C1364 C 0.65471 0.72874 0.84542 0.0
C1365 C 0.68059 0.71311 0.81148 0.0
C1366 C 0.65407 0.75249 0.85444 0.0
C1367 C 0.63075 0.76616 0.85613 0.0
C1368 C 0.60768 0.75603 0.84905 0.0
C1369 C 0.60859 0.73254 0.8397 0.0
C1370 C 0.63181 0.71904 0.83794 0.0
H1371 H 0.69629 0.71118 0.80152 0.0
H1372 H 0.66383 0.70157 0.80678 0.0
H1373 H 0.67466 0.73372 0.81226 0.0
H1374 H 0.67149 0.76017 0.86047 0.0
H1375 H 0.63062 0.78415 0.86349 0.0
loop_
_geom_bond_atom_site_label_1
_geom_bond_atom_site_label_2
_geom_bond_distance
_geom_bond_site_symmetry_2
_ccdc_geom_bond_type
C0 O1 1.306 . S
C0 O3 1.160 . S
O1 C0 1.306 . S
O1 Cd2 2.228 . S
Cd2 O1 2.228 . S
Cd2 O6 2.273 . S
Cd2 O10 2.277 . S
O3 C0 1.160 . S
O3 Cd4 2.203 . S
Cd4 O3 2.203 . S
Cd4 O6 2.411 . S
Cd4 O7 2.333 . S
Cd4 O8 2.352 . S
Cd4 O12 2.277 . S
Cd4 O13 2.356 . S
C5 O10 1.209 . S
C5 O12 1.226 . S
O6 Cd2 2.273 . S
O6 Cd4 2.411 . S
O6 C9 1.320 . S
O7 Cd4 2.333 . S
O7 C9 1.214 . S
O8 Cd4 2.352 . S
O8 C11 1.258 . S
C9 O6 1.320 . S
C9 O7 1.214 . S
O10 Cd2 2.277 . S
O10 C5 1.209 . S
C11 O8 1.258 . S
C11 O13 1.282 . S
O12 Cd4 2.277 . S
O12 C5 1.226 . S
O13 Cd4 2.356 . S
O13 C11 1.282 . S
C14 O15 1.306 . S
C14 O17 1.160 . S
O15 C14 1.306 . S
O15 Cd16 2.228 . S
Cd16 O15 2.228 . S
Cd16 O20 2.273 . S
Cd16 O24 2.277 . S
O17 C14 1.160 . S
O17 Cd18 2.203 . S
Cd18 O17 2.203 . S
Cd18 O20 2.411 . S
Cd18 O21 2.333 . S
Cd18 O22 2.352 . S
Cd18 O26 2.277 . S
Cd18 O27 2.356 . S
C19 O24 1.209 . S
C19 O26 1.226 . S
O20 Cd16 2.273 . S
O20 Cd18 2.411 . S
O20 C23 1.320 . S
O21 Cd18 2.333 . S
O21 C23 1.214 . S
O22 Cd18 2.352 . S
O22 C25 1.258 . S
C23 O20 1.320 . S
C23 O21 1.214 . S
O24 Cd16 2.277 . S
O24 C19 1.209 . S
C25 O22 1.258 . S
C25 O27 1.282 . S
O26 Cd18 2.277 . S
O26 C19 1.226 . S
O27 Cd18 2.356 . S
O27 C25 1.282 . S
C28 O29 1.306 . S
C28 O31 1.160 . S
O29 C28 1.306 . S
O29 Cd30 2.228 . S
Cd30 O29 2.228 . S
Cd30 O34 2.273 . S
Cd30 O38 2.277 . S
O31 C28 1.160 . S
O31 Cd32 2.203 . S
Cd32 O31 2.203 . S
Cd32 O34 2.411 . S
Cd32 O35 2.333 . S
Cd32 O36 2.352 . S
Cd32 O40 2.277 . S
Cd32 O41 2.356 . S
C33 O38 1.209 . S
C33 O40 1.226 . S
O34 Cd30 2.273 . S
O34 Cd32 2.411 . S
O34 C37 1.320 . S
O35 Cd32 2.333 . S
O35 C37 1.214 . S
O36 Cd32 2.352 . S
O36 C39 1.258 . S
C37 O34 1.320 . S
C37 O35 1.214 . S
O38 Cd30 2.277 . S
O38 C33 1.209 . S
C39 O36 1.258 . S
C39 O41 1.282 . S
O40 Cd32 2.277 . S
O40 C33 1.226 . S
O41 Cd32 2.356 . S
O41 C39 1.282 . S
C42 O43 1.306 . S
C42 O45 1.160 . S
O43 C42 1.306 . S
O43 Cd44 2.228 . S
Cd44 O43 2.228 . S
Cd44 O48 2.273 . S
Cd44 O52 2.277 . S
O45 C42 1.160 . S
O45 Cd46 2.203 . S
Cd46 O45 2.203 . S
Cd46 O48 2.411 . S
Cd46 O49 2.333 . S
Cd46 O50 2.352 . S
Cd46 O54 2.277 . S
Cd46 O55 2.356 . S
C47 O52 1.209 . S
C47 O54 1.226 . S
O48 Cd44 2.273 . S
O48 Cd46 2.411 . S
O48 C51 1.320 . S
O49 Cd46 2.333 . S
O49 C51 1.214 . S
O50 Cd46 2.352 . S
O50 C53 1.258 . S
C51 O48 1.320 . S
C51 O49 1.214 . S
O52 Cd44 2.277 . S
O52 C47 1.209 . S
C53 O50 1.258 . S
C53 O55 1.282 . S
O54 Cd46 2.277 . S
O54 C47 1.226 . S
O55 Cd46 2.356 . S
O55 C53 1.282 . S
C56 O57 1.306 . S
C56 O59 1.160 . S
O57 C56 1.306 . S
O57 Cd58 2.228 . S
Cd58 O57 2.228 . S
Cd58 O62 2.273 . S
Cd58 O66 2.277 . S
O59 C56 1.160 . S
O59 Cd60 2.203 . S
Cd60 O59 2.203 . S
Cd60 O62 2.411 . S
Cd60 O63 2.333 . S
Cd60 O64 2.352 . S
Cd60 O68 2.277 . S
Cd60 O69 2.356 . S
C61 O66 1.209 . S
C61 O68 1.226 . S
O62 Cd58 2.273 . S
O62 Cd60 2.411 . S
O62 C65 1.320 . S
O63 Cd60 2.333 . S
O63 C65 1.214 . S
O64 Cd60 2.352 . S
O64 C67 1.258 . S
C65 O62 1.320 . S
C65 O63 1.214 . S
O66 Cd58 2.277 . S
O66 C61 1.209 . S
C67 O64 1.258 . S
C67 O69 1.282 . S
O68 Cd60 2.277 . S
O68 C61 1.226 . S
O69 Cd60 2.356 . S
O69 C67 1.282 . S
C70 O71 1.306 . S
C70 O73 1.160 . S
O71 C70 1.306 . S
O71 Cd72 2.228 . S
Cd72 O71 2.228 . S
Cd72 O76 2.273 . S
Cd72 O80 2.277 . S
O73 C70 1.160 . S
O73 Cd74 2.203 . S
Cd74 O73 2.203 . S
Cd74 O76 2.411 . S
Cd74 O77 2.333 . S
Cd74 O78 2.352 . S
Cd74 O82 2.277 . S
Cd74 O83 2.356 . S
C75 O80 1.209 . S
C75 O82 1.226 . S
O76 Cd72 2.273 . S
O76 Cd74 2.411 . S
O76 C79 1.320 . S
O77 Cd74 2.333 . S
O77 C79 1.214 . S
O78 Cd74 2.352 . S
O78 C81 1.258 . S
C79 O76 1.320 . S
C79 O77 1.214 . S
O80 Cd72 2.277 . S
O80 C75 1.209 . S
C81 O78 1.258 . S
C81 O83 1.282 . S
O82 Cd74 2.277 . S
O82 C75 1.226 . S
O83 Cd74 2.356 . S
O83 C81 1.282 . S
C84 O85 1.306 . S
C84 O87 1.160 . S
O85 C84 1.306 . S
O85 Cd86 2.228 . S
Cd86 O85 2.228 . S
Cd86 O90 2.273 . S
Cd86 O94 2.277 . S
O87 C84 1.160 . S
O87 Cd88 2.203 . S
Cd88 O87 2.203 . S
Cd88 O90 2.411 . S
Cd88 O91 2.333 . S
Cd88 O92 2.352 . S
Cd88 O96 2.277 . S
Cd88 O97 2.356 . S
C89 O94 1.209 . S
C89 O96 1.226 . S
O90 Cd86 2.273 . S
O90 Cd88 2.411 . S
O90 C93 1.320 . S
O91 Cd88 2.333 . S
O91 C93 1.214 . S
O92 Cd88 2.352 . S
O92 C95 1.258 . S
C93 O90 1.320 . S
C93 O91 1.214 . S
O94 Cd86 2.277 . S
O94 C89 1.209 . S
C95 O92 1.258 . S
C95 O97 1.282 . S
O96 Cd88 2.277 . S
O96 C89 1.226 . S
O97 Cd88 2.356 . S
O97 C95 1.282 . S
C98 O99 1.306 . S
C98 O101 1.160 . S
O99 C98 1.306 . S
O99 Cd100 2.228 . S
Cd100 O99 2.228 . S
Cd100 O104 2.273 . S
Cd100 O108 2.277 . S
O101 C98 1.160 . S
O101 Cd102 2.203 . S
Cd102 O101 2.203 . S
Cd102 O104 2.411 . S
Cd102 O105 2.333 . S
Cd102 O106 2.352 . S
Cd102 O110 2.277 . S
Cd102 O111 2.356 . S
C103 O108 1.209 . S
C103 O110 1.226 . S
O104 Cd100 2.273 . S
O104 Cd102 2.411 . S
O104 C107 1.320 . S
O105 Cd102 2.333 . S
O105 C107 1.214 . S
O106 Cd102 2.352 . S
O106 C109 1.258 . S
C107 O104 1.320 . S
C107 O105 1.214 . S
O108 Cd100 2.277 . S
O108 C103 1.209 . S
C109 O106 1.258 . S
C109 O111 1.282 . S
O110 Cd102 2.277 . S
O110 C103 1.226 . S
O111 Cd102 2.356 . S
O111 C109 1.282 . S
C112 O113 1.306 . S
C112 O115 1.160 . S
O113 C112 1.306 . S
O113 Cd114 2.228 . S
Cd114 O113 2.228 . S
Cd114 O118 2.273 . S
Cd114 O122 2.277 . S
O115 C112 1.160 . S
O115 Cd116 2.203 . S
Cd116 O115 2.203 . S
Cd116 O118 2.411 . S
Cd116 O119 2.333 . S
Cd116 O120 2.352 . S
Cd116 O124 2.277 . S
Cd116 O125 2.356 . S
C117 O122 1.209 . S
C117 O124 1.226 . S
O118 Cd114 2.273 . S
O118 Cd116 2.411 . S
O118 C121 1.320 . S
O119 Cd116 2.333 . S
O119 C121 1.214 . S
O120 Cd116 2.352 . S
O120 C123 1.258 . S
C121 O118 1.320 . S
C121 O119 1.214 . S
O122 Cd114 2.277 . S
O122 C117 1.209 . S
C123 O120 1.258 . S
C123 O125 1.282 . S
O124 Cd116 2.277 . S
O124 C117 1.226 . S
O125 Cd116 2.356 . S
O125 C123 1.282 . S
C126 O127 1.306 . S
C126 O129 1.160 . S
O127 C126 1.306 . S
O127 Cd128 2.228 . S
Cd128 O127 2.228 . S
Cd128 O132 2.273 . S
Cd128 O136 2.277 . S
O129 C126 1.160 . S
O129 Cd130 2.203 . S
Cd130 O129 2.203 . S
Cd130 O132 2.411 . S
Cd130 O133 2.333 . S
Cd130 O134 2.352 . S
Cd130 O138 2.277 . S
Cd130 O139 2.356 . S
C131 O136 1.209 . S
C131 O138 1.226 . S
O132 Cd128 2.273 . S
O132 Cd130 2.411 . S
O132 C135 1.320 . S
O133 Cd130 2.333 . S
O133 C135 1.214 . S
O134 Cd130 2.352 . S
O134 C137 1.258 . S
C135 O132 1.320 . S
C135 O133 1.214 . S
O136 Cd128 2.277 . S
O136 C131 1.209 . S
C137 O134 1.258 . S
C137 O139 1.282 . S
O138 Cd130 2.277 . S
O138 C131 1.226 . S
O139 Cd130 2.356 . S
O139 C137 1.282 . S
C140 O141 1.306 . S
C140 O143 1.160 . S
O141 C140 1.306 . S
O141 Cd142 2.228 . S
Cd142 O141 2.228 . S
Cd142 O146 2.273 . S
Cd142 O150 2.277 . S
O143 C140 1.160 . S
O143 Cd144 2.203 . S
Cd144 O143 2.203 . S
Cd144 O146 2.411 . S
Cd144 O147 2.333 . S
Cd144 O148 2.352 . S
Cd144 O152 2.277 . S
Cd144 O153 2.356 . S
C145 O150 1.209 . S
C145 O152 1.226 . S
O146 Cd142 2.273 . S
O146 Cd144 2.411 . S
O146 C149 1.320 . S
O147 Cd144 2.333 . S
O147 C149 1.214 . S
O148 Cd144 2.352 . S
O148 C151 1.258 . S
C149 O146 1.320 . S
C149 O147 1.214 . S
O150 Cd142 2.277 . S
O150 C145 1.209 . S
C151 O148 1.258 . S
C151 O153 1.282 . S
O152 Cd144 2.277 . S
O152 C145 1.226 . S
O153 Cd144 2.356 . S
O153 C151 1.282 . S
C154 O155 1.306 . S
C154 O157 1.160 . S
O155 C154 1.306 . S
O155 Cd156 2.228 . S
Cd156 O155 2.228 . S
Cd156 O160 2.273 . S
Cd156 O164 2.277 . S
O157 C154 1.160 . S
O157 Cd158 2.203 . S
Cd158 O157 2.203 . S
Cd158 O160 2.411 . S
Cd158 O161 2.333 . S
Cd158 O162 2.352 . S
Cd158 O166 2.277 . S
Cd158 O167 2.356 . S
C159 O164 1.209 . S
C159 O166 1.226 . S
O160 Cd156 2.273 . S
O160 Cd158 2.411 . S
O160 C163 1.320 . S
O161 Cd158 2.333 . S
O161 C163 1.214 . S
O162 Cd158 2.352 . S
O162 C165 1.258 . S
C163 O160 1.320 . S
C163 O161 1.214 . S
O164 Cd156 2.277 . S
O164 C159 1.209 . S
C165 O162 1.258 . S
C165 O167 1.282 . S
O166 Cd158 2.277 . S
O166 C159 1.226 . S
O167 Cd158 2.356 . S
O167 C165 1.282 . S
C168 O169 1.306 . S
C168 O171 1.160 . S
O169 C168 1.306 . S
O169 Cd170 2.228 . S
Cd170 O169 2.228 . S
Cd170 O174 2.273 . S
Cd170 O178 2.277 . S
O171 C168 1.160 . S
O171 Cd172 2.203 . S
Cd172 O171 2.203 . S
Cd172 O174 2.411 . S
Cd172 O175 2.333 . S
Cd172 O176 2.352 . S
Cd172 O180 2.277 . S
Cd172 O181 2.356 . S
C173 O178 1.209 . S
C173 O180 1.226 . S
O174 Cd170 2.273 . S
O174 Cd172 2.411 . S
O174 C177 1.320 . S
O175 Cd172 2.333 . S
O175 C177 1.214 . S
O176 Cd172 2.352 . S
O176 C179 1.258 . S
C177 O174 1.320 . S
C177 O175 1.214 . S
O178 Cd170 2.277 . S
O178 C173 1.209 . S
C179 O176 1.258 . S
C179 O181 1.282 . S
O180 Cd172 2.277 . S
O180 C173 1.226 . S
O181 Cd172 2.356 . S
O181 C179 1.282 . S
C182 O183 1.306 . S
C182 O185 1.160 . S
O183 C182 1.306 . S
O183 Cd184 2.228 . S
Cd184 O183 2.228 . S
Cd184 O188 2.273 . S
Cd184 O192 2.277 . S
O185 C182 1.160 . S
O185 Cd186 2.203 . S
Cd186 O185 2.203 . S
Cd186 O188 2.411 . S
Cd186 O189 2.333 . S
Cd186 O190 2.352 . S
Cd186 O194 2.277 . S
Cd186 O195 2.356 . S
C187 O192 1.209 . S
C187 O194 1.226 . S
O188 Cd184 2.273 . S
O188 Cd186 2.411 . S
O188 C191 1.320 . S
O189 Cd186 2.333 . S
O189 C191 1.214 . S
O190 Cd186 2.352 . S
O190 C193 1.258 . S
C191 O188 1.320 . S
C191 O189 1.214 . S
O192 Cd184 2.277 . S
O192 C187 1.209 . S
C193 O190 1.258 . S
C193 O195 1.282 . S
O194 Cd186 2.277 . S
O194 C187 1.226 . S
O195 Cd186 2.356 . S
O195 C193 1.282 . S
C196 O197 1.306 . S
C196 O199 1.160 . S
O197 C196 1.306 . S
O197 Cd198 2.228 . S
Cd198 O197 2.228 . S
Cd198 O202 2.273 . S
Cd198 O206 2.277 . S
O199 C196 1.160 . S
O199 Cd200 2.203 . S
Cd200 O199 2.203 . S
Cd200 O202 2.411 . S
Cd200 O203 2.333 . S
Cd200 O204 2.352 . S
Cd200 O208 2.277 . S
Cd200 O209 2.356 . S
C201 O206 1.209 . S
C201 O208 1.226 . S
O202 Cd198 2.273 . S
O202 Cd200 2.411 . S
O202 C205 1.320 . S
O203 Cd200 2.333 . S
O203 C205 1.214 . S
O204 Cd200 2.352 . S
O204 C207 1.258 . S
C205 O202 1.320 . S
C205 O203 1.214 . S
O206 Cd198 2.277 . S
O206 C201 1.209 . S
C207 O204 1.258 . S
C207 O209 1.282 . S
O208 Cd200 2.277 . S
O208 C201 1.226 . S
O209 Cd200 2.356 . S
O209 C207 1.282 . S
C210 O211 1.306 . S
C210 O213 1.160 . S
O211 C210 1.306 . S
O211 Cd212 2.228 . S
Cd212 O211 2.228 . S
Cd212 O216 2.273 . S
Cd212 O220 2.277 . S
O213 C210 1.160 . S
O213 Cd214 2.203 . S
Cd214 O213 2.203 . S
Cd214 O216 2.411 . S
Cd214 O217 2.333 . S
Cd214 O218 2.352 . S
Cd214 O222 2.277 . S
Cd214 O223 2.356 . S
C215 O220 1.209 . S
C215 O222 1.226 . S
O216 Cd212 2.273 . S
O216 Cd214 2.411 . S
O216 C219 1.320 . S
O217 Cd214 2.333 . S
O217 C219 1.214 . S
O218 Cd214 2.352 . S
O218 C221 1.258 . S
C219 O216 1.320 . S
C219 O217 1.214 . S
O220 Cd212 2.277 . S
O220 C215 1.209 . S
C221 O218 1.258 . S
C221 O223 1.282 . S
O222 Cd214 2.277 . S
O222 C215 1.226 . S
O223 Cd214 2.356 . S
O223 C221 1.282 . S
H224 C232 0.929 . S
H225 C234 0.930 . S
H226 C236 0.930 . S
H227 C239 0.929 . S
H228 C242 0.930 . S
H229 C244 0.960 1_655 S
H230 C244 0.960 . S
H231 C244 0.960 . S
C232 H224 0.929 . S
C232 C233 1.377 . S
C232 C234 1.384 . S
C233 C232 1.377 . S
C233 C239 1.390 . S
C234 H225 0.930 . S
C234 C232 1.384 . S
C234 C235 1.372 . S
C235 C234 1.372 . S
C235 C236 1.400 . S
C235 C240 1.490 . S
C236 H226 0.930 . S
C236 C235 1.400 . S
C236 C239 1.386 . S
H237 C253 0.930 . S
H238 C254 0.931 . S
C239 H227 0.929 . S
C239 C233 1.390 . S
C239 C236 1.386 . S
C240 C235 1.490 . S
C240 C242 1.395 . S
C240 C243 1.403 . S
H241 C247 0.930 . S
C242 H228 0.930 . S
C242 C240 1.395 . S
C242 C245 1.403 1_455 S
C243 C240 1.403 . S
C243 C244 1.524 . S
C243 C247 1.400 1_455 S
C244 H229 0.960 1_455 S
C244 H230 0.960 . S
C244 H231 0.960 . S
C244 C243 1.524 . S
C245 C242 1.403 1_655 S
C245 C246 1.392 . S
C245 C249 1.495 . S
C246 C245 1.392 . S
C246 C247 1.385 . S
C246 C248 1.478 . S
C247 H241 0.930 . S
C247 C243 1.400 1_655 S
C247 C246 1.385 . S
C248 C246 1.478 . S
C248 C250 1.381 . S
C248 C254 1.383 . S
C249 C245 1.495 . S
C249 H255 0.959 1_655 S
C249 H256 0.961 . S
C249 H257 0.960 . S
C250 C248 1.381 . S
C250 C251 1.394 . S
C250 H258 0.930 . S
C251 C250 1.394 . S
C251 C252 1.383 . S
C251 H259 0.929 . S
C252 C251 1.383 . S
C252 C253 1.377 . S
C253 H237 0.930 . S
C253 C252 1.377 . S
C253 C254 1.379 . S
C254 H238 0.931 . S
C254 C248 1.383 . S
C254 C253 1.379 . S
H255 C249 0.959 1_455 S
H256 C249 0.961 . S
H257 C249 0.960 . S
H258 C250 0.930 . S
H259 C251 0.929 . S
H260 C268 0.929 . S
H261 C270 0.930 . S
H262 C272 0.930 . S
H263 C275 0.929 . S
H264 C278 0.930 . S
H265 C280 0.960 1_545 S
H266 C280 0.960 . S
H267 C280 0.960 . S
C268 H260 0.929 . S
C268 C269 1.377 . S
C268 C270 1.384 . S
C269 C268 1.377 . S
C269 C275 1.390 . S
C270 H261 0.930 . S
C270 C268 1.384 . S
C270 C271 1.372 . S
C271 C270 1.372 . S
C271 C272 1.400 . S
C271 C276 1.490 . S
C272 H262 0.930 . S
C272 C271 1.400 . S
C272 C275 1.386 . S
H273 C289 0.930 . S
H274 C290 0.931 . S
C275 H263 0.929 . S
C275 C269 1.390 . S
C275 C272 1.386 . S
C276 C271 1.490 . S
C276 C278 1.395 . S
C276 C279 1.403 . S
H277 C283 0.930 . S
C278 H264 0.930 . S
C278 C276 1.395 . S
C278 C281 1.403 1_565 S
C279 C276 1.403 . S
C279 C280 1.524 . S
C279 C283 1.400 1_565 S
C280 H265 0.960 1_565 S
C280 H266 0.960 . S
C280 H267 0.960 . S
C280 C279 1.524 . S
C281 C278 1.403 1_545 S
C281 C282 1.392 . S
C281 C285 1.495 . S
C282 C281 1.392 . S
C282 C283 1.385 . S
C282 C284 1.478 . S
C283 H277 0.930 . S
C283 C279 1.400 1_545 S
C283 C282 1.385 . S
C284 C282 1.478 . S
C284 C286 1.381 . S
C284 C290 1.383 . S
C285 C281 1.495 . S
C285 H291 0.959 1_545 S
C285 H292 0.961 . S
C285 H293 0.960 . S
C286 C284 1.381 . S
C286 C287 1.394 . S
C286 H294 0.930 . S
C287 C286 1.394 . S
C287 C288 1.383 . S
C287 H295 0.929 . S
C288 C287 1.383 . S
C288 C289 1.377 . S
C289 H273 0.930 . S
C289 C288 1.377 . S
C289 C290 1.379 . S
C290 H274 0.931 . S
C290 C284 1.383 . S
C290 C289 1.379 . S
H291 C285 0.959 1_565 S
H292 C285 0.961 . S
H293 C285 0.960 . S
H294 C286 0.930 . S
H295 C287 0.929 . S
H296 C304 0.929 . S
H297 C306 0.930 . S
H298 C308 0.930 . S
H299 C311 0.929 . S
H300 C314 0.930 . S
H301 C316 0.960 . S
H302 C316 0.960 . S
H303 C316 0.960 . S
C304 H296 0.929 . S
C304 C305 1.377 . S
C304 C306 1.384 . S
C305 C304 1.377 . S
C305 C311 1.390 . S
C306 H297 0.930 . S
C306 C304 1.384 . S
C306 C307 1.372 . S
C307 C306 1.372 . S
C307 C308 1.400 . S
C307 C312 1.490 . S
C308 H298 0.930 . S
C308 C307 1.400 . S
C308 C311 1.386 . S
H309 C325 0.930 . S
H310 C326 0.931 . S
C311 H299 0.929 . S
C311 C305 1.390 . S
C311 C308 1.386 . S
C312 C307 1.490 . S
C312 C314 1.395 . S
C312 C315 1.403 . S
H313 C319 0.930 . S
C314 H300 0.930 . S
C314 C312 1.395 . S
C314 C317 1.403 1_455 S
C315 C312 1.403 . S
C315 C316 1.524 . S
C315 C319 1.400 1_455 S
C316 H301 0.960 . S
C316 H302 0.960 . S
C316 H303 0.960 . S
C316 C315 1.524 . S
C317 C314 1.403 1_655 S
C317 C318 1.392 . S
C317 C321 1.495 . S
C318 C317 1.392 . S
C318 C319 1.385 . S
C318 C320 1.478 . S
C319 H313 0.930 . S
C319 C315 1.400 1_655 S
C319 C318 1.385 . S
C320 C318 1.478 . S
C320 C322 1.381 . S
C320 C326 1.383 . S
C321 C317 1.495 . S
C321 H327 0.959 . S
C321 H328 0.961 . S
C321 H329 0.960 . S
C322 C320 1.381 . S
C322 C323 1.394 . S
C322 H330 0.930 . S
C323 C322 1.394 . S
C323 C324 1.383 . S
C323 H331 0.929 . S
C324 C323 1.383 . S
C324 C325 1.377 . S
C325 H309 0.930 . S
C325 C324 1.377 . S
C325 C326 1.379 . S
C326 H310 0.931 . S
C326 C320 1.383 . S
C326 C325 1.379 . S
H327 C321 0.959 . S
H328 C321 0.961 . S
H329 C321 0.960 . S
H330 C322 0.930 . S
H331 C323 0.929 . S
H332 C340 0.929 . S
H333 C342 0.930 . S
H334 C344 0.930 . S
H335 C347 0.929 . S
H336 C350 0.930 . S
H337 C352 0.960 . S
H338 C352 0.960 . S
H339 C352 0.960 . S
C340 H332 0.929 . S
C340 C341 1.377 . S
C340 C342 1.384 . S
C341 C340 1.377 . S
C341 C347 1.390 . S
C342 H333 0.930 . S
C342 C340 1.384 . S
C342 C343 1.372 . S
C343 C342 1.372 . S
C343 C344 1.400 . S
C343 C348 1.490 . S
C344 H334 0.930 . S
C344 C343 1.400 . S
C344 C347 1.386 . S
H345 C361 0.930 . S
H346 C362 0.931 . S
C347 H335 0.929 . S
C347 C341 1.390 . S
C347 C344 1.386 . S
C348 C343 1.490 . S
C348 C350 1.395 . S
C348 C351 1.403 . S
H349 C355 0.930 . S
C350 H336 0.930 . S
C350 C348 1.395 . S
C350 C353 1.403 1_565 S
C351 C348 1.403 . S
C351 C352 1.524 . S
C351 C355 1.400 1_565 S
C352 H337 0.960 . S
C352 H338 0.960 . S
C352 H339 0.960 . S
C352 C351 1.524 . S
C353 C350 1.403 1_545 S
C353 C354 1.392 . S
C353 C357 1.495 . S
C354 C353 1.392 . S
C354 C355 1.385 . S
C354 C356 1.478 . S
C355 H349 0.930 . S
C355 C351 1.400 1_545 S
C355 C354 1.385 . S
C356 C354 1.478 . S
C356 C358 1.381 . S
C356 C362 1.383 . S
C357 C353 1.495 . S
C357 H363 0.959 . S
C357 H364 0.961 . S
C357 H365 0.960 . S
C358 C356 1.381 . S
C358 C359 1.394 . S
C358 H366 0.930 . S
C359 C358 1.394 . S
C359 C360 1.383 . S
C359 H367 0.929 . S
C360 C359 1.383 . S
C360 C361 1.377 . S
C361 H345 0.930 . S
C361 C360 1.377 . S
C361 C362 1.379 . S
C362 H346 0.931 . S
C362 C356 1.383 . S
C362 C361 1.379 . S
H363 C357 0.959 . S
H364 C357 0.961 . S
H365 C357 0.960 . S
H366 C358 0.930 . S
H367 C359 0.929 . S
H368 C376 0.929 . S
H369 C378 0.930 . S
H370 C380 0.930 . S
H371 C383 0.929 . S
H372 C386 0.930 . S
H373 C388 0.960 . S
H374 C388 0.960 . S
H375 C388 0.960 . S
C376 H368 0.929 . S
C376 C377 1.377 . S
C376 C378 1.384 . S
C377 C376 1.377 . S
C377 C383 1.390 . S
C378 H369 0.930 . S
C378 C376 1.384 . S
C378 C379 1.372 . S
C379 C378 1.372 . S
C379 C380 1.400 . S
C379 C384 1.490 . S
C380 H370 0.930 . S
C380 C379 1.400 . S
C380 C383 1.386 . S
H381 C397 0.930 . S
H382 C398 0.931 . S
C383 H371 0.929 . S
C383 C377 1.390 . S
C383 C380 1.386 . S
C384 C379 1.490 . S
C384 C386 1.395 . S
C384 C387 1.403 . S
H385 C391 0.930 . S
C386 H372 0.930 . S
C386 C384 1.395 . S
C386 C389 1.403 1_655 S
C387 C384 1.403 . S
C387 C388 1.524 . S
C387 C391 1.400 1_655 S
C388 H373 0.960 . S
C388 H374 0.960 . S
C388 H375 0.960 . S
C388 C387 1.524 . S
C389 C386 1.403 1_455 S
C389 C390 1.392 . S
C389 C393 1.495 . S
C390 C389 1.392 . S
C390 C391 1.385 . S
C390 C392 1.478 . S
C391 H385 0.930 . S
C391 C387 1.400 1_455 S
C391 C390 1.385 . S
C392 C390 1.478 . S
C392 C394 1.381 . S
C392 C398 1.383 . S
C393 C389 1.495 . S
C393 H399 0.959 . S
C393 H400 0.961 . S
C393 H401 0.960 . S
C394 C392 1.381 . S
C394 C395 1.394 . S
C394 H402 0.930 . S
C395 C394 1.394 . S
C395 C396 1.383 . S
C395 H403 0.929 . S
C396 C395 1.383 . S
C396 C397 1.377 . S
C397 H381 0.930 . S
C397 C396 1.377 . S
C397 C398 1.379 . S
C398 H382 0.931 . S
C398 C392 1.383 . S
C398 C397 1.379 . S
H399 C393 0.959 . S
H400 C393 0.961 . S
H401 C393 0.960 . S
H402 C394 0.930 . S
H403 C395 0.929 . S
H404 C412 0.929 . S
H405 C414 0.930 . S
H406 C416 0.930 . S
H407 C419 0.929 . S
H408 C422 0.930 . S
H409 C424 0.960 . S
H410 C424 0.960 . S
H411 C424 0.960 . S
C412 H404 0.929 . S
C412 C413 1.377 . S
C412 C414 1.384 . S
C413 C412 1.377 . S
C413 C419 1.390 . S
C414 H405 0.930 . S
C414 C412 1.384 . S
C414 C415 1.372 . S
C415 C414 1.372 . S
C415 C416 1.400 . S
C415 C420 1.490 . S
C416 H406 0.930 . S
C416 C415 1.400 . S
C416 C419 1.386 . S
H417 C433 0.930 . S
H418 C434 0.931 . S
C419 H407 0.929 . S
C419 C413 1.390 . S
C419 C416 1.386 . S
C420 C415 1.490 . S
C420 C422 1.395 . S
C420 C423 1.403 . S
H421 C427 0.930 . S
C422 H408 0.930 . S
C422 C420 1.395 . S
C422 C425 1.403 1_545 S
C423 C420 1.403 . S
C423 C424 1.524 . S
C423 C427 1.400 1_545 S
C424 H409 0.960 . S
C424 H410 0.960 . S
C424 H411 0.960 . S
C424 C423 1.524 . S
C425 C422 1.403 1_565 S
C425 C426 1.392 . S
C425 C429 1.495 . S
C426 C425 1.392 . S
C426 C427 1.385 . S
C426 C428 1.478 . S
C427 H421 0.930 . S
C427 C423 1.400 1_565 S
C427 C426 1.385 . S
C428 C426 1.478 . S
C428 C430 1.381 . S
C428 C434 1.383 . S
C429 C425 1.495 . S
C429 H435 0.959 . S
C429 H436 0.961 . S
C429 H437 0.960 . S
C430 C428 1.381 . S
C430 C431 1.394 . S
C430 H438 0.930 . S
C431 C430 1.394 . S
C431 C432 1.383 . S
C431 H439 0.929 . S
C432 C431 1.383 . S
C432 C433 1.377 . S
C433 H417 0.930 . S
C433 C432 1.377 . S
C433 C434 1.379 . S
C434 H418 0.931 . S
C434 C428 1.383 . S
C434 C433 1.379 . S
H435 C429 0.959 . S
H436 C429 0.961 . S
H437 C429 0.960 . S
H438 C430 0.930 . S
H439 C431 0.929 . S
H440 C448 0.929 . S
H441 C450 0.930 . S
H442 C452 0.930 . S
H443 C455 0.929 . S
H444 C458 0.930 . S
H445 C460 0.960 . S
H446 C460 0.960 . S
H447 C460 0.960 . S
C448 H440 0.929 . S
C448 C449 1.377 . S
C448 C450 1.384 . S
C449 C448 1.377 . S
C449 C455 1.390 . S
C450 H441 0.930 . S
C450 C448 1.384 . S
C450 C451 1.372 . S
C451 C450 1.372 . S
C451 C452 1.400 . S
C451 C456 1.490 . S
C452 H442 0.930 . S
C452 C451 1.400 . S
C452 C455 1.386 . S
H453 C469 0.930 . S
H454 C470 0.931 . S
C455 H443 0.929 . S
C455 C449 1.390 . S
C455 C452 1.386 . S
C456 C451 1.490 . S
C456 C458 1.395 . S
C456 C459 1.403 . S
H457 C463 0.930 . S
C458 H444 0.930 . S
C458 C456 1.395 . S
C458 C461 1.403 1_655 S
C459 C456 1.403 . S
C459 C460 1.524 . S
C459 C463 1.400 1_655 S
C460 H445 0.960 . S
C460 H446 0.960 . S
C460 H447 0.960 . S
C460 C459 1.524 . S
C461 C458 1.403 1_455 S
C461 C462 1.392 . S
C461 C465 1.495 . S
C462 C461 1.392 . S
C462 C463 1.385 . S
C462 C464 1.478 . S
C463 H457 0.930 . S
C463 C459 1.400 1_455 S
C463 C462 1.385 . S
C464 C462 1.478 . S
C464 C466 1.381 . S
C464 C470 1.383 . S
C465 C461 1.495 . S
C465 H471 0.959 . S
C465 H472 0.961 . S
C465 H473 0.960 . S
C466 C464 1.381 . S
C466 C467 1.394 . S
C466 H474 0.930 . S
C467 C466 1.394 . S
C467 C468 1.383 . S
C467 H475 0.929 . S
C468 C467 1.383 . S
C468 C469 1.377 . S
C469 H453 0.930 . S
C469 C468 1.377 . S
C469 C470 1.379 . S
C470 H454 0.931 . S
C470 C464 1.383 . S
C470 C469 1.379 . S
H471 C465 0.959 . S
H472 C465 0.961 . S
H473 C465 0.960 . S
H474 C466 0.930 . S
H475 C467 0.929 . S
H476 C484 0.929 . S
H477 C486 0.930 . S
H478 C488 0.930 . S
H479 C491 0.929 . S
H480 C494 0.930 . S
H481 C496 0.960 1_565 S
H482 C496 0.960 . S
H483 C496 0.960 . S
C484 H476 0.929 . S
C484 C485 1.377 . S
C484 C486 1.384 . S
C485 C484 1.377 . S
C485 C491 1.390 . S
C486 H477 0.930 . S
C486 C484 1.384 . S
C486 C487 1.372 . S
C487 C486 1.372 . S
C487 C488 1.400 . S
C487 C492 1.490 . S
C488 H478 0.930 . S
C488 C487 1.400 . S
C488 C491 1.386 . S
H489 C505 0.930 . S
H490 C506 0.931 . S
C491 H479 0.929 . S
C491 C485 1.390 . S
C491 C488 1.386 . S
C492 C487 1.490 . S
C492 C494 1.395 . S
C492 C495 1.403 . S
H493 C499 0.930 . S
C494 H480 0.930 . S
C494 C492 1.395 . S
C494 C497 1.403 1_545 S
C495 C492 1.403 . S
C495 C496 1.524 . S
C495 C499 1.400 1_545 S
C496 H481 0.960 1_545 S
C496 H482 0.960 . S
C496 H483 0.960 . S
C496 C495 1.524 . S
C497 C494 1.403 1_565 S
C497 C498 1.392 . S
C497 C501 1.495 . S
C498 C497 1.392 . S
C498 C499 1.385 . S
C498 C500 1.478 . S
C499 H493 0.930 . S
C499 C495 1.400 1_565 S
C499 C498 1.385 . S
C500 C498 1.478 . S
C500 C502 1.381 . S
C500 C506 1.383 . S
C501 C497 1.495 . S
C501 H507 0.959 1_565 S
C501 H508 0.961 . S
C501 H509 0.960 . S
C502 C500 1.381 . S
C502 C503 1.394 . S
C502 H510 0.930 . S
C503 C502 1.394 . S
C503 C504 1.383 . S
C503 H511 0.929 . S
C504 C503 1.383 . S
C504 C505 1.377 . S
C505 H489 0.930 . S
C505 C504 1.377 . S
C505 C506 1.379 . S
C506 H490 0.931 . S
C506 C500 1.383 . S
C506 C505 1.379 . S
H507 C501 0.959 1_545 S
H508 C501 0.961 . S
H509 C501 0.960 . S
H510 C502 0.930 . S
H511 C503 0.929 . S
H512 C520 0.929 . S
H513 C522 0.930 . S
H514 C524 0.930 . S
H515 C527 0.929 . S
H516 C530 0.930 . S
H517 C532 0.960 . S
H518 C532 0.960 . S
H519 C532 0.960 . S
C520 H512 0.929 . S
C520 C521 1.377 . S
C520 C522 1.384 . S
C521 C520 1.377 . S
C521 C527 1.390 . S
C522 H513 0.930 . S
C522 C520 1.384 . S
C522 C523 1.372 . S
C523 C522 1.372 . S
C523 C524 1.400 . S
C523 C528 1.490 . S
C524 H514 0.930 . S
C524 C523 1.400 . S
C524 C527 1.386 . S
H525 C541 0.930 . S
H526 C542 0.931 . S
C527 H515 0.929 . S
C527 C521 1.390 . S
C527 C524 1.386 . S
C528 C523 1.490 . S
C528 C530 1.395 . S
C528 C531 1.403 . S
H529 C535 0.930 . S
C530 H516 0.930 . S
C530 C528 1.395 . S
C530 C533 1.403 . S
C531 C528 1.403 . S
C531 C532 1.524 . S
C531 C535 1.400 . S
C532 H517 0.960 . S
C532 H518 0.960 . S
C532 H519 0.960 . S
C532 C531 1.524 . S
C533 C530 1.403 . S
C533 C534 1.392 . S
C533 C537 1.495 . S
C534 C533 1.392 . S
C534 C535 1.385 . S
C534 C536 1.478 . S
C535 H529 0.930 . S
C535 C531 1.400 . S
C535 C534 1.385 . S
C536 C534 1.478 . S
C536 C538 1.381 . S
C536 C542 1.383 . S
C537 C533 1.495 . S
C537 H543 0.959 . S
C537 H544 0.961 . S
C537 H545 0.960 . S
C538 C536 1.381 . S
C538 C539 1.394 . S
C538 H546 0.930 . S
C539 C538 1.394 . S
C539 C540 1.383 . S
C539 H547 0.929 . S
C540 C539 1.383 . S
C540 C541 1.377 . S
C541 H525 0.930 . S
C541 C540 1.377 . S
C541 C542 1.379 . S
C542 H526 0.931 . S
C542 C536 1.383 . S
C542 C541 1.379 . S
H543 C537 0.959 . S
H544 C537 0.961 . S
H545 C537 0.960 . S
H546 C538 0.930 . S
H547 C539 0.929 . S
H548 C556 0.929 . S
H549 C558 0.930 . S
H550 C560 0.930 . S
H551 C563 0.929 . S
H552 C566 0.930 . S
H553 C568 0.960 . S
H554 C568 0.960 . S
H555 C568 0.960 . S
C556 H548 0.929 . S
C556 C557 1.377 . S
C556 C558 1.384 . S
C557 C556 1.377 . S
C557 C563 1.390 . S
C558 H549 0.930 . S
C558 C556 1.384 . S
C558 C559 1.372 . S
C559 C558 1.372 . S
C559 C560 1.400 . S
C559 C564 1.490 . S
C560 H550 0.930 . S
C560 C559 1.400 . S
C560 C563 1.386 . S
H561 C577 0.930 . S
H562 C578 0.931 . S
C563 H551 0.929 . S
C563 C557 1.390 . S
C563 C560 1.386 . S
C564 C559 1.490 . S
C564 C566 1.395 . S
C564 C567 1.403 . S
H565 C571 0.930 . S
C566 H552 0.930 . S
C566 C564 1.395 . S
C566 C569 1.403 . S
C567 C564 1.403 . S
C567 C568 1.524 . S
C567 C571 1.400 . S
C568 H553 0.960 . S
C568 H554 0.960 . S
C568 H555 0.960 . S
C568 C567 1.524 . S
C569 C566 1.403 . S
C569 C570 1.392 . S
C569 C573 1.495 . S
C570 C569 1.392 . S
C570 C571 1.385 . S
C570 C572 1.478 . S
C571 H565 0.930 . S
C571 C567 1.400 . S
C571 C570 1.385 . S
C572 C570 1.478 . S
C572 C574 1.381 . S
C572 C578 1.383 . S
C573 C569 1.495 . S
C573 H579 0.959 . S
C573 H580 0.961 . S
C573 H581 0.960 . S
C574 C572 1.381 . S
C574 C575 1.394 . S
C574 H582 0.930 . S
C575 C574 1.394 . S
C575 C576 1.383 . S
C575 H583 0.929 . S
C576 C575 1.383 . S
C576 C577 1.377 . S
C577 H561 0.930 . S
C577 C576 1.377 . S
C577 C578 1.379 . S
C578 H562 0.931 . S
C578 C572 1.383 . S
C578 C577 1.379 . S
H579 C573 0.959 . S
H580 C573 0.961 . S
H581 C573 0.960 . S
H582 C574 0.930 . S
H583 C575 0.929 . S
H584 C592 0.929 . S
H585 C594 0.930 . S
H586 C596 0.930 . S
H587 C599 0.929 . S
H588 C602 0.930 . S
H589 C604 0.960 . S
H590 C604 0.960 . S
H591 C604 0.960 . S
C592 H584 0.929 . S
C592 C593 1.377 . S
C592 C594 1.384 . S
C593 C592 1.377 . S
C593 C599 1.390 . S
C594 H585 0.930 . S
C594 C592 1.384 . S
C594 C595 1.372 . S
C595 C594 1.372 . S
C595 C596 1.400 . S
C595 C600 1.490 . S
C596 H586 0.930 . S
C596 C595 1.400 . S
C596 C599 1.386 . S
H597 C613 0.930 . S
H598 C614 0.931 . S
C599 H587 0.929 . S
C599 C593 1.390 . S
C599 C596 1.386 . S
C600 C595 1.490 . S
C600 C602 1.395 . S
C600 C603 1.403 . S
H601 C607 0.930 . S
C602 H588 0.930 . S
C602 C600 1.395 . S
C602 C605 1.403 . S
C603 C600 1.403 . S
C603 C604 1.524 . S
C603 C607 1.400 . S
C604 H589 0.960 . S
C604 H590 0.960 . S
C604 H591 0.960 . S
C604 C603 1.524 . S
C605 C602 1.403 . S
C605 C606 1.392 . S
C605 C609 1.495 . S
C606 C605 1.392 . S
C606 C607 1.385 . S
C606 C608 1.478 . S
C607 H601 0.930 . S
C607 C603 1.400 . S
C607 C606 1.385 . S
C608 C606 1.478 . S
C608 C610 1.381 . S
C608 C614 1.383 . S
C609 C605 1.495 . S
C609 H615 0.959 . S
C609 H616 0.961 . S
C609 H617 0.960 . S
C610 C608 1.381 . S
C610 C611 1.394 . S
C610 H618 0.930 . S
C611 C610 1.394 . S
C611 C612 1.383 . S
C611 H619 0.929 . S
C612 C611 1.383 . S
C612 C613 1.377 . S
C613 H597 0.930 . S
C613 C612 1.377 . S
C613 C614 1.379 . S
C614 H598 0.931 . S
C614 C608 1.383 . S
C614 C613 1.379 . S
H615 C609 0.959 . S
H616 C609 0.961 . S
H617 C609 0.960 . S
H618 C610 0.930 . S
H619 C611 0.929 . S
H620 C628 0.929 . S
H621 C630 0.930 . S
H622 C632 0.930 . S
H623 C635 0.929 . S
H624 C638 0.930 . S
H625 C640 0.960 . S
H626 C640 0.960 . S
H627 C640 0.960 . S
C628 H620 0.929 . S
C628 C629 1.377 . S
C628 C630 1.384 . S
C629 C628 1.377 . S
C629 C635 1.390 . S
C630 H621 0.930 . S
C630 C628 1.384 . S
C630 C631 1.372 . S
C631 C630 1.372 . S
C631 C632 1.400 . S
C631 C636 1.490 . S
C632 H622 0.930 . S
C632 C631 1.400 . S
C632 C635 1.386 . S
H633 C649 0.930 . S
H634 C650 0.931 . S
C635 H623 0.929 . S
C635 C629 1.390 . S
C635 C632 1.386 . S
C636 C631 1.490 . S
C636 C638 1.395 . S
C636 C639 1.403 . S
H637 C643 0.930 . S
C638 H624 0.930 . S
C638 C636 1.395 . S
C638 C641 1.403 . S
C639 C636 1.403 . S
C639 C640 1.524 . S
C639 C643 1.400 . S
C640 H625 0.960 . S
C640 H626 0.960 . S
C640 H627 0.960 . S
C640 C639 1.524 . S
C641 C638 1.403 . S
C641 C642 1.392 . S
C641 C645 1.495 . S
C642 C641 1.392 . S
C642 C643 1.385 . S
C642 C644 1.478 . S
C643 H637 0.930 . S
C643 C639 1.400 . S
C643 C642 1.385 . S
C644 C642 1.478 . S
C644 C646 1.381 . S
C644 C650 1.383 . S
C645 C641 1.495 . S
C645 H651 0.959 . S
C645 H652 0.961 . S
C645 H653 0.960 . S
C646 C644 1.381 . S
C646 C647 1.394 . S
C646 H654 0.930 . S
C647 C646 1.394 . S
C647 C648 1.383 . S
C647 H655 0.929 . S
C648 C647 1.383 . S
C648 C649 1.377 . S
C649 H633 0.930 . S
C649 C648 1.377 . S
C649 C650 1.379 . S
C650 H634 0.931 . S
C650 C644 1.383 . S
C650 C649 1.379 . S
H651 C645 0.959 . S
H652 C645 0.961 . S
H653 C645 0.960 . S
H654 C646 0.930 . S
H655 C647 0.929 . S
H656 C664 0.929 . S
H657 C666 0.930 . S
H658 C668 0.930 . S
H659 C671 0.929 . S
H660 C674 0.930 . S
H661 C676 0.960 . S
H662 C676 0.960 . S
H663 C676 0.960 . S
C664 H656 0.929 . S
C664 C665 1.377 . S
C664 C666 1.384 . S
C665 C664 1.377 . S
C665 C671 1.390 . S
C666 H657 0.930 . S
C666 C664 1.384 . S
C666 C667 1.372 . S
C667 C666 1.372 . S
C667 C668 1.400 . S
C667 C672 1.490 . S
C668 H658 0.930 . S
C668 C667 1.400 . S
C668 C671 1.386 . S
H669 C685 0.930 . S
H670 C686 0.931 . S
C671 H659 0.929 . S
C671 C665 1.390 . S
C671 C668 1.386 . S
C672 C667 1.490 . S
C672 C674 1.395 . S
C672 C675 1.403 . S
H673 C679 0.930 . S
C674 H660 0.930 . S
C674 C672 1.395 . S
C674 C677 1.403 . S
C675 C672 1.403 . S
C675 C676 1.524 . S
C675 C679 1.400 . S
C676 H661 0.960 . S
C676 H662 0.960 . S
C676 H663 0.960 . S
C676 C675 1.524 . S
C677 C674 1.403 . S
C677 C678 1.392 . S
C677 C681 1.495 . S
C678 C677 1.392 . S
C678 C679 1.385 . S
C678 C680 1.478 . S
C679 H673 0.930 . S
C679 C675 1.400 . S
C679 C678 1.385 . S
C680 C678 1.478 . S
C680 C682 1.381 . S
C680 C686 1.383 . S
C681 C677 1.495 . S
C681 H687 0.959 . S
C681 H688 0.961 . S
C681 H689 0.960 . S
C682 C680 1.381 . S
C682 C683 1.394 . S
C682 H690 0.930 . S
C683 C682 1.394 . S
C683 C684 1.383 . S
C683 H691 0.929 . S
C684 C683 1.383 . S
C684 C685 1.377 . S
C685 H669 0.930 . S
C685 C684 1.377 . S
C685 C686 1.379 . S
C686 H670 0.931 . S
C686 C680 1.383 . S
C686 C685 1.379 . S
H687 C681 0.959 . S
H688 C681 0.961 . S
H689 C681 0.960 . S
H690 C682 0.930 . S
H691 C683 0.929 . S
H692 C700 0.929 . S
H693 C702 0.930 . S
H694 C704 0.930 . S
H695 C707 0.929 . S
H696 C710 0.930 . S
H697 C712 0.960 . S
H698 C712 0.960 . S
H699 C712 0.960 . S
C700 H692 0.929 . S
C700 C701 1.377 . S
C700 C702 1.384 . S
C701 C700 1.377 . S
C701 C707 1.390 . S
C702 H693 0.930 . S
C702 C700 1.384 . S
C702 C703 1.372 . S
C703 C702 1.372 . S
C703 C704 1.400 . S
C703 C708 1.490 . S
C704 H694 0.930 . S
C704 C703 1.400 . S
C704 C707 1.386 . S
H705 C721 0.930 . S
H706 C722 0.931 . S
C707 H695 0.929 . S
C707 C701 1.390 . S
C707 C704 1.386 . S
C708 C703 1.490 . S
C708 C710 1.395 . S
C708 C711 1.403 . S
H709 C715 0.930 . S
C710 H696 0.930 . S
C710 C708 1.395 . S
C710 C713 1.403 . S
C711 C708 1.403 . S
C711 C712 1.524 . S
C711 C715 1.400 . S
C712 H697 0.960 . S
C712 H698 0.960 . S
C712 H699 0.960 . S
C712 C711 1.524 . S
C713 C710 1.403 . S
C713 C714 1.392 . S
C713 C717 1.495 . S
C714 C713 1.392 . S
C714 C715 1.385 . S
C714 C716 1.478 . S
C715 H709 0.930 . S
C715 C711 1.400 . S
C715 C714 1.385 . S
C716 C714 1.478 . S
C716 C718 1.381 . S
C716 C722 1.383 . S
C717 C713 1.495 . S
C717 H723 0.959 . S
C717 H724 0.961 . S
C717 H725 0.960 . S
C718 C716 1.381 . S
C718 C719 1.394 . S
C718 H726 0.930 . S
C719 C718 1.394 . S
C719 C720 1.383 . S
C719 H727 0.929 . S
C720 C719 1.383 . S
C720 C721 1.377 . S
C721 H705 0.930 . S
C721 C720 1.377 . S
C721 C722 1.379 . S
C722 H706 0.931 . S
C722 C716 1.383 . S
C722 C721 1.379 . S
H723 C717 0.959 . S
H724 C717 0.961 . S
H725 C717 0.960 . S
H726 C718 0.930 . S
H727 C719 0.929 . S
H728 C736 0.929 . S
H729 C738 0.930 . S
H730 C740 0.930 . S
H731 C743 0.929 . S
H732 C746 0.930 . S
H733 C748 0.960 . S
H734 C748 0.960 . S
H735 C748 0.960 . S
C736 H728 0.929 . S
C736 C737 1.377 . S
C736 C738 1.384 . S
C737 C736 1.377 . S
C737 C743 1.390 . S
C738 H729 0.930 . S
C738 C736 1.384 . S
C738 C739 1.372 . S
C739 C738 1.372 . S
C739 C740 1.400 . S
C739 C744 1.490 . S
C740 H730 0.930 . S
C740 C739 1.400 . S
C740 C743 1.386 . S
H741 C757 0.930 . S
H742 C758 0.931 . S
C743 H731 0.929 . S
C743 C737 1.390 . S
C743 C740 1.386 . S
C744 C739 1.490 . S
C744 C746 1.395 . S
C744 C747 1.403 . S
H745 C751 0.930 . S
C746 H732 0.930 . S
C746 C744 1.395 . S
C746 C749 1.403 . S
C747 C744 1.403 . S
C747 C748 1.524 . S
C747 C751 1.400 . S
C748 H733 0.960 . S
C748 H734 0.960 . S
C748 H735 0.960 . S
C748 C747 1.524 . S
C749 C746 1.403 . S
C749 C750 1.392 . S
C749 C753 1.495 . S
C750 C749 1.392 . S
C750 C751 1.385 . S
C750 C752 1.478 . S
C751 H745 0.930 . S
C751 C747 1.400 . S
C751 C750 1.385 . S
C752 C750 1.478 . S
C752 C754 1.381 . S
C752 C758 1.383 . S
C753 C749 1.495 . S
C753 H759 0.959 . S
C753 H760 0.961 . S
C753 H761 0.960 . S
C754 C752 1.381 . S
C754 C755 1.394 . S
C754 H762 0.930 . S
C755 C754 1.394 . S
C755 C756 1.383 . S
C755 H763 0.929 . S
C756 C755 1.383 . S
C756 C757 1.377 . S
C757 H741 0.930 . S
C757 C756 1.377 . S
C757 C758 1.379 . S
C758 H742 0.931 . S
C758 C752 1.383 . S
C758 C757 1.379 . S
H759 C753 0.959 . S
H760 C753 0.961 . S
H761 C753 0.960 . S
H762 C754 0.930 . S
H763 C755 0.929 . S
H764 C772 0.929 . S
H765 C774 0.930 . S
H766 C776 0.930 . S
H767 C779 0.929 . S
H768 C782 0.930 . S
H769 C784 0.960 . S
H770 C784 0.960 . S
H771 C784 0.960 . S
C772 H764 0.929 . S
C772 C773 1.377 . S
C772 C774 1.384 . S
C773 C772 1.377 . S
C773 C779 1.390 . S
C774 H765 0.930 . S
C774 C772 1.384 . S
C774 C775 1.372 . S
C775 C774 1.372 . S
C775 C776 1.400 . S
C775 C780 1.490 . S
C776 H766 0.930 . S
C776 C775 1.400 . S
C776 C779 1.386 . S
H777 C793 0.930 . S
H778 C794 0.931 . S
C779 H767 0.929 . S
C779 C773 1.390 . S
C779 C776 1.386 . S
C780 C775 1.490 . S
C780 C782 1.395 . S
C780 C783 1.403 . S
H781 C787 0.930 . S
C782 H768 0.930 . S
C782 C780 1.395 . S
C782 C785 1.403 . S
C783 C780 1.403 . S
C783 C784 1.524 . S
C783 C787 1.400 . S
C784 H769 0.960 . S
C784 H770 0.960 . S
C784 H771 0.960 . S
C784 C783 1.524 . S
C785 C782 1.403 . S
C785 C786 1.392 . S
C785 C789 1.495 . S
C786 C785 1.392 . S
C786 C787 1.385 . S
C786 C788 1.478 . S
C787 H781 0.930 . S
C787 C783 1.400 . S
C787 C786 1.385 . S
C788 C786 1.478 . S
C788 C790 1.381 . S
C788 C794 1.383 . S
C789 C785 1.495 . S
C789 H795 0.959 . S
C789 H796 0.961 . S
C789 H797 0.960 . S
C790 C788 1.381 . S
C790 C791 1.394 . S
C790 H798 0.930 . S
C791 C790 1.394 . S
C791 C792 1.383 . S
C791 H799 0.929 . S
C792 C791 1.383 . S
C792 C793 1.377 . S
C793 H777 0.930 . S
C793 C792 1.377 . S
C793 C794 1.379 . S
C794 H778 0.931 . S
C794 C788 1.383 . S
C794 C793 1.379 . S
H795 C789 0.959 . S
H796 C789 0.961 . S
H797 C789 0.960 . S
H798 C790 0.930 . S
H799 C791 0.929 . S
H800 C808 0.929 . S
H801 C810 0.930 . S
H802 C812 0.930 . S
H803 C815 0.929 . S
H804 C818 0.930 . S
H805 C820 0.960 . S
H806 C820 0.960 . S
H807 C820 0.960 . S
C808 H800 0.929 . S
C808 C809 1.377 . S
C808 C810 1.384 . S
C809 C808 1.377 . S
C809 C815 1.390 . S
C810 H801 0.930 . S
C810 C808 1.384 . S
C810 C811 1.372 . S
C811 C810 1.372 . S
C811 C812 1.400 . S
C811 C816 1.490 . S
C812 H802 0.930 . S
C812 C811 1.400 . S
C812 C815 1.386 . S
H813 C829 0.930 . S
H814 C830 0.931 . S
C815 H803 0.929 . S
C815 C809 1.390 . S
C815 C812 1.386 . S
C816 C811 1.490 . S
C816 C818 1.395 . S
C816 C819 1.403 . S
H817 C823 0.930 . S
C818 H804 0.930 . S
C818 C816 1.395 . S
C818 C821 1.403 1_556 S
C819 C816 1.403 . S
C819 C820 1.524 . S
C819 C823 1.400 1_556 S
C820 H805 0.960 . S
C820 H806 0.960 . S
C820 H807 0.960 . S
C820 C819 1.524 . S
C821 C818 1.403 1_554 S
C821 C822 1.392 . S
C821 C825 1.495 . S
C822 C821 1.392 . S
C822 C823 1.385 . S
C822 C824 1.478 . S
C823 H817 0.930 . S
C823 C819 1.400 1_554 S
C823 C822 1.385 . S
C824 C822 1.478 . S
C824 C826 1.381 . S
C824 C830 1.383 . S
C825 C821 1.495 . S
C825 H831 0.959 . S
C825 H832 0.961 . S
C825 H833 0.960 . S
C826 C824 1.381 . S
C826 C827 1.394 . S
C826 H834 0.930 . S
C827 C826 1.394 . S
C827 C828 1.383 . S
C827 H835 0.929 . S
C828 C827 1.383 . S
C828 C829 1.377 . S
C829 H813 0.930 . S
C829 C828 1.377 . S
C829 C830 1.379 . S
C830 H814 0.931 . S
C830 C824 1.383 . S
C830 C829 1.379 . S
H831 C825 0.959 . S
H832 C825 0.961 . S
H833 C825 0.960 . S
H834 C826 0.930 . S
H835 C827 0.929 . S
H836 C844 0.929 . S
H837 C846 0.930 . S
H838 C848 0.930 . S
H839 C851 0.929 . S
H840 C854 0.930 . S
H841 C856 0.960 . S
H842 C856 0.960 . S
H843 C856 0.960 . S
C844 H836 0.929 . S
C844 C845 1.377 . S
C844 C846 1.384 . S
C845 C844 1.377 . S
C845 C851 1.390 . S
C846 H837 0.930 . S
C846 C844 1.384 . S
C846 C847 1.372 . S
C847 C846 1.372 . S
C847 C848 1.400 . S
C847 C852 1.490 . S
C848 H838 0.930 . S
C848 C847 1.400 . S
C848 C851 1.386 . S
H849 C865 0.930 . S
H850 C866 0.931 . S
C851 H839 0.929 . S
C851 C845 1.390 . S
C851 C848 1.386 . S
C852 C847 1.490 . S
C852 C854 1.395 . S
C852 C855 1.403 . S
H853 C859 0.930 . S
C854 H840 0.930 . S
C854 C852 1.395 . S
C854 C857 1.403 . S
C855 C852 1.403 . S
C855 C856 1.524 . S
C855 C859 1.400 . S
C856 H841 0.960 . S
C856 H842 0.960 . S
C856 H843 0.960 . S
C856 C855 1.524 . S
C857 C854 1.403 . S
C857 C858 1.392 . S
C857 C861 1.495 . S
C858 C857 1.392 . S
C858 C859 1.385 . S
C858 C860 1.478 . S
C859 H853 0.930 . S
C859 C855 1.400 . S
C859 C858 1.385 . S
C860 C858 1.478 . S
C860 C862 1.381 . S
C860 C866 1.383 . S
C861 C857 1.495 . S
C861 H867 0.959 . S
C861 H868 0.961 . S
C861 H869 0.960 . S
C862 C860 1.381 . S
C862 C863 1.394 . S
C862 H870 0.930 . S
C863 C862 1.394 . S
C863 C864 1.383 . S
C863 H871 0.929 . S
C864 C863 1.383 . S
C864 C865 1.377 . S
C865 H849 0.930 . S
C865 C864 1.377 . S
C865 C866 1.379 . S
C866 H850 0.931 . S
C866 C860 1.383 . S
C866 C865 1.379 . S
H867 C861 0.959 . S
H868 C861 0.961 . S
H869 C861 0.960 . S
H870 C862 0.930 . S
H871 C863 0.929 . S
H872 C880 0.929 . S
H873 C882 0.930 . S
H874 C884 0.930 . S
H875 C887 0.929 . S
H876 C890 0.930 . S
H877 C892 0.960 . S
H878 C892 0.960 . S
H879 C892 0.960 . S
C880 H872 0.929 . S
C880 C881 1.377 . S
C880 C882 1.384 . S
C881 C880 1.377 . S
C881 C887 1.390 . S
C882 H873 0.930 . S
C882 C880 1.384 . S
C882 C883 1.372 . S
C883 C882 1.372 . S
C883 C884 1.400 . S
C883 C888 1.490 . S
C884 H874 0.930 . S
C884 C883 1.400 . S
C884 C887 1.386 . S
H885 C901 0.930 . S
H886 C902 0.931 . S
C887 H875 0.929 . S
C887 C881 1.390 . S
C887 C884 1.386 . S
C888 C883 1.490 . S
C888 C890 1.395 . S
C888 C891 1.403 . S
H889 C895 0.930 . S
C890 H876 0.930 . S
C890 C888 1.395 . S
C890 C893 1.403 1_554 S
C891 C888 1.403 . S
C891 C892 1.524 . S
C891 C895 1.400 1_554 S
C892 H877 0.960 . S
C892 H878 0.960 . S
C892 H879 0.960 . S
C892 C891 1.524 . S
C893 C890 1.403 1_556 S
C893 C894 1.392 . S
C893 C897 1.495 . S
C894 C893 1.392 . S
C894 C895 1.385 . S
C894 C896 1.478 . S
C895 H889 0.930 . S
C895 C891 1.400 1_556 S
C895 C894 1.385 . S
C896 C894 1.478 . S
C896 C898 1.381 . S
C896 C902 1.383 . S
C897 C893 1.495 . S
C897 H903 0.959 . S
C897 H904 0.961 . S
C897 H905 0.960 . S
C898 C896 1.381 . S
C898 C899 1.394 . S
C898 H906 0.930 . S
C899 C898 1.394 . S
C899 C900 1.383 . S
C899 H907 0.929 . S
C900 C899 1.383 . S
C900 C901 1.377 . S
C901 H885 0.930 . S
C901 C900 1.377 . S
C901 C902 1.379 . S
C902 H886 0.931 . S
C902 C896 1.383 . S
C902 C901 1.379 . S
H903 C897 0.959 . S
H904 C897 0.961 . S
H905 C897 0.960 . S
H906 C898 0.930 . S
H907 C899 0.929 . S
H908 C916 0.929 . S
H909 C918 0.930 . S
H910 C920 0.930 . S
H911 C923 0.929 . S
H912 C926 0.930 . S
H913 C928 0.960 . S
H914 C928 0.960 . S
H915 C928 0.960 . S
C916 H908 0.929 . S
C916 C917 1.377 . S
C916 C918 1.384 . S
C917 C916 1.377 . S
C917 C923 1.390 . S
C918 H909 0.930 . S
C918 C916 1.384 . S
C918 C919 1.372 . S
C919 C918 1.372 . S
C919 C920 1.400 . S
C919 C924 1.490 . S
C920 H910 0.930 . S
C920 C919 1.400 . S
C920 C923 1.386 . S
H921 C937 0.930 . S
H922 C938 0.931 . S
C923 H911 0.929 . S
C923 C917 1.390 . S
C923 C920 1.386 . S
C924 C919 1.490 . S
C924 C926 1.395 . S
C924 C927 1.403 . S
H925 C931 0.930 . S
C926 H912 0.930 . S
C926 C924 1.395 . S
C926 C929 1.403 . S
C927 C924 1.403 . S
C927 C928 1.524 . S
C927 C931 1.400 . S
C928 H913 0.960 . S
C928 H914 0.960 . S
C928 H915 0.960 . S
C928 C927 1.524 . S
C929 C926 1.403 . S
C929 C930 1.392 . S
C929 C933 1.495 . S
C930 C929 1.392 . S
C930 C931 1.385 . S
C930 C932 1.478 . S
C931 H925 0.930 . S
C931 C927 1.400 . S
C931 C930 1.385 . S
C932 C930 1.478 . S
C932 C934 1.381 . S
C932 C938 1.383 . S
C933 C929 1.495 . S
C933 H939 0.959 . S
C933 H940 0.961 . S
C933 H941 0.960 . S
C934 C932 1.381 . S
C934 C935 1.394 . S
C934 H942 0.930 . S
C935 C934 1.394 . S
C935 C936 1.383 . S
C935 H943 0.929 . S
C936 C935 1.383 . S
C936 C937 1.377 . S
C937 H921 0.930 . S
C937 C936 1.377 . S
C937 C938 1.379 . S
C938 H922 0.931 . S
C938 C932 1.383 . S
C938 C937 1.379 . S
H939 C933 0.959 . S
H940 C933 0.961 . S
H941 C933 0.960 . S
H942 C934 0.930 . S
H943 C935 0.929 . S
H944 C952 0.929 . S
H945 C954 0.930 . S
H946 C956 0.930 . S
H947 C959 0.929 . S
H948 C962 0.930 . S
H949 C964 0.960 . S
H950 C964 0.960 . S
H951 C964 0.960 . S
C952 H944 0.929 . S
C952 C953 1.377 . S
C952 C954 1.384 . S
C953 C952 1.377 . S
C953 C959 1.390 . S
C954 H945 0.930 . S
C954 C952 1.384 . S
C954 C955 1.372 . S
C955 C954 1.372 . S
C955 C956 1.400 . S
C955 C960 1.490 . S
C956 H946 0.930 . S
C956 C955 1.400 . S
C956 C959 1.386 . S
H957 C973 0.930 . S
H958 C974 0.931 . S
C959 H947 0.929 . S
C959 C953 1.390 . S
C959 C956 1.386 . S
C960 C955 1.490 . S
C960 C962 1.395 . S
C960 C963 1.403 . S
H961 C967 0.930 . S
C962 H948 0.930 . S
C962 C960 1.395 . S
C962 C965 1.403 . S
C963 C960 1.403 . S
C963 C964 1.524 . S
C963 C967 1.400 . S
C964 H949 0.960 . S
C964 H950 0.960 . S
C964 H951 0.960 . S
C964 C963 1.524 . S
C965 C962 1.403 . S
C965 C966 1.392 . S
C965 C969 1.495 . S
C966 C965 1.392 . S
C966 C967 1.385 . S
C966 C968 1.478 . S
C967 H961 0.930 . S
C967 C963 1.400 . S
C967 C966 1.385 . S
C968 C966 1.478 . S
C968 C970 1.381 . S
C968 C974 1.383 . S
C969 C965 1.495 . S
C969 H975 0.959 . S
C969 H976 0.961 . S
C969 H977 0.960 . S
C970 C968 1.381 . S
C970 C971 1.394 . S
C970 H978 0.930 . S
C971 C970 1.394 . S
C971 C972 1.383 . S
C971 H979 0.929 . S
C972 C971 1.383 . S
C972 C973 1.377 . S
C973 H957 0.930 . S
C973 C972 1.377 . S
C973 C974 1.379 . S
C974 H958 0.931 . S
C974 C968 1.383 . S
C974 C973 1.379 . S
H975 C969 0.959 . S
H976 C969 0.961 . S
H977 C969 0.960 . S
H978 C970 0.930 . S
H979 C971 0.929 . S
H980 C988 0.929 . S
H981 C990 0.930 . S
H982 C992 0.930 . S
H983 C995 0.929 . S
H984 C998 0.930 . S
H985 C1000 0.960 . S
H986 C1000 0.960 . S
H987 C1000 0.960 . S
C988 H980 0.929 . S
C988 C989 1.377 . S
C988 C990 1.384 . S
C989 C988 1.377 . S
C989 C995 1.390 . S
C990 H981 0.930 . S
C990 C988 1.384 . S
C990 C991 1.372 . S
C991 C990 1.372 . S
C991 C992 1.400 . S
C991 C996 1.490 . S
C992 H982 0.930 . S
C992 C991 1.400 . S
C992 C995 1.386 . S
H993 C1009 0.930 . S
H994 C1010 0.931 . S
C995 H983 0.929 . S
C995 C989 1.390 . S
C995 C992 1.386 . S
C996 C991 1.490 . S
C996 C998 1.395 . S
C996 C999 1.403 . S
H997 C1003 0.930 . S
C998 H984 0.930 . S
C998 C996 1.395 . S
C998 C1001 1.403 1_556 S
C999 C996 1.403 . S
C999 C1000 1.524 . S
C999 C1003 1.400 1_556 S
C1000 H985 0.960 . S
C1000 H986 0.960 . S
C1000 H987 0.960 . S
C1000 C999 1.524 . S
C1001 C998 1.403 1_554 S
C1001 C1002 1.392 . S
C1001 C1005 1.495 . S
C1002 C1001 1.392 . S
C1002 C1003 1.385 . S
C1002 C1004 1.478 . S
C1003 H997 0.930 . S
C1003 C999 1.400 1_554 S
C1003 C1002 1.385 . S
C1004 C1002 1.478 . S
C1004 C1006 1.381 . S
C1004 C1010 1.383 . S
C1005 C1001 1.495 . S
C1005 H1011 0.959 . S
C1005 H1012 0.961 . S
C1005 H1013 0.960 . S
C1006 C1004 1.381 . S
C1006 C1007 1.394 . S
C1006 H1014 0.930 . S
C1007 C1006 1.394 . S
C1007 C1008 1.383 . S
C1007 H1015 0.929 . S
C1008 C1007 1.383 . S
C1008 C1009 1.377 . S
C1009 H993 0.930 . S
C1009 C1008 1.377 . S
C1009 C1010 1.379 . S
C1010 H994 0.931 . S
C1010 C1004 1.383 . S
C1010 C1009 1.379 . S
H1011 C1005 0.959 . S
H1012 C1005 0.961 . S
H1013 C1005 0.960 . S
H1014 C1006 0.930 . S
H1015 C1007 0.929 . S
H1016 C1024 0.929 . S
H1017 C1026 0.930 . S
H1018 C1028 0.930 . S
H1019 C1031 0.929 . S
H1020 C1034 0.930 . S
H1021 C1036 0.960 . S
H1022 C1036 0.960 . S
H1023 C1036 0.960 . S
C1024 H1016 0.929 . S
C1024 C1025 1.377 . S
C1024 C1026 1.384 . S
C1025 C1024 1.377 . S
C1025 C1031 1.390 . S
C1026 H1017 0.930 . S
C1026 C1024 1.384 . S
C1026 C1027 1.372 . S
C1027 C1026 1.372 . S
C1027 C1028 1.400 . S
C1027 C1032 1.490 . S
C1028 H1018 0.930 . S
C1028 C1027 1.400 . S
C1028 C1031 1.386 . S
H1029 C1045 0.930 . S
H1030 C1046 0.931 . S
C1031 H1019 0.929 . S
C1031 C1025 1.390 . S
C1031 C1028 1.386 . S
C1032 C1027 1.490 . S
C1032 C1034 1.395 . S
C1032 C1035 1.403 . S
H1033 C1039 0.930 . S
C1034 H1020 0.930 . S
C1034 C1032 1.395 . S
C1034 C1037 1.403 . S
C1035 C1032 1.403 . S
C1035 C1036 1.524 . S
C1035 C1039 1.400 . S
C1036 H1021 0.960 . S
C1036 H1022 0.960 . S
C1036 H1023 0.960 . S
C1036 C1035 1.524 . S
C1037 C1034 1.403 . S
C1037 C1038 1.392 . S
C1037 C1041 1.495 . S
C1038 C1037 1.392 . S
C1038 C1039 1.385 . S
C1038 C1040 1.478 . S
C1039 H1033 0.930 . S
C1039 C1035 1.400 . S
C1039 C1038 1.385 . S
C1040 C1038 1.478 . S
C1040 C1042 1.381 . S
C1040 C1046 1.383 . S
C1041 C1037 1.495 . S
C1041 H1047 0.959 . S
C1041 H1048 0.961 . S
C1041 H1049 0.960 . S
C1042 C1040 1.381 . S
C1042 C1043 1.394 . S
C1042 H1050 0.930 . S
C1043 C1042 1.394 . S
C1043 C1044 1.383 . S
C1043 H1051 0.929 . S
C1044 C1043 1.383 . S
C1044 C1045 1.377 . S
C1045 H1029 0.930 . S
C1045 C1044 1.377 . S
C1045 C1046 1.379 . S
C1046 H1030 0.931 . S
C1046 C1040 1.383 . S
C1046 C1045 1.379 . S
H1047 C1041 0.959 . S
H1048 C1041 0.961 . S
H1049 C1041 0.960 . S
H1050 C1042 0.930 . S
H1051 C1043 0.929 . S
H1052 C1060 0.929 . S
H1053 C1062 0.930 . S
H1054 C1064 0.930 . S
H1055 C1067 0.929 . S
H1056 C1070 0.930 . S
H1057 C1072 0.960 . S
H1058 C1072 0.960 . S
H1059 C1072 0.960 . S
C1060 H1052 0.929 . S
C1060 C1061 1.377 . S
C1060 C1062 1.384 . S
C1061 C1060 1.377 . S
C1061 C1067 1.390 . S
C1062 H1053 0.930 . S
C1062 C1060 1.384 . S
C1062 C1063 1.372 . S
C1063 C1062 1.372 . S
C1063 C1064 1.400 . S
C1063 C1068 1.490 . S
C1064 H1054 0.930 . S
C1064 C1063 1.400 . S
C1064 C1067 1.386 . S
H1065 C1081 0.930 . S
H1066 C1082 0.931 . S
C1067 H1055 0.929 . S
C1067 C1061 1.390 . S
C1067 C1064 1.386 . S
C1068 C1063 1.490 . S
C1068 C1070 1.395 . S
C1068 C1071 1.403 . S
H1069 C1075 0.930 . S
C1070 H1056 0.930 . S
C1070 C1068 1.395 . S
C1070 C1073 1.403 1_554 S
C1071 C1068 1.403 . S
C1071 C1072 1.524 . S
C1071 C1075 1.400 1_554 S
C1072 H1057 0.960 . S
C1072 H1058 0.960 . S
C1072 H1059 0.960 . S
C1072 C1071 1.524 . S
C1073 C1070 1.403 1_556 S
C1073 C1074 1.392 . S
C1073 C1077 1.495 . S
C1074 C1073 1.392 . S
C1074 C1075 1.385 . S
C1074 C1076 1.478 . S
C1075 H1069 0.930 . S
C1075 C1071 1.400 1_556 S
C1075 C1074 1.385 . S
C1076 C1074 1.478 . S
C1076 C1078 1.381 . S
C1076 C1082 1.383 . S
C1077 C1073 1.495 . S
C1077 H1083 0.959 . S
C1077 H1084 0.961 . S
C1077 H1085 0.960 . S
C1078 C1076 1.381 . S
C1078 C1079 1.394 . S
C1078 H1086 0.930 . S
C1079 C1078 1.394 . S
C1079 C1080 1.383 . S
C1079 H1087 0.929 . S
C1080 C1079 1.383 . S
C1080 C1081 1.377 . S
C1081 H1065 0.930 . S
C1081 C1080 1.377 . S
C1081 C1082 1.379 . S
C1082 H1066 0.931 . S
C1082 C1076 1.383 . S
C1082 C1081 1.379 . S
H1083 C1077 0.959 . S
H1084 C1077 0.961 . S
H1085 C1077 0.960 . S
H1086 C1078 0.930 . S
H1087 C1079 0.929 . S
H1088 C1096 0.929 . S
H1089 C1098 0.930 . S
H1090 C1100 0.930 . S
H1091 C1103 0.929 . S
H1092 C1106 0.930 . S
H1093 C1108 0.960 . S
H1094 C1108 0.960 . S
H1095 C1108 0.960 . S
C1096 H1088 0.929 . S
C1096 C1097 1.377 . S
C1096 C1098 1.384 . S
C1097 C1096 1.377 . S
C1097 C1103 1.390 . S
C1098 H1089 0.930 . S
C1098 C1096 1.384 . S
C1098 C1099 1.372 . S
C1099 C1098 1.372 . S
C1099 C1100 1.400 . S
C1099 C1104 1.490 . S
C1100 H1090 0.930 . S
C1100 C1099 1.400 . S
C1100 C1103 1.386 . S
H1101 C1117 0.930 . S
H1102 C1118 0.931 . S
C1103 H1091 0.929 . S
C1103 C1097 1.390 . S
C1103 C1100 1.386 . S
C1104 C1099 1.490 . S
C1104 C1106 1.395 . S
C1104 C1107 1.403 . S
H1105 C1111 0.930 . S
C1106 H1092 0.930 . S
C1106 C1104 1.395 . S
C1106 C1109 1.403 . S
C1107 C1104 1.403 . S
C1107 C1108 1.524 . S
C1107 C1111 1.400 . S
C1108 H1093 0.960 . S
C1108 H1094 0.960 . S
C1108 H1095 0.960 . S
C1108 C1107 1.524 . S
C1109 C1106 1.403 . S
C1109 C1110 1.392 . S
C1109 C1113 1.495 . S
C1110 C1109 1.392 . S
C1110 C1111 1.385 . S
C1110 C1112 1.478 . S
C1111 H1105 0.930 . S
C1111 C1107 1.400 . S
C1111 C1110 1.385 . S
C1112 C1110 1.478 . S
C1112 C1114 1.381 . S
C1112 C1118 1.383 . S
C1113 C1109 1.495 . S
C1113 H1119 0.959 . S
C1113 H1120 0.961 . S
C1113 H1121 0.960 . S
C1114 C1112 1.381 . S
C1114 C1115 1.394 . S
C1114 H1122 0.930 . S
C1115 C1114 1.394 . S
C1115 C1116 1.383 . S
C1115 H1123 0.929 . S
C1116 C1115 1.383 . S
C1116 C1117 1.377 . S
C1117 H1101 0.930 . S
C1117 C1116 1.377 . S
C1117 C1118 1.379 . S
C1118 H1102 0.931 . S
C1118 C1112 1.383 . S
C1118 C1117 1.379 . S
H1119 C1113 0.959 . S
H1120 C1113 0.961 . S
H1121 C1113 0.960 . S
H1122 C1114 0.930 . S
H1123 C1115 0.929 . S
H1124 C1132 0.929 . S
H1125 C1134 0.930 . S
H1126 C1136 0.930 . S
H1127 C1139 0.929 . S
H1128 C1142 0.930 . S
H1129 C1144 0.960 . S
H1130 C1144 0.960 . S
H1131 C1144 0.960 . S
C1132 H1124 0.929 . S
C1132 C1133 1.377 . S
C1132 C1134 1.384 . S
C1133 C1132 1.377 . S
C1133 C1139 1.390 . S
C1134 H1125 0.930 . S
C1134 C1132 1.384 . S
C1134 C1135 1.372 . S
C1135 C1134 1.372 . S
C1135 C1136 1.400 . S
C1135 C1140 1.490 . S
C1136 H1126 0.930 . S
C1136 C1135 1.400 . S
C1136 C1139 1.386 . S
H1137 C1153 0.930 . S
H1138 C1154 0.931 . S
C1139 H1127 0.929 . S
C1139 C1133 1.390 . S
C1139 C1136 1.386 . S
C1140 C1135 1.490 . S
C1140 C1142 1.395 . S
C1140 C1143 1.403 . S
H1141 C1147 0.930 . S
C1142 H1128 0.930 . S
C1142 C1140 1.395 . S
C1142 C1145 1.403 . S
C1143 C1140 1.403 . S
C1143 C1144 1.524 . S
C1143 C1147 1.400 . S
C1144 H1129 0.960 . S
C1144 H1130 0.960 . S
C1144 H1131 0.960 . S
C1144 C1143 1.524 . S
C1145 C1142 1.403 . S
C1145 C1146 1.392 . S
C1145 C1149 1.495 . S
C1146 C1145 1.392 . S
C1146 C1147 1.385 . S
C1146 C1148 1.478 . S
C1147 H1141 0.930 . S
C1147 C1143 1.400 . S
C1147 C1146 1.385 . S
C1148 C1146 1.478 . S
C1148 C1150 1.381 . S
C1148 C1154 1.383 . S
C1149 C1145 1.495 . S
C1149 H1155 0.959 . S
C1149 H1156 0.961 . S
C1149 H1157 0.960 . S
C1150 C1148 1.381 . S
C1150 C1151 1.394 . S
C1150 H1158 0.930 . S
C1151 C1150 1.394 . S
C1151 C1152 1.383 . S
C1151 H1159 0.929 . S
C1152 C1151 1.383 . S
C1152 C1153 1.377 . S
C1153 H1137 0.930 . S
C1153 C1152 1.377 . S
C1153 C1154 1.379 . S
C1154 H1138 0.931 . S
C1154 C1148 1.383 . S
C1154 C1153 1.379 . S
H1155 C1149 0.959 . S
H1156 C1149 0.961 . S
H1157 C1149 0.960 . S
H1158 C1150 0.930 . S
H1159 C1151 0.929 . S
H1160 C1168 0.929 . S
H1161 C1170 0.930 . S
H1162 C1172 0.930 . S
H1163 C1175 0.929 . S
H1164 C1178 0.930 . S
H1165 C1180 0.960 . S
H1166 C1180 0.960 . S
H1167 C1180 0.960 . S
C1168 H1160 0.929 . S
C1168 C1169 1.377 . S
C1168 C1170 1.384 . S
C1169 C1168 1.377 . S
C1169 C1175 1.390 . S
C1170 H1161 0.930 . S
C1170 C1168 1.384 . S
C1170 C1171 1.372 . S
C1171 C1170 1.372 . S
C1171 C1172 1.400 . S
C1171 C1176 1.490 . S
C1172 H1162 0.930 . S
C1172 C1171 1.400 . S
C1172 C1175 1.386 . S
H1173 C1189 0.930 . S
H1174 C1190 0.931 . S
C1175 H1163 0.929 . S
C1175 C1169 1.390 . S
C1175 C1172 1.386 . S
C1176 C1171 1.490 . S
C1176 C1178 1.395 . S
C1176 C1179 1.403 . S
H1177 C1183 0.930 . S
C1178 H1164 0.930 . S
C1178 C1176 1.395 . S
C1178 C1181 1.403 . S
C1179 C1176 1.403 . S
C1179 C1180 1.524 . S
C1179 C1183 1.400 . S
C1180 H1165 0.960 . S
C1180 H1166 0.960 . S
C1180 H1167 0.960 . S
C1180 C1179 1.524 . S
C1181 C1178 1.403 . S
C1181 C1182 1.392 . S
C1181 C1185 1.495 . S
C1182 C1181 1.392 . S
C1182 C1183 1.385 . S
C1182 C1184 1.478 . S
C1183 H1177 0.930 . S
C1183 C1179 1.400 . S
C1183 C1182 1.385 . S
C1184 C1182 1.478 . S
C1184 C1186 1.381 . S
C1184 C1190 1.383 . S
C1185 C1181 1.495 . S
C1185 H1191 0.959 . S
C1185 H1192 0.961 . S
C1185 H1193 0.960 . S
C1186 C1184 1.381 . S
C1186 C1187 1.394 . S
C1186 H1194 0.930 . S
C1187 C1186 1.394 . S
C1187 C1188 1.383 . S
C1187 H1195 0.929 . S
C1188 C1187 1.383 . S
C1188 C1189 1.377 . S
C1189 H1173 0.930 . S
C1189 C1188 1.377 . S
C1189 C1190 1.379 . S
C1190 H1174 0.931 . S
C1190 C1184 1.383 . S
C1190 C1189 1.379 . S
H1191 C1185 0.959 . S
H1192 C1185 0.961 . S
H1193 C1185 0.960 . S
H1194 C1186 0.930 . S
H1195 C1187 0.929 . S
H1196 C1204 0.929 . S
H1197 C1206 0.930 . S
H1198 C1208 0.930 . S
H1199 C1211 0.929 . S
H1200 C1214 0.930 . S
H1201 C1216 0.960 . S
H1202 C1216 0.960 . S
H1203 C1216 0.960 . S
C1204 H1196 0.929 . S
C1204 C1205 1.377 . S
C1204 C1206 1.384 . S
C1205 C1204 1.377 . S
C1205 C1211 1.390 . S
C1206 H1197 0.930 . S
C1206 C1204 1.384 . S
C1206 C1207 1.372 . S
C1207 C1206 1.372 . S
C1207 C1208 1.400 . S
C1207 C1212 1.490 . S
C1208 H1198 0.930 . S
C1208 C1207 1.400 . S
C1208 C1211 1.386 . S
H1209 C1225 0.930 . S
H1210 C1226 0.931 . S
C1211 H1199 0.929 . S
C1211 C1205 1.390 . S
C1211 C1208 1.386 . S
C1212 C1207 1.490 . S
C1212 C1214 1.395 . S
C1212 C1215 1.403 . S
H1213 C1219 0.930 . S
C1214 H1200 0.930 . S
C1214 C1212 1.395 . S
C1214 C1217 1.403 . S
C1215 C1212 1.403 . S
C1215 C1216 1.524 . S
C1215 C1219 1.400 . S
C1216 H1201 0.960 . S
C1216 H1202 0.960 . S
C1216 H1203 0.960 . S
C1216 C1215 1.524 . S
C1217 C1214 1.403 . S
C1217 C1218 1.392 . S
C1217 C1221 1.495 . S
C1218 C1217 1.392 . S
C1218 C1219 1.385 . S
C1218 C1220 1.478 . S
C1219 H1213 0.930 . S
C1219 C1215 1.400 . S
C1219 C1218 1.385 . S
C1220 C1218 1.478 . S
C1220 C1222 1.381 . S
C1220 C1226 1.383 . S
C1221 C1217 1.495 . S
C1221 H1227 0.959 . S
C1221 H1228 0.961 . S
C1221 H1229 0.960 . S
C1222 C1220 1.381 . S
C1222 C1223 1.394 . S
C1222 H1230 0.930 . S
C1223 C1222 1.394 . S
C1223 C1224 1.383 . S
C1223 H1231 0.929 . S
C1224 C1223 1.383 . S
C1224 C1225 1.377 . S
C1225 H1209 0.930 . S
C1225 C1224 1.377 . S
C1225 C1226 1.379 . S
C1226 H1210 0.931 . S
C1226 C1220 1.383 . S
C1226 C1225 1.379 . S
H1227 C1221 0.959 . S
H1228 C1221 0.961 . S
H1229 C1221 0.960 . S
H1230 C1222 0.930 . S
H1231 C1223 0.929 . S
H1232 C1240 0.929 . S
H1233 C1242 0.930 . S
H1234 C1244 0.930 . S
H1235 C1247 0.929 . S
H1236 C1250 0.930 . S
H1237 C1252 0.960 . S
H1238 C1252 0.960 . S
H1239 C1252 0.960 . S
C1240 H1232 0.929 . S
C1240 C1241 1.377 . S
C1240 C1242 1.384 . S
C1241 C1240 1.377 . S
C1241 C1247 1.390 . S
C1242 H1233 0.930 . S
C1242 C1240 1.384 . S
C1242 C1243 1.372 . S
C1243 C1242 1.372 . S
C1243 C1244 1.400 . S
C1243 C1248 1.490 . S
C1244 H1234 0.930 . S
C1244 C1243 1.400 . S
C1244 C1247 1.386 . S
H1245 C1261 0.930 . S
H1246 C1262 0.931 . S
C1247 H1235 0.929 . S
C1247 C1241 1.390 . S
C1247 C1244 1.386 . S
C1248 C1243 1.490 . S
C1248 C1250 1.395 . S
C1248 C1251 1.403 . S
H1249 C1255 0.930 . S
C1250 H1236 0.930 . S
C1250 C1248 1.395 . S
C1250 C1253 1.403 . S
C1251 C1248 1.403 . S
C1251 C1252 1.524 . S
C1251 C1255 1.400 . S
C1252 H1237 0.960 . S
C1252 H1238 0.960 . S
C1252 H1239 0.960 . S
C1252 C1251 1.524 . S
C1253 C1250 1.403 . S
C1253 C1254 1.392 . S
C1253 C1257 1.495 . S
C1254 C1253 1.392 . S
C1254 C1255 1.385 . S
C1254 C1256 1.478 . S
C1255 H1249 0.930 . S
C1255 C1251 1.400 . S
C1255 C1254 1.385 . S
C1256 C1254 1.478 . S
C1256 C1258 1.381 . S
C1256 C1262 1.383 . S
C1257 C1253 1.495 . S
C1257 H1263 0.959 . S
C1257 H1264 0.961 . S
C1257 H1265 0.960 . S
C1258 C1256 1.381 . S
C1258 C1259 1.394 . S
C1258 H1266 0.930 . S
C1259 C1258 1.394 . S
C1259 C1260 1.383 . S
C1259 H1267 0.929 . S
C1260 C1259 1.383 . S
C1260 C1261 1.377 . S
C1261 H1245 0.930 . S
C1261 C1260 1.377 . S
C1261 C1262 1.379 . S
C1262 H1246 0.931 . S
C1262 C1256 1.383 . S
C1262 C1261 1.379 . S
H1263 C1257 0.959 . S
H1264 C1257 0.961 . S
H1265 C1257 0.960 . S
H1266 C1258 0.930 . S
H1267 C1259 0.929 . S
H1268 C1276 0.929 . S
H1269 C1278 0.930 . S
H1270 C1280 0.930 . S
H1271 C1283 0.929 . S
H1272 C1286 0.930 . S
H1273 C1288 0.960 . S
H1274 C1288 0.960 . S
H1275 C1288 0.960 . S
C1276 H1268 0.929 . S
C1276 C1277 1.377 . S
C1276 C1278 1.384 . S
C1277 C1276 1.377 . S
C1277 C1283 1.390 . S
C1278 H1269 0.930 . S
C1278 C1276 1.384 . S
C1278 C1279 1.372 . S
C1279 C1278 1.372 . S
C1279 C1280 1.400 . S
C1279 C1284 1.490 . S
C1280 H1270 0.930 . S
C1280 C1279 1.400 . S
C1280 C1283 1.386 . S
H1281 C1297 0.930 . S
H1282 C1298 0.931 . S
C1283 H1271 0.929 . S
C1283 C1277 1.390 . S
C1283 C1280 1.386 . S
C1284 C1279 1.490 . S
C1284 C1286 1.395 . S
C1284 C1287 1.403 . S
H1285 C1291 0.930 . S
C1286 H1272 0.930 . S
C1286 C1284 1.395 . S
C1286 C1289 1.403 . S
C1287 C1284 1.403 . S
C1287 C1288 1.524 . S
C1287 C1291 1.400 . S
C1288 H1273 0.960 . S
C1288 H1274 0.960 . S
C1288 H1275 0.960 . S
C1288 C1287 1.524 . S
C1289 C1286 1.403 . S
C1289 C1290 1.392 . S
C1289 C1293 1.495 . S
C1290 C1289 1.392 . S
C1290 C1291 1.385 . S
C1290 C1292 1.478 . S
C1291 H1285 0.930 . S
C1291 C1287 1.400 . S
C1291 C1290 1.385 . S
C1292 C1290 1.478 . S
C1292 C1294 1.381 . S
C1292 C1298 1.383 . S
C1293 C1289 1.495 . S
C1293 H1299 0.959 . S
C1293 H1300 0.961 . S
C1293 H1301 0.960 . S
C1294 C1292 1.381 . S
C1294 C1295 1.394 . S
C1294 H1302 0.930 . S
C1295 C1294 1.394 . S
C1295 C1296 1.383 . S
C1295 H1303 0.929 . S
C1296 C1295 1.383 . S
C1296 C1297 1.377 . S
C1297 H1281 0.930 . S
C1297 C1296 1.377 . S
C1297 C1298 1.379 . S
C1298 H1282 0.931 . S
C1298 C1292 1.383 . S
C1298 C1297 1.379 . S
H1299 C1293 0.959 . S
H1300 C1293 0.961 . S
H1301 C1293 0.960 . S
H1302 C1294 0.930 . S
H1303 C1295 0.929 . S
H1304 C1312 0.929 . S
H1305 C1314 0.930 . S
H1306 C1316 0.930 . S
H1307 C1319 0.929 . S
H1308 C1322 0.930 . S
H1309 C1324 0.960 . S
H1310 C1324 0.960 . S
H1311 C1324 0.960 . S
C1312 H1304 0.929 . S
C1312 C1313 1.377 . S
C1312 C1314 1.384 . S
C1313 C1312 1.377 . S
C1313 C1319 1.390 . S
C1314 H1305 0.930 . S
C1314 C1312 1.384 . S
C1314 C1315 1.372 . S
C1315 C1314 1.372 . S
C1315 C1316 1.400 . S
C1315 C1320 1.490 . S
C1316 H1306 0.930 . S
C1316 C1315 1.400 . S
C1316 C1319 1.386 . S
H1317 C1333 0.930 . S
H1318 C1334 0.931 . S
C1319 H1307 0.929 . S
C1319 C1313 1.390 . S
C1319 C1316 1.386 . S
C1320 C1315 1.490 . S
C1320 C1322 1.395 . S
C1320 C1323 1.403 . S
H1321 C1327 0.930 . S
C1322 H1308 0.930 . S
C1322 C1320 1.395 . S
C1322 C1325 1.403 . S
C1323 C1320 1.403 . S
C1323 C1324 1.524 . S
C1323 C1327 1.400 . S
C1324 H1309 0.960 . S
C1324 H1310 0.960 . S
C1324 H1311 0.960 . S
C1324 C1323 1.524 . S
C1325 C1322 1.403 . S
C1325 C1326 1.392 . S
C1325 C1329 1.495 . S
C1326 C1325 1.392 . S
C1326 C1327 1.385 . S
C1326 C1328 1.478 . S
C1327 H1321 0.930 . S
C1327 C1323 1.400 . S
C1327 C1326 1.385 . S
C1328 C1326 1.478 . S
C1328 C1330 1.381 . S
C1328 C1334 1.383 . S
C1329 C1325 1.495 . S
C1329 H1335 0.959 . S
C1329 H1336 0.961 . S
C1329 H1337 0.960 . S
C1330 C1328 1.381 . S
C1330 C1331 1.394 . S
C1330 H1338 0.930 . S
C1331 C1330 1.394 . S
C1331 C1332 1.383 . S
C1331 H1339 0.929 . S
C1332 C1331 1.383 . S
C1332 C1333 1.377 . S
C1333 H1317 0.930 . S
C1333 C1332 1.377 . S
C1333 C1334 1.379 . S
C1334 H1318 0.931 . S
C1334 C1328 1.383 . S
C1334 C1333 1.379 . S
H1335 C1329 0.959 . S
H1336 C1329 0.961 . S
H1337 C1329 0.960 . S
H1338 C1330 0.930 . S
H1339 C1331 0.929 . S
H1340 C1348 0.929 . S
H1341 C1350 0.930 . S
H1342 C1352 0.930 . S
H1343 C1355 0.929 . S
H1344 C1358 0.930 . S
H1345 C1360 0.960 . S
H1346 C1360 0.960 . S
H1347 C1360 0.960 . S
C1348 H1340 0.929 . S
C1348 C1349 1.377 . S
C1348 C1350 1.384 . S
C1349 C1348 1.377 . S
C1349 C1355 1.390 . S
C1350 H1341 0.930 . S
C1350 C1348 1.384 . S
C1350 C1351 1.372 . S
C1351 C1350 1.372 . S
C1351 C1352 1.400 . S
C1351 C1356 1.490 . S
C1352 H1342 0.930 . S
C1352 C1351 1.400 . S
C1352 C1355 1.386 . S
H1353 C1369 0.930 . S
H1354 C1370 0.931 . S
C1355 H1343 0.929 . S
C1355 C1349 1.390 . S
C1355 C1352 1.386 . S
C1356 C1351 1.490 . S
C1356 C1358 1.395 . S
C1356 C1359 1.403 . S
H1357 C1363 0.930 . S
C1358 H1344 0.930 . S
C1358 C1356 1.395 . S
C1358 C1361 1.403 . S
C1359 C1356 1.403 . S
C1359 C1360 1.524 . S
C1359 C1363 1.400 . S
C1360 H1345 0.960 . S
C1360 H1346 0.960 . S
C1360 H1347 0.960 . S
C1360 C1359 1.524 . S
C1361 C1358 1.403 . S
C1361 C1362 1.392 . S
C1361 C1365 1.495 . S
C1362 C1361 1.392 . S
C1362 C1363 1.385 . S
C1362 C1364 1.478 . S
C1363 H1357 0.930 . S
C1363 C1359 1.400 . S
C1363 C1362 1.385 . S
C1364 C1362 1.478 . S
C1364 C1366 1.381 . S
C1364 C1370 1.383 . S
C1365 C1361 1.495 . S
C1365 H1371 0.959 . S
C1365 H1372 0.961 . S
C1365 H1373 0.960 . S
C1366 C1364 1.381 . S
C1366 C1367 1.394 . S
C1366 H1374 0.930 . S
C1367 C1366 1.394 . S
C1367 C1368 1.383 . S
C1367 H1375 0.929 . S
C1368 C1367 1.383 . S
C1368 C1369 1.377 . S
C1369 H1353 0.930 . S
C1369 C1368 1.377 . S
C1369 C1370 1.379 . S
C1370 H1354 0.931 . S
C1370 C1364 1.383 . S
C1370 C1369 1.379 . S
H1371 C1365 0.959 . S
H1372 C1365 0.961 . S
H1373 C1365 0.960 . S
H1374 C1366 0.930 . S
H1375 C1367 0.929 . S
C233 C5 1.313 . S
C252 C33 1.321 . S
C269 C47 1.312 . S
C288 C19 1.321 . S
C305 C61 1.309 . S
C324 C89 1.295 . S
C341 C103 1.310 . S
C360 C75 1.296 . S
C377 C117 1.311 . S
C396 C145 1.296 . S
C413 C159 1.308 . S
C432 C131 1.300 . S
C449 C173 1.313 . S
C468 C201 1.300 . S
C485 C215 1.311 . S
C504 C187 1.321 . S
C521 C56 1.168 . S
C540 C0 1.159 . S
C557 C14 1.175 . S
C576 C70 1.144 . S
C593 C28 1.174 . S
C612 C84 1.160 . S
C629 C98 1.175 . S
C648 C42 1.152 . S
C665 C112 1.164 . S
C684 C168 1.141 . S
C701 C126 1.169 . S
C720 C182 1.155 . S
C737 C140 1.175 . S
C756 C196 1.188 . S
C773 C154 1.164 . S
C792 C210 1.140 . S
C809 C149 1.091 . S
C828 C9 1.094 . S
C845 C163 1.082 . S
C864 C23 1.071 . S
C881 C37 1.093 . S
C900 C121 1.058 . S
C917 C51 1.084 . S
C936 C135 1.061 . S
C953 C65 1.086 . S
C972 C205 1.055 . S
C989 C79 1.086 . S
C1008 C219 1.055 . S
C1025 C93 1.079 . S
C1044 C177 1.100 . S
C1061 C191 1.084 . S
C1080 C107 1.062 . S
C1097 C11 1.327 . S
C1116 C221 1.323 . S
C1133 C179 1.325 . S
C1152 C25 1.324 . S
C1169 C39 1.325 . S
C1188 C193 1.327 . S
C1205 C207 1.326 . S
C1224 C53 1.328 . S
C1241 C137 1.327 . S
C1260 C67 1.320 . S
C1277 C81 1.326 . S
C1296 C151 1.322 . S
C1313 C165 1.325 . S
C1332 C95 1.323 . S
C1349 C123 1.327 . S
C1368 C109 1.326 . S
