# Generated by pormake.
# Topology qtz-x, (6)-cn, num edge types: 1
# Building blocks:
#     Node 0, Type 0, BuildingBlock: PAMTOO_clean_sbu_0, # of connection points: 6
#     Node 1, Type 0, BuildingBlock: PAMTOO_clean_sbu_0, # of connection points: 6
#     Node 2, Type 0, BuildingBlock: PAMTOO_clean_sbu_0, # of connection points: 6
#     Edge 3, Type (0, 0), BuildingBlock: KIFKEQ_clean_linker_1, # of connection points: 2
#     Edge 4, Type (0, 0), BuildingBlock: KIFKEQ_clean_linker_1, # of connection points: 2
#     Edge 5, Type (0, 0), BuildingBlock: KIFKEQ_clean_linker_1, # of connection points: 2
#     Edge 6, Type (0, 0), BuildingBlock: KIFKEQ_clean_linker_1, # of connection points: 2
#     Edge 7, Type (0, 0), BuildingBlock: KIFKEQ_clean_linker_1, # of connection points: 2
#     Edge 8, Type (0, 0), BuildingBlock: KIFKEQ_clean_linker_1, # of connection points: 2
#     Edge 9, Type (0, 0), BuildingBlock: KIFKEQ_clean_linker_1, # of connection points: 2
#     Edge 10, Type (0, 0), BuildingBlock: KIFKEQ_clean_linker_1, # of connection points: 2
#     Edge 11, Type (0, 0), BuildingBlock: KIFKEQ_clean_linker_1, # of connection points: 2
# Relax obj value: 0.128
# Max RMSD: 0.232
# Mean RMSD: 0.232
data_MOF--net-qtz-x--node1-PAMTOO_clean_sbu_0--edge1-KIFKEQ_clean_linker_1
_symmetry_space_group_name_H-M    P1
_symmetry_Int_Tables_number       1
_symmetry_cell_setting            triclinic
loop_
_symmetry_equiv_pos_as_xyz
'x, y, z'
_cell_length_a     15.46153
_cell_length_b     15.461264
_cell_length_c     54.911911
_cell_angle_alpha  89.957807
_cell_angle_beta   90.009498
_cell_angle_gamma 120.24308
loop_
_atom_site_label
_atom_site_type_symbol
_atom_site_fract_x
_atom_site_fract_y
_atom_site_fract_z
_atom_type_partial_charge
Dy0 Dy 0.09435 0.67869 0.16746 0.0
Dy1 Dy 0.86964 0.56336 0.19275 0.0
C2 C 0.98338 0.7954 0.18131 0.0
O3 O 0.12865 0.67218 0.20689 0.0
O4 O 0.97739 0.63923 0.22308 0.0
O5 O 0.20482 0.80298 0.1462 0.0
O6 O 0.22988 0.6819 0.15597 0.0
O7 O 0.93776 0.46753 0.19794 0.0
O8 O 0.02841 0.51366 0.16287 0.0
O9 O 0.84054 0.52129 0.15327 0.0
O10 O 0.98403 0.65576 0.13844 0.0
O11 O 0.73186 0.42894 0.20246 0.0
O12 O 0.75756 0.57388 0.21391 0.0
C13 C 0.07142 0.6632 0.22562 0.0
O14 O 0.06814 0.79588 0.18357 0.0
O15 O 0.89838 0.71099 0.17853 0.0
C16 C 0.27316 0.74729 0.11624 0.0
C17 C 0.29905 0.72364 0.06621 0.0
C18 C 0.20382 0.67021 0.07708 0.0
C19 C 0.19117 0.68168 0.10181 0.0
C20 C 0.36818 0.80153 0.10558 0.0
C21 C 0.38113 0.78978 0.08076 0.0
C22 C 0.25769 0.76026 0.14214 0.0
C23 C 0.98378 0.44888 0.1805 0.0
C24 C 0.89408 0.57859 0.13505 0.0
C25 C 0.68383 0.44358 0.24231 0.0
C26 C 0.6551 0.39489 0.29236 0.0
C27 C 0.74434 0.41526 0.28067 0.0
C28 C 0.75836 0.43901 0.25589 0.0
C29 C 0.59437 0.42267 0.25377 0.0
C30 C 0.57982 0.39796 0.27858 0.0
C31 C 0.70324 0.47722 0.21678 0.0
H32 H 0.13864 0.61995 0.06643 0.0
H33 H 0.11705 0.63939 0.10969 0.0
H34 H 0.43227 0.85271 0.11642 0.0
H35 H 0.45564 0.83123 0.07306 0.0
H36 H 0.80318 0.41214 0.29064 0.0
H37 H 0.82804 0.45499 0.24734 0.0
H38 H 0.53644 0.42682 0.24364 0.0
H39 H 0.51053 0.38329 0.2871 0.0
Dy40 Dy 0.47433 0.96845 0.50071 0.0
Dy41 Dy 0.58916 0.1924 0.5261 0.0
C42 C 0.70546 0.08113 0.51261 0.0
O43 O 0.4289 0.93877 0.53992 0.0
O44 O 0.56222 0.08165 0.55549 0.0
O45 O 0.48556 0.85263 0.48159 0.0
O46 O 0.33973 0.83398 0.48914 0.0
O47 O 0.42444 0.12795 0.53067 0.0
O48 O 0.378 0.0363 0.49573 0.0
O49 O 0.58052 0.22544 0.48662 0.0
O50 O 0.55242 0.07595 0.47046 0.0
O51 O 0.59487 0.32965 0.53699 0.0
O52 O 0.71403 0.30224 0.54725 0.0
C53 C 0.48469 0.99139 0.5584 0.0
O54 O 0.62085 -0.00345 0.51555 0.0
O55 O 0.70606 0.16576 0.51001 0.0
C56 C 0.36311 0.78148 0.45042 0.0
C57 C 0.30728 0.75258 0.40074 0.0
C58 C 0.40808 0.81319 0.40745 0.0
C59 C 0.4357 0.82793 0.43201 0.0
C60 C 0.26273 0.71883 0.44369 0.0
C61 C 0.23499 0.70483 0.41911 0.0
C62 C 0.3902 0.80276 0.4765 0.0
C63 C 0.35938 0.08249 0.51316 0.0
C64 C 0.57364 0.16911 0.46788 0.0
C65 C 0.66256 0.3773 0.57643 0.0
C66 C 0.64615 0.41186 0.62629 0.0
C67 C 0.58322 0.31722 0.61589 0.0
C68 C 0.5914 0.30015 0.59123 0.0
C69 C 0.72556 0.47175 0.58661 0.0
C70 C 0.71736 0.48903 0.61132 0.0
C71 C 0.67338 0.35737 0.55074 0.0
H72 H 0.46524 0.85178 0.39372 0.0
H73 H 0.51372 0.87752 0.43652 0.0
H74 H 0.2054 0.68223 0.45748 0.0
H75 H 0.15681 0.65693 0.41446 0.0
H76 H 0.5266 0.25652 0.62673 0.0
H77 H 0.54225 0.2265 0.58369 0.0
H78 H 0.78154 0.53186 0.57551 0.0
H79 H 0.76772 0.56245 0.61878 0.0
Dy80 Dy 0.39933 0.60808 0.83345 0.0
Dy81 Dy 0.50991 0.49526 0.85874 0.0
C82 C 0.28257 0.37768 0.84522 0.0
O83 O 0.41257 0.65195 0.87279 0.0
O84 O 0.42684 0.52157 0.88829 0.0
O85 O 0.26948 0.59465 0.81525 0.0
O86 O 0.39903 0.74124 0.82107 0.0
O87 O 0.60809 0.6601 0.86403 0.0
O88 O 0.56452 0.70541 0.82869 0.0
O89 O 0.55353 0.50678 0.81945 0.0
O90 O 0.43007 0.53104 0.80312 0.0
O91 O 0.64125 0.4872 0.86845 0.0
O92 O 0.49445 0.37188 0.88055 0.0
C93 C 0.41121 0.59693 0.89127 0.0
O94 O 0.28252 0.46143 0.84891 0.0
O95 O 0.36693 0.37854 0.8419 0.0
C96 C 0.3161 0.7117 0.78325 0.0
C97 C 0.3364 0.76136 0.73326 0.0
C98 C 0.33053 0.67211 0.7411 0.0
C99 C 0.31963 0.64719 0.76579 0.0
C100 C 0.31975 0.79995 0.77547 0.0
C101 C 0.32905 0.82428 0.75062 0.0
C102 C 0.31444 0.68935 0.80947 0.0
C103 C 0.62865 0.72469 0.84637 0.0
C104 C 0.50346 0.51192 0.80064 0.0
C105 C 0.627 0.42191 0.90857 0.0
C106 C 0.68343 0.4432 0.9582 0.0
C107 C 0.73249 0.52419 0.94198 0.0
C108 C 0.70437 0.51386 0.91747 0.0
C109 C 0.57943 0.34038 0.92465 0.0
C110 C 0.60693 0.351 0.94924 0.0
C111 C 0.59097 0.4114 0.88312 0.0
H112 H 0.3348 0.62167 0.7281 0.0
H113 H 0.3153 0.57791 0.77128 0.0
H114 H 0.31725 0.85083 0.78862 0.0
H115 H 0.33381 0.89378 0.74506 0.0
H116 H 0.791 0.59648 0.94838 0.0
H117 H 0.74211 0.57853 0.90565 0.0
H118 H 0.5196 0.26871 0.91828 0.0
H119 H 0.56844 0.287 0.96123 0.0
H120 H 0.82234 0.8232 0.18364 0.0
H121 H 0.14544 0.98502 0.17912 0.0
H122 H 0.82307 0.98138 0.18337 0.0
H123 H 0.14582 0.14309 0.17894 0.0
H124 H 0.09129 0.39429 0.15112 0.0
H125 H 0.09142 0.23638 0.15142 0.0
H126 H 0.87809 0.12983 0.21051 0.0
H127 H 0.87747 0.28725 0.21023 0.0
C128 C 0.89352 0.89242 0.18261 0.0
C129 C 0.98383 0.89142 0.1814 0.0
C130 C 0.89389 0.98303 0.18258 0.0
C131 C 0.9845 0.0746 0.18113 0.0
C132 C 0.07479 0.07366 0.17984 0.0
C133 C 0.07452 0.98308 0.1801 0.0
C134 C 0.04436 0.33719 0.16417 0.0
C135 C 0.98432 0.35337 0.18064 0.0
C136 C 0.0449 0.247 0.16442 0.0
C137 C 0.98472 0.17075 0.18098 0.0
C138 C 0.92449 0.18683 0.19738 0.0
C139 C 0.92461 0.27728 0.19729 0.0
H140 H 0.3052 0.19085 0.54232 0.0
H141 H 0.19674 0.97415 0.48389 0.0
H142 H 0.14698 0.19027 0.54221 0.0
H143 H 0.03894 0.97409 0.48378 0.0
H144 H 0.73291 0.91974 0.51089 0.0
H145 H 0.89108 0.92032 0.51116 0.0
H146 H 0.05306 0.24328 0.51457 0.0
H147 H 0.8951 0.24303 0.5144 0.0
C148 C 0.24772 0.14313 0.52946 0.0
C149 C 0.26364 0.08256 0.51311 0.0
C150 C 0.15733 0.14326 0.52931 0.0
C151 C 0.08059 0.08212 0.51299 0.0
C152 C 0.09634 0.02125 0.49673 0.0
C153 C 0.18701 0.02179 0.49671 0.0
C154 C 0.80221 0.99091 0.51171 0.0
C155 C 0.80134 0.08133 0.51262 0.0
C156 C 0.89279 0.9912 0.51174 0.0
C157 C 0.98442 0.08184 0.51289 0.0
C158 C 0.98358 0.17223 0.5139 0.0
C159 C 0.89306 0.17202 0.51365 0.0
H160 H 0.72873 0.83977 0.80712 0.0
H161 H 0.74621 0.82415 0.88539 0.0
H162 H 0.88917 -0.00257 0.80693 0.0
H163 H 0.90527 0.98348 0.88514 0.0
H164 H 0.10958 0.3346 0.86844 0.0
H165 H 0.95156 0.17451 0.86909 0.0
H166 H 0.08095 0.0448 0.82255 0.0
H167 H 0.24021 0.20395 0.82242 0.0
C168 C 0.76661 0.87028 0.82426 0.0
C169 C 0.72516 0.81986 0.84628 0.0
C170 C 0.85834 0.96002 0.82411 0.0
C171 C 0.90889 0.00202 0.84601 0.0
C172 C 0.8672 0.95233 0.86805 0.0
C173 C 0.77665 0.86129 0.86816 0.0
C174 C 0.1043 0.27189 0.85837 0.0
C175 C 0.18703 0.28153 0.84538 0.0
C176 C 0.01424 0.18049 0.85885 0.0
C177 C 0.0047 0.09798 0.84587 0.0
C178 C 0.08684 0.10774 0.83264 0.0
C179 C 0.17771 0.19844 0.83265 0.0
H180 H 0.38607 0.7521 0.9073 0.0
H181 H 0.39294 0.49053 0.93243 0.0
H182 H 0.35626 0.78556 0.94919 0.0
H183 H 0.36493 0.52469 0.9738 0.0
H184 H 0.21066 0.54758 0.04084 0.0
H185 H 0.2323 0.52056 0.99822 0.0
H186 H 0.44221 0.83646 0.98944 0.0
H187 H 0.41766 0.86436 0.03211 0.0
C188 C 0.38106 0.70172 0.92166 0.0
C189 C 0.3914 0.61834 0.91639 0.0
C190 C 0.36462 0.72125 0.94567 0.0
C191 C 0.35756 0.65741 0.96483 0.0
C192 C 0.36813 0.57441 0.95947 0.0
C193 C 0.3848 0.55518 0.93565 0.0
C194 C 0.26043 0.6117 0.02981 0.0
C195 C 0.31247 0.7082 0.03999 0.0
C196 C 0.27366 0.596 1.00539 0.0
C197 C 0.33951 0.67624 0.99042 0.0
C198 C 0.39044 0.77313 1.00042 0.0
C199 C 0.3773 0.78889 0.02495 0.0
H200 H 0.65233 0.36486 0.45267 0.0
H201 H 0.52328 0.06195 0.42577 0.0
H202 H 0.67008 0.42554 0.4106 0.0
H203 H 0.54103 0.12228 0.38428 0.0
H204 H 0.48812 0.24673 0.31487 0.0
H205 H 0.46715 0.19902 0.35778 0.0
H206 H 0.76885 0.43644 0.37249 0.0
H207 H 0.78944 0.48532 0.32955 0.0
C208 C 0.62786 0.31137 0.43788 0.0
C209 C 0.58676 0.20865 0.44266 0.0
C210 C 0.6383 0.3461 0.41381 0.0
C211 C 0.60632 0.27857 0.39414 0.0
C212 C 0.56511 0.17611 0.39901 0.0
C213 C 0.55581 0.14169 0.42288 0.0
C214 C 0.54951 0.28963 0.3273 0.0
C215 C 0.6406 0.36942 0.31876 0.0
C216 C 0.53779 0.26184 0.35185 0.0
C217 C 0.61658 0.31363 0.3685 0.0
C218 C 0.70663 0.39544 0.36014 0.0
C219 C 0.71869 0.42272 0.33552 0.0
H220 H 0.47878 0.76377 0.70369 0.0
H221 H 0.2347 0.82385 0.70403 0.0
H222 H 0.51145 0.81355 0.66086 0.0
H223 H 0.26675 0.87253 0.66093 0.0
H224 H 0.30403 0.84424 0.57626 0.0
H225 H 0.26413 0.78485 0.61851 0.0
H226 H 0.57118 0.98602 0.63907 0.0
H227 H 0.61082 0.04658 0.59724 0.0
C228 C 0.43165 0.78688 0.69452 0.0
C229 C 0.35429 0.79013 0.70716 0.0
C230 C 0.45059 0.81566 0.67008 0.0
C231 C 0.39147 0.84662 0.65763 0.0
C232 C 0.3129 0.84823 0.67009 0.0
C233 C 0.29511 0.8212 0.69473 0.0
C234 C 0.36303 0.87512 0.58979 0.0
C235 C 0.4606 0.94985 0.5834 0.0
C236 C 0.34003 0.84169 0.61394 0.0
C237 C 0.41468 0.88089 0.63198 0.0
C238 C 0.51243 0.95412 0.62548 0.0
C239 C 0.53494 0.98887 0.60153 0.0
H240 H 0.87101 0.53509 0.97793 0.0
H241 H 0.55829 0.37997 0.99775 0.0
H242 H 0.91722 0.56279 0.02079 0.0
H243 H 0.60423 0.40961 0.04078 0.0
H244 H 0.73031 0.40817 0.11722 0.0
H245 H 0.67735 0.36977 0.07466 0.0
H246 H 0.91689 0.66258 0.05341 0.0
H247 H 0.97099 0.6994 0.09538 0.0
C248 C 0.81211 0.50741 0.99148 0.0
C249 C 0.71106 0.45588 0.98444 0.0
C250 C 0.83848 0.52354 0.01609 0.0
C251 C 0.76448 0.48953 0.03434 0.0
C252 C 0.66324 0.43605 0.02729 0.0
C253 C 0.63686 0.41919 1.00262 0.0
C254 C 0.77104 0.4644 0.10343 0.0
C255 C 0.85512 0.55661 0.10975 0.0
C256 C 0.74066 0.44252 0.07903 0.0
C257 C 0.79353 0.51259 0.06048 0.0
C258 C 0.87577 0.6057 0.06703 0.0
C259 C 0.90633 0.62719 0.09124 0.0
H260 H 0.96427 0.60957 0.26769 0.0
H261 H 0.26802 0.74982 0.24086 0.0
H262 H 0.02414 0.63023 0.30904 0.0
H263 H 0.32933 0.77554 0.28289 0.0
H264 H 0.39302 0.71453 0.36155 0.0
H265 H 0.34048 0.69481 0.31893 0.0
H266 H 0.10397 0.75319 0.33875 0.0
H267 H 0.15451 0.76921 0.38119 0.0
C268 C 0.04426 0.64586 0.27059 0.0
C269 C 0.11129 0.67835 0.25083 0.0
C270 C 0.07884 0.65859 0.29448 0.0
C271 C 0.18187 0.70594 0.2995 0.0
C272 C 0.24937 0.73802 0.27975 0.0
C273 C 0.21438 0.72387 0.25565 0.0
C274 C 0.32988 0.72317 0.35669 0.0
C275 C 0.27705 0.74216 0.37473 0.0
C276 C 0.30004 0.71243 0.33225 0.0
C277 C 0.21729 0.72147 0.32529 0.0
C278 C 0.16633 0.743 0.34339 0.0
C279 C 0.19536 0.75246 0.36778 0.0
H280 H 0.62213 0.43469 0.7864 0.0
H281 H 0.44754 0.55897 0.75794 0.0
H282 H 0.66552 0.41395 0.7447 0.0
H283 H 0.48854 0.53663 0.71678 0.0
H284 H 0.65484 0.57757 0.64673 0.0
H285 H 0.63017 0.60464 0.68924 0.0
H286 H 0.58561 0.31336 0.70772 0.0
H287 H 0.61392 0.28763 0.66525 0.0
C288 C 0.59276 0.45731 0.77133 0.0
C289 C 0.5305 0.49775 0.77558 0.0
C290 C 0.61722 0.44502 0.74744 0.0
C291 C 0.58081 0.47397 0.72738 0.0
C292 C 0.51912 0.51476 0.73175 0.0
C293 C 0.49443 0.52644 0.75546 0.0
C294 C 0.64145 0.5199 0.65989 0.0
C295 C 0.63586 0.43019 0.6525 0.0
C296 C 0.62623 0.53498 0.68425 0.0
C297 C 0.60504 0.46079 0.70188 0.0
C298 C 0.60231 0.37225 0.69465 0.0
C299 C 0.61735 0.35705 0.67024 0.0
loop_
_geom_bond_atom_site_label_1
_geom_bond_atom_site_label_2
_geom_bond_distance
_geom_bond_site_symmetry_2
_ccdc_geom_bond_type
Dy0 O3 2.307 . S
Dy0 O5 2.395 . S
Dy0 O6 2.379 . S
Dy0 O8 2.339 . S
Dy0 O10 2.298 . S
Dy0 O14 2.275 . S
Dy0 C22 2.738 . S
Dy1 O4 2.298 1_655 S
Dy1 O7 2.275 1_655 S
Dy1 O9 2.307 . S
Dy1 O11 2.395 . S
Dy1 O12 2.379 . S
Dy1 O15 2.339 . S
Dy1 C31 2.738 . S
C2 O14 1.254 . S
C2 O15 1.257 1_455 S
O3 Dy0 2.307 . S
O3 C13 1.266 . S
O4 Dy1 2.298 1_455 S
O4 C13 1.236 . S
O5 Dy0 2.395 . S
O5 C22 1.255 . S
O6 Dy0 2.379 . S
O6 C22 1.249 . S
O7 Dy1 2.275 1_455 S
O7 C23 1.254 . S
O8 Dy0 2.339 . S
O8 C23 1.257 . S
O9 Dy1 2.307 . S
O9 C24 1.266 . S
O10 Dy0 2.298 . S
O10 C24 1.236 1_455 S
O11 Dy1 2.395 . S
O11 C31 1.255 . S
O12 Dy1 2.379 . S
O12 C31 1.249 . S
C13 O3 1.266 . S
C13 O4 1.236 . S
O14 Dy0 2.275 . S
O14 C2 1.254 . S
O15 Dy1 2.339 . S
O15 C2 1.257 1_655 S
C16 C19 1.344 . S
C16 C20 1.328 . S
C16 C22 1.516 . S
C17 C18 1.304 . S
C17 C21 1.323 . S
C18 C17 1.304 . S
C18 C19 1.371 . S
C18 H32 0.930 . S
C19 C16 1.344 . S
C19 C18 1.371 . S
C19 H33 0.931 . S
C20 C16 1.328 . S
C20 C21 1.433 . S
C20 H34 0.931 . S
C21 C17 1.323 . S
C21 C20 1.433 . S
C21 H35 0.933 . S
C22 Dy0 2.738 . S
C22 O5 1.255 . S
C22 O6 1.249 . S
C22 C16 1.516 . S
C23 O7 1.254 . S
C23 O8 1.257 . S
C24 O9 1.266 . S
C24 O10 1.236 1_655 S
C25 C28 1.344 . S
C25 C29 1.328 . S
C25 C31 1.516 . S
C26 C27 1.304 . S
C26 C30 1.323 . S
C27 C26 1.304 . S
C27 C28 1.371 . S
C27 H36 0.930 . S
C28 C25 1.344 . S
C28 C27 1.371 . S
C28 H37 0.931 . S
C29 C25 1.328 . S
C29 C30 1.433 . S
C29 H38 0.931 . S
C30 C26 1.323 . S
C30 C29 1.433 . S
C30 H39 0.933 . S
C31 Dy1 2.738 . S
C31 O11 1.255 . S
C31 O12 1.249 . S
C31 C25 1.516 . S
H32 C18 0.930 . S
H33 C19 0.931 . S
H34 C20 0.931 . S
H35 C21 0.933 . S
H36 C27 0.930 . S
H37 C28 0.931 . S
H38 C29 0.931 . S
H39 C30 0.933 . S
Dy40 O43 2.307 . S
Dy40 O45 2.395 . S
Dy40 O46 2.379 . S
Dy40 O48 2.339 . S
Dy40 O50 2.298 1_565 S
Dy40 O54 2.275 . S
Dy40 C62 2.738 . S
Dy41 O44 2.298 1_545 S
Dy41 O47 2.275 . S
Dy41 O49 2.307 . S
Dy41 O51 2.395 . S
Dy41 O52 2.379 . S
Dy41 O55 2.339 . S
Dy41 C71 2.738 . S
C42 O54 1.254 1_545 S
C42 O55 1.257 . S
O43 Dy40 2.307 . S
O43 C53 1.266 . S
O44 Dy41 2.298 1_565 S
O44 C53 1.236 . S
O45 Dy40 2.395 . S
O45 C62 1.255 . S
O46 Dy40 2.379 . S
O46 C62 1.249 . S
O47 Dy41 2.275 . S
O47 C63 1.254 1_545 S
O48 Dy40 2.339 . S
O48 C63 1.257 . S
O49 Dy41 2.307 . S
O49 C64 1.266 . S
O50 Dy40 2.298 1_545 S
O50 C64 1.236 . S
O51 Dy41 2.395 . S
O51 C71 1.255 . S
O52 Dy41 2.379 . S
O52 C71 1.249 . S
C53 O43 1.266 . S
C53 O44 1.236 . S
O54 Dy40 2.275 . S
O54 C42 1.254 1_565 S
O55 Dy41 2.339 . S
O55 C42 1.257 . S
C56 C59 1.344 . S
C56 C60 1.328 . S
C56 C62 1.516 . S
C57 C58 1.304 . S
C57 C61 1.323 . S
C58 C57 1.304 . S
C58 C59 1.371 . S
C58 H72 0.930 . S
C59 C56 1.344 . S
C59 C58 1.371 . S
C59 H73 0.931 . S
C60 C56 1.328 . S
C60 C61 1.433 . S
C60 H74 0.931 . S
C61 C57 1.323 . S
C61 C60 1.433 . S
C61 H75 0.933 . S
C62 Dy40 2.738 . S
C62 O45 1.255 . S
C62 O46 1.249 . S
C62 C56 1.516 . S
C63 O47 1.254 1_565 S
C63 O48 1.257 . S
C64 O49 1.266 . S
C64 O50 1.236 . S
C65 C68 1.344 . S
C65 C69 1.328 . S
C65 C71 1.516 . S
C66 C67 1.304 . S
C66 C70 1.323 . S
C67 C66 1.304 . S
C67 C68 1.371 . S
C67 H76 0.930 . S
C68 C65 1.344 . S
C68 C67 1.371 . S
C68 H77 0.931 . S
C69 C65 1.328 . S
C69 C70 1.433 . S
C69 H78 0.931 . S
C70 C66 1.323 . S
C70 C69 1.433 . S
C70 H79 0.933 . S
C71 Dy41 2.738 . S
C71 O51 1.255 . S
C71 O52 1.249 . S
C71 C65 1.516 . S
H72 C58 0.930 . S
H73 C59 0.931 . S
H74 C60 0.931 . S
H75 C61 0.933 . S
H76 C67 0.930 . S
H77 C68 0.931 . S
H78 C69 0.931 . S
H79 C70 0.933 . S
Dy80 O83 2.307 . S
Dy80 O85 2.395 . S
Dy80 O86 2.379 . S
Dy80 O88 2.339 . S
Dy80 O90 2.298 . S
Dy80 O94 2.275 . S
Dy80 C102 2.738 . S
Dy81 O84 2.298 . S
Dy81 O87 2.275 . S
Dy81 O89 2.307 . S
Dy81 O91 2.395 . S
Dy81 O92 2.379 . S
Dy81 O95 2.339 . S
Dy81 C111 2.738 . S
C82 O94 1.254 . S
C82 O95 1.257 . S
O83 Dy80 2.307 . S
O83 C93 1.266 . S
O84 Dy81 2.298 . S
O84 C93 1.236 . S
O85 Dy80 2.395 . S
O85 C102 1.255 . S
O86 Dy80 2.379 . S
O86 C102 1.249 . S
O87 Dy81 2.275 . S
O87 C103 1.254 . S
O88 Dy80 2.339 . S
O88 C103 1.257 . S
O89 Dy81 2.307 . S
O89 C104 1.266 . S
O90 Dy80 2.298 . S
O90 C104 1.236 . S
O91 Dy81 2.395 . S
O91 C111 1.255 . S
O92 Dy81 2.379 . S
O92 C111 1.249 . S
C93 O83 1.266 . S
C93 O84 1.236 . S
O94 Dy80 2.275 . S
O94 C82 1.254 . S
O95 Dy81 2.339 . S
O95 C82 1.257 . S
C96 C99 1.344 . S
C96 C100 1.328 . S
C96 C102 1.516 . S
C97 C98 1.304 . S
C97 C101 1.323 . S
C98 C97 1.304 . S
C98 C99 1.371 . S
C98 H112 0.930 . S
C99 C96 1.344 . S
C99 C98 1.371 . S
C99 H113 0.931 . S
C100 C96 1.328 . S
C100 C101 1.433 . S
C100 H114 0.931 . S
C101 C97 1.323 . S
C101 C100 1.433 . S
C101 H115 0.933 . S
C102 Dy80 2.738 . S
C102 O85 1.255 . S
C102 O86 1.249 . S
C102 C96 1.516 . S
C103 O87 1.254 . S
C103 O88 1.257 . S
C104 O89 1.266 . S
C104 O90 1.236 . S
C105 C108 1.344 . S
C105 C109 1.328 . S
C105 C111 1.516 . S
C106 C107 1.304 . S
C106 C110 1.323 . S
C107 C106 1.304 . S
C107 C108 1.371 . S
C107 H116 0.930 . S
C108 C105 1.344 . S
C108 C107 1.371 . S
C108 H117 0.931 . S
C109 C105 1.328 . S
C109 C110 1.433 . S
C109 H118 0.931 . S
C110 C106 1.323 . S
C110 C109 1.433 . S
C110 H119 0.933 . S
C111 Dy81 2.738 . S
C111 O91 1.255 . S
C111 O92 1.249 . S
C111 C105 1.516 . S
H112 C98 0.930 . S
H113 C99 0.931 . S
H114 C100 0.931 . S
H115 C101 0.933 . S
H116 C107 0.930 . S
H117 C108 0.931 . S
H118 C109 0.931 . S
H119 C110 0.933 . S
H120 C128 0.950 1_655 S
H121 C133 0.950 . S
H122 C130 0.950 1_655 S
H123 C132 0.950 . S
H124 C134 0.950 . S
H125 C136 0.950 . S
H126 C138 0.950 1_655 S
H127 C139 0.950 1_655 S
C128 H120 0.950 1_455 S
C128 C129 1.386 . S
C128 C130 1.391 1_565 S
C129 C128 1.386 . S
C129 C133 1.393 . S
C130 H122 0.950 1_455 S
C130 C128 1.391 1_545 S
C130 C131 1.400 . S
C131 C130 1.400 . S
C131 C132 1.398 . S
C131 C137 1.491 . S
C132 H123 0.950 . S
C132 C131 1.398 . S
C132 C133 1.391 1_545 S
C133 H121 0.950 . S
C133 C129 1.393 . S
C133 C132 1.391 1_565 S
C134 H124 0.950 . S
C134 C135 1.386 . S
C134 C136 1.391 . S
C135 C134 1.386 . S
C135 C139 1.393 . S
C136 H125 0.950 . S
C136 C134 1.391 . S
C136 C137 1.400 . S
C137 C131 1.491 . S
C137 C136 1.400 . S
C137 C138 1.398 . S
C138 H126 0.950 1_455 S
C138 C137 1.398 . S
C138 C139 1.391 . S
C139 H127 0.950 1_455 S
C139 C135 1.393 . S
C139 C138 1.391 . S
H140 C148 0.950 . S
H141 C153 0.950 . S
H142 C150 0.950 . S
H143 C152 0.950 1_655 S
H144 C154 0.950 . S
H145 C156 0.950 . S
H146 C158 0.950 . S
H147 C159 0.950 . S
C148 H140 0.950 . S
C148 C149 1.386 . S
C148 C150 1.391 . S
C149 C148 1.386 . S
C149 C153 1.393 1_545 S
C150 H142 0.950 . S
C150 C148 1.391 . S
C150 C151 1.400 . S
C151 C150 1.400 . S
C151 C152 1.398 1_545 S
C151 C157 1.497 1_445 S
C152 H143 0.950 1_455 S
C152 C151 1.398 1_565 S
C152 C153 1.391 . S
C153 H141 0.950 . S
C153 C149 1.393 1_565 S
C153 C152 1.391 . S
C154 H144 0.950 . S
C154 C155 1.386 . S
C154 C156 1.391 . S
C155 C154 1.386 . S
C155 C159 1.393 1_565 S
C156 H145 0.950 . S
C156 C154 1.391 . S
C156 C157 1.405 . S
C157 C151 1.497 1_665 S
C157 C156 1.405 . S
C157 C158 1.387 1_565 S
C158 H146 0.950 . S
C158 C157 1.387 1_545 S
C158 C159 1.391 . S
C159 H147 0.950 . S
C159 C155 1.393 1_545 S
C159 C158 1.391 . S
H160 C168 0.950 . S
H161 C173 0.950 . S
H162 C170 0.950 . S
H163 C172 0.950 . S
H164 C174 0.950 . S
H165 C176 0.950 . S
H166 C178 0.950 . S
H167 C179 0.950 . S
C168 H160 0.950 . S
C168 C169 1.386 . S
C168 C170 1.391 1_565 S
C169 C168 1.386 . S
C169 C173 1.393 . S
C170 H162 0.950 . S
C170 C168 1.391 1_545 S
C170 C171 1.400 . S
C171 C170 1.400 . S
C171 C172 1.398 . S
C171 C177 1.491 1_655 S
C172 H163 0.950 . S
C172 C171 1.398 . S
C172 C173 1.391 1_545 S
C173 H161 0.950 . S
C173 C169 1.393 . S
C173 C172 1.391 1_565 S
C174 H164 0.950 . S
C174 C175 1.386 . S
C174 C176 1.391 . S
C175 C174 1.386 . S
C175 C179 1.393 . S
C176 H165 0.950 . S
C176 C174 1.391 . S
C176 C177 1.400 . S
C177 C171 1.491 1_455 S
C177 C176 1.400 . S
C177 C178 1.398 . S
C178 H166 0.950 . S
C178 C177 1.398 . S
C178 C179 1.391 . S
C179 H167 0.950 . S
C179 C175 1.393 . S
C179 C178 1.391 . S
H180 C188 0.950 . S
H181 C193 0.950 . S
H182 C190 0.950 . S
H183 C192 0.950 . S
H184 C194 0.950 . S
H185 C196 0.950 . S
H186 C198 0.950 . S
H187 C199 0.950 1_554 S
C188 H180 0.950 . S
C188 C189 1.386 . S
C188 C190 1.391 . S
C189 C188 1.386 . S
C189 C193 1.393 . S
C190 H182 0.950 . S
C190 C188 1.391 . S
C190 C191 1.400 . S
C191 C190 1.400 . S
C191 C192 1.398 . S
C191 C197 1.491 . S
C192 H183 0.950 . S
C192 C191 1.398 . S
C192 C193 1.391 . S
C193 H181 0.950 . S
C193 C189 1.393 . S
C193 C192 1.391 . S
C194 H184 0.950 . S
C194 C195 1.386 . S
C194 C196 1.391 1_554 S
C195 C194 1.386 . S
C195 C199 1.393 1_554 S
C196 H185 0.950 . S
C196 C194 1.391 1_556 S
C196 C197 1.400 . S
C197 C191 1.491 . S
C197 C196 1.400 . S
C197 C198 1.398 . S
C198 H186 0.950 . S
C198 C197 1.398 . S
C198 C199 1.391 . S
C199 H187 0.950 1_556 S
C199 C195 1.393 1_556 S
C199 C198 1.391 . S
H200 C208 0.950 . S
H201 C213 0.950 . S
H202 C210 0.950 . S
H203 C212 0.950 . S
H204 C214 0.950 . S
H205 C216 0.950 . S
H206 C218 0.950 . S
H207 C219 0.950 . S
C208 H200 0.950 . S
C208 C209 1.386 . S
C208 C210 1.391 . S
C209 C208 1.386 . S
C209 C213 1.393 . S
C210 H202 0.950 . S
C210 C208 1.391 . S
C210 C211 1.400 . S
C211 C210 1.400 . S
C211 C212 1.398 . S
C211 C217 1.491 . S
C212 H203 0.950 . S
C212 C211 1.398 . S
C212 C213 1.391 . S
C213 H201 0.950 . S
C213 C209 1.393 . S
C213 C212 1.391 . S
C214 H204 0.950 . S
C214 C215 1.386 . S
C214 C216 1.391 . S
C215 C214 1.386 . S
C215 C219 1.393 . S
C216 H205 0.950 . S
C216 C214 1.391 . S
C216 C217 1.400 . S
C217 C211 1.491 . S
C217 C216 1.400 . S
C217 C218 1.398 . S
C218 H206 0.950 . S
C218 C217 1.398 . S
C218 C219 1.391 . S
C219 H207 0.950 . S
C219 C215 1.393 . S
C219 C218 1.391 . S
H220 C228 0.950 . S
H221 C233 0.950 . S
H222 C230 0.950 . S
H223 C232 0.950 . S
H224 C234 0.950 . S
H225 C236 0.950 . S
H226 C238 0.950 . S
H227 C239 0.950 . S
C228 H220 0.950 . S
C228 C229 1.386 . S
C228 C230 1.391 . S
C229 C228 1.386 . S
C229 C233 1.393 . S
C230 H222 0.950 . S
C230 C228 1.391 . S
C230 C231 1.400 . S
C231 C230 1.400 . S
C231 C232 1.398 . S
C231 C237 1.491 . S
C232 H223 0.950 . S
C232 C231 1.398 . S
C232 C233 1.391 . S
C233 H221 0.950 . S
C233 C229 1.393 . S
C233 C232 1.391 . S
C234 H224 0.950 . S
C234 C235 1.386 . S
C234 C236 1.391 . S
C235 C234 1.386 . S
C235 C239 1.393 . S
C236 H225 0.950 . S
C236 C234 1.391 . S
C236 C237 1.400 . S
C237 C231 1.491 . S
C237 C236 1.400 . S
C237 C238 1.398 . S
C238 H226 0.950 . S
C238 C237 1.398 . S
C238 C239 1.391 . S
C239 H227 0.950 . S
C239 C235 1.393 . S
C239 C238 1.391 . S
H240 C248 0.950 . S
H241 C253 0.950 . S
H242 C250 0.950 . S
H243 C252 0.950 . S
H244 C254 0.950 . S
H245 C256 0.950 . S
H246 C258 0.950 . S
H247 C259 0.950 1_455 S
C248 H240 0.950 . S
C248 C249 1.386 . S
C248 C250 1.391 1_556 S
C249 C248 1.386 . S
C249 C253 1.393 1_556 S
C250 H242 0.950 . S
C250 C248 1.391 1_554 S
C250 C251 1.400 . S
C251 C250 1.400 . S
C251 C252 1.398 . S
C251 C257 1.491 . S
C252 H243 0.950 . S
C252 C251 1.398 . S
C252 C253 1.391 . S
C253 H241 0.950 . S
C253 C249 1.393 1_554 S
C253 C252 1.391 . S
C254 H244 0.950 . S
C254 C255 1.386 . S
C254 C256 1.391 . S
C255 C254 1.386 . S
C255 C259 1.393 . S
C256 H245 0.950 . S
C256 C254 1.391 . S
C256 C257 1.400 . S
C257 C251 1.491 . S
C257 C256 1.400 . S
C257 C258 1.398 . S
C258 H246 0.950 . S
C258 C257 1.398 . S
C258 C259 1.391 . S
C259 H247 0.950 1_655 S
C259 C255 1.393 . S
C259 C258 1.391 . S
H260 C268 0.950 . S
H261 C273 0.950 . S
H262 C270 0.950 . S
H263 C272 0.950 . S
H264 C274 0.950 . S
H265 C276 0.950 . S
H266 C278 0.950 . S
H267 C279 0.950 . S
C268 H260 0.950 . S
C268 C269 1.386 . S
C268 C270 1.391 . S
C269 C268 1.386 . S
C269 C273 1.393 . S
C270 H262 0.950 . S
C270 C268 1.391 . S
C270 C271 1.400 . S
C271 C270 1.400 . S
C271 C272 1.398 . S
C271 C277 1.491 . S
C272 H263 0.950 . S
C272 C271 1.398 . S
C272 C273 1.391 . S
C273 H261 0.950 . S
C273 C269 1.393 . S
C273 C272 1.391 . S
C274 H264 0.950 . S
C274 C275 1.386 . S
C274 C276 1.391 . S
C275 C274 1.386 . S
C275 C279 1.393 . S
C276 H265 0.950 . S
C276 C274 1.391 . S
C276 C277 1.400 . S
C277 C271 1.491 . S
C277 C276 1.400 . S
C277 C278 1.398 . S
C278 H266 0.950 . S
C278 C277 1.398 . S
C278 C279 1.391 . S
C279 H267 0.950 . S
C279 C275 1.393 . S
C279 C278 1.391 . S
H280 C288 0.950 . S
H281 C293 0.950 . S
H282 C290 0.950 . S
H283 C292 0.950 . S
H284 C294 0.950 . S
H285 C296 0.950 . S
H286 C298 0.950 . S
H287 C299 0.950 . S
C288 H280 0.950 . S
C288 C289 1.386 . S
C288 C290 1.391 . S
C289 C288 1.386 . S
C289 C293 1.393 . S
C290 H282 0.950 . S
C290 C288 1.391 . S
C290 C291 1.400 . S
C291 C290 1.400 . S
C291 C292 1.398 . S
C291 C297 1.491 . S
C292 H283 0.950 . S
C292 C291 1.398 . S
C292 C293 1.391 . S
C293 H281 0.950 . S
C293 C289 1.393 . S
C293 C292 1.391 . S
C294 H284 0.950 . S
C294 C295 1.386 . S
C294 C296 1.391 . S
C295 C294 1.386 . S
C295 C299 1.393 . S
C296 H285 0.950 . S
C296 C294 1.391 . S
C296 C297 1.400 . S
C297 C291 1.491 . S
C297 C296 1.400 . S
C297 C298 1.398 . S
C298 H286 0.950 . S
C298 C297 1.398 . S
C298 C299 1.391 . S
C299 H287 0.950 . S
C299 C295 1.393 . S
C299 C298 1.391 . S
C129 C2 1.506 . S
C135 C23 1.506 . S
C149 C63 1.513 1_545 S
C155 C42 1.513 1_565 S
C169 C103 1.510 . S
C175 C82 1.510 . S
C189 C93 1.211 . S
C195 C17 1.156 . S
C209 C64 1.468 . S
C215 C26 1.451 . S
C229 C97 1.161 . S
C235 C53 1.196 . S
C249 C106 1.436 . S
C255 C24 1.465 . S
C269 C13 1.199 . S
C275 C57 1.126 . S
C289 C104 1.467 . S
C295 C66 1.449 . S
