# Generated by pormake.
# Topology unr, (4)-cn, num edge types: 1
# Building blocks:
#     Node 0, Type 0, BuildingBlock: NAHDIM_clean_sbu_0, # of connection points: 4
#     Node 1, Type 0, BuildingBlock: NAHDIM_clean_sbu_0, # of connection points: 4
#     Node 2, Type 0, BuildingBlock: NAHDIM_clean_sbu_0, # of connection points: 4
#     Node 3, Type 0, BuildingBlock: NAHDIM_clean_sbu_0, # of connection points: 4
#     Node 4, Type 0, BuildingBlock: NAHDIM_clean_sbu_0, # of connection points: 4
#     Node 5, Type 0, BuildingBlock: NAHDIM_clean_sbu_0, # of connection points: 4
#     Node 6, Type 0, BuildingBlock: NAHDIM_clean_sbu_0, # of connection points: 4
#     Node 7, Type 0, BuildingBlock: NAHDIM_clean_sbu_0, # of connection points: 4
#     Node 8, Type 0, BuildingBlock: NAHDIM_clean_sbu_0, # of connection points: 4
#     Node 9, Type 0, BuildingBlock: NAHDIM_clean_sbu_0, # of connection points: 4
#     Node 10, Type 0, BuildingBlock: NAHDIM_clean_sbu_0, # of connection points: 4
#     Node 11, Type 0, BuildingBlock: NAHDIM_clean_sbu_0, # of connection points: 4
#     Node 12, Type 0, BuildingBlock: NAHDIM_clean_sbu_0, # of connection points: 4
#     Node 13, Type 0, BuildingBlock: NAHDIM_clean_sbu_0, # of connection points: 4
#     Node 14, Type 0, BuildingBlock: NAHDIM_clean_sbu_0, # of connection points: 4
#     Node 15, Type 0, BuildingBlock: NAHDIM_clean_sbu_0, # of connection points: 4
#     Node 16, Type 0, BuildingBlock: NAHDIM_clean_sbu_0, # of connection points: 4
#     Node 17, Type 0, BuildingBlock: NAHDIM_clean_sbu_0, # of connection points: 4
#     Node 18, Type 0, BuildingBlock: NAHDIM_clean_sbu_0, # of connection points: 4
#     Node 19, Type 0, BuildingBlock: NAHDIM_clean_sbu_0, # of connection points: 4
#     Node 20, Type 0, BuildingBlock: NAHDIM_clean_sbu_0, # of connection points: 4
#     Node 21, Type 0, BuildingBlock: NAHDIM_clean_sbu_0, # of connection points: 4
#     Node 22, Type 0, BuildingBlock: NAHDIM_clean_sbu_0, # of connection points: 4
#     Node 23, Type 0, BuildingBlock: NAHDIM_clean_sbu_0, # of connection points: 4
#     Node 24, Type 0, BuildingBlock: NAHDIM_clean_sbu_0, # of connection points: 4
#     Node 25, Type 0, BuildingBlock: NAHDIM_clean_sbu_0, # of connection points: 4
#     Node 26, Type 0, BuildingBlock: NAHDIM_clean_sbu_0, # of connection points: 4
#     Node 27, Type 0, BuildingBlock: NAHDIM_clean_sbu_0, # of connection points: 4
#     Node 28, Type 0, BuildingBlock: NAHDIM_clean_sbu_0, # of connection points: 4
#     Node 29, Type 0, BuildingBlock: NAHDIM_clean_sbu_0, # of connection points: 4
#     Node 30, Type 0, BuildingBlock: NAHDIM_clean_sbu_0, # of connection points: 4
#     Node 31, Type 0, BuildingBlock: NAHDIM_clean_sbu_0, # of connection points: 4
#     Node 32, Type 0, BuildingBlock: NAHDIM_clean_sbu_0, # of connection points: 4
#     Node 33, Type 0, BuildingBlock: NAHDIM_clean_sbu_0, # of connection points: 4
#     Node 34, Type 0, BuildingBlock: NAHDIM_clean_sbu_0, # of connection points: 4
#     Node 35, Type 0, BuildingBlock: NAHDIM_clean_sbu_0, # of connection points: 4
#     Edge 36, Type (0, 0), None
#     Edge 37, Type (0, 0), None
#     Edge 38, Type (0, 0), None
#     Edge 39, Type (0, 0), None
#     Edge 40, Type (0, 0), None
#     Edge 41, Type (0, 0), None
#     Edge 42, Type (0, 0), None
#     Edge 43, Type (0, 0), None
#     Edge 44, Type (0, 0), None
#     Edge 45, Type (0, 0), None
#     Edge 46, Type (0, 0), None
#     Edge 47, Type (0, 0), None
#     Edge 48, Type (0, 0), None
#     Edge 49, Type (0, 0), None
#     Edge 50, Type (0, 0), None
#     Edge 51, Type (0, 0), None
#     Edge 52, Type (0, 0), None
#     Edge 53, Type (0, 0), None
#     Edge 54, Type (0, 0), None
#     Edge 55, Type (0, 0), None
#     Edge 56, Type (0, 0), None
#     Edge 57, Type (0, 0), None
#     Edge 58, Type (0, 0), None
#     Edge 59, Type (0, 0), None
#     Edge 60, Type (0, 0), None
#     Edge 61, Type (0, 0), None
#     Edge 62, Type (0, 0), None
#     Edge 63, Type (0, 0), None
#     Edge 64, Type (0, 0), None
#     Edge 65, Type (0, 0), None
#     Edge 66, Type (0, 0), None
#     Edge 67, Type (0, 0), None
#     Edge 68, Type (0, 0), None
#     Edge 69, Type (0, 0), None
#     Edge 70, Type (0, 0), None
#     Edge 71, Type (0, 0), None
#     Edge 72, Type (0, 0), None
#     Edge 73, Type (0, 0), None
#     Edge 74, Type (0, 0), None
#     Edge 75, Type (0, 0), None
#     Edge 76, Type (0, 0), None
#     Edge 77, Type (0, 0), None
#     Edge 78, Type (0, 0), None
#     Edge 79, Type (0, 0), None
#     Edge 80, Type (0, 0), None
#     Edge 81, Type (0, 0), None
#     Edge 82, Type (0, 0), None
#     Edge 83, Type (0, 0), None
#     Edge 84, Type (0, 0), None
#     Edge 85, Type (0, 0), None
#     Edge 86, Type (0, 0), None
#     Edge 87, Type (0, 0), None
#     Edge 88, Type (0, 0), None
#     Edge 89, Type (0, 0), None
#     Edge 90, Type (0, 0), None
#     Edge 91, Type (0, 0), None
#     Edge 92, Type (0, 0), None
#     Edge 93, Type (0, 0), None
#     Edge 94, Type (0, 0), None
#     Edge 95, Type (0, 0), None
#     Edge 96, Type (0, 0), None
#     Edge 97, Type (0, 0), None
#     Edge 98, Type (0, 0), None
#     Edge 99, Type (0, 0), None
#     Edge 100, Type (0, 0), None
#     Edge 101, Type (0, 0), None
#     Edge 102, Type (0, 0), None
#     Edge 103, Type (0, 0), None
#     Edge 104, Type (0, 0), None
#     Edge 105, Type (0, 0), None
#     Edge 106, Type (0, 0), None
#     Edge 107, Type (0, 0), None
# Relax obj value: 0.404
# Max RMSD: 0.258
# Mean RMSD: 0.253
data_MOF--net-unr--node1-NAHDIM_clean_sbu_0--edge1-none
_symmetry_space_group_name_H-M    P1
_symmetry_Int_Tables_number       1
_symmetry_cell_setting            triclinic
loop_
_symmetry_equiv_pos_as_xyz
'x, y, z'
_cell_length_a     22.092461
_cell_length_b     22.526484
_cell_length_c     52.023093
_cell_angle_alpha  90.315876
_cell_angle_beta   90.848567
_cell_angle_gamma 116.76967
loop_
_atom_site_label
_atom_site_type_symbol
_atom_site_fract_x
_atom_site_fract_y
_atom_site_fract_z
_atom_type_partial_charge
C0 C 0.31366 0.10901 0.18788 0.0
O1 O 0.30469 0.0643 0.20544 0.0
O2 O 0.15279 -0.01868 0.20417 0.0
Zn3 Zn 0.18044 0.08004 0.20236 0.0
O4 O 0.18837 0.11875 0.23815 0.0
C5 C 0.06202 0.04742 0.16908 0.0
O6 O 0.07993 0.00628 0.15734 0.0
O7 O 0.26698 0.12587 0.18311 0.0
C8 C 0.15901 0.15466 0.24345 0.0
O9 O 0.1282 0.17131 0.2252 0.0
C10 C 0.15907 0.94704 0.18577 0.0
O11 O 0.19151 -0.02295 0.16508 0.0
O12 O 0.10089 0.08725 0.18613 0.0
C13 C 0.84392 0.04663 0.12607 0.0
O14 O 0.90543 0.07813 0.1359 0.0
O15 O 0.94919 -0.01381 0.15457 0.0
Zn16 Zn 0.84737 0.9452 0.15695 0.0
O17 O 0.8214 -0.03592 0.19211 0.0
C18 C 0.86084 0.82867 0.15029 0.0
O19 O 0.90933 0.86527 0.13469 0.0
O20 O 0.80841 -0.01478 0.13078 0.0
C21 C 0.79842 0.92099 0.20977 0.0
O22 O 0.7923 0.86089 0.206 0.0
C23 C -0.00877 0.0353 0.16777 0.0
O24 O 0.96918 0.06615 0.1838 0.0
O25 O 0.81483 0.84599 0.15514 0.0
C26 C 0.90598 0.64269 0.19771 0.0
O27 O 0.8651 0.65973 0.21036 0.0
O28 O 0.93884 0.80829 0.17534 0.0
Zn29 Zn -0.01674 0.77895 0.20355 0.0
O30 O 0.94727 0.78332 0.23874 0.0
C31 C 0.11266 0.87573 0.18458 0.0
O32 O 0.0895 0.84704 0.16209 0.0
O33 O 0.96645 0.68616 0.19385 0.0
C34 C -0.01245 0.80288 0.2582 0.0
O35 O 0.05171 0.81743 0.25558 0.0
C36 C 0.87676 0.79111 0.16994 0.0
O37 O 0.82913 0.74973 0.1848 0.0
O38 O 0.08009 0.84902 0.20463 0.0
C39 C 0.08526 0.29223 0.32955 0.0
O40 O 0.03127 0.27371 0.31459 0.0
O41 O 0.97032 0.12547 0.31777 0.0
Zn42 Zn 0.07173 0.1677 0.31344 0.0
O43 O 0.09856 0.17695 0.27626 0.0
C44 C 0.06071 0.05536 0.34161 0.0
O45 O 0.01197 0.06261 0.35316 0.0
O46 O 0.11369 0.25454 0.33214 0.0
C47 C 0.14918 0.16725 0.27028 0.0
O48 O 0.18576 0.15779 0.28839 0.0
C49 C 0.92402 0.11531 0.30114 0.0
O50 O 0.94041 0.13795 0.27775 0.0
O51 O 0.1 0.10065 0.32699 0.0
C52 C 0.62279 0.84438 0.29836 0.0
O53 O 0.64755 0.80462 0.2903 0.0
O54 O 0.79603 0.90055 0.31664 0.0
Zn55 Zn 0.75628 0.93458 0.28843 0.0
O56 O 0.7658 0.89983 0.25352 0.0
C57 C 0.85573 0.06292 0.30629 0.0
O58 O 0.84434 0.0333 0.32862 0.0
O59 O 0.65934 0.90693 0.29762 0.0
C60 C 0.78118 0.93945 0.23464 0.0
O61 O 0.7849 -0.00115 0.23779 0.0
C62 C 0.79579 0.84454 0.31974 0.0
O63 O 0.76718 0.79727 0.3023 0.0
O64 O 0.81643 0.03375 0.28736 0.0
C65 C 0.0679 0.8368 0.3728 0.0
O66 O 0.10247 0.89788 0.3648 0.0
O67 O 0.00359 0.93999 0.34717 0.0
Zn68 Zn -0.0289 0.84328 0.33817 0.0
O69 O 0.00348 0.83289 0.3027 0.0
C70 C 0.84172 0.84002 0.33939 0.0
O71 O 0.87201 0.89031 0.35548 0.0
O72 O 0.00739 0.80203 0.36458 0.0
C73 C 0.96284 0.81041 0.2834 0.0
O74 O 0.8984 0.79448 0.28591 0.0
C75 C 0.05575 -0.01127 0.33875 0.0
O76 O 0.09593 -0.02191 0.32303 0.0
O77 O 0.86908 0.80222 0.33486 0.0
C78 C 0.71183 0.80602 0.85485 0.0
O79 O 0.71314 0.85082 0.83852 0.0
O80 O 0.81467 0.82533 0.79617 0.0
Zn81 Zn 0.84012 0.84365 0.83383 0.0
O82 O 0.87022 0.94107 0.84096 0.0
C83 C 0.94239 0.80079 0.82253 0.0
O84 O 0.90072 0.76744 0.80361 0.0
O85 O 0.76145 0.79198 0.8562 0.0
C86 C 0.91735 -0.02653 0.85724 0.0
O87 O 0.94434 0.94217 0.87082 0.0
C88 C 0.85917 0.86588 0.78139 0.0
O89 O 0.91275 0.91599 0.79145 0.0
O90 O 0.92278 0.82831 0.83972 0.0
C91 C 0.17497 0.79629 0.78837 0.0
O92 O 0.11644 0.76262 0.77638 0.0
O93 O 0.13631 0.94177 0.75411 0.0
Zn94 Zn 0.13417 0.90172 0.78929 0.0
O95 O 0.03768 0.83439 0.79621 0.0
C96 C 0.17445 0.03528 0.81085 0.0
O97 O 0.19564 0.05651 0.78767 0.0
O98 O 0.19463 0.85724 0.79421 0.0
C99 C 0.01543 0.82618 0.81901 0.0
O100 O 0.05737 0.85672 0.83824 0.0
C101 C 0.09001 0.96037 0.75164 0.0
O102 O 0.04742 0.94942 0.77043 0.0
O103 O 0.15406 -0.02576 0.81604 0.0
C104 C 0.1925 0.26824 0.85117 0.0
O105 O 0.22319 0.24303 0.8365 0.0
O106 O 0.01485 0.15386 0.80618 0.0
Zn107 Zn 0.07648 0.14919 0.83477 0.0
O108 O 0.14033 0.11913 0.81774 0.0
C109 C 0.95347 0.04584 0.85509 0.0
O110 O 0.92402 0.07667 0.84268 0.0
O111 O 0.12861 0.23691 0.85378 0.0
C112 C 0.15393 0.07502 0.82772 0.0
O113 O 0.13252 0.05366 0.85087 0.0
C114 C -0.00849 0.10217 0.7918 0.0
O115 O 0.01102 0.05599 0.79609 0.0
O116 O 0.01769 0.07341 0.85762 0.0
C117 C 0.77636 0.6811 0.68801 0.0
O118 O 0.83561 0.69995 0.6995 0.0
O119 O 0.80803 0.8039 0.743 0.0
Zn120 Zn 0.80457 0.80859 0.70429 0.0
O121 O 0.90022 0.84282 0.69169 0.0
C122 C 0.75183 0.90205 0.71339 0.0
O123 O 0.73021 0.86891 0.73473 0.0
O124 O 0.74885 0.71993 0.68787 0.0
C125 C 0.92162 0.88231 0.6729 0.0
O126 O 0.87952 0.89845 0.66019 0.0
C127 C 0.85288 0.85694 0.75345 0.0
O128 O 0.89341 0.90538 0.73882 0.0
O129 O 0.77476 0.87871 0.69584 0.0
C130 C 0.20562 0.16217 0.65276 0.0
O131 O 0.18459 0.20044 0.66492 0.0
O132 O 0.12714 0.01426 0.71114 0.0
Zn133 Zn 0.10057 0.05621 0.68118 0.0
O134 O 0.07244 0.12248 0.69665 0.0
C135 C -0.00525 0.92339 0.67078 0.0
O136 O 0.03613 0.90481 0.68263 0.0
O137 O 0.17675 0.09974 0.65637 0.0
C138 C 0.01939 0.12525 0.68833 0.0
O139 O -0.01126 0.092 0.66734 0.0
C140 C 0.08354 -0.00469 0.72885 0.0
O141 O 0.0305 0.00676 0.72655 0.0
O142 O 0.01557 -0.01601 0.66485 0.0
C143 C 0.73547 0.12252 0.72841 0.0
O144 O 0.70303 0.05933 0.73417 0.0
O145 O 0.91482 0.12976 0.76736 0.0
Zn146 Zn 0.85589 0.1037 0.73488 0.0
O147 O 0.79412 0.00517 0.73501 0.0
C148 C -0.01812 0.14651 0.70606 0.0
O149 O 0.01257 0.18098 0.72681 0.0
O150 O 0.80001 0.15215 0.72904 0.0
C151 C 0.77388 -0.02632 0.71374 0.0
O152 O 0.78977 0.00657 0.69212 0.0
C153 C 0.94274 0.09178 0.77076 0.0
O154 O 0.92827 0.04202 0.75462 0.0
O155 O 0.91748 0.11624 0.70485 0.0
C156 C 0.96071 0.44153 0.52065 0.0
O157 O 0.94338 0.38526 0.53266 0.0
O158 O 0.79744 0.32109 0.53032 0.0
Zn159 Zn 0.83089 0.41938 0.53695 0.0
O160 O 0.83287 0.44155 0.57487 0.0
C161 C 0.71888 0.39892 0.50418 0.0
O162 O 0.73678 0.358 0.4922 0.0
O163 O 0.92093 0.46836 0.52036 0.0
C164 C 0.80497 0.47707 0.58255 0.0
O165 O 0.77861 0.50257 0.5658 0.0
C166 C 0.79614 0.27467 0.54434 0.0
O167 O 0.82151 0.28798 0.56786 0.0
O168 O 0.75824 0.43845 0.52121 0.0
C169 C 0.49102 0.37679 0.46444 0.0
O170 O 0.55604 0.40925 0.46984 0.0
O171 O 0.60446 0.33019 0.49378 0.0
Zn172 Zn 0.50359 0.28617 0.49939 0.0
O173 O 0.4851 0.31139 0.5348 0.0
C174 C 0.5193 0.16814 0.49795 0.0
O175 O 0.57182 0.20435 0.48394 0.0
O176 O 0.45672 0.31877 0.47338 0.0
C177 C 0.44867 0.26865 0.5511 0.0
O178 O 0.42059 0.20501 0.54525 0.0
C179 C 0.64728 0.38387 0.50437 0.0
O180 O 0.62642 0.41716 0.5197 0.0
O181 O 0.47382 0.18715 0.50122 0.0
C182 C 0.54461 0.96262 0.53943 0.0
O183 O 0.50225 -0.01845 0.54984 0.0
O184 O 0.58646 0.13152 0.52199 0.0
Zn185 Zn 0.62628 0.09598 0.54976 0.0
O186 O 0.5861 0.09677 0.58446 0.0
C187 C 0.75082 0.20617 0.53623 0.0
O188 O 0.72084 0.19603 0.51352 0.0
O189 O 0.6071 0.0036 0.53853 0.0
C190 C 0.62498 0.11893 0.60421 0.0
O191 O 0.69028 0.13819 0.60224 0.0
C192 C 0.52692 0.12409 0.51701 0.0
O193 O 0.47677 0.08834 0.53213 0.0
O194 O 0.72525 0.16229 0.55332 0.0
C195 C 0.74384 0.61698 0.67461 0.0
O196 O 0.6856 0.59896 0.66246 0.0
O197 O 0.6244 0.45535 0.65964 0.0
Zn198 Zn 0.72556 0.49293 0.65488 0.0
O199 O 0.75107 0.50133 0.61741 0.0
C200 C 0.70904 0.3802 0.68388 0.0
O201 O 0.66466 0.393 0.69617 0.0
O202 O 0.77274 0.57937 0.67403 0.0
C203 C 0.79509 0.48321 0.61 0.0
O204 O 0.82657 0.46336 0.62689 0.0
C205 C 0.57776 0.45269 0.64445 0.0
O206 O 0.59327 0.48009 0.62173 0.0
O207 O 0.74849 0.42228 0.66826 0.0
C208 C 0.26878 0.19176 0.63847 0.0
O209 O 0.29051 0.1528 0.62727 0.0
O210 O 0.44252 0.24132 0.65716 0.0
Zn211 Zn 0.40406 0.2804 0.63028 0.0
O212 O 0.41028 0.24845 0.59424 0.0
C213 C 0.50799 0.40388 0.64987 0.0
O214 O 0.49637 0.3711 0.67149 0.0
O215 O 0.30795 0.25374 0.64041 0.0
C216 C 0.43954 0.29052 0.57667 0.0
O217 O 0.46372 0.35436 0.58162 0.0
C218 C 0.43696 0.1836 0.66146 0.0
O219 O 0.40192 0.13408 0.64554 0.0
O220 O 0.46634 0.37935 0.63115 0.0
C221 C 0.6991 0.15552 0.71619 0.0
O222 O 0.73397 0.21687 0.70857 0.0
O223 O 0.64555 0.26609 0.69135 0.0
Zn224 Zn 0.60552 0.1683 0.68256 0.0
O225 O 0.63813 0.15548 0.64772 0.0
C226 C 0.48189 0.17751 0.68118 0.0
O227 O 0.51553 0.22867 0.69657 0.0
O228 O 0.63766 0.12233 0.70866 0.0
C229 C 0.59788 0.12536 0.62899 0.0
O230 O 0.53213 0.10134 0.63164 0.0
C231 C 0.69811 0.31142 0.68154 0.0
O232 O 0.73304 0.29558 0.66502 0.0
O233 O 0.50428 0.13515 0.67775 0.0
C234 C 0.37658 0.13832 0.17354 0.0
O235 O 0.38729 0.18612 0.1572 0.0
O236 O 0.48329 0.15471 0.11808 0.0
Zn237 Zn 0.50464 0.16603 0.15615 0.0
O238 O 0.54322 0.26377 0.16454 0.0
C239 C 0.59781 0.11273 0.14477 0.0
O240 O 0.55611 0.08422 0.12528 0.0
O241 O 0.42114 0.11781 0.17668 0.0
C242 C 0.5923 0.29152 0.18052 0.0
O243 O 0.61446 0.25499 0.19337 0.0
C244 C 0.53084 0.19438 0.10411 0.0
O245 O 0.58612 0.24028 0.11508 0.0
O246 O 0.58028 0.14048 0.16254 0.0
C247 C 0.81228 0.08555 0.11495 0.0
O248 O 0.7485 0.05587 0.10728 0.0
O249 O 0.80248 0.24632 0.07795 0.0
Zn250 Zn 0.79277 0.20344 0.11283 0.0
O251 O 0.6934 0.14446 0.11881 0.0
C252 C 0.84827 0.33781 0.13593 0.0
O253 O 0.87124 0.35925 0.11295 0.0
O254 O 0.84279 0.14862 0.11725 0.0
C255 C 0.6703 0.13416 0.14147 0.0
O256 O 0.71226 0.15878 0.16121 0.0
C257 C 0.76166 0.2715 0.07493 0.0
O258 O 0.71904 0.26518 0.09325 0.0
O259 O 0.82023 0.27571 0.14024 0.0
C260 C 0.87782 0.57829 0.18428 0.0
O261 O 0.91707 0.56067 0.17084 0.0
O262 O 0.711 0.47577 0.13164 0.0
Zn263 Zn 0.76542 0.46169 0.1609 0.0
O264 O 0.82933 0.43082 0.14455 0.0
C265 C 0.63545 0.36302 0.17848 0.0
O266 O 0.61183 0.39961 0.16652 0.0
O267 O 0.81379 0.54372 0.18296 0.0
C268 C 0.83483 0.38114 0.15365 0.0
O269 O 0.80895 0.35807 0.17613 0.0
C270 C 0.68629 0.42623 0.11619 0.0
O271 O 0.70037 0.37623 0.12005 0.0
O272 O 0.69909 0.38408 0.18112 0.0
C273 C 0.43473 0.01288 0.01686 0.0
O274 O 0.48719 0.0297 0.03255 0.0
O275 O 0.47789 0.13886 0.06494 0.0
Zn276 Zn 0.47629 0.14373 0.02622 0.0
O277 O 0.57098 0.16898 0.01409 0.0
C278 C 0.43695 0.24572 0.03466 0.0
O279 O 0.41155 0.21265 0.05573 0.0
O280 O 0.41508 0.05594 0.01076 0.0
C281 C 0.59683 0.20827 0.99549 0.0
O282 O 0.55993 0.23063 0.98263 0.0
C283 C 0.52613 0.18813 0.07608 0.0
O284 O 0.57175 0.23475 0.06215 0.0
O285 O 0.45516 0.21871 0.0169 0.0
C286 C 0.89289 0.4628 0.97204 0.0
O287 O 0.86822 0.50348 0.97908 0.0
O288 O 0.8051 0.32156 0.0344 0.0
Zn289 Zn 0.78739 0.36822 0.00397 0.0
O290 O 0.77085 0.44241 0.01921 0.0
C291 C 0.67072 0.24219 0.99364 0.0
O292 O 0.70665 0.21755 0.00577 0.0
O293 O 0.86561 0.40306 0.97974 0.0
C294 C 0.72095 0.45126 0.01117 0.0
O295 O 0.68782 0.41999 0.99022 0.0
C296 C 0.76123 0.30823 0.05183 0.0
O297 O 0.71322 0.32685 0.04884 0.0
O298 O 0.69846 0.30313 0.98751 0.0
C299 C 0.44538 0.46596 0.05081 0.0
O300 O 0.41289 0.40593 0.06009 0.0
O301 O 0.61884 0.46451 0.09099 0.0
Zn302 Zn 0.56241 0.44335 0.05782 0.0
O303 O 0.49517 0.34669 0.0573 0.0
C304 C 0.68772 0.47641 0.02934 0.0
O305 O 0.72029 0.50773 0.05037 0.0
O306 O 0.50996 0.49474 0.05058 0.0
C307 C 0.4695 0.31812 0.03593 0.0
O308 O 0.48643 0.35242 0.01464 0.0
C309 C 0.64161 0.42227 0.0944 0.0
O310 O 0.62482 0.37326 0.07772 0.0
O311 O 0.62344 0.45163 0.02807 0.0
C312 C 0.65391 0.77278 0.8716 0.0
O313 O 0.65615 0.73268 0.88938 0.0
O314 O 0.52633 0.63911 0.89646 0.0
Zn315 Zn 0.52467 0.72795 0.89238 0.0
O316 O 0.53108 0.77606 0.92579 0.0
C317 C 0.41309 0.73202 0.86028 0.0
O318 O 0.4573 0.78158 0.847 0.0
O319 O 0.60134 0.78192 0.86907 0.0
C320 C 0.50261 0.81421 0.92677 0.0
O321 O 0.47619 0.82577 0.90579 0.0
C322 C 0.49111 0.59361 0.88025 0.0
O323 O 0.45387 0.60491 0.86303 0.0
O324 O 0.43258 0.70647 0.87818 0.0
C325 C 0.21035 0.76123 0.80005 0.0
O326 O 0.26017 0.79359 0.81656 0.0
O327 O 0.31896 0.71774 0.83379 0.0
Zn328 Zn 0.2215 0.65588 0.82478 0.0
O329 O 0.16596 0.64401 0.85678 0.0
C330 C 0.27393 0.56233 0.81465 0.0
O331 O 0.32893 0.61545 0.80834 0.0
O332 O 0.18584 0.69819 0.79818 0.0
C333 C 0.14142 0.59201 0.87049 0.0
O334 O 0.1507 0.54028 0.8641 0.0
C335 C 0.34083 0.70162 0.85387 0.0
O336 O 0.29905 0.65081 0.86727 0.0
O337 O 0.21842 0.56617 0.81679 0.0
C338 C 0.23159 0.33462 0.86258 0.0
O339 O 0.20207 0.36132 0.87715 0.0
O340 O 0.33882 0.52101 0.8383 0.0
Zn341 Zn 0.35171 0.46431 0.86626 0.0
O342 O 0.32378 0.48687 0.90063 0.0
C343 C 0.4987 0.53257 0.87817 0.0
O344 O 0.55746 0.53376 0.88359 0.0
O345 O 0.29326 0.36833 0.85654 0.0
C346 C 0.35402 0.48737 0.92174 0.0
O347 O 0.4036 0.47043 0.92195 0.0
C348 C 0.28136 0.50899 0.82829 0.0
O349 O 0.22703 0.45607 0.83525 0.0
O350 O 0.44929 0.47858 0.87037 0.0
C351 C 0.40399 0.94713 0.00484 0.0
O352 O 0.35393 0.93064 0.98802 0.0
O353 O 0.28949 0.7771 0.98967 0.0
Zn354 Zn 0.39199 0.82261 0.98969 0.0
O355 O 0.42986 0.83524 0.9541 0.0
C356 C 0.37717 0.70432 0.01402 0.0
O357 O 0.31971 0.70129 0.02193 0.0
O358 O 0.42936 0.9076 0.00922 0.0
C359 C 0.48567 0.83208 0.95171 0.0
O360 O 0.51978 0.83009 0.97228 0.0
C361 C 0.2512 0.76144 0.96981 0.0
O362 O 0.27767 0.78307 0.94727 0.0
O363 O 0.42078 0.75736 0.00423 0.0
C364 C 0.95778 0.48837 0.95893 0.0
O365 O -0.01665 0.4476 0.95314 0.0
O366 O 0.12801 0.53795 0.97585 0.0
Zn367 Zn 0.09158 0.57757 0.9485 0.0
O368 O 0.10475 0.55171 0.91252 0.0
C369 C 0.18372 0.70447 0.9713 0.0
O370 O 0.16526 0.67198 0.99296 0.0
O371 O -0.00579 0.55064 0.95674 0.0
C372 C 0.11177 0.59415 0.89528 0.0
O373 O 0.10195 0.64589 0.90112 0.0
C374 C 0.13387 0.48437 0.97642 0.0
O375 O 0.11514 0.44409 0.95634 0.0
O376 O 0.15292 0.67651 0.95056 0.0
C377 C 0.40833 0.49364 0.03564 0.0
O378 O 0.44193 0.55279 0.02579 0.0
O379 O 0.32987 0.58814 0.01289 0.0
Zn380 Zn 0.31193 0.49689 1.00089 0.0
O381 O 0.35755 0.4977 0.96733 0.0
C382 C 0.17641 0.47738 0.99695 0.0
O383 O 0.19577 0.52062 0.01607 0.0
O384 O 0.34742 0.45703 0.02819 0.0
C385 C 0.33017 0.50159 0.94609 0.0
O386 O 0.27663 0.51252 0.94615 0.0
C387 C 0.38111 0.64266 0.00844 0.0
O388 O 0.42998 0.6434 0.99416 0.0
O389 O 0.21198 0.44778 0.99169 0.0
C390 C 0.02464 0.47208 0.50703 0.0
O391 O 0.04185 0.52828 0.49496 0.0
O392 O 0.13254 0.48532 0.44876 0.0
Zn393 Zn 0.14888 0.49308 0.48717 0.0
O394 O 0.18768 0.59 0.4969 0.0
C395 C 0.24165 0.43908 0.47676 0.0
O396 O 0.20153 0.4119 0.45675 0.0
O397 O 0.06324 0.444 0.50636 0.0
C398 C 0.23327 0.61538 0.51433 0.0
O399 O 0.25234 0.57693 0.5275 0.0
C400 C 0.18288 0.52569 0.43609 0.0
O401 O 0.23657 0.56988 0.44849 0.0
O402 O 0.22284 0.46589 0.49446 0.0
C403 C 0.4567 0.41332 0.45342 0.0
O404 O 0.39104 0.38279 0.44889 0.0
O405 O 0.45621 0.58122 0.41403 0.0
Zn406 Zn 0.44004 0.53295 0.44808 0.0
O407 O 0.33968 0.4746 0.45194 0.0
C408 C 0.49392 0.66435 0.47379 0.0
O409 O 0.52078 0.68878 0.45158 0.0
O410 O 0.48845 0.47653 0.45273 0.0
C411 C 0.31436 0.46087 0.47422 0.0
O412 O 0.35445 0.48202 0.49462 0.0
C413 C 0.41678 0.60793 0.41083 0.0
O414 O 0.37135 0.59921 0.42829 0.0
O415 O 0.46436 0.60168 0.47677 0.0
C416 C 0.51768 0.8991 0.52543 0.0
O417 O 0.55867 0.87995 0.51403 0.0
O418 O 0.35773 0.80258 0.46894 0.0
Zn419 Zn 0.40873 0.78621 0.49882 0.0
O420 O 0.47465 0.75678 0.48323 0.0
C421 C 0.27698 0.68698 0.51395 0.0
O422 O 0.2554 0.72536 0.5021 0.0
O423 O 0.45397 0.86666 0.52181 0.0
C424 C 0.47834 0.70569 0.49178 0.0
O425 O 0.44898 0.67982 0.51348 0.0
C426 C 0.33482 0.75458 0.45278 0.0
O427 O 0.34848 0.70422 0.45635 0.0
O428 O 0.34017 0.70717 0.51765 0.0
C429 C 0.11384 0.35671 0.34267 0.0
O430 O 0.16792 0.37462 0.35756 0.0
O431 O 0.13769 0.4735 0.39557 0.0
Zn432 Zn 0.14291 0.48351 0.35702 0.0
O433 O 0.24015 0.51425 0.3471 0.0
C434 C 0.09951 0.58331 0.36578 0.0
O435 O 0.07188 0.5482 0.38621 0.0
O436 O 0.0884 0.39668 0.33923 0.0
C437 C 0.26688 0.55486 0.32897 0.0
O438 O 0.22981 0.57586 0.31547 0.0
C439 C 0.1832 0.52215 0.40803 0.0
O440 O 0.23063 0.57072 0.39543 0.0
O441 O 0.12029 0.55823 0.34812 0.0
C442 C 0.55872 0.81649 0.31204 0.0
O443 O 0.53266 0.85533 0.31995 0.0
O444 O 0.46785 0.66573 0.37222 0.0
Zn445 Zn 0.45336 0.7167 0.34244 0.0
O446 O 0.43348 0.78776 0.35855 0.0
C447 C 0.34076 0.59121 0.32838 0.0
O448 O 0.37698 0.56613 0.34001 0.0
O449 O 0.53299 0.75612 0.31898 0.0
C450 C 0.38506 0.79775 0.3496 0.0
O451 O 0.35623 0.77003 0.32755 0.0
C452 C 0.42055 0.64868 0.38845 0.0
O453 O 0.37265 0.66718 0.38483 0.0
O454 O 0.36706 0.65317 0.32407 0.0
C455 C 0.10346 0.80522 0.38657 0.0
O456 O 0.06982 0.74324 0.39378 0.0
O457 O 0.27022 0.79545 0.42731 0.0
Zn458 Zn 0.21839 0.77958 0.39324 0.0
O459 O 0.15137 0.68261 0.39002 0.0
C460 C 0.34797 0.81934 0.36738 0.0
O461 O 0.37654 0.84766 0.38938 0.0
O462 O 0.16799 0.83335 0.38702 0.0
C463 C 0.13067 0.65574 0.36797 0.0
O464 O 0.15176 0.69198 0.34728 0.0
C465 C 0.29284 0.75301 0.43042 0.0
O466 O 0.27854 0.70628 0.4129 0.0
O467 O 0.28391 0.79365 0.36459 0.0
loop_
_geom_bond_atom_site_label_1
_geom_bond_atom_site_label_2
_geom_bond_distance
_geom_bond_site_symmetry_2
_ccdc_geom_bond_type
C0 O1 1.160 . S
C0 O7 1.185 . S
O1 C0 1.160 . S
O2 Zn3 1.899 . S
O2 C10 1.284 . S
Zn3 O2 1.899 . S
Zn3 O4 2.032 . S
Zn3 O7 2.086 . S
Zn3 O12 1.977 . S
O4 Zn3 2.032 . S
O4 C8 1.278 . S
C5 O6 1.203 . S
C5 O12 1.267 . S
O6 C5 1.203 . S
O7 C0 1.185 . S
O7 Zn3 2.086 . S
C8 O4 1.278 . S
C8 O9 1.211 . S
O9 C8 1.211 . S
C10 O2 1.284 . S
C10 O11 1.273 . S
O11 C10 1.273 . S
O12 Zn3 1.977 . S
O12 C5 1.267 . S
C13 O14 1.160 . S
C13 O20 1.185 . S
O14 C13 1.160 . S
O15 Zn16 1.899 . S
O15 C23 1.284 . S
Zn16 O15 1.899 . S
Zn16 O17 2.032 . S
Zn16 O20 2.086 . S
Zn16 O25 1.977 1_545 S
O17 Zn16 2.032 . S
O17 C21 1.278 1_545 S
C18 O19 1.203 . S
C18 O25 1.267 . S
O19 C18 1.203 . S
O20 C13 1.185 . S
O20 Zn16 2.086 . S
C21 O17 1.278 1_565 S
C21 O22 1.211 . S
O22 C21 1.211 . S
C23 O15 1.284 . S
C23 O24 1.273 . S
O24 C23 1.273 . S
O25 Zn16 1.977 1_565 S
O25 C18 1.267 . S
C26 O27 1.160 . S
C26 O33 1.185 . S
O27 C26 1.160 . S
O28 Zn29 1.899 . S
O28 C36 1.284 . S
Zn29 O28 1.899 . S
Zn29 O30 2.032 . S
Zn29 O33 2.086 . S
Zn29 O38 1.977 1_655 S
O30 Zn29 2.032 . S
O30 C34 1.278 1_655 S
C31 O32 1.203 . S
C31 O38 1.267 . S
O32 C31 1.203 . S
O33 C26 1.185 . S
O33 Zn29 2.086 . S
C34 O30 1.278 1_455 S
C34 O35 1.211 . S
O35 C34 1.211 . S
C36 O28 1.284 . S
C36 O37 1.273 . S
O37 C36 1.273 . S
O38 Zn29 1.977 1_455 S
O38 C31 1.267 . S
C39 O40 1.160 . S
C39 O46 1.185 . S
O40 C39 1.160 . S
O41 Zn42 1.899 . S
O41 C49 1.284 . S
Zn42 O41 1.899 . S
Zn42 O43 2.032 . S
Zn42 O46 2.086 . S
Zn42 O51 1.977 . S
O43 Zn42 2.032 . S
O43 C47 1.278 . S
C44 O45 1.203 . S
C44 O51 1.267 . S
O45 C44 1.203 . S
O46 C39 1.185 . S
O46 Zn42 2.086 . S
C47 O43 1.278 . S
C47 O48 1.211 . S
O48 C47 1.211 . S
C49 O41 1.284 . S
C49 O50 1.273 . S
O50 C49 1.273 . S
O51 Zn42 1.977 . S
O51 C44 1.267 . S
C52 O53 1.160 . S
C52 O59 1.185 . S
O53 C52 1.160 . S
O54 Zn55 1.899 . S
O54 C62 1.284 . S
Zn55 O54 1.899 . S
Zn55 O56 2.032 . S
Zn55 O59 2.086 . S
Zn55 O64 1.977 1_565 S
O56 Zn55 2.032 . S
O56 C60 1.278 1_565 S
C57 O58 1.203 . S
C57 O64 1.267 . S
O58 C57 1.203 . S
O59 C52 1.185 . S
O59 Zn55 2.086 . S
C60 O56 1.278 1_545 S
C60 O61 1.211 . S
O61 C60 1.211 . S
C62 O54 1.284 . S
C62 O63 1.273 . S
O63 C62 1.273 . S
O64 Zn55 1.977 1_545 S
O64 C57 1.267 . S
C65 O66 1.160 . S
C65 O72 1.185 . S
O66 C65 1.160 . S
O67 Zn68 1.899 . S
O67 C75 1.284 . S
Zn68 O67 1.899 . S
Zn68 O69 2.032 . S
Zn68 O72 2.086 . S
Zn68 O77 1.977 1_455 S
O69 Zn68 2.032 . S
O69 C73 1.278 1_455 S
C70 O71 1.203 . S
C70 O77 1.267 . S
O71 C70 1.203 . S
O72 C65 1.185 . S
O72 Zn68 2.086 . S
C73 O69 1.278 1_655 S
C73 O74 1.211 . S
O74 C73 1.211 . S
C75 O67 1.284 . S
C75 O76 1.273 . S
O76 C75 1.273 . S
O77 Zn68 1.977 1_655 S
O77 C70 1.267 . S
C78 O79 1.160 . S
C78 O85 1.185 . S
O79 C78 1.160 . S
O80 Zn81 1.899 . S
O80 C88 1.284 . S
Zn81 O80 1.899 . S
Zn81 O82 2.032 . S
Zn81 O85 2.086 . S
Zn81 O90 1.977 . S
O82 Zn81 2.032 . S
O82 C86 1.278 . S
C83 O84 1.203 . S
C83 O90 1.267 . S
O84 C83 1.203 . S
O85 C78 1.185 . S
O85 Zn81 2.086 . S
C86 O82 1.278 . S
C86 O87 1.211 . S
O87 C86 1.211 . S
C88 O80 1.284 . S
C88 O89 1.273 . S
O89 C88 1.273 . S
O90 Zn81 1.977 . S
O90 C83 1.267 . S
C91 O92 1.160 . S
C91 O98 1.185 . S
O92 C91 1.160 . S
O93 Zn94 1.899 1_545 S
O93 C101 1.284 1_545 S
Zn94 O93 1.899 1_565 S
Zn94 O95 2.032 . S
Zn94 O98 2.086 . S
Zn94 O103 1.977 1_565 S
O95 Zn94 2.032 . S
O95 C99 1.278 . S
C96 O97 1.203 . S
C96 O103 1.267 . S
O97 C96 1.203 . S
O98 C91 1.185 . S
O98 Zn94 2.086 . S
C99 O95 1.278 . S
C99 O100 1.211 . S
O100 C99 1.211 . S
C101 O93 1.284 1_565 S
C101 O102 1.273 . S
O102 C101 1.273 . S
O103 Zn94 1.977 1_545 S
O103 C96 1.267 . S
C104 O105 1.160 . S
C104 O111 1.185 . S
O105 C104 1.160 . S
O106 Zn107 1.899 1_655 S
O106 C114 1.284 1_655 S
Zn107 O106 1.899 1_455 S
Zn107 O108 2.032 . S
Zn107 O111 2.086 . S
Zn107 O116 1.977 1_455 S
O108 Zn107 2.032 . S
O108 C112 1.278 . S
C109 O110 1.203 . S
C109 O116 1.267 . S
O110 C109 1.203 . S
O111 C104 1.185 . S
O111 Zn107 2.086 . S
C112 O108 1.278 . S
C112 O113 1.211 . S
O113 C112 1.211 . S
C114 O106 1.284 1_455 S
C114 O115 1.273 . S
O115 C114 1.273 . S
O116 Zn107 1.977 1_655 S
O116 C109 1.267 . S
C117 O118 1.160 . S
C117 O124 1.185 . S
O118 C117 1.160 . S
O119 Zn120 1.899 . S
O119 C127 1.284 . S
Zn120 O119 1.899 . S
Zn120 O121 2.032 . S
Zn120 O124 2.086 . S
Zn120 O129 1.977 . S
O121 Zn120 2.032 . S
O121 C125 1.278 . S
C122 O123 1.203 . S
C122 O129 1.267 . S
O123 C122 1.203 . S
O124 C117 1.185 . S
O124 Zn120 2.086 . S
C125 O121 1.278 . S
C125 O126 1.211 . S
O126 C125 1.211 . S
C127 O119 1.284 . S
C127 O128 1.273 . S
O128 C127 1.273 . S
O129 Zn120 1.977 . S
O129 C122 1.267 . S
C130 O131 1.160 . S
C130 O137 1.185 . S
O131 C130 1.160 . S
O132 Zn133 1.899 1_565 S
O132 C140 1.284 1_565 S
Zn133 O132 1.899 1_545 S
Zn133 O134 2.032 . S
Zn133 O137 2.086 . S
Zn133 O142 1.977 1_545 S
O134 Zn133 2.032 . S
O134 C138 1.278 . S
C135 O136 1.203 . S
C135 O142 1.267 . S
O136 C135 1.203 . S
O137 C130 1.185 . S
O137 Zn133 2.086 . S
C138 O134 1.278 . S
C138 O139 1.211 . S
O139 C138 1.211 . S
C140 O132 1.284 1_545 S
C140 O141 1.273 . S
O141 C140 1.273 . S
O142 Zn133 1.977 1_565 S
O142 C135 1.267 . S
C143 O144 1.160 . S
C143 O150 1.185 . S
O144 C143 1.160 . S
O145 Zn146 1.899 1_455 S
O145 C153 1.284 1_455 S
Zn146 O145 1.899 1_655 S
Zn146 O147 2.032 . S
Zn146 O150 2.086 . S
Zn146 O155 1.977 1_655 S
O147 Zn146 2.032 . S
O147 C151 1.278 . S
C148 O149 1.203 . S
C148 O155 1.267 . S
O149 C148 1.203 . S
O150 C143 1.185 . S
O150 Zn146 2.086 . S
C151 O147 1.278 . S
C151 O152 1.211 . S
O152 C151 1.211 . S
C153 O145 1.284 1_655 S
C153 O154 1.273 . S
O154 C153 1.273 . S
O155 Zn146 1.977 1_455 S
O155 C148 1.267 . S
C156 O157 1.160 . S
C156 O163 1.185 . S
O157 C156 1.160 . S
O158 Zn159 1.899 . S
O158 C166 1.284 . S
Zn159 O158 1.899 . S
Zn159 O160 2.032 . S
Zn159 O163 2.086 . S
Zn159 O168 1.977 . S
O160 Zn159 2.032 . S
O160 C164 1.278 . S
C161 O162 1.203 . S
C161 O168 1.267 . S
O162 C161 1.203 . S
O163 C156 1.185 . S
O163 Zn159 2.086 . S
C164 O160 1.278 . S
C164 O165 1.211 . S
O165 C164 1.211 . S
C166 O158 1.284 . S
C166 O167 1.273 . S
O167 C166 1.273 . S
O168 Zn159 1.977 . S
O168 C161 1.267 . S
C169 O170 1.160 . S
C169 O176 1.185 . S
O170 C169 1.160 . S
O171 Zn172 1.899 . S
O171 C179 1.284 . S
Zn172 O171 1.899 . S
Zn172 O173 2.032 . S
Zn172 O176 2.086 . S
Zn172 O181 1.977 . S
O173 Zn172 2.032 . S
O173 C177 1.278 . S
C174 O175 1.203 . S
C174 O181 1.267 . S
O175 C174 1.203 . S
O176 C169 1.185 . S
O176 Zn172 2.086 . S
C177 O173 1.278 . S
C177 O178 1.211 . S
O178 C177 1.211 . S
C179 O171 1.284 . S
C179 O180 1.273 . S
O180 C179 1.273 . S
O181 Zn172 1.977 . S
O181 C174 1.267 . S
C182 O183 1.160 . S
C182 O189 1.185 . S
O183 C182 1.160 . S
O184 Zn185 1.899 . S
O184 C192 1.284 . S
Zn185 O184 1.899 . S
Zn185 O186 2.032 . S
Zn185 O189 2.086 . S
Zn185 O194 1.977 . S
O186 Zn185 2.032 . S
O186 C190 1.278 . S
C187 O188 1.203 . S
C187 O194 1.267 . S
O188 C187 1.203 . S
O189 C182 1.185 . S
O189 Zn185 2.086 . S
C190 O186 1.278 . S
C190 O191 1.211 . S
O191 C190 1.211 . S
C192 O184 1.284 . S
C192 O193 1.273 . S
O193 C192 1.273 . S
O194 Zn185 1.977 . S
O194 C187 1.267 . S
C195 O196 1.160 . S
C195 O202 1.185 . S
O196 C195 1.160 . S
O197 Zn198 1.899 . S
O197 C205 1.284 . S
Zn198 O197 1.899 . S
Zn198 O199 2.032 . S
Zn198 O202 2.086 . S
Zn198 O207 1.977 . S
O199 Zn198 2.032 . S
O199 C203 1.278 . S
C200 O201 1.203 . S
C200 O207 1.267 . S
O201 C200 1.203 . S
O202 C195 1.185 . S
O202 Zn198 2.086 . S
C203 O199 1.278 . S
C203 O204 1.211 . S
O204 C203 1.211 . S
C205 O197 1.284 . S
C205 O206 1.273 . S
O206 C205 1.273 . S
O207 Zn198 1.977 . S
O207 C200 1.267 . S
C208 O209 1.160 . S
C208 O215 1.185 . S
O209 C208 1.160 . S
O210 Zn211 1.899 . S
O210 C218 1.284 . S
Zn211 O210 1.899 . S
Zn211 O212 2.032 . S
Zn211 O215 2.086 . S
Zn211 O220 1.977 . S
O212 Zn211 2.032 . S
O212 C216 1.278 . S
C213 O214 1.203 . S
C213 O220 1.267 . S
O214 C213 1.203 . S
O215 C208 1.185 . S
O215 Zn211 2.086 . S
C216 O212 1.278 . S
C216 O217 1.211 . S
O217 C216 1.211 . S
C218 O210 1.284 . S
C218 O219 1.273 . S
O219 C218 1.273 . S
O220 Zn211 1.977 . S
O220 C213 1.267 . S
C221 O222 1.160 . S
C221 O228 1.185 . S
O222 C221 1.160 . S
O223 Zn224 1.899 . S
O223 C231 1.284 . S
Zn224 O223 1.899 . S
Zn224 O225 2.032 . S
Zn224 O228 2.086 . S
Zn224 O233 1.977 . S
O225 Zn224 2.032 . S
O225 C229 1.278 . S
C226 O227 1.203 . S
C226 O233 1.267 . S
O227 C226 1.203 . S
O228 C221 1.185 . S
O228 Zn224 2.086 . S
C229 O225 1.278 . S
C229 O230 1.211 . S
O230 C229 1.211 . S
C231 O223 1.284 . S
C231 O232 1.273 . S
O232 C231 1.273 . S
O233 Zn224 1.977 . S
O233 C226 1.267 . S
C234 O235 1.160 . S
C234 O241 1.185 . S
O235 C234 1.160 . S
O236 Zn237 1.899 . S
O236 C244 1.284 . S
Zn237 O236 1.899 . S
Zn237 O238 2.032 . S
Zn237 O241 2.086 . S
Zn237 O246 1.977 . S
O238 Zn237 2.032 . S
O238 C242 1.278 . S
C239 O240 1.203 . S
C239 O246 1.267 . S
O240 C239 1.203 . S
O241 C234 1.185 . S
O241 Zn237 2.086 . S
C242 O238 1.278 . S
C242 O243 1.211 . S
O243 C242 1.211 . S
C244 O236 1.284 . S
C244 O245 1.273 . S
O245 C244 1.273 . S
O246 Zn237 1.977 . S
O246 C239 1.267 . S
C247 O248 1.160 . S
C247 O254 1.185 . S
O248 C247 1.160 . S
O249 Zn250 1.899 . S
O249 C257 1.284 . S
Zn250 O249 1.899 . S
Zn250 O251 2.032 . S
Zn250 O254 2.086 . S
Zn250 O259 1.977 . S
O251 Zn250 2.032 . S
O251 C255 1.278 . S
C252 O253 1.203 . S
C252 O259 1.267 . S
O253 C252 1.203 . S
O254 C247 1.185 . S
O254 Zn250 2.086 . S
C255 O251 1.278 . S
C255 O256 1.211 . S
O256 C255 1.211 . S
C257 O249 1.284 . S
C257 O258 1.273 . S
O258 C257 1.273 . S
O259 Zn250 1.977 . S
O259 C252 1.267 . S
C260 O261 1.160 . S
C260 O267 1.185 . S
O261 C260 1.160 . S
O262 Zn263 1.899 . S
O262 C270 1.284 . S
Zn263 O262 1.899 . S
Zn263 O264 2.032 . S
Zn263 O267 2.086 . S
Zn263 O272 1.977 . S
O264 Zn263 2.032 . S
O264 C268 1.278 . S
C265 O266 1.203 . S
C265 O272 1.267 . S
O266 C265 1.203 . S
O267 C260 1.185 . S
O267 Zn263 2.086 . S
C268 O264 1.278 . S
C268 O269 1.211 . S
O269 C268 1.211 . S
C270 O262 1.284 . S
C270 O271 1.273 . S
O271 C270 1.273 . S
O272 Zn263 1.977 . S
O272 C265 1.267 . S
C273 O274 1.118 1_556 S
C273 O280 1.200 . S
O274 C273 1.118 1_554 S
O275 Zn276 1.899 . S
O275 C283 1.284 . S
Zn276 O275 1.899 . S
Zn276 O277 2.032 . S
Zn276 O280 2.086 1_554 S
Zn276 O285 1.959 1_554 S
O277 Zn276 2.032 . S
O277 C281 1.278 . S
C278 O279 1.203 . S
C278 O285 1.251 1_554 S
O279 C278 1.203 . S
O280 C273 1.200 . S
O280 Zn276 2.086 1_556 S
C281 O277 1.278 . S
C281 O282 1.211 . S
O282 C281 1.211 . S
C283 O275 1.284 . S
C283 O284 1.273 . S
O284 C283 1.273 . S
O285 Zn276 1.959 1_556 S
O285 C278 1.251 1_556 S
C286 O287 1.118 1_556 S
C286 O293 1.201 . S
O287 C286 1.118 1_554 S
O288 Zn289 1.899 . S
O288 C296 1.284 . S
Zn289 O288 1.899 . S
Zn289 O290 2.032 . S
Zn289 O293 2.086 1_554 S
Zn289 O298 1.958 1_554 S
O290 Zn289 2.032 . S
O290 C294 1.278 . S
C291 O292 1.203 . S
C291 O298 1.250 1_554 S
O292 C291 1.203 . S
O293 C286 1.201 . S
O293 Zn289 2.086 1_556 S
C294 O290 1.278 . S
C294 O295 1.211 . S
O295 C294 1.211 . S
C296 O288 1.284 . S
C296 O297 1.273 . S
O297 C296 1.273 . S
O298 Zn289 1.958 1_556 S
O298 C291 1.250 1_556 S
C299 O300 1.118 1_556 S
C299 O306 1.200 . S
O300 C299 1.118 1_554 S
O301 Zn302 1.899 . S
O301 C309 1.284 . S
Zn302 O301 1.899 . S
Zn302 O303 2.032 . S
Zn302 O306 2.086 1_554 S
Zn302 O311 1.959 1_554 S
O303 Zn302 2.032 . S
O303 C307 1.278 . S
C304 O305 1.203 . S
C304 O311 1.251 1_554 S
O305 C304 1.203 . S
O306 C299 1.200 . S
O306 Zn302 2.086 1_556 S
C307 O303 1.278 . S
C307 O308 1.211 . S
O308 C307 1.211 . S
C309 O301 1.284 . S
C309 O310 1.273 . S
O310 C309 1.273 . S
O311 Zn302 1.959 1_556 S
O311 C304 1.251 1_556 S
C312 O313 1.160 . S
C312 O319 1.185 . S
O313 C312 1.160 . S
O314 Zn315 1.899 . S
O314 C322 1.284 . S
Zn315 O314 1.899 . S
Zn315 O316 2.032 . S
Zn315 O319 2.086 . S
Zn315 O324 1.977 . S
O316 Zn315 2.032 . S
O316 C320 1.278 . S
C317 O318 1.203 . S
C317 O324 1.267 . S
O318 C317 1.203 . S
O319 C312 1.185 . S
O319 Zn315 2.086 . S
C320 O316 1.278 . S
C320 O321 1.211 . S
O321 C320 1.211 . S
C322 O314 1.284 . S
C322 O323 1.273 . S
O323 C322 1.273 . S
O324 Zn315 1.977 . S
O324 C317 1.267 . S
C325 O326 1.160 . S
C325 O332 1.185 . S
O326 C325 1.160 . S
O327 Zn328 1.899 . S
O327 C335 1.284 . S
Zn328 O327 1.899 . S
Zn328 O329 2.032 . S
Zn328 O332 2.086 . S
Zn328 O337 1.977 . S
O329 Zn328 2.032 . S
O329 C333 1.278 . S
C330 O331 1.203 . S
C330 O337 1.267 . S
O331 C330 1.203 . S
O332 C325 1.185 . S
O332 Zn328 2.086 . S
C333 O329 1.278 . S
C333 O334 1.211 . S
O334 C333 1.211 . S
C335 O327 1.284 . S
C335 O336 1.273 . S
O336 C335 1.273 . S
O337 Zn328 1.977 . S
O337 C330 1.267 . S
C338 O339 1.160 . S
C338 O345 1.185 . S
O339 C338 1.160 . S
O340 Zn341 1.899 . S
O340 C348 1.284 . S
Zn341 O340 1.899 . S
Zn341 O342 2.032 . S
Zn341 O345 2.086 . S
Zn341 O350 1.977 . S
O342 Zn341 2.032 . S
O342 C346 1.278 . S
C343 O344 1.203 . S
C343 O350 1.267 . S
O344 C343 1.203 . S
O345 C338 1.185 . S
O345 Zn341 2.086 . S
C346 O342 1.278 . S
C346 O347 1.211 . S
O347 C346 1.211 . S
C348 O340 1.284 . S
C348 O349 1.273 . S
O349 C348 1.273 . S
O350 Zn341 1.977 . S
O350 C343 1.267 . S
C351 O352 1.160 1_554 S
C351 O358 1.185 . S
O352 C351 1.160 1_556 S
O353 Zn354 1.899 . S
O353 C361 1.284 . S
Zn354 O353 1.899 . S
Zn354 O355 2.032 . S
Zn354 O358 2.086 1_556 S
Zn354 O363 1.977 . S
O355 Zn354 2.032 . S
O355 C359 1.278 . S
C356 O357 1.203 . S
C356 O363 1.267 . S
O357 C356 1.203 . S
O358 C351 1.185 . S
O358 Zn354 2.086 1_554 S
C359 O355 1.278 . S
C359 O360 1.211 . S
O360 C359 1.211 . S
C361 O353 1.284 . S
C361 O362 1.273 . S
O362 C361 1.273 . S
O363 Zn354 1.977 . S
O363 C356 1.267 . S
C364 O365 1.160 1_554 S
C364 O371 1.185 . S
O365 C364 1.160 1_556 S
O366 Zn367 1.899 . S
O366 C374 1.284 . S
Zn367 O366 1.899 . S
Zn367 O368 2.032 . S
Zn367 O371 2.086 1_556 S
Zn367 O376 1.977 . S
O368 Zn367 2.032 . S
O368 C372 1.278 . S
C369 O370 1.203 . S
C369 O376 1.267 . S
O370 C369 1.203 . S
O371 C364 1.185 . S
O371 Zn367 2.086 1_554 S
C372 O368 1.278 . S
C372 O373 1.211 . S
O373 C372 1.211 . S
C374 O366 1.284 . S
C374 O375 1.273 . S
O375 C374 1.273 . S
O376 Zn367 1.977 . S
O376 C369 1.267 . S
C377 O378 1.160 1_554 S
C377 O384 1.185 . S
O378 C377 1.160 1_556 S
O379 Zn380 1.899 . S
O379 C387 1.284 . S
Zn380 O379 1.899 . S
Zn380 O381 2.032 . S
Zn380 O384 2.086 1_556 S
Zn380 O389 1.977 . S
O381 Zn380 2.032 . S
O381 C385 1.278 . S
C382 O383 1.203 . S
C382 O389 1.267 . S
O383 C382 1.203 . S
O384 C377 1.185 . S
O384 Zn380 2.086 1_554 S
C385 O381 1.278 . S
C385 O386 1.211 . S
O386 C385 1.211 . S
C387 O379 1.284 . S
C387 O388 1.273 . S
O388 C387 1.273 . S
O389 Zn380 1.977 . S
O389 C382 1.267 . S
C390 O391 1.160 . S
C390 O397 1.185 . S
O391 C390 1.160 . S
O392 Zn393 1.899 . S
O392 C400 1.284 . S
Zn393 O392 1.899 . S
Zn393 O394 2.032 . S
Zn393 O397 2.086 . S
Zn393 O402 1.977 . S
O394 Zn393 2.032 . S
O394 C398 1.278 . S
C395 O396 1.203 . S
C395 O402 1.267 . S
O396 C395 1.203 . S
O397 C390 1.185 . S
O397 Zn393 2.086 . S
C398 O394 1.278 . S
C398 O399 1.211 . S
O399 C398 1.211 . S
C400 O392 1.284 . S
C400 O401 1.273 . S
O401 C400 1.273 . S
O402 Zn393 1.977 . S
O402 C395 1.267 . S
C403 O404 1.160 . S
C403 O410 1.185 . S
O404 C403 1.160 . S
O405 Zn406 1.899 . S
O405 C413 1.284 . S
Zn406 O405 1.899 . S
Zn406 O407 2.032 . S
Zn406 O410 2.086 . S
Zn406 O415 1.977 . S
O407 Zn406 2.032 . S
O407 C411 1.278 . S
C408 O409 1.203 . S
C408 O415 1.267 . S
O409 C408 1.203 . S
O410 C403 1.185 . S
O410 Zn406 2.086 . S
C411 O407 1.278 . S
C411 O412 1.211 . S
O412 C411 1.211 . S
C413 O405 1.284 . S
C413 O414 1.273 . S
O414 C413 1.273 . S
O415 Zn406 1.977 . S
O415 C408 1.267 . S
C416 O417 1.160 . S
C416 O423 1.185 . S
O417 C416 1.160 . S
O418 Zn419 1.899 . S
O418 C426 1.284 . S
Zn419 O418 1.899 . S
Zn419 O420 2.032 . S
Zn419 O423 2.086 . S
Zn419 O428 1.977 . S
O420 Zn419 2.032 . S
O420 C424 1.278 . S
C421 O422 1.203 . S
C421 O428 1.267 . S
O422 C421 1.203 . S
O423 C416 1.185 . S
O423 Zn419 2.086 . S
C424 O420 1.278 . S
C424 O425 1.211 . S
O425 C424 1.211 . S
C426 O418 1.284 . S
C426 O427 1.273 . S
O427 C426 1.273 . S
O428 Zn419 1.977 . S
O428 C421 1.267 . S
C429 O430 1.160 . S
C429 O436 1.185 . S
O430 C429 1.160 . S
O431 Zn432 1.899 . S
O431 C439 1.284 . S
Zn432 O431 1.899 . S
Zn432 O433 2.032 . S
Zn432 O436 2.086 . S
Zn432 O441 1.977 . S
O433 Zn432 2.032 . S
O433 C437 1.278 . S
C434 O435 1.203 . S
C434 O441 1.267 . S
O435 C434 1.203 . S
O436 C429 1.185 . S
O436 Zn432 2.086 . S
C437 O433 1.278 . S
C437 O438 1.211 . S
O438 C437 1.211 . S
C439 O431 1.284 . S
C439 O440 1.273 . S
O440 C439 1.273 . S
O441 Zn432 1.977 . S
O441 C434 1.267 . S
C442 O443 1.160 . S
C442 O449 1.185 . S
O443 C442 1.160 . S
O444 Zn445 1.899 . S
O444 C452 1.284 . S
Zn445 O444 1.899 . S
Zn445 O446 2.032 . S
Zn445 O449 2.086 . S
Zn445 O454 1.977 . S
O446 Zn445 2.032 . S
O446 C450 1.278 . S
C447 O448 1.203 . S
C447 O454 1.267 . S
O448 C447 1.203 . S
O449 C442 1.185 . S
O449 Zn445 2.086 . S
C450 O446 1.278 . S
C450 O451 1.211 . S
O451 C450 1.211 . S
C452 O444 1.284 . S
C452 O453 1.273 . S
O453 C452 1.273 . S
O454 Zn445 1.977 . S
O454 C447 1.267 . S
C455 O456 1.160 . S
C455 O462 1.185 . S
O456 C455 1.160 . S
O457 Zn458 1.899 . S
O457 C465 1.284 . S
Zn458 O457 1.899 . S
Zn458 O459 2.032 . S
Zn458 O462 2.086 . S
Zn458 O467 1.977 . S
O459 Zn458 2.032 . S
O459 C463 1.278 . S
C460 O461 1.203 . S
C460 O467 1.267 . S
O461 C460 1.203 . S
O462 C455 1.185 . S
O462 Zn458 2.086 . S
C463 O459 1.278 . S
C463 O464 1.211 . S
O464 C463 1.211 . S
C465 O457 1.284 . S
C465 O466 1.273 . S
O466 C465 1.273 . S
O467 Zn458 1.977 . S
O467 C460 1.267 . S
C5 C23 1.747 1_455 S
C18 C36 1.748 . S
C10 C31 1.749 1_545 S
C44 C75 1.748 1_545 S
C57 C49 1.749 1_655 S
C62 C70 1.748 . S
C83 C99 1.813 1_655 S
C112 C96 1.814 . S
C86 C109 1.814 1_565 S
C151 C122 1.813 1_545 S
C135 C125 1.814 1_455 S
C148 C138 1.814 . S
C179 C161 1.748 . S
C174 C192 1.748 . S
C187 C166 1.749 . S
C200 C231 1.747 . S
C213 C205 1.749 . S
C226 C218 1.748 . S
C255 C239 1.813 . S
C252 C268 1.814 . S
C242 C265 1.814 . S
C307 C278 1.813 . S
C291 C281 1.814 . S
C294 C304 1.813 . S
C335 C317 1.748 . S
C330 C348 1.748 . S
C343 C322 1.749 . S
C387 C356 1.748 . S
C369 C361 1.749 . S
C374 C382 1.748 . S
C395 C411 1.813 . S
C408 C424 1.813 . S
C421 C398 1.814 . S
C463 C434 1.813 . S
C437 C447 1.814 . S
C460 C450 1.813 . S
C47 C8 1.634 . S
C21 C60 1.634 1_565 S
C73 C34 1.635 1_655 S
C127 C88 1.508 . S
C101 C140 1.508 1_565 S
C153 C114 1.508 1_655 S
C164 C203 1.634 . S
C177 C216 1.634 . S
C190 C229 1.634 . S
C283 C244 1.507 . S
C296 C257 1.508 . S
C270 C309 1.508 . S
C359 C320 1.634 . S
C372 C333 1.635 . S
C346 C385 1.634 . S
C400 C439 1.508 . S
C452 C413 1.508 . S
C426 C465 1.508 . S
C0 C234 2.575 . S
C13 C247 2.576 . S
C26 C260 2.578 . S
C429 C39 2.576 . S
C442 C52 2.578 . S
C65 C455 2.576 . S
C78 C312 2.575 . S
C325 C91 2.576 . S
C338 C104 2.578 . S
C195 C117 2.575 . S
C208 C130 2.578 . S
C221 C143 2.576 . S
C390 C156 2.575 1_455 S
C169 C403 2.577 . S
C182 C416 2.578 1_545 S
C273 C351 2.569 1_546 S
C286 C364 2.571 1_656 S
C377 C299 2.570 1_554 S
