# Generated by pormake.
# Topology unw, (4)-cn, num edge types: 1
# Building blocks:
#     Node 0, Type 0, BuildingBlock: QUQFOY_clean_sbu_1, # of connection points: 4
#     Node 1, Type 0, BuildingBlock: QUQFOY_clean_sbu_1, # of connection points: 4
#     Node 2, Type 0, BuildingBlock: QUQFOY_clean_sbu_1, # of connection points: 4
#     Node 3, Type 0, BuildingBlock: QUQFOY_clean_sbu_1, # of connection points: 4
#     Node 4, Type 0, BuildingBlock: QUQFOY_clean_sbu_1, # of connection points: 4
#     Node 5, Type 0, BuildingBlock: QUQFOY_clean_sbu_1, # of connection points: 4
#     Node 6, Type 0, BuildingBlock: QUQFOY_clean_sbu_1, # of connection points: 4
#     Node 7, Type 0, BuildingBlock: QUQFOY_clean_sbu_1, # of connection points: 4
#     Node 8, Type 0, BuildingBlock: QUQFOY_clean_sbu_1, # of connection points: 4
#     Node 9, Type 0, BuildingBlock: QUQFOY_clean_sbu_1, # of connection points: 4
#     Node 10, Type 0, BuildingBlock: QUQFOY_clean_sbu_1, # of connection points: 4
#     Node 11, Type 0, BuildingBlock: QUQFOY_clean_sbu_1, # of connection points: 4
#     Node 12, Type 0, BuildingBlock: QUQFOY_clean_sbu_1, # of connection points: 4
#     Node 13, Type 0, BuildingBlock: QUQFOY_clean_sbu_1, # of connection points: 4
#     Node 14, Type 0, BuildingBlock: QUQFOY_clean_sbu_1, # of connection points: 4
#     Node 15, Type 0, BuildingBlock: QUQFOY_clean_sbu_1, # of connection points: 4
#     Node 16, Type 0, BuildingBlock: QUQFOY_clean_sbu_1, # of connection points: 4
#     Node 17, Type 0, BuildingBlock: QUQFOY_clean_sbu_1, # of connection points: 4
#     Node 18, Type 0, BuildingBlock: QUQFOY_clean_sbu_1, # of connection points: 4
#     Node 19, Type 0, BuildingBlock: QUQFOY_clean_sbu_1, # of connection points: 4
#     Node 20, Type 0, BuildingBlock: QUQFOY_clean_sbu_1, # of connection points: 4
#     Node 21, Type 0, BuildingBlock: QUQFOY_clean_sbu_1, # of connection points: 4
#     Node 22, Type 0, BuildingBlock: QUQFOY_clean_sbu_1, # of connection points: 4
#     Node 23, Type 0, BuildingBlock: QUQFOY_clean_sbu_1, # of connection points: 4
#     Edge 24, Type (0, 0), BuildingBlock: MIFKUJ_clean_linker_0, # of connection points: 2
#     Edge 25, Type (0, 0), BuildingBlock: MIFKUJ_clean_linker_0, # of connection points: 2
#     Edge 26, Type (0, 0), BuildingBlock: MIFKUJ_clean_linker_0, # of connection points: 2
#     Edge 27, Type (0, 0), BuildingBlock: MIFKUJ_clean_linker_0, # of connection points: 2
#     Edge 28, Type (0, 0), BuildingBlock: MIFKUJ_clean_linker_0, # of connection points: 2
#     Edge 29, Type (0, 0), BuildingBlock: MIFKUJ_clean_linker_0, # of connection points: 2
#     Edge 30, Type (0, 0), BuildingBlock: MIFKUJ_clean_linker_0, # of connection points: 2
#     Edge 31, Type (0, 0), BuildingBlock: MIFKUJ_clean_linker_0, # of connection points: 2
#     Edge 32, Type (0, 0), BuildingBlock: MIFKUJ_clean_linker_0, # of connection points: 2
#     Edge 33, Type (0, 0), BuildingBlock: MIFKUJ_clean_linker_0, # of connection points: 2
#     Edge 34, Type (0, 0), BuildingBlock: MIFKUJ_clean_linker_0, # of connection points: 2
#     Edge 35, Type (0, 0), BuildingBlock: MIFKUJ_clean_linker_0, # of connection points: 2
#     Edge 36, Type (0, 0), BuildingBlock: MIFKUJ_clean_linker_0, # of connection points: 2
#     Edge 37, Type (0, 0), BuildingBlock: MIFKUJ_clean_linker_0, # of connection points: 2
#     Edge 38, Type (0, 0), BuildingBlock: MIFKUJ_clean_linker_0, # of connection points: 2
#     Edge 39, Type (0, 0), BuildingBlock: MIFKUJ_clean_linker_0, # of connection points: 2
#     Edge 40, Type (0, 0), BuildingBlock: MIFKUJ_clean_linker_0, # of connection points: 2
#     Edge 41, Type (0, 0), BuildingBlock: MIFKUJ_clean_linker_0, # of connection points: 2
#     Edge 42, Type (0, 0), BuildingBlock: MIFKUJ_clean_linker_0, # of connection points: 2
#     Edge 43, Type (0, 0), BuildingBlock: MIFKUJ_clean_linker_0, # of connection points: 2
#     Edge 44, Type (0, 0), BuildingBlock: MIFKUJ_clean_linker_0, # of connection points: 2
#     Edge 45, Type (0, 0), BuildingBlock: MIFKUJ_clean_linker_0, # of connection points: 2
#     Edge 46, Type (0, 0), BuildingBlock: MIFKUJ_clean_linker_0, # of connection points: 2
#     Edge 47, Type (0, 0), BuildingBlock: MIFKUJ_clean_linker_0, # of connection points: 2
#     Edge 48, Type (0, 0), BuildingBlock: MIFKUJ_clean_linker_0, # of connection points: 2
#     Edge 49, Type (0, 0), BuildingBlock: MIFKUJ_clean_linker_0, # of connection points: 2
#     Edge 50, Type (0, 0), BuildingBlock: MIFKUJ_clean_linker_0, # of connection points: 2
#     Edge 51, Type (0, 0), BuildingBlock: MIFKUJ_clean_linker_0, # of connection points: 2
#     Edge 52, Type (0, 0), BuildingBlock: MIFKUJ_clean_linker_0, # of connection points: 2
#     Edge 53, Type (0, 0), BuildingBlock: MIFKUJ_clean_linker_0, # of connection points: 2
#     Edge 54, Type (0, 0), BuildingBlock: MIFKUJ_clean_linker_0, # of connection points: 2
#     Edge 55, Type (0, 0), BuildingBlock: MIFKUJ_clean_linker_0, # of connection points: 2
#     Edge 56, Type (0, 0), BuildingBlock: MIFKUJ_clean_linker_0, # of connection points: 2
#     Edge 57, Type (0, 0), BuildingBlock: MIFKUJ_clean_linker_0, # of connection points: 2
#     Edge 58, Type (0, 0), BuildingBlock: MIFKUJ_clean_linker_0, # of connection points: 2
#     Edge 59, Type (0, 0), BuildingBlock: MIFKUJ_clean_linker_0, # of connection points: 2
#     Edge 60, Type (0, 0), BuildingBlock: MIFKUJ_clean_linker_0, # of connection points: 2
#     Edge 61, Type (0, 0), BuildingBlock: MIFKUJ_clean_linker_0, # of connection points: 2
#     Edge 62, Type (0, 0), BuildingBlock: MIFKUJ_clean_linker_0, # of connection points: 2
#     Edge 63, Type (0, 0), BuildingBlock: MIFKUJ_clean_linker_0, # of connection points: 2
#     Edge 64, Type (0, 0), BuildingBlock: MIFKUJ_clean_linker_0, # of connection points: 2
#     Edge 65, Type (0, 0), BuildingBlock: MIFKUJ_clean_linker_0, # of connection points: 2
#     Edge 66, Type (0, 0), BuildingBlock: MIFKUJ_clean_linker_0, # of connection points: 2
#     Edge 67, Type (0, 0), BuildingBlock: MIFKUJ_clean_linker_0, # of connection points: 2
#     Edge 68, Type (0, 0), BuildingBlock: MIFKUJ_clean_linker_0, # of connection points: 2
#     Edge 69, Type (0, 0), BuildingBlock: MIFKUJ_clean_linker_0, # of connection points: 2
#     Edge 70, Type (0, 0), BuildingBlock: MIFKUJ_clean_linker_0, # of connection points: 2
#     Edge 71, Type (0, 0), BuildingBlock: MIFKUJ_clean_linker_0, # of connection points: 2
# Relax obj value: 0.153
# Max RMSD: 0.162
# Mean RMSD: 0.162
data_MOF--net-unw--node1-QUQFOY_clean_sbu_1--edge1-MIFKUJ_clean_linker_0
_symmetry_space_group_name_H-M    P1
_symmetry_Int_Tables_number       1
_symmetry_cell_setting            triclinic
loop_
_symmetry_equiv_pos_as_xyz
'x, y, z'
_cell_length_a     65.257502
_cell_length_b     65.15182
_cell_length_c     65.18431
_cell_angle_alpha  90.019244
_cell_angle_beta   90.071613
_cell_angle_gamma 89.973706
loop_
_atom_site_label
_atom_site_type_symbol
_atom_site_fract_x
_atom_site_fract_y
_atom_site_fract_z
_atom_type_partial_charge
O0 O 0.13302 0.34575 0.27149 0.0
Cd1 Cd 0.11813 0.35272 0.2448 0.0
Cd2 Cd 0.15185 0.38723 0.2538 0.0
O3 O 0.155 0.3701 0.28049 0.0
O4 O 0.10073 0.32744 0.24337 0.0
O5 O 0.08754 0.35821 0.24769 0.0
C6 C 0.08491 0.33858 0.24709 0.0
C7 C 0.16287 0.42156 0.25135 0.0
C8 C 0.14609 0.35307 0.2839 0.0
C9 C 0.15249 0.35936 0.21485 0.0
O10 O 0.15975 0.37243 0.22734 0.0
O11 O 0.13549 0.35037 0.2182 0.0
O12 O 0.17535 0.40694 0.25578 0.0
O13 O 0.14366 0.41707 0.24998 0.0
O14 O 0.63864 0.1552 0.23341 0.0
Cd15 Cd 0.62323 0.1495 0.26009 0.0
Cd16 Cd 0.65803 0.11367 0.25271 0.0
O17 O 0.66145 0.13095 0.22602 0.0
O18 O 0.60589 0.17496 0.26048 0.0
O19 O 0.5926 0.14414 0.25704 0.0
C20 C 0.59002 0.16379 0.25706 0.0
C21 C 0.67033 0.07967 0.25598 0.0
C22 C 0.6522 0.14764 0.22171 0.0
C23 C 0.65676 0.14245 0.29128 0.0
O24 O 0.66408 0.12879 0.2795 0.0
O25 O 0.64037 0.15217 0.28693 0.0
O26 O 0.68239 0.09475 0.25204 0.0
O27 O 0.65092 0.08346 0.25633 0.0
O28 O 0.87559 0.65122 0.28696 0.0
Cd29 Cd 0.88389 0.64274 0.25802 0.0
Cd30 Cd 0.85625 0.61071 0.27479 0.0
O31 O 0.86154 0.6248 0.30286 0.0
O32 O 0.90147 0.66722 0.2521 0.0
O33 O 0.91427 0.63619 0.25576 0.0
C34 C 0.91734 0.65569 0.2541 0.0
C35 C 0.84915 0.57575 0.26925 0.0
C36 C 0.86851 0.64305 0.30312 0.0
C37 C 0.84241 0.63928 0.24007 0.0
O38 O 0.83859 0.62785 0.25536 0.0
O39 O 0.86072 0.64485 0.23611 0.0
O40 O 0.83734 0.58713 0.28026 0.0
O41 O 0.8662 0.58367 0.26303 0.0
O42 O 0.33902 0.87379 0.25212 0.0
Cd43 Cd 0.35501 0.888 0.22928 0.0
Cd44 Cd 0.38322 0.85546 0.24531 0.0
O45 O 0.36157 0.85448 0.26873 0.0
O46 O 0.33615 0.91143 0.22331 0.0
O47 O 0.36639 0.91547 0.23802 0.0
C48 C 0.34895 0.92322 0.23265 0.0
C49 C 0.41776 0.846 0.24816 0.0
C50 C 0.34375 0.86232 0.26712 0.0
C51 C 0.36553 0.85395 0.20134 0.0
O52 O 0.37381 0.84594 0.21703 0.0
O53 O 0.35802 0.87197 0.2019 0.0
O54 O 0.40328 0.8331 0.25178 0.0
O55 O 0.41271 0.86497 0.24528 0.0
O56 O 0.144 0.6634 0.73352 0.0
Cd57 Cd 0.13688 0.64965 0.76072 0.0
Cd58 Cd 0.15996 0.62093 0.73945 0.0
O59 O 0.15113 0.63714 0.71338 0.0
O60 O 0.11689 0.67049 0.771 0.0
O61 O 0.10766 0.63941 0.76119 0.0
C62 C 0.10243 0.65788 0.76623 0.0
C63 C 0.16555 0.5857 0.74378 0.0
C64 C 0.14688 0.65609 0.71571 0.0
C65 C 0.17865 0.64325 0.7753 0.0
O66 O 0.18088 0.63568 0.7575 0.0
O67 O 0.16078 0.64759 0.78192 0.0
O68 O 0.17641 0.59641 0.73121 0.0
O69 O 0.14969 0.59444 0.75187 0.0
O70 O 0.33794 0.14438 0.72252 0.0
Cd71 Cd 0.34647 0.12758 0.7476 0.0
Cd72 Cd 0.3805 0.16492 0.73801 0.0
O73 O 0.36036 0.16844 0.71348 0.0
O74 O 0.32244 0.10837 0.7495 0.0
O75 O 0.35345 0.09789 0.74121 0.0
C76 C 0.33421 0.09379 0.74329 0.0
C77 C 0.41316 0.18047 0.73866 0.0
C78 C 0.34372 0.15864 0.71059 0.0
C79 C 0.35689 0.15895 0.77991 0.0
O80 O 0.36858 0.16734 0.76685 0.0
O81 O 0.34685 0.14268 0.77581 0.0
O82 O 0.39661 0.19116 0.73795 0.0
O83 O 0.41136 0.1608 0.73704 0.0
O84 O 0.83453 0.37608 0.79082 0.0
Cd85 Cd 0.84159 0.38288 0.76096 0.0
Cd86 Cd 0.8735 0.35295 0.77772 0.0
O87 O 0.8598 0.35898 0.80573 0.0
O88 O 0.81767 0.40131 0.75521 0.0
O89 O 0.8493 0.41288 0.75689 0.0
C90 C 0.82993 0.41674 0.75569 0.0
C91 C 0.90775 0.34252 0.77325 0.0
C92 C 0.84255 0.36805 0.80665 0.0
C93 C 0.8432 0.3408 0.74325 0.0
O94 O 0.85548 0.33679 0.75782 0.0
O95 O 0.83748 0.35919 0.73975 0.0
O96 O 0.89474 0.33145 0.78313 0.0
O97 O 0.90191 0.3606 0.76758 0.0
O98 O 0.65067 0.83152 0.77538 0.0
Cd99 Cd 0.64101 0.84861 0.75093 0.0
Cd100 Cd 0.65591 0.87533 0.77415 0.0
O101 O 0.64489 0.8563 0.79742 0.0
O102 O 0.61906 0.8313 0.7386 0.0
O103 O 0.61293 0.86035 0.75522 0.0
C104 C 0.60602 0.84359 0.74708 0.0
C105 C 0.65252 0.91002 0.76761 0.0
C106 C 0.64762 0.8373 0.79371 0.0
C107 C 0.6812 0.86102 0.73963 0.0
O108 O 0.68139 0.86513 0.7587 0.0
O109 O 0.66421 0.85698 0.73087 0.0
O110 O 0.66336 0.90361 0.78295 0.0
O111 O 0.64125 0.89682 0.75794 0.0
O112 O 0.23824 0.17264 0.35804 0.0
Cd113 Cd 0.26475 0.16308 0.37169 0.0
Cd114 Cd 0.2517 0.12942 0.33964 0.0
O115 O 0.22587 0.14808 0.33794 0.0
O116 O 0.26785 0.18585 0.39206 0.0
O117 O 0.26115 0.15396 0.40117 0.0
C118 C 0.26281 0.17306 0.40624 0.0
C119 C 0.25211 0.09479 0.32958 0.0
C120 C 0.22437 0.16567 0.34632 0.0
C121 C 0.29297 0.15362 0.33691 0.0
O122 O 0.27898 0.14176 0.33043 0.0
O123 O 0.29124 0.16328 0.35382 0.0
O124 O 0.24772 0.10923 0.31685 0.0
O125 O 0.25418 0.09972 0.34866 0.0
O126 O 0.86465 0.26207 0.34217 0.0
Cd127 Cd 0.87892 0.23586 0.35181 0.0
Cd128 Cd 0.84367 0.24816 0.38409 0.0
O129 O 0.84213 0.27365 0.3649 0.0
O130 O 0.89857 0.23281 0.32848 0.0
O131 O 0.9087 0.2399 0.35993 0.0
C132 C 0.91316 0.23797 0.34073 0.0
C133 C 0.83032 0.24726 0.4176 0.0
C134 C 0.85177 0.27542 0.34801 0.0
C135 C 0.84449 0.2067 0.35962 0.0
O136 O 0.83697 0.22051 0.37109 0.0
O137 O 0.86176 0.20897 0.35084 0.0
O138 O 0.81887 0.25104 0.40198 0.0
O139 O 0.84983 0.24612 0.41455 0.0
O140 O 0.76384 0.82515 0.36327 0.0
Cd141 Cd 0.74431 0.84828 0.37127 0.0
Cd142 Cd 0.7686 0.86609 0.34742 0.0
O143 O 0.7904 0.8452 0.35802 0.0
O144 O 0.73357 0.83913 0.39849 0.0
O145 O 0.75599 0.8644 0.39468 0.0
C146 C 0.7467 0.85157 0.40665 0.0
C147 C 0.7656 0.90157 0.34542 0.0
C148 C 0.78307 0.82735 0.36129 0.0
C149 C 0.72928 0.85296 0.33045 0.0
O150 O 0.74846 0.8532 0.32729 0.0
O151 O 0.72249 0.85523 0.34867 0.0
O152 O 0.77829 0.89178 0.33371 0.0
O153 O 0.75691 0.89148 0.36015 0.0
O154 O 0.1423 0.73254 0.34751 0.0
Cd155 Cd 0.12752 0.75966 0.35255 0.0
Cd156 Cd 0.16311 0.7538 0.38644 0.0
O157 O 0.16589 0.72583 0.37112 0.0
O158 O 0.10921 0.75888 0.32785 0.0
O159 O 0.09713 0.75712 0.35926 0.0
C160 C 0.0938 0.75608 0.33977 0.0
C161 C 0.17446 0.75927 0.42043 0.0
C162 C 0.15596 0.72088 0.35502 0.0
C163 C 0.16198 0.79029 0.35537 0.0
O164 O 0.16986 0.77921 0.36932 0.0
O165 O 0.14478 0.7859 0.3472 0.0
O166 O 0.18691 0.75408 0.40604 0.0
O167 O 0.15517 0.75968 0.41602 0.0
O168 O 0.25946 0.86905 0.67738 0.0
Cd169 Cd 0.23858 0.87886 0.65619 0.0
Cd170 Cd 0.26265 0.85638 0.63381 0.0
O171 O 0.28477 0.86397 0.65567 0.0
O172 O 0.22757 0.90429 0.66922 0.0
O173 O 0.24803 0.90463 0.64214 0.0
C174 C 0.23915 0.91458 0.65686 0.0
C175 C 0.26315 0.85484 0.59819 0.0
C176 C 0.27845 0.86652 0.67399 0.0
C177 C 0.22236 0.83903 0.64532 0.0
O178 O 0.24135 0.83546 0.64305 0.0
O179 O 0.21616 0.85737 0.64819 0.0
O180 O 0.27438 0.84266 0.60909 0.0
O181 O 0.25412 0.86991 0.60747 0.0
O182 O 0.15613 0.23374 0.63437 0.0
Cd183 Cd 0.14889 0.25949 0.61795 0.0
Cd184 Cd 0.11565 0.25095 0.65656 0.0
O185 O 0.13471 0.22556 0.65955 0.0
O186 O 0.17391 0.26032 0.60017 0.0
O187 O 0.14308 0.25503 0.58757 0.0
C188 C 0.16262 0.2559 0.58462 0.0
C189 C 0.08411 0.25317 0.67419 0.0
C190 C 0.15067 0.22199 0.6489 0.0
C191 C 0.14168 0.29154 0.65017 0.0
O192 O 0.1295 0.27897 0.65863 0.0
O193 O 0.1508 0.28724 0.63345 0.0
O194 O 0.10133 0.25212 0.68371 0.0
O195 O 0.08446 0.25111 0.6545 0.0
O196 O 0.70156 0.13087 0.66273 0.0
Cd197 Cd 0.73089 0.12196 0.65618 0.0
Cd198 Cd 0.7172 0.15187 0.6233 0.0
O199 O 0.68862 0.14888 0.63701 0.0
O200 O 0.73531 0.10387 0.68061 0.0
O201 O 0.73337 0.09154 0.64928 0.0
C202 C 0.73419 0.08815 0.66877 0.0
C203 C 0.72385 0.15773 0.58841 0.0
C204 C 0.68663 0.14013 0.65434 0.0
C205 C 0.75212 0.16266 0.65299 0.0
O206 O 0.73823 0.16766 0.6403 0.0
O207 O 0.75343 0.14438 0.65987 0.0
O208 O 0.7137 0.17074 0.59928 0.0
O209 O 0.72842 0.14033 0.59678 0.0
O210 O 0.8542 0.77768 0.63465 0.0
Cd211 Cd 0.85758 0.75307 0.61559 0.0
Cd212 Cd 0.8914 0.75278 0.65532 0.0
O213 O 0.87654 0.78064 0.66015 0.0
O214 O 0.83194 0.75737 0.59894 0.0
O215 O 0.8626 0.75974 0.58534 0.0
C216 C 0.84303 0.76172 0.58328 0.0
C217 C 0.9226 0.74551 0.67268 0.0
C218 C 0.86112 0.78727 0.65013 0.0
C219 C 0.85888 0.71787 0.64573 0.0
O220 O 0.8728 0.72735 0.65555 0.0
O221 O 0.85156 0.72483 0.62898 0.0
O222 O 0.90554 0.74757 0.68227 0.0
O223 O 0.92243 0.74881 0.65316 0.0
O224 O 0.33137 0.25652 0.13917 0.0
Cd225 Cd 0.34657 0.23769 0.11939 0.0
Cd226 Cd 0.37778 0.25146 0.1513 0.0
O227 O 0.35557 0.27424 0.15526 0.0
O228 O 0.32572 0.23434 0.09693 0.0
O229 O 0.35502 0.25056 0.09238 0.0
C230 C 0.33726 0.24534 0.0853 0.0
C231 C 0.41147 0.25415 0.16433 0.0
C232 C 0.33678 0.27104 0.15096 0.0
C233 C 0.3599 0.20691 0.14894 0.0
O234 O 0.36864 0.22201 0.1576 0.0
O235 O 0.35137 0.20878 0.13148 0.0
O236 O 0.3957 0.25529 0.17606 0.0
O237 O 0.40822 0.25372 0.14479 0.0
O238 O 0.38374 0.77921 0.84357 0.0
Cd239 Cd 0.39642 0.75196 0.85255 0.0
Cd240 Cd 0.36472 0.76612 0.88608 0.0
O241 O 0.36534 0.79286 0.8686 0.0
O242 O 0.41417 0.74772 0.82788 0.0
O243 O 0.427 0.75334 0.85859 0.0
C244 C 0.42995 0.75146 0.8391 0.0
C245 C 0.35446 0.76499 0.92075 0.0
C246 C 0.37317 0.7939 0.85073 0.0
C247 C 0.35933 0.72617 0.86027 0.0
O248 O 0.35318 0.74056 0.87189 0.0
O249 O 0.37711 0.72658 0.8522 0.0
O250 O 0.34225 0.77109 0.90649 0.0
O251 O 0.37325 0.76135 0.9157 0.0
O252 O 0.27961 0.33596 0.86026 0.0
Cd253 Cd 0.25251 0.34791 0.87063 0.0
Cd254 Cd 0.26995 0.37934 0.84249 0.0
O255 O 0.29626 0.36133 0.84493 0.0
O256 O 0.24509 0.32659 0.89152 0.0
O257 O 0.25432 0.35807 0.89992 0.0
C258 C 0.25016 0.33952 0.90559 0.0
C259 C 0.26766 0.41497 0.83755 0.0
C260 C 0.29564 0.34305 0.85185 0.0
C261 C 0.23019 0.35674 0.83176 0.0
O262 O 0.24617 0.36659 0.8267 0.0
O263 O 0.22822 0.34931 0.84975 0.0
O264 O 0.27634 0.40325 0.82419 0.0
O265 O 0.26258 0.40683 0.8549 0.0
O266 O 0.64517 0.23843 0.83329 0.0
Cd267 Cd 0.62832 0.26092 0.84737 0.0
Cd268 Cd 0.648 0.24048 0.87823 0.0
O269 O 0.64417 0.2158 0.85841 0.0
O270 O 0.60828 0.26958 0.82558 0.0
O271 O 0.59924 0.25226 0.8533 0.0
C272 C 0.59438 0.25964 0.83553 0.0
C273 C 0.65312 0.23938 0.91384 0.0
C274 C 0.6471 0.22009 0.83959 0.0
C275 C 0.66374 0.28108 0.86276 0.0
O276 O 0.6676 0.2627 0.86792 0.0
O277 O 0.64571 0.28592 0.85702 0.0
O278 O 0.66543 0.23036 0.90131 0.0
O279 O 0.63626 0.24663 0.90638 0.0
O280 O 0.71012 0.66921 0.85777 0.0
Cd281 Cd 0.73856 0.65698 0.86315 0.0
Cd282 Cd 0.71944 0.62849 0.84066 0.0
O283 O 0.69289 0.64043 0.85342 0.0
O284 O 0.74926 0.67729 0.88348 0.0
O285 O 0.74043 0.64561 0.89182 0.0
C286 C 0.74537 0.66396 0.89757 0.0
C287 C 0.72956 0.59436 0.83748 0.0
C288 C 0.69326 0.65954 0.85733 0.0
C289 C 0.75131 0.65322 0.82062 0.0
O290 O 0.73332 0.64608 0.81858 0.0
O291 O 0.75889 0.65553 0.83849 0.0
O292 O 0.71444 0.60159 0.8269 0.0
O293 O 0.73751 0.60598 0.85149 0.0
O294 O 0.67583 0.74736 0.13092 0.0
Cd295 Cd 0.66166 0.76914 0.11332 0.0
Cd296 Cd 0.63069 0.75802 0.14644 0.0
O297 O 0.6516 0.73434 0.1508 0.0
O298 O 0.68162 0.77179 0.09009 0.0
O299 O 0.65065 0.75882 0.08611 0.0
C300 C 0.66851 0.76266 0.07847 0.0
C301 C 0.59672 0.7564 0.15828 0.0
C302 C 0.6699 0.73423 0.14403 0.0
C303 C 0.65085 0.80114 0.14379 0.0
O304 O 0.64085 0.78701 0.15266 0.0
O305 O 0.65963 0.79806 0.12663 0.0
O306 O 0.61204 0.75455 0.17055 0.0
O307 O 0.60053 0.75709 0.13887 0.0
O308 O 0.238 0.6461 0.16983 0.0
Cd309 Cd 0.26253 0.63268 0.1554 0.0
Cd310 Cd 0.24996 0.66739 0.12994 0.0
O311 O 0.22329 0.66658 0.14705 0.0
O312 O 0.2676 0.60978 0.17523 0.0
O313 O 0.25598 0.60456 0.14388 0.0
C314 C 0.26007 0.59733 0.16188 0.0
C315 C 0.25388 0.67633 0.09536 0.0
C316 C 0.22328 0.65764 0.16441 0.0
C317 C 0.29012 0.66837 0.15284 0.0
O318 O 0.27468 0.67786 0.14581 0.0
O319 O 0.29001 0.64898 0.15516 0.0
O320 O 0.2468 0.68925 0.10855 0.0
O321 O 0.25664 0.65761 0.10134 0.0
O322 O 0.77137 0.3551 0.16787 0.0
Cd323 Cd 0.74516 0.37076 0.16087 0.0
Cd324 Cd 0.75349 0.33899 0.12483 0.0
O325 O 0.78032 0.33513 0.14171 0.0
O326 O 0.74418 0.39031 0.18465 0.0
O327 O 0.74997 0.40048 0.15293 0.0
C328 C 0.74917 0.40483 0.17225 0.0
C329 C 0.74983 0.32772 0.09062 0.0
C330 C 0.78373 0.34269 0.15942 0.0
C331 C 0.7147 0.33745 0.15305 0.0
O332 O 0.72708 0.33106 0.13951 0.0
O333 O 0.71815 0.35385 0.16313 0.0
O334 O 0.75427 0.31529 0.10527 0.0
O335 O 0.74953 0.34707 0.09492 0.0
H336 H 0.27275 0.57548 0.19531 0.0
H337 H 0.25661 0.54484 0.20981 0.0
H338 H 0.21488 0.54244 0.15856 0.0
H339 H 0.23121 0.5729 0.14373 0.0
H340 H 0.19596 0.54275 0.19886 0.0
H341 H 0.24838 0.5067 0.16119 0.0
H342 H 0.28389 0.49923 0.15069 0.0
H343 H 0.29991 0.48564 0.21313 0.0
H344 H 0.26455 0.49332 0.22406 0.0
H345 H 0.14597 0.44902 0.22461 0.0
H346 H 0.16272 0.4788 0.20925 0.0
H347 H 0.21492 0.46991 0.24904 0.0
H348 H 0.19865 0.4394 0.26352 0.0
H349 H 0.22869 0.47569 0.21375 0.0
H350 H 0.17868 0.51218 0.25283 0.0
H351 H 0.14432 0.52127 0.26566 0.0
H352 H 0.12499 0.53617 0.20446 0.0
H353 H 0.15917 0.52691 0.19122 0.0
C354 C 0.2605 0.56811 0.18683 0.0
C355 C 0.25333 0.57658 0.16831 0.0
C356 C 0.25124 0.55064 0.19519 0.0
C357 C 0.23447 0.54144 0.18532 0.0
C358 C 0.22778 0.54935 0.16643 0.0
C359 C 0.23726 0.56664 0.15788 0.0
C360 C 0.22316 0.52442 0.19541 0.0
C361 C 0.20295 0.52794 0.20187 0.0
C362 C 0.2326 0.50545 0.20002 0.0
C363 C 0.25386 0.50078 0.19346 0.0
C364 C 0.25952 0.5023 0.17271 0.0
C365 C 0.27961 0.49799 0.16668 0.0
C366 C 0.29416 0.49201 0.18124 0.0
C367 C 0.28863 0.49029 0.20187 0.0
C368 C 0.26856 0.4946 0.20799 0.0
C369 C 0.1608 0.45373 0.23042 0.0
C370 C 0.17096 0.44193 0.24534 0.0
C371 C 0.17041 0.47082 0.22162 0.0
C372 C 0.19014 0.47685 0.22799 0.0
C373 C 0.1998 0.4656 0.24367 0.0
C374 C 0.19041 0.44825 0.2521 0.0
C375 C 0.20129 0.4939 0.21743 0.0
C376 C 0.22154 0.49044 0.21085 0.0
C377 C 0.19202 0.51312 0.21311 0.0
C378 C 0.17143 0.51864 0.22101 0.0
C379 C 0.16705 0.51723 0.24209 0.0
C380 C 0.14762 0.52245 0.24944 0.0
C381 C 0.13247 0.52924 0.23588 0.0
C382 C 0.13673 0.53088 0.21494 0.0
C383 C 0.15614 0.52567 0.20751 0.0
H384 H 0.11743 0.53328 0.2416 0.0
H385 H 0.30971 0.48867 0.17654 0.0
H386 H 0.55501 0.14509 0.24276 0.0
H387 H 0.52488 0.16183 0.22767 0.0
H388 H 0.5504 0.22113 0.24214 0.0
H389 H 0.58053 0.20461 0.25698 0.0
H390 H 0.49538 0.1882 0.2409 0.0
H391 H 0.54098 0.25378 0.20335 0.0
H392 H 0.5761 0.26055 0.19129 0.0
H393 H 0.58462 0.19639 0.17885 0.0
H394 H 0.54944 0.18926 0.19075 0.0
H395 H 0.42362 0.25967 0.20406 0.0
H396 H 0.45455 0.2463 0.22044 0.0
H397 H 0.47626 0.22468 0.16181 0.0
H398 H 0.44554 0.23858 0.14522 0.0
H399 H 0.50771 0.23739 0.18409 0.0
H400 H 0.44986 0.19321 0.19585 0.0
H401 H 0.41502 0.18457 0.2075 0.0
H402 H 0.4308 0.20213 0.26901 0.0
H403 H 0.46568 0.21129 0.25764 0.0
C404 C 0.55405 0.16168 0.24304 0.0
C405 C 0.57028 0.17348 0.25099 0.0
C406 C 0.53682 0.17124 0.23437 0.0
C407 C 0.53552 0.19277 0.23339 0.0
C408 C 0.5512 0.20452 0.24233 0.0
C409 C 0.56839 0.19501 0.25095 0.0
C410 C 0.51827 0.20297 0.22233 0.0
C411 C 0.49808 0.19899 0.22852 0.0
C412 C 0.52171 0.21682 0.20593 0.0
C413 C 0.54263 0.221 0.19807 0.0
C414 C 0.5503 0.24115 0.19791 0.0
C415 C 0.57024 0.24504 0.19113 0.0
C416 C 0.58261 0.22892 0.1843 0.0
C417 C 0.57503 0.20886 0.18418 0.0
C418 C 0.55511 0.20488 0.19097 0.0
C419 C 0.43519 0.25251 0.19455 0.0
C420 C 0.43202 0.25011 0.17333 0.0
C421 C 0.45282 0.24469 0.20398 0.0
C422 C 0.46753 0.23394 0.19249 0.0
C423 C 0.46509 0.23276 0.17108 0.0
C424 C 0.44752 0.24079 0.16158 0.0
C425 C 0.48475 0.22293 0.20289 0.0
C426 C 0.50497 0.2267 0.19654 0.0
C427 C 0.48129 0.20865 0.21898 0.0
C428 C 0.46034 0.20309 0.22585 0.0
C429 C 0.44587 0.19537 0.21183 0.0
C430 C 0.42611 0.19037 0.21839 0.0
C431 C 0.42069 0.19279 0.23899 0.0
C432 C 0.43502 0.20027 0.25306 0.0
C433 C 0.45479 0.20538 0.24657 0.0
H434 H 0.40544 0.18881 0.24406 0.0
H435 H 0.59807 0.23195 0.17911 0.0
H436 H 0.77595 0.43164 0.15436 0.0
H437 H 0.79331 0.46073 0.1708 0.0
H438 H 0.75704 0.45186 0.22528 0.0
H439 H 0.74002 0.42241 0.20917 0.0
H440 H 0.76299 0.4952 0.21127 0.0
H441 H 0.8 0.43304 0.22822 0.0
H442 H 0.81774 0.40073 0.21961 0.0
H443 H 0.86136 0.4341 0.18336 0.0
H444 H 0.84367 0.46659 0.19152 0.0
H445 H 0.81685 0.5533 0.28355 0.0
H446 H 0.80054 0.52386 0.26709 0.0
H447 H 0.84743 0.5236 0.22053 0.0
H448 H 0.86417 0.55282 0.23728 0.0
H449 H 0.83631 0.48513 0.2291 0.0
H450 H 0.80104 0.54709 0.21222 0.0
H451 H 0.7834 0.57985 0.21908 0.0
H452 H 0.73666 0.54793 0.25265 0.0
H453 H 0.75421 0.51499 0.24625 0.0
C454 C 0.77132 0.43618 0.16965 0.0
C455 C 0.75656 0.42475 0.18045 0.0
C456 C 0.78137 0.45271 0.17908 0.0
C457 C 0.77657 0.45834 0.19931 0.0
C458 C 0.76098 0.44775 0.20966 0.0
C459 C 0.75125 0.43096 0.20042 0.0
C460 C 0.78859 0.47445 0.21012 0.0
C461 C 0.77895 0.49294 0.21538 0.0
C462 C 0.80956 0.47169 0.21499 0.0
C463 C 0.82037 0.45221 0.21028 0.0
C464 C 0.81326 0.43347 0.21826 0.0
C465 C 0.82333 0.41513 0.2135 0.0
C466 C 0.84062 0.41535 0.20088 0.0
C467 C 0.84794 0.43394 0.19309 0.0
C468 C 0.83791 0.45233 0.19779 0.0
C469 C 0.82397 0.54673 0.27005 0.0
C470 C 0.84176 0.55553 0.26167 0.0
C471 C 0.81451 0.52996 0.26054 0.0
C472 C 0.8224 0.52181 0.24221 0.0
C473 C 0.84093 0.52969 0.23455 0.0
C474 C 0.85053 0.54638 0.2442 0.0
C475 C 0.81066 0.50595 0.23052 0.0
C476 C 0.82036 0.48749 0.22501 0.0
C477 C 0.78976 0.50884 0.22519 0.0
C478 C 0.77904 0.52859 0.22891 0.0
C479 C 0.78707 0.54707 0.22118 0.0
C480 C 0.77708 0.56567 0.22497 0.0
C481 C 0.75895 0.56598 0.23633 0.0
C482 C 0.75073 0.54767 0.24387 0.0
C483 C 0.76068 0.52903 0.24016 0.0
H484 H 0.75123 0.5804 0.23926 0.0
H485 H 0.84838 0.40114 0.1972 0.0
H486 H 0.56649 0.77931 0.14062 0.0
H487 H 0.53622 0.79361 0.15774 0.0
H488 H 0.55049 0.75892 0.21219 0.0
H489 H 0.58118 0.7451 0.19543 0.0
H490 H 0.50472 0.76183 0.19585 0.0
H491 H 0.56525 0.80041 0.21731 0.0
H492 H 0.59681 0.81974 0.20963 0.0
H493 H 0.56199 0.86337 0.17462 0.0
H494 H 0.53028 0.84401 0.18171 0.0
H495 H 0.4361 0.8111 0.26248 0.0
H496 H 0.4674 0.79506 0.2495 0.0
H497 H 0.47672 0.84654 0.20889 0.0
H498 H 0.44623 0.86316 0.22286 0.0
H499 H 0.51157 0.83422 0.21859 0.0
H500 H 0.45237 0.79797 0.19418 0.0
H501 H 0.42021 0.7782 0.19576 0.0
H502 H 0.45046 0.73104 0.2305 0.0
H503 H 0.48279 0.75062 0.22922 0.0
C504 C 0.56287 0.77428 0.15603 0.0
C505 C 0.57616 0.76102 0.16667 0.0
C506 C 0.54568 0.78259 0.16584 0.0
C507 C 0.54127 0.77743 0.18626 0.0
C508 C 0.55368 0.76309 0.19643 0.0
C509 C 0.57115 0.75517 0.18682 0.0
C510 C 0.52456 0.78806 0.19744 0.0
C511 C 0.50624 0.77756 0.20113 0.0
C512 C 0.52643 0.80876 0.20368 0.0
C513 C 0.54543 0.82063 0.19984 0.0
C514 C 0.56435 0.81401 0.2078 0.0
C515 C 0.58227 0.82498 0.20359 0.0
C516 C 0.58141 0.84274 0.1916 0.0
C517 C 0.56263 0.84959 0.18387 0.0
C518 C 0.54469 0.83862 0.18798 0.0
C519 C 0.44517 0.81923 0.2512 0.0
C520 C 0.43871 0.8384 0.24371 0.0
C521 C 0.46292 0.80991 0.24352 0.0
C522 C 0.47417 0.81917 0.22761 0.0
C523 C 0.46836 0.8389 0.22103 0.0
C524 C 0.45092 0.84848 0.22911 0.0
C525 C 0.49134 0.80804 0.2172 0.0
C526 C 0.50988 0.81845 0.21354 0.0
C527 C 0.48948 0.78735 0.21051 0.0
C528 C 0.46992 0.77585 0.21178 0.0
C529 C 0.45211 0.78347 0.20231 0.0
C530 C 0.43386 0.77227 0.20311 0.0
C531 C 0.43329 0.75338 0.21326 0.0
C532 C 0.45094 0.74568 0.22266 0.0
C533 C 0.46922 0.75681 0.22188 0.0
H534 H 0.41922 0.74464 0.21381 0.0
H535 H 0.59527 0.85124 0.18834 0.0
H536 H 0.23759 0.43809 0.85548 0.0
H537 H 0.22049 0.4682 0.84086 0.0
H538 H 0.26377 0.46886 0.79101 0.0
H539 H 0.28076 0.43849 0.80531 0.0
H540 H 0.25113 0.51014 0.80794 0.0
H541 H 0.22324 0.44802 0.77701 0.0
H542 H 0.21069 0.41254 0.7804 0.0
H543 H 0.16326 0.43297 0.82121 0.0
H544 H 0.17549 0.46873 0.81785 0.0
H545 H 0.19967 0.56499 0.73112 0.0
H546 H 0.21662 0.53641 0.74837 0.0
H547 H 0.16671 0.53244 0.79141 0.0
H548 H 0.14956 0.56122 0.77421 0.0
H549 H 0.18222 0.49358 0.77998 0.0
H550 H 0.20737 0.55772 0.80532 0.0
H551 H 0.22148 0.5927 0.80236 0.0
H552 H 0.27547 0.5687 0.7734 0.0
H553 H 0.26151 0.53359 0.77583 0.0
C554 C 0.24388 0.44497 0.84174 0.0
C555 C 0.26057 0.43584 0.83157 0.0
C556 C 0.234 0.46214 0.83333 0.0
C557 C 0.24078 0.47071 0.81477 0.0
C558 C 0.25832 0.46255 0.80537 0.0
C559 C 0.26802 0.44518 0.81358 0.0
C560 C 0.22832 0.48663 0.80409 0.0
C561 C 0.23615 0.50653 0.80169 0.0
C562 C 0.20863 0.48203 0.79624 0.0
C563 C 0.20034 0.46093 0.7973 0.0
C564 C 0.2101 0.44492 0.78667 0.0
C565 C 0.20308 0.42477 0.78862 0.0
C566 C 0.18637 0.42044 0.80126 0.0
C567 C 0.17631 0.43634 0.81156 0.0
C568 C 0.1832 0.45657 0.80954 0.0
C569 C 0.192 0.55779 0.74396 0.0
C570 C 0.17326 0.56555 0.75132 0.0
C571 C 0.20182 0.54149 0.75391 0.0
C572 C 0.19316 0.53252 0.77145 0.0
C573 C 0.17375 0.53919 0.77798 0.0
C574 C 0.16393 0.55562 0.76807 0.0
C575 C 0.20505 0.51721 0.78363 0.0
C576 C 0.19712 0.49736 0.78633 0.0
C577 C 0.22468 0.52195 0.79178 0.0
C578 C 0.2333 0.54302 0.79059 0.0
C579 C 0.22219 0.5599 0.79818 0.0
C580 C 0.23016 0.57976 0.79661 0.0
C581 C 0.24934 0.58292 0.78766 0.0
C582 C 0.2606 0.56622 0.78031 0.0
C583 C 0.25267 0.54634 0.78179 0.0
H584 H 0.25548 0.5983 0.78646 0.0
H585 H 0.18114 0.40478 0.80297 0.0
H586 H 0.57171 0.22483 0.84016 0.0
H587 H 0.54168 0.21415 0.82015 0.0
H588 H 0.54191 0.27218 0.78852 0.0
H589 H 0.5727 0.28254 0.80768 0.0
H590 H 0.50078 0.24718 0.81265 0.0
H591 H 0.5516 0.25258 0.75886 0.0
H592 H 0.58371 0.24654 0.74012 0.0
H593 H 0.57162 0.18181 0.73945 0.0
H594 H 0.54007 0.18733 0.75946 0.0
H595 H 0.42111 0.22151 0.7425 0.0
H596 H 0.45194 0.23764 0.75638 0.0
H597 H 0.48073 0.17826 0.76151 0.0
H598 H 0.44999 0.16201 0.74733 0.0
H599 H 0.5075 0.20697 0.74838 0.0
H600 H 0.45695 0.20199 0.80273 0.0
H601 H 0.42292 0.20854 0.81786 0.0
H602 H 0.43288 0.2735 0.81315 0.0
H603 H 0.46683 0.26734 0.79766 0.0
C604 C 0.56528 0.2354 0.82905 0.0
C605 C 0.57454 0.25457 0.82554 0.0
C606 C 0.54827 0.22916 0.81746 0.0
C607 C 0.53997 0.24208 0.80235 0.0
C608 C 0.54847 0.26169 0.79961 0.0
C609 C 0.5659 0.26769 0.81074 0.0
C610 C 0.52186 0.23525 0.79024 0.0
C611 C 0.50225 0.23863 0.79844 0.0
C612 C 0.52377 0.22386 0.77178 0.0
C613 C 0.54377 0.22036 0.76145 0.0
C614 C 0.55618 0.23698 0.75558 0.0
C615 C 0.57422 0.23365 0.74452 0.0
C616 C 0.57978 0.21378 0.73871 0.0
C617 C 0.56734 0.19719 0.74403 0.0
C618 C 0.54948 0.20041 0.75542 0.0
C619 C 0.43411 0.21187 0.74625 0.0
C620 C 0.43301 0.19041 0.74385 0.0
C621 C 0.4517 0.22114 0.75435 0.0
C622 C 0.46853 0.20915 0.76044 0.0
C623 C 0.4679 0.18784 0.75706 0.0
C624 C 0.45032 0.17855 0.74889 0.0
C625 C 0.48654 0.21864 0.77092 0.0
C626 C 0.50609 0.21562 0.76253 0.0
C627 C 0.48457 0.23051 0.78905 0.0
C628 C 0.46437 0.23419 0.79886 0.0
C629 C 0.45184 0.21767 0.80482 0.0
C630 C 0.43256 0.22132 0.81345 0.0
C631 C 0.42572 0.24143 0.8164 0.0
C632 C 0.43818 0.25793 0.81081 0.0
C633 C 0.45745 0.25437 0.80212 0.0
H634 H 0.41079 0.24423 0.82307 0.0
H635 H 0.59369 0.21124 0.73004 0.0
H636 H 0.71344 0.56404 0.81335 0.0
H637 H 0.73136 0.53433 0.799 0.0
H638 H 0.78578 0.55074 0.83279 0.0
H639 H 0.76787 0.58041 0.8474 0.0
H640 H 0.79286 0.5437 0.79063 0.0
H641 H 0.76015 0.51011 0.84743 0.0
H642 H 0.73107 0.50028 0.86944 0.0
H643 H 0.70158 0.47136 0.81809 0.0
H644 H 0.73037 0.48128 0.7957 0.0
H645 H 0.84934 0.45072 0.77122 0.0
H646 H 0.833 0.48219 0.7836 0.0
H647 H 0.77503 0.46159 0.75926 0.0
H648 H 0.79117 0.42996 0.74737 0.0
H649 H 0.7702 0.47138 0.7972 0.0
H650 H 0.80217 0.50408 0.74015 0.0
H651 H 0.82984 0.51514 0.71694 0.0
H652 H 0.85937 0.54674 0.76665 0.0
H653 H 0.8321 0.53554 0.79027 0.0
C654 C 0.72909 0.5611 0.81807 0.0
C655 C 0.73918 0.57455 0.83162 0.0
C656 C 0.73934 0.54413 0.80981 0.0
C657 C 0.75994 0.54034 0.81477 0.0
C658 C 0.7699 0.55341 0.82871 0.0
C659 C 0.75957 0.57024 0.8372 0.0
C660 C 0.77124 0.5232 0.80476 0.0
C661 C 0.78816 0.52781 0.79229 0.0
C662 C 0.76467 0.5026 0.80641 0.0
C663 C 0.74733 0.49662 0.81984 0.0
C664 C 0.74738 0.50182 0.84079 0.0
C665 C 0.73097 0.49619 0.85334 0.0
C666 C 0.71446 0.48525 0.84516 0.0
C667 C 0.71436 0.47987 0.82441 0.0
C668 C 0.73073 0.48547 0.81178 0.0
C669 C 0.83325 0.45318 0.76795 0.0
C670 C 0.82155 0.43778 0.75837 0.0
C671 C 0.82388 0.47122 0.77509 0.0
C672 C 0.80269 0.47432 0.77251 0.0
C673 C 0.79134 0.45955 0.76165 0.0
C674 C 0.80063 0.44149 0.75472 0.0
C675 C 0.79191 0.49176 0.78281 0.0
C676 C 0.77504 0.48721 0.79544 0.0
C677 C 0.79846 0.51244 0.78112 0.0
C678 C 0.81521 0.5187 0.76706 0.0
C679 C 0.81471 0.51314 0.74621 0.0
C680 C 0.8303 0.51949 0.73296 0.0
C681 C 0.84639 0.53156 0.74033 0.0
C682 C 0.84693 0.53732 0.76097 0.0
C683 C 0.83142 0.53096 0.7743 0.0
H684 H 0.85841 0.53651 0.73003 0.0
H685 H 0.70177 0.4809 0.85491 0.0
H686 H 0.57619 0.8628 0.76974 0.0
H687 H 0.54514 0.847 0.78365 0.0
H688 H 0.55678 0.79243 0.74813 0.0
H689 H 0.58782 0.80801 0.73421 0.0
H690 H 0.50887 0.8284 0.76957 0.0
H691 H 0.5514 0.75158 0.78048 0.0
H692 H 0.58712 0.73925 0.78231 0.0
H693 H 0.60621 0.79738 0.80668 0.0
H694 H 0.57062 0.8099 0.80544 0.0
H695 H 0.43894 0.7517 0.79826 0.0
H696 H 0.4688 0.76688 0.78168 0.0
H697 H 0.49595 0.77868 0.84081 0.0
H698 H 0.46586 0.76365 0.85769 0.0
H699 H 0.52469 0.76542 0.80957 0.0
H700 H 0.47245 0.81597 0.82098 0.0
H701 H 0.43673 0.82827 0.81968 0.0
H702 H 0.43756 0.825 0.75392 0.0
H703 H 0.4732 0.81226 0.75483 0.0
C704 C 0.57183 0.84768 0.76437 0.0
C705 C 0.58467 0.83661 0.75099 0.0
C706 C 0.55405 0.83865 0.77239 0.0
C707 C 0.54885 0.81837 0.76726 0.0
C708 C 0.56065 0.80799 0.75254 0.0
C709 C 0.57838 0.81699 0.74451 0.0
C710 C 0.53257 0.80732 0.77885 0.0
C711 C 0.51233 0.81461 0.77824 0.0
C712 C 0.5371 0.78956 0.79061 0.0
C713 C 0.55837 0.78173 0.79264 0.0
C714 C 0.5632 0.76166 0.78641 0.0
C715 C 0.58344 0.75465 0.78732 0.0
C716 C 0.59896 0.76757 0.79454 0.0
C717 C 0.59422 0.78741 0.80108 0.0
C718 C 0.57401 0.79447 0.80028 0.0
C719 C 0.45142 0.75709 0.80782 0.0
C720 C 0.4499 0.75657 0.82936 0.0
C721 C 0.46847 0.76585 0.79826 0.0
C722 C 0.48446 0.77417 0.81 0.0
C723 C 0.48374 0.77238 0.83147 0.0
C724 C 0.46654 0.76376 0.84109 0.0
C725 C 0.50095 0.7862 0.79983 0.0
C726 C 0.52123 0.77915 0.80081 0.0
C727 C 0.4965 0.80436 0.78869 0.0
C728 C 0.47543 0.81296 0.78799 0.0
C729 C 0.465 0.81779 0.80624 0.0
C730 C 0.44476 0.82482 0.80558 0.0
C731 C 0.43486 0.82729 0.78674 0.0
C732 C 0.44525 0.82299 0.7685 0.0
C733 C 0.46547 0.81588 0.76908 0.0
H734 H 0.41914 0.83254 0.7863 0.0
H735 H 0.61464 0.76218 0.79514 0.0
H736 H 0.14411 0.23916 0.5506 0.0
H737 H 0.16106 0.22445 0.52042 0.0
H738 H 0.21971 0.24393 0.54396 0.0
H739 H 0.20298 0.2584 0.57409 0.0
H740 H 0.1845 0.23791 0.48989 0.0
H741 H 0.25523 0.20723 0.53527 0.0
H742 H 0.2632 0.19483 0.57017 0.0
H743 H 0.20013 0.17846 0.5791 0.0
H744 H 0.19184 0.19043 0.54419 0.0
H745 H 0.26179 0.21276 0.41964 0.0
H746 H 0.24477 0.22611 0.45016 0.0
H747 H 0.23074 0.1644 0.46944 0.0
H748 H 0.24778 0.15084 0.43878 0.0
H749 H 0.24089 0.18819 0.50207 0.0
H750 H 0.19565 0.19147 0.44555 0.0
H751 H 0.18293 0.1998 0.41092 0.0
H752 H 0.18794 0.26414 0.42418 0.0
H753 H 0.20129 0.25623 0.4587 0.0
C754 C 0.16058 0.2406 0.54918 0.0
C755 C 0.17218 0.24985 0.56485 0.0
C756 C 0.17026 0.23214 0.53193 0.0
C757 C 0.19172 0.2327 0.53008 0.0
C758 C 0.20319 0.24289 0.54521 0.0
C759 C 0.19356 0.25129 0.56241 0.0
C760 C 0.20228 0.22211 0.51278 0.0
C761 C 0.19688 0.22712 0.49255 0.0
C762 C 0.21794 0.20741 0.51621 0.0
C763 C 0.2229 0.19989 0.53715 0.0
C764 C 0.24309 0.20089 0.54464 0.0
C765 C 0.24765 0.19394 0.56443 0.0
C766 C 0.23217 0.18585 0.57683 0.0
C767 C 0.21209 0.18474 0.56949 0.0
C768 C 0.20745 0.19162 0.54971 0.0
C769 C 0.25545 0.20195 0.43053 0.0
C770 C 0.2561 0.18069 0.42666 0.0
C771 C 0.24558 0.20964 0.44794 0.0
C772 C 0.23613 0.19629 0.46193 0.0
C773 C 0.23784 0.17501 0.45882 0.0
C774 C 0.24764 0.16728 0.44129 0.0
C775 C 0.22367 0.20466 0.47917 0.0
C776 C 0.22863 0.19912 0.4994 0.0
C777 C 0.20713 0.21837 0.4757 0.0
C778 C 0.19969 0.22323 0.4547 0.0
C779 C 0.19434 0.2074 0.44101 0.0
C780 C 0.18697 0.21205 0.4214 0.0
C781 C 0.18461 0.23248 0.41538 0.0
C782 C 0.18976 0.24832 0.42889 0.0
C783 C 0.19729 0.24376 0.44846 0.0
H784 H 0.17872 0.23605 0.40028 0.0
H785 H 0.23573 0.18039 0.59209 0.0
H786 H 0.71104 0.18897 0.56352 0.0
H787 H 0.72905 0.20331 0.53387 0.0
H788 H 0.77507 0.1561 0.53896 0.0
H789 H 0.75691 0.14141 0.56842 0.0
H790 H 0.7906 0.19756 0.53806 0.0
H791 H 0.74499 0.15371 0.50002 0.0
H792 H 0.71137 0.13965 0.48996 0.0
H793 H 0.69164 0.19958 0.47091 0.0
H794 H 0.72505 0.21406 0.48114 0.0
H795 H 0.84673 0.22325 0.44781 0.0
H796 H 0.82866 0.20772 0.47668 0.0
H797 H 0.7743 0.24219 0.46108 0.0
H798 H 0.79204 0.25679 0.4315 0.0
H799 H 0.76307 0.20615 0.46766 0.0
H800 H 0.80657 0.2511 0.50608 0.0
H801 H 0.83893 0.26703 0.51744 0.0
H802 H 0.86122 0.20832 0.53741 0.0
H803 H 0.8291 0.19198 0.52591 0.0
C804 C 0.72472 0.18133 0.55803 0.0
C805 C 0.73248 0.16398 0.56829 0.0
C806 C 0.73504 0.18959 0.54111 0.0
C807 C 0.75346 0.18084 0.53426 0.0
C808 C 0.7609 0.16312 0.54402 0.0
C809 C 0.75039 0.15463 0.56074 0.0
C810 C 0.76551 0.19092 0.5177 0.0
C811 C 0.78477 0.1992 0.52256 0.0
C812 C 0.75755 0.19369 0.49771 0.0
C813 C 0.73746 0.185 0.49155 0.0
C814 C 0.73342 0.16393 0.49387 0.0
C815 C 0.71441 0.15588 0.4881 0.0
C816 C 0.69936 0.16872 0.47986 0.0
C817 C 0.7033 0.18965 0.47732 0.0
C818 C 0.72228 0.19778 0.48309 0.0
C819 C 0.83108 0.2279 0.45084 0.0
C820 C 0.82087 0.24138 0.43744 0.0
C821 C 0.82071 0.219 0.46742 0.0
C822 C 0.80004 0.22382 0.47135 0.0
C823 C 0.79016 0.23804 0.45845 0.0
C824 C 0.80039 0.24657 0.44162 0.0
C825 C 0.78831 0.21311 0.48794 0.0
C826 C 0.76905 0.20463 0.48313 0.0
C827 C 0.79612 0.21052 0.5081 0.0
C828 C 0.81551 0.22028 0.51493 0.0
C829 C 0.81844 0.24156 0.51273 0.0
C830 C 0.83673 0.25066 0.51923 0.0
C831 C 0.85214 0.23868 0.52809 0.0
C832 C 0.84928 0.21757 0.53051 0.0
C833 C 0.83103 0.20838 0.52402 0.0
H834 H 0.86628 0.24577 0.53312 0.0
H835 H 0.68466 0.16246 0.47539 0.0
H836 H 0.78237 0.86505 0.42403 0.0
H837 H 0.79844 0.85225 0.45544 0.0
H838 H 0.7444 0.8168 0.46891 0.0
H839 H 0.72832 0.82916 0.43719 0.0
H840 H 0.76566 0.83796 0.50483 0.0
H841 H 0.77786 0.79078 0.44786 0.0
H842 H 0.78914 0.78207 0.41289 0.0
H843 H 0.84855 0.80753 0.42542 0.0
H844 H 0.83757 0.81635 0.46058 0.0
H845 H 0.80237 0.76321 0.57356 0.0
H846 H 0.78612 0.78098 0.5449 0.0
H847 H 0.84552 0.79901 0.52224 0.0
H848 H 0.86195 0.78071 0.55072 0.0
H849 H 0.82253 0.78919 0.49128 0.0
H850 H 0.81341 0.83311 0.54855 0.0
H851 H 0.80382 0.84321 0.58372 0.0
H852 H 0.74109 0.82765 0.57131 0.0
H853 H 0.75034 0.81721 0.53613 0.0
C854 C 0.77361 0.85502 0.43394 0.0
C855 C 0.75401 0.84815 0.42803 0.0
C856 C 0.78291 0.84761 0.45185 0.0
C857 C 0.7727 0.83343 0.46443 0.0
C858 C 0.75255 0.82774 0.45943 0.0
C859 C 0.74336 0.83487 0.44131 0.0
C860 C 0.78374 0.82312 0.4816 0.0
C861 C 0.77795 0.82713 0.50193 0.0
C862 C 0.80025 0.80955 0.47784 0.0
C863 C 0.80683 0.80442 0.45672 0.0
C864 C 0.79327 0.79468 0.44308 0.0
C865 C 0.79963 0.78969 0.42324 0.0
C866 C 0.81953 0.79436 0.41686 0.0
C867 C 0.83313 0.80396 0.43036 0.0
C868 C 0.82687 0.80891 0.45027 0.0
C869 C 0.81203 0.77077 0.56237 0.0
C870 C 0.83349 0.77054 0.56449 0.0
C871 C 0.80267 0.78113 0.54606 0.0
C872 C 0.8145 0.79184 0.53159 0.0
C873 C 0.83599 0.79102 0.53324 0.0
C874 C 0.8454 0.78048 0.54951 0.0
C875 C 0.80437 0.80373 0.51475 0.0
C876 C 0.81034 0.80007 0.49438 0.0
C877 C 0.78829 0.81794 0.51857 0.0
C878 C 0.78262 0.82419 0.53974 0.0
C879 C 0.7976 0.83169 0.55336 0.0
C880 C 0.79222 0.83751 0.57329 0.0
C881 C 0.77187 0.83602 0.57976 0.0
C882 C 0.75685 0.82877 0.56629 0.0
C883 C 0.76215 0.82292 0.54634 0.0
H884 H 0.76774 0.84054 0.5952 0.0
H885 H 0.82446 0.79047 0.4015 0.0
H886 H 0.2122 0.75224 0.43721 0.0
H887 H 0.22736 0.76885 0.46732 0.0
H888 H 0.17073 0.80111 0.47823 0.0
H889 H 0.1553 0.78423 0.44829 0.0
H890 H 0.20674 0.82676 0.47716 0.0
H891 H 0.18249 0.76539 0.51005 0.0
H892 H 0.17857 0.72802 0.51453 0.0
H893 H 0.24377 0.7215 0.52065 0.0
H894 H 0.24811 0.75881 0.51591 0.0
H895 H 0.23117 0.86929 0.57514 0.0
H896 H 0.2169 0.85374 0.54422 0.0
H897 H 0.26753 0.81118 0.54208 0.0
H898 H 0.2815 0.82626 0.57347 0.0
H899 H 0.23426 0.79068 0.53824 0.0
H900 H 0.25957 0.85091 0.50533 0.0
H901 H 0.26489 0.88794 0.49966 0.0
H902 H 0.20009 0.89651 0.49199 0.0
H903 H 0.19434 0.85956 0.49789 0.0
C904 C 0.20283 0.76256 0.44624 0.0
C905 C 0.1825 0.76683 0.4404 0.0
C906 C 0.21154 0.77208 0.46343 0.0
C907 C 0.20022 0.78629 0.475 0.0
C908 C 0.17977 0.79023 0.4695 0.0
C909 C 0.17091 0.78043 0.4525 0.0
C910 C 0.21006 0.7976 0.49227 0.0
C911 C 0.2125 0.81895 0.49069 0.0
C912 C 0.21821 0.78731 0.50956 0.0
C913 C 0.21564 0.76487 0.51241 0.0
C914 C 0.19601 0.75596 0.51215 0.0
C915 C 0.19371 0.7348 0.51479 0.0
C916 C 0.21091 0.72238 0.51782 0.0
C917 C 0.23046 0.73113 0.51827 0.0
C918 C 0.23285 0.75229 0.51563 0.0
C919 C 0.23962 0.85702 0.56777 0.0
C920 C 0.25753 0.84907 0.57682 0.0
C921 C 0.23139 0.84807 0.55002 0.0
C922 C 0.24107 0.8312 0.54065 0.0
C923 C 0.25963 0.82406 0.54902 0.0
C924 C 0.26773 0.83284 0.56689 0.0
C925 C 0.23109 0.82001 0.52323 0.0
C926 C 0.22858 0.79861 0.52475 0.0
C927 C 0.22313 0.83025 0.50575 0.0
C928 C 0.22651 0.85249 0.50226 0.0
C929 C 0.24643 0.86072 0.50261 0.0
C930 C 0.24953 0.88169 0.49931 0.0
C931 C 0.23284 0.89458 0.49552 0.0
C932 C 0.21301 0.88651 0.49496 0.0
C933 C 0.20982 0.86555 0.49826 0.0
H934 H 0.23527 0.91081 0.49297 0.0
H935 H 0.20909 0.706 0.51986 0.0
H936 H 0.64355 0.92354 0.72897 0.0
H937 H 0.65761 0.95388 0.71197 0.0
H938 H 0.685 0.97334 0.76894 0.0
H939 H 0.67128 0.94282 0.78604 0.0
H940 H 0.66753 0.00605 0.74456 0.0
H941 H 0.71376 0.9488 0.73862 0.0
H942 H 0.72285 0.91308 0.73004 0.0
H943 H 0.7066 0.92373 0.66709 0.0
H944 H 0.69702 0.95944 0.67538 0.0
H945 H 0.73938 0.07639 0.70857 0.0
H946 H 0.72613 0.04547 0.72494 0.0
H947 H 0.70625 0.02258 0.66613 0.0
H948 H 0.71985 0.05347 0.6495 0.0
H949 H 0.71945 0.99124 0.69091 0.0
H950 H 0.67273 0.04763 0.69624 0.0
H951 H 0.66202 0.08296 0.70429 0.0
H952 H 0.67797 0.07378 0.76755 0.0
H953 H 0.68898 0.03836 0.75981 0.0
C954 C 0.65205 0.93455 0.73807 0.0
C955 C 0.65632 0.93071 0.75889 0.0
C956 C 0.66024 0.9518 0.72825 0.0
C957 C 0.67262 0.96568 0.73912 0.0
C958 C 0.67557 0.96276 0.76025 0.0
C959 C 0.66765 0.94534 0.77002 0.0
C960 C 0.68364 0.98237 0.72818 0.0
C961 C 0.67905 1.00283 0.73301 0.0
C962 C 0.69836 0.97813 0.71278 0.0
C963 C 0.70445 0.95675 0.70767 0.0
C964 C 0.71195 0.94349 0.72298 0.0
C965 C 0.71721 0.92324 0.71817 0.0
C966 C 0.71525 0.91612 0.69805 0.0
C967 C 0.70808 0.92926 0.68268 0.0
C968 C 0.70273 0.94951 0.68743 0.0
C969 C 0.73266 0.06457 0.699 0.0
C970 C 0.73055 0.0675 0.67771 0.0
C971 C 0.72495 0.04693 0.70843 0.0
C972 C 0.71471 0.0319 0.69686 0.0
C973 C 0.71396 0.03401 0.67541 0.0
C974 C 0.72181 0.05167 0.6659 0.0
C975 C 0.70343 0.015 0.70737 0.0
C976 C 0.70794 0.99449 0.70245 0.0
C977 C 0.68851 0.01916 0.72263 0.0
C978 C 0.68184 0.04041 0.72741 0.0
C979 C 0.67409 0.05319 0.71184 0.0
C980 C 0.66795 0.07324 0.71636 0.0
C981 C 0.66936 0.08066 0.73642 0.0
C982 C 0.6769 0.06802 0.75202 0.0
C983 C 0.68307 0.04794 0.74758 0.0
H984 H 0.66451 0.09615 0.73991 0.0
H985 H 0.71934 0.90044 0.69435 0.0
H986 H 0.92421 0.72657 0.70984 0.0
H987 H 0.9539 0.71214 0.72727 0.0
H988 H 0.99299 0.73344 0.67835 0.0
H989 H 0.96291 0.74698 0.6602 0.0
H990 H 0.00547 0.69826 0.68805 0.0
H991 H 0.99023 0.75693 0.72865 0.0
H992 H 0.96908 0.78077 0.74902 0.0
H993 H 0.95661 0.73292 0.79253 0.0
H994 H 0.97748 0.70871 0.77227 0.0
H995 H 0.0877 0.69647 0.77366 0.0
H996 H 0.05649 0.71173 0.75979 0.0
H997 H 0.03807 0.65273 0.73611 0.0
H998 H 0.06958 0.6374 0.74958 0.0
H999 H 0.01682 0.7088 0.76259 0.0
H1000 H 0.01714 0.65864 0.68885 0.0
H1001 H 0.04204 0.63964 0.6676 0.0
H1002 H 0.09042 0.67909 0.68859 0.0
H1003 H 0.06578 0.69847 0.70974 0.0
C1004 C 0.93915 0.72837 0.70282 0.0
C1005 C 0.94119 0.73811 0.68368 0.0
C1006 C 0.95621 0.72016 0.71291 0.0
C1007 C 0.97594 0.72198 0.70445 0.0
C1008 C 0.97802 0.73181 0.68531 0.0
C1009 C 0.96082 0.73966 0.67497 0.0
C1010 C 0.99416 0.71314 0.71534 0.0
C1011 C 0.00787 0.70063 0.70435 0.0
C1012 C 0.99781 0.71645 0.73657 0.0
C1013 C 0.98527 0.73096 0.74883 0.0
C1014 C 0.98286 0.75146 0.74248 0.0
C1015 C 0.97094 0.76504 0.75403 0.0
C1016 C 0.96147 0.75835 0.77203 0.0
C1017 C 0.96394 0.73807 0.77856 0.0
C1018 C 0.97583 0.72442 0.76707 0.0
C1019 C 0.07681 0.68658 0.76593 0.0
C1020 C 0.0813 0.6657 0.76262 0.0
C1021 C 0.05892 0.69539 0.75794 0.0
C1022 C 0.04509 0.68354 0.74644 0.0
C1023 C 0.04871 0.66233 0.74453 0.0
C1024 C 0.06666 0.65351 0.75245 0.0
C1025 C 0.02772 0.69364 0.73538 0.0
C1026 C 0.01426 0.7064 0.74632 0.0
C1027 C 0.02477 0.69124 0.71396 0.0
C1028 C 0.03964 0.67984 0.70105 0.0
C1029 C 0.03308 0.66329 0.68887 0.0
C1030 C 0.04715 0.65246 0.67685 0.0
C1031 C 0.06781 0.65811 0.67681 0.0
C1032 C 0.07443 0.67467 0.68871 0.0
C1033 C 0.06042 0.68557 0.70072 0.0
H1034 H 0.07868 0.64969 0.66752 0.0
H1035 H 0.95224 0.76888 0.78094 0.0
H1036 H 0.3503 0.06632 0.71594 0.0
H1037 H 0.33302 0.03666 0.70047 0.0
H1038 H 0.28055 0.04694 0.73923 0.0
H1039 H 0.29752 0.07691 0.75442 0.0
H1040 H 0.29529 0.0033 0.73464 0.0
H1041 H 0.27539 0.06339 0.69566 0.0
H1042 H 0.28273 0.09477 0.67581 0.0
H1043 H 0.3161 0.05928 0.63155 0.0
H1044 H 0.30933 0.02772 0.65134 0.0
H1045 H 0.22366 0.93916 0.68717 0.0
H1046 H 0.23881 0.9706 0.70081 0.0
H1047 H 0.28416 0.96972 0.65279 0.0
H1048 H 0.26892 0.93831 0.63886 0.0
H1049 H 0.27345 0.00891 0.66185 0.0
H1050 H 0.29648 0.95045 0.69906 0.0
H1051 H 0.29343 0.91813 0.71839 0.0
H1052 H 0.25839 0.9489 0.76488 0.0
H1053 H 0.26121 0.98148 0.74574 0.0
C1054 C 0.33525 0.06204 0.72146 0.0
C1055 C 0.3253 0.07395 0.73645 0.0
C1056 C 0.32534 0.04517 0.7125 0.0
C1057 C 0.30545 0.03968 0.7186 0.0
C1058 C 0.29589 0.05091 0.73428 0.0
C1059 C 0.30562 0.06802 0.74295 0.0
C1060 C 0.29428 0.02279 0.70803 0.0
C1061 C 0.29023 0.00464 0.71883 0.0
C1062 C 0.28828 0.02429 0.6872 0.0
C1063 C 0.29203 0.04321 0.6751 0.0
C1064 C 0.28445 0.06229 0.68179 0.0
C1065 C 0.28848 0.08011 0.67055 0.0
C1066 C 0.2999 0.07902 0.65247 0.0
C1067 C 0.30727 0.0601 0.64557 0.0
C1068 C 0.30334 0.04224 0.65679 0.0
C1069 C 0.23653 0.9459 0.67915 0.0
C1070 C 0.24512 0.93606 0.66196 0.0
C1071 C 0.2453 0.96383 0.68709 0.0
C1072 C 0.26296 0.97232 0.67815 0.0
C1073 C 0.27063 0.96344 0.66006 0.0
C1074 C 0.26183 0.94547 0.65207 0.0
C1075 C 0.27418 0.98942 0.68854 0.0
C1076 C 0.27835 0.00759 0.6777 0.0
C1077 C 0.28066 0.98782 0.70926 0.0
C1078 C 0.27886 0.96833 0.72086 0.0
C1079 C 0.28799 0.95028 0.71333 0.0
C1080 C 0.28633 0.93192 0.72427 0.0
C1081 C 0.27561 0.9314 0.7428 0.0
C1082 C 0.26664 0.9493 0.75049 0.0
C1083 C 0.26831 0.96774 0.73963 0.0
H1084 H 0.27433 0.91715 0.75123 0.0
H1085 H 0.30301 0.09283 0.6438 0.0
H1086 H 0.08125 0.26698 0.71349 0.0
H1087 H 0.05135 0.2808 0.73088 0.0
H1088 H 0.01391 0.26648 0.67816 0.0
H1089 H 0.04426 0.25346 0.66017 0.0
H1090 H 0.00376 0.30198 0.69035 0.0
H1091 H 0.01165 0.23877 0.72565 0.0
H1092 H 0.02942 0.21131 0.74469 0.0
H1093 H 0.04295 0.25347 0.7935 0.0
H1094 H 0.0255 0.28126 0.77462 0.0
H1095 H 0.91968 0.30253 0.77568 0.0
H1096 H 0.94917 0.28639 0.75956 0.0
H1097 H 0.97053 0.34568 0.73927 0.0
H1098 H 0.94028 0.36187 0.75459 0.0
H1099 H 0.98725 0.2858 0.7628 0.0
H1100 H 0.99587 0.34217 0.69443 0.0
H1101 H 0.97437 0.36534 0.67358 0.0
H1102 H 0.92123 0.32917 0.68766 0.0
H1103 H 0.94245 0.30565 0.70838 0.0
C1104 C 0.06662 0.26645 0.70563 0.0
C1105 C 0.06516 0.25896 0.68544 0.0
C1106 C 0.04943 0.27434 0.71569 0.0
C1107 C 0.03016 0.27448 0.70605 0.0
C1108 C 0.02856 0.26659 0.686 0.0
C1109 C 0.04589 0.25899 0.67575 0.0
C1110 C 0.01201 0.28369 0.71663 0.0
C1111 C 1.00015 0.29835 0.70618 0.0
C1112 C 0.00688 0.2788 0.7372 0.0
C1113 C 0.01741 0.26214 0.74863 0.0
C1114 C 0.01855 0.24222 0.74037 0.0
C1115 C 0.02854 0.22659 0.75115 0.0
C1116 C 0.03735 0.23066 0.77027 0.0
C1117 C 0.03614 0.25035 0.77868 0.0
C1118 C 0.02617 0.26604 0.76796 0.0
C1119 C 0.93074 0.31223 0.768 0.0
C1120 C 0.92751 0.33353 0.76635 0.0
C1121 C 0.94768 0.30293 0.75874 0.0
C1122 C 0.962 0.31466 0.74776 0.0
C1123 C 0.95946 0.33613 0.74713 0.0
C1124 C 0.94226 0.34544 0.7561 0.0
C1125 C 0.97913 0.30425 0.7366 0.0
C1126 C 0.99084 0.2894 0.74697 0.0
C1127 C 0.98358 0.30836 0.7157 0.0
C1128 C 0.97073 0.3223 0.70313 0.0
C1129 C 0.97961 0.33914 0.69302 0.0
C1130 C 0.96747 0.35233 0.68123 0.0
C1131 C 0.94644 0.34877 0.67935 0.0
C1132 C 0.93751 0.33196 0.68919 0.0
C1133 C 0.94958 0.3187 0.70097 0.0
H1134 H 0.93706 0.35901 0.67024 0.0
H1135 H 0.04507 0.21854 0.77859 0.0
H1136 H 0.7823 0.92811 0.31732 0.0
H1137 H 0.76651 0.95918 0.30322 0.0
H1138 H 0.71618 0.95292 0.34552 0.0
H1139 H 0.73196 0.92202 0.35987 0.0
H1140 H 0.70343 0.95694 0.305 0.0
H1141 H 0.74849 0.99129 0.35167 0.0
H1142 H 0.7815 0.99991 0.36796 0.0
H1143 H 0.80496 0.02063 0.31005 0.0
H1144 H 0.77218 0.01185 0.29333 0.0
H1145 H 0.65244 0.05061 0.28036 0.0
H1146 H 0.66893 0.0208 0.29609 0.0
H1147 H 0.72428 0.03354 0.26225 0.0
H1148 H 0.70804 0.06381 0.24712 0.0
H1149 H 0.73439 0.02619 0.29939 0.0
H1150 H 0.691 0.99074 0.25182 0.0
H1151 H 0.65848 0.98207 0.23457 0.0
H1152 H 0.6329 0.96267 0.29203 0.0
H1153 H 0.66522 0.9714 0.30967 0.0
C1154 C 0.76814 0.93363 0.32401 0.0
C1155 C 0.75847 0.92255 0.33981 0.0
C1156 C 0.75909 0.95139 0.31587 0.0
C1157 C 0.74009 0.95837 0.32323 0.0
C1158 C 0.73081 0.94782 0.33954 0.0
C1159 C 0.73998 0.93022 0.34786 0.0
C1160 C 0.72928 0.97581 0.31304 0.0
C1161 C 0.7101 0.97215 0.30394 0.0
C1162 C 0.73816 0.99553 0.31122 0.0
C1163 C 0.75794 1.00068 0.3212 0.0
C1164 C 0.76076 0.99748 0.34236 0.0
C1165 C 0.77941 1.00244 0.35168 0.0
C1166 C 0.79534 0.01075 0.34004 0.0
C1167 C 0.79262 0.01415 0.31905 0.0
C1168 C 0.774 0.0092 0.30964 0.0
C1169 C 0.66796 0.04677 0.27591 0.0
C1170 C 0.6789 0.05954 0.26242 0.0
C1171 C 0.67744 0.02969 0.28495 0.0
C1172 C 0.69792 0.02468 0.28033 0.0
C1173 C 0.70854 0.03701 0.2662 0.0
C1174 C 0.69917 0.05425 0.25741 0.0
C1175 C 0.7086 0.00729 0.29096 0.0
C1176 C 0.72774 0.01096 0.30024 0.0
C1177 C 0.69982 0.98746 0.29267 0.0
C1178 C 0.68044 0.98198 0.2821 0.0
C1179 C 0.67839 0.98477 0.2608 0.0
C1180 C 0.66 0.97983 0.25095 0.0
C1181 C 0.64358 0.97197 0.26223 0.0
C1182 C 0.64559 0.96887 0.28334 0.0
C1183 C 0.66395 0.97376 0.29327 0.0
H1184 H 0.62936 0.96815 0.25457 0.0
H1185 H 0.80976 0.0146 0.34729 0.0
H1186 H 0.95195 0.63725 0.26948 0.0
H1187 H 0.9822 0.65452 0.2836 0.0
H1188 H 0.95879 0.71279 0.2627 0.0
H1189 H 0.92847 0.69574 0.24888 0.0
H1190 H 0.013 0.67797 0.27086 0.0
H1191 H 0.96678 0.74898 0.29784 0.0
H1192 H 0.93174 0.75776 0.30906 0.0
H1193 H 0.92219 0.6956 0.32867 0.0
H1194 H 0.95711 0.68644 0.31749 0.0
H1195 H 0.08226 0.75524 0.29954 0.0
H1196 H 0.05244 0.73829 0.28466 0.0
H1197 H 0.0303 0.72393 0.34528 0.0
H1198 H 0.06033 0.74088 0.36036 0.0
H1199 H 0.99899 0.7346 0.31987 0.0
H1200 H 0.0549 0.68813 0.31908 0.0
H1201 H 0.0902 0.67642 0.31236 0.0
H1202 H 0.08076 0.68414 0.24764 0.0
H1203 H 0.04548 0.69627 0.25398 0.0
C1204 C 0.95348 0.65367 0.26743 0.0
C1205 C 0.93769 0.66511 0.25815 0.0
C1206 C 0.97076 0.66356 0.27562 0.0
C1207 C 0.97256 0.68505 0.2747 0.0
C1208 C 0.95754 0.69627 0.26408 0.0
C1209 C 0.94027 0.68644 0.25599 0.0
C1210 C 0.98951 0.69587 0.28564 0.0
C1211 C 0.00992 0.69039 0.28149 0.0
C1212 C 0.98559 0.71169 0.30008 0.0
C1213 C 0.96448 0.717 0.30663 0.0
C1214 C 0.95718 0.73719 0.30452 0.0
C1215 C 0.93733 0.74222 0.31083 0.0
C1216 C 0.9247 0.72722 0.31943 0.0
C1217 C 0.9319 0.70716 0.32181 0.0
C1218 C 0.9517 0.70202 0.31543 0.0
C1219 C 0.07097 0.74871 0.30977 0.0
C1220 C 0.07384 0.74925 0.33116 0.0
C1221 C 0.05392 0.73895 0.3012 0.0
C1222 C 0.03932 0.72946 0.31382 0.0
C1223 C 0.04143 0.73104 0.33523 0.0
C1224 C 0.05858 0.7408 0.34383 0.0
C1225 C 0.02243 0.71715 0.30456 0.0
C1226 C 1.00206 0.72228 0.30911 0.0
C1227 C 0.0264 0.70062 0.29098 0.0
C1228 C 0.04758 0.69326 0.28702 0.0
C1229 C 0.06039 0.68749 0.30341 0.0
C1230 C 0.08038 0.68075 0.29968 0.0
C1231 C 0.08769 0.6795 0.27959 0.0
C1232 C 0.07504 0.68507 0.26319 0.0
C1233 C 0.05504 0.69188 0.26685 0.0
H1234 H 0.10313 0.67417 0.27675 0.0
H1235 H 0.90935 0.73116 0.3243 0.0
H1236 H 0.36315 0.94447 0.26585 0.0
H1237 H 0.34654 0.97374 0.28264 0.0
H1238 H 0.30234 0.97696 0.23356 0.0
H1239 H 0.31854 0.94738 0.21693 0.0
H1240 H 0.31841 0.01668 0.24878 0.0
H1241 H 0.2871 0.95347 0.27205 0.0
H1242 H 0.28789 0.91861 0.28667 0.0
H1243 H 0.31598 0.94191 0.34156 0.0
H1244 H 0.31557 0.97694 0.32711 0.0
H1245 H 0.24253 0.07795 0.29247 0.0
H1246 H 0.25848 0.04807 0.27644 0.0
H1247 H 0.29206 0.03596 0.33217 0.0
H1248 H 0.27561 0.06552 0.34853 0.0
H1249 H 0.28268 1.00073 0.31407 0.0
H1250 H 0.31304 0.06367 0.29269 0.0
H1251 H 0.31339 0.09884 0.27885 0.0
H1252 H 0.29009 0.07686 0.22129 0.0
H1253 H 0.28906 0.04155 0.23496 0.0
C1254 C 0.35025 0.95176 0.25833 0.0
C1255 C 0.34217 0.94363 0.24003 0.0
C1256 C 0.34067 0.96837 0.26804 0.0
C1257 C 0.32309 0.97735 0.25945 0.0
C1258 C 0.31587 0.97021 0.24046 0.0
C1259 C 0.32518 0.95335 0.23095 0.0
C1260 C 0.3114 0.99324 0.27087 0.0
C1261 C 0.3104 0.01319 0.26293 0.0
C1262 C 0.30143 0.98875 0.28961 0.0
C1263 C 0.30152 0.96777 0.29841 0.0
C1264 C 0.29361 0.95113 0.28717 0.0
C1265 C 0.29396 0.93135 0.29544 0.0
C1266 C 0.30206 0.92802 0.31501 0.0
C1267 C 0.30975 0.9445 0.32638 0.0
C1268 C 0.30944 0.96433 0.31817 0.0
C1269 C 0.2529 0.06861 0.3015 0.0
C1270 C 0.25791 0.07421 0.32174 0.0
C1271 C 0.26216 0.05161 0.29225 0.0
C1272 C 0.27698 0.04009 0.30286 0.0
C1273 C 0.28083 0.04469 0.32358 0.0
C1274 C 0.27134 0.06157 0.33296 0.0
C1275 C 0.28942 0.0243 0.2919 0.0
C1276 C 0.29066 0.00434 0.29994 0.0
C1277 C 0.29986 0.02885 0.27335 0.0
C1278 C 0.30077 0.04999 0.26493 0.0
C1279 C 0.30785 0.06634 0.27713 0.0
C1280 C 0.30819 0.08629 0.26931 0.0
C1281 C 0.30175 0.09006 0.24923 0.0
C1282 C 0.29503 0.07389 0.23686 0.0
C1283 C 0.29455 0.0539 0.24465 0.0
H1284 H 0.30196 0.1055 0.24327 0.0
H1285 H 0.30234 0.91269 0.32139 0.0
H1286 H 0.05009 0.35699 0.26219 0.0
H1287 H 0.02063 0.33983 0.27807 0.0
H1288 H 0.04629 0.2809 0.26237 0.0
H1289 H 0.07553 0.29782 0.24643 0.0
H1290 H 0.99086 0.31209 0.26575 0.0
H1291 H 0.04128 0.24951 0.30464 0.0
H1292 H 0.07678 0.24544 0.3171 0.0
H1293 H 0.08183 0.31064 0.32507 0.0
H1294 H 0.04624 0.31508 0.31313 0.0
H1295 H 0.92688 0.23375 0.30143 0.0
H1296 H 0.95641 0.25053 0.28582 0.0
H1297 H 0.97417 0.27463 0.34483 0.0
H1298 H 0.94463 0.25766 0.36068 0.0
H1299 H 0.00759 0.26387 0.32234 0.0
H1300 H 0.94729 0.30417 0.31268 0.0
H1301 H 0.91143 0.31062 0.30261 0.0
H1302 H 0.92567 0.29492 0.24025 0.0
H1303 H 0.96157 0.28807 0.25002 0.0
C1304 C 0.04923 0.34039 0.26171 0.0
C1305 C 0.06529 0.32878 0.25319 0.0
C1306 C 0.0324 0.33061 0.27085 0.0
C1307 C 0.03145 0.30908 0.27176 0.0
C1308 C 0.04685 0.29752 0.26216 0.0
C1309 C 0.06356 0.30725 0.25298 0.0
C1310 C 0.01508 0.29857 0.28367 0.0
C1311 C 0.99452 0.30152 0.27808 0.0
C1312 C 0.0198 0.28519 0.30017 0.0
C1313 C 0.04112 0.28262 0.30778 0.0
C1314 C 0.04991 0.26296 0.30917 0.0
C1315 C 0.07005 0.26059 0.31617 0.0
C1316 C 0.08154 0.27777 0.32186 0.0
C1317 C 0.07292 0.29735 0.32062 0.0
C1318 C 0.05276 0.2998 0.31374 0.0
C1319 C 0.93728 0.24225 0.31122 0.0
C1320 C 0.93328 0.24446 0.33231 0.0
C1321 C 0.95411 0.25197 0.30222 0.0
C1322 C 0.96726 0.26425 0.31405 0.0
C1323 C 0.96416 0.26535 0.33536 0.0
C1324 C 0.94729 0.25557 0.34442 0.0
C1325 C 0.98342 0.27683 0.30394 0.0
C1326 C 0.00393 0.27435 0.30995 0.0
C1327 C 0.97861 0.29101 0.28814 0.0
C1328 C 0.9571 0.29543 0.28212 0.0
C1329 C 0.94275 0.30197 0.29684 0.0
C1330 C 0.92241 0.30571 0.29119 0.0
C1331 C 0.91626 0.30313 0.27081 0.0
C1332 C 0.93045 0.29689 0.25604 0.0
C1333 C 0.95081 0.29309 0.26162 0.0
H1334 H 0.9005 0.30602 0.26646 0.0
H1335 H 0.09713 0.27591 0.32725 0.0
H1336 H 0.76095 0.69831 0.91605 0.0
H1337 H 0.74914 0.71395 0.94813 0.0
H1338 H 0.70976 0.662 0.95894 0.0
H1339 H 0.72183 0.64604 0.92715 0.0
H1340 H 0.68969 0.70181 0.95848 0.0
H1341 H 0.74701 0.66754 0.98993 0.0
H1342 H 0.7834 0.65811 0.99383 0.0
H1343 H 0.79925 0.72154 1.00208 0.0
H1344 H 0.76297 0.73138 0.99793 0.0
H1345 H 0.65039 0.73223 0.05584 0.0
H1346 H 0.66433 0.71495 0.02565 0.0
H1347 H 0.71509 0.75739 0.02487 0.0
H1348 H 0.70163 0.77412 0.05558 0.0
H1349 H 0.72969 0.72162 0.02009 0.0
H1350 H 0.67444 0.75713 0.98778 0.0
H1351 H 0.63888 0.76859 0.98201 0.0
H1352 H 0.61991 0.70613 0.97299 0.0
H1353 H 0.65532 0.69426 0.97898 0.0
C1354 C 0.75028 0.6899 0.92559 0.0
C1355 C 0.74242 0.67087 0.91907 0.0
C1356 C 0.74347 0.69891 0.94388 0.0
C1357 C 0.72845 0.68921 0.95584 0.0
C1358 C 0.72132 0.66976 0.94991 0.0
C1359 C 0.72842 0.66056 0.93183 0.0
C1360 C 0.71899 0.70012 0.97353 0.0
C1361 C 0.69831 0.70588 0.97213 0.0
C1362 C 0.73046 0.7061 0.99093 0.0
C1363 C 0.75229 0.70021 0.99341 0.0
C1364 C 0.75827 0.6795 0.99238 0.0
C1365 C 0.77888 0.67407 0.99468 0.0
C1366 C 0.79363 0.68922 0.99814 0.0
C1367 C 0.7878 0.70982 0.99936 0.0
C1368 C 0.76722 0.71533 0.99706 0.0
C1369 C 0.66429 0.73816 0.04898 0.0
C1370 C 0.67485 0.75462 0.0581 0.0
C1371 C 0.67229 0.72824 0.03165 0.0
C1372 C 0.69079 0.73485 0.02275 0.0
C1373 C 0.70089 0.75184 0.03142 0.0
C1374 C 0.69308 0.76153 0.04892 0.0
C1375 C 0.7002 0.72346 0.00517 0.0
C1376 C 0.72094 0.7176 0.00651 0.0
C1377 C 0.68885 0.71773 0.9875 0.0
C1378 C 0.6675 0.72479 0.98406 0.0
C1379 C 0.66266 0.74582 0.98475 0.0
C1380 C 0.64253 0.75239 0.9814 0.0
C1381 C 0.62714 0.73809 0.9772 0.0
C1382 C 0.63185 0.71719 0.97629 0.0
C1383 C 0.65194 0.71053 0.97965 0.0
H1384 H 0.61157 0.74321 0.9746 0.0
H1385 H 0.80958 0.68498 0.99993 0.0
H1386 H 0.24241 0.71091 0.07451 0.0
H1387 H 0.25913 0.72596 0.0444 0.0
H1388 H 0.30042 0.67439 0.04156 0.0
H1389 H 0.28338 0.65895 0.07129 0.0
H1390 H 0.31947 0.71523 0.04274 0.0
H1391 H 0.26809 0.67691 0.00581 0.0
H1392 H 0.23282 0.66603 0.99765 0.0
H1393 H 0.21648 0.72833 0.98367 0.0
H1394 H 0.25159 0.73963 0.99203 0.0
H1395 H 0.37081 0.73864 0.94911 0.0
H1396 H 0.3537 0.7244 0.97923 0.0
H1397 H 0.30216 0.76465 0.96892 0.0
H1398 H 0.31886 0.77824 0.93828 0.0
H1399 H 0.28797 0.72927 0.97494 0.0
H1400 H 0.33714 0.769 0.01132 0.0
H1401 H 0.37102 0.78237 0.02142 0.0
H1402 H 0.39008 0.72177 0.03895 0.0
H1403 H 0.3564 0.70797 0.02867 0.0
C1404 C 0.2547 0.70252 0.06715 0.0
C1405 C 0.26144 0.68364 0.07518 0.0
C1406 C 0.26428 0.71117 0.04998 0.0
C1407 C 0.28106 0.70132 0.04078 0.0
C1408 C 0.2875 0.68224 0.04843 0.0
C1409 C 0.27762 0.67335 0.06531 0.0
C1410 C 0.29261 0.71154 0.02397 0.0
C1411 C 0.31273 0.71812 0.0278 0.0
C1412 C 0.28352 0.71591 0.00478 0.0
C1413 C 0.26241 0.70914 0.99976 0.0
C1414 C 0.25692 0.68832 1.00119 0.0
C1415 C 0.23697 0.68207 0.99648 0.0
C1416 C 0.2224 0.69649 0.99021 0.0
C1417 C 0.22777 0.71718 0.98857 0.0
C1418 C 0.2477 0.72351 0.99327 0.0
C1419 C 0.35606 0.74482 0.95355 0.0
C1420 C 0.34622 0.7596 0.94129 0.0
C1421 C 0.34624 0.73665 0.97085 0.0
C1422 C 0.32655 0.74341 0.97655 0.0
C1423 C 0.31723 0.75898 0.96487 0.0
C1424 C 0.32688 0.76689 0.94741 0.0
C1425 C 0.31503 0.73325 0.99361 0.0
C1426 C 0.29484 0.72659 0.98986 0.0
C1427 C 0.32391 0.72924 0.01308 0.0
C1428 C 0.34431 0.73741 0.01897 0.0
C1429 C 0.34862 0.75848 0.01712 0.0
C1430 C 0.36778 0.76615 0.02293 0.0
C1431 C 0.38272 0.75291 0.03076 0.0
C1432 C 0.37851 0.73199 0.03284 0.0
C1433 C 0.35939 0.72425 0.02703 0.0
H1434 H 0.39753 0.75888 0.03527 0.0
H1435 H 0.20696 0.69162 0.98656 0.0
H1436 H 0.27318 0.35835 0.93526 0.0
H1437 H 0.28638 0.34285 0.96685 0.0
H1438 H 0.25074 0.28839 0.95524 0.0
H1439 H 0.23766 0.30366 0.92348 0.0
H1440 H 0.25203 0.29966 0.99741 0.0
H1441 H 0.29761 0.28637 0.94153 0.0
H1442 H 0.31876 0.29563 0.91171 0.0
H1443 H 0.35578 0.33472 0.94971 0.0
H1444 H 0.33463 0.3258 0.97981 0.0
H1445 H 0.30551 0.23063 0.06215 0.0
H1446 H 0.28949 0.24675 0.03231 0.0
H1447 H 0.33367 0.29594 0.03517 0.0
H1448 H 0.35036 0.27926 0.06436 0.0
H1449 H 0.32715 0.28782 0.99746 0.0
H1450 H 0.28074 0.2987 0.0547 0.0
H1451 H 0.25821 0.28811 0.08326 0.0
H1452 H 0.22197 0.25206 0.04182 0.0
H1453 H 0.24427 0.26223 0.01305 0.0
C1454 C 0.2677 0.3433 0.93969 0.0
C1455 C 0.25438 0.33224 0.92679 0.0
C1456 C 0.27539 0.33439 0.95769 0.0
C1457 C 0.26975 0.31435 0.96329 0.0
C1458 C 0.25534 0.30385 0.95122 0.0
C1459 C 0.24786 0.31263 0.93307 0.0
C1460 C 0.28011 0.30374 0.98071 0.0
C1461 C 0.26843 0.29694 0.99742 0.0
C1462 C 0.30152 0.3003 0.98079 0.0
C1463 C 0.31441 0.30561 0.96285 0.0
C1464 C 0.31016 0.29707 0.94349 0.0
C1465 C 0.32217 0.30223 0.92654 0.0
C1466 C 0.33857 0.31584 0.92876 0.0
C1467 C 0.34304 0.32422 0.948 0.0
C1468 C 0.33106 0.31909 0.96502 0.0
C1469 C 0.31199 0.24473 0.05622 0.0
C1470 C 0.32923 0.25364 0.06564 0.0
C1471 C 0.30264 0.25411 0.03928 0.0
C1472 C 0.3099 0.27298 0.03174 0.0
C1473 C 0.3276 0.2815 0.04069 0.0
C1474 C 0.33722 0.27189 0.05737 0.0
C1475 C 0.29916 0.28387 0.01457 0.0
C1476 C 0.31078 0.29069 0.99774 0.0
C1477 C 0.27763 0.28718 0.01438 0.0
C1478 C 0.26428 0.28109 0.03175 0.0
C1479 C 0.26804 0.28841 0.0517 0.0
C1480 C 0.25532 0.28251 0.06792 0.0
C1481 C 0.23876 0.2694 0.06436 0.0
C1482 C 0.23482 0.26219 0.04456 0.0
C1483 C 0.24747 0.26804 0.02829 0.0
H1484 H 0.22895 0.26486 0.07694 0.0
H1485 H 0.34783 0.31983 0.91559 0.0
H1486 H 0.73139 0.3488 0.05906 0.0
H1487 H 0.71331 0.33401 0.02953 0.0
H1488 H 0.73285 0.27347 0.04779 0.0
H1489 H 0.75069 0.28803 0.0773 0.0
H1490 H 0.72289 0.31121 0.99646 0.0
H1491 H 0.69359 0.23979 0.04117 0.0
H1492 H 0.68542 0.23023 0.07686 0.0
H1493 H 0.67342 0.29337 0.09141 0.0
H1494 H 0.68116 0.30327 0.05573 0.0
H1495 H 0.69082 0.23244 0.93046 0.0
H1496 H 0.70522 0.24795 0.9613 0.0
H1497 H 0.64645 0.27425 0.97594 0.0
H1498 H 0.63186 0.25919 0.94456 0.0
H1499 H 0.67181 0.25671 0.01129 0.0
H1500 H 0.67251 0.3052 0.95674 0.0
H1501 H 0.67836 0.31787 0.92161 0.0
H1502 H 0.74275 0.3058 0.92771 0.0
H1503 H 0.73722 0.29258 0.96278 0.0
C1504 C 0.7322 0.33238 0.05654 0.0
C1505 C 0.74241 0.3196 0.07064 0.0
C1506 C 0.72177 0.32394 0.03969 0.0
C1507 C 0.72131 0.30257 0.03669 0.0
C1508 C 0.73258 0.28995 0.05002 0.0
C1509 C 0.74293 0.29834 0.06683 0.0
C1510 C 0.70847 0.29331 0.02016 0.0
C1511 C 0.71174 0.29932 0.99975 0.0
C1512 C 0.69343 0.27816 0.02443 0.0
C1513 C 0.68815 0.27228 0.04579 0.0
C1514 C 0.68908 0.25161 0.05194 0.0
C1515 C 0.68454 0.24614 0.07218 0.0
C1516 C 0.67896 0.26119 0.0864 0.0
C1517 C 0.6778 0.28174 0.08039 0.0
C1518 C 0.68227 0.28728 0.06016 0.0
C1519 C 0.68073 0.24109 0.94041 0.0
C1520 C 0.66015 0.24462 0.93492 0.0
C1521 C 0.68907 0.25004 0.95803 0.0
C1522 C 0.67697 0.26242 0.97078 0.0
C1523 C 0.65604 0.26475 0.96626 0.0
C1524 C 0.64772 0.25608 0.94836 0.0
C1525 C 0.6868 0.27418 0.98768 0.0
C1526 C 0.68296 0.26863 0.0081 0.0
C1527 C 0.70095 0.2901 0.9835 0.0
C1528 C 0.7044 0.29766 0.96231 0.0
C1529 C 0.68787 0.30495 0.9505 0.0
C1530 C 0.69113 0.31228 0.93063 0.0
C1531 C 0.71089 0.31261 0.92247 0.0
C1532 C 0.72745 0.3055 0.93409 0.0
C1533 C 0.72425 0.29807 0.95396 0.0
H1534 H 0.71335 0.31853 0.9072 0.0
H1535 H 0.67551 0.25692 0.10207 0.0
H1536 H 0.18534 0.34376 0.29457 0.0
H1537 H 0.19591 0.31132 0.31037 0.0
H1538 H 0.13286 0.29779 0.32487 0.0
H1539 H 0.12225 0.32987 0.30865 0.0
H1540 H 0.19357 0.28799 0.3445 0.0
H1541 H 0.12204 0.24979 0.30714 0.0
H1542 H 0.09773 0.25685 0.27893 0.0
H1543 H 0.14296 0.29382 0.24866 0.0
H1544 H 0.16763 0.28659 0.27639 0.0
H1545 H 0.20061 0.18623 0.37323 0.0
H1546 H 0.18236 0.21821 0.36617 0.0
H1547 H 0.19414 0.21063 0.30149 0.0
H1548 H 0.21177 0.17813 0.30852 0.0
H1549 H 0.15933 0.23116 0.30693 0.0
H1550 H 0.22762 0.23458 0.332 0.0
H1551 H 0.2561 0.22756 0.35585 0.0
H1552 H 0.22529 0.26129 0.40323 0.0
H1553 H 0.19625 0.26796 0.37987 0.0
C1554 C 0.17389 0.33436 0.30207 0.0
C1555 C 0.153 0.33921 0.30034 0.0
C1556 C 0.17991 0.31573 0.31096 0.0
C1557 C 0.16509 0.30189 0.31824 0.0
C1558 C 0.14449 0.30806 0.31895 0.0
C1559 C 0.13847 0.32648 0.30987 0.0
C1560 C 0.17061 0.28013 0.32213 0.0
C1561 C 0.18594 0.27555 0.33649 0.0
C1562 C 0.16122 0.26393 0.31101 0.0
C1563 C 0.14657 0.26791 0.29402 0.0
C1564 C 0.1268 0.25936 0.29442 0.0
C1565 C 0.11296 0.26338 0.27852 0.0
C1566 C 0.11876 0.27585 0.26208 0.0
C1567 C 0.13845 0.28423 0.26144 0.0
C1568 C 0.15236 0.28018 0.27724 0.0
C1569 C 0.19841 0.19091 0.35742 0.0
C1570 C 0.20752 0.17979 0.34138 0.0
C1571 C 0.18819 0.20929 0.35343 0.0
C1572 C 0.18747 0.21713 0.3334 0.0
C1573 C 0.19465 0.20494 0.3171 0.0
C1574 C 0.20459 0.18629 0.32108 0.0
C1575 C 0.18182 0.23892 0.32983 0.0
C1576 C 0.16665 0.24355 0.31532 0.0
C1577 C 0.19198 0.25519 0.34021 0.0
C1578 C 0.20957 0.25148 0.35426 0.0
C1579 C 0.22678 0.24031 0.34757 0.0
C1580 C 0.24302 0.23637 0.36102 0.0
C1581 C 0.24243 0.24386 0.38109 0.0
C1582 C 0.22564 0.25538 0.38772 0.0
C1583 C 0.20926 0.25921 0.37439 0.0
H1584 H 0.25503 0.24083 0.39146 0.0
H1585 H 0.10806 0.27891 0.24977 0.0
H1586 H 0.83429 0.19126 0.32209 0.0
H1587 H 0.80161 0.17417 0.31464 0.0
H1588 H 0.79047 0.16734 0.37946 0.0
H1589 H 0.82289 0.18446 0.38691 0.0
H1590 H 0.77729 0.13848 0.32558 0.0
H1591 H 0.74466 0.19118 0.38794 0.0
H1592 H 0.75446 0.22249 0.40694 0.0
H1593 H 0.78988 0.24303 0.35541 0.0
H1594 H 0.78001 0.21204 0.33603 0.0
H1595 H 0.67295 0.11846 0.32108 0.0
H1596 H 0.705 0.12555 0.33923 0.0
H1597 H 0.70474 0.18725 0.31515 0.0
H1598 H 0.67212 0.18045 0.29793 0.0
H1599 H 0.72405 0.18709 0.35027 0.0
H1600 H 0.72676 0.14508 0.28857 0.0
H1601 H 0.71836 0.11484 0.26738 0.0
H1602 H 0.74383 0.07508 0.31334 0.0
H1603 H 0.75222 0.1051 0.33489 0.0
C1604 C 0.82542 0.18504 0.33467 0.0
C1605 C 0.83097 0.18924 0.35505 0.0
C1606 C 0.80668 0.17543 0.33042 0.0
C1607 C 0.79347 0.16997 0.34654 0.0
C1608 C 0.80035 0.17167 0.36684 0.0
C1609 C 0.81894 0.18131 0.37107 0.0
C1610 C 0.77147 0.16623 0.34243 0.0
C1611 C 0.7656 0.14896 0.33111 0.0
C1612 C 0.7563 0.18016 0.34939 0.0
C1613 C 0.76175 0.1992 0.36064 0.0
C1614 C 0.75443 0.20245 0.38064 0.0
C1615 C 0.76001 0.22012 0.39147 0.0
C1616 C 0.7728 0.23472 0.38239 0.0
C1617 C 0.78 0.2317 0.36244 0.0
C1618 C 0.77442 0.21408 0.35153 0.0
C1619 C 0.6792 0.13386 0.32063 0.0
C1620 C 0.6701 0.14896 0.30823 0.0
C1621 C 0.69769 0.13781 0.33071 0.0
C1622 C 0.70769 0.15668 0.3279 0.0
C1623 C 0.69743 0.1725 0.31739 0.0
C1624 C 0.67867 0.16869 0.30771 0.0
C1625 C 0.72966 0.15915 0.3335 0.0
C1626 C 0.7356 0.17633 0.34502 0.0
C1627 C 0.74492 0.1453 0.3264 0.0
C1628 C 0.73995 0.1273 0.3134 0.0
C1629 C 0.73047 0.12988 0.29419 0.0
C1630 C 0.72571 0.11278 0.28212 0.0
C1631 C 0.73052 0.09306 0.28904 0.0
C1632 C 0.7401 0.09037 0.30803 0.0
C1633 C 0.74487 0.10742 0.32016 0.0
H1634 H 0.72693 0.07986 0.27966 0.0
H1635 H 0.77708 0.24838 0.39081 0.0
H1636 H 0.89249 0.67518 0.31336 0.0
H1637 H 0.88144 0.70521 0.33228 0.0
H1638 H 0.82722 0.67287 0.35196 0.0
H1639 H 0.83789 0.64282 0.33199 0.0
H1640 H 0.81726 0.70521 0.33123 0.0
H1641 H 0.86515 0.69464 0.38644 0.0
H1642 H 0.89921 0.68723 0.4011 0.0
H1643 H 0.92367 0.74113 0.37222 0.0
H1644 H 0.8898 0.74879 0.35727 0.0
H1645 H 0.77198 0.79006 0.37567 0.0
H1646 H 0.79052 0.7579 0.37313 0.0
H1647 H 0.84184 0.78935 0.34585 0.0
H1648 H 0.82322 0.82216 0.34858 0.0
H1649 H 0.85373 0.75752 0.37281 0.0
H1650 H 0.80956 0.76661 0.31517 0.0
H1651 H 0.77748 0.77396 0.29655 0.0
H1652 H 0.74834 0.72279 0.32601 0.0
H1653 H 0.78017 0.71534 0.34509 0.0
C1654 C 0.87862 0.67413 0.32243 0.0
C1655 C 0.86587 0.65678 0.32094 0.0
C1656 C 0.87235 0.69137 0.3334 0.0
C1657 C 0.85342 0.69146 0.34353 0.0
C1658 C 0.84187 0.6732 0.34417 0.0
C1659 C 0.84806 0.65593 0.33293 0.0
C1660 C 0.84405 0.71138 0.3496 0.0
C1661 C 0.82502 0.71636 0.34086 0.0
C1662 C 0.85469 0.72648 0.36112 0.0
C1663 C 0.87492 0.72224 0.37066 0.0
C1664 C 0.87779 0.70489 0.38318 0.0
C1665 C 0.89707 0.70065 0.39155 0.0
C1666 C 0.91359 0.71369 0.38758 0.0
C1667 C 0.91085 0.73106 0.37533 0.0
C1668 C 0.89159 0.7354 0.36696 0.0
C1669 C 0.7873 0.79031 0.36926 0.0
C1670 C 0.796 0.80867 0.36199 0.0
C1671 C 0.79788 0.77184 0.36786 0.0
C1672 C 0.81736 0.77116 0.35894 0.0
C1673 C 0.82673 0.78958 0.35273 0.0
C1674 C 0.8161 0.80828 0.35425 0.0
C1675 C 0.82689 0.75093 0.35477 0.0
C1676 C 0.8459 0.74608 0.3636 0.0
C1677 C 0.81648 0.73594 0.34298 0.0
C1678 C 0.79719 0.74058 0.33177 0.0
C1679 C 0.79624 0.75707 0.31787 0.0
C1680 C 0.77812 0.76123 0.3072 0.0
C1681 C 0.76086 0.74891 0.31016 0.0
C1682 C 0.7617 0.73237 0.32379 0.0
C1683 C 0.77978 0.72817 0.33453 0.0
H1684 H 0.74686 0.75211 0.30184 0.0
H1685 H 0.92852 0.71034 0.39402 0.0
H1686 H 0.31673 0.88953 0.28246 0.0
H1687 H 0.28524 0.88204 0.30119 0.0
H1688 H 0.30154 0.81785 0.30288 0.0
H1689 H 0.33354 0.8255 0.28462 0.0
H1690 H 0.25491 0.86127 0.28773 0.0
H1691 H 0.27694 0.79396 0.34194 0.0
H1692 H 0.30625 0.78276 0.3631 0.0
H1693 H 0.32717 0.84507 0.36764 0.0
H1694 H 0.29785 0.85668 0.34675 0.0
H1695 H 0.1703 0.79797 0.31523 0.0
H1696 H 0.20064 0.81596 0.30254 0.0
H1697 H 0.21427 0.83651 0.36404 0.0
H1698 H 0.18446 0.81779 0.37679 0.0
H1699 H 0.24582 0.81843 0.34985 0.0
H1700 H 0.20171 0.87047 0.32373 0.0
H1701 H 0.17228 0.88497 0.30491 0.0
H1702 H 0.19526 0.85964 0.24864 0.0
H1703 H 0.2247 0.84474 0.26717 0.0
C1704 C 0.31384 0.8739 0.28736 0.0
C1705 C 0.32752 0.85807 0.2822 0.0
C1706 C 0.29579 0.86963 0.29792 0.0
C1707 C 0.2909 0.8494 0.30335 0.0
C1708 C 0.30507 0.83364 0.29909 0.0
C1709 C 0.32338 0.83799 0.28874 0.0
C1710 C 0.27032 0.84476 0.31193 0.0
C1711 C 0.25293 0.85198 0.30139 0.0
C1712 C 0.26766 0.83297 0.32993 0.0
C1713 C 0.2853 0.82614 0.34261 0.0
C1714 C 0.28775 0.80527 0.34751 0.0
C1715 C 0.30438 0.79885 0.35945 0.0
C1716 C 0.3186 0.81318 0.36665 0.0
C1717 C 0.31619 0.83397 0.36199 0.0
C1718 C 0.29959 0.84048 0.35007 0.0
C1719 C 0.17929 0.80708 0.32585 0.0
C1720 C 0.17507 0.8066 0.34694 0.0
C1721 C 0.19672 0.81729 0.31862 0.0
C1722 C 0.20989 0.8275 0.33236 0.0
C1723 C 0.2045 0.82857 0.35317 0.0
C1724 C 0.18734 0.81809 0.36042 0.0
C1725 C 0.23037 0.83483 0.32558 0.0
C1726 C 0.24777 0.82794 0.33634 0.0
C1727 C 0.23301 0.84741 0.30811 0.0
C1728 C 0.21533 0.85635 0.29688 0.0
C1729 C 0.20041 0.86785 0.30737 0.0
C1730 C 0.18374 0.87617 0.29675 0.0
C1731 C 0.18188 0.87319 0.2756 0.0
C1732 C 0.19671 0.86192 0.26502 0.0
C1733 C 0.21341 0.85356 0.27557 0.0
H1734 H 0.16896 0.87965 0.2674 0.0
H1735 H 0.33146 0.80818 0.37588 0.0
H1736 H 0.16915 0.65495 0.67981 0.0
H1737 H 0.17594 0.68459 0.65755 0.0
H1738 H 0.13192 0.72039 0.69162 0.0
H1739 H 0.12456 0.69086 0.71309 0.0
H1740 H 0.13395 0.73522 0.65455 0.0
H1741 H 0.18266 0.71617 0.70725 0.0
H1742 H 0.20648 0.69231 0.72447 0.0
H1743 H 0.2429 0.68876 0.66976 0.0
H1744 H 0.21906 0.71233 0.65209 0.0
H1745 H 0.18561 0.83349 0.66556 0.0
H1746 H 0.16676 0.8009 0.66885 0.0
H1747 H 0.20892 0.77214 0.62679 0.0
H1748 H 0.22768 0.80424 0.62361 0.0
H1749 H 0.20741 0.75265 0.66344 0.0
H1750 H 0.15957 0.77844 0.61351 0.0
H1751 H 0.13499 0.80336 0.59915 0.0
H1752 H 0.09663 0.79651 0.65218 0.0
H1753 H 0.12113 0.77176 0.667 0.0
C1754 C 0.16033 0.66888 0.68192 0.0
C1755 C 0.14675 0.6708 0.69848 0.0
C1756 C 0.16431 0.68587 0.66932 0.0
C1757 C 0.15495 0.70495 0.67339 0.0
C1758 C 0.13953 0.70599 0.68828 0.0
C1759 C 0.13546 0.68908 0.70068 0.0
C1760 C 0.1634 0.72443 0.66502 0.0
C1761 C 0.15003 0.73903 0.65641 0.0
C1762 C 0.18435 0.72953 0.66755 0.0
C1763 C 0.19896 0.71577 0.67828 0.0
C1764 C 0.1957 0.71021 0.69887 0.0
C1765 C 0.20917 0.69671 0.70869 0.0
C1766 C 0.22613 0.68893 0.69817 0.0
C1767 C 0.22971 0.69473 0.67785 0.0
C1768 C 0.21622 0.70814 0.66792 0.0
C1769 C 0.19045 0.82033 0.65664 0.0
C1770 C 0.20827 0.82128 0.6446 0.0
C1771 C 0.1797 0.80174 0.6585 0.0
C1772 C 0.18656 0.78405 0.64815 0.0
C1773 C 0.20346 0.78551 0.63502 0.0
C1774 C 0.21418 0.80389 0.63326 0.0
C1775 C 0.17802 0.76346 0.65286 0.0
C1776 C 0.19141 0.74873 0.66107 0.0
C1777 C 0.15706 0.75854 0.65036 0.0
C1778 C 0.14229 0.77337 0.64144 0.0
C1779 C 0.14598 0.78238 0.62219 0.0
C1780 C 0.13204 0.79645 0.61395 0.0
C1781 C 0.11428 0.80155 0.62477 0.0
C1782 C 0.1104 0.79256 0.64383 0.0
C1783 C 0.1243 0.77849 0.65214 0.0
H1784 H 0.10351 0.81245 0.61836 0.0
H1785 H 0.23656 0.6785 0.70581 0.0
H1786 H 0.3295 0.19722 0.70351 0.0
H1787 H 0.2959 0.20508 0.68862 0.0
H1788 H 0.29005 0.14222 0.66857 0.0
H1789 H 0.32321 0.13422 0.68407 0.0
H1790 H 0.27331 0.20278 0.65396 0.0
H1791 H 0.24306 0.12469 0.68249 0.0
H1792 H 0.25321 0.09733 0.70664 0.0
H1793 H 0.28555 0.14138 0.74345 0.0
H1794 H 0.27519 0.16905 0.7198 0.0
H1795 H 0.17227 0.19744 0.62345 0.0
H1796 H 0.20536 0.18187 0.63139 0.0
H1797 H 0.19709 0.19663 0.69535 0.0
H1798 H 0.16375 0.21217 0.68745 0.0
H1799 H 0.22055 0.15983 0.68821 0.0
H1800 H 0.21795 0.23087 0.66816 0.0
H1801 H 0.20743 0.25934 0.64557 0.0
H1802 H 0.24103 0.23253 0.59568 0.0
H1803 H 0.2516 0.20378 0.618 0.0
C1804 C 0.32145 0.18536 0.69507 0.0
C1805 C 0.32881 0.16513 0.69497 0.0
C1806 C 0.30218 0.18981 0.6867 0.0
C1807 C 0.29022 0.17407 0.67806 0.0
C1808 C 0.29882 0.15448 0.67559 0.0
C1809 C 0.31785 0.14997 0.68424 0.0
C1810 C 0.26801 0.17737 0.67438 0.0
C1811 C 0.26181 0.19329 0.66131 0.0
C1812 C 0.25294 0.16526 0.68439 0.0
C1813 C 0.25851 0.1489 0.69924 0.0
C1814 C 0.25219 0.12856 0.69583 0.0
C1815 C 0.25798 0.113 0.70943 0.0
C1816 C 0.27009 0.1176 0.72652 0.0
C1817 C 0.27623 0.13782 0.73018 0.0
C1818 C 0.27036 0.15345 0.7167 0.0
C1819 C 0.17706 0.19647 0.63935 0.0
C1820 C 0.16553 0.20604 0.65485 0.0
C1821 C 0.19602 0.18769 0.64384 0.0
C1822 C 0.20382 0.18851 0.66387 0.0
C1823 C 0.1913 0.19588 0.67979 0.0
C1824 C 0.17219 0.20462 0.6753 0.0
C1825 C 0.22595 0.18491 0.66746 0.0
C1826 C 0.23209 0.16909 0.68064 0.0
C1827 C 0.24097 0.19735 0.65789 0.0
C1828 C 0.23528 0.21501 0.64465 0.0
C1829 C 0.22298 0.23098 0.65234 0.0
C1830 C 0.21704 0.24718 0.63961 0.0
C1831 C 0.22352 0.24771 0.61919 0.0
C1832 C 0.23601 0.23208 0.6115 0.0
C1833 C 0.24198 0.21583 0.62419 0.0
H1834 H 0.21894 0.2603 0.60937 0.0
H1835 H 0.27465 0.10552 0.73695 0.0
H1836 H 0.76051 0.19855 0.63375 0.0
H1837 H 0.77835 0.22824 0.64749 0.0
H1838 H 0.79276 0.19438 0.70253 0.0
H1839 H 0.77434 0.16441 0.6889 0.0
H1840 H 0.77638 0.23082 0.7115 0.0
H1841 H 0.83024 0.20791 0.66767 0.0
H1842 H 0.84611 0.19596 0.63551 0.0
H1843 H 0.82982 0.2526 0.60603 0.0
H1844 H 0.81359 0.2648 0.63795 0.0
H1845 H 0.84712 0.30046 0.75269 0.0
H1846 H 0.83273 0.27102 0.73511 0.0
H1847 H 0.80617 0.31078 0.68942 0.0
H1848 H 0.82045 0.34095 0.7073 0.0
H1849 H 0.82868 0.27229 0.67501 0.0
H1850 H 0.77455 0.29472 0.71954 0.0
H1851 H 0.75965 0.30633 0.75229 0.0
H1852 H 0.77773 0.24979 0.78091 0.0
H1853 H 0.79303 0.23797 0.74839 0.0
C1854 C 0.76773 0.19724 0.64868 0.0
C1855 C 0.76595 0.17912 0.66029 0.0
C1856 C 0.77806 0.21425 0.65645 0.0
C1857 C 0.78703 0.21355 0.67598 0.0
C1858 C 0.78597 0.19524 0.68738 0.0
C1859 C 0.77559 0.17808 0.67954 0.0
C1860 C 0.79597 0.23251 0.68496 0.0
C1861 C 0.78805 0.23968 0.70364 0.0
C1862 C 0.81074 0.24446 0.67441 0.0
C1863 C 0.82053 0.23719 0.65518 0.0
C1864 C 0.82989 0.21776 0.65429 0.0
C1865 C 0.83898 0.21095 0.63611 0.0
C1866 C 0.83893 0.22349 0.61872 0.0
C1867 C 0.82983 0.2429 0.61951 0.0
C1868 C 0.8207 0.24977 0.63765 0.0
C1869 C 0.83834 0.30315 0.73884 0.0
C1870 C 0.83492 0.32318 0.73143 0.0
C1871 C 0.83009 0.2862 0.72884 0.0
C1872 C 0.81834 0.28875 0.71109 0.0
C1873 C 0.81523 0.30858 0.70317 0.0
C1874 C 0.82332 0.32576 0.71341 0.0
C1875 C 0.80905 0.27043 0.70141 0.0
C1876 C 0.81695 0.26338 0.68271 0.0
C1877 C 0.79434 0.25851 0.71196 0.0
C1878 C 0.78512 0.26555 0.73156 0.0
C1879 C 0.77553 0.28484 0.73286 0.0
C1880 C 0.76697 0.29145 0.75138 0.0
C1881 C 0.76779 0.27883 0.76869 0.0
C1882 C 0.77713 0.25956 0.7675 0.0
C1883 C 0.78573 0.25289 0.74902 0.0
H1884 H 0.76114 0.28397 0.783 0.0
H1885 H 0.84597 0.2182 0.60466 0.0
H1886 H 0.83097 0.80736 0.62963 0.0
H1887 H 0.8035 0.82716 0.64448 0.0
H1888 H 0.83461 0.82689 0.703 0.0
H1889 H 0.86178 0.80544 0.68835 0.0
H1890 H 0.79857 0.81409 0.7083 0.0
H1891 H 0.82328 0.87337 0.67251 0.0
H1892 H 0.83636 0.89254 0.64265 0.0
H1893 H 0.7807 0.88014 0.60972 0.0
H1894 H 0.76733 0.86078 0.63931 0.0
H1895 H 0.71912 0.86954 0.75475 0.0
H1896 H 0.75209 0.8641 0.73825 0.0
H1897 H 0.72157 0.84481 0.68283 0.0
H1898 H 0.68814 0.85009 0.69936 0.0
H1899 H 0.75838 0.87089 0.67732 0.0
H1900 H 0.73589 0.80889 0.71106 0.0
H1901 H 0.72278 0.78859 0.74014 0.0
H1902 H 0.77509 0.80582 0.77627 0.0
H1903 H 0.78835 0.82649 0.74747 0.0
C1904 C 0.83233 0.81188 0.64557 0.0
C1905 C 0.84845 0.80447 0.6579 0.0
C1906 C 0.81659 0.82352 0.65403 0.0
C1907 C 0.81689 0.82874 0.6749 0.0
C1908 C 0.83397 0.82301 0.68685 0.0
C1909 C 0.84962 0.8109 0.67844 0.0
C1910 C 0.79809 0.83727 0.68466 0.0
C1911 C 0.79018 0.82692 0.7018 0.0
C1912 C 0.78655 0.85348 0.67578 0.0
C1913 C 0.79433 0.86558 0.65814 0.0
C1914 C 0.81384 0.8747 0.65889 0.0
C1915 C 0.8213 0.88561 0.64201 0.0
C1916 C 0.80937 0.88755 0.6243 0.0
C1917 C 0.78991 0.87866 0.62346 0.0
C1918 C 0.78235 0.86778 0.64031 0.0
C1919 C 0.71929 0.86432 0.73897 0.0
C1920 C 0.70094 0.85989 0.72848 0.0
C1921 C 0.7382 0.86131 0.72957 0.0
C1922 C 0.73923 0.85386 0.70945 0.0
C1923 C 0.72103 0.85056 0.69842 0.0
C1924 C 0.70197 0.85348 0.7079 0.0
C1925 C 0.75929 0.84775 0.70083 0.0
C1926 C 0.76721 0.85841 0.68393 0.0
C1927 C 0.77092 0.83184 0.70988 0.0
C1928 C 0.76297 0.81945 0.72721 0.0
C1929 C 0.74448 0.80852 0.72528 0.0
C1930 C 0.73705 0.79691 0.74169 0.0
C1931 C 0.74806 0.79598 0.76007 0.0
C1932 C 0.76656 0.8066 0.76204 0.0
C1933 C 0.77404 0.81826 0.74568 0.0
H1934 H 0.74229 0.78697 0.77275 0.0
H1935 H 0.8152 0.89595 0.61123 0.0
H1936 H 0.31668 0.12407 0.32045 0.0
H1937 H 0.33642 0.12704 0.28877 0.0
H1938 H 0.32639 0.19248 0.28872 0.0
H1939 H 0.30714 0.18957 0.3209 0.0
H1940 H 0.31677 0.13827 0.25528 0.0
H1941 H 0.36195 0.21541 0.25691 0.0
H1942 H 0.38399 0.23526 0.2804 0.0
H1943 H 0.39859 0.1803 0.31369 0.0
H1944 H 0.3769 0.16007 0.29022 0.0
H1945 H 0.32354 0.19107 0.16066 0.0
H1946 H 0.31802 0.17412 0.19353 0.0
H1947 H 0.38327 0.16602 0.20055 0.0
H1948 H 0.38882 0.18418 0.16819 0.0
H1949 H 0.36992 0.18672 0.231 0.0
H1950 H 0.34839 0.12279 0.20147 0.0
H1951 H 0.32923 0.1002 0.17788 0.0
H1952 H 0.27235 0.12425 0.20062 0.0
H1953 H 0.29119 0.14709 0.22424 0.0
C1954 C 0.31958 0.13921 0.3142 0.0
C1955 C 0.31055 0.15663 0.32313 0.0
C1956 C 0.33062 0.14085 0.29597 0.0
C1957 C 0.33259 0.1599 0.28616 0.0
C1958 C 0.32521 0.17762 0.29607 0.0
C1959 C 0.31432 0.176 0.31453 0.0
C1960 C 0.33931 0.1607 0.26439 0.0
C1961 C 0.32862 0.14866 0.25 0.0
C1962 C 0.35482 0.17413 0.25748 0.0
C1963 C 0.36758 0.18626 0.27193 0.0
C1964 C 0.36985 0.20755 0.26924 0.0
C1965 C 0.38231 0.21887 0.28254 0.0
C1966 C 0.39262 0.20906 0.29858 0.0
C1967 C 0.39051 0.1879 0.30133 0.0
C1968 C 0.3781 0.1765 0.28805 0.0
C1969 C 0.33661 0.18463 0.16865 0.0
C1970 C 0.35658 0.18879 0.16188 0.0
C1971 C 0.33348 0.17502 0.18758 0.0
C1972 C 0.35028 0.16898 0.19972 0.0
C1973 C 0.37012 0.17081 0.19162 0.0
C1974 C 0.37326 0.18085 0.17296 0.0
C1975 C 0.34742 0.16427 0.22188 0.0
C1976 C 0.35853 0.17586 0.23632 0.0
C1977 C 0.3326 0.15013 0.2289 0.0
C1978 C 0.3212 0.13665 0.21457 0.0
C1979 C 0.3318 0.12333 0.20134 0.0
C1980 C 0.321 0.11047 0.188 0.0
C1981 C 0.29959 0.11081 0.18774 0.0
C1982 C 0.28893 0.12402 0.20082 0.0
C1983 C 0.29966 0.13691 0.21421 0.0
H1984 H 0.29125 0.10081 0.17743 0.0
H1985 H 0.40228 0.21784 0.30884 0.0
H1986 H 0.87832 0.29839 0.32607 0.0
H1987 H 0.87093 0.31495 0.29319 0.0
H1988 H 0.80658 0.30273 0.3015 0.0
H1989 H 0.81384 0.28669 0.33477 0.0
H1990 H 0.8455 0.28506 0.26386 0.0
H1991 H 0.79653 0.33824 0.29423 0.0
H1992 H 0.7912 0.36696 0.31834 0.0
H1993 H 0.84451 0.39732 0.29453 0.0
H1994 H 0.85029 0.36856 0.27051 0.0
H1995 H 0.7874 0.30454 0.17476 0.0
H1996 H 0.80471 0.2961 0.20677 0.0
H1997 H 0.83398 0.35558 0.20666 0.0
H1998 H 0.8153 0.36446 0.17534 0.0
H1999 H 0.81764 0.35191 0.24055 0.0
H2000 H 0.86107 0.30618 0.20408 0.0
H2001 H 0.87067 0.2788 0.17979 0.0
H2002 H 0.83501 0.23532 0.214 0.0
H2003 H 0.82498 0.26248 0.23835 0.0
C2004 C 0.86249 0.30024 0.32137 0.0
C2005 C 0.8466 0.29149 0.333 0.0
C2006 C 0.85832 0.30956 0.30255 0.0
C2007 C 0.83823 0.31015 0.29501 0.0
C2008 C 0.82214 0.30283 0.30729 0.0
C2009 C 0.82627 0.29377 0.32634 0.0
C2010 C 0.83466 0.31483 0.27312 0.0
C2011 C 0.83924 0.29958 0.25863 0.0
C2012 C 0.82748 0.33406 0.26641 0.0
C2013 C 0.82402 0.35116 0.28088 0.0
C2014 C 0.80726 0.35091 0.29436 0.0
C2015 C 0.80411 0.36722 0.30795 0.0
C2016 C 0.81756 0.38391 0.30804 0.0
C2017 C 0.83415 0.38435 0.2945 0.0
C2018 C 0.83737 0.36806 0.28092 0.0
C2019 C 0.79835 0.31536 0.18104 0.0
C2020 C 0.80034 0.33497 0.17247 0.0
C2021 C 0.80824 0.31059 0.19946 0.0
C2022 C 0.82081 0.32515 0.2093 0.0
C2023 C 0.82432 0.34408 0.19954 0.0
C2024 C 0.81394 0.34905 0.18144 0.0
C2025 C 0.82774 0.32178 0.23085 0.0
C2026 C 0.824 0.33732 0.24542 0.0
C2027 C 0.83612 0.30285 0.23756 0.0
C2028 C 0.84217 0.28643 0.22298 0.0
C2029 C 0.85517 0.29081 0.20635 0.0
C2030 C 0.86071 0.27532 0.19258 0.0
C2031 C 0.85343 0.25534 0.19533 0.0
C2032 C 0.84064 0.2508 0.21189 0.0
C2033 C 0.83505 0.26623 0.2257 0.0
H2034 H 0.85773 0.24338 0.18464 0.0
H2035 H 0.81509 0.39654 0.31855 0.0
H2036 H 0.68743 0.8199 0.15049 0.0
H2037 H 0.69579 0.83823 0.18219 0.0
H2038 H 0.63171 0.84117 0.19763 0.0
H2039 H 0.62326 0.82261 0.16617 0.0
H2040 H 0.67058 0.87607 0.21354 0.0
H2041 H 0.63635 0.80556 0.22099 0.0
H2042 H 0.63071 0.77168 0.20497 0.0
H2043 H 0.69551 0.76496 0.19561 0.0
H2044 H 0.70146 0.79886 0.21164 0.0
H2045 H 0.6904 0.8683 0.32318 0.0
H2046 H 0.67113 0.86594 0.29062 0.0
H2047 H 0.71922 0.82836 0.26505 0.0
H2048 H 0.73814 0.83056 0.29703 0.0
H2049 H 0.68239 0.81337 0.25528 0.0
H2050 H 0.71679 0.87981 0.25609 0.0
H2051 H 0.72368 0.91464 0.26929 0.0
H2052 H 0.66043 0.93071 0.26078 0.0
H2053 H 0.65312 0.89593 0.2478 0.0
C2054 C 0.67504 0.82565 0.15994 0.0
C2055 C 0.65474 0.81975 0.156 0.0
C2056 C 0.67983 0.83609 0.17809 0.0
C2057 C 0.66433 0.84093 0.19223 0.0
C2058 C 0.64381 0.83775 0.1868 0.0
C2059 C 0.63903 0.82713 0.16881 0.0
C2060 C 0.66971 0.84308 0.21414 0.0
C2061 C 0.67287 0.86247 0.22286 0.0
C2062 C 0.67269 0.82531 0.22615 0.0
C2063 C 0.66932 0.80459 0.21751 0.0
C2064 C 0.64937 0.79676 0.21561 0.0
C2065 C 0.64613 0.77761 0.20648 0.0
C2066 C 0.66275 0.76617 0.19924 0.0
C2067 C 0.68266 0.77383 0.20124 0.0
C2068 C 0.68598 0.79297 0.21039 0.0
C2069 C 0.69655 0.85924 0.31068 0.0
C2070 C 0.71577 0.84967 0.31257 0.0
C2071 C 0.68567 0.85805 0.29208 0.0
C2072 C 0.69385 0.84712 0.27535 0.0
C2073 C 0.71259 0.83688 0.27769 0.0
C2074 C 0.72342 0.8382 0.29601 0.0
C2075 C 0.68367 0.84648 0.25499 0.0
C2076 C 0.67963 0.82716 0.24635 0.0
C2077 C 0.67996 0.8644 0.24319 0.0
C2078 C 0.68436 0.88521 0.25121 0.0
C2079 C 0.70432 0.89072 0.25723 0.0
C2080 C 0.70831 0.91047 0.26463 0.0
C2081 C 0.6925 0.92488 0.26589 0.0
C2082 C 0.67266 0.91956 0.25981 0.0
C2083 C 0.66858 0.89983 0.25244 0.0
H2084 H 0.69564 0.94018 0.27148 0.0
H2085 H 0.6602 0.75139 0.19211 0.0
H2086 H 0.21157 0.69503 0.17868 0.0
H2087 H 0.19623 0.70135 0.21241 0.0
H2088 H 0.18533 0.63641 0.21956 0.0
H2089 H 0.20156 0.63006 0.18636 0.0
H2090 H 0.16315 0.696 0.23436 0.0
H2091 H 0.19833 0.62136 0.267 0.0
H2092 H 0.22584 0.59684 0.25832 0.0
H2093 H 0.25881 0.64454 0.22714 0.0
H2094 H 0.23166 0.66939 0.2359 0.0
H2095 H 0.13114 0.69458 0.33467 0.0
H2096 H 0.13998 0.67752 0.30254 0.0
H2097 H 0.20359 0.69277 0.31206 0.0
H2098 H 0.19479 0.70966 0.34447 0.0
H2099 H 0.19923 0.65728 0.28924 0.0
H2100 H 0.1745 0.72619 0.28943 0.0
H2101 H 0.15071 0.75452 0.29726 0.0
H2102 H 0.10343 0.72485 0.2623 0.0
H2103 H 0.1269 0.69616 0.25447 0.0
C2104 C 0.20512 0.68226 0.18712 0.0
C2105 C 0.20769 0.66209 0.18003 0.0
C2106 C 0.19649 0.68583 0.20646 0.0
C2107 C 0.1902 0.66928 0.21879 0.0
C2108 C 0.19059 0.64936 0.21057 0.0
C2109 C 0.19959 0.64576 0.1915 0.0
C2110 C 0.18549 0.67258 0.24087 0.0
C2111 C 0.17088 0.68737 0.24631 0.0
C2112 C 0.19605 0.66178 0.25659 0.0
C2113 C 0.21286 0.64716 0.25194 0.0
C2114 C 0.21152 0.62663 0.25841 0.0
C2115 C 0.22703 0.61267 0.25345 0.0
C2116 C 0.24402 0.61911 0.24212 0.0
C2117 C 0.24562 0.63956 0.23586 0.0
C2118 C 0.23017 0.65358 0.24083 0.0
C2119 C 0.14715 0.69332 0.33046 0.0
C2120 C 0.16228 0.70354 0.34196 0.0
C2121 C 0.15216 0.68374 0.31199 0.0
C2122 C 0.17234 0.68443 0.30464 0.0
C2123 C 0.18789 0.6922 0.31741 0.0
C2124 C 0.18288 0.7017 0.33604 0.0
C2125 C 0.17654 0.68033 0.28263 0.0
C2126 C 0.1912 0.66557 0.27724 0.0
C2127 C 0.16654 0.69166 0.26695 0.0
C2128 C 0.15235 0.70886 0.27164 0.0
C2129 C 0.15896 0.72558 0.2836 0.0
C2130 C 0.14557 0.74173 0.28799 0.0
C2131 C 0.12559 0.74147 0.28029 0.0
C2132 C 0.11892 0.72501 0.26826 0.0
C2133 C 0.13226 0.7088 0.26384 0.0
H2134 H 0.11534 0.7541 0.28351 0.0
H2135 H 0.25597 0.60826 0.23822 0.0
H2136 H 0.39324 0.8038 0.81563 0.0
H2137 H 0.38035 0.82451 0.78759 0.0
H2138 H 0.32944 0.84395 0.8251 0.0
H2139 H 0.34182 0.82214 0.85316 0.0
H2140 H 0.31578 0.82851 0.79179 0.0
H2141 H 0.36797 0.8775 0.80518 0.0
H2142 H 0.40271 0.89068 0.81194 0.0
H2143 H 0.42274 0.86886 0.75314 0.0
H2144 H 0.38828 0.85505 0.74621 0.0
H2145 H 0.27119 0.88255 0.71159 0.0
H2146 H 0.29118 0.878 0.74275 0.0
H2147 H 0.33724 0.84502 0.70867 0.0
H2148 H 0.31722 0.84976 0.67697 0.0
H2149 H 0.35311 0.87126 0.74116 0.0
H2150 H 0.3028 0.81779 0.73096 0.0
H2151 H 0.26809 0.80462 0.72385 0.0
H2152 H 0.24513 0.83573 0.77717 0.0
H2153 H 0.27969 0.84933 0.78443 0.0
C2154 C 0.37953 0.81284 0.81817 0.0
C2155 C 0.36831 0.81099 0.83653 0.0
C2156 C 0.37229 0.82493 0.8021 0.0
C2157 C 0.3539 0.83588 0.80412 0.0
C2158 C 0.34364 0.83556 0.82312 0.0
C2159 C 0.35079 0.82321 0.83922 0.0
C2160 C 0.34392 0.84472 0.78556 0.0
C2161 C 0.32387 0.83831 0.78106 0.0
C2162 C 0.35463 0.85691 0.77105 0.0
C2163 C 0.37549 0.8651 0.77523 0.0
C2164 C 0.37981 0.87532 0.79376 0.0
C2165 C 0.39947 0.88292 0.79762 0.0
C2166 C 0.41493 0.88061 0.78298 0.0
C2167 C 0.41074 0.8707 0.76444 0.0
C2168 C 0.39115 0.86294 0.76056 0.0
C2169 C 0.2857 0.87453 0.71057 0.0
C2170 C 0.29246 0.86615 0.69186 0.0
C2171 C 0.29714 0.87204 0.72843 0.0
C2172 C 0.31549 0.8609 0.72807 0.0
C2173 C 0.32306 0.85366 0.70922 0.0
C2174 C 0.31161 0.85631 0.69116 0.0
C2175 C 0.32528 0.85493 0.74771 0.0
C2176 C 0.34515 0.86175 0.75223 0.0
C2177 C 0.31452 0.84308 0.76233 0.0
C2178 C 0.29378 0.83474 0.75812 0.0
C2179 C 0.29032 0.82194 0.74108 0.0
C2180 C 0.27068 0.81438 0.73704 0.0
C2181 C 0.2544 0.81938 0.75002 0.0
C2182 C 0.25775 0.8319 0.76711 0.0
C2183 C 0.27736 0.83952 0.77121 0.0
H2184 H 0.23921 0.81352 0.74686 0.0
H2185 H 0.43014 0.88649 0.78601 0.0
H2186 H 0.22288 0.38193 0.79979 0.0
H2187 H 0.20204 0.37525 0.76966 0.0
H2188 H 0.18092 0.31863 0.79666 0.0
H2189 H 0.20225 0.32524 0.82715 0.0
H2190 H 0.19498 0.31174 0.75965 0.0
H2191 H 0.14663 0.35825 0.78652 0.0
H2192 H 0.13195 0.38943 0.80215 0.0
H2193 H 0.1545 0.42569 0.75205 0.0
H2194 H 0.16943 0.39475 0.73616 0.0
H2195 H 0.11733 0.31459 0.6746 0.0
H2196 H 0.12881 0.33175 0.7058 0.0
H2197 H 0.19165 0.3245 0.68666 0.0
H2198 H 0.18018 0.30697 0.65545 0.0
H2199 H 0.15207 0.36188 0.72161 0.0
H2200 H 0.21706 0.30139 0.72568 0.0
H2201 H 0.22527 0.26772 0.71033 0.0
H2202 H 0.16116 0.2554 0.70205 0.0
H2203 H 0.15257 0.28879 0.71767 0.0
C2204 C 0.21347 0.36824 0.79956 0.0
C2205 C 0.21432 0.35401 0.81576 0.0
C2206 C 0.20141 0.36452 0.78234 0.0
C2207 C 0.18981 0.34649 0.78087 0.0
C2208 C 0.18974 0.33269 0.7975 0.0
C2209 C 0.20181 0.3365 0.81493 0.0
C2210 C 0.17999 0.34123 0.76097 0.0
C2211 C 0.18548 0.32268 0.75145 0.0
C2212 C 0.16734 0.35532 0.75027 0.0
C2213 C 0.15921 0.37416 0.76018 0.0
C2214 C 0.14862 0.3729 0.77892 0.0
C2215 C 0.14014 0.39051 0.78776 0.0
C2216 C 0.14216 0.4095 0.77802 0.0
C2217 C 0.15281 0.41095 0.7595 0.0
C2218 C 0.16126 0.39337 0.75056 0.0
C2219 C 0.13355 0.31756 0.67657 0.0
C2220 C 0.1479 0.30923 0.66279 0.0
C2221 C 0.1401 0.32731 0.69446 0.0
C2222 C 0.16107 0.3288 0.69882 0.0
C2223 C 0.17537 0.32313 0.6837 0.0
C2224 C 0.1688 0.31335 0.66573 0.0
C2225 C 0.16776 0.33288 0.72019 0.0
C2226 C 0.16161 0.35107 0.72991 0.0
C2227 C 0.17918 0.31815 0.73139 0.0
C2228 C 0.18421 0.29769 0.72267 0.0
C2229 C 0.20473 0.29144 0.72071 0.0
C2230 C 0.20944 0.27241 0.71195 0.0
C2231 C 0.19375 0.25946 0.70518 0.0
C2232 C 0.1733 0.26546 0.70726 0.0
C2233 C 0.16851 0.28443 0.71608 0.0
H2234 H 0.19742 0.24476 0.69838 0.0
H2235 H 0.13561 0.42312 0.7849 0.0
H2236 H 0.6662 0.17589 0.66167 0.0
H2237 H 0.65022 0.18366 0.69474 0.0
H2238 H 0.65184 0.11956 0.71068 0.0
H2239 H 0.66774 0.1117 0.67775 0.0
H2240 H 0.61795 0.16247 0.7296 0.0
H2241 H 0.69246 0.1231 0.74219 0.0
H2242 H 0.72531 0.11515 0.72514 0.0
H2243 H 0.72335 0.17313 0.69384 0.0
H2244 H 0.69054 0.18138 0.71082 0.0
H2245 H 0.63226 0.1807 0.83648 0.0
H2246 H 0.63445 0.15875 0.80577 0.0
H2247 H 0.6747 0.2029 0.77735 0.0
H2248 H 0.67275 0.22445 0.80772 0.0
H2249 H 0.68472 0.16414 0.76639 0.0
H2250 H 0.62269 0.20693 0.77269 0.0
H2251 H 0.59258 0.21583 0.79377 0.0
H2252 H 0.57051 0.15395 0.78871 0.0
H2253 H 0.60072 0.14461 0.7679 0.0
C2254 C 0.6618 0.1633 0.67158 0.0
C2255 C 0.66842 0.14323 0.66732 0.0
C2256 C 0.6527 0.16776 0.69055 0.0
C2257 C 0.65017 0.15217 0.70522 0.0
C2258 C 0.65368 0.13174 0.69954 0.0
C2259 C 0.66275 0.12729 0.68069 0.0
C2260 C 0.65054 0.1575 0.72727 0.0
C2261 C 0.63247 0.16268 0.73772 0.0
C2262 C 0.66945 0.15763 0.73791 0.0
C2263 C 0.68901 0.15271 0.72755 0.0
C2264 C 0.69903 0.13408 0.73161 0.0
C2265 C 0.71764 0.12955 0.72201 0.0
C2266 C 0.72641 0.14365 0.70845 0.0
C2267 C 0.71653 0.16223 0.70435 0.0
C2268 C 0.69792 0.16682 0.71392 0.0
C2269 C 0.64214 0.18524 0.82393 0.0
C2270 C 0.65215 0.20431 0.82426 0.0
C2271 C 0.64328 0.17281 0.80639 0.0
C2272 C 0.65444 0.17942 0.78915 0.0
C2273 C 0.66595 0.19752 0.7904 0.0
C2274 C 0.66475 0.20988 0.80774 0.0
C2275 C 0.65225 0.16949 0.76882 0.0
C2276 C 0.67007 0.16344 0.75852 0.0
C2277 C 0.63316 0.16886 0.75841 0.0
C2278 C 0.61397 0.17505 0.76885 0.0
C2279 C 0.61137 0.19525 0.77603 0.0
C2280 C 0.5944 0.20033 0.78809 0.0
C2281 C 0.57978 0.18539 0.79279 0.0
C2282 C 0.58194 0.16545 0.78518 0.0
C2283 C 0.59896 0.16026 0.77323 0.0
H2284 H 0.56665 0.18932 0.80211 0.0
H2285 H 0.74091 0.14023 0.70118 0.0
H2286 H 0.81832 0.7076 0.6441 0.0
H2287 H 0.7995 0.69064 0.67174 0.0
H2288 H 0.85654 0.67478 0.70121 0.0
H2289 H 0.87542 0.69159 0.67363 0.0
H2290 H 0.82618 0.64631 0.70956 0.0
H2291 H 0.83651 0.71909 0.71149 0.0
H2292 H 0.83509 0.75464 0.69861 0.0
H2293 H 0.76941 0.75159 0.69629 0.0
H2294 H 0.77046 0.7158 0.70869 0.0
H2295 H 0.79312 0.6541 0.8155 0.0
H2296 H 0.81188 0.66015 0.78331 0.0
H2297 H 0.75464 0.66979 0.75162 0.0
H2298 H 0.73592 0.66344 0.78336 0.0
H2299 H 0.78535 0.70033 0.7444 0.0
H2300 H 0.77626 0.62683 0.745 0.0
H2301 H 0.77944 0.59192 0.75924 0.0
H2302 H 0.845 0.59737 0.75905 0.0
H2303 H 0.84221 0.63251 0.74517 0.0
C2304 C 0.82688 0.69962 0.6559 0.0
C2305 C 0.84833 0.7012 0.65688 0.0
C2306 C 0.8161 0.69009 0.67182 0.0
C2307 C 0.82665 0.68198 0.6888 0.0
C2308 C 0.8481 0.68111 0.68836 0.0
C2309 C 0.85887 0.69071 0.67255 0.0
C2310 C 0.81569 0.67763 0.70824 0.0
C2311 C 0.81732 0.65811 0.71724 0.0
C2312 C 0.80427 0.69314 0.71834 0.0
C2313 C 0.80358 0.71464 0.71074 0.0
C2314 C 0.82177 0.7259 0.708 0.0
C2315 C 0.82103 0.74611 0.70081 0.0
C2316 C 0.80218 0.75535 0.69657 0.0
C2317 C 0.78401 0.74439 0.69951 0.0
C2318 C 0.78467 0.72412 0.70659 0.0
C2319 C 0.78461 0.65765 0.80168 0.0
C2320 C 0.76308 0.6583 0.80193 0.0
C2321 C 0.79529 0.66095 0.78332 0.0
C2322 C 0.78458 0.66525 0.7651 0.0
C2323 C 0.76316 0.66641 0.76549 0.0
C2324 C 0.75251 0.66277 0.78365 0.0
C2325 C 0.79554 0.66892 0.74556 0.0
C2326 C 0.79405 0.68845 0.73664 0.0
C2327 C 0.80731 0.65352 0.73579 0.0
C2328 C 0.80901 0.63244 0.74429 0.0
C2329 C 0.79135 0.6207 0.74823 0.0
C2330 C 0.79309 0.60084 0.75619 0.0
C2331 C 0.81241 0.59245 0.76011 0.0
C2332 C 0.83004 0.60391 0.75605 0.0
C2333 C 0.82839 0.6238 0.74814 0.0
H2334 H 0.81371 0.57706 0.76623 0.0
H2335 H 0.80164 0.77103 0.69108 0.0
H2336 H 0.15775 0.32031 0.20072 0.0
H2337 H 0.18942 0.30747 0.18524 0.0
H2338 H 0.21113 0.36955 0.17799 0.0
H2339 H 0.17954 0.38244 0.19334 0.0
H2340 H 0.22729 0.34222 0.14812 0.0
H2341 H 0.22035 0.34912 0.22122 0.0
H2342 H 0.20286 0.34412 0.25436 0.0
H2343 H 0.20809 0.27877 0.24762 0.0
H2344 H 0.2253 0.28338 0.21421 0.0
H2345 H 0.33341 0.31305 0.15483 0.0
H2346 H 0.30196 0.33195 0.16416 0.0
H2347 H 0.27147 0.2745 0.17656 0.0
H2348 H 0.30245 0.2559 0.16745 0.0
H2349 H 0.26111 0.3034 0.2043 0.0
H2350 H 0.2698 0.29789 0.13031 0.0
H2351 H 0.2884 0.30476 0.09814 0.0
H2352 H 0.28035 0.36956 0.10687 0.0
H2353 H 0.26255 0.36314 0.13962 0.0
C2354 C 0.16877 0.33124 0.19481 0.0
C2355 C 0.16638 0.35233 0.19848 0.0
C2356 C 0.18694 0.3239 0.18612 0.0
C2357 C 0.20278 0.33759 0.18099 0.0
C2358 C 0.19916 0.35875 0.18198 0.0
C2359 C 0.18109 0.36608 0.19075 0.0
C2360 C 0.22405 0.33003 0.17863 0.0
C2361 C 0.23479 0.33384 0.1604 0.0
C2362 C 0.23389 0.31945 0.19486 0.0
C2363 C 0.22395 0.31659 0.21514 0.0
C2364 C 0.21765 0.33368 0.22674 0.0
C2365 C 0.2078 0.33092 0.24557 0.0
C2366 C 0.20436 0.31114 0.25307 0.0
C2367 C 0.21077 0.29408 0.24177 0.0
C2368 C 0.22058 0.29675 0.22289 0.0
C2369 C 0.32012 0.30464 0.16012 0.0
C2370 C 0.3202 0.28309 0.16036 0.0
C2371 C 0.30216 0.31536 0.16526 0.0
C2372 C 0.2843 0.30457 0.17076 0.0
C2373 C 0.285 0.28314 0.17232 0.0
C2374 C 0.30271 0.27253 0.16708 0.0
C2375 C 0.26427 0.31495 0.1735 0.0
C2376 C 0.25373 0.31182 0.19197 0.0
C2377 C 0.25478 0.32629 0.15754 0.0
C2378 C 0.26507 0.33004 0.13759 0.0
C2379 C 0.27217 0.31362 0.1255 0.0
C2380 C 0.28257 0.31742 0.10715 0.0
C2381 C 0.28549 0.33756 0.10043 0.0
C2382 C 0.27809 0.35396 0.1121 0.0
C2383 C 0.26794 0.35025 0.13061 0.0
H2384 H 0.29347 0.34046 0.08618 0.0
H2385 H 0.1968 0.30905 0.26767 0.0
H2386 H 0.32474 0.71636 0.88115 0.0
H2387 H 0.29614 0.6959 0.86907 0.0
H2388 H 0.3308 0.67854 0.81545 0.0
H2389 H 0.35955 0.69977 0.82725 0.0
H2390 H 0.29561 0.69398 0.80464 0.0
H2391 H 0.31503 0.6427 0.85275 0.0
H2392 H 0.32555 0.62849 0.88618 0.0
H2393 H 0.26894 0.64869 0.91296 0.0
H2394 H 0.25817 0.66328 0.87975 0.0
H2395 H 0.21739 0.63115 0.76618 0.0
H2396 H 0.24903 0.64028 0.78351 0.0
H2397 H 0.21486 0.67311 0.82959 0.0
H2398 H 0.18261 0.6642 0.81203 0.0
H2399 H 0.25042 0.64712 0.84399 0.0
H2400 H 0.23306 0.70107 0.79639 0.0
H2401 H 0.22341 0.71619 0.76307 0.0
H2402 H 0.27728 0.69043 0.73543 0.0
H2403 H 0.28709 0.67486 0.76854 0.0
C2404 C 0.32653 0.70786 0.86697 0.0
C2405 C 0.34435 0.70993 0.855 0.0
C2406 C 0.31015 0.69596 0.86017 0.0
C2407 C 0.31126 0.68558 0.84137 0.0
C2408 C 0.32959 0.68644 0.83002 0.0
C2409 C 0.34606 0.69847 0.83682 0.0
C2410 C 0.2924 0.67638 0.83245 0.0
C2411 C 0.28603 0.68334 0.8131 0.0
C2412 C 0.27947 0.66304 0.84373 0.0
C2413 C 0.28585 0.65422 0.86375 0.0
C2414 C 0.30488 0.64425 0.86579 0.0
C2415 C 0.31087 0.6361 0.88471 0.0
C2416 C 0.29794 0.63772 0.90169 0.0
C2417 C 0.27895 0.64745 0.89979 0.0
C2418 C 0.27287 0.65563 0.88091 0.0
C2419 C 0.21642 0.64025 0.78006 0.0
C2420 C 0.1974 0.64727 0.78752 0.0
C2421 C 0.2346 0.64536 0.78997 0.0
C2422 C 0.23426 0.65752 0.80765 0.0
C2423 C 0.21535 0.6637 0.8159 0.0
C2424 C 0.19699 0.65867 0.80584 0.0
C2425 C 0.25386 0.66486 0.81639 0.0
C2426 C 0.26026 0.65757 0.83559 0.0
C2427 C 0.26692 0.67786 0.80498 0.0
C2428 C 0.2607 0.68663 0.7849 0.0
C2429 C 0.2427 0.69839 0.78315 0.0
C2430 C 0.23724 0.7071 0.76432 0.0
C2431 C 0.24975 0.7043 0.74717 0.0
C2432 C 0.26763 0.69261 0.74875 0.0
C2433 C 0.27315 0.68384 0.76754 0.0
H2434 H 0.24566 0.7113 0.73269 0.0
H2435 H 0.30261 0.6314 0.91632 0.0
H2436 H 0.31396 0.32123 0.88177 0.0
H2437 H 0.33286 0.28913 0.87712 0.0
H2438 H 0.33274 0.29871 0.81165 0.0
H2439 H 0.31436 0.33119 0.8164 0.0
H2440 H 0.31525 0.25851 0.8598 0.0
H2441 H 0.36933 0.26859 0.78865 0.0
H2442 H 0.39469 0.29336 0.77559 0.0
H2443 H 0.40297 0.31755 0.8363 0.0
H2444 H 0.37794 0.2927 0.84982 0.0
H2445 H 0.32036 0.17259 0.79424 0.0
H2446 H 0.31597 0.20339 0.81512 0.0
H2447 H 0.38094 0.20421 0.82776 0.0
H2448 H 0.38536 0.17398 0.80603 0.0
H2449 H 0.37161 0.23849 0.81305 0.0
H2450 H 0.34286 0.19939 0.86685 0.0
H2451 H 0.32077 0.17367 0.88354 0.0
H2452 H 0.2672 0.2066 0.864 0.0
H2453 H 0.28894 0.23239 0.84693 0.0
C2454 C 0.31887 0.31692 0.86648 0.0
C2455 C 0.31287 0.32866 0.84944 0.0
C2456 C 0.32947 0.2985 0.86383 0.0
C2457 C 0.334 0.29131 0.84405 0.0
C2458 C 0.32962 0.30397 0.82709 0.0
C2459 C 0.31921 0.32261 0.82979 0.0
C2460 C 0.34011 0.26949 0.84101 0.0
C2461 C 0.32773 0.25413 0.84973 0.0
C2462 C 0.35667 0.26367 0.82831 0.0
C2463 C 0.37154 0.2789 0.82022 0.0
C2464 C 0.37658 0.27916 0.79924 0.0
C2465 C 0.39091 0.29322 0.79175 0.0
C2466 C 0.40036 0.30709 0.80509 0.0
C2467 C 0.39555 0.30688 0.82596 0.0
C2468 C 0.38125 0.29283 0.83354 0.0
C2469 C 0.33349 0.17873 0.80237 0.0
C2470 C 0.35315 0.17085 0.79871 0.0
C2471 C 0.33103 0.19647 0.81425 0.0
C2472 C 0.34816 0.20631 0.823 0.0
C2473 C 0.36751 0.19707 0.82107 0.0
C2474 C 0.37 0.17961 0.80891 0.0
C2475 C 0.34633 0.22755 0.83132 0.0
C2476 C 0.3594 0.24282 0.82346 0.0
C2477 C 0.33076 0.23326 0.84528 0.0
C2478 C 0.31756 0.21778 0.8555 0.0
C2479 C 0.32637 0.20108 0.86598 0.0
C2480 C 0.3139 0.1865 0.87553 0.0
C2481 C 0.2926 0.18848 0.87481 0.0
C2482 C 0.28371 0.20508 0.86455 0.0
C2483 C 0.2961 0.21971 0.85496 0.0
H2484 H 0.28298 0.17718 0.88221 0.0
H2485 H 0.41148 0.31794 0.79926 0.0
H2486 H 0.66333 0.32293 0.85492 0.0
H2487 H 0.69315 0.34607 0.85425 0.0
H2488 H 0.73274 0.29527 0.86967 0.0
H2489 H 0.70353 0.27263 0.87107 0.0
H2490 H 0.74512 0.32741 0.88964 0.0
H2491 H 0.72569 0.31232 0.81903 0.0
H2492 H 0.70228 0.31207 0.78928 0.0
H2493 H 0.69674 0.37767 0.7927 0.0
H2494 H 0.72 0.37826 0.82262 0.0
H2495 H 0.83777 0.33576 0.83296 0.0
H2496 H 0.80675 0.32935 0.85305 0.0
H2497 H 0.78588 0.39094 0.84069 0.0
H2498 H 0.81673 0.39735 0.82059 0.0
H2499 H 0.76121 0.36208 0.82399 0.0
H2500 H 0.79044 0.37541 0.8893 0.0
H2501 H 0.81563 0.37326 0.91742 0.0
H2502 H 0.80456 0.30855 0.92293 0.0
H2503 H 0.77956 0.31019 0.89462 0.0
C2504 C 0.67839 0.31683 0.85832 0.0
C2505 C 0.68099 0.29589 0.86286 0.0
C2506 C 0.69541 0.33002 0.85792 0.0
C2507 C 0.71525 0.32238 0.86179 0.0
C2508 C 0.71766 0.30162 0.86675 0.0
C2509 C 0.70081 0.28861 0.8674 0.0
C2510 C 0.73391 0.33523 0.85952 0.0
C2511 C 0.74862 0.33509 0.87533 0.0
C2512 C 0.73837 0.34565 0.84104 0.0
C2513 C 0.7243 0.3453 0.8232 0.0
C2514 C 0.71933 0.32666 0.81353 0.0
C2515 C 0.70613 0.32647 0.79662 0.0
C2516 C 0.69795 0.34484 0.78916 0.0
C2517 C 0.70302 0.36345 0.79854 0.0
C2518 C 0.71621 0.36373 0.81547 0.0
C2519 C 0.82711 0.34827 0.83549 0.0
C2520 C 0.82948 0.36695 0.82505 0.0
C2521 C 0.80932 0.34458 0.84691 0.0
C2522 C 0.79387 0.3596 0.84811 0.0
C2523 C 0.79753 0.37911 0.83985 0.0
C2524 C 0.81521 0.38277 0.82844 0.0
C2525 C 0.7727 0.35366 0.85386 0.0
C2526 C 0.75752 0.35504 0.83862 0.0
C2527 C 0.76803 0.34404 0.87271 0.0
C2528 C 0.78319 0.34292 0.88969 0.0
C2529 C 0.79351 0.36067 0.89636 0.0
C2530 C 0.80774 0.35955 0.91237 0.0
C2531 C 0.81172 0.34078 0.92193 0.0
C2532 C 0.80147 0.32308 0.91551 0.0
C2533 C 0.78725 0.32411 0.89949 0.0
H2534 H 0.82273 0.33995 0.93433 0.0
H2535 H 0.68774 0.34466 0.77606 0.0
H2536 H 0.68165 0.67679 0.893 0.0
H2537 H 0.6603 0.70749 0.89595 0.0
H2538 H 0.64395 0.70187 0.83199 0.0
H2539 H 0.66467 0.67081 0.82938 0.0
H2540 H 0.67365 0.73855 0.87674 0.0
H2541 H 0.60723 0.72991 0.8173 0.0
H2542 H 0.57847 0.70646 0.81012 0.0
H2543 H 0.5791 0.68621 0.87281 0.0
H2544 H 0.60755 0.70995 0.88043 0.0
H2545 H 0.66616 0.8004 0.79255 0.0
H2546 H 0.66285 0.77215 0.81659 0.0
H2547 H 0.62405 0.80911 0.8553 0.0
H2548 H 0.62751 0.83808 0.83104 0.0
H2549 H 0.61191 0.76188 0.83898 0.0
H2550 H 0.65678 0.80196 0.88091 0.0
H2551 H 0.68554 0.82572 0.88713 0.0
H2552 H 0.72745 0.7822 0.86093 0.0
H2553 H 0.69891 0.75832 0.85426 0.0
C2554 C 0.67242 0.68145 0.87996 0.0
C2555 C 0.67456 0.67146 0.861 0.0
C2556 C 0.66034 0.69907 0.88161 0.0
C2557 C 0.65057 0.70718 0.86419 0.0
C2558 C 0.65095 0.69583 0.84579 0.0
C2559 C 0.66283 0.67802 0.84424 0.0
C2560 C 0.64471 0.72925 0.86361 0.0
C2561 C 0.65979 0.74366 0.86909 0.0
C2562 C 0.62655 0.73616 0.85394 0.0
C2563 C 0.6094 0.72188 0.84945 0.0
C2564 C 0.60101 0.72071 0.82961 0.0
C2565 C 0.58483 0.70729 0.82544 0.0
C2566 C 0.57693 0.69487 0.84101 0.0
C2567 C 0.58523 0.69584 0.86076 0.0
C2568 C 0.60139 0.70928 0.865 0.0
C2569 C 0.65704 0.80271 0.80624 0.0
C2570 C 0.64707 0.82146 0.80991 0.0
C2571 C 0.65514 0.7865 0.81993 0.0
C2572 C 0.64313 0.78856 0.83757 0.0
C2573 C 0.63336 0.80732 0.84168 0.0
C2574 C 0.63549 0.82384 0.82796 0.0
C2575 C 0.64132 0.77052 0.85115 0.0
C2576 C 0.6251 0.7568 0.84775 0.0
C2577 C 0.65835 0.7642 0.8629 0.0
C2578 C 0.67567 0.77836 0.86708 0.0
C2579 C 0.67211 0.79751 0.87637 0.0
C2580 C 0.68838 0.81099 0.87999 0.0
C2581 C 0.70831 0.80548 0.87443 0.0
C2582 C 0.71201 0.78645 0.86526 0.0
C2583 C 0.69579 0.77291 0.8616 0.0
H2584 H 0.72088 0.81594 0.87723 0.0
H2585 H 0.56442 0.68447 0.83776 0.0
H2586 H 0.70667 0.72472 0.12706 0.0
H2587 H 0.73453 0.70534 0.14239 0.0
H2588 H 0.69658 0.69148 0.19475 0.0
H2589 H 0.66847 0.71147 0.17956 0.0
H2590 H 0.73282 0.70569 0.20663 0.0
H2591 H 0.71076 0.65381 0.16041 0.0
H2592 H 0.69993 0.63875 0.12744 0.0
H2593 H 0.75843 0.65336 0.10116 0.0
H2594 H 0.76953 0.66877 0.1339 0.0
H2595 H 0.80205 0.63398 0.2487 0.0
H2596 H 0.77258 0.64809 0.2309 0.0
H2597 H 0.81239 0.67589 0.18611 0.0
H2598 H 0.84251 0.66196 0.2042 0.0
H2599 H 0.77492 0.65336 0.17075 0.0
H2600 H 0.79591 0.7062 0.21806 0.0
H2601 H 0.80604 0.71987 0.25185 0.0
H2602 H 0.74808 0.70162 0.277 0.0
H2603 H 0.73773 0.68747 0.24341 0.0
C2604 C 0.70406 0.71732 0.14174 0.0
C2605 C 0.68534 0.71971 0.15216 0.0
C2606 C 0.72002 0.7061 0.15041 0.0
C2607 C 0.71763 0.69681 0.16965 0.0
C2608 C 0.69873 0.69851 0.17984 0.0
C2609 C 0.68263 0.7098 0.17112 0.0
C2610 C 0.7355 0.6868 0.1796 0.0
C2611 C 0.74178 0.69397 0.19892 0.0
C2612 C 0.74752 0.67187 0.16934 0.0
C2613 C 0.74092 0.66261 0.14959 0.0
C2614 C 0.72127 0.65397 0.14756 0.0
C2615 C 0.71509 0.64533 0.12891 0.0
C2616 C 0.72847 0.64514 0.1122 0.0
C2617 C 0.74808 0.65353 0.11411 0.0
C2618 C 0.75433 0.6622 0.13272 0.0
C2619 C 0.80473 0.64298 0.23501 0.0
C2620 C 0.82475 0.64692 0.22794 0.0
C2621 C 0.78778 0.65106 0.22488 0.0
C2622 C 0.79036 0.66313 0.20736 0.0
C2623 C 0.81019 0.6666 0.19971 0.0
C2624 C 0.82732 0.65869 0.21005 0.0
C2625 C 0.77217 0.67242 0.19755 0.0
C2626 C 0.76585 0.66506 0.17837 0.0
C2627 C 0.75998 0.68701 0.20802 0.0
C2628 C 0.76615 0.69554 0.22825 0.0
C2629 C 0.78541 0.70489 0.23084 0.0
C2630 C 0.79117 0.71277 0.24995 0.0
C2631 C 0.77775 0.71155 0.26658 0.0
C2632 C 0.75849 0.70251 0.26411 0.0
C2633 C 0.75266 0.69456 0.24503 0.0
H2634 H 0.78226 0.71763 0.28136 0.0
H2635 H 0.72366 0.63844 0.09778 0.0
H2636 H 0.33059 0.84633 0.17965 0.0
H2637 H 0.32349 0.81331 0.16305 0.0
H2638 H 0.38736 0.79707 0.16791 0.0
H2639 H 0.39447 0.82989 0.18438 0.0
H2640 H 0.33953 0.78239 0.13204 0.0
H2641 H 0.38575 0.75731 0.2027 0.0
H2642 H 0.39712 0.77157 0.23603 0.0
H2643 H 0.34429 0.81081 0.23756 0.0
H2644 H 0.33249 0.79649 0.20457 0.0
H2645 H 0.32506 0.67554 0.13138 0.0
H2646 H 0.34578 0.70684 0.13467 0.0
H2647 H 0.31254 0.72281 0.18966 0.0
H2648 H 0.29261 0.69136 0.18672 0.0
H2649 H 0.34848 0.73739 0.19292 0.0
H2650 H 0.29679 0.73671 0.1396 0.0
H2651 H 0.28056 0.72413 0.10777 0.0
H2652 H 0.33507 0.73854 0.07387 0.0
H2653 H 0.35176 0.75086 0.10559 0.0
C2654 C 0.34328 0.83629 0.17592 0.0
C2655 C 0.363 0.84045 0.18346 0.0
C2656 C 0.33922 0.81738 0.1665 0.0
C2657 C 0.35486 0.80266 0.16468 0.0
C2658 C 0.37509 0.8082 0.16929 0.0
C2659 C 0.37913 0.82699 0.17866 0.0
C2660 C 0.34956 0.78064 0.16343 0.0
C2661 C 0.34165 0.77243 0.14521 0.0
C2662 C 0.35187 0.76787 0.18084 0.0
C2663 C 0.35852 0.77612 0.201 0.0
C2664 C 0.37661 0.76896 0.21021 0.0
C2665 C 0.3831 0.77703 0.22902 0.0
C2666 C 0.3715 0.79216 0.23882 0.0
C2667 C 0.35332 0.79916 0.22991 0.0
C2668 C 0.34675 0.7911 0.21114 0.0
C2669 C 0.32312 0.6852 0.14477 0.0
C2670 C 0.30756 0.68103 0.159 0.0
C2671 C 0.33465 0.70325 0.14645 0.0
C2672 C 0.33031 0.71749 0.16208 0.0
C2673 C 0.31617 0.71217 0.17741 0.0
C2674 C 0.30488 0.69409 0.17586 0.0
C2675 C 0.33835 0.73881 0.16146 0.0
C2676 C 0.34676 0.74706 0.17948 0.0
C2677 C 0.33567 0.75173 0.14409 0.0
C2678 C 0.3256 0.74447 0.125 0.0
C2679 C 0.30536 0.73706 0.12539 0.0
C2680 C 0.29608 0.72998 0.10738 0.0
C2681 C 0.3068 0.73049 0.08885 0.0
C2682 C 0.32681 0.7381 0.08826 0.0
C2683 C 0.33619 0.74512 0.10625 0.0
H2684 H 0.29959 0.72507 0.07495 0.0
H2685 H 0.37654 0.79838 0.25337 0.0
H2686 H 0.69004 0.31621 0.12733 0.0
H2687 H 0.67417 0.28313 0.13518 0.0
H2688 H 0.6886 0.29145 0.19918 0.0
H2689 H 0.70424 0.3248 0.19144 0.0
H2690 H 0.70669 0.25462 0.16145 0.0
H2691 H 0.65113 0.28336 0.20849 0.0
H2692 H 0.62186 0.30712 0.21225 0.0
H2693 H 0.59465 0.28267 0.15741 0.0
H2694 H 0.62381 0.25881 0.15338 0.0
H2695 H 0.68968 0.16458 0.21855 0.0
H2696 H 0.69696 0.1971 0.20174 0.0
H2697 H 0.6379 0.19497 0.17177 0.0
H2698 H 0.6301 0.16314 0.19005 0.0
H2699 H 0.64005 0.22909 0.18743 0.0
H2700 H 0.68794 0.19413 0.14537 0.0
H2701 H 0.71631 0.1709 0.13615 0.0
H2702 H 0.75785 0.20665 0.1727 0.0
H2703 H 0.72968 0.22996 0.18236 0.0
C2704 C 0.68881 0.3115 0.14323 0.0
C2705 C 0.69826 0.32308 0.15882 0.0
C2706 C 0.67989 0.29254 0.14765 0.0
C2707 C 0.68031 0.28489 0.16771 0.0
C2708 C 0.68794 0.29727 0.18362 0.0
C2709 C 0.6967 0.3164 0.17923 0.0
C2710 C 0.67636 0.26285 0.17132 0.0
C2711 C 0.69223 0.2489 0.16733 0.0
C2712 C 0.65721 0.25549 0.17789 0.0
C2713 C 0.63962 0.26948 0.18058 0.0
C2714 C 0.63892 0.28315 0.19722 0.0
C2715 C 0.62236 0.29659 0.19941 0.0
C2716 C 0.60644 0.29645 0.18504 0.0
C2717 C 0.60702 0.28281 0.16849 0.0
C2718 C 0.62351 0.26929 0.16629 0.0
C2719 C 0.67871 0.17055 0.20757 0.0
C2720 C 0.6595 0.16121 0.20528 0.0
C2721 C 0.68282 0.18928 0.19796 0.0
C2722 C 0.66804 0.19869 0.1853 0.0
C2723 C 0.64955 0.18824 0.18152 0.0
C2724 C 0.64522 0.16983 0.19165 0.0
C2725 C 0.67077 0.22036 0.17835 0.0
C2726 C 0.65462 0.23442 0.18148 0.0
C2727 C 0.68963 0.22773 0.17043 0.0
C2728 C 0.70664 0.21372 0.1647 0.0
C2729 C 0.70309 0.19696 0.15156 0.0
C2730 C 0.71915 0.18379 0.14623 0.0
C2731 C 0.73886 0.18727 0.15387 0.0
C2732 C 0.74257 0.20397 0.16681 0.0
C2733 C 0.72657 0.21718 0.17218 0.0
H2734 H 0.75127 0.17706 0.14973 0.0
H2735 H 0.59363 0.30686 0.18676 0.0
loop_
_geom_bond_atom_site_label_1
_geom_bond_atom_site_label_2
_geom_bond_distance
_geom_bond_site_symmetry_2
_ccdc_geom_bond_type
O0 Cd1 2.223 . S
O0 C8 1.315 . S
Cd1 O0 2.223 . S
Cd1 O4 2.297 . S
Cd1 O5 2.439 . S
Cd1 O11 2.240 . S
Cd2 O3 2.240 . S
Cd2 O10 2.223 . S
Cd2 O12 2.297 . S
Cd2 O13 2.439 . S
O3 Cd2 2.240 . S
O3 C8 1.279 . S
O4 Cd1 2.297 . S
O4 C6 1.247 . S
O5 Cd1 2.439 . S
O5 C6 1.208 . S
C6 O4 1.247 . S
C6 O5 1.208 . S
C7 O12 1.247 . S
C7 O13 1.208 . S
C8 O0 1.315 . S
C8 O3 1.279 . S
C9 O10 1.315 . S
C9 O11 1.279 . S
O10 Cd2 2.223 . S
O10 C9 1.315 . S
O11 Cd1 2.240 . S
O11 C9 1.279 . S
O12 Cd2 2.297 . S
O12 C7 1.247 . S
O13 Cd2 2.439 . S
O13 C7 1.208 . S
O14 Cd15 2.223 . S
O14 C22 1.315 . S
Cd15 O14 2.223 . S
Cd15 O18 2.297 . S
Cd15 O19 2.439 . S
Cd15 O25 2.240 . S
Cd16 O17 2.240 . S
Cd16 O24 2.223 . S
Cd16 O26 2.297 . S
Cd16 O27 2.439 . S
O17 Cd16 2.240 . S
O17 C22 1.279 . S
O18 Cd15 2.297 . S
O18 C20 1.247 . S
O19 Cd15 2.439 . S
O19 C20 1.208 . S
C20 O18 1.247 . S
C20 O19 1.208 . S
C21 O26 1.247 . S
C21 O27 1.208 . S
C22 O14 1.315 . S
C22 O17 1.279 . S
C23 O24 1.315 . S
C23 O25 1.279 . S
O24 Cd16 2.223 . S
O24 C23 1.315 . S
O25 Cd15 2.240 . S
O25 C23 1.279 . S
O26 Cd16 2.297 . S
O26 C21 1.247 . S
O27 Cd16 2.439 . S
O27 C21 1.208 . S
O28 Cd29 2.223 . S
O28 C36 1.315 . S
Cd29 O28 2.223 . S
Cd29 O32 2.297 . S
Cd29 O33 2.439 . S
Cd29 O39 2.240 . S
Cd30 O31 2.240 . S
Cd30 O38 2.223 . S
Cd30 O40 2.297 . S
Cd30 O41 2.439 . S
O31 Cd30 2.240 . S
O31 C36 1.279 . S
O32 Cd29 2.297 . S
O32 C34 1.247 . S
O33 Cd29 2.439 . S
O33 C34 1.208 . S
C34 O32 1.247 . S
C34 O33 1.208 . S
C35 O40 1.247 . S
C35 O41 1.208 . S
C36 O28 1.315 . S
C36 O31 1.279 . S
C37 O38 1.315 . S
C37 O39 1.279 . S
O38 Cd30 2.223 . S
O38 C37 1.315 . S
O39 Cd29 2.240 . S
O39 C37 1.279 . S
O40 Cd30 2.297 . S
O40 C35 1.247 . S
O41 Cd30 2.439 . S
O41 C35 1.208 . S
O42 Cd43 2.223 . S
O42 C50 1.315 . S
Cd43 O42 2.223 . S
Cd43 O46 2.297 . S
Cd43 O47 2.439 . S
Cd43 O53 2.240 . S
Cd44 O45 2.240 . S
Cd44 O52 2.223 . S
Cd44 O54 2.297 . S
Cd44 O55 2.439 . S
O45 Cd44 2.240 . S
O45 C50 1.279 . S
O46 Cd43 2.297 . S
O46 C48 1.247 . S
O47 Cd43 2.439 . S
O47 C48 1.208 . S
C48 O46 1.247 . S
C48 O47 1.208 . S
C49 O54 1.247 . S
C49 O55 1.208 . S
C50 O42 1.315 . S
C50 O45 1.279 . S
C51 O52 1.315 . S
C51 O53 1.279 . S
O52 Cd44 2.223 . S
O52 C51 1.315 . S
O53 Cd43 2.240 . S
O53 C51 1.279 . S
O54 Cd44 2.297 . S
O54 C49 1.247 . S
O55 Cd44 2.439 . S
O55 C49 1.208 . S
O56 Cd57 2.223 . S
O56 C64 1.315 . S
Cd57 O56 2.223 . S
Cd57 O60 2.297 . S
Cd57 O61 2.439 . S
Cd57 O67 2.240 . S
Cd58 O59 2.240 . S
Cd58 O66 2.223 . S
Cd58 O68 2.297 . S
Cd58 O69 2.439 . S
O59 Cd58 2.240 . S
O59 C64 1.279 . S
O60 Cd57 2.297 . S
O60 C62 1.247 . S
O61 Cd57 2.439 . S
O61 C62 1.208 . S
C62 O60 1.247 . S
C62 O61 1.208 . S
C63 O68 1.247 . S
C63 O69 1.208 . S
C64 O56 1.315 . S
C64 O59 1.279 . S
C65 O66 1.315 . S
C65 O67 1.279 . S
O66 Cd58 2.223 . S
O66 C65 1.315 . S
O67 Cd57 2.240 . S
O67 C65 1.279 . S
O68 Cd58 2.297 . S
O68 C63 1.247 . S
O69 Cd58 2.439 . S
O69 C63 1.208 . S
O70 Cd71 2.223 . S
O70 C78 1.315 . S
Cd71 O70 2.223 . S
Cd71 O74 2.297 . S
Cd71 O75 2.439 . S
Cd71 O81 2.240 . S
Cd72 O73 2.240 . S
Cd72 O80 2.223 . S
Cd72 O82 2.297 . S
Cd72 O83 2.439 . S
O73 Cd72 2.240 . S
O73 C78 1.279 . S
O74 Cd71 2.297 . S
O74 C76 1.247 . S
O75 Cd71 2.439 . S
O75 C76 1.208 . S
C76 O74 1.247 . S
C76 O75 1.208 . S
C77 O82 1.247 . S
C77 O83 1.208 . S
C78 O70 1.315 . S
C78 O73 1.279 . S
C79 O80 1.315 . S
C79 O81 1.279 . S
O80 Cd72 2.223 . S
O80 C79 1.315 . S
O81 Cd71 2.240 . S
O81 C79 1.279 . S
O82 Cd72 2.297 . S
O82 C77 1.247 . S
O83 Cd72 2.439 . S
O83 C77 1.208 . S
O84 Cd85 2.223 . S
O84 C92 1.315 . S
Cd85 O84 2.223 . S
Cd85 O88 2.297 . S
Cd85 O89 2.439 . S
Cd85 O95 2.240 . S
Cd86 O87 2.240 . S
Cd86 O94 2.223 . S
Cd86 O96 2.297 . S
Cd86 O97 2.439 . S
O87 Cd86 2.240 . S
O87 C92 1.279 . S
O88 Cd85 2.297 . S
O88 C90 1.247 . S
O89 Cd85 2.439 . S
O89 C90 1.208 . S
C90 O88 1.247 . S
C90 O89 1.208 . S
C91 O96 1.247 . S
C91 O97 1.208 . S
C92 O84 1.315 . S
C92 O87 1.279 . S
C93 O94 1.315 . S
C93 O95 1.279 . S
O94 Cd86 2.223 . S
O94 C93 1.315 . S
O95 Cd85 2.240 . S
O95 C93 1.279 . S
O96 Cd86 2.297 . S
O96 C91 1.247 . S
O97 Cd86 2.439 . S
O97 C91 1.208 . S
O98 Cd99 2.223 . S
O98 C106 1.315 . S
Cd99 O98 2.223 . S
Cd99 O102 2.297 . S
Cd99 O103 2.439 . S
Cd99 O109 2.240 . S
Cd100 O101 2.240 . S
Cd100 O108 2.223 . S
Cd100 O110 2.297 . S
Cd100 O111 2.439 . S
O101 Cd100 2.240 . S
O101 C106 1.279 . S
O102 Cd99 2.297 . S
O102 C104 1.247 . S
O103 Cd99 2.439 . S
O103 C104 1.208 . S
C104 O102 1.247 . S
C104 O103 1.208 . S
C105 O110 1.247 . S
C105 O111 1.208 . S
C106 O98 1.315 . S
C106 O101 1.279 . S
C107 O108 1.315 . S
C107 O109 1.279 . S
O108 Cd100 2.223 . S
O108 C107 1.315 . S
O109 Cd99 2.240 . S
O109 C107 1.279 . S
O110 Cd100 2.297 . S
O110 C105 1.247 . S
O111 Cd100 2.439 . S
O111 C105 1.208 . S
O112 Cd113 2.223 . S
O112 C120 1.315 . S
Cd113 O112 2.223 . S
Cd113 O116 2.297 . S
Cd113 O117 2.439 . S
Cd113 O123 2.240 . S
Cd114 O115 2.240 . S
Cd114 O122 2.223 . S
Cd114 O124 2.297 . S
Cd114 O125 2.439 . S
O115 Cd114 2.240 . S
O115 C120 1.279 . S
O116 Cd113 2.297 . S
O116 C118 1.247 . S
O117 Cd113 2.439 . S
O117 C118 1.208 . S
C118 O116 1.247 . S
C118 O117 1.208 . S
C119 O124 1.247 . S
C119 O125 1.208 . S
C120 O112 1.315 . S
C120 O115 1.279 . S
C121 O122 1.315 . S
C121 O123 1.279 . S
O122 Cd114 2.223 . S
O122 C121 1.315 . S
O123 Cd113 2.240 . S
O123 C121 1.279 . S
O124 Cd114 2.297 . S
O124 C119 1.247 . S
O125 Cd114 2.439 . S
O125 C119 1.208 . S
O126 Cd127 2.223 . S
O126 C134 1.315 . S
Cd127 O126 2.223 . S
Cd127 O130 2.297 . S
Cd127 O131 2.439 . S
Cd127 O137 2.240 . S
Cd128 O129 2.240 . S
Cd128 O136 2.223 . S
Cd128 O138 2.297 . S
Cd128 O139 2.439 . S
O129 Cd128 2.240 . S
O129 C134 1.279 . S
O130 Cd127 2.297 . S
O130 C132 1.247 . S
O131 Cd127 2.439 . S
O131 C132 1.208 . S
C132 O130 1.247 . S
C132 O131 1.208 . S
C133 O138 1.247 . S
C133 O139 1.208 . S
C134 O126 1.315 . S
C134 O129 1.279 . S
C135 O136 1.315 . S
C135 O137 1.279 . S
O136 Cd128 2.223 . S
O136 C135 1.315 . S
O137 Cd127 2.240 . S
O137 C135 1.279 . S
O138 Cd128 2.297 . S
O138 C133 1.247 . S
O139 Cd128 2.439 . S
O139 C133 1.208 . S
O140 Cd141 2.223 . S
O140 C148 1.315 . S
Cd141 O140 2.223 . S
Cd141 O144 2.297 . S
Cd141 O145 2.439 . S
Cd141 O151 2.240 . S
Cd142 O143 2.240 . S
Cd142 O150 2.223 . S
Cd142 O152 2.297 . S
Cd142 O153 2.439 . S
O143 Cd142 2.240 . S
O143 C148 1.279 . S
O144 Cd141 2.297 . S
O144 C146 1.247 . S
O145 Cd141 2.439 . S
O145 C146 1.208 . S
C146 O144 1.247 . S
C146 O145 1.208 . S
C147 O152 1.247 . S
C147 O153 1.208 . S
C148 O140 1.315 . S
C148 O143 1.279 . S
C149 O150 1.315 . S
C149 O151 1.279 . S
O150 Cd142 2.223 . S
O150 C149 1.315 . S
O151 Cd141 2.240 . S
O151 C149 1.279 . S
O152 Cd142 2.297 . S
O152 C147 1.247 . S
O153 Cd142 2.439 . S
O153 C147 1.208 . S
O154 Cd155 2.223 . S
O154 C162 1.315 . S
Cd155 O154 2.223 . S
Cd155 O158 2.297 . S
Cd155 O159 2.439 . S
Cd155 O165 2.240 . S
Cd156 O157 2.240 . S
Cd156 O164 2.223 . S
Cd156 O166 2.297 . S
Cd156 O167 2.439 . S
O157 Cd156 2.240 . S
O157 C162 1.279 . S
O158 Cd155 2.297 . S
O158 C160 1.247 . S
O159 Cd155 2.439 . S
O159 C160 1.208 . S
C160 O158 1.247 . S
C160 O159 1.208 . S
C161 O166 1.247 . S
C161 O167 1.208 . S
C162 O154 1.315 . S
C162 O157 1.279 . S
C163 O164 1.315 . S
C163 O165 1.279 . S
O164 Cd156 2.223 . S
O164 C163 1.315 . S
O165 Cd155 2.240 . S
O165 C163 1.279 . S
O166 Cd156 2.297 . S
O166 C161 1.247 . S
O167 Cd156 2.439 . S
O167 C161 1.208 . S
O168 Cd169 2.223 . S
O168 C176 1.315 . S
Cd169 O168 2.223 . S
Cd169 O172 2.297 . S
Cd169 O173 2.439 . S
Cd169 O179 2.240 . S
Cd170 O171 2.240 . S
Cd170 O178 2.223 . S
Cd170 O180 2.297 . S
Cd170 O181 2.439 . S
O171 Cd170 2.240 . S
O171 C176 1.279 . S
O172 Cd169 2.297 . S
O172 C174 1.247 . S
O173 Cd169 2.439 . S
O173 C174 1.208 . S
C174 O172 1.247 . S
C174 O173 1.208 . S
C175 O180 1.247 . S
C175 O181 1.208 . S
C176 O168 1.315 . S
C176 O171 1.279 . S
C177 O178 1.315 . S
C177 O179 1.279 . S
O178 Cd170 2.223 . S
O178 C177 1.315 . S
O179 Cd169 2.240 . S
O179 C177 1.279 . S
O180 Cd170 2.297 . S
O180 C175 1.247 . S
O181 Cd170 2.439 . S
O181 C175 1.208 . S
O182 Cd183 2.223 . S
O182 C190 1.315 . S
Cd183 O182 2.223 . S
Cd183 O186 2.297 . S
Cd183 O187 2.439 . S
Cd183 O193 2.240 . S
Cd184 O185 2.240 . S
Cd184 O192 2.223 . S
Cd184 O194 2.297 . S
Cd184 O195 2.439 . S
O185 Cd184 2.240 . S
O185 C190 1.279 . S
O186 Cd183 2.297 . S
O186 C188 1.247 . S
O187 Cd183 2.439 . S
O187 C188 1.208 . S
C188 O186 1.247 . S
C188 O187 1.208 . S
C189 O194 1.247 . S
C189 O195 1.208 . S
C190 O182 1.315 . S
C190 O185 1.279 . S
C191 O192 1.315 . S
C191 O193 1.279 . S
O192 Cd184 2.223 . S
O192 C191 1.315 . S
O193 Cd183 2.240 . S
O193 C191 1.279 . S
O194 Cd184 2.297 . S
O194 C189 1.247 . S
O195 Cd184 2.439 . S
O195 C189 1.208 . S
O196 Cd197 2.223 . S
O196 C204 1.315 . S
Cd197 O196 2.223 . S
Cd197 O200 2.297 . S
Cd197 O201 2.439 . S
Cd197 O207 2.240 . S
Cd198 O199 2.240 . S
Cd198 O206 2.223 . S
Cd198 O208 2.297 . S
Cd198 O209 2.439 . S
O199 Cd198 2.240 . S
O199 C204 1.279 . S
O200 Cd197 2.297 . S
O200 C202 1.247 . S
O201 Cd197 2.439 . S
O201 C202 1.208 . S
C202 O200 1.247 . S
C202 O201 1.208 . S
C203 O208 1.247 . S
C203 O209 1.208 . S
C204 O196 1.315 . S
C204 O199 1.279 . S
C205 O206 1.315 . S
C205 O207 1.279 . S
O206 Cd198 2.223 . S
O206 C205 1.315 . S
O207 Cd197 2.240 . S
O207 C205 1.279 . S
O208 Cd198 2.297 . S
O208 C203 1.247 . S
O209 Cd198 2.439 . S
O209 C203 1.208 . S
O210 Cd211 2.223 . S
O210 C218 1.315 . S
Cd211 O210 2.223 . S
Cd211 O214 2.297 . S
Cd211 O215 2.439 . S
Cd211 O221 2.240 . S
Cd212 O213 2.240 . S
Cd212 O220 2.223 . S
Cd212 O222 2.297 . S
Cd212 O223 2.439 . S
O213 Cd212 2.240 . S
O213 C218 1.279 . S
O214 Cd211 2.297 . S
O214 C216 1.247 . S
O215 Cd211 2.439 . S
O215 C216 1.208 . S
C216 O214 1.247 . S
C216 O215 1.208 . S
C217 O222 1.247 . S
C217 O223 1.208 . S
C218 O210 1.315 . S
C218 O213 1.279 . S
C219 O220 1.315 . S
C219 O221 1.279 . S
O220 Cd212 2.223 . S
O220 C219 1.315 . S
O221 Cd211 2.240 . S
O221 C219 1.279 . S
O222 Cd212 2.297 . S
O222 C217 1.247 . S
O223 Cd212 2.439 . S
O223 C217 1.208 . S
O224 Cd225 2.223 . S
O224 C232 1.315 . S
Cd225 O224 2.223 . S
Cd225 O228 2.297 . S
Cd225 O229 2.439 . S
Cd225 O235 2.240 . S
Cd226 O227 2.240 . S
Cd226 O234 2.223 . S
Cd226 O236 2.297 . S
Cd226 O237 2.439 . S
O227 Cd226 2.240 . S
O227 C232 1.279 . S
O228 Cd225 2.297 . S
O228 C230 1.247 . S
O229 Cd225 2.439 . S
O229 C230 1.208 . S
C230 O228 1.247 . S
C230 O229 1.208 . S
C231 O236 1.247 . S
C231 O237 1.208 . S
C232 O224 1.315 . S
C232 O227 1.279 . S
C233 O234 1.315 . S
C233 O235 1.279 . S
O234 Cd226 2.223 . S
O234 C233 1.315 . S
O235 Cd225 2.240 . S
O235 C233 1.279 . S
O236 Cd226 2.297 . S
O236 C231 1.247 . S
O237 Cd226 2.439 . S
O237 C231 1.208 . S
O238 Cd239 2.223 . S
O238 C246 1.315 . S
Cd239 O238 2.223 . S
Cd239 O242 2.297 . S
Cd239 O243 2.439 . S
Cd239 O249 2.240 . S
Cd240 O241 2.240 . S
Cd240 O248 2.223 . S
Cd240 O250 2.297 . S
Cd240 O251 2.439 . S
O241 Cd240 2.240 . S
O241 C246 1.279 . S
O242 Cd239 2.297 . S
O242 C244 1.247 . S
O243 Cd239 2.439 . S
O243 C244 1.208 . S
C244 O242 1.247 . S
C244 O243 1.208 . S
C245 O250 1.247 . S
C245 O251 1.208 . S
C246 O238 1.315 . S
C246 O241 1.279 . S
C247 O248 1.315 . S
C247 O249 1.279 . S
O248 Cd240 2.223 . S
O248 C247 1.315 . S
O249 Cd239 2.240 . S
O249 C247 1.279 . S
O250 Cd240 2.297 . S
O250 C245 1.247 . S
O251 Cd240 2.439 . S
O251 C245 1.208 . S
O252 Cd253 2.223 . S
O252 C260 1.315 . S
Cd253 O252 2.223 . S
Cd253 O256 2.297 . S
Cd253 O257 2.439 . S
Cd253 O263 2.240 . S
Cd254 O255 2.240 . S
Cd254 O262 2.223 . S
Cd254 O264 2.297 . S
Cd254 O265 2.439 . S
O255 Cd254 2.240 . S
O255 C260 1.279 . S
O256 Cd253 2.297 . S
O256 C258 1.247 . S
O257 Cd253 2.439 . S
O257 C258 1.208 . S
C258 O256 1.247 . S
C258 O257 1.208 . S
C259 O264 1.247 . S
C259 O265 1.208 . S
C260 O252 1.315 . S
C260 O255 1.279 . S
C261 O262 1.315 . S
C261 O263 1.279 . S
O262 Cd254 2.223 . S
O262 C261 1.315 . S
O263 Cd253 2.240 . S
O263 C261 1.279 . S
O264 Cd254 2.297 . S
O264 C259 1.247 . S
O265 Cd254 2.439 . S
O265 C259 1.208 . S
O266 Cd267 2.223 . S
O266 C274 1.315 . S
Cd267 O266 2.223 . S
Cd267 O270 2.297 . S
Cd267 O271 2.439 . S
Cd267 O277 2.240 . S
Cd268 O269 2.240 . S
Cd268 O276 2.223 . S
Cd268 O278 2.297 . S
Cd268 O279 2.439 . S
O269 Cd268 2.240 . S
O269 C274 1.279 . S
O270 Cd267 2.297 . S
O270 C272 1.247 . S
O271 Cd267 2.439 . S
O271 C272 1.208 . S
C272 O270 1.247 . S
C272 O271 1.208 . S
C273 O278 1.247 . S
C273 O279 1.208 . S
C274 O266 1.315 . S
C274 O269 1.279 . S
C275 O276 1.315 . S
C275 O277 1.279 . S
O276 Cd268 2.223 . S
O276 C275 1.315 . S
O277 Cd267 2.240 . S
O277 C275 1.279 . S
O278 Cd268 2.297 . S
O278 C273 1.247 . S
O279 Cd268 2.439 . S
O279 C273 1.208 . S
O280 Cd281 2.223 . S
O280 C288 1.315 . S
Cd281 O280 2.223 . S
Cd281 O284 2.297 . S
Cd281 O285 2.439 . S
Cd281 O291 2.240 . S
Cd282 O283 2.240 . S
Cd282 O290 2.223 . S
Cd282 O292 2.297 . S
Cd282 O293 2.439 . S
O283 Cd282 2.240 . S
O283 C288 1.279 . S
O284 Cd281 2.297 . S
O284 C286 1.247 . S
O285 Cd281 2.439 . S
O285 C286 1.208 . S
C286 O284 1.247 . S
C286 O285 1.208 . S
C287 O292 1.247 . S
C287 O293 1.208 . S
C288 O280 1.315 . S
C288 O283 1.279 . S
C289 O290 1.315 . S
C289 O291 1.279 . S
O290 Cd282 2.223 . S
O290 C289 1.315 . S
O291 Cd281 2.240 . S
O291 C289 1.279 . S
O292 Cd282 2.297 . S
O292 C287 1.247 . S
O293 Cd282 2.439 . S
O293 C287 1.208 . S
O294 Cd295 2.223 . S
O294 C302 1.315 . S
Cd295 O294 2.223 . S
Cd295 O298 2.297 . S
Cd295 O299 2.439 . S
Cd295 O305 2.240 . S
Cd296 O297 2.240 . S
Cd296 O304 2.223 . S
Cd296 O306 2.297 . S
Cd296 O307 2.439 . S
O297 Cd296 2.240 . S
O297 C302 1.279 . S
O298 Cd295 2.297 . S
O298 C300 1.247 . S
O299 Cd295 2.439 . S
O299 C300 1.208 . S
C300 O298 1.247 . S
C300 O299 1.208 . S
C301 O306 1.247 . S
C301 O307 1.208 . S
C302 O294 1.315 . S
C302 O297 1.279 . S
C303 O304 1.315 . S
C303 O305 1.279 . S
O304 Cd296 2.223 . S
O304 C303 1.315 . S
O305 Cd295 2.240 . S
O305 C303 1.279 . S
O306 Cd296 2.297 . S
O306 C301 1.247 . S
O307 Cd296 2.439 . S
O307 C301 1.208 . S
O308 Cd309 2.223 . S
O308 C316 1.315 . S
Cd309 O308 2.223 . S
Cd309 O312 2.297 . S
Cd309 O313 2.439 . S
Cd309 O319 2.240 . S
Cd310 O311 2.240 . S
Cd310 O318 2.223 . S
Cd310 O320 2.297 . S
Cd310 O321 2.439 . S
O311 Cd310 2.240 . S
O311 C316 1.279 . S
O312 Cd309 2.297 . S
O312 C314 1.247 . S
O313 Cd309 2.439 . S
O313 C314 1.208 . S
C314 O312 1.247 . S
C314 O313 1.208 . S
C315 O320 1.247 . S
C315 O321 1.208 . S
C316 O308 1.315 . S
C316 O311 1.279 . S
C317 O318 1.315 . S
C317 O319 1.279 . S
O318 Cd310 2.223 . S
O318 C317 1.315 . S
O319 Cd309 2.240 . S
O319 C317 1.279 . S
O320 Cd310 2.297 . S
O320 C315 1.247 . S
O321 Cd310 2.439 . S
O321 C315 1.208 . S
O322 Cd323 2.223 . S
O322 C330 1.315 . S
Cd323 O322 2.223 . S
Cd323 O326 2.297 . S
Cd323 O327 2.439 . S
Cd323 O333 2.240 . S
Cd324 O325 2.240 . S
Cd324 O332 2.223 . S
Cd324 O334 2.297 . S
Cd324 O335 2.439 . S
O325 Cd324 2.240 . S
O325 C330 1.279 . S
O326 Cd323 2.297 . S
O326 C328 1.247 . S
O327 Cd323 2.439 . S
O327 C328 1.208 . S
C328 O326 1.247 . S
C328 O327 1.208 . S
C329 O334 1.247 . S
C329 O335 1.208 . S
C330 O322 1.315 . S
C330 O325 1.279 . S
C331 O332 1.315 . S
C331 O333 1.279 . S
O332 Cd324 2.223 . S
O332 C331 1.315 . S
O333 Cd323 2.240 . S
O333 C331 1.279 . S
O334 Cd324 2.297 . S
O334 C329 1.247 . S
O335 Cd324 2.439 . S
O335 C329 1.208 . S
H336 C354 0.951 . S
H337 C356 0.951 . S
H338 C358 0.950 . S
H339 C359 0.950 . S
H340 C361 0.950 . S
H341 C364 0.950 . S
H342 C365 0.950 . S
H343 C367 0.950 . S
H344 C368 0.950 . S
H345 C369 0.951 . S
H346 C371 0.951 . S
H347 C373 0.950 . S
H348 C374 0.950 . S
H349 C376 0.950 . S
H350 C379 0.950 . S
H351 C380 0.950 . S
H352 C382 0.950 . S
H353 C383 0.950 . S
C354 H336 0.951 . S
C354 C355 1.366 . S
C354 C356 1.388 . S
C355 C354 1.366 . S
C355 C359 1.385 . S
C356 H337 0.951 . S
C356 C354 1.388 . S
C356 C357 1.366 . S
C357 C356 1.366 . S
C357 C358 1.414 . S
C357 C360 1.499 . S
C358 H338 0.950 . S
C358 C357 1.414 . S
C358 C359 1.374 . S
C359 H339 0.950 . S
C359 C355 1.385 . S
C359 C358 1.374 . S
C360 C357 1.499 . S
C360 C361 1.373 . S
C360 C362 1.389 . S
C361 H340 0.950 . S
C361 C360 1.373 . S
C361 C377 1.377 . S
C362 C360 1.389 . S
C362 C363 1.524 . S
C362 C376 1.377 . S
C363 C362 1.524 . S
C363 C364 1.397 . S
C363 C368 1.363 . S
C364 H341 0.950 . S
C364 C363 1.397 . S
C364 C365 1.334 . S
C365 H342 0.950 . S
C365 C364 1.334 . S
C365 C366 1.287 . S
C366 C365 1.287 . S
C366 C367 1.524 . S
C366 H385 0.913 . S
C367 H343 0.950 . S
C367 C366 1.524 . S
C367 C368 1.415 . S
C368 H344 0.950 . S
C368 C363 1.363 . S
C368 C367 1.415 . S
C369 H345 0.951 . S
C369 C370 1.366 . S
C369 C371 1.388 . S
C370 C369 1.366 . S
C370 C374 1.385 . S
C371 H346 0.951 . S
C371 C369 1.388 . S
C371 C372 1.366 . S
C372 C371 1.366 . S
C372 C373 1.414 . S
C372 C375 1.499 . S
C373 H347 0.950 . S
C373 C372 1.414 . S
C373 C374 1.374 . S
C374 H348 0.950 . S
C374 C370 1.385 . S
C374 C373 1.374 . S
C375 C372 1.499 . S
C375 C376 1.373 . S
C375 C377 1.389 . S
C376 H349 0.950 . S
C376 C362 1.377 . S
C376 C375 1.373 . S
C377 C361 1.377 . S
C377 C375 1.389 . S
C377 C378 1.524 . S
C378 C377 1.524 . S
C378 C379 1.397 . S
C378 C383 1.363 . S
C379 H350 0.950 . S
C379 C378 1.397 . S
C379 C380 1.334 . S
C380 H351 0.950 . S
C380 C379 1.334 . S
C380 C381 1.287 . S
C381 C380 1.287 . S
C381 C382 1.524 . S
C381 H384 0.999 . S
C382 H352 0.950 . S
C382 C381 1.524 . S
C382 C383 1.415 . S
C383 H353 0.950 . S
C383 C378 1.363 . S
C383 C382 1.415 . S
H384 C381 0.999 . S
H385 C366 0.913 . S
H386 C404 0.951 . S
H387 C406 0.951 . S
H388 C408 0.950 . S
H389 C409 0.950 . S
H390 C411 0.950 . S
H391 C414 0.950 . S
H392 C415 0.950 . S
H393 C417 0.950 . S
H394 C418 0.950 . S
H395 C419 0.951 . S
H396 C421 0.951 . S
H397 C423 0.950 . S
H398 C424 0.950 . S
H399 C426 0.950 . S
H400 C429 0.950 . S
H401 C430 0.950 . S
H402 C432 0.950 . S
H403 C433 0.950 . S
C404 H386 0.951 . S
C404 C405 1.366 . S
C404 C406 1.388 . S
C405 C404 1.366 . S
C405 C409 1.385 . S
C406 H387 0.951 . S
C406 C404 1.388 . S
C406 C407 1.366 . S
C407 C406 1.366 . S
C407 C408 1.414 . S
C407 C410 1.499 . S
C408 H388 0.950 . S
C408 C407 1.414 . S
C408 C409 1.374 . S
C409 H389 0.950 . S
C409 C405 1.385 . S
C409 C408 1.374 . S
C410 C407 1.499 . S
C410 C411 1.373 . S
C410 C412 1.389 . S
C411 H390 0.950 . S
C411 C410 1.373 . S
C411 C427 1.377 . S
C412 C410 1.389 . S
C412 C413 1.524 . S
C412 C426 1.377 . S
C413 C412 1.524 . S
C413 C414 1.397 . S
C413 C418 1.363 . S
C414 H391 0.950 . S
C414 C413 1.397 . S
C414 C415 1.334 . S
C415 H392 0.950 . S
C415 C414 1.334 . S
C415 C416 1.287 . S
C416 C415 1.287 . S
C416 C417 1.524 . S
C416 H435 0.913 . S
C417 H393 0.950 . S
C417 C416 1.524 . S
C417 C418 1.415 . S
C418 H394 0.950 . S
C418 C413 1.363 . S
C418 C417 1.415 . S
C419 H395 0.951 . S
C419 C420 1.366 . S
C419 C421 1.388 . S
C420 C419 1.366 . S
C420 C424 1.385 . S
C421 H396 0.951 . S
C421 C419 1.388 . S
C421 C422 1.366 . S
C422 C421 1.366 . S
C422 C423 1.414 . S
C422 C425 1.499 . S
C423 H397 0.950 . S
C423 C422 1.414 . S
C423 C424 1.374 . S
C424 H398 0.950 . S
C424 C420 1.385 . S
C424 C423 1.374 . S
C425 C422 1.499 . S
C425 C426 1.373 . S
C425 C427 1.389 . S
C426 H399 0.950 . S
C426 C412 1.377 . S
C426 C425 1.373 . S
C427 C411 1.377 . S
C427 C425 1.389 . S
C427 C428 1.524 . S
C428 C427 1.524 . S
C428 C429 1.397 . S
C428 C433 1.363 . S
C429 H400 0.950 . S
C429 C428 1.397 . S
C429 C430 1.334 . S
C430 H401 0.950 . S
C430 C429 1.334 . S
C430 C431 1.287 . S
C431 C430 1.287 . S
C431 C432 1.524 . S
C431 H434 0.999 . S
C432 H402 0.950 . S
C432 C431 1.524 . S
C432 C433 1.415 . S
C433 H403 0.950 . S
C433 C428 1.363 . S
C433 C432 1.415 . S
H434 C431 0.999 . S
H435 C416 0.913 . S
H436 C454 0.951 . S
H437 C456 0.951 . S
H438 C458 0.950 . S
H439 C459 0.950 . S
H440 C461 0.950 . S
H441 C464 0.950 . S
H442 C465 0.950 . S
H443 C467 0.950 . S
H444 C468 0.950 . S
H445 C469 0.951 . S
H446 C471 0.951 . S
H447 C473 0.950 . S
H448 C474 0.950 . S
H449 C476 0.950 . S
H450 C479 0.950 . S
H451 C480 0.950 . S
H452 C482 0.950 . S
H453 C483 0.950 . S
C454 H436 0.951 . S
C454 C455 1.366 . S
C454 C456 1.388 . S
C455 C454 1.366 . S
C455 C459 1.385 . S
C456 H437 0.951 . S
C456 C454 1.388 . S
C456 C457 1.366 . S
C457 C456 1.366 . S
C457 C458 1.414 . S
C457 C460 1.499 . S
C458 H438 0.950 . S
C458 C457 1.414 . S
C458 C459 1.374 . S
C459 H439 0.950 . S
C459 C455 1.385 . S
C459 C458 1.374 . S
C460 C457 1.499 . S
C460 C461 1.373 . S
C460 C462 1.389 . S
C461 H440 0.950 . S
C461 C460 1.373 . S
C461 C477 1.377 . S
C462 C460 1.389 . S
C462 C463 1.524 . S
C462 C476 1.377 . S
C463 C462 1.524 . S
C463 C464 1.397 . S
C463 C468 1.363 . S
C464 H441 0.950 . S
C464 C463 1.397 . S
C464 C465 1.334 . S
C465 H442 0.950 . S
C465 C464 1.334 . S
C465 C466 1.287 . S
C466 C465 1.287 . S
C466 C467 1.524 . S
C466 H485 0.913 . S
C467 H443 0.950 . S
C467 C466 1.524 . S
C467 C468 1.415 . S
C468 H444 0.950 . S
C468 C463 1.363 . S
C468 C467 1.415 . S
C469 H445 0.951 . S
C469 C470 1.366 . S
C469 C471 1.388 . S
C470 C469 1.366 . S
C470 C474 1.385 . S
C471 H446 0.951 . S
C471 C469 1.388 . S
C471 C472 1.366 . S
C472 C471 1.366 . S
C472 C473 1.414 . S
C472 C475 1.499 . S
C473 H447 0.950 . S
C473 C472 1.414 . S
C473 C474 1.374 . S
C474 H448 0.950 . S
C474 C470 1.385 . S
C474 C473 1.374 . S
C475 C472 1.499 . S
C475 C476 1.373 . S
C475 C477 1.389 . S
C476 H449 0.950 . S
C476 C462 1.377 . S
C476 C475 1.373 . S
C477 C461 1.377 . S
C477 C475 1.389 . S
C477 C478 1.524 . S
C478 C477 1.524 . S
C478 C479 1.397 . S
C478 C483 1.363 . S
C479 H450 0.950 . S
C479 C478 1.397 . S
C479 C480 1.334 . S
C480 H451 0.950 . S
C480 C479 1.334 . S
C480 C481 1.287 . S
C481 C480 1.287 . S
C481 C482 1.524 . S
C481 H484 0.999 . S
C482 H452 0.950 . S
C482 C481 1.524 . S
C482 C483 1.415 . S
C483 H453 0.950 . S
C483 C478 1.363 . S
C483 C482 1.415 . S
H484 C481 0.999 . S
H485 C466 0.913 . S
H486 C504 0.951 . S
H487 C506 0.951 . S
H488 C508 0.950 . S
H489 C509 0.950 . S
H490 C511 0.950 . S
H491 C514 0.950 . S
H492 C515 0.950 . S
H493 C517 0.950 . S
H494 C518 0.950 . S
H495 C519 0.951 . S
H496 C521 0.951 . S
H497 C523 0.950 . S
H498 C524 0.950 . S
H499 C526 0.950 . S
H500 C529 0.950 . S
H501 C530 0.950 . S
H502 C532 0.950 . S
H503 C533 0.950 . S
C504 H486 0.951 . S
C504 C505 1.366 . S
C504 C506 1.388 . S
C505 C504 1.366 . S
C505 C509 1.385 . S
C506 H487 0.951 . S
C506 C504 1.388 . S
C506 C507 1.366 . S
C507 C506 1.366 . S
C507 C508 1.414 . S
C507 C510 1.499 . S
C508 H488 0.950 . S
C508 C507 1.414 . S
C508 C509 1.374 . S
C509 H489 0.950 . S
C509 C505 1.385 . S
C509 C508 1.374 . S
C510 C507 1.499 . S
C510 C511 1.373 . S
C510 C512 1.389 . S
C511 H490 0.950 . S
C511 C510 1.373 . S
C511 C527 1.377 . S
C512 C510 1.389 . S
C512 C513 1.524 . S
C512 C526 1.377 . S
C513 C512 1.524 . S
C513 C514 1.397 . S
C513 C518 1.363 . S
C514 H491 0.950 . S
C514 C513 1.397 . S
C514 C515 1.334 . S
C515 H492 0.950 . S
C515 C514 1.334 . S
C515 C516 1.287 . S
C516 C515 1.287 . S
C516 C517 1.524 . S
C516 H535 0.913 . S
C517 H493 0.950 . S
C517 C516 1.524 . S
C517 C518 1.415 . S
C518 H494 0.950 . S
C518 C513 1.363 . S
C518 C517 1.415 . S
C519 H495 0.951 . S
C519 C520 1.366 . S
C519 C521 1.388 . S
C520 C519 1.366 . S
C520 C524 1.385 . S
C521 H496 0.951 . S
C521 C519 1.388 . S
C521 C522 1.366 . S
C522 C521 1.366 . S
C522 C523 1.414 . S
C522 C525 1.499 . S
C523 H497 0.950 . S
C523 C522 1.414 . S
C523 C524 1.374 . S
C524 H498 0.950 . S
C524 C520 1.385 . S
C524 C523 1.374 . S
C525 C522 1.499 . S
C525 C526 1.373 . S
C525 C527 1.389 . S
C526 H499 0.950 . S
C526 C512 1.377 . S
C526 C525 1.373 . S
C527 C511 1.377 . S
C527 C525 1.389 . S
C527 C528 1.524 . S
C528 C527 1.524 . S
C528 C529 1.397 . S
C528 C533 1.363 . S
C529 H500 0.950 . S
C529 C528 1.397 . S
C529 C530 1.334 . S
C530 H501 0.950 . S
C530 C529 1.334 . S
C530 C531 1.287 . S
C531 C530 1.287 . S
C531 C532 1.524 . S
C531 H534 0.999 . S
C532 H502 0.950 . S
C532 C531 1.524 . S
C532 C533 1.415 . S
C533 H503 0.950 . S
C533 C528 1.363 . S
C533 C532 1.415 . S
H534 C531 0.999 . S
H535 C516 0.913 . S
H536 C554 0.951 . S
H537 C556 0.951 . S
H538 C558 0.950 . S
H539 C559 0.950 . S
H540 C561 0.950 . S
H541 C564 0.950 . S
H542 C565 0.950 . S
H543 C567 0.950 . S
H544 C568 0.950 . S
H545 C569 0.951 . S
H546 C571 0.951 . S
H547 C573 0.950 . S
H548 C574 0.950 . S
H549 C576 0.950 . S
H550 C579 0.950 . S
H551 C580 0.950 . S
H552 C582 0.950 . S
H553 C583 0.950 . S
C554 H536 0.951 . S
C554 C555 1.366 . S
C554 C556 1.388 . S
C555 C554 1.366 . S
C555 C559 1.385 . S
C556 H537 0.951 . S
C556 C554 1.388 . S
C556 C557 1.366 . S
C557 C556 1.366 . S
C557 C558 1.414 . S
C557 C560 1.499 . S
C558 H538 0.950 . S
C558 C557 1.414 . S
C558 C559 1.374 . S
C559 H539 0.950 . S
C559 C555 1.385 . S
C559 C558 1.374 . S
C560 C557 1.499 . S
C560 C561 1.373 . S
C560 C562 1.389 . S
C561 H540 0.950 . S
C561 C560 1.373 . S
C561 C577 1.377 . S
C562 C560 1.389 . S
C562 C563 1.524 . S
C562 C576 1.377 . S
C563 C562 1.524 . S
C563 C564 1.397 . S
C563 C568 1.363 . S
C564 H541 0.950 . S
C564 C563 1.397 . S
C564 C565 1.334 . S
C565 H542 0.950 . S
C565 C564 1.334 . S
C565 C566 1.287 . S
C566 C565 1.287 . S
C566 C567 1.524 . S
C566 H585 0.913 . S
C567 H543 0.950 . S
C567 C566 1.524 . S
C567 C568 1.415 . S
C568 H544 0.950 . S
C568 C563 1.363 . S
C568 C567 1.415 . S
C569 H545 0.951 . S
C569 C570 1.366 . S
C569 C571 1.388 . S
C570 C569 1.366 . S
C570 C574 1.385 . S
C571 H546 0.951 . S
C571 C569 1.388 . S
C571 C572 1.366 . S
C572 C571 1.366 . S
C572 C573 1.414 . S
C572 C575 1.499 . S
C573 H547 0.950 . S
C573 C572 1.414 . S
C573 C574 1.374 . S
C574 H548 0.950 . S
C574 C570 1.385 . S
C574 C573 1.374 . S
C575 C572 1.499 . S
C575 C576 1.373 . S
C575 C577 1.389 . S
C576 H549 0.950 . S
C576 C562 1.377 . S
C576 C575 1.373 . S
C577 C561 1.377 . S
C577 C575 1.389 . S
C577 C578 1.524 . S
C578 C577 1.524 . S
C578 C579 1.397 . S
C578 C583 1.363 . S
C579 H550 0.950 . S
C579 C578 1.397 . S
C579 C580 1.334 . S
C580 H551 0.950 . S
C580 C579 1.334 . S
C580 C581 1.287 . S
C581 C580 1.287 . S
C581 C582 1.524 . S
C581 H584 0.999 . S
C582 H552 0.950 . S
C582 C581 1.524 . S
C582 C583 1.415 . S
C583 H553 0.950 . S
C583 C578 1.363 . S
C583 C582 1.415 . S
H584 C581 0.999 . S
H585 C566 0.913 . S
H586 C604 0.951 . S
H587 C606 0.951 . S
H588 C608 0.950 . S
H589 C609 0.950 . S
H590 C611 0.950 . S
H591 C614 0.950 . S
H592 C615 0.950 . S
H593 C617 0.950 . S
H594 C618 0.950 . S
H595 C619 0.951 . S
H596 C621 0.951 . S
H597 C623 0.950 . S
H598 C624 0.950 . S
H599 C626 0.950 . S
H600 C629 0.950 . S
H601 C630 0.950 . S
H602 C632 0.950 . S
H603 C633 0.950 . S
C604 H586 0.951 . S
C604 C605 1.366 . S
C604 C606 1.388 . S
C605 C604 1.366 . S
C605 C609 1.385 . S
C606 H587 0.951 . S
C606 C604 1.388 . S
C606 C607 1.366 . S
C607 C606 1.366 . S
C607 C608 1.414 . S
C607 C610 1.499 . S
C608 H588 0.950 . S
C608 C607 1.414 . S
C608 C609 1.374 . S
C609 H589 0.950 . S
C609 C605 1.385 . S
C609 C608 1.374 . S
C610 C607 1.499 . S
C610 C611 1.373 . S
C610 C612 1.389 . S
C611 H590 0.950 . S
C611 C610 1.373 . S
C611 C627 1.377 . S
C612 C610 1.389 . S
C612 C613 1.524 . S
C612 C626 1.377 . S
C613 C612 1.524 . S
C613 C614 1.397 . S
C613 C618 1.363 . S
C614 H591 0.950 . S
C614 C613 1.397 . S
C614 C615 1.334 . S
C615 H592 0.950 . S
C615 C614 1.334 . S
C615 C616 1.287 . S
C616 C615 1.287 . S
C616 C617 1.524 . S
C616 H635 0.913 . S
C617 H593 0.950 . S
C617 C616 1.524 . S
C617 C618 1.415 . S
C618 H594 0.950 . S
C618 C613 1.363 . S
C618 C617 1.415 . S
C619 H595 0.951 . S
C619 C620 1.366 . S
C619 C621 1.388 . S
C620 C619 1.366 . S
C620 C624 1.385 . S
C621 H596 0.951 . S
C621 C619 1.388 . S
C621 C622 1.366 . S
C622 C621 1.366 . S
C622 C623 1.414 . S
C622 C625 1.499 . S
C623 H597 0.950 . S
C623 C622 1.414 . S
C623 C624 1.374 . S
C624 H598 0.950 . S
C624 C620 1.385 . S
C624 C623 1.374 . S
C625 C622 1.499 . S
C625 C626 1.373 . S
C625 C627 1.389 . S
C626 H599 0.950 . S
C626 C612 1.377 . S
C626 C625 1.373 . S
C627 C611 1.377 . S
C627 C625 1.389 . S
C627 C628 1.524 . S
C628 C627 1.524 . S
C628 C629 1.397 . S
C628 C633 1.363 . S
C629 H600 0.950 . S
C629 C628 1.397 . S
C629 C630 1.334 . S
C630 H601 0.950 . S
C630 C629 1.334 . S
C630 C631 1.287 . S
C631 C630 1.287 . S
C631 C632 1.524 . S
C631 H634 0.999 . S
C632 H602 0.950 . S
C632 C631 1.524 . S
C632 C633 1.415 . S
C633 H603 0.950 . S
C633 C628 1.363 . S
C633 C632 1.415 . S
H634 C631 0.999 . S
H635 C616 0.913 . S
H636 C654 0.951 . S
H637 C656 0.951 . S
H638 C658 0.950 . S
H639 C659 0.950 . S
H640 C661 0.950 . S
H641 C664 0.950 . S
H642 C665 0.950 . S
H643 C667 0.950 . S
H644 C668 0.950 . S
H645 C669 0.951 . S
H646 C671 0.951 . S
H647 C673 0.950 . S
H648 C674 0.950 . S
H649 C676 0.950 . S
H650 C679 0.950 . S
H651 C680 0.950 . S
H652 C682 0.950 . S
H653 C683 0.950 . S
C654 H636 0.951 . S
C654 C655 1.366 . S
C654 C656 1.388 . S
C655 C654 1.366 . S
C655 C659 1.385 . S
C656 H637 0.951 . S
C656 C654 1.388 . S
C656 C657 1.366 . S
C657 C656 1.366 . S
C657 C658 1.414 . S
C657 C660 1.499 . S
C658 H638 0.950 . S
C658 C657 1.414 . S
C658 C659 1.374 . S
C659 H639 0.950 . S
C659 C655 1.385 . S
C659 C658 1.374 . S
C660 C657 1.499 . S
C660 C661 1.373 . S
C660 C662 1.389 . S
C661 H640 0.950 . S
C661 C660 1.373 . S
C661 C677 1.377 . S
C662 C660 1.389 . S
C662 C663 1.524 . S
C662 C676 1.377 . S
C663 C662 1.524 . S
C663 C664 1.397 . S
C663 C668 1.363 . S
C664 H641 0.950 . S
C664 C663 1.397 . S
C664 C665 1.334 . S
C665 H642 0.950 . S
C665 C664 1.334 . S
C665 C666 1.287 . S
C666 C665 1.287 . S
C666 C667 1.524 . S
C666 H685 0.913 . S
C667 H643 0.950 . S
C667 C666 1.524 . S
C667 C668 1.415 . S
C668 H644 0.950 . S
C668 C663 1.363 . S
C668 C667 1.415 . S
C669 H645 0.951 . S
C669 C670 1.366 . S
C669 C671 1.388 . S
C670 C669 1.366 . S
C670 C674 1.385 . S
C671 H646 0.951 . S
C671 C669 1.388 . S
C671 C672 1.366 . S
C672 C671 1.366 . S
C672 C673 1.414 . S
C672 C675 1.499 . S
C673 H647 0.950 . S
C673 C672 1.414 . S
C673 C674 1.374 . S
C674 H648 0.950 . S
C674 C670 1.385 . S
C674 C673 1.374 . S
C675 C672 1.499 . S
C675 C676 1.373 . S
C675 C677 1.389 . S
C676 H649 0.950 . S
C676 C662 1.377 . S
C676 C675 1.373 . S
C677 C661 1.377 . S
C677 C675 1.389 . S
C677 C678 1.524 . S
C678 C677 1.524 . S
C678 C679 1.397 . S
C678 C683 1.363 . S
C679 H650 0.950 . S
C679 C678 1.397 . S
C679 C680 1.334 . S
C680 H651 0.950 . S
C680 C679 1.334 . S
C680 C681 1.287 . S
C681 C680 1.287 . S
C681 C682 1.524 . S
C681 H684 0.999 . S
C682 H652 0.950 . S
C682 C681 1.524 . S
C682 C683 1.415 . S
C683 H653 0.950 . S
C683 C678 1.363 . S
C683 C682 1.415 . S
H684 C681 0.999 . S
H685 C666 0.913 . S
H686 C704 0.951 . S
H687 C706 0.951 . S
H688 C708 0.950 . S
H689 C709 0.950 . S
H690 C711 0.950 . S
H691 C714 0.950 . S
H692 C715 0.950 . S
H693 C717 0.950 . S
H694 C718 0.950 . S
H695 C719 0.951 . S
H696 C721 0.951 . S
H697 C723 0.950 . S
H698 C724 0.950 . S
H699 C726 0.950 . S
H700 C729 0.950 . S
H701 C730 0.950 . S
H702 C732 0.950 . S
H703 C733 0.950 . S
C704 H686 0.951 . S
C704 C705 1.366 . S
C704 C706 1.388 . S
C705 C704 1.366 . S
C705 C709 1.385 . S
C706 H687 0.951 . S
C706 C704 1.388 . S
C706 C707 1.366 . S
C707 C706 1.366 . S
C707 C708 1.414 . S
C707 C710 1.499 . S
C708 H688 0.950 . S
C708 C707 1.414 . S
C708 C709 1.374 . S
C709 H689 0.950 . S
C709 C705 1.385 . S
C709 C708 1.374 . S
C710 C707 1.499 . S
C710 C711 1.373 . S
C710 C712 1.389 . S
C711 H690 0.950 . S
C711 C710 1.373 . S
C711 C727 1.377 . S
C712 C710 1.389 . S
C712 C713 1.524 . S
C712 C726 1.377 . S
C713 C712 1.524 . S
C713 C714 1.397 . S
C713 C718 1.363 . S
C714 H691 0.950 . S
C714 C713 1.397 . S
C714 C715 1.334 . S
C715 H692 0.950 . S
C715 C714 1.334 . S
C715 C716 1.287 . S
C716 C715 1.287 . S
C716 C717 1.524 . S
C716 H735 0.913 . S
C717 H693 0.950 . S
C717 C716 1.524 . S
C717 C718 1.415 . S
C718 H694 0.950 . S
C718 C713 1.363 . S
C718 C717 1.415 . S
C719 H695 0.951 . S
C719 C720 1.366 . S
C719 C721 1.388 . S
C720 C719 1.366 . S
C720 C724 1.385 . S
C721 H696 0.951 . S
C721 C719 1.388 . S
C721 C722 1.366 . S
C722 C721 1.366 . S
C722 C723 1.414 . S
C722 C725 1.499 . S
C723 H697 0.950 . S
C723 C722 1.414 . S
C723 C724 1.374 . S
C724 H698 0.950 . S
C724 C720 1.385 . S
C724 C723 1.374 . S
C725 C722 1.499 . S
C725 C726 1.373 . S
C725 C727 1.389 . S
C726 H699 0.950 . S
C726 C712 1.377 . S
C726 C725 1.373 . S
C727 C711 1.377 . S
C727 C725 1.389 . S
C727 C728 1.524 . S
C728 C727 1.524 . S
C728 C729 1.397 . S
C728 C733 1.363 . S
C729 H700 0.950 . S
C729 C728 1.397 . S
C729 C730 1.334 . S
C730 H701 0.950 . S
C730 C729 1.334 . S
C730 C731 1.287 . S
C731 C730 1.287 . S
C731 C732 1.524 . S
C731 H734 0.999 . S
C732 H702 0.950 . S
C732 C731 1.524 . S
C732 C733 1.415 . S
C733 H703 0.950 . S
C733 C728 1.363 . S
C733 C732 1.415 . S
H734 C731 0.999 . S
H735 C716 0.913 . S
H736 C754 0.951 . S
H737 C756 0.951 . S
H738 C758 0.950 . S
H739 C759 0.950 . S
H740 C761 0.950 . S
H741 C764 0.950 . S
H742 C765 0.950 . S
H743 C767 0.950 . S
H744 C768 0.950 . S
H745 C769 0.951 . S
H746 C771 0.951 . S
H747 C773 0.950 . S
H748 C774 0.950 . S
H749 C776 0.950 . S
H750 C779 0.950 . S
H751 C780 0.950 . S
H752 C782 0.950 . S
H753 C783 0.950 . S
C754 H736 0.951 . S
C754 C755 1.366 . S
C754 C756 1.388 . S
C755 C754 1.366 . S
C755 C759 1.385 . S
C756 H737 0.951 . S
C756 C754 1.388 . S
C756 C757 1.366 . S
C757 C756 1.366 . S
C757 C758 1.414 . S
C757 C760 1.499 . S
C758 H738 0.950 . S
C758 C757 1.414 . S
C758 C759 1.374 . S
C759 H739 0.950 . S
C759 C755 1.385 . S
C759 C758 1.374 . S
C760 C757 1.499 . S
C760 C761 1.373 . S
C760 C762 1.389 . S
C761 H740 0.950 . S
C761 C760 1.373 . S
C761 C777 1.377 . S
C762 C760 1.389 . S
C762 C763 1.524 . S
C762 C776 1.377 . S
C763 C762 1.524 . S
C763 C764 1.397 . S
C763 C768 1.363 . S
C764 H741 0.950 . S
C764 C763 1.397 . S
C764 C765 1.334 . S
C765 H742 0.950 . S
C765 C764 1.334 . S
C765 C766 1.287 . S
C766 C765 1.287 . S
C766 C767 1.524 . S
C766 H785 0.913 . S
C767 H743 0.950 . S
C767 C766 1.524 . S
C767 C768 1.415 . S
C768 H744 0.950 . S
C768 C763 1.363 . S
C768 C767 1.415 . S
C769 H745 0.951 . S
C769 C770 1.366 . S
C769 C771 1.388 . S
C770 C769 1.366 . S
C770 C774 1.385 . S
C771 H746 0.951 . S
C771 C769 1.388 . S
C771 C772 1.366 . S
C772 C771 1.366 . S
C772 C773 1.414 . S
C772 C775 1.499 . S
C773 H747 0.950 . S
C773 C772 1.414 . S
C773 C774 1.374 . S
C774 H748 0.950 . S
C774 C770 1.385 . S
C774 C773 1.374 . S
C775 C772 1.499 . S
C775 C776 1.373 . S
C775 C777 1.389 . S
C776 H749 0.950 . S
C776 C762 1.377 . S
C776 C775 1.373 . S
C777 C761 1.377 . S
C777 C775 1.389 . S
C777 C778 1.524 . S
C778 C777 1.524 . S
C778 C779 1.397 . S
C778 C783 1.363 . S
C779 H750 0.950 . S
C779 C778 1.397 . S
C779 C780 1.334 . S
C780 H751 0.950 . S
C780 C779 1.334 . S
C780 C781 1.287 . S
C781 C780 1.287 . S
C781 C782 1.524 . S
C781 H784 0.999 . S
C782 H752 0.950 . S
C782 C781 1.524 . S
C782 C783 1.415 . S
C783 H753 0.950 . S
C783 C778 1.363 . S
C783 C782 1.415 . S
H784 C781 0.999 . S
H785 C766 0.913 . S
H786 C804 0.951 . S
H787 C806 0.951 . S
H788 C808 0.950 . S
H789 C809 0.950 . S
H790 C811 0.950 . S
H791 C814 0.950 . S
H792 C815 0.950 . S
H793 C817 0.950 . S
H794 C818 0.950 . S
H795 C819 0.951 . S
H796 C821 0.951 . S
H797 C823 0.950 . S
H798 C824 0.950 . S
H799 C826 0.950 . S
H800 C829 0.950 . S
H801 C830 0.950 . S
H802 C832 0.950 . S
H803 C833 0.950 . S
C804 H786 0.951 . S
C804 C805 1.366 . S
C804 C806 1.388 . S
C805 C804 1.366 . S
C805 C809 1.385 . S
C806 H787 0.951 . S
C806 C804 1.388 . S
C806 C807 1.366 . S
C807 C806 1.366 . S
C807 C808 1.414 . S
C807 C810 1.499 . S
C808 H788 0.950 . S
C808 C807 1.414 . S
C808 C809 1.374 . S
C809 H789 0.950 . S
C809 C805 1.385 . S
C809 C808 1.374 . S
C810 C807 1.499 . S
C810 C811 1.373 . S
C810 C812 1.389 . S
C811 H790 0.950 . S
C811 C810 1.373 . S
C811 C827 1.377 . S
C812 C810 1.389 . S
C812 C813 1.524 . S
C812 C826 1.377 . S
C813 C812 1.524 . S
C813 C814 1.397 . S
C813 C818 1.363 . S
C814 H791 0.950 . S
C814 C813 1.397 . S
C814 C815 1.334 . S
C815 H792 0.950 . S
C815 C814 1.334 . S
C815 C816 1.287 . S
C816 C815 1.287 . S
C816 C817 1.524 . S
C816 H835 0.913 . S
C817 H793 0.950 . S
C817 C816 1.524 . S
C817 C818 1.415 . S
C818 H794 0.950 . S
C818 C813 1.363 . S
C818 C817 1.415 . S
C819 H795 0.951 . S
C819 C820 1.366 . S
C819 C821 1.388 . S
C820 C819 1.366 . S
C820 C824 1.385 . S
C821 H796 0.951 . S
C821 C819 1.388 . S
C821 C822 1.366 . S
C822 C821 1.366 . S
C822 C823 1.414 . S
C822 C825 1.499 . S
C823 H797 0.950 . S
C823 C822 1.414 . S
C823 C824 1.374 . S
C824 H798 0.950 . S
C824 C820 1.385 . S
C824 C823 1.374 . S
C825 C822 1.499 . S
C825 C826 1.373 . S
C825 C827 1.389 . S
C826 H799 0.950 . S
C826 C812 1.377 . S
C826 C825 1.373 . S
C827 C811 1.377 . S
C827 C825 1.389 . S
C827 C828 1.524 . S
C828 C827 1.524 . S
C828 C829 1.397 . S
C828 C833 1.363 . S
C829 H800 0.950 . S
C829 C828 1.397 . S
C829 C830 1.334 . S
C830 H801 0.950 . S
C830 C829 1.334 . S
C830 C831 1.287 . S
C831 C830 1.287 . S
C831 C832 1.524 . S
C831 H834 0.999 . S
C832 H802 0.950 . S
C832 C831 1.524 . S
C832 C833 1.415 . S
C833 H803 0.950 . S
C833 C828 1.363 . S
C833 C832 1.415 . S
H834 C831 0.999 . S
H835 C816 0.913 . S
H836 C854 0.951 . S
H837 C856 0.951 . S
H838 C858 0.950 . S
H839 C859 0.950 . S
H840 C861 0.950 . S
H841 C864 0.950 . S
H842 C865 0.950 . S
H843 C867 0.950 . S
H844 C868 0.950 . S
H845 C869 0.951 . S
H846 C871 0.951 . S
H847 C873 0.950 . S
H848 C874 0.950 . S
H849 C876 0.950 . S
H850 C879 0.950 . S
H851 C880 0.950 . S
H852 C882 0.950 . S
H853 C883 0.950 . S
C854 H836 0.951 . S
C854 C855 1.366 . S
C854 C856 1.388 . S
C855 C854 1.366 . S
C855 C859 1.385 . S
C856 H837 0.951 . S
C856 C854 1.388 . S
C856 C857 1.366 . S
C857 C856 1.366 . S
C857 C858 1.414 . S
C857 C860 1.499 . S
C858 H838 0.950 . S
C858 C857 1.414 . S
C858 C859 1.374 . S
C859 H839 0.950 . S
C859 C855 1.385 . S
C859 C858 1.374 . S
C860 C857 1.499 . S
C860 C861 1.373 . S
C860 C862 1.389 . S
C861 H840 0.950 . S
C861 C860 1.373 . S
C861 C877 1.377 . S
C862 C860 1.389 . S
C862 C863 1.524 . S
C862 C876 1.377 . S
C863 C862 1.524 . S
C863 C864 1.397 . S
C863 C868 1.363 . S
C864 H841 0.950 . S
C864 C863 1.397 . S
C864 C865 1.334 . S
C865 H842 0.950 . S
C865 C864 1.334 . S
C865 C866 1.287 . S
C866 C865 1.287 . S
C866 C867 1.524 . S
C866 H885 0.913 . S
C867 H843 0.950 . S
C867 C866 1.524 . S
C867 C868 1.415 . S
C868 H844 0.950 . S
C868 C863 1.363 . S
C868 C867 1.415 . S
C869 H845 0.951 . S
C869 C870 1.366 . S
C869 C871 1.388 . S
C870 C869 1.366 . S
C870 C874 1.385 . S
C871 H846 0.951 . S
C871 C869 1.388 . S
C871 C872 1.366 . S
C872 C871 1.366 . S
C872 C873 1.414 . S
C872 C875 1.499 . S
C873 H847 0.950 . S
C873 C872 1.414 . S
C873 C874 1.374 . S
C874 H848 0.950 . S
C874 C870 1.385 . S
C874 C873 1.374 . S
C875 C872 1.499 . S
C875 C876 1.373 . S
C875 C877 1.389 . S
C876 H849 0.950 . S
C876 C862 1.377 . S
C876 C875 1.373 . S
C877 C861 1.377 . S
C877 C875 1.389 . S
C877 C878 1.524 . S
C878 C877 1.524 . S
C878 C879 1.397 . S
C878 C883 1.363 . S
C879 H850 0.950 . S
C879 C878 1.397 . S
C879 C880 1.334 . S
C880 H851 0.950 . S
C880 C879 1.334 . S
C880 C881 1.287 . S
C881 C880 1.287 . S
C881 C882 1.524 . S
C881 H884 0.999 . S
C882 H852 0.950 . S
C882 C881 1.524 . S
C882 C883 1.415 . S
C883 H853 0.950 . S
C883 C878 1.363 . S
C883 C882 1.415 . S
H884 C881 0.999 . S
H885 C866 0.913 . S
H886 C904 0.951 . S
H887 C906 0.951 . S
H888 C908 0.950 . S
H889 C909 0.950 . S
H890 C911 0.950 . S
H891 C914 0.950 . S
H892 C915 0.950 . S
H893 C917 0.950 . S
H894 C918 0.950 . S
H895 C919 0.951 . S
H896 C921 0.951 . S
H897 C923 0.950 . S
H898 C924 0.950 . S
H899 C926 0.950 . S
H900 C929 0.950 . S
H901 C930 0.950 . S
H902 C932 0.950 . S
H903 C933 0.950 . S
C904 H886 0.951 . S
C904 C905 1.366 . S
C904 C906 1.388 . S
C905 C904 1.366 . S
C905 C909 1.385 . S
C906 H887 0.951 . S
C906 C904 1.388 . S
C906 C907 1.366 . S
C907 C906 1.366 . S
C907 C908 1.414 . S
C907 C910 1.499 . S
C908 H888 0.950 . S
C908 C907 1.414 . S
C908 C909 1.374 . S
C909 H889 0.950 . S
C909 C905 1.385 . S
C909 C908 1.374 . S
C910 C907 1.499 . S
C910 C911 1.373 . S
C910 C912 1.389 . S
C911 H890 0.950 . S
C911 C910 1.373 . S
C911 C927 1.377 . S
C912 C910 1.389 . S
C912 C913 1.524 . S
C912 C926 1.377 . S
C913 C912 1.524 . S
C913 C914 1.397 . S
C913 C918 1.363 . S
C914 H891 0.950 . S
C914 C913 1.397 . S
C914 C915 1.334 . S
C915 H892 0.950 . S
C915 C914 1.334 . S
C915 C916 1.287 . S
C916 C915 1.287 . S
C916 C917 1.524 . S
C916 H935 0.913 . S
C917 H893 0.950 . S
C917 C916 1.524 . S
C917 C918 1.415 . S
C918 H894 0.950 . S
C918 C913 1.363 . S
C918 C917 1.415 . S
C919 H895 0.951 . S
C919 C920 1.366 . S
C919 C921 1.388 . S
C920 C919 1.366 . S
C920 C924 1.385 . S
C921 H896 0.951 . S
C921 C919 1.388 . S
C921 C922 1.366 . S
C922 C921 1.366 . S
C922 C923 1.414 . S
C922 C925 1.499 . S
C923 H897 0.950 . S
C923 C922 1.414 . S
C923 C924 1.374 . S
C924 H898 0.950 . S
C924 C920 1.385 . S
C924 C923 1.374 . S
C925 C922 1.499 . S
C925 C926 1.373 . S
C925 C927 1.389 . S
C926 H899 0.950 . S
C926 C912 1.377 . S
C926 C925 1.373 . S
C927 C911 1.377 . S
C927 C925 1.389 . S
C927 C928 1.524 . S
C928 C927 1.524 . S
C928 C929 1.397 . S
C928 C933 1.363 . S
C929 H900 0.950 . S
C929 C928 1.397 . S
C929 C930 1.334 . S
C930 H901 0.950 . S
C930 C929 1.334 . S
C930 C931 1.287 . S
C931 C930 1.287 . S
C931 C932 1.524 . S
C931 H934 0.999 . S
C932 H902 0.950 . S
C932 C931 1.524 . S
C932 C933 1.415 . S
C933 H903 0.950 . S
C933 C928 1.363 . S
C933 C932 1.415 . S
H934 C931 0.999 . S
H935 C916 0.913 . S
H936 C954 0.951 . S
H937 C956 0.951 . S
H938 C958 0.950 . S
H939 C959 0.950 . S
H940 C961 0.950 . S
H941 C964 0.950 . S
H942 C965 0.950 . S
H943 C967 0.950 . S
H944 C968 0.950 . S
H945 C969 0.951 . S
H946 C971 0.951 . S
H947 C973 0.950 . S
H948 C974 0.950 . S
H949 C976 0.950 . S
H950 C979 0.950 . S
H951 C980 0.950 . S
H952 C982 0.950 . S
H953 C983 0.950 . S
C954 H936 0.951 . S
C954 C955 1.366 . S
C954 C956 1.388 . S
C955 C954 1.366 . S
C955 C959 1.385 . S
C956 H937 0.951 . S
C956 C954 1.388 . S
C956 C957 1.366 . S
C957 C956 1.366 . S
C957 C958 1.414 . S
C957 C960 1.499 . S
C958 H938 0.950 . S
C958 C957 1.414 . S
C958 C959 1.374 . S
C959 H939 0.950 . S
C959 C955 1.385 . S
C959 C958 1.374 . S
C960 C957 1.499 . S
C960 C961 1.373 1_565 S
C960 C962 1.389 . S
C961 H940 0.950 . S
C961 C960 1.373 1_545 S
C961 C977 1.377 . S
C962 C960 1.389 . S
C962 C963 1.524 . S
C962 C976 1.377 . S
C963 C962 1.524 . S
C963 C964 1.397 . S
C963 C968 1.363 . S
C964 H941 0.950 . S
C964 C963 1.397 . S
C964 C965 1.334 . S
C965 H942 0.950 . S
C965 C964 1.334 . S
C965 C966 1.287 . S
C966 C965 1.287 . S
C966 C967 1.524 . S
C966 H985 0.913 . S
C967 H943 0.950 . S
C967 C966 1.524 . S
C967 C968 1.415 . S
C968 H944 0.950 . S
C968 C963 1.363 . S
C968 C967 1.415 . S
C969 H945 0.951 . S
C969 C970 1.366 . S
C969 C971 1.388 . S
C970 C969 1.366 . S
C970 C974 1.385 . S
C971 H946 0.951 . S
C971 C969 1.388 . S
C971 C972 1.366 . S
C972 C971 1.366 . S
C972 C973 1.414 . S
C972 C975 1.499 . S
C973 H947 0.950 . S
C973 C972 1.414 . S
C973 C974 1.374 . S
C974 H948 0.950 . S
C974 C970 1.385 . S
C974 C973 1.374 . S
C975 C972 1.499 . S
C975 C976 1.373 1_545 S
C975 C977 1.389 . S
C976 H949 0.950 . S
C976 C962 1.377 . S
C976 C975 1.373 1_565 S
C977 C961 1.377 . S
C977 C975 1.389 . S
C977 C978 1.524 . S
C978 C977 1.524 . S
C978 C979 1.397 . S
C978 C983 1.363 . S
C979 H950 0.950 . S
C979 C978 1.397 . S
C979 C980 1.334 . S
C980 H951 0.950 . S
C980 C979 1.334 . S
C980 C981 1.287 . S
C981 C980 1.287 . S
C981 C982 1.524 . S
C981 H984 0.999 . S
C982 H952 0.950 . S
C982 C981 1.524 . S
C982 C983 1.415 . S
C983 H953 0.950 . S
C983 C978 1.363 . S
C983 C982 1.415 . S
H984 C981 0.999 . S
H985 C966 0.913 . S
H986 C1004 0.951 . S
H987 C1006 0.951 . S
H988 C1008 0.950 . S
H989 C1009 0.950 . S
H990 C1011 0.950 1_455 S
H991 C1014 0.950 . S
H992 C1015 0.950 . S
H993 C1017 0.950 . S
H994 C1018 0.950 . S
H995 C1019 0.951 . S
H996 C1021 0.951 . S
H997 C1023 0.950 . S
H998 C1024 0.950 . S
H999 C1026 0.950 1_655 S
H1000 C1029 0.950 . S
H1001 C1030 0.950 . S
H1002 C1032 0.950 . S
H1003 C1033 0.950 . S
C1004 H986 0.951 . S
C1004 C1005 1.366 . S
C1004 C1006 1.388 . S
C1005 C1004 1.366 . S
C1005 C1009 1.385 . S
C1006 H987 0.951 . S
C1006 C1004 1.388 . S
C1006 C1007 1.366 . S
C1007 C1006 1.366 . S
C1007 C1008 1.414 . S
C1007 C1010 1.499 . S
C1008 H988 0.950 . S
C1008 C1007 1.414 . S
C1008 C1009 1.374 . S
C1009 H989 0.950 . S
C1009 C1005 1.385 . S
C1009 C1008 1.374 . S
C1010 C1007 1.499 . S
C1010 C1011 1.373 . S
C1010 C1012 1.389 . S
C1011 H990 0.950 1_655 S
C1011 C1010 1.373 . S
C1011 C1027 1.376 1_655 S
C1012 C1010 1.389 . S
C1012 C1013 1.524 . S
C1012 C1026 1.376 1_655 S
C1013 C1012 1.524 . S
C1013 C1014 1.397 . S
C1013 C1018 1.363 . S
C1014 H991 0.950 . S
C1014 C1013 1.397 . S
C1014 C1015 1.334 . S
C1015 H992 0.950 . S
C1015 C1014 1.334 . S
C1015 C1016 1.287 . S
C1016 C1015 1.287 . S
C1016 C1017 1.524 . S
C1016 H1035 0.913 . S
C1017 H993 0.950 . S
C1017 C1016 1.524 . S
C1017 C1018 1.415 . S
C1018 H994 0.950 . S
C1018 C1013 1.363 . S
C1018 C1017 1.415 . S
C1019 H995 0.951 . S
C1019 C1020 1.366 . S
C1019 C1021 1.388 . S
C1020 C1019 1.366 . S
C1020 C1024 1.385 . S
C1021 H996 0.951 . S
C1021 C1019 1.388 . S
C1021 C1022 1.366 . S
C1022 C1021 1.366 . S
C1022 C1023 1.414 . S
C1022 C1025 1.499 . S
C1023 H997 0.950 . S
C1023 C1022 1.414 . S
C1023 C1024 1.374 . S
C1024 H998 0.950 . S
C1024 C1020 1.385 . S
C1024 C1023 1.374 . S
C1025 C1022 1.499 . S
C1025 C1026 1.373 . S
C1025 C1027 1.389 . S
C1026 H999 0.950 1_455 S
C1026 C1012 1.376 1_455 S
C1026 C1025 1.373 . S
C1027 C1011 1.376 1_455 S
C1027 C1025 1.389 . S
C1027 C1028 1.524 . S
C1028 C1027 1.524 . S
C1028 C1029 1.397 . S
C1028 C1033 1.363 . S
C1029 H1000 0.950 . S
C1029 C1028 1.397 . S
C1029 C1030 1.334 . S
C1030 H1001 0.950 . S
C1030 C1029 1.334 . S
C1030 C1031 1.287 . S
C1031 C1030 1.287 . S
C1031 C1032 1.524 . S
C1031 H1034 0.999 . S
C1032 H1002 0.950 . S
C1032 C1031 1.524 . S
C1032 C1033 1.415 . S
C1033 H1003 0.950 . S
C1033 C1028 1.363 . S
C1033 C1032 1.415 . S
H1034 C1031 0.999 . S
H1035 C1016 0.913 . S
H1036 C1054 0.951 . S
H1037 C1056 0.951 . S
H1038 C1058 0.950 . S
H1039 C1059 0.950 . S
H1040 C1061 0.950 . S
H1041 C1064 0.950 . S
H1042 C1065 0.950 . S
H1043 C1067 0.950 . S
H1044 C1068 0.950 . S
H1045 C1069 0.951 . S
H1046 C1071 0.951 . S
H1047 C1073 0.950 . S
H1048 C1074 0.950 . S
H1049 C1076 0.950 . S
H1050 C1079 0.950 . S
H1051 C1080 0.950 . S
H1052 C1082 0.950 . S
H1053 C1083 0.950 . S
C1054 H1036 0.951 . S
C1054 C1055 1.366 . S
C1054 C1056 1.388 . S
C1055 C1054 1.366 . S
C1055 C1059 1.385 . S
C1056 H1037 0.951 . S
C1056 C1054 1.388 . S
C1056 C1057 1.366 . S
C1057 C1056 1.366 . S
C1057 C1058 1.414 . S
C1057 C1060 1.499 . S
C1058 H1038 0.950 . S
C1058 C1057 1.414 . S
C1058 C1059 1.374 . S
C1059 H1039 0.950 . S
C1059 C1055 1.385 . S
C1059 C1058 1.374 . S
C1060 C1057 1.499 . S
C1060 C1061 1.373 . S
C1060 C1062 1.389 . S
C1061 H1040 0.950 . S
C1061 C1060 1.373 . S
C1061 C1077 1.377 1_545 S
C1062 C1060 1.389 . S
C1062 C1063 1.524 . S
C1062 C1076 1.377 1_545 S
C1063 C1062 1.524 . S
C1063 C1064 1.397 . S
C1063 C1068 1.363 . S
C1064 H1041 0.950 . S
C1064 C1063 1.397 . S
C1064 C1065 1.334 . S
C1065 H1042 0.950 . S
C1065 C1064 1.334 . S
C1065 C1066 1.287 . S
C1066 C1065 1.287 . S
C1066 C1067 1.524 . S
C1066 H1085 0.913 . S
C1067 H1043 0.950 . S
C1067 C1066 1.524 . S
C1067 C1068 1.415 . S
C1068 H1044 0.950 . S
C1068 C1063 1.363 . S
C1068 C1067 1.415 . S
C1069 H1045 0.951 . S
C1069 C1070 1.366 . S
C1069 C1071 1.388 . S
C1070 C1069 1.366 . S
C1070 C1074 1.385 . S
C1071 H1046 0.951 . S
C1071 C1069 1.388 . S
C1071 C1072 1.366 . S
C1072 C1071 1.366 . S
C1072 C1073 1.414 . S
C1072 C1075 1.499 . S
C1073 H1047 0.950 . S
C1073 C1072 1.414 . S
C1073 C1074 1.374 . S
C1074 H1048 0.950 . S
C1074 C1070 1.385 . S
C1074 C1073 1.374 . S
C1075 C1072 1.499 . S
C1075 C1076 1.373 . S
C1075 C1077 1.389 . S
C1076 H1049 0.950 . S
C1076 C1062 1.377 1_565 S
C1076 C1075 1.373 . S
C1077 C1061 1.377 1_565 S
C1077 C1075 1.389 . S
C1077 C1078 1.524 . S
C1078 C1077 1.524 . S
C1078 C1079 1.397 . S
C1078 C1083 1.363 . S
C1079 H1050 0.950 . S
C1079 C1078 1.397 . S
C1079 C1080 1.334 . S
C1080 H1051 0.950 . S
C1080 C1079 1.334 . S
C1080 C1081 1.287 . S
C1081 C1080 1.287 . S
C1081 C1082 1.524 . S
C1081 H1084 0.999 . S
C1082 H1052 0.950 . S
C1082 C1081 1.524 . S
C1082 C1083 1.415 . S
C1083 H1053 0.950 . S
C1083 C1078 1.363 . S
C1083 C1082 1.415 . S
H1084 C1081 0.999 . S
H1085 C1066 0.913 . S
H1086 C1104 0.951 . S
H1087 C1106 0.951 . S
H1088 C1108 0.950 . S
H1089 C1109 0.950 . S
H1090 C1111 0.950 . S
H1091 C1114 0.950 . S
H1092 C1115 0.950 . S
H1093 C1117 0.950 . S
H1094 C1118 0.950 . S
H1095 C1119 0.951 . S
H1096 C1121 0.951 . S
H1097 C1123 0.950 . S
H1098 C1124 0.950 . S
H1099 C1126 0.950 . S
H1100 C1129 0.950 . S
H1101 C1130 0.950 . S
H1102 C1132 0.950 . S
H1103 C1133 0.950 . S
C1104 H1086 0.951 . S
C1104 C1105 1.366 . S
C1104 C1106 1.388 . S
C1105 C1104 1.366 . S
C1105 C1109 1.385 . S
C1106 H1087 0.951 . S
C1106 C1104 1.388 . S
C1106 C1107 1.366 . S
C1107 C1106 1.366 . S
C1107 C1108 1.414 . S
C1107 C1110 1.499 . S
C1108 H1088 0.950 . S
C1108 C1107 1.414 . S
C1108 C1109 1.374 . S
C1109 H1089 0.950 . S
C1109 C1105 1.385 . S
C1109 C1108 1.374 . S
C1110 C1107 1.499 . S
C1110 C1111 1.373 . S
C1110 C1112 1.389 . S
C1111 H1090 0.950 . S
C1111 C1110 1.373 . S
C1111 C1127 1.377 1_455 S
C1112 C1110 1.389 . S
C1112 C1113 1.524 . S
C1112 C1126 1.377 1_455 S
C1113 C1112 1.524 . S
C1113 C1114 1.397 . S
C1113 C1118 1.363 . S
C1114 H1091 0.950 . S
C1114 C1113 1.397 . S
C1114 C1115 1.334 . S
C1115 H1092 0.950 . S
C1115 C1114 1.334 . S
C1115 C1116 1.287 . S
C1116 C1115 1.287 . S
C1116 C1117 1.524 . S
C1116 H1135 0.913 . S
C1117 H1093 0.950 . S
C1117 C1116 1.524 . S
C1117 C1118 1.415 . S
C1118 H1094 0.950 . S
C1118 C1113 1.363 . S
C1118 C1117 1.415 . S
C1119 H1095 0.951 . S
C1119 C1120 1.366 . S
C1119 C1121 1.388 . S
C1120 C1119 1.366 . S
C1120 C1124 1.385 . S
C1121 H1096 0.951 . S
C1121 C1119 1.388 . S
C1121 C1122 1.366 . S
C1122 C1121 1.366 . S
C1122 C1123 1.414 . S
C1122 C1125 1.499 . S
C1123 H1097 0.950 . S
C1123 C1122 1.414 . S
C1123 C1124 1.374 . S
C1124 H1098 0.950 . S
C1124 C1120 1.385 . S
C1124 C1123 1.374 . S
C1125 C1122 1.499 . S
C1125 C1126 1.373 . S
C1125 C1127 1.389 . S
C1126 H1099 0.950 . S
C1126 C1112 1.377 1_655 S
C1126 C1125 1.373 . S
C1127 C1111 1.377 1_655 S
C1127 C1125 1.389 . S
C1127 C1128 1.524 . S
C1128 C1127 1.524 . S
C1128 C1129 1.397 . S
C1128 C1133 1.363 . S
C1129 H1100 0.950 . S
C1129 C1128 1.397 . S
C1129 C1130 1.334 . S
C1130 H1101 0.950 . S
C1130 C1129 1.334 . S
C1130 C1131 1.287 . S
C1131 C1130 1.287 . S
C1131 C1132 1.524 . S
C1131 H1134 0.999 . S
C1132 H1102 0.950 . S
C1132 C1131 1.524 . S
C1132 C1133 1.415 . S
C1133 H1103 0.950 . S
C1133 C1128 1.363 . S
C1133 C1132 1.415 . S
H1134 C1131 0.999 . S
H1135 C1116 0.913 . S
H1136 C1154 0.951 . S
H1137 C1156 0.951 . S
H1138 C1158 0.950 . S
H1139 C1159 0.950 . S
H1140 C1161 0.950 . S
H1141 C1164 0.950 . S
H1142 C1165 0.963 . S
H1143 C1167 0.950 . S
H1144 C1168 0.950 . S
H1145 C1169 0.951 . S
H1146 C1171 0.951 . S
H1147 C1173 0.950 . S
H1148 C1174 0.950 . S
H1149 C1176 0.950 . S
H1150 C1179 0.950 . S
H1151 C1180 0.963 . S
H1152 C1182 0.950 . S
H1153 C1183 0.950 . S
C1154 H1136 0.951 . S
C1154 C1155 1.366 . S
C1154 C1156 1.388 . S
C1155 C1154 1.366 . S
C1155 C1159 1.385 . S
C1156 H1137 0.951 . S
C1156 C1154 1.388 . S
C1156 C1157 1.366 . S
C1157 C1156 1.366 . S
C1157 C1158 1.414 . S
C1157 C1160 1.499 . S
C1158 H1138 0.950 . S
C1158 C1157 1.414 . S
C1158 C1159 1.374 . S
C1159 H1139 0.950 . S
C1159 C1155 1.385 . S
C1159 C1158 1.374 . S
C1160 C1157 1.499 . S
C1160 C1161 1.373 . S
C1160 C1162 1.389 1_565 S
C1161 H1140 0.950 . S
C1161 C1160 1.373 . S
C1161 C1177 1.377 . S
C1162 C1160 1.389 1_545 S
C1162 C1163 1.524 . S
C1162 C1176 1.377 . S
C1163 C1162 1.524 . S
C1163 C1164 1.397 1_545 S
C1163 C1168 1.363 . S
C1164 H1141 0.950 . S
C1164 C1163 1.397 1_565 S
C1164 C1165 1.338 . S
C1165 H1142 0.963 . S
C1165 C1164 1.338 . S
C1165 C1166 1.271 1_565 S
C1166 C1165 1.271 1_545 S
C1166 C1167 1.524 . S
C1166 H1185 0.913 . S
C1167 H1143 0.950 . S
C1167 C1166 1.524 . S
C1167 C1168 1.415 . S
C1168 H1144 0.950 . S
C1168 C1163 1.363 . S
C1168 C1167 1.415 . S
C1169 H1145 0.951 . S
C1169 C1170 1.366 . S
C1169 C1171 1.388 . S
C1170 C1169 1.366 . S
C1170 C1174 1.385 . S
C1171 H1146 0.951 . S
C1171 C1169 1.388 . S
C1171 C1172 1.366 . S
C1172 C1171 1.366 . S
C1172 C1173 1.414 . S
C1172 C1175 1.499 . S
C1173 H1147 0.950 . S
C1173 C1172 1.414 . S
C1173 C1174 1.374 . S
C1174 H1148 0.950 . S
C1174 C1170 1.385 . S
C1174 C1173 1.374 . S
C1175 C1172 1.499 . S
C1175 C1176 1.373 . S
C1175 C1177 1.389 1_545 S
C1176 H1149 0.950 . S
C1176 C1162 1.377 . S
C1176 C1175 1.373 . S
C1177 C1161 1.377 . S
C1177 C1175 1.389 1_565 S
C1177 C1178 1.524 . S
C1178 C1177 1.524 . S
C1178 C1179 1.397 1_565 S
C1178 C1183 1.363 . S
C1179 H1150 0.950 . S
C1179 C1178 1.397 1_545 S
C1179 C1180 1.338 . S
C1180 H1151 0.963 . S
C1180 C1179 1.338 . S
C1180 C1181 1.271 1_545 S
C1181 C1180 1.271 1_565 S
C1181 C1182 1.524 . S
C1181 H1184 0.999 . S
C1182 H1152 0.950 . S
C1182 C1181 1.524 . S
C1182 C1183 1.415 . S
C1183 H1153 0.950 . S
C1183 C1178 1.363 . S
C1183 C1182 1.415 . S
H1184 C1181 0.999 . S
H1185 C1166 0.913 . S
H1186 C1204 0.951 . S
H1187 C1206 0.951 . S
H1188 C1208 0.950 . S
H1189 C1209 0.950 . S
H1190 C1211 0.952 . S
H1191 C1214 0.950 . S
H1192 C1215 0.950 . S
H1193 C1217 0.950 . S
H1194 C1218 0.950 . S
H1195 C1219 0.951 . S
H1196 C1221 0.951 . S
H1197 C1223 0.950 . S
H1198 C1224 0.950 . S
H1199 C1226 0.952 . S
H1200 C1229 0.950 . S
H1201 C1230 0.950 . S
H1202 C1232 0.950 . S
H1203 C1233 0.950 . S
C1204 H1186 0.951 . S
C1204 C1205 1.366 . S
C1204 C1206 1.388 . S
C1205 C1204 1.366 . S
C1205 C1209 1.385 . S
C1206 H1187 0.951 . S
C1206 C1204 1.388 . S
C1206 C1207 1.366 . S
C1207 C1206 1.366 . S
C1207 C1208 1.414 . S
C1207 C1210 1.499 . S
C1208 H1188 0.950 . S
C1208 C1207 1.414 . S
C1208 C1209 1.374 . S
C1209 H1189 0.950 . S
C1209 C1205 1.385 . S
C1209 C1208 1.374 . S
C1210 C1207 1.499 . S
C1210 C1211 1.408 . S
C1210 C1212 1.389 . S
C1211 H1190 0.952 . S
C1211 C1210 1.408 . S
C1211 C1227 1.341 1_655 S
C1212 C1210 1.389 . S
C1212 C1213 1.524 . S
C1212 C1226 1.341 1_655 S
C1213 C1212 1.524 . S
C1213 C1214 1.397 . S
C1213 C1218 1.363 . S
C1214 H1191 0.950 . S
C1214 C1213 1.397 . S
C1214 C1215 1.334 . S
C1215 H1192 0.950 . S
C1215 C1214 1.334 . S
C1215 C1216 1.287 . S
C1216 C1215 1.287 . S
C1216 C1217 1.524 . S
C1216 H1235 0.913 . S
C1217 H1193 0.950 . S
C1217 C1216 1.524 . S
C1217 C1218 1.415 . S
C1218 H1194 0.950 . S
C1218 C1213 1.363 . S
C1218 C1217 1.415 . S
C1219 H1195 0.951 . S
C1219 C1220 1.366 . S
C1219 C1221 1.388 . S
C1220 C1219 1.366 . S
C1220 C1224 1.385 . S
C1221 H1196 0.951 . S
C1221 C1219 1.388 . S
C1221 C1222 1.366 . S
C1222 C1221 1.366 . S
C1222 C1223 1.414 . S
C1222 C1225 1.499 . S
C1223 H1197 0.950 . S
C1223 C1222 1.414 . S
C1223 C1224 1.374 . S
C1224 H1198 0.950 . S
C1224 C1220 1.385 . S
C1224 C1223 1.374 . S
C1225 C1222 1.499 . S
C1225 C1226 1.408 . S
C1225 C1227 1.389 . S
C1226 H1199 0.952 . S
C1226 C1212 1.341 1_455 S
C1226 C1225 1.408 . S
C1227 C1211 1.341 1_455 S
C1227 C1225 1.389 . S
C1227 C1228 1.524 . S
C1228 C1227 1.524 . S
C1228 C1229 1.397 . S
C1228 C1233 1.363 . S
C1229 H1200 0.950 . S
C1229 C1228 1.397 . S
C1229 C1230 1.334 . S
C1230 H1201 0.950 . S
C1230 C1229 1.334 . S
C1230 C1231 1.287 . S
C1231 C1230 1.287 . S
C1231 C1232 1.524 . S
C1231 H1234 0.999 . S
C1232 H1202 0.950 . S
C1232 C1231 1.524 . S
C1232 C1233 1.415 . S
C1233 H1203 0.950 . S
C1233 C1228 1.363 . S
C1233 C1232 1.415 . S
H1234 C1231 0.999 . S
H1235 C1216 0.913 . S
H1236 C1254 0.951 . S
H1237 C1256 0.951 . S
H1238 C1258 0.950 . S
H1239 C1259 0.950 . S
H1240 C1261 0.950 . S
H1241 C1264 0.950 . S
H1242 C1265 0.950 . S
H1243 C1267 0.950 . S
H1244 C1268 0.950 . S
H1245 C1269 0.951 . S
H1246 C1271 0.951 . S
H1247 C1273 0.950 . S
H1248 C1274 0.950 . S
H1249 C1276 0.950 . S
H1250 C1279 0.950 . S
H1251 C1280 0.950 . S
H1252 C1282 0.950 . S
H1253 C1283 0.950 . S
C1254 H1236 0.951 . S
C1254 C1255 1.366 . S
C1254 C1256 1.388 . S
C1255 C1254 1.366 . S
C1255 C1259 1.385 . S
C1256 H1237 0.951 . S
C1256 C1254 1.388 . S
C1256 C1257 1.366 . S
C1257 C1256 1.366 . S
C1257 C1258 1.414 . S
C1257 C1260 1.499 . S
C1258 H1238 0.950 . S
C1258 C1257 1.414 . S
C1258 C1259 1.374 . S
C1259 H1239 0.950 . S
C1259 C1255 1.385 . S
C1259 C1258 1.374 . S
C1260 C1257 1.499 . S
C1260 C1261 1.373 . S
C1260 C1262 1.389 . S
C1261 H1240 0.950 . S
C1261 C1260 1.373 . S
C1261 C1277 1.377 1_565 S
C1262 C1260 1.389 . S
C1262 C1263 1.524 . S
C1262 C1276 1.377 1_565 S
C1263 C1262 1.524 . S
C1263 C1264 1.397 . S
C1263 C1268 1.363 . S
C1264 H1241 0.950 . S
C1264 C1263 1.397 . S
C1264 C1265 1.334 . S
C1265 H1242 0.950 . S
C1265 C1264 1.334 . S
C1265 C1266 1.287 . S
C1266 C1265 1.287 . S
C1266 C1267 1.524 . S
C1266 H1285 0.913 . S
C1267 H1243 0.950 . S
C1267 C1266 1.524 . S
C1267 C1268 1.415 . S
C1268 H1244 0.950 . S
C1268 C1263 1.363 . S
C1268 C1267 1.415 . S
C1269 H1245 0.951 . S
C1269 C1270 1.366 . S
C1269 C1271 1.388 . S
C1270 C1269 1.366 . S
C1270 C1274 1.385 . S
C1271 H1246 0.951 . S
C1271 C1269 1.388 . S
C1271 C1272 1.366 . S
C1272 C1271 1.366 . S
C1272 C1273 1.414 . S
C1272 C1275 1.499 . S
C1273 H1247 0.950 . S
C1273 C1272 1.414 . S
C1273 C1274 1.374 . S
C1274 H1248 0.950 . S
C1274 C1270 1.385 . S
C1274 C1273 1.374 . S
C1275 C1272 1.499 . S
C1275 C1276 1.373 . S
C1275 C1277 1.389 . S
C1276 H1249 0.950 . S
C1276 C1262 1.377 1_545 S
C1276 C1275 1.373 . S
C1277 C1261 1.377 1_545 S
C1277 C1275 1.389 . S
C1277 C1278 1.524 . S
C1278 C1277 1.524 . S
C1278 C1279 1.397 . S
C1278 C1283 1.363 . S
C1279 H1250 0.950 . S
C1279 C1278 1.397 . S
C1279 C1280 1.334 . S
C1280 H1251 0.950 . S
C1280 C1279 1.334 . S
C1280 C1281 1.287 . S
C1281 C1280 1.287 . S
C1281 C1282 1.524 . S
C1281 H1284 0.999 . S
C1282 H1252 0.950 . S
C1282 C1281 1.524 . S
C1282 C1283 1.415 . S
C1283 H1253 0.950 . S
C1283 C1278 1.363 . S
C1283 C1282 1.415 . S
H1284 C1281 0.999 . S
H1285 C1266 0.913 . S
H1286 C1304 0.951 . S
H1287 C1306 0.951 . S
H1288 C1308 0.950 . S
H1289 C1309 0.950 . S
H1290 C1311 0.953 . S
H1291 C1314 0.950 . S
H1292 C1315 0.950 . S
H1293 C1317 0.950 . S
H1294 C1318 0.950 . S
H1295 C1319 0.951 . S
H1296 C1321 0.951 . S
H1297 C1323 0.950 . S
H1298 C1324 0.950 . S
H1299 C1326 0.953 . S
H1300 C1329 0.950 . S
H1301 C1330 0.950 . S
H1302 C1332 0.950 . S
H1303 C1333 0.950 . S
C1304 H1286 0.951 . S
C1304 C1305 1.366 . S
C1304 C1306 1.388 . S
C1305 C1304 1.366 . S
C1305 C1309 1.385 . S
C1306 H1287 0.951 . S
C1306 C1304 1.388 . S
C1306 C1307 1.366 . S
C1307 C1306 1.366 . S
C1307 C1308 1.414 . S
C1307 C1310 1.499 . S
C1308 H1288 0.950 . S
C1308 C1307 1.414 . S
C1308 C1309 1.374 . S
C1309 H1289 0.950 . S
C1309 C1305 1.385 . S
C1309 C1308 1.374 . S
C1310 C1307 1.499 . S
C1310 C1311 1.339 1_455 S
C1310 C1312 1.389 . S
C1311 H1290 0.953 . S
C1311 C1310 1.339 1_655 S
C1311 C1327 1.409 . S
C1312 C1310 1.389 . S
C1312 C1313 1.524 . S
C1312 C1326 1.409 . S
C1313 C1312 1.524 . S
C1313 C1314 1.397 . S
C1313 C1318 1.363 . S
C1314 H1291 0.950 . S
C1314 C1313 1.397 . S
C1314 C1315 1.334 . S
C1315 H1292 0.950 . S
C1315 C1314 1.334 . S
C1315 C1316 1.287 . S
C1316 C1315 1.287 . S
C1316 C1317 1.524 . S
C1316 H1335 0.913 . S
C1317 H1293 0.950 . S
C1317 C1316 1.524 . S
C1317 C1318 1.415 . S
C1318 H1294 0.950 . S
C1318 C1313 1.363 . S
C1318 C1317 1.415 . S
C1319 H1295 0.951 . S
C1319 C1320 1.366 . S
C1319 C1321 1.388 . S
C1320 C1319 1.366 . S
C1320 C1324 1.385 . S
C1321 H1296 0.951 . S
C1321 C1319 1.388 . S
C1321 C1322 1.366 . S
C1322 C1321 1.366 . S
C1322 C1323 1.414 . S
C1322 C1325 1.499 . S
C1323 H1297 0.950 . S
C1323 C1322 1.414 . S
C1323 C1324 1.374 . S
C1324 H1298 0.950 . S
C1324 C1320 1.385 . S
C1324 C1323 1.374 . S
C1325 C1322 1.499 . S
C1325 C1326 1.339 1_655 S
C1325 C1327 1.389 . S
C1326 H1299 0.953 . S
C1326 C1312 1.409 . S
C1326 C1325 1.339 1_455 S
C1327 C1311 1.409 . S
C1327 C1325 1.389 . S
C1327 C1328 1.524 . S
C1328 C1327 1.524 . S
C1328 C1329 1.397 . S
C1328 C1333 1.363 . S
C1329 H1300 0.950 . S
C1329 C1328 1.397 . S
C1329 C1330 1.334 . S
C1330 H1301 0.950 . S
C1330 C1329 1.334 . S
C1330 C1331 1.287 . S
C1331 C1330 1.287 . S
C1331 C1332 1.524 . S
C1331 H1334 0.999 . S
C1332 H1302 0.950 . S
C1332 C1331 1.524 . S
C1332 C1333 1.415 . S
C1333 H1303 0.950 . S
C1333 C1328 1.363 . S
C1333 C1332 1.415 . S
H1334 C1331 0.999 . S
H1335 C1316 0.913 . S
H1336 C1354 0.951 . S
H1337 C1356 0.951 . S
H1338 C1358 0.950 . S
H1339 C1359 0.950 . S
H1340 C1361 0.950 . S
H1341 C1364 0.950 . S
H1342 C1365 0.949 1_556 S
H1343 C1367 0.950 . S
H1344 C1368 0.950 . S
H1345 C1369 0.951 . S
H1346 C1371 0.951 . S
H1347 C1373 0.950 . S
H1348 C1374 0.950 . S
H1349 C1376 0.950 . S
H1350 C1379 0.950 . S
H1351 C1380 0.949 1_554 S
H1352 C1382 0.950 . S
H1353 C1383 0.950 . S
C1354 H1336 0.951 . S
C1354 C1355 1.366 . S
C1354 C1356 1.388 . S
C1355 C1354 1.366 . S
C1355 C1359 1.385 . S
C1356 H1337 0.951 . S
C1356 C1354 1.388 . S
C1356 C1357 1.366 . S
C1357 C1356 1.366 . S
C1357 C1358 1.414 . S
C1357 C1360 1.499 . S
C1358 H1338 0.950 . S
C1358 C1357 1.414 . S
C1358 C1359 1.374 . S
C1359 H1339 0.950 . S
C1359 C1355 1.385 . S
C1359 C1358 1.374 . S
C1360 C1357 1.499 . S
C1360 C1361 1.373 . S
C1360 C1362 1.389 . S
C1361 H1340 0.950 . S
C1361 C1360 1.373 . S
C1361 C1377 1.377 1_556 S
C1362 C1360 1.389 . S
C1362 C1363 1.525 . S
C1362 C1376 1.377 1_556 S
C1363 C1362 1.525 . S
C1363 C1364 1.397 . S
C1363 C1368 1.361 1_556 S
C1364 H1341 0.950 . S
C1364 C1363 1.397 . S
C1364 C1365 1.333 1_556 S
C1365 H1342 0.949 1_554 S
C1365 C1364 1.333 1_554 S
C1365 C1366 1.289 . S
C1366 C1365 1.289 . S
C1366 C1367 1.524 . S
C1366 H1385 0.913 . S
C1367 H1343 0.950 . S
C1367 C1366 1.524 . S
C1367 C1368 1.415 . S
C1368 H1344 0.950 . S
C1368 C1363 1.361 1_554 S
C1368 C1367 1.415 . S
C1369 H1345 0.951 . S
C1369 C1370 1.366 . S
C1369 C1371 1.388 . S
C1370 C1369 1.366 . S
C1370 C1374 1.385 . S
C1371 H1346 0.951 . S
C1371 C1369 1.388 . S
C1371 C1372 1.366 . S
C1372 C1371 1.366 . S
C1372 C1373 1.414 . S
C1372 C1375 1.499 . S
C1373 H1347 0.950 . S
C1373 C1372 1.414 . S
C1373 C1374 1.374 . S
C1374 H1348 0.950 . S
C1374 C1370 1.385 . S
C1374 C1373 1.374 . S
C1375 C1372 1.499 . S
C1375 C1376 1.373 . S
C1375 C1377 1.389 . S
C1376 H1349 0.950 . S
C1376 C1362 1.377 1_554 S
C1376 C1375 1.373 . S
C1377 C1361 1.377 1_554 S
C1377 C1375 1.389 . S
C1377 C1378 1.525 . S
C1378 C1377 1.525 . S
C1378 C1379 1.397 . S
C1378 C1383 1.361 1_554 S
C1379 H1350 0.950 . S
C1379 C1378 1.397 . S
C1379 C1380 1.333 1_554 S
C1380 H1351 0.949 1_556 S
C1380 C1379 1.333 1_556 S
C1380 C1381 1.289 . S
C1381 C1380 1.289 . S
C1381 C1382 1.524 . S
C1381 H1384 0.999 . S
C1382 H1352 0.950 . S
C1382 C1381 1.524 . S
C1382 C1383 1.415 . S
C1383 H1353 0.950 . S
C1383 C1378 1.361 1_556 S
C1383 C1382 1.415 . S
H1384 C1381 0.999 . S
H1385 C1366 0.913 . S
H1386 C1404 0.951 . S
H1387 C1406 0.951 . S
H1388 C1408 0.950 . S
H1389 C1409 0.950 . S
H1390 C1411 0.950 . S
H1391 C1414 0.950 1_554 S
H1392 C1415 0.950 . S
H1393 C1417 0.950 . S
H1394 C1418 0.950 . S
H1395 C1419 0.951 . S
H1396 C1421 0.951 . S
H1397 C1423 0.950 . S
H1398 C1424 0.950 . S
H1399 C1426 0.950 . S
H1400 C1429 0.950 1_556 S
H1401 C1430 0.950 . S
H1402 C1432 0.950 . S
H1403 C1433 0.950 . S
C1404 H1386 0.951 . S
C1404 C1405 1.366 . S
C1404 C1406 1.388 . S
C1405 C1404 1.366 . S
C1405 C1409 1.385 . S
C1406 H1387 0.951 . S
C1406 C1404 1.388 . S
C1406 C1407 1.366 . S
C1407 C1406 1.366 . S
C1407 C1408 1.414 . S
C1407 C1410 1.499 . S
C1408 H1388 0.950 . S
C1408 C1407 1.414 . S
C1408 C1409 1.374 . S
C1409 H1389 0.950 . S
C1409 C1405 1.385 . S
C1409 C1408 1.374 . S
C1410 C1407 1.499 . S
C1410 C1411 1.373 . S
C1410 C1412 1.389 1_554 S
C1411 H1390 0.950 . S
C1411 C1410 1.373 . S
C1411 C1427 1.377 . S
C1412 C1410 1.389 1_556 S
C1412 C1413 1.524 . S
C1412 C1426 1.377 . S
C1413 C1412 1.524 . S
C1413 C1414 1.397 . S
C1413 C1418 1.363 . S
C1414 H1391 0.950 1_556 S
C1414 C1413 1.397 . S
C1414 C1415 1.334 . S
C1415 H1392 0.950 . S
C1415 C1414 1.334 . S
C1415 C1416 1.287 . S
C1416 C1415 1.287 . S
C1416 C1417 1.524 . S
C1416 H1435 0.913 . S
C1417 H1393 0.950 . S
C1417 C1416 1.524 . S
C1417 C1418 1.415 . S
C1418 H1394 0.950 . S
C1418 C1413 1.363 . S
C1418 C1417 1.415 . S
C1419 H1395 0.951 . S
C1419 C1420 1.366 . S
C1419 C1421 1.388 . S
C1420 C1419 1.366 . S
C1420 C1424 1.385 . S
C1421 H1396 0.951 . S
C1421 C1419 1.388 . S
C1421 C1422 1.366 . S
C1422 C1421 1.366 . S
C1422 C1423 1.414 . S
C1422 C1425 1.499 . S
C1423 H1397 0.950 . S
C1423 C1422 1.414 . S
C1423 C1424 1.374 . S
C1424 H1398 0.950 . S
C1424 C1420 1.385 . S
C1424 C1423 1.374 . S
C1425 C1422 1.499 . S
C1425 C1426 1.373 . S
C1425 C1427 1.389 1_556 S
C1426 H1399 0.950 . S
C1426 C1412 1.377 . S
C1426 C1425 1.373 . S
C1427 C1411 1.377 . S
C1427 C1425 1.389 1_554 S
C1427 C1428 1.524 . S
C1428 C1427 1.524 . S
C1428 C1429 1.397 . S
C1428 C1433 1.363 . S
C1429 H1400 0.950 1_554 S
C1429 C1428 1.397 . S
C1429 C1430 1.334 . S
C1430 H1401 0.950 . S
C1430 C1429 1.334 . S
C1430 C1431 1.287 . S
C1431 C1430 1.287 . S
C1431 C1432 1.524 . S
C1431 H1434 0.999 . S
C1432 H1402 0.950 . S
C1432 C1431 1.524 . S
C1432 C1433 1.415 . S
C1433 H1403 0.950 . S
C1433 C1428 1.363 . S
C1433 C1432 1.415 . S
H1434 C1431 0.999 . S
H1435 C1416 0.913 . S
H1436 C1454 0.951 . S
H1437 C1456 0.951 . S
H1438 C1458 0.950 . S
H1439 C1459 0.950 . S
H1440 C1461 0.950 . S
H1441 C1464 0.950 . S
H1442 C1465 0.950 . S
H1443 C1467 0.950 . S
H1444 C1468 0.950 . S
H1445 C1469 0.951 . S
H1446 C1471 0.951 . S
H1447 C1473 0.950 . S
H1448 C1474 0.950 . S
H1449 C1476 0.950 . S
H1450 C1479 0.950 . S
H1451 C1480 0.950 . S
H1452 C1482 0.950 . S
H1453 C1483 0.950 . S
C1454 H1436 0.951 . S
C1454 C1455 1.366 . S
C1454 C1456 1.388 . S
C1455 C1454 1.366 . S
C1455 C1459 1.385 . S
C1456 H1437 0.951 . S
C1456 C1454 1.388 . S
C1456 C1457 1.366 . S
C1457 C1456 1.366 . S
C1457 C1458 1.414 . S
C1457 C1460 1.499 . S
C1458 H1438 0.950 . S
C1458 C1457 1.414 . S
C1458 C1459 1.374 . S
C1459 H1439 0.950 . S
C1459 C1455 1.385 . S
C1459 C1458 1.374 . S
C1460 C1457 1.499 . S
C1460 C1461 1.373 . S
C1460 C1462 1.389 . S
C1461 H1440 0.950 . S
C1461 C1460 1.373 . S
C1461 C1477 1.377 1_556 S
C1462 C1460 1.389 . S
C1462 C1463 1.524 . S
C1462 C1476 1.377 1_556 S
C1463 C1462 1.524 . S
C1463 C1464 1.397 . S
C1463 C1468 1.363 . S
C1464 H1441 0.950 . S
C1464 C1463 1.397 . S
C1464 C1465 1.334 . S
C1465 H1442 0.950 . S
C1465 C1464 1.334 . S
C1465 C1466 1.287 . S
C1466 C1465 1.287 . S
C1466 C1467 1.524 . S
C1466 H1485 0.913 . S
C1467 H1443 0.950 . S
C1467 C1466 1.524 . S
C1467 C1468 1.415 . S
C1468 H1444 0.950 . S
C1468 C1463 1.363 . S
C1468 C1467 1.415 . S
C1469 H1445 0.951 . S
C1469 C1470 1.366 . S
C1469 C1471 1.388 . S
C1470 C1469 1.366 . S
C1470 C1474 1.385 . S
C1471 H1446 0.951 . S
C1471 C1469 1.388 . S
C1471 C1472 1.366 . S
C1472 C1471 1.366 . S
C1472 C1473 1.414 . S
C1472 C1475 1.499 . S
C1473 H1447 0.950 . S
C1473 C1472 1.414 . S
C1473 C1474 1.374 . S
C1474 H1448 0.950 . S
C1474 C1470 1.385 . S
C1474 C1473 1.374 . S
C1475 C1472 1.499 . S
C1475 C1476 1.373 . S
C1475 C1477 1.389 . S
C1476 H1449 0.950 . S
C1476 C1462 1.377 1_554 S
C1476 C1475 1.373 . S
C1477 C1461 1.377 1_554 S
C1477 C1475 1.389 . S
C1477 C1478 1.524 . S
C1478 C1477 1.524 . S
C1478 C1479 1.397 . S
C1478 C1483 1.363 . S
C1479 H1450 0.950 . S
C1479 C1478 1.397 . S
C1479 C1480 1.334 . S
C1480 H1451 0.950 . S
C1480 C1479 1.334 . S
C1480 C1481 1.287 . S
C1481 C1480 1.287 . S
C1481 C1482 1.524 . S
C1481 H1484 0.999 . S
C1482 H1452 0.950 . S
C1482 C1481 1.524 . S
C1482 C1483 1.415 . S
C1483 H1453 0.950 . S
C1483 C1478 1.363 . S
C1483 C1482 1.415 . S
H1484 C1481 0.999 . S
H1485 C1466 0.913 . S
H1486 C1504 0.951 . S
H1487 C1506 0.951 . S
H1488 C1508 0.950 . S
H1489 C1509 0.950 . S
H1490 C1511 0.950 . S
H1491 C1514 0.950 . S
H1492 C1515 0.950 . S
H1493 C1517 0.950 . S
H1494 C1518 0.950 . S
H1495 C1519 0.951 . S
H1496 C1521 0.951 . S
H1497 C1523 0.950 . S
H1498 C1524 0.950 . S
H1499 C1526 0.950 . S
H1500 C1529 0.950 . S
H1501 C1530 0.950 . S
H1502 C1532 0.950 . S
H1503 C1533 0.950 . S
C1504 H1486 0.951 . S
C1504 C1505 1.366 . S
C1504 C1506 1.388 . S
C1505 C1504 1.366 . S
C1505 C1509 1.385 . S
C1506 H1487 0.951 . S
C1506 C1504 1.388 . S
C1506 C1507 1.366 . S
C1507 C1506 1.366 . S
C1507 C1508 1.414 . S
C1507 C1510 1.499 . S
C1508 H1488 0.950 . S
C1508 C1507 1.414 . S
C1508 C1509 1.374 . S
C1509 H1489 0.950 . S
C1509 C1505 1.385 . S
C1509 C1508 1.374 . S
C1510 C1507 1.499 . S
C1510 C1511 1.373 1_554 S
C1510 C1512 1.389 . S
C1511 H1490 0.950 . S
C1511 C1510 1.373 1_556 S
C1511 C1527 1.377 . S
C1512 C1510 1.389 . S
C1512 C1513 1.524 . S
C1512 C1526 1.377 . S
C1513 C1512 1.524 . S
C1513 C1514 1.397 . S
C1513 C1518 1.363 . S
C1514 H1491 0.950 . S
C1514 C1513 1.397 . S
C1514 C1515 1.334 . S
C1515 H1492 0.950 . S
C1515 C1514 1.334 . S
C1515 C1516 1.287 . S
C1516 C1515 1.287 . S
C1516 C1517 1.524 . S
C1516 H1535 0.913 . S
C1517 H1493 0.950 . S
C1517 C1516 1.524 . S
C1517 C1518 1.415 . S
C1518 H1494 0.950 . S
C1518 C1513 1.363 . S
C1518 C1517 1.415 . S
C1519 H1495 0.951 . S
C1519 C1520 1.366 . S
C1519 C1521 1.388 . S
C1520 C1519 1.366 . S
C1520 C1524 1.385 . S
C1521 H1496 0.951 . S
C1521 C1519 1.388 . S
C1521 C1522 1.366 . S
C1522 C1521 1.366 . S
C1522 C1523 1.414 . S
C1522 C1525 1.499 . S
C1523 H1497 0.950 . S
C1523 C1522 1.414 . S
C1523 C1524 1.374 . S
C1524 H1498 0.950 . S
C1524 C1520 1.385 . S
C1524 C1523 1.374 . S
C1525 C1522 1.499 . S
C1525 C1526 1.373 1_556 S
C1525 C1527 1.389 . S
C1526 H1499 0.950 . S
C1526 C1512 1.377 . S
C1526 C1525 1.373 1_554 S
C1527 C1511 1.377 . S
C1527 C1525 1.389 . S
C1527 C1528 1.524 . S
C1528 C1527 1.524 . S
C1528 C1529 1.397 . S
C1528 C1533 1.363 . S
C1529 H1500 0.950 . S
C1529 C1528 1.397 . S
C1529 C1530 1.334 . S
C1530 H1501 0.950 . S
C1530 C1529 1.334 . S
C1530 C1531 1.287 . S
C1531 C1530 1.287 . S
C1531 C1532 1.524 . S
C1531 H1534 0.999 . S
C1532 H1502 0.950 . S
C1532 C1531 1.524 . S
C1532 C1533 1.415 . S
C1533 H1503 0.950 . S
C1533 C1528 1.363 . S
C1533 C1532 1.415 . S
H1534 C1531 0.999 . S
H1535 C1516 0.913 . S
H1536 C1554 0.951 . S
H1537 C1556 0.951 . S
H1538 C1558 0.950 . S
H1539 C1559 0.950 . S
H1540 C1561 0.950 . S
H1541 C1564 0.950 . S
H1542 C1565 0.950 . S
H1543 C1567 0.950 . S
H1544 C1568 0.950 . S
H1545 C1569 0.951 . S
H1546 C1571 0.951 . S
H1547 C1573 0.950 . S
H1548 C1574 0.950 . S
H1549 C1576 0.950 . S
H1550 C1579 0.950 . S
H1551 C1580 0.950 . S
H1552 C1582 0.950 . S
H1553 C1583 0.950 . S
C1554 H1536 0.951 . S
C1554 C1555 1.366 . S
C1554 C1556 1.388 . S
C1555 C1554 1.366 . S
C1555 C1559 1.385 . S
C1556 H1537 0.951 . S
C1556 C1554 1.388 . S
C1556 C1557 1.366 . S
C1557 C1556 1.366 . S
C1557 C1558 1.414 . S
C1557 C1560 1.499 . S
C1558 H1538 0.950 . S
C1558 C1557 1.414 . S
C1558 C1559 1.374 . S
C1559 H1539 0.950 . S
C1559 C1555 1.385 . S
C1559 C1558 1.374 . S
C1560 C1557 1.499 . S
C1560 C1561 1.373 . S
C1560 C1562 1.389 . S
C1561 H1540 0.950 . S
C1561 C1560 1.373 . S
C1561 C1577 1.377 . S
C1562 C1560 1.389 . S
C1562 C1563 1.524 . S
C1562 C1576 1.377 . S
C1563 C1562 1.524 . S
C1563 C1564 1.397 . S
C1563 C1568 1.363 . S
C1564 H1541 0.950 . S
C1564 C1563 1.397 . S
C1564 C1565 1.334 . S
C1565 H1542 0.950 . S
C1565 C1564 1.334 . S
C1565 C1566 1.287 . S
C1566 C1565 1.287 . S
C1566 C1567 1.524 . S
C1566 H1585 0.913 . S
C1567 H1543 0.950 . S
C1567 C1566 1.524 . S
C1567 C1568 1.415 . S
C1568 H1544 0.950 . S
C1568 C1563 1.363 . S
C1568 C1567 1.415 . S
C1569 H1545 0.951 . S
C1569 C1570 1.366 . S
C1569 C1571 1.388 . S
C1570 C1569 1.366 . S
C1570 C1574 1.385 . S
C1571 H1546 0.951 . S
C1571 C1569 1.388 . S
C1571 C1572 1.366 . S
C1572 C1571 1.366 . S
C1572 C1573 1.414 . S
C1572 C1575 1.499 . S
C1573 H1547 0.950 . S
C1573 C1572 1.414 . S
C1573 C1574 1.374 . S
C1574 H1548 0.950 . S
C1574 C1570 1.385 . S
C1574 C1573 1.374 . S
C1575 C1572 1.499 . S
C1575 C1576 1.373 . S
C1575 C1577 1.389 . S
C1576 H1549 0.950 . S
C1576 C1562 1.377 . S
C1576 C1575 1.373 . S
C1577 C1561 1.377 . S
C1577 C1575 1.389 . S
C1577 C1578 1.524 . S
C1578 C1577 1.524 . S
C1578 C1579 1.397 . S
C1578 C1583 1.363 . S
C1579 H1550 0.950 . S
C1579 C1578 1.397 . S
C1579 C1580 1.334 . S
C1580 H1551 0.950 . S
C1580 C1579 1.334 . S
C1580 C1581 1.287 . S
C1581 C1580 1.287 . S
C1581 C1582 1.524 . S
C1581 H1584 0.999 . S
C1582 H1552 0.950 . S
C1582 C1581 1.524 . S
C1582 C1583 1.415 . S
C1583 H1553 0.950 . S
C1583 C1578 1.363 . S
C1583 C1582 1.415 . S
H1584 C1581 0.999 . S
H1585 C1566 0.913 . S
H1586 C1604 0.951 . S
H1587 C1606 0.951 . S
H1588 C1608 0.950 . S
H1589 C1609 0.950 . S
H1590 C1611 0.950 . S
H1591 C1614 0.950 . S
H1592 C1615 0.950 . S
H1593 C1617 0.950 . S
H1594 C1618 0.950 . S
H1595 C1619 0.951 . S
H1596 C1621 0.951 . S
H1597 C1623 0.950 . S
H1598 C1624 0.950 . S
H1599 C1626 0.950 . S
H1600 C1629 0.950 . S
H1601 C1630 0.950 . S
H1602 C1632 0.950 . S
H1603 C1633 0.950 . S
C1604 H1586 0.951 . S
C1604 C1605 1.366 . S
C1604 C1606 1.388 . S
C1605 C1604 1.366 . S
C1605 C1609 1.385 . S
C1606 H1587 0.951 . S
C1606 C1604 1.388 . S
C1606 C1607 1.366 . S
C1607 C1606 1.366 . S
C1607 C1608 1.414 . S
C1607 C1610 1.499 . S
C1608 H1588 0.950 . S
C1608 C1607 1.414 . S
C1608 C1609 1.374 . S
C1609 H1589 0.950 . S
C1609 C1605 1.385 . S
C1609 C1608 1.374 . S
C1610 C1607 1.499 . S
C1610 C1611 1.373 . S
C1610 C1612 1.389 . S
C1611 H1590 0.950 . S
C1611 C1610 1.373 . S
C1611 C1627 1.377 . S
C1612 C1610 1.389 . S
C1612 C1613 1.524 . S
C1612 C1626 1.377 . S
C1613 C1612 1.524 . S
C1613 C1614 1.397 . S
C1613 C1618 1.363 . S
C1614 H1591 0.950 . S
C1614 C1613 1.397 . S
C1614 C1615 1.334 . S
C1615 H1592 0.950 . S
C1615 C1614 1.334 . S
C1615 C1616 1.287 . S
C1616 C1615 1.287 . S
C1616 C1617 1.524 . S
C1616 H1635 0.913 . S
C1617 H1593 0.950 . S
C1617 C1616 1.524 . S
C1617 C1618 1.415 . S
C1618 H1594 0.950 . S
C1618 C1613 1.363 . S
C1618 C1617 1.415 . S
C1619 H1595 0.951 . S
C1619 C1620 1.366 . S
C1619 C1621 1.388 . S
C1620 C1619 1.366 . S
C1620 C1624 1.385 . S
C1621 H1596 0.951 . S
C1621 C1619 1.388 . S
C1621 C1622 1.366 . S
C1622 C1621 1.366 . S
C1622 C1623 1.414 . S
C1622 C1625 1.499 . S
C1623 H1597 0.950 . S
C1623 C1622 1.414 . S
C1623 C1624 1.374 . S
C1624 H1598 0.950 . S
C1624 C1620 1.385 . S
C1624 C1623 1.374 . S
C1625 C1622 1.499 . S
C1625 C1626 1.373 . S
C1625 C1627 1.389 . S
C1626 H1599 0.950 . S
C1626 C1612 1.377 . S
C1626 C1625 1.373 . S
C1627 C1611 1.377 . S
C1627 C1625 1.389 . S
C1627 C1628 1.524 . S
C1628 C1627 1.524 . S
C1628 C1629 1.397 . S
C1628 C1633 1.363 . S
C1629 H1600 0.950 . S
C1629 C1628 1.397 . S
C1629 C1630 1.334 . S
C1630 H1601 0.950 . S
C1630 C1629 1.334 . S
C1630 C1631 1.287 . S
C1631 C1630 1.287 . S
C1631 C1632 1.524 . S
C1631 H1634 0.999 . S
C1632 H1602 0.950 . S
C1632 C1631 1.524 . S
C1632 C1633 1.415 . S
C1633 H1603 0.950 . S
C1633 C1628 1.363 . S
C1633 C1632 1.415 . S
H1634 C1631 0.999 . S
H1635 C1616 0.913 . S
H1636 C1654 0.951 . S
H1637 C1656 0.951 . S
H1638 C1658 0.950 . S
H1639 C1659 0.950 . S
H1640 C1661 0.950 . S
H1641 C1664 0.950 . S
H1642 C1665 0.950 . S
H1643 C1667 0.950 . S
H1644 C1668 0.950 . S
H1645 C1669 0.951 . S
H1646 C1671 0.951 . S
H1647 C1673 0.950 . S
H1648 C1674 0.950 . S
H1649 C1676 0.950 . S
H1650 C1679 0.950 . S
H1651 C1680 0.950 . S
H1652 C1682 0.950 . S
H1653 C1683 0.950 . S
C1654 H1636 0.951 . S
C1654 C1655 1.366 . S
C1654 C1656 1.388 . S
C1655 C1654 1.366 . S
C1655 C1659 1.385 . S
C1656 H1637 0.951 . S
C1656 C1654 1.388 . S
C1656 C1657 1.366 . S
C1657 C1656 1.366 . S
C1657 C1658 1.414 . S
C1657 C1660 1.499 . S
C1658 H1638 0.950 . S
C1658 C1657 1.414 . S
C1658 C1659 1.374 . S
C1659 H1639 0.950 . S
C1659 C1655 1.385 . S
C1659 C1658 1.374 . S
C1660 C1657 1.499 . S
C1660 C1661 1.373 . S
C1660 C1662 1.389 . S
C1661 H1640 0.950 . S
C1661 C1660 1.373 . S
C1661 C1677 1.377 . S
C1662 C1660 1.389 . S
C1662 C1663 1.524 . S
C1662 C1676 1.377 . S
C1663 C1662 1.524 . S
C1663 C1664 1.397 . S
C1663 C1668 1.363 . S
C1664 H1641 0.950 . S
C1664 C1663 1.397 . S
C1664 C1665 1.334 . S
C1665 H1642 0.950 . S
C1665 C1664 1.334 . S
C1665 C1666 1.287 . S
C1666 C1665 1.287 . S
C1666 C1667 1.524 . S
C1666 H1685 0.913 . S
C1667 H1643 0.950 . S
C1667 C1666 1.524 . S
C1667 C1668 1.415 . S
C1668 H1644 0.950 . S
C1668 C1663 1.363 . S
C1668 C1667 1.415 . S
C1669 H1645 0.951 . S
C1669 C1670 1.366 . S
C1669 C1671 1.388 . S
C1670 C1669 1.366 . S
C1670 C1674 1.385 . S
C1671 H1646 0.951 . S
C1671 C1669 1.388 . S
C1671 C1672 1.366 . S
C1672 C1671 1.366 . S
C1672 C1673 1.414 . S
C1672 C1675 1.499 . S
C1673 H1647 0.950 . S
C1673 C1672 1.414 . S
C1673 C1674 1.374 . S
C1674 H1648 0.950 . S
C1674 C1670 1.385 . S
C1674 C1673 1.374 . S
C1675 C1672 1.499 . S
C1675 C1676 1.373 . S
C1675 C1677 1.389 . S
C1676 H1649 0.950 . S
C1676 C1662 1.377 . S
C1676 C1675 1.373 . S
C1677 C1661 1.377 . S
C1677 C1675 1.389 . S
C1677 C1678 1.524 . S
C1678 C1677 1.524 . S
C1678 C1679 1.397 . S
C1678 C1683 1.363 . S
C1679 H1650 0.950 . S
C1679 C1678 1.397 . S
C1679 C1680 1.334 . S
C1680 H1651 0.950 . S
C1680 C1679 1.334 . S
C1680 C1681 1.287 . S
C1681 C1680 1.287 . S
C1681 C1682 1.524 . S
C1681 H1684 0.999 . S
C1682 H1652 0.950 . S
C1682 C1681 1.524 . S
C1682 C1683 1.415 . S
C1683 H1653 0.950 . S
C1683 C1678 1.363 . S
C1683 C1682 1.415 . S
H1684 C1681 0.999 . S
H1685 C1666 0.913 . S
H1686 C1704 0.951 . S
H1687 C1706 0.951 . S
H1688 C1708 0.950 . S
H1689 C1709 0.950 . S
H1690 C1711 0.950 . S
H1691 C1714 0.950 . S
H1692 C1715 0.950 . S
H1693 C1717 0.950 . S
H1694 C1718 0.950 . S
H1695 C1719 0.951 . S
H1696 C1721 0.951 . S
H1697 C1723 0.950 . S
H1698 C1724 0.950 . S
H1699 C1726 0.950 . S
H1700 C1729 0.950 . S
H1701 C1730 0.950 . S
H1702 C1732 0.950 . S
H1703 C1733 0.950 . S
C1704 H1686 0.951 . S
C1704 C1705 1.366 . S
C1704 C1706 1.388 . S
C1705 C1704 1.366 . S
C1705 C1709 1.385 . S
C1706 H1687 0.951 . S
C1706 C1704 1.388 . S
C1706 C1707 1.366 . S
C1707 C1706 1.366 . S
C1707 C1708 1.414 . S
C1707 C1710 1.499 . S
C1708 H1688 0.950 . S
C1708 C1707 1.414 . S
C1708 C1709 1.374 . S
C1709 H1689 0.950 . S
C1709 C1705 1.385 . S
C1709 C1708 1.374 . S
C1710 C1707 1.499 . S
C1710 C1711 1.373 . S
C1710 C1712 1.389 . S
C1711 H1690 0.950 . S
C1711 C1710 1.373 . S
C1711 C1727 1.377 . S
C1712 C1710 1.389 . S
C1712 C1713 1.524 . S
C1712 C1726 1.377 . S
C1713 C1712 1.524 . S
C1713 C1714 1.397 . S
C1713 C1718 1.363 . S
C1714 H1691 0.950 . S
C1714 C1713 1.397 . S
C1714 C1715 1.334 . S
C1715 H1692 0.950 . S
C1715 C1714 1.334 . S
C1715 C1716 1.287 . S
C1716 C1715 1.287 . S
C1716 C1717 1.524 . S
C1716 H1735 0.913 . S
C1717 H1693 0.950 . S
C1717 C1716 1.524 . S
C1717 C1718 1.415 . S
C1718 H1694 0.950 . S
C1718 C1713 1.363 . S
C1718 C1717 1.415 . S
C1719 H1695 0.951 . S
C1719 C1720 1.366 . S
C1719 C1721 1.388 . S
C1720 C1719 1.366 . S
C1720 C1724 1.385 . S
C1721 H1696 0.951 . S
C1721 C1719 1.388 . S
C1721 C1722 1.366 . S
C1722 C1721 1.366 . S
C1722 C1723 1.414 . S
C1722 C1725 1.499 . S
C1723 H1697 0.950 . S
C1723 C1722 1.414 . S
C1723 C1724 1.374 . S
C1724 H1698 0.950 . S
C1724 C1720 1.385 . S
C1724 C1723 1.374 . S
C1725 C1722 1.499 . S
C1725 C1726 1.373 . S
C1725 C1727 1.389 . S
C1726 H1699 0.950 . S
C1726 C1712 1.377 . S
C1726 C1725 1.373 . S
C1727 C1711 1.377 . S
C1727 C1725 1.389 . S
C1727 C1728 1.524 . S
C1728 C1727 1.524 . S
C1728 C1729 1.397 . S
C1728 C1733 1.363 . S
C1729 H1700 0.950 . S
C1729 C1728 1.397 . S
C1729 C1730 1.334 . S
C1730 H1701 0.950 . S
C1730 C1729 1.334 . S
C1730 C1731 1.287 . S
C1731 C1730 1.287 . S
C1731 C1732 1.524 . S
C1731 H1734 0.999 . S
C1732 H1702 0.950 . S
C1732 C1731 1.524 . S
C1732 C1733 1.415 . S
C1733 H1703 0.950 . S
C1733 C1728 1.363 . S
C1733 C1732 1.415 . S
H1734 C1731 0.999 . S
H1735 C1716 0.913 . S
H1736 C1754 0.951 . S
H1737 C1756 0.951 . S
H1738 C1758 0.950 . S
H1739 C1759 0.950 . S
H1740 C1761 0.950 . S
H1741 C1764 0.950 . S
H1742 C1765 0.950 . S
H1743 C1767 0.950 . S
H1744 C1768 0.950 . S
H1745 C1769 0.951 . S
H1746 C1771 0.951 . S
H1747 C1773 0.950 . S
H1748 C1774 0.950 . S
H1749 C1776 0.950 . S
H1750 C1779 0.950 . S
H1751 C1780 0.950 . S
H1752 C1782 0.950 . S
H1753 C1783 0.950 . S
C1754 H1736 0.951 . S
C1754 C1755 1.366 . S
C1754 C1756 1.388 . S
C1755 C1754 1.366 . S
C1755 C1759 1.385 . S
C1756 H1737 0.951 . S
C1756 C1754 1.388 . S
C1756 C1757 1.366 . S
C1757 C1756 1.366 . S
C1757 C1758 1.414 . S
C1757 C1760 1.499 . S
C1758 H1738 0.950 . S
C1758 C1757 1.414 . S
C1758 C1759 1.374 . S
C1759 H1739 0.950 . S
C1759 C1755 1.385 . S
C1759 C1758 1.374 . S
C1760 C1757 1.499 . S
C1760 C1761 1.373 . S
C1760 C1762 1.389 . S
C1761 H1740 0.950 . S
C1761 C1760 1.373 . S
C1761 C1777 1.377 . S
C1762 C1760 1.389 . S
C1762 C1763 1.524 . S
C1762 C1776 1.377 . S
C1763 C1762 1.524 . S
C1763 C1764 1.397 . S
C1763 C1768 1.363 . S
C1764 H1741 0.950 . S
C1764 C1763 1.397 . S
C1764 C1765 1.334 . S
C1765 H1742 0.950 . S
C1765 C1764 1.334 . S
C1765 C1766 1.287 . S
C1766 C1765 1.287 . S
C1766 C1767 1.524 . S
C1766 H1785 0.913 . S
C1767 H1743 0.950 . S
C1767 C1766 1.524 . S
C1767 C1768 1.415 . S
C1768 H1744 0.950 . S
C1768 C1763 1.363 . S
C1768 C1767 1.415 . S
C1769 H1745 0.951 . S
C1769 C1770 1.366 . S
C1769 C1771 1.388 . S
C1770 C1769 1.366 . S
C1770 C1774 1.385 . S
C1771 H1746 0.951 . S
C1771 C1769 1.388 . S
C1771 C1772 1.366 . S
C1772 C1771 1.366 . S
C1772 C1773 1.414 . S
C1772 C1775 1.499 . S
C1773 H1747 0.950 . S
C1773 C1772 1.414 . S
C1773 C1774 1.374 . S
C1774 H1748 0.950 . S
C1774 C1770 1.385 . S
C1774 C1773 1.374 . S
C1775 C1772 1.499 . S
C1775 C1776 1.373 . S
C1775 C1777 1.389 . S
C1776 H1749 0.950 . S
C1776 C1762 1.377 . S
C1776 C1775 1.373 . S
C1777 C1761 1.377 . S
C1777 C1775 1.389 . S
C1777 C1778 1.524 . S
C1778 C1777 1.524 . S
C1778 C1779 1.397 . S
C1778 C1783 1.363 . S
C1779 H1750 0.950 . S
C1779 C1778 1.397 . S
C1779 C1780 1.334 . S
C1780 H1751 0.950 . S
C1780 C1779 1.334 . S
C1780 C1781 1.287 . S
C1781 C1780 1.287 . S
C1781 C1782 1.524 . S
C1781 H1784 0.999 . S
C1782 H1752 0.950 . S
C1782 C1781 1.524 . S
C1782 C1783 1.415 . S
C1783 H1753 0.950 . S
C1783 C1778 1.363 . S
C1783 C1782 1.415 . S
H1784 C1781 0.999 . S
H1785 C1766 0.913 . S
H1786 C1804 0.951 . S
H1787 C1806 0.951 . S
H1788 C1808 0.950 . S
H1789 C1809 0.950 . S
H1790 C1811 0.950 . S
H1791 C1814 0.950 . S
H1792 C1815 0.950 . S
H1793 C1817 0.950 . S
H1794 C1818 0.950 . S
H1795 C1819 0.951 . S
H1796 C1821 0.951 . S
H1797 C1823 0.950 . S
H1798 C1824 0.950 . S
H1799 C1826 0.950 . S
H1800 C1829 0.950 . S
H1801 C1830 0.950 . S
H1802 C1832 0.950 . S
H1803 C1833 0.950 . S
C1804 H1786 0.951 . S
C1804 C1805 1.366 . S
C1804 C1806 1.388 . S
C1805 C1804 1.366 . S
C1805 C1809 1.385 . S
C1806 H1787 0.951 . S
C1806 C1804 1.388 . S
C1806 C1807 1.366 . S
C1807 C1806 1.366 . S
C1807 C1808 1.414 . S
C1807 C1810 1.499 . S
C1808 H1788 0.950 . S
C1808 C1807 1.414 . S
C1808 C1809 1.374 . S
C1809 H1789 0.950 . S
C1809 C1805 1.385 . S
C1809 C1808 1.374 . S
C1810 C1807 1.499 . S
C1810 C1811 1.373 . S
C1810 C1812 1.389 . S
C1811 H1790 0.950 . S
C1811 C1810 1.373 . S
C1811 C1827 1.377 . S
C1812 C1810 1.389 . S
C1812 C1813 1.524 . S
C1812 C1826 1.377 . S
C1813 C1812 1.524 . S
C1813 C1814 1.397 . S
C1813 C1818 1.363 . S
C1814 H1791 0.950 . S
C1814 C1813 1.397 . S
C1814 C1815 1.334 . S
C1815 H1792 0.950 . S
C1815 C1814 1.334 . S
C1815 C1816 1.287 . S
C1816 C1815 1.287 . S
C1816 C1817 1.524 . S
C1816 H1835 0.913 . S
C1817 H1793 0.950 . S
C1817 C1816 1.524 . S
C1817 C1818 1.415 . S
C1818 H1794 0.950 . S
C1818 C1813 1.363 . S
C1818 C1817 1.415 . S
C1819 H1795 0.951 . S
C1819 C1820 1.366 . S
C1819 C1821 1.388 . S
C1820 C1819 1.366 . S
C1820 C1824 1.385 . S
C1821 H1796 0.951 . S
C1821 C1819 1.388 . S
C1821 C1822 1.366 . S
C1822 C1821 1.366 . S
C1822 C1823 1.414 . S
C1822 C1825 1.499 . S
C1823 H1797 0.950 . S
C1823 C1822 1.414 . S
C1823 C1824 1.374 . S
C1824 H1798 0.950 . S
C1824 C1820 1.385 . S
C1824 C1823 1.374 . S
C1825 C1822 1.499 . S
C1825 C1826 1.373 . S
C1825 C1827 1.389 . S
C1826 H1799 0.950 . S
C1826 C1812 1.377 . S
C1826 C1825 1.373 . S
C1827 C1811 1.377 . S
C1827 C1825 1.389 . S
C1827 C1828 1.524 . S
C1828 C1827 1.524 . S
C1828 C1829 1.397 . S
C1828 C1833 1.363 . S
C1829 H1800 0.950 . S
C1829 C1828 1.397 . S
C1829 C1830 1.334 . S
C1830 H1801 0.950 . S
C1830 C1829 1.334 . S
C1830 C1831 1.287 . S
C1831 C1830 1.287 . S
C1831 C1832 1.524 . S
C1831 H1834 0.999 . S
C1832 H1802 0.950 . S
C1832 C1831 1.524 . S
C1832 C1833 1.415 . S
C1833 H1803 0.950 . S
C1833 C1828 1.363 . S
C1833 C1832 1.415 . S
H1834 C1831 0.999 . S
H1835 C1816 0.913 . S
H1836 C1854 0.951 . S
H1837 C1856 0.951 . S
H1838 C1858 0.950 . S
H1839 C1859 0.950 . S
H1840 C1861 0.950 . S
H1841 C1864 0.950 . S
H1842 C1865 0.950 . S
H1843 C1867 0.950 . S
H1844 C1868 0.950 . S
H1845 C1869 0.951 . S
H1846 C1871 0.951 . S
H1847 C1873 0.950 . S
H1848 C1874 0.950 . S
H1849 C1876 0.950 . S
H1850 C1879 0.950 . S
H1851 C1880 0.950 . S
H1852 C1882 0.950 . S
H1853 C1883 0.950 . S
C1854 H1836 0.951 . S
C1854 C1855 1.366 . S
C1854 C1856 1.388 . S
C1855 C1854 1.366 . S
C1855 C1859 1.385 . S
C1856 H1837 0.951 . S
C1856 C1854 1.388 . S
C1856 C1857 1.366 . S
C1857 C1856 1.366 . S
C1857 C1858 1.414 . S
C1857 C1860 1.499 . S
C1858 H1838 0.950 . S
C1858 C1857 1.414 . S
C1858 C1859 1.374 . S
C1859 H1839 0.950 . S
C1859 C1855 1.385 . S
C1859 C1858 1.374 . S
C1860 C1857 1.499 . S
C1860 C1861 1.373 . S
C1860 C1862 1.389 . S
C1861 H1840 0.950 . S
C1861 C1860 1.373 . S
C1861 C1877 1.377 . S
C1862 C1860 1.389 . S
C1862 C1863 1.524 . S
C1862 C1876 1.377 . S
C1863 C1862 1.524 . S
C1863 C1864 1.397 . S
C1863 C1868 1.363 . S
C1864 H1841 0.950 . S
C1864 C1863 1.397 . S
C1864 C1865 1.334 . S
C1865 H1842 0.950 . S
C1865 C1864 1.334 . S
C1865 C1866 1.287 . S
C1866 C1865 1.287 . S
C1866 C1867 1.524 . S
C1866 H1885 0.913 . S
C1867 H1843 0.950 . S
C1867 C1866 1.524 . S
C1867 C1868 1.415 . S
C1868 H1844 0.950 . S
C1868 C1863 1.363 . S
C1868 C1867 1.415 . S
C1869 H1845 0.951 . S
C1869 C1870 1.366 . S
C1869 C1871 1.388 . S
C1870 C1869 1.366 . S
C1870 C1874 1.385 . S
C1871 H1846 0.951 . S
C1871 C1869 1.388 . S
C1871 C1872 1.366 . S
C1872 C1871 1.366 . S
C1872 C1873 1.414 . S
C1872 C1875 1.499 . S
C1873 H1847 0.950 . S
C1873 C1872 1.414 . S
C1873 C1874 1.374 . S
C1874 H1848 0.950 . S
C1874 C1870 1.385 . S
C1874 C1873 1.374 . S
C1875 C1872 1.499 . S
C1875 C1876 1.373 . S
C1875 C1877 1.389 . S
C1876 H1849 0.950 . S
C1876 C1862 1.377 . S
C1876 C1875 1.373 . S
C1877 C1861 1.377 . S
C1877 C1875 1.389 . S
C1877 C1878 1.524 . S
C1878 C1877 1.524 . S
C1878 C1879 1.397 . S
C1878 C1883 1.363 . S
C1879 H1850 0.950 . S
C1879 C1878 1.397 . S
C1879 C1880 1.334 . S
C1880 H1851 0.950 . S
C1880 C1879 1.334 . S
C1880 C1881 1.287 . S
C1881 C1880 1.287 . S
C1881 C1882 1.524 . S
C1881 H1884 0.999 . S
C1882 H1852 0.950 . S
C1882 C1881 1.524 . S
C1882 C1883 1.415 . S
C1883 H1853 0.950 . S
C1883 C1878 1.363 . S
C1883 C1882 1.415 . S
H1884 C1881 0.999 . S
H1885 C1866 0.913 . S
H1886 C1904 0.951 . S
H1887 C1906 0.951 . S
H1888 C1908 0.950 . S
H1889 C1909 0.950 . S
H1890 C1911 0.950 . S
H1891 C1914 0.950 . S
H1892 C1915 0.950 . S
H1893 C1917 0.950 . S
H1894 C1918 0.950 . S
H1895 C1919 0.951 . S
H1896 C1921 0.951 . S
H1897 C1923 0.950 . S
H1898 C1924 0.950 . S
H1899 C1926 0.950 . S
H1900 C1929 0.950 . S
H1901 C1930 0.950 . S
H1902 C1932 0.950 . S
H1903 C1933 0.950 . S
C1904 H1886 0.951 . S
C1904 C1905 1.366 . S
C1904 C1906 1.388 . S
C1905 C1904 1.366 . S
C1905 C1909 1.385 . S
C1906 H1887 0.951 . S
C1906 C1904 1.388 . S
C1906 C1907 1.366 . S
C1907 C1906 1.366 . S
C1907 C1908 1.414 . S
C1907 C1910 1.499 . S
C1908 H1888 0.950 . S
C1908 C1907 1.414 . S
C1908 C1909 1.374 . S
C1909 H1889 0.950 . S
C1909 C1905 1.385 . S
C1909 C1908 1.374 . S
C1910 C1907 1.499 . S
C1910 C1911 1.373 . S
C1910 C1912 1.389 . S
C1911 H1890 0.950 . S
C1911 C1910 1.373 . S
C1911 C1927 1.377 . S
C1912 C1910 1.389 . S
C1912 C1913 1.524 . S
C1912 C1926 1.377 . S
C1913 C1912 1.524 . S
C1913 C1914 1.397 . S
C1913 C1918 1.363 . S
C1914 H1891 0.950 . S
C1914 C1913 1.397 . S
C1914 C1915 1.334 . S
C1915 H1892 0.950 . S
C1915 C1914 1.334 . S
C1915 C1916 1.287 . S
C1916 C1915 1.287 . S
C1916 C1917 1.524 . S
C1916 H1935 0.913 . S
C1917 H1893 0.950 . S
C1917 C1916 1.524 . S
C1917 C1918 1.415 . S
C1918 H1894 0.950 . S
C1918 C1913 1.363 . S
C1918 C1917 1.415 . S
C1919 H1895 0.951 . S
C1919 C1920 1.366 . S
C1919 C1921 1.388 . S
C1920 C1919 1.366 . S
C1920 C1924 1.385 . S
C1921 H1896 0.951 . S
C1921 C1919 1.388 . S
C1921 C1922 1.366 . S
C1922 C1921 1.366 . S
C1922 C1923 1.414 . S
C1922 C1925 1.499 . S
C1923 H1897 0.950 . S
C1923 C1922 1.414 . S
C1923 C1924 1.374 . S
C1924 H1898 0.950 . S
C1924 C1920 1.385 . S
C1924 C1923 1.374 . S
C1925 C1922 1.499 . S
C1925 C1926 1.373 . S
C1925 C1927 1.389 . S
C1926 H1899 0.950 . S
C1926 C1912 1.377 . S
C1926 C1925 1.373 . S
C1927 C1911 1.377 . S
C1927 C1925 1.389 . S
C1927 C1928 1.524 . S
C1928 C1927 1.524 . S
C1928 C1929 1.397 . S
C1928 C1933 1.363 . S
C1929 H1900 0.950 . S
C1929 C1928 1.397 . S
C1929 C1930 1.334 . S
C1930 H1901 0.950 . S
C1930 C1929 1.334 . S
C1930 C1931 1.287 . S
C1931 C1930 1.287 . S
C1931 C1932 1.524 . S
C1931 H1934 0.999 . S
C1932 H1902 0.950 . S
C1932 C1931 1.524 . S
C1932 C1933 1.415 . S
C1933 H1903 0.950 . S
C1933 C1928 1.363 . S
C1933 C1932 1.415 . S
H1934 C1931 0.999 . S
H1935 C1916 0.913 . S
H1936 C1954 0.951 . S
H1937 C1956 0.951 . S
H1938 C1958 0.950 . S
H1939 C1959 0.950 . S
H1940 C1961 0.950 . S
H1941 C1964 0.950 . S
H1942 C1965 0.950 . S
H1943 C1967 0.950 . S
H1944 C1968 0.950 . S
H1945 C1969 0.951 . S
H1946 C1971 0.951 . S
H1947 C1973 0.950 . S
H1948 C1974 0.950 . S
H1949 C1976 0.950 . S
H1950 C1979 0.950 . S
H1951 C1980 0.950 . S
H1952 C1982 0.950 . S
H1953 C1983 0.950 . S
C1954 H1936 0.951 . S
C1954 C1955 1.366 . S
C1954 C1956 1.388 . S
C1955 C1954 1.366 . S
C1955 C1959 1.385 . S
C1956 H1937 0.951 . S
C1956 C1954 1.388 . S
C1956 C1957 1.366 . S
C1957 C1956 1.366 . S
C1957 C1958 1.414 . S
C1957 C1960 1.499 . S
C1958 H1938 0.950 . S
C1958 C1957 1.414 . S
C1958 C1959 1.374 . S
C1959 H1939 0.950 . S
C1959 C1955 1.385 . S
C1959 C1958 1.374 . S
C1960 C1957 1.499 . S
C1960 C1961 1.373 . S
C1960 C1962 1.389 . S
C1961 H1940 0.950 . S
C1961 C1960 1.373 . S
C1961 C1977 1.377 . S
C1962 C1960 1.389 . S
C1962 C1963 1.524 . S
C1962 C1976 1.377 . S
C1963 C1962 1.524 . S
C1963 C1964 1.397 . S
C1963 C1968 1.363 . S
C1964 H1941 0.950 . S
C1964 C1963 1.397 . S
C1964 C1965 1.334 . S
C1965 H1942 0.950 . S
C1965 C1964 1.334 . S
C1965 C1966 1.287 . S
C1966 C1965 1.287 . S
C1966 C1967 1.524 . S
C1966 H1985 0.913 . S
C1967 H1943 0.950 . S
C1967 C1966 1.524 . S
C1967 C1968 1.415 . S
C1968 H1944 0.950 . S
C1968 C1963 1.363 . S
C1968 C1967 1.415 . S
C1969 H1945 0.951 . S
C1969 C1970 1.366 . S
C1969 C1971 1.388 . S
C1970 C1969 1.366 . S
C1970 C1974 1.385 . S
C1971 H1946 0.951 . S
C1971 C1969 1.388 . S
C1971 C1972 1.366 . S
C1972 C1971 1.366 . S
C1972 C1973 1.414 . S
C1972 C1975 1.499 . S
C1973 H1947 0.950 . S
C1973 C1972 1.414 . S
C1973 C1974 1.374 . S
C1974 H1948 0.950 . S
C1974 C1970 1.385 . S
C1974 C1973 1.374 . S
C1975 C1972 1.499 . S
C1975 C1976 1.373 . S
C1975 C1977 1.389 . S
C1976 H1949 0.950 . S
C1976 C1962 1.377 . S
C1976 C1975 1.373 . S
C1977 C1961 1.377 . S
C1977 C1975 1.389 . S
C1977 C1978 1.524 . S
C1978 C1977 1.524 . S
C1978 C1979 1.397 . S
C1978 C1983 1.363 . S
C1979 H1950 0.950 . S
C1979 C1978 1.397 . S
C1979 C1980 1.334 . S
C1980 H1951 0.950 . S
C1980 C1979 1.334 . S
C1980 C1981 1.287 . S
C1981 C1980 1.287 . S
C1981 C1982 1.524 . S
C1981 H1984 0.999 . S
C1982 H1952 0.950 . S
C1982 C1981 1.524 . S
C1982 C1983 1.415 . S
C1983 H1953 0.950 . S
C1983 C1978 1.363 . S
C1983 C1982 1.415 . S
H1984 C1981 0.999 . S
H1985 C1966 0.913 . S
H1986 C2004 0.951 . S
H1987 C2006 0.951 . S
H1988 C2008 0.950 . S
H1989 C2009 0.950 . S
H1990 C2011 0.950 . S
H1991 C2014 0.950 . S
H1992 C2015 0.950 . S
H1993 C2017 0.950 . S
H1994 C2018 0.950 . S
H1995 C2019 0.951 . S
H1996 C2021 0.951 . S
H1997 C2023 0.950 . S
H1998 C2024 0.950 . S
H1999 C2026 0.950 . S
H2000 C2029 0.950 . S
H2001 C2030 0.950 . S
H2002 C2032 0.950 . S
H2003 C2033 0.950 . S
C2004 H1986 0.951 . S
C2004 C2005 1.366 . S
C2004 C2006 1.388 . S
C2005 C2004 1.366 . S
C2005 C2009 1.385 . S
C2006 H1987 0.951 . S
C2006 C2004 1.388 . S
C2006 C2007 1.366 . S
C2007 C2006 1.366 . S
C2007 C2008 1.414 . S
C2007 C2010 1.499 . S
C2008 H1988 0.950 . S
C2008 C2007 1.414 . S
C2008 C2009 1.374 . S
C2009 H1989 0.950 . S
C2009 C2005 1.385 . S
C2009 C2008 1.374 . S
C2010 C2007 1.499 . S
C2010 C2011 1.373 . S
C2010 C2012 1.389 . S
C2011 H1990 0.950 . S
C2011 C2010 1.373 . S
C2011 C2027 1.377 . S
C2012 C2010 1.389 . S
C2012 C2013 1.524 . S
C2012 C2026 1.377 . S
C2013 C2012 1.524 . S
C2013 C2014 1.397 . S
C2013 C2018 1.363 . S
C2014 H1991 0.950 . S
C2014 C2013 1.397 . S
C2014 C2015 1.334 . S
C2015 H1992 0.950 . S
C2015 C2014 1.334 . S
C2015 C2016 1.287 . S
C2016 C2015 1.287 . S
C2016 C2017 1.524 . S
C2016 H2035 0.913 . S
C2017 H1993 0.950 . S
C2017 C2016 1.524 . S
C2017 C2018 1.415 . S
C2018 H1994 0.950 . S
C2018 C2013 1.363 . S
C2018 C2017 1.415 . S
C2019 H1995 0.951 . S
C2019 C2020 1.366 . S
C2019 C2021 1.388 . S
C2020 C2019 1.366 . S
C2020 C2024 1.385 . S
C2021 H1996 0.951 . S
C2021 C2019 1.388 . S
C2021 C2022 1.366 . S
C2022 C2021 1.366 . S
C2022 C2023 1.414 . S
C2022 C2025 1.499 . S
C2023 H1997 0.950 . S
C2023 C2022 1.414 . S
C2023 C2024 1.374 . S
C2024 H1998 0.950 . S
C2024 C2020 1.385 . S
C2024 C2023 1.374 . S
C2025 C2022 1.499 . S
C2025 C2026 1.373 . S
C2025 C2027 1.389 . S
C2026 H1999 0.950 . S
C2026 C2012 1.377 . S
C2026 C2025 1.373 . S
C2027 C2011 1.377 . S
C2027 C2025 1.389 . S
C2027 C2028 1.524 . S
C2028 C2027 1.524 . S
C2028 C2029 1.397 . S
C2028 C2033 1.363 . S
C2029 H2000 0.950 . S
C2029 C2028 1.397 . S
C2029 C2030 1.334 . S
C2030 H2001 0.950 . S
C2030 C2029 1.334 . S
C2030 C2031 1.287 . S
C2031 C2030 1.287 . S
C2031 C2032 1.524 . S
C2031 H2034 0.999 . S
C2032 H2002 0.950 . S
C2032 C2031 1.524 . S
C2032 C2033 1.415 . S
C2033 H2003 0.950 . S
C2033 C2028 1.363 . S
C2033 C2032 1.415 . S
H2034 C2031 0.999 . S
H2035 C2016 0.913 . S
H2036 C2054 0.951 . S
H2037 C2056 0.951 . S
H2038 C2058 0.950 . S
H2039 C2059 0.950 . S
H2040 C2061 0.950 . S
H2041 C2064 0.950 . S
H2042 C2065 0.950 . S
H2043 C2067 0.950 . S
H2044 C2068 0.950 . S
H2045 C2069 0.951 . S
H2046 C2071 0.951 . S
H2047 C2073 0.950 . S
H2048 C2074 0.950 . S
H2049 C2076 0.950 . S
H2050 C2079 0.950 . S
H2051 C2080 0.950 . S
H2052 C2082 0.950 . S
H2053 C2083 0.950 . S
C2054 H2036 0.951 . S
C2054 C2055 1.366 . S
C2054 C2056 1.388 . S
C2055 C2054 1.366 . S
C2055 C2059 1.385 . S
C2056 H2037 0.951 . S
C2056 C2054 1.388 . S
C2056 C2057 1.366 . S
C2057 C2056 1.366 . S
C2057 C2058 1.414 . S
C2057 C2060 1.499 . S
C2058 H2038 0.950 . S
C2058 C2057 1.414 . S
C2058 C2059 1.374 . S
C2059 H2039 0.950 . S
C2059 C2055 1.385 . S
C2059 C2058 1.374 . S
C2060 C2057 1.499 . S
C2060 C2061 1.373 . S
C2060 C2062 1.389 . S
C2061 H2040 0.950 . S
C2061 C2060 1.373 . S
C2061 C2077 1.377 . S
C2062 C2060 1.389 . S
C2062 C2063 1.524 . S
C2062 C2076 1.377 . S
C2063 C2062 1.524 . S
C2063 C2064 1.397 . S
C2063 C2068 1.363 . S
C2064 H2041 0.950 . S
C2064 C2063 1.397 . S
C2064 C2065 1.334 . S
C2065 H2042 0.950 . S
C2065 C2064 1.334 . S
C2065 C2066 1.287 . S
C2066 C2065 1.287 . S
C2066 C2067 1.524 . S
C2066 H2085 0.913 . S
C2067 H2043 0.950 . S
C2067 C2066 1.524 . S
C2067 C2068 1.415 . S
C2068 H2044 0.950 . S
C2068 C2063 1.363 . S
C2068 C2067 1.415 . S
C2069 H2045 0.951 . S
C2069 C2070 1.366 . S
C2069 C2071 1.388 . S
C2070 C2069 1.366 . S
C2070 C2074 1.385 . S
C2071 H2046 0.951 . S
C2071 C2069 1.388 . S
C2071 C2072 1.366 . S
C2072 C2071 1.366 . S
C2072 C2073 1.414 . S
C2072 C2075 1.499 . S
C2073 H2047 0.950 . S
C2073 C2072 1.414 . S
C2073 C2074 1.374 . S
C2074 H2048 0.950 . S
C2074 C2070 1.385 . S
C2074 C2073 1.374 . S
C2075 C2072 1.499 . S
C2075 C2076 1.373 . S
C2075 C2077 1.389 . S
C2076 H2049 0.950 . S
C2076 C2062 1.377 . S
C2076 C2075 1.373 . S
C2077 C2061 1.377 . S
C2077 C2075 1.389 . S
C2077 C2078 1.524 . S
C2078 C2077 1.524 . S
C2078 C2079 1.397 . S
C2078 C2083 1.363 . S
C2079 H2050 0.950 . S
C2079 C2078 1.397 . S
C2079 C2080 1.334 . S
C2080 H2051 0.950 . S
C2080 C2079 1.334 . S
C2080 C2081 1.287 . S
C2081 C2080 1.287 . S
C2081 C2082 1.524 . S
C2081 H2084 0.999 . S
C2082 H2052 0.950 . S
C2082 C2081 1.524 . S
C2082 C2083 1.415 . S
C2083 H2053 0.950 . S
C2083 C2078 1.363 . S
C2083 C2082 1.415 . S
H2084 C2081 0.999 . S
H2085 C2066 0.913 . S
H2086 C2104 0.951 . S
H2087 C2106 0.951 . S
H2088 C2108 0.950 . S
H2089 C2109 0.950 . S
H2090 C2111 0.950 . S
H2091 C2114 0.950 . S
H2092 C2115 0.950 . S
H2093 C2117 0.950 . S
H2094 C2118 0.950 . S
H2095 C2119 0.951 . S
H2096 C2121 0.951 . S
H2097 C2123 0.950 . S
H2098 C2124 0.950 . S
H2099 C2126 0.950 . S
H2100 C2129 0.950 . S
H2101 C2130 0.950 . S
H2102 C2132 0.950 . S
H2103 C2133 0.950 . S
C2104 H2086 0.951 . S
C2104 C2105 1.366 . S
C2104 C2106 1.388 . S
C2105 C2104 1.366 . S
C2105 C2109 1.385 . S
C2106 H2087 0.951 . S
C2106 C2104 1.388 . S
C2106 C2107 1.366 . S
C2107 C2106 1.366 . S
C2107 C2108 1.414 . S
C2107 C2110 1.499 . S
C2108 H2088 0.950 . S
C2108 C2107 1.414 . S
C2108 C2109 1.374 . S
C2109 H2089 0.950 . S
C2109 C2105 1.385 . S
C2109 C2108 1.374 . S
C2110 C2107 1.499 . S
C2110 C2111 1.373 . S
C2110 C2112 1.389 . S
C2111 H2090 0.950 . S
C2111 C2110 1.373 . S
C2111 C2127 1.377 . S
C2112 C2110 1.389 . S
C2112 C2113 1.524 . S
C2112 C2126 1.377 . S
C2113 C2112 1.524 . S
C2113 C2114 1.397 . S
C2113 C2118 1.363 . S
C2114 H2091 0.950 . S
C2114 C2113 1.397 . S
C2114 C2115 1.334 . S
C2115 H2092 0.950 . S
C2115 C2114 1.334 . S
C2115 C2116 1.287 . S
C2116 C2115 1.287 . S
C2116 C2117 1.524 . S
C2116 H2135 0.913 . S
C2117 H2093 0.950 . S
C2117 C2116 1.524 . S
C2117 C2118 1.415 . S
C2118 H2094 0.950 . S
C2118 C2113 1.363 . S
C2118 C2117 1.415 . S
C2119 H2095 0.951 . S
C2119 C2120 1.366 . S
C2119 C2121 1.388 . S
C2120 C2119 1.366 . S
C2120 C2124 1.385 . S
C2121 H2096 0.951 . S
C2121 C2119 1.388 . S
C2121 C2122 1.366 . S
C2122 C2121 1.366 . S
C2122 C2123 1.414 . S
C2122 C2125 1.499 . S
C2123 H2097 0.950 . S
C2123 C2122 1.414 . S
C2123 C2124 1.374 . S
C2124 H2098 0.950 . S
C2124 C2120 1.385 . S
C2124 C2123 1.374 . S
C2125 C2122 1.499 . S
C2125 C2126 1.373 . S
C2125 C2127 1.389 . S
C2126 H2099 0.950 . S
C2126 C2112 1.377 . S
C2126 C2125 1.373 . S
C2127 C2111 1.377 . S
C2127 C2125 1.389 . S
C2127 C2128 1.524 . S
C2128 C2127 1.524 . S
C2128 C2129 1.397 . S
C2128 C2133 1.363 . S
C2129 H2100 0.950 . S
C2129 C2128 1.397 . S
C2129 C2130 1.334 . S
C2130 H2101 0.950 . S
C2130 C2129 1.334 . S
C2130 C2131 1.287 . S
C2131 C2130 1.287 . S
C2131 C2132 1.524 . S
C2131 H2134 0.999 . S
C2132 H2102 0.950 . S
C2132 C2131 1.524 . S
C2132 C2133 1.415 . S
C2133 H2103 0.950 . S
C2133 C2128 1.363 . S
C2133 C2132 1.415 . S
H2134 C2131 0.999 . S
H2135 C2116 0.913 . S
H2136 C2154 0.951 . S
H2137 C2156 0.951 . S
H2138 C2158 0.950 . S
H2139 C2159 0.950 . S
H2140 C2161 0.950 . S
H2141 C2164 0.950 . S
H2142 C2165 0.950 . S
H2143 C2167 0.950 . S
H2144 C2168 0.950 . S
H2145 C2169 0.951 . S
H2146 C2171 0.951 . S
H2147 C2173 0.950 . S
H2148 C2174 0.950 . S
H2149 C2176 0.950 . S
H2150 C2179 0.950 . S
H2151 C2180 0.950 . S
H2152 C2182 0.950 . S
H2153 C2183 0.950 . S
C2154 H2136 0.951 . S
C2154 C2155 1.366 . S
C2154 C2156 1.388 . S
C2155 C2154 1.366 . S
C2155 C2159 1.385 . S
C2156 H2137 0.951 . S
C2156 C2154 1.388 . S
C2156 C2157 1.366 . S
C2157 C2156 1.366 . S
C2157 C2158 1.414 . S
C2157 C2160 1.499 . S
C2158 H2138 0.950 . S
C2158 C2157 1.414 . S
C2158 C2159 1.374 . S
C2159 H2139 0.950 . S
C2159 C2155 1.385 . S
C2159 C2158 1.374 . S
C2160 C2157 1.499 . S
C2160 C2161 1.373 . S
C2160 C2162 1.389 . S
C2161 H2140 0.950 . S
C2161 C2160 1.373 . S
C2161 C2177 1.377 . S
C2162 C2160 1.389 . S
C2162 C2163 1.524 . S
C2162 C2176 1.377 . S
C2163 C2162 1.524 . S
C2163 C2164 1.397 . S
C2163 C2168 1.363 . S
C2164 H2141 0.950 . S
C2164 C2163 1.397 . S
C2164 C2165 1.334 . S
C2165 H2142 0.950 . S
C2165 C2164 1.334 . S
C2165 C2166 1.287 . S
C2166 C2165 1.287 . S
C2166 C2167 1.524 . S
C2166 H2185 0.913 . S
C2167 H2143 0.950 . S
C2167 C2166 1.524 . S
C2167 C2168 1.415 . S
C2168 H2144 0.950 . S
C2168 C2163 1.363 . S
C2168 C2167 1.415 . S
C2169 H2145 0.951 . S
C2169 C2170 1.366 . S
C2169 C2171 1.388 . S
C2170 C2169 1.366 . S
C2170 C2174 1.385 . S
C2171 H2146 0.951 . S
C2171 C2169 1.388 . S
C2171 C2172 1.366 . S
C2172 C2171 1.366 . S
C2172 C2173 1.414 . S
C2172 C2175 1.499 . S
C2173 H2147 0.950 . S
C2173 C2172 1.414 . S
C2173 C2174 1.374 . S
C2174 H2148 0.950 . S
C2174 C2170 1.385 . S
C2174 C2173 1.374 . S
C2175 C2172 1.499 . S
C2175 C2176 1.373 . S
C2175 C2177 1.389 . S
C2176 H2149 0.950 . S
C2176 C2162 1.377 . S
C2176 C2175 1.373 . S
C2177 C2161 1.377 . S
C2177 C2175 1.389 . S
C2177 C2178 1.524 . S
C2178 C2177 1.524 . S
C2178 C2179 1.397 . S
C2178 C2183 1.363 . S
C2179 H2150 0.950 . S
C2179 C2178 1.397 . S
C2179 C2180 1.334 . S
C2180 H2151 0.950 . S
C2180 C2179 1.334 . S
C2180 C2181 1.287 . S
C2181 C2180 1.287 . S
C2181 C2182 1.524 . S
C2181 H2184 0.999 . S
C2182 H2152 0.950 . S
C2182 C2181 1.524 . S
C2182 C2183 1.415 . S
C2183 H2153 0.950 . S
C2183 C2178 1.363 . S
C2183 C2182 1.415 . S
H2184 C2181 0.999 . S
H2185 C2166 0.913 . S
H2186 C2204 0.951 . S
H2187 C2206 0.951 . S
H2188 C2208 0.950 . S
H2189 C2209 0.950 . S
H2190 C2211 0.950 . S
H2191 C2214 0.950 . S
H2192 C2215 0.950 . S
H2193 C2217 0.950 . S
H2194 C2218 0.950 . S
H2195 C2219 0.951 . S
H2196 C2221 0.951 . S
H2197 C2223 0.950 . S
H2198 C2224 0.950 . S
H2199 C2226 0.950 . S
H2200 C2229 0.950 . S
H2201 C2230 0.950 . S
H2202 C2232 0.950 . S
H2203 C2233 0.950 . S
C2204 H2186 0.951 . S
C2204 C2205 1.366 . S
C2204 C2206 1.388 . S
C2205 C2204 1.366 . S
C2205 C2209 1.385 . S
C2206 H2187 0.951 . S
C2206 C2204 1.388 . S
C2206 C2207 1.366 . S
C2207 C2206 1.366 . S
C2207 C2208 1.414 . S
C2207 C2210 1.499 . S
C2208 H2188 0.950 . S
C2208 C2207 1.414 . S
C2208 C2209 1.374 . S
C2209 H2189 0.950 . S
C2209 C2205 1.385 . S
C2209 C2208 1.374 . S
C2210 C2207 1.499 . S
C2210 C2211 1.373 . S
C2210 C2212 1.389 . S
C2211 H2190 0.950 . S
C2211 C2210 1.373 . S
C2211 C2227 1.377 . S
C2212 C2210 1.389 . S
C2212 C2213 1.524 . S
C2212 C2226 1.377 . S
C2213 C2212 1.524 . S
C2213 C2214 1.397 . S
C2213 C2218 1.363 . S
C2214 H2191 0.950 . S
C2214 C2213 1.397 . S
C2214 C2215 1.334 . S
C2215 H2192 0.950 . S
C2215 C2214 1.334 . S
C2215 C2216 1.287 . S
C2216 C2215 1.287 . S
C2216 C2217 1.524 . S
C2216 H2235 0.913 . S
C2217 H2193 0.950 . S
C2217 C2216 1.524 . S
C2217 C2218 1.415 . S
C2218 H2194 0.950 . S
C2218 C2213 1.363 . S
C2218 C2217 1.415 . S
C2219 H2195 0.951 . S
C2219 C2220 1.366 . S
C2219 C2221 1.388 . S
C2220 C2219 1.366 . S
C2220 C2224 1.385 . S
C2221 H2196 0.951 . S
C2221 C2219 1.388 . S
C2221 C2222 1.366 . S
C2222 C2221 1.366 . S
C2222 C2223 1.414 . S
C2222 C2225 1.499 . S
C2223 H2197 0.950 . S
C2223 C2222 1.414 . S
C2223 C2224 1.374 . S
C2224 H2198 0.950 . S
C2224 C2220 1.385 . S
C2224 C2223 1.374 . S
C2225 C2222 1.499 . S
C2225 C2226 1.373 . S
C2225 C2227 1.389 . S
C2226 H2199 0.950 . S
C2226 C2212 1.377 . S
C2226 C2225 1.373 . S
C2227 C2211 1.377 . S
C2227 C2225 1.389 . S
C2227 C2228 1.524 . S
C2228 C2227 1.524 . S
C2228 C2229 1.397 . S
C2228 C2233 1.363 . S
C2229 H2200 0.950 . S
C2229 C2228 1.397 . S
C2229 C2230 1.334 . S
C2230 H2201 0.950 . S
C2230 C2229 1.334 . S
C2230 C2231 1.287 . S
C2231 C2230 1.287 . S
C2231 C2232 1.524 . S
C2231 H2234 0.999 . S
C2232 H2202 0.950 . S
C2232 C2231 1.524 . S
C2232 C2233 1.415 . S
C2233 H2203 0.950 . S
C2233 C2228 1.363 . S
C2233 C2232 1.415 . S
H2234 C2231 0.999 . S
H2235 C2216 0.913 . S
H2236 C2254 0.951 . S
H2237 C2256 0.951 . S
H2238 C2258 0.950 . S
H2239 C2259 0.950 . S
H2240 C2261 0.950 . S
H2241 C2264 0.950 . S
H2242 C2265 0.950 . S
H2243 C2267 0.950 . S
H2244 C2268 0.950 . S
H2245 C2269 0.951 . S
H2246 C2271 0.951 . S
H2247 C2273 0.950 . S
H2248 C2274 0.950 . S
H2249 C2276 0.950 . S
H2250 C2279 0.950 . S
H2251 C2280 0.950 . S
H2252 C2282 0.950 . S
H2253 C2283 0.950 . S
C2254 H2236 0.951 . S
C2254 C2255 1.366 . S
C2254 C2256 1.388 . S
C2255 C2254 1.366 . S
C2255 C2259 1.385 . S
C2256 H2237 0.951 . S
C2256 C2254 1.388 . S
C2256 C2257 1.366 . S
C2257 C2256 1.366 . S
C2257 C2258 1.414 . S
C2257 C2260 1.499 . S
C2258 H2238 0.950 . S
C2258 C2257 1.414 . S
C2258 C2259 1.374 . S
C2259 H2239 0.950 . S
C2259 C2255 1.385 . S
C2259 C2258 1.374 . S
C2260 C2257 1.499 . S
C2260 C2261 1.373 . S
C2260 C2262 1.389 . S
C2261 H2240 0.950 . S
C2261 C2260 1.373 . S
C2261 C2277 1.377 . S
C2262 C2260 1.389 . S
C2262 C2263 1.524 . S
C2262 C2276 1.377 . S
C2263 C2262 1.524 . S
C2263 C2264 1.397 . S
C2263 C2268 1.363 . S
C2264 H2241 0.950 . S
C2264 C2263 1.397 . S
C2264 C2265 1.334 . S
C2265 H2242 0.950 . S
C2265 C2264 1.334 . S
C2265 C2266 1.287 . S
C2266 C2265 1.287 . S
C2266 C2267 1.524 . S
C2266 H2285 0.913 . S
C2267 H2243 0.950 . S
C2267 C2266 1.524 . S
C2267 C2268 1.415 . S
C2268 H2244 0.950 . S
C2268 C2263 1.363 . S
C2268 C2267 1.415 . S
C2269 H2245 0.951 . S
C2269 C2270 1.366 . S
C2269 C2271 1.388 . S
C2270 C2269 1.366 . S
C2270 C2274 1.385 . S
C2271 H2246 0.951 . S
C2271 C2269 1.388 . S
C2271 C2272 1.366 . S
C2272 C2271 1.366 . S
C2272 C2273 1.414 . S
C2272 C2275 1.499 . S
C2273 H2247 0.950 . S
C2273 C2272 1.414 . S
C2273 C2274 1.374 . S
C2274 H2248 0.950 . S
C2274 C2270 1.385 . S
C2274 C2273 1.374 . S
C2275 C2272 1.499 . S
C2275 C2276 1.373 . S
C2275 C2277 1.389 . S
C2276 H2249 0.950 . S
C2276 C2262 1.377 . S
C2276 C2275 1.373 . S
C2277 C2261 1.377 . S
C2277 C2275 1.389 . S
C2277 C2278 1.524 . S
C2278 C2277 1.524 . S
C2278 C2279 1.397 . S
C2278 C2283 1.363 . S
C2279 H2250 0.950 . S
C2279 C2278 1.397 . S
C2279 C2280 1.334 . S
C2280 H2251 0.950 . S
C2280 C2279 1.334 . S
C2280 C2281 1.287 . S
C2281 C2280 1.287 . S
C2281 C2282 1.524 . S
C2281 H2284 0.999 . S
C2282 H2252 0.950 . S
C2282 C2281 1.524 . S
C2282 C2283 1.415 . S
C2283 H2253 0.950 . S
C2283 C2278 1.363 . S
C2283 C2282 1.415 . S
H2284 C2281 0.999 . S
H2285 C2266 0.913 . S
H2286 C2304 0.951 . S
H2287 C2306 0.951 . S
H2288 C2308 0.950 . S
H2289 C2309 0.950 . S
H2290 C2311 0.950 . S
H2291 C2314 0.950 . S
H2292 C2315 0.950 . S
H2293 C2317 0.950 . S
H2294 C2318 0.950 . S
H2295 C2319 0.951 . S
H2296 C2321 0.951 . S
H2297 C2323 0.950 . S
H2298 C2324 0.950 . S
H2299 C2326 0.950 . S
H2300 C2329 0.950 . S
H2301 C2330 0.950 . S
H2302 C2332 0.950 . S
H2303 C2333 0.950 . S
C2304 H2286 0.951 . S
C2304 C2305 1.366 . S
C2304 C2306 1.388 . S
C2305 C2304 1.366 . S
C2305 C2309 1.385 . S
C2306 H2287 0.951 . S
C2306 C2304 1.388 . S
C2306 C2307 1.366 . S
C2307 C2306 1.366 . S
C2307 C2308 1.414 . S
C2307 C2310 1.499 . S
C2308 H2288 0.950 . S
C2308 C2307 1.414 . S
C2308 C2309 1.374 . S
C2309 H2289 0.950 . S
C2309 C2305 1.385 . S
C2309 C2308 1.374 . S
C2310 C2307 1.499 . S
C2310 C2311 1.373 . S
C2310 C2312 1.389 . S
C2311 H2290 0.950 . S
C2311 C2310 1.373 . S
C2311 C2327 1.377 . S
C2312 C2310 1.389 . S
C2312 C2313 1.524 . S
C2312 C2326 1.377 . S
C2313 C2312 1.524 . S
C2313 C2314 1.397 . S
C2313 C2318 1.363 . S
C2314 H2291 0.950 . S
C2314 C2313 1.397 . S
C2314 C2315 1.334 . S
C2315 H2292 0.950 . S
C2315 C2314 1.334 . S
C2315 C2316 1.287 . S
C2316 C2315 1.287 . S
C2316 C2317 1.524 . S
C2316 H2335 0.913 . S
C2317 H2293 0.950 . S
C2317 C2316 1.524 . S
C2317 C2318 1.415 . S
C2318 H2294 0.950 . S
C2318 C2313 1.363 . S
C2318 C2317 1.415 . S
C2319 H2295 0.951 . S
C2319 C2320 1.366 . S
C2319 C2321 1.388 . S
C2320 C2319 1.366 . S
C2320 C2324 1.385 . S
C2321 H2296 0.951 . S
C2321 C2319 1.388 . S
C2321 C2322 1.366 . S
C2322 C2321 1.366 . S
C2322 C2323 1.414 . S
C2322 C2325 1.499 . S
C2323 H2297 0.950 . S
C2323 C2322 1.414 . S
C2323 C2324 1.374 . S
C2324 H2298 0.950 . S
C2324 C2320 1.385 . S
C2324 C2323 1.374 . S
C2325 C2322 1.499 . S
C2325 C2326 1.373 . S
C2325 C2327 1.389 . S
C2326 H2299 0.950 . S
C2326 C2312 1.377 . S
C2326 C2325 1.373 . S
C2327 C2311 1.377 . S
C2327 C2325 1.389 . S
C2327 C2328 1.524 . S
C2328 C2327 1.524 . S
C2328 C2329 1.397 . S
C2328 C2333 1.363 . S
C2329 H2300 0.950 . S
C2329 C2328 1.397 . S
C2329 C2330 1.334 . S
C2330 H2301 0.950 . S
C2330 C2329 1.334 . S
C2330 C2331 1.287 . S
C2331 C2330 1.287 . S
C2331 C2332 1.524 . S
C2331 H2334 0.999 . S
C2332 H2302 0.950 . S
C2332 C2331 1.524 . S
C2332 C2333 1.415 . S
C2333 H2303 0.950 . S
C2333 C2328 1.363 . S
C2333 C2332 1.415 . S
H2334 C2331 0.999 . S
H2335 C2316 0.913 . S
H2336 C2354 0.951 . S
H2337 C2356 0.951 . S
H2338 C2358 0.950 . S
H2339 C2359 0.950 . S
H2340 C2361 0.950 . S
H2341 C2364 0.950 . S
H2342 C2365 0.950 . S
H2343 C2367 0.950 . S
H2344 C2368 0.950 . S
H2345 C2369 0.951 . S
H2346 C2371 0.951 . S
H2347 C2373 0.950 . S
H2348 C2374 0.950 . S
H2349 C2376 0.950 . S
H2350 C2379 0.950 . S
H2351 C2380 0.950 . S
H2352 C2382 0.950 . S
H2353 C2383 0.950 . S
C2354 H2336 0.951 . S
C2354 C2355 1.366 . S
C2354 C2356 1.388 . S
C2355 C2354 1.366 . S
C2355 C2359 1.385 . S
C2356 H2337 0.951 . S
C2356 C2354 1.388 . S
C2356 C2357 1.366 . S
C2357 C2356 1.366 . S
C2357 C2358 1.414 . S
C2357 C2360 1.499 . S
C2358 H2338 0.950 . S
C2358 C2357 1.414 . S
C2358 C2359 1.374 . S
C2359 H2339 0.950 . S
C2359 C2355 1.385 . S
C2359 C2358 1.374 . S
C2360 C2357 1.499 . S
C2360 C2361 1.373 . S
C2360 C2362 1.389 . S
C2361 H2340 0.950 . S
C2361 C2360 1.373 . S
C2361 C2377 1.377 . S
C2362 C2360 1.389 . S
C2362 C2363 1.524 . S
C2362 C2376 1.377 . S
C2363 C2362 1.524 . S
C2363 C2364 1.397 . S
C2363 C2368 1.363 . S
C2364 H2341 0.950 . S
C2364 C2363 1.397 . S
C2364 C2365 1.334 . S
C2365 H2342 0.950 . S
C2365 C2364 1.334 . S
C2365 C2366 1.287 . S
C2366 C2365 1.287 . S
C2366 C2367 1.524 . S
C2366 H2385 0.913 . S
C2367 H2343 0.950 . S
C2367 C2366 1.524 . S
C2367 C2368 1.415 . S
C2368 H2344 0.950 . S
C2368 C2363 1.363 . S
C2368 C2367 1.415 . S
C2369 H2345 0.951 . S
C2369 C2370 1.366 . S
C2369 C2371 1.388 . S
C2370 C2369 1.366 . S
C2370 C2374 1.385 . S
C2371 H2346 0.951 . S
C2371 C2369 1.388 . S
C2371 C2372 1.366 . S
C2372 C2371 1.366 . S
C2372 C2373 1.414 . S
C2372 C2375 1.499 . S
C2373 H2347 0.950 . S
C2373 C2372 1.414 . S
C2373 C2374 1.374 . S
C2374 H2348 0.950 . S
C2374 C2370 1.385 . S
C2374 C2373 1.374 . S
C2375 C2372 1.499 . S
C2375 C2376 1.373 . S
C2375 C2377 1.389 . S
C2376 H2349 0.950 . S
C2376 C2362 1.377 . S
C2376 C2375 1.373 . S
C2377 C2361 1.377 . S
C2377 C2375 1.389 . S
C2377 C2378 1.524 . S
C2378 C2377 1.524 . S
C2378 C2379 1.397 . S
C2378 C2383 1.363 . S
C2379 H2350 0.950 . S
C2379 C2378 1.397 . S
C2379 C2380 1.334 . S
C2380 H2351 0.950 . S
C2380 C2379 1.334 . S
C2380 C2381 1.287 . S
C2381 C2380 1.287 . S
C2381 C2382 1.524 . S
C2381 H2384 0.999 . S
C2382 H2352 0.950 . S
C2382 C2381 1.524 . S
C2382 C2383 1.415 . S
C2383 H2353 0.950 . S
C2383 C2378 1.363 . S
C2383 C2382 1.415 . S
H2384 C2381 0.999 . S
H2385 C2366 0.913 . S
H2386 C2404 0.951 . S
H2387 C2406 0.951 . S
H2388 C2408 0.950 . S
H2389 C2409 0.950 . S
H2390 C2411 0.950 . S
H2391 C2414 0.950 . S
H2392 C2415 0.950 . S
H2393 C2417 0.950 . S
H2394 C2418 0.950 . S
H2395 C2419 0.951 . S
H2396 C2421 0.951 . S
H2397 C2423 0.950 . S
H2398 C2424 0.950 . S
H2399 C2426 0.950 . S
H2400 C2429 0.950 . S
H2401 C2430 0.950 . S
H2402 C2432 0.950 . S
H2403 C2433 0.950 . S
C2404 H2386 0.951 . S
C2404 C2405 1.366 . S
C2404 C2406 1.388 . S
C2405 C2404 1.366 . S
C2405 C2409 1.385 . S
C2406 H2387 0.951 . S
C2406 C2404 1.388 . S
C2406 C2407 1.366 . S
C2407 C2406 1.366 . S
C2407 C2408 1.414 . S
C2407 C2410 1.499 . S
C2408 H2388 0.950 . S
C2408 C2407 1.414 . S
C2408 C2409 1.374 . S
C2409 H2389 0.950 . S
C2409 C2405 1.385 . S
C2409 C2408 1.374 . S
C2410 C2407 1.499 . S
C2410 C2411 1.373 . S
C2410 C2412 1.389 . S
C2411 H2390 0.950 . S
C2411 C2410 1.373 . S
C2411 C2427 1.377 . S
C2412 C2410 1.389 . S
C2412 C2413 1.524 . S
C2412 C2426 1.377 . S
C2413 C2412 1.524 . S
C2413 C2414 1.397 . S
C2413 C2418 1.363 . S
C2414 H2391 0.950 . S
C2414 C2413 1.397 . S
C2414 C2415 1.334 . S
C2415 H2392 0.950 . S
C2415 C2414 1.334 . S
C2415 C2416 1.287 . S
C2416 C2415 1.287 . S
C2416 C2417 1.524 . S
C2416 H2435 0.913 . S
C2417 H2393 0.950 . S
C2417 C2416 1.524 . S
C2417 C2418 1.415 . S
C2418 H2394 0.950 . S
C2418 C2413 1.363 . S
C2418 C2417 1.415 . S
C2419 H2395 0.951 . S
C2419 C2420 1.366 . S
C2419 C2421 1.388 . S
C2420 C2419 1.366 . S
C2420 C2424 1.385 . S
C2421 H2396 0.951 . S
C2421 C2419 1.388 . S
C2421 C2422 1.366 . S
C2422 C2421 1.366 . S
C2422 C2423 1.414 . S
C2422 C2425 1.499 . S
C2423 H2397 0.950 . S
C2423 C2422 1.414 . S
C2423 C2424 1.374 . S
C2424 H2398 0.950 . S
C2424 C2420 1.385 . S
C2424 C2423 1.374 . S
C2425 C2422 1.499 . S
C2425 C2426 1.373 . S
C2425 C2427 1.389 . S
C2426 H2399 0.950 . S
C2426 C2412 1.377 . S
C2426 C2425 1.373 . S
C2427 C2411 1.377 . S
C2427 C2425 1.389 . S
C2427 C2428 1.524 . S
C2428 C2427 1.524 . S
C2428 C2429 1.397 . S
C2428 C2433 1.363 . S
C2429 H2400 0.950 . S
C2429 C2428 1.397 . S
C2429 C2430 1.334 . S
C2430 H2401 0.950 . S
C2430 C2429 1.334 . S
C2430 C2431 1.287 . S
C2431 C2430 1.287 . S
C2431 C2432 1.524 . S
C2431 H2434 0.999 . S
C2432 H2402 0.950 . S
C2432 C2431 1.524 . S
C2432 C2433 1.415 . S
C2433 H2403 0.950 . S
C2433 C2428 1.363 . S
C2433 C2432 1.415 . S
H2434 C2431 0.999 . S
H2435 C2416 0.913 . S
H2436 C2454 0.951 . S
H2437 C2456 0.951 . S
H2438 C2458 0.950 . S
H2439 C2459 0.950 . S
H2440 C2461 0.950 . S
H2441 C2464 0.950 . S
H2442 C2465 0.950 . S
H2443 C2467 0.950 . S
H2444 C2468 0.950 . S
H2445 C2469 0.951 . S
H2446 C2471 0.951 . S
H2447 C2473 0.950 . S
H2448 C2474 0.950 . S
H2449 C2476 0.950 . S
H2450 C2479 0.950 . S
H2451 C2480 0.950 . S
H2452 C2482 0.950 . S
H2453 C2483 0.950 . S
C2454 H2436 0.951 . S
C2454 C2455 1.366 . S
C2454 C2456 1.388 . S
C2455 C2454 1.366 . S
C2455 C2459 1.385 . S
C2456 H2437 0.951 . S
C2456 C2454 1.388 . S
C2456 C2457 1.366 . S
C2457 C2456 1.366 . S
C2457 C2458 1.414 . S
C2457 C2460 1.499 . S
C2458 H2438 0.950 . S
C2458 C2457 1.414 . S
C2458 C2459 1.374 . S
C2459 H2439 0.950 . S
C2459 C2455 1.385 . S
C2459 C2458 1.374 . S
C2460 C2457 1.499 . S
C2460 C2461 1.373 . S
C2460 C2462 1.389 . S
C2461 H2440 0.950 . S
C2461 C2460 1.373 . S
C2461 C2477 1.377 . S
C2462 C2460 1.389 . S
C2462 C2463 1.524 . S
C2462 C2476 1.377 . S
C2463 C2462 1.524 . S
C2463 C2464 1.397 . S
C2463 C2468 1.363 . S
C2464 H2441 0.950 . S
C2464 C2463 1.397 . S
C2464 C2465 1.334 . S
C2465 H2442 0.950 . S
C2465 C2464 1.334 . S
C2465 C2466 1.287 . S
C2466 C2465 1.287 . S
C2466 C2467 1.524 . S
C2466 H2485 0.913 . S
C2467 H2443 0.950 . S
C2467 C2466 1.524 . S
C2467 C2468 1.415 . S
C2468 H2444 0.950 . S
C2468 C2463 1.363 . S
C2468 C2467 1.415 . S
C2469 H2445 0.951 . S
C2469 C2470 1.366 . S
C2469 C2471 1.388 . S
C2470 C2469 1.366 . S
C2470 C2474 1.385 . S
C2471 H2446 0.951 . S
C2471 C2469 1.388 . S
C2471 C2472 1.366 . S
C2472 C2471 1.366 . S
C2472 C2473 1.414 . S
C2472 C2475 1.499 . S
C2473 H2447 0.950 . S
C2473 C2472 1.414 . S
C2473 C2474 1.374 . S
C2474 H2448 0.950 . S
C2474 C2470 1.385 . S
C2474 C2473 1.374 . S
C2475 C2472 1.499 . S
C2475 C2476 1.373 . S
C2475 C2477 1.389 . S
C2476 H2449 0.950 . S
C2476 C2462 1.377 . S
C2476 C2475 1.373 . S
C2477 C2461 1.377 . S
C2477 C2475 1.389 . S
C2477 C2478 1.524 . S
C2478 C2477 1.524 . S
C2478 C2479 1.397 . S
C2478 C2483 1.363 . S
C2479 H2450 0.950 . S
C2479 C2478 1.397 . S
C2479 C2480 1.334 . S
C2480 H2451 0.950 . S
C2480 C2479 1.334 . S
C2480 C2481 1.287 . S
C2481 C2480 1.287 . S
C2481 C2482 1.524 . S
C2481 H2484 0.999 . S
C2482 H2452 0.950 . S
C2482 C2481 1.524 . S
C2482 C2483 1.415 . S
C2483 H2453 0.950 . S
C2483 C2478 1.363 . S
C2483 C2482 1.415 . S
H2484 C2481 0.999 . S
H2485 C2466 0.913 . S
H2486 C2504 0.951 . S
H2487 C2506 0.951 . S
H2488 C2508 0.950 . S
H2489 C2509 0.950 . S
H2490 C2511 0.950 . S
H2491 C2514 0.950 . S
H2492 C2515 0.950 . S
H2493 C2517 0.950 . S
H2494 C2518 0.950 . S
H2495 C2519 0.951 . S
H2496 C2521 0.951 . S
H2497 C2523 0.950 . S
H2498 C2524 0.950 . S
H2499 C2526 0.950 . S
H2500 C2529 0.950 . S
H2501 C2530 0.950 . S
H2502 C2532 0.950 . S
H2503 C2533 0.950 . S
C2504 H2486 0.951 . S
C2504 C2505 1.366 . S
C2504 C2506 1.388 . S
C2505 C2504 1.366 . S
C2505 C2509 1.385 . S
C2506 H2487 0.951 . S
C2506 C2504 1.388 . S
C2506 C2507 1.366 . S
C2507 C2506 1.366 . S
C2507 C2508 1.414 . S
C2507 C2510 1.499 . S
C2508 H2488 0.950 . S
C2508 C2507 1.414 . S
C2508 C2509 1.374 . S
C2509 H2489 0.950 . S
C2509 C2505 1.385 . S
C2509 C2508 1.374 . S
C2510 C2507 1.499 . S
C2510 C2511 1.373 . S
C2510 C2512 1.389 . S
C2511 H2490 0.950 . S
C2511 C2510 1.373 . S
C2511 C2527 1.377 . S
C2512 C2510 1.389 . S
C2512 C2513 1.524 . S
C2512 C2526 1.377 . S
C2513 C2512 1.524 . S
C2513 C2514 1.397 . S
C2513 C2518 1.363 . S
C2514 H2491 0.950 . S
C2514 C2513 1.397 . S
C2514 C2515 1.334 . S
C2515 H2492 0.950 . S
C2515 C2514 1.334 . S
C2515 C2516 1.287 . S
C2516 C2515 1.287 . S
C2516 C2517 1.524 . S
C2516 H2535 0.913 . S
C2517 H2493 0.950 . S
C2517 C2516 1.524 . S
C2517 C2518 1.415 . S
C2518 H2494 0.950 . S
C2518 C2513 1.363 . S
C2518 C2517 1.415 . S
C2519 H2495 0.951 . S
C2519 C2520 1.366 . S
C2519 C2521 1.388 . S
C2520 C2519 1.366 . S
C2520 C2524 1.385 . S
C2521 H2496 0.951 . S
C2521 C2519 1.388 . S
C2521 C2522 1.366 . S
C2522 C2521 1.366 . S
C2522 C2523 1.414 . S
C2522 C2525 1.499 . S
C2523 H2497 0.950 . S
C2523 C2522 1.414 . S
C2523 C2524 1.374 . S
C2524 H2498 0.950 . S
C2524 C2520 1.385 . S
C2524 C2523 1.374 . S
C2525 C2522 1.499 . S
C2525 C2526 1.373 . S
C2525 C2527 1.389 . S
C2526 H2499 0.950 . S
C2526 C2512 1.377 . S
C2526 C2525 1.373 . S
C2527 C2511 1.377 . S
C2527 C2525 1.389 . S
C2527 C2528 1.524 . S
C2528 C2527 1.524 . S
C2528 C2529 1.397 . S
C2528 C2533 1.363 . S
C2529 H2500 0.950 . S
C2529 C2528 1.397 . S
C2529 C2530 1.334 . S
C2530 H2501 0.950 . S
C2530 C2529 1.334 . S
C2530 C2531 1.287 . S
C2531 C2530 1.287 . S
C2531 C2532 1.524 . S
C2531 H2534 0.999 . S
C2532 H2502 0.950 . S
C2532 C2531 1.524 . S
C2532 C2533 1.415 . S
C2533 H2503 0.950 . S
C2533 C2528 1.363 . S
C2533 C2532 1.415 . S
H2534 C2531 0.999 . S
H2535 C2516 0.913 . S
H2536 C2554 0.951 . S
H2537 C2556 0.951 . S
H2538 C2558 0.950 . S
H2539 C2559 0.950 . S
H2540 C2561 0.950 . S
H2541 C2564 0.950 . S
H2542 C2565 0.950 . S
H2543 C2567 0.950 . S
H2544 C2568 0.950 . S
H2545 C2569 0.951 . S
H2546 C2571 0.951 . S
H2547 C2573 0.950 . S
H2548 C2574 0.950 . S
H2549 C2576 0.950 . S
H2550 C2579 0.950 . S
H2551 C2580 0.950 . S
H2552 C2582 0.950 . S
H2553 C2583 0.950 . S
C2554 H2536 0.951 . S
C2554 C2555 1.366 . S
C2554 C2556 1.388 . S
C2555 C2554 1.366 . S
C2555 C2559 1.385 . S
C2556 H2537 0.951 . S
C2556 C2554 1.388 . S
C2556 C2557 1.366 . S
C2557 C2556 1.366 . S
C2557 C2558 1.414 . S
C2557 C2560 1.499 . S
C2558 H2538 0.950 . S
C2558 C2557 1.414 . S
C2558 C2559 1.374 . S
C2559 H2539 0.950 . S
C2559 C2555 1.385 . S
C2559 C2558 1.374 . S
C2560 C2557 1.499 . S
C2560 C2561 1.373 . S
C2560 C2562 1.389 . S
C2561 H2540 0.950 . S
C2561 C2560 1.373 . S
C2561 C2577 1.377 . S
C2562 C2560 1.389 . S
C2562 C2563 1.524 . S
C2562 C2576 1.377 . S
C2563 C2562 1.524 . S
C2563 C2564 1.397 . S
C2563 C2568 1.363 . S
C2564 H2541 0.950 . S
C2564 C2563 1.397 . S
C2564 C2565 1.334 . S
C2565 H2542 0.950 . S
C2565 C2564 1.334 . S
C2565 C2566 1.287 . S
C2566 C2565 1.287 . S
C2566 C2567 1.524 . S
C2566 H2585 0.913 . S
C2567 H2543 0.950 . S
C2567 C2566 1.524 . S
C2567 C2568 1.415 . S
C2568 H2544 0.950 . S
C2568 C2563 1.363 . S
C2568 C2567 1.415 . S
C2569 H2545 0.951 . S
C2569 C2570 1.366 . S
C2569 C2571 1.388 . S
C2570 C2569 1.366 . S
C2570 C2574 1.385 . S
C2571 H2546 0.951 . S
C2571 C2569 1.388 . S
C2571 C2572 1.366 . S
C2572 C2571 1.366 . S
C2572 C2573 1.414 . S
C2572 C2575 1.499 . S
C2573 H2547 0.950 . S
C2573 C2572 1.414 . S
C2573 C2574 1.374 . S
C2574 H2548 0.950 . S
C2574 C2570 1.385 . S
C2574 C2573 1.374 . S
C2575 C2572 1.499 . S
C2575 C2576 1.373 . S
C2575 C2577 1.389 . S
C2576 H2549 0.950 . S
C2576 C2562 1.377 . S
C2576 C2575 1.373 . S
C2577 C2561 1.377 . S
C2577 C2575 1.389 . S
C2577 C2578 1.524 . S
C2578 C2577 1.524 . S
C2578 C2579 1.397 . S
C2578 C2583 1.363 . S
C2579 H2550 0.950 . S
C2579 C2578 1.397 . S
C2579 C2580 1.334 . S
C2580 H2551 0.950 . S
C2580 C2579 1.334 . S
C2580 C2581 1.287 . S
C2581 C2580 1.287 . S
C2581 C2582 1.524 . S
C2581 H2584 0.999 . S
C2582 H2552 0.950 . S
C2582 C2581 1.524 . S
C2582 C2583 1.415 . S
C2583 H2553 0.950 . S
C2583 C2578 1.363 . S
C2583 C2582 1.415 . S
H2584 C2581 0.999 . S
H2585 C2566 0.913 . S
H2586 C2604 0.951 . S
H2587 C2606 0.951 . S
H2588 C2608 0.950 . S
H2589 C2609 0.950 . S
H2590 C2611 0.950 . S
H2591 C2614 0.950 . S
H2592 C2615 0.950 . S
H2593 C2617 0.950 . S
H2594 C2618 0.950 . S
H2595 C2619 0.951 . S
H2596 C2621 0.951 . S
H2597 C2623 0.950 . S
H2598 C2624 0.950 . S
H2599 C2626 0.950 . S
H2600 C2629 0.950 . S
H2601 C2630 0.950 . S
H2602 C2632 0.950 . S
H2603 C2633 0.950 . S
C2604 H2586 0.951 . S
C2604 C2605 1.366 . S
C2604 C2606 1.388 . S
C2605 C2604 1.366 . S
C2605 C2609 1.385 . S
C2606 H2587 0.951 . S
C2606 C2604 1.388 . S
C2606 C2607 1.366 . S
C2607 C2606 1.366 . S
C2607 C2608 1.414 . S
C2607 C2610 1.499 . S
C2608 H2588 0.950 . S
C2608 C2607 1.414 . S
C2608 C2609 1.374 . S
C2609 H2589 0.950 . S
C2609 C2605 1.385 . S
C2609 C2608 1.374 . S
C2610 C2607 1.499 . S
C2610 C2611 1.373 . S
C2610 C2612 1.389 . S
C2611 H2590 0.950 . S
C2611 C2610 1.373 . S
C2611 C2627 1.377 . S
C2612 C2610 1.389 . S
C2612 C2613 1.524 . S
C2612 C2626 1.377 . S
C2613 C2612 1.524 . S
C2613 C2614 1.397 . S
C2613 C2618 1.363 . S
C2614 H2591 0.950 . S
C2614 C2613 1.397 . S
C2614 C2615 1.334 . S
C2615 H2592 0.950 . S
C2615 C2614 1.334 . S
C2615 C2616 1.287 . S
C2616 C2615 1.287 . S
C2616 C2617 1.524 . S
C2616 H2635 0.913 . S
C2617 H2593 0.950 . S
C2617 C2616 1.524 . S
C2617 C2618 1.415 . S
C2618 H2594 0.950 . S
C2618 C2613 1.363 . S
C2618 C2617 1.415 . S
C2619 H2595 0.951 . S
C2619 C2620 1.366 . S
C2619 C2621 1.388 . S
C2620 C2619 1.366 . S
C2620 C2624 1.385 . S
C2621 H2596 0.951 . S
C2621 C2619 1.388 . S
C2621 C2622 1.366 . S
C2622 C2621 1.366 . S
C2622 C2623 1.414 . S
C2622 C2625 1.499 . S
C2623 H2597 0.950 . S
C2623 C2622 1.414 . S
C2623 C2624 1.374 . S
C2624 H2598 0.950 . S
C2624 C2620 1.385 . S
C2624 C2623 1.374 . S
C2625 C2622 1.499 . S
C2625 C2626 1.373 . S
C2625 C2627 1.389 . S
C2626 H2599 0.950 . S
C2626 C2612 1.377 . S
C2626 C2625 1.373 . S
C2627 C2611 1.377 . S
C2627 C2625 1.389 . S
C2627 C2628 1.524 . S
C2628 C2627 1.524 . S
C2628 C2629 1.397 . S
C2628 C2633 1.363 . S
C2629 H2600 0.950 . S
C2629 C2628 1.397 . S
C2629 C2630 1.334 . S
C2630 H2601 0.950 . S
C2630 C2629 1.334 . S
C2630 C2631 1.287 . S
C2631 C2630 1.287 . S
C2631 C2632 1.524 . S
C2631 H2634 0.999 . S
C2632 H2602 0.950 . S
C2632 C2631 1.524 . S
C2632 C2633 1.415 . S
C2633 H2603 0.950 . S
C2633 C2628 1.363 . S
C2633 C2632 1.415 . S
H2634 C2631 0.999 . S
H2635 C2616 0.913 . S
H2636 C2654 0.951 . S
H2637 C2656 0.951 . S
H2638 C2658 0.950 . S
H2639 C2659 0.950 . S
H2640 C2661 0.950 . S
H2641 C2664 0.950 . S
H2642 C2665 0.950 . S
H2643 C2667 0.950 . S
H2644 C2668 0.950 . S
H2645 C2669 0.951 . S
H2646 C2671 0.951 . S
H2647 C2673 0.950 . S
H2648 C2674 0.950 . S
H2649 C2676 0.950 . S
H2650 C2679 0.950 . S
H2651 C2680 0.950 . S
H2652 C2682 0.950 . S
H2653 C2683 0.950 . S
C2654 H2636 0.951 . S
C2654 C2655 1.366 . S
C2654 C2656 1.388 . S
C2655 C2654 1.366 . S
C2655 C2659 1.385 . S
C2656 H2637 0.951 . S
C2656 C2654 1.388 . S
C2656 C2657 1.366 . S
C2657 C2656 1.366 . S
C2657 C2658 1.414 . S
C2657 C2660 1.499 . S
C2658 H2638 0.950 . S
C2658 C2657 1.414 . S
C2658 C2659 1.374 . S
C2659 H2639 0.950 . S
C2659 C2655 1.385 . S
C2659 C2658 1.374 . S
C2660 C2657 1.499 . S
C2660 C2661 1.373 . S
C2660 C2662 1.389 . S
C2661 H2640 0.950 . S
C2661 C2660 1.373 . S
C2661 C2677 1.377 . S
C2662 C2660 1.389 . S
C2662 C2663 1.524 . S
C2662 C2676 1.377 . S
C2663 C2662 1.524 . S
C2663 C2664 1.397 . S
C2663 C2668 1.363 . S
C2664 H2641 0.950 . S
C2664 C2663 1.397 . S
C2664 C2665 1.334 . S
C2665 H2642 0.950 . S
C2665 C2664 1.334 . S
C2665 C2666 1.287 . S
C2666 C2665 1.287 . S
C2666 C2667 1.524 . S
C2666 H2685 0.913 . S
C2667 H2643 0.950 . S
C2667 C2666 1.524 . S
C2667 C2668 1.415 . S
C2668 H2644 0.950 . S
C2668 C2663 1.363 . S
C2668 C2667 1.415 . S
C2669 H2645 0.951 . S
C2669 C2670 1.366 . S
C2669 C2671 1.388 . S
C2670 C2669 1.366 . S
C2670 C2674 1.385 . S
C2671 H2646 0.951 . S
C2671 C2669 1.388 . S
C2671 C2672 1.366 . S
C2672 C2671 1.366 . S
C2672 C2673 1.414 . S
C2672 C2675 1.499 . S
C2673 H2647 0.950 . S
C2673 C2672 1.414 . S
C2673 C2674 1.374 . S
C2674 H2648 0.950 . S
C2674 C2670 1.385 . S
C2674 C2673 1.374 . S
C2675 C2672 1.499 . S
C2675 C2676 1.373 . S
C2675 C2677 1.389 . S
C2676 H2649 0.950 . S
C2676 C2662 1.377 . S
C2676 C2675 1.373 . S
C2677 C2661 1.377 . S
C2677 C2675 1.389 . S
C2677 C2678 1.524 . S
C2678 C2677 1.524 . S
C2678 C2679 1.397 . S
C2678 C2683 1.363 . S
C2679 H2650 0.950 . S
C2679 C2678 1.397 . S
C2679 C2680 1.334 . S
C2680 H2651 0.950 . S
C2680 C2679 1.334 . S
C2680 C2681 1.287 . S
C2681 C2680 1.287 . S
C2681 C2682 1.524 . S
C2681 H2684 0.999 . S
C2682 H2652 0.950 . S
C2682 C2681 1.524 . S
C2682 C2683 1.415 . S
C2683 H2653 0.950 . S
C2683 C2678 1.363 . S
C2683 C2682 1.415 . S
H2684 C2681 0.999 . S
H2685 C2666 0.913 . S
H2686 C2704 0.951 . S
H2687 C2706 0.951 . S
H2688 C2708 0.950 . S
H2689 C2709 0.950 . S
H2690 C2711 0.950 . S
H2691 C2714 0.950 . S
H2692 C2715 0.950 . S
H2693 C2717 0.950 . S
H2694 C2718 0.950 . S
H2695 C2719 0.951 . S
H2696 C2721 0.951 . S
H2697 C2723 0.950 . S
H2698 C2724 0.950 . S
H2699 C2726 0.950 . S
H2700 C2729 0.950 . S
H2701 C2730 0.950 . S
H2702 C2732 0.950 . S
H2703 C2733 0.950 . S
C2704 H2686 0.951 . S
C2704 C2705 1.366 . S
C2704 C2706 1.388 . S
C2705 C2704 1.366 . S
C2705 C2709 1.385 . S
C2706 H2687 0.951 . S
C2706 C2704 1.388 . S
C2706 C2707 1.366 . S
C2707 C2706 1.366 . S
C2707 C2708 1.414 . S
C2707 C2710 1.499 . S
C2708 H2688 0.950 . S
C2708 C2707 1.414 . S
C2708 C2709 1.374 . S
C2709 H2689 0.950 . S
C2709 C2705 1.385 . S
C2709 C2708 1.374 . S
C2710 C2707 1.499 . S
C2710 C2711 1.373 . S
C2710 C2712 1.389 . S
C2711 H2690 0.950 . S
C2711 C2710 1.373 . S
C2711 C2727 1.377 . S
C2712 C2710 1.389 . S
C2712 C2713 1.524 . S
C2712 C2726 1.377 . S
C2713 C2712 1.524 . S
C2713 C2714 1.397 . S
C2713 C2718 1.363 . S
C2714 H2691 0.950 . S
C2714 C2713 1.397 . S
C2714 C2715 1.334 . S
C2715 H2692 0.950 . S
C2715 C2714 1.334 . S
C2715 C2716 1.287 . S
C2716 C2715 1.287 . S
C2716 C2717 1.524 . S
C2716 H2735 0.913 . S
C2717 H2693 0.950 . S
C2717 C2716 1.524 . S
C2717 C2718 1.415 . S
C2718 H2694 0.950 . S
C2718 C2713 1.363 . S
C2718 C2717 1.415 . S
C2719 H2695 0.951 . S
C2719 C2720 1.366 . S
C2719 C2721 1.388 . S
C2720 C2719 1.366 . S
C2720 C2724 1.385 . S
C2721 H2696 0.951 . S
C2721 C2719 1.388 . S
C2721 C2722 1.366 . S
C2722 C2721 1.366 . S
C2722 C2723 1.414 . S
C2722 C2725 1.499 . S
C2723 H2697 0.950 . S
C2723 C2722 1.414 . S
C2723 C2724 1.374 . S
C2724 H2698 0.950 . S
C2724 C2720 1.385 . S
C2724 C2723 1.374 . S
C2725 C2722 1.499 . S
C2725 C2726 1.373 . S
C2725 C2727 1.389 . S
C2726 H2699 0.950 . S
C2726 C2712 1.377 . S
C2726 C2725 1.373 . S
C2727 C2711 1.377 . S
C2727 C2725 1.389 . S
C2727 C2728 1.524 . S
C2728 C2727 1.524 . S
C2728 C2729 1.397 . S
C2728 C2733 1.363 . S
C2729 H2700 0.950 . S
C2729 C2728 1.397 . S
C2729 C2730 1.334 . S
C2730 H2701 0.950 . S
C2730 C2729 1.334 . S
C2730 C2731 1.287 . S
C2731 C2730 1.287 . S
C2731 C2732 1.524 . S
C2731 H2734 0.999 . S
C2732 H2702 0.950 . S
C2732 C2731 1.524 . S
C2732 C2733 1.415 . S
C2733 H2703 0.950 . S
C2733 C2728 1.363 . S
C2733 C2732 1.415 . S
H2734 C2731 0.999 . S
H2735 C2716 0.913 . S
C355 C314 1.558 . S
C370 C7 1.557 . S
C405 C20 1.558 . S
C420 C231 1.558 . S
C455 C328 1.558 . S
C470 C35 1.558 . S
C505 C301 1.558 . S
C520 C49 1.558 . S
C555 C259 1.558 . S
C570 C63 1.558 . S
C605 C272 1.559 . S
C620 C77 1.558 . S
C655 C287 1.557 . S
C670 C90 1.558 . S
C705 C104 1.559 . S
C720 C244 1.558 . S
C755 C188 1.559 . S
C770 C118 1.558 . S
C805 C203 1.558 . S
C820 C133 1.557 . S
C855 C146 1.559 . S
C870 C216 1.558 . S
C905 C161 1.557 . S
C920 C175 1.558 . S
C955 C105 1.559 . S
C970 C202 1.558 . S
C1005 C217 1.558 . S
C1020 C62 1.558 . S
C1055 C76 1.558 . S
C1070 C174 1.559 . S
C1105 C189 1.558 . S
C1120 C91 1.558 . S
C1155 C147 1.557 . S
C1170 C21 1.558 . S
C1205 C34 1.558 . S
C1220 C160 1.558 . S
C1255 C48 1.558 . S
C1270 C119 1.559 . S
C1305 C6 1.559 . S
C1320 C132 1.558 . S
C1355 C286 1.558 . S
C1370 C300 1.557 . S
C1405 C315 1.558 . S
C1420 C245 1.557 . S
C1455 C258 1.558 . S
C1470 C230 1.559 . S
C1505 C329 1.559 . S
C1520 C273 1.558 . S
C1555 C8 0.681 . S
C1570 C120 0.681 . S
C1605 C135 0.681 . S
C1620 C23 0.681 . S
C1655 C36 0.679 . S
C1670 C148 0.680 . S
C1705 C50 0.678 . S
C1720 C163 0.678 . S
C1755 C64 0.679 . S
C1770 C177 0.678 . S
C1805 C78 0.680 . S
C1820 C190 0.681 . S
C1855 C205 0.679 . S
C1870 C93 0.679 . S
C1905 C218 0.678 . S
C1920 C107 0.679 . S
C1955 C121 0.678 . S
C1970 C233 0.678 . S
C2005 C134 0.678 . S
C2020 C330 0.679 . S
C2055 C303 0.681 . S
C2070 C149 0.681 . S
C2105 C316 0.680 . S
C2120 C162 0.680 . S
C2155 C246 0.679 . S
C2170 C176 0.679 . S
C2205 C261 0.679 . S
C2220 C191 0.679 . S
C2255 C204 0.681 . S
C2270 C274 0.680 . S
C2305 C219 0.680 . S
C2320 C289 0.680 . S
C2355 C9 0.681 . S
C2370 C232 0.680 . S
C2405 C247 0.679 . S
C2420 C65 0.679 . S
C2455 C260 0.678 . S
C2470 C79 0.678 . S
C2505 C275 0.679 . S
C2520 C92 0.678 . S
C2555 C288 0.678 . S
C2570 C106 0.678 . S
C2605 C302 0.678 . S
C2620 C37 0.678 . S
C2655 C51 0.681 . S
C2670 C317 0.681 . S
C2705 C331 0.678 . S
C2720 C22 0.678 . S
