# Generated by pormake.
# Topology sop, (7)-cn, num edge types: 1
# Building blocks:
#     Node 0, Type 0, BuildingBlock: NUHQUE_clean_sbu_2, # of connection points: 7
#     Node 1, Type 0, BuildingBlock: NUHQUE_clean_sbu_2, # of connection points: 7
#     Node 2, Type 0, BuildingBlock: NUHQUE_clean_sbu_2, # of connection points: 7
#     Node 3, Type 0, BuildingBlock: NUHQUE_clean_sbu_2, # of connection points: 7
#     Node 4, Type 0, BuildingBlock: NUHQUE_clean_sbu_2, # of connection points: 7
#     Node 5, Type 0, BuildingBlock: NUHQUE_clean_sbu_2, # of connection points: 7
#     Node 6, Type 0, BuildingBlock: NUHQUE_clean_sbu_2, # of connection points: 7
#     Node 7, Type 0, BuildingBlock: NUHQUE_clean_sbu_2, # of connection points: 7
#     Node 8, Type 0, BuildingBlock: NUHQUE_clean_sbu_2, # of connection points: 7
#     Node 9, Type 0, BuildingBlock: NUHQUE_clean_sbu_2, # of connection points: 7
#     Node 10, Type 0, BuildingBlock: NUHQUE_clean_sbu_2, # of connection points: 7
#     Node 11, Type 0, BuildingBlock: NUHQUE_clean_sbu_2, # of connection points: 7
#     Node 12, Type 0, BuildingBlock: NUHQUE_clean_sbu_2, # of connection points: 7
#     Node 13, Type 0, BuildingBlock: NUHQUE_clean_sbu_2, # of connection points: 7
#     Node 14, Type 0, BuildingBlock: NUHQUE_clean_sbu_2, # of connection points: 7
#     Node 15, Type 0, BuildingBlock: NUHQUE_clean_sbu_2, # of connection points: 7
#     Node 16, Type 0, BuildingBlock: NUHQUE_clean_sbu_2, # of connection points: 7
#     Node 17, Type 0, BuildingBlock: NUHQUE_clean_sbu_2, # of connection points: 7
#     Node 18, Type 0, BuildingBlock: NUHQUE_clean_sbu_2, # of connection points: 7
#     Node 19, Type 0, BuildingBlock: NUHQUE_clean_sbu_2, # of connection points: 7
#     Node 20, Type 0, BuildingBlock: NUHQUE_clean_sbu_2, # of connection points: 7
#     Node 21, Type 0, BuildingBlock: NUHQUE_clean_sbu_2, # of connection points: 7
#     Node 22, Type 0, BuildingBlock: NUHQUE_clean_sbu_2, # of connection points: 7
#     Node 23, Type 0, BuildingBlock: NUHQUE_clean_sbu_2, # of connection points: 7
#     Node 24, Type 0, BuildingBlock: NUHQUE_clean_sbu_2, # of connection points: 7
#     Node 25, Type 0, BuildingBlock: NUHQUE_clean_sbu_2, # of connection points: 7
#     Node 26, Type 0, BuildingBlock: NUHQUE_clean_sbu_2, # of connection points: 7
#     Node 27, Type 0, BuildingBlock: NUHQUE_clean_sbu_2, # of connection points: 7
#     Node 28, Type 0, BuildingBlock: NUHQUE_clean_sbu_2, # of connection points: 7
#     Node 29, Type 0, BuildingBlock: NUHQUE_clean_sbu_2, # of connection points: 7
#     Node 30, Type 0, BuildingBlock: NUHQUE_clean_sbu_2, # of connection points: 7
#     Node 31, Type 0, BuildingBlock: NUHQUE_clean_sbu_2, # of connection points: 7
#     Edge 32, Type (0, 0), BuildingBlock: UVAHIK_clean_linker_0, # of connection points: 2
#     Edge 33, Type (0, 0), BuildingBlock: UVAHIK_clean_linker_0, # of connection points: 2
#     Edge 34, Type (0, 0), BuildingBlock: UVAHIK_clean_linker_0, # of connection points: 2
#     Edge 35, Type (0, 0), BuildingBlock: UVAHIK_clean_linker_0, # of connection points: 2
#     Edge 36, Type (0, 0), BuildingBlock: UVAHIK_clean_linker_0, # of connection points: 2
#     Edge 37, Type (0, 0), BuildingBlock: UVAHIK_clean_linker_0, # of connection points: 2
#     Edge 38, Type (0, 0), BuildingBlock: UVAHIK_clean_linker_0, # of connection points: 2
#     Edge 39, Type (0, 0), BuildingBlock: UVAHIK_clean_linker_0, # of connection points: 2
#     Edge 40, Type (0, 0), BuildingBlock: UVAHIK_clean_linker_0, # of connection points: 2
#     Edge 41, Type (0, 0), BuildingBlock: UVAHIK_clean_linker_0, # of connection points: 2
#     Edge 42, Type (0, 0), BuildingBlock: UVAHIK_clean_linker_0, # of connection points: 2
#     Edge 43, Type (0, 0), BuildingBlock: UVAHIK_clean_linker_0, # of connection points: 2
#     Edge 44, Type (0, 0), BuildingBlock: UVAHIK_clean_linker_0, # of connection points: 2
#     Edge 45, Type (0, 0), BuildingBlock: UVAHIK_clean_linker_0, # of connection points: 2
#     Edge 46, Type (0, 0), BuildingBlock: UVAHIK_clean_linker_0, # of connection points: 2
#     Edge 47, Type (0, 0), BuildingBlock: UVAHIK_clean_linker_0, # of connection points: 2
#     Edge 48, Type (0, 0), BuildingBlock: UVAHIK_clean_linker_0, # of connection points: 2
#     Edge 49, Type (0, 0), BuildingBlock: UVAHIK_clean_linker_0, # of connection points: 2
#     Edge 50, Type (0, 0), BuildingBlock: UVAHIK_clean_linker_0, # of connection points: 2
#     Edge 51, Type (0, 0), BuildingBlock: UVAHIK_clean_linker_0, # of connection points: 2
#     Edge 52, Type (0, 0), BuildingBlock: UVAHIK_clean_linker_0, # of connection points: 2
#     Edge 53, Type (0, 0), BuildingBlock: UVAHIK_clean_linker_0, # of connection points: 2
#     Edge 54, Type (0, 0), BuildingBlock: UVAHIK_clean_linker_0, # of connection points: 2
#     Edge 55, Type (0, 0), BuildingBlock: UVAHIK_clean_linker_0, # of connection points: 2
#     Edge 56, Type (0, 0), BuildingBlock: UVAHIK_clean_linker_0, # of connection points: 2
#     Edge 57, Type (0, 0), BuildingBlock: UVAHIK_clean_linker_0, # of connection points: 2
#     Edge 58, Type (0, 0), BuildingBlock: UVAHIK_clean_linker_0, # of connection points: 2
#     Edge 59, Type (0, 0), BuildingBlock: UVAHIK_clean_linker_0, # of connection points: 2
#     Edge 60, Type (0, 0), BuildingBlock: UVAHIK_clean_linker_0, # of connection points: 2
#     Edge 61, Type (0, 0), BuildingBlock: UVAHIK_clean_linker_0, # of connection points: 2
#     Edge 62, Type (0, 0), BuildingBlock: UVAHIK_clean_linker_0, # of connection points: 2
#     Edge 63, Type (0, 0), BuildingBlock: UVAHIK_clean_linker_0, # of connection points: 2
#     Edge 64, Type (0, 0), BuildingBlock: UVAHIK_clean_linker_0, # of connection points: 2
#     Edge 65, Type (0, 0), BuildingBlock: UVAHIK_clean_linker_0, # of connection points: 2
#     Edge 66, Type (0, 0), BuildingBlock: UVAHIK_clean_linker_0, # of connection points: 2
#     Edge 67, Type (0, 0), BuildingBlock: UVAHIK_clean_linker_0, # of connection points: 2
#     Edge 68, Type (0, 0), BuildingBlock: UVAHIK_clean_linker_0, # of connection points: 2
#     Edge 69, Type (0, 0), BuildingBlock: UVAHIK_clean_linker_0, # of connection points: 2
#     Edge 70, Type (0, 0), BuildingBlock: UVAHIK_clean_linker_0, # of connection points: 2
#     Edge 71, Type (0, 0), BuildingBlock: UVAHIK_clean_linker_0, # of connection points: 2
#     Edge 72, Type (0, 0), BuildingBlock: UVAHIK_clean_linker_0, # of connection points: 2
#     Edge 73, Type (0, 0), BuildingBlock: UVAHIK_clean_linker_0, # of connection points: 2
#     Edge 74, Type (0, 0), BuildingBlock: UVAHIK_clean_linker_0, # of connection points: 2
#     Edge 75, Type (0, 0), BuildingBlock: UVAHIK_clean_linker_0, # of connection points: 2
#     Edge 76, Type (0, 0), BuildingBlock: UVAHIK_clean_linker_0, # of connection points: 2
#     Edge 77, Type (0, 0), BuildingBlock: UVAHIK_clean_linker_0, # of connection points: 2
#     Edge 78, Type (0, 0), BuildingBlock: UVAHIK_clean_linker_0, # of connection points: 2
#     Edge 79, Type (0, 0), BuildingBlock: UVAHIK_clean_linker_0, # of connection points: 2
#     Edge 80, Type (0, 0), BuildingBlock: UVAHIK_clean_linker_0, # of connection points: 2
#     Edge 81, Type (0, 0), BuildingBlock: UVAHIK_clean_linker_0, # of connection points: 2
#     Edge 82, Type (0, 0), BuildingBlock: UVAHIK_clean_linker_0, # of connection points: 2
#     Edge 83, Type (0, 0), BuildingBlock: UVAHIK_clean_linker_0, # of connection points: 2
#     Edge 84, Type (0, 0), BuildingBlock: UVAHIK_clean_linker_0, # of connection points: 2
#     Edge 85, Type (0, 0), BuildingBlock: UVAHIK_clean_linker_0, # of connection points: 2
#     Edge 86, Type (0, 0), BuildingBlock: UVAHIK_clean_linker_0, # of connection points: 2
#     Edge 87, Type (0, 0), BuildingBlock: UVAHIK_clean_linker_0, # of connection points: 2
#     Edge 88, Type (0, 0), BuildingBlock: UVAHIK_clean_linker_0, # of connection points: 2
#     Edge 89, Type (0, 0), BuildingBlock: UVAHIK_clean_linker_0, # of connection points: 2
#     Edge 90, Type (0, 0), BuildingBlock: UVAHIK_clean_linker_0, # of connection points: 2
#     Edge 91, Type (0, 0), BuildingBlock: UVAHIK_clean_linker_0, # of connection points: 2
#     Edge 92, Type (0, 0), BuildingBlock: UVAHIK_clean_linker_0, # of connection points: 2
#     Edge 93, Type (0, 0), BuildingBlock: UVAHIK_clean_linker_0, # of connection points: 2
#     Edge 94, Type (0, 0), BuildingBlock: UVAHIK_clean_linker_0, # of connection points: 2
#     Edge 95, Type (0, 0), BuildingBlock: UVAHIK_clean_linker_0, # of connection points: 2
#     Edge 96, Type (0, 0), BuildingBlock: UVAHIK_clean_linker_0, # of connection points: 2
#     Edge 97, Type (0, 0), BuildingBlock: UVAHIK_clean_linker_0, # of connection points: 2
#     Edge 98, Type (0, 0), BuildingBlock: UVAHIK_clean_linker_0, # of connection points: 2
#     Edge 99, Type (0, 0), BuildingBlock: UVAHIK_clean_linker_0, # of connection points: 2
#     Edge 100, Type (0, 0), BuildingBlock: UVAHIK_clean_linker_0, # of connection points: 2
#     Edge 101, Type (0, 0), BuildingBlock: UVAHIK_clean_linker_0, # of connection points: 2
#     Edge 102, Type (0, 0), BuildingBlock: UVAHIK_clean_linker_0, # of connection points: 2
#     Edge 103, Type (0, 0), BuildingBlock: UVAHIK_clean_linker_0, # of connection points: 2
#     Edge 104, Type (0, 0), BuildingBlock: UVAHIK_clean_linker_0, # of connection points: 2
#     Edge 105, Type (0, 0), BuildingBlock: UVAHIK_clean_linker_0, # of connection points: 2
#     Edge 106, Type (0, 0), BuildingBlock: UVAHIK_clean_linker_0, # of connection points: 2
#     Edge 107, Type (0, 0), BuildingBlock: UVAHIK_clean_linker_0, # of connection points: 2
#     Edge 108, Type (0, 0), BuildingBlock: UVAHIK_clean_linker_0, # of connection points: 2
#     Edge 109, Type (0, 0), BuildingBlock: UVAHIK_clean_linker_0, # of connection points: 2
#     Edge 110, Type (0, 0), BuildingBlock: UVAHIK_clean_linker_0, # of connection points: 2
#     Edge 111, Type (0, 0), BuildingBlock: UVAHIK_clean_linker_0, # of connection points: 2
#     Edge 112, Type (0, 0), BuildingBlock: UVAHIK_clean_linker_0, # of connection points: 2
#     Edge 113, Type (0, 0), BuildingBlock: UVAHIK_clean_linker_0, # of connection points: 2
#     Edge 114, Type (0, 0), BuildingBlock: UVAHIK_clean_linker_0, # of connection points: 2
#     Edge 115, Type (0, 0), BuildingBlock: UVAHIK_clean_linker_0, # of connection points: 2
#     Edge 116, Type (0, 0), BuildingBlock: UVAHIK_clean_linker_0, # of connection points: 2
#     Edge 117, Type (0, 0), BuildingBlock: UVAHIK_clean_linker_0, # of connection points: 2
#     Edge 118, Type (0, 0), BuildingBlock: UVAHIK_clean_linker_0, # of connection points: 2
#     Edge 119, Type (0, 0), BuildingBlock: UVAHIK_clean_linker_0, # of connection points: 2
#     Edge 120, Type (0, 0), BuildingBlock: UVAHIK_clean_linker_0, # of connection points: 2
#     Edge 121, Type (0, 0), BuildingBlock: UVAHIK_clean_linker_0, # of connection points: 2
#     Edge 122, Type (0, 0), BuildingBlock: UVAHIK_clean_linker_0, # of connection points: 2
#     Edge 123, Type (0, 0), BuildingBlock: UVAHIK_clean_linker_0, # of connection points: 2
#     Edge 124, Type (0, 0), BuildingBlock: UVAHIK_clean_linker_0, # of connection points: 2
#     Edge 125, Type (0, 0), BuildingBlock: UVAHIK_clean_linker_0, # of connection points: 2
#     Edge 126, Type (0, 0), BuildingBlock: UVAHIK_clean_linker_0, # of connection points: 2
#     Edge 127, Type (0, 0), BuildingBlock: UVAHIK_clean_linker_0, # of connection points: 2
#     Edge 128, Type (0, 0), BuildingBlock: UVAHIK_clean_linker_0, # of connection points: 2
#     Edge 129, Type (0, 0), BuildingBlock: UVAHIK_clean_linker_0, # of connection points: 2
#     Edge 130, Type (0, 0), BuildingBlock: UVAHIK_clean_linker_0, # of connection points: 2
#     Edge 131, Type (0, 0), BuildingBlock: UVAHIK_clean_linker_0, # of connection points: 2
#     Edge 132, Type (0, 0), BuildingBlock: UVAHIK_clean_linker_0, # of connection points: 2
#     Edge 133, Type (0, 0), BuildingBlock: UVAHIK_clean_linker_0, # of connection points: 2
#     Edge 134, Type (0, 0), BuildingBlock: UVAHIK_clean_linker_0, # of connection points: 2
#     Edge 135, Type (0, 0), BuildingBlock: UVAHIK_clean_linker_0, # of connection points: 2
#     Edge 136, Type (0, 0), BuildingBlock: UVAHIK_clean_linker_0, # of connection points: 2
#     Edge 137, Type (0, 0), BuildingBlock: UVAHIK_clean_linker_0, # of connection points: 2
#     Edge 138, Type (0, 0), BuildingBlock: UVAHIK_clean_linker_0, # of connection points: 2
#     Edge 139, Type (0, 0), BuildingBlock: UVAHIK_clean_linker_0, # of connection points: 2
#     Edge 140, Type (0, 0), BuildingBlock: UVAHIK_clean_linker_0, # of connection points: 2
#     Edge 141, Type (0, 0), BuildingBlock: UVAHIK_clean_linker_0, # of connection points: 2
#     Edge 142, Type (0, 0), BuildingBlock: UVAHIK_clean_linker_0, # of connection points: 2
#     Edge 143, Type (0, 0), BuildingBlock: UVAHIK_clean_linker_0, # of connection points: 2
# Relax obj value: 0.227
# Max RMSD: 0.258
# Mean RMSD: 0.258
data_MOF--net-sop--node1-NUHQUE_clean_sbu_2--edge1-UVAHIK_clean_linker_0
_symmetry_space_group_name_H-M    P1
_symmetry_Int_Tables_number       1
_symmetry_cell_setting            triclinic
loop_
_symmetry_equiv_pos_as_xyz
'x, y, z'
_cell_length_a     141.53052
_cell_length_b     33.562901
_cell_length_c     75.111698
_cell_angle_alpha  89.71903
_cell_angle_beta   89.991008
_cell_angle_gamma 90.014712
loop_
_atom_site_label
_atom_site_type_symbol
_atom_site_fract_x
_atom_site_fract_y
_atom_site_fract_z
_atom_type_partial_charge
O0 O 0.11722 0.34943 0.08347 0.0
Tb1 Tb 0.10546 0.38298 0.094 0.0
Eu2 Eu 0.08359 0.42765 0.08581 0.0
C3 C 0.11647 0.331 0.06817 0.0
O4 O 0.10884 0.33639 0.05851 0.0
C5 C 0.08766 0.33861 0.09994 0.0
O6 O 0.07598 0.47438 0.10178 0.0
C7 C 0.07461 0.4179 0.05558 0.0
C8 C 0.07849 0.4799 0.11844 0.0
O9 O 0.08473 0.45564 0.12554 0.0
C10 C 0.10452 0.47543 0.0835 0.0
C11 C 0.06957 0.43725 0.04011 0.0
C12 C 0.07286 0.43266 1.02236 0.0
C13 C 0.06757 0.44759 1.00775 0.0
C14 C 0.05885 0.46624 1.01106 0.0
C15 C 0.05524 0.47009 1.0284 0.0
C16 C 0.06072 0.45601 0.0428 0.0
O17 O 0.09429 0.3411 0.08774 0.0
O18 O 0.0833 0.3721 0.10399 0.0
O19 O 0.11117 0.35898 0.11863 0.0
O20 O 0.09995 0.40092 0.11995 0.0
C21 C 0.10533 0.37713 0.12917 0.0
O22 O 0.09516 0.47602 0.08501 0.0
O23 O 0.10946 0.44194 0.08389 0.0
O24 O 0.07051 0.42026 0.07127 0.0
O25 O 0.08392 0.41848 0.05664 0.0
H26 H 0.07946 0.41725 1.01991 0.0
H27 H 0.05463 0.47619 0.99984 0.0
H28 H 0.05796 0.45907 0.05617 0.0
O29 O 0.16303 0.93636 0.05146 0.0
Tb30 Tb 0.15464 0.9454 0.07527 0.0
Eu31 Eu 0.17649 0.90931 0.08115 0.0
C32 C 0.16404 0.96345 0.03885 0.0
O33 O 0.1681 0.95349 1.0238 0.0
C34 C 0.1679 0.98896 0.10356 0.0
O35 O 0.18129 0.86339 0.10128 0.0
C36 C 0.1896 0.91623 0.05646 0.0
C37 C 0.17603 0.85473 0.11522 0.0
O38 O 0.16848 0.87636 0.11836 0.0
C39 C 0.15702 0.85552 0.08156 0.0
C40 C 0.19519 0.89912 0.04123 0.0
C41 C 0.19257 0.90659 1.02323 0.0
C42 C 0.19861 0.89584 1.00902 0.0
C43 C 0.20721 0.87693 1.01293 0.0
C44 C 0.21001 0.86902 1.03055 0.0
C45 C 0.20397 0.88038 0.04459 0.0
O46 O 0.15929 0.98192 0.0976 0.0
O47 O 0.17529 0.96727 0.09823 0.0
O48 O 0.14519 0.99409 0.06748 0.0
O49 O 0.13979 0.9355 0.06845 0.0
C50 C 0.13776 0.97237 0.0648 0.0
O51 O 0.16563 0.8596 0.07473 0.0
O52 O 0.15247 0.88712 0.08727 0.0
O53 O 0.19129 0.90396 0.07283 0.0
O54 O 0.18073 0.92588 0.054 0.0
H55 H 0.18608 0.92236 1.02029 0.0
H56 H 0.21193 0.86948 1.00206 0.0
H57 H 0.20622 0.87526 0.0582 0.0
O58 O 0.11691 0.98608 0.24187 0.0
Tb59 Tb 0.10548 0.95245 0.23015 0.0
Eu60 Eu 0.08353 0.90623 0.23873 0.0
C61 C 0.11589 1.00294 0.25748 0.0
O62 O 0.10819 0.99578 0.26674 0.0
C63 C 0.08746 0.9949 0.22429 0.0
O64 O 0.07624 0.8591 0.22248 0.0
C65 C 0.07416 0.91661 0.26849 0.0
C66 C 0.07936 0.8522 0.2063 0.0
O67 O 0.08611 0.875 0.1999 0.0
C68 C 0.10465 0.85939 0.24067 0.0
C69 C 0.06901 0.8997 0.28442 0.0
C70 C 0.07221 0.90715 0.30204 0.0
C71 C 0.06648 0.89753 0.31694 0.0
C72 C 0.05759 0.88008 0.31405 0.0
C73 C 0.05418 0.87259 0.29683 0.0
C74 C 0.06 0.88193 0.28214 0.0
O75 O 0.09402 0.99263 0.23661 0.0
O76 O 0.08316 0.96125 0.22027 0.0
O77 O 0.11148 0.97914 0.20631 0.0
O78 O 0.1003 0.93728 0.2036 0.0
C79 C 0.10577 0.96214 0.19515 0.0
O80 O 0.09525 0.85866 0.2403 0.0
O81 O 0.10961 0.89272 0.23912 0.0
O82 O 0.07025 0.9118 0.25277 0.0
O83 O 0.08348 0.91742 0.26779 0.0
H84 H 0.0789 0.92212 0.30413 0.0
H85 H 0.05323 0.87265 0.32546 0.0
H86 H 0.05724 0.87732 0.26886 0.0
O87 O 0.16364 0.39766 0.27225 0.0
Tb88 Tb 0.15495 0.39058 0.24873 0.0
Eu89 Eu 0.17687 0.42628 0.24303 0.0
C90 C 0.16434 0.3708 0.28503 0.0
O91 O 0.16876 0.38014 0.2998 0.0
C92 C 0.16818 0.34662 0.22064 0.0
O93 O 0.1816 0.47173 0.22263 0.0
C94 C 0.19005 0.42041 0.26768 0.0
C95 C 0.17631 0.48006 0.20869 0.0
O96 O 0.16877 0.45829 0.20568 0.0
C97 C 0.15747 0.48026 0.24246 0.0
C98 C 0.19542 0.43907 0.28283 0.0
C99 C 0.19231 0.43501 0.30077 0.0
C100 C 0.19782 0.44967 0.31505 0.0
C101 C 0.20655 0.46772 0.31125 0.0
C102 C 0.20998 0.47114 0.29373 0.0
C103 C 0.20433 0.45685 0.27963 0.0
O104 O 0.15954 0.35409 0.22637 0.0
O105 O 0.1756 0.36792 0.22617 0.0
O106 O 0.14501 0.34306 0.25579 0.0
O107 O 0.14035 0.40275 0.25655 0.0
C108 C 0.1379 0.366 0.25939 0.0
O109 O 0.16603 0.47602 0.24948 0.0
O110 O 0.15297 0.44875 0.23654 0.0
O111 O 0.19168 0.43248 0.25127 0.0
O112 O 0.18123 0.41 0.27013 0.0
H113 H 0.18568 0.42029 0.30366 0.0
H114 H 0.21091 0.47761 0.32223 0.0
H115 H 0.20696 0.4591 0.26611 0.0
O116 O 0.89631 0.71819 0.98059 0.0
Tb117 Tb 0.90939 0.68677 0.97627 0.0
Eu118 Eu 0.9306 0.65343 0.98679 0.0
C119 C 0.89484 0.73323 0.99643 0.0
O120 O 0.90092 0.72523 1.00918 0.0
C121 C 0.92564 0.74196 0.97173 0.0
O122 O 0.93871 0.60695 0.97166 0.0
C123 C 0.93913 0.6643 1.01738 0.0
C124 C 0.93998 0.6092 0.95435 0.0
O125 O 0.93757 0.64194 0.94584 0.0
C126 C 0.91064 0.60112 0.9912 0.0
C127 C 0.94414 0.64512 1.03292 0.0
C128 C 0.94084 0.65007 0.05064 0.0
C129 C 0.94611 0.63529 0.06531 0.0
C130 C 0.95482 0.61645 0.06208 0.0
C131 C 0.95843 0.61224 0.04475 0.0
C132 C 0.95296 0.62612 1.0303 0.0
O133 O 0.91829 0.7375 0.98215 0.0
O134 O 0.93085 0.70994 0.96878 0.0
O135 O 0.90553 0.69127 0.94834 0.0
O136 O 0.91759 0.65677 0.95556 0.0
C137 C 0.91252 0.67 0.94235 0.0
O138 O 0.91979 0.60145 0.98732 0.0
O139 O 0.90585 0.63464 0.99209 0.0
O140 O 0.94342 0.66294 1.00186 0.0
O141 O 0.92984 0.6623 1.01595 0.0
H142 H 0.93426 0.66563 0.05302 0.0
H143 H 0.95903 0.60665 0.07333 0.0
H144 H 0.95572 0.62273 1.01695 0.0
O145 O 0.84353 0.12396 1.01287 0.0
Tb146 Tb 0.85574 0.13527 0.99634 0.0
Eu147 Eu 0.83501 0.17856 0.99112 0.0
C148 C 0.84072 0.08823 1.01771 0.0
O149 O 0.83297 0.08425 1.02713 0.0
C150 C 0.84311 0.10021 0.96685 0.0
O151 O 0.82855 0.22479 0.973 0.0
C152 C 0.82455 0.17429 1.02007 0.0
C153 C 0.83133 0.22867 0.95638 0.0
O154 O 0.83701 0.20178 0.94957 0.0
C155 C 0.85546 0.22862 0.99067 0.0
C156 C 0.81836 0.19141 1.03436 0.0
C157 C 0.82081 0.1854 0.05252 0.0
C158 C 0.81463 0.19684 0.0664 0.0
C159 C 0.80608 0.21568 0.06181 0.0
C160 C 0.80342 0.2219 0.04397 0.0
C161 C 0.80958 0.20941 1.0303 0.0
O162 O 0.85183 0.10981 0.97106 0.0
O163 O 0.83582 0.11882 0.97461 0.0
O164 O 0.86723 0.13105 1.01578 0.0
O165 O 0.86621 0.08771 0.99544 0.0
C166 C 0.8711 0.09932 1.00911 0.0
O167 O 0.84618 0.22852 0.99314 0.0
O168 O 0.86025 0.1952 0.98909 0.0
O169 O 0.82123 0.17035 1.00381 0.0
O170 O 0.83367 0.1814 1.02041 0.0
H171 H 0.82733 0.17016 0.0558 0.0
H172 H 0.8013 0.22475 0.07231 0.0
H173 H 0.8075 0.21348 1.01653 0.0
O174 O 0.89573 0.10986 0.84936 0.0
Tb175 Tb 0.90864 0.14032 0.85628 0.0
Eu176 Eu 0.92995 0.17969 0.83501 0.0
C177 C 0.89466 0.09689 0.83304 0.0
O178 O 0.90104 0.10628 0.82103 0.0
C179 C 0.92583 0.09341 0.85202 0.0
O180 O 0.93701 0.23126 0.84871 0.0
C181 C 0.93899 0.1686 0.80491 0.0
C182 C 0.93694 0.235 0.86611 0.0
O183 O 0.93338 0.20617 0.87592 0.0
C184 C 0.90893 0.2288 0.83922 0.0
C185 C 0.94394 0.18727 0.78915 0.0
C186 C 0.94061 0.18184 0.77147 0.0
C187 C 0.9459 0.19604 0.75669 0.0
C188 C 0.95466 0.21459 0.75976 0.0
C189 C 0.95828 0.21937 0.77703 0.0
C190 C 0.95279 0.2062 0.79159 0.0
O191 O 0.91804 0.09961 0.84314 0.0
O192 O 0.93141 0.12467 0.85361 0.0
O193 O 0.90537 0.11619 0.88246 0.0
O194 O 0.91741 0.15372 0.87952 0.0
C195 C 0.91261 0.13165 0.89056 0.0
O196 O 0.91759 0.22494 0.83233 0.0
O197 O 0.90471 0.20064 0.84868 0.0
O198 O 0.94304 0.17284 0.82053 0.0
O199 O 0.92968 0.16798 0.80598 0.0
H200 H 0.934 0.16639 0.7692 0.0
H201 H 0.95888 0.22378 0.74842 0.0
H202 H 0.95556 0.21006 0.80491 0.0
O203 O 0.84849 0.701 0.805 0.0
Tb204 Tb 0.85802 0.69271 0.82711 0.0
Eu205 Eu 0.83576 0.65851 0.83045 0.0
C206 C 0.84597 0.73637 0.7991 0.0
O207 O 0.83971 0.73922 0.78626 0.0
C208 C 0.84427 0.74103 0.85224 0.0
O209 O 0.83012 0.61135 0.84909 0.0
C210 C 0.82377 0.66435 0.80374 0.0
C211 C 0.83364 0.60551 0.86508 0.0
O212 O 0.83991 0.63069 0.87135 0.0
C213 C 0.85482 0.60394 0.8337 0.0
C214 C 0.81823 0.64446 0.78917 0.0
C215 C 0.82127 0.6477 0.77119 0.0
C216 C 0.81584 0.63164 0.75716 0.0
C217 C 0.80724 0.61286 0.76125 0.0
C218 C 0.80387 0.61017 0.77884 0.0
C219 C 0.80943 0.62602 0.79273 0.0
O220 O 0.853 0.73447 0.84682 0.0
O221 O 0.83706 0.71756 0.84725 0.0
O222 O 0.87027 0.67891 0.81055 0.0
O223 O 0.87099 0.72795 0.82812 0.0
C224 C 0.87563 0.70742 0.81636 0.0
O225 O 0.84664 0.60836 0.82537 0.0
O226 O 0.85893 0.63538 0.84051 0.0
O227 O 0.82117 0.65977 0.82046 0.0
O228 O 0.83295 0.66668 0.80199 0.0
H229 H 0.82782 0.66292 0.76808 0.0
H230 H 0.80291 0.60181 0.75043 0.0
H231 H 0.80686 0.62428 0.8063 0.0
O232 O 0.11745 0.8632 0.5927 0.0
Tb233 Tb 0.10543 0.90127 0.59784 0.0
Eu234 Eu 0.08348 0.93389 0.58727 0.0
C235 C 0.11832 0.84836 0.57664 0.0
O236 O 0.11235 0.85999 0.56427 0.0
C237 C 0.08873 0.84667 0.60454 0.0
O238 O 0.07495 0.9817 0.60072 0.0
C239 C 0.07521 0.92092 0.55657 0.0
C240 C 0.07406 0.98326 0.61811 0.0
O241 O 0.07729 0.95366 0.62783 0.0
C242 C 0.10337 0.98568 0.58208 0.0
C243 C 0.07 0.93863 0.5409 0.0
C244 C 0.07298 0.93095 0.52316 0.0
C245 C 0.06722 0.94176 0.50847 0.0
C246 C 0.05856 0.96091 0.51166 0.0
C247 C 0.05541 0.9691 0.529 0.0
C248 C 0.0612 0.95799 0.5435 0.0
O249 O 0.09633 0.84951 0.59458 0.0
O250 O 0.0833 0.87865 0.60616 0.0
O251 O 0.11142 0.91188 0.6242 0.0
O252 O 0.09687 0.92465 0.61956 0.0
C253 C 0.10358 0.92437 0.63137 0.0
O254 O 0.09437 0.98552 0.58707 0.0
O255 O 0.10796 0.95183 0.58023 0.0
O256 O 0.07086 0.92162 0.57203 0.0
O257 O 0.08447 0.92472 0.55811 0.0
H258 H 0.07949 0.91487 0.52084 0.0
H259 H 0.05406 0.96826 0.50044 0.0
H260 H 0.05871 0.96367 0.55688 0.0
O261 O 0.16475 0.44951 0.55131 0.0
Tb262 Tb 0.15618 0.44962 0.57515 0.0
Eu263 Eu 0.17802 0.41215 0.57996 0.0
C264 C 0.16538 0.4802 0.54039 0.0
O265 O 0.16982 0.47598 0.52516 0.0
C266 C 0.16966 0.49184 0.60329 0.0
O267 O 0.1831 0.36289 0.59814 0.0
C268 C 0.19057 0.42005 0.55428 0.0
C269 C 0.18041 0.35968 0.61485 0.0
O270 O 0.17535 0.38823 0.62199 0.0
C271 C 0.1585 0.35961 0.58125 0.0
C272 C 0.19624 0.40262 0.53921 0.0
C273 C 0.19358 0.40952 0.52117 0.0
C274 C 0.19962 0.39868 0.50693 0.0
C275 C 0.20823 0.37993 0.51101 0.0
C276 C 0.2112 0.37364 0.52864 0.0
C277 C 0.20511 0.38458 0.54266 0.0
O278 O 0.161 0.48593 0.59731 0.0
O279 O 0.17692 0.46928 0.59788 0.0
O280 O 0.14525 0.49506 0.57108 0.0
O281 O 0.14219 0.43504 0.56488 0.0
C282 C 0.13885 0.47102 0.56491 0.0
O283 O 0.16696 0.36317 0.57383 0.0
O284 O 0.15432 0.39148 0.58758 0.0
O285 O 0.19274 0.4109 0.57084 0.0
O286 O 0.1815 0.42597 0.55211 0.0
H287 H 0.18704 0.42503 0.51824 0.0
H288 H 0.21279 0.37054 0.50022 0.0
H289 H 0.20749 0.38079 0.55627 0.0
O290 O 0.11631 0.47434 0.73468 0.0
Tb291 Tb 0.10376 0.4412 0.72814 0.0
Eu292 Eu 0.0825 0.40424 0.73756 0.0
C293 C 0.11662 0.49332 0.74988 0.0
O294 O 0.10964 0.48862 0.76124 0.0
C295 C 0.08697 0.49348 0.72301 0.0
O296 O 0.07415 0.35771 0.7229 0.0
C297 C 0.07426 0.41537 0.76843 0.0
C298 C 0.07367 0.35764 0.70542 0.0
O299 O 0.07719 0.38788 0.69645 0.0
C300 C 0.10267 0.35303 0.74101 0.0
C301 C 0.0691 0.39734 0.78407 0.0
C302 C 0.07205 0.40501 0.80183 0.0
C303 C 0.06628 0.39411 0.81653 0.0
C304 C 0.05767 0.37465 0.81319 0.0
C305 C 0.05441 0.36767 0.79583 0.0
C306 C 0.06026 0.37834 0.78139 0.0
O307 O 0.09416 0.48993 0.73393 0.0
O308 O 0.08212 0.46069 0.7196 0.0
O309 O 0.10887 0.45062 0.70121 0.0
O310 O 0.09633 0.41714 0.70503 0.0
C311 C 0.10202 0.43216 0.69317 0.0
O312 O 0.0935 0.35304 0.73728 0.0
O313 O 0.10737 0.38674 0.74237 0.0
O314 O 0.06988 0.41485 0.75299 0.0
O315 O 0.08352 0.41198 0.76681 0.0
H316 H 0.07854 0.42127 0.80416 0.0
H317 H 0.05332 0.36552 0.82438 0.0
H318 H 0.05766 0.37386 0.76799 0.0
O319 O 0.16976 0.87937 0.76408 0.0
Tb320 Tb 0.15783 0.89076 0.74691 0.0
Eu321 Eu 0.17895 0.93133 0.74188 0.0
C322 C 0.17264 0.8435 0.76851 0.0
O323 O 0.18046 0.83921 0.77773 0.0
C324 C 0.17064 0.85037 0.71871 0.0
O325 O 0.1851 0.97767 0.72337 0.0
C326 C 0.18988 0.92654 0.77022 0.0
C327 C 0.18156 0.98354 0.70739 0.0
O328 O 0.17519 0.95857 0.70131 0.0
C329 C 0.15887 0.98276 0.74029 0.0
C330 C 0.19621 0.94244 0.78461 0.0
C331 C 0.19378 0.93591 0.80276 0.0
C332 C 0.20011 0.94583 0.81663 0.0
C333 C 0.20878 0.96362 0.81215 0.0
C334 C 0.21137 0.9709 0.79436 0.0
C335 C 0.20509 0.9598 0.78062 0.0
O336 O 0.16189 0.8585 0.72341 0.0
O337 O 0.17792 0.87127 0.72539 0.0
O338 O 0.14653 0.89293 0.76673 0.0
O339 O 0.14607 0.84883 0.74671 0.0
C340 C 0.14162 0.86346 0.76036 0.0
O341 O 0.1679 0.98173 0.74492 0.0
O342 O 0.15428 0.94968 0.73679 0.0
O343 O 0.19298 0.92382 0.75375 0.0
O344 O 0.18077 0.93306 0.77109 0.0
H345 H 0.18716 0.92142 0.80605 0.0
H346 H 0.21368 0.9711 0.82272 0.0
H347 H 0.20713 0.96449 0.76687 0.0
O348 O 0.91191 0.18843 0.51667 0.0
Tb349 Tb 0.90428 0.19607 0.49184 0.0
Eu350 Eu 0.92622 0.15924 0.49176 0.0
C351 C 0.91192 0.21392 0.52994 0.0
O352 O 0.91586 0.20357 0.5451 0.0
C353 C 0.91887 0.23555 0.46614 0.0
O354 O 0.93214 0.11381 0.47275 0.0
C355 C 0.93833 0.16398 0.51834 0.0
C356 C 0.9283 0.10658 0.45716 0.0
O357 O 0.92134 0.1292 0.45149 0.0
C358 C 0.90634 0.10455 0.48927 0.0
C359 C 0.94404 0.14571 0.53322 0.0
C360 C 0.94154 0.15249 0.5513 0.0
C361 C 0.9476 0.14076 0.5654 0.0
C362 C 0.95607 0.12103 0.56116 0.0
C363 C 0.95881 0.11408 0.54345 0.0
C364 C 0.95276 0.12668 0.52957 0.0
O365 O 0.91025 0.22156 0.4677 0.0
O366 O 0.92584 0.21965 0.4758 0.0
O367 O 0.89685 0.25256 0.49463 0.0
O368 O 0.88897 0.19915 0.49596 0.0
C369 C 0.88845 0.23786 0.49661 0.0
O370 O 0.915 0.10903 0.49605 0.0
O371 O 0.90156 0.13555 0.48331 0.0
O372 O 0.94075 0.15725 0.50172 0.0
O373 O 0.92919 0.16872 0.52023 0.0
H374 H 0.93512 0.16864 0.55436 0.0
H375 H 0.96076 0.11206 0.57184 0.0
H376 H 0.95493 0.1222 0.5159 0.0
O377 O 0.86721 0.60428 0.4953 0.0
Tb378 Tb 0.85659 0.62734 0.47725 0.0
Eu379 Eu 0.83409 0.67282 0.48952 0.0
C380 C 0.86494 0.58447 0.50981 0.0
O381 O 0.85612 0.58454 0.51526 0.0
C382 C 0.83814 0.58645 0.47334 0.0
O383 O 0.82802 0.72474 0.47437 0.0
C384 C 0.82351 0.66119 0.51777 0.0
C385 C 0.82968 0.72945 0.45728 0.0
O386 O 0.83441 0.70183 0.44872 0.0
C387 C 0.85484 0.72086 0.48691 0.0
C388 C 0.81819 0.67882 0.53326 0.0
C389 C 0.8209 0.67056 0.55113 0.0
C390 C 0.81506 0.6819 0.5656 0.0
C391 C 0.80662 0.70254 0.56196 0.0
C392 C 0.80368 0.71081 0.54448 0.0
C393 C 0.80952 0.69892 0.53025 0.0
O394 O 0.84495 0.58917 0.48507 0.0
O395 O 0.83353 0.61976 0.47 0.0
O396 O 0.86578 0.59528 0.45906 0.0
O397 O 0.85279 0.61854 0.44932 0.0
C398 C 0.86017 0.59726 0.4454 0.0
O399 O 0.84643 0.71651 0.49465 0.0
O400 O 0.85896 0.69189 0.47788 0.0
O401 O 0.82026 0.66871 0.50171 0.0
O402 O 0.8328 0.65769 0.51815 0.0
H403 H 0.82728 0.65365 0.55373 0.0
H404 H 0.80209 0.71101 0.57294 0.0
H405 H 0.80716 0.70467 0.51677 0.0
O406 O 0.90797 0.60579 0.30194 0.0
Tb407 Tb 0.90623 0.64872 0.3233 0.0
Eu408 Eu 0.92948 0.68234 0.33464 0.0
C409 C 0.91566 0.58404 0.3008 0.0
O410 O 0.92304 0.59358 0.3105 0.0
C411 C 0.92028 0.59973 0.35208 0.0
O412 O 0.93747 0.72874 0.35014 0.0
C413 C 0.93799 0.67156 0.30403 0.0
C414 C 0.93621 0.7321 0.36741 0.0
O415 O 0.93153 0.70407 0.37593 0.0
C416 C 0.91203 0.73687 0.32415 0.0
C417 C 0.9436 0.68893 0.28882 0.0
C418 C 0.9409 0.68151 0.2709 0.0
C419 C 0.94694 0.69176 0.25652 0.0
C420 C 0.9556 0.71042 0.26034 0.0
C421 C 0.95859 0.71735 0.27789 0.0
C422 C 0.95247 0.70721 0.29202 0.0
O423 O 0.91248 0.60456 0.34248 0.0
O424 O 0.92737 0.6257 0.35157 0.0
O425 O 0.89189 0.65429 0.31388 0.0
O426 O 0.89588 0.66712 0.3424 0.0
C427 C 0.8966 0.64277 0.32837 0.0
O428 O 0.9185 0.73179 0.33641 0.0
O429 O 0.91051 0.70732 0.31311 0.0
O430 O 0.94218 0.66922 0.31967 0.0
O431 O 0.92882 0.678 0.30527 0.0
H432 H 0.93435 0.66593 0.26823 0.0
H433 H 0.96018 0.71914 0.24943 0.0
H434 H 0.95485 0.71165 0.30557 0.0
O435 O 0.87034 0.21443 0.33103 0.0
Tb436 Tb 0.85851 0.18216 0.34241 0.0
Eu437 Eu 0.83541 0.15324 0.33497 0.0
C438 C 0.86911 0.23364 0.31594 0.0
O439 O 0.86083 0.23188 0.30808 0.0
C440 C 0.84173 0.2386 0.35301 0.0
O441 O 0.82766 0.10574 0.3503 0.0
C442 C 0.82601 0.16712 0.30551 0.0
C443 C 0.82778 0.10491 0.36779 0.0
O444 O 0.83158 0.13482 0.37644 0.0
C445 C 0.85439 0.10252 0.32487 0.0
C446 C 0.82069 0.14923 0.2901 0.0
C447 C 0.82388 0.15434 0.27229 0.0
C448 C 0.81838 0.14085 0.25776 0.0
C449 C 0.80955 0.12323 0.26119 0.0
C450 C 0.80602 0.11916 0.27857 0.0
C451 C 0.81172 0.13145 0.29294 0.0
O452 O 0.84956 0.23619 0.34359 0.0
O453 O 0.83608 0.20715 0.35416 0.0
O454 O 0.86886 0.16426 0.36181 0.0
O455 O 0.85359 0.14373 0.36326 0.0
C456 C 0.85971 0.17381 0.36098 0.0
O457 O 0.84601 0.10156 0.33261 0.0
O458 O 0.85833 0.1373 0.32154 0.0
O459 O 0.82215 0.16384 0.32138 0.0
O460 O 0.83534 0.16562 0.30602 0.0
H461 H 0.83057 0.16901 0.26974 0.0
H462 H 0.80529 0.11332 0.25007 0.0
H463 H 0.80893 0.1288 0.30632 0.0
O464 O 0.61747 0.35211 0.58052 0.0
Tb465 Tb 0.60489 0.38239 0.58961 0.0
Eu466 Eu 0.58355 0.42024 0.58373 0.0
C467 C 0.61817 0.34392 0.56349 0.0
O468 O 0.61141 0.35587 0.55272 0.0
C469 C 0.58829 0.33125 0.59861 0.0
O470 O 0.57587 0.46785 0.59898 0.0
C471 C 0.57456 0.40912 0.55365 0.0
C472 C 0.575 0.46634 0.61639 0.0
O473 O 0.57752 0.43378 0.62491 0.0
C474 C 0.60347 0.47064 0.57723 0.0
C475 C 0.56943 0.42821 0.53822 0.0
C476 C 0.57265 0.42333 0.52046 0.0
C477 C 0.56733 0.43817 0.50588 0.0
C478 C 0.55865 0.45712 0.50924 0.0
C479 C 0.55511 0.46129 0.52662 0.0
C480 C 0.56061 0.44716 0.54099 0.0
O481 O 0.59504 0.33313 0.58661 0.0
O482 O 0.58373 0.36468 0.60222 0.0
O483 O 0.61015 0.37457 0.61662 0.0
O484 O 0.59841 0.41306 0.61207 0.0
C485 C 0.60382 0.39713 0.62414 0.0
O486 O 0.59458 0.47099 0.58277 0.0
O487 O 0.60786 0.43659 0.57451 0.0
O488 O 0.57048 0.4111 0.56936 0.0
O489 O 0.58387 0.41057 0.55462 0.0
H490 H 0.57922 0.40777 0.51796 0.0
H491 H 0.5544 0.46704 0.49806 0.0
H492 H 0.55788 0.45039 0.55438 0.0
O493 O 0.65803 0.96975 0.55396 0.0
Tb494 Tb 0.6548 0.92658 0.57483 0.0
Eu495 Eu 0.6779 0.89393 0.58716 0.0
C496 C 0.66559 0.99238 0.55469 0.0
O497 O 0.67227 0.98382 0.5662 0.0
C498 C 0.66807 0.97458 0.60489 0.0
O499 O 0.68596 0.85036 0.60427 0.0
C500 C 0.68671 0.9035 0.55673 0.0
C501 C 0.68301 0.84415 0.62066 0.0
O502 O 0.67643 0.86763 0.6271 0.0
C503 C 0.66059 0.83831 0.57709 0.0
C504 C 0.6923 0.8862 0.54155 0.0
C505 C 0.68959 0.89404 0.52366 0.0
C506 C 0.69559 0.88372 0.50931 0.0
C507 C 0.70421 0.86471 0.51301 0.0
C508 C 0.70709 0.85623 0.53053 0.0
C509 C 0.70109 0.86714 0.54472 0.0
O510 O 0.66004 0.96764 0.59623 0.0
O511 O 0.67561 0.95137 0.60314 0.0
O512 O 0.64118 0.92464 0.56197 0.0
O513 O 0.6431 0.90743 0.59084 0.0
C514 C 0.6449 0.93357 0.57773 0.0
O515 O 0.66709 0.84373 0.58926 0.0
O516 O 0.65912 0.8674 0.56568 0.0
O517 O 0.69082 0.90511 0.57244 0.0
O518 O 0.67749 0.8981 0.55776 0.0
H519 H 0.68308 0.90994 0.52096 0.0
H520 H 0.70889 0.85765 0.50203 0.0
H521 H 0.70336 0.86144 0.55826 0.0
O522 O 0.6159 0.96802 0.74256 0.0
Tb523 Tb 0.60547 0.94419 0.72447 0.0
Eu524 Eu 0.58312 0.89768 0.73804 0.0
C525 C 0.61352 0.98586 0.75742 0.0
O526 O 0.60481 0.98263 0.76331 0.0
C527 C 0.58684 0.98396 0.72125 0.0
O528 O 0.57699 0.84513 0.72354 0.0
C529 C 0.57317 0.90875 0.76709 0.0
C530 C 0.57865 0.8399 0.70649 0.0
O531 O 0.58338 0.86731 0.69767 0.0
C532 C 0.60396 0.85083 0.73462 0.0
C533 C 0.56839 0.88984 0.78298 0.0
C534 C 0.57195 0.89471 0.80053 0.0
C535 C 0.5669 0.87973 0.81544 0.0
C536 C 0.55816 0.8609 0.81266 0.0
C537 C 0.5543 0.85657 0.79554 0.0
C538 C 0.55954 0.87076 0.78082 0.0
O539 O 0.59375 0.98109 0.73276 0.0
O540 O 0.58211 0.95078 0.71835 0.0
O541 O 0.61461 0.97664 0.70618 0.0
O542 O 0.60143 0.95486 0.69673 0.0
C543 C 0.60886 0.97589 0.69271 0.0
O544 O 0.59569 0.85506 0.74284 0.0
O545 O 0.60788 0.87968 0.72506 0.0
O546 O 0.56956 0.90128 0.75132 0.0
O547 O 0.58244 0.9129 0.76664 0.0
H548 H 0.57857 0.91021 0.80261 0.0
H549 H 0.55413 0.85101 0.82414 0.0
H550 H 0.5566 0.86739 0.76761 0.0
O551 O 0.66178 0.38218 0.77068 0.0
Tb552 Tb 0.65304 0.38105 0.74711 0.0
Eu553 Eu 0.67526 0.41406 0.74255 0.0
C554 C 0.66134 0.35502 0.78332 0.0
O555 O 0.66599 0.36071 0.79822 0.0
C556 C 0.66644 0.33388 0.72046 0.0
O557 O 0.68117 0.45742 0.72238 0.0
C558 C 0.68787 0.40778 0.76823 0.0
C559 C 0.67626 0.46813 0.70829 0.0
O560 O 0.66818 0.45024 0.70506 0.0
C561 C 0.65619 0.4699 0.74005 0.0
C562 C 0.69338 0.42694 0.78305 0.0
C563 C 0.6908 0.42056 0.80114 0.0
C564 C 0.69667 0.4337 0.81522 0.0
C565 C 0.70501 0.45448 0.81093 0.0
C566 C 0.70783 0.46084 0.79321 0.0
C567 C 0.70199 0.44682 0.77936 0.0
O568 O 0.65777 0.34198 0.72582 0.0
O569 O 0.67386 0.35515 0.72604 0.0
O570 O 0.63957 0.39565 0.75969 0.0
O571 O 0.64144 0.33806 0.74908 0.0
C572 C 0.63558 0.36126 0.75738 0.0
O573 O 0.66458 0.46527 0.7477 0.0
O574 O 0.65172 0.4385 0.73394 0.0
O575 O 0.68997 0.41646 0.75161 0.0
O576 O 0.67884 0.40104 0.77047 0.0
H577 H 0.68448 0.4037 0.80427 0.0
H578 H 0.70955 0.46465 0.82159 0.0
H579 H 0.70426 0.45088 0.76569 0.0
O580 O 0.41207 0.68316 0.51638 0.0
Tb581 Tb 0.40444 0.69185 0.49161 0.0
Eu582 Eu 0.42635 0.65287 0.4907 0.0
C583 C 0.4122 0.70819 0.52981 0.0
O584 O 0.41623 0.69728 0.54481 0.0
C585 C 0.419 0.72858 0.46531 0.0
O586 O 0.43216 0.60743 0.47157 0.0
C587 C 0.43834 0.65652 0.51747 0.0
C588 C 0.42863 0.60221 0.45555 0.0
O589 O 0.42212 0.62682 0.44962 0.0
C590 C 0.40608 0.5997 0.48913 0.0
C591 C 0.44379 0.63662 0.53226 0.0
C592 C 0.44078 0.63997 0.55024 0.0
C593 C 0.44631 0.62444 0.56435 0.0
C594 C 0.45498 0.60616 0.56032 0.0
C595 C 0.45832 0.60343 0.54272 0.0
C596 C 0.45264 0.6186 0.52878 0.0
O597 O 0.41046 0.71376 0.46682 0.0
O598 O 0.42599 0.71343 0.47509 0.0
O599 O 0.39783 0.7502 0.49416 0.0
O600 O 0.38916 0.69895 0.49511 0.0
C601 C 0.38919 0.73775 0.49566 0.0
O602 O 0.41504 0.60309 0.49448 0.0
O603 O 0.40107 0.63113 0.48439 0.0
O604 O 0.44084 0.65032 0.50085 0.0
O605 O 0.4292 0.66162 0.51919 0.0
H606 H 0.4342 0.65493 0.55329 0.0
H607 H 0.45938 0.59559 0.57117 0.0
H608 H 0.4552 0.61685 0.51522 0.0
O609 O 0.36802 0.09701 0.49554 0.0
Tb610 Tb 0.35753 0.12123 0.47755 0.0
Eu611 Eu 0.33471 0.16689 0.48869 0.0
C612 C 0.36569 0.07854 0.51036 0.0
O613 O 0.35689 0.07974 0.51589 0.0
C614 C 0.33909 0.08006 0.47354 0.0
O615 O 0.32817 0.21754 0.47328 0.0
C616 C 0.32489 0.1558 0.51788 0.0
C617 C 0.32911 0.22009 0.4559 0.0
O618 O 0.33321 0.19078 0.44731 0.0
C619 C 0.35558 0.21542 0.48647 0.0
C620 C 0.31988 0.17378 0.53362 0.0
C621 C 0.32297 0.16601 0.55131 0.0
C622 C 0.31738 0.17723 0.56613 0.0
C623 C 0.30878 0.19701 0.56301 0.0
C624 C 0.30541 0.20436 0.54574 0.0
C625 C 0.31108 0.19329 0.53115 0.0
O626 O 0.34578 0.08387 0.48544 0.0
O627 O 0.33423 0.11261 0.46994 0.0
O628 O 0.36663 0.08928 0.45918 0.0
O629 O 0.35363 0.11295 0.44963 0.0
C630 C 0.36096 0.09144 0.4456 0.0
O631 O 0.34672 0.21259 0.49228 0.0
O632 O 0.36026 0.18532 0.47931 0.0
O633 O 0.3212 0.16209 0.50204 0.0
O634 O 0.33419 0.15322 0.51751 0.0
H635 H 0.32945 0.14955 0.55352 0.0
H636 H 0.30454 0.2063 0.57429 0.0
H637 H 0.30836 0.19801 0.51783 0.0
O638 O 0.40704 0.09845 0.30166 0.0
Tb639 Tb 0.40528 0.14102 0.32316 0.0
Eu640 Eu 0.42857 0.17475 0.33441 0.0
C641 C 0.41478 0.0771 0.30031 0.0
O642 O 0.42213 0.08648 0.3101 0.0
C643 C 0.41943 0.09225 0.35181 0.0
O644 O 0.43675 0.22126 0.34953 0.0
C645 C 0.43675 0.16366 0.30352 0.0
C646 C 0.4351 0.22669 0.36659 0.0
O647 O 0.4299 0.20051 0.37519 0.0
C648 C 0.4111 0.22913 0.32413 0.0
C649 C 0.44217 0.18218 0.28837 0.0
C650 C 0.43914 0.17717 0.2705 0.0
C651 C 0.44468 0.19138 0.2561 0.0
C652 C 0.45338 0.20982 0.25977 0.0
C653 C 0.45671 0.21423 0.27728 0.0
C654 C 0.451 0.20076 0.29148 0.0
O655 O 0.41163 0.09686 0.34219 0.0
O656 O 0.42648 0.11836 0.35139 0.0
O657 O 0.39092 0.14592 0.31381 0.0
O658 O 0.39494 0.15943 0.34227 0.0
C659 C 0.39564 0.13475 0.32834 0.0
O660 O 0.41757 0.22391 0.33639 0.0
O661 O 0.40953 0.19971 0.31306 0.0
O662 O 0.44109 0.16086 0.319 0.0
O663 O 0.4276 0.17032 0.30513 0.0
H664 H 0.43254 0.16196 0.26781 0.0
H665 H 0.4578 0.21917 0.24872 0.0
H666 H 0.45353 0.2042 0.305 0.0
O667 O 0.37078 0.7079 0.32957 0.0
Tb668 Tb 0.35908 0.67644 0.34183 0.0
Eu669 Eu 0.3357 0.64834 0.33506 0.0
C670 C 0.36937 0.72673 0.31444 0.0
O671 O 0.36098 0.72512 0.30702 0.0
C672 C 0.34246 0.73363 0.35258 0.0
O673 O 0.32759 0.60151 0.35022 0.0
C674 C 0.3267 0.66256 0.3052 0.0
C675 C 0.32867 0.59746 0.36751 0.0
O676 O 0.33361 0.62421 0.3762 0.0
C677 C 0.35443 0.59645 0.32515 0.0
C678 C 0.32131 0.64474 0.28988 0.0
C679 C 0.32402 0.65262 0.27197 0.0
C680 C 0.31815 0.64115 0.25757 0.0
C681 C 0.30969 0.62073 0.26132 0.0
C682 C 0.30678 0.61277 0.27885 0.0
C683 C 0.31265 0.62473 0.29301 0.0
O684 O 0.35022 0.73066 0.34297 0.0
O685 O 0.3367 0.70258 0.35397 0.0
O686 O 0.36971 0.65841 0.36068 0.0
O687 O 0.35435 0.6402 0.36362 0.0
C688 C 0.36064 0.66921 0.36032 0.0
O689 O 0.34615 0.59618 0.33326 0.0
O690 O 0.35839 0.63089 0.32132 0.0
O691 O 0.32268 0.66088 0.32098 0.0
O692 O 0.33599 0.65934 0.306 0.0
H693 H 0.33041 0.66938 0.2693 0.0
H694 H 0.30512 0.61219 0.2504 0.0
H695 H 0.31033 0.61911 0.30654 0.0
O696 O 0.60026 0.85962 0.06113 0.0
Tb697 Tb 0.61029 0.87548 0.08156 0.0
Eu698 Eu 0.58841 0.90932 0.0812 0.0
C699 C 0.60115 0.82831 0.05077 0.0
O700 O 0.59514 0.82361 0.03762 0.0
C701 C 0.59617 0.83104 0.10647 0.0
O702 O 0.58193 0.95267 0.1005 0.0
C703 C 0.57707 0.90264 0.0536 0.0
C704 C 0.58648 0.96217 0.11514 0.0
O705 O 0.59438 0.94338 0.11896 0.0
C706 C 0.60729 0.96725 0.08424 0.0
C707 C 0.57125 0.92112 0.03897 0.0
C708 C 0.57365 0.91463 1.02083 0.0
C709 C 0.56753 0.92684 1.00691 0.0
C710 C 0.55913 0.94672 1.0114 0.0
C711 C 0.55652 0.95343 1.02918 0.0
C712 C 0.56261 0.94042 0.04289 0.0
O713 O 0.60505 0.84139 0.10394 0.0
O714 O 0.58915 0.85004 0.09804 0.0
O715 O 0.62227 0.87829 0.06321 0.0
O716 O 0.62291 0.83911 0.08535 0.0
C717 C 0.62746 0.8521 0.07143 0.0
O718 O 0.59884 0.96184 0.07698 0.0
O719 O 0.61199 0.93662 0.09071 0.0
O720 O 0.57417 0.90582 0.07018 0.0
O721 O 0.58632 0.9024 0.05225 0.0
H722 H 0.58003 0.89838 1.01759 0.0
H723 H 0.55438 0.95601 1.00084 0.0
H724 H 0.56053 0.94484 0.05662 0.0
O725 O 0.66341 0.45954 0.06369 0.0
Tb726 Tb 0.65498 0.45154 0.08754 0.0
Eu727 Eu 0.67626 0.41068 0.08253 0.0
C728 C 0.66329 0.49143 0.05337 0.0
O729 O 0.66901 0.49306 0.03963 0.0
C730 C 0.67063 0.48178 0.11124 0.0
O731 O 0.68269 0.36426 0.10069 0.0
C732 C 0.68693 0.41538 0.05391 0.0
C733 C 0.67907 0.35676 0.11648 0.0
O734 O 0.67216 0.37929 0.12236 0.0
C735 C 0.65595 0.35805 0.08558 0.0
C736 C 0.69223 0.39554 0.03901 0.0
C737 C 0.68909 0.39927 1.02112 0.0
C738 C 0.6945 0.38379 1.00688 0.0
C739 C 0.70317 0.36527 1.01069 0.0
C740 C 0.70663 0.36214 1.02818 0.0
C741 C 0.70108 0.37716 0.04226 0.0
O742 O 0.66236 0.46435 0.11207 0.0
O743 O 0.6766 0.47053 0.09853 0.0
O744 O 0.64906 0.51008 0.09289 0.0
O745 O 0.63994 0.46479 0.08341 0.0
C746 C 0.64043 0.50181 0.08847 0.0
O747 O 0.66478 0.36157 0.07963 0.0
O748 O 0.65118 0.38917 0.09147 0.0
O749 O 0.6902 0.41194 0.07023 0.0
O750 O 0.67765 0.41719 0.05339 0.0
H751 H 0.68251 0.41447 1.01825 0.0
H752 H 0.70748 0.35484 0.99973 0.0
H753 H 0.70375 0.37503 0.05574 0.0
O754 O 0.61438 0.4601 0.25425 0.0
Tb755 Tb 0.60586 0.42191 0.23769 0.0
Eu756 Eu 0.58321 0.38681 0.23767 0.0
C757 C 0.61034 0.47705 0.268 0.0
O758 O 0.60181 0.46552 0.27264 0.0
C759 C 0.58917 0.47429 0.22243 0.0
O760 O 0.57609 0.33943 0.22131 0.0
C761 C 0.57373 0.39952 0.26707 0.0
C762 C 0.57909 0.33382 0.20494 0.0
O763 O 0.58527 0.35902 0.19827 0.0
C764 C 0.60183 0.33795 0.25039 0.0
C765 C 0.56836 0.38215 0.28261 0.0
C766 C 0.57112 0.39022 0.30044 0.0
C767 C 0.56524 0.37933 0.31498 0.0
C768 C 0.55671 0.35937 0.31143 0.0
C769 C 0.55374 0.35135 0.29398 0.0
C770 C 0.55964 0.36262 0.2797 0.0
O771 O 0.59602 0.47269 0.23427 0.0
O772 O 0.58427 0.44162 0.21901 0.0
O773 O 0.61875 0.41365 0.22306 0.0
O774 O 0.60479 0.38713 0.21397 0.0
C775 C 0.60955 0.41899 0.21988 0.0
O776 O 0.5943 0.33735 0.24007 0.0
O777 O 0.60483 0.37242 0.25644 0.0
O778 O 0.56988 0.39612 0.25118 0.0
O779 O 0.58305 0.3982 0.26665 0.0
H780 H 0.57757 0.40668 0.30292 0.0
H781 H 0.55213 0.35126 0.32243 0.0
H782 H 0.55727 0.35691 0.26623 0.0
O783 O 0.64689 0.87135 0.23661 0.0
Tb784 Tb 0.65991 0.90275 0.2314 0.0
Eu785 Eu 0.68177 0.93091 0.23958 0.0
C786 C 0.64439 0.86568 0.25328 0.0
O787 O 0.64949 0.88208 0.2659 0.0
C788 C 0.6755 0.84387 0.2233 0.0
O789 O 0.689 0.98245 0.22577 0.0
C790 C 0.69067 0.91713 0.26952 0.0
C791 C 0.69109 0.98344 0.20873 0.0
O792 O 0.69075 0.95043 0.19948 0.0
C793 C 0.66266 0.98373 0.24834 0.0
C794 C 0.69585 0.93381 0.28535 0.0
C795 C 0.69267 0.926 0.30297 0.0
C796 C 0.69837 0.93564 0.31785 0.0
C797 C 0.7072 0.95366 0.31494 0.0
C798 C 0.7106 0.96155 0.2977 0.0
C799 C 0.70481 0.95202 0.28303 0.0
O800 O 0.66809 0.8483 0.23364 0.0
O801 O 0.68127 0.87487 0.22113 0.0
O802 O 0.65441 0.91641 0.20486 0.0
O803 O 0.6688 0.9292 0.21082 0.0
C804 C 0.66237 0.92999 0.19851 0.0
O805 O 0.67125 0.98365 0.2414 0.0
O806 O 0.65824 0.94985 0.25068 0.0
O807 O 0.69481 0.9204 0.25387 0.0
O808 O 0.68135 0.91908 0.26855 0.0
H809 H 0.68601 0.91072 0.30508 0.0
H810 H 0.71151 0.96126 0.32635 0.0
H811 H 0.70753 0.95694 0.26972 0.0
O812 O 0.40047 0.20895 0.99753 0.0
Tb813 Tb 0.41177 0.17609 0.98529 0.0
Eu814 Eu 0.43248 0.13643 0.9869 0.0
C815 C 0.40139 0.2184 1.01438 0.0
O816 O 0.40868 0.20441 1.02328 0.0
C817 C 0.42799 0.22536 0.97279 0.0
O818 O 0.43999 0.08686 0.97256 0.0
C819 C 0.44098 0.14972 1.01727 0.0
C820 C 0.43979 0.0845 0.9551 0.0
O821 O 0.43659 0.11495 0.94586 0.0
C822 C 0.41288 0.08767 0.99598 0.0
C823 C 0.44604 0.13199 1.03307 0.0
C824 C 0.44311 0.1406 0.05074 0.0
C825 C 0.44875 0.12935 0.06557 0.0
C826 C 0.45722 0.10854 0.06244 0.0
C827 C 0.46035 0.09993 0.04514 0.0
C828 C 0.45468 0.11147 1.03059 0.0
O829 O 0.42211 0.22399 0.98632 0.0
O830 O 0.43194 0.19131 0.96806 0.0
O831 O 0.40497 0.18578 0.95963 0.0
O832 O 0.41662 0.1458 0.96136 0.0
C833 C 0.41068 0.16298 0.95061 0.0
O834 O 0.42124 0.08686 0.98811 0.0
O835 O 0.40914 0.12197 1.00056 0.0
O836 O 0.44529 0.14764 1.00176 0.0
O837 O 0.4317 0.14704 1.01591 0.0
H838 H 0.43673 0.15774 0.0529 0.0
H839 H 0.46163 0.1002 0.07365 0.0
H840 H 0.45715 0.10524 1.01724 0.0
O841 O 0.36664 0.6123 0.9953 0.0
Tb842 Tb 0.35452 0.64334 0.9849 0.0
Eu843 Eu 0.33362 0.67939 0.98809 0.0
C844 C 0.36676 0.60442 1.01244 0.0
O845 O 0.36001 0.61901 1.0225 0.0
C846 C 0.33854 0.59052 0.97428 0.0
O847 O 0.32604 0.72803 0.97312 0.0
C848 C 0.32504 0.66723 1.01852 0.0
C849 C 0.32577 0.72881 0.95563 0.0
O850 O 0.32851 0.69726 0.94674 0.0
C851 C 0.35296 0.7301 0.99687 0.0
C852 C 0.32017 0.68641 1.03411 0.0
C853 C 0.32362 0.6814 0.05173 0.0
C854 C 0.31854 0.69651 0.06648 0.0
C855 C 0.30986 0.71574 0.06346 0.0
C856 C 0.30611 0.72013 0.04624 0.0
C857 C 0.31138 0.70586 1.03167 0.0
O858 O 0.34488 0.59315 0.98698 0.0
O859 O 0.33407 0.62375 0.9698 0.0
O860 O 0.36057 0.63839 0.95833 0.0
O861 O 0.34852 0.67537 0.96222 0.0
C862 C 0.35438 0.66134 0.95052 0.0
O863 O 0.34453 0.73043 0.98925 0.0
O864 O 0.35693 0.69592 1.001 0.0
O865 O 0.32074 0.66941 1.00299 0.0
O866 O 0.33433 0.66875 1.0171 0.0
H867 H 0.33019 0.66559 0.05397 0.0
H868 H 0.30579 0.72578 0.07481 0.0
H869 H 0.30852 0.70937 1.01839 0.0
O870 O 0.4152 0.60792 0.81096 0.0
Tb871 Tb 0.405 0.62483 0.83091 0.0
Eu872 Eu 0.42695 0.65876 0.83075 0.0
C873 C 0.41596 0.57142 0.80478 0.0
O874 O 0.42294 0.5629 0.79393 0.0
C875 C 0.41906 0.57871 0.85547 0.0
O876 O 0.43339 0.70524 0.84861 0.0
C877 C 0.43818 0.6506 0.80306 0.0
C878 C 0.4304 0.71044 0.86501 0.0
O879 O 0.42416 0.68552 0.87169 0.0
C880 C 0.40821 0.71542 0.8347 0.0
C881 C 0.44407 0.66827 0.78832 0.0
C882 C 0.44149 0.66208 0.77023 0.0
C883 C 0.44761 0.6733 0.75615 0.0
C884 C 0.45621 0.69187 0.76043 0.0
C885 C 0.45914 0.69726 0.77814 0.0
C886 C 0.45295 0.68591 0.79201 0.0
O887 O 0.41012 0.58637 0.85191 0.0
O888 O 0.42608 0.60055 0.84841 0.0
O889 O 0.39299 0.63385 0.81306 0.0
O890 O 0.39202 0.59045 0.83365 0.0
C891 C 0.38753 0.60744 0.82052 0.0
O892 O 0.41632 0.71018 0.82626 0.0
O893 O 0.40398 0.68457 0.84201 0.0
O894 O 0.44114 0.65359 0.8196 0.0
O895 O 0.42893 0.65133 0.8018 0.0
H896 H 0.43496 0.64678 0.76716 0.0
H897 H 0.4608 0.70175 0.74973 0.0
H898 H 0.45526 0.68912 0.80568 0.0
O899 O 0.3504 0.21174 0.81283 0.0
Tb900 Tb 0.36067 0.19469 0.83268 0.0
Eu901 Eu 0.33897 0.15845 0.83231 0.0
C902 C 0.35105 0.24459 0.80327 0.0
O903 O 0.34491 0.25082 0.79045 0.0
C904 C 0.34645 0.23546 0.85834 0.0
O905 O 0.33222 0.11212 0.85 0.0
C906 C 0.32805 0.16566 0.8041 0.0
C907 C 0.33551 0.1042 0.86599 0.0
O908 O 0.34228 0.12652 0.87255 0.0
C909 C 0.35821 0.10233 0.83533 0.0
C910 C 0.32256 0.14589 0.78944 0.0
C911 C 0.32567 0.14898 0.77151 0.0
C912 C 0.32024 0.13313 0.75743 0.0
C913 C 0.31157 0.11476 0.76138 0.0
C914 C 0.30812 0.11221 0.77892 0.0
C915 C 0.3137 0.12775 0.79288 0.0
O916 O 0.35535 0.22565 0.85572 0.0
O917 O 0.33947 0.21672 0.8497 0.0
O918 O 0.37279 0.19438 0.81458 0.0
O919 O 0.37272 0.2342 0.8364 0.0
C920 C 0.37749 0.22225 0.82263 0.0
O921 O 0.34963 0.10684 0.82853 0.0
O922 O 0.3629 0.13334 0.84133 0.0
O923 O 0.32489 0.16299 0.82053 0.0
O924 O 0.33732 0.16574 0.8033 0.0
H925 H 0.33227 0.16393 0.76849 0.0
H926 H 0.30727 0.10393 0.75049 0.0
H927 H 0.31107 0.12604 0.8064 0.0
C928 C 0.07717 0.3961 0.8437 0.0
C929 C 0.06849 0.4053 0.8355 0.0
C930 C 0.07849 0.40225 0.86216 0.0
C931 C 0.06777 0.45548 0.9015 0.0
H932 H 0.08152 0.37799 0.92975 0.0
C933 C 0.07113 0.47681 0.97757 0.0
C934 C 0.07064 0.44309 0.98872 0.0
C935 C 0.0723 0.47301 0.95909 0.0
C936 C 0.07759 0.39987 0.92215 0.0
H937 H 0.05458 0.42993 0.84033 0.0
H938 H 0.05677 0.44001 0.87196 0.0
H939 H 0.08076 0.37076 0.89741 0.0
H940 H 0.07122 0.37872 0.98906 0.0
H941 H 0.07307 0.37176 0.95676 0.0
H942 H 0.0642 0.48366 0.92602 0.0
C943 C 0.06265 0.42833 0.86439 0.0
C944 C 0.07726 0.396 0.90344 0.0
C945 C 0.06135 0.42219 0.84612 0.0
C946 C 0.07171 0.40534 0.9809 0.0
C947 C 0.07276 0.40144 0.9623 0.0
C948 C 0.06805 0.45922 0.9201 0.0
C949 C 0.0712 0.41813 0.87288 0.0
C950 C 0.07224 0.42351 0.89278 0.0
C951 C 0.07283 0.43524 0.95097 0.0
C952 C 0.07291 0.43144 0.93086 0.0
H953 H 0.08282 0.38289 0.836 0.0
H954 H 0.08523 0.39439 0.86804 0.0
H955 H 0.06396 0.47783 0.89395 0.0
H956 H 0.07033 0.50633 0.98314 0.0
H957 H 0.0726 0.49997 0.95115 0.0
C958 C 0.18947 0.88742 0.98017 0.0
C959 C 0.19661 0.9065 0.98996 0.0
C960 C 0.18884 0.89243 0.96152 0.0
C961 C 0.20397 0.92366 0.92266 0.0
H962 H 0.18063 0.91811 0.89586 0.0
C963 C 0.20505 0.91565 0.84594 0.0
C964 C 0.1982 0.93618 0.83589 0.0
C965 C 0.20409 0.91068 0.8644 0.0
C966 C 0.18723 0.92006 0.90308 0.0
H967 H 0.20842 0.94712 0.98793 0.0
H968 H 0.20714 0.95731 0.9559 0.0
H969 H 0.18022 0.91475 0.92841 0.0
H970 H 0.18475 0.96648 0.83753 0.0
H971 H 0.18309 0.95853 0.86993 0.0
H972 H 0.21098 0.93018 0.89763 0.0
C973 C 0.20216 0.93737 0.96229 0.0
C974 C 0.187 0.91765 0.92186 0.0
C975 C 0.20283 0.93202 0.98079 0.0
C976 C 0.19013 0.95031 0.84482 0.0
C977 C 0.1892 0.9457 0.86346 0.0
C978 C 0.20419 0.92622 0.90401 0.0
C979 C 0.19534 0.91679 0.95217 0.0
C980 C 0.19538 0.91948 0.93202 0.0
C981 C 0.19628 0.92654 0.87365 0.0
C982 C 0.19584 0.92423 0.89379 0.0
H983 H 0.18465 0.86711 0.9868 0.0
H984 H 0.18351 0.8758 0.95437 0.0
H985 H 0.21063 0.92447 0.92971 0.0
H986 H 0.2113 0.90392 0.83949 0.0
H987 H 0.20957 0.8946 0.87144 0.0
C988 C 0.07713 0.94839 0.48035 0.0
C989 C 0.06952 0.9309 0.48959 0.0
C990 C 0.07802 0.94396 0.46172 0.0
C991 C 0.06297 0.92098 0.42203 0.0
H992 H 0.08665 0.9164 0.39621 0.0
C993 C 0.06306 0.93318 0.34548 0.0
C994 C 0.06905 0.90801 0.33572 0.0
C995 C 0.06411 0.93762 0.36393 0.0
C996 C 0.07996 0.91744 0.40318 0.0
H997 H 0.0572 0.8934 0.4866 0.0
H998 H 0.05888 0.88454 0.4546 0.0
H999 H 0.08673 0.91827 0.42885 0.0
H1000 H 0.08108 0.86859 0.33778 0.0
H1001 H 0.08295 0.87607 0.37017 0.0
H1002 H 0.05616 0.91936 0.39665 0.0
C1003 C 0.06405 0.90268 0.46144 0.0
C1004 C 0.08001 0.9189 0.42198 0.0
C1005 C 0.06314 0.9073 0.47991 0.0
C1006 C 0.07643 0.88865 0.34486 0.0
C1007 C 0.07747 0.8929 0.36347 0.0
C1008 C 0.06293 0.9196 0.40336 0.0
C1009 C 0.07132 0.92191 0.45187 0.0
C1010 C 0.07149 0.92052 0.43174 0.0
C1011 C 0.07114 0.91661 0.37341 0.0
C1012 C 0.0714 0.91796 0.39353 0.0
H1013 H 0.08209 0.96719 0.48737 0.0
H1014 H 0.08371 0.95938 0.45495 0.0
H1015 H 0.05625 0.9229 0.42883 0.0
H1016 H 0.05729 0.94848 0.33887 0.0
H1017 H 0.05924 0.95702 0.37084 0.0
C1018 C 0.18878 0.40092 0.47965 0.0
C1019 C 0.19757 0.40877 0.48771 0.0
C1020 C 0.18748 0.40672 0.46114 0.0
C1021 C 0.1986 0.45726 0.42129 0.0
H1022 H 0.18381 0.38249 0.39376 0.0
C1023 C 0.19488 0.47935 0.34526 0.0
C1024 C 0.19492 0.44561 0.33422 0.0
C1025 C 0.19382 0.47569 0.36378 0.0
C1026 C 0.18804 0.40359 0.40116 0.0
H1027 H 0.21171 0.43082 0.48248 0.0
H1028 H 0.20956 0.44004 0.45077 0.0
H1029 H 0.1847 0.37525 0.42614 0.0
H1030 H 0.19362 0.38143 0.33414 0.0
H1031 H 0.19198 0.37468 0.36652 0.0
H1032 H 0.20232 0.48462 0.39654 0.0
C1033 C 0.20358 0.42966 0.4585 0.0
C1034 C 0.18844 0.39972 0.41988 0.0
C1035 C 0.20486 0.4239 0.47683 0.0
C1036 C 0.1935 0.40808 0.34221 0.0
C1037 C 0.19257 0.4043 0.36087 0.0
C1038 C 0.19825 0.46099 0.40268 0.0
C1039 C 0.19491 0.42092 0.4502 0.0
C1040 C 0.19383 0.42627 0.43028 0.0
C1041 C 0.19296 0.43802 0.37206 0.0
C1042 C 0.193 0.43419 0.39218 0.0
H1043 H 0.183 0.38916 0.48753 0.0
H1044 H 0.18065 0.40004 0.45541 0.0
H1045 H 0.20271 0.47888 0.42863 0.0
H1046 H 0.19592 0.50873 0.33955 0.0
H1047 H 0.19387 0.50264 0.37163 0.0
C1048 C 0.9426 0.60674 0.09564 0.0
C1049 C 0.94304 0.6402 0.08432 0.0
C1050 C 0.94141 0.61097 0.11409 0.0
C1051 C 0.93595 0.68474 0.15067 0.0
H1052 H 0.94978 0.60811 0.17923 0.0
C1053 C 0.93621 0.68961 0.22912 0.0
C1054 C 0.94489 0.68095 0.23744 0.0
C1055 C 0.93496 0.68332 0.21065 0.0
C1056 C 0.94591 0.6301 0.17158 0.0
H1057 H 0.94232 0.70453 0.08365 0.0
H1058 H 0.94044 0.71224 0.11591 0.0
H1059 H 0.94957 0.60156 0.14719 0.0
H1060 H 0.9589 0.65701 0.23275 0.0
H1061 H 0.95683 0.6468 0.20111 0.0
H1062 H 0.93267 0.71421 0.17528 0.0
C1063 C 0.94082 0.68244 0.11053 0.0
C1064 C 0.94566 0.62593 0.153 0.0
C1065 C 0.94188 0.6781 0.09194 0.0
C1066 C 0.95213 0.66449 0.22689 0.0
C1067 C 0.9509 0.65821 0.20861 0.0
C1068 C 0.93625 0.68904 0.16936 0.0
C1069 C 0.94081 0.64893 0.12202 0.0
C1070 C 0.94071 0.65322 0.1421 0.0
C1071 C 0.94234 0.6678 0.20003 0.0
C1072 C 0.94134 0.66201 0.18015 0.0
H1073 H 0.94345 0.5771 0.09022 0.0
H1074 H 0.94116 0.58421 0.12218 0.0
H1075 H 0.93196 0.70626 0.14296 0.0
H1076 H 0.93048 0.70243 0.23676 0.0
H1077 H 0.92821 0.6907 0.20471 0.0
C1078 C 0.82139 0.11252 0.22736 0.0
C1079 C 0.8213 0.14581 0.23867 0.0
C1080 C 0.82217 0.11704 0.20884 0.0
C1081 C 0.82725 0.19048 0.17181 0.0
H1082 H 0.81178 0.11734 0.14469 0.0
C1083 C 0.82554 0.19424 0.0935 0.0
C1084 C 0.81661 0.18773 0.08574 0.0
C1085 C 0.82698 0.1883 0.11194 0.0
C1086 C 0.81611 0.13832 0.15196 0.0
H1087 H 0.82228 0.21007 0.23925 0.0
H1088 H 0.82354 0.21826 0.20686 0.0
H1089 H 0.81277 0.11012 0.17674 0.0
H1090 H 0.80233 0.16805 0.09149 0.0
H1091 H 0.80474 0.15853 0.12317 0.0
H1092 H 0.83027 0.21951 0.14686 0.0
C1093 C 0.82316 0.18839 0.21231 0.0
C1094 C 0.8168 0.13377 0.1705 0.0
C1095 C 0.82246 0.18378 0.23096 0.0
C1096 C 0.80928 0.17404 0.0969 0.0
C1097 C 0.81071 0.16806 0.11518 0.0
C1098 C 0.82654 0.19508 0.15317 0.0
C1099 C 0.82275 0.15511 0.20087 0.0
C1100 C 0.82235 0.1598 0.18084 0.0
C1101 C 0.81956 0.17526 0.12312 0.0
C1102 C 0.82087 0.16929 0.14293 0.0
H1103 H 0.8205 0.08285 0.23286 0.0
H1104 H 0.82211 0.09047 0.20073 0.0
H1105 H 0.83166 0.21101 0.17913 0.0
H1106 H 0.83136 0.20488 0.08541 0.0
H1107 H 0.83393 0.19379 0.11741 0.0
C1108 C 0.94248 0.22442 0.72632 0.0
C1109 C 0.94281 0.19102 0.7377 0.0
C1110 C 0.94146 0.22009 0.70785 0.0
C1111 C 0.93612 0.1468 0.67117 0.0
H1112 H 0.95083 0.22159 0.64314 0.0
C1113 C 0.93685 0.14363 0.59273 0.0
C1114 C 0.94567 0.15075 0.58462 0.0
C1115 C 0.93557 0.14957 0.61121 0.0
C1116 C 0.94671 0.20016 0.65066 0.0
H1117 H 0.94204 0.1267 0.73843 0.0
H1118 H 0.94038 0.11884 0.70611 0.0
H1119 H 0.9503 0.22823 0.67522 0.0
H1120 H 0.95991 0.17159 0.58972 0.0
H1121 H 0.95778 0.18127 0.62142 0.0
H1122 H 0.93286 0.11791 0.64641 0.0
C1123 C 0.94074 0.14866 0.71149 0.0
C1124 C 0.94628 0.20436 0.66923 0.0
C1125 C 0.94167 0.15308 0.7301 0.0
C1126 C 0.95304 0.16524 0.59542 0.0
C1127 C 0.95177 0.17124 0.61372 0.0
C1128 C 0.93657 0.14254 0.65249 0.0
C1129 C 0.94089 0.1821 0.69997 0.0
C1130 C 0.94101 0.17772 0.67991 0.0
C1131 C 0.94306 0.16325 0.62205 0.0
C1132 C 0.94197 0.16893 0.64191 0.0
H1133 H 0.94334 0.25408 0.73172 0.0
H1134 H 0.94133 0.24678 0.6997 0.0
H1135 H 0.93191 0.1258 0.67874 0.0
H1136 H 0.93101 0.13236 0.58491 0.0
H1137 H 0.92871 0.14347 0.61698 0.0
C1138 C 0.8202 0.67239 0.72982 0.0
C1139 C 0.8187 0.63509 0.73797 0.0
C1140 C 0.82127 0.67564 0.71119 0.0
C1141 C 0.81597 0.61787 0.66953 0.0
H1142 H 0.82965 0.70342 0.64621 0.0
C1143 C 0.80978 0.65483 0.59528 0.0
C1144 C 0.81709 0.67048 0.58462 0.0
C1145 C 0.81099 0.64865 0.61359 0.0
C1146 C 0.82588 0.67897 0.65243 0.0
H1147 H 0.81771 0.57181 0.73298 0.0
H1148 H 0.82 0.57699 0.70094 0.0
H1149 H 0.8303 0.69662 0.67859 0.0
H1150 H 0.83163 0.69045 0.58507 0.0
H1151 H 0.83388 0.67873 0.61716 0.0
H1152 H 0.81173 0.59953 0.64351 0.0
C1153 C 0.81999 0.60416 0.70863 0.0
C1154 C 0.82614 0.67537 0.67115 0.0
C1155 C 0.81879 0.60103 0.72714 0.0
C1156 C 0.82584 0.67825 0.59282 0.0
C1157 C 0.82708 0.672 0.6113 0.0
C1158 C 0.81576 0.62128 0.6509 0.0
C1159 C 0.82096 0.64159 0.70019 0.0
C1160 C 0.82111 0.64492 0.68008 0.0
C1161 C 0.81962 0.65749 0.62205 0.0
C1162 C 0.82058 0.65223 0.64197 0.0
H1163 H 0.82006 0.69926 0.73774 0.0
H1164 H 0.82192 0.70509 0.70539 0.0
H1165 H 0.81185 0.59431 0.67562 0.0
H1166 H 0.80295 0.64811 0.58949 0.0
H1167 H 0.80499 0.63804 0.62119 0.0
C1168 C 0.56013 0.40661 0.34467 0.0
C1169 C 0.56736 0.39064 0.33397 0.0
C1170 C 0.56147 0.41321 0.36289 0.0
C1171 C 0.57654 0.38383 0.40176 0.0
H1172 H 0.56312 0.47077 0.42416 0.0
C1173 C 0.57145 0.39522 0.47925 0.0
C1174 C 0.5703 0.43318 0.48683 0.0
C1175 C 0.57238 0.39074 0.46065 0.0
C1176 C 0.56707 0.44656 0.41827 0.0
H1177 H 0.58188 0.37037 0.3343 0.0
H1178 H 0.58433 0.38267 0.36624 0.0
H1179 H 0.56265 0.46384 0.39212 0.0
H1180 H 0.56978 0.49622 0.48083 0.0
H1181 H 0.57183 0.48885 0.44882 0.0
H1182 H 0.5811 0.36712 0.42805 0.0
C1183 C 0.57751 0.38942 0.36046 0.0
C1184 C 0.56666 0.44218 0.39971 0.0
C1185 C 0.57615 0.38281 0.34206 0.0
C1186 C 0.57062 0.46655 0.47544 0.0
C1187 C 0.57167 0.46217 0.45697 0.0
C1188 C 0.57698 0.38832 0.42042 0.0
C1189 C 0.57014 0.40443 0.37124 0.0
C1190 C 0.57127 0.41045 0.39108 0.0
C1191 C 0.57226 0.42415 0.44911 0.0
C1192 C 0.57219 0.41967 0.42905 0.0
H1193 H 0.55329 0.41343 0.33896 0.0
H1194 H 0.55555 0.42423 0.37054 0.0
H1195 H 0.58015 0.35881 0.39577 0.0
H1196 H 0.57109 0.36886 0.4876 0.0
H1197 H 0.57275 0.3609 0.45531 0.0
C1198 C 0.68616 0.87738 0.48067 0.0
C1199 C 0.69356 0.895 0.49035 0.0
C1200 C 0.68551 0.88255 0.46203 0.0
C1201 C 0.70096 0.90892 0.42315 0.0
H1202 H 0.67759 0.91167 0.39631 0.0
C1203 C 0.70194 0.90032 0.34658 0.0
C1204 C 0.69579 0.92466 0.33663 0.0
C1205 C 0.70072 0.89507 0.36497 0.0
C1206 C 0.6842 0.91119 0.40356 0.0
H1207 H 0.70577 0.93342 0.48813 0.0
H1208 H 0.70449 0.94364 0.45611 0.0
H1209 H 0.67712 0.90839 0.42891 0.0
H1210 H 0.68332 0.96168 0.33827 0.0
H1211 H 0.6812 0.95293 0.37056 0.0
H1212 H 0.70808 0.91265 0.39811 0.0
C1213 C 0.69931 0.92481 0.4626 0.0
C1214 C 0.68393 0.90889 0.42234 0.0
C1215 C 0.69999 0.9194 0.48108 0.0
C1216 C 0.68812 0.94235 0.3455 0.0
C1217 C 0.68693 0.93735 0.36406 0.0
C1218 C 0.70123 0.91121 0.4045 0.0
C1219 C 0.69225 0.90551 0.4526 0.0
C1220 C 0.69232 0.90788 0.43248 0.0
C1221 C 0.69338 0.91446 0.3742 0.0
C1222 C 0.69287 0.91221 0.3943 0.0
H1223 H 0.68116 0.85799 0.48737 0.0
H1224 H 0.67997 0.86702 0.45493 0.0
H1225 H 0.70761 0.90749 0.43023 0.0
H1226 H 0.70791 0.8862 0.34016 0.0
H1227 H 0.7057 0.87627 0.37202 0.0
C1228 C 0.57802 0.9252 0.97924 0.0
C1229 C 0.56932 0.91724 0.98762 0.0
C1230 C 0.57911 0.91994 0.96069 0.0
C1231 C 0.56772 0.87018 0.92132 0.0
H1232 H 0.58179 0.94708 0.89325 0.0
C1233 C 0.57095 0.85007 0.84526 0.0
C1234 C 0.57027 0.88401 0.83428 0.0
C1235 C 0.57224 0.85352 0.86371 0.0
C1236 C 0.57778 0.92538 0.90082 0.0
H1237 H 0.55509 0.89569 0.98297 0.0
H1238 H 0.55691 0.8871 0.95113 0.0
H1239 H 0.58124 0.95339 0.92569 0.0
H1240 H 0.57072 0.9484 0.83417 0.0
H1241 H 0.57285 0.95473 0.86646 0.0
H1242 H 0.56392 0.84298 0.89667 0.0
C1243 C 0.56297 0.89725 0.95866 0.0
C1244 C 0.57756 0.92872 0.91955 0.0
C1245 C 0.56188 0.90258 0.97704 0.0
C1246 C 0.57135 0.92164 0.8422 0.0
C1247 C 0.57255 0.92518 0.86079 0.0
C1248 C 0.56792 0.86689 0.9027 0.0
C1249 C 0.57156 0.90615 0.95005 0.0
C1250 C 0.57243 0.90139 0.93012 0.0
C1251 C 0.57275 0.89114 0.87195 0.0
C1252 C 0.5729 0.89448 0.89204 0.0
H1253 H 0.58389 0.93665 0.98691 0.0
H1254 H 0.58588 0.92673 0.95468 0.0
H1255 H 0.5638 0.84807 0.92882 0.0
H1256 H 0.57014 0.82063 0.83959 0.0
H1257 H 0.57263 0.82644 0.87156 0.0
C1258 C 0.6858 0.42995 0.84234 0.0
C1259 C 0.69472 0.42404 0.83449 0.0
C1260 C 0.68447 0.42427 0.86084 0.0
C1261 C 0.69583 0.37647 0.90091 0.0
H1262 H 0.68029 0.44923 0.92805 0.0
C1263 C 0.69161 0.35388 0.97672 0.0
C1264 C 0.69159 0.38767 0.98772 0.0
C1265 C 0.6906 0.35745 0.9582 0.0
C1266 C 0.68471 0.4287 0.92074 0.0
H1267 H 0.70911 0.40562 0.84005 0.0
H1268 H 0.70689 0.39649 0.87179 0.0
H1269 H 0.6813 0.4564 0.89566 0.0
H1270 H 0.69019 0.45183 0.98776 0.0
H1271 H 0.68859 0.45838 0.95536 0.0
H1272 H 0.69958 0.3497 0.92578 0.0
C1273 C 0.70084 0.40533 0.86387 0.0
C1274 C 0.68519 0.43253 0.90204 0.0
C1275 C 0.70216 0.41103 0.84556 0.0
C1276 C 0.69012 0.42515 0.97971 0.0
C1277 C 0.68922 0.42883 0.96106 0.0
C1278 C 0.69537 0.37274 0.9195 0.0
C1279 C 0.69201 0.41209 0.87194 0.0
C1280 C 0.69086 0.40671 0.89181 0.0
C1281 C 0.6897 0.39506 0.94992 0.0
C1282 C 0.68984 0.39883 0.92984 0.0
H1283 H 0.67991 0.44004 0.83429 0.0
H1284 H 0.67752 0.42939 0.86642 0.0
H1285 H 0.70016 0.3555 0.89366 0.0
H1286 H 0.69268 0.32454 0.98245 0.0
H1287 H 0.69073 0.3305 0.95034 0.0
C1288 C 0.44192 0.66537 0.59147 0.0
C1289 C 0.44351 0.62804 0.58357 0.0
C1290 C 0.44094 0.66886 0.6101 0.0
C1291 C 0.44672 0.61211 0.65208 0.0
H1292 H 0.43281 0.6968 0.67515 0.0
C1293 C 0.45304 0.64907 0.72612 0.0
C1294 C 0.44567 0.66366 0.73689 0.0
C1295 C 0.45182 0.64342 0.7078 0.0
C1296 C 0.43665 0.67261 0.669 0.0
H1297 H 0.44475 0.56493 0.58902 0.0
H1298 H 0.44263 0.57049 0.62107 0.0
H1299 H 0.43202 0.6897 0.6428 0.0
H1300 H 0.43104 0.6824 0.73655 0.0
H1301 H 0.42879 0.67165 0.70444 0.0
H1302 H 0.45117 0.59431 0.67812 0.0
C1303 C 0.44249 0.59754 0.61317 0.0
C1304 C 0.4363 0.66884 0.6503 0.0
C1305 C 0.4436 0.59418 0.59467 0.0
C1306 C 0.43688 0.67109 0.72874 0.0
C1307 C 0.43564 0.66536 0.71024 0.0
C1308 C 0.44701 0.61572 0.67067 0.0
C1309 C 0.44144 0.63504 0.62136 0.0
C1310 C 0.4414 0.63865 0.64146 0.0
C1311 C 0.44313 0.65168 0.69942 0.0
C1312 C 0.44211 0.64636 0.67952 0.0
H1313 H 0.44192 0.69212 0.58334 0.0
H1314 H 0.44021 0.69836 0.61569 0.0
H1315 H 0.4509 0.5888 0.64604 0.0
H1316 H 0.45989 0.64243 0.73184 0.0
H1317 H 0.45784 0.63346 0.70014 0.0
C1318 C 0.32418 0.17357 0.72983 0.0
C1319 C 0.32316 0.13634 0.73829 0.0
C1320 C 0.32515 0.17628 0.71117 0.0
C1321 C 0.32025 0.11586 0.67015 0.0
H1322 H 0.33272 0.2033 0.64581 0.0
C1323 C 0.31278 0.14981 0.5961 0.0
C1324 C 0.3198 0.16636 0.58504 0.0
C1325 C 0.31429 0.14424 0.61436 0.0
C1326 C 0.3293 0.17832 0.65232 0.0
H1327 H 0.32287 0.07275 0.73385 0.0
H1328 H 0.32502 0.07706 0.70173 0.0
H1329 H 0.33375 0.19775 0.67821 0.0
H1330 H 0.33414 0.18872 0.58467 0.0
H1331 H 0.33692 0.17817 0.61671 0.0
H1332 H 0.31597 0.09584 0.64441 0.0
C1333 C 0.32473 0.10451 0.70922 0.0
C1334 C 0.32977 0.17543 0.67105 0.0
C1335 C 0.32362 0.10189 0.72775 0.0
C1336 C 0.32859 0.17574 0.59275 0.0
C1337 C 0.33012 0.17015 0.61119 0.0
C1338 C 0.31983 0.11861 0.65153 0.0
C1339 C 0.3252 0.14176 0.70046 0.0
C1340 C 0.32517 0.14431 0.68034 0.0
C1341 C 0.32294 0.1547 0.62236 0.0
C1342 C 0.3242 0.15021 0.64224 0.0
H1343 H 0.32372 0.20069 0.73754 0.0
H1344 H 0.32541 0.20559 0.70513 0.0
H1345 H 0.31646 0.09172 0.67655 0.0
H1346 H 0.30594 0.14198 0.59067 0.0
H1347 H 0.3085 0.13286 0.6223 0.0
C1348 C 0.44068 0.1483 0.22945 0.0
C1349 C 0.4419 0.18629 0.23696 0.0
C1350 C 0.43994 0.1436 0.21084 0.0
C1351 C 0.44601 0.19832 0.16853 0.0
H1352 H 0.43279 0.11131 0.14573 0.0
C1353 C 0.45364 0.15662 0.09538 0.0
C1354 C 0.44646 0.14114 0.08442 0.0
C1355 C 0.45211 0.16362 0.11352 0.0
C1356 C 0.43644 0.13612 0.1518 0.0
H1357 H 0.44276 0.24919 0.23079 0.0
H1358 H 0.44105 0.24146 0.19873 0.0
H1359 H 0.43148 0.12019 0.17794 0.0
H1360 H 0.43185 0.12217 0.08417 0.0
H1361 H 0.42907 0.13516 0.11597 0.0
H1362 H 0.45082 0.21483 0.14254 0.0
C1363 C 0.441 0.21491 0.20697 0.0
C1364 C 0.43579 0.14093 0.17042 0.0
C1365 C 0.44185 0.2195 0.22546 0.0
C1366 C 0.43754 0.13421 0.09214 0.0
C1367 C 0.43599 0.14122 0.11047 0.0
C1368 C 0.44661 0.19363 0.15001 0.0
C1369 C 0.44034 0.17681 0.1992 0.0
C1370 C 0.44063 0.17201 0.17917 0.0
C1371 C 0.4433 0.15573 0.12152 0.0
C1372 C 0.44196 0.16215 0.14128 0.0
H1373 H 0.44082 0.12205 0.23789 0.0
H1374 H 0.4395 0.1137 0.20557 0.0
H1375 H 0.44999 0.22229 0.17452 0.0
H1376 H 0.46059 0.16274 0.08995 0.0
H1377 H 0.458 0.17423 0.12139 0.0
C1378 C 0.32245 0.72527 0.09643 0.0
C1379 C 0.32179 0.69167 0.08539 0.0
C1380 C 0.32371 0.72123 0.11488 0.0
C1381 C 0.32905 0.64784 0.15188 0.0
H1382 H 0.3153 0.72501 0.17999 0.0
C1383 C 0.32889 0.64406 0.23027 0.0
C1384 C 0.32017 0.65232 0.23851 0.0
C1385 C 0.33013 0.65034 0.21178 0.0
C1386 C 0.31915 0.70292 0.17245 0.0
H1387 H 0.32219 0.62728 0.08517 0.0
H1388 H 0.32423 0.61992 0.11745 0.0
H1389 H 0.31551 0.73125 0.14788 0.0
H1390 H 0.3061 0.67543 0.23372 0.0
H1391 H 0.30817 0.68581 0.20201 0.0
H1392 H 0.33232 0.61863 0.17667 0.0
C1393 C 0.32397 0.64966 0.11184 0.0
C1394 C 0.3194 0.70688 0.15385 0.0
C1395 C 0.32281 0.65379 0.09325 0.0
C1396 C 0.3129 0.66838 0.22789 0.0
C1397 C 0.31412 0.6747 0.20959 0.0
C1398 C 0.32877 0.64379 0.17059 0.0
C1399 C 0.32418 0.68335 0.12306 0.0
C1400 C 0.3243 0.67935 0.14314 0.0
C1401 C 0.32272 0.66544 0.20109 0.0
C1402 C 0.32371 0.67103 0.1812 0.0
H1403 H 0.3217 0.75489 0.0908 0.0
H1404 H 0.32412 0.74807 0.12277 0.0
H1405 H 0.333 0.62616 0.14429 0.0
H1406 H 0.33464 0.63151 0.23798 0.0
H1407 H 0.33689 0.64323 0.20588 0.0
C1408 C 0.1307 0.28965 0.07524 0.0
C1409 C 0.12341 0.29992 0.06336 0.0
C1410 C 0.13645 0.25672 0.07194 0.0
C1411 C 0.14397 0.18571 0.03727 0.0
H1412 H 0.14668 0.11228 0.07699 0.0
C1413 C 0.15478 1.02168 1.02827 0.0
C1414 C 0.16061 1.00426 0.0412 0.0
C1415 C 0.15126 0.06013 1.03069 0.0
C1416 C 0.14614 0.13274 0.06584 0.0
H1417 H 0.11677 0.28496 0.03823 0.0
H1418 H 0.12683 0.22748 1.03248 0.0
H1419 H 0.13891 0.17621 0.08149 0.0
H1420 H 0.16798 1.01358 0.06604 0.0
H1421 H 0.16188 0.08122 0.07036 0.0
H1422 H 0.15109 0.14197 1.02157 0.0
C1423 C 0.1281 0.24495 0.04433 0.0
C1424 C 0.14169 0.16937 0.06842 0.0
C1425 C 0.12231 0.2778 0.04766 0.0
C1426 C 0.16326 1.0263 0.05619 0.0
C1427 C 0.15979 0.06488 0.05861 0.0
C1428 C 0.14846 0.14912 1.03471 0.0
C1429 C 0.13508 0.2335 0.05665 0.0
C1430 C 0.14046 0.19605 0.05412 0.0
C1431 C 0.15365 0.08203 0.04596 0.0
C1432 C 0.14949 0.12203 0.04892 0.0
H1433 H 0.13177 0.30618 0.08742 0.0
H1434 H 0.14187 0.24894 0.08154 0.0
H1435 H 0.14322 0.20587 1.02606 0.0
H1436 H 0.15273 1.00515 1.01653 0.0
H1437 H 0.14648 0.0723 1.02081 0.0
C1438 C 0.12116 0.05492 0.27912 0.0
C1439 C 0.12254 1.03451 0.26305 0.0
C1440 C 0.1266 0.08843 0.28315 0.0
C1441 C 0.14806 0.14538 0.26995 0.0
H1442 H 0.13378 0.23521 0.2879 0.0
C1443 C 0.16223 0.30718 0.26858 0.0
C1444 C 0.16013 0.33109 0.28331 0.0
C1445 C 0.15821 0.26927 0.26707 0.0
C1446 C 0.13791 0.21033 0.28307 0.0
H1447 H 0.13104 1.03202 0.23902 0.0
H1448 H 0.1404 0.09068 0.24591 0.0
H1449 H 0.12601 0.17128 0.2841 0.0
H1450 H 0.15273 0.33405 0.30846 0.0
H1451 H 0.1457 0.2678 0.30594 0.0
H1452 H 0.15993 0.18492 0.2686 0.0
C1453 C 0.1352 0.08066 0.25551 0.0
C1454 C 0.13346 0.17358 0.28096 0.0
C1455 C 0.12979 0.04708 0.25152 0.0
C1456 C 0.15428 0.31621 0.29684 0.0
C1457 C 0.15024 0.27846 0.29533 0.0
C1458 C 0.15252 0.18227 0.27199 0.0
C1459 C 0.13351 0.10233 0.27116 0.0
C1460 C 0.13846 0.14068 0.27432 0.0
C1461 C 0.15208 0.25468 0.28036 0.0
C1462 C 0.14747 0.2152 0.2785 0.0
H1463 H 0.11568 0.04581 0.28836 0.0
H1464 H 0.12526 0.104 0.29549 0.0
H1465 H 0.15215 0.12051 0.26499 0.0
H1466 H 0.16692 0.31793 0.25822 0.0
H1467 H 0.15974 0.25179 0.25534 0.0
C1468 C 0.84364 1.02801 0.99953 0.0
C1469 C 0.84631 0.05304 1.01349 0.0
C1470 C 0.84873 0.99323 0.99616 0.0
C1471 C 0.87135 0.94246 1.00725 0.0
H1472 H 0.85753 0.8467 0.99483 0.0
C1473 C 0.88783 0.78815 1.0143 0.0
C1474 C 0.88769 0.76469 0.99887 0.0
C1475 C 0.8822 0.82208 1.01545 0.0
C1476 C 0.86146 0.87333 0.99817 0.0
H1477 H 0.85597 0.06152 0.03542 0.0
H1478 H 0.86473 1.00017 1.03008 0.0
H1479 H 0.84911 0.91002 0.99735 0.0
H1480 H 0.88107 0.75674 0.97306 0.0
H1481 H 0.87107 0.81598 0.97528 0.0
H1482 H 0.88363 0.90545 1.00861 0.0
C1483 C 0.85899 1.00781 1.02117 0.0
C1484 C 0.85668 0.90963 0.99951 0.0
C1485 C 0.85397 0.04278 1.02434 0.0
C1486 C 0.88136 0.77437 0.98509 0.0
C1487 C 0.87563 0.80817 0.98634 0.0
C1488 C 0.87609 0.90621 1.00611 0.0
C1489 C 0.85642 0.98254 1.00706 0.0
C1490 C 0.86156 0.94453 1.00429 0.0
C1491 C 0.87624 0.83292 1.0013 0.0
C1492 C 0.87117 0.87128 1.0018 0.0
H1493 H 0.83757 1.03521 0.99134 0.0
H1494 H 0.84662 0.97468 0.98509 0.0
H1495 H 0.87538 0.96882 1.01059 0.0
H1496 H 0.8926 0.7814 1.02518 0.0
H1497 H 0.88267 0.84045 1.02724 0.0
C1498 C 0.8448 0.8001 0.81559 0.0
C1499 C 0.85028 0.7726 0.8061 0.0
C1500 C 0.84863 0.83691 0.82039 0.0
C1501 C 0.86318 0.91177 0.80305 0.0
H1502 H 0.87004 0.94743 0.85033 0.0
C1503 C 0.88819 0.04327 0.8137 0.0
C1504 C 0.88746 0.0663 0.82918 0.0
C1505 C 0.88234 1.01036 0.81124 0.0
C1506 C 0.86797 0.9384 0.83707 0.0
H1507 H 0.86384 0.7613 0.79388 0.0
H1508 H 0.8705 0.8263 0.80187 0.0
H1509 H 0.86243 0.88251 0.84654 0.0
H1510 H 0.87963 0.07451 0.8537 0.0
H1511 H 0.86913 1.01781 0.84907 0.0
H1512 H 0.86848 0.96734 0.79342 0.0
C1513 C 0.86337 0.81895 0.80601 0.0
C1514 C 0.8637 0.90114 0.83496 0.0
C1515 C 0.85961 0.78193 0.80155 0.0
C1516 C 0.8804 0.0571 0.84169 0.0
C1517 C 0.87444 1.02439 0.83911 0.0
C1518 C 0.86728 0.94921 0.80516 0.0
C1519 C 0.85786 0.84683 0.81521 0.0
C1520 C 0.86151 0.88733 0.81789 0.0
C1521 C 0.8755 1.00002 0.82405 0.0
C1522 C 0.86998 0.96258 0.82214 0.0
H1523 H 0.83753 0.79337 0.81899 0.0
H1524 H 0.84428 0.85823 0.82742 0.0
H1525 H 0.86141 0.90164 0.78979 0.0
H1526 H 0.8936 0.04942 0.80386 0.0
H1527 H 0.8835 0.99203 0.79962 0.0
C1528 C 0.15524 0.53824 0.53261 0.0
C1529 C 0.16117 0.51886 0.54482 0.0
C1530 C 0.15146 0.57558 0.53661 0.0
C1531 C 0.14557 0.64174 0.57361 0.0
H1532 H 0.14577 0.72392 0.53712 0.0
C1533 C 0.13064 0.79931 0.58668 0.0
C1534 C 0.12495 0.81527 0.57306 0.0
C1535 C 0.13612 0.7653 0.58363 0.0
C1536 C 0.14558 0.70124 0.54742 0.0
H1537 H 0.16842 0.52396 0.56994 0.0
H1538 H 0.16155 0.58887 0.57742 0.0
H1539 H 0.15296 0.65942 0.53109 0.0
H1540 H 0.12079 0.8088 0.54542 0.0
H1541 H 0.13017 0.74951 0.54021 0.0
H1542 H 0.13795 0.68307 0.58978 0.0
C1543 C 0.15963 0.57486 0.56497 0.0
C1544 C 0.14971 0.66431 0.54396 0.0
C1545 C 0.16347 0.53765 0.56086 0.0
C1546 C 0.1251 0.79735 0.5562 0.0
C1547 C 0.13054 0.76339 0.55318 0.0
C1548 C 0.14136 0.67862 0.57704 0.0
C1549 C 0.15361 0.59425 0.55284 0.0
C1550 C 0.14964 0.63403 0.55692 0.0
C1551 C 0.13602 0.74657 0.56691 0.0
C1552 C 0.1412 0.70864 0.56389 0.0
H1553 H 0.15349 0.52436 0.52004 0.0
H1554 H 0.14679 0.58972 0.52706 0.0
H1555 H 0.14536 0.61881 0.58381 0.0
H1556 H 0.13069 0.81249 0.59981 0.0
H1557 H 0.14036 0.75346 0.59442 0.0
C1558 C 0.12239 0.55324 0.76605 0.0
C1559 C 0.1237 0.52491 0.75258 0.0
C1560 C 0.12819 0.58675 0.76687 0.0
C1561 C 0.15083 0.62911 0.75355 0.0
H1562 H 0.1374 0.72974 0.75598 0.0
C1563 C 0.17034 0.78017 0.75215 0.0
C1564 C 0.167 0.80852 0.76422 0.0
C1565 C 0.16509 0.74573 0.74887 0.0
C1566 C 0.14126 0.7019 0.75545 0.0
H1567 H 0.13245 0.50803 0.73012 0.0
H1568 H 0.14271 0.56652 0.7318 0.0
H1569 H 0.12854 0.66756 0.75507 0.0
H1570 H 0.156 0.82325 0.78299 0.0
H1571 H 0.14687 0.76285 0.77768 0.0
H1572 H 0.16357 0.66331 0.75448 0.0
C1573 C 0.13713 0.56286 0.74156 0.0
C1574 C 0.13619 0.66638 0.75492 0.0
C1575 C 0.13126 0.5295 0.74061 0.0
C1576 C 0.1585 0.80202 0.77325 0.0
C1577 C 0.1533 0.76754 0.77014 0.0
C1578 C 0.15593 0.6647 0.75427 0.0
C1579 C 0.13546 0.59228 0.75438 0.0
C1580 C 0.14092 0.62969 0.75424 0.0
C1581 C 0.15654 0.73893 0.75796 0.0
C1582 C 0.15119 0.70143 0.7555 0.0
H1583 H 0.11664 0.55051 0.7755 0.0
H1584 H 0.12687 0.60883 0.77705 0.0
H1585 H 0.15462 0.60111 0.75303 0.0
H1586 H 0.17699 0.78467 0.74529 0.0
H1587 H 0.16774 0.72443 0.7393 0.0
C1588 C 0.91185 0.2823 0.51723 0.0
C1589 C 0.9077 0.2535 0.52831 0.0
C1590 C 0.90818 0.32096 0.51664 0.0
C1591 C 0.89314 0.39082 0.54221 0.0
H1592 H 0.89074 0.4451 0.49678 0.0
C1593 C 0.86868 0.52574 0.52924 0.0
C1594 C 0.87168 0.55466 0.51688 0.0
C1595 C 0.87428 0.49231 0.53277 0.0
C1596 C 0.89151 0.43065 0.50962 0.0
H1597 H 0.89677 0.2418 0.54774 0.0
H1598 H 0.89013 0.30899 0.54636 0.0
H1599 H 0.89793 0.37934 0.49801 0.0
H1600 H 0.8833 0.57312 0.49985 0.0
H1601 H 0.89306 0.51501 0.50613 0.0
H1602 H 0.88647 0.44192 0.55371 0.0
C1603 C 0.89625 0.30218 0.53828 0.0
C1604 C 0.89562 0.39289 0.51032 0.0
C1605 C 0.89996 0.2637 0.53896 0.0
C1606 C 0.88072 0.55116 0.50928 0.0
C1607 C 0.8863 0.51774 0.51278 0.0
C1608 C 0.88899 0.42856 0.5415 0.0
C1609 C 0.90035 0.33136 0.52719 0.0
C1610 C 0.89639 0.37232 0.52659 0.0
C1611 C 0.88297 0.48724 0.52401 0.0
C1612 C 0.88807 0.44873 0.52517 0.0
H1613 H 0.91795 0.27497 0.50917 0.0
H1614 H 0.91158 0.34283 0.50813 0.0
H1615 H 0.89379 0.3761 0.55502 0.0
H1616 H 0.86177 0.52759 0.53537 0.0
H1617 H 0.87152 0.46927 0.54148 0.0
C1618 C 0.88575 0.25892 0.31604 0.0
C1619 C 0.8766 0.25994 0.30885 0.0
C1620 C 0.89255 0.28657 0.31055 0.0
C1621 C 0.89729 0.3678 0.27726 0.0
H1622 H 0.9107 0.41514 0.31685 0.0
C1623 C 0.90678 0.53284 0.2836 0.0
C1624 C 0.91488 0.54361 0.29327 0.0
C1625 C 0.90465 0.49277 0.28075 0.0
C1626 C 0.90721 0.40175 0.30552 0.0
H1627 H 0.8675 0.28955 0.28969 0.0
H1628 H 0.87918 0.33856 0.28061 0.0
H1629 H 0.902 0.35378 0.32141 0.0
H1630 H 0.92763 0.52105 0.30583 0.0
H1631 H 0.92386 0.45104 0.30091 0.0
H1632 H 0.90201 0.41785 0.26177 0.0
C1633 C 0.88124 0.31593 0.29016 0.0
C1634 C 0.9022 0.36642 0.30812 0.0
C1635 C 0.8745 0.28799 0.2955 0.0
C1636 C 0.9213 0.51374 0.29842 0.0
C1637 C 0.91913 0.47362 0.2957 0.0
C1638 C 0.90222 0.40347 0.27471 0.0
C1639 C 0.8903 0.31618 0.29791 0.0
C1640 C 0.89693 0.34963 0.29418 0.0
C1641 C 0.91057 0.46276 0.28759 0.0
C1642 C 0.90701 0.42136 0.28896 0.0
H1643 H 0.88761 0.2373 0.32621 0.0
H1644 H 0.8995 0.28536 0.31654 0.0
H1645 H 0.89347 0.35525 0.26612 0.0
H1646 H 0.90173 0.55519 0.27935 0.0
H1647 H 0.89798 0.48533 0.27453 0.0
C1648 C 0.62517 0.30128 0.53971 0.0
C1649 C 0.62572 0.31742 0.55691 0.0
C1650 C 0.63153 0.27197 0.53429 0.0
C1651 C 0.65409 0.22191 0.54432 0.0
H1652 H 0.64063 0.12585 0.53121 0.0
C1653 C 0.66875 0.06513 0.55651 0.0
C1654 C 0.66493 1.03285 0.54712 0.0
C1655 C 0.66584 0.10397 0.55264 0.0
C1656 C 0.64462 0.15248 0.53428 0.0
H1657 H 0.6338 0.31763 0.58145 0.0
H1658 H 0.64497 0.26652 0.5719 0.0
H1659 H 0.63208 0.18794 0.53389 0.0
H1660 H 0.65599 1.01593 0.52504 0.0
H1661 H 0.65136 0.08389 0.51751 0.0
H1662 H 0.66663 0.18632 0.54492 0.0
C1663 C 0.63959 0.27654 0.56265 0.0
C1664 C 0.63966 0.18815 0.53593 0.0
C1665 C 0.63315 0.30556 0.56816 0.0
C1666 C 0.65897 0.04034 0.53257 0.0
C1667 C 0.65623 0.07927 0.52843 0.0
C1668 C 0.6591 0.18626 0.54236 0.0
C1669 C 0.63865 0.25862 0.54588 0.0
C1670 C 0.64429 0.22291 0.54146 0.0
C1671 C 0.65919 0.11136 0.53908 0.0
C1672 C 0.65437 0.15076 0.53788 0.0
H1673 H 0.61956 0.30994 0.53067 0.0
H1674 H 0.6307 0.25876 0.52125 0.0
H1675 H 0.65782 0.24847 0.54846 0.0
H1676 H 0.6733 0.06023 0.56791 0.0
H1677 H 0.66825 0.12763 0.56127 0.0
C1678 C 0.65781 0.2936 0.76636 0.0
C1679 C 0.65595 0.31818 0.78094 0.0
C1680 C 0.65328 0.25682 0.76482 0.0
C1681 C 0.64058 0.18089 0.79185 0.0
H1682 H 0.63371 0.14008 0.74543 0.0
C1683 C 0.61677 0.04249 0.77821 0.0
C1684 C 0.61981 1.01725 0.76445 0.0
C1685 C 0.62175 0.07745 0.78202 0.0
C1686 C 0.63568 0.151 0.75847 0.0
H1687 H 0.64802 0.3244 0.80538 0.0
H1688 H 0.63977 0.26074 0.80245 0.0
H1689 H 0.64057 0.20635 0.74779 0.0
H1690 H 0.63092 1.00716 0.74501 0.0
H1691 H 0.63949 0.06817 0.75161 0.0
H1692 H 0.63537 0.1256 0.80246 0.0
C1693 C 0.64484 0.26925 0.79233 0.0
C1694 C 0.63962 0.18893 0.75983 0.0
C1695 C 0.64948 0.30579 0.79396 0.0
C1696 C 0.62831 1.02608 0.75557 0.0
C1697 C 0.63321 0.06113 0.75925 0.0
C1698 C 0.6365 0.14309 0.79049 0.0
C1699 C 0.64677 0.24407 0.77784 0.0
C1700 C 0.64221 0.20426 0.77652 0.0
C1701 C 0.62978 0.08779 0.77204 0.0
C1702 C 0.63411 0.12769 0.77376 0.0
H1703 H 0.663 0.30225 0.75649 0.0
H1704 H 0.6551 0.23796 0.75368 0.0
H1705 H 0.64262 0.19144 0.8049 0.0
H1706 H 0.61027 1.03646 0.78534 0.0
H1707 H 0.61899 0.09755 0.79199 0.0
C1708 C 0.38158 0.04642 0.51107 0.0
C1709 C 0.37235 0.0491 0.5179 0.0
C1710 C 0.38718 1.01326 0.51485 0.0
C1711 C 0.38932 0.92243 0.54279 0.0
H1712 H 0.39937 0.87634 0.49947 0.0
C1713 C 0.4001 0.75754 0.53859 0.0
C1714 C 0.40809 0.74797 0.52849 0.0
C1715 C 0.39649 0.79622 0.53826 0.0
C1716 C 0.39674 0.88898 0.51175 0.0
H1717 H 0.36211 1.02096 0.53539 0.0
H1718 H 0.37189 0.96299 0.54194 0.0
H1719 H 0.3922 0.9421 0.49852 0.0
H1720 H 0.41887 0.7706 0.51071 0.0
H1721 H 0.41267 0.83876 0.51028 0.0
H1722 H 0.39374 0.86892 0.55595 0.0
C1723 C 0.37478 0.98649 0.53364 0.0
C1724 C 0.39265 0.92678 0.51122 0.0
C1725 C 0.36917 1.01972 0.52987 0.0
C1726 C 0.41258 0.7775 0.51832 0.0
C1727 C 0.40901 0.81633 0.51807 0.0
C1728 C 0.39343 0.8846 0.54333 0.0
C1729 C 0.38368 0.98217 0.52556 0.0
C1730 C 0.38881 0.94374 0.52669 0.0
C1731 C 0.40093 0.82613 0.52807 0.0
C1732 C 0.39706 0.86722 0.52775 0.0
H1733 H 0.38429 0.06882 0.50199 0.0
H1734 H 0.3941 1.01113 0.50876 0.0
H1735 H 0.38649 0.93492 0.55495 0.0
H1736 H 0.39664 0.73504 0.54668 0.0
H1737 H 0.39018 0.8026 0.54588 0.0
C1738 C 0.40601 1.02627 0.2827 0.0
C1739 C 0.41414 1.03715 0.29224 0.0
C1740 C 0.40407 0.98623 0.27935 0.0
C1741 C 0.40736 0.89413 0.30292 0.0
H1742 H 0.39314 0.84913 0.26378 0.0
C1743 C 0.38607 0.75115 0.31351 0.0
C1744 C 0.3768 0.75267 0.30689 0.0
C1745 C 0.39283 0.77868 0.30773 0.0
C1746 C 0.3971 0.86124 0.27483 0.0
H1747 H 0.42714 1.01501 0.30398 0.0
H1748 H 0.42371 0.94504 0.2982 0.0
H1749 H 0.40149 0.91225 0.25963 0.0
H1750 H 0.36745 0.78292 0.28838 0.0
H1751 H 0.37906 0.83176 0.27883 0.0
H1752 H 0.40247 0.84523 0.31859 0.0
C1753 C 0.4188 0.9675 0.29348 0.0
C1754 C 0.40193 0.89722 0.2724 0.0
C1755 C 0.42078 1.0076 0.29671 0.0
C1756 C 0.37454 0.781 0.29375 0.0
C1757 C 0.38125 0.80884 0.28814 0.0
C1758 C 0.40246 0.85849 0.30542 0.0
C1759 C 0.41021 0.95636 0.28555 0.0
C1760 C 0.40686 0.9146 0.2866 0.0
C1761 C 0.39042 0.80869 0.29539 0.0
C1762 C 0.397 0.84226 0.2916 0.0
H1763 H 0.40079 0.04838 0.27896 0.0
H1764 H 0.39737 0.97858 0.27328 0.0
H1765 H 0.41097 0.90708 0.31422 0.0
H1766 H 0.38806 0.72928 0.32349 0.0
H1767 H 0.39987 0.77713 0.31332 0.0
C1768 C 0.61455 0.78904 0.03872 0.0
C1769 C 0.60877 0.79893 0.05318 0.0
C1770 C 0.62102 0.75773 0.0401 0.0
C1771 C 0.62816 0.67308 0.04197 0.0
H1772 H 0.64283 0.649 0.08425 0.0
C1773 C 0.64767 0.52371 0.04925 0.0
C1774 C 0.6568 0.5248 0.0564 0.0
C1775 C 0.64184 0.55726 0.05013 0.0
C1776 C 0.6388 0.65537 0.07232 0.0
H1777 H 0.60499 0.78355 0.08022 0.0
H1778 H 0.61633 0.72881 0.0828 0.0
H1779 H 0.63313 0.70928 0.08325 0.0
H1780 H 0.66717 0.56136 0.06972 0.0
H1781 H 0.65701 0.62037 0.07127 0.0
H1782 H 0.63389 0.61982 1.03088 0.0
C1783 C 0.61607 0.74588 0.07053 0.0
C1784 C 0.6332 0.68977 0.0718 0.0
C1785 C 0.60961 0.77735 0.06913 0.0
C1786 C 0.66006 0.55981 0.06445 0.0
C1787 C 0.65423 0.59345 0.06535 0.0
C1788 C 0.63372 0.63876 0.04251 0.0
C1789 C 0.62172 0.73517 0.05589 0.0
C1790 C 0.62783 0.69908 0.05658 0.0
C1791 C 0.64509 0.59278 0.05796 0.0
C1792 C 0.6391 0.62933 0.05769 0.0
H1793 H 0.61395 0.80513 1.02623 0.0
H1794 H 0.62535 0.75069 1.02865 0.0
H1795 H 0.62401 0.67896 1.03013 0.0
H1796 H 0.6451 0.49707 0.04275 0.0
H1797 H 0.63479 0.55542 0.04458 0.0
C1798 C 0.62317 0.52756 0.2693 0.0
C1799 C 0.61401 0.5157 0.27409 0.0
C1800 C 0.62583 0.56741 0.27057 0.0
C1801 C 0.62551 0.65186 0.2578 0.0
H1802 H 0.61879 0.72927 0.2938 0.0
C1803 C 0.63235 0.81532 0.24432 0.0
C1804 C 0.63751 0.83427 0.2578 0.0
C1805 C 0.62757 0.77984 0.2479 0.0
C1806 C 0.62069 0.70794 0.28363 0.0
H1807 H 0.60077 0.53533 0.28569 0.0
H1808 H 0.60536 0.60509 0.2876 0.0
H1809 H 0.6156 0.65846 0.29908 0.0
H1810 H 0.64087 0.8334 0.286 0.0
H1811 H 0.63275 0.77104 0.29211 0.0
H1812 H 0.63085 0.70052 0.24256 0.0
C1813 C 0.61051 0.58365 0.28294 0.0
C1814 C 0.61885 0.6675 0.28664 0.0
C1815 C 0.60787 0.54363 0.28183 0.0
C1816 C 0.63703 0.81924 0.27528 0.0
C1817 C 0.63233 0.78355 0.27882 0.0
C1818 C 0.62735 0.69202 0.25482 0.0
C1819 C 0.61934 0.59616 0.27648 0.0
C1820 C 0.62136 0.63905 0.27382 0.0
C1821 C 0.62794 0.76252 0.26497 0.0
C1822 C 0.62502 0.72054 0.26772 0.0
H1823 H 0.62809 0.50654 0.26352 0.0
H1824 H 0.63279 0.57608 0.26598 0.0
H1825 H 0.62731 0.6308 0.24746 0.0
H1826 H 0.63245 0.82661 0.23078 0.0
H1827 H 0.62402 0.76483 0.23706 0.0
C1828 C 0.38776 0.26493 1.01256 0.0
C1829 C 0.39592 0.25205 1.02146 0.0
C1830 C 0.38399 0.30242 1.01608 0.0
C1831 C 0.38594 0.39295 0.04425 0.0
H1832 H 0.38198 0.44559 0.99879 0.0
C1833 C 0.38017 0.55729 1.00865 0.0
C1834 C 0.37271 0.5716 1.0191 0.0
C1835 C 0.38418 0.52027 1.01238 0.0
C1836 C 0.38321 0.43157 1.0116 0.0
H1837 H 0.40593 0.26612 0.0424 0.0
H1838 H 0.39951 0.33206 0.04816 0.0
H1839 H 0.38511 0.37485 0.99959 0.0
H1840 H 0.3643 0.56076 0.04281 0.0
H1841 H 0.37112 0.49564 0.04902 0.0
H1842 H 0.38422 0.4505 0.05614 0.0
C1843 C 0.39596 0.31321 0.03859 0.0
C1844 C 0.38479 0.39074 1.01209 0.0
C1845 C 0.39966 0.27543 1.03524 0.0
C1846 C 0.37001 0.55029 1.03443 0.0
C1847 C 0.37394 0.51299 0.03804 0.0
C1848 C 0.38436 0.4341 0.04376 0.0
C1849 C 0.38842 0.32786 1.02834 0.0
C1850 C 0.38613 0.37088 1.02839 0.0
C1851 C 0.3807 0.49675 1.02647 0.0
C1852 C 0.38302 0.45379 1.02739 0.0
H1853 H 0.38463 0.24714 1.0021 0.0
H1854 H 0.37798 0.31251 1.00835 0.0
H1855 H 0.38698 0.3784 0.05701 0.0
H1856 H 0.3825 0.57348 0.99693 0.0
H1857 H 0.38959 0.50895 1.00355 0.0
C1858 C 0.41142 0.50666 0.81876 0.0
C1859 C 0.40892 0.54055 0.80884 0.0
C1860 C 0.40513 0.47456 0.82033 0.0
C1861 C 0.38893 0.41533 0.82662 0.0
H1862 H 0.37572 0.38966 0.78293 0.0
C1863 C 0.35916 0.29589 0.82178 0.0
C1864 C 0.35868 0.27367 0.80604 0.0
C1865 C 0.36578 0.3267 0.82348 0.0
C1866 C 0.37942 0.39604 0.79521 0.0
H1867 H 0.3981 0.56762 0.79252 0.0
H1868 H 0.38693 0.51263 0.79578 0.0
H1869 H 0.386 0.44738 0.78381 0.0
H1870 H 0.36467 0.26545 0.77985 0.0
H1871 H 0.37638 0.31848 0.78286 0.0
H1872 H 0.38246 0.36304 0.83781 0.0
C1873 C 0.39373 0.51038 0.80231 0.0
C1874 C 0.38521 0.42967 0.79581 0.0
C1875 C 0.40004 0.54221 0.80068 0.0
C1876 C 0.36497 0.28216 0.79214 0.0
C1877 C 0.37162 0.31268 0.79385 0.0
C1878 C 0.38311 0.38148 0.826 0.0
C1879 C 0.39628 0.47567 0.81177 0.0
C1880 C 0.39002 0.43993 0.81152 0.0
C1881 C 0.37197 0.33599 0.80938 0.0
C1882 C 0.37831 0.37141 0.81025 0.0
H1883 H 0.41834 0.50455 0.82486 0.0
H1884 H 0.40738 0.44823 0.82756 0.0
H1885 H 0.39249 0.42241 0.83896 0.0
H1886 H 0.3542 0.29045 0.83247 0.0
H1887 H 0.36576 0.3443 0.83553 0.0
C1888 C 0.09217 0.26717 0.10858 0.0
C1889 C 0.08712 0.30248 0.11223 0.0
C1890 C 0.09205 0.23426 0.12047 0.0
C1891 C 0.08677 0.20546 0.16829 0.0
H1892 H 0.08709 0.09765 0.15012 0.0
C1893 C 0.09192 0.06635 0.21558 0.0
C1894 C 0.08701 1.03073 0.21181 0.0
C1895 C 0.09184 0.09912 0.20362 0.0
C1896 C 0.08698 0.12743 0.15558 0.0
H1897 H 0.07802 0.32993 0.13185 0.0
H1898 H 0.0778 0.27316 0.15239 0.0
H1899 H 0.08709 0.15399 0.12944 0.0
H1900 H 0.07824 1.00253 0.19187 0.0
H1901 H 0.07811 0.05906 0.17118 0.0
H1902 H 0.08668 0.17891 0.19442 0.0
C1903 C 0.0819 0.27071 0.14028 0.0
C1904 C 0.08707 0.16012 0.14358 0.0
C1905 C 0.08195 0.30346 0.12831 0.0
C1906 C 0.08205 1.02926 0.1955 0.0
C1907 C 0.08204 0.06188 0.18346 0.0
C1908 C 0.08684 0.17278 0.18029 0.0
C1909 C 0.08695 0.2353 0.13666 0.0
C1910 C 0.08693 0.19996 0.14963 0.0
C1911 C 0.08693 0.09764 0.18723 0.0
C1912 C 0.08692 0.13294 0.17423 0.0
H1913 H 0.09633 0.26498 0.09652 0.0
H1914 H 0.09616 0.20818 0.11707 0.0
H1915 H 0.08671 0.23524 0.17375 0.0
H1916 H 0.09591 0.06892 0.22782 0.0
H1917 H 0.09582 0.12547 0.20713 0.0
C1918 C 0.16127 1.03599 0.12701 0.0
C1919 C 0.16902 1.02364 0.11655 0.0
C1920 C 0.16175 0.06967 0.13822 0.0
C1921 C 0.17864 0.14991 0.15691 0.0
H1922 H 0.15494 0.1971 0.17126 0.0
C1923 C 0.17749 0.28821 0.20654 0.0
C1924 C 0.16927 0.31195 0.20764 0.0
C1925 C 0.17787 0.25376 0.19552 0.0
C1926 C 0.16174 0.18539 0.16734 0.0
H1927 H 0.18347 1.03878 0.11009 0.0
H1928 H 0.18426 0.0981 0.12894 0.0
H1929 H 0.15489 0.14002 0.15225 0.0
H1930 H 0.15513 0.31763 0.19699 0.0
H1931 H 0.15589 0.26074 0.17748 0.0
H1932 H 0.18545 0.19714 0.17133 0.0
C1933 C 0.17777 0.08108 0.12898 0.0
C1934 C 0.1617 0.15106 0.15646 0.0
C1935 C 0.17735 0.04662 0.11796 0.0
C1936 C 0.16159 0.30038 0.19684 0.0
C1937 C 0.16202 0.26671 0.18561 0.0
C1938 C 0.17867 0.18486 0.1676 0.0
C1939 C 0.16994 0.09388 0.13934 0.0
C1940 C 0.17013 0.1319 0.15098 0.0
C1941 C 0.17008 0.24172 0.18482 0.0
C1942 C 0.1702 0.20371 0.17317 0.0
H1943 H 0.15472 1.01936 0.1266 0.0
H1944 H 0.15556 0.07627 0.14609 0.0
H1945 H 0.18538 0.13695 0.15347 0.0
H1946 H 0.18356 0.29545 0.21468 0.0
H1947 H 0.18425 0.23613 0.1958 0.0
C1948 C 0.92023 0.81171 0.96268 0.0
C1949 C 0.92659 0.77965 0.96051 0.0
C1950 C 0.92052 0.84569 0.9515 0.0
C1951 C 0.93567 0.90131 0.9178 0.0
H1952 H 0.912 0.95288 0.90592 0.0
C1953 C 0.93403 0.05216 0.87653 0.0
C1954 C 0.92647 0.05764 0.86449 0.0
C1955 C 0.9343 1.01904 0.88836 0.0
C1956 C 0.91872 0.93895 0.9089 0.0
H1957 H 0.93833 0.75948 0.94443 0.0
H1958 H 0.93887 0.81841 0.92503 0.0
H1959 H 0.91205 0.89476 0.92542 0.0
H1960 H 0.91324 1.03144 0.8559 0.0
H1961 H 0.91373 0.97459 0.87611 0.0
H1962 H 0.9423 0.94536 0.90099 0.0
C1963 C 0.93366 0.81753 0.93558 0.0
C1964 C 0.91876 0.90548 0.92042 0.0
C1965 C 0.93335 0.78337 0.94678 0.0
C1966 C 0.91922 1.02872 0.86482 0.0
C1967 C 0.91946 0.99591 0.87666 0.0
C1968 C 0.93563 0.93502 0.90633 0.0
C1969 C 0.92718 0.84936 0.93756 0.0
C1970 C 0.92723 0.88572 0.92514 0.0
C1971 C 0.927 0.9902 0.88874 0.0
C1972 C 0.92714 0.95451 0.90152 0.0
H1973 H 0.91488 0.81044 0.97299 0.0
H1974 H 0.91548 0.8693 0.95391 0.0
H1975 H 0.94239 0.88773 0.92106 0.0
H1976 H 0.93973 0.07363 0.87691 0.0
H1977 H 0.94021 1.01649 0.89745 0.0
C1978 C 0.83316 0.04545 0.95116 0.0
C1979 C 0.84188 0.06489 0.95422 0.0
C1980 C 0.83258 1.01055 0.94043 0.0
C1981 C 0.84824 0.92884 0.92085 0.0
H1982 H 0.82653 0.90298 0.89174 0.0
C1983 C 0.85065 0.80258 0.86795 0.0
C1984 C 0.84286 0.77756 0.86413 0.0
C1985 C 0.84984 0.83643 0.87891 0.0
C1986 C 0.83265 0.90931 0.89988 0.0
H1987 H 0.85678 0.06174 0.94753 0.0
H1988 H 0.85576 1.00312 0.92908 0.0
H1989 H 0.82635 0.96291 0.91037 0.0
H1990 H 0.82788 0.77096 0.86913 0.0
H1991 H 0.82644 0.83003 0.88837 0.0
H1992 H 0.85458 0.87568 0.91053 0.0
C1993 C 0.84932 1.01375 0.93519 0.0
C1994 C 0.83255 0.94407 0.9107 0.0
C1995 C 0.84989 0.04824 0.94581 0.0
C1996 C 0.8341 0.78878 0.87167 0.0
C1997 C 0.83327 0.8231 0.88272 0.0
C1998 C 0.84836 0.89441 0.91008 0.0
C1999 C 0.8407 0.99352 0.93236 0.0
C2000 C 0.84042 0.95504 0.92127 0.0
C2001 C 0.84118 0.8475 0.88677 0.0
C2002 C 0.84064 0.88392 0.8991 0.0
H2003 H 0.8268 0.05663 0.95738 0.0
H2004 H 0.82577 0.99637 0.93884 0.0
H2005 H 0.85438 0.93462 0.92903 0.0
H2006 H 0.85754 0.79621 0.86238 0.0
H2007 H 0.8561 0.85431 0.88102 0.0
C2008 C 0.0922 0.7739 0.61232 0.0
C2009 C 0.08734 0.80967 0.61608 0.0
C2010 C 0.09155 0.74016 0.62364 0.0
C2011 C 0.08582 0.70904 0.67072 0.0
H2012 H 0.08516 0.6023 0.65129 0.0
C2013 C 0.09133 0.56548 0.71525 0.0
C2014 C 0.08593 0.531 0.71168 0.0
C2015 C 0.09104 0.59932 0.70392 0.0
C2016 C 0.08529 0.63179 0.65707 0.0
H2017 H 0.07802 0.83701 0.63533 0.0
H2018 H 0.07697 0.7787 0.65511 0.0
H2019 H 0.08542 0.66004 0.63125 0.0
H2020 H 0.07593 0.50629 0.69289 0.0
H2021 H 0.07553 0.56468 0.67313 0.0
H2022 H 0.0858 0.68077 0.69654 0.0
C2023 C 0.08127 0.77659 0.64323 0.0
C2024 C 0.08553 0.66523 0.64547 0.0
C2025 C 0.08179 0.81019 0.63171 0.0
C2026 C 0.08015 0.53205 0.69635 0.0
C2027 C 0.07999 0.56567 0.68483 0.0
C2028 C 0.08573 0.67559 0.68232 0.0
C2029 C 0.08616 0.74079 0.63948 0.0
C2030 C 0.08578 0.70468 0.65201 0.0
C2031 C 0.08546 0.60007 0.68832 0.0
C2032 C 0.08545 0.63617 0.67578 0.0
H2033 H 0.09662 0.77198 0.60058 0.0
H2034 H 0.09553 0.71376 0.62017 0.0
H2035 H 0.08609 0.7385 0.6765 0.0
H2036 H 0.09593 0.56621 0.72675 0.0
H2037 H 0.09544 0.62464 0.70719 0.0
C2038 C 0.1799 0.54127 0.6217 0.0
C2039 C 0.17099 0.52702 0.61603 0.0
C2040 C 0.18073 0.57533 0.63291 0.0
C2041 C 0.16615 0.64095 0.66402 0.0
H2042 H 0.18666 0.71679 0.6596 0.0
C2043 C 0.16382 0.79472 0.69966 0.0
C2044 C 0.1719 0.81444 0.70636 0.0
C2045 C 0.16444 0.76012 0.68913 0.0
C2046 C 0.1809 0.69588 0.66126 0.0
H2047 H 0.15597 0.53942 0.61816 0.0
H2048 H 0.15739 0.59711 0.63714 0.0
H2049 H 0.18644 0.65687 0.64096 0.0
H2050 H 0.18718 0.81134 0.70654 0.0
H2051 H 0.18831 0.75088 0.68807 0.0
H2052 H 0.16061 0.67921 0.68427 0.0
C2053 C 0.16382 0.58198 0.6333 0.0
C2054 C 0.18077 0.66109 0.65044 0.0
C2055 C 0.16301 0.54841 0.62213 0.0
C2056 C 0.18074 0.79776 0.70171 0.0
C2057 C 0.18138 0.76276 0.691 0.0
C2058 C 0.16629 0.67543 0.67478 0.0
C2059 C 0.17268 0.59644 0.63907 0.0
C2060 C 0.1733 0.63302 0.65135 0.0
C2061 C 0.1732 0.74278 0.68462 0.0
C2062 C 0.17356 0.70426 0.67353 0.0
H2063 H 0.18627 0.52633 0.61736 0.0
H2064 H 0.18772 0.5848 0.63692 0.0
H2065 H 0.16038 0.62018 0.66582 0.0
H2066 H 0.15682 0.80588 0.70263 0.0
H2067 H 0.15792 0.74716 0.68438 0.0
C2068 C 0.91422 0.53131 0.36227 0.0
C2069 C 0.92094 0.56234 0.36384 0.0
C2070 C 0.91448 0.49695 0.37329 0.0
C2071 C 0.93008 0.43608 0.40452 0.0
H2072 H 0.90627 0.38887 0.41864 0.0
C2073 C 0.92811 0.29741 0.45456 0.0
C2074 C 0.92027 0.2714 0.45369 0.0
C2075 C 0.92862 0.33264 0.44389 0.0
C2076 C 0.91307 0.40074 0.4147 0.0
H2077 H 0.93347 0.57931 0.37852 0.0
H2078 H 0.93398 0.51956 0.39753 0.0
H2079 H 0.90639 0.44823 0.40011 0.0
H2080 H 0.90694 0.26301 0.43998 0.0
H2081 H 0.90793 0.32199 0.42143 0.0
H2082 H 0.93676 0.38822 0.41906 0.0
C2083 C 0.92841 0.52195 0.38771 0.0
C2084 C 0.91312 0.43551 0.40392 0.0
C2085 C 0.9281 0.55667 0.37674 0.0
C2086 C 0.91311 0.28181 0.44138 0.0
C2087 C 0.91364 0.31654 0.43069 0.0
C2088 C 0.93004 0.40096 0.41524 0.0
C2089 C 0.92154 0.49134 0.38638 0.0
C2090 C 0.92162 0.45406 0.39843 0.0
C2091 C 0.92132 0.34343 0.43179 0.0
C2092 C 0.92152 0.38209 0.42053 0.0
H2093 H 0.90874 0.5332 0.35229 0.0
H2094 H 0.90914 0.47433 0.37125 0.0
H2095 H 0.93683 0.44861 0.40067 0.0
H2096 H 0.93377 0.29119 0.46388 0.0
H2097 H 0.93468 0.35194 0.44552 0.0
C2098 C 0.83265 0.55135 0.44477 0.0
C2099 C 0.83771 0.5506 0.46097 0.0
C2100 C 0.83274 0.51847 0.43295 0.0
C2101 C 0.8374 0.40785 0.43077 0.0
H2102 H 0.83942 0.4249 0.37988 0.0
C2103 C 0.83417 0.27525 0.37944 0.0
C2104 C 0.84016 0.27555 0.36439 0.0
C2105 C 0.83358 0.30849 0.39101 0.0
C2106 C 0.83888 0.41923 0.39404 0.0
H2107 H 0.84684 0.51326 0.4771 0.0
H2108 H 0.84683 0.45624 0.45694 0.0
H2109 H 0.8389 0.48195 0.39997 0.0
H2110 H 0.85011 0.31263 0.34996 0.0
H2111 H 0.84895 0.3701 0.36964 0.0
H2112 H 0.83702 0.34525 0.42484 0.0
C2113 C 0.84276 0.48232 0.45326 0.0
C2114 C 0.83853 0.45235 0.40567 0.0
C2115 C 0.84278 0.51536 0.46491 0.0
C2116 C 0.84534 0.31088 0.36121 0.0
C2117 C 0.84466 0.34421 0.37261 0.0
C2118 C 0.8375 0.37477 0.41911 0.0
C2119 C 0.83778 0.48312 0.43696 0.0
C2120 C 0.83789 0.44745 0.42433 0.0
C2121 C 0.83883 0.34377 0.38789 0.0
C2122 C 0.83837 0.37958 0.40047 0.0
H2123 H 0.8287 0.57773 0.44102 0.0
H2124 H 0.82877 0.52068 0.42067 0.0
H2125 H 0.83679 0.40227 0.44493 0.0
H2126 H 0.83013 0.24877 0.38263 0.0
H2127 H 0.82895 0.30646 0.40245 0.0
C2128 C 0.59228 0.05314 0.71124 0.0
C2129 C 0.58639 1.01967 0.70863 0.0
C2130 C 0.59224 0.08599 0.69936 0.0
C2131 C 0.58523 0.11803 0.65277 0.0
H2132 H 0.58868 0.2246 0.67129 0.0
C2133 C 0.59144 0.25771 0.60587 0.0
C2134 C 0.58737 0.29464 0.61057 0.0
C2135 C 0.59108 0.22426 0.61745 0.0
C2136 C 0.58766 0.19519 0.66575 0.0
H2137 H 0.57584 0.99555 0.69082 0.0
H2138 H 0.57574 0.0525 0.67018 0.0
H2139 H 0.58841 0.16763 0.69164 0.0
H2140 H 0.57983 0.32439 0.63179 0.0
H2141 H 0.57927 0.26676 0.65188 0.0
H2142 H 0.58453 0.14567 0.62686 0.0
C2143 C 0.58046 0.05337 0.68151 0.0
C2144 C 0.5876 0.16209 0.67753 0.0
C2145 C 0.58045 1.02053 0.69352 0.0
C2146 C 0.58296 0.29667 0.62742 0.0
C2147 C 0.58273 0.26341 0.63912 0.0
C2148 C 0.58544 0.1511 0.64095 0.0
C2149 C 0.58634 0.08696 0.68418 0.0
C2150 C 0.58637 0.12267 0.67136 0.0
C2151 C 0.58678 0.22637 0.63443 0.0
C2152 C 0.58662 0.19053 0.64716 0.0
H2153 H 0.59704 0.05395 0.72252 0.0
H2154 H 0.59701 0.11048 0.70197 0.0
H2155 H 0.58429 0.0886 0.64723 0.0
H2156 H 0.59498 0.25462 0.59317 0.0
H2157 H 0.5944 0.19685 0.6132 0.0
C2158 C 0.67625 1.01915 0.62835 0.0
C2159 C 0.66854 1.01141 0.61687 0.0
C2160 C 0.67652 0.05358 0.63934 0.0
C2161 C 0.6607 0.13292 0.65943 0.0
H2162 H 0.68391 0.19064 0.66814 0.0
C2163 C 0.65964 0.28395 0.69839 0.0
C2164 C 0.66755 0.29847 0.70784 0.0
C2165 C 0.66015 0.2499 0.68743 0.0
C2166 C 0.67732 0.17493 0.6662 0.0
H2167 H 0.65532 1.03676 0.60778 0.0
H2168 H 0.65559 0.09488 0.627 0.0
H2169 H 0.68409 0.13088 0.64966 0.0
H2170 H 0.68237 0.28684 0.71262 0.0
H2171 H 0.68326 0.22702 0.69402 0.0
H2172 H 0.65391 0.17554 0.67624 0.0
C2173 C 0.66142 0.07407 0.62784 0.0
C2174 C 0.67744 0.1402 0.6554 0.0
C2175 C 0.66123 0.0401 0.61674 0.0
C2176 C 0.67609 0.27727 0.7056 0.0
C2177 C 0.67659 0.24258 0.69474 0.0
C2178 C 0.6606 0.16717 0.67038 0.0
C2179 C 0.66905 0.08172 0.63949 0.0
C2180 C 0.6691 0.11855 0.65159 0.0
C2181 C 0.66858 0.22768 0.68545 0.0
C2182 C 0.66888 0.1896 0.67394 0.0
H2183 H 0.6821 0.99843 0.62895 0.0
H2184 H 0.68254 0.05771 0.64801 0.0
H2185 H 0.65411 0.11721 0.65735 0.0
H2186 H 0.6529 0.2991 0.69942 0.0
H2187 H 0.65381 0.24139 0.68037 0.0
C2188 C 0.42738 0.04931 0.37625 0.0
C2189 C 0.42016 0.05485 0.36347 0.0
C2190 C 0.42783 1.01437 0.38702 0.0
C2191 C 0.41771 0.9086 0.39101 0.0
H2192 H 0.42874 0.91105 0.43817 0.0
C2193 C 0.41305 0.77484 0.44075 0.0
C2194 C 0.4203 0.76435 0.45286 0.0
C2195 C 0.41359 0.80931 0.42993 0.0
C2196 C 0.42571 0.90942 0.42497 0.0
H2197 H 0.40791 1.02573 0.3521 0.0
H2198 H 0.40842 0.96697 0.37095 0.0
H2199 H 0.42851 0.9715 0.41987 0.0
H2200 H 0.4339 0.7838 0.46272 0.0
H2201 H 0.43487 0.84393 0.44387 0.0
H2202 H 0.4148 0.84677 0.39616 0.0
C2203 C 0.4139 0.98905 0.37267 0.0
C2204 C 0.42557 0.94453 0.4143 0.0
C2205 C 0.4135 1.02368 0.36188 0.0
C2206 C 0.42818 0.79015 0.45356 0.0
C2207 C 0.42869 0.82513 0.44278 0.0
C2208 C 0.41778 0.87372 0.40169 0.0
C2209 C 0.42109 0.98325 0.38553 0.0
C2210 C 0.4215 0.94516 0.39705 0.0
C2211 C 0.42138 0.83554 0.43068 0.0
C2212 C 0.42172 0.87321 0.41899 0.0
H2213 H 0.43271 0.07207 0.37799 0.0
H2214 H 0.43361 1.0117 0.39639 0.0
H2215 H 0.41472 0.90645 0.37779 0.0
H2216 H 0.40679 0.75645 0.43969 0.0
H2217 H 0.4077 0.81583 0.4212 0.0
C2218 C 0.332 1.03922 0.44797 0.0
C2219 C 0.33898 0.04415 0.46121 0.0
C2220 C 0.33213 1.00619 0.43626 0.0
C2221 C 0.34814 0.92597 0.41777 0.0
H2222 H 0.32473 0.87562 0.40334 0.0
C2223 C 0.34717 0.80401 0.36188 0.0
C2224 C 0.34111 0.77078 0.3639 0.0
C2225 C 0.34676 0.83691 0.37354 0.0
C2226 C 0.33137 0.88902 0.40723 0.0
H2227 H 0.35166 1.01712 0.47202 0.0
H2228 H 0.35194 0.96046 0.45174 0.0
H2229 H 0.32438 0.93245 0.4236 0.0
H2230 H 0.32966 0.74778 0.38006 0.0
H2231 H 0.32881 0.80522 0.40009 0.0
H2232 H 0.35514 0.88251 0.40144 0.0
C2233 C 0.34631 0.98206 0.45034 0.0
C2234 C 0.33116 0.9222 0.41881 0.0
C2235 C 0.3461 1.01472 0.46218 0.0
C2236 C 0.3344 0.77259 0.3778 0.0
C2237 C 0.33394 0.80579 0.3894 0.0
C2238 C 0.34834 0.89311 0.40602 0.0
C2239 C 0.33932 0.97692 0.43711 0.0
C2240 C 0.33954 0.94141 0.42441 0.0
C2241 C 0.3402 0.83849 0.38767 0.0
C2242 C 0.33996 0.87381 0.40047 0.0
H2243 H 0.32641 0.06105 0.44658 0.0
H2244 H 0.32665 1.00407 0.42625 0.0
H2245 H 0.35478 0.93963 0.42147 0.0
H2246 H 0.35245 0.80427 0.35145 0.0
H2247 H 0.35165 0.8613 0.3714 0.0
C2248 C 0.6021 0.77094 0.124 0.0
C2249 C 0.59441 0.79484 0.11843 0.0
C2250 C 0.60086 0.73702 0.13492 0.0
C2251 C 0.58251 0.66472 0.15356 0.0
H2252 H 0.6032 0.63547 0.18471 0.0
C2253 C 0.58294 0.51381 0.19538 0.0
C2254 C 0.58801 0.51244 0.21156 0.0
C2255 C 0.58302 0.54832 0.18434 0.0
C2256 C 0.59724 0.64309 0.17635 0.0
H2257 H 0.5792 0.79991 0.12033 0.0
H2258 H 0.57702 0.74138 0.13974 0.0
H2259 H 0.60452 0.69407 0.16597 0.0
H2260 H 0.59676 0.54832 0.22891 0.0
H2261 H 0.59679 0.60756 0.21019 0.0
H2262 H 0.57516 0.61388 0.16445 0.0
C2263 C 0.5841 0.74873 0.13539 0.0
C2264 C 0.59807 0.67689 0.16515 0.0
C2265 C 0.58535 0.7828 0.12424 0.0
C2266 C 0.5928 0.54755 0.21658 0.0
C2267 C 0.5929 0.58182 0.20559 0.0
C2268 C 0.58167 0.63079 0.16484 0.0
C2269 C 0.59186 0.72511 0.1411 0.0
C2270 C 0.59075 0.68866 0.15341 0.0
C2271 C 0.5882 0.58288 0.18899 0.0
C2272 C 0.589 0.61925 0.1766 0.0
H2273 H 0.60921 0.77811 0.11973 0.0
H2274 H 0.60708 0.71979 0.13828 0.0
H2275 H 0.57669 0.67177 0.14475 0.0
H2276 H 0.57919 0.48762 0.19084 0.0
H2277 H 0.5793 0.54717 0.17177 0.0
C2278 C 0.67991 0.54478 0.12052 0.0
C2279 C 0.6724 0.51767 0.12321 0.0
C2280 C 0.68084 0.57977 0.13102 0.0
C2281 C 0.66674 0.64579 0.16282 0.0
H2282 H 0.691 0.6937 0.17326 0.0
C2283 C 0.66975 0.77454 0.21477 0.0
C2284 C 0.6763 0.80587 0.21229 0.0
C2285 C 0.66974 0.74034 0.20387 0.0
C2286 C 0.68412 0.68114 0.17041 0.0
H2287 H 0.66011 0.50702 0.1398 0.0
H2288 H 0.66181 0.56604 0.158 0.0
H2289 H 0.69019 0.63375 0.15487 0.0
H2290 H 0.68813 0.8242 0.1959 0.0
H2291 H 0.68818 0.76458 0.17698 0.0
H2292 H 0.66066 0.69285 0.17831 0.0
C2293 C 0.66693 0.56137 0.14752 0.0
C2294 C 0.68364 0.64635 0.15972 0.0
C2295 C 0.66599 0.52673 0.13705 0.0
C2296 C 0.683 0.80096 0.1985 0.0
C2297 C 0.68302 0.76643 0.18757 0.0
C2298 C 0.66722 0.6803 0.17352 0.0
C2299 C 0.67429 0.58919 0.14468 0.0
C2300 C 0.67493 0.62752 0.15578 0.0
C2301 C 0.6763 0.73548 0.18985 0.0
C2302 C 0.67591 0.69873 0.17775 0.0
H2303 H 0.68498 0.53951 0.10999 0.0
H2304 H 0.6866 0.59996 0.12807 0.0
H2305 H 0.65982 0.63376 0.15992 0.0
H2306 H 0.66445 0.77652 0.22513 0.0
H2307 H 0.66455 0.71744 0.20659 0.0
C2308 C 0.43053 0.25937 0.94254 0.0
C2309 C 0.4283 0.26208 0.96082 0.0
C2310 C 0.43004 0.29305 0.93109 0.0
C2311 C 0.42977 0.4058 0.93059 0.0
H2312 H 0.41922 0.39416 0.88332 0.0
C2313 C 0.42939 0.53749 0.87722 0.0
C2314 C 0.42102 0.54245 0.86723 0.0
C2315 C 0.43073 0.50374 0.8885 0.0
C2316 C 0.42219 0.39824 0.89647 0.0
H2317 H 0.42382 0.30363 0.9811 0.0
H2318 H 0.42328 0.36215 0.96147 0.0
H2319 H 0.42064 0.33595 0.90287 0.0
H2320 H 0.40763 0.51392 0.86128 0.0
H2321 H 0.41004 0.4558 0.88023 0.0
H2322 H 0.43135 0.46814 0.9241 0.0
C2323 C 0.4254 0.33387 0.95587 0.0
C2324 C 0.42308 0.36447 0.90774 0.0
C2325 C 0.42569 0.30003 0.96722 0.0
C2326 C 0.41417 0.51189 0.86872 0.0
C2327 C 0.41559 0.478 0.87961 0.0
C2328 C 0.42904 0.43949 0.91918 0.0
C2329 C 0.42747 0.33114 0.93749 0.0
C2330 C 0.42681 0.36747 0.92513 0.0
C2331 C 0.42385 0.47315 0.88988 0.0
C2332 C 0.42514 0.43658 0.90192 0.0
H2333 H 0.43243 0.23083 0.93689 0.0
H2334 H 0.43174 0.28918 0.91715 0.0
H2335 H 0.43275 0.40982 0.94373 0.0
H2336 H 0.43486 0.56001 0.87657 0.0
H2337 H 0.43724 0.5014 0.896 0.0
C2338 C 0.34246 0.5174 0.96863 0.0
C2339 C 0.33801 0.55292 0.96301 0.0
C2340 C 0.34271 0.48311 0.95775 0.0
C2341 C 0.33237 0.43651 0.91558 0.0
H2342 H 0.3538 0.36582 0.9208 0.0
C2343 C 0.33552 0.28465 0.87519 0.0
C2344 C 0.34463 0.27078 0.87066 0.0
C2345 C 0.33425 0.31838 0.8864 0.0
C2346 C 0.34776 0.38513 0.91884 0.0
H2347 H 0.33032 0.57912 0.94097 0.0
H2348 H 0.33084 0.52004 0.92197 0.0
H2349 H 0.35265 0.42456 0.93922 0.0
H2350 H 0.35953 0.28368 0.87453 0.0
H2351 H 0.35736 0.3412 0.89325 0.0
H2352 H 0.32768 0.39732 0.8947 0.0
C2353 C 0.33402 0.51816 0.93505 0.0
C2354 C 0.34701 0.41909 0.92983 0.0
C2355 C 0.33372 0.55249 0.94603 0.0
C2356 C 0.35235 0.29233 0.8777 0.0
C2357 C 0.3511 0.3258 0.88873 0.0
C2358 C 0.33314 0.40243 0.90451 0.0
C2359 C 0.3386 0.48264 0.94056 0.0
C2360 C 0.3393 0.44577 0.92853 0.0
C2361 C 0.34203 0.3397 0.89352 0.0
C2362 C 0.3409 0.37595 0.90578 0.0
H2363 H 0.34587 0.51604 0.98153 0.0
H2364 H 0.34614 0.45677 0.96301 0.0
H2365 H 0.32623 0.45541 0.91402 0.0
H2366 H 0.32934 0.26945 0.8701 0.0
H2367 H 0.32711 0.32736 0.88964 0.0
C2368 C 0.10361 0.32122 0.15042 0.0
C2369 C 0.10294 0.3622 0.14698 0.0
C2370 C 0.1012 0.30586 0.16706 0.0
C2371 C 0.09339 0.33695 0.21311 0.0
H2372 H 0.11383 0.2658 0.2257 0.0
C2373 C 0.12068 0.37883 0.25851 0.0
C2374 C 0.12812 0.35205 0.26132 0.0
C2375 C 0.11187 0.36469 0.25312 0.0
C2376 C 0.10783 0.28473 0.2228 0.0
H2377 H 0.09864 0.41911 0.15756 0.0
H2378 H 0.09538 0.39332 0.18735 0.0
H2379 H 0.10913 0.27108 0.19547 0.0
H2380 H 0.13178 0.28993 0.26488 0.0
H2381 H 0.11628 0.26504 0.25619 0.0
H2382 H 0.09285 0.35307 0.24064 0.0
C2383 C 0.09735 0.37237 0.1771 0.0
C2384 C 0.1051 0.28793 0.20508 0.0
C2385 C 0.09942 0.38749 0.16015 0.0
C2386 C 0.12618 0.31111 0.26219 0.0
C2387 C 0.11729 0.29694 0.25718 0.0
C2388 C 0.09619 0.33389 0.23094 0.0
C2389 C 0.09847 0.33138 0.18095 0.0
C2390 C 0.09848 0.31691 0.19977 0.0
C2391 C 0.11046 0.32356 0.25044 0.0
C2392 C 0.10415 0.31099 0.2356 0.0
H2393 H 0.10593 0.30085 0.14016 0.0
H2394 H 0.10184 0.27406 0.16915 0.0
H2395 H 0.08785 0.35783 0.20967 0.0
H2396 H 0.12195 0.41067 0.25826 0.0
H2397 H 0.10676 0.38646 0.24858 0.0
C2398 C 0.1049 1.01954 0.17446 0.0
C2399 C 0.10365 0.97863 0.17749 0.0
C2400 C 0.10264 1.03638 0.15803 0.0
C2401 C 0.09395 1.00989 0.11195 0.0
H2402 H 0.11527 0.07631 0.09928 0.0
C2403 C 0.12042 0.96299 0.06608 0.0
C2404 C 0.12814 0.98824 0.06303 0.0
C2405 C 0.11183 0.97891 0.07165 0.0
C2406 C 0.10903 0.05882 0.10224 0.0
H2407 H 0.09852 0.9235 0.16635 0.0
H2408 H 0.09546 0.95171 0.13694 0.0
H2409 H 0.11076 0.07084 0.12965 0.0
H2410 H 0.13246 0.0496 0.05917 0.0
H2411 H 0.11735 0.07755 0.06847 0.0
H2412 H 0.09297 0.99507 0.08432 0.0
C2413 C 0.09779 0.97155 0.14737 0.0
C2414 C 0.10642 0.05549 0.12003 0.0
C2415 C 0.09974 0.955 0.16409 0.0
C2416 C 0.12666 1.02953 0.0621 0.0
C2417 C 0.11799 0.04549 0.06741 0.0
C2418 C 0.09664 1.01301 0.09407 0.0
C2419 C 0.09944 1.0124 0.14395 0.0
C2420 C 0.09946 1.02793 0.12529 0.0
C2421 C 0.11091 1.02028 0.07433 0.0
C2422 C 0.10488 1.03404 0.08936 0.0
H2423 H 0.10753 1.03874 0.18491 0.0
H2424 H 0.10371 0.06808 0.15627 0.0
H2425 H 0.08816 0.99027 0.1154 0.0
H2426 H 0.12133 0.93094 0.06635 0.0
H2427 H 0.1065 0.95823 0.07634 0.0
C2428 C 0.9205 0.63716 0.91643 0.0
C2429 C 0.91538 0.66914 0.92358 0.0
C2430 C 0.92289 0.63709 0.8983 0.0
C2431 C 0.92347 0.70162 0.85788 0.0
H2432 H 0.90732 0.62105 0.83729 0.0
C2433 C 0.89116 0.73783 0.82319 0.0
C2434 C 0.88597 0.70831 0.81444 0.0
C2435 C 0.90065 0.73146 0.82726 0.0
C2436 C 0.91218 0.64324 0.84232 0.0
H2437 H 0.9093 0.72709 0.91805 0.0
H2438 H 0.91347 0.72727 0.88674 0.0
H2439 H 0.91419 0.60975 0.86628 0.0
H2440 H 0.8869 0.65239 0.80024 0.0
H2441 H 0.90352 0.64113 0.80738 0.0
H2442 H 0.92063 0.73686 0.83468 0.0
C2443 C 0.91569 0.70222 0.89489 0.0
C2444 C 0.91614 0.6366 0.85909 0.0
C2445 C 0.91312 0.7018 0.91274 0.0
C2446 C 0.89074 0.67531 0.80732 0.0
C2447 C 0.90026 0.66884 0.81143 0.0
C2448 C 0.91956 0.70817 0.84103 0.0
C2449 C 0.92042 0.6696 0.88735 0.0
C2450 C 0.92096 0.66748 0.86771 0.0
C2451 C 0.90507 0.69522 0.82275 0.0
C2452 C 0.91302 0.68085 0.83405 0.0
H2453 H 0.92236 0.61177 0.92467 0.0
H2454 H 0.92641 0.61135 0.89273 0.0
H2455 H 0.92739 0.72551 0.86412 0.0
H2456 H 0.88767 0.76389 0.82854 0.0
H2457 H 0.90409 0.75276 0.83589 0.0
C2458 C 0.88714 0.11134 1.02169 0.0
C2459 C 0.88086 0.08635 1.01253 0.0
C2460 C 0.89688 0.10782 1.01891 0.0
C2461 C 0.91416 0.05581 0.98861 0.0
H2462 H 0.91577 0.1625 0.96894 0.0
C2463 C 0.91184 0.08686 0.91675 0.0
C2464 C 0.9154 0.12167 0.90888 0.0
C2465 C 0.9138 0.07805 0.93449 0.0
C2466 C 0.91577 0.13272 0.97456 0.0
H2467 H 0.87974 1.0338 0.99612 0.0
H2468 H 0.89652 1.02768 0.9911 0.0
H2469 H 0.90753 0.15178 0.99657 0.0
H2470 H 0.9244 0.17311 0.91271 0.0
H2471 H 0.92752 0.15861 0.94429 0.0
H2472 H 0.92151 1.03653 0.96526 0.0
C2473 C 0.89416 0.05025 1.00033 0.0
C2474 C 0.91101 0.12642 0.9906 0.0
C2475 C 0.88446 0.05383 1.00309 0.0
C2476 C 0.92146 0.14638 0.91867 0.0
C2477 C 0.9233 0.13792 0.93663 0.0
C2478 C 0.91889 0.0621 0.97249 0.0
C2479 C 0.9004 0.07951 1.00682 0.0
C2480 C 0.90928 0.08738 0.99675 0.0
C2481 C 0.91926 0.10419 0.94485 0.0
C2482 C 0.91888 0.1001 0.96451 0.0
H2483 H 0.88452 0.13629 1.02933 0.0
H2484 H 0.90152 0.13008 1.02456 0.0
H2485 H 0.91329 1.02553 0.9934 0.0
H2486 H 0.90732 0.06689 0.90933 0.0
H2487 H 0.91045 0.05215 0.94039 0.0
C2488 C 0.12651 0.83134 0.75237 0.0
C2489 C 0.13138 0.8588 0.76295 0.0
C2490 C 0.11719 0.83896 0.74739 0.0
C2491 C 0.10728 0.93341 0.73558 0.0
H2492 H 0.09308 0.86331 0.70474 0.0
C2493 C 0.09332 0.92099 0.65828 0.0
C2494 C 0.10211 0.93006 0.65054 0.0
C2495 C 0.09229 0.92035 0.6768 0.0
C2496 C 0.09674 0.88377 0.71346 0.0
H2497 H 0.12982 0.90997 0.78017 0.0
H2498 H 0.11347 0.92286 0.77178 0.0
H2499 H 0.09816 0.83949 0.73389 0.0
H2500 H 0.11656 0.94733 0.65576 0.0
H2501 H 0.11479 0.94677 0.68805 0.0
H2502 H 0.10646 0.97658 0.7146 0.0
C2503 C 0.1169 0.89645 0.76666 0.0
C2504 C 0.0997 0.87002 0.73016 0.0
C2505 C 0.12627 0.88895 0.77155 0.0
C2506 C 0.10971 0.94049 0.66146 0.0
C2507 C 0.10865 0.94049 0.67993 0.0
C2508 C 0.1043 0.94714 0.71897 0.0
C2509 C 0.11267 0.8742 0.75296 0.0
C2510 C 0.10577 0.89341 0.74066 0.0
C2511 C 0.10001 0.92933 0.6878 0.0
C2512 C 0.09971 0.92128 0.7072 0.0
H2513 H 0.13025 0.80716 0.74596 0.0
H2514 H 0.11415 0.82037 0.73713 0.0
H2515 H 0.11183 0.95276 0.74326 0.0
H2516 H 0.08742 0.9119 0.6501 0.0
H2517 H 0.08559 0.91132 0.68252 0.0
C2518 C 0.09765 0.41679 0.66163 0.0
C2519 C 0.09886 0.44421 0.6754 0.0
C2520 C 0.09569 0.43046 0.64436 0.0
C2521 C 0.10107 0.5208 0.61893 0.0
H2522 H 0.09372 0.45251 0.57996 0.0
C2523 C 0.12566 0.52017 0.5647 0.0
C2524 C 0.12878 0.4807 0.56322 0.0
C2525 C 0.11631 0.52796 0.56952 0.0
C2526 C 0.09575 0.4723 0.59063 0.0
H2527 H 0.09808 0.5063 0.68276 0.0
H2528 H 0.09385 0.52991 0.65323 0.0
H2529 H 0.08742 0.43998 0.60967 0.0
H2530 H 0.12433 0.41903 0.56206 0.0
H2531 H 0.10841 0.43191 0.57161 0.0
H2532 H 0.10998 0.55105 0.60081 0.0
C2533 C 0.09488 0.49823 0.65523 0.0
C2534 C 0.09214 0.46501 0.6077 0.0
C2535 C 0.09724 0.48476 0.67219 0.0
C2536 C 0.12214 0.44974 0.56367 0.0
C2537 C 0.11289 0.45738 0.56901 0.0
C2538 C 0.10471 0.52785 0.60202 0.0
C2539 C 0.09466 0.47164 0.64084 0.0
C2540 C 0.0954 0.48719 0.62229 0.0
C2541 C 0.11016 0.49625 0.57384 0.0
C2542 C 0.10285 0.50122 0.58803 0.0
H2543 H 0.09878 0.38528 0.66399 0.0
H2544 H 0.09564 0.40898 0.63366 0.0
H2545 H 0.10372 0.53912 0.62965 0.0
H2546 H 0.13062 0.5447 0.56376 0.0
H2547 H 0.11428 0.55855 0.572 0.0
C2548 C 0.87133 0.24107 0.48968 0.0
C2549 C 0.87979 0.26103 0.49336 0.0
C2550 C 0.86447 0.25945 0.47912 0.0
C2551 C 0.86862 0.31518 0.44032 0.0
H2552 H 0.84368 0.27519 0.42925 0.0
C2553 C 0.86313 0.24168 0.37366 0.0
C2554 C 0.85814 0.20551 0.37468 0.0
C2555 C 0.86231 0.27012 0.38712 0.0
C2556 C 0.85068 0.28653 0.43204 0.0
H2557 H 0.88691 0.31816 0.49246 0.0
H2558 H 0.87497 0.35018 0.47389 0.0
H2559 H 0.84774 0.29052 0.45998 0.0
H2560 H 0.84815 0.17167 0.39082 0.0
H2561 H 0.84732 0.21892 0.4145 0.0
H2562 H 0.87208 0.30688 0.41315 0.0
C2563 C 0.87366 0.32024 0.47877 0.0
C2564 C 0.85293 0.29599 0.44966 0.0
C2565 C 0.88052 0.30184 0.48936 0.0
C2566 C 0.85211 0.19907 0.38933 0.0
C2567 C 0.85152 0.22687 0.40299 0.0
C2568 C 0.86644 0.30508 0.42283 0.0
C2569 C 0.86608 0.2978 0.47204 0.0
C2570 C 0.86219 0.30705 0.45414 0.0
C2571 C 0.85678 0.26246 0.40236 0.0
C2572 C 0.85771 0.2873 0.41873 0.0
H2573 H 0.87052 0.20978 0.49295 0.0
H2574 H 0.85865 0.24137 0.47442 0.0
H2575 H 0.87582 0.32401 0.44319 0.0
H2576 H 0.86775 0.24784 0.3625 0.0
H2577 H 0.86627 0.29756 0.38575 0.0
C2578 C 0.8695 0.55084 0.42683 0.0
C2579 C 0.86117 0.57241 0.42947 0.0
C2580 C 0.8705 0.52645 0.41202 0.0
C2581 C 0.86181 0.52346 0.36627 0.0
H2582 H 0.88516 0.46358 0.365 0.0
C2583 C 0.88933 0.57546 0.32064 0.0
C2584 C 0.89337 0.60133 0.33337 0.0
C2585 C 0.88449 0.54107 0.32604 0.0
C2586 C 0.87837 0.47849 0.36472 0.0
H2587 H 0.84706 0.58351 0.41948 0.0
H2588 H 0.8487 0.54047 0.39361 0.0
H2589 H 0.87512 0.45981 0.39124 0.0
H2590 H 0.8966 0.60735 0.36155 0.0
H2591 H 0.8886 0.54728 0.37065 0.0
H2592 H 0.86535 0.54382 0.3402 0.0
C2593 C 0.85458 0.54277 0.40275 0.0
C2594 C 0.87271 0.47726 0.37996 0.0
C2595 C 0.85364 0.56773 0.4175 0.0
C2596 C 0.89345 0.58901 0.35131 0.0
C2597 C 0.88898 0.55403 0.35654 0.0
C2598 C 0.86728 0.5234 0.35082 0.0
C2599 C 0.86313 0.52255 0.39949 0.0
C2600 C 0.8652 0.50456 0.38178 0.0
C2601 C 0.88399 0.53101 0.34413 0.0
C2602 C 0.87628 0.50598 0.35115 0.0
H2603 H 0.87536 0.55352 0.43602 0.0
H2604 H 0.87732 0.51259 0.41001 0.0
H2605 H 0.85584 0.54356 0.36666 0.0
H2606 H 0.88925 0.58325 0.30664 0.0
H2607 H 0.88058 0.52403 0.31629 0.0
C2608 C 0.60405 0.36172 0.65308 0.0
C2609 C 0.60139 0.39528 0.64313 0.0
C2610 C 0.60109 0.3574 0.67065 0.0
C2611 C 0.59702 0.41623 0.70883 0.0
H2612 H 0.59354 0.31114 0.72944 0.0
C2613 C 0.61943 0.38509 0.76471 0.0
C2614 C 0.62534 0.35458 0.75853 0.0
C2615 C 0.61 0.38667 0.75922 0.0
C2616 C 0.59434 0.34095 0.72407 0.0
H2617 H 0.5935 0.45056 0.64347 0.0
H2618 H 0.58862 0.44387 0.67476 0.0
H2619 H 0.58913 0.32333 0.69851 0.0
H2620 H 0.62573 0.29766 0.74515 0.0
H2621 H 0.60959 0.30096 0.73496 0.0
H2622 H 0.60326 0.43302 0.73331 0.0
C2623 C 0.59282 0.42051 0.66876 0.0
C2624 C 0.59179 0.34792 0.70635 0.0
C2625 C 0.59567 0.4245 0.65099 0.0
C2626 C 0.62134 0.32211 0.74965 0.0
C2627 C 0.61198 0.32397 0.74393 0.0
C2628 C 0.59967 0.40917 0.72643 0.0
C2629 C 0.5955 0.38682 0.67874 0.0
C2630 C 0.59395 0.38459 0.69819 0.0
C2631 C 0.60653 0.35842 0.74707 0.0
C2632 C 0.5993 0.37026 0.7336 0.0
H2633 H 0.60833 0.33844 0.64722 0.0
H2634 H 0.60349 0.33162 0.67811 0.0
H2635 H 0.59862 0.44501 0.70296 0.0
H2636 H 0.62231 0.40994 0.77208 0.0
H2637 H 0.60585 0.41267 0.76261 0.0
C2638 C 0.64052 0.98416 0.60107 0.0
C2639 C 0.64159 0.97457 0.58296 0.0
C2640 C 0.63597 1.01894 0.60612 0.0
C2641 C 0.61544 0.05535 0.59893 0.0
H2642 H 0.62366 0.11672 0.63949 0.0
C2643 C 0.60209 1.00838 0.66552 0.0
C2644 C 0.60976 1.00189 0.677 0.0
C2645 C 0.60296 1.0345 0.65103 0.0
C2646 C 0.62113 0.10001 0.62815 0.0
H2647 H 0.63935 0.99698 0.55599 0.0
H2648 H 0.63057 0.05627 0.56513 0.0
H2649 H 0.63365 0.11286 0.61323 0.0
H2650 H 0.62416 1.01876 0.68301 0.0
H2651 H 0.62597 0.06166 0.65741 0.0
H2652 H 0.60392 1.03562 0.61481 0.0
C2653 C 0.63363 1.03706 0.57522 0.0
C2654 C 0.62677 0.09875 0.61289 0.0
C2655 C 0.63854 1.00273 0.57008 0.0
C2656 C 0.61818 1.02282 0.67419 0.0
C2657 C 0.61911 0.04834 0.65963 0.0
C2658 C 0.60999 0.05525 0.61441 0.0
C2659 C 0.6321 0.04471 0.59329 0.0
C2660 C 0.62457 0.07161 0.59937 0.0
C2661 C 0.61158 0.05406 0.64757 0.0
C2662 C 0.61352 0.07317 0.62996 0.0
H2663 H 0.64286 0.96398 0.61147 0.0
H2664 H 0.63475 1.02387 0.62019 0.0
H2665 H 0.61343 1.03536 0.58829 0.0
H2666 H 0.59543 0.99317 0.66769 0.0
H2667 H 0.59697 1.03823 0.64222 0.0
C2668 C 0.37225 0.74513 0.48767 0.0
C2669 C 0.38095 0.763 0.49159 0.0
C2670 C 0.36585 0.76459 0.47647 0.0
C2671 C 0.35526 0.80297 0.44602 0.0
H2672 H 0.375 0.80293 0.41034 0.0
C2673 C 0.35339 0.69956 0.38807 0.0
C2674 C 0.35958 0.70262 0.37343 0.0
C2675 C 0.35316 0.72906 0.40107 0.0
C2676 C 0.36923 0.80431 0.41975 0.0
H2677 H 0.38896 0.81793 0.49023 0.0
H2678 H 0.37784 0.85172 0.47051 0.0
H2679 H 0.37872 0.82172 0.44019 0.0
H2680 H 0.36993 0.74076 0.36063 0.0
H2681 H 0.36921 0.79309 0.38281 0.0
H2682 H 0.34583 0.78399 0.4255 0.0
C2683 C 0.37599 0.82263 0.47577 0.0
C2684 C 0.3714 0.81534 0.43712 0.0
C2685 C 0.38238 0.8032 0.48703 0.0
C2686 C 0.36516 0.73713 0.37177 0.0
C2687 C 0.36478 0.7671 0.38462 0.0
C2688 C 0.35301 0.79289 0.42846 0.0
C2689 C 0.36816 0.80188 0.46897 0.0
C2690 C 0.36467 0.8109 0.45076 0.0
C2691 C 0.35901 0.76291 0.3998 0.0
C2692 C 0.36021 0.78941 0.41557 0.0
H2693 H 0.37091 0.71439 0.49133 0.0
H2694 H 0.35983 0.74784 0.47169 0.0
H2695 H 0.34986 0.80038 0.45619 0.0
H2696 H 0.34895 0.67366 0.39001 0.0
H2697 H 0.34875 0.72385 0.4126 0.0
C2698 C 0.35387 0.0583 0.419 0.0
C2699 C 0.36173 0.06567 0.42991 0.0
C2700 C 0.3546 1.03205 0.40464 0.0
C2701 C 0.37262 0.96803 0.38094 0.0
H2702 H 0.36449 1.03402 0.34152 0.0
C2703 C 0.39261 0.08147 0.35155 0.0
C2704 C 0.39245 0.0934 0.33357 0.0
C2705 C 0.38821 0.04648 0.357 0.0
C2706 C 0.36663 1.01372 0.35204 0.0
H2707 H 0.3763 0.05004 0.43513 0.0
H2708 H 0.37785 1.00706 0.40965 0.0
H2709 H 0.35526 1.03274 0.36839 0.0
H2710 H 0.38823 0.07469 0.30698 0.0
H2711 H 0.3797 1.01536 0.317 0.0
H2712 H 0.38497 0.95559 0.3655 0.0
C2713 C 0.37097 1.01982 0.41225 0.0
C2714 C 0.36132 1.01315 0.36769 0.0
C2715 C 0.37018 0.0454 0.4267 0.0
C2716 C 0.38837 0.0672 0.32101 0.0
C2717 C 0.38361 1.03277 0.32662 0.0
C2718 C 0.3781 0.9698 0.36548 0.0
C2719 C 0.36327 1.01339 0.40071 0.0
C2720 C 0.36501 0.99468 0.38305 0.0
C2721 C 0.38323 1.02298 0.34476 0.0
C2722 C 0.37573 0.99716 0.35202 0.0
H2723 H 0.34717 0.07272 0.42159 0.0
H2724 H 0.34847 1.02742 0.39629 0.0
H2725 H 0.37528 0.9511 0.39219 0.0
H2726 H 0.39579 0.10008 0.36167 0.0
H2727 H 0.38792 0.03996 0.37114 0.0
C2728 C 0.64268 0.87819 0.05978 0.0
C2729 C 0.63776 0.84895 0.06946 0.0
C2730 C 0.65199 0.88756 0.0644 0.0
C2731 C 0.66118 0.93048 0.0942 0.0
H2732 H 0.67535 0.86642 0.12784 0.0
C2733 C 0.65721 0.94695 0.1677 0.0
C2734 C 0.66439 0.93567 0.17949 0.0
C2735 C 0.65879 0.94602 0.14936 0.0
C2736 C 0.6717 0.88533 0.11835 0.0
H2737 H 0.63916 0.80041 0.08832 0.0
H2738 H 0.65516 0.81683 0.09665 0.0
H2739 H 0.671 0.83841 0.09923 0.0
H2740 H 0.67878 0.91454 0.18154 0.0
H2741 H 0.68165 0.91369 0.14953 0.0
H2742 H 0.66134 0.97642 0.11382 0.0
C2743 C 0.65202 0.83335 0.08574 0.0
C2744 C 0.66916 0.86912 0.10193 0.0
C2745 C 0.64276 0.82394 0.08108 0.0
C2746 C 0.67328 0.92502 0.17273 0.0
C2747 C 0.67487 0.92391 0.1544 0.0
C2748 C 0.66378 0.94677 0.11052 0.0
C2749 C 0.65633 0.86808 0.07888 0.0
C2750 C 0.66304 0.8901 0.0905 0.0
C2751 C 0.66755 0.93325 0.14249 0.0
C2752 C 0.66831 0.92305 0.12335 0.0
H2753 H 0.63902 0.89722 0.05035 0.0
H2754 H 0.65526 0.91344 0.05833 0.0
H2755 H 0.65661 0.9481 0.0857 0.0
H2756 H 0.65027 0.95485 0.17264 0.0
H2757 H 0.65292 0.9526 0.14058 0.0
C2758 C 0.60362 0.44909 0.19089 0.0
C2759 C 0.60865 0.45314 0.20699 0.0
C2760 C 0.60346 0.47985 0.1784 0.0
C2761 C 0.61835 0.56289 0.16412 0.0
H2762 H 0.60037 0.55915 0.12525 0.0
C2763 C 0.63407 0.5661 0.09929 0.0
C2764 C 0.63237 0.52742 0.09303 0.0
C2765 C 0.62737 0.58513 0.10991 0.0
C2766 C 0.60539 0.56155 0.13608 0.0
H2767 H 0.61699 0.49409 0.22275 0.0
H2768 H 0.61645 0.54837 0.20111 0.0
H2769 H 0.59567 0.53636 0.15472 0.0
H2770 H 0.62183 0.48131 0.08996 0.0
H2771 H 0.61033 0.51321 0.10905 0.0
H2772 H 0.6283 0.58493 0.14539 0.0
C2773 C 0.61285 0.52082 0.19801 0.0
C2774 C 0.60273 0.54813 0.153 0.0
C2775 C 0.61314 0.4897 0.21046 0.0
C2776 C 0.62336 0.51085 0.09496 0.0
C2777 C 0.61671 0.52954 0.10583 0.0
C2778 C 0.62098 0.57648 0.14729 0.0
C2779 C 0.60819 0.51595 0.1816 0.0
C2780 C 0.60948 0.54498 0.16672 0.0
C2781 C 0.61906 0.56495 0.11485 0.0
C2782 C 0.61484 0.57192 0.1327 0.0
H2783 H 0.6 0.42171 0.18755 0.0
H2784 H 0.59996 0.47429 0.16584 0.0
H2785 H 0.62374 0.56182 0.17433 0.0
H2786 H 0.64094 0.57982 0.09766 0.0
H2787 H 0.62925 0.61305 0.11615 0.0
C2788 C 0.39336 0.20219 0.81167 0.0
C2789 C 0.38761 0.2303 0.82019 0.0
C2790 C 0.40293 0.19951 0.81613 0.0
C2791 C 0.41924 0.23557 0.85245 0.0
H2792 H 0.4142 0.12837 0.86937 0.0
C2793 C 0.40973 0.20244 0.92276 0.0
C2794 C 0.41237 0.16709 0.93141 0.0
C2795 C 0.41244 0.20948 0.90521 0.0
C2796 C 0.416 0.15798 0.86467 0.0
H2797 H 0.38754 0.28321 0.8365 0.0
H2798 H 0.40399 0.27842 0.84456 0.0
H2799 H 0.40968 0.14693 0.83958 0.0
H2800 H 0.41988 0.11123 0.92866 0.0
H2801 H 0.42427 0.12277 0.8974 0.0
H2802 H 0.42453 0.24741 0.87862 0.0
C2803 C 0.40135 0.25775 0.83472 0.0
C2804 C 0.41344 0.16882 0.84739 0.0
C2805 C 0.39183 0.26045 0.83024 0.0
C2806 C 0.41772 0.13863 0.92217 0.0
C2807 C 0.42031 0.14538 0.90442 0.0
C2808 C 0.42171 0.22483 0.86984 0.0
C2809 C 0.40671 0.22444 0.82937 0.0
C2810 C 0.41405 0.20895 0.84183 0.0
C2811 C 0.41775 0.18107 0.89583 0.0
C2812 C 0.41927 0.18701 0.87652 0.0
H2813 H 0.39027 0.17921 0.80342 0.0
H2814 H 0.40698 0.17457 0.81112 0.0
H2815 H 0.42021 0.26625 0.8483 0.0
H2816 H 0.40576 0.2252 0.9297 0.0
H2817 H 0.41014 0.23681 0.89882 0.0
C2818 C 0.37239 0.63837 0.81096 0.0
C2819 C 0.37722 0.60585 0.81846 0.0
C2820 C 0.36301 0.64577 0.81578 0.0
C2821 C 0.34527 0.6121 0.85023 0.0
H2822 H 0.35278 0.71279 0.87095 0.0
C2823 C 0.35509 0.62861 0.92115 0.0
C2824 C 0.35255 0.66181 0.93129 0.0
C2825 C 0.35247 0.62624 0.90334 0.0
C2826 C 0.35029 0.68525 0.86512 0.0
H2827 H 0.37567 0.55114 0.83348 0.0
H2828 H 0.35954 0.56385 0.8421 0.0
H2829 H 0.35752 0.69726 0.84091 0.0
H2830 H 0.34534 0.71875 0.93098 0.0
H2831 H 0.34118 0.7156 0.89917 0.0
H2832 H 0.33914 0.59837 0.8756 0.0
C2833 C 0.36278 0.58434 0.83276 0.0
C2834 C 0.35298 0.67619 0.84774 0.0
C2835 C 0.37213 0.57701 0.82795 0.0
C2836 C 0.3474 0.69292 0.92331 0.0
C2837 C 0.34494 0.69096 0.90527 0.0
C2838 C 0.3427 0.62095 0.86772 0.0
C2839 C 0.35847 0.62093 0.82829 0.0
C2840 C 0.35139 0.63774 0.84085 0.0
C2841 C 0.34738 0.65734 0.8952 0.0
C2842 C 0.34597 0.65607 0.87574 0.0
H2843 H 0.37614 0.66064 0.80322 0.0
H2844 H 0.35977 0.67348 0.81155 0.0
H2845 H 0.34358 0.5829 0.84504 0.0
H2846 H 0.35893 0.60397 0.92709 0.0
H2847 H 0.35467 0.60046 0.89575 0.0
C2848 C 0.97447 0.61319 1.0298 0.0
C2849 C 0.96817 0.59553 0.04202 0.0
C2850 C 0.98381 0.59952 1.02824 0.0
C2851 C 0.99957 0.51328 0.03895 0.0
H2852 H 0.01957 0.59111 1.03292 0.0
C2853 C 0.0392 0.46887 0.04338 0.0
C2854 C 0.0455 0.48671 1.0312 0.0
C2855 C 0.02986 0.4825 0.04499 0.0
C2856 C 0.01408 0.56884 1.03441 0.0
H2857 H 0.9668 0.54853 0.06176 0.0
H2858 H 0.98304 0.52513 0.05922 0.0
H2859 H 1.00319 0.61317 1.03457 0.0
H2860 H 0.04685 0.53396 1.01157 0.0
H2861 H 0.0306 0.55723 1.01417 0.0
H2862 H 0.01046 0.46894 0.03878 0.0
C2863 C 0.98077 0.54947 0.05074 0.0
C2864 C 1.00465 0.58154 1.03533 0.0
C2865 C 0.97144 0.56319 0.05233 0.0
C2866 C 0.04221 0.51916 1.02097 0.0
C2867 C 0.03288 0.53281 1.0226 0.0
C2868 C 0.00901 0.50057 0.03802 0.0
C2869 C 0.98714 0.56768 0.0388 0.0
C2870 C 0.99723 0.55398 0.03761 0.0
C2871 C 0.02652 0.51445 1.0345 0.0
C2872 C 0.01643 0.52813 0.03573 0.0
H2873 H 0.97228 0.6384 1.02176 0.0
H2874 H 0.98843 0.61401 1.01871 0.0
H2875 H 0.99408 0.49102 0.04044 0.0
H2876 H 0.0414 0.44358 0.05136 0.0
H2877 H 0.02525 0.46788 0.05449 0.0
C2878 C 0.29334 0.76977 0.05422 0.0
C2879 C 0.29642 0.73752 0.04378 0.0
C2880 C 0.28404 0.78397 0.053 0.0
C2881 C 0.25996 0.7535 0.03814 0.0
H2882 H 0.25441 0.8661 0.04265 0.0
C2883 C 0.22285 0.8195 1.02335 0.0
C2884 C 0.21953 0.85101 1.03396 0.0
C2885 C 0.23208 0.80496 1.02527 0.0
C2886 C 0.25581 0.83447 0.0416 0.0
H2887 H 0.29199 0.69546 1.02361 0.0
H2888 H 0.27591 0.72086 1.0211 0.0
H2889 H 0.27076 0.84328 0.0438 0.0
H2890 H 0.22337 0.89135 0.0552 0.0
H2891 H 0.23945 0.86566 0.05873 0.0
H2892 H 0.24501 0.74477 0.03579 0.0
C2893 C 0.28065 0.7348 1.03051 0.0
C2894 C 0.26522 0.82133 0.04224 0.0
C2895 C 0.28995 0.72057 1.03175 0.0
C2896 C 0.22564 0.86687 0.0469 0.0
C2897 C 0.23491 0.85245 0.04876 0.0
C2898 C 0.25056 0.76666 0.03745 0.0
C2899 C 0.27751 0.76645 0.04127 0.0
C2900 C 0.26745 0.78062 0.04048 0.0
C2901 C 0.2383 0.82157 0.03783 0.0
C2902 C 0.24833 0.80736 0.03913 0.0
H2903 H 0.29812 0.78396 0.06351 0.0
H2904 H 0.28193 0.80814 0.06162 0.0
H2905 H 0.26133 0.72187 0.03709 0.0
H2906 H 0.21833 0.80633 1.01335 0.0
H2907 H 0.23442 0.78141 1.01651 0.0
C2908 C 0.04214 0.82784 0.28177 0.0
C2909 C 0.04429 0.85728 0.29442 0.0
C2910 C 0.0329 0.81281 0.28015 0.0
C2911 C 0.00772 0.83547 0.29147 0.0
H2912 H 1.00407 0.72247 0.28374 0.0
C2913 C 0.97037 0.7618 0.29393 0.0
C2914 C 0.96843 0.73249 0.2811 0.0
C2915 C 0.97958 0.77682 0.29609 0.0
C2916 C 1.00493 0.7542 0.28571 0.0
H2917 H 0.03818 0.89492 0.31482 0.0
H2918 H 0.02225 0.86846 0.31222 0.0
H2919 H 0.02003 0.74933 0.28566 0.0
H2920 H 0.97488 0.69494 0.26104 0.0
H2921 H 0.99073 0.72139 0.26452 0.0
H2922 H 0.99261 0.84034 0.29147 0.0
C2923 C 0.02767 0.85692 0.30347 0.0
C2924 C 0.01413 0.76966 0.28679 0.0
C2925 C 0.03688 0.8718 0.30512 0.0
C2926 C 0.97602 0.71799 0.27085 0.0
C2927 C 0.98519 0.73286 0.27302 0.0
C2928 C 0.99852 0.82 0.29038 0.0
C2929 C 0.02553 0.82701 0.29104 0.0
C2930 C 0.01568 0.81056 0.28965 0.0
C2931 C 0.98713 0.76269 0.28558 0.0
C2932 C 0.99697 0.77912 0.28742 0.0
H2933 H 0.04764 0.81585 0.27333 0.0
H2934 H 0.03154 0.79018 0.27025 0.0
H2935 H 0.00858 0.8672 0.29344 0.0
H2936 H 0.96473 0.77372 0.30206 0.0
H2937 H 0.9808 0.79942 0.30608 0.0
C2938 C 0.29098 0.61111 0.29462 0.0
C2939 C 0.29722 0.59475 0.28203 0.0
C2940 C 0.28164 0.59727 0.29606 0.0
C2941 C 0.26572 0.51269 0.28412 0.0
H2942 H 0.2459 0.59135 0.28955 0.0
C2943 C 0.226 0.46982 0.27862 0.0
C2944 C 0.21968 0.48788 0.29061 0.0
C2945 C 0.23538 0.4832 0.27711 0.0
C2946 C 0.25132 0.56882 0.28824 0.0
H2947 H 0.29856 0.54964 0.26163 0.0
H2948 H 0.28234 0.52567 0.26409 0.0
H2949 H 0.26236 0.61255 0.28887 0.0
H2950 H 0.2183 0.53553 0.30983 0.0
H2951 H 0.23458 0.55819 0.30749 0.0
H2952 H 0.2547 0.46892 0.28359 0.0
C2953 C 0.28464 0.54921 0.27289 0.0
C2954 C 0.26081 0.58104 0.28787 0.0
C2955 C 0.29395 0.56318 0.27139 0.0
C2956 C 0.22296 0.52049 0.30061 0.0
C2957 C 0.23231 0.53381 0.29912 0.0
C2958 C 0.25623 0.50044 0.28455 0.0
C2959 C 0.27828 0.56647 0.28504 0.0
C2960 C 0.26816 0.55319 0.28581 0.0
C2961 C 0.23873 0.5151 0.28751 0.0
C2962 C 0.24887 0.52829 0.28662 0.0
H2963 H 0.2932 0.63566 0.30294 0.0
H2964 H 0.27702 0.61095 0.30576 0.0
H2965 H 0.27116 0.49025 0.28273 0.0
H2966 H 0.22379 0.44447 0.27079 0.0
H2967 H 0.24002 0.46834 0.26781 0.0
C2968 C 0.79059 0.27221 0.04999 0.0
C2969 C 0.7939 0.23953 0.0401 0.0
C2970 C 0.78128 0.28585 0.04813 0.0
C2971 C 0.75747 0.25218 1.03384 0.0
H2972 H 0.75132 0.3645 0.03666 0.0
C2973 C 0.71948 0.31206 1.02148 0.0
C2974 C 0.71632 0.3452 1.03127 0.0
C2975 C 0.72884 0.29868 1.02283 0.0
C2976 C 0.75287 0.33294 0.03611 0.0
H2977 H 0.78999 0.19637 1.02006 0.0
H2978 H 0.77376 0.22052 1.01659 0.0
H2979 H 0.7678 0.34347 0.03737 0.0
H2980 H 0.72061 0.38946 0.05056 0.0
H2981 H 0.73685 0.36557 0.05326 0.0
H2982 H 0.74255 0.24161 1.03268 0.0
C2983 C 0.77836 0.23531 1.026 0.0
C2984 C 0.76236 0.32084 0.03645 0.0
C2985 C 0.78772 0.22176 1.0278 0.0
C2986 C 0.72274 0.3637 0.04291 0.0
C2987 C 0.73212 0.35031 0.04425 0.0
C2988 C 0.74798 0.26427 1.03353 0.0
C2989 C 0.77496 0.26721 0.03635 0.0
C2990 C 0.76482 0.28026 1.03535 0.0
C2991 C 0.73536 0.31792 1.03403 0.0
C2992 C 0.74551 0.30486 1.03468 0.0
H2993 H 0.79516 0.28683 0.05949 0.0
H2994 H 0.77896 0.31025 0.05644 0.0
H2995 H 0.75904 0.22063 1.03328 0.0
H2996 H 0.71473 0.29671 1.01252 0.0
H2997 H 0.73102 0.27388 1.01463 0.0
C2998 C 0.97146 0.26713 0.7687 0.0
C2999 C 0.96804 0.23603 0.77962 0.0
C3000 C 0.98079 0.2808 0.77026 0.0
C3001 C 1.0013 0.28303 0.8011 0.0
H3002 H 0.0156 0.30805 0.75842 0.0
C3003 C 0.03714 0.36518 0.80415 0.0
C3004 C 0.04455 0.3522 0.79306 0.0
C3005 C 0.02796 0.35038 0.80218 0.0
C3006 C 0.01174 0.30094 0.77047 0.0
H3007 H 0.97196 0.1952 0.80085 0.0
H3008 H 0.98813 0.21943 0.80374 0.0
H3009 H 0.99938 0.28359 0.7559 0.0
H3010 H 0.04789 0.31381 0.77081 0.0
H3011 H 0.03178 0.28819 0.76724 0.0
H3012 H 0.01365 0.30014 0.81568 0.0
C3013 C 0.98354 0.23345 0.79401 0.0
C3014 C 1.00238 0.28732 0.76904 0.0
C3015 C 0.97422 0.21962 0.7924 0.0
C3016 C 0.0424 0.32464 0.77957 0.0
C3017 C 0.03315 0.30993 0.77753 0.0
C3018 C 0.01062 0.2969 0.80253 0.0
C3019 C 0.987 0.264 0.78286 0.0
C3020 C 0.99701 0.27826 0.78434 0.0
C3021 C 0.02582 0.32231 0.78895 0.0
C3022 C 0.01597 0.30625 0.78726 0.0
H3023 H 0.9669 0.28107 0.75891 0.0
H3024 H 0.98312 0.30486 0.76165 0.0
H3025 H 0.9974 0.27668 0.81319 0.0
H3026 H 0.0384 0.38724 0.81435 0.0
H3027 H 0.02248 0.36141 0.81095 0.0
C3028 C 0.79132 0.55853 0.77273 0.0
C3029 C 0.79429 0.59247 0.78216 0.0
C3030 C 0.78202 0.54442 0.77413 0.0
C3031 C 0.75778 0.57723 0.7867 0.0
H3032 H 0.75221 0.46426 0.78458 0.0
C3033 C 0.72023 0.51295 0.79951 0.0
C3034 C 0.71725 0.47966 0.78964 0.0
C3035 C 0.72947 0.52764 0.79798 0.0
C3036 C 0.75361 0.49597 0.78494 0.0
H3037 H 0.78975 0.63733 0.80096 0.0
H3038 H 0.7736 0.61217 0.80377 0.0
H3039 H 0.76858 0.48671 0.78435 0.0
H3040 H 0.72168 0.43652 0.76998 0.0
H3041 H 0.73777 0.46247 0.76707 0.0
H3042 H 0.7428 0.5864 0.7874 0.0
C3043 C 0.77844 0.59686 0.79498 0.0
C3044 C 0.76304 0.50891 0.78484 0.0
C3045 C 0.78776 0.611 0.79358 0.0
C3046 C 0.72369 0.46236 0.77769 0.0
C3047 C 0.73297 0.47695 0.77621 0.0
C3048 C 0.74835 0.56427 0.78684 0.0
C3049 C 0.77538 0.56368 0.78506 0.0
C3050 C 0.76529 0.54976 0.7857 0.0
C3051 C 0.73604 0.50942 0.78656 0.0
C3052 C 0.74611 0.52343 0.78594 0.0
H3053 H 0.79615 0.54315 0.76395 0.0
H3054 H 0.77999 0.51904 0.76616 0.0
H3055 H 0.75918 0.60894 0.78704 0.0
H3056 H 0.71544 0.52721 0.80876 0.0
H3057 H 0.73154 0.55248 0.80625 0.0
C3058 C 0.97446 0.11216 0.52699 0.0
C3059 C 0.96833 0.09593 0.53988 0.0
C3060 C 0.98378 0.09812 0.52528 0.0
C3061 C 0.99979 1.01343 0.53798 0.0
H3062 H 0.01966 0.09088 0.5298 0.0
C3063 C 0.03951 0.97124 0.54452 0.0
C3064 C 0.04576 0.98675 0.53165 0.0
C3065 C 0.03015 0.98504 0.54566 0.0
C3066 C 0.01421 0.0687 0.53192 0.0
H3067 H 0.96716 0.05069 0.56047 0.0
H3068 H 0.98331 1.02675 0.55769 0.0
H3069 H 1.00322 0.11256 0.53053 0.0
H3070 H 0.04705 1.03029 0.51037 0.0
H3071 H 0.03081 0.05401 0.51226 0.0
H3072 H 0.01079 0.96961 0.53945 0.0
C3073 C 0.98097 0.05023 0.54879 0.0
C3074 C 1.00474 0.08117 0.53229 0.0
C3075 C 0.97168 0.06426 0.55051 0.0
C3076 C 0.04245 1.01733 0.52035 0.0
C3077 C 0.03312 1.03122 0.52154 0.0
C3078 C 0.00927 1.00098 0.53765 0.0
C3079 C 0.98724 0.06732 0.53635 0.0
C3080 C 0.99736 0.05376 0.53536 0.0
C3081 C 0.02677 1.01492 0.53404 0.0
C3082 C 0.01664 1.02841 0.53464 0.0
H3083 H 0.97218 0.13673 0.51865 0.0
H3084 H 0.98831 0.11169 0.51533 0.0
H3085 H 0.99436 0.9912 0.54009 0.0
H3086 H 0.04175 0.94746 0.55335 0.0
H3087 H 0.02555 0.97209 0.55565 0.0
C3088 C 0.29375 0.251 0.5306 0.0
C3089 C 0.29567 0.22113 0.5433 0.0
C3090 C 0.28465 0.26759 0.52912 0.0
C3091 C 0.25936 0.24898 0.54104 0.0
H3092 H 0.25674 0.36281 0.53382 0.0
C3093 C 0.22275 0.32815 0.54479 0.0
C3094 C 0.22097 0.35792 0.53197 0.0
C3095 C 0.23186 0.31193 0.54677 0.0
C3096 C 0.25731 0.33089 0.53566 0.0
H3097 H 0.28932 0.18424 0.56388 0.0
H3098 H 0.27365 0.21331 0.56151 0.0
H3099 H 0.27244 0.33319 0.53512 0.0
H3100 H 0.22756 0.39519 0.51181 0.0
H3101 H 0.24324 0.36674 0.51502 0.0
H3102 H 0.24422 0.24664 0.54152 0.0
C3103 C 0.27912 0.22405 0.55263 0.0
C3104 C 0.26635 0.31385 0.53637 0.0
C3105 C 0.28818 0.20765 0.55413 0.0
C3106 C 0.2286 0.37185 0.52163 0.0
C3107 C 0.23767 0.3558 0.52362 0.0
C3108 C 0.25031 0.26602 0.54031 0.0
C3109 C 0.27721 0.25448 0.5402 0.0
C3110 C 0.26753 0.27261 0.53906 0.0
C3111 C 0.23945 0.32531 0.53609 0.0
C3112 C 0.24913 0.30724 0.53756 0.0
H3113 H 0.29933 0.26215 0.52204 0.0
H3114 H 0.28345 0.2906 0.51923 0.0
H3115 H 0.25994 0.21706 0.54288 0.0
H3116 H 0.21706 0.31668 0.55297 0.0
H3117 H 0.23296 0.28889 0.55669 0.0
C3118 C 0.29202 0.11369 0.79371 0.0
C3119 C 0.29846 0.09511 0.78213 0.0
C3120 C 0.28264 0.10015 0.79509 0.0
C3121 C 0.26682 1.01379 0.78429 0.0
H3122 H 0.24696 0.0927 0.78833 0.0
C3123 C 0.22707 0.97131 0.77812 0.0
C3124 C 0.2209 0.98855 0.79059 0.0
C3125 C 0.23643 0.98493 0.77641 0.0
C3126 C 0.25241 0.07016 0.78734 0.0
H3127 H 0.30008 0.04628 0.76357 0.0
H3128 H 0.28382 1.02333 0.76568 0.0
H3129 H 0.26343 0.11393 0.78772 0.0
H3130 H 0.21966 1.03494 0.81043 0.0
H3131 H 0.23587 0.05857 0.80748 0.0
H3132 H 0.25577 0.97005 0.78382 0.0
C3133 C 0.28597 0.04826 0.77383 0.0
C3134 C 0.2619 0.08237 0.78707 0.0
C3135 C 0.29532 0.06174 0.77247 0.0
C3136 C 0.22423 1.02077 0.80076 0.0
C3137 C 0.23353 1.03452 0.79898 0.0
C3138 C 0.25733 1.0016 0.7845 0.0
C3139 C 0.27943 0.06758 0.78495 0.0
C3140 C 0.26927 0.05439 0.78557 0.0
C3141 C 0.23984 1.01641 0.78701 0.0
C3142 C 0.24997 1.02958 0.78608 0.0
H3143 H 0.29412 0.1396 0.80128 0.0
H3144 H 0.2779 0.11548 0.80405 0.0
H3145 H 0.27225 0.99118 0.78339 0.0
H3146 H 0.22477 0.94629 0.77016 0.0
H3147 H 0.24102 0.97055 0.76687 0.0
C3148 C 0.72284 0.85364 0.5466 0.0
C3149 C 0.71668 0.83832 0.53361 0.0
C3150 C 0.7322 0.83984 0.54795 0.0
C3151 C 0.75079 0.78797 0.52129 0.0
H3152 H 0.7635 0.77756 0.56675 0.0
C3153 C 0.78789 0.71394 0.5286 0.0
C3154 C 0.79413 0.72923 0.54146 0.0
C3155 C 0.77856 0.72811 0.52729 0.0
C3156 C 0.76012 0.78076 0.55389 0.0
H3157 H 0.71548 0.79476 0.51252 0.0
H3158 H 0.73164 0.77051 0.51498 0.0
H3159 H 0.74707 0.79921 0.56579 0.0
H3160 H 0.79549 0.7731 0.5624 0.0
H3161 H 0.77936 0.79791 0.56003 0.0
H3162 H 0.76383 0.76945 0.5094 0.0
C3163 C 0.72937 0.79398 0.52385 0.0
C3164 C 0.75065 0.7932 0.55335 0.0
C3165 C 0.72004 0.80778 0.52249 0.0
C3166 C 0.79086 0.76009 0.55252 0.0
C3167 C 0.78156 0.77423 0.55122 0.0
C3168 C 0.76025 0.7755 0.52184 0.0
C3169 C 0.73566 0.81025 0.53637 0.0
C3170 C 0.74581 0.79695 0.53704 0.0
C3171 C 0.7752 0.75803 0.53879 0.0
C3172 C 0.76508 0.77168 0.53814 0.0
H3173 H 0.72056 0.87747 0.55526 0.0
H3174 H 0.73681 0.85342 0.55768 0.0
H3175 H 0.74741 0.79117 0.50843 0.0
H3176 H 0.79008 0.68983 0.52001 0.0
H3177 H 0.77389 0.71456 0.51764 0.0
C3178 C 0.72786 0.96419 0.30626 0.0
C3179 C 0.72043 0.97756 0.29524 0.0
C3180 C 0.73701 0.97964 0.30451 0.0
C3181 C 0.7529 1.03378 0.27321 0.0
H3182 H 0.76753 0.05447 0.31583 0.0
C3183 C 0.78879 0.11643 0.27002 0.0
C3184 C 0.79615 0.1039 0.28137 0.0
C3185 C 0.77961 0.10141 0.27196 0.0
C3186 C 0.76362 0.04843 0.30375 0.0
H3187 H 0.71701 1.01767 0.27349 0.0
H3188 H 0.733 0.04454 0.27035 0.0
H3189 H 0.75155 1.0279 0.31841 0.0
H3190 H 0.79947 0.06592 0.3039 0.0
H3191 H 0.78345 0.0394 0.30725 0.0
H3192 H 0.76497 0.05405 0.25853 0.0
C3193 C 0.73172 1.02182 0.28035 0.0
C3194 C 0.75441 1.03319 0.30524 0.0
C3195 C 0.72252 1.00638 0.28214 0.0
C3196 C 0.79399 0.07644 0.29499 0.0
C3197 C 0.78477 0.06126 0.2969 0.0
C3198 C 0.76212 0.04893 0.27172 0.0
C3199 C 0.73909 1.00888 0.29161 0.0
C3200 C 0.7489 1.02561 0.28999 0.0
C3201 C 0.77745 0.07327 0.28531 0.0
C3202 C 0.76763 0.05659 0.28697 0.0
H3203 H 0.72663 0.94132 0.31622 0.0
H3204 H 0.7425 0.96819 0.31317 0.0
H3205 H 0.74897 1.02778 0.26114 0.0
H3206 H 0.79011 0.13822 0.25964 0.0
H3207 H 0.77417 0.11227 0.26304 0.0
C3208 C 0.47123 0.55323 0.54902 0.0
C3209 C 0.46798 0.58657 0.53934 0.0
C3210 C 0.48055 0.53964 0.54725 0.0
C3211 C 0.50449 0.57306 0.5327 0.0
H3212 H 0.51036 0.4604 0.5355 0.0
C3213 C 0.54222 0.51098 0.51922 0.0
C3214 C 0.5454 0.47827 0.5294 0.0
C3215 C 0.53288 0.52473 0.52065 0.0
C3216 C 0.50888 0.49204 0.53493 0.0
H3217 H 0.47209 0.63106 0.51981 0.0
H3218 H 0.48827 0.60684 0.51639 0.0
H3219 H 0.49395 0.48219 0.53667 0.0
H3220 H 0.54115 0.43493 0.54934 0.0
H3221 H 0.52496 0.45932 0.55209 0.0
H3222 H 0.51943 0.58284 0.53092 0.0
C3223 C 0.48363 0.59155 0.52563 0.0
C3224 C 0.49943 0.5046 0.53557 0.0
C3225 C 0.47429 0.60515 0.5274 0.0
C3226 C 0.53902 0.46038 0.54139 0.0
C3227 C 0.52966 0.47407 0.54278 0.0
C3228 C 0.51395 0.56048 0.53203 0.0
C3229 C 0.48696 0.55885 0.5357 0.0
C3230 C 0.49707 0.54533 0.53451 0.0
C3231 C 0.52642 0.50619 0.53229 0.0
C3232 C 0.5163 0.51976 0.53318 0.0
H3233 H 0.46659 0.53781 0.55821 0.0
H3234 H 0.4828 0.51463 0.55536 0.0
H3235 H 0.50302 0.60469 0.53216 0.0
H3236 H 0.54693 0.52581 0.50996 0.0
H3237 H 0.53068 0.54932 0.51224 0.0
C3238 C 0.54152 0.80727 0.80428 0.0
C3239 C 0.5446 0.83894 0.79333 0.0
C3240 C 0.53226 0.79258 0.80312 0.0
C3241 C 0.51149 0.7877 0.7731 0.0
H3242 H 0.49777 0.76071 0.81622 0.0
C3243 C 0.47652 0.6997 0.77087 0.0
C3244 C 0.46895 0.7124 0.78165 0.0
C3245 C 0.48559 0.71551 0.77293 0.0
C3246 C 0.50147 0.76833 0.80406 0.0
H3247 H 0.54015 0.87964 0.77243 0.0
H3248 H 0.52411 0.85352 0.77017 0.0
H3249 H 0.5138 0.78771 0.81824 0.0
H3250 H 0.46525 0.75083 0.80367 0.0
H3251 H 0.48121 0.7782 0.80746 0.0
H3252 H 0.4992 0.76843 0.75891 0.0
C3253 C 0.5289 0.83994 0.77965 0.0
C3254 C 0.51071 0.78345 0.80519 0.0
C3255 C 0.53815 0.85485 0.7809 0.0
C3256 C 0.47087 0.74028 0.79513 0.0
C3257 C 0.48003 0.75602 0.79728 0.0
C3258 C 0.5023 0.7723 0.77197 0.0
C3259 C 0.52579 0.80882 0.79086 0.0
C3260 C 0.51587 0.79323 0.78972 0.0
C3261 C 0.48748 0.74433 0.78597 0.0
C3262 C 0.49717 0.76216 0.78741 0.0
H3263 H 0.54629 0.79363 0.8138 0.0
H3264 H 0.5302 0.76811 0.81174 0.0
H3265 H 0.51523 0.7946 0.76089 0.0
H3266 H 0.47543 0.67741 0.7607 0.0
H3267 H 0.49117 0.70494 0.76429 0.0
C3268 C 0.54065 0.30312 0.30185 0.0
C3269 C 0.54411 0.33404 0.29091 0.0
C3270 C 0.53131 0.28964 0.30025 0.0
C3271 C 0.51026 0.29133 0.27016 0.0
H3272 H 0.49665 0.26535 0.3135 0.0
C3273 C 0.46988 0.26254 0.26995 0.0
C3274 C 0.46643 0.23074 0.28039 0.0
C3275 C 0.47926 0.2755 0.27156 0.0
C3276 C 0.50035 0.27207 0.30123 0.0
H3277 H 0.54037 0.37453 0.26948 0.0
H3278 H 0.52411 0.35116 0.26668 0.0
H3279 H 0.51314 0.28599 0.31513 0.0
H3280 H 0.47023 0.18827 0.30102 0.0
H3281 H 0.48654 0.21108 0.30394 0.0
H3282 H 0.49745 0.27761 0.25627 0.0
C3283 C 0.52866 0.33687 0.27639 0.0
C3284 C 0.50986 0.28387 0.30216 0.0
C3285 C 0.53802 0.35029 0.27796 0.0
C3286 C 0.47257 0.21316 0.29291 0.0
C3287 C 0.48196 0.22621 0.29455 0.0
C3288 C 0.50075 0.27962 0.26924 0.0
C3289 C 0.52511 0.3067 0.28768 0.0
C3290 C 0.51497 0.29369 0.28663 0.0
C3291 C 0.48549 0.25719 0.2837 0.0
C3292 C 0.49564 0.26984 0.28476 0.0
H3293 H 0.54516 0.28949 0.3118 0.0
H3294 H 0.52895 0.26577 0.30892 0.0
H3295 H 0.51395 0.29796 0.25787 0.0
H3296 H 0.46534 0.27734 0.26038 0.0
H3297 H 0.48163 0.29999 0.26325 0.0
C3298 C 0.4762 0.09714 1.02965 0.0
C3299 C 0.46993 0.08177 0.0425 0.0
C3300 C 0.4855 0.08288 1.02841 0.0
C3301 C 0.50388 1.0289 0.05479 0.0
H3302 H 0.5164 1.02023 1.0091 0.0
C3303 C 0.54096 0.95512 0.04584 0.0
C3304 C 0.54707 0.97172 1.03302 0.0
C3305 C 0.53165 0.96914 0.04768 0.0
C3306 C 0.51307 1.02292 1.02202 0.0
H3307 H 0.4685 1.03798 0.06364 0.0
H3308 H 0.48462 1.01282 0.06135 0.0
H3309 H 0.5 0.04188 1.01038 0.0
H3310 H 0.54829 1.01784 1.01284 0.0
H3311 H 0.53219 0.04233 1.01609 0.0
H3312 H 0.51698 1.00969 0.06639 0.0
C3313 C 0.48244 1.03662 0.05247 0.0
C3314 C 0.50362 1.03537 1.02275 0.0
C3315 C 0.47315 0.05093 0.05373 0.0
C3316 C 0.54375 1.00383 1.02264 0.0
C3317 C 0.53447 1.01778 1.02445 0.0
C3318 C 0.51334 1.01634 0.05405 0.0
C3319 C 0.48881 0.05272 0.03995 0.0
C3320 C 0.49887 1.03869 0.03915 0.0
C3321 C 0.52821 1.00014 0.03673 0.0
C3322 C 0.51809 1.01333 0.03765 0.0
H3323 H 0.47404 0.12132 1.02096 0.0
H3324 H 0.49018 0.09648 1.01873 0.0
H3325 H 0.50056 1.03165 0.06771 0.0
H3326 H 0.54323 0.9301 0.05394 0.0
H3327 H 0.52705 0.95462 0.05721 0.0
C3328 C 0.06936 0.54398 0.12043 0.0
C3329 C 0.07543 0.51583 0.12829 0.0
C3330 C 0.06739 0.57998 0.12903 0.0
C3331 C 0.06982 0.63246 0.17264 0.0
H3332 H 0.07083 0.72711 0.14294 0.0
C3333 C 0.08044 0.80764 0.1798 0.0
C3334 C 0.07626 0.81659 0.19627 0.0
C3335 C 0.07835 0.77204 0.1711 0.0
C3336 C 0.07055 0.70101 0.15145 0.0
H3337 H 0.08391 0.50279 0.15167 0.0
H3338 H 0.08067 0.56545 0.16641 0.0
H3339 H 0.07091 0.66171 0.12915 0.0
H3340 H 0.06625 0.79592 0.21613 0.0
H3341 H 0.06246 0.73395 0.20076 0.0
H3342 H 0.07004 0.67171 0.19497 0.0
C3343 C 0.07727 0.55972 0.15376 0.0
C3344 C 0.07046 0.6634 0.14352 0.0
C3345 C 0.07919 0.52376 0.14522 0.0
C3346 C 0.06963 0.78983 0.2035 0.0
C3347 C 0.06751 0.75417 0.19474 0.0
C3348 C 0.06997 0.67007 0.18058 0.0
C3349 C 0.07148 0.58866 0.14566 0.0
C3350 C 0.07032 0.62858 0.15402 0.0
C3351 C 0.07198 0.74447 0.17858 0.0
C3352 C 0.07057 0.70483 0.1701 0.0
H3353 H 0.06631 0.5387 0.10742 0.0
H3354 H 0.06278 0.60127 0.12252 0.0
H3355 H 0.06953 0.60636 0.18116 0.0
H3356 H 0.08558 0.82755 0.17384 0.0
H3357 H 0.08206 0.76547 0.15885 0.0
C3358 C 0.17275 0.52446 0.18254 0.0
C3359 C 0.17809 0.51658 0.19794 0.0
C3360 C 0.17376 0.56061 0.17335 0.0
C3361 C 0.1807 0.66484 0.18041 0.0
H3362 H 0.18047 0.67091 0.12884 0.0
C3363 C 0.17256 0.81003 0.14132 0.0
C3364 C 0.17785 0.8181 0.12586 0.0
C3365 C 0.17362 0.77384 0.15044 0.0
C3366 C 0.18063 0.66974 0.14325 0.0
H3367 H 0.18884 0.54034 0.21552 0.0
H3368 H 0.19057 0.60346 0.19951 0.0
H3369 H 0.1806 0.60585 0.14359 0.0
H3370 H 0.18855 0.7946 0.1081 0.0
H3371 H 0.19036 0.73138 0.12402 0.0
H3372 H 0.18061 0.72872 0.18007 0.0
C3373 C 0.18557 0.58168 0.19459 0.0
C3374 C 0.18062 0.63245 0.1517 0.0
C3375 C 0.18463 0.54535 0.20369 0.0
C3376 C 0.18438 0.78944 0.11998 0.0
C3377 C 0.18537 0.75306 0.12902 0.0
C3378 C 0.18062 0.70212 0.17196 0.0
C3379 C 0.18006 0.58994 0.17943 0.0
C3380 C 0.18059 0.62953 0.17039 0.0
C3381 C 0.17993 0.74464 0.14425 0.0
C3382 C 0.18052 0.70504 0.15327 0.0
H3383 H 0.16764 0.50302 0.17775 0.0
H3384 H 0.16935 0.56612 0.16181 0.0
H3385 H 0.18059 0.66367 0.19482 0.0
H3386 H 0.16745 0.83137 0.1462 0.0
H3387 H 0.16925 0.76819 0.16203 0.0
C3388 C 0.94331 0.57353 0.92569 0.0
C3389 C 0.94264 0.57291 0.94436 0.0
C3390 C 0.94461 0.53811 0.91622 0.0
C3391 C 0.9507 0.43023 0.92178 0.0
H3392 H 0.93531 0.41801 0.87946 0.0
C3393 C 0.93987 0.27744 0.89295 0.0
C3394 C 0.93981 0.27316 0.87435 0.0
C3395 C 0.94174 0.31449 0.90066 0.0
C3396 C 0.93976 0.4211 0.8911 0.0
H3397 H 0.94313 0.5347 0.96774 0.0
H3398 H 0.94517 0.47328 0.95132 0.0
H3399 H 0.93597 0.4823 0.89427 0.0
H3400 H 0.94194 0.30427 0.84926 0.0
H3401 H 0.94514 0.36887 0.86274 0.0
H3402 H 0.95416 0.36841 0.91892 0.0
C3403 C 0.94488 0.501 0.94392 0.0
C3404 C 0.94017 0.45805 0.89959 0.0
C3405 C 0.94365 0.53635 0.95337 0.0
C3406 C 0.94192 0.3065 0.86364 0.0
C3407 C 0.94371 0.34359 0.87134 0.0
C3408 C 0.95022 0.39318 0.91338 0.0
C3409 C 0.9452 0.50126 0.9252 0.0
C3410 C 0.94553 0.46299 0.9152 0.0
C3411 C 0.94351 0.34811 0.88993 0.0
C3412 C 0.94464 0.38808 0.89809 0.0
H3413 H 0.94259 0.6012 0.91834 0.0
H3414 H 0.94498 0.53958 0.90183 0.0
H3415 H 0.95505 0.43305 0.93356 0.0
H3416 H 0.93827 0.25239 0.90159 0.0
H3417 H 0.94145 0.3171 0.91502 0.0
C3418 C 0.83016 0.26768 0.9279 0.0
C3419 C 0.82941 0.26614 0.94652 0.0
C3420 C 0.82933 0.30402 0.9188 0.0
C3421 C 0.82264 0.41175 0.925 0.0
H3422 H 0.8382 0.42579 0.88294 0.0
C3423 C 0.83324 0.56453 0.89317 0.0
C3424 C 0.83156 0.56797 0.87478 0.0
C3425 C 0.83196 0.52796 0.90193 0.0
C3426 C 0.83377 0.42217 0.89461 0.0
H3427 H 0.82715 0.30143 0.97022 0.0
H3428 H 0.82614 0.36476 0.95459 0.0
H3429 H 0.83791 0.36151 0.89804 0.0
H3430 H 0.82718 0.53579 0.85119 0.0
H3431 H 0.82523 0.47181 0.86643 0.0
H3432 H 0.81896 0.4735 0.92188 0.0
C3433 C 0.82701 0.338 0.94679 0.0
C3434 C 0.83353 0.38516 0.90324 0.0
C3435 C 0.82763 0.30155 0.95583 0.0
C3436 C 0.82847 0.53423 0.86539 0.0
C3437 C 0.8274 0.49755 0.87407 0.0
C3438 C 0.82306 0.44903 0.91657 0.0
C3439 C 0.82797 0.33994 0.92813 0.0
C3440 C 0.82795 0.37927 0.91859 0.0
C3441 C 0.8292 0.49399 0.89238 0.0
C3442 C 0.82862 0.45453 0.90129 0.0
H3443 H 0.83148 0.24082 0.92036 0.0
H3444 H 0.82985 0.30385 0.90442 0.0
H3445 H 0.81811 0.40849 0.93652 0.0
H3446 H 0.83564 0.58999 0.90074 0.0
H3447 H 0.83344 0.52589 0.91606 0.0
C3448 C 0.06988 0.32082 0.67734 0.0
C3449 C 0.07059 0.3212 0.696 0.0
C3450 C 0.06818 0.28516 0.66831 0.0
C3451 C 0.06121 0.17846 0.67483 0.0
H3452 H 0.07634 0.16325 0.63238 0.0
C3453 C 0.07064 1.02411 0.64527 0.0
C3454 C 0.07087 1.02066 0.62662 0.0
C3455 C 0.06888 0.06098 0.65324 0.0
C3456 C 0.07195 0.16718 0.64406 0.0
H3457 H 0.06971 0.28464 0.71984 0.0
H3458 H 0.06701 0.22253 0.70415 0.0
H3459 H 0.07638 0.22758 0.64706 0.0
H3460 H 0.06895 0.05287 0.60175 0.0
H3461 H 0.0659 0.11702 0.61567 0.0
H3462 H 0.05711 0.11723 0.67208 0.0
C3463 C 0.06757 0.24976 0.69643 0.0
C3464 C 0.07194 0.20418 0.65247 0.0
C3465 C 0.06917 0.28546 0.70546 0.0
C3466 C 0.06887 0.05446 0.61615 0.0
C3467 C 0.06717 0.09131 0.62411 0.0
C3468 C 0.06129 0.14126 0.66647 0.0
C3469 C 0.06726 0.24896 0.67771 0.0
C3470 C 0.06664 0.21029 0.66807 0.0
C3471 C 0.06737 0.09518 0.64273 0.0
C3472 C 0.06672 0.13515 0.65107 0.0
H3473 H 0.07087 0.34789 0.66966 0.0
H3474 H 0.06778 0.28589 0.65392 0.0
H3475 H 0.05692 0.18218 0.68665 0.0
H3476 H 0.07216 0.99867 0.65372 0.0
H3477 H 0.06914 0.06306 0.66762 0.0
C3478 C 0.18167 1.02438 0.67929 0.0
C3479 C 0.18352 1.02115 0.69763 0.0
C3480 C 0.1826 0.06108 0.67049 0.0
C3481 C 0.18009 0.16684 0.67803 0.0
H3482 H 0.1944 0.18153 0.63449 0.0
C3483 C 0.18181 0.32105 0.64347 0.0
C3484 C 0.18219 0.32214 0.6248 0.0
C3485 C 0.18293 0.28498 0.65271 0.0
C3486 C 0.19023 0.17798 0.64648 0.0
H3487 H 0.18788 0.05386 0.72108 0.0
H3488 H 0.18923 0.11811 0.70577 0.0
H3489 H 0.1945 0.11689 0.6495 0.0
H3490 H 0.18397 0.2862 0.60114 0.0
H3491 H 0.18547 0.22337 0.61703 0.0
H3492 H 0.17538 0.22684 0.67473 0.0
C3493 C 0.18719 0.09209 0.6982 0.0
C3494 C 0.19036 0.1409 0.65513 0.0
C3495 C 0.18648 0.05525 0.70691 0.0
C3496 C 0.18377 0.28646 0.61556 0.0
C3497 C 0.18469 0.25031 0.62475 0.0
C3498 C 0.17979 0.20364 0.6692 0.0
C3499 C 0.18517 0.09545 0.67994 0.0
C3500 C 0.18529 0.13499 0.67098 0.0
C3501 C 0.18424 0.24887 0.64348 0.0
C3502 C 0.18484 0.20985 0.65325 0.0
H3503 H 0.17936 0.99866 0.6718 0.0
H3504 H 0.18096 0.06291 0.65642 0.0
H3505 H 0.17603 0.16291 0.69013 0.0
H3506 H 0.18065 0.34811 0.65096 0.0
H3507 H 0.18276 0.28555 0.66711 0.0
C3508 C 0.93564 1.03877 0.45602 0.0
C3509 C 0.93103 0.07029 0.4472 0.0
C3510 C 0.93744 1.0029 0.44724 0.0
C3511 C 0.94072 0.95644 0.4039 0.0
H3512 H 0.93057 0.86134 0.42628 0.0
C3513 C 0.93814 0.80622 0.36656 0.0
C3514 C 0.93815 0.77047 0.37637 0.0
C3515 C 0.9384 0.84303 0.37523 0.0
C3516 C 0.93367 0.88726 0.41995 0.0
H3517 H 0.92499 0.08936 0.42205 0.0
H3518 H 0.9284 1.02686 0.40653 0.0
H3519 H 0.9291 0.92521 0.44114 0.0
H3520 H 0.93902 0.74518 0.40288 0.0
H3521 H 0.94005 0.80909 0.41799 0.0
H3522 H 0.94554 0.91868 0.38292 0.0
C3523 C 0.93052 1.02996 0.4203 0.0
C3524 C 0.93275 0.924 0.42846 0.0
C3525 C 0.92855 0.06563 0.4292 0.0
C3526 C 0.93894 0.77226 0.39497 0.0
C3527 C 0.93942 0.80905 0.40364 0.0
C3528 C 0.94183 0.91952 0.39551 0.0
C3529 C 0.93483 0.99801 0.42935 0.0
C3530 C 0.93618 0.95899 0.42046 0.0
C3531 C 0.93886 0.84508 0.39395 0.0
C3532 C 0.93824 0.88433 0.40332 0.0
H3533 H 0.9376 0.04126 0.46991 0.0
H3534 H 0.9408 0.97879 0.45449 0.0
H3535 H 0.9435 0.98298 0.39752 0.0
H3536 H 0.93741 0.80587 0.3522 0.0
H3537 H 0.93781 0.86978 0.36721 0.0
C3538 C 0.82791 0.77131 0.42972 0.0
C3539 C 0.82713 0.7673 0.4483 0.0
C3540 C 0.82623 0.80807 0.42145 0.0
C3541 C 0.82765 0.91441 0.43027 0.0
H3542 H 0.8131 0.92637 0.38685 0.0
C3543 C 0.82438 0.0675 0.39604 0.0
C3544 C 0.8251 0.06799 0.37739 0.0
C3545 C 0.82303 1.03158 0.40522 0.0
C3546 C 0.81727 0.92354 0.39888 0.0
H3547 H 0.82375 0.79853 0.47272 0.0
H3548 H 0.82094 0.86273 0.45828 0.0
H3549 H 0.8139 0.86148 0.40163 0.0
H3550 H 0.82466 1.0313 0.35371 0.0
H3551 H 0.82263 0.9688 0.36964 0.0
H3552 H 0.83141 0.97565 0.42725 0.0
C3553 C 0.82284 0.83741 0.45014 0.0
C3554 C 0.81768 0.88637 0.40736 0.0
C3555 C 0.8244 0.80057 0.45838 0.0
C3556 C 0.82408 1.03203 0.36808 0.0
C3557 C 0.82287 0.99608 0.37726 0.0
C3558 C 0.82734 0.9514 0.42169 0.0
C3559 C 0.82384 0.84164 0.43163 0.0
C3560 C 0.82293 0.88139 0.42307 0.0
C3561 C 0.82251 0.99522 0.39598 0.0
C3562 C 0.82221 0.95645 0.40578 0.0
H3563 H 0.82998 0.74623 0.42159 0.0
H3564 H 0.82712 0.81057 0.40717 0.0
H3565 H 0.83186 0.9113 0.44225 0.0
H3566 H 0.82506 0.09477 0.40359 0.0
H3567 H 0.82256 1.03229 0.4196 0.0
C3568 C 0.57202 0.50265 0.64502 0.0
C3569 C 0.57267 0.50308 0.62635 0.0
C3570 C 0.57095 0.53823 0.65447 0.0
C3571 C 0.56556 0.64691 0.64875 0.0
H3572 H 0.5803 0.65684 0.69201 0.0
C3573 C 0.57668 0.79792 0.67921 0.0
C3574 C 0.57605 0.80192 0.69779 0.0
C3575 C 0.57491 0.76121 0.67112 0.0
C3576 C 0.57604 0.65439 0.68007 0.0
H3577 H 0.57244 0.54124 0.60295 0.0
H3578 H 0.57084 0.60297 0.61932 0.0
H3579 H 0.57957 0.59294 0.67687 0.0
H3580 H 0.5729 0.77061 0.72243 0.0
H3581 H 0.56992 0.70641 0.70829 0.0
H3582 H 0.5624 0.70904 0.65166 0.0
C3583 C 0.57093 0.57526 0.62675 0.0
C3584 C 0.57558 0.61766 0.6714 0.0
C3585 C 0.57191 0.53972 0.61733 0.0
C3586 C 0.57342 0.76858 0.70807 0.0
C3587 C 0.57177 0.73175 0.7 0.0
C3588 C 0.56612 0.68376 0.65732 0.0
C3589 C 0.57059 0.57514 0.64548 0.0
C3590 C 0.57042 0.61348 0.65549 0.0
C3591 C 0.57258 0.72759 0.68146 0.0
C3592 C 0.57145 0.68798 0.67297 0.0
H3593 H 0.57256 0.47491 0.65239 0.0
H3594 H 0.57053 0.5368 0.66885 0.0
H3595 H 0.56136 0.64476 0.63675 0.0
H3596 H 0.57869 0.82302 0.67091 0.0
H3597 H 0.57566 0.75883 0.65681 0.0
C3598 C 0.68221 0.80053 0.64775 0.0
C3599 C 0.68553 0.80698 0.63033 0.0
C3600 C 0.6832 0.76331 0.65596 0.0
C3601 C 0.68524 0.6574 0.6445 0.0
H3602 H 0.68911 0.64446 0.6953 0.0
C3603 C 0.68724 0.5254 0.70222 0.0
C3604 C 0.67919 0.50324 0.69753 0.0
C3605 C 0.68946 0.56084 0.69323 0.0
C3606 C 0.68814 0.64739 0.68105 0.0
H3607 H 0.69294 0.7798 0.60822 0.0
H3608 H 0.69474 0.71481 0.62265 0.0
H3609 H 0.69094 0.71009 0.68167 0.0
H3610 H 0.66733 0.50038 0.67931 0.0
H3611 H 0.67115 0.56213 0.66373 0.0
H3612 H 0.68236 0.59476 0.64391 0.0
C3613 C 0.69126 0.7385 0.62985 0.0
C3614 C 0.6891 0.68514 0.67327 0.0
C3615 C 0.6903 0.77586 0.62165 0.0
C3616 C 0.67359 0.51663 0.68325 0.0
C3617 C 0.67582 0.552 0.67425 0.0
C3618 C 0.68426 0.61967 0.65229 0.0
C3619 C 0.68753 0.73151 0.64696 0.0
C3620 C 0.68751 0.69076 0.65494 0.0
C3621 C 0.68369 0.57492 0.67931 0.0
C3622 C 0.68555 0.61429 0.67072 0.0
H3623 H 0.6785 0.82382 0.65483 0.0
H3624 H 0.68017 0.75897 0.66907 0.0
H3625 H 0.68388 0.66066 0.63038 0.0
H3626 H 0.69173 0.51593 0.71312 0.0
H3627 H 0.69564 0.57745 0.69732 0.0
C3628 C 0.43728 0.26932 0.39361 0.0
C3629 C 0.43726 0.26554 0.37498 0.0
C3630 C 0.43792 0.30692 0.40152 0.0
C3631 C 0.43101 0.40916 0.39371 0.0
H3632 H 0.44798 0.43578 0.43235 0.0
C3633 C 0.42945 0.56414 0.42687 0.0
C3634 C 0.43117 0.56618 0.44525 0.0
C3635 C 0.43129 0.52902 0.41746 0.0
C3636 C 0.44308 0.42879 0.42176 0.0
H3637 H 0.4381 0.29824 0.35004 0.0
H3638 H 0.43899 0.36394 0.3639 0.0
H3639 H 0.44928 0.37108 0.41787 0.0
H3640 H 0.43617 0.53294 0.4682 0.0
H3641 H 0.43896 0.4715 0.45213 0.0
H3642 H 0.42442 0.46548 0.39805 0.0
C3643 C 0.43862 0.33772 0.37235 0.0
C3644 C 0.4439 0.39175 0.41338 0.0
C3645 C 0.43818 0.30008 0.36444 0.0
C3646 C 0.43487 0.53252 0.45399 0.0
C3647 C 0.43653 0.4972 0.44468 0.0
C3648 C 0.43005 0.44585 0.4023 0.0
C3649 C 0.43834 0.34155 0.39096 0.0
C3650 C 0.43785 0.38153 0.39931 0.0
C3651 C 0.43471 0.49473 0.42627 0.0
C3652 C 0.43604 0.45624 0.41654 0.0
H3653 H 0.43655 0.24327 0.40207 0.0
H3654 H 0.43765 0.30905 0.4159 0.0
H3655 H 0.42617 0.40182 0.38304 0.0
H3656 H 0.42665 0.58967 0.41974 0.0
H3657 H 0.42999 0.52887 0.40326 0.0
C3658 C 0.32339 0.52628 0.36635 0.0
C3659 C 0.32581 0.55991 0.37647 0.0
C3660 C 0.32206 0.48924 0.37458 0.0
C3661 C 0.31747 0.43857 0.41732 0.0
H3662 H 0.33253 0.35334 0.39731 0.0
C3663 C 0.32527 0.29292 0.456 0.0
C3664 C 0.32663 0.25749 0.44645 0.0
C3665 C 0.3239 0.32911 0.44706 0.0
C3666 C 0.3281 0.3764 0.40292 0.0
H3667 H 0.32821 0.58146 0.40326 0.0
H3668 H 0.32571 0.51681 0.41765 0.0
H3669 H 0.33204 0.41782 0.38247 0.0
H3670 H 0.32718 0.23191 0.42005 0.0
H3671 H 0.32443 0.29464 0.40443 0.0
H3672 H 0.31345 0.39718 0.43772 0.0
C3673 C 0.32491 0.51914 0.40334 0.0
C3674 C 0.32786 0.41349 0.39441 0.0
C3675 C 0.32637 0.55612 0.39509 0.0
C3676 C 0.32623 0.25876 0.42778 0.0
C3677 C 0.32472 0.29486 0.41883 0.0
C3678 C 0.3176 0.40125 0.42574 0.0
C3679 C 0.32299 0.48512 0.39312 0.0
C3680 C 0.32263 0.4451 0.40161 0.0
C3681 C 0.32373 0.33071 0.42833 0.0
C3682 C 0.32302 0.36975 0.41878 0.0
H3683 H 0.32292 0.52811 0.35198 0.0
H3684 H 0.32049 0.46359 0.36639 0.0
H3685 H 0.31331 0.46234 0.42309 0.0
H3686 H 0.32561 0.29303 0.47041 0.0
H3687 H 0.32331 0.356 0.45488 0.0
C3688 C 0.57553 1.01956 0.12101 0.0
C3689 C 0.58344 0.99672 0.12598 0.0
C3690 C 0.57324 0.05443 0.13022 0.0
C3691 C 0.57804 0.11018 0.17204 0.0
H3692 H 0.5718 0.20272 0.14327 0.0
C3693 C 0.58028 0.29096 0.17787 0.0
C3694 C 0.57687 0.29656 0.19525 0.0
C3695 C 0.57937 0.2541 0.16947 0.0
C3696 C 0.57353 0.17718 0.15151 0.0
H3697 H 0.59496 0.99201 0.14492 0.0
H3698 H 0.59103 0.05275 0.16083 0.0
H3699 H 0.57362 0.13799 0.12913 0.0
H3700 H 0.56943 0.26819 0.21715 0.0
H3701 H 0.56775 0.20382 0.20239 0.0
H3702 H 0.57836 0.14971 0.19431 0.0
C3703 C 0.58652 0.04361 0.14995 0.0
C3704 C 0.57447 0.13992 0.14343 0.0
C3705 C 0.58881 1.00881 0.14074 0.0
C3706 C 0.57215 0.26489 0.20376 0.0
C3707 C 0.57126 0.22789 0.19535 0.0
C3708 C 0.57709 0.14745 0.18013 0.0
C3709 C 0.5788 0.06723 0.14464 0.0
C3710 C 0.5769 0.10606 0.15354 0.0
C3711 C 0.57502 0.22182 0.17823 0.0
C3712 C 0.575 0.18156 0.16992 0.0
H3713 H 0.57122 1.01106 0.10973 0.0
H3714 H 0.56717 0.07158 0.12593 0.0
H3715 H 0.5798 0.08466 0.18028 0.0
H3716 H 0.58396 0.31469 0.17092 0.0
H3717 H 0.58245 0.25048 0.15638 0.0
C3718 C 0.6794 0.31609 0.14458 0.0
C3719 C 0.68197 0.32073 0.12663 0.0
C3720 C 0.68145 0.28075 0.15377 0.0
C3721 C 0.69552 0.18618 0.15113 0.0
H3722 H 0.67691 0.14966 0.18541 0.0
C3723 C 0.69387 1.02528 0.18125 0.0
C3724 C 0.69214 1.02267 0.19967 0.0
C3725 C 0.6936 0.06225 0.17246 0.0
C3726 C 0.68222 0.15962 0.17599 0.0
H3727 H 0.68881 0.292 0.10429 0.0
H3728 H 0.69211 0.22998 0.12006 0.0
H3729 H 0.6745 0.21259 0.16993 0.0
H3730 H 0.68905 0.05725 0.22334 0.0
H3731 H 0.6885 0.12125 0.208 0.0
H3732 H 0.70303 0.13201 0.15691 0.0
C3733 C 0.68873 0.25391 0.12728 0.0
C3734 C 0.68087 0.19592 0.16714 0.0
C3735 C 0.6868 0.28952 0.11817 0.0
C3736 C 0.69044 0.058 0.20916 0.0
C3737 C 0.69005 0.09475 0.20036 0.0
C3738 C 0.69679 0.1495 0.15983 0.0
C3739 C 0.68598 0.24878 0.14517 0.0
C3740 C 0.68752 0.20995 0.15464 0.0
C3741 C 0.69146 0.09724 0.18188 0.0
C3742 C 0.69018 0.13597 0.17244 0.0
H3743 H 0.67573 0.33968 0.15153 0.0
H3744 H 0.67942 0.27853 0.16763 0.0
H3745 H 0.70087 0.19605 0.14181 0.0
H3746 H 0.69516 0.99867 0.17352 0.0
H3747 H 0.69468 0.06326 0.15819 0.0
C3748 C 0.44172 0.04285 0.92763 0.0
C3749 C 0.44135 0.04556 0.9463 0.0
C3750 C 0.44191 1.0056 0.9193 0.0
C3751 C 0.43363 0.90409 0.92602 0.0
H3752 H 0.45054 0.87601 0.8875 0.0
C3753 C 0.43164 0.74895 0.89347 0.0
C3754 C 0.43319 0.74652 0.87504 0.0
C3755 C 0.43362 0.78416 0.90268 0.0
C3756 C 0.44566 0.88347 0.89806 0.0
H3757 H 0.44114 1.01116 0.97084 0.0
H3758 H 0.44131 0.94634 0.95626 0.0
H3759 H 0.45226 0.9403 0.90224 0.0
H3760 H 0.43808 0.77912 0.85182 0.0
H3761 H 0.44118 0.84079 0.86763 0.0
H3762 H 0.42672 0.84852 0.9215 0.0
C3763 C 0.4415 0.97305 0.94811 0.0
C3764 C 0.4467 0.92028 0.90657 0.0
C3765 C 0.44147 1.01022 0.95644 0.0
C3766 C 0.4369 0.77987 0.86607 0.0
C3767 C 0.43872 0.81529 0.8752 0.0
C3768 C 0.43248 0.86764 0.91735 0.0
C3769 C 0.44157 0.97033 0.92945 0.0
C3770 C 0.4407 0.93093 0.92064 0.0
C3771 C 0.43702 0.81815 0.89363 0.0
C3772 C 0.43847 0.8567 0.90322 0.0
H3773 H 0.4416 0.06949 0.91943 0.0
H3774 H 0.44191 1.00438 0.90489 0.0
H3775 H 0.4288 0.91178 0.93666 0.0
H3776 H 0.42885 0.72368 0.90079 0.0
H3777 H 0.43242 0.78466 0.91691 0.0
C3778 C 0.32804 1.03654 0.86609 0.0
C3779 C 0.33246 0.06756 0.87547 0.0
C3780 C 0.32599 1.00032 0.87452 0.0
C3781 C 0.32182 0.95258 0.91767 0.0
H3782 H 0.33194 0.8575 0.89564 0.0
C3783 C 0.32442 0.80315 0.95569 0.0
C3784 C 0.32415 0.76716 0.94622 0.0
C3785 C 0.32424 0.83973 0.94672 0.0
C3786 C 0.32886 0.88346 0.90185 0.0
H3787 H 0.33787 0.08537 0.90122 0.0
H3788 H 0.33404 1.0223 0.9161 0.0
H3789 H 0.33366 0.92167 0.88075 0.0
H3790 H 0.32303 0.74139 0.91991 0.0
H3791 H 0.32224 0.80513 0.90427 0.0
H3792 H 0.31682 0.91465 0.93859 0.0
C3793 C 0.33225 1.02604 0.90217 0.0
C3794 C 0.32991 0.92034 0.89332 0.0
C3795 C 0.33447 0.06205 0.89364 0.0
C3796 C 0.32327 0.7686 0.9276 0.0
C3797 C 0.32293 0.80525 0.91862 0.0
C3798 C 0.3206 0.9156 0.92606 0.0
C3799 C 0.32814 0.99459 0.8926 0.0
C3800 C 0.32651 0.95532 0.90125 0.0
C3801 C 0.32363 0.8414 0.92802 0.0
C3802 C 0.32423 0.8805 0.91842 0.0
H3803 H 0.32644 0.03972 0.85205 0.0
H3804 H 0.32277 0.97662 0.86688 0.0
H3805 H 0.31904 0.97908 0.92398 0.0
H3806 H 0.32521 0.8032 0.97003 0.0
H3807 H 0.32497 0.86662 0.95449 0.0
C3808 C 0.14231 0.81331 0.08617 0.0
C3809 C 0.15199 0.81562 0.0818 0.0
C3810 C 0.13739 0.77676 0.08613 0.0
C3811 C 0.13893 0.66966 0.07029 0.0
H3812 H 0.11772 0.65532 0.10231 0.0
C3813 C 0.11973 0.51527 0.07904 0.0
C3814 C 0.10987 0.51453 0.082 0.0
C3815 C 0.12484 0.55141 0.07866 0.0
C3816 C 0.12354 0.65871 0.09308 0.0
H3817 H 0.16403 0.77983 0.0741 0.0
H3818 H 0.15558 0.7161 0.07441 0.0
H3819 H 0.12664 0.71722 0.10279 0.0
H3820 H 0.0978 0.55272 0.08679 0.0
H3821 H 0.10664 0.6153 0.08606 0.0
H3822 H 0.13585 0.61069 0.06081 0.0
C3823 C 0.15167 0.74286 0.07755 0.0
C3824 C 0.12872 0.69468 0.09331 0.0
C3825 C 0.15659 0.77965 0.07748 0.0
C3826 C 0.10534 0.55158 0.08441 0.0
C3827 C 0.11047 0.58774 0.08416 0.0
C3828 C 0.13377 0.63354 0.07014 0.0
C3829 C 0.14194 0.74057 0.08186 0.0
C3830 C 0.13651 0.70117 0.08186 0.0
C3831 C 0.12035 0.58846 0.08135 0.0
C3832 C 0.12593 0.62733 0.08148 0.0
H3833 H 0.13841 0.84005 0.08944 0.0
H3834 H 0.12992 0.77724 0.08917 0.0
H3835 H 0.14472 0.67301 0.061 0.0
H3836 H 0.12357 0.4877 0.07719 0.0
H3837 H 0.13241 0.55011 0.07666 0.0
C3838 C 0.14273 0.52234 0.23797 0.0
C3839 C 0.15242 0.5201 0.24233 0.0
C3840 C 0.13779 0.5588 0.23821 0.0
C3841 C 0.14093 0.67014 0.23725 0.0
H3842 H 0.11506 0.67083 0.25411 0.0
C3843 C 0.11994 0.81998 0.24473 0.0
C3844 C 0.11005 0.82042 0.24225 0.0
C3845 C 0.1251 0.78396 0.24519 0.0
C3846 C 0.12222 0.67151 0.24907 0.0
H3847 H 0.16444 0.55592 0.25014 0.0
H3848 H 0.15586 0.61953 0.25043 0.0
H3849 H 0.12395 0.60877 0.25386 0.0
H3850 H 0.09797 0.78187 0.23821 0.0
H3851 H 0.10687 0.71963 0.23866 0.0
H3852 H 0.13919 0.73269 0.23217 0.0
C3853 C 0.15206 0.59279 0.2468 0.0
C3854 C 0.12738 0.63549 0.24897 0.0
C3855 C 0.15701 0.55607 0.24672 0.0
C3856 C 0.10553 0.78321 0.24035 0.0
C3857 C 0.1107 0.74714 0.24068 0.0
C3858 C 0.13574 0.70616 0.23721 0.0
C3859 C 0.14231 0.59485 0.24268 0.0
C3860 C 0.13685 0.63396 0.24304 0.0
C3861 C 0.12062 0.74663 0.24303 0.0
C3862 C 0.12625 0.70774 0.24312 0.0
H3863 H 0.13887 0.49565 0.23448 0.0
H3864 H 0.13037 0.55867 0.23466 0.0
H3865 H 0.14812 0.67058 0.23233 0.0
H3866 H 0.12377 0.84767 0.24631 0.0
H3867 H 0.13264 0.78561 0.2474 0.0
C3868 C 0.87076 0.26776 0.98737 0.0
C3869 C 0.8609 0.26753 0.99023 0.0
C3870 C 0.87603 0.3034 0.98765 0.0
C3871 C 0.87375 0.4157 0.98572 0.0
H3872 H 0.89947 0.4127 1.00337 0.0
C3873 C 0.89548 0.56203 0.99647 0.0
C3874 C 0.90527 0.56219 0.99283 0.0
C3875 C 0.89018 0.52643 0.9965 0.0
C3876 C 0.89235 0.4143 0.99818 0.0
H3877 H 0.84896 0.30608 0.99549 0.0
H3878 H 0.8581 0.36798 0.9962 0.0
H3879 H 0.89012 0.35182 1.00269 0.0
H3880 H 0.91706 0.52361 0.98654 0.0
H3881 H 0.90789 0.46173 0.9866 0.0
H3882 H 0.87599 0.47825 0.98128 0.0
C3883 C 0.8618 0.34043 0.9935 0.0
C3884 C 0.88692 0.379 0.99776 0.0
C3885 C 0.8565 0.30464 0.99318 0.0
C3886 C 0.90959 0.52506 0.98955 0.0
C3887 C 0.90428 0.48931 0.98962 0.0
C3888 C 0.87918 0.45102 0.98618 0.0
C3889 C 0.8717 0.34056 0.99086 0.0
C3890 C 0.8775 0.37884 0.99149 0.0
C3891 C 0.89443 0.48929 0.9929 0.0
C3892 C 0.8886 0.45113 0.99241 0.0
H3893 H 0.8745 0.24014 0.98496 0.0
H3894 H 0.88355 0.30166 0.98516 0.0
H3895 H 0.86664 0.41733 0.98049 0.0
H3896 H 0.89181 0.58971 0.99909 0.0
H3897 H 0.88271 0.52816 0.99944 0.0
C3898 C 0.86874 0.56075 0.84295 0.0
C3899 C 0.86 0.56447 0.83404 0.0
C3900 C 0.87393 0.52489 0.84271 0.0
C3901 C 0.87194 0.41491 0.83237 0.0
H3902 H 0.89928 0.41925 0.83461 0.0
C3903 C 0.89428 0.27108 0.84405 0.0
C3904 C 0.90346 0.26736 0.83681 0.0
C3905 C 0.88914 0.30686 0.84282 0.0
C3906 C 0.89166 0.41715 0.83378 0.0
H3907 H 0.84996 0.53206 0.8179 0.0
H3908 H 0.85899 0.46991 0.81726 0.0
H3909 H 0.89017 0.48079 0.83394 0.0
H3910 H 0.91425 0.29996 0.8224 0.0
H3911 H 0.90524 0.36219 0.81996 0.0
H3912 H 0.87343 0.35136 0.83171 0.0
C3913 C 0.86182 0.49467 0.82472 0.0
C3914 C 0.88636 0.45284 0.83367 0.0
C3915 C 0.85661 0.53064 0.82501 0.0
C3916 C 0.90724 0.30117 0.82813 0.0
C3917 C 0.90205 0.33722 0.82687 0.0
C3918 C 0.87724 0.37926 0.83243 0.0
C3919 C 0.87064 0.49106 0.83348 0.0
C3920 C 0.87637 0.45256 0.83311 0.0
C3921 C 0.89287 0.34083 0.83423 0.0
C3922 C 0.88722 0.3795 0.83331 0.0
H3923 H 0.87166 0.58578 0.85015 0.0
H3924 H 0.88052 0.52377 0.85 0.0
H3925 H 0.86432 0.4127 0.83207 0.0
H3926 H 0.89102 0.24628 0.85097 0.0
H3927 H 0.88224 0.30793 0.84905 0.0
C3928 C 0.10474 0.06146 0.58509 0.0
C3929 C 0.10879 1.0246 0.58032 0.0
C3930 C 0.11008 0.09713 0.58479 0.0
C3931 C 0.1354 0.13541 0.58336 0.0
H3932 H 0.12335 0.23669 0.57358 0.0
C3933 C 0.15723 0.2845 0.57524 0.0
C3934 C 0.15317 0.32032 0.58135 0.0
C3935 C 0.15199 0.24847 0.57499 0.0
C3936 C 0.12689 0.20886 0.57657 0.0
H3937 H 0.12181 0.99759 0.57117 0.0
H3938 H 0.13096 0.05905 0.57025 0.0
H3939 H 0.11403 0.17572 0.57317 0.0
H3940 H 0.14023 0.34513 0.59212 0.0
H3941 H 0.13127 0.28328 0.59178 0.0
H3942 H 0.14827 0.1687 0.58665 0.0
C3943 C 0.12368 0.06064 0.57463 0.0
C3944 C 0.12147 0.17345 0.57634 0.0
C3945 C 0.11835 1.02503 0.57498 0.0
C3946 C 0.1437 0.31856 0.58727 0.0
C3947 C 0.13847 0.28276 0.58693 0.0
C3948 C 0.14083 0.17084 0.58352 0.0
C3949 C 0.11972 0.09754 0.57969 0.0
C3950 C 0.12559 0.13583 0.57978 0.0
C3951 C 0.14246 0.24687 0.58071 0.0
C3952 C 0.13669 0.20843 0.5802 0.0
H3953 H 0.09745 0.06274 0.58946 0.0
H3954 H 0.10667 0.12431 0.58904 0.0
H3955 H 0.13895 0.10764 0.58642 0.0
H3956 H 0.16446 0.28426 0.57054 0.0
H3957 H 0.1554 0.22195 0.56994 0.0
C3958 C 0.14367 1.02194 0.73571 0.0
C3959 C 0.15341 1.02168 0.73979 0.0
C3960 C 0.13833 0.0574 0.73591 0.0
C3961 C 0.13849 0.16329 0.75287 0.0
H3962 H 0.1175 0.17612 0.72022 0.0
C3963 C 0.11788 0.31437 0.74653 0.0
C3964 C 0.10815 0.31427 0.74239 0.0
C3965 C 0.12327 0.279 0.74655 0.0
C3966 C 0.12324 0.1731 0.72966 0.0
H3967 H 0.16507 0.06002 0.74715 0.0
H3968 H 0.15584 0.12182 0.74729 0.0
H3969 H 0.12712 0.11603 0.71915 0.0
H3970 H 0.09656 0.27539 0.73515 0.0
H3971 H 0.10587 0.21388 0.73541 0.0
H3972 H 0.13461 0.22042 0.76335 0.0
C3973 C 0.15226 0.09425 0.74415 0.0
C3974 C 0.12883 0.13825 0.72904 0.0
C3975 C 0.15762 0.0586 0.74394 0.0
C3976 C 0.104 0.27709 0.73848 0.0
C3977 C 0.10941 0.2416 0.73846 0.0
C3978 C 0.1329 0.19816 0.75348 0.0
C3979 C 0.14247 0.09441 0.74019 0.0
C3980 C 0.13658 0.13247 0.74065 0.0
C3981 C 0.11919 0.2418 0.74238 0.0
C3982 C 0.12514 0.20389 0.7419 0.0
H3983 H 0.14006 0.99443 0.73254 0.0
H3984 H 0.13085 0.05546 0.73305 0.0
H3985 H 0.14423 0.16026 0.7623 0.0
H3986 H 0.12145 0.34209 0.74952 0.0
H3987 H 0.13075 0.28117 0.74941 0.0
C3988 C 0.86891 0.76553 0.47958 0.0
C3989 C 0.86009 0.76035 0.48812 0.0
C3990 C 0.87388 0.80194 0.4803 0.0
C3991 C 0.87106 0.91161 0.4911 0.0
H3992 H 0.89841 0.91101 0.48879 0.0
C3993 C 0.89237 0.05989 0.48168 0.0
C3994 C 0.90146 0.06417 0.48923 0.0
C3995 C 0.88753 1.02315 0.48196 0.0
C3996 C 0.89078 0.91213 0.48962 0.0
H3997 H 0.84974 0.7911 0.50425 0.0
H3998 H 0.85841 0.85415 0.50576 0.0
H3999 H 0.88977 0.84831 0.48918 0.0
H4000 H 0.91247 1.03148 0.50298 0.0
H4001 H 0.90403 0.96772 0.5037 0.0
H4002 H 0.87208 0.97538 0.49202 0.0
C4003 C 0.86147 0.82999 0.49821 0.0
C4004 C 0.88575 0.8757 0.48958 0.0
C4005 C 0.85647 0.79341 0.49746 0.0
C4006 C 0.90553 1.02982 0.49696 0.0
C4007 C 0.90065 0.99289 0.49728 0.0
C4008 C 0.8761 0.94803 0.49116 0.0
C4009 C 0.87031 0.83512 0.48964 0.0
C4010 C 0.87575 0.87452 0.49021 0.0
C4011 C 0.89149 0.98875 0.48987 0.0
C4012 C 0.88609 0.94923 0.49029 0.0
H4013 H 0.87202 0.74134 0.47212 0.0
H4014 H 0.8805 0.80411 0.47316 0.0
H4015 H 0.86343 0.91278 0.49145 0.0
H4016 H 0.88892 0.08516 0.47546 0.0
H4017 H 0.88065 1.02181 0.4757 0.0
C4018 C 0.89884 0.77957 0.31089 0.0
C4019 C 0.90635 0.77504 0.32309 0.0
C4020 C 0.8933 0.81459 0.31044 0.0
C4021 C 0.89285 0.92207 0.3256 0.0
H4022 H 0.86618 0.91475 0.31447 0.0
C4023 C 0.86951 0.06534 0.31674 0.0
C4024 C 0.86006 0.06453 0.32271 0.0
C4025 C 0.87506 1.03035 0.31619 0.0
C4026 C 0.8736 0.91763 0.31774 0.0
H4027 H 0.91378 0.80494 0.34442 0.0
H4028 H 0.90419 0.86539 0.34371 0.0
H4029 H 0.87584 0.85463 0.31506 0.0
H4030 H 0.84913 1.02499 0.33263 0.0
H4031 H 0.85871 0.96452 0.33171 0.0
H4032 H 0.89057 0.98494 0.32864 0.0
C4033 C 0.90261 0.8421 0.33426 0.0
C4034 C 0.87923 0.88284 0.31786 0.0
C4035 C 0.90813 0.80704 0.33474 0.0
C4036 C 0.85633 1.02718 0.32781 0.0
C4037 C 0.86187 0.99217 0.32723 0.0
C4038 C 0.88723 0.95687 0.32542 0.0
C4039 C 0.89503 0.84663 0.32215 0.0
C4040 C 0.88898 0.88423 0.32183 0.0
C4041 C 0.87139 0.993 0.32157 0.0
C4042 C 0.87747 0.95547 0.32152 0.0
H4043 H 0.89718 0.75582 0.3017 0.0
H4044 H 0.88768 0.8166 0.3007 0.0
H4045 H 0.9003 0.92507 0.32854 0.0
H4046 H 0.87272 0.09326 0.31272 0.0
H4047 H 0.88226 1.03272 0.31145 0.0
C4048 C 0.60502 0.54633 0.58011 0.0
C4049 C 0.609 0.50922 0.57551 0.0
C4050 C 0.61046 0.58173 0.57981 0.0
C4051 C 0.63579 0.61824 0.57972 0.0
H4052 H 0.62449 0.71994 0.56772 0.0
C4053 C 0.65655 0.76853 0.58841 0.0
C4054 C 0.65491 0.80008 0.57631 0.0
C4055 C 0.65101 0.73347 0.58811 0.0
C4056 C 0.62785 0.69188 0.57098 0.0
H4057 H 0.622 0.48141 0.5667 0.0
H4058 H 0.63133 0.54241 0.56591 0.0
H4059 H 0.6149 0.65957 0.56708 0.0
H4060 H 0.646 0.81849 0.55433 0.0
H4061 H 0.6365 0.75774 0.55364 0.0
H4062 H 0.64877 0.65037 0.58333 0.0
C4063 C 0.62402 0.54436 0.57008 0.0
C4064 C 0.62226 0.65696 0.57084 0.0
C4065 C 0.61859 0.50907 0.57035 0.0
C4066 C 0.64755 0.7951 0.56387 0.0
C4067 C 0.642 0.76009 0.56359 0.0
C4068 C 0.64137 0.65315 0.57992 0.0
C4069 C 0.62012 0.58148 0.57495 0.0
C4070 C 0.62611 0.61929 0.57516 0.0
C4071 C 0.64358 0.72848 0.57574 0.0
C4072 C 0.63754 0.6908 0.57553 0.0
H4073 H 0.59771 0.54804 0.5843 0.0
H4074 H 0.6071 0.60921 0.58386 0.0
H4075 H 0.63911 0.59034 0.5834 0.0
H4076 H 0.66208 0.77101 0.5983 0.0
H4077 H 0.65248 0.71054 0.59791 0.0
C4078 C 0.64224 0.51378 0.73151 0.0
C4079 C 0.65125 0.51001 0.73942 0.0
C4080 C 0.6373 0.55029 0.73143 0.0
C4081 C 0.64026 0.66131 0.73839 0.0
H4082 H 0.6129 0.65958 0.74026 0.0
C4083 C 0.61803 0.80652 0.72717 0.0
C4084 C 0.60929 0.81161 0.73598 0.0
C4085 C 0.62308 0.77033 0.7281 0.0
C4086 C 0.62054 0.66102 0.73989 0.0
H4087 H 0.66204 0.54319 0.7534 0.0
H4088 H 0.65346 0.60659 0.75344 0.0
H4089 H 0.6217 0.59731 0.74126 0.0
H4090 H 0.59916 0.78101 0.75277 0.0
H4091 H 0.60795 0.71831 0.7546 0.0
H4092 H 0.63911 0.72507 0.73746 0.0
C4093 C 0.6502 0.58123 0.74704 0.0
C4094 C 0.62565 0.62483 0.74021 0.0
C4095 C 0.65517 0.54454 0.74711 0.0
C4096 C 0.60581 0.77873 0.74577 0.0
C4097 C 0.61089 0.74237 0.74671 0.0
C4098 C 0.63515 0.69751 0.73808 0.0
C4099 C 0.64112 0.58486 0.7393 0.0
C4100 C 0.63563 0.62407 0.73936 0.0
C4101 C 0.61965 0.73735 0.7379 0.0
C4102 C 0.62516 0.69824 0.73872 0.0
H4103 H 0.63891 0.48826 0.72535 0.0
H4104 H 0.63048 0.55132 0.72496 0.0
H4105 H 0.64789 0.6627 0.73756 0.0
H4106 H 0.62103 0.83065 0.71936 0.0
H4107 H 0.62964 0.76815 0.72078 0.0
C4108 C 0.40622 0.52333 0.49051 0.0
C4109 C 0.40119 0.55953 0.48923 0.0
C4110 C 0.40147 0.48619 0.49046 0.0
C4111 C 0.37766 0.43937 0.49866 0.0
H4112 H 0.38769 0.35054 0.47199 0.0
C4113 C 0.35591 0.29123 0.4903 0.0
C4114 C 0.36073 0.25491 0.48779 0.0
C4115 C 0.36082 0.32798 0.4907 0.0
C4116 C 0.38478 0.37455 0.47983 0.0
H4117 H 0.38705 0.58398 0.48702 0.0
H4118 H 0.37888 0.5201 0.48715 0.0
H4119 H 0.39629 0.41335 0.47267 0.0
H4120 H 0.3747 0.22974 0.48416 0.0
H4121 H 0.38317 0.29254 0.48549 0.0
H4122 H 0.36625 0.40069 0.50616 0.0
C4123 C 0.38651 0.52017 0.48822 0.0
C4124 C 0.38977 0.411 0.48015 0.0
C4125 C 0.39125 0.55711 0.48801 0.0
C4126 C 0.37065 0.25678 0.48597 0.0
C4127 C 0.37556 0.29332 0.48659 0.0
C4128 C 0.37271 0.4028 0.49853 0.0
C4129 C 0.3915 0.4839 0.48941 0.0
C4130 C 0.38629 0.44425 0.48949 0.0
C4131 C 0.37077 0.32992 0.4888 0.0
C4132 C 0.37613 0.36948 0.48905 0.0
H4133 H 0.41386 0.52363 0.49142 0.0
H4134 H 0.40562 0.45919 0.49151 0.0
H4135 H 0.37474 0.46381 0.50625 0.0
H4136 H 0.34829 0.29143 0.4916 0.0
H4137 H 0.35672 0.35496 0.49215 0.0
C4138 C 0.4074 0.29937 0.33471 0.0
C4139 C 0.40551 0.26743 0.3231 0.0
C4140 C 0.40196 0.3346 0.33425 0.0
C4141 C 0.37862 0.37592 0.31829 0.0
H4142 H 0.39029 0.47777 0.32832 0.0
C4143 C 0.35622 0.52126 0.32861 0.0
C4144 C 0.35997 0.55823 0.32304 0.0
C4145 C 0.36166 0.48602 0.32798 0.0
C4146 C 0.38686 0.44976 0.32532 0.0
H4147 H 0.39624 0.24842 0.30182 0.0
H4148 H 0.38687 0.30954 0.30088 0.0
H4149 H 0.39988 0.41751 0.32814 0.0
H4150 H 0.37254 0.58611 0.31219 0.0
H4151 H 0.38191 0.52514 0.31088 0.0
H4152 H 0.36562 0.40828 0.31521 0.0
C4153 C 0.39251 0.30734 0.31055 0.0
C4154 C 0.3924 0.41478 0.32545 0.0
C4155 C 0.39798 0.27214 0.31097 0.0
C4156 C 0.36933 0.55847 0.31658 0.0
C4157 C 0.37478 0.52327 0.316 0.0
C4158 C 0.37307 0.4109 0.31822 0.0
C4159 C 0.39436 0.33931 0.32222 0.0
C4160 C 0.3884 0.37706 0.32195 0.0
C4161 C 0.37109 0.48631 0.32183 0.0
C4162 C 0.37707 0.44861 0.32174 0.0
H4163 H 0.41308 0.2971 0.34433 0.0
H4164 H 0.40362 0.35789 0.34367 0.0
H4165 H 0.37515 0.34778 0.31571 0.0
H4166 H 0.34909 0.51955 0.3338 0.0
H4167 H 0.3585 0.45865 0.33282 0.0
C4168 C 0.64188 0.31284 0.09252 0.0
C4169 C 0.65103 0.3177 0.08534 0.0
C4170 C 0.63719 0.27565 0.09228 0.0
C4171 C 0.64122 0.16471 0.08508 0.0
H4172 H 0.61387 0.16178 0.08333 0.0
C4173 C 0.62068 1.01384 0.09321 0.0
C4174 C 0.61191 1.00816 0.08463 0.0
C4175 C 0.62528 0.05122 0.09322 0.0
C4176 C 0.62152 0.16159 0.08365 0.0
H4177 H 0.66231 0.28566 0.07218 0.0
H4178 H 0.65415 0.22149 0.07141 0.0
H4179 H 0.62205 0.22551 0.08289 0.0
H4180 H 0.60118 1.03896 0.06932 0.0
H4181 H 0.60918 0.10362 0.06903 0.0
H4182 H 0.6407 0.10081 0.08524 0.0
C4183 C 0.65059 0.24634 0.07759 0.0
C4184 C 0.62628 0.1987 0.08367 0.0
C4185 C 0.6553 0.2836 0.07791 0.0
C4186 C 0.60788 0.04172 0.07616 0.0
C4187 C 0.61251 0.07921 0.07609 0.0
C4188 C 0.63646 0.12762 0.08499 0.0
C4189 C 0.64139 0.24143 0.08475 0.0
C4190 C 0.63625 0.20124 0.08446 0.0
C4191 C 0.62136 0.08484 0.08455 0.0
C4192 C 0.62648 0.12508 0.08436 0.0
H4193 H 0.63828 0.3379 0.09849 0.0
H4194 H 0.63026 0.27381 0.09831 0.0
H4195 H 0.64885 0.1645 0.0859 0.0
H4196 H 0.62408 0.9892 0.10001 0.0
H4197 H 0.63191 0.05363 0.10028 0.0
C4198 C 0.66028 0.05851 0.24369 0.0
C4199 C 0.65722 1.02193 0.25099 0.0
C4200 C 0.65456 0.09298 0.24454 0.0
C4201 C 0.62919 0.12425 0.25228 0.0
H4202 H 0.63983 0.23041 0.25435 0.0
C4203 C 0.60553 0.26566 0.24335 0.0
C4204 C 0.6079 0.30115 0.25227 0.0
C4205 C 0.61154 0.2322 0.24377 0.0
C4206 C 0.63667 0.20107 0.25396 0.0
H4207 H 0.64572 0.99408 0.26551 0.0
H4208 H 0.636 0.05356 0.26746 0.0
H4209 H 0.65027 0.17262 0.25453 0.0
H4210 H 0.6186 0.3283 0.2689 0.0
H4211 H 0.62893 0.27002 0.27001 0.0
H4212 H 0.6156 0.15243 0.25217 0.0
C4213 C 0.64269 0.05576 0.26057 0.0
C4214 C 0.64273 0.16761 0.2538 0.0
C4215 C 0.64837 1.02141 0.25962 0.0
C4216 C 0.61646 0.30168 0.26187 0.0
C4217 C 0.62248 0.26813 0.26234 0.0
C4218 C 0.62315 0.15762 0.25248 0.0
C4219 C 0.64556 0.09216 0.25278 0.0
C4220 C 0.63912 0.12843 0.25298 0.0
C4221 C 0.62019 0.23273 0.25318 0.0
C4222 C 0.62674 0.1968 0.25328 0.0
H4223 H 0.66699 0.06027 0.23678 0.0
H4224 H 0.65709 0.11997 0.23821 0.0
H4225 H 0.62601 0.09502 0.25133 0.0
H4226 H 0.59907 0.26388 0.23565 0.0
H4227 H 0.60948 0.20618 0.23626 0.0
C4228 C 0.35567 0.80398 0.99073 0.0
C4229 C 0.35861 0.76802 0.99877 0.0
C4230 C 0.36143 0.83834 0.99112 0.0
C4231 C 0.38667 0.87097 0.99947 0.0
H4232 H 0.37566 0.97655 0.9991 0.0
C4233 C 0.40996 1.01407 0.98993 0.0
C4234 C 0.40712 0.05003 0.99795 0.0
C4235 C 0.40415 0.97988 0.99049 0.0
C4236 C 0.37894 0.94743 0.99941 0.0
H4237 H 0.36996 0.74109 1.01399 0.0
H4238 H 0.37978 0.80059 1.01514 0.0
H4239 H 0.36543 0.91835 0.99983 0.0
H4240 H 0.39586 0.07715 1.01324 0.0
H4241 H 0.38595 1.01786 1.01466 0.0
H4242 H 0.40018 0.90002 0.99957 0.0
C4243 C 0.37313 0.80231 1.00806 0.0
C4244 C 0.373 0.91365 0.99955 0.0
C4245 C 0.36741 0.76797 1.00757 0.0
C4246 C 0.39834 0.05026 1.00685 0.0
C4247 C 0.39257 1.01605 1.0075 0.0
C4248 C 0.39261 0.90473 0.9994 0.0
C4249 C 0.37034 0.83814 0.99964 0.0
C4250 C 0.37673 0.87464 0.99958 0.0
C4251 C 0.39528 0.9802 0.99916 0.0
C4252 C 0.38888 0.94374 0.99935 0.0
H4253 H 0.34901 0.80538 0.98366 0.0
H4254 H 0.35897 0.86478 0.98425 0.0
H4255 H 0.38995 0.84185 0.9992 0.0
H4256 H 0.4166 1.01252 0.98279 0.0
H4257 H 0.40655 0.95344 0.98365 0.0
C4258 C 0.39468 0.76081 0.84411 0.0
C4259 C 0.40336 0.75579 0.83513 0.0
C4260 C 0.38987 0.79768 0.84408 0.0
C4261 C 0.39298 0.90794 0.83401 0.0
H4262 H 0.36564 0.90866 0.83655 0.0
C4263 C 0.3721 0.05723 0.84319 0.0
C4264 C 0.36303 0.06185 0.83563 0.0
C4265 C 0.37686 1.02027 0.84306 0.0
C4266 C 0.37327 0.90941 0.83567 0.0
H4267 H 0.4137 0.78711 0.81907 0.0
H4268 H 0.40534 0.85093 0.81878 0.0
H4269 H 0.37409 0.84554 0.83597 0.0
H4270 H 0.35194 1.02963 0.82201 0.0
H4271 H 0.36021 0.9656 0.82153 0.0
H4272 H 0.39216 0.97177 0.83318 0.0
C4273 C 0.40225 0.8264 0.82615 0.0
C4274 C 0.3782 0.87273 0.83559 0.0
C4275 C 0.40708 0.78942 0.82622 0.0
C4276 C 0.35887 1.02768 0.82805 0.0
C4277 C 0.36366 0.99058 0.82787 0.0
C4278 C 0.38806 0.94461 0.83405 0.0
C4279 C 0.3935 0.83137 0.83501 0.0
C4280 C 0.38818 0.87107 0.83483 0.0
C4281 C 0.3728 0.98605 0.83529 0.0
C4282 C 0.37808 0.94629 0.83496 0.0
H4283 H 0.39151 0.73602 0.85121 0.0
H4284 H 0.38331 0.7997 0.85141 0.0
H4285 H 0.40062 0.90873 0.83359 0.0
H4286 H 0.37561 0.0824 0.84927 0.0
H4287 H 0.38373 1.01862 0.84931 0.0
loop_
_geom_bond_atom_site_label_1
_geom_bond_atom_site_label_2
_geom_bond_distance
_geom_bond_site_symmetry_2
_ccdc_geom_bond_type
O0 Tb1 2.292 . S
O0 C3 1.255 . S
Tb1 O0 2.292 . S
Tb1 O17 2.326 . S
Tb1 O19 2.500 . S
Tb1 O20 2.473 . S
Tb1 O23 2.324 . S
Eu2 O6 2.292 . S
Eu2 C7 2.852 . S
Eu2 O18 2.324 . S
Eu2 O22 2.326 . S
Eu2 O24 2.500 . S
Eu2 O25 2.473 . S
C3 O0 1.255 . S
C3 O4 1.247 . S
O4 C3 1.247 . S
C5 O17 1.242 . S
C5 O18 1.258 . S
O6 Eu2 2.292 . S
O6 C8 1.255 . S
C7 Eu2 2.852 . S
C7 C11 1.503 . S
C7 O24 1.273 . S
C7 O25 1.257 . S
C8 O6 1.255 . S
C8 O9 1.247 . S
O9 C8 1.247 . S
C10 O22 1.242 . S
C10 O23 1.258 . S
C11 C7 1.503 . S
C11 C12 1.379 . S
C11 C16 1.392 . S
C12 C11 1.379 . S
C12 C13 1.404 1_554 S
C12 H26 0.929 . S
C13 C12 1.404 1_556 S
C13 C14 1.389 . S
C14 C13 1.389 . S
C14 C15 1.399 . S
C14 H27 0.931 . S
C15 C14 1.399 . S
C15 C16 1.390 1_556 S
C16 C11 1.392 . S
C16 C15 1.390 1_554 S
C16 H28 0.929 . S
O17 Tb1 2.326 . S
O17 C5 1.242 . S
O18 Eu2 2.324 . S
O18 C5 1.258 . S
O19 Tb1 2.500 . S
O19 C21 1.273 . S
O20 Tb1 2.473 . S
O20 C21 1.257 . S
C21 O19 1.273 . S
C21 O20 1.257 . S
O22 Eu2 2.326 . S
O22 C10 1.242 . S
O23 Tb1 2.324 . S
O23 C10 1.258 . S
O24 Eu2 2.500 . S
O24 C7 1.273 . S
O25 Eu2 2.473 . S
O25 C7 1.257 . S
H26 C12 0.929 . S
H27 C14 0.931 . S
H28 C16 0.929 . S
O29 Tb30 2.292 . S
O29 C32 1.255 . S
Tb30 O29 2.292 . S
Tb30 O46 2.326 . S
Tb30 O48 2.500 . S
Tb30 O49 2.473 . S
Tb30 O52 2.324 . S
Eu31 O35 2.292 . S
Eu31 C36 2.852 . S
Eu31 O47 2.324 . S
Eu31 O51 2.326 . S
Eu31 O53 2.500 . S
Eu31 O54 2.473 . S
C32 O29 1.255 . S
C32 O33 1.247 . S
O33 C32 1.247 . S
C34 O46 1.242 . S
C34 O47 1.258 . S
O35 Eu31 2.292 . S
O35 C37 1.255 . S
C36 Eu31 2.852 . S
C36 C40 1.503 . S
C36 O53 1.273 . S
C36 O54 1.257 . S
C37 O35 1.255 . S
C37 O38 1.247 . S
O38 C37 1.247 . S
C39 O51 1.242 . S
C39 O52 1.258 . S
C40 C36 1.503 . S
C40 C41 1.379 . S
C40 C45 1.392 . S
C41 C40 1.379 . S
C41 C42 1.404 1_554 S
C41 H55 0.929 . S
C42 C41 1.404 1_556 S
C42 C43 1.389 . S
C43 C42 1.389 . S
C43 C44 1.399 . S
C43 H56 0.931 . S
C44 C43 1.399 . S
C44 C45 1.390 1_556 S
C45 C40 1.392 . S
C45 C44 1.390 1_554 S
C45 H57 0.929 . S
O46 Tb30 2.326 . S
O46 C34 1.242 . S
O47 Eu31 2.324 . S
O47 C34 1.258 . S
O48 Tb30 2.500 . S
O48 C50 1.273 . S
O49 Tb30 2.473 . S
O49 C50 1.257 . S
C50 O48 1.273 . S
C50 O49 1.257 . S
O51 Eu31 2.326 . S
O51 C39 1.242 . S
O52 Tb30 2.324 . S
O52 C39 1.258 . S
O53 Eu31 2.500 . S
O53 C36 1.273 . S
O54 Eu31 2.473 . S
O54 C36 1.257 . S
H55 C41 0.929 . S
H56 C43 0.931 . S
H57 C45 0.929 . S
O58 Tb59 2.292 . S
O58 C61 1.255 . S
Tb59 O58 2.292 . S
Tb59 O75 2.326 . S
Tb59 O77 2.500 . S
Tb59 O78 2.473 . S
Tb59 O81 2.324 . S
Eu60 O64 2.292 . S
Eu60 C65 2.852 . S
Eu60 O76 2.324 . S
Eu60 O80 2.326 . S
Eu60 O82 2.500 . S
Eu60 O83 2.473 . S
C61 O58 1.255 . S
C61 O62 1.247 . S
O62 C61 1.247 . S
C63 O75 1.242 . S
C63 O76 1.258 . S
O64 Eu60 2.292 . S
O64 C66 1.255 . S
C65 Eu60 2.852 . S
C65 C69 1.503 . S
C65 O82 1.273 . S
C65 O83 1.257 . S
C66 O64 1.255 . S
C66 O67 1.247 . S
O67 C66 1.247 . S
C68 O80 1.242 . S
C68 O81 1.258 . S
C69 C65 1.503 . S
C69 C70 1.379 . S
C69 C74 1.392 . S
C70 C69 1.379 . S
C70 C71 1.404 . S
C70 H84 0.929 . S
C71 C70 1.404 . S
C71 C72 1.389 . S
C72 C71 1.389 . S
C72 C73 1.399 . S
C72 H85 0.931 . S
C73 C72 1.399 . S
C73 C74 1.390 . S
C74 C69 1.392 . S
C74 C73 1.390 . S
C74 H86 0.929 . S
O75 Tb59 2.326 . S
O75 C63 1.242 . S
O76 Eu60 2.324 . S
O76 C63 1.258 . S
O77 Tb59 2.500 . S
O77 C79 1.273 . S
O78 Tb59 2.473 . S
O78 C79 1.257 . S
C79 O77 1.273 . S
C79 O78 1.257 . S
O80 Eu60 2.326 . S
O80 C68 1.242 . S
O81 Tb59 2.324 . S
O81 C68 1.258 . S
O82 Eu60 2.500 . S
O82 C65 1.273 . S
O83 Eu60 2.473 . S
O83 C65 1.257 . S
H84 C70 0.929 . S
H85 C72 0.931 . S
H86 C74 0.929 . S
O87 Tb88 2.292 . S
O87 C90 1.255 . S
Tb88 O87 2.292 . S
Tb88 O104 2.326 . S
Tb88 O106 2.500 . S
Tb88 O107 2.473 . S
Tb88 O110 2.324 . S
Eu89 O93 2.292 . S
Eu89 C94 2.852 . S
Eu89 O105 2.324 . S
Eu89 O109 2.326 . S
Eu89 O111 2.500 . S
Eu89 O112 2.473 . S
C90 O87 1.255 . S
C90 O91 1.247 . S
O91 C90 1.247 . S
C92 O104 1.242 . S
C92 O105 1.258 . S
O93 Eu89 2.292 . S
O93 C95 1.255 . S
C94 Eu89 2.852 . S
C94 C98 1.503 . S
C94 O111 1.273 . S
C94 O112 1.257 . S
C95 O93 1.255 . S
C95 O96 1.247 . S
O96 C95 1.247 . S
C97 O109 1.242 . S
C97 O110 1.258 . S
C98 C94 1.503 . S
C98 C99 1.379 . S
C98 C103 1.392 . S
C99 C98 1.379 . S
C99 C100 1.404 . S
C99 H113 0.929 . S
C100 C99 1.404 . S
C100 C101 1.389 . S
C101 C100 1.389 . S
C101 C102 1.399 . S
C101 H114 0.931 . S
C102 C101 1.399 . S
C102 C103 1.390 . S
C103 C98 1.392 . S
C103 C102 1.390 . S
C103 H115 0.929 . S
O104 Tb88 2.326 . S
O104 C92 1.242 . S
O105 Eu89 2.324 . S
O105 C92 1.258 . S
O106 Tb88 2.500 . S
O106 C108 1.273 . S
O107 Tb88 2.473 . S
O107 C108 1.257 . S
C108 O106 1.273 . S
C108 O107 1.257 . S
O109 Eu89 2.326 . S
O109 C97 1.242 . S
O110 Tb88 2.324 . S
O110 C97 1.258 . S
O111 Eu89 2.500 . S
O111 C94 1.273 . S
O112 Eu89 2.473 . S
O112 C94 1.257 . S
H113 C99 0.929 . S
H114 C101 0.931 . S
H115 C103 0.929 . S
O116 Tb117 2.292 . S
O116 C119 1.255 . S
Tb117 O116 2.292 . S
Tb117 O133 2.326 . S
Tb117 O135 2.500 . S
Tb117 O136 2.473 . S
Tb117 O139 2.324 . S
Eu118 O122 2.292 . S
Eu118 C123 2.852 . S
Eu118 O134 2.324 . S
Eu118 O138 2.326 . S
Eu118 O140 2.500 . S
Eu118 O141 2.473 . S
C119 O116 1.255 . S
C119 O120 1.247 . S
O120 C119 1.247 . S
C121 O133 1.242 . S
C121 O134 1.258 . S
O122 Eu118 2.292 . S
O122 C124 1.255 . S
C123 Eu118 2.852 . S
C123 C127 1.503 . S
C123 O140 1.273 . S
C123 O141 1.257 . S
C124 O122 1.255 . S
C124 O125 1.247 . S
O125 C124 1.247 . S
C126 O138 1.242 . S
C126 O139 1.258 . S
C127 C123 1.503 . S
C127 C128 1.379 . S
C127 C132 1.392 . S
C128 C127 1.379 . S
C128 C129 1.404 1_556 S
C128 H142 0.929 . S
C129 C128 1.404 1_554 S
C129 C130 1.389 . S
C130 C129 1.389 . S
C130 C131 1.399 . S
C130 H143 0.931 . S
C131 C130 1.399 . S
C131 C132 1.390 1_554 S
C132 C127 1.392 . S
C132 C131 1.390 1_556 S
C132 H144 0.929 . S
O133 Tb117 2.326 . S
O133 C121 1.242 . S
O134 Eu118 2.324 . S
O134 C121 1.258 . S
O135 Tb117 2.500 . S
O135 C137 1.273 . S
O136 Tb117 2.473 . S
O136 C137 1.257 . S
C137 O135 1.273 . S
C137 O136 1.257 . S
O138 Eu118 2.326 . S
O138 C126 1.242 . S
O139 Tb117 2.324 . S
O139 C126 1.258 . S
O140 Eu118 2.500 . S
O140 C123 1.273 . S
O141 Eu118 2.473 . S
O141 C123 1.257 . S
H142 C128 0.929 . S
H143 C130 0.931 . S
H144 C132 0.929 . S
O145 Tb146 2.292 . S
O145 C148 1.255 . S
Tb146 O145 2.292 . S
Tb146 O162 2.326 . S
Tb146 O164 2.500 . S
Tb146 O165 2.473 . S
Tb146 O168 2.324 . S
Eu147 O151 2.292 . S
Eu147 C152 2.852 . S
Eu147 O163 2.324 . S
Eu147 O167 2.326 . S
Eu147 O169 2.500 . S
Eu147 O170 2.473 . S
C148 O145 1.255 . S
C148 O149 1.247 . S
O149 C148 1.247 . S
C150 O162 1.242 . S
C150 O163 1.258 . S
O151 Eu147 2.292 . S
O151 C153 1.255 . S
C152 Eu147 2.852 . S
C152 C156 1.503 . S
C152 O169 1.273 . S
C152 O170 1.257 . S
C153 O151 1.255 . S
C153 O154 1.247 . S
O154 C153 1.247 . S
C155 O167 1.242 . S
C155 O168 1.258 . S
C156 C152 1.503 . S
C156 C157 1.379 . S
C156 C161 1.392 . S
C157 C156 1.379 . S
C157 C158 1.404 1_556 S
C157 H171 0.929 . S
C158 C157 1.404 1_554 S
C158 C159 1.389 . S
C159 C158 1.389 . S
C159 C160 1.399 . S
C159 H172 0.931 . S
C160 C159 1.399 . S
C160 C161 1.390 1_554 S
C161 C156 1.392 . S
C161 C160 1.390 1_556 S
C161 H173 0.929 . S
O162 Tb146 2.326 . S
O162 C150 1.242 . S
O163 Eu147 2.324 . S
O163 C150 1.258 . S
O164 Tb146 2.500 . S
O164 C166 1.273 . S
O165 Tb146 2.473 . S
O165 C166 1.257 . S
C166 O164 1.273 . S
C166 O165 1.257 . S
O167 Eu147 2.326 . S
O167 C155 1.242 . S
O168 Tb146 2.324 . S
O168 C155 1.258 . S
O169 Eu147 2.500 . S
O169 C152 1.273 . S
O170 Eu147 2.473 . S
O170 C152 1.257 . S
H171 C157 0.929 . S
H172 C159 0.931 . S
H173 C161 0.929 . S
O174 Tb175 2.292 . S
O174 C177 1.255 . S
Tb175 O174 2.292 . S
Tb175 O191 2.326 . S
Tb175 O193 2.500 . S
Tb175 O194 2.473 . S
Tb175 O197 2.324 . S
Eu176 O180 2.292 . S
Eu176 C181 2.852 . S
Eu176 O192 2.324 . S
Eu176 O196 2.326 . S
Eu176 O198 2.500 . S
Eu176 O199 2.473 . S
C177 O174 1.255 . S
C177 O178 1.247 . S
O178 C177 1.247 . S
C179 O191 1.242 . S
C179 O192 1.258 . S
O180 Eu176 2.292 . S
O180 C182 1.255 . S
C181 Eu176 2.852 . S
C181 C185 1.503 . S
C181 O198 1.273 . S
C181 O199 1.257 . S
C182 O180 1.255 . S
C182 O183 1.247 . S
O183 C182 1.247 . S
C184 O196 1.242 . S
C184 O197 1.258 . S
C185 C181 1.503 . S
C185 C186 1.379 . S
C185 C190 1.392 . S
C186 C185 1.379 . S
C186 C187 1.404 . S
C186 H200 0.929 . S
C187 C186 1.404 . S
C187 C188 1.389 . S
C188 C187 1.389 . S
C188 C189 1.399 . S
C188 H201 0.931 . S
C189 C188 1.399 . S
C189 C190 1.390 . S
C190 C185 1.392 . S
C190 C189 1.390 . S
C190 H202 0.929 . S
O191 Tb175 2.326 . S
O191 C179 1.242 . S
O192 Eu176 2.324 . S
O192 C179 1.258 . S
O193 Tb175 2.500 . S
O193 C195 1.273 . S
O194 Tb175 2.473 . S
O194 C195 1.257 . S
C195 O193 1.273 . S
C195 O194 1.257 . S
O196 Eu176 2.326 . S
O196 C184 1.242 . S
O197 Tb175 2.324 . S
O197 C184 1.258 . S
O198 Eu176 2.500 . S
O198 C181 1.273 . S
O199 Eu176 2.473 . S
O199 C181 1.257 . S
H200 C186 0.929 . S
H201 C188 0.931 . S
H202 C190 0.929 . S
O203 Tb204 2.292 . S
O203 C206 1.255 . S
Tb204 O203 2.292 . S
Tb204 O220 2.326 . S
Tb204 O222 2.500 . S
Tb204 O223 2.473 . S
Tb204 O226 2.324 . S
Eu205 O209 2.292 . S
Eu205 C210 2.852 . S
Eu205 O221 2.324 . S
Eu205 O225 2.326 . S
Eu205 O227 2.500 . S
Eu205 O228 2.473 . S
C206 O203 1.255 . S
C206 O207 1.247 . S
O207 C206 1.247 . S
C208 O220 1.242 . S
C208 O221 1.258 . S
O209 Eu205 2.292 . S
O209 C211 1.255 . S
C210 Eu205 2.852 . S
C210 C214 1.503 . S
C210 O227 1.273 . S
C210 O228 1.257 . S
C211 O209 1.255 . S
C211 O212 1.247 . S
O212 C211 1.247 . S
C213 O225 1.242 . S
C213 O226 1.258 . S
C214 C210 1.503 . S
C214 C215 1.379 . S
C214 C219 1.392 . S
C215 C214 1.379 . S
C215 C216 1.404 . S
C215 H229 0.929 . S
C216 C215 1.404 . S
C216 C217 1.389 . S
C217 C216 1.389 . S
C217 C218 1.399 . S
C217 H230 0.931 . S
C218 C217 1.399 . S
C218 C219 1.390 . S
C219 C214 1.392 . S
C219 C218 1.390 . S
C219 H231 0.929 . S
O220 Tb204 2.326 . S
O220 C208 1.242 . S
O221 Eu205 2.324 . S
O221 C208 1.258 . S
O222 Tb204 2.500 . S
O222 C224 1.273 . S
O223 Tb204 2.473 . S
O223 C224 1.257 . S
C224 O222 1.273 . S
C224 O223 1.257 . S
O225 Eu205 2.326 . S
O225 C213 1.242 . S
O226 Tb204 2.324 . S
O226 C213 1.258 . S
O227 Eu205 2.500 . S
O227 C210 1.273 . S
O228 Eu205 2.473 . S
O228 C210 1.257 . S
H229 C215 0.929 . S
H230 C217 0.931 . S
H231 C219 0.929 . S
O232 Tb233 2.292 . S
O232 C235 1.255 . S
Tb233 O232 2.292 . S
Tb233 O249 2.326 . S
Tb233 O251 2.500 . S
Tb233 O252 2.473 . S
Tb233 O255 2.324 . S
Eu234 O238 2.292 . S
Eu234 C239 2.852 . S
Eu234 O250 2.324 . S
Eu234 O254 2.326 . S
Eu234 O256 2.500 . S
Eu234 O257 2.473 . S
C235 O232 1.255 . S
C235 O236 1.247 . S
O236 C235 1.247 . S
C237 O249 1.242 . S
C237 O250 1.258 . S
O238 Eu234 2.292 . S
O238 C240 1.255 . S
C239 Eu234 2.852 . S
C239 C243 1.503 . S
C239 O256 1.273 . S
C239 O257 1.257 . S
C240 O238 1.255 . S
C240 O241 1.247 . S
O241 C240 1.247 . S
C242 O254 1.242 . S
C242 O255 1.258 . S
C243 C239 1.503 . S
C243 C244 1.379 . S
C243 C248 1.392 . S
C244 C243 1.379 . S
C244 C245 1.404 . S
C244 H258 0.929 . S
C245 C244 1.404 . S
C245 C246 1.389 . S
C246 C245 1.389 . S
C246 C247 1.399 . S
C246 H259 0.931 . S
C247 C246 1.399 . S
C247 C248 1.390 . S
C248 C243 1.392 . S
C248 C247 1.390 . S
C248 H260 0.929 . S
O249 Tb233 2.326 . S
O249 C237 1.242 . S
O250 Eu234 2.324 . S
O250 C237 1.258 . S
O251 Tb233 2.500 . S
O251 C253 1.273 . S
O252 Tb233 2.473 . S
O252 C253 1.257 . S
C253 O251 1.273 . S
C253 O252 1.257 . S
O254 Eu234 2.326 . S
O254 C242 1.242 . S
O255 Tb233 2.324 . S
O255 C242 1.258 . S
O256 Eu234 2.500 . S
O256 C239 1.273 . S
O257 Eu234 2.473 . S
O257 C239 1.257 . S
H258 C244 0.929 . S
H259 C246 0.931 . S
H260 C248 0.929 . S
O261 Tb262 2.292 . S
O261 C264 1.255 . S
Tb262 O261 2.292 . S
Tb262 O278 2.326 . S
Tb262 O280 2.500 . S
Tb262 O281 2.473 . S
Tb262 O284 2.324 . S
Eu263 O267 2.292 . S
Eu263 C268 2.852 . S
Eu263 O279 2.324 . S
Eu263 O283 2.326 . S
Eu263 O285 2.500 . S
Eu263 O286 2.473 . S
C264 O261 1.255 . S
C264 O265 1.247 . S
O265 C264 1.247 . S
C266 O278 1.242 . S
C266 O279 1.258 . S
O267 Eu263 2.292 . S
O267 C269 1.255 . S
C268 Eu263 2.852 . S
C268 C272 1.503 . S
C268 O285 1.273 . S
C268 O286 1.257 . S
C269 O267 1.255 . S
C269 O270 1.247 . S
O270 C269 1.247 . S
C271 O283 1.242 . S
C271 O284 1.258 . S
C272 C268 1.503 . S
C272 C273 1.379 . S
C272 C277 1.392 . S
C273 C272 1.379 . S
C273 C274 1.404 . S
C273 H287 0.929 . S
C274 C273 1.404 . S
C274 C275 1.389 . S
C275 C274 1.389 . S
C275 C276 1.399 . S
C275 H288 0.931 . S
C276 C275 1.399 . S
C276 C277 1.390 . S
C277 C272 1.392 . S
C277 C276 1.390 . S
C277 H289 0.929 . S
O278 Tb262 2.326 . S
O278 C266 1.242 . S
O279 Eu263 2.324 . S
O279 C266 1.258 . S
O280 Tb262 2.500 . S
O280 C282 1.273 . S
O281 Tb262 2.473 . S
O281 C282 1.257 . S
C282 O280 1.273 . S
C282 O281 1.257 . S
O283 Eu263 2.326 . S
O283 C271 1.242 . S
O284 Tb262 2.324 . S
O284 C271 1.258 . S
O285 Eu263 2.500 . S
O285 C268 1.273 . S
O286 Eu263 2.473 . S
O286 C268 1.257 . S
H287 C273 0.929 . S
H288 C275 0.931 . S
H289 C277 0.929 . S
O290 Tb291 2.292 . S
O290 C293 1.255 . S
Tb291 O290 2.292 . S
Tb291 O307 2.326 . S
Tb291 O309 2.500 . S
Tb291 O310 2.473 . S
Tb291 O313 2.324 . S
Eu292 O296 2.292 . S
Eu292 C297 2.852 . S
Eu292 O308 2.324 . S
Eu292 O312 2.326 . S
Eu292 O314 2.500 . S
Eu292 O315 2.473 . S
C293 O290 1.255 . S
C293 O294 1.247 . S
O294 C293 1.247 . S
C295 O307 1.242 . S
C295 O308 1.258 . S
O296 Eu292 2.292 . S
O296 C298 1.255 . S
C297 Eu292 2.852 . S
C297 C301 1.503 . S
C297 O314 1.273 . S
C297 O315 1.257 . S
C298 O296 1.255 . S
C298 O299 1.247 . S
O299 C298 1.247 . S
C300 O312 1.242 . S
C300 O313 1.258 . S
C301 C297 1.503 . S
C301 C302 1.379 . S
C301 C306 1.392 . S
C302 C301 1.379 . S
C302 C303 1.404 . S
C302 H316 0.929 . S
C303 C302 1.404 . S
C303 C304 1.389 . S
C304 C303 1.389 . S
C304 C305 1.399 . S
C304 H317 0.931 . S
C305 C304 1.399 . S
C305 C306 1.390 . S
C306 C301 1.392 . S
C306 C305 1.390 . S
C306 H318 0.929 . S
O307 Tb291 2.326 . S
O307 C295 1.242 . S
O308 Eu292 2.324 . S
O308 C295 1.258 . S
O309 Tb291 2.500 . S
O309 C311 1.273 . S
O310 Tb291 2.473 . S
O310 C311 1.257 . S
C311 O309 1.273 . S
C311 O310 1.257 . S
O312 Eu292 2.326 . S
O312 C300 1.242 . S
O313 Tb291 2.324 . S
O313 C300 1.258 . S
O314 Eu292 2.500 . S
O314 C297 1.273 . S
O315 Eu292 2.473 . S
O315 C297 1.257 . S
H316 C302 0.929 . S
H317 C304 0.931 . S
H318 C306 0.929 . S
O319 Tb320 2.292 . S
O319 C322 1.255 . S
Tb320 O319 2.292 . S
Tb320 O336 2.326 . S
Tb320 O338 2.500 . S
Tb320 O339 2.473 . S
Tb320 O342 2.324 . S
Eu321 O325 2.292 . S
Eu321 C326 2.852 . S
Eu321 O337 2.324 . S
Eu321 O341 2.326 . S
Eu321 O343 2.500 . S
Eu321 O344 2.473 . S
C322 O319 1.255 . S
C322 O323 1.247 . S
O323 C322 1.247 . S
C324 O336 1.242 . S
C324 O337 1.258 . S
O325 Eu321 2.292 . S
O325 C327 1.255 . S
C326 Eu321 2.852 . S
C326 C330 1.503 . S
C326 O343 1.273 . S
C326 O344 1.257 . S
C327 O325 1.255 . S
C327 O328 1.247 . S
O328 C327 1.247 . S
C329 O341 1.242 . S
C329 O342 1.258 . S
C330 C326 1.503 . S
C330 C331 1.379 . S
C330 C335 1.392 . S
C331 C330 1.379 . S
C331 C332 1.404 . S
C331 H345 0.929 . S
C332 C331 1.404 . S
C332 C333 1.389 . S
C333 C332 1.389 . S
C333 C334 1.399 . S
C333 H346 0.931 . S
C334 C333 1.399 . S
C334 C335 1.390 . S
C335 C330 1.392 . S
C335 C334 1.390 . S
C335 H347 0.929 . S
O336 Tb320 2.326 . S
O336 C324 1.242 . S
O337 Eu321 2.324 . S
O337 C324 1.258 . S
O338 Tb320 2.500 . S
O338 C340 1.273 . S
O339 Tb320 2.473 . S
O339 C340 1.257 . S
C340 O338 1.273 . S
C340 O339 1.257 . S
O341 Eu321 2.326 . S
O341 C329 1.242 . S
O342 Tb320 2.324 . S
O342 C329 1.258 . S
O343 Eu321 2.500 . S
O343 C326 1.273 . S
O344 Eu321 2.473 . S
O344 C326 1.257 . S
H345 C331 0.929 . S
H346 C333 0.931 . S
H347 C335 0.929 . S
O348 Tb349 2.292 . S
O348 C351 1.255 . S
Tb349 O348 2.292 . S
Tb349 O365 2.326 . S
Tb349 O367 2.500 . S
Tb349 O368 2.473 . S
Tb349 O371 2.324 . S
Eu350 O354 2.292 . S
Eu350 C355 2.852 . S
Eu350 O366 2.324 . S
Eu350 O370 2.326 . S
Eu350 O372 2.500 . S
Eu350 O373 2.473 . S
C351 O348 1.255 . S
C351 O352 1.247 . S
O352 C351 1.247 . S
C353 O365 1.242 . S
C353 O366 1.258 . S
O354 Eu350 2.292 . S
O354 C356 1.255 . S
C355 Eu350 2.852 . S
C355 C359 1.503 . S
C355 O372 1.273 . S
C355 O373 1.257 . S
C356 O354 1.255 . S
C356 O357 1.247 . S
O357 C356 1.247 . S
C358 O370 1.242 . S
C358 O371 1.258 . S
C359 C355 1.503 . S
C359 C360 1.379 . S
C359 C364 1.392 . S
C360 C359 1.379 . S
C360 C361 1.404 . S
C360 H374 0.929 . S
C361 C360 1.404 . S
C361 C362 1.389 . S
C362 C361 1.389 . S
C362 C363 1.399 . S
C362 H375 0.931 . S
C363 C362 1.399 . S
C363 C364 1.390 . S
C364 C359 1.392 . S
C364 C363 1.390 . S
C364 H376 0.929 . S
O365 Tb349 2.326 . S
O365 C353 1.242 . S
O366 Eu350 2.324 . S
O366 C353 1.258 . S
O367 Tb349 2.500 . S
O367 C369 1.273 . S
O368 Tb349 2.473 . S
O368 C369 1.257 . S
C369 O367 1.273 . S
C369 O368 1.257 . S
O370 Eu350 2.326 . S
O370 C358 1.242 . S
O371 Tb349 2.324 . S
O371 C358 1.258 . S
O372 Eu350 2.500 . S
O372 C355 1.273 . S
O373 Eu350 2.473 . S
O373 C355 1.257 . S
H374 C360 0.929 . S
H375 C362 0.931 . S
H376 C364 0.929 . S
O377 Tb378 2.292 . S
O377 C380 1.255 . S
Tb378 O377 2.292 . S
Tb378 O394 2.326 . S
Tb378 O396 2.500 . S
Tb378 O397 2.473 . S
Tb378 O400 2.324 . S
Eu379 O383 2.292 . S
Eu379 C384 2.852 . S
Eu379 O395 2.324 . S
Eu379 O399 2.326 . S
Eu379 O401 2.500 . S
Eu379 O402 2.473 . S
C380 O377 1.255 . S
C380 O381 1.247 . S
O381 C380 1.247 . S
C382 O394 1.242 . S
C382 O395 1.258 . S
O383 Eu379 2.292 . S
O383 C385 1.255 . S
C384 Eu379 2.852 . S
C384 C388 1.503 . S
C384 O401 1.273 . S
C384 O402 1.257 . S
C385 O383 1.255 . S
C385 O386 1.247 . S
O386 C385 1.247 . S
C387 O399 1.242 . S
C387 O400 1.258 . S
C388 C384 1.503 . S
C388 C389 1.379 . S
C388 C393 1.392 . S
C389 C388 1.379 . S
C389 C390 1.404 . S
C389 H403 0.929 . S
C390 C389 1.404 . S
C390 C391 1.389 . S
C391 C390 1.389 . S
C391 C392 1.399 . S
C391 H404 0.931 . S
C392 C391 1.399 . S
C392 C393 1.390 . S
C393 C388 1.392 . S
C393 C392 1.390 . S
C393 H405 0.929 . S
O394 Tb378 2.326 . S
O394 C382 1.242 . S
O395 Eu379 2.324 . S
O395 C382 1.258 . S
O396 Tb378 2.500 . S
O396 C398 1.273 . S
O397 Tb378 2.473 . S
O397 C398 1.257 . S
C398 O396 1.273 . S
C398 O397 1.257 . S
O399 Eu379 2.326 . S
O399 C387 1.242 . S
O400 Tb378 2.324 . S
O400 C387 1.258 . S
O401 Eu379 2.500 . S
O401 C384 1.273 . S
O402 Eu379 2.473 . S
O402 C384 1.257 . S
H403 C389 0.929 . S
H404 C391 0.931 . S
H405 C393 0.929 . S
O406 Tb407 2.292 . S
O406 C409 1.255 . S
Tb407 O406 2.292 . S
Tb407 O423 2.326 . S
Tb407 O425 2.500 . S
Tb407 O426 2.473 . S
Tb407 O429 2.324 . S
Eu408 O412 2.292 . S
Eu408 C413 2.852 . S
Eu408 O424 2.324 . S
Eu408 O428 2.326 . S
Eu408 O430 2.500 . S
Eu408 O431 2.473 . S
C409 O406 1.255 . S
C409 O410 1.247 . S
O410 C409 1.247 . S
C411 O423 1.242 . S
C411 O424 1.258 . S
O412 Eu408 2.292 . S
O412 C414 1.255 . S
C413 Eu408 2.852 . S
C413 C417 1.503 . S
C413 O430 1.273 . S
C413 O431 1.257 . S
C414 O412 1.255 . S
C414 O415 1.247 . S
O415 C414 1.247 . S
C416 O428 1.242 . S
C416 O429 1.258 . S
C417 C413 1.503 . S
C417 C418 1.379 . S
C417 C422 1.392 . S
C418 C417 1.379 . S
C418 C419 1.404 . S
C418 H432 0.929 . S
C419 C418 1.404 . S
C419 C420 1.389 . S
C420 C419 1.389 . S
C420 C421 1.399 . S
C420 H433 0.931 . S
C421 C420 1.399 . S
C421 C422 1.390 . S
C422 C417 1.392 . S
C422 C421 1.390 . S
C422 H434 0.929 . S
O423 Tb407 2.326 . S
O423 C411 1.242 . S
O424 Eu408 2.324 . S
O424 C411 1.258 . S
O425 Tb407 2.500 . S
O425 C427 1.273 . S
O426 Tb407 2.473 . S
O426 C427 1.257 . S
C427 O425 1.273 . S
C427 O426 1.257 . S
O428 Eu408 2.326 . S
O428 C416 1.242 . S
O429 Tb407 2.324 . S
O429 C416 1.258 . S
O430 Eu408 2.500 . S
O430 C413 1.273 . S
O431 Eu408 2.473 . S
O431 C413 1.257 . S
H432 C418 0.929 . S
H433 C420 0.931 . S
H434 C422 0.929 . S
O435 Tb436 2.292 . S
O435 C438 1.255 . S
Tb436 O435 2.292 . S
Tb436 O452 2.326 . S
Tb436 O454 2.500 . S
Tb436 O455 2.473 . S
Tb436 O458 2.324 . S
Eu437 O441 2.292 . S
Eu437 C442 2.852 . S
Eu437 O453 2.324 . S
Eu437 O457 2.326 . S
Eu437 O459 2.500 . S
Eu437 O460 2.473 . S
C438 O435 1.255 . S
C438 O439 1.247 . S
O439 C438 1.247 . S
C440 O452 1.242 . S
C440 O453 1.258 . S
O441 Eu437 2.292 . S
O441 C443 1.255 . S
C442 Eu437 2.852 . S
C442 C446 1.503 . S
C442 O459 1.273 . S
C442 O460 1.257 . S
C443 O441 1.255 . S
C443 O444 1.247 . S
O444 C443 1.247 . S
C445 O457 1.242 . S
C445 O458 1.258 . S
C446 C442 1.503 . S
C446 C447 1.379 . S
C446 C451 1.392 . S
C447 C446 1.379 . S
C447 C448 1.404 . S
C447 H461 0.929 . S
C448 C447 1.404 . S
C448 C449 1.389 . S
C449 C448 1.389 . S
C449 C450 1.399 . S
C449 H462 0.931 . S
C450 C449 1.399 . S
C450 C451 1.390 . S
C451 C446 1.392 . S
C451 C450 1.390 . S
C451 H463 0.929 . S
O452 Tb436 2.326 . S
O452 C440 1.242 . S
O453 Eu437 2.324 . S
O453 C440 1.258 . S
O454 Tb436 2.500 . S
O454 C456 1.273 . S
O455 Tb436 2.473 . S
O455 C456 1.257 . S
C456 O454 1.273 . S
C456 O455 1.257 . S
O457 Eu437 2.326 . S
O457 C445 1.242 . S
O458 Tb436 2.324 . S
O458 C445 1.258 . S
O459 Eu437 2.500 . S
O459 C442 1.273 . S
O460 Eu437 2.473 . S
O460 C442 1.257 . S
H461 C447 0.929 . S
H462 C449 0.931 . S
H463 C451 0.929 . S
O464 Tb465 2.292 . S
O464 C467 1.255 . S
Tb465 O464 2.292 . S
Tb465 O481 2.326 . S
Tb465 O483 2.500 . S
Tb465 O484 2.473 . S
Tb465 O487 2.324 . S
Eu466 O470 2.292 . S
Eu466 C471 2.852 . S
Eu466 O482 2.324 . S
Eu466 O486 2.326 . S
Eu466 O488 2.500 . S
Eu466 O489 2.473 . S
C467 O464 1.255 . S
C467 O468 1.247 . S
O468 C467 1.247 . S
C469 O481 1.242 . S
C469 O482 1.258 . S
O470 Eu466 2.292 . S
O470 C472 1.255 . S
C471 Eu466 2.852 . S
C471 C475 1.503 . S
C471 O488 1.273 . S
C471 O489 1.257 . S
C472 O470 1.255 . S
C472 O473 1.247 . S
O473 C472 1.247 . S
C474 O486 1.242 . S
C474 O487 1.258 . S
C475 C471 1.503 . S
C475 C476 1.379 . S
C475 C480 1.392 . S
C476 C475 1.379 . S
C476 C477 1.404 . S
C476 H490 0.929 . S
C477 C476 1.404 . S
C477 C478 1.389 . S
C478 C477 1.389 . S
C478 C479 1.399 . S
C478 H491 0.931 . S
C479 C478 1.399 . S
C479 C480 1.390 . S
C480 C475 1.392 . S
C480 C479 1.390 . S
C480 H492 0.929 . S
O481 Tb465 2.326 . S
O481 C469 1.242 . S
O482 Eu466 2.324 . S
O482 C469 1.258 . S
O483 Tb465 2.500 . S
O483 C485 1.273 . S
O484 Tb465 2.473 . S
O484 C485 1.257 . S
C485 O483 1.273 . S
C485 O484 1.257 . S
O486 Eu466 2.326 . S
O486 C474 1.242 . S
O487 Tb465 2.324 . S
O487 C474 1.258 . S
O488 Eu466 2.500 . S
O488 C471 1.273 . S
O489 Eu466 2.473 . S
O489 C471 1.257 . S
H490 C476 0.929 . S
H491 C478 0.931 . S
H492 C480 0.929 . S
O493 Tb494 2.292 . S
O493 C496 1.255 . S
Tb494 O493 2.292 . S
Tb494 O510 2.326 . S
Tb494 O512 2.500 . S
Tb494 O513 2.473 . S
Tb494 O516 2.324 . S
Eu495 O499 2.292 . S
Eu495 C500 2.852 . S
Eu495 O511 2.324 . S
Eu495 O515 2.326 . S
Eu495 O517 2.500 . S
Eu495 O518 2.473 . S
C496 O493 1.255 . S
C496 O497 1.247 . S
O497 C496 1.247 . S
C498 O510 1.242 . S
C498 O511 1.258 . S
O499 Eu495 2.292 . S
O499 C501 1.255 . S
C500 Eu495 2.852 . S
C500 C504 1.503 . S
C500 O517 1.273 . S
C500 O518 1.257 . S
C501 O499 1.255 . S
C501 O502 1.247 . S
O502 C501 1.247 . S
C503 O515 1.242 . S
C503 O516 1.258 . S
C504 C500 1.503 . S
C504 C505 1.379 . S
C504 C509 1.392 . S
C505 C504 1.379 . S
C505 C506 1.404 . S
C505 H519 0.929 . S
C506 C505 1.404 . S
C506 C507 1.389 . S
C507 C506 1.389 . S
C507 C508 1.399 . S
C507 H520 0.931 . S
C508 C507 1.399 . S
C508 C509 1.390 . S
C509 C504 1.392 . S
C509 C508 1.390 . S
C509 H521 0.929 . S
O510 Tb494 2.326 . S
O510 C498 1.242 . S
O511 Eu495 2.324 . S
O511 C498 1.258 . S
O512 Tb494 2.500 . S
O512 C514 1.273 . S
O513 Tb494 2.473 . S
O513 C514 1.257 . S
C514 O512 1.273 . S
C514 O513 1.257 . S
O515 Eu495 2.326 . S
O515 C503 1.242 . S
O516 Tb494 2.324 . S
O516 C503 1.258 . S
O517 Eu495 2.500 . S
O517 C500 1.273 . S
O518 Eu495 2.473 . S
O518 C500 1.257 . S
H519 C505 0.929 . S
H520 C507 0.931 . S
H521 C509 0.929 . S
O522 Tb523 2.292 . S
O522 C525 1.255 . S
Tb523 O522 2.292 . S
Tb523 O539 2.326 . S
Tb523 O541 2.500 . S
Tb523 O542 2.473 . S
Tb523 O545 2.324 . S
Eu524 O528 2.292 . S
Eu524 C529 2.852 . S
Eu524 O540 2.324 . S
Eu524 O544 2.326 . S
Eu524 O546 2.500 . S
Eu524 O547 2.473 . S
C525 O522 1.255 . S
C525 O526 1.247 . S
O526 C525 1.247 . S
C527 O539 1.242 . S
C527 O540 1.258 . S
O528 Eu524 2.292 . S
O528 C530 1.255 . S
C529 Eu524 2.852 . S
C529 C533 1.503 . S
C529 O546 1.273 . S
C529 O547 1.257 . S
C530 O528 1.255 . S
C530 O531 1.247 . S
O531 C530 1.247 . S
C532 O544 1.242 . S
C532 O545 1.258 . S
C533 C529 1.503 . S
C533 C534 1.379 . S
C533 C538 1.392 . S
C534 C533 1.379 . S
C534 C535 1.404 . S
C534 H548 0.929 . S
C535 C534 1.404 . S
C535 C536 1.389 . S
C536 C535 1.389 . S
C536 C537 1.399 . S
C536 H549 0.931 . S
C537 C536 1.399 . S
C537 C538 1.390 . S
C538 C533 1.392 . S
C538 C537 1.390 . S
C538 H550 0.929 . S
O539 Tb523 2.326 . S
O539 C527 1.242 . S
O540 Eu524 2.324 . S
O540 C527 1.258 . S
O541 Tb523 2.500 . S
O541 C543 1.273 . S
O542 Tb523 2.473 . S
O542 C543 1.257 . S
C543 O541 1.273 . S
C543 O542 1.257 . S
O544 Eu524 2.326 . S
O544 C532 1.242 . S
O545 Tb523 2.324 . S
O545 C532 1.258 . S
O546 Eu524 2.500 . S
O546 C529 1.273 . S
O547 Eu524 2.473 . S
O547 C529 1.257 . S
H548 C534 0.929 . S
H549 C536 0.931 . S
H550 C538 0.929 . S
O551 Tb552 2.292 . S
O551 C554 1.255 . S
Tb552 O551 2.292 . S
Tb552 O568 2.326 . S
Tb552 O570 2.500 . S
Tb552 O571 2.473 . S
Tb552 O574 2.324 . S
Eu553 O557 2.292 . S
Eu553 C558 2.852 . S
Eu553 O569 2.324 . S
Eu553 O573 2.326 . S
Eu553 O575 2.500 . S
Eu553 O576 2.473 . S
C554 O551 1.255 . S
C554 O555 1.247 . S
O555 C554 1.247 . S
C556 O568 1.242 . S
C556 O569 1.258 . S
O557 Eu553 2.292 . S
O557 C559 1.255 . S
C558 Eu553 2.852 . S
C558 C562 1.503 . S
C558 O575 1.273 . S
C558 O576 1.257 . S
C559 O557 1.255 . S
C559 O560 1.247 . S
O560 C559 1.247 . S
C561 O573 1.242 . S
C561 O574 1.258 . S
C562 C558 1.503 . S
C562 C563 1.379 . S
C562 C567 1.392 . S
C563 C562 1.379 . S
C563 C564 1.404 . S
C563 H577 0.929 . S
C564 C563 1.404 . S
C564 C565 1.389 . S
C565 C564 1.389 . S
C565 C566 1.399 . S
C565 H578 0.931 . S
C566 C565 1.399 . S
C566 C567 1.390 . S
C567 C562 1.392 . S
C567 C566 1.390 . S
C567 H579 0.929 . S
O568 Tb552 2.326 . S
O568 C556 1.242 . S
O569 Eu553 2.324 . S
O569 C556 1.258 . S
O570 Tb552 2.500 . S
O570 C572 1.273 . S
O571 Tb552 2.473 . S
O571 C572 1.257 . S
C572 O570 1.273 . S
C572 O571 1.257 . S
O573 Eu553 2.326 . S
O573 C561 1.242 . S
O574 Tb552 2.324 . S
O574 C561 1.258 . S
O575 Eu553 2.500 . S
O575 C558 1.273 . S
O576 Eu553 2.473 . S
O576 C558 1.257 . S
H577 C563 0.929 . S
H578 C565 0.931 . S
H579 C567 0.929 . S
O580 Tb581 2.292 . S
O580 C583 1.255 . S
Tb581 O580 2.292 . S
Tb581 O597 2.326 . S
Tb581 O599 2.500 . S
Tb581 O600 2.473 . S
Tb581 O603 2.324 . S
Eu582 O586 2.292 . S
Eu582 C587 2.852 . S
Eu582 O598 2.324 . S
Eu582 O602 2.326 . S
Eu582 O604 2.500 . S
Eu582 O605 2.473 . S
C583 O580 1.255 . S
C583 O584 1.247 . S
O584 C583 1.247 . S
C585 O597 1.242 . S
C585 O598 1.258 . S
O586 Eu582 2.292 . S
O586 C588 1.255 . S
C587 Eu582 2.852 . S
C587 C591 1.503 . S
C587 O604 1.273 . S
C587 O605 1.257 . S
C588 O586 1.255 . S
C588 O589 1.247 . S
O589 C588 1.247 . S
C590 O602 1.242 . S
C590 O603 1.258 . S
C591 C587 1.503 . S
C591 C592 1.379 . S
C591 C596 1.392 . S
C592 C591 1.379 . S
C592 C593 1.404 . S
C592 H606 0.929 . S
C593 C592 1.404 . S
C593 C594 1.389 . S
C594 C593 1.389 . S
C594 C595 1.399 . S
C594 H607 0.931 . S
C595 C594 1.399 . S
C595 C596 1.390 . S
C596 C591 1.392 . S
C596 C595 1.390 . S
C596 H608 0.929 . S
O597 Tb581 2.326 . S
O597 C585 1.242 . S
O598 Eu582 2.324 . S
O598 C585 1.258 . S
O599 Tb581 2.500 . S
O599 C601 1.273 . S
O600 Tb581 2.473 . S
O600 C601 1.257 . S
C601 O599 1.273 . S
C601 O600 1.257 . S
O602 Eu582 2.326 . S
O602 C590 1.242 . S
O603 Tb581 2.324 . S
O603 C590 1.258 . S
O604 Eu582 2.500 . S
O604 C587 1.273 . S
O605 Eu582 2.473 . S
O605 C587 1.257 . S
H606 C592 0.929 . S
H607 C594 0.931 . S
H608 C596 0.929 . S
O609 Tb610 2.292 . S
O609 C612 1.255 . S
Tb610 O609 2.292 . S
Tb610 O626 2.326 . S
Tb610 O628 2.500 . S
Tb610 O629 2.473 . S
Tb610 O632 2.324 . S
Eu611 O615 2.292 . S
Eu611 C616 2.852 . S
Eu611 O627 2.324 . S
Eu611 O631 2.326 . S
Eu611 O633 2.500 . S
Eu611 O634 2.473 . S
C612 O609 1.255 . S
C612 O613 1.247 . S
O613 C612 1.247 . S
C614 O626 1.242 . S
C614 O627 1.258 . S
O615 Eu611 2.292 . S
O615 C617 1.255 . S
C616 Eu611 2.852 . S
C616 C620 1.503 . S
C616 O633 1.273 . S
C616 O634 1.257 . S
C617 O615 1.255 . S
C617 O618 1.247 . S
O618 C617 1.247 . S
C619 O631 1.242 . S
C619 O632 1.258 . S
C620 C616 1.503 . S
C620 C621 1.379 . S
C620 C625 1.392 . S
C621 C620 1.379 . S
C621 C622 1.404 . S
C621 H635 0.929 . S
C622 C621 1.404 . S
C622 C623 1.389 . S
C623 C622 1.389 . S
C623 C624 1.399 . S
C623 H636 0.931 . S
C624 C623 1.399 . S
C624 C625 1.390 . S
C625 C620 1.392 . S
C625 C624 1.390 . S
C625 H637 0.929 . S
O626 Tb610 2.326 . S
O626 C614 1.242 . S
O627 Eu611 2.324 . S
O627 C614 1.258 . S
O628 Tb610 2.500 . S
O628 C630 1.273 . S
O629 Tb610 2.473 . S
O629 C630 1.257 . S
C630 O628 1.273 . S
C630 O629 1.257 . S
O631 Eu611 2.326 . S
O631 C619 1.242 . S
O632 Tb610 2.324 . S
O632 C619 1.258 . S
O633 Eu611 2.500 . S
O633 C616 1.273 . S
O634 Eu611 2.473 . S
O634 C616 1.257 . S
H635 C621 0.929 . S
H636 C623 0.931 . S
H637 C625 0.929 . S
O638 Tb639 2.292 . S
O638 C641 1.255 . S
Tb639 O638 2.292 . S
Tb639 O655 2.326 . S
Tb639 O657 2.500 . S
Tb639 O658 2.473 . S
Tb639 O661 2.324 . S
Eu640 O644 2.292 . S
Eu640 C645 2.852 . S
Eu640 O656 2.324 . S
Eu640 O660 2.326 . S
Eu640 O662 2.500 . S
Eu640 O663 2.473 . S
C641 O638 1.255 . S
C641 O642 1.247 . S
O642 C641 1.247 . S
C643 O655 1.242 . S
C643 O656 1.258 . S
O644 Eu640 2.292 . S
O644 C646 1.255 . S
C645 Eu640 2.852 . S
C645 C649 1.503 . S
C645 O662 1.273 . S
C645 O663 1.257 . S
C646 O644 1.255 . S
C646 O647 1.247 . S
O647 C646 1.247 . S
C648 O660 1.242 . S
C648 O661 1.258 . S
C649 C645 1.503 . S
C649 C650 1.379 . S
C649 C654 1.392 . S
C650 C649 1.379 . S
C650 C651 1.404 . S
C650 H664 0.929 . S
C651 C650 1.404 . S
C651 C652 1.389 . S
C652 C651 1.389 . S
C652 C653 1.399 . S
C652 H665 0.931 . S
C653 C652 1.399 . S
C653 C654 1.390 . S
C654 C649 1.392 . S
C654 C653 1.390 . S
C654 H666 0.929 . S
O655 Tb639 2.326 . S
O655 C643 1.242 . S
O656 Eu640 2.324 . S
O656 C643 1.258 . S
O657 Tb639 2.500 . S
O657 C659 1.273 . S
O658 Tb639 2.473 . S
O658 C659 1.257 . S
C659 O657 1.273 . S
C659 O658 1.257 . S
O660 Eu640 2.326 . S
O660 C648 1.242 . S
O661 Tb639 2.324 . S
O661 C648 1.258 . S
O662 Eu640 2.500 . S
O662 C645 1.273 . S
O663 Eu640 2.473 . S
O663 C645 1.257 . S
H664 C650 0.929 . S
H665 C652 0.931 . S
H666 C654 0.929 . S
O667 Tb668 2.292 . S
O667 C670 1.255 . S
Tb668 O667 2.292 . S
Tb668 O684 2.326 . S
Tb668 O686 2.500 . S
Tb668 O687 2.473 . S
Tb668 O690 2.324 . S
Eu669 O673 2.292 . S
Eu669 C674 2.852 . S
Eu669 O685 2.324 . S
Eu669 O689 2.326 . S
Eu669 O691 2.500 . S
Eu669 O692 2.473 . S
C670 O667 1.255 . S
C670 O671 1.247 . S
O671 C670 1.247 . S
C672 O684 1.242 . S
C672 O685 1.258 . S
O673 Eu669 2.292 . S
O673 C675 1.255 . S
C674 Eu669 2.852 . S
C674 C678 1.503 . S
C674 O691 1.273 . S
C674 O692 1.257 . S
C675 O673 1.255 . S
C675 O676 1.247 . S
O676 C675 1.247 . S
C677 O689 1.242 . S
C677 O690 1.258 . S
C678 C674 1.503 . S
C678 C679 1.379 . S
C678 C683 1.392 . S
C679 C678 1.379 . S
C679 C680 1.404 . S
C679 H693 0.929 . S
C680 C679 1.404 . S
C680 C681 1.389 . S
C681 C680 1.389 . S
C681 C682 1.399 . S
C681 H694 0.931 . S
C682 C681 1.399 . S
C682 C683 1.390 . S
C683 C678 1.392 . S
C683 C682 1.390 . S
C683 H695 0.929 . S
O684 Tb668 2.326 . S
O684 C672 1.242 . S
O685 Eu669 2.324 . S
O685 C672 1.258 . S
O686 Tb668 2.500 . S
O686 C688 1.273 . S
O687 Tb668 2.473 . S
O687 C688 1.257 . S
C688 O686 1.273 . S
C688 O687 1.257 . S
O689 Eu669 2.326 . S
O689 C677 1.242 . S
O690 Tb668 2.324 . S
O690 C677 1.258 . S
O691 Eu669 2.500 . S
O691 C674 1.273 . S
O692 Eu669 2.473 . S
O692 C674 1.257 . S
H693 C679 0.929 . S
H694 C681 0.931 . S
H695 C683 0.929 . S
O696 Tb697 2.292 . S
O696 C699 1.255 . S
Tb697 O696 2.292 . S
Tb697 O713 2.326 . S
Tb697 O715 2.500 . S
Tb697 O716 2.473 . S
Tb697 O719 2.324 . S
Eu698 O702 2.292 . S
Eu698 C703 2.852 . S
Eu698 O714 2.324 . S
Eu698 O718 2.326 . S
Eu698 O720 2.500 . S
Eu698 O721 2.473 . S
C699 O696 1.255 . S
C699 O700 1.247 . S
O700 C699 1.247 . S
C701 O713 1.242 . S
C701 O714 1.258 . S
O702 Eu698 2.292 . S
O702 C704 1.255 . S
C703 Eu698 2.852 . S
C703 C707 1.503 . S
C703 O720 1.273 . S
C703 O721 1.257 . S
C704 O702 1.255 . S
C704 O705 1.247 . S
O705 C704 1.247 . S
C706 O718 1.242 . S
C706 O719 1.258 . S
C707 C703 1.503 . S
C707 C708 1.379 . S
C707 C712 1.392 . S
C708 C707 1.379 . S
C708 C709 1.404 1_554 S
C708 H722 0.929 . S
C709 C708 1.404 1_556 S
C709 C710 1.389 . S
C710 C709 1.389 . S
C710 C711 1.399 . S
C710 H723 0.931 . S
C711 C710 1.399 . S
C711 C712 1.390 1_556 S
C712 C707 1.392 . S
C712 C711 1.390 1_554 S
C712 H724 0.929 . S
O713 Tb697 2.326 . S
O713 C701 1.242 . S
O714 Eu698 2.324 . S
O714 C701 1.258 . S
O715 Tb697 2.500 . S
O715 C717 1.273 . S
O716 Tb697 2.473 . S
O716 C717 1.257 . S
C717 O715 1.273 . S
C717 O716 1.257 . S
O718 Eu698 2.326 . S
O718 C706 1.242 . S
O719 Tb697 2.324 . S
O719 C706 1.258 . S
O720 Eu698 2.500 . S
O720 C703 1.273 . S
O721 Eu698 2.473 . S
O721 C703 1.257 . S
H722 C708 0.929 . S
H723 C710 0.931 . S
H724 C712 0.929 . S
O725 Tb726 2.292 . S
O725 C728 1.255 . S
Tb726 O725 2.292 . S
Tb726 O742 2.326 . S
Tb726 O744 2.500 . S
Tb726 O745 2.473 . S
Tb726 O748 2.324 . S
Eu727 O731 2.292 . S
Eu727 C732 2.852 . S
Eu727 O743 2.324 . S
Eu727 O747 2.326 . S
Eu727 O749 2.500 . S
Eu727 O750 2.473 . S
C728 O725 1.255 . S
C728 O729 1.247 . S
O729 C728 1.247 . S
C730 O742 1.242 . S
C730 O743 1.258 . S
O731 Eu727 2.292 . S
O731 C733 1.255 . S
C732 Eu727 2.852 . S
C732 C736 1.503 . S
C732 O749 1.273 . S
C732 O750 1.257 . S
C733 O731 1.255 . S
C733 O734 1.247 . S
O734 C733 1.247 . S
C735 O747 1.242 . S
C735 O748 1.258 . S
C736 C732 1.503 . S
C736 C737 1.379 . S
C736 C741 1.392 . S
C737 C736 1.379 . S
C737 C738 1.404 1_554 S
C737 H751 0.929 . S
C738 C737 1.404 1_556 S
C738 C739 1.389 . S
C739 C738 1.389 . S
C739 C740 1.399 . S
C739 H752 0.931 . S
C740 C739 1.399 . S
C740 C741 1.390 1_556 S
C741 C736 1.392 . S
C741 C740 1.390 1_554 S
C741 H753 0.929 . S
O742 Tb726 2.326 . S
O742 C730 1.242 . S
O743 Eu727 2.324 . S
O743 C730 1.258 . S
O744 Tb726 2.500 . S
O744 C746 1.273 . S
O745 Tb726 2.473 . S
O745 C746 1.257 . S
C746 O744 1.273 . S
C746 O745 1.257 . S
O747 Eu727 2.326 . S
O747 C735 1.242 . S
O748 Tb726 2.324 . S
O748 C735 1.258 . S
O749 Eu727 2.500 . S
O749 C732 1.273 . S
O750 Eu727 2.473 . S
O750 C732 1.257 . S
H751 C737 0.929 . S
H752 C739 0.931 . S
H753 C741 0.929 . S
O754 Tb755 2.292 . S
O754 C757 1.255 . S
Tb755 O754 2.292 . S
Tb755 O771 2.326 . S
Tb755 O773 2.500 . S
Tb755 O774 2.473 . S
Tb755 O777 2.324 . S
Eu756 O760 2.292 . S
Eu756 C761 2.852 . S
Eu756 O772 2.324 . S
Eu756 O776 2.326 . S
Eu756 O778 2.500 . S
Eu756 O779 2.473 . S
C757 O754 1.255 . S
C757 O758 1.247 . S
O758 C757 1.247 . S
C759 O771 1.242 . S
C759 O772 1.258 . S
O760 Eu756 2.292 . S
O760 C762 1.255 . S
C761 Eu756 2.852 . S
C761 C765 1.503 . S
C761 O778 1.273 . S
C761 O779 1.257 . S
C762 O760 1.255 . S
C762 O763 1.247 . S
O763 C762 1.247 . S
C764 O776 1.242 . S
C764 O777 1.258 . S
C765 C761 1.503 . S
C765 C766 1.379 . S
C765 C770 1.392 . S
C766 C765 1.379 . S
C766 C767 1.404 . S
C766 H780 0.929 . S
C767 C766 1.404 . S
C767 C768 1.389 . S
C768 C767 1.389 . S
C768 C769 1.399 . S
C768 H781 0.931 . S
C769 C768 1.399 . S
C769 C770 1.390 . S
C770 C765 1.392 . S
C770 C769 1.390 . S
C770 H782 0.929 . S
O771 Tb755 2.326 . S
O771 C759 1.242 . S
O772 Eu756 2.324 . S
O772 C759 1.258 . S
O773 Tb755 2.500 . S
O773 C775 1.273 . S
O774 Tb755 2.473 . S
O774 C775 1.257 . S
C775 O773 1.273 . S
C775 O774 1.257 . S
O776 Eu756 2.326 . S
O776 C764 1.242 . S
O777 Tb755 2.324 . S
O777 C764 1.258 . S
O778 Eu756 2.500 . S
O778 C761 1.273 . S
O779 Eu756 2.473 . S
O779 C761 1.257 . S
H780 C766 0.929 . S
H781 C768 0.931 . S
H782 C770 0.929 . S
O783 Tb784 2.292 . S
O783 C786 1.255 . S
Tb784 O783 2.292 . S
Tb784 O800 2.326 . S
Tb784 O802 2.500 . S
Tb784 O803 2.473 . S
Tb784 O806 2.324 . S
Eu785 O789 2.292 . S
Eu785 C790 2.852 . S
Eu785 O801 2.324 . S
Eu785 O805 2.326 . S
Eu785 O807 2.500 . S
Eu785 O808 2.473 . S
C786 O783 1.255 . S
C786 O787 1.247 . S
O787 C786 1.247 . S
C788 O800 1.242 . S
C788 O801 1.258 . S
O789 Eu785 2.292 . S
O789 C791 1.255 . S
C790 Eu785 2.852 . S
C790 C794 1.503 . S
C790 O807 1.273 . S
C790 O808 1.257 . S
C791 O789 1.255 . S
C791 O792 1.247 . S
O792 C791 1.247 . S
C793 O805 1.242 . S
C793 O806 1.258 . S
C794 C790 1.503 . S
C794 C795 1.379 . S
C794 C799 1.392 . S
C795 C794 1.379 . S
C795 C796 1.404 . S
C795 H809 0.929 . S
C796 C795 1.404 . S
C796 C797 1.389 . S
C797 C796 1.389 . S
C797 C798 1.399 . S
C797 H810 0.931 . S
C798 C797 1.399 . S
C798 C799 1.390 . S
C799 C794 1.392 . S
C799 C798 1.390 . S
C799 H811 0.929 . S
O800 Tb784 2.326 . S
O800 C788 1.242 . S
O801 Eu785 2.324 . S
O801 C788 1.258 . S
O802 Tb784 2.500 . S
O802 C804 1.273 . S
O803 Tb784 2.473 . S
O803 C804 1.257 . S
C804 O802 1.273 . S
C804 O803 1.257 . S
O805 Eu785 2.326 . S
O805 C793 1.242 . S
O806 Tb784 2.324 . S
O806 C793 1.258 . S
O807 Eu785 2.500 . S
O807 C790 1.273 . S
O808 Eu785 2.473 . S
O808 C790 1.257 . S
H809 C795 0.929 . S
H810 C797 0.931 . S
H811 C799 0.929 . S
O812 Tb813 2.292 . S
O812 C815 1.255 . S
Tb813 O812 2.292 . S
Tb813 O829 2.326 . S
Tb813 O831 2.500 . S
Tb813 O832 2.473 . S
Tb813 O835 2.324 . S
Eu814 O818 2.292 . S
Eu814 C819 2.852 . S
Eu814 O830 2.324 . S
Eu814 O834 2.326 . S
Eu814 O836 2.500 . S
Eu814 O837 2.473 . S
C815 O812 1.255 . S
C815 O816 1.247 . S
O816 C815 1.247 . S
C817 O829 1.242 . S
C817 O830 1.258 . S
O818 Eu814 2.292 . S
O818 C820 1.255 . S
C819 Eu814 2.852 . S
C819 C823 1.503 . S
C819 O836 1.273 . S
C819 O837 1.257 . S
C820 O818 1.255 . S
C820 O821 1.247 . S
O821 C820 1.247 . S
C822 O834 1.242 . S
C822 O835 1.258 . S
C823 C819 1.503 . S
C823 C824 1.379 . S
C823 C828 1.392 . S
C824 C823 1.379 . S
C824 C825 1.404 1_556 S
C824 H838 0.929 . S
C825 C824 1.404 1_554 S
C825 C826 1.389 . S
C826 C825 1.389 . S
C826 C827 1.399 . S
C826 H839 0.931 . S
C827 C826 1.399 . S
C827 C828 1.390 1_554 S
C828 C823 1.392 . S
C828 C827 1.390 1_556 S
C828 H840 0.929 . S
O829 Tb813 2.326 . S
O829 C817 1.242 . S
O830 Eu814 2.324 . S
O830 C817 1.258 . S
O831 Tb813 2.500 . S
O831 C833 1.273 . S
O832 Tb813 2.473 . S
O832 C833 1.257 . S
C833 O831 1.273 . S
C833 O832 1.257 . S
O834 Eu814 2.326 . S
O834 C822 1.242 . S
O835 Tb813 2.324 . S
O835 C822 1.258 . S
O836 Eu814 2.500 . S
O836 C819 1.273 . S
O837 Eu814 2.473 . S
O837 C819 1.257 . S
H838 C824 0.929 . S
H839 C826 0.931 . S
H840 C828 0.929 . S
O841 Tb842 2.292 . S
O841 C844 1.255 . S
Tb842 O841 2.292 . S
Tb842 O858 2.326 . S
Tb842 O860 2.500 . S
Tb842 O861 2.473 . S
Tb842 O864 2.324 . S
Eu843 O847 2.292 . S
Eu843 C848 2.852 . S
Eu843 O859 2.324 . S
Eu843 O863 2.326 . S
Eu843 O865 2.500 . S
Eu843 O866 2.473 . S
C844 O841 1.255 . S
C844 O845 1.247 . S
O845 C844 1.247 . S
C846 O858 1.242 . S
C846 O859 1.258 . S
O847 Eu843 2.292 . S
O847 C849 1.255 . S
C848 Eu843 2.852 . S
C848 C852 1.503 . S
C848 O865 1.273 . S
C848 O866 1.257 . S
C849 O847 1.255 . S
C849 O850 1.247 . S
O850 C849 1.247 . S
C851 O863 1.242 . S
C851 O864 1.258 . S
C852 C848 1.503 . S
C852 C853 1.379 . S
C852 C857 1.392 . S
C853 C852 1.379 . S
C853 C854 1.404 1_556 S
C853 H867 0.929 . S
C854 C853 1.404 1_554 S
C854 C855 1.389 . S
C855 C854 1.389 . S
C855 C856 1.399 . S
C855 H868 0.931 . S
C856 C855 1.399 . S
C856 C857 1.390 1_554 S
C857 C852 1.392 . S
C857 C856 1.390 1_556 S
C857 H869 0.929 . S
O858 Tb842 2.326 . S
O858 C846 1.242 . S
O859 Eu843 2.324 . S
O859 C846 1.258 . S
O860 Tb842 2.500 . S
O860 C862 1.273 . S
O861 Tb842 2.473 . S
O861 C862 1.257 . S
C862 O860 1.273 . S
C862 O861 1.257 . S
O863 Eu843 2.326 . S
O863 C851 1.242 . S
O864 Tb842 2.324 . S
O864 C851 1.258 . S
O865 Eu843 2.500 . S
O865 C848 1.273 . S
O866 Eu843 2.473 . S
O866 C848 1.257 . S
H867 C853 0.929 . S
H868 C855 0.931 . S
H869 C857 0.929 . S
O870 Tb871 2.292 . S
O870 C873 1.255 . S
Tb871 O870 2.292 . S
Tb871 O887 2.326 . S
Tb871 O889 2.500 . S
Tb871 O890 2.473 . S
Tb871 O893 2.324 . S
Eu872 O876 2.292 . S
Eu872 C877 2.852 . S
Eu872 O888 2.324 . S
Eu872 O892 2.326 . S
Eu872 O894 2.500 . S
Eu872 O895 2.473 . S
C873 O870 1.255 . S
C873 O874 1.247 . S
O874 C873 1.247 . S
C875 O887 1.242 . S
C875 O888 1.258 . S
O876 Eu872 2.292 . S
O876 C878 1.255 . S
C877 Eu872 2.852 . S
C877 C881 1.503 . S
C877 O894 1.273 . S
C877 O895 1.257 . S
C878 O876 1.255 . S
C878 O879 1.247 . S
O879 C878 1.247 . S
C880 O892 1.242 . S
C880 O893 1.258 . S
C881 C877 1.503 . S
C881 C882 1.379 . S
C881 C886 1.392 . S
C882 C881 1.379 . S
C882 C883 1.404 . S
C882 H896 0.929 . S
C883 C882 1.404 . S
C883 C884 1.389 . S
C884 C883 1.389 . S
C884 C885 1.399 . S
C884 H897 0.931 . S
C885 C884 1.399 . S
C885 C886 1.390 . S
C886 C881 1.392 . S
C886 C885 1.390 . S
C886 H898 0.929 . S
O887 Tb871 2.326 . S
O887 C875 1.242 . S
O888 Eu872 2.324 . S
O888 C875 1.258 . S
O889 Tb871 2.500 . S
O889 C891 1.273 . S
O890 Tb871 2.473 . S
O890 C891 1.257 . S
C891 O889 1.273 . S
C891 O890 1.257 . S
O892 Eu872 2.326 . S
O892 C880 1.242 . S
O893 Tb871 2.324 . S
O893 C880 1.258 . S
O894 Eu872 2.500 . S
O894 C877 1.273 . S
O895 Eu872 2.473 . S
O895 C877 1.257 . S
H896 C882 0.929 . S
H897 C884 0.931 . S
H898 C886 0.929 . S
O899 Tb900 2.292 . S
O899 C902 1.255 . S
Tb900 O899 2.292 . S
Tb900 O916 2.326 . S
Tb900 O918 2.500 . S
Tb900 O919 2.473 . S
Tb900 O922 2.324 . S
Eu901 O905 2.292 . S
Eu901 C906 2.852 . S
Eu901 O917 2.324 . S
Eu901 O921 2.326 . S
Eu901 O923 2.500 . S
Eu901 O924 2.473 . S
C902 O899 1.255 . S
C902 O903 1.247 . S
O903 C902 1.247 . S
C904 O916 1.242 . S
C904 O917 1.258 . S
O905 Eu901 2.292 . S
O905 C907 1.255 . S
C906 Eu901 2.852 . S
C906 C910 1.503 . S
C906 O923 1.273 . S
C906 O924 1.257 . S
C907 O905 1.255 . S
C907 O908 1.247 . S
O908 C907 1.247 . S
C909 O921 1.242 . S
C909 O922 1.258 . S
C910 C906 1.503 . S
C910 C911 1.379 . S
C910 C915 1.392 . S
C911 C910 1.379 . S
C911 C912 1.404 . S
C911 H925 0.929 . S
C912 C911 1.404 . S
C912 C913 1.389 . S
C913 C912 1.389 . S
C913 C914 1.399 . S
C913 H926 0.931 . S
C914 C913 1.399 . S
C914 C915 1.390 . S
C915 C910 1.392 . S
C915 C914 1.390 . S
C915 H927 0.929 . S
O916 Tb900 2.326 . S
O916 C904 1.242 . S
O917 Eu901 2.324 . S
O917 C904 1.258 . S
O918 Tb900 2.500 . S
O918 C920 1.273 . S
O919 Tb900 2.473 . S
O919 C920 1.257 . S
C920 O918 1.273 . S
C920 O919 1.257 . S
O921 Eu901 2.326 . S
O921 C909 1.242 . S
O922 Tb900 2.324 . S
O922 C909 1.258 . S
O923 Eu901 2.500 . S
O923 C906 1.273 . S
O924 Eu901 2.473 . S
O924 C906 1.257 . S
H925 C911 0.929 . S
H926 C913 0.931 . S
H927 C915 0.929 . S
C928 C929 1.349 . S
C928 C930 1.327 . S
C928 H953 0.950 . S
C929 C928 1.349 . S
C929 C945 1.349 . S
C930 C928 1.327 . S
C930 C949 1.429 . S
C930 H954 0.950 . S
C931 C948 1.574 . S
C931 C950 1.368 . S
C931 H955 0.949 . S
H932 C936 0.949 . S
C933 C934 1.349 . S
C933 C935 1.327 . S
C933 H956 0.950 . S
C934 C933 1.349 . S
C934 C946 1.349 . S
C935 C933 1.327 . S
C935 C951 1.429 . S
C935 H957 0.950 . S
C936 H932 0.949 . S
C936 C944 1.574 . S
C936 C952 1.368 . S
H937 C945 0.950 . S
H938 C943 0.950 . S
H939 C944 0.949 . S
H940 C946 0.950 . S
H941 C947 0.950 . S
H942 C948 0.949 . S
C943 H938 0.950 . S
C943 C945 1.327 . S
C943 C949 1.429 . S
C944 C936 1.574 . S
C944 H939 0.949 . S
C944 C950 1.368 . S
C945 C929 1.349 . S
C945 H937 0.950 . S
C945 C943 1.327 . S
C946 C934 1.349 . S
C946 H940 0.950 . S
C946 C947 1.327 . S
C947 H941 0.950 . S
C947 C946 1.327 . S
C947 C951 1.429 . S
C948 C931 1.574 . S
C948 H942 0.949 . S
C948 C952 1.368 . S
C949 C930 1.429 . S
C949 C943 1.429 . S
C949 C950 1.523 . S
C950 C931 1.368 . S
C950 C944 1.368 . S
C950 C949 1.523 . S
C951 C935 1.429 . S
C951 C947 1.429 . S
C951 C952 1.523 . S
C952 C936 1.368 . S
C952 C948 1.368 . S
C952 C951 1.523 . S
H953 C928 0.950 . S
H954 C930 0.950 . S
H955 C931 0.949 . S
H956 C933 0.950 . S
H957 C935 0.950 . S
C958 C959 1.349 . S
C958 C960 1.327 . S
C958 H983 0.950 . S
C959 C958 1.349 . S
C959 C975 1.349 . S
C960 C958 1.327 . S
C960 C979 1.429 . S
C960 H984 0.950 . S
C961 C978 1.574 . S
C961 C980 1.368 . S
C961 H985 0.949 . S
H962 C966 0.949 . S
C963 C964 1.349 . S
C963 C965 1.327 . S
C963 H986 0.950 . S
C964 C963 1.349 . S
C964 C976 1.349 . S
C965 C963 1.327 . S
C965 C981 1.429 . S
C965 H987 0.950 . S
C966 H962 0.949 . S
C966 C974 1.574 . S
C966 C982 1.368 . S
H967 C975 0.950 . S
H968 C973 0.950 . S
H969 C974 0.949 . S
H970 C976 0.950 . S
H971 C977 0.950 . S
H972 C978 0.949 . S
C973 H968 0.950 . S
C973 C975 1.327 . S
C973 C979 1.429 . S
C974 C966 1.574 . S
C974 H969 0.949 . S
C974 C980 1.368 . S
C975 C959 1.349 . S
C975 H967 0.950 . S
C975 C973 1.327 . S
C976 C964 1.349 . S
C976 H970 0.950 . S
C976 C977 1.327 . S
C977 H971 0.950 . S
C977 C976 1.327 . S
C977 C981 1.429 . S
C978 C961 1.574 . S
C978 H972 0.949 . S
C978 C982 1.368 . S
C979 C960 1.429 . S
C979 C973 1.429 . S
C979 C980 1.523 . S
C980 C961 1.368 . S
C980 C974 1.368 . S
C980 C979 1.523 . S
C981 C965 1.429 . S
C981 C977 1.429 . S
C981 C982 1.523 . S
C982 C966 1.368 . S
C982 C978 1.368 . S
C982 C981 1.523 . S
H983 C958 0.950 . S
H984 C960 0.950 . S
H985 C961 0.949 . S
H986 C963 0.950 . S
H987 C965 0.950 . S
C988 C989 1.349 . S
C988 C990 1.327 . S
C988 H1013 0.950 . S
C989 C988 1.349 . S
C989 C1005 1.349 . S
C990 C988 1.327 . S
C990 C1009 1.429 . S
C990 H1014 0.950 . S
C991 C1008 1.574 . S
C991 C1010 1.368 . S
C991 H1015 0.949 . S
H992 C996 0.949 . S
C993 C994 1.349 . S
C993 C995 1.327 . S
C993 H1016 0.950 . S
C994 C993 1.349 . S
C994 C1006 1.349 . S
C995 C993 1.327 . S
C995 C1011 1.429 . S
C995 H1017 0.950 . S
C996 H992 0.949 . S
C996 C1004 1.574 . S
C996 C1012 1.368 . S
H997 C1005 0.950 . S
H998 C1003 0.950 . S
H999 C1004 0.949 . S
H1000 C1006 0.950 . S
H1001 C1007 0.950 . S
H1002 C1008 0.949 . S
C1003 H998 0.950 . S
C1003 C1005 1.327 . S
C1003 C1009 1.429 . S
C1004 C996 1.574 . S
C1004 H999 0.949 . S
C1004 C1010 1.368 . S
C1005 C989 1.349 . S
C1005 H997 0.950 . S
C1005 C1003 1.327 . S
C1006 C994 1.349 . S
C1006 H1000 0.950 . S
C1006 C1007 1.327 . S
C1007 H1001 0.950 . S
C1007 C1006 1.327 . S
C1007 C1011 1.429 . S
C1008 C991 1.574 . S
C1008 H1002 0.949 . S
C1008 C1012 1.368 . S
C1009 C990 1.429 . S
C1009 C1003 1.429 . S
C1009 C1010 1.523 . S
C1010 C991 1.368 . S
C1010 C1004 1.368 . S
C1010 C1009 1.523 . S
C1011 C995 1.429 . S
C1011 C1007 1.429 . S
C1011 C1012 1.523 . S
C1012 C996 1.368 . S
C1012 C1008 1.368 . S
C1012 C1011 1.523 . S
H1013 C988 0.950 . S
H1014 C990 0.950 . S
H1015 C991 0.949 . S
H1016 C993 0.950 . S
H1017 C995 0.950 . S
C1018 C1019 1.349 . S
C1018 C1020 1.327 . S
C1018 H1043 0.950 . S
C1019 C1018 1.349 . S
C1019 C1035 1.349 . S
C1020 C1018 1.327 . S
C1020 C1039 1.429 . S
C1020 H1044 0.950 . S
C1021 C1038 1.574 . S
C1021 C1040 1.368 . S
C1021 H1045 0.949 . S
H1022 C1026 0.949 . S
C1023 C1024 1.349 . S
C1023 C1025 1.327 . S
C1023 H1046 0.950 . S
C1024 C1023 1.349 . S
C1024 C1036 1.349 . S
C1025 C1023 1.327 . S
C1025 C1041 1.429 . S
C1025 H1047 0.950 . S
C1026 H1022 0.949 . S
C1026 C1034 1.574 . S
C1026 C1042 1.368 . S
H1027 C1035 0.950 . S
H1028 C1033 0.950 . S
H1029 C1034 0.949 . S
H1030 C1036 0.950 . S
H1031 C1037 0.950 . S
H1032 C1038 0.949 . S
C1033 H1028 0.950 . S
C1033 C1035 1.327 . S
C1033 C1039 1.429 . S
C1034 C1026 1.574 . S
C1034 H1029 0.949 . S
C1034 C1040 1.368 . S
C1035 C1019 1.349 . S
C1035 H1027 0.950 . S
C1035 C1033 1.327 . S
C1036 C1024 1.349 . S
C1036 H1030 0.950 . S
C1036 C1037 1.327 . S
C1037 H1031 0.950 . S
C1037 C1036 1.327 . S
C1037 C1041 1.429 . S
C1038 C1021 1.574 . S
C1038 H1032 0.949 . S
C1038 C1042 1.368 . S
C1039 C1020 1.429 . S
C1039 C1033 1.429 . S
C1039 C1040 1.523 . S
C1040 C1021 1.368 . S
C1040 C1034 1.368 . S
C1040 C1039 1.523 . S
C1041 C1025 1.429 . S
C1041 C1037 1.429 . S
C1041 C1042 1.523 . S
C1042 C1026 1.368 . S
C1042 C1038 1.368 . S
C1042 C1041 1.523 . S
H1043 C1018 0.950 . S
H1044 C1020 0.950 . S
H1045 C1021 0.949 . S
H1046 C1023 0.950 . S
H1047 C1025 0.950 . S
C1048 C1049 1.349 . S
C1048 C1050 1.327 . S
C1048 H1073 0.950 . S
C1049 C1048 1.349 . S
C1049 C1065 1.349 . S
C1050 C1048 1.327 . S
C1050 C1069 1.429 . S
C1050 H1074 0.950 . S
C1051 C1068 1.574 . S
C1051 C1070 1.368 . S
C1051 H1075 0.949 . S
H1052 C1056 0.949 . S
C1053 C1054 1.349 . S
C1053 C1055 1.327 . S
C1053 H1076 0.950 . S
C1054 C1053 1.349 . S
C1054 C1066 1.349 . S
C1055 C1053 1.327 . S
C1055 C1071 1.429 . S
C1055 H1077 0.950 . S
C1056 H1052 0.949 . S
C1056 C1064 1.574 . S
C1056 C1072 1.368 . S
H1057 C1065 0.950 . S
H1058 C1063 0.950 . S
H1059 C1064 0.949 . S
H1060 C1066 0.950 . S
H1061 C1067 0.950 . S
H1062 C1068 0.949 . S
C1063 H1058 0.950 . S
C1063 C1065 1.327 . S
C1063 C1069 1.429 . S
C1064 C1056 1.574 . S
C1064 H1059 0.949 . S
C1064 C1070 1.368 . S
C1065 C1049 1.349 . S
C1065 H1057 0.950 . S
C1065 C1063 1.327 . S
C1066 C1054 1.349 . S
C1066 H1060 0.950 . S
C1066 C1067 1.327 . S
C1067 H1061 0.950 . S
C1067 C1066 1.327 . S
C1067 C1071 1.429 . S
C1068 C1051 1.574 . S
C1068 H1062 0.949 . S
C1068 C1072 1.368 . S
C1069 C1050 1.429 . S
C1069 C1063 1.429 . S
C1069 C1070 1.523 . S
C1070 C1051 1.368 . S
C1070 C1064 1.368 . S
C1070 C1069 1.523 . S
C1071 C1055 1.429 . S
C1071 C1067 1.429 . S
C1071 C1072 1.523 . S
C1072 C1056 1.368 . S
C1072 C1068 1.368 . S
C1072 C1071 1.523 . S
H1073 C1048 0.950 . S
H1074 C1050 0.950 . S
H1075 C1051 0.949 . S
H1076 C1053 0.950 . S
H1077 C1055 0.950 . S
C1078 C1079 1.349 . S
C1078 C1080 1.327 . S
C1078 H1103 0.950 . S
C1079 C1078 1.349 . S
C1079 C1095 1.349 . S
C1080 C1078 1.327 . S
C1080 C1099 1.429 . S
C1080 H1104 0.950 . S
C1081 C1098 1.574 . S
C1081 C1100 1.368 . S
C1081 H1105 0.949 . S
H1082 C1086 0.949 . S
C1083 C1084 1.349 . S
C1083 C1085 1.327 . S
C1083 H1106 0.950 . S
C1084 C1083 1.349 . S
C1084 C1096 1.349 . S
C1085 C1083 1.327 . S
C1085 C1101 1.429 . S
C1085 H1107 0.950 . S
C1086 H1082 0.949 . S
C1086 C1094 1.574 . S
C1086 C1102 1.368 . S
H1087 C1095 0.950 . S
H1088 C1093 0.950 . S
H1089 C1094 0.949 . S
H1090 C1096 0.950 . S
H1091 C1097 0.950 . S
H1092 C1098 0.949 . S
C1093 H1088 0.950 . S
C1093 C1095 1.327 . S
C1093 C1099 1.429 . S
C1094 C1086 1.574 . S
C1094 H1089 0.949 . S
C1094 C1100 1.368 . S
C1095 C1079 1.349 . S
C1095 H1087 0.950 . S
C1095 C1093 1.327 . S
C1096 C1084 1.349 . S
C1096 H1090 0.950 . S
C1096 C1097 1.327 . S
C1097 H1091 0.950 . S
C1097 C1096 1.327 . S
C1097 C1101 1.429 . S
C1098 C1081 1.574 . S
C1098 H1092 0.949 . S
C1098 C1102 1.368 . S
C1099 C1080 1.429 . S
C1099 C1093 1.429 . S
C1099 C1100 1.523 . S
C1100 C1081 1.368 . S
C1100 C1094 1.368 . S
C1100 C1099 1.523 . S
C1101 C1085 1.429 . S
C1101 C1097 1.429 . S
C1101 C1102 1.523 . S
C1102 C1086 1.368 . S
C1102 C1098 1.368 . S
C1102 C1101 1.523 . S
H1103 C1078 0.950 . S
H1104 C1080 0.950 . S
H1105 C1081 0.949 . S
H1106 C1083 0.950 . S
H1107 C1085 0.950 . S
C1108 C1109 1.349 . S
C1108 C1110 1.327 . S
C1108 H1133 0.950 . S
C1109 C1108 1.349 . S
C1109 C1125 1.349 . S
C1110 C1108 1.327 . S
C1110 C1129 1.429 . S
C1110 H1134 0.950 . S
C1111 C1128 1.574 . S
C1111 C1130 1.368 . S
C1111 H1135 0.949 . S
H1112 C1116 0.949 . S
C1113 C1114 1.349 . S
C1113 C1115 1.327 . S
C1113 H1136 0.950 . S
C1114 C1113 1.349 . S
C1114 C1126 1.349 . S
C1115 C1113 1.327 . S
C1115 C1131 1.429 . S
C1115 H1137 0.950 . S
C1116 H1112 0.949 . S
C1116 C1124 1.574 . S
C1116 C1132 1.368 . S
H1117 C1125 0.950 . S
H1118 C1123 0.950 . S
H1119 C1124 0.949 . S
H1120 C1126 0.950 . S
H1121 C1127 0.950 . S
H1122 C1128 0.949 . S
C1123 H1118 0.950 . S
C1123 C1125 1.327 . S
C1123 C1129 1.429 . S
C1124 C1116 1.574 . S
C1124 H1119 0.949 . S
C1124 C1130 1.368 . S
C1125 C1109 1.349 . S
C1125 H1117 0.950 . S
C1125 C1123 1.327 . S
C1126 C1114 1.349 . S
C1126 H1120 0.950 . S
C1126 C1127 1.327 . S
C1127 H1121 0.950 . S
C1127 C1126 1.327 . S
C1127 C1131 1.429 . S
C1128 C1111 1.574 . S
C1128 H1122 0.949 . S
C1128 C1132 1.368 . S
C1129 C1110 1.429 . S
C1129 C1123 1.429 . S
C1129 C1130 1.523 . S
C1130 C1111 1.368 . S
C1130 C1124 1.368 . S
C1130 C1129 1.523 . S
C1131 C1115 1.429 . S
C1131 C1127 1.429 . S
C1131 C1132 1.523 . S
C1132 C1116 1.368 . S
C1132 C1128 1.368 . S
C1132 C1131 1.523 . S
H1133 C1108 0.950 . S
H1134 C1110 0.950 . S
H1135 C1111 0.949 . S
H1136 C1113 0.950 . S
H1137 C1115 0.950 . S
C1138 C1139 1.349 . S
C1138 C1140 1.327 . S
C1138 H1163 0.950 . S
C1139 C1138 1.349 . S
C1139 C1155 1.349 . S
C1140 C1138 1.327 . S
C1140 C1159 1.429 . S
C1140 H1164 0.950 . S
C1141 C1158 1.574 . S
C1141 C1160 1.368 . S
C1141 H1165 0.949 . S
H1142 C1146 0.949 . S
C1143 C1144 1.349 . S
C1143 C1145 1.327 . S
C1143 H1166 0.950 . S
C1144 C1143 1.349 . S
C1144 C1156 1.349 . S
C1145 C1143 1.327 . S
C1145 C1161 1.429 . S
C1145 H1167 0.950 . S
C1146 H1142 0.949 . S
C1146 C1154 1.574 . S
C1146 C1162 1.368 . S
H1147 C1155 0.950 . S
H1148 C1153 0.950 . S
H1149 C1154 0.949 . S
H1150 C1156 0.950 . S
H1151 C1157 0.950 . S
H1152 C1158 0.949 . S
C1153 H1148 0.950 . S
C1153 C1155 1.327 . S
C1153 C1159 1.429 . S
C1154 C1146 1.574 . S
C1154 H1149 0.949 . S
C1154 C1160 1.368 . S
C1155 C1139 1.349 . S
C1155 H1147 0.950 . S
C1155 C1153 1.327 . S
C1156 C1144 1.349 . S
C1156 H1150 0.950 . S
C1156 C1157 1.327 . S
C1157 H1151 0.950 . S
C1157 C1156 1.327 . S
C1157 C1161 1.429 . S
C1158 C1141 1.574 . S
C1158 H1152 0.949 . S
C1158 C1162 1.368 . S
C1159 C1140 1.429 . S
C1159 C1153 1.429 . S
C1159 C1160 1.523 . S
C1160 C1141 1.368 . S
C1160 C1154 1.368 . S
C1160 C1159 1.523 . S
C1161 C1145 1.429 . S
C1161 C1157 1.429 . S
C1161 C1162 1.523 . S
C1162 C1146 1.368 . S
C1162 C1158 1.368 . S
C1162 C1161 1.523 . S
H1163 C1138 0.950 . S
H1164 C1140 0.950 . S
H1165 C1141 0.949 . S
H1166 C1143 0.950 . S
H1167 C1145 0.950 . S
C1168 C1169 1.349 . S
C1168 C1170 1.327 . S
C1168 H1193 0.950 . S
C1169 C1168 1.349 . S
C1169 C1185 1.349 . S
C1170 C1168 1.327 . S
C1170 C1189 1.429 . S
C1170 H1194 0.950 . S
C1171 C1188 1.574 . S
C1171 C1190 1.368 . S
C1171 H1195 0.949 . S
H1172 C1176 0.949 . S
C1173 C1174 1.349 . S
C1173 C1175 1.327 . S
C1173 H1196 0.950 . S
C1174 C1173 1.349 . S
C1174 C1186 1.349 . S
C1175 C1173 1.327 . S
C1175 C1191 1.429 . S
C1175 H1197 0.950 . S
C1176 H1172 0.949 . S
C1176 C1184 1.574 . S
C1176 C1192 1.368 . S
H1177 C1185 0.950 . S
H1178 C1183 0.950 . S
H1179 C1184 0.949 . S
H1180 C1186 0.950 . S
H1181 C1187 0.950 . S
H1182 C1188 0.949 . S
C1183 H1178 0.950 . S
C1183 C1185 1.327 . S
C1183 C1189 1.429 . S
C1184 C1176 1.574 . S
C1184 H1179 0.949 . S
C1184 C1190 1.368 . S
C1185 C1169 1.349 . S
C1185 H1177 0.950 . S
C1185 C1183 1.327 . S
C1186 C1174 1.349 . S
C1186 H1180 0.950 . S
C1186 C1187 1.327 . S
C1187 H1181 0.950 . S
C1187 C1186 1.327 . S
C1187 C1191 1.429 . S
C1188 C1171 1.574 . S
C1188 H1182 0.949 . S
C1188 C1192 1.368 . S
C1189 C1170 1.429 . S
C1189 C1183 1.429 . S
C1189 C1190 1.523 . S
C1190 C1171 1.368 . S
C1190 C1184 1.368 . S
C1190 C1189 1.523 . S
C1191 C1175 1.429 . S
C1191 C1187 1.429 . S
C1191 C1192 1.523 . S
C1192 C1176 1.368 . S
C1192 C1188 1.368 . S
C1192 C1191 1.523 . S
H1193 C1168 0.950 . S
H1194 C1170 0.950 . S
H1195 C1171 0.949 . S
H1196 C1173 0.950 . S
H1197 C1175 0.950 . S
C1198 C1199 1.349 . S
C1198 C1200 1.327 . S
C1198 H1223 0.950 . S
C1199 C1198 1.349 . S
C1199 C1215 1.349 . S
C1200 C1198 1.327 . S
C1200 C1219 1.429 . S
C1200 H1224 0.950 . S
C1201 C1218 1.574 . S
C1201 C1220 1.368 . S
C1201 H1225 0.949 . S
H1202 C1206 0.949 . S
C1203 C1204 1.349 . S
C1203 C1205 1.327 . S
C1203 H1226 0.950 . S
C1204 C1203 1.349 . S
C1204 C1216 1.349 . S
C1205 C1203 1.327 . S
C1205 C1221 1.429 . S
C1205 H1227 0.950 . S
C1206 H1202 0.949 . S
C1206 C1214 1.574 . S
C1206 C1222 1.368 . S
H1207 C1215 0.950 . S
H1208 C1213 0.950 . S
H1209 C1214 0.949 . S
H1210 C1216 0.950 . S
H1211 C1217 0.950 . S
H1212 C1218 0.949 . S
C1213 H1208 0.950 . S
C1213 C1215 1.327 . S
C1213 C1219 1.429 . S
C1214 C1206 1.574 . S
C1214 H1209 0.949 . S
C1214 C1220 1.368 . S
C1215 C1199 1.349 . S
C1215 H1207 0.950 . S
C1215 C1213 1.327 . S
C1216 C1204 1.349 . S
C1216 H1210 0.950 . S
C1216 C1217 1.327 . S
C1217 H1211 0.950 . S
C1217 C1216 1.327 . S
C1217 C1221 1.429 . S
C1218 C1201 1.574 . S
C1218 H1212 0.949 . S
C1218 C1222 1.368 . S
C1219 C1200 1.429 . S
C1219 C1213 1.429 . S
C1219 C1220 1.523 . S
C1220 C1201 1.368 . S
C1220 C1214 1.368 . S
C1220 C1219 1.523 . S
C1221 C1205 1.429 . S
C1221 C1217 1.429 . S
C1221 C1222 1.523 . S
C1222 C1206 1.368 . S
C1222 C1218 1.368 . S
C1222 C1221 1.523 . S
H1223 C1198 0.950 . S
H1224 C1200 0.950 . S
H1225 C1201 0.949 . S
H1226 C1203 0.950 . S
H1227 C1205 0.950 . S
C1228 C1229 1.349 . S
C1228 C1230 1.327 . S
C1228 H1253 0.950 . S
C1229 C1228 1.349 . S
C1229 C1245 1.349 . S
C1230 C1228 1.327 . S
C1230 C1249 1.429 . S
C1230 H1254 0.950 . S
C1231 C1248 1.574 . S
C1231 C1250 1.368 . S
C1231 H1255 0.949 . S
H1232 C1236 0.949 . S
C1233 C1234 1.349 . S
C1233 C1235 1.327 . S
C1233 H1256 0.950 . S
C1234 C1233 1.349 . S
C1234 C1246 1.349 . S
C1235 C1233 1.327 . S
C1235 C1251 1.429 . S
C1235 H1257 0.950 . S
C1236 H1232 0.949 . S
C1236 C1244 1.574 . S
C1236 C1252 1.368 . S
H1237 C1245 0.950 . S
H1238 C1243 0.950 . S
H1239 C1244 0.949 . S
H1240 C1246 0.950 . S
H1241 C1247 0.950 . S
H1242 C1248 0.949 . S
C1243 H1238 0.950 . S
C1243 C1245 1.327 . S
C1243 C1249 1.429 . S
C1244 C1236 1.574 . S
C1244 H1239 0.949 . S
C1244 C1250 1.368 . S
C1245 C1229 1.349 . S
C1245 H1237 0.950 . S
C1245 C1243 1.327 . S
C1246 C1234 1.349 . S
C1246 H1240 0.950 . S
C1246 C1247 1.327 . S
C1247 H1241 0.950 . S
C1247 C1246 1.327 . S
C1247 C1251 1.429 . S
C1248 C1231 1.574 . S
C1248 H1242 0.949 . S
C1248 C1252 1.368 . S
C1249 C1230 1.429 . S
C1249 C1243 1.429 . S
C1249 C1250 1.523 . S
C1250 C1231 1.368 . S
C1250 C1244 1.368 . S
C1250 C1249 1.523 . S
C1251 C1235 1.429 . S
C1251 C1247 1.429 . S
C1251 C1252 1.523 . S
C1252 C1236 1.368 . S
C1252 C1248 1.368 . S
C1252 C1251 1.523 . S
H1253 C1228 0.950 . S
H1254 C1230 0.950 . S
H1255 C1231 0.949 . S
H1256 C1233 0.950 . S
H1257 C1235 0.950 . S
C1258 C1259 1.349 . S
C1258 C1260 1.327 . S
C1258 H1283 0.950 . S
C1259 C1258 1.349 . S
C1259 C1275 1.349 . S
C1260 C1258 1.327 . S
C1260 C1279 1.429 . S
C1260 H1284 0.950 . S
C1261 C1278 1.574 . S
C1261 C1280 1.368 . S
C1261 H1285 0.949 . S
H1262 C1266 0.949 . S
C1263 C1264 1.349 . S
C1263 C1265 1.327 . S
C1263 H1286 0.950 . S
C1264 C1263 1.349 . S
C1264 C1276 1.349 . S
C1265 C1263 1.327 . S
C1265 C1281 1.429 . S
C1265 H1287 0.950 . S
C1266 H1262 0.949 . S
C1266 C1274 1.574 . S
C1266 C1282 1.368 . S
H1267 C1275 0.950 . S
H1268 C1273 0.950 . S
H1269 C1274 0.949 . S
H1270 C1276 0.950 . S
H1271 C1277 0.950 . S
H1272 C1278 0.949 . S
C1273 H1268 0.950 . S
C1273 C1275 1.327 . S
C1273 C1279 1.429 . S
C1274 C1266 1.574 . S
C1274 H1269 0.949 . S
C1274 C1280 1.368 . S
C1275 C1259 1.349 . S
C1275 H1267 0.950 . S
C1275 C1273 1.327 . S
C1276 C1264 1.349 . S
C1276 H1270 0.950 . S
C1276 C1277 1.327 . S
C1277 H1271 0.950 . S
C1277 C1276 1.327 . S
C1277 C1281 1.429 . S
C1278 C1261 1.574 . S
C1278 H1272 0.949 . S
C1278 C1282 1.368 . S
C1279 C1260 1.429 . S
C1279 C1273 1.429 . S
C1279 C1280 1.523 . S
C1280 C1261 1.368 . S
C1280 C1274 1.368 . S
C1280 C1279 1.523 . S
C1281 C1265 1.429 . S
C1281 C1277 1.429 . S
C1281 C1282 1.523 . S
C1282 C1266 1.368 . S
C1282 C1278 1.368 . S
C1282 C1281 1.523 . S
H1283 C1258 0.950 . S
H1284 C1260 0.950 . S
H1285 C1261 0.949 . S
H1286 C1263 0.950 . S
H1287 C1265 0.950 . S
C1288 C1289 1.349 . S
C1288 C1290 1.327 . S
C1288 H1313 0.950 . S
C1289 C1288 1.349 . S
C1289 C1305 1.349 . S
C1290 C1288 1.327 . S
C1290 C1309 1.429 . S
C1290 H1314 0.950 . S
C1291 C1308 1.574 . S
C1291 C1310 1.368 . S
C1291 H1315 0.949 . S
H1292 C1296 0.949 . S
C1293 C1294 1.349 . S
C1293 C1295 1.327 . S
C1293 H1316 0.950 . S
C1294 C1293 1.349 . S
C1294 C1306 1.349 . S
C1295 C1293 1.327 . S
C1295 C1311 1.429 . S
C1295 H1317 0.950 . S
C1296 H1292 0.949 . S
C1296 C1304 1.574 . S
C1296 C1312 1.368 . S
H1297 C1305 0.950 . S
H1298 C1303 0.950 . S
H1299 C1304 0.949 . S
H1300 C1306 0.950 . S
H1301 C1307 0.950 . S
H1302 C1308 0.949 . S
C1303 H1298 0.950 . S
C1303 C1305 1.327 . S
C1303 C1309 1.429 . S
C1304 C1296 1.574 . S
C1304 H1299 0.949 . S
C1304 C1310 1.368 . S
C1305 C1289 1.349 . S
C1305 H1297 0.950 . S
C1305 C1303 1.327 . S
C1306 C1294 1.349 . S
C1306 H1300 0.950 . S
C1306 C1307 1.327 . S
C1307 H1301 0.950 . S
C1307 C1306 1.327 . S
C1307 C1311 1.429 . S
C1308 C1291 1.574 . S
C1308 H1302 0.949 . S
C1308 C1312 1.368 . S
C1309 C1290 1.429 . S
C1309 C1303 1.429 . S
C1309 C1310 1.523 . S
C1310 C1291 1.368 . S
C1310 C1304 1.368 . S
C1310 C1309 1.523 . S
C1311 C1295 1.429 . S
C1311 C1307 1.429 . S
C1311 C1312 1.523 . S
C1312 C1296 1.368 . S
C1312 C1308 1.368 . S
C1312 C1311 1.523 . S
H1313 C1288 0.950 . S
H1314 C1290 0.950 . S
H1315 C1291 0.949 . S
H1316 C1293 0.950 . S
H1317 C1295 0.950 . S
C1318 C1319 1.349 . S
C1318 C1320 1.327 . S
C1318 H1343 0.950 . S
C1319 C1318 1.349 . S
C1319 C1335 1.349 . S
C1320 C1318 1.327 . S
C1320 C1339 1.429 . S
C1320 H1344 0.950 . S
C1321 C1338 1.574 . S
C1321 C1340 1.368 . S
C1321 H1345 0.949 . S
H1322 C1326 0.949 . S
C1323 C1324 1.349 . S
C1323 C1325 1.327 . S
C1323 H1346 0.950 . S
C1324 C1323 1.349 . S
C1324 C1336 1.349 . S
C1325 C1323 1.327 . S
C1325 C1341 1.429 . S
C1325 H1347 0.950 . S
C1326 H1322 0.949 . S
C1326 C1334 1.574 . S
C1326 C1342 1.368 . S
H1327 C1335 0.950 . S
H1328 C1333 0.950 . S
H1329 C1334 0.949 . S
H1330 C1336 0.950 . S
H1331 C1337 0.950 . S
H1332 C1338 0.949 . S
C1333 H1328 0.950 . S
C1333 C1335 1.327 . S
C1333 C1339 1.429 . S
C1334 C1326 1.574 . S
C1334 H1329 0.949 . S
C1334 C1340 1.368 . S
C1335 C1319 1.349 . S
C1335 H1327 0.950 . S
C1335 C1333 1.327 . S
C1336 C1324 1.349 . S
C1336 H1330 0.950 . S
C1336 C1337 1.327 . S
C1337 H1331 0.950 . S
C1337 C1336 1.327 . S
C1337 C1341 1.429 . S
C1338 C1321 1.574 . S
C1338 H1332 0.949 . S
C1338 C1342 1.368 . S
C1339 C1320 1.429 . S
C1339 C1333 1.429 . S
C1339 C1340 1.523 . S
C1340 C1321 1.368 . S
C1340 C1334 1.368 . S
C1340 C1339 1.523 . S
C1341 C1325 1.429 . S
C1341 C1337 1.429 . S
C1341 C1342 1.523 . S
C1342 C1326 1.368 . S
C1342 C1338 1.368 . S
C1342 C1341 1.523 . S
H1343 C1318 0.950 . S
H1344 C1320 0.950 . S
H1345 C1321 0.949 . S
H1346 C1323 0.950 . S
H1347 C1325 0.950 . S
C1348 C1349 1.349 . S
C1348 C1350 1.327 . S
C1348 H1373 0.950 . S
C1349 C1348 1.349 . S
C1349 C1365 1.349 . S
C1350 C1348 1.327 . S
C1350 C1369 1.429 . S
C1350 H1374 0.950 . S
C1351 C1368 1.574 . S
C1351 C1370 1.368 . S
C1351 H1375 0.949 . S
H1352 C1356 0.949 . S
C1353 C1354 1.349 . S
C1353 C1355 1.327 . S
C1353 H1376 0.950 . S
C1354 C1353 1.349 . S
C1354 C1366 1.349 . S
C1355 C1353 1.327 . S
C1355 C1371 1.429 . S
C1355 H1377 0.950 . S
C1356 H1352 0.949 . S
C1356 C1364 1.574 . S
C1356 C1372 1.368 . S
H1357 C1365 0.950 . S
H1358 C1363 0.950 . S
H1359 C1364 0.949 . S
H1360 C1366 0.950 . S
H1361 C1367 0.950 . S
H1362 C1368 0.949 . S
C1363 H1358 0.950 . S
C1363 C1365 1.327 . S
C1363 C1369 1.429 . S
C1364 C1356 1.574 . S
C1364 H1359 0.949 . S
C1364 C1370 1.368 . S
C1365 C1349 1.349 . S
C1365 H1357 0.950 . S
C1365 C1363 1.327 . S
C1366 C1354 1.349 . S
C1366 H1360 0.950 . S
C1366 C1367 1.327 . S
C1367 H1361 0.950 . S
C1367 C1366 1.327 . S
C1367 C1371 1.429 . S
C1368 C1351 1.574 . S
C1368 H1362 0.949 . S
C1368 C1372 1.368 . S
C1369 C1350 1.429 . S
C1369 C1363 1.429 . S
C1369 C1370 1.523 . S
C1370 C1351 1.368 . S
C1370 C1364 1.368 . S
C1370 C1369 1.523 . S
C1371 C1355 1.429 . S
C1371 C1367 1.429 . S
C1371 C1372 1.523 . S
C1372 C1356 1.368 . S
C1372 C1368 1.368 . S
C1372 C1371 1.523 . S
H1373 C1348 0.950 . S
H1374 C1350 0.950 . S
H1375 C1351 0.949 . S
H1376 C1353 0.950 . S
H1377 C1355 0.950 . S
C1378 C1379 1.349 . S
C1378 C1380 1.327 . S
C1378 H1403 0.950 . S
C1379 C1378 1.349 . S
C1379 C1395 1.349 . S
C1380 C1378 1.327 . S
C1380 C1399 1.429 . S
C1380 H1404 0.950 . S
C1381 C1398 1.574 . S
C1381 C1400 1.368 . S
C1381 H1405 0.949 . S
H1382 C1386 0.949 . S
C1383 C1384 1.349 . S
C1383 C1385 1.327 . S
C1383 H1406 0.950 . S
C1384 C1383 1.349 . S
C1384 C1396 1.349 . S
C1385 C1383 1.327 . S
C1385 C1401 1.429 . S
C1385 H1407 0.950 . S
C1386 H1382 0.949 . S
C1386 C1394 1.574 . S
C1386 C1402 1.368 . S
H1387 C1395 0.950 . S
H1388 C1393 0.950 . S
H1389 C1394 0.949 . S
H1390 C1396 0.950 . S
H1391 C1397 0.950 . S
H1392 C1398 0.949 . S
C1393 H1388 0.950 . S
C1393 C1395 1.327 . S
C1393 C1399 1.429 . S
C1394 C1386 1.574 . S
C1394 H1389 0.949 . S
C1394 C1400 1.368 . S
C1395 C1379 1.349 . S
C1395 H1387 0.950 . S
C1395 C1393 1.327 . S
C1396 C1384 1.349 . S
C1396 H1390 0.950 . S
C1396 C1397 1.327 . S
C1397 H1391 0.950 . S
C1397 C1396 1.327 . S
C1397 C1401 1.429 . S
C1398 C1381 1.574 . S
C1398 H1392 0.949 . S
C1398 C1402 1.368 . S
C1399 C1380 1.429 . S
C1399 C1393 1.429 . S
C1399 C1400 1.523 . S
C1400 C1381 1.368 . S
C1400 C1394 1.368 . S
C1400 C1399 1.523 . S
C1401 C1385 1.429 . S
C1401 C1397 1.429 . S
C1401 C1402 1.523 . S
C1402 C1386 1.368 . S
C1402 C1398 1.368 . S
C1402 C1401 1.523 . S
H1403 C1378 0.950 . S
H1404 C1380 0.950 . S
H1405 C1381 0.949 . S
H1406 C1383 0.950 . S
H1407 C1385 0.950 . S
C1408 C1409 1.349 . S
C1408 C1410 1.327 . S
C1408 H1433 0.950 . S
C1409 C1408 1.349 . S
C1409 C1425 1.349 . S
C1410 C1408 1.327 . S
C1410 C1429 1.429 . S
C1410 H1434 0.950 . S
C1411 C1428 1.574 . S
C1411 C1430 1.368 . S
C1411 H1435 0.949 . S
H1412 C1416 0.949 . S
C1413 C1414 1.349 . S
C1413 C1415 1.327 . S
C1413 H1436 0.950 1_545 S
C1414 C1413 1.349 . S
C1414 C1426 1.349 . S
C1415 C1413 1.327 . S
C1415 C1431 1.429 . S
C1415 H1437 0.950 . S
C1416 H1412 0.949 . S
C1416 C1424 1.574 . S
C1416 C1432 1.368 . S
H1417 C1425 0.950 . S
H1418 C1423 0.950 . S
H1419 C1424 0.949 . S
H1420 C1426 0.950 . S
H1421 C1427 0.950 . S
H1422 C1428 0.949 . S
C1423 H1418 0.950 . S
C1423 C1425 1.327 . S
C1423 C1429 1.429 . S
C1424 C1416 1.574 . S
C1424 H1419 0.949 . S
C1424 C1430 1.368 . S
C1425 C1409 1.349 . S
C1425 H1417 0.950 . S
C1425 C1423 1.327 . S
C1426 C1414 1.349 . S
C1426 H1420 0.950 . S
C1426 C1427 1.327 . S
C1427 H1421 0.950 . S
C1427 C1426 1.327 . S
C1427 C1431 1.429 . S
C1428 C1411 1.574 . S
C1428 H1422 0.949 . S
C1428 C1432 1.368 . S
C1429 C1410 1.429 . S
C1429 C1423 1.429 . S
C1429 C1430 1.523 . S
C1430 C1411 1.368 . S
C1430 C1424 1.368 . S
C1430 C1429 1.523 . S
C1431 C1415 1.429 . S
C1431 C1427 1.429 . S
C1431 C1432 1.523 . S
C1432 C1416 1.368 . S
C1432 C1428 1.368 . S
C1432 C1431 1.523 . S
H1433 C1408 0.950 . S
H1434 C1410 0.950 . S
H1435 C1411 0.949 . S
H1436 C1413 0.950 1_565 S
H1437 C1415 0.950 . S
C1438 C1439 1.349 . S
C1438 C1440 1.327 . S
C1438 H1463 0.950 . S
C1439 C1438 1.349 . S
C1439 C1455 1.349 . S
C1440 C1438 1.327 . S
C1440 C1459 1.429 . S
C1440 H1464 0.950 . S
C1441 C1458 1.574 . S
C1441 C1460 1.368 . S
C1441 H1465 0.949 . S
H1442 C1446 0.949 . S
C1443 C1444 1.349 . S
C1443 C1445 1.327 . S
C1443 H1466 0.950 . S
C1444 C1443 1.349 . S
C1444 C1456 1.349 . S
C1445 C1443 1.327 . S
C1445 C1461 1.429 . S
C1445 H1467 0.950 . S
C1446 H1442 0.949 . S
C1446 C1454 1.574 . S
C1446 C1462 1.368 . S
H1447 C1455 0.950 1_565 S
H1448 C1453 0.950 . S
H1449 C1454 0.949 . S
H1450 C1456 0.950 . S
H1451 C1457 0.950 . S
H1452 C1458 0.949 . S
C1453 H1448 0.950 . S
C1453 C1455 1.327 . S
C1453 C1459 1.429 . S
C1454 C1446 1.574 . S
C1454 H1449 0.949 . S
C1454 C1460 1.368 . S
C1455 C1439 1.349 . S
C1455 H1447 0.950 1_545 S
C1455 C1453 1.327 . S
C1456 C1444 1.349 . S
C1456 H1450 0.950 . S
C1456 C1457 1.327 . S
C1457 H1451 0.950 . S
C1457 C1456 1.327 . S
C1457 C1461 1.429 . S
C1458 C1441 1.574 . S
C1458 H1452 0.949 . S
C1458 C1462 1.368 . S
C1459 C1440 1.429 . S
C1459 C1453 1.429 . S
C1459 C1460 1.523 . S
C1460 C1441 1.368 . S
C1460 C1454 1.368 . S
C1460 C1459 1.523 . S
C1461 C1445 1.429 . S
C1461 C1457 1.429 . S
C1461 C1462 1.523 . S
C1462 C1446 1.368 . S
C1462 C1458 1.368 . S
C1462 C1461 1.523 . S
H1463 C1438 0.950 . S
H1464 C1440 0.950 . S
H1465 C1441 0.949 . S
H1466 C1443 0.950 . S
H1467 C1445 0.950 . S
C1468 C1469 1.349 . S
C1468 C1470 1.327 . S
C1468 H1493 0.950 . S
C1469 C1468 1.349 . S
C1469 C1485 1.349 . S
C1470 C1468 1.327 . S
C1470 C1489 1.429 . S
C1470 H1494 0.950 . S
C1471 C1488 1.574 . S
C1471 C1490 1.368 . S
C1471 H1495 0.949 . S
H1472 C1476 0.949 . S
C1473 C1474 1.349 . S
C1473 C1475 1.327 . S
C1473 H1496 0.950 . S
C1474 C1473 1.349 . S
C1474 C1486 1.349 . S
C1475 C1473 1.327 . S
C1475 C1491 1.429 . S
C1475 H1497 0.950 . S
C1476 H1472 0.949 . S
C1476 C1484 1.574 . S
C1476 C1492 1.368 . S
H1477 C1485 0.950 1_545 S
H1478 C1483 0.950 . S
H1479 C1484 0.949 . S
H1480 C1486 0.950 . S
H1481 C1487 0.950 . S
H1482 C1488 0.949 . S
C1483 H1478 0.950 . S
C1483 C1485 1.327 . S
C1483 C1489 1.429 . S
C1484 C1476 1.574 . S
C1484 H1479 0.949 . S
C1484 C1490 1.368 . S
C1485 C1469 1.349 . S
C1485 H1477 0.950 1_565 S
C1485 C1483 1.327 . S
C1486 C1474 1.349 . S
C1486 H1480 0.950 . S
C1486 C1487 1.327 . S
C1487 H1481 0.950 . S
C1487 C1486 1.327 . S
C1487 C1491 1.429 . S
C1488 C1471 1.574 . S
C1488 H1482 0.949 . S
C1488 C1492 1.368 . S
C1489 C1470 1.429 . S
C1489 C1483 1.429 . S
C1489 C1490 1.523 . S
C1490 C1471 1.368 . S
C1490 C1484 1.368 . S
C1490 C1489 1.523 . S
C1491 C1475 1.429 . S
C1491 C1487 1.429 . S
C1491 C1492 1.523 . S
C1492 C1476 1.368 . S
C1492 C1488 1.368 . S
C1492 C1491 1.523 . S
H1493 C1468 0.950 . S
H1494 C1470 0.950 . S
H1495 C1471 0.949 . S
H1496 C1473 0.950 . S
H1497 C1475 0.950 . S
C1498 C1499 1.349 . S
C1498 C1500 1.327 . S
C1498 H1523 0.950 . S
C1499 C1498 1.349 . S
C1499 C1515 1.349 . S
C1500 C1498 1.327 . S
C1500 C1519 1.429 . S
C1500 H1524 0.950 . S
C1501 C1518 1.574 . S
C1501 C1520 1.368 . S
C1501 H1525 0.949 . S
H1502 C1506 0.949 . S
C1503 C1504 1.349 . S
C1503 C1505 1.327 . S
C1503 H1526 0.950 . S
C1504 C1503 1.349 . S
C1504 C1516 1.349 . S
C1505 C1503 1.327 . S
C1505 C1521 1.429 . S
C1505 H1527 0.950 . S
C1506 H1502 0.949 . S
C1506 C1514 1.574 . S
C1506 C1522 1.368 . S
H1507 C1515 0.950 . S
H1508 C1513 0.950 . S
H1509 C1514 0.949 . S
H1510 C1516 0.950 1_545 S
H1511 C1517 0.950 . S
H1512 C1518 0.949 . S
C1513 H1508 0.950 . S
C1513 C1515 1.327 . S
C1513 C1519 1.429 . S
C1514 C1506 1.574 . S
C1514 H1509 0.949 . S
C1514 C1520 1.368 . S
C1515 C1499 1.349 . S
C1515 H1507 0.950 . S
C1515 C1513 1.327 . S
C1516 C1504 1.349 . S
C1516 H1510 0.950 1_565 S
C1516 C1517 1.327 . S
C1517 H1511 0.950 . S
C1517 C1516 1.327 . S
C1517 C1521 1.429 . S
C1518 C1501 1.574 . S
C1518 H1512 0.949 . S
C1518 C1522 1.368 . S
C1519 C1500 1.429 . S
C1519 C1513 1.429 . S
C1519 C1520 1.523 . S
C1520 C1501 1.368 . S
C1520 C1514 1.368 . S
C1520 C1519 1.523 . S
C1521 C1505 1.429 . S
C1521 C1517 1.429 . S
C1521 C1522 1.523 . S
C1522 C1506 1.368 . S
C1522 C1518 1.368 . S
C1522 C1521 1.523 . S
H1523 C1498 0.950 . S
H1524 C1500 0.950 . S
H1525 C1501 0.949 . S
H1526 C1503 0.950 . S
H1527 C1505 0.950 . S
C1528 C1529 1.349 . S
C1528 C1530 1.327 . S
C1528 H1553 0.950 . S
C1529 C1528 1.349 . S
C1529 C1545 1.349 . S
C1530 C1528 1.327 . S
C1530 C1549 1.429 . S
C1530 H1554 0.950 . S
C1531 C1548 1.574 . S
C1531 C1550 1.368 . S
C1531 H1555 0.949 . S
H1532 C1536 0.949 . S
C1533 C1534 1.349 . S
C1533 C1535 1.327 . S
C1533 H1556 0.950 . S
C1534 C1533 1.349 . S
C1534 C1546 1.349 . S
C1535 C1533 1.327 . S
C1535 C1551 1.429 . S
C1535 H1557 0.950 . S
C1536 H1532 0.949 . S
C1536 C1544 1.574 . S
C1536 C1552 1.368 . S
H1537 C1545 0.950 . S
H1538 C1543 0.950 . S
H1539 C1544 0.949 . S
H1540 C1546 0.950 . S
H1541 C1547 0.950 . S
H1542 C1548 0.949 . S
C1543 H1538 0.950 . S
C1543 C1545 1.327 . S
C1543 C1549 1.429 . S
C1544 C1536 1.574 . S
C1544 H1539 0.949 . S
C1544 C1550 1.368 . S
C1545 C1529 1.349 . S
C1545 H1537 0.950 . S
C1545 C1543 1.327 . S
C1546 C1534 1.349 . S
C1546 H1540 0.950 . S
C1546 C1547 1.327 . S
C1547 H1541 0.950 . S
C1547 C1546 1.327 . S
C1547 C1551 1.429 . S
C1548 C1531 1.574 . S
C1548 H1542 0.949 . S
C1548 C1552 1.368 . S
C1549 C1530 1.429 . S
C1549 C1543 1.429 . S
C1549 C1550 1.523 . S
C1550 C1531 1.368 . S
C1550 C1544 1.368 . S
C1550 C1549 1.523 . S
C1551 C1535 1.429 . S
C1551 C1547 1.429 . S
C1551 C1552 1.523 . S
C1552 C1536 1.368 . S
C1552 C1548 1.368 . S
C1552 C1551 1.523 . S
H1553 C1528 0.950 . S
H1554 C1530 0.950 . S
H1555 C1531 0.949 . S
H1556 C1533 0.950 . S
H1557 C1535 0.950 . S
C1558 C1559 1.349 . S
C1558 C1560 1.327 . S
C1558 H1583 0.950 . S
C1559 C1558 1.349 . S
C1559 C1575 1.349 . S
C1560 C1558 1.327 . S
C1560 C1579 1.429 . S
C1560 H1584 0.950 . S
C1561 C1578 1.574 . S
C1561 C1580 1.368 . S
C1561 H1585 0.949 . S
H1562 C1566 0.949 . S
C1563 C1564 1.349 . S
C1563 C1565 1.327 . S
C1563 H1586 0.950 . S
C1564 C1563 1.349 . S
C1564 C1576 1.349 . S
C1565 C1563 1.327 . S
C1565 C1581 1.429 . S
C1565 H1587 0.950 . S
C1566 H1562 0.949 . S
C1566 C1574 1.574 . S
C1566 C1582 1.368 . S
H1567 C1575 0.950 . S
H1568 C1573 0.950 . S
H1569 C1574 0.949 . S
H1570 C1576 0.950 . S
H1571 C1577 0.950 . S
H1572 C1578 0.949 . S
C1573 H1568 0.950 . S
C1573 C1575 1.327 . S
C1573 C1579 1.429 . S
C1574 C1566 1.574 . S
C1574 H1569 0.949 . S
C1574 C1580 1.368 . S
C1575 C1559 1.349 . S
C1575 H1567 0.950 . S
C1575 C1573 1.327 . S
C1576 C1564 1.349 . S
C1576 H1570 0.950 . S
C1576 C1577 1.327 . S
C1577 H1571 0.950 . S
C1577 C1576 1.327 . S
C1577 C1581 1.429 . S
C1578 C1561 1.574 . S
C1578 H1572 0.949 . S
C1578 C1582 1.368 . S
C1579 C1560 1.429 . S
C1579 C1573 1.429 . S
C1579 C1580 1.523 . S
C1580 C1561 1.368 . S
C1580 C1574 1.368 . S
C1580 C1579 1.523 . S
C1581 C1565 1.429 . S
C1581 C1577 1.429 . S
C1581 C1582 1.523 . S
C1582 C1566 1.368 . S
C1582 C1578 1.368 . S
C1582 C1581 1.523 . S
H1583 C1558 0.950 . S
H1584 C1560 0.950 . S
H1585 C1561 0.949 . S
H1586 C1563 0.950 . S
H1587 C1565 0.950 . S
C1588 C1589 1.349 . S
C1588 C1590 1.327 . S
C1588 H1613 0.950 . S
C1589 C1588 1.349 . S
C1589 C1605 1.349 . S
C1590 C1588 1.327 . S
C1590 C1609 1.429 . S
C1590 H1614 0.950 . S
C1591 C1608 1.574 . S
C1591 C1610 1.368 . S
C1591 H1615 0.949 . S
H1592 C1596 0.949 . S
C1593 C1594 1.349 . S
C1593 C1595 1.327 . S
C1593 H1616 0.950 . S
C1594 C1593 1.349 . S
C1594 C1606 1.349 . S
C1595 C1593 1.327 . S
C1595 C1611 1.429 . S
C1595 H1617 0.950 . S
C1596 H1592 0.949 . S
C1596 C1604 1.574 . S
C1596 C1612 1.368 . S
H1597 C1605 0.950 . S
H1598 C1603 0.950 . S
H1599 C1604 0.949 . S
H1600 C1606 0.950 . S
H1601 C1607 0.950 . S
H1602 C1608 0.949 . S
C1603 H1598 0.950 . S
C1603 C1605 1.327 . S
C1603 C1609 1.429 . S
C1604 C1596 1.574 . S
C1604 H1599 0.949 . S
C1604 C1610 1.368 . S
C1605 C1589 1.349 . S
C1605 H1597 0.950 . S
C1605 C1603 1.327 . S
C1606 C1594 1.349 . S
C1606 H1600 0.950 . S
C1606 C1607 1.327 . S
C1607 H1601 0.950 . S
C1607 C1606 1.327 . S
C1607 C1611 1.429 . S
C1608 C1591 1.574 . S
C1608 H1602 0.949 . S
C1608 C1612 1.368 . S
C1609 C1590 1.429 . S
C1609 C1603 1.429 . S
C1609 C1610 1.523 . S
C1610 C1591 1.368 . S
C1610 C1604 1.368 . S
C1610 C1609 1.523 . S
C1611 C1595 1.429 . S
C1611 C1607 1.429 . S
C1611 C1612 1.523 . S
C1612 C1596 1.368 . S
C1612 C1608 1.368 . S
C1612 C1611 1.523 . S
H1613 C1588 0.950 . S
H1614 C1590 0.950 . S
H1615 C1591 0.949 . S
H1616 C1593 0.950 . S
H1617 C1595 0.950 . S
C1618 C1619 1.349 . S
C1618 C1620 1.327 . S
C1618 H1643 0.950 . S
C1619 C1618 1.349 . S
C1619 C1635 1.349 . S
C1620 C1618 1.327 . S
C1620 C1639 1.429 . S
C1620 H1644 0.950 . S
C1621 C1638 1.574 . S
C1621 C1640 1.368 . S
C1621 H1645 0.949 . S
H1622 C1626 0.949 . S
C1623 C1624 1.349 . S
C1623 C1625 1.327 . S
C1623 H1646 0.950 . S
C1624 C1623 1.349 . S
C1624 C1636 1.349 . S
C1625 C1623 1.327 . S
C1625 C1641 1.429 . S
C1625 H1647 0.950 . S
C1626 H1622 0.949 . S
C1626 C1634 1.574 . S
C1626 C1642 1.368 . S
H1627 C1635 0.950 . S
H1628 C1633 0.950 . S
H1629 C1634 0.949 . S
H1630 C1636 0.950 . S
H1631 C1637 0.950 . S
H1632 C1638 0.949 . S
C1633 H1628 0.950 . S
C1633 C1635 1.327 . S
C1633 C1639 1.429 . S
C1634 C1626 1.574 . S
C1634 H1629 0.949 . S
C1634 C1640 1.368 . S
C1635 C1619 1.349 . S
C1635 H1627 0.950 . S
C1635 C1633 1.327 . S
C1636 C1624 1.349 . S
C1636 H1630 0.950 . S
C1636 C1637 1.327 . S
C1637 H1631 0.950 . S
C1637 C1636 1.327 . S
C1637 C1641 1.429 . S
C1638 C1621 1.574 . S
C1638 H1632 0.949 . S
C1638 C1642 1.368 . S
C1639 C1620 1.429 . S
C1639 C1633 1.429 . S
C1639 C1640 1.523 . S
C1640 C1621 1.368 . S
C1640 C1634 1.368 . S
C1640 C1639 1.523 . S
C1641 C1625 1.429 . S
C1641 C1637 1.429 . S
C1641 C1642 1.523 . S
C1642 C1626 1.368 . S
C1642 C1638 1.368 . S
C1642 C1641 1.523 . S
H1643 C1618 0.950 . S
H1644 C1620 0.950 . S
H1645 C1621 0.949 . S
H1646 C1623 0.950 . S
H1647 C1625 0.950 . S
C1648 C1649 1.349 . S
C1648 C1650 1.327 . S
C1648 H1673 0.950 . S
C1649 C1648 1.349 . S
C1649 C1665 1.349 . S
C1650 C1648 1.327 . S
C1650 C1669 1.429 . S
C1650 H1674 0.950 . S
C1651 C1668 1.574 . S
C1651 C1670 1.368 . S
C1651 H1675 0.949 . S
H1652 C1656 0.949 . S
C1653 C1654 1.349 . S
C1653 C1655 1.327 . S
C1653 H1676 0.950 . S
C1654 C1653 1.349 . S
C1654 C1666 1.349 . S
C1655 C1653 1.327 . S
C1655 C1671 1.429 . S
C1655 H1677 0.950 . S
C1656 H1652 0.949 . S
C1656 C1664 1.574 . S
C1656 C1672 1.368 . S
H1657 C1665 0.950 . S
H1658 C1663 0.950 . S
H1659 C1664 0.949 . S
H1660 C1666 0.950 1_565 S
H1661 C1667 0.950 . S
H1662 C1668 0.949 . S
C1663 H1658 0.950 . S
C1663 C1665 1.327 . S
C1663 C1669 1.429 . S
C1664 C1656 1.574 . S
C1664 H1659 0.949 . S
C1664 C1670 1.368 . S
C1665 C1649 1.349 . S
C1665 H1657 0.950 . S
C1665 C1663 1.327 . S
C1666 C1654 1.349 . S
C1666 H1660 0.950 1_545 S
C1666 C1667 1.327 . S
C1667 H1661 0.950 . S
C1667 C1666 1.327 . S
C1667 C1671 1.429 . S
C1668 C1651 1.574 . S
C1668 H1662 0.949 . S
C1668 C1672 1.368 . S
C1669 C1650 1.429 . S
C1669 C1663 1.429 . S
C1669 C1670 1.523 . S
C1670 C1651 1.368 . S
C1670 C1664 1.368 . S
C1670 C1669 1.523 . S
C1671 C1655 1.429 . S
C1671 C1667 1.429 . S
C1671 C1672 1.523 . S
C1672 C1656 1.368 . S
C1672 C1668 1.368 . S
C1672 C1671 1.523 . S
H1673 C1648 0.950 . S
H1674 C1650 0.950 . S
H1675 C1651 0.949 . S
H1676 C1653 0.950 . S
H1677 C1655 0.950 . S
C1678 C1679 1.349 . S
C1678 C1680 1.327 . S
C1678 H1703 0.950 . S
C1679 C1678 1.349 . S
C1679 C1695 1.349 . S
C1680 C1678 1.327 . S
C1680 C1699 1.429 . S
C1680 H1704 0.950 . S
C1681 C1698 1.574 . S
C1681 C1700 1.368 . S
C1681 H1705 0.949 . S
H1682 C1686 0.949 . S
C1683 C1684 1.349 . S
C1683 C1685 1.327 . S
C1683 H1706 0.950 . S
C1684 C1683 1.349 . S
C1684 C1696 1.349 . S
C1685 C1683 1.327 . S
C1685 C1701 1.429 . S
C1685 H1707 0.950 . S
C1686 H1682 0.949 . S
C1686 C1694 1.574 . S
C1686 C1702 1.368 . S
H1687 C1695 0.950 . S
H1688 C1693 0.950 . S
H1689 C1694 0.949 . S
H1690 C1696 0.950 1_565 S
H1691 C1697 0.950 . S
H1692 C1698 0.949 . S
C1693 H1688 0.950 . S
C1693 C1695 1.327 . S
C1693 C1699 1.429 . S
C1694 C1686 1.574 . S
C1694 H1689 0.949 . S
C1694 C1700 1.368 . S
C1695 C1679 1.349 . S
C1695 H1687 0.950 . S
C1695 C1693 1.327 . S
C1696 C1684 1.349 . S
C1696 H1690 0.950 1_545 S
C1696 C1697 1.327 . S
C1697 H1691 0.950 . S
C1697 C1696 1.327 . S
C1697 C1701 1.429 . S
C1698 C1681 1.574 . S
C1698 H1692 0.949 . S
C1698 C1702 1.368 . S
C1699 C1680 1.429 . S
C1699 C1693 1.429 . S
C1699 C1700 1.523 . S
C1700 C1681 1.368 . S
C1700 C1694 1.368 . S
C1700 C1699 1.523 . S
C1701 C1685 1.429 . S
C1701 C1697 1.429 . S
C1701 C1702 1.523 . S
C1702 C1686 1.368 . S
C1702 C1698 1.368 . S
C1702 C1701 1.523 . S
H1703 C1678 0.950 . S
H1704 C1680 0.950 . S
H1705 C1681 0.949 . S
H1706 C1683 0.950 . S
H1707 C1685 0.950 . S
C1708 C1709 1.349 . S
C1708 C1710 1.327 . S
C1708 H1733 0.950 1_565 S
C1709 C1708 1.349 . S
C1709 C1725 1.349 . S
C1710 C1708 1.327 . S
C1710 C1729 1.429 . S
C1710 H1734 0.950 . S
C1711 C1728 1.574 . S
C1711 C1730 1.368 . S
C1711 H1735 0.949 . S
H1712 C1716 0.949 . S
C1713 C1714 1.349 . S
C1713 C1715 1.327 . S
C1713 H1736 0.950 . S
C1714 C1713 1.349 . S
C1714 C1726 1.349 . S
C1715 C1713 1.327 . S
C1715 C1731 1.429 . S
C1715 H1737 0.950 . S
C1716 H1712 0.949 . S
C1716 C1724 1.574 . S
C1716 C1732 1.368 . S
H1717 C1725 0.950 . S
H1718 C1723 0.950 . S
H1719 C1724 0.949 . S
H1720 C1726 0.950 . S
H1721 C1727 0.950 . S
H1722 C1728 0.949 . S
C1723 H1718 0.950 . S
C1723 C1725 1.327 . S
C1723 C1729 1.429 . S
C1724 C1716 1.574 . S
C1724 H1719 0.949 . S
C1724 C1730 1.368 . S
C1725 C1709 1.349 . S
C1725 H1717 0.950 . S
C1725 C1723 1.327 . S
C1726 C1714 1.349 . S
C1726 H1720 0.950 . S
C1726 C1727 1.327 . S
C1727 H1721 0.950 . S
C1727 C1726 1.327 . S
C1727 C1731 1.429 . S
C1728 C1711 1.574 . S
C1728 H1722 0.949 . S
C1728 C1732 1.368 . S
C1729 C1710 1.429 . S
C1729 C1723 1.429 . S
C1729 C1730 1.523 . S
C1730 C1711 1.368 . S
C1730 C1724 1.368 . S
C1730 C1729 1.523 . S
C1731 C1715 1.429 . S
C1731 C1727 1.429 . S
C1731 C1732 1.523 . S
C1732 C1716 1.368 . S
C1732 C1728 1.368 . S
C1732 C1731 1.523 . S
H1733 C1708 0.950 1_545 S
H1734 C1710 0.950 . S
H1735 C1711 0.949 . S
H1736 C1713 0.950 . S
H1737 C1715 0.950 . S
C1738 C1739 1.349 . S
C1738 C1740 1.327 . S
C1738 H1763 0.950 1_565 S
C1739 C1738 1.349 . S
C1739 C1755 1.349 . S
C1740 C1738 1.327 . S
C1740 C1759 1.429 . S
C1740 H1764 0.950 . S
C1741 C1758 1.574 . S
C1741 C1760 1.368 . S
C1741 H1765 0.949 . S
H1742 C1746 0.949 . S
C1743 C1744 1.349 . S
C1743 C1745 1.327 . S
C1743 H1766 0.950 . S
C1744 C1743 1.349 . S
C1744 C1756 1.349 . S
C1745 C1743 1.327 . S
C1745 C1761 1.429 . S
C1745 H1767 0.950 . S
C1746 H1742 0.949 . S
C1746 C1754 1.574 . S
C1746 C1762 1.368 . S
H1747 C1755 0.950 . S
H1748 C1753 0.950 . S
H1749 C1754 0.949 . S
H1750 C1756 0.950 . S
H1751 C1757 0.950 . S
H1752 C1758 0.949 . S
C1753 H1748 0.950 . S
C1753 C1755 1.327 . S
C1753 C1759 1.429 . S
C1754 C1746 1.574 . S
C1754 H1749 0.949 . S
C1754 C1760 1.368 . S
C1755 C1739 1.349 . S
C1755 H1747 0.950 . S
C1755 C1753 1.327 . S
C1756 C1744 1.349 . S
C1756 H1750 0.950 . S
C1756 C1757 1.327 . S
C1757 H1751 0.950 . S
C1757 C1756 1.327 . S
C1757 C1761 1.429 . S
C1758 C1741 1.574 . S
C1758 H1752 0.949 . S
C1758 C1762 1.368 . S
C1759 C1740 1.429 . S
C1759 C1753 1.429 . S
C1759 C1760 1.523 . S
C1760 C1741 1.368 . S
C1760 C1754 1.368 . S
C1760 C1759 1.523 . S
C1761 C1745 1.429 . S
C1761 C1757 1.429 . S
C1761 C1762 1.523 . S
C1762 C1746 1.368 . S
C1762 C1758 1.368 . S
C1762 C1761 1.523 . S
H1763 C1738 0.950 1_545 S
H1764 C1740 0.950 . S
H1765 C1741 0.949 . S
H1766 C1743 0.950 . S
H1767 C1745 0.950 . S
C1768 C1769 1.349 . S
C1768 C1770 1.327 . S
C1768 H1793 0.950 . S
C1769 C1768 1.349 . S
C1769 C1785 1.349 . S
C1770 C1768 1.327 . S
C1770 C1789 1.429 . S
C1770 H1794 0.950 . S
C1771 C1788 1.574 . S
C1771 C1790 1.368 . S
C1771 H1795 0.949 . S
H1772 C1776 0.949 . S
C1773 C1774 1.349 . S
C1773 C1775 1.327 . S
C1773 H1796 0.950 . S
C1774 C1773 1.349 . S
C1774 C1786 1.349 . S
C1775 C1773 1.327 . S
C1775 C1791 1.429 . S
C1775 H1797 0.950 . S
C1776 H1772 0.949 . S
C1776 C1784 1.574 . S
C1776 C1792 1.368 . S
H1777 C1785 0.950 . S
H1778 C1783 0.950 . S
H1779 C1784 0.949 . S
H1780 C1786 0.950 . S
H1781 C1787 0.950 . S
H1782 C1788 0.949 . S
C1783 H1778 0.950 . S
C1783 C1785 1.327 . S
C1783 C1789 1.429 . S
C1784 C1776 1.574 . S
C1784 H1779 0.949 . S
C1784 C1790 1.368 . S
C1785 C1769 1.349 . S
C1785 H1777 0.950 . S
C1785 C1783 1.327 . S
C1786 C1774 1.349 . S
C1786 H1780 0.950 . S
C1786 C1787 1.327 . S
C1787 H1781 0.950 . S
C1787 C1786 1.327 . S
C1787 C1791 1.429 . S
C1788 C1771 1.574 . S
C1788 H1782 0.949 . S
C1788 C1792 1.368 . S
C1789 C1770 1.429 . S
C1789 C1783 1.429 . S
C1789 C1790 1.523 . S
C1790 C1771 1.368 . S
C1790 C1784 1.368 . S
C1790 C1789 1.523 . S
C1791 C1775 1.429 . S
C1791 C1787 1.429 . S
C1791 C1792 1.523 . S
C1792 C1776 1.368 . S
C1792 C1788 1.368 . S
C1792 C1791 1.523 . S
H1793 C1768 0.950 . S
H1794 C1770 0.950 . S
H1795 C1771 0.949 . S
H1796 C1773 0.950 . S
H1797 C1775 0.950 . S
C1798 C1799 1.349 . S
C1798 C1800 1.327 . S
C1798 H1823 0.950 . S
C1799 C1798 1.349 . S
C1799 C1815 1.349 . S
C1800 C1798 1.327 . S
C1800 C1819 1.429 . S
C1800 H1824 0.950 . S
C1801 C1818 1.574 . S
C1801 C1820 1.368 . S
C1801 H1825 0.949 . S
H1802 C1806 0.949 . S
C1803 C1804 1.349 . S
C1803 C1805 1.327 . S
C1803 H1826 0.950 . S
C1804 C1803 1.349 . S
C1804 C1816 1.349 . S
C1805 C1803 1.327 . S
C1805 C1821 1.429 . S
C1805 H1827 0.950 . S
C1806 H1802 0.949 . S
C1806 C1814 1.574 . S
C1806 C1822 1.368 . S
H1807 C1815 0.950 . S
H1808 C1813 0.950 . S
H1809 C1814 0.949 . S
H1810 C1816 0.950 . S
H1811 C1817 0.950 . S
H1812 C1818 0.949 . S
C1813 H1808 0.950 . S
C1813 C1815 1.327 . S
C1813 C1819 1.429 . S
C1814 C1806 1.574 . S
C1814 H1809 0.949 . S
C1814 C1820 1.368 . S
C1815 C1799 1.349 . S
C1815 H1807 0.950 . S
C1815 C1813 1.327 . S
C1816 C1804 1.349 . S
C1816 H1810 0.950 . S
C1816 C1817 1.327 . S
C1817 H1811 0.950 . S
C1817 C1816 1.327 . S
C1817 C1821 1.429 . S
C1818 C1801 1.574 . S
C1818 H1812 0.949 . S
C1818 C1822 1.368 . S
C1819 C1800 1.429 . S
C1819 C1813 1.429 . S
C1819 C1820 1.523 . S
C1820 C1801 1.368 . S
C1820 C1814 1.368 . S
C1820 C1819 1.523 . S
C1821 C1805 1.429 . S
C1821 C1817 1.429 . S
C1821 C1822 1.523 . S
C1822 C1806 1.368 . S
C1822 C1818 1.368 . S
C1822 C1821 1.523 . S
H1823 C1798 0.950 . S
H1824 C1800 0.950 . S
H1825 C1801 0.949 . S
H1826 C1803 0.950 . S
H1827 C1805 0.950 . S
C1828 C1829 1.349 . S
C1828 C1830 1.327 . S
C1828 H1853 0.950 . S
C1829 C1828 1.349 . S
C1829 C1845 1.349 . S
C1830 C1828 1.327 . S
C1830 C1849 1.429 . S
C1830 H1854 0.950 . S
C1831 C1848 1.574 . S
C1831 C1850 1.368 . S
C1831 H1855 0.949 . S
H1832 C1836 0.949 . S
C1833 C1834 1.349 . S
C1833 C1835 1.327 . S
C1833 H1856 0.950 . S
C1834 C1833 1.349 . S
C1834 C1846 1.349 . S
C1835 C1833 1.327 . S
C1835 C1851 1.429 . S
C1835 H1857 0.950 . S
C1836 H1832 0.949 . S
C1836 C1844 1.574 . S
C1836 C1852 1.368 . S
H1837 C1845 0.950 . S
H1838 C1843 0.950 . S
H1839 C1844 0.949 . S
H1840 C1846 0.950 . S
H1841 C1847 0.950 . S
H1842 C1848 0.949 . S
C1843 H1838 0.950 . S
C1843 C1845 1.327 . S
C1843 C1849 1.429 . S
C1844 C1836 1.574 . S
C1844 H1839 0.949 . S
C1844 C1850 1.368 . S
C1845 C1829 1.349 . S
C1845 H1837 0.950 . S
C1845 C1843 1.327 . S
C1846 C1834 1.349 . S
C1846 H1840 0.950 . S
C1846 C1847 1.327 . S
C1847 H1841 0.950 . S
C1847 C1846 1.327 . S
C1847 C1851 1.429 . S
C1848 C1831 1.574 . S
C1848 H1842 0.949 . S
C1848 C1852 1.368 . S
C1849 C1830 1.429 . S
C1849 C1843 1.429 . S
C1849 C1850 1.523 . S
C1850 C1831 1.368 . S
C1850 C1844 1.368 . S
C1850 C1849 1.523 . S
C1851 C1835 1.429 . S
C1851 C1847 1.429 . S
C1851 C1852 1.523 . S
C1852 C1836 1.368 . S
C1852 C1848 1.368 . S
C1852 C1851 1.523 . S
H1853 C1828 0.950 . S
H1854 C1830 0.950 . S
H1855 C1831 0.949 . S
H1856 C1833 0.950 . S
H1857 C1835 0.950 . S
C1858 C1859 1.349 . S
C1858 C1860 1.327 . S
C1858 H1883 0.950 . S
C1859 C1858 1.349 . S
C1859 C1875 1.349 . S
C1860 C1858 1.327 . S
C1860 C1879 1.429 . S
C1860 H1884 0.950 . S
C1861 C1878 1.574 . S
C1861 C1880 1.368 . S
C1861 H1885 0.949 . S
H1862 C1866 0.949 . S
C1863 C1864 1.349 . S
C1863 C1865 1.327 . S
C1863 H1886 0.950 . S
C1864 C1863 1.349 . S
C1864 C1876 1.349 . S
C1865 C1863 1.327 . S
C1865 C1881 1.429 . S
C1865 H1887 0.950 . S
C1866 H1862 0.949 . S
C1866 C1874 1.574 . S
C1866 C1882 1.368 . S
H1867 C1875 0.950 . S
H1868 C1873 0.950 . S
H1869 C1874 0.949 . S
H1870 C1876 0.950 . S
H1871 C1877 0.950 . S
H1872 C1878 0.949 . S
C1873 H1868 0.950 . S
C1873 C1875 1.327 . S
C1873 C1879 1.429 . S
C1874 C1866 1.574 . S
C1874 H1869 0.949 . S
C1874 C1880 1.368 . S
C1875 C1859 1.349 . S
C1875 H1867 0.950 . S
C1875 C1873 1.327 . S
C1876 C1864 1.349 . S
C1876 H1870 0.950 . S
C1876 C1877 1.327 . S
C1877 H1871 0.950 . S
C1877 C1876 1.327 . S
C1877 C1881 1.429 . S
C1878 C1861 1.574 . S
C1878 H1872 0.949 . S
C1878 C1882 1.368 . S
C1879 C1860 1.429 . S
C1879 C1873 1.429 . S
C1879 C1880 1.523 . S
C1880 C1861 1.368 . S
C1880 C1874 1.368 . S
C1880 C1879 1.523 . S
C1881 C1865 1.429 . S
C1881 C1877 1.429 . S
C1881 C1882 1.523 . S
C1882 C1866 1.368 . S
C1882 C1878 1.368 . S
C1882 C1881 1.523 . S
H1883 C1858 0.950 . S
H1884 C1860 0.950 . S
H1885 C1861 0.949 . S
H1886 C1863 0.950 . S
H1887 C1865 0.950 . S
C1888 C1889 1.349 . S
C1888 C1890 1.327 . S
C1888 H1913 0.950 . S
C1889 C1888 1.349 . S
C1889 C1905 1.349 . S
C1890 C1888 1.327 . S
C1890 C1909 1.429 . S
C1890 H1914 0.950 . S
C1891 C1908 1.574 . S
C1891 C1910 1.368 . S
C1891 H1915 0.949 . S
H1892 C1896 0.949 . S
C1893 C1894 1.349 1_545 S
C1893 C1895 1.327 . S
C1893 H1916 0.950 . S
C1894 C1893 1.349 1_565 S
C1894 C1906 1.349 . S
C1895 C1893 1.327 . S
C1895 C1911 1.429 . S
C1895 H1917 0.950 . S
C1896 H1892 0.949 . S
C1896 C1904 1.574 . S
C1896 C1912 1.368 . S
H1897 C1905 0.950 . S
H1898 C1903 0.950 . S
H1899 C1904 0.949 . S
H1900 C1906 0.950 . S
H1901 C1907 0.950 . S
H1902 C1908 0.949 . S
C1903 H1898 0.950 . S
C1903 C1905 1.327 . S
C1903 C1909 1.429 . S
C1904 C1896 1.574 . S
C1904 H1899 0.949 . S
C1904 C1910 1.368 . S
C1905 C1889 1.349 . S
C1905 H1897 0.950 . S
C1905 C1903 1.327 . S
C1906 C1894 1.349 . S
C1906 H1900 0.950 . S
C1906 C1907 1.327 1_565 S
C1907 H1901 0.950 . S
C1907 C1906 1.327 1_545 S
C1907 C1911 1.429 . S
C1908 C1891 1.574 . S
C1908 H1902 0.949 . S
C1908 C1912 1.368 . S
C1909 C1890 1.429 . S
C1909 C1903 1.429 . S
C1909 C1910 1.523 . S
C1910 C1891 1.368 . S
C1910 C1904 1.368 . S
C1910 C1909 1.523 . S
C1911 C1895 1.429 . S
C1911 C1907 1.429 . S
C1911 C1912 1.523 . S
C1912 C1896 1.368 . S
C1912 C1908 1.368 . S
C1912 C1911 1.523 . S
H1913 C1888 0.950 . S
H1914 C1890 0.950 . S
H1915 C1891 0.949 . S
H1916 C1893 0.950 . S
H1917 C1895 0.950 . S
C1918 C1919 1.349 1_545 S
C1918 C1920 1.332 . S
C1918 H1943 0.945 1_545 S
C1919 C1918 1.349 1_565 S
C1919 C1935 1.349 1_565 S
C1920 C1918 1.332 . S
C1920 C1939 1.429 . S
C1920 H1944 0.950 . S
C1921 C1938 1.574 . S
C1921 C1940 1.368 . S
C1921 H1945 0.949 . S
H1922 C1926 0.949 . S
C1923 C1924 1.349 . S
C1923 C1925 1.327 . S
C1923 H1946 0.950 . S
C1924 C1923 1.349 . S
C1924 C1936 1.349 . S
C1925 C1923 1.327 . S
C1925 C1941 1.429 . S
C1925 H1947 0.950 . S
C1926 H1922 0.949 . S
C1926 C1934 1.574 . S
C1926 C1942 1.368 . S
H1927 C1935 0.950 . S
H1928 C1933 0.950 . S
H1929 C1934 0.949 . S
H1930 C1936 0.950 . S
H1931 C1937 0.950 . S
H1932 C1938 0.949 . S
C1933 H1928 0.950 . S
C1933 C1935 1.327 . S
C1933 C1939 1.429 . S
C1934 C1926 1.574 . S
C1934 H1929 0.949 . S
C1934 C1940 1.368 . S
C1935 C1919 1.349 1_545 S
C1935 H1927 0.950 . S
C1935 C1933 1.327 . S
C1936 C1924 1.349 . S
C1936 H1930 0.950 . S
C1936 C1937 1.327 . S
C1937 H1931 0.950 . S
C1937 C1936 1.327 . S
C1937 C1941 1.429 . S
C1938 C1921 1.574 . S
C1938 H1932 0.949 . S
C1938 C1942 1.368 . S
C1939 C1920 1.429 . S
C1939 C1933 1.429 . S
C1939 C1940 1.523 . S
C1940 C1921 1.368 . S
C1940 C1934 1.368 . S
C1940 C1939 1.523 . S
C1941 C1925 1.429 . S
C1941 C1937 1.429 . S
C1941 C1942 1.523 . S
C1942 C1926 1.368 . S
C1942 C1938 1.368 . S
C1942 C1941 1.523 . S
H1943 C1918 0.945 1_565 S
H1944 C1920 0.950 . S
H1945 C1921 0.949 . S
H1946 C1923 0.950 . S
H1947 C1925 0.950 . S
C1948 C1949 1.349 . S
C1948 C1950 1.327 . S
C1948 H1973 0.950 . S
C1949 C1948 1.349 . S
C1949 C1965 1.349 . S
C1950 C1948 1.327 . S
C1950 C1969 1.429 . S
C1950 H1974 0.950 . S
C1951 C1968 1.574 . S
C1951 C1970 1.368 . S
C1951 H1975 0.949 . S
H1952 C1956 0.949 . S
C1953 C1954 1.349 1_565 S
C1953 C1955 1.327 . S
C1953 H1976 0.950 . S
C1954 C1953 1.349 1_545 S
C1954 C1966 1.349 1_545 S
C1955 C1953 1.327 . S
C1955 C1971 1.429 . S
C1955 H1977 0.950 . S
C1956 H1952 0.949 . S
C1956 C1964 1.574 . S
C1956 C1972 1.368 . S
H1957 C1965 0.950 . S
H1958 C1963 0.950 . S
H1959 C1964 0.949 . S
H1960 C1966 0.950 . S
H1961 C1967 0.950 . S
H1962 C1968 0.949 . S
C1963 H1958 0.950 . S
C1963 C1965 1.327 . S
C1963 C1969 1.429 . S
C1964 C1956 1.574 . S
C1964 H1959 0.949 . S
C1964 C1970 1.368 . S
C1965 C1949 1.349 . S
C1965 H1957 0.950 . S
C1965 C1963 1.327 . S
C1966 C1954 1.349 1_565 S
C1966 H1960 0.950 . S
C1966 C1967 1.327 . S
C1967 H1961 0.950 . S
C1967 C1966 1.327 . S
C1967 C1971 1.429 . S
C1968 C1951 1.574 . S
C1968 H1962 0.949 . S
C1968 C1972 1.368 . S
C1969 C1950 1.429 . S
C1969 C1963 1.429 . S
C1969 C1970 1.523 . S
C1970 C1951 1.368 . S
C1970 C1964 1.368 . S
C1970 C1969 1.523 . S
C1971 C1955 1.429 . S
C1971 C1967 1.429 . S
C1971 C1972 1.523 . S
C1972 C1956 1.368 . S
C1972 C1968 1.368 . S
C1972 C1971 1.523 . S
H1973 C1948 0.950 . S
H1974 C1950 0.950 . S
H1975 C1951 0.949 . S
H1976 C1953 0.950 . S
H1977 C1955 0.950 . S
C1978 C1979 1.349 . S
C1978 C1980 1.327 1_545 S
C1978 H2003 0.950 . S
C1979 C1978 1.349 . S
C1979 C1995 1.349 1_545 S
C1980 C1978 1.327 1_565 S
C1980 C1999 1.429 . S
C1980 H2004 0.950 . S
C1981 C1998 1.574 . S
C1981 C2000 1.368 . S
C1981 H2005 0.949 . S
H1982 C1986 0.949 . S
C1983 C1984 1.349 . S
C1983 C1985 1.327 . S
C1983 H2006 0.950 . S
C1984 C1983 1.349 . S
C1984 C1996 1.349 . S
C1985 C1983 1.327 . S
C1985 C2001 1.429 . S
C1985 H2007 0.950 . S
C1986 H1982 0.949 . S
C1986 C1994 1.574 . S
C1986 C2002 1.368 . S
H1987 C1995 0.950 . S
H1988 C1993 0.950 . S
H1989 C1994 0.949 . S
H1990 C1996 0.950 . S
H1991 C1997 0.950 . S
H1992 C1998 0.949 . S
C1993 H1988 0.950 . S
C1993 C1995 1.327 . S
C1993 C1999 1.429 . S
C1994 C1986 1.574 . S
C1994 H1989 0.949 . S
C1994 C2000 1.368 . S
C1995 C1979 1.349 1_565 S
C1995 H1987 0.950 . S
C1995 C1993 1.327 . S
C1996 C1984 1.349 . S
C1996 H1990 0.950 . S
C1996 C1997 1.327 . S
C1997 H1991 0.950 . S
C1997 C1996 1.327 . S
C1997 C2001 1.429 . S
C1998 C1981 1.574 . S
C1998 H1992 0.949 . S
C1998 C2002 1.368 . S
C1999 C1980 1.429 . S
C1999 C1993 1.429 . S
C1999 C2000 1.523 . S
C2000 C1981 1.368 . S
C2000 C1994 1.368 . S
C2000 C1999 1.523 . S
C2001 C1985 1.429 . S
C2001 C1997 1.429 . S
C2001 C2002 1.523 . S
C2002 C1986 1.368 . S
C2002 C1998 1.368 . S
C2002 C2001 1.523 . S
H2003 C1978 0.950 . S
H2004 C1980 0.950 . S
H2005 C1981 0.949 . S
H2006 C1983 0.950 . S
H2007 C1985 0.950 . S
C2008 C2009 1.349 . S
C2008 C2010 1.327 . S
C2008 H2033 0.950 . S
C2009 C2008 1.349 . S
C2009 C2025 1.349 . S
C2010 C2008 1.327 . S
C2010 C2029 1.429 . S
C2010 H2034 0.950 . S
C2011 C2028 1.574 . S
C2011 C2030 1.368 . S
C2011 H2035 0.949 . S
H2012 C2016 0.949 . S
C2013 C2014 1.349 . S
C2013 C2015 1.327 . S
C2013 H2036 0.950 . S
C2014 C2013 1.349 . S
C2014 C2026 1.349 . S
C2015 C2013 1.327 . S
C2015 C2031 1.429 . S
C2015 H2037 0.950 . S
C2016 H2012 0.949 . S
C2016 C2024 1.574 . S
C2016 C2032 1.368 . S
H2017 C2025 0.950 . S
H2018 C2023 0.950 . S
H2019 C2024 0.949 . S
H2020 C2026 0.950 . S
H2021 C2027 0.950 . S
H2022 C2028 0.949 . S
C2023 H2018 0.950 . S
C2023 C2025 1.327 . S
C2023 C2029 1.429 . S
C2024 C2016 1.574 . S
C2024 H2019 0.949 . S
C2024 C2030 1.368 . S
C2025 C2009 1.349 . S
C2025 H2017 0.950 . S
C2025 C2023 1.327 . S
C2026 C2014 1.349 . S
C2026 H2020 0.950 . S
C2026 C2027 1.327 . S
C2027 H2021 0.950 . S
C2027 C2026 1.327 . S
C2027 C2031 1.429 . S
C2028 C2011 1.574 . S
C2028 H2022 0.949 . S
C2028 C2032 1.368 . S
C2029 C2010 1.429 . S
C2029 C2023 1.429 . S
C2029 C2030 1.523 . S
C2030 C2011 1.368 . S
C2030 C2024 1.368 . S
C2030 C2029 1.523 . S
C2031 C2015 1.429 . S
C2031 C2027 1.429 . S
C2031 C2032 1.523 . S
C2032 C2016 1.368 . S
C2032 C2028 1.368 . S
C2032 C2031 1.523 . S
H2033 C2008 0.950 . S
H2034 C2010 0.950 . S
H2035 C2011 0.949 . S
H2036 C2013 0.950 . S
H2037 C2015 0.950 . S
C2038 C2039 1.349 . S
C2038 C2040 1.327 . S
C2038 H2063 0.950 . S
C2039 C2038 1.349 . S
C2039 C2055 1.349 . S
C2040 C2038 1.327 . S
C2040 C2059 1.429 . S
C2040 H2064 0.950 . S
C2041 C2058 1.574 . S
C2041 C2060 1.368 . S
C2041 H2065 0.949 . S
H2042 C2046 0.949 . S
C2043 C2044 1.349 . S
C2043 C2045 1.327 . S
C2043 H2066 0.950 . S
C2044 C2043 1.349 . S
C2044 C2056 1.349 . S
C2045 C2043 1.327 . S
C2045 C2061 1.429 . S
C2045 H2067 0.950 . S
C2046 H2042 0.949 . S
C2046 C2054 1.574 . S
C2046 C2062 1.368 . S
H2047 C2055 0.950 . S
H2048 C2053 0.950 . S
H2049 C2054 0.949 . S
H2050 C2056 0.950 . S
H2051 C2057 0.950 . S
H2052 C2058 0.949 . S
C2053 H2048 0.950 . S
C2053 C2055 1.327 . S
C2053 C2059 1.429 . S
C2054 C2046 1.574 . S
C2054 H2049 0.949 . S
C2054 C2060 1.368 . S
C2055 C2039 1.349 . S
C2055 H2047 0.950 . S
C2055 C2053 1.327 . S
C2056 C2044 1.349 . S
C2056 H2050 0.950 . S
C2056 C2057 1.327 . S
C2057 H2051 0.950 . S
C2057 C2056 1.327 . S
C2057 C2061 1.429 . S
C2058 C2041 1.574 . S
C2058 H2052 0.949 . S
C2058 C2062 1.368 . S
C2059 C2040 1.429 . S
C2059 C2053 1.429 . S
C2059 C2060 1.523 . S
C2060 C2041 1.368 . S
C2060 C2054 1.368 . S
C2060 C2059 1.523 . S
C2061 C2045 1.429 . S
C2061 C2057 1.429 . S
C2061 C2062 1.523 . S
C2062 C2046 1.368 . S
C2062 C2058 1.368 . S
C2062 C2061 1.523 . S
H2063 C2038 0.950 . S
H2064 C2040 0.950 . S
H2065 C2041 0.949 . S
H2066 C2043 0.950 . S
H2067 C2045 0.950 . S
C2068 C2069 1.349 . S
C2068 C2070 1.327 . S
C2068 H2093 0.950 . S
C2069 C2068 1.349 . S
C2069 C2085 1.349 . S
C2070 C2068 1.327 . S
C2070 C2089 1.429 . S
C2070 H2094 0.950 . S
C2071 C2088 1.574 . S
C2071 C2090 1.368 . S
C2071 H2095 0.949 . S
H2072 C2076 0.949 . S
C2073 C2074 1.349 . S
C2073 C2075 1.327 . S
C2073 H2096 0.950 . S
C2074 C2073 1.349 . S
C2074 C2086 1.349 . S
C2075 C2073 1.327 . S
C2075 C2091 1.429 . S
C2075 H2097 0.950 . S
C2076 H2072 0.949 . S
C2076 C2084 1.574 . S
C2076 C2092 1.368 . S
H2077 C2085 0.950 . S
H2078 C2083 0.950 . S
H2079 C2084 0.949 . S
H2080 C2086 0.950 . S
H2081 C2087 0.950 . S
H2082 C2088 0.949 . S
C2083 H2078 0.950 . S
C2083 C2085 1.327 . S
C2083 C2089 1.429 . S
C2084 C2076 1.574 . S
C2084 H2079 0.949 . S
C2084 C2090 1.368 . S
C2085 C2069 1.349 . S
C2085 H2077 0.950 . S
C2085 C2083 1.327 . S
C2086 C2074 1.349 . S
C2086 H2080 0.950 . S
C2086 C2087 1.327 . S
C2087 H2081 0.950 . S
C2087 C2086 1.327 . S
C2087 C2091 1.429 . S
C2088 C2071 1.574 . S
C2088 H2082 0.949 . S
C2088 C2092 1.368 . S
C2089 C2070 1.429 . S
C2089 C2083 1.429 . S
C2089 C2090 1.523 . S
C2090 C2071 1.368 . S
C2090 C2084 1.368 . S
C2090 C2089 1.523 . S
C2091 C2075 1.429 . S
C2091 C2087 1.429 . S
C2091 C2092 1.523 . S
C2092 C2076 1.368 . S
C2092 C2088 1.368 . S
C2092 C2091 1.523 . S
H2093 C2068 0.950 . S
H2094 C2070 0.950 . S
H2095 C2071 0.949 . S
H2096 C2073 0.950 . S
H2097 C2075 0.950 . S
C2098 C2099 1.349 . S
C2098 C2100 1.327 . S
C2098 H2123 0.950 . S
C2099 C2098 1.349 . S
C2099 C2115 1.349 . S
C2100 C2098 1.327 . S
C2100 C2119 1.429 . S
C2100 H2124 0.950 . S
C2101 C2118 1.574 . S
C2101 C2120 1.368 . S
C2101 H2125 0.949 . S
H2102 C2106 0.949 . S
C2103 C2104 1.349 . S
C2103 C2105 1.327 . S
C2103 H2126 0.950 . S
C2104 C2103 1.349 . S
C2104 C2116 1.349 . S
C2105 C2103 1.327 . S
C2105 C2121 1.429 . S
C2105 H2127 0.950 . S
C2106 H2102 0.949 . S
C2106 C2114 1.574 . S
C2106 C2122 1.368 . S
H2107 C2115 0.950 . S
H2108 C2113 0.950 . S
H2109 C2114 0.949 . S
H2110 C2116 0.950 . S
H2111 C2117 0.950 . S
H2112 C2118 0.949 . S
C2113 H2108 0.950 . S
C2113 C2115 1.327 . S
C2113 C2119 1.429 . S
C2114 C2106 1.574 . S
C2114 H2109 0.949 . S
C2114 C2120 1.368 . S
C2115 C2099 1.349 . S
C2115 H2107 0.950 . S
C2115 C2113 1.327 . S
C2116 C2104 1.349 . S
C2116 H2110 0.950 . S
C2116 C2117 1.327 . S
C2117 H2111 0.950 . S
C2117 C2116 1.327 . S
C2117 C2121 1.429 . S
C2118 C2101 1.574 . S
C2118 H2112 0.949 . S
C2118 C2122 1.368 . S
C2119 C2100 1.429 . S
C2119 C2113 1.429 . S
C2119 C2120 1.523 . S
C2120 C2101 1.368 . S
C2120 C2114 1.368 . S
C2120 C2119 1.523 . S
C2121 C2105 1.429 . S
C2121 C2117 1.429 . S
C2121 C2122 1.523 . S
C2122 C2106 1.368 . S
C2122 C2118 1.368 . S
C2122 C2121 1.523 . S
H2123 C2098 0.950 . S
H2124 C2100 0.950 . S
H2125 C2101 0.949 . S
H2126 C2103 0.950 . S
H2127 C2105 0.950 . S
C2128 C2129 1.349 1_545 S
C2128 C2130 1.327 . S
C2128 H2153 0.950 . S
C2129 C2128 1.349 1_565 S
C2129 C2145 1.349 . S
C2130 C2128 1.327 . S
C2130 C2149 1.429 . S
C2130 H2154 0.950 . S
C2131 C2148 1.574 . S
C2131 C2150 1.368 . S
C2131 H2155 0.949 . S
H2132 C2136 0.949 . S
C2133 C2134 1.349 . S
C2133 C2135 1.327 . S
C2133 H2156 0.950 . S
C2134 C2133 1.349 . S
C2134 C2146 1.349 . S
C2135 C2133 1.327 . S
C2135 C2151 1.429 . S
C2135 H2157 0.950 . S
C2136 H2132 0.949 . S
C2136 C2144 1.574 . S
C2136 C2152 1.368 . S
H2137 C2145 0.950 . S
H2138 C2143 0.950 . S
H2139 C2144 0.949 . S
H2140 C2146 0.950 . S
H2141 C2147 0.950 . S
H2142 C2148 0.949 . S
C2143 H2138 0.950 . S
C2143 C2145 1.327 1_545 S
C2143 C2149 1.429 . S
C2144 C2136 1.574 . S
C2144 H2139 0.949 . S
C2144 C2150 1.368 . S
C2145 C2129 1.349 . S
C2145 H2137 0.950 . S
C2145 C2143 1.327 1_565 S
C2146 C2134 1.349 . S
C2146 H2140 0.950 . S
C2146 C2147 1.327 . S
C2147 H2141 0.950 . S
C2147 C2146 1.327 . S
C2147 C2151 1.429 . S
C2148 C2131 1.574 . S
C2148 H2142 0.949 . S
C2148 C2152 1.368 . S
C2149 C2130 1.429 . S
C2149 C2143 1.429 . S
C2149 C2150 1.523 . S
C2150 C2131 1.368 . S
C2150 C2144 1.368 . S
C2150 C2149 1.523 . S
C2151 C2135 1.429 . S
C2151 C2147 1.429 . S
C2151 C2152 1.523 . S
C2152 C2136 1.368 . S
C2152 C2148 1.368 . S
C2152 C2151 1.523 . S
H2153 C2128 0.950 . S
H2154 C2130 0.950 . S
H2155 C2131 0.949 . S
H2156 C2133 0.950 . S
H2157 C2135 0.950 . S
C2158 C2159 1.349 1_545 S
C2158 C2160 1.327 . S
C2158 H2183 0.950 1_545 S
C2159 C2158 1.349 1_565 S
C2159 C2175 1.349 1_565 S
C2160 C2158 1.327 . S
C2160 C2179 1.429 . S
C2160 H2184 0.950 . S
C2161 C2178 1.574 . S
C2161 C2180 1.368 . S
C2161 H2185 0.949 . S
H2162 C2166 0.949 . S
C2163 C2164 1.349 . S
C2163 C2165 1.327 . S
C2163 H2186 0.950 . S
C2164 C2163 1.349 . S
C2164 C2176 1.349 . S
C2165 C2163 1.327 . S
C2165 C2181 1.429 . S
C2165 H2187 0.950 . S
C2166 H2162 0.949 . S
C2166 C2174 1.574 . S
C2166 C2182 1.368 . S
H2167 C2175 0.950 . S
H2168 C2173 0.950 . S
H2169 C2174 0.949 . S
H2170 C2176 0.950 . S
H2171 C2177 0.950 . S
H2172 C2178 0.949 . S
C2173 H2168 0.950 . S
C2173 C2175 1.327 . S
C2173 C2179 1.429 . S
C2174 C2166 1.574 . S
C2174 H2169 0.949 . S
C2174 C2180 1.368 . S
C2175 C2159 1.349 1_545 S
C2175 H2167 0.950 . S
C2175 C2173 1.327 . S
C2176 C2164 1.349 . S
C2176 H2170 0.950 . S
C2176 C2177 1.327 . S
C2177 H2171 0.950 . S
C2177 C2176 1.327 . S
C2177 C2181 1.429 . S
C2178 C2161 1.574 . S
C2178 H2172 0.949 . S
C2178 C2182 1.368 . S
C2179 C2160 1.429 . S
C2179 C2173 1.429 . S
C2179 C2180 1.523 . S
C2180 C2161 1.368 . S
C2180 C2174 1.368 . S
C2180 C2179 1.523 . S
C2181 C2165 1.429 . S
C2181 C2177 1.429 . S
C2181 C2182 1.523 . S
C2182 C2166 1.368 . S
C2182 C2178 1.368 . S
C2182 C2181 1.523 . S
H2183 C2158 0.950 1_565 S
H2184 C2160 0.950 . S
H2185 C2161 0.949 . S
H2186 C2163 0.950 . S
H2187 C2165 0.950 . S
C2188 C2189 1.349 1_565 S
C2188 C2190 1.327 . S
C2188 H2213 0.950 . S
C2189 C2188 1.349 1_545 S
C2189 C2205 1.349 1_545 S
C2190 C2188 1.327 . S
C2190 C2209 1.429 . S
C2190 H2214 0.950 . S
C2191 C2208 1.574 . S
C2191 C2210 1.368 . S
C2191 H2215 0.949 . S
H2192 C2196 0.949 . S
C2193 C2194 1.349 . S
C2193 C2195 1.327 . S
C2193 H2216 0.950 . S
C2194 C2193 1.349 . S
C2194 C2206 1.349 . S
C2195 C2193 1.327 . S
C2195 C2211 1.429 . S
C2195 H2217 0.950 . S
C2196 H2192 0.949 . S
C2196 C2204 1.574 . S
C2196 C2212 1.368 . S
H2197 C2205 0.950 1_545 S
H2198 C2203 0.950 . S
H2199 C2204 0.949 . S
H2200 C2206 0.950 . S
H2201 C2207 0.950 . S
H2202 C2208 0.949 . S
C2203 H2198 0.950 . S
C2203 C2205 1.327 . S
C2203 C2209 1.429 . S
C2204 C2196 1.574 . S
C2204 H2199 0.949 . S
C2204 C2210 1.368 . S
C2205 C2189 1.349 1_565 S
C2205 H2197 0.950 1_565 S
C2205 C2203 1.327 . S
C2206 C2194 1.349 . S
C2206 H2200 0.950 . S
C2206 C2207 1.327 . S
C2207 H2201 0.950 . S
C2207 C2206 1.327 . S
C2207 C2211 1.429 . S
C2208 C2191 1.574 . S
C2208 H2202 0.949 . S
C2208 C2212 1.368 . S
C2209 C2190 1.429 . S
C2209 C2203 1.429 . S
C2209 C2210 1.523 . S
C2210 C2191 1.368 . S
C2210 C2204 1.368 . S
C2210 C2209 1.523 . S
C2211 C2195 1.429 . S
C2211 C2207 1.429 . S
C2211 C2212 1.523 . S
C2212 C2196 1.368 . S
C2212 C2208 1.368 . S
C2212 C2211 1.523 . S
H2213 C2188 0.950 . S
H2214 C2190 0.950 . S
H2215 C2191 0.949 . S
H2216 C2193 0.950 . S
H2217 C2195 0.950 . S
C2218 C2219 1.349 1_565 S
C2218 C2220 1.327 . S
C2218 H2243 0.950 . S
C2219 C2218 1.349 1_545 S
C2219 C2235 1.349 1_545 S
C2220 C2218 1.327 . S
C2220 C2239 1.429 . S
C2220 H2244 0.950 . S
C2221 C2238 1.574 . S
C2221 C2240 1.368 . S
C2221 H2245 0.949 . S
H2222 C2226 0.949 . S
C2223 C2224 1.349 . S
C2223 C2225 1.327 . S
C2223 H2246 0.950 . S
C2224 C2223 1.349 . S
C2224 C2236 1.349 . S
C2225 C2223 1.327 . S
C2225 C2241 1.429 . S
C2225 H2247 0.950 . S
C2226 H2222 0.949 . S
C2226 C2234 1.574 . S
C2226 C2242 1.368 . S
H2227 C2235 0.950 . S
H2228 C2233 0.950 . S
H2229 C2234 0.949 . S
H2230 C2236 0.950 . S
H2231 C2237 0.950 . S
H2232 C2238 0.949 . S
C2233 H2228 0.950 . S
C2233 C2235 1.327 . S
C2233 C2239 1.429 . S
C2234 C2226 1.574 . S
C2234 H2229 0.949 . S
C2234 C2240 1.368 . S
C2235 C2219 1.349 1_565 S
C2235 H2227 0.950 . S
C2235 C2233 1.327 . S
C2236 C2224 1.349 . S
C2236 H2230 0.950 . S
C2236 C2237 1.327 . S
C2237 H2231 0.950 . S
C2237 C2236 1.327 . S
C2237 C2241 1.429 . S
C2238 C2221 1.574 . S
C2238 H2232 0.949 . S
C2238 C2242 1.368 . S
C2239 C2220 1.429 . S
C2239 C2233 1.429 . S
C2239 C2240 1.523 . S
C2240 C2221 1.368 . S
C2240 C2234 1.368 . S
C2240 C2239 1.523 . S
C2241 C2225 1.429 . S
C2241 C2237 1.429 . S
C2241 C2242 1.523 . S
C2242 C2226 1.368 . S
C2242 C2238 1.368 . S
C2242 C2241 1.523 . S
H2243 C2218 0.950 . S
H2244 C2220 0.950 . S
H2245 C2221 0.949 . S
H2246 C2223 0.950 . S
H2247 C2225 0.950 . S
C2248 C2249 1.349 . S
C2248 C2250 1.327 . S
C2248 H2273 0.950 . S
C2249 C2248 1.349 . S
C2249 C2265 1.349 . S
C2250 C2248 1.327 . S
C2250 C2269 1.429 . S
C2250 H2274 0.950 . S
C2251 C2268 1.574 . S
C2251 C2270 1.368 . S
C2251 H2275 0.949 . S
H2252 C2256 0.949 . S
C2253 C2254 1.349 . S
C2253 C2255 1.327 . S
C2253 H2276 0.950 . S
C2254 C2253 1.349 . S
C2254 C2266 1.349 . S
C2255 C2253 1.327 . S
C2255 C2271 1.429 . S
C2255 H2277 0.950 . S
C2256 H2252 0.949 . S
C2256 C2264 1.574 . S
C2256 C2272 1.368 . S
H2257 C2265 0.950 . S
H2258 C2263 0.950 . S
H2259 C2264 0.949 . S
H2260 C2266 0.950 . S
H2261 C2267 0.950 . S
H2262 C2268 0.949 . S
C2263 H2258 0.950 . S
C2263 C2265 1.327 . S
C2263 C2269 1.429 . S
C2264 C2256 1.574 . S
C2264 H2259 0.949 . S
C2264 C2270 1.368 . S
C2265 C2249 1.349 . S
C2265 H2257 0.950 . S
C2265 C2263 1.327 . S
C2266 C2254 1.349 . S
C2266 H2260 0.950 . S
C2266 C2267 1.327 . S
C2267 H2261 0.950 . S
C2267 C2266 1.327 . S
C2267 C2271 1.429 . S
C2268 C2251 1.574 . S
C2268 H2262 0.949 . S
C2268 C2272 1.368 . S
C2269 C2250 1.429 . S
C2269 C2263 1.429 . S
C2269 C2270 1.523 . S
C2270 C2251 1.368 . S
C2270 C2264 1.368 . S
C2270 C2269 1.523 . S
C2271 C2255 1.429 . S
C2271 C2267 1.429 . S
C2271 C2272 1.523 . S
C2272 C2256 1.368 . S
C2272 C2268 1.368 . S
C2272 C2271 1.523 . S
H2273 C2248 0.950 . S
H2274 C2250 0.950 . S
H2275 C2251 0.949 . S
H2276 C2253 0.950 . S
H2277 C2255 0.950 . S
C2278 C2279 1.349 . S
C2278 C2280 1.327 . S
C2278 H2303 0.950 . S
C2279 C2278 1.349 . S
C2279 C2295 1.349 . S
C2280 C2278 1.327 . S
C2280 C2299 1.429 . S
C2280 H2304 0.950 . S
C2281 C2298 1.574 . S
C2281 C2300 1.368 . S
C2281 H2305 0.949 . S
H2282 C2286 0.949 . S
C2283 C2284 1.349 . S
C2283 C2285 1.327 . S
C2283 H2306 0.950 . S
C2284 C2283 1.349 . S
C2284 C2296 1.349 . S
C2285 C2283 1.327 . S
C2285 C2301 1.429 . S
C2285 H2307 0.950 . S
C2286 H2282 0.949 . S
C2286 C2294 1.574 . S
C2286 C2302 1.368 . S
H2287 C2295 0.950 . S
H2288 C2293 0.950 . S
H2289 C2294 0.949 . S
H2290 C2296 0.950 . S
H2291 C2297 0.950 . S
H2292 C2298 0.949 . S
C2293 H2288 0.950 . S
C2293 C2295 1.327 . S
C2293 C2299 1.429 . S
C2294 C2286 1.574 . S
C2294 H2289 0.949 . S
C2294 C2300 1.368 . S
C2295 C2279 1.349 . S
C2295 H2287 0.950 . S
C2295 C2293 1.327 . S
C2296 C2284 1.349 . S
C2296 H2290 0.950 . S
C2296 C2297 1.327 . S
C2297 H2291 0.950 . S
C2297 C2296 1.327 . S
C2297 C2301 1.429 . S
C2298 C2281 1.574 . S
C2298 H2292 0.949 . S
C2298 C2302 1.368 . S
C2299 C2280 1.429 . S
C2299 C2293 1.429 . S
C2299 C2300 1.523 . S
C2300 C2281 1.368 . S
C2300 C2294 1.368 . S
C2300 C2299 1.523 . S
C2301 C2285 1.429 . S
C2301 C2297 1.429 . S
C2301 C2302 1.523 . S
C2302 C2286 1.368 . S
C2302 C2298 1.368 . S
C2302 C2301 1.523 . S
H2303 C2278 0.950 . S
H2304 C2280 0.950 . S
H2305 C2281 0.949 . S
H2306 C2283 0.950 . S
H2307 C2285 0.950 . S
C2308 C2309 1.349 . S
C2308 C2310 1.327 . S
C2308 H2333 0.950 . S
C2309 C2308 1.349 . S
C2309 C2325 1.349 . S
C2310 C2308 1.327 . S
C2310 C2329 1.429 . S
C2310 H2334 0.950 . S
C2311 C2328 1.574 . S
C2311 C2330 1.368 . S
C2311 H2335 0.949 . S
H2312 C2316 0.949 . S
C2313 C2314 1.349 . S
C2313 C2315 1.327 . S
C2313 H2336 0.950 . S
C2314 C2313 1.349 . S
C2314 C2326 1.349 . S
C2315 C2313 1.327 . S
C2315 C2331 1.429 . S
C2315 H2337 0.950 . S
C2316 H2312 0.949 . S
C2316 C2324 1.574 . S
C2316 C2332 1.368 . S
H2317 C2325 0.950 . S
H2318 C2323 0.950 . S
H2319 C2324 0.949 . S
H2320 C2326 0.950 . S
H2321 C2327 0.950 . S
H2322 C2328 0.949 . S
C2323 H2318 0.950 . S
C2323 C2325 1.327 . S
C2323 C2329 1.429 . S
C2324 C2316 1.574 . S
C2324 H2319 0.949 . S
C2324 C2330 1.368 . S
C2325 C2309 1.349 . S
C2325 H2317 0.950 . S
C2325 C2323 1.327 . S
C2326 C2314 1.349 . S
C2326 H2320 0.950 . S
C2326 C2327 1.327 . S
C2327 H2321 0.950 . S
C2327 C2326 1.327 . S
C2327 C2331 1.429 . S
C2328 C2311 1.574 . S
C2328 H2322 0.949 . S
C2328 C2332 1.368 . S
C2329 C2310 1.429 . S
C2329 C2323 1.429 . S
C2329 C2330 1.523 . S
C2330 C2311 1.368 . S
C2330 C2324 1.368 . S
C2330 C2329 1.523 . S
C2331 C2315 1.429 . S
C2331 C2327 1.429 . S
C2331 C2332 1.523 . S
C2332 C2316 1.368 . S
C2332 C2328 1.368 . S
C2332 C2331 1.523 . S
H2333 C2308 0.950 . S
H2334 C2310 0.950 . S
H2335 C2311 0.949 . S
H2336 C2313 0.950 . S
H2337 C2315 0.950 . S
C2338 C2339 1.349 . S
C2338 C2340 1.327 . S
C2338 H2363 0.950 . S
C2339 C2338 1.349 . S
C2339 C2355 1.349 . S
C2340 C2338 1.327 . S
C2340 C2359 1.429 . S
C2340 H2364 0.950 . S
C2341 C2358 1.574 . S
C2341 C2360 1.368 . S
C2341 H2365 0.949 . S
H2342 C2346 0.949 . S
C2343 C2344 1.349 . S
C2343 C2345 1.327 . S
C2343 H2366 0.950 . S
C2344 C2343 1.349 . S
C2344 C2356 1.349 . S
C2345 C2343 1.327 . S
C2345 C2361 1.429 . S
C2345 H2367 0.950 . S
C2346 H2342 0.949 . S
C2346 C2354 1.574 . S
C2346 C2362 1.368 . S
H2347 C2355 0.950 . S
H2348 C2353 0.950 . S
H2349 C2354 0.949 . S
H2350 C2356 0.950 . S
H2351 C2357 0.950 . S
H2352 C2358 0.949 . S
C2353 H2348 0.950 . S
C2353 C2355 1.327 . S
C2353 C2359 1.429 . S
C2354 C2346 1.574 . S
C2354 H2349 0.949 . S
C2354 C2360 1.368 . S
C2355 C2339 1.349 . S
C2355 H2347 0.950 . S
C2355 C2353 1.327 . S
C2356 C2344 1.349 . S
C2356 H2350 0.950 . S
C2356 C2357 1.327 . S
C2357 H2351 0.950 . S
C2357 C2356 1.327 . S
C2357 C2361 1.429 . S
C2358 C2341 1.574 . S
C2358 H2352 0.949 . S
C2358 C2362 1.368 . S
C2359 C2340 1.429 . S
C2359 C2353 1.429 . S
C2359 C2360 1.523 . S
C2360 C2341 1.368 . S
C2360 C2354 1.368 . S
C2360 C2359 1.523 . S
C2361 C2345 1.429 . S
C2361 C2357 1.429 . S
C2361 C2362 1.523 . S
C2362 C2346 1.368 . S
C2362 C2358 1.368 . S
C2362 C2361 1.523 . S
H2363 C2338 0.950 . S
H2364 C2340 0.950 . S
H2365 C2341 0.949 . S
H2366 C2343 0.950 . S
H2367 C2345 0.950 . S
C2368 C2369 1.349 . S
C2368 C2370 1.327 . S
C2368 H2393 0.950 . S
C2369 C2368 1.349 . S
C2369 C2385 1.349 . S
C2370 C2368 1.327 . S
C2370 C2389 1.429 . S
C2370 H2394 0.950 . S
C2371 C2388 1.574 . S
C2371 C2390 1.368 . S
C2371 H2395 0.949 . S
H2372 C2376 0.949 . S
C2373 C2374 1.349 . S
C2373 C2375 1.327 . S
C2373 H2396 0.950 . S
C2374 C2373 1.349 . S
C2374 C2386 1.349 . S
C2375 C2373 1.327 . S
C2375 C2391 1.429 . S
C2375 H2397 0.950 . S
C2376 H2372 0.949 . S
C2376 C2384 1.574 . S
C2376 C2392 1.368 . S
H2377 C2385 0.950 . S
H2378 C2383 0.950 . S
H2379 C2384 0.949 . S
H2380 C2386 0.950 . S
H2381 C2387 0.950 . S
H2382 C2388 0.949 . S
C2383 H2378 0.950 . S
C2383 C2385 1.327 . S
C2383 C2389 1.429 . S
C2384 C2376 1.574 . S
C2384 H2379 0.949 . S
C2384 C2390 1.368 . S
C2385 C2369 1.349 . S
C2385 H2377 0.950 . S
C2385 C2383 1.327 . S
C2386 C2374 1.349 . S
C2386 H2380 0.950 . S
C2386 C2387 1.327 . S
C2387 H2381 0.950 . S
C2387 C2386 1.327 . S
C2387 C2391 1.429 . S
C2388 C2371 1.574 . S
C2388 H2382 0.949 . S
C2388 C2392 1.368 . S
C2389 C2370 1.429 . S
C2389 C2383 1.429 . S
C2389 C2390 1.523 . S
C2390 C2371 1.368 . S
C2390 C2384 1.368 . S
C2390 C2389 1.523 . S
C2391 C2375 1.429 . S
C2391 C2387 1.429 . S
C2391 C2392 1.523 . S
C2392 C2376 1.368 . S
C2392 C2388 1.368 . S
C2392 C2391 1.523 . S
H2393 C2368 0.950 . S
H2394 C2370 0.950 . S
H2395 C2371 0.949 . S
H2396 C2373 0.950 . S
H2397 C2375 0.950 . S
C2398 C2399 1.349 . S
C2398 C2400 1.327 . S
C2398 H2423 0.950 . S
C2399 C2398 1.349 . S
C2399 C2415 1.349 . S
C2400 C2398 1.327 . S
C2400 C2419 1.429 . S
C2400 H2424 0.950 . S
C2401 C2418 1.574 . S
C2401 C2420 1.368 . S
C2401 H2425 0.949 . S
H2402 C2406 0.949 . S
C2403 C2404 1.349 . S
C2403 C2405 1.327 . S
C2403 H2426 0.950 . S
C2404 C2403 1.349 . S
C2404 C2416 1.349 . S
C2405 C2403 1.327 . S
C2405 C2421 1.429 . S
C2405 H2427 0.950 . S
C2406 H2402 0.949 . S
C2406 C2414 1.574 . S
C2406 C2422 1.368 . S
H2407 C2415 0.950 . S
H2408 C2413 0.950 . S
H2409 C2414 0.949 . S
H2410 C2416 0.950 . S
H2411 C2417 0.950 . S
H2412 C2418 0.949 . S
C2413 H2408 0.950 . S
C2413 C2415 1.327 . S
C2413 C2419 1.429 . S
C2414 C2406 1.574 . S
C2414 H2409 0.949 . S
C2414 C2420 1.368 . S
C2415 C2399 1.349 . S
C2415 H2407 0.950 . S
C2415 C2413 1.327 . S
C2416 C2404 1.349 . S
C2416 H2410 0.950 . S
C2416 C2417 1.327 . S
C2417 H2411 0.950 . S
C2417 C2416 1.327 . S
C2417 C2421 1.429 . S
C2418 C2401 1.574 . S
C2418 H2412 0.949 . S
C2418 C2422 1.368 . S
C2419 C2400 1.429 . S
C2419 C2413 1.429 . S
C2419 C2420 1.523 . S
C2420 C2401 1.368 . S
C2420 C2414 1.368 . S
C2420 C2419 1.523 . S
C2421 C2405 1.429 . S
C2421 C2417 1.429 . S
C2421 C2422 1.523 . S
C2422 C2406 1.368 . S
C2422 C2418 1.368 . S
C2422 C2421 1.523 . S
H2423 C2398 0.950 . S
H2424 C2400 0.950 . S
H2425 C2401 0.949 . S
H2426 C2403 0.950 . S
H2427 C2405 0.950 . S
C2428 C2429 1.349 . S
C2428 C2430 1.327 . S
C2428 H2453 0.950 . S
C2429 C2428 1.349 . S
C2429 C2445 1.349 . S
C2430 C2428 1.327 . S
C2430 C2449 1.429 . S
C2430 H2454 0.950 . S
C2431 C2448 1.574 . S
C2431 C2450 1.368 . S
C2431 H2455 0.949 . S
H2432 C2436 0.949 . S
C2433 C2434 1.349 . S
C2433 C2435 1.327 . S
C2433 H2456 0.950 . S
C2434 C2433 1.349 . S
C2434 C2446 1.349 . S
C2435 C2433 1.327 . S
C2435 C2451 1.429 . S
C2435 H2457 0.950 . S
C2436 H2432 0.949 . S
C2436 C2444 1.574 . S
C2436 C2452 1.368 . S
H2437 C2445 0.950 . S
H2438 C2443 0.950 . S
H2439 C2444 0.949 . S
H2440 C2446 0.950 . S
H2441 C2447 0.950 . S
H2442 C2448 0.949 . S
C2443 H2438 0.950 . S
C2443 C2445 1.327 . S
C2443 C2449 1.429 . S
C2444 C2436 1.574 . S
C2444 H2439 0.949 . S
C2444 C2450 1.368 . S
C2445 C2429 1.349 . S
C2445 H2437 0.950 . S
C2445 C2443 1.327 . S
C2446 C2434 1.349 . S
C2446 H2440 0.950 . S
C2446 C2447 1.327 . S
C2447 H2441 0.950 . S
C2447 C2446 1.327 . S
C2447 C2451 1.429 . S
C2448 C2431 1.574 . S
C2448 H2442 0.949 . S
C2448 C2452 1.368 . S
C2449 C2430 1.429 . S
C2449 C2443 1.429 . S
C2449 C2450 1.523 . S
C2450 C2431 1.368 . S
C2450 C2444 1.368 . S
C2450 C2449 1.523 . S
C2451 C2435 1.429 . S
C2451 C2447 1.429 . S
C2451 C2452 1.523 . S
C2452 C2436 1.368 . S
C2452 C2448 1.368 . S
C2452 C2451 1.523 . S
H2453 C2428 0.950 . S
H2454 C2430 0.950 . S
H2455 C2431 0.949 . S
H2456 C2433 0.950 . S
H2457 C2435 0.950 . S
C2458 C2459 1.349 . S
C2458 C2460 1.327 . S
C2458 H2483 0.950 . S
C2459 C2458 1.349 . S
C2459 C2475 1.349 . S
C2460 C2458 1.327 . S
C2460 C2479 1.429 . S
C2460 H2484 0.950 . S
C2461 C2478 1.574 . S
C2461 C2480 1.368 . S
C2461 H2485 0.949 . S
H2462 C2466 0.949 . S
C2463 C2464 1.349 . S
C2463 C2465 1.327 . S
C2463 H2486 0.950 . S
C2464 C2463 1.349 . S
C2464 C2476 1.349 . S
C2465 C2463 1.327 . S
C2465 C2481 1.429 . S
C2465 H2487 0.950 . S
C2466 H2462 0.949 . S
C2466 C2474 1.574 . S
C2466 C2482 1.368 . S
H2467 C2475 0.950 . S
H2468 C2473 0.950 . S
H2469 C2474 0.949 . S
H2470 C2476 0.950 . S
H2471 C2477 0.950 . S
H2472 C2478 0.949 . S
C2473 H2468 0.950 . S
C2473 C2475 1.327 . S
C2473 C2479 1.429 . S
C2474 C2466 1.574 . S
C2474 H2469 0.949 . S
C2474 C2480 1.368 . S
C2475 C2459 1.349 . S
C2475 H2467 0.950 . S
C2475 C2473 1.327 . S
C2476 C2464 1.349 . S
C2476 H2470 0.950 . S
C2476 C2477 1.327 . S
C2477 H2471 0.950 . S
C2477 C2476 1.327 . S
C2477 C2481 1.429 . S
C2478 C2461 1.574 . S
C2478 H2472 0.949 . S
C2478 C2482 1.368 . S
C2479 C2460 1.429 . S
C2479 C2473 1.429 . S
C2479 C2480 1.523 . S
C2480 C2461 1.368 . S
C2480 C2474 1.368 . S
C2480 C2479 1.523 . S
C2481 C2465 1.429 . S
C2481 C2477 1.429 . S
C2481 C2482 1.523 . S
C2482 C2466 1.368 . S
C2482 C2478 1.368 . S
C2482 C2481 1.523 . S
H2483 C2458 0.950 . S
H2484 C2460 0.950 . S
H2485 C2461 0.949 . S
H2486 C2463 0.950 . S
H2487 C2465 0.950 . S
C2488 C2489 1.349 . S
C2488 C2490 1.327 . S
C2488 H2513 0.950 . S
C2489 C2488 1.349 . S
C2489 C2505 1.349 . S
C2490 C2488 1.327 . S
C2490 C2509 1.429 . S
C2490 H2514 0.950 . S
C2491 C2508 1.574 . S
C2491 C2510 1.368 . S
C2491 H2515 0.949 . S
H2492 C2496 0.949 . S
C2493 C2494 1.349 . S
C2493 C2495 1.327 . S
C2493 H2516 0.950 . S
C2494 C2493 1.349 . S
C2494 C2506 1.349 . S
C2495 C2493 1.327 . S
C2495 C2511 1.429 . S
C2495 H2517 0.950 . S
C2496 H2492 0.949 . S
C2496 C2504 1.574 . S
C2496 C2512 1.368 . S
H2497 C2505 0.950 . S
H2498 C2503 0.950 . S
H2499 C2504 0.949 . S
H2500 C2506 0.950 . S
H2501 C2507 0.950 . S
H2502 C2508 0.949 . S
C2503 H2498 0.950 . S
C2503 C2505 1.327 . S
C2503 C2509 1.429 . S
C2504 C2496 1.574 . S
C2504 H2499 0.949 . S
C2504 C2510 1.368 . S
C2505 C2489 1.349 . S
C2505 H2497 0.950 . S
C2505 C2503 1.327 . S
C2506 C2494 1.349 . S
C2506 H2500 0.950 . S
C2506 C2507 1.327 . S
C2507 H2501 0.950 . S
C2507 C2506 1.327 . S
C2507 C2511 1.429 . S
C2508 C2491 1.574 . S
C2508 H2502 0.949 . S
C2508 C2512 1.368 . S
C2509 C2490 1.429 . S
C2509 C2503 1.429 . S
C2509 C2510 1.523 . S
C2510 C2491 1.368 . S
C2510 C2504 1.368 . S
C2510 C2509 1.523 . S
C2511 C2495 1.429 . S
C2511 C2507 1.429 . S
C2511 C2512 1.523 . S
C2512 C2496 1.368 . S
C2512 C2508 1.368 . S
C2512 C2511 1.523 . S
H2513 C2488 0.950 . S
H2514 C2490 0.950 . S
H2515 C2491 0.949 . S
H2516 C2493 0.950 . S
H2517 C2495 0.950 . S
C2518 C2519 1.349 . S
C2518 C2520 1.327 . S
C2518 H2543 0.950 . S
C2519 C2518 1.349 . S
C2519 C2535 1.349 . S
C2520 C2518 1.327 . S
C2520 C2539 1.429 . S
C2520 H2544 0.950 . S
C2521 C2538 1.574 . S
C2521 C2540 1.368 . S
C2521 H2545 0.949 . S
H2522 C2526 0.949 . S
C2523 C2524 1.349 . S
C2523 C2525 1.327 . S
C2523 H2546 0.950 . S
C2524 C2523 1.349 . S
C2524 C2536 1.349 . S
C2525 C2523 1.327 . S
C2525 C2541 1.429 . S
C2525 H2547 0.950 . S
C2526 H2522 0.949 . S
C2526 C2534 1.574 . S
C2526 C2542 1.368 . S
H2527 C2535 0.950 . S
H2528 C2533 0.950 . S
H2529 C2534 0.949 . S
H2530 C2536 0.950 . S
H2531 C2537 0.950 . S
H2532 C2538 0.949 . S
C2533 H2528 0.950 . S
C2533 C2535 1.327 . S
C2533 C2539 1.429 . S
C2534 C2526 1.574 . S
C2534 H2529 0.949 . S
C2534 C2540 1.368 . S
C2535 C2519 1.349 . S
C2535 H2527 0.950 . S
C2535 C2533 1.327 . S
C2536 C2524 1.349 . S
C2536 H2530 0.950 . S
C2536 C2537 1.327 . S
C2537 H2531 0.950 . S
C2537 C2536 1.327 . S
C2537 C2541 1.429 . S
C2538 C2521 1.574 . S
C2538 H2532 0.949 . S
C2538 C2542 1.368 . S
C2539 C2520 1.429 . S
C2539 C2533 1.429 . S
C2539 C2540 1.523 . S
C2540 C2521 1.368 . S
C2540 C2534 1.368 . S
C2540 C2539 1.523 . S
C2541 C2525 1.429 . S
C2541 C2537 1.429 . S
C2541 C2542 1.523 . S
C2542 C2526 1.368 . S
C2542 C2538 1.368 . S
C2542 C2541 1.523 . S
H2543 C2518 0.950 . S
H2544 C2520 0.950 . S
H2545 C2521 0.949 . S
H2546 C2523 0.950 . S
H2547 C2525 0.950 . S
C2548 C2549 1.349 . S
C2548 C2550 1.327 . S
C2548 H2573 0.950 . S
C2549 C2548 1.349 . S
C2549 C2565 1.349 . S
C2550 C2548 1.327 . S
C2550 C2569 1.429 . S
C2550 H2574 0.950 . S
C2551 C2568 1.574 . S
C2551 C2570 1.368 . S
C2551 H2575 0.949 . S
H2552 C2556 0.949 . S
C2553 C2554 1.349 . S
C2553 C2555 1.327 . S
C2553 H2576 0.950 . S
C2554 C2553 1.349 . S
C2554 C2566 1.349 . S
C2555 C2553 1.327 . S
C2555 C2571 1.429 . S
C2555 H2577 0.950 . S
C2556 H2552 0.949 . S
C2556 C2564 1.574 . S
C2556 C2572 1.368 . S
H2557 C2565 0.950 . S
H2558 C2563 0.950 . S
H2559 C2564 0.949 . S
H2560 C2566 0.950 . S
H2561 C2567 0.950 . S
H2562 C2568 0.949 . S
C2563 H2558 0.950 . S
C2563 C2565 1.327 . S
C2563 C2569 1.429 . S
C2564 C2556 1.574 . S
C2564 H2559 0.949 . S
C2564 C2570 1.368 . S
C2565 C2549 1.349 . S
C2565 H2557 0.950 . S
C2565 C2563 1.327 . S
C2566 C2554 1.349 . S
C2566 H2560 0.950 . S
C2566 C2567 1.327 . S
C2567 H2561 0.950 . S
C2567 C2566 1.327 . S
C2567 C2571 1.429 . S
C2568 C2551 1.574 . S
C2568 H2562 0.949 . S
C2568 C2572 1.368 . S
C2569 C2550 1.429 . S
C2569 C2563 1.429 . S
C2569 C2570 1.523 . S
C2570 C2551 1.368 . S
C2570 C2564 1.368 . S
C2570 C2569 1.523 . S
C2571 C2555 1.429 . S
C2571 C2567 1.429 . S
C2571 C2572 1.523 . S
C2572 C2556 1.368 . S
C2572 C2568 1.368 . S
C2572 C2571 1.523 . S
H2573 C2548 0.950 . S
H2574 C2550 0.950 . S
H2575 C2551 0.949 . S
H2576 C2553 0.950 . S
H2577 C2555 0.950 . S
C2578 C2579 1.349 . S
C2578 C2580 1.327 . S
C2578 H2603 0.950 . S
C2579 C2578 1.349 . S
C2579 C2595 1.349 . S
C2580 C2578 1.327 . S
C2580 C2599 1.429 . S
C2580 H2604 0.950 . S
C2581 C2598 1.574 . S
C2581 C2600 1.368 . S
C2581 H2605 0.949 . S
H2582 C2586 0.949 . S
C2583 C2584 1.349 . S
C2583 C2585 1.327 . S
C2583 H2606 0.950 . S
C2584 C2583 1.349 . S
C2584 C2596 1.349 . S
C2585 C2583 1.327 . S
C2585 C2601 1.429 . S
C2585 H2607 0.950 . S
C2586 H2582 0.949 . S
C2586 C2594 1.574 . S
C2586 C2602 1.368 . S
H2587 C2595 0.950 . S
H2588 C2593 0.950 . S
H2589 C2594 0.949 . S
H2590 C2596 0.950 . S
H2591 C2597 0.950 . S
H2592 C2598 0.949 . S
C2593 H2588 0.950 . S
C2593 C2595 1.327 . S
C2593 C2599 1.429 . S
C2594 C2586 1.574 . S
C2594 H2589 0.949 . S
C2594 C2600 1.368 . S
C2595 C2579 1.349 . S
C2595 H2587 0.950 . S
C2595 C2593 1.327 . S
C2596 C2584 1.349 . S
C2596 H2590 0.950 . S
C2596 C2597 1.327 . S
C2597 H2591 0.950 . S
C2597 C2596 1.327 . S
C2597 C2601 1.429 . S
C2598 C2581 1.574 . S
C2598 H2592 0.949 . S
C2598 C2602 1.368 . S
C2599 C2580 1.429 . S
C2599 C2593 1.429 . S
C2599 C2600 1.523 . S
C2600 C2581 1.368 . S
C2600 C2594 1.368 . S
C2600 C2599 1.523 . S
C2601 C2585 1.429 . S
C2601 C2597 1.429 . S
C2601 C2602 1.523 . S
C2602 C2586 1.368 . S
C2602 C2598 1.368 . S
C2602 C2601 1.523 . S
H2603 C2578 0.950 . S
H2604 C2580 0.950 . S
H2605 C2581 0.949 . S
H2606 C2583 0.950 . S
H2607 C2585 0.950 . S
C2608 C2609 1.349 . S
C2608 C2610 1.327 . S
C2608 H2633 0.950 . S
C2609 C2608 1.349 . S
C2609 C2625 1.349 . S
C2610 C2608 1.327 . S
C2610 C2629 1.429 . S
C2610 H2634 0.950 . S
C2611 C2628 1.574 . S
C2611 C2630 1.368 . S
C2611 H2635 0.949 . S
H2612 C2616 0.949 . S
C2613 C2614 1.349 . S
C2613 C2615 1.327 . S
C2613 H2636 0.950 . S
C2614 C2613 1.349 . S
C2614 C2626 1.349 . S
C2615 C2613 1.327 . S
C2615 C2631 1.429 . S
C2615 H2637 0.950 . S
C2616 H2612 0.949 . S
C2616 C2624 1.574 . S
C2616 C2632 1.368 . S
H2617 C2625 0.950 . S
H2618 C2623 0.950 . S
H2619 C2624 0.949 . S
H2620 C2626 0.950 . S
H2621 C2627 0.950 . S
H2622 C2628 0.949 . S
C2623 H2618 0.950 . S
C2623 C2625 1.327 . S
C2623 C2629 1.429 . S
C2624 C2616 1.574 . S
C2624 H2619 0.949 . S
C2624 C2630 1.368 . S
C2625 C2609 1.349 . S
C2625 H2617 0.950 . S
C2625 C2623 1.327 . S
C2626 C2614 1.349 . S
C2626 H2620 0.950 . S
C2626 C2627 1.327 . S
C2627 H2621 0.950 . S
C2627 C2626 1.327 . S
C2627 C2631 1.429 . S
C2628 C2611 1.574 . S
C2628 H2622 0.949 . S
C2628 C2632 1.368 . S
C2629 C2610 1.429 . S
C2629 C2623 1.429 . S
C2629 C2630 1.523 . S
C2630 C2611 1.368 . S
C2630 C2624 1.368 . S
C2630 C2629 1.523 . S
C2631 C2615 1.429 . S
C2631 C2627 1.429 . S
C2631 C2632 1.523 . S
C2632 C2616 1.368 . S
C2632 C2628 1.368 . S
C2632 C2631 1.523 . S
H2633 C2608 0.950 . S
H2634 C2610 0.950 . S
H2635 C2611 0.949 . S
H2636 C2613 0.950 . S
H2637 C2615 0.950 . S
C2638 C2639 1.349 . S
C2638 C2640 1.327 . S
C2638 H2663 0.950 . S
C2639 C2638 1.349 . S
C2639 C2655 1.349 . S
C2640 C2638 1.327 . S
C2640 C2659 1.429 . S
C2640 H2664 0.950 . S
C2641 C2658 1.574 . S
C2641 C2660 1.368 . S
C2641 H2665 0.949 . S
H2642 C2646 0.949 . S
C2643 C2644 1.349 . S
C2643 C2645 1.327 . S
C2643 H2666 0.950 . S
C2644 C2643 1.349 . S
C2644 C2656 1.349 . S
C2645 C2643 1.327 . S
C2645 C2661 1.429 . S
C2645 H2667 0.950 . S
C2646 H2642 0.949 . S
C2646 C2654 1.574 . S
C2646 C2662 1.368 . S
H2647 C2655 0.950 . S
H2648 C2653 0.950 . S
H2649 C2654 0.949 . S
H2650 C2656 0.950 . S
H2651 C2657 0.950 . S
H2652 C2658 0.949 . S
C2653 H2648 0.950 . S
C2653 C2655 1.327 . S
C2653 C2659 1.429 . S
C2654 C2646 1.574 . S
C2654 H2649 0.949 . S
C2654 C2660 1.368 . S
C2655 C2639 1.349 . S
C2655 H2647 0.950 . S
C2655 C2653 1.327 . S
C2656 C2644 1.349 . S
C2656 H2650 0.950 . S
C2656 C2657 1.327 . S
C2657 H2651 0.950 . S
C2657 C2656 1.327 . S
C2657 C2661 1.429 . S
C2658 C2641 1.574 . S
C2658 H2652 0.949 . S
C2658 C2662 1.368 . S
C2659 C2640 1.429 . S
C2659 C2653 1.429 . S
C2659 C2660 1.523 . S
C2660 C2641 1.368 . S
C2660 C2654 1.368 . S
C2660 C2659 1.523 . S
C2661 C2645 1.429 . S
C2661 C2657 1.429 . S
C2661 C2662 1.523 . S
C2662 C2646 1.368 . S
C2662 C2658 1.368 . S
C2662 C2661 1.523 . S
H2663 C2638 0.950 . S
H2664 C2640 0.950 . S
H2665 C2641 0.949 . S
H2666 C2643 0.950 . S
H2667 C2645 0.950 . S
C2668 C2669 1.349 . S
C2668 C2670 1.327 . S
C2668 H2693 0.950 . S
C2669 C2668 1.349 . S
C2669 C2685 1.349 . S
C2670 C2668 1.327 . S
C2670 C2689 1.429 . S
C2670 H2694 0.950 . S
C2671 C2688 1.574 . S
C2671 C2690 1.368 . S
C2671 H2695 0.949 . S
H2672 C2676 0.949 . S
C2673 C2674 1.349 . S
C2673 C2675 1.327 . S
C2673 H2696 0.950 . S
C2674 C2673 1.349 . S
C2674 C2686 1.349 . S
C2675 C2673 1.327 . S
C2675 C2691 1.429 . S
C2675 H2697 0.950 . S
C2676 H2672 0.949 . S
C2676 C2684 1.574 . S
C2676 C2692 1.368 . S
H2677 C2685 0.950 . S
H2678 C2683 0.950 . S
H2679 C2684 0.949 . S
H2680 C2686 0.950 . S
H2681 C2687 0.950 . S
H2682 C2688 0.949 . S
C2683 H2678 0.950 . S
C2683 C2685 1.327 . S
C2683 C2689 1.429 . S
C2684 C2676 1.574 . S
C2684 H2679 0.949 . S
C2684 C2690 1.368 . S
C2685 C2669 1.349 . S
C2685 H2677 0.950 . S
C2685 C2683 1.327 . S
C2686 C2674 1.349 . S
C2686 H2680 0.950 . S
C2686 C2687 1.327 . S
C2687 H2681 0.950 . S
C2687 C2686 1.327 . S
C2687 C2691 1.429 . S
C2688 C2671 1.574 . S
C2688 H2682 0.949 . S
C2688 C2692 1.368 . S
C2689 C2670 1.429 . S
C2689 C2683 1.429 . S
C2689 C2690 1.523 . S
C2690 C2671 1.368 . S
C2690 C2684 1.368 . S
C2690 C2689 1.523 . S
C2691 C2675 1.429 . S
C2691 C2687 1.429 . S
C2691 C2692 1.523 . S
C2692 C2676 1.368 . S
C2692 C2688 1.368 . S
C2692 C2691 1.523 . S
H2693 C2668 0.950 . S
H2694 C2670 0.950 . S
H2695 C2671 0.949 . S
H2696 C2673 0.950 . S
H2697 C2675 0.950 . S
C2698 C2699 1.349 . S
C2698 C2700 1.327 . S
C2698 H2723 0.950 . S
C2699 C2698 1.349 . S
C2699 C2715 1.349 . S
C2700 C2698 1.327 . S
C2700 C2719 1.429 . S
C2700 H2724 0.950 . S
C2701 C2718 1.574 . S
C2701 C2720 1.368 . S
C2701 H2725 0.949 . S
H2702 C2706 0.949 . S
C2703 C2704 1.349 . S
C2703 C2705 1.327 . S
C2703 H2726 0.950 . S
C2704 C2703 1.349 . S
C2704 C2716 1.349 . S
C2705 C2703 1.327 . S
C2705 C2721 1.429 . S
C2705 H2727 0.950 . S
C2706 H2702 0.949 . S
C2706 C2714 1.574 . S
C2706 C2722 1.368 . S
H2707 C2715 0.950 . S
H2708 C2713 0.950 . S
H2709 C2714 0.949 . S
H2710 C2716 0.950 . S
H2711 C2717 0.950 . S
H2712 C2718 0.949 . S
C2713 H2708 0.950 . S
C2713 C2715 1.327 . S
C2713 C2719 1.429 . S
C2714 C2706 1.574 . S
C2714 H2709 0.949 . S
C2714 C2720 1.368 . S
C2715 C2699 1.349 . S
C2715 H2707 0.950 . S
C2715 C2713 1.327 . S
C2716 C2704 1.349 . S
C2716 H2710 0.950 . S
C2716 C2717 1.327 . S
C2717 H2711 0.950 . S
C2717 C2716 1.327 . S
C2717 C2721 1.429 . S
C2718 C2701 1.574 . S
C2718 H2712 0.949 . S
C2718 C2722 1.368 . S
C2719 C2700 1.429 . S
C2719 C2713 1.429 . S
C2719 C2720 1.523 . S
C2720 C2701 1.368 . S
C2720 C2714 1.368 . S
C2720 C2719 1.523 . S
C2721 C2705 1.429 . S
C2721 C2717 1.429 . S
C2721 C2722 1.523 . S
C2722 C2706 1.368 . S
C2722 C2718 1.368 . S
C2722 C2721 1.523 . S
H2723 C2698 0.950 . S
H2724 C2700 0.950 . S
H2725 C2701 0.949 . S
H2726 C2703 0.950 . S
H2727 C2705 0.950 . S
C2728 C2729 1.349 . S
C2728 C2730 1.327 . S
C2728 H2753 0.950 . S
C2729 C2728 1.349 . S
C2729 C2745 1.349 . S
C2730 C2728 1.327 . S
C2730 C2749 1.429 . S
C2730 H2754 0.950 . S
C2731 C2748 1.574 . S
C2731 C2750 1.368 . S
C2731 H2755 0.949 . S
H2732 C2736 0.949 . S
C2733 C2734 1.349 . S
C2733 C2735 1.327 . S
C2733 H2756 0.950 . S
C2734 C2733 1.349 . S
C2734 C2746 1.349 . S
C2735 C2733 1.327 . S
C2735 C2751 1.429 . S
C2735 H2757 0.950 . S
C2736 H2732 0.949 . S
C2736 C2744 1.574 . S
C2736 C2752 1.368 . S
H2737 C2745 0.950 . S
H2738 C2743 0.950 . S
H2739 C2744 0.949 . S
H2740 C2746 0.950 . S
H2741 C2747 0.950 . S
H2742 C2748 0.949 . S
C2743 H2738 0.950 . S
C2743 C2745 1.327 . S
C2743 C2749 1.429 . S
C2744 C2736 1.574 . S
C2744 H2739 0.949 . S
C2744 C2750 1.368 . S
C2745 C2729 1.349 . S
C2745 H2737 0.950 . S
C2745 C2743 1.327 . S
C2746 C2734 1.349 . S
C2746 H2740 0.950 . S
C2746 C2747 1.327 . S
C2747 H2741 0.950 . S
C2747 C2746 1.327 . S
C2747 C2751 1.429 . S
C2748 C2731 1.574 . S
C2748 H2742 0.949 . S
C2748 C2752 1.368 . S
C2749 C2730 1.429 . S
C2749 C2743 1.429 . S
C2749 C2750 1.523 . S
C2750 C2731 1.368 . S
C2750 C2744 1.368 . S
C2750 C2749 1.523 . S
C2751 C2735 1.429 . S
C2751 C2747 1.429 . S
C2751 C2752 1.523 . S
C2752 C2736 1.368 . S
C2752 C2748 1.368 . S
C2752 C2751 1.523 . S
H2753 C2728 0.950 . S
H2754 C2730 0.950 . S
H2755 C2731 0.949 . S
H2756 C2733 0.950 . S
H2757 C2735 0.950 . S
C2758 C2759 1.349 . S
C2758 C2760 1.327 . S
C2758 H2783 0.950 . S
C2759 C2758 1.349 . S
C2759 C2775 1.349 . S
C2760 C2758 1.327 . S
C2760 C2779 1.429 . S
C2760 H2784 0.950 . S
C2761 C2778 1.574 . S
C2761 C2780 1.368 . S
C2761 H2785 0.949 . S
H2762 C2766 0.949 . S
C2763 C2764 1.349 . S
C2763 C2765 1.327 . S
C2763 H2786 0.950 . S
C2764 C2763 1.349 . S
C2764 C2776 1.349 . S
C2765 C2763 1.327 . S
C2765 C2781 1.429 . S
C2765 H2787 0.950 . S
C2766 H2762 0.949 . S
C2766 C2774 1.574 . S
C2766 C2782 1.368 . S
H2767 C2775 0.950 . S
H2768 C2773 0.950 . S
H2769 C2774 0.949 . S
H2770 C2776 0.950 . S
H2771 C2777 0.950 . S
H2772 C2778 0.949 . S
C2773 H2768 0.950 . S
C2773 C2775 1.327 . S
C2773 C2779 1.429 . S
C2774 C2766 1.574 . S
C2774 H2769 0.949 . S
C2774 C2780 1.368 . S
C2775 C2759 1.349 . S
C2775 H2767 0.950 . S
C2775 C2773 1.327 . S
C2776 C2764 1.349 . S
C2776 H2770 0.950 . S
C2776 C2777 1.327 . S
C2777 H2771 0.950 . S
C2777 C2776 1.327 . S
C2777 C2781 1.429 . S
C2778 C2761 1.574 . S
C2778 H2772 0.949 . S
C2778 C2782 1.368 . S
C2779 C2760 1.429 . S
C2779 C2773 1.429 . S
C2779 C2780 1.523 . S
C2780 C2761 1.368 . S
C2780 C2774 1.368 . S
C2780 C2779 1.523 . S
C2781 C2765 1.429 . S
C2781 C2777 1.429 . S
C2781 C2782 1.523 . S
C2782 C2766 1.368 . S
C2782 C2778 1.368 . S
C2782 C2781 1.523 . S
H2783 C2758 0.950 . S
H2784 C2760 0.950 . S
H2785 C2761 0.949 . S
H2786 C2763 0.950 . S
H2787 C2765 0.950 . S
C2788 C2789 1.349 . S
C2788 C2790 1.327 . S
C2788 H2813 0.950 . S
C2789 C2788 1.349 . S
C2789 C2805 1.349 . S
C2790 C2788 1.327 . S
C2790 C2809 1.429 . S
C2790 H2814 0.950 . S
C2791 C2808 1.574 . S
C2791 C2810 1.368 . S
C2791 H2815 0.949 . S
H2792 C2796 0.949 . S
C2793 C2794 1.349 . S
C2793 C2795 1.327 . S
C2793 H2816 0.950 . S
C2794 C2793 1.349 . S
C2794 C2806 1.349 . S
C2795 C2793 1.327 . S
C2795 C2811 1.429 . S
C2795 H2817 0.950 . S
C2796 H2792 0.949 . S
C2796 C2804 1.574 . S
C2796 C2812 1.368 . S
H2797 C2805 0.950 . S
H2798 C2803 0.950 . S
H2799 C2804 0.949 . S
H2800 C2806 0.950 . S
H2801 C2807 0.950 . S
H2802 C2808 0.949 . S
C2803 H2798 0.950 . S
C2803 C2805 1.327 . S
C2803 C2809 1.429 . S
C2804 C2796 1.574 . S
C2804 H2799 0.949 . S
C2804 C2810 1.368 . S
C2805 C2789 1.349 . S
C2805 H2797 0.950 . S
C2805 C2803 1.327 . S
C2806 C2794 1.349 . S
C2806 H2800 0.950 . S
C2806 C2807 1.327 . S
C2807 H2801 0.950 . S
C2807 C2806 1.327 . S
C2807 C2811 1.429 . S
C2808 C2791 1.574 . S
C2808 H2802 0.949 . S
C2808 C2812 1.368 . S
C2809 C2790 1.429 . S
C2809 C2803 1.429 . S
C2809 C2810 1.523 . S
C2810 C2791 1.368 . S
C2810 C2804 1.368 . S
C2810 C2809 1.523 . S
C2811 C2795 1.429 . S
C2811 C2807 1.429 . S
C2811 C2812 1.523 . S
C2812 C2796 1.368 . S
C2812 C2808 1.368 . S
C2812 C2811 1.523 . S
H2813 C2788 0.950 . S
H2814 C2790 0.950 . S
H2815 C2791 0.949 . S
H2816 C2793 0.950 . S
H2817 C2795 0.950 . S
C2818 C2819 1.349 . S
C2818 C2820 1.327 . S
C2818 H2843 0.950 . S
C2819 C2818 1.349 . S
C2819 C2835 1.349 . S
C2820 C2818 1.327 . S
C2820 C2839 1.429 . S
C2820 H2844 0.950 . S
C2821 C2838 1.574 . S
C2821 C2840 1.368 . S
C2821 H2845 0.949 . S
H2822 C2826 0.949 . S
C2823 C2824 1.349 . S
C2823 C2825 1.327 . S
C2823 H2846 0.950 . S
C2824 C2823 1.349 . S
C2824 C2836 1.349 . S
C2825 C2823 1.327 . S
C2825 C2841 1.429 . S
C2825 H2847 0.950 . S
C2826 H2822 0.949 . S
C2826 C2834 1.574 . S
C2826 C2842 1.368 . S
H2827 C2835 0.950 . S
H2828 C2833 0.950 . S
H2829 C2834 0.949 . S
H2830 C2836 0.950 . S
H2831 C2837 0.950 . S
H2832 C2838 0.949 . S
C2833 H2828 0.950 . S
C2833 C2835 1.327 . S
C2833 C2839 1.429 . S
C2834 C2826 1.574 . S
C2834 H2829 0.949 . S
C2834 C2840 1.368 . S
C2835 C2819 1.349 . S
C2835 H2827 0.950 . S
C2835 C2833 1.327 . S
C2836 C2824 1.349 . S
C2836 H2830 0.950 . S
C2836 C2837 1.327 . S
C2837 H2831 0.950 . S
C2837 C2836 1.327 . S
C2837 C2841 1.429 . S
C2838 C2821 1.574 . S
C2838 H2832 0.949 . S
C2838 C2842 1.368 . S
C2839 C2820 1.429 . S
C2839 C2833 1.429 . S
C2839 C2840 1.523 . S
C2840 C2821 1.368 . S
C2840 C2834 1.368 . S
C2840 C2839 1.523 . S
C2841 C2825 1.429 . S
C2841 C2837 1.429 . S
C2841 C2842 1.523 . S
C2842 C2826 1.368 . S
C2842 C2838 1.368 . S
C2842 C2841 1.523 . S
H2843 C2818 0.950 . S
H2844 C2820 0.950 . S
H2845 C2821 0.949 . S
H2846 C2823 0.950 . S
H2847 C2825 0.950 . S
C2848 C2849 1.370 . S
C2848 C2850 1.322 1_554 S
C2848 H2873 0.936 1_554 S
C2849 C2848 1.370 . S
C2849 C2865 1.349 . S
C2850 C2848 1.322 1_556 S
C2850 C2869 1.429 1_556 S
C2850 H2874 0.950 . S
C2851 C2868 1.574 1_655 S
C2851 C2870 1.368 . S
C2851 H2875 0.949 . S
H2852 C2856 0.949 . S
C2853 C2854 1.370 . S
C2853 C2855 1.322 1_556 S
C2853 H2876 0.936 1_556 S
C2854 C2853 1.370 . S
C2854 C2866 1.349 . S
C2855 C2853 1.322 1_554 S
C2855 C2871 1.429 1_554 S
C2855 H2877 0.950 . S
C2856 H2852 0.949 . S
C2856 C2864 1.574 1_455 S
C2856 C2872 1.368 . S
H2857 C2865 0.950 . S
H2858 C2863 0.950 . S
H2859 C2864 0.949 . S
H2860 C2866 0.950 . S
H2861 C2867 0.950 . S
H2862 C2868 0.949 . S
C2863 H2858 0.950 . S
C2863 C2865 1.327 . S
C2863 C2869 1.429 . S
C2864 C2856 1.574 1_655 S
C2864 H2859 0.949 . S
C2864 C2870 1.368 1_556 S
C2865 C2849 1.349 . S
C2865 H2857 0.950 . S
C2865 C2863 1.327 . S
C2866 C2854 1.349 . S
C2866 H2860 0.950 . S
C2866 C2867 1.327 . S
C2867 H2861 0.950 . S
C2867 C2866 1.327 . S
C2867 C2871 1.429 . S
C2868 C2851 1.574 1_455 S
C2868 H2862 0.949 . S
C2868 C2872 1.368 1_554 S
C2869 C2850 1.429 1_554 S
C2869 C2863 1.429 . S
C2869 C2870 1.523 . S
C2870 C2851 1.368 . S
C2870 C2864 1.368 1_554 S
C2870 C2869 1.523 . S
C2871 C2855 1.429 1_556 S
C2871 C2867 1.429 . S
C2871 C2872 1.523 . S
C2872 C2856 1.368 . S
C2872 C2868 1.368 1_556 S
C2872 C2871 1.523 . S
H2873 C2848 0.936 1_556 S
H2874 C2850 0.950 . S
H2875 C2851 0.949 . S
H2876 C2853 0.936 1_554 S
H2877 C2855 0.950 . S
C2878 C2879 1.349 . S
C2878 C2880 1.327 . S
C2878 H2903 0.950 . S
C2879 C2878 1.349 . S
C2879 C2895 1.349 1_554 S
C2880 C2878 1.327 . S
C2880 C2899 1.429 . S
C2880 H2904 0.950 . S
C2881 C2898 1.574 . S
C2881 C2900 1.368 1_556 S
C2881 H2905 0.949 . S
H2882 C2886 0.949 . S
C2883 C2884 1.349 . S
C2883 C2885 1.327 . S
C2883 H2906 0.950 . S
C2884 C2883 1.349 . S
C2884 C2896 1.349 1_556 S
C2885 C2883 1.327 . S
C2885 C2901 1.429 . S
C2885 H2907 0.950 . S
C2886 H2882 0.949 . S
C2886 C2894 1.574 . S
C2886 C2902 1.368 1_554 S
H2887 C2895 0.950 . S
H2888 C2893 0.950 . S
H2889 C2894 0.949 . S
H2890 C2896 0.950 . S
H2891 C2897 0.950 . S
H2892 C2898 0.949 . S
C2893 H2888 0.950 . S
C2893 C2895 1.327 . S
C2893 C2899 1.429 1_556 S
C2894 C2886 1.574 . S
C2894 H2889 0.949 . S
C2894 C2900 1.368 . S
C2895 C2879 1.349 1_556 S
C2895 H2887 0.950 . S
C2895 C2893 1.327 . S
C2896 C2884 1.349 1_554 S
C2896 H2890 0.950 . S
C2896 C2897 1.327 . S
C2897 H2891 0.950 . S
C2897 C2896 1.327 . S
C2897 C2901 1.429 1_554 S
C2898 C2881 1.574 . S
C2898 H2892 0.949 . S
C2898 C2902 1.368 . S
C2899 C2880 1.429 . S
C2899 C2893 1.429 1_554 S
C2899 C2900 1.523 . S
C2900 C2881 1.368 1_554 S
C2900 C2894 1.368 . S
C2900 C2899 1.523 . S
C2901 C2885 1.429 . S
C2901 C2897 1.429 1_556 S
C2901 C2902 1.523 . S
C2902 C2886 1.368 1_556 S
C2902 C2898 1.368 . S
C2902 C2901 1.523 . S
H2903 C2878 0.950 . S
H2904 C2880 0.950 . S
H2905 C2881 0.949 . S
H2906 C2883 0.950 . S
H2907 C2885 0.950 . S
C2908 C2909 1.349 . S
C2908 C2910 1.327 . S
C2908 H2933 0.950 . S
C2909 C2908 1.349 . S
C2909 C2925 1.349 . S
C2910 C2908 1.327 . S
C2910 C2929 1.429 . S
C2910 H2934 0.950 . S
C2911 C2928 1.574 1_455 S
C2911 C2930 1.368 . S
C2911 H2935 0.949 . S
H2912 C2916 0.949 . S
C2913 C2914 1.349 . S
C2913 C2915 1.327 . S
C2913 H2936 0.950 . S
C2914 C2913 1.349 . S
C2914 C2926 1.349 . S
C2915 C2913 1.327 . S
C2915 C2931 1.429 . S
C2915 H2937 0.950 . S
C2916 H2912 0.949 . S
C2916 C2924 1.574 1_655 S
C2916 C2932 1.368 . S
H2917 C2925 0.950 . S
H2918 C2923 0.950 . S
H2919 C2924 0.949 . S
H2920 C2926 0.950 . S
H2921 C2927 0.950 . S
H2922 C2928 0.949 . S
C2923 H2918 0.950 . S
C2923 C2925 1.327 . S
C2923 C2929 1.429 . S
C2924 C2916 1.574 1_455 S
C2924 H2919 0.949 . S
C2924 C2930 1.368 . S
C2925 C2909 1.349 . S
C2925 H2917 0.950 . S
C2925 C2923 1.327 . S
C2926 C2914 1.349 . S
C2926 H2920 0.950 . S
C2926 C2927 1.327 . S
C2927 H2921 0.950 . S
C2927 C2926 1.327 . S
C2927 C2931 1.429 . S
C2928 C2911 1.574 1_655 S
C2928 H2922 0.949 . S
C2928 C2932 1.368 . S
C2929 C2910 1.429 . S
C2929 C2923 1.429 . S
C2929 C2930 1.523 . S
C2930 C2911 1.368 . S
C2930 C2924 1.368 . S
C2930 C2929 1.523 . S
C2931 C2915 1.429 . S
C2931 C2927 1.429 . S
C2931 C2932 1.523 . S
C2932 C2916 1.368 . S
C2932 C2928 1.368 . S
C2932 C2931 1.523 . S
H2933 C2908 0.950 . S
H2934 C2910 0.950 . S
H2935 C2911 0.949 . S
H2936 C2913 0.950 . S
H2937 C2915 0.950 . S
C2938 C2939 1.349 . S
C2938 C2940 1.327 . S
C2938 H2963 0.950 . S
C2939 C2938 1.349 . S
C2939 C2955 1.349 . S
C2940 C2938 1.327 . S
C2940 C2959 1.429 . S
C2940 H2964 0.950 . S
C2941 C2958 1.574 . S
C2941 C2960 1.368 . S
C2941 H2965 0.949 . S
H2942 C2946 0.949 . S
C2943 C2944 1.349 . S
C2943 C2945 1.327 . S
C2943 H2966 0.950 . S
C2944 C2943 1.349 . S
C2944 C2956 1.349 . S
C2945 C2943 1.327 . S
C2945 C2961 1.429 . S
C2945 H2967 0.950 . S
C2946 H2942 0.949 . S
C2946 C2954 1.574 . S
C2946 C2962 1.368 . S
H2947 C2955 0.950 . S
H2948 C2953 0.950 . S
H2949 C2954 0.949 . S
H2950 C2956 0.950 . S
H2951 C2957 0.950 . S
H2952 C2958 0.949 . S
C2953 H2948 0.950 . S
C2953 C2955 1.327 . S
C2953 C2959 1.429 . S
C2954 C2946 1.574 . S
C2954 H2949 0.949 . S
C2954 C2960 1.368 . S
C2955 C2939 1.349 . S
C2955 H2947 0.950 . S
C2955 C2953 1.327 . S
C2956 C2944 1.349 . S
C2956 H2950 0.950 . S
C2956 C2957 1.327 . S
C2957 H2951 0.950 . S
C2957 C2956 1.327 . S
C2957 C2961 1.429 . S
C2958 C2941 1.574 . S
C2958 H2952 0.949 . S
C2958 C2962 1.368 . S
C2959 C2940 1.429 . S
C2959 C2953 1.429 . S
C2959 C2960 1.523 . S
C2960 C2941 1.368 . S
C2960 C2954 1.368 . S
C2960 C2959 1.523 . S
C2961 C2945 1.429 . S
C2961 C2957 1.429 . S
C2961 C2962 1.523 . S
C2962 C2946 1.368 . S
C2962 C2958 1.368 . S
C2962 C2961 1.523 . S
H2963 C2938 0.950 . S
H2964 C2940 0.950 . S
H2965 C2941 0.949 . S
H2966 C2943 0.950 . S
H2967 C2945 0.950 . S
C2968 C2969 1.349 . S
C2968 C2970 1.327 . S
C2968 H2993 0.950 . S
C2969 C2968 1.349 . S
C2969 C2985 1.349 1_554 S
C2970 C2968 1.327 . S
C2970 C2989 1.429 . S
C2970 H2994 0.950 . S
C2971 C2988 1.574 . S
C2971 C2990 1.368 1_556 S
C2971 H2995 0.949 . S
H2972 C2976 0.949 . S
C2973 C2974 1.349 . S
C2973 C2975 1.327 . S
C2973 H2996 0.950 . S
C2974 C2973 1.349 . S
C2974 C2986 1.349 1_556 S
C2975 C2973 1.327 . S
C2975 C2991 1.429 . S
C2975 H2997 0.950 . S
C2976 H2972 0.949 . S
C2976 C2984 1.574 . S
C2976 C2992 1.368 1_554 S
H2977 C2985 0.950 . S
H2978 C2983 0.950 . S
H2979 C2984 0.949 . S
H2980 C2986 0.950 . S
H2981 C2987 0.950 . S
H2982 C2988 0.949 . S
C2983 H2978 0.950 . S
C2983 C2985 1.327 . S
C2983 C2989 1.429 1_556 S
C2984 C2976 1.574 . S
C2984 H2979 0.949 . S
C2984 C2990 1.368 . S
C2985 C2969 1.349 1_556 S
C2985 H2977 0.950 . S
C2985 C2983 1.327 . S
C2986 C2974 1.349 1_554 S
C2986 H2980 0.950 . S
C2986 C2987 1.327 . S
C2987 H2981 0.950 . S
C2987 C2986 1.327 . S
C2987 C2991 1.429 1_554 S
C2988 C2971 1.574 . S
C2988 H2982 0.949 . S
C2988 C2992 1.368 . S
C2989 C2970 1.429 . S
C2989 C2983 1.429 1_554 S
C2989 C2990 1.523 . S
C2990 C2971 1.368 1_554 S
C2990 C2984 1.368 . S
C2990 C2989 1.523 . S
C2991 C2975 1.429 . S
C2991 C2987 1.429 1_556 S
C2991 C2992 1.523 . S
C2992 C2976 1.368 1_556 S
C2992 C2988 1.368 . S
C2992 C2991 1.523 . S
H2993 C2968 0.950 . S
H2994 C2970 0.950 . S
H2995 C2971 0.949 . S
H2996 C2973 0.950 . S
H2997 C2975 0.950 . S
C2998 C2999 1.349 . S
C2998 C3000 1.327 . S
C2998 H3023 0.950 . S
C2999 C2998 1.349 . S
C2999 C3015 1.349 . S
C3000 C2998 1.327 . S
C3000 C3019 1.429 . S
C3000 H3024 0.950 . S
C3001 C3018 1.574 1_655 S
C3001 C3020 1.368 . S
C3001 H3025 0.949 . S
H3002 C3006 0.949 . S
C3003 C3004 1.349 . S
C3003 C3005 1.327 . S
C3003 H3026 0.950 . S
C3004 C3003 1.349 . S
C3004 C3016 1.349 . S
C3005 C3003 1.327 . S
C3005 C3021 1.429 . S
C3005 H3027 0.950 . S
C3006 H3002 0.949 . S
C3006 C3014 1.574 1_455 S
C3006 C3022 1.368 . S
H3007 C3015 0.950 . S
H3008 C3013 0.950 . S
H3009 C3014 0.949 . S
H3010 C3016 0.950 . S
H3011 C3017 0.950 . S
H3012 C3018 0.949 . S
C3013 H3008 0.950 . S
C3013 C3015 1.327 . S
C3013 C3019 1.429 . S
C3014 C3006 1.574 1_655 S
C3014 H3009 0.949 . S
C3014 C3020 1.368 . S
C3015 C2999 1.349 . S
C3015 H3007 0.950 . S
C3015 C3013 1.327 . S
C3016 C3004 1.349 . S
C3016 H3010 0.950 . S
C3016 C3017 1.327 . S
C3017 H3011 0.950 . S
C3017 C3016 1.327 . S
C3017 C3021 1.429 . S
C3018 C3001 1.574 1_455 S
C3018 H3012 0.949 . S
C3018 C3022 1.368 . S
C3019 C3000 1.429 . S
C3019 C3013 1.429 . S
C3019 C3020 1.523 . S
C3020 C3001 1.368 . S
C3020 C3014 1.368 . S
C3020 C3019 1.523 . S
C3021 C3005 1.429 . S
C3021 C3017 1.429 . S
C3021 C3022 1.523 . S
C3022 C3006 1.368 . S
C3022 C3018 1.368 . S
C3022 C3021 1.523 . S
H3023 C2998 0.950 . S
H3024 C3000 0.950 . S
H3025 C3001 0.949 . S
H3026 C3003 0.950 . S
H3027 C3005 0.950 . S
C3028 C3029 1.349 . S
C3028 C3030 1.327 . S
C3028 H3053 0.950 . S
C3029 C3028 1.349 . S
C3029 C3045 1.349 . S
C3030 C3028 1.327 . S
C3030 C3049 1.429 . S
C3030 H3054 0.950 . S
C3031 C3048 1.574 . S
C3031 C3050 1.368 . S
C3031 H3055 0.949 . S
H3032 C3036 0.949 . S
C3033 C3034 1.349 . S
C3033 C3035 1.327 . S
C3033 H3056 0.950 . S
C3034 C3033 1.349 . S
C3034 C3046 1.349 . S
C3035 C3033 1.327 . S
C3035 C3051 1.429 . S
C3035 H3057 0.950 . S
C3036 H3032 0.949 . S
C3036 C3044 1.574 . S
C3036 C3052 1.368 . S
H3037 C3045 0.950 . S
H3038 C3043 0.950 . S
H3039 C3044 0.949 . S
H3040 C3046 0.950 . S
H3041 C3047 0.950 . S
H3042 C3048 0.949 . S
C3043 H3038 0.950 . S
C3043 C3045 1.327 . S
C3043 C3049 1.429 . S
C3044 C3036 1.574 . S
C3044 H3039 0.949 . S
C3044 C3050 1.368 . S
C3045 C3029 1.349 . S
C3045 H3037 0.950 . S
C3045 C3043 1.327 . S
C3046 C3034 1.349 . S
C3046 H3040 0.950 . S
C3046 C3047 1.327 . S
C3047 H3041 0.950 . S
C3047 C3046 1.327 . S
C3047 C3051 1.429 . S
C3048 C3031 1.574 . S
C3048 H3042 0.949 . S
C3048 C3052 1.368 . S
C3049 C3030 1.429 . S
C3049 C3043 1.429 . S
C3049 C3050 1.523 . S
C3050 C3031 1.368 . S
C3050 C3044 1.368 . S
C3050 C3049 1.523 . S
C3051 C3035 1.429 . S
C3051 C3047 1.429 . S
C3051 C3052 1.523 . S
C3052 C3036 1.368 . S
C3052 C3048 1.368 . S
C3052 C3051 1.523 . S
H3053 C3028 0.950 . S
H3054 C3030 0.950 . S
H3055 C3031 0.949 . S
H3056 C3033 0.950 . S
H3057 C3035 0.950 . S
C3058 C3059 1.349 . S
C3058 C3060 1.327 . S
C3058 H3083 0.950 . S
C3059 C3058 1.349 . S
C3059 C3075 1.349 . S
C3060 C3058 1.327 . S
C3060 C3079 1.429 . S
C3060 H3084 0.950 . S
C3061 C3078 1.574 1_655 S
C3061 C3080 1.368 1_565 S
C3061 H3085 0.949 . S
H3062 C3066 0.949 . S
C3063 C3064 1.349 . S
C3063 C3065 1.327 . S
C3063 H3086 0.950 . S
C3064 C3063 1.349 . S
C3064 C3076 1.349 . S
C3065 C3063 1.327 . S
C3065 C3081 1.429 . S
C3065 H3087 0.950 . S
C3066 H3062 0.949 . S
C3066 C3074 1.574 1_455 S
C3066 C3082 1.368 1_545 S
H3067 C3075 0.950 . S
H3068 C3073 0.950 1_565 S
H3069 C3074 0.949 . S
H3070 C3076 0.950 . S
H3071 C3077 0.950 1_545 S
H3072 C3078 0.949 . S
C3073 H3068 0.950 1_545 S
C3073 C3075 1.327 . S
C3073 C3079 1.429 . S
C3074 C3066 1.574 1_655 S
C3074 H3069 0.949 . S
C3074 C3080 1.368 . S
C3075 C3059 1.349 . S
C3075 H3067 0.950 . S
C3075 C3073 1.327 . S
C3076 C3064 1.349 . S
C3076 H3070 0.950 . S
C3076 C3077 1.327 . S
C3077 H3071 0.950 1_565 S
C3077 C3076 1.327 . S
C3077 C3081 1.429 . S
C3078 C3061 1.574 1_455 S
C3078 H3072 0.949 . S
C3078 C3082 1.368 . S
C3079 C3060 1.429 . S
C3079 C3073 1.429 . S
C3079 C3080 1.523 . S
C3080 C3061 1.368 1_545 S
C3080 C3074 1.368 . S
C3080 C3079 1.523 . S
C3081 C3065 1.429 . S
C3081 C3077 1.429 . S
C3081 C3082 1.523 . S
C3082 C3066 1.368 1_565 S
C3082 C3078 1.368 . S
C3082 C3081 1.523 . S
H3083 C3058 0.950 . S
H3084 C3060 0.950 . S
H3085 C3061 0.949 . S
H3086 C3063 0.950 . S
H3087 C3065 0.950 . S
C3088 C3089 1.349 . S
C3088 C3090 1.327 . S
C3088 H3113 0.950 . S
C3089 C3088 1.349 . S
C3089 C3105 1.349 . S
C3090 C3088 1.327 . S
C3090 C3109 1.429 . S
C3090 H3114 0.950 . S
C3091 C3108 1.574 . S
C3091 C3110 1.368 . S
C3091 H3115 0.949 . S
H3092 C3096 0.949 . S
C3093 C3094 1.349 . S
C3093 C3095 1.327 . S
C3093 H3116 0.950 . S
C3094 C3093 1.349 . S
C3094 C3106 1.349 . S
C3095 C3093 1.327 . S
C3095 C3111 1.429 . S
C3095 H3117 0.950 . S
C3096 H3092 0.949 . S
C3096 C3104 1.574 . S
C3096 C3112 1.368 . S
H3097 C3105 0.950 . S
H3098 C3103 0.950 . S
H3099 C3104 0.949 . S
H3100 C3106 0.950 . S
H3101 C3107 0.950 . S
H3102 C3108 0.949 . S
C3103 H3098 0.950 . S
C3103 C3105 1.327 . S
C3103 C3109 1.429 . S
C3104 C3096 1.574 . S
C3104 H3099 0.949 . S
C3104 C3110 1.368 . S
C3105 C3089 1.349 . S
C3105 H3097 0.950 . S
C3105 C3103 1.327 . S
C3106 C3094 1.349 . S
C3106 H3100 0.950 . S
C3106 C3107 1.327 . S
C3107 H3101 0.950 . S
C3107 C3106 1.327 . S
C3107 C3111 1.429 . S
C3108 C3091 1.574 . S
C3108 H3102 0.949 . S
C3108 C3112 1.368 . S
C3109 C3090 1.429 . S
C3109 C3103 1.429 . S
C3109 C3110 1.523 . S
C3110 C3091 1.368 . S
C3110 C3104 1.368 . S
C3110 C3109 1.523 . S
C3111 C3095 1.429 . S
C3111 C3107 1.429 . S
C3111 C3112 1.523 . S
C3112 C3096 1.368 . S
C3112 C3108 1.368 . S
C3112 C3111 1.523 . S
H3113 C3088 0.950 . S
H3114 C3090 0.950 . S
H3115 C3091 0.949 . S
H3116 C3093 0.950 . S
H3117 C3095 0.950 . S
C3118 C3119 1.349 . S
C3118 C3120 1.327 . S
C3118 H3143 0.950 . S
C3119 C3118 1.349 . S
C3119 C3135 1.349 . S
C3120 C3118 1.327 . S
C3120 C3139 1.429 . S
C3120 H3144 0.950 . S
C3121 C3138 1.574 . S
C3121 C3140 1.368 1_565 S
C3121 H3145 0.949 . S
H3122 C3126 0.949 . S
C3123 C3124 1.349 . S
C3123 C3125 1.327 . S
C3123 H3146 0.950 . S
C3124 C3123 1.349 . S
C3124 C3136 1.349 . S
C3125 C3123 1.327 . S
C3125 C3141 1.429 . S
C3125 H3147 0.950 . S
C3126 H3122 0.949 . S
C3126 C3134 1.574 . S
C3126 C3142 1.368 1_545 S
H3127 C3135 0.951 1_565 S
H3128 C3133 0.950 1_565 S
H3129 C3134 0.949 . S
H3130 C3136 0.951 1_545 S
H3131 C3137 0.950 1_545 S
H3132 C3138 0.949 . S
C3133 H3128 0.950 1_545 S
C3133 C3135 1.327 . S
C3133 C3139 1.429 . S
C3134 C3126 1.574 . S
C3134 H3129 0.949 . S
C3134 C3140 1.368 . S
C3135 C3119 1.349 . S
C3135 H3127 0.951 1_545 S
C3135 C3133 1.327 . S
C3136 C3124 1.349 . S
C3136 H3130 0.951 1_565 S
C3136 C3137 1.327 . S
C3137 H3131 0.950 1_565 S
C3137 C3136 1.327 . S
C3137 C3141 1.429 . S
C3138 C3121 1.574 . S
C3138 H3132 0.949 . S
C3138 C3142 1.368 . S
C3139 C3120 1.429 . S
C3139 C3133 1.429 . S
C3139 C3140 1.523 . S
C3140 C3121 1.368 1_545 S
C3140 C3134 1.368 . S
C3140 C3139 1.523 . S
C3141 C3125 1.429 . S
C3141 C3137 1.429 . S
C3141 C3142 1.523 . S
C3142 C3126 1.368 1_565 S
C3142 C3138 1.368 . S
C3142 C3141 1.523 . S
H3143 C3118 0.950 . S
H3144 C3120 0.950 . S
H3145 C3121 0.949 . S
H3146 C3123 0.950 . S
H3147 C3125 0.950 . S
C3148 C3149 1.349 . S
C3148 C3150 1.327 . S
C3148 H3173 0.950 . S
C3149 C3148 1.349 . S
C3149 C3165 1.349 . S
C3150 C3148 1.327 . S
C3150 C3169 1.429 . S
C3150 H3174 0.950 . S
C3151 C3168 1.574 . S
C3151 C3170 1.368 . S
C3151 H3175 0.949 . S
H3152 C3156 0.949 . S
C3153 C3154 1.349 . S
C3153 C3155 1.327 . S
C3153 H3176 0.950 . S
C3154 C3153 1.349 . S
C3154 C3166 1.349 . S
C3155 C3153 1.327 . S
C3155 C3171 1.429 . S
C3155 H3177 0.950 . S
C3156 H3152 0.949 . S
C3156 C3164 1.574 . S
C3156 C3172 1.368 . S
H3157 C3165 0.950 . S
H3158 C3163 0.950 . S
H3159 C3164 0.949 . S
H3160 C3166 0.950 . S
H3161 C3167 0.950 . S
H3162 C3168 0.949 . S
C3163 H3158 0.950 . S
C3163 C3165 1.327 . S
C3163 C3169 1.429 . S
C3164 C3156 1.574 . S
C3164 H3159 0.949 . S
C3164 C3170 1.368 . S
C3165 C3149 1.349 . S
C3165 H3157 0.950 . S
C3165 C3163 1.327 . S
C3166 C3154 1.349 . S
C3166 H3160 0.950 . S
C3166 C3167 1.327 . S
C3167 H3161 0.950 . S
C3167 C3166 1.327 . S
C3167 C3171 1.429 . S
C3168 C3151 1.574 . S
C3168 H3162 0.949 . S
C3168 C3172 1.368 . S
C3169 C3150 1.429 . S
C3169 C3163 1.429 . S
C3169 C3170 1.523 . S
C3170 C3151 1.368 . S
C3170 C3164 1.368 . S
C3170 C3169 1.523 . S
C3171 C3155 1.429 . S
C3171 C3167 1.429 . S
C3171 C3172 1.523 . S
C3172 C3156 1.368 . S
C3172 C3168 1.368 . S
C3172 C3171 1.523 . S
H3173 C3148 0.950 . S
H3174 C3150 0.950 . S
H3175 C3151 0.949 . S
H3176 C3153 0.950 . S
H3177 C3155 0.950 . S
C3178 C3179 1.349 . S
C3178 C3180 1.327 . S
C3178 H3203 0.950 . S
C3179 C3178 1.349 . S
C3179 C3195 1.349 . S
C3180 C3178 1.327 . S
C3180 C3199 1.429 . S
C3180 H3204 0.950 . S
C3181 C3198 1.574 . S
C3181 C3200 1.368 1_545 S
C3181 H3205 0.949 . S
H3182 C3186 0.949 . S
C3183 C3184 1.349 . S
C3183 C3185 1.327 . S
C3183 H3206 0.950 . S
C3184 C3183 1.349 . S
C3184 C3196 1.349 . S
C3185 C3183 1.327 . S
C3185 C3201 1.429 . S
C3185 H3207 0.950 . S
C3186 H3182 0.949 . S
C3186 C3194 1.574 . S
C3186 C3202 1.368 1_565 S
H3187 C3195 0.950 . S
H3188 C3193 0.950 . S
H3189 C3194 0.949 . S
H3190 C3196 0.950 . S
H3191 C3197 0.950 . S
H3192 C3198 0.949 . S
C3193 H3188 0.950 . S
C3193 C3195 1.327 . S
C3193 C3199 1.429 . S
C3194 C3186 1.574 . S
C3194 H3189 0.949 . S
C3194 C3200 1.368 . S
C3195 C3179 1.349 . S
C3195 H3187 0.950 . S
C3195 C3193 1.327 . S
C3196 C3184 1.349 . S
C3196 H3190 0.950 . S
C3196 C3197 1.327 . S
C3197 H3191 0.950 . S
C3197 C3196 1.327 . S
C3197 C3201 1.429 . S
C3198 C3181 1.574 . S
C3198 H3192 0.949 . S
C3198 C3202 1.368 . S
C3199 C3180 1.429 . S
C3199 C3193 1.429 . S
C3199 C3200 1.523 . S
C3200 C3181 1.368 1_565 S
C3200 C3194 1.368 . S
C3200 C3199 1.523 . S
C3201 C3185 1.429 . S
C3201 C3197 1.429 . S
C3201 C3202 1.523 . S
C3202 C3186 1.368 1_545 S
C3202 C3198 1.368 . S
C3202 C3201 1.523 . S
H3203 C3178 0.950 . S
H3204 C3180 0.950 . S
H3205 C3181 0.949 . S
H3206 C3183 0.950 . S
H3207 C3185 0.950 . S
C3208 C3209 1.349 . S
C3208 C3210 1.327 . S
C3208 H3233 0.950 . S
C3209 C3208 1.349 . S
C3209 C3225 1.349 . S
C3210 C3208 1.327 . S
C3210 C3229 1.429 . S
C3210 H3234 0.950 . S
C3211 C3228 1.574 . S
C3211 C3230 1.368 . S
C3211 H3235 0.949 . S
H3212 C3216 0.949 . S
C3213 C3214 1.349 . S
C3213 C3215 1.327 . S
C3213 H3236 0.950 . S
C3214 C3213 1.349 . S
C3214 C3226 1.349 . S
C3215 C3213 1.327 . S
C3215 C3231 1.429 . S
C3215 H3237 0.950 . S
C3216 H3212 0.949 . S
C3216 C3224 1.574 . S
C3216 C3232 1.368 . S
H3217 C3225 0.950 . S
H3218 C3223 0.950 . S
H3219 C3224 0.949 . S
H3220 C3226 0.950 . S
H3221 C3227 0.950 . S
H3222 C3228 0.949 . S
C3223 H3218 0.950 . S
C3223 C3225 1.327 . S
C3223 C3229 1.429 . S
C3224 C3216 1.574 . S
C3224 H3219 0.949 . S
C3224 C3230 1.368 . S
C3225 C3209 1.349 . S
C3225 H3217 0.950 . S
C3225 C3223 1.327 . S
C3226 C3214 1.349 . S
C3226 H3220 0.950 . S
C3226 C3227 1.327 . S
C3227 H3221 0.950 . S
C3227 C3226 1.327 . S
C3227 C3231 1.429 . S
C3228 C3211 1.574 . S
C3228 H3222 0.949 . S
C3228 C3232 1.368 . S
C3229 C3210 1.429 . S
C3229 C3223 1.429 . S
C3229 C3230 1.523 . S
C3230 C3211 1.368 . S
C3230 C3224 1.368 . S
C3230 C3229 1.523 . S
C3231 C3215 1.429 . S
C3231 C3227 1.429 . S
C3231 C3232 1.523 . S
C3232 C3216 1.368 . S
C3232 C3228 1.368 . S
C3232 C3231 1.523 . S
H3233 C3208 0.950 . S
H3234 C3210 0.950 . S
H3235 C3211 0.949 . S
H3236 C3213 0.950 . S
H3237 C3215 0.950 . S
C3238 C3239 1.349 . S
C3238 C3240 1.327 . S
C3238 H3263 0.950 . S
C3239 C3238 1.349 . S
C3239 C3255 1.349 . S
C3240 C3238 1.327 . S
C3240 C3259 1.429 . S
C3240 H3264 0.950 . S
C3241 C3258 1.574 . S
C3241 C3260 1.368 . S
C3241 H3265 0.949 . S
H3242 C3246 0.949 . S
C3243 C3244 1.349 . S
C3243 C3245 1.327 . S
C3243 H3266 0.950 . S
C3244 C3243 1.349 . S
C3244 C3256 1.349 . S
C3245 C3243 1.327 . S
C3245 C3261 1.429 . S
C3245 H3267 0.950 . S
C3246 H3242 0.949 . S
C3246 C3254 1.574 . S
C3246 C3262 1.368 . S
H3247 C3255 0.950 . S
H3248 C3253 0.950 . S
H3249 C3254 0.949 . S
H3250 C3256 0.950 . S
H3251 C3257 0.950 . S
H3252 C3258 0.949 . S
C3253 H3248 0.950 . S
C3253 C3255 1.327 . S
C3253 C3259 1.429 . S
C3254 C3246 1.574 . S
C3254 H3249 0.949 . S
C3254 C3260 1.368 . S
C3255 C3239 1.349 . S
C3255 H3247 0.950 . S
C3255 C3253 1.327 . S
C3256 C3244 1.349 . S
C3256 H3250 0.950 . S
C3256 C3257 1.327 . S
C3257 H3251 0.950 . S
C3257 C3256 1.327 . S
C3257 C3261 1.429 . S
C3258 C3241 1.574 . S
C3258 H3252 0.949 . S
C3258 C3262 1.368 . S
C3259 C3240 1.429 . S
C3259 C3253 1.429 . S
C3259 C3260 1.523 . S
C3260 C3241 1.368 . S
C3260 C3254 1.368 . S
C3260 C3259 1.523 . S
C3261 C3245 1.429 . S
C3261 C3257 1.429 . S
C3261 C3262 1.523 . S
C3262 C3246 1.368 . S
C3262 C3258 1.368 . S
C3262 C3261 1.523 . S
H3263 C3238 0.950 . S
H3264 C3240 0.950 . S
H3265 C3241 0.949 . S
H3266 C3243 0.950 . S
H3267 C3245 0.950 . S
C3268 C3269 1.349 . S
C3268 C3270 1.327 . S
C3268 H3293 0.950 . S
C3269 C3268 1.349 . S
C3269 C3285 1.349 . S
C3270 C3268 1.327 . S
C3270 C3289 1.429 . S
C3270 H3294 0.950 . S
C3271 C3288 1.574 . S
C3271 C3290 1.368 . S
C3271 H3295 0.949 . S
H3272 C3276 0.949 . S
C3273 C3274 1.349 . S
C3273 C3275 1.327 . S
C3273 H3296 0.950 . S
C3274 C3273 1.349 . S
C3274 C3286 1.349 . S
C3275 C3273 1.327 . S
C3275 C3291 1.429 . S
C3275 H3297 0.950 . S
C3276 H3272 0.949 . S
C3276 C3284 1.574 . S
C3276 C3292 1.368 . S
H3277 C3285 0.950 . S
H3278 C3283 0.950 . S
H3279 C3284 0.949 . S
H3280 C3286 0.950 . S
H3281 C3287 0.950 . S
H3282 C3288 0.949 . S
C3283 H3278 0.950 . S
C3283 C3285 1.327 . S
C3283 C3289 1.429 . S
C3284 C3276 1.574 . S
C3284 H3279 0.949 . S
C3284 C3290 1.368 . S
C3285 C3269 1.349 . S
C3285 H3277 0.950 . S
C3285 C3283 1.327 . S
C3286 C3274 1.349 . S
C3286 H3280 0.950 . S
C3286 C3287 1.327 . S
C3287 H3281 0.950 . S
C3287 C3286 1.327 . S
C3287 C3291 1.429 . S
C3288 C3271 1.574 . S
C3288 H3282 0.949 . S
C3288 C3292 1.368 . S
C3289 C3270 1.429 . S
C3289 C3283 1.429 . S
C3289 C3290 1.523 . S
C3290 C3271 1.368 . S
C3290 C3284 1.368 . S
C3290 C3289 1.523 . S
C3291 C3275 1.429 . S
C3291 C3287 1.429 . S
C3291 C3292 1.523 . S
C3292 C3276 1.368 . S
C3292 C3288 1.368 . S
C3292 C3291 1.523 . S
H3293 C3268 0.950 . S
H3294 C3270 0.950 . S
H3295 C3271 0.949 . S
H3296 C3273 0.950 . S
H3297 C3275 0.950 . S
C3298 C3299 1.349 1_556 S
C3298 C3300 1.327 . S
C3298 H3323 0.950 . S
C3299 C3298 1.349 1_554 S
C3299 C3315 1.349 . S
C3300 C3298 1.327 . S
C3300 C3319 1.429 1_556 S
C3300 H3324 0.950 . S
C3301 C3318 1.574 . S
C3301 C3320 1.368 1_565 S
C3301 H3325 0.949 . S
H3302 C3306 0.949 . S
C3303 C3304 1.349 1_554 S
C3303 C3305 1.327 . S
C3303 H3326 0.950 . S
C3304 C3303 1.349 1_556 S
C3304 C3316 1.349 . S
C3305 C3303 1.327 . S
C3305 C3321 1.429 1_554 S
C3305 H3327 0.950 . S
C3306 H3302 0.949 . S
C3306 C3314 1.574 . S
C3306 C3322 1.368 1_545 S
H3307 C3315 0.950 . S
H3308 C3313 0.950 . S
H3309 C3314 0.949 . S
H3310 C3316 0.950 . S
H3311 C3317 0.950 . S
H3312 C3318 0.949 . S
C3313 H3308 0.950 . S
C3313 C3315 1.327 . S
C3313 C3319 1.429 . S
C3314 C3306 1.574 . S
C3314 H3309 0.949 . S
C3314 C3320 1.368 1_556 S
C3315 C3299 1.349 . S
C3315 H3307 0.950 . S
C3315 C3313 1.327 . S
C3316 C3304 1.349 . S
C3316 H3310 0.950 . S
C3316 C3317 1.327 . S
C3317 H3311 0.950 . S
C3317 C3316 1.327 . S
C3317 C3321 1.429 . S
C3318 C3301 1.574 . S
C3318 H3312 0.949 . S
C3318 C3322 1.368 1_554 S
C3319 C3300 1.429 1_554 S
C3319 C3313 1.429 . S
C3319 C3320 1.523 . S
C3320 C3301 1.368 1_545 S
C3320 C3314 1.368 1_554 S
C3320 C3319 1.523 . S
C3321 C3305 1.429 1_556 S
C3321 C3317 1.429 . S
C3321 C3322 1.523 . S
C3322 C3306 1.368 1_565 S
C3322 C3318 1.368 1_556 S
C3322 C3321 1.523 . S
H3323 C3298 0.950 . S
H3324 C3300 0.950 . S
H3325 C3301 0.949 . S
H3326 C3303 0.950 . S
H3327 C3305 0.950 . S
C3328 C3329 1.349 . S
C3328 C3330 1.327 . S
C3328 H3353 0.950 . S
C3329 C3328 1.349 . S
C3329 C3345 1.349 . S
C3330 C3328 1.327 . S
C3330 C3349 1.429 . S
C3330 H3354 0.950 . S
C3331 C3348 1.574 . S
C3331 C3350 1.368 . S
C3331 H3355 0.949 . S
H3332 C3336 0.949 . S
C3333 C3334 1.349 . S
C3333 C3335 1.327 . S
C3333 H3356 0.950 . S
C3334 C3333 1.349 . S
C3334 C3346 1.349 . S
C3335 C3333 1.327 . S
C3335 C3351 1.429 . S
C3335 H3357 0.950 . S
C3336 H3332 0.949 . S
C3336 C3344 1.574 . S
C3336 C3352 1.368 . S
H3337 C3345 0.950 . S
H3338 C3343 0.950 . S
H3339 C3344 0.949 . S
H3340 C3346 0.950 . S
H3341 C3347 0.950 . S
H3342 C3348 0.949 . S
C3343 H3338 0.950 . S
C3343 C3345 1.327 . S
C3343 C3349 1.429 . S
C3344 C3336 1.574 . S
C3344 H3339 0.949 . S
C3344 C3350 1.368 . S
C3345 C3329 1.349 . S
C3345 H3337 0.950 . S
C3345 C3343 1.327 . S
C3346 C3334 1.349 . S
C3346 H3340 0.950 . S
C3346 C3347 1.327 . S
C3347 H3341 0.950 . S
C3347 C3346 1.327 . S
C3347 C3351 1.429 . S
C3348 C3331 1.574 . S
C3348 H3342 0.949 . S
C3348 C3352 1.368 . S
C3349 C3330 1.429 . S
C3349 C3343 1.429 . S
C3349 C3350 1.523 . S
C3350 C3331 1.368 . S
C3350 C3344 1.368 . S
C3350 C3349 1.523 . S
C3351 C3335 1.429 . S
C3351 C3347 1.429 . S
C3351 C3352 1.523 . S
C3352 C3336 1.368 . S
C3352 C3348 1.368 . S
C3352 C3351 1.523 . S
H3353 C3328 0.950 . S
H3354 C3330 0.950 . S
H3355 C3331 0.949 . S
H3356 C3333 0.950 . S
H3357 C3335 0.950 . S
C3358 C3359 1.349 . S
C3358 C3360 1.327 . S
C3358 H3383 0.950 . S
C3359 C3358 1.349 . S
C3359 C3375 1.349 . S
C3360 C3358 1.327 . S
C3360 C3379 1.429 . S
C3360 H3384 0.950 . S
C3361 C3378 1.574 . S
C3361 C3380 1.368 . S
C3361 H3385 0.949 . S
H3362 C3366 0.949 . S
C3363 C3364 1.349 . S
C3363 C3365 1.327 . S
C3363 H3386 0.950 . S
C3364 C3363 1.349 . S
C3364 C3376 1.349 . S
C3365 C3363 1.327 . S
C3365 C3381 1.429 . S
C3365 H3387 0.950 . S
C3366 H3362 0.949 . S
C3366 C3374 1.574 . S
C3366 C3382 1.368 . S
H3367 C3375 0.950 . S
H3368 C3373 0.950 . S
H3369 C3374 0.949 . S
H3370 C3376 0.950 . S
H3371 C3377 0.950 . S
H3372 C3378 0.949 . S
C3373 H3368 0.950 . S
C3373 C3375 1.327 . S
C3373 C3379 1.429 . S
C3374 C3366 1.574 . S
C3374 H3369 0.949 . S
C3374 C3380 1.368 . S
C3375 C3359 1.349 . S
C3375 H3367 0.950 . S
C3375 C3373 1.327 . S
C3376 C3364 1.349 . S
C3376 H3370 0.950 . S
C3376 C3377 1.327 . S
C3377 H3371 0.950 . S
C3377 C3376 1.327 . S
C3377 C3381 1.429 . S
C3378 C3361 1.574 . S
C3378 H3372 0.949 . S
C3378 C3382 1.368 . S
C3379 C3360 1.429 . S
C3379 C3373 1.429 . S
C3379 C3380 1.523 . S
C3380 C3361 1.368 . S
C3380 C3374 1.368 . S
C3380 C3379 1.523 . S
C3381 C3365 1.429 . S
C3381 C3377 1.429 . S
C3381 C3382 1.523 . S
C3382 C3366 1.368 . S
C3382 C3378 1.368 . S
C3382 C3381 1.523 . S
H3383 C3358 0.950 . S
H3384 C3360 0.950 . S
H3385 C3361 0.949 . S
H3386 C3363 0.950 . S
H3387 C3365 0.950 . S
C3388 C3389 1.349 . S
C3388 C3390 1.327 . S
C3388 H3413 0.950 . S
C3389 C3388 1.349 . S
C3389 C3405 1.349 . S
C3390 C3388 1.327 . S
C3390 C3409 1.429 . S
C3390 H3414 0.950 . S
C3391 C3408 1.574 . S
C3391 C3410 1.368 . S
C3391 H3415 0.949 . S
H3392 C3396 0.949 . S
C3393 C3394 1.349 . S
C3393 C3395 1.327 . S
C3393 H3416 0.950 . S
C3394 C3393 1.349 . S
C3394 C3406 1.349 . S
C3395 C3393 1.327 . S
C3395 C3411 1.429 . S
C3395 H3417 0.950 . S
C3396 H3392 0.949 . S
C3396 C3404 1.574 . S
C3396 C3412 1.368 . S
H3397 C3405 0.950 . S
H3398 C3403 0.950 . S
H3399 C3404 0.949 . S
H3400 C3406 0.950 . S
H3401 C3407 0.950 . S
H3402 C3408 0.949 . S
C3403 H3398 0.950 . S
C3403 C3405 1.327 . S
C3403 C3409 1.429 . S
C3404 C3396 1.574 . S
C3404 H3399 0.949 . S
C3404 C3410 1.368 . S
C3405 C3389 1.349 . S
C3405 H3397 0.950 . S
C3405 C3403 1.327 . S
C3406 C3394 1.349 . S
C3406 H3400 0.950 . S
C3406 C3407 1.327 . S
C3407 H3401 0.950 . S
C3407 C3406 1.327 . S
C3407 C3411 1.429 . S
C3408 C3391 1.574 . S
C3408 H3402 0.949 . S
C3408 C3412 1.368 . S
C3409 C3390 1.429 . S
C3409 C3403 1.429 . S
C3409 C3410 1.523 . S
C3410 C3391 1.368 . S
C3410 C3404 1.368 . S
C3410 C3409 1.523 . S
C3411 C3395 1.429 . S
C3411 C3407 1.429 . S
C3411 C3412 1.523 . S
C3412 C3396 1.368 . S
C3412 C3408 1.368 . S
C3412 C3411 1.523 . S
H3413 C3388 0.950 . S
H3414 C3390 0.950 . S
H3415 C3391 0.949 . S
H3416 C3393 0.950 . S
H3417 C3395 0.950 . S
C3418 C3419 1.349 . S
C3418 C3420 1.327 . S
C3418 H3443 0.950 . S
C3419 C3418 1.349 . S
C3419 C3435 1.349 . S
C3420 C3418 1.327 . S
C3420 C3439 1.429 . S
C3420 H3444 0.950 . S
C3421 C3438 1.574 . S
C3421 C3440 1.368 . S
C3421 H3445 0.949 . S
H3422 C3426 0.949 . S
C3423 C3424 1.349 . S
C3423 C3425 1.327 . S
C3423 H3446 0.950 . S
C3424 C3423 1.349 . S
C3424 C3436 1.349 . S
C3425 C3423 1.327 . S
C3425 C3441 1.429 . S
C3425 H3447 0.950 . S
C3426 H3422 0.949 . S
C3426 C3434 1.574 . S
C3426 C3442 1.368 . S
H3427 C3435 0.950 . S
H3428 C3433 0.950 . S
H3429 C3434 0.949 . S
H3430 C3436 0.950 . S
H3431 C3437 0.950 . S
H3432 C3438 0.949 . S
C3433 H3428 0.950 . S
C3433 C3435 1.327 . S
C3433 C3439 1.429 . S
C3434 C3426 1.574 . S
C3434 H3429 0.949 . S
C3434 C3440 1.368 . S
C3435 C3419 1.349 . S
C3435 H3427 0.950 . S
C3435 C3433 1.327 . S
C3436 C3424 1.349 . S
C3436 H3430 0.950 . S
C3436 C3437 1.327 . S
C3437 H3431 0.950 . S
C3437 C3436 1.327 . S
C3437 C3441 1.429 . S
C3438 C3421 1.574 . S
C3438 H3432 0.949 . S
C3438 C3442 1.368 . S
C3439 C3420 1.429 . S
C3439 C3433 1.429 . S
C3439 C3440 1.523 . S
C3440 C3421 1.368 . S
C3440 C3434 1.368 . S
C3440 C3439 1.523 . S
C3441 C3425 1.429 . S
C3441 C3437 1.429 . S
C3441 C3442 1.523 . S
C3442 C3426 1.368 . S
C3442 C3438 1.368 . S
C3442 C3441 1.523 . S
H3443 C3418 0.950 . S
H3444 C3420 0.950 . S
H3445 C3421 0.949 . S
H3446 C3423 0.950 . S
H3447 C3425 0.950 . S
C3448 C3449 1.349 . S
C3448 C3450 1.327 . S
C3448 H3473 0.950 . S
C3449 C3448 1.349 . S
C3449 C3465 1.349 . S
C3450 C3448 1.327 . S
C3450 C3469 1.429 . S
C3450 H3474 0.950 . S
C3451 C3468 1.574 . S
C3451 C3470 1.368 . S
C3451 H3475 0.949 . S
H3452 C3456 0.949 . S
C3453 C3454 1.349 1_565 S
C3453 C3455 1.327 1_565 S
C3453 H3476 0.950 . S
C3454 C3453 1.349 1_545 S
C3454 C3466 1.347 . S
C3455 C3453 1.327 1_545 S
C3455 C3471 1.429 . S
C3455 H3477 0.950 . S
C3456 H3452 0.949 . S
C3456 C3464 1.574 . S
C3456 C3472 1.368 . S
H3457 C3465 0.950 . S
H3458 C3463 0.950 . S
H3459 C3464 0.949 . S
H3460 C3466 0.950 . S
H3461 C3467 0.950 . S
H3462 C3468 0.949 . S
C3463 H3458 0.950 . S
C3463 C3465 1.327 . S
C3463 C3469 1.429 . S
C3464 C3456 1.574 . S
C3464 H3459 0.949 . S
C3464 C3470 1.368 . S
C3465 C3449 1.349 . S
C3465 H3457 0.950 . S
C3465 C3463 1.327 . S
C3466 C3454 1.347 . S
C3466 H3460 0.950 . S
C3466 C3467 1.327 . S
C3467 H3461 0.950 . S
C3467 C3466 1.327 . S
C3467 C3471 1.429 . S
C3468 C3451 1.574 . S
C3468 H3462 0.949 . S
C3468 C3472 1.368 . S
C3469 C3450 1.429 . S
C3469 C3463 1.429 . S
C3469 C3470 1.523 . S
C3470 C3451 1.368 . S
C3470 C3464 1.368 . S
C3470 C3469 1.523 . S
C3471 C3455 1.429 . S
C3471 C3467 1.429 . S
C3471 C3472 1.523 . S
C3472 C3456 1.368 . S
C3472 C3468 1.368 . S
C3472 C3471 1.523 . S
H3473 C3448 0.950 . S
H3474 C3450 0.950 . S
H3475 C3451 0.949 . S
H3476 C3453 0.950 . S
H3477 C3455 0.950 . S
C3478 C3479 1.349 1_565 S
C3478 C3480 1.327 1_565 S
C3478 H3503 0.950 . S
C3479 C3478 1.349 1_545 S
C3479 C3495 1.347 . S
C3480 C3478 1.327 1_545 S
C3480 C3499 1.429 . S
C3480 H3504 0.950 . S
C3481 C3498 1.574 . S
C3481 C3500 1.368 . S
C3481 H3505 0.949 . S
H3482 C3486 0.949 . S
C3483 C3484 1.349 . S
C3483 C3485 1.327 . S
C3483 H3506 0.950 . S
C3484 C3483 1.349 . S
C3484 C3496 1.349 . S
C3485 C3483 1.327 . S
C3485 C3501 1.429 . S
C3485 H3507 0.950 . S
C3486 H3482 0.949 . S
C3486 C3494 1.574 . S
C3486 C3502 1.368 . S
H3487 C3495 0.950 . S
H3488 C3493 0.950 . S
H3489 C3494 0.949 . S
H3490 C3496 0.950 . S
H3491 C3497 0.950 . S
H3492 C3498 0.949 . S
C3493 H3488 0.950 . S
C3493 C3495 1.327 . S
C3493 C3499 1.429 . S
C3494 C3486 1.574 . S
C3494 H3489 0.949 . S
C3494 C3500 1.368 . S
C3495 C3479 1.347 . S
C3495 H3487 0.950 . S
C3495 C3493 1.327 . S
C3496 C3484 1.349 . S
C3496 H3490 0.950 . S
C3496 C3497 1.327 . S
C3497 H3491 0.950 . S
C3497 C3496 1.327 . S
C3497 C3501 1.429 . S
C3498 C3481 1.574 . S
C3498 H3492 0.949 . S
C3498 C3502 1.368 . S
C3499 C3480 1.429 . S
C3499 C3493 1.429 . S
C3499 C3500 1.523 . S
C3500 C3481 1.368 . S
C3500 C3494 1.368 . S
C3500 C3499 1.523 . S
C3501 C3485 1.429 . S
C3501 C3497 1.429 . S
C3501 C3502 1.523 . S
C3502 C3486 1.368 . S
C3502 C3498 1.368 . S
C3502 C3501 1.523 . S
H3503 C3478 0.950 . S
H3504 C3480 0.950 . S
H3505 C3481 0.949 . S
H3506 C3483 0.950 . S
H3507 C3485 0.950 . S
C3508 C3509 1.347 . S
C3508 C3510 1.327 . S
C3508 H3533 0.950 . S
C3509 C3508 1.347 . S
C3509 C3525 1.349 1_565 S
C3510 C3508 1.327 . S
C3510 C3529 1.429 . S
C3510 H3534 0.950 . S
C3511 C3528 1.574 . S
C3511 C3530 1.368 . S
C3511 H3535 0.949 . S
H3512 C3516 0.949 . S
C3513 C3514 1.349 . S
C3513 C3515 1.327 . S
C3513 H3536 0.950 . S
C3514 C3513 1.349 . S
C3514 C3526 1.349 . S
C3515 C3513 1.327 . S
C3515 C3531 1.429 . S
C3515 H3537 0.950 . S
C3516 H3512 0.949 . S
C3516 C3524 1.574 . S
C3516 C3532 1.368 . S
H3517 C3525 0.950 . S
H3518 C3523 0.950 . S
H3519 C3524 0.949 . S
H3520 C3526 0.950 . S
H3521 C3527 0.950 . S
H3522 C3528 0.949 . S
C3523 H3518 0.950 . S
C3523 C3525 1.327 1_565 S
C3523 C3529 1.429 . S
C3524 C3516 1.574 . S
C3524 H3519 0.949 . S
C3524 C3530 1.368 . S
C3525 C3509 1.349 1_545 S
C3525 H3517 0.950 . S
C3525 C3523 1.327 1_545 S
C3526 C3514 1.349 . S
C3526 H3520 0.950 . S
C3526 C3527 1.327 . S
C3527 H3521 0.950 . S
C3527 C3526 1.327 . S
C3527 C3531 1.429 . S
C3528 C3511 1.574 . S
C3528 H3522 0.949 . S
C3528 C3532 1.368 . S
C3529 C3510 1.429 . S
C3529 C3523 1.429 . S
C3529 C3530 1.523 . S
C3530 C3511 1.368 . S
C3530 C3524 1.368 . S
C3530 C3529 1.523 . S
C3531 C3515 1.429 . S
C3531 C3527 1.429 . S
C3531 C3532 1.523 . S
C3532 C3516 1.368 . S
C3532 C3528 1.368 . S
C3532 C3531 1.523 . S
H3533 C3508 0.950 . S
H3534 C3510 0.950 . S
H3535 C3511 0.949 . S
H3536 C3513 0.950 . S
H3537 C3515 0.950 . S
C3538 C3539 1.349 . S
C3538 C3540 1.327 . S
C3538 H3563 0.950 . S
C3539 C3538 1.349 . S
C3539 C3555 1.349 . S
C3540 C3538 1.327 . S
C3540 C3559 1.429 . S
C3540 H3564 0.950 . S
C3541 C3558 1.574 . S
C3541 C3560 1.368 . S
C3541 H3565 0.949 . S
H3542 C3546 0.949 . S
C3543 C3544 1.349 . S
C3543 C3545 1.327 . S
C3543 H3566 0.950 1_565 S
C3544 C3543 1.349 . S
C3544 C3556 1.347 . S
C3545 C3543 1.327 . S
C3545 C3561 1.429 . S
C3545 H3567 0.950 . S
C3546 H3542 0.949 . S
C3546 C3554 1.574 . S
C3546 C3562 1.368 . S
H3547 C3555 0.950 . S
H3548 C3553 0.950 . S
H3549 C3554 0.949 . S
H3550 C3556 0.950 . S
H3551 C3557 0.950 . S
H3552 C3558 0.949 . S
C3553 H3548 0.950 . S
C3553 C3555 1.327 . S
C3553 C3559 1.429 . S
C3554 C3546 1.574 . S
C3554 H3549 0.949 . S
C3554 C3560 1.368 . S
C3555 C3539 1.349 . S
C3555 H3547 0.950 . S
C3555 C3553 1.327 . S
C3556 C3544 1.347 . S
C3556 H3550 0.950 . S
C3556 C3557 1.327 . S
C3557 H3551 0.950 . S
C3557 C3556 1.327 . S
C3557 C3561 1.429 . S
C3558 C3541 1.574 . S
C3558 H3552 0.949 . S
C3558 C3562 1.368 . S
C3559 C3540 1.429 . S
C3559 C3553 1.429 . S
C3559 C3560 1.523 . S
C3560 C3541 1.368 . S
C3560 C3554 1.368 . S
C3560 C3559 1.523 . S
C3561 C3545 1.429 . S
C3561 C3557 1.429 . S
C3561 C3562 1.523 . S
C3562 C3546 1.368 . S
C3562 C3558 1.368 . S
C3562 C3561 1.523 . S
H3563 C3538 0.950 . S
H3564 C3540 0.950 . S
H3565 C3541 0.949 . S
H3566 C3543 0.950 1_545 S
H3567 C3545 0.950 . S
C3568 C3569 1.349 . S
C3568 C3570 1.327 . S
C3568 H3593 0.950 . S
C3569 C3568 1.349 . S
C3569 C3585 1.349 . S
C3570 C3568 1.327 . S
C3570 C3589 1.429 . S
C3570 H3594 0.950 . S
C3571 C3588 1.574 . S
C3571 C3590 1.368 . S
C3571 H3595 0.949 . S
H3572 C3576 0.949 . S
C3573 C3574 1.349 . S
C3573 C3575 1.327 . S
C3573 H3596 0.950 . S
C3574 C3573 1.349 . S
C3574 C3586 1.349 . S
C3575 C3573 1.327 . S
C3575 C3591 1.429 . S
C3575 H3597 0.950 . S
C3576 H3572 0.949 . S
C3576 C3584 1.574 . S
C3576 C3592 1.368 . S
H3577 C3585 0.950 . S
H3578 C3583 0.950 . S
H3579 C3584 0.949 . S
H3580 C3586 0.950 . S
H3581 C3587 0.950 . S
H3582 C3588 0.949 . S
C3583 H3578 0.950 . S
C3583 C3585 1.327 . S
C3583 C3589 1.429 . S
C3584 C3576 1.574 . S
C3584 H3579 0.949 . S
C3584 C3590 1.368 . S
C3585 C3569 1.349 . S
C3585 H3577 0.950 . S
C3585 C3583 1.327 . S
C3586 C3574 1.349 . S
C3586 H3580 0.950 . S
C3586 C3587 1.327 . S
C3587 H3581 0.950 . S
C3587 C3586 1.327 . S
C3587 C3591 1.429 . S
C3588 C3571 1.574 . S
C3588 H3582 0.949 . S
C3588 C3592 1.368 . S
C3589 C3570 1.429 . S
C3589 C3583 1.429 . S
C3589 C3590 1.523 . S
C3590 C3571 1.368 . S
C3590 C3584 1.368 . S
C3590 C3589 1.523 . S
C3591 C3575 1.429 . S
C3591 C3587 1.429 . S
C3591 C3592 1.523 . S
C3592 C3576 1.368 . S
C3592 C3588 1.368 . S
C3592 C3591 1.523 . S
H3593 C3568 0.950 . S
H3594 C3570 0.950 . S
H3595 C3571 0.949 . S
H3596 C3573 0.950 . S
H3597 C3575 0.950 . S
C3598 C3599 1.349 . S
C3598 C3600 1.327 . S
C3598 H3623 0.950 . S
C3599 C3598 1.349 . S
C3599 C3615 1.349 . S
C3600 C3598 1.327 . S
C3600 C3619 1.429 . S
C3600 H3624 0.950 . S
C3601 C3618 1.574 . S
C3601 C3620 1.368 . S
C3601 H3625 0.949 . S
H3602 C3606 0.949 . S
C3603 C3604 1.349 . S
C3603 C3605 1.327 . S
C3603 H3626 0.950 . S
C3604 C3603 1.349 . S
C3604 C3616 1.349 . S
C3605 C3603 1.327 . S
C3605 C3621 1.429 . S
C3605 H3627 0.950 . S
C3606 H3602 0.949 . S
C3606 C3614 1.574 . S
C3606 C3622 1.368 . S
H3607 C3615 0.950 . S
H3608 C3613 0.950 . S
H3609 C3614 0.949 . S
H3610 C3616 0.950 . S
H3611 C3617 0.950 . S
H3612 C3618 0.949 . S
C3613 H3608 0.950 . S
C3613 C3615 1.327 . S
C3613 C3619 1.429 . S
C3614 C3606 1.574 . S
C3614 H3609 0.949 . S
C3614 C3620 1.368 . S
C3615 C3599 1.349 . S
C3615 H3607 0.950 . S
C3615 C3613 1.327 . S
C3616 C3604 1.349 . S
C3616 H3610 0.950 . S
C3616 C3617 1.327 . S
C3617 H3611 0.950 . S
C3617 C3616 1.327 . S
C3617 C3621 1.429 . S
C3618 C3601 1.574 . S
C3618 H3612 0.949 . S
C3618 C3622 1.368 . S
C3619 C3600 1.429 . S
C3619 C3613 1.429 . S
C3619 C3620 1.523 . S
C3620 C3601 1.368 . S
C3620 C3614 1.368 . S
C3620 C3619 1.523 . S
C3621 C3605 1.429 . S
C3621 C3617 1.429 . S
C3621 C3622 1.523 . S
C3622 C3606 1.368 . S
C3622 C3618 1.368 . S
C3622 C3621 1.523 . S
H3623 C3598 0.950 . S
H3624 C3600 0.950 . S
H3625 C3601 0.949 . S
H3626 C3603 0.950 . S
H3627 C3605 0.950 . S
C3628 C3629 1.349 . S
C3628 C3630 1.327 . S
C3628 H3653 0.950 . S
C3629 C3628 1.349 . S
C3629 C3645 1.349 . S
C3630 C3628 1.327 . S
C3630 C3649 1.429 . S
C3630 H3654 0.950 . S
C3631 C3648 1.574 . S
C3631 C3650 1.368 . S
C3631 H3655 0.949 . S
H3632 C3636 0.949 . S
C3633 C3634 1.349 . S
C3633 C3635 1.327 . S
C3633 H3656 0.950 . S
C3634 C3633 1.349 . S
C3634 C3646 1.349 . S
C3635 C3633 1.327 . S
C3635 C3651 1.429 . S
C3635 H3657 0.950 . S
C3636 H3632 0.949 . S
C3636 C3644 1.574 . S
C3636 C3652 1.368 . S
H3637 C3645 0.950 . S
H3638 C3643 0.950 . S
H3639 C3644 0.949 . S
H3640 C3646 0.950 . S
H3641 C3647 0.950 . S
H3642 C3648 0.949 . S
C3643 H3638 0.950 . S
C3643 C3645 1.327 . S
C3643 C3649 1.429 . S
C3644 C3636 1.574 . S
C3644 H3639 0.949 . S
C3644 C3650 1.368 . S
C3645 C3629 1.349 . S
C3645 H3637 0.950 . S
C3645 C3643 1.327 . S
C3646 C3634 1.349 . S
C3646 H3640 0.950 . S
C3646 C3647 1.327 . S
C3647 H3641 0.950 . S
C3647 C3646 1.327 . S
C3647 C3651 1.429 . S
C3648 C3631 1.574 . S
C3648 H3642 0.949 . S
C3648 C3652 1.368 . S
C3649 C3630 1.429 . S
C3649 C3643 1.429 . S
C3649 C3650 1.523 . S
C3650 C3631 1.368 . S
C3650 C3644 1.368 . S
C3650 C3649 1.523 . S
C3651 C3635 1.429 . S
C3651 C3647 1.429 . S
C3651 C3652 1.523 . S
C3652 C3636 1.368 . S
C3652 C3648 1.368 . S
C3652 C3651 1.523 . S
H3653 C3628 0.950 . S
H3654 C3630 0.950 . S
H3655 C3631 0.949 . S
H3656 C3633 0.950 . S
H3657 C3635 0.950 . S
C3658 C3659 1.349 . S
C3658 C3660 1.327 . S
C3658 H3683 0.950 . S
C3659 C3658 1.349 . S
C3659 C3675 1.349 . S
C3660 C3658 1.327 . S
C3660 C3679 1.429 . S
C3660 H3684 0.950 . S
C3661 C3678 1.574 . S
C3661 C3680 1.368 . S
C3661 H3685 0.949 . S
H3662 C3666 0.949 . S
C3663 C3664 1.349 . S
C3663 C3665 1.327 . S
C3663 H3686 0.950 . S
C3664 C3663 1.349 . S
C3664 C3676 1.349 . S
C3665 C3663 1.327 . S
C3665 C3681 1.429 . S
C3665 H3687 0.950 . S
C3666 H3662 0.949 . S
C3666 C3674 1.574 . S
C3666 C3682 1.368 . S
H3667 C3675 0.950 . S
H3668 C3673 0.950 . S
H3669 C3674 0.949 . S
H3670 C3676 0.950 . S
H3671 C3677 0.950 . S
H3672 C3678 0.949 . S
C3673 H3668 0.950 . S
C3673 C3675 1.327 . S
C3673 C3679 1.429 . S
C3674 C3666 1.574 . S
C3674 H3669 0.949 . S
C3674 C3680 1.368 . S
C3675 C3659 1.349 . S
C3675 H3667 0.950 . S
C3675 C3673 1.327 . S
C3676 C3664 1.349 . S
C3676 H3670 0.950 . S
C3676 C3677 1.327 . S
C3677 H3671 0.950 . S
C3677 C3676 1.327 . S
C3677 C3681 1.429 . S
C3678 C3661 1.574 . S
C3678 H3672 0.949 . S
C3678 C3682 1.368 . S
C3679 C3660 1.429 . S
C3679 C3673 1.429 . S
C3679 C3680 1.523 . S
C3680 C3661 1.368 . S
C3680 C3674 1.368 . S
C3680 C3679 1.523 . S
C3681 C3665 1.429 . S
C3681 C3677 1.429 . S
C3681 C3682 1.523 . S
C3682 C3666 1.368 . S
C3682 C3678 1.368 . S
C3682 C3681 1.523 . S
H3683 C3658 0.950 . S
H3684 C3660 0.950 . S
H3685 C3661 0.949 . S
H3686 C3663 0.950 . S
H3687 C3665 0.950 . S
C3688 C3689 1.348 . S
C3688 C3690 1.327 . S
C3688 H3713 0.950 . S
C3689 C3688 1.348 . S
C3689 C3705 1.348 . S
C3690 C3688 1.327 . S
C3690 C3709 1.429 . S
C3690 H3714 0.950 . S
C3691 C3708 1.574 . S
C3691 C3710 1.368 . S
C3691 H3715 0.949 . S
H3692 C3696 0.949 . S
C3693 C3694 1.349 . S
C3693 C3695 1.327 . S
C3693 H3716 0.950 . S
C3694 C3693 1.349 . S
C3694 C3706 1.349 . S
C3695 C3693 1.327 . S
C3695 C3711 1.429 . S
C3695 H3717 0.950 . S
C3696 H3692 0.949 . S
C3696 C3704 1.574 . S
C3696 C3712 1.368 . S
H3697 C3705 0.950 1_565 S
H3698 C3703 0.950 . S
H3699 C3704 0.949 . S
H3700 C3706 0.950 . S
H3701 C3707 0.950 . S
H3702 C3708 0.949 . S
C3703 H3698 0.950 . S
C3703 C3705 1.327 . S
C3703 C3709 1.429 . S
C3704 C3696 1.574 . S
C3704 H3699 0.949 . S
C3704 C3710 1.368 . S
C3705 C3689 1.348 . S
C3705 H3697 0.950 1_545 S
C3705 C3703 1.327 . S
C3706 C3694 1.349 . S
C3706 H3700 0.950 . S
C3706 C3707 1.327 . S
C3707 H3701 0.950 . S
C3707 C3706 1.327 . S
C3707 C3711 1.429 . S
C3708 C3691 1.574 . S
C3708 H3702 0.949 . S
C3708 C3712 1.368 . S
C3709 C3690 1.429 . S
C3709 C3703 1.429 . S
C3709 C3710 1.523 . S
C3710 C3691 1.368 . S
C3710 C3704 1.368 . S
C3710 C3709 1.523 . S
C3711 C3695 1.429 . S
C3711 C3707 1.429 . S
C3711 C3712 1.523 . S
C3712 C3696 1.368 . S
C3712 C3708 1.368 . S
C3712 C3711 1.523 . S
H3713 C3688 0.950 . S
H3714 C3690 0.950 . S
H3715 C3691 0.949 . S
H3716 C3693 0.950 . S
H3717 C3695 0.950 . S
C3718 C3719 1.349 . S
C3718 C3720 1.327 . S
C3718 H3743 0.950 . S
C3719 C3718 1.349 . S
C3719 C3735 1.349 . S
C3720 C3718 1.327 . S
C3720 C3739 1.429 . S
C3720 H3744 0.950 . S
C3721 C3738 1.574 . S
C3721 C3740 1.368 . S
C3721 H3745 0.949 . S
H3722 C3726 0.949 . S
C3723 C3724 1.349 1_565 S
C3723 C3725 1.327 1_565 S
C3723 H3746 0.950 . S
C3724 C3723 1.349 1_545 S
C3724 C3736 1.347 . S
C3725 C3723 1.327 1_545 S
C3725 C3741 1.429 . S
C3725 H3747 0.950 . S
C3726 H3722 0.949 . S
C3726 C3734 1.574 . S
C3726 C3742 1.368 . S
H3727 C3735 0.950 . S
H3728 C3733 0.950 . S
H3729 C3734 0.949 . S
H3730 C3736 0.950 . S
H3731 C3737 0.950 . S
H3732 C3738 0.949 . S
C3733 H3728 0.950 . S
C3733 C3735 1.327 . S
C3733 C3739 1.429 . S
C3734 C3726 1.574 . S
C3734 H3729 0.949 . S
C3734 C3740 1.368 . S
C3735 C3719 1.349 . S
C3735 H3727 0.950 . S
C3735 C3733 1.327 . S
C3736 C3724 1.347 . S
C3736 H3730 0.950 . S
C3736 C3737 1.327 . S
C3737 H3731 0.950 . S
C3737 C3736 1.327 . S
C3737 C3741 1.429 . S
C3738 C3721 1.574 . S
C3738 H3732 0.949 . S
C3738 C3742 1.368 . S
C3739 C3720 1.429 . S
C3739 C3733 1.429 . S
C3739 C3740 1.523 . S
C3740 C3721 1.368 . S
C3740 C3734 1.368 . S
C3740 C3739 1.523 . S
C3741 C3725 1.429 . S
C3741 C3737 1.429 . S
C3741 C3742 1.523 . S
C3742 C3726 1.368 . S
C3742 C3738 1.368 . S
C3742 C3741 1.523 . S
H3743 C3718 0.950 . S
H3744 C3720 0.950 . S
H3745 C3721 0.949 . S
H3746 C3723 0.950 . S
H3747 C3725 0.950 . S
C3748 C3749 1.349 1_545 S
C3748 C3750 1.327 1_545 S
C3748 H3773 0.950 . S
C3749 C3748 1.349 1_565 S
C3749 C3765 1.347 . S
C3750 C3748 1.327 1_565 S
C3750 C3769 1.429 . S
C3750 H3774 0.950 . S
C3751 C3768 1.574 . S
C3751 C3770 1.368 . S
C3751 H3775 0.949 . S
H3752 C3756 0.949 . S
C3753 C3754 1.349 . S
C3753 C3755 1.327 . S
C3753 H3776 0.950 . S
C3754 C3753 1.349 . S
C3754 C3766 1.349 . S
C3755 C3753 1.327 . S
C3755 C3771 1.429 . S
C3755 H3777 0.950 . S
C3756 H3752 0.949 . S
C3756 C3764 1.574 . S
C3756 C3772 1.368 . S
H3757 C3765 0.950 . S
H3758 C3763 0.950 . S
H3759 C3764 0.949 . S
H3760 C3766 0.950 . S
H3761 C3767 0.950 . S
H3762 C3768 0.949 . S
C3763 H3758 0.950 . S
C3763 C3765 1.327 . S
C3763 C3769 1.429 . S
C3764 C3756 1.574 . S
C3764 H3759 0.949 . S
C3764 C3770 1.368 . S
C3765 C3749 1.347 . S
C3765 H3757 0.950 . S
C3765 C3763 1.327 . S
C3766 C3754 1.349 . S
C3766 H3760 0.950 . S
C3766 C3767 1.327 . S
C3767 H3761 0.950 . S
C3767 C3766 1.327 . S
C3767 C3771 1.429 . S
C3768 C3751 1.574 . S
C3768 H3762 0.949 . S
C3768 C3772 1.368 . S
C3769 C3750 1.429 . S
C3769 C3763 1.429 . S
C3769 C3770 1.523 . S
C3770 C3751 1.368 . S
C3770 C3764 1.368 . S
C3770 C3769 1.523 . S
C3771 C3755 1.429 . S
C3771 C3767 1.429 . S
C3771 C3772 1.523 . S
C3772 C3756 1.368 . S
C3772 C3768 1.368 . S
C3772 C3771 1.523 . S
H3773 C3748 0.950 . S
H3774 C3750 0.950 . S
H3775 C3751 0.949 . S
H3776 C3753 0.950 . S
H3777 C3755 0.950 . S
C3778 C3779 1.347 . S
C3778 C3780 1.327 . S
C3778 H3803 0.950 . S
C3779 C3778 1.347 . S
C3779 C3795 1.349 . S
C3780 C3778 1.327 . S
C3780 C3799 1.429 . S
C3780 H3804 0.950 . S
C3781 C3798 1.574 . S
C3781 C3800 1.368 . S
C3781 H3805 0.949 . S
H3782 C3786 0.949 . S
C3783 C3784 1.349 . S
C3783 C3785 1.327 . S
C3783 H3806 0.950 . S
C3784 C3783 1.349 . S
C3784 C3796 1.349 . S
C3785 C3783 1.327 . S
C3785 C3801 1.429 . S
C3785 H3807 0.950 . S
C3786 H3782 0.949 . S
C3786 C3794 1.574 . S
C3786 C3802 1.368 . S
H3787 C3795 0.950 1_545 S
H3788 C3793 0.950 . S
H3789 C3794 0.949 . S
H3790 C3796 0.950 . S
H3791 C3797 0.950 . S
H3792 C3798 0.949 . S
C3793 H3788 0.950 . S
C3793 C3795 1.327 . S
C3793 C3799 1.429 . S
C3794 C3786 1.574 . S
C3794 H3789 0.949 . S
C3794 C3800 1.368 . S
C3795 C3779 1.349 . S
C3795 H3787 0.950 1_565 S
C3795 C3793 1.327 . S
C3796 C3784 1.349 . S
C3796 H3790 0.950 . S
C3796 C3797 1.327 . S
C3797 H3791 0.950 . S
C3797 C3796 1.327 . S
C3797 C3801 1.429 . S
C3798 C3781 1.574 . S
C3798 H3792 0.949 . S
C3798 C3802 1.368 . S
C3799 C3780 1.429 . S
C3799 C3793 1.429 . S
C3799 C3800 1.523 . S
C3800 C3781 1.368 . S
C3800 C3794 1.368 . S
C3800 C3799 1.523 . S
C3801 C3785 1.429 . S
C3801 C3797 1.429 . S
C3801 C3802 1.523 . S
C3802 C3786 1.368 . S
C3802 C3798 1.368 . S
C3802 C3801 1.523 . S
H3803 C3778 0.950 . S
H3804 C3780 0.950 . S
H3805 C3781 0.949 . S
H3806 C3783 0.950 . S
H3807 C3785 0.950 . S
C3808 C3809 1.349 . S
C3808 C3810 1.327 . S
C3808 H3833 0.950 . S
C3809 C3808 1.349 . S
C3809 C3825 1.349 . S
C3810 C3808 1.327 . S
C3810 C3829 1.429 . S
C3810 H3834 0.950 . S
C3811 C3828 1.574 . S
C3811 C3830 1.368 . S
C3811 H3835 0.949 . S
H3812 C3816 0.949 . S
C3813 C3814 1.349 . S
C3813 C3815 1.327 . S
C3813 H3836 0.950 . S
C3814 C3813 1.349 . S
C3814 C3826 1.349 . S
C3815 C3813 1.327 . S
C3815 C3831 1.429 . S
C3815 H3837 0.950 . S
C3816 H3812 0.949 . S
C3816 C3824 1.574 . S
C3816 C3832 1.368 . S
H3817 C3825 0.950 . S
H3818 C3823 0.950 . S
H3819 C3824 0.949 . S
H3820 C3826 0.950 . S
H3821 C3827 0.950 . S
H3822 C3828 0.949 . S
C3823 H3818 0.950 . S
C3823 C3825 1.327 . S
C3823 C3829 1.429 . S
C3824 C3816 1.574 . S
C3824 H3819 0.949 . S
C3824 C3830 1.368 . S
C3825 C3809 1.349 . S
C3825 H3817 0.950 . S
C3825 C3823 1.327 . S
C3826 C3814 1.349 . S
C3826 H3820 0.950 . S
C3826 C3827 1.327 . S
C3827 H3821 0.950 . S
C3827 C3826 1.327 . S
C3827 C3831 1.429 . S
C3828 C3811 1.574 . S
C3828 H3822 0.949 . S
C3828 C3832 1.368 . S
C3829 C3810 1.429 . S
C3829 C3823 1.429 . S
C3829 C3830 1.523 . S
C3830 C3811 1.368 . S
C3830 C3824 1.368 . S
C3830 C3829 1.523 . S
C3831 C3815 1.429 . S
C3831 C3827 1.429 . S
C3831 C3832 1.523 . S
C3832 C3816 1.368 . S
C3832 C3828 1.368 . S
C3832 C3831 1.523 . S
H3833 C3808 0.950 . S
H3834 C3810 0.950 . S
H3835 C3811 0.949 . S
H3836 C3813 0.950 . S
H3837 C3815 0.950 . S
C3838 C3839 1.349 . S
C3838 C3840 1.327 . S
C3838 H3863 0.950 . S
C3839 C3838 1.349 . S
C3839 C3855 1.349 . S
C3840 C3838 1.327 . S
C3840 C3859 1.429 . S
C3840 H3864 0.950 . S
C3841 C3858 1.574 . S
C3841 C3860 1.368 . S
C3841 H3865 0.949 . S
H3842 C3846 0.949 . S
C3843 C3844 1.349 . S
C3843 C3845 1.327 . S
C3843 H3866 0.950 . S
C3844 C3843 1.349 . S
C3844 C3856 1.349 . S
C3845 C3843 1.327 . S
C3845 C3861 1.429 . S
C3845 H3867 0.950 . S
C3846 H3842 0.949 . S
C3846 C3854 1.574 . S
C3846 C3862 1.368 . S
H3847 C3855 0.950 . S
H3848 C3853 0.950 . S
H3849 C3854 0.949 . S
H3850 C3856 0.950 . S
H3851 C3857 0.950 . S
H3852 C3858 0.949 . S
C3853 H3848 0.950 . S
C3853 C3855 1.327 . S
C3853 C3859 1.429 . S
C3854 C3846 1.574 . S
C3854 H3849 0.949 . S
C3854 C3860 1.368 . S
C3855 C3839 1.349 . S
C3855 H3847 0.950 . S
C3855 C3853 1.327 . S
C3856 C3844 1.349 . S
C3856 H3850 0.950 . S
C3856 C3857 1.327 . S
C3857 H3851 0.950 . S
C3857 C3856 1.327 . S
C3857 C3861 1.429 . S
C3858 C3841 1.574 . S
C3858 H3852 0.949 . S
C3858 C3862 1.368 . S
C3859 C3840 1.429 . S
C3859 C3853 1.429 . S
C3859 C3860 1.523 . S
C3860 C3841 1.368 . S
C3860 C3854 1.368 . S
C3860 C3859 1.523 . S
C3861 C3845 1.429 . S
C3861 C3857 1.429 . S
C3861 C3862 1.523 . S
C3862 C3846 1.368 . S
C3862 C3858 1.368 . S
C3862 C3861 1.523 . S
H3863 C3838 0.950 . S
H3864 C3840 0.950 . S
H3865 C3841 0.949 . S
H3866 C3843 0.950 . S
H3867 C3845 0.950 . S
C3868 C3869 1.349 . S
C3868 C3870 1.327 . S
C3868 H3893 0.950 . S
C3869 C3868 1.349 . S
C3869 C3885 1.349 . S
C3870 C3868 1.327 . S
C3870 C3889 1.429 . S
C3870 H3894 0.950 . S
C3871 C3888 1.574 . S
C3871 C3890 1.368 . S
C3871 H3895 0.949 . S
H3872 C3876 0.949 . S
C3873 C3874 1.349 . S
C3873 C3875 1.327 . S
C3873 H3896 0.950 . S
C3874 C3873 1.349 . S
C3874 C3886 1.349 . S
C3875 C3873 1.327 . S
C3875 C3891 1.429 . S
C3875 H3897 0.950 . S
C3876 H3872 0.949 . S
C3876 C3884 1.574 . S
C3876 C3892 1.368 . S
H3877 C3885 0.950 . S
H3878 C3883 0.950 . S
H3879 C3884 0.949 . S
H3880 C3886 0.950 . S
H3881 C3887 0.950 . S
H3882 C3888 0.949 . S
C3883 H3878 0.950 . S
C3883 C3885 1.327 . S
C3883 C3889 1.429 . S
C3884 C3876 1.574 . S
C3884 H3879 0.949 . S
C3884 C3890 1.368 . S
C3885 C3869 1.349 . S
C3885 H3877 0.950 . S
C3885 C3883 1.327 . S
C3886 C3874 1.349 . S
C3886 H3880 0.950 . S
C3886 C3887 1.327 . S
C3887 H3881 0.950 . S
C3887 C3886 1.327 . S
C3887 C3891 1.429 . S
C3888 C3871 1.574 . S
C3888 H3882 0.949 . S
C3888 C3892 1.368 . S
C3889 C3870 1.429 . S
C3889 C3883 1.429 . S
C3889 C3890 1.523 . S
C3890 C3871 1.368 . S
C3890 C3884 1.368 . S
C3890 C3889 1.523 . S
C3891 C3875 1.429 . S
C3891 C3887 1.429 . S
C3891 C3892 1.523 . S
C3892 C3876 1.368 . S
C3892 C3888 1.368 . S
C3892 C3891 1.523 . S
H3893 C3868 0.950 . S
H3894 C3870 0.950 . S
H3895 C3871 0.949 . S
H3896 C3873 0.950 . S
H3897 C3875 0.950 . S
C3898 C3899 1.349 . S
C3898 C3900 1.327 . S
C3898 H3923 0.950 . S
C3899 C3898 1.349 . S
C3899 C3915 1.349 . S
C3900 C3898 1.327 . S
C3900 C3919 1.429 . S
C3900 H3924 0.950 . S
C3901 C3918 1.574 . S
C3901 C3920 1.368 . S
C3901 H3925 0.949 . S
H3902 C3906 0.949 . S
C3903 C3904 1.349 . S
C3903 C3905 1.327 . S
C3903 H3926 0.950 . S
C3904 C3903 1.349 . S
C3904 C3916 1.349 . S
C3905 C3903 1.327 . S
C3905 C3921 1.429 . S
C3905 H3927 0.950 . S
C3906 H3902 0.949 . S
C3906 C3914 1.574 . S
C3906 C3922 1.368 . S
H3907 C3915 0.950 . S
H3908 C3913 0.950 . S
H3909 C3914 0.949 . S
H3910 C3916 0.950 . S
H3911 C3917 0.950 . S
H3912 C3918 0.949 . S
C3913 H3908 0.950 . S
C3913 C3915 1.327 . S
C3913 C3919 1.429 . S
C3914 C3906 1.574 . S
C3914 H3909 0.949 . S
C3914 C3920 1.368 . S
C3915 C3899 1.349 . S
C3915 H3907 0.950 . S
C3915 C3913 1.327 . S
C3916 C3904 1.349 . S
C3916 H3910 0.950 . S
C3916 C3917 1.327 . S
C3917 H3911 0.950 . S
C3917 C3916 1.327 . S
C3917 C3921 1.429 . S
C3918 C3901 1.574 . S
C3918 H3912 0.949 . S
C3918 C3922 1.368 . S
C3919 C3900 1.429 . S
C3919 C3913 1.429 . S
C3919 C3920 1.523 . S
C3920 C3901 1.368 . S
C3920 C3914 1.368 . S
C3920 C3919 1.523 . S
C3921 C3905 1.429 . S
C3921 C3917 1.429 . S
C3921 C3922 1.523 . S
C3922 C3906 1.368 . S
C3922 C3918 1.368 . S
C3922 C3921 1.523 . S
H3923 C3898 0.950 . S
H3924 C3900 0.950 . S
H3925 C3901 0.949 . S
H3926 C3903 0.950 . S
H3927 C3905 0.950 . S
C3928 C3929 1.349 . S
C3928 C3930 1.327 . S
C3928 H3953 0.950 . S
C3929 C3928 1.349 . S
C3929 C3945 1.349 . S
C3930 C3928 1.327 . S
C3930 C3949 1.429 . S
C3930 H3954 0.950 . S
C3931 C3948 1.574 . S
C3931 C3950 1.368 . S
C3931 H3955 0.949 . S
H3932 C3936 0.949 . S
C3933 C3934 1.349 . S
C3933 C3935 1.327 . S
C3933 H3956 0.950 . S
C3934 C3933 1.349 . S
C3934 C3946 1.349 . S
C3935 C3933 1.327 . S
C3935 C3951 1.429 . S
C3935 H3957 0.950 . S
C3936 H3932 0.949 . S
C3936 C3944 1.574 . S
C3936 C3952 1.368 . S
H3937 C3945 0.950 1_565 S
H3938 C3943 0.950 . S
H3939 C3944 0.949 . S
H3940 C3946 0.950 . S
H3941 C3947 0.950 . S
H3942 C3948 0.949 . S
C3943 H3938 0.950 . S
C3943 C3945 1.327 . S
C3943 C3949 1.429 . S
C3944 C3936 1.574 . S
C3944 H3939 0.949 . S
C3944 C3950 1.368 . S
C3945 C3929 1.349 . S
C3945 H3937 0.950 1_545 S
C3945 C3943 1.327 . S
C3946 C3934 1.349 . S
C3946 H3940 0.950 . S
C3946 C3947 1.327 . S
C3947 H3941 0.950 . S
C3947 C3946 1.327 . S
C3947 C3951 1.429 . S
C3948 C3931 1.574 . S
C3948 H3942 0.949 . S
C3948 C3952 1.368 . S
C3949 C3930 1.429 . S
C3949 C3943 1.429 . S
C3949 C3950 1.523 . S
C3950 C3931 1.368 . S
C3950 C3944 1.368 . S
C3950 C3949 1.523 . S
C3951 C3935 1.429 . S
C3951 C3947 1.429 . S
C3951 C3952 1.523 . S
C3952 C3936 1.368 . S
C3952 C3948 1.368 . S
C3952 C3951 1.523 . S
H3953 C3928 0.950 . S
H3954 C3930 0.950 . S
H3955 C3931 0.949 . S
H3956 C3933 0.950 . S
H3957 C3935 0.950 . S
C3958 C3959 1.349 . S
C3958 C3960 1.327 . S
C3958 H3983 0.950 1_545 S
C3959 C3958 1.349 . S
C3959 C3975 1.349 . S
C3960 C3958 1.327 . S
C3960 C3979 1.429 . S
C3960 H3984 0.950 . S
C3961 C3978 1.574 . S
C3961 C3980 1.368 . S
C3961 H3985 0.949 . S
H3962 C3966 0.949 . S
C3963 C3964 1.349 . S
C3963 C3965 1.327 . S
C3963 H3986 0.950 . S
C3964 C3963 1.349 . S
C3964 C3976 1.349 . S
C3965 C3963 1.327 . S
C3965 C3981 1.429 . S
C3965 H3987 0.950 . S
C3966 H3962 0.949 . S
C3966 C3974 1.574 . S
C3966 C3982 1.368 . S
H3967 C3975 0.950 . S
H3968 C3973 0.950 . S
H3969 C3974 0.949 . S
H3970 C3976 0.950 . S
H3971 C3977 0.950 . S
H3972 C3978 0.949 . S
C3973 H3968 0.950 . S
C3973 C3975 1.327 . S
C3973 C3979 1.429 . S
C3974 C3966 1.574 . S
C3974 H3969 0.949 . S
C3974 C3980 1.368 . S
C3975 C3959 1.349 . S
C3975 H3967 0.950 . S
C3975 C3973 1.327 . S
C3976 C3964 1.349 . S
C3976 H3970 0.950 . S
C3976 C3977 1.327 . S
C3977 H3971 0.950 . S
C3977 C3976 1.327 . S
C3977 C3981 1.429 . S
C3978 C3961 1.574 . S
C3978 H3972 0.949 . S
C3978 C3982 1.368 . S
C3979 C3960 1.429 . S
C3979 C3973 1.429 . S
C3979 C3980 1.523 . S
C3980 C3961 1.368 . S
C3980 C3974 1.368 . S
C3980 C3979 1.523 . S
C3981 C3965 1.429 . S
C3981 C3977 1.429 . S
C3981 C3982 1.523 . S
C3982 C3966 1.368 . S
C3982 C3978 1.368 . S
C3982 C3981 1.523 . S
H3983 C3958 0.950 1_565 S
H3984 C3960 0.950 . S
H3985 C3961 0.949 . S
H3986 C3963 0.950 . S
H3987 C3965 0.950 . S
C3988 C3989 1.349 . S
C3988 C3990 1.327 . S
C3988 H4013 0.950 . S
C3989 C3988 1.349 . S
C3989 C4005 1.349 . S
C3990 C3988 1.327 . S
C3990 C4009 1.429 . S
C3990 H4014 0.950 . S
C3991 C4008 1.574 . S
C3991 C4010 1.368 . S
C3991 H4015 0.949 . S
H3992 C3996 0.949 . S
C3993 C3994 1.349 . S
C3993 C3995 1.327 . S
C3993 H4016 0.950 1_565 S
C3994 C3993 1.349 . S
C3994 C4006 1.349 . S
C3995 C3993 1.327 . S
C3995 C4011 1.429 . S
C3995 H4017 0.950 . S
C3996 H3992 0.949 . S
C3996 C4004 1.574 . S
C3996 C4012 1.368 . S
H3997 C4005 0.950 . S
H3998 C4003 0.950 . S
H3999 C4004 0.949 . S
H4000 C4006 0.950 . S
H4001 C4007 0.950 . S
H4002 C4008 0.949 . S
C4003 H3998 0.950 . S
C4003 C4005 1.327 . S
C4003 C4009 1.429 . S
C4004 C3996 1.574 . S
C4004 H3999 0.949 . S
C4004 C4010 1.368 . S
C4005 C3989 1.349 . S
C4005 H3997 0.950 . S
C4005 C4003 1.327 . S
C4006 C3994 1.349 . S
C4006 H4000 0.950 . S
C4006 C4007 1.327 . S
C4007 H4001 0.950 . S
C4007 C4006 1.327 . S
C4007 C4011 1.429 . S
C4008 C3991 1.574 . S
C4008 H4002 0.949 . S
C4008 C4012 1.368 . S
C4009 C3990 1.429 . S
C4009 C4003 1.429 . S
C4009 C4010 1.523 . S
C4010 C3991 1.368 . S
C4010 C4004 1.368 . S
C4010 C4009 1.523 . S
C4011 C3995 1.429 . S
C4011 C4007 1.429 . S
C4011 C4012 1.523 . S
C4012 C3996 1.368 . S
C4012 C4008 1.368 . S
C4012 C4011 1.523 . S
H4013 C3988 0.950 . S
H4014 C3990 0.950 . S
H4015 C3991 0.949 . S
H4016 C3993 0.950 1_545 S
H4017 C3995 0.950 . S
C4018 C4019 1.349 . S
C4018 C4020 1.327 . S
C4018 H4043 0.950 . S
C4019 C4018 1.349 . S
C4019 C4035 1.349 . S
C4020 C4018 1.327 . S
C4020 C4039 1.429 . S
C4020 H4044 0.950 . S
C4021 C4038 1.574 . S
C4021 C4040 1.368 . S
C4021 H4045 0.949 . S
H4022 C4026 0.949 . S
C4023 C4024 1.349 . S
C4023 C4025 1.327 . S
C4023 H4046 0.950 1_565 S
C4024 C4023 1.349 . S
C4024 C4036 1.349 . S
C4025 C4023 1.327 . S
C4025 C4041 1.429 . S
C4025 H4047 0.950 . S
C4026 H4022 0.949 . S
C4026 C4034 1.574 . S
C4026 C4042 1.368 . S
H4027 C4035 0.950 . S
H4028 C4033 0.950 . S
H4029 C4034 0.949 . S
H4030 C4036 0.950 . S
H4031 C4037 0.950 . S
H4032 C4038 0.949 . S
C4033 H4028 0.950 . S
C4033 C4035 1.327 . S
C4033 C4039 1.429 . S
C4034 C4026 1.574 . S
C4034 H4029 0.949 . S
C4034 C4040 1.368 . S
C4035 C4019 1.349 . S
C4035 H4027 0.950 . S
C4035 C4033 1.327 . S
C4036 C4024 1.349 . S
C4036 H4030 0.950 . S
C4036 C4037 1.327 . S
C4037 H4031 0.950 . S
C4037 C4036 1.327 . S
C4037 C4041 1.429 . S
C4038 C4021 1.574 . S
C4038 H4032 0.949 . S
C4038 C4042 1.368 . S
C4039 C4020 1.429 . S
C4039 C4033 1.429 . S
C4039 C4040 1.523 . S
C4040 C4021 1.368 . S
C4040 C4034 1.368 . S
C4040 C4039 1.523 . S
C4041 C4025 1.429 . S
C4041 C4037 1.429 . S
C4041 C4042 1.523 . S
C4042 C4026 1.368 . S
C4042 C4038 1.368 . S
C4042 C4041 1.523 . S
H4043 C4018 0.950 . S
H4044 C4020 0.950 . S
H4045 C4021 0.949 . S
H4046 C4023 0.950 1_545 S
H4047 C4025 0.950 . S
C4048 C4049 1.349 . S
C4048 C4050 1.327 . S
C4048 H4073 0.950 . S
C4049 C4048 1.349 . S
C4049 C4065 1.349 . S
C4050 C4048 1.327 . S
C4050 C4069 1.429 . S
C4050 H4074 0.950 . S
C4051 C4068 1.574 . S
C4051 C4070 1.368 . S
C4051 H4075 0.949 . S
H4052 C4056 0.949 . S
C4053 C4054 1.349 . S
C4053 C4055 1.327 . S
C4053 H4076 0.950 . S
C4054 C4053 1.349 . S
C4054 C4066 1.349 . S
C4055 C4053 1.327 . S
C4055 C4071 1.429 . S
C4055 H4077 0.950 . S
C4056 H4052 0.949 . S
C4056 C4064 1.574 . S
C4056 C4072 1.368 . S
H4057 C4065 0.950 . S
H4058 C4063 0.950 . S
H4059 C4064 0.949 . S
H4060 C4066 0.950 . S
H4061 C4067 0.950 . S
H4062 C4068 0.949 . S
C4063 H4058 0.950 . S
C4063 C4065 1.327 . S
C4063 C4069 1.429 . S
C4064 C4056 1.574 . S
C4064 H4059 0.949 . S
C4064 C4070 1.368 . S
C4065 C4049 1.349 . S
C4065 H4057 0.950 . S
C4065 C4063 1.327 . S
C4066 C4054 1.349 . S
C4066 H4060 0.950 . S
C4066 C4067 1.327 . S
C4067 H4061 0.950 . S
C4067 C4066 1.327 . S
C4067 C4071 1.429 . S
C4068 C4051 1.574 . S
C4068 H4062 0.949 . S
C4068 C4072 1.368 . S
C4069 C4050 1.429 . S
C4069 C4063 1.429 . S
C4069 C4070 1.523 . S
C4070 C4051 1.368 . S
C4070 C4064 1.368 . S
C4070 C4069 1.523 . S
C4071 C4055 1.429 . S
C4071 C4067 1.429 . S
C4071 C4072 1.523 . S
C4072 C4056 1.368 . S
C4072 C4068 1.368 . S
C4072 C4071 1.523 . S
H4073 C4048 0.950 . S
H4074 C4050 0.950 . S
H4075 C4051 0.949 . S
H4076 C4053 0.950 . S
H4077 C4055 0.950 . S
C4078 C4079 1.349 . S
C4078 C4080 1.327 . S
C4078 H4103 0.950 . S
C4079 C4078 1.349 . S
C4079 C4095 1.349 . S
C4080 C4078 1.327 . S
C4080 C4099 1.429 . S
C4080 H4104 0.950 . S
C4081 C4098 1.574 . S
C4081 C4100 1.368 . S
C4081 H4105 0.949 . S
H4082 C4086 0.949 . S
C4083 C4084 1.349 . S
C4083 C4085 1.327 . S
C4083 H4106 0.950 . S
C4084 C4083 1.349 . S
C4084 C4096 1.349 . S
C4085 C4083 1.327 . S
C4085 C4101 1.429 . S
C4085 H4107 0.950 . S
C4086 H4082 0.949 . S
C4086 C4094 1.574 . S
C4086 C4102 1.368 . S
H4087 C4095 0.950 . S
H4088 C4093 0.950 . S
H4089 C4094 0.949 . S
H4090 C4096 0.950 . S
H4091 C4097 0.950 . S
H4092 C4098 0.949 . S
C4093 H4088 0.950 . S
C4093 C4095 1.327 . S
C4093 C4099 1.429 . S
C4094 C4086 1.574 . S
C4094 H4089 0.949 . S
C4094 C4100 1.368 . S
C4095 C4079 1.349 . S
C4095 H4087 0.950 . S
C4095 C4093 1.327 . S
C4096 C4084 1.349 . S
C4096 H4090 0.950 . S
C4096 C4097 1.327 . S
C4097 H4091 0.950 . S
C4097 C4096 1.327 . S
C4097 C4101 1.429 . S
C4098 C4081 1.574 . S
C4098 H4092 0.949 . S
C4098 C4102 1.368 . S
C4099 C4080 1.429 . S
C4099 C4093 1.429 . S
C4099 C4100 1.523 . S
C4100 C4081 1.368 . S
C4100 C4094 1.368 . S
C4100 C4099 1.523 . S
C4101 C4085 1.429 . S
C4101 C4097 1.429 . S
C4101 C4102 1.523 . S
C4102 C4086 1.368 . S
C4102 C4098 1.368 . S
C4102 C4101 1.523 . S
H4103 C4078 0.950 . S
H4104 C4080 0.950 . S
H4105 C4081 0.949 . S
H4106 C4083 0.950 . S
H4107 C4085 0.950 . S
C4108 C4109 1.349 . S
C4108 C4110 1.327 . S
C4108 H4133 0.950 . S
C4109 C4108 1.349 . S
C4109 C4125 1.349 . S
C4110 C4108 1.327 . S
C4110 C4129 1.429 . S
C4110 H4134 0.950 . S
C4111 C4128 1.574 . S
C4111 C4130 1.368 . S
C4111 H4135 0.949 . S
H4112 C4116 0.949 . S
C4113 C4114 1.349 . S
C4113 C4115 1.327 . S
C4113 H4136 0.950 . S
C4114 C4113 1.349 . S
C4114 C4126 1.349 . S
C4115 C4113 1.327 . S
C4115 C4131 1.429 . S
C4115 H4137 0.950 . S
C4116 H4112 0.949 . S
C4116 C4124 1.574 . S
C4116 C4132 1.368 . S
H4117 C4125 0.950 . S
H4118 C4123 0.950 . S
H4119 C4124 0.949 . S
H4120 C4126 0.950 . S
H4121 C4127 0.950 . S
H4122 C4128 0.949 . S
C4123 H4118 0.950 . S
C4123 C4125 1.327 . S
C4123 C4129 1.429 . S
C4124 C4116 1.574 . S
C4124 H4119 0.949 . S
C4124 C4130 1.368 . S
C4125 C4109 1.349 . S
C4125 H4117 0.950 . S
C4125 C4123 1.327 . S
C4126 C4114 1.349 . S
C4126 H4120 0.950 . S
C4126 C4127 1.327 . S
C4127 H4121 0.950 . S
C4127 C4126 1.327 . S
C4127 C4131 1.429 . S
C4128 C4111 1.574 . S
C4128 H4122 0.949 . S
C4128 C4132 1.368 . S
C4129 C4110 1.429 . S
C4129 C4123 1.429 . S
C4129 C4130 1.523 . S
C4130 C4111 1.368 . S
C4130 C4124 1.368 . S
C4130 C4129 1.523 . S
C4131 C4115 1.429 . S
C4131 C4127 1.429 . S
C4131 C4132 1.523 . S
C4132 C4116 1.368 . S
C4132 C4128 1.368 . S
C4132 C4131 1.523 . S
H4133 C4108 0.950 . S
H4134 C4110 0.950 . S
H4135 C4111 0.949 . S
H4136 C4113 0.950 . S
H4137 C4115 0.950 . S
C4138 C4139 1.349 . S
C4138 C4140 1.327 . S
C4138 H4163 0.950 . S
C4139 C4138 1.349 . S
C4139 C4155 1.349 . S
C4140 C4138 1.327 . S
C4140 C4159 1.429 . S
C4140 H4164 0.950 . S
C4141 C4158 1.574 . S
C4141 C4160 1.368 . S
C4141 H4165 0.949 . S
H4142 C4146 0.949 . S
C4143 C4144 1.349 . S
C4143 C4145 1.327 . S
C4143 H4166 0.950 . S
C4144 C4143 1.349 . S
C4144 C4156 1.349 . S
C4145 C4143 1.327 . S
C4145 C4161 1.429 . S
C4145 H4167 0.950 . S
C4146 H4142 0.949 . S
C4146 C4154 1.574 . S
C4146 C4162 1.368 . S
H4147 C4155 0.950 . S
H4148 C4153 0.950 . S
H4149 C4154 0.949 . S
H4150 C4156 0.950 . S
H4151 C4157 0.950 . S
H4152 C4158 0.949 . S
C4153 H4148 0.950 . S
C4153 C4155 1.327 . S
C4153 C4159 1.429 . S
C4154 C4146 1.574 . S
C4154 H4149 0.949 . S
C4154 C4160 1.368 . S
C4155 C4139 1.349 . S
C4155 H4147 0.950 . S
C4155 C4153 1.327 . S
C4156 C4144 1.349 . S
C4156 H4150 0.950 . S
C4156 C4157 1.327 . S
C4157 H4151 0.950 . S
C4157 C4156 1.327 . S
C4157 C4161 1.429 . S
C4158 C4141 1.574 . S
C4158 H4152 0.949 . S
C4158 C4162 1.368 . S
C4159 C4140 1.429 . S
C4159 C4153 1.429 . S
C4159 C4160 1.523 . S
C4160 C4141 1.368 . S
C4160 C4154 1.368 . S
C4160 C4159 1.523 . S
C4161 C4145 1.429 . S
C4161 C4157 1.429 . S
C4161 C4162 1.523 . S
C4162 C4146 1.368 . S
C4162 C4158 1.368 . S
C4162 C4161 1.523 . S
H4163 C4138 0.950 . S
H4164 C4140 0.950 . S
H4165 C4141 0.949 . S
H4166 C4143 0.950 . S
H4167 C4145 0.950 . S
C4168 C4169 1.349 . S
C4168 C4170 1.327 . S
C4168 H4193 0.950 . S
C4169 C4168 1.349 . S
C4169 C4185 1.349 . S
C4170 C4168 1.327 . S
C4170 C4189 1.429 . S
C4170 H4194 0.950 . S
C4171 C4188 1.574 . S
C4171 C4190 1.368 . S
C4171 H4195 0.949 . S
H4172 C4176 0.949 . S
C4173 C4174 1.349 . S
C4173 C4175 1.327 . S
C4173 H4196 0.950 1_545 S
C4174 C4173 1.349 . S
C4174 C4186 1.349 . S
C4175 C4173 1.327 . S
C4175 C4191 1.429 . S
C4175 H4197 0.950 . S
C4176 H4172 0.949 . S
C4176 C4184 1.574 . S
C4176 C4192 1.368 . S
H4177 C4185 0.950 . S
H4178 C4183 0.950 . S
H4179 C4184 0.949 . S
H4180 C4186 0.950 . S
H4181 C4187 0.950 . S
H4182 C4188 0.949 . S
C4183 H4178 0.950 . S
C4183 C4185 1.327 . S
C4183 C4189 1.429 . S
C4184 C4176 1.574 . S
C4184 H4179 0.949 . S
C4184 C4190 1.368 . S
C4185 C4169 1.349 . S
C4185 H4177 0.950 . S
C4185 C4183 1.327 . S
C4186 C4174 1.349 . S
C4186 H4180 0.950 . S
C4186 C4187 1.327 . S
C4187 H4181 0.950 . S
C4187 C4186 1.327 . S
C4187 C4191 1.429 . S
C4188 C4171 1.574 . S
C4188 H4182 0.949 . S
C4188 C4192 1.368 . S
C4189 C4170 1.429 . S
C4189 C4183 1.429 . S
C4189 C4190 1.523 . S
C4190 C4171 1.368 . S
C4190 C4184 1.368 . S
C4190 C4189 1.523 . S
C4191 C4175 1.429 . S
C4191 C4187 1.429 . S
C4191 C4192 1.523 . S
C4192 C4176 1.368 . S
C4192 C4188 1.368 . S
C4192 C4191 1.523 . S
H4193 C4168 0.950 . S
H4194 C4170 0.950 . S
H4195 C4171 0.949 . S
H4196 C4173 0.950 1_565 S
H4197 C4175 0.950 . S
C4198 C4199 1.349 . S
C4198 C4200 1.327 . S
C4198 H4223 0.950 . S
C4199 C4198 1.349 . S
C4199 C4215 1.349 . S
C4200 C4198 1.327 . S
C4200 C4219 1.429 . S
C4200 H4224 0.950 . S
C4201 C4218 1.574 . S
C4201 C4220 1.368 . S
C4201 H4225 0.949 . S
H4202 C4206 0.949 . S
C4203 C4204 1.349 . S
C4203 C4205 1.327 . S
C4203 H4226 0.950 . S
C4204 C4203 1.349 . S
C4204 C4216 1.349 . S
C4205 C4203 1.327 . S
C4205 C4221 1.429 . S
C4205 H4227 0.950 . S
C4206 H4202 0.949 . S
C4206 C4214 1.574 . S
C4206 C4222 1.368 . S
H4207 C4215 0.950 1_565 S
H4208 C4213 0.950 . S
H4209 C4214 0.949 . S
H4210 C4216 0.950 . S
H4211 C4217 0.950 . S
H4212 C4218 0.949 . S
C4213 H4208 0.950 . S
C4213 C4215 1.327 . S
C4213 C4219 1.429 . S
C4214 C4206 1.574 . S
C4214 H4209 0.949 . S
C4214 C4220 1.368 . S
C4215 C4199 1.349 . S
C4215 H4207 0.950 1_545 S
C4215 C4213 1.327 . S
C4216 C4204 1.349 . S
C4216 H4210 0.950 . S
C4216 C4217 1.327 . S
C4217 H4211 0.950 . S
C4217 C4216 1.327 . S
C4217 C4221 1.429 . S
C4218 C4201 1.574 . S
C4218 H4212 0.949 . S
C4218 C4222 1.368 . S
C4219 C4200 1.429 . S
C4219 C4213 1.429 . S
C4219 C4220 1.523 . S
C4220 C4201 1.368 . S
C4220 C4214 1.368 . S
C4220 C4219 1.523 . S
C4221 C4205 1.429 . S
C4221 C4217 1.429 . S
C4221 C4222 1.523 . S
C4222 C4206 1.368 . S
C4222 C4218 1.368 . S
C4222 C4221 1.523 . S
H4223 C4198 0.950 . S
H4224 C4200 0.950 . S
H4225 C4201 0.949 . S
H4226 C4203 0.950 . S
H4227 C4205 0.950 . S
C4228 C4229 1.349 . S
C4228 C4230 1.327 . S
C4228 H4253 0.950 . S
C4229 C4228 1.349 . S
C4229 C4245 1.349 . S
C4230 C4228 1.327 . S
C4230 C4249 1.429 . S
C4230 H4254 0.950 . S
C4231 C4248 1.574 . S
C4231 C4250 1.368 . S
C4231 H4255 0.949 . S
H4232 C4236 0.949 . S
C4233 C4234 1.349 . S
C4233 C4235 1.327 . S
C4233 H4256 0.950 . S
C4234 C4233 1.349 . S
C4234 C4246 1.349 . S
C4235 C4233 1.327 . S
C4235 C4251 1.429 . S
C4235 H4257 0.950 . S
C4236 H4232 0.949 . S
C4236 C4244 1.574 . S
C4236 C4252 1.368 . S
H4237 C4245 0.950 . S
H4238 C4243 0.950 . S
H4239 C4244 0.949 . S
H4240 C4246 0.950 1_545 S
H4241 C4247 0.950 . S
H4242 C4248 0.949 . S
C4243 H4238 0.950 . S
C4243 C4245 1.327 . S
C4243 C4249 1.429 . S
C4244 C4236 1.574 . S
C4244 H4239 0.949 . S
C4244 C4250 1.368 . S
C4245 C4229 1.349 . S
C4245 H4237 0.950 . S
C4245 C4243 1.327 . S
C4246 C4234 1.349 . S
C4246 H4240 0.950 1_565 S
C4246 C4247 1.327 . S
C4247 H4241 0.950 . S
C4247 C4246 1.327 . S
C4247 C4251 1.429 . S
C4248 C4231 1.574 . S
C4248 H4242 0.949 . S
C4248 C4252 1.368 . S
C4249 C4230 1.429 . S
C4249 C4243 1.429 . S
C4249 C4250 1.523 . S
C4250 C4231 1.368 . S
C4250 C4244 1.368 . S
C4250 C4249 1.523 . S
C4251 C4235 1.429 . S
C4251 C4247 1.429 . S
C4251 C4252 1.523 . S
C4252 C4236 1.368 . S
C4252 C4248 1.368 . S
C4252 C4251 1.523 . S
H4253 C4228 0.950 . S
H4254 C4230 0.950 . S
H4255 C4231 0.949 . S
H4256 C4233 0.950 . S
H4257 C4235 0.950 . S
C4258 C4259 1.349 . S
C4258 C4260 1.327 . S
C4258 H4283 0.950 . S
C4259 C4258 1.349 . S
C4259 C4275 1.349 . S
C4260 C4258 1.327 . S
C4260 C4279 1.429 . S
C4260 H4284 0.950 . S
C4261 C4278 1.574 . S
C4261 C4280 1.368 . S
C4261 H4285 0.949 . S
H4262 C4266 0.949 . S
C4263 C4264 1.349 . S
C4263 C4265 1.327 . S
C4263 H4286 0.950 1_565 S
C4264 C4263 1.349 . S
C4264 C4276 1.349 . S
C4265 C4263 1.327 . S
C4265 C4281 1.429 . S
C4265 H4287 0.950 . S
C4266 H4262 0.949 . S
C4266 C4274 1.574 . S
C4266 C4282 1.368 . S
H4267 C4275 0.950 . S
H4268 C4273 0.950 . S
H4269 C4274 0.949 . S
H4270 C4276 0.950 . S
H4271 C4277 0.950 . S
H4272 C4278 0.949 . S
C4273 H4268 0.950 . S
C4273 C4275 1.327 . S
C4273 C4279 1.429 . S
C4274 C4266 1.574 . S
C4274 H4269 0.949 . S
C4274 C4280 1.368 . S
C4275 C4259 1.349 . S
C4275 H4267 0.950 . S
C4275 C4273 1.327 . S
C4276 C4264 1.349 . S
C4276 H4270 0.950 . S
C4276 C4277 1.327 . S
C4277 H4271 0.950 . S
C4277 C4276 1.327 . S
C4277 C4281 1.429 . S
C4278 C4261 1.574 . S
C4278 H4272 0.949 . S
C4278 C4282 1.368 . S
C4279 C4260 1.429 . S
C4279 C4273 1.429 . S
C4279 C4280 1.523 . S
C4280 C4261 1.368 . S
C4280 C4274 1.368 . S
C4280 C4279 1.523 . S
C4281 C4265 1.429 . S
C4281 C4277 1.429 . S
C4281 C4282 1.523 . S
C4282 C4266 1.368 . S
C4282 C4278 1.368 . S
C4282 C4281 1.523 . S
H4283 C4258 0.950 . S
H4284 C4260 0.950 . S
H4285 C4261 0.949 . S
H4286 C4263 0.950 1_545 S
H4287 C4265 0.950 . S
C929 C303 3.412 . S
C934 C13 3.412 . S
C959 C42 3.412 . S
C964 C332 3.412 . S
C989 C245 3.412 . S
C994 C71 3.412 . S
C1019 C274 3.412 . S
C1024 C100 3.412 . S
C1049 C129 3.412 . S
C1054 C419 3.412 . S
C1079 C448 3.412 . S
C1084 C158 3.412 . S
C1109 C187 3.412 . S
C1114 C361 3.412 . S
C1139 C216 3.412 . S
C1144 C390 3.412 . S
C1169 C767 3.412 . S
C1174 C477 3.412 . S
C1199 C506 3.412 . S
C1204 C796 3.412 . S
C1229 C709 3.412 . S
C1234 C535 3.412 . S
C1259 C564 3.412 . S
C1264 C738 3.412 . S
C1289 C593 3.412 . S
C1294 C883 3.412 . S
C1319 C912 3.412 . S
C1324 C622 3.412 . S
C1349 C651 3.412 . S
C1354 C825 3.412 . S
C1379 C854 3.412 . S
C1384 C680 3.412 . S
C1409 C3 0.815 . S
C1414 C32 0.815 1_545 S
C1439 C61 0.815 1_545 S
C1444 C90 0.815 . S
C1469 C148 0.815 1_565 S
C1474 C119 0.815 . S
C1499 C206 0.815 . S
C1504 C177 0.815 1_565 S
C1529 C264 0.815 . S
C1534 C235 0.815 . S
C1559 C293 0.815 . S
C1564 C322 0.815 . S
C1589 C351 0.815 . S
C1594 C380 0.815 . S
C1619 C438 0.815 . S
C1624 C409 0.815 . S
C1649 C467 0.815 . S
C1654 C496 0.815 1_545 S
C1679 C554 0.815 . S
C1684 C525 0.815 1_545 S
C1709 C612 0.815 1_565 S
C1714 C583 0.815 . S
C1739 C641 0.815 1_565 S
C1744 C670 0.815 . S
C1769 C699 0.815 . S
C1774 C728 0.815 . S
C1799 C757 0.815 . S
C1804 C786 0.815 . S
C1829 C815 0.815 . S
C1834 C844 0.815 . S
C1859 C873 0.815 . S
C1864 C902 0.815 . S
C1889 C5 2.537 . S
C1894 C63 2.537 . S
C1919 C34 2.537 . S
C1924 C92 2.537 . S
C1949 C121 2.537 . S
C1954 C179 2.537 . S
C1979 C150 2.537 . S
C1984 C208 2.537 . S
C2009 C237 2.537 . S
C2014 C295 2.537 . S
C2039 C266 2.537 . S
C2044 C324 2.537 . S
C2069 C411 2.537 . S
C2074 C353 2.537 . S
C2099 C382 2.537 . S
C2104 C440 2.537 . S
C2129 C527 2.537 . S
C2134 C469 2.537 . S
C2159 C498 2.537 . S
C2164 C556 2.537 . S
C2189 C643 2.537 . S
C2194 C585 2.537 . S
C2219 C614 2.537 . S
C2224 C672 2.537 . S
C2249 C701 2.537 . S
C2254 C759 2.537 . S
C2279 C730 2.537 . S
C2284 C788 2.537 . S
C2309 C817 2.537 . S
C2314 C875 2.537 . S
C2339 C846 2.537 . S
C2344 C904 2.537 . S
C2369 C21 1.198 . S
C2374 C108 1.198 . S
C2399 C79 1.198 . S
C2404 C50 1.198 . S
C2429 C137 1.198 . S
C2434 C224 1.198 . S
C2459 C166 1.198 . S
C2464 C195 1.198 . S
C2489 C340 1.198 . S
C2494 C253 1.198 . S
C2519 C311 1.198 . S
C2524 C282 1.198 . S
C2549 C369 1.198 . S
C2554 C456 1.198 . S
C2579 C398 1.198 . S
C2584 C427 1.198 . S
C2609 C485 1.198 . S
C2614 C572 1.198 . S
C2639 C514 1.198 . S
C2644 C543 1.198 . S
C2669 C601 1.198 . S
C2674 C688 1.198 . S
C2699 C630 1.198 . S
C2704 C659 1.198 . S
C2729 C717 1.198 . S
C2734 C804 1.198 . S
C2759 C775 1.198 . S
C2764 C746 1.198 . S
C2789 C920 1.198 . S
C2794 C833 1.198 . S
C2819 C891 1.198 . S
C2824 C862 1.198 . S
C2849 C131 2.476 . S
C2854 C15 2.476 . S
C2879 C856 2.476 . S
C2884 C44 2.476 . S
C2909 C73 2.476 . S
C2914 C421 2.476 . S
C2939 C682 2.476 . S
C2944 C102 2.476 . S
C2969 C160 2.476 . S
C2974 C740 2.476 . S
C2999 C189 2.476 . S
C3004 C305 2.476 . S
C3029 C218 2.476 . S
C3034 C566 2.476 . S
C3059 C363 2.476 . S
C3064 C247 2.476 . S
C3089 C624 2.476 . S
C3094 C276 2.476 . S
C3119 C914 2.476 . S
C3124 C334 2.476 . S
C3149 C508 2.476 . S
C3154 C392 2.476 . S
C3179 C798 2.476 . S
C3184 C450 2.476 . S
C3209 C595 2.476 . S
C3214 C479 2.476 . S
C3239 C537 2.476 . S
C3244 C885 2.476 . S
C3269 C769 2.476 . S
C3274 C653 2.476 . S
C3299 C827 2.476 . S
C3304 C711 2.476 . S
C3329 C8 0.879 . S
C3334 C66 0.879 . S
C3359 C95 0.879 . S
C3364 C37 0.879 . S
C3389 C124 0.879 . S
C3394 C182 0.879 . S
C3419 C153 0.879 . S
C3424 C211 0.879 . S
C3449 C298 0.879 . S
C3454 C240 0.881 1_545 S
C3479 C327 0.881 1_545 S
C3484 C269 0.879 . S
C3509 C356 0.881 1_565 S
C3514 C414 0.879 . S
C3539 C385 0.879 . S
C3544 C443 0.881 1_565 S
C3569 C472 0.879 . S
C3574 C530 0.879 . S
C3599 C501 0.879 . S
C3604 C559 0.879 . S
C3629 C646 0.879 . S
C3634 C588 0.879 . S
C3659 C675 0.879 . S
C3664 C617 0.879 . S
C3689 C704 0.881 1_545 S
C3694 C762 0.879 . S
C3719 C733 0.879 . S
C3724 C791 0.881 1_545 S
C3749 C820 0.881 1_565 S
C3754 C878 0.879 . S
C3779 C907 0.881 1_565 S
C3784 C849 0.879 . S
C3809 C39 3.286 . S
C3814 C10 3.286 . S
C3839 C97 3.286 . S
C3844 C68 3.286 . S
C3869 C155 3.286 . S
C3874 C126 3.286 . S
C3899 C213 3.286 . S
C3904 C184 3.286 . S
C3929 C242 3.286 1_545 S
C3934 C271 3.286 . S
C3959 C329 3.286 1_545 S
C3964 C300 3.286 . S
C3989 C387 3.286 . S
C3994 C358 3.286 1_565 S
C4019 C416 3.286 . S
C4024 C445 3.286 1_565 S
C4049 C474 3.286 . S
C4054 C503 3.286 . S
C4079 C561 3.286 . S
C4084 C532 3.286 . S
C4109 C590 3.286 . S
C4114 C619 3.286 . S
C4139 C648 3.286 . S
C4144 C677 3.286 . S
C4169 C735 3.286 . S
C4174 C706 3.286 1_545 S
C4199 C793 3.286 1_545 S
C4204 C764 3.286 . S
C4229 C851 3.286 . S
C4234 C822 3.286 1_565 S
C4259 C880 3.286 . S
C4264 C909 3.286 1_565 S
