# Generated by pormake.
# Topology qtz-x, (6)-cn, num edge types: 1
# Building blocks:
#     Node 0, Type 0, BuildingBlock: KUMJIN_clean_sbu_0, # of connection points: 6
#     Node 1, Type 0, BuildingBlock: KUMJIN_clean_sbu_0, # of connection points: 6
#     Node 2, Type 0, BuildingBlock: KUMJIN_clean_sbu_0, # of connection points: 6
#     Edge 3, Type (0, 0), BuildingBlock: XIVTED_clean_linker_0, # of connection points: 2
#     Edge 4, Type (0, 0), BuildingBlock: XIVTED_clean_linker_0, # of connection points: 2
#     Edge 5, Type (0, 0), BuildingBlock: XIVTED_clean_linker_0, # of connection points: 2
#     Edge 6, Type (0, 0), BuildingBlock: XIVTED_clean_linker_0, # of connection points: 2
#     Edge 7, Type (0, 0), BuildingBlock: XIVTED_clean_linker_0, # of connection points: 2
#     Edge 8, Type (0, 0), BuildingBlock: XIVTED_clean_linker_0, # of connection points: 2
#     Edge 9, Type (0, 0), BuildingBlock: XIVTED_clean_linker_0, # of connection points: 2
#     Edge 10, Type (0, 0), BuildingBlock: XIVTED_clean_linker_0, # of connection points: 2
#     Edge 11, Type (0, 0), BuildingBlock: XIVTED_clean_linker_0, # of connection points: 2
# Relax obj value: 0.164
# Max RMSD: 0.280
# Mean RMSD: 0.280
data_MOF--net-qtz-x--node1-KUMJIN_clean_sbu_0--edge1-XIVTED_clean_linker_0
_symmetry_space_group_name_H-M    P1
_symmetry_Int_Tables_number       1
_symmetry_cell_setting            triclinic
loop_
_symmetry_equiv_pos_as_xyz
'x, y, z'
_cell_length_a     15.523226
_cell_length_b     15.448407
_cell_length_c     48.684831
_cell_angle_alpha  90.325435
_cell_angle_beta   89.718361
_cell_angle_gamma 119.86458
loop_
_atom_site_label
_atom_site_type_symbol
_atom_site_fract_x
_atom_site_fract_y
_atom_site_fract_z
_atom_type_partial_charge
Eu0 Eu 0.18031 0.40949 0.22358 0.0
C1 C 0.73607 0.28593 0.18855 0.0
C2 C 0.62954 0.16854 0.22325 0.0
C3 C 0.56576 0.2509 0.19417 0.0
C4 C 0.72204 0.21968 0.20958 0.0
C5 C 0.65773 0.30194 0.18064 0.0
C6 C 0.55197 0.18512 0.21556 0.0
C7 C 0.7633 0.41038 0.14467 0.0
N8 N 0.8241 0.33044 0.17483 0.0
C9 C 0.83778 0.39014 0.15269 0.0
C10 C 0.67288 0.36619 0.15871 0.0
Eu11 Eu 0.93943 0.27993 0.18741 0.0
N12 N 0.79617 0.20019 0.21548 0.0
C13 C 0.78064 0.12687 0.23373 0.0
C14 C 0.61603 0.09856 0.24338 0.0
C15 C 0.69174 0.07716 0.24849 0.0
H16 H 0.90619 0.42277 0.14115 0.0
H17 H 0.68096 0.0209 0.26341 0.0
H18 H 0.48018 0.14565 0.22562 0.0
H19 H 0.77508 0.45874 0.12735 0.0
H20 H 0.8369 0.10659 0.23714 0.0
H21 H 0.42835 0.7025 0.15249 0.0
H22 H 0.5463 0.05827 0.25441 0.0
H23 H 0.2235 0.2586 0.26224 0.0
H24 H 0.27466 0.60119 0.17843 0.0
H25 H 0.36186 0.2284 0.27295 0.0
H26 H 0.50425 0.26076 0.18798 0.0
H27 H 0.56869 0.67054 0.15666 0.0
H28 H 0.64222 0.57779 0.17981 0.0
H29 H 0.61462 0.38063 0.15212 0.0
H30 H 0.62625 0.45347 0.21374 0.0
N31 N 0.32309 0.5066 0.19599 0.0
C32 C 0.33395 0.58451 0.18027 0.0
C33 C 0.50032 0.62418 0.16778 0.0
C34 C 0.49133 0.54853 0.18523 0.0
C35 C 0.42145 0.64267 0.16545 0.0
C36 C 0.40032 0.48965 0.19907 0.0
H37 H 0.52248 0.32371 0.24872 0.0
N38 N 0.30303 0.36443 0.23096 0.0
C39 C 0.37069 0.28126 0.25716 0.0
C40 C 0.39044 0.41736 0.21743 0.0
C41 C 0.29245 0.2981 0.25095 0.0
C42 C 0.46108 0.33484 0.24333 0.0
C43 C 0.47197 0.4039 0.22319 0.0
O44 O 0.21404 0.44117 0.26728 0.0
O45 O 0.0163 0.3409 0.22727 0.0
O46 O 0.9611 0.43191 0.19834 0.0
O47 O 0.13227 0.51721 0.20721 0.0
O48 O 0.08606 0.30646 0.25772 0.0
O49 O 0.246 0.56186 0.23914 0.0
O50 O 0.94455 0.22317 0.14674 0.0
O51 O 0.10355 0.35042 0.18385 0.0
O52 O 0.15535 0.25861 0.20923 0.0
O53 O -0.01764 0.17362 0.20715 0.0
O54 O 0.03213 0.38187 0.15289 0.0
O55 O 0.82826 0.12812 0.1747 0.0
C56 C 0.00235 0.29624 0.24981 0.0
C57 C 0.35285 0.59788 0.2773 0.0
C58 C 0.44998 0.66758 0.31913 0.0
C59 C 0.35776 0.61097 0.30594 0.0
C60 C 0.53727 0.71058 0.30311 0.0
C61 C 0.44081 0.64172 0.26176 0.0
C62 C 0.53246 0.6975 0.27466 0.0
C63 C 0.04695 0.51499 0.20251 0.0
C64 C 0.25554 0.53744 0.26411 0.0
C65 C 0.56249 0.46198 0.2094 0.0
C66 C 0.57169 0.53305 0.19015 0.0
C67 C 0.11698 0.39646 0.1615 0.0
C68 C 0.78765 0.11505 0.12723 0.0
C69 C 0.81517 0.17015 0.10269 0.0
C70 C 0.74667 0.14683 0.08128 0.0
C71 C 0.6496 0.06633 0.08453 0.0
C72 C 0.69036 0.03484 0.13006 0.0
C73 C 0.62185 0.01085 0.1088 0.0
C74 C 0.06832 0.17496 0.20778 0.0
C75 C 0.86086 0.14056 0.14953 0.0
H76 H 0.28976 0.57644 0.31792 0.0
H77 H 0.60935 0.7562 0.31249 0.0
H78 H 0.4389 0.63349 0.23968 0.0
H79 H 0.59999 0.73147 0.26255 0.0
H80 H 0.89063 0.2308 0.1 0.0
H81 H 0.59487 0.04703 0.06848 0.0
H82 H 0.66734 -0.00928 0.14866 0.0
H83 H 0.54688 0.94911 0.11116 0.0
Eu84 Eu 0.5407 0.93944 0.55826 0.0
C85 C 0.85579 0.39405 0.52248 0.0
C86 C 0.8384 0.49759 0.55719 0.0
C87 C -0.01713 0.56883 0.52728 0.0
C88 C 0.80192 0.40473 0.54366 0.0
C89 C 0.94696 0.47622 0.51406 0.0
C90 C 0.92925 0.57924 0.54897 0.0
C91 C 0.95797 0.37143 0.47889 0.0
N92 N 0.81716 0.30484 0.50929 0.0
C93 C 0.8662 0.29296 0.48747 0.0
C94 C -0.00163 0.46364 0.49215 0.0
Eu95 Eu 0.65384 0.18196 0.52196 0.0
N96 N 0.7116 0.32615 0.5501 0.0
C97 C 0.65233 0.3372 0.56902 0.0
C98 C 0.78059 0.50691 0.57784 0.0
C99 C 0.68687 0.4264 0.58368 0.0
H100 H 0.83507 0.2232 0.47644 0.0
H101 H 0.64026 0.43362 0.59907 0.0
H102 H 0.95789 0.65128 0.55893 0.0
H103 H -0.00334 0.36119 0.46173 0.0
H104 H 0.57811 0.27728 0.57309 0.0
H105 H 0.57873 0.67626 0.49098 0.0
H106 H 0.80632 0.57674 0.5888 0.0
H107 H 0.34946 0.90222 0.59752 0.0
H108 H 0.63617 0.83031 0.51807 0.0
H109 H 0.17585 0.77054 0.60625 0.0
H110 H 0.05196 0.63305 0.52081 0.0
H111 H 0.40059 0.54845 0.49058 0.0
H112 H 0.23069 0.48633 0.51041 0.0
H113 H 0.0687 0.52486 0.48514 0.0
H114 H 0.12354 0.50872 0.54349 0.0
N115 N 0.49105 0.79543 0.53071 0.0
C116 C 0.55786 0.77668 0.51747 0.0
C117 C 0.42501 0.61743 0.50187 0.0
C118 C 0.35805 0.633 0.51751 0.0
C119 C 0.52566 0.68907 0.50217 0.0
C120 C 0.39347 0.72454 0.53167 0.0
H121 H 0.10233 0.61404 0.57928 0.0
N122 N 0.37019 0.82412 0.56443 0.0
C123 C 0.21848 0.76096 0.59007 0.0
C124 C 0.33143 0.73861 0.54943 0.0
C125 C 0.31641 0.83538 0.58503 0.0
C126 C 0.17695 0.67304 0.57463 0.0
C127 C 0.23362 0.66049 0.5542 0.0
O128 O 0.54062 0.91281 0.60228 0.0
O129 O 0.63766 0.10368 0.56133 0.0
O130 O 0.78389 0.15918 0.53249 0.0
O131 O 0.69876 -0.01208 0.54328 0.0
O132 O 0.537 0.03753 0.5927 0.0
O133 O 0.60804 0.85471 0.57421 0.0
O134 O 0.60004 0.17766 0.48044 0.0
O135 O 0.56568 0.01609 0.51802 0.0
O136 O 0.41619 0.96342 0.54278 0.0
O137 O 0.5041 0.13662 0.54192 0.0
O138 O 0.67233 0.09337 0.48793 0.0
O139 O 0.59431 0.27867 0.51006 0.0
C140 C 0.6112 0.1203 0.58426 0.0
C141 C 0.53107 0.76167 0.61444 0.0
C142 C 0.50525 0.66706 0.65677 0.0
C143 C 0.55771 0.75642 0.6417 0.0
C144 C 0.42393 0.58452 0.64419 0.0
C145 C 0.45299 0.67686 0.60212 0.0
C146 C 0.39899 0.58928 0.61702 0.0
C147 C 0.78151 0.07335 0.53765 0.0
C148 C 0.58123 0.85706 0.59955 0.0
C149 C 0.19761 0.57028 0.53968 0.0
C150 C 0.259 0.55726 0.52098 0.0
C151 C 0.60548 0.00635 0.49632 0.0
C152 C 0.62218 0.33045 0.46329 0.0
C153 C 0.64907 0.3118 0.43727 0.0
C154 C 0.68729 0.38585 0.41691 0.0
C155 C 0.69512 0.47883 0.42256 0.0
C156 C 0.63053 0.42384 0.46855 0.0
C157 C 0.66652 0.49735 0.44823 0.0
C158 C 0.41951 0.05069 0.54143 0.0
C159 C 0.58332 0.25125 0.48439 0.0
H160 H 0.61992 0.8214 0.65088 0.0
H161 H 0.37933 0.51567 0.65528 0.0
H162 H 0.43322 0.67829 0.58108 0.0
H163 H 0.33748 0.52481 0.60746 0.0
H164 H 0.63989 0.23892 0.43275 0.0
H165 H 0.72493 0.53773 0.40739 0.0
H166 H 0.60914 0.44001 0.4883 0.0
H167 H 0.67299 0.56923 0.45246 0.0
Eu168 Eu 0.76907 0.62012 0.89257 0.0
C169 C 0.89422 0.30064 0.85386 0.0
C170 C 0.02099 0.31997 0.88618 0.0
C171 C 0.93588 0.16898 0.85868 0.0
C172 C 0.9643 0.35708 0.87351 0.0
C173 C 0.87945 0.20591 0.84619 0.0
C174 C 0.00586 0.22545 0.8788 0.0
C175 C 0.75936 0.19378 0.81287 0.0
N176 N 0.8439 0.34015 0.84128 0.0
C177 C 0.77821 0.28885 0.82066 0.0
C178 C 0.81033 0.15214 0.82564 0.0
Eu179 Eu 0.89077 0.50721 0.85291 0.0
N180 N -0.01885 0.4504 0.87912 0.0
C181 C 0.05719 0.51215 0.89613 0.0
C182 C 0.09423 0.38066 0.90506 0.0
C183 C 0.11282 0.47749 0.90991 0.0
H184 H 0.73966 0.3204 0.81004 0.0
H185 H 0.17145 0.52627 0.92381 0.0
H186 H 0.04922 0.19611 0.88814 0.0
H187 H 0.70655 0.1533 0.79672 0.0
H188 H 0.07574 0.5887 0.89916 0.0
H189 H 0.44021 0.54914 0.83259 0.0
H190 H 0.13891 0.35467 0.91531 0.0
H191 H 0.92234 0.82425 0.92854 0.0
H192 H 0.54694 0.50311 0.85749 0.0
H193 H 0.95523 -0.00336 0.93518 0.0
H194 H 0.92656 0.09711 0.85274 0.0
H195 H 0.4828 0.7255 0.82995 0.0
H196 H 0.58963 0.90114 0.84582 0.0
H197 H 0.79676 0.0791 0.81924 0.0
H198 H 0.72515 0.02103 0.87512 0.0
N199 N 0.65706 0.65297 0.86751 0.0
C200 C 0.56938 0.58087 0.85643 0.0
C201 C 0.532 0.70617 0.84061 0.0
C202 C 0.61649 0.77891 0.85419 0.0
C203 C 0.50747 0.60655 0.84217 0.0
C204 C 0.6788 0.75006 0.86764 0.0
H205 H 0.85877 0.05607 0.90915 0.0
N206 N 0.81355 0.78925 0.89755 0.0
C207 C 0.90044 0.94804 0.92036 0.0
C208 C 0.75816 0.81957 0.88338 0.0
C209 C 0.88187 0.85063 0.91648 0.0
C210 C 0.84641 0.98156 0.90543 0.0
C211 C 0.77411 0.91735 0.88678 0.0
O212 O 0.68813 0.51438 0.92583 0.0
O213 O 0.84585 0.53202 0.89432 0.0
O214 O 0.7438 0.37883 0.86788 0.0
O215 O 0.65661 0.46366 0.87763 0.0
O216 O 0.894 0.64798 0.92168 0.0
O217 O 0.69529 0.65646 0.92541 0.0
O218 O 0.92703 0.54622 0.80983 0.0
O219 O 0.81201 0.59613 0.85068 0.0
O220 O 0.91771 0.74635 0.87743 0.0
O221 O 0.00347 0.6614 0.86836 0.0
O222 O 0.77632 0.48439 0.82145 0.0
O223 O 0.04298 0.56628 0.8378 0.0
C224 C 0.89989 0.57005 0.91508 0.0
C225 C 0.69118 0.58804 0.96889 0.0
C226 C 0.63363 0.55753 1.01654 0.0
C227 C 0.61351 0.54417 0.98813 0.0
C228 C 0.73273 0.61218 1.02541 0.0
C229 C 0.78908 0.6466 0.97833 0.0
C230 C 0.80978 0.65658 1.00637 0.0
C231 C 0.6605 0.38044 0.87337 0.0
C232 C 0.66856 0.57548 0.93923 0.0
C233 C 0.7142 0.9465 0.87264 0.0
C234 C 0.63666 0.87797 0.85605 0.0
C235 C 0.75802 0.5526 0.83002 0.0
C236 C 0.05669 0.52475 0.79139 0.0
C237 C 0.00619 0.48928 0.76637 0.0
C238 C 0.0426 0.45185 0.7458 0.0
C239 C 0.13162 0.45127 0.75031 0.0
C240 C 0.1455 0.52336 0.79559 0.0
C241 C 0.1825 0.48667 0.77513 0.0
C242 C 0.00059 0.74471 0.87201 0.0
C243 C 0.01893 0.56753 0.81227 0.0
H244 H 0.53747 0.50121 0.981 0.0
H245 H 0.75044 0.62449 0.04708 0.0
H246 H 0.84981 0.68657 0.96432 0.0
H247 H 0.88568 0.70118 1.01337 0.0
H248 H 0.93896 0.49229 0.7626 0.0
H249 H 0.16113 0.42241 0.73483 0.0
H250 H 0.18672 0.55128 0.81455 0.0
H251 H 0.25097 0.48584 0.77851 0.0
H252 H 0.21102 0.70115 0.20482 0.0
H253 H 0.90362 -0.01092 0.20707 0.0
H254 H 0.89087 0.55188 0.19928 0.0
H255 H 0.22437 0.13782 0.20703 0.0
H256 H 0.89751 0.82878 0.20491 0.0
H257 H 0.21658 0.86093 0.20596 0.0
C258 C 0.14162 0.70164 0.20374 0.0
C259 C 0.05013 0.61233 0.20196 0.0
C260 C 0.96923 0.89638 0.20541 0.0
C261 C 0.05646 0.79653 0.20341 0.0
C262 C 0.97301 -0.0117 0.20671 0.0
C263 C 0.06487 0.07753 0.20734 0.0
C264 C 0.05788 0.89316 0.20476 0.0
C265 C 0.15193 0.07119 0.20675 0.0
C266 C 0.14508 0.79339 0.20441 0.0
C267 C 0.96309 0.61858 0.20059 0.0
N268 N 0.14623 0.98053 0.20551 0.0
N269 N 0.96842 0.70918 0.20144 0.0
H270 H 0.39821 0.2164 0.54083 0.0
H271 H 0.80432 0.90902 0.54134 0.0
H272 H 0.22618 0.8943 0.53996 0.0
H273 H 0.97439 0.22964 0.53286 0.0
H274 H 0.95793 0.90325 0.54183 0.0
H275 H 0.24472 0.223 0.53904 0.0
C276 C 0.32824 0.1468 0.54036 0.0
C277 C 0.32562 0.05443 0.54076 0.0
C278 C 0.96189 0.97492 0.53978 0.0
C279 C 0.14862 0.06199 0.53864 0.0
C280 C 0.87386 0.97851 0.5395 0.0
C281 C 0.87577 0.07017 0.53705 0.0
C282 C 0.05343 0.0636 0.53776 0.0
C283 C 0.96887 0.15724 0.53473 0.0
C284 C 0.24043 0.15086 0.53927 0.0
C285 C 0.23226 0.96719 0.53997 0.0
N286 N 0.05388 0.15181 0.53525 0.0
N287 N 0.14767 0.97317 0.53901 0.0
H288 H 0.03437 0.93739 0.87525 0.0
H289 H 0.62672 0.18954 0.86418 0.0
H290 H 0.18729 0.76889 0.8682 0.0
H291 H 0.47463 0.35246 0.88357 0.0
H292 H 0.46621 0.03497 0.86345 0.0
H293 H 0.1951 0.09137 0.87604 0.0
C294 C 0.10144 0.93249 0.87407 0.0
C295 C 0.09683 0.83964 0.87201 0.0
C296 C 0.46819 0.10477 0.86779 0.0
C297 C 0.28145 0.01597 0.87243 0.0
C298 C 0.55993 0.19321 0.86814 0.0
C299 C 0.56467 0.28491 0.87351 0.0
C300 C 0.38047 0.10794 0.87282 0.0
C301 C 0.47522 0.28428 0.87888 0.0
C302 C 0.19336 0.02058 0.8744 0.0
C303 C 0.18672 0.83849 0.86992 0.0
N304 N 0.38711 0.1975 0.87829 0.0
N305 N 0.27508 0.92513 0.87019 0.0
H306 H 0.46709 0.57425 1.01393 0.0
H307 H 0.25119 0.32903 0.16042 0.0
H308 H 0.61599 0.46456 0.06592 0.0
H309 H 0.16332 0.51545 0.11719 0.0
H310 H 0.377 0.36377 0.12487 0.0
H311 H 0.34219 0.53351 0.0497 0.0
C312 C 0.47261 0.54011 1.03272 0.0
C313 C 0.55198 0.52272 1.03696 0.0
C314 C 0.3305 0.39745 0.12329 0.0
C315 C 0.4102 0.47754 0.07824 0.0
C316 C 0.25936 0.37825 0.14364 0.0
C317 C 0.19849 0.42125 0.14192 0.0
C318 C 0.33844 0.45766 0.1008 0.0
C319 C 0.20974 0.48189 0.11936 0.0
C320 C 0.40196 0.51796 0.05328 0.0
C321 C 0.55633 0.4799 0.06194 0.0
N322 N 0.27815 0.49811 0.09966 0.0
N323 N 0.4864 0.45877 0.08169 0.0
H324 H 0.66541 0.4411 0.36469 0.0
H325 H 0.95041 0.18335 0.29544 0.0
H326 H 0.78795 0.28496 0.40851 0.0
H327 H 0.89165 0.39061 0.25187 0.0
H328 H 0.85808 0.19364 0.3348 0.0
H329 H 0.72266 0.40404 0.32139 0.0
C330 C 0.70427 0.3992 0.36524 0.0
C331 C 0.72136 0.36565 0.3903 0.0
C332 C 0.86423 0.23613 0.31655 0.0
C333 C 0.78503 0.32161 0.34097 0.0
C334 C 0.91634 0.22969 0.29406 0.0
C335 C 0.92908 0.28673 0.2706 0.0
C336 C 0.82565 0.30125 0.31572 0.0
C337 C 0.88341 0.34551 0.26968 0.0
C338 C 0.73613 0.37745 0.34053 0.0
C339 C 0.77115 0.31071 0.38973 0.0
N340 N 0.83457 0.35234 0.29214 0.0
N341 N 0.80104 0.29054 0.36553 0.0
H342 H 0.80648 0.74291 0.81335 0.0
H343 H 0.49866 0.50278 0.67962 0.0
H344 H 0.58747 0.43147 0.80503 0.0
H345 H 0.58555 0.80926 0.69848 0.0
H346 H 0.54386 0.4833 0.72561 0.0
H347 H 0.73483 0.77905 0.77264 0.0
C348 C 0.74135 0.68307 0.80355 0.0
C349 C 0.70253 0.58412 0.8123 0.0
C350 C 0.55216 0.55473 0.71989 0.0
C351 C 0.62345 0.62375 0.76585 0.0
C352 C 0.52577 0.56592 0.69351 0.0
C353 C 0.53613 0.65733 0.68506 0.0
C354 C 0.59169 0.63592 0.73817 0.0
C355 C 0.57645 0.7374 0.70396 0.0
C356 C 0.70109 0.70341 0.7803 0.0
C357 C 0.6196 0.50864 0.79873 0.0
N358 N 0.60344 0.72507 0.72965 0.0
N359 N 0.58375 0.52978 0.77605 0.0
H360 H -0.009 0.63161 0.96471 0.0
H361 H 0.70352 0.08102 1.02792 0.0
H362 H 0.81387 0.36605 0.91656 0.0
H363 H 0.86067 0.34986 0.07645 0.0
H364 H 0.75752 0.18227 0.9862 0.0
H365 H 0.9634 0.52715 1.00502 0.0
C366 C 0.94823 0.55118 0.96249 0.0
C367 C 0.90402 0.50756 0.93733 0.0
C368 C 0.78055 0.21902 1.00598 0.0
C369 C 0.87081 0.38753 0.98336 0.0
C370 C 0.74902 0.16133 1.0298 0.0
C371 C 0.77749 0.20698 0.05572 0.0
C372 C 0.84079 0.3232 1.00808 0.0
C373 C 0.83789 0.3113 0.0569 0.0
C374 C 0.93183 0.49158 0.98553 0.0
C375 C 0.84917 0.40298 0.93556 0.0
N376 N 0.86723 0.36579 1.03345 0.0
N377 N 0.83321 0.34656 0.95834 0.0
H378 H 0.58536 0.66893 0.35531 0.0
H379 H 0.41109 0.87988 0.48151 0.0
H380 H 0.32776 0.70606 0.35189 0.0
H381 H 0.71187 0.94672 0.46656 0.0
H382 H 0.35694 0.76735 0.44121 0.0
H383 H 0.60837 0.72165 0.40337 0.0
C384 C 0.53321 0.68752 0.36469 0.0
C385 C 0.45588 0.68529 0.34931 0.0
C386 C 0.43431 0.80498 0.44724 0.0
C387 C 0.48117 0.74446 0.40447 0.0
C388 C 0.46485 0.86825 0.47024 0.0
C389 C 0.56576 0.92157 0.47722 0.0
C390 C 0.5054 0.7953 0.43152 0.0
C391 C 0.63335 0.90634 0.46174 0.0
C392 C 0.54605 0.71698 0.39217 0.0
C393 C 0.38869 0.70711 0.36288 0.0
N394 N 0.60205 0.84483 0.4396 0.0
N395 N 0.40366 0.73716 0.38962 0.0
H396 H 0.11458 0.48708 0.69298 0.0
H397 H 0.81391 0.2388 0.58003 0.0
H398 H 0.84276 0.33075 0.73961 0.0
H399 H 0.56739 0.16379 0.63466 0.0
H400 H 0.92818 0.33241 0.61669 0.0
H401 H 0.01899 0.42772 0.65064 0.0
C402 C 0.03475 0.43913 0.69424 0.0
C403 C -0.01342 0.4135 0.71982 0.0
C404 C 0.84946 0.29794 0.62075 0.0
C405 C 0.87583 0.34381 0.67142 0.0
C406 C 0.78377 0.24409 0.59961 0.0
C407 C 0.68091 0.19316 0.60433 0.0
C408 C 0.81179 0.30032 0.64691 0.0
C409 C 0.64622 0.2018 0.63022 0.0
C410 C -0.02021 0.40504 0.66999 0.0
C411 C 0.88289 0.35297 0.72032 0.0
N412 N 0.7115 0.25334 0.65059 0.0
N413 N 0.83125 0.32021 0.69653 0.0
loop_
_geom_bond_atom_site_label_1
_geom_bond_atom_site_label_2
_geom_bond_distance
_geom_bond_site_symmetry_2
_ccdc_geom_bond_type
Eu0 N31 2.657 . S
Eu0 N38 2.609 . S
Eu0 O44 2.558 . S
Eu0 O45 2.612 1_455 S
Eu0 O47 2.339 . S
Eu0 O48 2.564 . S
Eu0 O49 2.419 . S
Eu0 O51 2.380 . S
Eu0 O52 2.432 . S
Eu0 C64 2.848 . S
C1 C4 1.429 . S
C1 C5 1.411 . S
C1 N8 1.377 . S
C2 C4 1.420 . S
C2 C6 1.423 . S
C2 C14 1.392 . S
C3 C5 1.420 . S
C3 C6 1.351 . S
C3 H26 0.931 . S
C4 C1 1.429 . S
C4 C2 1.420 . S
C4 N12 1.362 . S
C5 C1 1.411 . S
C5 C3 1.420 . S
C5 C10 1.395 . S
C6 C2 1.423 . S
C6 C3 1.351 . S
C6 H18 0.930 . S
C7 C9 1.400 . S
C7 C10 1.386 . S
C7 H19 0.930 . S
N8 C1 1.377 . S
N8 C9 1.321 . S
N8 Eu11 2.609 . S
C9 C7 1.400 . S
C9 N8 1.321 . S
C9 H16 0.930 . S
C10 C5 1.395 . S
C10 C7 1.386 . S
C10 H29 0.930 . S
Eu11 N8 2.609 . S
Eu11 N12 2.657 . S
Eu11 O45 2.380 . S
Eu11 O46 2.432 . S
Eu11 O50 2.558 . S
Eu11 O51 2.612 1_655 S
Eu11 O53 2.339 . S
Eu11 O54 2.563 . S
Eu11 O55 2.419 . S
Eu11 C75 2.848 . S
N12 C4 1.362 . S
N12 Eu11 2.657 . S
N12 C13 1.334 . S
C13 N12 1.334 . S
C13 C15 1.413 . S
C13 H20 0.929 . S
C14 C2 1.392 . S
C14 C15 1.367 . S
C14 H22 0.930 . S
C15 C13 1.413 . S
C15 C14 1.367 . S
C15 H17 0.930 . S
H16 C9 0.930 . S
H17 C15 0.930 . S
H18 C6 0.930 . S
H19 C7 0.930 . S
H20 C13 0.929 . S
H21 C35 0.930 . S
H22 C14 0.930 . S
H23 C41 0.930 . S
H24 C32 0.929 . S
H25 C39 0.930 . S
H26 C3 0.931 . S
H27 C33 0.930 . S
H28 C66 0.930 . S
H29 C10 0.930 . S
H30 C65 0.931 . S
N31 Eu0 2.657 . S
N31 C32 1.334 . S
N31 C36 1.362 . S
C32 H24 0.929 . S
C32 N31 1.334 . S
C32 C35 1.413 . S
C33 H27 0.930 . S
C33 C34 1.392 . S
C33 C35 1.367 . S
C34 C33 1.392 . S
C34 C36 1.420 . S
C34 C66 1.423 . S
C35 H21 0.930 . S
C35 C32 1.413 . S
C35 C33 1.367 . S
C36 N31 1.362 . S
C36 C34 1.420 . S
C36 C40 1.429 . S
H37 C42 0.930 . S
N38 Eu0 2.609 . S
N38 C40 1.377 . S
N38 C41 1.321 . S
C39 H25 0.930 . S
C39 C41 1.400 . S
C39 C42 1.386 . S
C40 C36 1.429 . S
C40 N38 1.377 . S
C40 C43 1.411 . S
C41 H23 0.930 . S
C41 N38 1.321 . S
C41 C39 1.400 . S
C42 H37 0.930 . S
C42 C39 1.386 . S
C42 C43 1.395 . S
C43 C40 1.411 . S
C43 C42 1.395 . S
C43 C65 1.420 . S
O44 Eu0 2.558 . S
O44 C64 1.257 . S
O45 Eu0 2.612 1_655 S
O45 Eu11 2.380 . S
O45 C56 1.276 . S
O46 Eu11 2.432 . S
O46 C63 1.264 1_655 S
O47 Eu0 2.339 . S
O47 C63 1.254 . S
O48 Eu0 2.564 . S
O48 C56 1.234 1_455 S
O49 Eu0 2.419 . S
O49 C64 1.249 . S
O50 Eu11 2.558 . S
O50 C75 1.257 . S
O51 Eu0 2.380 . S
O51 Eu11 2.612 1_455 S
O51 C67 1.276 . S
O52 Eu0 2.432 . S
O52 C74 1.264 1_455 S
O53 Eu11 2.339 . S
O53 C74 1.254 . S
O54 Eu11 2.563 . S
O54 C67 1.236 1_655 S
O55 Eu11 2.419 . S
O55 C75 1.249 . S
C56 O45 1.276 . S
C56 O48 1.234 1_655 S
C57 C59 1.393 . S
C57 C61 1.395 . S
C57 C64 1.492 . S
C58 C59 1.392 . S
C58 C60 1.386 . S
C59 C57 1.393 . S
C59 C58 1.392 . S
C59 H76 0.930 . S
C60 C58 1.386 . S
C60 C62 1.395 . S
C60 H77 0.930 . S
C61 C57 1.395 . S
C61 C62 1.379 . S
C61 H78 0.930 . S
C62 C60 1.395 . S
C62 C61 1.379 . S
C62 H79 0.930 . S
C63 O46 1.264 1_455 S
C63 O47 1.254 . S
C64 Eu0 2.848 . S
C64 O44 1.257 . S
C64 O49 1.249 . S
C64 C57 1.492 . S
C65 H30 0.931 . S
C65 C43 1.420 . S
C65 C66 1.351 . S
C66 H28 0.930 . S
C66 C34 1.423 . S
C66 C65 1.351 . S
C67 O51 1.276 . S
C67 O54 1.236 1_455 S
C68 C69 1.393 . S
C68 C72 1.395 . S
C68 C75 1.492 . S
C69 C68 1.393 . S
C69 C70 1.392 . S
C69 H80 0.930 . S
C70 C69 1.392 . S
C70 C71 1.386 . S
C71 C70 1.386 . S
C71 C73 1.395 . S
C71 H81 0.930 . S
C72 C68 1.395 . S
C72 C73 1.379 . S
C72 H82 0.930 . S
C73 C71 1.395 . S
C73 C72 1.379 . S
C73 H83 0.930 . S
C74 O52 1.264 1_655 S
C74 O53 1.254 . S
C75 Eu11 2.848 . S
C75 O50 1.257 . S
C75 O55 1.249 . S
C75 C68 1.492 . S
H76 C59 0.930 . S
H77 C60 0.930 . S
H78 C61 0.930 . S
H79 C62 0.930 . S
H80 C69 0.930 . S
H81 C71 0.930 . S
H82 C72 0.930 . S
H83 C73 0.930 . S
Eu84 N115 2.657 1_545 S
Eu84 N122 2.609 1_545 S
Eu84 O128 2.558 1_545 S
Eu84 O129 2.612 . S
Eu84 O131 2.339 . S
Eu84 O132 2.563 . S
Eu84 O133 2.419 1_545 S
Eu84 O135 2.380 . S
Eu84 O136 2.432 . S
Eu84 C148 2.848 1_545 S
C85 C88 1.429 1_455 S
C85 C89 1.411 . S
C85 N92 1.377 . S
C86 C88 1.420 . S
C86 C90 1.423 1_655 S
C86 C98 1.392 . S
C87 C89 1.420 . S
C87 C90 1.351 . S
C87 H110 0.931 . S
C88 C85 1.429 1_655 S
C88 C86 1.420 . S
C88 N96 1.362 . S
C89 C85 1.411 . S
C89 C87 1.420 . S
C89 C94 1.395 . S
C90 C86 1.423 1_455 S
C90 C87 1.351 . S
C90 H102 0.930 . S
C91 C93 1.400 . S
C91 C94 1.386 . S
C91 H103 0.930 . S
N92 C85 1.377 . S
N92 C93 1.321 . S
N92 Eu95 2.609 1_455 S
C93 C91 1.400 . S
C93 N92 1.321 . S
C93 H100 0.930 . S
C94 C89 1.395 . S
C94 C91 1.386 . S
C94 H113 0.930 . S
Eu95 N92 2.609 1_655 S
Eu95 N96 2.657 . S
Eu95 O129 2.380 . S
Eu95 O130 2.432 . S
Eu95 O134 2.558 . S
Eu95 O135 2.612 . S
Eu95 O137 2.339 . S
Eu95 O138 2.563 . S
Eu95 O139 2.419 . S
Eu95 C159 2.848 . S
N96 C88 1.362 . S
N96 Eu95 2.657 . S
N96 C97 1.334 . S
C97 N96 1.334 . S
C97 C99 1.413 . S
C97 H104 0.929 . S
C98 C86 1.392 . S
C98 C99 1.367 . S
C98 H106 0.930 . S
C99 C97 1.413 . S
C99 C98 1.367 . S
C99 H101 0.930 . S
H100 C93 0.930 . S
H101 C99 0.930 . S
H102 C90 0.930 . S
H103 C91 0.930 . S
H104 C97 0.929 . S
H105 C119 0.930 . S
H106 C98 0.930 . S
H107 C125 0.930 . S
H108 C116 0.929 . S
H109 C123 0.930 . S
H110 C87 0.931 . S
H111 C117 0.930 . S
H112 C150 0.930 . S
H113 C94 0.930 . S
H114 C149 0.931 . S
N115 Eu84 2.657 1_565 S
N115 C116 1.334 . S
N115 C120 1.362 . S
C116 H108 0.929 . S
C116 N115 1.334 . S
C116 C119 1.413 . S
C117 H111 0.930 . S
C117 C118 1.392 . S
C117 C119 1.367 . S
C118 C117 1.392 . S
C118 C120 1.420 . S
C118 C150 1.423 . S
C119 H105 0.930 . S
C119 C116 1.413 . S
C119 C117 1.367 . S
C120 N115 1.362 . S
C120 C118 1.420 . S
C120 C124 1.429 . S
H121 C126 0.930 . S
N122 Eu84 2.609 1_565 S
N122 C124 1.377 . S
N122 C125 1.321 . S
C123 H109 0.930 . S
C123 C125 1.400 . S
C123 C126 1.386 . S
C124 C120 1.429 . S
C124 N122 1.377 . S
C124 C127 1.411 . S
C125 H107 0.930 . S
C125 N122 1.321 . S
C125 C123 1.400 . S
C126 H121 0.930 . S
C126 C123 1.386 . S
C126 C127 1.395 . S
C127 C124 1.411 . S
C127 C126 1.395 . S
C127 C149 1.420 . S
O128 Eu84 2.558 1_565 S
O128 C148 1.257 . S
O129 Eu84 2.612 . S
O129 Eu95 2.380 . S
O129 C140 1.276 . S
O130 Eu95 2.432 . S
O130 C147 1.264 . S
O131 Eu84 2.339 . S
O131 C147 1.254 . S
O132 Eu84 2.563 . S
O132 C140 1.235 . S
O133 Eu84 2.419 1_565 S
O133 C148 1.249 . S
O134 Eu95 2.558 . S
O134 C159 1.257 . S
O135 Eu84 2.380 . S
O135 Eu95 2.612 . S
O135 C151 1.276 . S
O136 Eu84 2.432 . S
O136 C158 1.264 . S
O137 Eu95 2.339 . S
O137 C158 1.254 . S
O138 Eu95 2.563 . S
O138 C151 1.235 . S
O139 Eu95 2.419 . S
O139 C159 1.249 . S
C140 O129 1.276 . S
C140 O132 1.235 . S
C141 C143 1.393 . S
C141 C145 1.395 . S
C141 C148 1.492 . S
C142 C143 1.392 . S
C142 C144 1.386 . S
C143 C141 1.393 . S
C143 C142 1.392 . S
C143 H160 0.930 . S
C144 C142 1.386 . S
C144 C146 1.395 . S
C144 H161 0.930 . S
C145 C141 1.395 . S
C145 C146 1.379 . S
C145 H162 0.930 . S
C146 C144 1.395 . S
C146 C145 1.379 . S
C146 H163 0.930 . S
C147 O130 1.264 . S
C147 O131 1.254 . S
C148 Eu84 2.848 1_565 S
C148 O128 1.257 . S
C148 O133 1.249 . S
C148 C141 1.492 . S
C149 H114 0.931 . S
C149 C127 1.420 . S
C149 C150 1.351 . S
C150 H112 0.930 . S
C150 C118 1.423 . S
C150 C149 1.351 . S
C151 O135 1.276 . S
C151 O138 1.235 . S
C152 C153 1.393 . S
C152 C156 1.395 1_655 S
C152 C159 1.492 . S
C153 C152 1.393 . S
C153 C154 1.392 . S
C153 H164 0.930 . S
C154 C153 1.392 . S
C154 C155 1.386 . S
C155 C154 1.386 . S
C155 C157 1.395 1_655 S
C155 H165 0.930 . S
C156 C152 1.395 1_455 S
C156 C157 1.379 . S
C156 H166 0.930 . S
C157 C155 1.395 1_455 S
C157 C156 1.379 . S
C157 H167 0.930 . S
C158 O136 1.264 . S
C158 O137 1.254 . S
C159 Eu95 2.848 . S
C159 O134 1.257 . S
C159 O139 1.249 . S
C159 C152 1.492 . S
H160 C143 0.930 . S
H161 C144 0.930 . S
H162 C145 0.930 . S
H163 C146 0.930 . S
H164 C153 0.930 . S
H165 C155 0.930 . S
H166 C156 0.930 . S
H167 C157 0.930 . S
Eu168 N199 2.657 . S
Eu168 N206 2.609 . S
Eu168 O212 2.558 . S
Eu168 O213 2.612 . S
Eu168 O215 2.339 . S
Eu168 O216 2.563 . S
Eu168 O217 2.419 . S
Eu168 O219 2.380 . S
Eu168 O220 2.432 . S
Eu168 C232 2.848 . S
C169 C172 1.429 . S
C169 C173 1.411 . S
C169 N176 1.377 . S
C170 C172 1.420 1_455 S
C170 C174 1.423 . S
C170 C182 1.392 . S
C171 C173 1.420 . S
C171 C174 1.351 1_655 S
C171 H194 0.931 1_545 S
C172 C169 1.429 . S
C172 C170 1.420 1_655 S
C172 N180 1.362 . S
C173 C169 1.411 . S
C173 C171 1.420 . S
C173 C178 1.395 1_545 S
C174 C170 1.423 . S
C174 C171 1.351 1_455 S
C174 H186 0.930 . S
C175 C177 1.400 1_565 S
C175 C178 1.386 . S
C175 H187 0.930 . S
N176 C169 1.377 . S
N176 C177 1.321 . S
N176 Eu179 2.609 . S
C177 C175 1.400 1_545 S
C177 N176 1.321 . S
C177 H184 0.930 . S
C178 C173 1.395 1_565 S
C178 C175 1.386 . S
C178 H197 0.930 . S
Eu179 N176 2.609 . S
Eu179 N180 2.657 . S
Eu179 O213 2.380 . S
Eu179 O214 2.432 . S
Eu179 O218 2.558 . S
Eu179 O219 2.612 . S
Eu179 O221 2.339 . S
Eu179 O222 2.563 . S
Eu179 O223 2.419 . S
Eu179 C243 2.848 . S
N180 C172 1.362 . S
N180 Eu179 2.657 . S
N180 C181 1.334 1_655 S
C181 N180 1.334 1_455 S
C181 C183 1.413 . S
C181 H188 0.929 . S
C182 C170 1.392 . S
C182 C183 1.367 . S
C182 H190 0.930 . S
C183 C181 1.413 . S
C183 C182 1.367 . S
C183 H185 0.930 . S
H184 C177 0.930 . S
H185 C183 0.930 . S
H186 C174 0.930 . S
H187 C175 0.930 . S
H188 C181 0.929 . S
H189 C203 0.930 . S
H190 C182 0.930 . S
H191 C209 0.930 . S
H192 C200 0.929 . S
H193 C207 0.930 . S
H194 C171 0.931 1_565 S
H195 C201 0.930 . S
H196 C234 0.930 . S
H197 C178 0.930 . S
H198 C233 0.931 . S
N199 Eu168 2.657 . S
N199 C200 1.334 . S
N199 C204 1.362 . S
C200 H192 0.929 . S
C200 N199 1.334 . S
C200 C203 1.413 . S
C201 H195 0.930 . S
C201 C202 1.392 . S
C201 C203 1.367 . S
C202 C201 1.392 . S
C202 C204 1.420 . S
C202 C234 1.423 . S
C203 H189 0.930 . S
C203 C200 1.413 . S
C203 C201 1.367 . S
C204 N199 1.362 . S
C204 C202 1.420 . S
C204 C208 1.429 . S
H205 C210 0.930 . S
N206 Eu168 2.609 . S
N206 C208 1.377 . S
N206 C209 1.321 . S
C207 H193 0.930 . S
C207 C209 1.400 . S
C207 C210 1.386 . S
C208 C204 1.429 . S
C208 N206 1.377 . S
C208 C211 1.411 . S
C209 H191 0.930 . S
C209 N206 1.321 . S
C209 C207 1.400 . S
C210 H205 0.930 . S
C210 C207 1.386 . S
C210 C211 1.395 . S
C211 C208 1.411 . S
C211 C210 1.395 . S
C211 C233 1.420 . S
O212 Eu168 2.558 . S
O212 C232 1.257 . S
O213 Eu168 2.612 . S
O213 Eu179 2.380 . S
O213 C224 1.276 . S
O214 Eu179 2.432 . S
O214 C231 1.264 . S
O215 Eu168 2.339 . S
O215 C231 1.254 . S
O216 Eu168 2.563 . S
O216 C224 1.235 . S
O217 Eu168 2.419 . S
O217 C232 1.249 . S
O218 Eu179 2.558 . S
O218 C243 1.257 . S
O219 Eu168 2.380 . S
O219 Eu179 2.612 . S
O219 C235 1.276 . S
O220 Eu168 2.432 . S
O220 C242 1.264 . S
O221 Eu179 2.339 . S
O221 C242 1.254 . S
O222 Eu179 2.563 . S
O222 C235 1.235 . S
O223 Eu179 2.419 . S
O223 C243 1.249 . S
C224 O213 1.276 . S
C224 O216 1.235 . S
C225 C227 1.393 . S
C225 C229 1.395 . S
C225 C232 1.492 . S
C226 C227 1.392 . S
C226 C228 1.386 . S
C227 C225 1.393 . S
C227 C226 1.392 . S
C227 H244 0.930 . S
C228 C226 1.386 . S
C228 C230 1.395 . S
C228 H245 0.930 . S
C229 C225 1.395 . S
C229 C230 1.379 . S
C229 H246 0.930 . S
C230 C228 1.395 . S
C230 C229 1.379 . S
C230 H247 0.930 . S
C231 O214 1.264 . S
C231 O215 1.254 . S
C232 Eu168 2.848 . S
C232 O212 1.257 . S
C232 O217 1.249 . S
C232 C225 1.492 . S
C233 H198 0.931 . S
C233 C211 1.420 . S
C233 C234 1.351 . S
C234 H196 0.930 . S
C234 C202 1.423 . S
C234 C233 1.351 . S
C235 O219 1.276 . S
C235 O222 1.235 . S
C236 C237 1.393 1_655 S
C236 C240 1.395 . S
C236 C243 1.492 . S
C237 C236 1.393 1_455 S
C237 C238 1.392 . S
C237 H248 0.930 . S
C238 C237 1.392 . S
C238 C239 1.386 . S
C239 C238 1.386 . S
C239 C241 1.395 1_455 S
C239 H249 0.930 . S
C240 C236 1.395 . S
C240 C241 1.379 . S
C240 H250 0.930 . S
C241 C239 1.395 1_655 S
C241 C240 1.379 . S
C241 H251 0.930 . S
C242 O220 1.264 . S
C242 O221 1.254 . S
C243 Eu179 2.848 . S
C243 O218 1.257 . S
C243 O223 1.249 . S
C243 C236 1.492 . S
H244 C227 0.930 . S
H245 C228 0.930 . S
H246 C229 0.930 . S
H247 C230 0.930 . S
H248 C237 0.930 . S
H249 C239 0.930 . S
H250 C240 0.930 . S
H251 C241 0.930 . S
H252 C258 0.930 . S
H253 C262 0.930 . S
H254 C267 0.929 . S
H255 C265 0.929 . S
H256 C260 0.929 . S
H257 C266 0.929 . S
C258 H252 0.930 . S
C258 C259 1.367 . S
C258 C266 1.378 . S
C259 C258 1.367 . S
C259 C267 1.433 1_455 S
C260 H256 0.929 . S
C260 C262 1.378 1_565 S
C260 C264 1.350 . S
C261 C264 1.463 1_455 S
C261 C266 1.350 . S
C261 N269 1.427 1_455 S
C262 H253 0.930 . S
C262 C260 1.378 1_545 S
C262 C263 1.367 . S
C263 C262 1.367 . S
C263 C265 1.433 1_655 S
C264 C260 1.350 . S
C264 C261 1.463 1_655 S
C264 N268 1.427 1_665 S
C265 H255 0.929 . S
C265 C263 1.433 1_455 S
C265 N268 1.384 . S
C266 H257 0.929 . S
C266 C258 1.378 . S
C266 C261 1.350 . S
C267 H254 0.929 . S
C267 C259 1.433 1_655 S
C267 N269 1.384 . S
N268 C264 1.427 1_445 S
N268 C265 1.384 . S
N269 C261 1.427 1_655 S
N269 C267 1.384 . S
H270 C276 0.930 . S
H271 C280 0.930 1_655 S
H272 C285 0.929 . S
H273 C283 0.929 . S
H274 C278 0.929 . S
H275 C284 0.929 . S
C276 H270 0.930 . S
C276 C277 1.367 . S
C276 C284 1.378 . S
C277 C276 1.367 . S
C277 C285 1.433 . S
C278 H274 0.929 . S
C278 C280 1.378 . S
C278 C282 1.350 . S
C279 C282 1.463 . S
C279 C284 1.350 . S
C279 N287 1.427 . S
C280 H271 0.930 1_455 S
C280 C278 1.378 . S
C280 C281 1.367 . S
C281 C280 1.367 . S
C281 C283 1.433 . S
C282 C278 1.350 . S
C282 C279 1.463 . S
C282 N286 1.427 . S
C283 H273 0.929 . S
C283 C281 1.433 . S
C283 N286 1.384 . S
C284 H275 0.929 . S
C284 C276 1.378 . S
C284 C279 1.350 . S
C285 H272 0.929 . S
C285 C277 1.433 . S
C285 N287 1.384 . S
N286 C282 1.427 . S
N286 C283 1.384 . S
N287 C279 1.427 . S
N287 C285 1.384 . S
H288 C294 0.930 . S
H289 C298 0.930 . S
H290 C303 0.929 . S
H291 C301 0.929 . S
H292 C296 0.929 . S
H293 C302 0.929 . S
C294 H288 0.930 . S
C294 C295 1.367 . S
C294 C302 1.378 . S
C295 C294 1.367 . S
C295 C303 1.433 . S
C296 H292 0.929 . S
C296 C298 1.378 1_565 S
C296 C300 1.350 . S
C297 C300 1.463 . S
C297 C302 1.350 . S
C297 N305 1.427 . S
C298 H289 0.930 . S
C298 C296 1.378 1_545 S
C298 C299 1.367 . S
C299 C298 1.367 . S
C299 C301 1.433 . S
C300 C296 1.350 . S
C300 C297 1.463 . S
C300 N304 1.427 1_565 S
C301 H291 0.929 . S
C301 C299 1.433 . S
C301 N304 1.384 . S
C302 H293 0.929 . S
C302 C294 1.378 . S
C302 C297 1.350 . S
C303 H290 0.929 . S
C303 C295 1.433 . S
C303 N305 1.384 . S
N304 C300 1.427 1_545 S
N304 C301 1.384 . S
N305 C297 1.427 . S
N305 C303 1.384 . S
H306 C312 0.930 . S
H307 C316 0.930 . S
H308 C321 0.937 . S
H309 C319 0.929 . S
H310 C314 0.929 . S
H311 C320 0.929 . S
C312 H306 0.930 . S
C312 C313 1.367 . S
C312 C320 1.378 1_556 S
C313 C312 1.367 . S
C313 C321 1.433 1_556 S
C314 H310 0.929 . S
C314 C316 1.378 . S
C314 C318 1.350 . S
C315 C318 1.463 . S
C315 C320 1.350 . S
C315 N323 1.427 . S
C316 H307 0.930 . S
C316 C314 1.378 . S
C316 C317 1.367 . S
C317 C316 1.367 . S
C317 C319 1.433 . S
C318 C314 1.350 . S
C318 C315 1.463 . S
C318 N322 1.427 . S
C319 H309 0.929 . S
C319 C317 1.433 . S
C319 N322 1.384 . S
C320 H311 0.929 . S
C320 C312 1.378 1_554 S
C320 C315 1.350 . S
C321 H308 0.937 . S
C321 C313 1.433 1_554 S
C321 N323 1.384 . S
N322 C318 1.427 . S
N322 C319 1.384 . S
N323 C315 1.427 . S
N323 C321 1.384 . S
H324 C330 0.930 . S
H325 C334 0.930 . S
H326 C339 0.929 . S
H327 C337 0.929 1_455 S
H328 C332 0.929 . S
H329 C338 0.929 . S
C330 H324 0.930 . S
C330 C331 1.367 . S
C330 C338 1.378 . S
C331 C330 1.367 . S
C331 C339 1.433 . S
C332 H328 0.929 . S
C332 C334 1.378 . S
C332 C336 1.350 . S
C333 C336 1.463 . S
C333 C338 1.350 . S
C333 N341 1.427 . S
C334 H325 0.930 . S
C334 C332 1.378 . S
C334 C335 1.367 . S
C335 C334 1.367 . S
C335 C337 1.433 . S
C336 C332 1.350 . S
C336 C333 1.463 . S
C336 N340 1.427 . S
C337 H327 0.929 1_655 S
C337 C335 1.433 . S
C337 N340 1.384 . S
C338 H329 0.929 . S
C338 C330 1.378 . S
C338 C333 1.350 . S
C339 H326 0.929 . S
C339 C331 1.433 . S
C339 N341 1.384 . S
N340 C336 1.427 . S
N340 C337 1.384 . S
N341 C333 1.427 . S
N341 C339 1.384 . S
H342 C348 0.930 . S
H343 C352 0.930 . S
H344 C357 0.929 . S
H345 C355 0.929 . S
H346 C350 0.929 . S
H347 C356 0.929 . S
C348 H342 0.930 . S
C348 C349 1.367 . S
C348 C356 1.378 . S
C349 C348 1.367 . S
C349 C357 1.433 . S
C350 H346 0.929 . S
C350 C352 1.378 . S
C350 C354 1.350 . S
C351 C354 1.463 . S
C351 C356 1.350 . S
C351 N359 1.427 . S
C352 H343 0.930 . S
C352 C350 1.378 . S
C352 C353 1.367 . S
C353 C352 1.367 . S
C353 C355 1.433 . S
C354 C350 1.350 . S
C354 C351 1.463 . S
C354 N358 1.427 . S
C355 H345 0.929 . S
C355 C353 1.433 . S
C355 N358 1.384 . S
C356 H347 0.929 . S
C356 C348 1.378 . S
C356 C351 1.350 . S
C357 H344 0.929 . S
C357 C349 1.433 . S
C357 N359 1.384 . S
N358 C354 1.427 . S
N358 C355 1.384 . S
N359 C351 1.427 . S
N359 C357 1.384 . S
H360 C366 0.930 . S
H361 C370 0.941 1_565 S
H362 C375 0.929 . S
H363 C373 0.929 . S
H364 C368 0.929 . S
H365 C374 0.929 . S
C366 H360 0.930 . S
C366 C367 1.367 . S
C366 C374 1.378 . S
C367 C366 1.367 . S
C367 C375 1.433 . S
C368 H364 0.929 . S
C368 C370 1.334 1_556 S
C368 C372 1.350 . S
C369 C372 1.463 . S
C369 C374 1.350 . S
C369 N377 1.427 . S
C370 H361 0.941 1_545 S
C370 C368 1.334 1_554 S
C370 C371 1.401 . S
C371 C370 1.401 . S
C371 C373 1.433 . S
C372 C368 1.350 . S
C372 C369 1.463 . S
C372 N376 1.427 . S
C373 H363 0.929 . S
C373 C371 1.433 . S
C373 N376 1.384 1_554 S
C374 H365 0.929 . S
C374 C366 1.378 . S
C374 C369 1.350 . S
C375 H362 0.929 . S
C375 C367 1.433 . S
C375 N377 1.384 . S
N376 C372 1.427 . S
N376 C373 1.384 1_556 S
N377 C369 1.427 . S
N377 C375 1.384 . S
H378 C384 0.930 . S
H379 C388 0.930 . S
H380 C393 0.929 . S
H381 C391 0.929 . S
H382 C386 0.929 . S
H383 C392 0.929 . S
C384 H378 0.930 . S
C384 C385 1.367 . S
C384 C392 1.378 . S
C385 C384 1.367 . S
C385 C393 1.433 . S
C386 H382 0.929 . S
C386 C388 1.378 . S
C386 C390 1.350 1_545 S
C387 C390 1.463 . S
C387 C392 1.350 . S
C387 N395 1.427 . S
C388 H379 0.930 . S
C388 C386 1.378 . S
C388 C389 1.367 . S
C389 C388 1.367 . S
C389 C391 1.433 1_545 S
C390 C386 1.350 1_565 S
C390 C387 1.463 . S
C390 N394 1.427 . S
C391 H381 0.929 . S
C391 C389 1.433 1_565 S
C391 N394 1.384 . S
C392 H383 0.929 . S
C392 C384 1.378 . S
C392 C387 1.350 . S
C393 H380 0.929 . S
C393 C385 1.433 . S
C393 N395 1.384 . S
N394 C390 1.427 . S
N394 C391 1.384 . S
N395 C387 1.427 . S
N395 C393 1.384 . S
H396 C402 0.930 . S
H397 C406 0.930 . S
H398 C411 0.929 1_655 S
H399 C409 0.929 . S
H400 C404 0.929 . S
H401 C410 0.929 . S
C402 H396 0.930 . S
C402 C403 1.367 . S
C402 C410 1.378 . S
C403 C402 1.367 . S
C403 C411 1.433 . S
C404 H400 0.929 . S
C404 C406 1.378 . S
C404 C408 1.350 . S
C405 C408 1.463 1_455 S
C405 C410 1.350 . S
C405 N413 1.427 1_455 S
C406 H397 0.930 . S
C406 C404 1.378 . S
C406 C407 1.367 . S
C407 C406 1.367 . S
C407 C409 1.433 . S
C408 C404 1.350 . S
C408 C405 1.463 1_655 S
C408 N412 1.428 1_655 S
C409 H399 0.929 . S
C409 C407 1.433 . S
C409 N412 1.381 1_655 S
C410 H401 0.929 . S
C410 C402 1.378 . S
C410 C405 1.350 . S
C411 H398 0.929 1_455 S
C411 C403 1.433 . S
C411 N413 1.384 1_455 S
N412 C408 1.428 1_455 S
N412 C409 1.381 1_455 S
N413 C405 1.427 1_655 S
N413 C411 1.384 1_655 S
C259 C63 1.452 . S
C263 C74 1.452 . S
C277 C158 1.440 . S
C281 C147 1.440 1_455 S
C295 C242 1.440 1_455 S
C299 C231 1.440 . S
C313 C226 1.761 . S
C317 C67 1.920 . S
C331 C154 1.095 . S
C335 C56 1.250 . S
C349 C235 1.922 . S
C353 C142 1.762 . S
C367 C224 1.228 . S
C371 C70 1.123 . S
C385 C58 1.763 . S
C389 C151 1.915 . S
C403 C238 1.123 . S
C407 C140 1.226 . S
