# Generated by pormake.
# Topology umg, (4)-cn, num edge types: 1
# Building blocks:
#     Node 0, Type 0, BuildingBlock: CEKHIL_clean_sbu_0, # of connection points: 4
#     Node 1, Type 0, BuildingBlock: CEKHIL_clean_sbu_0, # of connection points: 4
#     Node 2, Type 0, BuildingBlock: CEKHIL_clean_sbu_0, # of connection points: 4
#     Node 3, Type 0, BuildingBlock: CEKHIL_clean_sbu_0, # of connection points: 4
#     Node 4, Type 0, BuildingBlock: CEKHIL_clean_sbu_0, # of connection points: 4
#     Node 5, Type 0, BuildingBlock: CEKHIL_clean_sbu_0, # of connection points: 4
#     Node 6, Type 0, BuildingBlock: CEKHIL_clean_sbu_0, # of connection points: 4
#     Node 7, Type 0, BuildingBlock: CEKHIL_clean_sbu_0, # of connection points: 4
#     Node 8, Type 0, BuildingBlock: CEKHIL_clean_sbu_0, # of connection points: 4
#     Node 9, Type 0, BuildingBlock: CEKHIL_clean_sbu_0, # of connection points: 4
#     Node 10, Type 0, BuildingBlock: CEKHIL_clean_sbu_0, # of connection points: 4
#     Node 11, Type 0, BuildingBlock: CEKHIL_clean_sbu_0, # of connection points: 4
#     Edge 12, Type (0, 0), BuildingBlock: XIVTED_clean_linker_0, # of connection points: 2
#     Edge 13, Type (0, 0), BuildingBlock: XIVTED_clean_linker_0, # of connection points: 2
#     Edge 14, Type (0, 0), BuildingBlock: XIVTED_clean_linker_0, # of connection points: 2
#     Edge 15, Type (0, 0), BuildingBlock: XIVTED_clean_linker_0, # of connection points: 2
#     Edge 16, Type (0, 0), BuildingBlock: XIVTED_clean_linker_0, # of connection points: 2
#     Edge 17, Type (0, 0), BuildingBlock: XIVTED_clean_linker_0, # of connection points: 2
#     Edge 18, Type (0, 0), BuildingBlock: XIVTED_clean_linker_0, # of connection points: 2
#     Edge 19, Type (0, 0), BuildingBlock: XIVTED_clean_linker_0, # of connection points: 2
#     Edge 20, Type (0, 0), BuildingBlock: XIVTED_clean_linker_0, # of connection points: 2
#     Edge 21, Type (0, 0), BuildingBlock: XIVTED_clean_linker_0, # of connection points: 2
#     Edge 22, Type (0, 0), BuildingBlock: XIVTED_clean_linker_0, # of connection points: 2
#     Edge 23, Type (0, 0), BuildingBlock: XIVTED_clean_linker_0, # of connection points: 2
#     Edge 24, Type (0, 0), BuildingBlock: XIVTED_clean_linker_0, # of connection points: 2
#     Edge 25, Type (0, 0), BuildingBlock: XIVTED_clean_linker_0, # of connection points: 2
#     Edge 26, Type (0, 0), BuildingBlock: XIVTED_clean_linker_0, # of connection points: 2
#     Edge 27, Type (0, 0), BuildingBlock: XIVTED_clean_linker_0, # of connection points: 2
#     Edge 28, Type (0, 0), BuildingBlock: XIVTED_clean_linker_0, # of connection points: 2
#     Edge 29, Type (0, 0), BuildingBlock: XIVTED_clean_linker_0, # of connection points: 2
#     Edge 30, Type (0, 0), BuildingBlock: XIVTED_clean_linker_0, # of connection points: 2
#     Edge 31, Type (0, 0), BuildingBlock: XIVTED_clean_linker_0, # of connection points: 2
#     Edge 32, Type (0, 0), BuildingBlock: XIVTED_clean_linker_0, # of connection points: 2
#     Edge 33, Type (0, 0), BuildingBlock: XIVTED_clean_linker_0, # of connection points: 2
#     Edge 34, Type (0, 0), BuildingBlock: XIVTED_clean_linker_0, # of connection points: 2
#     Edge 35, Type (0, 0), BuildingBlock: XIVTED_clean_linker_0, # of connection points: 2
# Relax obj value: 0.081
# Max RMSD: 0.335
# Mean RMSD: 0.204
data_MOF--net-umg--node1-CEKHIL_clean_sbu_0--edge1-XIVTED_clean_linker_0
_symmetry_space_group_name_H-M    P1
_symmetry_Int_Tables_number       1
_symmetry_cell_setting            triclinic
loop_
_symmetry_equiv_pos_as_xyz
'x, y, z'
_cell_length_a     28.015577
_cell_length_b     28.045476
_cell_length_c     79.986898
_cell_angle_alpha  89.927446
_cell_angle_beta   90.011249
_cell_angle_gamma 119.89756
loop_
_atom_site_label
_atom_site_type_symbol
_atom_site_fract_x
_atom_site_fract_y
_atom_site_fract_z
_atom_type_partial_charge
Co0 Co 0.41684 0.5217 0.08974 0.0
O1 O 0.48979 0.53233 0.09154 0.0
O2 O 0.42792 0.47701 0.07321 0.0
C3 C 0.39764 0.50994 0.11717 0.0
O4 O 0.33617 0.50015 0.08512 0.0
Co5 Co 0.3948 0.60894 0.10614 0.0
O6 O 0.31713 0.55423 0.10136 0.0
C7 C 0.45056 0.63346 0.07362 0.0
C8 C 0.47735 0.49762 0.07942 0.0
C9 C 0.30215 0.51415 0.09125 0.0
O10 O 0.44453 0.58492 0.07346 0.0
O11 O 0.43564 0.65238 0.08586 0.0
O12 O 0.39133 0.46902 0.10803 0.0
O13 O 0.42095 0.55757 0.10993 0.0
Co14 Co 0.54531 0.24434 0.39462 0.0
O15 O 0.60806 0.317 0.39384 0.0
O16 O 0.61101 0.24163 0.3879 0.0
C17 C 0.51652 0.25385 0.42004 0.0
O18 O 0.48706 0.16186 0.39494 0.0
Co19 Co 0.4317 0.23398 0.39418 0.0
O20 O 0.40507 0.15609 0.39952 0.0
C21 C 0.4898 0.25253 0.36249 0.0
C22 C 0.6372 0.295 0.38953 0.0
C23 C 0.43471 0.13372 0.39787 0.0
O24 O 0.52891 0.25174 0.37058 0.0
O25 O 0.44653 0.24741 0.36953 0.0
O26 O 0.55391 0.23994 0.41827 0.0
O27 O 0.5012 0.26752 0.40636 0.0
Co28 Co 0.51313 0.88752 0.75444 0.0
O29 O 0.50471 0.95134 0.75474 0.0
O30 O 0.56183 0.94125 0.738 0.0
C31 C 0.51854 0.88035 0.78228 0.0
O32 O 0.53205 0.82618 0.75126 0.0
Co33 Co 0.41874 0.78078 0.76996 0.0
O34 O 0.46954 0.75201 0.76565 0.0
C35 C 0.40301 0.81442 0.73682 0.0
C36 C 0.54106 0.97141 0.74293 0.0
C37 C 0.51288 0.77646 0.75668 0.0
O38 O 0.4536 0.8529 0.73716 0.0
O39 O 0.37869 0.78323 0.74935 0.0
O40 O 0.56189 0.91385 0.77373 0.0
O41 O 0.47265 0.85729 0.77406 0.0
Co42 Co 0.7833 0.30624 0.06895 0.0
O43 O 0.71106 0.29778 0.06867 0.0
O44 O 0.7879 0.3779 0.06692 0.0
C45 C 0.76801 0.25046 0.09089 0.0
O46 O 0.86536 0.32925 0.06936 0.0
Co47 Co 0.79372 0.20612 0.06051 0.0
O48 O 0.87132 0.25242 0.06754 0.0
C49 C 0.77715 0.26447 0.03313 0.0
C50 C 0.7342 0.35058 0.06714 0.0
C51 C 0.89356 0.30422 0.06953 0.0
O52 O 0.78102 0.29971 0.04402 0.0
O53 O 0.77772 0.22058 0.03709 0.0
O54 O 0.78264 0.30178 0.09298 0.0
O55 O 0.75722 0.23238 0.07565 0.0
Co56 Co 0.11646 0.61731 0.42269 0.0
O57 O 0.05324 0.54481 0.42376 0.0
O58 O 0.06001 0.61112 0.4072 0.0
C59 C 0.12919 0.63181 0.45033 0.0
O60 O 0.17666 0.69765 0.41883 0.0
Co61 Co 0.22681 0.63111 0.43632 0.0
O62 O 0.25334 0.7101 0.43196 0.0
C63 C 0.18708 0.57974 0.40374 0.0
C64 C 0.03111 0.56037 0.41234 0.0
C65 C 0.22718 0.7285 0.42358 0.0
O66 O 0.14892 0.59234 0.4047 0.0
O67 O 0.22017 0.58706 0.41577 0.0
O68 O 0.09265 0.63956 0.4427 0.0
O69 O 0.15105 0.60915 0.44147 0.0
Co70 Co 0.71005 0.45646 0.72742 0.0
O71 O 0.72104 0.39429 0.72622 0.0
O72 O 0.64285 0.39132 0.71989 0.0
C73 C 0.74617 0.48313 0.7531 0.0
O74 O 0.68488 0.51412 0.72802 0.0
Co75 Co 0.8132 0.57108 0.72842 0.0
O76 O 0.76017 0.596 0.73336 0.0
C77 C 0.77695 0.5158 0.69617 0.0
C78 C 0.67039 0.36534 0.72145 0.0
C79 C 0.70841 0.56619 0.73128 0.0
O80 O 0.73609 0.4759 0.70368 0.0
O81 O 0.81431 0.55815 0.70373 0.0
O82 O 0.69534 0.44516 0.751 0.0
O83 O 0.77584 0.50001 0.73961 0.0
Co84 Co 0.32353 0.77495 0.58779 0.0
O85 O 0.31461 0.70254 0.58731 0.0
O86 O 0.39314 0.77787 0.59299 0.0
C87 C 0.28068 0.7676 0.56344 0.0
O88 O 0.3469 0.85709 0.58867 0.0
Co89 Co 0.2199 0.78403 0.59153 0.0
O90 O 0.26982 0.86282 0.58661 0.0
C91 C 0.26255 0.75778 0.62112 0.0
C92 C 0.36619 0.72461 0.59109 0.0
C93 C 0.32207 0.8853 0.58712 0.0
O94 O 0.30333 0.76484 0.61205 0.0
O95 O 0.2217 0.76082 0.61525 0.0
O96 O 0.3323 0.78158 0.56398 0.0
O97 O 0.25444 0.7526 0.57758 0.0
Co98 Co 0.90223 0.51654 0.89685 0.0
O99 O 0.96457 0.50551 0.89588 0.0
O100 O 0.96042 0.56784 0.91172 0.0
C101 C 0.88852 0.51546 0.86913 0.0
O102 O 0.8432 0.53888 0.90035 0.0
Co103 Co 0.79044 0.42049 0.88406 0.0
O104 O 0.76576 0.47489 0.88758 0.0
C105 C 0.8317 0.41057 0.91668 0.0
C106 C 0.98834 0.54466 0.90673 0.0
C107 C 0.79278 0.52004 0.89555 0.0
O108 O 0.86987 0.46118 0.91548 0.0
O109 O 0.79838 0.38434 0.90477 0.0
O110 O 0.92567 0.56018 0.87632 0.0
O111 O 0.8663 0.47213 0.8785 0.0
Co112 Co 0.24053 0.53362 0.25268 0.0
O113 O 0.31292 0.59707 0.25297 0.0
O114 O 0.23621 0.60058 0.25548 0.0
C115 C 0.25458 0.49453 0.23022 0.0
O116 O 0.15838 0.47525 0.2524 0.0
Co117 Co 0.22945 0.42152 0.25972 0.0
O118 O 0.15155 0.39193 0.25319 0.0
C119 C 0.24879 0.4947 0.28783 0.0
C120 C 0.28988 0.62677 0.25497 0.0
C121 C 0.12972 0.42219 0.25183 0.0
O122 O 0.24402 0.52709 0.27751 0.0
O123 O 0.24781 0.45057 0.28323 0.0
O124 O 0.24023 0.53168 0.22861 0.0
O125 O 0.26575 0.48593 0.24528 0.0
Co126 Co 0.5337 0.4059 0.56334 0.0
O127 O 0.54435 0.47895 0.56148 0.0
O128 O 0.4873 0.41626 0.57937 0.0
C129 C 0.52558 0.38722 0.53576 0.0
O130 O 0.51183 0.32526 0.56814 0.0
Co131 Co 0.62333 0.38413 0.54806 0.0
O132 O 0.56918 0.3067 0.55335 0.0
C133 C 0.6446 0.44091 0.58032 0.0
C134 C 0.50852 0.46595 0.57335 0.0
C135 C 0.52761 0.29164 0.56289 0.0
O136 O 0.59529 0.43314 0.58024 0.0
O137 O 0.66511 0.42717 0.56822 0.0
O138 O 0.48352 0.38156 0.54423 0.0
O139 O 0.57184 0.40968 0.54374 0.0
Co140 Co 0.47996 0.72615 0.92427 0.0
O141 O 0.41707 0.73598 0.92604 0.0
O142 O 0.4132 0.65576 0.92854 0.0
C143 C 0.51202 0.77551 0.90062 0.0
O144 O 0.53815 0.70167 0.92243 0.0
Co145 Co 0.59417 0.8274 0.92775 0.0
O146 O 0.62086 0.77824 0.91991 0.0
C147 C 0.53102 0.77716 0.95813 0.0
C148 C 0.38724 0.68354 0.92831 0.0
C149 C 0.59077 0.72611 0.91989 0.0
O150 O 0.49326 0.73985 0.94897 0.0
O151 O 0.57481 0.8177 0.95216 0.0
O152 O 0.47455 0.72404 0.90026 0.0
O153 O 0.52558 0.79773 0.91532 0.0
Co154 Co 0.60627 0.11446 0.23156 0.0
O155 O 0.53354 0.05206 0.22951 0.0
O156 O 0.59479 0.05869 0.24816 0.0
C157 C 0.62702 0.12242 0.20419 0.0
O158 O 0.6866 0.17331 0.23653 0.0
Co159 Co 0.62904 0.22386 0.21519 0.0
O160 O 0.70658 0.24678 0.22035 0.0
C161 C 0.57113 0.19201 0.24737 0.0
C162 C 0.54569 0.02981 0.24176 0.0
C163 C 0.72101 0.22132 0.23054 0.0
O164 O 0.57743 0.14961 0.24764 0.0
O165 O 0.58666 0.22599 0.23515 0.0
O166 O 0.63297 0.08776 0.21347 0.0
O167 O 0.60312 0.14655 0.21123 0.0
H168 H 0.43756 0.74377 0.97631 0.0
H169 H 0.52926 0.6392 0.05226 0.0
H170 H 0.6092 0.7924 0.98117 0.0
H171 H 0.41882 0.70259 0.06007 0.0
H172 H 0.55561 0.68666 0.02515 0.0
H173 H 0.42452 0.72005 0.00615 0.0
C174 C 0.47259 0.75016 0.98375 0.0
C175 C 0.52453 0.77016 0.97638 0.0
C176 C 0.52632 0.69083 0.03296 0.0
C177 C 0.50958 0.74169 0.01016 0.0
C178 C 0.51115 0.66369 0.04834 0.0
C179 C 0.47189 0.66713 0.05836 0.0
C180 C 0.50064 0.71994 0.02738 0.0
C181 C 0.44951 0.69926 0.05274 0.0
C182 C 0.46519 0.73681 0.00071 0.0
C183 C 0.56864 0.7775 0.98648 0.0
N184 N 0.46334 0.72356 0.03743 0.0
N185 N 0.55994 0.76212 0.00284 0.0
H186 H 0.57879 0.31966 0.34346 0.0
H187 H 0.49411 0.11866 0.26909 0.0
H188 H 0.41106 0.18689 0.34005 0.0
H189 H 0.59815 0.29258 0.2602 0.0
H190 H 0.46579 0.13965 0.29585 0.0
H191 H 0.59074 0.30959 0.31352 0.0
C192 C 0.54416 0.28924 0.33628 0.0
C193 C 0.49379 0.25426 0.34411 0.0
C194 C 0.49407 0.17314 0.28787 0.0
C195 C 0.50776 0.24117 0.31021 0.0
C196 C 0.51043 0.16124 0.27269 0.0
C197 C 0.54857 0.20398 0.26247 0.0
C198 C 0.51738 0.22804 0.29308 0.0
C199 C 0.56846 0.25845 0.26769 0.0
C200 C 0.55098 0.2835 0.31926 0.0
C201 C 0.45031 0.215 0.33437 0.0
N202 N 0.55352 0.26896 0.28282 0.0
N203 N 0.45865 0.2086 0.31796 0.0
H204 H 0.45045 0.84073 0.70624 0.0
H205 H 0.20876 0.77548 0.64737 0.0
H206 H 0.29098 0.76089 0.73021 0.0
H207 H 0.32743 0.72431 0.63626 0.0
H208 H 0.23463 0.78268 0.67715 0.0
H209 H 0.40542 0.81676 0.67916 0.0
C210 C 0.40586 0.81864 0.70584 0.0
C211 C 0.37441 0.80269 0.72054 0.0
C212 C 0.25376 0.76867 0.66813 0.0
C213 C 0.32277 0.77529 0.68944 0.0
C214 C 0.23911 0.7645 0.6512 0.0
C215 C 0.26696 0.75057 0.63926 0.0
C216 C 0.29674 0.7595 0.67287 0.0
C217 C 0.30586 0.73661 0.64492 0.0
C218 C 0.38029 0.80462 0.69036 0.0
C219 C 0.31665 0.77368 0.71915 0.0
N220 N 0.32041 0.7426 0.66123 0.0
N221 N 0.29237 0.76109 0.70376 0.0
H222 H 0.77575 0.35432 0.02089 0.0
H223 H 0.77538 0.29961 0.92413 0.0
H224 H 0.77729 0.20807 0.00467 0.0
H225 H 0.86816 0.46008 0.94683 0.0
H226 H 0.75728 0.25792 0.95224 0.0
H227 H 0.78698 0.38517 0.99212 0.0
C228 C 0.77799 0.32827 0.0113 0.0
C229 C 0.77651 0.27878 0.01532 0.0
C230 C 0.78185 0.30217 0.95091 0.0
C231 C 0.78922 0.31438 0.98217 0.0
C232 C 0.79212 0.32598 0.93496 0.0
C233 C 0.82327 0.38344 0.93314 0.0
C234 C 0.80173 0.33632 0.96499 0.0
C235 C 0.84411 0.41567 0.94757 0.0
C236 C 0.78463 0.3462 -0.00515 0.0
C237 C 0.77878 0.24672 0.00216 0.0
N238 N 0.83242 0.39171 0.96286 0.0
N239 N 0.78528 0.26522 0.98609 0.0
H240 H 0.24753 0.43364 0.31529 0.0
H241 H 0.14507 0.58657 0.37382 0.0
H242 H 0.2531 0.58546 0.3015 0.0
H243 H 0.24934 0.53099 0.39617 0.0
H244 H 0.16615 0.56495 0.3464 0.0
H245 H 0.23533 0.45159 0.34471 0.0
C246 C 0.24698 0.47092 0.31841 0.0
C247 C 0.25032 0.50756 0.30583 0.0
C248 C 0.18421 0.55727 0.35733 0.0
C249 C 0.23548 0.52728 0.33908 0.0
C250 C 0.17195 0.56921 0.37302 0.0
C251 C 0.19585 0.56102 0.38736 0.0
C252 C 0.21994 0.53614 0.35585 0.0
C253 C 0.23043 0.53835 0.38541 0.0
C254 C 0.24004 0.48099 0.33514 0.0
C255 C 0.24969 0.5554 0.31063 0.0
N256 N 0.2415 0.5265 0.36986 0.0
N257 N 0.2414 0.56331 0.3268 0.0
H258 H 0.76145 0.43036 0.67652 0.0
H259 H 0.64238 0.51371 0.60257 0.0
H260 H 0.78847 0.59559 0.67441 0.0
H261 H 0.72092 0.41749 0.59312 0.0
H262 H 0.68999 0.54152 0.62959 0.0
H263 H 0.74209 0.42084 0.64642 0.0
C264 C 0.76456 0.46502 0.66959 0.0
C265 C 0.77688 0.51392 0.67781 0.0
C266 C 0.69745 0.51511 0.62144 0.0
C267 C 0.75276 0.50263 0.64375 0.0
C268 C 0.67013 0.499 0.60611 0.0
C269 C 0.67766 0.46314 0.59566 0.0
C270 C 0.73106 0.49381 0.62652 0.0
C271 C 0.71415 0.44534 0.6008 0.0
C272 C 0.75351 0.4596 0.65248 0.0
C273 C 0.77972 0.5575 0.66841 0.0
N274 N 0.73866 0.45993 0.61605 0.0
N275 N 0.7664 0.55041 0.65189 0.0
H276 H 0.19389 0.43963 0.2032 0.0
H277 H 0.43986 0.58246 0.14304 0.0
H278 H 0.35831 0.51717 0.22332 0.0
H279 H 0.31102 0.41867 0.13057 0.0
H280 H 0.40623 0.56701 0.17203 0.0
H281 H 0.23074 0.43544 0.17568 0.0
C282 C 0.2375 0.45406 0.20188 0.0
C283 C 0.27324 0.47792 0.21543 0.0
C284 C 0.38577 0.53441 0.16292 0.0
C285 C 0.31556 0.47613 0.18416 0.0
C286 C 0.4045 0.54337 0.14644 0.0
C287 C 0.378 0.50175 0.13453 0.0
C288 C 0.33934 0.48422 0.16729 0.0
C289 C 0.33256 0.45163 0.13948 0.0
C290 C 0.25844 0.45198 0.18625 0.0
C291 C 0.32957 0.49754 0.21315 0.0
N292 N 0.31396 0.44449 0.15549 0.0
N293 N 0.34935 0.49747 0.19764 0.0
H294 H 0.46426 0.31131 0.4297 0.0
H295 H 0.59523 0.36202 0.51938 0.0
H296 H 0.54033 0.22149 0.44912 0.0
H297 H 0.44328 0.36412 0.51318 0.0
H298 H 0.5843 0.32411 0.49129 0.0
H299 H 0.46079 0.34164 0.45844 0.0
C300 C 0.47922 0.29721 0.43998 0.0
C301 C 0.50341 0.26459 0.43701 0.0
C302 C 0.55328 0.3328 0.49609 0.0
C303 C 0.50079 0.29986 0.46946 0.0
C304 C 0.55967 0.3547 0.51208 0.0
C305 C 0.51998 0.36592 0.51861 0.0
C306 C 0.50751 0.32312 0.48641 0.0
C307 C 0.47461 0.35562 0.50857 0.0
C308 C 0.47742 0.31463 0.4563 0.0
C309 C 0.52221 0.24742 0.45076 0.0
N310 N 0.46973 0.33513 0.49284 0.0
N311 N 0.52138 0.266 0.4663 0.0
H312 H 0.61044 0.90764 0.80088 0.0
H313 H 0.44152 0.80143 0.88627 0.0
H314 H 0.43386 0.83291 0.80464 0.0
H315 H 0.60201 0.81852 0.88006 0.0
H316 H 0.44612 0.83437 0.85767 0.0
H317 H 0.61466 0.89307 0.83097 0.0
C318 C 0.5726 0.88828 0.80805 0.0
C319 C 0.52164 0.87118 0.80029 0.0
C320 C 0.4808 0.83187 0.86262 0.0
C321 C 0.52638 0.85539 0.8346 0.0
C322 C 0.47844 0.81377 0.87895 0.0
C323 C 0.52175 0.80808 0.88541 0.0
C324 C 0.52667 0.8439 0.85265 0.0
C325 C 0.56827 0.8233 0.87547 0.0
C326 C 0.5751 0.88006 0.82518 0.0
C327 C 0.47391 0.84636 0.81012 0.0
N328 N 0.56943 0.84025 0.85944 0.0
N329 N 0.47747 0.83937 0.82678 0.0
H330 H 0.66328 0.17036 0.09718 0.0
H331 H 0.71516 0.1189 0.19144 0.0
H332 H 0.82681 0.25229 0.11801 0.0
H333 H 0.58504 0.15122 0.17774 0.0
H334 H 0.74933 0.13853 0.16251 0.0
H335 H 0.62626 0.13076 0.12485 0.0
C336 C 0.69146 0.17801 0.10744 0.0
C337 C 0.74806 0.21388 0.10543 0.0
C338 C 0.71305 0.14077 0.16588 0.0
C339 C 0.70639 0.16963 0.1368 0.0
C340 C 0.69361 0.12971 0.18229 0.0
C341 C 0.64754 0.13392 0.18689 0.0
C342 C 0.68509 0.15436 0.15396 0.0
C343 C 0.62103 0.14812 0.17465 0.0
C344 C 0.67035 0.15617 0.12319 0.0
C345 C 0.78296 0.22418 0.11914 0.0
N346 N 0.64 0.15752 0.15866 0.0
N347 N 0.76155 0.20217 0.13433 0.0
H348 H 0.16924 0.71158 0.55629 0.0
H349 H 0.2255 0.65304 0.46488 0.0
H350 H 0.32985 0.79949 0.53327 0.0
H351 H 0.07644 0.65818 0.4743 0.0
H352 H 0.2592 0.69226 0.49248 0.0
H353 H 0.12836 0.68064 0.52828 0.0
C354 C 0.19567 0.72519 0.54538 0.0
C355 C 0.25304 0.75731 0.54708 0.0
C356 C 0.2191 0.68482 0.48849 0.0
C357 C 0.20715 0.72136 0.51549 0.0
C358 C 0.19973 0.66214 0.4728 0.0
C359 C 0.14831 0.6527 0.46731 0.0
C360 C 0.18637 0.69704 0.49891 0.0
C361 C 0.11655 0.66526 0.47811 0.0
C362 C 0.17242 0.70744 0.52949 0.0
C363 C 0.28551 0.77392 0.53257 0.0
N364 N 0.13592 0.68652 0.49354 0.0
N365 N 0.26224 0.75494 0.51744 0.0
H366 H 0.94127 0.59299 0.84475 0.0
H367 H 0.68898 0.4505 0.78205 0.0
H368 H 0.79464 0.43731 0.85421 0.0
H369 H 0.85455 0.54825 0.76307 0.0
H370 H 0.72536 0.46252 0.81023 0.0
H371 H 0.90863 0.59167 0.81608 0.0
C372 C 0.90226 0.55864 0.8408 0.0
C373 C 0.87049 0.51514 0.85182 0.0
C374 C 0.75378 0.48158 0.79992 0.0
C375 C 0.83295 0.51404 0.81943 0.0
C376 C 0.73311 0.475 0.78381 0.0
C377 C 0.76892 0.49775 0.77015 0.0
C378 C 0.81073 0.51158 0.80252 0.0
C379 C 0.82563 0.52971 0.77327 0.0
C380 C 0.88389 0.55793 0.82449 0.0
C381 C 0.82045 0.47158 0.84612 0.0
N382 N 0.84501 0.53553 0.78922 0.0
N383 N 0.80304 0.47236 0.83036 0.0
H384 H 0.96686 0.26704 0.06618 0.0
H385 H 0.22768 0.54897 0.09503 0.0
H386 H 0.95976 0.4137 0.0778 0.0
H387 H 0.24089 0.41131 0.07665 0.0
H388 H 0.12981 0.49945 0.0889 0.0
H389 H 0.06631 0.31822 0.07014 0.0
C390 C 0.98608 0.31006 0.06958 0.0
C391 C 0.95443 0.33593 0.07174 0.0
C392 C 0.15394 0.47998 0.08612 0.0
C393 C 0.06914 0.39495 0.07629 0.0
C394 C 0.21009 0.5082 0.08967 0.0
C395 C 0.24291 0.4842 0.08647 0.0
C396 C 0.12963 0.42686 0.0794 0.0
C397 C 0.21738 0.43148 0.07934 0.0
C398 C 0.0431 0.3393 0.07178 0.0
C399 C 0.98217 0.3919 0.07603 0.0
N400 N 0.16216 0.4044 0.07615 0.0
N401 N 0.0378 0.41938 0.07824 0.0
H402 H 0.32557 0.06177 0.39322 0.0
H403 H 0.33687 0.80125 0.42819 0.0
H404 H 0.47742 0.06656 0.40622 0.0
H405 H 0.1893 0.79151 0.40797 0.0
H406 H 0.38847 0.89785 0.4204 0.0
H407 H 0.27558 0.96312 0.39833 0.0
C408 C 0.34859 0.04203 0.39709 0.0
C409 C 0.40595 0.07282 0.39943 0.0
C410 C 0.34487 0.87467 0.41761 0.0
C411 C 0.34827 0.95905 0.40544 0.0
C412 C 0.31505 0.8193 0.42213 0.0
C413 C 0.2582 0.78777 0.41883 0.0
C414 C 0.31794 0.89941 0.40978 0.0
C415 C 0.23285 0.81393 0.41082 0.0
C416 C 0.31983 0.98549 0.39998 0.0
C417 C 0.43332 0.04459 0.40426 0.0
N418 N 0.26283 0.86824 0.40665 0.0
N419 N 0.40414 0.98936 0.40727 0.0
H420 H 0.74413 0.67429 0.72549 0.0
H421 H 0.47639 0.66726 0.76244 0.0
H422 H 0.59915 0.52381 0.74032 0.0
H423 H 0.61139 0.8118 0.74002 0.0
H424 H 0.52035 0.61438 0.75462 0.0
H425 H 0.69555 0.72455 0.73051 0.0
C426 C 0.7018 0.65163 0.72973 0.0
C427 C 0.67583 0.59463 0.73262 0.0
C428 C 0.54032 0.65759 0.75136 0.0
C429 C 0.61981 0.6526 0.73855 0.0
C430 C 0.5154 0.68812 0.75589 0.0
C431 C 0.54028 0.7445 0.75198 0.0
C432 C 0.5909 0.68339 0.74292 0.0
C433 C 0.59065 0.76866 0.74336 0.0
C434 C 0.67405 0.68052 0.73257 0.0
C435 C 0.62075 0.56763 0.73792 0.0
N436 N 0.61436 0.73805 0.7392 0.0
N437 N 0.59473 0.59698 0.74089 0.0
H438 H 0.56442 0.21836 0.56048 0.0
H439 H 0.28427 0.95783 0.59055 0.0
H440 H 0.42451 0.23032 0.5775 0.0
H441 H 0.43285 0.95249 0.58034 0.0
H442 H 0.33465 0.05704 0.58625 0.0
H443 H 0.51677 0.12157 0.56794 0.0
C444 C 0.52353 0.20073 0.5658 0.0
C445 C 0.49835 0.23289 0.56821 0.0
C446 C 0.35639 0.03434 0.58505 0.0
C447 C 0.44321 0.12082 0.57687 0.0
C448 C 0.32764 0.97746 0.58746 0.0
C449 C 0.3542 0.94634 0.58569 0.0
C450 C 0.41226 0.06076 0.58068 0.0
C451 C 0.41057 0.97455 0.58183 0.0
C452 C 0.49641 0.14521 0.57014 0.0
C453 C 0.44555 0.20733 0.57537 0.0
N454 N 0.43755 0.03002 0.57932 0.0
N455 N 0.41957 0.1527 0.57932 0.0
H456 H 0.70103 0.76346 0.92208 0.0
H457 H 0.68326 0.48479 0.8911 0.0
H458 H 0.54691 0.61585 0.91182 0.0
H459 H 0.83304 0.62349 0.90954 0.0
H460 H 0.6335 0.53278 0.89777 0.0
H461 H 0.74973 0.71354 0.91687 0.0
C462 C 0.67719 0.72041 0.91872 0.0
C463 C 0.61945 0.694 0.91729 0.0
C464 C 0.67718 0.55276 0.9004 0.0
C465 C 0.67585 0.63629 0.91124 0.0
C466 C 0.70596 0.52547 0.89654 0.0
C467 C 0.76288 0.55009 0.89969 0.0
C468 C 0.70522 0.6055 0.90741 0.0
C469 C 0.78939 0.60278 0.90685 0.0
C470 C 0.70529 0.69187 0.91579 0.0
C471 C 0.59128 0.63798 0.91306 0.0
N472 N 0.7604 0.62876 0.91039 0.0
N473 N 0.61979 0.6111 0.91008 0.0
H474 H 0.06461 0.46757 0.24431 0.0
H475 H 0.78065 0.17839 0.24553 0.0
H476 H 0.05538 0.31216 0.2549 0.0
H477 H 0.79645 0.33017 0.22691 0.0
H478 H 0.87975 0.22779 0.25186 0.0
H479 H 0.9645 0.41885 0.24056 0.0
C480 C 0.04168 0.42334 0.2459 0.0
C481 C 0.0688 0.3941 0.24982 0.0
C482 C 0.8613 0.25017 0.24643 0.0
C483 C 0.95392 0.3379 0.24562 0.0
C484 C 0.80471 0.222 0.24288 0.0
C485 C 0.78004 0.24989 0.23555 0.0
C486 C 0.8933 0.30671 0.24277 0.0
C487 C 0.81349 0.30658 0.23238 0.0
C488 C 0.98445 0.39546 0.24373 0.0
C489 C 0.03657 0.33662 0.25175 0.0
N490 N 0.86811 0.33291 0.23598 0.0
N491 N 0.98105 0.31052 0.24962 0.0
H492 H 0.62599 0.30055 0.05882 0.0
H493 H 0.58786 0.55272 0.08481 0.0
H494 H 0.76264 0.45912 0.07214 0.0
H495 H 0.45916 0.4057 0.06175 0.0
H496 H 0.65321 0.5213 0.07907 0.0
H497 H 0.56558 0.33974 0.0587 0.0
C498 C 0.64344 0.34386 0.06165 0.0
C499 C 0.69947 0.37654 0.06567 0.0
C500 C 0.6109 0.49613 0.07507 0.0
C501 C 0.62997 0.42174 0.06564 0.0
C502 C 0.57342 0.51396 0.07836 0.0
C503 C 0.51777 0.4815 0.07387 0.0
C504 C 0.5926 0.44495 0.06741 0.0
C505 C 0.50159 0.43195 0.06544 0.0
C506 C 0.6088 0.36623 0.0615 0.0
C507 C 0.71974 0.43245 0.06902 0.0
N508 N 0.53871 0.41484 0.06268 0.0
N509 N 0.68481 0.45316 0.06914 0.0
H510 H 0.71752 0.26669 0.39381 0.0
H511 H 0.9623 0.58157 0.39299 0.0
H512 H 0.69428 0.40407 0.38238 0.0
H513 H 0.97424 0.44918 0.41638 0.0
H514 H 0.86865 0.51478 0.38377 0.0
H515 H 0.81699 0.33082 0.39648 0.0
C516 C 0.73348 0.3101 0.39149 0.0
C517 C 0.69766 0.33018 0.38802 0.0
C518 C 0.89203 0.5004 0.39082 0.0
C519 C 0.81086 0.40365 0.39117 0.0
C520 C 0.94544 0.5385 0.39607 0.0
C521 C 0.97586 0.52106 0.40564 0.0
C522 C 0.86921 0.44445 0.39504 0.0
C523 C 0.95204 0.46463 0.40921 0.0
C524 C 0.79011 0.34675 0.39315 0.0
C525 C 0.72044 0.38692 0.38526 0.0
N526 N 0.90019 0.42846 0.40397 0.0
N527 N 0.77542 0.42165 0.387 0.0
H528 H 0.56144 0.28465 0.72381 0.0
H529 H 0.63278 0.04023 0.7242 0.0
H530 H 0.72401 0.30909 0.71499 0.0
H531 H 0.48506 0.0271 0.74537 0.0
H532 H 0.66043 0.13422 0.71497 0.0
H533 H 0.52606 0.18507 0.72562 0.0
C534 C 0.5894 0.26899 0.72189 0.0
C535 C 0.64577 0.30514 0.71942 0.0
C536 C 0.62171 0.11044 0.7215 0.0
C537 C 0.60592 0.1917 0.72159 0.0
C538 C 0.60594 0.05684 0.72673 0.0
C539 C 0.55696 0.02611 0.73575 0.0
C540 C 0.5879 0.13305 0.72516 0.0
C541 C 0.52359 0.0496 0.73865 0.0
C542 C 0.56935 0.21225 0.72305 0.0
C543 C 0.68031 0.28266 0.71711 0.0
N544 N 0.53974 0.10159 0.73346 0.0
N545 N 0.65997 0.22754 0.71837 0.0
H546 H 0.31466 0.61555 0.59822 0.0
H547 H 0.5625 0.57656 0.56783 0.0
H548 H 0.47491 0.75286 0.5867 0.0
H549 H 0.4181 0.44735 0.59199 0.0
H550 H 0.53245 0.64197 0.57517 0.0
H551 H 0.35262 0.55406 0.59678 0.0
C552 C 0.35812 0.63289 0.59556 0.0
C553 C 0.39165 0.68943 0.59246 0.0
C554 C 0.50757 0.59949 0.57904 0.0
C555 C 0.43532 0.6188 0.59054 0.0
C556 C 0.52456 0.56196 0.57479 0.0
C557 C 0.49249 0.5062 0.57919 0.0
C558 C 0.4576 0.58114 0.58754 0.0
C559 C 0.44401 0.48986 0.58832 0.0
C560 C 0.37977 0.59766 0.59477 0.0
C561 C 0.44767 0.70959 0.58918 0.0
N562 N 0.4277 0.52703 0.59201 0.0
N563 N 0.46761 0.67415 0.58806 0.0
H564 H 0.32893 0.73374 0.93653 0.0
H565 H 0.04495 0.48999 0.90231 0.0
H566 H 0.3073 0.57632 0.9218 0.0
H567 H 0.06007 0.63656 0.92485 0.0
H568 H 0.13938 0.51908 0.9105 0.0
H569 H 0.22999 0.69711 0.93385 0.0
C570 C 0.30318 0.6911 0.93294 0.0
C571 C 0.32651 0.65808 0.92928 0.0
C572 C 0.12207 0.54475 0.91379 0.0
C573 C 0.21277 0.61601 0.92593 0.0
C574 C 0.06808 0.5283 0.90907 0.0
C575 C 0.04458 0.56116 0.91278 0.0
C576 C 0.15341 0.59487 0.92218 0.0
C577 C 0.07652 0.61006 0.92168 0.0
C578 C 0.24658 0.67024 0.9314 0.0
C579 C 0.29107 0.60315 0.92476 0.0
N580 N 0.12948 0.6257 0.92593 0.0
N581 N 0.23603 0.58404 0.92299 0.0
H582 H 0.39847 0.68484 0.26291 0.0
H583 H 0.43536 0.97377 0.23592 0.0
H584 H 0.26096 0.70669 0.25018 0.0
H585 H 0.56404 0.95678 0.25987 0.0
H586 H 0.37036 0.87726 0.24191 0.0
H587 H 0.45872 0.78431 0.26272 0.0
C588 C 0.3808 0.71066 0.26017 0.0
C589 C 0.32457 0.68734 0.2564 0.0
C590 C 0.41259 0.89465 0.24604 0.0
C591 C 0.39386 0.80182 0.25603 0.0
C592 C 0.44987 0.94981 0.2426 0.0
C593 C 0.50541 0.9733 0.24729 0.0
C594 C 0.431 0.86222 0.25403 0.0
C595 C 0.52168 0.94036 0.25602 0.0
C596 C 0.41534 0.76758 0.26013 0.0
C597 C 0.30402 0.7229 0.25312 0.0
N598 N 0.48479 0.88627 0.25891 0.0
N599 N 0.33883 0.7784 0.25279 0.0
loop_
_geom_bond_atom_site_label_1
_geom_bond_atom_site_label_2
_geom_bond_distance
_geom_bond_site_symmetry_2
_ccdc_geom_bond_type
Co0 O1 2.216 . S
Co0 O2 2.091 . S
Co0 O4 2.004 . S
Co0 O10 2.021 . S
Co0 O12 2.137 . S
Co0 O13 2.244 . S
O1 Co0 2.216 . S
O1 C8 1.247 . S
O2 Co0 2.091 . S
O2 C8 1.261 . S
C3 O12 1.247 . S
C3 O13 1.272 . S
O4 Co0 2.004 . S
O4 C9 1.259 . S
Co5 O6 2.061 . S
Co5 O11 2.052 . S
Co5 O13 2.135 . S
O6 Co5 2.061 . S
O6 C9 1.235 . S
C7 O10 1.238 . S
C7 O11 1.241 . S
C8 O1 1.247 . S
C8 O2 1.261 . S
C9 O4 1.259 . S
C9 O6 1.235 . S
O10 Co0 2.021 . S
O10 C7 1.238 . S
O11 Co5 2.052 . S
O11 C7 1.241 . S
O12 Co0 2.137 . S
O12 C3 1.247 . S
O13 Co0 2.244 . S
O13 C3 1.272 . S
O13 Co5 2.135 . S
Co14 O15 2.216 . S
Co14 O16 2.091 . S
Co14 O18 2.004 . S
Co14 O24 2.021 . S
Co14 O26 2.137 . S
Co14 O27 2.244 . S
O15 Co14 2.216 . S
O15 C22 1.247 . S
O16 Co14 2.091 . S
O16 C22 1.261 . S
C17 O26 1.247 . S
C17 O27 1.272 . S
O18 Co14 2.004 . S
O18 C23 1.259 . S
Co19 O20 2.061 . S
Co19 O25 2.052 . S
Co19 O27 2.135 . S
O20 Co19 2.061 . S
O20 C23 1.235 . S
C21 O24 1.238 . S
C21 O25 1.241 . S
C22 O15 1.247 . S
C22 O16 1.261 . S
C23 O18 1.259 . S
C23 O20 1.235 . S
O24 Co14 2.021 . S
O24 C21 1.238 . S
O25 Co19 2.052 . S
O25 C21 1.241 . S
O26 Co14 2.137 . S
O26 C17 1.247 . S
O27 Co14 2.244 . S
O27 C17 1.272 . S
O27 Co19 2.135 . S
Co28 O29 2.216 . S
Co28 O30 2.091 . S
Co28 O32 2.004 . S
Co28 O38 2.021 . S
Co28 O40 2.137 . S
Co28 O41 2.244 . S
O29 Co28 2.216 . S
O29 C36 1.247 . S
O30 Co28 2.091 . S
O30 C36 1.261 . S
C31 O40 1.247 . S
C31 O41 1.272 . S
O32 Co28 2.004 . S
O32 C37 1.259 . S
Co33 O34 2.061 . S
Co33 O39 2.052 . S
Co33 O41 2.135 . S
O34 Co33 2.061 . S
O34 C37 1.235 . S
C35 O38 1.238 . S
C35 O39 1.241 . S
C36 O29 1.247 . S
C36 O30 1.261 . S
C37 O32 1.259 . S
C37 O34 1.235 . S
O38 Co28 2.021 . S
O38 C35 1.238 . S
O39 Co33 2.052 . S
O39 C35 1.241 . S
O40 Co28 2.137 . S
O40 C31 1.247 . S
O41 Co28 2.244 . S
O41 C31 1.272 . S
O41 Co33 2.135 . S
Co42 O43 2.216 . S
Co42 O44 2.091 . S
Co42 O46 2.004 . S
Co42 O52 2.021 . S
Co42 O54 2.137 . S
Co42 O55 2.244 . S
O43 Co42 2.216 . S
O43 C50 1.247 . S
O44 Co42 2.091 . S
O44 C50 1.261 . S
C45 O54 1.247 . S
C45 O55 1.272 . S
O46 Co42 2.004 . S
O46 C51 1.259 . S
Co47 O48 2.061 . S
Co47 O53 2.052 . S
Co47 O55 2.135 . S
O48 Co47 2.061 . S
O48 C51 1.235 . S
C49 O52 1.238 . S
C49 O53 1.241 . S
C50 O43 1.247 . S
C50 O44 1.261 . S
C51 O46 1.259 . S
C51 O48 1.235 . S
O52 Co42 2.021 . S
O52 C49 1.238 . S
O53 Co47 2.052 . S
O53 C49 1.241 . S
O54 Co42 2.137 . S
O54 C45 1.247 . S
O55 Co42 2.244 . S
O55 C45 1.272 . S
O55 Co47 2.135 . S
Co56 O57 2.216 . S
Co56 O58 2.091 . S
Co56 O60 2.004 . S
Co56 O66 2.021 . S
Co56 O68 2.137 . S
Co56 O69 2.244 . S
O57 Co56 2.216 . S
O57 C64 1.247 . S
O58 Co56 2.091 . S
O58 C64 1.261 . S
C59 O68 1.247 . S
C59 O69 1.272 . S
O60 Co56 2.004 . S
O60 C65 1.259 . S
Co61 O62 2.061 . S
Co61 O67 2.052 . S
Co61 O69 2.135 . S
O62 Co61 2.061 . S
O62 C65 1.235 . S
C63 O66 1.238 . S
C63 O67 1.241 . S
C64 O57 1.247 . S
C64 O58 1.261 . S
C65 O60 1.259 . S
C65 O62 1.235 . S
O66 Co56 2.021 . S
O66 C63 1.238 . S
O67 Co61 2.052 . S
O67 C63 1.241 . S
O68 Co56 2.137 . S
O68 C59 1.247 . S
O69 Co56 2.244 . S
O69 C59 1.272 . S
O69 Co61 2.135 . S
Co70 O71 2.216 . S
Co70 O72 2.091 . S
Co70 O74 2.004 . S
Co70 O80 2.021 . S
Co70 O82 2.137 . S
Co70 O83 2.244 . S
O71 Co70 2.216 . S
O71 C78 1.247 . S
O72 Co70 2.091 . S
O72 C78 1.261 . S
C73 O82 1.247 . S
C73 O83 1.272 . S
O74 Co70 2.004 . S
O74 C79 1.259 . S
Co75 O76 2.061 . S
Co75 O81 2.052 . S
Co75 O83 2.135 . S
O76 Co75 2.061 . S
O76 C79 1.235 . S
C77 O80 1.238 . S
C77 O81 1.241 . S
C78 O71 1.247 . S
C78 O72 1.261 . S
C79 O74 1.259 . S
C79 O76 1.235 . S
O80 Co70 2.021 . S
O80 C77 1.238 . S
O81 Co75 2.052 . S
O81 C77 1.241 . S
O82 Co70 2.137 . S
O82 C73 1.247 . S
O83 Co70 2.244 . S
O83 C73 1.272 . S
O83 Co75 2.135 . S
Co84 O85 2.216 . S
Co84 O86 2.091 . S
Co84 O88 2.004 . S
Co84 O94 2.021 . S
Co84 O96 2.137 . S
Co84 O97 2.244 . S
O85 Co84 2.216 . S
O85 C92 1.247 . S
O86 Co84 2.091 . S
O86 C92 1.261 . S
C87 O96 1.247 . S
C87 O97 1.272 . S
O88 Co84 2.004 . S
O88 C93 1.259 . S
Co89 O90 2.061 . S
Co89 O95 2.052 . S
Co89 O97 2.135 . S
O90 Co89 2.061 . S
O90 C93 1.235 . S
C91 O94 1.238 . S
C91 O95 1.241 . S
C92 O85 1.247 . S
C92 O86 1.261 . S
C93 O88 1.259 . S
C93 O90 1.235 . S
O94 Co84 2.021 . S
O94 C91 1.238 . S
O95 Co89 2.052 . S
O95 C91 1.241 . S
O96 Co84 2.137 . S
O96 C87 1.247 . S
O97 Co84 2.244 . S
O97 C87 1.272 . S
O97 Co89 2.135 . S
Co98 O99 2.216 . S
Co98 O100 2.091 . S
Co98 O102 2.004 . S
Co98 O108 2.021 . S
Co98 O110 2.137 . S
Co98 O111 2.244 . S
O99 Co98 2.216 . S
O99 C106 1.247 . S
O100 Co98 2.091 . S
O100 C106 1.261 . S
C101 O110 1.247 . S
C101 O111 1.272 . S
O102 Co98 2.004 . S
O102 C107 1.259 . S
Co103 O104 2.061 . S
Co103 O109 2.052 . S
Co103 O111 2.135 . S
O104 Co103 2.061 . S
O104 C107 1.235 . S
C105 O108 1.238 . S
C105 O109 1.241 . S
C106 O99 1.247 . S
C106 O100 1.261 . S
C107 O102 1.259 . S
C107 O104 1.235 . S
O108 Co98 2.021 . S
O108 C105 1.238 . S
O109 Co103 2.052 . S
O109 C105 1.241 . S
O110 Co98 2.137 . S
O110 C101 1.247 . S
O111 Co98 2.244 . S
O111 C101 1.272 . S
O111 Co103 2.135 . S
Co112 O113 2.216 . S
Co112 O114 2.091 . S
Co112 O116 2.004 . S
Co112 O122 2.021 . S
Co112 O124 2.137 . S
Co112 O125 2.244 . S
O113 Co112 2.216 . S
O113 C120 1.247 . S
O114 Co112 2.091 . S
O114 C120 1.261 . S
C115 O124 1.247 . S
C115 O125 1.272 . S
O116 Co112 2.004 . S
O116 C121 1.259 . S
Co117 O118 2.061 . S
Co117 O123 2.052 . S
Co117 O125 2.135 . S
O118 Co117 2.061 . S
O118 C121 1.235 . S
C119 O122 1.238 . S
C119 O123 1.241 . S
C120 O113 1.247 . S
C120 O114 1.261 . S
C121 O116 1.259 . S
C121 O118 1.235 . S
O122 Co112 2.021 . S
O122 C119 1.238 . S
O123 Co117 2.052 . S
O123 C119 1.241 . S
O124 Co112 2.137 . S
O124 C115 1.247 . S
O125 Co112 2.244 . S
O125 C115 1.272 . S
O125 Co117 2.135 . S
Co126 O127 2.216 . S
Co126 O128 2.091 . S
Co126 O130 2.004 . S
Co126 O136 2.021 . S
Co126 O138 2.137 . S
Co126 O139 2.244 . S
O127 Co126 2.216 . S
O127 C134 1.247 . S
O128 Co126 2.091 . S
O128 C134 1.261 . S
C129 O138 1.247 . S
C129 O139 1.272 . S
O130 Co126 2.004 . S
O130 C135 1.259 . S
Co131 O132 2.061 . S
Co131 O137 2.052 . S
Co131 O139 2.135 . S
O132 Co131 2.061 . S
O132 C135 1.235 . S
C133 O136 1.238 . S
C133 O137 1.241 . S
C134 O127 1.247 . S
C134 O128 1.261 . S
C135 O130 1.259 . S
C135 O132 1.235 . S
O136 Co126 2.021 . S
O136 C133 1.238 . S
O137 Co131 2.052 . S
O137 C133 1.241 . S
O138 Co126 2.137 . S
O138 C129 1.247 . S
O139 Co126 2.244 . S
O139 C129 1.272 . S
O139 Co131 2.135 . S
Co140 O141 2.216 . S
Co140 O142 2.091 . S
Co140 O144 2.004 . S
Co140 O150 2.021 . S
Co140 O152 2.137 . S
Co140 O153 2.244 . S
O141 Co140 2.216 . S
O141 C148 1.247 . S
O142 Co140 2.091 . S
O142 C148 1.261 . S
C143 O152 1.247 . S
C143 O153 1.272 . S
O144 Co140 2.004 . S
O144 C149 1.259 . S
Co145 O146 2.061 . S
Co145 O151 2.052 . S
Co145 O153 2.135 . S
O146 Co145 2.061 . S
O146 C149 1.235 . S
C147 O150 1.238 . S
C147 O151 1.241 . S
C148 O141 1.247 . S
C148 O142 1.261 . S
C149 O144 1.259 . S
C149 O146 1.235 . S
O150 Co140 2.021 . S
O150 C147 1.238 . S
O151 Co145 2.052 . S
O151 C147 1.241 . S
O152 Co140 2.137 . S
O152 C143 1.247 . S
O153 Co140 2.244 . S
O153 C143 1.272 . S
O153 Co145 2.135 . S
Co154 O155 2.216 . S
Co154 O156 2.091 . S
Co154 O158 2.004 . S
Co154 O164 2.021 . S
Co154 O166 2.137 . S
Co154 O167 2.244 . S
O155 Co154 2.216 . S
O155 C162 1.247 . S
O156 Co154 2.091 . S
O156 C162 1.261 . S
C157 O166 1.247 . S
C157 O167 1.272 . S
O158 Co154 2.004 . S
O158 C163 1.259 . S
Co159 O160 2.061 . S
Co159 O165 2.052 . S
Co159 O167 2.135 . S
O160 Co159 2.061 . S
O160 C163 1.235 . S
C161 O164 1.238 . S
C161 O165 1.241 . S
C162 O155 1.247 . S
C162 O156 1.261 . S
C163 O158 1.259 . S
C163 O160 1.235 . S
O164 Co154 2.021 . S
O164 C161 1.238 . S
O165 Co159 2.052 . S
O165 C161 1.241 . S
O166 Co154 2.137 . S
O166 C157 1.247 . S
O167 Co154 2.244 . S
O167 C157 1.272 . S
O167 Co159 2.135 . S
H168 C174 0.930 . S
H169 C178 0.930 . S
H170 C183 0.929 . S
H171 C181 0.929 . S
H172 C176 0.929 . S
H173 C182 0.929 . S
C174 H168 0.930 . S
C174 C175 1.367 . S
C174 C182 1.378 1_556 S
C175 C174 1.367 . S
C175 C183 1.433 . S
C176 H172 0.929 . S
C176 C178 1.378 . S
C176 C180 1.350 . S
C177 C180 1.463 . S
C177 C182 1.350 . S
C177 N185 1.427 1_554 S
C178 H169 0.930 . S
C178 C176 1.378 . S
C178 C179 1.367 . S
C179 C178 1.367 . S
C179 C181 1.433 . S
C180 C176 1.350 . S
C180 C177 1.463 . S
C180 N184 1.427 . S
C181 H171 0.929 . S
C181 C179 1.433 . S
C181 N184 1.384 . S
C182 H173 0.929 . S
C182 C174 1.378 1_554 S
C182 C177 1.350 . S
C183 H170 0.929 . S
C183 C175 1.433 . S
C183 N185 1.384 . S
N184 C180 1.427 . S
N184 C181 1.384 . S
N185 C177 1.427 1_556 S
N185 C183 1.384 . S
H186 C192 0.930 . S
H187 C196 0.930 . S
H188 C201 0.929 . S
H189 C199 0.929 . S
H190 C194 0.929 . S
H191 C200 0.929 . S
C192 H186 0.930 . S
C192 C193 1.367 . S
C192 C200 1.378 . S
C193 C192 1.367 . S
C193 C201 1.433 . S
C194 H190 0.929 . S
C194 C196 1.378 . S
C194 C198 1.350 . S
C195 C198 1.463 . S
C195 C200 1.350 . S
C195 N203 1.427 . S
C196 H187 0.930 . S
C196 C194 1.378 . S
C196 C197 1.367 . S
C197 C196 1.367 . S
C197 C199 1.433 . S
C198 C194 1.350 . S
C198 C195 1.463 . S
C198 N202 1.427 . S
C199 H189 0.929 . S
C199 C197 1.433 . S
C199 N202 1.384 . S
C200 H191 0.929 . S
C200 C192 1.378 . S
C200 C195 1.350 . S
C201 H188 0.929 . S
C201 C193 1.433 . S
C201 N203 1.384 . S
N202 C198 1.427 . S
N202 C199 1.384 . S
N203 C195 1.427 . S
N203 C201 1.384 . S
H204 C210 0.930 . S
H205 C214 0.930 . S
H206 C219 0.929 . S
H207 C217 0.929 . S
H208 C212 0.929 . S
H209 C218 0.929 . S
C210 H204 0.930 . S
C210 C211 1.367 . S
C210 C218 1.378 . S
C211 C210 1.367 . S
C211 C219 1.433 . S
C212 H208 0.929 . S
C212 C214 1.378 . S
C212 C216 1.350 . S
C213 C216 1.463 . S
C213 C218 1.350 . S
C213 N221 1.427 . S
C214 H205 0.930 . S
C214 C212 1.378 . S
C214 C215 1.367 . S
C215 C214 1.367 . S
C215 C217 1.433 . S
C216 C212 1.350 . S
C216 C213 1.463 . S
C216 N220 1.427 . S
C217 H207 0.929 . S
C217 C215 1.433 . S
C217 N220 1.384 . S
C218 H209 0.929 . S
C218 C210 1.378 . S
C218 C213 1.350 . S
C219 H206 0.929 . S
C219 C211 1.433 . S
C219 N221 1.384 . S
N220 C216 1.427 . S
N220 C217 1.384 . S
N221 C213 1.427 . S
N221 C219 1.384 . S
H222 C228 0.930 . S
H223 C232 0.930 . S
H224 C237 0.929 . S
H225 C235 0.929 . S
H226 C230 0.929 . S
H227 C236 0.929 . S
C228 H222 0.930 . S
C228 C229 1.367 . S
C228 C236 1.378 . S
C229 C228 1.367 . S
C229 C237 1.433 . S
C230 H226 0.929 . S
C230 C232 1.378 . S
C230 C234 1.350 . S
C231 C234 1.463 . S
C231 C236 1.350 1_556 S
C231 N239 1.427 . S
C232 H223 0.930 . S
C232 C230 1.378 . S
C232 C233 1.367 . S
C233 C232 1.367 . S
C233 C235 1.433 . S
C234 C230 1.350 . S
C234 C231 1.463 . S
C234 N238 1.427 . S
C235 H225 0.929 . S
C235 C233 1.433 . S
C235 N238 1.384 . S
C236 H227 0.929 . S
C236 C228 1.378 . S
C236 C231 1.350 1_554 S
C237 H224 0.929 . S
C237 C229 1.433 . S
C237 N239 1.384 1_554 S
N238 C234 1.427 . S
N238 C235 1.384 . S
N239 C231 1.427 . S
N239 C237 1.384 1_556 S
H240 C246 0.930 . S
H241 C250 0.930 . S
H242 C255 0.929 . S
H243 C253 0.929 . S
H244 C248 0.929 . S
H245 C254 0.929 . S
C246 H240 0.930 . S
C246 C247 1.367 . S
C246 C254 1.378 . S
C247 C246 1.367 . S
C247 C255 1.433 . S
C248 H244 0.929 . S
C248 C250 1.378 . S
C248 C252 1.350 . S
C249 C252 1.463 . S
C249 C254 1.350 . S
C249 N257 1.427 . S
C250 H241 0.930 . S
C250 C248 1.378 . S
C250 C251 1.367 . S
C251 C250 1.367 . S
C251 C253 1.433 . S
C252 C248 1.350 . S
C252 C249 1.463 . S
C252 N256 1.427 . S
C253 H243 0.929 . S
C253 C251 1.433 . S
C253 N256 1.384 . S
C254 H245 0.929 . S
C254 C246 1.378 . S
C254 C249 1.350 . S
C255 H242 0.929 . S
C255 C247 1.433 . S
C255 N257 1.384 . S
N256 C252 1.427 . S
N256 C253 1.384 . S
N257 C249 1.427 . S
N257 C255 1.384 . S
H258 C264 0.930 . S
H259 C268 0.930 . S
H260 C273 0.929 . S
H261 C271 0.929 . S
H262 C266 0.929 . S
H263 C272 0.929 . S
C264 H258 0.930 . S
C264 C265 1.367 . S
C264 C272 1.378 . S
C265 C264 1.367 . S
C265 C273 1.433 . S
C266 H262 0.929 . S
C266 C268 1.378 . S
C266 C270 1.350 . S
C267 C270 1.463 . S
C267 C272 1.350 . S
C267 N275 1.427 . S
C268 H259 0.930 . S
C268 C266 1.378 . S
C268 C269 1.367 . S
C269 C268 1.367 . S
C269 C271 1.433 . S
C270 C266 1.350 . S
C270 C267 1.463 . S
C270 N274 1.427 . S
C271 H261 0.929 . S
C271 C269 1.433 . S
C271 N274 1.384 . S
C272 H263 0.929 . S
C272 C264 1.378 . S
C272 C267 1.350 . S
C273 H260 0.929 . S
C273 C265 1.433 . S
C273 N275 1.384 . S
N274 C270 1.427 . S
N274 C271 1.384 . S
N275 C267 1.427 . S
N275 C273 1.384 . S
H276 C282 0.930 . S
H277 C286 0.930 . S
H278 C291 0.929 . S
H279 C289 0.929 . S
H280 C284 0.929 . S
H281 C290 0.929 . S
C282 H276 0.930 . S
C282 C283 1.367 . S
C282 C290 1.378 . S
C283 C282 1.367 . S
C283 C291 1.433 . S
C284 H280 0.929 . S
C284 C286 1.378 . S
C284 C288 1.350 . S
C285 C288 1.463 . S
C285 C290 1.350 . S
C285 N293 1.427 . S
C286 H277 0.930 . S
C286 C284 1.378 . S
C286 C287 1.367 . S
C287 C286 1.367 . S
C287 C289 1.433 . S
C288 C284 1.350 . S
C288 C285 1.463 . S
C288 N292 1.427 . S
C289 H279 0.929 . S
C289 C287 1.433 . S
C289 N292 1.384 . S
C290 H281 0.929 . S
C290 C282 1.378 . S
C290 C285 1.350 . S
C291 H278 0.929 . S
C291 C283 1.433 . S
C291 N293 1.384 . S
N292 C288 1.427 . S
N292 C289 1.384 . S
N293 C285 1.427 . S
N293 C291 1.384 . S
H294 C300 0.930 . S
H295 C304 0.930 . S
H296 C309 0.929 . S
H297 C307 0.929 . S
H298 C302 0.929 . S
H299 C308 0.929 . S
C300 H294 0.930 . S
C300 C301 1.367 . S
C300 C308 1.378 . S
C301 C300 1.367 . S
C301 C309 1.433 . S
C302 H298 0.929 . S
C302 C304 1.378 . S
C302 C306 1.350 . S
C303 C306 1.463 . S
C303 C308 1.350 . S
C303 N311 1.427 . S
C304 H295 0.930 . S
C304 C302 1.378 . S
C304 C305 1.367 . S
C305 C304 1.367 . S
C305 C307 1.433 . S
C306 C302 1.350 . S
C306 C303 1.463 . S
C306 N310 1.427 . S
C307 H297 0.929 . S
C307 C305 1.433 . S
C307 N310 1.384 . S
C308 H299 0.929 . S
C308 C300 1.378 . S
C308 C303 1.350 . S
C309 H296 0.929 . S
C309 C301 1.433 . S
C309 N311 1.384 . S
N310 C306 1.427 . S
N310 C307 1.384 . S
N311 C303 1.427 . S
N311 C309 1.384 . S
H312 C318 0.930 . S
H313 C322 0.930 . S
H314 C327 0.929 . S
H315 C325 0.929 . S
H316 C320 0.929 . S
H317 C326 0.929 . S
C318 H312 0.930 . S
C318 C319 1.367 . S
C318 C326 1.378 . S
C319 C318 1.367 . S
C319 C327 1.433 . S
C320 H316 0.929 . S
C320 C322 1.378 . S
C320 C324 1.350 . S
C321 C324 1.463 . S
C321 C326 1.350 . S
C321 N329 1.427 . S
C322 H313 0.930 . S
C322 C320 1.378 . S
C322 C323 1.367 . S
C323 C322 1.367 . S
C323 C325 1.433 . S
C324 C320 1.350 . S
C324 C321 1.463 . S
C324 N328 1.427 . S
C325 H315 0.929 . S
C325 C323 1.433 . S
C325 N328 1.384 . S
C326 H317 0.929 . S
C326 C318 1.378 . S
C326 C321 1.350 . S
C327 H314 0.929 . S
C327 C319 1.433 . S
C327 N329 1.384 . S
N328 C324 1.427 . S
N328 C325 1.384 . S
N329 C321 1.427 . S
N329 C327 1.384 . S
H330 C336 0.930 . S
H331 C340 0.930 . S
H332 C345 0.929 . S
H333 C343 0.929 . S
H334 C338 0.929 . S
H335 C344 0.929 . S
C336 H330 0.930 . S
C336 C337 1.367 . S
C336 C344 1.378 . S
C337 C336 1.367 . S
C337 C345 1.433 . S
C338 H334 0.929 . S
C338 C340 1.378 . S
C338 C342 1.350 . S
C339 C342 1.463 . S
C339 C344 1.350 . S
C339 N347 1.427 . S
C340 H331 0.930 . S
C340 C338 1.378 . S
C340 C341 1.367 . S
C341 C340 1.367 . S
C341 C343 1.433 . S
C342 C338 1.350 . S
C342 C339 1.463 . S
C342 N346 1.427 . S
C343 H333 0.929 . S
C343 C341 1.433 . S
C343 N346 1.384 . S
C344 H335 0.929 . S
C344 C336 1.378 . S
C344 C339 1.350 . S
C345 H332 0.929 . S
C345 C337 1.433 . S
C345 N347 1.384 . S
N346 C342 1.427 . S
N346 C343 1.384 . S
N347 C339 1.427 . S
N347 C345 1.384 . S
H348 C354 0.930 . S
H349 C358 0.930 . S
H350 C363 0.929 . S
H351 C361 0.929 . S
H352 C356 0.929 . S
H353 C362 0.929 . S
C354 H348 0.930 . S
C354 C355 1.367 . S
C354 C362 1.378 . S
C355 C354 1.367 . S
C355 C363 1.433 . S
C356 H352 0.929 . S
C356 C358 1.378 . S
C356 C360 1.350 . S
C357 C360 1.463 . S
C357 C362 1.350 . S
C357 N365 1.427 . S
C358 H349 0.930 . S
C358 C356 1.378 . S
C358 C359 1.367 . S
C359 C358 1.367 . S
C359 C361 1.433 . S
C360 C356 1.350 . S
C360 C357 1.463 . S
C360 N364 1.427 . S
C361 H351 0.929 . S
C361 C359 1.433 . S
C361 N364 1.384 . S
C362 H353 0.929 . S
C362 C354 1.378 . S
C362 C357 1.350 . S
C363 H350 0.929 . S
C363 C355 1.433 . S
C363 N365 1.384 . S
N364 C360 1.427 . S
N364 C361 1.384 . S
N365 C357 1.427 . S
N365 C363 1.384 . S
H366 C372 0.930 . S
H367 C376 0.930 . S
H368 C381 0.929 . S
H369 C379 0.929 . S
H370 C374 0.929 . S
H371 C380 0.929 . S
C372 H366 0.930 . S
C372 C373 1.367 . S
C372 C380 1.378 . S
C373 C372 1.367 . S
C373 C381 1.433 . S
C374 H370 0.929 . S
C374 C376 1.378 . S
C374 C378 1.350 . S
C375 C378 1.463 . S
C375 C380 1.350 . S
C375 N383 1.427 . S
C376 H367 0.930 . S
C376 C374 1.378 . S
C376 C377 1.367 . S
C377 C376 1.367 . S
C377 C379 1.433 . S
C378 C374 1.350 . S
C378 C375 1.463 . S
C378 N382 1.427 . S
C379 H369 0.929 . S
C379 C377 1.433 . S
C379 N382 1.384 . S
C380 H371 0.929 . S
C380 C372 1.378 . S
C380 C375 1.350 . S
C381 H368 0.929 . S
C381 C373 1.433 . S
C381 N383 1.384 . S
N382 C378 1.427 . S
N382 C379 1.384 . S
N383 C375 1.427 . S
N383 C381 1.384 . S
H384 C390 0.930 . S
H385 C394 0.930 . S
H386 C399 0.929 . S
H387 C397 0.929 . S
H388 C392 0.929 . S
H389 C398 0.929 . S
C390 H384 0.930 . S
C390 C391 1.367 . S
C390 C398 1.378 . S
C391 C390 1.367 . S
C391 C399 1.433 . S
C392 H388 0.929 . S
C392 C394 1.378 . S
C392 C396 1.350 . S
C393 C396 1.463 1_655 S
C393 C398 1.350 . S
C393 N401 1.427 . S
C394 H385 0.930 . S
C394 C392 1.378 . S
C394 C395 1.367 . S
C395 C394 1.367 . S
C395 C397 1.433 . S
C396 C392 1.350 . S
C396 C393 1.463 1_455 S
C396 N400 1.427 . S
C397 H387 0.929 . S
C397 C395 1.433 . S
C397 N400 1.384 . S
C398 H389 0.929 . S
C398 C390 1.378 . S
C398 C393 1.350 . S
C399 H386 0.929 . S
C399 C391 1.433 . S
C399 N401 1.384 . S
N400 C396 1.427 . S
N400 C397 1.384 . S
N401 C393 1.427 . S
N401 C399 1.384 . S
H402 C408 0.930 . S
H403 C412 0.930 . S
H404 C417 0.929 . S
H405 C415 0.929 . S
H406 C410 0.929 . S
H407 C416 0.929 . S
C408 H402 0.930 . S
C408 C409 1.367 . S
C408 C416 1.378 . S
C409 C408 1.367 . S
C409 C417 1.433 . S
C410 H406 0.929 . S
C410 C412 1.378 . S
C410 C414 1.350 . S
C411 C414 1.463 1_545 S
C411 C416 1.350 . S
C411 N419 1.427 . S
C412 H403 0.930 . S
C412 C410 1.378 . S
C412 C413 1.367 . S
C413 C412 1.367 . S
C413 C415 1.433 . S
C414 C410 1.350 . S
C414 C411 1.463 1_565 S
C414 N418 1.427 . S
C415 H405 0.929 . S
C415 C413 1.433 . S
C415 N418 1.384 . S
C416 H407 0.929 . S
C416 C408 1.378 . S
C416 C411 1.350 . S
C417 H404 0.929 . S
C417 C409 1.433 . S
C417 N419 1.384 . S
N418 C414 1.427 . S
N418 C415 1.384 . S
N419 C411 1.427 . S
N419 C417 1.384 . S
H420 C426 0.930 . S
H421 C430 0.930 . S
H422 C435 0.929 . S
H423 C433 0.929 . S
H424 C428 0.929 . S
H425 C434 0.929 . S
C426 H420 0.930 . S
C426 C427 1.367 . S
C426 C434 1.378 . S
C427 C426 1.367 . S
C427 C435 1.433 . S
C428 H424 0.929 . S
C428 C430 1.378 . S
C428 C432 1.350 . S
C429 C432 1.463 . S
C429 C434 1.350 . S
C429 N437 1.427 . S
C430 H421 0.930 . S
C430 C428 1.378 . S
C430 C431 1.367 . S
C431 C430 1.367 . S
C431 C433 1.433 . S
C432 C428 1.350 . S
C432 C429 1.463 . S
C432 N436 1.427 . S
C433 H423 0.929 . S
C433 C431 1.433 . S
C433 N436 1.384 . S
C434 H425 0.929 . S
C434 C426 1.378 . S
C434 C429 1.350 . S
C435 H422 0.929 . S
C435 C427 1.433 . S
C435 N437 1.384 . S
N436 C432 1.427 . S
N436 C433 1.384 . S
N437 C429 1.427 . S
N437 C435 1.384 . S
H438 C444 0.930 . S
H439 C448 0.930 . S
H440 C453 0.929 . S
H441 C451 0.929 . S
H442 C446 0.929 . S
H443 C452 0.929 . S
C444 H438 0.930 . S
C444 C445 1.367 . S
C444 C452 1.378 . S
C445 C444 1.367 . S
C445 C453 1.433 . S
C446 H442 0.929 . S
C446 C448 1.378 . S
C446 C450 1.350 . S
C447 C450 1.463 1_545 S
C447 C452 1.350 . S
C447 N455 1.427 . S
C448 H439 0.930 . S
C448 C446 1.378 . S
C448 C449 1.367 . S
C449 C448 1.367 . S
C449 C451 1.433 . S
C450 C446 1.350 . S
C450 C447 1.463 1_565 S
C450 N454 1.427 . S
C451 H441 0.929 . S
C451 C449 1.433 . S
C451 N454 1.384 . S
C452 H443 0.929 . S
C452 C444 1.378 . S
C452 C447 1.350 . S
C453 H440 0.929 . S
C453 C445 1.433 . S
C453 N455 1.384 . S
N454 C450 1.427 . S
N454 C451 1.384 . S
N455 C447 1.427 . S
N455 C453 1.384 . S
H456 C462 0.930 . S
H457 C466 0.930 . S
H458 C471 0.929 . S
H459 C469 0.929 . S
H460 C464 0.929 . S
H461 C470 0.929 . S
C462 H456 0.930 . S
C462 C463 1.367 . S
C462 C470 1.378 . S
C463 C462 1.367 . S
C463 C471 1.433 . S
C464 H460 0.929 . S
C464 C466 1.378 . S
C464 C468 1.350 . S
C465 C468 1.463 . S
C465 C470 1.350 . S
C465 N473 1.427 . S
C466 H457 0.930 . S
C466 C464 1.378 . S
C466 C467 1.367 . S
C467 C466 1.367 . S
C467 C469 1.433 . S
C468 C464 1.350 . S
C468 C465 1.463 . S
C468 N472 1.427 . S
C469 H459 0.929 . S
C469 C467 1.433 . S
C469 N472 1.384 . S
C470 H461 0.929 . S
C470 C462 1.378 . S
C470 C465 1.350 . S
C471 H458 0.929 . S
C471 C463 1.433 . S
C471 N473 1.384 . S
N472 C468 1.427 . S
N472 C469 1.384 . S
N473 C465 1.427 . S
N473 C471 1.384 . S
H474 C480 0.930 . S
H475 C484 0.930 . S
H476 C489 0.929 . S
H477 C487 0.929 . S
H478 C482 0.929 . S
H479 C488 0.929 . S
C480 H474 0.930 . S
C480 C481 1.367 . S
C480 C488 1.378 . S
C481 C480 1.367 . S
C481 C489 1.433 . S
C482 H478 0.929 . S
C482 C484 1.378 . S
C482 C486 1.350 . S
C483 C486 1.463 1_455 S
C483 C488 1.350 . S
C483 N491 1.427 . S
C484 H475 0.930 . S
C484 C482 1.378 . S
C484 C485 1.367 . S
C485 C484 1.367 . S
C485 C487 1.433 . S
C486 C482 1.350 . S
C486 C483 1.463 1_655 S
C486 N490 1.427 . S
C487 H477 0.929 . S
C487 C485 1.433 . S
C487 N490 1.384 . S
C488 H479 0.929 . S
C488 C480 1.378 . S
C488 C483 1.350 . S
C489 H476 0.929 . S
C489 C481 1.433 . S
C489 N491 1.384 . S
N490 C486 1.427 . S
N490 C487 1.384 . S
N491 C483 1.427 . S
N491 C489 1.384 . S
H492 C498 0.930 . S
H493 C502 0.930 . S
H494 C507 0.929 . S
H495 C505 0.929 . S
H496 C500 0.929 . S
H497 C506 0.929 . S
C498 H492 0.930 . S
C498 C499 1.367 . S
C498 C506 1.378 . S
C499 C498 1.367 . S
C499 C507 1.433 . S
C500 H496 0.929 . S
C500 C502 1.378 . S
C500 C504 1.350 . S
C501 C504 1.463 . S
C501 C506 1.350 . S
C501 N509 1.427 . S
C502 H493 0.930 . S
C502 C500 1.378 . S
C502 C503 1.367 . S
C503 C502 1.367 . S
C503 C505 1.433 . S
C504 C500 1.350 . S
C504 C501 1.463 . S
C504 N508 1.427 . S
C505 H495 0.929 . S
C505 C503 1.433 . S
C505 N508 1.384 . S
C506 H497 0.929 . S
C506 C498 1.378 . S
C506 C501 1.350 . S
C507 H494 0.929 . S
C507 C499 1.433 . S
C507 N509 1.384 . S
N508 C504 1.427 . S
N508 C505 1.384 . S
N509 C501 1.427 . S
N509 C507 1.384 . S
H510 C516 0.930 . S
H511 C520 0.930 . S
H512 C525 0.929 . S
H513 C523 0.929 . S
H514 C518 0.929 . S
H515 C524 0.929 . S
C516 H510 0.930 . S
C516 C517 1.367 . S
C516 C524 1.378 . S
C517 C516 1.367 . S
C517 C525 1.433 . S
C518 H514 0.929 . S
C518 C520 1.378 . S
C518 C522 1.350 . S
C519 C522 1.463 . S
C519 C524 1.350 . S
C519 N527 1.427 . S
C520 H511 0.930 . S
C520 C518 1.378 . S
C520 C521 1.367 . S
C521 C520 1.367 . S
C521 C523 1.433 . S
C522 C518 1.350 . S
C522 C519 1.463 . S
C522 N526 1.427 . S
C523 H513 0.929 . S
C523 C521 1.433 . S
C523 N526 1.384 . S
C524 H515 0.929 . S
C524 C516 1.378 . S
C524 C519 1.350 . S
C525 H512 0.929 . S
C525 C517 1.433 . S
C525 N527 1.384 . S
N526 C522 1.427 . S
N526 C523 1.384 . S
N527 C519 1.427 . S
N527 C525 1.384 . S
H528 C534 0.930 . S
H529 C538 0.930 . S
H530 C543 0.929 . S
H531 C541 0.929 . S
H532 C536 0.929 . S
H533 C542 0.929 . S
C534 H528 0.930 . S
C534 C535 1.367 . S
C534 C542 1.378 . S
C535 C534 1.367 . S
C535 C543 1.433 . S
C536 H532 0.929 . S
C536 C538 1.378 . S
C536 C540 1.350 . S
C537 C540 1.463 . S
C537 C542 1.350 . S
C537 N545 1.427 . S
C538 H529 0.930 . S
C538 C536 1.378 . S
C538 C539 1.367 . S
C539 C538 1.367 . S
C539 C541 1.433 . S
C540 C536 1.350 . S
C540 C537 1.463 . S
C540 N544 1.427 . S
C541 H531 0.929 . S
C541 C539 1.433 . S
C541 N544 1.384 . S
C542 H533 0.929 . S
C542 C534 1.378 . S
C542 C537 1.350 . S
C543 H530 0.929 . S
C543 C535 1.433 . S
C543 N545 1.384 . S
N544 C540 1.427 . S
N544 C541 1.384 . S
N545 C537 1.427 . S
N545 C543 1.384 . S
H546 C552 0.930 . S
H547 C556 0.930 . S
H548 C561 0.929 . S
H549 C559 0.929 . S
H550 C554 0.929 . S
H551 C560 0.929 . S
C552 H546 0.930 . S
C552 C553 1.367 . S
C552 C560 1.378 . S
C553 C552 1.367 . S
C553 C561 1.433 . S
C554 H550 0.929 . S
C554 C556 1.378 . S
C554 C558 1.350 . S
C555 C558 1.463 . S
C555 C560 1.350 . S
C555 N563 1.427 . S
C556 H547 0.930 . S
C556 C554 1.378 . S
C556 C557 1.367 . S
C557 C556 1.367 . S
C557 C559 1.433 . S
C558 C554 1.350 . S
C558 C555 1.463 . S
C558 N562 1.427 . S
C559 H549 0.929 . S
C559 C557 1.433 . S
C559 N562 1.384 . S
C560 H551 0.929 . S
C560 C552 1.378 . S
C560 C555 1.350 . S
C561 H548 0.929 . S
C561 C553 1.433 . S
C561 N563 1.384 . S
N562 C558 1.427 . S
N562 C559 1.384 . S
N563 C555 1.427 . S
N563 C561 1.384 . S
H564 C570 0.930 . S
H565 C574 0.930 . S
H566 C579 0.929 . S
H567 C577 0.929 . S
H568 C572 0.929 . S
H569 C578 0.929 . S
C570 H564 0.930 . S
C570 C571 1.367 . S
C570 C578 1.378 . S
C571 C570 1.367 . S
C571 C579 1.433 . S
C572 H568 0.929 . S
C572 C574 1.378 . S
C572 C576 1.350 . S
C573 C576 1.463 . S
C573 C578 1.350 . S
C573 N581 1.427 . S
C574 H565 0.930 . S
C574 C572 1.378 . S
C574 C575 1.367 . S
C575 C574 1.367 . S
C575 C577 1.433 . S
C576 C572 1.350 . S
C576 C573 1.463 . S
C576 N580 1.427 . S
C577 H567 0.929 . S
C577 C575 1.433 . S
C577 N580 1.384 . S
C578 H569 0.929 . S
C578 C570 1.378 . S
C578 C573 1.350 . S
C579 H566 0.929 . S
C579 C571 1.433 . S
C579 N581 1.384 . S
N580 C576 1.427 . S
N580 C577 1.384 . S
N581 C573 1.427 . S
N581 C579 1.384 . S
H582 C588 0.930 . S
H583 C592 0.930 . S
H584 C597 0.929 . S
H585 C595 0.929 . S
H586 C590 0.929 . S
H587 C596 0.929 . S
C588 H582 0.930 . S
C588 C589 1.367 . S
C588 C596 1.378 . S
C589 C588 1.367 . S
C589 C597 1.433 . S
C590 H586 0.929 . S
C590 C592 1.378 . S
C590 C594 1.350 . S
C591 C594 1.463 . S
C591 C596 1.350 . S
C591 N599 1.427 . S
C592 H583 0.930 . S
C592 C590 1.378 . S
C592 C593 1.367 . S
C593 C592 1.367 . S
C593 C595 1.433 . S
C594 C590 1.350 . S
C594 C591 1.463 . S
C594 N598 1.427 . S
C595 H585 0.929 . S
C595 C593 1.433 . S
C595 N598 1.384 . S
C596 H587 0.929 . S
C596 C588 1.378 . S
C596 C591 1.350 . S
C597 H584 0.929 . S
C597 C589 1.433 . S
C597 N599 1.384 . S
N598 C594 1.427 . S
N598 C595 1.384 . S
N599 C591 1.427 . S
N599 C597 1.384 . S
C175 C147 1.537 . S
C179 C7 1.585 . S
C193 C21 1.538 . S
C197 C161 1.586 . S
C211 C35 1.585 . S
C215 C91 1.538 . S
C229 C49 1.521 . S
C233 C105 1.574 . S
C247 C119 1.537 . S
C251 C63 1.583 . S
C265 C77 1.537 . S
C269 C133 1.585 . S
C283 C115 1.468 . S
C287 C3 1.626 . S
C301 C17 1.475 . S
C305 C129 1.626 . S
C319 C31 1.624 . S
C323 C143 1.472 . S
C337 C45 1.463 . S
C341 C157 1.620 . S
C355 C87 1.473 . S
C359 C59 1.624 . S
C373 C101 1.617 . S
C377 C73 1.452 . S
C391 C51 1.385 . S
C395 C9 1.385 . S
C409 C23 1.390 . S
C413 C65 1.390 . S
C427 C79 1.386 . S
C431 C37 1.386 . S
C445 C135 1.388 . S
C449 C93 1.387 . S
C463 C149 1.386 . S
C467 C107 1.386 . S
C481 C121 1.392 . S
C485 C163 1.392 . S
C499 C50 1.408 . S
C503 C8 1.409 . S
C517 C22 1.409 . S
C521 C64 1.408 1_655 S
C535 C78 1.408 . S
C539 C36 1.409 1_545 S
C553 C92 1.409 . S
C557 C134 1.408 . S
C571 C148 1.408 . S
C575 C106 1.408 1_455 S
C589 C120 1.408 . S
C593 C162 1.408 1_565 S
