# Generated by pormake.
# Topology wjh, (4)-cn, num edge types: 1
# Building blocks:
#     Node 0, Type 0, BuildingBlock: ESEHIV_clean_sbu_0, # of connection points: 4
#     Node 1, Type 0, BuildingBlock: ESEHIV_clean_sbu_0, # of connection points: 4
#     Node 2, Type 0, BuildingBlock: ESEHIV_clean_sbu_0, # of connection points: 4
#     Node 3, Type 0, BuildingBlock: ESEHIV_clean_sbu_0, # of connection points: 4
#     Node 4, Type 0, BuildingBlock: ESEHIV_clean_sbu_0, # of connection points: 4
#     Node 5, Type 0, BuildingBlock: ESEHIV_clean_sbu_0, # of connection points: 4
#     Node 6, Type 0, BuildingBlock: ESEHIV_clean_sbu_0, # of connection points: 4
#     Node 7, Type 0, BuildingBlock: ESEHIV_clean_sbu_0, # of connection points: 4
#     Node 8, Type 0, BuildingBlock: ESEHIV_clean_sbu_0, # of connection points: 4
#     Node 9, Type 0, BuildingBlock: ESEHIV_clean_sbu_0, # of connection points: 4
#     Node 10, Type 0, BuildingBlock: ESEHIV_clean_sbu_0, # of connection points: 4
#     Node 11, Type 0, BuildingBlock: ESEHIV_clean_sbu_0, # of connection points: 4
#     Edge 12, Type (0, 0), BuildingBlock: ZUJKAS_clean_linker_0, # of connection points: 2
#     Edge 13, Type (0, 0), BuildingBlock: ZUJKAS_clean_linker_0, # of connection points: 2
#     Edge 14, Type (0, 0), BuildingBlock: ZUJKAS_clean_linker_0, # of connection points: 2
#     Edge 15, Type (0, 0), BuildingBlock: ZUJKAS_clean_linker_0, # of connection points: 2
#     Edge 16, Type (0, 0), BuildingBlock: ZUJKAS_clean_linker_0, # of connection points: 2
#     Edge 17, Type (0, 0), BuildingBlock: ZUJKAS_clean_linker_0, # of connection points: 2
#     Edge 18, Type (0, 0), BuildingBlock: ZUJKAS_clean_linker_0, # of connection points: 2
#     Edge 19, Type (0, 0), BuildingBlock: ZUJKAS_clean_linker_0, # of connection points: 2
#     Edge 20, Type (0, 0), BuildingBlock: ZUJKAS_clean_linker_0, # of connection points: 2
#     Edge 21, Type (0, 0), BuildingBlock: ZUJKAS_clean_linker_0, # of connection points: 2
#     Edge 22, Type (0, 0), BuildingBlock: ZUJKAS_clean_linker_0, # of connection points: 2
#     Edge 23, Type (0, 0), BuildingBlock: ZUJKAS_clean_linker_0, # of connection points: 2
#     Edge 24, Type (0, 0), BuildingBlock: ZUJKAS_clean_linker_0, # of connection points: 2
#     Edge 25, Type (0, 0), BuildingBlock: ZUJKAS_clean_linker_0, # of connection points: 2
#     Edge 26, Type (0, 0), BuildingBlock: ZUJKAS_clean_linker_0, # of connection points: 2
#     Edge 27, Type (0, 0), BuildingBlock: ZUJKAS_clean_linker_0, # of connection points: 2
#     Edge 28, Type (0, 0), BuildingBlock: ZUJKAS_clean_linker_0, # of connection points: 2
#     Edge 29, Type (0, 0), BuildingBlock: ZUJKAS_clean_linker_0, # of connection points: 2
#     Edge 30, Type (0, 0), BuildingBlock: ZUJKAS_clean_linker_0, # of connection points: 2
#     Edge 31, Type (0, 0), BuildingBlock: ZUJKAS_clean_linker_0, # of connection points: 2
#     Edge 32, Type (0, 0), BuildingBlock: ZUJKAS_clean_linker_0, # of connection points: 2
#     Edge 33, Type (0, 0), BuildingBlock: ZUJKAS_clean_linker_0, # of connection points: 2
#     Edge 34, Type (0, 0), BuildingBlock: ZUJKAS_clean_linker_0, # of connection points: 2
#     Edge 35, Type (0, 0), BuildingBlock: ZUJKAS_clean_linker_0, # of connection points: 2
# Relax obj value: 0.035
# Max RMSD: 0.087
# Mean RMSD: 0.087
data_MOF--net-wjh--node1-ESEHIV_clean_sbu_0--edge1-ZUJKAS_clean_linker_0
_symmetry_space_group_name_H-M    P1
_symmetry_Int_Tables_number       1
_symmetry_cell_setting            triclinic
loop_
_symmetry_equiv_pos_as_xyz
'x, y, z'
_cell_length_a     83.914165
_cell_length_b     84.023522
_cell_length_c     37.27845
_cell_angle_alpha  89.998003
_cell_angle_beta   89.888754
_cell_angle_gamma 120.22825
loop_
_atom_site_label
_atom_site_type_symbol
_atom_site_fract_x
_atom_site_fract_y
_atom_site_fract_z
_atom_type_partial_charge
Cu0 Cu 0.55436 0.15511 0.0534 0.0
N1 N 0.56405 0.1395 0.05312 0.0
N2 N 0.56218 0.11206 0.05574 0.0
C3 C 0.55472 0.12227 0.06616 0.0
C4 C 0.57694 0.12342 0.03544 0.0
C5 C 0.57808 0.14041 0.03392 0.0
O6 O 0.53826 0.14794 1.01171 0.0
C7 C 0.55399 0.15746 0.12623 0.0
O8 O 0.57156 0.16402 0.11921 0.0
H9 H 0.54167 0.11683 0.0801 0.0
H10 H 0.58759 0.15207 1.0178 0.0
N11 N 0.57243 0.17989 0.04837 0.0
N12 N 0.58454 0.21031 0.05352 0.0
C13 C 0.5725 0.19361 0.06707 0.0
C14 C 0.5849 0.18817 1.02194 0.0
C15 C 0.59239 0.20701 1.02502 0.0
C16 C 0.53625 0.15937 0.9926 0.0
O17 O 0.54214 0.17606 1.00497 0.0
H18 H 0.56277 0.19132 0.08832 0.0
H19 H 0.58741 0.18102 1.00053 0.0
O20 O 0.54264 0.15209 0.10015 0.0
H21 H 0.58561 0.11945 1.02108 0.0
H22 H 0.60218 0.21738 1.00681 0.0
Cu23 Cu 0.39376 0.53642 0.23045 0.0
N24 N 0.39628 0.51609 0.24013 0.0
N25 N 0.40656 0.49623 0.24197 0.0
C26 C 0.40873 0.51191 0.22722 0.0
C27 C 0.39217 0.49038 0.26481 0.0
C28 C 0.38589 0.50265 0.2636 0.0
O29 O 0.40734 0.54862 0.18672 0.0
C30 C 0.41621 0.55633 0.28979 0.0
O31 O 0.42856 0.55336 0.27432 0.0
H32 H 0.41938 0.5204 0.20809 0.0
H33 H 0.37459 0.50195 0.27893 0.0
N34 N 0.36878 0.5277 0.22291 0.0
N35 N 0.34037 0.52339 0.22873 0.0
C36 C 0.35792 0.53249 0.24089 0.0
C37 C 0.35784 0.51514 0.19859 0.0
C38 C 0.3403 0.51246 0.20206 0.0
C39 C 0.40174 0.55686 0.16598 0.0
O40 O 0.38795 0.55895 0.17645 0.0
H41 H 0.3629 0.54259 0.26222 0.0
H42 H 0.36232 0.50836 0.17982 0.0
O43 O 0.40107 0.55145 0.27371 0.0
H44 H 0.38648 0.47803 0.28106 0.0
H45 H 0.32838 0.50293 0.18658 0.0
Cu46 Cu 0.85144 0.38315 0.40092 0.0
N47 N 0.87234 0.38081 0.4003 0.0
N48 N 0.902 0.38857 0.3993 0.0
C49 C 0.88987 0.39461 0.39653 0.0
C50 C 0.89163 0.37024 0.40497 0.0
C51 C 0.87333 0.3655 0.40555 0.0
O52 O 0.85334 0.39782 0.3588 0.0
C53 C 0.83941 0.39667 0.46105 0.0
O54 O 0.8246 0.3927 0.44241 0.0
H55 H 0.89364 0.40887 0.393 0.0
H56 H 0.86159 0.3519 0.41009 0.0
N57 N 0.8307 0.35962 0.3968 0.0
N58 N 0.80337 0.33417 0.40601 0.0
C59 C 0.81582 0.35109 0.4184 0.0
C60 C 0.82767 0.34771 0.37005 0.0
C61 C 0.81088 0.33203 0.37561 0.0
C62 C 0.8396 0.39476 0.33942 0.0
O63 O 0.82287 0.38286 0.35052 0.0
H64 H 0.81406 0.35727 0.44238 0.0
H65 H 0.83706 0.35032 0.34796 0.0
O66 O 0.8519 0.39427 0.44711 0.0
H67 H 0.89687 0.36092 0.40856 0.0
H68 H 0.80482 0.31996 0.35864 0.0
Cu69 Cu 0.47211 0.86193 0.54228 0.0
N70 N 0.49403 0.88457 0.54126 0.0
N71 N 0.51378 0.9147 0.5472 0.0
C72 C 0.49607 0.90104 0.55001 0.0
C73 C 0.52332 0.9065 0.5368 0.0
C74 C 0.51107 0.88788 0.53313 0.0
O75 O 0.45754 0.85886 0.49926 0.0
C76 C 0.44685 0.84688 0.60216 0.0
O77 O 0.43887 0.83117 0.58471 0.0
H78 H 0.48477 0.90295 0.55833 0.0
H79 H 0.51436 0.8775 0.52507 0.0
N80 N 0.47806 0.84337 0.54065 0.0
N81 N 0.48135 0.81926 0.554 0.0
C82 C 0.47656 0.83142 0.56635 0.0
C83 C 0.48413 0.83876 0.51126 0.0
C84 C 0.4862 0.82394 0.51937 0.0
C85 C 0.45902 0.87213 0.4802 0.0
O86 O 0.46907 0.88907 0.49192 0.0
H87 H 0.47161 0.83135 0.59319 0.0
H88 H 0.48668 0.84564 0.48559 0.0
O89 O 0.46008 0.86108 0.58747 0.0
H90 H 0.53799 0.91351 0.53148 0.0
H91 H 0.49094 0.81719 0.5011 0.0
Cu92 Cu 0.61389 0.46309 0.71173 0.0
N93 N 0.61531 0.48576 0.71663 0.0
N94 N 0.6071 0.50716 0.72053 0.0
C95 C 0.60175 0.48963 0.71139 0.0
C96 C 0.6247 0.51458 0.73182 0.0
C97 C 0.62972 0.50133 0.72935 0.0
O98 O 0.59962 0.45126 0.66869 0.0
C99 C 0.60675 0.43809 0.77072 0.0
O100 O 0.61615 0.43219 0.75241 0.0
H101 H 0.58805 0.47959 0.70235 0.0
H102 H 0.64281 0.50279 0.73705 0.0
N103 N 0.63784 0.46758 0.70509 0.0
N104 N 0.66595 0.4719 0.71532 0.0
C105 C 0.64992 0.46876 0.73014 0.0
C106 C 0.64663 0.47043 0.67347 0.0
C107 C 0.66393 0.47298 0.67965 0.0
C108 C 0.60093 0.4387 0.65215 0.0
O109 O 0.61034 0.43179 0.66692 0.0
H110 H 0.64686 0.46698 0.75856 0.0
H111 H 0.64079 0.47053 0.6477 0.0
O112 O 0.60342 0.44992 0.75662 0.0
H113 H 0.63329 0.52854 0.74136 0.0
H114 H 0.67424 0.47555 0.65947 0.0
Cu115 Cu 0.15422 0.61455 0.90741 0.0
N116 N 0.13244 0.61463 0.91625 0.0
N117 N 0.10253 0.60573 0.91949 0.0
C118 C 0.11524 0.60187 0.90645 0.0
C119 C 0.11219 0.6216 0.93797 0.0
C120 C 0.13063 0.62705 0.93589 0.0
O121 O 0.1509 0.60013 0.86419 0.0
C122 C 0.14795 0.59205 0.96817 0.0
O123 O 0.13144 0.58238 0.95405 0.0
H124 H 0.1121 0.58967 0.89117 0.0
H125 H 0.14194 0.63906 0.9483 0.0
N126 N 0.17254 0.63877 0.89836 0.0
N127 N 0.19653 0.66725 0.9049 0.0
C128 C 0.18584 0.65066 0.92061 0.0
C129 C 0.17481 0.64807 0.86766 0.0
C130 C 0.18961 0.66561 0.87155 0.0
C131 C 0.16451 0.60267 0.84481 0.0
O132 O 0.18133 0.61354 0.85664 0.0
H133 H 0.1874 0.64725 0.94788 0.0
H134 H 0.16629 0.64241 0.84408 0.0
O135 O 0.16035 0.60578 0.95079 0.0
H136 H 0.10636 0.62875 0.95207 0.0
H137 H 0.19496 0.67621 0.85114 0.0
Cu138 Cu 0.85518 0.45644 0.90026 0.0
N139 N 0.87652 0.47881 0.89042 0.0
N140 N 0.90605 0.5009 0.88546 0.0
C141 C 0.89413 0.48383 0.89788 0.0
C142 C 0.89549 0.50678 0.86959 0.0
C143 C 0.8773 0.49313 0.8727 0.0
O144 O 0.85786 0.44549 0.94458 0.0
C145 C 0.86149 0.44055 0.83838 0.0
O146 O 0.87849 0.44848 0.85043 0.0
H147 H 0.8981 0.47499 0.91154 0.0
H148 H 0.86545 0.49354 0.86257 0.0
N149 N 0.83592 0.46106 0.90765 0.0
N150 N 0.81255 0.46595 0.89695 0.0
C151 C 0.82578 0.46328 0.88237 0.0
C152 C 0.8289 0.46233 0.93928 0.0
C153 C 0.81452 0.46537 0.93279 0.0
C154 C 0.86505 0.45607 0.97158 0.0
O155 O 0.87149 0.47381 0.96747 0.0
H156 H 0.82815 0.46297 0.8539 0.0
H157 H 0.83369 0.46085 0.96528 0.0
O158 O 0.84916 0.4411 0.85743 0.0
H159 H 0.90051 0.52006 0.85696 0.0
H160 H 0.80588 0.46655 0.95296 0.0
Cu161 Cu 0.40818 0.86656 0.04164 0.0
N162 N 0.41421 0.89091 0.03473 0.0
N163 N 0.43019 0.92167 0.03386 0.0
C164 C 0.42984 0.90616 0.04476 0.0
C165 C 0.41404 0.91585 1.01658 0.0
C166 C 0.40423 0.89688 1.01718 0.0
O167 O 0.42012 0.86544 0.08547 0.0
C168 C 0.42896 0.86857 0.97992 0.0
O169 O 0.44088 0.88488 0.99262 0.0
H170 H 0.44095 0.90581 0.05873 0.0
H171 H 0.39086 0.88802 1.0053 0.0
N172 N 0.38278 0.85227 0.04795 0.0
N173 N 0.35359 0.82961 0.04179 0.0
C174 C 0.37104 0.83714 0.02934 0.0
C175 C 0.37249 0.85448 0.07295 0.0
C176 C 0.35445 0.8405 0.06926 0.0
C177 C 0.41371 0.8509 0.10447 0.0
O178 O 0.39996 0.83546 0.09199 0.0
H179 H 0.37534 0.83154 1.00772 0.0
H180 H 0.37779 0.86541 0.09265 0.0
O181 O 0.41471 0.85803 0.99844 0.0
H182 H 0.40958 0.92464 1.0044 0.0
H183 H 0.34288 0.83858 0.0854 0.0
Cu184 Cu 0.55018 0.39454 0.20617 0.0
N185 N 0.52713 0.39237 0.20022 0.0
N186 N 0.50514 0.39984 0.19671 0.0
C187 C 0.52299 0.40579 0.20441 0.0
C188 C 0.49783 0.382 0.18723 0.0
C189 C 0.51144 0.37743 0.18944 0.0
O190 O 0.56038 0.40591 0.2528 0.0
C191 C 0.57879 0.40853 0.152 0.0
O192 O 0.58659 0.40107 0.17078 0.0
H193 H 0.53298 0.4197 0.21237 0.0
H194 H 0.51005 0.3642 0.18342 0.0
N195 N 0.54726 0.37096 0.20609 0.0
N196 N 0.54862 0.34604 0.19014 0.0
C197 C 0.55171 0.36279 0.17997 0.0
C198 C 0.54092 0.35887 0.23346 0.0
C199 C 0.54171 0.34348 0.22371 0.0
C200 C 0.54929 0.40136 0.27938 0.0
O201 O 0.53164 0.38998 0.27389 0.0
H202 H 0.55716 0.36899 0.1541 0.0
H203 H 0.53641 0.36124 0.25907 0.0
O204 O 0.56452 0.40829 0.16437 0.0
H205 H 0.48362 0.37285 0.17959 0.0
H206 H 0.53814 0.33164 0.24053 0.0
Cu207 Cu 0.14891 0.54161 0.40798 0.0
N208 N 0.12823 0.51811 0.41182 0.0
N209 N 0.09911 0.49469 0.4108 0.0
C210 C 0.11063 0.51271 0.40326 0.0
C211 C 0.11002 0.48858 0.42414 0.0
C212 C 0.12792 0.50303 0.42473 0.0
O213 O 0.15079 0.5561 0.45048 0.0
C214 C 0.16179 0.5651 0.34636 0.0
O215 O 0.17776 0.57314 0.36295 0.0
H216 H 0.10636 0.522 0.39283 0.0
H217 H 0.13988 0.50262 0.43419 0.0
N218 N 0.16962 0.53893 0.40896 0.0
N219 N 0.19313 0.53502 0.39344 0.0
C220 C 0.1789 0.53682 0.38158 0.0
C221 C 0.17821 0.53843 0.43898 0.0
C222 C 0.19269 0.53601 0.42954 0.0
C223 C 0.13714 0.55322 0.47013 0.0
O224 O 0.12034 0.54167 0.45913 0.0
H225 H 0.17519 0.53644 0.35368 0.0
H226 H 0.17416 0.53974 0.46589 0.0
O227 O 0.14774 0.5522 0.36218 0.0
H228 H 0.10547 0.47466 0.43289 0.0
H229 H 0.20235 0.53536 0.44782 0.0
Cu230 Cu 0.57981 0.15451 0.55791 0.0
N231 N 0.58416 0.13556 0.54581 0.0
N232 N 0.5816 0.10792 0.5407 0.0
C233 C 0.57602 0.11822 0.55868 0.0
C234 C 0.59372 0.11922 0.51582 0.0
C235 C 0.59528 0.13625 0.51909 0.0
O236 O 0.56455 0.14801 0.60082 0.0
C237 C 0.5541 0.14584 0.50239 0.0
O238 O 0.54542 0.12992 0.51916 0.0
H239 H 0.5657 0.11309 0.57972 0.0
H240 H 0.60358 0.14823 0.50256 0.0
N241 N 0.6025 0.17542 0.56757 0.0
N242 N 0.63067 0.20002 0.56055 0.0
C243 C 0.61534 0.18684 0.54392 0.0
C244 C 0.60988 0.18146 0.60018 0.0
C245 C 0.6272 0.19662 0.59599 0.0
C246 C 0.56146 0.15974 0.6161 0.0
O247 O 0.56745 0.17586 0.60076 0.0
H248 H 0.61347 0.18539 0.51516 0.0
H249 H 0.60326 0.17502 0.62525 0.0
O250 O 0.56874 0.15887 0.51617 0.0
H251 H 0.60082 0.11538 0.49645 0.0
H252 H 0.63669 0.20416 0.61746 0.0
Cu253 Cu 0.46384 0.61161 0.72813 0.0
N254 N 0.48541 0.61142 0.71713 0.0
N255 N 0.50606 0.60245 0.70884 0.0
C256 C 0.48925 0.59781 0.72194 0.0
C257 C 0.51297 0.61956 0.69518 0.0
C258 C 0.5002 0.62504 0.70034 0.0
O259 O 0.4523 0.59773 0.7721 0.0
C260 C 0.44385 0.58789 0.67016 0.0
O261 O 0.44704 0.57596 0.68667 0.0
H262 H 0.4798 0.58471 0.73426 0.0
H263 H 0.50151 0.638 0.69219 0.0
N264 N 0.47013 0.63594 0.73641 0.0
N265 N 0.47426 0.66412 0.72832 0.0
C266 C 0.46797 0.64723 0.7139 0.0
C267 C 0.47806 0.64595 0.76601 0.0
C268 C 0.48061 0.66333 0.76114 0.0
C269 C 0.46258 0.59881 0.79828 0.0
O270 O 0.48056 0.60811 0.79398 0.0
H271 H 0.46178 0.64304 0.68763 0.0
H272 H 0.48185 0.64102 0.78942 0.0
O273 O 0.44861 0.60325 0.68516 0.0
H274 H 0.52639 0.62761 0.68272 0.0
H275 H 0.48699 0.67458 0.78008 0.0
H276 H 0.52059 0.13338 0.15772 0.0
H277 H 0.51328 0.1305 0.22236 0.0
H278 H 0.56723 0.17692 0.24392 0.0
H279 H 0.57462 0.17972 0.18016 0.0
H280 H 0.53608 0.12518 0.2758 0.0
H281 H 0.53135 0.18747 0.30322 0.0
H282 H 0.52796 0.1774 0.25904 0.0
H283 H 0.55087 0.19175 0.27622 0.0
C284 C 0.5307 0.14315 0.17628 0.0
C285 C 0.54818 0.15673 0.16398 0.0
C286 C 0.52654 0.14147 0.21311 0.0
C287 C 0.53966 0.15364 0.23785 0.0
C288 C 0.55681 0.16758 0.22529 0.0
H289 H 0.57311 0.17391 0.45449 0.0
H290 H 0.56618 0.17458 0.39108 0.0
C291 C 0.56105 0.16907 0.18883 0.0
C292 C 0.5365 0.15097 0.27712 0.0
H293 H 0.53783 0.17391 0.3537 0.0
C294 C 0.53601 0.13558 0.29293 0.0
C295 C 0.5366 0.16467 0.29929 0.0
C296 C 0.53656 0.18119 0.28362 0.0
C297 C 0.53682 0.1341 0.33037 0.0
C298 C 0.53766 0.14819 0.35262 0.0
C299 C 0.53723 0.16313 0.33673 0.0
C300 C 0.54059 0.14845 0.39202 0.0
C301 C 0.53799 0.11805 0.34554 0.0
C302 C 0.52821 0.13385 0.41405 0.0
C303 C 0.53222 0.13335 0.45034 0.0
C304 C 0.54859 0.14757 0.46543 0.0
C305 C 0.56041 0.1627 0.44379 0.0
C306 C 0.55646 0.16311 0.40747 0.0
H307 H 0.54141 0.11084 0.32458 0.0
H308 H 0.54858 0.12269 0.36696 0.0
H309 H 0.52447 0.10796 0.35739 0.0
H310 H 0.51564 0.12262 0.403 0.0
H311 H 0.52272 0.12157 0.46632 0.0
H312 H 0.44825 0.57388 0.32837 0.0
H313 H 0.45166 0.58059 0.39268 0.0
H314 H 0.39293 0.55813 0.40211 0.0
H315 H 0.38955 0.55221 0.33756 0.0
H316 H 0.40987 0.58677 0.44413 0.0
H317 H 0.44026 0.54257 0.46744 0.0
H318 H 0.45386 0.56094 0.4368 0.0
H319 H 0.43076 0.5435 0.42473 0.0
C320 C 0.43609 0.57057 0.34408 0.0
C321 C 0.41862 0.56239 0.32784 0.0
C322 C 0.43803 0.57423 0.38097 0.0
C323 C 0.42249 0.56933 0.40265 0.0
C324 C 0.40513 0.56191 0.38617 0.0
H325 H 0.42626 0.55517 0.63387 0.0
H326 H 0.41914 0.55045 0.5698 0.0
C327 C 0.40322 0.55855 0.34916 0.0
C328 C 0.42422 0.57154 0.44248 0.0
H329 H 0.44139 0.56125 0.51636 0.0
C330 C 0.41669 0.5811 0.45994 0.0
C331 C 0.4327 0.56379 0.46343 0.0
C332 C 0.43967 0.55196 0.44719 0.0
C333 C 0.41771 0.58341 0.49745 0.0
C334 C 0.42709 0.57652 0.51814 0.0
C335 C 0.43434 0.56672 0.5007 0.0
C336 C 0.42967 0.57928 0.5578 0.0
C337 C 0.40828 0.59281 0.51443 0.0
C338 C 0.43773 0.59701 0.57283 0.0
C339 C 0.44142 0.59967 0.60966 0.0
C340 C 0.4376 0.58472 0.63222 0.0
C341 C 0.42934 0.56697 0.61728 0.0
C342 C 0.42533 0.56427 0.58057 0.0
H343 H 0.39675 0.59139 0.49752 0.0
H344 H 0.40275 0.58708 0.54142 0.0
H345 H 0.41836 0.60773 0.51718 0.0
H346 H 0.44178 0.60893 0.55594 0.0
H347 H 0.44806 0.61357 0.62015 0.0
H348 H 0.88455 0.43714 0.79105 0.0
H349 H 0.87931 0.42932 0.7274 0.0
H350 H 0.82441 0.42102 0.7363 0.0
H351 H 0.82942 0.4286 0.80029 0.0
H352 H 0.82604 0.39426 0.69423 0.0
H353 H 0.87941 0.46442 0.65156 0.0
H354 H 0.88789 0.45384 0.68195 0.0
H355 H 0.87073 0.45919 0.69692 0.0
C356 C 0.87127 0.43349 0.77964 0.0
C357 C 0.85746 0.43364 0.80084 0.0
C358 C 0.86836 0.42915 0.74311 0.0
C359 C 0.85163 0.42501 0.72682 0.0
C360 C 0.83749 0.42433 0.74819 0.0
H361 H 0.81363 0.39887 0.50314 0.0
H362 H 0.81573 0.40603 0.56733 0.0
C363 C 0.84038 0.42863 0.78482 0.0
C364 C 0.84908 0.42171 0.68743 0.0
H365 H 0.86737 0.44141 0.60618 0.0
C366 C 0.83496 0.40461 0.67495 0.0
C367 C 0.86067 0.43527 0.66223 0.0
C368 C 0.87541 0.45428 0.67375 0.0
C369 C 0.83257 0.40047 0.63806 0.0
C370 C 0.84443 0.4139 0.61294 0.0
C371 C 0.85832 0.43111 0.62542 0.0
C372 C 0.84318 0.41014 0.57369 0.0
C373 C 0.81777 0.38154 0.62633 0.0
C374 C 0.85812 0.41066 0.55562 0.0
C375 C 0.85701 0.40669 0.51896 0.0
C376 C 0.84096 0.40222 0.49938 0.0
C377 C 0.82618 0.40221 0.51734 0.0
C378 C 0.8273 0.40615 0.55413 0.0
H379 H 0.8126 0.3716 0.64902 0.0
H380 H 0.80596 0.3824 0.61523 0.0
H381 H 0.823 0.37612 0.605 0.0
H382 H 0.87056 0.41382 0.57007 0.0
H383 H 0.86869 0.40689 0.50608 0.0
H384 H 0.4626 0.87671 0.6468 0.0
H385 H 0.45731 0.87761 0.71091 0.0
H386 H 0.41536 0.82016 0.70867 0.0
H387 H 0.42087 0.819 0.64438 0.0
H388 H 0.42684 0.87093 0.74889 0.0
H389 H 0.44875 0.82102 0.78823 0.0
H390 H 0.45272 0.83093 0.74389 0.0
H391 H 0.43026 0.81242 0.75631 0.0
C392 C 0.45217 0.86424 0.65979 0.0
C393 C 0.44225 0.84773 0.64038 0.0
C394 C 0.44917 0.86479 0.69655 0.0
C395 C 0.4362 0.84887 0.71484 0.0
C396 C 0.42577 0.83251 0.69535 0.0
H397 H 0.406 0.83671 0.94325 0.0
H398 H 0.40701 0.83071 0.8791 0.0
C399 C 0.42882 0.83192 0.6585 0.0
C400 C 0.43379 0.84962 0.75426 0.0
H401 H 0.43814 0.83254 0.83469 0.0
C402 C 0.42925 0.86248 0.7676 0.0
C403 C 0.43694 0.83859 0.77874 0.0
C404 C 0.4426 0.82507 0.76621 0.0
C405 C 0.42795 0.86473 0.80462 0.0
C406 C 0.43143 0.85396 0.82903 0.0
C407 C 0.4355 0.84077 0.81584 0.0
C408 C 0.4316 0.85683 0.86834 0.0
C409 C 0.42293 0.87868 0.81744 0.0
C410 C 0.44541 0.87326 0.88366 0.0
C411 C 0.44497 0.87669 0.92024 0.0
C412 C 0.43065 0.86377 0.94228 0.0
C413 C 0.41721 0.84698 0.92708 0.0
C414 C 0.41774 0.84352 0.89043 0.0
H415 H 0.41683 0.88294 0.79567 0.0
H416 H 0.41298 0.87305 0.84009 0.0
H417 H 0.43554 0.89112 0.82716 0.0
H418 H 0.45636 0.88361 0.86712 0.0
H419 H 0.45558 0.88974 0.93097 0.0
H420 H 0.60245 0.40274 0.11055 0.0
H421 H 0.60825 0.40834 0.04605 0.0
H422 H 0.5729 0.43179 0.0427 0.0
H423 H 0.56706 0.42631 0.10705 0.0
H424 H 0.58029 0.39333 0.99198 0.0
H425 H 0.61953 0.46976 0.98795 0.0
H426 H 0.61694 0.45684 0.02843 0.0
H427 H 0.59838 0.45993 1.0131 0.0
C428 C 0.59619 0.40942 0.09627 0.0
C429 C 0.58433 0.41413 0.11409 0.0
C430 C 0.59944 0.41252 0.05934 0.0
C431 C 0.59112 0.4206 0.03957 0.0
C432 C 0.5797 0.42579 0.05746 0.0
H433 H 0.58691 0.44726 0.81615 0.0
H434 H 0.58253 0.4419 0.88082 0.0
C435 C 0.57634 0.42259 0.09429 0.0
C436 C 0.59344 0.42263 0.99995 0.0
H437 H 0.60898 0.45435 0.93219 0.0
C438 C 0.58668 0.40667 0.97887 0.0
C439 C 0.60167 0.44002 0.98289 0.0
C440 C 0.6097 0.45765 1.00419 0.0
C441 C 0.58753 0.40761 0.94117 0.0
C442 C 0.59574 0.42503 0.92405 0.0
C443 C 0.60262 0.44099 0.94522 0.0
C444 C 0.59738 0.42709 0.88427 0.0
C445 C 0.5791 0.3899 0.92007 0.0
C446 C 0.60707 0.42043 0.86445 0.0
C447 C 0.60946 0.42334 0.82734 0.0
C448 C 0.60241 0.43317 0.80926 0.0
C449 C 0.59248 0.43958 0.8291 0.0
C450 C 0.59002 0.43659 0.86616 0.0
H451 H 0.56885 0.37802 0.93629 0.0
H452 H 0.57221 0.39088 0.89546 0.0
H453 H 0.59013 0.38702 0.91192 0.0
H454 H 0.61325 0.41342 0.87783 0.0
H455 H 0.61735 0.41837 0.81305 0.0
H456 H 0.18927 0.59111 0.30382 0.0
H457 H 0.18782 0.59676 0.23982 0.0
H458 H 0.13052 0.55425 0.23791 0.0
H459 H 0.13173 0.54875 0.30193 0.0
H460 H 0.18007 0.57301 0.18368 0.0
H461 H 0.12883 0.5961 0.18793 0.0
H462 H 0.14016 0.59447 0.22769 0.0
H463 H 0.12075 0.5742 0.20921 0.0
C464 C 0.17627 0.58313 0.28993 0.0
C465 C 0.16058 0.56954 0.30818 0.0
C466 C 0.17549 0.58634 0.25326 0.0
C467 C 0.15901 0.57611 0.23404 0.0
C468 C 0.1433 0.56263 0.25224 0.0
H469 H 0.12358 0.56516 1.01344 0.0
H470 H 0.12742 0.56142 0.07724 0.0
C471 C 0.14404 0.55944 0.28891 0.0
C472 C 0.15841 0.57898 0.19472 0.0
H473 H 0.13551 0.58856 0.1303 0.0
C474 C 0.17044 0.57657 0.17203 0.0
C475 C 0.14587 0.58365 0.17946 0.0
C476 C 0.1333 0.58744 0.20235 0.0
C477 C 0.16988 0.57818 0.13452 0.0
C478 C 0.15709 0.5825 0.11929 0.0
C479 C 0.14524 0.58514 0.14198 0.0
C480 C 0.15551 0.5841 0.07985 0.0
C481 C 0.18261 0.57473 0.11142 0.0
C482 C 0.17012 0.598 0.0599 0.0
C483 C 0.16797 0.60019 1.02324 0.0
C484 C 0.15115 0.58855 1.00587 0.0
C485 C 0.13674 0.57436 0.02582 0.0
C486 C 0.13888 0.57222 0.06239 0.0
H487 H 0.18864 0.56761 0.12648 0.0
H488 H 0.17521 0.5663 0.08763 0.0
H489 H 0.19411 0.5881 0.10171 0.0
H490 H 0.18299 0.6075 0.07289 0.0
H491 H 0.17932 0.61134 1.00881 0.0
H492 H 0.57647 0.35601 0.14231 0.0
H493 H 0.58529 0.33564 0.11219 0.0
H494 H 0.54034 0.28866 0.16447 0.0
H495 H 0.53135 0.30889 0.19439 0.0
H496 H 0.59454 0.31057 0.14943 0.0
H497 H 0.53564 0.27481 0.05544 0.0
H498 H 0.54196 0.29676 0.07564 0.0
H499 H 0.52935 0.27588 0.10114 0.0
C500 C 0.56828 0.34132 0.14691 0.0
C501 C 0.55318 0.33404 0.17069 0.0
C502 C 0.57341 0.32973 0.12987 0.0
C503 C 0.56337 0.31067 0.13591 0.0
C504 C 0.54814 0.30333 0.15917 0.0
H505 H 0.58221 0.22076 0.12068 0.0
H506 H 0.57985 0.24759 0.13809 0.0
C507 C 0.5431 0.3149 0.17643 0.0
C508 C 0.56923 0.29843 0.11934 0.0
H509 H 0.5545 0.26134 0.06387 0.0
C510 C 0.58593 0.29995 0.13036 0.0
C511 C 0.55803 0.28473 0.09426 0.0
C512 C 0.54031 0.28297 0.0806 0.0
C513 C 0.59131 0.28754 0.11814 0.0
C514 C 0.57965 0.27327 0.09443 0.0
C515 C 0.56338 0.27228 0.08215 0.0
C516 C 0.58332 0.25839 0.08416 0.0
C517 C 0.60926 0.28958 0.13108 0.0
C518 C 0.58618 0.25567 0.04811 0.0
C519 C 0.58761 0.24037 0.03815 0.0
C520 C 0.58586 0.22741 0.06405 0.0
C521 C 0.58355 0.23051 0.10023 0.0
C522 C 0.58231 0.24587 0.1102 0.0
H523 H 0.61871 0.30367 0.14139 0.0
H524 H 0.6064 0.27966 0.15322 0.0
H525 H 0.61632 0.28651 0.10921 0.0
H526 H 0.58684 0.26512 0.02762 0.0
H527 H 0.58915 0.23818 1.01004 0.0
H528 H 0.33644 0.53456 0.29486 0.0
H529 H 0.31013 0.53652 0.31729 0.0
H530 H 0.28269 0.51711 0.21563 0.0
H531 H 0.30909 0.51538 0.19264 0.0
H532 H 0.29409 0.55703 0.28842 0.0
H533 H 0.24511 0.48141 0.29116 0.0
H534 H 0.26978 0.49113 0.2881 0.0
H535 H 0.25692 0.49081 0.2494 0.0
C536 C 0.32494 0.53089 0.27705 0.0
C537 C 0.32492 0.52475 0.24191 0.0
C538 C 0.30987 0.53193 0.29001 0.0
C539 C 0.29442 0.52677 0.26824 0.0
C540 C 0.29438 0.52087 0.23304 0.0
H541 H 0.20514 0.54792 0.32616 0.0
H542 H 0.229 0.5457 0.29211 0.0
C543 C 0.30947 0.51984 0.22 0.0
C544 C 0.27838 0.52756 0.28262 0.0
H545 H 0.23347 0.5006 0.30858 0.0
C546 C 0.28078 0.54473 0.29261 0.0
C547 C 0.26111 0.51144 0.28822 0.0
C548 C 0.258 0.4926 0.27896 0.0
C549 C 0.26639 0.54621 0.30847 0.0
C550 C 0.24914 0.53008 0.31418 0.0
C551 C 0.24668 0.51293 0.30383 0.0
C552 C 0.23396 0.53061 0.33338 0.0
C553 C 0.26991 0.5649 0.32015 0.0
C554 C 0.22856 0.52244 0.36735 0.0
C555 C 0.21495 0.52364 0.38672 0.0
C556 C 0.20638 0.53292 0.3724 0.0
C557 C 0.21142 0.54061 0.33783 0.0
C558 C 0.22514 0.53949 0.31849 0.0
H559 H 0.28481 0.57546 0.31941 0.0
H560 H 0.26249 0.56942 0.30196 0.0
H561 H 0.26463 0.56423 0.34778 0.0
H562 H 0.23514 0.51544 0.37918 0.0
H563 H 0.21116 0.5173 0.41298 0.0
H564 H 0.64328 0.20036 0.49297 0.0
H565 H 0.6724 0.22393 0.46659 0.0
H566 H 0.6858 0.25531 0.56449 0.0
H567 H 0.6566 0.2321 0.5909 0.0
H568 H 0.68634 0.26373 0.459 0.0
H569 H 0.73055 0.24753 0.54464 0.0
H570 H 0.7062 0.23164 0.53859 0.0
H571 H 0.7138 0.25109 0.56787 0.0
C572 C 0.65226 0.21234 0.50884 0.0
C573 C 0.64755 0.21418 0.54427 0.0
C574 C 0.66896 0.22576 0.49373 0.0
C575 C 0.68134 0.2412 0.51379 0.0
C576 C 0.67657 0.24331 0.5488 0.0
H577 H 0.7922 0.33264 0.47523 0.0
H578 H 0.76218 0.31076 0.50087 0.0
C579 C 0.65986 0.22997 0.56389 0.0
C580 C 0.69927 0.25512 0.49818 0.0
H581 H 0.74578 0.27346 0.50662 0.0
C582 C 0.69936 0.26585 0.46928 0.0
C583 C 0.71618 0.25789 0.51186 0.0
C584 C 0.7168 0.24637 0.54228 0.0
C585 C 0.71598 0.27952 0.45396 0.0
C586 C 0.73293 0.28217 0.46738 0.0
C587 C 0.7328 0.27144 0.49638 0.0
C588 C 0.75097 0.2958 0.45141 0.0
C589 C 0.71522 0.29125 0.42411 0.0
C590 C 0.75473 0.29458 0.41516 0.0
C591 C 0.77181 0.3072 0.40029 0.0
C592 C 0.78566 0.32122 0.42145 0.0
C593 C 0.78187 0.32227 0.45791 0.0
C594 C 0.76472 0.30967 0.47272 0.0
H595 H 0.70201 0.2913 0.42439 0.0
H596 H 0.72678 0.30568 0.42608 0.0
H597 H 0.71628 0.28556 0.39793 0.0
H598 H 0.7445 0.28376 0.39836 0.0
H599 H 0.77406 0.30598 0.3721 0.0
H600 H 0.48323 0.81562 0.62615 0.0
H601 H 0.48215 0.78959 0.65798 0.0
H602 H 0.47682 0.76221 0.55719 0.0
H603 H 0.47761 0.7879 0.52526 0.0
H604 H 0.45387 0.75145 0.65598 0.0
H605 H 0.52111 0.76257 0.60616 0.0
H606 H 0.51474 0.78011 0.60364 0.0
H607 H 0.50579 0.76164 0.57158 0.0
C608 C 0.48173 0.80404 0.61074 0.0
C609 C 0.48069 0.80398 0.57305 0.0
C610 C 0.4812 0.78921 0.62898 0.0
C611 C 0.47973 0.77415 0.60986 0.0
C612 C 0.47839 0.77391 0.57237 0.0
H613 H 0.47396 0.6709 0.65714 0.0
H614 H 0.47456 0.69759 0.62971 0.0
C615 C 0.4789 0.78866 0.55415 0.0
C616 C 0.47926 0.75848 0.62894 0.0
H617 H 0.5018 0.7343 0.63626 0.0
C618 C 0.4644 0.74776 0.65197 0.0
C619 C 0.49303 0.75372 0.6235 0.0
C620 C 0.50967 0.76519 0.60013 0.0
C621 C 0.46265 0.73202 0.66893 0.0
C622 C 0.47632 0.72715 0.66317 0.0
C623 C 0.4913 0.73803 0.6405 0.0
C624 C 0.47532 0.71071 0.68012 0.0
C625 C 0.4459 0.72046 0.69198 0.0
C626 C 0.47564 0.70928 0.71756 0.0
C627 C 0.47514 0.69395 0.73336 0.0
C628 C 0.47445 0.6798 0.712 0.0
C629 C 0.47419 0.68135 0.67445 0.0
C630 C 0.47467 0.69667 0.6587 0.0
H631 H 0.43459 0.72331 0.68626 0.0
H632 H 0.44066 0.70555 0.68783 0.0
H633 H 0.44972 0.72367 0.72063 0.0
H634 H 0.47649 0.72012 0.73459 0.0
H635 H 0.4752 0.69318 0.76231 0.0
H636 H 0.67701 0.48333 0.78349 0.0
H637 H 0.70319 0.48443 0.81469 0.0
H638 H 0.71629 0.46375 0.71998 0.0
H639 H 0.69026 0.46268 0.68868 0.0
H640 H 0.70919 0.45594 0.82925 0.0
H641 H 0.7659 0.50804 0.74467 0.0
H642 H 0.74274 0.50423 0.74284 0.0
H643 H 0.74853 0.48911 0.71933 0.0
C644 C 0.68548 0.47904 0.76932 0.0
C645 C 0.68161 0.47302 0.73353 0.0
C646 C 0.70048 0.47975 0.78711 0.0
C647 C 0.71189 0.4745 0.76944 0.0
C648 C 0.70799 0.46837 0.73381 0.0
H649 H 0.79958 0.45463 0.82945 0.0
H650 H 0.77541 0.45757 0.79906 0.0
C651 C 0.69307 0.46774 0.71596 0.0
C652 C 0.72733 0.47455 0.78874 0.0
H653 H 0.77371 0.49092 0.78494 0.0
C654 C 0.72332 0.46372 0.81979 0.0
C655 C 0.74575 0.48472 0.77627 0.0
C656 C 0.75105 0.49732 0.74415 0.0
C657 C 0.73718 0.4624 0.83818 0.0
C658 C 0.75552 0.47232 0.82535 0.0
C659 C 0.75959 0.48329 0.79455 0.0
C660 C 0.77064 0.47126 0.84338 0.0
C661 C 0.73204 0.45004 0.87065 0.0
C662 C 0.77616 0.47832 0.87806 0.0
C663 C 0.79007 0.4768 0.89543 0.0
C664 C 0.79873 0.46819 0.8784 0.0
C665 C 0.79338 0.46149 0.84328 0.0
C666 C 0.7795 0.46307 0.8259 0.0
H667 H 0.7169 0.44053 0.87268 0.0
H668 H 0.73899 0.44176 0.86989 0.0
H669 H 0.73664 0.45863 0.89524 0.0
H670 H 0.76969 0.485 0.8917 0.0
H671 H 0.79407 0.48245 0.92213 0.0
H672 H 0.21007 0.70286 0.88497 0.0
H673 H 0.23689 0.73001 0.90951 0.0
H674 H 0.24472 0.69583 0.9854 0.0
H675 H 0.21829 0.66844 0.96008 0.0
H676 H 0.24319 0.74403 0.97798 0.0
H677 H 0.29553 0.72528 0.93892 0.0
H678 H 0.27238 0.7136 0.92119 0.0
H679 H 0.27682 0.70815 0.96534 0.0
C680 C 0.21759 0.70102 0.90654 0.0
C681 C 0.21206 0.68337 0.92025 0.0
C682 C 0.23286 0.7166 0.92075 0.0
C683 C 0.24296 0.71492 0.94891 0.0
C684 C 0.23732 0.69741 0.9632 0.0
H685 H 0.32308 0.80622 0.07992 0.0
H686 H 0.29596 0.77831 0.05804 0.0
C687 C 0.22206 0.68177 0.94894 0.0
C688 C 0.25928 0.73157 0.96341 0.0
H689 H 0.3058 0.75174 0.97545 0.0
C690 C 0.25688 0.74573 0.97746 0.0
C691 C 0.27716 0.73384 0.96225 0.0
C692 C 0.28073 0.71951 0.94583 0.0
C693 C 0.27188 0.76208 0.99056 0.0
C694 C 0.28969 0.76416 0.9902 0.0
C695 C 0.2921 0.75004 0.97597 0.0
C696 C 0.3061 0.78107 1.00365 0.0
C697 C 0.26858 0.77715 1.00385 0.0
C698 C 0.32099 0.79166 0.98057 0.0
C699 C 0.33654 0.80758 0.99305 0.0
C700 C 0.33752 0.81321 0.0289 0.0
C701 C 0.32262 0.80247 0.05202 0.0
C702 C 0.30711 0.78651 0.03955 0.0
H703 H 0.25533 0.77539 0.99376 0.0
H704 H 0.26795 0.77676 0.03359 0.0
H705 H 0.27994 0.79092 0.9955 0.0
H706 H 0.3205 0.78769 0.95277 0.0
H707 H 0.34767 0.81561 0.97446 0.0
H708 H 0.55607 0.1832 0.6585 0.0
H709 H 0.54649 0.17901 0.72137 0.0
H710 H 0.53908 0.12438 0.72001 0.0
H711 H 0.54898 0.12856 0.65719 0.0
H712 H 0.51473 0.15321 0.75803 0.0
H713 H 0.57619 0.14949 0.80094 0.0
H714 H 0.57415 0.15687 0.7566 0.0
H715 H 0.56207 0.13279 0.76788 0.0
C716 C 0.55225 0.17021 0.6714 0.0
C717 C 0.5535 0.15629 0.65284 0.0
C718 C 0.54674 0.16784 0.70739 0.0
C719 C 0.5424 0.15152 0.72562 0.0
C720 C 0.54274 0.13724 0.70671 0.0
H721 H 0.528 0.12796 0.95544 0.0
H722 H 0.5262 0.1239 0.89034 0.0
C723 C 0.54831 0.13962 0.67071 0.0
C724 C 0.53839 0.14992 0.76477 0.0
H725 H 0.55498 0.14602 0.84591 0.0
C726 C 0.52346 0.15154 0.77727 0.0
C727 C 0.54982 0.14778 0.78988 0.0
C728 C 0.56655 0.14679 0.77831 0.0
C729 C 0.51968 0.15111 0.81417 0.0
C730 C 0.53131 0.1493 0.83925 0.0
C731 C 0.546 0.1473 0.82669 0.0
C732 C 0.52934 0.15055 0.87867 0.0
C733 C 0.50324 0.15253 0.82593 0.0
C734 C 0.53126 0.16671 0.89389 0.0
C735 C 0.53223 0.16907 0.93115 0.0
C736 C 0.53148 0.15537 0.954 0.0
C737 C 0.5286 0.1388 0.93874 0.0
C738 C 0.52763 0.13646 0.90146 0.0
H739 H 0.49275 0.14811 0.80434 0.0
H740 H 0.49667 0.14404 0.85019 0.0
H741 H 0.50783 0.1671 0.83249 0.0
H742 H 0.53297 0.17793 0.87693 0.0
H743 H 0.53453 0.18203 0.94189 0.0
H744 H 0.42851 0.58977 0.82547 0.0
H745 H 0.41811 0.58216 0.888 0.0
H746 H 0.46887 0.58386 0.91518 0.0
H747 H 0.4795 0.59195 0.85335 0.0
H748 H 0.41211 0.55448 0.93372 0.0
H749 H 0.46934 0.6202 0.98597 0.0
H750 H 0.46446 0.6161 0.9387 0.0
H751 H 0.47738 0.60729 0.96127 0.0
C752 C 0.43735 0.58834 0.84473 0.0
C753 C 0.45492 0.59168 0.83452 0.0
C754 C 0.43143 0.58405 0.8805 0.0
C755 C 0.44293 0.58296 0.90662 0.0
C756 C 0.45999 0.58523 0.8959 0.0
H757 H 0.43066 0.55528 0.13469 0.0
H758 H 0.44074 0.56161 0.07179 0.0
C759 C 0.46599 0.58971 0.86039 0.0
C760 C 0.43729 0.57973 0.94511 0.0
H761 H 0.45115 0.59742 0.02947 0.0
C762 C 0.42061 0.56392 0.95459 0.0
C763 C 0.44832 0.59211 0.97249 0.0
C764 C 0.46577 0.60997 0.96412 0.0
C765 C 0.41489 0.56 0.99061 0.0
C766 C 0.42609 0.57219 1.01787 0.0
C767 C 0.4427 0.58801 1.00851 0.0
C768 C 0.42047 0.56898 0.0562 0.0
C769 C 0.39699 0.54272 0.99948 0.0
C770 C 0.40604 0.57144 0.06838 0.0
C771 C 0.4004 0.56804 0.10427 0.0
C772 C 0.409 0.562 0.12877 0.0
C773 C 0.42374 0.55991 0.1166 0.0
C774 C 0.42949 0.56348 0.08067 0.0
H775 H 0.39137 0.53327 0.97614 0.0
H776 H 0.39896 0.53529 1.02212 0.0
H777 H 0.38664 0.5465 1.00798 0.0
H778 H 0.39904 0.57586 0.05001 0.0
H779 H 0.389 0.56979 0.11258 0.0
H780 H 0.84572 0.41999 0.99478 0.0
H781 H 0.84143 0.40897 0.0571 0.0
H782 H 0.87782 0.46447 0.09342 0.0
H783 H 0.88207 0.47556 0.03174 0.0
H784 H 0.86689 0.41211 0.11162 0.0
H785 H 0.82971 0.44867 0.14925 0.0
H786 H 0.83375 0.44505 0.10317 0.0
H787 H 0.85185 0.46321 0.12897 0.0
C788 C 0.85298 0.4298 1.01601 0.0
C789 C 0.86409 0.44869 1.00825 0.0
C790 C 0.85048 0.42349 0.05161 0.0
C791 C 0.85899 0.43597 0.07999 0.0
C792 C 0.87077 0.45465 0.07208 0.0
H793 H 0.87238 0.41551 0.30369 0.0
H794 H 0.87683 0.42528 0.24083 0.0
C795 C 0.87325 0.46095 0.03669 0.0
C796 C 0.8553 0.42968 0.11799 0.0
H797 H 0.83843 0.43593 0.19705 0.0
C798 C 0.8606 0.41724 0.13028 0.0
C799 C 0.84687 0.43621 0.14224 0.0
C800 C 0.84004 0.44889 0.13026 0.0
C801 C 0.85813 0.41154 0.16637 0.0
C802 C 0.85035 0.41862 0.1909 0.0
C803 C 0.84461 0.43069 0.17837 0.0
C804 C 0.84775 0.41345 0.22955 0.0
C805 C 0.86368 0.39779 0.17787 0.0
C806 C 0.82998 0.40417 0.24454 0.0
C807 C 0.82738 0.39864 0.28055 0.0
C808 C 0.84253 0.40242 0.30245 0.0
C809 C 0.86039 0.41234 0.28767 0.0
C810 C 0.86296 0.41779 0.2516 0.0
H811 H 0.86513 0.39036 0.15458 0.0
H812 H 0.87717 0.40515 0.19178 0.0
H813 H 0.85341 0.38754 0.19681 0.0
H814 H 0.81805 0.40081 0.22813 0.0
H815 H 0.81344 0.39107 0.29098 0.0
H816 H 0.43916 0.83904 0.44513 0.0
H817 H 0.43093 0.83422 0.38136 0.0
H818 H 0.45487 0.89276 0.3668 0.0
H819 H 0.4631 0.89776 0.43029 0.0
H820 H 0.40953 0.84676 0.33761 0.0
H821 H 0.48251 0.87642 0.29447 0.0
H822 H 0.47488 0.86842 0.33967 0.0
H823 H 0.47801 0.89019 0.32521 0.0
C824 C 0.44247 0.85088 0.42848 0.0
C825 C 0.4519 0.8688 0.44286 0.0
C826 C 0.43779 0.84809 0.39204 0.0
C827 C 0.44258 0.86316 0.3693 0.0
C828 C 0.4513 0.88097 0.38381 0.0
H829 H 0.43729 0.88172 0.14276 0.0
H830 H 0.44413 0.88376 0.20687 0.0
C831 C 0.4559 0.88377 0.4202 0.0
C832 C 0.43892 0.8604 0.3302 0.0
H833 H 0.46048 0.86954 0.24871 0.0
C834 C 0.42062 0.85161 0.31811 0.0
C835 C 0.45345 0.86681 0.30491 0.0
C836 C 0.47334 0.87587 0.31656 0.0
C837 C 0.41648 0.84951 0.28126 0.0
C838 C 0.43104 0.85597 0.25587 0.0
C839 C 0.44933 0.86458 0.2681 0.0
C840 C 0.42762 0.85442 0.21651 0.0
C841 C 0.39658 0.84098 0.26991 0.0
C842 C 0.41655 0.8372 0.20027 0.0
C843 C 0.41255 0.83599 0.16359 0.0
C844 C 0.41972 0.85197 0.14229 0.0
C845 C 0.43152 0.86913 0.15831 0.0
C846 C 0.43541 0.87033 0.19503 0.0
H847 H 0.3878 0.84137 0.29183 0.0
H848 H 0.39522 0.84815 0.24612 0.0
H849 H 0.39122 0.82634 0.26273 0.0
H850 H 0.4108 0.82469 0.21606 0.0
H851 H 0.40353 0.82254 0.15211 0.0
H852 H 0.60457 0.41498 0.60712 0.0
H853 H 0.59688 0.40967 0.54341 0.0
H854 H 0.57494 0.4463 0.54776 0.0
H855 H 0.58289 0.45197 0.61144 0.0
H856 H 0.56432 0.39567 0.50801 0.0
H857 H 0.61114 0.46772 0.46461 0.0
H858 H 0.61224 0.45951 0.50876 0.0
H859 H 0.59502 0.46558 0.49865 0.0
C860 C 0.59801 0.42185 0.59465 0.0
C861 C 0.59445 0.43399 0.61446 0.0
C862 C 0.59366 0.41883 0.55813 0.0
C863 C 0.58571 0.4279 0.54052 0.0
C864 C 0.58152 0.43952 0.56048 0.0
H865 H 0.52832 0.39738 0.3381 0.0
H866 H 0.53807 0.40441 0.40038 0.0
C867 C 0.58591 0.44259 0.59703 0.0
C868 C 0.58162 0.42499 0.50141 0.0
H869 H 0.59006 0.44738 0.42083 0.0
C870 C 0.57001 0.40698 0.48897 0.0
C871 C 0.58932 0.43969 0.47636 0.0
C872 C 0.60277 0.45919 0.48763 0.0
C873 C 0.5655 0.40333 0.45246 0.0
C874 C 0.57251 0.41812 0.42765 0.0
C875 C 0.58453 0.43607 0.43987 0.0
C876 C 0.56702 0.41516 0.3892 0.0
C877 C 0.55338 0.3836 0.44074 0.0
C878 C 0.58016 0.41965 0.3618 0.0
C879 C 0.57462 0.41576 0.32578 0.0
C880 C 0.55584 0.40737 0.31664 0.0
C881 C 0.54288 0.40363 0.34411 0.0
C882 C 0.54841 0.40755 0.37987 0.0
H883 H 0.55361 0.37379 0.46044 0.0
H884 H 0.53893 0.38057 0.43851 0.0
H885 H 0.55774 0.38113 0.41417 0.0
H886 H 0.59464 0.42569 0.36837 0.0
H887 H 0.58495 0.41884 0.3053 0.0
H888 H 0.17002 0.57338 0.5057 0.0
H889 H 0.17452 0.58176 0.56932 0.0
H890 H 0.11581 0.55784 0.58277 0.0
H891 H 0.11114 0.54922 0.51942 0.0
H892 H 0.16486 0.60325 0.61156 0.0
H893 H 0.12856 0.5306 0.65808 0.0
H894 H 0.13567 0.53695 0.61207 0.0
H895 H 0.11518 0.53622 0.62867 0.0
C896 C 0.15806 0.57006 0.52207 0.0
C897 C 0.14019 0.56048 0.50741 0.0
C898 C 0.16066 0.57483 0.55849 0.0
C899 C 0.14547 0.57005 0.58103 0.0
C900 C 0.12771 0.56126 0.56613 0.0
H901 H 0.13172 0.58305 0.8087 0.0
H902 H 0.12735 0.57504 0.7449 0.0
C903 C 0.12508 0.55647 0.52977 0.0
C904 C 0.14817 0.57403 0.62017 0.0
H905 H 0.13708 0.55353 0.70283 0.0
C906 C 0.15886 0.59238 0.63152 0.0
C907 C 0.14034 0.55983 0.64624 0.0
C908 C 0.12943 0.53977 0.63576 0.0
C909 C 0.16162 0.59695 0.66817 0.0
C910 C 0.15376 0.58275 0.69423 0.0
C911 C 0.14308 0.5644 0.68288 0.0
C912 C 0.15641 0.5867 0.73338 0.0
C913 C 0.17257 0.617 0.67867 0.0
C914 C 0.17414 0.59538 0.74843 0.0
C915 C 0.17669 0.59995 0.7849 0.0
C916 C 0.16154 0.59583 0.80722 0.0
C917 C 0.14371 0.58645 0.79236 0.0
C918 C 0.14118 0.58189 0.75584 0.0
H919 H 0.17351 0.62619 0.65633 0.0
H920 H 0.16631 0.61984 0.7023 0.0
H921 H 0.18679 0.6205 0.68586 0.0
H922 H 0.18607 0.59883 0.73184 0.0
H923 H 0.19061 0.60707 0.79539 0.0
H924 H 0.54246 0.09148 0.1122 0.0
H925 H 0.52281 0.05793 0.1138 0.0
H926 H 0.54156 0.05445 1.00783 0.0
H927 H 0.56137 0.08797 1.00635 0.0
H928 H 0.49458 0.03965 0.06774 0.0
H929 H 0.54188 0.01181 0.05838 0.0
H930 H 0.54973 0.03544 0.07037 0.0
H931 H 0.54586 0.02842 1.02411 0.0
C932 C 0.54267 0.08349 0.0896 0.0
C933 C 0.55339 0.09234 0.05912 0.0
C934 C 0.53147 0.06435 0.09054 0.0
C935 C 0.53076 0.05365 0.06103 0.0
C936 C 0.54215 0.06236 0.03124 0.0
H937 H 0.43777 0.95112 0.99207 0.0
H938 H 0.46246 0.98291 1.00036 0.0
C939 C 0.55347 0.08154 0.03039 0.0
C940 C 0.51656 0.0338 0.05973 0.0
H941 H 0.51 0.99071 0.04577 0.0
C942 C 0.49799 0.02894 0.06329 0.0
C943 C 0.521 0.01982 0.05417 0.0
C944 C 0.54071 0.02408 0.05188 0.0
C945 C 0.48372 0.01058 0.06056 0.0
C946 C 0.48811 0.9967 0.0534 0.0
C947 C 0.50668 1.00143 0.05085 0.0
C948 C 0.47351 0.97726 0.04793 0.0
C949 C 0.46406 0.00619 0.06548 0.0
C950 C 0.47179 0.96346 0.07146 0.0
C951 C 0.45761 0.94522 0.06687 0.0
C952 C 0.44494 0.94044 0.03851 0.0
C953 C 0.44698 0.95432 1.01463 0.0
C954 C 0.46114 0.97251 1.01924 0.0
H955 H 0.46333 0.01735 0.08003 0.0
H956 H 0.45762 0.00463 0.03876 0.0
H957 H 0.45584 0.99309 0.08048 0.0
H958 H 0.48122 0.96686 0.09375 0.0
H959 H 0.45639 0.93495 0.08592 0.0
H960 H 0.47607 0.39481 0.15657 0.0
H961 H 0.46006 0.41235 0.15987 0.0
H962 H 0.4969 0.44598 0.24394 0.0
H963 H 0.51303 0.42859 0.24056 0.0
H964 H 0.4416 0.41589 0.21561 0.0
H965 H 0.49893 0.48473 0.17656 0.0
H966 H 0.49997 0.46396 0.17042 0.0
H967 H 0.50471 0.47497 0.21362 0.0
C968 C 0.48076 0.40594 0.17574 0.0
C969 C 0.49587 0.41035 0.19822 0.0
C970 C 0.47166 0.41601 0.17748 0.0
C971 C 0.47748 0.4307 0.2017 0.0
C972 C 0.49249 0.43506 0.22433 0.0
H973 H 0.41297 0.47528 0.28827 0.0
H974 H 0.43014 0.45949 0.27651 0.0
C975 C 0.50167 0.42507 0.22245 0.0
C976 C 0.46725 0.44079 0.20461 0.0
H977 H 0.47244 0.48381 0.20289 0.0
C978 C 0.44832 0.43073 0.21254 0.0
C979 C 0.47595 0.46012 0.20006 0.0
C980 C 0.49597 0.47156 0.18933 0.0
C981 C 0.43799 0.4395 0.2171 0.0
C982 C 0.4469 0.45892 0.21443 0.0
C983 C 0.46569 0.46895 0.20538 0.0
C984 C 0.437 0.46904 0.22169 0.0
C985 C 0.41757 0.42785 0.22449 0.0
C986 C 0.43572 0.48022 0.1952 0.0
C987 C 0.42595 0.48937 0.20193 0.0
C988 C 0.41732 0.4875 0.23531 0.0
C989 C 0.41907 0.47667 0.26203 0.0
C990 C 0.42889 0.46762 0.25535 0.0
H991 H 0.41201 0.41343 0.21526 0.0
H992 H 0.41513 0.42749 0.25382 0.0
H993 H 0.40977 0.43362 0.2111 0.0
H994 H 0.44199 0.48159 0.1691 0.0
H995 H 0.42479 0.49754 0.18076 0.0
H996 H 0.07503 0.46361 0.44682 0.0
H997 H 0.04157 0.44636 0.44137 0.0
H998 H 0.04419 0.4854 0.36314 0.0
H999 H 0.07782 0.50239 0.36725 0.0
H1000 H 0.01723 0.45823 0.45574 0.0
H1001 H 0.01138 0.43648 0.31333 0.0
H1002 H 0.03268 0.44575 0.33808 0.0
H1003 H 0.02527 0.46087 0.32044 0.0
C1004 C 0.06861 0.46841 0.42792 0.0
C1005 C 0.07926 0.48439 0.40729 0.0
C1006 C 0.04941 0.45858 0.42507 0.0
C1007 C 0.04038 0.46444 0.40152 0.0
C1008 C 0.05088 0.48042 0.38099 0.0
H1009 H 0.9228 0.42071 0.36356 0.0
H1010 H 0.95651 0.43987 0.36385 0.0
C1011 C 0.07013 0.49025 0.38372 0.0
C1012 C 0.01994 0.45408 0.39955 0.0
H1013 H 0.9836 0.4294 0.34313 0.0
C1014 C 0.00988 0.45191 0.43112 0.0
C1015 C 0.01038 0.44591 0.36735 0.0
C1016 C 0.02044 0.44719 0.33291 0.0
C1017 C 0.99054 0.44178 0.43141 0.0
C1018 C 0.98101 0.43341 0.39937 0.0
C1019 C 0.991 0.43584 0.36763 0.0
C1020 C 0.96067 0.42168 0.39862 0.0
C1021 C 0.98042 0.44019 0.46593 0.0
C1022 C 0.95191 0.405 0.41763 0.0
C1023 C 0.9327 0.39405 0.41753 0.0
C1024 C 0.92186 0.39958 0.39842 0.0
C1025 C 0.93073 0.41619 0.37895 0.0
C1026 C 0.94997 0.4271 0.3789 0.0
H1027 H 0.98939 0.45084 0.4857 0.0
H1028 H 0.96808 0.44148 0.46086 0.0
H1029 H 0.9757 0.42646 0.47805 0.0
H1030 H 0.95996 0.40049 0.43267 0.0
H1031 H 0.92633 0.38144 0.43302 0.0
H1032 H 0.54693 0.93966 0.57449 0.0
H1033 H 0.55915 0.97283 0.58147 0.0
H1034 H 0.50908 0.96675 0.5362 0.0
H1035 H 0.49666 0.9336 0.5305 0.0
H1036 H 0.56735 0.99802 0.5335 0.0
H1037 H 0.51395 0.99764 0.62071 0.0
H1038 H 0.51521 0.97714 0.61248 0.0
H1039 H 0.50374 0.98433 0.58107 0.0
C1040 C 0.53852 0.94545 0.56638 0.0
C1041 C 0.52081 0.93409 0.55223 0.0
C1042 C 0.54547 0.96436 0.57044 0.0
C1043 C 0.5349 0.97229 0.56009 0.0
C1044 C 0.51726 0.96093 0.54561 0.0
H1045 H 0.5763 0.08339 0.48877 0.0
H1046 H 0.56569 0.05069 0.49629 0.0
C1047 C 0.5102 0.94199 0.54214 0.0
C1048 C 0.54275 0.99256 0.56209 0.0
H1049 H 0.5329 0.02571 0.58768 0.0
C1050 C 0.55991 0.00406 0.5458 0.0
C1051 C 0.53329 1.00058 0.57879 0.0
C1052 C 0.51564 0.98926 0.59959 0.0
C1053 C 0.56749 0.02323 0.54442 0.0
C1054 C 0.55732 0.03108 0.55854 0.0
C1055 C 0.54055 0.01968 0.57624 0.0
C1056 C 0.56355 0.05094 0.55418 0.0
C1057 C 0.58639 0.03481 0.52801 0.0
C1058 C 0.56508 0.06185 0.58401 0.0
C1059 C 0.5708 0.08053 0.57962 0.0
C1060 C 0.57522 0.08862 0.54537 0.0
C1061 C 0.57339 0.07761 0.51555 0.0
C1062 C 0.56741 0.05893 0.51986 0.0
H1063 H 0.5947 0.02793 0.53038 0.0
H1064 H 0.58492 0.03677 0.49902 0.0
H1065 H 0.59407 0.04856 0.54093 0.0
H1066 H 0.56201 0.05596 0.61072 0.0
H1067 H 0.57213 0.08873 0.60302 0.0
H1068 H 0.60938 0.53322 0.76622 0.0
H1069 H 0.59078 0.54813 0.76538 0.0
H1070 H 0.56156 0.51611 0.67256 0.0
H1071 H 0.57992 0.50089 0.67379 0.0
H1072 H 0.5884 0.56931 0.71537 0.0
H1073 H 0.51927 0.50797 0.73604 0.0
H1074 H 0.54028 0.50738 0.74235 0.0
H1075 H 0.53112 0.50572 0.69801 0.0
C1076 C 0.599 0.52937 0.74564 0.0
C1077 C 0.59608 0.51587 0.72009 0.0
C1078 C 0.58832 0.53783 0.74527 0.0
C1079 C 0.57456 0.53303 0.71928 0.0
C1080 C 0.57173 0.51967 0.6935 0.0
H1081 H 0.52966 0.60242 0.65947 0.0
H1082 H 0.54591 0.58512 0.66195 0.0
C1083 C 0.58228 0.51104 0.6941 0.0
C1084 C 0.56379 0.54263 0.71832 0.0
H1085 H 0.52001 0.53564 0.71847 0.0
C1086 C 0.57345 0.56194 0.71623 0.0
C1087 C 0.54428 0.53303 0.71998 0.0
C1088 C 0.53312 0.5124 0.72459 0.0
C1089 C 0.56417 0.57191 0.71524 0.0
C1090 C 0.54465 0.56227 0.71526 0.0
C1091 C 0.53497 0.54298 0.71797 0.0
C1092 C 0.53406 0.57202 0.71282 0.0
C1093 C 0.57541 0.59268 0.71491 0.0
C1094 C 0.52139 0.56979 0.7398 0.0
C1095 C 0.51191 0.5795 0.73817 0.0
C1096 C 0.51499 0.59165 0.7096 0.0
C1097 C 0.52731 0.59345 0.68217 0.0
C1098 C 0.53662 0.58361 0.68361 0.0
H1099 H 0.58951 0.59779 0.72568 0.0
H1100 H 0.57685 0.59767 0.68688 0.0
H1101 H 0.56866 0.59878 0.73096 0.0
H1102 H 0.51913 0.56084 0.76249 0.0
H1103 H 0.50257 0.57791 0.75976 0.0
H1104 H 0.0768 0.60372 0.96621 0.0
H1105 H 0.04332 0.58504 0.96033 0.0
H1106 H 0.04982 0.56423 0.85892 0.0
H1107 H 0.08337 0.58286 0.8647 0.0
H1108 H 0.02093 0.58602 0.90842 0.0
H1109 H 0.01478 0.51713 0.91252 0.0
H1110 H 0.03565 0.53792 0.92498 0.0
H1111 H 0.03022 0.53207 0.87846 0.0
C1112 C 0.07113 0.59525 0.94257 0.0
C1113 C 0.08277 0.59476 0.91594 0.0
C1114 C 0.05199 0.58451 0.93934 0.0
C1115 C 0.04408 0.57303 0.90947 0.0
C1116 C 0.05563 0.57264 0.88263 0.0
H1117 H 0.93055 0.52689 0.83993 0.0
H1118 H 0.9641 0.54431 0.84579 0.0
C1119 C 0.0748 0.58332 0.88593 0.0
C1120 C 0.02373 0.56193 0.90604 0.0
H1121 H 0.98769 0.51794 0.8973 0.0
C1122 C 0.01365 0.57113 0.90608 0.0
C1123 C 0.01425 0.54249 0.90347 0.0
C1124 C 0.02424 0.53177 0.90519 0.0
C1125 C 0.99437 0.56144 0.90316 0.0
C1126 C 0.98494 0.54205 0.89937 0.0
C1127 C 0.99498 0.53282 0.89984 0.0
C1128 C 0.96462 0.53111 0.89527 0.0
C1129 C 0.98425 0.57203 0.90483 0.0
C1130 C 0.95382 0.51751 0.92053 0.0
C1131 C 0.93462 0.50746 0.91717 0.0
C1132 C 0.92588 0.51083 0.88842 0.0
C1133 C 0.93681 0.52422 0.86278 0.0
C1134 C 0.95599 0.53419 0.86608 0.0
H1135 H 0.99279 0.58578 0.91737 0.0
H1136 H 0.98081 0.57419 0.8772 0.0
H1137 H 0.97119 0.56433 0.92024 0.0
H1138 H 0.96023 0.51487 0.9432 0.0
H1139 H 0.92661 0.49735 0.9375 0.0
loop_
_geom_bond_atom_site_label_1
_geom_bond_atom_site_label_2
_geom_bond_distance
_geom_bond_site_symmetry_2
_ccdc_geom_bond_type
Cu0 N1 1.999 . S
Cu0 O6 1.974 1_554 S
Cu0 N11 1.985 . S
Cu0 O20 1.959 . S
N1 Cu0 1.999 . S
N1 C3 1.263 . S
N1 C5 1.389 . S
N2 C3 1.358 . S
N2 C4 1.400 . S
C3 N1 1.263 . S
C3 N2 1.358 . S
C3 H9 0.930 . S
C4 N2 1.400 . S
C4 C5 1.351 . S
C4 H21 0.930 . S
C5 N1 1.389 . S
C5 C4 1.351 . S
C5 H10 0.930 . S
O6 Cu0 1.974 1_556 S
O6 C16 1.282 . S
C7 O8 1.261 . S
C7 O20 1.251 . S
O8 C7 1.261 . S
H9 C3 0.930 . S
H10 C5 0.930 . S
N11 Cu0 1.985 . S
N11 C13 1.335 . S
N11 C14 1.390 . S
N12 C13 1.345 . S
N12 C15 1.336 . S
C13 N11 1.335 . S
C13 N12 1.345 . S
C13 H18 0.930 . S
C14 N11 1.390 . S
C14 C15 1.346 . S
C14 H19 0.930 1_554 S
C15 N12 1.336 . S
C15 C14 1.346 . S
C15 H22 0.929 . S
C16 O6 1.282 . S
C16 O17 1.216 . S
O17 C16 1.216 . S
H18 C13 0.930 . S
H19 C14 0.930 1_556 S
O20 Cu0 1.959 . S
O20 C7 1.251 . S
H21 C4 0.930 . S
H22 C15 0.929 . S
Cu23 N24 1.999 . S
Cu23 O29 1.974 . S
Cu23 N34 1.985 . S
Cu23 O43 1.959 . S
N24 Cu23 1.999 . S
N24 C26 1.263 . S
N24 C28 1.389 . S
N25 C26 1.358 . S
N25 C27 1.400 . S
C26 N24 1.263 . S
C26 N25 1.358 . S
C26 H32 0.930 . S
C27 N25 1.400 . S
C27 C28 1.351 . S
C27 H44 0.930 . S
C28 N24 1.389 . S
C28 C27 1.351 . S
C28 H33 0.930 . S
O29 Cu23 1.974 . S
O29 C39 1.282 . S
C30 O31 1.261 . S
C30 O43 1.251 . S
O31 C30 1.261 . S
H32 C26 0.930 . S
H33 C28 0.930 . S
N34 Cu23 1.985 . S
N34 C36 1.335 . S
N34 C37 1.390 . S
N35 C36 1.345 . S
N35 C38 1.336 . S
C36 N34 1.335 . S
C36 N35 1.345 . S
C36 H41 0.930 . S
C37 N34 1.390 . S
C37 C38 1.346 . S
C37 H42 0.930 . S
C38 N35 1.336 . S
C38 C37 1.346 . S
C38 H45 0.929 . S
C39 O29 1.282 . S
C39 O40 1.216 . S
O40 C39 1.216 . S
H41 C36 0.930 . S
H42 C37 0.930 . S
O43 Cu23 1.959 . S
O43 C30 1.251 . S
H44 C27 0.930 . S
H45 C38 0.929 . S
Cu46 N47 1.999 . S
Cu46 O52 1.974 . S
Cu46 N57 1.985 . S
Cu46 O66 1.959 . S
N47 Cu46 1.999 . S
N47 C49 1.263 . S
N47 C51 1.389 . S
N48 C49 1.358 . S
N48 C50 1.400 . S
C49 N47 1.263 . S
C49 N48 1.358 . S
C49 H55 0.930 . S
C50 N48 1.400 . S
C50 C51 1.351 . S
C50 H67 0.930 . S
C51 N47 1.389 . S
C51 C50 1.351 . S
C51 H56 0.930 . S
O52 Cu46 1.974 . S
O52 C62 1.282 . S
C53 O54 1.261 . S
C53 O66 1.251 . S
O54 C53 1.261 . S
H55 C49 0.930 . S
H56 C51 0.930 . S
N57 Cu46 1.985 . S
N57 C59 1.335 . S
N57 C60 1.390 . S
N58 C59 1.345 . S
N58 C61 1.336 . S
C59 N57 1.335 . S
C59 N58 1.345 . S
C59 H64 0.930 . S
C60 N57 1.390 . S
C60 C61 1.346 . S
C60 H65 0.930 . S
C61 N58 1.336 . S
C61 C60 1.346 . S
C61 H68 0.929 . S
C62 O52 1.282 . S
C62 O63 1.216 . S
O63 C62 1.216 . S
H64 C59 0.930 . S
H65 C60 0.930 . S
O66 Cu46 1.959 . S
O66 C53 1.251 . S
H67 C50 0.930 . S
H68 C61 0.929 . S
Cu69 N70 1.999 . S
Cu69 O75 1.974 . S
Cu69 N80 1.985 . S
Cu69 O89 1.959 . S
N70 Cu69 1.999 . S
N70 C72 1.263 . S
N70 C74 1.389 . S
N71 C72 1.358 . S
N71 C73 1.400 . S
C72 N70 1.263 . S
C72 N71 1.358 . S
C72 H78 0.930 . S
C73 N71 1.400 . S
C73 C74 1.351 . S
C73 H90 0.930 . S
C74 N70 1.389 . S
C74 C73 1.351 . S
C74 H79 0.930 . S
O75 Cu69 1.974 . S
O75 C85 1.282 . S
C76 O77 1.261 . S
C76 O89 1.251 . S
O77 C76 1.261 . S
H78 C72 0.930 . S
H79 C74 0.930 . S
N80 Cu69 1.985 . S
N80 C82 1.335 . S
N80 C83 1.390 . S
N81 C82 1.345 . S
N81 C84 1.336 . S
C82 N80 1.335 . S
C82 N81 1.345 . S
C82 H87 0.930 . S
C83 N80 1.390 . S
C83 C84 1.346 . S
C83 H88 0.930 . S
C84 N81 1.336 . S
C84 C83 1.346 . S
C84 H91 0.929 . S
C85 O75 1.282 . S
C85 O86 1.216 . S
O86 C85 1.216 . S
H87 C82 0.930 . S
H88 C83 0.930 . S
O89 Cu69 1.959 . S
O89 C76 1.251 . S
H90 C73 0.930 . S
H91 C84 0.929 . S
Cu92 N93 1.999 . S
Cu92 O98 1.974 . S
Cu92 N103 1.985 . S
Cu92 O112 1.959 . S
N93 Cu92 1.999 . S
N93 C95 1.263 . S
N93 C97 1.389 . S
N94 C95 1.358 . S
N94 C96 1.400 . S
C95 N93 1.263 . S
C95 N94 1.358 . S
C95 H101 0.930 . S
C96 N94 1.400 . S
C96 C97 1.351 . S
C96 H113 0.930 . S
C97 N93 1.389 . S
C97 C96 1.351 . S
C97 H102 0.930 . S
O98 Cu92 1.974 . S
O98 C108 1.282 . S
C99 O100 1.261 . S
C99 O112 1.251 . S
O100 C99 1.261 . S
H101 C95 0.930 . S
H102 C97 0.930 . S
N103 Cu92 1.985 . S
N103 C105 1.335 . S
N103 C106 1.390 . S
N104 C105 1.345 . S
N104 C107 1.336 . S
C105 N103 1.335 . S
C105 N104 1.345 . S
C105 H110 0.930 . S
C106 N103 1.390 . S
C106 C107 1.346 . S
C106 H111 0.930 . S
C107 N104 1.336 . S
C107 C106 1.346 . S
C107 H114 0.929 . S
C108 O98 1.282 . S
C108 O109 1.216 . S
O109 C108 1.216 . S
H110 C105 0.930 . S
H111 C106 0.930 . S
O112 Cu92 1.959 . S
O112 C99 1.251 . S
H113 C96 0.930 . S
H114 C107 0.929 . S
Cu115 N116 1.999 . S
Cu115 O121 1.974 . S
Cu115 N126 1.985 . S
Cu115 O135 1.959 . S
N116 Cu115 1.999 . S
N116 C118 1.263 . S
N116 C120 1.389 . S
N117 C118 1.358 . S
N117 C119 1.400 . S
C118 N116 1.263 . S
C118 N117 1.358 . S
C118 H124 0.930 . S
C119 N117 1.400 . S
C119 C120 1.351 . S
C119 H136 0.930 . S
C120 N116 1.389 . S
C120 C119 1.351 . S
C120 H125 0.930 . S
O121 Cu115 1.974 . S
O121 C131 1.282 . S
C122 O123 1.261 . S
C122 O135 1.251 . S
O123 C122 1.261 . S
H124 C118 0.930 . S
H125 C120 0.930 . S
N126 Cu115 1.985 . S
N126 C128 1.335 . S
N126 C129 1.390 . S
N127 C128 1.345 . S
N127 C130 1.336 . S
C128 N126 1.335 . S
C128 N127 1.345 . S
C128 H133 0.930 . S
C129 N126 1.390 . S
C129 C130 1.346 . S
C129 H134 0.930 . S
C130 N127 1.336 . S
C130 C129 1.346 . S
C130 H137 0.929 . S
C131 O121 1.282 . S
C131 O132 1.216 . S
O132 C131 1.216 . S
H133 C128 0.930 . S
H134 C129 0.930 . S
O135 Cu115 1.959 . S
O135 C122 1.251 . S
H136 C119 0.930 . S
H137 C130 0.929 . S
Cu138 N139 1.999 . S
Cu138 O144 1.974 . S
Cu138 N149 1.985 . S
Cu138 O158 1.959 . S
N139 Cu138 1.999 . S
N139 C141 1.263 . S
N139 C143 1.389 . S
N140 C141 1.358 . S
N140 C142 1.400 . S
C141 N139 1.263 . S
C141 N140 1.358 . S
C141 H147 0.930 . S
C142 N140 1.400 . S
C142 C143 1.351 . S
C142 H159 0.930 . S
C143 N139 1.389 . S
C143 C142 1.351 . S
C143 H148 0.930 . S
O144 Cu138 1.974 . S
O144 C154 1.282 . S
C145 O146 1.261 . S
C145 O158 1.251 . S
O146 C145 1.261 . S
H147 C141 0.930 . S
H148 C143 0.930 . S
N149 Cu138 1.985 . S
N149 C151 1.335 . S
N149 C152 1.390 . S
N150 C151 1.345 . S
N150 C153 1.336 . S
C151 N149 1.335 . S
C151 N150 1.345 . S
C151 H156 0.930 . S
C152 N149 1.390 . S
C152 C153 1.346 . S
C152 H157 0.930 . S
C153 N150 1.336 . S
C153 C152 1.346 . S
C153 H160 0.929 . S
C154 O144 1.282 . S
C154 O155 1.216 . S
O155 C154 1.216 . S
H156 C151 0.930 . S
H157 C152 0.930 . S
O158 Cu138 1.959 . S
O158 C145 1.251 . S
H159 C142 0.930 . S
H160 C153 0.929 . S
Cu161 N162 1.999 . S
Cu161 O167 1.974 . S
Cu161 N172 1.985 . S
Cu161 O181 1.959 1_554 S
N162 Cu161 1.999 . S
N162 C164 1.263 . S
N162 C166 1.389 1_554 S
N163 C164 1.358 . S
N163 C165 1.400 . S
C164 N162 1.263 . S
C164 N163 1.358 . S
C164 H170 0.930 . S
C165 N163 1.400 . S
C165 C166 1.351 1_554 S
C165 H182 0.930 1_554 S
C166 N162 1.389 1_556 S
C166 C165 1.351 1_556 S
C166 H171 0.930 . S
O167 Cu161 1.974 . S
O167 C177 1.282 . S
C168 O169 1.261 . S
C168 O181 1.251 . S
O169 C168 1.261 . S
H170 C164 0.930 . S
H171 C166 0.930 . S
N172 Cu161 1.985 . S
N172 C174 1.335 1_554 S
N172 C175 1.390 . S
N173 C174 1.345 1_554 S
N173 C176 1.336 . S
C174 N172 1.335 1_556 S
C174 N173 1.345 1_556 S
C174 H179 0.930 . S
C175 N172 1.390 . S
C175 C176 1.346 . S
C175 H180 0.930 . S
C176 N173 1.336 . S
C176 C175 1.346 . S
C176 H183 0.929 . S
C177 O167 1.282 . S
C177 O178 1.216 . S
O178 C177 1.216 . S
H179 C174 0.930 . S
H180 C175 0.930 . S
O181 Cu161 1.959 1_556 S
O181 C168 1.251 . S
H182 C165 0.930 1_556 S
H183 C176 0.929 . S
Cu184 N185 1.999 . S
Cu184 O190 1.974 . S
Cu184 N195 1.985 . S
Cu184 O204 1.959 . S
N185 Cu184 1.999 . S
N185 C187 1.263 . S
N185 C189 1.389 . S
N186 C187 1.358 . S
N186 C188 1.400 . S
C187 N185 1.263 . S
C187 N186 1.358 . S
C187 H193 0.930 . S
C188 N186 1.400 . S
C188 C189 1.351 . S
C188 H205 0.930 . S
C189 N185 1.389 . S
C189 C188 1.351 . S
C189 H194 0.930 . S
O190 Cu184 1.974 . S
O190 C200 1.282 . S
C191 O192 1.261 . S
C191 O204 1.251 . S
O192 C191 1.261 . S
H193 C187 0.930 . S
H194 C189 0.930 . S
N195 Cu184 1.985 . S
N195 C197 1.335 . S
N195 C198 1.390 . S
N196 C197 1.345 . S
N196 C199 1.336 . S
C197 N195 1.335 . S
C197 N196 1.345 . S
C197 H202 0.930 . S
C198 N195 1.390 . S
C198 C199 1.346 . S
C198 H203 0.930 . S
C199 N196 1.336 . S
C199 C198 1.346 . S
C199 H206 0.929 . S
C200 O190 1.282 . S
C200 O201 1.216 . S
O201 C200 1.216 . S
H202 C197 0.930 . S
H203 C198 0.930 . S
O204 Cu184 1.959 . S
O204 C191 1.251 . S
H205 C188 0.930 . S
H206 C199 0.929 . S
Cu207 N208 1.999 . S
Cu207 O213 1.974 . S
Cu207 N218 1.985 . S
Cu207 O227 1.959 . S
N208 Cu207 1.999 . S
N208 C210 1.263 . S
N208 C212 1.389 . S
N209 C210 1.358 . S
N209 C211 1.400 . S
C210 N208 1.263 . S
C210 N209 1.358 . S
C210 H216 0.930 . S
C211 N209 1.400 . S
C211 C212 1.351 . S
C211 H228 0.930 . S
C212 N208 1.389 . S
C212 C211 1.351 . S
C212 H217 0.930 . S
O213 Cu207 1.974 . S
O213 C223 1.282 . S
C214 O215 1.261 . S
C214 O227 1.251 . S
O215 C214 1.261 . S
H216 C210 0.930 . S
H217 C212 0.930 . S
N218 Cu207 1.985 . S
N218 C220 1.335 . S
N218 C221 1.390 . S
N219 C220 1.345 . S
N219 C222 1.336 . S
C220 N218 1.335 . S
C220 N219 1.345 . S
C220 H225 0.930 . S
C221 N218 1.390 . S
C221 C222 1.346 . S
C221 H226 0.930 . S
C222 N219 1.336 . S
C222 C221 1.346 . S
C222 H229 0.929 . S
C223 O213 1.282 . S
C223 O224 1.216 . S
O224 C223 1.216 . S
H225 C220 0.930 . S
H226 C221 0.930 . S
O227 Cu207 1.959 . S
O227 C214 1.251 . S
H228 C211 0.930 . S
H229 C222 0.929 . S
Cu230 N231 1.999 . S
Cu230 O236 1.974 . S
Cu230 N241 1.985 . S
Cu230 O250 1.959 . S
N231 Cu230 1.999 . S
N231 C233 1.263 . S
N231 C235 1.389 . S
N232 C233 1.358 . S
N232 C234 1.400 . S
C233 N231 1.263 . S
C233 N232 1.358 . S
C233 H239 0.930 . S
C234 N232 1.400 . S
C234 C235 1.351 . S
C234 H251 0.930 . S
C235 N231 1.389 . S
C235 C234 1.351 . S
C235 H240 0.930 . S
O236 Cu230 1.974 . S
O236 C246 1.282 . S
C237 O238 1.261 . S
C237 O250 1.251 . S
O238 C237 1.261 . S
H239 C233 0.930 . S
H240 C235 0.930 . S
N241 Cu230 1.985 . S
N241 C243 1.335 . S
N241 C244 1.390 . S
N242 C243 1.345 . S
N242 C245 1.336 . S
C243 N241 1.335 . S
C243 N242 1.345 . S
C243 H248 0.930 . S
C244 N241 1.390 . S
C244 C245 1.346 . S
C244 H249 0.930 . S
C245 N242 1.336 . S
C245 C244 1.346 . S
C245 H252 0.929 . S
C246 O236 1.282 . S
C246 O247 1.216 . S
O247 C246 1.216 . S
H248 C243 0.930 . S
H249 C244 0.930 . S
O250 Cu230 1.959 . S
O250 C237 1.251 . S
H251 C234 0.930 . S
H252 C245 0.929 . S
Cu253 N254 1.999 . S
Cu253 O259 1.974 . S
Cu253 N264 1.985 . S
Cu253 O273 1.959 . S
N254 Cu253 1.999 . S
N254 C256 1.263 . S
N254 C258 1.389 . S
N255 C256 1.358 . S
N255 C257 1.400 . S
C256 N254 1.263 . S
C256 N255 1.358 . S
C256 H262 0.930 . S
C257 N255 1.400 . S
C257 C258 1.351 . S
C257 H274 0.930 . S
C258 N254 1.389 . S
C258 C257 1.351 . S
C258 H263 0.930 . S
O259 Cu253 1.974 . S
O259 C269 1.282 . S
C260 O261 1.261 . S
C260 O273 1.251 . S
O261 C260 1.261 . S
H262 C256 0.930 . S
H263 C258 0.930 . S
N264 Cu253 1.985 . S
N264 C266 1.335 . S
N264 C267 1.390 . S
N265 C266 1.345 . S
N265 C268 1.336 . S
C266 N264 1.335 . S
C266 N265 1.345 . S
C266 H271 0.930 . S
C267 N264 1.390 . S
C267 C268 1.346 . S
C267 H272 0.930 . S
C268 N265 1.336 . S
C268 C267 1.346 . S
C268 H275 0.929 . S
C269 O259 1.282 . S
C269 O270 1.216 . S
O270 C269 1.216 . S
H271 C266 0.930 . S
H272 C267 0.930 . S
O273 Cu253 1.959 . S
O273 C260 1.251 . S
H274 C257 0.930 . S
H275 C268 0.929 . S
H276 C284 0.929 . S
H277 C286 0.930 . S
H278 C288 0.930 . S
H279 C291 0.929 . S
H280 C294 0.930 . S
H281 C296 0.960 . S
H282 C296 0.960 . S
H283 C296 0.960 . S
C284 H276 0.929 . S
C284 C285 1.377 . S
C284 C286 1.384 . S
C285 C284 1.377 . S
C285 C291 1.390 . S
C286 H277 0.930 . S
C286 C284 1.384 . S
C286 C287 1.372 . S
C287 C286 1.372 . S
C287 C288 1.400 . S
C287 C292 1.490 . S
C288 H278 0.930 . S
C288 C287 1.400 . S
C288 C291 1.386 . S
H289 C305 0.930 . S
H290 C306 0.931 . S
C291 H279 0.929 . S
C291 C285 1.390 . S
C291 C288 1.386 . S
C292 C287 1.490 . S
C292 C294 1.395 . S
C292 C295 1.403 . S
H293 C299 0.930 . S
C294 H280 0.930 . S
C294 C292 1.395 . S
C294 C297 1.403 . S
C295 C292 1.403 . S
C295 C296 1.524 . S
C295 C299 1.400 . S
C296 H281 0.960 . S
C296 H282 0.960 . S
C296 H283 0.960 . S
C296 C295 1.524 . S
C297 C294 1.403 . S
C297 C298 1.392 . S
C297 C301 1.495 . S
C298 C297 1.392 . S
C298 C299 1.385 . S
C298 C300 1.478 . S
C299 H293 0.930 . S
C299 C295 1.400 . S
C299 C298 1.385 . S
C300 C298 1.478 . S
C300 C302 1.381 . S
C300 C306 1.383 . S
C301 C297 1.495 . S
C301 H307 0.959 . S
C301 H308 0.961 . S
C301 H309 0.960 . S
C302 C300 1.381 . S
C302 C303 1.394 . S
C302 H310 0.930 . S
C303 C302 1.394 . S
C303 C304 1.383 . S
C303 H311 0.929 . S
C304 C303 1.383 . S
C304 C305 1.377 . S
C305 H289 0.930 . S
C305 C304 1.377 . S
C305 C306 1.379 . S
C306 H290 0.931 . S
C306 C300 1.383 . S
C306 C305 1.379 . S
H307 C301 0.959 . S
H308 C301 0.961 . S
H309 C301 0.960 . S
H310 C302 0.930 . S
H311 C303 0.929 . S
H312 C320 0.929 . S
H313 C322 0.930 . S
H314 C324 0.930 . S
H315 C327 0.929 . S
H316 C330 0.930 . S
H317 C332 0.960 . S
H318 C332 0.960 . S
H319 C332 0.960 . S
C320 H312 0.929 . S
C320 C321 1.377 . S
C320 C322 1.384 . S
C321 C320 1.377 . S
C321 C327 1.390 . S
C322 H313 0.930 . S
C322 C320 1.384 . S
C322 C323 1.372 . S
C323 C322 1.372 . S
C323 C324 1.400 . S
C323 C328 1.490 . S
C324 H314 0.930 . S
C324 C323 1.400 . S
C324 C327 1.386 . S
H325 C341 0.930 . S
H326 C342 0.931 . S
C327 H315 0.929 . S
C327 C321 1.390 . S
C327 C324 1.386 . S
C328 C323 1.490 . S
C328 C330 1.395 . S
C328 C331 1.403 . S
H329 C335 0.930 . S
C330 H316 0.930 . S
C330 C328 1.395 . S
C330 C333 1.403 . S
C331 C328 1.403 . S
C331 C332 1.524 . S
C331 C335 1.400 . S
C332 H317 0.960 . S
C332 H318 0.960 . S
C332 H319 0.960 . S
C332 C331 1.524 . S
C333 C330 1.403 . S
C333 C334 1.392 . S
C333 C337 1.495 . S
C334 C333 1.392 . S
C334 C335 1.385 . S
C334 C336 1.478 . S
C335 H329 0.930 . S
C335 C331 1.400 . S
C335 C334 1.385 . S
C336 C334 1.478 . S
C336 C338 1.381 . S
C336 C342 1.383 . S
C337 C333 1.495 . S
C337 H343 0.959 . S
C337 H344 0.961 . S
C337 H345 0.960 . S
C338 C336 1.381 . S
C338 C339 1.394 . S
C338 H346 0.930 . S
C339 C338 1.394 . S
C339 C340 1.383 . S
C339 H347 0.929 . S
C340 C339 1.383 . S
C340 C341 1.377 . S
C341 H325 0.930 . S
C341 C340 1.377 . S
C341 C342 1.379 . S
C342 H326 0.931 . S
C342 C336 1.383 . S
C342 C341 1.379 . S
H343 C337 0.959 . S
H344 C337 0.961 . S
H345 C337 0.960 . S
H346 C338 0.930 . S
H347 C339 0.929 . S
H348 C356 0.929 . S
H349 C358 0.930 . S
H350 C360 0.930 . S
H351 C363 0.929 . S
H352 C366 0.930 . S
H353 C368 0.960 . S
H354 C368 0.960 . S
H355 C368 0.960 . S
C356 H348 0.929 . S
C356 C357 1.377 . S
C356 C358 1.384 . S
C357 C356 1.377 . S
C357 C363 1.390 . S
C358 H349 0.930 . S
C358 C356 1.384 . S
C358 C359 1.372 . S
C359 C358 1.372 . S
C359 C360 1.400 . S
C359 C364 1.490 . S
C360 H350 0.930 . S
C360 C359 1.400 . S
C360 C363 1.386 . S
H361 C377 0.930 . S
H362 C378 0.931 . S
C363 H351 0.929 . S
C363 C357 1.390 . S
C363 C360 1.386 . S
C364 C359 1.490 . S
C364 C366 1.395 . S
C364 C367 1.403 . S
H365 C371 0.930 . S
C366 H352 0.930 . S
C366 C364 1.395 . S
C366 C369 1.403 . S
C367 C364 1.403 . S
C367 C368 1.524 . S
C367 C371 1.400 . S
C368 H353 0.960 . S
C368 H354 0.960 . S
C368 H355 0.960 . S
C368 C367 1.524 . S
C369 C366 1.403 . S
C369 C370 1.392 . S
C369 C373 1.495 . S
C370 C369 1.392 . S
C370 C371 1.385 . S
C370 C372 1.478 . S
C371 H365 0.930 . S
C371 C367 1.400 . S
C371 C370 1.385 . S
C372 C370 1.478 . S
C372 C374 1.381 . S
C372 C378 1.383 . S
C373 C369 1.495 . S
C373 H379 0.959 . S
C373 H380 0.961 . S
C373 H381 0.960 . S
C374 C372 1.381 . S
C374 C375 1.394 . S
C374 H382 0.930 . S
C375 C374 1.394 . S
C375 C376 1.383 . S
C375 H383 0.929 . S
C376 C375 1.383 . S
C376 C377 1.377 . S
C377 H361 0.930 . S
C377 C376 1.377 . S
C377 C378 1.379 . S
C378 H362 0.931 . S
C378 C372 1.383 . S
C378 C377 1.379 . S
H379 C373 0.959 . S
H380 C373 0.961 . S
H381 C373 0.960 . S
H382 C374 0.930 . S
H383 C375 0.929 . S
H384 C392 0.929 . S
H385 C394 0.930 . S
H386 C396 0.930 . S
H387 C399 0.929 . S
H388 C402 0.930 . S
H389 C404 0.960 . S
H390 C404 0.960 . S
H391 C404 0.960 . S
C392 H384 0.929 . S
C392 C393 1.377 . S
C392 C394 1.384 . S
C393 C392 1.377 . S
C393 C399 1.390 . S
C394 H385 0.930 . S
C394 C392 1.384 . S
C394 C395 1.372 . S
C395 C394 1.372 . S
C395 C396 1.400 . S
C395 C400 1.490 . S
C396 H386 0.930 . S
C396 C395 1.400 . S
C396 C399 1.386 . S
H397 C413 0.930 . S
H398 C414 0.931 . S
C399 H387 0.929 . S
C399 C393 1.390 . S
C399 C396 1.386 . S
C400 C395 1.490 . S
C400 C402 1.395 . S
C400 C403 1.403 . S
H401 C407 0.930 . S
C402 H388 0.930 . S
C402 C400 1.395 . S
C402 C405 1.403 . S
C403 C400 1.403 . S
C403 C404 1.524 . S
C403 C407 1.400 . S
C404 H389 0.960 . S
C404 H390 0.960 . S
C404 H391 0.960 . S
C404 C403 1.524 . S
C405 C402 1.403 . S
C405 C406 1.392 . S
C405 C409 1.495 . S
C406 C405 1.392 . S
C406 C407 1.385 . S
C406 C408 1.478 . S
C407 H401 0.930 . S
C407 C403 1.400 . S
C407 C406 1.385 . S
C408 C406 1.478 . S
C408 C410 1.381 . S
C408 C414 1.383 . S
C409 C405 1.495 . S
C409 H415 0.959 . S
C409 H416 0.961 . S
C409 H417 0.960 . S
C410 C408 1.381 . S
C410 C411 1.394 . S
C410 H418 0.930 . S
C411 C410 1.394 . S
C411 C412 1.383 . S
C411 H419 0.929 . S
C412 C411 1.383 . S
C412 C413 1.377 . S
C413 H397 0.930 . S
C413 C412 1.377 . S
C413 C414 1.379 . S
C414 H398 0.931 . S
C414 C408 1.383 . S
C414 C413 1.379 . S
H415 C409 0.959 . S
H416 C409 0.961 . S
H417 C409 0.960 . S
H418 C410 0.930 . S
H419 C411 0.929 . S
H420 C428 0.929 . S
H421 C430 0.930 . S
H422 C432 0.930 . S
H423 C435 0.929 . S
H424 C438 0.930 . S
H425 C440 0.960 . S
H426 C440 0.960 . S
H427 C440 0.960 . S
C428 H420 0.929 . S
C428 C429 1.377 . S
C428 C430 1.384 . S
C429 C428 1.377 . S
C429 C435 1.390 . S
C430 H421 0.930 . S
C430 C428 1.384 . S
C430 C431 1.372 . S
C431 C430 1.372 . S
C431 C432 1.400 . S
C431 C436 1.490 1_554 S
C432 H422 0.930 . S
C432 C431 1.400 . S
C432 C435 1.386 . S
H433 C449 0.930 . S
H434 C450 0.931 . S
C435 H423 0.929 . S
C435 C429 1.390 . S
C435 C432 1.386 . S
C436 C431 1.490 1_556 S
C436 C438 1.395 . S
C436 C439 1.403 . S
H437 C443 0.930 . S
C438 H424 0.930 . S
C438 C436 1.395 . S
C438 C441 1.403 . S
C439 C436 1.403 . S
C439 C440 1.524 . S
C439 C443 1.400 . S
C440 H425 0.960 . S
C440 H426 0.960 . S
C440 H427 0.960 . S
C440 C439 1.524 . S
C441 C438 1.403 . S
C441 C442 1.392 . S
C441 C445 1.495 . S
C442 C441 1.392 . S
C442 C443 1.385 . S
C442 C444 1.478 . S
C443 H437 0.930 . S
C443 C439 1.400 . S
C443 C442 1.385 . S
C444 C442 1.478 . S
C444 C446 1.381 . S
C444 C450 1.383 . S
C445 C441 1.495 . S
C445 H451 0.959 . S
C445 H452 0.961 . S
C445 H453 0.960 . S
C446 C444 1.381 . S
C446 C447 1.394 . S
C446 H454 0.930 . S
C447 C446 1.394 . S
C447 C448 1.383 . S
C447 H455 0.929 . S
C448 C447 1.383 . S
C448 C449 1.377 . S
C449 H433 0.930 . S
C449 C448 1.377 . S
C449 C450 1.379 . S
C450 H434 0.931 . S
C450 C444 1.383 . S
C450 C449 1.379 . S
H451 C445 0.959 . S
H452 C445 0.961 . S
H453 C445 0.960 . S
H454 C446 0.930 . S
H455 C447 0.929 . S
H456 C464 0.929 . S
H457 C466 0.930 . S
H458 C468 0.930 . S
H459 C471 0.929 . S
H460 C474 0.930 . S
H461 C476 0.960 . S
H462 C476 0.960 . S
H463 C476 0.960 . S
C464 H456 0.929 . S
C464 C465 1.377 . S
C464 C466 1.384 . S
C465 C464 1.377 . S
C465 C471 1.390 . S
C466 H457 0.930 . S
C466 C464 1.384 . S
C466 C467 1.372 . S
C467 C466 1.372 . S
C467 C468 1.400 . S
C467 C472 1.490 . S
C468 H458 0.930 . S
C468 C467 1.400 . S
C468 C471 1.386 . S
H469 C485 0.930 . S
H470 C486 0.931 . S
C471 H459 0.929 . S
C471 C465 1.390 . S
C471 C468 1.386 . S
C472 C467 1.490 . S
C472 C474 1.395 . S
C472 C475 1.403 . S
H473 C479 0.930 . S
C474 H460 0.930 . S
C474 C472 1.395 . S
C474 C477 1.403 . S
C475 C472 1.403 . S
C475 C476 1.524 . S
C475 C479 1.400 . S
C476 H461 0.960 . S
C476 H462 0.960 . S
C476 H463 0.960 . S
C476 C475 1.524 . S
C477 C474 1.403 . S
C477 C478 1.392 . S
C477 C481 1.495 . S
C478 C477 1.392 . S
C478 C479 1.385 . S
C478 C480 1.478 . S
C479 H473 0.930 . S
C479 C475 1.400 . S
C479 C478 1.385 . S
C480 C478 1.478 . S
C480 C482 1.381 . S
C480 C486 1.383 . S
C481 C477 1.495 . S
C481 H487 0.959 . S
C481 H488 0.961 . S
C481 H489 0.960 . S
C482 C480 1.381 . S
C482 C483 1.394 1_554 S
C482 H490 0.930 . S
C483 C482 1.394 1_556 S
C483 C484 1.383 . S
C483 H491 0.929 . S
C484 C483 1.383 . S
C484 C485 1.377 . S
C485 H469 0.930 . S
C485 C484 1.377 . S
C485 C486 1.379 1_556 S
C486 H470 0.931 . S
C486 C480 1.383 . S
C486 C485 1.379 1_554 S
H487 C481 0.959 . S
H488 C481 0.961 . S
H489 C481 0.960 . S
H490 C482 0.930 . S
H491 C483 0.929 . S
H492 C500 0.929 . S
H493 C502 0.930 . S
H494 C504 0.930 . S
H495 C507 0.929 . S
H496 C510 0.930 . S
H497 C512 0.960 . S
H498 C512 0.960 . S
H499 C512 0.960 . S
C500 H492 0.929 . S
C500 C501 1.377 . S
C500 C502 1.384 . S
C501 C500 1.377 . S
C501 C507 1.390 . S
C502 H493 0.930 . S
C502 C500 1.384 . S
C502 C503 1.372 . S
C503 C502 1.372 . S
C503 C504 1.400 . S
C503 C508 1.490 . S
C504 H494 0.930 . S
C504 C503 1.400 . S
C504 C507 1.386 . S
H505 C521 0.930 . S
H506 C522 0.931 . S
C507 H495 0.929 . S
C507 C501 1.390 . S
C507 C504 1.386 . S
C508 C503 1.490 . S
C508 C510 1.395 . S
C508 C511 1.403 . S
H509 C515 0.930 . S
C510 H496 0.930 . S
C510 C508 1.395 . S
C510 C513 1.403 . S
C511 C508 1.403 . S
C511 C512 1.524 . S
C511 C515 1.400 . S
C512 H497 0.960 . S
C512 H498 0.960 . S
C512 H499 0.960 . S
C512 C511 1.524 . S
C513 C510 1.403 . S
C513 C514 1.392 . S
C513 C517 1.495 . S
C514 C513 1.392 . S
C514 C515 1.385 . S
C514 C516 1.478 . S
C515 H509 0.930 . S
C515 C511 1.400 . S
C515 C514 1.385 . S
C516 C514 1.478 . S
C516 C518 1.381 . S
C516 C522 1.383 . S
C517 C513 1.495 . S
C517 H523 0.959 . S
C517 H524 0.961 . S
C517 H525 0.960 . S
C518 C516 1.381 . S
C518 C519 1.394 . S
C518 H526 0.930 . S
C519 C518 1.394 . S
C519 C520 1.383 . S
C519 H527 0.929 . S
C520 C519 1.383 . S
C520 C521 1.377 . S
C521 H505 0.930 . S
C521 C520 1.377 . S
C521 C522 1.379 . S
C522 H506 0.931 . S
C522 C516 1.383 . S
C522 C521 1.379 . S
H523 C517 0.959 . S
H524 C517 0.961 . S
H525 C517 0.960 . S
H526 C518 0.930 . S
H527 C519 0.929 . S
H528 C536 0.929 . S
H529 C538 0.930 . S
H530 C540 0.930 . S
H531 C543 0.929 . S
H532 C546 0.930 . S
H533 C548 0.960 . S
H534 C548 0.960 . S
H535 C548 0.960 . S
C536 H528 0.929 . S
C536 C537 1.377 . S
C536 C538 1.384 . S
C537 C536 1.377 . S
C537 C543 1.390 . S
C538 H529 0.930 . S
C538 C536 1.384 . S
C538 C539 1.372 . S
C539 C538 1.372 . S
C539 C540 1.400 . S
C539 C544 1.490 . S
C540 H530 0.930 . S
C540 C539 1.400 . S
C540 C543 1.386 . S
H541 C557 0.930 . S
H542 C558 0.931 . S
C543 H531 0.929 . S
C543 C537 1.390 . S
C543 C540 1.386 . S
C544 C539 1.490 . S
C544 C546 1.395 . S
C544 C547 1.403 . S
H545 C551 0.930 . S
C546 H532 0.930 . S
C546 C544 1.395 . S
C546 C549 1.403 . S
C547 C544 1.403 . S
C547 C548 1.524 . S
C547 C551 1.400 . S
C548 H533 0.960 . S
C548 H534 0.960 . S
C548 H535 0.960 . S
C548 C547 1.524 . S
C549 C546 1.403 . S
C549 C550 1.392 . S
C549 C553 1.495 . S
C550 C549 1.392 . S
C550 C551 1.385 . S
C550 C552 1.478 . S
C551 H545 0.930 . S
C551 C547 1.400 . S
C551 C550 1.385 . S
C552 C550 1.478 . S
C552 C554 1.381 . S
C552 C558 1.383 . S
C553 C549 1.495 . S
C553 H559 0.959 . S
C553 H560 0.961 . S
C553 H561 0.960 . S
C554 C552 1.381 . S
C554 C555 1.394 . S
C554 H562 0.930 . S
C555 C554 1.394 . S
C555 C556 1.383 . S
C555 H563 0.929 . S
C556 C555 1.383 . S
C556 C557 1.377 . S
C557 H541 0.930 . S
C557 C556 1.377 . S
C557 C558 1.379 . S
C558 H542 0.931 . S
C558 C552 1.383 . S
C558 C557 1.379 . S
H559 C553 0.959 . S
H560 C553 0.961 . S
H561 C553 0.960 . S
H562 C554 0.930 . S
H563 C555 0.929 . S
H564 C572 0.929 . S
H565 C574 0.930 . S
H566 C576 0.930 . S
H567 C579 0.929 . S
H568 C582 0.930 . S
H569 C584 0.960 . S
H570 C584 0.960 . S
H571 C584 0.960 . S
C572 H564 0.929 . S
C572 C573 1.377 . S
C572 C574 1.384 . S
C573 C572 1.377 . S
C573 C579 1.390 . S
C574 H565 0.930 . S
C574 C572 1.384 . S
C574 C575 1.372 . S
C575 C574 1.372 . S
C575 C576 1.400 . S
C575 C580 1.490 . S
C576 H566 0.930 . S
C576 C575 1.400 . S
C576 C579 1.386 . S
H577 C593 0.930 . S
H578 C594 0.931 . S
C579 H567 0.929 . S
C579 C573 1.390 . S
C579 C576 1.386 . S
C580 C575 1.490 . S
C580 C582 1.395 . S
C580 C583 1.403 . S
H581 C587 0.930 . S
C582 H568 0.930 . S
C582 C580 1.395 . S
C582 C585 1.403 . S
C583 C580 1.403 . S
C583 C584 1.524 . S
C583 C587 1.400 . S
C584 H569 0.960 . S
C584 H570 0.960 . S
C584 H571 0.960 . S
C584 C583 1.524 . S
C585 C582 1.403 . S
C585 C586 1.392 . S
C585 C589 1.495 . S
C586 C585 1.392 . S
C586 C587 1.385 . S
C586 C588 1.478 . S
C587 H581 0.930 . S
C587 C583 1.400 . S
C587 C586 1.385 . S
C588 C586 1.478 . S
C588 C590 1.381 . S
C588 C594 1.383 . S
C589 C585 1.495 . S
C589 H595 0.959 . S
C589 H596 0.961 . S
C589 H597 0.960 . S
C590 C588 1.381 . S
C590 C591 1.394 . S
C590 H598 0.930 . S
C591 C590 1.394 . S
C591 C592 1.383 . S
C591 H599 0.929 . S
C592 C591 1.383 . S
C592 C593 1.377 . S
C593 H577 0.930 . S
C593 C592 1.377 . S
C593 C594 1.379 . S
C594 H578 0.931 . S
C594 C588 1.383 . S
C594 C593 1.379 . S
H595 C589 0.959 . S
H596 C589 0.961 . S
H597 C589 0.960 . S
H598 C590 0.930 . S
H599 C591 0.929 . S
H600 C608 0.929 . S
H601 C610 0.930 . S
H602 C612 0.930 . S
H603 C615 0.929 . S
H604 C618 0.930 . S
H605 C620 0.960 . S
H606 C620 0.960 . S
H607 C620 0.960 . S
C608 H600 0.929 . S
C608 C609 1.377 . S
C608 C610 1.384 . S
C609 C608 1.377 . S
C609 C615 1.390 . S
C610 H601 0.930 . S
C610 C608 1.384 . S
C610 C611 1.372 . S
C611 C610 1.372 . S
C611 C612 1.400 . S
C611 C616 1.490 . S
C612 H602 0.930 . S
C612 C611 1.400 . S
C612 C615 1.386 . S
H613 C629 0.930 . S
H614 C630 0.931 . S
C615 H603 0.929 . S
C615 C609 1.390 . S
C615 C612 1.386 . S
C616 C611 1.490 . S
C616 C618 1.395 . S
C616 C619 1.403 . S
H617 C623 0.930 . S
C618 H604 0.930 . S
C618 C616 1.395 . S
C618 C621 1.403 . S
C619 C616 1.403 . S
C619 C620 1.524 . S
C619 C623 1.400 . S
C620 H605 0.960 . S
C620 H606 0.960 . S
C620 H607 0.960 . S
C620 C619 1.524 . S
C621 C618 1.403 . S
C621 C622 1.392 . S
C621 C625 1.495 . S
C622 C621 1.392 . S
C622 C623 1.385 . S
C622 C624 1.478 . S
C623 H617 0.930 . S
C623 C619 1.400 . S
C623 C622 1.385 . S
C624 C622 1.478 . S
C624 C626 1.381 . S
C624 C630 1.383 . S
C625 C621 1.495 . S
C625 H631 0.959 . S
C625 H632 0.961 . S
C625 H633 0.960 . S
C626 C624 1.381 . S
C626 C627 1.394 . S
C626 H634 0.930 . S
C627 C626 1.394 . S
C627 C628 1.383 . S
C627 H635 0.929 . S
C628 C627 1.383 . S
C628 C629 1.377 . S
C629 H613 0.930 . S
C629 C628 1.377 . S
C629 C630 1.379 . S
C630 H614 0.931 . S
C630 C624 1.383 . S
C630 C629 1.379 . S
H631 C625 0.959 . S
H632 C625 0.961 . S
H633 C625 0.960 . S
H634 C626 0.930 . S
H635 C627 0.929 . S
H636 C644 0.929 . S
H637 C646 0.930 . S
H638 C648 0.930 . S
H639 C651 0.929 . S
H640 C654 0.930 . S
H641 C656 0.960 . S
H642 C656 0.960 . S
H643 C656 0.960 . S
C644 H636 0.929 . S
C644 C645 1.377 . S
C644 C646 1.384 . S
C645 C644 1.377 . S
C645 C651 1.390 . S
C646 H637 0.930 . S
C646 C644 1.384 . S
C646 C647 1.372 . S
C647 C646 1.372 . S
C647 C648 1.400 . S
C647 C652 1.490 . S
C648 H638 0.930 . S
C648 C647 1.400 . S
C648 C651 1.386 . S
H649 C665 0.930 . S
H650 C666 0.931 . S
C651 H639 0.929 . S
C651 C645 1.390 . S
C651 C648 1.386 . S
C652 C647 1.490 . S
C652 C654 1.395 . S
C652 C655 1.403 . S
H653 C659 0.930 . S
C654 H640 0.930 . S
C654 C652 1.395 . S
C654 C657 1.403 . S
C655 C652 1.403 . S
C655 C656 1.524 . S
C655 C659 1.400 . S
C656 H641 0.960 . S
C656 H642 0.960 . S
C656 H643 0.960 . S
C656 C655 1.524 . S
C657 C654 1.403 . S
C657 C658 1.392 . S
C657 C661 1.495 . S
C658 C657 1.392 . S
C658 C659 1.385 . S
C658 C660 1.478 . S
C659 H653 0.930 . S
C659 C655 1.400 . S
C659 C658 1.385 . S
C660 C658 1.478 . S
C660 C662 1.381 . S
C660 C666 1.383 . S
C661 C657 1.495 . S
C661 H667 0.959 . S
C661 H668 0.961 . S
C661 H669 0.960 . S
C662 C660 1.381 . S
C662 C663 1.394 . S
C662 H670 0.930 . S
C663 C662 1.394 . S
C663 C664 1.383 . S
C663 H671 0.929 . S
C664 C663 1.383 . S
C664 C665 1.377 . S
C665 H649 0.930 . S
C665 C664 1.377 . S
C665 C666 1.379 . S
C666 H650 0.931 . S
C666 C660 1.383 . S
C666 C665 1.379 . S
H667 C661 0.959 . S
H668 C661 0.961 . S
H669 C661 0.960 . S
H670 C662 0.930 . S
H671 C663 0.929 . S
H672 C680 0.929 . S
H673 C682 0.930 . S
H674 C684 0.930 . S
H675 C687 0.929 . S
H676 C690 0.930 . S
H677 C692 0.960 . S
H678 C692 0.960 . S
H679 C692 0.960 . S
C680 H672 0.929 . S
C680 C681 1.377 . S
C680 C682 1.384 . S
C681 C680 1.377 . S
C681 C687 1.390 . S
C682 H673 0.930 . S
C682 C680 1.384 . S
C682 C683 1.372 . S
C683 C682 1.372 . S
C683 C684 1.400 . S
C683 C688 1.490 . S
C684 H674 0.930 . S
C684 C683 1.400 . S
C684 C687 1.386 . S
H685 C701 0.930 1_554 S
H686 C702 0.923 1_554 S
C687 H675 0.929 . S
C687 C681 1.390 . S
C687 C684 1.386 . S
C688 C683 1.490 . S
C688 C690 1.395 . S
C688 C691 1.403 . S
H689 C695 0.930 . S
C690 H676 0.930 . S
C690 C688 1.395 . S
C690 C693 1.403 . S
C691 C688 1.403 . S
C691 C692 1.524 . S
C691 C695 1.400 . S
C692 H677 0.960 . S
C692 H678 0.960 . S
C692 H679 0.960 . S
C692 C691 1.524 . S
C693 C690 1.403 . S
C693 C694 1.392 . S
C693 C697 1.495 . S
C694 C693 1.392 . S
C694 C695 1.385 . S
C694 C696 1.478 . S
C695 H689 0.930 . S
C695 C691 1.400 . S
C695 C694 1.385 . S
C696 C694 1.478 . S
C696 C698 1.381 . S
C696 C702 1.383 . S
C697 C693 1.495 . S
C697 H703 0.959 . S
C697 H704 0.961 1_556 S
C697 H705 0.960 . S
C698 C696 1.381 . S
C698 C699 1.394 . S
C698 H706 0.930 . S
C699 C698 1.394 . S
C699 C700 1.383 . S
C699 H707 0.929 . S
C700 C699 1.383 . S
C700 C701 1.377 . S
C701 H685 0.930 1_556 S
C701 C700 1.377 . S
C701 C702 1.379 . S
C702 H686 0.923 1_556 S
C702 C696 1.383 . S
C702 C701 1.379 . S
H703 C697 0.959 . S
H704 C697 0.961 1_554 S
H705 C697 0.960 . S
H706 C698 0.930 . S
H707 C699 0.929 . S
H708 C716 0.929 . S
H709 C718 0.930 . S
H710 C720 0.930 . S
H711 C723 0.929 . S
H712 C726 0.930 . S
H713 C728 0.960 . S
H714 C728 0.960 . S
H715 C728 0.960 . S
C716 H708 0.929 . S
C716 C717 1.377 . S
C716 C718 1.384 . S
C717 C716 1.377 . S
C717 C723 1.390 . S
C718 H709 0.930 . S
C718 C716 1.384 . S
C718 C719 1.372 . S
C719 C718 1.372 . S
C719 C720 1.400 . S
C719 C724 1.490 . S
C720 H710 0.930 . S
C720 C719 1.400 . S
C720 C723 1.386 . S
H721 C737 0.930 . S
H722 C738 0.931 . S
C723 H711 0.929 . S
C723 C717 1.390 . S
C723 C720 1.386 . S
C724 C719 1.490 . S
C724 C726 1.395 . S
C724 C727 1.403 . S
H725 C731 0.930 . S
C726 H712 0.930 . S
C726 C724 1.395 . S
C726 C729 1.403 . S
C727 C724 1.403 . S
C727 C728 1.524 . S
C727 C731 1.400 . S
C728 H713 0.960 . S
C728 H714 0.960 . S
C728 H715 0.960 . S
C728 C727 1.524 . S
C729 C726 1.403 . S
C729 C730 1.392 . S
C729 C733 1.495 . S
C730 C729 1.392 . S
C730 C731 1.385 . S
C730 C732 1.478 . S
C731 H725 0.930 . S
C731 C727 1.400 . S
C731 C730 1.385 . S
C732 C730 1.478 . S
C732 C734 1.381 . S
C732 C738 1.383 . S
C733 C729 1.495 . S
C733 H739 0.959 . S
C733 H740 0.961 . S
C733 H741 0.960 . S
C734 C732 1.381 . S
C734 C735 1.394 . S
C734 H742 0.930 . S
C735 C734 1.394 . S
C735 C736 1.383 . S
C735 H743 0.929 . S
C736 C735 1.383 . S
C736 C737 1.377 . S
C737 H721 0.930 . S
C737 C736 1.377 . S
C737 C738 1.379 . S
C738 H722 0.931 . S
C738 C732 1.383 . S
C738 C737 1.379 . S
H739 C733 0.959 . S
H740 C733 0.961 . S
H741 C733 0.960 . S
H742 C734 0.930 . S
H743 C735 0.929 . S
H744 C752 0.929 . S
H745 C754 0.930 . S
H746 C756 0.930 . S
H747 C759 0.929 . S
H748 C762 0.930 . S
H749 C764 0.960 . S
H750 C764 0.960 . S
H751 C764 0.960 . S
C752 H744 0.929 . S
C752 C753 1.377 . S
C752 C754 1.384 . S
C753 C752 1.377 . S
C753 C759 1.390 . S
C754 H745 0.930 . S
C754 C752 1.384 . S
C754 C755 1.372 . S
C755 C754 1.372 . S
C755 C756 1.400 . S
C755 C760 1.490 . S
C756 H746 0.930 . S
C756 C755 1.400 . S
C756 C759 1.386 . S
H757 C773 0.930 . S
H758 C774 0.931 . S
C759 H747 0.929 . S
C759 C753 1.390 . S
C759 C756 1.386 . S
C760 C755 1.490 . S
C760 C762 1.395 . S
C760 C763 1.403 . S
H761 C767 0.930 . S
C762 H748 0.930 . S
C762 C760 1.395 . S
C762 C765 1.403 . S
C763 C760 1.403 . S
C763 C764 1.524 . S
C763 C767 1.400 . S
C764 H749 0.960 . S
C764 H750 0.960 . S
C764 H751 0.960 . S
C764 C763 1.524 . S
C765 C762 1.403 . S
C765 C766 1.392 . S
C765 C769 1.495 . S
C766 C765 1.392 . S
C766 C767 1.385 . S
C766 C768 1.478 1_556 S
C767 H761 0.930 . S
C767 C763 1.400 . S
C767 C766 1.385 . S
C768 C766 1.478 1_554 S
C768 C770 1.381 . S
C768 C774 1.383 . S
C769 C765 1.495 . S
C769 H775 0.959 . S
C769 H776 0.961 . S
C769 H777 0.960 . S
C770 C768 1.381 . S
C770 C771 1.394 . S
C770 H778 0.930 . S
C771 C770 1.394 . S
C771 C772 1.383 . S
C771 H779 0.929 . S
C772 C771 1.383 . S
C772 C773 1.377 . S
C773 H757 0.930 . S
C773 C772 1.377 . S
C773 C774 1.379 . S
C774 H758 0.931 . S
C774 C768 1.383 . S
C774 C773 1.379 . S
H775 C769 0.959 . S
H776 C769 0.961 . S
H777 C769 0.960 . S
H778 C770 0.930 . S
H779 C771 0.929 . S
H780 C788 0.929 . S
H781 C790 0.930 . S
H782 C792 0.930 . S
H783 C795 0.929 . S
H784 C798 0.930 . S
H785 C800 0.960 . S
H786 C800 0.960 . S
H787 C800 0.960 . S
C788 H780 0.929 . S
C788 C789 1.377 . S
C788 C790 1.384 1_556 S
C789 C788 1.377 . S
C789 C795 1.390 . S
C790 H781 0.930 . S
C790 C788 1.384 1_554 S
C790 C791 1.372 . S
C791 C790 1.372 . S
C791 C792 1.400 . S
C791 C796 1.490 . S
C792 H782 0.930 . S
C792 C791 1.400 . S
C792 C795 1.386 1_554 S
H793 C809 0.930 . S
H794 C810 0.931 . S
C795 H783 0.929 . S
C795 C789 1.390 . S
C795 C792 1.386 1_556 S
C796 C791 1.490 . S
C796 C798 1.395 . S
C796 C799 1.403 . S
H797 C803 0.930 . S
C798 H784 0.930 . S
C798 C796 1.395 . S
C798 C801 1.403 . S
C799 C796 1.403 . S
C799 C800 1.524 . S
C799 C803 1.400 . S
C800 H785 0.960 . S
C800 H786 0.960 . S
C800 H787 0.960 . S
C800 C799 1.524 . S
C801 C798 1.403 . S
C801 C802 1.392 . S
C801 C805 1.495 . S
C802 C801 1.392 . S
C802 C803 1.385 . S
C802 C804 1.478 . S
C803 H797 0.930 . S
C803 C799 1.400 . S
C803 C802 1.385 . S
C804 C802 1.478 . S
C804 C806 1.381 . S
C804 C810 1.383 . S
C805 C801 1.495 . S
C805 H811 0.959 . S
C805 H812 0.961 . S
C805 H813 0.960 . S
C806 C804 1.381 . S
C806 C807 1.394 . S
C806 H814 0.930 . S
C807 C806 1.394 . S
C807 C808 1.383 . S
C807 H815 0.929 . S
C808 C807 1.383 . S
C808 C809 1.377 . S
C809 H793 0.930 . S
C809 C808 1.377 . S
C809 C810 1.379 . S
C810 H794 0.931 . S
C810 C804 1.383 . S
C810 C809 1.379 . S
H811 C805 0.959 . S
H812 C805 0.961 . S
H813 C805 0.960 . S
H814 C806 0.930 . S
H815 C807 0.929 . S
H816 C824 0.929 . S
H817 C826 0.930 . S
H818 C828 0.930 . S
H819 C831 0.929 . S
H820 C834 0.930 . S
H821 C836 0.960 . S
H822 C836 0.960 . S
H823 C836 0.960 . S
C824 H816 0.929 . S
C824 C825 1.377 . S
C824 C826 1.384 . S
C825 C824 1.377 . S
C825 C831 1.390 . S
C826 H817 0.930 . S
C826 C824 1.384 . S
C826 C827 1.372 . S
C827 C826 1.372 . S
C827 C828 1.400 . S
C827 C832 1.490 . S
C828 H818 0.930 . S
C828 C827 1.400 . S
C828 C831 1.386 . S
H829 C845 0.930 . S
H830 C846 0.931 . S
C831 H819 0.929 . S
C831 C825 1.390 . S
C831 C828 1.386 . S
C832 C827 1.490 . S
C832 C834 1.395 . S
C832 C835 1.403 . S
H833 C839 0.930 . S
C834 H820 0.930 . S
C834 C832 1.395 . S
C834 C837 1.403 . S
C835 C832 1.403 . S
C835 C836 1.524 . S
C835 C839 1.400 . S
C836 H821 0.960 . S
C836 H822 0.960 . S
C836 H823 0.960 . S
C836 C835 1.524 . S
C837 C834 1.403 . S
C837 C838 1.392 . S
C837 C841 1.495 . S
C838 C837 1.392 . S
C838 C839 1.385 . S
C838 C840 1.478 . S
C839 H833 0.930 . S
C839 C835 1.400 . S
C839 C838 1.385 . S
C840 C838 1.478 . S
C840 C842 1.381 . S
C840 C846 1.383 . S
C841 C837 1.495 . S
C841 H847 0.959 . S
C841 H848 0.961 . S
C841 H849 0.960 . S
C842 C840 1.381 . S
C842 C843 1.394 . S
C842 H850 0.930 . S
C843 C842 1.394 . S
C843 C844 1.383 . S
C843 H851 0.929 . S
C844 C843 1.383 . S
C844 C845 1.377 . S
C845 H829 0.930 . S
C845 C844 1.377 . S
C845 C846 1.379 . S
C846 H830 0.931 . S
C846 C840 1.383 . S
C846 C845 1.379 . S
H847 C841 0.959 . S
H848 C841 0.961 . S
H849 C841 0.960 . S
H850 C842 0.930 . S
H851 C843 0.929 . S
H852 C860 0.929 . S
H853 C862 0.930 . S
H854 C864 0.930 . S
H855 C867 0.929 . S
H856 C870 0.930 . S
H857 C872 0.960 . S
H858 C872 0.960 . S
H859 C872 0.960 . S
C860 H852 0.929 . S
C860 C861 1.377 . S
C860 C862 1.384 . S
C861 C860 1.377 . S
C861 C867 1.390 . S
C862 H853 0.930 . S
C862 C860 1.384 . S
C862 C863 1.372 . S
C863 C862 1.372 . S
C863 C864 1.400 . S
C863 C868 1.490 . S
C864 H854 0.930 . S
C864 C863 1.400 . S
C864 C867 1.386 . S
H865 C881 0.930 . S
H866 C882 0.931 . S
C867 H855 0.929 . S
C867 C861 1.390 . S
C867 C864 1.386 . S
C868 C863 1.490 . S
C868 C870 1.395 . S
C868 C871 1.403 . S
H869 C875 0.930 . S
C870 H856 0.930 . S
C870 C868 1.395 . S
C870 C873 1.403 . S
C871 C868 1.403 . S
C871 C872 1.524 . S
C871 C875 1.400 . S
C872 H857 0.960 . S
C872 H858 0.960 . S
C872 H859 0.960 . S
C872 C871 1.524 . S
C873 C870 1.403 . S
C873 C874 1.392 . S
C873 C877 1.495 . S
C874 C873 1.392 . S
C874 C875 1.385 . S
C874 C876 1.478 . S
C875 H869 0.930 . S
C875 C871 1.400 . S
C875 C874 1.385 . S
C876 C874 1.478 . S
C876 C878 1.381 . S
C876 C882 1.383 . S
C877 C873 1.495 . S
C877 H883 0.959 . S
C877 H884 0.961 . S
C877 H885 0.960 . S
C878 C876 1.381 . S
C878 C879 1.394 . S
C878 H886 0.930 . S
C879 C878 1.394 . S
C879 C880 1.383 . S
C879 H887 0.929 . S
C880 C879 1.383 . S
C880 C881 1.377 . S
C881 H865 0.930 . S
C881 C880 1.377 . S
C881 C882 1.379 . S
C882 H866 0.931 . S
C882 C876 1.383 . S
C882 C881 1.379 . S
H883 C877 0.959 . S
H884 C877 0.961 . S
H885 C877 0.960 . S
H886 C878 0.930 . S
H887 C879 0.929 . S
H888 C896 0.929 . S
H889 C898 0.930 . S
H890 C900 0.930 . S
H891 C903 0.929 . S
H892 C906 0.930 . S
H893 C908 0.960 . S
H894 C908 0.960 . S
H895 C908 0.960 . S
C896 H888 0.929 . S
C896 C897 1.377 . S
C896 C898 1.384 . S
C897 C896 1.377 . S
C897 C903 1.390 . S
C898 H889 0.930 . S
C898 C896 1.384 . S
C898 C899 1.372 . S
C899 C898 1.372 . S
C899 C900 1.400 . S
C899 C904 1.490 . S
C900 H890 0.930 . S
C900 C899 1.400 . S
C900 C903 1.386 . S
H901 C917 0.930 . S
H902 C918 0.931 . S
C903 H891 0.929 . S
C903 C897 1.390 . S
C903 C900 1.386 . S
C904 C899 1.490 . S
C904 C906 1.395 . S
C904 C907 1.403 . S
H905 C911 0.930 . S
C906 H892 0.930 . S
C906 C904 1.395 . S
C906 C909 1.403 . S
C907 C904 1.403 . S
C907 C908 1.524 . S
C907 C911 1.400 . S
C908 H893 0.960 . S
C908 H894 0.960 . S
C908 H895 0.960 . S
C908 C907 1.524 . S
C909 C906 1.403 . S
C909 C910 1.392 . S
C909 C913 1.495 . S
C910 C909 1.392 . S
C910 C911 1.385 . S
C910 C912 1.478 . S
C911 H905 0.930 . S
C911 C907 1.400 . S
C911 C910 1.385 . S
C912 C910 1.478 . S
C912 C914 1.381 . S
C912 C918 1.383 . S
C913 C909 1.495 . S
C913 H919 0.959 . S
C913 H920 0.961 . S
C913 H921 0.960 . S
C914 C912 1.381 . S
C914 C915 1.394 . S
C914 H922 0.930 . S
C915 C914 1.394 . S
C915 C916 1.383 . S
C915 H923 0.929 . S
C916 C915 1.383 . S
C916 C917 1.377 . S
C917 H901 0.930 . S
C917 C916 1.377 . S
C917 C918 1.379 . S
C918 H902 0.931 . S
C918 C912 1.383 . S
C918 C917 1.379 . S
H919 C913 0.959 . S
H920 C913 0.961 . S
H921 C913 0.960 . S
H922 C914 0.930 . S
H923 C915 0.929 . S
H924 C932 0.929 . S
H925 C934 0.930 . S
H926 C936 0.930 1_556 S
H927 C939 0.929 1_556 S
H928 C942 0.930 . S
H929 C944 0.960 . S
H930 C944 0.960 . S
H931 C944 0.960 . S
C932 H924 0.929 . S
C932 C933 1.377 . S
C932 C934 1.384 . S
C933 C932 1.377 . S
C933 C939 1.390 . S
C934 H925 0.930 . S
C934 C932 1.384 . S
C934 C935 1.372 . S
C935 C934 1.372 . S
C935 C936 1.400 . S
C935 C940 1.490 . S
C936 H926 0.930 1_554 S
C936 C935 1.400 . S
C936 C939 1.386 . S
H937 C953 0.930 . S
H938 C954 0.931 1_556 S
C939 H927 0.929 1_554 S
C939 C933 1.390 . S
C939 C936 1.386 . S
C940 C935 1.490 . S
C940 C942 1.395 . S
C940 C943 1.403 . S
H941 C947 0.930 . S
C942 H928 0.930 . S
C942 C940 1.395 . S
C942 C945 1.403 1_545 S
C943 C940 1.403 . S
C943 C944 1.524 . S
C943 C947 1.400 1_545 S
C944 H929 0.960 . S
C944 H930 0.960 . S
C944 H931 0.960 . S
C944 C943 1.524 . S
C945 C942 1.403 1_565 S
C945 C946 1.392 . S
C945 C949 1.495 . S
C946 C945 1.392 . S
C946 C947 1.385 . S
C946 C948 1.478 . S
C947 H941 0.930 . S
C947 C943 1.400 1_565 S
C947 C946 1.385 . S
C948 C946 1.478 . S
C948 C950 1.381 . S
C948 C954 1.383 . S
C949 C945 1.495 . S
C949 H955 0.964 . S
C949 H956 0.961 1_554 S
C949 H957 0.960 . S
C950 C948 1.381 . S
C950 C951 1.394 . S
C950 H958 0.930 . S
C951 C950 1.394 . S
C951 C952 1.383 . S
C951 H959 0.929 . S
C952 C951 1.383 . S
C952 C953 1.377 . S
C953 H937 0.930 . S
C953 C952 1.377 . S
C953 C954 1.379 . S
C954 H938 0.931 1_554 S
C954 C948 1.383 . S
C954 C953 1.379 . S
H955 C949 0.964 . S
H956 C949 0.961 1_556 S
H957 C949 0.960 . S
H958 C950 0.930 . S
H959 C951 0.929 . S
H960 C968 0.929 . S
H961 C970 0.930 . S
H962 C972 0.930 . S
H963 C975 0.929 . S
H964 C978 0.930 . S
H965 C980 0.960 . S
H966 C980 0.960 . S
H967 C980 0.960 . S
C968 H960 0.929 . S
C968 C969 1.377 . S
C968 C970 1.384 . S
C969 C968 1.377 . S
C969 C975 1.390 . S
C970 H961 0.930 . S
C970 C968 1.384 . S
C970 C971 1.372 . S
C971 C970 1.372 . S
C971 C972 1.400 . S
C971 C976 1.490 . S
C972 H962 0.930 . S
C972 C971 1.400 . S
C972 C975 1.386 . S
H973 C989 0.930 . S
H974 C990 0.931 . S
C975 H963 0.929 . S
C975 C969 1.390 . S
C975 C972 1.386 . S
C976 C971 1.490 . S
C976 C978 1.395 . S
C976 C979 1.403 . S
H977 C983 0.930 . S
C978 H964 0.930 . S
C978 C976 1.395 . S
C978 C981 1.403 . S
C979 C976 1.403 . S
C979 C980 1.524 . S
C979 C983 1.400 . S
C980 H965 0.960 . S
C980 H966 0.960 . S
C980 H967 0.960 . S
C980 C979 1.524 . S
C981 C978 1.403 . S
C981 C982 1.392 . S
C981 C985 1.495 . S
C982 C981 1.392 . S
C982 C983 1.385 . S
C982 C984 1.478 . S
C983 H977 0.930 . S
C983 C979 1.400 . S
C983 C982 1.385 . S
C984 C982 1.478 . S
C984 C986 1.381 . S
C984 C990 1.383 . S
C985 C981 1.495 . S
C985 H991 0.959 . S
C985 H992 0.961 . S
C985 H993 0.960 . S
C986 C984 1.381 . S
C986 C987 1.394 . S
C986 H994 0.930 . S
C987 C986 1.394 . S
C987 C988 1.383 . S
C987 H995 0.929 . S
C988 C987 1.383 . S
C988 C989 1.377 . S
C989 H973 0.930 . S
C989 C988 1.377 . S
C989 C990 1.379 . S
C990 H974 0.931 . S
C990 C984 1.383 . S
C990 C989 1.379 . S
H991 C985 0.959 . S
H992 C985 0.961 . S
H993 C985 0.960 . S
H994 C986 0.930 . S
H995 C987 0.929 . S
H996 C1004 0.929 . S
H997 C1006 0.930 . S
H998 C1008 0.930 . S
H999 C1011 0.929 . S
H1000 C1014 0.930 . S
H1001 C1016 0.960 . S
H1002 C1016 0.960 . S
H1003 C1016 0.960 . S
C1004 H996 0.929 . S
C1004 C1005 1.377 . S
C1004 C1006 1.384 . S
C1005 C1004 1.377 . S
C1005 C1011 1.390 . S
C1006 H997 0.930 . S
C1006 C1004 1.384 . S
C1006 C1007 1.372 . S
C1007 C1006 1.372 . S
C1007 C1008 1.400 . S
C1007 C1012 1.490 . S
C1008 H998 0.930 . S
C1008 C1007 1.400 . S
C1008 C1011 1.386 . S
H1009 C1025 0.930 . S
H1010 C1026 0.931 . S
C1011 H999 0.929 . S
C1011 C1005 1.390 . S
C1011 C1008 1.386 . S
C1012 C1007 1.490 . S
C1012 C1014 1.395 . S
C1012 C1015 1.403 . S
H1013 C1019 0.930 . S
C1014 H1000 0.930 . S
C1014 C1012 1.395 . S
C1014 C1017 1.403 1_455 S
C1015 C1012 1.403 . S
C1015 C1016 1.524 . S
C1015 C1019 1.400 1_455 S
C1016 H1001 0.960 . S
C1016 H1002 0.960 . S
C1016 H1003 0.960 . S
C1016 C1015 1.524 . S
C1017 C1014 1.403 1_655 S
C1017 C1018 1.392 . S
C1017 C1021 1.495 . S
C1018 C1017 1.392 . S
C1018 C1019 1.385 . S
C1018 C1020 1.478 . S
C1019 H1013 0.930 . S
C1019 C1015 1.400 1_655 S
C1019 C1018 1.385 . S
C1020 C1018 1.478 . S
C1020 C1022 1.381 . S
C1020 C1026 1.383 . S
C1021 C1017 1.495 . S
C1021 H1027 0.959 . S
C1021 H1028 0.961 . S
C1021 H1029 0.960 . S
C1022 C1020 1.381 . S
C1022 C1023 1.394 . S
C1022 H1030 0.930 . S
C1023 C1022 1.394 . S
C1023 C1024 1.383 . S
C1023 H1031 0.929 . S
C1024 C1023 1.383 . S
C1024 C1025 1.377 . S
C1025 H1009 0.930 . S
C1025 C1024 1.377 . S
C1025 C1026 1.379 . S
C1026 H1010 0.931 . S
C1026 C1020 1.383 . S
C1026 C1025 1.379 . S
H1027 C1021 0.959 . S
H1028 C1021 0.961 . S
H1029 C1021 0.960 . S
H1030 C1022 0.930 . S
H1031 C1023 0.929 . S
H1032 C1040 0.929 . S
H1033 C1042 0.930 . S
H1034 C1044 0.930 . S
H1035 C1047 0.929 . S
H1036 C1050 0.930 . S
H1037 C1052 0.960 . S
H1038 C1052 0.960 . S
H1039 C1052 0.960 . S
C1040 H1032 0.929 . S
C1040 C1041 1.377 . S
C1040 C1042 1.384 . S
C1041 C1040 1.377 . S
C1041 C1047 1.390 . S
C1042 H1033 0.930 . S
C1042 C1040 1.384 . S
C1042 C1043 1.372 . S
C1043 C1042 1.372 . S
C1043 C1044 1.400 . S
C1043 C1048 1.490 . S
C1044 H1034 0.930 . S
C1044 C1043 1.400 . S
C1044 C1047 1.386 . S
H1045 C1061 0.930 . S
H1046 C1062 0.931 . S
C1047 H1035 0.929 . S
C1047 C1041 1.390 . S
C1047 C1044 1.386 . S
C1048 C1043 1.490 . S
C1048 C1050 1.395 . S
C1048 C1051 1.403 . S
H1049 C1055 0.930 . S
C1050 H1036 0.930 . S
C1050 C1048 1.395 . S
C1050 C1053 1.403 1_565 S
C1051 C1048 1.403 . S
C1051 C1052 1.524 . S
C1051 C1055 1.400 1_565 S
C1052 H1037 0.960 . S
C1052 H1038 0.960 . S
C1052 H1039 0.960 . S
C1052 C1051 1.524 . S
C1053 C1050 1.403 1_545 S
C1053 C1054 1.392 . S
C1053 C1057 1.495 . S
C1054 C1053 1.392 . S
C1054 C1055 1.385 . S
C1054 C1056 1.478 . S
C1055 H1049 0.930 . S
C1055 C1051 1.400 1_545 S
C1055 C1054 1.385 . S
C1056 C1054 1.478 . S
C1056 C1058 1.381 . S
C1056 C1062 1.383 . S
C1057 C1053 1.495 . S
C1057 H1063 0.959 . S
C1057 H1064 0.961 . S
C1057 H1065 0.960 . S
C1058 C1056 1.381 . S
C1058 C1059 1.394 . S
C1058 H1066 0.930 . S
C1059 C1058 1.394 . S
C1059 C1060 1.383 . S
C1059 H1067 0.929 . S
C1060 C1059 1.383 . S
C1060 C1061 1.377 . S
C1061 H1045 0.930 . S
C1061 C1060 1.377 . S
C1061 C1062 1.379 . S
C1062 H1046 0.931 . S
C1062 C1056 1.383 . S
C1062 C1061 1.379 . S
H1063 C1057 0.959 . S
H1064 C1057 0.961 . S
H1065 C1057 0.960 . S
H1066 C1058 0.930 . S
H1067 C1059 0.929 . S
H1068 C1076 0.929 . S
H1069 C1078 0.930 . S
H1070 C1080 0.930 . S
H1071 C1083 0.929 . S
H1072 C1086 0.930 . S
H1073 C1088 0.960 . S
H1074 C1088 0.960 . S
H1075 C1088 0.960 . S
C1076 H1068 0.929 . S
C1076 C1077 1.377 . S
C1076 C1078 1.384 . S
C1077 C1076 1.377 . S
C1077 C1083 1.390 . S
C1078 H1069 0.930 . S
C1078 C1076 1.384 . S
C1078 C1079 1.372 . S
C1079 C1078 1.372 . S
C1079 C1080 1.400 . S
C1079 C1084 1.490 . S
C1080 H1070 0.930 . S
C1080 C1079 1.400 . S
C1080 C1083 1.386 . S
H1081 C1097 0.930 . S
H1082 C1098 0.931 . S
C1083 H1071 0.929 . S
C1083 C1077 1.390 . S
C1083 C1080 1.386 . S
C1084 C1079 1.490 . S
C1084 C1086 1.395 . S
C1084 C1087 1.403 . S
H1085 C1091 0.930 . S
C1086 H1072 0.930 . S
C1086 C1084 1.395 . S
C1086 C1089 1.403 . S
C1087 C1084 1.403 . S
C1087 C1088 1.524 . S
C1087 C1091 1.400 . S
C1088 H1073 0.960 . S
C1088 H1074 0.960 . S
C1088 H1075 0.960 . S
C1088 C1087 1.524 . S
C1089 C1086 1.403 . S
C1089 C1090 1.392 . S
C1089 C1093 1.495 . S
C1090 C1089 1.392 . S
C1090 C1091 1.385 . S
C1090 C1092 1.478 . S
C1091 H1085 0.930 . S
C1091 C1087 1.400 . S
C1091 C1090 1.385 . S
C1092 C1090 1.478 . S
C1092 C1094 1.381 . S
C1092 C1098 1.383 . S
C1093 C1089 1.495 . S
C1093 H1099 0.959 . S
C1093 H1100 0.961 . S
C1093 H1101 0.960 . S
C1094 C1092 1.381 . S
C1094 C1095 1.394 . S
C1094 H1102 0.930 . S
C1095 C1094 1.394 . S
C1095 C1096 1.383 . S
C1095 H1103 0.929 . S
C1096 C1095 1.383 . S
C1096 C1097 1.377 . S
C1097 H1081 0.930 . S
C1097 C1096 1.377 . S
C1097 C1098 1.379 . S
C1098 H1082 0.931 . S
C1098 C1092 1.383 . S
C1098 C1097 1.379 . S
H1099 C1093 0.959 . S
H1100 C1093 0.961 . S
H1101 C1093 0.960 . S
H1102 C1094 0.930 . S
H1103 C1095 0.929 . S
H1104 C1112 0.929 . S
H1105 C1114 0.930 . S
H1106 C1116 0.930 . S
H1107 C1119 0.929 . S
H1108 C1122 0.930 . S
H1109 C1124 0.960 . S
H1110 C1124 0.960 . S
H1111 C1124 0.960 . S
C1112 H1104 0.929 . S
C1112 C1113 1.377 . S
C1112 C1114 1.384 . S
C1113 C1112 1.377 . S
C1113 C1119 1.390 . S
C1114 H1105 0.930 . S
C1114 C1112 1.384 . S
C1114 C1115 1.372 . S
C1115 C1114 1.372 . S
C1115 C1116 1.400 . S
C1115 C1120 1.490 . S
C1116 H1106 0.930 . S
C1116 C1115 1.400 . S
C1116 C1119 1.386 . S
H1117 C1133 0.930 . S
H1118 C1134 0.931 . S
C1119 H1107 0.929 . S
C1119 C1113 1.390 . S
C1119 C1116 1.386 . S
C1120 C1115 1.490 . S
C1120 C1122 1.395 . S
C1120 C1123 1.403 . S
H1121 C1127 0.930 . S
C1122 H1108 0.930 . S
C1122 C1120 1.395 . S
C1122 C1125 1.403 1_455 S
C1123 C1120 1.403 . S
C1123 C1124 1.524 . S
C1123 C1127 1.400 1_455 S
C1124 H1109 0.960 . S
C1124 H1110 0.960 . S
C1124 H1111 0.960 . S
C1124 C1123 1.524 . S
C1125 C1122 1.403 1_655 S
C1125 C1126 1.392 . S
C1125 C1129 1.495 . S
C1126 C1125 1.392 . S
C1126 C1127 1.385 . S
C1126 C1128 1.478 . S
C1127 H1121 0.930 . S
C1127 C1123 1.400 1_655 S
C1127 C1126 1.385 . S
C1128 C1126 1.478 . S
C1128 C1130 1.381 . S
C1128 C1134 1.383 . S
C1129 C1125 1.495 . S
C1129 H1135 0.959 . S
C1129 H1136 0.961 . S
C1129 H1137 0.960 . S
C1130 C1128 1.381 . S
C1130 C1131 1.394 . S
C1130 H1138 0.930 . S
C1131 C1130 1.394 . S
C1131 C1132 1.383 . S
C1131 H1139 0.929 . S
C1132 C1131 1.383 . S
C1132 C1133 1.377 . S
C1133 H1117 0.930 . S
C1133 C1132 1.377 . S
C1133 C1134 1.379 . S
C1134 H1118 0.931 . S
C1134 C1128 1.383 . S
C1134 C1133 1.379 . S
H1135 C1129 0.959 . S
H1136 C1129 0.961 . S
H1137 C1129 0.960 . S
H1138 C1130 0.930 . S
H1139 C1131 0.929 . S
C285 C7 0.979 . S
C304 C237 0.967 . S
C321 C30 0.976 . S
C340 C260 0.984 . S
C357 C145 0.976 . S
C376 C53 0.983 . S
C393 C76 0.976 . S
C412 C168 0.968 . S
C429 C191 0.980 . S
C448 C99 0.983 . S
C465 C214 0.979 . S
C484 C122 0.987 . S
C501 N196 1.793 . S
C520 N12 1.791 . S
C537 N35 1.789 . S
C556 N219 1.773 . S
C573 N242 1.791 . S
C592 N58 1.778 . S
C609 N81 1.793 . S
C628 N265 1.788 . S
C645 N104 1.789 . S
C664 N150 1.772 . S
C681 N127 1.788 . S
C700 N173 1.775 1_556 S
C717 C246 2.022 . S
C736 C16 2.019 . S
C753 C269 2.023 . S
C772 C39 2.014 . S
C789 C154 2.024 . S
C808 C62 2.014 . S
C825 C85 2.024 . S
C844 C177 2.010 . S
C861 C108 2.021 . S
C880 C200 2.021 . S
C897 C223 2.023 . S
C916 C131 2.013 . S
C933 N2 1.741 . S
C952 N163 1.711 . S
C969 N186 1.746 . S
C988 N25 1.727 . S
C1005 N209 1.742 . S
C1024 N48 1.738 . S
C1041 N71 1.743 . S
C1060 N232 1.720 . S
C1077 N94 1.742 . S
C1096 N255 1.717 . S
C1113 N117 1.744 . S
C1132 N140 1.721 . S
