# Generated by pormake.
# Topology uoj, (4)-cn, num edge types: 1
# Building blocks:
#     Node 0, Type 0, BuildingBlock: KOZSID_clean_sbu_0, # of connection points: 4
#     Node 1, Type 0, BuildingBlock: KOZSID_clean_sbu_0, # of connection points: 4
#     Node 2, Type 0, BuildingBlock: KOZSID_clean_sbu_0, # of connection points: 4
#     Node 3, Type 0, BuildingBlock: KOZSID_clean_sbu_0, # of connection points: 4
#     Node 4, Type 0, BuildingBlock: KOZSID_clean_sbu_0, # of connection points: 4
#     Node 5, Type 0, BuildingBlock: KOZSID_clean_sbu_0, # of connection points: 4
#     Node 6, Type 0, BuildingBlock: KOZSID_clean_sbu_0, # of connection points: 4
#     Node 7, Type 0, BuildingBlock: KOZSID_clean_sbu_0, # of connection points: 4
#     Edge 8, Type (0, 0), BuildingBlock: UVAHIK_clean_linker_0, # of connection points: 2
#     Edge 9, Type (0, 0), BuildingBlock: UVAHIK_clean_linker_0, # of connection points: 2
#     Edge 10, Type (0, 0), BuildingBlock: UVAHIK_clean_linker_0, # of connection points: 2
#     Edge 11, Type (0, 0), BuildingBlock: UVAHIK_clean_linker_0, # of connection points: 2
#     Edge 12, Type (0, 0), BuildingBlock: UVAHIK_clean_linker_0, # of connection points: 2
#     Edge 13, Type (0, 0), BuildingBlock: UVAHIK_clean_linker_0, # of connection points: 2
#     Edge 14, Type (0, 0), BuildingBlock: UVAHIK_clean_linker_0, # of connection points: 2
#     Edge 15, Type (0, 0), BuildingBlock: UVAHIK_clean_linker_0, # of connection points: 2
#     Edge 16, Type (0, 0), BuildingBlock: UVAHIK_clean_linker_0, # of connection points: 2
#     Edge 17, Type (0, 0), BuildingBlock: UVAHIK_clean_linker_0, # of connection points: 2
#     Edge 18, Type (0, 0), BuildingBlock: UVAHIK_clean_linker_0, # of connection points: 2
#     Edge 19, Type (0, 0), BuildingBlock: UVAHIK_clean_linker_0, # of connection points: 2
#     Edge 20, Type (0, 0), BuildingBlock: UVAHIK_clean_linker_0, # of connection points: 2
#     Edge 21, Type (0, 0), BuildingBlock: UVAHIK_clean_linker_0, # of connection points: 2
#     Edge 22, Type (0, 0), BuildingBlock: UVAHIK_clean_linker_0, # of connection points: 2
#     Edge 23, Type (0, 0), BuildingBlock: UVAHIK_clean_linker_0, # of connection points: 2
# Relax obj value: 0.031
# Max RMSD: 0.310
# Mean RMSD: 0.294
data_MOF--net-uoj--node1-KOZSID_clean_sbu_0--edge1-UVAHIK_clean_linker_0
_symmetry_space_group_name_H-M    P1
_symmetry_Int_Tables_number       1
_symmetry_cell_setting            triclinic
loop_
_symmetry_equiv_pos_as_xyz
'x, y, z'
_cell_length_a     47.916157
_cell_length_b     50.352742
_cell_length_c     58.595628
_cell_angle_alpha  89.96376
_cell_angle_beta   90.007208
_cell_angle_gamma 93.719705
loop_
_atom_site_label
_atom_site_type_symbol
_atom_site_fract_x
_atom_site_fract_y
_atom_site_fract_z
_atom_type_partial_charge
C0 C 0.1119 0.31422 0.39425 0.0
C1 C 0.13323 0.33393 0.39724 0.0
C2 C 0.13011 0.34407 0.41869 0.0
C3 C 0.10711 0.33012 0.42762 0.0
N4 N 0.09582 0.31135 0.41334 0.0
Co5 Co 0.06038 0.28926 0.41904 0.0
N6 N 0.06048 0.29829 0.45219 0.0
C7 C 0.07596 0.31826 0.46219 0.0
C8 C 0.07169 0.31956 0.48534 0.0
C9 C 0.0522 0.29915 0.49021 0.0
C10 C 0.04566 0.28655 0.46968 0.0
N11 N 0.02451 0.26801 0.42449 0.0
C12 C 1.01249 0.25934 0.44428 0.0
C13 C 0.98711 0.24515 0.44028 0.0
C14 C 0.9832 0.24488 0.41718 0.0
C15 C 1.00626 0.25885 0.40839 0.0
N16 N 0.0604 0.27926 0.3861 0.0
C17 C 0.03902 0.2668 0.37456 0.0
C18 C 0.0454 0.2612 0.35236 0.0
C19 C 0.07234 0.27124 0.34947 0.0
C20 C 0.08076 0.28282 0.37008 0.0
N21 N 0.08171 0.25826 0.42626 0.0
C22 C 0.11181 0.21459 0.4398 0.0
C23 C 0.08791 0.21101 0.4259 0.0
C24 C 0.07325 0.23308 0.41927 0.0
C25 C 0.12053 0.24066 0.4461 0.0
C26 C 0.10522 0.26193 0.4394 0.0
N27 N 0.0397 0.32102 0.41232 0.0
C28 C 0.03895 0.3622 0.3914 0.0
C29 C 0.02529 0.37431 0.40945 0.0
C30 C 1.01583 0.35783 0.42764 0.0
C31 C 1.02263 0.33114 0.42843 0.0
C32 C 0.04615 0.33586 0.39327 0.0
H33 H 1.01571 0.31934 0.44296 0.0
H34 H 0.05855 0.32834 0.37982 0.0
H35 H 0.05487 0.22971 0.40879 0.0
H36 H 0.1124 0.2814 0.44524 0.0
C37 C 0.0967 0.3328 0.44979 0.0
C38 C 0.10567 0.30125 0.37217 0.0
C39 C 0.02393 0.26481 0.46709 0.0
C40 C 1.01404 0.25895 0.38551 0.0
H41 H 0.14887 0.34091 0.38494 0.0
H42 H 0.14301 0.35983 0.42676 0.0
H43 H 0.08208 0.3332 0.49735 0.0
H44 H 0.0436 0.29423 0.50688 0.0
H45 H 0.97302 0.2357 0.45271 0.0
H46 H 0.9663 0.23449 0.40787 0.0
H47 H 0.03207 0.25105 0.33977 0.0
H48 H 0.08398 0.2713 0.33363 0.0
H49 H 0.08017 0.19131 0.42058 0.0
H50 H 0.1392 0.24482 0.45623 0.0
H51 H 0.04531 0.37323 0.37621 0.0
H52 H 1.00464 0.36564 0.44192 0.0
C53 C 0.37001 0.96018 0.58495 0.0
C54 C 0.39161 0.95199 0.57136 0.0
C55 C 0.37979 0.93414 0.55603 0.0
C56 C 0.35177 0.93249 0.56105 0.0
N57 N 0.34512 0.94816 0.57856 0.0
Co58 Co 0.30692 0.95197 0.59089 0.0
N59 N 0.29222 0.91819 0.57616 0.0
C60 C 0.30525 0.90505 0.55966 0.0
C61 C 0.2902 0.88277 0.55205 0.0
C62 C 0.26583 0.88194 0.56417 0.0
C63 C 0.26731 0.90394 0.57861 0.0
N64 N 0.26846 0.95615 0.60276 0.0
C65 C 0.24526 0.93909 0.60246 0.0
C66 C 0.22255 0.95089 0.61192 0.0
C67 C 0.23157 0.9764 0.61759 0.0
C68 C 0.25926 0.97878 0.61149 0.0
N69 N 0.32214 0.98544 0.60578 0.0
C70 C 0.30697 1.00483 0.61404 0.0
C71 C 0.32321 0.0254 0.6236 0.0
C72 C 0.35032 1.01854 0.62113 0.0
C73 C 0.34909 0.99413 0.61011 0.0
N74 N 0.29714 0.97238 0.56363 0.0
C75 C 0.27606 1.00903 0.53292 0.0
C76 C 0.30297 1.01331 0.5422 0.0
C77 C 0.31332 0.99452 0.55717 0.0
C78 C 0.26106 0.98492 0.53778 0.0
C79 C 0.2719 0.96698 0.5531 0.0
N80 N 0.3162 0.93233 0.61859 0.0
C81 C 0.31461 0.92928 0.65962 0.0
C82 C 0.33076 0.90713 0.65937 0.0
C83 C 0.3395 0.89773 0.63813 0.0
C84 C 0.33172 0.91045 0.6179 0.0
C85 C 0.30778 0.94156 0.63925 0.0
H86 H 0.33849 0.90279 0.60177 0.0
H87 H 0.296 0.95893 0.64042 0.0
H88 H 0.33377 0.99872 0.56451 0.0
H89 H 0.25885 0.94957 0.5574 0.0
C90 C 0.33231 0.91316 0.55274 0.0
C91 C 0.37379 0.98043 0.60282 0.0
C92 C 0.24295 0.91292 0.59108 0.0
C93 C 0.27785 1.00088 0.61573 0.0
H94 H 0.41362 0.95821 0.57241 0.0
H95 H 0.39052 0.92283 0.54344 0.0
H96 H 0.29614 0.86886 0.53913 0.0
H97 H 0.2485 0.86739 0.56171 0.0
H98 H 0.20143 0.94219 0.61389 0.0
H99 H 0.21943 0.99134 0.62541 0.0
H100 H 0.31618 0.0428 0.63215 0.0
H101 H 0.36883 0.03016 0.62676 0.0
H102 H 0.3156 0.03142 0.53849 0.0
H103 H 0.24022 0.98064 0.53099 0.0
H104 H 0.3078 0.93757 0.67558 0.0
H105 H 0.35199 0.8806 0.63715 0.0
C106 C 0.93029 0.72465 0.39887 0.0
C107 C 0.90741 0.70684 0.4027 0.0
C108 C 0.9103 0.69695 0.42429 0.0
C109 C 0.9346 0.7093 0.43254 0.0
N110 N 0.94694 0.72679 0.41764 0.0
Co111 Co 0.98331 0.7474 0.42265 0.0
N112 N 0.98264 0.7402 0.45611 0.0
C113 C 0.96629 0.72134 0.46677 0.0
C114 C 0.96995 0.72155 0.49003 0.0
C115 C 0.98994 0.74176 0.49424 0.0
C116 C 0.99748 0.75268 0.47322 0.0
N117 N 1.02001 0.76727 0.4275 0.0
C118 C 0.03214 0.77674 0.44697 0.0
C119 C 0.05862 0.78861 0.44272 0.0
C120 C 0.06303 0.78669 0.41973 0.0
C121 C 0.03919 0.77369 0.4113 0.0
N122 N 0.98415 0.75535 0.38931 0.0
C123 C 1.00681 0.76456 0.37738 0.0
C124 C 1.00165 0.76782 0.3546 0.0
C125 C 0.97411 0.75971 0.3518 0.0
C126 C 0.96391 0.75183 0.37316 0.0
N127 N 0.96358 0.77979 0.42833 0.0
C128 C 0.93439 0.82512 0.43821 0.0
C129 C 0.95884 0.82712 0.4249 0.0
C130 C 0.97299 0.80414 0.41996 0.0
C131 C 0.92515 0.80004 0.44649 0.0
C132 C 0.94 0.77788 0.44153 0.0
N133 N 1.00231 0.71435 0.41742 0.0
C134 C 1.00226 0.67206 0.39808 0.0
C135 C 1.01778 0.66157 0.41573 0.0
C136 C 0.0274 0.67863 0.43333 0.0
C137 C 1.01999 0.70514 0.43355 0.0
C138 C 0.99464 0.69833 0.3993 0.0
H139 H 0.02731 0.7177 0.4475 0.0
H140 H 0.98107 0.70493 0.38618 0.0
H141 H 0.99154 0.80606 0.4095 0.0
H142 H 0.93235 0.75917 0.44869 0.0
C143 C 0.94487 0.70712 0.45483 0.0
C144 C 0.93685 0.73676 0.37644 0.0
C145 C 1.01984 0.77376 0.46979 0.0
C146 C 0.03204 0.77167 0.38831 0.0
H147 H 0.89075 0.70109 0.39087 0.0
H148 H 0.89619 0.68267 0.43301 0.0
H149 H 0.95863 0.70925 0.50255 0.0
H150 H 0.99799 0.74771 0.51084 0.0
H151 H 0.07324 0.79776 0.45491 0.0
H152 H 0.08095 0.79485 0.41021 0.0
H153 H 1.01619 0.7751 0.34155 0.0
H154 H 0.96329 0.75857 0.33561 0.0
H155 H 0.96673 0.84617 0.41814 0.0
H156 H 0.90673 0.79754 0.45719 0.0
H157 H 0.9945 0.65956 0.38412 0.0
H158 H 0.0399 0.67135 0.44711 0.0
C159 C 0.67396 0.0729 0.57804 0.0
C160 C 0.65259 0.08156 0.56443 0.0
C161 C 0.66263 0.10465 0.55439 0.0
C162 C 0.68941 0.10884 0.56237 0.0
N163 N 0.6973 0.08978 0.57671 0.0
Co164 Co 0.73503 0.08818 0.59139 0.0
N165 N 0.74945 0.1221 0.57626 0.0
C166 C 0.73438 0.1385 0.56381 0.0
C167 C 0.74894 0.16161 0.55734 0.0
C168 C 0.77511 0.15981 0.56613 0.0
C169 C 0.775 0.13549 0.57731 0.0
N170 N 0.77335 0.08594 0.60494 0.0
C171 C 0.79772 0.10072 0.60075 0.0
C172 C 0.81992 0.09085 0.61251 0.0
C173 C 0.80924 0.06927 0.62459 0.0
C174 C 0.78125 0.06708 0.61943 0.0
N175 N 0.71982 0.05528 0.60775 0.0
C176 C 0.73394 0.04071 0.62256 0.0
C177 C 0.71787 0.02015 0.63226 0.0
C178 C 0.69177 0.0218 0.62315 0.0
C179 C 0.69343 0.04336 0.60838 0.0
N180 N 0.7473 0.06629 0.56535 0.0
C181 C 0.77326 0.03009 0.53657 0.0
C182 C 0.74767 0.02301 0.54729 0.0
C183 C 0.73491 0.04143 0.5612 0.0
C184 C 0.78388 0.05652 0.53874 0.0
C185 C 0.77064 0.07412 0.55294 0.0
N186 N 0.72334 0.10937 0.6179 0.0
C187 C 0.73621 0.13604 0.65111 0.0
C188 C 0.70938 0.13146 0.66047 0.0
C189 C 0.68921 0.11735 0.64708 0.0
C190 C 0.69657 0.10652 0.62614 0.0
C191 C 0.74257 0.12524 0.62981 0.0
H192 H 0.68042 0.09526 0.61719 0.0
H193 H 0.76346 0.1292 0.62355 0.0
H194 H 0.7155 0.03489 0.56912 0.0
H195 H 0.78022 0.09372 0.55414 0.0
C196 C 0.70708 0.13105 0.55761 0.0
C197 C 0.66977 0.05088 0.59437 0.0
C198 C 0.80042 0.12463 0.58633 0.0
C199 C 0.76211 0.04705 0.62705 0.0
H200 H 0.63148 0.07285 0.56268 0.0
H201 H 0.65144 0.11732 0.54315 0.0
H202 H 0.74157 0.17761 0.54708 0.0
H203 H 0.79257 0.17434 0.56397 0.0
H204 H 0.84156 0.09845 0.61243 0.0
H205 H 0.82062 0.05646 0.63556 0.0
H206 H 0.72436 1.00569 0.64453 0.0
H207 H 0.67363 1.00851 0.62673 0.0
H208 H 0.73803 1.00304 0.54584 0.0
H209 H 0.80279 0.0636 0.52992 0.0
H210 H 0.75268 0.14701 0.66045 0.0
H211 H 0.66779 0.11415 0.65285 0.0
C212 C 0.43527 0.76565 0.96827 0.0
C213 C 0.41312 0.76126 0.98342 0.0
C214 C 0.40756 0.78549 0.99213 0.0
C215 C 0.42642 0.80325 0.98181 0.0
N216 N 0.44361 0.79185 0.96708 0.0
Co217 Co 0.47352 0.81065 0.94834 0.0
N218 N 0.47222 0.84379 0.96697 0.0
C219 C 0.45305 0.84858 0.98305 0.0
C220 C 0.45788 0.87255 0.99386 0.0
C221 C 0.48123 0.88406 0.98366 0.0
C222 C 0.4891 0.86652 0.96689 0.0
N223 N 0.50314 0.82991 0.92932 0.0
C224 C 0.51593 0.85479 0.9315 0.0
C225 C 0.53325 0.86098 0.91301 0.0
C226 C 0.53083 0.83963 0.89854 0.0
C227 C 0.5122 0.82162 0.9089 0.0
N228 N 0.47478 0.77729 0.93004 0.0
C229 C 0.48694 0.77513 0.90949 0.0
C230 C 0.48448 0.74969 0.90094 0.0
C231 C 0.46971 0.73489 0.91707 0.0
C232 C 0.46391 0.75222 0.93458 0.0
N233 N 0.44501 0.82304 0.9272 0.0
C234 C 0.41562 0.83605 0.88754 0.0
C235 C 0.41082 0.81112 0.89808 0.0
C236 C 0.42545 0.80514 0.91795 0.0
C237 C 0.43325 0.85515 0.89878 0.0
C238 C 0.44739 0.84834 0.91861 0.0
N239 N 0.50239 0.79746 0.96871 0.0
C240 C 0.54426 0.77357 0.97236 0.0
C241 C 0.54054 0.7711 0.99597 0.0
C242 C 0.51796 0.78339 1.00585 0.0
C243 C 0.49909 0.79637 0.99193 0.0
C244 C 0.52524 0.78683 0.9592 0.0
H245 H 0.48141 0.80478 0.99989 0.0
H246 H 0.52867 0.78756 0.9411 0.0
H247 H 0.42214 0.7854 0.92495 0.0
H248 H 0.46162 0.86318 0.926 0.0
C249 C 0.43172 0.82958 0.98847 0.0
C250 C 0.44664 0.74459 0.95454 0.0
C251 C 0.50915 0.87451 0.94884 0.0
C252 C 0.50345 0.79647 0.90039 0.0
H253 H 0.4021 0.7425 0.9878 0.0
H254 H 0.39236 0.7895 1.00514 0.0
H255 H 0.44577 0.88076 1.00743 0.0
H256 H 0.49057 0.90376 0.98728 0.0
H257 H 0.54545 0.87945 0.90985 0.0
H258 H 0.54108 0.83767 0.88223 0.0
H259 H 0.49311 0.74257 0.88518 0.0
H260 H 0.46373 0.71383 0.91602 0.0
H261 H 0.39658 0.79595 0.89063 0.0
H262 H 0.43756 0.87482 0.89163 0.0
H263 H 0.56167 0.76497 0.96396 0.0
H264 H 0.51428 0.78212 0.02406 0.0
C265 C 0.7561 0.59403 0.10506 0.0
C266 C 0.73215 0.5821 0.11498 0.0
C267 C 0.73814 0.55669 0.12074 0.0
C268 C 0.76536 0.55447 0.11411 0.0
N269 N 0.77709 0.57707 0.10491 0.0
Co270 Co 0.81535 0.58112 0.09149 0.0
N271 N 0.82711 0.54813 0.10649 0.0
C272 C 0.80986 0.52868 0.11539 0.0
C273 C 0.82396 0.50834 0.12465 0.0
C274 C 0.85184 0.51542 0.12128 0.0
C275 C 0.85318 0.53977 0.11013 0.0
N276 N 0.85338 0.58492 0.07779 0.0
C277 C 0.87715 0.57342 0.08375 0.0
C278 C 0.89922 0.58188 0.0696 0.0
C279 C 0.88884 0.59918 0.05423 0.0
C280 C 0.86116 0.60036 0.05984 0.0
N281 N 0.80411 0.61435 0.07649 0.0
C282 C 0.81779 0.62713 0.05918 0.0
C283 C 0.80529 0.64934 0.05193 0.0
C284 C 0.78196 0.6505 0.06521 0.0
C285 C 0.78146 0.62874 0.07987 0.0
N286 N 0.82858 0.60162 0.11834 0.0
C287 C 0.8481 0.62841 0.15792 0.0
C288 C 0.85471 0.6387 0.13615 0.0
C289 C 0.84489 0.62488 0.11654 0.0
C290 C 0.83108 0.60484 0.15932 0.0
C291 C 0.8215 0.59197 0.13952 0.0
N292 N 0.80134 0.55984 0.0651 0.0
C293 C 0.76128 0.54572 0.0422 0.0
C294 C 0.7726 0.52136 0.03751 0.0
C295 C 0.80006 0.51797 0.04487 0.0
C296 C 0.81416 0.53756 0.05846 0.0
C297 C 0.77593 0.56461 0.05582 0.0
H298 H 0.83467 0.53383 0.06482 0.0
H299 H 0.76561 0.58226 0.06004 0.0
H300 H 0.85067 0.63283 0.09998 0.0
H301 H 0.80848 0.57392 0.1415 0.0
C302 C 0.7813 0.53247 0.11796 0.0
C303 C 0.75698 0.62029 0.09385 0.0
C304 C 0.87926 0.55355 0.10187 0.0
C305 C 0.84358 0.6192 0.05166 0.0
H306 H 0.71218 0.59066 0.11723 0.0
H307 H 0.72432 0.5417 0.12888 0.0
H308 H 0.81514 0.49092 0.13355 0.0
H309 H 0.86918 0.50398 0.12633 0.0
H310 H 0.92063 0.57629 0.07036 0.0
H311 H 0.90044 0.61052 0.04125 0.0
H312 H 0.81236 0.66315 0.03866 0.0
H313 H 0.76651 0.66514 0.06362 0.0
H314 H 0.86783 0.6569 0.13428 0.0
H315 H 0.82498 0.59637 0.17572 0.0
H316 H 0.74059 0.54978 0.03622 0.0
H317 H 0.80996 0.49967 0.0414 0.0
C318 C 0.61402 0.27221 0.97184 0.0
C319 C 0.63498 0.27704 0.98799 0.0
C320 C 0.63975 0.25309 0.99765 0.0
C321 C 0.62156 0.23506 0.98693 0.0
N322 N 0.6055 0.24602 0.97105 0.0
Co323 Co 0.57661 0.22673 0.95161 0.0
N324 N 0.57689 0.19399 0.97097 0.0
C325 C 0.59483 0.18975 0.98811 0.0
C326 C 0.58932 0.16604 0.99922 0.0
C327 C 0.56683 0.15412 0.98812 0.0
C328 C 0.56015 0.17115 0.97057 0.0
N329 N 0.54826 0.20691 0.93177 0.0
C330 C 0.53586 0.18184 0.93366 0.0
C331 C 0.51979 0.17519 0.91454 0.0
C332 C 0.52262 0.19643 0.89999 0.0
C333 C 0.54023 0.21483 0.91091 0.0
N334 N 0.57604 0.2598 0.93273 0.0
C335 C 0.56474 0.2616 0.91181 0.0
C336 C 0.56763 0.28683 0.90284 0.0
C337 C 0.58183 0.30192 0.91908 0.0
C338 C 0.58681 0.28496 0.93707 0.0
N339 N 0.60627 0.21398 0.93177 0.0
C340 C 0.63534 0.19903 0.89256 0.0
C341 C 0.63904 0.22496 0.90138 0.0
C342 C 0.62485 0.23182 0.92125 0.0
C343 C 0.61974 0.18008 0.9057 0.0
C344 C 0.60542 0.18794 0.92508 0.0
N345 N 0.54657 0.24011 0.97066 0.0
C346 C 0.50332 0.26213 0.9725 0.0
C347 C 0.50533 0.26464 0.99628 0.0
C348 C 0.52839 0.25397 1.007 0.0
C349 C 0.54866 0.24177 0.99394 0.0
C350 C 0.52384 0.24983 0.96019 0.0
H351 H 0.56622 0.23413 1.00268 0.0
H352 H 0.52154 0.24898 0.94197 0.0
H353 H 0.62741 0.25213 0.92703 0.0
H354 H 0.59229 0.17309 0.9336 0.0
C355 C 0.61571 0.20896 0.99405 0.0
C356 C 0.60374 0.29292 0.95709 0.0
C357 C 0.54168 0.16252 0.95163 0.0
C358 C 0.549 0.23997 0.90242 0.0
H359 H 0.64561 0.29594 0.99247 0.0
H360 H 0.65391 0.24946 1.01154 0.0
H361 H 0.60047 0.15825 1.01356 0.0
H362 H 0.55737 0.13445 0.99171 0.0
H363 H 0.50813 0.15653 0.91103 0.0
H364 H 0.51332 0.19806 0.88325 0.0
H365 H 0.55984 0.29359 0.88665 0.0
H366 H 0.58814 0.32289 0.91774 0.0
H367 H 0.65131 0.24041 0.89235 0.0
H368 H 0.6174 0.15941 0.90055 0.0
H369 H 0.4864 0.27036 0.96316 0.0
H370 H 0.53086 0.25503 0.02535 0.0
C371 C 0.29071 0.44597 0.1016 0.0
C372 C 0.31495 0.45739 0.11144 0.0
C373 C 0.30923 0.48258 0.11806 0.0
C374 C 0.28189 0.4852 0.11195 0.0
N375 N 0.26985 0.46304 0.10226 0.0
Co376 Co 0.23124 0.45963 0.08949 0.0
N377 N 0.21986 0.49174 0.10601 0.0
C378 C 0.23733 0.51065 0.11541 0.0
C379 C 0.22346 0.53048 0.12571 0.0
C380 C 0.19551 0.52363 0.12249 0.0
C381 C 0.19388 0.49994 0.11037 0.0
N382 N 0.1929 0.45656 0.0763 0.0
C383 C 0.1693 0.46779 0.08303 0.0
C384 C 0.147 0.46028 0.0688 0.0
C385 C 0.15705 0.44382 0.0526 0.0
C386 C 0.1848 0.44219 0.05781 0.0
N387 N 0.24206 0.42721 0.07309 0.0
C388 C 0.22804 0.41535 0.05553 0.0
C389 C 0.24031 0.39346 0.04732 0.0
C390 C 0.26384 0.39154 0.06026 0.0
C391 C 0.26468 0.41256 0.07568 0.0
N392 N 0.21867 0.43775 0.11576 0.0
C393 C 0.20075 0.4084 0.15446 0.0
C394 C 0.19098 0.40104 0.13262 0.0
C395 C 0.2005 0.41579 0.11343 0.0
C396 C 0.21955 0.43067 0.15643 0.0
C397 C 0.22795 0.44512 0.13706 0.0
N398 N 0.24451 0.48219 0.06366 0.0
C399 C 0.28326 0.49719 0.03958 0.0
C400 C 0.27113 0.52128 0.03529 0.0
C401 C 0.24419 0.52431 0.04398 0.0
C402 C 0.23114 0.50444 0.05787 0.0
C403 C 0.26964 0.47799 0.05361 0.0
H404 H 0.21086 0.50778 0.06491 0.0
H405 H 0.28048 0.4605 0.05741 0.0
H406 H 0.19304 0.40959 0.09678 0.0
H407 H 0.2418 0.46254 0.13948 0.0
C408 C 0.26599 0.50687 0.11712 0.0
C409 C 0.2893 0.42009 0.0898 0.0
C410 C 0.16759 0.48669 0.10193 0.0
C411 C 0.20216 0.42376 0.04865 0.0
H412 H 0.33488 0.44862 0.11316 0.0
H413 H 0.32327 0.49713 0.12653 0.0
H414 H 0.23251 0.54742 0.1351 0.0
H415 H 0.17832 0.53482 0.12826 0.0
H416 H 0.12566 0.46601 0.07001 0.0
H417 H 0.14521 0.43332 0.03928 0.0
H418 H 0.23296 0.38033 0.03367 0.0
H419 H 0.27916 0.37689 0.058 0.0
H420 H 0.17639 0.3839 0.13039 0.0
H421 H 0.22727 0.4373 0.17299 0.0
H422 H 0.30398 0.49371 0.03334 0.0
H423 H 0.23355 0.54224 0.04063 0.0
C424 C 0.16261 0.38991 0.18059 0.0
C425 C 0.19121 0.39374 0.1754 0.0
C426 C 0.1539 0.37921 0.20173 0.0
C427 C 0.17523 0.33908 0.25056 0.0
H428 H 0.12332 0.37905 0.28518 0.0
C429 C 0.14516 0.31023 0.34396 0.0
C430 C 0.11756 0.31365 0.35076 0.0
C431 C 0.15519 0.32046 0.32297 0.0
C432 C 0.13746 0.36727 0.27571 0.0
H433 H 0.23304 0.38838 0.18784 0.0
H434 H 0.21782 0.369 0.22446 0.0
H435 H 0.13738 0.39388 0.24711 0.0
H436 H 0.07897 0.33083 0.34127 0.0
H437 H 0.09574 0.34761 0.3046 0.0
H438 H 0.17478 0.31198 0.27874 0.0
C439 C 0.20215 0.37449 0.21232 0.0
C440 C 0.14558 0.37591 0.25383 0.0
C441 C 0.21086 0.38564 0.19139 0.0
C442 C 0.10037 0.32792 0.33645 0.0
C443 C 0.11017 0.33776 0.31543 0.0
C444 C 0.16674 0.33014 0.27232 0.0
C445 C 0.1736 0.37165 0.21794 0.0
C446 C 0.16454 0.36192 0.24098 0.0
C447 C 0.1377 0.33412 0.30822 0.0
C448 C 0.14764 0.34407 0.28526 0.0
H449 H 0.14704 0.39618 0.16868 0.0
H450 H 0.13174 0.37708 0.20552 0.0
H451 H 0.18982 0.32782 0.24103 0.0
H452 H 0.15882 0.29936 0.35473 0.0
H453 H 0.17665 0.31761 0.31834 0.0
C454 C 0.36643 0.88951 0.68623 0.0
C455 C 0.33858 0.89478 0.68144 0.0
C456 C 0.37412 0.88125 0.70813 0.0
C457 C 0.34931 0.88247 0.76844 0.0
H458 H 0.40778 0.83421 0.77884 0.0
C459 C 0.39618 0.86704 0.85836 0.0
C460 C 0.40408 0.84151 0.86435 0.0
C461 C 0.38757 0.87258 0.83608 0.0
C462 C 0.39119 0.84752 0.7763 0.0
H463 H 0.2967 0.8939 0.69547 0.0
H464 H 0.30983 0.87893 0.73326 0.0
H465 H 0.39387 0.84421 0.73989 0.0
H466 H 0.40884 0.80175 0.85123 0.0
H467 H 0.393 0.81115 0.81277 0.0
H468 H 0.34613 0.88536 0.80476 0.0
C469 C 0.32602 0.88198 0.72046 0.0
C470 C 0.38345 0.85354 0.75387 0.0
C471 C 0.31842 0.89039 0.6987 0.0
C472 C 0.40257 0.82156 0.84746 0.0
C473 C 0.3939 0.82708 0.82521 0.0
C474 C 0.35697 0.87641 0.79081 0.0
C475 C 0.35409 0.87789 0.72571 0.0
C476 C 0.36236 0.87111 0.74959 0.0
C477 C 0.38652 0.85275 0.8191 0.0
C478 C 0.37807 0.85888 0.79512 0.0
H479 H 0.38249 0.89292 0.67336 0.0
H480 H 0.39597 0.8785 0.71148 0.0
H481 H 0.33331 0.89643 0.76595 0.0
H482 H 0.39677 0.88289 0.87085 0.0
H483 H 0.38234 0.89266 0.83208 0.0
C484 C 0.92542 0.69926 0.34915 0.0
C485 C 0.92221 0.72574 0.35562 0.0
C486 C 0.91533 0.68965 0.32811 0.0
C487 C 0.89844 0.71211 0.27011 0.0
H488 H 0.86362 0.64084 0.26407 0.0
C489 C 0.85636 0.66887 0.18318 0.0
C490 C 0.85869 0.64154 0.17934 0.0
C491 C 0.86352 0.68024 0.20447 0.0
C492 C 0.87366 0.66068 0.26532 0.0
H493 H 0.90574 0.76288 0.34534 0.0
H494 H 0.88795 0.74611 0.30836 0.0
H495 H 0.87568 0.65823 0.30178 0.0
H496 H 0.87197 0.60512 0.19437 0.0
H497 H 0.88507 0.62486 0.23101 0.0
H498 H 0.89694 0.71437 0.23358 0.0
C499 C 0.89829 0.73277 0.31959 0.0
C500 C 0.88046 0.6707 0.28704 0.0
C501 C 0.90816 0.7423 0.34081 0.0
C502 C 0.86946 0.62614 0.1969 0.0
C503 C 0.87679 0.63748 0.21801 0.0
C504 C 0.89179 0.70201 0.24831 0.0
C505 C 0.90205 0.70638 0.31285 0.0
C506 C 0.89319 0.69645 0.28975 0.0
C507 C 0.87337 0.66457 0.22235 0.0
C508 C 0.87959 0.676 0.24557 0.0
H509 H 0.93666 0.68625 0.36007 0.0
H510 H 0.91892 0.66936 0.32341 0.0
H511 H 0.90851 0.73193 0.27153 0.0
H512 H 0.84796 0.68122 0.17005 0.0
H513 H 0.86045 0.70113 0.20713 0.0
C514 C 0.6696 0.20513 0.85948 0.0
C515 C 0.64542 0.19222 0.86913 0.0
C516 C 0.67748 0.19987 0.83692 0.0
C517 C 0.64813 0.17021 0.78263 0.0
H518 H 0.72595 0.17051 0.76447 0.0
C519 C 0.68318 0.12499 0.69768 0.0
C520 C 0.70262 0.14025 0.68421 0.0
C521 C 0.67683 0.13279 0.71989 0.0
C522 C 0.70412 0.17059 0.76927 0.0
H523 H 0.61069 0.16347 0.86198 0.0
H524 H 0.62522 0.15327 0.82373 0.0
H525 H 0.71412 0.18068 0.80398 0.0
H526 H 0.73061 0.17598 0.68415 0.0
H527 H 0.72011 0.18899 0.72326 0.0
H528 H 0.63823 0.15925 0.74809 0.0
C529 C 0.63781 0.16806 0.83326 0.0
C530 C 0.69729 0.17651 0.79193 0.0
C531 C 0.62976 0.17354 0.8556 0.0
C532 C 0.71581 0.16343 0.69392 0.0
C533 C 0.70974 0.171 0.71635 0.0
C534 C 0.65498 0.16394 0.76015 0.0
C535 C 0.66153 0.1814 0.82338 0.0
C536 C 0.66915 0.17614 0.79903 0.0
C537 C 0.69003 0.15584 0.72952 0.0
C538 C 0.68303 0.16384 0.75322 0.0
H539 H 0.68247 0.21943 0.86928 0.0
H540 H 0.69579 0.21074 0.82999 0.0
H541 H 0.62623 0.17046 0.78709 0.0
H542 H 0.6731 0.10662 0.6913 0.0
H543 H 0.66187 0.12045 0.72972 0.0
C544 C 0.2465 0.02426 0.50037 0.0
C545 C 0.26251 0.03029 0.52003 0.0
C546 C 0.23143 0.04377 0.48972 0.0
C547 C 0.2231 0.11748 0.48858 0.0
H548 H 0.15049 0.09622 0.46284 0.0
C549 C 0.14042 0.19269 0.46972 0.0
C550 C 0.12768 0.19171 0.44803 0.0
C551 C 0.15703 0.17251 0.47703 0.0
C552 C 0.17084 0.10242 0.46977 0.0
H553 H 0.27518 0.06162 0.54388 0.0
H554 H 0.24853 0.09535 0.52584 0.0
H555 H 0.17972 0.06246 0.47814 0.0
H556 H 0.12187 0.16773 0.41743 0.0
H557 H 0.15024 0.13195 0.43062 0.0
H558 H 0.21358 0.15754 0.48097 0.0
C559 C 0.24813 0.07582 0.51809 0.0
C560 C 0.18775 0.08305 0.47848 0.0
C561 C 0.26348 0.05642 0.52852 0.0
C562 C 0.13114 0.16922 0.43426 0.0
C563 C 0.14751 0.14874 0.44177 0.0
C564 C 0.20603 0.13681 0.4802 0.0
C565 C 0.23161 0.06978 0.49862 0.0
C566 C 0.21409 0.09029 0.48821 0.0
C567 C 0.16105 0.15043 0.46308 0.0
C568 C 0.17961 0.12955 0.47087 0.0
H569 H 0.24546 1.00434 0.4933 0.0
H570 H 0.21953 0.03835 0.47453 0.0
H571 H 0.24343 0.12397 0.49535 0.0
H572 H 0.13763 0.20914 0.48121 0.0
H573 H 0.16666 0.17412 0.49374 0.0
C574 C 0.19734 0.91415 0.57004 0.0
C575 C 0.21466 0.90061 0.58478 0.0
C576 C 0.17289 0.90142 0.56109 0.0
C577 C 0.12463 0.8394 0.56527 0.0
H578 H 0.10788 0.85786 0.50274 0.0
C579 C 0.05186 0.7745 0.50398 0.0
C580 C 0.03461 0.78802 0.48913 0.0
C581 C 0.07073 0.7887 0.51854 0.0
C582 C 0.11198 0.85266 0.52031 0.0
H583 H 0.2196 0.86337 0.6022 0.0
H584 H 0.17741 0.84067 0.58607 0.0
H585 H 0.1465 0.88154 0.52237 0.0
H586 H 0.02312 0.82683 0.47817 0.0
H587 H 0.05588 0.85168 0.50358 0.0
H588 H 0.09053 0.80962 0.56255 0.0
C589 C 0.18218 0.86137 0.58177 0.0
C590 C 0.13418 0.86638 0.53171 0.0
C591 C 0.20645 0.87432 0.59103 0.0
C592 C 0.03585 0.81595 0.48974 0.0
C593 C 0.05485 0.83014 0.50409 0.0
C594 C 0.10256 0.82541 0.55371 0.0
C595 C 0.16531 0.87454 0.56622 0.0
C596 C 0.14091 0.86007 0.55442 0.0
C597 C 0.07308 0.81673 0.51824 0.0
C598 C 0.09591 0.83192 0.53108 0.0
H599 H 0.20325 0.93437 0.5648 0.0
H600 H 0.16024 0.91262 0.54974 0.0
H601 H 0.12876 0.83405 0.58279 0.0
H602 H 0.05193 0.753 0.50337 0.0
H603 H 0.08463 0.77775 0.52903 0.0
C604 C 0.81891 1.01151 0.5251 0.0
C605 C 0.78945 1.01009 0.5241 0.0
C606 C 0.83431 0.99261 0.51406 0.0
C607 C 0.82842 0.92381 0.49184 0.0
H608 H 0.89746 0.94502 0.4603 0.0
C609 C 0.889 0.84689 0.44253 0.0
C610 C 0.91836 0.84866 0.44402 0.0
C611 C 0.87338 0.86752 0.45048 0.0
C612 C 0.87841 0.93866 0.46924 0.0
H613 H 0.75334 0.9874 0.51019 0.0
H614 H 0.78022 0.95426 0.49118 0.0
H615 H 0.86994 0.9788 0.47765 0.0
H616 H 0.95435 0.87395 0.45443 0.0
H617 H 0.92711 0.90995 0.46865 0.0
H618 H 0.83702 0.8837 0.48393 0.0
C619 C 0.79136 0.97004 0.5007 0.0
C620 C 0.86256 0.95809 0.47917 0.0
C621 C 0.77591 0.98908 0.51166 0.0
C622 C 0.93179 0.87208 0.45287 0.0
C623 C 0.91609 0.89271 0.46103 0.0
C624 C 0.84432 0.90439 0.48205 0.0
C625 C 0.82079 0.97153 0.50178 0.0
C626 C 0.83735 0.95093 0.49064 0.0
C627 C 0.8866 0.8905 0.46036 0.0
C628 C 0.86957 0.91148 0.47056 0.0
H629 H 0.83021 0.02692 0.53492 0.0
H630 H 0.85688 0.99417 0.51564 0.0
H631 H 0.80941 0.91747 0.50087 0.0
H632 H 0.87803 0.82928 0.43549 0.0
H633 H 0.85082 0.86528 0.44903 0.0
C634 C 0.84766 0.14931 0.59206 0.0
C635 C 0.82816 0.13569 0.57761 0.0
C636 C 0.8717 0.16295 0.58297 0.0
C637 C 0.89497 0.19768 0.53087 0.0
H638 H 0.97088 0.1924 0.55257 0.0
C639 C 0.98534 0.26675 0.49572 0.0
C640 C 1.00788 0.25343 0.48702 0.0
C641 C 0.96554 0.25347 0.51 0.0
C642 C 0.94976 0.19415 0.54641 0.0
H643 H 0.81889 0.12512 0.54249 0.0
H644 H 0.86041 0.1491 0.52667 0.0
H645 H 0.93216 0.16588 0.57089 0.0
H646 H 0.02804 0.21627 0.48694 0.0
H647 H 0.9939 0.19318 0.51255 0.0
H648 H 0.91226 0.22583 0.50647 0.0
C649 C 0.85727 0.14923 0.54498 0.0
C650 C 0.92762 0.17906 0.55695 0.0
C651 C 0.83359 0.13534 0.55405 0.0
C652 C 1.01116 0.22709 0.49387 0.0
C653 C 0.99155 0.21389 0.50842 0.0
C654 C 0.91693 0.21305 0.52066 0.0
C655 C 0.87636 0.16362 0.55924 0.0
C656 C 0.90001 0.18039 0.54906 0.0
C657 C 0.96795 0.22663 0.51601 0.0
C658 C 0.94465 0.21134 0.52813 0.0
H659 H 0.84375 0.15024 0.61024 0.0
H660 H 0.88596 0.17396 0.59439 0.0
H661 H 0.87392 0.19933 0.52451 0.0
H662 H 0.98209 0.28688 0.49028 0.0
H663 H 0.94772 0.2639 0.51566 0.0
C664 C 0.28672 0.56992 0.03141 0.0
C665 C 0.28753 0.54361 0.02347 0.0
C666 C 0.30435 0.59045 0.02211 0.0
C667 C 0.35022 0.60893 0.97236 0.0
H668 H 0.38445 0.66023 1.01487 0.0
C669 C 0.41185 0.70711 0.94419 0.0
C670 C 0.43434 0.71686 0.95783 0.0
C671 C 0.39564 0.6841 0.95059 0.0
C672 C 0.37538 0.64594 1.00273 0.0
H673 H 0.30691 0.51872 0.99862 0.0
H674 H 0.33782 0.55439 0.98262 0.0
H675 H 0.35217 0.62468 0.02891 0.0
H676 H 0.4581 0.70995 0.98835 0.0
H677 H 0.43043 0.66936 0.99928 0.0
H678 H 0.3738 0.63014 0.9462 0.0
C679 C 0.32346 0.5592 0.99604 0.0
C680 C 0.35645 0.62571 1.01078 0.0
C681 C 0.30586 0.53864 1.00538 0.0
C682 C 0.44114 0.70255 0.97738 0.0
C683 C 0.42497 0.67955 0.98379 0.0
C684 C 0.36914 0.62926 0.96428 0.0
C685 C 0.32333 0.58533 1.00454 0.0
C686 C 0.34349 0.60695 0.99573 0.0
C687 C 0.40145 0.67045 0.97087 0.0
C688 C 0.38201 0.64807 0.97936 0.0
H689 H 0.27316 0.57457 0.04544 0.0
H690 H 0.30327 0.61037 0.02887 0.0
H691 H 0.34055 0.59499 0.96021 0.0
H692 H 0.4058 0.71819 0.92934 0.0
H693 H 0.37759 0.67792 0.94031 0.0
C694 C 0.72533 0.65791 0.09954 0.0
C695 C 0.73039 0.63346 0.08935 0.0
C696 C 0.70263 0.67225 0.0925 0.0
C697 C 0.63636 0.66637 0.05774 0.0
H698 H 0.64821 0.7431 0.05342 0.0
C699 C 0.56734 0.73018 1.0014 0.0
C700 C 0.55972 0.75495 1.00966 0.0
C701 C 0.58627 0.7153 1.01336 0.0
C702 C 0.64437 0.72173 0.05477 0.0
H703 H 0.71583 0.60479 0.06389 0.0
H704 H 0.67656 0.62965 0.05135 0.0
H705 H 0.6843 0.71722 0.07023 0.0
H706 H 0.56598 0.78325 0.03729 0.0
H707 H 0.59936 0.75729 0.05819 0.0
H708 H 0.59678 0.67091 0.04159 0.0
C709 C 0.68946 0.63769 0.06519 0.0
C710 C 0.66511 0.70679 0.06451 0.0
C711 C 0.71202 0.62335 0.07234 0.0
C712 C 0.5713 0.76424 0.03048 0.0
C713 C 0.5906 0.74945 0.04235 0.0
C714 C 0.61577 0.68128 0.04783 0.0
C715 C 0.68458 0.66261 0.07489 0.0
C716 C 0.66161 0.6788 0.06592 0.0
C717 C 0.59842 0.72479 0.0339 0.0
C718 C 0.61959 0.70915 0.04596 0.0
H719 H 0.73944 0.66628 0.11248 0.0
H720 H 0.69947 0.69108 0.10068 0.0
H721 H 0.63242 0.645 0.05891 0.0
H722 H 0.55864 0.72225 0.98556 0.0
H723 H 0.59191 0.69657 1.00618 0.0
C724 C 0.76566 0.48202 1.01051 0.0
C725 C 0.75486 0.49916 0.02679 0.0
C726 C 0.74865 0.461 1.00106 0.0
C727 C 0.68439 0.41828 1.01316 0.0
H728 H 0.68536 0.40195 0.94855 0.0
C729 C 0.60646 0.33766 0.97593 0.0
C730 C 0.61673 0.32049 0.95957 0.0
C731 C 0.62208 0.36105 0.98217 0.0
C732 C 0.68497 0.40603 0.96668 0.0
H733 H 0.7177 0.50706 0.04617 0.0
H734 H 0.68829 0.47088 0.02969 0.0
H735 H 0.71595 0.43863 0.96352 0.0
H736 H 0.65096 0.31429 0.93659 0.0
H737 H 0.67847 0.35491 0.94749 0.0
H738 H 0.65401 0.38554 0.0166 0.0
C739 C 0.70985 0.4736 0.02415 0.0
C740 C 0.70257 0.4271 0.97526 0.0
C741 C 0.7267 0.49461 0.03341 0.0
C742 C 0.64237 0.32759 0.94889 0.0
C743 C 0.65813 0.35086 0.95524 0.0
C744 C 0.66698 0.39716 1.00464 0.0
C745 C 0.72055 0.4564 1.00791 0.0
C746 C 0.70241 0.43359 0.99862 0.0
C747 C 0.64858 0.3676 0.97245 0.0
C748 C 0.66685 0.39073 0.98125 0.0
H749 H 0.7872 0.48493 1.00497 0.0
H750 H 0.75765 0.44804 0.98871 0.0
H751 H 0.68403 0.42234 0.0313 0.0
H752 H 0.58693 0.33237 0.98462 0.0
H753 H 0.61365 0.37363 0.9951 0.0
C754 C 0.45564 0.27748 1.00219 0.0
C755 C 0.48381 0.27896 1.00931 0.0
C756 C 0.43592 0.29271 1.01279 0.0
C757 C 0.42015 0.33016 0.06509 0.0
H758 H 0.3714 0.36713 0.02485 0.0
C759 C 0.32072 0.38225 0.09535 0.0
C760 C 0.31558 0.40659 0.08495 0.0
C761 C 0.343 0.36756 0.08797 0.0
C762 C 0.38493 0.35711 0.03637 0.0
H763 H 0.51269 0.29733 0.03406 0.0
H764 H 0.47803 0.32344 0.0529 0.0
H765 H 0.40624 0.33935 1.00871 0.0
H766 H 0.32971 0.43486 0.05898 0.0
H767 H 0.36859 0.40939 0.04608 0.0
H768 H 0.39851 0.34788 0.09278 0.0
C769 C 0.47137 0.31047 0.03892 0.0
C770 C 0.40476 0.34093 0.0271 0.0
C771 C 0.49126 0.29537 0.02813 0.0
C772 C 0.33349 0.4163 0.06746 0.0
C773 C 0.35554 0.40155 0.05994 0.0
C774 C 0.39998 0.34612 0.0744 0.0
C775 C 0.44355 0.30973 0.03108 0.0
C776 C 0.42265 0.32717 0.04129 0.0
C777 C 0.36031 0.37672 0.06978 0.0
C778 C 0.38214 0.35988 0.06015 0.0
H779 H 0.44873 0.2646 0.98822 0.0
H780 H 0.41458 0.29118 1.0066 0.0
H781 H 0.43347 0.31977 0.07652 0.0
H782 H 0.30688 0.37417 0.1086 0.0
H783 H 0.34589 0.34845 0.09581 0.0
C784 C 1.01124 0.61723 0.4351 0.0
C785 C 1.02158 0.63252 0.41654 0.0
C786 C 1.01146 0.58941 0.43472 0.0
C787 C 1.01956 0.53263 0.39396 0.0
H788 H 1.02274 0.49172 0.44988 0.0
C789 C 0.04308 0.42109 0.3987 0.0
C790 C 0.02289 0.40397 0.40983 0.0
C791 C 0.04174 0.44873 0.39947 0.0
C792 C 1.02163 0.50294 0.43416 0.0
H793 H 0.04122 0.63087 0.38341 0.0
H794 H 0.04343 0.58263 0.38323 0.0
H795 H 0.02495 0.54022 0.45168 0.0
H796 H 0.98526 0.40355 0.43062 0.0
H797 H 0.98401 0.45195 0.43289 0.0
H798 H 1.01775 0.49505 0.37655 0.0
C799 C 0.03393 0.59175 0.39776 0.0
C800 C 1.02276 0.53082 0.43512 0.0
C801 C 0.03307 0.61952 0.39793 0.0
C802 C 1.00148 0.41571 0.42204 0.0
C803 C 1.00059 0.44351 0.42327 0.0
C804 C 1.01912 0.50482 0.39302 0.0
C805 C 1.02258 0.57611 0.41593 0.0
C806 C 1.02172 0.54621 0.41502 0.0
C807 C 1.02067 0.46024 0.41191 0.0
C808 C 1.02007 0.48969 0.41309 0.0
H809 H 1.00184 0.62675 0.44951 0.0
H810 H 1.00203 0.5784 0.44891 0.0
H811 H 1.01792 0.54338 0.37808 0.0
H812 H 0.06054 0.41333 0.38975 0.0
H813 H 0.05768 0.4612 0.39079 0.0
C814 C 0.6261 0.0238 0.58268 0.0
C815 C 0.64066 0.0396 0.59906 0.0
C816 C 0.59745 1.01686 0.58529 0.0
C817 C 0.53858 1.01277 0.62695 0.0
H818 H 0.49313 0.02016 0.57284 0.0
C819 C 0.42075 0.97565 0.62083 0.0
C820 C 0.40291 0.99107 0.60813 0.0
C821 C 0.44957 0.98261 0.62193 0.0
C822 C 0.50542 1.0182 0.5882 0.0
H823 H 0.6371 0.05965 0.63144 0.0
H824 H 0.58708 0.04725 0.63628 0.0
H825 H 0.54368 0.02872 0.57053 0.0
H826 H 0.40109 0.02592 0.58675 0.0
H827 H 0.4513 0.03841 0.58886 0.0
H828 H 0.50012 1.00229 0.6446 0.0
C829 C 0.59771 0.04017 0.62138 0.0
C830 C 0.53454 0.02277 0.58679 0.0
C831 C 0.62636 0.04725 0.61867 0.0
C832 C 0.41431 1.01402 0.59706 0.0
C833 C 0.44313 0.02091 0.59801 0.0
C834 C 0.50939 1.00795 0.62831 0.0
C835 C 0.58268 0.02543 0.60444 0.0
C836 C 0.55159 0.02011 0.60612 0.0
C837 C 0.46129 1.00496 0.61003 0.0
C838 C 0.49238 1.01066 0.60895 0.0
H839 H 0.63668 1.01771 0.5674 0.0
H840 H 0.58674 1.00512 0.57208 0.0
H841 H 0.551 1.01042 0.64217 0.0
H842 H 0.41254 0.95752 0.62907 0.0
H843 H 0.46285 0.9697 0.63115 0.0
C844 C 0.56068 0.11789 0.94403 0.0
C845 C 0.5374 0.13315 0.94706 0.0
C846 C 0.55745 0.09017 0.9419 0.0
C847 C 0.50595 0.03239 0.95316 0.0
H848 H 0.55963 0.99361 0.9192 0.0
C849 C 0.49095 0.91879 0.93887 0.0
C850 C 0.5139 0.90376 0.94398 0.0
C851 C 0.49406 0.94656 0.9374 0.0
C852 C 0.54457 1.00414 0.92887 0.0
H853 H 0.49233 0.13126 0.94951 0.0
H854 H 0.48633 0.08287 0.94477 0.0
H855 H 0.5634 0.04217 0.91916 0.0
H856 H 0.55837 0.90606 0.95063 0.0
H857 H 0.56409 0.95489 0.94744 0.0
H858 H 0.4868 0.9942 0.96236 0.0
C859 C 0.50732 0.0922 0.94473 0.0
C860 C 0.54674 0.0321 0.92896 0.0
C861 C 0.51064 0.12003 0.94717 0.0
C862 C 0.54038 0.91713 0.94654 0.0
C863 C 0.54359 0.94505 0.94475 0.0
C864 C 0.50355 1.00448 0.95277 0.0
C865 C 0.53074 0.07672 0.9424 0.0
C866 C 0.5276 0.04676 0.94128 0.0
C867 C 0.5203 0.96015 0.94069 0.0
C868 C 0.52291 0.98995 0.94074 0.0
H869 H 0.58162 0.12736 0.94398 0.0
H870 H 0.57613 0.07929 0.94059 0.0
H871 H 0.49109 0.04262 0.96328 0.0
H872 H 0.47027 0.90909 0.93681 0.0
H873 H 0.47577 0.95747 0.93392 0.0
C874 C 0.13 0.51832 0.09482 0.0
C875 C 0.13973 0.49698 0.10734 0.0
C876 C 0.10201 0.52479 0.0965 0.0
C877 C 0.03726 0.51615 0.13148 0.0
H878 H 0.99967 0.52716 0.07397 0.0
C879 C 0.9248 0.5549 0.1235 0.0
C880 C 0.90722 0.54309 0.10666 0.0
C881 C 0.95278 0.54825 0.12542 0.0
C882 C 1.00975 0.52401 0.0902 0.0
H883 H 0.12801 0.46597 0.13166 0.0
H884 H 0.07921 0.47769 0.13517 0.0
H885 H 0.04932 0.51899 0.07422 0.0
H886 H 0.90485 0.51488 0.07883 0.0
H887 H 0.9536 0.50323 0.08205 0.0
H888 H 0.99755 0.52134 0.14742 0.0
C889 C 0.0932 0.48952 0.12411 0.0
C890 C 0.03837 0.51961 0.09036 0.0
C891 C 0.12116 0.48284 0.12219 0.0
C892 C 0.9179 0.52401 0.09214 0.0
C893 C 0.9459 0.51759 0.09385 0.0
C894 C 1.00865 0.52097 0.13134 0.0
C895 C 0.08305 0.51018 0.11085 0.0
C896 C 0.05257 0.51553 0.11098 0.0
C897 C 0.96392 0.52997 0.11024 0.0
C898 C 0.99443 0.5248 0.11067 0.0
H899 H 0.14379 0.52922 0.08296 0.0
H900 H 0.09506 0.54097 0.08621 0.0
H901 H 0.04748 0.51319 0.14769 0.0
H902 H 0.91717 0.56999 0.13463 0.0
H903 H 0.96602 0.55831 0.13812 0.0
loop_
_geom_bond_atom_site_label_1
_geom_bond_atom_site_label_2
_geom_bond_distance
_geom_bond_site_symmetry_2
_ccdc_geom_bond_type
C0 C1 1.443 . S
C0 N4 1.376 . S
C0 C38 1.389 . S
C1 C0 1.443 . S
C1 C2 1.340 . S
C1 H41 0.951 . S
C2 C1 1.340 . S
C2 C3 1.439 . S
C2 H42 0.950 . S
C3 C2 1.439 . S
C3 N4 1.374 . S
C3 C37 1.395 . S
N4 C0 1.376 . S
N4 C3 1.374 . S
N4 Co5 2.008 . S
Co5 N4 2.008 . S
Co5 N6 1.995 . S
Co5 N11 2.008 . S
Co5 N16 1.995 . S
Co5 N21 2.282 . S
Co5 N27 2.282 . S
N6 Co5 1.995 . S
N6 C7 1.376 . S
N6 C10 1.383 . S
C7 N6 1.376 . S
C7 C8 1.446 . S
C7 C37 1.391 . S
C8 C7 1.446 . S
C8 C9 1.339 . S
C8 H43 0.949 . S
C9 C8 1.339 . S
C9 C10 1.439 . S
C9 H44 0.950 . S
C10 N6 1.383 . S
C10 C9 1.439 . S
C10 C39 1.392 1_455 S
N11 Co5 2.008 . S
N11 C12 1.376 1_455 S
N11 C15 1.374 1_455 S
C12 N11 1.376 1_655 S
C12 C13 1.443 . S
C12 C39 1.389 . S
C13 C12 1.443 . S
C13 C14 1.340 . S
C13 H45 0.951 . S
C14 C13 1.340 . S
C14 C15 1.439 . S
C14 H46 0.950 . S
C15 N11 1.374 1_655 S
C15 C14 1.439 . S
C15 C40 1.409 . S
N16 Co5 1.995 . S
N16 C17 1.376 . S
N16 C20 1.383 . S
C17 N16 1.376 . S
C17 C18 1.446 . S
C17 C40 1.358 1_455 S
C18 C17 1.446 . S
C18 C19 1.339 . S
C18 H47 0.949 . S
C19 C18 1.339 . S
C19 C20 1.439 . S
C19 H48 0.950 . S
C20 N16 1.383 . S
C20 C19 1.439 . S
C20 C38 1.392 . S
N21 Co5 2.282 . S
N21 C24 1.332 . S
N21 C26 1.332 . S
C22 C23 1.386 . S
C22 C25 1.388 . S
C23 C22 1.386 . S
C23 C24 1.382 . S
C23 H49 0.950 . S
C24 N21 1.332 . S
C24 C23 1.382 . S
C24 H35 0.952 . S
C25 C22 1.388 . S
C25 C26 1.382 . S
C25 H50 0.950 . S
C26 N21 1.332 . S
C26 C25 1.382 . S
C26 H36 0.948 . S
N27 Co5 2.282 . S
N27 C31 1.332 . S
N27 C32 1.332 . S
C28 C29 1.388 . S
C28 C32 1.382 1_655 S
C28 H51 0.950 . S
C29 C28 1.388 . S
C29 C30 1.386 1_655 S
C30 C29 1.386 1_455 S
C30 C31 1.382 . S
C30 H52 0.950 . S
C31 N27 1.332 . S
C31 C30 1.382 . S
C31 H33 0.952 . S
C32 N27 1.332 . S
C32 C28 1.382 1_455 S
C32 H34 0.948 1_455 S
H33 C31 0.952 . S
H34 C32 0.948 1_655 S
H35 C24 0.952 . S
H36 C26 0.948 . S
C37 C3 1.395 . S
C37 C7 1.391 . S
C38 C0 1.389 . S
C38 C20 1.392 . S
C39 C10 1.392 1_655 S
C39 C12 1.389 . S
C40 C15 1.409 . S
C40 C17 1.358 1_655 S
H41 C1 0.951 . S
H42 C2 0.950 . S
H43 C8 0.949 . S
H44 C9 0.950 . S
H45 C13 0.951 . S
H46 C14 0.950 . S
H47 C18 0.949 . S
H48 C19 0.950 . S
H49 C23 0.950 . S
H50 C25 0.950 . S
H51 C28 0.950 . S
H52 C30 0.950 . S
C53 C54 1.443 . S
C53 N57 1.376 . S
C53 C91 1.389 . S
C54 C53 1.443 . S
C54 C55 1.340 . S
C54 H94 0.951 . S
C55 C54 1.340 . S
C55 C56 1.439 . S
C55 H95 0.950 . S
C56 C55 1.439 . S
C56 N57 1.374 . S
C56 C90 1.395 . S
N57 C53 1.376 . S
N57 C56 1.374 . S
N57 Co58 2.008 . S
Co58 N57 2.008 . S
Co58 N59 1.995 . S
Co58 N64 2.008 . S
Co58 N69 1.995 . S
Co58 N74 2.282 . S
Co58 N80 2.282 . S
N59 Co58 1.995 . S
N59 C60 1.376 . S
N59 C63 1.383 . S
C60 N59 1.376 . S
C60 C61 1.446 . S
C60 C90 1.391 . S
C61 C60 1.446 . S
C61 C62 1.339 . S
C61 H96 0.949 . S
C62 C61 1.339 . S
C62 C63 1.439 . S
C62 H97 0.950 . S
C63 N59 1.383 . S
C63 C62 1.439 . S
C63 C92 1.392 . S
N64 Co58 2.008 . S
N64 C65 1.376 . S
N64 C68 1.374 . S
C65 N64 1.376 . S
C65 C66 1.443 . S
C65 C92 1.389 . S
C66 C65 1.443 . S
C66 C67 1.340 . S
C66 H98 0.951 . S
C67 C66 1.340 . S
C67 C68 1.439 . S
C67 H99 0.950 . S
C68 N64 1.374 . S
C68 C67 1.439 . S
C68 C93 1.395 . S
N69 Co58 1.995 . S
N69 C70 1.376 . S
N69 C73 1.383 . S
C70 N69 1.376 . S
C70 C71 1.446 . S
C70 C93 1.391 . S
C71 C70 1.446 . S
C71 C72 1.339 . S
C71 H100 0.949 1_565 S
C72 C71 1.339 . S
C72 C73 1.439 . S
C72 H101 0.950 1_565 S
C73 N69 1.383 . S
C73 C72 1.439 . S
C73 C91 1.392 . S
N74 Co58 2.282 . S
N74 C77 1.332 . S
N74 C79 1.332 . S
C75 C76 1.386 1_565 S
C75 C78 1.388 . S
C76 C75 1.386 1_545 S
C76 C77 1.382 1_545 S
C76 H102 0.950 . S
C77 N74 1.332 . S
C77 C76 1.382 1_565 S
C77 H88 0.952 . S
C78 C75 1.388 . S
C78 C79 1.382 . S
C78 H103 0.950 . S
C79 N74 1.332 . S
C79 C78 1.382 . S
C79 H89 0.948 . S
N80 Co58 2.282 . S
N80 C84 1.332 . S
N80 C85 1.332 . S
C81 C82 1.388 . S
C81 C85 1.382 . S
C81 H104 0.950 . S
C82 C81 1.388 . S
C82 C83 1.386 . S
C83 C82 1.386 . S
C83 C84 1.382 . S
C83 H105 0.950 . S
C84 N80 1.332 . S
C84 C83 1.382 . S
C84 H86 0.952 . S
C85 N80 1.332 . S
C85 C81 1.382 . S
C85 H87 0.948 . S
H86 C84 0.952 . S
H87 C85 0.948 . S
H88 C77 0.952 . S
H89 C79 0.948 . S
C90 C56 1.395 . S
C90 C60 1.391 . S
C91 C53 1.389 . S
C91 C73 1.392 . S
C92 C63 1.392 . S
C92 C65 1.389 . S
C93 C68 1.395 . S
C93 C70 1.391 . S
H94 C54 0.951 . S
H95 C55 0.950 . S
H96 C61 0.949 . S
H97 C62 0.950 . S
H98 C66 0.951 . S
H99 C67 0.950 . S
H100 C71 0.949 1_545 S
H101 C72 0.950 1_545 S
H102 C76 0.950 . S
H103 C78 0.950 . S
H104 C81 0.950 . S
H105 C83 0.950 . S
C106 C107 1.443 . S
C106 N110 1.376 . S
C106 C144 1.389 . S
C107 C106 1.443 . S
C107 C108 1.340 . S
C107 H147 0.951 . S
C108 C107 1.340 . S
C108 C109 1.439 . S
C108 H148 0.950 . S
C109 C108 1.439 . S
C109 N110 1.374 . S
C109 C143 1.395 . S
N110 C106 1.376 . S
N110 C109 1.374 . S
N110 Co111 2.008 . S
Co111 N110 2.008 . S
Co111 N112 1.995 . S
Co111 N117 2.008 . S
Co111 N122 1.995 . S
Co111 N127 2.282 . S
Co111 N133 2.282 . S
N112 Co111 1.995 . S
N112 C113 1.376 . S
N112 C116 1.383 . S
C113 N112 1.376 . S
C113 C114 1.446 . S
C113 C143 1.391 . S
C114 C113 1.446 . S
C114 C115 1.339 . S
C114 H149 0.949 . S
C115 C114 1.339 . S
C115 C116 1.439 . S
C115 H150 0.950 . S
C116 N112 1.383 . S
C116 C115 1.439 . S
C116 C145 1.392 1_655 S
N117 Co111 2.008 . S
N117 C118 1.376 1_655 S
N117 C121 1.374 1_655 S
C118 N117 1.376 1_455 S
C118 C119 1.443 . S
C118 C145 1.389 . S
C119 C118 1.443 . S
C119 C120 1.340 . S
C119 H151 0.951 . S
C120 C119 1.340 . S
C120 C121 1.439 . S
C120 H152 0.950 . S
C121 N117 1.374 1_455 S
C121 C120 1.439 . S
C121 C146 1.409 . S
N122 Co111 1.995 . S
N122 C123 1.376 . S
N122 C126 1.383 . S
C123 N122 1.376 . S
C123 C124 1.446 . S
C123 C146 1.358 1_655 S
C124 C123 1.446 . S
C124 C125 1.339 . S
C124 H153 0.949 . S
C125 C124 1.339 . S
C125 C126 1.439 . S
C125 H154 0.950 . S
C126 N122 1.383 . S
C126 C125 1.439 . S
C126 C144 1.392 . S
N127 Co111 2.282 . S
N127 C130 1.332 . S
N127 C132 1.332 . S
C128 C129 1.386 . S
C128 C131 1.388 . S
C129 C128 1.386 . S
C129 C130 1.382 . S
C129 H155 0.950 . S
C130 N127 1.332 . S
C130 C129 1.382 . S
C130 H141 0.952 . S
C131 C128 1.388 . S
C131 C132 1.382 . S
C131 H156 0.950 . S
C132 N127 1.332 . S
C132 C131 1.382 . S
C132 H142 0.948 . S
N133 Co111 2.282 . S
N133 C137 1.332 . S
N133 C138 1.332 . S
C134 C135 1.388 . S
C134 C138 1.382 1_455 S
C134 H157 0.950 . S
C135 C134 1.388 . S
C135 C136 1.386 1_455 S
C136 C135 1.386 1_655 S
C136 C137 1.382 . S
C136 H158 0.950 . S
C137 N133 1.332 . S
C137 C136 1.382 . S
C137 H139 0.952 . S
C138 N133 1.332 . S
C138 C134 1.382 1_655 S
C138 H140 0.948 1_655 S
H139 C137 0.952 . S
H140 C138 0.948 1_455 S
H141 C130 0.952 . S
H142 C132 0.948 . S
C143 C109 1.395 . S
C143 C113 1.391 . S
C144 C106 1.389 . S
C144 C126 1.392 . S
C145 C116 1.392 1_455 S
C145 C118 1.389 . S
C146 C121 1.409 . S
C146 C123 1.358 1_455 S
H147 C107 0.951 . S
H148 C108 0.950 . S
H149 C114 0.949 . S
H150 C115 0.950 . S
H151 C119 0.951 . S
H152 C120 0.950 . S
H153 C124 0.949 . S
H154 C125 0.950 . S
H155 C129 0.950 . S
H156 C131 0.950 . S
H157 C134 0.950 . S
H158 C136 0.950 . S
C159 C160 1.443 . S
C159 N163 1.376 . S
C159 C197 1.389 . S
C160 C159 1.443 . S
C160 C161 1.340 . S
C160 H200 0.951 . S
C161 C160 1.340 . S
C161 C162 1.439 . S
C161 H201 0.950 . S
C162 C161 1.439 . S
C162 N163 1.374 . S
C162 C196 1.395 . S
N163 C159 1.376 . S
N163 C162 1.374 . S
N163 Co164 2.008 . S
Co164 N163 2.008 . S
Co164 N165 1.995 . S
Co164 N170 2.008 . S
Co164 N175 1.995 . S
Co164 N180 2.282 . S
Co164 N186 2.282 . S
N165 Co164 1.995 . S
N165 C166 1.376 . S
N165 C169 1.383 . S
C166 N165 1.376 . S
C166 C167 1.446 . S
C166 C196 1.391 . S
C167 C166 1.446 . S
C167 C168 1.339 . S
C167 H202 0.949 . S
C168 C167 1.339 . S
C168 C169 1.439 . S
C168 H203 0.950 . S
C169 N165 1.383 . S
C169 C168 1.439 . S
C169 C198 1.392 . S
N170 Co164 2.008 . S
N170 C171 1.376 . S
N170 C174 1.374 . S
C171 N170 1.376 . S
C171 C172 1.443 . S
C171 C198 1.389 . S
C172 C171 1.443 . S
C172 C173 1.340 . S
C172 H204 0.951 . S
C173 C172 1.340 . S
C173 C174 1.439 . S
C173 H205 0.950 . S
C174 N170 1.374 . S
C174 C173 1.439 . S
C174 C199 1.395 . S
N175 Co164 1.995 . S
N175 C176 1.376 . S
N175 C179 1.383 . S
C176 N175 1.376 . S
C176 C177 1.446 . S
C176 C199 1.391 . S
C177 C176 1.446 . S
C177 C178 1.339 . S
C177 H206 0.949 1_545 S
C178 C177 1.339 . S
C178 C179 1.439 . S
C178 H207 0.950 1_545 S
C179 N175 1.383 . S
C179 C178 1.439 . S
C179 C197 1.392 . S
N180 Co164 2.282 . S
N180 C183 1.332 . S
N180 C185 1.332 . S
C181 C182 1.386 1_545 S
C181 C184 1.388 . S
C182 C181 1.386 1_565 S
C182 C183 1.382 1_565 S
C182 H208 0.950 . S
C183 N180 1.332 . S
C183 C182 1.382 1_545 S
C183 H194 0.952 . S
C184 C181 1.388 . S
C184 C185 1.382 . S
C184 H209 0.950 . S
C185 N180 1.332 . S
C185 C184 1.382 . S
C185 H195 0.948 . S
N186 Co164 2.282 . S
N186 C190 1.332 . S
N186 C191 1.332 . S
C187 C188 1.388 . S
C187 C191 1.382 . S
C187 H210 0.950 . S
C188 C187 1.388 . S
C188 C189 1.386 . S
C189 C188 1.386 . S
C189 C190 1.382 . S
C189 H211 0.950 . S
C190 N186 1.332 . S
C190 C189 1.382 . S
C190 H192 0.952 . S
C191 N186 1.332 . S
C191 C187 1.382 . S
C191 H193 0.948 . S
H192 C190 0.952 . S
H193 C191 0.948 . S
H194 C183 0.952 . S
H195 C185 0.948 . S
C196 C162 1.395 . S
C196 C166 1.391 . S
C197 C159 1.389 . S
C197 C179 1.392 . S
C198 C169 1.392 . S
C198 C171 1.389 . S
C199 C174 1.395 . S
C199 C176 1.391 . S
H200 C160 0.951 . S
H201 C161 0.950 . S
H202 C167 0.949 . S
H203 C168 0.950 . S
H204 C172 0.951 . S
H205 C173 0.950 . S
H206 C177 0.949 1_565 S
H207 C178 0.950 1_565 S
H208 C182 0.950 . S
H209 C184 0.950 . S
H210 C187 0.950 . S
H211 C189 0.950 . S
C212 C213 1.443 . S
C212 N216 1.376 . S
C212 C250 1.389 . S
C213 C212 1.443 . S
C213 C214 1.340 . S
C213 H253 0.951 . S
C214 C213 1.340 . S
C214 C215 1.439 . S
C214 H254 0.950 . S
C215 C214 1.439 . S
C215 N216 1.374 . S
C215 C249 1.395 . S
N216 C212 1.376 . S
N216 C215 1.374 . S
N216 Co217 2.008 . S
Co217 N216 2.008 . S
Co217 N218 1.995 . S
Co217 N223 2.008 . S
Co217 N228 1.995 . S
Co217 N233 2.282 . S
Co217 N239 2.282 . S
N218 Co217 1.995 . S
N218 C219 1.376 . S
N218 C222 1.383 . S
C219 N218 1.376 . S
C219 C220 1.446 . S
C219 C249 1.391 . S
C220 C219 1.446 . S
C220 C221 1.339 . S
C220 H255 0.949 . S
C221 C220 1.339 . S
C221 C222 1.439 . S
C221 H256 0.950 . S
C222 N218 1.383 . S
C222 C221 1.439 . S
C222 C251 1.392 . S
N223 Co217 2.008 . S
N223 C224 1.376 . S
N223 C227 1.374 . S
C224 N223 1.376 . S
C224 C225 1.443 . S
C224 C251 1.389 . S
C225 C224 1.443 . S
C225 C226 1.340 . S
C225 H257 0.951 . S
C226 C225 1.340 . S
C226 C227 1.439 . S
C226 H258 0.950 . S
C227 N223 1.374 . S
C227 C226 1.439 . S
C227 C252 1.395 . S
N228 Co217 1.995 . S
N228 C229 1.376 . S
N228 C232 1.383 . S
C229 N228 1.376 . S
C229 C230 1.446 . S
C229 C252 1.391 . S
C230 C229 1.446 . S
C230 C231 1.339 . S
C230 H259 0.949 . S
C231 C230 1.339 . S
C231 C232 1.439 . S
C231 H260 0.950 . S
C232 N228 1.383 . S
C232 C231 1.439 . S
C232 C250 1.392 . S
N233 Co217 2.282 . S
N233 C236 1.332 . S
N233 C238 1.332 . S
C234 C235 1.386 . S
C234 C237 1.388 . S
C235 C234 1.386 . S
C235 C236 1.382 . S
C235 H261 0.950 . S
C236 N233 1.332 . S
C236 C235 1.382 . S
C236 H247 0.952 . S
C237 C234 1.388 . S
C237 C238 1.382 . S
C237 H262 0.950 . S
C238 N233 1.332 . S
C238 C237 1.382 . S
C238 H248 0.948 . S
N239 Co217 2.282 . S
N239 C243 1.332 . S
N239 C244 1.332 . S
C240 C241 1.388 . S
C240 C244 1.382 . S
C240 H263 0.950 . S
C241 C240 1.388 . S
C241 C242 1.386 . S
C242 C241 1.386 . S
C242 C243 1.382 . S
C242 H264 0.950 1_556 S
C243 N239 1.332 . S
C243 C242 1.382 . S
C243 H245 0.952 . S
C244 N239 1.332 . S
C244 C240 1.382 . S
C244 H246 0.948 . S
H245 C243 0.952 . S
H246 C244 0.948 . S
H247 C236 0.952 . S
H248 C238 0.948 . S
C249 C215 1.395 . S
C249 C219 1.391 . S
C250 C212 1.389 . S
C250 C232 1.392 . S
C251 C222 1.392 . S
C251 C224 1.389 . S
C252 C227 1.395 . S
C252 C229 1.391 . S
H253 C213 0.951 . S
H254 C214 0.950 . S
H255 C220 0.949 . S
H256 C221 0.950 . S
H257 C225 0.951 . S
H258 C226 0.950 . S
H259 C230 0.949 . S
H260 C231 0.950 . S
H261 C235 0.950 . S
H262 C237 0.950 . S
H263 C240 0.950 . S
H264 C242 0.950 1_554 S
C265 C266 1.443 . S
C265 N269 1.376 . S
C265 C303 1.389 . S
C266 C265 1.443 . S
C266 C267 1.340 . S
C266 H306 0.951 . S
C267 C266 1.340 . S
C267 C268 1.439 . S
C267 H307 0.950 . S
C268 C267 1.439 . S
C268 N269 1.374 . S
C268 C302 1.395 . S
N269 C265 1.376 . S
N269 C268 1.374 . S
N269 Co270 2.008 . S
Co270 N269 2.008 . S
Co270 N271 1.995 . S
Co270 N276 2.008 . S
Co270 N281 1.995 . S
Co270 N286 2.282 . S
Co270 N292 2.282 . S
N271 Co270 1.995 . S
N271 C272 1.376 . S
N271 C275 1.383 . S
C272 N271 1.376 . S
C272 C273 1.446 . S
C272 C302 1.391 . S
C273 C272 1.446 . S
C273 C274 1.339 . S
C273 H308 0.949 . S
C274 C273 1.339 . S
C274 C275 1.439 . S
C274 H309 0.950 . S
C275 N271 1.383 . S
C275 C274 1.439 . S
C275 C304 1.392 . S
N276 Co270 2.008 . S
N276 C277 1.376 . S
N276 C280 1.374 . S
C277 N276 1.376 . S
C277 C278 1.443 . S
C277 C304 1.389 . S
C278 C277 1.443 . S
C278 C279 1.340 . S
C278 H310 0.951 . S
C279 C278 1.340 . S
C279 C280 1.439 . S
C279 H311 0.950 . S
C280 N276 1.374 . S
C280 C279 1.439 . S
C280 C305 1.395 . S
N281 Co270 1.995 . S
N281 C282 1.376 . S
N281 C285 1.383 . S
C282 N281 1.376 . S
C282 C283 1.446 . S
C282 C305 1.391 . S
C283 C282 1.446 . S
C283 C284 1.339 . S
C283 H312 0.949 . S
C284 C283 1.339 . S
C284 C285 1.439 . S
C284 H313 0.950 . S
C285 N281 1.383 . S
C285 C284 1.439 . S
C285 C303 1.392 . S
N286 Co270 2.282 . S
N286 C289 1.332 . S
N286 C291 1.332 . S
C287 C288 1.386 . S
C287 C290 1.388 . S
C288 C287 1.386 . S
C288 C289 1.382 . S
C288 H314 0.950 . S
C289 N286 1.332 . S
C289 C288 1.382 . S
C289 H300 0.952 . S
C290 C287 1.388 . S
C290 C291 1.382 . S
C290 H315 0.950 . S
C291 N286 1.332 . S
C291 C290 1.382 . S
C291 H301 0.948 . S
N292 Co270 2.282 . S
N292 C296 1.332 . S
N292 C297 1.332 . S
C293 C294 1.388 . S
C293 C297 1.382 . S
C293 H316 0.950 . S
C294 C293 1.388 . S
C294 C295 1.386 . S
C295 C294 1.386 . S
C295 C296 1.382 . S
C295 H317 0.950 . S
C296 N292 1.332 . S
C296 C295 1.382 . S
C296 H298 0.952 . S
C297 N292 1.332 . S
C297 C293 1.382 . S
C297 H299 0.948 . S
H298 C296 0.952 . S
H299 C297 0.948 . S
H300 C289 0.952 . S
H301 C291 0.948 . S
C302 C268 1.395 . S
C302 C272 1.391 . S
C303 C265 1.389 . S
C303 C285 1.392 . S
C304 C275 1.392 . S
C304 C277 1.389 . S
C305 C280 1.395 . S
C305 C282 1.391 . S
H306 C266 0.951 . S
H307 C267 0.950 . S
H308 C273 0.949 . S
H309 C274 0.950 . S
H310 C278 0.951 . S
H311 C279 0.950 . S
H312 C283 0.949 . S
H313 C284 0.950 . S
H314 C288 0.950 . S
H315 C290 0.950 . S
H316 C293 0.950 . S
H317 C295 0.950 . S
C318 C319 1.443 . S
C318 N322 1.376 . S
C318 C356 1.389 . S
C319 C318 1.443 . S
C319 C320 1.340 . S
C319 H359 0.951 . S
C320 C319 1.340 . S
C320 C321 1.439 . S
C320 H360 0.950 . S
C321 C320 1.439 . S
C321 N322 1.374 . S
C321 C355 1.395 . S
N322 C318 1.376 . S
N322 C321 1.374 . S
N322 Co323 2.008 . S
Co323 N322 2.008 . S
Co323 N324 1.995 . S
Co323 N329 2.008 . S
Co323 N334 1.995 . S
Co323 N339 2.282 . S
Co323 N345 2.282 . S
N324 Co323 1.995 . S
N324 C325 1.376 . S
N324 C328 1.383 . S
C325 N324 1.376 . S
C325 C326 1.446 . S
C325 C355 1.391 . S
C326 C325 1.446 . S
C326 C327 1.339 . S
C326 H361 0.949 . S
C327 C326 1.339 . S
C327 C328 1.439 . S
C327 H362 0.950 . S
C328 N324 1.383 . S
C328 C327 1.439 . S
C328 C357 1.392 . S
N329 Co323 2.008 . S
N329 C330 1.376 . S
N329 C333 1.374 . S
C330 N329 1.376 . S
C330 C331 1.443 . S
C330 C357 1.389 . S
C331 C330 1.443 . S
C331 C332 1.340 . S
C331 H363 0.951 . S
C332 C331 1.340 . S
C332 C333 1.439 . S
C332 H364 0.950 . S
C333 N329 1.374 . S
C333 C332 1.439 . S
C333 C358 1.395 . S
N334 Co323 1.995 . S
N334 C335 1.376 . S
N334 C338 1.383 . S
C335 N334 1.376 . S
C335 C336 1.446 . S
C335 C358 1.391 . S
C336 C335 1.446 . S
C336 C337 1.339 . S
C336 H365 0.949 . S
C337 C336 1.339 . S
C337 C338 1.439 . S
C337 H366 0.950 . S
C338 N334 1.383 . S
C338 C337 1.439 . S
C338 C356 1.392 . S
N339 Co323 2.282 . S
N339 C342 1.332 . S
N339 C344 1.332 . S
C340 C341 1.386 . S
C340 C343 1.388 . S
C341 C340 1.386 . S
C341 C342 1.382 . S
C341 H367 0.950 . S
C342 N339 1.332 . S
C342 C341 1.382 . S
C342 H353 0.952 . S
C343 C340 1.388 . S
C343 C344 1.382 . S
C343 H368 0.950 . S
C344 N339 1.332 . S
C344 C343 1.382 . S
C344 H354 0.948 . S
N345 Co323 2.282 . S
N345 C349 1.332 . S
N345 C350 1.332 . S
C346 C347 1.388 . S
C346 C350 1.382 . S
C346 H369 0.950 . S
C347 C346 1.388 . S
C347 C348 1.386 . S
C348 C347 1.386 . S
C348 C349 1.382 . S
C348 H370 0.950 1_556 S
C349 N345 1.332 . S
C349 C348 1.382 . S
C349 H351 0.952 . S
C350 N345 1.332 . S
C350 C346 1.382 . S
C350 H352 0.948 . S
H351 C349 0.952 . S
H352 C350 0.948 . S
H353 C342 0.952 . S
H354 C344 0.948 . S
C355 C321 1.395 . S
C355 C325 1.391 . S
C356 C318 1.389 . S
C356 C338 1.392 . S
C357 C328 1.392 . S
C357 C330 1.389 . S
C358 C333 1.395 . S
C358 C335 1.391 . S
H359 C319 0.951 . S
H360 C320 0.950 . S
H361 C326 0.949 . S
H362 C327 0.950 . S
H363 C331 0.951 . S
H364 C332 0.950 . S
H365 C336 0.949 . S
H366 C337 0.950 . S
H367 C341 0.950 . S
H368 C343 0.950 . S
H369 C346 0.950 . S
H370 C348 0.950 1_554 S
C371 C372 1.443 . S
C371 N375 1.376 . S
C371 C409 1.389 . S
C372 C371 1.443 . S
C372 C373 1.340 . S
C372 H412 0.951 . S
C373 C372 1.340 . S
C373 C374 1.439 . S
C373 H413 0.950 . S
C374 C373 1.439 . S
C374 N375 1.374 . S
C374 C408 1.395 . S
N375 C371 1.376 . S
N375 C374 1.374 . S
N375 Co376 2.008 . S
Co376 N375 2.008 . S
Co376 N377 1.995 . S
Co376 N382 2.008 . S
Co376 N387 1.995 . S
Co376 N392 2.282 . S
Co376 N398 2.282 . S
N377 Co376 1.995 . S
N377 C378 1.376 . S
N377 C381 1.383 . S
C378 N377 1.376 . S
C378 C379 1.446 . S
C378 C408 1.391 . S
C379 C378 1.446 . S
C379 C380 1.339 . S
C379 H414 0.949 . S
C380 C379 1.339 . S
C380 C381 1.439 . S
C380 H415 0.950 . S
C381 N377 1.383 . S
C381 C380 1.439 . S
C381 C410 1.392 . S
N382 Co376 2.008 . S
N382 C383 1.376 . S
N382 C386 1.374 . S
C383 N382 1.376 . S
C383 C384 1.443 . S
C383 C410 1.389 . S
C384 C383 1.443 . S
C384 C385 1.340 . S
C384 H416 0.951 . S
C385 C384 1.340 . S
C385 C386 1.439 . S
C385 H417 0.950 . S
C386 N382 1.374 . S
C386 C385 1.439 . S
C386 C411 1.395 . S
N387 Co376 1.995 . S
N387 C388 1.376 . S
N387 C391 1.383 . S
C388 N387 1.376 . S
C388 C389 1.446 . S
C388 C411 1.391 . S
C389 C388 1.446 . S
C389 C390 1.339 . S
C389 H418 0.949 . S
C390 C389 1.339 . S
C390 C391 1.439 . S
C390 H419 0.950 . S
C391 N387 1.383 . S
C391 C390 1.439 . S
C391 C409 1.392 . S
N392 Co376 2.282 . S
N392 C395 1.332 . S
N392 C397 1.332 . S
C393 C394 1.386 . S
C393 C396 1.388 . S
C394 C393 1.386 . S
C394 C395 1.382 . S
C394 H420 0.950 . S
C395 N392 1.332 . S
C395 C394 1.382 . S
C395 H406 0.952 . S
C396 C393 1.388 . S
C396 C397 1.382 . S
C396 H421 0.950 . S
C397 N392 1.332 . S
C397 C396 1.382 . S
C397 H407 0.948 . S
N398 Co376 2.282 . S
N398 C402 1.332 . S
N398 C403 1.332 . S
C399 C400 1.388 . S
C399 C403 1.382 . S
C399 H422 0.950 . S
C400 C399 1.388 . S
C400 C401 1.386 . S
C401 C400 1.386 . S
C401 C402 1.382 . S
C401 H423 0.950 . S
C402 N398 1.332 . S
C402 C401 1.382 . S
C402 H404 0.952 . S
C403 N398 1.332 . S
C403 C399 1.382 . S
C403 H405 0.948 . S
H404 C402 0.952 . S
H405 C403 0.948 . S
H406 C395 0.952 . S
H407 C397 0.948 . S
C408 C374 1.395 . S
C408 C378 1.391 . S
C409 C371 1.389 . S
C409 C391 1.392 . S
C410 C381 1.392 . S
C410 C383 1.389 . S
C411 C386 1.395 . S
C411 C388 1.391 . S
H412 C372 0.951 . S
H413 C373 0.950 . S
H414 C379 0.949 . S
H415 C380 0.950 . S
H416 C384 0.951 . S
H417 C385 0.950 . S
H418 C389 0.949 . S
H419 C390 0.950 . S
H420 C394 0.950 . S
H421 C396 0.950 . S
H422 C399 0.950 . S
H423 C401 0.950 . S
C424 C425 1.349 . S
C424 C426 1.327 . S
C424 H449 0.950 . S
C425 C424 1.349 . S
C425 C441 1.349 . S
C426 C424 1.327 . S
C426 C445 1.429 . S
C426 H450 0.950 . S
C427 C444 1.574 . S
C427 C446 1.368 . S
C427 H451 0.949 . S
H428 C432 0.949 . S
C429 C430 1.349 . S
C429 C431 1.327 . S
C429 H452 0.950 . S
C430 C429 1.349 . S
C430 C442 1.349 . S
C431 C429 1.327 . S
C431 C447 1.429 . S
C431 H453 0.950 . S
C432 H428 0.949 . S
C432 C440 1.574 . S
C432 C448 1.368 . S
H433 C441 0.950 . S
H434 C439 0.950 . S
H435 C440 0.949 . S
H436 C442 0.950 . S
H437 C443 0.950 . S
H438 C444 0.949 . S
C439 H434 0.950 . S
C439 C441 1.327 . S
C439 C445 1.429 . S
C440 C432 1.574 . S
C440 H435 0.949 . S
C440 C446 1.368 . S
C441 C425 1.349 . S
C441 H433 0.950 . S
C441 C439 1.327 . S
C442 C430 1.349 . S
C442 H436 0.950 . S
C442 C443 1.327 . S
C443 H437 0.950 . S
C443 C442 1.327 . S
C443 C447 1.429 . S
C444 C427 1.574 . S
C444 H438 0.949 . S
C444 C448 1.368 . S
C445 C426 1.429 . S
C445 C439 1.429 . S
C445 C446 1.523 . S
C446 C427 1.368 . S
C446 C440 1.368 . S
C446 C445 1.523 . S
C447 C431 1.429 . S
C447 C443 1.429 . S
C447 C448 1.523 . S
C448 C432 1.368 . S
C448 C444 1.368 . S
C448 C447 1.523 . S
H449 C424 0.950 . S
H450 C426 0.950 . S
H451 C427 0.949 . S
H452 C429 0.950 . S
H453 C431 0.950 . S
C454 C455 1.349 . S
C454 C456 1.327 . S
C454 H479 0.950 . S
C455 C454 1.349 . S
C455 C471 1.349 . S
C456 C454 1.327 . S
C456 C475 1.429 . S
C456 H480 0.950 . S
C457 C474 1.574 . S
C457 C476 1.368 . S
C457 H481 0.949 . S
H458 C462 0.949 . S
C459 C460 1.349 . S
C459 C461 1.327 . S
C459 H482 0.950 . S
C460 C459 1.349 . S
C460 C472 1.349 . S
C461 C459 1.327 . S
C461 C477 1.429 . S
C461 H483 0.950 . S
C462 H458 0.949 . S
C462 C470 1.574 . S
C462 C478 1.368 . S
H463 C471 0.950 . S
H464 C469 0.950 . S
H465 C470 0.949 . S
H466 C472 0.950 . S
H467 C473 0.950 . S
H468 C474 0.949 . S
C469 H464 0.950 . S
C469 C471 1.327 . S
C469 C475 1.429 . S
C470 C462 1.574 . S
C470 H465 0.949 . S
C470 C476 1.368 . S
C471 C455 1.349 . S
C471 H463 0.950 . S
C471 C469 1.327 . S
C472 C460 1.349 . S
C472 H466 0.950 . S
C472 C473 1.327 . S
C473 H467 0.950 . S
C473 C472 1.327 . S
C473 C477 1.429 . S
C474 C457 1.574 . S
C474 H468 0.949 . S
C474 C478 1.368 . S
C475 C456 1.429 . S
C475 C469 1.429 . S
C475 C476 1.523 . S
C476 C457 1.368 . S
C476 C470 1.368 . S
C476 C475 1.523 . S
C477 C461 1.429 . S
C477 C473 1.429 . S
C477 C478 1.523 . S
C478 C462 1.368 . S
C478 C474 1.368 . S
C478 C477 1.523 . S
H479 C454 0.950 . S
H480 C456 0.950 . S
H481 C457 0.949 . S
H482 C459 0.950 . S
H483 C461 0.950 . S
C484 C485 1.349 . S
C484 C486 1.327 . S
C484 H509 0.950 . S
C485 C484 1.349 . S
C485 C501 1.349 . S
C486 C484 1.327 . S
C486 C505 1.429 . S
C486 H510 0.950 . S
C487 C504 1.574 . S
C487 C506 1.368 . S
C487 H511 0.949 . S
H488 C492 0.949 . S
C489 C490 1.349 . S
C489 C491 1.327 . S
C489 H512 0.950 . S
C490 C489 1.349 . S
C490 C502 1.349 . S
C491 C489 1.327 . S
C491 C507 1.429 . S
C491 H513 0.950 . S
C492 H488 0.949 . S
C492 C500 1.574 . S
C492 C508 1.368 . S
H493 C501 0.950 . S
H494 C499 0.950 . S
H495 C500 0.949 . S
H496 C502 0.950 . S
H497 C503 0.950 . S
H498 C504 0.949 . S
C499 H494 0.950 . S
C499 C501 1.327 . S
C499 C505 1.429 . S
C500 C492 1.574 . S
C500 H495 0.949 . S
C500 C506 1.368 . S
C501 C485 1.349 . S
C501 H493 0.950 . S
C501 C499 1.327 . S
C502 C490 1.349 . S
C502 H496 0.950 . S
C502 C503 1.327 . S
C503 H497 0.950 . S
C503 C502 1.327 . S
C503 C507 1.429 . S
C504 C487 1.574 . S
C504 H498 0.949 . S
C504 C508 1.368 . S
C505 C486 1.429 . S
C505 C499 1.429 . S
C505 C506 1.523 . S
C506 C487 1.368 . S
C506 C500 1.368 . S
C506 C505 1.523 . S
C507 C491 1.429 . S
C507 C503 1.429 . S
C507 C508 1.523 . S
C508 C492 1.368 . S
C508 C504 1.368 . S
C508 C507 1.523 . S
H509 C484 0.950 . S
H510 C486 0.950 . S
H511 C487 0.949 . S
H512 C489 0.950 . S
H513 C491 0.950 . S
C514 C515 1.349 . S
C514 C516 1.327 . S
C514 H539 0.950 . S
C515 C514 1.349 . S
C515 C531 1.349 . S
C516 C514 1.327 . S
C516 C535 1.429 . S
C516 H540 0.950 . S
C517 C534 1.574 . S
C517 C536 1.368 . S
C517 H541 0.949 . S
H518 C522 0.949 . S
C519 C520 1.349 . S
C519 C521 1.327 . S
C519 H542 0.950 . S
C520 C519 1.349 . S
C520 C532 1.349 . S
C521 C519 1.327 . S
C521 C537 1.429 . S
C521 H543 0.950 . S
C522 H518 0.949 . S
C522 C530 1.574 . S
C522 C538 1.368 . S
H523 C531 0.950 . S
H524 C529 0.950 . S
H525 C530 0.949 . S
H526 C532 0.950 . S
H527 C533 0.950 . S
H528 C534 0.949 . S
C529 H524 0.950 . S
C529 C531 1.327 . S
C529 C535 1.429 . S
C530 C522 1.574 . S
C530 H525 0.949 . S
C530 C536 1.368 . S
C531 C515 1.349 . S
C531 H523 0.950 . S
C531 C529 1.327 . S
C532 C520 1.349 . S
C532 H526 0.950 . S
C532 C533 1.327 . S
C533 H527 0.950 . S
C533 C532 1.327 . S
C533 C537 1.429 . S
C534 C517 1.574 . S
C534 H528 0.949 . S
C534 C538 1.368 . S
C535 C516 1.429 . S
C535 C529 1.429 . S
C535 C536 1.523 . S
C536 C517 1.368 . S
C536 C530 1.368 . S
C536 C535 1.523 . S
C537 C521 1.429 . S
C537 C533 1.429 . S
C537 C538 1.523 . S
C538 C522 1.368 . S
C538 C534 1.368 . S
C538 C537 1.523 . S
H539 C514 0.950 . S
H540 C516 0.950 . S
H541 C517 0.949 . S
H542 C519 0.950 . S
H543 C521 0.950 . S
C544 C545 1.349 . S
C544 C546 1.327 . S
C544 H569 0.950 . S
C545 C544 1.349 . S
C545 C561 1.349 . S
C546 C544 1.327 . S
C546 C565 1.429 . S
C546 H570 0.950 . S
C547 C564 1.574 . S
C547 C566 1.368 . S
C547 H571 0.949 . S
H548 C552 0.949 . S
C549 C550 1.349 . S
C549 C551 1.327 . S
C549 H572 0.950 . S
C550 C549 1.349 . S
C550 C562 1.349 . S
C551 C549 1.327 . S
C551 C567 1.429 . S
C551 H573 0.950 . S
C552 H548 0.949 . S
C552 C560 1.574 . S
C552 C568 1.368 . S
H553 C561 0.950 . S
H554 C559 0.950 . S
H555 C560 0.949 . S
H556 C562 0.950 . S
H557 C563 0.950 . S
H558 C564 0.949 . S
C559 H554 0.950 . S
C559 C561 1.327 . S
C559 C565 1.429 . S
C560 C552 1.574 . S
C560 H555 0.949 . S
C560 C566 1.368 . S
C561 C545 1.349 . S
C561 H553 0.950 . S
C561 C559 1.327 . S
C562 C550 1.349 . S
C562 H556 0.950 . S
C562 C563 1.327 . S
C563 H557 0.950 . S
C563 C562 1.327 . S
C563 C567 1.429 . S
C564 C547 1.574 . S
C564 H558 0.949 . S
C564 C568 1.368 . S
C565 C546 1.429 . S
C565 C559 1.429 . S
C565 C566 1.523 . S
C566 C547 1.368 . S
C566 C560 1.368 . S
C566 C565 1.523 . S
C567 C551 1.429 . S
C567 C563 1.429 . S
C567 C568 1.523 . S
C568 C552 1.368 . S
C568 C564 1.368 . S
C568 C567 1.523 . S
H569 C544 0.950 . S
H570 C546 0.950 . S
H571 C547 0.949 . S
H572 C549 0.950 . S
H573 C551 0.950 . S
C574 C575 1.349 . S
C574 C576 1.327 . S
C574 H599 0.950 . S
C575 C574 1.349 . S
C575 C591 1.349 . S
C576 C574 1.327 . S
C576 C595 1.429 . S
C576 H600 0.950 . S
C577 C594 1.574 . S
C577 C596 1.368 . S
C577 H601 0.949 . S
H578 C582 0.949 . S
C579 C580 1.349 . S
C579 C581 1.327 . S
C579 H602 0.950 . S
C580 C579 1.349 . S
C580 C592 1.349 . S
C581 C579 1.327 . S
C581 C597 1.429 . S
C581 H603 0.950 . S
C582 H578 0.949 . S
C582 C590 1.574 . S
C582 C598 1.368 . S
H583 C591 0.950 . S
H584 C589 0.950 . S
H585 C590 0.949 . S
H586 C592 0.950 . S
H587 C593 0.950 . S
H588 C594 0.949 . S
C589 H584 0.950 . S
C589 C591 1.327 . S
C589 C595 1.429 . S
C590 C582 1.574 . S
C590 H585 0.949 . S
C590 C596 1.368 . S
C591 C575 1.349 . S
C591 H583 0.950 . S
C591 C589 1.327 . S
C592 C580 1.349 . S
C592 H586 0.950 . S
C592 C593 1.327 . S
C593 H587 0.950 . S
C593 C592 1.327 . S
C593 C597 1.429 . S
C594 C577 1.574 . S
C594 H588 0.949 . S
C594 C598 1.368 . S
C595 C576 1.429 . S
C595 C589 1.429 . S
C595 C596 1.523 . S
C596 C577 1.368 . S
C596 C590 1.368 . S
C596 C595 1.523 . S
C597 C581 1.429 . S
C597 C593 1.429 . S
C597 C598 1.523 . S
C598 C582 1.368 . S
C598 C594 1.368 . S
C598 C597 1.523 . S
H599 C574 0.950 . S
H600 C576 0.950 . S
H601 C577 0.949 . S
H602 C579 0.950 . S
H603 C581 0.950 . S
C604 C605 1.349 . S
C604 C606 1.327 . S
C604 H629 0.950 1_565 S
C605 C604 1.349 . S
C605 C621 1.349 . S
C606 C604 1.327 . S
C606 C625 1.429 . S
C606 H630 0.950 . S
C607 C624 1.574 . S
C607 C626 1.368 . S
C607 H631 0.949 . S
H608 C612 0.949 . S
C609 C610 1.349 . S
C609 C611 1.327 . S
C609 H632 0.950 . S
C610 C609 1.349 . S
C610 C622 1.349 . S
C611 C609 1.327 . S
C611 C627 1.429 . S
C611 H633 0.950 . S
C612 H608 0.949 . S
C612 C620 1.574 . S
C612 C628 1.368 . S
H613 C621 0.950 . S
H614 C619 0.950 . S
H615 C620 0.949 . S
H616 C622 0.950 . S
H617 C623 0.950 . S
H618 C624 0.949 . S
C619 H614 0.950 . S
C619 C621 1.327 . S
C619 C625 1.429 . S
C620 C612 1.574 . S
C620 H615 0.949 . S
C620 C626 1.368 . S
C621 C605 1.349 . S
C621 H613 0.950 . S
C621 C619 1.327 . S
C622 C610 1.349 . S
C622 H616 0.950 . S
C622 C623 1.327 . S
C623 H617 0.950 . S
C623 C622 1.327 . S
C623 C627 1.429 . S
C624 C607 1.574 . S
C624 H618 0.949 . S
C624 C628 1.368 . S
C625 C606 1.429 . S
C625 C619 1.429 . S
C625 C626 1.523 . S
C626 C607 1.368 . S
C626 C620 1.368 . S
C626 C625 1.523 . S
C627 C611 1.429 . S
C627 C623 1.429 . S
C627 C628 1.523 . S
C628 C612 1.368 . S
C628 C624 1.368 . S
C628 C627 1.523 . S
H629 C604 0.950 1_545 S
H630 C606 0.950 . S
H631 C607 0.949 . S
H632 C609 0.950 . S
H633 C611 0.950 . S
C634 C635 1.349 . S
C634 C636 1.327 . S
C634 H659 0.950 . S
C635 C634 1.349 . S
C635 C651 1.349 . S
C636 C634 1.327 . S
C636 C655 1.429 . S
C636 H660 0.950 . S
C637 C654 1.574 . S
C637 C656 1.368 . S
C637 H661 0.949 . S
H638 C642 0.949 . S
C639 C640 1.349 . S
C639 C641 1.327 . S
C639 H662 0.950 . S
C640 C639 1.349 . S
C640 C652 1.349 . S
C641 C639 1.327 . S
C641 C657 1.429 . S
C641 H663 0.950 . S
C642 H638 0.949 . S
C642 C650 1.574 . S
C642 C658 1.368 . S
H643 C651 0.950 . S
H644 C649 0.950 . S
H645 C650 0.949 . S
H646 C652 0.950 . S
H647 C653 0.950 . S
H648 C654 0.949 . S
C649 H644 0.950 . S
C649 C651 1.327 . S
C649 C655 1.429 . S
C650 C642 1.574 . S
C650 H645 0.949 . S
C650 C656 1.368 . S
C651 C635 1.349 . S
C651 H643 0.950 . S
C651 C649 1.327 . S
C652 C640 1.349 . S
C652 H646 0.950 . S
C652 C653 1.327 . S
C653 H647 0.950 . S
C653 C652 1.327 . S
C653 C657 1.429 . S
C654 C637 1.574 . S
C654 H648 0.949 . S
C654 C658 1.368 . S
C655 C636 1.429 . S
C655 C649 1.429 . S
C655 C656 1.523 . S
C656 C637 1.368 . S
C656 C650 1.368 . S
C656 C655 1.523 . S
C657 C641 1.429 . S
C657 C653 1.429 . S
C657 C658 1.523 . S
C658 C642 1.368 . S
C658 C654 1.368 . S
C658 C657 1.523 . S
H659 C634 0.950 . S
H660 C636 0.950 . S
H661 C637 0.949 . S
H662 C639 0.950 . S
H663 C641 0.950 . S
C664 C665 1.349 . S
C664 C666 1.327 . S
C664 H689 0.950 . S
C665 C664 1.349 . S
C665 C681 1.349 1_554 S
C666 C664 1.327 . S
C666 C685 1.455 . S
C666 H690 0.950 . S
C667 C684 1.574 . S
C667 C686 1.368 . S
C667 H691 0.949 . S
H668 C672 0.949 1_554 S
C669 C670 1.349 . S
C669 C671 1.327 . S
C669 H692 0.950 . S
C670 C669 1.349 . S
C670 C682 1.349 . S
C671 C669 1.327 . S
C671 C687 1.429 . S
C671 H693 0.950 . S
C672 H668 0.949 1_556 S
C672 C680 1.574 1_556 S
C672 C688 1.368 . S
H673 C681 0.950 . S
H674 C679 0.950 . S
H675 C680 0.949 . S
H676 C682 0.950 . S
H677 C683 0.950 . S
H678 C684 0.949 . S
C679 H674 0.950 . S
C679 C681 1.327 . S
C679 C685 1.414 1_556 S
C680 C672 1.574 1_554 S
C680 H675 0.949 . S
C680 C686 1.368 1_554 S
C681 C665 1.349 1_556 S
C681 H673 0.950 . S
C681 C679 1.327 . S
C682 C670 1.349 . S
C682 H676 0.950 . S
C682 C683 1.327 . S
C683 H677 0.950 . S
C683 C682 1.327 . S
C683 C687 1.429 . S
C684 C667 1.574 . S
C684 H678 0.949 . S
C684 C688 1.368 . S
C685 C666 1.455 . S
C685 C679 1.414 1_554 S
C685 C686 1.513 1_554 S
C686 C667 1.368 . S
C686 C680 1.368 1_556 S
C686 C685 1.513 1_556 S
C687 C671 1.429 . S
C687 C683 1.429 . S
C687 C688 1.523 . S
C688 C672 1.368 . S
C688 C684 1.368 . S
C688 C687 1.523 . S
H689 C664 0.950 . S
H690 C666 0.950 . S
H691 C667 0.949 . S
H692 C669 0.950 . S
H693 C671 0.950 . S
C694 C695 1.349 . S
C694 C696 1.327 . S
C694 H719 0.950 . S
C695 C694 1.349 . S
C695 C711 1.349 . S
C696 C694 1.327 . S
C696 C715 1.429 . S
C696 H720 0.950 . S
C697 C714 1.574 . S
C697 C716 1.368 . S
C697 H721 0.949 . S
H698 C702 0.949 . S
C699 C700 1.349 . S
C699 C701 1.327 . S
C699 H722 0.950 . S
C700 C699 1.349 . S
C700 C712 1.349 1_556 S
C701 C699 1.327 . S
C701 C717 1.429 1_556 S
C701 H723 0.950 . S
C702 H698 0.949 . S
C702 C710 1.574 . S
C702 C718 1.368 . S
H703 C711 0.950 . S
H704 C709 0.950 . S
H705 C710 0.949 . S
H706 C712 0.950 . S
H707 C713 0.950 . S
H708 C714 0.949 . S
C709 H704 0.950 . S
C709 C711 1.327 . S
C709 C715 1.429 . S
C710 C702 1.574 . S
C710 H705 0.949 . S
C710 C716 1.368 . S
C711 C695 1.349 . S
C711 H703 0.950 . S
C711 C709 1.327 . S
C712 C700 1.349 1_554 S
C712 H706 0.950 . S
C712 C713 1.327 . S
C713 H707 0.950 . S
C713 C712 1.327 . S
C713 C717 1.429 . S
C714 C697 1.574 . S
C714 H708 0.949 . S
C714 C718 1.368 . S
C715 C696 1.429 . S
C715 C709 1.429 . S
C715 C716 1.523 . S
C716 C697 1.368 . S
C716 C710 1.368 . S
C716 C715 1.523 . S
C717 C701 1.429 1_554 S
C717 C713 1.429 . S
C717 C718 1.523 . S
C718 C702 1.368 . S
C718 C714 1.368 . S
C718 C717 1.523 . S
H719 C694 0.950 . S
H720 C696 0.950 . S
H721 C697 0.949 . S
H722 C699 0.950 . S
H723 C701 0.950 . S
C724 C725 1.349 1_556 S
C724 C726 1.327 . S
C724 H749 0.950 . S
C725 C724 1.349 1_554 S
C725 C741 1.349 . S
C726 C724 1.327 . S
C726 C745 1.415 1_556 S
C726 H750 0.950 . S
C727 C744 1.574 1_554 S
C727 C746 1.368 1_554 S
C727 H751 0.949 . S
H728 C732 0.949 . S
C729 C730 1.349 . S
C729 C731 1.327 . S
C729 H752 0.950 . S
C730 C729 1.349 . S
C730 C742 1.349 . S
C731 C729 1.327 . S
C731 C747 1.429 . S
C731 H753 0.950 . S
C732 H728 0.949 . S
C732 C740 1.574 . S
C732 C748 1.368 . S
H733 C741 0.950 . S
H734 C739 0.950 . S
H735 C740 0.949 . S
H736 C742 0.950 . S
H737 C743 0.950 . S
H738 C744 0.949 1_554 S
C739 H734 0.950 . S
C739 C741 1.327 . S
C739 C745 1.454 . S
C740 C732 1.574 . S
C740 H735 0.949 . S
C740 C746 1.368 . S
C741 C725 1.349 . S
C741 H733 0.950 . S
C741 C739 1.327 . S
C742 C730 1.349 . S
C742 H736 0.950 . S
C742 C743 1.327 . S
C743 H737 0.950 . S
C743 C742 1.327 . S
C743 C747 1.429 . S
C744 C727 1.574 1_556 S
C744 H738 0.949 1_556 S
C744 C748 1.368 . S
C745 C726 1.415 1_554 S
C745 C739 1.454 . S
C745 C746 1.513 1_554 S
C746 C727 1.368 1_556 S
C746 C740 1.368 . S
C746 C745 1.513 1_556 S
C747 C731 1.429 . S
C747 C743 1.429 . S
C747 C748 1.523 . S
C748 C732 1.368 . S
C748 C744 1.368 . S
C748 C747 1.523 . S
H749 C724 0.950 . S
H750 C726 0.950 . S
H751 C727 0.949 . S
H752 C729 0.950 . S
H753 C731 0.950 . S
C754 C755 1.349 . S
C754 C756 1.327 . S
C754 H779 0.950 . S
C755 C754 1.349 . S
C755 C771 1.349 1_556 S
C756 C754 1.327 . S
C756 C775 1.429 1_556 S
C756 H780 0.950 . S
C757 C774 1.574 . S
C757 C776 1.368 . S
C757 H781 0.949 . S
H758 C762 0.949 . S
C759 C760 1.349 . S
C759 C761 1.327 . S
C759 H782 0.950 . S
C760 C759 1.349 . S
C760 C772 1.349 . S
C761 C759 1.327 . S
C761 C777 1.429 . S
C761 H783 0.950 . S
C762 H758 0.949 . S
C762 C770 1.574 . S
C762 C778 1.368 . S
H763 C771 0.950 . S
H764 C769 0.950 . S
H765 C770 0.949 1_556 S
H766 C772 0.950 . S
H767 C773 0.950 . S
H768 C774 0.949 . S
C769 H764 0.950 . S
C769 C771 1.327 . S
C769 C775 1.429 . S
C770 C762 1.574 . S
C770 H765 0.949 1_554 S
C770 C776 1.368 . S
C771 C755 1.349 1_554 S
C771 H763 0.950 . S
C771 C769 1.327 . S
C772 C760 1.349 . S
C772 H766 0.950 . S
C772 C773 1.327 . S
C773 H767 0.950 . S
C773 C772 1.327 . S
C773 C777 1.429 . S
C774 C757 1.574 . S
C774 H768 0.949 . S
C774 C778 1.368 . S
C775 C756 1.429 1_554 S
C775 C769 1.429 . S
C775 C776 1.523 . S
C776 C757 1.368 . S
C776 C770 1.368 . S
C776 C775 1.523 . S
C777 C761 1.429 . S
C777 C773 1.429 . S
C777 C778 1.523 . S
C778 C762 1.368 . S
C778 C774 1.368 . S
C778 C777 1.523 . S
H779 C754 0.950 . S
H780 C756 0.950 . S
H781 C757 0.949 . S
H782 C759 0.950 . S
H783 C761 0.950 . S
C784 C785 1.349 1_655 S
C784 C786 1.327 . S
C784 H809 0.950 . S
C785 C784 1.349 1_455 S
C785 C801 1.349 . S
C786 C784 1.327 . S
C786 C805 1.429 1_655 S
C786 H810 0.950 . S
C787 C804 1.574 . S
C787 C806 1.368 . S
C787 H811 0.949 . S
H788 C792 0.949 . S
C789 C790 1.349 1_455 S
C789 C791 1.327 . S
C789 H812 0.950 . S
C790 C789 1.349 1_655 S
C790 C802 1.349 . S
C791 C789 1.327 . S
C791 C807 1.429 1_455 S
C791 H813 0.950 . S
C792 H788 0.949 . S
C792 C800 1.574 . S
C792 C808 1.368 . S
H793 C801 0.950 . S
H794 C799 0.950 . S
H795 C800 0.949 . S
H796 C802 0.950 . S
H797 C803 0.950 . S
H798 C804 0.949 . S
C799 H794 0.950 . S
C799 C801 1.327 . S
C799 C805 1.429 . S
C800 C792 1.574 . S
C800 H795 0.949 . S
C800 C806 1.368 1_655 S
C801 C785 1.349 . S
C801 H793 0.950 . S
C801 C799 1.327 . S
C802 C790 1.349 . S
C802 H796 0.950 . S
C802 C803 1.327 . S
C803 H797 0.950 . S
C803 C802 1.327 . S
C803 C807 1.429 . S
C804 C787 1.574 . S
C804 H798 0.949 . S
C804 C808 1.368 1_455 S
C805 C786 1.429 1_455 S
C805 C799 1.429 . S
C805 C806 1.523 . S
C806 C787 1.368 . S
C806 C800 1.368 1_455 S
C806 C805 1.523 . S
C807 C791 1.429 1_655 S
C807 C803 1.429 . S
C807 C808 1.523 . S
C808 C792 1.368 . S
C808 C804 1.368 1_655 S
C808 C807 1.523 . S
H809 C784 0.950 . S
H810 C786 0.950 . S
H811 C787 0.949 . S
H812 C789 0.950 . S
H813 C791 0.950 . S
C814 C815 1.349 . S
C814 C816 1.328 . S
C814 H839 0.950 1_545 S
C815 C814 1.349 . S
C815 C831 1.349 . S
C816 C814 1.328 . S
C816 C835 1.432 . S
C816 H840 0.945 1_545 S
C817 C834 1.574 . S
C817 C836 1.368 . S
C817 H841 0.949 . S
H818 C822 0.949 . S
C819 C820 1.349 . S
C819 C821 1.328 . S
C819 H842 0.950 1_565 S
C820 C819 1.349 . S
C820 C832 1.349 . S
C821 C819 1.328 . S
C821 C837 1.432 . S
C821 H843 0.945 1_565 S
C822 H818 0.949 . S
C822 C830 1.574 . S
C822 C838 1.368 . S
H823 C831 0.950 . S
H824 C829 0.950 . S
H825 C830 0.949 . S
H826 C832 0.950 . S
H827 C833 0.950 . S
H828 C834 0.949 . S
C829 H824 0.950 . S
C829 C831 1.327 . S
C829 C835 1.429 . S
C830 C822 1.574 . S
C830 H825 0.949 . S
C830 C836 1.368 1_565 S
C831 C815 1.349 . S
C831 H823 0.950 . S
C831 C829 1.327 . S
C832 C820 1.349 . S
C832 H826 0.950 . S
C832 C833 1.327 . S
C833 H827 0.950 . S
C833 C832 1.327 . S
C833 C837 1.429 . S
C834 C817 1.574 . S
C834 H828 0.949 . S
C834 C838 1.368 1_545 S
C835 C816 1.432 . S
C835 C829 1.429 . S
C835 C836 1.523 . S
C836 C817 1.368 . S
C836 C830 1.368 1_545 S
C836 C835 1.523 . S
C837 C821 1.432 . S
C837 C833 1.429 . S
C837 C838 1.523 . S
C838 C822 1.368 . S
C838 C834 1.368 1_565 S
C838 C837 1.523 . S
H839 C814 0.950 1_565 S
H840 C816 0.945 1_565 S
H841 C817 0.949 . S
H842 C819 0.950 1_545 S
H843 C821 0.945 1_545 S
C844 C845 1.349 . S
C844 C846 1.327 . S
C844 H869 0.950 . S
C845 C844 1.349 . S
C845 C861 1.349 . S
C846 C844 1.327 . S
C846 C865 1.429 . S
C846 H870 0.950 . S
C847 C864 1.574 1_545 S
C847 C866 1.368 . S
C847 H871 0.949 . S
H848 C852 0.949 . S
C849 C850 1.349 . S
C849 C851 1.327 . S
C849 H872 0.950 . S
C850 C849 1.349 . S
C850 C862 1.349 . S
C851 C849 1.327 . S
C851 C867 1.429 . S
C851 H873 0.950 . S
C852 H848 0.949 . S
C852 C860 1.574 1_565 S
C852 C868 1.368 . S
H853 C861 0.950 . S
H854 C859 0.950 . S
H855 C860 0.949 . S
H856 C862 0.950 . S
H857 C863 0.950 . S
H858 C864 0.949 . S
C859 H854 0.950 . S
C859 C861 1.327 . S
C859 C865 1.429 . S
C860 C852 1.574 1_545 S
C860 H855 0.949 . S
C860 C866 1.368 . S
C861 C845 1.349 . S
C861 H853 0.950 . S
C861 C859 1.327 . S
C862 C850 1.349 . S
C862 H856 0.950 . S
C862 C863 1.327 . S
C863 H857 0.950 . S
C863 C862 1.327 . S
C863 C867 1.429 . S
C864 C847 1.574 1_565 S
C864 H858 0.949 . S
C864 C868 1.368 . S
C865 C846 1.429 . S
C865 C859 1.429 . S
C865 C866 1.523 . S
C866 C847 1.368 . S
C866 C860 1.368 . S
C866 C865 1.523 . S
C867 C851 1.429 . S
C867 C863 1.429 . S
C867 C868 1.523 . S
C868 C852 1.368 . S
C868 C864 1.368 . S
C868 C867 1.523 . S
H869 C844 0.950 . S
H870 C846 0.950 . S
H871 C847 0.949 . S
H872 C849 0.950 . S
H873 C851 0.950 . S
C874 C875 1.349 . S
C874 C876 1.327 . S
C874 H899 0.950 . S
C875 C874 1.349 . S
C875 C891 1.349 . S
C876 C874 1.327 . S
C876 C895 1.429 . S
C876 H900 0.950 . S
C877 C894 1.574 1_455 S
C877 C896 1.368 . S
C877 H901 0.949 . S
H878 C882 0.949 . S
C879 C880 1.349 . S
C879 C881 1.327 . S
C879 H902 0.950 . S
C880 C879 1.349 . S
C880 C892 1.349 . S
C881 C879 1.327 . S
C881 C897 1.429 . S
C881 H903 0.950 . S
C882 H878 0.949 . S
C882 C890 1.574 1_655 S
C882 C898 1.368 . S
H883 C891 0.950 . S
H884 C889 0.950 . S
H885 C890 0.949 . S
H886 C892 0.950 . S
H887 C893 0.950 . S
H888 C894 0.949 . S
C889 H884 0.950 . S
C889 C891 1.327 . S
C889 C895 1.429 . S
C890 C882 1.574 1_455 S
C890 H885 0.949 . S
C890 C896 1.368 . S
C891 C875 1.349 . S
C891 H883 0.950 . S
C891 C889 1.327 . S
C892 C880 1.349 . S
C892 H886 0.950 . S
C892 C893 1.327 . S
C893 H887 0.950 . S
C893 C892 1.327 . S
C893 C897 1.429 . S
C894 C877 1.574 1_655 S
C894 H888 0.949 . S
C894 C898 1.368 . S
C895 C876 1.429 . S
C895 C889 1.429 . S
C895 C896 1.523 . S
C896 C877 1.368 . S
C896 C890 1.368 . S
C896 C895 1.523 . S
C897 C881 1.429 . S
C897 C893 1.429 . S
C897 C898 1.523 . S
C898 C882 1.368 . S
C898 C894 1.368 . S
C898 C897 1.523 . S
H899 C874 0.950 . S
H900 C876 0.950 . S
H901 C877 0.949 . S
H902 C879 0.950 . S
H903 C881 0.950 . S
C425 C393 1.741 . S
C430 C38 1.756 . S
C455 C82 1.901 . S
C460 C234 1.914 . S
C485 C144 1.756 . S
C490 C287 1.741 . S
C515 C340 1.914 . S
C520 C188 1.901 . S
C545 C75 1.858 1_545 S
C550 C22 1.845 . S
C575 C92 1.858 . S
C580 C145 1.863 . S
C605 C181 1.858 1_565 S
C610 C128 1.845 . S
C635 C198 1.858 . S
C640 C39 1.863 . S
C665 C400 1.988 . S
C670 C250 1.982 . S
C695 C303 2.080 . S
C700 C241 2.063 . S
C725 C294 1.988 . S
C730 C356 1.982 . S
C755 C347 2.063 . S
C760 C409 2.080 . S
C785 C135 1.871 . S
C790 C29 1.871 . S
C815 C197 2.145 . S
C820 C91 2.145 . S
C845 C357 2.496 . S
C850 C251 2.496 . S
C875 C410 2.154 . S
C880 C304 2.154 . S
