# Generated by pormake.
# Topology bcg, (8)-cn, num edge types: 1
# Building blocks:
#     Node 0, Type 0, BuildingBlock: EYACOX_clean_sbu_0, # of connection points: 8
#     Node 1, Type 0, BuildingBlock: EYACOX_clean_sbu_0, # of connection points: 8
#     Node 2, Type 0, BuildingBlock: EYACOX_clean_sbu_0, # of connection points: 8
#     Node 3, Type 0, BuildingBlock: EYACOX_clean_sbu_0, # of connection points: 8
#     Edge 4, Type (0, 0), BuildingBlock: UVAHIK_clean_linker_0, # of connection points: 2
#     Edge 5, Type (0, 0), BuildingBlock: UVAHIK_clean_linker_0, # of connection points: 2
#     Edge 6, Type (0, 0), BuildingBlock: UVAHIK_clean_linker_0, # of connection points: 2
#     Edge 7, Type (0, 0), BuildingBlock: UVAHIK_clean_linker_0, # of connection points: 2
#     Edge 8, Type (0, 0), BuildingBlock: UVAHIK_clean_linker_0, # of connection points: 2
#     Edge 9, Type (0, 0), BuildingBlock: UVAHIK_clean_linker_0, # of connection points: 2
#     Edge 10, Type (0, 0), BuildingBlock: UVAHIK_clean_linker_0, # of connection points: 2
#     Edge 11, Type (0, 0), BuildingBlock: UVAHIK_clean_linker_0, # of connection points: 2
#     Edge 12, Type (0, 0), BuildingBlock: UVAHIK_clean_linker_0, # of connection points: 2
#     Edge 13, Type (0, 0), BuildingBlock: UVAHIK_clean_linker_0, # of connection points: 2
#     Edge 14, Type (0, 0), BuildingBlock: UVAHIK_clean_linker_0, # of connection points: 2
#     Edge 15, Type (0, 0), BuildingBlock: UVAHIK_clean_linker_0, # of connection points: 2
#     Edge 16, Type (0, 0), BuildingBlock: UVAHIK_clean_linker_0, # of connection points: 2
#     Edge 17, Type (0, 0), BuildingBlock: UVAHIK_clean_linker_0, # of connection points: 2
#     Edge 18, Type (0, 0), BuildingBlock: UVAHIK_clean_linker_0, # of connection points: 2
#     Edge 19, Type (0, 0), BuildingBlock: UVAHIK_clean_linker_0, # of connection points: 2
# Relax obj value: 0.090
# Max RMSD: 0.166
# Mean RMSD: 0.166
data_MOF--net-bcg--node1-EYACOX_clean_sbu_0--edge1-UVAHIK_clean_linker_0
_symmetry_space_group_name_H-M    P1
_symmetry_Int_Tables_number       1
_symmetry_cell_setting            triclinic
loop_
_symmetry_equiv_pos_as_xyz
'x, y, z'
_cell_length_a     26.972387
_cell_length_b     27.211483
_cell_length_c     40.38436
_cell_angle_alpha  90.098607
_cell_angle_beta   119.62242
_cell_angle_gamma 90.019845
loop_
_atom_site_label
_atom_site_type_symbol
_atom_site_fract_x
_atom_site_fract_y
_atom_site_fract_z
_atom_type_partial_charge
Eu0 Eu 0.29359 0.20263 0.97285 0.0
Eu1 Eu 0.237 0.26248 0.02097 0.0
O2 O 0.29365 0.18886 0.91925 0.0
O3 O 0.36204 0.16064 0.97225 0.0
O4 O 0.18018 0.1977 -0.00637 0.0
O5 O 0.20841 0.16584 0.95192 0.0
O6 O 0.30362 0.1509 0.01895 0.0
O7 O 0.30673 0.21089 0.06021 0.0
C8 C 0.38607 0.18479 0.92511 0.0
C9 C 0.46542 0.21608 0.90383 0.0
C10 C 0.47907 0.21973 0.94184 0.0
C11 C 0.43949 0.20423 0.95266 0.0
C12 C 0.41405 0.19544 0.87633 0.0
C13 C 0.37415 0.17954 0.88693 0.0
C14 C 0.34368 0.16786 0.93607 0.0
C15 C 0.17351 0.16798 0.96595 0.0
O16 O 0.22808 0.26484 0.07193 0.0
O17 O 0.19012 0.32221 0.0298 0.0
C18 C 0.3155 0.16556 0.05305 0.0
O19 O 0.30555 0.31094 0.02173 0.0
O20 O 0.3605 0.24836 0.01978 0.0
O21 O 0.18247 0.27927 0.95854 0.0
O22 O 0.2556 0.2753 0.94544 0.0
C23 C 0.14465 0.30182 0.06617 0.0
C24 C 0.10357 0.30721 0.1083 0.0
C25 C 0.15119 0.30967 0.10284 0.0
C26 C 0.0501 0.29719 0.07729 0.0
C27 C 0.0427 0.28896 0.04101 0.0
C28 C 0.08993 0.29109 0.0352 0.0
C29 C 0.19571 0.3037 0.0613 0.0
C30 C 0.35381 0.29477 0.02513 0.0
C31 C 0.20376 0.28912 0.93624 0.0
H32 H 0.49702 0.22675 0.89594 0.0
H33 H 0.4507 0.20665 0.98234 0.0
H34 H 0.33441 0.16301 0.86577 0.0
H35 H 0.19299 0.31722 0.12694 0.0
H36 H 1.0134 0.29517 0.08157 0.0
H37 H 0.08421 0.28427 0.00707 0.0
Eu38 Eu 0.82276 0.68867 0.98675 0.0
Eu39 Eu 0.76353 0.74928 0.03312 0.0
O40 O 0.82207 0.67008 0.93348 0.0
O41 O 0.8934 0.64858 0.98759 0.0
O42 O 0.71841 0.67698 0.01525 0.0
O43 O 0.74562 0.64286 0.97372 0.0
O44 O 0.84685 0.64735 0.04091 0.0
O45 O 0.84793 0.71576 0.07415 0.0
C46 C 0.91418 0.66995 0.93832 0.0
C47 C 0.99069 0.70246 0.91479 0.0
C48 C 1.00668 0.70437 0.95328 0.0
C49 C 0.96864 0.68824 0.96519 0.0
C50 C 0.93821 0.68315 0.88773 0.0
C51 C 0.89965 0.66662 0.89943 0.0
C52 C 0.87377 0.65235 0.95096 0.0
C53 C 0.71395 0.6437 0.99024 0.0
O54 O 0.75505 0.75164 0.08426 0.0
O55 O 0.71707 0.80908 0.04211 0.0
C56 C 0.86119 0.66956 0.07328 0.0
O57 O 0.8162 0.80417 0.02233 0.0
O58 O 0.88075 0.7502 0.0213 0.0
O59 O 0.70114 0.75542 0.97055 0.0
O60 O 0.76722 0.75076 0.95048 0.0
C61 C 0.67223 0.78944 0.0788 0.0
C62 C 0.63056 0.79812 0.1204 0.0
C63 C 0.67827 0.8001 0.115 0.0
C64 C 0.5775 0.78595 0.08974 0.0
C65 C 0.57074 0.77515 0.05394 0.0
C66 C 0.61803 0.77663 0.04826 0.0
C67 C 0.72308 0.79078 0.07379 0.0
C68 C 0.86413 0.79516 0.02242 0.0
C69 C 0.71631 0.76286 0.94464 0.0
H70 H 0.02109 0.71377 0.906 0.0
H71 H 0.9819 0.68945 -0.00474 0.0
H72 H 0.85897 0.65118 0.8786 0.0
H73 H 0.71975 0.80938 0.13878 0.0
H74 H 0.54068 0.78439 0.0939 0.0
H75 H 0.61274 0.76779 0.02052 0.0
Eu76 Eu 0.23723 0.73174 0.51725 0.0
Eu77 Eu 0.30006 0.7915 0.4729 0.0
O78 O 0.23604 0.71565 0.5702 0.0
O79 O 0.16419 0.69506 0.5159 0.0
O80 O 0.35172 0.72326 0.49718 0.0
O81 O 0.3192 0.69009 0.53622 0.0
O82 O 0.2268 0.68114 0.47019 0.0
O83 O 0.22945 0.74192 0.43147 0.0
C84 C 0.14386 0.71903 0.56494 0.0
C85 C 0.06924 0.75603 0.58862 0.0
C86 C 0.05889 0.76611 0.55189 0.0
C87 C 0.09619 0.74777 0.53996 0.0
C88 C 0.11437 0.72601 0.61341 0.0
C89 C 0.15189 0.7073 0.60151 0.0
C90 C 0.18367 0.69926 0.55251 0.0
C91 C 0.35471 0.69125 0.52257 0.0
O92 O 0.3104 0.79709 0.42252 0.0
O93 O 0.35153 0.85041 0.46788 0.0
C94 C 0.21832 0.69644 0.43692 0.0
O95 O 0.2329 0.84125 0.47288 0.0
O96 O 0.17417 0.77923 0.47011 0.0
O97 O 0.35427 0.80305 0.53607 0.0
O98 O 0.27903 0.80247 0.54698 0.0
C99 C 0.39537 0.83381 0.42954 0.0
C100 C 0.43316 0.83574 0.38537 0.0
C101 C 0.38643 0.83466 0.39182 0.0
C102 C 0.48821 0.83599 0.41637 0.0
C103 C 0.49822 0.83432 0.45369 0.0
C104 C 0.45192 0.83319 0.46057 0.0
C105 C 0.345 0.83453 0.43541 0.0
C106 C 0.18313 0.82586 0.46733 0.0
C107 C 0.33235 0.81324 0.55794 0.0
H108 H 0.03888 0.76881 0.59702 0.0
H109 H 0.08736 0.75504 0.5112 0.0
H110 H 0.18675 0.68363 0.6204 0.0
H111 H 0.34347 0.83459 0.36773 0.0
H112 H 0.52423 0.8364 0.41131 0.0
H113 H 0.45985 0.83175 0.4896 0.0
Eu114 Eu 0.70995 0.21079 0.50597 0.0
Eu115 Eu 0.76906 0.2703 0.45947 0.0
O116 O 0.71034 0.19266 0.5591 0.0
O117 O 0.63854 0.1717 0.50485 0.0
O118 O 0.81791 0.20006 0.48047 0.0
O119 O 0.78834 0.16608 0.52078 0.0
O120 O 0.69007 0.16526 0.45448 0.0
O121 O 0.68961 0.22971 0.41777 0.0
C122 C 0.61856 0.19305 0.55439 0.0
C123 C 0.54369 0.22605 0.57907 0.0
C124 C 0.529 0.2321 0.54103 0.0
C125 C 0.56635 0.21576 0.52855 0.0
C126 C 0.5937 0.202 0.60481 0.0
C127 C 0.63135 0.18527 0.59249 0.0
C128 C 0.65845 0.17522 0.54152 0.0
C129 C 0.82173 0.16724 0.50555 0.0
O130 O 0.77812 0.27289 0.40855 0.0
O131 O 0.81698 0.32968 0.45138 0.0
C132 C 0.67656 0.18417 0.42123 0.0
O133 O 0.71173 0.32418 0.46694 0.0
O134 O 0.64912 0.26745 0.46686 0.0
O135 O 0.82988 0.27837 0.52225 0.0
O136 O 0.76199 0.27558 0.54062 0.0
C137 C 0.86203 0.30958 0.41466 0.0
C138 C 0.90262 0.31249 0.37217 0.0
C139 C 0.85503 0.31484 0.37766 0.0
C140 C 0.95656 0.30537 0.40349 0.0
C141 C 0.9644 0.29981 0.44011 0.0
C142 C 0.91723 0.30174 0.44595 0.0
C143 C 0.81108 0.31148 0.41965 0.0
C144 C 0.66313 0.31312 0.46533 0.0
C145 C 0.81366 0.28674 0.54753 0.0
H146 H 0.51366 0.23732 0.58819 0.0
H147 H 0.5542 0.22 0.49882 0.0
H148 H 0.66999 0.16612 0.61227 0.0
H149 H 0.81289 0.32023 0.35334 0.0
H150 H 0.99327 0.3035 0.39922 0.0
H151 H 0.92338 0.29694 0.47438 0.0
C152 C 0.57855 0.19576 0.9858 0.0
C153 C 0.53841 0.2336 0.96922 0.0
C154 C 0.63542 0.20351 -0.00453 0.0
C155 C 0.71286 0.28122 0.96151 0.0
H156 H 0.84576 0.21286 0.03869 0.0
C157 C 0.94529 0.3168 -0.0039 0.0
C158 C 0.98406 0.27767 0.01095 0.0
C159 C 0.88787 0.30967 0.98529 0.0
C160 C 0.80878 0.23151 0.01652 0.0
H161 H 0.52694 0.3105 0.95385 0.0
H162 H 0.62685 0.325 0.97263 0.0
H163 H 0.75642 0.20882 0.0399 0.0
H164 H 0.99249 0.19955 0.02201 0.0
H165 H 0.89183 0.18653 0.00184 0.0
H166 H 0.76557 0.30428 0.93841 0.0
C167 C 0.61428 0.28882 0.97693 0.0
C168 C 0.75764 0.22952 0.01743 0.0
C169 C 0.55735 0.2809 0.967 0.0
C170 C 0.9632 0.23013 0.01005 0.0
C171 C 0.90584 0.22296 -0.00064 0.0
C172 C 0.76409 0.28338 0.96071 0.0
C173 C 0.65311 0.24941 0.98892 0.0
C174 C 0.70894 0.25433 0.98993 0.0
C175 C 0.86846 0.26324 0.98925 0.0
C176 C 0.81264 0.25841 0.98812 0.0
H177 H 0.56469 0.15875 0.987 0.0
H178 H 0.66397 0.17228 0.00465 0.0
H179 H 0.67593 0.2998 0.93926 0.0
H180 H 0.96065 0.35394 -0.00262 0.0
H181 H 0.86027 0.34148 0.97756 0.0
C182 C 0.0858 0.76454 0.97727 0.0
C183 C 0.06649 0.71758 0.97988 0.0
C184 C 0.14274 0.77183 0.98711 0.0
C185 C 0.28577 0.71272 0.02896 0.0
H186 H 0.29385 0.78364 0.94843 0.0
C187 C 0.49328 0.71428 0.02447 0.0
C188 C 0.51271 0.76199 0.02411 0.0
C189 C 0.4359 0.70606 0.01314 0.0
C190 C 0.29232 0.76381 0.97115 0.0
H191 H 0.09195 0.64274 -0.00177 0.0
H192 H 0.19151 0.65531 0.0159 0.0
H193 H 0.20378 0.77948 0.94872 0.0
H194 H 0.48716 0.83735 0.00783 0.0
H195 H 0.3868 0.82308 0.98708 0.0
H196 H 0.37434 0.69705 0.05135 0.0
C197 C 0.16313 0.68666 0.00639 0.0
C198 C 0.24086 0.76183 0.9716 0.0
C199 C 0.10618 0.67948 -0.00331 0.0
C200 C 0.47285 0.80006 0.00756 0.0
C201 C 0.41544 0.7919 -0.00385 0.0
C202 C 0.33719 0.71461 0.02846 0.0
C203 C 0.18116 0.73216 -0.0005 0.0
C204 C 0.23698 0.73643 0.00061 0.0
C205 C 0.39719 0.7455 0.00124 0.0
C206 C 0.34111 0.7402 -0.00045 0.0
H207 H 0.05567 0.79429 0.96394 0.0
H208 H 0.15566 0.80768 0.98248 0.0
H209 H 0.28441 0.69312 0.05182 0.0
H210 H 0.52349 0.68457 0.03774 0.0
H211 H 0.42279 0.66966 0.01653 0.0
C212 C 0.58629 0.7863 0.48875 0.0
C213 C 0.55864 0.83165 0.48362 0.0
C214 C 0.64368 0.78467 0.49837 0.0
C215 C 0.7783 0.85065 0.53198 0.0
H216 H 0.78379 0.78323 0.44911 0.0
C217 C 0.99081 0.83581 0.53327 0.0
C218 C 1.00307 0.78832 0.52566 0.0
C219 C 0.93467 0.84912 0.52243 0.0
C220 C 0.78345 0.80182 0.47271 0.0
H221 H 0.57056 0.91045 0.48872 0.0
H222 H 0.67193 0.90755 0.50762 0.0
H223 H 0.69475 0.78627 0.45064 0.0
H224 H 0.96633 0.71937 0.49771 0.0
H225 H 0.86912 0.74167 0.47928 0.0
H226 H 0.86742 0.86438 0.55518 0.0
C227 C 0.64901 0.87336 0.5036 0.0
C228 C 0.73231 0.80349 0.47357 0.0
C229 C 0.59126 0.87501 0.49341 0.0
C230 C 0.95781 0.75651 0.50326 0.0
C231 C 0.90188 0.76938 0.49299 0.0
C232 C 0.82991 0.84818 0.53158 0.0
C233 C 0.67454 0.82835 0.50367 0.0
C234 C 0.72941 0.82724 0.50348 0.0
C235 C 0.88996 0.81478 0.50446 0.0
C236 C 0.83347 0.8231 0.50217 0.0
H237 H 0.56182 0.75248 0.48056 0.0
H238 H 0.66266 0.74946 0.49871 0.0
H239 H 0.777 0.86954 0.55517 0.0
H240 H 0.02517 0.86087 0.55079 0.0
H241 H 0.92704 0.88507 0.53055 0.0
C242 C 0.06052 0.33145 0.48448 0.0
C243 C 0.0234 0.291 0.47053 0.0
C244 C 0.11833 0.32587 0.49585 0.0
C245 C 0.19937 0.25068 0.46541 0.0
H246 H 0.33262 0.31575 0.5455 0.0
C247 C 0.42838 0.21263 0.49591 0.0
C248 C 0.47028 0.24862 0.51493 0.0
C249 C 0.37178 0.22158 0.48628 0.0
C250 C 0.29561 0.29818 0.52242 0.0
H251 H 0.01818 0.2124 0.4615 0.0
H252 H 0.1194 0.20228 0.48224 0.0
H253 H 0.24211 0.32019 0.54528 0.0
H254 H 0.48546 0.32379 0.53502 0.0
H255 H 0.38601 0.34072 0.51612 0.0
H256 H 0.252 0.22949 0.44194 0.0
C257 C 0.10385 0.2384 0.48387 0.0
C258 C 0.24393 0.30026 0.52266 0.0
C259 C 0.04621 0.24397 0.47279 0.0
C260 C 0.45363 0.29567 0.51994 0.0
C261 C 0.39691 0.30487 0.50992 0.0
C262 C 0.25078 0.24904 0.46491 0.0
C263 C 0.13958 0.27976 0.49316 0.0
C264 C 0.19543 0.27608 0.49439 0.0
C265 C 0.35604 0.26695 0.49522 0.0
C266 C 0.29979 0.27245 0.49355 0.0
H267 H 0.04361 0.36819 0.48213 0.0
H268 H 0.14485 0.3584 0.50295 0.0
H269 H 0.16228 0.23277 0.44261 0.0
H270 H 0.44047 0.17577 0.49253 0.0
H271 H 0.34177 0.19138 0.47506 0.0
C272 C 0.68392 0.55563 0.97769 0.0
C273 C 0.67187 0.60465 0.98191 0.0
C274 C 0.64811 0.51798 0.97704 0.0
C275 C 0.50617 0.49294 0.9661 0.0
H276 H 0.58478 0.39478 0.04447 0.0
C277 C 0.38639 0.38027 0.02345 0.0
C278 C 0.39734 0.3296 0.02749 0.0
C279 C 0.42196 0.41185 0.01743 0.0
C280 C 0.56218 0.42153 0.02216 0.0
H281 H 0.61148 0.6535 0.98583 0.0
H282 H 0.54883 0.58823 0.98415 0.0
H283 H 0.63972 0.45107 0.02807 0.0
H284 H 0.45667 0.27278 0.03141 0.0
H285 H 0.51787 0.32765 0.02041 0.0
H286 H 0.42872 0.46404 0.96044 0.0
C287 C 0.58572 0.57853 0.98154 0.0
C288 C 0.59361 0.45351 0.01261 0.0
C289 C 0.62175 0.61586 0.98276 0.0
C290 C 0.44672 0.31164 0.0281 0.0
C291 C 0.48201 0.34311 0.02189 0.0
C292 C 0.47477 0.46092 0.97552 0.0
C293 C 0.59944 0.52919 0.97988 0.0
C294 C 0.56591 0.49021 0.98513 0.0
C295 C 0.46896 0.39328 0.01525 0.0
C296 C 0.50252 0.42568 0.00429 0.0
H297 H 0.72258 0.54624 0.9772 0.0
H298 H 0.65932 0.48014 0.97556 0.0
H299 H 0.48381 0.52062 0.94451 0.0
H300 H 0.34889 0.39527 0.02302 0.0
H301 H 0.41174 0.45064 0.01341 0.0
C302 C 0.57976 0.33952 0.47173 0.0
C303 C 0.62766 0.35221 0.46838 0.0
C304 C 0.5519 0.37483 0.48156 0.0
C305 C 0.57736 0.49546 0.52894 0.0
H306 H 0.41298 0.49588 0.48516 0.0
C307 C 0.44634 0.66033 0.53029 0.0
C308 C 0.39687 0.65173 0.53267 0.0
C309 C 0.47988 0.62119 0.53073 0.0
C310 C 0.45904 0.49557 0.49824 0.0
H311 H 0.6817 0.41255 0.47045 0.0
H312 H 0.63168 0.47472 0.48637 0.0
H313 H 0.45749 0.43427 0.46462 0.0
H314 H 0.34594 0.59614 0.54041 0.0
H315 H 0.40476 0.52728 0.54099 0.0
H316 H 0.57841 0.55796 0.5616 0.0
C317 C 0.61687 0.43704 0.48253 0.0
C318 C 0.48453 0.46045 0.48631 0.0
C319 C 0.64506 0.40156 0.47292 0.0
C320 C 0.38399 0.6037 0.53862 0.0
C321 C 0.41728 0.56436 0.53862 0.0
C322 C 0.55179 0.53078 0.5407 0.0
C323 C 0.57092 0.42377 0.48791 0.0
C324 C 0.5439 0.46043 0.50114 0.0
C325 C 0.46423 0.57272 0.53321 0.0
C326 C 0.49233 0.53153 0.52508 0.0
H327 H 0.56512 0.30183 0.46845 0.0
H328 H 0.51689 0.36328 0.48567 0.0
H329 H 0.62334 0.49568 0.54159 0.0
H330 H 0.45736 0.69713 0.52593 0.0
H331 H 0.51566 0.62873 0.52634 0.0
C332 C 0.07595 0.14671 0.95192 0.0
C333 C 0.12668 0.13255 0.95296 0.0
C334 C 0.03736 0.11132 0.94996 0.0
C335 C 1.0056 0.97743 0.94117 0.0
H336 H 0.96988 0.00562 0.02132 0.0
C337 C 0.94277 0.82642 0.01251 0.0
C338 C 0.89571 0.83612 0.01756 0.0
C339 C 0.96685 0.86378 0.0015 0.0
C340 C 0.9788 -0.00256 -0.00148 0.0
H341 H 0.17493 0.07132 0.94925 0.0
H342 H 0.10824 0.00897 0.94696 0.0
H343 H 1.0132 0.06883 0.00156 0.0
H344 H 0.83864 0.89303 0.01663 0.0
H345 H 0.8811 0.95834 -0.00235 0.0
H346 H 0.97255 0.90528 0.93918 0.0
C347 C 0.0976 0.04733 0.947 0.0
C348 C 1.0033 0.03373 0.98697 0.0
C349 C 0.13584 0.08294 0.94833 0.0
C350 C 0.87498 0.88439 0.01313 0.0
C351 C 0.89919 0.92179 0.00218 0.0
C352 C 0.98118 0.94098 0.95285 0.0
C353 C 0.04954 0.06117 0.94982 0.0
C354 C 0.01751 0.02401 0.95844 0.0
C355 C 0.94453 0.91156 -0.00452 0.0
C356 C 0.96824 0.95055 0.98197 0.0
H357 H 0.06781 0.18499 0.95498 0.0
H358 H 0.99985 0.12311 0.95108 0.0
H359 H 1.01571 0.96901 0.91895 0.0
H360 H 0.95988 0.78963 0.01572 0.0
H361 H 1.00256 0.85515 -0.00272 0.0
C362 C 0.85211 0.07954 0.51882 0.0
C363 C 0.86463 0.12866 0.51525 0.0
C364 C 0.88867 0.04209 0.52034 0.0
C365 C 0.03191 0.01648 0.53414 0.0
H366 H 0.95388 0.9251 0.45008 0.0
C367 C 0.1548 0.91062 0.47536 0.0
C368 C 0.14077 0.8609 0.46637 0.0
C369 C 0.11969 0.94102 0.48276 0.0
C370 C 0.97639 0.94977 0.47404 0.0
H371 H 0.92658 0.17792 0.51368 0.0
H372 H 0.99075 0.11287 0.51707 0.0
H373 H 0.89851 0.97901 0.46762 0.0
H374 H 0.07664 0.80504 0.45496 0.0
H375 H 1.01653 0.8575 0.46866 0.0
H376 H 0.10978 0.98766 0.54052 0.0
C377 C 0.95286 0.10302 0.51842 0.0
C378 C 0.94463 0.98043 0.4842 0.0
C379 C 0.91601 0.1402 0.51623 0.0
C380 C 0.08904 0.8431 0.46225 0.0
C381 C 0.05435 0.87327 0.47001 0.0
C382 C 0.06369 0.98551 0.52425 0.0
C383 C 0.93854 0.0536 0.51911 0.0
C384 C 0.97213 0.01495 0.51363 0.0
C385 C 0.07017 0.92215 0.48151 0.0
C386 C 0.03626 0.95281 0.49338 0.0
H387 H 0.81249 0.06991 0.51792 0.0
H388 H 0.87696 0.00415 0.52097 0.0
H389 H 0.054 0.04259 0.55716 0.0
H390 H 0.1942 0.92548 0.47856 0.0
H391 H 0.13213 0.97901 0.49042 0.0
C392 C 0.65023 0.16316 0.35464 0.0
C393 C 0.64332 0.15486 0.3864 0.0
C394 C 0.61572 0.13887 0.32037 0.0
C395 C 0.47241 0.10221 0.2646 0.0
H396 H 0.52214 0.05024 0.19637 0.0
C397 C 0.32178 0.11387 0.10544 0.0
C398 C 0.34769 0.13317 0.08562 0.0
C399 C 0.35505 0.09269 0.1413 0.0
C400 C 0.50738 0.06463 0.21498 0.0
H401 H 0.59663 0.11346 0.40794 0.0
H402 H 0.53398 0.07242 0.34697 0.0
H403 H 0.59036 0.0581 0.26431 0.0
H404 H 0.42726 0.14396 0.08595 0.0
H405 H 0.48593 0.10945 0.14908 0.0
H406 H 0.39139 0.1139 0.21557 0.0
C407 C 0.56708 0.09693 0.34908 0.0
C408 C 0.54638 0.06863 0.2539 0.0
C409 C 0.60271 0.12041 0.38378 0.0
C410 C 0.40662 0.12858 0.10079 0.0
C411 C 0.44009 0.10845 0.13697 0.0
C412 C 0.43373 0.0992 0.22565 0.0
C413 C 0.57285 0.10658 0.31699 0.0
C414 C 0.5297 0.08945 0.2787 0.0
C415 C 0.41498 0.0921 0.15843 0.0
C416 C 0.45141 0.08265 0.20004 0.0
H417 H 0.68161 0.18924 0.35608 0.0
H418 H 0.62044 0.14748 0.29589 0.0
H419 H 0.45864 0.11874 0.28313 0.0
H420 H 0.27616 0.11731 0.094 0.0
H421 H 0.33398 0.07938 0.15644 0.0
C422 C 0.62821 0.76638 0.17713 0.0
C423 C 0.63278 0.80689 0.15733 0.0
C424 C 0.60833 0.77224 0.20303 0.0
C425 C 0.51772 0.85776 0.22227 0.0
H426 H 0.5579 0.77044 0.30751 0.0
C427 C 0.4384 0.87805 0.33263 0.0
C428 C 0.42843 0.83462 0.34723 0.0
C429 C 0.45808 0.87611 0.30633 0.0
C430 C 0.5456 0.79472 0.28347 0.0
H431 H 0.62248 0.88559 0.15025 0.0
H432 H 0.59054 0.89656 0.19697 0.0
H433 H 0.6111 0.76675 0.2734 0.0
H434 H 0.42861 0.7553 0.34448 0.0
H435 H 0.46155 0.75169 0.29792 0.0
H436 H 0.45281 0.88626 0.2331 0.0
C437 C 0.60118 0.85993 0.19202 0.0
C438 C 0.57631 0.79271 0.26389 0.0
C439 C 0.6208 0.85392 0.16589 0.0
C440 C 0.43443 0.78932 0.3329 0.0
C441 C 0.4545 0.78732 0.30686 0.0
C442 C 0.48734 0.86009 0.24216 0.0
C443 C 0.59237 0.8189 0.2098 0.0
C444 C 0.56256 0.82382 0.2327 0.0
C445 C 0.46901 0.83063 0.29456 0.0
C446 C 0.50044 0.82817 0.27274 0.0
H447 H 0.63537 0.72956 0.17012 0.0
H448 H 0.60169 0.73957 0.2156 0.0
H449 H 0.50492 0.88179 0.19805 0.0
H450 H 0.4359 0.91338 0.34413 0.0
H451 H 0.46898 0.91017 0.2976 0.0
C452 C 0.34519 0.84325 0.6202 0.0
C453 C 0.36906 0.83173 0.59709 0.0
C454 C 0.38021 0.85232 0.65903 0.0
C455 C 0.52992 0.87345 0.73514 0.0
H456 H 0.48636 0.7907 0.79468 0.0
C457 C 0.69151 0.79341 0.87997 0.0
C458 C 0.6756 0.78559 0.90785 0.0
C459 C 0.65234 0.81172 0.84423 0.0
C460 C 0.4987 0.81497 0.77877 0.0
H461 H 0.44831 0.82443 0.59598 0.0
H462 H 0.50944 0.83965 0.66386 0.0
H463 H 0.42045 0.80228 0.72729 0.0
H464 H 0.60665 0.79301 0.92059 0.0
H465 H 0.53819 0.82539 0.85807 0.0
H466 H 0.60914 0.88464 0.78659 0.0
C467 C 0.46367 0.84202 0.65194 0.0
C468 C 0.46084 0.82162 0.74004 0.0
C469 C 0.42861 0.83303 0.61304 0.0
C470 C 0.62015 0.79823 0.89965 0.0
C471 C 0.58089 0.81667 0.86381 0.0
C472 C 0.5678 0.86692 0.77399 0.0
C473 C 0.4398 0.84999 0.67557 0.0
C474 C 0.47661 0.84982 0.71758 0.0
C475 C 0.5963 0.82281 0.83549 0.0
C476 C 0.55321 0.83641 0.79597 0.0
H477 H 0.29941 0.8432 0.60869 0.0
H478 H 0.36062 0.85925 0.6764 0.0
H479 H 0.54291 0.89594 0.71864 0.0
H480 H 0.73391 0.78422 0.8853 0.0
H481 H 0.66543 0.81524 0.82295 0.0
C482 C 0.41074 0.2294 0.81838 0.0
C483 C 0.4077 0.188 0.83805 0.0
C484 C 0.43014 0.22502 0.79219 0.0
C485 C 0.46308 0.1438 0.73321 0.0
H486 H 0.5933 0.23017 0.76456 0.0
C487 C 0.58797 0.14484 0.65103 0.0
C488 C 0.60076 0.19181 0.64295 0.0
C489 C 0.57164 0.13865 0.67883 0.0
C490 C 0.55676 0.2061 0.75502 0.0
H491 H 0.41777 0.10905 0.84329 0.0
H492 H 0.44951 0.10101 0.79604 0.0
H493 H 0.54042 0.23155 0.79892 0.0
H494 H 0.61014 0.26845 0.65909 0.0
H495 H 0.58213 0.25819 0.70723 0.0
H496 H 0.47774 0.11975 0.68826 0.0
C497 C 0.43736 0.1369 0.80126 0.0
C498 C 0.52644 0.2069 0.77482 0.0
C499 C 0.41845 0.14139 0.8279 0.0
C500 C 0.60175 0.23167 0.66538 0.0
C501 C 0.5852 0.22565 0.6929 0.0
C502 C 0.49288 0.14356 0.71288 0.0
C503 C 0.44638 0.17905 0.7848 0.0
C504 C 0.47876 0.17636 0.76382 0.0
C505 C 0.56742 0.17943 0.69892 0.0
C506 C 0.53973 0.17529 0.72315 0.0
H507 H 0.40365 0.26581 0.82614 0.0
H508 H 0.43589 0.25804 0.77951 0.0
H509 H 0.42664 0.11972 0.72424 0.0
H510 H 0.58574 0.11368 0.63361 0.0
H511 H 0.55958 0.1023 0.68318 0.0
C512 C 0.15926 0.6223 0.40272 0.0
C513 C 0.19151 0.66335 0.40356 0.0
C514 C 0.12832 0.59525 0.36901 0.0
C515 C 0.10358 0.58235 0.26952 0.0
H516 H 0.94415 0.58303 0.24206 0.0
C517 C 0.89253 0.66117 0.142 0.0
C518 C 0.89371 0.64334 0.10978 0.0
C519 C 0.92572 0.63947 0.17741 0.0
C520 C 0.98855 0.58171 0.24934 0.0
H521 H 0.22078 0.7056 0.37101 0.0
H522 H 0.16686 0.6594 0.31268 0.0
H523 H 0.01707 0.5881 0.30878 0.0
H524 H 0.92845 0.58722 0.0889 0.0
H525 H 0.98826 0.54963 0.15168 0.0
H526 H 0.07472 0.58124 0.20977 0.0
C527 C 0.16526 0.64753 0.33772 0.0
C528 C 0.03047 0.58414 0.28768 0.0
C529 C 0.19559 0.67463 0.3711 0.0
C530 C 0.92704 0.60185 0.11338 0.0
C531 C 0.96111 0.58035 0.1492 0.0
C532 C 0.0616 0.58028 0.23115 0.0
C533 C 0.12978 0.6085 0.33583 0.0
C534 C 0.08828 0.58804 0.29796 0.0
C535 C 0.96136 0.59951 0.18167 0.0
C536 C 1.0037 0.58349 0.22068 0.0
H537 H 0.1557 0.61252 0.42745 0.0
H538 H 0.10159 0.56521 0.36849 0.0
H539 H 0.14791 0.58397 0.27669 0.0
H540 H 0.86673 0.69271 0.14008 0.0
H541 H 0.92561 0.65583 0.20185 0.0
C542 C 0.90809 0.36103 0.32178 0.0
C543 C 0.89948 0.31557 0.33456 0.0
C544 C 0.92733 0.36311 0.29525 0.0
C545 C 0.95776 0.28542 0.23016 0.0
H546 H 0.07457 0.38356 0.25249 0.0
C547 C 0.10316 0.27069 0.16434 0.0
C548 C 0.1062 0.31305 0.14561 0.0
C549 C 0.08214 0.27324 0.18981 0.0
C550 C 0.0419 0.35606 0.2458 0.0
H551 H 0.90235 0.23683 0.3288 0.0
H552 H 0.93545 0.24 0.28269 0.0
H553 H 0.02204 0.38445 0.28735 0.0
H554 H 0.09227 0.39155 0.14017 0.0
H555 H 0.0574 0.39649 0.18577 0.0
H556 H 0.97865 0.25643 0.18925 0.0
C557 C 0.92642 0.27433 0.29221 0.0
C558 C 1.01126 0.35676 0.26555 0.0
C559 C 0.90688 0.27236 0.31849 0.0
C560 C 0.09207 0.35861 0.15514 0.0
C561 C 0.07141 0.36127 0.1809 0.0
C562 C 0.98878 0.28442 0.21078 0.0
C563 C 0.93915 0.3197 0.2813 0.0
C564 C 0.96889 0.32124 0.25821 0.0
C565 C 0.06364 0.31825 0.19713 0.0
C566 C 0.03157 0.31946 0.21852 0.0
H567 H 0.90418 0.39484 0.33451 0.0
H568 H 0.9354 0.39878 0.28702 0.0
H569 H 0.92487 0.25801 0.22302 0.0
H570 H 0.1123 0.23497 0.15672 0.0
H571 H 0.07756 0.23952 0.20227 0.0
C572 C 0.19116 0.32429 0.87543 0.0
C573 C 0.16752 0.31149 0.89842 0.0
C574 C 0.15602 0.33775 0.83748 0.0
C575 C 1.00753 0.37039 0.76484 0.0
H576 H 0.04305 0.2951 0.69762 0.0
C577 C 0.83906 0.31267 0.6135 0.0
C578 C 0.85487 0.30695 0.58535 0.0
C579 C 0.87935 0.32634 0.65053 0.0
C580 C 0.03299 0.31738 0.71576 0.0
H581 H 0.08877 0.30608 0.90038 0.0
H582 H 0.02736 0.32892 0.83396 0.0
H583 H 0.11024 0.29669 0.76543 0.0
H584 H 0.92471 0.31412 0.57349 0.0
H585 H 0.99495 0.33861 0.63812 0.0
H586 H 0.92921 0.38967 0.71503 0.0
C587 C 0.0731 0.32897 0.84534 0.0
C588 C 0.07161 0.31826 0.75477 0.0
C589 C 0.10831 0.31564 0.8834 0.0
C590 C 0.91123 0.31773 0.59458 0.0
C591 C 0.95155 0.33158 0.63166 0.0
C592 C 0.96886 0.36962 0.7257 0.0
C593 C 0.09648 0.33855 0.82164 0.0
C594 C 0.05876 0.34378 0.77988 0.0
C595 C 0.93639 0.3348 0.6603 0.0
C596 C 0.98055 0.34205 0.70084 0.0
H597 H 0.23671 0.3221 0.88626 0.0
H598 H 0.17538 0.34584 0.82013 0.0
H599 H 0.99679 0.39092 0.78343 0.0
H600 H 0.79598 0.30483 0.6074 0.0
H601 H 0.86626 0.32787 0.67191 0.0
C602 C 0.10216 0.66406 0.65487 0.0
C603 C 0.11599 0.7122 0.64961 0.0
C604 C 0.08244 0.6547 0.68067 0.0
C605 C 0.99866 0.71769 0.71575 0.0
H606 H 0.04576 0.61755 0.79354 0.0
C607 C 0.92846 0.72185 0.82923 0.0
C608 C 0.92893 0.67869 0.8484 0.0
C609 C 0.94394 0.72093 0.80088 0.0
C610 C 0.03097 0.64506 0.77136 0.0
H611 H 0.12436 0.78734 0.66936 0.0
H612 H 0.09038 0.77108 0.71422 0.0
H613 H 0.09408 0.6245 0.756 0.0
H614 H 0.94244 0.60019 0.85114 0.0
H615 H 0.96627 0.59779 0.79998 0.0
H616 H 0.93484 0.73785 0.72991 0.0
C617 C 0.09427 0.74063 0.69833 0.0
C618 C 0.05921 0.64922 0.75009 0.0
C619 C 0.11453 0.74982 0.67305 0.0
C620 C 0.94037 0.63386 0.83623 0.0
C621 C 0.9555 0.63279 0.80754 0.0
C622 C 0.96981 0.71302 0.73641 0.0
C623 C 0.07561 0.69345 0.70123 0.0
C624 C 0.0442 0.68636 0.72266 0.0
C625 C 0.9601 0.67666 0.79064 0.0
C626 C 0.98625 0.67739 0.76523 0.0
H627 H 0.10176 0.63456 0.6367 0.0
H628 H 0.0685 0.61792 0.68238 0.0
H629 H 0.98523 0.74602 0.69419 0.0
H630 H 0.92143 0.75709 0.83876 0.0
H631 H 0.94739 0.75571 0.78922 0.0
loop_
_geom_bond_atom_site_label_1
_geom_bond_atom_site_label_2
_geom_bond_distance
_geom_bond_site_symmetry_2
_ccdc_geom_bond_type
Eu0 O2 2.488 . S
Eu0 O3 2.515 1_556 S
Eu0 O5 2.325 1_556 S
Eu0 O6 2.374 1_556 S
Eu0 C14 2.849 . S
Eu0 O20 2.397 1_556 S
Eu0 O22 2.327 . S
Eu1 O4 2.396 . S
Eu1 O7 2.323 . S
Eu1 O16 2.472 . S
Eu1 O17 2.518 1_554 S
Eu1 O19 2.336 1_554 S
Eu1 O21 2.389 1_554 S
Eu1 C29 2.835 . S
O2 Eu0 2.488 . S
O2 C14 1.258 . S
O3 Eu0 2.515 1_554 S
O3 C14 1.246 1_554 S
O4 Eu1 2.396 . S
O4 C15 1.216 . S
O5 Eu0 2.325 1_554 S
O5 C15 1.279 . S
O6 Eu0 2.374 1_554 S
O6 C18 1.239 . S
O7 Eu1 2.323 . S
O7 C18 1.249 . S
C8 C11 1.390 . S
C8 C13 1.370 . S
C8 C14 1.489 . S
C9 C10 1.344 . S
C9 C12 1.413 . S
C9 H32 0.931 . S
C10 C9 1.344 . S
C10 C11 1.423 . S
C11 C8 1.390 . S
C11 C10 1.423 . S
C11 H33 0.930 1_556 S
C12 C9 1.413 . S
C12 C13 1.397 . S
C13 C8 1.370 . S
C13 C12 1.397 . S
C13 H34 0.932 . S
C14 Eu0 2.849 . S
C14 O2 1.258 . S
C14 O3 1.246 1_556 S
C14 C8 1.489 . S
C15 O4 1.216 . S
C15 O5 1.279 . S
O16 Eu1 2.472 . S
O16 C29 1.258 . S
O17 Eu1 2.518 1_556 S
O17 C29 1.225 1_556 S
C18 O6 1.239 . S
C18 O7 1.249 . S
O19 Eu1 2.336 1_556 S
O19 C30 1.279 1_556 S
O20 Eu0 2.397 1_554 S
O20 C30 1.216 . S
O21 Eu1 2.389 1_556 S
O21 C31 1.239 . S
O22 Eu0 2.327 . S
O22 C31 1.249 . S
C23 C25 1.370 . S
C23 C28 1.390 . S
C23 C29 1.489 . S
C24 C25 1.397 . S
C24 C26 1.413 . S
C25 C23 1.370 . S
C25 C24 1.397 . S
C25 H35 0.932 . S
C26 C24 1.413 . S
C26 C27 1.344 1_455 S
C26 H36 0.921 1_455 S
C27 C26 1.344 1_655 S
C27 C28 1.423 1_655 S
C28 C23 1.390 . S
C28 C27 1.423 1_455 S
C28 H37 0.930 . S
C29 Eu1 2.835 . S
C29 O16 1.258 . S
C29 O17 1.225 1_554 S
C29 C23 1.489 . S
C30 O19 1.279 1_554 S
C30 O20 1.216 . S
C31 O21 1.239 . S
C31 O22 1.249 . S
H32 C9 0.931 . S
H33 C11 0.930 1_554 S
H34 C13 0.932 . S
H35 C25 0.932 . S
H36 C26 0.921 1_655 S
H37 C28 0.930 . S
Eu38 O40 2.488 . S
Eu38 O41 2.515 1_556 S
Eu38 O43 2.325 1_556 S
Eu38 O44 2.374 1_556 S
Eu38 C52 2.849 . S
Eu38 O58 2.397 1_556 S
Eu38 O60 2.327 . S
Eu39 O42 2.396 . S
Eu39 O45 2.323 . S
Eu39 O54 2.472 . S
Eu39 O55 2.518 1_554 S
Eu39 O57 2.336 1_554 S
Eu39 O59 2.389 1_554 S
Eu39 C67 2.835 . S
O40 Eu38 2.488 . S
O40 C52 1.258 . S
O41 Eu38 2.515 1_554 S
O41 C52 1.246 1_554 S
O42 Eu39 2.396 . S
O42 C53 1.216 . S
O43 Eu38 2.325 1_554 S
O43 C53 1.279 . S
O44 Eu38 2.374 1_554 S
O44 C56 1.239 . S
O45 Eu39 2.323 . S
O45 C56 1.249 . S
C46 C49 1.390 . S
C46 C51 1.370 . S
C46 C52 1.489 . S
C47 C48 1.344 1_655 S
C47 C50 1.413 . S
C47 H70 0.921 1_655 S
C48 C47 1.344 1_455 S
C48 C49 1.423 1_455 S
C49 C46 1.390 . S
C49 C48 1.423 1_655 S
C49 H71 0.930 1_556 S
C50 C47 1.413 . S
C50 C51 1.397 . S
C51 C46 1.370 . S
C51 C50 1.397 . S
C51 H72 0.932 . S
C52 Eu38 2.849 . S
C52 O40 1.258 . S
C52 O41 1.246 1_556 S
C52 C46 1.489 . S
C53 O42 1.216 . S
C53 O43 1.279 . S
O54 Eu39 2.472 . S
O54 C67 1.258 . S
O55 Eu39 2.518 1_556 S
O55 C67 1.225 1_556 S
C56 O44 1.239 . S
C56 O45 1.249 . S
O57 Eu39 2.336 1_556 S
O57 C68 1.279 1_556 S
O58 Eu38 2.397 1_554 S
O58 C68 1.216 . S
O59 Eu39 2.389 1_556 S
O59 C69 1.239 . S
O60 Eu38 2.327 . S
O60 C69 1.249 . S
C61 C63 1.370 . S
C61 C66 1.390 . S
C61 C67 1.489 . S
C62 C63 1.397 . S
C62 C64 1.413 . S
C63 C61 1.370 . S
C63 C62 1.397 . S
C63 H73 0.932 . S
C64 C62 1.413 . S
C64 C65 1.344 . S
C64 H74 0.931 . S
C65 C64 1.344 . S
C65 C66 1.423 . S
C66 C61 1.390 . S
C66 C65 1.423 . S
C66 H75 0.930 . S
C67 Eu39 2.835 . S
C67 O54 1.258 . S
C67 O55 1.225 1_554 S
C67 C61 1.489 . S
C68 O57 1.279 1_554 S
C68 O58 1.216 . S
C69 O59 1.239 . S
C69 O60 1.249 . S
H70 C47 0.921 1_455 S
H71 C49 0.930 1_554 S
H72 C51 0.932 . S
H73 C63 0.932 . S
H74 C64 0.931 . S
H75 C66 0.930 . S
Eu76 O78 2.472 . S
Eu76 O79 2.507 . S
Eu76 O81 2.336 . S
Eu76 O82 2.389 . S
Eu76 C90 2.835 . S
Eu76 O96 2.396 . S
Eu76 O98 2.323 . S
Eu77 O80 2.396 . S
Eu77 O83 2.323 . S
Eu77 O92 2.472 . S
Eu77 O93 2.507 . S
Eu77 O95 2.336 . S
Eu77 O97 2.389 . S
Eu77 C105 2.835 . S
O78 Eu76 2.472 . S
O78 C90 1.258 . S
O79 Eu76 2.507 . S
O79 C90 1.246 . S
O80 Eu77 2.396 . S
O80 C91 1.216 . S
O81 Eu76 2.336 . S
O81 C91 1.279 . S
O82 Eu76 2.389 . S
O82 C94 1.239 . S
O83 Eu77 2.323 . S
O83 C94 1.249 . S
C84 C87 1.390 . S
C84 C89 1.370 . S
C84 C90 1.489 . S
C85 C86 1.344 1_455 S
C85 C88 1.413 . S
C85 H108 0.921 1_455 S
C86 C85 1.344 1_655 S
C86 C87 1.423 1_655 S
C87 C84 1.390 . S
C87 C86 1.423 1_455 S
C87 H109 0.930 . S
C88 C85 1.413 . S
C88 C89 1.397 . S
C89 C84 1.370 . S
C89 C88 1.397 . S
C89 H110 0.932 . S
C90 Eu76 2.835 . S
C90 O78 1.258 . S
C90 O79 1.246 . S
C90 C84 1.489 . S
C91 O80 1.216 . S
C91 O81 1.279 . S
O92 Eu77 2.472 . S
O92 C105 1.258 . S
O93 Eu77 2.507 . S
O93 C105 1.246 . S
C94 O82 1.239 . S
C94 O83 1.249 . S
O95 Eu77 2.336 . S
O95 C106 1.279 . S
O96 Eu76 2.396 . S
O96 C106 1.216 . S
O97 Eu77 2.389 . S
O97 C107 1.239 . S
O98 Eu76 2.323 . S
O98 C107 1.249 . S
C99 C101 1.370 . S
C99 C104 1.390 . S
C99 C105 1.489 . S
C100 C101 1.397 . S
C100 C102 1.413 . S
C101 C99 1.370 . S
C101 C100 1.397 . S
C101 H111 0.932 . S
C102 C100 1.413 . S
C102 C103 1.344 . S
C102 H112 0.931 . S
C103 C102 1.344 . S
C103 C104 1.423 . S
C104 C99 1.390 . S
C104 C103 1.423 . S
C104 H113 0.930 . S
C105 Eu77 2.835 . S
C105 O92 1.258 . S
C105 O93 1.246 . S
C105 C99 1.489 . S
C106 O95 1.279 . S
C106 O96 1.216 . S
C107 O97 1.239 . S
C107 O98 1.249 . S
H108 C85 0.921 1_655 S
H109 C87 0.930 . S
H110 C89 0.932 . S
H111 C101 0.932 . S
H112 C102 0.931 . S
H113 C104 0.930 . S
Eu114 O116 2.472 . S
Eu114 O117 2.507 . S
Eu114 O119 2.336 . S
Eu114 O120 2.389 . S
Eu114 C128 2.835 . S
Eu114 O134 2.396 . S
Eu114 O136 2.323 . S
Eu115 O118 2.396 . S
Eu115 O121 2.323 . S
Eu115 O130 2.472 . S
Eu115 O131 2.507 . S
Eu115 O133 2.336 . S
Eu115 O135 2.389 . S
Eu115 C143 2.835 . S
O116 Eu114 2.472 . S
O116 C128 1.258 . S
O117 Eu114 2.507 . S
O117 C128 1.246 . S
O118 Eu115 2.396 . S
O118 C129 1.216 . S
O119 Eu114 2.336 . S
O119 C129 1.279 . S
O120 Eu114 2.389 . S
O120 C132 1.239 . S
O121 Eu115 2.323 . S
O121 C132 1.249 . S
C122 C125 1.390 . S
C122 C127 1.370 . S
C122 C128 1.489 . S
C123 C124 1.344 . S
C123 C126 1.413 . S
C123 H146 0.931 . S
C124 C123 1.344 . S
C124 C125 1.423 . S
C125 C122 1.390 . S
C125 C124 1.423 . S
C125 H147 0.930 . S
C126 C123 1.413 . S
C126 C127 1.397 . S
C127 C122 1.370 . S
C127 C126 1.397 . S
C127 H148 0.932 . S
C128 Eu114 2.835 . S
C128 O116 1.258 . S
C128 O117 1.246 . S
C128 C122 1.489 . S
C129 O118 1.216 . S
C129 O119 1.279 . S
O130 Eu115 2.472 . S
O130 C143 1.258 . S
O131 Eu115 2.507 . S
O131 C143 1.246 . S
C132 O120 1.239 . S
C132 O121 1.249 . S
O133 Eu115 2.336 . S
O133 C144 1.279 . S
O134 Eu114 2.396 . S
O134 C144 1.216 . S
O135 Eu115 2.389 . S
O135 C145 1.239 . S
O136 Eu114 2.323 . S
O136 C145 1.249 . S
C137 C139 1.370 . S
C137 C142 1.390 . S
C137 C143 1.489 . S
C138 C139 1.397 . S
C138 C140 1.413 . S
C139 C137 1.370 . S
C139 C138 1.397 . S
C139 H149 0.932 . S
C140 C138 1.413 . S
C140 C141 1.344 1_655 S
C140 H150 0.921 1_655 S
C141 C140 1.344 1_455 S
C141 C142 1.423 1_455 S
C142 C137 1.390 . S
C142 C141 1.423 1_655 S
C142 H151 0.930 . S
C143 Eu115 2.835 . S
C143 O130 1.258 . S
C143 O131 1.246 . S
C143 C137 1.489 . S
C144 O133 1.279 . S
C144 O134 1.216 . S
C145 O135 1.239 . S
C145 O136 1.249 . S
H146 C123 0.931 . S
H147 C125 0.930 . S
H148 C127 0.932 . S
H149 C139 0.932 . S
H150 C140 0.921 1_455 S
H151 C142 0.930 . S
C152 C153 1.349 . S
C152 C154 1.327 . S
C152 H177 0.950 . S
C153 C152 1.349 . S
C153 C169 1.349 . S
C154 C152 1.327 . S
C154 C173 1.429 . S
C154 H178 0.950 . S
C155 C172 1.574 . S
C155 C174 1.368 1_554 S
C155 H179 0.949 . S
H156 C160 0.949 . S
C157 C158 1.349 . S
C157 C159 1.327 . S
C157 H180 0.950 . S
C158 C157 1.349 . S
C158 C170 1.349 . S
C159 C157 1.327 . S
C159 C175 1.429 . S
C159 H181 0.950 . S
C160 H156 0.949 . S
C160 C168 1.574 1_554 S
C160 C176 1.368 . S
H161 C169 0.950 . S
H162 C167 0.950 . S
H163 C168 0.949 . S
H164 C170 0.950 . S
H165 C171 0.950 . S
H166 C172 0.949 . S
C167 H162 0.950 . S
C167 C169 1.327 . S
C167 C173 1.429 . S
C168 C160 1.574 1_556 S
C168 H163 0.949 . S
C168 C174 1.368 . S
C169 C153 1.349 . S
C169 H161 0.950 . S
C169 C167 1.327 . S
C170 C158 1.349 . S
C170 H164 0.950 . S
C170 C171 1.327 . S
C171 H165 0.950 . S
C171 C170 1.327 . S
C171 C175 1.429 . S
C172 C155 1.574 . S
C172 H166 0.949 . S
C172 C176 1.368 . S
C173 C154 1.429 . S
C173 C167 1.429 . S
C173 C174 1.523 . S
C174 C155 1.368 1_556 S
C174 C168 1.368 . S
C174 C173 1.523 . S
C175 C159 1.429 . S
C175 C171 1.429 . S
C175 C176 1.523 . S
C176 C160 1.368 . S
C176 C172 1.368 . S
C176 C175 1.523 . S
H177 C152 0.950 . S
H178 C154 0.950 . S
H179 C155 0.949 . S
H180 C157 0.950 . S
H181 C159 0.950 . S
C182 C183 1.349 . S
C182 C184 1.327 . S
C182 H207 0.950 . S
C183 C182 1.349 . S
C183 C199 1.349 1_556 S
C184 C182 1.327 . S
C184 C203 1.429 . S
C184 H208 0.950 . S
C185 C202 1.574 . S
C185 C204 1.368 1_554 S
C185 H209 0.949 . S
H186 C190 0.949 . S
C187 C188 1.349 . S
C187 C189 1.327 . S
C187 H210 0.950 . S
C188 C187 1.349 . S
C188 C200 1.349 1_554 S
C189 C187 1.327 . S
C189 C205 1.429 . S
C189 H211 0.950 . S
C190 H186 0.949 . S
C190 C198 1.574 . S
C190 C206 1.368 1_556 S
H191 C199 0.950 . S
H192 C197 0.950 . S
H193 C198 0.949 . S
H194 C200 0.950 . S
H195 C201 0.950 . S
H196 C202 0.949 . S
C197 H192 0.950 . S
C197 C199 1.327 . S
C197 C203 1.429 1_554 S
C198 C190 1.574 . S
C198 H193 0.949 . S
C198 C204 1.368 . S
C199 C183 1.349 1_554 S
C199 H191 0.950 . S
C199 C197 1.327 . S
C200 C188 1.349 1_556 S
C200 H194 0.950 . S
C200 C201 1.327 . S
C201 H195 0.950 . S
C201 C200 1.327 . S
C201 C205 1.429 1_556 S
C202 C185 1.574 . S
C202 H196 0.949 . S
C202 C206 1.368 . S
C203 C184 1.429 . S
C203 C197 1.429 1_556 S
C203 C204 1.523 . S
C204 C185 1.368 1_556 S
C204 C198 1.368 . S
C204 C203 1.523 . S
C205 C189 1.429 . S
C205 C201 1.429 1_554 S
C205 C206 1.523 . S
C206 C190 1.368 1_554 S
C206 C202 1.368 . S
C206 C205 1.523 . S
H207 C182 0.950 . S
H208 C184 0.950 . S
H209 C185 0.949 . S
H210 C187 0.950 . S
H211 C189 0.950 . S
C212 C213 1.349 . S
C212 C214 1.327 . S
C212 H237 0.950 . S
C213 C212 1.349 . S
C213 C229 1.349 . S
C214 C212 1.327 . S
C214 C233 1.429 . S
C214 H238 0.950 . S
C215 C232 1.574 . S
C215 C234 1.368 . S
C215 H239 0.949 . S
H216 C220 0.949 . S
C217 C218 1.349 . S
C217 C219 1.327 . S
C217 H240 0.950 . S
C218 C217 1.349 . S
C218 C230 1.349 . S
C219 C217 1.327 . S
C219 C235 1.429 . S
C219 H241 0.950 . S
C220 H216 0.949 . S
C220 C228 1.574 . S
C220 C236 1.368 . S
H221 C229 0.950 . S
H222 C227 0.950 . S
H223 C228 0.949 . S
H224 C230 0.950 . S
H225 C231 0.950 . S
H226 C232 0.949 . S
C227 H222 0.950 . S
C227 C229 1.327 . S
C227 C233 1.429 . S
C228 C220 1.574 . S
C228 H223 0.949 . S
C228 C234 1.368 . S
C229 C213 1.349 . S
C229 H221 0.950 . S
C229 C227 1.327 . S
C230 C218 1.349 . S
C230 H224 0.950 . S
C230 C231 1.327 . S
C231 H225 0.950 . S
C231 C230 1.327 . S
C231 C235 1.429 . S
C232 C215 1.574 . S
C232 H226 0.949 . S
C232 C236 1.368 . S
C233 C214 1.429 . S
C233 C227 1.429 . S
C233 C234 1.523 . S
C234 C215 1.368 . S
C234 C228 1.368 . S
C234 C233 1.523 . S
C235 C219 1.429 . S
C235 C231 1.429 . S
C235 C236 1.523 . S
C236 C220 1.368 . S
C236 C232 1.368 . S
C236 C235 1.523 . S
H237 C212 0.950 . S
H238 C214 0.950 . S
H239 C215 0.949 . S
H240 C217 0.950 . S
H241 C219 0.950 . S
C242 C243 1.349 . S
C242 C244 1.327 . S
C242 H267 0.950 . S
C243 C242 1.349 . S
C243 C259 1.349 . S
C244 C242 1.327 . S
C244 C263 1.429 . S
C244 H268 0.950 . S
C245 C262 1.574 . S
C245 C264 1.368 . S
C245 H269 0.949 . S
H246 C250 0.949 . S
C247 C248 1.349 . S
C247 C249 1.327 . S
C247 H270 0.950 . S
C248 C247 1.349 . S
C248 C260 1.349 . S
C249 C247 1.327 . S
C249 C265 1.429 . S
C249 H271 0.950 . S
C250 H246 0.949 . S
C250 C258 1.574 . S
C250 C266 1.368 . S
H251 C259 0.950 . S
H252 C257 0.950 . S
H253 C258 0.949 . S
H254 C260 0.950 . S
H255 C261 0.950 . S
H256 C262 0.949 . S
C257 H252 0.950 . S
C257 C259 1.327 . S
C257 C263 1.429 . S
C258 C250 1.574 . S
C258 H253 0.949 . S
C258 C264 1.368 . S
C259 C243 1.349 . S
C259 H251 0.950 . S
C259 C257 1.327 . S
C260 C248 1.349 . S
C260 H254 0.950 . S
C260 C261 1.327 . S
C261 H255 0.950 . S
C261 C260 1.327 . S
C261 C265 1.429 . S
C262 C245 1.574 . S
C262 H256 0.949 . S
C262 C266 1.368 . S
C263 C244 1.429 . S
C263 C257 1.429 . S
C263 C264 1.523 . S
C264 C245 1.368 . S
C264 C258 1.368 . S
C264 C263 1.523 . S
C265 C249 1.429 . S
C265 C261 1.429 . S
C265 C266 1.523 . S
C266 C250 1.368 . S
C266 C262 1.368 . S
C266 C265 1.523 . S
H267 C242 0.950 . S
H268 C244 0.950 . S
H269 C245 0.949 . S
H270 C247 0.950 . S
H271 C249 0.950 . S
C272 C273 1.350 1_556 S
C272 C274 1.327 . S
C272 H297 0.950 . S
C273 C272 1.350 1_554 S
C273 C289 1.347 . S
C274 C272 1.327 . S
C274 C293 1.429 1_556 S
C274 H298 0.950 . S
C275 C292 1.574 . S
C275 C294 1.368 . S
C275 H299 0.949 . S
H276 C280 0.949 . S
C277 C278 1.349 . S
C277 C279 1.327 . S
C277 H300 0.950 . S
C278 C277 1.349 . S
C278 C290 1.349 1_554 S
C279 C277 1.327 . S
C279 C295 1.429 . S
C279 H301 0.950 . S
C280 H276 0.949 . S
C280 C288 1.574 . S
C280 C296 1.368 1_556 S
H281 C289 0.950 . S
H282 C287 0.950 . S
H283 C288 0.949 . S
H284 C290 0.950 . S
H285 C291 0.950 . S
H286 C292 0.949 . S
C287 H282 0.950 . S
C287 C289 1.327 . S
C287 C293 1.429 . S
C288 C280 1.574 . S
C288 H283 0.949 . S
C288 C294 1.368 1_556 S
C289 C273 1.347 . S
C289 H281 0.950 . S
C289 C287 1.327 . S
C290 C278 1.349 1_556 S
C290 H284 0.950 . S
C290 C291 1.327 . S
C291 H285 0.950 . S
C291 C290 1.327 . S
C291 C295 1.429 1_556 S
C292 C275 1.574 . S
C292 H286 0.949 . S
C292 C296 1.368 . S
C293 C274 1.429 1_554 S
C293 C287 1.429 . S
C293 C294 1.523 . S
C294 C275 1.368 . S
C294 C288 1.368 1_554 S
C294 C293 1.523 . S
C295 C279 1.429 . S
C295 C291 1.429 1_554 S
C295 C296 1.523 . S
C296 C280 1.368 1_554 S
C296 C292 1.368 . S
C296 C295 1.523 . S
H297 C272 0.950 . S
H298 C274 0.950 . S
H299 C275 0.949 . S
H300 C277 0.950 . S
H301 C279 0.950 . S
C302 C303 1.349 . S
C302 C304 1.327 . S
C302 H327 0.950 . S
C303 C302 1.349 . S
C303 C319 1.349 . S
C304 C302 1.327 . S
C304 C323 1.429 . S
C304 H328 0.950 . S
C305 C322 1.574 . S
C305 C324 1.368 . S
C305 H329 0.949 . S
H306 C310 0.949 . S
C307 C308 1.349 . S
C307 C309 1.327 . S
C307 H330 0.950 . S
C308 C307 1.349 . S
C308 C320 1.349 . S
C309 C307 1.327 . S
C309 C325 1.429 . S
C309 H331 0.950 . S
C310 H306 0.949 . S
C310 C318 1.574 . S
C310 C326 1.368 . S
H311 C319 0.950 . S
H312 C317 0.950 . S
H313 C318 0.949 . S
H314 C320 0.950 . S
H315 C321 0.950 . S
H316 C322 0.949 . S
C317 H312 0.950 . S
C317 C319 1.327 . S
C317 C323 1.429 . S
C318 C310 1.574 . S
C318 H313 0.949 . S
C318 C324 1.368 . S
C319 C303 1.349 . S
C319 H311 0.950 . S
C319 C317 1.327 . S
C320 C308 1.349 . S
C320 H314 0.950 . S
C320 C321 1.327 . S
C321 H315 0.950 . S
C321 C320 1.327 . S
C321 C325 1.429 . S
C322 C305 1.574 . S
C322 H316 0.949 . S
C322 C326 1.368 . S
C323 C304 1.429 . S
C323 C317 1.429 . S
C323 C324 1.523 . S
C324 C305 1.368 . S
C324 C318 1.368 . S
C324 C323 1.523 . S
C325 C309 1.429 . S
C325 C321 1.429 . S
C325 C326 1.523 . S
C326 C310 1.368 . S
C326 C322 1.368 . S
C326 C325 1.523 . S
H327 C302 0.950 . S
H328 C304 0.950 . S
H329 C305 0.949 . S
H330 C307 0.950 . S
H331 C309 0.950 . S
C332 C333 1.350 1_556 S
C332 C334 1.327 . S
C332 H357 0.950 . S
C333 C332 1.350 1_554 S
C333 C349 1.347 . S
C334 C332 1.327 . S
C334 C353 1.429 1_556 S
C334 H358 0.950 . S
C335 C352 1.574 1_545 S
C335 C354 1.368 . S
C335 H359 0.949 . S
H336 C340 0.949 . S
C337 C338 1.349 . S
C337 C339 1.327 . S
C337 H360 0.950 . S
C338 C337 1.349 . S
C338 C350 1.349 1_554 S
C339 C337 1.327 . S
C339 C355 1.429 . S
C339 H361 0.950 . S
C340 H336 0.949 . S
C340 C348 1.574 1_565 S
C340 C356 1.368 1_556 S
H341 C349 0.950 . S
H342 C347 0.950 . S
H343 C348 0.949 . S
H344 C350 0.950 . S
H345 C351 0.950 . S
H346 C352 0.949 . S
C347 H342 0.950 . S
C347 C349 1.327 . S
C347 C353 1.429 . S
C348 C340 1.574 1_545 S
C348 H343 0.949 . S
C348 C354 1.368 1_656 S
C349 C333 1.347 . S
C349 H341 0.950 . S
C349 C347 1.327 . S
C350 C338 1.349 1_556 S
C350 H344 0.950 . S
C350 C351 1.327 . S
C351 H345 0.950 . S
C351 C350 1.327 . S
C351 C355 1.429 1_556 S
C352 C335 1.574 1_565 S
C352 H346 0.949 . S
C352 C356 1.368 1_455 S
C353 C334 1.429 1_554 S
C353 C347 1.429 . S
C353 C354 1.523 . S
C354 C335 1.368 . S
C354 C348 1.368 1_454 S
C354 C353 1.523 . S
C355 C339 1.429 . S
C355 C351 1.429 1_554 S
C355 C356 1.523 . S
C356 C340 1.368 1_554 S
C356 C352 1.368 1_655 S
C356 C355 1.523 . S
H357 C332 0.950 . S
H358 C334 0.950 . S
H359 C335 0.949 . S
H360 C337 0.950 . S
H361 C339 0.950 . S
C362 C363 1.349 . S
C362 C364 1.327 . S
C362 H387 0.950 . S
C363 C362 1.349 . S
C363 C379 1.349 . S
C364 C362 1.327 . S
C364 C383 1.429 . S
C364 H388 0.950 . S
C365 C382 1.574 1_655 S
C365 C384 1.368 1_565 S
C365 H389 0.949 . S
H366 C370 0.949 . S
C367 C368 1.349 . S
C367 C369 1.327 . S
C367 H390 0.950 . S
C368 C367 1.349 . S
C368 C380 1.349 . S
C369 C367 1.327 . S
C369 C385 1.429 . S
C369 H391 0.950 . S
C370 H366 0.949 . S
C370 C378 1.574 1_455 S
C370 C386 1.368 1_545 S
H371 C379 0.950 . S
H372 C377 0.950 . S
H373 C378 0.949 . S
H374 C380 0.950 . S
H375 C381 0.950 . S
H376 C382 0.949 . S
C377 H372 0.950 . S
C377 C379 1.327 . S
C377 C383 1.429 . S
C378 C370 1.574 1_655 S
C378 H373 0.949 . S
C378 C384 1.368 . S
C379 C363 1.349 . S
C379 H371 0.950 . S
C379 C377 1.327 . S
C380 C368 1.349 . S
C380 H374 0.950 . S
C380 C381 1.327 . S
C381 H375 0.950 . S
C381 C380 1.327 . S
C381 C385 1.429 . S
C382 C365 1.574 1_455 S
C382 H376 0.949 . S
C382 C386 1.368 . S
C383 C364 1.429 . S
C383 C377 1.429 . S
C383 C384 1.523 . S
C384 C365 1.368 1_545 S
C384 C378 1.368 . S
C384 C383 1.523 . S
C385 C369 1.429 . S
C385 C381 1.429 . S
C385 C386 1.523 . S
C386 C370 1.368 1_565 S
C386 C382 1.368 . S
C386 C385 1.523 . S
H387 C362 0.950 . S
H388 C364 0.950 . S
H389 C365 0.949 . S
H390 C367 0.950 . S
H391 C369 0.950 . S
C392 C393 1.349 . S
C392 C394 1.327 . S
C392 H417 0.950 . S
C393 C392 1.349 . S
C393 C409 1.349 . S
C394 C392 1.327 . S
C394 C413 1.429 . S
C394 H418 0.950 . S
C395 C412 1.574 . S
C395 C414 1.368 . S
C395 H419 0.949 . S
H396 C400 0.949 . S
C397 C398 1.349 . S
C397 C399 1.327 . S
C397 H420 0.950 . S
C398 C397 1.349 . S
C398 C410 1.349 . S
C399 C397 1.327 . S
C399 C415 1.429 . S
C399 H421 0.950 . S
C400 H396 0.949 . S
C400 C408 1.574 . S
C400 C416 1.368 . S
H401 C409 0.950 . S
H402 C407 0.950 . S
H403 C408 0.949 . S
H404 C410 0.950 . S
H405 C411 0.950 . S
H406 C412 0.949 . S
C407 H402 0.950 . S
C407 C409 1.327 . S
C407 C413 1.429 . S
C408 C400 1.574 . S
C408 H403 0.949 . S
C408 C414 1.368 . S
C409 C393 1.349 . S
C409 H401 0.950 . S
C409 C407 1.327 . S
C410 C398 1.349 . S
C410 H404 0.950 . S
C410 C411 1.327 . S
C411 H405 0.950 . S
C411 C410 1.327 . S
C411 C415 1.429 . S
C412 C395 1.574 . S
C412 H406 0.949 . S
C412 C416 1.368 . S
C413 C394 1.429 . S
C413 C407 1.429 . S
C413 C414 1.523 . S
C414 C395 1.368 . S
C414 C408 1.368 . S
C414 C413 1.523 . S
C415 C399 1.429 . S
C415 C411 1.429 . S
C415 C416 1.523 . S
C416 C400 1.368 . S
C416 C412 1.368 . S
C416 C415 1.523 . S
H417 C392 0.950 . S
H418 C394 0.950 . S
H419 C395 0.949 . S
H420 C397 0.950 . S
H421 C399 0.950 . S
C422 C423 1.349 . S
C422 C424 1.327 . S
C422 H447 0.950 . S
C423 C422 1.349 . S
C423 C439 1.349 . S
C424 C422 1.327 . S
C424 C443 1.429 . S
C424 H448 0.950 . S
C425 C442 1.574 . S
C425 C444 1.368 . S
C425 H449 0.949 . S
H426 C430 0.949 . S
C427 C428 1.349 . S
C427 C429 1.327 . S
C427 H450 0.950 . S
C428 C427 1.349 . S
C428 C440 1.349 . S
C429 C427 1.327 . S
C429 C445 1.429 . S
C429 H451 0.950 . S
C430 H426 0.949 . S
C430 C438 1.574 . S
C430 C446 1.368 . S
H431 C439 0.950 . S
H432 C437 0.950 . S
H433 C438 0.949 . S
H434 C440 0.950 . S
H435 C441 0.950 . S
H436 C442 0.949 . S
C437 H432 0.950 . S
C437 C439 1.327 . S
C437 C443 1.429 . S
C438 C430 1.574 . S
C438 H433 0.949 . S
C438 C444 1.368 . S
C439 C423 1.349 . S
C439 H431 0.950 . S
C439 C437 1.327 . S
C440 C428 1.349 . S
C440 H434 0.950 . S
C440 C441 1.327 . S
C441 H435 0.950 . S
C441 C440 1.327 . S
C441 C445 1.429 . S
C442 C425 1.574 . S
C442 H436 0.949 . S
C442 C446 1.368 . S
C443 C424 1.429 . S
C443 C437 1.429 . S
C443 C444 1.523 . S
C444 C425 1.368 . S
C444 C438 1.368 . S
C444 C443 1.523 . S
C445 C429 1.429 . S
C445 C441 1.429 . S
C445 C446 1.523 . S
C446 C430 1.368 . S
C446 C442 1.368 . S
C446 C445 1.523 . S
H447 C422 0.950 . S
H448 C424 0.950 . S
H449 C425 0.949 . S
H450 C427 0.950 . S
H451 C429 0.950 . S
C452 C453 1.349 . S
C452 C454 1.327 . S
C452 H477 0.950 . S
C453 C452 1.349 . S
C453 C469 1.349 . S
C454 C452 1.327 . S
C454 C473 1.429 . S
C454 H478 0.950 . S
C455 C472 1.574 . S
C455 C474 1.368 . S
C455 H479 0.949 . S
H456 C460 0.949 . S
C457 C458 1.349 . S
C457 C459 1.327 . S
C457 H480 0.950 . S
C458 C457 1.349 . S
C458 C470 1.349 . S
C459 C457 1.327 . S
C459 C475 1.429 . S
C459 H481 0.950 . S
C460 H456 0.949 . S
C460 C468 1.574 . S
C460 C476 1.368 . S
H461 C469 0.950 . S
H462 C467 0.950 . S
H463 C468 0.949 . S
H464 C470 0.950 . S
H465 C471 0.950 . S
H466 C472 0.949 . S
C467 H462 0.950 . S
C467 C469 1.327 . S
C467 C473 1.429 . S
C468 C460 1.574 . S
C468 H463 0.949 . S
C468 C474 1.368 . S
C469 C453 1.349 . S
C469 H461 0.950 . S
C469 C467 1.327 . S
C470 C458 1.349 . S
C470 H464 0.950 . S
C470 C471 1.327 . S
C471 H465 0.950 . S
C471 C470 1.327 . S
C471 C475 1.429 . S
C472 C455 1.574 . S
C472 H466 0.949 . S
C472 C476 1.368 . S
C473 C454 1.429 . S
C473 C467 1.429 . S
C473 C474 1.523 . S
C474 C455 1.368 . S
C474 C468 1.368 . S
C474 C473 1.523 . S
C475 C459 1.429 . S
C475 C471 1.429 . S
C475 C476 1.523 . S
C476 C460 1.368 . S
C476 C472 1.368 . S
C476 C475 1.523 . S
H477 C452 0.950 . S
H478 C454 0.950 . S
H479 C455 0.949 . S
H480 C457 0.950 . S
H481 C459 0.950 . S
C482 C483 1.349 . S
C482 C484 1.327 . S
C482 H507 0.950 . S
C483 C482 1.349 . S
C483 C499 1.349 . S
C484 C482 1.327 . S
C484 C503 1.429 . S
C484 H508 0.950 . S
C485 C502 1.574 . S
C485 C504 1.368 . S
C485 H509 0.949 . S
H486 C490 0.949 . S
C487 C488 1.349 . S
C487 C489 1.327 . S
C487 H510 0.950 . S
C488 C487 1.349 . S
C488 C500 1.349 . S
C489 C487 1.327 . S
C489 C505 1.429 . S
C489 H511 0.950 . S
C490 H486 0.949 . S
C490 C498 1.574 . S
C490 C506 1.368 . S
H491 C499 0.950 . S
H492 C497 0.950 . S
H493 C498 0.949 . S
H494 C500 0.950 . S
H495 C501 0.950 . S
H496 C502 0.949 . S
C497 H492 0.950 . S
C497 C499 1.327 . S
C497 C503 1.429 . S
C498 C490 1.574 . S
C498 H493 0.949 . S
C498 C504 1.368 . S
C499 C483 1.349 . S
C499 H491 0.950 . S
C499 C497 1.327 . S
C500 C488 1.349 . S
C500 H494 0.950 . S
C500 C501 1.327 . S
C501 H495 0.950 . S
C501 C500 1.327 . S
C501 C505 1.429 . S
C502 C485 1.574 . S
C502 H496 0.949 . S
C502 C506 1.368 . S
C503 C484 1.429 . S
C503 C497 1.429 . S
C503 C504 1.523 . S
C504 C485 1.368 . S
C504 C498 1.368 . S
C504 C503 1.523 . S
C505 C489 1.429 . S
C505 C501 1.429 . S
C505 C506 1.523 . S
C506 C490 1.368 . S
C506 C502 1.368 . S
C506 C505 1.523 . S
H507 C482 0.950 . S
H508 C484 0.950 . S
H509 C485 0.949 . S
H510 C487 0.950 . S
H511 C489 0.950 . S
C512 C513 1.349 . S
C512 C514 1.327 . S
C512 H537 0.950 . S
C513 C512 1.349 . S
C513 C529 1.349 . S
C514 C512 1.327 . S
C514 C533 1.429 . S
C514 H538 0.950 . S
C515 C532 1.573 1_455 S
C515 C534 1.368 . S
C515 H539 0.949 . S
H516 C520 0.949 . S
C517 C518 1.349 . S
C517 C519 1.327 . S
C517 H540 0.950 . S
C518 C517 1.349 . S
C518 C530 1.349 . S
C519 C517 1.327 . S
C519 C535 1.429 . S
C519 H541 0.950 . S
C520 H516 0.949 . S
C520 C528 1.573 1_655 S
C520 C536 1.368 . S
H521 C529 0.950 . S
H522 C527 0.950 . S
H523 C528 0.947 . S
H524 C530 0.950 . S
H525 C531 0.950 . S
H526 C532 0.947 . S
C527 H522 0.950 . S
C527 C529 1.327 . S
C527 C533 1.429 . S
C528 C520 1.573 1_455 S
C528 H523 0.947 . S
C528 C534 1.372 . S
C529 C513 1.349 . S
C529 H521 0.950 . S
C529 C527 1.327 . S
C530 C518 1.349 . S
C530 H524 0.950 . S
C530 C531 1.327 . S
C531 H525 0.950 . S
C531 C530 1.327 . S
C531 C535 1.429 . S
C532 C515 1.573 1_655 S
C532 H526 0.947 . S
C532 C536 1.372 . S
C533 C514 1.429 . S
C533 C527 1.429 . S
C533 C534 1.523 . S
C534 C515 1.368 . S
C534 C528 1.372 . S
C534 C533 1.523 . S
C535 C519 1.429 . S
C535 C531 1.429 . S
C535 C536 1.523 . S
C536 C520 1.368 . S
C536 C532 1.372 . S
C536 C535 1.523 . S
H537 C512 0.950 . S
H538 C514 0.950 . S
H539 C515 0.949 . S
H540 C517 0.950 . S
H541 C519 0.950 . S
C542 C543 1.349 . S
C542 C544 1.327 . S
C542 H567 0.950 . S
C543 C542 1.349 . S
C543 C559 1.349 . S
C544 C542 1.327 . S
C544 C563 1.429 . S
C544 H568 0.950 1_655 S
C545 C562 1.574 . S
C545 C564 1.368 . S
C545 H569 0.949 . S
H546 C550 0.949 . S
C547 C548 1.349 . S
C547 C549 1.327 . S
C547 H570 0.950 . S
C548 C547 1.349 . S
C548 C560 1.349 . S
C549 C547 1.327 . S
C549 C565 1.429 . S
C549 H571 0.950 1_455 S
C550 H546 0.949 . S
C550 C558 1.574 . S
C550 C566 1.368 . S
H551 C559 0.950 . S
H552 C557 0.950 . S
H553 C558 0.949 . S
H554 C560 0.950 . S
H555 C561 0.950 . S
H556 C562 0.949 . S
C557 H552 0.950 . S
C557 C559 1.327 . S
C557 C563 1.429 . S
C558 C550 1.574 . S
C558 H553 0.949 . S
C558 C564 1.368 1_455 S
C559 C543 1.349 . S
C559 H551 0.950 . S
C559 C557 1.327 . S
C560 C548 1.349 . S
C560 H554 0.950 . S
C560 C561 1.327 . S
C561 H555 0.950 . S
C561 C560 1.327 . S
C561 C565 1.429 . S
C562 C545 1.574 . S
C562 H556 0.949 . S
C562 C566 1.368 1_655 S
C563 C544 1.429 . S
C563 C557 1.429 . S
C563 C564 1.523 . S
C564 C545 1.368 . S
C564 C558 1.368 1_655 S
C564 C563 1.523 . S
C565 C549 1.429 . S
C565 C561 1.429 . S
C565 C566 1.523 . S
C566 C550 1.368 . S
C566 C562 1.368 1_455 S
C566 C565 1.523 . S
H567 C542 0.950 . S
H568 C544 0.950 1_455 S
H569 C545 0.949 . S
H570 C547 0.950 . S
H571 C549 0.950 1_655 S
C572 C573 1.349 . S
C572 C574 1.327 . S
C572 H597 0.950 . S
C573 C572 1.349 . S
C573 C589 1.349 . S
C574 C572 1.327 . S
C574 C593 1.429 . S
C574 H598 0.950 . S
C575 C592 1.573 1_455 S
C575 C594 1.372 . S
C575 H599 0.947 . S
H576 C580 0.947 . S
C577 C578 1.349 . S
C577 C579 1.327 . S
C577 H600 0.950 . S
C578 C577 1.349 . S
C578 C590 1.349 . S
C579 C577 1.327 . S
C579 C595 1.429 . S
C579 H601 0.950 . S
C580 H576 0.947 . S
C580 C588 1.573 1_655 S
C580 C596 1.372 . S
H581 C589 0.950 . S
H582 C587 0.950 . S
H583 C588 0.949 . S
H584 C590 0.950 . S
H585 C591 0.950 . S
H586 C592 0.949 . S
C587 H582 0.950 . S
C587 C589 1.327 . S
C587 C593 1.429 . S
C588 C580 1.573 1_455 S
C588 H583 0.949 . S
C588 C594 1.368 . S
C589 C573 1.349 . S
C589 H581 0.950 . S
C589 C587 1.327 . S
C590 C578 1.349 . S
C590 H584 0.950 . S
C590 C591 1.327 . S
C591 H585 0.950 . S
C591 C590 1.327 . S
C591 C595 1.429 . S
C592 C575 1.573 1_655 S
C592 H586 0.949 . S
C592 C596 1.368 . S
C593 C574 1.429 . S
C593 C587 1.429 . S
C593 C594 1.523 . S
C594 C575 1.372 . S
C594 C588 1.368 . S
C594 C593 1.523 . S
C595 C579 1.429 . S
C595 C591 1.429 . S
C595 C596 1.523 . S
C596 C580 1.372 . S
C596 C592 1.368 . S
C596 C595 1.523 . S
H597 C572 0.950 . S
H598 C574 0.950 . S
H599 C575 0.947 . S
H600 C577 0.950 . S
H601 C579 0.950 . S
C602 C603 1.349 . S
C602 C604 1.327 . S
C602 H627 0.950 . S
C603 C602 1.349 . S
C603 C619 1.349 . S
C604 C602 1.327 . S
C604 C623 1.429 . S
C604 H628 0.950 . S
C605 C622 1.574 . S
C605 C624 1.368 1_655 S
C605 H629 0.949 . S
H606 C610 0.949 . S
C607 C608 1.349 . S
C607 C609 1.327 . S
C607 H630 0.950 . S
C608 C607 1.349 . S
C608 C620 1.349 . S
C609 C607 1.327 . S
C609 C625 1.429 . S
C609 H631 0.950 . S
C610 H606 0.949 . S
C610 C618 1.574 . S
C610 C626 1.368 1_455 S
H611 C619 0.950 . S
H612 C617 0.950 1_655 S
H613 C618 0.949 . S
H614 C620 0.950 . S
H615 C621 0.950 1_455 S
H616 C622 0.949 . S
C617 H612 0.950 1_455 S
C617 C619 1.327 . S
C617 C623 1.429 . S
C618 C610 1.574 . S
C618 H613 0.949 . S
C618 C624 1.368 . S
C619 C603 1.349 . S
C619 H611 0.950 . S
C619 C617 1.327 . S
C620 C608 1.349 . S
C620 H614 0.950 . S
C620 C621 1.327 . S
C621 H615 0.950 1_655 S
C621 C620 1.327 . S
C621 C625 1.429 . S
C622 C605 1.574 . S
C622 H616 0.949 . S
C622 C626 1.368 . S
C623 C604 1.429 . S
C623 C617 1.429 . S
C623 C624 1.523 . S
C624 C605 1.368 1_455 S
C624 C618 1.368 . S
C624 C623 1.523 . S
C625 C609 1.429 . S
C625 C621 1.429 . S
C625 C626 1.523 . S
C626 C610 1.368 1_655 S
C626 C622 1.368 . S
C626 C625 1.523 . S
H627 C602 0.950 . S
H628 C604 0.950 . S
H629 C605 0.949 . S
H630 C607 0.950 . S
H631 C609 0.950 . S
C153 C10 0.664 . S
C158 C27 0.664 . S
C183 C48 0.664 . S
C188 C65 0.664 . S
C213 C103 0.664 . S
C218 C86 0.664 . S
C243 C141 0.664 . S
C248 C124 0.664 . S
C273 C53 1.598 . S
C278 C30 1.597 . S
C303 C144 1.597 . S
C308 C91 1.597 . S
C333 C15 1.598 . S
C338 C68 1.597 . S
C363 C129 1.597 . S
C368 C106 1.597 . S
C393 C132 0.606 . S
C398 C18 0.606 . S
C423 C62 2.036 . S
C428 C100 2.036 . S
C453 C107 0.606 . S
C458 C69 0.606 . S
C483 C12 2.037 . S
C488 C126 2.037 . S
C513 C94 0.606 . S
C518 C56 0.606 . S
C543 C138 2.036 . S
C548 C24 2.036 . S
C573 C31 0.606 . S
C578 C145 0.606 . S
C603 C88 2.037 . S
C608 C50 2.037 . S
