# Generated by pormake.
# Topology unj, (4)-cn, num edge types: 1
# Building blocks:
#     Node 0, Type 0, BuildingBlock: ICAMEG_clean_sbu_1, # of connection points: 4
#     Node 1, Type 0, BuildingBlock: ICAMEG_clean_sbu_1, # of connection points: 4
#     Node 2, Type 0, BuildingBlock: ICAMEG_clean_sbu_1, # of connection points: 4
#     Node 3, Type 0, BuildingBlock: ICAMEG_clean_sbu_1, # of connection points: 4
#     Node 4, Type 0, BuildingBlock: ICAMEG_clean_sbu_1, # of connection points: 4
#     Node 5, Type 0, BuildingBlock: ICAMEG_clean_sbu_1, # of connection points: 4
#     Edge 6, Type (0, 0), BuildingBlock: XUDNAN_clean_linker_2, # of connection points: 2
#     Edge 7, Type (0, 0), BuildingBlock: XUDNAN_clean_linker_2, # of connection points: 2
#     Edge 8, Type (0, 0), BuildingBlock: XUDNAN_clean_linker_2, # of connection points: 2
#     Edge 9, Type (0, 0), BuildingBlock: XUDNAN_clean_linker_2, # of connection points: 2
#     Edge 10, Type (0, 0), BuildingBlock: XUDNAN_clean_linker_2, # of connection points: 2
#     Edge 11, Type (0, 0), BuildingBlock: XUDNAN_clean_linker_2, # of connection points: 2
#     Edge 12, Type (0, 0), BuildingBlock: XUDNAN_clean_linker_2, # of connection points: 2
#     Edge 13, Type (0, 0), BuildingBlock: XUDNAN_clean_linker_2, # of connection points: 2
#     Edge 14, Type (0, 0), BuildingBlock: XUDNAN_clean_linker_2, # of connection points: 2
#     Edge 15, Type (0, 0), BuildingBlock: XUDNAN_clean_linker_2, # of connection points: 2
#     Edge 16, Type (0, 0), BuildingBlock: XUDNAN_clean_linker_2, # of connection points: 2
#     Edge 17, Type (0, 0), BuildingBlock: XUDNAN_clean_linker_2, # of connection points: 2
# Relax obj value: 0.088
# Max RMSD: 0.190
# Mean RMSD: 0.155
data_MOF--net-unj--node1-ICAMEG_clean_sbu_1--edge1-XUDNAN_clean_linker_2
_symmetry_space_group_name_H-M    P1
_symmetry_Int_Tables_number       1
_symmetry_cell_setting            triclinic
loop_
_symmetry_equiv_pos_as_xyz
'x, y, z'
_cell_length_a     31.527263
_cell_length_b     35.073388
_cell_length_c     39.47929
_cell_angle_alpha  90.179971
_cell_angle_beta   90.018034
_cell_angle_gamma 120.34612
loop_
_atom_site_label
_atom_site_type_symbol
_atom_site_fract_x
_atom_site_fract_y
_atom_site_fract_z
_atom_type_partial_charge
Co0 Co 0.57704 0.30534 0.59935 0.0
Co1 Co 0.4717 0.20557 0.6094 0.0
O2 O 0.52366 0.25006 0.58076 0.0
C3 C 0.57691 0.37177 0.55334 0.0
O4 O 0.57087 0.39027 0.58047 0.0
C5 C 0.5033 0.15109 0.57054 0.0
O6 O 0.54888 0.17922 0.57937 0.0
O7 O 0.52157 0.20361 0.63927 0.0
O8 O 0.57774 0.27579 0.64261 0.0
H9 H 0.3904 0.13692 0.71995 0.0
H10 H 0.58884 0.27486 0.53177 0.0
O11 O 0.57786 0.33594 0.55605 0.0
H12 H 0.72376 0.2843 0.60136 0.0
H13 H 0.73907 0.44852 0.5947 0.0
H14 H 0.59629 0.35104 0.66566 0.0
H15 H 0.66536 0.30414 0.62554 0.0
H16 H 0.67162 0.3785 0.57171 0.0
O17 O 0.46866 0.15728 0.58015 0.0
H18 H 0.45482 0.19349 0.68348 0.0
H19 H 0.37859 0.12097 0.59561 0.0
H20 H 0.66305 0.42058 0.68973 0.0
H21 H 0.64685 0.2553 0.50644 0.0
H22 H 0.73509 0.46989 0.65415 0.0
H23 H 0.71482 0.25983 0.54136 0.0
O24 O 0.52818 0.31906 0.6195 0.0
H25 H 0.39634 0.20686 0.49758 0.0
H26 H 0.38319 0.21382 0.62165 0.0
H27 H 0.32236 0.21807 0.58502 0.0
H28 H 0.32861 0.21441 0.5225 0.0
H29 H 0.45671 0.20318 0.53516 0.0
H30 H 0.31361 0.06339 0.63114 0.0
H31 H 0.31916 0.07128 0.69379 0.0
O32 O 0.47238 0.25237 0.63926 0.0
C33 C 0.55881 0.23615 0.65326 0.0
C34 C 0.38747 0.13319 0.69268 0.0
C35 C 0.34441 0.09189 0.64284 0.0
N36 N 0.42027 0.16075 0.63746 0.0
C37 C 0.42376 0.16519 0.6719 0.0
C38 C 0.38138 0.12456 0.62286 0.0
C39 C 0.34754 0.09635 0.67799 0.0
C40 C 0.61862 0.27737 0.54702 0.0
N41 N 0.62387 0.29094 0.58002 0.0
C42 C 0.65123 0.26605 0.53259 0.0
C43 C 0.68931 0.26854 0.5522 0.0
C44 C 0.69433 0.28224 0.58588 0.0
C45 C 0.66103 0.2933 0.59946 0.0
C46 C 0.7079 0.42729 0.61047 0.0
C47 C 0.62756 0.37225 0.65004 0.0
C48 C 0.66959 0.38762 0.59759 0.0
N49 N 0.63012 0.36061 0.61737 0.0
C50 C 0.66523 0.41162 0.6638 0.0
C51 C 0.70564 0.43927 0.64382 0.0
C52 C 0.4915 0.2943 0.63819 0.0
C53 C 0.39316 0.20838 0.52478 0.0
C54 C 0.38632 0.21243 0.59447 0.0
C55 C 0.35168 0.21473 0.57386 0.0
C56 C 0.35519 0.21266 0.53878 0.0
N57 N 0.42334 0.20805 0.58054 0.0
C58 C 0.42715 0.20619 0.54618 0.0
Co59 Co 0.25209 0.44128 0.78552 0.0
Co60 Co 0.28085 0.55007 0.77463 0.0
O61 O 0.27746 0.49537 0.7579 0.0
C62 C 0.3427 0.44902 0.75057 0.0
O63 O 0.35697 0.48856 0.73866 0.0
C64 C 0.24301 0.53931 0.70236 0.0
O65 O 0.24245 0.50197 0.69819 0.0
O66 O 0.21102 0.51669 0.78955 0.0
O67 O 0.19879 0.45021 0.80407 0.0
H68 H 0.25581 0.64225 0.86112 0.0
H69 H 0.26542 0.43563 0.71133 0.0
O70 O 0.30389 0.42868 0.76844 0.0
H71 H 0.08983 0.33161 0.7326 0.0
H72 H 0.20259 0.28283 0.80843 0.0
H73 H 0.21673 0.41888 0.85622 0.0
H74 H 0.14538 0.37405 0.77952 0.0
H75 H 0.23414 0.35001 0.77366 0.0
O76 O 0.25763 0.56085 0.73008 0.0
H77 H 0.25163 0.57474 0.8387 0.0
H78 H 0.31667 0.64027 0.74644 0.0
H79 H 0.18438 0.35223 0.89174 0.0
H80 H 0.21146 0.39319 0.66378 0.0
H81 H 0.17718 0.28359 0.86787 0.0
H82 H 0.12283 0.34084 0.67419 0.0
O83 O 0.29654 0.47555 0.82386 0.0
H84 H 0.42102 0.59566 0.69286 0.0
H85 H 0.37423 0.6178 0.80719 0.0
H86 H 0.46104 0.65997 0.78989 0.0
H87 H 0.48497 0.64924 0.73226 0.0
H88 H 0.3349 0.55364 0.71138 0.0
H89 H 0.32093 0.70832 0.76771 0.0
H90 H 0.29062 0.70967 0.82552 0.0
O91 O 0.30343 0.5422 0.81987 0.0
C92 C 0.18492 0.47854 0.80253 0.0
C93 C 0.26924 0.64212 0.83592 0.0
C94 C 0.30574 0.67917 0.78348 0.0
N95 N 0.28424 0.60364 0.7914 0.0
C96 C 0.26711 0.60402 0.82312 0.0
C97 C 0.30309 0.64049 0.77154 0.0
C98 C 0.28875 0.67992 0.81593 0.0
C99 C 0.22716 0.41257 0.71625 0.0
N100 N 0.20878 0.40743 0.7483 0.0
C101 C 0.19664 0.38877 0.68913 0.0
C102 C 0.14691 0.35948 0.69497 0.0
C103 C 0.12836 0.35435 0.72771 0.0
C104 C 0.15999 0.37872 0.75419 0.0
C105 C 0.20549 0.31253 0.81911 0.0
C106 C 0.21344 0.38906 0.84559 0.0
C107 C 0.22348 0.35073 0.79958 0.0
N108 N 0.22701 0.3883 0.81283 0.0
C109 C 0.19522 0.35146 0.86585 0.0
C110 C 0.19123 0.31297 0.85245 0.0
C111 C 0.31068 0.5142 0.83536 0.0
C112 C 0.41103 0.60083 0.71797 0.0
C113 C 0.38423 0.61266 0.78212 0.0
C114 C 0.43351 0.6368 0.77244 0.0
C115 C 0.4469 0.6308 0.74011 0.0
N116 N 0.34911 0.58344 0.76021 0.0
C117 C 0.3621 0.57729 0.72853 0.0
Co118 Co 0.75796 0.32678 0.92425 0.0
Co119 Co 0.78022 0.24008 0.92316 0.0
O120 O 0.75805 0.27668 0.94607 0.0
C121 C 0.80426 0.36114 0.99218 0.0
O122 O 0.82159 0.33416 0.99192 0.0
C123 C 0.69596 0.14912 0.93525 0.0
O124 O 0.69494 0.14164 0.90255 0.0
O125 O 0.7347 0.22938 0.88441 0.0
O126 O 0.73716 0.29419 0.88023 0.0
H127 H 0.83748 0.18841 0.82369 0.0
H128 H 0.70161 0.28981 0.98751 0.0
O129 O 0.77858 0.36189 0.96757 0.0
H130 H 0.57944 0.27508 0.90257 0.0
H131 H 0.72414 0.45238 0.91687 0.0
H132 H 0.79315 0.37164 0.85813 0.0
H133 H 0.66688 0.30855 0.88724 0.0
H134 H 0.72392 0.38915 0.94424 0.0
O135 O 0.72665 0.1871 0.9473 0.0
H136 H 0.80972 0.23408 0.85309 0.0
H137 H 0.79671 0.16699 0.9453 0.0
H138 H 0.79355 0.4343 0.82967 0.0
H139 H 0.61457 0.2565 1.00402 0.0
H140 H 0.75888 0.47516 0.85909 0.0
H141 H 0.55281 0.24893 0.96137 0.0
O142 O 0.8281 0.3525 0.91166 0.0
H143 H 0.82361 0.24588 0.04641 0.0
H144 H 0.88676 0.26885 0.92959 0.0
H145 H 0.94317 0.28272 0.97729 0.0
H146 H 0.91162 0.27098 0.03625 0.0
H147 H 0.76872 0.23345 0.99796 0.0
H148 H 0.8241 0.12044 0.91686 0.0
H149 H 0.84478 0.13108 0.85563 0.0
O150 O 0.83456 0.29301 0.89938 0.0
C151 C 0.72537 0.25608 0.86876 0.0
C152 C 0.82859 0.18347 0.85038 0.0
C153 C 0.82108 0.14532 0.90268 0.0
N154 N 0.80167 0.20326 0.90087 0.0
C155 C 0.81289 0.20925 0.86717 0.0
C156 C 0.80557 0.17176 0.91863 0.0
C157 C 0.83268 0.15131 0.86832 0.0
C158 C 0.675 0.28693 0.96889 0.0
N159 N 0.68938 0.30141 0.93655 0.0
C160 C 0.62575 0.26791 0.97835 0.0
C161 C 0.5911 0.26362 0.9544 0.0
C162 C 0.60602 0.27827 0.9214 0.0
C163 C 0.65558 0.29711 0.91285 0.0
C164 C 0.73928 0.43479 0.90377 0.0
C165 C 0.77772 0.38908 0.87102 0.0
C166 C 0.73937 0.39903 0.91917 0.0
N167 N 0.75814 0.37649 0.90268 0.0
C168 C 0.77818 0.42462 0.85481 0.0
C169 C 0.75876 0.44755 0.87134 0.0
C170 C 0.85144 0.33473 0.89937 0.0
C171 C 0.83779 0.25104 0.02084 0.0
C172 C 0.87286 0.26433 0.95513 0.0
C173 C 0.90493 0.27191 0.98207 0.0
C174 C 0.88718 0.26522 1.01513 0.0
N175 N 0.82445 0.25052 0.9609 0.0
C176 C 0.80679 0.24379 0.99326 0.0
Co177 Co 0.45305 0.71643 0.10097 0.0
Co178 Co 0.55836 0.81601 0.114 0.0
O179 O 0.50794 0.77206 0.08366 0.0
C180 C 0.45463 0.65004 0.0552 0.0
O181 O 0.45899 0.631 0.08252 0.0
C182 C 0.54295 0.87016 0.06004 0.0
O183 O 0.50972 0.83502 0.04375 0.0
O184 O 0.50661 0.81759 0.14154 0.0
O185 O 0.45027 0.74553 0.14426 0.0
H186 H 0.63045 0.88017 0.22802 0.0
H187 H 0.44322 0.74569 0.03248 0.0
O188 O 0.45418 0.68615 0.05779 0.0
H189 H 0.3069 0.73835 0.09891 0.0
H190 H 0.29079 0.57386 0.09213 0.0
H191 H 0.43011 0.66993 0.16683 0.0
H192 H 0.36448 0.71891 0.12496 0.0
H193 H 0.35964 0.64397 0.07088 0.0
O194 O 0.56387 0.86668 0.08655 0.0
H195 H 0.56911 0.82523 0.18867 0.0
H196 H 0.65278 0.90096 0.10448 0.0
H197 H 0.3619 0.60024 0.18917 0.0
H198 H 0.38597 0.76472 1.00528 0.0
H199 H 0.2916 0.55164 0.1517 0.0
H200 H 0.3173 0.76127 0.0386 0.0
O201 O 0.50044 0.70193 0.12241 0.0
H202 H 0.64127 0.81341 1.00559 0.0
H203 H 0.64671 0.80949 0.13025 0.0
H204 H 0.71055 0.80581 0.09688 0.0
H205 H 0.70831 0.80805 0.03406 0.0
H206 H 0.5779 0.81638 0.03986 0.0
H207 H 0.7148 0.95694 0.14293 0.0
H208 H 0.70394 0.94661 0.20519 0.0
O209 O 0.55548 0.76823 0.14344 0.0
C210 C 0.46868 0.78529 0.15478 0.0
C211 C 0.6357 0.88495 0.20094 0.0
C212 C 0.683 0.92807 0.15319 0.0
N213 N 0.60759 0.85961 0.14432 0.0
C214 C 0.60117 0.85387 0.17853 0.0
C215 C 0.64771 0.8963 0.13154 0.0
C216 C 0.67689 0.92225 0.18811 0.0
C217 C 0.41326 0.74381 0.0471 0.0
N218 N 0.40734 0.73126 0.08029 0.0
C219 C 0.38104 0.75477 0.03158 0.0
C220 C 0.34255 0.75287 0.0503 0.0
C221 C 0.33674 0.74007 0.08415 0.0
C222 C 0.36966 0.72934 0.09882 0.0
C223 C 0.32119 0.59477 0.10871 0.0
C224 C 0.39961 0.64902 0.15039 0.0
C225 C 0.36029 0.6345 0.09682 0.0
N226 N 0.39882 0.66111 0.11763 0.0
C227 C 0.36111 0.60957 0.16317 0.0
C228 C 0.32168 0.58232 0.14214 0.0
C229 C 0.53628 0.72635 0.14195 0.0
C230 C 0.64291 0.81281 0.03295 0.0
C231 C 0.64542 0.81056 0.10292 0.0
C232 C 0.68173 0.80846 0.08416 0.0
C233 C 0.68045 0.8097 0.04893 0.0
N234 N 0.60899 0.81418 0.08711 0.0
C235 C 0.60721 0.81483 0.05255 0.0
Co236 Co 0.78166 0.58595 0.28739 0.0
Co237 Co 0.75606 0.47877 0.27362 0.0
O238 O 0.75727 0.53294 0.25884 0.0
C239 C 0.68982 0.57632 0.25333 0.0
O240 O 0.67678 0.53715 0.24098 0.0
C241 C 0.81019 0.50147 0.20867 0.0
O242 O 0.83451 0.54259 0.2193 0.0
O243 O 0.82616 0.51281 0.28843 0.0
O244 O 0.83602 0.57795 0.30499 0.0
H245 H 0.78554 0.38432 0.35462 0.0
H246 H 0.76773 0.59077 0.21329 0.0
O247 O 0.72864 0.59743 0.27123 0.0
H248 H 0.94209 0.69932 0.23512 0.0
H249 H 0.82696 0.74269 0.31414 0.0
H250 H 0.81743 0.60716 0.35821 0.0
H251 H 0.88731 0.65607 0.28189 0.0
H252 H 0.79677 0.67656 0.2779 0.0
O253 O 0.77766 0.47149 0.22742 0.0
H254 H 0.78718 0.45198 0.33566 0.0
H255 H 0.72239 0.39074 0.24175 0.0
H256 H 0.84848 0.67276 0.39516 0.0
H257 H 0.82096 0.63376 0.16586 0.0
H258 H 0.85337 0.74115 0.37316 0.0
H259 H 0.90894 0.68843 0.17657 0.0
O260 O 0.73797 0.54988 0.32513 0.0
H261 H 0.61606 0.4326 0.19183 0.0
H262 H 0.66311 0.40982 0.30584 0.0
H263 H 0.57628 0.36731 0.28815 0.0
H264 H 0.55226 0.37846 0.23072 0.0
H265 H 0.70241 0.47496 0.21075 0.0
H266 H 0.72062 0.32259 0.25953 0.0
H267 H 0.75212 0.31901 0.31641 0.0
O268 O 0.73409 0.48436 0.31999 0.0
C269 C 0.85119 0.55059 0.30246 0.0
C270 C 0.7716 0.38543 0.32981 0.0
C271 C 0.73521 0.35081 0.27642 0.0
N272 N 0.75457 0.4252 0.28775 0.0
C273 C 0.77229 0.42361 0.31898 0.0
C274 C 0.73643 0.38953 0.26646 0.0
C275 C 0.75287 0.34881 0.30835 0.0
C276 C 0.80567 0.61492 0.21833 0.0
N277 N 0.82413 0.62109 0.25049 0.0
C278 C 0.83579 0.639 0.19129 0.0
C279 C 0.88517 0.66958 0.19729 0.0
C280 C 0.90379 0.67567 0.23012 0.0
C281 C 0.8726 0.65095 0.25652 0.0
C282 C 0.82508 0.71311 0.324 0.0
C283 C 0.81972 0.63688 0.34838 0.0
C284 C 0.80786 0.6755 0.30363 0.0
N285 N 0.80565 0.6381 0.31585 0.0
C286 C 0.83721 0.67388 0.36946 0.0
C287 C 0.8399 0.71223 0.35711 0.0
C288 C 0.72543 0.51136 0.33602 0.0
C289 C 0.62607 0.42741 0.2169 0.0
C290 C 0.65295 0.41523 0.28093 0.0
C291 C 0.60372 0.39087 0.27099 0.0
C292 C 0.59028 0.39709 0.23875 0.0
N293 N 0.68784 0.44498 0.25937 0.0
C294 C 0.67495 0.45116 0.2277 0.0
Co295 Co 0.27862 0.71397 0.42857 0.0
Co296 Co 0.2529 0.79827 0.42228 0.0
O297 O 0.27738 0.76518 0.44723 0.0
C298 C 0.22636 0.68202 0.49366 0.0
O299 O 0.2003 0.70012 0.48499 0.0
C300 C 0.352 0.86882 0.4453 0.0
O301 O 0.37007 0.84508 0.43315 0.0
O302 O 0.29629 0.8056 0.38299 0.0
O303 O 0.29805 0.74233 0.38305 0.0
H304 H 0.18557 0.83603 0.32062 0.0
H305 H 0.33509 0.75737 0.49095 0.0
O306 O 0.25941 0.68427 0.47385 0.0
H307 H 0.45799 0.76879 0.40809 0.0
H308 H 0.31642 0.59066 0.43167 0.0
H309 H 0.24438 0.66247 0.36466 0.0
H310 H 0.3701 0.73138 0.39286 0.0
H311 H 0.31482 0.65559 0.45425 0.0
O312 O 0.30616 0.8549 0.44277 0.0
H313 H 0.21633 0.79447 0.35247 0.0
H314 H 0.23925 0.87432 0.43941 0.0
H315 H 0.24582 0.59801 0.34092 0.0
H316 H 0.42259 0.79476 0.50734 0.0
H317 H 0.28201 0.56163 0.37453 0.0
H318 H 0.48472 0.80075 0.46572 0.0
O319 O 0.20811 0.68528 0.41538 0.0
H320 H 0.21544 0.80026 0.54574 0.0
H321 H 0.14682 0.77024 0.43007 0.0
H322 H 0.09256 0.75898 0.47859 0.0
H323 H 0.12686 0.77411 0.53696 0.0
H324 H 0.26825 0.81055 0.49649 0.0
H325 H 0.20936 0.91712 0.40838 0.0
H326 H 0.18198 0.89788 0.34859 0.0
O327 O 0.19838 0.74251 0.40169 0.0
C328 C 0.30698 0.7785 0.36926 0.0
C329 C 0.19728 0.84466 0.34668 0.0
C330 C 0.21068 0.89021 0.39592 0.0
N331 N 0.22923 0.83175 0.39782 0.0
C332 C 0.21459 0.82117 0.36487 0.0
C333 C 0.22773 0.86595 0.41333 0.0
C334 C 0.19531 0.87938 0.36238 0.0
C335 C 0.36187 0.75949 0.47281 0.0
N336 N 0.34747 0.742 0.44107 0.0
C337 C 0.41138 0.78084 0.48219 0.0
C338 C 0.44623 0.78425 0.45881 0.0
C339 C 0.43126 0.76635 0.42646 0.0
C340 C 0.38145 0.74528 0.41796 0.0
C341 C 0.30065 0.60629 0.41676 0.0
C342 C 0.26052 0.64702 0.37933 0.0
C343 C 0.29953 0.64298 0.42944 0.0
N344 N 0.27992 0.66302 0.41065 0.0
C345 C 0.26107 0.61043 0.3658 0.0
C346 C 0.28135 0.59002 0.38469 0.0
C347 C 0.18314 0.70115 0.40263 0.0
C348 C 0.20008 0.79363 0.52043 0.0
C349 C 0.16195 0.7766 0.45537 0.0
C350 C 0.13109 0.77035 0.48276 0.0
C351 C 0.15037 0.77889 0.51549 0.0
N352 N 0.21065 0.79099 0.46042 0.0
C353 C 0.22984 0.79956 0.49243 0.0
H354 H 0.41251 0.08712 0.54789 0.0
H355 H 0.56639 0.12429 0.54701 0.0
H356 H 0.54504 0.05648 0.5144 0.0
H357 H 0.36326 0.9713 0.55868 0.0
H358 H 0.31087 0.9558 0.53166 0.0
H359 H 0.33868 1.0076 0.55423 0.0
H360 H 0.35069 0.04924 0.49772 0.0
H361 H 0.32286 0.99756 0.47498 0.0
H362 H 0.38339 0.04135 0.4635 0.0
H363 H 0.50568 0.98284 0.48262 0.0
H364 H 0.45239 0.9113 0.45387 0.0
H365 H 0.32494 0.9237 0.4758 0.0
C366 C 0.4419 0.08122 0.54081 0.0
C367 C 0.49122 0.11116 0.55011 0.0
C368 C 0.52836 0.10195 0.54022 0.0
C369 C 0.51656 0.06347 0.5217 0.0
C370 C 0.46748 0.03455 0.51317 0.0
C371 C 0.43081 0.04314 0.52236 0.0
C372 C 0.38088 1.00682 0.51037 0.0
C373 C 0.3464 0.98404 0.54053 0.0
C374 C 0.35813 0.02483 0.48514 0.0
C375 C 0.39502 0.97628 0.49306 0.0
C376 C 0.44509 0.99272 0.4949 0.0
C377 C 0.46646 0.9698 0.48095 0.0
C378 C 0.43587 0.92915 0.46467 0.0
C379 C 0.38444 0.91181 0.46241 0.0
C380 C 0.36408 0.93595 0.47689 0.0
H381 H 0.49517 0.37461 0.63162 0.0
H382 H 0.44023 0.25925 0.69624 0.0
H383 H 0.40278 0.28998 0.73387 0.0
H384 H 0.52018 0.45583 0.69936 0.0
H385 H 0.49921 0.48632 0.67469 0.0
H386 H 0.52564 0.45738 0.65386 0.0
H387 H 0.44735 0.41478 0.61697 0.0
H388 H 0.42073 0.44359 0.63761 0.0
H389 H 0.38825 0.38405 0.63725 0.0
H390 H 0.36807 0.33015 0.76312 0.0
H391 H 0.33395 0.37619 0.78128 0.0
H392 H 0.40841 0.46615 0.69794 0.0
C393 C 0.47584 0.35619 0.65396 0.0
C394 C 0.47084 0.31452 0.66101 0.0
C395 C 0.4445 0.29109 0.69018 0.0
C396 C 0.42327 0.30839 0.71187 0.0
C397 C 0.42839 0.34917 0.7041 0.0
C398 C 0.45374 0.37281 0.67583 0.0
C399 C 0.45071 0.41456 0.67242 0.0
C400 C 0.502 0.45598 0.67526 0.0
C401 C 0.42524 0.4142 0.63909 0.0
C402 C 0.41915 0.41021 0.70293 0.0
C403 C 0.40731 0.3724 0.72094 0.0
C404 C 0.37726 0.35998 0.74937 0.0
C405 C 0.35795 0.38641 0.75943 0.0
C406 C 0.36841 0.42488 0.74109 0.0
C407 C 0.40017 0.43728 0.71273 0.0
H408 H 0.92009 0.31279 0.87916 0.0
H409 H 0.89444 0.42323 0.88506 0.0
H410 H 0.97639 0.47206 0.86046 0.0
H411 H 0.04737 0.37438 0.90317 0.0
H412 H 0.06521 0.34426 0.87516 0.0
H413 H 1.00388 0.31781 0.8922 0.0
H414 H 0.96795 0.29893 0.83138 0.0
H415 H 0.02918 0.32544 0.81415 0.0
H416 H 0.98673 0.34262 0.8008 0.0
H417 H 0.06171 0.509 0.83456 0.0
H418 H 0.14381 0.53103 0.81139 0.0
H419 H 0.11425 0.39699 0.82559 0.0
C420 C 0.93155 0.34722 0.8754 0.0
C421 C 0.90062 0.36404 0.88425 0.0
C422 C 0.91736 0.40943 0.87868 0.0
C423 C 0.96389 0.43749 0.86464 0.0
C424 C 0.99352 0.41985 0.85649 0.0
C425 C 0.97807 0.3758 0.86185 0.0
C426 C 0.01733 0.36523 0.85171 0.0
C427 C 0.03446 0.3495 0.88239 0.0
C428 C 0.9992 0.33103 0.82279 0.0
C429 C 0.05724 0.41018 0.83973 0.0
C430 C 0.04279 0.44124 0.84244 0.0
C431 C 0.07343 0.48493 0.8324 0.0
C432 C 0.12002 0.49713 0.81923 0.0
C433 C 0.1357 0.46582 0.81644 0.0
C434 C 0.10365 0.42186 0.8271 0.0
H435 H 0.54738 0.89623 0.99367 0.0
H436 H 0.57763 0.94557 0.09696 0.0
H437 H 0.61216 0.02174 0.076 0.0
H438 H 0.65821 0.98098 0.9601 0.0
H439 H 0.63283 0.98462 0.92014 0.0
H440 H 0.6043 0.93339 0.94311 0.0
H441 H 0.52143 0.93211 0.94246 0.0
H442 H 0.54974 0.9834 0.91941 0.0
H443 H 0.51868 0.97886 0.95881 0.0
H444 H 0.64871 0.09254 0.04435 0.0
H445 H 0.68882 0.15402 1.00396 0.0
H446 H 0.63838 0.06017 0.92045 0.0
C447 C 0.56015 0.92303 1.01182 0.0
C448 C 0.55924 0.91499 0.04697 0.0
C449 C 0.57771 0.95099 0.06995 0.0
C450 C 0.59723 0.99436 0.05829 0.0
C451 C 0.59844 1.00136 0.02352 0.0
C452 C 0.5806 0.9668 1.00054 0.0
C453 C 0.59057 0.98396 0.96443 0.0
C454 C 0.62343 0.96991 0.94586 0.0
C455 C 0.54221 0.96867 0.94514 0.0
C456 C 0.61751 0.03347 0.9708 0.0
C457 C 0.62096 0.04264 1.00507 0.0
C458 C 0.6459 0.0858 0.01742 0.0
C459 C 0.66864 0.12056 0.99421 0.0
C460 C 0.66676 0.11211 0.95894 0.0
C461 C 0.6401 0.06787 0.94718 0.0
H462 H 0.62497 0.55857 0.20009 0.0
H463 H 0.69422 0.64665 0.28578 0.0
H464 H 0.6572 0.69065 0.26845 0.0
H465 H 0.64392 0.64111 0.14174 0.0
H466 H 0.58601 0.60969 0.11993 0.0
H467 H 0.61331 0.58162 0.14067 0.0
H468 H 0.53399 0.53593 0.17576 0.0
H469 H 0.50632 0.56374 0.15496 0.0
H470 H 0.51004 0.56409 0.20053 0.0
H471 H 0.62059 0.72942 0.2397 0.0
H472 H 0.58323 0.75982 0.2018 0.0
H473 H 0.53515 0.64728 0.13432 0.0
C474 C 0.63134 0.58651 0.2156 0.0
C475 C 0.66245 0.59904 0.24438 0.0
C476 C 0.67065 0.63637 0.26363 0.0
C477 C 0.64966 0.66157 0.25405 0.0
C478 C 0.62026 0.64908 0.2252 0.0
C479 C 0.61065 0.61232 0.2063 0.0
C480 C 0.57994 0.60804 0.17525 0.0
C481 C 0.60745 0.61026 0.14246 0.0
C482 C 0.52957 0.56541 0.17673 0.0
C483 C 0.5749 0.64867 0.17938 0.0
C484 C 0.59835 0.67161 0.20851 0.0
C485 C 0.60152 0.71148 0.21705 0.0
C486 C 0.58036 0.7286 0.19521 0.0
C487 C 0.55606 0.70589 0.16514 0.0
C488 C 0.55283 0.66505 0.15737 0.0
H489 H 0.11225 0.71992 0.38257 0.0
H490 H 0.14267 0.61241 0.38885 0.0
H491 H 0.06141 0.56179 0.3634 0.0
H492 H 0.98446 0.6554 0.40496 0.0
H493 H 0.96622 0.68489 0.37675 0.0
H494 H 0.02705 0.71238 0.39485 0.0
H495 H 0.06467 0.7326 0.33466 0.0
H496 H 1.00397 0.70498 0.31637 0.0
H497 H 0.04807 0.6894 0.3037 0.0
H498 H 0.97632 0.52313 0.33575 0.0
H499 H 0.89437 0.49967 0.31122 0.0
H500 H 0.91999 0.6324 0.32635 0.0
C501 C 0.10199 0.68574 0.37879 0.0
C502 C 0.13405 0.67026 0.38786 0.0
C503 C 0.11881 0.62514 0.38228 0.0
C504 C 0.07272 0.59612 0.36775 0.0
C505 C 0.04207 0.61256 0.35918 0.0
C506 C 0.05604 0.65629 0.36478 0.0
C507 C 1.0162 0.66576 0.35403 0.0
C508 C 0.99737 0.68046 0.38446 0.0
C509 C 0.03432 0.70022 0.32549 0.0
C510 C 0.97764 0.62058 0.34132 0.0
C511 C 0.99318 0.5903 0.34423 0.0
C512 C 0.96377 0.5466 0.33348 0.0
C513 C 0.9173 0.53358 0.31951 0.0
C514 C 0.90053 0.56411 0.31666 0.0
C515 C 0.9314 0.60809 0.32792 0.0
H516 H 0.60953 0.35153 0.49518 0.0
H517 H 0.57737 0.44819 0.53828 0.0
H518 H 0.60915 0.49331 0.48657 0.0
H519 H 0.72185 0.4277 0.4576 0.0
H520 H 0.71356 0.39496 0.42023 0.0
H521 H 0.68453 0.36833 0.45934 0.0
H522 H 0.59957 0.3291 0.42956 0.0
H523 H 0.62843 0.35537 0.39026 0.0
H524 H 0.57907 0.36154 0.40706 0.0
H525 H 0.64997 0.53059 0.43166 0.0
H526 H 0.69338 0.5554 0.37696 0.0
H527 H 0.6985 0.43412 0.37001 0.0
C528 C 0.60824 0.38174 0.49354 0.0
C529 C 0.59069 0.39617 0.52082 0.0
C530 C 0.59044 0.43631 0.51773 0.0
C531 C 0.60847 0.46223 0.48845 0.0
C532 C 0.62653 0.44754 0.46238 0.0
C533 C 0.62617 0.40805 0.46453 0.0
C534 C 0.64946 0.40059 0.43355 0.0
C535 C 0.69505 0.39774 0.44328 0.0
C536 C 0.61188 0.35919 0.41395 0.0
C537 C 0.66352 0.44231 0.41385 0.0
C538 C 0.64991 0.46894 0.43082 0.0
C539 C 0.6604 0.50979 0.41799 0.0
C540 C 0.68522 0.52367 0.38691 0.0
C541 C 0.6993 0.49675 0.36895 0.0
C542 C 0.68809 0.45551 0.38282 0.0
H543 H 0.25464 0.62321 0.51326 0.0
H544 H 0.18237 0.69291 0.54965 0.0
H545 H 0.17477 0.6606 0.60645 0.0
H546 H 0.18037 0.52239 0.56232 0.0
H547 H 0.23137 0.51389 0.56992 0.0
H548 H 0.22947 0.54125 0.53187 0.0
H549 H 0.31487 0.60839 0.54646 0.0
H550 H 0.31706 0.58132 0.58453 0.0
H551 H 0.32414 0.63557 0.58689 0.0
H552 H 0.18221 0.62641 0.66033 0.0
H553 H 0.19866 0.5884 0.70671 0.0
H554 H 0.2607 0.53658 0.63458 0.0
C555 C 0.23686 0.6314 0.53312 0.0
C556 C 0.21915 0.66065 0.52709 0.0
C557 C 0.19596 0.67042 0.55367 0.0
C558 C 0.19157 0.65229 0.58601 0.0
C559 C 0.20982 0.6239 0.59119 0.0
C560 C 0.23144 0.61304 0.56538 0.0
C561 C 0.24849 0.58206 0.5777 0.0
C562 C 0.22076 0.53723 0.55936 0.0
C563 C 0.30446 0.60311 0.57366 0.0
C564 C 0.23397 0.57785 0.61468 0.0
C565 C 0.21194 0.60246 0.62194 0.0
C566 C 0.19856 0.60639 0.65483 0.0
C567 C 0.20812 0.58479 0.68098 0.0
C568 C 0.23014 0.55903 0.67406 0.0
C569 C 0.24268 0.55515 0.6404 0.0
H570 H 0.71449 0.30941 0.82364 0.0
H571 H 0.67673 0.17329 0.83887 0.0
H572 H 0.63002 0.15245 0.78487 0.0
H573 H 0.60041 0.28705 0.78911 0.0
H574 H 0.62774 0.33203 0.75936 0.0
H575 H 0.65859 0.33568 0.79866 0.0
H576 H 0.73635 0.35019 0.76564 0.0
H577 H 0.70579 0.34669 0.72621 0.0
H578 H 0.73136 0.31159 0.73339 0.0
H579 H 0.58357 0.14674 0.72964 0.0
H580 H 0.54683 0.15757 0.67761 0.0
H581 H 0.61897 0.29804 0.69945 0.0
C582 C 0.69664 0.27515 0.81575 0.0
C583 C 0.69919 0.24295 0.83571 0.0
C584 C 0.67538 0.19859 0.82408 0.0
C585 C 0.64867 0.18644 0.79346 0.0
C586 C 0.64655 0.21911 0.77467 0.0
C587 C 0.67038 0.26263 0.78535 0.0
C588 C 0.66284 0.29176 0.76088 0.0
C589 C 0.63578 0.31285 0.77803 0.0
C590 C 0.71201 0.32713 0.74563 0.0
C591 C 0.63083 0.2579 0.73464 0.0
C592 C 0.62139 0.21608 0.74298 0.0
C593 C 0.59116 0.17944 0.72279 0.0
C594 C 0.57035 0.18587 0.69333 0.0
C595 C 0.58031 0.22868 0.68422 0.0
C596 C 0.61103 0.26493 0.70532 0.0
H597 H 0.34046 0.59188 0.8696 0.0
H598 H 0.33927 0.46775 0.87664 0.0
H599 H 0.3814 0.49126 0.93213 0.0
H600 H 0.45939 0.66131 0.90867 0.0
H601 H 0.43978 0.69504 0.9304 0.0
H602 H 0.41183 0.66919 0.89063 0.0
H603 H 0.3258 0.63183 0.91858 0.0
H604 H 0.35341 0.65764 0.95837 0.0
H605 H 0.31452 0.59845 0.95583 0.0
H606 H 0.42113 0.52774 0.98812 0.0
H607 H 0.45186 0.57233 0.04046 0.0
H608 H 0.42637 0.67212 0.99605 0.0
C609 C 0.3493 0.56958 0.88252 0.0
C610 C 0.33664 0.52792 0.8685 0.0
C611 C 0.34864 0.49984 0.88669 0.0
C612 C 0.3727 0.51298 0.91821 0.0
C613 C 0.38454 0.55427 0.9312 0.0
C614 C 0.37308 0.58206 0.91389 0.0
C615 C 0.38784 0.62394 0.9338 0.0
C616 C 0.42705 0.66478 0.91474 0.0
C617 C 0.3427 0.62819 0.94214 0.0
C618 C 0.40899 0.61528 0.96531 0.0
C619 C 0.4071 0.57508 0.96326 0.0
C620 C 0.42304 0.55937 0.98987 0.0
C621 C 0.44052 0.585 0.01951 0.0
C622 C 0.44181 0.62589 0.02241 0.0
C623 C 0.42646 0.64133 0.99461 0.0
H624 H 0.79447 0.33999 0.05949 0.0
H625 H 0.83232 0.44807 0.99019 0.0
H626 H 0.84405 0.4975 0.03863 0.0
H627 H 0.72198 0.36603 0.11327 0.0
H628 H 0.7388 0.34953 0.15183 0.0
H629 H 0.73902 0.3241 0.1122 0.0
H630 H 0.82998 0.34643 0.12197 0.0
H631 H 0.83 0.3719 0.16169 0.0
H632 H 0.8751 0.40356 0.12985 0.0
H633 H 0.85103 0.53491 0.09465 0.0
H634 H 0.84385 0.55556 0.15346 0.0
H635 H 0.79353 0.42123 0.18576 0.0
C636 C 0.80616 0.37431 0.05472 0.0
C637 C 0.81354 0.3907 0.02133 0.0
C638 C 0.8271 0.43525 1.01573 0.0
C639 C 0.83394 0.4635 0.04304 0.0
C640 C 0.82602 0.44636 0.07574 0.0
C641 C 0.81172 0.40263 0.08168 0.0
C642 C 0.80108 0.39149 0.11892 0.0
C643 C 0.74701 0.35567 0.12436 0.0
C644 C 0.83614 0.37753 0.13399 0.0
C645 C 0.81167 0.43573 0.13296 0.0
C646 C 0.82685 0.46715 0.10774 0.0
C647 C 0.83908 0.51057 0.1146 0.0
C648 C 0.83505 0.52204 0.14807 0.0
C649 C 0.81802 0.48999 0.17407 0.0
C650 C 0.80645 0.44638 0.16633 0.0
H651 H 0.31386 0.72139 0.32544 0.0
H652 H 0.35589 0.85919 0.33722 0.0
H653 H 0.40044 0.8762 0.2826 0.0
H654 H 0.42512 0.73879 0.29016 0.0
H655 H 0.39597 0.69264 0.26128 0.0
H656 H 0.36635 0.69152 0.30054 0.0
H657 H 0.28873 0.67774 0.26761 0.0
H658 H 0.31807 0.67873 0.2282 0.0
H659 H 0.29438 0.71544 0.2346 0.0
H660 H 0.44504 0.8783 0.22807 0.0
H661 H 0.48121 0.86472 0.17708 0.0
H662 H 0.40611 0.72486 0.2009 0.0
C663 C 0.33217 0.75519 0.31658 0.0
C664 C 0.33152 0.78902 0.33575 0.0
C665 C 0.35576 0.8327 0.32296 0.0
C666 C 0.38124 0.84267 0.29201 0.0
C667 C 0.38155 0.80849 0.274 0.0
C668 C 0.35713 0.76554 0.28572 0.0
C669 C 0.36301 0.73468 0.26186 0.0
C670 C 0.38918 0.71316 0.27952 0.0
C671 C 0.31307 0.69958 0.2472 0.0
C672 C 0.39516 0.76701 0.23497 0.0
C673 C 0.4057 0.80946 0.24241 0.0
C674 C 0.43653 0.8451 0.22185 0.0
C675 C 0.457 0.83707 0.19298 0.0
C676 C 0.44621 0.79368 0.18478 0.0
C677 C 0.41462 0.75833 0.20611 0.0
loop_
_geom_bond_atom_site_label_1
_geom_bond_atom_site_label_2
_geom_bond_distance
_geom_bond_site_symmetry_2
_ccdc_geom_bond_type
Co0 O2 2.143 . S
Co0 O8 2.074 . S
Co0 O11 2.093 . S
Co0 O24 2.097 . S
Co0 N41 2.151 . S
Co0 N49 2.214 . S
Co1 O2 2.160 . S
Co1 O7 2.058 . S
Co1 O17 2.057 . S
Co1 O32 2.037 . S
Co1 N36 2.145 . S
Co1 N57 2.257 . S
O2 Co0 2.143 . S
O2 Co1 2.160 . S
C3 O4 1.278 . S
C3 O11 1.224 . S
O4 C3 1.278 . S
C5 O6 1.245 . S
C5 O17 1.232 . S
O6 C5 1.245 . S
O7 Co1 2.058 . S
O7 C33 1.269 . S
O8 Co0 2.074 . S
O8 C33 1.257 . S
H9 C34 0.930 . S
H10 C40 0.930 . S
O11 Co0 2.093 . S
O11 C3 1.224 . S
H12 C44 0.929 . S
H13 C46 0.930 . S
H14 C47 0.930 . S
H15 C45 0.929 . S
H16 C48 0.928 . S
O17 Co1 2.057 . S
O17 C5 1.232 . S
H18 C37 0.929 . S
H19 C38 0.929 . S
H20 C50 0.931 . S
H21 C42 0.929 . S
H22 C51 0.930 . S
H23 C43 0.931 . S
O24 Co0 2.097 . S
O24 C52 1.214 . S
H25 C53 0.929 . S
H26 C54 0.929 . S
H27 C55 0.930 . S
H28 C56 0.929 . S
H29 C58 0.930 . S
H30 C35 0.930 . S
H31 C39 0.930 . S
O32 Co1 2.037 . S
O32 C52 1.234 . S
C33 O7 1.269 . S
C33 O8 1.257 . S
C34 H9 0.930 . S
C34 C37 1.388 . S
C34 C39 1.418 . S
C35 H30 0.930 . S
C35 C38 1.404 . S
C35 C39 1.353 . S
N36 Co1 2.145 . S
N36 C37 1.397 . S
N36 C38 1.334 . S
C37 H18 0.929 . S
C37 C34 1.388 . S
C37 N36 1.397 . S
C38 H19 0.929 . S
C38 C35 1.404 . S
C38 N36 1.334 . S
C39 H31 0.930 . S
C39 C34 1.418 . S
C39 C35 1.353 . S
C40 H10 0.930 . S
C40 N41 1.330 . S
C40 C42 1.446 . S
N41 Co0 2.151 . S
N41 C40 1.330 . S
N41 C45 1.418 . S
C42 H21 0.929 . S
C42 C40 1.446 . S
C42 C43 1.332 . S
C43 H23 0.931 . S
C43 C42 1.332 . S
C43 C44 1.267 . S
C44 H12 0.929 . S
C44 C43 1.267 . S
C44 C45 1.251 . S
C45 H15 0.929 . S
C45 N41 1.418 . S
C45 C44 1.251 . S
C46 H13 0.930 . S
C46 C48 1.406 . S
C46 C51 1.261 . S
C47 H14 0.930 . S
C47 N49 1.325 . S
C47 C50 1.357 . S
C48 H16 0.928 . S
C48 C46 1.406 . S
C48 N49 1.261 . S
N49 Co0 2.214 . S
N49 C47 1.325 . S
N49 C48 1.261 . S
C50 H20 0.931 . S
C50 C47 1.357 . S
C50 C51 1.312 . S
C51 H22 0.930 . S
C51 C46 1.261 . S
C51 C50 1.312 . S
C52 O24 1.214 . S
C52 O32 1.234 . S
C53 H25 0.929 . S
C53 C56 1.391 . S
C53 C58 1.391 . S
C54 H26 0.929 . S
C54 C55 1.390 . S
C54 N57 1.391 . S
C55 H27 0.930 . S
C55 C54 1.390 . S
C55 C56 1.392 . S
C56 H28 0.929 . S
C56 C53 1.391 . S
C56 C55 1.392 . S
N57 Co1 2.257 . S
N57 C54 1.391 . S
N57 C58 1.388 . S
C58 H29 0.930 . S
C58 C53 1.391 . S
C58 N57 1.388 . S
Co59 O61 2.143 . S
Co59 O67 2.074 . S
Co59 O70 2.093 . S
Co59 O83 2.097 . S
Co59 N100 2.151 . S
Co59 N108 2.214 . S
Co60 O61 2.160 . S
Co60 O66 2.058 . S
Co60 O76 2.057 . S
Co60 O91 2.037 . S
Co60 N95 2.145 . S
Co60 N116 2.257 . S
O61 Co59 2.143 . S
O61 Co60 2.160 . S
C62 O63 1.278 . S
C62 O70 1.224 . S
O63 C62 1.278 . S
C64 O65 1.245 . S
C64 O76 1.232 . S
O65 C64 1.245 . S
O66 Co60 2.058 . S
O66 C92 1.269 . S
O67 Co59 2.074 . S
O67 C92 1.257 . S
H68 C93 0.930 . S
H69 C99 0.930 . S
O70 Co59 2.093 . S
O70 C62 1.224 . S
H71 C103 0.929 . S
H72 C105 0.930 . S
H73 C106 0.930 . S
H74 C104 0.929 . S
H75 C107 0.928 . S
O76 Co60 2.057 . S
O76 C64 1.232 . S
H77 C96 0.929 . S
H78 C97 0.929 . S
H79 C109 0.931 . S
H80 C101 0.929 . S
H81 C110 0.930 . S
H82 C102 0.931 . S
O83 Co59 2.097 . S
O83 C111 1.214 . S
H84 C112 0.929 . S
H85 C113 0.929 . S
H86 C114 0.930 . S
H87 C115 0.929 . S
H88 C117 0.930 . S
H89 C94 0.930 . S
H90 C98 0.930 . S
O91 Co60 2.037 . S
O91 C111 1.234 . S
C92 O66 1.269 . S
C92 O67 1.257 . S
C93 H68 0.930 . S
C93 C96 1.388 . S
C93 C98 1.418 . S
C94 H89 0.930 . S
C94 C97 1.404 . S
C94 C98 1.353 . S
N95 Co60 2.145 . S
N95 C96 1.397 . S
N95 C97 1.334 . S
C96 H77 0.929 . S
C96 C93 1.388 . S
C96 N95 1.397 . S
C97 H78 0.929 . S
C97 C94 1.404 . S
C97 N95 1.334 . S
C98 H90 0.930 . S
C98 C93 1.418 . S
C98 C94 1.353 . S
C99 H69 0.930 . S
C99 N100 1.330 . S
C99 C101 1.446 . S
N100 Co59 2.151 . S
N100 C99 1.330 . S
N100 C104 1.418 . S
C101 H80 0.929 . S
C101 C99 1.446 . S
C101 C102 1.332 . S
C102 H82 0.931 . S
C102 C101 1.332 . S
C102 C103 1.267 . S
C103 H71 0.929 . S
C103 C102 1.267 . S
C103 C104 1.251 . S
C104 H74 0.929 . S
C104 N100 1.418 . S
C104 C103 1.251 . S
C105 H72 0.930 . S
C105 C107 1.406 . S
C105 C110 1.261 . S
C106 H73 0.930 . S
C106 N108 1.325 . S
C106 C109 1.357 . S
C107 H75 0.928 . S
C107 C105 1.406 . S
C107 N108 1.261 . S
N108 Co59 2.214 . S
N108 C106 1.325 . S
N108 C107 1.261 . S
C109 H79 0.931 . S
C109 C106 1.357 . S
C109 C110 1.312 . S
C110 H81 0.930 . S
C110 C105 1.261 . S
C110 C109 1.312 . S
C111 O83 1.214 . S
C111 O91 1.234 . S
C112 H84 0.929 . S
C112 C115 1.391 . S
C112 C117 1.391 . S
C113 H85 0.929 . S
C113 C114 1.390 . S
C113 N116 1.391 . S
C114 H86 0.930 . S
C114 C113 1.390 . S
C114 C115 1.392 . S
C115 H87 0.929 . S
C115 C112 1.391 . S
C115 C114 1.392 . S
N116 Co60 2.257 . S
N116 C113 1.391 . S
N116 C117 1.388 . S
C117 H88 0.930 . S
C117 C112 1.391 . S
C117 N116 1.388 . S
Co118 O120 2.143 . S
Co118 O126 2.074 . S
Co118 O129 2.093 . S
Co118 O142 2.097 . S
Co118 N159 2.151 . S
Co118 N167 2.214 . S
Co119 O120 2.160 . S
Co119 O125 2.058 . S
Co119 O135 2.057 . S
Co119 O150 2.037 . S
Co119 N154 2.145 . S
Co119 N175 2.257 . S
O120 Co118 2.143 . S
O120 Co119 2.160 . S
C121 O122 1.278 . S
C121 O129 1.224 . S
O122 C121 1.278 . S
C123 O124 1.245 . S
C123 O135 1.232 . S
O124 C123 1.245 . S
O125 Co119 2.058 . S
O125 C151 1.269 . S
O126 Co118 2.074 . S
O126 C151 1.257 . S
H127 C152 0.930 . S
H128 C158 0.930 . S
O129 Co118 2.093 . S
O129 C121 1.224 . S
H130 C162 0.929 . S
H131 C164 0.930 . S
H132 C165 0.930 . S
H133 C163 0.929 . S
H134 C166 0.928 . S
O135 Co119 2.057 . S
O135 C123 1.232 . S
H136 C155 0.929 . S
H137 C156 0.929 . S
H138 C168 0.931 . S
H139 C160 0.929 . S
H140 C169 0.930 . S
H141 C161 0.931 . S
O142 Co118 2.097 . S
O142 C170 1.214 . S
H143 C171 0.960 . S
H144 C172 0.929 . S
H145 C173 0.930 . S
H146 C174 0.929 1_554 S
H147 C176 0.930 . S
H148 C153 0.930 . S
H149 C157 0.930 . S
O150 Co119 2.037 . S
O150 C170 1.234 . S
C151 O125 1.269 . S
C151 O126 1.257 . S
C152 H127 0.930 . S
C152 C155 1.388 . S
C152 C157 1.418 . S
C153 H148 0.930 . S
C153 C156 1.404 . S
C153 C157 1.353 . S
N154 Co119 2.145 . S
N154 C155 1.397 . S
N154 C156 1.334 . S
C155 H136 0.929 . S
C155 C152 1.388 . S
C155 N154 1.397 . S
C156 H137 0.929 . S
C156 C153 1.404 . S
C156 N154 1.334 . S
C157 H149 0.930 . S
C157 C152 1.418 . S
C157 C153 1.353 . S
C158 H128 0.930 . S
C158 N159 1.330 . S
C158 C160 1.446 . S
N159 Co118 2.151 . S
N159 C158 1.330 . S
N159 C163 1.418 . S
C160 H139 0.929 . S
C160 C158 1.446 . S
C160 C161 1.332 . S
C161 H141 0.931 . S
C161 C160 1.332 . S
C161 C162 1.267 . S
C162 H130 0.929 . S
C162 C161 1.267 . S
C162 C163 1.251 . S
C163 H133 0.929 . S
C163 N159 1.418 . S
C163 C162 1.251 . S
C164 H131 0.930 . S
C164 C166 1.406 . S
C164 C169 1.261 . S
C165 H132 0.930 . S
C165 N167 1.325 . S
C165 C168 1.357 . S
C166 H134 0.928 . S
C166 C164 1.406 . S
C166 N167 1.261 . S
N167 Co118 2.214 . S
N167 C165 1.325 . S
N167 C166 1.261 . S
C168 H138 0.931 . S
C168 C165 1.357 . S
C168 C169 1.312 . S
C169 H140 0.930 . S
C169 C164 1.261 . S
C169 C168 1.312 . S
C170 O142 1.214 . S
C170 O150 1.234 . S
C171 H143 0.960 . S
C171 C174 1.384 1_554 S
C171 C176 1.368 1_554 S
C172 H144 0.929 . S
C172 C173 1.390 . S
C172 N175 1.391 . S
C173 H145 0.930 . S
C173 C172 1.390 . S
C173 C174 1.392 . S
C174 H146 0.929 1_556 S
C174 C171 1.384 1_556 S
C174 C173 1.392 . S
N175 Co119 2.257 . S
N175 C172 1.391 . S
N175 C176 1.388 . S
C176 H147 0.930 . S
C176 C171 1.368 1_556 S
C176 N175 1.388 . S
Co177 O179 2.143 . S
Co177 O185 2.074 . S
Co177 O188 2.093 . S
Co177 O201 2.097 . S
Co177 N218 2.151 . S
Co177 N226 2.214 . S
Co178 O179 2.160 . S
Co178 O184 2.058 . S
Co178 O194 2.057 . S
Co178 O209 2.037 . S
Co178 N213 2.145 . S
Co178 N234 2.257 . S
O179 Co177 2.143 . S
O179 Co178 2.160 . S
C180 O181 1.278 . S
C180 O188 1.224 . S
O181 C180 1.278 . S
C182 O183 1.245 . S
C182 O194 1.232 . S
O183 C182 1.245 . S
O184 Co178 2.058 . S
O184 C210 1.269 . S
O185 Co177 2.074 . S
O185 C210 1.257 . S
H186 C211 0.930 . S
H187 C217 0.930 . S
O188 Co177 2.093 . S
O188 C180 1.224 . S
H189 C221 0.929 . S
H190 C223 0.930 . S
H191 C224 0.930 . S
H192 C222 0.929 . S
H193 C225 0.928 . S
O194 Co178 2.057 . S
O194 C182 1.232 . S
H195 C214 0.929 . S
H196 C215 0.929 . S
H197 C227 0.931 . S
H198 C219 0.929 . S
H199 C228 0.930 . S
H200 C220 0.931 . S
O201 Co177 2.097 . S
O201 C229 1.214 . S
H202 C230 0.929 1_556 S
H203 C231 0.929 . S
H204 C232 0.930 . S
H205 C233 0.929 1_556 S
H206 C235 0.930 . S
H207 C212 0.930 . S
H208 C216 0.930 . S
O209 Co178 2.037 . S
O209 C229 1.234 . S
C210 O184 1.269 . S
C210 O185 1.257 . S
C211 H186 0.930 . S
C211 C214 1.388 . S
C211 C216 1.418 . S
C212 H207 0.930 . S
C212 C215 1.404 . S
C212 C216 1.353 . S
N213 Co178 2.145 . S
N213 C214 1.397 . S
N213 C215 1.334 . S
C214 H195 0.929 . S
C214 C211 1.388 . S
C214 N213 1.397 . S
C215 H196 0.929 . S
C215 C212 1.404 . S
C215 N213 1.334 . S
C216 H208 0.930 . S
C216 C211 1.418 . S
C216 C212 1.353 . S
C217 H187 0.930 . S
C217 N218 1.330 . S
C217 C219 1.446 . S
N218 Co177 2.151 . S
N218 C217 1.330 . S
N218 C222 1.418 . S
C219 H198 0.929 . S
C219 C217 1.446 . S
C219 C220 1.332 . S
C220 H200 0.931 . S
C220 C219 1.332 . S
C220 C221 1.267 . S
C221 H189 0.929 . S
C221 C220 1.267 . S
C221 C222 1.251 . S
C222 H192 0.929 . S
C222 N218 1.418 . S
C222 C221 1.251 . S
C223 H190 0.930 . S
C223 C225 1.406 . S
C223 C228 1.261 . S
C224 H191 0.930 . S
C224 N226 1.325 . S
C224 C227 1.357 . S
C225 H193 0.928 . S
C225 C223 1.406 . S
C225 N226 1.261 . S
N226 Co177 2.214 . S
N226 C224 1.325 . S
N226 C225 1.261 . S
C227 H197 0.931 . S
C227 C224 1.357 . S
C227 C228 1.312 . S
C228 H199 0.930 . S
C228 C223 1.261 . S
C228 C227 1.312 . S
C229 O201 1.214 . S
C229 O209 1.234 . S
C230 H202 0.929 1_554 S
C230 C233 1.391 . S
C230 C235 1.391 . S
C231 H203 0.929 . S
C231 C232 1.390 . S
C231 N234 1.391 . S
C232 H204 0.930 . S
C232 C231 1.390 . S
C232 C233 1.392 . S
C233 H205 0.929 1_554 S
C233 C230 1.391 . S
C233 C232 1.392 . S
N234 Co178 2.257 . S
N234 C231 1.391 . S
N234 C235 1.388 . S
C235 H206 0.930 . S
C235 C230 1.391 . S
C235 N234 1.388 . S
Co236 O238 2.143 . S
Co236 O244 2.074 . S
Co236 O247 2.093 . S
Co236 O260 2.097 . S
Co236 N277 2.151 . S
Co236 N285 2.214 . S
Co237 O238 2.160 . S
Co237 O243 2.058 . S
Co237 O253 2.057 . S
Co237 O268 2.037 . S
Co237 N272 2.145 . S
Co237 N293 2.257 . S
O238 Co236 2.143 . S
O238 Co237 2.160 . S
C239 O240 1.278 . S
C239 O247 1.224 . S
O240 C239 1.278 . S
C241 O242 1.245 . S
C241 O253 1.232 . S
O242 C241 1.245 . S
O243 Co237 2.058 . S
O243 C269 1.269 . S
O244 Co236 2.074 . S
O244 C269 1.257 . S
H245 C270 0.930 . S
H246 C276 0.930 . S
O247 Co236 2.093 . S
O247 C239 1.224 . S
H248 C280 0.929 . S
H249 C282 0.930 . S
H250 C283 0.930 . S
H251 C281 0.929 . S
H252 C284 0.928 . S
O253 Co237 2.057 . S
O253 C241 1.232 . S
H254 C273 0.929 . S
H255 C274 0.929 . S
H256 C286 0.931 . S
H257 C278 0.929 . S
H258 C287 0.930 . S
H259 C279 0.931 . S
O260 Co236 2.097 . S
O260 C288 1.214 . S
H261 C289 0.929 . S
H262 C290 0.929 . S
H263 C291 0.930 . S
H264 C292 0.929 . S
H265 C294 0.930 . S
H266 C271 0.930 . S
H267 C275 0.930 . S
O268 Co237 2.037 . S
O268 C288 1.234 . S
C269 O243 1.269 . S
C269 O244 1.257 . S
C270 H245 0.930 . S
C270 C273 1.388 . S
C270 C275 1.418 . S
C271 H266 0.930 . S
C271 C274 1.404 . S
C271 C275 1.353 . S
N272 Co237 2.145 . S
N272 C273 1.397 . S
N272 C274 1.334 . S
C273 H254 0.929 . S
C273 C270 1.388 . S
C273 N272 1.397 . S
C274 H255 0.929 . S
C274 C271 1.404 . S
C274 N272 1.334 . S
C275 H267 0.930 . S
C275 C270 1.418 . S
C275 C271 1.353 . S
C276 H246 0.930 . S
C276 N277 1.330 . S
C276 C278 1.446 . S
N277 Co236 2.151 . S
N277 C276 1.330 . S
N277 C281 1.418 . S
C278 H257 0.929 . S
C278 C276 1.446 . S
C278 C279 1.332 . S
C279 H259 0.931 . S
C279 C278 1.332 . S
C279 C280 1.267 . S
C280 H248 0.929 . S
C280 C279 1.267 . S
C280 C281 1.251 . S
C281 H251 0.929 . S
C281 N277 1.418 . S
C281 C280 1.251 . S
C282 H249 0.930 . S
C282 C284 1.406 . S
C282 C287 1.261 . S
C283 H250 0.930 . S
C283 N285 1.325 . S
C283 C286 1.357 . S
C284 H252 0.928 . S
C284 C282 1.406 . S
C284 N285 1.261 . S
N285 Co236 2.214 . S
N285 C283 1.325 . S
N285 C284 1.261 . S
C286 H256 0.931 . S
C286 C283 1.357 . S
C286 C287 1.312 . S
C287 H258 0.930 . S
C287 C282 1.261 . S
C287 C286 1.312 . S
C288 O260 1.214 . S
C288 O268 1.234 . S
C289 H261 0.929 . S
C289 C292 1.391 . S
C289 C294 1.391 . S
C290 H262 0.929 . S
C290 C291 1.390 . S
C290 N293 1.391 . S
C291 H263 0.930 . S
C291 C290 1.390 . S
C291 C292 1.392 . S
C292 H264 0.929 . S
C292 C289 1.391 . S
C292 C291 1.392 . S
N293 Co237 2.257 . S
N293 C290 1.391 . S
N293 C294 1.388 . S
C294 H265 0.930 . S
C294 C289 1.391 . S
C294 N293 1.388 . S
Co295 O297 2.143 . S
Co295 O303 2.074 . S
Co295 O306 2.093 . S
Co295 O319 2.097 . S
Co295 N336 2.151 . S
Co295 N344 2.214 . S
Co296 O297 2.160 . S
Co296 O302 2.058 . S
Co296 O312 2.057 . S
Co296 O327 2.037 . S
Co296 N331 2.145 . S
Co296 N352 2.257 . S
O297 Co295 2.143 . S
O297 Co296 2.160 . S
C298 O299 1.278 . S
C298 O306 1.224 . S
O299 C298 1.278 . S
C300 O301 1.245 . S
C300 O312 1.232 . S
O301 C300 1.245 . S
O302 Co296 2.058 . S
O302 C328 1.269 . S
O303 Co295 2.074 . S
O303 C328 1.257 . S
H304 C329 0.930 . S
H305 C335 0.930 . S
O306 Co295 2.093 . S
O306 C298 1.224 . S
H307 C339 0.929 . S
H308 C341 0.930 . S
H309 C342 0.930 . S
H310 C340 0.929 . S
H311 C343 0.928 . S
O312 Co296 2.057 . S
O312 C300 1.232 . S
H313 C332 0.929 . S
H314 C333 0.929 . S
H315 C345 0.931 . S
H316 C337 0.929 . S
H317 C346 0.930 . S
H318 C338 0.931 . S
O319 Co295 2.097 . S
O319 C347 1.214 . S
H320 C348 0.929 . S
H321 C349 0.929 . S
H322 C350 0.930 . S
H323 C351 0.929 . S
H324 C353 0.930 . S
H325 C330 0.930 . S
H326 C334 0.930 . S
O327 Co296 2.037 . S
O327 C347 1.234 . S
C328 O302 1.269 . S
C328 O303 1.257 . S
C329 H304 0.930 . S
C329 C332 1.388 . S
C329 C334 1.418 . S
C330 H325 0.930 . S
C330 C333 1.404 . S
C330 C334 1.353 . S
N331 Co296 2.145 . S
N331 C332 1.397 . S
N331 C333 1.334 . S
C332 H313 0.929 . S
C332 C329 1.388 . S
C332 N331 1.397 . S
C333 H314 0.929 . S
C333 C330 1.404 . S
C333 N331 1.334 . S
C334 H326 0.930 . S
C334 C329 1.418 . S
C334 C330 1.353 . S
C335 H305 0.930 . S
C335 N336 1.330 . S
C335 C337 1.446 . S
N336 Co295 2.151 . S
N336 C335 1.330 . S
N336 C340 1.418 . S
C337 H316 0.929 . S
C337 C335 1.446 . S
C337 C338 1.332 . S
C338 H318 0.931 . S
C338 C337 1.332 . S
C338 C339 1.267 . S
C339 H307 0.929 . S
C339 C338 1.267 . S
C339 C340 1.251 . S
C340 H310 0.929 . S
C340 N336 1.418 . S
C340 C339 1.251 . S
C341 H308 0.930 . S
C341 C343 1.406 . S
C341 C346 1.261 . S
C342 H309 0.930 . S
C342 N344 1.325 . S
C342 C345 1.357 . S
C343 H311 0.928 . S
C343 C341 1.406 . S
C343 N344 1.261 . S
N344 Co295 2.214 . S
N344 C342 1.325 . S
N344 C343 1.261 . S
C345 H315 0.931 . S
C345 C342 1.357 . S
C345 C346 1.312 . S
C346 H317 0.930 . S
C346 C341 1.261 . S
C346 C345 1.312 . S
C347 O319 1.214 . S
C347 O327 1.234 . S
C348 H320 0.929 . S
C348 C351 1.391 . S
C348 C353 1.391 . S
C349 H321 0.929 . S
C349 C350 1.390 . S
C349 N352 1.391 . S
C350 H322 0.930 . S
C350 C349 1.390 . S
C350 C351 1.392 . S
C351 H323 0.929 . S
C351 C348 1.391 . S
C351 C350 1.392 . S
N352 Co296 2.257 . S
N352 C349 1.391 . S
N352 C353 1.388 . S
C353 H324 0.930 . S
C353 C348 1.391 . S
C353 N352 1.388 . S
H354 C366 0.930 . S
H355 C368 0.930 . S
H356 C369 0.930 . S
H357 C373 0.959 . S
H358 C373 0.959 . S
H359 C373 0.961 . S
H360 C374 0.960 . S
H361 C374 0.961 . S
H362 C374 0.959 . S
H363 C377 0.929 . S
H364 C378 0.931 . S
H365 C380 0.930 . S
C366 H354 0.930 . S
C366 C367 1.399 . S
C366 C371 1.399 . S
C367 C366 1.399 . S
C367 C368 1.376 . S
C368 H355 0.930 . S
C368 C367 1.376 . S
C368 C369 1.388 . S
C369 H356 0.930 . S
C369 C368 1.388 . S
C369 C370 1.390 . S
C370 C369 1.390 . S
C370 C371 1.394 . S
C370 C376 1.465 1_545 S
C371 C366 1.399 . S
C371 C370 1.394 . S
C371 C372 1.516 1_545 S
C372 C371 1.516 1_565 S
C372 C373 1.502 . S
C372 C374 1.561 . S
C372 C375 1.526 . S
C373 H357 0.959 . S
C373 H358 0.959 . S
C373 H359 0.961 . S
C373 C372 1.502 . S
C374 H360 0.960 . S
C374 H361 0.961 . S
C374 H362 0.959 . S
C374 C372 1.561 . S
C375 C372 1.526 . S
C375 C376 1.396 . S
C375 C380 1.390 . S
C376 C370 1.465 1_565 S
C376 C375 1.396 . S
C376 C377 1.399 . S
C377 H363 0.929 . S
C377 C376 1.399 . S
C377 C378 1.385 . S
C378 H364 0.931 . S
C378 C377 1.385 . S
C378 C379 1.389 . S
C379 C378 1.389 . S
C379 C380 1.387 . S
C380 H365 0.930 . S
C380 C375 1.390 . S
C380 C379 1.387 . S
H381 C393 0.930 . S
H382 C395 0.930 . S
H383 C396 0.930 . S
H384 C400 0.959 . S
H385 C400 0.959 . S
H386 C400 0.961 . S
H387 C401 0.960 . S
H388 C401 0.961 . S
H389 C401 0.959 . S
H390 C404 0.929 . S
H391 C405 0.931 . S
H392 C407 0.930 . S
C393 H381 0.930 . S
C393 C394 1.399 . S
C393 C398 1.399 . S
C394 C393 1.399 . S
C394 C395 1.376 . S
C395 H382 0.930 . S
C395 C394 1.376 . S
C395 C396 1.388 . S
C396 H383 0.930 . S
C396 C395 1.388 . S
C396 C397 1.390 . S
C397 C396 1.390 . S
C397 C398 1.394 . S
C397 C403 1.465 . S
C398 C393 1.399 . S
C398 C397 1.394 . S
C398 C399 1.516 . S
C399 C398 1.516 . S
C399 C400 1.502 . S
C399 C401 1.561 . S
C399 C402 1.526 . S
C400 H384 0.959 . S
C400 H385 0.959 . S
C400 H386 0.961 . S
C400 C399 1.502 . S
C401 H387 0.960 . S
C401 H388 0.961 . S
C401 H389 0.959 . S
C401 C399 1.561 . S
C402 C399 1.526 . S
C402 C403 1.396 . S
C402 C407 1.390 . S
C403 C397 1.465 . S
C403 C402 1.396 . S
C403 C404 1.399 . S
C404 H390 0.929 . S
C404 C403 1.399 . S
C404 C405 1.385 . S
C405 H391 0.931 . S
C405 C404 1.385 . S
C405 C406 1.389 . S
C406 C405 1.389 . S
C406 C407 1.387 . S
C407 H392 0.930 . S
C407 C402 1.390 . S
C407 C406 1.387 . S
H408 C420 0.930 . S
H409 C422 0.930 . S
H410 C423 0.930 . S
H411 C427 0.959 . S
H412 C427 0.959 . S
H413 C427 0.961 . S
H414 C428 0.960 . S
H415 C428 0.961 . S
H416 C428 0.959 . S
H417 C431 0.929 . S
H418 C432 0.931 . S
H419 C434 0.930 . S
C420 H408 0.930 . S
C420 C421 1.399 . S
C420 C425 1.399 . S
C421 C420 1.399 . S
C421 C422 1.376 . S
C422 H409 0.930 . S
C422 C421 1.376 . S
C422 C423 1.388 . S
C423 H410 0.930 . S
C423 C422 1.388 . S
C423 C424 1.390 . S
C424 C423 1.390 . S
C424 C425 1.394 . S
C424 C430 1.465 1_655 S
C425 C420 1.399 . S
C425 C424 1.394 . S
C425 C426 1.516 . S
C426 C425 1.516 . S
C426 C427 1.502 . S
C426 C428 1.561 . S
C426 C429 1.526 1_655 S
C427 H411 0.959 . S
C427 H412 0.959 . S
C427 H413 0.961 . S
C427 C426 1.502 . S
C428 H414 0.960 . S
C428 H415 0.961 . S
C428 H416 0.959 . S
C428 C426 1.561 . S
C429 C426 1.526 1_455 S
C429 C430 1.396 . S
C429 C434 1.390 . S
C430 C424 1.465 1_455 S
C430 C429 1.396 . S
C430 C431 1.399 . S
C431 H417 0.929 . S
C431 C430 1.399 . S
C431 C432 1.385 . S
C432 H418 0.931 . S
C432 C431 1.385 . S
C432 C433 1.389 . S
C433 C432 1.389 . S
C433 C434 1.387 . S
C434 H419 0.930 . S
C434 C429 1.390 . S
C434 C433 1.387 . S
H435 C447 0.930 . S
H436 C449 0.930 . S
H437 C450 0.930 . S
H438 C454 0.959 . S
H439 C454 0.959 . S
H440 C454 0.961 . S
H441 C455 0.960 . S
H442 C455 0.961 1_545 S
H443 C455 0.959 1_544 S
H444 C458 0.929 . S
H445 C459 0.931 . S
H446 C461 0.930 . S
C447 H435 0.930 . S
C447 C448 1.399 . S
C447 C452 1.399 . S
C448 C447 1.399 . S
C448 C449 1.376 . S
C449 H436 0.930 . S
C449 C448 1.376 . S
C449 C450 1.388 . S
C450 H437 0.930 . S
C450 C449 1.388 . S
C450 C451 1.390 . S
C451 C450 1.390 . S
C451 C452 1.394 . S
C451 C457 1.465 1_565 S
C452 C447 1.399 . S
C452 C451 1.394 . S
C452 C453 1.516 1_554 S
C453 C452 1.516 1_556 S
C453 C454 1.502 . S
C453 C455 1.561 . S
C453 C456 1.526 1_565 S
C454 H438 0.959 . S
C454 H439 0.959 . S
C454 H440 0.961 . S
C454 C453 1.502 . S
C455 H441 0.960 . S
C455 H442 0.961 1_565 S
C455 H443 0.959 1_566 S
C455 C453 1.561 . S
C456 C453 1.526 1_545 S
C456 C457 1.396 1_556 S
C456 C461 1.390 . S
C457 C451 1.465 1_545 S
C457 C456 1.396 1_554 S
C457 C458 1.399 . S
C458 H444 0.929 . S
C458 C457 1.399 . S
C458 C459 1.385 1_554 S
C459 H445 0.931 . S
C459 C458 1.385 1_556 S
C459 C460 1.389 . S
C460 C459 1.389 . S
C460 C461 1.387 . S
C461 H446 0.930 . S
C461 C456 1.390 . S
C461 C460 1.387 . S
H462 C474 0.930 . S
H463 C476 0.930 . S
H464 C477 0.930 . S
H465 C481 0.959 . S
H466 C481 0.959 . S
H467 C481 0.961 . S
H468 C482 0.960 . S
H469 C482 0.961 . S
H470 C482 0.959 . S
H471 C485 0.929 . S
H472 C486 0.931 . S
H473 C488 0.930 . S
C474 H462 0.930 . S
C474 C475 1.399 . S
C474 C479 1.399 . S
C475 C474 1.399 . S
C475 C476 1.376 . S
C476 H463 0.930 . S
C476 C475 1.376 . S
C476 C477 1.388 . S
C477 H464 0.930 . S
C477 C476 1.388 . S
C477 C478 1.390 . S
C478 C477 1.390 . S
C478 C479 1.394 . S
C478 C484 1.465 . S
C479 C474 1.399 . S
C479 C478 1.394 . S
C479 C480 1.516 . S
C480 C479 1.516 . S
C480 C481 1.502 . S
C480 C482 1.561 . S
C480 C483 1.526 . S
C481 H465 0.959 . S
C481 H466 0.959 . S
C481 H467 0.961 . S
C481 C480 1.502 . S
C482 H468 0.960 . S
C482 H469 0.961 . S
C482 H470 0.959 . S
C482 C480 1.561 . S
C483 C480 1.526 . S
C483 C484 1.396 . S
C483 C488 1.390 . S
C484 C478 1.465 . S
C484 C483 1.396 . S
C484 C485 1.399 . S
C485 H471 0.929 . S
C485 C484 1.399 . S
C485 C486 1.385 . S
C486 H472 0.931 . S
C486 C485 1.385 . S
C486 C487 1.389 . S
C487 C486 1.389 . S
C487 C488 1.387 . S
C488 H473 0.930 . S
C488 C483 1.390 . S
C488 C487 1.387 . S
H489 C501 0.930 . S
H490 C503 0.930 . S
H491 C504 0.930 . S
H492 C508 0.959 . S
H493 C508 0.959 . S
H494 C508 0.961 1_455 S
H495 C509 0.960 . S
H496 C509 0.961 . S
H497 C509 0.959 . S
H498 C512 0.929 . S
H499 C513 0.931 . S
H500 C515 0.930 . S
C501 H489 0.930 . S
C501 C502 1.399 . S
C501 C506 1.399 . S
C502 C501 1.399 . S
C502 C503 1.376 . S
C503 H490 0.930 . S
C503 C502 1.376 . S
C503 C504 1.388 . S
C504 H491 0.930 . S
C504 C503 1.388 . S
C504 C505 1.390 . S
C505 C504 1.390 . S
C505 C506 1.394 . S
C505 C511 1.465 1_455 S
C506 C501 1.399 . S
C506 C505 1.394 . S
C506 C507 1.516 . S
C507 C506 1.516 . S
C507 C508 1.502 1_455 S
C507 C509 1.561 . S
C507 C510 1.526 1_455 S
C508 H492 0.959 . S
C508 H493 0.959 . S
C508 H494 0.961 1_655 S
C508 C507 1.502 1_655 S
C509 H495 0.960 . S
C509 H496 0.961 . S
C509 H497 0.959 . S
C509 C507 1.561 . S
C510 C507 1.526 1_655 S
C510 C511 1.396 . S
C510 C515 1.390 . S
C511 C505 1.465 1_655 S
C511 C510 1.396 . S
C511 C512 1.399 . S
C512 H498 0.929 . S
C512 C511 1.399 . S
C512 C513 1.385 . S
C513 H499 0.931 . S
C513 C512 1.385 . S
C513 C514 1.389 . S
C514 C513 1.389 . S
C514 C515 1.387 . S
C515 H500 0.930 . S
C515 C510 1.390 . S
C515 C514 1.387 . S
H516 C528 0.930 . S
H517 C530 0.930 . S
H518 C531 0.930 . S
H519 C535 0.959 . S
H520 C535 0.959 . S
H521 C535 0.961 . S
H522 C536 0.960 . S
H523 C536 0.961 . S
H524 C536 0.959 . S
H525 C539 0.929 . S
H526 C540 0.931 . S
H527 C542 0.930 . S
C528 H516 0.930 . S
C528 C529 1.399 . S
C528 C533 1.399 . S
C529 C528 1.399 . S
C529 C530 1.376 . S
C530 H517 0.930 . S
C530 C529 1.376 . S
C530 C531 1.388 . S
C531 H518 0.930 . S
C531 C530 1.388 . S
C531 C532 1.390 . S
C532 C531 1.390 . S
C532 C533 1.394 . S
C532 C538 1.465 . S
C533 C528 1.399 . S
C533 C532 1.394 . S
C533 C534 1.516 . S
C534 C533 1.516 . S
C534 C535 1.502 . S
C534 C536 1.561 . S
C534 C537 1.526 . S
C535 H519 0.959 . S
C535 H520 0.959 . S
C535 H521 0.961 . S
C535 C534 1.502 . S
C536 H522 0.960 . S
C536 H523 0.961 . S
C536 H524 0.959 . S
C536 C534 1.561 . S
C537 C534 1.526 . S
C537 C538 1.396 . S
C537 C542 1.390 . S
C538 C532 1.465 . S
C538 C537 1.396 . S
C538 C539 1.399 . S
C539 H525 0.929 . S
C539 C538 1.399 . S
C539 C540 1.385 . S
C540 H526 0.931 . S
C540 C539 1.385 . S
C540 C541 1.389 . S
C541 C540 1.389 . S
C541 C542 1.387 . S
C542 H527 0.930 . S
C542 C537 1.390 . S
C542 C541 1.387 . S
H543 C555 0.930 . S
H544 C557 0.930 . S
H545 C558 0.930 . S
H546 C562 0.959 . S
H547 C562 0.959 . S
H548 C562 0.961 . S
H549 C563 0.960 . S
H550 C563 0.961 . S
H551 C563 0.959 . S
H552 C566 0.929 . S
H553 C567 0.931 . S
H554 C569 0.930 . S
C555 H543 0.930 . S
C555 C556 1.399 . S
C555 C560 1.399 . S
C556 C555 1.399 . S
C556 C557 1.376 . S
C557 H544 0.930 . S
C557 C556 1.376 . S
C557 C558 1.388 . S
C558 H545 0.930 . S
C558 C557 1.388 . S
C558 C559 1.390 . S
C559 C558 1.390 . S
C559 C560 1.394 . S
C559 C565 1.465 . S
C560 C555 1.399 . S
C560 C559 1.394 . S
C560 C561 1.516 . S
C561 C560 1.516 . S
C561 C562 1.502 . S
C561 C563 1.561 . S
C561 C564 1.526 . S
C562 H546 0.959 . S
C562 H547 0.959 . S
C562 H548 0.961 . S
C562 C561 1.502 . S
C563 H549 0.960 . S
C563 H550 0.961 . S
C563 H551 0.959 . S
C563 C561 1.561 . S
C564 C561 1.526 . S
C564 C565 1.396 . S
C564 C569 1.390 . S
C565 C559 1.465 . S
C565 C564 1.396 . S
C565 C566 1.399 . S
C566 H552 0.929 . S
C566 C565 1.399 . S
C566 C567 1.385 . S
C567 H553 0.931 . S
C567 C566 1.385 . S
C567 C568 1.389 . S
C568 C567 1.389 . S
C568 C569 1.387 . S
C569 H554 0.930 . S
C569 C564 1.390 . S
C569 C568 1.387 . S
H570 C582 0.930 . S
H571 C584 0.930 . S
H572 C585 0.930 . S
H573 C589 0.959 . S
H574 C589 0.959 . S
H575 C589 0.961 . S
H576 C590 0.960 . S
H577 C590 0.961 . S
H578 C590 0.959 . S
H579 C593 0.929 . S
H580 C594 0.931 . S
H581 C596 0.930 . S
C582 H570 0.930 . S
C582 C583 1.399 . S
C582 C587 1.399 . S
C583 C582 1.399 . S
C583 C584 1.376 . S
C584 H571 0.930 . S
C584 C583 1.376 . S
C584 C585 1.388 . S
C585 H572 0.930 . S
C585 C584 1.388 . S
C585 C586 1.390 . S
C586 C585 1.390 . S
C586 C587 1.394 . S
C586 C592 1.465 . S
C587 C582 1.399 . S
C587 C586 1.394 . S
C587 C588 1.516 . S
C588 C587 1.516 . S
C588 C589 1.502 . S
C588 C590 1.561 . S
C588 C591 1.526 . S
C589 H573 0.959 . S
C589 H574 0.959 . S
C589 H575 0.961 . S
C589 C588 1.502 . S
C590 H576 0.960 . S
C590 H577 0.961 . S
C590 H578 0.959 . S
C590 C588 1.561 . S
C591 C588 1.526 . S
C591 C592 1.396 . S
C591 C596 1.390 . S
C592 C586 1.465 . S
C592 C591 1.396 . S
C592 C593 1.399 . S
C593 H579 0.929 . S
C593 C592 1.399 . S
C593 C594 1.385 . S
C594 H580 0.931 . S
C594 C593 1.385 . S
C594 C595 1.389 . S
C595 C594 1.389 . S
C595 C596 1.387 . S
C596 H581 0.930 . S
C596 C591 1.390 . S
C596 C595 1.387 . S
H597 C609 0.930 . S
H598 C611 0.930 . S
H599 C612 0.930 . S
H600 C616 0.959 . S
H601 C616 0.959 . S
H602 C616 0.961 . S
H603 C617 0.960 . S
H604 C617 0.961 . S
H605 C617 0.959 . S
H606 C620 0.929 . S
H607 C621 0.931 . S
H608 C623 0.930 . S
C609 H597 0.930 . S
C609 C610 1.399 . S
C609 C614 1.399 . S
C610 C609 1.399 . S
C610 C611 1.376 . S
C611 H598 0.930 . S
C611 C610 1.376 . S
C611 C612 1.388 . S
C612 H599 0.930 . S
C612 C611 1.388 . S
C612 C613 1.390 . S
C613 C612 1.390 . S
C613 C614 1.394 . S
C613 C619 1.465 . S
C614 C609 1.399 . S
C614 C613 1.394 . S
C614 C615 1.516 . S
C615 C614 1.516 . S
C615 C616 1.502 . S
C615 C617 1.561 . S
C615 C618 1.526 . S
C616 H600 0.959 . S
C616 H601 0.959 . S
C616 H602 0.961 . S
C616 C615 1.502 . S
C617 H603 0.960 . S
C617 H604 0.961 . S
C617 H605 0.959 . S
C617 C615 1.561 . S
C618 C615 1.526 . S
C618 C619 1.396 . S
C618 C623 1.390 . S
C619 C613 1.465 . S
C619 C618 1.396 . S
C619 C620 1.399 . S
C620 H606 0.929 . S
C620 C619 1.399 . S
C620 C621 1.385 . S
C621 H607 0.931 . S
C621 C620 1.385 . S
C621 C622 1.389 . S
C622 C621 1.389 . S
C622 C623 1.387 . S
C623 H608 0.930 . S
C623 C618 1.390 . S
C623 C622 1.387 . S
H624 C636 0.930 . S
H625 C638 0.930 1_556 S
H626 C639 0.930 . S
H627 C643 0.959 . S
H628 C643 0.959 . S
H629 C643 0.961 . S
H630 C644 0.960 . S
H631 C644 0.961 . S
H632 C644 0.959 . S
H633 C647 0.929 . S
H634 C648 0.931 . S
H635 C650 0.930 . S
C636 H624 0.930 . S
C636 C637 1.399 . S
C636 C641 1.399 . S
C637 C636 1.399 . S
C637 C638 1.376 . S
C638 H625 0.930 1_554 S
C638 C637 1.376 . S
C638 C639 1.388 . S
C639 H626 0.930 . S
C639 C638 1.388 . S
C639 C640 1.390 . S
C640 C639 1.390 . S
C640 C641 1.394 . S
C640 C646 1.465 . S
C641 C636 1.399 . S
C641 C640 1.394 . S
C641 C642 1.516 . S
C642 C641 1.516 . S
C642 C643 1.502 . S
C642 C644 1.561 . S
C642 C645 1.526 . S
C643 H627 0.959 . S
C643 H628 0.959 . S
C643 H629 0.961 . S
C643 C642 1.502 . S
C644 H630 0.960 . S
C644 H631 0.961 . S
C644 H632 0.959 . S
C644 C642 1.561 . S
C645 C642 1.526 . S
C645 C646 1.396 . S
C645 C650 1.390 . S
C646 C640 1.465 . S
C646 C645 1.396 . S
C646 C647 1.399 . S
C647 H633 0.929 . S
C647 C646 1.399 . S
C647 C648 1.385 . S
C648 H634 0.931 . S
C648 C647 1.385 . S
C648 C649 1.389 . S
C649 C648 1.389 . S
C649 C650 1.387 . S
C650 H635 0.930 . S
C650 C645 1.390 . S
C650 C649 1.387 . S
H651 C663 0.930 . S
H652 C665 0.930 . S
H653 C666 0.930 . S
H654 C670 0.959 . S
H655 C670 0.959 . S
H656 C670 0.961 . S
H657 C671 0.960 . S
H658 C671 0.961 . S
H659 C671 0.959 . S
H660 C674 0.929 . S
H661 C675 0.931 . S
H662 C677 0.930 . S
C663 H651 0.930 . S
C663 C664 1.399 . S
C663 C668 1.399 . S
C664 C663 1.399 . S
C664 C665 1.376 . S
C665 H652 0.930 . S
C665 C664 1.376 . S
C665 C666 1.388 . S
C666 H653 0.930 . S
C666 C665 1.388 . S
C666 C667 1.390 . S
C667 C666 1.390 . S
C667 C668 1.394 . S
C667 C673 1.465 . S
C668 C663 1.399 . S
C668 C667 1.394 . S
C668 C669 1.516 . S
C669 C668 1.516 . S
C669 C670 1.502 . S
C669 C671 1.561 . S
C669 C672 1.526 . S
C670 H654 0.959 . S
C670 H655 0.959 . S
C670 H656 0.961 . S
C670 C669 1.502 . S
C671 H657 0.960 . S
C671 H658 0.961 . S
C671 H659 0.959 . S
C671 C669 1.561 . S
C672 C669 1.526 . S
C672 C673 1.396 . S
C672 C677 1.390 . S
C673 C667 1.465 . S
C673 C672 1.396 . S
C673 C674 1.399 . S
C674 H660 0.929 . S
C674 C673 1.399 . S
C674 C675 1.385 . S
C675 H661 0.931 . S
C675 C674 1.385 . S
C675 C676 1.389 . S
C676 C675 1.389 . S
C676 C677 1.387 . S
C677 H662 0.930 . S
C677 C672 1.390 . S
C677 C676 1.387 . S
C367 C5 1.779 . S
C379 C300 1.789 . S
C394 C52 1.717 . S
C406 C62 1.722 . S
C421 C170 1.670 . S
C433 C92 1.667 . S
C448 C182 1.788 . S
C460 C123 1.781 . S
C475 C239 1.726 . S
C487 C229 1.730 . S
C502 C347 1.676 . S
C514 C269 1.674 . S
C529 C3 1.484 . S
C541 C288 1.444 . S
C556 C298 1.324 . S
C568 C64 1.327 . S
C583 C151 1.561 . S
C595 C33 1.572 . S
C610 C111 1.468 . S
C622 C180 1.468 1_556 S
C637 C121 1.302 1_554 S
C649 C241 1.330 . S
C664 C328 1.581 . S
C676 C210 1.576 . S
