# Generated by pormake.
# Topology pts-e, (5)-cn, num edge types: 1
# Building blocks:
#     Node 0, Type 0, BuildingBlock: BEQFEK_clean_sbu_0, # of connection points: 5
#     Node 1, Type 0, BuildingBlock: BEQFEK_clean_sbu_0, # of connection points: 5
#     Node 2, Type 0, BuildingBlock: BEQFEK_clean_sbu_0, # of connection points: 5
#     Node 3, Type 0, BuildingBlock: BEQFEK_clean_sbu_0, # of connection points: 5
#     Node 4, Type 0, BuildingBlock: BEQFEK_clean_sbu_0, # of connection points: 5
#     Node 5, Type 0, BuildingBlock: BEQFEK_clean_sbu_0, # of connection points: 5
#     Node 6, Type 0, BuildingBlock: BEQFEK_clean_sbu_0, # of connection points: 5
#     Node 7, Type 0, BuildingBlock: BEQFEK_clean_sbu_0, # of connection points: 5
#     Edge 8, Type (0, 0), BuildingBlock: EYOCIG_clean_linker_4, # of connection points: 2
#     Edge 9, Type (0, 0), BuildingBlock: EYOCIG_clean_linker_4, # of connection points: 2
#     Edge 10, Type (0, 0), BuildingBlock: EYOCIG_clean_linker_4, # of connection points: 2
#     Edge 11, Type (0, 0), BuildingBlock: EYOCIG_clean_linker_4, # of connection points: 2
#     Edge 12, Type (0, 0), BuildingBlock: EYOCIG_clean_linker_4, # of connection points: 2
#     Edge 13, Type (0, 0), BuildingBlock: EYOCIG_clean_linker_4, # of connection points: 2
#     Edge 14, Type (0, 0), BuildingBlock: EYOCIG_clean_linker_4, # of connection points: 2
#     Edge 15, Type (0, 0), BuildingBlock: EYOCIG_clean_linker_4, # of connection points: 2
#     Edge 16, Type (0, 0), BuildingBlock: EYOCIG_clean_linker_4, # of connection points: 2
#     Edge 17, Type (0, 0), BuildingBlock: EYOCIG_clean_linker_4, # of connection points: 2
#     Edge 18, Type (0, 0), BuildingBlock: EYOCIG_clean_linker_4, # of connection points: 2
#     Edge 19, Type (0, 0), BuildingBlock: EYOCIG_clean_linker_4, # of connection points: 2
#     Edge 20, Type (0, 0), BuildingBlock: EYOCIG_clean_linker_4, # of connection points: 2
#     Edge 21, Type (0, 0), BuildingBlock: EYOCIG_clean_linker_4, # of connection points: 2
#     Edge 22, Type (0, 0), BuildingBlock: EYOCIG_clean_linker_4, # of connection points: 2
#     Edge 23, Type (0, 0), BuildingBlock: EYOCIG_clean_linker_4, # of connection points: 2
#     Edge 24, Type (0, 0), BuildingBlock: EYOCIG_clean_linker_4, # of connection points: 2
#     Edge 25, Type (0, 0), BuildingBlock: EYOCIG_clean_linker_4, # of connection points: 2
#     Edge 26, Type (0, 0), BuildingBlock: EYOCIG_clean_linker_4, # of connection points: 2
#     Edge 27, Type (0, 0), BuildingBlock: EYOCIG_clean_linker_4, # of connection points: 2
# Relax obj value: 0.392
# Max RMSD: 0.229
# Mean RMSD: 0.229
data_MOF--net-pts-e--node1-BEQFEK_clean_sbu_0--edge1-EYOCIG_clean_linker_4
_symmetry_space_group_name_H-M    P1
_symmetry_Int_Tables_number       1
_symmetry_cell_setting            triclinic
loop_
_symmetry_equiv_pos_as_xyz
'x, y, z'
_cell_length_a     30.602723
_cell_length_b     30.596681
_cell_length_c     39.37782
_cell_angle_alpha  90.013137
_cell_angle_beta   90.000482
_cell_angle_gamma 89.935685
loop_
_atom_site_label
_atom_site_type_symbol
_atom_site_fract_x
_atom_site_fract_y
_atom_site_fract_z
_atom_type_partial_charge
Co0 Co 0.17332 0.01176 0.187 0.0
Co1 Co 0.26618 0.00554 0.2201 0.0
C2 C 0.20514 0.0798 0.2367 0.0
O3 O 0.17641 0.06394 0.21681 0.0
O4 O 0.24262 0.06183 0.24058 0.0
C5 C 0.10078 0.04163 0.14331 0.0
O6 O 0.11919 0.08007 0.13977 0.0
C7 C 0.36164 0.01714 0.2349 0.0
C8 C 0.37929 0.94848 0.24601 0.0
C9 C 0.39648 -0.01015 0.24266 0.0
N10 N 0.32515 -0.00736 0.23336 0.0
N11 N 0.33607 0.95177 0.24044 0.0
C12 C 0.36335 0.06506 0.22775 0.0
H13 H 0.33195 0.07656 0.21679 0.0
H14 H 0.39071 0.07233 0.21012 0.0
H15 H 0.36974 0.08284 0.25181 0.0
C16 C 0.22538 0.00575 0.1237 0.0
N17 N 0.22225 0.00721 0.15783 0.0
N18 N 0.26171 0.00539 0.17117 0.0
C19 C 0.2912 0.00319 0.14553 0.0
C20 C 0.26897 0.00378 0.1148 0.0
C21 C 0.18735 0.00529 0.09981 0.0
H22 H 0.1615 0.98336 0.10967 0.0
H23 H 0.174 0.03885 0.09759 0.0
H24 H 0.19714 -0.00592 0.0741 0.0
O25 O 0.16743 0.95997 0.21598 0.0
O26 O 0.23234 0.95603 0.24065 0.0
H27 H 0.34744 0.97351 0.16818 0.0
H28 H 0.35641 -0.00611 0.12562 0.0
C29 C 0.33958 0.00017 0.15012 0.0
H30 H 0.35178 0.03134 0.1608 0.0
H31 H 0.31415 0.92569 0.24044 0.0
O32 O 0.11846 0.01209 0.16118 0.0
C33 C 0.19371 0.94185 0.23646 0.0
Co34 Co -0.0026 0.17347 0.68698 0.0
Co35 Co 0.00359 0.26633 0.72012 0.0
C36 C 0.92936 0.20541 0.73669 0.0
O37 O 0.94523 0.17666 0.71679 0.0
O38 O 0.94732 0.24287 0.74059 0.0
C39 C 0.9676 0.10097 0.64324 0.0
O40 O 0.92915 0.11942 0.63967 0.0
C41 C -0.00794 0.36184 0.73495 0.0
C42 C 0.06072 0.37927 0.74607 0.0
C43 C 0.01938 0.3966 0.74272 0.0
N44 N 0.01652 0.32527 0.73341 0.0
N45 N 0.05739 0.33606 0.74049 0.0
C46 C 0.94415 0.36372 0.72779 0.0
H47 H 0.93261 0.33234 0.71684 0.0
H48 H 0.93691 0.39109 0.71016 0.0
H49 H 0.92639 0.37019 0.75185 0.0
C50 C 0.00339 0.22556 0.6237 0.0
N51 N 0.00193 0.22242 0.65783 0.0
N52 N 0.00373 0.26188 0.67118 0.0
C53 C 0.00594 0.29137 0.64556 0.0
C54 C 0.00536 0.26915 0.61482 0.0
C55 C 0.00387 0.18753 0.5998 0.0
H56 H 0.02581 0.16163 0.60965 0.0
H57 H 0.97033 0.17423 0.59756 0.0
H58 H 0.01508 0.1973 0.57409 0.0
O59 O 0.04919 0.16746 0.71596 0.0
O60 O 0.05309 0.23237 0.74065 0.0
H61 H 0.0356 0.34755 0.66823 0.0
H62 H 0.01523 0.35658 0.62568 0.0
C63 C 0.00895 0.33976 0.65017 0.0
H64 H 0.97778 0.35202 0.66084 0.0
H65 H 0.08345 0.31405 0.74048 0.0
O66 O -0.0029 0.11861 0.66114 0.0
C67 C 0.06729 0.19371 0.73645 0.0
Co68 Co 0.83601 -0.00216 0.187 0.0
Co69 Co 0.74315 0.00407 0.22011 0.0
C70 C 0.8042 0.92981 0.23668 0.0
O71 O 0.83292 0.94566 0.21679 0.0
O72 O 0.76671 0.94779 0.24057 0.0
C73 C 0.90854 0.96797 0.14329 0.0
O74 O 0.89013 0.92953 0.13974 0.0
C75 C 0.64769 -0.00753 0.2349 0.0
C76 C 0.63004 0.06112 0.24606 0.0
C77 C 0.61286 0.01975 0.24268 0.0
N78 N 0.68418 0.01697 0.23338 0.0
N79 N 0.67326 0.05783 0.24048 0.0
C80 C 0.64598 0.94455 0.22772 0.0
H81 H 0.67737 0.93306 0.21675 0.0
H82 H 0.61862 0.93729 0.21008 0.0
H83 H 0.63959 0.92676 0.25176 0.0
C84 C 0.78393 0.00386 0.1237 0.0
N85 N 0.78707 0.00239 0.15783 0.0
N86 N 0.74761 0.00421 0.17117 0.0
C87 C 0.71812 0.00644 0.14554 0.0
C88 C 0.74035 0.00585 0.11481 0.0
C89 C 0.82196 0.00432 0.09981 0.0
H90 H 0.84781 0.02624 0.10967 0.0
H91 H 0.83531 0.97076 0.09758 0.0
H92 H 0.81217 0.01553 0.0741 0.0
O93 O 0.8419 0.04964 0.21599 0.0
O94 O 0.77699 0.05358 0.24066 0.0
H95 H 0.66189 0.03612 0.16821 0.0
H96 H 0.65291 0.01578 0.12564 0.0
C97 C 0.66974 0.00948 0.15013 0.0
H98 H 0.65753 0.9783 0.16079 0.0
H99 H 0.69518 0.08392 0.2405 0.0
O100 O 0.89086 -0.00249 0.16117 0.0
C101 C 0.81562 0.06775 0.23647 0.0
Co102 Co 0.01185 0.83623 0.68694 0.0
Co103 Co 0.00567 0.74338 0.72006 0.0
C104 C 0.07989 0.8043 0.73665 0.0
O105 O 0.06402 0.83305 0.71675 0.0
O106 O 0.06194 0.76684 0.74054 0.0
C107 C 0.04166 0.90872 0.64321 0.0
O108 O 0.08011 0.89026 0.63964 0.0
C109 C 0.01718 0.64787 0.7349 0.0
C110 C 0.94851 0.63045 0.74597 0.0
C111 C -0.01014 0.61313 0.74265 0.0
N112 N -0.00727 0.68445 0.73333 0.0
N113 N 0.95185 0.67366 0.74038 0.0
C114 C 0.0651 0.64599 0.72778 0.0
H115 H 0.07666 0.67736 0.71684 0.0
H116 H 0.07236 0.61861 0.71015 0.0
H117 H 0.08283 0.63953 0.75185 0.0
C118 C 0.00587 0.78413 0.62365 0.0
N119 N 0.00733 0.78728 0.65778 0.0
N120 N 0.00554 0.74782 0.67112 0.0
C121 C 0.00335 0.71832 0.64549 0.0
C122 C 0.00392 0.74054 0.61476 0.0
C123 C 0.00539 0.82215 0.59975 0.0
H124 H 0.98345 0.84805 0.60961 0.0
H125 H 0.03893 0.83545 0.59752 0.0
H126 H -0.00582 0.81237 0.57405 0.0
O127 O 0.96006 0.84225 0.71591 0.0
O128 O 0.95617 0.77735 0.7406 0.0
H129 H 0.97369 0.66212 0.66813 0.0
H130 H -0.00586 0.65309 0.6256 0.0
C131 C 0.00036 0.66993 0.6501 0.0
H132 H 0.03152 0.6577 0.66081 0.0
H133 H 0.92579 0.69567 0.74035 0.0
O134 O 0.01216 0.89109 0.66111 0.0
C135 C 0.94197 0.816 0.7364 0.0
Co136 Co 0.17328 -0.00235 0.87757 0.0
Co137 Co 0.26613 0.00383 0.84446 0.0
C138 C 0.20522 0.9296 0.82786 0.0
O139 O 0.17647 0.94547 0.84776 0.0
O140 O 0.24267 0.94755 0.82398 0.0
C141 C 0.10076 0.96786 0.92127 0.0
O142 O 0.1192 0.92939 0.92483 0.0
C143 C 0.36164 -0.0077 0.82964 0.0
C144 C 0.37906 0.06098 0.81856 0.0
C145 C 0.39638 0.01962 0.8219 0.0
N146 N 0.32506 0.01676 0.83119 0.0
N147 N 0.33586 0.05764 0.82414 0.0
C148 C 0.36351 0.94437 0.83678 0.0
H149 H 0.33213 0.93283 0.84772 0.0
H150 H 0.39087 0.93713 0.85442 0.0
H151 H 0.36998 0.92662 0.81272 0.0
C152 C 0.22535 0.00363 0.94087 0.0
N153 N 0.22222 0.00218 0.90673 0.0
N154 N 0.26167 0.00398 0.8934 0.0
C155 C 0.29116 0.00617 0.91903 0.0
C156 C 0.26893 0.00559 0.94976 0.0
C157 C 0.18732 0.00409 0.96476 0.0
H158 H 0.16144 0.02605 0.95492 0.0
H159 H 0.17402 0.97054 0.96697 0.0
H160 H 0.1971 0.01528 0.99048 0.0
O161 O 0.16729 0.04945 0.8486 0.0
O162 O 0.23218 0.05334 0.82392 0.0
H163 H 0.34734 0.03583 0.89639 0.0
H164 H 0.35635 0.01542 0.93893 0.0
C165 C 0.33953 0.00916 0.91443 0.0
H166 H 0.35178 0.97799 0.90374 0.0
H167 H 0.31385 0.08371 0.82415 0.0
O168 O 0.11842 -0.00264 0.9034 0.0
C169 C 0.19353 0.06754 0.82812 0.0
Co170 Co 0.01164 0.17344 0.3776 0.0
Co171 Co 0.00541 0.26631 0.34449 0.0
C172 C 0.07966 0.20525 0.3279 0.0
O173 O 0.06381 0.17653 0.3478 0.0
O174 O 0.06169 0.24274 0.32402 0.0
C175 C 0.04152 0.10094 0.42132 0.0
O176 O 0.07994 0.11937 0.42488 0.0
C177 C 0.01699 0.36177 0.32966 0.0
C178 C 0.94835 0.37941 0.31854 0.0
C179 C -0.01029 0.3966 0.32189 0.0
N180 N -0.0075 0.32527 0.33121 0.0
N181 N 0.95164 0.33619 0.32414 0.0
C182 C 0.06491 0.36349 0.33682 0.0
H183 H 0.07641 0.33209 0.34779 0.0
H184 H 0.07218 0.39086 0.35444 0.0
H185 H 0.08267 0.36986 0.31276 0.0
C186 C 0.00562 0.22555 0.44089 0.0
N187 N 0.00709 0.22241 0.40676 0.0
N188 N 0.00527 0.26186 0.39342 0.0
C189 C 0.00306 0.29137 0.41906 0.0
C190 C 0.00364 0.26915 0.44979 0.0
C191 C 0.00514 0.18753 0.46479 0.0
H192 H 0.98323 0.16166 0.45492 0.0
H193 H 0.03869 0.17419 0.46704 0.0
H194 H -0.0061 0.19733 0.49049 0.0
O195 O 0.95985 0.16753 0.34862 0.0
O196 O 0.95591 0.23244 0.32395 0.0
H197 H 0.97338 0.34761 0.3964 0.0
H198 H -0.00623 0.35661 0.43895 0.0
C199 C 4e-05 0.33976 0.41445 0.0
H200 H 0.0312 0.35196 0.40377 0.0
H201 H 0.92556 0.31426 0.32415 0.0
O202 O 0.01199 0.11859 0.40343 0.0
C203 C 0.94173 0.19381 0.32814 0.0
Co204 Co 0.83599 0.01209 0.87757 0.0
Co205 Co 0.74313 0.0059 0.84447 0.0
C206 C 0.80404 0.08013 0.82788 0.0
O207 O 0.83279 0.06426 0.84777 0.0
O208 O 0.76658 0.06218 0.824 0.0
C209 C 0.9085 0.04189 0.92128 0.0
O210 O 0.89006 0.08035 0.92485 0.0
C211 C 0.64762 0.01743 0.82966 0.0
C212 C 0.6302 0.94875 0.81855 0.0
C213 C 0.61288 -0.0099 0.8219 0.0
N214 N 0.6842 -0.00703 0.8312 0.0
N215 N 0.67341 0.95209 0.82413 0.0
C216 C 0.64575 0.06536 0.83681 0.0
H217 H 0.67712 0.0769 0.84775 0.0
H218 H 0.61839 0.0726 0.85446 0.0
H219 H 0.63927 0.08311 0.81275 0.0
C220 C 0.78393 0.0061 0.94087 0.0
N221 N 0.78705 0.00756 0.90674 0.0
N222 N 0.7476 0.00576 0.8934 0.0
C223 C 0.71812 0.00356 0.91904 0.0
C224 C 0.74035 0.00414 0.94977 0.0
C225 C 0.82196 0.00563 0.96476 0.0
H226 H 0.84784 0.98368 0.9549 0.0
H227 H 0.83526 0.03918 0.96698 0.0
H228 H 0.81219 -0.00556 0.99047 0.0
O229 O 0.84198 0.96029 0.84859 0.0
O230 O 0.77708 0.95639 0.82391 0.0
H231 H 0.66193 0.97389 0.89638 0.0
H232 H 0.65292 -0.0057 0.93894 0.0
C233 C 0.66974 0.00055 0.91444 0.0
H234 H 0.65748 0.03172 0.90376 0.0
H235 H 0.69541 0.92602 0.82413 0.0
O236 O 0.89084 0.01238 0.9034 0.0
C237 C 0.81573 0.94219 0.8281 0.0
Co238 Co -0.0023 0.8362 0.37756 0.0
Co239 Co 0.00393 0.74332 0.34443 0.0
C240 C 0.92968 0.80438 0.32786 0.0
O241 O 0.94553 0.8331 0.34776 0.0
O242 O 0.94765 0.76689 0.32396 0.0
C243 C 0.96783 0.90872 0.42129 0.0
O244 O 0.9294 0.89029 0.42484 0.0
C245 C -0.00766 0.64786 0.32961 0.0
C246 C 0.06097 0.63021 0.31846 0.0
C247 C 0.01961 0.61302 0.32183 0.0
N248 N 0.01683 0.68436 0.33114 0.0
N249 N 0.05768 0.67344 0.32405 0.0
C250 C 0.94442 0.64614 0.33679 0.0
H251 H 0.93293 0.67754 0.34777 0.0
H252 H 0.93717 0.61877 0.35441 0.0
H253 H 0.92664 0.63976 0.31273 0.0
C254 C 0.00372 0.7841 0.44084 0.0
N255 N 0.00225 0.78724 0.40671 0.0
N256 N 0.00407 0.74778 0.39337 0.0
C257 C 0.00629 0.71828 0.41899 0.0
C258 C 0.0057 0.74051 0.44973 0.0
C259 C 0.00418 0.82213 0.46475 0.0
H260 H 0.0261 0.84799 0.45489 0.0
H261 H 0.97063 0.83548 0.46699 0.0
H262 H 0.0154 0.81234 0.49045 0.0
O263 O 0.04949 0.8421 0.34858 0.0
O264 O 0.05343 0.77718 0.3239 0.0
H265 H 0.03596 0.66204 0.39631 0.0
H266 H 0.01563 0.65306 0.43887 0.0
C267 C 0.00932 0.66989 0.41438 0.0
H268 H 0.97815 0.65768 0.40372 0.0
H269 H 0.08376 0.69536 0.32404 0.0
O270 O -0.00264 0.89105 0.4034 0.0
C271 C 0.06761 0.81581 0.3281 0.0
C272 C 0.29292 0.00423 0.05028 0.0
C273 C 0.286 0.00383 0.08051 0.0
C274 C 0.29291 0.00512 1.01428 0.0
C275 C 0.28598 0.00552 0.98405 0.0
C276 C 0.00406 0.29313 0.51431 0.0
C277 C 0.00368 0.28621 0.48407 0.0
C278 C 0.00493 0.29313 0.55031 0.0
C279 C 0.00532 0.2862 0.58054 0.0
C280 C 0.71639 0.00544 0.05029 0.0
C281 C 0.72331 0.00582 0.08052 0.0
C282 C 0.71639 0.00457 1.01429 0.0
C283 C 0.72331 0.00418 0.98405 0.0
C284 C 0.00527 0.71654 0.51424 0.0
C285 C 0.00566 0.72346 0.48401 0.0
C286 C 0.00438 0.71654 0.55024 0.0
C287 C 0.00398 0.72347 0.58048 0.0
C288 C 0.14517 0.17383 0.29135 0.0
C289 C 0.11586 0.19197 0.3066 0.0
C290 C 0.17371 0.14531 0.27327 0.0
C291 C 0.19186 0.116 0.25802 0.0
C292 C 0.83538 0.1456 0.79132 0.0
C293 C 0.81727 0.11631 0.80657 0.0
C294 C 0.86388 0.17409 0.77325 0.0
C295 C 0.89318 0.19219 0.758 0.0
C296 C 0.83563 0.86431 0.27324 0.0
C297 C 0.81748 0.89362 0.25799 0.0
C298 C 0.86417 0.83579 0.29131 0.0
C299 C 0.89348 0.81766 0.30656 0.0
C300 C 0.17388 0.86412 0.79129 0.0
C301 C 0.19199 0.89341 0.80654 0.0
C302 C 0.14537 0.83563 0.77321 0.0
C303 C 0.11607 0.81753 0.75796 0.0
C304 C 0.87873 0.85096 0.77298 0.0
C305 C 0.90711 0.83231 0.75736 0.0
C306 C 0.8507 0.87897 0.7915 0.0
C307 C 0.83203 0.90734 0.80712 0.0
C308 C 0.15883 0.87865 0.27303 0.0
C309 C 0.17746 0.90701 0.25742 0.0
C310 C 0.13083 0.85067 0.29154 0.0
C311 C 0.10246 0.83206 0.30715 0.0
C312 C 0.13053 0.15876 0.77302 0.0
C313 C 0.10214 0.17741 0.7574 0.0
C314 C 0.15856 0.13076 0.79153 0.0
C315 C 0.17722 0.10239 0.80715 0.0
C316 C 0.85051 0.13096 0.27306 0.0
C317 C 0.83187 0.1026 0.25744 0.0
C318 C 0.87851 0.15894 0.29158 0.0
C319 C 0.90688 0.17756 0.30719 0.0
C320 C 0.02474 0.01594 0.1211 0.0
C321 C 0.0589 0.0324 0.12902 0.0
C322 C 0.98458 -0.00634 0.12109 0.0
C323 C 0.95042 0.9772 0.12901 0.0
C324 C -0.00656 0.02492 0.62099 0.0
C325 C 0.97691 0.05909 0.62892 0.0
C326 C 0.01582 0.98476 0.62099 0.0
C327 C 0.03235 0.9506 0.62891 0.0
C328 C 0.98455 0.01606 0.94348 0.0
C329 C 0.95038 0.03258 0.93557 0.0
C330 C 0.02471 -0.00631 0.94348 0.0
C331 C 0.05888 0.97717 0.93557 0.0
C332 C -0.00648 0.98475 0.44354 0.0
C333 C 0.97706 0.95059 0.43561 0.0
C334 C 0.01582 0.02491 0.44355 0.0
C335 C 0.03229 0.05907 0.43563 0.0
C336 C 0.48161 0.00354 0.24469 0.0
C337 C 0.44242 -0.00037 0.24344 0.0
C338 C 0.52772 0.00607 0.2447 0.0
C339 C 0.56691 0.00998 0.24345 0.0
C340 C 0.0034 0.52793 0.74472 0.0
C341 C -0.00043 0.56714 0.74346 0.0
C342 C 0.00584 0.4818 0.74474 0.0
C343 C 0.00967 0.44259 0.74349 0.0
C344 C 0.48157 0.00608 0.81987 0.0
C345 C 0.44236 0.00991 0.82112 0.0
C346 C 0.52769 0.00365 0.81987 0.0
C347 C 0.5669 -0.00018 0.82112 0.0
C348 C 0.0034 0.48175 0.31983 0.0
C349 C -0.00051 0.44256 0.32109 0.0
C350 C 0.00593 0.52787 0.31981 0.0
C351 C 0.00984 0.56706 0.32106 0.0
loop_
_geom_bond_atom_site_label_1
_geom_bond_atom_site_label_2
_geom_bond_distance
_geom_bond_site_symmetry_2
_ccdc_geom_bond_type
Co0 O3 1.970 . S
Co0 N17 1.989 . S
Co0 O25 1.967 1_545 S
Co0 O32 1.920 . S
Co1 O4 1.966 . S
Co1 N10 2.022 . S
Co1 N18 1.993 . S
Co1 O26 1.941 1_545 S
C2 O3 1.258 . S
C2 O4 1.263 . S
O3 Co0 1.970 . S
O3 C2 1.258 . S
O4 Co1 1.966 . S
O4 C2 1.263 . S
C5 O6 1.235 . S
C5 O32 1.289 . S
O6 C5 1.235 . S
C7 C9 1.400 . S
C7 N10 1.351 . S
C7 C12 1.501 . S
C8 C9 1.387 1_565 S
C8 N11 1.341 . S
C9 C7 1.400 . S
C9 C8 1.387 1_545 S
N10 Co1 2.022 . S
N10 C7 1.351 . S
N10 N11 1.365 1_545 S
N11 C8 1.341 . S
N11 N10 1.365 1_565 S
N11 H31 0.862 . S
C12 C7 1.501 . S
C12 H13 0.961 . S
C12 H14 0.961 . S
C12 H15 0.960 . S
H13 C12 0.961 . S
H14 C12 0.961 . S
H15 C12 0.960 . S
C16 N17 1.342 . S
C16 C20 1.401 . S
C16 C21 1.499 . S
N17 Co0 1.989 . S
N17 C16 1.342 . S
N17 N18 1.388 . S
N18 Co1 1.993 . S
N18 N17 1.388 . S
N18 C19 1.346 . S
C19 N18 1.346 . S
C19 C20 1.396 . S
C19 C29 1.510 . S
C20 C16 1.401 . S
C20 C19 1.396 . S
C21 C16 1.499 . S
C21 H22 0.959 . S
C21 H23 0.960 . S
C21 H24 0.961 1_545 S
H22 C21 0.959 . S
H23 C21 0.960 . S
H24 C21 0.961 1_565 S
O25 Co0 1.967 1_565 S
O25 C33 1.258 . S
O26 Co1 1.941 1_565 S
O26 C33 1.266 . S
H27 C29 0.959 1_565 S
H28 C29 0.961 . S
C29 C19 1.510 . S
C29 H27 0.959 1_545 S
C29 H28 0.961 . S
C29 H30 0.960 . S
H30 C29 0.960 . S
H31 N11 0.862 . S
O32 Co0 1.920 . S
O32 C5 1.289 . S
C33 O25 1.258 . S
C33 O26 1.266 . S
Co34 O37 1.970 1_455 S
Co34 N51 1.989 . S
Co34 O59 1.967 . S
Co34 O66 1.920 . S
Co35 O38 1.966 1_455 S
Co35 N44 2.022 . S
Co35 N52 1.993 . S
Co35 O60 1.941 . S
C36 O37 1.258 . S
C36 O38 1.263 . S
O37 Co34 1.970 1_655 S
O37 C36 1.258 . S
O38 Co35 1.966 1_655 S
O38 C36 1.263 . S
C39 O40 1.235 . S
C39 O66 1.289 1_655 S
O40 C39 1.235 . S
C41 C43 1.400 . S
C41 N44 1.351 1_655 S
C41 C46 1.501 . S
C42 C43 1.387 1_455 S
C42 N45 1.341 . S
C43 C41 1.400 . S
C43 C42 1.387 1_655 S
N44 Co35 2.022 . S
N44 C41 1.351 1_455 S
N44 N45 1.365 . S
N45 C42 1.341 . S
N45 N44 1.365 . S
N45 H65 0.862 . S
C46 C41 1.501 . S
C46 H47 0.961 . S
C46 H48 0.961 . S
C46 H49 0.960 . S
H47 C46 0.961 . S
H48 C46 0.961 . S
H49 C46 0.960 . S
C50 N51 1.342 . S
C50 C54 1.401 . S
C50 C55 1.499 . S
N51 Co34 1.989 . S
N51 C50 1.342 . S
N51 N52 1.388 . S
N52 Co35 1.993 . S
N52 N51 1.388 . S
N52 C53 1.346 . S
C53 N52 1.346 . S
C53 C54 1.396 . S
C53 C63 1.510 . S
C54 C50 1.401 . S
C54 C53 1.396 . S
C55 C50 1.499 . S
C55 H56 0.959 . S
C55 H57 0.972 . S
C55 H58 0.961 . S
H56 C55 0.959 . S
H57 C55 0.972 . S
H58 C55 0.961 . S
O59 Co34 1.967 . S
O59 C67 1.258 . S
O60 Co35 1.941 . S
O60 C67 1.266 . S
H61 C63 0.959 . S
H62 C63 0.961 1_655 S
C63 C53 1.510 . S
C63 H61 0.959 . S
C63 H62 0.961 1_455 S
C63 H64 0.960 . S
H64 C63 0.960 . S
H65 N45 0.862 . S
O66 Co34 1.920 . S
O66 C39 1.289 1_455 S
C67 O59 1.258 . S
C67 O60 1.266 . S
Co68 O71 1.970 1_545 S
Co68 N85 1.989 . S
Co68 O93 1.967 . S
Co68 O100 1.920 . S
Co69 O72 1.966 1_545 S
Co69 N78 2.022 . S
Co69 N86 1.993 . S
Co69 O94 1.941 . S
C70 O71 1.258 . S
C70 O72 1.263 . S
O71 Co68 1.970 1_565 S
O71 C70 1.258 . S
O72 Co69 1.966 1_565 S
O72 C70 1.263 . S
C73 O74 1.235 . S
C73 O100 1.289 1_565 S
O74 C73 1.235 . S
C75 C77 1.400 . S
C75 N78 1.351 1_565 S
C75 C80 1.501 . S
C76 C77 1.387 1_545 S
C76 N79 1.341 . S
C77 C75 1.400 . S
C77 C76 1.387 1_565 S
N78 Co69 2.022 . S
N78 C75 1.351 1_545 S
N78 N79 1.365 . S
N79 C76 1.341 . S
N79 N78 1.365 . S
N79 H99 0.862 . S
C80 C75 1.501 . S
C80 H81 0.961 . S
C80 H82 0.961 . S
C80 H83 0.960 . S
H81 C80 0.961 . S
H82 C80 0.961 . S
H83 C80 0.960 . S
C84 N85 1.342 . S
C84 C88 1.401 . S
C84 C89 1.499 . S
N85 Co68 1.989 . S
N85 C84 1.342 . S
N85 N86 1.388 . S
N86 Co69 1.993 . S
N86 N85 1.388 . S
N86 C87 1.346 . S
C87 N86 1.346 . S
C87 C88 1.396 . S
C87 C97 1.510 . S
C88 C84 1.401 . S
C88 C87 1.396 . S
C89 C84 1.499 . S
C89 H90 0.959 . S
C89 H91 0.974 . S
C89 H92 0.961 . S
H90 C89 0.959 . S
H91 C89 0.974 . S
H92 C89 0.961 . S
O93 Co68 1.967 . S
O93 C101 1.258 . S
O94 Co69 1.941 . S
O94 C101 1.266 . S
H95 C97 0.959 . S
H96 C97 0.961 1_565 S
C97 C87 1.510 . S
C97 H95 0.959 . S
C97 H96 0.961 1_545 S
C97 H98 0.960 . S
H98 C97 0.960 . S
H99 N79 0.862 . S
O100 Co68 1.920 . S
O100 C73 1.289 1_545 S
C101 O93 1.258 . S
C101 O94 1.266 . S
Co102 O105 1.970 . S
Co102 N119 1.989 . S
Co102 O127 1.967 1_455 S
Co102 O134 1.920 . S
Co103 O106 1.966 . S
Co103 N112 2.022 . S
Co103 N120 1.993 . S
Co103 O128 1.941 1_455 S
C104 O105 1.258 . S
C104 O106 1.263 . S
O105 Co102 1.970 . S
O105 C104 1.258 . S
O106 Co103 1.966 . S
O106 C104 1.263 . S
C107 O108 1.235 . S
C107 O134 1.289 . S
O108 C107 1.235 . S
C109 C111 1.400 . S
C109 N112 1.351 . S
C109 C114 1.501 . S
C110 C111 1.387 1_655 S
C110 N113 1.341 . S
C111 C109 1.400 . S
C111 C110 1.387 1_455 S
N112 Co103 2.022 . S
N112 C109 1.351 . S
N112 N113 1.365 1_455 S
N113 C110 1.341 . S
N113 N112 1.365 1_655 S
N113 H133 0.862 . S
C114 C109 1.501 . S
C114 H115 0.961 . S
C114 H116 0.961 . S
C114 H117 0.960 . S
H115 C114 0.961 . S
H116 C114 0.961 . S
H117 C114 0.960 . S
C118 N119 1.342 . S
C118 C122 1.401 . S
C118 C123 1.499 . S
N119 Co102 1.989 . S
N119 C118 1.342 . S
N119 N120 1.388 . S
N120 Co103 1.993 . S
N120 N119 1.388 . S
N120 C121 1.346 . S
C121 N120 1.346 . S
C121 C122 1.396 . S
C121 C131 1.510 . S
C122 C118 1.401 . S
C122 C121 1.396 . S
C123 C118 1.499 . S
C123 H124 0.959 . S
C123 H125 0.960 . S
C123 H126 0.961 1_455 S
H124 C123 0.959 . S
H125 C123 0.960 . S
H126 C123 0.961 1_655 S
O127 Co102 1.967 1_655 S
O127 C135 1.258 . S
O128 Co103 1.941 1_655 S
O128 C135 1.266 . S
H129 C131 0.959 1_655 S
H130 C131 0.961 . S
C131 C121 1.510 . S
C131 H129 0.959 1_455 S
C131 H130 0.961 . S
C131 H132 0.960 . S
H132 C131 0.960 . S
H133 N113 0.862 . S
O134 Co102 1.920 . S
O134 C107 1.289 . S
C135 O127 1.258 . S
C135 O128 1.266 . S
Co136 O139 1.970 1_545 S
Co136 N153 1.989 . S
Co136 O161 1.967 . S
Co136 O168 1.920 . S
Co137 O140 1.966 1_545 S
Co137 N146 2.022 . S
Co137 N154 1.993 . S
Co137 O162 1.941 . S
C138 O139 1.258 . S
C138 O140 1.263 . S
O139 Co136 1.970 1_565 S
O139 C138 1.258 . S
O140 Co137 1.966 1_565 S
O140 C138 1.263 . S
C141 O142 1.235 . S
C141 O168 1.289 1_565 S
O142 C141 1.235 . S
C143 C145 1.400 . S
C143 N146 1.351 1_565 S
C143 C148 1.501 . S
C144 C145 1.387 1_545 S
C144 N147 1.341 . S
C145 C143 1.400 . S
C145 C144 1.387 1_565 S
N146 Co137 2.022 . S
N146 C143 1.351 1_545 S
N146 N147 1.365 . S
N147 C144 1.341 . S
N147 N146 1.365 . S
N147 H167 0.862 . S
C148 C143 1.501 . S
C148 H149 0.961 . S
C148 H150 0.961 . S
C148 H151 0.960 . S
H149 C148 0.961 . S
H150 C148 0.961 . S
H151 C148 0.960 . S
C152 N153 1.342 . S
C152 C156 1.401 . S
C152 C157 1.499 . S
N153 Co136 1.989 . S
N153 C152 1.342 . S
N153 N154 1.388 . S
N154 Co137 1.993 . S
N154 N153 1.388 . S
N154 C155 1.346 . S
C155 N154 1.346 . S
C155 C156 1.396 . S
C155 C165 1.510 . S
C156 C152 1.401 . S
C156 C155 1.396 . S
C157 C152 1.499 . S
C157 H158 0.959 . S
C157 H159 0.972 . S
C157 H160 0.961 . S
H158 C157 0.959 . S
H159 C157 0.972 . S
H160 C157 0.961 . S
O161 Co136 1.967 . S
O161 C169 1.258 . S
O162 Co137 1.941 . S
O162 C169 1.266 . S
H163 C165 0.959 . S
H164 C165 0.961 1_565 S
C165 C155 1.510 . S
C165 H163 0.959 . S
C165 H164 0.961 1_545 S
C165 H166 0.960 . S
H166 C165 0.960 . S
H167 N147 0.862 . S
O168 Co136 1.920 . S
O168 C141 1.289 1_545 S
C169 O161 1.258 . S
C169 O162 1.266 . S
Co170 O173 1.970 . S
Co170 N187 1.989 . S
Co170 O195 1.967 1_455 S
Co170 O202 1.920 . S
Co171 O174 1.966 . S
Co171 N180 2.022 . S
Co171 N188 1.993 . S
Co171 O196 1.941 1_455 S
C172 O173 1.258 . S
C172 O174 1.263 . S
O173 Co170 1.970 . S
O173 C172 1.258 . S
O174 Co171 1.966 . S
O174 C172 1.263 . S
C175 O176 1.235 . S
C175 O202 1.289 . S
O176 C175 1.235 . S
C177 C179 1.400 . S
C177 N180 1.351 . S
C177 C182 1.501 . S
C178 C179 1.387 1_655 S
C178 N181 1.341 . S
C179 C177 1.400 . S
C179 C178 1.387 1_455 S
N180 Co171 2.022 . S
N180 C177 1.351 . S
N180 N181 1.365 1_455 S
N181 C178 1.341 . S
N181 N180 1.365 1_655 S
N181 H201 0.862 . S
C182 C177 1.501 . S
C182 H183 0.961 . S
C182 H184 0.961 . S
C182 H185 0.960 . S
H183 C182 0.961 . S
H184 C182 0.961 . S
H185 C182 0.960 . S
C186 N187 1.342 . S
C186 C190 1.401 . S
C186 C191 1.499 . S
N187 Co170 1.989 . S
N187 C186 1.342 . S
N187 N188 1.388 . S
N188 Co171 1.993 . S
N188 N187 1.388 . S
N188 C189 1.346 . S
C189 N188 1.346 . S
C189 C190 1.396 . S
C189 C199 1.510 . S
C190 C186 1.401 . S
C190 C189 1.396 . S
C191 C186 1.499 . S
C191 H192 0.959 . S
C191 H193 0.960 . S
C191 H194 0.961 1_455 S
H192 C191 0.959 . S
H193 C191 0.960 . S
H194 C191 0.961 1_655 S
O195 Co170 1.967 1_655 S
O195 C203 1.258 . S
O196 Co171 1.941 1_655 S
O196 C203 1.266 . S
H197 C199 0.959 1_655 S
H198 C199 0.961 . S
C199 C189 1.510 . S
C199 H197 0.959 1_455 S
C199 H198 0.961 . S
C199 H200 0.960 . S
H200 C199 0.960 . S
H201 N181 0.862 . S
O202 Co170 1.920 . S
O202 C175 1.289 . S
C203 O195 1.258 . S
C203 O196 1.266 . S
Co204 O207 1.970 . S
Co204 N221 1.989 . S
Co204 O229 1.967 1_545 S
Co204 O236 1.920 . S
Co205 O208 1.966 . S
Co205 N214 2.022 . S
Co205 N222 1.993 . S
Co205 O230 1.941 1_545 S
C206 O207 1.258 . S
C206 O208 1.263 . S
O207 Co204 1.970 . S
O207 C206 1.258 . S
O208 Co205 1.966 . S
O208 C206 1.263 . S
C209 O210 1.235 . S
C209 O236 1.289 . S
O210 C209 1.235 . S
C211 C213 1.400 . S
C211 N214 1.351 . S
C211 C216 1.501 . S
C212 C213 1.387 1_565 S
C212 N215 1.341 . S
C213 C211 1.400 . S
C213 C212 1.387 1_545 S
N214 Co205 2.022 . S
N214 C211 1.351 . S
N214 N215 1.365 1_545 S
N215 C212 1.341 . S
N215 N214 1.365 1_565 S
N215 H235 0.862 . S
C216 C211 1.501 . S
C216 H217 0.961 . S
C216 H218 0.961 . S
C216 H219 0.960 . S
H217 C216 0.961 . S
H218 C216 0.961 . S
H219 C216 0.960 . S
C220 N221 1.342 . S
C220 C224 1.401 . S
C220 C225 1.499 . S
N221 Co204 1.989 . S
N221 C220 1.342 . S
N221 N222 1.388 . S
N222 Co205 1.993 . S
N222 N221 1.388 . S
N222 C223 1.346 . S
C223 N222 1.346 . S
C223 C224 1.396 . S
C223 C233 1.510 . S
C224 C220 1.401 . S
C224 C223 1.396 . S
C225 C220 1.499 . S
C225 H226 0.959 . S
C225 H227 0.960 . S
C225 H228 0.961 1_545 S
H226 C225 0.959 . S
H227 C225 0.960 . S
H228 C225 0.961 1_565 S
O229 Co204 1.967 1_565 S
O229 C237 1.258 . S
O230 Co205 1.941 1_565 S
O230 C237 1.266 . S
H231 C233 0.959 1_565 S
H232 C233 0.961 . S
C233 C223 1.510 . S
C233 H231 0.959 1_545 S
C233 H232 0.961 . S
C233 H234 0.960 . S
H234 C233 0.960 . S
H235 N215 0.862 . S
O236 Co204 1.920 . S
O236 C209 1.289 . S
C237 O229 1.258 . S
C237 O230 1.266 . S
Co238 O241 1.970 1_455 S
Co238 N255 1.989 . S
Co238 O263 1.967 . S
Co238 O270 1.920 . S
Co239 O242 1.966 1_455 S
Co239 N248 2.022 . S
Co239 N256 1.993 . S
Co239 O264 1.941 . S
C240 O241 1.258 . S
C240 O242 1.263 . S
O241 Co238 1.970 1_655 S
O241 C240 1.258 . S
O242 Co239 1.966 1_655 S
O242 C240 1.263 . S
C243 O244 1.235 . S
C243 O270 1.289 1_655 S
O244 C243 1.235 . S
C245 C247 1.400 . S
C245 N248 1.351 1_655 S
C245 C250 1.501 . S
C246 C247 1.387 1_455 S
C246 N249 1.341 . S
C247 C245 1.400 . S
C247 C246 1.387 1_655 S
N248 Co239 2.022 . S
N248 C245 1.351 1_455 S
N248 N249 1.365 . S
N249 C246 1.341 . S
N249 N248 1.365 . S
N249 H269 0.862 . S
C250 C245 1.501 . S
C250 H251 0.961 . S
C250 H252 0.961 . S
C250 H253 0.960 . S
H251 C250 0.961 . S
H252 C250 0.961 . S
H253 C250 0.960 . S
C254 N255 1.342 . S
C254 C258 1.401 . S
C254 C259 1.499 . S
N255 Co238 1.989 . S
N255 C254 1.342 . S
N255 N256 1.388 . S
N256 Co239 1.993 . S
N256 N255 1.388 . S
N256 C257 1.346 . S
C257 N256 1.346 . S
C257 C258 1.396 . S
C257 C267 1.510 . S
C258 C254 1.401 . S
C258 C257 1.396 . S
C259 C254 1.499 . S
C259 H260 0.959 . S
C259 H261 0.974 . S
C259 H262 0.961 . S
H260 C259 0.959 . S
H261 C259 0.974 . S
H262 C259 0.961 . S
O263 Co238 1.967 . S
O263 C271 1.258 . S
O264 Co239 1.941 . S
O264 C271 1.266 . S
H265 C267 0.959 . S
H266 C267 0.961 1_655 S
C267 C257 1.510 . S
C267 H265 0.959 . S
C267 H266 0.961 1_455 S
C267 H268 0.960 . S
H268 C267 0.960 . S
H269 N249 0.862 . S
O270 Co238 1.920 . S
O270 C243 1.289 1_455 S
C271 O263 1.258 . S
C271 O264 1.266 . S
C272 C273 1.170 . S
C272 C274 1.380 1_554 S
C273 C272 1.170 . S
C274 C272 1.380 1_556 S
C274 C275 1.170 . S
C275 C274 1.170 . S
C276 C277 1.170 . S
C276 C278 1.380 . S
C277 C276 1.170 . S
C278 C276 1.380 . S
C278 C279 1.170 . S
C279 C278 1.170 . S
C280 C281 1.170 . S
C280 C282 1.380 1_554 S
C281 C280 1.170 . S
C282 C280 1.380 1_556 S
C282 C283 1.170 . S
C283 C282 1.170 . S
C284 C285 1.170 . S
C284 C286 1.380 . S
C285 C284 1.170 . S
C286 C284 1.380 . S
C286 C287 1.170 . S
C287 C286 1.170 . S
C288 C289 1.170 . S
C288 C290 1.380 . S
C289 C288 1.170 . S
C290 C288 1.380 . S
C290 C291 1.170 . S
C291 C290 1.170 . S
C292 C293 1.170 . S
C292 C294 1.380 . S
C293 C292 1.170 . S
C294 C292 1.380 . S
C294 C295 1.170 . S
C295 C294 1.170 . S
C296 C297 1.170 . S
C296 C298 1.380 . S
C297 C296 1.170 . S
C298 C296 1.380 . S
C298 C299 1.170 . S
C299 C298 1.170 . S
C300 C301 1.170 . S
C300 C302 1.380 . S
C301 C300 1.170 . S
C302 C300 1.380 . S
C302 C303 1.170 . S
C303 C302 1.170 . S
C304 C305 1.170 . S
C304 C306 1.380 . S
C305 C304 1.170 . S
C306 C304 1.380 . S
C306 C307 1.170 . S
C307 C306 1.170 . S
C308 C309 1.170 . S
C308 C310 1.380 . S
C309 C308 1.170 . S
C310 C308 1.380 . S
C310 C311 1.170 . S
C311 C310 1.170 . S
C312 C313 1.170 . S
C312 C314 1.380 . S
C313 C312 1.170 . S
C314 C312 1.380 . S
C314 C315 1.170 . S
C315 C314 1.170 . S
C316 C317 1.170 . S
C316 C318 1.380 . S
C317 C316 1.170 . S
C318 C316 1.380 . S
C318 C319 1.170 . S
C319 C318 1.170 . S
C320 C321 1.170 . S
C320 C322 1.379 . S
C321 C320 1.170 . S
C322 C320 1.379 . S
C322 C323 1.172 1_445 S
C323 C322 1.172 1_665 S
C324 C325 1.170 1_455 S
C324 C326 1.380 1_545 S
C325 C324 1.170 1_655 S
C326 C324 1.380 1_565 S
C326 C327 1.170 . S
C327 C326 1.170 . S
C328 C329 1.170 . S
C328 C330 1.380 1_655 S
C329 C328 1.170 . S
C330 C328 1.380 1_455 S
C330 C331 1.170 1_545 S
C331 C330 1.170 1_565 S
C332 C333 1.170 1_445 S
C332 C334 1.381 . S
C333 C332 1.170 1_665 S
C334 C332 1.381 . S
C334 C335 1.170 . S
C335 C334 1.170 . S
C336 C337 1.170 . S
C336 C338 1.380 . S
C337 C336 1.170 . S
C338 C336 1.380 . S
C338 C339 1.170 1_545 S
C339 C338 1.170 1_565 S
C340 C341 1.170 . S
C340 C342 1.380 . S
C341 C340 1.170 . S
C342 C340 1.380 . S
C342 C343 1.170 1_455 S
C343 C342 1.170 1_655 S
C344 C345 1.170 1_545 S
C344 C346 1.380 . S
C345 C344 1.170 1_565 S
C346 C344 1.380 . S
C346 C347 1.170 . S
C347 C346 1.170 . S
C348 C349 1.170 . S
C348 C350 1.380 . S
C349 C348 1.170 . S
C350 C348 1.380 . S
C350 C351 1.170 1_455 S
C351 C350 1.170 1_655 S
C273 C20 1.699 . S
C275 C156 1.682 . S
C277 C190 1.700 . S
C279 C54 1.682 . S
C281 C88 1.706 . S
C283 C224 1.694 . S
C285 C258 1.692 . S
C287 C122 1.679 . S
C289 C172 1.396 . S
C291 C2 1.419 . S
C293 C206 1.405 . S
C295 C36 1.413 . S
C297 C70 1.391 . S
C299 C240 1.377 . S
C301 C138 1.385 . S
C303 C104 1.380 . S
C305 C135 1.451 . S
C307 C237 1.449 . S
C309 C33 1.451 . S
C311 C271 1.448 . S
C313 C67 1.461 . S
C315 C169 1.460 . S
C317 C101 1.454 . S
C319 C203 1.451 . S
C321 C5 0.592 . S
C323 C73 0.683 . S
C325 C39 0.666 . S
C327 C107 0.612 . S
C329 C209 0.620 . S
C331 C141 0.658 . S
C333 C243 0.681 . S
C335 C175 0.593 . S
C337 C9 1.363 . S
C339 C77 1.396 . S
C341 C111 1.394 . S
C343 C43 1.336 . S
C345 C145 1.380 . S
C347 C213 1.343 . S
C349 C179 1.401 . S
C351 C247 1.353 . S
