# Generated by pormake.
# Topology snl, (6)-cn, num edge types: 1
# Building blocks:
#     Node 0, Type 0, BuildingBlock: BETFAJ_clean_sbu_0, # of connection points: 6
#     Node 1, Type 0, BuildingBlock: BETFAJ_clean_sbu_0, # of connection points: 6
#     Node 2, Type 0, BuildingBlock: BETFAJ_clean_sbu_0, # of connection points: 6
#     Node 3, Type 0, BuildingBlock: BETFAJ_clean_sbu_0, # of connection points: 6
#     Node 4, Type 0, BuildingBlock: BETFAJ_clean_sbu_0, # of connection points: 6
#     Node 5, Type 0, BuildingBlock: BETFAJ_clean_sbu_0, # of connection points: 6
#     Node 6, Type 0, BuildingBlock: BETFAJ_clean_sbu_0, # of connection points: 6
#     Node 7, Type 0, BuildingBlock: BETFAJ_clean_sbu_0, # of connection points: 6
#     Node 8, Type 0, BuildingBlock: BETFAJ_clean_sbu_0, # of connection points: 6
#     Node 9, Type 0, BuildingBlock: BETFAJ_clean_sbu_0, # of connection points: 6
#     Node 10, Type 0, BuildingBlock: BETFAJ_clean_sbu_0, # of connection points: 6
#     Node 11, Type 0, BuildingBlock: BETFAJ_clean_sbu_0, # of connection points: 6
#     Node 12, Type 0, BuildingBlock: BETFAJ_clean_sbu_0, # of connection points: 6
#     Node 13, Type 0, BuildingBlock: BETFAJ_clean_sbu_0, # of connection points: 6
#     Node 14, Type 0, BuildingBlock: BETFAJ_clean_sbu_0, # of connection points: 6
#     Node 15, Type 0, BuildingBlock: BETFAJ_clean_sbu_0, # of connection points: 6
#     Edge 16, Type (0, 0), BuildingBlock: XIVTED_clean_linker_0, # of connection points: 2
#     Edge 17, Type (0, 0), BuildingBlock: XIVTED_clean_linker_0, # of connection points: 2
#     Edge 18, Type (0, 0), BuildingBlock: XIVTED_clean_linker_0, # of connection points: 2
#     Edge 19, Type (0, 0), BuildingBlock: XIVTED_clean_linker_0, # of connection points: 2
#     Edge 20, Type (0, 0), BuildingBlock: XIVTED_clean_linker_0, # of connection points: 2
#     Edge 21, Type (0, 0), BuildingBlock: XIVTED_clean_linker_0, # of connection points: 2
#     Edge 22, Type (0, 0), BuildingBlock: XIVTED_clean_linker_0, # of connection points: 2
#     Edge 23, Type (0, 0), BuildingBlock: XIVTED_clean_linker_0, # of connection points: 2
#     Edge 24, Type (0, 0), BuildingBlock: XIVTED_clean_linker_0, # of connection points: 2
#     Edge 25, Type (0, 0), BuildingBlock: XIVTED_clean_linker_0, # of connection points: 2
#     Edge 26, Type (0, 0), BuildingBlock: XIVTED_clean_linker_0, # of connection points: 2
#     Edge 27, Type (0, 0), BuildingBlock: XIVTED_clean_linker_0, # of connection points: 2
#     Edge 28, Type (0, 0), BuildingBlock: XIVTED_clean_linker_0, # of connection points: 2
#     Edge 29, Type (0, 0), BuildingBlock: XIVTED_clean_linker_0, # of connection points: 2
#     Edge 30, Type (0, 0), BuildingBlock: XIVTED_clean_linker_0, # of connection points: 2
#     Edge 31, Type (0, 0), BuildingBlock: XIVTED_clean_linker_0, # of connection points: 2
#     Edge 32, Type (0, 0), BuildingBlock: XIVTED_clean_linker_0, # of connection points: 2
#     Edge 33, Type (0, 0), BuildingBlock: XIVTED_clean_linker_0, # of connection points: 2
#     Edge 34, Type (0, 0), BuildingBlock: XIVTED_clean_linker_0, # of connection points: 2
#     Edge 35, Type (0, 0), BuildingBlock: XIVTED_clean_linker_0, # of connection points: 2
#     Edge 36, Type (0, 0), BuildingBlock: XIVTED_clean_linker_0, # of connection points: 2
#     Edge 37, Type (0, 0), BuildingBlock: XIVTED_clean_linker_0, # of connection points: 2
#     Edge 38, Type (0, 0), BuildingBlock: XIVTED_clean_linker_0, # of connection points: 2
#     Edge 39, Type (0, 0), BuildingBlock: XIVTED_clean_linker_0, # of connection points: 2
#     Edge 40, Type (0, 0), BuildingBlock: XIVTED_clean_linker_0, # of connection points: 2
#     Edge 41, Type (0, 0), BuildingBlock: XIVTED_clean_linker_0, # of connection points: 2
#     Edge 42, Type (0, 0), BuildingBlock: XIVTED_clean_linker_0, # of connection points: 2
#     Edge 43, Type (0, 0), BuildingBlock: XIVTED_clean_linker_0, # of connection points: 2
#     Edge 44, Type (0, 0), BuildingBlock: XIVTED_clean_linker_0, # of connection points: 2
#     Edge 45, Type (0, 0), BuildingBlock: XIVTED_clean_linker_0, # of connection points: 2
#     Edge 46, Type (0, 0), BuildingBlock: XIVTED_clean_linker_0, # of connection points: 2
#     Edge 47, Type (0, 0), BuildingBlock: XIVTED_clean_linker_0, # of connection points: 2
#     Edge 48, Type (0, 0), BuildingBlock: XIVTED_clean_linker_0, # of connection points: 2
#     Edge 49, Type (0, 0), BuildingBlock: XIVTED_clean_linker_0, # of connection points: 2
#     Edge 50, Type (0, 0), BuildingBlock: XIVTED_clean_linker_0, # of connection points: 2
#     Edge 51, Type (0, 0), BuildingBlock: XIVTED_clean_linker_0, # of connection points: 2
#     Edge 52, Type (0, 0), BuildingBlock: XIVTED_clean_linker_0, # of connection points: 2
#     Edge 53, Type (0, 0), BuildingBlock: XIVTED_clean_linker_0, # of connection points: 2
#     Edge 54, Type (0, 0), BuildingBlock: XIVTED_clean_linker_0, # of connection points: 2
#     Edge 55, Type (0, 0), BuildingBlock: XIVTED_clean_linker_0, # of connection points: 2
#     Edge 56, Type (0, 0), BuildingBlock: XIVTED_clean_linker_0, # of connection points: 2
#     Edge 57, Type (0, 0), BuildingBlock: XIVTED_clean_linker_0, # of connection points: 2
#     Edge 58, Type (0, 0), BuildingBlock: XIVTED_clean_linker_0, # of connection points: 2
#     Edge 59, Type (0, 0), BuildingBlock: XIVTED_clean_linker_0, # of connection points: 2
#     Edge 60, Type (0, 0), BuildingBlock: XIVTED_clean_linker_0, # of connection points: 2
#     Edge 61, Type (0, 0), BuildingBlock: XIVTED_clean_linker_0, # of connection points: 2
#     Edge 62, Type (0, 0), BuildingBlock: XIVTED_clean_linker_0, # of connection points: 2
#     Edge 63, Type (0, 0), BuildingBlock: XIVTED_clean_linker_0, # of connection points: 2
# Relax obj value: 0.189
# Max RMSD: 0.253
# Mean RMSD: 0.225
data_MOF--net-snl--node1-BETFAJ_clean_sbu_0--edge1-XIVTED_clean_linker_0
_symmetry_space_group_name_H-M    P1
_symmetry_Int_Tables_number       1
_symmetry_cell_setting            triclinic
loop_
_symmetry_equiv_pos_as_xyz
'x, y, z'
_cell_length_a     57.711148
_cell_length_b     57.827832
_cell_length_c     26.181183
_cell_angle_alpha  102.87486
_cell_angle_beta   90.021475
_cell_angle_gamma 89.932055
loop_
_atom_site_label
_atom_site_type_symbol
_atom_site_fract_x
_atom_site_fract_y
_atom_site_fract_z
_atom_type_partial_charge
Sm0 Sm 0.14772 0.62569 0.10584 0.0
Sm1 Sm 0.12889 0.6308 0.21092 0.0
C2 C 0.15806 0.61284 1.00437 0.0
C3 C 0.15202 0.61619 0.95149 0.0
C4 C 0.1486 0.59616 0.91073 0.0
C5 C 0.14518 0.59855 0.85922 0.0
C6 C 0.14519 0.62109 0.84716 0.0
C7 C 0.14806 0.64121 0.88834 0.0
C8 C 0.15141 0.6388 0.93995 0.0
C9 C 0.14584 0.67277 0.15874 0.0
C10 C 0.09088 0.63386 0.12619 0.0
C11 C 0.11786 0.64054 0.31217 0.0
C12 C 0.12454 0.63706 0.36463 0.0
C13 C 0.12843 0.65704 0.4053 0.0
C14 C 0.13238 0.65459 0.45657 0.0
C15 C 0.13242 0.63204 0.46853 0.0
C16 C 0.12915 0.61196 0.42742 0.0
C17 C 0.12525 0.61444 0.37604 0.0
C18 C 0.13104 0.58428 0.1518 0.0
C19 C 0.18511 0.62748 0.19841 0.0
O20 O 0.14355 0.60112 0.02742 0.0
O21 O 0.16799 0.63045 0.03696 0.0
O22 O 0.13001 0.65766 0.15891 0.0
O23 O 0.16307 0.66315 0.13006 0.0
O24 O 0.10696 0.62337 0.09249 0.0
O25 O 0.09661 0.64297 0.17504 0.0
O26 O 0.13094 0.65425 0.29087 0.0
O27 O 0.10958 0.62243 0.27798 0.0
O28 O 0.14689 0.5995 0.15666 0.0
O29 O 0.11318 0.59326 0.17915 0.0
O30 O 0.16775 0.63683 0.22859 0.0
O31 O 0.18134 0.61762 0.14842 0.0
H32 H 0.14919 0.57853 0.91851 0.0
H33 H 0.14331 0.58265 0.82859 0.0
H34 H 0.14782 0.65885 0.88067 0.0
H35 H 0.15396 0.6546 0.97057 0.0
H36 H 0.12776 0.6747 0.39769 0.0
H37 H 0.13454 0.67046 0.48716 0.0
H38 H 0.12942 0.59431 0.435 0.0
H39 H 0.12235 0.59866 0.34556 0.0
Sm40 Sm 0.64958 0.88684 0.42173 0.0
Sm41 Sm 0.6292 0.88271 0.3178 0.0
C42 C 0.66102 0.89849 0.52281 0.0
C43 C 0.65513 0.89465 0.57561 0.0
C44 C 0.6441 0.9127 0.61246 0.0
C45 C 0.64058 0.91039 0.66403 0.0
C46 C 0.64817 0.89003 0.68027 0.0
C47 C 0.65884 0.87177 0.64309 0.0
C48 C 0.6623 0.87405 0.59147 0.0
C49 C 0.64656 0.84004 0.36721 0.0
C50 C 0.59254 0.87965 0.4054 0.0
C51 C 0.61694 0.87383 0.21723 0.0
C52 C 0.62331 0.87767 0.1647 0.0
C53 C 0.63531 0.86001 0.12874 0.0
C54 C 0.63908 0.86226 0.07721 0.0
C55 C 0.63078 0.88215 0.0601 0.0
C56 C 0.61924 0.90007 0.09647 0.0
C57 C 0.6155 0.89783 0.14801 0.0
C58 C 0.63191 0.92882 0.37834 0.0
C59 C 0.68568 0.88568 0.327 0.0
O60 O 0.64667 0.91091 0.50094 0.0
O61 O 0.67049 0.88098 0.48899 0.0
O62 O 0.63094 0.85554 0.36884 0.0
O63 O 0.66427 0.84912 0.39486 0.0
O64 O 0.60914 0.88974 0.43802 0.0
O65 O 0.59742 0.87073 0.35594 0.0
O66 O 0.62991 0.85961 0.2375 0.0
O67 O 0.60917 0.89188 0.25238 0.0
O68 O 0.64778 0.91352 0.37207 0.0
O69 O 0.6138 0.92018 0.35154 0.0
O70 O 0.66791 0.87682 0.2976 0.0
O71 O 0.68262 0.89497 0.37753 0.0
H72 H 0.63871 0.92895 0.60177 0.0
H73 H 0.63258 0.92496 0.69164 0.0
H74 H 0.66464 0.8557 0.65393 0.0
H75 H 0.67102 0.85983 0.56433 0.0
H76 H 0.64125 0.84407 0.13997 0.0
H77 H 0.64776 0.84795 0.05027 0.0
H78 H 0.6129 0.9158 0.08501 0.0
H79 H 0.606 0.91169 0.17441 0.0
Sm80 Sm 0.37727 0.40141 0.68086 0.0
Sm81 Sm 0.37454 0.37412 0.56108 0.0
C82 C 0.36399 0.41646 0.77997 0.0
C83 C 0.36729 0.41259 0.83377 0.0
C84 C 0.34772 0.40811 0.86186 0.0
C85 C 0.34984 0.40426 0.91256 0.0
C86 C 0.37166 0.40481 0.93686 0.0
C87 C 0.39132 0.40961 0.90893 0.0
C88 C 0.38917 0.4134 0.85785 0.0
C89 C 0.42197 0.39352 0.64288 0.0
C90 C 0.3852 0.34247 0.64427 0.0
C91 C 0.37617 0.35901 0.45731 0.0
C92 C 0.37653 0.36731 0.40724 0.0
C93 C 0.39741 0.37308 0.38523 0.0
C94 C 0.39769 0.37855 0.33553 0.0
C95 C 0.37712 0.3782 0.30634 0.0
C96 C 0.35621 0.37298 0.32907 0.0
C97 C 0.35594 0.36754 0.37859 0.0
C98 C 0.3342 0.37761 0.62013 0.0
C99 C 0.37479 0.43284 0.58975 0.0
O100 O 0.35364 0.39941 0.74651 0.0
O101 O 0.38051 0.42671 0.75858 0.0
O102 O 0.4035 0.3872 0.61758 0.0
O103 O 0.41695 0.40485 0.69019 0.0
O104 O 0.37801 0.36077 0.68131 0.0
O105 O 0.38869 0.34425 0.59548 0.0
O106 O 0.39468 0.36207 0.48709 0.0
O107 O 0.35693 0.36189 0.48439 0.0
O108 O 0.3489 0.39386 0.62106 0.0
O109 O 0.34035 0.35861 0.5861 0.0
O110 O 0.37777 0.41274 0.55494 0.0
O111 O 0.37196 0.43347 0.64061 0.0
H112 H 0.33063 0.40759 0.84447 0.0
H113 H 0.33425 0.40108 0.93295 0.0
H114 H 0.40841 0.41001 0.92615 0.0
H115 H 0.40461 0.4168 0.8372 0.0
H116 H 0.41366 0.37283 0.4058 0.0
H117 H 0.41416 0.38226 0.31928 0.0
H118 H 0.33995 0.37291 0.30839 0.0
H119 H 0.33955 0.36301 0.39398 0.0
Sm120 Sm 0.87577 0.11096 0.84306 0.0
Sm121 Sm 0.87465 0.13892 0.96327 0.0
C122 C 0.86193 0.09608 0.74423 0.0
C123 C 0.86537 0.09959 0.69007 0.0
C124 C 0.84613 0.10547 0.66261 0.0
C125 C 0.84832 0.10831 0.61108 0.0
C126 C 0.86986 0.10526 0.58514 0.0
C127 C 0.88924 0.09958 0.61291 0.0
C128 C 0.88702 0.09673 0.66472 0.0
C129 C 0.92094 0.11893 0.87866 0.0
C130 C 0.88298 0.17 0.87824 0.0
C131 C 0.87811 0.15391 0.06692 0.0
C132 C 0.87801 0.14542 0.11685 0.0
C133 C 0.89834 0.13724 0.13683 0.0
C134 C 0.89835 0.13118 0.18596 0.0
C135 C 0.87805 0.13318 0.21657 0.0
C136 C 0.85769 0.14112 0.19616 0.0
C137 C 0.8577 0.14722 0.14723 0.0
C138 C 0.83353 0.13551 0.90691 0.0
C139 C 0.87331 0.08008 0.93509 0.0
O140 O 0.8521 0.11354 0.7777 0.0
O141 O 0.87807 0.0853 0.76561 0.0
O142 O 0.90267 0.12542 0.90456 0.0
O143 O 0.91543 0.10742 0.83181 0.0
O144 O 0.87539 0.15142 0.84263 0.0
O145 O 0.88786 0.16868 0.92681 0.0
O146 O 0.89612 0.14914 0.0358 0.0
O147 O 0.85857 0.15295 0.04118 0.0
O148 O 0.8483 0.11919 0.90496 0.0
O149 O 0.83993 0.1544 0.94097 0.0
O150 O 0.87676 0.10019 0.96962 0.0
O151 O 0.87031 0.07932 0.88422 0.0
H152 H 0.82922 0.1078 0.68109 0.0
H153 H 0.83305 0.11312 0.59173 0.0
H154 H 0.90608 0.09688 0.59431 0.0
H155 H 0.90221 0.09217 0.68473 0.0
H156 H 0.91438 0.13581 0.11489 0.0
H157 H 0.91432 0.12491 0.19992 0.0
H158 H 0.84179 0.14331 0.21869 0.0
H159 H 0.84181 0.15383 0.13366 0.0
Sm160 Sm 0.14955 0.38684 0.92376 0.0
Sm161 Sm 0.12906 0.38327 0.81983 0.0
C162 C 0.16107 0.3984 0.02476 0.0
C163 C 0.1547 0.39535 0.07782 0.0
C164 C 0.14876 0.41536 0.11685 0.0
C165 C 0.14484 0.41341 0.1685 0.0
C166 C 0.14691 0.39139 0.18259 0.0
C167 C 0.15243 0.37126 0.14322 0.0
C168 C 0.15628 0.3732 0.09147 0.0
C169 C 0.14611 0.34022 0.8684 0.0
C170 C 0.09241 0.37998 0.90753 0.0
C171 C 0.11664 0.37478 0.71938 0.0
C172 C 0.12341 0.37776 0.66646 0.0
C173 C 0.12982 0.35777 0.62778 0.0
C174 C 0.13394 0.35965 0.57615 0.0
C175 C 0.1316 0.38157 0.56171 0.0
C176 C 0.12565 0.40168 0.60073 0.0
C177 C 0.12158 0.3998 0.65244 0.0
C178 C 0.13194 0.42914 0.8815 0.0
C179 C 0.18563 0.3852 0.82878 0.0
O180 O 0.14755 0.41144 1.00253 0.0
O181 O 0.16965 0.38017 0.99141 0.0
O182 O 0.13064 0.35591 0.87041 0.0
O183 O 0.16392 0.34902 0.89611 0.0
O184 O 0.10912 0.3896 0.94038 0.0
O185 O 0.09711 0.37156 0.85777 0.0
O186 O 0.12857 0.35984 0.73979 0.0
O187 O 0.11004 0.39349 0.75427 0.0
O188 O 0.14779 0.41378 0.87471 0.0
O189 O 0.11378 0.42067 0.85469 0.0
O190 O 0.16768 0.3769 0.79937 0.0
O191 O 0.1828 0.39431 0.87945 0.0
H192 H 0.14769 0.4327 0.10765 0.0
H193 H 0.14092 0.42936 0.19776 0.0
H194 H 0.15386 0.35396 0.15242 0.0
H195 H 0.16088 0.35741 0.06242 0.0
H196 H 0.13105 0.34048 0.63713 0.0
H197 H 0.13817 0.34372 0.54718 0.0
H198 H 0.124 0.41891 0.59127 0.0
H199 H 0.11656 0.41556 0.68112 0.0
Sm200 Sm 0.87595 0.90214 0.18222 0.0
Sm201 Sm 0.87499 0.87667 0.06152 0.0
C202 C 0.86169 0.9171 0.28046 0.0
C203 C 0.86518 0.91351 0.33437 0.0
C204 C 0.84615 0.90677 0.3611 0.0
C205 C 0.84853 0.90337 0.41209 0.0
C206 C 0.87004 0.9067 0.438 0.0
C207 C 0.88912 0.91366 0.41137 0.0
C208 C 0.88674 0.91698 0.36004 0.0
C209 C 0.92119 0.89212 0.14955 0.0
C210 C 0.88173 0.84331 0.14258 0.0
C211 C 0.8809 0.86218 0.95856 0.0
C212 C 0.87903 0.87012 0.9083 0.0
C213 C 0.89855 0.87882 0.8864 0.0
C214 C 0.89743 0.88405 0.83664 0.0
C215 C 0.8768 0.88053 0.8072 0.0
C216 C 0.85715 0.87233 0.8297 0.0
C217 C 0.85827 0.86713 0.87942 0.0
C218 C 0.83342 0.87981 0.1159 0.0
C219 C 0.87288 0.93515 0.09299 0.0
O220 O 0.852 0.89957 0.24692 0.0
O221 O 0.87787 0.92792 0.25936 0.0
O222 O 0.90324 0.88754 0.12134 0.0
O223 O 0.91531 0.90233 0.19705 0.0
O224 O 0.8741 0.86125 0.17991 0.0
O225 O 0.88773 0.84634 0.09593 0.0
O226 O 0.8976 0.87104 0.99092 0.0
O227 O 0.86171 0.85901 0.98275 0.0
O228 O 0.84857 0.89587 0.12006 0.0
O229 O 0.83957 0.86141 0.08008 0.0
O230 O 0.87459 0.91543 0.05658 0.0
O231 O 0.87225 0.93513 0.14394 0.0
H232 H 0.82928 0.9042 0.34248 0.0
H233 H 0.83335 0.89843 0.4315 0.0
H234 H 0.90599 0.91621 0.42989 0.0
H235 H 0.90176 0.92219 0.34051 0.0
H236 H 0.91493 0.88104 0.90714 0.0
H237 H 0.913 0.89006 0.82051 0.0
H238 H 0.84086 0.86974 0.80869 0.0
H239 H 0.84293 0.86029 0.89472 0.0
Sm240 Sm 0.37541 0.61039 0.3437 0.0
Sm241 Sm 0.37435 0.63781 0.46419 0.0
C242 C 0.36175 0.59536 0.24481 0.0
C243 C 0.36524 0.59968 0.19112 0.0
C244 C 0.35096 0.61592 0.17299 0.0
C245 C 0.35277 0.61892 0.12151 0.0
C246 C 0.36879 0.60566 0.08615 0.0
C247 C 0.38333 0.58963 0.10443 0.0
C248 C 0.38151 0.5866 0.15613 0.0
C249 C 0.42051 0.62105 0.37723 0.0
C250 C 0.38133 0.66936 0.37951 0.0
C251 C 0.37966 0.65284 0.56729 0.0
C252 C 0.37797 0.64486 0.6175 0.0
C253 C 0.39184 0.62643 0.62808 0.0
C254 C 0.39092 0.62043 0.67722 0.0
C255 C 0.37604 0.63263 0.71694 0.0
C256 C 0.36198 0.65081 0.70581 0.0
C257 C 0.36299 0.65686 0.6569 0.0
C258 C 0.333 0.63415 0.40887 0.0
C259 C 0.37252 0.57895 0.43535 0.0
O260 O 0.35123 0.61206 0.27898 0.0
O261 O 0.37826 0.58491 0.26591 0.0
O262 O 0.40233 0.62586 0.40451 0.0
O263 O 0.41494 0.61019 0.32996 0.0
O264 O 0.37328 0.65091 0.34418 0.0
O265 O 0.38712 0.66768 0.42736 0.0
O266 O 0.3967 0.64464 0.53526 0.0
O267 O 0.36031 0.65513 0.54277 0.0
O268 O 0.34805 0.61801 0.406 0.0
O269 O 0.33912 0.65287 0.44383 0.0
O270 O 0.37426 0.59908 0.47066 0.0
O271 O 0.37168 0.57818 0.38407 0.0
H272 H 0.33805 0.62617 0.19844 0.0
H273 H 0.34151 0.63172 0.10944 0.0
H274 H 0.39572 0.57889 0.07837 0.0
H275 H 0.39257 0.57369 0.16837 0.0
H276 H 0.40358 0.61677 0.59863 0.0
H277 H 0.40181 0.60615 0.684 0.0
H278 H 0.35055 0.66086 0.73542 0.0
H279 H 0.35226 0.67128 0.65015 0.0
Sm280 Sm 0.64836 0.12587 0.60422 0.0
Sm281 Sm 0.62825 0.13014 0.7083 0.0
C282 C 0.6596 0.11416 0.50305 0.0
C283 C 0.65347 0.11783 0.45025 0.0
C284 C 0.64249 0.09964 0.41374 0.0
C285 C 0.63871 0.10181 0.36215 0.0
C286 C 0.64601 0.12217 0.34558 0.0
C287 C 0.65664 0.14056 0.38241 0.0
C288 C 0.66035 0.13842 0.43405 0.0
C289 C 0.64528 0.17271 0.65854 0.0
C290 C 0.59132 0.13302 0.62107 0.0
C291 C 0.61609 0.1391 0.80892 0.0
C292 C 0.62261 0.13542 0.86149 0.0
C293 C 0.63439 0.15328 0.89732 0.0
C294 C 0.63833 0.15113 0.94886 0.0
C295 C 0.63044 0.13114 0.96609 0.0
C296 C 0.61909 0.11304 0.92988 0.0
C297 C 0.61516 0.11518 0.87832 0.0
C298 C 0.63078 0.08399 0.64794 0.0
C299 C 0.68473 0.12723 0.69854 0.0
O300 O 0.6455 0.10166 0.52521 0.0
O301 O 0.66895 0.13181 0.53664 0.0
O302 O 0.62971 0.15722 0.65707 0.0
O303 O 0.663 0.1636 0.63089 0.0
O304 O 0.60789 0.1229 0.58834 0.0
O305 O 0.59633 0.14204 0.67042 0.0
O306 O 0.62887 0.15337 0.78845 0.0
O307 O 0.60847 0.12093 0.77394 0.0
O308 O 0.64671 0.0992 0.65392 0.0
O309 O 0.61276 0.09275 0.67494 0.0
O310 O 0.66699 0.13606 0.72813 0.0
O311 O 0.68157 0.11789 0.64808 0.0
H312 H 0.63731 0.0834 0.42469 0.0
H313 H 0.63076 0.08715 0.3348 0.0
H314 H 0.66222 0.15663 0.37129 0.0
H315 H 0.66903 0.15274 0.46093 0.0
H316 H 0.64003 0.16928 0.88599 0.0
H317 H 0.64685 0.16557 0.9757 0.0
H318 H 0.61305 0.09724 0.94146 0.0
H319 H 0.60583 0.10117 0.85201 0.0
Sm320 Sm 0.88441 0.38286 0.81702 0.0
Sm321 Sm 0.86389 0.38574 0.92182 0.0
C322 C 0.89677 0.37325 0.71676 0.0
C323 C 0.89022 0.37633 0.66385 0.0
C324 C 0.88193 0.35681 0.62635 0.0
C325 C 0.87801 0.35858 0.57463 0.0
C326 C 0.88243 0.37989 0.55894 0.0
C327 C 0.89019 0.39962 0.59682 0.0
C328 C 0.8941 0.39785 0.64863 0.0
C329 C 0.88287 0.42816 0.88026 0.0
C330 C 0.82753 0.38753 0.82801 0.0
C331 C 0.85225 0.3964 0.02271 0.0
C332 C 0.85909 0.39386 0.07584 0.0
C333 C 0.86647 0.41386 0.11324 0.0
C334 C 0.87044 0.41245 0.16522 0.0
C335 C 0.86697 0.39103 0.18121 0.0
C336 C 0.86011 0.37088 0.14341 0.0
C337 C 0.85618 0.37228 0.09141 0.0
C338 C 0.86658 0.33967 0.86338 0.0
C339 C 0.92091 0.37897 0.90547 0.0
O340 O 0.88408 0.35902 0.73763 0.0
O341 O 0.90418 0.39177 0.75118 0.0
O342 O 0.86667 0.41319 0.87409 0.0
O343 O 0.90053 0.41972 0.8514 0.0
O344 O 0.84541 0.38157 0.79646 0.0
O345 O 0.83018 0.3928 0.87948 0.0
O346 O 0.86451 0.41046 1.00055 0.0
O347 O 0.84499 0.37752 0.98934 0.0
O348 O 0.8823 0.35514 0.86654 0.0
O349 O 0.84889 0.34845 0.89156 0.0
O350 O 0.90417 0.38816 0.93864 0.0
O351 O 0.91629 0.37102 0.85548 0.0
H352 H 0.87896 0.33993 0.63671 0.0
H353 H 0.8717 0.34313 0.54678 0.0
H354 H 0.89403 0.41624 0.58608 0.0
H355 H 0.90073 0.41319 0.67633 0.0
H356 H 0.86867 0.43078 0.10258 0.0
H357 H 0.87606 0.42825 0.193 0.0
H358 H 0.85697 0.35416 0.15431 0.0
H359 H 0.85025 0.35656 0.06382 0.0
Sm360 Sm 0.38264 0.1285 0.70797 0.0
Sm361 Sm 0.36317 0.12351 0.59416 0.0
C362 C 0.39342 0.14013 0.80902 0.0
C363 C 0.38695 0.13647 0.86146 0.0
C364 C 0.37983 0.156 0.90043 0.0
C365 C 0.37561 0.15357 0.95159 0.0
C366 C 0.37854 0.13154 0.9652 0.0
C367 C 0.38519 0.11185 0.9258 0.0
C368 C 0.38938 0.11428 0.87454 0.0
C369 C 0.38196 0.08331 0.64433 0.0
C370 C 0.3259 0.12455 0.69155 0.0
C371 C 0.3514 0.10462 0.49593 0.0
C372 C 0.35493 0.10814 0.44222 0.0
C373 C 0.36014 0.08849 0.40175 0.0
C374 C 0.36281 0.09108 0.3502 0.0
C375 C 0.36025 0.11343 0.33784 0.0
C376 C 0.3553 0.13318 0.37871 0.0
C377 C 0.35271 0.13057 0.43036 0.0
C378 C 0.37155 0.17114 0.6341 0.0
C379 C 0.41909 0.13243 0.61865 0.0
O380 O 0.37927 0.15263 0.78673 0.0
O381 O 0.40308 0.12249 0.77567 0.0
O382 O 0.36622 0.09871 0.64831 0.0
O383 O 0.39883 0.09121 0.67635 0.0
O384 O 0.34366 0.12603 0.72393 0.0
O385 O 0.32857 0.12332 0.64058 0.0
O386 O 0.36936 0.09745 0.51894 0.0
O387 O 0.33861 0.12025 0.52782 0.0
O388 O 0.37487 0.15464 0.65793 0.0
O389 O 0.36376 0.16249 0.58732 0.0
O390 O 0.40368 0.12082 0.58465 0.0
O391 O 0.41328 0.14171 0.66762 0.0
H392 H 0.37792 0.17333 0.89154 0.0
H393 H 0.37015 0.16904 0.98059 0.0
H394 H 0.38786 0.09467 0.93489 0.0
H395 H 0.39499 0.09888 0.84552 0.0
H396 H 0.36203 0.07103 0.40999 0.0
H397 H 0.36703 0.07555 0.32007 0.0
H398 H 0.35297 0.15062 0.37072 0.0
H399 H 0.34875 0.14607 0.46085 0.0
Sm400 Sm 0.63779 0.63829 0.46329 0.0
Sm401 Sm 0.63583 0.61038 0.34326 0.0
C402 C 0.63443 0.65371 0.56683 0.0
C403 C 0.63537 0.64567 0.61728 0.0
C404 C 0.61539 0.63767 0.63895 0.0
C405 C 0.616 0.63236 0.6888 0.0
C406 C 0.63656 0.63507 0.71862 0.0
C407 C 0.65663 0.64256 0.69629 0.0
C408 C 0.65601 0.64786 0.64657 0.0
C409 C 0.67862 0.63337 0.4062 0.0
C410 C 0.63738 0.5793 0.43508 0.0
C411 C 0.6493 0.59469 0.24446 0.0
C412 C 0.64616 0.59905 0.19084 0.0
C413 C 0.66543 0.60569 0.16461 0.0
C414 C 0.66335 0.60951 0.11379 0.0
C415 C 0.64192 0.60674 0.08741 0.0
C416 C 0.62259 0.59995 0.11362 0.0
C417 C 0.62467 0.59618 0.16472 0.0
C418 C 0.59103 0.6218 0.37807 0.0
C419 C 0.63095 0.66955 0.37816 0.0
O420 O 0.61646 0.64779 0.53609 0.0
O421 O 0.65378 0.65364 0.54072 0.0
O422 O 0.66344 0.61755 0.40498 0.0
O423 O 0.67274 0.65273 0.43945 0.0
O424 O 0.63548 0.59957 0.46996 0.0
O425 O 0.63931 0.57838 0.38393 0.0
O426 O 0.66039 0.61105 0.27829 0.0
O427 O 0.63229 0.58505 0.26575 0.0
O428 O 0.60938 0.6265 0.40471 0.0
O429 O 0.59622 0.61075 0.33069 0.0
O430 O 0.63848 0.65078 0.34292 0.0
O431 O 0.62537 0.66829 0.4264 0.0
H432 H 0.59909 0.63603 0.61795 0.0
H433 H 0.60011 0.62689 0.70466 0.0
H434 H 0.6729 0.6445 0.71738 0.0
H435 H 0.67172 0.65414 0.63151 0.0
H436 H 0.68226 0.60779 0.1834 0.0
H437 H 0.67874 0.61429 0.09486 0.0
H438 H 0.60575 0.59783 0.09493 0.0
H439 H 0.60945 0.59104 0.18368 0.0
Sm440 Sm 0.13816 0.87487 0.0608 0.0
Sm441 Sm 0.13722 0.90222 0.18135 0.0
C442 C 0.13231 0.86004 0.95779 0.0
C443 C 0.13426 0.86786 0.9073 0.0
C444 C 0.1158 0.87948 0.88819 0.0
C445 C 0.11693 0.88471 0.83836 0.0
C446 C 0.13648 0.87834 0.80604 0.0
C447 C 0.15512 0.86719 0.82577 0.0
C448 C 0.15398 0.86196 0.8755 0.0
C449 C 0.17968 0.87862 0.11533 0.0
C450 C 0.14026 0.93376 0.08992 0.0
C451 C 0.1511 0.91739 0.27998 0.0
C452 C 0.14766 0.91336 0.33375 0.0
C453 C 0.16597 0.90387 0.35806 0.0
C454 C 0.16366 0.90027 0.40896 0.0
C455 C 0.14298 0.90618 0.43741 0.0
C456 C 0.12466 0.91589 0.41325 0.0
C457 C 0.12695 0.91941 0.36202 0.0
C458 C 0.09211 0.89156 0.14787 0.0
C459 C 0.13136 0.84328 0.14551 0.0
O460 O 0.11556 0.86891 0.99007 0.0
O461 O 0.15149 0.85692 0.98214 0.0
O462 O 0.16452 0.89471 0.11886 0.0
O463 O 0.17359 0.85997 0.08011 0.0
O464 O 0.13859 0.91365 0.05449 0.0
O465 O 0.14098 0.93447 0.14117 0.0
O466 O 0.16134 0.90032 0.24621 0.0
O467 O 0.13468 0.9279 0.25874 0.0
O468 O 0.11029 0.8868 0.12067 0.0
O469 O 0.09765 0.90232 0.19522 0.0
O470 O 0.13949 0.86171 0.18078 0.0
O471 O 0.12544 0.84501 0.09776 0.0
H472 H 0.1002 0.88406 0.9112 0.0
H473 H 0.10211 0.89306 0.82453 0.0
H474 H 0.17064 0.86234 0.80264 0.0
H475 H 0.16846 0.85284 0.88861 0.0
H476 H 0.18226 0.89934 0.33768 0.0
H477 H 0.17832 0.8932 0.42636 0.0
H478 H 0.10842 0.9205 0.43367 0.0
H479 H 0.11252 0.92686 0.34465 0.0
Sm480 Sm 0.88035 0.62942 0.20866 0.0
Sm481 Sm 0.8622 0.62185 0.09523 0.0
C482 C 0.89017 0.64148 0.3104 0.0
C483 C 0.88413 0.63698 0.36252 0.0
C484 C 0.87379 0.65509 0.40045 0.0
C485 C 0.86996 0.65216 0.45145 0.0
C486 C 0.8765 0.63107 0.46602 0.0
C487 C 0.88641 0.61274 0.42767 0.0
C488 C 0.89023 0.61567 0.37659 0.0
C489 C 0.88061 0.58329 0.14886 0.0
C490 C 0.82395 0.62324 0.19027 0.0
C491 C 0.8525 0.60137 0.99644 0.0
C492 C 0.85572 0.60525 0.94278 0.0
C493 C 0.86409 0.58665 0.90316 0.0
C494 C 0.86653 0.5895 0.85169 0.0
C495 C 0.86056 0.61105 0.83844 0.0
C496 C 0.85241 0.62979 0.87846 0.0
C497 C 0.85005 0.62694 0.93003 0.0
C498 C 0.86655 0.67021 0.13023 0.0
C499 C 0.91765 0.63319 0.12212 0.0
O500 O 0.87505 0.65283 0.28777 0.0
O501 O 0.90124 0.62492 0.27708 0.0
O502 O 0.86468 0.59831 0.15165 0.0
O503 O 0.89761 0.59225 0.17937 0.0
O504 O 0.84131 0.62675 0.22391 0.0
O505 O 0.8272 0.62019 0.13899 0.0
O506 O 0.87103 0.59626 0.02071 0.0
O507 O 0.83812 0.61548 0.02749 0.0
O508 O 0.87141 0.65529 0.1577 0.0
O509 O 0.85933 0.65959 0.08419 0.0
O510 O 0.90287 0.62036 0.08842 0.0
O511 O 0.91089 0.64348 0.16976 0.0
H512 H 0.86906 0.67177 0.39095 0.0
H513 H 0.86196 0.66654 0.47957 0.0
H514 H 0.89192 0.59636 0.43748 0.0
H515 H 0.89843 0.60141 0.34855 0.0
H516 H 0.86865 0.56977 0.91201 0.0
H517 H 0.87325 0.57479 0.82233 0.0
H518 H 0.84739 0.64656 0.86983 0.0
H519 H 0.84357 0.64166 0.95974 0.0
Sm520 Sm 0.13891 0.13896 0.9629 0.0
Sm521 Sm 0.1364 0.11052 0.84367 0.0
C522 C 0.13737 0.15462 0.0666 0.0
C523 C 0.13761 0.14682 0.11729 0.0
C524 C 0.11832 0.136 0.13523 0.0
C525 C 0.1184 0.13078 0.18525 0.0
C526 C 0.13771 0.13638 0.21879 0.0
C527 C 0.15714 0.14666 0.20004 0.0
C528 C 0.15705 0.15186 0.15026 0.0
C529 C 0.17917 0.13481 0.90373 0.0
C530 C 0.13899 0.07999 0.93599 0.0
C531 C 0.14935 0.09525 0.74425 0.0
C532 C 0.14602 0.09991 0.69084 0.0
C533 C 0.16438 0.10957 0.66709 0.0
C534 C 0.16222 0.11344 0.61632 0.0
C535 C 0.14163 0.10766 0.58739 0.0
C536 C 0.12325 0.09784 0.61105 0.0
C537 C 0.1254 0.09402 0.66211 0.0
C538 C 0.0916 0.11918 0.88125 0.0
C539 C 0.12988 0.16974 0.87782 0.0
O540 O 0.11881 0.15075 0.03702 0.0
O541 O 0.15657 0.15219 0.03936 0.0
O542 O 0.16457 0.11859 0.90394 0.0
O543 O 0.17288 0.15427 0.93609 0.0
O544 O 0.13612 0.10032 0.97024 0.0
O545 O 0.14163 0.07892 0.88493 0.0
O546 O 0.16061 0.11139 0.77823 0.0
O547 O 0.13245 0.08553 0.76567 0.0
O548 O 0.1101 0.12558 0.90634 0.0
O549 O 0.09666 0.1074 0.83434 0.0
O550 O 0.13702 0.15091 0.8422 0.0
O551 O 0.12537 0.16868 0.92669 0.0
H552 H 0.10296 0.13198 0.11113 0.0
H553 H 0.10303 0.12304 0.19823 0.0
H554 H 0.17253 0.15084 0.22399 0.0
H555 H 0.17216 0.16028 0.13788 0.0
H556 H 0.18062 0.11396 0.68771 0.0
H557 H 0.17694 0.12058 0.59939 0.0
H558 H 0.10706 0.09332 0.59034 0.0
H559 H 0.11094 0.0864 0.67892 0.0
Sm560 Sm 0.63965 0.37366 0.56004 0.0
Sm561 Sm 0.63686 0.40211 0.67962 0.0
C562 C 0.63724 0.35799 0.45646 0.0
C563 C 0.6381 0.36589 0.40602 0.0
C564 C 0.62226 0.3824 0.39381 0.0
C565 C 0.6228 0.38834 0.34453 0.0
C566 C 0.63923 0.37801 0.30631 0.0
C567 C 0.65515 0.36169 0.31907 0.0
C568 C 0.65455 0.35571 0.36808 0.0
C569 C 0.67992 0.3783 0.61907 0.0
C570 C 0.64014 0.43272 0.58742 0.0
C571 C 0.64957 0.41734 0.77921 0.0
C572 C 0.64622 0.41251 0.83256 0.0
C573 C 0.66163 0.39742 0.85134 0.0
C574 C 0.65982 0.39408 0.90262 0.0
C575 C 0.64265 0.40583 0.93709 0.0
C576 C 0.62703 0.42071 0.91812 0.0
C577 C 0.62885 0.42408 0.86667 0.0
C578 C 0.59223 0.39294 0.6413 0.0
C579 C 0.63073 0.34294 0.64546 0.0
O580 O 0.61898 0.36341 0.48655 0.0
O581 O 0.65653 0.3589 0.48311 0.0
O582 O 0.66503 0.39432 0.6191 0.0
O583 O 0.67397 0.35878 0.58646 0.0
O584 O 0.63808 0.41239 0.55272 0.0
O585 O 0.64165 0.43381 0.63871 0.0
O586 O 0.66113 0.40153 0.74502 0.0
O587 O 0.63252 0.42691 0.75782 0.0
O588 O 0.61089 0.38678 0.61674 0.0
O589 O 0.59701 0.40483 0.68829 0.0
O590 O 0.63781 0.36176 0.6811 0.0
O591 O 0.62625 0.34397 0.59655 0.0
H592 H 0.60935 0.39062 0.42212 0.0
H593 H 0.61042 0.40116 0.33652 0.0
H594 H 0.66783 0.35304 0.29067 0.0
H595 H 0.66682 0.34277 0.37609 0.0
H596 H 0.67539 0.38836 0.82658 0.0
H597 H 0.67197 0.38219 0.9152 0.0
H598 H 0.61373 0.43031 0.94346 0.0
H599 H 0.61687 0.4361 0.85397 0.0
Sm600 Sm 0.38409 0.88166 0.31613 0.0
Sm601 Sm 0.36368 0.88664 0.42132 0.0
C602 C 0.39615 0.87173 0.21541 0.0
C603 C 0.38964 0.87477 0.16245 0.0
C604 C 0.38837 0.85468 0.12099 0.0
C605 C 0.38432 0.85699 0.06962 0.0
C606 C 0.38153 0.87952 0.0583 0.0
C607 C 0.3823 0.89963 0.10014 0.0
C608 C 0.3863 0.89729 0.15163 0.0
C609 C 0.38162 0.92795 0.37556 0.0
C610 C 0.32754 0.88525 0.32636 0.0
C611 C 0.35226 0.89896 0.52236 0.0
C612 C 0.35833 0.89602 0.57562 0.0
C613 C 0.35947 0.91616 0.61694 0.0
C614 C 0.36307 0.91392 0.66854 0.0
C615 C 0.36555 0.89143 0.6802 0.0
C616 C 0.36489 0.87126 0.63848 0.0
C617 C 0.36134 0.87352 0.58678 0.0
C618 C 0.3663 0.83981 0.3671 0.0
C619 C 0.42076 0.8793 0.40448 0.0
O620 O 0.38337 0.8577 0.23651 0.0
O621 O 0.40363 0.89025 0.24961 0.0
O622 O 0.36574 0.91269 0.37023 0.0
O623 O 0.39958 0.91918 0.3483 0.0
O624 O 0.34525 0.87622 0.29682 0.0
O625 O 0.33066 0.89466 0.37684 0.0
O626 O 0.36616 0.91151 0.49985 0.0
O627 O 0.34345 0.88076 0.4894 0.0
O628 O 0.38211 0.85509 0.36861 0.0
O629 O 0.34868 0.84912 0.39486 0.0
O630 O 0.40414 0.88945 0.43703 0.0
O631 O 0.41592 0.87014 0.35507 0.0
H632 H 0.39107 0.83713 0.12817 0.0
H633 H 0.38415 0.84112 0.03854 0.0
H634 H 0.3799 0.91723 0.09312 0.0
H635 H 0.38714 0.91314 0.18275 0.0
H636 H 0.35701 0.93369 0.60947 0.0
H637 H 0.36317 0.92985 0.6995 0.0
H638 H 0.36707 0.85367 0.64575 0.0
H639 H 0.36059 0.85764 0.55573 0.0
H640 H 0.1686 0.65141 0.79799 0.0
H641 H 0.10915 0.60181 0.51799 0.0
H642 H 0.11706 0.59599 0.76929 0.0
H643 H 0.16092 0.657 0.54598 0.0
H644 H 0.11216 0.59918 0.60958 0.0
H645 H 0.16577 0.65404 0.70629 0.0
C646 C 0.15652 0.63993 0.77261 0.0
C647 C 0.14304 0.62345 0.79168 0.0
C648 C 0.12291 0.61184 0.59571 0.0
C649 C 0.13996 0.62615 0.68599 0.0
C650 C 0.12134 0.61323 0.54319 0.0
C651 C 0.13482 0.62964 0.52394 0.0
C652 C 0.13809 0.62696 0.6296 0.0
C653 C 0.14996 0.64427 0.55903 0.0
C654 C 0.15505 0.64132 0.72004 0.0
C655 C 0.12802 0.60876 0.7564 0.0
N656 N 0.15118 0.64259 0.61001 0.0
N657 N 0.12689 0.61046 0.70543 0.0
H658 H 0.59926 0.89878 0.99808 0.0
H659 H 0.6793 0.87211 0.74113 0.0
H660 H 0.668 0.86893 0.9939 0.0
H661 H 0.6114 0.90396 0.74717 0.0
H662 H 0.67521 0.87005 0.83293 0.0
H663 H 0.60339 0.90064 0.90629 0.0
C664 C 0.61533 0.89281 0.9781 0.0
C665 C 0.63334 0.88376 1.00417 0.0
C666 C 0.66118 0.87746 0.81419 0.0
C667 C 0.63805 0.88552 0.89818 0.0
C668 C 0.66343 0.8785 0.76154 0.0
C669 C 0.64566 0.8882 0.73606 0.0
C670 C 0.64098 0.88615 0.84188 0.0
C671 C 0.62569 0.89658 0.76514 0.0
C672 C 0.6176 0.89372 0.92542 0.0
C673 C 0.65354 0.87582 0.97551 0.0
N674 N 0.6239 0.89535 0.81632 0.0
N675 N 0.65534 0.8769 0.92422 0.0
H676 H 0.4033 0.4102 0.26637 0.0
H677 H 0.34811 0.37196 0.97808 0.0
H678 H 0.35177 0.35545 0.22097 0.0
H679 H 0.39972 0.42689 0.01915 0.0
H680 H 0.34997 0.3656 0.06693 0.0
H681 H 0.40314 0.41631 0.17657 0.0
C682 C 0.39202 0.39938 0.23763 0.0
C683 C 0.37742 0.38235 0.25176 0.0
C684 C 0.36094 0.37905 0.05668 0.0
C685 C 0.37707 0.38939 0.14856 0.0
C686 C 0.3598 0.3828 1.00581 0.0
C687 C 0.37363 0.40016 0.99082 0.0
C688 C 0.37603 0.39273 0.09351 0.0
C689 C 0.38881 0.41322 0.02858 0.0
C690 C 0.39187 0.40297 0.18633 0.0
C691 C 0.36303 0.36909 0.21259 0.0
N692 N 0.38953 0.40932 0.07812 0.0
N693 N 0.36323 0.37289 0.16313 0.0
H694 H 0.83869 0.09154 0.50431 0.0
H695 H 0.91207 0.14238 0.29271 0.0
H696 H 0.90553 0.12486 0.53797 0.0
H697 H 0.84406 0.11136 0.2631 0.0
H698 H 0.91101 0.13448 0.38079 0.0
H699 H 0.84123 0.0974 0.41505 0.0
C700 C 0.8539 0.10021 0.49319 0.0
C701 C 0.87182 0.10789 0.52945 0.0
C702 C 0.89634 0.12935 0.35498 0.0
C703 C 0.87497 0.11441 0.42596 0.0
C704 C 0.89698 0.13371 0.30438 0.0
C705 C 0.87809 0.12763 0.26999 0.0
C706 C 0.87668 0.11873 0.3717 0.0
C707 C 0.85891 0.11675 0.28814 0.0
C708 C 0.85538 0.10342 0.44185 0.0
C709 C 0.89131 0.11847 0.51168 0.0
N710 N 0.85871 0.11271 0.33748 0.0
N711 N 0.89231 0.12149 0.46146 0.0
H712 H 0.11507 0.41411 0.25499 0.0
H713 H 0.16368 0.35899 0.4896 0.0
H714 H 0.17223 0.36479 0.23783 0.0
H715 H 0.10605 0.40772 0.50594 0.0
H716 H 0.16712 0.36088 0.39752 0.0
H717 H 0.11162 0.41207 0.34694 0.0
C718 C 0.12696 0.40289 0.27051 0.0
C719 C 0.144 0.38963 0.23834 0.0
C720 C 0.15374 0.37119 0.42125 0.0
C721 C 0.14003 0.3871 0.34403 0.0
C722 C 0.15169 0.37005 0.47389 0.0
C723 C 0.13453 0.38321 0.50588 0.0
C724 C 0.1385 0.38558 0.40009 0.0
C725 C 0.11976 0.39751 0.48322 0.0
C726 C 0.12491 0.40166 0.32308 0.0
C727 C 0.15864 0.37511 0.26074 0.0
N728 N 0.12206 0.39826 0.43187 0.0
N729 N 0.15636 0.3743 0.31208 0.0
H730 H 0.85437 0.85388 0.72149 0.0
H731 H 0.89487 0.93287 0.5213 0.0
H732 H 0.89759 0.91589 0.76754 0.0
H733 H 0.85044 0.87161 0.47925 0.0
H734 H 0.8971 0.92665 0.61083 0.0
H735 H 0.85326 0.86015 0.63249 0.0
C736 C 0.86348 0.86896 0.71312 0.0
C737 C 0.87598 0.88444 0.75256 0.0
C738 C 0.88688 0.91456 0.58197 0.0
C739 C 0.87507 0.89156 0.64963 0.0
C740 C 0.88571 0.91802 0.53068 0.0
C741 C 0.87234 0.90282 0.49245 0.0
C742 C 0.87468 0.89571 0.59529 0.0
C743 C 0.86065 0.88404 0.50737 0.0
C744 C 0.86298 0.87244 0.66198 0.0
C745 C 0.88788 0.90335 0.73856 0.0
N746 N 0.86209 0.88106 0.55738 0.0
N747 N 0.8871 0.90639 0.6884 0.0
H748 H 0.41239 0.62129 0.77562 0.0
H749 H 0.3327 0.61191 0.02178 0.0
H750 H 0.33821 0.63083 0.7801 0.0
H751 H 0.40718 0.60524 0.02244 0.0
H752 H 0.33455 0.61741 0.93218 0.0
H753 H 0.41091 0.61351 0.86384 0.0
C754 C 0.39575 0.62156 0.79482 0.0
C755 C 0.3754 0.62685 0.77005 0.0
C756 C 0.35052 0.61474 0.9518 0.0
C757 C 0.37363 0.61813 0.87182 0.0
C758 C 0.34951 0.61174 1.00333 0.0
C759 C 0.36983 0.6083 0.0304 0.0
C760 C 0.37203 0.61432 0.92647 0.0
C761 C 0.391 0.60767 1.00337 0.0
C762 C 0.39495 0.61725 0.84547 0.0
C763 C 0.35442 0.62722 0.7976 0.0
N764 N 0.39155 0.61073 0.95315 0.0
N765 N 0.3541 0.62297 0.84673 0.0
H766 H 0.66778 0.14478 0.03148 0.0
H767 H 0.60903 0.10794 0.27963 0.0
H768 H 0.59949 0.11417 0.02872 0.0
H769 H 0.67665 0.1401 0.28381 0.0
H770 H 0.60539 0.1098 0.18759 0.0
H771 H 0.67144 0.14311 0.12366 0.0
C772 C 0.65351 0.13776 0.0502 0.0
C773 C 0.63329 0.12958 0.02197 0.0
C774 C 0.62102 0.11649 0.20863 0.0
C775 C 0.63746 0.12746 0.12785 0.0
C776 C 0.62316 0.11534 0.26123 0.0
C777 C 0.64319 0.12387 0.28978 0.0
C778 C 0.63906 0.12618 0.18402 0.0
C779 C 0.66076 0.13359 0.26377 0.0
C780 C 0.65566 0.13672 0.10288 0.0
C781 C 0.61555 0.12036 0.04842 0.0
N782 N 0.6583 0.13442 0.21249 0.0
N783 N 0.61804 0.11959 0.09971 0.0
H784 H 0.85447 0.42447 0.26903 0.0
H785 H 0.89401 0.34623 0.47095 0.0
H786 H 0.88533 0.35494 0.22179 0.0
H787 H 0.86522 0.41666 0.51892 0.0
H788 H 0.89026 0.34887 0.37957 0.0
H789 H 0.85822 0.42197 0.36055 0.0
C790 C 0.86224 0.40875 0.2778 0.0
C791 C 0.86965 0.38991 0.23734 0.0
C792 C 0.88474 0.36376 0.41004 0.0
C793 C 0.87365 0.38678 0.34253 0.0
C794 C 0.8867 0.3622 0.46235 0.0
C795 C 0.87985 0.38123 0.50296 0.0
C796 C 0.87584 0.3845 0.39789 0.0
C797 C 0.87096 0.40164 0.48911 0.0
C798 C 0.86421 0.40727 0.33019 0.0
C799 C 0.87912 0.3698 0.25142 0.0
N800 N 0.86919 0.40271 0.43784 0.0
N801 N 0.88083 0.36878 0.30272 0.0
H802 H 0.34528 0.08294 0.24771 0.0
H803 H 0.39134 0.16308 0.0556 0.0
H804 H 0.38029 0.14989 0.30136 0.0
H805 H 0.35872 0.09489 1.00134 0.0
H806 H 0.38644 0.15905 0.14581 0.0
H807 H 0.34952 0.08727 0.15753 0.0
C808 C 0.354 0.0985 0.24064 0.0
C809 C 0.36251 0.11603 0.28253 0.0
C810 C 0.38032 0.14497 0.11421 0.0
C811 C 0.36713 0.12125 0.17883 0.0
C812 C 0.38297 0.14732 0.06256 0.0
C813 C 0.37538 0.12933 0.02052 0.0
C814 C 0.36999 0.12445 0.12426 0.0
C815 C 0.36508 0.10912 0.03228 0.0
C816 C 0.35627 0.10102 0.18901 0.0
C817 C 0.3732 0.13602 0.27062 0.0
N818 N 0.36268 0.10725 0.08294 0.0
N819 N 0.37522 0.13806 0.22001 0.0
H820 H 0.61611 0.58204 1.00375 0.0
H821 H 0.66019 0.66019 0.80459 0.0
H822 H 0.66321 0.64111 0.04613 0.0
H823 H 0.61377 0.60074 0.75846 0.0
H824 H 0.66104 0.65336 0.89316 0.0
H825 H 0.61415 0.58884 0.91467 0.0
C826 C 0.62593 0.59654 0.99461 0.0
C827 C 0.63993 0.61093 0.03294 0.0
C828 C 0.65066 0.64176 0.86375 0.0
C829 C 0.63791 0.6187 0.93028 0.0
C830 C 0.65029 0.64554 0.81279 0.0
C831 C 0.63701 0.63095 0.77333 0.0
C832 C 0.63765 0.6232 0.87606 0.0
C833 C 0.62413 0.61262 0.78735 0.0
C834 C 0.6249 0.60031 0.94349 0.0
C835 C 0.65246 0.62925 0.01807 0.0
N836 N 0.62481 0.60925 0.83733 0.0
N837 N 0.65116 0.63255 0.96823 0.0
H838 H 0.12185 0.93463 0.52382 0.0
H839 H 0.15477 0.84947 0.71723 0.0
H840 H 0.15909 0.8686 0.47591 0.0
H841 H 0.11953 0.91645 0.76933 0.0
H842 H 0.15587 0.85623 0.62862 0.0
H843 H 0.11968 0.92805 0.61307 0.0
C844 C 0.12943 0.91867 0.53182 0.0
C845 C 0.14077 0.90221 0.49193 0.0
C846 C 0.1479 0.8695 0.65936 0.0
C847 C 0.1385 0.89467 0.59461 0.0
C848 C 0.14742 0.86573 0.71031 0.0
C849 C 0.13717 0.88246 0.75142 0.0
C850 C 0.13805 0.89017 0.64877 0.0
C851 C 0.12744 0.9029 0.73912 0.0
C852 C 0.12831 0.915 0.58299 0.0
C853 C 0.1505 0.88202 0.50523 0.0
N854 N 0.12816 0.90619 0.6891 0.0
N855 N 0.14914 0.87886 0.55516 0.0
H856 H 0.85135 0.57811 0.74719 0.0
H857 H 0.88337 0.66471 0.55721 0.0
H858 H 0.87431 0.65037 0.80284 0.0
H859 H 0.86327 0.59156 0.5014 0.0
H860 H 0.87907 0.66011 0.64722 0.0
H861 H 0.85508 0.58288 0.65721 0.0
C862 C 0.85732 0.59496 0.74065 0.0
C863 C 0.86259 0.61383 0.7831 0.0
C864 C 0.87558 0.64505 0.61532 0.0
C865 C 0.86657 0.61952 0.67945 0.0
C866 C 0.87787 0.6477 0.56375 0.0
C867 C 0.87363 0.62851 0.52129 0.0
C868 C 0.86896 0.62303 0.62492 0.0
C869 C 0.86699 0.6068 0.53263 0.0
C870 C 0.8593 0.59771 0.68908 0.0
C871 C 0.86977 0.63538 0.7717 0.0
N872 N 0.86485 0.60468 0.5832 0.0
N873 N 0.87156 0.6376 0.72113 0.0
H874 H 0.1202 0.07983 0.50042 0.0
H875 H 0.15605 0.16459 0.30831 0.0
H876 H 0.15841 0.14512 0.54931 0.0
H877 H 0.11865 0.09905 0.25522 0.0
H878 H 0.15636 0.15767 0.39677 0.0
H879 H 0.11831 0.08673 0.41139 0.0
C880 C 0.12806 0.0957 0.49272 0.0
C881 C 0.13959 0.11183 0.53289 0.0
C882 C 0.14807 0.14475 0.36588 0.0
C883 C 0.13765 0.11974 0.4303 0.0
C884 C 0.14802 0.14861 0.31498 0.0
C885 C 0.13749 0.13231 0.27356 0.0
C886 C 0.13748 0.1244 0.37619 0.0
C887 C 0.12687 0.11225 0.28563 0.0
C888 C 0.12708 0.09955 0.44164 0.0
C889 C 0.14967 0.13191 0.51984 0.0
N890 N 0.1272 0.10884 0.33562 0.0
N891 N 0.14847 0.13524 0.47 0.0
H892 H 0.67717 0.38406 0.24683 0.0
H893 H 0.60395 0.40303 0.99798 0.0
H894 H 0.60244 0.38521 0.24378 0.0
H895 H 0.67867 0.40197 1.00392 0.0
H896 H 0.60278 0.39767 0.08824 0.0
H897 H 0.67776 0.39146 0.15861 0.0
C898 C 0.66084 0.38578 0.22766 0.0
C899 C 0.63971 0.3838 0.25313 0.0
C900 C 0.61943 0.39863 0.06978 0.0
C901 C 0.64028 0.39255 0.15126 0.0
C902 C 0.62013 0.40182 0.01817 0.0
C903 C 0.64146 0.40285 0.99266 0.0
C904 C 0.64019 0.39649 0.09654 0.0
C905 C 0.66178 0.40086 0.02116 0.0
C906 C 0.6612 0.39014 0.17716 0.0
C907 C 0.61916 0.38675 0.2262 0.0
N908 N 0.66063 0.39778 0.0712 0.0
N909 N 0.61997 0.39085 0.17684 0.0
H910 H 0.40034 0.91318 1.01104 0.0
H911 H 0.34632 0.85795 0.72752 0.0
H912 H 0.35635 0.85132 0.97862 0.0
H913 H 0.39053 0.91963 0.76014 0.0
H914 H 0.34994 0.85508 0.81895 0.0
H915 H 0.39648 0.91611 0.91975 0.0
C916 C 0.38968 0.90032 0.98495 0.0
C917 C 0.37865 0.88197 1.00292 0.0
C918 C 0.35888 0.86924 0.80612 0.0
C919 C 0.37442 0.88505 0.89752 0.0
C920 C 0.35696 0.87079 0.75369 0.0
C921 C 0.36814 0.88907 0.73572 0.0
C922 C 0.37211 0.88605 0.84122 0.0
C923 C 0.38134 0.90542 0.77208 0.0
C924 C 0.38763 0.90191 0.93258 0.0
C925 C 0.36543 0.8656 0.96665 0.0
N926 N 0.38294 0.90351 0.82288 0.0
N927 N 0.3637 0.86753 0.91587 0.0
H928 H 0.17835 0.70745 0.18296 0.0
H929 H 0.10139 0.80696 0.10718 0.0
H930 H 0.10496 0.69716 0.15715 0.0
H931 H 0.15999 0.82501 0.21052 0.0
H932 H 0.10307 0.76621 0.11988 0.0
H933 H 0.17309 0.75008 0.18881 0.0
C934 C 0.16107 0.71426 0.1793 0.0
C935 C 0.14206 0.69879 0.16974 0.0
C936 C 0.11536 0.77917 0.14032 0.0
C937 C 0.13601 0.74743 0.17487 0.0
C938 C 0.11447 0.8024 0.13298 0.0
C939 C 0.13059 0.81942 0.15783 0.0
C940 C 0.1329 0.77266 0.17159 0.0
C941 C 0.14715 0.81251 0.19086 0.0
C942 C 0.15808 0.73857 0.18266 0.0
C943 C 0.12005 0.7085 0.16496 0.0
N944 N 0.14814 0.78958 0.19607 0.0
N945 N 0.11768 0.73214 0.16664 0.0
H946 H 0.56409 0.8421 0.37492 0.0
H947 H 0.44671 0.91222 0.47506 0.0
H948 H 0.5651 0.9129 0.47164 0.0
H949 H 0.45096 0.84341 0.3701 0.0
H950 H 0.4892 0.91142 0.48722 0.0
H951 H 0.52237 0.84064 0.38652 0.0
C952 C 0.55551 0.85726 0.39945 0.0
C953 C 0.56814 0.87765 0.42226 0.0
C954 C 0.48072 0.89636 0.46225 0.0
C955 C 0.51973 0.87644 0.43468 0.0
C956 C 0.45647 0.89673 0.45566 0.0
C957 C 0.44527 0.87788 0.42135 0.0
C958 C 0.49373 0.87691 0.43466 0.0
C959 C 0.45881 0.85842 0.39662 0.0
C960 C 0.53156 0.85648 0.40591 0.0
C961 C 0.55603 0.89676 0.45368 0.0
N962 N 0.48214 0.85852 0.40353 0.0
N963 N 0.53242 0.89585 0.45834 0.0
H964 H 0.41348 0.3071 0.59404 0.0
H965 H 0.35753 0.20556 0.71964 0.0
H966 H 0.3634 0.32298 0.71921 0.0
H967 H 0.4015 0.19359 0.58344 0.0
H968 H 0.36421 0.2487 0.73202 0.0
H969 H 0.4143 0.26602 0.60198 0.0
C970 C 0.40277 0.30197 0.62367 0.0
C971 C 0.38815 0.31853 0.65559 0.0
C972 C 0.37276 0.23657 0.70011 0.0
C973 C 0.38872 0.27095 0.66449 0.0
C974 C 0.36914 0.21199 0.69341 0.0
C975 C 0.37914 0.1961 0.65067 0.0
C976 C 0.38655 0.2451 0.66388 0.0
C977 C 0.39356 0.20528 0.617 0.0
C978 C 0.40323 0.27841 0.62818 0.0
C979 C 0.37492 0.31081 0.69374 0.0
N980 N 0.39673 0.22905 0.62417 0.0
N981 N 0.37525 0.28748 0.69666 0.0
H982 H 0.9459 0.15728 0.93528 0.0
H983 H 0.06391 0.08194 0.88092 0.0
H984 H 0.9513 0.08286 0.86343 0.0
H985 H 0.06452 0.15824 0.92493 0.0
H986 H 0.02216 0.08226 0.89458 0.0
H987 H 0.98836 0.15836 0.94996 0.0
C988 C 0.95591 0.14109 0.92398 0.0
C989 C 0.94513 0.1199 0.89827 0.0
C990 C 0.0313 0.09903 0.90214 0.0
C991 C 0.99339 0.12099 0.91451 0.0
C992 C 0.05522 0.0988 0.89474 0.0
C993 C 0.06769 0.12005 0.90221 0.0
C994 C 0.01936 0.12074 0.91599 0.0
C995 C 0.05553 0.14144 0.91947 0.0
C996 C 0.98012 0.14174 0.9319 0.0
C997 C 0.9589 0.09955 0.8834 0.0
N998 N 0.03192 0.14129 0.92508 0.0
N999 N 0.98214 0.10062 0.89159 0.0
H1000 H 0.10441 0.31766 0.87125 0.0
H1001 H 0.15783 0.18644 0.80947 0.0
H1002 H 0.17719 0.30405 0.84167 0.0
H1003 H 0.10131 0.20724 0.9177 0.0
H1004 H 0.16027 0.22747 0.79819 0.0
H1005 H 0.09836 0.27503 0.86546 0.0
C1006 C 0.11901 0.30564 0.86241 0.0
C1007 C 0.14136 0.31437 0.85703 0.0
C1008 C 0.14714 0.22291 0.8238 0.0
C1009 C 0.13451 0.2657 0.84995 0.0
C1010 C 0.14561 0.1995 0.82996 0.0
C1011 C 0.12936 0.19343 0.86467 0.0
C1012 C 0.13197 0.24026 0.85161 0.0
C1013 C 0.11416 0.21118 0.89076 0.0
C1014 C 0.11557 0.28138 0.85949 0.0
C1015 C 0.1597 0.29803 0.84619 0.0
N1016 N 0.1158 0.23376 0.88366 0.0
N1017 N 0.15589 0.27451 0.84295 0.0
H1018 H 0.06412 0.86788 0.19995 0.0
H1019 H 0.94635 0.89508 0.06042 0.0
H1020 H 0.06512 0.89897 0.06508 0.0
H1021 H 0.95159 0.87428 0.20808 0.0
H1022 H 0.98886 0.88996 0.04946 0.0
H1023 H 0.02242 0.86249 0.19032 0.0
C1024 C 0.05551 0.87314 0.16752 0.0
C1025 C 0.06808 0.88378 0.13321 0.0
C1026 C 0.98057 0.88613 0.08373 0.0
C1027 C 0.01977 0.87858 0.12288 0.0
C1028 C 0.95633 0.88886 0.08975 0.0
C1029 C 0.9455 0.8851 0.13528 0.0
C1030 C 0.99379 0.8793 0.12324 0.0
C1031 C 0.95923 0.87746 0.17249 0.0
C1032 C 0.0316 0.87024 0.16218 0.0
C1033 C 0.05603 0.89044 0.09203 0.0
N1034 N 0.98248 0.8749 0.16572 0.0
N1035 N 0.03243 0.88809 0.08844 0.0
H1036 H 0.41103 0.70582 0.41859 0.0
H1037 H 0.33419 0.80485 0.34036 0.0
H1038 H 0.35301 0.68747 0.31363 0.0
H1039 H 0.40725 0.81576 0.37024 0.0
H1040 H 0.33967 0.76222 0.33414 0.0
H1041 H 0.40931 0.74655 0.40589 0.0
C1042 C 0.39807 0.71031 0.39243 0.0
C1043 C 0.38213 0.69321 0.36714 0.0
C1044 C 0.35457 0.77387 0.34124 0.0
C1045 C 0.37976 0.73996 0.35336 0.0
C1046 C 0.35145 0.79818 0.34481 0.0
C1047 C 0.37029 0.81382 0.35568 0.0
C1048 C 0.37659 0.76518 0.3501 0.0
C1049 C 0.39228 0.80428 0.36144 0.0
C1050 C 0.39716 0.73354 0.38509 0.0
C1051 C 0.36572 0.70003 0.33365 0.0
N1052 N 0.39477 0.78064 0.35952 0.0
N1053 N 0.3647 0.72296 0.32843 0.0
H1054 H 0.56525 0.10066 0.54941 0.0
H1055 H 0.44784 0.16936 0.65529 0.0
H1056 H 0.56116 0.1687 0.65739 0.0
H1057 H 0.44691 0.1003 0.55074 0.0
H1058 H 0.48962 0.17099 0.64476 0.0
H1059 H 0.52273 0.10155 0.53796 0.0
C1060 C 0.55552 0.116 0.56965 0.0
C1061 C 0.56677 0.13459 0.60461 0.0
C1062 C 0.48043 0.15549 0.62353 0.0
C1063 C 0.51828 0.13566 0.59218 0.0
C1064 C 0.45645 0.15459 0.62948 0.0
C1065 C 0.44381 0.13462 0.60411 0.0
C1066 C 0.49227 0.13608 0.59255 0.0
C1067 C 0.45598 0.1161 0.57086 0.0
C1068 C 0.53125 0.11643 0.56346 0.0
C1069 C 0.55326 0.15388 0.63038 0.0
N1070 N 0.47959 0.1171 0.56662 0.0
N1071 N 0.52991 0.15382 0.62389 0.0
H1072 H 0.91182 0.20701 0.91919 0.0
H1073 H 0.8352 0.30414 0.83398 0.0
H1074 H 0.85585 0.1872 0.80904 0.0
H1075 H 0.90779 0.3164 0.86824 0.0
H1076 H 0.84131 0.26161 0.82801 0.0
H1077 H 0.90998 0.24756 0.90536 0.0
C1078 C 0.89932 0.21114 0.89164 0.0
C1079 C 0.88396 0.19369 0.86522 0.0
C1080 C 0.85598 0.27354 0.83597 0.0
C1081 C 0.88143 0.2402 0.85015 0.0
C1082 C 0.8525 0.29779 0.83936 0.0
C1083 C 0.87102 0.31377 0.85144 0.0
C1084 C 0.87801 0.26529 0.84627 0.0
C1085 C 0.89307 0.30465 0.85845 0.0
C1086 C 0.89833 0.23426 0.88366 0.0
C1087 C 0.86811 0.20005 0.82996 0.0
N1088 N 0.89588 0.28107 0.85674 0.0
N1089 N 0.86697 0.22287 0.82415 0.0
H1090 H 0.60502 0.81702 0.36873 0.0
H1091 H 0.66002 0.68651 0.31219 0.0
H1092 H 0.67812 0.80425 0.3426 0.0
H1093 H 0.60193 0.70686 0.41607 0.0
H1094 H 0.66246 0.7275 0.30062 0.0
H1095 H 0.59936 0.77438 0.36352 0.0
C1096 C 0.61978 0.80518 0.36078 0.0
C1097 C 0.6421 0.81414 0.35621 0.0
C1098 C 0.64901 0.72286 0.32538 0.0
C1099 C 0.63571 0.76548 0.34983 0.0
C1100 C 0.6475 0.69947 0.33172 0.0
C1101 C 0.63079 0.6933 0.36529 0.0
C1102 C 0.63336 0.74006 0.35183 0.0
C1103 C 0.61517 0.71091 0.3901 0.0
C1104 C 0.61657 0.78092 0.3582 0.0
C1105 C 0.66066 0.79803 0.34649 0.0
N1106 N 0.6168 0.73345 0.38283 0.0
N1107 N 0.65707 0.7745 0.34358 0.0
H1108 H 0.89058 0.70005 0.21248 0.0
H1109 H 0.88475 0.80329 0.0659 0.0
H1110 H 0.84487 0.70044 0.0822 0.0
H1111 H 0.8775 0.82594 0.2339 0.0
H1112 H 0.88117 0.76248 0.07291 0.0
H1113 H 0.89493 0.74375 0.22468 0.0
C1114 C 0.8812 0.70928 0.1872 0.0
C1115 C 0.86763 0.69653 0.14572 0.0
C1116 C 0.88058 0.77633 0.1084 0.0
C1117 C 0.87267 0.74581 0.15906 0.0
C1118 C 0.88272 0.79979 0.1046 0.0
C1119 C 0.88135 0.81836 0.14942 0.0
C1120 C 0.87731 0.7709 0.15737 0.0
C1121 C 0.87853 0.81224 0.19828 0.0
C1122 C 0.88366 0.73411 0.1942 0.0
C1123 C 0.85587 0.70935 0.11405 0.0
N1124 N 0.87659 0.78892 0.20109 0.0
N1125 N 0.85892 0.73304 0.1209 0.0
H1126 H 0.60379 0.19568 0.65516 0.0
H1127 H 0.65827 0.32626 0.71467 0.0
H1128 H 0.67667 0.20853 0.68455 0.0
H1129 H 0.6021 0.30558 0.60544 0.0
H1130 H 0.66027 0.28534 0.72686 0.0
H1131 H 0.59815 0.23831 0.65994 0.0
C1132 C 0.6185 0.20754 0.66375 0.0
C1133 C 0.64076 0.1986 0.66936 0.0
C1134 C 0.64731 0.2899 0.70081 0.0
C1135 C 0.63438 0.24724 0.6753 0.0
C1136 C 0.64605 0.31325 0.69411 0.0
C1137 C 0.63003 0.3193 0.65885 0.0
C1138 C 0.63211 0.27263 0.67302 0.0
C1139 C 0.61479 0.30163 0.63276 0.0
C1140 C 0.6153 0.23179 0.66609 0.0
C1141 C 0.65925 0.21472 0.67987 0.0
N1142 N 0.61617 0.27913 0.64041 0.0
N1143 N 0.65567 0.23825 0.68256 0.0
H1144 H 0.9465 0.41096 0.97867 0.0
H1145 H 0.06434 0.34219 0.87673 0.0
H1146 H 0.9513 0.34356 0.86858 0.0
H1147 H 0.06482 0.4128 0.97438 0.0
H1148 H 0.02263 0.34034 0.88816 0.0
H1149 H 0.98895 0.41017 0.99133 0.0
C1150 C 0.95637 0.39576 0.95824 0.0
C1151 C 0.94536 0.37731 0.92239 0.0
C1152 C 0.03171 0.35622 0.90779 0.0
C1153 C 0.99375 0.37635 0.9363 0.0
C1154 C 0.05565 0.35721 0.90146 0.0
C1155 C 0.06811 0.37767 0.92455 0.0
C1156 C 0.01974 0.37603 0.93673 0.0
C1157 C 0.05587 0.39661 0.9562 0.0
C1158 C 0.9806 0.3954 0.96512 0.0
C1159 C 0.95903 0.35823 0.89635 0.0
N1160 N 0.03227 0.3955 0.96074 0.0
N1161 N 0.98234 0.35832 0.90362 0.0
H1162 H 0.44568 0.61787 0.46605 0.0
H1163 H 0.56309 0.64628 0.32745 0.0
H1164 H 0.45051 0.63992 0.31978 0.0
H1165 H 0.56424 0.61407 0.46066 0.0
H1166 H 0.5214 0.65186 0.33766 0.0
H1167 H 0.48813 0.62323 0.47715 0.0
C1168 C 0.45556 0.62446 0.43712 0.0
C1169 C 0.44464 0.6285 0.39192 0.0
C1170 C 0.53063 0.64385 0.36535 0.0
C1171 C 0.49288 0.63453 0.40405 0.0
C1172 C 0.55453 0.64084 0.3597 0.0
C1173 C 0.56712 0.62983 0.39337 0.0
C1174 C 0.51885 0.63523 0.40429 0.0
C1175 C 0.55514 0.62291 0.43425 0.0
C1176 C 0.47976 0.62731 0.44319 0.0
C1177 C 0.45824 0.63656 0.35514 0.0
N1178 N 0.53154 0.62537 0.43813 0.0
N1179 N 0.48148 0.63922 0.36192 0.0
H1180 H 0.44696 0.35434 0.59078 0.0
H1181 H 0.56478 0.42991 0.63645 0.0
H1182 H 0.45191 0.42972 0.65193 0.0
H1183 H 0.56518 0.35356 0.60138 0.0
H1184 H 0.52305 0.42944 0.62189 0.0
H1185 H 0.48937 0.35296 0.57591 0.0
C1186 C 0.45686 0.37065 0.59952 0.0
C1187 C 0.44598 0.39222 0.62229 0.0
C1188 C 0.53215 0.41268 0.61644 0.0
C1189 C 0.49421 0.3908 0.60602 0.0
C1190 C 0.55607 0.41298 0.62432 0.0
C1191 C 0.56845 0.39177 0.6196 0.0
C1192 C 0.52018 0.39097 0.60491 0.0
C1193 C 0.55625 0.3703 0.60462 0.0
C1194 C 0.48105 0.36984 0.59155 0.0
C1195 C 0.45962 0.41275 0.63414 0.0
N1196 N 0.53269 0.37042 0.59851 0.0
N1197 N 0.48287 0.41152 0.62604 0.0
H1198 H 0.06139 0.66957 0.16668 0.0
H1199 H 0.94484 0.60229 0.04965 0.0
H1200 H 0.0635 0.60259 0.05451 0.0
H1201 H 0.94804 0.66762 0.16713 0.0
H1202 H 0.98744 0.60344 0.0409 0.0
H1203 H 0.01962 0.67072 0.15676 0.0
C1204 C 0.05305 0.65517 0.13926 0.0
C1205 C 0.06608 0.63591 0.11157 0.0
C1206 C 0.97873 0.61764 0.06807 0.0
C1207 C 0.0175 0.63685 0.10058 0.0
C1208 C 0.95439 0.61708 0.07285 0.0
C1209 C 0.94276 0.63483 0.10943 0.0
C1210 C 0.99147 0.63618 0.09982 0.0
C1211 C 0.95613 0.65341 0.13876 0.0
C1212 C 0.02904 0.6558 0.13371 0.0
C1213 C 0.05418 0.61785 0.07644 0.0
N1214 N 0.97956 0.6535 0.13347 0.0
N1215 N 0.0305 0.61859 0.07243 0.0
H1216 H 0.09457 0.55443 0.1187 0.0
H1217 H 0.16954 0.45176 0.93499 0.0
H1218 H 0.16807 0.56116 0.09682 0.0
H1219 H 0.09571 0.45876 0.91842 0.0
H1220 H 0.16975 0.48936 1.00123 0.0
H1221 H 0.09498 0.51686 0.05293 0.0
C1222 C 0.11084 0.54793 0.10031 0.0
C1223 C 0.13132 0.56097 0.11343 0.0
C1224 C 0.15352 0.4827 0.98296 0.0
C1225 C 0.13195 0.51779 0.038 0.0
C1226 C 0.15339 0.46124 0.94517 0.0
C1227 C 0.13259 0.45215 0.92084 0.0
C1228 C 0.13264 0.49503 0.99729 0.0
C1229 C 0.11217 0.46515 0.93584 0.0
C1230 C 0.11104 0.52652 0.06254 0.0
C1231 C 0.15187 0.55169 0.08798 0.0
N1232 N 0.11269 0.48577 0.97318 0.0
N1233 N 0.15169 0.53066 0.05174 0.0
H1234 H 0.72436 0.91438 0.35624 0.0
H1235 H 0.8012 0.84513 0.11378 0.0
H1236 H 0.69986 0.85528 0.23769 0.0
H1237 H 0.81719 0.91683 0.19392 0.0
H1238 H 0.76653 0.84645 0.168 0.0
H1239 H 0.76102 0.91345 0.30692 0.0
C1240 C 0.72673 0.9011 0.32027 0.0
C1241 C 0.70888 0.88494 0.30111 0.0
C1242 C 0.77761 0.86193 0.17394 0.0
C1243 C 0.75077 0.88369 0.24472 0.0
C1244 C 0.79746 0.86118 0.14289 0.0
C1245 C 0.81224 0.88087 0.14923 0.0
C1246 C 0.77237 0.88247 0.21232 0.0
C1247 C 0.80638 0.90117 0.18782 0.0
C1248 C 0.74758 0.90068 0.29196 0.0
C1249 C 0.71295 0.86822 0.25399 0.0
N1250 N 0.787 0.90143 0.21803 0.0
N1251 N 0.73333 0.868 0.22777 0.0
H1252 H 0.38362 0.43613 0.48904 0.0
H1253 H 0.3641 0.5762 0.53652 0.0
H1254 H 0.36514 0.47985 0.63977 0.0
H1255 H 0.37829 0.53149 0.38433 0.0
H1256 H 0.3644 0.54148 0.5744 0.0
H1257 H 0.38212 0.47073 0.4512 0.0
C1258 C 0.37921 0.45301 0.51456 0.0
C1259 C 0.37442 0.45481 0.56819 0.0
C1260 C 0.36739 0.53915 0.53273 0.0
C1261 C 0.37269 0.49509 0.52386 0.0
C1262 C 0.36725 0.55906 0.51072 0.0
C1263 C 0.37129 0.55698 0.45672 0.0
C1264 C 0.3717 0.51667 0.50094 0.0
C1265 C 0.37505 0.53409 0.42594 0.0
C1266 C 0.37835 0.47287 0.49251 0.0
C1267 C 0.36898 0.47743 0.59846 0.0
N1268 N 0.37528 0.5149 0.44851 0.0
N1269 N 0.36825 0.49663 0.57589 0.0
H1270 H 0.80161 0.17025 0.90623 0.0
H1271 H 0.72351 0.09859 0.66928 0.0
H1272 H 0.81683 0.09757 0.83178 0.0
H1273 H 0.69908 0.15813 0.78693 0.0
H1274 H 0.76046 0.10005 0.7178 0.0
H1275 H 0.76666 0.16826 0.85264 0.0
C1276 C 0.79765 0.15385 0.87848 0.0
C1277 C 0.81229 0.13407 0.8736 0.0
C1278 C 0.74697 0.11279 0.73274 0.0
C1279 C 0.7721 0.1317 0.81122 0.0
C1280 C 0.72595 0.11207 0.70489 0.0
C1281 C 0.70804 0.1282 0.72403 0.0
C1282 C 0.75027 0.13009 0.77944 0.0
C1283 C 0.71222 0.1452 0.77067 0.0
C1284 C 0.77764 0.15271 0.8478 0.0
C1285 C 0.80614 0.1133 0.83672 0.0
N1286 N 0.73277 0.14573 0.7964 0.0
N1287 N 0.7866 0.11267 0.8068 0.0
H1288 H 0.84424 0.56071 0.09237 0.0
H1289 H 0.91975 0.457 0.91581 0.0
H1290 H 0.91747 0.55325 0.11711 0.0
H1291 H 0.8459 0.45146 0.93457 0.0
H1292 H 0.91948 0.49444 0.9821 0.0
H1293 H 0.84469 0.52297 0.02735 0.0
C1294 C 0.86042 0.55107 0.08423 0.0
C1295 C 0.88083 0.56008 0.11047 0.0
C1296 C 0.90334 0.48504 0.97171 0.0
C1297 C 0.88153 0.51693 0.03536 0.0
C1298 C 0.90345 0.46373 0.93368 0.0
C1299 C 0.88279 0.45112 0.91948 0.0
C1300 C 0.88235 0.49408 0.99525 0.0
C1301 C 0.86221 0.46062 0.94425 0.0
C1302 C 0.86065 0.52951 0.04713 0.0
C1303 C 0.90131 0.54688 0.0981 0.0
N1304 N 0.86249 0.48156 0.98061 0.0
N1305 N 0.90117 0.52606 0.06122 0.0
H1306 H 0.20065 0.17002 0.86644 0.0
H1307 H 0.31155 0.09609 0.75511 0.0
H1308 H 0.20368 0.09483 0.8582 0.0
H1309 H 0.28724 0.15157 0.68274 0.0
H1310 H 0.27455 0.09749 0.80194 0.0
H1311 H 0.23462 0.16629 0.80824 0.0
C1312 C 0.20849 0.15273 0.85247 0.0
C1313 C 0.19939 0.13271 0.8675 0.0
C1314 C 0.27718 0.10917 0.77537 0.0
C1315 C 0.23849 0.12842 0.80156 0.0
C1316 C 0.29827 0.10838 0.7486 0.0
C1317 C 0.3024 0.12355 0.71451 0.0
C1318 C 0.26024 0.12586 0.76963 0.0
C1319 C 0.28466 0.13933 0.70806 0.0
C1320 C 0.22776 0.15061 0.819 0.0
C1321 C 0.21014 0.11072 0.84774 0.0
N1322 N 0.26451 0.14037 0.73602 0.0
N1323 N 0.22928 0.10922 0.81654 0.0
H1324 H 0.63179 0.57629 0.53716 0.0
H1325 H 0.64465 0.43523 0.48477 0.0
H1326 H 0.64384 0.53205 0.38336 0.0
H1327 H 0.63714 0.48022 0.63935 0.0
H1328 H 0.64415 0.47013 0.44742 0.0
H1329 H 0.63315 0.54143 0.57424 0.0
C1330 C 0.63474 0.55924 0.51083 0.0
C1331 C 0.63776 0.55734 0.45657 0.0
C1332 C 0.64265 0.47246 0.48949 0.0
C1333 C 0.63933 0.51681 0.4999 0.0
C1334 C 0.64292 0.45246 0.51118 0.0
C1335 C 0.64086 0.45459 0.56572 0.0
C1336 C 0.64021 0.49507 0.52221 0.0
C1337 C 0.63881 0.47757 0.59727 0.0
C1338 C 0.63553 0.53924 0.53241 0.0
C1339 C 0.64141 0.53453 0.42521 0.0
N1340 N 0.63845 0.49685 0.57506 0.0
N1341 N 0.64209 0.51521 0.44731 0.0
H1342 H 0.28905 0.91442 0.35479 0.0
H1343 H 0.21152 0.84375 0.11537 0.0
H1344 H 0.31307 0.85426 0.23825 0.0
H1345 H 0.19622 0.91619 0.19163 0.0
H1346 H 0.24618 0.84531 0.1697 0.0
H1347 H 0.25232 0.91335 0.30559 0.0
C1348 C 0.28656 0.90089 0.3193 0.0
C1349 C 0.3043 0.88447 0.30065 0.0
C1350 C 0.23526 0.8609 0.17478 0.0
C1351 C 0.26233 0.88305 0.24442 0.0
C1352 C 0.21541 0.86001 0.14365 0.0
C1353 C 0.20082 0.87984 0.14886 0.0
C1354 C 0.24069 0.88171 0.21209 0.0
C1355 C 0.20687 0.90042 0.18643 0.0
C1356 C 0.26567 0.90038 0.29105 0.0
C1357 C 0.30008 0.86742 0.25413 0.0
N1358 N 0.22625 0.90081 0.21674 0.0
N1359 N 0.27966 0.86713 0.22798 0.0
H1360 H 0.6694 0.9514 0.43209 0.0
H1361 H 0.59428 0.0546 0.61308 0.0
H1362 H 0.59572 0.95877 0.4137 0.0
H1363 H 0.66801 0.0608 0.59374 0.0
H1364 H 0.59474 0.01715 0.54711 0.0
H1365 H 0.66959 0.98915 0.49777 0.0
C1366 C 0.65329 0.961 0.44173 0.0
C1367 C 0.63253 0.95197 0.41711 0.0
C1368 C 0.61084 0.02666 0.55729 0.0
C1369 C 0.63256 0.99501 0.49288 0.0
C1370 C 0.61061 0.04801 0.59517 0.0
C1371 C 0.63115 0.06084 0.60912 0.0
C1372 C 0.63184 0.01779 0.53344 0.0
C1373 C 0.65178 0.05147 0.58426 0.0
C1374 C 0.65341 0.98255 0.4792 0.0
C1375 C 0.61214 0.96511 0.43139 0.0
N1376 N 0.65163 0.03048 0.54788 0.0
N1377 N 0.61265 0.98582 0.46844 0.0
H1378 H 0.19954 0.35297 0.74222 0.0
H1379 H 0.31809 0.41608 0.69446 0.0
H1380 H 0.22454 0.41397 0.85482 0.0
H1381 H 0.3021 0.34325 0.62313 0.0
H1382 H 0.28327 0.41787 0.74973 0.0
H1383 H 0.23596 0.35127 0.69453 0.0
C1384 C 0.21275 0.36603 0.75713 0.0
C1385 C 0.20884 0.38366 0.80279 0.0
C1386 C 0.28748 0.40148 0.72216 0.0
C1387 C 0.25094 0.38197 0.74725 0.0
C1388 C 0.30734 0.40044 0.69053 0.0
C1389 C 0.31318 0.37941 0.65419 0.0
C1390 C 0.27301 0.38151 0.71666 0.0
C1391 C 0.2984 0.35983 0.65051 0.0
C1392 C 0.23365 0.36499 0.72978 0.0
C1393 C 0.2268 0.39998 0.82004 0.0
N1394 N 0.27905 0.36141 0.68094 0.0
N1395 N 0.24697 0.39891 0.79197 0.0
H1396 H 0.87858 0.98232 0.14628 0.0
H1397 H 0.86449 0.03323 0.88428 0.0
H1398 H 0.86359 0.93896 0.99308 0.0
H1399 H 0.88059 0.07688 0.0366 0.0
H1400 H 0.8633 0.99848 0.92395 0.0
H1401 H 0.87818 0.01754 0.10776 0.0
C1402 C 0.87505 0.98016 0.10486 0.0
C1403 C 0.87128 0.95749 0.07314 0.0
C1404 C 0.86708 0.01572 0.94861 0.0
C1405 C 0.87088 0.99769 0.02853 0.0
C1406 C 0.86779 0.03557 0.92583 0.0
C1407 C 0.87263 0.05818 0.95675 0.0
C1408 C 0.87125 0.0184 1.00277 0.0
C1409 C 0.87673 0.05995 1.01072 0.0
C1410 C 0.87492 1.00026 0.08273 0.0
C1411 C 0.86686 0.95592 0.01941 0.0
N1412 N 0.87595 0.04048 0.03177 0.0
N1413 N 0.86684 0.97557 0.99902 0.0
H1414 H 0.22268 0.59683 0.17186 0.0
H1415 H 0.30222 0.66957 0.40553 0.0
H1416 H 0.20103 0.66021 0.28198 0.0
H1417 H 0.31589 0.59618 0.33437 0.0
H1418 H 0.26781 0.6681 0.35055 0.0
H1419 H 0.25961 0.59797 0.22043 0.0
C1420 C 0.22576 0.6111 0.20572 0.0
C1421 C 0.20862 0.62839 0.2229 0.0
C1422 C 0.2783 0.65227 0.34673 0.0
C1423 C 0.25078 0.62986 0.27843 0.0
C1424 C 0.29801 0.65311 0.37826 0.0
C1425 C 0.31206 0.63298 0.37473 0.0
C1426 C 0.27242 0.63118 0.31078 0.0
C1427 C 0.30564 0.61216 0.33832 0.0
C1428 C 0.24676 0.61165 0.23364 0.0
C1429 C 0.21356 0.64637 0.26736 0.0
N1430 N 0.28636 0.6118 0.30768 0.0
N1431 N 0.23404 0.64664 0.29325 0.0
H1432 H 0.34416 0.95123 0.42781 0.0
H1433 H 0.41863 0.05334 0.61286 0.0
H1434 H 0.41808 0.9574 0.41163 0.0
H1435 H 0.34567 0.06113 0.58556 0.0
H1436 H 0.41857 0.01582 0.54668 0.0
H1437 H 0.34406 0.98914 0.49284 0.0
C1438 C 0.36036 0.9606 0.43782 0.0
C1439 C 0.38114 0.95119 0.41397 0.0
C1440 C 0.40257 0.02574 0.55516 0.0
C1441 C 0.38121 0.99443 0.48907 0.0
C1442 C 0.40257 0.0471 0.59311 0.0
C1443 C 0.38211 0.06037 0.60488 0.0
C1444 C 0.38186 0.0173 0.52927 0.0
C1445 C 0.36183 0.05146 0.57777 0.0
C1446 C 0.36028 0.98224 0.47489 0.0
C1447 C 0.40164 0.96406 0.42871 0.0
N1448 N 0.36218 0.03046 0.54156 0.0
N1449 N 0.40118 0.98488 0.46547 0.0
H1450 H 0.8073 0.5906 0.24128 0.0
H1451 H 0.70174 0.66903 0.37423 0.0
H1452 H 0.7877 0.65422 0.19251 0.0
H1453 H 0.70117 0.59304 0.35454 0.0
H1454 H 0.73524 0.6654 0.31498 0.0
H1455 H 0.77052 0.59204 0.28931 0.0
C1456 C 0.79501 0.60463 0.23995 0.0
C1457 C 0.80033 0.62208 0.21215 0.0
C1458 C 0.72773 0.64952 0.32346 0.0
C1459 C 0.75863 0.62444 0.26887 0.0
C1460 C 0.70871 0.65158 0.35756 0.0
C1461 C 0.69872 0.63131 0.36967 0.0
C1462 C 0.73729 0.62706 0.30222 0.0
C1463 C 0.70836 0.60913 0.34642 0.0
C1464 C 0.77408 0.6055 0.26748 0.0
C1465 C 0.78404 0.64019 0.21265 0.0
N1466 N 0.72725 0.60762 0.31445 0.0
N1467 N 0.76409 0.64111 0.24116 0.0
H1468 H 0.13161 0.07722 0.03774 0.0
H1469 H 0.14839 0.93666 0.98875 0.0
H1470 H 0.14732 0.03284 0.88598 0.0
H1471 H 0.13508 0.98123 0.14155 0.0
H1472 H 0.1484 0.9715 0.95138 0.0
H1473 H 0.13282 0.04258 0.07572 0.0
C1474 C 0.13535 0.06019 0.01206 0.0
C1475 C 0.13941 0.05818 0.95808 0.0
C1476 C 0.14551 0.97378 0.99308 0.0
C1477 C 0.14083 0.01792 1.00247 0.0
C1478 C 0.14548 0.9538 0.01479 0.0
C1479 C 0.14159 0.95579 0.0688 0.0
C1480 C 0.14156 0.99627 0.02518 0.0
C1481 C 0.13817 0.97869 0.0999 0.0
C1482 C 0.13604 0.04032 0.03416 0.0
C1483 C 0.14405 0.03541 0.92757 0.0
N1484 N 0.13813 0.99797 0.07762 0.0
N1485 N 0.14463 0.01624 0.95016 0.0
H1486 H 0.70516 0.41844 0.65807 0.0
H1487 H 0.78695 0.36679 0.84988 0.0
H1488 H 0.70152 0.34425 0.66024 0.0
H1489 H 0.81547 0.40946 0.74982 0.0
H1490 H 0.74991 0.36488 0.80163 0.0
H1491 H 0.74031 0.42202 0.71279 0.0
C1492 C 0.71166 0.40296 0.67039 0.0
C1493 C 0.70056 0.38095 0.65408 0.0
C1494 C 0.76425 0.37486 0.79079 0.0
C1495 C 0.74027 0.38513 0.71795 0.0
C1496 C 0.78526 0.37612 0.81849 0.0
C1497 C 0.80426 0.38839 0.80393 0.0
C1498 C 0.76201 0.38659 0.74941 0.0
C1499 C 0.80125 0.39985 0.76235 0.0
C1500 C 0.73169 0.40502 0.70147 0.0
C1501 C 0.7097 0.36148 0.67139 0.0
N1502 N 0.78052 0.39888 0.73692 0.0
N1503 N 0.72889 0.36404 0.70272 0.0
loop_
_geom_bond_atom_site_label_1
_geom_bond_atom_site_label_2
_geom_bond_distance
_geom_bond_site_symmetry_2
_ccdc_geom_bond_type
Sm0 C2 2.846 1_554 S
Sm0 O20 2.543 1_554 S
Sm0 O21 2.450 1_554 S
Sm0 O22 2.681 . S
Sm0 O23 2.464 . S
Sm0 O24 2.396 . S
Sm0 O28 2.386 . S
Sm0 O31 2.408 . S
Sm1 C11 2.846 . S
Sm1 O22 2.386 . S
Sm1 O25 2.408 . S
Sm1 O26 2.543 . S
Sm1 O27 2.450 . S
Sm1 O28 2.681 . S
Sm1 O29 2.464 . S
Sm1 O30 2.396 . S
C2 Sm0 2.846 1_556 S
C2 C3 1.506 . S
C2 O20 1.261 . S
C2 O21 1.242 . S
C3 C2 1.506 . S
C3 C4 1.358 . S
C3 C8 1.382 . S
C4 C3 1.358 . S
C4 C5 1.385 . S
C4 H32 0.930 . S
C5 C4 1.385 . S
C5 C6 1.395 . S
C5 H33 0.929 . S
C6 C5 1.395 . S
C6 C7 1.335 . S
C7 C6 1.335 . S
C7 C8 1.398 . S
C7 H34 0.930 . S
C8 C3 1.382 . S
C8 C7 1.398 . S
C8 H35 0.929 . S
C9 O22 1.271 . S
C9 O23 1.251 . S
C10 O24 1.252 . S
C10 O25 1.272 . S
C11 Sm1 2.846 . S
C11 C12 1.506 . S
C11 O26 1.261 . S
C11 O27 1.242 . S
C12 C11 1.506 . S
C12 C13 1.358 . S
C12 C17 1.382 . S
C13 C12 1.358 . S
C13 C14 1.385 . S
C13 H36 0.930 . S
C14 C13 1.385 . S
C14 C15 1.395 . S
C14 H37 0.929 . S
C15 C14 1.395 . S
C15 C16 1.335 . S
C16 C15 1.335 . S
C16 C17 1.398 . S
C16 H38 0.930 . S
C17 C12 1.382 . S
C17 C16 1.398 . S
C17 H39 0.929 . S
C18 O28 1.271 . S
C18 O29 1.251 . S
C19 O30 1.252 . S
C19 O31 1.272 . S
O20 Sm0 2.543 1_556 S
O20 C2 1.261 . S
O21 Sm0 2.450 1_556 S
O21 C2 1.242 . S
O22 Sm0 2.681 . S
O22 Sm1 2.386 . S
O22 C9 1.271 . S
O23 Sm0 2.464 . S
O23 C9 1.251 . S
O24 Sm0 2.396 . S
O24 C10 1.252 . S
O25 Sm1 2.408 . S
O25 C10 1.272 . S
O26 Sm1 2.543 . S
O26 C11 1.261 . S
O27 Sm1 2.450 . S
O27 C11 1.242 . S
O28 Sm0 2.386 . S
O28 Sm1 2.681 . S
O28 C18 1.271 . S
O29 Sm1 2.464 . S
O29 C18 1.251 . S
O30 Sm1 2.396 . S
O30 C19 1.252 . S
O31 Sm0 2.408 . S
O31 C19 1.272 . S
H32 C4 0.930 . S
H33 C5 0.929 . S
H34 C7 0.930 . S
H35 C8 0.929 . S
H36 C13 0.930 . S
H37 C14 0.929 . S
H38 C16 0.930 . S
H39 C17 0.929 . S
Sm40 C42 2.846 . S
Sm40 O60 2.543 . S
Sm40 O61 2.450 . S
Sm40 O62 2.681 . S
Sm40 O63 2.464 . S
Sm40 O64 2.396 . S
Sm40 O68 2.386 . S
Sm40 O71 2.408 . S
Sm41 C51 2.846 . S
Sm41 O62 2.386 . S
Sm41 O65 2.408 . S
Sm41 O66 2.543 . S
Sm41 O67 2.450 . S
Sm41 O68 2.681 . S
Sm41 O69 2.464 . S
Sm41 O70 2.396 . S
C42 Sm40 2.846 . S
C42 C43 1.506 . S
C42 O60 1.261 . S
C42 O61 1.242 . S
C43 C42 1.506 . S
C43 C44 1.358 . S
C43 C48 1.382 . S
C44 C43 1.358 . S
C44 C45 1.385 . S
C44 H72 0.930 . S
C45 C44 1.385 . S
C45 C46 1.395 . S
C45 H73 0.929 . S
C46 C45 1.395 . S
C46 C47 1.335 . S
C47 C46 1.335 . S
C47 C48 1.398 . S
C47 H74 0.930 . S
C48 C43 1.382 . S
C48 C47 1.398 . S
C48 H75 0.929 . S
C49 O62 1.271 . S
C49 O63 1.251 . S
C50 O64 1.252 . S
C50 O65 1.272 . S
C51 Sm41 2.846 . S
C51 C52 1.506 . S
C51 O66 1.261 . S
C51 O67 1.242 . S
C52 C51 1.506 . S
C52 C53 1.358 . S
C52 C57 1.382 . S
C53 C52 1.358 . S
C53 C54 1.385 . S
C53 H76 0.930 . S
C54 C53 1.385 . S
C54 C55 1.395 . S
C54 H77 0.929 . S
C55 C54 1.395 . S
C55 C56 1.335 . S
C56 C55 1.335 . S
C56 C57 1.398 . S
C56 H78 0.930 . S
C57 C52 1.382 . S
C57 C56 1.398 . S
C57 H79 0.929 . S
C58 O68 1.271 . S
C58 O69 1.251 . S
C59 O70 1.252 . S
C59 O71 1.272 . S
O60 Sm40 2.543 . S
O60 C42 1.261 . S
O61 Sm40 2.450 . S
O61 C42 1.242 . S
O62 Sm40 2.681 . S
O62 Sm41 2.386 . S
O62 C49 1.271 . S
O63 Sm40 2.464 . S
O63 C49 1.251 . S
O64 Sm40 2.396 . S
O64 C50 1.252 . S
O65 Sm41 2.408 . S
O65 C50 1.272 . S
O66 Sm41 2.543 . S
O66 C51 1.261 . S
O67 Sm41 2.450 . S
O67 C51 1.242 . S
O68 Sm40 2.386 . S
O68 Sm41 2.681 . S
O68 C58 1.271 . S
O69 Sm41 2.464 . S
O69 C58 1.251 . S
O70 Sm41 2.396 . S
O70 C59 1.252 . S
O71 Sm40 2.408 . S
O71 C59 1.272 . S
H72 C44 0.930 . S
H73 C45 0.929 . S
H74 C47 0.930 . S
H75 C48 0.929 . S
H76 C53 0.930 . S
H77 C54 0.929 . S
H78 C56 0.930 . S
H79 C57 0.929 . S
Sm80 C82 2.846 . S
Sm80 O100 2.543 . S
Sm80 O101 2.450 . S
Sm80 O102 2.681 . S
Sm80 O103 2.464 . S
Sm80 O104 2.396 . S
Sm80 O108 2.386 . S
Sm80 O111 2.408 . S
Sm81 C91 2.846 . S
Sm81 O102 2.386 . S
Sm81 O105 2.408 . S
Sm81 O106 2.543 . S
Sm81 O107 2.450 . S
Sm81 O108 2.681 . S
Sm81 O109 2.464 . S
Sm81 O110 2.396 . S
C82 Sm80 2.846 . S
C82 C83 1.506 . S
C82 O100 1.261 . S
C82 O101 1.242 . S
C83 C82 1.506 . S
C83 C84 1.358 . S
C83 C88 1.382 . S
C84 C83 1.358 . S
C84 C85 1.385 . S
C84 H112 0.930 . S
C85 C84 1.385 . S
C85 C86 1.395 . S
C85 H113 0.929 . S
C86 C85 1.395 . S
C86 C87 1.335 . S
C87 C86 1.335 . S
C87 C88 1.398 . S
C87 H114 0.930 . S
C88 C83 1.382 . S
C88 C87 1.398 . S
C88 H115 0.929 . S
C89 O102 1.271 . S
C89 O103 1.251 . S
C90 O104 1.252 . S
C90 O105 1.272 . S
C91 Sm81 2.846 . S
C91 C92 1.506 . S
C91 O106 1.261 . S
C91 O107 1.242 . S
C92 C91 1.506 . S
C92 C93 1.358 . S
C92 C97 1.382 . S
C93 C92 1.358 . S
C93 C94 1.385 . S
C93 H116 0.930 . S
C94 C93 1.385 . S
C94 C95 1.395 . S
C94 H117 0.929 . S
C95 C94 1.395 . S
C95 C96 1.335 . S
C96 C95 1.335 . S
C96 C97 1.398 . S
C96 H118 0.930 . S
C97 C92 1.382 . S
C97 C96 1.398 . S
C97 H119 0.929 . S
C98 O108 1.271 . S
C98 O109 1.251 . S
C99 O110 1.252 . S
C99 O111 1.272 . S
O100 Sm80 2.543 . S
O100 C82 1.261 . S
O101 Sm80 2.450 . S
O101 C82 1.242 . S
O102 Sm80 2.681 . S
O102 Sm81 2.386 . S
O102 C89 1.271 . S
O103 Sm80 2.464 . S
O103 C89 1.251 . S
O104 Sm80 2.396 . S
O104 C90 1.252 . S
O105 Sm81 2.408 . S
O105 C90 1.272 . S
O106 Sm81 2.543 . S
O106 C91 1.261 . S
O107 Sm81 2.450 . S
O107 C91 1.242 . S
O108 Sm80 2.386 . S
O108 Sm81 2.681 . S
O108 C98 1.271 . S
O109 Sm81 2.464 . S
O109 C98 1.251 . S
O110 Sm81 2.396 . S
O110 C99 1.252 . S
O111 Sm80 2.408 . S
O111 C99 1.272 . S
H112 C84 0.930 . S
H113 C85 0.929 . S
H114 C87 0.930 . S
H115 C88 0.929 . S
H116 C93 0.930 . S
H117 C94 0.929 . S
H118 C96 0.930 . S
H119 C97 0.929 . S
Sm120 C122 2.846 . S
Sm120 O140 2.543 . S
Sm120 O141 2.450 . S
Sm120 O142 2.681 . S
Sm120 O143 2.464 . S
Sm120 O144 2.396 . S
Sm120 O148 2.386 . S
Sm120 O151 2.408 . S
Sm121 C131 2.846 1_556 S
Sm121 O142 2.386 . S
Sm121 O145 2.408 . S
Sm121 O146 2.543 1_556 S
Sm121 O147 2.450 1_556 S
Sm121 O148 2.681 . S
Sm121 O149 2.464 . S
Sm121 O150 2.396 . S
C122 Sm120 2.846 . S
C122 C123 1.506 . S
C122 O140 1.261 . S
C122 O141 1.242 . S
C123 C122 1.506 . S
C123 C124 1.358 . S
C123 C128 1.382 . S
C124 C123 1.358 . S
C124 C125 1.385 . S
C124 H152 0.930 . S
C125 C124 1.385 . S
C125 C126 1.395 . S
C125 H153 0.929 . S
C126 C125 1.395 . S
C126 C127 1.335 . S
C127 C126 1.335 . S
C127 C128 1.398 . S
C127 H154 0.930 . S
C128 C123 1.382 . S
C128 C127 1.398 . S
C128 H155 0.929 . S
C129 O142 1.271 . S
C129 O143 1.251 . S
C130 O144 1.252 . S
C130 O145 1.272 . S
C131 Sm121 2.846 1_554 S
C131 C132 1.506 . S
C131 O146 1.261 . S
C131 O147 1.242 . S
C132 C131 1.506 . S
C132 C133 1.358 . S
C132 C137 1.382 . S
C133 C132 1.358 . S
C133 C134 1.385 . S
C133 H156 0.930 . S
C134 C133 1.385 . S
C134 C135 1.395 . S
C134 H157 0.929 . S
C135 C134 1.395 . S
C135 C136 1.335 . S
C136 C135 1.335 . S
C136 C137 1.398 . S
C136 H158 0.930 . S
C137 C132 1.382 . S
C137 C136 1.398 . S
C137 H159 0.929 . S
C138 O148 1.271 . S
C138 O149 1.251 . S
C139 O150 1.252 . S
C139 O151 1.272 . S
O140 Sm120 2.543 . S
O140 C122 1.261 . S
O141 Sm120 2.450 . S
O141 C122 1.242 . S
O142 Sm120 2.681 . S
O142 Sm121 2.386 . S
O142 C129 1.271 . S
O143 Sm120 2.464 . S
O143 C129 1.251 . S
O144 Sm120 2.396 . S
O144 C130 1.252 . S
O145 Sm121 2.408 . S
O145 C130 1.272 . S
O146 Sm121 2.543 1_554 S
O146 C131 1.261 . S
O147 Sm121 2.450 1_554 S
O147 C131 1.242 . S
O148 Sm120 2.386 . S
O148 Sm121 2.681 . S
O148 C138 1.271 . S
O149 Sm121 2.464 . S
O149 C138 1.251 . S
O150 Sm121 2.396 . S
O150 C139 1.252 . S
O151 Sm120 2.408 . S
O151 C139 1.272 . S
H152 C124 0.930 . S
H153 C125 0.929 . S
H154 C127 0.930 . S
H155 C128 0.929 . S
H156 C133 0.930 . S
H157 C134 0.929 . S
H158 C136 0.930 . S
H159 C137 0.929 . S
Sm160 C162 2.846 1_556 S
Sm160 O180 2.543 1_556 S
Sm160 O181 2.450 1_556 S
Sm160 O182 2.681 . S
Sm160 O183 2.464 . S
Sm160 O184 2.396 . S
Sm160 O188 2.386 . S
Sm160 O191 2.408 . S
Sm161 C171 2.846 . S
Sm161 O182 2.386 . S
Sm161 O185 2.408 . S
Sm161 O186 2.543 . S
Sm161 O187 2.450 . S
Sm161 O188 2.681 . S
Sm161 O189 2.464 . S
Sm161 O190 2.396 . S
C162 Sm160 2.846 1_554 S
C162 C163 1.506 . S
C162 O180 1.261 . S
C162 O181 1.242 . S
C163 C162 1.506 . S
C163 C164 1.358 . S
C163 C168 1.382 . S
C164 C163 1.358 . S
C164 C165 1.385 . S
C164 H192 0.930 . S
C165 C164 1.385 . S
C165 C166 1.395 . S
C165 H193 0.929 . S
C166 C165 1.395 . S
C166 C167 1.335 . S
C167 C166 1.335 . S
C167 C168 1.398 . S
C167 H194 0.930 . S
C168 C163 1.382 . S
C168 C167 1.398 . S
C168 H195 0.929 . S
C169 O182 1.271 . S
C169 O183 1.251 . S
C170 O184 1.252 . S
C170 O185 1.272 . S
C171 Sm161 2.846 . S
C171 C172 1.506 . S
C171 O186 1.261 . S
C171 O187 1.242 . S
C172 C171 1.506 . S
C172 C173 1.358 . S
C172 C177 1.382 . S
C173 C172 1.358 . S
C173 C174 1.385 . S
C173 H196 0.930 . S
C174 C173 1.385 . S
C174 C175 1.395 . S
C174 H197 0.929 . S
C175 C174 1.395 . S
C175 C176 1.335 . S
C176 C175 1.335 . S
C176 C177 1.398 . S
C176 H198 0.930 . S
C177 C172 1.382 . S
C177 C176 1.398 . S
C177 H199 0.929 . S
C178 O188 1.271 . S
C178 O189 1.251 . S
C179 O190 1.252 . S
C179 O191 1.272 . S
O180 Sm160 2.543 1_554 S
O180 C162 1.261 . S
O181 Sm160 2.450 1_554 S
O181 C162 1.242 . S
O182 Sm160 2.681 . S
O182 Sm161 2.386 . S
O182 C169 1.271 . S
O183 Sm160 2.464 . S
O183 C169 1.251 . S
O184 Sm160 2.396 . S
O184 C170 1.252 . S
O185 Sm161 2.408 . S
O185 C170 1.272 . S
O186 Sm161 2.543 . S
O186 C171 1.261 . S
O187 Sm161 2.450 . S
O187 C171 1.242 . S
O188 Sm160 2.386 . S
O188 Sm161 2.681 . S
O188 C178 1.271 . S
O189 Sm161 2.464 . S
O189 C178 1.251 . S
O190 Sm161 2.396 . S
O190 C179 1.252 . S
O191 Sm160 2.408 . S
O191 C179 1.272 . S
H192 C164 0.930 . S
H193 C165 0.929 . S
H194 C167 0.930 . S
H195 C168 0.929 . S
H196 C173 0.930 . S
H197 C174 0.929 . S
H198 C176 0.930 . S
H199 C177 0.929 . S
Sm200 C202 2.846 . S
Sm200 O220 2.543 . S
Sm200 O221 2.450 . S
Sm200 O222 2.681 . S
Sm200 O223 2.464 . S
Sm200 O224 2.396 . S
Sm200 O228 2.386 . S
Sm200 O231 2.408 . S
Sm201 C211 2.846 1_554 S
Sm201 O222 2.386 . S
Sm201 O225 2.408 . S
Sm201 O226 2.543 1_554 S
Sm201 O227 2.450 1_554 S
Sm201 O228 2.681 . S
Sm201 O229 2.464 . S
Sm201 O230 2.396 . S
C202 Sm200 2.846 . S
C202 C203 1.506 . S
C202 O220 1.261 . S
C202 O221 1.242 . S
C203 C202 1.506 . S
C203 C204 1.358 . S
C203 C208 1.382 . S
C204 C203 1.358 . S
C204 C205 1.385 . S
C204 H232 0.930 . S
C205 C204 1.385 . S
C205 C206 1.395 . S
C205 H233 0.929 . S
C206 C205 1.395 . S
C206 C207 1.335 . S
C207 C206 1.335 . S
C207 C208 1.398 . S
C207 H234 0.930 . S
C208 C203 1.382 . S
C208 C207 1.398 . S
C208 H235 0.929 . S
C209 O222 1.271 . S
C209 O223 1.251 . S
C210 O224 1.252 . S
C210 O225 1.272 . S
C211 Sm201 2.846 1_556 S
C211 C212 1.506 . S
C211 O226 1.261 . S
C211 O227 1.242 . S
C212 C211 1.506 . S
C212 C213 1.358 . S
C212 C217 1.382 . S
C213 C212 1.358 . S
C213 C214 1.385 . S
C213 H236 0.930 . S
C214 C213 1.385 . S
C214 C215 1.395 . S
C214 H237 0.929 . S
C215 C214 1.395 . S
C215 C216 1.335 . S
C216 C215 1.335 . S
C216 C217 1.398 . S
C216 H238 0.930 . S
C217 C212 1.382 . S
C217 C216 1.398 . S
C217 H239 0.929 . S
C218 O228 1.271 . S
C218 O229 1.251 . S
C219 O230 1.252 . S
C219 O231 1.272 . S
O220 Sm200 2.543 . S
O220 C202 1.261 . S
O221 Sm200 2.450 . S
O221 C202 1.242 . S
O222 Sm200 2.681 . S
O222 Sm201 2.386 . S
O222 C209 1.271 . S
O223 Sm200 2.464 . S
O223 C209 1.251 . S
O224 Sm200 2.396 . S
O224 C210 1.252 . S
O225 Sm201 2.408 . S
O225 C210 1.272 . S
O226 Sm201 2.543 1_556 S
O226 C211 1.261 . S
O227 Sm201 2.450 1_556 S
O227 C211 1.242 . S
O228 Sm200 2.386 . S
O228 Sm201 2.681 . S
O228 C218 1.271 . S
O229 Sm201 2.464 . S
O229 C218 1.251 . S
O230 Sm201 2.396 . S
O230 C219 1.252 . S
O231 Sm200 2.408 . S
O231 C219 1.272 . S
H232 C204 0.930 . S
H233 C205 0.929 . S
H234 C207 0.930 . S
H235 C208 0.929 . S
H236 C213 0.930 . S
H237 C214 0.929 . S
H238 C216 0.930 . S
H239 C217 0.929 . S
Sm240 C242 2.846 . S
Sm240 O260 2.543 . S
Sm240 O261 2.450 . S
Sm240 O262 2.681 . S
Sm240 O263 2.464 . S
Sm240 O264 2.396 . S
Sm240 O268 2.386 . S
Sm240 O271 2.408 . S
Sm241 C251 2.846 . S
Sm241 O262 2.386 . S
Sm241 O265 2.408 . S
Sm241 O266 2.543 . S
Sm241 O267 2.450 . S
Sm241 O268 2.681 . S
Sm241 O269 2.464 . S
Sm241 O270 2.396 . S
C242 Sm240 2.846 . S
C242 C243 1.506 . S
C242 O260 1.261 . S
C242 O261 1.242 . S
C243 C242 1.506 . S
C243 C244 1.358 . S
C243 C248 1.382 . S
C244 C243 1.358 . S
C244 C245 1.385 . S
C244 H272 0.930 . S
C245 C244 1.385 . S
C245 C246 1.395 . S
C245 H273 0.929 . S
C246 C245 1.395 . S
C246 C247 1.335 . S
C247 C246 1.335 . S
C247 C248 1.398 . S
C247 H274 0.930 . S
C248 C243 1.382 . S
C248 C247 1.398 . S
C248 H275 0.929 . S
C249 O262 1.271 . S
C249 O263 1.251 . S
C250 O264 1.252 . S
C250 O265 1.272 . S
C251 Sm241 2.846 . S
C251 C252 1.506 . S
C251 O266 1.261 . S
C251 O267 1.242 . S
C252 C251 1.506 . S
C252 C253 1.358 . S
C252 C257 1.382 . S
C253 C252 1.358 . S
C253 C254 1.385 . S
C253 H276 0.930 . S
C254 C253 1.385 . S
C254 C255 1.395 . S
C254 H277 0.929 . S
C255 C254 1.395 . S
C255 C256 1.335 . S
C256 C255 1.335 . S
C256 C257 1.398 . S
C256 H278 0.930 . S
C257 C252 1.382 . S
C257 C256 1.398 . S
C257 H279 0.929 . S
C258 O268 1.271 . S
C258 O269 1.251 . S
C259 O270 1.252 . S
C259 O271 1.272 . S
O260 Sm240 2.543 . S
O260 C242 1.261 . S
O261 Sm240 2.450 . S
O261 C242 1.242 . S
O262 Sm240 2.681 . S
O262 Sm241 2.386 . S
O262 C249 1.271 . S
O263 Sm240 2.464 . S
O263 C249 1.251 . S
O264 Sm240 2.396 . S
O264 C250 1.252 . S
O265 Sm241 2.408 . S
O265 C250 1.272 . S
O266 Sm241 2.543 . S
O266 C251 1.261 . S
O267 Sm241 2.450 . S
O267 C251 1.242 . S
O268 Sm240 2.386 . S
O268 Sm241 2.681 . S
O268 C258 1.271 . S
O269 Sm241 2.464 . S
O269 C258 1.251 . S
O270 Sm241 2.396 . S
O270 C259 1.252 . S
O271 Sm240 2.408 . S
O271 C259 1.272 . S
H272 C244 0.930 . S
H273 C245 0.929 . S
H274 C247 0.930 . S
H275 C248 0.929 . S
H276 C253 0.930 . S
H277 C254 0.929 . S
H278 C256 0.930 . S
H279 C257 0.929 . S
Sm280 C282 2.846 . S
Sm280 O300 2.543 . S
Sm280 O301 2.450 . S
Sm280 O302 2.681 . S
Sm280 O303 2.464 . S
Sm280 O304 2.396 . S
Sm280 O308 2.386 . S
Sm280 O311 2.408 . S
Sm281 C291 2.846 . S
Sm281 O302 2.386 . S
Sm281 O305 2.408 . S
Sm281 O306 2.543 . S
Sm281 O307 2.450 . S
Sm281 O308 2.681 . S
Sm281 O309 2.464 . S
Sm281 O310 2.396 . S
C282 Sm280 2.846 . S
C282 C283 1.506 . S
C282 O300 1.261 . S
C282 O301 1.242 . S
C283 C282 1.506 . S
C283 C284 1.358 . S
C283 C288 1.382 . S
C284 C283 1.358 . S
C284 C285 1.385 . S
C284 H312 0.930 . S
C285 C284 1.385 . S
C285 C286 1.395 . S
C285 H313 0.929 . S
C286 C285 1.395 . S
C286 C287 1.335 . S
C287 C286 1.335 . S
C287 C288 1.398 . S
C287 H314 0.930 . S
C288 C283 1.382 . S
C288 C287 1.398 . S
C288 H315 0.929 . S
C289 O302 1.271 . S
C289 O303 1.251 . S
C290 O304 1.252 . S
C290 O305 1.272 . S
C291 Sm281 2.846 . S
C291 C292 1.506 . S
C291 O306 1.261 . S
C291 O307 1.242 . S
C292 C291 1.506 . S
C292 C293 1.358 . S
C292 C297 1.382 . S
C293 C292 1.358 . S
C293 C294 1.385 . S
C293 H316 0.930 . S
C294 C293 1.385 . S
C294 C295 1.395 . S
C294 H317 0.929 . S
C295 C294 1.395 . S
C295 C296 1.335 . S
C296 C295 1.335 . S
C296 C297 1.398 . S
C296 H318 0.930 . S
C297 C292 1.382 . S
C297 C296 1.398 . S
C297 H319 0.929 . S
C298 O308 1.271 . S
C298 O309 1.251 . S
C299 O310 1.252 . S
C299 O311 1.272 . S
O300 Sm280 2.543 . S
O300 C282 1.261 . S
O301 Sm280 2.450 . S
O301 C282 1.242 . S
O302 Sm280 2.681 . S
O302 Sm281 2.386 . S
O302 C289 1.271 . S
O303 Sm280 2.464 . S
O303 C289 1.251 . S
O304 Sm280 2.396 . S
O304 C290 1.252 . S
O305 Sm281 2.408 . S
O305 C290 1.272 . S
O306 Sm281 2.543 . S
O306 C291 1.261 . S
O307 Sm281 2.450 . S
O307 C291 1.242 . S
O308 Sm280 2.386 . S
O308 Sm281 2.681 . S
O308 C298 1.271 . S
O309 Sm281 2.464 . S
O309 C298 1.251 . S
O310 Sm281 2.396 . S
O310 C299 1.252 . S
O311 Sm280 2.408 . S
O311 C299 1.272 . S
H312 C284 0.930 . S
H313 C285 0.929 . S
H314 C287 0.930 . S
H315 C288 0.929 . S
H316 C293 0.930 . S
H317 C294 0.929 . S
H318 C296 0.930 . S
H319 C297 0.929 . S
Sm320 C322 2.846 . S
Sm320 O340 2.543 . S
Sm320 O341 2.450 . S
Sm320 O342 2.681 . S
Sm320 O343 2.464 . S
Sm320 O344 2.396 . S
Sm320 O348 2.386 . S
Sm320 O351 2.408 . S
Sm321 C331 2.846 1_556 S
Sm321 O342 2.386 . S
Sm321 O345 2.408 . S
Sm321 O346 2.543 1_556 S
Sm321 O347 2.450 1_556 S
Sm321 O348 2.681 . S
Sm321 O349 2.464 . S
Sm321 O350 2.396 . S
C322 Sm320 2.846 . S
C322 C323 1.506 . S
C322 O340 1.261 . S
C322 O341 1.242 . S
C323 C322 1.506 . S
C323 C324 1.358 . S
C323 C328 1.382 . S
C324 C323 1.358 . S
C324 C325 1.385 . S
C324 H352 0.930 . S
C325 C324 1.385 . S
C325 C326 1.395 . S
C325 H353 0.929 . S
C326 C325 1.395 . S
C326 C327 1.335 . S
C327 C326 1.335 . S
C327 C328 1.398 . S
C327 H354 0.930 . S
C328 C323 1.382 . S
C328 C327 1.398 . S
C328 H355 0.929 . S
C329 O342 1.271 . S
C329 O343 1.251 . S
C330 O344 1.252 . S
C330 O345 1.272 . S
C331 Sm321 2.846 1_554 S
C331 C332 1.506 . S
C331 O346 1.261 . S
C331 O347 1.242 . S
C332 C331 1.506 . S
C332 C333 1.358 . S
C332 C337 1.382 . S
C333 C332 1.358 . S
C333 C334 1.385 . S
C333 H356 0.930 . S
C334 C333 1.385 . S
C334 C335 1.395 . S
C334 H357 0.929 . S
C335 C334 1.395 . S
C335 C336 1.335 . S
C336 C335 1.335 . S
C336 C337 1.398 . S
C336 H358 0.930 . S
C337 C332 1.382 . S
C337 C336 1.398 . S
C337 H359 0.929 . S
C338 O348 1.271 . S
C338 O349 1.251 . S
C339 O350 1.252 . S
C339 O351 1.272 . S
O340 Sm320 2.543 . S
O340 C322 1.261 . S
O341 Sm320 2.450 . S
O341 C322 1.242 . S
O342 Sm320 2.681 . S
O342 Sm321 2.386 . S
O342 C329 1.271 . S
O343 Sm320 2.464 . S
O343 C329 1.251 . S
O344 Sm320 2.396 . S
O344 C330 1.252 . S
O345 Sm321 2.408 . S
O345 C330 1.272 . S
O346 Sm321 2.543 1_554 S
O346 C331 1.261 . S
O347 Sm321 2.450 1_554 S
O347 C331 1.242 . S
O348 Sm320 2.386 . S
O348 Sm321 2.681 . S
O348 C338 1.271 . S
O349 Sm321 2.464 . S
O349 C338 1.251 . S
O350 Sm321 2.396 . S
O350 C339 1.252 . S
O351 Sm320 2.408 . S
O351 C339 1.272 . S
H352 C324 0.930 . S
H353 C325 0.929 . S
H354 C327 0.930 . S
H355 C328 0.929 . S
H356 C333 0.930 . S
H357 C334 0.929 . S
H358 C336 0.930 . S
H359 C337 0.929 . S
Sm360 C362 2.846 . S
Sm360 O380 2.543 . S
Sm360 O381 2.450 . S
Sm360 O382 2.681 . S
Sm360 O383 2.464 . S
Sm360 O384 2.396 . S
Sm360 O388 2.386 . S
Sm360 O391 2.408 . S
Sm361 C371 2.846 . S
Sm361 O382 2.386 . S
Sm361 O385 2.408 . S
Sm361 O386 2.543 . S
Sm361 O387 2.450 . S
Sm361 O388 2.681 . S
Sm361 O389 2.464 . S
Sm361 O390 2.396 . S
C362 Sm360 2.846 . S
C362 C363 1.506 . S
C362 O380 1.261 . S
C362 O381 1.242 . S
C363 C362 1.506 . S
C363 C364 1.358 . S
C363 C368 1.382 . S
C364 C363 1.358 . S
C364 C365 1.385 . S
C364 H392 0.930 . S
C365 C364 1.385 . S
C365 C366 1.395 . S
C365 H393 0.929 . S
C366 C365 1.395 . S
C366 C367 1.335 . S
C367 C366 1.335 . S
C367 C368 1.398 . S
C367 H394 0.930 . S
C368 C363 1.382 . S
C368 C367 1.398 . S
C368 H395 0.929 . S
C369 O382 1.271 . S
C369 O383 1.251 . S
C370 O384 1.252 . S
C370 O385 1.272 . S
C371 Sm361 2.846 . S
C371 C372 1.506 . S
C371 O386 1.261 . S
C371 O387 1.242 . S
C372 C371 1.506 . S
C372 C373 1.358 . S
C372 C377 1.382 . S
C373 C372 1.358 . S
C373 C374 1.385 . S
C373 H396 0.930 . S
C374 C373 1.385 . S
C374 C375 1.395 . S
C374 H397 0.929 . S
C375 C374 1.395 . S
C375 C376 1.335 . S
C376 C375 1.335 . S
C376 C377 1.398 . S
C376 H398 0.930 . S
C377 C372 1.382 . S
C377 C376 1.398 . S
C377 H399 0.929 . S
C378 O388 1.271 . S
C378 O389 1.251 . S
C379 O390 1.252 . S
C379 O391 1.272 . S
O380 Sm360 2.543 . S
O380 C362 1.261 . S
O381 Sm360 2.450 . S
O381 C362 1.242 . S
O382 Sm360 2.681 . S
O382 Sm361 2.386 . S
O382 C369 1.271 . S
O383 Sm360 2.464 . S
O383 C369 1.251 . S
O384 Sm360 2.396 . S
O384 C370 1.252 . S
O385 Sm361 2.408 . S
O385 C370 1.272 . S
O386 Sm361 2.543 . S
O386 C371 1.261 . S
O387 Sm361 2.450 . S
O387 C371 1.242 . S
O388 Sm360 2.386 . S
O388 Sm361 2.681 . S
O388 C378 1.271 . S
O389 Sm361 2.464 . S
O389 C378 1.251 . S
O390 Sm361 2.396 . S
O390 C379 1.252 . S
O391 Sm360 2.408 . S
O391 C379 1.272 . S
H392 C364 0.930 . S
H393 C365 0.929 . S
H394 C367 0.930 . S
H395 C368 0.929 . S
H396 C373 0.930 . S
H397 C374 0.929 . S
H398 C376 0.930 . S
H399 C377 0.929 . S
Sm400 C402 2.846 . S
Sm400 O420 2.543 . S
Sm400 O421 2.450 . S
Sm400 O422 2.681 . S
Sm400 O423 2.464 . S
Sm400 O424 2.396 . S
Sm400 O428 2.386 . S
Sm400 O431 2.408 . S
Sm401 C411 2.846 . S
Sm401 O422 2.386 . S
Sm401 O425 2.408 . S
Sm401 O426 2.543 . S
Sm401 O427 2.450 . S
Sm401 O428 2.681 . S
Sm401 O429 2.464 . S
Sm401 O430 2.396 . S
C402 Sm400 2.846 . S
C402 C403 1.506 . S
C402 O420 1.261 . S
C402 O421 1.242 . S
C403 C402 1.506 . S
C403 C404 1.358 . S
C403 C408 1.382 . S
C404 C403 1.358 . S
C404 C405 1.385 . S
C404 H432 0.930 . S
C405 C404 1.385 . S
C405 C406 1.395 . S
C405 H433 0.929 . S
C406 C405 1.395 . S
C406 C407 1.335 . S
C407 C406 1.335 . S
C407 C408 1.398 . S
C407 H434 0.930 . S
C408 C403 1.382 . S
C408 C407 1.398 . S
C408 H435 0.929 . S
C409 O422 1.271 . S
C409 O423 1.251 . S
C410 O424 1.252 . S
C410 O425 1.272 . S
C411 Sm401 2.846 . S
C411 C412 1.506 . S
C411 O426 1.261 . S
C411 O427 1.242 . S
C412 C411 1.506 . S
C412 C413 1.358 . S
C412 C417 1.382 . S
C413 C412 1.358 . S
C413 C414 1.385 . S
C413 H436 0.930 . S
C414 C413 1.385 . S
C414 C415 1.395 . S
C414 H437 0.929 . S
C415 C414 1.395 . S
C415 C416 1.335 . S
C416 C415 1.335 . S
C416 C417 1.398 . S
C416 H438 0.930 . S
C417 C412 1.382 . S
C417 C416 1.398 . S
C417 H439 0.929 . S
C418 O428 1.271 . S
C418 O429 1.251 . S
C419 O430 1.252 . S
C419 O431 1.272 . S
O420 Sm400 2.543 . S
O420 C402 1.261 . S
O421 Sm400 2.450 . S
O421 C402 1.242 . S
O422 Sm400 2.681 . S
O422 Sm401 2.386 . S
O422 C409 1.271 . S
O423 Sm400 2.464 . S
O423 C409 1.251 . S
O424 Sm400 2.396 . S
O424 C410 1.252 . S
O425 Sm401 2.408 . S
O425 C410 1.272 . S
O426 Sm401 2.543 . S
O426 C411 1.261 . S
O427 Sm401 2.450 . S
O427 C411 1.242 . S
O428 Sm400 2.386 . S
O428 Sm401 2.681 . S
O428 C418 1.271 . S
O429 Sm401 2.464 . S
O429 C418 1.251 . S
O430 Sm401 2.396 . S
O430 C419 1.252 . S
O431 Sm400 2.408 . S
O431 C419 1.272 . S
H432 C404 0.930 . S
H433 C405 0.929 . S
H434 C407 0.930 . S
H435 C408 0.929 . S
H436 C413 0.930 . S
H437 C414 0.929 . S
H438 C416 0.930 . S
H439 C417 0.929 . S
Sm440 C442 2.846 1_554 S
Sm440 O460 2.543 1_554 S
Sm440 O461 2.450 1_554 S
Sm440 O462 2.681 . S
Sm440 O463 2.464 . S
Sm440 O464 2.396 . S
Sm440 O468 2.386 . S
Sm440 O471 2.408 . S
Sm441 C451 2.846 . S
Sm441 O462 2.386 . S
Sm441 O465 2.408 . S
Sm441 O466 2.543 . S
Sm441 O467 2.450 . S
Sm441 O468 2.681 . S
Sm441 O469 2.464 . S
Sm441 O470 2.396 . S
C442 Sm440 2.846 1_556 S
C442 C443 1.506 . S
C442 O460 1.261 . S
C442 O461 1.242 . S
C443 C442 1.506 . S
C443 C444 1.358 . S
C443 C448 1.382 . S
C444 C443 1.358 . S
C444 C445 1.385 . S
C444 H472 0.930 . S
C445 C444 1.385 . S
C445 C446 1.395 . S
C445 H473 0.929 . S
C446 C445 1.395 . S
C446 C447 1.335 . S
C447 C446 1.335 . S
C447 C448 1.398 . S
C447 H474 0.930 . S
C448 C443 1.382 . S
C448 C447 1.398 . S
C448 H475 0.929 . S
C449 O462 1.271 . S
C449 O463 1.251 . S
C450 O464 1.252 . S
C450 O465 1.272 . S
C451 Sm441 2.846 . S
C451 C452 1.506 . S
C451 O466 1.261 . S
C451 O467 1.242 . S
C452 C451 1.506 . S
C452 C453 1.358 . S
C452 C457 1.382 . S
C453 C452 1.358 . S
C453 C454 1.385 . S
C453 H476 0.930 . S
C454 C453 1.385 . S
C454 C455 1.395 . S
C454 H477 0.929 . S
C455 C454 1.395 . S
C455 C456 1.335 . S
C456 C455 1.335 . S
C456 C457 1.398 . S
C456 H478 0.930 . S
C457 C452 1.382 . S
C457 C456 1.398 . S
C457 H479 0.929 . S
C458 O468 1.271 . S
C458 O469 1.251 . S
C459 O470 1.252 . S
C459 O471 1.272 . S
O460 Sm440 2.543 1_556 S
O460 C442 1.261 . S
O461 Sm440 2.450 1_556 S
O461 C442 1.242 . S
O462 Sm440 2.681 . S
O462 Sm441 2.386 . S
O462 C449 1.271 . S
O463 Sm440 2.464 . S
O463 C449 1.251 . S
O464 Sm440 2.396 . S
O464 C450 1.252 . S
O465 Sm441 2.408 . S
O465 C450 1.272 . S
O466 Sm441 2.543 . S
O466 C451 1.261 . S
O467 Sm441 2.450 . S
O467 C451 1.242 . S
O468 Sm440 2.386 . S
O468 Sm441 2.681 . S
O468 C458 1.271 . S
O469 Sm441 2.464 . S
O469 C458 1.251 . S
O470 Sm441 2.396 . S
O470 C459 1.252 . S
O471 Sm440 2.408 . S
O471 C459 1.272 . S
H472 C444 0.930 . S
H473 C445 0.929 . S
H474 C447 0.930 . S
H475 C448 0.929 . S
H476 C453 0.930 . S
H477 C454 0.929 . S
H478 C456 0.930 . S
H479 C457 0.929 . S
Sm480 C482 2.846 . S
Sm480 O500 2.543 . S
Sm480 O501 2.450 . S
Sm480 O502 2.681 . S
Sm480 O503 2.464 . S
Sm480 O504 2.396 . S
Sm480 O508 2.386 . S
Sm480 O511 2.408 . S
Sm481 C491 2.846 1_554 S
Sm481 O502 2.386 . S
Sm481 O505 2.408 . S
Sm481 O506 2.543 1_554 S
Sm481 O507 2.450 1_554 S
Sm481 O508 2.681 . S
Sm481 O509 2.464 . S
Sm481 O510 2.396 . S
C482 Sm480 2.846 . S
C482 C483 1.506 . S
C482 O500 1.261 . S
C482 O501 1.242 . S
C483 C482 1.506 . S
C483 C484 1.358 . S
C483 C488 1.382 . S
C484 C483 1.358 . S
C484 C485 1.385 . S
C484 H512 0.930 . S
C485 C484 1.385 . S
C485 C486 1.395 . S
C485 H513 0.929 . S
C486 C485 1.395 . S
C486 C487 1.335 . S
C487 C486 1.335 . S
C487 C488 1.398 . S
C487 H514 0.930 . S
C488 C483 1.382 . S
C488 C487 1.398 . S
C488 H515 0.929 . S
C489 O502 1.271 . S
C489 O503 1.251 . S
C490 O504 1.252 . S
C490 O505 1.272 . S
C491 Sm481 2.846 1_556 S
C491 C492 1.506 . S
C491 O506 1.261 . S
C491 O507 1.242 . S
C492 C491 1.506 . S
C492 C493 1.358 . S
C492 C497 1.382 . S
C493 C492 1.358 . S
C493 C494 1.385 . S
C493 H516 0.930 . S
C494 C493 1.385 . S
C494 C495 1.395 . S
C494 H517 0.929 . S
C495 C494 1.395 . S
C495 C496 1.335 . S
C496 C495 1.335 . S
C496 C497 1.398 . S
C496 H518 0.930 . S
C497 C492 1.382 . S
C497 C496 1.398 . S
C497 H519 0.929 . S
C498 O508 1.271 . S
C498 O509 1.251 . S
C499 O510 1.252 . S
C499 O511 1.272 . S
O500 Sm480 2.543 . S
O500 C482 1.261 . S
O501 Sm480 2.450 . S
O501 C482 1.242 . S
O502 Sm480 2.681 . S
O502 Sm481 2.386 . S
O502 C489 1.271 . S
O503 Sm480 2.464 . S
O503 C489 1.251 . S
O504 Sm480 2.396 . S
O504 C490 1.252 . S
O505 Sm481 2.408 . S
O505 C490 1.272 . S
O506 Sm481 2.543 1_556 S
O506 C491 1.261 . S
O507 Sm481 2.450 1_556 S
O507 C491 1.242 . S
O508 Sm480 2.386 . S
O508 Sm481 2.681 . S
O508 C498 1.271 . S
O509 Sm481 2.464 . S
O509 C498 1.251 . S
O510 Sm481 2.396 . S
O510 C499 1.252 . S
O511 Sm480 2.408 . S
O511 C499 1.272 . S
H512 C484 0.930 . S
H513 C485 0.929 . S
H514 C487 0.930 . S
H515 C488 0.929 . S
H516 C493 0.930 . S
H517 C494 0.929 . S
H518 C496 0.930 . S
H519 C497 0.929 . S
Sm520 C522 2.846 1_556 S
Sm520 O540 2.543 1_556 S
Sm520 O541 2.450 1_556 S
Sm520 O542 2.681 . S
Sm520 O543 2.464 . S
Sm520 O544 2.396 . S
Sm520 O548 2.386 . S
Sm520 O551 2.408 . S
Sm521 C531 2.846 . S
Sm521 O542 2.386 . S
Sm521 O545 2.408 . S
Sm521 O546 2.543 . S
Sm521 O547 2.450 . S
Sm521 O548 2.681 . S
Sm521 O549 2.464 . S
Sm521 O550 2.396 . S
C522 Sm520 2.846 1_554 S
C522 C523 1.506 . S
C522 O540 1.261 . S
C522 O541 1.242 . S
C523 C522 1.506 . S
C523 C524 1.358 . S
C523 C528 1.382 . S
C524 C523 1.358 . S
C524 C525 1.385 . S
C524 H552 0.930 . S
C525 C524 1.385 . S
C525 C526 1.395 . S
C525 H553 0.929 . S
C526 C525 1.395 . S
C526 C527 1.335 . S
C527 C526 1.335 . S
C527 C528 1.398 . S
C527 H554 0.930 . S
C528 C523 1.382 . S
C528 C527 1.398 . S
C528 H555 0.929 . S
C529 O542 1.271 . S
C529 O543 1.251 . S
C530 O544 1.252 . S
C530 O545 1.272 . S
C531 Sm521 2.846 . S
C531 C532 1.506 . S
C531 O546 1.261 . S
C531 O547 1.242 . S
C532 C531 1.506 . S
C532 C533 1.358 . S
C532 C537 1.382 . S
C533 C532 1.358 . S
C533 C534 1.385 . S
C533 H556 0.930 . S
C534 C533 1.385 . S
C534 C535 1.395 . S
C534 H557 0.929 . S
C535 C534 1.395 . S
C535 C536 1.335 . S
C536 C535 1.335 . S
C536 C537 1.398 . S
C536 H558 0.930 . S
C537 C532 1.382 . S
C537 C536 1.398 . S
C537 H559 0.929 . S
C538 O548 1.271 . S
C538 O549 1.251 . S
C539 O550 1.252 . S
C539 O551 1.272 . S
O540 Sm520 2.543 1_554 S
O540 C522 1.261 . S
O541 Sm520 2.450 1_554 S
O541 C522 1.242 . S
O542 Sm520 2.681 . S
O542 Sm521 2.386 . S
O542 C529 1.271 . S
O543 Sm520 2.464 . S
O543 C529 1.251 . S
O544 Sm520 2.396 . S
O544 C530 1.252 . S
O545 Sm521 2.408 . S
O545 C530 1.272 . S
O546 Sm521 2.543 . S
O546 C531 1.261 . S
O547 Sm521 2.450 . S
O547 C531 1.242 . S
O548 Sm520 2.386 . S
O548 Sm521 2.681 . S
O548 C538 1.271 . S
O549 Sm521 2.464 . S
O549 C538 1.251 . S
O550 Sm521 2.396 . S
O550 C539 1.252 . S
O551 Sm520 2.408 . S
O551 C539 1.272 . S
H552 C524 0.930 . S
H553 C525 0.929 . S
H554 C527 0.930 . S
H555 C528 0.929 . S
H556 C533 0.930 . S
H557 C534 0.929 . S
H558 C536 0.930 . S
H559 C537 0.929 . S
Sm560 C562 2.846 . S
Sm560 O580 2.543 . S
Sm560 O581 2.450 . S
Sm560 O582 2.681 . S
Sm560 O583 2.464 . S
Sm560 O584 2.396 . S
Sm560 O588 2.386 . S
Sm560 O591 2.408 . S
Sm561 C571 2.846 . S
Sm561 O582 2.386 . S
Sm561 O585 2.408 . S
Sm561 O586 2.543 . S
Sm561 O587 2.450 . S
Sm561 O588 2.681 . S
Sm561 O589 2.464 . S
Sm561 O590 2.396 . S
C562 Sm560 2.846 . S
C562 C563 1.506 . S
C562 O580 1.261 . S
C562 O581 1.242 . S
C563 C562 1.506 . S
C563 C564 1.358 . S
C563 C568 1.382 . S
C564 C563 1.358 . S
C564 C565 1.385 . S
C564 H592 0.930 . S
C565 C564 1.385 . S
C565 C566 1.395 . S
C565 H593 0.929 . S
C566 C565 1.395 . S
C566 C567 1.335 . S
C567 C566 1.335 . S
C567 C568 1.398 . S
C567 H594 0.930 . S
C568 C563 1.382 . S
C568 C567 1.398 . S
C568 H595 0.929 . S
C569 O582 1.271 . S
C569 O583 1.251 . S
C570 O584 1.252 . S
C570 O585 1.272 . S
C571 Sm561 2.846 . S
C571 C572 1.506 . S
C571 O586 1.261 . S
C571 O587 1.242 . S
C572 C571 1.506 . S
C572 C573 1.358 . S
C572 C577 1.382 . S
C573 C572 1.358 . S
C573 C574 1.385 . S
C573 H596 0.930 . S
C574 C573 1.385 . S
C574 C575 1.395 . S
C574 H597 0.929 . S
C575 C574 1.395 . S
C575 C576 1.335 . S
C576 C575 1.335 . S
C576 C577 1.398 . S
C576 H598 0.930 . S
C577 C572 1.382 . S
C577 C576 1.398 . S
C577 H599 0.929 . S
C578 O588 1.271 . S
C578 O589 1.251 . S
C579 O590 1.252 . S
C579 O591 1.272 . S
O580 Sm560 2.543 . S
O580 C562 1.261 . S
O581 Sm560 2.450 . S
O581 C562 1.242 . S
O582 Sm560 2.681 . S
O582 Sm561 2.386 . S
O582 C569 1.271 . S
O583 Sm560 2.464 . S
O583 C569 1.251 . S
O584 Sm560 2.396 . S
O584 C570 1.252 . S
O585 Sm561 2.408 . S
O585 C570 1.272 . S
O586 Sm561 2.543 . S
O586 C571 1.261 . S
O587 Sm561 2.450 . S
O587 C571 1.242 . S
O588 Sm560 2.386 . S
O588 Sm561 2.681 . S
O588 C578 1.271 . S
O589 Sm561 2.464 . S
O589 C578 1.251 . S
O590 Sm561 2.396 . S
O590 C579 1.252 . S
O591 Sm560 2.408 . S
O591 C579 1.272 . S
H592 C564 0.930 . S
H593 C565 0.929 . S
H594 C567 0.930 . S
H595 C568 0.929 . S
H596 C573 0.930 . S
H597 C574 0.929 . S
H598 C576 0.930 . S
H599 C577 0.929 . S
Sm600 C602 2.846 . S
Sm600 O620 2.543 . S
Sm600 O621 2.450 . S
Sm600 O622 2.681 . S
Sm600 O623 2.464 . S
Sm600 O624 2.396 . S
Sm600 O628 2.386 . S
Sm600 O631 2.408 . S
Sm601 C611 2.846 . S
Sm601 O622 2.386 . S
Sm601 O625 2.408 . S
Sm601 O626 2.543 . S
Sm601 O627 2.450 . S
Sm601 O628 2.681 . S
Sm601 O629 2.464 . S
Sm601 O630 2.396 . S
C602 Sm600 2.846 . S
C602 C603 1.506 . S
C602 O620 1.261 . S
C602 O621 1.242 . S
C603 C602 1.506 . S
C603 C604 1.358 . S
C603 C608 1.382 . S
C604 C603 1.358 . S
C604 C605 1.385 . S
C604 H632 0.930 . S
C605 C604 1.385 . S
C605 C606 1.395 . S
C605 H633 0.929 . S
C606 C605 1.395 . S
C606 C607 1.335 . S
C607 C606 1.335 . S
C607 C608 1.398 . S
C607 H634 0.930 . S
C608 C603 1.382 . S
C608 C607 1.398 . S
C608 H635 0.929 . S
C609 O622 1.271 . S
C609 O623 1.251 . S
C610 O624 1.252 . S
C610 O625 1.272 . S
C611 Sm601 2.846 . S
C611 C612 1.506 . S
C611 O626 1.261 . S
C611 O627 1.242 . S
C612 C611 1.506 . S
C612 C613 1.358 . S
C612 C617 1.382 . S
C613 C612 1.358 . S
C613 C614 1.385 . S
C613 H636 0.930 . S
C614 C613 1.385 . S
C614 C615 1.395 . S
C614 H637 0.929 . S
C615 C614 1.395 . S
C615 C616 1.335 . S
C616 C615 1.335 . S
C616 C617 1.398 . S
C616 H638 0.930 . S
C617 C612 1.382 . S
C617 C616 1.398 . S
C617 H639 0.929 . S
C618 O628 1.271 . S
C618 O629 1.251 . S
C619 O630 1.252 . S
C619 O631 1.272 . S
O620 Sm600 2.543 . S
O620 C602 1.261 . S
O621 Sm600 2.450 . S
O621 C602 1.242 . S
O622 Sm600 2.681 . S
O622 Sm601 2.386 . S
O622 C609 1.271 . S
O623 Sm600 2.464 . S
O623 C609 1.251 . S
O624 Sm600 2.396 . S
O624 C610 1.252 . S
O625 Sm601 2.408 . S
O625 C610 1.272 . S
O626 Sm601 2.543 . S
O626 C611 1.261 . S
O627 Sm601 2.450 . S
O627 C611 1.242 . S
O628 Sm600 2.386 . S
O628 Sm601 2.681 . S
O628 C618 1.271 . S
O629 Sm601 2.464 . S
O629 C618 1.251 . S
O630 Sm601 2.396 . S
O630 C619 1.252 . S
O631 Sm600 2.408 . S
O631 C619 1.272 . S
H632 C604 0.930 . S
H633 C605 0.929 . S
H634 C607 0.930 . S
H635 C608 0.929 . S
H636 C613 0.930 . S
H637 C614 0.929 . S
H638 C616 0.930 . S
H639 C617 0.929 . S
H640 C646 0.930 . S
H641 C650 0.930 . S
H642 C655 0.929 . S
H643 C653 0.929 . S
H644 C648 0.929 . S
H645 C654 0.929 . S
C646 H640 0.930 . S
C646 C647 1.367 . S
C646 C654 1.378 . S
C647 C646 1.367 . S
C647 C655 1.433 . S
C648 H644 0.929 . S
C648 C650 1.378 . S
C648 C652 1.350 . S
C649 C652 1.463 . S
C649 C654 1.350 . S
C649 N657 1.427 . S
C650 H641 0.930 . S
C650 C648 1.378 . S
C650 C651 1.367 . S
C651 C650 1.367 . S
C651 C653 1.433 . S
C652 C648 1.350 . S
C652 C649 1.463 . S
C652 N656 1.427 . S
C653 H643 0.929 . S
C653 C651 1.433 . S
C653 N656 1.384 . S
C654 H645 0.929 . S
C654 C646 1.378 . S
C654 C649 1.350 . S
C655 H642 0.929 . S
C655 C647 1.433 . S
C655 N657 1.384 . S
N656 C652 1.427 . S
N656 C653 1.384 . S
N657 C649 1.427 . S
N657 C655 1.384 . S
H658 C664 0.930 1_554 S
H659 C668 0.930 . S
H660 C673 0.929 . S
H661 C671 0.929 . S
H662 C666 0.929 . S
H663 C672 0.929 . S
C664 H658 0.930 1_556 S
C664 C665 1.367 . S
C664 C672 1.378 . S
C665 C664 1.367 . S
C665 C673 1.433 . S
C666 H662 0.929 . S
C666 C668 1.378 . S
C666 C670 1.350 . S
C667 C670 1.463 . S
C667 C672 1.350 . S
C667 N675 1.427 . S
C668 H659 0.930 . S
C668 C666 1.378 . S
C668 C669 1.367 . S
C669 C668 1.367 . S
C669 C671 1.433 . S
C670 C666 1.350 . S
C670 C667 1.463 . S
C670 N674 1.427 . S
C671 H661 0.929 . S
C671 C669 1.433 . S
C671 N674 1.384 . S
C672 H663 0.929 . S
C672 C664 1.378 . S
C672 C667 1.350 . S
C673 H660 0.929 . S
C673 C665 1.433 . S
C673 N675 1.384 . S
N674 C670 1.427 . S
N674 C671 1.384 . S
N675 C667 1.427 . S
N675 C673 1.384 . S
H676 C682 0.930 . S
H677 C686 0.930 1_556 S
H678 C691 0.929 . S
H679 C689 0.929 . S
H680 C684 0.929 . S
H681 C690 0.929 . S
C682 H676 0.930 . S
C682 C683 1.367 . S
C682 C690 1.378 . S
C683 C682 1.367 . S
C683 C691 1.433 . S
C684 H680 0.929 . S
C684 C686 1.378 . S
C684 C688 1.350 . S
C685 C688 1.463 . S
C685 C690 1.350 . S
C685 N693 1.427 . S
C686 H677 0.930 1_554 S
C686 C684 1.378 . S
C686 C687 1.367 1_554 S
C687 C686 1.367 1_556 S
C687 C689 1.434 1_556 S
C688 C684 1.350 . S
C688 C685 1.463 . S
C688 N692 1.427 . S
C689 H679 0.929 . S
C689 C687 1.434 1_554 S
C689 N692 1.384 . S
C690 H681 0.929 . S
C690 C682 1.378 . S
C690 C685 1.350 . S
C691 H678 0.929 . S
C691 C683 1.433 . S
C691 N693 1.384 . S
N692 C688 1.427 . S
N692 C689 1.384 . S
N693 C685 1.427 . S
N693 C691 1.384 . S
H694 C700 0.930 . S
H695 C704 0.930 . S
H696 C709 0.929 . S
H697 C707 0.929 . S
H698 C702 0.929 . S
H699 C708 0.929 . S
C700 H694 0.930 . S
C700 C701 1.367 . S
C700 C708 1.378 . S
C701 C700 1.367 . S
C701 C709 1.433 . S
C702 H698 0.929 . S
C702 C704 1.378 . S
C702 C706 1.350 . S
C703 C706 1.463 . S
C703 C708 1.350 . S
C703 N711 1.427 . S
C704 H695 0.930 . S
C704 C702 1.378 . S
C704 C705 1.367 . S
C705 C704 1.367 . S
C705 C707 1.433 . S
C706 C702 1.350 . S
C706 C703 1.463 . S
C706 N710 1.427 . S
C707 H697 0.929 . S
C707 C705 1.433 . S
C707 N710 1.384 . S
C708 H699 0.929 . S
C708 C700 1.378 . S
C708 C703 1.350 . S
C709 H696 0.929 . S
C709 C701 1.433 . S
C709 N711 1.384 . S
N710 C706 1.427 . S
N710 C707 1.384 . S
N711 C703 1.427 . S
N711 C709 1.384 . S
H712 C718 0.930 . S
H713 C722 0.930 . S
H714 C727 0.929 . S
H715 C725 0.929 . S
H716 C720 0.929 . S
H717 C726 0.929 . S
C718 H712 0.930 . S
C718 C719 1.367 . S
C718 C726 1.378 . S
C719 C718 1.367 . S
C719 C727 1.433 . S
C720 H716 0.929 . S
C720 C722 1.378 . S
C720 C724 1.350 . S
C721 C724 1.463 . S
C721 C726 1.350 . S
C721 N729 1.427 . S
C722 H713 0.930 . S
C722 C720 1.378 . S
C722 C723 1.367 . S
C723 C722 1.367 . S
C723 C725 1.433 . S
C724 C720 1.350 . S
C724 C721 1.463 . S
C724 N728 1.427 . S
C725 H715 0.929 . S
C725 C723 1.433 . S
C725 N728 1.384 . S
C726 H717 0.929 . S
C726 C718 1.378 . S
C726 C721 1.350 . S
C727 H714 0.929 . S
C727 C719 1.433 . S
C727 N729 1.384 . S
N728 C724 1.427 . S
N728 C725 1.384 . S
N729 C721 1.427 . S
N729 C727 1.384 . S
H730 C736 0.930 . S
H731 C740 0.930 . S
H732 C745 0.929 . S
H733 C743 0.929 . S
H734 C738 0.929 . S
H735 C744 0.929 . S
C736 H730 0.930 . S
C736 C737 1.367 . S
C736 C744 1.378 . S
C737 C736 1.367 . S
C737 C745 1.433 . S
C738 H734 0.929 . S
C738 C740 1.378 . S
C738 C742 1.350 . S
C739 C742 1.463 . S
C739 C744 1.350 . S
C739 N747 1.427 . S
C740 H731 0.930 . S
C740 C738 1.378 . S
C740 C741 1.367 . S
C741 C740 1.367 . S
C741 C743 1.433 . S
C742 C738 1.350 . S
C742 C739 1.463 . S
C742 N746 1.427 . S
C743 H733 0.929 . S
C743 C741 1.433 . S
C743 N746 1.384 . S
C744 H735 0.929 . S
C744 C736 1.378 . S
C744 C739 1.350 . S
C745 H732 0.929 . S
C745 C737 1.433 . S
C745 N747 1.384 . S
N746 C742 1.427 . S
N746 C743 1.384 . S
N747 C739 1.427 . S
N747 C745 1.384 . S
H748 C754 0.930 . S
H749 C758 0.930 1_554 S
H750 C763 0.929 . S
H751 C761 0.929 . S
H752 C756 0.929 . S
H753 C762 0.929 . S
C754 H748 0.930 . S
C754 C755 1.367 . S
C754 C762 1.378 . S
C755 C754 1.367 . S
C755 C763 1.433 . S
C756 H752 0.929 . S
C756 C758 1.378 . S
C756 C760 1.350 . S
C757 C760 1.463 . S
C757 C762 1.350 . S
C757 N765 1.427 . S
C758 H749 0.930 1_556 S
C758 C756 1.378 . S
C758 C759 1.367 1_556 S
C759 C758 1.367 1_554 S
C759 C761 1.434 1_554 S
C760 C756 1.350 . S
C760 C757 1.463 . S
C760 N764 1.427 . S
C761 H751 0.929 . S
C761 C759 1.434 1_556 S
C761 N764 1.384 . S
C762 H753 0.929 . S
C762 C754 1.378 . S
C762 C757 1.350 . S
C763 H750 0.929 . S
C763 C755 1.433 . S
C763 N765 1.384 . S
N764 C760 1.427 . S
N764 C761 1.384 . S
N765 C757 1.427 . S
N765 C763 1.384 . S
H766 C772 0.930 . S
H767 C776 0.930 . S
H768 C781 0.929 1_556 S
H769 C779 0.929 . S
H770 C774 0.929 . S
H771 C780 0.929 . S
C772 H766 0.930 . S
C772 C773 1.367 . S
C772 C780 1.378 . S
C773 C772 1.367 . S
C773 C781 1.433 . S
C774 H770 0.929 . S
C774 C776 1.378 . S
C774 C778 1.350 . S
C775 C778 1.463 . S
C775 C780 1.350 . S
C775 N783 1.427 . S
C776 H767 0.930 . S
C776 C774 1.378 . S
C776 C777 1.367 . S
C777 C776 1.367 . S
C777 C779 1.433 . S
C778 C774 1.350 . S
C778 C775 1.463 . S
C778 N782 1.427 . S
C779 H769 0.929 . S
C779 C777 1.433 . S
C779 N782 1.384 . S
C780 H771 0.929 . S
C780 C772 1.378 . S
C780 C775 1.350 . S
C781 H768 0.929 1_554 S
C781 C773 1.433 . S
C781 N783 1.384 . S
N782 C778 1.427 . S
N782 C779 1.384 . S
N783 C775 1.427 . S
N783 C781 1.384 . S
H784 C790 0.930 . S
H785 C794 0.930 . S
H786 C799 0.929 . S
H787 C797 0.929 . S
H788 C792 0.929 . S
H789 C798 0.929 . S
C790 H784 0.930 . S
C790 C791 1.367 . S
C790 C798 1.378 . S
C791 C790 1.367 . S
C791 C799 1.433 . S
C792 H788 0.929 . S
C792 C794 1.378 . S
C792 C796 1.350 . S
C793 C796 1.463 . S
C793 C798 1.350 . S
C793 N801 1.427 . S
C794 H785 0.930 . S
C794 C792 1.378 . S
C794 C795 1.367 . S
C795 C794 1.367 . S
C795 C797 1.433 . S
C796 C792 1.350 . S
C796 C793 1.463 . S
C796 N800 1.427 . S
C797 H787 0.929 . S
C797 C795 1.433 . S
C797 N800 1.384 . S
C798 H789 0.929 . S
C798 C790 1.378 . S
C798 C793 1.350 . S
C799 H786 0.929 . S
C799 C791 1.433 . S
C799 N801 1.384 . S
N800 C796 1.427 . S
N800 C797 1.384 . S
N801 C793 1.427 . S
N801 C799 1.384 . S
H802 C808 0.930 . S
H803 C812 0.930 . S
H804 C817 0.929 . S
H805 C815 0.929 . S
H806 C810 0.929 . S
H807 C816 0.929 . S
C808 H802 0.930 . S
C808 C809 1.367 . S
C808 C816 1.378 . S
C809 C808 1.367 . S
C809 C817 1.433 . S
C810 H806 0.929 . S
C810 C812 1.378 . S
C810 C814 1.350 . S
C811 C814 1.463 . S
C811 C816 1.350 . S
C811 N819 1.427 . S
C812 H803 0.930 . S
C812 C810 1.378 . S
C812 C813 1.367 . S
C813 C812 1.367 . S
C813 C815 1.433 . S
C814 C810 1.350 . S
C814 C811 1.463 . S
C814 N818 1.427 . S
C815 H805 0.929 . S
C815 C813 1.433 . S
C815 N818 1.384 . S
C816 H807 0.929 . S
C816 C808 1.378 . S
C816 C811 1.350 . S
C817 H804 0.929 . S
C817 C809 1.433 . S
C817 N819 1.384 . S
N818 C814 1.427 . S
N818 C815 1.384 . S
N819 C811 1.427 . S
N819 C817 1.384 . S
H820 C826 0.930 . S
H821 C830 0.930 . S
H822 C835 0.929 1_554 S
H823 C833 0.929 . S
H824 C828 0.929 . S
H825 C834 0.929 . S
C826 H820 0.930 . S
C826 C827 1.368 . S
C826 C834 1.378 . S
C827 C826 1.368 . S
C827 C835 1.435 . S
C828 H824 0.929 . S
C828 C830 1.378 . S
C828 C832 1.350 . S
C829 C832 1.463 . S
C829 C834 1.350 . S
C829 N837 1.427 . S
C830 H821 0.930 . S
C830 C828 1.378 . S
C830 C831 1.367 . S
C831 C830 1.367 . S
C831 C833 1.433 . S
C832 C828 1.350 . S
C832 C829 1.463 . S
C832 N836 1.427 . S
C833 H823 0.929 . S
C833 C831 1.433 . S
C833 N836 1.384 . S
C834 H825 0.929 . S
C834 C826 1.378 . S
C834 C829 1.350 . S
C835 H822 0.929 1_556 S
C835 C827 1.435 . S
C835 N837 1.384 . S
N836 C832 1.427 . S
N836 C833 1.384 . S
N837 C829 1.427 . S
N837 C835 1.384 . S
H838 C844 0.930 . S
H839 C848 0.930 . S
H840 C853 0.929 . S
H841 C851 0.929 . S
H842 C846 0.929 . S
H843 C852 0.929 . S
C844 H838 0.930 . S
C844 C845 1.367 . S
C844 C852 1.378 . S
C845 C844 1.367 . S
C845 C853 1.433 . S
C846 H842 0.929 . S
C846 C848 1.378 . S
C846 C850 1.350 . S
C847 C850 1.463 . S
C847 C852 1.350 . S
C847 N855 1.427 . S
C848 H839 0.930 . S
C848 C846 1.378 . S
C848 C849 1.367 . S
C849 C848 1.367 . S
C849 C851 1.433 . S
C850 C846 1.350 . S
C850 C847 1.463 . S
C850 N854 1.427 . S
C851 H841 0.929 . S
C851 C849 1.433 . S
C851 N854 1.384 . S
C852 H843 0.929 . S
C852 C844 1.378 . S
C852 C847 1.350 . S
C853 H840 0.929 . S
C853 C845 1.433 . S
C853 N855 1.384 . S
N854 C850 1.427 . S
N854 C851 1.384 . S
N855 C847 1.427 . S
N855 C853 1.384 . S
H856 C862 0.930 . S
H857 C866 0.930 . S
H858 C871 0.929 . S
H859 C869 0.929 . S
H860 C864 0.929 . S
H861 C870 0.929 . S
C862 H856 0.930 . S
C862 C863 1.367 . S
C862 C870 1.378 . S
C863 C862 1.367 . S
C863 C871 1.433 . S
C864 H860 0.929 . S
C864 C866 1.378 . S
C864 C868 1.350 . S
C865 C868 1.463 . S
C865 C870 1.350 . S
C865 N873 1.427 . S
C866 H857 0.930 . S
C866 C864 1.378 . S
C866 C867 1.367 . S
C867 C866 1.367 . S
C867 C869 1.433 . S
C868 C864 1.350 . S
C868 C865 1.463 . S
C868 N872 1.427 . S
C869 H859 0.929 . S
C869 C867 1.433 . S
C869 N872 1.384 . S
C870 H861 0.929 . S
C870 C862 1.378 . S
C870 C865 1.350 . S
C871 H858 0.929 . S
C871 C863 1.433 . S
C871 N873 1.384 . S
N872 C868 1.427 . S
N872 C869 1.384 . S
N873 C865 1.427 . S
N873 C871 1.384 . S
H874 C880 0.930 . S
H875 C884 0.930 . S
H876 C889 0.929 . S
H877 C887 0.929 . S
H878 C882 0.929 . S
H879 C888 0.929 . S
C880 H874 0.930 . S
C880 C881 1.367 . S
C880 C888 1.378 . S
C881 C880 1.367 . S
C881 C889 1.433 . S
C882 H878 0.929 . S
C882 C884 1.378 . S
C882 C886 1.350 . S
C883 C886 1.463 . S
C883 C888 1.350 . S
C883 N891 1.427 . S
C884 H875 0.930 . S
C884 C882 1.378 . S
C884 C885 1.367 . S
C885 C884 1.367 . S
C885 C887 1.433 . S
C886 C882 1.350 . S
C886 C883 1.463 . S
C886 N890 1.427 . S
C887 H877 0.929 . S
C887 C885 1.433 . S
C887 N890 1.384 . S
C888 H879 0.929 . S
C888 C880 1.378 . S
C888 C883 1.350 . S
C889 H876 0.929 . S
C889 C881 1.433 . S
C889 N891 1.384 . S
N890 C886 1.427 . S
N890 C887 1.384 . S
N891 C883 1.427 . S
N891 C889 1.384 . S
H892 C898 0.930 . S
H893 C902 0.930 . S
H894 C907 0.929 . S
H895 C905 0.929 1_556 S
H896 C900 0.929 . S
H897 C906 0.929 . S
C898 H892 0.930 . S
C898 C899 1.367 . S
C898 C906 1.378 . S
C899 C898 1.367 . S
C899 C907 1.433 . S
C900 H896 0.929 . S
C900 C902 1.378 . S
C900 C904 1.350 . S
C901 C904 1.463 . S
C901 C906 1.350 . S
C901 N909 1.427 . S
C902 H893 0.930 . S
C902 C900 1.378 . S
C902 C903 1.369 . S
C903 C902 1.369 . S
C903 C905 1.435 . S
C904 C900 1.350 . S
C904 C901 1.463 . S
C904 N908 1.427 . S
C905 H895 0.929 1_554 S
C905 C903 1.435 . S
C905 N908 1.384 . S
C906 H897 0.929 . S
C906 C898 1.378 . S
C906 C901 1.350 . S
C907 H894 0.929 . S
C907 C899 1.433 . S
C907 N909 1.384 . S
N908 C904 1.427 . S
N908 C905 1.384 . S
N909 C901 1.427 . S
N909 C907 1.384 . S
H910 C916 0.930 1_554 S
H911 C920 0.930 . S
H912 C925 0.929 . S
H913 C923 0.929 . S
H914 C918 0.929 . S
H915 C924 0.929 . S
C916 H910 0.930 1_556 S
C916 C917 1.367 . S
C916 C924 1.378 . S
C917 C916 1.367 . S
C917 C925 1.433 . S
C918 H914 0.929 . S
C918 C920 1.378 . S
C918 C922 1.350 . S
C919 C922 1.463 . S
C919 C924 1.350 . S
C919 N927 1.427 . S
C920 H911 0.930 . S
C920 C918 1.378 . S
C920 C921 1.367 . S
C921 C920 1.367 . S
C921 C923 1.433 . S
C922 C918 1.350 . S
C922 C919 1.463 . S
C922 N926 1.427 . S
C923 H913 0.929 . S
C923 C921 1.433 . S
C923 N926 1.384 . S
C924 H915 0.929 . S
C924 C916 1.378 . S
C924 C919 1.350 . S
C925 H912 0.929 . S
C925 C917 1.433 . S
C925 N927 1.384 . S
N926 C922 1.427 . S
N926 C923 1.384 . S
N927 C919 1.427 . S
N927 C925 1.384 . S
H928 C934 0.930 . S
H929 C938 0.930 . S
H930 C943 0.929 . S
H931 C941 0.929 . S
H932 C936 0.929 . S
H933 C942 0.929 . S
C934 H928 0.930 . S
C934 C935 1.367 . S
C934 C942 1.378 . S
C935 C934 1.367 . S
C935 C943 1.433 . S
C936 H932 0.929 . S
C936 C938 1.378 . S
C936 C940 1.350 . S
C937 C940 1.463 . S
C937 C942 1.350 . S
C937 N945 1.427 . S
C938 H929 0.930 . S
C938 C936 1.378 . S
C938 C939 1.367 . S
C939 C938 1.367 . S
C939 C941 1.433 . S
C940 C936 1.350 . S
C940 C937 1.463 . S
C940 N944 1.427 . S
C941 H931 0.929 . S
C941 C939 1.433 . S
C941 N944 1.384 . S
C942 H933 0.929 . S
C942 C934 1.378 . S
C942 C937 1.350 . S
C943 H930 0.929 . S
C943 C935 1.433 . S
C943 N945 1.384 . S
N944 C940 1.427 . S
N944 C941 1.384 . S
N945 C937 1.427 . S
N945 C943 1.384 . S
H946 C952 0.930 . S
H947 C956 0.930 . S
H948 C961 0.929 . S
H949 C959 0.929 . S
H950 C954 0.929 . S
H951 C960 0.929 . S
C952 H946 0.930 . S
C952 C953 1.367 . S
C952 C960 1.378 . S
C953 C952 1.367 . S
C953 C961 1.433 . S
C954 H950 0.929 . S
C954 C956 1.378 . S
C954 C958 1.350 . S
C955 C958 1.463 . S
C955 C960 1.350 . S
C955 N963 1.427 . S
C956 H947 0.930 . S
C956 C954 1.378 . S
C956 C957 1.367 . S
C957 C956 1.367 . S
C957 C959 1.433 . S
C958 C954 1.350 . S
C958 C955 1.463 . S
C958 N962 1.427 . S
C959 H949 0.929 . S
C959 C957 1.433 . S
C959 N962 1.384 . S
C960 H951 0.929 . S
C960 C952 1.378 . S
C960 C955 1.350 . S
C961 H948 0.929 . S
C961 C953 1.433 . S
C961 N963 1.384 . S
N962 C958 1.427 . S
N962 C959 1.384 . S
N963 C955 1.427 . S
N963 C961 1.384 . S
H964 C970 0.930 . S
H965 C974 0.930 . S
H966 C979 0.929 . S
H967 C977 0.929 . S
H968 C972 0.929 . S
H969 C978 0.929 . S
C970 H964 0.930 . S
C970 C971 1.367 . S
C970 C978 1.378 . S
C971 C970 1.367 . S
C971 C979 1.433 . S
C972 H968 0.929 . S
C972 C974 1.378 . S
C972 C976 1.350 . S
C973 C976 1.463 . S
C973 C978 1.350 . S
C973 N981 1.427 . S
C974 H965 0.930 . S
C974 C972 1.378 . S
C974 C975 1.367 . S
C975 C974 1.367 . S
C975 C977 1.433 . S
C976 C972 1.350 . S
C976 C973 1.463 . S
C976 N980 1.427 . S
C977 H967 0.929 . S
C977 C975 1.433 . S
C977 N980 1.384 . S
C978 H969 0.929 . S
C978 C970 1.378 . S
C978 C973 1.350 . S
C979 H966 0.929 . S
C979 C971 1.433 . S
C979 N981 1.384 . S
N980 C976 1.427 . S
N980 C977 1.384 . S
N981 C973 1.427 . S
N981 C979 1.384 . S
H982 C988 0.930 . S
H983 C992 0.930 . S
H984 C997 0.929 . S
H985 C995 0.929 . S
H986 C990 0.929 . S
H987 C996 0.929 . S
C988 H982 0.930 . S
C988 C989 1.367 . S
C988 C996 1.378 . S
C989 C988 1.367 . S
C989 C997 1.433 . S
C990 H986 0.929 . S
C990 C992 1.378 . S
C990 C994 1.350 . S
C991 C994 1.463 1_655 S
C991 C996 1.350 . S
C991 N999 1.427 . S
C992 H983 0.930 . S
C992 C990 1.378 . S
C992 C993 1.367 . S
C993 C992 1.367 . S
C993 C995 1.433 . S
C994 C990 1.350 . S
C994 C991 1.463 1_455 S
C994 N998 1.427 . S
C995 H985 0.929 . S
C995 C993 1.433 . S
C995 N998 1.384 . S
C996 H987 0.929 . S
C996 C988 1.378 . S
C996 C991 1.350 . S
C997 H984 0.929 . S
C997 C989 1.433 . S
C997 N999 1.384 . S
N998 C994 1.427 . S
N998 C995 1.384 . S
N999 C991 1.427 . S
N999 C997 1.384 . S
H1000 C1006 0.930 . S
H1001 C1010 0.930 . S
H1002 C1015 0.929 . S
H1003 C1013 0.929 . S
H1004 C1008 0.929 . S
H1005 C1014 0.929 . S
C1006 H1000 0.930 . S
C1006 C1007 1.367 . S
C1006 C1014 1.378 . S
C1007 C1006 1.367 . S
C1007 C1015 1.433 . S
C1008 H1004 0.929 . S
C1008 C1010 1.378 . S
C1008 C1012 1.350 . S
C1009 C1012 1.463 . S
C1009 C1014 1.350 . S
C1009 N1017 1.427 . S
C1010 H1001 0.930 . S
C1010 C1008 1.378 . S
C1010 C1011 1.367 . S
C1011 C1010 1.367 . S
C1011 C1013 1.433 . S
C1012 C1008 1.350 . S
C1012 C1009 1.463 . S
C1012 N1016 1.427 . S
C1013 H1003 0.929 . S
C1013 C1011 1.433 . S
C1013 N1016 1.384 . S
C1014 H1005 0.929 . S
C1014 C1006 1.378 . S
C1014 C1009 1.350 . S
C1015 H1002 0.929 . S
C1015 C1007 1.433 . S
C1015 N1017 1.384 . S
N1016 C1012 1.427 . S
N1016 C1013 1.384 . S
N1017 C1009 1.427 . S
N1017 C1015 1.384 . S
H1018 C1024 0.930 . S
H1019 C1028 0.930 . S
H1020 C1033 0.929 . S
H1021 C1031 0.929 . S
H1022 C1026 0.929 . S
H1023 C1032 0.929 . S
C1024 H1018 0.930 . S
C1024 C1025 1.367 . S
C1024 C1032 1.378 . S
C1025 C1024 1.367 . S
C1025 C1033 1.433 . S
C1026 H1022 0.929 . S
C1026 C1028 1.378 . S
C1026 C1030 1.350 . S
C1027 C1030 1.463 1_455 S
C1027 C1032 1.350 . S
C1027 N1035 1.427 . S
C1028 H1019 0.930 . S
C1028 C1026 1.378 . S
C1028 C1029 1.367 . S
C1029 C1028 1.367 . S
C1029 C1031 1.433 . S
C1030 C1026 1.350 . S
C1030 C1027 1.463 1_655 S
C1030 N1034 1.427 . S
C1031 H1021 0.929 . S
C1031 C1029 1.433 . S
C1031 N1034 1.384 . S
C1032 H1023 0.929 . S
C1032 C1024 1.378 . S
C1032 C1027 1.350 . S
C1033 H1020 0.929 . S
C1033 C1025 1.433 . S
C1033 N1035 1.384 . S
N1034 C1030 1.427 . S
N1034 C1031 1.384 . S
N1035 C1027 1.427 . S
N1035 C1033 1.384 . S
H1036 C1042 0.930 . S
H1037 C1046 0.930 . S
H1038 C1051 0.929 . S
H1039 C1049 0.929 . S
H1040 C1044 0.929 . S
H1041 C1050 0.929 . S
C1042 H1036 0.930 . S
C1042 C1043 1.367 . S
C1042 C1050 1.378 . S
C1043 C1042 1.367 . S
C1043 C1051 1.433 . S
C1044 H1040 0.929 . S
C1044 C1046 1.378 . S
C1044 C1048 1.350 . S
C1045 C1048 1.463 . S
C1045 C1050 1.350 . S
C1045 N1053 1.427 . S
C1046 H1037 0.930 . S
C1046 C1044 1.378 . S
C1046 C1047 1.367 . S
C1047 C1046 1.367 . S
C1047 C1049 1.433 . S
C1048 C1044 1.350 . S
C1048 C1045 1.463 . S
C1048 N1052 1.427 . S
C1049 H1039 0.929 . S
C1049 C1047 1.433 . S
C1049 N1052 1.384 . S
C1050 H1041 0.929 . S
C1050 C1042 1.378 . S
C1050 C1045 1.350 . S
C1051 H1038 0.929 . S
C1051 C1043 1.433 . S
C1051 N1053 1.384 . S
N1052 C1048 1.427 . S
N1052 C1049 1.384 . S
N1053 C1045 1.427 . S
N1053 C1051 1.384 . S
H1054 C1060 0.930 . S
H1055 C1064 0.930 . S
H1056 C1069 0.929 . S
H1057 C1067 0.929 . S
H1058 C1062 0.929 . S
H1059 C1068 0.929 . S
C1060 H1054 0.930 . S
C1060 C1061 1.367 . S
C1060 C1068 1.378 . S
C1061 C1060 1.367 . S
C1061 C1069 1.433 . S
C1062 H1058 0.929 . S
C1062 C1064 1.378 . S
C1062 C1066 1.350 . S
C1063 C1066 1.463 . S
C1063 C1068 1.350 . S
C1063 N1071 1.427 . S
C1064 H1055 0.930 . S
C1064 C1062 1.378 . S
C1064 C1065 1.367 . S
C1065 C1064 1.367 . S
C1065 C1067 1.433 . S
C1066 C1062 1.350 . S
C1066 C1063 1.463 . S
C1066 N1070 1.427 . S
C1067 H1057 0.929 . S
C1067 C1065 1.433 . S
C1067 N1070 1.384 . S
C1068 H1059 0.929 . S
C1068 C1060 1.378 . S
C1068 C1063 1.350 . S
C1069 H1056 0.929 . S
C1069 C1061 1.433 . S
C1069 N1071 1.384 . S
N1070 C1066 1.427 . S
N1070 C1067 1.384 . S
N1071 C1063 1.427 . S
N1071 C1069 1.384 . S
H1072 C1078 0.930 . S
H1073 C1082 0.930 . S
H1074 C1087 0.929 . S
H1075 C1085 0.929 . S
H1076 C1080 0.929 . S
H1077 C1086 0.929 . S
C1078 H1072 0.930 . S
C1078 C1079 1.367 . S
C1078 C1086 1.378 . S
C1079 C1078 1.367 . S
C1079 C1087 1.433 . S
C1080 H1076 0.929 . S
C1080 C1082 1.378 . S
C1080 C1084 1.350 . S
C1081 C1084 1.463 . S
C1081 C1086 1.350 . S
C1081 N1089 1.427 . S
C1082 H1073 0.930 . S
C1082 C1080 1.378 . S
C1082 C1083 1.367 . S
C1083 C1082 1.367 . S
C1083 C1085 1.433 . S
C1084 C1080 1.350 . S
C1084 C1081 1.463 . S
C1084 N1088 1.427 . S
C1085 H1075 0.929 . S
C1085 C1083 1.433 . S
C1085 N1088 1.384 . S
C1086 H1077 0.929 . S
C1086 C1078 1.378 . S
C1086 C1081 1.350 . S
C1087 H1074 0.929 . S
C1087 C1079 1.433 . S
C1087 N1089 1.384 . S
N1088 C1084 1.427 . S
N1088 C1085 1.384 . S
N1089 C1081 1.427 . S
N1089 C1087 1.384 . S
H1090 C1096 0.930 . S
H1091 C1100 0.930 . S
H1092 C1105 0.929 . S
H1093 C1103 0.929 . S
H1094 C1098 0.929 . S
H1095 C1104 0.929 . S
C1096 H1090 0.930 . S
C1096 C1097 1.367 . S
C1096 C1104 1.378 . S
C1097 C1096 1.367 . S
C1097 C1105 1.433 . S
C1098 H1094 0.929 . S
C1098 C1100 1.378 . S
C1098 C1102 1.350 . S
C1099 C1102 1.463 . S
C1099 C1104 1.350 . S
C1099 N1107 1.427 . S
C1100 H1091 0.930 . S
C1100 C1098 1.378 . S
C1100 C1101 1.367 . S
C1101 C1100 1.367 . S
C1101 C1103 1.433 . S
C1102 C1098 1.350 . S
C1102 C1099 1.463 . S
C1102 N1106 1.427 . S
C1103 H1093 0.929 . S
C1103 C1101 1.433 . S
C1103 N1106 1.384 . S
C1104 H1095 0.929 . S
C1104 C1096 1.378 . S
C1104 C1099 1.350 . S
C1105 H1092 0.929 . S
C1105 C1097 1.433 . S
C1105 N1107 1.384 . S
N1106 C1102 1.427 . S
N1106 C1103 1.384 . S
N1107 C1099 1.427 . S
N1107 C1105 1.384 . S
H1108 C1114 0.930 . S
H1109 C1118 0.930 . S
H1110 C1123 0.929 . S
H1111 C1121 0.929 . S
H1112 C1116 0.929 . S
H1113 C1122 0.929 . S
C1114 H1108 0.930 . S
C1114 C1115 1.367 . S
C1114 C1122 1.378 . S
C1115 C1114 1.367 . S
C1115 C1123 1.433 . S
C1116 H1112 0.929 . S
C1116 C1118 1.378 . S
C1116 C1120 1.350 . S
C1117 C1120 1.463 . S
C1117 C1122 1.350 . S
C1117 N1125 1.427 . S
C1118 H1109 0.930 . S
C1118 C1116 1.378 . S
C1118 C1119 1.367 . S
C1119 C1118 1.367 . S
C1119 C1121 1.433 . S
C1120 C1116 1.350 . S
C1120 C1117 1.463 . S
C1120 N1124 1.427 . S
C1121 H1111 0.929 . S
C1121 C1119 1.433 . S
C1121 N1124 1.384 . S
C1122 H1113 0.929 . S
C1122 C1114 1.378 . S
C1122 C1117 1.350 . S
C1123 H1110 0.929 . S
C1123 C1115 1.433 . S
C1123 N1125 1.384 . S
N1124 C1120 1.427 . S
N1124 C1121 1.384 . S
N1125 C1117 1.427 . S
N1125 C1123 1.384 . S
H1126 C1132 0.930 . S
H1127 C1136 0.930 . S
H1128 C1141 0.929 . S
H1129 C1139 0.929 . S
H1130 C1134 0.929 . S
H1131 C1140 0.929 . S
C1132 H1126 0.930 . S
C1132 C1133 1.367 . S
C1132 C1140 1.378 . S
C1133 C1132 1.367 . S
C1133 C1141 1.433 . S
C1134 H1130 0.929 . S
C1134 C1136 1.378 . S
C1134 C1138 1.350 . S
C1135 C1138 1.463 . S
C1135 C1140 1.350 . S
C1135 N1143 1.427 . S
C1136 H1127 0.930 . S
C1136 C1134 1.378 . S
C1136 C1137 1.367 . S
C1137 C1136 1.367 . S
C1137 C1139 1.433 . S
C1138 C1134 1.350 . S
C1138 C1135 1.463 . S
C1138 N1142 1.427 . S
C1139 H1129 0.929 . S
C1139 C1137 1.433 . S
C1139 N1142 1.384 . S
C1140 H1131 0.929 . S
C1140 C1132 1.378 . S
C1140 C1135 1.350 . S
C1141 H1128 0.929 . S
C1141 C1133 1.433 . S
C1141 N1143 1.384 . S
N1142 C1138 1.427 . S
N1142 C1139 1.384 . S
N1143 C1135 1.427 . S
N1143 C1141 1.384 . S
H1144 C1150 0.930 1_554 S
H1145 C1154 0.930 . S
H1146 C1159 0.929 . S
H1147 C1157 0.929 1_554 S
H1148 C1152 0.929 . S
H1149 C1158 0.929 1_554 S
C1150 H1144 0.930 1_556 S
C1150 C1151 1.367 . S
C1150 C1158 1.378 . S
C1151 C1150 1.367 . S
C1151 C1159 1.433 . S
C1152 H1148 0.929 . S
C1152 C1154 1.378 . S
C1152 C1156 1.350 . S
C1153 C1156 1.463 1_655 S
C1153 C1158 1.350 . S
C1153 N1161 1.427 . S
C1154 H1145 0.930 . S
C1154 C1152 1.378 . S
C1154 C1155 1.367 . S
C1155 C1154 1.367 . S
C1155 C1157 1.433 . S
C1156 C1152 1.350 . S
C1156 C1153 1.463 1_455 S
C1156 N1160 1.427 . S
C1157 H1147 0.929 1_556 S
C1157 C1155 1.433 . S
C1157 N1160 1.384 . S
C1158 H1149 0.929 1_556 S
C1158 C1150 1.378 . S
C1158 C1153 1.350 . S
C1159 H1146 0.929 . S
C1159 C1151 1.433 . S
C1159 N1161 1.384 . S
N1160 C1156 1.427 . S
N1160 C1157 1.384 . S
N1161 C1153 1.427 . S
N1161 C1159 1.384 . S
H1162 C1168 0.930 . S
H1163 C1172 0.930 . S
H1164 C1177 0.929 . S
H1165 C1175 0.929 . S
H1166 C1170 0.929 . S
H1167 C1176 0.929 . S
C1168 H1162 0.930 . S
C1168 C1169 1.367 . S
C1168 C1176 1.378 . S
C1169 C1168 1.367 . S
C1169 C1177 1.433 . S
C1170 H1166 0.929 . S
C1170 C1172 1.378 . S
C1170 C1174 1.350 . S
C1171 C1174 1.463 . S
C1171 C1176 1.350 . S
C1171 N1179 1.427 . S
C1172 H1163 0.930 . S
C1172 C1170 1.378 . S
C1172 C1173 1.367 . S
C1173 C1172 1.367 . S
C1173 C1175 1.433 . S
C1174 C1170 1.350 . S
C1174 C1171 1.463 . S
C1174 N1178 1.427 . S
C1175 H1165 0.929 . S
C1175 C1173 1.433 . S
C1175 N1178 1.384 . S
C1176 H1167 0.929 . S
C1176 C1168 1.378 . S
C1176 C1171 1.350 . S
C1177 H1164 0.929 . S
C1177 C1169 1.433 . S
C1177 N1179 1.384 . S
N1178 C1174 1.427 . S
N1178 C1175 1.384 . S
N1179 C1171 1.427 . S
N1179 C1177 1.384 . S
H1180 C1186 0.930 . S
H1181 C1190 0.930 . S
H1182 C1195 0.929 . S
H1183 C1193 0.929 . S
H1184 C1188 0.929 . S
H1185 C1194 0.929 . S
C1186 H1180 0.930 . S
C1186 C1187 1.367 . S
C1186 C1194 1.378 . S
C1187 C1186 1.367 . S
C1187 C1195 1.433 . S
C1188 H1184 0.929 . S
C1188 C1190 1.378 . S
C1188 C1192 1.350 . S
C1189 C1192 1.463 . S
C1189 C1194 1.350 . S
C1189 N1197 1.427 . S
C1190 H1181 0.930 . S
C1190 C1188 1.378 . S
C1190 C1191 1.367 . S
C1191 C1190 1.367 . S
C1191 C1193 1.433 . S
C1192 C1188 1.350 . S
C1192 C1189 1.463 . S
C1192 N1196 1.427 . S
C1193 H1183 0.929 . S
C1193 C1191 1.433 . S
C1193 N1196 1.384 . S
C1194 H1185 0.929 . S
C1194 C1186 1.378 . S
C1194 C1189 1.350 . S
C1195 H1182 0.929 . S
C1195 C1187 1.433 . S
C1195 N1197 1.384 . S
N1196 C1192 1.427 . S
N1196 C1193 1.384 . S
N1197 C1189 1.427 . S
N1197 C1195 1.384 . S
H1198 C1204 0.930 . S
H1199 C1208 0.930 . S
H1200 C1213 0.929 . S
H1201 C1211 0.929 . S
H1202 C1206 0.929 . S
H1203 C1212 0.929 . S
C1204 H1198 0.930 . S
C1204 C1205 1.367 . S
C1204 C1212 1.378 . S
C1205 C1204 1.367 . S
C1205 C1213 1.433 . S
C1206 H1202 0.929 . S
C1206 C1208 1.378 . S
C1206 C1210 1.350 . S
C1207 C1210 1.463 1_455 S
C1207 C1212 1.350 . S
C1207 N1215 1.427 . S
C1208 H1199 0.930 . S
C1208 C1206 1.378 . S
C1208 C1209 1.367 . S
C1209 C1208 1.367 . S
C1209 C1211 1.433 . S
C1210 C1206 1.350 . S
C1210 C1207 1.463 1_655 S
C1210 N1214 1.427 . S
C1211 H1201 0.929 . S
C1211 C1209 1.433 . S
C1211 N1214 1.384 . S
C1212 H1203 0.929 . S
C1212 C1204 1.378 . S
C1212 C1207 1.350 . S
C1213 H1200 0.929 . S
C1213 C1205 1.433 . S
C1213 N1215 1.384 . S
N1214 C1210 1.427 . S
N1214 C1211 1.384 . S
N1215 C1207 1.427 . S
N1215 C1213 1.384 . S
H1216 C1222 0.930 . S
H1217 C1226 0.930 . S
H1218 C1231 0.929 . S
H1219 C1229 0.929 . S
H1220 C1224 0.929 . S
H1221 C1230 0.929 . S
C1222 H1216 0.930 . S
C1222 C1223 1.367 . S
C1222 C1230 1.378 . S
C1223 C1222 1.367 . S
C1223 C1231 1.433 . S
C1224 H1220 0.929 . S
C1224 C1226 1.378 . S
C1224 C1228 1.350 . S
C1225 C1228 1.463 1_554 S
C1225 C1230 1.350 . S
C1225 N1233 1.427 . S
C1226 H1217 0.930 . S
C1226 C1224 1.378 . S
C1226 C1227 1.367 . S
C1227 C1226 1.367 . S
C1227 C1229 1.433 . S
C1228 C1224 1.350 . S
C1228 C1225 1.463 1_556 S
C1228 N1232 1.427 . S
C1229 H1219 0.929 . S
C1229 C1227 1.433 . S
C1229 N1232 1.384 . S
C1230 H1221 0.929 . S
C1230 C1222 1.378 . S
C1230 C1225 1.350 . S
C1231 H1218 0.929 . S
C1231 C1223 1.433 . S
C1231 N1233 1.384 . S
N1232 C1228 1.427 . S
N1232 C1229 1.384 . S
N1233 C1225 1.427 . S
N1233 C1231 1.384 . S
H1234 C1240 0.930 . S
H1235 C1244 0.930 . S
H1236 C1249 0.929 . S
H1237 C1247 0.929 . S
H1238 C1242 0.929 . S
H1239 C1248 0.929 . S
C1240 H1234 0.930 . S
C1240 C1241 1.367 . S
C1240 C1248 1.378 . S
C1241 C1240 1.367 . S
C1241 C1249 1.433 . S
C1242 H1238 0.929 . S
C1242 C1244 1.378 . S
C1242 C1246 1.350 . S
C1243 C1246 1.463 . S
C1243 C1248 1.350 . S
C1243 N1251 1.427 . S
C1244 H1235 0.930 . S
C1244 C1242 1.378 . S
C1244 C1245 1.367 . S
C1245 C1244 1.367 . S
C1245 C1247 1.433 . S
C1246 C1242 1.350 . S
C1246 C1243 1.463 . S
C1246 N1250 1.427 . S
C1247 H1237 0.929 . S
C1247 C1245 1.433 . S
C1247 N1250 1.384 . S
C1248 H1239 0.929 . S
C1248 C1240 1.378 . S
C1248 C1243 1.350 . S
C1249 H1236 0.929 . S
C1249 C1241 1.433 . S
C1249 N1251 1.384 . S
N1250 C1246 1.427 . S
N1250 C1247 1.384 . S
N1251 C1243 1.427 . S
N1251 C1249 1.384 . S
H1252 C1258 0.930 . S
H1253 C1262 0.930 . S
H1254 C1267 0.929 . S
H1255 C1265 0.929 . S
H1256 C1260 0.929 . S
H1257 C1266 0.929 . S
C1258 H1252 0.930 . S
C1258 C1259 1.367 . S
C1258 C1266 1.378 . S
C1259 C1258 1.367 . S
C1259 C1267 1.433 . S
C1260 H1256 0.929 . S
C1260 C1262 1.378 . S
C1260 C1264 1.350 . S
C1261 C1264 1.463 . S
C1261 C1266 1.350 . S
C1261 N1269 1.427 . S
C1262 H1253 0.930 . S
C1262 C1260 1.378 . S
C1262 C1263 1.367 . S
C1263 C1262 1.367 . S
C1263 C1265 1.433 . S
C1264 C1260 1.350 . S
C1264 C1261 1.463 . S
C1264 N1268 1.427 . S
C1265 H1255 0.929 . S
C1265 C1263 1.433 . S
C1265 N1268 1.384 . S
C1266 H1257 0.929 . S
C1266 C1258 1.378 . S
C1266 C1261 1.350 . S
C1267 H1254 0.929 . S
C1267 C1259 1.433 . S
C1267 N1269 1.384 . S
N1268 C1264 1.427 . S
N1268 C1265 1.384 . S
N1269 C1261 1.427 . S
N1269 C1267 1.384 . S
H1270 C1276 0.930 . S
H1271 C1280 0.930 . S
H1272 C1285 0.929 . S
H1273 C1283 0.929 . S
H1274 C1278 0.929 . S
H1275 C1284 0.929 . S
C1276 H1270 0.930 . S
C1276 C1277 1.367 . S
C1276 C1284 1.378 . S
C1277 C1276 1.367 . S
C1277 C1285 1.433 . S
C1278 H1274 0.929 . S
C1278 C1280 1.378 . S
C1278 C1282 1.350 . S
C1279 C1282 1.463 . S
C1279 C1284 1.350 . S
C1279 N1287 1.427 . S
C1280 H1271 0.930 . S
C1280 C1278 1.378 . S
C1280 C1281 1.367 . S
C1281 C1280 1.367 . S
C1281 C1283 1.433 . S
C1282 C1278 1.350 . S
C1282 C1279 1.463 . S
C1282 N1286 1.427 . S
C1283 H1273 0.929 . S
C1283 C1281 1.433 . S
C1283 N1286 1.384 . S
C1284 H1275 0.929 . S
C1284 C1276 1.378 . S
C1284 C1279 1.350 . S
C1285 H1272 0.929 . S
C1285 C1277 1.433 . S
C1285 N1287 1.384 . S
N1286 C1282 1.427 . S
N1286 C1283 1.384 . S
N1287 C1279 1.427 . S
N1287 C1285 1.384 . S
H1288 C1294 0.930 . S
H1289 C1298 0.930 . S
H1290 C1303 0.929 . S
H1291 C1301 0.929 . S
H1292 C1296 0.929 . S
H1293 C1302 0.929 . S
C1294 H1288 0.930 . S
C1294 C1295 1.367 . S
C1294 C1302 1.378 . S
C1295 C1294 1.367 . S
C1295 C1303 1.433 . S
C1296 H1292 0.929 . S
C1296 C1298 1.378 . S
C1296 C1300 1.350 . S
C1297 C1300 1.463 1_554 S
C1297 C1302 1.350 . S
C1297 N1305 1.427 . S
C1298 H1289 0.930 . S
C1298 C1296 1.378 . S
C1298 C1299 1.367 . S
C1299 C1298 1.367 . S
C1299 C1301 1.433 . S
C1300 C1296 1.350 . S
C1300 C1297 1.463 1_556 S
C1300 N1304 1.427 . S
C1301 H1291 0.929 . S
C1301 C1299 1.433 . S
C1301 N1304 1.384 . S
C1302 H1293 0.929 . S
C1302 C1294 1.378 . S
C1302 C1297 1.350 . S
C1303 H1290 0.929 . S
C1303 C1295 1.433 . S
C1303 N1305 1.384 . S
N1304 C1300 1.427 . S
N1304 C1301 1.384 . S
N1305 C1297 1.427 . S
N1305 C1303 1.384 . S
H1306 C1312 0.930 . S
H1307 C1316 0.930 . S
H1308 C1321 0.929 . S
H1309 C1319 0.929 . S
H1310 C1314 0.929 . S
H1311 C1320 0.929 . S
C1312 H1306 0.930 . S
C1312 C1313 1.367 . S
C1312 C1320 1.378 . S
C1313 C1312 1.367 . S
C1313 C1321 1.433 . S
C1314 H1310 0.929 . S
C1314 C1316 1.378 . S
C1314 C1318 1.350 . S
C1315 C1318 1.463 . S
C1315 C1320 1.350 . S
C1315 N1323 1.427 . S
C1316 H1307 0.930 . S
C1316 C1314 1.378 . S
C1316 C1317 1.367 . S
C1317 C1316 1.367 . S
C1317 C1319 1.433 . S
C1318 C1314 1.350 . S
C1318 C1315 1.463 . S
C1318 N1322 1.427 . S
C1319 H1309 0.929 . S
C1319 C1317 1.433 . S
C1319 N1322 1.384 . S
C1320 H1311 0.929 . S
C1320 C1312 1.378 . S
C1320 C1315 1.350 . S
C1321 H1308 0.929 . S
C1321 C1313 1.433 . S
C1321 N1323 1.384 . S
N1322 C1318 1.427 . S
N1322 C1319 1.384 . S
N1323 C1315 1.427 . S
N1323 C1321 1.384 . S
H1324 C1330 0.930 . S
H1325 C1334 0.930 . S
H1326 C1339 0.929 . S
H1327 C1337 0.929 . S
H1328 C1332 0.929 . S
H1329 C1338 0.929 . S
C1330 H1324 0.930 . S
C1330 C1331 1.367 . S
C1330 C1338 1.378 . S
C1331 C1330 1.367 . S
C1331 C1339 1.433 . S
C1332 H1328 0.929 . S
C1332 C1334 1.378 . S
C1332 C1336 1.350 . S
C1333 C1336 1.463 . S
C1333 C1338 1.350 . S
C1333 N1341 1.427 . S
C1334 H1325 0.930 . S
C1334 C1332 1.378 . S
C1334 C1335 1.367 . S
C1335 C1334 1.367 . S
C1335 C1337 1.433 . S
C1336 C1332 1.350 . S
C1336 C1333 1.463 . S
C1336 N1340 1.427 . S
C1337 H1327 0.929 . S
C1337 C1335 1.433 . S
C1337 N1340 1.384 . S
C1338 H1329 0.929 . S
C1338 C1330 1.378 . S
C1338 C1333 1.350 . S
C1339 H1326 0.929 . S
C1339 C1331 1.433 . S
C1339 N1341 1.384 . S
N1340 C1336 1.427 . S
N1340 C1337 1.384 . S
N1341 C1333 1.427 . S
N1341 C1339 1.384 . S
H1342 C1348 0.930 . S
H1343 C1352 0.930 . S
H1344 C1357 0.929 . S
H1345 C1355 0.929 . S
H1346 C1350 0.929 . S
H1347 C1356 0.929 . S
C1348 H1342 0.930 . S
C1348 C1349 1.367 . S
C1348 C1356 1.378 . S
C1349 C1348 1.367 . S
C1349 C1357 1.433 . S
C1350 H1346 0.929 . S
C1350 C1352 1.378 . S
C1350 C1354 1.350 . S
C1351 C1354 1.463 . S
C1351 C1356 1.350 . S
C1351 N1359 1.427 . S
C1352 H1343 0.930 . S
C1352 C1350 1.378 . S
C1352 C1353 1.367 . S
C1353 C1352 1.367 . S
C1353 C1355 1.433 . S
C1354 C1350 1.350 . S
C1354 C1351 1.463 . S
C1354 N1358 1.427 . S
C1355 H1345 0.929 . S
C1355 C1353 1.433 . S
C1355 N1358 1.384 . S
C1356 H1347 0.929 . S
C1356 C1348 1.378 . S
C1356 C1351 1.350 . S
C1357 H1344 0.929 . S
C1357 C1349 1.433 . S
C1357 N1359 1.384 . S
N1358 C1354 1.427 . S
N1358 C1355 1.384 . S
N1359 C1351 1.427 . S
N1359 C1357 1.384 . S
H1360 C1366 0.930 . S
H1361 C1370 0.930 . S
H1362 C1375 0.929 . S
H1363 C1373 0.929 . S
H1364 C1368 0.929 . S
H1365 C1374 0.929 . S
C1366 H1360 0.930 . S
C1366 C1367 1.367 . S
C1366 C1374 1.378 . S
C1367 C1366 1.367 . S
C1367 C1375 1.433 . S
C1368 H1364 0.929 . S
C1368 C1370 1.378 . S
C1368 C1372 1.350 . S
C1369 C1372 1.463 1_565 S
C1369 C1374 1.350 . S
C1369 N1377 1.427 . S
C1370 H1361 0.930 . S
C1370 C1368 1.378 . S
C1370 C1371 1.367 . S
C1371 C1370 1.367 . S
C1371 C1373 1.433 . S
C1372 C1368 1.350 . S
C1372 C1369 1.463 1_545 S
C1372 N1376 1.427 . S
C1373 H1363 0.929 . S
C1373 C1371 1.433 . S
C1373 N1376 1.384 . S
C1374 H1365 0.929 . S
C1374 C1366 1.378 . S
C1374 C1369 1.350 . S
C1375 H1362 0.929 . S
C1375 C1367 1.433 . S
C1375 N1377 1.384 . S
N1376 C1372 1.427 . S
N1376 C1373 1.384 . S
N1377 C1369 1.427 . S
N1377 C1375 1.384 . S
H1378 C1384 0.930 . S
H1379 C1388 0.930 . S
H1380 C1393 0.929 . S
H1381 C1391 0.929 . S
H1382 C1386 0.929 . S
H1383 C1392 0.929 . S
C1384 H1378 0.930 . S
C1384 C1385 1.367 . S
C1384 C1392 1.378 . S
C1385 C1384 1.367 . S
C1385 C1393 1.433 . S
C1386 H1382 0.929 . S
C1386 C1388 1.378 . S
C1386 C1390 1.350 . S
C1387 C1390 1.463 . S
C1387 C1392 1.350 . S
C1387 N1395 1.427 . S
C1388 H1379 0.930 . S
C1388 C1386 1.378 . S
C1388 C1389 1.367 . S
C1389 C1388 1.367 . S
C1389 C1391 1.433 . S
C1390 C1386 1.350 . S
C1390 C1387 1.463 . S
C1390 N1394 1.427 . S
C1391 H1381 0.929 . S
C1391 C1389 1.433 . S
C1391 N1394 1.384 . S
C1392 H1383 0.929 . S
C1392 C1384 1.378 . S
C1392 C1387 1.350 . S
C1393 H1380 0.929 . S
C1393 C1385 1.433 . S
C1393 N1395 1.384 . S
N1394 C1390 1.427 . S
N1394 C1391 1.384 . S
N1395 C1387 1.427 . S
N1395 C1393 1.384 . S
H1396 C1402 0.930 . S
H1397 C1406 0.930 . S
H1398 C1411 0.929 1_556 S
H1399 C1409 0.929 1_554 S
H1400 C1404 0.929 1_565 S
H1401 C1410 0.929 1_545 S
C1402 H1396 0.930 . S
C1402 C1403 1.367 . S
C1402 C1410 1.378 . S
C1403 C1402 1.367 . S
C1403 C1411 1.433 . S
C1404 H1400 0.929 1_545 S
C1404 C1406 1.378 . S
C1404 C1408 1.350 . S
C1405 C1408 1.463 1_564 S
C1405 C1410 1.350 . S
C1405 N1413 1.427 1_554 S
C1406 H1397 0.930 . S
C1406 C1404 1.378 . S
C1406 C1407 1.367 . S
C1407 C1406 1.367 . S
C1407 C1409 1.433 . S
C1408 C1404 1.350 . S
C1408 C1405 1.463 1_546 S
C1408 N1412 1.427 1_556 S
C1409 H1399 0.929 1_556 S
C1409 C1407 1.433 . S
C1409 N1412 1.384 1_556 S
C1410 H1401 0.929 1_565 S
C1410 C1402 1.378 . S
C1410 C1405 1.350 . S
C1411 H1398 0.929 1_554 S
C1411 C1403 1.433 . S
C1411 N1413 1.384 1_554 S
N1412 C1408 1.427 1_554 S
N1412 C1409 1.384 1_554 S
N1413 C1405 1.427 1_556 S
N1413 C1411 1.384 1_556 S
H1414 C1420 0.930 . S
H1415 C1424 0.930 . S
H1416 C1429 0.929 . S
H1417 C1427 0.929 . S
H1418 C1422 0.929 . S
H1419 C1428 0.929 . S
C1420 H1414 0.930 . S
C1420 C1421 1.367 . S
C1420 C1428 1.378 . S
C1421 C1420 1.367 . S
C1421 C1429 1.433 . S
C1422 H1418 0.929 . S
C1422 C1424 1.378 . S
C1422 C1426 1.350 . S
C1423 C1426 1.463 . S
C1423 C1428 1.350 . S
C1423 N1431 1.427 . S
C1424 H1415 0.930 . S
C1424 C1422 1.378 . S
C1424 C1425 1.367 . S
C1425 C1424 1.367 . S
C1425 C1427 1.433 . S
C1426 C1422 1.350 . S
C1426 C1423 1.463 . S
C1426 N1430 1.427 . S
C1427 H1417 0.929 . S
C1427 C1425 1.433 . S
C1427 N1430 1.384 . S
C1428 H1419 0.929 . S
C1428 C1420 1.378 . S
C1428 C1423 1.350 . S
C1429 H1416 0.929 . S
C1429 C1421 1.433 . S
C1429 N1431 1.384 . S
N1430 C1426 1.427 . S
N1430 C1427 1.384 . S
N1431 C1423 1.427 . S
N1431 C1429 1.384 . S
H1432 C1438 0.930 . S
H1433 C1442 0.930 . S
H1434 C1447 0.929 . S
H1435 C1445 0.929 . S
H1436 C1440 0.929 . S
H1437 C1446 0.929 . S
C1438 H1432 0.930 . S
C1438 C1439 1.367 . S
C1438 C1446 1.378 . S
C1439 C1438 1.367 . S
C1439 C1447 1.433 . S
C1440 H1436 0.929 . S
C1440 C1442 1.378 . S
C1440 C1444 1.350 . S
C1441 C1444 1.463 1_565 S
C1441 C1446 1.350 . S
C1441 N1449 1.427 . S
C1442 H1433 0.930 . S
C1442 C1440 1.378 . S
C1442 C1443 1.367 . S
C1443 C1442 1.367 . S
C1443 C1445 1.433 . S
C1444 C1440 1.350 . S
C1444 C1441 1.463 1_545 S
C1444 N1448 1.427 . S
C1445 H1435 0.929 . S
C1445 C1443 1.433 . S
C1445 N1448 1.384 . S
C1446 H1437 0.929 . S
C1446 C1438 1.378 . S
C1446 C1441 1.350 . S
C1447 H1434 0.929 . S
C1447 C1439 1.433 . S
C1447 N1449 1.384 . S
N1448 C1444 1.427 . S
N1448 C1445 1.384 . S
N1449 C1441 1.427 . S
N1449 C1447 1.384 . S
H1450 C1456 0.930 . S
H1451 C1460 0.930 . S
H1452 C1465 0.929 . S
H1453 C1463 0.929 . S
H1454 C1458 0.929 . S
H1455 C1464 0.929 . S
C1456 H1450 0.930 . S
C1456 C1457 1.367 . S
C1456 C1464 1.378 . S
C1457 C1456 1.367 . S
C1457 C1465 1.433 . S
C1458 H1454 0.929 . S
C1458 C1460 1.378 . S
C1458 C1462 1.350 . S
C1459 C1462 1.463 . S
C1459 C1464 1.350 . S
C1459 N1467 1.427 . S
C1460 H1451 0.930 . S
C1460 C1458 1.378 . S
C1460 C1461 1.367 . S
C1461 C1460 1.367 . S
C1461 C1463 1.433 . S
C1462 C1458 1.350 . S
C1462 C1459 1.463 . S
C1462 N1466 1.427 . S
C1463 H1453 0.929 . S
C1463 C1461 1.433 . S
C1463 N1466 1.384 . S
C1464 H1455 0.929 . S
C1464 C1456 1.378 . S
C1464 C1459 1.350 . S
C1465 H1452 0.929 . S
C1465 C1457 1.433 . S
C1465 N1467 1.384 . S
N1466 C1462 1.427 . S
N1466 C1463 1.384 . S
N1467 C1459 1.427 . S
N1467 C1465 1.384 . S
H1468 C1474 0.930 . S
H1469 C1478 0.930 . S
H1470 C1483 0.929 . S
H1471 C1481 0.929 . S
H1472 C1476 0.929 . S
H1473 C1482 0.929 . S
C1474 H1468 0.930 . S
C1474 C1475 1.367 . S
C1474 C1482 1.378 1_556 S
C1475 C1474 1.367 . S
C1475 C1483 1.433 . S
C1476 H1472 0.929 . S
C1476 C1478 1.378 1_556 S
C1476 C1480 1.350 1_556 S
C1477 C1480 1.463 1_546 S
C1477 C1482 1.350 1_556 S
C1477 N1485 1.427 . S
C1478 H1469 0.930 . S
C1478 C1476 1.378 1_554 S
C1478 C1479 1.367 . S
C1479 C1478 1.367 . S
C1479 C1481 1.433 . S
C1480 C1476 1.350 1_554 S
C1480 C1477 1.463 1_564 S
C1480 N1484 1.427 . S
C1481 H1471 0.929 . S
C1481 C1479 1.433 . S
C1481 N1484 1.384 . S
C1482 H1473 0.929 . S
C1482 C1474 1.378 1_554 S
C1482 C1477 1.350 1_554 S
C1483 H1470 0.929 . S
C1483 C1475 1.433 . S
C1483 N1485 1.384 . S
N1484 C1480 1.427 . S
N1484 C1481 1.384 . S
N1485 C1477 1.427 . S
N1485 C1483 1.384 . S
H1486 C1492 0.930 . S
H1487 C1496 0.930 . S
H1488 C1501 0.929 . S
H1489 C1499 0.929 . S
H1490 C1494 0.929 . S
H1491 C1500 0.929 . S
C1492 H1486 0.930 . S
C1492 C1493 1.367 . S
C1492 C1500 1.378 . S
C1493 C1492 1.367 . S
C1493 C1501 1.433 . S
C1494 H1490 0.929 . S
C1494 C1496 1.378 . S
C1494 C1498 1.350 . S
C1495 C1498 1.463 . S
C1495 C1500 1.350 . S
C1495 N1503 1.427 . S
C1496 H1487 0.930 . S
C1496 C1494 1.378 . S
C1496 C1497 1.367 . S
C1497 C1496 1.367 . S
C1497 C1499 1.433 . S
C1498 C1494 1.350 . S
C1498 C1495 1.463 . S
C1498 N1502 1.427 . S
C1499 H1489 0.929 . S
C1499 C1497 1.433 . S
C1499 N1502 1.384 . S
C1500 H1491 0.929 . S
C1500 C1492 1.378 . S
C1500 C1495 1.350 . S
C1501 H1488 0.929 . S
C1501 C1493 1.433 . S
C1501 N1503 1.384 . S
N1502 C1498 1.427 . S
N1502 C1499 1.384 . S
N1503 C1495 1.427 . S
N1503 C1501 1.384 . S
C647 C6 1.859 . S
C651 C15 1.859 . S
C665 C55 1.859 1_556 S
C669 C46 1.859 . S
C683 C95 1.516 . S
C687 C86 1.515 . S
C701 C126 1.511 . S
C705 C135 1.511 . S
C719 C166 1.873 . S
C723 C175 1.873 . S
C737 C215 1.513 . S
C741 C206 1.513 . S
C755 C255 1.515 . S
C759 C246 1.513 . S
C773 C295 1.873 1_554 S
C777 C286 1.873 . S
C791 C335 1.864 . S
C795 C326 1.864 . S
C809 C375 1.864 . S
C813 C366 1.864 1_554 S
C827 C415 1.510 1_556 S
C831 C406 1.514 . S
C845 C455 1.512 . S
C849 C446 1.512 . S
C863 C495 1.869 . S
C867 C486 1.869 . S
C881 C535 1.513 . S
C885 C526 1.513 . S
C899 C566 1.517 . S
C903 C575 1.513 1_554 S
C917 C606 1.862 1_556 S
C921 C615 1.862 . S
C935 C9 1.644 . S
C939 C459 1.706 . S
C953 C50 1.684 . S
C957 C619 1.696 . S
C971 C90 1.709 . S
C975 C378 1.639 . S
C989 C129 1.747 . S
C993 C538 1.735 . S
C1007 C169 1.633 . S
C1011 C539 1.717 . S
C1025 C458 1.734 . S
C1029 C209 1.748 . S
C1043 C250 1.706 . S
C1047 C618 1.648 . S
C1061 C290 1.692 . S
C1065 C379 1.687 . S
C1079 C130 1.706 . S
C1083 C338 1.647 . S
C1097 C49 1.637 . S
C1101 C419 1.715 . S
C1115 C498 1.648 . S
C1119 C210 1.709 . S
C1133 C289 1.633 . S
C1137 C579 1.717 . S
C1151 C339 1.696 . S
C1155 C170 1.683 . S
C1169 C249 1.746 . S
C1173 C418 1.736 . S
C1187 C89 1.742 . S
C1191 C578 1.740 . S
C1205 C10 1.687 . S
C1209 C499 1.692 . S
C1223 C18 1.319 . S
C1227 C178 1.324 . S
C1241 C59 1.730 . S
C1245 C218 1.729 . S
C1259 C99 2.082 . S
C1263 C259 2.080 . S
C1277 C138 1.730 . S
C1281 C299 1.731 . S
C1295 C489 1.322 . S
C1299 C329 1.318 . S
C1313 C529 1.732 . S
C1317 C370 1.732 . S
C1331 C410 2.083 . S
C1335 C570 2.081 . S
C1349 C610 1.730 . S
C1353 C449 1.729 . S
C1367 C58 1.321 . S
C1371 C298 1.320 . S
C1385 C179 1.735 . S
C1389 C98 1.736 . S
C1403 C219 2.083 . S
C1407 C139 2.083 . S
C1421 C19 1.732 . S
C1425 C258 1.730 . S
C1439 C609 1.324 . S
C1443 C369 1.319 . S
C1457 C490 1.730 . S
C1461 C409 1.730 . S
C1475 C530 2.083 . S
C1479 C450 2.081 . S
C1493 C569 1.733 . S
C1497 C330 1.735 . S
