# Generated by pormake.
# Topology wge, (5)-cn, num edge types: 1
# Building blocks:
#     Node 0, Type 0, BuildingBlock: BEQFEK_clean_sbu_0, # of connection points: 5
#     Node 1, Type 0, BuildingBlock: BEQFEK_clean_sbu_0, # of connection points: 5
#     Node 2, Type 0, BuildingBlock: BEQFEK_clean_sbu_0, # of connection points: 5
#     Node 3, Type 0, BuildingBlock: BEQFEK_clean_sbu_0, # of connection points: 5
#     Node 4, Type 0, BuildingBlock: BEQFEK_clean_sbu_0, # of connection points: 5
#     Node 5, Type 0, BuildingBlock: BEQFEK_clean_sbu_0, # of connection points: 5
#     Node 6, Type 0, BuildingBlock: BEQFEK_clean_sbu_0, # of connection points: 5
#     Node 7, Type 0, BuildingBlock: BEQFEK_clean_sbu_0, # of connection points: 5
#     Node 8, Type 0, BuildingBlock: BEQFEK_clean_sbu_0, # of connection points: 5
#     Node 9, Type 0, BuildingBlock: BEQFEK_clean_sbu_0, # of connection points: 5
#     Node 10, Type 0, BuildingBlock: BEQFEK_clean_sbu_0, # of connection points: 5
#     Node 11, Type 0, BuildingBlock: BEQFEK_clean_sbu_0, # of connection points: 5
#     Node 12, Type 0, BuildingBlock: BEQFEK_clean_sbu_0, # of connection points: 5
#     Node 13, Type 0, BuildingBlock: BEQFEK_clean_sbu_0, # of connection points: 5
#     Node 14, Type 0, BuildingBlock: BEQFEK_clean_sbu_0, # of connection points: 5
#     Node 15, Type 0, BuildingBlock: BEQFEK_clean_sbu_0, # of connection points: 5
#     Node 16, Type 0, BuildingBlock: BEQFEK_clean_sbu_0, # of connection points: 5
#     Node 17, Type 0, BuildingBlock: BEQFEK_clean_sbu_0, # of connection points: 5
#     Node 18, Type 0, BuildingBlock: BEQFEK_clean_sbu_0, # of connection points: 5
#     Node 19, Type 0, BuildingBlock: BEQFEK_clean_sbu_0, # of connection points: 5
#     Node 20, Type 0, BuildingBlock: BEQFEK_clean_sbu_0, # of connection points: 5
#     Node 21, Type 0, BuildingBlock: BEQFEK_clean_sbu_0, # of connection points: 5
#     Node 22, Type 0, BuildingBlock: BEQFEK_clean_sbu_0, # of connection points: 5
#     Node 23, Type 0, BuildingBlock: BEQFEK_clean_sbu_0, # of connection points: 5
#     Node 24, Type 0, BuildingBlock: BEQFEK_clean_sbu_0, # of connection points: 5
#     Node 25, Type 0, BuildingBlock: BEQFEK_clean_sbu_0, # of connection points: 5
#     Node 26, Type 0, BuildingBlock: BEQFEK_clean_sbu_0, # of connection points: 5
#     Node 27, Type 0, BuildingBlock: BEQFEK_clean_sbu_0, # of connection points: 5
#     Node 28, Type 0, BuildingBlock: BEQFEK_clean_sbu_0, # of connection points: 5
#     Node 29, Type 0, BuildingBlock: BEQFEK_clean_sbu_0, # of connection points: 5
#     Node 30, Type 0, BuildingBlock: BEQFEK_clean_sbu_0, # of connection points: 5
#     Node 31, Type 0, BuildingBlock: BEQFEK_clean_sbu_0, # of connection points: 5
#     Edge 32, Type (0, 0), BuildingBlock: XIVTED_clean_linker_0, # of connection points: 2
#     Edge 33, Type (0, 0), BuildingBlock: XIVTED_clean_linker_0, # of connection points: 2
#     Edge 34, Type (0, 0), BuildingBlock: XIVTED_clean_linker_0, # of connection points: 2
#     Edge 35, Type (0, 0), BuildingBlock: XIVTED_clean_linker_0, # of connection points: 2
#     Edge 36, Type (0, 0), BuildingBlock: XIVTED_clean_linker_0, # of connection points: 2
#     Edge 37, Type (0, 0), BuildingBlock: XIVTED_clean_linker_0, # of connection points: 2
#     Edge 38, Type (0, 0), BuildingBlock: XIVTED_clean_linker_0, # of connection points: 2
#     Edge 39, Type (0, 0), BuildingBlock: XIVTED_clean_linker_0, # of connection points: 2
#     Edge 40, Type (0, 0), BuildingBlock: XIVTED_clean_linker_0, # of connection points: 2
#     Edge 41, Type (0, 0), BuildingBlock: XIVTED_clean_linker_0, # of connection points: 2
#     Edge 42, Type (0, 0), BuildingBlock: XIVTED_clean_linker_0, # of connection points: 2
#     Edge 43, Type (0, 0), BuildingBlock: XIVTED_clean_linker_0, # of connection points: 2
#     Edge 44, Type (0, 0), BuildingBlock: XIVTED_clean_linker_0, # of connection points: 2
#     Edge 45, Type (0, 0), BuildingBlock: XIVTED_clean_linker_0, # of connection points: 2
#     Edge 46, Type (0, 0), BuildingBlock: XIVTED_clean_linker_0, # of connection points: 2
#     Edge 47, Type (0, 0), BuildingBlock: XIVTED_clean_linker_0, # of connection points: 2
#     Edge 48, Type (0, 0), BuildingBlock: XIVTED_clean_linker_0, # of connection points: 2
#     Edge 49, Type (0, 0), BuildingBlock: XIVTED_clean_linker_0, # of connection points: 2
#     Edge 50, Type (0, 0), BuildingBlock: XIVTED_clean_linker_0, # of connection points: 2
#     Edge 51, Type (0, 0), BuildingBlock: XIVTED_clean_linker_0, # of connection points: 2
#     Edge 52, Type (0, 0), BuildingBlock: XIVTED_clean_linker_0, # of connection points: 2
#     Edge 53, Type (0, 0), BuildingBlock: XIVTED_clean_linker_0, # of connection points: 2
#     Edge 54, Type (0, 0), BuildingBlock: XIVTED_clean_linker_0, # of connection points: 2
#     Edge 55, Type (0, 0), BuildingBlock: XIVTED_clean_linker_0, # of connection points: 2
#     Edge 56, Type (0, 0), BuildingBlock: XIVTED_clean_linker_0, # of connection points: 2
#     Edge 57, Type (0, 0), BuildingBlock: XIVTED_clean_linker_0, # of connection points: 2
#     Edge 58, Type (0, 0), BuildingBlock: XIVTED_clean_linker_0, # of connection points: 2
#     Edge 59, Type (0, 0), BuildingBlock: XIVTED_clean_linker_0, # of connection points: 2
#     Edge 60, Type (0, 0), BuildingBlock: XIVTED_clean_linker_0, # of connection points: 2
#     Edge 61, Type (0, 0), BuildingBlock: XIVTED_clean_linker_0, # of connection points: 2
#     Edge 62, Type (0, 0), BuildingBlock: XIVTED_clean_linker_0, # of connection points: 2
#     Edge 63, Type (0, 0), BuildingBlock: XIVTED_clean_linker_0, # of connection points: 2
#     Edge 64, Type (0, 0), BuildingBlock: XIVTED_clean_linker_0, # of connection points: 2
#     Edge 65, Type (0, 0), BuildingBlock: XIVTED_clean_linker_0, # of connection points: 2
#     Edge 66, Type (0, 0), BuildingBlock: XIVTED_clean_linker_0, # of connection points: 2
#     Edge 67, Type (0, 0), BuildingBlock: XIVTED_clean_linker_0, # of connection points: 2
#     Edge 68, Type (0, 0), BuildingBlock: XIVTED_clean_linker_0, # of connection points: 2
#     Edge 69, Type (0, 0), BuildingBlock: XIVTED_clean_linker_0, # of connection points: 2
#     Edge 70, Type (0, 0), BuildingBlock: XIVTED_clean_linker_0, # of connection points: 2
#     Edge 71, Type (0, 0), BuildingBlock: XIVTED_clean_linker_0, # of connection points: 2
#     Edge 72, Type (0, 0), BuildingBlock: XIVTED_clean_linker_0, # of connection points: 2
#     Edge 73, Type (0, 0), BuildingBlock: XIVTED_clean_linker_0, # of connection points: 2
#     Edge 74, Type (0, 0), BuildingBlock: XIVTED_clean_linker_0, # of connection points: 2
#     Edge 75, Type (0, 0), BuildingBlock: XIVTED_clean_linker_0, # of connection points: 2
#     Edge 76, Type (0, 0), BuildingBlock: XIVTED_clean_linker_0, # of connection points: 2
#     Edge 77, Type (0, 0), BuildingBlock: XIVTED_clean_linker_0, # of connection points: 2
#     Edge 78, Type (0, 0), BuildingBlock: XIVTED_clean_linker_0, # of connection points: 2
#     Edge 79, Type (0, 0), BuildingBlock: XIVTED_clean_linker_0, # of connection points: 2
#     Edge 80, Type (0, 0), BuildingBlock: XIVTED_clean_linker_0, # of connection points: 2
#     Edge 81, Type (0, 0), BuildingBlock: XIVTED_clean_linker_0, # of connection points: 2
#     Edge 82, Type (0, 0), BuildingBlock: XIVTED_clean_linker_0, # of connection points: 2
#     Edge 83, Type (0, 0), BuildingBlock: XIVTED_clean_linker_0, # of connection points: 2
#     Edge 84, Type (0, 0), BuildingBlock: XIVTED_clean_linker_0, # of connection points: 2
#     Edge 85, Type (0, 0), BuildingBlock: XIVTED_clean_linker_0, # of connection points: 2
#     Edge 86, Type (0, 0), BuildingBlock: XIVTED_clean_linker_0, # of connection points: 2
#     Edge 87, Type (0, 0), BuildingBlock: XIVTED_clean_linker_0, # of connection points: 2
#     Edge 88, Type (0, 0), BuildingBlock: XIVTED_clean_linker_0, # of connection points: 2
#     Edge 89, Type (0, 0), BuildingBlock: XIVTED_clean_linker_0, # of connection points: 2
#     Edge 90, Type (0, 0), BuildingBlock: XIVTED_clean_linker_0, # of connection points: 2
#     Edge 91, Type (0, 0), BuildingBlock: XIVTED_clean_linker_0, # of connection points: 2
#     Edge 92, Type (0, 0), BuildingBlock: XIVTED_clean_linker_0, # of connection points: 2
#     Edge 93, Type (0, 0), BuildingBlock: XIVTED_clean_linker_0, # of connection points: 2
#     Edge 94, Type (0, 0), BuildingBlock: XIVTED_clean_linker_0, # of connection points: 2
#     Edge 95, Type (0, 0), BuildingBlock: XIVTED_clean_linker_0, # of connection points: 2
#     Edge 96, Type (0, 0), BuildingBlock: XIVTED_clean_linker_0, # of connection points: 2
#     Edge 97, Type (0, 0), BuildingBlock: XIVTED_clean_linker_0, # of connection points: 2
#     Edge 98, Type (0, 0), BuildingBlock: XIVTED_clean_linker_0, # of connection points: 2
#     Edge 99, Type (0, 0), BuildingBlock: XIVTED_clean_linker_0, # of connection points: 2
#     Edge 100, Type (0, 0), BuildingBlock: XIVTED_clean_linker_0, # of connection points: 2
#     Edge 101, Type (0, 0), BuildingBlock: XIVTED_clean_linker_0, # of connection points: 2
#     Edge 102, Type (0, 0), BuildingBlock: XIVTED_clean_linker_0, # of connection points: 2
#     Edge 103, Type (0, 0), BuildingBlock: XIVTED_clean_linker_0, # of connection points: 2
#     Edge 104, Type (0, 0), BuildingBlock: XIVTED_clean_linker_0, # of connection points: 2
#     Edge 105, Type (0, 0), BuildingBlock: XIVTED_clean_linker_0, # of connection points: 2
#     Edge 106, Type (0, 0), BuildingBlock: XIVTED_clean_linker_0, # of connection points: 2
#     Edge 107, Type (0, 0), BuildingBlock: XIVTED_clean_linker_0, # of connection points: 2
#     Edge 108, Type (0, 0), BuildingBlock: XIVTED_clean_linker_0, # of connection points: 2
#     Edge 109, Type (0, 0), BuildingBlock: XIVTED_clean_linker_0, # of connection points: 2
#     Edge 110, Type (0, 0), BuildingBlock: XIVTED_clean_linker_0, # of connection points: 2
#     Edge 111, Type (0, 0), BuildingBlock: XIVTED_clean_linker_0, # of connection points: 2
# Relax obj value: 0.339
# Max RMSD: 0.184
# Mean RMSD: 0.184
data_MOF--net-wge--node1-BEQFEK_clean_sbu_0--edge1-XIVTED_clean_linker_0
_symmetry_space_group_name_H-M    P1
_symmetry_Int_Tables_number       1
_symmetry_cell_setting            triclinic
loop_
_symmetry_equiv_pos_as_xyz
'x, y, z'
_cell_length_a     65.634485
_cell_length_b     65.677111
_cell_length_c     42.271028
_cell_angle_alpha  89.996649
_cell_angle_beta   90.014607
_cell_angle_gamma 90.01363
loop_
_atom_site_label
_atom_site_type_symbol
_atom_site_fract_x
_atom_site_fract_y
_atom_site_fract_z
_atom_type_partial_charge
Co0 Co 0.22345 0.13672 0.99615 0.0
Co1 Co 0.25801 0.1371 0.04655 0.0
C2 C 0.23949 0.17579 0.01831 0.0
O3 O 0.22646 0.1663 0.00168 0.0
O4 O 0.25227 0.16616 0.03535 0.0
C5 C 0.19429 0.14315 0.94597 0.0
O6 O 0.20498 0.15945 0.93896 0.0
C7 C 0.26624 0.14781 0.11086 0.0
C8 C 0.29114 0.12724 0.12515 0.0
C9 C 0.27687 0.14084 0.13704 0.0
N10 N 0.2732 0.13815 0.08504 0.0
N11 N 0.28854 0.12631 0.0935 0.0
C12 C 0.24902 0.1628 0.11022 0.0
H13 H 0.2522 0.17468 0.09234 0.0
H14 H 0.23473 0.15493 0.10333 0.0
H15 H 0.24702 0.17056 0.13331 0.0
C16 C 0.20234 0.1131 0.0465 0.0
N17 N 0.21849 0.12355 0.0352 0.0
N18 N 0.2337 0.12201 0.05525 0.0
C19 C 0.22802 0.10959 0.07917 0.0
C20 C 0.20788 0.10385 0.07472 0.0
C21 C 0.18241 0.1111 0.02966 0.0
H22 H 0.18454 0.1013 0.00853 0.0
H23 H 0.17726 0.1263 0.02145 0.0
H24 H 0.1706 0.10419 0.04507 0.0
O25 O 0.24823 0.12494 0.97506 0.0
O26 O 0.27297 0.12395 0.0111 0.0
H27 H 0.25741 0.10049 0.0962 0.0
H28 H 0.23638 0.08803 0.11565 0.0
C29 C 0.24172 0.10257 0.10525 0.0
H30 H 0.24179 0.1141 0.12427 0.0
H31 H 0.29612 0.11642 0.07818 0.0
O32 O 0.19985 0.1318 0.96871 0.0
C33 C 0.26647 0.12049 0.98312 0.0
Co34 Co 0.11928 0.97282 0.24563 0.0
Co35 Co 0.11733 0.00747 0.29558 0.0
C36 C 0.07946 0.9885 0.26592 0.0
O37 O 0.08945 0.9756 0.24978 0.0
O38 O 0.0886 1.00142 0.2833 0.0
C39 C 0.11264 0.94204 0.19832 0.0
O40 O 0.09491 0.95086 0.19386 0.0
C41 C 0.10567 0.01518 0.35935 0.0
C42 C 0.12547 0.04047 0.37458 0.0
C43 C 0.11212 0.02575 0.38586 0.0
N44 N 0.11538 0.0226 0.3339 0.0
N45 N 0.12674 0.03817 0.3429 0.0
C46 C 0.09118 0.99753 0.3581 0.0
H47 H 0.07938 1.00046 0.33998 0.0
H48 H 0.09953 0.98352 0.35123 0.0
H49 H 0.08327 0.99515 0.38097 0.0
C50 C 0.14222 0.95219 0.29726 0.0
N51 N 0.13171 0.96809 0.28526 0.0
N52 N 0.13247 0.98337 0.30526 0.0
C53 C 0.14427 0.97795 0.33006 0.0
C54 C 0.15046 0.95789 0.32624 0.0
C55 C 0.14401 0.93192 0.28137 0.0
H56 H 0.15578 0.93289 0.26259 0.0
H57 H 0.12931 0.92782 0.27012 0.0
H58 H 0.1484 0.91986 0.29843 0.0
O59 O 0.13145 0.99761 0.22501 0.0
O60 O 0.13075 0.02259 0.26063 0.0
H61 H 0.15345 0.0079 0.34456 0.0
H62 H 0.16713 0.98751 0.36363 0.0
C63 C 0.15201 0.99241 0.35462 0.0
H64 H 0.14133 0.99271 0.37482 0.0
H65 H 0.13661 0.0461 0.32796 0.0
O66 O 0.12498 0.94927 0.21854 0.0
C67 C 0.13521 0.016 0.23305 0.0
Co68 Co 0.28228 0.86913 0.49707 0.0
Co69 Co 0.24759 0.8674 0.54696 0.0
C70 C 0.2665 0.82945 0.5173 0.0
O71 O 0.27956 0.83939 0.50138 0.0
O72 O 0.25349 0.83863 0.53448 0.0
C73 C 0.31307 0.86243 0.44982 0.0
O74 O 0.30427 0.84468 0.44552 0.0
C75 C 0.23991 0.85568 0.61074 0.0
C76 C 0.21461 0.87546 0.62602 0.0
C77 C 0.22933 0.8621 0.63726 0.0
N78 N 0.23249 0.86543 0.58532 0.0
N79 N 0.21691 0.87678 0.59435 0.0
C80 C 0.25754 0.84119 0.60945 0.0
H81 H 0.25464 0.82947 0.5912 0.0
H82 H 0.27159 0.84955 0.60274 0.0
H83 H 0.25986 0.8332 0.63227 0.0
C84 C 0.30302 0.89199 0.54877 0.0
N85 N 0.28705 0.88161 0.53669 0.0
N86 N 0.27177 0.88238 0.55669 0.0
C87 C 0.27725 0.89409 0.58155 0.0
C88 C 0.29736 0.90017 0.57781 0.0
C89 C 0.32333 0.89368 0.53295 0.0
H90 H 0.32247 0.90548 0.51422 0.0
H91 H 0.32734 0.87897 0.52164 0.0
H92 H 0.33542 0.89795 0.55006 0.0
O93 O 0.25741 0.88107 0.47631 0.0
O94 O 0.23259 0.88117 0.51221 0.0
H95 H 0.24732 0.90337 0.59609 0.0
H96 H 0.2678 0.91693 0.61518 0.0
C97 C 0.26282 0.90186 0.60614 0.0
H98 H 0.26247 0.89117 0.62631 0.0
H99 H 0.20899 0.88666 0.57944 0.0
O100 O 0.30582 0.87482 0.46994 0.0
C101 C 0.23912 0.88522 0.48444 0.0
Co102 Co 0.38794 0.03236 0.74675 0.0
Co103 Co 0.38863 0.99763 0.79671 0.0
C104 C 0.42715 0.016 0.76786 0.0
O105 O 0.41758 0.02919 0.75168 0.0
O106 O 0.4176 0.00315 0.78484 0.0
C107 C 0.39455 0.06179 0.69725 0.0
O108 O 0.4111 0.05136 0.6907 0.0
C109 C 0.39951 0.99024 0.86094 0.0
C110 C 0.37932 0.96523 0.87604 0.0
C111 C 0.39263 0.97995 0.88746 0.0
N112 N 0.39006 0.98268 0.83533 0.0
N113 N 0.37847 0.96727 0.84428 0.0
C114 C 0.41414 0.00777 0.85981 0.0
H115 H 0.40594 0.02184 0.85283 0.0
H116 H 0.42193 0.01011 0.88281 0.0
H117 H 0.42601 0.00474 0.84185 0.0
C118 C 0.36492 0.0534 0.79805 0.0
N119 N 0.37515 0.0373 0.7861 0.0
N120 N 0.37388 0.02199 0.80596 0.0
C121 C 0.36197 0.02756 0.83052 0.0
C122 C 0.35633 0.04778 0.82683 0.0
C123 C 0.36371 0.07376 0.78234 0.0
H124 H 0.35202 0.07316 0.76339 0.0
H125 H 0.37857 0.07754 0.7713 0.0
H126 H 0.35952 0.08586 0.79946 0.0
O127 O 0.37579 0.00766 0.72582 0.0
O128 O 0.37495 0.98279 0.76165 0.0
H129 H 0.35202 0.99772 0.84441 0.0
H130 H 0.33833 0.01831 0.86293 0.0
C131 C 0.35353 0.01317 0.85463 0.0
H132 H 0.36378 0.01266 0.87534 0.0
H133 H 0.36872 0.95931 0.82921 0.0
O134 O 0.38292 0.05597 0.71948 0.0
C135 C 0.37126 0.98943 0.73381 0.0
Co136 Co 0.22291 0.86811 0.00309 0.0
Co137 Co 0.25756 0.86701 0.95315 0.0
C138 C 0.23925 0.82874 0.98267 0.0
O139 O 0.2261 0.83846 0.99871 0.0
O140 O 0.25208 0.83811 0.96542 0.0
C141 C 0.19489 0.86242 0.05414 0.0
O142 O 0.20716 0.84762 0.06274 0.0
C143 C 0.26546 0.85563 0.88931 0.0
C144 C 0.29045 0.87585 0.87419 0.0
C145 C 0.27595 0.8623 0.86284 0.0
N146 N 0.27272 0.86541 0.9148 0.0
N147 N 0.28811 0.87704 0.90587 0.0
C148 C 0.24805 0.84086 0.89047 0.0
H149 H 0.23388 0.84896 0.89724 0.0
H150 H 0.24586 0.83291 0.86759 0.0
H151 H 0.25114 0.82912 0.90863 0.0
C152 C 0.20183 0.89082 0.95167 0.0
N153 N 0.21795 0.8806 0.96356 0.0
N154 N 0.23317 0.88165 0.94351 0.0
C155 C 0.22751 0.89339 0.91878 0.0
C156 C 0.20733 0.89921 0.92269 0.0
C157 C 0.18153 0.89214 0.9676 0.0
H158 H 0.18237 0.90356 0.98692 0.0
H159 H 0.17759 0.87721 0.97823 0.0
H160 H 0.16939 0.89667 0.95075 0.0
O161 O 0.24755 0.8804 0.02406 0.0
O162 O 0.27233 0.88087 0.98806 0.0
H163 H 0.2573 0.90315 0.9043 0.0
H164 H 0.23664 0.91651 0.88537 0.0
C165 C 0.24181 0.90147 0.89425 0.0
H166 H 0.2423 0.89087 0.87398 0.0
H167 H 0.29588 0.887 0.92086 0.0
O168 O 0.19913 0.87304 0.02996 0.0
C169 C 0.26579 0.88479 0.01587 0.0
Co170 Co 0.38701 0.97186 0.25376 0.0
Co171 Co 0.38756 0.00689 0.20446 0.0
C172 C 0.42619 0.98823 0.23259 0.0
O173 O 0.41667 0.97491 0.24856 0.0
O174 O 0.41657 1.00124 0.21599 0.0
C175 C 0.39278 0.94405 0.30487 0.0
O176 O 0.4073 0.95663 0.31361 0.0
C177 C 0.39848 0.01467 0.14045 0.0
C178 C 0.37818 0.03959 0.12541 0.0
C179 C 0.39161 0.02501 0.11397 0.0
N180 N 0.38894 0.02207 0.16606 0.0
N181 N 0.37727 0.03744 0.15716 0.0
C182 C 0.41322 0.99724 0.14152 0.0
H183 H 0.42532 1.00056 0.15901 0.0
H184 H 0.40521 0.9832 0.14918 0.0
H185 H 0.42074 0.99469 0.11838 0.0
C186 C 0.36348 0.95128 0.20267 0.0
N187 N 0.37394 0.96724 0.21458 0.0
N188 N 0.37265 0.98265 0.19493 0.0
C189 C 0.36054 0.97727 0.17049 0.0
C190 C 0.35471 0.95709 0.17411 0.0
C191 C 0.36226 0.93085 0.21821 0.0
H192 H 0.35108 0.93156 0.23787 0.0
H193 H 0.37732 0.92677 0.22832 0.0
H194 H 0.35745 0.9189 0.20123 0.0
O195 O 0.37505 0.99642 0.27543 0.0
O196 O 0.37417 0.02152 0.24 0.0
H197 H 0.35063 0.00719 0.15705 0.0
H198 H 0.33695 0.98676 0.13811 0.0
C199 C 0.35214 0.99182 0.14658 0.0
H200 H 0.36243 0.99248 0.12594 0.0
H201 H 0.36742 0.04527 0.17223 0.0
O202 O 0.38227 0.948 0.28046 0.0
C203 C 0.37059 0.01473 0.26779 0.0
Co204 Co 0.28315 0.136 0.50699 0.0
Co205 Co 0.24952 0.13658 0.45544 0.0
C206 C 0.26823 0.17516 0.48338 0.0
O207 O 0.28102 0.16556 0.50026 0.0
O208 O 0.25534 0.16562 0.46646 0.0
C209 C 0.32187 0.14062 0.53898 0.0
O210 O 0.32699 0.15342 0.51646 0.0
C211 C 0.24346 0.14677 0.39032 0.0
C212 C 0.21712 0.12823 0.37552 0.0
C213 C 0.23261 0.14053 0.36393 0.0
N214 N 0.23537 0.13792 0.41606 0.0
N215 N 0.21924 0.12728 0.40726 0.0
C216 C 0.26186 0.16032 0.39119 0.0
H217 H 0.27552 0.15121 0.39738 0.0
H218 H 0.26432 0.16819 0.3683 0.0
H219 H 0.25987 0.17213 0.40956 0.0
C220 C 0.30454 0.11052 0.45807 0.0
N221 N 0.28871 0.12177 0.46881 0.0
N222 N 0.27379 0.12099 0.44808 0.0
C223 C 0.27942 0.10867 0.42404 0.0
C224 C 0.2992 0.10206 0.42905 0.0
C225 C 0.32445 0.1084 0.47495 0.0
H226 H 0.32174 0.10306 0.49948 0.0
H227 H 0.33193 0.1235 0.47616 0.0
H228 H 0.33487 0.09771 0.46273 0.0
O229 O 0.25762 0.12521 0.52676 0.0
O230 O 0.23331 0.12387 0.49016 0.0
H231 H 0.24961 0.10025 0.4076 0.0
H232 H 0.27014 0.0858 0.39036 0.0
C233 C 0.26543 0.10113 0.39865 0.0
H234 H 0.2661 0.11157 0.37817 0.0
H235 H 0.2106 0.11825 0.42251 0.0
O236 O 0.30471 0.13171 0.5383 0.0
C237 C 0.23943 0.12081 0.51847 0.0
Co238 Co 0.11802 0.03197 0.75611 0.0
Co239 Co 0.11711 0.99873 0.70405 0.0
C240 C 0.07869 0.01668 0.73355 0.0
O241 O 0.08832 0.02947 0.7504 0.0
O242 O 0.0882 0.00408 0.71612 0.0
C243 C 0.1137 0.07053 0.78887 0.0
O244 O 0.10046 0.07572 0.76702 0.0
C245 C 0.10594 0.99245 0.63948 0.0
C246 C 0.12535 0.96698 0.62374 0.0
C247 C 0.11229 0.98204 0.61276 0.0
N248 N 0.11546 0.98459 0.66479 0.0
N249 N 0.12658 0.96893 0.65547 0.0
C250 C 0.0917 0.01028 0.64107 0.0
H251 H 0.08 0.00751 0.65941 0.0
H252 H 0.10029 0.02417 0.6478 0.0
H253 H 0.08366 0.01279 0.61834 0.0
C254 C 0.14225 0.05411 0.7063 0.0
N255 N 0.13151 0.03802 0.71736 0.0
N256 N 0.13218 0.02325 0.69638 0.0
C257 C 0.14393 0.02922 0.67188 0.0
C258 C 0.15024 0.0491 0.67681 0.0
C259 C 0.14432 0.07397 0.72331 0.0
H260 H 0.15014 0.07124 0.74758 0.0
H261 H 0.12911 0.08117 0.72521 0.0
H262 H 0.15461 0.08463 0.71077 0.0
O263 O 0.12953 0.00644 0.77516 0.0
O264 O 0.13058 0.9826 0.73786 0.0
H265 H 0.15285 0.99969 0.65505 0.0
H266 H 0.16646 0.02057 0.63722 0.0
C267 C 0.1514 0.01548 0.64615 0.0
H268 H 0.14058 0.01587 0.62613 0.0
H269 H 0.13619 0.96062 0.67031 0.0
O270 O 0.12264 0.0534 0.78757 0.0
C271 C 0.13404 0.98843 0.76616 0.0
Co272 Co 0.7827 0.8678 0.00478 0.0
Co273 Co 0.74961 0.86757 0.95251 0.0
C274 C 0.76796 0.82885 0.98071 0.0
O275 O 0.78088 0.83832 0.99752 0.0
O276 O 0.75508 0.83852 0.96396 0.0
C277 C 0.8213 0.86336 0.03691 0.0
O278 O 0.82657 0.85098 0.01394 0.0
C279 C 0.7445 0.85679 0.88759 0.0
C280 C 0.71815 0.87481 0.87133 0.0
C281 C 0.73389 0.86246 0.86071 0.0
N282 N 0.73601 0.86594 0.91274 0.0
N283 N 0.7199 0.87629 0.90308 0.0
C284 C 0.76303 0.84348 0.88946 0.0
H285 H 0.76057 0.83139 0.90727 0.0
H286 H 0.77636 0.85265 0.89705 0.0
H287 H 0.76637 0.83592 0.86659 0.0
C288 C 0.80446 0.89371 0.95642 0.0
N289 N 0.7886 0.88236 0.96685 0.0
N290 N 0.77389 0.88307 0.94575 0.0
C291 C 0.77965 0.89541 0.92185 0.0
C292 C 0.79935 0.90212 0.92724 0.0
C293 C 0.82422 0.89601 0.97368 0.0
H294 H 0.83213 0.88111 0.97415 0.0
H295 H 0.83437 0.90728 0.96217 0.0
H296 H 0.82124 0.90072 0.99845 0.0
O297 O 0.75675 0.87798 0.02432 0.0
O298 O 0.73325 0.88069 0.98647 0.0
H299 H 0.74995 0.90379 0.9049 0.0
H300 H 0.7706 0.91819 0.88784 0.0
C301 C 0.76583 0.90288 0.89619 0.0
H302 H 0.76659 0.89238 0.87581 0.0
H303 H 0.71096 0.88543 0.91775 0.0
O304 O 0.804 0.87202 0.03655 0.0
C305 C 0.73887 0.88289 0.01519 0.0
Co306 Co 0.88614 0.03466 0.7538 0.0
Co307 Co 0.88685 0.99944 0.70482 0.0
C308 C 0.92539 0.01837 0.73303 0.0
O309 O 0.91576 0.03167 0.74885 0.0
O310 O 0.91589 0.00529 0.71638 0.0
C311 C 0.89326 0.06436 0.80209 0.0
O312 O 0.91011 0.05411 0.80736 0.0
C313 C 0.89833 0.99092 0.64118 0.0
C314 C 0.87774 0.96619 0.62626 0.0
C315 C 0.89157 0.98039 0.61479 0.0
N316 N 0.88834 0.98398 0.66671 0.0
N317 N 0.8765 0.96872 0.6579 0.0
C318 C 0.91339 0.00808 0.64223 0.0
H319 H 0.92539 0.00453 0.65977 0.0
H320 H 0.90563 0.02226 0.64985 0.0
H321 H 0.92103 0.01045 0.61915 0.0
C322 C 0.86313 0.0552 0.70222 0.0
N323 N 0.87328 0.03915 0.71445 0.0
N324 N 0.87174 0.0236 0.69505 0.0
C325 C 0.85953 0.02898 0.67067 0.0
C326 C 0.85404 0.04925 0.67405 0.0
C327 C 0.86136 0.07547 0.71807 0.0
H328 H 0.85138 0.07394 0.73912 0.0
H329 H 0.8766 0.0805 0.72635 0.0
H330 H 0.85478 0.08708 0.70196 0.0
O331 O 0.87431 0.01009 0.77556 0.0
O332 O 0.87359 0.9848 0.7405 0.0
H333 H 0.85025 0.99933 0.65507 0.0
H334 H 0.83779 0.02003 0.63481 0.0
C335 C 0.85237 0.01483 0.6453 0.0
H336 H 0.86381 0.01436 0.62617 0.0
H337 H 0.86636 0.96122 0.67291 0.0
O338 O 0.88108 0.05844 0.78065 0.0
C339 C 0.86999 0.99171 0.7682 0.0
Co340 Co 0.72436 0.13639 0.49981 0.0
Co341 Co 0.75876 0.13835 0.44955 0.0
C342 C 0.73949 0.17612 0.47953 0.0
O343 O 0.72671 0.1661 0.49582 0.0
O344 O 0.75239 0.16703 0.46205 0.0
C345 C 0.69624 0.14115 0.551 0.0
O346 O 0.70778 0.1566 0.55926 0.0
C347 C 0.76338 0.15067 0.38568 0.0
C348 C 0.78943 0.13316 0.36727 0.0
C349 C 0.77354 0.14581 0.35808 0.0
N350 N 0.77241 0.14108 0.40997 0.0
N351 N 0.78835 0.131 0.39903 0.0
C352 C 0.74449 0.16337 0.38882 0.0
H353 H 0.74773 0.17652 0.40443 0.0
H354 H 0.73215 0.15433 0.39991 0.0
H355 H 0.73924 0.16943 0.36573 0.0
C356 C 0.7036 0.11347 0.44844 0.0
N357 N 0.71948 0.12401 0.46035 0.0
N358 N 0.73497 0.12265 0.44089 0.0
C359 C 0.72986 0.1102 0.41676 0.0
C360 C 0.70962 0.10435 0.42019 0.0
C361 C 0.68307 0.11252 0.46371 0.0
H362 H 0.68314 0.1004 0.48201 0.0
H363 H 0.67959 0.12723 0.47542 0.0
H364 H 0.671 0.10909 0.44611 0.0
O365 O 0.74957 0.1245 0.51974 0.0
O366 O 0.77462 0.12518 0.48412 0.0
H367 H 0.76021 0.10052 0.40519 0.0
H368 H 0.74024 0.08574 0.38672 0.0
C369 C 0.74492 0.10127 0.39409 0.0
H370 H 0.74586 0.11086 0.37271 0.0
H371 H 0.79749 0.12145 0.41273 0.0
O372 O 0.70098 0.13052 0.52705 0.0
C373 C 0.76801 0.12079 0.51176 0.0
Co374 Co 0.61937 0.97195 0.25273 0.0
Co375 Co 0.61744 0.00612 0.20179 0.0
C376 C 0.5795 0.98779 0.23071 0.0
O377 O 0.58957 0.97481 0.24661 0.0
O378 O 0.58855 1.00088 0.21355 0.0
C379 C 0.61676 0.93159 0.28129 0.0
O380 O 0.60745 0.92527 0.25559 0.0
C381 C 0.60399 0.0202 0.14017 0.0
C382 C 0.63003 0.03867 0.12407 0.0
C383 C 0.61231 0.02935 0.11351 0.0
N384 N 0.61683 0.02285 0.16462 0.0
N385 N 0.63194 0.03468 0.15521 0.0
C386 C 0.58498 0.00765 0.14198 0.0
H387 H 0.57517 0.01371 0.16104 0.0
H388 H 0.58892 0.99167 0.14798 0.0
H389 H 0.57614 0.0082 0.11963 0.0
C390 C 0.64594 0.9521 0.2039 0.0
N391 N 0.63346 0.9671 0.21416 0.0
N392 N 0.63182 0.98109 0.19199 0.0
C393 C 0.64266 0.97496 0.1665 0.0
C394 C 0.65215 0.95652 0.1732 0.0
C395 C 0.65338 0.93494 0.2241 0.0
H396 H 0.6545 0.93986 0.24911 0.0
H397 H 0.64249 0.92207 0.22248 0.0
H398 H 0.66853 0.92954 0.21604 0.0
O399 O 0.63077 0.99641 0.27343 0.0
O400 O 0.63147 0.02097 0.23738 0.0
H401 H 0.65143 1.00012 0.13743 0.0
H402 H 0.64921 0.97637 0.11606 0.0
C403 C 0.64272 0.98573 0.13536 0.0
H404 H 0.62688 0.98907 0.12872 0.0
H405 H 0.64451 0.03841 0.16919 0.0
O406 O 0.62305 0.94982 0.28334 0.0
C407 C 0.63523 0.01454 0.26531 0.0
Co408 Co 0.783 0.13677 -0.0006 0.0
Co409 Co 0.74772 0.13895 0.04779 0.0
C410 C 0.76785 0.17669 0.02002 0.0
O411 O 0.78086 0.16663 0.00421 0.0
O412 O 0.75446 0.16762 0.03659 0.0
C413 C 0.81166 0.14212 0.94952 0.0
O414 O 0.79977 0.1573 0.9412 0.0
C415 C 0.73832 0.15101 0.11069 0.0
C416 C 0.70946 0.13542 0.12204 0.0
C417 C 0.72477 0.14735 0.13523 0.0
N418 N 0.73149 0.14156 0.08464 0.0
N419 N 0.71397 0.13262 0.09122 0.0
C420 C 0.75894 0.16081 0.11265 0.0
H421 H 0.76828 0.15723 0.09158 0.0
H422 H 0.76719 0.15565 0.13412 0.0
H423 H 0.75709 0.17758 0.11382 0.0
C424 C 0.80222 0.1127 0.05123 0.0
N425 N 0.78672 0.12361 0.03888 0.0
N426 N 0.77129 0.12337 0.05864 0.0
C427 C 0.77627 0.11177 0.08389 0.0
C428 C 0.79615 0.10485 0.08031 0.0
C429 C 0.8226 0.11045 0.03578 0.0
H430 H 0.82744 0.12527 0.02567 0.0
H431 H 0.83431 0.1051 0.05278 0.0
H432 H 0.82135 0.09934 0.0161 0.0
O433 O 0.75843 0.12549 0.97697 0.0
O434 O 0.73314 0.12581 0.01205 0.0
H435 H 0.76572 0.09045 0.11908 0.0
H436 H 0.76264 0.11679 0.12919 0.0
C437 C 0.76174 0.10568 0.10951 0.0
H438 H 0.74595 0.10524 0.1003 0.0
H439 H 0.70576 0.12367 0.07528 0.0
O440 O 0.80701 0.13131 0.97332 0.0
C441 C 0.73993 0.12173 0.98446 0.0
Co442 Co 0.61964 0.0333 0.74625 0.0
Co443 Co 0.61883 0.99913 0.797 0.0
C444 C 0.58041 0.01784 0.76774 0.0
O445 O 0.59003 0.03108 0.75175 0.0
O446 O 0.58992 0.00483 0.78452 0.0
C447 C 0.61329 0.06263 0.6968 0.0
O448 O 0.59595 0.05315 0.69191 0.0
C449 C 0.60729 0.99329 0.86136 0.0
C450 C 0.62571 0.96729 0.87781 0.0
C451 C 0.61299 0.98277 0.88831 0.0
N452 N 0.61675 0.985 0.83631 0.0
N453 N 0.62734 0.96908 0.84608 0.0
C454 C 0.59371 0.01161 0.85938 0.0
H455 H 0.58181 0.00903 0.84127 0.0
H456 H 0.60274 0.02509 0.85214 0.0
H457 H 0.5859 0.01473 0.88212 0.0
C458 C 0.64352 0.05441 0.79658 0.0
N459 N 0.63293 0.03837 0.78517 0.0
N460 N 0.63395 0.0233 0.80549 0.0
C461 C 0.64601 0.02894 0.82984 0.0
C462 C 0.65208 0.04898 0.82548 0.0
C463 C 0.645 0.07458 0.78033 0.0
H464 H 0.65661 0.07359 0.76131 0.0
H465 H 0.63017 0.07848 0.7693 0.0
H466 H 0.64946 0.08679 0.7971 0.0
O467 O 0.63048 0.00789 0.72564 0.0
O468 O 0.63253 0.98366 0.76253 0.0
H469 H 0.65504 0.99907 0.84506 0.0
H470 H 0.66924 0.01959 0.8629 0.0
C471 C 0.65395 0.01473 0.85462 0.0
H472 H 0.64358 0.01482 0.87521 0.0
H473 H 0.63682 0.96041 0.83156 0.0
O474 O 0.62531 0.05633 0.71818 0.0
C475 C 0.63525 0.98984 0.73417 0.0
Co476 Co 0.72248 0.86953 0.49625 0.0
Co477 Co 0.75668 0.8666 0.54729 0.0
C478 C 0.73741 0.82922 0.51826 0.0
O479 O 0.72488 0.83957 0.5019 0.0
O480 O 0.75046 0.83797 0.53586 0.0
C481 C 0.69494 0.86265 0.44512 0.0
O482 O 0.70685 0.84706 0.43905 0.0
C483 C 0.77053 0.85308 0.60882 0.0
C484 C 0.78994 0.87852 0.62453 0.0
C485 C 0.78002 0.8612 0.63533 0.0
N486 N 0.77358 0.86567 0.58421 0.0
N487 N 0.78594 0.8804 0.59338 0.0
C488 C 0.75726 0.83455 0.60733 0.0
H489 H 0.74142 0.83905 0.60137 0.0
H490 H 0.75755 0.8258 0.62977 0.0
H491 H 0.76292 0.82443 0.58836 0.0
C492 C 0.70311 0.89558 0.54549 0.0
N493 N 0.71818 0.88324 0.53519 0.0
N494 N 0.73228 0.88174 0.55718 0.0
C495 C 0.72634 0.89285 0.58251 0.0
C496 C 0.70774 0.90216 0.57597 0.0
C497 C 0.68553 0.90213 0.52537 0.0
H498 H 0.69114 0.90661 0.50162 0.0
H499 H 0.67493 0.88911 0.5223 0.0
H500 H 0.6772 0.91515 0.53593 0.0
O501 O 0.74709 0.88075 0.47484 0.0
O502 O 0.77156 0.8797 0.51122 0.0
H503 H 0.75215 0.90173 0.6101 0.0
H504 H 0.72866 0.90077 0.63241 0.0
C505 C 0.73755 0.8935 0.61326 0.0
H506 H 0.74063 0.87779 0.62084 0.0
H507 H 0.79006 0.89276 0.57923 0.0
O508 O 0.69897 0.87417 0.46844 0.0
C509 C 0.76543 0.88413 0.48336 0.0
Co510 Co 0.88708 0.97085 0.246 0.0
Co511 Co 0.88749 0.00516 0.29657 0.0
C512 C 0.92617 0.98744 0.26712 0.0
O513 O 0.91671 0.9743 0.25068 0.0
O514 O 0.9165 0.99999 0.28447 0.0
C515 C 0.89377 0.94196 0.19579 0.0
O516 O 0.91002 0.95282 0.18904 0.0
C517 C 0.89857 0.0126 0.36077 0.0
C518 C 0.87838 0.03757 0.37597 0.0
C519 C 0.89186 0.02301 0.38729 0.0
N520 N 0.88887 0.01997 0.33527 0.0
N521 N 0.87725 0.03535 0.34427 0.0
C522 C 0.91328 0.99515 0.35955 0.0
H523 H 0.92501 0.99819 0.34136 0.0
H524 H 0.9051 0.98102 0.35279 0.0
H525 H 0.92125 0.99293 0.38241 0.0
C526 C 0.86421 0.94924 0.2968 0.0
N527 N 0.87444 0.96549 0.28535 0.0
N528 N 0.8728 0.98068 0.30538 0.0
C529 C 0.8605 0.97491 0.32939 0.0
C530 C 0.85501 0.95471 0.3251 0.0
C531 C 0.86227 0.92932 0.27998 0.0
H532 H 0.85211 0.9313 0.25922 0.0
H533 H 0.87743 0.92442 0.2712 0.0
H534 H 0.85578 0.91741 0.29564 0.0
O535 O 0.87454 0.99556 0.22557 0.0
O536 O 0.87367 0.02013 0.26187 0.0
H537 H 0.85115 0.00435 0.34588 0.0
H538 H 0.83827 0.98337 0.36477 0.0
C539 C 0.85303 0.98867 0.35506 0.0
H540 H 0.86417 0.98873 0.37465 0.0
H541 H 0.86738 0.04322 0.32927 0.0
O542 O 0.88227 0.94733 0.21844 0.0
C543 C 0.86989 0.01369 0.23396 0.0
Co544 Co 0.72301 0.63649 0.49416 0.0
Co545 Co 0.75682 0.63785 0.545 0.0
C546 C 0.73726 0.67604 0.51757 0.0
O547 O 0.72472 0.66625 0.50045 0.0
O548 O 0.75021 0.66671 0.53462 0.0
C549 C 0.68421 0.64028 0.46123 0.0
O550 O 0.67878 0.65382 0.48246 0.0
C551 C 0.76506 0.64836 0.60929 0.0
C552 C 0.79404 0.63285 0.62018 0.0
C553 C 0.77845 0.64415 0.63387 0.0
N554 N 0.77225 0.63974 0.58278 0.0
N555 N 0.78983 0.63088 0.58913 0.0
C556 C 0.7444 0.65804 0.61133 0.0
H557 H 0.73539 0.65511 0.58966 0.0
H558 H 0.73591 0.65219 0.63214 0.0
H559 H 0.7462 0.67475 0.61387 0.0
C560 C 0.70228 0.61121 0.54407 0.0
N561 N 0.71799 0.62239 0.53286 0.0
N562 N 0.73297 0.62195 0.5535 0.0
C563 C 0.72751 0.60998 0.57807 0.0
C564 C 0.70774 0.60306 0.57332 0.0
C565 C 0.68223 0.60916 0.52752 0.0
H566 H 0.68459 0.60194 0.50408 0.0
H567 H 0.67576 0.62452 0.52358 0.0
H568 H 0.6711 0.60017 0.54141 0.0
O569 O 0.74847 0.62596 0.47356 0.0
O570 O 0.77278 0.62542 0.51009 0.0
H571 H 0.75757 0.60329 0.59555 0.0
H572 H 0.73758 0.58788 0.61243 0.0
C573 C 0.7416 0.60338 0.604 0.0
H574 H 0.7402 0.61395 0.62431 0.0
H575 H 0.79832 0.62255 0.57276 0.0
O576 O 0.70137 0.63144 0.46315 0.0
C577 C 0.76674 0.622 0.48191 0.0
Co578 Co 0.61954 0.4702 0.74389 0.0
Co579 Co 0.61921 0.50438 0.79447 0.0
C580 C 0.58049 0.48619 0.76594 0.0
O581 O 0.59 0.47297 0.74982 0.0
O582 O 0.59012 0.49911 0.78265 0.0
C583 C 0.61421 0.43149 0.71237 0.0
O584 O 0.60143 0.42663 0.73503 0.0
C585 C 0.60804 0.50972 0.85912 0.0
C586 C 0.62636 0.53572 0.87583 0.0
C587 C 0.61376 0.5201 0.88619 0.0
N588 N 0.61739 0.51821 0.83412 0.0
N589 N 0.62792 0.53413 0.84406 0.0
C590 C 0.5945 0.49136 0.85697 0.0
H591 H 0.60348 0.47801 0.84902 0.0
H592 H 0.58698 0.4879 0.87982 0.0
H593 H 0.58237 0.49414 0.83932 0.0
C594 C 0.64433 0.44887 0.79357 0.0
N595 N 0.6333 0.46469 0.78234 0.0
N596 N 0.63436 0.47989 0.80251 0.0
C597 C 0.64666 0.47445 0.82668 0.0
C598 C 0.65296 0.45449 0.82235 0.0
C599 C 0.64623 0.42876 0.77722 0.0
H600 H 0.65189 0.43114 0.75277 0.0
H601 H 0.63098 0.42159 0.77574 0.0
H602 H 0.65657 0.41824 0.78997 0.0
O603 O 0.63119 0.49533 0.72427 0.0
O604 O 0.63266 0.52027 0.7598 0.0
H605 H 0.65561 0.50441 0.8416 0.0
H606 H 0.67002 0.48402 0.85937 0.0
C607 C 0.65465 0.48877 0.85126 0.0
H608 H 0.64442 0.48862 0.87202 0.0
H609 H 0.63729 0.54297 0.8296 0.0
O610 O 0.62349 0.44845 0.71287 0.0
C611 C 0.63595 0.51354 0.73186 0.0
Co612 Co 0.78558 0.3695 0.99537 0.0
Co613 Co 0.75132 0.36793 0.0463 0.0
C614 C 0.76995 0.32983 0.01804 0.0
O615 O 0.78283 0.33973 0.00169 0.0
O616 O 0.75698 0.33904 0.0352 0.0
C617 C 0.81251 0.36233 0.94366 0.0
O618 O 0.79979 0.34751 0.93685 0.0
C619 C 0.73792 0.35499 0.10825 0.0
C620 C 0.71857 0.38049 0.12384 0.0
C621 C 0.72861 0.36328 0.13477 0.0
N622 N 0.73462 0.36736 0.08344 0.0
N623 N 0.7223 0.38214 0.09257 0.0
C624 C 0.75126 0.33651 0.10688 0.0
H625 H 0.74543 0.32614 0.08834 0.0
H626 H 0.76701 0.34103 0.10037 0.0
H627 H 0.75128 0.328 0.12953 0.0
C628 C 0.80555 0.39558 0.04396 0.0
N629 N 0.79016 0.38354 0.03394 0.0
N630 N 0.77596 0.38275 0.05584 0.0
C631 C 0.78207 0.39415 0.08075 0.0
C632 C 0.80097 0.40279 0.0741 0.0
C633 C 0.82346 0.40123 0.02389 0.0
H634 H 0.81808 0.40603 0.00016 0.0
H635 H 0.83334 0.38768 0.02075 0.0
H636 H 0.83246 0.41379 0.03449 0.0
O637 O 0.76106 0.38068 0.9736 0.0
O638 O 0.73668 0.38116 0.01013 0.0
H639 H 0.75605 0.40399 0.10704 0.0
H640 H 0.77933 0.40374 0.12992 0.0
C641 C 0.7706 0.39586 0.11117 0.0
H642 H 0.76739 0.38044 0.11994 0.0
H643 H 0.71804 0.39437 0.07827 0.0
O644 O 0.80914 0.37353 0.96757 0.0
C645 C 0.74285 0.3848 0.98202 0.0
Co646 Co 0.88843 0.53431 0.24466 0.0
Co647 Co 0.88881 0.50023 0.29568 0.0
C648 C 0.92746 0.51851 0.26653 0.0
O649 O 0.91805 0.53174 0.25018 0.0
O650 O 0.91775 0.50573 0.28343 0.0
C651 C 0.89407 0.56304 0.19358 0.0
O652 O 0.91063 0.55274 0.18662 0.0
C653 C 0.89983 0.4943 0.36033 0.0
C654 C 0.88107 0.46841 0.37628 0.0
C655 C 0.89377 0.48382 0.38714 0.0
N656 N 0.89058 0.48608 0.33503 0.0
N657 N 0.8798 0.47021 0.34452 0.0
C658 C 0.91354 0.51254 0.35872 0.0
H659 H 0.90454 0.52618 0.3521 0.0
H660 H 0.92149 0.51529 0.38147 0.0
H661 H 0.92528 0.51016 0.34033 0.0
C662 C 0.86481 0.55576 0.29505 0.0
N663 N 0.8752 0.5396 0.28365 0.0
N664 N 0.87392 0.52453 0.30395 0.0
C665 C 0.86188 0.5303 0.32823 0.0
C666 C 0.85612 0.55043 0.3239 0.0
C667 C 0.86359 0.57596 0.27882 0.0
H668 H 0.85182 0.57517 0.26003 0.0
H669 H 0.87841 0.5796 0.26756 0.0
H670 H 0.85948 0.58824 0.29568 0.0
O671 O 0.87722 0.50899 0.22418 0.0
O672 O 0.87511 0.48483 0.26116 0.0
H673 H 0.85245 0.50049 0.3432 0.0
H674 H 0.83824 0.52112 0.36067 0.0
C675 C 0.85358 0.51614 0.35278 0.0
H676 H 0.86372 0.51616 0.37366 0.0
H677 H 0.8704 0.4616 0.32976 0.0
O678 O 0.88296 0.5574 0.21654 0.0
C679 C 0.87233 0.49097 0.23279 0.0
Co680 Co 0.71996 0.36774 0.50209 0.0
Co681 Co 0.75479 0.36845 0.45245 0.0
C682 C 0.73711 0.32924 0.48043 0.0
O683 O 0.72338 0.3383 0.49621 0.0
O684 O 0.74999 0.33928 0.46418 0.0
C685 C 0.69097 0.35983 0.55144 0.0
O686 O 0.70177 0.34337 0.55691 0.0
C687 C 0.76185 0.35755 0.38825 0.0
C688 C 0.78693 0.37746 0.37258 0.0
C689 C 0.77217 0.36408 0.36158 0.0
N690 N 0.76951 0.36718 0.41362 0.0
N691 N 0.78493 0.37865 0.40433 0.0
C692 C 0.74421 0.34305 0.38968 0.0
H693 H 0.74748 0.33095 0.40717 0.0
H694 H 0.73032 0.35123 0.39749 0.0
H695 H 0.74139 0.33554 0.3666 0.0
C696 C 0.69857 0.39102 0.45109 0.0
N697 N 0.71484 0.38105 0.46309 0.0
N698 N 0.73019 0.38274 0.44337 0.0
C699 C 0.72449 0.39466 0.41891 0.0
C700 C 0.70413 0.39986 0.42242 0.0
C701 C 0.67812 0.39173 0.46661 0.0
H702 H 0.6784 0.40333 0.4857 0.0
H703 H 0.67462 0.37676 0.4775 0.0
H704 H 0.66599 0.39575 0.44941 0.0
O705 O 0.74471 0.37948 0.52369 0.0
O706 O 0.7693 0.38248 0.48753 0.0
H707 H 0.75425 0.40518 0.40551 0.0
H708 H 0.73349 0.41867 0.38701 0.0
C709 C 0.73885 0.40351 0.39511 0.0
H710 H 0.73964 0.39343 0.37422 0.0
H711 H 0.793 0.38847 0.41916 0.0
O712 O 0.69637 0.37202 0.52969 0.0
C713 C 0.76269 0.38492 0.5157 0.0
Co714 Co 0.88361 0.47375 0.75235 0.0
Co715 Co 0.88583 0.50765 0.70105 0.0
C716 C 0.92365 0.48913 0.72987 0.0
O717 O 0.91353 0.47636 0.74611 0.0
O718 O 0.91462 0.50212 0.71254 0.0
C719 C 0.88663 0.43329 0.77913 0.0
O720 O 0.89576 0.42783 0.75282 0.0
C721 C 0.89941 0.52126 0.6393 0.0
C722 C 0.87363 0.53995 0.62283 0.0
C723 C 0.89126 0.53037 0.61249 0.0
N724 N 0.88658 0.5242 0.66367 0.0
N725 N 0.87162 0.53614 0.65402 0.0
C726 C 0.91823 0.50843 0.64127 0.0
H727 H 0.92822 0.51455 0.66011 0.0
H728 H 0.91406 0.49258 0.64768 0.0
H729 H 0.92701 0.50861 0.61886 0.0
C730 C 0.85642 0.45416 0.70402 0.0
N731 N 0.86928 0.46895 0.71392 0.0
N732 N 0.87103 0.4828 0.69158 0.0
C733 C 0.85992 0.47676 0.66631 0.0
C734 C 0.85008 0.45855 0.67335 0.0
C735 C 0.84869 0.4373 0.7246 0.0
H736 H 0.8479 0.44238 0.74956 0.0
H737 H 0.85922 0.42414 0.72295 0.0
H738 H 0.83334 0.43225 0.7169 0.0
O739 O 0.87231 0.49828 0.77323 0.0
O740 O 0.87239 0.52275 0.73694 0.0
H741 H 0.85128 0.50185 0.637 0.0
H742 H 0.85327 0.47797 0.61591 0.0
C743 C 0.85988 0.48739 0.63505 0.0
H744 H 0.87572 0.4906 0.62828 0.0
H745 H 0.85908 0.54009 0.66789 0.0
O746 O 0.88011 0.45137 0.78247 0.0
C747 C 0.86834 0.51649 0.76488 0.0
Co748 Co 0.78006 0.63692 0.00409 0.0
Co749 Co 0.7472 0.63668 0.95164 0.0
C750 C 0.76588 0.67568 0.97917 0.0
O751 O 0.77851 0.66627 0.99654 0.0
O752 O 0.7531 0.66595 0.96228 0.0
C753 C 0.81858 0.64111 0.03634 0.0
O754 O 0.82391 0.6533 0.01316 0.0
C755 C 0.74484 0.64488 0.88555 0.0
C756 C 0.71473 0.63375 0.87017 0.0
C757 C 0.73285 0.64198 0.8591 0.0
N758 N 0.7346 0.63836 0.9111 0.0
N759 N 0.71642 0.63201 0.90193 0.0
C760 C 0.76605 0.65337 0.88638 0.0
H761 H 0.77719 0.64121 0.88086 0.0
H762 H 0.76778 0.66555 0.86836 0.0
H763 H 0.76978 0.65945 0.91008 0.0
C764 C 0.8021 0.61111 0.95581 0.0
N765 N 0.78615 0.62223 0.96641 0.0
N766 N 0.77096 0.62026 0.94637 0.0
C767 C 0.77622 0.60669 0.92384 0.0
C768 C 0.79631 0.601 0.92837 0.0
C769 C 0.82219 0.60936 0.97224 0.0
H770 H 0.81973 0.60547 0.99747 0.0
H771 H 0.83019 0.6242 0.97105 0.0
H772 H 0.83192 0.59753 0.96113 0.0
O773 O 0.75377 0.62686 0.0232 0.0
O774 O 0.7302 0.62434 0.98538 0.0
H775 H 0.74589 0.60072 0.90651 0.0
H776 H 0.76441 0.58147 0.8971 0.0
C777 C 0.76195 0.59809 0.89967 0.0
H778 H 0.76507 0.60508 0.87642 0.0
H779 H 0.70552 0.62577 0.91708 0.0
O780 O 0.80118 0.63263 0.03617 0.0
C781 C 0.7358 0.62214 0.01411 0.0
Co782 Co 0.61723 0.53257 0.25166 0.0
Co783 Co 0.615 0.49815 0.20092 0.0
C784 C 0.57724 0.51707 0.23 0.0
O785 O 0.58737 0.52994 0.24604 0.0
O786 O 0.58621 0.50401 0.21269 0.0
C787 C 0.61065 0.56156 0.30181 0.0
O788 O 0.59428 0.55085 0.30835 0.0
C789 C 0.60163 0.48464 0.1391 0.0
C790 C 0.62713 0.46535 0.12331 0.0
C791 C 0.60989 0.4754 0.11245 0.0
N792 N 0.61409 0.48135 0.16382 0.0
N793 N 0.62886 0.46905 0.15458 0.0
C794 C 0.58305 0.49784 0.14071 0.0
H795 H 0.58754 0.51369 0.14662 0.0
H796 H 0.57426 0.49752 0.11831 0.0
H797 H 0.57298 0.49218 0.15976 0.0
C798 C 0.64285 0.55227 0.2023 0.0
N799 N 0.63091 0.53692 0.21272 0.0
N800 N 0.62977 0.52273 0.19085 0.0
C801 C 0.64079 0.52885 0.16552 0.0
C802 C 0.64956 0.54772 0.17189 0.0
C803 C 0.64893 0.57009 0.22224 0.0
H804 H 0.65428 0.56459 0.24562 0.0
H805 H 0.63544 0.57994 0.22621 0.0
H806 H 0.66126 0.57914 0.21113 0.0
O807 O 0.62834 0.50805 0.27335 0.0
O808 O 0.62855 0.48354 0.23704 0.0
H809 H 0.64993 0.50287 0.13858 0.0
H810 H 0.64954 0.52622 0.11595 0.0
C811 C 0.64188 0.51751 0.13493 0.0
H812 H 0.62627 0.51454 0.12674 0.0
H813 H 0.64115 0.46481 0.16877 0.0
O814 O 0.6221 0.55619 0.27908 0.0
C815 C 0.63234 0.4898 0.26507 0.0
Co816 Co 0.27993 0.36778 0.50619 0.0
Co817 Co 0.24642 0.36666 0.45476 0.0
C818 C 0.26596 0.32836 0.48202 0.0
O819 O 0.27852 0.33814 0.49911 0.0
O820 O 0.25289 0.33771 0.46522 0.0
C821 C 0.319 0.36429 0.53791 0.0
O822 O 0.32446 0.35164 0.51539 0.0
C823 C 0.23923 0.35579 0.39031 0.0
C824 C 0.21059 0.37139 0.37775 0.0
C825 C 0.22639 0.35991 0.365 0.0
N826 N 0.23156 0.36464 0.41634 0.0
N827 N 0.21417 0.37356 0.40897 0.0
C828 C 0.25989 0.34603 0.38941 0.0
H829 H 0.26857 0.34926 0.4113 0.0
H830 H 0.26874 0.35155 0.36876 0.0
H831 H 0.25808 0.32929 0.38742 0.0
C832 C 0.30071 0.39381 0.457 0.0
N833 N 0.28505 0.38239 0.4679 0.0
N834 N 0.27028 0.3826 0.44687 0.0
C835 C 0.27587 0.39451 0.42233 0.0
C836 C 0.29546 0.40167 0.42752 0.0
C837 C 0.32053 0.39646 0.47398 0.0
H838 H 0.31763 0.40149 0.49862 0.0
H839 H 0.32853 0.38162 0.47485 0.0
H840 H 0.33059 0.40761 0.46201 0.0
O841 O 0.25423 0.37767 0.52675 0.0
O842 O 0.23036 0.37942 0.48944 0.0
H843 H 0.26636 0.41604 0.38674 0.0
H844 H 0.26384 0.38981 0.37583 0.0
C845 C 0.26217 0.4007 0.39567 0.0
H846 H 0.24609 0.40099 0.40358 0.0
H847 H 0.20541 0.38206 0.42476 0.0
O848 O 0.30154 0.3726 0.53733 0.0
C849 C 0.23617 0.38209 0.51796 0.0
Co850 Co 0.38477 0.53251 0.25426 0.0
Co851 Co 0.38538 0.4972 0.20533 0.0
C852 C 0.42396 0.51605 0.23336 0.0
O853 O 0.41443 0.52949 0.24907 0.0
O854 O 0.41435 0.50292 0.21699 0.0
C855 C 0.3924 0.56353 0.30069 0.0
O856 O 0.41004 0.55446 0.30476 0.0
C857 C 0.39667 0.4893 0.14152 0.0
C858 C 0.37648 0.46434 0.12625 0.0
C859 C 0.39001 0.47889 0.11498 0.0
N860 N 0.38693 0.48195 0.167 0.0
N861 N 0.37532 0.46657 0.15797 0.0
C862 C 0.41142 0.50673 0.14276 0.0
H863 H 0.40343 0.52073 0.15064 0.0
H864 H 0.41892 0.50941 0.11965 0.0
H865 H 0.42354 0.5033 0.16017 0.0
C866 C 0.3614 0.55286 0.2028 0.0
N867 N 0.37179 0.53694 0.21498 0.0
N868 N 0.37052 0.52143 0.19551 0.0
C869 C 0.3585 0.52671 0.17091 0.0
C870 C 0.3527 0.54692 0.17426 0.0
C871 C 0.36016 0.57336 0.21806 0.0
H872 H 0.3486 0.57288 0.23718 0.0
H873 H 0.37507 0.57734 0.22879 0.0
H874 H 0.3558 0.58528 0.20072 0.0
O875 O 0.37281 0.50799 0.27593 0.0
O876 O 0.37187 0.48267 0.2409 0.0
H877 H 0.3486 0.49674 0.1577 0.0
H878 H 0.33505 0.51711 0.13836 0.0
C879 C 0.35018 0.51206 0.14707 0.0
H880 H 0.36059 0.51128 0.12656 0.0
H881 H 0.36536 0.45876 0.1729 0.0
O882 O 0.37969 0.55636 0.28098 0.0
C883 C 0.36829 0.48964 0.26858 0.0
Co884 Co 0.22225 0.63649 0.00137 0.0
Co885 Co 0.25716 0.63701 0.95194 0.0
C886 C 0.23931 0.6756 0.98114 0.0
O887 O 0.22588 0.66611 0.99696 0.0
O888 O 0.2521 0.66599 0.96414 0.0
C889 C 0.19193 0.64402 0.04892 0.0
O890 O 0.20156 0.6613 0.05359 0.0
C891 C 0.26585 0.64844 0.88849 0.0
C892 C 0.29032 0.62753 0.87361 0.0
C893 C 0.2763 0.64154 0.86215 0.0
N894 N 0.27265 0.63837 0.914 0.0
N895 N 0.28776 0.62634 0.90524 0.0
C896 C 0.24887 0.6637 0.88951 0.0
H897 H 0.2345 0.65605 0.89654 0.0
H898 H 0.24683 0.67157 0.86652 0.0
H899 H 0.25236 0.67547 0.90744 0.0
C900 C 0.20098 0.61429 0.9495 0.0
N901 N 0.21725 0.62412 0.96171 0.0
N902 N 0.23256 0.6228 0.94187 0.0
C903 C 0.2268 0.61125 0.91697 0.0
C904 C 0.20646 0.60586 0.92053 0.0
C905 C 0.18056 0.61335 0.96515 0.0
H906 H 0.18088 0.60145 0.98377 0.0
H907 H 0.1771 0.62815 0.97658 0.0
H908 H 0.16837 0.60965 0.9479 0.0
O909 O 0.24666 0.62391 0.0226 0.0
O910 O 0.27157 0.62295 0.98689 0.0
H911 H 0.25646 0.60082 0.90305 0.0
H912 H 0.23564 0.58799 0.88363 0.0
C913 C 0.2411 0.60288 0.89269 0.0
H914 H 0.24203 0.61352 0.8725 0.0
H915 H 0.29511 0.61609 0.92027 0.0
O916 O 0.1985 0.63157 0.02836 0.0
C917 C 0.26486 0.61921 0.01465 0.0
Co918 Co 0.1171 0.47353 0.75504 0.0
Co919 Co 0.1148 0.50603 0.70168 0.0
C920 C 0.07701 0.48807 0.73135 0.0
O921 O 0.08719 0.47575 0.74835 0.0
O922 O 0.08596 0.50075 0.71334 0.0
C923 C 0.11499 0.43366 0.78461 0.0
O924 O 0.10579 0.4272 0.75891 0.0
C925 C 0.10171 0.51906 0.63921 0.0
C926 C 0.12808 0.53693 0.62271 0.0
C927 C 0.11029 0.52766 0.61231 0.0
N928 N 0.11446 0.52194 0.6637 0.0
N929 N 0.12978 0.53341 0.65401 0.0
C930 C 0.08246 0.50689 0.64133 0.0
H931 H 0.07276 0.51333 0.66027 0.0
H932 H 0.08608 0.49091 0.64774 0.0
H933 H 0.07365 0.50737 0.61895 0.0
C934 C 0.14418 0.45274 0.70756 0.0
N935 N 0.13149 0.46784 0.71685 0.0
N936 N 0.12939 0.48097 0.69355 0.0
C937 C 0.13997 0.47409 0.66828 0.0
C938 C 0.14995 0.45613 0.67631 0.0
C939 C 0.15215 0.43644 0.72897 0.0
H940 H 0.15311 0.44213 0.75361 0.0
H941 H 0.14169 0.42318 0.72827 0.0
H942 H 0.16746 0.4313 0.72126 0.0
O943 O 0.12796 0.49869 0.77468 0.0
O944 O 0.12849 0.52188 0.73648 0.0
H945 H 0.14777 0.49789 0.63595 0.0
H946 H 0.14503 0.47324 0.61742 0.0
C947 C 0.13905 0.48344 0.63608 0.0
H948 H 0.12302 0.48646 0.6302 0.0
H949 H 0.14231 0.53722 0.668 0.0
O950 O 0.12102 0.45199 0.78657 0.0
C951 C 0.13217 0.51657 0.76499 0.0
Co952 Co 0.28431 0.63711 0.49742 0.0
Co953 Co 0.24937 0.63766 0.54674 0.0
C954 C 0.2675 0.67626 0.5181 0.0
O955 O 0.28088 0.66678 0.50217 0.0
O956 O 0.25466 0.66662 0.53495 0.0
C957 C 0.31224 0.64331 0.4466 0.0
O958 O 0.29968 0.65791 0.43815 0.0
C959 C 0.24079 0.6488 0.61031 0.0
C960 C 0.21599 0.62819 0.6249 0.0
C961 C 0.23021 0.64193 0.63654 0.0
N962 N 0.23386 0.63896 0.58467 0.0
N963 N 0.21855 0.62711 0.59326 0.0
C964 C 0.25804 0.66377 0.60953 0.0
H965 H 0.27228 0.65593 0.60233 0.0
H966 H 0.26024 0.67143 0.63264 0.0
H967 H 0.25474 0.67572 0.59181 0.0
C968 C 0.30512 0.61388 0.54873 0.0
N969 N 0.28911 0.62429 0.53682 0.0
N970 N 0.27376 0.62309 0.55661 0.0
C971 C 0.27922 0.6111 0.58115 0.0
C972 C 0.2994 0.60524 0.57744 0.0
C973 C 0.32547 0.61252 0.53297 0.0
H974 H 0.3246 0.60132 0.51336 0.0
H975 H 0.3296 0.62752 0.52275 0.0
H976 H 0.33748 0.60769 0.54985 0.0
O977 O 0.25987 0.62475 0.47583 0.0
O978 O 0.23496 0.62392 0.51157 0.0
H979 H 0.24935 0.60104 0.59468 0.0
H980 H 0.26988 0.58777 0.6141 0.0
C981 C 0.2647 0.6028 0.6052 0.0
H982 H 0.26387 0.61333 0.62554 0.0
H983 H 0.21105 0.61707 0.57809 0.0
O984 O 0.30823 0.63257 0.47075 0.0
C985 C 0.24164 0.62018 0.4838 0.0
Co986 Co 0.12019 0.5338 0.24596 0.0
Co987 Co 0.11881 0.49896 0.29564 0.0
C988 C 0.0807 0.51807 0.26656 0.0
O989 O 0.09053 0.53125 0.25078 0.0
O990 O 0.08999 0.50496 0.28339 0.0
C991 C 0.11431 0.56206 0.1955 0.0
O992 O 0.09901 0.5502 0.18763 0.0
C993 C 0.10693 0.49264 0.35958 0.0
C994 C 0.1256 0.46689 0.37625 0.0
C995 C 0.11265 0.48222 0.38661 0.0
N996 N 0.11658 0.48446 0.33462 0.0
N997 N 0.12731 0.46866 0.34451 0.0
C998 C 0.09318 0.51083 0.35745 0.0
H999 H 0.10192 0.52421 0.34896 0.0
H1000 H 0.08583 0.51439 0.38039 0.0
H1001 H 0.0809 0.50773 0.34017 0.0
C1002 C 0.14392 0.55411 0.29698 0.0
N1003 N 0.13315 0.53835 0.28516 0.0
N1004 N 0.13411 0.52296 0.30491 0.0
C1005 C 0.14631 0.52815 0.32934 0.0
C1006 C 0.15256 0.54819 0.32558 0.0
C1007 C 0.14557 0.57447 0.28131 0.0
H1008 H 0.15683 0.5735 0.26179 0.0
H1009 H 0.13064 0.57878 0.271 0.0
H1010 H 0.15051 0.58638 0.29827 0.0
O1011 O 0.13175 0.5089 0.22493 0.0
O1012 O 0.13229 0.48385 0.26052 0.0
H1013 H 0.15539 0.49801 0.34308 0.0
H1014 H 0.16964 0.51817 0.36181 0.0
C1015 C 0.15432 0.51347 0.35339 0.0
H1016 H 0.144 0.51314 0.37403 0.0
H1017 H 0.13699 0.46013 0.33011 0.0
O1018 O 0.12538 0.55747 0.21905 0.0
C1019 C 0.13599 0.49056 0.23269 0.0
Co1020 Co 0.22331 0.36837 0.99601 0.0
Co1021 Co 0.2574 0.36725 0.04704 0.0
C1022 C 0.23836 0.32898 0.01798 0.0
O1023 O 0.2254 0.33871 0.00159 0.0
O1024 O 0.25131 0.33838 0.035 0.0
C1025 C 0.19558 0.3625 0.94433 0.0
O1026 O 0.20632 0.34605 0.93853 0.0
C1027 C 0.26053 0.35764 0.11272 0.0
C1028 C 0.28949 0.37111 0.12875 0.0
C1029 C 0.27198 0.36148 0.13948 0.0
N1030 N 0.27042 0.36501 0.08735 0.0
N1031 N 0.28798 0.37272 0.09694 0.0
C1032 C 0.23977 0.34809 0.11165 0.0
H1033 H 0.22794 0.36002 0.11401 0.0
H1034 H 0.23785 0.33711 0.13141 0.0
H1035 H 0.23724 0.34019 0.08892 0.0
C1036 C 0.20247 0.39273 0.0463 0.0
N1037 N 0.21822 0.38179 0.03475 0.0
N1038 N 0.23369 0.38324 0.05426 0.0
C1039 C 0.22876 0.39614 0.07783 0.0
C1040 C 0.20859 0.40205 0.07433 0.0
C1041 C 0.182 0.394 0.03088 0.0
H1042 H 0.18235 0.4061 0.01257 0.0
H1043 H 0.17831 0.37935 0.01912 0.0
H1044 H 0.16998 0.39774 0.0484 0.0
O1045 O 0.24899 0.37941 0.97627 0.0
O1046 O 0.27362 0.38009 0.01262 0.0
H1047 H 0.25942 0.40468 0.09014 0.0
H1048 H 0.23983 0.42136 0.10548 0.0
C1049 C 0.24385 0.40529 0.10027 0.0
H1050 H 0.24366 0.39687 0.12285 0.0
H1051 H 0.29837 0.38004 0.08211 0.0
O1052 O 0.20049 0.37396 0.9673 0.0
C1053 C 0.2673 0.38355 0.98449 0.0
Co1054 Co 0.38768 0.47219 0.74678 0.0
Co1055 Co 0.3889 0.50645 0.79747 0.0
C1056 C 0.42717 0.48805 0.76777 0.0
O1057 O 0.41744 0.47507 0.75135 0.0
O1058 O 0.41776 0.50077 0.78516 0.0
C1059 C 0.3932 0.44331 0.69602 0.0
O1060 O 0.40971 0.45368 0.68902 0.0
C1061 C 0.39999 0.51344 0.86182 0.0
C1062 C 0.38009 0.53862 0.87712 0.0
C1063 C 0.39324 0.52373 0.88843 0.0
N1064 N 0.3906 0.52116 0.83628 0.0
N1065 N 0.37918 0.53667 0.84536 0.0
C1066 C 0.41444 0.49577 0.86054 0.0
H1067 H 0.40601 0.48173 0.85409 0.0
H1068 H 0.42249 0.49354 0.88334 0.0
H1069 H 0.42609 0.49854 0.84213 0.0
C1070 C 0.36496 0.45078 0.79821 0.0
N1071 N 0.37509 0.46697 0.7863 0.0
N1072 N 0.37403 0.48213 0.80647 0.0
C1073 C 0.36235 0.47637 0.83121 0.0
C1074 C 0.35666 0.45618 0.82731 0.0
C1075 C 0.36361 0.43053 0.78219 0.0
H1076 H 0.35162 0.43121 0.7637 0.0
H1077 H 0.37831 0.42691 0.77053 0.0
H1078 H 0.35973 0.41829 0.79925 0.0
O1079 O 0.37567 0.4972 0.72645 0.0
O1080 O 0.37521 0.5217 0.76287 0.0
H1081 H 0.35271 0.50614 0.84597 0.0
H1082 H 0.33897 0.48546 0.86416 0.0
C1083 C 0.35416 0.49058 0.85577 0.0
H1084 H 0.36452 0.49079 0.87636 0.0
H1085 H 0.36951 0.54478 0.83035 0.0
O1086 O 0.3821 0.4489 0.71902 0.0
C1087 C 0.37135 0.51539 0.73491 0.0
H1088 H 0.13991 0.05754 0.23663 0.0
H1089 H 0.17615 0.11651 0.11109 0.0
H1090 H 0.15294 0.00615 0.17627 0.0
H1091 H 0.21099 0.06317 0.0871 0.0
H1092 H 0.15692 0.09636 0.14983 0.0
H1093 H 0.15611 0.07994 0.19795 0.0
C1094 C 0.14606 0.05096 0.21516 0.0
C1095 C 0.14493 0.02989 0.20971 0.0
C1096 C 0.16889 0.08906 0.13639 0.0
C1097 C 0.16327 0.05558 0.16488 0.0
C1098 C 0.17965 0.1005 0.11404 0.0
C1099 C 0.19517 0.09143 0.09622 0.0
C1100 C 0.17372 0.06838 0.14084 0.0
C1101 C 0.19917 0.07067 0.10064 0.0
C1102 C 0.15513 0.06382 0.19286 0.0
C1103 C 0.1533 0.02228 0.18146 0.0
N1104 N 0.18848 0.05981 0.12249 0.0
N1105 N 0.16223 0.03508 0.16027 0.0
H1106 H 0.18439 0.93485 0.31344 0.0
H1107 H 0.20082 0.90103 0.4942 0.0
H1108 H 0.1451 0.95353 0.38977 0.0
H1109 H 0.24587 0.89188 0.42116 0.0
H1110 H 0.17875 0.91766 0.45538 0.0
H1111 H 0.20557 0.91619 0.35159 0.0
C1112 C 0.18014 0.93484 0.3382 0.0
C1113 C 0.163 0.9457 0.34852 0.0
C1114 C 0.19346 0.912 0.44785 0.0
C1115 C 0.18715 0.92459 0.39231 0.0
C1116 C 0.20608 0.90245 0.47002 0.0
C1117 C 0.22532 0.89507 0.46106 0.0
C1118 C 0.20001 0.91409 0.41635 0.0
C1119 C 0.23124 0.8974 0.42928 0.0
C1120 C 0.19228 0.92432 0.35999 0.0
C1121 C 0.15829 0.94545 0.38091 0.0
N1122 N 0.21865 0.90667 0.40813 0.0
N1123 N 0.17027 0.93507 0.40162 0.0
H1124 H 0.30156 0.89425 0.64119 0.0
H1125 H 0.36518 0.99652 0.6705 0.0
H1126 H 0.32077 0.93401 0.56578 0.0
H1127 H 0.35472 0.95136 0.74293 0.0
H1128 H 0.34834 0.97438 0.63212 0.0
H1129 H 0.32024 0.91542 0.67901 0.0
C1130 C 0.30979 0.90745 0.63263 0.0
C1131 C 0.30965 0.91241 0.60035 0.0
C1132 C 0.34978 0.96927 0.65638 0.0
C1133 C 0.33105 0.93679 0.64349 0.0
C1134 C 0.35937 0.98194 0.6784 0.0
C1135 C 0.36138 0.97586 0.71014 0.0
C1136 C 0.34194 0.95038 0.66609 0.0
C1137 C 0.35356 0.95673 0.71879 0.0
C1138 C 0.3205 0.91949 0.65419 0.0
C1139 C 0.32066 0.92956 0.59044 0.0
N1140 N 0.34413 0.94475 0.69696 0.0
N1141 N 0.33082 0.94121 0.61195 0.0
H1142 H 0.36199 0.05155 0.89029 0.0
H1143 H 0.25975 0.11513 0.91956 0.0
H1144 H 0.32292 0.0718 0.81462 0.0
H1145 H 0.30457 0.10401 0.9923 0.0
H1146 H 0.28215 0.09877 0.88104 0.0
H1147 H 0.34075 0.07008 0.92814 0.0
C1148 C 0.34893 0.05999 0.88167 0.0
C1149 C 0.34417 0.06017 0.84933 0.0
C1150 C 0.28713 0.09997 0.9054 0.0
C1151 C 0.3197 0.08138 0.89251 0.0
C1152 C 0.2743 0.10928 0.92749 0.0
C1153 C 0.28021 0.11094 0.95936 0.0
C1154 C 0.30599 0.09207 0.91516 0.0
C1155 C 0.29933 0.1031 0.96806 0.0
C1156 C 0.33685 0.07061 0.90326 0.0
C1157 C 0.3272 0.07144 0.83935 0.0
N1158 N 0.31145 0.09394 0.94615 0.0
N1159 N 0.31549 0.0815 0.86089 0.0
H1160 H 0.18373 0.93263 0.93598 0.0
H1161 H 0.15054 0.95053 0.75519 0.0
H1162 H 0.20303 0.89413 0.85907 0.0
H1163 H 0.13968 0.99406 0.82985 0.0
H1164 H 0.16725 0.92815 0.79357 0.0
H1165 H 0.16475 0.95372 0.89819 0.0
C1166 C 0.18378 0.92852 0.91117 0.0
C1167 C 0.19491 0.91164 0.90058 0.0
C1168 C 0.16117 0.94259 0.80154 0.0
C1169 C 0.17344 0.93573 0.85716 0.0
C1170 C 0.15158 0.95537 0.77963 0.0
C1171 C 0.14372 0.97429 0.78919 0.0
C1172 C 0.16283 0.94865 0.83335 0.0
C1173 C 0.14557 0.97969 0.82126 0.0
C1174 C 0.17307 0.94062 0.88957 0.0
C1175 C 0.19473 0.90713 0.86813 0.0
N1176 N 0.1549 0.96697 0.84212 0.0
N1177 N 0.18418 0.91908 0.84758 0.0
H1178 H 0.30385 0.90107 0.00596 0.0
H1179 H 0.3212 0.93345 0.18713 0.0
H1180 H 0.2592 0.89103 0.07932 0.0
H1181 H 0.35961 0.95334 0.11045 0.0
H1182 H 0.29988 0.91494 0.14896 0.0
H1183 H 0.32596 0.9176 0.0448 0.0
C1184 C 0.29869 0.90228 0.03022 0.0
C1185 C 0.27955 0.89467 0.03927 0.0
C1186 C 0.31301 0.9233 0.14049 0.0
C1187 C 0.30493 0.91356 0.08402 0.0
C1188 C 0.32523 0.93373 0.16229 0.0
C1189 C 0.34216 0.94489 0.15187 0.0
C1190 C 0.31785 0.92395 0.10808 0.0
C1191 C 0.34659 0.94501 0.1194 0.0
C1192 C 0.31133 0.91177 0.05241 0.0
C1193 C 0.27375 0.89673 0.07114 0.0
N1194 N 0.33455 0.9347 0.09868 0.0
N1195 N 0.28638 0.90594 0.09232 0.0
H1196 H 0.31951 0.06616 0.44043 0.0
H1197 H 0.356 0.05367 0.26 0.0
H1198 H 0.30645 0.1097 0.36694 0.0
H1199 H 0.36329 0.00672 0.3306 0.0
H1200 H 0.33991 0.07535 0.2998 0.0
H1201 H 0.33794 0.04521 0.40166 0.0
C1202 C 0.3208 0.07142 0.41622 0.0
C1203 C 0.31164 0.08973 0.40685 0.0
C1204 C 0.34505 0.06031 0.30661 0.0
C1205 C 0.33234 0.06579 0.3623 0.0
C1206 C 0.35428 0.04791 0.28385 0.0
C1207 C 0.361 0.02826 0.29182 0.0
C1208 C 0.34256 0.05313 0.33771 0.0
C1209 C 0.35831 0.0217 0.32323 0.0
C1210 C 0.33116 0.05941 0.39405 0.0
C1211 C 0.31333 0.09566 0.37507 0.0
N1212 N 0.34932 0.03408 0.34496 0.0
N1213 N 0.32345 0.08376 0.35397 0.0
H1214 H 0.14187 0.05627 0.61485 0.0
H1215 H 0.24653 0.11525 0.58175 0.0
H1216 H 0.18591 0.07001 0.68736 0.0
H1217 H 0.20059 0.10554 0.51019 0.0
H1218 H 0.22425 0.09939 0.62073 0.0
H1219 H 0.16274 0.07481 0.5764 0.0
C1220 C 0.15589 0.06339 0.62268 0.0
C1221 C 0.16212 0.06179 0.65434 0.0
C1222 C 0.21898 0.10077 0.59655 0.0
C1223 C 0.18621 0.08289 0.61044 0.0
C1224 C 0.23173 0.10982 0.57415 0.0
C1225 C 0.22552 0.11172 0.54244 0.0
C1226 C 0.19981 0.09339 0.58734 0.0
C1227 C 0.20608 0.10443 0.53427 0.0
C1228 C 0.16779 0.07397 0.60075 0.0
C1229 C 0.18041 0.0712 0.66329 0.0
N1230 N 0.19398 0.09552 0.55652 0.0
N1231 N 0.19186 0.08127 0.64143 0.0
H1232 H 0.86263 1.00013 0.83084 0.0
H1233 H 0.80732 0.89372 0.86569 0.0
H1234 H 0.85597 0.95244 0.7613 0.0
H1235 H 0.81915 0.93845 0.93793 0.0
H1236 H 0.82535 0.915 0.82731 0.0
H1237 H 0.84695 0.97794 0.87034 0.0
C1238 C 0.85789 0.985 0.8238 0.0
C1239 C 0.86062 0.97822 0.79252 0.0
C1240 C 0.82421 0.92014 0.85158 0.0
C1241 C 0.84258 0.95265 0.83791 0.0
C1242 C 0.81393 0.90799 0.87348 0.0
C1243 C 0.81193 0.91429 0.90503 0.0
C1244 C 0.83242 0.93891 0.86116 0.0
C1245 C 0.82066 0.93291 0.91393 0.0
C1246 C 0.84897 0.9723 0.84647 0.0
C1247 C 0.8542 0.95839 0.78503 0.0
N1248 N 0.83045 0.94463 0.89206 0.0
N1249 N 0.84544 0.94637 0.80748 0.0
H1250 H 0.80961 0.11554 0.50849 0.0
H1251 H 0.86771 0.07964 0.63579 0.0
H1252 H 0.75789 0.10376 0.56886 0.0
H1253 H 0.81332 0.04691 0.66133 0.0
H1254 H 0.84823 0.09842 0.59571 0.0
H1255 H 0.83173 0.09949 0.54781 0.0
C1256 C 0.8029 0.1097 0.53007 0.0
C1257 C 0.78182 0.11114 0.53534 0.0
C1258 C 0.84054 0.08701 0.60977 0.0
C1259 C 0.80718 0.09297 0.58088 0.0
C1260 C 0.85161 0.07651 0.6329 0.0
C1261 C 0.84205 0.06172 0.6516 0.0
C1262 C 0.81972 0.08267 0.60546 0.0
C1263 C 0.82119 0.05817 0.64717 0.0
C1264 C 0.81561 0.10071 0.55273 0.0
C1265 C 0.77404 0.10316 0.56377 0.0
N1266 N 0.8107 0.0686 0.6246 0.0
N1267 N 0.78667 0.09432 0.58529 0.0
H1268 H 0.68414 0.07287 0.43597 0.0
H1269 H 0.64437 0.00532 0.32666 0.0
H1270 H 0.70764 0.10568 0.35557 0.0
H1271 H 0.64947 0.05403 0.25851 0.0
H1272 H 0.66167 0.02622 0.36537 0.0
H1273 H 0.66442 0.0514 0.40033 0.0
C1274 C 0.68515 0.07552 0.41074 0.0
C1275 C 0.69756 0.09106 0.39874 0.0
C1276 C 0.65866 0.03267 0.3423 0.0
C1277 C 0.67571 0.06582 0.35728 0.0
C1278 C 0.6489 0.02057 0.31987 0.0
C1279 C 0.64527 0.0279 0.28913 0.0
C1280 C 0.66485 0.05248 0.33428 0.0
C1281 C 0.6518 0.04775 0.28191 0.0
C1282 C 0.67413 0.063 0.39023 0.0
C1283 C 0.69846 0.09367 0.36578 0.0
N1284 N 0.66134 0.05931 0.30428 0.0
N1285 N 0.68767 0.08121 0.34621 0.0
H1286 H 0.73201 0.87055 0.07588 0.0
H1287 H 0.68336 0.97096 0.13659 0.0
H1288 H 0.71442 0.91623 0.00792 0.0
H1289 H 0.65293 0.91516 0.16236 0.0
H1290 H 0.70323 0.95214 0.09714 0.0
H1291 H 0.71055 0.88748 0.11583 0.0
C1292 C 0.72353 0.88407 0.06938 0.0
C1293 C 0.72483 0.89199 0.03858 0.0
C1294 C 0.69222 0.94408 0.11156 0.0
C1295 C 0.70106 0.91163 0.08418 0.0
C1296 C 0.68084 0.95476 0.13396 0.0
C1297 C 0.66604 0.94472 0.15219 0.0
C1298 C 0.68941 0.92306 0.10824 0.0
C1299 C 0.66409 0.92352 0.14872 0.0
C1300 C 0.71134 0.89363 0.09208 0.0
C1301 C 0.71364 0.90957 0.03132 0.0
N1302 N 0.67571 0.91333 0.12718 0.0
N1303 N 0.70248 0.91904 0.05414 0.0
H1304 H 0.80098 0.11054 0.14376 0.0
H1305 H 0.8629 0.00686 0.17079 0.0
H1306 H 0.81785 0.07006 0.06797 0.0
H1307 H 0.85364 0.05177 0.24397 0.0
H1308 H 0.84573 0.02927 0.13316 0.0
H1309 H 0.81936 0.08874 0.18113 0.0
C1310 C 0.80858 0.09703 0.13503 0.0
C1311 C 0.80793 0.09207 0.10278 0.0
C1312 C 0.8475 0.03426 0.15742 0.0
C1313 C 0.82901 0.06701 0.14534 0.0
C1314 C 0.85728 0.02143 0.17901 0.0
C1315 C 0.85974 0.02737 0.21073 0.0
C1316 C 0.83994 0.05317 0.16754 0.0
C1317 C 0.85214 0.04651 0.21982 0.0
C1318 C 0.81914 0.08463 0.15632 0.0
C1319 C 0.81817 0.07451 0.09262 0.0
N1320 N 0.84254 0.05865 0.19839 0.0
N1321 N 0.82821 0.06256 0.11384 0.0
H1322 H 0.6859 0.07224 0.81257 0.0
H1323 H 0.70129 0.10667 0.99325 0.0
H1324 H 0.64635 0.05383 0.88874 0.0
H1325 H 0.74723 0.11495 0.92129 0.0
H1326 H 0.67938 0.09027 0.95404 0.0
H1327 H 0.70691 0.09113 0.85075 0.0
C1328 C 0.68156 0.07236 0.83729 0.0
C1329 C 0.66442 0.06148 0.84759 0.0
C1330 C 0.69425 0.0957 0.94681 0.0
C1331 C 0.68834 0.08286 0.89136 0.0
C1332 C 0.70678 0.10512 0.9692 0.0
C1333 C 0.72622 0.11217 0.96068 0.0
C1334 C 0.70108 0.09339 0.9155 0.0
C1335 C 0.73243 0.10968 0.92906 0.0
C1336 C 0.6936 0.08301 0.85909 0.0
C1337 C 0.65956 0.0619 0.87991 0.0
N1338 N 0.71992 0.10053 0.90766 0.0
N1339 N 0.67143 0.0724 0.90061 0.0
H1340 H 0.62373 0.98444 0.67271 0.0
H1341 H 0.72226 0.93439 0.61018 0.0
H1342 H 0.66788 0.96437 0.7415 0.0
H1343 H 0.66665 0.90208 0.58931 0.0
H1344 H 0.70383 0.95476 0.64955 0.0
H1345 H 0.64033 0.96277 0.63268 0.0
C1346 C 0.63687 0.97543 0.67936 0.0
C1347 C 0.64444 0.97607 0.71043 0.0
C1348 C 0.69572 0.94325 0.63616 0.0
C1349 C 0.66367 0.95199 0.66478 0.0
C1350 C 0.70617 0.93161 0.61382 0.0
C1351 C 0.69607 0.91619 0.59693 0.0
C1352 C 0.67485 0.94006 0.64078 0.0
C1353 C 0.67503 0.91378 0.60181 0.0
C1354 C 0.64623 0.9631 0.65661 0.0
C1355 C 0.66151 0.96415 0.71787 0.0
N1356 N 0.66504 0.92567 0.62324 0.0
N1357 N 0.6708 0.95284 0.69503 0.0
H1358 H 0.80698 0.88908 0.48846 0.0
H1359 H 0.86786 0.92436 0.36407 0.0
H1360 H 0.75654 0.90068 0.42542 0.0
H1361 H 0.814 0.95672 0.33499 0.0
H1362 H 0.84748 0.90559 0.40307 0.0
H1363 H 0.82996 0.90468 0.44995 0.0
C1364 C 0.80074 0.89477 0.46645 0.0
C1365 C 0.77976 0.89344 0.46021 0.0
C1366 C 0.84009 0.91691 0.38844 0.0
C1367 C 0.80611 0.91107 0.41557 0.0
C1368 C 0.85168 0.92739 0.36592 0.0
C1369 C 0.84251 0.94206 0.34656 0.0
C1370 C 0.81917 0.92119 0.39151 0.0
C1371 C 0.82155 0.94551 0.34966 0.0
C1372 C 0.81394 0.9035 0.44425 0.0
C1373 C 0.77259 0.90122 0.43127 0.0
N1374 N 0.81057 0.93514 0.3717 0.0
N1375 N 0.78569 0.9098 0.4102 0.0
H1376 H 0.64675 0.50287 0.67171 0.0
H1377 H 0.68647 0.56836 0.55888 0.0
H1378 H 0.6479 0.55395 0.73594 0.0
H1379 H 0.70183 0.60763 0.63696 0.0
H1380 H 0.66745 0.54656 0.59494 0.0
H1381 H 0.66329 0.52346 0.63192 0.0
C1382 C 0.65025 0.51857 0.67739 0.0
C1383 C 0.64573 0.52664 0.70738 0.0
C1384 C 0.67519 0.55969 0.60457 0.0
C1385 C 0.66443 0.55092 0.66083 0.0
C1386 C 0.68577 0.57238 0.58371 0.0
C1387 C 0.69567 0.58985 0.59491 0.0
C1388 C 0.67477 0.56428 0.63716 0.0
C1389 C 0.69454 0.59418 0.6274 0.0
C1390 C 0.65959 0.5305 0.65429 0.0
C1391 C 0.65097 0.54705 0.71318 0.0
N1392 N 0.68431 0.5815 0.64735 0.0
N1393 N 0.66006 0.55845 0.69016 0.0
H1394 H 0.68847 0.43372 0.81037 0.0
H1395 H 0.70396 0.3994 0.99129 0.0
H1396 H 0.64631 0.44835 0.88508 0.0
H1397 H 0.74958 0.39139 0.91878 0.0
H1398 H 0.68152 0.41512 0.952 0.0
H1399 H 0.70988 0.41566 0.84888 0.0
C1400 C 0.6836 0.43285 0.83481 0.0
C1401 C 0.66555 0.44233 0.84458 0.0
C1402 C 0.69644 0.40989 0.94469 0.0
C1403 C 0.69003 0.42205 0.88887 0.0
C1404 C 0.70927 0.40088 0.96714 0.0
C1405 C 0.72877 0.39408 0.95846 0.0
C1406 C 0.70306 0.41207 0.91323 0.0
C1407 C 0.73475 0.39645 0.9267 0.0
C1408 C 0.69588 0.4227 0.85685 0.0
C1409 C 0.66014 0.4412 0.87665 0.0
N1410 N 0.72197 0.40522 0.90532 0.0
N1411 N 0.6723 0.43126 0.89763 0.0
H1412 H 0.84272 0.46223 0.24232 0.0
H1413 H 0.84171 0.40067 0.08892 0.0
H1414 H 0.88053 0.48849 0.16951 0.0
H1415 H 0.78777 0.43645 0.10626 0.0
H1416 H 0.86045 0.42225 0.12686 0.0
H1417 H 0.82603 0.44099 0.20181 0.0
C1418 C 0.84767 0.46333 0.21794 0.0
C1419 C 0.86296 0.47716 0.20918 0.0
C1420 C 0.84451 0.42526 0.12216 0.0
C1421 C 0.84437 0.45273 0.16332 0.0
C1422 C 0.83387 0.41313 0.10046 0.0
C1423 C 0.81309 0.41663 0.09473 0.0
C1424 C 0.83413 0.44062 0.13861 0.0
C1425 C 0.80364 0.43291 0.11055 0.0
C1426 C 0.83813 0.45132 0.19497 0.0
C1427 C 0.86871 0.4781 0.17716 0.0
N1428 N 0.81412 0.44409 0.1322 0.0
N1429 N 0.85951 0.46592 0.15534 0.0
H1430 H 0.80519 0.60661 0.49184 0.0
H1431 H 0.82274 0.57421 0.31063 0.0
H1432 H 0.76071 0.61657 0.41819 0.0
H1433 H 0.86145 0.55495 0.38735 0.0
H1434 H 0.80159 0.59304 0.34864 0.0
H1435 H 0.82769 0.59067 0.4529 0.0
C1436 C 0.80017 0.60555 0.46749 0.0
C1437 C 0.78094 0.6129 0.4584 0.0
C1438 C 0.81476 0.58476 0.35714 0.0
C1439 C 0.80672 0.59466 0.41357 0.0
C1440 C 0.82688 0.57415 0.33543 0.0
C1441 C 0.8438 0.56301 0.34593 0.0
C1442 C 0.8197 0.58432 0.38954 0.0
C1443 C 0.8484 0.56321 0.37836 0.0
C1444 C 0.81302 0.59639 0.44525 0.0
C1445 C 0.77532 0.61105 0.42641 0.0
N1446 N 0.83644 0.57365 0.39899 0.0
N1447 N 0.78812 0.60212 0.40521 0.0
H1448 H 0.63716 0.4961 0.32873 0.0
H1449 H 0.70084 0.39416 0.35888 0.0
H1450 H 0.64874 0.45159 0.25578 0.0
H1451 H 0.67931 0.43275 0.43422 0.0
H1452 H 0.6824 0.41524 0.32065 0.0
H1453 H 0.65306 0.47353 0.36737 0.0
C1454 C 0.64302 0.48157 0.32076 0.0
C1455 C 0.64162 0.47582 0.28878 0.0
C1456 C 0.68155 0.41905 0.34553 0.0
C1457 C 0.65999 0.44981 0.33322 0.0
C1458 C 0.69212 0.40706 0.36735 0.0
C1459 C 0.69159 0.41176 0.39973 0.0
C1460 C 0.67049 0.43605 0.35608 0.0
C1461 C 0.67996 0.42852 0.40949 0.0
C1462 C 0.65206 0.46864 0.34295 0.0
C1463 C 0.64945 0.45671 0.28009 0.0
N1464 N 0.67 0.44016 0.38773 0.0
N1465 N 0.65839 0.44446 0.30212 0.0
H1466 H 0.81907 0.47355 0.63677 0.0
H1467 H 0.76741 0.37403 0.57765 0.0
H1468 H 0.848 0.41712 0.66337 0.0
H1469 H 0.7877 0.4179 0.50862 0.0
H1470 H 0.78864 0.39107 0.61786 0.0
H1471 H 0.79845 0.45496 0.59794 0.0
C1472 C 0.8211 0.45725 0.63447 0.0
C1473 C 0.83572 0.44696 0.65273 0.0
C1474 C 0.78842 0.39684 0.59385 0.0
C1475 C 0.81144 0.42559 0.60955 0.0
C1476 C 0.77634 0.38723 0.571 0.0
C1477 C 0.77592 0.39457 0.53979 0.0
C1478 C 0.79949 0.4143 0.58563 0.0
C1479 C 0.78774 0.41171 0.53235 0.0
C1480 C 0.80928 0.44671 0.61244 0.0
C1481 C 0.83701 0.42569 0.6497 0.0
N1482 N 0.79881 0.42122 0.55525 0.0
N1483 N 0.82496 0.41564 0.62852 0.0
H1484 H 0.86307 0.5582 0.76204 0.0
H1485 H 0.82705 0.61501 0.89117 0.0
H1486 H 0.85115 0.50612 0.82154 0.0
H1487 H 0.7942 0.56035 0.91481 0.0
H1488 H 0.84586 0.59607 0.85047 0.0
H1489 H 0.84696 0.58007 0.80183 0.0
C1490 C 0.85718 0.55137 0.7835 0.0
C1491 C 0.85862 0.53027 0.78843 0.0
C1492 C 0.83443 0.58822 0.8643 0.0
C1493 C 0.84038 0.55525 0.83439 0.0
C1494 C 0.82393 0.59895 0.8878 0.0
C1495 C 0.80909 0.58916 0.90614 0.0
C1496 C 0.83005 0.5675 0.85926 0.0
C1497 C 0.80549 0.56841 0.90096 0.0
C1498 C 0.84816 0.56391 0.80641 0.0
C1499 C 0.85058 0.5223 0.8167 0.0
N1500 N 0.81594 0.55824 0.87808 0.0
N1501 N 0.84172 0.53474 0.8384 0.0
H1502 H 0.68256 0.53441 0.13824 0.0
H1503 H 0.72903 0.63428 0.07499 0.0
H1504 H 0.64765 0.5886 0.15771 0.0
H1505 H 0.71113 0.589 0.00657 0.0
H1506 H 0.70748 0.61726 0.1148 0.0
H1507 H 0.7023 0.55348 0.09879 0.0
C1508 C 0.67908 0.55033 0.13428 0.0
C1509 C 0.66314 0.55982 0.1508 0.0
C1510 C 0.70822 0.61124 0.09097 0.0
C1511 C 0.68625 0.5818 0.10687 0.0
C1512 C 0.72046 0.62084 0.06835 0.0
C1513 C 0.72169 0.61306 0.03747 0.0
C1514 C 0.69783 0.59334 0.08288 0.0
C1515 C 0.7104 0.59557 0.03004 0.0
C1516 C 0.69036 0.56113 0.11189 0.0
C1517 C 0.65978 0.58068 0.14549 0.0
N1518 N 0.6992 0.58605 0.05278 0.0
N1519 N 0.67132 0.59106 0.12405 0.0
H1520 H 0.36054 0.49841 0.33094 0.0
H1521 H 0.3038 0.39275 0.36614 0.0
H1522 H 0.35379 0.45053 0.26174 0.0
H1523 H 0.31478 0.43827 0.43751 0.0
H1524 H 0.32226 0.41365 0.32771 0.0
H1525 H 0.34407 0.47669 0.37025 0.0
C1526 C 0.35563 0.48333 0.32395 0.0
C1527 C 0.35857 0.47636 0.29281 0.0
C1528 C 0.3208 0.41906 0.3518 0.0
C1529 C 0.33959 0.45133 0.33798 0.0
C1530 C 0.31026 0.40714 0.37371 0.0
C1531 C 0.30792 0.41376 0.40504 0.0
C1532 C 0.32897 0.43789 0.36116 0.0
C1533 C 0.31653 0.43249 0.41368 0.0
C1534 C 0.34624 0.4709 0.3465 0.0
C1535 C 0.35188 0.45661 0.28535 0.0
N1536 N 0.32661 0.44396 0.39183 0.0
N1537 N 0.34267 0.44485 0.30771 0.0
H1538 H 0.31928 0.57078 0.18679 0.0
H1539 H 0.30275 0.60249 0.00519 0.0
H1540 H 0.35778 0.55031 0.11059 0.0
H1541 H 0.25794 0.61321 0.07808 0.0
H1542 H 0.32457 0.58592 0.04435 0.0
H1543 H 0.29818 0.58923 0.14827 0.0
C1544 C 0.32338 0.57035 0.16198 0.0
C1545 C 0.34026 0.55904 0.15179 0.0
C1546 C 0.30997 0.59191 0.05179 0.0
C1547 C 0.31621 0.57992 0.10761 0.0
C1548 C 0.29749 0.60141 0.02941 0.0
C1549 C 0.2784 0.60924 0.03824 0.0
C1550 C 0.30344 0.5903 0.08336 0.0
C1551 C 0.27246 0.60734 0.07008 0.0
C1552 C 0.31128 0.58075 0.13998 0.0
C1553 C 0.34478 0.55875 0.11935 0.0
N1554 N 0.28493 0.59811 0.09144 0.0
N1555 N 0.33286 0.56902 0.09845 0.0
H1556 H 0.18183 0.5732 0.93383 0.0
H1557 H 0.14946 0.55411 0.75283 0.0
H1558 H 0.20283 0.61055 0.8566 0.0
H1559 H 0.13698 0.51206 0.82891 0.0
H1560 H 0.16645 0.57672 0.79081 0.0
H1561 H 0.16251 0.55242 0.89613 0.0
C1562 C 0.18219 0.57714 0.90895 0.0
C1563 C 0.1939 0.5936 0.89829 0.0
C1564 C 0.15993 0.56256 0.79914 0.0
C1565 C 0.17202 0.56981 0.85489 0.0
C1566 C 0.15018 0.54967 0.77747 0.0
C1567 C 0.14182 0.53107 0.78756 0.0
C1568 C 0.16122 0.55691 0.8312 0.0
C1569 C 0.14327 0.52615 0.81988 0.0
C1570 C 0.17128 0.56521 0.88739 0.0
C1571 C 0.19409 0.59786 0.86573 0.0
N1572 N 0.15275 0.53894 0.84043 0.0
N1573 N 0.18333 0.58606 0.84518 0.0
H1574 H 0.15165 0.4144 0.66957 0.0
H1575 H 0.20944 0.4134 0.50861 0.0
H1576 H 0.1799 0.46977 0.63653 0.0
H1577 H 0.23154 0.37233 0.58043 0.0
H1578 H 0.18887 0.43087 0.54906 0.0
H1579 H 0.17265 0.39501 0.63177 0.0
C1580 C 0.16233 0.42247 0.65461 0.0
C1581 C 0.16374 0.4438 0.65584 0.0
C1582 C 0.19811 0.41789 0.55574 0.0
C1583 C 0.18699 0.42186 0.61198 0.0
C1584 C 0.20969 0.40787 0.53275 0.0
C1585 C 0.22219 0.39145 0.54127 0.0
C1586 C 0.19855 0.41101 0.58716 0.0
C1587 C 0.22214 0.385 0.57299 0.0
C1588 C 0.17414 0.41142 0.63297 0.0
C1589 C 0.17781 0.45343 0.63571 0.0
N1590 N 0.21034 0.39469 0.59482 0.0
N1591 N 0.18858 0.44246 0.61418 0.0
H1592 H 0.3553 0.55351 0.74521 0.0
H1593 H 0.32283 0.57163 0.56418 0.0
H1594 H 0.36515 0.5092 0.67134 0.0
H1595 H 0.30339 0.61003 0.64112 0.0
H1596 H 0.34129 0.55014 0.60215 0.0
H1597 H 0.3389 0.57589 0.70657 0.0
C1598 C 0.35408 0.54848 0.72088 0.0
C1599 C 0.3616 0.52936 0.71164 0.0
C1600 C 0.33305 0.56331 0.61072 0.0
C1601 C 0.34285 0.55503 0.66712 0.0
C1602 C 0.32265 0.57563 0.58903 0.0
C1603 C 0.31162 0.59261 0.59957 0.0
C1604 C 0.33251 0.56809 0.64317 0.0
C1605 C 0.31162 0.59698 0.63207 0.0
C1606 C 0.34467 0.56127 0.69881 0.0
C1607 C 0.35953 0.52373 0.67968 0.0
N1608 N 0.32189 0.58483 0.65269 0.0
N1609 N 0.35039 0.53649 0.65863 0.0
H1610 H 0.20357 0.604 0.49346 0.0
H1611 H 0.18648 0.57122 0.3125 0.0
H1612 H 0.24848 0.61378 0.4204 0.0
H1613 H 0.14763 0.55216 0.38916 0.0
H1614 H 0.20796 0.5896 0.35062 0.0
H1615 H 0.18154 0.58748 0.4546 0.0
C1616 C 0.20881 0.60273 0.46925 0.0
C1617 C 0.22799 0.61028 0.4603 0.0
C1618 C 0.19471 0.58144 0.35908 0.0
C1619 C 0.20269 0.59137 0.4155 0.0
C1620 C 0.1824 0.57109 0.33732 0.0
C1621 C 0.16529 0.56021 0.34777 0.0
C1622 C 0.18976 0.58099 0.39146 0.0
C1623 C 0.16079 0.56027 0.38021 0.0
C1624 C 0.19621 0.59325 0.44705 0.0
C1625 C 0.23389 0.60814 0.42848 0.0
N1626 N 0.17292 0.57049 0.40087 0.0
N1627 N 0.2213 0.59892 0.40727 0.0
H1628 H 0.14089 0.4976 0.16917 0.0
H1629 H 0.20607 0.39677 0.13791 0.0
H1630 H 0.15294 0.45259 0.24122 0.0
H1631 H 0.18374 0.43502 0.06269 0.0
H1632 H 0.18766 0.41768 0.17627 0.0
H1633 H 0.15733 0.47563 0.13017 0.0
C1634 C 0.14697 0.48309 0.17686 0.0
C1635 C 0.14554 0.47701 0.20869 0.0
C1636 C 0.18667 0.42149 0.1514 0.0
C1637 C 0.16452 0.45173 0.1639 0.0
C1638 C 0.19727 0.40962 0.12951 0.0
C1639 C 0.19648 0.41425 0.09713 0.0
C1640 C 0.17529 0.4383 0.14093 0.0
C1641 C 0.18462 0.43088 0.08744 0.0
C1642 C 0.15632 0.47052 0.15448 0.0
C1643 C 0.15365 0.45795 0.21703 0.0
N1644 N 0.1746 0.44241 0.10928 0.0
N1645 N 0.16288 0.44608 0.19485 0.0
H1646 H 0.26078 0.38842 0.92086 0.0
H1647 H 0.36287 0.45209 0.89064 0.0
H1648 H 0.30556 0.39989 0.99354 0.0
H1649 H 0.32324 0.43206 0.81554 0.0
H1650 H 0.34193 0.43339 0.92875 0.0
H1651 H 0.28317 0.40459 0.8822 0.0
C1652 C 0.27534 0.3943 0.92875 0.0
C1653 C 0.28121 0.3928 0.96067 0.0
C1654 C 0.33785 0.43294 0.90394 0.0
C1655 C 0.30699 0.41149 0.91623 0.0
C1656 C 0.34976 0.44366 0.8822 0.0
C1657 C 0.34473 0.44362 0.84993 0.0
C1658 C 0.32062 0.4222 0.89342 0.0
C1659 C 0.32772 0.43233 0.84018 0.0
C1660 C 0.28815 0.4035 0.90656 0.0
C1661 C 0.30034 0.40066 0.96928 0.0
N1662 N 0.31618 0.42219 0.86187 0.0
N1663 N 0.31247 0.40975 0.94725 0.0
H1664 H 0.20838 0.14566 0.31203 0.0
H1665 H 0.30155 0.14317 0.18902 0.0
H1666 H 0.27117 0.13741 0.33939 0.0
H1667 H 0.23824 0.14068 0.16177 0.0
H1668 H 0.29094 0.14413 0.24471 0.0
H1669 H 0.21919 0.14692 0.25649 0.0
C1670 C 0.22442 0.14435 0.30637 0.0
C1671 C 0.23891 0.14207 0.33042 0.0
C1672 C 0.2794 0.14362 0.22642 0.0
C1673 C 0.25141 0.14324 0.26723 0.0
C1674 C 0.28546 0.14311 0.19472 0.0
C1675 C 0.2708 0.14253 0.17066 0.0
C1676 C 0.25852 0.14335 0.23399 0.0
C1677 C 0.25013 0.14202 0.17931 0.0
C1678 C 0.2306 0.14505 0.27476 0.0
C1679 C 0.2595 0.14003 0.32183 0.0
N1680 N 0.24463 0.1425 0.2102 0.0
N1681 N 0.26513 0.14073 0.29099 0.0
H1682 H 0.11363 0.98685 0.40932 0.0
H1683 H 0.11385 0.02103 0.5895 0.0
H1684 H 0.10847 0.0496 0.43857 0.0
H1685 H 0.10836 0.95836 0.55999 0.0
H1686 H 0.11221 0.03172 0.53469 0.0
H1687 H 0.11205 0.97626 0.46413 0.0
C1688 C 0.11165 0.99845 0.4272 0.0
C1689 C 0.11043 0.01919 0.4192 0.0
C1690 C 0.11108 0.01565 0.54014 0.0
C1691 C 0.10949 0.00704 0.48251 0.0
C1692 C 0.11179 0.00947 0.57158 0.0
C1693 C 0.11051 0.98873 0.57948 0.0
C1694 C 0.10949 1.00098 0.51623 0.0
C1695 C 0.10905 0.9745 0.55492 0.0
C1696 C 0.11098 0.99234 0.45865 0.0
C1697 C 0.1091 0.03346 0.44371 0.0
N1698 N 0.10855 0.98089 0.52433 0.0
N1699 N 0.10863 0.02712 0.47434 0.0
H1700 H 0.20538 0.85832 0.68978 0.0
H1701 H 0.29996 0.85898 0.81031 0.0
H1702 H 0.26823 0.86346 0.66086 0.0
H1703 H 0.23705 0.86314 0.83922 0.0
H1704 H 0.28868 0.8577 0.75497 0.0
H1705 H 0.21669 0.85715 0.74511 0.0
C1706 C 0.22153 0.85893 0.69505 0.0
C1707 C 0.23586 0.86032 0.67063 0.0
C1708 C 0.27737 0.85865 0.77355 0.0
C1709 C 0.24894 0.85929 0.73353 0.0
C1710 C 0.28382 0.85935 0.80504 0.0
C1711 C 0.26945 0.8605 0.82946 0.0
C1712 C 0.25641 0.85934 0.76655 0.0
C1713 C 0.24869 0.8614 0.82137 0.0
C1714 C 0.22799 0.85829 0.72654 0.0
C1715 C 0.25661 0.86151 0.6787 0.0
N1716 N 0.24281 0.86074 0.79067 0.0
N1717 N 0.26251 0.86092 0.7094 0.0
H1718 H 0.39125 0.01907 0.9102 0.0
H1719 H 0.38992 0.98599 0.09111 0.0
H1720 H 0.3953 0.95649 0.94074 0.0
H1721 H 0.39494 0.04853 0.06081 0.0
H1722 H 0.39141 0.97502 0.03643 0.0
H1723 H 0.3922 0.03005 0.96489 0.0
C1724 C 0.39285 0.00758 0.92835 0.0
C1725 C 0.39394 0.98677 0.92075 0.0
C1726 C 0.39244 0.99113 0.04164 0.0
C1727 C 0.39419 0.99939 0.98389 0.0
C1728 C 0.39181 0.99746 0.07301 0.0
C1729 C 0.39305 0.01825 0.08067 0.0
C1730 C 0.39396 0.00568 0.01754 0.0
C1731 C 0.39431 0.03236 0.05593 0.0
C1732 C 0.39315 0.01393 0.95972 0.0
C1733 C 0.39478 0.97268 0.94557 0.0
N1734 N 0.39479 0.02581 0.0254 0.0
N1735 N 0.39493 0.97924 0.97609 0.0
H1736 H 0.80431 0.86435 0.68759 0.0
H1737 H 0.71066 0.85429 0.80865 0.0
H1738 H 0.74222 0.8523 0.65959 0.0
H1739 H 0.77246 0.86706 0.83719 0.0
H1740 H 0.72232 0.85169 0.75365 0.0
H1741 H 0.79347 0.86319 0.74312 0.0
C1742 C 0.78854 0.86103 0.6931 0.0
C1743 C 0.77435 0.85783 0.66883 0.0
C1744 C 0.73335 0.85485 0.77205 0.0
C1745 C 0.76169 0.85696 0.73201 0.0
C1746 C 0.72667 0.85636 0.80334 0.0
C1747 C 0.74066 0.86035 0.82755 0.0
C1748 C 0.75413 0.85766 0.76499 0.0
C1749 C 0.76122 0.86328 0.81946 0.0
C1750 C 0.78232 0.86046 0.72472 0.0
C1751 C 0.75396 0.85407 0.67725 0.0
N1752 N 0.76733 0.86185 0.78891 0.0
N1753 N 0.74827 0.8538 0.70805 0.0
H1754 H 0.89113 0.9841 0.41097 0.0
H1755 H 0.89105 0.01921 0.59089 0.0
H1756 H 0.89502 0.047 0.43988 0.0
H1757 H 0.89461 0.95624 0.56229 0.0
H1758 H 0.89276 0.02953 0.53598 0.0
H1759 H 0.89269 0.97368 0.46589 0.0
C1760 C 0.89282 0.99578 0.42879 0.0
C1761 C 0.89366 0.01651 0.42067 0.0
C1762 C 0.89344 0.01346 0.54161 0.0
C1763 C 0.8946 0.00455 0.48409 0.0
C1764 C 0.89269 0.00749 0.57313 0.0
C1765 C 0.89342 0.98677 0.58135 0.0
C1766 C 0.89454 0.99862 0.51789 0.0
C1767 C 0.89437 0.97236 0.55698 0.0
C1768 C 0.89347 0.98975 0.46031 0.0
C1769 C 0.89467 0.03086 0.44511 0.0
N1770 N 0.89495 0.97856 0.52628 0.0
N1771 N 0.89515 0.02461 0.47577 0.0
H1772 H 0.73573 0.13495 0.33788 0.0
H1773 H 0.74401 0.17946 0.16521 0.0
H1774 H 0.79232 0.16078 0.305 0.0
H1775 H 0.71365 0.12238 0.18375 0.0
H1776 H 0.75617 0.17993 0.21995 0.0
H1777 H 0.72204 0.13713 0.28445 0.0
C1778 C 0.74531 0.14109 0.3194 0.0
C1779 C 0.76525 0.14764 0.32578 0.0
C1780 C 0.74682 0.16737 0.21186 0.0
C1781 C 0.7494 0.15063 0.26483 0.0
C1782 C 0.73997 0.16698 0.18064 0.0
C1783 C 0.72858 0.15035 0.16945 0.0
C1784 C 0.74151 0.15145 0.23227 0.0
C1785 C 0.72266 0.13534 0.19118 0.0
C1786 C 0.73742 0.14237 0.28898 0.0
C1787 C 0.77689 0.15559 0.30092 0.0
N1788 N 0.72928 0.13619 0.22158 0.0
N1789 N 0.76872 0.15704 0.27138 0.0
H1790 H 0.60516 0.95964 0.94064 0.0
H1791 H 0.61626 0.05336 0.06112 0.0
H1792 H 0.61706 0.02146 0.91153 0.0
H1793 H 0.60189 0.99187 0.08943 0.0
H1794 H 0.61487 0.04243 0.00566 0.0
H1795 H 0.60259 0.97145 0.99559 0.0
C1796 C 0.60704 0.97568 0.9458 0.0
C1797 C 0.61079 0.98962 0.92145 0.0
C1798 C 0.61168 0.03144 0.0241 0.0
C1799 C 0.60816 0.00327 0.98396 0.0
C1800 C 0.61238 0.03772 0.05569 0.0
C1801 C 0.60863 0.02373 0.08004 0.0
C1802 C 0.60753 0.01093 0.01691 0.0
C1803 C 0.60415 0.00348 0.07171 0.0
C1804 C 0.60554 0.98245 0.97707 0.0
C1805 C 0.61348 0.01023 0.92938 0.0
N1806 N 0.6038 0.99771 0.04093 0.0
N1807 N 0.6121 0.01642 0.9599 0.0
H1808 H 0.78995 0.61799 0.68042 0.0
H1809 H 0.71403 0.66131 0.80957 0.0
H1810 H 0.75836 0.67489 0.66604 0.0
H1811 H 0.76691 0.62547 0.83317 0.0
H1812 H 0.72667 0.66381 0.75472 0.0
H1813 H 0.77922 0.61835 0.73565 0.0
C1814 C 0.78087 0.63065 0.68886 0.0
C1815 C 0.77448 0.64609 0.66822 0.0
C1816 C 0.73549 0.65554 0.77214 0.0
C1817 C 0.76181 0.64634 0.73123 0.0
C1818 C 0.72824 0.65399 0.80319 0.0
C1819 C 0.73958 0.64338 0.8259 0.0
C1820 C 0.75389 0.64594 0.76389 0.0
C1821 C 0.75785 0.63408 0.81662 0.0
C1822 C 0.77465 0.63076 0.72035 0.0
C1823 C 0.76282 0.66216 0.68063 0.0
N1824 N 0.76438 0.63548 0.78632 0.0
N1825 N 0.75655 0.66172 0.71127 0.0
H1826 H 0.60032 0.51324 0.08859 0.0
H1827 H 0.61829 0.48137 0.90904 0.0
H1828 H 0.61427 0.45177 0.05966 0.0
H1829 H 0.60539 0.54286 0.93878 0.0
H1830 H 0.61489 0.46991 0.96344 0.0
H1831 H 0.59947 0.52362 0.0338 0.0
C1832 C 0.60256 0.50167 0.07079 0.0
C1833 C 0.60673 0.48133 0.07895 0.0
C1834 C 0.61261 0.48588 0.95814 0.0
C1835 C 0.60678 0.49359 0.01552 0.0
C1836 C 0.6144 0.49247 0.92697 0.0
C1837 C 0.61155 0.51307 0.91924 0.0
C1838 C 0.60816 0.50003 0.98197 0.0
C1839 C 0.60743 0.52681 0.94372 0.0
C1840 C 0.60241 0.50778 0.03929 0.0
C1841 C 0.61066 0.4675 0.05444 0.0
N1842 N 0.60578 0.52003 0.97403 0.0
N1843 N 0.61063 0.47389 0.02381 0.0
H1844 H 0.73324 0.36674 0.33861 0.0
H1845 H 0.76666 0.35489 0.15856 0.0
H1846 H 0.79554 0.35834 0.30881 0.0
H1847 H 0.70463 0.36633 0.18744 0.0
H1848 H 0.77687 0.35333 0.21343 0.0
H1849 H 0.7222 0.36434 0.28394 0.0
C1850 C 0.74463 0.36402 0.32061 0.0
C1851 C 0.76536 0.36216 0.32838 0.0
C1852 C 0.76096 0.3559 0.2079 0.0
C1853 C 0.75274 0.35996 0.26535 0.0
C1854 C 0.75497 0.35648 0.17637 0.0
C1855 C 0.73452 0.36009 0.16821 0.0
C1856 C 0.74652 0.35925 0.23168 0.0
C1857 C 0.72047 0.36317 0.19269 0.0
C1858 C 0.73827 0.36283 0.28928 0.0
C1859 C 0.77941 0.35956 0.30382 0.0
N1860 N 0.72672 0.36268 0.22337 0.0
N1861 N 0.77283 0.35846 0.27335 0.0
H1862 H 0.88855 0.55444 0.55992 0.0
H1863 H 0.9001 0.46055 0.4398 0.0
H1864 H 0.90077 0.49261 0.58882 0.0
H1865 H 0.89021 0.52264 0.41024 0.0
H1866 H 0.90168 0.47226 0.49487 0.0
H1867 H 0.89071 0.54348 0.50451 0.0
C1868 C 0.89209 0.5387 0.55464 0.0
C1869 C 0.89506 0.52462 0.57912 0.0
C1870 C 0.8994 0.48334 0.47624 0.0
C1871 C 0.89707 0.51181 0.51605 0.0
C1872 C 0.89848 0.47663 0.44489 0.0
C1873 C 0.89557 0.49066 0.42037 0.0
C1874 C 0.89705 0.5042 0.48305 0.0
C1875 C 0.89318 0.51132 0.42821 0.0
C1876 C 0.89325 0.53241 0.52308 0.0
C1877 C 0.89913 0.50426 0.57098 0.0
N1878 N 0.89397 0.51745 0.45882 0.0
N1879 N 0.89995 0.49849 0.54022 0.0
H1880 H 0.23615 0.37573 0.16328 0.0
H1881 H 0.24715 0.32883 0.33456 0.0
H1882 H 0.29132 0.34481 0.19092 0.0
H1883 H 0.21539 0.38526 0.31697 0.0
H1884 H 0.25895 0.32884 0.27965 0.0
H1885 H 0.22394 0.37374 0.21736 0.0
C1886 C 0.2457 0.36841 0.18067 0.0
C1887 C 0.26478 0.36032 0.17254 0.0
C1888 C 0.24944 0.3412 0.288 0.0
C1889 C 0.25068 0.35786 0.23466 0.0
C1890 C 0.2428 0.34133 0.31937 0.0
C1891 C 0.23094 0.35754 0.33084 0.0
C1892 C 0.24356 0.35701 0.26773 0.0
C1893 C 0.2247 0.37258 0.30935 0.0
C1894 C 0.2387 0.36735 0.21162 0.0
C1895 C 0.27653 0.35122 0.19633 0.0
N1896 N 0.23114 0.37199 0.27885 0.0
N1897 N 0.26921 0.35005 0.22645 0.0
H1898 H 0.39208 0.48456 0.9112 0.0
H1899 H 0.38818 0.51782 0.09189 0.0
H1900 H 0.39553 0.54717 0.94173 0.0
H1901 H 0.39423 0.45528 0.06206 0.0
H1902 H 0.39039 0.52871 0.03721 0.0
H1903 H 0.39258 0.47362 0.96591 0.0
C1904 C 0.39349 0.49607 0.92934 0.0
C1905 C 0.39452 0.51688 0.92173 0.0
C1906 C 0.39149 0.51262 0.04253 0.0
C1907 C 0.39419 0.5043 0.9849 0.0
C1908 C 0.39043 0.50633 0.07389 0.0
C1909 C 0.39176 0.48558 0.08169 0.0
C1910 C 0.39352 0.49805 0.01855 0.0
C1911 C 0.39351 0.47143 0.05707 0.0
C1912 C 0.39352 0.48974 0.96073 0.0
C1913 C 0.39508 0.53099 0.94655 0.0
N1914 N 0.3944 0.47793 0.02653 0.0
N1915 N 0.39493 0.52444 0.97708 0.0
H1916 H 0.20607 0.64522 0.68892 0.0
H1917 H 0.30047 0.64431 0.80975 0.0
H1918 H 0.26902 0.64083 0.66026 0.0
H1919 H 0.23744 0.64144 0.83847 0.0
H1920 H 0.28929 0.64557 0.75437 0.0
H1921 H 0.21726 0.64635 0.74431 0.0
C1922 C 0.22221 0.64475 0.69427 0.0
C1923 C 0.23661 0.64358 0.66994 0.0
C1924 C 0.27793 0.6449 0.77291 0.0
C1925 C 0.24955 0.64456 0.73285 0.0
C1926 C 0.28432 0.64422 0.80442 0.0
C1927 C 0.26991 0.64342 0.82877 0.0
C1928 C 0.25697 0.64454 0.76586 0.0
C1929 C 0.24914 0.64288 0.82065 0.0
C1930 C 0.22861 0.64537 0.72578 0.0
C1931 C 0.25735 0.64256 0.67808 0.0
N1932 N 0.24332 0.64349 0.78993 0.0
N1933 N 0.26318 0.64312 0.70879 0.0
H1934 H 0.11725 0.52097 0.40913 0.0
H1935 H 0.09906 0.49014 0.58911 0.0
H1936 H 0.10432 0.45959 0.43944 0.0
H1937 H 0.11518 0.55091 0.55931 0.0
H1938 H 0.09778 0.4795 0.53436 0.0
H1939 H 0.11406 0.53261 0.4634 0.0
C1940 C 0.11341 0.50993 0.42716 0.0
C1941 C 0.11049 0.48931 0.41963 0.0
C1942 C 0.10129 0.49524 0.53967 0.0
C1943 C 0.10733 0.50257 0.48225 0.0
C1944 C 0.10171 0.50151 0.57111 0.0
C1945 C 0.10666 0.52172 0.57897 0.0
C1946 C 0.10613 0.50916 0.51573 0.0
C1947 C 0.11099 0.53529 0.5543 0.0
C1948 C 0.11174 0.51662 0.45827 0.0
C1949 C 0.1064 0.47565 0.44425 0.0
N1950 N 0.11067 0.52876 0.52376 0.0
N1951 N 0.10486 0.48254 0.47452 0.0
H1952 H 0.16585 0.11435 0.95968 0.0
H1953 H 0.11896 0.11188 0.7855 0.0
H1954 H 0.18308 0.15745 0.88733 0.0
H1955 H 0.1215 0.0609 0.84967 0.0
H1956 H 0.13392 0.13363 0.82697 0.0
H1957 H 0.14054 0.10009 0.924 0.0
C1958 C 0.16419 0.12095 0.93636 0.0
C1959 C 0.17695 0.13676 0.92615 0.0
C1960 C 0.13081 0.11777 0.83203 0.0
C1961 C 0.148 0.12042 0.88513 0.0
C1962 C 0.12223 0.10544 0.80855 0.0
C1963 C 0.11928 0.08463 0.81431 0.0
C1964 C 0.13603 0.10914 0.86135 0.0
C1965 C 0.12382 0.07686 0.84431 0.0
C1966 C 0.1497 0.11282 0.91602 0.0
C1967 C 0.17374 0.14504 0.89593 0.0
N1968 N 0.13205 0.0891 0.86666 0.0
N1969 N 0.15976 0.13653 0.87618 0.0
H1970 H 0.09565 0.92863 0.14278 0.0
H1971 H 0.16233 0.88559 0.03698 0.0
H1972 H 0.14438 0.91621 0.20862 0.0
H1973 H 0.18771 0.85271 0.11612 0.0
H1974 H 0.13672 0.90008 0.07183 0.0
H1975 H 0.11012 0.90341 0.10656 0.0
C1976 C 0.10928 0.92048 0.14971 0.0
C1977 C 0.11919 0.92492 0.17828 0.0
C1978 C 0.14739 0.88918 0.0815 0.0
C1979 C 0.13599 0.89648 0.13693 0.0
C1980 C 0.16222 0.88108 0.06163 0.0
C1981 C 0.17736 0.86823 0.07386 0.0
C1982 C 0.14786 0.88453 0.11391 0.0
C1983 C 0.1764 0.86272 0.10584 0.0
C1984 C 0.11763 0.90623 0.12893 0.0
C1985 C 0.13657 0.91365 0.18642 0.0
N1986 N 0.16217 0.8713 0.12497 0.0
N1987 N 0.14454 0.9001 0.16567 0.0
H1988 H 0.36995 0.9112 0.28798 0.0
H1989 H 0.32664 0.84517 0.3946 0.0
H1990 H 0.4023 0.93736 0.36706 0.0
H1991 H 0.33876 0.89435 0.45973 0.0
H1992 H 0.35193 0.85949 0.3583 0.0
H1993 H 0.35543 0.88576 0.32312 0.0
C1994 C 0.37434 0.91129 0.31269 0.0
C1995 C 0.38705 0.9266 0.32479 0.0
C1996 C 0.34903 0.86713 0.38054 0.0
C1997 C 0.37071 0.89732 0.36519 0.0
C1998 C 0.33474 0.85887 0.40136 0.0
C1999 C 0.3302 0.86895 0.42974 0.0
C2000 C 0.3587 0.88557 0.38829 0.0
C2001 C 0.3414 0.88641 0.43767 0.0
C2002 C 0.36623 0.89657 0.33273 0.0
C2003 C 0.39241 0.92591 0.35686 0.0
N2004 N 0.35498 0.89429 0.41688 0.0
N2005 N 0.38382 0.91177 0.37614 0.0
H2006 H 0.36553 0.09003 0.71062 0.0
H2007 H 0.36327 0.13557 0.53568 0.0
H2008 H 0.40927 0.07318 0.63899 0.0
H2009 H 0.31238 0.13389 0.60012 0.0
H2010 H 0.38516 0.12137 0.57762 0.0
H2011 H 0.35136 0.11528 0.67474 0.0
C2012 C 0.3723 0.09178 0.68741 0.0
C2013 C 0.38825 0.07913 0.67743 0.0
C2014 C 0.36928 0.12451 0.58263 0.0
C2015 C 0.372 0.10795 0.63618 0.0
C2016 C 0.35688 0.13266 0.55887 0.0
C2017 C 0.33606 0.13558 0.56458 0.0
C2018 C 0.3607 0.11969 0.61215 0.0
C2019 C 0.32835 0.13155 0.59478 0.0
C2020 C 0.36422 0.10623 0.66696 0.0
C2021 C 0.39674 0.08242 0.64739 0.0
N2022 N 0.34065 0.1237 0.61739 0.0
N2023 N 0.38826 0.09633 0.6275 0.0
H2024 H 0.86259 0.86902 0.03322 0.0
H2025 H 0.86536 0.91306 0.20906 0.0
H2026 H 0.81202 0.86954 0.09831 0.0
H2027 H 0.90819 0.93141 0.13697 0.0
H2028 H 0.85131 0.88794 0.17284 0.0
H2029 H 0.8845 0.88322 0.07512 0.0
C2030 C 0.85628 0.87167 0.05654 0.0
C2031 C 0.83553 0.86841 0.06245 0.0
C2032 C 0.86394 0.89729 0.16503 0.0
C2033 C 0.86021 0.88431 0.10998 0.0
C2034 C 0.87196 0.91167 0.18568 0.0
C2035 C 0.88761 0.9247 0.17569 0.0
C2036 C 0.8715 0.89601 0.13407 0.0
C2037 C 0.8959 0.92186 0.1454 0.0
C2038 C 0.8687 0.87982 0.08027 0.0
C2039 C 0.82793 0.87214 0.09282 0.0
N2040 N 0.88749 0.90801 0.12535 0.0
N2041 N 0.84024 0.87999 0.11541 0.0
H2042 H 0.84311 0.1172 0.96581 0.0
H2043 H 0.90983 0.07534 0.85916 0.0
H2044 H 0.81996 0.15341 0.88853 0.0
H2045 H 0.86295 0.09197 0.79232 0.0
H2046 H 0.89566 0.09984 0.89679 0.0
H2047 H 0.86873 0.10301 0.93069 0.0
C2048 C 0.84372 0.12248 0.94154 0.0
C2049 C 0.82919 0.13623 0.92987 0.0
C2050 C 0.88848 0.0981 0.8739 0.0
C2051 C 0.85873 0.12028 0.88953 0.0
C2052 C 0.89668 0.08427 0.85231 0.0
C2053 C 0.88715 0.08121 0.823 0.0
C2054 C 0.87064 0.10878 0.86599 0.0
C2055 C 0.87041 0.09346 0.81504 0.0
C2056 C 0.85856 0.11455 0.92154 0.0
C2057 C 0.83078 0.1427 0.89838 0.0
N2058 N 0.86254 0.10655 0.83659 0.0
N2059 N 0.84501 0.1343 0.87907 0.0
H2060 H 0.6649 0.11626 0.53411 0.0
H2061 H 0.59729 0.07403 0.63949 0.0
H2062 H 0.68799 0.15161 0.61238 0.0
H2063 H 0.6442 0.08947 0.70698 0.0
H2064 H 0.61206 0.0985 0.60232 0.0
H2065 H 0.63923 0.10168 0.56876 0.0
C2066 C 0.66429 0.12125 0.55852 0.0
C2067 C 0.67878 0.13489 0.57058 0.0
C2068 C 0.61911 0.0965 0.62525 0.0
C2069 C 0.64917 0.11852 0.61037 0.0
C2070 C 0.61058 0.08268 0.64656 0.0
C2071 C 0.61992 0.07932 0.67594 0.0
C2072 C 0.63708 0.10688 0.63353 0.0
C2073 C 0.63686 0.0912 0.6842 0.0
C2074 C 0.64941 0.11311 0.57825 0.0
C2075 C 0.67718 0.141 0.60224 0.0
N2076 N 0.64503 0.10431 0.66295 0.0
N2077 N 0.6629 0.13241 0.62127 0.0
H2078 H 0.61626 0.94017 0.34366 0.0
H2079 H 0.6861 0.84631 0.3869 0.0
H2080 H 0.62841 0.89157 0.27777 0.0
H2081 H 0.6656 0.89141 0.45404 0.0
H2082 H 0.66133 0.85933 0.34858 0.0
H2083 H 0.62999 0.91941 0.38628 0.0
C2084 C 0.62158 0.92493 0.33836 0.0
C2085 C 0.62148 0.91758 0.30729 0.0
C2086 C 0.66204 0.86614 0.37189 0.0
C2087 C 0.63773 0.89387 0.35571 0.0
C2088 C 0.67619 0.85874 0.39375 0.0
C2089 C 0.67822 0.86811 0.42343 0.0
C2090 C 0.64996 0.88303 0.37984 0.0
C2091 C 0.66487 0.884 0.4312 0.0
C2092 C 0.62942 0.91305 0.36266 0.0
C2093 C 0.62831 0.89771 0.30154 0.0
N2094 N 0.65151 0.89111 0.4094 0.0
N2095 N 0.63661 0.88663 0.32551 0.0
H2096 H 0.5953 0.57262 0.35986 0.0
H2097 H 0.69501 0.63322 0.40076 0.0
H2098 H 0.64085 0.58903 0.29072 0.0
H2099 H 0.64286 0.63441 0.4627 0.0
H2100 H 0.67381 0.6192 0.35889 0.0
H2101 H 0.61033 0.59724 0.39671 0.0
C2102 C 0.60822 0.58162 0.35224 0.0
C2103 C 0.61716 0.57843 0.32248 0.0
C2104 C 0.66682 0.62279 0.38141 0.0
C2105 C 0.63435 0.60643 0.36435 0.0
C2106 C 0.67895 0.63073 0.40531 0.0
C2107 C 0.67061 0.63475 0.4351 0.0
C2108 C 0.64629 0.61829 0.3876 0.0
C2109 C 0.64974 0.63145 0.43989 0.0
C2110 C 0.61676 0.59568 0.37325 0.0
C2111 C 0.63375 0.59063 0.31369 0.0
N2112 N 0.63829 0.62297 0.41649 0.0
N2113 N 0.64198 0.60386 0.33469 0.0
H2114 H 0.68059 0.34362 0.60917 0.0
H2115 H 0.61662 0.44104 0.6506 0.0
H2116 H 0.66224 0.38883 0.54072 0.0
H2117 H 0.62169 0.39053 0.7152 0.0
H2118 H 0.62935 0.41957 0.6081 0.0
H2119 H 0.65557 0.3575 0.64641 0.0
C2120 C 0.67106 0.35621 0.60178 0.0
C2121 C 0.67384 0.36546 0.57217 0.0
C2122 C 0.6274 0.41295 0.63136 0.0
C2123 C 0.64536 0.38134 0.61443 0.0
C2124 C 0.62016 0.42524 0.65559 0.0
C2125 C 0.61837 0.41748 0.68625 0.0
C2126 C 0.6335 0.39292 0.6381 0.0
C2127 C 0.62295 0.39695 0.69169 0.0
C2128 C 0.65677 0.3641 0.62301 0.0
C2129 C 0.66096 0.38157 0.56362 0.0
N2130 N 0.63079 0.38541 0.66789 0.0
N2131 N 0.64751 0.38917 0.58482 0.0
H2132 H 0.84406 0.38829 0.95478 0.0
H2133 H 0.87694 0.39285 0.77334 0.0
H2134 H 0.81925 0.34833 0.88336 0.0
H2135 H 0.88658 0.44047 0.84198 0.0
H2136 H 0.8641 0.37069 0.81587 0.0
H2137 H 0.86832 0.40127 0.91619 0.0
C2138 C 0.84387 0.38207 0.93104 0.0
C2139 C 0.82928 0.3676 0.922 0.0
C2140 C 0.86943 0.38586 0.82161 0.0
C2141 C 0.85693 0.38252 0.87767 0.0
C2142 C 0.87681 0.39842 0.79746 0.0
C2143 C 0.88248 0.41851 0.80431 0.0
C2144 C 0.86807 0.39351 0.85259 0.0
C2145 C 0.88201 0.42513 0.83577 0.0
C2146 C 0.85775 0.38948 0.90903 0.0
C2147 C 0.83005 0.35975 0.89113 0.0
N2148 N 0.87476 0.41272 0.85871 0.0
N2149 N 0.84343 0.36759 0.86981 0.0
H2150 H 0.86464 0.5908 0.20717 0.0
H2151 H 0.85995 0.63615 0.03218 0.0
H2152 H 0.90771 0.5741 0.13448 0.0
H2153 H 0.80958 0.63367 0.09757 0.0
H2154 H 0.88227 0.62185 0.07344 0.0
H2155 H 0.84953 0.61547 0.17127 0.0
C2156 C 0.87106 0.59245 0.18372 0.0
C2157 C 0.88713 0.58002 0.1735 0.0
C2158 C 0.86641 0.62481 0.0788 0.0
C2159 C 0.8698 0.60821 0.13222 0.0
C2160 C 0.85375 0.63302 0.05543 0.0
C2161 C 0.83295 0.63581 0.06159 0.0
C2162 C 0.85812 0.61977 0.10842 0.0
C2163 C 0.82552 0.63146 0.09187 0.0
C2164 C 0.86243 0.60657 0.16325 0.0
C2165 C 0.89513 0.58319 0.1431 0.0
N2166 N 0.83807 0.62357 0.11411 0.0
N2167 N 0.88614 0.59679 0.12324 0.0
H2168 H 0.36041 0.3695 0.5345 0.0
H2169 H 0.36341 0.41577 0.7091 0.0
H2170 H 0.30945 0.37218 0.59875 0.0
H2171 H 0.4073 0.43201 0.63731 0.0
H2172 H 0.34855 0.39104 0.67303 0.0
H2173 H 0.3823 0.38418 0.57604 0.0
C2174 C 0.35399 0.37277 0.55755 0.0
C2175 C 0.33315 0.36992 0.56331 0.0
C2176 C 0.36157 0.39986 0.66524 0.0
C2177 C 0.35782 0.38636 0.61046 0.0
C2178 C 0.37006 0.41401 0.68581 0.0
C2179 C 0.3863 0.42632 0.67589 0.0
C2180 C 0.36926 0.39805 0.63442 0.0
C2181 C 0.39458 0.42302 0.6457 0.0
C2182 C 0.3664 0.38119 0.58108 0.0
C2183 C 0.32543 0.37443 0.59335 0.0
N2184 N 0.38574 0.40937 0.62574 0.0
N2185 N 0.33774 0.38252 0.61575 0.0
H2186 H 0.34508 0.62032 0.46302 0.0
H2187 H 0.41027 0.57694 0.35556 0.0
H2188 H 0.31892 0.65331 0.3846 0.0
H2189 H 0.3609 0.58976 0.29106 0.0
H2190 H 0.39651 0.60239 0.39206 0.0
H2191 H 0.37039 0.60594 0.42754 0.0
C2192 C 0.34497 0.62489 0.4384 0.0
C2193 C 0.32969 0.63771 0.42656 0.0
C2194 C 0.38872 0.59962 0.36991 0.0
C2195 C 0.35882 0.62153 0.38577 0.0
C2196 C 0.39665 0.58523 0.34897 0.0
C2197 C 0.38634 0.58083 0.32074 0.0
C2198 C 0.37035 0.60952 0.36242 0.0
C2199 C 0.369 0.59228 0.31302 0.0
C2200 C 0.35962 0.61685 0.41815 0.0
C2201 C 0.33035 0.64331 0.39459 0.0
N2202 N 0.36143 0.60595 0.33393 0.0
N2203 N 0.3444 0.63478 0.3751 0.0
H2204 H 0.18001 0.66092 0.10531 0.0
H2205 H 0.13859 0.59398 0.21183 0.0
H2206 H 0.16486 0.61328 0.03897 0.0
H2207 H 0.10309 0.56999 0.13436 0.0
H2208 H 0.15247 0.61975 0.17671 0.0
H2209 H 0.15526 0.64666 0.14253 0.0
C2210 C 0.17134 0.64759 0.09847 0.0
C2211 C 0.17491 0.63787 0.06947 0.0
C2212 C 0.14114 0.60936 0.1675 0.0
C2213 C 0.14705 0.62129 0.11196 0.0
C2214 C 0.1334 0.59442 0.18751 0.0
C2215 C 0.11996 0.57963 0.17578 0.0
C2216 C 0.13555 0.60934 0.13544 0.0
C2217 C 0.11357 0.58103 0.14423 0.0
C2218 C 0.15737 0.63935 0.11982 0.0
C2219 C 0.16299 0.6209 0.06148 0.0
N2220 N 0.12181 0.59535 0.12491 0.0
N2221 N 0.14976 0.613 0.08279 0.0
H2222 H 0.11636 0.4422 0.84704 0.0
H2223 H 0.18529 0.34665 0.88631 0.0
H2224 H 0.12624 0.39357 0.78028 0.0
H2225 H 0.16766 0.39245 0.95427 0.0
H2226 H 0.16021 0.36051 0.84913 0.0
H2227 H 0.13103 0.42124 0.88865 0.0
C2228 C 0.12139 0.42692 0.84133 0.0
C2229 C 0.12035 0.41961 0.81028 0.0
C2230 C 0.16165 0.3673 0.87237 0.0
C2231 C 0.13766 0.39566 0.85754 0.0
C2232 C 0.17596 0.35942 0.89357 0.0
C2233 C 0.17886 0.36871 0.92313 0.0
C2234 C 0.15025 0.38456 0.88091 0.0
C2235 C 0.16625 0.38508 0.93147 0.0
C2236 C 0.12977 0.41493 0.86506 0.0
C2237 C 0.12685 0.39969 0.80404 0.0
N2238 N 0.15269 0.39261 0.91034 0.0
N2239 N 0.13566 0.38848 0.82742 0.0
H2240 H 0.26504 0.20146 0.05075 0.0
H2241 H 0.21344 0.30342 0.9841 0.0
H2242 H 0.21438 0.20174 0.98552 0.0
H2243 H 0.26326 0.30294 0.05085 0.0
H2244 H 0.21375 0.26622 0.98388 0.0
H2245 H 0.26482 0.23863 0.05058 0.0
C2246 C 0.25386 0.20931 0.03638 0.0
C2247 C 0.23968 0.19838 0.01816 0.0
C2248 C 0.22462 0.27425 0.99856 0.0
C2249 C 0.23938 0.24107 0.01785 0.0
C2250 C 0.22445 0.29552 0.99871 0.0
C2251 C 0.23835 0.30639 0.01751 0.0
C2252 C 0.23878 0.2637 0.01734 0.0
C2253 C 0.25226 0.29526 0.03594 0.0
C2254 C 0.25375 0.23057 0.0363 0.0
C2255 C 0.2256 0.20947 -4e-05 0.0
N2256 N 0.25212 0.27457 0.03538 0.0
N2257 N 0.22581 0.23017 0.00028 0.0
H2258 H 0.95166 0.01328 0.29927 0.0
H2259 H 0.05424 0.96299 0.23237 0.0
H2260 H 0.95232 0.96295 0.23353 0.0
H2261 H 0.05304 0.01371 0.29735 0.0
H2262 H 0.01698 0.96284 0.23203 0.0
H2263 H 0.98882 0.01373 0.29843 0.0
C2264 C 0.95959 1.00232 0.28461 0.0
C2265 C 0.94877 0.98803 0.26646 0.0
C2266 C 0.02488 0.97401 0.24633 0.0
C2267 C 0.99148 0.98848 0.26541 0.0
C2268 C 0.04618 0.97412 0.24654 0.0
C2269 C 0.05686 0.98837 0.26496 0.0
C2270 C 0.01413 0.98825 0.26468 0.0
C2271 C 0.04552 1.00241 0.28282 0.0
C2272 C 0.98085 0.00259 0.28415 0.0
C2273 C 0.95997 0.97424 0.24793 0.0
N2274 N 0.02482 1.00197 0.28225 0.0
N2275 N 0.98069 0.9748 0.24791 0.0
H2276 H 0.24108 0.70167 0.54916 0.0
H2277 H 0.29224 0.80428 0.48419 0.0
H2278 H 0.29258 0.70245 0.4856 0.0
H2279 H 0.24099 0.80301 0.54821 0.0
H2280 H 0.29238 0.76707 0.48373 0.0
H2281 H 0.24063 0.7388 0.54843 0.0
C2282 C 0.2523 0.70962 0.53501 0.0
C2283 C 0.26692 0.69885 0.51745 0.0
C2284 C 0.28109 0.77493 0.49784 0.0
C2285 C 0.26646 0.74153 0.51651 0.0
C2286 C 0.28099 0.79621 0.49812 0.0
C2287 C 0.26659 0.80686 0.5163 0.0
C2288 C 0.26669 0.76417 0.51588 0.0
C2289 C 0.2524 0.79551 0.53386 0.0
C2290 C 0.25203 0.73087 0.53461 0.0
C2291 C 0.28104 0.71007 0.49954 0.0
N2292 N 0.25283 0.77483 0.53322 0.0
N2293 N 0.28046 0.73078 0.49956 0.0
H2294 H 0.45292 0.99038 0.79995 0.0
H2295 H 0.55473 0.04286 0.73433 0.0
H2296 H 0.45303 0.0411 0.7349 0.0
H2297 H 0.55446 0.99229 0.79965 0.0
H2298 H 0.51752 0.04226 0.73385 0.0
H2299 H 0.4901 0.99066 0.79966 0.0
C2300 C 0.46073 1.00157 0.78555 0.0
C2301 C 0.44976 0.01576 0.76744 0.0
C2302 C 0.5256 0.03129 0.74828 0.0
C2303 C 0.49247 0.01614 0.76704 0.0
C2304 C 0.54688 0.03162 0.74858 0.0
C2305 C 0.55781 0.0176 0.76707 0.0
C2306 C 0.5151 0.01686 0.76661 0.0
C2307 C 0.54673 0.00339 0.78502 0.0
C2308 C 0.482 1.00172 0.78542 0.0
C2309 C 0.4608 0.02987 0.74926 0.0
N2310 N 0.52602 0.0034 0.78434 0.0
N2311 N 0.48152 0.02971 0.74955 0.0
H2312 H 0.21396 0.80326 0.016 0.0
H2313 H 0.26575 0.70118 0.95034 0.0
H2314 H 0.26495 0.80263 0.95144 0.0
H2315 H 0.21424 0.7016 0.0139 0.0
H2316 H 0.26605 0.73833 0.9513 0.0
H2317 H 0.21423 0.76606 0.01638 0.0
C2318 C 0.22524 0.79533 0.00193 0.0
C2319 C 0.23944 0.80616 0.98361 0.0
C2320 C 0.25469 0.73031 0.96507 0.0
C2321 C 0.2398 0.76347 0.98394 0.0
C2322 C 0.2545 0.70905 0.96454 0.0
C2323 C 0.23991 0.69818 0.98201 0.0
C2324 C 0.2402 0.74085 0.98322 0.0
C2325 C 0.22576 0.70929 2e-05 0.0
C2326 C 0.22537 0.77406 0.00216 0.0
C2327 C 0.25369 0.79499 0.96589 0.0
N2328 N 0.22626 0.72999 0.00012 0.0
N2329 N 0.25348 0.77429 0.96648 0.0
H2330 H 0.55431 0.95965 0.25884 0.0
H2331 H 0.45173 0.01522 0.20298 0.0
H2332 H 0.55302 0.01593 0.20606 0.0
H2333 H 0.4523 0.96188 0.26274 0.0
H2334 H 0.48889 0.0152 0.2031 0.0
H2335 H 0.51704 0.95978 0.25999 0.0
C2336 C 0.54623 0.97203 0.24746 0.0
C2337 C 0.5569 0.98771 0.23205 0.0
C2338 C 0.48091 0.00351 0.21624 0.0
C2339 C 0.51417 0.98791 0.23327 0.0
C2340 C 0.45964 0.0035 0.21617 0.0
C2341 C 0.4488 0.98852 0.23287 0.0
C2342 C 0.49152 0.98841 0.23305 0.0
C2343 C 0.45998 0.97374 0.24953 0.0
C2344 C 0.52493 0.97208 0.24813 0.0
C2345 C 0.54554 0.00335 0.2178 0.0
N2346 N 0.4807 0.97404 0.24914 0.0
N2347 N 0.52485 0.00302 0.2187 0.0
H2348 H 0.29304 0.20098 0.51701 0.0
H2349 H 0.24222 0.3024 0.44706 0.0
H2350 H 0.2437 0.20098 0.4494 0.0
H2351 H 0.29082 0.30272 0.51596 0.0
H2352 H 0.24295 0.26525 0.44711 0.0
H2353 H 0.29281 0.23818 0.51646 0.0
C2354 C 0.28215 0.20877 0.50203 0.0
C2355 C 0.26834 0.19776 0.48325 0.0
C2356 C 0.25346 0.27343 0.46223 0.0
C2357 C 0.26803 0.24046 0.48251 0.0
C2358 C 0.25306 0.29468 0.46223 0.0
C2359 C 0.26644 0.30577 0.48162 0.0
C2360 C 0.26735 0.26309 0.48173 0.0
C2361 C 0.28019 0.29485 0.50065 0.0
C2362 C 0.28204 0.23004 0.50174 0.0
C2363 C 0.25461 0.20876 0.46432 0.0
N2364 N 0.28027 0.27414 0.50025 0.0
N2365 N 0.25481 0.22946 0.46445 0.0
H2366 H 0.05296 0.99128 0.70103 0.0
H2367 H 0.951 0.04395 0.76555 0.0
H2368 H 0.05276 0.0418 0.76642 0.0
H2369 H 0.95144 0.99231 0.7023 0.0
H2370 H 0.98821 0.04347 0.76611 0.0
H2371 H 0.01579 0.99154 0.70115 0.0
C2372 C 0.04513 1.00243 0.71546 0.0
C2373 C 0.05608 0.01655 0.73376 0.0
C2374 C 0.98017 0.03224 0.75212 0.0
C2375 C 0.01336 0.01692 0.73396 0.0
C2376 C 0.95889 0.0325 0.75177 0.0
C2377 C 0.948 0.01816 0.73379 0.0
C2378 C 0.99072 0.01757 0.73435 0.0
C2379 C 0.95913 0.0037 0.71645 0.0
C2380 C 0.02386 0.00256 0.71551 0.0
C2381 C 0.04501 0.03062 0.75196 0.0
N2382 N 0.97984 0.00379 0.71715 0.0
N2383 N 0.02428 0.03045 0.75157 0.0
H2384 H 0.79279 0.80289 0.01387 0.0
H2385 H 0.74153 0.70144 0.94459 0.0
H2386 H 0.74305 0.8032 0.94696 0.0
H2387 H 0.79066 0.70152 0.01257 0.0
H2388 H 0.74204 0.73867 0.94462 0.0
H2389 H 0.7924 0.76573 0.01319 0.0
C2390 C 0.78178 0.79518 0.99902 0.0
C2391 C 0.76791 0.80626 0.98047 0.0
C2392 C 0.75271 0.73053 0.95953 0.0
C2393 C 0.7674 0.76358 0.97958 0.0
C2394 C 0.75243 0.70925 0.95953 0.0
C2395 C 0.76605 0.69827 0.97866 0.0
C2396 C 0.76671 0.74096 0.97877 0.0
C2397 C 0.77985 0.70928 0.99746 0.0
C2398 C 0.78156 0.77392 0.99865 0.0
C2399 C 0.75402 0.79534 0.96169 0.0
N2400 N 0.77981 0.72998 0.99704 0.0
N2401 N 0.75412 0.77464 0.96174 0.0
H2402 H 0.7141 0.20101 0.51367 0.0
H2403 H 0.76361 0.30435 0.4484 0.0
H2404 H 0.76426 0.2028 0.44762 0.0
H2405 H 0.71257 0.30257 0.51281 0.0
H2406 H 0.76445 0.26718 0.44853 0.0
H2407 H 0.71369 0.23819 0.51436 0.0
C2408 C 0.72505 0.20919 0.49933 0.0
C2409 C 0.73923 0.1987 0.48053 0.0
C2410 C 0.75307 0.27492 0.46266 0.0
C2411 C 0.73883 0.24137 0.48123 0.0
C2412 C 0.75258 0.29618 0.46261 0.0
C2413 C 0.73798 0.30667 0.4806 0.0
C2414 C 0.73887 0.264 0.48084 0.0
C2415 C 0.7241 0.29518 0.49854 0.0
C2416 C 0.7248 0.23045 0.49973 0.0
C2417 C 0.75304 0.21019 0.46247 0.0
N2418 N 0.72489 0.2745 0.49819 0.0
N2419 N 0.75248 0.23087 0.46326 0.0
H2420 H 0.7421 0.20293 0.05047 0.0
H2421 H 0.79778 0.30426 0.98991 0.0
H2422 H 0.79434 0.20203 0.98837 0.0
H2423 H 0.74196 0.30377 0.04392 0.0
H2424 H 0.7975 0.26696 0.98984 0.0
H2425 H 0.74268 0.24 0.04942 0.0
C2426 C 0.75371 0.21051 0.03655 0.0
C2427 C 0.76818 0.19927 0.01942 0.0
C2428 C 0.78535 0.27505 0.00174 0.0
C2429 C 0.76894 0.24193 0.01819 0.0
C2430 C 0.78548 0.29635 0.00179 0.0
C2431 C 0.76998 0.30724 0.01726 0.0
C2432 C 0.7696 0.26455 0.01727 0.0
C2433 C 0.75441 0.29612 0.03214 0.0
C2434 C 0.75402 0.23173 0.03596 0.0
C2435 C 0.78287 0.21003 0.00192 0.0
N2436 N 0.75466 0.27545 0.03183 0.0
N2437 N 0.78288 0.23076 0.00178 0.0
H2438 H 0.70913 0.80434 0.48951 0.0
H2439 H 0.76259 0.70178 0.54986 0.0
H2440 H 0.76485 0.80248 0.54374 0.0
H2441 H 0.71137 0.70191 0.4857 0.0
H2442 H 0.76242 0.73885 0.54951 0.0
H2443 H 0.70868 0.76701 0.48898 0.0
C2444 C 0.72124 0.79613 0.50134 0.0
C2445 C 0.73692 0.80664 0.51704 0.0
C2446 C 0.75122 0.73081 0.53545 0.0
C2447 C 0.73646 0.76394 0.51655 0.0
C2448 C 0.75128 0.70958 0.53567 0.0
C2449 C 0.73701 0.69864 0.5177 0.0
C2450 C 0.73673 0.74131 0.51724 0.0
C2451 C 0.7227 0.70969 0.49986 0.0
C2452 C 0.72096 0.77482 0.50103 0.0
C2453 C 0.75225 0.79514 0.53184 0.0
N2454 N 0.72292 0.73042 0.5001 0.0
N2455 N 0.75159 0.77449 0.53129 0.0
H2456 H 0.55463 0.46124 0.73274 0.0
H2457 H 0.45312 0.51332 0.80012 0.0
H2458 H 0.55468 0.51169 0.79824 0.0
H2459 H 0.45289 0.46315 0.73409 0.0
H2460 H 0.49029 0.51304 0.79943 0.0
H2461 H 0.51742 0.4618 0.7327 0.0
C2462 C 0.54684 0.47246 0.74711 0.0
C2463 C 0.55787 0.48645 0.76552 0.0
C2464 C 0.48213 0.5021 0.78506 0.0
C2465 C 0.51515 0.48715 0.76558 0.0
C2466 C 0.46085 0.50224 0.78542 0.0
C2467 C 0.44978 0.48822 0.76714 0.0
C2468 C 0.4925 0.48783 0.76629 0.0
C2469 C 0.46073 0.47425 0.74858 0.0
C2470 C 0.52556 0.47276 0.74706 0.0
C2471 C 0.54688 0.50061 0.78365 0.0
N2472 N 0.48146 0.4744 0.74866 0.0
N2473 N 0.52616 0.50058 0.78323 0.0
H2474 H 0.05544 0.54353 0.23317 0.0
H2475 H 0.95284 0.49286 0.29921 0.0
H2476 H 0.05435 0.49275 0.29807 0.0
H2477 H 0.95369 0.54314 0.23335 0.0
H2478 H 0.99002 0.49256 0.29887 0.0
H2479 H 0.01822 0.54355 0.23271 0.0
C2480 C 0.0474 0.53236 0.24732 0.0
C2481 C 0.0581 0.51812 0.26573 0.0
C2482 C 0.98208 0.50365 0.28446 0.0
C2483 C 0.0154 0.51809 0.2653 0.0
C2484 C 0.96082 0.50384 0.28463 0.0
C2485 C 0.95006 0.51806 0.26627 0.0
C2486 C 0.99276 0.51778 0.26582 0.0
C2487 C 0.9613 0.5319 0.24789 0.0
C2488 C 0.02612 0.53239 0.24704 0.0
C2489 C 0.0468 0.50403 0.28354 0.0
N2490 N 0.98201 0.53141 0.24815 0.0
N2491 N 0.0261 0.50439 0.2829 0.0
H2492 H 0.05173 0.45986 0.75938 0.0
H2493 H 0.94982 0.5177 0.70607 0.0
H2494 H 0.05062 0.51594 0.70614 0.0
H2495 H 0.94916 0.46063 0.75672 0.0
H2496 H 0.98686 0.51727 0.70699 0.0
H2497 H 0.01437 0.45992 0.75999 0.0
C2498 C 0.04367 0.47218 0.74782 0.0
C2499 C 0.0544 0.48783 0.73244 0.0
C2500 C 0.97867 0.50479 0.71788 0.0
C2501 C 0.01164 0.48799 0.7331 0.0
C2502 C 0.95744 0.50498 0.71723 0.0
C2503 C 0.94626 0.48906 0.73102 0.0
C2504 C 0.98898 0.4886 0.73252 0.0
C2505 C 0.95711 0.47321 0.74571 0.0
C2506 C 0.02234 0.47218 0.74815 0.0
C2507 C 0.04309 0.5034 0.71791 0.0
N2508 N 0.97787 0.47335 0.74602 0.0
N2509 N 0.02241 0.50306 0.7186 0.0
H2510 H 0.44949 0.48899 0.20397 0.0
H2511 H 0.55212 0.5449 0.25902 0.0
H2512 H 0.45007 0.54262 0.26308 0.0
H2513 H 0.55071 0.48919 0.20483 0.0
H2514 H 0.51484 0.54464 0.2606 0.0
H2515 H 0.48664 0.4892 0.2037 0.0
C2516 C 0.45741 0.50082 0.21695 0.0
C2517 C 0.44657 0.51583 0.23356 0.0
C2518 C 0.52271 0.5325 0.24832 0.0
C2519 C 0.48928 0.51615 0.23331 0.0
C2520 C 0.54401 0.53263 0.24741 0.0
C2521 C 0.55464 0.51714 0.23149 0.0
C2522 C 0.51192 0.51676 0.23324 0.0
C2523 C 0.54326 0.50162 0.21698 0.0
C2524 C 0.47867 0.50091 0.21679 0.0
C2525 C 0.45774 0.53073 0.24995 0.0
N2526 N 0.52258 0.50185 0.21817 0.0
N2527 N 0.47847 0.53054 0.24936 0.0
loop_
_geom_bond_atom_site_label_1
_geom_bond_atom_site_label_2
_geom_bond_distance
_geom_bond_site_symmetry_2
_ccdc_geom_bond_type
Co0 O3 1.970 . S
Co0 N17 1.989 . S
Co0 O25 1.967 1_554 S
Co0 O32 1.920 1_554 S
Co1 O4 1.966 . S
Co1 N10 2.022 . S
Co1 N18 1.993 . S
Co1 O26 1.941 . S
C2 O3 1.258 . S
C2 O4 1.263 . S
O3 Co0 1.970 . S
O3 C2 1.258 . S
O4 Co1 1.966 . S
O4 C2 1.263 . S
C5 O6 1.235 . S
C5 O32 1.289 . S
O6 C5 1.235 . S
C7 C9 1.400 . S
C7 N10 1.351 . S
C7 C12 1.501 . S
C8 C9 1.387 . S
C8 N11 1.341 . S
C9 C7 1.400 . S
C9 C8 1.387 . S
N10 Co1 2.022 . S
N10 C7 1.351 . S
N10 N11 1.365 . S
N11 C8 1.341 . S
N11 N10 1.365 . S
N11 H31 0.862 . S
C12 C7 1.501 . S
C12 H13 0.961 . S
C12 H14 0.961 . S
C12 H15 0.960 . S
H13 C12 0.961 . S
H14 C12 0.961 . S
H15 C12 0.960 . S
C16 N17 1.342 . S
C16 C20 1.401 . S
C16 C21 1.499 . S
N17 Co0 1.989 . S
N17 C16 1.342 . S
N17 N18 1.388 . S
N18 Co1 1.993 . S
N18 N17 1.388 . S
N18 C19 1.346 . S
C19 N18 1.346 . S
C19 C20 1.396 . S
C19 C29 1.510 . S
C20 C16 1.401 . S
C20 C19 1.396 . S
C21 C16 1.499 . S
C21 H22 0.959 . S
C21 H23 0.960 . S
C21 H24 0.961 . S
H22 C21 0.959 . S
H23 C21 0.960 . S
H24 C21 0.961 . S
O25 Co0 1.967 1_556 S
O25 C33 1.258 1_556 S
O26 Co1 1.941 . S
O26 C33 1.266 . S
H27 C29 0.959 . S
H28 C29 0.961 . S
C29 C19 1.510 . S
C29 H27 0.959 . S
C29 H28 0.961 . S
C29 H30 0.960 . S
H30 C29 0.960 . S
H31 N11 0.862 . S
O32 Co0 1.920 1_556 S
O32 C5 1.289 . S
C33 O25 1.258 1_554 S
C33 O26 1.266 . S
Co34 O37 1.970 . S
Co34 N51 1.989 . S
Co34 O59 1.967 . S
Co34 O66 1.920 . S
Co35 O38 1.966 . S
Co35 N44 2.022 . S
Co35 N52 1.993 . S
Co35 O60 1.941 . S
C36 O37 1.258 . S
C36 O38 1.263 . S
O37 Co34 1.970 . S
O37 C36 1.258 . S
O38 Co35 1.966 . S
O38 C36 1.263 . S
C39 O40 1.235 . S
C39 O66 1.289 . S
O40 C39 1.235 . S
C41 C43 1.400 . S
C41 N44 1.351 . S
C41 C46 1.501 . S
C42 C43 1.387 . S
C42 N45 1.341 . S
C43 C41 1.400 . S
C43 C42 1.387 . S
N44 Co35 2.022 . S
N44 C41 1.351 . S
N44 N45 1.365 . S
N45 C42 1.341 . S
N45 N44 1.365 . S
N45 H65 0.862 . S
C46 C41 1.501 . S
C46 H47 0.961 . S
C46 H48 0.961 . S
C46 H49 0.960 . S
H47 C46 0.961 . S
H48 C46 0.961 . S
H49 C46 0.960 . S
C50 N51 1.342 . S
C50 C54 1.401 . S
C50 C55 1.499 . S
N51 Co34 1.989 . S
N51 C50 1.342 . S
N51 N52 1.388 . S
N52 Co35 1.993 . S
N52 N51 1.388 . S
N52 C53 1.346 . S
C53 N52 1.346 . S
C53 C54 1.396 . S
C53 C63 1.510 . S
C54 C50 1.401 . S
C54 C53 1.396 . S
C55 C50 1.499 . S
C55 H56 0.959 . S
C55 H57 0.960 . S
C55 H58 0.961 . S
H56 C55 0.959 . S
H57 C55 0.960 . S
H58 C55 0.961 . S
O59 Co34 1.967 . S
O59 C67 1.258 . S
O60 Co35 1.941 . S
O60 C67 1.266 . S
H61 C63 0.959 . S
H62 C63 0.961 . S
C63 C53 1.510 . S
C63 H61 0.959 . S
C63 H62 0.961 . S
C63 H64 0.960 . S
H64 C63 0.960 . S
H65 N45 0.862 . S
O66 Co34 1.920 . S
O66 C39 1.289 . S
C67 O59 1.258 . S
C67 O60 1.266 . S
Co68 O71 1.970 . S
Co68 N85 1.989 . S
Co68 O93 1.967 . S
Co68 O100 1.920 . S
Co69 O72 1.966 . S
Co69 N78 2.022 . S
Co69 N86 1.993 . S
Co69 O94 1.941 . S
C70 O71 1.258 . S
C70 O72 1.263 . S
O71 Co68 1.970 . S
O71 C70 1.258 . S
O72 Co69 1.966 . S
O72 C70 1.263 . S
C73 O74 1.235 . S
C73 O100 1.289 . S
O74 C73 1.235 . S
C75 C77 1.400 . S
C75 N78 1.351 . S
C75 C80 1.501 . S
C76 C77 1.387 . S
C76 N79 1.341 . S
C77 C75 1.400 . S
C77 C76 1.387 . S
N78 Co69 2.022 . S
N78 C75 1.351 . S
N78 N79 1.365 . S
N79 C76 1.341 . S
N79 N78 1.365 . S
N79 H99 0.862 . S
C80 C75 1.501 . S
C80 H81 0.961 . S
C80 H82 0.961 . S
C80 H83 0.960 . S
H81 C80 0.961 . S
H82 C80 0.961 . S
H83 C80 0.960 . S
C84 N85 1.342 . S
C84 C88 1.401 . S
C84 C89 1.499 . S
N85 Co68 1.989 . S
N85 C84 1.342 . S
N85 N86 1.388 . S
N86 Co69 1.993 . S
N86 N85 1.388 . S
N86 C87 1.346 . S
C87 N86 1.346 . S
C87 C88 1.396 . S
C87 C97 1.510 . S
C88 C84 1.401 . S
C88 C87 1.396 . S
C89 C84 1.499 . S
C89 H90 0.959 . S
C89 H91 0.960 . S
C89 H92 0.961 . S
H90 C89 0.959 . S
H91 C89 0.960 . S
H92 C89 0.961 . S
O93 Co68 1.967 . S
O93 C101 1.258 . S
O94 Co69 1.941 . S
O94 C101 1.266 . S
H95 C97 0.959 . S
H96 C97 0.961 . S
C97 C87 1.510 . S
C97 H95 0.959 . S
C97 H96 0.961 . S
C97 H98 0.960 . S
H98 C97 0.960 . S
H99 N79 0.862 . S
O100 Co68 1.920 . S
O100 C73 1.289 . S
C101 O93 1.258 . S
C101 O94 1.266 . S
Co102 O105 1.970 . S
Co102 N119 1.989 . S
Co102 O127 1.967 . S
Co102 O134 1.920 . S
Co103 O106 1.966 . S
Co103 N112 2.022 . S
Co103 N120 1.993 . S
Co103 O128 1.941 . S
C104 O105 1.258 . S
C104 O106 1.263 . S
O105 Co102 1.970 . S
O105 C104 1.258 . S
O106 Co103 1.966 . S
O106 C104 1.263 . S
C107 O108 1.235 . S
C107 O134 1.289 . S
O108 C107 1.235 . S
C109 C111 1.400 . S
C109 N112 1.351 . S
C109 C114 1.501 . S
C110 C111 1.387 . S
C110 N113 1.341 . S
C111 C109 1.400 . S
C111 C110 1.387 . S
N112 Co103 2.022 . S
N112 C109 1.351 . S
N112 N113 1.365 . S
N113 C110 1.341 . S
N113 N112 1.365 . S
N113 H133 0.862 . S
C114 C109 1.501 . S
C114 H115 0.961 . S
C114 H116 0.961 . S
C114 H117 0.960 . S
H115 C114 0.961 . S
H116 C114 0.961 . S
H117 C114 0.960 . S
C118 N119 1.342 . S
C118 C122 1.401 . S
C118 C123 1.499 . S
N119 Co102 1.989 . S
N119 C118 1.342 . S
N119 N120 1.388 . S
N120 Co103 1.993 . S
N120 N119 1.388 . S
N120 C121 1.346 . S
C121 N120 1.346 . S
C121 C122 1.396 . S
C121 C131 1.510 . S
C122 C118 1.401 . S
C122 C121 1.396 . S
C123 C118 1.499 . S
C123 H124 0.959 . S
C123 H125 0.960 . S
C123 H126 0.961 . S
H124 C123 0.959 . S
H125 C123 0.960 . S
H126 C123 0.961 . S
O127 Co102 1.967 . S
O127 C135 1.258 . S
O128 Co103 1.941 . S
O128 C135 1.266 . S
H129 C131 0.959 . S
H130 C131 0.961 . S
C131 C121 1.510 . S
C131 H129 0.959 . S
C131 H130 0.961 . S
C131 H132 0.960 . S
H132 C131 0.960 . S
H133 N113 0.862 . S
O134 Co102 1.920 . S
O134 C107 1.289 . S
C135 O127 1.258 . S
C135 O128 1.266 . S
Co136 O139 1.970 . S
Co136 N153 1.989 . S
Co136 O161 1.967 1_556 S
Co136 O168 1.920 1_556 S
Co137 O140 1.966 . S
Co137 N146 2.022 . S
Co137 N154 1.993 . S
Co137 O162 1.941 . S
C138 O139 1.258 . S
C138 O140 1.263 . S
O139 Co136 1.970 . S
O139 C138 1.258 . S
O140 Co137 1.966 . S
O140 C138 1.263 . S
C141 O142 1.235 . S
C141 O168 1.289 . S
O142 C141 1.235 . S
C143 C145 1.400 . S
C143 N146 1.351 . S
C143 C148 1.501 . S
C144 C145 1.387 . S
C144 N147 1.341 . S
C145 C143 1.400 . S
C145 C144 1.387 . S
N146 Co137 2.022 . S
N146 C143 1.351 . S
N146 N147 1.365 . S
N147 C144 1.341 . S
N147 N146 1.365 . S
N147 H167 0.862 . S
C148 C143 1.501 . S
C148 H149 0.961 . S
C148 H150 0.961 . S
C148 H151 0.960 . S
H149 C148 0.961 . S
H150 C148 0.961 . S
H151 C148 0.960 . S
C152 N153 1.342 . S
C152 C156 1.401 . S
C152 C157 1.499 . S
N153 Co136 1.989 . S
N153 C152 1.342 . S
N153 N154 1.388 . S
N154 Co137 1.993 . S
N154 N153 1.388 . S
N154 C155 1.346 . S
C155 N154 1.346 . S
C155 C156 1.396 . S
C155 C165 1.510 . S
C156 C152 1.401 . S
C156 C155 1.396 . S
C157 C152 1.499 . S
C157 H158 0.959 . S
C157 H159 0.960 . S
C157 H160 0.961 . S
H158 C157 0.959 . S
H159 C157 0.960 . S
H160 C157 0.961 . S
O161 Co136 1.967 1_554 S
O161 C169 1.258 1_554 S
O162 Co137 1.941 . S
O162 C169 1.266 . S
H163 C165 0.959 . S
H164 C165 0.961 . S
C165 C155 1.510 . S
C165 H163 0.959 . S
C165 H164 0.961 . S
C165 H166 0.960 . S
H166 C165 0.960 . S
H167 N147 0.862 . S
O168 Co136 1.920 1_554 S
O168 C141 1.289 . S
C169 O161 1.258 1_556 S
C169 O162 1.266 . S
Co170 O173 1.970 . S
Co170 N187 1.989 . S
Co170 O195 1.967 . S
Co170 O202 1.920 . S
Co171 O174 1.966 . S
Co171 N180 2.022 . S
Co171 N188 1.993 . S
Co171 O196 1.941 . S
C172 O173 1.258 . S
C172 O174 1.263 . S
O173 Co170 1.970 . S
O173 C172 1.258 . S
O174 Co171 1.966 . S
O174 C172 1.263 . S
C175 O176 1.235 . S
C175 O202 1.289 . S
O176 C175 1.235 . S
C177 C179 1.400 . S
C177 N180 1.351 . S
C177 C182 1.501 . S
C178 C179 1.387 . S
C178 N181 1.341 . S
C179 C177 1.400 . S
C179 C178 1.387 . S
N180 Co171 2.022 . S
N180 C177 1.351 . S
N180 N181 1.365 . S
N181 C178 1.341 . S
N181 N180 1.365 . S
N181 H201 0.862 . S
C182 C177 1.501 . S
C182 H183 0.961 . S
C182 H184 0.961 . S
C182 H185 0.960 . S
H183 C182 0.961 . S
H184 C182 0.961 . S
H185 C182 0.960 . S
C186 N187 1.342 . S
C186 C190 1.401 . S
C186 C191 1.499 . S
N187 Co170 1.989 . S
N187 C186 1.342 . S
N187 N188 1.388 . S
N188 Co171 1.993 . S
N188 N187 1.388 . S
N188 C189 1.346 . S
C189 N188 1.346 . S
C189 C190 1.396 . S
C189 C199 1.510 . S
C190 C186 1.401 . S
C190 C189 1.396 . S
C191 C186 1.499 . S
C191 H192 0.959 . S
C191 H193 0.960 . S
C191 H194 0.961 . S
H192 C191 0.959 . S
H193 C191 0.960 . S
H194 C191 0.961 . S
O195 Co170 1.967 . S
O195 C203 1.258 . S
O196 Co171 1.941 . S
O196 C203 1.266 . S
H197 C199 0.959 . S
H198 C199 0.961 . S
C199 C189 1.510 . S
C199 H197 0.959 . S
C199 H198 0.961 . S
C199 H200 0.960 . S
H200 C199 0.960 . S
H201 N181 0.862 . S
O202 Co170 1.920 . S
O202 C175 1.289 . S
C203 O195 1.258 . S
C203 O196 1.266 . S
Co204 O207 1.970 . S
Co204 N221 1.989 . S
Co204 O229 1.967 . S
Co204 O236 1.920 . S
Co205 O208 1.966 . S
Co205 N214 2.022 . S
Co205 N222 1.993 . S
Co205 O230 1.941 . S
C206 O207 1.258 . S
C206 O208 1.263 . S
O207 Co204 1.970 . S
O207 C206 1.258 . S
O208 Co205 1.966 . S
O208 C206 1.263 . S
C209 O210 1.235 . S
C209 O236 1.289 . S
O210 C209 1.235 . S
C211 C213 1.400 . S
C211 N214 1.351 . S
C211 C216 1.501 . S
C212 C213 1.387 . S
C212 N215 1.341 . S
C213 C211 1.400 . S
C213 C212 1.387 . S
N214 Co205 2.022 . S
N214 C211 1.351 . S
N214 N215 1.365 . S
N215 C212 1.341 . S
N215 N214 1.365 . S
N215 H235 0.862 . S
C216 C211 1.501 . S
C216 H217 0.961 . S
C216 H218 0.961 . S
C216 H219 0.960 . S
H217 C216 0.961 . S
H218 C216 0.961 . S
H219 C216 0.960 . S
C220 N221 1.342 . S
C220 C224 1.401 . S
C220 C225 1.499 . S
N221 Co204 1.989 . S
N221 C220 1.342 . S
N221 N222 1.388 . S
N222 Co205 1.993 . S
N222 N221 1.388 . S
N222 C223 1.346 . S
C223 N222 1.346 . S
C223 C224 1.396 . S
C223 C233 1.510 . S
C224 C220 1.401 . S
C224 C223 1.396 . S
C225 C220 1.499 . S
C225 H226 0.959 . S
C225 H227 0.960 . S
C225 H228 0.961 . S
H226 C225 0.959 . S
H227 C225 0.960 . S
H228 C225 0.961 . S
O229 Co204 1.967 . S
O229 C237 1.258 . S
O230 Co205 1.941 . S
O230 C237 1.266 . S
H231 C233 0.959 . S
H232 C233 0.961 . S
C233 C223 1.510 . S
C233 H231 0.959 . S
C233 H232 0.961 . S
C233 H234 0.960 . S
H234 C233 0.960 . S
H235 N215 0.862 . S
O236 Co204 1.920 . S
O236 C209 1.289 . S
C237 O229 1.258 . S
C237 O230 1.266 . S
Co238 O241 1.970 . S
Co238 N255 1.989 . S
Co238 O263 1.967 . S
Co238 O270 1.920 . S
Co239 O242 1.966 . S
Co239 N248 2.022 . S
Co239 N256 1.993 . S
Co239 O264 1.941 . S
C240 O241 1.258 . S
C240 O242 1.263 . S
O241 Co238 1.970 . S
O241 C240 1.258 . S
O242 Co239 1.966 . S
O242 C240 1.263 . S
C243 O244 1.235 . S
C243 O270 1.289 . S
O244 C243 1.235 . S
C245 C247 1.400 . S
C245 N248 1.351 . S
C245 C250 1.501 . S
C246 C247 1.387 . S
C246 N249 1.341 . S
C247 C245 1.400 . S
C247 C246 1.387 . S
N248 Co239 2.022 . S
N248 C245 1.351 . S
N248 N249 1.365 . S
N249 C246 1.341 . S
N249 N248 1.365 . S
N249 H269 0.862 . S
C250 C245 1.501 . S
C250 H251 0.961 . S
C250 H252 0.961 . S
C250 H253 0.960 . S
H251 C250 0.961 . S
H252 C250 0.961 . S
H253 C250 0.960 . S
C254 N255 1.342 . S
C254 C258 1.401 . S
C254 C259 1.499 . S
N255 Co238 1.989 . S
N255 C254 1.342 . S
N255 N256 1.388 . S
N256 Co239 1.993 . S
N256 N255 1.388 . S
N256 C257 1.346 . S
C257 N256 1.346 . S
C257 C258 1.396 . S
C257 C267 1.510 . S
C258 C254 1.401 . S
C258 C257 1.396 . S
C259 C254 1.499 . S
C259 H260 0.959 . S
C259 H261 0.960 . S
C259 H262 0.961 . S
H260 C259 0.959 . S
H261 C259 0.960 . S
H262 C259 0.961 . S
O263 Co238 1.967 . S
O263 C271 1.258 . S
O264 Co239 1.941 . S
O264 C271 1.266 . S
H265 C267 0.959 . S
H266 C267 0.961 . S
C267 C257 1.510 . S
C267 H265 0.959 . S
C267 H266 0.961 . S
C267 H268 0.960 . S
H268 C267 0.960 . S
H269 N249 0.862 . S
O270 Co238 1.920 . S
O270 C243 1.289 . S
C271 O263 1.258 . S
C271 O264 1.266 . S
Co272 O275 1.970 . S
Co272 N289 1.989 . S
Co272 O297 1.967 1_556 S
Co272 O304 1.920 1_556 S
Co273 O276 1.966 . S
Co273 N282 2.022 . S
Co273 N290 1.993 . S
Co273 O298 1.941 . S
C274 O275 1.258 . S
C274 O276 1.263 . S
O275 Co272 1.970 . S
O275 C274 1.258 . S
O276 Co273 1.966 . S
O276 C274 1.263 . S
C277 O278 1.235 . S
C277 O304 1.289 . S
O278 C277 1.235 . S
C279 C281 1.400 . S
C279 N282 1.351 . S
C279 C284 1.501 . S
C280 C281 1.387 . S
C280 N283 1.341 . S
C281 C279 1.400 . S
C281 C280 1.387 . S
N282 Co273 2.022 . S
N282 C279 1.351 . S
N282 N283 1.365 . S
N283 C280 1.341 . S
N283 N282 1.365 . S
N283 H303 0.862 . S
C284 C279 1.501 . S
C284 H285 0.961 . S
C284 H286 0.961 . S
C284 H287 0.960 . S
H285 C284 0.961 . S
H286 C284 0.961 . S
H287 C284 0.960 . S
C288 N289 1.342 . S
C288 C292 1.401 . S
C288 C293 1.499 . S
N289 Co272 1.989 . S
N289 C288 1.342 . S
N289 N290 1.388 . S
N290 Co273 1.993 . S
N290 N289 1.388 . S
N290 C291 1.346 . S
C291 N290 1.346 . S
C291 C292 1.396 . S
C291 C301 1.510 . S
C292 C288 1.401 . S
C292 C291 1.396 . S
C293 C288 1.499 . S
C293 H294 0.959 . S
C293 H295 0.960 . S
C293 H296 0.961 . S
H294 C293 0.959 . S
H295 C293 0.960 . S
H296 C293 0.961 . S
O297 Co272 1.967 1_554 S
O297 C305 1.258 1_554 S
O298 Co273 1.941 . S
O298 C305 1.266 . S
H299 C301 0.959 . S
H300 C301 0.961 . S
C301 C291 1.510 . S
C301 H299 0.959 . S
C301 H300 0.961 . S
C301 H302 0.960 . S
H302 C301 0.960 . S
H303 N283 0.862 . S
O304 Co272 1.920 1_554 S
O304 C277 1.289 . S
C305 O297 1.258 1_556 S
C305 O298 1.266 . S
Co306 O309 1.970 . S
Co306 N323 1.989 . S
Co306 O331 1.967 . S
Co306 O338 1.920 . S
Co307 O310 1.966 . S
Co307 N316 2.022 . S
Co307 N324 1.993 . S
Co307 O332 1.941 . S
C308 O309 1.258 . S
C308 O310 1.263 . S
O309 Co306 1.970 . S
O309 C308 1.258 . S
O310 Co307 1.966 . S
O310 C308 1.263 . S
C311 O312 1.235 . S
C311 O338 1.289 . S
O312 C311 1.235 . S
C313 C315 1.400 . S
C313 N316 1.351 . S
C313 C318 1.501 . S
C314 C315 1.387 . S
C314 N317 1.341 . S
C315 C313 1.400 . S
C315 C314 1.387 . S
N316 Co307 2.022 . S
N316 C313 1.351 . S
N316 N317 1.365 . S
N317 C314 1.341 . S
N317 N316 1.365 . S
N317 H337 0.862 . S
C318 C313 1.501 . S
C318 H319 0.961 . S
C318 H320 0.961 . S
C318 H321 0.960 . S
H319 C318 0.961 . S
H320 C318 0.961 . S
H321 C318 0.960 . S
C322 N323 1.342 . S
C322 C326 1.401 . S
C322 C327 1.499 . S
N323 Co306 1.989 . S
N323 C322 1.342 . S
N323 N324 1.388 . S
N324 Co307 1.993 . S
N324 N323 1.388 . S
N324 C325 1.346 . S
C325 N324 1.346 . S
C325 C326 1.396 . S
C325 C335 1.510 . S
C326 C322 1.401 . S
C326 C325 1.396 . S
C327 C322 1.499 . S
C327 H328 0.959 . S
C327 H329 0.960 . S
C327 H330 0.961 . S
H328 C327 0.959 . S
H329 C327 0.960 . S
H330 C327 0.961 . S
O331 Co306 1.967 . S
O331 C339 1.258 . S
O332 Co307 1.941 . S
O332 C339 1.266 . S
H333 C335 0.959 . S
H334 C335 0.961 . S
C335 C325 1.510 . S
C335 H333 0.959 . S
C335 H334 0.961 . S
C335 H336 0.960 . S
H336 C335 0.960 . S
H337 N317 0.862 . S
O338 Co306 1.920 . S
O338 C311 1.289 . S
C339 O331 1.258 . S
C339 O332 1.266 . S
Co340 O343 1.970 . S
Co340 N357 1.989 . S
Co340 O365 1.967 . S
Co340 O372 1.920 . S
Co341 O344 1.966 . S
Co341 N350 2.022 . S
Co341 N358 1.993 . S
Co341 O366 1.941 . S
C342 O343 1.258 . S
C342 O344 1.263 . S
O343 Co340 1.970 . S
O343 C342 1.258 . S
O344 Co341 1.966 . S
O344 C342 1.263 . S
C345 O346 1.235 . S
C345 O372 1.289 . S
O346 C345 1.235 . S
C347 C349 1.400 . S
C347 N350 1.351 . S
C347 C352 1.501 . S
C348 C349 1.387 . S
C348 N351 1.341 . S
C349 C347 1.400 . S
C349 C348 1.387 . S
N350 Co341 2.022 . S
N350 C347 1.351 . S
N350 N351 1.365 . S
N351 C348 1.341 . S
N351 N350 1.365 . S
N351 H371 0.862 . S
C352 C347 1.501 . S
C352 H353 0.961 . S
C352 H354 0.961 . S
C352 H355 0.960 . S
H353 C352 0.961 . S
H354 C352 0.961 . S
H355 C352 0.960 . S
C356 N357 1.342 . S
C356 C360 1.401 . S
C356 C361 1.499 . S
N357 Co340 1.989 . S
N357 C356 1.342 . S
N357 N358 1.388 . S
N358 Co341 1.993 . S
N358 N357 1.388 . S
N358 C359 1.346 . S
C359 N358 1.346 . S
C359 C360 1.396 . S
C359 C369 1.510 . S
C360 C356 1.401 . S
C360 C359 1.396 . S
C361 C356 1.499 . S
C361 H362 0.959 . S
C361 H363 0.960 . S
C361 H364 0.961 . S
H362 C361 0.959 . S
H363 C361 0.960 . S
H364 C361 0.961 . S
O365 Co340 1.967 . S
O365 C373 1.258 . S
O366 Co341 1.941 . S
O366 C373 1.266 . S
H367 C369 0.959 . S
H368 C369 0.961 . S
C369 C359 1.510 . S
C369 H367 0.959 . S
C369 H368 0.961 . S
C369 H370 0.960 . S
H370 C369 0.960 . S
H371 N351 0.862 . S
O372 Co340 1.920 . S
O372 C345 1.289 . S
C373 O365 1.258 . S
C373 O366 1.266 . S
Co374 O377 1.970 . S
Co374 N391 1.989 . S
Co374 O399 1.967 . S
Co374 O406 1.920 . S
Co375 O378 1.966 . S
Co375 N384 2.022 . S
Co375 N392 1.993 . S
Co375 O400 1.941 . S
C376 O377 1.258 . S
C376 O378 1.263 . S
O377 Co374 1.970 . S
O377 C376 1.258 . S
O378 Co375 1.966 . S
O378 C376 1.263 . S
C379 O380 1.235 . S
C379 O406 1.289 . S
O380 C379 1.235 . S
C381 C383 1.400 . S
C381 N384 1.351 . S
C381 C386 1.501 . S
C382 C383 1.387 . S
C382 N385 1.341 . S
C383 C381 1.400 . S
C383 C382 1.387 . S
N384 Co375 2.022 . S
N384 C381 1.351 . S
N384 N385 1.365 . S
N385 C382 1.341 . S
N385 N384 1.365 . S
N385 H405 0.862 . S
C386 C381 1.501 . S
C386 H387 0.961 . S
C386 H388 0.961 . S
C386 H389 0.960 . S
H387 C386 0.961 . S
H388 C386 0.961 . S
H389 C386 0.960 . S
C390 N391 1.342 . S
C390 C394 1.401 . S
C390 C395 1.499 . S
N391 Co374 1.989 . S
N391 C390 1.342 . S
N391 N392 1.388 . S
N392 Co375 1.993 . S
N392 N391 1.388 . S
N392 C393 1.346 . S
C393 N392 1.346 . S
C393 C394 1.396 . S
C393 C403 1.510 . S
C394 C390 1.401 . S
C394 C393 1.396 . S
C395 C390 1.499 . S
C395 H396 0.959 . S
C395 H397 0.960 . S
C395 H398 0.961 . S
H396 C395 0.959 . S
H397 C395 0.960 . S
H398 C395 0.961 . S
O399 Co374 1.967 . S
O399 C407 1.258 . S
O400 Co375 1.941 . S
O400 C407 1.266 . S
H401 C403 0.959 . S
H402 C403 0.961 . S
C403 C393 1.510 . S
C403 H401 0.959 . S
C403 H402 0.961 . S
C403 H404 0.960 . S
H404 C403 0.960 . S
H405 N385 0.862 . S
O406 Co374 1.920 . S
O406 C379 1.289 . S
C407 O399 1.258 . S
C407 O400 1.266 . S
Co408 O411 1.970 . S
Co408 N425 1.989 . S
Co408 O433 1.967 1_554 S
Co408 O440 1.920 1_554 S
Co409 O412 1.966 . S
Co409 N418 2.022 . S
Co409 N426 1.993 . S
Co409 O434 1.941 . S
C410 O411 1.258 . S
C410 O412 1.263 . S
O411 Co408 1.970 . S
O411 C410 1.258 . S
O412 Co409 1.966 . S
O412 C410 1.263 . S
C413 O414 1.235 . S
C413 O440 1.289 . S
O414 C413 1.235 . S
C415 C417 1.400 . S
C415 N418 1.351 . S
C415 C420 1.501 . S
C416 C417 1.387 . S
C416 N419 1.341 . S
C417 C415 1.400 . S
C417 C416 1.387 . S
N418 Co409 2.022 . S
N418 C415 1.351 . S
N418 N419 1.365 . S
N419 C416 1.341 . S
N419 N418 1.365 . S
N419 H439 0.862 . S
C420 C415 1.501 . S
C420 H421 0.961 . S
C420 H422 0.961 . S
C420 H423 0.960 . S
H421 C420 0.961 . S
H422 C420 0.961 . S
H423 C420 0.960 . S
C424 N425 1.342 . S
C424 C428 1.401 . S
C424 C429 1.499 . S
N425 Co408 1.989 . S
N425 C424 1.342 . S
N425 N426 1.388 . S
N426 Co409 1.993 . S
N426 N425 1.388 . S
N426 C427 1.346 . S
C427 N426 1.346 . S
C427 C428 1.396 . S
C427 C437 1.510 . S
C428 C424 1.401 . S
C428 C427 1.396 . S
C429 C424 1.499 . S
C429 H430 0.959 . S
C429 H431 0.960 . S
C429 H432 0.961 . S
H430 C429 0.959 . S
H431 C429 0.960 . S
H432 C429 0.961 . S
O433 Co408 1.967 1_556 S
O433 C441 1.258 1_556 S
O434 Co409 1.941 . S
O434 C441 1.266 . S
H435 C437 0.959 . S
H436 C437 0.961 . S
C437 C427 1.510 . S
C437 H435 0.959 . S
C437 H436 0.961 . S
C437 H438 0.960 . S
H438 C437 0.960 . S
H439 N419 0.862 . S
O440 Co408 1.920 1_556 S
O440 C413 1.289 . S
C441 O433 1.258 1_554 S
C441 O434 1.266 . S
Co442 O445 1.970 . S
Co442 N459 1.989 . S
Co442 O467 1.967 . S
Co442 O474 1.920 . S
Co443 O446 1.966 . S
Co443 N452 2.022 . S
Co443 N460 1.993 . S
Co443 O468 1.941 . S
C444 O445 1.258 . S
C444 O446 1.263 . S
O445 Co442 1.970 . S
O445 C444 1.258 . S
O446 Co443 1.966 . S
O446 C444 1.263 . S
C447 O448 1.235 . S
C447 O474 1.289 . S
O448 C447 1.235 . S
C449 C451 1.400 . S
C449 N452 1.351 . S
C449 C454 1.501 . S
C450 C451 1.387 . S
C450 N453 1.341 . S
C451 C449 1.400 . S
C451 C450 1.387 . S
N452 Co443 2.022 . S
N452 C449 1.351 . S
N452 N453 1.365 . S
N453 C450 1.341 . S
N453 N452 1.365 . S
N453 H473 0.862 . S
C454 C449 1.501 . S
C454 H455 0.961 . S
C454 H456 0.961 . S
C454 H457 0.960 . S
H455 C454 0.961 . S
H456 C454 0.961 . S
H457 C454 0.960 . S
C458 N459 1.342 . S
C458 C462 1.401 . S
C458 C463 1.499 . S
N459 Co442 1.989 . S
N459 C458 1.342 . S
N459 N460 1.388 . S
N460 Co443 1.993 . S
N460 N459 1.388 . S
N460 C461 1.346 . S
C461 N460 1.346 . S
C461 C462 1.396 . S
C461 C471 1.510 . S
C462 C458 1.401 . S
C462 C461 1.396 . S
C463 C458 1.499 . S
C463 H464 0.959 . S
C463 H465 0.960 . S
C463 H466 0.961 . S
H464 C463 0.959 . S
H465 C463 0.960 . S
H466 C463 0.961 . S
O467 Co442 1.967 . S
O467 C475 1.258 . S
O468 Co443 1.941 . S
O468 C475 1.266 . S
H469 C471 0.959 . S
H470 C471 0.961 . S
C471 C461 1.510 . S
C471 H469 0.959 . S
C471 H470 0.961 . S
C471 H472 0.960 . S
H472 C471 0.960 . S
H473 N453 0.862 . S
O474 Co442 1.920 . S
O474 C447 1.289 . S
C475 O467 1.258 . S
C475 O468 1.266 . S
Co476 O479 1.970 . S
Co476 N493 1.989 . S
Co476 O501 1.967 . S
Co476 O508 1.920 . S
Co477 O480 1.966 . S
Co477 N486 2.022 . S
Co477 N494 1.993 . S
Co477 O502 1.941 . S
C478 O479 1.258 . S
C478 O480 1.263 . S
O479 Co476 1.970 . S
O479 C478 1.258 . S
O480 Co477 1.966 . S
O480 C478 1.263 . S
C481 O482 1.235 . S
C481 O508 1.289 . S
O482 C481 1.235 . S
C483 C485 1.400 . S
C483 N486 1.351 . S
C483 C488 1.501 . S
C484 C485 1.387 . S
C484 N487 1.341 . S
C485 C483 1.400 . S
C485 C484 1.387 . S
N486 Co477 2.022 . S
N486 C483 1.351 . S
N486 N487 1.365 . S
N487 C484 1.341 . S
N487 N486 1.365 . S
N487 H507 0.862 . S
C488 C483 1.501 . S
C488 H489 0.961 . S
C488 H490 0.961 . S
C488 H491 0.960 . S
H489 C488 0.961 . S
H490 C488 0.961 . S
H491 C488 0.960 . S
C492 N493 1.342 . S
C492 C496 1.401 . S
C492 C497 1.499 . S
N493 Co476 1.989 . S
N493 C492 1.342 . S
N493 N494 1.388 . S
N494 Co477 1.993 . S
N494 N493 1.388 . S
N494 C495 1.346 . S
C495 N494 1.346 . S
C495 C496 1.396 . S
C495 C505 1.510 . S
C496 C492 1.401 . S
C496 C495 1.396 . S
C497 C492 1.499 . S
C497 H498 0.959 . S
C497 H499 0.960 . S
C497 H500 0.961 . S
H498 C497 0.959 . S
H499 C497 0.960 . S
H500 C497 0.961 . S
O501 Co476 1.967 . S
O501 C509 1.258 . S
O502 Co477 1.941 . S
O502 C509 1.266 . S
H503 C505 0.959 . S
H504 C505 0.961 . S
C505 C495 1.510 . S
C505 H503 0.959 . S
C505 H504 0.961 . S
C505 H506 0.960 . S
H506 C505 0.960 . S
H507 N487 0.862 . S
O508 Co476 1.920 . S
O508 C481 1.289 . S
C509 O501 1.258 . S
C509 O502 1.266 . S
Co510 O513 1.970 . S
Co510 N527 1.989 . S
Co510 O535 1.967 . S
Co510 O542 1.920 . S
Co511 O514 1.966 . S
Co511 N520 2.022 . S
Co511 N528 1.993 . S
Co511 O536 1.941 . S
C512 O513 1.258 . S
C512 O514 1.263 . S
O513 Co510 1.970 . S
O513 C512 1.258 . S
O514 Co511 1.966 . S
O514 C512 1.263 . S
C515 O516 1.235 . S
C515 O542 1.289 . S
O516 C515 1.235 . S
C517 C519 1.400 . S
C517 N520 1.351 . S
C517 C522 1.501 . S
C518 C519 1.387 . S
C518 N521 1.341 . S
C519 C517 1.400 . S
C519 C518 1.387 . S
N520 Co511 2.022 . S
N520 C517 1.351 . S
N520 N521 1.365 . S
N521 C518 1.341 . S
N521 N520 1.365 . S
N521 H541 0.862 . S
C522 C517 1.501 . S
C522 H523 0.961 . S
C522 H524 0.961 . S
C522 H525 0.960 . S
H523 C522 0.961 . S
H524 C522 0.961 . S
H525 C522 0.960 . S
C526 N527 1.342 . S
C526 C530 1.401 . S
C526 C531 1.499 . S
N527 Co510 1.989 . S
N527 C526 1.342 . S
N527 N528 1.388 . S
N528 Co511 1.993 . S
N528 N527 1.388 . S
N528 C529 1.346 . S
C529 N528 1.346 . S
C529 C530 1.396 . S
C529 C539 1.510 . S
C530 C526 1.401 . S
C530 C529 1.396 . S
C531 C526 1.499 . S
C531 H532 0.959 . S
C531 H533 0.960 . S
C531 H534 0.961 . S
H532 C531 0.959 . S
H533 C531 0.960 . S
H534 C531 0.961 . S
O535 Co510 1.967 . S
O535 C543 1.258 . S
O536 Co511 1.941 . S
O536 C543 1.266 . S
H537 C539 0.959 . S
H538 C539 0.961 . S
C539 C529 1.510 . S
C539 H537 0.959 . S
C539 H538 0.961 . S
C539 H540 0.960 . S
H540 C539 0.960 . S
H541 N521 0.862 . S
O542 Co510 1.920 . S
O542 C515 1.289 . S
C543 O535 1.258 . S
C543 O536 1.266 . S
Co544 O547 1.970 . S
Co544 N561 1.989 . S
Co544 O569 1.967 . S
Co544 O576 1.920 . S
Co545 O548 1.966 . S
Co545 N554 2.022 . S
Co545 N562 1.993 . S
Co545 O570 1.941 . S
C546 O547 1.258 . S
C546 O548 1.263 . S
O547 Co544 1.970 . S
O547 C546 1.258 . S
O548 Co545 1.966 . S
O548 C546 1.263 . S
C549 O550 1.235 . S
C549 O576 1.289 . S
O550 C549 1.235 . S
C551 C553 1.400 . S
C551 N554 1.351 . S
C551 C556 1.501 . S
C552 C553 1.387 . S
C552 N555 1.341 . S
C553 C551 1.400 . S
C553 C552 1.387 . S
N554 Co545 2.022 . S
N554 C551 1.351 . S
N554 N555 1.365 . S
N555 C552 1.341 . S
N555 N554 1.365 . S
N555 H575 0.862 . S
C556 C551 1.501 . S
C556 H557 0.961 . S
C556 H558 0.961 . S
C556 H559 0.960 . S
H557 C556 0.961 . S
H558 C556 0.961 . S
H559 C556 0.960 . S
C560 N561 1.342 . S
C560 C564 1.401 . S
C560 C565 1.499 . S
N561 Co544 1.989 . S
N561 C560 1.342 . S
N561 N562 1.388 . S
N562 Co545 1.993 . S
N562 N561 1.388 . S
N562 C563 1.346 . S
C563 N562 1.346 . S
C563 C564 1.396 . S
C563 C573 1.510 . S
C564 C560 1.401 . S
C564 C563 1.396 . S
C565 C560 1.499 . S
C565 H566 0.959 . S
C565 H567 0.960 . S
C565 H568 0.961 . S
H566 C565 0.959 . S
H567 C565 0.960 . S
H568 C565 0.961 . S
O569 Co544 1.967 . S
O569 C577 1.258 . S
O570 Co545 1.941 . S
O570 C577 1.266 . S
H571 C573 0.959 . S
H572 C573 0.961 . S
C573 C563 1.510 . S
C573 H571 0.959 . S
C573 H572 0.961 . S
C573 H574 0.960 . S
H574 C573 0.960 . S
H575 N555 0.862 . S
O576 Co544 1.920 . S
O576 C549 1.289 . S
C577 O569 1.258 . S
C577 O570 1.266 . S
Co578 O581 1.970 . S
Co578 N595 1.989 . S
Co578 O603 1.967 . S
Co578 O610 1.920 . S
Co579 O582 1.966 . S
Co579 N588 2.022 . S
Co579 N596 1.993 . S
Co579 O604 1.941 . S
C580 O581 1.258 . S
C580 O582 1.263 . S
O581 Co578 1.970 . S
O581 C580 1.258 . S
O582 Co579 1.966 . S
O582 C580 1.263 . S
C583 O584 1.235 . S
C583 O610 1.289 . S
O584 C583 1.235 . S
C585 C587 1.400 . S
C585 N588 1.351 . S
C585 C590 1.501 . S
C586 C587 1.387 . S
C586 N589 1.341 . S
C587 C585 1.400 . S
C587 C586 1.387 . S
N588 Co579 2.022 . S
N588 C585 1.351 . S
N588 N589 1.365 . S
N589 C586 1.341 . S
N589 N588 1.365 . S
N589 H609 0.862 . S
C590 C585 1.501 . S
C590 H591 0.961 . S
C590 H592 0.961 . S
C590 H593 0.960 . S
H591 C590 0.961 . S
H592 C590 0.961 . S
H593 C590 0.960 . S
C594 N595 1.342 . S
C594 C598 1.401 . S
C594 C599 1.499 . S
N595 Co578 1.989 . S
N595 C594 1.342 . S
N595 N596 1.388 . S
N596 Co579 1.993 . S
N596 N595 1.388 . S
N596 C597 1.346 . S
C597 N596 1.346 . S
C597 C598 1.396 . S
C597 C607 1.510 . S
C598 C594 1.401 . S
C598 C597 1.396 . S
C599 C594 1.499 . S
C599 H600 0.959 . S
C599 H601 0.960 . S
C599 H602 0.961 . S
H600 C599 0.959 . S
H601 C599 0.960 . S
H602 C599 0.961 . S
O603 Co578 1.967 . S
O603 C611 1.258 . S
O604 Co579 1.941 . S
O604 C611 1.266 . S
H605 C607 0.959 . S
H606 C607 0.961 . S
C607 C597 1.510 . S
C607 H605 0.959 . S
C607 H606 0.961 . S
C607 H608 0.960 . S
H608 C607 0.960 . S
H609 N589 0.862 . S
O610 Co578 1.920 . S
O610 C583 1.289 . S
C611 O603 1.258 . S
C611 O604 1.266 . S
Co612 O615 1.970 . S
Co612 N629 1.989 . S
Co612 O637 1.967 1_554 S
Co612 O644 1.920 1_554 S
Co613 O616 1.966 . S
Co613 N622 2.022 . S
Co613 N630 1.993 . S
Co613 O638 1.941 . S
C614 O615 1.258 . S
C614 O616 1.263 . S
O615 Co612 1.970 . S
O615 C614 1.258 . S
O616 Co613 1.966 . S
O616 C614 1.263 . S
C617 O618 1.235 . S
C617 O644 1.289 . S
O618 C617 1.235 . S
C619 C621 1.400 . S
C619 N622 1.351 . S
C619 C624 1.501 . S
C620 C621 1.387 . S
C620 N623 1.341 . S
C621 C619 1.400 . S
C621 C620 1.387 . S
N622 Co613 2.022 . S
N622 C619 1.351 . S
N622 N623 1.365 . S
N623 C620 1.341 . S
N623 N622 1.365 . S
N623 H643 0.862 . S
C624 C619 1.501 . S
C624 H625 0.961 . S
C624 H626 0.961 . S
C624 H627 0.960 . S
H625 C624 0.961 . S
H626 C624 0.961 . S
H627 C624 0.960 . S
C628 N629 1.342 . S
C628 C632 1.401 . S
C628 C633 1.499 . S
N629 Co612 1.989 . S
N629 C628 1.342 . S
N629 N630 1.388 . S
N630 Co613 1.993 . S
N630 N629 1.388 . S
N630 C631 1.346 . S
C631 N630 1.346 . S
C631 C632 1.396 . S
C631 C641 1.510 . S
C632 C628 1.401 . S
C632 C631 1.396 . S
C633 C628 1.499 . S
C633 H634 0.959 . S
C633 H635 0.960 . S
C633 H636 0.961 . S
H634 C633 0.959 . S
H635 C633 0.960 . S
H636 C633 0.961 . S
O637 Co612 1.967 1_556 S
O637 C645 1.258 1_556 S
O638 Co613 1.941 . S
O638 C645 1.266 . S
H639 C641 0.959 . S
H640 C641 0.961 . S
C641 C631 1.510 . S
C641 H639 0.959 . S
C641 H640 0.961 . S
C641 H642 0.960 . S
H642 C641 0.960 . S
H643 N623 0.862 . S
O644 Co612 1.920 1_556 S
O644 C617 1.289 . S
C645 O637 1.258 1_554 S
C645 O638 1.266 . S
Co646 O649 1.970 . S
Co646 N663 1.989 . S
Co646 O671 1.967 . S
Co646 O678 1.920 . S
Co647 O650 1.966 . S
Co647 N656 2.022 . S
Co647 N664 1.993 . S
Co647 O672 1.941 . S
C648 O649 1.258 . S
C648 O650 1.263 . S
O649 Co646 1.970 . S
O649 C648 1.258 . S
O650 Co647 1.966 . S
O650 C648 1.263 . S
C651 O652 1.235 . S
C651 O678 1.289 . S
O652 C651 1.235 . S
C653 C655 1.400 . S
C653 N656 1.351 . S
C653 C658 1.501 . S
C654 C655 1.387 . S
C654 N657 1.341 . S
C655 C653 1.400 . S
C655 C654 1.387 . S
N656 Co647 2.022 . S
N656 C653 1.351 . S
N656 N657 1.365 . S
N657 C654 1.341 . S
N657 N656 1.365 . S
N657 H677 0.862 . S
C658 C653 1.501 . S
C658 H659 0.961 . S
C658 H660 0.961 . S
C658 H661 0.960 . S
H659 C658 0.961 . S
H660 C658 0.961 . S
H661 C658 0.960 . S
C662 N663 1.342 . S
C662 C666 1.401 . S
C662 C667 1.499 . S
N663 Co646 1.989 . S
N663 C662 1.342 . S
N663 N664 1.388 . S
N664 Co647 1.993 . S
N664 N663 1.388 . S
N664 C665 1.346 . S
C665 N664 1.346 . S
C665 C666 1.396 . S
C665 C675 1.510 . S
C666 C662 1.401 . S
C666 C665 1.396 . S
C667 C662 1.499 . S
C667 H668 0.959 . S
C667 H669 0.960 . S
C667 H670 0.961 . S
H668 C667 0.959 . S
H669 C667 0.960 . S
H670 C667 0.961 . S
O671 Co646 1.967 . S
O671 C679 1.258 . S
O672 Co647 1.941 . S
O672 C679 1.266 . S
H673 C675 0.959 . S
H674 C675 0.961 . S
C675 C665 1.510 . S
C675 H673 0.959 . S
C675 H674 0.961 . S
C675 H676 0.960 . S
H676 C675 0.960 . S
H677 N657 0.862 . S
O678 Co646 1.920 . S
O678 C651 1.289 . S
C679 O671 1.258 . S
C679 O672 1.266 . S
Co680 O683 1.970 . S
Co680 N697 1.989 . S
Co680 O705 1.967 . S
Co680 O712 1.920 . S
Co681 O684 1.966 . S
Co681 N690 2.022 . S
Co681 N698 1.993 . S
Co681 O706 1.941 . S
C682 O683 1.258 . S
C682 O684 1.263 . S
O683 Co680 1.970 . S
O683 C682 1.258 . S
O684 Co681 1.966 . S
O684 C682 1.263 . S
C685 O686 1.235 . S
C685 O712 1.289 . S
O686 C685 1.235 . S
C687 C689 1.400 . S
C687 N690 1.351 . S
C687 C692 1.501 . S
C688 C689 1.387 . S
C688 N691 1.341 . S
C689 C687 1.400 . S
C689 C688 1.387 . S
N690 Co681 2.022 . S
N690 C687 1.351 . S
N690 N691 1.365 . S
N691 C688 1.341 . S
N691 N690 1.365 . S
N691 H711 0.862 . S
C692 C687 1.501 . S
C692 H693 0.961 . S
C692 H694 0.961 . S
C692 H695 0.960 . S
H693 C692 0.961 . S
H694 C692 0.961 . S
H695 C692 0.960 . S
C696 N697 1.342 . S
C696 C700 1.401 . S
C696 C701 1.499 . S
N697 Co680 1.989 . S
N697 C696 1.342 . S
N697 N698 1.388 . S
N698 Co681 1.993 . S
N698 N697 1.388 . S
N698 C699 1.346 . S
C699 N698 1.346 . S
C699 C700 1.396 . S
C699 C709 1.510 . S
C700 C696 1.401 . S
C700 C699 1.396 . S
C701 C696 1.499 . S
C701 H702 0.959 . S
C701 H703 0.960 . S
C701 H704 0.961 . S
H702 C701 0.959 . S
H703 C701 0.960 . S
H704 C701 0.961 . S
O705 Co680 1.967 . S
O705 C713 1.258 . S
O706 Co681 1.941 . S
O706 C713 1.266 . S
H707 C709 0.959 . S
H708 C709 0.961 . S
C709 C699 1.510 . S
C709 H707 0.959 . S
C709 H708 0.961 . S
C709 H710 0.960 . S
H710 C709 0.960 . S
H711 N691 0.862 . S
O712 Co680 1.920 . S
O712 C685 1.289 . S
C713 O705 1.258 . S
C713 O706 1.266 . S
Co714 O717 1.970 . S
Co714 N731 1.989 . S
Co714 O739 1.967 . S
Co714 O746 1.920 . S
Co715 O718 1.966 . S
Co715 N724 2.022 . S
Co715 N732 1.993 . S
Co715 O740 1.941 . S
C716 O717 1.258 . S
C716 O718 1.263 . S
O717 Co714 1.970 . S
O717 C716 1.258 . S
O718 Co715 1.966 . S
O718 C716 1.263 . S
C719 O720 1.235 . S
C719 O746 1.289 . S
O720 C719 1.235 . S
C721 C723 1.400 . S
C721 N724 1.351 . S
C721 C726 1.501 . S
C722 C723 1.387 . S
C722 N725 1.341 . S
C723 C721 1.400 . S
C723 C722 1.387 . S
N724 Co715 2.022 . S
N724 C721 1.351 . S
N724 N725 1.365 . S
N725 C722 1.341 . S
N725 N724 1.365 . S
N725 H745 0.862 . S
C726 C721 1.501 . S
C726 H727 0.961 . S
C726 H728 0.961 . S
C726 H729 0.960 . S
H727 C726 0.961 . S
H728 C726 0.961 . S
H729 C726 0.960 . S
C730 N731 1.342 . S
C730 C734 1.401 . S
C730 C735 1.499 . S
N731 Co714 1.989 . S
N731 C730 1.342 . S
N731 N732 1.388 . S
N732 Co715 1.993 . S
N732 N731 1.388 . S
N732 C733 1.346 . S
C733 N732 1.346 . S
C733 C734 1.396 . S
C733 C743 1.510 . S
C734 C730 1.401 . S
C734 C733 1.396 . S
C735 C730 1.499 . S
C735 H736 0.959 . S
C735 H737 0.960 . S
C735 H738 0.961 . S
H736 C735 0.959 . S
H737 C735 0.960 . S
H738 C735 0.961 . S
O739 Co714 1.967 . S
O739 C747 1.258 . S
O740 Co715 1.941 . S
O740 C747 1.266 . S
H741 C743 0.959 . S
H742 C743 0.961 . S
C743 C733 1.510 . S
C743 H741 0.959 . S
C743 H742 0.961 . S
C743 H744 0.960 . S
H744 C743 0.960 . S
H745 N725 0.862 . S
O746 Co714 1.920 . S
O746 C719 1.289 . S
C747 O739 1.258 . S
C747 O740 1.266 . S
Co748 O751 1.970 . S
Co748 N765 1.989 . S
Co748 O773 1.967 1_556 S
Co748 O780 1.920 1_556 S
Co749 O752 1.966 . S
Co749 N758 2.022 . S
Co749 N766 1.993 . S
Co749 O774 1.941 . S
C750 O751 1.258 . S
C750 O752 1.263 . S
O751 Co748 1.970 . S
O751 C750 1.258 . S
O752 Co749 1.966 . S
O752 C750 1.263 . S
C753 O754 1.235 . S
C753 O780 1.289 . S
O754 C753 1.235 . S
C755 C757 1.400 . S
C755 N758 1.351 . S
C755 C760 1.501 . S
C756 C757 1.387 . S
C756 N759 1.341 . S
C757 C755 1.400 . S
C757 C756 1.387 . S
N758 Co749 2.022 . S
N758 C755 1.351 . S
N758 N759 1.365 . S
N759 C756 1.341 . S
N759 N758 1.365 . S
N759 H779 0.862 . S
C760 C755 1.501 . S
C760 H761 0.961 . S
C760 H762 0.961 . S
C760 H763 0.960 . S
H761 C760 0.961 . S
H762 C760 0.961 . S
H763 C760 0.960 . S
C764 N765 1.342 . S
C764 C768 1.401 . S
C764 C769 1.499 . S
N765 Co748 1.989 . S
N765 C764 1.342 . S
N765 N766 1.388 . S
N766 Co749 1.993 . S
N766 N765 1.388 . S
N766 C767 1.346 . S
C767 N766 1.346 . S
C767 C768 1.396 . S
C767 C777 1.510 . S
C768 C764 1.401 . S
C768 C767 1.396 . S
C769 C764 1.499 . S
C769 H770 0.959 . S
C769 H771 0.960 . S
C769 H772 0.961 . S
H770 C769 0.959 . S
H771 C769 0.960 . S
H772 C769 0.961 . S
O773 Co748 1.967 1_554 S
O773 C781 1.258 1_554 S
O774 Co749 1.941 . S
O774 C781 1.266 . S
H775 C777 0.959 . S
H776 C777 0.961 . S
C777 C767 1.510 . S
C777 H775 0.959 . S
C777 H776 0.961 . S
C777 H778 0.960 . S
H778 C777 0.960 . S
H779 N759 0.862 . S
O780 Co748 1.920 1_554 S
O780 C753 1.289 . S
C781 O773 1.258 1_556 S
C781 O774 1.266 . S
Co782 O785 1.970 . S
Co782 N799 1.989 . S
Co782 O807 1.967 . S
Co782 O814 1.920 . S
Co783 O786 1.966 . S
Co783 N792 2.022 . S
Co783 N800 1.993 . S
Co783 O808 1.941 . S
C784 O785 1.258 . S
C784 O786 1.263 . S
O785 Co782 1.970 . S
O785 C784 1.258 . S
O786 Co783 1.966 . S
O786 C784 1.263 . S
C787 O788 1.235 . S
C787 O814 1.289 . S
O788 C787 1.235 . S
C789 C791 1.400 . S
C789 N792 1.351 . S
C789 C794 1.501 . S
C790 C791 1.387 . S
C790 N793 1.341 . S
C791 C789 1.400 . S
C791 C790 1.387 . S
N792 Co783 2.022 . S
N792 C789 1.351 . S
N792 N793 1.365 . S
N793 C790 1.341 . S
N793 N792 1.365 . S
N793 H813 0.862 . S
C794 C789 1.501 . S
C794 H795 0.961 . S
C794 H796 0.961 . S
C794 H797 0.960 . S
H795 C794 0.961 . S
H796 C794 0.961 . S
H797 C794 0.960 . S
C798 N799 1.342 . S
C798 C802 1.401 . S
C798 C803 1.499 . S
N799 Co782 1.989 . S
N799 C798 1.342 . S
N799 N800 1.388 . S
N800 Co783 1.993 . S
N800 N799 1.388 . S
N800 C801 1.346 . S
C801 N800 1.346 . S
C801 C802 1.396 . S
C801 C811 1.510 . S
C802 C798 1.401 . S
C802 C801 1.396 . S
C803 C798 1.499 . S
C803 H804 0.959 . S
C803 H805 0.960 . S
C803 H806 0.961 . S
H804 C803 0.959 . S
H805 C803 0.960 . S
H806 C803 0.961 . S
O807 Co782 1.967 . S
O807 C815 1.258 . S
O808 Co783 1.941 . S
O808 C815 1.266 . S
H809 C811 0.959 . S
H810 C811 0.961 . S
C811 C801 1.510 . S
C811 H809 0.959 . S
C811 H810 0.961 . S
C811 H812 0.960 . S
H812 C811 0.960 . S
H813 N793 0.862 . S
O814 Co782 1.920 . S
O814 C787 1.289 . S
C815 O807 1.258 . S
C815 O808 1.266 . S
Co816 O819 1.970 . S
Co816 N833 1.989 . S
Co816 O841 1.967 . S
Co816 O848 1.920 . S
Co817 O820 1.966 . S
Co817 N826 2.022 . S
Co817 N834 1.993 . S
Co817 O842 1.941 . S
C818 O819 1.258 . S
C818 O820 1.263 . S
O819 Co816 1.970 . S
O819 C818 1.258 . S
O820 Co817 1.966 . S
O820 C818 1.263 . S
C821 O822 1.235 . S
C821 O848 1.289 . S
O822 C821 1.235 . S
C823 C825 1.400 . S
C823 N826 1.351 . S
C823 C828 1.501 . S
C824 C825 1.387 . S
C824 N827 1.341 . S
C825 C823 1.400 . S
C825 C824 1.387 . S
N826 Co817 2.022 . S
N826 C823 1.351 . S
N826 N827 1.365 . S
N827 C824 1.341 . S
N827 N826 1.365 . S
N827 H847 0.862 . S
C828 C823 1.501 . S
C828 H829 0.961 . S
C828 H830 0.961 . S
C828 H831 0.960 . S
H829 C828 0.961 . S
H830 C828 0.961 . S
H831 C828 0.960 . S
C832 N833 1.342 . S
C832 C836 1.401 . S
C832 C837 1.499 . S
N833 Co816 1.989 . S
N833 C832 1.342 . S
N833 N834 1.388 . S
N834 Co817 1.993 . S
N834 N833 1.388 . S
N834 C835 1.346 . S
C835 N834 1.346 . S
C835 C836 1.396 . S
C835 C845 1.510 . S
C836 C832 1.401 . S
C836 C835 1.396 . S
C837 C832 1.499 . S
C837 H838 0.959 . S
C837 H839 0.960 . S
C837 H840 0.961 . S
H838 C837 0.959 . S
H839 C837 0.960 . S
H840 C837 0.961 . S
O841 Co816 1.967 . S
O841 C849 1.258 . S
O842 Co817 1.941 . S
O842 C849 1.266 . S
H843 C845 0.959 . S
H844 C845 0.961 . S
C845 C835 1.510 . S
C845 H843 0.959 . S
C845 H844 0.961 . S
C845 H846 0.960 . S
H846 C845 0.960 . S
H847 N827 0.862 . S
O848 Co816 1.920 . S
O848 C821 1.289 . S
C849 O841 1.258 . S
C849 O842 1.266 . S
Co850 O853 1.970 . S
Co850 N867 1.989 . S
Co850 O875 1.967 . S
Co850 O882 1.920 . S
Co851 O854 1.966 . S
Co851 N860 2.022 . S
Co851 N868 1.993 . S
Co851 O876 1.941 . S
C852 O853 1.258 . S
C852 O854 1.263 . S
O853 Co850 1.970 . S
O853 C852 1.258 . S
O854 Co851 1.966 . S
O854 C852 1.263 . S
C855 O856 1.235 . S
C855 O882 1.289 . S
O856 C855 1.235 . S
C857 C859 1.400 . S
C857 N860 1.351 . S
C857 C862 1.501 . S
C858 C859 1.387 . S
C858 N861 1.341 . S
C859 C857 1.400 . S
C859 C858 1.387 . S
N860 Co851 2.022 . S
N860 C857 1.351 . S
N860 N861 1.365 . S
N861 C858 1.341 . S
N861 N860 1.365 . S
N861 H881 0.862 . S
C862 C857 1.501 . S
C862 H863 0.961 . S
C862 H864 0.961 . S
C862 H865 0.960 . S
H863 C862 0.961 . S
H864 C862 0.961 . S
H865 C862 0.960 . S
C866 N867 1.342 . S
C866 C870 1.401 . S
C866 C871 1.499 . S
N867 Co850 1.989 . S
N867 C866 1.342 . S
N867 N868 1.388 . S
N868 Co851 1.993 . S
N868 N867 1.388 . S
N868 C869 1.346 . S
C869 N868 1.346 . S
C869 C870 1.396 . S
C869 C879 1.510 . S
C870 C866 1.401 . S
C870 C869 1.396 . S
C871 C866 1.499 . S
C871 H872 0.959 . S
C871 H873 0.960 . S
C871 H874 0.961 . S
H872 C871 0.959 . S
H873 C871 0.960 . S
H874 C871 0.961 . S
O875 Co850 1.967 . S
O875 C883 1.258 . S
O876 Co851 1.941 . S
O876 C883 1.266 . S
H877 C879 0.959 . S
H878 C879 0.961 . S
C879 C869 1.510 . S
C879 H877 0.959 . S
C879 H878 0.961 . S
C879 H880 0.960 . S
H880 C879 0.960 . S
H881 N861 0.862 . S
O882 Co850 1.920 . S
O882 C855 1.289 . S
C883 O875 1.258 . S
C883 O876 1.266 . S
Co884 O887 1.970 . S
Co884 N901 1.989 . S
Co884 O909 1.967 1_556 S
Co884 O916 1.920 1_556 S
Co885 O888 1.966 . S
Co885 N894 2.022 . S
Co885 N902 1.993 . S
Co885 O910 1.941 . S
C886 O887 1.258 . S
C886 O888 1.263 . S
O887 Co884 1.970 . S
O887 C886 1.258 . S
O888 Co885 1.966 . S
O888 C886 1.263 . S
C889 O890 1.235 . S
C889 O916 1.289 . S
O890 C889 1.235 . S
C891 C893 1.400 . S
C891 N894 1.351 . S
C891 C896 1.501 . S
C892 C893 1.387 . S
C892 N895 1.341 . S
C893 C891 1.400 . S
C893 C892 1.387 . S
N894 Co885 2.022 . S
N894 C891 1.351 . S
N894 N895 1.365 . S
N895 C892 1.341 . S
N895 N894 1.365 . S
N895 H915 0.862 . S
C896 C891 1.501 . S
C896 H897 0.961 . S
C896 H898 0.961 . S
C896 H899 0.960 . S
H897 C896 0.961 . S
H898 C896 0.961 . S
H899 C896 0.960 . S
C900 N901 1.342 . S
C900 C904 1.401 . S
C900 C905 1.499 . S
N901 Co884 1.989 . S
N901 C900 1.342 . S
N901 N902 1.388 . S
N902 Co885 1.993 . S
N902 N901 1.388 . S
N902 C903 1.346 . S
C903 N902 1.346 . S
C903 C904 1.396 . S
C903 C913 1.510 . S
C904 C900 1.401 . S
C904 C903 1.396 . S
C905 C900 1.499 . S
C905 H906 0.959 . S
C905 H907 0.960 . S
C905 H908 0.961 . S
H906 C905 0.959 . S
H907 C905 0.960 . S
H908 C905 0.961 . S
O909 Co884 1.967 1_554 S
O909 C917 1.258 1_554 S
O910 Co885 1.941 . S
O910 C917 1.266 . S
H911 C913 0.959 . S
H912 C913 0.961 . S
C913 C903 1.510 . S
C913 H911 0.959 . S
C913 H912 0.961 . S
C913 H914 0.960 . S
H914 C913 0.960 . S
H915 N895 0.862 . S
O916 Co884 1.920 1_554 S
O916 C889 1.289 . S
C917 O909 1.258 1_556 S
C917 O910 1.266 . S
Co918 O921 1.970 . S
Co918 N935 1.989 . S
Co918 O943 1.967 . S
Co918 O950 1.920 . S
Co919 O922 1.966 . S
Co919 N928 2.022 . S
Co919 N936 1.993 . S
Co919 O944 1.941 . S
C920 O921 1.258 . S
C920 O922 1.263 . S
O921 Co918 1.970 . S
O921 C920 1.258 . S
O922 Co919 1.966 . S
O922 C920 1.263 . S
C923 O924 1.235 . S
C923 O950 1.289 . S
O924 C923 1.235 . S
C925 C927 1.400 . S
C925 N928 1.351 . S
C925 C930 1.501 . S
C926 C927 1.387 . S
C926 N929 1.341 . S
C927 C925 1.400 . S
C927 C926 1.387 . S
N928 Co919 2.022 . S
N928 C925 1.351 . S
N928 N929 1.365 . S
N929 C926 1.341 . S
N929 N928 1.365 . S
N929 H949 0.862 . S
C930 C925 1.501 . S
C930 H931 0.961 . S
C930 H932 0.961 . S
C930 H933 0.960 . S
H931 C930 0.961 . S
H932 C930 0.961 . S
H933 C930 0.960 . S
C934 N935 1.342 . S
C934 C938 1.401 . S
C934 C939 1.499 . S
N935 Co918 1.989 . S
N935 C934 1.342 . S
N935 N936 1.388 . S
N936 Co919 1.993 . S
N936 N935 1.388 . S
N936 C937 1.346 . S
C937 N936 1.346 . S
C937 C938 1.396 . S
C937 C947 1.510 . S
C938 C934 1.401 . S
C938 C937 1.396 . S
C939 C934 1.499 . S
C939 H940 0.959 . S
C939 H941 0.960 . S
C939 H942 0.961 . S
H940 C939 0.959 . S
H941 C939 0.960 . S
H942 C939 0.961 . S
O943 Co918 1.967 . S
O943 C951 1.258 . S
O944 Co919 1.941 . S
O944 C951 1.266 . S
H945 C947 0.959 . S
H946 C947 0.961 . S
C947 C937 1.510 . S
C947 H945 0.959 . S
C947 H946 0.961 . S
C947 H948 0.960 . S
H948 C947 0.960 . S
H949 N929 0.862 . S
O950 Co918 1.920 . S
O950 C923 1.289 . S
C951 O943 1.258 . S
C951 O944 1.266 . S
Co952 O955 1.970 . S
Co952 N969 1.989 . S
Co952 O977 1.967 . S
Co952 O984 1.920 . S
Co953 O956 1.966 . S
Co953 N962 2.022 . S
Co953 N970 1.993 . S
Co953 O978 1.941 . S
C954 O955 1.258 . S
C954 O956 1.263 . S
O955 Co952 1.970 . S
O955 C954 1.258 . S
O956 Co953 1.966 . S
O956 C954 1.263 . S
C957 O958 1.235 . S
C957 O984 1.289 . S
O958 C957 1.235 . S
C959 C961 1.400 . S
C959 N962 1.351 . S
C959 C964 1.501 . S
C960 C961 1.387 . S
C960 N963 1.341 . S
C961 C959 1.400 . S
C961 C960 1.387 . S
N962 Co953 2.022 . S
N962 C959 1.351 . S
N962 N963 1.365 . S
N963 C960 1.341 . S
N963 N962 1.365 . S
N963 H983 0.862 . S
C964 C959 1.501 . S
C964 H965 0.961 . S
C964 H966 0.961 . S
C964 H967 0.960 . S
H965 C964 0.961 . S
H966 C964 0.961 . S
H967 C964 0.960 . S
C968 N969 1.342 . S
C968 C972 1.401 . S
C968 C973 1.499 . S
N969 Co952 1.989 . S
N969 C968 1.342 . S
N969 N970 1.388 . S
N970 Co953 1.993 . S
N970 N969 1.388 . S
N970 C971 1.346 . S
C971 N970 1.346 . S
C971 C972 1.396 . S
C971 C981 1.510 . S
C972 C968 1.401 . S
C972 C971 1.396 . S
C973 C968 1.499 . S
C973 H974 0.959 . S
C973 H975 0.960 . S
C973 H976 0.961 . S
H974 C973 0.959 . S
H975 C973 0.960 . S
H976 C973 0.961 . S
O977 Co952 1.967 . S
O977 C985 1.258 . S
O978 Co953 1.941 . S
O978 C985 1.266 . S
H979 C981 0.959 . S
H980 C981 0.961 . S
C981 C971 1.510 . S
C981 H979 0.959 . S
C981 H980 0.961 . S
C981 H982 0.960 . S
H982 C981 0.960 . S
H983 N963 0.862 . S
O984 Co952 1.920 . S
O984 C957 1.289 . S
C985 O977 1.258 . S
C985 O978 1.266 . S
Co986 O989 1.970 . S
Co986 N1003 1.989 . S
Co986 O1011 1.967 . S
Co986 O1018 1.920 . S
Co987 O990 1.966 . S
Co987 N996 2.022 . S
Co987 N1004 1.993 . S
Co987 O1012 1.941 . S
C988 O989 1.258 . S
C988 O990 1.263 . S
O989 Co986 1.970 . S
O989 C988 1.258 . S
O990 Co987 1.966 . S
O990 C988 1.263 . S
C991 O992 1.235 . S
C991 O1018 1.289 . S
O992 C991 1.235 . S
C993 C995 1.400 . S
C993 N996 1.351 . S
C993 C998 1.501 . S
C994 C995 1.387 . S
C994 N997 1.341 . S
C995 C993 1.400 . S
C995 C994 1.387 . S
N996 Co987 2.022 . S
N996 C993 1.351 . S
N996 N997 1.365 . S
N997 C994 1.341 . S
N997 N996 1.365 . S
N997 H1017 0.862 . S
C998 C993 1.501 . S
C998 H999 0.961 . S
C998 H1000 0.961 . S
C998 H1001 0.960 . S
H999 C998 0.961 . S
H1000 C998 0.961 . S
H1001 C998 0.960 . S
C1002 N1003 1.342 . S
C1002 C1006 1.401 . S
C1002 C1007 1.499 . S
N1003 Co986 1.989 . S
N1003 C1002 1.342 . S
N1003 N1004 1.388 . S
N1004 Co987 1.993 . S
N1004 N1003 1.388 . S
N1004 C1005 1.346 . S
C1005 N1004 1.346 . S
C1005 C1006 1.396 . S
C1005 C1015 1.510 . S
C1006 C1002 1.401 . S
C1006 C1005 1.396 . S
C1007 C1002 1.499 . S
C1007 H1008 0.959 . S
C1007 H1009 0.960 . S
C1007 H1010 0.961 . S
H1008 C1007 0.959 . S
H1009 C1007 0.960 . S
H1010 C1007 0.961 . S
O1011 Co986 1.967 . S
O1011 C1019 1.258 . S
O1012 Co987 1.941 . S
O1012 C1019 1.266 . S
H1013 C1015 0.959 . S
H1014 C1015 0.961 . S
C1015 C1005 1.510 . S
C1015 H1013 0.959 . S
C1015 H1014 0.961 . S
C1015 H1016 0.960 . S
H1016 C1015 0.960 . S
H1017 N997 0.862 . S
O1018 Co986 1.920 . S
O1018 C991 1.289 . S
C1019 O1011 1.258 . S
C1019 O1012 1.266 . S
Co1020 O1023 1.970 . S
Co1020 N1037 1.989 . S
Co1020 O1045 1.967 1_554 S
Co1020 O1052 1.920 1_554 S
Co1021 O1024 1.966 . S
Co1021 N1030 2.022 . S
Co1021 N1038 1.993 . S
Co1021 O1046 1.941 . S
C1022 O1023 1.258 . S
C1022 O1024 1.263 . S
O1023 Co1020 1.970 . S
O1023 C1022 1.258 . S
O1024 Co1021 1.966 . S
O1024 C1022 1.263 . S
C1025 O1026 1.235 . S
C1025 O1052 1.289 . S
O1026 C1025 1.235 . S
C1027 C1029 1.400 . S
C1027 N1030 1.351 . S
C1027 C1032 1.501 . S
C1028 C1029 1.387 . S
C1028 N1031 1.341 . S
C1029 C1027 1.400 . S
C1029 C1028 1.387 . S
N1030 Co1021 2.022 . S
N1030 C1027 1.351 . S
N1030 N1031 1.365 . S
N1031 C1028 1.341 . S
N1031 N1030 1.365 . S
N1031 H1051 0.862 . S
C1032 C1027 1.501 . S
C1032 H1033 0.961 . S
C1032 H1034 0.961 . S
C1032 H1035 0.960 . S
H1033 C1032 0.961 . S
H1034 C1032 0.961 . S
H1035 C1032 0.960 . S
C1036 N1037 1.342 . S
C1036 C1040 1.401 . S
C1036 C1041 1.499 . S
N1037 Co1020 1.989 . S
N1037 C1036 1.342 . S
N1037 N1038 1.388 . S
N1038 Co1021 1.993 . S
N1038 N1037 1.388 . S
N1038 C1039 1.346 . S
C1039 N1038 1.346 . S
C1039 C1040 1.396 . S
C1039 C1049 1.510 . S
C1040 C1036 1.401 . S
C1040 C1039 1.396 . S
C1041 C1036 1.499 . S
C1041 H1042 0.959 . S
C1041 H1043 0.960 . S
C1041 H1044 0.961 . S
H1042 C1041 0.959 . S
H1043 C1041 0.960 . S
H1044 C1041 0.961 . S
O1045 Co1020 1.967 1_556 S
O1045 C1053 1.258 1_556 S
O1046 Co1021 1.941 . S
O1046 C1053 1.266 . S
H1047 C1049 0.959 . S
H1048 C1049 0.961 . S
C1049 C1039 1.510 . S
C1049 H1047 0.959 . S
C1049 H1048 0.961 . S
C1049 H1050 0.960 . S
H1050 C1049 0.960 . S
H1051 N1031 0.862 . S
O1052 Co1020 1.920 1_556 S
O1052 C1025 1.289 . S
C1053 O1045 1.258 1_554 S
C1053 O1046 1.266 . S
Co1054 O1057 1.970 . S
Co1054 N1071 1.989 . S
Co1054 O1079 1.967 . S
Co1054 O1086 1.920 . S
Co1055 O1058 1.966 . S
Co1055 N1064 2.022 . S
Co1055 N1072 1.993 . S
Co1055 O1080 1.941 . S
C1056 O1057 1.258 . S
C1056 O1058 1.263 . S
O1057 Co1054 1.970 . S
O1057 C1056 1.258 . S
O1058 Co1055 1.966 . S
O1058 C1056 1.263 . S
C1059 O1060 1.235 . S
C1059 O1086 1.289 . S
O1060 C1059 1.235 . S
C1061 C1063 1.400 . S
C1061 N1064 1.351 . S
C1061 C1066 1.501 . S
C1062 C1063 1.387 . S
C1062 N1065 1.341 . S
C1063 C1061 1.400 . S
C1063 C1062 1.387 . S
N1064 Co1055 2.022 . S
N1064 C1061 1.351 . S
N1064 N1065 1.365 . S
N1065 C1062 1.341 . S
N1065 N1064 1.365 . S
N1065 H1085 0.862 . S
C1066 C1061 1.501 . S
C1066 H1067 0.961 . S
C1066 H1068 0.961 . S
C1066 H1069 0.960 . S
H1067 C1066 0.961 . S
H1068 C1066 0.961 . S
H1069 C1066 0.960 . S
C1070 N1071 1.342 . S
C1070 C1074 1.401 . S
C1070 C1075 1.499 . S
N1071 Co1054 1.989 . S
N1071 C1070 1.342 . S
N1071 N1072 1.388 . S
N1072 Co1055 1.993 . S
N1072 N1071 1.388 . S
N1072 C1073 1.346 . S
C1073 N1072 1.346 . S
C1073 C1074 1.396 . S
C1073 C1083 1.510 . S
C1074 C1070 1.401 . S
C1074 C1073 1.396 . S
C1075 C1070 1.499 . S
C1075 H1076 0.959 . S
C1075 H1077 0.960 . S
C1075 H1078 0.961 . S
H1076 C1075 0.959 . S
H1077 C1075 0.960 . S
H1078 C1075 0.961 . S
O1079 Co1054 1.967 . S
O1079 C1087 1.258 . S
O1080 Co1055 1.941 . S
O1080 C1087 1.266 . S
H1081 C1083 0.959 . S
H1082 C1083 0.961 . S
C1083 C1073 1.510 . S
C1083 H1081 0.959 . S
C1083 H1082 0.961 . S
C1083 H1084 0.960 . S
H1084 C1083 0.960 . S
H1085 N1065 0.862 . S
O1086 Co1054 1.920 . S
O1086 C1059 1.289 . S
C1087 O1079 1.258 . S
C1087 O1080 1.266 . S
H1088 C1094 0.930 . S
H1089 C1098 0.930 . S
H1090 C1103 0.929 1_565 S
H1091 C1101 0.929 . S
H1092 C1096 0.929 . S
H1093 C1102 0.929 . S
C1094 H1088 0.930 . S
C1094 C1095 1.379 . S
C1094 C1102 1.378 . S
C1095 C1094 1.379 . S
C1095 C1103 1.435 . S
C1096 H1092 0.929 . S
C1096 C1098 1.378 . S
C1096 C1100 1.350 . S
C1097 C1100 1.463 . S
C1097 C1102 1.350 . S
C1097 N1105 1.427 . S
C1098 H1089 0.930 . S
C1098 C1096 1.378 . S
C1098 C1099 1.367 . S
C1099 C1098 1.367 . S
C1099 C1101 1.433 . S
C1100 C1096 1.350 . S
C1100 C1097 1.463 . S
C1100 N1104 1.427 . S
C1101 H1091 0.929 . S
C1101 C1099 1.433 . S
C1101 N1104 1.384 . S
C1102 H1093 0.929 . S
C1102 C1094 1.378 . S
C1102 C1097 1.350 . S
C1103 H1090 0.929 1_545 S
C1103 C1095 1.435 . S
C1103 N1105 1.384 . S
N1104 C1100 1.427 . S
N1104 C1101 1.384 . S
N1105 C1097 1.427 . S
N1105 C1103 1.384 . S
H1106 C1112 0.930 . S
H1107 C1116 0.930 . S
H1108 C1121 0.929 . S
H1109 C1119 0.929 . S
H1110 C1114 0.929 . S
H1111 C1120 0.929 . S
C1112 H1106 0.930 . S
C1112 C1113 1.367 . S
C1112 C1120 1.378 . S
C1113 C1112 1.367 . S
C1113 C1121 1.433 . S
C1114 H1110 0.929 . S
C1114 C1116 1.378 . S
C1114 C1118 1.350 . S
C1115 C1118 1.463 . S
C1115 C1120 1.350 . S
C1115 N1123 1.427 . S
C1116 H1107 0.930 . S
C1116 C1114 1.378 . S
C1116 C1117 1.367 . S
C1117 C1116 1.367 . S
C1117 C1119 1.433 . S
C1118 C1114 1.350 . S
C1118 C1115 1.463 . S
C1118 N1122 1.427 . S
C1119 H1109 0.929 . S
C1119 C1117 1.433 . S
C1119 N1122 1.384 . S
C1120 H1111 0.929 . S
C1120 C1112 1.378 . S
C1120 C1115 1.350 . S
C1121 H1108 0.929 . S
C1121 C1113 1.433 . S
C1121 N1123 1.384 . S
N1122 C1118 1.427 . S
N1122 C1119 1.384 . S
N1123 C1115 1.427 . S
N1123 C1121 1.384 . S
H1124 C1130 0.930 . S
H1125 C1134 0.930 . S
H1126 C1139 0.929 . S
H1127 C1137 0.929 . S
H1128 C1132 0.929 . S
H1129 C1138 0.929 . S
C1130 H1124 0.930 . S
C1130 C1131 1.367 . S
C1130 C1138 1.378 . S
C1131 C1130 1.367 . S
C1131 C1139 1.433 . S
C1132 H1128 0.929 . S
C1132 C1134 1.378 1_565 S
C1132 C1136 1.350 . S
C1133 C1136 1.463 . S
C1133 C1138 1.350 . S
C1133 N1141 1.427 . S
C1134 H1125 0.930 . S
C1134 C1132 1.378 1_545 S
C1134 C1135 1.367 1_545 S
C1135 C1134 1.367 1_565 S
C1135 C1137 1.430 . S
C1136 C1132 1.350 . S
C1136 C1133 1.463 . S
C1136 N1140 1.427 . S
C1137 H1127 0.929 . S
C1137 C1135 1.430 . S
C1137 N1140 1.384 . S
C1138 H1129 0.929 . S
C1138 C1130 1.378 . S
C1138 C1133 1.350 . S
C1139 H1126 0.929 . S
C1139 C1131 1.433 . S
C1139 N1141 1.384 . S
N1140 C1136 1.427 . S
N1140 C1137 1.384 . S
N1141 C1133 1.427 . S
N1141 C1139 1.384 . S
H1142 C1148 0.930 . S
H1143 C1152 0.930 . S
H1144 C1157 0.929 . S
H1145 C1155 0.929 . S
H1146 C1150 0.929 . S
H1147 C1156 0.929 . S
C1148 H1142 0.930 . S
C1148 C1149 1.367 . S
C1148 C1156 1.378 . S
C1149 C1148 1.367 . S
C1149 C1157 1.433 . S
C1150 H1146 0.929 . S
C1150 C1152 1.378 . S
C1150 C1154 1.350 . S
C1151 C1154 1.463 . S
C1151 C1156 1.350 . S
C1151 N1159 1.427 . S
C1152 H1143 0.930 . S
C1152 C1150 1.378 . S
C1152 C1153 1.367 . S
C1153 C1152 1.367 . S
C1153 C1155 1.433 . S
C1154 C1150 1.350 . S
C1154 C1151 1.463 . S
C1154 N1158 1.427 . S
C1155 H1145 0.929 . S
C1155 C1153 1.433 . S
C1155 N1158 1.384 . S
C1156 H1147 0.929 . S
C1156 C1148 1.378 . S
C1156 C1151 1.350 . S
C1157 H1144 0.929 . S
C1157 C1149 1.433 . S
C1157 N1159 1.384 . S
N1158 C1154 1.427 . S
N1158 C1155 1.384 . S
N1159 C1151 1.427 . S
N1159 C1157 1.384 . S
H1160 C1166 0.930 . S
H1161 C1170 0.930 . S
H1162 C1175 0.929 . S
H1163 C1173 0.929 . S
H1164 C1168 0.929 . S
H1165 C1174 0.929 . S
C1166 H1160 0.930 . S
C1166 C1167 1.367 . S
C1166 C1174 1.378 . S
C1167 C1166 1.367 . S
C1167 C1175 1.433 . S
C1168 H1164 0.929 . S
C1168 C1170 1.378 . S
C1168 C1172 1.350 . S
C1169 C1172 1.463 . S
C1169 C1174 1.350 . S
C1169 N1177 1.427 . S
C1170 H1161 0.930 . S
C1170 C1168 1.378 . S
C1170 C1171 1.386 . S
C1171 C1170 1.386 . S
C1171 C1173 1.431 1_565 S
C1172 C1168 1.350 . S
C1172 C1169 1.463 . S
C1172 N1176 1.427 . S
C1173 H1163 0.929 . S
C1173 C1171 1.431 1_545 S
C1173 N1176 1.384 1_545 S
C1174 H1165 0.929 . S
C1174 C1166 1.378 . S
C1174 C1169 1.350 . S
C1175 H1162 0.929 . S
C1175 C1167 1.433 . S
C1175 N1177 1.384 . S
N1176 C1172 1.427 . S
N1176 C1173 1.384 1_565 S
N1177 C1169 1.427 . S
N1177 C1175 1.384 . S
H1178 C1184 0.930 . S
H1179 C1188 0.930 . S
H1180 C1193 0.929 . S
H1181 C1191 0.929 . S
H1182 C1186 0.929 . S
H1183 C1192 0.929 . S
C1184 H1178 0.930 . S
C1184 C1185 1.367 . S
C1184 C1192 1.378 . S
C1185 C1184 1.367 . S
C1185 C1193 1.433 . S
C1186 H1182 0.929 . S
C1186 C1188 1.378 . S
C1186 C1190 1.350 . S
C1187 C1190 1.463 . S
C1187 C1192 1.350 . S
C1187 N1195 1.427 . S
C1188 H1179 0.930 . S
C1188 C1186 1.378 . S
C1188 C1189 1.367 . S
C1189 C1188 1.367 . S
C1189 C1191 1.433 . S
C1190 C1186 1.350 . S
C1190 C1187 1.463 . S
C1190 N1194 1.427 . S
C1191 H1181 0.929 . S
C1191 C1189 1.433 . S
C1191 N1194 1.384 . S
C1192 H1183 0.929 . S
C1192 C1184 1.378 . S
C1192 C1187 1.350 . S
C1193 H1180 0.929 . S
C1193 C1185 1.433 . S
C1193 N1195 1.384 . S
N1194 C1190 1.427 . S
N1194 C1191 1.384 . S
N1195 C1187 1.427 . S
N1195 C1193 1.384 . S
H1196 C1202 0.930 . S
H1197 C1206 0.930 . S
H1198 C1211 0.929 . S
H1199 C1209 0.929 . S
H1200 C1204 0.929 . S
H1201 C1210 0.929 . S
C1202 H1196 0.930 . S
C1202 C1203 1.367 . S
C1202 C1210 1.378 . S
C1203 C1202 1.367 . S
C1203 C1211 1.433 . S
C1204 H1200 0.929 . S
C1204 C1206 1.378 . S
C1204 C1208 1.350 . S
C1205 C1208 1.463 . S
C1205 C1210 1.350 . S
C1205 N1213 1.427 . S
C1206 H1197 0.930 . S
C1206 C1204 1.378 . S
C1206 C1207 1.390 . S
C1207 C1206 1.390 . S
C1207 C1209 1.429 1_545 S
C1208 C1204 1.350 . S
C1208 C1205 1.463 . S
C1208 N1212 1.427 . S
C1209 H1199 0.929 . S
C1209 C1207 1.429 1_565 S
C1209 N1212 1.384 1_565 S
C1210 H1201 0.929 . S
C1210 C1202 1.378 . S
C1210 C1205 1.350 . S
C1211 H1198 0.929 . S
C1211 C1203 1.433 . S
C1211 N1213 1.384 . S
N1212 C1208 1.427 . S
N1212 C1209 1.384 1_545 S
N1213 C1205 1.427 . S
N1213 C1211 1.384 . S
H1214 C1220 0.930 . S
H1215 C1224 0.930 . S
H1216 C1229 0.929 . S
H1217 C1227 0.929 . S
H1218 C1222 0.929 . S
H1219 C1228 0.929 . S
C1220 H1214 0.930 . S
C1220 C1221 1.367 . S
C1220 C1228 1.378 . S
C1221 C1220 1.367 . S
C1221 C1229 1.433 . S
C1222 H1218 0.929 . S
C1222 C1224 1.378 . S
C1222 C1226 1.350 . S
C1223 C1226 1.463 . S
C1223 C1228 1.350 . S
C1223 N1231 1.427 . S
C1224 H1215 0.930 . S
C1224 C1222 1.378 . S
C1224 C1225 1.367 . S
C1225 C1224 1.367 . S
C1225 C1227 1.433 . S
C1226 C1222 1.350 . S
C1226 C1223 1.463 . S
C1226 N1230 1.427 . S
C1227 H1217 0.929 . S
C1227 C1225 1.433 . S
C1227 N1230 1.384 . S
C1228 H1219 0.929 . S
C1228 C1220 1.378 . S
C1228 C1223 1.350 . S
C1229 H1216 0.929 . S
C1229 C1221 1.433 . S
C1229 N1231 1.384 . S
N1230 C1226 1.427 . S
N1230 C1227 1.384 . S
N1231 C1223 1.427 . S
N1231 C1229 1.384 . S
H1232 C1238 0.930 . S
H1233 C1242 0.930 . S
H1234 C1247 0.929 . S
H1235 C1245 0.929 . S
H1236 C1240 0.929 . S
H1237 C1246 0.929 . S
C1238 H1232 0.930 . S
C1238 C1239 1.365 . S
C1238 C1246 1.378 1_545 S
C1239 C1238 1.365 . S
C1239 C1247 1.439 1_545 S
C1240 H1236 0.929 . S
C1240 C1242 1.378 . S
C1240 C1244 1.350 . S
C1241 C1244 1.463 . S
C1241 C1246 1.350 . S
C1241 N1249 1.427 . S
C1242 H1233 0.930 . S
C1242 C1240 1.378 . S
C1242 C1243 1.367 . S
C1243 C1242 1.367 . S
C1243 C1245 1.433 . S
C1244 C1240 1.350 . S
C1244 C1241 1.463 . S
C1244 N1248 1.427 . S
C1245 H1235 0.929 . S
C1245 C1243 1.433 . S
C1245 N1248 1.384 . S
C1246 H1237 0.929 . S
C1246 C1238 1.378 1_565 S
C1246 C1241 1.350 . S
C1247 H1234 0.929 . S
C1247 C1239 1.439 1_565 S
C1247 N1249 1.384 . S
N1248 C1244 1.427 . S
N1248 C1245 1.384 . S
N1249 C1241 1.427 . S
N1249 C1247 1.384 . S
H1250 C1256 0.930 . S
H1251 C1260 0.930 . S
H1252 C1265 0.929 . S
H1253 C1263 0.929 . S
H1254 C1258 0.929 . S
H1255 C1264 0.929 . S
C1256 H1250 0.930 . S
C1256 C1257 1.367 . S
C1256 C1264 1.378 . S
C1257 C1256 1.367 . S
C1257 C1265 1.433 . S
C1258 H1254 0.929 . S
C1258 C1260 1.378 . S
C1258 C1262 1.350 . S
C1259 C1262 1.463 . S
C1259 C1264 1.350 . S
C1259 N1267 1.427 . S
C1260 H1251 0.930 . S
C1260 C1258 1.378 . S
C1260 C1261 1.367 . S
C1261 C1260 1.367 . S
C1261 C1263 1.433 . S
C1262 C1258 1.350 . S
C1262 C1259 1.463 . S
C1262 N1266 1.427 . S
C1263 H1253 0.929 . S
C1263 C1261 1.433 . S
C1263 N1266 1.384 . S
C1264 H1255 0.929 . S
C1264 C1256 1.378 . S
C1264 C1259 1.350 . S
C1265 H1252 0.929 . S
C1265 C1257 1.433 . S
C1265 N1267 1.384 . S
N1266 C1262 1.427 . S
N1266 C1263 1.384 . S
N1267 C1259 1.427 . S
N1267 C1265 1.384 . S
H1268 C1274 0.930 . S
H1269 C1278 0.930 1_565 S
H1270 C1283 0.929 . S
H1271 C1281 0.929 . S
H1272 C1276 0.929 . S
H1273 C1282 0.929 . S
C1274 H1268 0.930 . S
C1274 C1275 1.367 . S
C1274 C1282 1.378 . S
C1275 C1274 1.367 . S
C1275 C1283 1.433 . S
C1276 H1272 0.929 . S
C1276 C1278 1.378 . S
C1276 C1280 1.350 . S
C1277 C1280 1.463 . S
C1277 C1282 1.350 . S
C1277 N1285 1.427 . S
C1278 H1269 0.930 1_545 S
C1278 C1276 1.378 . S
C1278 C1279 1.367 . S
C1279 C1278 1.367 . S
C1279 C1281 1.436 . S
C1280 C1276 1.350 . S
C1280 C1277 1.463 . S
C1280 N1284 1.427 . S
C1281 H1271 0.929 . S
C1281 C1279 1.436 . S
C1281 N1284 1.384 . S
C1282 H1273 0.929 . S
C1282 C1274 1.378 . S
C1282 C1277 1.350 . S
C1283 H1270 0.929 . S
C1283 C1275 1.433 . S
C1283 N1285 1.384 . S
N1284 C1280 1.427 . S
N1284 C1281 1.384 . S
N1285 C1277 1.427 . S
N1285 C1283 1.384 . S
H1286 C1292 0.930 . S
H1287 C1296 0.930 . S
H1288 C1301 0.929 1_556 S
H1289 C1299 0.929 . S
H1290 C1294 0.929 . S
H1291 C1300 0.929 . S
C1292 H1286 0.930 . S
C1292 C1293 1.367 . S
C1292 C1300 1.378 . S
C1293 C1292 1.367 . S
C1293 C1301 1.433 . S
C1294 H1290 0.929 . S
C1294 C1296 1.378 . S
C1294 C1298 1.350 . S
C1295 C1298 1.463 . S
C1295 C1300 1.350 . S
C1295 N1303 1.427 . S
C1296 H1287 0.930 . S
C1296 C1294 1.378 . S
C1296 C1297 1.367 . S
C1297 C1296 1.367 . S
C1297 C1299 1.433 . S
C1298 C1294 1.350 . S
C1298 C1295 1.463 . S
C1298 N1302 1.427 . S
C1299 H1289 0.929 . S
C1299 C1297 1.433 . S
C1299 N1302 1.384 . S
C1300 H1291 0.929 . S
C1300 C1292 1.378 . S
C1300 C1295 1.350 . S
C1301 H1288 0.929 1_554 S
C1301 C1293 1.433 . S
C1301 N1303 1.384 . S
N1302 C1298 1.427 . S
N1302 C1299 1.384 . S
N1303 C1295 1.427 . S
N1303 C1301 1.384 . S
H1304 C1310 0.930 . S
H1305 C1314 0.930 . S
H1306 C1319 0.929 . S
H1307 C1317 0.929 . S
H1308 C1312 0.929 . S
H1309 C1318 0.929 . S
C1310 H1304 0.930 . S
C1310 C1311 1.367 . S
C1310 C1318 1.378 . S
C1311 C1310 1.367 . S
C1311 C1319 1.433 . S
C1312 H1308 0.929 . S
C1312 C1314 1.378 1_545 S
C1312 C1316 1.350 . S
C1313 C1316 1.463 . S
C1313 C1318 1.350 . S
C1313 N1321 1.427 . S
C1314 H1305 0.930 . S
C1314 C1312 1.378 1_565 S
C1314 C1315 1.365 . S
C1315 C1314 1.365 . S
C1315 C1317 1.439 1_565 S
C1316 C1312 1.350 . S
C1316 C1313 1.463 . S
C1316 N1320 1.427 . S
C1317 H1307 0.929 . S
C1317 C1315 1.439 1_545 S
C1317 N1320 1.384 . S
C1318 H1309 0.929 . S
C1318 C1310 1.378 . S
C1318 C1313 1.350 . S
C1319 H1306 0.929 . S
C1319 C1311 1.433 . S
C1319 N1321 1.384 . S
N1320 C1316 1.427 . S
N1320 C1317 1.384 . S
N1321 C1313 1.427 . S
N1321 C1319 1.384 . S
H1322 C1328 0.930 . S
H1323 C1332 0.930 . S
H1324 C1337 0.929 . S
H1325 C1335 0.929 . S
H1326 C1330 0.929 . S
H1327 C1336 0.929 . S
C1328 H1322 0.930 . S
C1328 C1329 1.367 . S
C1328 C1336 1.378 . S
C1329 C1328 1.367 . S
C1329 C1337 1.433 . S
C1330 H1326 0.929 . S
C1330 C1332 1.378 . S
C1330 C1334 1.350 . S
C1331 C1334 1.463 . S
C1331 C1336 1.350 . S
C1331 N1339 1.427 . S
C1332 H1323 0.930 . S
C1332 C1330 1.378 . S
C1332 C1333 1.367 . S
C1333 C1332 1.367 . S
C1333 C1335 1.433 . S
C1334 C1330 1.350 . S
C1334 C1331 1.463 . S
C1334 N1338 1.427 . S
C1335 H1325 0.929 . S
C1335 C1333 1.433 . S
C1335 N1338 1.384 . S
C1336 H1327 0.929 . S
C1336 C1328 1.378 . S
C1336 C1331 1.350 . S
C1337 H1324 0.929 . S
C1337 C1329 1.433 . S
C1337 N1339 1.384 . S
N1338 C1334 1.427 . S
N1338 C1335 1.384 . S
N1339 C1331 1.427 . S
N1339 C1337 1.384 . S
H1340 C1346 0.930 . S
H1341 C1350 0.930 . S
H1342 C1355 0.946 . S
H1343 C1353 0.929 . S
H1344 C1348 0.929 . S
H1345 C1354 0.929 . S
C1346 H1340 0.930 . S
C1346 C1347 1.372 . S
C1346 C1354 1.378 . S
C1347 C1346 1.372 . S
C1347 C1355 1.437 . S
C1348 H1344 0.929 . S
C1348 C1350 1.378 . S
C1348 C1352 1.350 . S
C1349 C1352 1.463 . S
C1349 C1354 1.350 . S
C1349 N1357 1.427 . S
C1350 H1341 0.930 . S
C1350 C1348 1.378 . S
C1350 C1351 1.367 . S
C1351 C1350 1.367 . S
C1351 C1353 1.433 . S
C1352 C1348 1.350 . S
C1352 C1349 1.463 . S
C1352 N1356 1.427 . S
C1353 H1343 0.929 . S
C1353 C1351 1.433 . S
C1353 N1356 1.384 . S
C1354 H1345 0.929 . S
C1354 C1346 1.378 . S
C1354 C1349 1.350 . S
C1355 H1342 0.946 . S
C1355 C1347 1.437 . S
C1355 N1357 1.384 . S
N1356 C1352 1.427 . S
N1356 C1353 1.384 . S
N1357 C1349 1.427 . S
N1357 C1355 1.384 . S
H1358 C1364 0.930 . S
H1359 C1368 0.930 . S
H1360 C1373 0.929 . S
H1361 C1371 0.929 . S
H1362 C1366 0.929 . S
H1363 C1372 0.929 . S
C1364 H1358 0.930 . S
C1364 C1365 1.367 . S
C1364 C1372 1.378 . S
C1365 C1364 1.367 . S
C1365 C1373 1.433 . S
C1366 H1362 0.929 . S
C1366 C1368 1.378 . S
C1366 C1370 1.350 . S
C1367 C1370 1.463 . S
C1367 C1372 1.350 . S
C1367 N1375 1.427 . S
C1368 H1359 0.930 . S
C1368 C1366 1.378 . S
C1368 C1369 1.367 . S
C1369 C1368 1.367 . S
C1369 C1371 1.433 . S
C1370 C1366 1.350 . S
C1370 C1367 1.463 . S
C1370 N1374 1.427 . S
C1371 H1361 0.929 . S
C1371 C1369 1.433 . S
C1371 N1374 1.384 . S
C1372 H1363 0.929 . S
C1372 C1364 1.378 . S
C1372 C1367 1.350 . S
C1373 H1360 0.929 . S
C1373 C1365 1.433 . S
C1373 N1375 1.384 . S
N1374 C1370 1.427 . S
N1374 C1371 1.384 . S
N1375 C1367 1.427 . S
N1375 C1373 1.384 . S
H1376 C1382 0.930 . S
H1377 C1386 0.930 . S
H1378 C1391 0.929 . S
H1379 C1389 0.929 . S
H1380 C1384 0.929 . S
H1381 C1390 0.929 . S
C1382 H1376 0.930 . S
C1382 C1383 1.367 . S
C1382 C1390 1.378 . S
C1383 C1382 1.367 . S
C1383 C1391 1.433 . S
C1384 H1380 0.929 . S
C1384 C1386 1.378 . S
C1384 C1388 1.350 . S
C1385 C1388 1.463 . S
C1385 C1390 1.350 . S
C1385 N1393 1.427 . S
C1386 H1377 0.930 . S
C1386 C1384 1.378 . S
C1386 C1387 1.367 . S
C1387 C1386 1.367 . S
C1387 C1389 1.433 . S
C1388 C1384 1.350 . S
C1388 C1385 1.463 . S
C1388 N1392 1.427 . S
C1389 H1379 0.929 . S
C1389 C1387 1.433 . S
C1389 N1392 1.384 . S
C1390 H1381 0.929 . S
C1390 C1382 1.378 . S
C1390 C1385 1.350 . S
C1391 H1378 0.929 . S
C1391 C1383 1.433 . S
C1391 N1393 1.384 . S
N1392 C1388 1.427 . S
N1392 C1389 1.384 . S
N1393 C1385 1.427 . S
N1393 C1391 1.384 . S
H1394 C1400 0.930 . S
H1395 C1404 0.916 1_554 S
H1396 C1409 0.929 . S
H1397 C1407 0.929 . S
H1398 C1402 0.929 . S
H1399 C1408 0.929 . S
C1400 H1394 0.930 . S
C1400 C1401 1.367 . S
C1400 C1408 1.378 . S
C1401 C1400 1.367 . S
C1401 C1409 1.433 . S
C1402 H1398 0.929 . S
C1402 C1404 1.378 . S
C1402 C1406 1.350 . S
C1403 C1406 1.463 . S
C1403 C1408 1.350 . S
C1403 N1411 1.427 . S
C1404 H1395 0.916 1_556 S
C1404 C1402 1.378 . S
C1404 C1405 1.367 . S
C1405 C1404 1.367 . S
C1405 C1407 1.433 . S
C1406 C1402 1.350 . S
C1406 C1403 1.463 . S
C1406 N1410 1.427 . S
C1407 H1397 0.929 . S
C1407 C1405 1.433 . S
C1407 N1410 1.384 . S
C1408 H1399 0.929 . S
C1408 C1400 1.378 . S
C1408 C1403 1.350 . S
C1409 H1396 0.929 . S
C1409 C1401 1.433 . S
C1409 N1411 1.384 . S
N1410 C1406 1.427 . S
N1410 C1407 1.384 . S
N1411 C1403 1.427 . S
N1411 C1409 1.384 . S
H1412 C1418 0.930 . S
H1413 C1422 0.930 . S
H1414 C1427 0.929 . S
H1415 C1425 0.929 . S
H1416 C1420 0.929 . S
H1417 C1426 0.929 . S
C1418 H1412 0.930 . S
C1418 C1419 1.367 . S
C1418 C1426 1.378 . S
C1419 C1418 1.367 . S
C1419 C1427 1.433 . S
C1420 H1416 0.929 . S
C1420 C1422 1.378 . S
C1420 C1424 1.350 . S
C1421 C1424 1.463 . S
C1421 C1426 1.350 . S
C1421 N1429 1.427 . S
C1422 H1413 0.930 . S
C1422 C1420 1.378 . S
C1422 C1423 1.367 . S
C1423 C1422 1.367 . S
C1423 C1425 1.433 . S
C1424 C1420 1.350 . S
C1424 C1421 1.463 . S
C1424 N1428 1.427 . S
C1425 H1415 0.929 . S
C1425 C1423 1.433 . S
C1425 N1428 1.384 . S
C1426 H1417 0.929 . S
C1426 C1418 1.378 . S
C1426 C1421 1.350 . S
C1427 H1414 0.929 . S
C1427 C1419 1.433 . S
C1427 N1429 1.384 . S
N1428 C1424 1.427 . S
N1428 C1425 1.384 . S
N1429 C1421 1.427 . S
N1429 C1427 1.384 . S
H1430 C1436 0.930 . S
H1431 C1440 0.930 . S
H1432 C1445 0.929 . S
H1433 C1443 0.929 . S
H1434 C1438 0.929 . S
H1435 C1444 0.929 . S
C1436 H1430 0.930 . S
C1436 C1437 1.367 . S
C1436 C1444 1.378 . S
C1437 C1436 1.367 . S
C1437 C1445 1.433 . S
C1438 H1434 0.929 . S
C1438 C1440 1.378 . S
C1438 C1442 1.350 . S
C1439 C1442 1.463 . S
C1439 C1444 1.350 . S
C1439 N1447 1.427 . S
C1440 H1431 0.930 . S
C1440 C1438 1.378 . S
C1440 C1441 1.367 . S
C1441 C1440 1.367 . S
C1441 C1443 1.433 . S
C1442 C1438 1.350 . S
C1442 C1439 1.463 . S
C1442 N1446 1.427 . S
C1443 H1433 0.929 . S
C1443 C1441 1.433 . S
C1443 N1446 1.384 . S
C1444 H1435 0.929 . S
C1444 C1436 1.378 . S
C1444 C1439 1.350 . S
C1445 H1432 0.929 . S
C1445 C1437 1.433 . S
C1445 N1447 1.384 . S
N1446 C1442 1.427 . S
N1446 C1443 1.384 . S
N1447 C1439 1.427 . S
N1447 C1445 1.384 . S
H1448 C1454 0.930 . S
H1449 C1458 0.930 . S
H1450 C1463 0.929 . S
H1451 C1461 0.929 . S
H1452 C1456 0.929 . S
H1453 C1462 0.929 . S
C1454 H1448 0.930 . S
C1454 C1455 1.367 . S
C1454 C1462 1.378 . S
C1455 C1454 1.367 . S
C1455 C1463 1.433 . S
C1456 H1452 0.929 . S
C1456 C1458 1.378 . S
C1456 C1460 1.350 . S
C1457 C1460 1.463 . S
C1457 C1462 1.350 . S
C1457 N1465 1.427 . S
C1458 H1449 0.930 . S
C1458 C1456 1.378 . S
C1458 C1459 1.367 . S
C1459 C1458 1.367 . S
C1459 C1461 1.433 . S
C1460 C1456 1.350 . S
C1460 C1457 1.463 . S
C1460 N1464 1.427 . S
C1461 H1451 0.929 . S
C1461 C1459 1.433 . S
C1461 N1464 1.384 . S
C1462 H1453 0.929 . S
C1462 C1454 1.378 . S
C1462 C1457 1.350 . S
C1463 H1450 0.929 . S
C1463 C1455 1.433 . S
C1463 N1465 1.384 . S
N1464 C1460 1.427 . S
N1464 C1461 1.384 . S
N1465 C1457 1.427 . S
N1465 C1463 1.384 . S
H1466 C1472 0.930 . S
H1467 C1476 0.930 . S
H1468 C1481 0.929 . S
H1469 C1479 0.929 . S
H1470 C1474 0.929 . S
H1471 C1480 0.929 . S
C1472 H1466 0.930 . S
C1472 C1473 1.367 . S
C1472 C1480 1.378 . S
C1473 C1472 1.367 . S
C1473 C1481 1.433 . S
C1474 H1470 0.929 . S
C1474 C1476 1.378 . S
C1474 C1478 1.350 . S
C1475 C1478 1.463 . S
C1475 C1480 1.350 . S
C1475 N1483 1.427 . S
C1476 H1467 0.930 . S
C1476 C1474 1.378 . S
C1476 C1477 1.367 . S
C1477 C1476 1.367 . S
C1477 C1479 1.433 . S
C1478 C1474 1.350 . S
C1478 C1475 1.463 . S
C1478 N1482 1.427 . S
C1479 H1469 0.929 . S
C1479 C1477 1.433 . S
C1479 N1482 1.384 . S
C1480 H1471 0.929 . S
C1480 C1472 1.378 . S
C1480 C1475 1.350 . S
C1481 H1468 0.929 . S
C1481 C1473 1.433 . S
C1481 N1483 1.384 . S
N1482 C1478 1.427 . S
N1482 C1479 1.384 . S
N1483 C1475 1.427 . S
N1483 C1481 1.384 . S
H1484 C1490 0.930 . S
H1485 C1494 0.930 . S
H1486 C1499 0.929 . S
H1487 C1497 0.929 . S
H1488 C1492 0.929 . S
H1489 C1498 0.929 . S
C1490 H1484 0.930 . S
C1490 C1491 1.367 . S
C1490 C1498 1.378 . S
C1491 C1490 1.367 . S
C1491 C1499 1.433 . S
C1492 H1488 0.929 . S
C1492 C1494 1.378 . S
C1492 C1496 1.350 . S
C1493 C1496 1.463 . S
C1493 C1498 1.350 . S
C1493 N1501 1.427 . S
C1494 H1485 0.930 . S
C1494 C1492 1.378 . S
C1494 C1495 1.367 . S
C1495 C1494 1.367 . S
C1495 C1497 1.433 . S
C1496 C1492 1.350 . S
C1496 C1493 1.463 . S
C1496 N1500 1.427 . S
C1497 H1487 0.929 . S
C1497 C1495 1.433 . S
C1497 N1500 1.384 . S
C1498 H1489 0.929 . S
C1498 C1490 1.378 . S
C1498 C1493 1.350 . S
C1499 H1486 0.929 . S
C1499 C1491 1.433 . S
C1499 N1501 1.384 . S
N1500 C1496 1.427 . S
N1500 C1497 1.384 . S
N1501 C1493 1.427 . S
N1501 C1499 1.384 . S
H1502 C1508 0.930 . S
H1503 C1512 0.930 . S
H1504 C1517 0.929 . S
H1505 C1515 0.894 1_556 S
H1506 C1510 0.929 . S
H1507 C1516 0.929 . S
C1508 H1502 0.930 . S
C1508 C1509 1.367 . S
C1508 C1516 1.378 . S
C1509 C1508 1.367 . S
C1509 C1517 1.433 . S
C1510 H1506 0.929 . S
C1510 C1512 1.378 . S
C1510 C1514 1.350 . S
C1511 C1514 1.463 . S
C1511 C1516 1.350 . S
C1511 N1519 1.427 . S
C1512 H1503 0.930 . S
C1512 C1510 1.378 . S
C1512 C1513 1.367 . S
C1513 C1512 1.367 . S
C1513 C1515 1.433 . S
C1514 C1510 1.350 . S
C1514 C1511 1.463 . S
C1514 N1518 1.427 . S
C1515 H1505 0.894 1_554 S
C1515 C1513 1.433 . S
C1515 N1518 1.384 . S
C1516 H1507 0.929 . S
C1516 C1508 1.378 . S
C1516 C1511 1.350 . S
C1517 H1504 0.929 . S
C1517 C1509 1.433 . S
C1517 N1519 1.384 . S
N1518 C1514 1.427 . S
N1518 C1515 1.384 . S
N1519 C1511 1.427 . S
N1519 C1517 1.384 . S
H1520 C1526 0.930 . S
H1521 C1530 0.930 . S
H1522 C1535 0.929 . S
H1523 C1533 0.929 . S
H1524 C1528 0.929 . S
H1525 C1534 0.929 . S
C1526 H1520 0.930 . S
C1526 C1527 1.367 . S
C1526 C1534 1.378 . S
C1527 C1526 1.367 . S
C1527 C1535 1.433 . S
C1528 H1524 0.929 . S
C1528 C1530 1.378 . S
C1528 C1532 1.350 . S
C1529 C1532 1.463 . S
C1529 C1534 1.350 . S
C1529 N1537 1.427 . S
C1530 H1521 0.930 . S
C1530 C1528 1.378 . S
C1530 C1531 1.367 . S
C1531 C1530 1.367 . S
C1531 C1533 1.433 . S
C1532 C1528 1.350 . S
C1532 C1529 1.463 . S
C1532 N1536 1.427 . S
C1533 H1523 0.929 . S
C1533 C1531 1.433 . S
C1533 N1536 1.384 . S
C1534 H1525 0.929 . S
C1534 C1526 1.378 . S
C1534 C1529 1.350 . S
C1535 H1522 0.929 . S
C1535 C1527 1.433 . S
C1535 N1537 1.384 . S
N1536 C1532 1.427 . S
N1536 C1533 1.384 . S
N1537 C1529 1.427 . S
N1537 C1535 1.384 . S
H1538 C1544 0.930 . S
H1539 C1548 0.930 . S
H1540 C1553 0.929 . S
H1541 C1551 0.929 . S
H1542 C1546 0.929 . S
H1543 C1552 0.929 . S
C1544 H1538 0.930 . S
C1544 C1545 1.367 . S
C1544 C1552 1.378 . S
C1545 C1544 1.367 . S
C1545 C1553 1.433 . S
C1546 H1542 0.929 . S
C1546 C1548 1.378 . S
C1546 C1550 1.350 . S
C1547 C1550 1.463 . S
C1547 C1552 1.350 . S
C1547 N1555 1.427 . S
C1548 H1539 0.930 . S
C1548 C1546 1.378 . S
C1548 C1549 1.367 . S
C1549 C1548 1.367 . S
C1549 C1551 1.433 . S
C1550 C1546 1.350 . S
C1550 C1547 1.463 . S
C1550 N1554 1.427 . S
C1551 H1541 0.929 . S
C1551 C1549 1.433 . S
C1551 N1554 1.384 . S
C1552 H1543 0.929 . S
C1552 C1544 1.378 . S
C1552 C1547 1.350 . S
C1553 H1540 0.929 . S
C1553 C1545 1.433 . S
C1553 N1555 1.384 . S
N1554 C1550 1.427 . S
N1554 C1551 1.384 . S
N1555 C1547 1.427 . S
N1555 C1553 1.384 . S
H1556 C1562 0.930 . S
H1557 C1566 0.930 . S
H1558 C1571 0.929 . S
H1559 C1569 0.929 . S
H1560 C1564 0.929 . S
H1561 C1570 0.929 . S
C1562 H1556 0.930 . S
C1562 C1563 1.367 . S
C1562 C1570 1.378 . S
C1563 C1562 1.367 . S
C1563 C1571 1.433 . S
C1564 H1560 0.929 . S
C1564 C1566 1.378 . S
C1564 C1568 1.350 . S
C1565 C1568 1.463 . S
C1565 C1570 1.350 . S
C1565 N1573 1.427 . S
C1566 H1557 0.930 . S
C1566 C1564 1.378 . S
C1566 C1567 1.367 . S
C1567 C1566 1.367 . S
C1567 C1569 1.433 . S
C1568 C1564 1.350 . S
C1568 C1565 1.463 . S
C1568 N1572 1.427 . S
C1569 H1559 0.929 . S
C1569 C1567 1.433 . S
C1569 N1572 1.384 . S
C1570 H1561 0.929 . S
C1570 C1562 1.378 . S
C1570 C1565 1.350 . S
C1571 H1558 0.929 . S
C1571 C1563 1.433 . S
C1571 N1573 1.384 . S
N1572 C1568 1.427 . S
N1572 C1569 1.384 . S
N1573 C1565 1.427 . S
N1573 C1571 1.384 . S
H1574 C1580 0.930 . S
H1575 C1584 0.930 . S
H1576 C1589 0.929 . S
H1577 C1587 0.929 . S
H1578 C1582 0.929 . S
H1579 C1588 0.929 . S
C1580 H1574 0.930 . S
C1580 C1581 1.367 . S
C1580 C1588 1.378 . S
C1581 C1580 1.367 . S
C1581 C1589 1.433 . S
C1582 H1578 0.929 . S
C1582 C1584 1.378 . S
C1582 C1586 1.350 . S
C1583 C1586 1.463 . S
C1583 C1588 1.350 . S
C1583 N1591 1.427 . S
C1584 H1575 0.930 . S
C1584 C1582 1.378 . S
C1584 C1585 1.367 . S
C1585 C1584 1.367 . S
C1585 C1587 1.433 . S
C1586 C1582 1.350 . S
C1586 C1583 1.463 . S
C1586 N1590 1.427 . S
C1587 H1577 0.929 . S
C1587 C1585 1.433 . S
C1587 N1590 1.384 . S
C1588 H1579 0.929 . S
C1588 C1580 1.378 . S
C1588 C1583 1.350 . S
C1589 H1576 0.929 . S
C1589 C1581 1.433 . S
C1589 N1591 1.384 . S
N1590 C1586 1.427 . S
N1590 C1587 1.384 . S
N1591 C1583 1.427 . S
N1591 C1589 1.384 . S
H1592 C1598 0.930 . S
H1593 C1602 0.930 . S
H1594 C1607 0.929 . S
H1595 C1605 0.929 . S
H1596 C1600 0.929 . S
H1597 C1606 0.929 . S
C1598 H1592 0.930 . S
C1598 C1599 1.367 . S
C1598 C1606 1.378 . S
C1599 C1598 1.367 . S
C1599 C1607 1.433 . S
C1600 H1596 0.929 . S
C1600 C1602 1.378 . S
C1600 C1604 1.350 . S
C1601 C1604 1.463 . S
C1601 C1606 1.350 . S
C1601 N1609 1.427 . S
C1602 H1593 0.930 . S
C1602 C1600 1.378 . S
C1602 C1603 1.367 . S
C1603 C1602 1.367 . S
C1603 C1605 1.433 . S
C1604 C1600 1.350 . S
C1604 C1601 1.463 . S
C1604 N1608 1.427 . S
C1605 H1595 0.929 . S
C1605 C1603 1.433 . S
C1605 N1608 1.384 . S
C1606 H1597 0.929 . S
C1606 C1598 1.378 . S
C1606 C1601 1.350 . S
C1607 H1594 0.929 . S
C1607 C1599 1.433 . S
C1607 N1609 1.384 . S
N1608 C1604 1.427 . S
N1608 C1605 1.384 . S
N1609 C1601 1.427 . S
N1609 C1607 1.384 . S
H1610 C1616 0.930 . S
H1611 C1620 0.930 . S
H1612 C1625 0.929 . S
H1613 C1623 0.929 . S
H1614 C1618 0.929 . S
H1615 C1624 0.929 . S
C1616 H1610 0.930 . S
C1616 C1617 1.367 . S
C1616 C1624 1.378 . S
C1617 C1616 1.367 . S
C1617 C1625 1.433 . S
C1618 H1614 0.929 . S
C1618 C1620 1.378 . S
C1618 C1622 1.350 . S
C1619 C1622 1.463 . S
C1619 C1624 1.350 . S
C1619 N1627 1.427 . S
C1620 H1611 0.930 . S
C1620 C1618 1.378 . S
C1620 C1621 1.367 . S
C1621 C1620 1.367 . S
C1621 C1623 1.433 . S
C1622 C1618 1.350 . S
C1622 C1619 1.463 . S
C1622 N1626 1.427 . S
C1623 H1613 0.929 . S
C1623 C1621 1.433 . S
C1623 N1626 1.384 . S
C1624 H1615 0.929 . S
C1624 C1616 1.378 . S
C1624 C1619 1.350 . S
C1625 H1612 0.929 . S
C1625 C1617 1.433 . S
C1625 N1627 1.384 . S
N1626 C1622 1.427 . S
N1626 C1623 1.384 . S
N1627 C1619 1.427 . S
N1627 C1625 1.384 . S
H1628 C1634 0.930 . S
H1629 C1638 0.930 . S
H1630 C1643 0.929 . S
H1631 C1641 0.929 . S
H1632 C1636 0.929 . S
H1633 C1642 0.929 . S
C1634 H1628 0.930 . S
C1634 C1635 1.367 . S
C1634 C1642 1.378 . S
C1635 C1634 1.367 . S
C1635 C1643 1.433 . S
C1636 H1632 0.929 . S
C1636 C1638 1.378 . S
C1636 C1640 1.350 . S
C1637 C1640 1.463 . S
C1637 C1642 1.350 . S
C1637 N1645 1.427 . S
C1638 H1629 0.930 . S
C1638 C1636 1.378 . S
C1638 C1639 1.367 . S
C1639 C1638 1.367 . S
C1639 C1641 1.433 . S
C1640 C1636 1.350 . S
C1640 C1637 1.463 . S
C1640 N1644 1.427 . S
C1641 H1631 0.929 . S
C1641 C1639 1.433 . S
C1641 N1644 1.384 . S
C1642 H1633 0.929 . S
C1642 C1634 1.378 . S
C1642 C1637 1.350 . S
C1643 H1630 0.929 . S
C1643 C1635 1.433 . S
C1643 N1645 1.384 . S
N1644 C1640 1.427 . S
N1644 C1641 1.384 . S
N1645 C1637 1.427 . S
N1645 C1643 1.384 . S
H1646 C1652 0.930 . S
H1647 C1656 0.930 . S
H1648 C1661 0.929 . S
H1649 C1659 0.929 . S
H1650 C1654 0.929 . S
H1651 C1660 0.929 . S
C1652 H1646 0.930 . S
C1652 C1653 1.367 . S
C1652 C1660 1.378 . S
C1653 C1652 1.367 . S
C1653 C1661 1.433 . S
C1654 H1650 0.929 . S
C1654 C1656 1.378 . S
C1654 C1658 1.350 . S
C1655 C1658 1.463 . S
C1655 C1660 1.350 . S
C1655 N1663 1.427 . S
C1656 H1647 0.930 . S
C1656 C1654 1.378 . S
C1656 C1657 1.367 . S
C1657 C1656 1.367 . S
C1657 C1659 1.433 . S
C1658 C1654 1.350 . S
C1658 C1655 1.463 . S
C1658 N1662 1.427 . S
C1659 H1649 0.929 . S
C1659 C1657 1.433 . S
C1659 N1662 1.384 . S
C1660 H1651 0.929 . S
C1660 C1652 1.378 . S
C1660 C1655 1.350 . S
C1661 H1648 0.929 . S
C1661 C1653 1.433 . S
C1661 N1663 1.384 . S
N1662 C1658 1.427 . S
N1662 C1659 1.384 . S
N1663 C1655 1.427 . S
N1663 C1661 1.384 . S
H1664 C1670 0.930 . S
H1665 C1674 0.930 . S
H1666 C1679 0.929 . S
H1667 C1677 0.929 . S
H1668 C1672 0.929 . S
H1669 C1678 0.929 . S
C1670 H1664 0.930 . S
C1670 C1671 1.367 . S
C1670 C1678 1.378 . S
C1671 C1670 1.367 . S
C1671 C1679 1.433 . S
C1672 H1668 0.929 . S
C1672 C1674 1.378 . S
C1672 C1676 1.350 . S
C1673 C1676 1.463 . S
C1673 C1678 1.350 . S
C1673 N1681 1.427 . S
C1674 H1665 0.930 . S
C1674 C1672 1.378 . S
C1674 C1675 1.367 . S
C1675 C1674 1.367 . S
C1675 C1677 1.433 . S
C1676 C1672 1.350 . S
C1676 C1673 1.463 . S
C1676 N1680 1.427 . S
C1677 H1667 0.929 . S
C1677 C1675 1.433 . S
C1677 N1680 1.384 . S
C1678 H1669 0.929 . S
C1678 C1670 1.378 . S
C1678 C1673 1.350 . S
C1679 H1666 0.929 . S
C1679 C1671 1.433 . S
C1679 N1681 1.384 . S
N1680 C1676 1.427 . S
N1680 C1677 1.384 . S
N1681 C1673 1.427 . S
N1681 C1679 1.384 . S
H1682 C1688 0.930 . S
H1683 C1692 0.930 . S
H1684 C1697 0.929 . S
H1685 C1695 0.929 . S
H1686 C1690 0.929 . S
H1687 C1696 0.929 . S
C1688 H1682 0.930 . S
C1688 C1689 1.367 . S
C1688 C1696 1.378 . S
C1689 C1688 1.367 . S
C1689 C1697 1.433 . S
C1690 H1686 0.929 . S
C1690 C1692 1.378 . S
C1690 C1694 1.350 . S
C1691 C1694 1.463 1_565 S
C1691 C1696 1.350 . S
C1691 N1699 1.440 . S
C1692 H1683 0.930 . S
C1692 C1690 1.378 . S
C1692 C1693 1.367 . S
C1693 C1692 1.367 . S
C1693 C1695 1.433 . S
C1694 C1690 1.350 . S
C1694 C1691 1.463 1_545 S
C1694 N1698 1.440 . S
C1695 H1685 0.929 . S
C1695 C1693 1.433 . S
C1695 N1698 1.409 . S
C1696 H1687 0.929 . S
C1696 C1688 1.378 . S
C1696 C1691 1.350 . S
C1697 H1684 0.929 . S
C1697 C1689 1.433 . S
C1697 N1699 1.409 . S
N1698 C1694 1.440 . S
N1698 C1695 1.409 . S
N1699 C1691 1.440 . S
N1699 C1697 1.409 . S
H1700 C1706 0.930 . S
H1701 C1710 0.930 . S
H1702 C1715 0.929 . S
H1703 C1713 0.929 . S
H1704 C1708 0.929 . S
H1705 C1714 0.929 . S
C1706 H1700 0.930 . S
C1706 C1707 1.367 . S
C1706 C1714 1.378 . S
C1707 C1706 1.367 . S
C1707 C1715 1.433 . S
C1708 H1704 0.929 . S
C1708 C1710 1.378 . S
C1708 C1712 1.350 . S
C1709 C1712 1.463 . S
C1709 C1714 1.350 . S
C1709 N1717 1.427 . S
C1710 H1701 0.930 . S
C1710 C1708 1.378 . S
C1710 C1711 1.367 . S
C1711 C1710 1.367 . S
C1711 C1713 1.433 . S
C1712 C1708 1.350 . S
C1712 C1709 1.463 . S
C1712 N1716 1.427 . S
C1713 H1703 0.929 . S
C1713 C1711 1.433 . S
C1713 N1716 1.384 . S
C1714 H1705 0.929 . S
C1714 C1706 1.378 . S
C1714 C1709 1.350 . S
C1715 H1702 0.929 . S
C1715 C1707 1.433 . S
C1715 N1717 1.384 . S
N1716 C1712 1.427 . S
N1716 C1713 1.384 . S
N1717 C1709 1.427 . S
N1717 C1715 1.384 . S
H1718 C1724 0.930 . S
H1719 C1728 0.930 . S
H1720 C1733 0.929 . S
H1721 C1731 0.929 . S
H1722 C1726 0.953 . S
H1723 C1732 0.953 . S
C1724 H1718 0.930 . S
C1724 C1725 1.367 . S
C1724 C1732 1.378 . S
C1725 C1724 1.367 . S
C1725 C1733 1.433 . S
C1726 H1722 0.953 . S
C1726 C1728 1.378 . S
C1726 C1730 1.350 . S
C1727 C1730 1.463 1_546 S
C1727 C1732 1.350 . S
C1727 N1735 1.427 1_545 S
C1728 H1719 0.930 . S
C1728 C1726 1.378 . S
C1728 C1729 1.367 . S
C1729 C1728 1.367 . S
C1729 C1731 1.433 . S
C1730 C1726 1.350 . S
C1730 C1727 1.463 1_564 S
C1730 N1734 1.427 1_565 S
C1731 H1721 0.929 . S
C1731 C1729 1.433 . S
C1731 N1734 1.384 1_565 S
C1732 H1723 0.953 . S
C1732 C1724 1.378 . S
C1732 C1727 1.350 . S
C1733 H1720 0.929 . S
C1733 C1725 1.433 . S
C1733 N1735 1.384 1_545 S
N1734 C1730 1.427 1_545 S
N1734 C1731 1.384 1_545 S
N1735 C1727 1.427 1_565 S
N1735 C1733 1.384 1_565 S
H1736 C1742 0.930 . S
H1737 C1746 0.930 . S
H1738 C1751 0.929 . S
H1739 C1749 0.929 . S
H1740 C1744 0.929 . S
H1741 C1750 0.929 . S
C1742 H1736 0.930 . S
C1742 C1743 1.367 . S
C1742 C1750 1.378 . S
C1743 C1742 1.367 . S
C1743 C1751 1.433 . S
C1744 H1740 0.929 . S
C1744 C1746 1.378 . S
C1744 C1748 1.350 . S
C1745 C1748 1.463 . S
C1745 C1750 1.350 . S
C1745 N1753 1.427 . S
C1746 H1737 0.930 . S
C1746 C1744 1.378 . S
C1746 C1747 1.367 . S
C1747 C1746 1.367 . S
C1747 C1749 1.433 . S
C1748 C1744 1.350 . S
C1748 C1745 1.463 . S
C1748 N1752 1.427 . S
C1749 H1739 0.929 . S
C1749 C1747 1.433 . S
C1749 N1752 1.384 . S
C1750 H1741 0.929 . S
C1750 C1742 1.378 . S
C1750 C1745 1.350 . S
C1751 H1738 0.929 . S
C1751 C1743 1.433 . S
C1751 N1753 1.384 . S
N1752 C1748 1.427 . S
N1752 C1749 1.384 . S
N1753 C1745 1.427 . S
N1753 C1751 1.384 . S
H1754 C1760 0.930 . S
H1755 C1764 0.930 . S
H1756 C1769 0.917 1_545 S
H1757 C1767 0.917 1_565 S
H1758 C1762 0.929 . S
H1759 C1768 0.929 . S
C1760 H1754 0.930 . S
C1760 C1761 1.367 . S
C1760 C1768 1.378 . S
C1761 C1760 1.367 . S
C1761 C1769 1.433 . S
C1762 H1758 0.929 . S
C1762 C1764 1.378 . S
C1762 C1766 1.350 . S
C1763 C1766 1.463 1_565 S
C1763 C1768 1.350 . S
C1763 N1771 1.427 1_565 S
C1764 H1755 0.930 . S
C1764 C1762 1.378 . S
C1764 C1765 1.367 . S
C1765 C1764 1.367 . S
C1765 C1767 1.433 . S
C1766 C1762 1.350 . S
C1766 C1763 1.463 1_545 S
C1766 N1770 1.427 1_545 S
C1767 H1757 0.917 1_545 S
C1767 C1765 1.433 . S
C1767 N1770 1.384 1_545 S
C1768 H1759 0.929 . S
C1768 C1760 1.378 . S
C1768 C1763 1.350 . S
C1769 H1756 0.917 1_565 S
C1769 C1761 1.433 . S
C1769 N1771 1.384 1_565 S
N1770 C1766 1.427 1_565 S
N1770 C1767 1.384 1_565 S
N1771 C1763 1.427 1_545 S
N1771 C1769 1.384 1_545 S
H1772 C1778 0.930 . S
H1773 C1782 0.930 . S
H1774 C1787 0.929 . S
H1775 C1785 0.929 . S
H1776 C1780 0.929 . S
H1777 C1786 0.929 . S
C1778 H1772 0.930 . S
C1778 C1779 1.367 . S
C1778 C1786 1.378 . S
C1779 C1778 1.367 . S
C1779 C1787 1.433 . S
C1780 H1776 0.929 . S
C1780 C1782 1.378 . S
C1780 C1784 1.350 . S
C1781 C1784 1.463 . S
C1781 C1786 1.350 . S
C1781 N1789 1.427 . S
C1782 H1773 0.930 . S
C1782 C1780 1.378 . S
C1782 C1783 1.367 . S
C1783 C1782 1.367 . S
C1783 C1785 1.433 . S
C1784 C1780 1.350 . S
C1784 C1781 1.463 . S
C1784 N1788 1.427 . S
C1785 H1775 0.929 . S
C1785 C1783 1.433 . S
C1785 N1788 1.384 . S
C1786 H1777 0.929 . S
C1786 C1778 1.378 . S
C1786 C1781 1.350 . S
C1787 H1774 0.929 . S
C1787 C1779 1.433 . S
C1787 N1789 1.384 . S
N1788 C1784 1.427 . S
N1788 C1785 1.384 . S
N1789 C1781 1.427 . S
N1789 C1787 1.384 . S
H1790 C1796 0.930 . S
H1791 C1800 0.930 . S
H1792 C1805 0.929 . S
H1793 C1803 0.929 . S
H1794 C1798 0.929 . S
H1795 C1804 0.929 . S
C1796 H1790 0.930 . S
C1796 C1797 1.367 . S
C1796 C1804 1.378 1_545 S
C1797 C1796 1.367 . S
C1797 C1805 1.433 . S
C1798 H1794 0.929 . S
C1798 C1800 1.378 1_545 S
C1798 C1802 1.350 1_545 S
C1799 C1802 1.463 1_546 S
C1799 C1804 1.350 1_545 S
C1799 N1807 1.427 . S
C1800 H1791 0.930 . S
C1800 C1798 1.378 1_565 S
C1800 C1801 1.367 . S
C1801 C1800 1.367 . S
C1801 C1803 1.433 . S
C1802 C1798 1.350 1_565 S
C1802 C1799 1.463 1_564 S
C1802 N1806 1.427 . S
C1803 H1793 0.929 . S
C1803 C1801 1.433 . S
C1803 N1806 1.384 . S
C1804 H1795 0.929 . S
C1804 C1796 1.378 1_565 S
C1804 C1799 1.350 1_565 S
C1805 H1792 0.929 . S
C1805 C1797 1.433 . S
C1805 N1807 1.384 . S
N1806 C1802 1.427 . S
N1806 C1803 1.384 . S
N1807 C1799 1.427 . S
N1807 C1805 1.384 . S
H1808 C1814 0.930 . S
H1809 C1818 0.930 . S
H1810 C1823 0.929 . S
H1811 C1821 0.929 . S
H1812 C1816 0.929 . S
H1813 C1822 0.929 . S
C1814 H1808 0.930 . S
C1814 C1815 1.367 . S
C1814 C1822 1.378 . S
C1815 C1814 1.367 . S
C1815 C1823 1.433 . S
C1816 H1812 0.929 . S
C1816 C1818 1.378 . S
C1816 C1820 1.350 . S
C1817 C1820 1.463 . S
C1817 C1822 1.350 . S
C1817 N1825 1.427 . S
C1818 H1809 0.930 . S
C1818 C1816 1.378 . S
C1818 C1819 1.367 . S
C1819 C1818 1.367 . S
C1819 C1821 1.433 . S
C1820 C1816 1.350 . S
C1820 C1817 1.463 . S
C1820 N1824 1.427 . S
C1821 H1811 0.929 . S
C1821 C1819 1.433 . S
C1821 N1824 1.384 . S
C1822 H1813 0.929 . S
C1822 C1814 1.378 . S
C1822 C1817 1.350 . S
C1823 H1810 0.929 . S
C1823 C1815 1.433 . S
C1823 N1825 1.384 . S
N1824 C1820 1.427 . S
N1824 C1821 1.384 . S
N1825 C1817 1.427 . S
N1825 C1823 1.384 . S
H1826 C1832 0.930 . S
H1827 C1836 0.930 . S
H1828 C1841 0.929 . S
H1829 C1839 0.929 . S
H1830 C1834 0.929 1_554 S
H1831 C1840 0.929 1_556 S
C1832 H1826 0.930 . S
C1832 C1833 1.367 . S
C1832 C1840 1.378 . S
C1833 C1832 1.367 . S
C1833 C1841 1.433 . S
C1834 H1830 0.929 1_556 S
C1834 C1836 1.378 . S
C1834 C1838 1.350 . S
C1835 C1838 1.463 1_554 S
C1835 C1840 1.350 . S
C1835 N1843 1.427 . S
C1836 H1827 0.930 . S
C1836 C1834 1.378 . S
C1836 C1837 1.367 . S
C1837 C1836 1.367 . S
C1837 C1839 1.433 . S
C1838 C1834 1.350 . S
C1838 C1835 1.463 1_556 S
C1838 N1842 1.427 . S
C1839 H1829 0.929 . S
C1839 C1837 1.433 . S
C1839 N1842 1.384 . S
C1840 H1831 0.929 1_554 S
C1840 C1832 1.378 . S
C1840 C1835 1.350 . S
C1841 H1828 0.929 . S
C1841 C1833 1.433 . S
C1841 N1843 1.384 . S
N1842 C1838 1.427 . S
N1842 C1839 1.384 . S
N1843 C1835 1.427 . S
N1843 C1841 1.384 . S
H1844 C1850 0.930 . S
H1845 C1854 0.930 . S
H1846 C1859 0.929 . S
H1847 C1857 0.929 . S
H1848 C1852 0.929 . S
H1849 C1858 0.929 . S
C1850 H1844 0.930 . S
C1850 C1851 1.367 . S
C1850 C1858 1.378 . S
C1851 C1850 1.367 . S
C1851 C1859 1.433 . S
C1852 H1848 0.929 . S
C1852 C1854 1.378 . S
C1852 C1856 1.350 . S
C1853 C1856 1.463 . S
C1853 C1858 1.350 . S
C1853 N1861 1.427 . S
C1854 H1845 0.930 . S
C1854 C1852 1.378 . S
C1854 C1855 1.367 . S
C1855 C1854 1.367 . S
C1855 C1857 1.433 . S
C1856 C1852 1.350 . S
C1856 C1853 1.463 . S
C1856 N1860 1.427 . S
C1857 H1847 0.929 . S
C1857 C1855 1.433 . S
C1857 N1860 1.384 . S
C1858 H1849 0.929 . S
C1858 C1850 1.378 . S
C1858 C1853 1.350 . S
C1859 H1846 0.929 . S
C1859 C1851 1.433 . S
C1859 N1861 1.384 . S
N1860 C1856 1.427 . S
N1860 C1857 1.384 . S
N1861 C1853 1.427 . S
N1861 C1859 1.384 . S
H1862 C1868 0.930 . S
H1863 C1872 0.930 . S
H1864 C1877 0.929 . S
H1865 C1875 0.929 . S
H1866 C1870 0.929 . S
H1867 C1876 0.929 . S
C1868 H1862 0.930 . S
C1868 C1869 1.367 . S
C1868 C1876 1.378 . S
C1869 C1868 1.367 . S
C1869 C1877 1.433 . S
C1870 H1866 0.929 . S
C1870 C1872 1.378 . S
C1870 C1874 1.350 . S
C1871 C1874 1.463 . S
C1871 C1876 1.350 . S
C1871 N1879 1.427 . S
C1872 H1863 0.930 . S
C1872 C1870 1.378 . S
C1872 C1873 1.367 . S
C1873 C1872 1.367 . S
C1873 C1875 1.433 . S
C1874 C1870 1.350 . S
C1874 C1871 1.463 . S
C1874 N1878 1.427 . S
C1875 H1865 0.929 . S
C1875 C1873 1.433 . S
C1875 N1878 1.384 . S
C1876 H1867 0.929 . S
C1876 C1868 1.378 . S
C1876 C1871 1.350 . S
C1877 H1864 0.929 . S
C1877 C1869 1.433 . S
C1877 N1879 1.384 . S
N1878 C1874 1.427 . S
N1878 C1875 1.384 . S
N1879 C1871 1.427 . S
N1879 C1877 1.384 . S
H1880 C1886 0.930 . S
H1881 C1890 0.930 . S
H1882 C1895 0.929 . S
H1883 C1893 0.929 . S
H1884 C1888 0.929 . S
H1885 C1894 0.929 . S
C1886 H1880 0.930 . S
C1886 C1887 1.367 . S
C1886 C1894 1.378 . S
C1887 C1886 1.367 . S
C1887 C1895 1.433 . S
C1888 H1884 0.929 . S
C1888 C1890 1.378 . S
C1888 C1892 1.350 . S
C1889 C1892 1.463 . S
C1889 C1894 1.350 . S
C1889 N1897 1.427 . S
C1890 H1881 0.930 . S
C1890 C1888 1.378 . S
C1890 C1891 1.367 . S
C1891 C1890 1.367 . S
C1891 C1893 1.433 . S
C1892 C1888 1.350 . S
C1892 C1889 1.463 . S
C1892 N1896 1.427 . S
C1893 H1883 0.929 . S
C1893 C1891 1.433 . S
C1893 N1896 1.384 . S
C1894 H1885 0.929 . S
C1894 C1886 1.378 . S
C1894 C1889 1.350 . S
C1895 H1882 0.929 . S
C1895 C1887 1.433 . S
C1895 N1897 1.384 . S
N1896 C1892 1.427 . S
N1896 C1893 1.384 . S
N1897 C1889 1.427 . S
N1897 C1895 1.384 . S
H1898 C1904 0.930 . S
H1899 C1908 0.930 . S
H1900 C1913 0.929 . S
H1901 C1911 0.929 . S
H1902 C1906 0.929 1_556 S
H1903 C1912 0.929 1_554 S
C1904 H1898 0.930 . S
C1904 C1905 1.367 . S
C1904 C1912 1.378 . S
C1905 C1904 1.367 . S
C1905 C1913 1.433 . S
C1906 H1902 0.929 1_554 S
C1906 C1908 1.378 . S
C1906 C1910 1.350 . S
C1907 C1910 1.463 1_556 S
C1907 C1912 1.350 . S
C1907 N1915 1.427 . S
C1908 H1899 0.930 . S
C1908 C1906 1.378 . S
C1908 C1909 1.367 . S
C1909 C1908 1.367 . S
C1909 C1911 1.433 . S
C1910 C1906 1.350 . S
C1910 C1907 1.463 1_554 S
C1910 N1914 1.427 . S
C1911 H1901 0.929 . S
C1911 C1909 1.433 . S
C1911 N1914 1.384 . S
C1912 H1903 0.929 1_556 S
C1912 C1904 1.378 . S
C1912 C1907 1.350 . S
C1913 H1900 0.929 . S
C1913 C1905 1.433 . S
C1913 N1915 1.384 . S
N1914 C1910 1.427 . S
N1914 C1911 1.384 . S
N1915 C1907 1.427 . S
N1915 C1913 1.384 . S
H1916 C1922 0.930 . S
H1917 C1926 0.930 . S
H1918 C1931 0.929 . S
H1919 C1929 0.929 . S
H1920 C1924 0.929 . S
H1921 C1930 0.929 . S
C1922 H1916 0.930 . S
C1922 C1923 1.367 . S
C1922 C1930 1.378 . S
C1923 C1922 1.367 . S
C1923 C1931 1.433 . S
C1924 H1920 0.929 . S
C1924 C1926 1.378 . S
C1924 C1928 1.350 . S
C1925 C1928 1.463 . S
C1925 C1930 1.350 . S
C1925 N1933 1.427 . S
C1926 H1917 0.930 . S
C1926 C1924 1.378 . S
C1926 C1927 1.367 . S
C1927 C1926 1.367 . S
C1927 C1929 1.433 . S
C1928 C1924 1.350 . S
C1928 C1925 1.463 . S
C1928 N1932 1.427 . S
C1929 H1919 0.929 . S
C1929 C1927 1.433 . S
C1929 N1932 1.384 . S
C1930 H1921 0.929 . S
C1930 C1922 1.378 . S
C1930 C1925 1.350 . S
C1931 H1918 0.929 . S
C1931 C1923 1.433 . S
C1931 N1933 1.384 . S
N1932 C1928 1.427 . S
N1932 C1929 1.384 . S
N1933 C1925 1.427 . S
N1933 C1931 1.384 . S
H1934 C1940 0.930 . S
H1935 C1944 0.930 . S
H1936 C1949 0.929 . S
H1937 C1947 0.929 . S
H1938 C1942 0.929 . S
H1939 C1948 0.929 . S
C1940 H1934 0.930 . S
C1940 C1941 1.367 . S
C1940 C1948 1.378 . S
C1941 C1940 1.367 . S
C1941 C1949 1.433 . S
C1942 H1938 0.929 . S
C1942 C1944 1.378 . S
C1942 C1946 1.350 . S
C1943 C1946 1.463 . S
C1943 C1948 1.350 . S
C1943 N1951 1.427 . S
C1944 H1935 0.930 . S
C1944 C1942 1.378 . S
C1944 C1945 1.367 . S
C1945 C1944 1.367 . S
C1945 C1947 1.433 . S
C1946 C1942 1.350 . S
C1946 C1943 1.463 . S
C1946 N1950 1.427 . S
C1947 H1937 0.929 . S
C1947 C1945 1.433 . S
C1947 N1950 1.384 . S
C1948 H1939 0.929 . S
C1948 C1940 1.378 . S
C1948 C1943 1.350 . S
C1949 H1936 0.929 . S
C1949 C1941 1.433 . S
C1949 N1951 1.384 . S
N1950 C1946 1.427 . S
N1950 C1947 1.384 . S
N1951 C1943 1.427 . S
N1951 C1949 1.384 . S
H1952 C1958 0.930 . S
H1953 C1962 0.930 . S
H1954 C1967 0.929 . S
H1955 C1965 0.929 . S
H1956 C1960 0.929 . S
H1957 C1966 0.929 . S
C1958 H1952 0.930 . S
C1958 C1959 1.367 . S
C1958 C1966 1.378 . S
C1959 C1958 1.367 . S
C1959 C1967 1.433 . S
C1960 H1956 0.929 . S
C1960 C1962 1.378 . S
C1960 C1964 1.350 . S
C1961 C1964 1.463 . S
C1961 C1966 1.350 . S
C1961 N1969 1.427 . S
C1962 H1953 0.930 . S
C1962 C1960 1.378 . S
C1962 C1963 1.367 . S
C1963 C1962 1.367 . S
C1963 C1965 1.433 . S
C1964 C1960 1.350 . S
C1964 C1961 1.463 . S
C1964 N1968 1.427 . S
C1965 H1955 0.929 . S
C1965 C1963 1.433 . S
C1965 N1968 1.384 . S
C1966 H1957 0.929 . S
C1966 C1958 1.378 . S
C1966 C1961 1.350 . S
C1967 H1954 0.929 . S
C1967 C1959 1.433 . S
C1967 N1969 1.384 . S
N1968 C1964 1.427 . S
N1968 C1965 1.384 . S
N1969 C1961 1.427 . S
N1969 C1967 1.384 . S
H1970 C1976 0.930 . S
H1971 C1980 0.930 . S
H1972 C1985 0.929 . S
H1973 C1983 0.929 . S
H1974 C1978 0.929 . S
H1975 C1984 0.929 . S
C1976 H1970 0.930 . S
C1976 C1977 1.367 . S
C1976 C1984 1.378 . S
C1977 C1976 1.367 . S
C1977 C1985 1.433 . S
C1978 H1974 0.929 . S
C1978 C1980 1.378 . S
C1978 C1982 1.350 . S
C1979 C1982 1.463 . S
C1979 C1984 1.350 . S
C1979 N1987 1.427 . S
C1980 H1971 0.930 . S
C1980 C1978 1.378 . S
C1980 C1981 1.367 . S
C1981 C1980 1.367 . S
C1981 C1983 1.433 . S
C1982 C1978 1.350 . S
C1982 C1979 1.463 . S
C1982 N1986 1.427 . S
C1983 H1973 0.929 . S
C1983 C1981 1.433 . S
C1983 N1986 1.384 . S
C1984 H1975 0.929 . S
C1984 C1976 1.378 . S
C1984 C1979 1.350 . S
C1985 H1972 0.929 . S
C1985 C1977 1.433 . S
C1985 N1987 1.384 . S
N1986 C1982 1.427 . S
N1986 C1983 1.384 . S
N1987 C1979 1.427 . S
N1987 C1985 1.384 . S
H1988 C1994 0.930 . S
H1989 C1998 0.930 . S
H1990 C2003 0.929 . S
H1991 C2001 0.929 . S
H1992 C1996 0.929 . S
H1993 C2002 0.929 . S
C1994 H1988 0.930 . S
C1994 C1995 1.367 . S
C1994 C2002 1.378 . S
C1995 C1994 1.367 . S
C1995 C2003 1.433 . S
C1996 H1992 0.929 . S
C1996 C1998 1.378 . S
C1996 C2000 1.350 . S
C1997 C2000 1.463 . S
C1997 C2002 1.350 . S
C1997 N2005 1.427 . S
C1998 H1989 0.930 . S
C1998 C1996 1.378 . S
C1998 C1999 1.367 . S
C1999 C1998 1.367 . S
C1999 C2001 1.433 . S
C2000 C1996 1.350 . S
C2000 C1997 1.463 . S
C2000 N2004 1.427 . S
C2001 H1991 0.929 . S
C2001 C1999 1.433 . S
C2001 N2004 1.384 . S
C2002 H1993 0.929 . S
C2002 C1994 1.378 . S
C2002 C1997 1.350 . S
C2003 H1990 0.929 . S
C2003 C1995 1.433 . S
C2003 N2005 1.384 . S
N2004 C2000 1.427 . S
N2004 C2001 1.384 . S
N2005 C1997 1.427 . S
N2005 C2003 1.384 . S
H2006 C2012 0.930 . S
H2007 C2016 0.930 . S
H2008 C2021 0.929 . S
H2009 C2019 0.929 . S
H2010 C2014 0.929 . S
H2011 C2020 0.929 . S
C2012 H2006 0.930 . S
C2012 C2013 1.367 . S
C2012 C2020 1.378 . S
C2013 C2012 1.367 . S
C2013 C2021 1.433 . S
C2014 H2010 0.929 . S
C2014 C2016 1.378 . S
C2014 C2018 1.350 . S
C2015 C2018 1.463 . S
C2015 C2020 1.350 . S
C2015 N2023 1.427 . S
C2016 H2007 0.930 . S
C2016 C2014 1.378 . S
C2016 C2017 1.367 . S
C2017 C2016 1.367 . S
C2017 C2019 1.433 . S
C2018 C2014 1.350 . S
C2018 C2015 1.463 . S
C2018 N2022 1.427 . S
C2019 H2009 0.929 . S
C2019 C2017 1.433 . S
C2019 N2022 1.384 . S
C2020 H2011 0.929 . S
C2020 C2012 1.378 . S
C2020 C2015 1.350 . S
C2021 H2008 0.929 . S
C2021 C2013 1.433 . S
C2021 N2023 1.384 . S
N2022 C2018 1.427 . S
N2022 C2019 1.384 . S
N2023 C2015 1.427 . S
N2023 C2021 1.384 . S
H2024 C2030 0.930 . S
H2025 C2034 0.930 . S
H2026 C2039 0.929 . S
H2027 C2037 0.929 . S
H2028 C2032 0.929 . S
H2029 C2038 0.929 . S
C2030 H2024 0.930 . S
C2030 C2031 1.367 . S
C2030 C2038 1.378 . S
C2031 C2030 1.367 . S
C2031 C2039 1.433 . S
C2032 H2028 0.929 . S
C2032 C2034 1.378 . S
C2032 C2036 1.350 . S
C2033 C2036 1.463 . S
C2033 C2038 1.350 . S
C2033 N2041 1.427 . S
C2034 H2025 0.930 . S
C2034 C2032 1.378 . S
C2034 C2035 1.367 . S
C2035 C2034 1.367 . S
C2035 C2037 1.433 . S
C2036 C2032 1.350 . S
C2036 C2033 1.463 . S
C2036 N2040 1.427 . S
C2037 H2027 0.929 . S
C2037 C2035 1.433 . S
C2037 N2040 1.384 . S
C2038 H2029 0.929 . S
C2038 C2030 1.378 . S
C2038 C2033 1.350 . S
C2039 H2026 0.929 . S
C2039 C2031 1.433 . S
C2039 N2041 1.384 . S
N2040 C2036 1.427 . S
N2040 C2037 1.384 . S
N2041 C2033 1.427 . S
N2041 C2039 1.384 . S
H2042 C2048 0.930 . S
H2043 C2052 0.930 . S
H2044 C2057 0.929 . S
H2045 C2055 0.929 . S
H2046 C2050 0.929 . S
H2047 C2056 0.929 . S
C2048 H2042 0.930 . S
C2048 C2049 1.367 . S
C2048 C2056 1.378 . S
C2049 C2048 1.367 . S
C2049 C2057 1.433 . S
C2050 H2046 0.929 . S
C2050 C2052 1.378 . S
C2050 C2054 1.350 . S
C2051 C2054 1.463 . S
C2051 C2056 1.350 . S
C2051 N2059 1.427 . S
C2052 H2043 0.930 . S
C2052 C2050 1.378 . S
C2052 C2053 1.367 . S
C2053 C2052 1.367 . S
C2053 C2055 1.433 . S
C2054 C2050 1.350 . S
C2054 C2051 1.463 . S
C2054 N2058 1.427 . S
C2055 H2045 0.929 . S
C2055 C2053 1.433 . S
C2055 N2058 1.384 . S
C2056 H2047 0.929 . S
C2056 C2048 1.378 . S
C2056 C2051 1.350 . S
C2057 H2044 0.929 . S
C2057 C2049 1.433 . S
C2057 N2059 1.384 . S
N2058 C2054 1.427 . S
N2058 C2055 1.384 . S
N2059 C2051 1.427 . S
N2059 C2057 1.384 . S
H2060 C2066 0.930 . S
H2061 C2070 0.930 . S
H2062 C2075 0.929 . S
H2063 C2073 0.929 . S
H2064 C2068 0.929 . S
H2065 C2074 0.929 . S
C2066 H2060 0.930 . S
C2066 C2067 1.367 . S
C2066 C2074 1.378 . S
C2067 C2066 1.367 . S
C2067 C2075 1.433 . S
C2068 H2064 0.929 . S
C2068 C2070 1.378 . S
C2068 C2072 1.350 . S
C2069 C2072 1.463 . S
C2069 C2074 1.350 . S
C2069 N2077 1.427 . S
C2070 H2061 0.930 . S
C2070 C2068 1.378 . S
C2070 C2071 1.367 . S
C2071 C2070 1.367 . S
C2071 C2073 1.433 . S
C2072 C2068 1.350 . S
C2072 C2069 1.463 . S
C2072 N2076 1.427 . S
C2073 H2063 0.929 . S
C2073 C2071 1.433 . S
C2073 N2076 1.384 . S
C2074 H2065 0.929 . S
C2074 C2066 1.378 . S
C2074 C2069 1.350 . S
C2075 H2062 0.929 . S
C2075 C2067 1.433 . S
C2075 N2077 1.384 . S
N2076 C2072 1.427 . S
N2076 C2073 1.384 . S
N2077 C2069 1.427 . S
N2077 C2075 1.384 . S
H2078 C2084 0.930 . S
H2079 C2088 0.930 . S
H2080 C2093 0.929 . S
H2081 C2091 0.929 . S
H2082 C2086 0.929 . S
H2083 C2092 0.929 . S
C2084 H2078 0.930 . S
C2084 C2085 1.367 . S
C2084 C2092 1.378 . S
C2085 C2084 1.367 . S
C2085 C2093 1.433 . S
C2086 H2082 0.929 . S
C2086 C2088 1.378 . S
C2086 C2090 1.350 . S
C2087 C2090 1.463 . S
C2087 C2092 1.350 . S
C2087 N2095 1.427 . S
C2088 H2079 0.930 . S
C2088 C2086 1.378 . S
C2088 C2089 1.367 . S
C2089 C2088 1.367 . S
C2089 C2091 1.433 . S
C2090 C2086 1.350 . S
C2090 C2087 1.463 . S
C2090 N2094 1.427 . S
C2091 H2081 0.929 . S
C2091 C2089 1.433 . S
C2091 N2094 1.384 . S
C2092 H2083 0.929 . S
C2092 C2084 1.378 . S
C2092 C2087 1.350 . S
C2093 H2080 0.929 . S
C2093 C2085 1.433 . S
C2093 N2095 1.384 . S
N2094 C2090 1.427 . S
N2094 C2091 1.384 . S
N2095 C2087 1.427 . S
N2095 C2093 1.384 . S
H2096 C2102 0.930 . S
H2097 C2106 0.930 . S
H2098 C2111 0.929 . S
H2099 C2109 0.929 . S
H2100 C2104 0.929 . S
H2101 C2110 0.929 . S
C2102 H2096 0.930 . S
C2102 C2103 1.367 . S
C2102 C2110 1.378 . S
C2103 C2102 1.367 . S
C2103 C2111 1.433 . S
C2104 H2100 0.929 . S
C2104 C2106 1.378 . S
C2104 C2108 1.350 . S
C2105 C2108 1.463 . S
C2105 C2110 1.350 . S
C2105 N2113 1.427 . S
C2106 H2097 0.930 . S
C2106 C2104 1.378 . S
C2106 C2107 1.367 . S
C2107 C2106 1.367 . S
C2107 C2109 1.433 . S
C2108 C2104 1.350 . S
C2108 C2105 1.463 . S
C2108 N2112 1.427 . S
C2109 H2099 0.929 . S
C2109 C2107 1.433 . S
C2109 N2112 1.384 . S
C2110 H2101 0.929 . S
C2110 C2102 1.378 . S
C2110 C2105 1.350 . S
C2111 H2098 0.929 . S
C2111 C2103 1.433 . S
C2111 N2113 1.384 . S
N2112 C2108 1.427 . S
N2112 C2109 1.384 . S
N2113 C2105 1.427 . S
N2113 C2111 1.384 . S
H2114 C2120 0.930 . S
H2115 C2124 0.930 . S
H2116 C2129 0.929 . S
H2117 C2127 0.929 . S
H2118 C2122 0.929 . S
H2119 C2128 0.929 . S
C2120 H2114 0.930 . S
C2120 C2121 1.367 . S
C2120 C2128 1.378 . S
C2121 C2120 1.367 . S
C2121 C2129 1.433 . S
C2122 H2118 0.929 . S
C2122 C2124 1.378 . S
C2122 C2126 1.350 . S
C2123 C2126 1.463 . S
C2123 C2128 1.350 . S
C2123 N2131 1.427 . S
C2124 H2115 0.930 . S
C2124 C2122 1.378 . S
C2124 C2125 1.367 . S
C2125 C2124 1.367 . S
C2125 C2127 1.433 . S
C2126 C2122 1.350 . S
C2126 C2123 1.463 . S
C2126 N2130 1.427 . S
C2127 H2117 0.929 . S
C2127 C2125 1.433 . S
C2127 N2130 1.384 . S
C2128 H2119 0.929 . S
C2128 C2120 1.378 . S
C2128 C2123 1.350 . S
C2129 H2116 0.929 . S
C2129 C2121 1.433 . S
C2129 N2131 1.384 . S
N2130 C2126 1.427 . S
N2130 C2127 1.384 . S
N2131 C2123 1.427 . S
N2131 C2129 1.384 . S
H2132 C2138 0.930 . S
H2133 C2142 0.930 . S
H2134 C2147 0.929 . S
H2135 C2145 0.929 . S
H2136 C2140 0.929 . S
H2137 C2146 0.929 . S
C2138 H2132 0.930 . S
C2138 C2139 1.367 . S
C2138 C2146 1.378 . S
C2139 C2138 1.367 . S
C2139 C2147 1.433 . S
C2140 H2136 0.929 . S
C2140 C2142 1.378 . S
C2140 C2144 1.350 . S
C2141 C2144 1.463 . S
C2141 C2146 1.350 . S
C2141 N2149 1.427 . S
C2142 H2133 0.930 . S
C2142 C2140 1.378 . S
C2142 C2143 1.367 . S
C2143 C2142 1.367 . S
C2143 C2145 1.433 . S
C2144 C2140 1.350 . S
C2144 C2141 1.463 . S
C2144 N2148 1.427 . S
C2145 H2135 0.929 . S
C2145 C2143 1.433 . S
C2145 N2148 1.384 . S
C2146 H2137 0.929 . S
C2146 C2138 1.378 . S
C2146 C2141 1.350 . S
C2147 H2134 0.929 . S
C2147 C2139 1.433 . S
C2147 N2149 1.384 . S
N2148 C2144 1.427 . S
N2148 C2145 1.384 . S
N2149 C2141 1.427 . S
N2149 C2147 1.384 . S
H2150 C2156 0.930 . S
H2151 C2160 0.930 . S
H2152 C2165 0.929 . S
H2153 C2163 0.929 . S
H2154 C2158 0.929 . S
H2155 C2164 0.929 . S
C2156 H2150 0.930 . S
C2156 C2157 1.367 . S
C2156 C2164 1.378 . S
C2157 C2156 1.367 . S
C2157 C2165 1.433 . S
C2158 H2154 0.929 . S
C2158 C2160 1.378 . S
C2158 C2162 1.350 . S
C2159 C2162 1.463 . S
C2159 C2164 1.350 . S
C2159 N2167 1.427 . S
C2160 H2151 0.930 . S
C2160 C2158 1.378 . S
C2160 C2161 1.367 . S
C2161 C2160 1.367 . S
C2161 C2163 1.433 . S
C2162 C2158 1.350 . S
C2162 C2159 1.463 . S
C2162 N2166 1.427 . S
C2163 H2153 0.929 . S
C2163 C2161 1.433 . S
C2163 N2166 1.384 . S
C2164 H2155 0.929 . S
C2164 C2156 1.378 . S
C2164 C2159 1.350 . S
C2165 H2152 0.929 . S
C2165 C2157 1.433 . S
C2165 N2167 1.384 . S
N2166 C2162 1.427 . S
N2166 C2163 1.384 . S
N2167 C2159 1.427 . S
N2167 C2165 1.384 . S
H2168 C2174 0.930 . S
H2169 C2178 0.930 . S
H2170 C2183 0.929 . S
H2171 C2181 0.929 . S
H2172 C2176 0.929 . S
H2173 C2182 0.929 . S
C2174 H2168 0.930 . S
C2174 C2175 1.367 . S
C2174 C2182 1.378 . S
C2175 C2174 1.367 . S
C2175 C2183 1.433 . S
C2176 H2172 0.929 . S
C2176 C2178 1.378 . S
C2176 C2180 1.350 . S
C2177 C2180 1.463 . S
C2177 C2182 1.350 . S
C2177 N2185 1.427 . S
C2178 H2169 0.930 . S
C2178 C2176 1.378 . S
C2178 C2179 1.367 . S
C2179 C2178 1.367 . S
C2179 C2181 1.433 . S
C2180 C2176 1.350 . S
C2180 C2177 1.463 . S
C2180 N2184 1.427 . S
C2181 H2171 0.929 . S
C2181 C2179 1.433 . S
C2181 N2184 1.384 . S
C2182 H2173 0.929 . S
C2182 C2174 1.378 . S
C2182 C2177 1.350 . S
C2183 H2170 0.929 . S
C2183 C2175 1.433 . S
C2183 N2185 1.384 . S
N2184 C2180 1.427 . S
N2184 C2181 1.384 . S
N2185 C2177 1.427 . S
N2185 C2183 1.384 . S
H2186 C2192 0.930 . S
H2187 C2196 0.930 . S
H2188 C2201 0.929 . S
H2189 C2199 0.929 . S
H2190 C2194 0.929 . S
H2191 C2200 0.929 . S
C2192 H2186 0.930 . S
C2192 C2193 1.367 . S
C2192 C2200 1.378 . S
C2193 C2192 1.367 . S
C2193 C2201 1.433 . S
C2194 H2190 0.929 . S
C2194 C2196 1.378 . S
C2194 C2198 1.350 . S
C2195 C2198 1.463 . S
C2195 C2200 1.350 . S
C2195 N2203 1.427 . S
C2196 H2187 0.930 . S
C2196 C2194 1.378 . S
C2196 C2197 1.367 . S
C2197 C2196 1.367 . S
C2197 C2199 1.433 . S
C2198 C2194 1.350 . S
C2198 C2195 1.463 . S
C2198 N2202 1.427 . S
C2199 H2189 0.929 . S
C2199 C2197 1.433 . S
C2199 N2202 1.384 . S
C2200 H2191 0.929 . S
C2200 C2192 1.378 . S
C2200 C2195 1.350 . S
C2201 H2188 0.929 . S
C2201 C2193 1.433 . S
C2201 N2203 1.384 . S
N2202 C2198 1.427 . S
N2202 C2199 1.384 . S
N2203 C2195 1.427 . S
N2203 C2201 1.384 . S
H2204 C2210 0.930 . S
H2205 C2214 0.930 . S
H2206 C2219 0.929 . S
H2207 C2217 0.929 . S
H2208 C2212 0.929 . S
H2209 C2218 0.929 . S
C2210 H2204 0.930 . S
C2210 C2211 1.367 . S
C2210 C2218 1.378 . S
C2211 C2210 1.367 . S
C2211 C2219 1.433 . S
C2212 H2208 0.929 . S
C2212 C2214 1.378 . S
C2212 C2216 1.350 . S
C2213 C2216 1.463 . S
C2213 C2218 1.350 . S
C2213 N2221 1.427 . S
C2214 H2205 0.930 . S
C2214 C2212 1.378 . S
C2214 C2215 1.367 . S
C2215 C2214 1.367 . S
C2215 C2217 1.433 . S
C2216 C2212 1.350 . S
C2216 C2213 1.463 . S
C2216 N2220 1.427 . S
C2217 H2207 0.929 . S
C2217 C2215 1.433 . S
C2217 N2220 1.384 . S
C2218 H2209 0.929 . S
C2218 C2210 1.378 . S
C2218 C2213 1.350 . S
C2219 H2206 0.929 . S
C2219 C2211 1.433 . S
C2219 N2221 1.384 . S
N2220 C2216 1.427 . S
N2220 C2217 1.384 . S
N2221 C2213 1.427 . S
N2221 C2219 1.384 . S
H2222 C2228 0.930 . S
H2223 C2232 0.930 . S
H2224 C2237 0.929 . S
H2225 C2235 0.929 . S
H2226 C2230 0.929 . S
H2227 C2236 0.929 . S
C2228 H2222 0.930 . S
C2228 C2229 1.367 . S
C2228 C2236 1.378 . S
C2229 C2228 1.367 . S
C2229 C2237 1.433 . S
C2230 H2226 0.929 . S
C2230 C2232 1.378 . S
C2230 C2234 1.350 . S
C2231 C2234 1.463 . S
C2231 C2236 1.350 . S
C2231 N2239 1.427 . S
C2232 H2223 0.930 . S
C2232 C2230 1.378 . S
C2232 C2233 1.367 . S
C2233 C2232 1.367 . S
C2233 C2235 1.433 . S
C2234 C2230 1.350 . S
C2234 C2231 1.463 . S
C2234 N2238 1.427 . S
C2235 H2225 0.929 . S
C2235 C2233 1.433 . S
C2235 N2238 1.384 . S
C2236 H2227 0.929 . S
C2236 C2228 1.378 . S
C2236 C2231 1.350 . S
C2237 H2224 0.929 . S
C2237 C2229 1.433 . S
C2237 N2239 1.384 . S
N2238 C2234 1.427 . S
N2238 C2235 1.384 . S
N2239 C2231 1.427 . S
N2239 C2237 1.384 . S
H2240 C2246 0.930 . S
H2241 C2250 0.930 . S
H2242 C2255 0.929 . S
H2243 C2253 0.929 . S
H2244 C2248 0.929 . S
H2245 C2254 0.929 . S
C2246 H2240 0.930 . S
C2246 C2247 1.367 . S
C2246 C2254 1.378 . S
C2247 C2246 1.367 . S
C2247 C2255 1.433 . S
C2248 H2244 0.929 . S
C2248 C2250 1.378 . S
C2248 C2252 1.350 . S
C2249 C2252 1.463 . S
C2249 C2254 1.350 . S
C2249 N2257 1.427 . S
C2250 H2241 0.930 . S
C2250 C2248 1.378 . S
C2250 C2251 1.367 . S
C2251 C2250 1.367 . S
C2251 C2253 1.433 . S
C2252 C2248 1.350 . S
C2252 C2249 1.463 . S
C2252 N2256 1.427 . S
C2253 H2243 0.929 . S
C2253 C2251 1.433 . S
C2253 N2256 1.384 . S
C2254 H2245 0.929 . S
C2254 C2246 1.378 . S
C2254 C2249 1.350 . S
C2255 H2242 0.929 . S
C2255 C2247 1.433 . S
C2255 N2257 1.384 . S
N2256 C2252 1.427 . S
N2256 C2253 1.384 . S
N2257 C2249 1.427 . S
N2257 C2255 1.384 . S
H2258 C2264 0.930 . S
H2259 C2268 0.930 . S
H2260 C2273 0.929 . S
H2261 C2271 0.929 . S
H2262 C2266 0.929 . S
H2263 C2272 0.929 . S
C2264 H2258 0.930 . S
C2264 C2265 1.367 . S
C2264 C2272 1.378 . S
C2265 C2264 1.367 . S
C2265 C2273 1.433 . S
C2266 H2262 0.929 . S
C2266 C2268 1.378 . S
C2266 C2270 1.350 . S
C2267 C2270 1.463 1_655 S
C2267 C2272 1.350 . S
C2267 N2275 1.427 . S
C2268 H2259 0.930 . S
C2268 C2266 1.378 . S
C2268 C2269 1.367 . S
C2269 C2268 1.367 . S
C2269 C2271 1.433 . S
C2270 C2266 1.350 . S
C2270 C2267 1.463 1_455 S
C2270 N2274 1.427 . S
C2271 H2261 0.929 . S
C2271 C2269 1.433 . S
C2271 N2274 1.384 . S
C2272 H2263 0.929 . S
C2272 C2264 1.378 . S
C2272 C2267 1.350 . S
C2273 H2260 0.929 . S
C2273 C2265 1.433 . S
C2273 N2275 1.384 . S
N2274 C2270 1.427 . S
N2274 C2271 1.384 . S
N2275 C2267 1.427 . S
N2275 C2273 1.384 . S
H2276 C2282 0.930 . S
H2277 C2286 0.930 . S
H2278 C2291 0.929 . S
H2279 C2289 0.929 . S
H2280 C2284 0.929 . S
H2281 C2290 0.929 . S
C2282 H2276 0.930 . S
C2282 C2283 1.367 . S
C2282 C2290 1.378 . S
C2283 C2282 1.367 . S
C2283 C2291 1.433 . S
C2284 H2280 0.929 . S
C2284 C2286 1.378 . S
C2284 C2288 1.350 . S
C2285 C2288 1.463 . S
C2285 C2290 1.350 . S
C2285 N2293 1.427 . S
C2286 H2277 0.930 . S
C2286 C2284 1.378 . S
C2286 C2287 1.367 . S
C2287 C2286 1.367 . S
C2287 C2289 1.433 . S
C2288 C2284 1.350 . S
C2288 C2285 1.463 . S
C2288 N2292 1.427 . S
C2289 H2279 0.929 . S
C2289 C2287 1.433 . S
C2289 N2292 1.384 . S
C2290 H2281 0.929 . S
C2290 C2282 1.378 . S
C2290 C2285 1.350 . S
C2291 H2278 0.929 . S
C2291 C2283 1.433 . S
C2291 N2293 1.384 . S
N2292 C2288 1.427 . S
N2292 C2289 1.384 . S
N2293 C2285 1.427 . S
N2293 C2291 1.384 . S
H2294 C2300 0.930 . S
H2295 C2304 0.930 . S
H2296 C2309 0.929 . S
H2297 C2307 0.929 . S
H2298 C2302 0.929 . S
H2299 C2308 0.929 . S
C2300 H2294 0.930 . S
C2300 C2301 1.367 . S
C2300 C2308 1.378 . S
C2301 C2300 1.367 . S
C2301 C2309 1.433 . S
C2302 H2298 0.929 . S
C2302 C2304 1.378 . S
C2302 C2306 1.350 . S
C2303 C2306 1.463 . S
C2303 C2308 1.350 . S
C2303 N2311 1.427 . S
C2304 H2295 0.930 . S
C2304 C2302 1.378 . S
C2304 C2305 1.367 . S
C2305 C2304 1.367 . S
C2305 C2307 1.433 . S
C2306 C2302 1.350 . S
C2306 C2303 1.463 . S
C2306 N2310 1.427 . S
C2307 H2297 0.929 . S
C2307 C2305 1.433 . S
C2307 N2310 1.384 . S
C2308 H2299 0.929 . S
C2308 C2300 1.378 . S
C2308 C2303 1.350 . S
C2309 H2296 0.929 . S
C2309 C2301 1.433 . S
C2309 N2311 1.384 . S
N2310 C2306 1.427 . S
N2310 C2307 1.384 . S
N2311 C2303 1.427 . S
N2311 C2309 1.384 . S
H2312 C2318 0.930 1_554 S
H2313 C2322 0.930 . S
H2314 C2327 0.929 . S
H2315 C2325 0.929 1_554 S
H2316 C2320 0.929 . S
H2317 C2326 0.929 1_554 S
C2318 H2312 0.930 1_556 S
C2318 C2319 1.367 . S
C2318 C2326 1.378 . S
C2319 C2318 1.367 . S
C2319 C2327 1.433 . S
C2320 H2316 0.929 . S
C2320 C2322 1.378 . S
C2320 C2324 1.350 . S
C2321 C2324 1.463 . S
C2321 C2326 1.350 . S
C2321 N2329 1.427 . S
C2322 H2313 0.930 . S
C2322 C2320 1.378 . S
C2322 C2323 1.367 . S
C2323 C2322 1.367 . S
C2323 C2325 1.433 . S
C2324 C2320 1.350 . S
C2324 C2321 1.463 . S
C2324 N2328 1.427 . S
C2325 H2315 0.929 1_556 S
C2325 C2323 1.433 . S
C2325 N2328 1.384 . S
C2326 H2317 0.929 1_556 S
C2326 C2318 1.378 . S
C2326 C2321 1.350 . S
C2327 H2314 0.929 . S
C2327 C2319 1.433 . S
C2327 N2329 1.384 . S
N2328 C2324 1.427 . S
N2328 C2325 1.384 . S
N2329 C2321 1.427 . S
N2329 C2327 1.384 . S
H2330 C2336 0.930 . S
H2331 C2340 0.930 . S
H2332 C2345 0.929 . S
H2333 C2343 0.929 . S
H2334 C2338 0.929 . S
H2335 C2344 0.929 . S
C2336 H2330 0.930 . S
C2336 C2337 1.367 . S
C2336 C2344 1.378 . S
C2337 C2336 1.367 . S
C2337 C2345 1.433 . S
C2338 H2334 0.929 . S
C2338 C2340 1.378 . S
C2338 C2342 1.350 . S
C2339 C2342 1.463 . S
C2339 C2344 1.350 . S
C2339 N2347 1.427 . S
C2340 H2331 0.930 . S
C2340 C2338 1.378 . S
C2340 C2341 1.367 . S
C2341 C2340 1.367 . S
C2341 C2343 1.433 . S
C2342 C2338 1.350 . S
C2342 C2339 1.463 . S
C2342 N2346 1.427 . S
C2343 H2333 0.929 . S
C2343 C2341 1.433 . S
C2343 N2346 1.384 . S
C2344 H2335 0.929 . S
C2344 C2336 1.378 . S
C2344 C2339 1.350 . S
C2345 H2332 0.929 . S
C2345 C2337 1.433 . S
C2345 N2347 1.384 . S
N2346 C2342 1.427 . S
N2346 C2343 1.384 . S
N2347 C2339 1.427 . S
N2347 C2345 1.384 . S
H2348 C2354 0.930 . S
H2349 C2358 0.930 . S
H2350 C2363 0.929 . S
H2351 C2361 0.929 . S
H2352 C2356 0.929 . S
H2353 C2362 0.929 . S
C2354 H2348 0.930 . S
C2354 C2355 1.367 . S
C2354 C2362 1.378 . S
C2355 C2354 1.367 . S
C2355 C2363 1.433 . S
C2356 H2352 0.929 . S
C2356 C2358 1.378 . S
C2356 C2360 1.350 . S
C2357 C2360 1.463 . S
C2357 C2362 1.350 . S
C2357 N2365 1.427 . S
C2358 H2349 0.930 . S
C2358 C2356 1.378 . S
C2358 C2359 1.367 . S
C2359 C2358 1.367 . S
C2359 C2361 1.433 . S
C2360 C2356 1.350 . S
C2360 C2357 1.463 . S
C2360 N2364 1.427 . S
C2361 H2351 0.929 . S
C2361 C2359 1.433 . S
C2361 N2364 1.384 . S
C2362 H2353 0.929 . S
C2362 C2354 1.378 . S
C2362 C2357 1.350 . S
C2363 H2350 0.929 . S
C2363 C2355 1.433 . S
C2363 N2365 1.384 . S
N2364 C2360 1.427 . S
N2364 C2361 1.384 . S
N2365 C2357 1.427 . S
N2365 C2363 1.384 . S
H2366 C2372 0.930 . S
H2367 C2376 0.930 . S
H2368 C2381 0.929 . S
H2369 C2379 0.929 . S
H2370 C2374 0.929 . S
H2371 C2380 0.929 . S
C2372 H2366 0.930 . S
C2372 C2373 1.367 . S
C2372 C2380 1.378 . S
C2373 C2372 1.367 . S
C2373 C2381 1.433 . S
C2374 H2370 0.929 . S
C2374 C2376 1.378 . S
C2374 C2378 1.350 . S
C2375 C2378 1.463 1_455 S
C2375 C2380 1.350 . S
C2375 N2383 1.427 . S
C2376 H2367 0.930 . S
C2376 C2374 1.378 . S
C2376 C2377 1.367 . S
C2377 C2376 1.367 . S
C2377 C2379 1.433 . S
C2378 C2374 1.350 . S
C2378 C2375 1.463 1_655 S
C2378 N2382 1.427 . S
C2379 H2369 0.929 . S
C2379 C2377 1.433 . S
C2379 N2382 1.384 . S
C2380 H2371 0.929 . S
C2380 C2372 1.378 . S
C2380 C2375 1.350 . S
C2381 H2368 0.929 . S
C2381 C2373 1.433 . S
C2381 N2383 1.384 . S
N2382 C2378 1.427 . S
N2382 C2379 1.384 . S
N2383 C2375 1.427 . S
N2383 C2381 1.384 . S
H2384 C2390 0.930 1_554 S
H2385 C2394 0.930 . S
H2386 C2399 0.929 . S
H2387 C2397 0.929 1_554 S
H2388 C2392 0.929 . S
H2389 C2398 0.929 1_554 S
C2390 H2384 0.930 1_556 S
C2390 C2391 1.367 . S
C2390 C2398 1.378 . S
C2391 C2390 1.367 . S
C2391 C2399 1.433 . S
C2392 H2388 0.929 . S
C2392 C2394 1.378 . S
C2392 C2396 1.350 . S
C2393 C2396 1.463 . S
C2393 C2398 1.350 . S
C2393 N2401 1.427 . S
C2394 H2385 0.930 . S
C2394 C2392 1.378 . S
C2394 C2395 1.367 . S
C2395 C2394 1.367 . S
C2395 C2397 1.433 . S
C2396 C2392 1.350 . S
C2396 C2393 1.463 . S
C2396 N2400 1.427 . S
C2397 H2387 0.929 1_556 S
C2397 C2395 1.433 . S
C2397 N2400 1.384 . S
C2398 H2389 0.929 1_556 S
C2398 C2390 1.378 . S
C2398 C2393 1.350 . S
C2399 H2386 0.929 . S
C2399 C2391 1.433 . S
C2399 N2401 1.384 . S
N2400 C2396 1.427 . S
N2400 C2397 1.384 . S
N2401 C2393 1.427 . S
N2401 C2399 1.384 . S
H2402 C2408 0.930 . S
H2403 C2412 0.930 . S
H2404 C2417 0.929 . S
H2405 C2415 0.929 . S
H2406 C2410 0.929 . S
H2407 C2416 0.929 . S
C2408 H2402 0.930 . S
C2408 C2409 1.367 . S
C2408 C2416 1.378 . S
C2409 C2408 1.367 . S
C2409 C2417 1.433 . S
C2410 H2406 0.929 . S
C2410 C2412 1.378 . S
C2410 C2414 1.350 . S
C2411 C2414 1.463 . S
C2411 C2416 1.350 . S
C2411 N2419 1.427 . S
C2412 H2403 0.930 . S
C2412 C2410 1.378 . S
C2412 C2413 1.367 . S
C2413 C2412 1.367 . S
C2413 C2415 1.433 . S
C2414 C2410 1.350 . S
C2414 C2411 1.463 . S
C2414 N2418 1.427 . S
C2415 H2405 0.929 . S
C2415 C2413 1.433 . S
C2415 N2418 1.384 . S
C2416 H2407 0.929 . S
C2416 C2408 1.378 . S
C2416 C2411 1.350 . S
C2417 H2404 0.929 . S
C2417 C2409 1.433 . S
C2417 N2419 1.384 . S
N2418 C2414 1.427 . S
N2418 C2415 1.384 . S
N2419 C2411 1.427 . S
N2419 C2417 1.384 . S
H2420 C2426 0.930 . S
H2421 C2430 0.930 1_556 S
H2422 C2435 0.929 1_556 S
H2423 C2433 0.929 . S
H2424 C2428 0.929 1_556 S
H2425 C2434 0.929 . S
C2426 H2420 0.930 . S
C2426 C2427 1.367 . S
C2426 C2434 1.378 . S
C2427 C2426 1.367 . S
C2427 C2435 1.433 . S
C2428 H2424 0.929 1_554 S
C2428 C2430 1.378 . S
C2428 C2432 1.350 . S
C2429 C2432 1.463 . S
C2429 C2434 1.350 . S
C2429 N2437 1.427 . S
C2430 H2421 0.930 1_554 S
C2430 C2428 1.378 . S
C2430 C2431 1.367 . S
C2431 C2430 1.367 . S
C2431 C2433 1.433 . S
C2432 C2428 1.350 . S
C2432 C2429 1.463 . S
C2432 N2436 1.427 . S
C2433 H2423 0.929 . S
C2433 C2431 1.433 . S
C2433 N2436 1.384 . S
C2434 H2425 0.929 . S
C2434 C2426 1.378 . S
C2434 C2429 1.350 . S
C2435 H2422 0.929 1_554 S
C2435 C2427 1.433 . S
C2435 N2437 1.384 . S
N2436 C2432 1.427 . S
N2436 C2433 1.384 . S
N2437 C2429 1.427 . S
N2437 C2435 1.384 . S
H2438 C2444 0.930 . S
H2439 C2448 0.930 . S
H2440 C2453 0.929 . S
H2441 C2451 0.929 . S
H2442 C2446 0.929 . S
H2443 C2452 0.929 . S
C2444 H2438 0.930 . S
C2444 C2445 1.367 . S
C2444 C2452 1.378 . S
C2445 C2444 1.367 . S
C2445 C2453 1.433 . S
C2446 H2442 0.929 . S
C2446 C2448 1.378 . S
C2446 C2450 1.350 . S
C2447 C2450 1.463 . S
C2447 C2452 1.350 . S
C2447 N2455 1.427 . S
C2448 H2439 0.930 . S
C2448 C2446 1.378 . S
C2448 C2449 1.367 . S
C2449 C2448 1.367 . S
C2449 C2451 1.433 . S
C2450 C2446 1.350 . S
C2450 C2447 1.463 . S
C2450 N2454 1.427 . S
C2451 H2441 0.929 . S
C2451 C2449 1.433 . S
C2451 N2454 1.384 . S
C2452 H2443 0.929 . S
C2452 C2444 1.378 . S
C2452 C2447 1.350 . S
C2453 H2440 0.929 . S
C2453 C2445 1.433 . S
C2453 N2455 1.384 . S
N2454 C2450 1.427 . S
N2454 C2451 1.384 . S
N2455 C2447 1.427 . S
N2455 C2453 1.384 . S
H2456 C2462 0.930 . S
H2457 C2466 0.930 . S
H2458 C2471 0.929 . S
H2459 C2469 0.929 . S
H2460 C2464 0.929 . S
H2461 C2470 0.929 . S
C2462 H2456 0.930 . S
C2462 C2463 1.367 . S
C2462 C2470 1.378 . S
C2463 C2462 1.367 . S
C2463 C2471 1.433 . S
C2464 H2460 0.929 . S
C2464 C2466 1.378 . S
C2464 C2468 1.350 . S
C2465 C2468 1.463 . S
C2465 C2470 1.350 . S
C2465 N2473 1.427 . S
C2466 H2457 0.930 . S
C2466 C2464 1.378 . S
C2466 C2467 1.367 . S
C2467 C2466 1.367 . S
C2467 C2469 1.433 . S
C2468 C2464 1.350 . S
C2468 C2465 1.463 . S
C2468 N2472 1.427 . S
C2469 H2459 0.929 . S
C2469 C2467 1.433 . S
C2469 N2472 1.384 . S
C2470 H2461 0.929 . S
C2470 C2462 1.378 . S
C2470 C2465 1.350 . S
C2471 H2458 0.929 . S
C2471 C2463 1.433 . S
C2471 N2473 1.384 . S
N2472 C2468 1.427 . S
N2472 C2469 1.384 . S
N2473 C2465 1.427 . S
N2473 C2471 1.384 . S
H2474 C2480 0.930 . S
H2475 C2484 0.930 . S
H2476 C2489 0.929 . S
H2477 C2487 0.929 . S
H2478 C2482 0.929 . S
H2479 C2488 0.929 . S
C2480 H2474 0.930 . S
C2480 C2481 1.367 . S
C2480 C2488 1.378 . S
C2481 C2480 1.367 . S
C2481 C2489 1.433 . S
C2482 H2478 0.929 . S
C2482 C2484 1.378 . S
C2482 C2486 1.350 . S
C2483 C2486 1.463 1_455 S
C2483 C2488 1.350 . S
C2483 N2491 1.427 . S
C2484 H2475 0.930 . S
C2484 C2482 1.378 . S
C2484 C2485 1.367 . S
C2485 C2484 1.367 . S
C2485 C2487 1.433 . S
C2486 C2482 1.350 . S
C2486 C2483 1.463 1_655 S
C2486 N2490 1.427 . S
C2487 H2477 0.929 . S
C2487 C2485 1.433 . S
C2487 N2490 1.384 . S
C2488 H2479 0.929 . S
C2488 C2480 1.378 . S
C2488 C2483 1.350 . S
C2489 H2476 0.929 . S
C2489 C2481 1.433 . S
C2489 N2491 1.384 . S
N2490 C2486 1.427 . S
N2490 C2487 1.384 . S
N2491 C2483 1.427 . S
N2491 C2489 1.384 . S
H2492 C2498 0.930 . S
H2493 C2502 0.930 . S
H2494 C2507 0.929 . S
H2495 C2505 0.929 . S
H2496 C2500 0.929 . S
H2497 C2506 0.929 . S
C2498 H2492 0.930 . S
C2498 C2499 1.367 . S
C2498 C2506 1.378 . S
C2499 C2498 1.367 . S
C2499 C2507 1.433 . S
C2500 H2496 0.929 . S
C2500 C2502 1.378 . S
C2500 C2504 1.350 . S
C2501 C2504 1.463 1_455 S
C2501 C2506 1.350 . S
C2501 N2509 1.427 . S
C2502 H2493 0.930 . S
C2502 C2500 1.378 . S
C2502 C2503 1.367 . S
C2503 C2502 1.367 . S
C2503 C2505 1.433 . S
C2504 C2500 1.350 . S
C2504 C2501 1.463 1_655 S
C2504 N2508 1.427 . S
C2505 H2495 0.929 . S
C2505 C2503 1.433 . S
C2505 N2508 1.384 . S
C2506 H2497 0.929 . S
C2506 C2498 1.378 . S
C2506 C2501 1.350 . S
C2507 H2494 0.929 . S
C2507 C2499 1.433 . S
C2507 N2509 1.384 . S
N2508 C2504 1.427 . S
N2508 C2505 1.384 . S
N2509 C2501 1.427 . S
N2509 C2507 1.384 . S
H2510 C2516 0.930 . S
H2511 C2520 0.930 . S
H2512 C2525 0.929 . S
H2513 C2523 0.929 . S
H2514 C2518 0.929 . S
H2515 C2524 0.929 . S
C2516 H2510 0.930 . S
C2516 C2517 1.367 . S
C2516 C2524 1.378 . S
C2517 C2516 1.367 . S
C2517 C2525 1.433 . S
C2518 H2514 0.929 . S
C2518 C2520 1.378 . S
C2518 C2522 1.350 . S
C2519 C2522 1.463 . S
C2519 C2524 1.350 . S
C2519 N2527 1.427 . S
C2520 H2511 0.930 . S
C2520 C2518 1.378 . S
C2520 C2521 1.367 . S
C2521 C2520 1.367 . S
C2521 C2523 1.433 . S
C2522 C2518 1.350 . S
C2522 C2519 1.463 . S
C2522 N2526 1.427 . S
C2523 H2513 0.929 . S
C2523 C2521 1.433 . S
C2523 N2526 1.384 . S
C2524 H2515 0.929 . S
C2524 C2516 1.378 . S
C2524 C2519 1.350 . S
C2525 H2512 0.929 . S
C2525 C2517 1.433 . S
C2525 N2527 1.384 . S
N2526 C2522 1.427 . S
N2526 C2523 1.384 . S
N2527 C2519 1.427 . S
N2527 C2525 1.384 . S
C1095 C67 2.378 1_545 S
C1099 C20 2.382 . S
C1113 C54 2.380 . S
C1117 C101 2.393 . S
C1131 C88 2.380 . S
C1135 C135 2.394 1_565 S
C1149 C122 2.380 . S
C1153 C33 2.392 1_556 S
C1167 C156 2.380 . S
C1171 C271 2.375 1_565 S
C1185 C169 2.393 1_554 S
C1189 C190 2.382 . S
C1203 C224 2.380 . S
C1207 C203 2.373 1_545 S
C1221 C258 2.379 . S
C1225 C237 2.392 . S
C1239 C339 2.388 . S
C1243 C292 2.378 . S
C1257 C373 2.392 . S
C1261 C326 2.382 . S
C1275 C360 2.378 . S
C1279 C407 2.389 1_545 S
C1293 C305 2.392 1_554 S
C1297 C394 2.378 . S
C1311 C428 2.378 . S
C1315 C543 2.387 . S
C1329 C462 2.379 . S
C1333 C441 2.393 1_556 S
C1347 C475 2.384 1_565 S
C1351 C496 2.379 . S
C1365 C509 2.392 . S
C1369 C530 2.382 . S
C1383 C611 2.392 . S
C1387 C564 2.378 . S
C1401 C598 2.382 . S
C1405 C645 2.393 1_556 S
C1419 C679 2.393 . S
C1423 C632 2.382 . S
C1437 C577 2.393 . S
C1441 C666 2.379 . S
C1455 C815 2.392 . S
C1459 C700 2.378 . S
C1473 C734 2.379 . S
C1477 C713 2.393 . S
C1491 C747 2.393 . S
C1495 C768 2.382 . S
C1509 C802 2.378 . S
C1513 C781 2.392 1_554 S
C1527 C883 2.392 . S
C1531 C836 2.378 . S
C1545 C870 2.379 . S
C1549 C917 2.393 1_554 S
C1563 C904 2.381 . S
C1567 C951 2.393 . S
C1581 C938 2.381 . S
C1585 C849 2.392 . S
C1599 C1087 2.393 . S
C1603 C972 2.379 . S
C1617 C985 2.393 . S
C1621 C1006 2.379 . S
C1635 C1019 2.392 . S
C1639 C1040 2.379 . S
C1653 C1053 2.392 1_556 S
C1657 C1074 2.379 . S
C1671 C213 0.832 . S
C1675 C9 0.814 . S
C1689 C43 0.829 . S
C1693 C247 0.848 . S
C1707 C77 0.814 . S
C1711 C145 0.831 . S
C1725 C111 0.834 . S
C1729 C179 0.849 . S
C1743 C485 0.833 . S
C1747 C281 0.814 . S
C1761 C519 0.838 . S
C1765 C315 0.848 . S
C1779 C349 0.829 . S
C1783 C417 0.848 . S
C1797 C451 0.814 . S
C1801 C383 0.827 . S
C1815 C553 0.814 . S
C1819 C757 0.835 . S
C1833 C791 0.843 . S
C1837 C587 0.845 . S
C1851 C689 0.849 . S
C1855 C621 0.834 . S
C1869 C723 0.824 . S
C1873 C655 0.815 . S
C1887 C1029 0.825 . S
C1891 C825 0.847 . S
C1905 C1063 0.847 . S
C1909 C859 0.840 . S
C1923 C961 0.829 . S
C1927 C893 0.814 . S
C1941 C995 0.842 . S
C1945 C927 0.846 . S
C1959 C5 0.638 . S
C1963 C243 0.643 . S
C1977 C39 0.642 . S
C1981 C141 0.636 . S
C1995 C175 0.634 . S
C1999 C73 0.639 . S
C2013 C107 0.639 . S
C2017 C209 0.643 . S
C2031 C277 0.643 . S
C2035 C515 0.638 . S
C2049 C413 0.637 . S
C2053 C311 0.642 . S
C2067 C345 0.636 . S
C2071 C447 0.642 . S
C2085 C379 0.633 . S
C2089 C481 0.636 . S
C2103 C787 0.638 . S
C2107 C549 0.633 . S
C2121 C685 0.634 . S
C2125 C583 0.633 . S
C2139 C617 0.642 . S
C2143 C719 0.643 . S
C2157 C651 0.634 . S
C2161 C753 0.640 . S
C2175 C821 0.643 . S
C2179 C1059 0.638 . S
C2193 C957 0.634 . S
C2197 C855 0.640 . S
C2211 C889 0.641 . S
C2215 C991 0.635 . S
C2229 C923 0.633 . S
C2233 C1025 0.636 . S
C2247 C2 1.174 . S
C2251 C1022 1.175 . S
C2265 C512 1.173 . S
C2269 C36 1.176 . S
C2283 C954 1.174 . S
C2287 C70 1.175 . S
C2301 C104 1.174 . S
C2305 C444 1.176 . S
C2319 C138 1.176 . S
C2323 C886 1.173 . S
C2337 C376 1.176 . S
C2341 C172 1.173 . S
C2355 C206 1.176 . S
C2359 C818 1.173 . S
C2373 C240 1.173 . S
C2377 C308 1.176 . S
C2391 C274 1.176 . S
C2395 C750 1.173 . S
C2409 C342 1.176 . S
C2413 C682 1.173 . S
C2427 C410 1.173 . S
C2431 C614 1.176 . S
C2445 C478 1.176 . S
C2449 C546 1.173 . S
C2463 C580 1.176 . S
C2467 C1056 1.173 . S
C2481 C988 1.174 . S
C2485 C648 1.175 . S
C2499 C920 1.176 . S
C2503 C716 1.173 . S
C2517 C852 1.173 . S
C2521 C784 1.176 . S
