# Generated by pormake.
# Topology reo-e, (6)-cn, num edge types: 1
# Building blocks:
#     Node 0, Type 0, BuildingBlock: IZENUY_clean_sbu_0, # of connection points: 6
#     Node 1, Type 0, BuildingBlock: IZENUY_clean_sbu_0, # of connection points: 6
#     Node 2, Type 0, BuildingBlock: IZENUY_clean_sbu_0, # of connection points: 6
#     Node 3, Type 0, BuildingBlock: IZENUY_clean_sbu_0, # of connection points: 6
#     Node 4, Type 0, BuildingBlock: IZENUY_clean_sbu_0, # of connection points: 6
#     Node 5, Type 0, BuildingBlock: IZENUY_clean_sbu_0, # of connection points: 6
#     Node 6, Type 0, BuildingBlock: IZENUY_clean_sbu_0, # of connection points: 6
#     Node 7, Type 0, BuildingBlock: IZENUY_clean_sbu_0, # of connection points: 6
#     Node 8, Type 0, BuildingBlock: IZENUY_clean_sbu_0, # of connection points: 6
#     Node 9, Type 0, BuildingBlock: IZENUY_clean_sbu_0, # of connection points: 6
#     Node 10, Type 0, BuildingBlock: IZENUY_clean_sbu_0, # of connection points: 6
#     Node 11, Type 0, BuildingBlock: IZENUY_clean_sbu_0, # of connection points: 6
#     Edge 12, Type (0, 0), BuildingBlock: KIFKEQ_clean_linker_1, # of connection points: 2
#     Edge 13, Type (0, 0), BuildingBlock: KIFKEQ_clean_linker_1, # of connection points: 2
#     Edge 14, Type (0, 0), BuildingBlock: KIFKEQ_clean_linker_1, # of connection points: 2
#     Edge 15, Type (0, 0), BuildingBlock: KIFKEQ_clean_linker_1, # of connection points: 2
#     Edge 16, Type (0, 0), BuildingBlock: KIFKEQ_clean_linker_1, # of connection points: 2
#     Edge 17, Type (0, 0), BuildingBlock: KIFKEQ_clean_linker_1, # of connection points: 2
#     Edge 18, Type (0, 0), BuildingBlock: KIFKEQ_clean_linker_1, # of connection points: 2
#     Edge 19, Type (0, 0), BuildingBlock: KIFKEQ_clean_linker_1, # of connection points: 2
#     Edge 20, Type (0, 0), BuildingBlock: KIFKEQ_clean_linker_1, # of connection points: 2
#     Edge 21, Type (0, 0), BuildingBlock: KIFKEQ_clean_linker_1, # of connection points: 2
#     Edge 22, Type (0, 0), BuildingBlock: KIFKEQ_clean_linker_1, # of connection points: 2
#     Edge 23, Type (0, 0), BuildingBlock: KIFKEQ_clean_linker_1, # of connection points: 2
#     Edge 24, Type (0, 0), BuildingBlock: KIFKEQ_clean_linker_1, # of connection points: 2
#     Edge 25, Type (0, 0), BuildingBlock: KIFKEQ_clean_linker_1, # of connection points: 2
#     Edge 26, Type (0, 0), BuildingBlock: KIFKEQ_clean_linker_1, # of connection points: 2
#     Edge 27, Type (0, 0), BuildingBlock: KIFKEQ_clean_linker_1, # of connection points: 2
#     Edge 28, Type (0, 0), BuildingBlock: KIFKEQ_clean_linker_1, # of connection points: 2
#     Edge 29, Type (0, 0), BuildingBlock: KIFKEQ_clean_linker_1, # of connection points: 2
#     Edge 30, Type (0, 0), BuildingBlock: KIFKEQ_clean_linker_1, # of connection points: 2
#     Edge 31, Type (0, 0), BuildingBlock: KIFKEQ_clean_linker_1, # of connection points: 2
#     Edge 32, Type (0, 0), BuildingBlock: KIFKEQ_clean_linker_1, # of connection points: 2
#     Edge 33, Type (0, 0), BuildingBlock: KIFKEQ_clean_linker_1, # of connection points: 2
#     Edge 34, Type (0, 0), BuildingBlock: KIFKEQ_clean_linker_1, # of connection points: 2
#     Edge 35, Type (0, 0), BuildingBlock: KIFKEQ_clean_linker_1, # of connection points: 2
#     Edge 36, Type (0, 0), BuildingBlock: KIFKEQ_clean_linker_1, # of connection points: 2
#     Edge 37, Type (0, 0), BuildingBlock: KIFKEQ_clean_linker_1, # of connection points: 2
#     Edge 38, Type (0, 0), BuildingBlock: KIFKEQ_clean_linker_1, # of connection points: 2
#     Edge 39, Type (0, 0), BuildingBlock: KIFKEQ_clean_linker_1, # of connection points: 2
#     Edge 40, Type (0, 0), BuildingBlock: KIFKEQ_clean_linker_1, # of connection points: 2
#     Edge 41, Type (0, 0), BuildingBlock: KIFKEQ_clean_linker_1, # of connection points: 2
#     Edge 42, Type (0, 0), BuildingBlock: KIFKEQ_clean_linker_1, # of connection points: 2
#     Edge 43, Type (0, 0), BuildingBlock: KIFKEQ_clean_linker_1, # of connection points: 2
#     Edge 44, Type (0, 0), BuildingBlock: KIFKEQ_clean_linker_1, # of connection points: 2
#     Edge 45, Type (0, 0), BuildingBlock: KIFKEQ_clean_linker_1, # of connection points: 2
#     Edge 46, Type (0, 0), BuildingBlock: KIFKEQ_clean_linker_1, # of connection points: 2
#     Edge 47, Type (0, 0), BuildingBlock: KIFKEQ_clean_linker_1, # of connection points: 2
# Relax obj value: 0.074
# Max RMSD: 0.096
# Mean RMSD: 0.095
data_MOF--net-reo-e--node1-IZENUY_clean_sbu_0--edge1-KIFKEQ_clean_linker_1
_symmetry_space_group_name_H-M    P1
_symmetry_Int_Tables_number       1
_symmetry_cell_setting            triclinic
loop_
_symmetry_equiv_pos_as_xyz
'x, y, z'
_cell_length_a     38.506444
_cell_length_b     38.51911
_cell_length_c     38.523697
_cell_angle_alpha  90.034179
_cell_angle_beta   90.101562
_cell_angle_gamma 90.053303
loop_
_atom_site_label
_atom_site_type_symbol
_atom_site_fract_x
_atom_site_fract_y
_atom_site_fract_z
_atom_type_partial_charge
Fe0 Fe 0.2066 0.20576 0.55551 0.0
Fe1 Fe 0.25582 0.25455 0.51617 0.0
O2 O 0.22378 0.22151 0.51567 0.0
Fe3 Fe 0.20915 0.20452 0.47528 0.0
O4 O 0.16453 0.21675 0.48433 0.0
O5 O 0.1628 0.19822 0.53837 0.0
O6 O 0.19178 0.24876 0.56866 0.0
C7 C 0.21137 0.27492 0.57109 0.0
C8 C 0.21293 0.145 0.51846 0.0
O9 O 0.24031 0.27545 0.55574 0.0
C10 C 0.27855 0.21112 0.46151 0.0
O11 O 0.24758 0.21049 0.57971 0.0
O12 O 0.28561 0.2273 0.54057 0.0
O13 O 0.20232 0.16034 0.49143 0.0
O14 O 0.21985 0.16158 0.54587 0.0
C15 C 0.21516 0.27691 0.46231 0.0
O16 O 0.27781 0.24014 0.47675 0.0
O17 O 0.25276 0.19093 0.46293 0.0
C18 C 0.27877 0.21375 0.56964 0.0
O19 O 0.22796 0.28388 0.49175 0.0
O20 O 0.21335 0.24579 0.45176 0.0
C21 C 0.14761 0.20908 0.5113 0.0
Fe22 Fe 0.77543 0.25679 0.51308 0.0
Fe23 Fe 0.82393 0.20851 0.55368 0.0
O24 O 0.8081 0.2245 0.51348 0.0
Fe25 Fe 0.82478 0.20835 0.4737 0.0
O26 O 0.82069 0.24992 0.45054 0.0
O27 O 0.80342 0.2869 0.49047 0.0
O28 O 0.78927 0.27752 0.5535 0.0
C29 C 0.81804 0.27758 0.56935 0.0
C30 C 0.75599 0.21359 0.45667 0.0
O31 O 0.838 0.25161 0.56762 0.0
C32 C 0.81972 0.14819 0.51606 0.0
O33 O 0.74529 0.22877 0.53574 0.0
O34 O 0.78219 0.21276 0.57632 0.0
O35 O 0.78203 0.19385 0.45919 0.0
O36 O 0.75538 0.24233 0.47251 0.0
C37 C 0.88462 0.2129 0.51203 0.0
O38 O 0.81077 0.16462 0.5429 0.0
O39 O 0.83205 0.16397 0.48995 0.0
C40 C 0.75139 0.21521 0.56491 0.0
O41 O 0.86848 0.20107 0.53813 0.0
O42 O 0.86849 0.22176 0.48496 0.0
C43 C 0.81753 0.28078 0.46161 0.0
Fe44 Fe 0.82138 0.82468 0.55449 0.0
Fe45 Fe 0.82242 0.82553 0.47434 0.0
O46 O 0.80644 0.80828 0.51399 0.0
Fe47 Fe 0.77556 0.77419 0.5129 0.0
O48 O 0.74368 0.80021 0.53573 0.0
O49 O 0.77934 0.81923 0.57637 0.0
O50 O 0.80756 0.86848 0.54396 0.0
C51 C 0.81593 0.88522 0.51713 0.0
C52 C 0.81764 0.75539 0.57034 0.0
O53 O 0.82804 0.86986 0.49077 0.0
C54 C 0.81906 0.75315 0.46113 0.0
O55 O 0.86586 0.83304 0.53945 0.0
O56 O 0.86666 0.81387 0.4856 0.0
O57 O 0.78967 0.75382 0.55327 0.0
O58 O 0.83656 0.7821 0.56878 0.0
C59 C 0.75413 0.81705 0.45703 0.0
O60 O 0.81997 0.78427 0.45054 0.0
O61 O 0.80559 0.74585 0.4901 0.0
C62 C 0.88235 0.82199 0.51325 0.0
O63 O 0.779 0.83825 0.46005 0.0
O64 O 0.75518 0.78802 0.47231 0.0
C65 C 0.74881 0.8145 0.56482 0.0
Fe66 Fe 0.20487 0.82144 0.47666 0.0
Fe67 Fe 0.25435 0.77406 0.51723 0.0
O68 O 0.22164 0.80632 0.5169 0.0
Fe69 Fe 0.2058 0.82325 0.55673 0.0
O70 O 0.16162 0.80987 0.54659 0.0
O71 O 0.16092 0.82932 0.49298 0.0
O72 O 0.19045 0.77806 0.46412 0.0
C73 C 0.21032 0.75202 0.46256 0.0
C74 C 0.21032 0.88243 0.51323 0.0
O75 O 0.23943 0.75235 0.47776 0.0
C76 C 0.27497 0.81846 0.57228 0.0
O77 O 0.24591 0.8164 0.45303 0.0
O78 O 0.28394 0.80163 0.49296 0.0
O79 O 0.19859 0.86717 0.53986 0.0
O80 O 0.21804 0.86573 0.48611 0.0
C81 C 0.21369 0.75116 0.57058 0.0
O82 O 0.27548 0.7895 0.55685 0.0
O83 O 0.24877 0.83797 0.57007 0.0
C84 C 0.27707 0.81401 0.4634 0.0
O85 O 0.22693 0.74435 0.54142 0.0
O86 O 0.21047 0.78229 0.58074 0.0
C87 C 0.14512 0.81808 0.51947 0.0
Fe88 Fe 0.55488 0.20592 0.20567 0.0
Fe89 Fe 0.51699 0.25358 0.25718 0.0
O90 O 0.51563 0.2228 0.22307 0.0
Fe91 Fe 0.47484 0.20909 0.20627 0.0
O92 O 0.48365 0.16432 0.21775 0.0
O93 O 0.53686 0.16266 0.19692 0.0
O94 O 0.56905 0.18922 0.24749 0.0
C95 C 0.57134 0.20709 0.27483 0.0
C96 C 0.51677 0.214 0.14602 0.0
O97 O 0.55632 0.23616 0.27734 0.0
C98 C 0.46225 0.27846 0.2146 0.0
O99 O 0.5798 0.24615 0.21154 0.0
O100 O 0.54168 0.28394 0.23089 0.0
O101 O 0.49035 0.20249 0.16175 0.0
O102 O 0.54414 0.22138 0.16246 0.0
C103 C 0.46256 0.21347 0.27875 0.0
O104 O 0.47786 0.27682 0.24348 0.0
O105 O 0.4631 0.25316 0.19373 0.0
C106 C 0.57019 0.27723 0.21622 0.0
O107 O 0.49234 0.2253 0.28576 0.0
O108 O 0.45166 0.21293 0.24772 0.0
C109 C 0.51022 0.14741 0.20879 0.0
Fe110 Fe 0.8219 0.47715 0.20555 0.0
Fe111 Fe 0.77535 0.51641 0.25661 0.0
O112 O 0.80671 0.51698 0.22306 0.0
Fe113 Fe 0.82285 0.55724 0.20742 0.0
O114 O 0.80885 0.54769 0.16344 0.0
O115 O 0.82817 0.49402 0.16149 0.0
O116 O 0.77832 0.46411 0.19216 0.0
C117 C 0.75294 0.46189 0.21275 0.0
C118 C 0.88277 0.51434 0.20978 0.0
O119 O 0.75402 0.47662 0.24204 0.0
C120 C 0.8193 0.57149 0.27704 0.0
O121 O 0.8184 0.45308 0.24653 0.0
O122 O 0.8043 0.49261 0.28514 0.0
O123 O 0.8669 0.54106 0.19899 0.0
O124 O 0.86636 0.48712 0.21777 0.0
C125 C 0.75059 0.56934 0.21657 0.0
O126 O 0.79039 0.55607 0.27764 0.0
O127 O 0.83821 0.57021 0.25036 0.0
C128 C 0.81709 0.46339 0.27774 0.0
O129 O 0.74456 0.54021 0.23027 0.0
O130 O 0.78145 0.58033 0.21294 0.0
C131 C 0.81648 0.52079 0.14643 0.0
Fe132 Fe 0.55269 0.82525 0.20546 0.0
Fe133 Fe 0.47278 0.82493 0.20646 0.0
O134 O 0.513 0.80839 0.22189 0.0
Fe135 Fe 0.5138 0.77506 0.25347 0.0
O136 O 0.55333 0.79107 0.27495 0.0
O137 O 0.56647 0.83989 0.24817 0.0
O138 O 0.53585 0.86918 0.19766 0.0
C139 C 0.51025 0.88496 0.21085 0.0
C140 C 0.56723 0.75349 0.21246 0.0
O141 O 0.4838 0.86845 0.22067 0.0
C142 C 0.45769 0.75543 0.20948 0.0
O143 O 0.54161 0.81141 0.16191 0.0
O144 O 0.48867 0.83287 0.16202 0.0
O145 O 0.53797 0.74635 0.22511 0.0
O146 O 0.57721 0.78468 0.21012 0.0
C147 C 0.46057 0.81482 0.27861 0.0
O148 O 0.45844 0.78264 0.19132 0.0
O149 O 0.47442 0.75335 0.23773 0.0
C150 C 0.51443 0.82022 0.14584 0.0
O151 O 0.44978 0.81972 0.24791 0.0
O152 O 0.48964 0.80094 0.28425 0.0
C153 C 0.56848 0.82034 0.2744 0.0
Fe154 Fe 0.20599 0.55453 0.20681 0.0
Fe155 Fe 0.25451 0.51593 0.25676 0.0
O156 O 0.22222 0.51497 0.22406 0.0
Fe157 Fe 0.2063 0.47448 0.20877 0.0
O158 O 0.21974 0.48425 0.16464 0.0
O159 O 0.1988 0.53731 0.16289 0.0
O160 O 0.24904 0.56836 0.19246 0.0
C161 C 0.27486 0.57109 0.21256 0.0
C162 C 0.14583 0.51655 0.21188 0.0
O163 O 0.27496 0.55589 0.24162 0.0
C164 C 0.21154 0.46033 0.27826 0.0
O165 O 0.21005 0.57883 0.24771 0.0
O166 O 0.22616 0.5397 0.28599 0.0
O167 O 0.16193 0.49013 0.20074 0.0
O168 O 0.16201 0.54389 0.21997 0.0
C169 C 0.27871 0.46265 0.21658 0.0
O170 O 0.24026 0.4762 0.27827 0.0
O171 O 0.19185 0.46148 0.25201 0.0
C172 C 0.21245 0.56863 0.2789 0.0
O173 O 0.28489 0.49214 0.2296 0.0
O174 O 0.24781 0.45159 0.21395 0.0
C175 C 0.21095 0.51084 0.14765 0.0
Fe176 Fe 0.55393 0.82189 0.82254 0.0
Fe177 Fe 0.47404 0.82505 0.82408 0.0
O178 O 0.51306 0.80801 0.80632 0.0
Fe179 Fe 0.51129 0.77706 0.77243 0.0
O180 O 0.55044 0.75372 0.78602 0.0
O181 O 0.56593 0.77796 0.83532 0.0
O182 O 0.53871 0.82876 0.86725 0.0
C183 C 0.51251 0.81698 0.88325 0.0
C184 C 0.5658 0.81621 0.74992 0.0
O185 O 0.48509 0.80932 0.86703 0.0
C186 C 0.45747 0.82411 0.75502 0.0
O187 O 0.54481 0.86654 0.81056 0.0
O188 O 0.49238 0.86828 0.83309 0.0
O189 O 0.53578 0.80488 0.74335 0.0
O190 O 0.57677 0.81758 0.78091 0.0
C191 C 0.45824 0.75378 0.81358 0.0
O192 O 0.45986 0.84195 0.78237 0.0
O193 O 0.47192 0.79473 0.75258 0.0
C194 C 0.51867 0.88358 0.82049 0.0
O195 O 0.44873 0.78493 0.81817 0.0
O196 O 0.4868 0.74702 0.7991 0.0
C197 C 0.56662 0.7525 0.81463 0.0
Fe198 Fe 0.20808 0.55198 0.82428 0.0
Fe199 Fe 0.25397 0.51057 0.7741 0.0
O200 O 0.22274 0.51153 0.80778 0.0
Fe201 Fe 0.2063 0.47194 0.82497 0.0
O202 O 0.16283 0.48912 0.8342 0.0
O203 O 0.16352 0.54199 0.81281 0.0
O204 O 0.21114 0.5749 0.7825 0.0
C205 C 0.2133 0.56399 0.75151 0.0
C206 C 0.21417 0.50985 0.88466 0.0
O207 O 0.22597 0.53455 0.74495 0.0
C208 C 0.27781 0.45773 0.81482 0.0
O209 O 0.25174 0.56519 0.83679 0.0
O210 O 0.27647 0.55014 0.78776 0.0
O211 O 0.22169 0.48257 0.86818 0.0
O212 O 0.20235 0.5363 0.86903 0.0
C213 C 0.20781 0.45611 0.75583 0.0
O214 O 0.28428 0.48666 0.801 0.0
O215 O 0.24679 0.44754 0.81878 0.0
C216 C 0.27716 0.56653 0.8162 0.0
O217 O 0.23711 0.4709 0.75391 0.0
O218 O 0.18968 0.45815 0.78298 0.0
C219 C 0.14702 0.51537 0.82233 0.0
Fe220 Fe 0.51962 0.25629 0.7755 0.0
Fe221 Fe 0.47869 0.20675 0.82247 0.0
O222 O 0.51902 0.22321 0.8074 0.0
Fe223 Fe 0.55881 0.20666 0.82407 0.0
O224 O 0.5725 0.24916 0.83956 0.0
O225 O 0.55938 0.27692 0.79149 0.0
O226 O 0.49581 0.28583 0.80315 0.0
C227 C 0.46653 0.27928 0.81622 0.0
C228 C 0.57239 0.21527 0.75222 0.0
O229 O 0.45564 0.24832 0.81869 0.0
C230 C 0.52111 0.14654 0.81762 0.0
O231 O 0.47991 0.24218 0.75357 0.0
O232 O 0.46533 0.19337 0.77902 0.0
O233 O 0.58282 0.212 0.78325 0.0
O234 O 0.54337 0.22888 0.74562 0.0
C235 C 0.51561 0.21033 0.88346 0.0
O236 O 0.49457 0.16224 0.82905 0.0
O237 O 0.54835 0.16299 0.80985 0.0
C238 C 0.46385 0.21355 0.75323 0.0
O239 O 0.48878 0.21908 0.86681 0.0
O240 O 0.54195 0.19839 0.86785 0.0
C241 C 0.57433 0.27587 0.82072 0.0
Fe242 Fe 0.82425 0.47739 0.8242 0.0
Fe243 Fe 0.77809 0.51689 0.77276 0.0
O244 O 0.80896 0.51726 0.80682 0.0
Fe245 Fe 0.82454 0.55733 0.82365 0.0
O246 O 0.86839 0.54089 0.83307 0.0
O247 O 0.86847 0.48777 0.81206 0.0
O248 O 0.82085 0.45305 0.78326 0.0
C249 C 0.81944 0.4631 0.752 0.0
C250 C 0.81775 0.52018 0.88374 0.0
O251 O 0.80694 0.49245 0.74458 0.0
C252 C 0.75285 0.57044 0.81233 0.0
O253 O 0.78079 0.46423 0.8373 0.0
O254 O 0.7561 0.47734 0.78753 0.0
O255 O 0.80903 0.54682 0.86687 0.0
O256 O 0.83069 0.49416 0.86842 0.0
C257 C 0.82311 0.57239 0.75422 0.0
O258 O 0.74698 0.54131 0.79846 0.0
O259 O 0.78367 0.58092 0.81707 0.0
C260 C 0.75547 0.46186 0.81654 0.0
O261 O 0.79454 0.55627 0.75177 0.0
O262 O 0.84097 0.57118 0.78167 0.0
C263 C 0.88458 0.51481 0.82123 0.0
H264 H 0.21422 0.34712 0.47484 0.0
H265 H 0.19676 0.27129 0.39394 0.0
H266 H 0.20552 0.39368 0.43283 0.0
H267 H 0.18926 0.31763 0.35189 0.0
H268 H 0.1624 0.4082 0.28303 0.0
H269 H 0.15615 0.36579 0.33002 0.0
H270 H 0.23887 0.41662 0.38655 0.0
H271 H 0.24427 0.45906 0.34069 0.0
C272 C 0.20837 0.34035 0.44817 0.0
C273 C 0.20668 0.30542 0.43775 0.0
C274 C 0.20349 0.36705 0.424 0.0
C275 C 0.19706 0.3595 0.38878 0.0
C276 C 0.19379 0.32455 0.37876 0.0
C277 C 0.19843 0.29788 0.40294 0.0
C278 C 0.17876 0.41058 0.30581 0.0
C279 C 0.2041 0.4368 0.30785 0.0
C280 C 0.17538 0.38616 0.33264 0.0
C281 C 0.19716 0.38757 0.36209 0.0
C282 C 0.2213 0.41482 0.36464 0.0
C283 C 0.22465 0.43906 0.33801 0.0
H284 H 0.56124 0.21474 0.34374 0.0
H285 H 0.63578 0.17739 0.26913 0.0
H286 H 0.60395 0.20845 0.38993 0.0
H287 H 0.67954 0.17276 0.31517 0.0
H288 H 0.74906 0.15815 0.41133 0.0
H289 H 0.70225 0.14853 0.36904 0.0
H290 H 0.65244 0.24288 0.40365 0.0
H291 H 0.69776 0.25173 0.44591 0.0
C292 C 0.58676 0.20479 0.33737 0.0
C293 C 0.59538 0.19691 0.30291 0.0
C294 C 0.61137 0.20143 0.36375 0.0
C295 C 0.64557 0.19102 0.3562 0.0
C296 C 0.65349 0.1808 0.32199 0.0
C297 C 0.62849 0.1835 0.29558 0.0
C298 C 0.72783 0.17652 0.41008 0.0
C299 C 0.72729 0.20573 0.43204 0.0
C300 C 0.70111 0.17112 0.38574 0.0
C301 C 0.67331 0.19475 0.38304 0.0
C302 C 0.67281 0.22359 0.4054 0.0
C303 C 0.6992 0.22889 0.42956 0.0
H304 H 0.82231 0.68317 0.47404 0.0
H305 H 0.83742 0.75911 0.3929 0.0
H306 H 0.83125 0.63668 0.43199 0.0
H307 H 0.84509 0.71283 0.35082 0.0
H308 H 0.8693 0.6228 0.2809 0.0
H309 H 0.87765 0.66463 0.32815 0.0
H310 H 0.79623 0.61417 0.38654 0.0
H311 H 0.78876 0.57231 0.3404 0.0
C312 C 0.82778 0.68997 0.44732 0.0
C313 C 0.82856 0.72488 0.43678 0.0
C314 C 0.8328 0.66332 0.42316 0.0
C315 C 0.83842 0.67094 0.38785 0.0
C316 C 0.84114 0.70589 0.37777 0.0
C317 C 0.83641 0.73251 0.40194 0.0
C318 C 0.85371 0.62037 0.30414 0.0
C319 C 0.82805 0.59452 0.30664 0.0
C320 C 0.85831 0.64443 0.33113 0.0
C321 C 0.83747 0.64295 0.36114 0.0
C322 C 0.81311 0.61598 0.36416 0.0
C323 C 0.80854 0.5921 0.33737 0.0
H324 H 0.27122 0.8246 0.39372 0.0
H325 H 0.34724 0.81791 0.47608 0.0
H326 H 0.31725 0.82936 0.35135 0.0
H327 H 0.39374 0.82434 0.43352 0.0
H328 H 0.46404 0.78711 0.34382 0.0
H329 H 0.42127 0.79176 0.38989 0.0
H330 H 0.36133 0.86284 0.32693 0.0
H331 H 0.40337 0.85669 0.28016 0.0
C332 C 0.29783 0.82482 0.40291 0.0
C333 C 0.30551 0.82057 0.43834 0.0
C334 C 0.32437 0.82785 0.3785 0.0
C335 C 0.35942 0.82722 0.38882 0.0
C336 C 0.36711 0.82431 0.42448 0.0
C337 C 0.34045 0.82083 0.44894 0.0
C338 C 0.4419 0.80402 0.33995 0.0
C339 C 0.43684 0.82116 0.30814 0.0
C340 C 0.4174 0.80689 0.36653 0.0
C341 C 0.38749 0.8274 0.36216 0.0
C342 C 0.38352 0.84607 0.33097 0.0
C343 C 0.40773 0.84274 0.30418 0.0
H344 H 0.20491 0.75601 0.64061 0.0
H345 H 0.20739 0.68158 0.55673 0.0
H346 H 0.1999 0.70919 0.68225 0.0
H347 H 0.20061 0.63442 0.59843 0.0
H348 H 0.23811 0.56087 0.68518 0.0
H349 H 0.23326 0.60485 0.64027 0.0
H350 H 0.16634 0.66545 0.70692 0.0
H351 H 0.17283 0.62214 0.75253 0.0
C352 C 0.20365 0.72961 0.63097 0.0
C353 C 0.20684 0.72254 0.59533 0.0
C354 C 0.2005 0.70262 0.65493 0.0
C355 C 0.1999 0.66779 0.6439 0.0
C356 C 0.20167 0.66081 0.60804 0.0
C357 C 0.20533 0.68786 0.58406 0.0
C358 C 0.22202 0.58339 0.69009 0.0
C359 C 0.2062 0.58825 0.72258 0.0
C360 C 0.21904 0.60862 0.66418 0.0
C361 C 0.1997 0.63909 0.66993 0.0
C362 C 0.18223 0.64286 0.7018 0.0
C363 C 0.18571 0.6179 0.72791 0.0
H364 H 0.34892 0.2155 0.55746 0.0
H365 H 0.27366 0.19465 0.6379 0.0
H366 H 0.39572 0.20851 0.59956 0.0
H367 H 0.32033 0.18871 0.6801 0.0
H368 H 0.41307 0.16317 0.74772 0.0
H369 H 0.37015 0.15672 0.70113 0.0
H370 H 0.41704 0.24274 0.64654 0.0
H371 H 0.45999 0.24851 0.69209 0.0
C372 C 0.34233 0.20925 0.58406 0.0
C373 C 0.30745 0.20611 0.59432 0.0
C374 C 0.36918 0.20537 0.60826 0.0
C375 C 0.36185 0.19844 0.64339 0.0
C376 C 0.32704 0.1937 0.65328 0.0
C377 C 0.3002 0.1974 0.62904 0.0
C378 C 0.41446 0.18029 0.72548 0.0
C379 C 0.4398 0.20655 0.72386 0.0
C380 C 0.38974 0.17677 0.69888 0.0
C381 C 0.38999 0.1993 0.67006 0.0
C382 C 0.41622 0.22458 0.66797 0.0
C383 C 0.44075 0.22811 0.6944 0.0
H384 H 0.8196 0.47462 0.68171 0.0
H385 H 0.83743 0.39464 0.7583 0.0
H386 H 0.82646 0.43181 0.63559 0.0
H387 H 0.84328 0.35177 0.7123 0.0
H388 H 0.78446 0.33947 0.57235 0.0
H389 H 0.79103 0.38538 0.61472 0.0
H390 H 0.87535 0.32929 0.66305 0.0
H391 H 0.86811 0.28235 0.62063 0.0
C392 C 0.82521 0.44798 0.68874 0.0
C393 C 0.82746 0.43805 0.72378 0.0
C394 C 0.82902 0.42337 0.66228 0.0
C395 C 0.83499 0.38817 0.67017 0.0
C396 C 0.83899 0.37862 0.70517 0.0
C397 C 0.83536 0.40324 0.73162 0.0
C398 C 0.80465 0.33688 0.59179 0.0
C399 C 0.8255 0.30693 0.59327 0.0
C400 C 0.80866 0.36352 0.61599 0.0
C401 C 0.83371 0.36116 0.64242 0.0
C402 C 0.85552 0.33178 0.64325 0.0
C403 C 0.85153 0.30498 0.61884 0.0
H404 H 0.74672 0.85827 0.62035 0.0
H405 H 0.6837 0.78589 0.56216 0.0
H406 H 0.70029 0.86481 0.66264 0.0
H407 H 0.63778 0.79112 0.60526 0.0
H408 H 0.55209 0.81904 0.67993 0.0
H409 H 0.59397 0.82449 0.6327 0.0
H410 H 0.6773 0.83126 0.70778 0.0
H411 H 0.63561 0.82725 0.75457 0.0
C412 C 0.72285 0.84383 0.61655 0.0
C413 C 0.71903 0.8213 0.58811 0.0
C414 C 0.69627 0.84739 0.64092 0.0
C415 C 0.66538 0.82806 0.6378 0.0
C416 C 0.66098 0.80669 0.60845 0.0
C417 C 0.68742 0.80353 0.58376 0.0
C418 C 0.57933 0.82215 0.68627 0.0
C419 C 0.59046 0.82255 0.72106 0.0
C420 C 0.60339 0.82505 0.65919 0.0
C421 C 0.63915 0.82819 0.66627 0.0
C422 C 0.65002 0.82953 0.70114 0.0
C423 C 0.62602 0.82697 0.72812 0.0
H424 H 0.47531 0.21279 0.3489 0.0
H425 H 0.39428 0.19469 0.27322 0.0
H426 H 0.43333 0.20458 0.39553 0.0
H427 H 0.3523 0.18748 0.31968 0.0
H428 H 0.28419 0.16082 0.4108 0.0
H429 H 0.33129 0.15419 0.36865 0.0
H430 H 0.38651 0.23901 0.4173 0.0
H431 H 0.34039 0.24498 0.45948 0.0
C432 C 0.44864 0.20683 0.34217 0.0
C433 C 0.43812 0.20492 0.30727 0.0
C434 C 0.42452 0.20223 0.36892 0.0
C435 C 0.3893 0.19574 0.3614 0.0
C436 C 0.3792 0.19211 0.32651 0.0
C437 C 0.40331 0.19657 0.2998 0.0
C438 C 0.30669 0.1776 0.41277 0.0
C439 C 0.3083 0.20369 0.43825 0.0
C440 C 0.33358 0.17397 0.38851 0.0
C441 C 0.36266 0.1962 0.38942 0.0
C442 C 0.36483 0.22113 0.41596 0.0
C443 C 0.33809 0.22478 0.44002 0.0
H444 H 0.82717 0.39362 0.27206 0.0
H445 H 0.82478 0.47691 0.34722 0.0
H446 H 0.83317 0.35168 0.31844 0.0
H447 H 0.83244 0.43484 0.39393 0.0
H448 H 0.79255 0.34699 0.46519 0.0
H449 H 0.79858 0.39263 0.42219 0.0
H450 H 0.86719 0.32702 0.36234 0.0
H451 H 0.85966 0.28067 0.40471 0.0
C452 C 0.82868 0.40308 0.2985 0.0
C453 C 0.82508 0.4386 0.30596 0.0
C454 C 0.83241 0.37895 0.32522 0.0
C455 C 0.83316 0.38974 0.3601 0.0
C456 C 0.83128 0.4255 0.36744 0.0
C457 C 0.82708 0.44966 0.34067 0.0
C458 C 0.80927 0.34245 0.44307 0.0
C459 C 0.82522 0.31005 0.43805 0.0
C460 C 0.81295 0.36878 0.41844 0.0
C461 C 0.8331 0.36349 0.38847 0.0
C462 C 0.85076 0.33174 0.38462 0.0
C463 C 0.84662 0.30521 0.40899 0.0
H464 H 0.63051 0.85537 0.27131 0.0
H465 H 0.56071 0.80417 0.34228 0.0
H466 H 0.67421 0.85981 0.31739 0.0
H467 H 0.60323 0.81013 0.38865 0.0
H468 H 0.70059 0.7736 0.44235 0.0
H469 H 0.65498 0.78043 0.40014 0.0
H470 H 0.69478 0.88174 0.37287 0.0
H471 H 0.74208 0.87425 0.41506 0.0
C472 C 0.62419 0.84595 0.29702 0.0
C473 C 0.59249 0.8289 0.30315 0.0
C474 C 0.64916 0.84858 0.32348 0.0
C475 C 0.64262 0.83464 0.35663 0.0
C476 C 0.6097 0.82015 0.36321 0.0
C477 C 0.58517 0.81691 0.33671 0.0
C478 C 0.69977 0.79754 0.42763 0.0
C479 C 0.72522 0.82336 0.43219 0.0
C480 C 0.67318 0.80162 0.40348 0.0
C481 C 0.67074 0.83185 0.38324 0.0
C482 C 0.69593 0.85803 0.3879 0.0
C483 C 0.72293 0.85384 0.41218 0.0
H484 H 0.16038 0.74722 0.41124 0.0
H485 H 0.24315 0.68977 0.46062 0.0
H486 H 0.15355 0.70036 0.3687 0.0
H487 H 0.23712 0.644 0.41806 0.0
H488 H 0.21138 0.55588 0.34892 0.0
H489 H 0.2029 0.59774 0.39563 0.0
H490 H 0.18648 0.67888 0.31995 0.0
H491 H 0.19381 0.63693 0.27339 0.0
C492 C 0.17679 0.72449 0.41328 0.0
C493 C 0.20256 0.72245 0.43909 0.0
C494 C 0.17307 0.69775 0.38879 0.0
C495 C 0.19491 0.66841 0.38978 0.0
C496 C 0.2195 0.66585 0.41663 0.0
C497 C 0.22321 0.6924 0.44093 0.0
C498 C 0.20553 0.58256 0.34225 0.0
C499 C 0.2038 0.59309 0.30737 0.0
C500 C 0.20077 0.60662 0.36904 0.0
C501 C 0.19442 0.64185 0.36162 0.0
C502 C 0.19099 0.65198 0.32673 0.0
C503 C 0.1955 0.62789 0.29995 0.0
H504 H 0.28132 0.87381 0.61762 0.0
H505 H 0.33418 0.78155 0.58185 0.0
H506 H 0.32797 0.88374 0.65996 0.0
H507 H 0.37938 0.79066 0.6242 0.0
H508 H 0.46908 0.81814 0.68625 0.0
H509 H 0.42723 0.82529 0.63938 0.0
H510 H 0.34999 0.85876 0.71352 0.0
H511 H 0.39289 0.85335 0.76024 0.0
C512 C 0.3029 0.85583 0.61859 0.0
C513 C 0.30388 0.82681 0.5964 0.0
C514 C 0.32952 0.8614 0.64295 0.0
C515 C 0.35762 0.83814 0.64544 0.0
C516 C 0.35871 0.80965 0.62266 0.0
C517 C 0.33241 0.80419 0.59846 0.0
C518 C 0.44337 0.82782 0.69232 0.0
C519 C 0.434 0.83484 0.72676 0.0
C520 C 0.41928 0.83169 0.66556 0.0
C521 C 0.38488 0.84168 0.67273 0.0
C522 C 0.37622 0.85108 0.70699 0.0
C523 C 0.40072 0.84792 0.73379 0.0
H524 H 0.24867 0.33389 0.58076 0.0
H525 H 0.15648 0.28119 0.61704 0.0
H526 H 0.2406 0.37856 0.62366 0.0
H527 H 0.14747 0.32747 0.65991 0.0
H528 H 0.17812 0.39159 0.76032 0.0
H529 H 0.17244 0.3491 0.71331 0.0
H530 H 0.20745 0.42647 0.63995 0.0
H531 H 0.215 0.46781 0.68714 0.0
C532 C 0.22624 0.33206 0.59759 0.0
C533 C 0.20336 0.30368 0.59549 0.0
C534 C 0.22136 0.3581 0.62214 0.0
C535 C 0.19318 0.35698 0.64524 0.0
C536 C 0.16962 0.32906 0.6427 0.0
C537 C 0.17463 0.30266 0.61801 0.0
C538 C 0.18394 0.39952 0.73398 0.0
C539 C 0.19751 0.4327 0.7273 0.0
C540 C 0.18059 0.37525 0.707 0.0
C541 C 0.19024 0.38404 0.67284 0.0
C542 C 0.20087 0.41834 0.66603 0.0
C543 C 0.20497 0.44218 0.69299 0.0
H544 H 0.64227 0.20485 0.75631 0.0
H545 H 0.55739 0.20946 0.68295 0.0
H546 H 0.68315 0.19925 0.7089 0.0
H547 H 0.59832 0.20224 0.63522 0.0
H548 H 0.68549 0.2413 0.56244 0.0
H549 H 0.64055 0.23568 0.60632 0.0
H550 H 0.706 0.16507 0.66415 0.0
H551 H 0.75159 0.17217 0.62096 0.0
C552 C 0.63225 0.20394 0.73003 0.0
C553 C 0.59661 0.20796 0.72339 0.0
C554 C 0.65574 0.20045 0.70274 0.0
C555 C 0.64415 0.20037 0.66807 0.0
C556 C 0.60827 0.20285 0.66152 0.0
C557 C 0.58477 0.20681 0.68887 0.0
C558 C 0.69006 0.2242 0.58428 0.0
C559 C 0.72223 0.20758 0.58855 0.0
C560 C 0.66418 0.22079 0.60942 0.0
C561 C 0.66972 0.20024 0.63912 0.0
C562 C 0.70114 0.18185 0.64213 0.0
C563 C 0.72721 0.18572 0.61728 0.0
H564 H 0.85234 0.63714 0.75934 0.0
H565 H 0.81477 0.56185 0.6853 0.0
H566 H 0.85697 0.68041 0.71301 0.0
H567 H 0.82118 0.60405 0.63879 0.0
H568 H 0.77973 0.69689 0.5806 0.0
H569 H 0.78781 0.65216 0.62341 0.0
H570 H 0.88124 0.7029 0.65972 0.0
H571 H 0.87225 0.74925 0.61691 0.0
C572 C 0.8461 0.62959 0.73296 0.0
C573 C 0.83269 0.59639 0.7259 0.0
C574 C 0.84884 0.65433 0.70636 0.0
C575 C 0.83869 0.64606 0.67218 0.0
C576 C 0.82813 0.6118 0.66492 0.0
C577 C 0.82469 0.58746 0.69151 0.0
C578 C 0.80223 0.69865 0.59743 0.0
C579 C 0.82527 0.72691 0.59526 0.0
C580 C 0.80709 0.67258 0.62194 0.0
C581 C 0.83543 0.6735 0.64497 0.0
C582 C 0.859 0.70143 0.64255 0.0
C583 C 0.85398 0.72788 0.6179 0.0
H584 H 0.45819 0.33817 0.25214 0.0
H585 H 0.41369 0.28704 0.1626 0.0
H586 H 0.41618 0.3846 0.24677 0.0
H587 H 0.37184 0.33444 0.15662 0.0
H588 H 0.27449 0.39542 0.19424 0.0
H589 H 0.32129 0.3537 0.18801 0.0
H590 H 0.39596 0.43338 0.21416 0.0
H591 H 0.34885 0.47509 0.2214 0.0
C592 C 0.43972 0.33705 0.23093 0.0
C593 C 0.43907 0.30854 0.20808 0.0
C594 C 0.41575 0.36398 0.22765 0.0
C595 C 0.39044 0.3633 0.20134 0.0
C596 C 0.39068 0.33555 0.17749 0.0
C597 C 0.41479 0.30847 0.18078 0.0
C598 C 0.30089 0.40424 0.19836 0.0
C599 C 0.3078 0.43856 0.20888 0.0
C600 C 0.32784 0.38028 0.19447 0.0
C601 C 0.36245 0.39002 0.20083 0.0
C602 C 0.36954 0.42481 0.20966 0.0
C603 C 0.34253 0.44879 0.21368 0.0
H604 H 0.3375 0.57137 0.77995 0.0
H605 H 0.28278 0.61733 0.86637 0.0
H606 H 0.3824 0.61514 0.78488 0.0
H607 H 0.32865 0.66106 0.87189 0.0
H608 H 0.3899 0.75846 0.83274 0.0
H609 H 0.34822 0.71129 0.83906 0.0
H610 H 0.42957 0.63676 0.8191 0.0
H611 H 0.47106 0.68394 0.81182 0.0
C612 C 0.33527 0.59056 0.8004 0.0
C613 C 0.30628 0.59099 0.82254 0.0
C614 C 0.36129 0.61557 0.80342 0.0
C615 C 0.35919 0.64174 0.82875 0.0
C616 C 0.33085 0.6415 0.85181 0.0
C617 C 0.30469 0.61631 0.84881 0.0
C618 C 0.399 0.732 0.83005 0.0
C619 C 0.43375 0.72504 0.82122 0.0
C620 C 0.3751 0.7049 0.83393 0.0
C621 C 0.38542 0.6702 0.82926 0.0
C622 C 0.42057 0.66321 0.82219 0.0
C623 C 0.4444 0.69028 0.81811 0.0
H624 H 0.27376 0.38771 0.82415 0.0
H625 H 0.34709 0.47261 0.82097 0.0
H626 H 0.32121 0.34677 0.82971 0.0
H627 H 0.39482 0.43165 0.82824 0.0
H628 H 0.46889 0.34533 0.79057 0.0
H629 H 0.42449 0.38986 0.79537 0.0
H630 H 0.36551 0.32348 0.86403 0.0
H631 H 0.40923 0.27826 0.85768 0.0
C632 C 0.30004 0.39771 0.82535 0.0
C633 C 0.30667 0.43339 0.82179 0.0
C634 C 0.32736 0.37419 0.82882 0.0
C635 C 0.36203 0.38577 0.82937 0.0
C636 C 0.36854 0.42168 0.82724 0.0
C637 C 0.34118 0.4452 0.82327 0.0
C638 C 0.44666 0.34044 0.80705 0.0
C639 C 0.4423 0.30813 0.82337 0.0
C640 C 0.4212 0.36609 0.80999 0.0
C641 C 0.39107 0.36023 0.82978 0.0
C642 C 0.38787 0.32862 0.84782 0.0
C643 C 0.41304 0.30276 0.8444 0.0
H644 H 0.69946 0.44899 0.77547 0.0
H645 H 0.74619 0.41837 0.87283 0.0
H646 H 0.65469 0.40584 0.78294 0.0
H647 H 0.69999 0.37533 0.88101 0.0
H648 H 0.63779 0.27309 0.85316 0.0
H649 H 0.68023 0.32033 0.85765 0.0
H650 H 0.60478 0.39144 0.81462 0.0
H651 H 0.56346 0.34402 0.80859 0.0
C652 C 0.69994 0.43338 0.79884 0.0
C653 C 0.72664 0.43717 0.82347 0.0
C654 C 0.6739 0.40868 0.80331 0.0
C655 C 0.67339 0.38714 0.83276 0.0
C656 C 0.69969 0.3913 0.85789 0.0
C657 C 0.72605 0.4161 0.85331 0.0
C658 C 0.63024 0.29901 0.84532 0.0
C659 C 0.59762 0.30489 0.83005 0.0
C660 C 0.65448 0.32612 0.84794 0.0
C661 C 0.64625 0.35963 0.83577 0.0
C662 C 0.61248 0.36581 0.82321 0.0
C663 C 0.58866 0.33871 0.81998 0.0
H664 H 0.6829 0.55759 0.80695 0.0
H665 H 0.75653 0.63805 0.83377 0.0
H666 H 0.63541 0.59885 0.814 0.0
H667 H 0.70929 0.67938 0.83977 0.0
H668 H 0.61598 0.74474 0.866 0.0
H669 H 0.65876 0.69811 0.8714 0.0
H670 H 0.61418 0.64723 0.78177 0.0
H671 H 0.57123 0.69285 0.77702 0.0
C672 C 0.68898 0.584 0.81448 0.0
C673 C 0.72361 0.59454 0.81937 0.0
C674 C 0.66175 0.60773 0.8184 0.0
C675 C 0.66848 0.6426 0.82715 0.0
C676 C 0.70302 0.65272 0.83341 0.0
C677 C 0.7302 0.62899 0.82966 0.0
C678 C 0.61503 0.7233 0.84782 0.0
C679 C 0.59036 0.72278 0.82087 0.0
C680 C 0.63969 0.69667 0.85076 0.0
C681 C 0.64012 0.66895 0.82688 0.0
C682 C 0.61448 0.66783 0.80091 0.0
C683 C 0.58995 0.6943 0.798 0.0
H684 H 0.63715 0.75923 0.20317 0.0
H685 H 0.55421 0.6837 0.20711 0.0
H686 H 0.67942 0.71287 0.19922 0.0
H687 H 0.5966 0.63699 0.20157 0.0
H688 H 0.68464 0.56649 0.24256 0.0
H689 H 0.63898 0.60959 0.23619 0.0
H690 H 0.70427 0.66832 0.1663 0.0
H691 H 0.75053 0.62595 0.17412 0.0
C692 C 0.62785 0.73269 0.20245 0.0
C693 C 0.59231 0.72517 0.20579 0.0
C694 C 0.65217 0.70598 0.19993 0.0
C695 C 0.64156 0.67102 0.20019 0.0
C696 C 0.60581 0.66355 0.20197 0.0
C697 C 0.58146 0.69033 0.20493 0.0
C698 C 0.68909 0.58842 0.22554 0.0
C699 C 0.72136 0.5931 0.20923 0.0
C700 C 0.66278 0.61309 0.22168 0.0
C701 C 0.66795 0.64275 0.20098 0.0
C702 C 0.69962 0.64632 0.18315 0.0
C703 C 0.72611 0.62193 0.18745 0.0
H704 H 0.39343 0.75961 0.17908 0.0
H705 H 0.46826 0.68667 0.21936 0.0
H706 H 0.35064 0.71289 0.17366 0.0
H707 H 0.42659 0.63971 0.21212 0.0
H708 H 0.33285 0.58121 0.25125 0.0
H709 H 0.37779 0.62393 0.24392 0.0
H710 H 0.32911 0.65943 0.14918 0.0
H711 H 0.28245 0.61676 0.15745 0.0
C712 C 0.40099 0.73339 0.18584 0.0
C713 C 0.43389 0.72677 0.20022 0.0
C714 C 0.37654 0.70655 0.1826 0.0
C715 C 0.38481 0.67254 0.19316 0.0
C716 C 0.41882 0.66571 0.20482 0.0
C717 C 0.44285 0.69256 0.20877 0.0
C718 C 0.33158 0.59785 0.22862 0.0
C719 C 0.30374 0.59558 0.20506 0.0
C720 C 0.3578 0.6223 0.22419 0.0
C721 C 0.35748 0.64512 0.19576 0.0
C722 C 0.3301 0.64244 0.17154 0.0
C723 C 0.30347 0.61786 0.17613 0.0
H724 H 0.63828 0.27214 0.19671 0.0
H725 H 0.55748 0.34721 0.21704 0.0
H726 H 0.68003 0.31895 0.18926 0.0
H727 H 0.59907 0.39415 0.20844 0.0
H728 H 0.69169 0.45899 0.24723 0.0
H729 H 0.64607 0.41616 0.24191 0.0
H730 H 0.70047 0.3683 0.15632 0.0
H731 H 0.74722 0.41113 0.1624 0.0
C732 C 0.62926 0.29867 0.19903 0.0
C733 C 0.59462 0.30589 0.20808 0.0
C734 C 0.65321 0.32557 0.19443 0.0
C735 C 0.64306 0.36038 0.19854 0.0
C736 C 0.60797 0.36762 0.20577 0.0
C737 C 0.58407 0.3407 0.21063 0.0
C738 C 0.69393 0.43957 0.227 0.0
C739 C 0.7234 0.43823 0.20554 0.0
C740 C 0.66745 0.41512 0.22371 0.0
C741 C 0.66952 0.38862 0.19875 0.0
C742 C 0.69827 0.38812 0.17614 0.0
C743 C 0.72493 0.41277 0.17944 0.0
H744 H 0.19967 0.92718 0.45926 0.0
H745 H 0.22647 0.92386 0.56795 0.0
H746 H 0.20055 0.99037 0.46088 0.0
H747 H 0.23007 0.98687 0.56934 0.0
H748 H 0.19978 0.10048 0.572 0.0
H749 H 0.1993 0.03732 0.57038 0.0
H750 H 0.23248 0.04016 0.46308 0.0
H751 H 0.23024 0.10324 0.46437 0.0
C752 C 0.20634 0.94008 0.48337 0.0
C753 C 0.21278 0.92071 0.51351 0.0
C754 C 0.20714 0.9764 0.48435 0.0
C755 C 0.21536 0.99424 0.51531 0.0
C756 C 0.22271 0.97448 0.5452 0.0
C757 C 0.22096 0.93824 0.5444 0.0
C758 C 0.207 0.08745 0.54816 0.0
C759 C 0.21486 0.10669 0.51828 0.0
C760 C 0.207 0.05113 0.54718 0.0
C761 C 0.21582 0.03312 0.51653 0.0
C762 C 0.22463 0.0527 0.48694 0.0
C763 C 0.22368 0.08898 0.4877 0.0
H764 H 0.1042 0.21001 0.56709 0.0
H765 H 0.10397 0.21265 0.455 0.0
H766 H 0.04117 0.21265 0.56733 0.0
H767 H 0.04064 0.21376 0.45509 0.0
H768 H 0.92784 0.24711 0.46723 0.0
H769 H 0.99112 0.24768 0.46714 0.0
H770 H 0.99172 0.17909 0.55596 0.0
H771 H 0.9286 0.1798 0.55687 0.0
C772 C 0.09064 0.21083 0.54244 0.0
C773 C 0.10914 0.21095 0.51102 0.0
C774 C 0.05438 0.21214 0.54255 0.0
C775 C 0.03555 0.21314 0.51123 0.0
C776 C 0.05414 0.21349 0.47976 0.0
C777 C 0.0905 0.21264 0.47967 0.0
C778 C 0.94153 0.23224 0.4868 0.0
C779 C 0.92314 0.21347 0.5121 0.0
C780 C 0.97788 0.23237 0.48661 0.0
C781 C 0.99676 0.21341 0.51152 0.0
C782 C 0.97823 0.19456 0.53675 0.0
C783 C 0.94193 0.19479 0.53718 0.0
H784 H 0.85245 0.10311 0.47207 0.0
H785 H 0.78336 0.10613 0.56022 0.0
H786 H 0.85087 0.04 0.47292 0.0
H787 H 0.78047 0.04295 0.5602 0.0
H788 H 0.81128 0.92898 0.57313 0.0
H789 H 0.81199 0.99226 0.57295 0.0
H790 H 0.81606 0.99165 0.46078 0.0
H791 H 0.81692 0.92855 0.46118 0.0
C792 C 0.83662 0.09029 0.49143 0.0
C793 C 0.81811 0.1097 0.51612 0.0
C794 C 0.8355 0.054 0.49181 0.0
C795 C 0.81543 0.03611 0.51657 0.0
C796 C 0.79669 0.05564 0.5411 0.0
C797 C 0.79817 0.09195 0.54099 0.0
C798 C 0.81223 0.94241 0.54845 0.0
C799 C 0.8143 0.9237 0.51719 0.0
C800 C 0.81245 0.97877 0.5483 0.0
C801 C 0.81428 0.99732 0.51684 0.0
C802 C 0.81547 0.97844 0.48557 0.0
C803 C 0.81572 0.94216 0.48577 0.0
H804 H 0.10195 0.83589 0.46611 0.0
H805 H 0.10081 0.79825 0.5718 0.0
H806 H 0.03891 0.83594 0.46522 0.0
H807 H 0.03735 0.79765 0.57058 0.0
H808 H 0.92526 0.84006 0.56715 0.0
H809 H 0.98848 0.83784 0.56904 0.0
H810 H 0.98993 0.79674 0.4647 0.0
H811 H 0.92678 0.79959 0.46247 0.0
C812 C 0.08828 0.82743 0.48915 0.0
C813 C 0.10657 0.81717 0.51909 0.0
C814 C 0.05203 0.82723 0.48853 0.0
C815 C 0.033 0.81672 0.51778 0.0
C816 C 0.05121 0.80627 0.54772 0.0
C817 C 0.0876 0.80645 0.54836 0.0
C818 C 0.93903 0.83056 0.54457 0.0
C819 C 0.92086 0.82025 0.51455 0.0
C820 C 0.97531 0.82905 0.54578 0.0
C821 C 0.99433 0.81718 0.51701 0.0
C822 C 0.97614 0.80651 0.48714 0.0
C823 C 0.93987 0.80803 0.48592 0.0
H824 H 0.56776 0.19136 0.9279 0.0
H825 H 0.46382 0.23366 0.92629 0.0
H826 H 0.56788 0.1938 0.99105 0.0
H827 H 0.46427 0.23669 0.98951 0.0
H828 H 0.46318 0.19773 0.10227 0.0
H829 H 0.46304 0.19794 0.03913 0.0
H830 H 0.56904 0.23479 0.03911 0.0
H831 H 0.56948 0.23396 0.10245 0.0
C832 C 0.54496 0.20131 0.94097 0.0
C833 C 0.51569 0.21213 0.92194 0.0
C834 C 0.54515 0.20295 0.97722 0.0
C835 C 0.5161 0.21546 0.99538 0.0
C836 C 0.48691 0.2265 0.97636 0.0
C837 C 0.48671 0.22488 0.94008 0.0
C838 C 0.48648 0.20598 0.08888 0.0
C839 C 0.51642 0.21565 0.10753 0.0
C840 C 0.4863 0.2063 0.05261 0.0
C841 C 0.51604 0.21632 0.03402 0.0
C842 C 0.54584 0.22646 0.05263 0.0
C843 C 0.54603 0.22617 0.08896 0.0
H844 H 0.85013 0.47617 0.9288 0.0
H845 H 0.78179 0.56499 0.92574 0.0
H846 H 0.84885 0.47711 0.99177 0.0
H847 H 0.77924 0.56509 0.98904 0.0
H848 H 0.81212 0.57717 0.10316 0.0
H849 H 0.81166 0.57731 0.03985 0.0
H850 H 0.81368 0.46507 0.03975 0.0
H851 H 0.81569 0.4651 0.1028 0.0
C852 C 0.83448 0.4957 0.94159 0.0
C853 C 0.81608 0.52052 0.92219 0.0
C854 C 0.83355 0.49611 0.97782 0.0
C855 C 0.81376 0.52105 0.99573 0.0
C856 C 0.79516 0.54579 0.97627 0.0
C857 C 0.79645 0.54563 0.93993 0.0
C858 C 0.8124 0.55255 0.08956 0.0
C859 C 0.81429 0.52114 0.10802 0.0
C860 C 0.81193 0.55259 0.05321 0.0
C861 C 0.81289 0.5212 0.03447 0.0
C862 C 0.81379 0.4898 0.05312 0.0
C863 C 0.81473 0.48979 0.08937 0.0
H864 H 0.4618 0.83935 0.10186 0.0
H865 H 0.56564 0.79678 0.10254 0.0
H866 H 0.46139 0.83739 0.03861 0.0
H867 H 0.56491 0.79429 0.03938 0.0
H868 H 0.4599 0.79709 0.92686 0.0
H869 H 0.46025 0.79649 0.99017 0.0
H870 H 0.5661 0.83372 0.99016 0.0
H871 H 0.56603 0.83376 0.92697 0.0
C872 C 0.48449 0.82944 0.08857 0.0
C873 C 0.51382 0.81842 0.10736 0.0
C874 C 0.48416 0.82811 0.05228 0.0
C875 C 0.51315 0.81574 0.0339 0.0
C876 C 0.54234 0.80443 0.0527 0.0
C877 C 0.54267 0.80572 0.08896 0.0
C878 C 0.4833 0.80503 0.94034 0.0
C879 C 0.51291 0.81557 0.92175 0.0
C880 C 0.48342 0.80488 0.97666 0.0
C881 C 0.51316 0.81515 0.99526 0.0
C882 C 0.54288 0.82527 0.97667 0.0
C883 C 0.54276 0.82548 0.94038 0.0
H884 H 0.21886 0.45388 0.92829 0.0
H885 H 0.21359 0.56587 0.92816 0.0
H886 H 0.21854 0.4539 0.99149 0.0
H887 H 0.21485 0.56609 0.99131 0.0
H888 H 0.17833 0.55462 0.10244 0.0
H889 H 0.18004 0.55388 0.03944 0.0
H890 H 0.24999 0.46618 0.04244 0.0
H891 H 0.24697 0.46606 0.10569 0.0
C892 C 0.21808 0.47855 0.94177 0.0
C893 C 0.216 0.50987 0.92314 0.0
C894 C 0.2181 0.4786 0.97811 0.0
C895 C 0.21649 0.50999 0.99678 0.0
C896 C 0.2153 0.54134 0.97801 0.0
C897 C 0.21481 0.54126 0.9417 0.0
C898 C 0.19409 0.53515 0.08969 0.0
C899 C 0.21246 0.51036 0.10916 0.0
C900 C 0.1953 0.53488 0.05343 0.0
C901 C 0.21532 0.51009 0.03557 0.0
C902 C 0.23385 0.48536 0.05513 0.0
C903 C 0.23228 0.48537 0.09146 0.0
H904 H 0.10185 0.56857 0.23264 0.0
H905 H 0.10228 0.46338 0.19351 0.0
H906 H 0.03853 0.56778 0.23351 0.0
H907 H 0.03907 0.4629 0.19375 0.0
H908 H 0.92633 0.46194 0.23058 0.0
H909 H 0.98964 0.46256 0.23261 0.0
H910 H 0.98993 0.56762 0.19346 0.0
H911 H 0.92674 0.56732 0.19207 0.0
C912 C 0.08849 0.5453 0.22414 0.0
C913 C 0.10726 0.51608 0.21289 0.0
C914 C 0.05214 0.54492 0.22447 0.0
C915 C 0.03364 0.51531 0.21362 0.0
C916 C 0.05243 0.486 0.20269 0.0
C917 C 0.08875 0.48637 0.20234 0.0
C918 C 0.93987 0.48519 0.22242 0.0
C919 C 0.92134 0.51453 0.21105 0.0
C920 C 0.97621 0.48549 0.22343 0.0
C921 C 0.99494 0.51513 0.21316 0.0
C922 C 0.97638 0.54451 0.202 0.0
C923 C 0.94008 0.54423 0.20097 0.0
H924 H 0.92813 0.56775 0.84019 0.0
H925 H 0.92828 0.46261 0.8008 0.0
H926 H 0.99139 0.56794 0.84007 0.0
H927 H 0.99156 0.46311 0.80018 0.0
H928 H 0.10379 0.56771 0.80093 0.0
H929 H 0.04046 0.56758 0.79973 0.0
H930 H 0.0398 0.46351 0.84143 0.0
H931 H 0.103 0.46331 0.84213 0.0
C932 C 0.94161 0.5447 0.8314 0.0
C933 C 0.92307 0.51509 0.82067 0.0
C934 C 0.9779 0.54492 0.83112 0.0
C935 C 0.99651 0.51554 0.82016 0.0
C936 C 0.97799 0.48601 0.80922 0.0
C937 C 0.9417 0.48579 0.80943 0.0
C938 C 0.09016 0.54479 0.80986 0.0
C939 C 0.10853 0.51555 0.82171 0.0
C940 C 0.05385 0.54479 0.80931 0.0
C941 C 0.0351 0.51554 0.82049 0.0
C942 C 0.05347 0.48629 0.83223 0.0
C943 C 0.08973 0.48629 0.83284 0.0
H944 H 0.57701 0.10276 0.813 0.0
H945 H 0.46502 0.10317 0.81913 0.0
H946 H 0.57679 0.03952 0.81373 0.0
H947 H 0.46461 0.04003 0.81835 0.0
H948 H 0.47594 0.92878 0.85453 0.0
H949 H 0.47718 0.99184 0.85333 0.0
H950 H 0.5637 0.9888 0.782 0.0
H951 H 0.56331 0.92556 0.78444 0.0
C952 C 0.5523 0.08934 0.8141 0.0
C953 C 0.52104 0.10805 0.81626 0.0
C954 C 0.55214 0.053 0.81433 0.0
C955 C 0.52069 0.03443 0.81628 0.0
C956 C 0.4894 0.05328 0.81764 0.0
C957 C 0.4896 0.08958 0.81785 0.0
C958 C 0.49528 0.94155 0.83862 0.0
C959 C 0.51957 0.92208 0.81964 0.0
C960 C 0.49584 0.97782 0.8377 0.0
C961 C 0.52043 0.99566 0.81741 0.0
C962 C 0.54471 0.97611 0.79835 0.0
C963 C 0.5444 0.93978 0.7996 0.0
H964 H 0.55301 0.92897 0.17555 0.0
H965 H 0.4669 0.92786 0.24729 0.0
H966 H 0.55211 0.99199 0.17521 0.0
H967 H 0.46691 0.99119 0.24818 0.0
H968 H 0.45378 0.1043 0.21409 0.0
H969 H 0.45346 0.04099 0.21478 0.0
H970 H 0.56562 0.04069 0.20918 0.0
H971 H 0.56572 0.10371 0.20695 0.0
C972 C 0.5341 0.94222 0.19157 0.0
C973 C 0.51002 0.92339 0.21143 0.0
C974 C 0.5337 0.97845 0.19155 0.0
C975 C 0.50954 0.99686 0.2118 0.0
C976 C 0.48555 0.97797 0.23185 0.0
C977 C 0.48566 0.94164 0.23152 0.0
C978 C 0.47833 0.09065 0.21297 0.0
C979 C 0.50975 0.10901 0.21014 0.0
C980 C 0.4782 0.05432 0.2136 0.0
C981 C 0.50951 0.03556 0.21187 0.0
C982 C 0.54093 0.05411 0.20974 0.0
C983 C 0.54103 0.09033 0.20864 0.0
loop_
_geom_bond_atom_site_label_1
_geom_bond_atom_site_label_2
_geom_bond_distance
_geom_bond_site_symmetry_2
_ccdc_geom_bond_type
Fe0 O2 1.918 . S
Fe0 O5 1.997 . S
Fe0 O6 2.002 . S
Fe0 O11 1.976 . S
Fe0 O14 1.996 . S
Fe1 O2 1.918 . S
Fe1 O9 1.997 . S
Fe1 O12 1.996 . S
Fe1 O16 1.976 . S
Fe1 O19 2.002 . S
O2 Fe0 1.918 . S
O2 Fe1 1.918 . S
O2 Fe3 1.918 . S
Fe3 O2 1.918 . S
Fe3 O4 2.002 . S
Fe3 O13 1.976 . S
Fe3 O17 1.996 . S
Fe3 O20 1.997 . S
O4 Fe3 2.002 . S
O4 C21 1.295 . S
O5 Fe0 1.997 . S
O5 C21 1.235 . S
O6 Fe0 2.002 . S
O6 C7 1.295 . S
C7 O6 1.295 . S
C7 O9 1.235 . S
C8 O13 1.287 . S
C8 O14 1.255 . S
O9 Fe1 1.997 . S
O9 C7 1.235 . S
C10 O16 1.287 . S
C10 O17 1.255 . S
O11 Fe0 1.976 . S
O11 C18 1.287 . S
O12 Fe1 1.996 . S
O12 C18 1.255 . S
O13 Fe3 1.976 . S
O13 C8 1.287 . S
O14 Fe0 1.996 . S
O14 C8 1.255 . S
C15 O19 1.295 . S
C15 O20 1.235 . S
O16 Fe1 1.976 . S
O16 C10 1.287 . S
O17 Fe3 1.996 . S
O17 C10 1.255 . S
C18 O11 1.287 . S
C18 O12 1.255 . S
O19 Fe1 2.002 . S
O19 C15 1.295 . S
O20 Fe3 1.997 . S
O20 C15 1.235 . S
C21 O4 1.295 . S
C21 O5 1.235 . S
Fe22 O24 1.918 . S
Fe22 O27 1.997 . S
Fe22 O28 2.002 . S
Fe22 O33 1.976 . S
Fe22 O36 1.996 . S
Fe23 O24 1.918 . S
Fe23 O31 1.997 . S
Fe23 O34 1.996 . S
Fe23 O38 1.976 . S
Fe23 O41 2.002 . S
O24 Fe22 1.918 . S
O24 Fe23 1.918 . S
O24 Fe25 1.918 . S
Fe25 O24 1.918 . S
Fe25 O26 2.002 . S
Fe25 O35 1.976 . S
Fe25 O39 1.996 . S
Fe25 O42 1.997 . S
O26 Fe25 2.002 . S
O26 C43 1.295 . S
O27 Fe22 1.997 . S
O27 C43 1.235 . S
O28 Fe22 2.002 . S
O28 C29 1.295 . S
C29 O28 1.295 . S
C29 O31 1.235 . S
C30 O35 1.287 . S
C30 O36 1.255 . S
O31 Fe23 1.997 . S
O31 C29 1.235 . S
C32 O38 1.287 . S
C32 O39 1.255 . S
O33 Fe22 1.976 . S
O33 C40 1.287 . S
O34 Fe23 1.996 . S
O34 C40 1.255 . S
O35 Fe25 1.976 . S
O35 C30 1.287 . S
O36 Fe22 1.996 . S
O36 C30 1.255 . S
C37 O41 1.295 . S
C37 O42 1.235 . S
O38 Fe23 1.976 . S
O38 C32 1.287 . S
O39 Fe25 1.996 . S
O39 C32 1.255 . S
C40 O33 1.287 . S
C40 O34 1.255 . S
O41 Fe23 2.002 . S
O41 C37 1.295 . S
O42 Fe25 1.997 . S
O42 C37 1.235 . S
C43 O26 1.295 . S
C43 O27 1.235 . S
Fe44 O46 1.918 . S
Fe44 O49 1.997 . S
Fe44 O50 2.002 . S
Fe44 O55 1.976 . S
Fe44 O58 1.996 . S
Fe45 O46 1.918 . S
Fe45 O53 1.997 . S
Fe45 O56 1.996 . S
Fe45 O60 1.976 . S
Fe45 O63 2.002 . S
O46 Fe44 1.918 . S
O46 Fe45 1.918 . S
O46 Fe47 1.918 . S
Fe47 O46 1.918 . S
Fe47 O48 2.002 . S
Fe47 O57 1.976 . S
Fe47 O61 1.996 . S
Fe47 O64 1.997 . S
O48 Fe47 2.002 . S
O48 C65 1.295 . S
O49 Fe44 1.997 . S
O49 C65 1.235 . S
O50 Fe44 2.002 . S
O50 C51 1.295 . S
C51 O50 1.295 . S
C51 O53 1.235 . S
C52 O57 1.287 . S
C52 O58 1.255 . S
O53 Fe45 1.997 . S
O53 C51 1.235 . S
C54 O60 1.287 . S
C54 O61 1.255 . S
O55 Fe44 1.976 . S
O55 C62 1.287 . S
O56 Fe45 1.996 . S
O56 C62 1.255 . S
O57 Fe47 1.976 . S
O57 C52 1.287 . S
O58 Fe44 1.996 . S
O58 C52 1.255 . S
C59 O63 1.295 . S
C59 O64 1.235 . S
O60 Fe45 1.976 . S
O60 C54 1.287 . S
O61 Fe47 1.996 . S
O61 C54 1.255 . S
C62 O55 1.287 . S
C62 O56 1.255 . S
O63 Fe45 2.002 . S
O63 C59 1.295 . S
O64 Fe47 1.997 . S
O64 C59 1.235 . S
C65 O48 1.295 . S
C65 O49 1.235 . S
Fe66 O68 1.918 . S
Fe66 O71 1.997 . S
Fe66 O72 2.002 . S
Fe66 O77 1.976 . S
Fe66 O80 1.996 . S
Fe67 O68 1.918 . S
Fe67 O75 1.997 . S
Fe67 O78 1.996 . S
Fe67 O82 1.976 . S
Fe67 O85 2.002 . S
O68 Fe66 1.918 . S
O68 Fe67 1.918 . S
O68 Fe69 1.918 . S
Fe69 O68 1.918 . S
Fe69 O70 2.002 . S
Fe69 O79 1.976 . S
Fe69 O83 1.996 . S
Fe69 O86 1.997 . S
O70 Fe69 2.002 . S
O70 C87 1.295 . S
O71 Fe66 1.997 . S
O71 C87 1.235 . S
O72 Fe66 2.002 . S
O72 C73 1.295 . S
C73 O72 1.295 . S
C73 O75 1.235 . S
C74 O79 1.287 . S
C74 O80 1.255 . S
O75 Fe67 1.997 . S
O75 C73 1.235 . S
C76 O82 1.287 . S
C76 O83 1.255 . S
O77 Fe66 1.976 . S
O77 C84 1.287 . S
O78 Fe67 1.996 . S
O78 C84 1.255 . S
O79 Fe69 1.976 . S
O79 C74 1.287 . S
O80 Fe66 1.996 . S
O80 C74 1.255 . S
C81 O85 1.295 . S
C81 O86 1.235 . S
O82 Fe67 1.976 . S
O82 C76 1.287 . S
O83 Fe69 1.996 . S
O83 C76 1.255 . S
C84 O77 1.287 . S
C84 O78 1.255 . S
O85 Fe67 2.002 . S
O85 C81 1.295 . S
O86 Fe69 1.997 . S
O86 C81 1.235 . S
C87 O70 1.295 . S
C87 O71 1.235 . S
Fe88 O90 1.918 . S
Fe88 O93 1.997 . S
Fe88 O94 2.002 . S
Fe88 O99 1.976 . S
Fe88 O102 1.996 . S
Fe89 O90 1.918 . S
Fe89 O97 1.997 . S
Fe89 O100 1.996 . S
Fe89 O104 1.976 . S
Fe89 O107 2.002 . S
O90 Fe88 1.918 . S
O90 Fe89 1.918 . S
O90 Fe91 1.918 . S
Fe91 O90 1.918 . S
Fe91 O92 2.002 . S
Fe91 O101 1.976 . S
Fe91 O105 1.996 . S
Fe91 O108 1.997 . S
O92 Fe91 2.002 . S
O92 C109 1.295 . S
O93 Fe88 1.997 . S
O93 C109 1.235 . S
O94 Fe88 2.002 . S
O94 C95 1.295 . S
C95 O94 1.295 . S
C95 O97 1.235 . S
C96 O101 1.287 . S
C96 O102 1.255 . S
O97 Fe89 1.997 . S
O97 C95 1.235 . S
C98 O104 1.287 . S
C98 O105 1.255 . S
O99 Fe88 1.976 . S
O99 C106 1.287 . S
O100 Fe89 1.996 . S
O100 C106 1.255 . S
O101 Fe91 1.976 . S
O101 C96 1.287 . S
O102 Fe88 1.996 . S
O102 C96 1.255 . S
C103 O107 1.295 . S
C103 O108 1.235 . S
O104 Fe89 1.976 . S
O104 C98 1.287 . S
O105 Fe91 1.996 . S
O105 C98 1.255 . S
C106 O99 1.287 . S
C106 O100 1.255 . S
O107 Fe89 2.002 . S
O107 C103 1.295 . S
O108 Fe91 1.997 . S
O108 C103 1.235 . S
C109 O92 1.295 . S
C109 O93 1.235 . S
Fe110 O112 1.918 . S
Fe110 O115 1.997 . S
Fe110 O116 2.002 . S
Fe110 O121 1.976 . S
Fe110 O124 1.996 . S
Fe111 O112 1.918 . S
Fe111 O119 1.997 . S
Fe111 O122 1.996 . S
Fe111 O126 1.976 . S
Fe111 O129 2.002 . S
O112 Fe110 1.918 . S
O112 Fe111 1.918 . S
O112 Fe113 1.918 . S
Fe113 O112 1.918 . S
Fe113 O114 2.002 . S
Fe113 O123 1.976 . S
Fe113 O127 1.996 . S
Fe113 O130 1.997 . S
O114 Fe113 2.002 . S
O114 C131 1.295 . S
O115 Fe110 1.997 . S
O115 C131 1.235 . S
O116 Fe110 2.002 . S
O116 C117 1.295 . S
C117 O116 1.295 . S
C117 O119 1.235 . S
C118 O123 1.287 . S
C118 O124 1.255 . S
O119 Fe111 1.997 . S
O119 C117 1.235 . S
C120 O126 1.287 . S
C120 O127 1.255 . S
O121 Fe110 1.976 . S
O121 C128 1.287 . S
O122 Fe111 1.996 . S
O122 C128 1.255 . S
O123 Fe113 1.976 . S
O123 C118 1.287 . S
O124 Fe110 1.996 . S
O124 C118 1.255 . S
C125 O129 1.295 . S
C125 O130 1.235 . S
O126 Fe111 1.976 . S
O126 C120 1.287 . S
O127 Fe113 1.996 . S
O127 C120 1.255 . S
C128 O121 1.287 . S
C128 O122 1.255 . S
O129 Fe111 2.002 . S
O129 C125 1.295 . S
O130 Fe113 1.997 . S
O130 C125 1.235 . S
C131 O114 1.295 . S
C131 O115 1.235 . S
Fe132 O134 1.918 . S
Fe132 O137 1.997 . S
Fe132 O138 2.002 . S
Fe132 O143 1.976 . S
Fe132 O146 1.996 . S
Fe133 O134 1.918 . S
Fe133 O141 1.997 . S
Fe133 O144 1.996 . S
Fe133 O148 1.976 . S
Fe133 O151 2.002 . S
O134 Fe132 1.918 . S
O134 Fe133 1.918 . S
O134 Fe135 1.918 . S
Fe135 O134 1.918 . S
Fe135 O136 2.002 . S
Fe135 O145 1.976 . S
Fe135 O149 1.996 . S
Fe135 O152 1.997 . S
O136 Fe135 2.002 . S
O136 C153 1.295 . S
O137 Fe132 1.997 . S
O137 C153 1.235 . S
O138 Fe132 2.002 . S
O138 C139 1.295 . S
C139 O138 1.295 . S
C139 O141 1.235 . S
C140 O145 1.287 . S
C140 O146 1.255 . S
O141 Fe133 1.997 . S
O141 C139 1.235 . S
C142 O148 1.287 . S
C142 O149 1.255 . S
O143 Fe132 1.976 . S
O143 C150 1.287 . S
O144 Fe133 1.996 . S
O144 C150 1.255 . S
O145 Fe135 1.976 . S
O145 C140 1.287 . S
O146 Fe132 1.996 . S
O146 C140 1.255 . S
C147 O151 1.295 . S
C147 O152 1.235 . S
O148 Fe133 1.976 . S
O148 C142 1.287 . S
O149 Fe135 1.996 . S
O149 C142 1.255 . S
C150 O143 1.287 . S
C150 O144 1.255 . S
O151 Fe133 2.002 . S
O151 C147 1.295 . S
O152 Fe135 1.997 . S
O152 C147 1.235 . S
C153 O136 1.295 . S
C153 O137 1.235 . S
Fe154 O156 1.918 . S
Fe154 O159 1.997 . S
Fe154 O160 2.002 . S
Fe154 O165 1.976 . S
Fe154 O168 1.996 . S
Fe155 O156 1.918 . S
Fe155 O163 1.997 . S
Fe155 O166 1.996 . S
Fe155 O170 1.976 . S
Fe155 O173 2.002 . S
O156 Fe154 1.918 . S
O156 Fe155 1.918 . S
O156 Fe157 1.918 . S
Fe157 O156 1.918 . S
Fe157 O158 2.002 . S
Fe157 O167 1.976 . S
Fe157 O171 1.996 . S
Fe157 O174 1.997 . S
O158 Fe157 2.002 . S
O158 C175 1.295 . S
O159 Fe154 1.997 . S
O159 C175 1.235 . S
O160 Fe154 2.002 . S
O160 C161 1.295 . S
C161 O160 1.295 . S
C161 O163 1.235 . S
C162 O167 1.287 . S
C162 O168 1.255 . S
O163 Fe155 1.997 . S
O163 C161 1.235 . S
C164 O170 1.287 . S
C164 O171 1.255 . S
O165 Fe154 1.976 . S
O165 C172 1.287 . S
O166 Fe155 1.996 . S
O166 C172 1.255 . S
O167 Fe157 1.976 . S
O167 C162 1.287 . S
O168 Fe154 1.996 . S
O168 C162 1.255 . S
C169 O173 1.295 . S
C169 O174 1.235 . S
O170 Fe155 1.976 . S
O170 C164 1.287 . S
O171 Fe157 1.996 . S
O171 C164 1.255 . S
C172 O165 1.287 . S
C172 O166 1.255 . S
O173 Fe155 2.002 . S
O173 C169 1.295 . S
O174 Fe157 1.997 . S
O174 C169 1.235 . S
C175 O158 1.295 . S
C175 O159 1.235 . S
Fe176 O178 1.918 . S
Fe176 O181 1.997 . S
Fe176 O182 2.002 . S
Fe176 O187 1.976 . S
Fe176 O190 1.996 . S
Fe177 O178 1.918 . S
Fe177 O185 1.997 . S
Fe177 O188 1.996 . S
Fe177 O192 1.976 . S
Fe177 O195 2.002 . S
O178 Fe176 1.918 . S
O178 Fe177 1.918 . S
O178 Fe179 1.918 . S
Fe179 O178 1.918 . S
Fe179 O180 2.002 . S
Fe179 O189 1.976 . S
Fe179 O193 1.996 . S
Fe179 O196 1.997 . S
O180 Fe179 2.002 . S
O180 C197 1.295 . S
O181 Fe176 1.997 . S
O181 C197 1.235 . S
O182 Fe176 2.002 . S
O182 C183 1.295 . S
C183 O182 1.295 . S
C183 O185 1.235 . S
C184 O189 1.287 . S
C184 O190 1.255 . S
O185 Fe177 1.997 . S
O185 C183 1.235 . S
C186 O192 1.287 . S
C186 O193 1.255 . S
O187 Fe176 1.976 . S
O187 C194 1.287 . S
O188 Fe177 1.996 . S
O188 C194 1.255 . S
O189 Fe179 1.976 . S
O189 C184 1.287 . S
O190 Fe176 1.996 . S
O190 C184 1.255 . S
C191 O195 1.295 . S
C191 O196 1.235 . S
O192 Fe177 1.976 . S
O192 C186 1.287 . S
O193 Fe179 1.996 . S
O193 C186 1.255 . S
C194 O187 1.287 . S
C194 O188 1.255 . S
O195 Fe177 2.002 . S
O195 C191 1.295 . S
O196 Fe179 1.997 . S
O196 C191 1.235 . S
C197 O180 1.295 . S
C197 O181 1.235 . S
Fe198 O200 1.918 . S
Fe198 O203 1.997 . S
Fe198 O204 2.002 . S
Fe198 O209 1.976 . S
Fe198 O212 1.996 . S
Fe199 O200 1.918 . S
Fe199 O207 1.997 . S
Fe199 O210 1.996 . S
Fe199 O214 1.976 . S
Fe199 O217 2.002 . S
O200 Fe198 1.918 . S
O200 Fe199 1.918 . S
O200 Fe201 1.918 . S
Fe201 O200 1.918 . S
Fe201 O202 2.002 . S
Fe201 O211 1.976 . S
Fe201 O215 1.996 . S
Fe201 O218 1.997 . S
O202 Fe201 2.002 . S
O202 C219 1.295 . S
O203 Fe198 1.997 . S
O203 C219 1.235 . S
O204 Fe198 2.002 . S
O204 C205 1.295 . S
C205 O204 1.295 . S
C205 O207 1.235 . S
C206 O211 1.287 . S
C206 O212 1.255 . S
O207 Fe199 1.997 . S
O207 C205 1.235 . S
C208 O214 1.287 . S
C208 O215 1.255 . S
O209 Fe198 1.976 . S
O209 C216 1.287 . S
O210 Fe199 1.996 . S
O210 C216 1.255 . S
O211 Fe201 1.976 . S
O211 C206 1.287 . S
O212 Fe198 1.996 . S
O212 C206 1.255 . S
C213 O217 1.295 . S
C213 O218 1.235 . S
O214 Fe199 1.976 . S
O214 C208 1.287 . S
O215 Fe201 1.996 . S
O215 C208 1.255 . S
C216 O209 1.287 . S
C216 O210 1.255 . S
O217 Fe199 2.002 . S
O217 C213 1.295 . S
O218 Fe201 1.997 . S
O218 C213 1.235 . S
C219 O202 1.295 . S
C219 O203 1.235 . S
Fe220 O222 1.918 . S
Fe220 O225 1.997 . S
Fe220 O226 2.002 . S
Fe220 O231 1.976 . S
Fe220 O234 1.996 . S
Fe221 O222 1.918 . S
Fe221 O229 1.997 . S
Fe221 O232 1.996 . S
Fe221 O236 1.976 . S
Fe221 O239 2.002 . S
O222 Fe220 1.918 . S
O222 Fe221 1.918 . S
O222 Fe223 1.918 . S
Fe223 O222 1.918 . S
Fe223 O224 2.002 . S
Fe223 O233 1.976 . S
Fe223 O237 1.996 . S
Fe223 O240 1.997 . S
O224 Fe223 2.002 . S
O224 C241 1.295 . S
O225 Fe220 1.997 . S
O225 C241 1.235 . S
O226 Fe220 2.002 . S
O226 C227 1.295 . S
C227 O226 1.295 . S
C227 O229 1.235 . S
C228 O233 1.287 . S
C228 O234 1.255 . S
O229 Fe221 1.997 . S
O229 C227 1.235 . S
C230 O236 1.287 . S
C230 O237 1.255 . S
O231 Fe220 1.976 . S
O231 C238 1.287 . S
O232 Fe221 1.996 . S
O232 C238 1.255 . S
O233 Fe223 1.976 . S
O233 C228 1.287 . S
O234 Fe220 1.996 . S
O234 C228 1.255 . S
C235 O239 1.295 . S
C235 O240 1.235 . S
O236 Fe221 1.976 . S
O236 C230 1.287 . S
O237 Fe223 1.996 . S
O237 C230 1.255 . S
C238 O231 1.287 . S
C238 O232 1.255 . S
O239 Fe221 2.002 . S
O239 C235 1.295 . S
O240 Fe223 1.997 . S
O240 C235 1.235 . S
C241 O224 1.295 . S
C241 O225 1.235 . S
Fe242 O244 1.918 . S
Fe242 O247 1.997 . S
Fe242 O248 2.002 . S
Fe242 O253 1.976 . S
Fe242 O256 1.996 . S
Fe243 O244 1.918 . S
Fe243 O251 1.997 . S
Fe243 O254 1.996 . S
Fe243 O258 1.976 . S
Fe243 O261 2.002 . S
O244 Fe242 1.918 . S
O244 Fe243 1.918 . S
O244 Fe245 1.918 . S
Fe245 O244 1.918 . S
Fe245 O246 2.002 . S
Fe245 O255 1.976 . S
Fe245 O259 1.996 . S
Fe245 O262 1.997 . S
O246 Fe245 2.002 . S
O246 C263 1.295 . S
O247 Fe242 1.997 . S
O247 C263 1.235 . S
O248 Fe242 2.002 . S
O248 C249 1.295 . S
C249 O248 1.295 . S
C249 O251 1.235 . S
C250 O255 1.287 . S
C250 O256 1.255 . S
O251 Fe243 1.997 . S
O251 C249 1.235 . S
C252 O258 1.287 . S
C252 O259 1.255 . S
O253 Fe242 1.976 . S
O253 C260 1.287 . S
O254 Fe243 1.996 . S
O254 C260 1.255 . S
O255 Fe245 1.976 . S
O255 C250 1.287 . S
O256 Fe242 1.996 . S
O256 C250 1.255 . S
C257 O261 1.295 . S
C257 O262 1.235 . S
O258 Fe243 1.976 . S
O258 C252 1.287 . S
O259 Fe245 1.996 . S
O259 C252 1.255 . S
C260 O253 1.287 . S
C260 O254 1.255 . S
O261 Fe243 2.002 . S
O261 C257 1.295 . S
O262 Fe245 1.997 . S
O262 C257 1.235 . S
C263 O246 1.295 . S
C263 O247 1.235 . S
H264 C272 0.950 . S
H265 C277 0.950 . S
H266 C274 0.950 . S
H267 C276 0.950 . S
H268 C278 0.950 . S
H269 C280 0.950 . S
H270 C282 0.950 . S
H271 C283 0.950 . S
C272 H264 0.950 . S
C272 C273 1.386 . S
C272 C274 1.391 . S
C273 C272 1.386 . S
C273 C277 1.393 . S
C274 H266 0.950 . S
C274 C272 1.391 . S
C274 C275 1.400 . S
C275 C274 1.400 . S
C275 C276 1.398 . S
C275 C281 1.491 . S
C276 H267 0.950 . S
C276 C275 1.398 . S
C276 C277 1.391 . S
C277 H265 0.950 . S
C277 C273 1.393 . S
C277 C276 1.391 . S
C278 H268 0.950 . S
C278 C279 1.386 . S
C278 C280 1.391 . S
C279 C278 1.386 . S
C279 C283 1.393 . S
C280 H269 0.950 . S
C280 C278 1.391 . S
C280 C281 1.400 . S
C281 C275 1.491 . S
C281 C280 1.400 . S
C281 C282 1.398 . S
C282 H270 0.950 . S
C282 C281 1.398 . S
C282 C283 1.391 . S
C283 H271 0.950 . S
C283 C279 1.393 . S
C283 C282 1.391 . S
H284 C292 0.950 . S
H285 C297 0.950 . S
H286 C294 0.950 . S
H287 C296 0.950 . S
H288 C298 0.950 . S
H289 C300 0.950 . S
H290 C302 0.950 . S
H291 C303 0.950 . S
C292 H284 0.950 . S
C292 C293 1.386 . S
C292 C294 1.391 . S
C293 C292 1.386 . S
C293 C297 1.393 . S
C294 H286 0.950 . S
C294 C292 1.391 . S
C294 C295 1.400 . S
C295 C294 1.400 . S
C295 C296 1.398 . S
C295 C301 1.491 . S
C296 H287 0.950 . S
C296 C295 1.398 . S
C296 C297 1.391 . S
C297 H285 0.950 . S
C297 C293 1.393 . S
C297 C296 1.391 . S
C298 H288 0.950 . S
C298 C299 1.386 . S
C298 C300 1.391 . S
C299 C298 1.386 . S
C299 C303 1.393 . S
C300 H289 0.950 . S
C300 C298 1.391 . S
C300 C301 1.400 . S
C301 C295 1.491 . S
C301 C300 1.400 . S
C301 C302 1.398 . S
C302 H290 0.950 . S
C302 C301 1.398 . S
C302 C303 1.391 . S
C303 H291 0.950 . S
C303 C299 1.393 . S
C303 C302 1.391 . S
H304 C312 0.950 . S
H305 C317 0.950 . S
H306 C314 0.950 . S
H307 C316 0.950 . S
H308 C318 0.950 . S
H309 C320 0.950 . S
H310 C322 0.950 . S
H311 C323 0.950 . S
C312 H304 0.950 . S
C312 C313 1.386 . S
C312 C314 1.391 . S
C313 C312 1.386 . S
C313 C317 1.393 . S
C314 H306 0.950 . S
C314 C312 1.391 . S
C314 C315 1.400 . S
C315 C314 1.400 . S
C315 C316 1.398 . S
C315 C321 1.491 . S
C316 H307 0.950 . S
C316 C315 1.398 . S
C316 C317 1.391 . S
C317 H305 0.950 . S
C317 C313 1.393 . S
C317 C316 1.391 . S
C318 H308 0.950 . S
C318 C319 1.386 . S
C318 C320 1.391 . S
C319 C318 1.386 . S
C319 C323 1.393 . S
C320 H309 0.950 . S
C320 C318 1.391 . S
C320 C321 1.400 . S
C321 C315 1.491 . S
C321 C320 1.400 . S
C321 C322 1.398 . S
C322 H310 0.950 . S
C322 C321 1.398 . S
C322 C323 1.391 . S
C323 H311 0.950 . S
C323 C319 1.393 . S
C323 C322 1.391 . S
H324 C332 0.950 . S
H325 C337 0.950 . S
H326 C334 0.950 . S
H327 C336 0.950 . S
H328 C338 0.950 . S
H329 C340 0.950 . S
H330 C342 0.950 . S
H331 C343 0.950 . S
C332 H324 0.950 . S
C332 C333 1.386 . S
C332 C334 1.391 . S
C333 C332 1.386 . S
C333 C337 1.393 . S
C334 H326 0.950 . S
C334 C332 1.391 . S
C334 C335 1.400 . S
C335 C334 1.400 . S
C335 C336 1.398 . S
C335 C341 1.491 . S
C336 H327 0.950 . S
C336 C335 1.398 . S
C336 C337 1.391 . S
C337 H325 0.950 . S
C337 C333 1.393 . S
C337 C336 1.391 . S
C338 H328 0.950 . S
C338 C339 1.386 . S
C338 C340 1.391 . S
C339 C338 1.386 . S
C339 C343 1.393 . S
C340 H329 0.950 . S
C340 C338 1.391 . S
C340 C341 1.400 . S
C341 C335 1.491 . S
C341 C340 1.400 . S
C341 C342 1.398 . S
C342 H330 0.950 . S
C342 C341 1.398 . S
C342 C343 1.391 . S
C343 H331 0.950 . S
C343 C339 1.393 . S
C343 C342 1.391 . S
H344 C352 0.950 . S
H345 C357 0.950 . S
H346 C354 0.950 . S
H347 C356 0.950 . S
H348 C358 0.950 . S
H349 C360 0.950 . S
H350 C362 0.950 . S
H351 C363 0.950 . S
C352 H344 0.950 . S
C352 C353 1.386 . S
C352 C354 1.391 . S
C353 C352 1.386 . S
C353 C357 1.393 . S
C354 H346 0.950 . S
C354 C352 1.391 . S
C354 C355 1.400 . S
C355 C354 1.400 . S
C355 C356 1.398 . S
C355 C361 1.491 . S
C356 H347 0.950 . S
C356 C355 1.398 . S
C356 C357 1.391 . S
C357 H345 0.950 . S
C357 C353 1.393 . S
C357 C356 1.391 . S
C358 H348 0.950 . S
C358 C359 1.386 . S
C358 C360 1.391 . S
C359 C358 1.386 . S
C359 C363 1.393 . S
C360 H349 0.950 . S
C360 C358 1.391 . S
C360 C361 1.400 . S
C361 C355 1.491 . S
C361 C360 1.400 . S
C361 C362 1.398 . S
C362 H350 0.950 . S
C362 C361 1.398 . S
C362 C363 1.391 . S
C363 H351 0.950 . S
C363 C359 1.393 . S
C363 C362 1.391 . S
H364 C372 0.950 . S
H365 C377 0.950 . S
H366 C374 0.950 . S
H367 C376 0.950 . S
H368 C378 0.950 . S
H369 C380 0.950 . S
H370 C382 0.950 . S
H371 C383 0.950 . S
C372 H364 0.950 . S
C372 C373 1.386 . S
C372 C374 1.391 . S
C373 C372 1.386 . S
C373 C377 1.393 . S
C374 H366 0.950 . S
C374 C372 1.391 . S
C374 C375 1.400 . S
C375 C374 1.400 . S
C375 C376 1.398 . S
C375 C381 1.491 . S
C376 H367 0.950 . S
C376 C375 1.398 . S
C376 C377 1.391 . S
C377 H365 0.950 . S
C377 C373 1.393 . S
C377 C376 1.391 . S
C378 H368 0.950 . S
C378 C379 1.386 . S
C378 C380 1.391 . S
C379 C378 1.386 . S
C379 C383 1.393 . S
C380 H369 0.950 . S
C380 C378 1.391 . S
C380 C381 1.400 . S
C381 C375 1.491 . S
C381 C380 1.400 . S
C381 C382 1.398 . S
C382 H370 0.950 . S
C382 C381 1.398 . S
C382 C383 1.391 . S
C383 H371 0.950 . S
C383 C379 1.393 . S
C383 C382 1.391 . S
H384 C392 0.950 . S
H385 C397 0.950 . S
H386 C394 0.950 . S
H387 C396 0.950 . S
H388 C398 0.950 . S
H389 C400 0.950 . S
H390 C402 0.950 . S
H391 C403 0.950 . S
C392 H384 0.950 . S
C392 C393 1.386 . S
C392 C394 1.391 . S
C393 C392 1.386 . S
C393 C397 1.393 . S
C394 H386 0.950 . S
C394 C392 1.391 . S
C394 C395 1.400 . S
C395 C394 1.400 . S
C395 C396 1.398 . S
C395 C401 1.491 . S
C396 H387 0.950 . S
C396 C395 1.398 . S
C396 C397 1.391 . S
C397 H385 0.950 . S
C397 C393 1.393 . S
C397 C396 1.391 . S
C398 H388 0.950 . S
C398 C399 1.386 . S
C398 C400 1.391 . S
C399 C398 1.386 . S
C399 C403 1.393 . S
C400 H389 0.950 . S
C400 C398 1.391 . S
C400 C401 1.400 . S
C401 C395 1.491 . S
C401 C400 1.400 . S
C401 C402 1.398 . S
C402 H390 0.950 . S
C402 C401 1.398 . S
C402 C403 1.391 . S
C403 H391 0.950 . S
C403 C399 1.393 . S
C403 C402 1.391 . S
H404 C412 0.950 . S
H405 C417 0.950 . S
H406 C414 0.950 . S
H407 C416 0.950 . S
H408 C418 0.950 . S
H409 C420 0.950 . S
H410 C422 0.950 . S
H411 C423 0.950 . S
C412 H404 0.950 . S
C412 C413 1.386 . S
C412 C414 1.391 . S
C413 C412 1.386 . S
C413 C417 1.393 . S
C414 H406 0.950 . S
C414 C412 1.391 . S
C414 C415 1.400 . S
C415 C414 1.400 . S
C415 C416 1.398 . S
C415 C421 1.491 . S
C416 H407 0.950 . S
C416 C415 1.398 . S
C416 C417 1.391 . S
C417 H405 0.950 . S
C417 C413 1.393 . S
C417 C416 1.391 . S
C418 H408 0.950 . S
C418 C419 1.386 . S
C418 C420 1.391 . S
C419 C418 1.386 . S
C419 C423 1.393 . S
C420 H409 0.950 . S
C420 C418 1.391 . S
C420 C421 1.400 . S
C421 C415 1.491 . S
C421 C420 1.400 . S
C421 C422 1.398 . S
C422 H410 0.950 . S
C422 C421 1.398 . S
C422 C423 1.391 . S
C423 H411 0.950 . S
C423 C419 1.393 . S
C423 C422 1.391 . S
H424 C432 0.950 . S
H425 C437 0.950 . S
H426 C434 0.950 . S
H427 C436 0.950 . S
H428 C438 0.950 . S
H429 C440 0.950 . S
H430 C442 0.950 . S
H431 C443 0.950 . S
C432 H424 0.950 . S
C432 C433 1.386 . S
C432 C434 1.391 . S
C433 C432 1.386 . S
C433 C437 1.393 . S
C434 H426 0.950 . S
C434 C432 1.391 . S
C434 C435 1.400 . S
C435 C434 1.400 . S
C435 C436 1.398 . S
C435 C441 1.491 . S
C436 H427 0.950 . S
C436 C435 1.398 . S
C436 C437 1.391 . S
C437 H425 0.950 . S
C437 C433 1.393 . S
C437 C436 1.391 . S
C438 H428 0.950 . S
C438 C439 1.386 . S
C438 C440 1.391 . S
C439 C438 1.386 . S
C439 C443 1.393 . S
C440 H429 0.950 . S
C440 C438 1.391 . S
C440 C441 1.400 . S
C441 C435 1.491 . S
C441 C440 1.400 . S
C441 C442 1.398 . S
C442 H430 0.950 . S
C442 C441 1.398 . S
C442 C443 1.391 . S
C443 H431 0.950 . S
C443 C439 1.393 . S
C443 C442 1.391 . S
H444 C452 0.950 . S
H445 C457 0.950 . S
H446 C454 0.950 . S
H447 C456 0.950 . S
H448 C458 0.950 . S
H449 C460 0.950 . S
H450 C462 0.950 . S
H451 C463 0.950 . S
C452 H444 0.950 . S
C452 C453 1.386 . S
C452 C454 1.391 . S
C453 C452 1.386 . S
C453 C457 1.393 . S
C454 H446 0.950 . S
C454 C452 1.391 . S
C454 C455 1.400 . S
C455 C454 1.400 . S
C455 C456 1.398 . S
C455 C461 1.491 . S
C456 H447 0.950 . S
C456 C455 1.398 . S
C456 C457 1.391 . S
C457 H445 0.950 . S
C457 C453 1.393 . S
C457 C456 1.391 . S
C458 H448 0.950 . S
C458 C459 1.386 . S
C458 C460 1.391 . S
C459 C458 1.386 . S
C459 C463 1.393 . S
C460 H449 0.950 . S
C460 C458 1.391 . S
C460 C461 1.400 . S
C461 C455 1.491 . S
C461 C460 1.400 . S
C461 C462 1.398 . S
C462 H450 0.950 . S
C462 C461 1.398 . S
C462 C463 1.391 . S
C463 H451 0.950 . S
C463 C459 1.393 . S
C463 C462 1.391 . S
H464 C472 0.950 . S
H465 C477 0.950 . S
H466 C474 0.950 . S
H467 C476 0.950 . S
H468 C478 0.950 . S
H469 C480 0.950 . S
H470 C482 0.950 . S
H471 C483 0.950 . S
C472 H464 0.950 . S
C472 C473 1.386 . S
C472 C474 1.391 . S
C473 C472 1.386 . S
C473 C477 1.393 . S
C474 H466 0.950 . S
C474 C472 1.391 . S
C474 C475 1.400 . S
C475 C474 1.400 . S
C475 C476 1.398 . S
C475 C481 1.491 . S
C476 H467 0.950 . S
C476 C475 1.398 . S
C476 C477 1.391 . S
C477 H465 0.950 . S
C477 C473 1.393 . S
C477 C476 1.391 . S
C478 H468 0.950 . S
C478 C479 1.386 . S
C478 C480 1.391 . S
C479 C478 1.386 . S
C479 C483 1.393 . S
C480 H469 0.950 . S
C480 C478 1.391 . S
C480 C481 1.400 . S
C481 C475 1.491 . S
C481 C480 1.400 . S
C481 C482 1.398 . S
C482 H470 0.950 . S
C482 C481 1.398 . S
C482 C483 1.391 . S
C483 H471 0.950 . S
C483 C479 1.393 . S
C483 C482 1.391 . S
H484 C492 0.950 . S
H485 C497 0.950 . S
H486 C494 0.950 . S
H487 C496 0.950 . S
H488 C498 0.950 . S
H489 C500 0.950 . S
H490 C502 0.950 . S
H491 C503 0.950 . S
C492 H484 0.950 . S
C492 C493 1.386 . S
C492 C494 1.391 . S
C493 C492 1.386 . S
C493 C497 1.393 . S
C494 H486 0.950 . S
C494 C492 1.391 . S
C494 C495 1.400 . S
C495 C494 1.400 . S
C495 C496 1.398 . S
C495 C501 1.491 . S
C496 H487 0.950 . S
C496 C495 1.398 . S
C496 C497 1.391 . S
C497 H485 0.950 . S
C497 C493 1.393 . S
C497 C496 1.391 . S
C498 H488 0.950 . S
C498 C499 1.386 . S
C498 C500 1.391 . S
C499 C498 1.386 . S
C499 C503 1.393 . S
C500 H489 0.950 . S
C500 C498 1.391 . S
C500 C501 1.400 . S
C501 C495 1.491 . S
C501 C500 1.400 . S
C501 C502 1.398 . S
C502 H490 0.950 . S
C502 C501 1.398 . S
C502 C503 1.391 . S
C503 H491 0.950 . S
C503 C499 1.393 . S
C503 C502 1.391 . S
H504 C512 0.950 . S
H505 C517 0.950 . S
H506 C514 0.950 . S
H507 C516 0.950 . S
H508 C518 0.950 . S
H509 C520 0.950 . S
H510 C522 0.950 . S
H511 C523 0.950 . S
C512 H504 0.950 . S
C512 C513 1.386 . S
C512 C514 1.391 . S
C513 C512 1.386 . S
C513 C517 1.393 . S
C514 H506 0.950 . S
C514 C512 1.391 . S
C514 C515 1.400 . S
C515 C514 1.400 . S
C515 C516 1.398 . S
C515 C521 1.491 . S
C516 H507 0.950 . S
C516 C515 1.398 . S
C516 C517 1.391 . S
C517 H505 0.950 . S
C517 C513 1.393 . S
C517 C516 1.391 . S
C518 H508 0.950 . S
C518 C519 1.386 . S
C518 C520 1.391 . S
C519 C518 1.386 . S
C519 C523 1.393 . S
C520 H509 0.950 . S
C520 C518 1.391 . S
C520 C521 1.400 . S
C521 C515 1.491 . S
C521 C520 1.400 . S
C521 C522 1.398 . S
C522 H510 0.950 . S
C522 C521 1.398 . S
C522 C523 1.391 . S
C523 H511 0.950 . S
C523 C519 1.393 . S
C523 C522 1.391 . S
H524 C532 0.950 . S
H525 C537 0.950 . S
H526 C534 0.950 . S
H527 C536 0.950 . S
H528 C538 0.950 . S
H529 C540 0.950 . S
H530 C542 0.950 . S
H531 C543 0.950 . S
C532 H524 0.950 . S
C532 C533 1.386 . S
C532 C534 1.391 . S
C533 C532 1.386 . S
C533 C537 1.393 . S
C534 H526 0.950 . S
C534 C532 1.391 . S
C534 C535 1.400 . S
C535 C534 1.400 . S
C535 C536 1.398 . S
C535 C541 1.491 . S
C536 H527 0.950 . S
C536 C535 1.398 . S
C536 C537 1.391 . S
C537 H525 0.950 . S
C537 C533 1.393 . S
C537 C536 1.391 . S
C538 H528 0.950 . S
C538 C539 1.386 . S
C538 C540 1.391 . S
C539 C538 1.386 . S
C539 C543 1.393 . S
C540 H529 0.950 . S
C540 C538 1.391 . S
C540 C541 1.400 . S
C541 C535 1.491 . S
C541 C540 1.400 . S
C541 C542 1.398 . S
C542 H530 0.950 . S
C542 C541 1.398 . S
C542 C543 1.391 . S
C543 H531 0.950 . S
C543 C539 1.393 . S
C543 C542 1.391 . S
H544 C552 0.950 . S
H545 C557 0.950 . S
H546 C554 0.950 . S
H547 C556 0.950 . S
H548 C558 0.950 . S
H549 C560 0.950 . S
H550 C562 0.950 . S
H551 C563 0.950 . S
C552 H544 0.950 . S
C552 C553 1.386 . S
C552 C554 1.391 . S
C553 C552 1.386 . S
C553 C557 1.393 . S
C554 H546 0.950 . S
C554 C552 1.391 . S
C554 C555 1.400 . S
C555 C554 1.400 . S
C555 C556 1.398 . S
C555 C561 1.491 . S
C556 H547 0.950 . S
C556 C555 1.398 . S
C556 C557 1.391 . S
C557 H545 0.950 . S
C557 C553 1.393 . S
C557 C556 1.391 . S
C558 H548 0.950 . S
C558 C559 1.386 . S
C558 C560 1.391 . S
C559 C558 1.386 . S
C559 C563 1.393 . S
C560 H549 0.950 . S
C560 C558 1.391 . S
C560 C561 1.400 . S
C561 C555 1.491 . S
C561 C560 1.400 . S
C561 C562 1.398 . S
C562 H550 0.950 . S
C562 C561 1.398 . S
C562 C563 1.391 . S
C563 H551 0.950 . S
C563 C559 1.393 . S
C563 C562 1.391 . S
H564 C572 0.950 . S
H565 C577 0.950 . S
H566 C574 0.950 . S
H567 C576 0.950 . S
H568 C578 0.950 . S
H569 C580 0.950 . S
H570 C582 0.950 . S
H571 C583 0.950 . S
C572 H564 0.950 . S
C572 C573 1.386 . S
C572 C574 1.391 . S
C573 C572 1.386 . S
C573 C577 1.393 . S
C574 H566 0.950 . S
C574 C572 1.391 . S
C574 C575 1.400 . S
C575 C574 1.400 . S
C575 C576 1.398 . S
C575 C581 1.491 . S
C576 H567 0.950 . S
C576 C575 1.398 . S
C576 C577 1.391 . S
C577 H565 0.950 . S
C577 C573 1.393 . S
C577 C576 1.391 . S
C578 H568 0.950 . S
C578 C579 1.386 . S
C578 C580 1.391 . S
C579 C578 1.386 . S
C579 C583 1.393 . S
C580 H569 0.950 . S
C580 C578 1.391 . S
C580 C581 1.400 . S
C581 C575 1.491 . S
C581 C580 1.400 . S
C581 C582 1.398 . S
C582 H570 0.950 . S
C582 C581 1.398 . S
C582 C583 1.391 . S
C583 H571 0.950 . S
C583 C579 1.393 . S
C583 C582 1.391 . S
H584 C592 0.950 . S
H585 C597 0.950 . S
H586 C594 0.950 . S
H587 C596 0.950 . S
H588 C598 0.950 . S
H589 C600 0.950 . S
H590 C602 0.950 . S
H591 C603 0.950 . S
C592 H584 0.950 . S
C592 C593 1.386 . S
C592 C594 1.391 . S
C593 C592 1.386 . S
C593 C597 1.393 . S
C594 H586 0.950 . S
C594 C592 1.391 . S
C594 C595 1.400 . S
C595 C594 1.400 . S
C595 C596 1.398 . S
C595 C601 1.491 . S
C596 H587 0.950 . S
C596 C595 1.398 . S
C596 C597 1.391 . S
C597 H585 0.950 . S
C597 C593 1.393 . S
C597 C596 1.391 . S
C598 H588 0.950 . S
C598 C599 1.386 . S
C598 C600 1.391 . S
C599 C598 1.386 . S
C599 C603 1.393 . S
C600 H589 0.950 . S
C600 C598 1.391 . S
C600 C601 1.400 . S
C601 C595 1.491 . S
C601 C600 1.400 . S
C601 C602 1.398 . S
C602 H590 0.950 . S
C602 C601 1.398 . S
C602 C603 1.391 . S
C603 H591 0.950 . S
C603 C599 1.393 . S
C603 C602 1.391 . S
H604 C612 0.950 . S
H605 C617 0.950 . S
H606 C614 0.950 . S
H607 C616 0.950 . S
H608 C618 0.950 . S
H609 C620 0.950 . S
H610 C622 0.950 . S
H611 C623 0.950 . S
C612 H604 0.950 . S
C612 C613 1.386 . S
C612 C614 1.391 . S
C613 C612 1.386 . S
C613 C617 1.393 . S
C614 H606 0.950 . S
C614 C612 1.391 . S
C614 C615 1.400 . S
C615 C614 1.400 . S
C615 C616 1.398 . S
C615 C621 1.491 . S
C616 H607 0.950 . S
C616 C615 1.398 . S
C616 C617 1.391 . S
C617 H605 0.950 . S
C617 C613 1.393 . S
C617 C616 1.391 . S
C618 H608 0.950 . S
C618 C619 1.386 . S
C618 C620 1.391 . S
C619 C618 1.386 . S
C619 C623 1.393 . S
C620 H609 0.950 . S
C620 C618 1.391 . S
C620 C621 1.400 . S
C621 C615 1.491 . S
C621 C620 1.400 . S
C621 C622 1.398 . S
C622 H610 0.950 . S
C622 C621 1.398 . S
C622 C623 1.391 . S
C623 H611 0.950 . S
C623 C619 1.393 . S
C623 C622 1.391 . S
H624 C632 0.950 . S
H625 C637 0.950 . S
H626 C634 0.950 . S
H627 C636 0.950 . S
H628 C638 0.950 . S
H629 C640 0.950 . S
H630 C642 0.950 . S
H631 C643 0.950 . S
C632 H624 0.950 . S
C632 C633 1.386 . S
C632 C634 1.391 . S
C633 C632 1.386 . S
C633 C637 1.393 . S
C634 H626 0.950 . S
C634 C632 1.391 . S
C634 C635 1.400 . S
C635 C634 1.400 . S
C635 C636 1.398 . S
C635 C641 1.491 . S
C636 H627 0.950 . S
C636 C635 1.398 . S
C636 C637 1.391 . S
C637 H625 0.950 . S
C637 C633 1.393 . S
C637 C636 1.391 . S
C638 H628 0.950 . S
C638 C639 1.386 . S
C638 C640 1.391 . S
C639 C638 1.386 . S
C639 C643 1.393 . S
C640 H629 0.950 . S
C640 C638 1.391 . S
C640 C641 1.400 . S
C641 C635 1.491 . S
C641 C640 1.400 . S
C641 C642 1.398 . S
C642 H630 0.950 . S
C642 C641 1.398 . S
C642 C643 1.391 . S
C643 H631 0.950 . S
C643 C639 1.393 . S
C643 C642 1.391 . S
H644 C652 0.950 . S
H645 C657 0.950 . S
H646 C654 0.950 . S
H647 C656 0.950 . S
H648 C658 0.950 . S
H649 C660 0.950 . S
H650 C662 0.950 . S
H651 C663 0.950 . S
C652 H644 0.950 . S
C652 C653 1.386 . S
C652 C654 1.391 . S
C653 C652 1.386 . S
C653 C657 1.393 . S
C654 H646 0.950 . S
C654 C652 1.391 . S
C654 C655 1.400 . S
C655 C654 1.400 . S
C655 C656 1.398 . S
C655 C661 1.491 . S
C656 H647 0.950 . S
C656 C655 1.398 . S
C656 C657 1.391 . S
C657 H645 0.950 . S
C657 C653 1.393 . S
C657 C656 1.391 . S
C658 H648 0.950 . S
C658 C659 1.386 . S
C658 C660 1.391 . S
C659 C658 1.386 . S
C659 C663 1.393 . S
C660 H649 0.950 . S
C660 C658 1.391 . S
C660 C661 1.400 . S
C661 C655 1.491 . S
C661 C660 1.400 . S
C661 C662 1.398 . S
C662 H650 0.950 . S
C662 C661 1.398 . S
C662 C663 1.391 . S
C663 H651 0.950 . S
C663 C659 1.393 . S
C663 C662 1.391 . S
H664 C672 0.950 . S
H665 C677 0.950 . S
H666 C674 0.950 . S
H667 C676 0.950 . S
H668 C678 0.950 . S
H669 C680 0.950 . S
H670 C682 0.950 . S
H671 C683 0.950 . S
C672 H664 0.950 . S
C672 C673 1.386 . S
C672 C674 1.391 . S
C673 C672 1.386 . S
C673 C677 1.393 . S
C674 H666 0.950 . S
C674 C672 1.391 . S
C674 C675 1.400 . S
C675 C674 1.400 . S
C675 C676 1.398 . S
C675 C681 1.491 . S
C676 H667 0.950 . S
C676 C675 1.398 . S
C676 C677 1.391 . S
C677 H665 0.950 . S
C677 C673 1.393 . S
C677 C676 1.391 . S
C678 H668 0.950 . S
C678 C679 1.386 . S
C678 C680 1.391 . S
C679 C678 1.386 . S
C679 C683 1.393 . S
C680 H669 0.950 . S
C680 C678 1.391 . S
C680 C681 1.400 . S
C681 C675 1.491 . S
C681 C680 1.400 . S
C681 C682 1.398 . S
C682 H670 0.950 . S
C682 C681 1.398 . S
C682 C683 1.391 . S
C683 H671 0.950 . S
C683 C679 1.393 . S
C683 C682 1.391 . S
H684 C692 0.950 . S
H685 C697 0.950 . S
H686 C694 0.950 . S
H687 C696 0.950 . S
H688 C698 0.950 . S
H689 C700 0.950 . S
H690 C702 0.950 . S
H691 C703 0.950 . S
C692 H684 0.950 . S
C692 C693 1.386 . S
C692 C694 1.391 . S
C693 C692 1.386 . S
C693 C697 1.393 . S
C694 H686 0.950 . S
C694 C692 1.391 . S
C694 C695 1.400 . S
C695 C694 1.400 . S
C695 C696 1.398 . S
C695 C701 1.491 . S
C696 H687 0.950 . S
C696 C695 1.398 . S
C696 C697 1.391 . S
C697 H685 0.950 . S
C697 C693 1.393 . S
C697 C696 1.391 . S
C698 H688 0.950 . S
C698 C699 1.386 . S
C698 C700 1.391 . S
C699 C698 1.386 . S
C699 C703 1.393 . S
C700 H689 0.950 . S
C700 C698 1.391 . S
C700 C701 1.400 . S
C701 C695 1.491 . S
C701 C700 1.400 . S
C701 C702 1.398 . S
C702 H690 0.950 . S
C702 C701 1.398 . S
C702 C703 1.391 . S
C703 H691 0.950 . S
C703 C699 1.393 . S
C703 C702 1.391 . S
H704 C712 0.950 . S
H705 C717 0.950 . S
H706 C714 0.950 . S
H707 C716 0.950 . S
H708 C718 0.950 . S
H709 C720 0.950 . S
H710 C722 0.950 . S
H711 C723 0.950 . S
C712 H704 0.950 . S
C712 C713 1.386 . S
C712 C714 1.391 . S
C713 C712 1.386 . S
C713 C717 1.393 . S
C714 H706 0.950 . S
C714 C712 1.391 . S
C714 C715 1.400 . S
C715 C714 1.400 . S
C715 C716 1.398 . S
C715 C721 1.491 . S
C716 H707 0.950 . S
C716 C715 1.398 . S
C716 C717 1.391 . S
C717 H705 0.950 . S
C717 C713 1.393 . S
C717 C716 1.391 . S
C718 H708 0.950 . S
C718 C719 1.386 . S
C718 C720 1.391 . S
C719 C718 1.386 . S
C719 C723 1.393 . S
C720 H709 0.950 . S
C720 C718 1.391 . S
C720 C721 1.400 . S
C721 C715 1.491 . S
C721 C720 1.400 . S
C721 C722 1.398 . S
C722 H710 0.950 . S
C722 C721 1.398 . S
C722 C723 1.391 . S
C723 H711 0.950 . S
C723 C719 1.393 . S
C723 C722 1.391 . S
H724 C732 0.950 . S
H725 C737 0.950 . S
H726 C734 0.950 . S
H727 C736 0.950 . S
H728 C738 0.950 . S
H729 C740 0.950 . S
H730 C742 0.950 . S
H731 C743 0.950 . S
C732 H724 0.950 . S
C732 C733 1.386 . S
C732 C734 1.391 . S
C733 C732 1.386 . S
C733 C737 1.393 . S
C734 H726 0.950 . S
C734 C732 1.391 . S
C734 C735 1.400 . S
C735 C734 1.400 . S
C735 C736 1.398 . S
C735 C741 1.491 . S
C736 H727 0.950 . S
C736 C735 1.398 . S
C736 C737 1.391 . S
C737 H725 0.950 . S
C737 C733 1.393 . S
C737 C736 1.391 . S
C738 H728 0.950 . S
C738 C739 1.386 . S
C738 C740 1.391 . S
C739 C738 1.386 . S
C739 C743 1.393 . S
C740 H729 0.950 . S
C740 C738 1.391 . S
C740 C741 1.400 . S
C741 C735 1.491 . S
C741 C740 1.400 . S
C741 C742 1.398 . S
C742 H730 0.950 . S
C742 C741 1.398 . S
C742 C743 1.391 . S
C743 H731 0.950 . S
C743 C739 1.393 . S
C743 C742 1.391 . S
H744 C752 0.950 . S
H745 C757 0.950 . S
H746 C754 0.950 . S
H747 C756 0.950 . S
H748 C758 0.950 . S
H749 C760 0.950 . S
H750 C762 0.950 . S
H751 C763 0.950 . S
C752 H744 0.950 . S
C752 C753 1.386 . S
C752 C754 1.391 . S
C753 C752 1.386 . S
C753 C757 1.393 . S
C754 H746 0.950 . S
C754 C752 1.391 . S
C754 C755 1.400 . S
C755 C754 1.400 . S
C755 C756 1.398 . S
C755 C761 1.491 1_565 S
C756 H747 0.950 . S
C756 C755 1.398 . S
C756 C757 1.391 . S
C757 H745 0.950 . S
C757 C753 1.393 . S
C757 C756 1.391 . S
C758 H748 0.950 . S
C758 C759 1.386 . S
C758 C760 1.391 . S
C759 C758 1.386 . S
C759 C763 1.393 . S
C760 H749 0.950 . S
C760 C758 1.391 . S
C760 C761 1.400 . S
C761 C755 1.491 1_545 S
C761 C760 1.400 . S
C761 C762 1.398 . S
C762 H750 0.950 . S
C762 C761 1.398 . S
C762 C763 1.391 . S
C763 H751 0.950 . S
C763 C759 1.393 . S
C763 C762 1.391 . S
H764 C772 0.950 . S
H765 C777 0.950 . S
H766 C774 0.950 . S
H767 C776 0.950 . S
H768 C778 0.950 . S
H769 C780 0.950 . S
H770 C782 0.950 . S
H771 C783 0.950 . S
C772 H764 0.950 . S
C772 C773 1.386 . S
C772 C774 1.391 . S
C773 C772 1.386 . S
C773 C777 1.393 . S
C774 H766 0.950 . S
C774 C772 1.391 . S
C774 C775 1.400 . S
C775 C774 1.400 . S
C775 C776 1.398 . S
C775 C781 1.491 1_455 S
C776 H767 0.950 . S
C776 C775 1.398 . S
C776 C777 1.391 . S
C777 H765 0.950 . S
C777 C773 1.393 . S
C777 C776 1.391 . S
C778 H768 0.950 . S
C778 C779 1.386 . S
C778 C780 1.391 . S
C779 C778 1.386 . S
C779 C783 1.393 . S
C780 H769 0.950 . S
C780 C778 1.391 . S
C780 C781 1.400 . S
C781 C775 1.491 1_655 S
C781 C780 1.400 . S
C781 C782 1.398 . S
C782 H770 0.950 . S
C782 C781 1.398 . S
C782 C783 1.391 . S
C783 H771 0.950 . S
C783 C779 1.393 . S
C783 C782 1.391 . S
H784 C792 0.950 . S
H785 C797 0.950 . S
H786 C794 0.950 . S
H787 C796 0.950 . S
H788 C798 0.950 . S
H789 C800 0.950 . S
H790 C802 0.950 . S
H791 C803 0.950 . S
C792 H784 0.950 . S
C792 C793 1.386 . S
C792 C794 1.391 . S
C793 C792 1.386 . S
C793 C797 1.393 . S
C794 H786 0.950 . S
C794 C792 1.391 . S
C794 C795 1.400 . S
C795 C794 1.400 . S
C795 C796 1.398 . S
C795 C801 1.491 1_545 S
C796 H787 0.950 . S
C796 C795 1.398 . S
C796 C797 1.391 . S
C797 H785 0.950 . S
C797 C793 1.393 . S
C797 C796 1.391 . S
C798 H788 0.950 . S
C798 C799 1.386 . S
C798 C800 1.391 . S
C799 C798 1.386 . S
C799 C803 1.393 . S
C800 H789 0.950 . S
C800 C798 1.391 . S
C800 C801 1.400 . S
C801 C795 1.491 1_565 S
C801 C800 1.400 . S
C801 C802 1.398 . S
C802 H790 0.950 . S
C802 C801 1.398 . S
C802 C803 1.391 . S
C803 H791 0.950 . S
C803 C799 1.393 . S
C803 C802 1.391 . S
H804 C812 0.950 . S
H805 C817 0.950 . S
H806 C814 0.950 . S
H807 C816 0.950 . S
H808 C818 0.950 . S
H809 C820 0.950 . S
H810 C822 0.950 . S
H811 C823 0.950 . S
C812 H804 0.950 . S
C812 C813 1.386 . S
C812 C814 1.391 . S
C813 C812 1.386 . S
C813 C817 1.393 . S
C814 H806 0.950 . S
C814 C812 1.391 . S
C814 C815 1.400 . S
C815 C814 1.400 . S
C815 C816 1.398 . S
C815 C821 1.491 1_455 S
C816 H807 0.950 . S
C816 C815 1.398 . S
C816 C817 1.391 . S
C817 H805 0.950 . S
C817 C813 1.393 . S
C817 C816 1.391 . S
C818 H808 0.950 . S
C818 C819 1.386 . S
C818 C820 1.391 . S
C819 C818 1.386 . S
C819 C823 1.393 . S
C820 H809 0.950 . S
C820 C818 1.391 . S
C820 C821 1.400 . S
C821 C815 1.491 1_655 S
C821 C820 1.400 . S
C821 C822 1.398 . S
C822 H810 0.950 . S
C822 C821 1.398 . S
C822 C823 1.391 . S
C823 H811 0.950 . S
C823 C819 1.393 . S
C823 C822 1.391 . S
H824 C832 0.950 . S
H825 C837 0.950 . S
H826 C834 0.950 . S
H827 C836 0.950 . S
H828 C838 0.950 . S
H829 C840 0.950 . S
H830 C842 0.950 . S
H831 C843 0.950 . S
C832 H824 0.950 . S
C832 C833 1.386 . S
C832 C834 1.391 . S
C833 C832 1.386 . S
C833 C837 1.393 . S
C834 H826 0.950 . S
C834 C832 1.391 . S
C834 C835 1.400 . S
C835 C834 1.400 . S
C835 C836 1.398 . S
C835 C841 1.491 1_556 S
C836 H827 0.950 . S
C836 C835 1.398 . S
C836 C837 1.391 . S
C837 H825 0.950 . S
C837 C833 1.393 . S
C837 C836 1.391 . S
C838 H828 0.950 . S
C838 C839 1.386 . S
C838 C840 1.391 . S
C839 C838 1.386 . S
C839 C843 1.393 . S
C840 H829 0.950 . S
C840 C838 1.391 . S
C840 C841 1.400 . S
C841 C835 1.491 1_554 S
C841 C840 1.400 . S
C841 C842 1.398 . S
C842 H830 0.950 . S
C842 C841 1.398 . S
C842 C843 1.391 . S
C843 H831 0.950 . S
C843 C839 1.393 . S
C843 C842 1.391 . S
H844 C852 0.950 . S
H845 C857 0.950 . S
H846 C854 0.950 . S
H847 C856 0.950 . S
H848 C858 0.950 . S
H849 C860 0.950 . S
H850 C862 0.950 . S
H851 C863 0.950 . S
C852 H844 0.950 . S
C852 C853 1.386 . S
C852 C854 1.391 . S
C853 C852 1.386 . S
C853 C857 1.393 . S
C854 H846 0.950 . S
C854 C852 1.391 . S
C854 C855 1.400 . S
C855 C854 1.400 . S
C855 C856 1.398 . S
C855 C861 1.491 1_556 S
C856 H847 0.950 . S
C856 C855 1.398 . S
C856 C857 1.391 . S
C857 H845 0.950 . S
C857 C853 1.393 . S
C857 C856 1.391 . S
C858 H848 0.950 . S
C858 C859 1.386 . S
C858 C860 1.391 . S
C859 C858 1.386 . S
C859 C863 1.393 . S
C860 H849 0.950 . S
C860 C858 1.391 . S
C860 C861 1.400 . S
C861 C855 1.491 1_554 S
C861 C860 1.400 . S
C861 C862 1.398 . S
C862 H850 0.950 . S
C862 C861 1.398 . S
C862 C863 1.391 . S
C863 H851 0.950 . S
C863 C859 1.393 . S
C863 C862 1.391 . S
H864 C872 0.950 . S
H865 C877 0.950 . S
H866 C874 0.950 . S
H867 C876 0.950 . S
H868 C878 0.950 . S
H869 C880 0.950 . S
H870 C882 0.950 . S
H871 C883 0.950 . S
C872 H864 0.950 . S
C872 C873 1.386 . S
C872 C874 1.391 . S
C873 C872 1.386 . S
C873 C877 1.393 . S
C874 H866 0.950 . S
C874 C872 1.391 . S
C874 C875 1.400 . S
C875 C874 1.400 . S
C875 C876 1.398 . S
C875 C881 1.491 1_554 S
C876 H867 0.950 . S
C876 C875 1.398 . S
C876 C877 1.391 . S
C877 H865 0.950 . S
C877 C873 1.393 . S
C877 C876 1.391 . S
C878 H868 0.950 . S
C878 C879 1.386 . S
C878 C880 1.391 . S
C879 C878 1.386 . S
C879 C883 1.393 . S
C880 H869 0.950 . S
C880 C878 1.391 . S
C880 C881 1.400 . S
C881 C875 1.491 1_556 S
C881 C880 1.400 . S
C881 C882 1.398 . S
C882 H870 0.950 . S
C882 C881 1.398 . S
C882 C883 1.391 . S
C883 H871 0.950 . S
C883 C879 1.393 . S
C883 C882 1.391 . S
H884 C892 0.950 . S
H885 C897 0.950 . S
H886 C894 0.950 . S
H887 C896 0.950 . S
H888 C898 0.950 . S
H889 C900 0.950 . S
H890 C902 0.950 . S
H891 C903 0.950 . S
C892 H884 0.950 . S
C892 C893 1.386 . S
C892 C894 1.391 . S
C893 C892 1.386 . S
C893 C897 1.393 . S
C894 H886 0.950 . S
C894 C892 1.391 . S
C894 C895 1.400 . S
C895 C894 1.400 . S
C895 C896 1.398 . S
C895 C901 1.491 1_556 S
C896 H887 0.950 . S
C896 C895 1.398 . S
C896 C897 1.391 . S
C897 H885 0.950 . S
C897 C893 1.393 . S
C897 C896 1.391 . S
C898 H888 0.950 . S
C898 C899 1.386 . S
C898 C900 1.391 . S
C899 C898 1.386 . S
C899 C903 1.393 . S
C900 H889 0.950 . S
C900 C898 1.391 . S
C900 C901 1.400 . S
C901 C895 1.491 1_554 S
C901 C900 1.400 . S
C901 C902 1.398 . S
C902 H890 0.950 . S
C902 C901 1.398 . S
C902 C903 1.391 . S
C903 H891 0.950 . S
C903 C899 1.393 . S
C903 C902 1.391 . S
H904 C912 0.950 . S
H905 C917 0.950 . S
H906 C914 0.950 . S
H907 C916 0.950 . S
H908 C918 0.950 . S
H909 C920 0.950 . S
H910 C922 0.950 . S
H911 C923 0.950 . S
C912 H904 0.950 . S
C912 C913 1.386 . S
C912 C914 1.391 . S
C913 C912 1.386 . S
C913 C917 1.393 . S
C914 H906 0.950 . S
C914 C912 1.391 . S
C914 C915 1.400 . S
C915 C914 1.400 . S
C915 C916 1.398 . S
C915 C921 1.491 1_455 S
C916 H907 0.950 . S
C916 C915 1.398 . S
C916 C917 1.391 . S
C917 H905 0.950 . S
C917 C913 1.393 . S
C917 C916 1.391 . S
C918 H908 0.950 . S
C918 C919 1.386 . S
C918 C920 1.391 . S
C919 C918 1.386 . S
C919 C923 1.393 . S
C920 H909 0.950 . S
C920 C918 1.391 . S
C920 C921 1.400 . S
C921 C915 1.491 1_655 S
C921 C920 1.400 . S
C921 C922 1.398 . S
C922 H910 0.950 . S
C922 C921 1.398 . S
C922 C923 1.391 . S
C923 H911 0.950 . S
C923 C919 1.393 . S
C923 C922 1.391 . S
H924 C932 0.950 . S
H925 C937 0.950 . S
H926 C934 0.950 . S
H927 C936 0.950 . S
H928 C938 0.950 . S
H929 C940 0.950 . S
H930 C942 0.950 . S
H931 C943 0.950 . S
C932 H924 0.950 . S
C932 C933 1.386 . S
C932 C934 1.391 . S
C933 C932 1.386 . S
C933 C937 1.393 . S
C934 H926 0.950 . S
C934 C932 1.391 . S
C934 C935 1.400 . S
C935 C934 1.400 . S
C935 C936 1.398 . S
C935 C941 1.491 1_655 S
C936 H927 0.950 . S
C936 C935 1.398 . S
C936 C937 1.391 . S
C937 H925 0.950 . S
C937 C933 1.393 . S
C937 C936 1.391 . S
C938 H928 0.950 . S
C938 C939 1.386 . S
C938 C940 1.391 . S
C939 C938 1.386 . S
C939 C943 1.393 . S
C940 H929 0.950 . S
C940 C938 1.391 . S
C940 C941 1.400 . S
C941 C935 1.491 1_455 S
C941 C940 1.400 . S
C941 C942 1.398 . S
C942 H930 0.950 . S
C942 C941 1.398 . S
C942 C943 1.391 . S
C943 H931 0.950 . S
C943 C939 1.393 . S
C943 C942 1.391 . S
H944 C952 0.950 . S
H945 C957 0.950 . S
H946 C954 0.950 . S
H947 C956 0.950 . S
H948 C958 0.950 . S
H949 C960 0.950 . S
H950 C962 0.950 . S
H951 C963 0.950 . S
C952 H944 0.950 . S
C952 C953 1.386 . S
C952 C954 1.391 . S
C953 C952 1.386 . S
C953 C957 1.393 . S
C954 H946 0.950 . S
C954 C952 1.391 . S
C954 C955 1.400 . S
C955 C954 1.400 . S
C955 C956 1.398 . S
C955 C961 1.491 1_545 S
C956 H947 0.950 . S
C956 C955 1.398 . S
C956 C957 1.391 . S
C957 H945 0.950 . S
C957 C953 1.393 . S
C957 C956 1.391 . S
C958 H948 0.950 . S
C958 C959 1.386 . S
C958 C960 1.391 . S
C959 C958 1.386 . S
C959 C963 1.393 . S
C960 H949 0.950 . S
C960 C958 1.391 . S
C960 C961 1.400 . S
C961 C955 1.491 1_565 S
C961 C960 1.400 . S
C961 C962 1.398 . S
C962 H950 0.950 . S
C962 C961 1.398 . S
C962 C963 1.391 . S
C963 H951 0.950 . S
C963 C959 1.393 . S
C963 C962 1.391 . S
H964 C972 0.950 . S
H965 C977 0.950 . S
H966 C974 0.950 . S
H967 C976 0.950 . S
H968 C978 0.950 . S
H969 C980 0.950 . S
H970 C982 0.950 . S
H971 C983 0.950 . S
C972 H964 0.950 . S
C972 C973 1.386 . S
C972 C974 1.391 . S
C973 C972 1.386 . S
C973 C977 1.393 . S
C974 H966 0.950 . S
C974 C972 1.391 . S
C974 C975 1.400 . S
C975 C974 1.400 . S
C975 C976 1.398 . S
C975 C981 1.491 1_565 S
C976 H967 0.950 . S
C976 C975 1.398 . S
C976 C977 1.391 . S
C977 H965 0.950 . S
C977 C973 1.393 . S
C977 C976 1.391 . S
C978 H968 0.950 . S
C978 C979 1.386 . S
C978 C980 1.391 . S
C979 C978 1.386 . S
C979 C983 1.393 . S
C980 H969 0.950 . S
C980 C978 1.391 . S
C980 C981 1.400 . S
C981 C975 1.491 1_545 S
C981 C980 1.400 . S
C981 C982 1.398 . S
C982 H970 0.950 . S
C982 C981 1.398 . S
C982 C983 1.391 . S
C983 H971 0.950 . S
C983 C979 1.393 . S
C983 C982 1.391 . S
C273 C15 1.424 . S
C279 C164 1.459 . S
C293 C95 1.473 . S
C299 C30 1.484 . S
C313 C54 1.391 . S
C319 C120 1.405 . S
C333 C84 1.483 . S
C339 C147 1.452 . S
C353 C81 1.524 . S
C359 C205 1.507 . S
C373 C18 1.407 . S
C379 C238 1.419 . S
C393 C249 1.524 . S
C399 C29 1.520 . S
C413 C65 1.455 . S
C419 C184 1.465 . S
C433 C103 1.461 . S
C439 C10 1.497 . S
C453 C128 1.468 . S
C459 C43 1.437 . S
C473 C153 1.527 . S
C479 C59 1.524 . S
C493 C73 1.430 . S
C499 C172 1.461 . S
C513 C76 1.402 . S
C519 C186 1.400 . S
C533 C7 1.517 . S
C539 C213 1.506 . S
C553 C228 1.412 . S
C559 C40 1.406 . S
C573 C257 1.465 . S
C579 C52 1.472 . S
C593 C98 1.478 . S
C599 C169 1.444 . S
C613 C216 1.473 . S
C619 C191 1.471 . S
C633 C208 1.473 . S
C639 C227 1.451 . S
C653 C260 1.458 . S
C659 C241 1.455 . S
C673 C252 1.478 . S
C679 C197 1.443 . S
C693 C140 1.469 . S
C699 C125 1.458 . S
C713 C142 1.478 . S
C719 C161 1.460 . S
C733 C106 1.464 . S
C739 C117 1.441 . S
C753 C74 1.456 . S
C759 C8 1.455 . S
C773 C21 1.536 . S
C779 C37 1.531 . S
C793 C32 1.511 . S
C799 C51 1.509 . S
C813 C87 1.483 . S
C819 C62 1.484 . S
C833 C235 1.474 . S
C839 C96 1.475 . S
C853 C250 1.495 . S
C859 C131 1.494 . S
C873 C150 1.498 . S
C879 C183 1.495 . S
C893 C206 1.516 . S
C899 C175 1.512 . S
C913 C162 1.405 . S
C919 C118 1.404 . S
C933 C263 1.555 . S
C939 C219 1.555 . S
C953 C230 1.435 . S
C959 C194 1.434 . S
C973 C139 1.583 . S
C979 C109 1.587 . S
