# Generated by pormake.
# Topology qtz-x, (6)-cn, num edge types: 1
# Building blocks:
#     Node 0, Type 0, BuildingBlock: INOVEN_clean_sbu_0, # of connection points: 6
#     Node 1, Type 0, BuildingBlock: INOVEN_clean_sbu_0, # of connection points: 6
#     Node 2, Type 0, BuildingBlock: INOVEN_clean_sbu_0, # of connection points: 6
#     Edge 3, Type (0, 0), BuildingBlock: TEMPAE_clean_linker_10, # of connection points: 2
#     Edge 4, Type (0, 0), BuildingBlock: TEMPAE_clean_linker_10, # of connection points: 2
#     Edge 5, Type (0, 0), BuildingBlock: TEMPAE_clean_linker_10, # of connection points: 2
#     Edge 6, Type (0, 0), BuildingBlock: TEMPAE_clean_linker_10, # of connection points: 2
#     Edge 7, Type (0, 0), BuildingBlock: TEMPAE_clean_linker_10, # of connection points: 2
#     Edge 8, Type (0, 0), BuildingBlock: TEMPAE_clean_linker_10, # of connection points: 2
#     Edge 9, Type (0, 0), BuildingBlock: TEMPAE_clean_linker_10, # of connection points: 2
#     Edge 10, Type (0, 0), BuildingBlock: TEMPAE_clean_linker_10, # of connection points: 2
#     Edge 11, Type (0, 0), BuildingBlock: TEMPAE_clean_linker_10, # of connection points: 2
# Relax obj value: 0.221
# Max RMSD: 0.266
# Mean RMSD: 0.238
data_MOF--net-qtz-x--node1-INOVEN_clean_sbu_0--edge1-TEMPAE_clean_linker_10
_symmetry_space_group_name_H-M    P1
_symmetry_Int_Tables_number       1
_symmetry_cell_setting            triclinic
loop_
_symmetry_equiv_pos_as_xyz
'x, y, z'
_cell_length_a     15.096303
_cell_length_b     15.02626
_cell_length_c     54.058703
_cell_angle_alpha  70.522141
_cell_angle_beta   114.03971
_cell_angle_gamma 121.37023
loop_
_atom_site_label
_atom_site_type_symbol
_atom_site_fract_x
_atom_site_fract_y
_atom_site_fract_z
_atom_type_partial_charge
Gd0 Gd 1.00244 0.62342 0.18827 0.0
Gd1 Gd 0.21596 0.75552 0.17971 0.0
C2 C 0.22108 0.69909 0.24086 0.0
C3 C 0.84935 0.48232 0.2107 0.0
C4 C 0.8395 0.44982 0.23918 0.0
C5 C 0.75057 0.44168 0.24397 0.0
C6 C 0.91791 0.42665 0.26181 0.0
C7 C 0.81803 0.38718 0.29335 0.0
C8 C 0.9073 0.39578 0.28842 0.0
C9 C 0.73997 0.41099 0.27062 0.0
C10 C 0.05881 0.83261 0.17876 0.0
C11 C 1.00397 0.69105 0.12621 0.0
C12 C 0.37073 0.89305 0.15817 0.0
C13 C 0.38403 0.90621 0.1312 0.0
C14 C 0.43735 0.85757 0.12857 0.0
C15 C 0.33819 0.96193 0.10752 0.0
C16 C 0.39351 0.91483 0.07914 0.0
C17 C 0.3431 0.96634 0.08179 0.0
C18 C 0.44154 0.86139 0.10286 0.0
C19 C 0.15883 0.54545 0.18846 0.0
O20 O 0.12015 0.62868 0.23144 0.0
O21 O 0.27621 0.7713 0.22389 0.0
O22 O 0.85512 0.57517 0.19801 0.0
O23 O 0.91547 0.46182 0.2063 0.0
O24 O 0.96322 0.76129 0.16816 0.0
O25 O 0.12071 0.79011 0.1941 0.0
O26 O 0.10369 0.75982 0.13676 0.0
O27 O 0.94591 0.61548 0.14256 0.0
O28 O 0.37429 0.80956 0.17569 0.0
O29 O 0.29444 0.91152 0.15775 0.0
O30 O 0.25546 0.61777 0.19759 0.0
O31 O 0.09657 0.58811 0.17382 0.0
H32 H 0.68899 0.45931 0.22704 0.0
H33 H 0.98771 0.43204 0.25901 0.0
H34 H 0.96868 0.37703 0.30508 0.0
H35 H 0.67094 0.40728 0.27337 0.0
H36 H 0.47434 0.81478 0.14635 0.0
H37 H 0.29665 0.00057 0.10873 0.0
H38 H 0.30536 0.00808 0.06388 0.0
H39 H 0.48274 0.82258 0.10154 0.0
Gd40 Gd 0.85457 0.17579 0.55053 0.0
Gd41 Gd 0.74247 0.94404 0.54354 0.0
C42 C 0.81609 -0.01085 0.6048 0.0
C43 C 0.92758 0.35465 0.56493 0.0
C44 C 0.95504 0.38796 0.59082 0.0
C45 C 1.01165 0.34672 0.61561 0.0
C46 C 0.92414 0.46109 0.59091 0.0
C47 C 1.00732 0.45236 0.64023 0.0
C48 C 0.9497 0.49282 0.61548 0.0
C49 C 0.03808 0.37913 0.64006 0.0
C50 C 0.98111 0.11055 0.54438 0.0
C51 C 0.76347 0.13203 0.48963 0.0
C52 C 0.70445 0.77835 0.52857 0.0
C53 C 0.65922 0.75156 0.50044 0.0
C54 C 0.55494 0.66892 0.49218 0.0
C55 C 0.71565 0.81493 0.48075 0.0
C56 C 0.56089 0.7211 0.44484 0.0
C57 C 0.66672 0.8002 0.4533 0.0
C58 C 0.50638 0.65345 0.46463 0.0
C59 C 0.58572 -0.00206 0.53786 0.0
O60 O 0.84547 0.09004 0.59368 0.0
O61 O 0.7802 0.91574 0.58993 0.0
O62 O 0.98985 0.31992 0.56425 0.0
O63 O 0.82454 0.29794 0.55353 0.0
O64 O 0.97886 0.20037 0.53301 0.0
O65 O 0.91564 0.05803 0.55894 0.0
O66 O 0.75366 0.03552 0.50088 0.0
O67 O 0.78541 0.1986 0.50464 0.0
O68 O 0.63806 0.77914 0.53817 0.0
O69 O 0.80084 0.85822 0.53409 0.0
O70 O 0.56694 0.90605 0.53566 0.0
O71 O 0.68668 0.05629 0.54226 0.0
H72 H 1.03537 0.28917 0.61615 0.0
H73 H 0.88025 0.49354 0.572 0.0
H74 H 0.92553 0.54977 0.61511 0.0
H75 H 0.08122 0.34571 0.65892 0.0
H76 H 0.50956 0.61859 0.50686 0.0
H77 H 0.79654 0.8786 0.48627 0.0
H78 H 0.71099 0.8518 0.43851 0.0
H79 H 0.42467 0.59151 0.45859 0.0
Gd80 Gd 0.77937 0.84779 0.85548 0.0
Gd81 Gd 0.93653 0.76351 0.87306 0.0
C82 C 0.8911 0.78998 0.92151 0.0
C83 C 0.61752 0.87434 0.85139 0.0
C84 C 0.58509 0.89217 0.87102 0.0
C85 C 0.65604 0.97594 0.88624 0.0
C86 C 0.48421 0.82101 0.87581 0.0
C87 C 0.52699 0.9149 0.91129 0.0
C88 C 0.45547 0.83212 0.89578 0.0
C89 C 0.62711 -0.01274 0.9061 0.0
C90 C 0.98423 0.00122 0.85876 0.0
C91 C 0.83285 0.82756 0.80687 0.0
C92 C 0.08691 0.71608 0.87916 0.0
C93 C 0.10835 0.68224 0.86037 0.0
C94 C 0.03869 0.58267 0.85199 0.0
C95 C 0.19319 0.75353 0.84864 0.0
C96 C 0.13097 0.63094 0.81834 0.0
C97 C 0.2047 0.72801 0.8279 0.0
C98 C 0.04962 0.55752 0.83113 0.0
C99 C 0.73014 0.61477 0.87022 0.0
O100 O 0.80798 0.80279 0.90205 0.0
O101 O 0.96563 0.78907 0.91488 0.0
O102 O 0.70418 0.95058 0.84458 0.0
O103 O 0.61298 0.78131 0.85569 0.0
O104 O 0.89851 0.00797 0.84071 0.0
O105 O 0.95802 0.91689 0.87577 0.0
O106 O 0.91258 0.81002 0.82675 0.0
O107 O 0.7592 0.83275 0.81295 0.0
O108 O 1.00047 0.6496 0.88722 0.0
O109 O 0.09866 0.81265 0.87265 0.0
O110 O 0.81387 0.61132 0.88995 0.0
O111 O 0.75902 0.69555 0.85252 0.0
H112 H 0.73478 0.0318 0.88321 0.0
H113 H 0.42871 0.75514 0.86457 0.0
H114 H 0.37876 0.77394 0.8997 0.0
H115 H 0.68368 0.05222 0.91761 0.0
H116 H 0.97246 0.52564 0.86062 0.0
H117 H 0.24822 0.83069 0.85479 0.0
H118 H 0.26957 0.78554 0.81885 0.0
H119 H 0.99058 0.4825 0.82411 0.0
C120 C 1.02082 -0.01037 0.15741 0.0
C121 C 0.07889 0.9402 0.17933 0.0
C122 C 1.03352 0.08883 0.15801 0.0
C123 C 0.1033 0.13881 0.18154 0.0
C124 C 0.16197 0.08883 0.2038 0.0
C125 C 0.15044 -0.00884 0.20224 0.0
C126 C 0.97225 0.14024 0.13339 0.0
C127 C 0.23513 0.13735 0.22957 0.0
C128 C 0.21313 0.43628 0.17683 0.0
C129 C 0.14042 0.44154 0.18555 0.0
C130 C 0.20056 0.33893 0.17484 0.0
C131 C 0.11541 0.24348 0.18274 0.0
C132 C 0.04208 0.2485 0.19176 0.0
C133 C 0.05437 0.34747 0.19259 0.0
C134 C 0.27841 0.33838 0.16417 0.0
C135 C 0.95205 0.14917 0.20114 0.0
H136 H 0.96561 0.95075 0.13962 0.0
H137 H 0.1947 0.95292 0.21938 0.0
H138 H 0.91486 0.14903 0.13912 0.0
H139 H 1.02952 0.22059 0.12616 0.0
H140 H 0.92583 0.09402 0.11615 0.0
H141 H 0.27226 0.08714 0.2454 0.0
H142 H 0.30097 0.21563 0.22473 0.0
H143 H 0.18832 0.1501 0.2383 0.0
H144 H 0.27961 0.50891 0.17125 0.0
H145 H 0.99874 0.35108 0.19961 0.0
H146 H 0.23279 0.29387 0.14663 0.0
H147 H 0.32535 0.29777 0.18037 0.0
H148 H 0.33628 0.41931 0.15738 0.0
H149 H 0.89668 0.10249 0.18413 0.0
H150 H 0.90393 0.16611 0.20836 0.0
H151 H 0.98653 0.09926 0.21808 0.0
C152 C 0.39027 0.95353 0.52724 0.0
C153 C 0.50026 0.02082 0.53817 0.0
C154 C 0.30595 0.96612 0.52858 0.0
C155 C 0.33069 0.04702 0.54175 0.0
C156 C 0.44188 0.1155 0.5529 0.0
C157 C 0.52504 0.10224 0.55078 0.0
C158 C 0.18983 0.89257 0.51572 0.0
C159 C 0.47308 0.20207 0.56743 0.0
C160 C 0.11532 0.14231 0.52251 0.0
C161 C 0.06541 0.08701 0.54364 0.0
C162 C 0.2006 0.12993 0.52168 0.0
C163 C 0.24003 0.06167 0.54283 0.0
C164 C 0.1896 0.00495 0.56424 0.0
C165 C 0.10254 0.01745 0.56426 0.0
C166 C 0.2484 0.19015 0.49799 0.0
C167 C 0.22877 0.93203 0.58739 0.0
H168 H 0.36972 0.89017 0.51748 0.0
H169 H 0.60936 0.15381 0.55965 0.0
H170 H 0.14606 0.84868 0.53151 0.0
H171 H 0.14775 0.93872 0.50003 0.0
H172 H 0.18368 0.83469 0.50586 0.0
H173 H 0.56237 0.24683 0.57568 0.0
H174 H 0.4405 0.2579 0.55313 0.0
H175 H 0.43669 0.16789 0.58461 0.0
H176 H 0.08739 0.19604 0.50637 0.0
H177 H 0.0656 0.97497 0.58082 0.0
H178 H 0.24144 0.13439 0.48727 0.0
H179 H 0.33594 0.24299 0.5057 0.0
H180 H 0.20768 0.23858 0.48289 0.0
H181 H 0.21925 0.86797 0.57922 0.0
H182 H 0.18394 0.89597 0.60292 0.0
H183 H 0.31643 0.97612 0.59764 0.0
C184 C 0.10677 0.19335 0.86094 0.0
C185 C 0.0936 0.09215 0.86265 0.0
C186 C 0.20927 0.28154 0.86322 0.0
C187 C 0.29969 0.26901 0.86585 0.0
C188 C 0.28633 0.16673 0.86747 0.0
C189 C 0.18397 0.07954 0.86642 0.0
C190 C 0.22141 0.38754 0.86348 0.0
C191 C 0.37948 0.14927 0.86975 0.0
C192 C 0.53838 0.51009 0.84349 0.0
C193 C 0.61769 0.53185 0.86873 0.0
C194 C 0.43437 0.42488 0.84222 0.0
C195 C 0.40808 0.36254 0.86684 0.0
C196 C 0.48675 0.38785 0.89239 0.0
C197 C 0.59106 0.47076 0.89299 0.0
C198 C 0.35363 0.39972 0.81453 0.0
C199 C 0.46147 0.32677 0.91917 0.0
H200 H 1.03701 0.20324 0.85824 0.0
H201 H 0.17401 0.00218 0.8674 0.0
H202 H 0.2778 0.41438 0.8834 0.0
H203 H 0.2575 0.44759 0.84727 0.0
H204 H 0.14282 0.38484 0.86053 0.0
H205 H 0.35284 0.06721 0.86764 0.0
H206 H 0.41975 0.20458 0.85374 0.0
H207 H 0.44089 0.16523 0.88996 0.0
H208 H 0.55895 0.55715 0.82472 0.0
H209 H 0.65203 0.48821 0.91257 0.0
H210 H 0.28145 0.40792 0.81203 0.0
H211 H 0.32543 0.31664 0.81302 0.0
H212 H 0.38834 0.45225 0.79738 0.0
H213 H 0.38215 0.31591 0.9186 0.0
H214 H 0.5248 0.36671 0.93692 0.0
H215 H 0.45579 0.24723 0.92258 0.0
C216 C 0.57798 0.94059 0.95945 0.0
C217 C 0.50002 0.92231 0.93386 0.0
C218 C 0.55311 0.9424 0.98154 0.0
C219 C 0.44763 0.926 0.97799 0.0
C220 C 0.36914 0.9102 0.95198 0.0
C221 C 0.3961 0.90778 0.93026 0.0
C222 C 0.63925 0.95929 1.0089 0.0
C223 C 0.25552 0.89183 0.94718 0.0
C224 C 0.37327 0.82349 0.04461 0.0
C225 C 0.39663 0.91642 0.05185 0.0
C226 C 0.38371 0.82457 1.01986 0.0
C227 C 0.4197 0.92117 1.00203 0.0
C228 C 0.43865 0.01448 1.00861 0.0
C229 C 0.42652 0.01095 0.03342 0.0
C230 C 0.35961 0.72283 1.01322 0.0
C231 C 0.47554 0.11865 0.9899 0.0
H232 H 0.65798 0.95059 0.96245 0.0
H233 H 0.33571 0.89435 0.91045 0.0
H234 H 0.65064 0.02638 1.0162 0.0
H235 H 0.61309 0.8881 1.02435 0.0
H236 H 0.71854 0.97549 1.00792 0.0
H237 H 0.21469 0.90834 0.92503 0.0
H238 H 0.20732 0.80799 0.9548 0.0
H239 H 0.25504 0.94129 0.9584 0.0
H240 H 0.34754 0.74976 0.05847 0.0
H241 H 0.44451 0.08299 0.03889 0.0
H242 H 0.43521 0.72741 1.01309 0.0
H243 H 0.30156 0.71038 0.99246 0.0
H244 H 0.32501 0.65338 1.02824 0.0
H245 H 0.55698 0.1422 0.98882 0.0
H246 H 0.47982 0.18255 0.99699 0.0
H247 H 0.41941 0.11077 0.96879 0.0
C248 C 0.7589 0.26542 0.44598 0.0
C249 C 0.76179 0.16918 0.46004 0.0
C250 C 0.76449 0.30333 0.41867 0.0
C251 C 0.77524 0.24493 0.40503 0.0
C252 C 0.77815 0.1478 0.41914 0.0
C253 C 0.77005 0.11083 0.44614 0.0
C254 C 0.76017 0.40671 0.40447 0.0
C255 C 0.78954 0.08194 0.40582 0.0
C256 C 0.70391 0.28985 0.32655 0.0
C257 C 0.80639 0.3532 0.32196 0.0
C258 C 0.69246 0.25578 0.35327 0.0
C259 C 0.78538 0.28565 0.37628 0.0
C260 C 0.88885 0.35001 0.37183 0.0
C261 C 0.89798 0.38276 0.34493 0.0
C262 C 0.58061 0.1871 0.35691 0.0
C263 C 0.99062 0.38217 0.39562 0.0
H264 H 0.7527 0.31158 0.45636 0.0
H265 H 0.77321 0.03694 0.45662 0.0
H266 H 0.83646 0.46407 0.399 0.0
H267 H 0.69284 0.39504 0.38509 0.0
H268 H 0.74852 0.44139 0.41745 0.0
H269 H 0.82107 0.02705 0.42131 0.0
H270 H 0.70887 0.03465 0.39251 0.0
H271 H 0.8449 0.13171 0.39281 0.0
H272 H 0.63222 0.2646 0.30927 0.0
H273 H 0.97755 0.43205 0.34197 0.0
H274 H 0.56048 0.23068 0.36514 0.0
H275 H 0.57839 0.11534 0.37205 0.0
H276 H 0.51734 0.16276 0.33736 0.0
H277 H 0.98535 0.42261 0.40842 0.0
H278 H 0.06472 0.43547 0.3888 0.0
H279 H 0.99893 0.31079 0.40883 0.0
C280 C 0.91414 0.85346 0.77057 0.0
C281 C 0.82802 0.84321 0.7773 0.0
C282 C 0.91345 0.87276 0.74299 0.0
C283 C 0.82355 0.8805 0.72111 0.0
C284 C 0.73519 0.86763 0.72777 0.0
C285 C 0.73881 0.85009 0.75554 0.0
C286 C 1.00992 0.8858 0.73734 0.0
C287 C 0.63678 0.87358 0.70545 0.0
C288 C 0.86227 0.03839 0.6506 0.0
C289 C 0.82149 0.95959 0.63488 0.0
C290 C 0.86425 0.0138 0.6784 0.0
C291 C 0.82408 0.90716 0.69142 0.0
C292 C 0.78387 0.82702 0.67585 0.0
C293 C 0.78315 0.85397 0.64798 0.0
C294 C 0.9098 0.10269 0.69391 0.0
C295 C 0.74017 0.7123 0.68858 0.0
H296 H 0.98368 0.84815 0.78694 0.0
H297 H 0.67129 0.84187 0.76019 0.0
H298 H 0.98568 0.81879 0.7277 0.0
H299 H 0.03946 0.95917 0.72275 0.0
H300 H 0.07791 0.88873 0.75632 0.0
H301 H 0.57196 0.85551 0.71377 0.0
H302 H 0.66019 0.95385 0.69324 0.0
H303 H 0.60341 0.81734 0.69125 0.0
H304 H 0.89248 0.12036 0.64111 0.0
H305 H 0.75118 0.79187 0.63635 0.0
H306 H 0.9801 0.10111 0.71171 0.0
H307 H 0.84799 0.09243 0.70208 0.0
H308 H 0.93645 0.18133 0.68092 0.0
H309 H 0.80393 0.69846 0.70664 0.0
H310 H 0.7114 0.6591 0.67394 0.0
H311 H 0.67186 0.6909 0.69598 0.0
C312 C 0.82349 0.77833 0.95899 0.0
C313 C 0.89886 0.77314 0.95122 0.0
C314 C 0.8289 0.76032 0.98687 0.0
C315 C 0.91159 0.73611 1.00779 0.0
C316 C 0.98743 0.7302 1.00003 0.0
C317 C 0.98018 0.74869 0.97205 0.0
C318 C 0.74731 0.76966 0.9939 0.0
C319 C 0.07751 0.70545 1.02137 0.0
C320 C 1.01191 0.80034 0.07997 0.0
C321 C 0.9647 0.70112 0.09551 0.0
C322 C 0.99228 0.81292 0.05152 0.0
C323 C 0.92385 0.72404 0.03776 0.0
C324 C 0.87252 0.62391 0.05307 0.0
C325 C 0.89306 0.61365 0.0817 0.0
C326 C 0.04826 0.92141 0.03638 0.0
C327 C 0.79938 0.5268 0.03937 0.0
H328 H 0.76016 0.79708 0.94325 0.0
H329 H 0.0385 0.7435 0.96651 0.0
H330 H 0.71165 0.70042 1.00878 0.0
H331 H 0.78854 0.84079 1.00377 0.0
H332 H 0.68069 0.77623 0.97548 0.0
H333 H 0.12641 0.6981 1.01207 0.0
H334 H 0.13226 0.76872 0.03432 0.0
H335 H 0.04336 0.6307 0.0351 0.0
H336 H 0.06712 0.86888 0.09026 0.0
H337 H 0.85713 0.53654 0.09343 0.0
H338 H 0.98793 0.94175 1.01854 0.0
H339 H 0.10564 0.92226 1.02833 0.0
H340 H 0.09409 -0.01655 0.04967 0.0
H341 H 0.73545 0.54008 1.02124 0.0
H342 H 0.76008 0.45616 0.05349 0.0
H343 H 0.84724 0.51052 0.03191 0.0
C344 C 0.20352 0.66165 0.28777 0.0
C345 C 0.26983 0.69917 0.27088 0.0
C346 C 0.24817 0.66408 0.31614 0.0
C347 C 0.36164 0.70128 0.32814 0.0
C348 C 0.42885 0.73811 0.31119 0.0
C349 C 0.38231 0.73798 0.28272 0.0
C350 C 0.17429 0.63011 0.33313 0.0
C351 C 0.55008 0.77851 0.32313 0.0
C352 C 0.49885 0.80239 0.39663 0.0
C353 C 0.50656 0.71385 0.41517 0.0
C354 C 0.44957 0.79873 0.3684 0.0
C355 C 0.41029 0.70514 0.35826 0.0
C356 C 0.41836 0.61548 0.37697 0.0
C357 C 0.46494 0.62043 0.40526 0.0
C358 C 0.44193 0.89641 0.34972 0.0
C359 C 0.37998 0.51508 0.36702 0.0
H360 H 0.11666 0.63318 0.27868 0.0
H361 H 0.4339 0.76699 0.26975 0.0
H362 H 0.17776 0.5613 0.34888 0.0
H363 H 0.20198 0.69485 0.34411 0.0
H364 H 0.08877 0.6087 0.32044 0.0
H365 H 0.59011 0.79645 0.30761 0.0
H366 H 0.58483 0.85147 0.33166 0.0
H367 H 0.56941 0.71938 0.34025 0.0
H368 H 0.53058 0.87468 0.40428 0.0
H369 H 0.4716 0.5522 0.41959 0.0
H370 H 0.37341 0.87814 0.33068 0.0
H371 H 0.51831 0.94886 0.34394 0.0
H372 H 0.43199 0.94085 0.36039 0.0
H373 H 0.29203 0.48341 0.35604 0.0
H374 H 0.39439 0.45334 0.38407 0.0
H375 H 0.42261 0.53195 0.35222 0.0
C376 C 0.10537 0.50774 0.7914 0.0
C377 C 0.13189 0.60984 0.79353 0.0
C378 C 0.09281 0.48427 0.76683 0.0
C379 C 0.10729 0.565 0.74386 0.0
C380 C 0.13858 0.66915 0.74616 0.0
C381 C 0.15017 0.69024 0.77095 0.0
C382 C 0.05952 0.37214 0.76515 0.0
C383 C 0.1553 0.75744 0.72211 0.0
C384 C 0.13907 0.51419 0.68455 0.0
C385 C 1.03409 0.48486 0.66634 0.0
C386 C 0.16469 0.54196 0.70977 0.0
C387 C 0.0829 0.53904 0.71696 0.0
C388 C 0.97694 0.51023 0.69855 0.0
C389 C 0.95394 0.4839 0.67336 0.0
C390 C 0.27899 0.57428 0.72871 0.0
C391 C 0.88747 0.50564 0.70565 0.0
H392 H 0.09174 0.4453 0.80874 0.0
H393 H 0.16902 0.76899 0.7722 0.0
H394 H 0.97771 0.33952 0.75036 0.0
H395 H 0.11627 0.37015 0.7575 0.0
H396 H 0.05758 0.32005 0.78532 0.0
H397 H 0.19061 0.83576 0.72811 0.0
H398 H 0.20953 0.75944 0.71273 0.0
H399 H 0.07642 0.74365 0.70615 0.0
H400 H 0.20133 0.51601 0.67895 0.0
H401 H 0.87251 0.46016 0.65939 0.0
H402 H 0.27881 0.51978 0.74849 0.0
H403 H 0.31267 0.65449 0.73331 0.0
H404 H 0.3336 0.57428 0.71981 0.0
H405 H 0.87448 0.44841 0.72464 0.0
H406 H 0.8096 0.48198 0.689 0.0
H407 H 0.9109 0.58381 0.70973 0.0
loop_
_geom_bond_atom_site_label_1
_geom_bond_atom_site_label_2
_geom_bond_distance
_geom_bond_site_symmetry_2
_ccdc_geom_bond_type
Gd0 C3 2.818 . S
Gd0 O20 2.377 1_655 S
Gd0 O22 2.448 . S
Gd0 O23 2.506 . S
Gd0 O24 2.435 . S
Gd0 O25 2.717 1_655 S
Gd0 O27 2.395 . S
Gd0 O31 2.327 . S
Gd1 C12 2.818 . S
Gd1 O21 2.395 . S
Gd1 O25 2.327 . S
Gd1 O26 2.377 1_455 S
Gd1 O28 2.448 . S
Gd1 O29 2.506 . S
Gd1 O30 2.435 . S
Gd1 O31 2.717 1_455 S
C2 O20 1.240 . S
C2 O21 1.240 . S
C3 Gd0 2.818 . S
C3 C4 1.510 . S
C3 O22 1.249 . S
C3 O23 1.252 . S
C4 C3 1.510 . S
C4 C5 1.404 . S
C4 C6 1.352 . S
C5 C4 1.404 . S
C5 C9 1.389 . S
C5 H32 0.930 . S
C6 C4 1.352 . S
C6 C8 1.374 . S
C6 H33 0.931 . S
C7 C8 1.359 . S
C7 C9 1.364 . S
C8 C6 1.374 . S
C8 C7 1.359 . S
C8 H34 0.931 . S
C9 C5 1.389 . S
C9 C7 1.364 . S
C9 H35 0.931 . S
C10 O24 1.256 . S
C10 O25 1.257 1_655 S
C11 O26 1.240 . S
C11 O27 1.240 . S
C12 Gd1 2.818 . S
C12 C13 1.510 . S
C12 O28 1.249 . S
C12 O29 1.252 . S
C13 C12 1.510 . S
C13 C14 1.404 . S
C13 C15 1.352 . S
C14 C13 1.404 . S
C14 C18 1.389 . S
C14 H36 0.930 . S
C15 C13 1.352 . S
C15 C17 1.374 1_565 S
C15 H37 0.931 . S
C16 C17 1.359 1_565 S
C16 C18 1.364 . S
C17 C15 1.374 1_545 S
C17 C16 1.359 1_545 S
C17 H38 0.931 . S
C18 C14 1.389 . S
C18 C16 1.364 . S
C18 H39 0.931 . S
C19 O30 1.256 . S
C19 O31 1.257 1_455 S
O20 Gd0 2.377 1_455 S
O20 C2 1.240 . S
O21 Gd1 2.395 . S
O21 C2 1.240 . S
O22 Gd0 2.448 . S
O22 C3 1.249 . S
O23 Gd0 2.506 . S
O23 C3 1.252 . S
O24 Gd0 2.435 . S
O24 C10 1.256 . S
O25 Gd0 2.717 1_455 S
O25 Gd1 2.327 . S
O25 C10 1.257 1_455 S
O26 Gd1 2.377 1_655 S
O26 C11 1.240 . S
O27 Gd0 2.395 . S
O27 C11 1.240 . S
O28 Gd1 2.448 . S
O28 C12 1.249 . S
O29 Gd1 2.506 . S
O29 C12 1.252 . S
O30 Gd1 2.435 . S
O30 C19 1.256 . S
O31 Gd0 2.327 . S
O31 Gd1 2.717 1_655 S
O31 C19 1.257 1_655 S
H32 C5 0.930 . S
H33 C6 0.931 . S
H34 C8 0.931 . S
H35 C9 0.931 . S
H36 C14 0.930 . S
H37 C15 0.931 . S
H38 C17 0.931 . S
H39 C18 0.931 . S
Gd40 C43 2.818 . S
Gd40 O60 2.377 . S
Gd40 O62 2.448 . S
Gd40 O63 2.506 . S
Gd40 O64 2.435 . S
Gd40 O65 2.717 1_545 S
Gd40 O67 2.395 . S
Gd40 O71 2.327 . S
Gd41 C52 2.818 . S
Gd41 O61 2.395 . S
Gd41 O65 2.327 . S
Gd41 O66 2.377 1_565 S
Gd41 O68 2.448 . S
Gd41 O69 2.506 . S
Gd41 O70 2.435 . S
Gd41 O71 2.717 1_565 S
C42 O60 1.240 1_565 S
C42 O61 1.240 . S
C43 Gd40 2.818 . S
C43 C44 1.510 . S
C43 O62 1.249 . S
C43 O63 1.252 . S
C44 C43 1.510 . S
C44 C45 1.404 1_655 S
C44 C46 1.352 . S
C45 C44 1.404 1_455 S
C45 C49 1.389 . S
C45 H72 0.930 . S
C46 C44 1.352 . S
C46 C48 1.374 . S
C46 H73 0.931 . S
C47 C48 1.359 . S
C47 C49 1.364 1_655 S
C48 C46 1.374 . S
C48 C47 1.359 . S
C48 H74 0.931 . S
C49 C45 1.389 . S
C49 C47 1.364 1_455 S
C49 H75 0.931 . S
C50 O64 1.256 . S
C50 O65 1.257 1_545 S
C51 O66 1.240 . S
C51 O67 1.240 . S
C52 Gd41 2.818 . S
C52 C53 1.510 . S
C52 O68 1.249 . S
C52 O69 1.252 . S
C53 C52 1.510 . S
C53 C54 1.404 . S
C53 C55 1.352 . S
C54 C53 1.404 . S
C54 C58 1.389 . S
C54 H76 0.930 . S
C55 C53 1.352 . S
C55 C57 1.374 . S
C55 H77 0.931 . S
C56 C57 1.359 . S
C56 C58 1.364 . S
C57 C55 1.374 . S
C57 C56 1.359 . S
C57 H78 0.931 . S
C58 C54 1.389 . S
C58 C56 1.364 . S
C58 H79 0.931 . S
C59 O70 1.256 . S
C59 O71 1.257 1_565 S
O60 Gd40 2.377 . S
O60 C42 1.240 1_545 S
O61 Gd41 2.395 . S
O61 C42 1.240 . S
O62 Gd40 2.448 . S
O62 C43 1.249 . S
O63 Gd40 2.506 . S
O63 C43 1.252 . S
O64 Gd40 2.435 . S
O64 C50 1.256 . S
O65 Gd40 2.717 1_565 S
O65 Gd41 2.327 . S
O65 C50 1.257 1_565 S
O66 Gd41 2.377 1_545 S
O66 C51 1.240 . S
O67 Gd40 2.395 . S
O67 C51 1.240 . S
O68 Gd41 2.448 . S
O68 C52 1.249 . S
O69 Gd41 2.506 . S
O69 C52 1.252 . S
O70 Gd41 2.435 . S
O70 C59 1.256 . S
O71 Gd40 2.327 . S
O71 Gd41 2.717 1_545 S
O71 C59 1.257 1_545 S
H72 C45 0.930 . S
H73 C46 0.931 . S
H74 C48 0.931 . S
H75 C49 0.931 . S
H76 C54 0.930 . S
H77 C55 0.931 . S
H78 C57 0.931 . S
H79 C58 0.931 . S
Gd80 C83 2.818 . S
Gd80 O100 2.377 1_545 S
Gd80 O102 2.448 . S
Gd80 O103 2.506 1_545 S
Gd80 O104 2.435 1_655 S
Gd80 O105 2.717 . S
Gd80 O107 2.395 . S
Gd80 O111 2.327 1_545 S
Gd81 C92 2.818 1_655 S
Gd81 O101 2.395 . S
Gd81 O105 2.327 1_565 S
Gd81 O106 2.377 . S
Gd81 O108 2.448 . S
Gd81 O109 2.506 1_655 S
Gd81 O110 2.435 . S
Gd81 O111 2.717 . S
C82 O100 1.240 . S
C82 O101 1.240 . S
C83 Gd80 2.818 . S
C83 C84 1.510 . S
C83 O102 1.249 . S
C83 O103 1.252 1_545 S
C84 C83 1.510 . S
C84 C85 1.404 . S
C84 C86 1.352 1_545 S
C85 C84 1.404 . S
C85 C89 1.389 . S
C85 H112 0.930 . S
C86 C84 1.352 1_565 S
C86 C88 1.374 . S
C86 H113 0.931 . S
C87 C88 1.359 1_545 S
C87 C89 1.364 . S
C88 C86 1.374 . S
C88 C87 1.359 1_565 S
C88 H114 0.931 . S
C89 C85 1.389 . S
C89 C87 1.364 . S
C89 H115 0.931 . S
C90 O104 1.256 . S
C90 O105 1.257 1_455 S
C91 O106 1.240 . S
C91 O107 1.240 1_565 S
C92 Gd81 2.818 1_455 S
C92 C93 1.510 . S
C92 O108 1.249 1_455 S
C92 O109 1.252 . S
C93 C92 1.510 . S
C93 C94 1.404 1_455 S
C93 C95 1.352 . S
C94 C93 1.404 1_655 S
C94 C98 1.389 1_655 S
C94 H116 0.930 . S
C95 C93 1.352 . S
C95 C97 1.374 . S
C95 H117 0.931 . S
C96 C97 1.359 . S
C96 C98 1.364 . S
C97 C95 1.374 . S
C97 C96 1.359 . S
C97 H118 0.931 . S
C98 C94 1.389 1_455 S
C98 C96 1.364 . S
C98 H119 0.931 . S
C99 O110 1.256 . S
C99 O111 1.257 . S
O100 Gd80 2.377 1_565 S
O100 C82 1.240 . S
O101 Gd81 2.395 . S
O101 C82 1.240 . S
O102 Gd80 2.448 . S
O102 C83 1.249 . S
O103 Gd80 2.506 1_565 S
O103 C83 1.252 1_565 S
O104 Gd80 2.435 1_455 S
O104 C90 1.256 . S
O105 Gd80 2.717 . S
O105 Gd81 2.327 1_545 S
O105 C90 1.257 1_655 S
O106 Gd81 2.377 . S
O106 C91 1.240 . S
O107 Gd80 2.395 . S
O107 C91 1.240 1_545 S
O108 Gd81 2.448 . S
O108 C92 1.249 1_655 S
O109 Gd81 2.506 1_455 S
O109 C92 1.252 . S
O110 Gd81 2.435 . S
O110 C99 1.256 . S
O111 Gd80 2.327 1_565 S
O111 Gd81 2.717 . S
O111 C99 1.257 . S
H112 C85 0.930 . S
H113 C86 0.931 . S
H114 C88 0.931 . S
H115 C89 0.931 . S
H116 C94 0.930 . S
H117 C95 0.931 . S
H118 C97 0.931 . S
H119 C98 0.931 . S
C120 C121 1.391 . S
C120 C122 1.394 1_565 S
C120 H136 0.931 . S
C121 C120 1.391 . S
C121 C125 1.376 1_665 S
C122 C120 1.394 1_545 S
C122 C123 1.369 . S
C122 C126 1.531 . S
C123 C122 1.369 . S
C123 C124 1.410 1_655 S
C123 C131 1.503 . S
C124 C123 1.410 1_455 S
C124 C125 1.392 . S
C124 C127 1.511 . S
C125 C121 1.376 1_445 S
C125 C124 1.392 . S
C125 H137 0.929 1_545 S
C126 C122 1.531 . S
C126 H138 0.960 . S
C126 H139 0.962 . S
C126 H140 0.960 . S
C127 C124 1.511 . S
C127 H141 0.961 . S
C127 H142 0.961 . S
C127 H143 0.961 . S
C128 C129 1.370 1_455 S
C128 C130 1.363 . S
C128 H144 0.931 . S
C129 C128 1.370 1_655 S
C129 C133 1.408 . S
C130 C128 1.363 . S
C130 C131 1.370 1_455 S
C130 C134 1.524 . S
C131 C123 1.503 . S
C131 C130 1.370 1_655 S
C131 C132 1.403 . S
C132 C131 1.403 . S
C132 C133 1.404 . S
C132 C135 1.539 . S
C133 C129 1.408 . S
C133 C132 1.404 . S
C133 H145 0.930 . S
C134 C130 1.524 . S
C134 H146 0.956 . S
C134 H147 0.961 . S
C134 H148 0.961 . S
C135 C132 1.539 . S
C135 H149 0.958 . S
C135 H150 0.961 . S
C135 H151 0.960 . S
H136 C120 0.931 . S
H137 C125 0.929 1_565 S
H138 C126 0.960 . S
H139 C126 0.962 . S
H140 C126 0.960 . S
H141 C127 0.961 . S
H142 C127 0.961 . S
H143 C127 0.961 . S
H144 C128 0.931 . S
H145 C133 0.930 . S
H146 C134 0.956 . S
H147 C134 0.961 . S
H148 C134 0.961 . S
H149 C135 0.958 . S
H150 C135 0.961 . S
H151 C135 0.960 . S
C152 C153 1.391 . S
C152 C154 1.394 . S
C152 H168 0.931 . S
C153 C152 1.391 . S
C153 C157 1.376 1_565 S
C154 C152 1.394 . S
C154 C155 1.369 . S
C154 C158 1.531 . S
C155 C154 1.369 . S
C155 C156 1.410 1_565 S
C155 C163 1.503 . S
C156 C155 1.410 1_545 S
C156 C157 1.392 . S
C156 C159 1.511 . S
C157 C153 1.376 1_545 S
C157 C156 1.392 . S
C157 H169 0.929 . S
C158 C154 1.531 . S
C158 H170 0.960 . S
C158 H171 0.962 . S
C158 H172 0.960 . S
C159 C156 1.511 . S
C159 H173 0.961 . S
C159 H174 0.961 . S
C159 H175 0.961 1_545 S
C160 C161 1.370 . S
C160 C162 1.363 . S
C160 H176 0.931 . S
C161 C160 1.370 . S
C161 C165 1.408 1_545 S
C162 C160 1.363 . S
C162 C163 1.370 1_545 S
C162 C166 1.524 . S
C163 C155 1.503 . S
C163 C162 1.370 1_565 S
C163 C164 1.403 . S
C164 C163 1.403 . S
C164 C165 1.404 . S
C164 C167 1.539 . S
C165 C161 1.408 1_565 S
C165 C164 1.404 . S
C165 H177 0.930 1_455 S
C166 C162 1.524 . S
C166 H178 0.956 . S
C166 H179 0.961 . S
C166 H180 0.961 . S
C167 C164 1.539 . S
C167 H181 0.958 . S
C167 H182 0.961 . S
C167 H183 0.960 . S
H168 C152 0.931 . S
H169 C157 0.929 . S
H170 C158 0.960 . S
H171 C158 0.962 . S
H172 C158 0.960 . S
H173 C159 0.961 . S
H174 C159 0.961 . S
H175 C159 0.961 1_565 S
H176 C160 0.931 . S
H177 C165 0.930 1_655 S
H178 C166 0.956 . S
H179 C166 0.961 . S
H180 C166 0.961 . S
H181 C167 0.958 . S
H182 C167 0.961 . S
H183 C167 0.960 . S
C184 C185 1.391 . S
C184 C186 1.394 . S
C184 H200 0.931 . S
C185 C184 1.391 . S
C185 C189 1.376 . S
C186 C184 1.394 . S
C186 C187 1.369 . S
C186 C190 1.531 . S
C187 C186 1.369 . S
C187 C188 1.410 . S
C187 C195 1.503 . S
C188 C187 1.410 . S
C188 C189 1.392 . S
C188 C191 1.511 . S
C189 C185 1.376 . S
C189 C188 1.392 . S
C189 H201 0.929 . S
C190 C186 1.531 . S
C190 H202 0.960 . S
C190 H203 0.962 . S
C190 H204 0.960 . S
C191 C188 1.511 . S
C191 H205 0.961 . S
C191 H206 0.961 . S
C191 H207 0.961 . S
C192 C193 1.370 . S
C192 C194 1.363 . S
C192 H208 0.931 . S
C193 C192 1.370 . S
C193 C197 1.408 . S
C194 C192 1.363 . S
C194 C195 1.370 . S
C194 C198 1.524 . S
C195 C187 1.503 . S
C195 C194 1.370 . S
C195 C196 1.403 . S
C196 C195 1.403 . S
C196 C197 1.404 . S
C196 C199 1.539 . S
C197 C193 1.408 . S
C197 C196 1.404 . S
C197 H209 0.930 . S
C198 C194 1.524 . S
C198 H210 0.956 . S
C198 H211 0.961 . S
C198 H212 0.961 . S
C199 C196 1.539 . S
C199 H213 0.958 . S
C199 H214 0.961 . S
C199 H215 0.960 . S
H200 C184 0.931 . S
H201 C189 0.929 . S
H202 C190 0.960 . S
H203 C190 0.962 . S
H204 C190 0.960 . S
H205 C191 0.961 . S
H206 C191 0.961 . S
H207 C191 0.961 . S
H208 C192 0.931 . S
H209 C197 0.930 . S
H210 C198 0.956 . S
H211 C198 0.961 . S
H212 C198 0.961 . S
H213 C199 0.958 . S
H214 C199 0.961 . S
H215 C199 0.960 . S
C216 C217 1.391 . S
C216 C218 1.394 . S
C216 H232 0.931 . S
C217 C216 1.391 . S
C217 C221 1.376 . S
C218 C216 1.394 . S
C218 C219 1.369 . S
C218 C222 1.531 . S
C219 C218 1.369 . S
C219 C220 1.410 . S
C219 C227 1.503 . S
C220 C219 1.410 . S
C220 C221 1.392 . S
C220 C223 1.511 1_545 S
C221 C217 1.376 . S
C221 C220 1.392 . S
C221 H233 0.929 . S
C222 C218 1.531 . S
C222 H234 0.960 . S
C222 H235 0.962 1_556 S
C222 H236 0.960 . S
C223 C220 1.511 1_565 S
C223 H237 0.961 . S
C223 H238 0.961 . S
C223 H239 0.961 1_565 S
C224 C225 1.370 1_565 S
C224 C226 1.363 . S
C224 H240 0.931 . S
C225 C224 1.370 1_545 S
C225 C229 1.408 1_554 S
C226 C224 1.363 . S
C226 C227 1.370 1_564 S
C226 C230 1.524 . S
C227 C219 1.503 . S
C227 C226 1.370 1_546 S
C227 C228 1.403 . S
C228 C227 1.403 . S
C228 C229 1.404 . S
C228 C231 1.539 . S
C229 C225 1.408 1_556 S
C229 C228 1.404 . S
C229 H241 0.930 . S
C230 C226 1.524 . S
C230 H242 0.956 . S
C230 H243 0.961 1_554 S
C230 H244 0.961 . S
C231 C228 1.539 . S
C231 H245 0.958 . S
C231 H246 0.961 . S
C231 H247 0.960 . S
H232 C216 0.931 . S
H233 C221 0.929 . S
H234 C222 0.960 . S
H235 C222 0.962 1_554 S
H236 C222 0.960 . S
H237 C223 0.961 . S
H238 C223 0.961 . S
H239 C223 0.961 1_545 S
H240 C224 0.931 . S
H241 C229 0.930 . S
H242 C230 0.956 . S
H243 C230 0.961 1_556 S
H244 C230 0.961 . S
H245 C231 0.958 . S
H246 C231 0.961 . S
H247 C231 0.960 . S
C248 C249 1.391 . S
C248 C250 1.394 . S
C248 H264 0.931 . S
C249 C248 1.391 . S
C249 C253 1.376 . S
C250 C248 1.394 . S
C250 C251 1.369 . S
C250 C254 1.531 . S
C251 C250 1.369 . S
C251 C252 1.410 . S
C251 C259 1.503 . S
C252 C251 1.410 . S
C252 C253 1.392 . S
C252 C255 1.511 . S
C253 C249 1.376 . S
C253 C252 1.392 . S
C253 H265 0.929 . S
C254 C250 1.531 . S
C254 H266 0.960 . S
C254 H267 0.962 . S
C254 H268 0.960 . S
C255 C252 1.511 . S
C255 H269 0.961 . S
C255 H270 0.961 . S
C255 H271 0.961 . S
C256 C257 1.370 . S
C256 C258 1.363 . S
C256 H272 0.931 . S
C257 C256 1.370 . S
C257 C261 1.408 . S
C258 C256 1.363 . S
C258 C259 1.370 . S
C258 C262 1.524 . S
C259 C251 1.503 . S
C259 C258 1.370 . S
C259 C260 1.403 . S
C260 C259 1.403 . S
C260 C261 1.404 . S
C260 C263 1.539 . S
C261 C257 1.408 . S
C261 C260 1.404 . S
C261 H273 0.930 . S
C262 C258 1.524 . S
C262 H274 0.956 . S
C262 H275 0.961 . S
C262 H276 0.961 . S
C263 C260 1.539 . S
C263 H277 0.958 . S
C263 H278 0.961 . S
C263 H279 0.960 . S
H264 C248 0.931 . S
H265 C253 0.929 . S
H266 C254 0.960 . S
H267 C254 0.962 . S
H268 C254 0.960 . S
H269 C255 0.961 . S
H270 C255 0.961 . S
H271 C255 0.961 . S
H272 C256 0.931 . S
H273 C261 0.930 . S
H274 C262 0.956 . S
H275 C262 0.961 . S
H276 C262 0.961 . S
H277 C263 0.958 . S
H278 C263 0.961 . S
H279 C263 0.960 . S
C280 C281 1.391 1_545 S
C280 C282 1.394 . S
C280 H296 0.931 . S
C281 C280 1.391 1_565 S
C281 C285 1.376 . S
C282 C280 1.394 . S
C282 C283 1.369 1_545 S
C282 C286 1.531 . S
C283 C282 1.369 1_565 S
C283 C284 1.410 . S
C283 C291 1.503 . S
C284 C283 1.410 . S
C284 C285 1.392 . S
C284 C287 1.511 . S
C285 C281 1.376 . S
C285 C284 1.392 . S
C285 H297 0.929 . S
C286 C282 1.531 . S
C286 H298 0.960 . S
C286 H299 0.962 . S
C286 H300 0.960 1_655 S
C287 C284 1.511 . S
C287 H301 0.961 . S
C287 H302 0.961 . S
C287 H303 0.961 . S
C288 C289 1.370 . S
C288 C290 1.363 . S
C288 H304 0.931 1_565 S
C289 C288 1.370 . S
C289 C293 1.408 . S
C290 C288 1.363 . S
C290 C291 1.370 . S
C290 C294 1.524 1_565 S
C291 C283 1.503 . S
C291 C290 1.370 . S
C291 C292 1.403 . S
C292 C291 1.403 . S
C292 C293 1.404 . S
C292 C295 1.539 . S
C293 C289 1.408 . S
C293 C292 1.404 . S
C293 H305 0.930 . S
C294 C290 1.524 1_545 S
C294 H306 0.956 . S
C294 H307 0.961 . S
C294 H308 0.961 . S
C295 C292 1.539 . S
C295 H309 0.958 . S
C295 H310 0.961 . S
C295 H311 0.960 . S
H296 C280 0.931 . S
H297 C285 0.929 . S
H298 C286 0.960 . S
H299 C286 0.962 . S
H300 C286 0.960 1_455 S
H301 C287 0.961 . S
H302 C287 0.961 . S
H303 C287 0.961 . S
H304 C288 0.931 1_545 S
H305 C293 0.930 . S
H306 C294 0.956 . S
H307 C294 0.961 . S
H308 C294 0.961 . S
H309 C295 0.958 . S
H310 C295 0.961 . S
H311 C295 0.960 . S
C312 C313 1.391 . S
C312 C314 1.394 . S
C312 H328 0.931 . S
C313 C312 1.391 . S
C313 C317 1.376 1_655 S
C314 C312 1.394 . S
C314 C315 1.369 . S
C314 C318 1.531 . S
C315 C314 1.369 . S
C315 C316 1.410 1_655 S
C315 C323 1.503 1_556 S
C316 C315 1.410 1_455 S
C316 C317 1.392 . S
C316 C319 1.511 . S
C317 C313 1.376 1_455 S
C317 C316 1.392 . S
C317 H329 0.929 . S
C318 C314 1.531 . S
C318 H330 0.960 . S
C318 H331 0.962 . S
C318 H332 0.960 . S
C319 C316 1.511 . S
C319 H333 0.961 . S
C319 H334 0.961 1_556 S
C319 H335 0.961 1_556 S
C320 C321 1.370 . S
C320 C322 1.363 . S
C320 H336 0.931 . S
C321 C320 1.370 . S
C321 C325 1.408 . S
C322 C320 1.363 . S
C322 C323 1.370 . S
C322 C326 1.524 1_554 S
C323 C315 1.503 1_554 S
C323 C322 1.370 . S
C323 C324 1.403 . S
C324 C323 1.403 . S
C324 C325 1.404 . S
C324 C327 1.539 . S
C325 C321 1.408 . S
C325 C324 1.404 . S
C325 H337 0.930 . S
C326 C322 1.524 1_556 S
C326 H338 0.956 . S
C326 H339 0.961 . S
C326 H340 0.961 1_556 S
C327 C324 1.539 . S
C327 H341 0.958 . S
C327 H342 0.961 . S
C327 H343 0.960 1_554 S
H328 C312 0.931 . S
H329 C317 0.929 . S
H330 C318 0.960 . S
H331 C318 0.962 . S
H332 C318 0.960 . S
H333 C319 0.961 . S
H334 C319 0.961 1_554 S
H335 C319 0.961 1_554 S
H336 C320 0.931 . S
H337 C325 0.930 . S
H338 C326 0.956 . S
H339 C326 0.961 . S
H340 C326 0.961 1_554 S
H341 C327 0.958 . S
H342 C327 0.961 . S
H343 C327 0.960 1_556 S
C344 C345 1.391 . S
C344 C346 1.394 . S
C344 H360 0.931 . S
C345 C344 1.391 . S
C345 C349 1.376 . S
C346 C344 1.394 . S
C346 C347 1.369 . S
C346 C350 1.531 . S
C347 C346 1.369 . S
C347 C348 1.410 . S
C347 C355 1.503 . S
C348 C347 1.410 . S
C348 C349 1.392 . S
C348 C351 1.511 . S
C349 C345 1.376 . S
C349 C348 1.392 . S
C349 H361 0.929 . S
C350 C346 1.531 . S
C350 H362 0.960 . S
C350 H363 0.962 . S
C350 H364 0.960 . S
C351 C348 1.511 . S
C351 H365 0.961 . S
C351 H366 0.961 . S
C351 H367 0.961 . S
C352 C353 1.370 . S
C352 C354 1.363 . S
C352 H368 0.931 . S
C353 C352 1.370 . S
C353 C357 1.408 . S
C354 C352 1.363 . S
C354 C355 1.370 . S
C354 C358 1.524 . S
C355 C347 1.503 . S
C355 C354 1.370 . S
C355 C356 1.403 . S
C356 C355 1.403 . S
C356 C357 1.404 . S
C356 C359 1.539 . S
C357 C353 1.408 . S
C357 C356 1.404 . S
C357 H369 0.930 . S
C358 C354 1.524 . S
C358 H370 0.956 . S
C358 H371 0.961 . S
C358 H372 0.961 . S
C359 C356 1.539 . S
C359 H373 0.958 . S
C359 H374 0.961 . S
C359 H375 0.960 . S
H360 C344 0.931 . S
H361 C349 0.929 . S
H362 C350 0.960 . S
H363 C350 0.962 . S
H364 C350 0.960 . S
H365 C351 0.961 . S
H366 C351 0.961 . S
H367 C351 0.961 . S
H368 C352 0.931 . S
H369 C357 0.930 . S
H370 C358 0.956 . S
H371 C358 0.961 . S
H372 C358 0.961 . S
H373 C359 0.958 . S
H374 C359 0.961 . S
H375 C359 0.960 . S
C376 C377 1.391 . S
C376 C378 1.394 . S
C376 H392 0.931 . S
C377 C376 1.391 . S
C377 C381 1.376 . S
C378 C376 1.394 . S
C378 C379 1.369 . S
C378 C382 1.531 . S
C379 C378 1.369 . S
C379 C380 1.410 . S
C379 C387 1.503 . S
C380 C379 1.410 . S
C380 C381 1.392 . S
C380 C383 1.511 1_455 S
C381 C377 1.376 . S
C381 C380 1.392 . S
C381 H393 0.929 . S
C382 C378 1.531 . S
C382 H394 0.960 . S
C382 H395 0.962 . S
C382 H396 0.960 . S
C383 C380 1.511 1_655 S
C383 H397 0.961 . S
C383 H398 0.961 . S
C383 H399 0.961 . S
C384 C385 1.370 . S
C384 C386 1.363 . S
C384 H400 0.931 . S
C385 C384 1.370 . S
C385 C389 1.408 1_455 S
C386 C384 1.363 . S
C386 C387 1.370 . S
C386 C390 1.524 . S
C387 C379 1.503 . S
C387 C386 1.370 . S
C387 C388 1.403 1_455 S
C388 C387 1.403 1_655 S
C388 C389 1.404 . S
C388 C391 1.539 . S
C389 C385 1.408 1_655 S
C389 C388 1.404 . S
C389 H401 0.930 . S
C390 C386 1.524 . S
C390 H402 0.956 . S
C390 H403 0.961 . S
C390 H404 0.961 . S
C391 C388 1.539 . S
C391 H405 0.958 . S
C391 H406 0.961 . S
C391 H407 0.960 . S
H392 C376 0.931 . S
H393 C381 0.929 . S
H394 C382 0.960 . S
H395 C382 0.962 . S
H396 C382 0.960 . S
H397 C383 0.961 . S
H398 C383 0.961 . S
H399 C383 0.961 . S
H400 C384 0.931 . S
H401 C389 0.930 . S
H402 C390 0.956 . S
H403 C390 0.961 . S
H404 C390 0.961 . S
H405 C391 0.958 . S
H406 C391 0.961 . S
H407 C391 0.960 . S
C121 C10 1.499 . S
C129 C19 1.557 1_655 S
C153 C59 1.616 . S
C161 C50 1.647 1_455 S
C185 C90 1.328 . S
C193 C99 1.339 . S
C217 C87 1.010 . S
C225 C16 1.004 1_545 S
C249 C51 1.999 . S
C257 C7 1.924 . S
C281 C91 2.445 . S
C289 C42 2.461 . S
C313 C82 2.348 . S
C321 C11 2.295 . S
C345 C2 1.708 . S
C353 C56 1.632 . S
C377 C96 0.934 . S
C385 C47 0.982 1_455 S
