# Generated by pormake.
# Topology unv, (4)-cn, num edge types: 1
# Building blocks:
#     Node 0, Type 0, BuildingBlock: NAHDIM_clean_sbu_0, # of connection points: 4
#     Node 1, Type 0, BuildingBlock: NAHDIM_clean_sbu_0, # of connection points: 4
#     Node 2, Type 0, BuildingBlock: NAHDIM_clean_sbu_0, # of connection points: 4
#     Node 3, Type 0, BuildingBlock: NAHDIM_clean_sbu_0, # of connection points: 4
#     Node 4, Type 0, BuildingBlock: NAHDIM_clean_sbu_0, # of connection points: 4
#     Node 5, Type 0, BuildingBlock: NAHDIM_clean_sbu_0, # of connection points: 4
#     Node 6, Type 0, BuildingBlock: NAHDIM_clean_sbu_0, # of connection points: 4
#     Node 7, Type 0, BuildingBlock: NAHDIM_clean_sbu_0, # of connection points: 4
#     Node 8, Type 0, BuildingBlock: NAHDIM_clean_sbu_0, # of connection points: 4
#     Node 9, Type 0, BuildingBlock: NAHDIM_clean_sbu_0, # of connection points: 4
#     Node 10, Type 0, BuildingBlock: NAHDIM_clean_sbu_0, # of connection points: 4
#     Node 11, Type 0, BuildingBlock: NAHDIM_clean_sbu_0, # of connection points: 4
#     Node 12, Type 0, BuildingBlock: NAHDIM_clean_sbu_0, # of connection points: 4
#     Node 13, Type 0, BuildingBlock: NAHDIM_clean_sbu_0, # of connection points: 4
#     Node 14, Type 0, BuildingBlock: NAHDIM_clean_sbu_0, # of connection points: 4
#     Node 15, Type 0, BuildingBlock: NAHDIM_clean_sbu_0, # of connection points: 4
#     Node 16, Type 0, BuildingBlock: NAHDIM_clean_sbu_0, # of connection points: 4
#     Node 17, Type 0, BuildingBlock: NAHDIM_clean_sbu_0, # of connection points: 4
#     Node 18, Type 0, BuildingBlock: NAHDIM_clean_sbu_0, # of connection points: 4
#     Node 19, Type 0, BuildingBlock: NAHDIM_clean_sbu_0, # of connection points: 4
#     Node 20, Type 0, BuildingBlock: NAHDIM_clean_sbu_0, # of connection points: 4
#     Node 21, Type 0, BuildingBlock: NAHDIM_clean_sbu_0, # of connection points: 4
#     Node 22, Type 0, BuildingBlock: NAHDIM_clean_sbu_0, # of connection points: 4
#     Node 23, Type 0, BuildingBlock: NAHDIM_clean_sbu_0, # of connection points: 4
#     Edge 24, Type (0, 0), BuildingBlock: XUDNAN_clean_linker_2, # of connection points: 2
#     Edge 25, Type (0, 0), BuildingBlock: XUDNAN_clean_linker_2, # of connection points: 2
#     Edge 26, Type (0, 0), BuildingBlock: XUDNAN_clean_linker_2, # of connection points: 2
#     Edge 27, Type (0, 0), BuildingBlock: XUDNAN_clean_linker_2, # of connection points: 2
#     Edge 28, Type (0, 0), BuildingBlock: XUDNAN_clean_linker_2, # of connection points: 2
#     Edge 29, Type (0, 0), BuildingBlock: XUDNAN_clean_linker_2, # of connection points: 2
#     Edge 30, Type (0, 0), BuildingBlock: XUDNAN_clean_linker_2, # of connection points: 2
#     Edge 31, Type (0, 0), BuildingBlock: XUDNAN_clean_linker_2, # of connection points: 2
#     Edge 32, Type (0, 0), BuildingBlock: XUDNAN_clean_linker_2, # of connection points: 2
#     Edge 33, Type (0, 0), BuildingBlock: XUDNAN_clean_linker_2, # of connection points: 2
#     Edge 34, Type (0, 0), BuildingBlock: XUDNAN_clean_linker_2, # of connection points: 2
#     Edge 35, Type (0, 0), BuildingBlock: XUDNAN_clean_linker_2, # of connection points: 2
#     Edge 36, Type (0, 0), BuildingBlock: XUDNAN_clean_linker_2, # of connection points: 2
#     Edge 37, Type (0, 0), BuildingBlock: XUDNAN_clean_linker_2, # of connection points: 2
#     Edge 38, Type (0, 0), BuildingBlock: XUDNAN_clean_linker_2, # of connection points: 2
#     Edge 39, Type (0, 0), BuildingBlock: XUDNAN_clean_linker_2, # of connection points: 2
#     Edge 40, Type (0, 0), BuildingBlock: XUDNAN_clean_linker_2, # of connection points: 2
#     Edge 41, Type (0, 0), BuildingBlock: XUDNAN_clean_linker_2, # of connection points: 2
#     Edge 42, Type (0, 0), BuildingBlock: XUDNAN_clean_linker_2, # of connection points: 2
#     Edge 43, Type (0, 0), BuildingBlock: XUDNAN_clean_linker_2, # of connection points: 2
#     Edge 44, Type (0, 0), BuildingBlock: XUDNAN_clean_linker_2, # of connection points: 2
#     Edge 45, Type (0, 0), BuildingBlock: XUDNAN_clean_linker_2, # of connection points: 2
#     Edge 46, Type (0, 0), BuildingBlock: XUDNAN_clean_linker_2, # of connection points: 2
#     Edge 47, Type (0, 0), BuildingBlock: XUDNAN_clean_linker_2, # of connection points: 2
#     Edge 48, Type (0, 0), BuildingBlock: XUDNAN_clean_linker_2, # of connection points: 2
#     Edge 49, Type (0, 0), BuildingBlock: XUDNAN_clean_linker_2, # of connection points: 2
#     Edge 50, Type (0, 0), BuildingBlock: XUDNAN_clean_linker_2, # of connection points: 2
#     Edge 51, Type (0, 0), BuildingBlock: XUDNAN_clean_linker_2, # of connection points: 2
#     Edge 52, Type (0, 0), BuildingBlock: XUDNAN_clean_linker_2, # of connection points: 2
#     Edge 53, Type (0, 0), BuildingBlock: XUDNAN_clean_linker_2, # of connection points: 2
#     Edge 54, Type (0, 0), BuildingBlock: XUDNAN_clean_linker_2, # of connection points: 2
#     Edge 55, Type (0, 0), BuildingBlock: XUDNAN_clean_linker_2, # of connection points: 2
#     Edge 56, Type (0, 0), BuildingBlock: XUDNAN_clean_linker_2, # of connection points: 2
#     Edge 57, Type (0, 0), BuildingBlock: XUDNAN_clean_linker_2, # of connection points: 2
#     Edge 58, Type (0, 0), BuildingBlock: XUDNAN_clean_linker_2, # of connection points: 2
#     Edge 59, Type (0, 0), BuildingBlock: XUDNAN_clean_linker_2, # of connection points: 2
#     Edge 60, Type (0, 0), BuildingBlock: XUDNAN_clean_linker_2, # of connection points: 2
#     Edge 61, Type (0, 0), BuildingBlock: XUDNAN_clean_linker_2, # of connection points: 2
#     Edge 62, Type (0, 0), BuildingBlock: XUDNAN_clean_linker_2, # of connection points: 2
#     Edge 63, Type (0, 0), BuildingBlock: XUDNAN_clean_linker_2, # of connection points: 2
#     Edge 64, Type (0, 0), BuildingBlock: XUDNAN_clean_linker_2, # of connection points: 2
#     Edge 65, Type (0, 0), BuildingBlock: XUDNAN_clean_linker_2, # of connection points: 2
#     Edge 66, Type (0, 0), BuildingBlock: XUDNAN_clean_linker_2, # of connection points: 2
#     Edge 67, Type (0, 0), BuildingBlock: XUDNAN_clean_linker_2, # of connection points: 2
#     Edge 68, Type (0, 0), BuildingBlock: XUDNAN_clean_linker_2, # of connection points: 2
#     Edge 69, Type (0, 0), BuildingBlock: XUDNAN_clean_linker_2, # of connection points: 2
#     Edge 70, Type (0, 0), BuildingBlock: XUDNAN_clean_linker_2, # of connection points: 2
#     Edge 71, Type (0, 0), BuildingBlock: XUDNAN_clean_linker_2, # of connection points: 2
# Relax obj value: 0.371
# Max RMSD: 0.323
# Mean RMSD: 0.307
data_MOF--net-unv--node1-NAHDIM_clean_sbu_0--edge1-XUDNAN_clean_linker_2
_symmetry_space_group_name_H-M    P1
_symmetry_Int_Tables_number       1
_symmetry_cell_setting            triclinic
loop_
_symmetry_equiv_pos_as_xyz
'x, y, z'
_cell_length_a     48.076608
_cell_length_b     48.018457
_cell_length_c     48.043196
_cell_angle_alpha  90.044821
_cell_angle_beta   89.981533
_cell_angle_gamma 89.941059
loop_
_atom_site_label
_atom_site_type_symbol
_atom_site_fract_x
_atom_site_fract_y
_atom_site_fract_z
_atom_type_partial_charge
C0 C 0.02088 0.16787 0.35574 0.0
O1 O 0.02955 0.15204 0.3352 0.0
O2 O 0.05191 0.10059 0.35575 0.0
Zn3 Zn 0.03598 0.12 0.38959 0.0
O4 O 0.06397 0.12068 0.4209 0.0
C5 C 0.01044 0.07076 0.40773 0.0
O6 O 0.03582 0.06214 0.40231 0.0
O7 O 0.02203 0.15869 0.38054 0.0
C8 C 0.08706 0.10784 0.41933 0.0
O9 O 0.09429 0.0963 0.39561 0.0
C10 C 0.03526 0.08801 0.3395 0.0
O11 O 0.00838 0.08978 0.34415 0.0
O12 O 0.00447 0.09625 0.40378 0.0
C13 C 0.94591 0.35822 0.35578 0.0
O14 O 0.94493 0.36736 0.38155 0.0
O15 O 0.91551 0.43522 0.31281 0.0
Zn16 Zn 0.92994 0.41426 0.34586 0.0
O17 O 0.90427 0.41535 0.37894 0.0
C18 C 0.97141 0.45809 0.35213 0.0
O19 O 0.95661 0.47088 0.33304 0.0
O20 O 0.93967 0.37474 0.33609 0.0
C21 C 0.90275 0.43852 0.39165 0.0
O22 O 0.91333 0.46075 0.37977 0.0
C23 C 0.89227 0.44757 0.31023 0.0
O24 O 0.87348 0.44529 0.32995 0.0
O25 O 0.96476 0.4335 0.35936 0.0
C26 C 0.00584 0.86377 0.16604 0.0
O27 O 0.98287 0.87845 0.16395 0.0
O28 O 0.0427 0.93949 0.18608 0.0
Zn29 Zn 0.03237 0.91625 0.15289 0.0
O30 O 0.05978 0.92085 0.12173 0.0
C31 C 0.97881 0.94389 0.15407 0.0
O32 O 0.98316 0.94432 0.18107 0.0
O33 O 0.02917 0.87572 0.1627 0.0
C34 C 0.08253 0.90769 0.11875 0.0
O35 O 0.09042 0.88983 0.13789 0.0
C36 C 0.06568 0.9518 0.19039 0.0
O37 O 0.08638 0.94827 0.1729 0.0
O38 O 0.99628 0.9317 0.13835 0.0
C39 C 0.96333 0.66604 0.14956 0.0
O40 O 0.93648 0.66251 0.14589 0.0
O41 O 0.94554 0.58892 0.16119 0.0
Zn42 Zn 0.96514 0.6095 0.1307 0.0
O43 O 0.93802 0.61553 0.09935 0.0
C44 C 0.00655 0.56614 0.1334 0.0
O45 O 0.99597 0.56274 0.15836 0.0
O46 O 0.97977 0.64594 0.14456 0.0
C47 C 0.94465 0.6117 0.07404 0.0
O48 O 0.9703 0.60456 0.06786 0.0
C49 C 0.91966 0.58893 0.16655 0.0
O50 O 0.90282 0.60501 0.15223 0.0
O51 O 0.99715 0.58538 0.11782 0.0
C52 C 0.34322 0.02049 0.13533 0.0
O53 O 0.32799 0.03975 0.12332 0.0
O54 O 0.34983 0.04315 0.0646 0.0
Zn55 Zn 0.3809 0.02965 0.08893 0.0
O56 O 0.40762 0.06109 0.09586 0.0
C57 C 0.38954 0.98582 0.04843 0.0
O58 O 0.36324 0.99046 0.04266 0.0
O59 O 0.36634 0.01355 0.12453 0.0
C60 C 0.43331 0.05565 0.09884 0.0
O61 O 0.44141 0.02952 0.09945 0.0
C62 C 0.34013 0.06774 0.06364 0.0
O63 O 0.34996 0.08688 0.08052 0.0
O64 O 0.40117 -0.0004 0.06778 0.0
C65 C 0.61674 0.47355 0.16527 0.0
O66 O 0.62051 0.44713 0.15921 0.0
O67 O 0.62923 0.45555 0.0905 0.0
Zn68 Zn 0.59819 0.47735 0.10803 0.0
O69 O 0.56268 0.45555 0.10581 0.0
C70 C 0.61574 0.52223 0.07342 0.0
O71 O 0.64018 0.51437 0.08282 0.0
O72 O 0.60728 0.48986 0.14675 0.0
C73 C 0.53968 0.468 0.1097 0.0
O74 O 0.53997 0.49414 0.11781 0.0
C75 C 0.62521 0.45117 0.06471 0.0
O76 O 0.60071 0.45708 0.05409 0.0
O77 O 0.59397 0.51071 0.08308 0.0
C78 C 0.32608 0.92176 0.31188 0.0
O79 O 0.34621 0.90338 0.31403 0.0
O80 O 0.29539 0.89851 0.39263 0.0
Zn81 Zn 0.32585 0.91814 0.37192 0.0
O82 O 0.36098 0.89521 0.37083 0.0
C83 C 0.33579 0.95104 0.42038 0.0
O84 O 0.33262 0.9266 0.43221 0.0
O85 O 0.31372 0.93005 0.33374 0.0
C86 C 0.3841 0.90791 0.36915 0.0
O87 O 0.38416 0.93519 0.36704 0.0
C88 C 0.29901 0.87646 0.40682 0.0
O89 O 0.32283 0.86315 0.40501 0.0
O90 O 0.3339 0.95289 0.39406 0.0
C91 C 0.65515 0.50861 0.36274 0.0
O92 O 0.66087 0.48511 0.37552 0.0
O93 O 0.6926 0.53161 0.43202 0.0
Zn94 Zn 0.65289 0.53063 0.41875 0.0
O95 O 0.62868 0.56218 0.43249 0.0
C96 C 0.64926 0.4752 0.44327 0.0
O97 O 0.67655 0.47594 0.44242 0.0
O98 O 0.65149 0.53058 0.37703 0.0
C99 C 0.61682 0.56034 0.45609 0.0
O100 O 0.62356 0.53965 0.47267 0.0
C101 C 0.70054 0.54203 0.45499 0.0
O102 O 0.68265 0.55595 0.47028 0.0
O103 O 0.63539 0.49546 0.43338 0.0
C104 C 0.14014 0.36446 0.98038 0.0
O105 O 0.13223 0.39047 0.97728 0.0
O106 O 0.07137 0.332 0.03361 0.0
Zn107 Zn 0.0902 0.36248 0.01232 0.0
O108 O 0.09894 0.39587 0.03612 0.0
C109 C 0.04146 0.38769 0.99544 0.0
O110 O 0.04034 0.389 0.02273 0.0
O111 O 0.12491 0.34801 0.99433 0.0
C112 C 0.09102 0.3988 0.06118 0.0
O113 O 0.07915 0.37773 0.07392 0.0
C114 C 0.08339 0.31272 0.0471 0.0
O115 O 0.11065 0.31263 0.04903 0.0
O116 O 0.0623 0.37594 0.98409 0.0
C117 C 0.14232 0.6576 0.51531 0.0
O118 O 0.12754 0.67607 0.52908 0.0
O119 O 0.06893 0.66827 0.50972 0.0
Zn120 Zn 0.08886 0.63153 0.50518 0.0
O121 O 0.07689 0.61016 0.47097 0.0
C122 C 0.06992 0.61073 0.5607 0.0
O123 O 0.06976 0.63646 0.57 0.0
O124 O 0.13013 0.63713 0.50382 0.0
C125 C 0.0543 0.59657 0.47306 0.0
O126 O 0.03891 0.59956 0.49543 0.0
C127 C 0.04804 0.67581 0.49537 0.0
O128 O 0.03853 0.65927 0.4758 0.0
O129 O 0.07872 0.60567 0.5363 0.0
C130 C 0.83542 0.87908 0.52518 0.0
O131 O 0.83801 0.90629 0.52411 0.0
O132 O 0.92338 0.85557 0.53648 0.0
Zn133 Zn 0.89227 0.88349 0.54093 0.0
O134 O 0.89625 0.91616 0.51416 0.0
C135 C 0.91155 0.90335 0.5981 0.0
O136 O 0.90499 0.90979 0.62387 0.0
O137 O 0.85615 0.86445 0.53254 0.0
C138 C 0.91225 0.91484 0.49313 0.0
O139 O 0.92532 0.89142 0.48776 0.0
C140 C 0.92195 0.83475 0.52022 0.0
O141 O 0.89948 0.83111 0.50511 0.0
O142 O 0.89196 0.89688 0.58132 0.0
C143 C 0.34303 0.63558 0.48695 0.0
O144 O 0.34737 0.61227 0.47326 0.0
O145 O 0.43088 0.6564 0.50565 0.0
Zn146 Zn 0.40117 0.63085 0.49137 0.0
O147 O 0.40152 0.59438 0.5124 0.0
C148 C 0.42848 0.62215 0.43493 0.0
O149 O 0.42531 0.62066 0.4078 0.0
O150 O 0.36376 0.64857 0.49691 0.0
C151 C 0.38666 0.59018 0.53389 0.0
O152 O 0.36983 0.60991 0.54263 0.0
C153 C 0.43583 0.66054 0.53129 0.0
O154 O 0.42056 0.64802 0.55017 0.0
O155 O 0.4068 0.62511 0.44994 0.0
C156 C 0.57439 0.65649 0.82213 0.0
O157 O 0.59807 0.64293 0.82395 0.0
O158 O 0.56612 0.57848 0.8059 0.0
Zn159 Zn 0.55077 0.60309 0.8361 0.0
O160 O 0.57254 0.59718 0.87141 0.0
C161 C 0.4958 0.57953 0.82543 0.0
O162 O 0.50537 0.5748 0.80026 0.0
O163 O 0.55173 0.64342 0.82577 0.0
C164 C 0.56013 0.59968 0.89465 0.0
O165 O 0.53375 0.60679 0.89496 0.0
C166 C 0.56338 0.55235 0.80918 0.0
O167 O 0.5524 0.54299 0.83241 0.0
O168 O 0.51103 0.59183 0.84321 0.0
C169 C 0.53358 0.85528 0.83469 0.0
O170 O 0.50669 0.85859 0.83834 0.0
O171 O 0.50413 0.92576 0.82215 0.0
Zn172 Zn 0.53215 0.91208 0.85006 0.0
O173 O 0.51353 0.90764 0.88731 0.0
C174 C 0.57049 0.95685 0.83568 0.0
O175 O 0.56396 0.95079 0.80983 0.0
O176 O 0.54957 0.87601 0.83825 0.0
C177 C 0.48729 0.90798 0.89047 0.0
O178 O 0.4712 0.90937 0.86842 0.0
C179 C 0.50461 0.92025 0.79629 0.0
O180 O 0.52414 0.90385 0.78639 0.0
O181 O 0.56055 0.9422 0.85531 0.0
C182 C 0.49941 0.32817 0.64116 0.0
O183 O 0.52663 0.33062 0.64103 0.0
O184 O 0.52094 0.40435 0.66045 0.0
Zn185 Zn 0.50276 0.38598 0.62742 0.0
O186 O 0.53143 0.38062 0.59721 0.0
C187 C 0.4547 0.42296 0.62748 0.0
O188 O 0.45115 0.41425 0.65315 0.0
O189 O 0.48458 0.34958 0.63665 0.0
C190 C 0.52456 0.38466 0.57199 0.0
O191 O 0.4984 0.3898 0.56597 0.0
C192 C 0.53742 0.42415 0.65438 0.0
O193 O 0.54204 0.4298 0.62803 0.0
O194 O 0.47453 0.41311 0.61306 0.0
C195 C 0.45178 0.13047 0.63239 0.0
O196 O 0.47408 0.11527 0.63678 0.0
O197 O 0.42321 0.05492 0.64873 0.0
Zn198 Zn 0.43062 0.07781 0.61459 0.0
O199 O 0.40286 0.06769 0.58518 0.0
C200 C 0.4864 0.05339 0.61278 0.0
O201 O 0.48258 0.0487 0.63942 0.0
O202 O 0.42995 0.11884 0.62307 0.0
C203 C 0.40319 0.07991 0.56174 0.0
O204 O 0.42009 0.10108 0.55803 0.0
C205 C 0.42457 0.02861 0.6461 0.0
O206 O 0.42891 0.01792 0.62128 0.0
O207 O 0.468 0.06648 0.59897 0.0
C208 C 0.83259 0.4489 0.65052 0.0
O209 O 0.81677 0.45181 0.62845 0.0
O210 O 0.8574 0.45279 0.57959 0.0
Zn211 Zn 0.88012 0.4392 0.61231 0.0
O212 O 0.9156 0.46215 0.61674 0.0
C213 C 0.89068 0.38376 0.58599 0.0
O214 O 0.89236 0.35649 0.58717 0.0
O215 O 0.8584 0.44378 0.6478 0.0
C216 C 0.92307 0.47982 0.5985 0.0
O217 O 0.90801 0.48329 0.57602 0.0
C218 C 0.84673 0.47702 0.57915 0.0
O219 O 0.8504 0.4937 0.60053 0.0
O220 O 0.88781 0.39758 0.60846 0.0
C221 C 0.16408 0.9461 0.66069 0.0
O222 O 0.13851 0.93718 0.65715 0.0
O223 O 0.18505 0.92836 0.57477 0.0
Zn224 Zn 0.16179 0.95075 0.60112 0.0
O225 O 0.12346 0.93419 0.60141 0.0
C226 C 0.17076 0.99705 0.56343 0.0
O227 O 0.1896 0.98032 0.5528 0.0
O228 O 0.17847 0.95268 0.63951 0.0
C229 C 0.11226 0.93102 0.57769 0.0
O230 O 0.1266 0.93754 0.55534 0.0
C231 C 0.19142 0.90271 0.57535 0.0
O232 O 0.1839 0.88726 0.59662 0.0
O233 O 0.15741 0.98944 0.58499 0.0
C234 C 0.81095 0.4723 0.8502 0.0
O235 O 0.82121 0.45101 0.86396 0.0
O236 O 0.79553 0.47907 0.92864 0.0
Zn237 Zn 0.8225 0.49628 0.90183 0.0
O238 O 0.85804 0.47437 0.90405 0.0
C239 C 0.81884 0.54893 0.93193 0.0
O240 O 0.79336 0.54114 0.93794 0.0
O241 O 0.80834 0.49555 0.86256 0.0
C242 C 0.87105 0.47587 0.927 0.0
O243 O 0.86028 0.49064 0.94738 0.0
C244 C 0.76931 0.47952 0.92555 0.0
O245 O 0.75863 0.49152 0.90343 0.0
O246 O 0.8331 0.53448 0.91497 0.0
C247 C 0.18843 -0.00119 0.85517 0.0
O248 O 0.20937 0.00994 0.86874 0.0
O249 O 0.1887 0.03688 0.91866 0.0
Zn250 Zn 0.15597 0.01613 0.90326 0.0
O251 O 0.12251 0.04091 0.90039 0.0
C252 C 0.16487 0.97309 0.94449 0.0
O253 O 0.19115 0.976 0.93757 0.0
O254 O 0.16436 -0.00109 0.86611 0.0
C255 C 0.09994 0.03037 0.89156 0.0
O256 O 0.09998 0.00443 0.88282 0.0
C257 C 0.18668 0.05975 0.93183 0.0
O258 O 0.16238 0.07217 0.93358 0.0
O259 O 0.14647 0.987 0.93154 0.0
C260 C 0.64168 0.83005 0.48921 0.0
O261 O 0.62829 0.80633 0.49151 0.0
O262 O 0.5721 0.81971 0.5112 0.0
Zn263 Zn 0.58692 0.85496 0.49463 0.0
O264 O 0.5786 0.88793 0.51905 0.0
C265 C 0.55712 0.84031 0.4448 0.0
O266 O 0.5641 0.81493 0.45226 0.0
O267 O 0.62807 0.85273 0.48909 0.0
C268 C 0.58566 0.91151 0.50939 0.0
O269 O 0.59827 0.91255 0.48514 0.0
C270 C 0.56582 0.81504 0.53643 0.0
O271 O 0.57008 0.83445 0.55524 0.0
O272 O 0.56628 0.86084 0.45877 0.0
C273 C 0.66055 0.19561 0.96061 0.0
O274 O 0.65088 0.20281 0.93608 0.0
O275 O 0.58373 0.19765 0.94679 0.0
Zn276 Zn 0.6068 0.16908 0.96685 0.0
O277 O 0.61058 0.13535 0.94236 0.0
C278 C 0.5723 0.17334 0.01659 0.0
O279 O 0.57272 0.20017 0.01137 0.0
O280 O 0.64493 0.18232 0.97728 0.0
C281 C 0.61571 0.13662 0.91644 0.0
O282 O 0.6191 0.16105 0.90466 0.0
C283 C 0.58474 0.22378 0.95081 0.0
O284 O 0.60303 0.23395 0.9684 0.0
O285 O 0.58591 0.15684 0.00098 0.0
C286 C 0.33707 0.3496 0.93551 0.0
O287 O 0.35528 0.33021 0.94189 0.0
O288 O 0.41166 0.35458 0.91871 0.0
Zn289 Zn 0.38555 0.38524 0.93014 0.0
O290 O 0.39138 0.41801 0.90505 0.0
C291 C 0.40756 0.38187 0.98657 0.0
O292 O 0.41291 0.35587 0.97996 0.0
O293 O 0.34557 0.37383 0.92926 0.0
C294 C 0.38046 0.4412 0.91159 0.0
O295 O 0.36452 0.4426 0.93377 0.0
C296 C 0.43744 0.36 0.92098 0.0
O297 O 0.44504 0.38494 0.9293 0.0
O298 O 0.39541 0.39756 0.96907 0.0
C299 C 0.85063 0.16052 0.01963 0.0
O300 O 0.85137 0.15037 0.04501 0.0
O301 O 0.93147 0.16807 0.03634 0.0
Zn302 Zn 0.90683 0.13994 0.0178 0.0
O303 O 0.89859 0.10936 0.04529 0.0
C304 C 0.94906 0.13485 0.9747 0.0
O305 O 0.95736 0.15912 0.98417 0.0
O306 O 0.87199 0.15837 0.00422 0.0
C307 C 0.8983 0.08404 0.03758 0.0
O308 O 0.9014 0.07812 0.01106 0.0
C309 C 0.95253 0.16002 0.05018 0.0
O310 O 0.95697 0.13319 0.05325 0.0
O311 O 0.9277 0.12341 0.98528 0.0
H312 H 0.18246 0.00973 0.50935 0.0
H313 H 0.13774 0.03992 0.5818 0.0
H314 H 0.11728 0.07759 0.55339 0.0
H315 H 0.19343 0.07904 0.47446 0.0
H316 H 0.18747 0.06406 0.44057 0.0
H317 H 0.20307 0.04338 0.46772 0.0
H318 H 0.16464 0.0061 0.4614 0.0
H319 H 0.1489 0.02663 0.43443 0.0
H320 H 0.12863 0.01626 0.46424 0.0
H321 H 0.09643 0.10722 0.51595 0.0
H322 H 0.07558 0.12507 0.47258 0.0
H323 H 0.13318 0.07476 0.42437 0.0
C324 C 0.16915 0.02485 0.5195 0.0
C325 C 0.16191 0.02209 0.54786 0.0
C326 C 0.14373 0.04178 0.56015 0.0
C327 C 0.1321 0.06332 0.54419 0.0
C328 C 0.13894 0.06489 0.51602 0.0
C329 C 0.15715 0.04622 0.50381 0.0
C330 C 0.15827 0.05002 0.47255 0.0
C331 C 0.18729 0.05971 0.46329 0.0
C332 C 0.14958 0.02317 0.45728 0.0
C333 C 0.13692 0.07291 0.46891 0.0
C334 C 0.12647 0.08166 0.49426 0.0
C335 C 0.10483 0.10092 0.49601 0.0
C336 C 0.09308 0.11092 0.47123 0.0
C337 C 0.10278 0.10138 0.44504 0.0
C338 C 0.12553 0.08277 0.44401 0.0
H339 H 0.87303 0.40026 0.42204 0.0
H340 H 0.9203 0.47691 0.42939 0.0
H341 H 0.91964 0.4725 0.4804 0.0
H342 H 0.82996 0.41279 0.48704 0.0
H343 H 0.82964 0.37618 0.49526 0.0
H344 H 0.83064 0.38732 0.45945 0.0
H345 H 0.875 0.35753 0.45179 0.0
H346 H 0.87453 0.34679 0.48765 0.0
H347 H 0.90501 0.36341 0.47351 0.0
H348 H 0.92301 0.45451 0.52863 0.0
H349 H 0.92069 0.42933 0.57355 0.0
H350 H 0.86679 0.36758 0.53674 0.0
C351 C 0.88245 0.41654 0.43446 0.0
C352 C 0.89676 0.43887 0.42177 0.0
C353 C 0.90904 0.45972 0.43863 0.0
C354 C 0.90891 0.45734 0.46765 0.0
C355 C 0.89578 0.43441 0.47947 0.0
C356 C 0.88194 0.41486 0.46356 0.0
C357 C 0.87016 0.39182 0.48162 0.0
C358 C 0.8382 0.39205 0.48079 0.0
C359 C 0.88189 0.36321 0.47313 0.0
C360 C 0.88086 0.40075 0.5099 0.0
C361 C 0.89568 0.42533 0.50809 0.0
C362 C 0.91016 0.43615 0.53072 0.0
C363 C 0.90851 0.42205 0.55615 0.0
C364 C 0.89212 0.39791 0.55891 0.0
C365 C 0.87859 0.38673 0.53536 0.0
H366 H 0.06717 0.93579 0.07191 0.0
H367 H 0.13605 0.89013 0.1084 0.0
H368 H 0.16417 0.89917 0.06614 0.0
H369 H 0.07781 0.91228 0.00084 0.0
H370 H 0.06802 0.94542 0.98619 0.0
H371 H 0.05324 0.93428 0.01879 0.0
H372 H 0.07039 0.97971 0.04235 0.0
H373 H 0.0851 0.99103 0.00985 0.0
H374 H 0.10672 0.98881 0.04042 0.0
H375 H 0.18553 0.91609 0.0207 0.0
H376 H 0.19801 0.93893 0.97625 0.0
H377 H 0.11408 0.97173 0.96986 0.0
C378 C 0.08813 0.92755 0.07106 0.0
C379 C 0.09947 0.91233 0.09349 0.0
C380 C 0.12694 0.90183 0.09143 0.0
C381 C 0.14303 0.90683 0.06751 0.0
C382 C 0.13119 0.92206 0.04582 0.0
C383 C 0.10428 0.9321 0.04738 0.0
C384 C 0.09646 0.94841 0.02165 0.0
C385 C 0.07246 0.93424 0.00594 0.0
C386 C 0.08926 0.97879 0.02902 0.0
C387 C 0.12336 0.9465 0.0055 0.0
C388 C 0.14316 0.93116 0.01965 0.0
C389 C 0.17007 0.92786 0.00931 0.0
C390 C 0.17697 0.94089 0.98406 0.0
C391 C 0.15698 0.95695 0.96947 0.0
C392 C 0.12976 0.95931 0.98025 0.0
H393 H 0.94872 0.59218 0.02071 0.0
H394 H 0.89124 0.63114 0.07854 0.0
H395 H 0.85349 0.62645 0.04403 0.0
H396 H 0.91728 0.62005 0.95505 0.0
H397 H 0.9233 0.5877 0.93695 0.0
H398 H 0.94678 0.59868 0.96407 0.0
H399 H 0.93899 0.55187 0.98985 0.0
H400 H 0.91562 0.54079 0.96289 0.0
H401 H 0.90407 0.54137 -0.00143 0.0
H402 H 0.82075 0.61096 0.00656 0.0
H403 H 0.7958 0.58507 0.96978 0.0
H404 H 0.87484 0.55706 0.93618 0.0
C405 C 0.92841 0.60052 0.02581 0.0
C406 C 0.92296 0.6122 0.05223 0.0
C407 C 0.89591 0.62221 0.05836 0.0
C408 C 0.87437 0.61977 0.03884 0.0
C409 C 0.88024 0.60742 0.01324 0.0
C410 C 0.90667 0.59807 0.00665 0.0
C411 C 0.90691 0.58269 0.97915 0.0
C412 C 0.92462 0.59822 0.95752 0.0
C413 C 0.91697 0.55241 0.98286 0.0
C414 C 0.87633 0.58392 0.97181 0.0
C415 C 0.86131 0.59862 0.99149 0.0
C416 C 0.83234 0.59995 0.99067 0.0
C417 C 0.81832 0.58518 0.96971 0.0
C418 C 0.83333 0.56925 0.94995 0.0
C419 C 0.86273 0.56953 0.95056 0.0
H420 H 0.48782 0.05052 0.08432 0.0
H421 H 0.42511 0.11163 0.10647 0.0
H422 H 0.45801 0.14947 0.09507 0.0
H423 H 0.55085 0.09196 0.10591 0.0
H424 H 0.57027 0.07954 0.07629 0.0
H425 H 0.54429 0.05764 0.09217 0.0
H426 H 0.51978 0.0523 0.04442 0.0
H427 H 0.54546 0.07424 0.02848 0.0
H428 H 0.50911 0.08306 0.02573 0.0
H429 H 0.49491 0.1802 0.07477 0.0
H430 H 0.5315 0.20103 0.04538 0.0
H431 H 0.56919 0.11953 0.03483 0.0
C432 C 0.48135 0.07185 0.08779 0.0
C433 C 0.45406 0.07818 0.09659 0.0
C434 C 0.44604 0.10636 0.09996 0.0
C435 C 0.46463 0.12797 0.09366 0.0
C436 C 0.49111 0.12101 0.08403 0.0
C437 C 0.49948 0.09359 0.08119 0.0
C438 C 0.52739 0.09149 0.06676 0.0
C439 C 0.54951 0.07945 0.08647 0.0
C440 C 0.52528 0.07427 0.03976 0.0
C441 C 0.53282 0.1219 0.06074 0.0
C442 C 0.51205 0.13869 0.07148 0.0
C443 C 0.51153 0.16732 0.06669 0.0
C444 C 0.53241 0.17896 0.04993 0.0
C445 C 0.55319 0.1619 0.0378 0.0
C446 C 0.5537 0.13315 0.04395 0.0
H447 H 0.5329 0.41656 0.08592 0.0
H448 H 0.48738 0.49058 0.11093 0.0
H449 H 0.44546 0.47255 0.08754 0.0
H450 H 0.50767 0.41306 0.02022 0.0
H451 H 0.50531 0.37568 0.01795 0.0
H452 H 0.53004 0.39138 0.04115 0.0
H453 H 0.50911 0.36415 0.08268 0.0
H454 H 0.48443 0.34803 0.05948 0.0
H455 H 0.47236 0.3666 0.0898 0.0
H456 H 0.41187 0.45127 0.05422 0.0
H457 H 0.38824 0.42678 0.01563 0.0
H458 H 0.45467 0.36568 0.01361 0.0
C459 C 0.51387 0.42856 0.08731 0.0
C460 C 0.51342 0.45497 0.10031 0.0
C461 C 0.48822 0.47025 0.10121 0.0
C462 C 0.46425 0.46014 0.08802 0.0
C463 C 0.46572 0.43456 0.07438 0.0
C464 C 0.48977 0.41874 0.07431 0.0
C465 C 0.4868 0.39338 0.05578 0.0
C466 C 0.50875 0.39341 0.0324 0.0
C467 C 0.48825 0.36644 0.07297 0.0
C468 C 0.45782 0.39811 0.0444 0.0
C469 C 0.44589 0.42182 0.05561 0.0
C470 C 0.42062 0.43224 0.04589 0.0
C471 C 0.4074 0.41829 0.02392 0.0
C472 C 0.41942 0.39412 0.01207 0.0
C473 C 0.4446 0.38361 0.02291 0.0
H474 H 0.53696 0.89006 0.42577 0.0
H475 H 0.52531 0.8007 0.41886 0.0
H476 H 0.48202 0.80851 0.39245 0.0
H477 H 0.47002 0.9063 0.44002 0.0
H478 H 0.46861 0.93835 0.42056 0.0
H479 H 0.5013 0.92605 0.43386 0.0
H480 H 0.52244 0.92719 0.38425 0.0
H481 H 0.48981 0.93986 0.37076 0.0
H482 H 0.50533 0.90885 0.35634 0.0
H483 H 0.43609 0.82589 0.37482 0.0
H484 H 0.39271 0.85163 0.36464 0.0
H485 H 0.43492 0.92954 0.382 0.0
C486 C 0.52582 0.87211 0.4179 0.0
C487 C 0.53456 0.84477 0.42435 0.0
C488 C 0.51916 0.82185 0.41402 0.0
C489 C 0.49451 0.82608 0.39899 0.0
C490 C 0.48581 0.85333 0.39408 0.0
C491 C 0.50127 0.87597 0.40282 0.0
C492 C 0.48613 0.90307 0.39736 0.0
C493 C 0.48122 0.91937 0.42456 0.0
C494 C 0.50187 0.92078 0.37589 0.0
C495 C 0.45916 0.89208 0.38546 0.0
C496 C 0.45946 0.86337 0.38341 0.0
C497 C 0.43585 0.84841 0.37564 0.0
C498 C 0.41128 0.86318 0.37005 0.0
C499 C 0.41055 0.89257 0.37227 0.0
C500 C 0.43499 0.90712 0.37955 0.0
H501 H 0.47778 0.63146 0.40844 0.0
H502 H 0.44358 0.60524 0.48745 0.0
H503 H 0.4906 0.59598 0.50507 0.0
H504 H 0.52418 0.57905 0.40261 0.0
H505 H 0.55176 0.5988 0.38664 0.0
H506 H 0.51632 0.60989 0.38271 0.0
H507 H 0.52893 0.65833 0.40298 0.0
H508 H 0.56458 0.64733 0.40697 0.0
H509 H 0.5456 0.66062 0.4365 0.0
H510 H 0.53993 0.58154 0.51107 0.0
H511 H 0.58671 0.56157 0.50441 0.0
H512 H 0.58945 0.59607 0.421 0.0
C513 C 0.48025 0.6246 0.42977 0.0
C514 C 0.45683 0.61981 0.44691 0.0
C515 C 0.46099 0.6101 0.47434 0.0
C516 C 0.48779 0.60466 0.48448 0.0
C517 C 0.51037 0.60903 0.46685 0.0
C518 C 0.50689 0.61892 0.44006 0.0
C519 C 0.53402 0.61823 0.42402 0.0
C520 C 0.53139 0.60042 0.39745 0.0
C521 C 0.54386 0.64789 0.41722 0.0
C522 C 0.55285 0.60463 0.44532 0.0
C523 C 0.53902 0.60021 0.47016 0.0
C524 C 0.55118 0.58543 0.49195 0.0
C525 C 0.57778 0.5741 0.48794 0.0
C526 C 0.59182 0.57732 0.46222 0.0
C527 C 0.5795 0.59365 0.44107 0.0
H528 H 0.06608 0.41466 0.11001 0.0
H529 H 0.11031 0.44729 0.03832 0.0
H530 H 0.09836 0.49505 0.05277 0.0
H531 H 0.01056 0.45782 0.10593 0.0
H532 H 0.0055 0.46279 0.14278 0.0
H533 H 0.02196 0.4316 0.13025 0.0
H534 H 0.06498 0.44127 0.16125 0.0
H535 H 0.04846 0.47241 0.17423 0.0
H536 H 0.08255 0.47432 0.15873 0.0
H537 H 0.07418 0.53795 0.06953 0.0
H538 H 0.04278 0.57329 0.09 0.0
H539 H 0.01576 0.51321 0.15171 0.0
C540 C 0.07414 0.43187 0.0979 0.0
C541 C 0.08914 0.42719 0.07305 0.0
C542 C 0.09884 0.45031 0.0575 0.0
C543 C 0.09218 0.47757 0.06555 0.0
C544 C 0.07619 0.4814 0.08942 0.0
C545 C 0.06773 0.45921 0.10569 0.0
C546 C 0.04854 0.46873 0.12883 0.0
C547 C 0.01996 0.45439 0.1268 0.0
C548 C 0.06194 0.4639 0.15746 0.0
C549 C 0.04651 0.49947 0.12222 0.0
C550 C 0.06277 0.50644 0.09956 0.0
C551 C 0.06196 0.53296 0.08777 0.0
C552 C 0.04396 0.55283 0.0994 0.0
C553 C 0.02717 0.54606 0.12263 0.0
C554 C 0.02888 0.51918 0.13438 0.0
H555 H 0.98315 0.5139 0.34935 0.0
H556 H 0.00492 0.43815 0.39363 0.0
H557 H 0.0331 0.46562 0.42652 0.0
H558 H 0.0508 0.55094 0.36057 0.0
H559 H 0.03358 0.584 0.36507 0.0
H560 H 0.01874 0.558 0.34243 0.0
H561 H 0.97256 0.56055 0.37012 0.0
H562 H 0.98727 0.58627 0.39299 0.0
H563 H 0.97296 0.55463 0.40717 0.0
H564 H 0.05259 0.5013 0.45845 0.0
H565 H 0.06461 0.54315 0.48595 0.0
H566 H 0.03133 0.59597 0.42093 0.0
C567 C 0.99452 0.50297 0.36544 0.0
C568 C 0.99191 0.47384 0.36883 0.0
C569 C 0.0067 0.46041 0.39052 0.0
C570 C 0.02279 0.47584 0.4093 0.0
C571 C 0.02411 0.50462 0.40596 0.0
C572 C 0.01068 0.51807 0.38439 0.0
C573 C 0.01354 0.54942 0.38688 0.0
C574 C 0.03016 0.56129 0.36227 0.0
C575 C 0.98488 0.56353 0.38945 0.0
C576 C 0.02984 0.55152 0.41377 0.0
C577 C 0.03591 0.52538 0.42428 0.0
C578 C 0.04865 0.52185 0.45008 0.0
C579 C 0.05533 0.54563 0.46554 0.0
C580 C 0.04938 0.57247 0.45508 0.0
C581 C 0.03671 0.57555 0.42884 0.0
H582 H 0.95767 0.92328 0.4602 0.0
H583 H 0.88416 0.96457 0.49263 0.0
H584 H 0.89947 0.00873 0.47101 0.0
H585 H 0.00347 0.97751 0.47433 0.0
H586 H 0.0246 0.97249 0.44373 0.0
H587 H 0.00609 0.94354 0.45855 0.0
H588 H 0.98187 0.93441 0.41119 0.0
H589 H 0.00047 0.96326 0.39613 0.0
H590 H 0.96303 0.96221 0.39443 0.0
H591 H 0.92473 0.04912 0.44853 0.0
H592 H 0.95827 0.08242 0.4281 0.0
H593 H 0.0156 0.01435 0.41216 0.0
C594 C 0.94441 0.94141 0.46219 0.0
C595 C 0.91958 0.94046 0.47783 0.0
C596 C 0.90319 0.96484 0.48057 0.0
C597 C 0.91169 0.98998 0.46833 0.0
C598 C 0.93665 0.99034 0.45354 0.0
C599 C 0.95273 0.96665 0.45043 0.0
C600 C 0.97973 0.97292 0.43556 0.0
C601 C 0.00495 0.96623 0.45416 0.0
C602 C 0.98136 0.95727 0.40767 0.0
C603 C 0.97656 0.00393 0.43116 0.0
C604 C 0.95146 0.01359 0.44134 0.0
C605 C 0.94436 0.04174 0.44029 0.0
C606 C 0.96353 0.06049 0.42868 0.0
C607 C 0.98955 0.05099 0.41859 0.0
C608 C 0.9959 0.0223 0.41969 0.0
H609 H 0.42231 0.54697 0.52332 0.0
H610 H 0.35862 0.57479 0.58112 0.0
H611 H 0.36647 0.53281 0.60976 0.0
H612 H 0.40749 0.47208 0.52852 0.0
H613 H 0.44377 0.4628 0.52639 0.0
H614 H 0.43127 0.49374 0.50924 0.0
H615 H 0.46775 0.52329 0.53581 0.0
H616 H 0.48028 0.49249 0.55301 0.0
H617 H 0.46878 0.52192 0.57329 0.0
H618 H 0.38407 0.4897 0.63406 0.0
H619 H 0.40986 0.44882 0.65183 0.0
H620 H 0.46147 0.44947 0.57763 0.0
C621 C 0.40967 0.54406 0.54175 0.0
C622 C 0.3898 0.56413 0.54995 0.0
C623 C 0.37392 0.55966 0.57439 0.0
C624 C 0.37819 0.53585 0.59077 0.0
C625 C 0.39827 0.51669 0.5823 0.0
C626 C 0.41364 0.52047 0.55828 0.0
C627 C 0.43498 0.49762 0.55452 0.0
C628 C 0.429 0.48055 0.5281 0.0
C629 C 0.46469 0.50955 0.55415 0.0
C630 C 0.42965 0.48071 0.58051 0.0
C631 C 0.40828 0.49187 0.59619 0.0
C632 C 0.40062 0.48056 0.62179 0.0
C633 C 0.4154 0.45738 0.63173 0.0
C634 C 0.43759 0.44587 0.61609 0.0
C635 C 0.44444 0.45757 0.58999 0.0
H636 H 0.56871 0.544 0.04979 0.0
H637 H 0.6583 0.53905 0.03951 0.0
H638 H 0.65428 0.56216 0.99385 0.0
H639 H 0.55156 0.52738 0.982 0.0
H640 H 0.52231 0.55075 0.97939 0.0
H641 H 0.53245 0.53722 0.01278 0.0
H642 H 0.53728 0.58741 0.03208 0.0
H643 H 0.52686 0.60115 -0.00122 0.0
H644 H 0.55924 0.61203 0.01424 0.0
H645 H 0.63985 0.57996 0.94677 0.0
H646 H 0.61627 0.59423 0.9033 0.0
H647 H 0.53641 0.58864 0.94506 0.0
C648 C 0.58757 0.5484 0.03827 0.0
C649 C 0.61382 0.53987 0.04831 0.0
C650 C 0.63797 0.54568 0.03241 0.0
C651 C 0.6359 0.55874 0.00639 0.0
C652 C 0.60959 0.56611 0.99673 0.0
C653 C 0.58589 0.56151 0.01237 0.0
C654 C 0.55996 0.56988 0.99661 0.0
C655 C 0.54044 0.54482 0.99245 0.0
C656 C 0.54496 0.59406 0.01131 0.0
C657 C 0.5727 0.57916 0.96938 0.0
C658 C 0.60135 0.57691 0.96984 0.0
C659 C 0.61747 0.58235 0.94634 0.0
C660 C 0.6039 0.59031 0.92172 0.0
C661 C 0.57455 0.59281 0.9209 0.0
C662 C 0.5589 0.58742 0.94517 0.0
H663 H 0.37591 0.96544 0.99708 0.0
H664 H 0.44143 0.96497 0.05919 0.0
H665 H 0.47149 0.93827 0.02714 0.0
H666 H 0.39137 0.89568 0.96577 0.0
H667 H 0.38386 0.90805 0.93116 0.0
H668 H 0.3658 0.92268 0.96065 0.0
H669 H 0.38174 0.97208 0.94601 0.0
H670 H 0.39985 0.95766 0.91661 0.0
H671 H 0.41832 0.97893 0.9414 0.0
H672 H 0.49633 0.9172 0.98666 0.0
H673 H 0.51466 0.90476 0.94035 0.0
H674 H 0.43319 0.91956 0.90427 0.0
C675 C 0.39627 0.95899 0.00426 0.0
C676 C 0.40626 0.96705 0.0307 0.0
C677 C 0.43331 0.95889 0.03905 0.0
C678 C 0.45048 0.9436 0.02105 0.0
C679 C 0.44026 0.9366 0.99483 0.0
C680 C 0.41374 0.94397 0.98646 0.0
C681 C 0.40888 0.93673 0.95617 0.0
C682 C 0.38613 0.91445 0.95328 0.0
C683 C 0.4018 0.96291 0.93906 0.0
C684 C 0.43716 0.92515 0.9485 0.0
C685 C 0.45479 0.92476 0.97123 0.0
C686 C 0.4826 0.91696 0.96882 0.0
C687 C 0.49283 0.90999 0.94239 0.0
C688 C 0.47534 0.91111 0.91868 0.0
C689 C 0.44699 0.91811 0.92202 0.0
H690 H 0.51998 0.41365 0.52354 0.0
H691 H 0.57844 0.36601 0.57315 0.0
H692 H 0.6162 0.37861 0.54055 0.0
H693 H 0.55261 0.4014 0.45385 0.0
H694 H 0.54556 0.43666 0.44306 0.0
H695 H 0.52236 0.41938 0.46693 0.0
H696 H 0.52848 0.45985 0.50215 0.0
H697 H 0.55174 0.47713 0.47854 0.0
H698 H 0.56298 0.46926 0.51345 0.0
H699 H 0.64839 0.40121 0.50618 0.0
H700 H 0.67266 0.43348 0.47444 0.0
H701 H 0.59313 0.46766 0.44861 0.0
C702 C 0.54052 0.40504 0.52701 0.0
C703 C 0.54626 0.38853 0.55061 0.0
C704 C 0.5736 0.37848 0.55501 0.0
C705 C 0.59513 0.38545 0.53656 0.0
C706 C 0.58893 0.40251 0.51391 0.0
C707 C 0.56225 0.41215 0.50908 0.0
C708 C 0.56162 0.43305 0.48553 0.0
C709 C 0.54453 0.42194 0.46088 0.0
C710 C 0.55057 0.46149 0.49553 0.0
C711 C 0.59223 0.43438 0.47845 0.0
C712 C 0.6076 0.41621 0.49462 0.0
C713 C 0.63654 0.41519 0.4931 0.0
C714 C 0.65014 0.43363 0.47501 0.0
C715 C 0.63479 0.45307 0.459 0.0
C716 C 0.60545 0.45289 0.46036 0.0
H717 H 0.37657 0.02965 0.55978 0.0
H718 H 0.39725 0.10166 0.50931 0.0
H719 H 0.37806 0.07796 0.46788 0.0
H720 H 0.39738 0.98025 0.51202 0.0
H721 H 0.37032 0.95547 0.51974 0.0
H722 H 0.38163 0.97954 0.54608 0.0
H723 H 0.33105 0.99729 0.55221 0.0
H724 H 0.31949 0.97304 0.526 0.0
H725 H 0.31205 0.00964 0.52231 0.0
H726 H 0.36121 0.04442 0.4312 0.0
H727 H 0.34772 0.00396 0.40238 0.0
H728 H 0.33907 0.95392 0.47711 0.0
C729 C 0.37639 0.0408 0.5402 0.0
C730 C 0.38825 0.0676 0.53781 0.0
C731 C 0.38814 0.08118 0.51165 0.0
C732 C 0.37725 0.0679 0.48801 0.0
C733 C 0.3665 0.04111 0.49094 0.0
C734 C 0.36582 0.02779 0.51643 0.0
C735 C 0.35539 0.9982 0.51368 0.0
C736 C 0.3775 0.97714 0.52345 0.0
C737 C 0.32785 0.99433 0.52949 0.0
C738 C 0.35103 0.99666 0.48256 0.0
C739 C 0.3572 0.0217 0.46981 0.0
C740 C 0.35598 0.02483 0.44099 0.0
C741 C 0.34837 0.00171 0.4248 0.0
C742 C 0.34233 0.97578 0.43749 0.0
C743 C 0.34345 0.97346 0.46676 0.0
H744 H 0.05024 0.56279 0.53814 0.0
H745 H 0.05227 0.60965 0.61535 0.0
H746 H 0.0194 0.57587 0.63634 0.0
H747 H 0.98013 0.55457 0.53774 0.0
H748 H 0.98009 0.52046 0.52204 0.0
H749 H 0.00842 0.5439 0.51549 0.0
H750 H 0.04351 0.50708 0.53312 0.0
H751 H 0.01532 0.48324 0.53961 0.0
H752 H 0.03913 0.49204 0.56722 0.0
H753 H 0.98245 0.53933 0.64699 0.0
H754 H 0.94215 0.50706 0.64475 0.0
H755 H 0.96166 0.48872 0.55865 0.0
C756 C 0.04455 0.56559 0.55977 0.0
C757 C 0.0541 0.58869 0.57525 0.0
C758 C 0.04543 0.59191 0.60323 0.0
C759 C 0.02684 0.57279 0.6153 0.0
C760 C 0.017 0.5508 0.599 0.0
C761 C 0.02554 0.5473 0.57174 0.0
C762 C 0.00905 0.52489 0.55707 0.0
C763 C 0.9935 0.53668 0.53161 0.0
C764 C 0.02788 0.50035 0.54878 0.0
C765 C 0.98921 0.51681 0.58005 0.0
C766 C 0.9946 0.53128 0.60437 0.0
C767 C 0.97823 0.52775 0.62813 0.0
C768 C 0.95548 0.50942 0.62672 0.0
C769 C 0.94901 0.49565 0.60153 0.0
C770 C 0.96632 0.49909 0.57814 0.0
H771 H 0.95794 0.90199 0.63165 0.0
H772 H 0.93266 0.90862 0.54575 0.0
H773 H 0.98125 0.91075 0.53083 0.0
H774 H 0.01105 0.95221 0.62635 0.0
H775 H 0.03468 0.93511 0.64994 0.0
H776 H 0.99777 0.93005 0.65356 0.0
H777 H 0.00464 0.87664 0.64987 0.0
H778 H 0.04163 0.88154 0.64621 0.0
H779 H 0.02264 0.86228 0.62021 0.0
H780 H 0.03218 0.9153 0.52546 0.0
H781 H 0.08224 0.92509 0.52988 0.0
H782 H 0.07554 0.91846 0.61982 0.0
C783 C 0.96265 0.90338 0.60965 0.0
C784 C 0.9412 0.90389 0.58948 0.0
C785 C 0.94842 0.90668 0.56118 0.0
C786 C 0.97615 0.90818 0.55263 0.0
C787 C 0.99671 0.90738 0.5729 0.0
C788 C 0.99041 0.90531 0.60088 0.0
C789 C 0.01646 0.90751 0.61851 0.0
C790 C 0.01489 0.93272 0.63825 0.0
C791 C 0.02165 0.88037 0.63465 0.0
C792 C 0.03819 0.91175 0.59603 0.0
C793 C 0.02632 0.91117 0.56986 0.0
C794 C 0.04183 0.91559 0.54581 0.0
C795 C 0.07026 0.92117 0.54855 0.0
C796 C 0.08283 0.92254 0.57518 0.0
C797 C 0.06657 0.91737 0.59917 0.0
H798 H 0.00149 0.42343 0.01355 0.0
H799 H 0.02988 0.37933 0.93994 0.0
H800 H 0.98987 0.39828 0.91344 0.0
H801 H 0.92982 0.41275 0.00412 0.0
H802 H 0.9198 0.44673 0.01656 0.0
H803 H 0.95131 0.43081 0.02901 0.0
H804 H 0.97955 0.47399 0.01322 0.0
H805 H 0.94807 0.49011 0.00079 0.0
H806 H 0.9772 0.48556 0.97761 0.0
H807 H 0.94492 0.42027 0.89606 0.0
H808 H 0.90011 0.44461 0.88881 0.0
H809 H 0.90275 0.47457 0.97406 0.0
C810 C -0.00056 0.41781 0.99181 0.0
C811 C 0.01867 0.3998 0.97879 0.0
C812 C 0.01535 0.39314 0.95027 0.0
C813 C 0.99272 0.40379 0.93511 0.0
C814 C 0.97391 0.42125 0.94875 0.0
C815 C 0.97726 0.4284 0.97641 0.0
C816 C 0.9541 0.44718 0.9865 0.0
C817 C 0.9378 0.43354 0.01045 0.0
C818 C 0.96542 0.47591 0.99502 0.0
C819 C 0.93678 0.44904 0.96037 0.0
C820 C 0.94851 0.43407 0.93875 0.0
C821 C 0.93568 0.43222 0.9128 0.0
C822 C 0.91022 0.44605 0.9089 0.0
C823 C 0.89793 0.46147 0.93088 0.0
C824 C 0.91157 0.463 0.95682 0.0
H825 H 0.09227 0.08263 0.91317 0.0
H826 H 0.04756 0.01206 0.87875 0.0
H827 H 0.00304 0.03449 0.89105 0.0
H828 H 0.05155 0.09117 0.97081 0.0
H829 H 0.05255 0.12869 0.97149 0.0
H830 H 0.08062 0.10954 0.95582 0.0
H831 H 0.0738 0.13664 0.90969 0.0
H832 H 0.04574 0.15609 0.92531 0.0
H833 H 0.04004 0.13721 0.89337 0.0
H834 H 0.96416 0.06073 0.91367 0.0
H835 H 0.93373 0.08992 0.94317 0.0
H836 H 0.00359 0.14398 0.9617 0.0
C837 C 0.07312 0.07223 0.90748 0.0
C838 C 0.07341 0.04561 0.89496 0.0
C839 C 0.04788 0.03252 0.88825 0.0
C840 C 0.02246 0.04512 0.8951 0.0
C841 C 0.02293 0.07096 0.90831 0.0
C842 C 0.0476 0.08455 0.91411 0.0
C843 C 0.04256 0.11094 0.93061 0.0
C844 C 0.05771 0.11 0.95885 0.0
C845 C 0.05103 0.13675 0.91373 0.0
C846 C 0.01133 0.10946 0.93423 0.0
C847 C 0.00035 0.0864 0.92096 0.0
C848 C 0.97239 0.07921 0.92359 0.0
C849 C 0.9553 0.09583 0.94047 0.0
C850 C 0.96625 0.11937 0.95445 0.0
C851 C 0.99449 0.12649 0.95077 0.0
H852 H 0.50658 0.00162 0.62342 0.0
H853 H 0.51457 0.07159 0.56706 0.0
H854 H 0.54663 0.04409 0.53755 0.0
H855 H 0.57827 0.97191 0.61438 0.0
H856 H 0.56524 0.93674 0.61511 0.0
H857 H 0.54785 0.96365 0.63469 0.0
H858 H 0.50166 0.95176 0.60971 0.0
H859 H 0.51886 0.9251 0.58983 0.0
H860 H 0.50027 0.95251 0.57221 0.0
H861 H 0.57318 0.00777 0.51172 0.0
H862 H 0.59041 0.96467 0.48981 0.0
H863 H 0.56253 0.91716 0.56144 0.0
C864 C 0.51599 0.01145 0.60545 0.0
C865 C 0.50874 0.03886 0.59771 0.0
C866 C 0.52031 0.05073 0.57342 0.0
C867 C 0.53855 0.0353 0.55664 0.0
C868 C 0.54467 0.00798 0.56435 0.0
C869 C 0.5337 0.99611 0.58816 0.0
C870 C 0.54043 0.96532 0.58975 0.0
C871 C 0.55906 0.95905 0.61498 0.0
C872 C 0.51372 0.94765 0.5904 0.0
C873 C 0.55615 0.96154 0.56268 0.0
C874 C 0.5589 0.98653 0.54869 0.0
C875 C 0.57145 0.98813 0.52262 0.0
C876 C 0.58113 0.9635 0.51032 0.0
C877 C 0.5778 0.93753 0.5239 0.0
C878 C 0.56549 0.9367 0.55061 0.0
H879 H 0.60637 0.08339 0.93433 0.0
H880 H 0.62479 0.13165 0.86022 0.0
H881 H 0.62105 0.08899 0.83167 0.0
H882 H 0.64234 0.01858 0.91262 0.0
H883 H 0.61594 0.99692 0.92809 0.0
H884 H 0.62374 0.03049 0.94297 0.0
H885 H 0.57188 0.04467 0.93855 0.0
H886 H 0.56395 0.01124 0.92371 0.0
H887 H 0.55507 0.04257 0.90506 0.0
H888 H 0.61007 0.04207 0.81073 0.0
H889 H 0.59197 0.9953 0.79924 0.0
H890 H 0.58129 0.97817 0.88731 0.0
C891 C 0.61019 0.08496 0.91217 0.0
C892 C 0.61594 0.11086 0.89952 0.0
C893 C 0.62044 0.11202 0.8704 0.0
C894 C 0.61846 0.08788 0.85402 0.0
C895 C 0.61222 0.06275 0.86712 0.0
C896 C 0.6083 0.06115 0.89558 0.0
C897 C 0.59956 0.03222 0.90438 0.0
C898 C 0.62172 0.01876 0.92312 0.0
C899 C 0.57092 0.03272 0.91875 0.0
C900 C 0.59822 0.018 0.87632 0.0
C901 C 0.60596 0.03579 0.85509 0.0
C902 C 0.60439 0.02782 0.82722 0.0
C903 C 0.59407 0.00121 0.82089 0.0
C904 C 0.5853 0.98301 0.84235 0.0
C905 C 0.58812 0.99141 0.8704 0.0
H906 H 0.47812 0.52768 0.81179 0.0
H907 H 0.45777 0.5996 0.86236 0.0
H908 H 0.41947 0.57328 0.88445 0.0
H909 H 0.40594 0.4974 0.8056 0.0
H910 H 0.41911 0.46244 0.80943 0.0
H911 H 0.44016 0.4887 0.79286 0.0
H912 H 0.4799 0.4789 0.82786 0.0
H913 H 0.45907 0.45279 0.84459 0.0
H914 H 0.47299 0.48127 0.86467 0.0
H915 H 0.38829 0.53771 0.90545 0.0
H916 H 0.36872 0.49504 0.92615 0.0
H917 H 0.41156 0.44529 0.86397 0.0
C918 C 0.46475 0.53819 0.82662 0.0
C919 C 0.47024 0.56579 0.83497 0.0
C920 C 0.4534 0.57858 0.85545 0.0
C921 C 0.43161 0.56383 0.86798 0.0
C922 C 0.42723 0.53626 0.85998 0.0
C923 C 0.44339 0.52352 0.8398 0.0
C924 C 0.43752 0.49258 0.83819 0.0
C925 C 0.42492 0.48484 0.80983 0.0
C926 C 0.46393 0.4754 0.8442 0.0
C927 C 0.41632 0.48973 0.86132 0.0
C928 C 0.41013 0.51526 0.87312 0.0
C929 C 0.39262 0.51765 0.89611 0.0
C930 C 0.38163 0.49327 0.90775 0.0
C931 C 0.38862 0.46684 0.89668 0.0
C932 C 0.40566 0.4652 0.87276 0.0
H933 H 0.91732 0.03106 0.03032 0.0
H934 H 0.88346 0.08712 0.09254 0.0
H935 H 0.89286 0.05212 0.12902 0.0
H936 H 0.8961 0.96335 0.06453 0.0
H937 H 0.92837 0.94708 0.05443 0.0
H938 H 0.913 0.97346 0.0326 0.0
H939 H 0.95886 0.00173 0.03455 0.0
H940 H 0.97426 0.97563 0.0564 0.0
H941 H 0.97309 0.01135 0.06792 0.0
H942 H 0.91281 0.01484 0.15929 0.0
H943 H 0.94327 0.97962 0.18092 0.0
H944 H 0.96532 0.94851 0.09898 0.0
C945 C 0.91088 0.03554 0.05145 0.0
C946 C 0.89938 0.06165 0.0586 0.0
C947 C 0.89211 0.06713 0.08662 0.0
C948 C 0.89724 0.04732 0.10745 0.0
C949 C 0.90961 0.02215 0.09987 0.0
C950 C 0.91622 0.01617 0.07248 0.0
C951 C 0.933 0.98957 0.07023 0.0
C952 C 0.91663 0.96703 0.05452 0.0
C953 C 0.96148 0.99491 0.05649 0.0
C954 C 0.93602 0.98228 0.1007 0.0
C955 C 0.92178 0.00088 0.11745 0.0
C956 C 0.92358 -0.00018 0.14639 0.0
C957 C 0.94098 0.97973 0.15849 0.0
C958 C 0.95666 0.96128 0.14164 0.0
C959 C 0.95338 0.96211 0.11244 0.0
H960 H 0.00247 0.20672 0.39349 0.0
H961 H 0.01338 0.19245 0.30488 0.0
H962 H 0.99405 0.23906 0.29511 0.0
H963 H 0.93764 0.2445 0.38847 0.0
H964 H 0.94627 0.26831 0.41616 0.0
H965 H 0.96045 0.23357 0.41617 0.0
H966 H 0.01036 0.25378 0.41892 0.0
H967 H 0.99633 0.28855 0.41899 0.0
H968 H 0.02162 0.27858 0.39312 0.0
H969 H 0.97383 0.2874 0.29501 0.0
H970 H 0.95557 0.33453 0.30471 0.0
H971 H 0.95834 0.31717 0.39337 0.0
C972 C 0.00075 0.21334 0.37202 0.0
C973 C 0.00943 0.19589 0.34995 0.0
C974 C 0.00689 0.20542 0.32215 0.0
C975 C 0.99588 0.23185 0.31637 0.0
C976 C 0.9875 0.24849 0.33861 0.0
C977 C 0.98987 0.23964 0.36588 0.0
C978 C 0.97982 0.26174 0.386 0.0
C979 C 0.95454 0.25141 0.40268 0.0
C980 C 0.00345 0.27122 0.40539 0.0
C981 C 0.97167 0.2845 0.3658 0.0
C982 C 0.97608 0.27639 0.33856 0.0
C983 C 0.97025 0.29399 0.31626 0.0
C984 C 0.95986 0.32069 0.32199 0.0
C985 C 0.95555 0.32956 0.3498 0.0
C986 C 0.9614 0.31106 0.37189 0.0
H987 H 0.9347 0.71509 0.15516 0.0
H988 H 0.01741 0.67923 0.1615 0.0
H989 H 0.03671 0.72581 0.1712 0.0
H990 H 0.95421 0.77468 0.11917 0.0
H991 H 0.92999 0.7977 0.13629 0.0
H992 H 0.92217 0.76121 0.13327 0.0
H993 H 0.91615 0.7579 0.18678 0.0
H994 H 0.92391 0.79448 0.18997 0.0
H995 H 0.94393 0.76928 0.20926 0.0
H996 H 0.04762 0.77653 0.17559 0.0
H997 H 0.04936 0.82786 0.17419 0.0
H998 H 0.95953 0.83062 0.16515 0.0
C999 C 0.95679 0.71693 0.15912 0.0
C1000 C 0.97453 0.69352 0.15764 0.0
C1001 C 0.00339 0.69688 0.16257 0.0
C1002 C 0.01455 0.72323 0.16819 0.0
C1003 C 0.99656 0.74596 0.16898 0.0
C1004 C 0.96827 0.74307 0.16472 0.0
C1005 C 0.95376 0.77106 0.16471 0.0
C1006 C 0.93919 0.77647 0.13669 0.0
C1007 C 0.93322 0.7733 0.18914 0.0
C1008 C 0.97842 0.79019 0.16877 0.0
C1009 C 0.00287 0.77529 0.17153 0.0
C1010 C 0.02858 0.78843 0.17384 0.0
C1011 C 0.02935 0.81759 0.17295 0.0
C1012 C 0.00457 0.83325 0.16966 0.0
C1013 C 0.97879 0.81927 0.16802 0.0
H1014 H 0.36776 0.97681 0.16227 0.0
H1015 H 0.29731 0.03328 0.16684 0.0
H1016 H 0.28258 0.01109 0.21086 0.0
H1017 H 0.33228 0.91583 0.19107 0.0
H1018 H 0.36274 0.90443 0.20975 0.0
H1019 H 0.36645 0.92343 0.17763 0.0
H1020 H 0.39726 0.96 0.20264 0.0
H1021 H 0.39374 0.94109 0.23474 0.0
H1022 H 0.38412 0.97735 0.23324 0.0
H1023 H 0.27779 0.98508 0.25617 0.0
H1024 H 0.28358 0.95772 0.29931 0.0
H1025 H 0.35663 0.91783 0.26406 0.0
C1026 C 0.34907 0.98439 0.17234 0.0
C1027 C 0.33369 0.0068 0.16114 0.0
C1028 C 0.3094 0.01611 0.17503 0.0
C1029 C 0.30083 0.00358 0.19998 0.0
C1030 C 0.31662 0.98165 0.21054 0.0
C1031 C 0.34017 0.97207 0.19708 0.0
C1032 C 0.35426 0.94909 0.21333 0.0
C1033 C 0.3539 0.92156 0.19696 0.0
C1034 C 0.3841 0.95739 0.22147 0.0
C1035 C 0.3354 0.94771 0.23846 0.0
C1036 C 0.31367 0.96647 0.23639 0.0
C1037 C 0.29452 0.97008 0.25786 0.0
C1038 C 0.29799 0.95447 0.28228 0.0
C1039 C 0.32047 0.93554 0.28499 0.0
C1040 C 0.33901 0.93181 0.26251 0.0
H1041 H 0.63392 0.44403 0.21116 0.0
H1042 H 0.61427 0.52766 0.18287 0.0
H1043 H 0.62433 0.54591 0.22975 0.0
H1044 H 0.60295 0.45039 0.27797 0.0
H1045 H 0.6291 0.4301 0.29563 0.0
H1046 H 0.62181 0.42372 0.25943 0.0
H1047 H 0.67379 0.43155 0.24743 0.0
H1048 H 0.68124 0.438 0.28362 0.0
H1049 H 0.69045 0.46355 0.25776 0.0
H1050 H 0.63477 0.55496 0.27984 0.0
H1051 H 0.64411 0.55409 0.33029 0.0
H1052 H 0.65691 0.46461 0.32621 0.0
C1053 C 0.63192 0.46621 0.21476 0.0
C1054 C 0.62333 0.48441 0.19331 0.0
C1055 C 0.62081 0.51329 0.19895 0.0
C1056 C 0.62655 0.52389 0.22549 0.0
C1057 C 0.63483 0.50537 0.24618 0.0
C1058 C 0.63753 0.47716 0.24116 0.0
C1059 C 0.64587 0.46167 0.26733 0.0
C1060 C 0.6236 0.44021 0.27557 0.0
C1061 C 0.67454 0.44789 0.26381 0.0
C1062 C 0.64704 0.48556 0.28789 0.0
C1063 C 0.64079 0.5106 0.27519 0.0
C1064 C 0.63984 0.53551 0.29001 0.0
C1065 C 0.64516 0.53478 0.31867 0.0
C1066 C 0.65127 0.50929 0.33222 0.0
C1067 C 0.65246 0.48444 0.31647 0.0
H1068 H 0.29489 0.38713 0.92874 0.0
H1069 H 0.31107 0.30058 0.9493 0.0
H1070 H 0.26094 0.2936 0.95841 0.0
H1071 H 0.24752 0.3994 0.98147 0.0
H1072 H 0.22535 0.42215 0.96151 0.0
H1073 H 0.26165 0.41929 0.95297 0.0
H1074 H 0.24899 0.40563 0.90233 0.0
H1075 H 0.21255 0.40856 0.91068 0.0
H1076 H 0.22599 0.37664 0.89619 0.0
H1077 H 0.20996 0.29751 0.96994 0.0
H1078 H 0.16242 0.31193 0.98309 0.0
H1079 H 0.18017 0.39599 0.95506 0.0
C1080 C 0.28789 0.36651 0.93458 0.0
C1081 C 0.3069 0.34436 0.93821 0.0
C1082 C 0.29687 0.31784 0.94627 0.0
C1083 C 0.26844 0.31366 0.95143 0.0
C1084 C 0.25036 0.33616 0.94825 0.0
C1085 C 0.25971 0.36203 0.93986 0.0
C1086 C 0.23655 0.38338 0.9401 0.0
C1087 C 0.24317 0.40746 0.96021 0.0
C1088 C 0.23067 0.39418 0.91056 0.0
C1089 C 0.21283 0.3657 0.95072 0.0
C1090 C 0.22109 0.33845 0.95499 0.0
C1091 C 0.20316 0.31869 0.96631 0.0
C1092 C 0.17622 0.3271 0.97377 0.0
C1093 C 0.16755 0.35508 0.97003 0.0
C1094 C 0.18604 0.3744 0.95792 0.0
H1095 H 0.17828 0.62283 0.48812 0.0
H1096 H 0.17546 0.69854 0.53753 0.0
H1097 H 0.22664 0.70243 0.53412 0.0
H1098 H 0.23983 0.59513 0.51788 0.0
H1099 H 0.25251 0.5807 0.48563 0.0
H1100 H 0.21569 0.58467 0.49115 0.0
H1101 H 0.21195 0.61389 0.44593 0.0
H1102 H 0.2488 0.61004 0.44029 0.0
H1103 H 0.23351 0.6443 0.44177 0.0
H1104 H 0.27848 0.69697 0.52641 0.0
H1105 H 0.3266 0.6824 0.51545 0.0
H1106 H 0.29461 0.61048 0.471 0.0
C1107 C 0.18834 0.64033 0.49815 0.0
C1108 C 0.17286 0.66039 0.5131 0.0
C1109 C 0.1869 0.68292 0.52595 0.0
C1110 C 0.21594 0.68533 0.5241 0.0
C1111 C 0.23055 0.6651 0.50925 0.0
C1112 C 0.21718 0.64306 0.49649 0.0
C1113 C 0.2376 0.62371 0.48233 0.0
C1114 C 0.23633 0.59432 0.49502 0.0
C1115 C 0.23267 0.62296 0.45071 0.0
C1116 C 0.26463 0.63811 0.48936 0.0
C1117 C 0.26019 0.66201 0.50479 0.0
C1118 C 0.28218 0.67838 0.51422 0.0
C1119 C 0.30943 0.66993 0.50789 0.0
C1120 C 0.31436 0.64533 0.49232 0.0
C1121 C 0.29157 0.62945 0.48281 0.0
H1122 H 0.67488 0.87609 0.48704 0.0
H1123 H 0.67781 0.78603 0.49456 0.0
H1124 H 0.72868 0.78841 0.50171 0.0
H1125 H 0.74231 0.88462 0.45166 0.0
H1126 H 0.74982 0.91638 0.4702 0.0
H1127 H 0.71431 0.90708 0.46265 0.0
H1128 H 0.70228 0.91087 0.51512 0.0
H1129 H 0.73774 0.91989 0.52289 0.0
H1130 H 0.72175 0.89057 0.53996 0.0
H1131 H 0.77851 0.80121 0.51229 0.0
H1132 H 0.82348 0.82321 0.52396 0.0
H1133 H 0.7871 0.90477 0.50967 0.0
C1134 C 0.68622 0.85677 0.48965 0.0
C1135 C 0.67238 0.83085 0.49021 0.0
C1136 C 0.68801 0.80611 0.49395 0.0
C1137 C 0.71689 0.80726 0.49803 0.0
C1138 C 0.72975 0.83327 0.49811 0.0
C1139 C 0.71493 0.85754 0.49377 0.0
C1140 C 0.73325 0.88297 0.49639 0.0
C1141 C 0.73503 0.89868 0.46856 0.0
C1142 C 0.72315 0.90219 0.52 0.0
C1143 C 0.76063 0.86929 0.50358 0.0
C1144 C 0.75829 0.84061 0.50427 0.0
C1145 C 0.78065 0.82363 0.51152 0.0
C1146 C 0.80606 0.83632 0.51821 0.0
C1147 C 0.80879 0.86571 0.51771 0.0
C1148 C 0.78575 0.88226 0.51014 0.0
H1149 H 0.50512 0.80627 0.82982 0.0
H1150 H 0.58815 0.84143 0.82514 0.0
H1151 H 0.60751 0.79439 0.81724 0.0
H1152 H 0.5233 0.74703 0.86773 0.0
H1153 H 0.49924 0.72412 0.85033 0.0
H1154 H 0.49177 0.76075 0.85272 0.0
H1155 H 0.48706 0.76343 0.79902 0.0
H1156 H 0.4945 0.72673 0.79647 0.0
H1157 H 0.51526 0.75143 0.77735 0.0
H1158 H 0.61806 0.74303 0.81367 0.0
H1159 H 0.61891 0.69157 0.81511 0.0
H1160 H 0.52886 0.69065 0.82202 0.0
C1161 C 0.52733 0.8042 0.8267 0.0
C1162 C 0.54512 0.82753 0.82803 0.0
C1163 C 0.57411 0.82384 0.82414 0.0
C1164 C 0.58529 0.79722 0.81957 0.0
C1165 C 0.56719 0.77459 0.8188 0.0
C1166 C 0.53881 0.77785 0.82216 0.0
C1167 C 0.52399 0.75009 0.82215 0.0
C1168 C 0.50869 0.74522 0.84988 0.0
C1169 C 0.50403 0.74779 0.79726 0.0
C1170 C 0.54853 0.73063 0.81893 0.0
C1171 C 0.57325 0.74512 0.81676 0.0
C1172 C 0.5988 0.73147 0.81503 0.0
C1173 C 0.59908 0.70225 0.81589 0.0
C1174 C 0.57397 0.68707 0.8186 0.0
C1175 C 0.54842 0.70158 0.8197 0.0
H1176 H 0.52532 0.27783 0.64843 0.0
H1177 H 0.44381 0.31577 0.63927 0.0
H1178 H 0.42227 0.26915 0.63935 0.0
H1179 H 0.514 0.22195 0.60336 0.0
H1180 H 0.53329 0.19687 0.62353 0.0
H1181 H 0.54206 0.23323 0.62555 0.0
H1182 H 0.53555 0.23215 0.6791 0.0
H1183 H 0.52688 0.19569 0.67727 0.0
H1184 H 0.5032 0.21986 0.69353 0.0
H1185 H 0.41008 0.21837 0.63603 0.0
H1186 H 0.40809 0.16719 0.63108 0.0
H1187 H 0.49748 0.16265 0.64313 0.0
C1188 C 0.5029 0.2764 0.64692 0.0
C1189 C 0.48626 0.30047 0.64387 0.0
C1190 C 0.457 0.29764 0.6417 0.0
C1191 C 0.44455 0.27124 0.64174 0.0
C1192 C 0.46162 0.24792 0.6442 0.0
C1193 C 0.49014 0.25025 0.64699 0.0
C1194 C 0.50393 0.22192 0.64792 0.0
C1195 C 0.52453 0.21829 0.62364 0.0
C1196 C 0.51823 0.21713 0.67614 0.0
C1197 C 0.47879 0.2033 0.64453 0.0
C1198 C 0.45456 0.21867 0.64258 0.0
C1199 C 0.42887 0.20609 0.6379 0.0
C1200 C 0.42796 0.17703 0.63503 0.0
C1201 C 0.4526 0.16092 0.63686 0.0
C1202 C 0.47823 0.17432 0.64195 0.0
H1203 H 0.8358 0.43631 0.8145 0.0
H1204 H 0.77602 0.50391 0.81788 0.0
H1205 H 0.7709 0.50173 0.76656 0.0
H1206 H 0.87082 0.46099 0.75641 0.0
H1207 H 0.87832 0.42712 0.74203 0.0
H1208 H 0.87382 0.43115 0.77897 0.0
H1209 H 0.83505 0.39364 0.77851 0.0
H1210 H 0.83947 0.38945 0.74149 0.0
H1211 H 0.80568 0.39773 0.75554 0.0
H1212 H 0.77448 0.49346 0.71444 0.0
H1213 H 0.78984 0.48321 0.66622 0.0
H1214 H 0.84987 0.4238 0.69804 0.0
C1215 C 0.82109 0.45019 0.80453 0.0
C1216 C 0.80596 0.46999 0.82005 0.0
C1217 C 0.78762 0.48845 0.80624 0.0
C1218 C 0.7845 0.48725 0.77719 0.0
C1219 C 0.80011 0.4677 0.7624 0.0
C1220 C 0.81822 0.44967 0.77566 0.0
C1221 C 0.83495 0.43275 0.75508 0.0
C1222 C 0.86632 0.43836 0.75832 0.0
C1223 C 0.82838 0.40154 0.75782 0.0
C1224 C 0.82388 0.44442 0.7281 0.0
C1225 C 0.80333 0.46407 0.73263 0.0
C1226 C 0.79046 0.47802 0.71066 0.0
C1227 C 0.79923 0.47205 0.6834 0.0
C1228 C 0.82106 0.45284 0.67861 0.0
C1229 C 0.83319 0.43866 0.70122 0.0
H1230 H 0.13589 0.94104 0.7098 0.0
H1231 H 0.21672 0.96239 0.67568 0.0
H1232 H 0.2334 0.97407 0.72292 0.0
H1233 H 0.13199 0.9958 0.7567 0.0
H1234 H 0.11485 0.97636 0.78381 0.0
H1235 H 0.11048 0.96631 0.74802 0.0
H1236 H 0.12786 0.91651 0.75956 0.0
H1237 H 0.13219 0.92639 0.7955 0.0
H1238 H 0.16107 0.91195 0.77637 0.0
H1239 H 0.23985 0.98725 0.77336 0.0
H1240 H 0.23524 0.00163 0.82256 0.0
H1241 H 0.14988 0.97217 0.82292 0.0
C1242 C 0.15728 0.94763 0.71227 0.0
C1243 C 0.17504 0.9507 0.68907 0.0
C1244 C 0.20276 0.9598 0.69318 0.0
C1245 C 0.21245 0.96641 0.71994 0.0
C1246 C 0.19419 0.96368 0.7423 0.0
C1247 C 0.16721 0.95441 0.73873 0.0
C1248 C 0.15107 0.95525 0.76574 0.0
C1249 C 0.12561 0.97458 0.76342 0.0
C1250 C 0.14255 0.92577 0.77483 0.0
C1251 C 0.1729 0.96724 0.78493 0.0
C1252 C 0.19777 0.97159 0.77118 0.0
C1253 C 0.22057 0.98365 0.78442 0.0
C1254 C 0.21774 0.99177 0.81235 0.0
C1255 C 0.19221 0.98804 0.82658 0.0
C1256 C 0.16972 0.97523 0.81268 0.0
H1257 H 0.79852 0.15861 0.04247 0.0
H1258 H 0.84441 0.19005 0.97131 0.0
H1259 H 0.80074 0.20796 0.95108 0.0
H1260 H 0.74229 0.13363 0.00499 0.0
H1261 H 0.71635 0.1425 0.03061 0.0
H1262 H 0.75154 0.13574 0.0413 0.0
H1263 H 0.75362 0.18407 0.06531 0.0
H1264 H 0.71834 0.191 0.05464 0.0
H1265 H 0.74571 0.21495 0.0455 0.0
H1266 H 0.75177 0.21832 0.93647 0.0
H1267 H 0.70116 0.21854 0.92776 0.0
H1268 H 0.68741 0.17992 0.00828 0.0
C1269 C 0.79948 0.1698 0.02293 0.0
C1270 C 0.82486 0.17307 0.00853 0.0
C1271 C 0.82518 0.18735 0.98273 0.0
C1272 C 0.80051 0.19773 0.97114 0.0
C1273 C 0.77575 0.19374 0.98565 0.0
C1274 C 0.77505 0.18013 0.011 0.0
C1275 C 0.74551 0.17629 0.02114 0.0
C1276 C 0.73853 0.1452 0.0247 0.0
C1277 C 0.74051 0.19255 0.04825 0.0
C1278 C 0.72967 0.18905 0.99711 0.0
C1279 C 0.74746 0.19942 0.97707 0.0
C1280 C 0.73761 0.21061 0.95219 0.0
C1281 C 0.70882 0.21063 0.94742 0.0
C1282 C 0.69031 0.19928 0.96734 0.0
C1283 C 0.70096 0.18898 0.99274 0.0
H1284 H 0.02338 0.97143 0.22281 0.0
H1285 H 0.1124 0.97873 0.20954 0.0
H1286 H 0.11468 0.01474 0.24643 0.0
H1287 H 0.0105 0.04351 0.23291 0.0
H1288 H 0.98412 0.03815 0.25902 0.0
H1289 H 0.98991 0.01216 0.2326 0.0
H1290 H 0.99793 0.97478 0.27069 0.0
H1291 H 0.99195 0.00059 0.29723 0.0
H1292 H 0.02378 0.98072 0.29721 0.0
H1293 H 0.10669 0.05039 0.28487 0.0
H1294 H 0.08918 0.08248 0.32124 0.0
H1295 H 0.00531 0.05212 0.30726 0.0
C1296 C 0.04347 0.98032 0.22779 0.0
C1297 C 0.06777 0.97215 0.21341 0.0
C1298 C 0.09353 0.98463 0.22037 0.0
C1299 C 0.09502 0.00509 0.24125 0.0
C1300 C 0.07053 0.01288 0.25477 0.0
C1301 C 0.04526 0.00084 0.24826 0.0
C1302 C 0.02182 0.01324 0.26519 0.0
C1303 C 0.00033 0.02762 0.2463 0.0
C1304 C 0.00807 0.99101 0.28368 0.0
C1305 C 0.03779 0.03417 0.28236 0.0
C1306 C 0.06587 0.03366 0.27619 0.0
C1307 C 0.08473 0.051 0.2898 0.0
C1308 C 0.0746 0.06916 0.31039 0.0
C1309 C 0.04587 0.06991 0.31698 0.0
C1310 C 0.02735 0.05225 0.30258 0.0
H1311 H 0.93092 0.46256 0.27166 0.0
H1312 H 0.84583 0.47872 0.2973 0.0
H1313 H 0.84236 0.51583 0.26165 0.0
H1314 H 0.94992 0.53204 0.26329 0.0
H1315 H 0.9722 0.52582 0.23374 0.0
H1316 H 0.96677 0.49875 0.25901 0.0
H1317 H 0.94996 0.46529 0.22009 0.0
H1318 H 0.95565 0.49221 0.19463 0.0
H1319 H 0.922 0.47593 0.19745 0.0
H1320 H 0.84968 0.55321 0.22436 0.0
H1321 H 0.86707 0.58693 0.18937 0.0
H1322 H 0.94768 0.54615 0.19089 0.0
C1323 C 0.91131 0.47346 0.26953 0.0
C1324 C 0.88857 0.46761 0.28717 0.0
C1325 C 0.86347 0.48274 0.28389 0.0
C1326 C 0.86133 0.50386 0.26373 0.0
C1327 C 0.88448 0.50951 0.24715 0.0
C1328 C 0.90893 0.4946 0.24986 0.0
C1329 C 0.93144 0.50559 0.23091 0.0
C1330 C 0.95655 0.51618 0.24775 0.0
C1331 C 0.94026 0.48344 0.2095 0.0
C1332 C 0.916 0.52927 0.21725 0.0
C1333 C 0.88887 0.53118 0.22658 0.0
C1334 C 0.87086 0.55181 0.21687 0.0
C1335 C 0.88092 0.57088 0.19706 0.0
C1336 C 0.90876 0.56927 0.18752 0.0
C1337 C 0.92634 0.54813 0.19785 0.0
H1338 H 0.23518 0.03214 0.94193 0.0
H1339 H 0.19116 0.10875 0.96111 0.0
H1340 H 0.22825 0.12156 0.99443 0.0
H1341 H 0.25345 0.01673 0.00946 0.0
H1342 H 0.28699 0.00211 0.00116 0.0
H1343 H 0.25947 0.00114 0.97585 0.0
H1344 H 0.29087 0.02662 0.94013 0.0
H1345 H 0.31865 0.02741 0.96529 0.0
H1346 H 0.30674 0.05931 0.94951 0.0
H1347 H 0.2682 0.12361 0.02896 0.0
H1348 H 0.30697 0.11444 0.06166 0.0
H1349 H 0.32289 0.03568 0.0202 0.0
C1350 C 0.23363 0.05199 0.95253 0.0
C1351 C 0.21038 0.06955 0.94877 0.0
C1352 C 0.2089 0.09505 0.96355 0.0
C1353 C 0.22987 0.10251 0.98249 0.0
C1354 C 0.25211 0.08425 0.98632 0.0
C1355 C 0.25413 0.05957 0.97161 0.0
C1356 C 0.2786 0.04229 0.98117 0.0
C1357 C 0.26904 0.0139 0.99259 0.0
C1358 C 0.29998 0.03871 0.95762 0.0
C1359 C 0.28971 0.06076 0.00404 0.0
C1360 C 0.27448 0.08506 0.00652 0.0
C1361 C 0.28043 0.10478 0.02702 0.0
C1362 C 0.30243 0.09939 0.04551 0.0
C1363 C 0.31786 0.07433 0.04352 0.0
C1364 C 0.31146 0.05501 0.02232 0.0
H1365 H 0.62809 0.46357 0.00957 0.0
H1366 H 0.67664 0.43028 0.07803 0.0
H1367 H 0.71835 0.42949 0.04781 0.0
H1368 H 0.66427 0.42725 0.95195 0.0
H1369 H 0.6621 0.45737 0.92967 0.0
H1370 H 0.63545 0.45107 0.95528 0.0
H1371 H 0.6437 0.50025 0.97597 0.0
H1372 H 0.67049 0.50665 0.95065 0.0
H1373 H 0.67814 0.50986 0.98723 0.0
H1374 H 0.75541 0.43692 0.01176 0.0
H1375 H 0.78528 0.45233 0.97299 0.0
H1376 H 0.71239 0.48222 0.92873 0.0
C1377 C 0.64726 0.4552 0.01797 0.0
C1378 C 0.64909 0.44651 0.04599 0.0
C1379 C 0.67478 0.43671 0.0565 0.0
C1380 C 0.69852 0.43618 0.0395 0.0
C1381 C 0.69615 0.44565 0.01216 0.0
C1382 C 0.67114 0.45493 0.00146 0.0
C1383 C 0.67461 0.46673 0.97246 0.0
C1384 C 0.65813 0.44957 0.95108 0.0
C1385 C 0.66625 0.4977 0.97154 0.0
C1386 C 0.70562 0.46304 0.96861 0.0
C1387 C 0.71762 0.45059 0.99162 0.0
C1388 C 0.74621 0.44636 0.9935 0.0
C1389 C 0.763 0.45526 0.97138 0.0
C1390 C 0.75116 0.46841 0.94776 0.0
C1391 C 0.72204 0.47199 0.94634 0.0
H1392 H 0.25559 0.90844 0.42433 0.0
H1393 H 0.29986 0.83183 0.44271 0.0
H1394 H 0.27319 0.8272 0.48653 0.0
H1395 H 0.25937 0.93499 0.48993 0.0
H1396 H 0.22574 0.95163 0.48971 0.0
H1397 H 0.24399 0.94603 0.45755 0.0
H1398 H 0.20183 0.91885 0.43768 0.0
H1399 H 0.18322 0.92479 0.46971 0.0
H1400 H 0.18785 0.8898 0.45686 0.0
H1401 H 0.24545 0.83437 0.53124 0.0
H1402 H 0.2195 0.85269 0.572 0.0
H1403 H 0.19601 0.92543 0.52386 0.0
C1404 C 0.25909 0.89013 0.43701 0.0
C1405 C 0.27966 0.87037 0.42996 0.0
C1406 C 0.28401 0.84712 0.44759 0.0
C1407 C 0.26897 0.84433 0.47252 0.0
C1408 C 0.24968 0.86493 0.47942 0.0
C1409 C 0.24462 0.88728 0.46199 0.0
C1410 C 0.22531 0.90827 0.47527 0.0
C1411 C 0.23946 0.9369 0.4783 0.0
C1412 C 0.19793 0.91054 0.45891 0.0
C1413 C 0.22085 0.89467 0.50321 0.0
C1414 C 0.23463 0.86949 0.50522 0.0
C1415 C 0.23433 0.85391 0.52975 0.0
C1416 C 0.21962 0.86447 0.55279 0.0
C1417 C 0.20592 0.89053 0.55113 0.0
C1418 C 0.2064 0.90551 0.52588 0.0
H1419 H 0.80863 0.51923 0.57761 0.0
H1420 H 0.84627 0.45471 0.52675 0.0
H1421 H 0.81677 0.46876 0.48709 0.0
H1422 H 0.74088 0.50836 0.55402 0.0
H1423 H 0.7308 0.54451 0.55505 0.0
H1424 H 0.75753 0.53193 0.57801 0.0
H1425 H 0.79145 0.56931 0.55901 0.0
H1426 H 0.76478 0.58196 0.53587 0.0
H1427 H 0.79801 0.57128 0.52212 0.0
H1428 H 0.78094 0.48764 0.45423 0.0
H1429 H 0.73908 0.50696 0.43178 0.0
H1430 H 0.72346 0.55799 0.50481 0.0
C1431 C 0.81105 0.50844 0.55796 0.0
C1432 C 0.82996 0.48611 0.5551 0.0
C1433 C 0.83204 0.47199 0.52929 0.0
C1434 C 0.81546 0.47993 0.50663 0.0
C1435 C 0.79681 0.50189 0.51022 0.0
C1436 C 0.79438 0.51582 0.53529 0.0
C1437 C 0.77086 0.53679 0.5346 0.0
C1438 C 0.74871 0.52997 0.55672 0.0
C1439 C 0.78195 0.5666 0.5381 0.0
C1440 C 0.75996 0.53202 0.50544 0.0
C1441 C 0.77556 0.5122 0.49154 0.0
C1442 C 0.76872 0.50336 0.4648 0.0
C1443 C 0.74489 0.51451 0.45221 0.0
C1444 C 0.72795 0.53403 0.46653 0.0
C1445 C 0.73606 0.5433 0.49323 0.0
H1446 H 0.02728 0.3058 0.04266 0.0
H1447 H 0.102 0.26525 0.0732 0.0
H1448 H 0.0746 0.22297 0.08367 0.0
H1449 H 0.97709 0.27221 0.09146 0.0
H1450 H 0.951 0.26963 0.06465 0.0
H1451 H 0.97547 0.29805 0.06431 0.0
H1452 H 0.99004 0.28478 0.01405 0.0
H1453 H 0.96582 0.25632 0.01428 0.0
H1454 H 0.00203 0.2499 0.00696 0.0
H1455 H 0.04034 0.18322 0.0846 0.0
H1456 H 0.00255 0.14957 0.07564 0.0
H1457 H 0.95079 0.21655 0.04401 0.0
C1458 C 0.03783 0.28833 0.05226 0.0
C1459 C 0.06679 0.28886 0.05719 0.0
C1460 C 0.0798 0.26538 0.06937 0.0
C1461 C 0.06439 0.2413 0.07545 0.0
C1462 C 0.036 0.24119 0.06944 0.0
C1463 C 0.02284 0.26423 0.0583 0.0
C1464 C 0.99288 0.25804 0.05101 0.0
C1465 C 0.97293 0.27552 0.06894 0.0
C1466 C 0.9874 0.26251 0.01973 0.0
C1467 C 0.99148 0.22758 0.05873 0.0
C1468 C 0.01637 0.2183 0.06977 0.0
C1469 C 0.02061 0.19038 0.07645 0.0
C1470 C -0.00097 0.17141 0.07123 0.0
C1471 C 0.97368 0.18045 0.05919 0.0
C1472 C 0.96978 0.20901 0.0535 0.0
H1473 H -0.00142 0.69477 0.47419 0.0
H1474 H 0.06565 0.71726 0.53036 0.0
H1475 H 0.04152 0.76131 0.54147 0.0
H1476 H 0.98465 0.76435 0.44804 0.0
H1477 H 0.94755 0.75907 0.4468 0.0
H1478 H 0.97078 0.72995 0.44226 0.0
H1479 H 0.94639 0.70407 0.48281 0.0
H1480 H 0.92312 0.73309 0.48748 0.0
H1481 H 0.94367 0.72075 0.51633 0.0
H1482 H 0.00947 0.80229 0.54744 0.0
H1483 H 0.97139 0.83679 0.54852 0.0
H1484 H 0.92505 0.78708 0.48889 0.0
C1485 C 0.00835 0.70905 0.48862 0.0
C1486 C 0.03406 0.70261 0.50133 0.0
C1487 C 0.04598 0.72176 0.52035 0.0
C1488 C 0.03246 0.74686 0.52676 0.0
C1489 C 0.00705 0.75246 0.51401 0.0
C1490 C 0.9951 0.7341 0.49537 0.0
C1491 C 0.96716 0.74462 0.48531 0.0
C1492 C 0.96757 0.74981 0.45373 0.0
C1493 C 0.94371 0.72443 0.49348 0.0
C1494 C 0.96517 0.77167 0.50137 0.0
C1495 C 0.98845 0.7759 0.51768 0.0
C1496 C 0.99116 0.79924 0.5347 0.0
C1497 C 0.9694 0.8187 0.53518 0.0
C1498 C 0.94521 0.81462 0.51881 0.0
C1499 C 0.94327 0.79084 0.5016 0.0
H1500 H 0.55194 0.77283 0.5011 0.0
H1501 H 0.54467 0.79923 0.58725 0.0
H1502 H 0.51431 0.75878 0.59682 0.0
H1503 H 0.48359 0.75518 0.49218 0.0
H1504 H 0.48985 0.72556 0.46996 0.0
H1505 H 0.51455 0.75361 0.47104 0.0
H1506 H 0.55371 0.71883 0.48404 0.0
H1507 H 0.52908 0.69056 0.48289 0.0
H1508 H 0.54946 0.69642 0.51383 0.0
H1509 H 0.48047 0.71852 0.59543 0.0
H1510 H 0.44594 0.68238 0.58315 0.0
H1511 H 0.47531 0.6836 0.49771 0.0
C1512 C 0.54457 0.76981 0.52219 0.0
C1513 C 0.55074 0.78916 0.54347 0.0
C1514 C 0.54033 0.78459 0.57065 0.0
C1515 C 0.52312 0.76165 0.57629 0.0
C1516 C 0.51677 0.74344 0.55456 0.0
C1517 C 0.52739 0.74719 0.52809 0.0
C1518 C 0.51548 0.72635 0.50771 0.0
C1519 C 0.49994 0.74106 0.48384 0.0
C1520 C 0.5383 0.70689 0.49646 0.0
C1521 C 0.49569 0.71091 0.52661 0.0
C1522 C 0.49702 0.72068 0.55365 0.0
C1523 C 0.47952 0.71047 0.57441 0.0
C1524 C 0.45996 0.68999 0.56724 0.0
C1525 C 0.45789 0.68028 0.53947 0.0
C1526 C 0.47636 0.69061 0.51912 0.0
H1527 H 0.53927 0.50161 0.80068 0.0
H1528 H 0.59656 0.56079 0.76376 0.0
H1529 H 0.60008 0.53108 0.72185 0.0
H1530 H 0.56989 0.43734 0.7706 0.0
H1531 H 0.53621 0.42189 0.7649 0.0
H1532 H 0.54134 0.44564 0.79352 0.0
H1533 H 0.50081 0.47631 0.77555 0.0
H1534 H 0.49556 0.45278 0.74689 0.0
H1535 H 0.50173 0.48921 0.74033 0.0
H1536 H 0.59391 0.49769 0.68261 0.0
H1537 H 0.57759 0.46364 0.6479 0.0
H1538 H 0.52328 0.42657 0.70984 0.0
C1539 C 0.5532 0.5079 0.78412 0.0
C1540 C 0.56799 0.53328 0.78555 0.0
C1541 C 0.58525 0.5413 0.7631 0.0
C1542 C 0.58744 0.52453 0.7393 0.0
C1543 C 0.57213 0.49991 0.73829 0.0
C1544 C 0.55533 0.4916 0.76009 0.0
C1545 C 0.53892 0.4657 0.75268 0.0
C1546 C 0.54709 0.44119 0.77155 0.0
C1547 C 0.5074 0.47135 0.75393 0.0
C1548 C 0.54869 0.46107 0.72305 0.0
C1549 C 0.5681 0.48084 0.71533 0.0
C1550 C 0.579 0.48189 0.68851 0.0
C1551 C 0.56953 0.46248 0.66892 0.0
C1552 C 0.54925 0.44237 0.67618 0.0
C1553 C 0.53909 0.44142 0.70377 0.0
H1554 H 0.50328 0.91821 0.73917 0.0
H1555 H 0.46209 0.95529 0.81065 0.0
H1556 H 0.43273 0.98323 0.77925 0.0
H1557 H 0.50759 0.97841 0.69982 0.0
H1558 H 0.50111 0.9621 0.66665 0.0
H1559 H 0.51638 0.94228 0.69446 0.0
H1560 H 0.47688 0.90579 0.69043 0.0
H1561 H 0.46156 0.92557 0.66247 0.0
H1562 H 0.44114 0.91696 0.69274 0.0
H1563 H 0.41282 0.01188 0.74086 0.0
H1564 H 0.40248 0.0379 0.69765 0.0
H1565 H 0.45483 0.98094 0.65101 0.0
C1566 C 0.48764 0.93172 0.74821 0.0
C1567 C 0.48498 0.93453 0.77737 0.0
C1568 C 0.46452 0.95274 0.78838 0.0
C1569 C 0.44766 0.96865 0.77071 0.0
C1570 C 0.45127 0.9659 0.74209 0.0
C1571 C 0.47056 0.9477 0.73086 0.0
C1572 C 0.47168 0.95019 0.69945 0.0
C1573 C 0.50092 0.95876 0.68954 0.0
C1574 C 0.46224 0.923 0.68545 0.0
C1575 C 0.45072 0.97329 0.69492 0.0
C1576 C 0.43905 0.98196 0.71976 0.0
C1577 C 0.42125 0.00487 0.72118 0.0
C1578 C 0.41555 0.01954 0.69662 0.0
C1579 C 0.42743 0.01106 0.67104 0.0
C1580 C 0.44476 0.98732 0.67016 0.0
H1581 H 0.49009 0.35916 0.94211 0.0
H1582 H 0.43163 0.31024 0.89374 0.0
H1583 H 0.46562 0.27158 0.89184 0.0
H1584 H 0.55461 0.33353 0.90909 0.0
H1585 H 0.57321 0.3331 0.94165 0.0
H1586 H 0.54583 0.35814 0.93606 0.0
H1587 H 0.5209 0.34095 0.98063 0.0
H1588 H 0.54809 0.31587 0.98639 0.0
H1589 H 0.51242 0.30456 0.98411 0.0
H1590 H 0.50427 0.23723 0.89828 0.0
H1591 H 0.54365 0.20862 0.91447 0.0
H1592 H 0.57631 0.27962 0.95995 0.0
C1593 C 0.4847 0.34058 0.93052 0.0
C1594 C 0.45839 0.33776 0.91776 0.0
C1595 C 0.45176 0.31284 0.9035 0.0
C1596 C 0.47096 0.29085 0.90222 0.0
C1597 C 0.49658 0.29415 0.91541 0.0
C1598 C 0.50345 0.31837 0.92935 0.0
C1599 C 0.53122 0.3157 0.94398 0.0
C1600 C 0.55247 0.33634 0.93197 0.0
C1601 C 0.52794 0.31948 0.97565 0.0
C1602 C 0.53866 0.28598 0.93657 0.0
C1603 C 0.51861 0.27407 0.91973 0.0
C1604 C 0.52024 0.2464 0.91123 0.0
C1605 C 0.5427 0.23031 0.92058 0.0
C1606 C 0.56311 0.24187 0.93847 0.0
C1607 C 0.56122 0.27023 0.9461 0.0
loop_
_geom_bond_atom_site_label_1
_geom_bond_atom_site_label_2
_geom_bond_distance
_geom_bond_site_symmetry_2
_ccdc_geom_bond_type
C0 O1 1.160 1_655 S
C0 O7 1.185 . S
O1 C0 1.160 1_455 S
O2 Zn3 1.899 . S
O2 C10 1.284 1_655 S
Zn3 O2 1.899 . S
Zn3 O4 2.032 1_655 S
Zn3 O7 2.086 . S
Zn3 O12 1.977 . S
O4 Zn3 2.032 1_455 S
O4 C8 1.278 . S
C5 O6 1.203 . S
C5 O12 1.267 . S
O6 C5 1.203 . S
O7 C0 1.185 . S
O7 Zn3 2.086 . S
C8 O4 1.278 . S
C8 O9 1.211 . S
O9 C8 1.211 . S
C10 O2 1.284 1_455 S
C10 O11 1.273 . S
O11 C10 1.273 . S
O12 Zn3 1.977 . S
O12 C5 1.267 . S
C13 O14 1.160 1_455 S
C13 O20 1.185 . S
O14 C13 1.160 1_655 S
O15 Zn16 1.899 . S
O15 C23 1.284 1_455 S
Zn16 O15 1.899 . S
Zn16 O17 2.032 1_455 S
Zn16 O20 2.086 . S
Zn16 O25 1.977 . S
O17 Zn16 2.032 1_655 S
O17 C21 1.278 . S
C18 O19 1.203 . S
C18 O25 1.267 . S
O19 C18 1.203 . S
O20 C13 1.185 . S
O20 Zn16 2.086 . S
C21 O17 1.278 . S
C21 O22 1.211 . S
O22 C21 1.211 . S
C23 O15 1.284 1_655 S
C23 O24 1.273 . S
O24 C23 1.273 . S
O25 Zn16 1.977 . S
O25 C18 1.267 . S
C26 O27 1.160 1_655 S
C26 O33 1.185 . S
O27 C26 1.160 1_455 S
O28 Zn29 1.899 . S
O28 C36 1.284 1_655 S
Zn29 O28 1.899 . S
Zn29 O30 2.032 1_655 S
Zn29 O33 2.086 . S
Zn29 O38 1.977 . S
O30 Zn29 2.032 1_455 S
O30 C34 1.278 . S
C31 O32 1.203 . S
C31 O38 1.267 . S
O32 C31 1.203 . S
O33 C26 1.185 . S
O33 Zn29 2.086 . S
C34 O30 1.278 . S
C34 O35 1.211 . S
O35 C34 1.211 . S
C36 O28 1.284 1_455 S
C36 O37 1.273 . S
O37 C36 1.273 . S
O38 Zn29 1.977 . S
O38 C31 1.267 . S
C39 O40 1.160 1_455 S
C39 O46 1.185 . S
O40 C39 1.160 1_655 S
O41 Zn42 1.899 . S
O41 C49 1.284 1_455 S
Zn42 O41 1.899 . S
Zn42 O43 2.032 1_455 S
Zn42 O46 2.086 . S
Zn42 O51 1.977 . S
O43 Zn42 2.032 1_655 S
O43 C47 1.278 . S
C44 O45 1.203 . S
C44 O51 1.267 . S
O45 C44 1.203 . S
O46 C39 1.185 . S
O46 Zn42 2.086 . S
C47 O43 1.278 . S
C47 O48 1.211 . S
O48 C47 1.211 . S
C49 O41 1.284 1_655 S
C49 O50 1.273 . S
O50 C49 1.273 . S
O51 Zn42 1.977 . S
O51 C44 1.267 . S
C52 O53 1.160 1_565 S
C52 O59 1.185 . S
O53 C52 1.160 1_545 S
O54 Zn55 1.899 . S
O54 C62 1.284 1_565 S
Zn55 O54 1.899 . S
Zn55 O56 2.032 1_565 S
Zn55 O59 2.086 . S
Zn55 O64 1.977 . S
O56 Zn55 2.032 1_545 S
O56 C60 1.278 . S
C57 O58 1.203 . S
C57 O64 1.267 . S
O58 C57 1.203 . S
O59 C52 1.185 . S
O59 Zn55 2.086 . S
C60 O56 1.278 . S
C60 O61 1.211 . S
O61 C60 1.211 . S
C62 O54 1.284 1_545 S
C62 O63 1.273 . S
O63 C62 1.273 . S
O64 Zn55 1.977 . S
O64 C57 1.267 . S
C65 O66 1.160 . S
C65 O72 1.185 . S
O66 C65 1.160 . S
O67 Zn68 1.899 . S
O67 C75 1.284 . S
Zn68 O67 1.899 . S
Zn68 O69 2.032 . S
Zn68 O72 2.086 . S
Zn68 O77 1.977 . S
O69 Zn68 2.032 . S
O69 C73 1.278 . S
C70 O71 1.203 . S
C70 O77 1.267 . S
O71 C70 1.203 . S
O72 C65 1.185 . S
O72 Zn68 2.086 . S
C73 O69 1.278 . S
C73 O74 1.211 . S
O74 C73 1.211 . S
C75 O67 1.284 . S
C75 O76 1.273 . S
O76 C75 1.273 . S
O77 Zn68 1.977 . S
O77 C70 1.267 . S
C78 O79 1.160 1_545 S
C78 O85 1.185 . S
O79 C78 1.160 1_565 S
O80 Zn81 1.899 . S
O80 C88 1.284 1_545 S
Zn81 O80 1.899 . S
Zn81 O82 2.032 1_545 S
Zn81 O85 2.086 . S
Zn81 O90 1.977 . S
O82 Zn81 2.032 1_565 S
O82 C86 1.278 . S
C83 O84 1.203 . S
C83 O90 1.267 . S
O84 C83 1.203 . S
O85 C78 1.185 . S
O85 Zn81 2.086 . S
C86 O82 1.278 . S
C86 O87 1.211 . S
O87 C86 1.211 . S
C88 O80 1.284 1_565 S
C88 O89 1.273 . S
O89 C88 1.273 . S
O90 Zn81 1.977 . S
O90 C83 1.267 . S
C91 O92 1.160 . S
C91 O98 1.185 . S
O92 C91 1.160 . S
O93 Zn94 1.899 . S
O93 C101 1.284 . S
Zn94 O93 1.899 . S
Zn94 O95 2.032 . S
Zn94 O98 2.086 . S
Zn94 O103 1.977 . S
O95 Zn94 2.032 . S
O95 C99 1.278 . S
C96 O97 1.203 . S
C96 O103 1.267 . S
O97 C96 1.203 . S
O98 C91 1.185 . S
O98 Zn94 2.086 . S
C99 O95 1.278 . S
C99 O100 1.211 . S
O100 C99 1.211 . S
C101 O93 1.284 . S
C101 O102 1.273 . S
O102 C101 1.273 . S
O103 Zn94 1.977 . S
O103 C96 1.267 . S
C104 O105 1.160 1_556 S
C104 O111 1.185 . S
O105 C104 1.160 1_554 S
O106 Zn107 1.899 . S
O106 C114 1.284 1_556 S
Zn107 O106 1.899 . S
Zn107 O108 2.032 1_556 S
Zn107 O111 2.086 . S
Zn107 O116 1.977 . S
O108 Zn107 2.032 1_554 S
O108 C112 1.278 . S
C109 O110 1.203 . S
C109 O116 1.267 . S
O110 C109 1.203 . S
O111 C104 1.185 . S
O111 Zn107 2.086 . S
C112 O108 1.278 . S
C112 O113 1.211 . S
O113 C112 1.211 . S
C114 O106 1.284 1_554 S
C114 O115 1.273 . S
O115 C114 1.273 . S
O116 Zn107 1.977 . S
O116 C109 1.267 . S
C117 O118 1.160 . S
C117 O124 1.185 . S
O118 C117 1.160 . S
O119 Zn120 1.899 . S
O119 C127 1.284 . S
Zn120 O119 1.899 . S
Zn120 O121 2.032 . S
Zn120 O124 2.086 . S
Zn120 O129 1.977 . S
O121 Zn120 2.032 . S
O121 C125 1.278 . S
C122 O123 1.203 . S
C122 O129 1.267 . S
O123 C122 1.203 . S
O124 C117 1.185 . S
O124 Zn120 2.086 . S
C125 O121 1.278 . S
C125 O126 1.211 . S
O126 C125 1.211 . S
C127 O119 1.284 . S
C127 O128 1.273 . S
O128 C127 1.273 . S
O129 Zn120 1.977 . S
O129 C122 1.267 . S
C130 O131 1.160 . S
C130 O137 1.185 . S
O131 C130 1.160 . S
O132 Zn133 1.899 . S
O132 C140 1.284 . S
Zn133 O132 1.899 . S
Zn133 O134 2.032 . S
Zn133 O137 2.086 . S
Zn133 O142 1.977 . S
O134 Zn133 2.032 . S
O134 C138 1.278 . S
C135 O136 1.203 . S
C135 O142 1.267 . S
O136 C135 1.203 . S
O137 C130 1.185 . S
O137 Zn133 2.086 . S
C138 O134 1.278 . S
C138 O139 1.211 . S
O139 C138 1.211 . S
C140 O132 1.284 . S
C140 O141 1.273 . S
O141 C140 1.273 . S
O142 Zn133 1.977 . S
O142 C135 1.267 . S
C143 O144 1.160 . S
C143 O150 1.185 . S
O144 C143 1.160 . S
O145 Zn146 1.899 . S
O145 C153 1.284 . S
Zn146 O145 1.899 . S
Zn146 O147 2.032 . S
Zn146 O150 2.086 . S
Zn146 O155 1.977 . S
O147 Zn146 2.032 . S
O147 C151 1.278 . S
C148 O149 1.203 . S
C148 O155 1.267 . S
O149 C148 1.203 . S
O150 C143 1.185 . S
O150 Zn146 2.086 . S
C151 O147 1.278 . S
C151 O152 1.211 . S
O152 C151 1.211 . S
C153 O145 1.284 . S
C153 O154 1.273 . S
O154 C153 1.273 . S
O155 Zn146 1.977 . S
O155 C148 1.267 . S
C156 O157 1.160 . S
C156 O163 1.185 . S
O157 C156 1.160 . S
O158 Zn159 1.899 . S
O158 C166 1.284 . S
Zn159 O158 1.899 . S
Zn159 O160 2.032 . S
Zn159 O163 2.086 . S
Zn159 O168 1.977 . S
O160 Zn159 2.032 . S
O160 C164 1.278 . S
C161 O162 1.203 . S
C161 O168 1.267 . S
O162 C161 1.203 . S
O163 C156 1.185 . S
O163 Zn159 2.086 . S
C164 O160 1.278 . S
C164 O165 1.211 . S
O165 C164 1.211 . S
C166 O158 1.284 . S
C166 O167 1.273 . S
O167 C166 1.273 . S
O168 Zn159 1.977 . S
O168 C161 1.267 . S
C169 O170 1.160 . S
C169 O176 1.185 . S
O170 C169 1.160 . S
O171 Zn172 1.899 . S
O171 C179 1.284 . S
Zn172 O171 1.899 . S
Zn172 O173 2.032 . S
Zn172 O176 2.086 . S
Zn172 O181 1.977 . S
O173 Zn172 2.032 . S
O173 C177 1.278 . S
C174 O175 1.203 . S
C174 O181 1.267 . S
O175 C174 1.203 . S
O176 C169 1.185 . S
O176 Zn172 2.086 . S
C177 O173 1.278 . S
C177 O178 1.211 . S
O178 C177 1.211 . S
C179 O171 1.284 . S
C179 O180 1.273 . S
O180 C179 1.273 . S
O181 Zn172 1.977 . S
O181 C174 1.267 . S
C182 O183 1.160 . S
C182 O189 1.185 . S
O183 C182 1.160 . S
O184 Zn185 1.899 . S
O184 C192 1.284 . S
Zn185 O184 1.899 . S
Zn185 O186 2.032 . S
Zn185 O189 2.086 . S
Zn185 O194 1.977 . S
O186 Zn185 2.032 . S
O186 C190 1.278 . S
C187 O188 1.203 . S
C187 O194 1.267 . S
O188 C187 1.203 . S
O189 C182 1.185 . S
O189 Zn185 2.086 . S
C190 O186 1.278 . S
C190 O191 1.211 . S
O191 C190 1.211 . S
C192 O184 1.284 . S
C192 O193 1.273 . S
O193 C192 1.273 . S
O194 Zn185 1.977 . S
O194 C187 1.267 . S
C195 O196 1.160 . S
C195 O202 1.185 . S
O196 C195 1.160 . S
O197 Zn198 1.899 . S
O197 C205 1.284 . S
Zn198 O197 1.899 . S
Zn198 O199 2.032 . S
Zn198 O202 2.086 . S
Zn198 O207 1.977 . S
O199 Zn198 2.032 . S
O199 C203 1.278 . S
C200 O201 1.203 . S
C200 O207 1.267 . S
O201 C200 1.203 . S
O202 C195 1.185 . S
O202 Zn198 2.086 . S
C203 O199 1.278 . S
C203 O204 1.211 . S
O204 C203 1.211 . S
C205 O197 1.284 . S
C205 O206 1.273 . S
O206 C205 1.273 . S
O207 Zn198 1.977 . S
O207 C200 1.267 . S
C208 O209 1.160 . S
C208 O215 1.185 . S
O209 C208 1.160 . S
O210 Zn211 1.899 . S
O210 C218 1.284 . S
Zn211 O210 1.899 . S
Zn211 O212 2.032 . S
Zn211 O215 2.086 . S
Zn211 O220 1.977 . S
O212 Zn211 2.032 . S
O212 C216 1.278 . S
C213 O214 1.203 . S
C213 O220 1.267 . S
O214 C213 1.203 . S
O215 C208 1.185 . S
O215 Zn211 2.086 . S
C216 O212 1.278 . S
C216 O217 1.211 . S
O217 C216 1.211 . S
C218 O210 1.284 . S
C218 O219 1.273 . S
O219 C218 1.273 . S
O220 Zn211 1.977 . S
O220 C213 1.267 . S
C221 O222 1.160 1_545 S
C221 O228 1.185 . S
O222 C221 1.160 1_565 S
O223 Zn224 1.899 . S
O223 C231 1.284 1_545 S
Zn224 O223 1.899 . S
Zn224 O225 2.032 1_545 S
Zn224 O228 2.086 . S
Zn224 O233 1.977 . S
O225 Zn224 2.032 1_565 S
O225 C229 1.278 . S
C226 O227 1.203 . S
C226 O233 1.267 . S
O227 C226 1.203 . S
O228 C221 1.185 . S
O228 Zn224 2.086 . S
C229 O225 1.278 . S
C229 O230 1.211 . S
O230 C229 1.211 . S
C231 O223 1.284 1_565 S
C231 O232 1.273 . S
O232 C231 1.273 . S
O233 Zn224 1.977 . S
O233 C226 1.267 . S
C234 O235 1.160 . S
C234 O241 1.185 . S
O235 C234 1.160 . S
O236 Zn237 1.899 . S
O236 C244 1.284 . S
Zn237 O236 1.899 . S
Zn237 O238 2.032 . S
Zn237 O241 2.086 . S
Zn237 O246 1.977 . S
O238 Zn237 2.032 . S
O238 C242 1.278 . S
C239 O240 1.203 . S
C239 O246 1.267 . S
O240 C239 1.203 . S
O241 C234 1.185 . S
O241 Zn237 2.086 . S
C242 O238 1.278 . S
C242 O243 1.211 . S
O243 C242 1.211 . S
C244 O236 1.284 . S
C244 O245 1.273 . S
O245 C244 1.273 . S
O246 Zn237 1.977 . S
O246 C239 1.267 . S
C247 O248 1.160 1_565 S
C247 O254 1.185 . S
O248 C247 1.160 1_545 S
O249 Zn250 1.899 . S
O249 C257 1.284 1_565 S
Zn250 O249 1.899 . S
Zn250 O251 2.032 1_565 S
Zn250 O254 2.086 . S
Zn250 O259 1.977 . S
O251 Zn250 2.032 1_545 S
O251 C255 1.278 . S
C252 O253 1.203 . S
C252 O259 1.267 . S
O253 C252 1.203 . S
O254 C247 1.185 . S
O254 Zn250 2.086 . S
C255 O251 1.278 . S
C255 O256 1.211 . S
O256 C255 1.211 . S
C257 O249 1.284 1_545 S
C257 O258 1.273 . S
O258 C257 1.273 . S
O259 Zn250 1.977 . S
O259 C252 1.267 . S
C260 O261 1.160 . S
C260 O267 1.185 . S
O261 C260 1.160 . S
O262 Zn263 1.899 . S
O262 C270 1.284 . S
Zn263 O262 1.899 . S
Zn263 O264 2.032 . S
Zn263 O267 2.086 . S
Zn263 O272 1.977 . S
O264 Zn263 2.032 . S
O264 C268 1.278 . S
C265 O266 1.203 . S
C265 O272 1.267 . S
O266 C265 1.203 . S
O267 C260 1.185 . S
O267 Zn263 2.086 . S
C268 O264 1.278 . S
C268 O269 1.211 . S
O269 C268 1.211 . S
C270 O262 1.284 . S
C270 O271 1.273 . S
O271 C270 1.273 . S
O272 Zn263 1.977 . S
O272 C265 1.267 . S
C273 O274 1.160 1_554 S
C273 O280 1.185 . S
O274 C273 1.160 1_556 S
O275 Zn276 1.899 . S
O275 C283 1.284 1_554 S
Zn276 O275 1.899 . S
Zn276 O277 2.032 1_554 S
Zn276 O280 2.086 . S
Zn276 O285 1.977 . S
O277 Zn276 2.032 1_556 S
O277 C281 1.278 . S
C278 O279 1.203 . S
C278 O285 1.267 . S
O279 C278 1.203 . S
O280 C273 1.185 . S
O280 Zn276 2.086 . S
C281 O277 1.278 . S
C281 O282 1.211 . S
O282 C281 1.211 . S
C283 O275 1.284 1_556 S
C283 O284 1.273 . S
O284 C283 1.273 . S
O285 Zn276 1.977 . S
O285 C278 1.267 . S
C286 O287 1.160 1_554 S
C286 O293 1.185 . S
O287 C286 1.160 1_556 S
O288 Zn289 1.899 . S
O288 C296 1.284 1_554 S
Zn289 O288 1.899 . S
Zn289 O290 2.032 1_554 S
Zn289 O293 2.086 . S
Zn289 O298 1.977 . S
O290 Zn289 2.032 1_556 S
O290 C294 1.278 . S
C291 O292 1.203 . S
C291 O298 1.267 . S
O292 C291 1.203 . S
O293 C286 1.185 . S
O293 Zn289 2.086 . S
C294 O290 1.278 . S
C294 O295 1.211 . S
O295 C294 1.211 . S
C296 O288 1.284 1_556 S
C296 O297 1.273 . S
O297 C296 1.273 . S
O298 Zn289 1.977 . S
O298 C291 1.267 . S
C299 O300 1.160 1_556 S
C299 O306 1.185 . S
O300 C299 1.160 1_554 S
O301 Zn302 1.899 . S
O301 C309 1.284 1_556 S
Zn302 O301 1.899 . S
Zn302 O303 2.032 1_556 S
Zn302 O306 2.086 . S
Zn302 O311 1.977 . S
O303 Zn302 2.032 1_554 S
O303 C307 1.278 . S
C304 O305 1.203 . S
C304 O311 1.267 . S
O305 C304 1.203 . S
O306 C299 1.185 . S
O306 Zn302 2.086 . S
C307 O303 1.278 . S
C307 O308 1.211 . S
O308 C307 1.211 . S
C309 O301 1.284 1_554 S
C309 O310 1.273 . S
O310 C309 1.273 . S
O311 Zn302 1.977 . S
O311 C304 1.267 . S
H312 C324 0.930 . S
H313 C326 0.930 . S
H314 C327 0.930 . S
H315 C331 0.959 . S
H316 C331 0.959 . S
H317 C331 0.961 . S
H318 C332 0.960 1_565 S
H319 C332 0.961 1_565 S
H320 C332 0.959 . S
H321 C335 0.929 . S
H322 C336 0.931 . S
H323 C338 0.930 . S
C324 H312 0.930 . S
C324 C325 1.399 . S
C324 C329 1.399 . S
C325 C324 1.399 . S
C325 C326 1.376 . S
C326 H313 0.930 . S
C326 C325 1.376 . S
C326 C327 1.388 . S
C327 H314 0.930 . S
C327 C326 1.388 . S
C327 C328 1.390 . S
C328 C327 1.390 . S
C328 C329 1.394 . S
C328 C334 1.465 . S
C329 C324 1.399 . S
C329 C328 1.394 . S
C329 C330 1.516 . S
C330 C329 1.516 . S
C330 C331 1.502 . S
C330 C332 1.561 . S
C330 C333 1.526 . S
C331 H315 0.959 . S
C331 H316 0.959 . S
C331 H317 0.961 . S
C331 C330 1.502 . S
C332 H318 0.960 1_545 S
C332 H319 0.961 1_545 S
C332 H320 0.959 . S
C332 C330 1.561 . S
C333 C330 1.526 . S
C333 C334 1.396 . S
C333 C338 1.390 . S
C334 C328 1.465 . S
C334 C333 1.396 . S
C334 C335 1.399 . S
C335 H321 0.929 . S
C335 C334 1.399 . S
C335 C336 1.385 . S
C336 H322 0.931 . S
C336 C335 1.385 . S
C336 C337 1.389 . S
C337 C336 1.389 . S
C337 C338 1.387 . S
C338 H323 0.930 . S
C338 C333 1.390 . S
C338 C337 1.387 . S
H339 C351 0.930 . S
H340 C353 0.930 . S
H341 C354 0.930 . S
H342 C358 0.959 . S
H343 C358 0.959 . S
H344 C358 0.961 . S
H345 C359 0.960 . S
H346 C359 0.961 . S
H347 C359 0.959 . S
H348 C362 0.929 . S
H349 C363 0.931 . S
H350 C365 0.930 . S
C351 H339 0.930 . S
C351 C352 1.399 . S
C351 C356 1.399 . S
C352 C351 1.399 . S
C352 C353 1.376 . S
C353 H340 0.930 . S
C353 C352 1.376 . S
C353 C354 1.388 . S
C354 H341 0.930 . S
C354 C353 1.388 . S
C354 C355 1.390 . S
C355 C354 1.390 . S
C355 C356 1.394 . S
C355 C361 1.465 . S
C356 C351 1.399 . S
C356 C355 1.394 . S
C356 C357 1.516 . S
C357 C356 1.516 . S
C357 C358 1.502 . S
C357 C359 1.561 . S
C357 C360 1.526 . S
C358 H342 0.959 . S
C358 H343 0.959 . S
C358 H344 0.961 . S
C358 C357 1.502 . S
C359 H345 0.960 . S
C359 H346 0.961 . S
C359 H347 0.959 . S
C359 C357 1.561 . S
C360 C357 1.526 . S
C360 C361 1.396 . S
C360 C365 1.390 . S
C361 C355 1.465 . S
C361 C360 1.396 . S
C361 C362 1.399 . S
C362 H348 0.929 . S
C362 C361 1.399 . S
C362 C363 1.385 . S
C363 H349 0.931 . S
C363 C362 1.385 . S
C363 C364 1.389 . S
C364 C363 1.389 . S
C364 C365 1.387 . S
C365 H350 0.930 . S
C365 C360 1.390 . S
C365 C364 1.387 . S
H366 C378 0.930 . S
H367 C380 0.930 . S
H368 C381 0.930 . S
H369 C385 0.959 . S
H370 C385 0.976 . S
H371 C385 0.961 . S
H372 C386 0.960 . S
H373 C386 0.961 1_556 S
H374 C386 0.958 . S
H375 C389 0.916 1_554 S
H376 C390 0.931 . S
H377 C392 0.930 . S
C378 H366 0.930 . S
C378 C379 1.399 . S
C378 C383 1.399 . S
C379 C378 1.399 . S
C379 C380 1.376 . S
C380 H367 0.930 . S
C380 C379 1.376 . S
C380 C381 1.388 . S
C381 H368 0.930 . S
C381 C380 1.388 . S
C381 C382 1.390 . S
C382 C381 1.390 . S
C382 C383 1.394 . S
C382 C388 1.465 . S
C383 C378 1.399 . S
C383 C382 1.394 . S
C383 C384 1.516 . S
C384 C383 1.516 . S
C384 C385 1.502 . S
C384 C386 1.561 . S
C384 C387 1.526 1_554 S
C385 H369 0.959 . S
C385 H370 0.976 . S
C385 H371 0.961 . S
C385 C384 1.502 . S
C386 H372 0.960 . S
C386 H373 0.961 1_554 S
C386 H374 0.958 . S
C386 C384 1.561 . S
C387 C384 1.526 1_556 S
C387 C388 1.396 1_556 S
C387 C392 1.390 . S
C388 C382 1.465 . S
C388 C387 1.396 1_554 S
C388 C389 1.386 1_554 S
C389 H375 0.916 1_556 S
C389 C388 1.386 1_556 S
C389 C390 1.413 . S
C390 H376 0.931 . S
C390 C389 1.413 . S
C390 C391 1.389 . S
C391 C390 1.389 . S
C391 C392 1.387 . S
C392 H377 0.930 . S
C392 C387 1.390 . S
C392 C391 1.387 . S
H393 C405 0.930 . S
H394 C407 0.930 . S
H395 C408 0.930 . S
H396 C412 0.959 . S
H397 C412 0.959 1_556 S
H398 C412 0.961 . S
H399 C413 0.960 . S
H400 C413 0.961 . S
H401 C413 0.959 . S
H402 C416 0.929 1_554 S
H403 C417 0.931 . S
H404 C419 0.930 . S
C405 H393 0.930 . S
C405 C406 1.399 . S
C405 C410 1.399 . S
C406 C405 1.399 . S
C406 C407 1.376 . S
C407 H394 0.930 . S
C407 C406 1.376 . S
C407 C408 1.388 . S
C408 H395 0.930 . S
C408 C407 1.388 . S
C408 C409 1.390 . S
C409 C408 1.390 . S
C409 C410 1.394 . S
C409 C415 1.465 . S
C410 C405 1.399 . S
C410 C409 1.394 . S
C410 C411 1.516 . S
C411 C410 1.516 . S
C411 C412 1.502 . S
C411 C413 1.561 . S
C411 C414 1.526 1_554 S
C412 H396 0.959 . S
C412 H397 0.959 1_554 S
C412 H398 0.961 . S
C412 C411 1.502 . S
C413 H399 0.960 . S
C413 H400 0.961 . S
C413 H401 0.959 . S
C413 C411 1.561 . S
C414 C411 1.526 1_556 S
C414 C415 1.396 1_556 S
C414 C419 1.390 . S
C415 C409 1.465 . S
C415 C414 1.396 1_554 S
C415 C416 1.399 1_554 S
C416 H402 0.929 1_556 S
C416 C415 1.399 1_556 S
C416 C417 1.385 . S
C417 H403 0.931 . S
C417 C416 1.385 . S
C417 C418 1.389 . S
C418 C417 1.389 . S
C418 C419 1.387 . S
C419 H404 0.930 . S
C419 C414 1.390 . S
C419 C418 1.387 . S
H420 C432 0.930 . S
H421 C434 0.930 . S
H422 C435 0.930 . S
H423 C439 0.959 . S
H424 C439 0.959 . S
H425 C439 0.961 . S
H426 C440 0.948 1_556 S
H427 C440 0.961 1_556 S
H428 C440 0.959 . S
H429 C443 0.929 . S
H430 C444 0.931 . S
H431 C446 0.930 . S
C432 H420 0.930 . S
C432 C433 1.399 . S
C432 C437 1.399 . S
C433 C432 1.399 . S
C433 C434 1.376 . S
C434 H421 0.930 . S
C434 C433 1.376 . S
C434 C435 1.388 . S
C435 H422 0.930 . S
C435 C434 1.388 . S
C435 C436 1.390 . S
C436 C435 1.390 . S
C436 C437 1.394 . S
C436 C442 1.465 . S
C437 C432 1.399 . S
C437 C436 1.394 . S
C437 C438 1.516 . S
C438 C437 1.516 . S
C438 C439 1.502 . S
C438 C440 1.561 . S
C438 C441 1.526 . S
C439 H423 0.959 . S
C439 H424 0.959 . S
C439 H425 0.961 . S
C439 C438 1.502 . S
C440 H426 0.948 1_554 S
C440 H427 0.961 1_554 S
C440 H428 0.959 . S
C440 C438 1.561 . S
C441 C438 1.526 . S
C441 C442 1.396 . S
C441 C446 1.390 . S
C442 C436 1.465 . S
C442 C441 1.396 . S
C442 C443 1.399 . S
C443 H429 0.929 . S
C443 C442 1.399 . S
C443 C444 1.385 . S
C444 H430 0.931 . S
C444 C443 1.385 . S
C444 C445 1.389 . S
C445 C444 1.389 . S
C445 C446 1.387 . S
C446 H431 0.930 . S
C446 C441 1.390 . S
C446 C445 1.387 . S
H447 C459 0.930 . S
H448 C461 0.930 . S
H449 C462 0.930 . S
H450 C466 0.959 . S
H451 C466 0.959 . S
H452 C466 0.961 . S
H453 C467 0.960 . S
H454 C467 0.961 . S
H455 C467 0.959 . S
H456 C470 0.929 . S
H457 C471 0.931 . S
H458 C473 0.930 . S
C459 H447 0.930 . S
C459 C460 1.399 . S
C459 C464 1.399 . S
C460 C459 1.399 . S
C460 C461 1.376 . S
C461 H448 0.930 . S
C461 C460 1.376 . S
C461 C462 1.388 . S
C462 H449 0.930 . S
C462 C461 1.388 . S
C462 C463 1.390 . S
C463 C462 1.390 . S
C463 C464 1.394 . S
C463 C469 1.465 . S
C464 C459 1.399 . S
C464 C463 1.394 . S
C464 C465 1.516 . S
C465 C464 1.516 . S
C465 C466 1.502 . S
C465 C467 1.561 . S
C465 C468 1.526 . S
C466 H450 0.959 . S
C466 H451 0.959 . S
C466 H452 0.961 . S
C466 C465 1.502 . S
C467 H453 0.960 . S
C467 H454 0.961 . S
C467 H455 0.959 . S
C467 C465 1.561 . S
C468 C465 1.526 . S
C468 C469 1.396 . S
C468 C473 1.390 . S
C469 C463 1.465 . S
C469 C468 1.396 . S
C469 C470 1.399 . S
C470 H456 0.929 . S
C470 C469 1.399 . S
C470 C471 1.385 . S
C471 H457 0.931 . S
C471 C470 1.385 . S
C471 C472 1.389 . S
C472 C471 1.389 . S
C472 C473 1.387 . S
C473 H458 0.930 . S
C473 C468 1.390 . S
C473 C472 1.387 . S
H474 C486 0.930 . S
H475 C488 0.930 . S
H476 C489 0.930 . S
H477 C493 0.959 . S
H478 C493 0.959 . S
H479 C493 0.961 . S
H480 C494 0.960 . S
H481 C494 0.961 . S
H482 C494 0.959 . S
H483 C497 0.929 . S
H484 C498 0.931 . S
H485 C500 0.930 . S
C486 H474 0.930 . S
C486 C487 1.399 . S
C486 C491 1.399 . S
C487 C486 1.399 . S
C487 C488 1.376 . S
C488 H475 0.930 . S
C488 C487 1.376 . S
C488 C489 1.388 . S
C489 H476 0.930 . S
C489 C488 1.388 . S
C489 C490 1.390 . S
C490 C489 1.390 . S
C490 C491 1.394 . S
C490 C496 1.465 . S
C491 C486 1.399 . S
C491 C490 1.394 . S
C491 C492 1.516 . S
C492 C491 1.516 . S
C492 C493 1.502 . S
C492 C494 1.561 . S
C492 C495 1.526 . S
C493 H477 0.959 . S
C493 H478 0.959 . S
C493 H479 0.961 . S
C493 C492 1.502 . S
C494 H480 0.960 . S
C494 H481 0.961 . S
C494 H482 0.959 . S
C494 C492 1.561 . S
C495 C492 1.526 . S
C495 C496 1.396 . S
C495 C500 1.390 . S
C496 C490 1.465 . S
C496 C495 1.396 . S
C496 C497 1.399 . S
C497 H483 0.929 . S
C497 C496 1.399 . S
C497 C498 1.385 . S
C498 H484 0.931 . S
C498 C497 1.385 . S
C498 C499 1.389 . S
C499 C498 1.389 . S
C499 C500 1.387 . S
C500 H485 0.930 . S
C500 C495 1.390 . S
C500 C499 1.387 . S
H501 C513 0.930 . S
H502 C515 0.930 . S
H503 C516 0.930 . S
H504 C520 0.959 . S
H505 C520 0.959 . S
H506 C520 0.961 . S
H507 C521 0.960 . S
H508 C521 0.961 . S
H509 C521 0.959 . S
H510 C524 0.929 . S
H511 C525 0.931 . S
H512 C527 0.930 . S
C513 H501 0.930 . S
C513 C514 1.399 . S
C513 C518 1.399 . S
C514 C513 1.399 . S
C514 C515 1.376 . S
C515 H502 0.930 . S
C515 C514 1.376 . S
C515 C516 1.388 . S
C516 H503 0.930 . S
C516 C515 1.388 . S
C516 C517 1.390 . S
C517 C516 1.390 . S
C517 C518 1.394 . S
C517 C523 1.465 . S
C518 C513 1.399 . S
C518 C517 1.394 . S
C518 C519 1.516 . S
C519 C518 1.516 . S
C519 C520 1.502 . S
C519 C521 1.561 . S
C519 C522 1.526 . S
C520 H504 0.959 . S
C520 H505 0.959 . S
C520 H506 0.961 . S
C520 C519 1.502 . S
C521 H507 0.960 . S
C521 H508 0.961 . S
C521 H509 0.959 . S
C521 C519 1.561 . S
C522 C519 1.526 . S
C522 C523 1.396 . S
C522 C527 1.390 . S
C523 C517 1.465 . S
C523 C522 1.396 . S
C523 C524 1.399 . S
C524 H510 0.929 . S
C524 C523 1.399 . S
C524 C525 1.385 . S
C525 H511 0.931 . S
C525 C524 1.385 . S
C525 C526 1.389 . S
C526 C525 1.389 . S
C526 C527 1.387 . S
C527 H512 0.930 . S
C527 C522 1.390 . S
C527 C526 1.387 . S
H528 C540 0.930 . S
H529 C542 0.930 . S
H530 C543 0.930 . S
H531 C547 0.959 . S
H532 C547 0.959 . S
H533 C547 0.961 . S
H534 C548 0.960 . S
H535 C548 0.961 . S
H536 C548 0.959 . S
H537 C551 0.929 . S
H538 C552 0.931 . S
H539 C554 0.930 . S
C540 H528 0.930 . S
C540 C541 1.399 . S
C540 C545 1.399 . S
C541 C540 1.399 . S
C541 C542 1.376 . S
C542 H529 0.930 . S
C542 C541 1.376 . S
C542 C543 1.388 . S
C543 H530 0.930 . S
C543 C542 1.388 . S
C543 C544 1.390 . S
C544 C543 1.390 . S
C544 C545 1.394 . S
C544 C550 1.465 . S
C545 C540 1.399 . S
C545 C544 1.394 . S
C545 C546 1.516 . S
C546 C545 1.516 . S
C546 C547 1.502 . S
C546 C548 1.561 . S
C546 C549 1.526 . S
C547 H531 0.959 . S
C547 H532 0.959 . S
C547 H533 0.961 . S
C547 C546 1.502 . S
C548 H534 0.960 . S
C548 H535 0.961 . S
C548 H536 0.959 . S
C548 C546 1.561 . S
C549 C546 1.526 . S
C549 C550 1.396 . S
C549 C554 1.390 . S
C550 C544 1.465 . S
C550 C549 1.396 . S
C550 C551 1.399 . S
C551 H537 0.929 . S
C551 C550 1.399 . S
C551 C552 1.385 . S
C552 H538 0.931 . S
C552 C551 1.385 . S
C552 C553 1.389 . S
C553 C552 1.389 . S
C553 C554 1.387 . S
C554 H539 0.930 . S
C554 C549 1.390 . S
C554 C553 1.387 . S
H555 C567 0.930 . S
H556 C569 0.930 . S
H557 C570 0.930 . S
H558 C574 0.959 . S
H559 C574 0.959 . S
H560 C574 0.961 . S
H561 C575 0.960 . S
H562 C575 0.961 . S
H563 C575 0.959 . S
H564 C578 0.929 . S
H565 C579 0.931 . S
H566 C581 0.930 . S
C567 H555 0.930 . S
C567 C568 1.399 . S
C567 C572 1.399 . S
C568 C567 1.399 . S
C568 C569 1.376 . S
C569 H556 0.930 . S
C569 C568 1.376 . S
C569 C570 1.388 . S
C570 H557 0.930 . S
C570 C569 1.388 . S
C570 C571 1.390 . S
C571 C570 1.390 . S
C571 C572 1.394 . S
C571 C577 1.465 . S
C572 C567 1.399 . S
C572 C571 1.394 . S
C572 C573 1.516 . S
C573 C572 1.516 . S
C573 C574 1.502 . S
C573 C575 1.561 . S
C573 C576 1.526 . S
C574 H558 0.959 . S
C574 H559 0.959 . S
C574 H560 0.961 . S
C574 C573 1.502 . S
C575 H561 0.960 . S
C575 H562 0.961 . S
C575 H563 0.959 . S
C575 C573 1.561 . S
C576 C573 1.526 . S
C576 C577 1.396 . S
C576 C581 1.390 . S
C577 C571 1.465 . S
C577 C576 1.396 . S
C577 C578 1.399 . S
C578 H564 0.929 . S
C578 C577 1.399 . S
C578 C579 1.385 . S
C579 H565 0.931 . S
C579 C578 1.385 . S
C579 C580 1.389 . S
C580 C579 1.389 . S
C580 C581 1.387 . S
C581 H566 0.930 . S
C581 C576 1.390 . S
C581 C580 1.387 . S
H582 C594 0.930 . S
H583 C596 0.930 . S
H584 C597 0.930 . S
H585 C601 0.959 . S
H586 C601 0.959 . S
H587 C601 0.961 . S
H588 C602 0.960 . S
H589 C602 0.961 . S
H590 C602 0.959 . S
H591 C605 0.929 . S
H592 C606 0.931 . S
H593 C608 0.930 . S
C594 H582 0.930 . S
C594 C595 1.399 . S
C594 C599 1.399 . S
C595 C594 1.399 . S
C595 C596 1.376 . S
C596 H583 0.930 . S
C596 C595 1.376 . S
C596 C597 1.388 . S
C597 H584 0.930 . S
C597 C596 1.388 . S
C597 C598 1.390 . S
C598 C597 1.390 . S
C598 C599 1.394 . S
C598 C604 1.465 . S
C599 C594 1.399 . S
C599 C598 1.394 . S
C599 C600 1.516 . S
C600 C599 1.516 . S
C600 C601 1.502 . S
C600 C602 1.561 . S
C600 C603 1.526 . S
C601 H585 0.959 . S
C601 H586 0.959 . S
C601 H587 0.961 . S
C601 C600 1.502 . S
C602 H588 0.960 . S
C602 H589 0.961 . S
C602 H590 0.959 . S
C602 C600 1.561 . S
C603 C600 1.526 . S
C603 C604 1.396 . S
C603 C608 1.390 1_565 S
C604 C598 1.465 . S
C604 C603 1.396 . S
C604 C605 1.399 1_565 S
C605 H591 0.929 . S
C605 C604 1.399 1_545 S
C605 C606 1.385 . S
C606 H592 0.931 . S
C606 C605 1.385 . S
C606 C607 1.389 . S
C607 C606 1.389 . S
C607 C608 1.387 . S
C608 H593 0.930 . S
C608 C603 1.390 1_545 S
C608 C607 1.387 . S
H609 C621 0.930 . S
H610 C623 0.930 . S
H611 C624 0.930 . S
H612 C628 0.959 . S
H613 C628 0.959 . S
H614 C628 0.961 . S
H615 C629 0.960 . S
H616 C629 0.961 . S
H617 C629 0.959 . S
H618 C632 0.929 . S
H619 C633 0.931 . S
H620 C635 0.930 . S
C621 H609 0.930 . S
C621 C622 1.399 . S
C621 C626 1.399 . S
C622 C621 1.399 . S
C622 C623 1.376 . S
C623 H610 0.930 . S
C623 C622 1.376 . S
C623 C624 1.388 . S
C624 H611 0.930 . S
C624 C623 1.388 . S
C624 C625 1.390 . S
C625 C624 1.390 . S
C625 C626 1.394 . S
C625 C631 1.465 . S
C626 C621 1.399 . S
C626 C625 1.394 . S
C626 C627 1.516 . S
C627 C626 1.516 . S
C627 C628 1.502 . S
C627 C629 1.561 . S
C627 C630 1.526 . S
C628 H612 0.959 . S
C628 H613 0.959 . S
C628 H614 0.961 . S
C628 C627 1.502 . S
C629 H615 0.960 . S
C629 H616 0.961 . S
C629 H617 0.959 . S
C629 C627 1.561 . S
C630 C627 1.526 . S
C630 C631 1.396 . S
C630 C635 1.390 . S
C631 C625 1.465 . S
C631 C630 1.396 . S
C631 C632 1.399 . S
C632 H618 0.929 . S
C632 C631 1.399 . S
C632 C633 1.385 . S
C633 H619 0.931 . S
C633 C632 1.385 . S
C633 C634 1.389 . S
C634 C633 1.389 . S
C634 C635 1.387 . S
C635 H620 0.930 . S
C635 C630 1.390 . S
C635 C634 1.387 . S
H636 C648 0.930 . S
H637 C650 0.930 . S
H638 C651 0.930 . S
H639 C655 0.959 . S
H640 C655 0.959 . S
H641 C655 0.961 . S
H642 C656 0.960 . S
H643 C656 0.961 . S
H644 C656 0.959 . S
H645 C659 0.929 . S
H646 C660 0.931 . S
H647 C662 0.930 . S
C648 H636 0.930 . S
C648 C649 1.399 . S
C648 C653 1.399 1_554 S
C649 C648 1.399 . S
C649 C650 1.376 . S
C650 H637 0.930 . S
C650 C649 1.376 . S
C650 C651 1.388 . S
C651 H638 0.930 . S
C651 C650 1.388 . S
C651 C652 1.390 1_554 S
C652 C651 1.390 1_556 S
C652 C653 1.394 . S
C652 C658 1.465 . S
C653 C648 1.399 1_556 S
C653 C652 1.394 . S
C653 C654 1.516 . S
C654 C653 1.516 . S
C654 C655 1.502 . S
C654 C656 1.561 . S
C654 C657 1.526 . S
C655 H639 0.959 . S
C655 H640 0.959 . S
C655 H641 0.961 . S
C655 C654 1.502 . S
C656 H642 0.960 . S
C656 H643 0.961 . S
C656 H644 0.959 . S
C656 C654 1.561 . S
C657 C654 1.526 . S
C657 C658 1.396 . S
C657 C662 1.390 . S
C658 C652 1.465 . S
C658 C657 1.396 . S
C658 C659 1.399 . S
C659 H645 0.929 . S
C659 C658 1.399 . S
C659 C660 1.385 . S
C660 H646 0.931 . S
C660 C659 1.385 . S
C660 C661 1.389 . S
C661 C660 1.389 . S
C661 C662 1.387 . S
C662 H647 0.930 . S
C662 C657 1.390 . S
C662 C661 1.387 . S
H663 C675 0.930 . S
H664 C677 0.930 . S
H665 C678 0.930 . S
H666 C682 0.959 . S
H667 C682 0.959 . S
H668 C682 0.961 . S
H669 C683 0.960 . S
H670 C683 0.961 . S
H671 C683 0.959 . S
H672 C686 0.929 . S
H673 C687 0.931 . S
H674 C689 0.930 . S
C675 H663 0.930 . S
C675 C676 1.399 . S
C675 C680 1.399 1_554 S
C676 C675 1.399 . S
C676 C677 1.376 . S
C677 H664 0.930 . S
C677 C676 1.376 . S
C677 C678 1.388 . S
C678 H665 0.930 . S
C678 C677 1.388 . S
C678 C679 1.390 1_554 S
C679 C678 1.390 1_556 S
C679 C680 1.394 . S
C679 C685 1.465 . S
C680 C675 1.399 1_556 S
C680 C679 1.394 . S
C680 C681 1.516 . S
C681 C680 1.516 . S
C681 C682 1.502 . S
C681 C683 1.561 . S
C681 C684 1.526 . S
C682 H666 0.959 . S
C682 H667 0.959 . S
C682 H668 0.961 . S
C682 C681 1.502 . S
C683 H669 0.960 . S
C683 H670 0.961 . S
C683 H671 0.959 . S
C683 C681 1.561 . S
C684 C681 1.526 . S
C684 C685 1.396 . S
C684 C689 1.390 . S
C685 C679 1.465 . S
C685 C684 1.396 . S
C685 C686 1.399 . S
C686 H672 0.929 . S
C686 C685 1.399 . S
C686 C687 1.385 . S
C687 H673 0.931 . S
C687 C686 1.385 . S
C687 C688 1.389 . S
C688 C687 1.389 . S
C688 C689 1.387 . S
C689 H674 0.930 . S
C689 C684 1.390 . S
C689 C688 1.387 . S
H690 C702 0.930 . S
H691 C704 0.930 . S
H692 C705 0.930 . S
H693 C709 0.959 . S
H694 C709 0.959 . S
H695 C709 0.961 . S
H696 C710 0.960 . S
H697 C710 0.961 . S
H698 C710 0.959 . S
H699 C713 0.929 . S
H700 C714 0.931 . S
H701 C716 0.930 . S
C702 H690 0.930 . S
C702 C703 1.399 . S
C702 C707 1.399 . S
C703 C702 1.399 . S
C703 C704 1.376 . S
C704 H691 0.930 . S
C704 C703 1.376 . S
C704 C705 1.388 . S
C705 H692 0.930 . S
C705 C704 1.388 . S
C705 C706 1.390 . S
C706 C705 1.390 . S
C706 C707 1.394 . S
C706 C712 1.465 . S
C707 C702 1.399 . S
C707 C706 1.394 . S
C707 C708 1.516 . S
C708 C707 1.516 . S
C708 C709 1.502 . S
C708 C710 1.561 . S
C708 C711 1.526 . S
C709 H693 0.959 . S
C709 H694 0.959 . S
C709 H695 0.961 . S
C709 C708 1.502 . S
C710 H696 0.960 . S
C710 H697 0.961 . S
C710 H698 0.959 . S
C710 C708 1.561 . S
C711 C708 1.526 . S
C711 C712 1.396 . S
C711 C716 1.390 . S
C712 C706 1.465 . S
C712 C711 1.396 . S
C712 C713 1.399 . S
C713 H699 0.929 . S
C713 C712 1.399 . S
C713 C714 1.385 . S
C714 H700 0.931 . S
C714 C713 1.385 . S
C714 C715 1.389 . S
C715 C714 1.389 . S
C715 C716 1.387 . S
C716 H701 0.930 . S
C716 C711 1.390 . S
C716 C715 1.387 . S
H717 C729 0.930 . S
H718 C731 0.930 . S
H719 C732 0.930 . S
H720 C736 0.959 . S
H721 C736 0.959 . S
H722 C736 0.961 . S
H723 C737 0.960 . S
H724 C737 0.961 . S
H725 C737 0.959 . S
H726 C740 0.929 . S
H727 C741 0.931 . S
H728 C743 0.930 . S
C729 H717 0.930 . S
C729 C730 1.399 . S
C729 C734 1.399 . S
C730 C729 1.399 . S
C730 C731 1.376 . S
C731 H718 0.930 . S
C731 C730 1.376 . S
C731 C732 1.388 . S
C732 H719 0.930 . S
C732 C731 1.388 . S
C732 C733 1.390 . S
C733 C732 1.390 . S
C733 C734 1.394 . S
C733 C739 1.465 . S
C734 C729 1.399 . S
C734 C733 1.394 . S
C734 C735 1.516 . S
C735 C734 1.516 . S
C735 C736 1.502 . S
C735 C737 1.561 . S
C735 C738 1.526 . S
C736 H720 0.959 . S
C736 H721 0.959 . S
C736 H722 0.961 . S
C736 C735 1.502 . S
C737 H723 0.960 . S
C737 H724 0.961 . S
C737 H725 0.959 . S
C737 C735 1.561 . S
C738 C735 1.526 . S
C738 C739 1.396 . S
C738 C743 1.390 . S
C739 C733 1.465 . S
C739 C738 1.396 . S
C739 C740 1.399 . S
C740 H726 0.929 . S
C740 C739 1.399 . S
C740 C741 1.385 . S
C741 H727 0.931 . S
C741 C740 1.385 . S
C741 C742 1.389 . S
C742 C741 1.389 . S
C742 C743 1.387 . S
C743 H728 0.930 . S
C743 C738 1.390 . S
C743 C742 1.387 . S
H744 C756 0.930 . S
H745 C758 0.930 . S
H746 C759 0.930 . S
H747 C763 0.959 . S
H748 C763 0.959 . S
H749 C763 0.961 . S
H750 C764 0.960 . S
H751 C764 0.961 . S
H752 C764 0.959 . S
H753 C767 0.929 . S
H754 C768 0.931 . S
H755 C770 0.930 . S
C756 H744 0.930 . S
C756 C757 1.399 . S
C756 C761 1.399 1_455 S
C757 C756 1.399 . S
C757 C758 1.376 . S
C758 H745 0.930 . S
C758 C757 1.376 . S
C758 C759 1.388 . S
C759 H746 0.930 . S
C759 C758 1.388 . S
C759 C760 1.390 1_455 S
C760 C759 1.390 1_655 S
C760 C761 1.394 . S
C760 C766 1.465 . S
C761 C756 1.399 1_655 S
C761 C760 1.394 . S
C761 C762 1.516 . S
C762 C761 1.516 . S
C762 C763 1.502 . S
C762 C764 1.561 . S
C762 C765 1.526 . S
C763 H747 0.959 . S
C763 H748 0.959 . S
C763 H749 0.961 . S
C763 C762 1.502 . S
C764 H750 0.960 . S
C764 H751 0.961 . S
C764 H752 0.959 . S
C764 C762 1.561 . S
C765 C762 1.526 . S
C765 C766 1.396 . S
C765 C770 1.390 . S
C766 C760 1.465 . S
C766 C765 1.396 . S
C766 C767 1.399 . S
C767 H753 0.929 . S
C767 C766 1.399 . S
C767 C768 1.385 . S
C768 H754 0.931 . S
C768 C767 1.385 . S
C768 C769 1.389 . S
C769 C768 1.389 . S
C769 C770 1.387 . S
C770 H755 0.930 . S
C770 C765 1.390 . S
C770 C769 1.387 . S
H771 C783 0.930 . S
H772 C785 0.930 . S
H773 C786 0.930 . S
H774 C790 0.959 . S
H775 C790 0.959 . S
H776 C790 0.977 . S
H777 C791 0.960 . S
H778 C791 0.961 . S
H779 C791 0.959 . S
H780 C794 0.929 . S
H781 C795 0.931 . S
H782 C797 0.930 . S
C783 H771 0.930 . S
C783 C784 1.399 . S
C783 C788 1.373 1_655 S
C784 C783 1.399 . S
C784 C785 1.376 . S
C785 H772 0.930 . S
C785 C784 1.376 . S
C785 C786 1.388 . S
C786 H773 0.930 . S
C786 C785 1.388 . S
C786 C787 1.390 1_655 S
C787 C786 1.390 1_455 S
C787 C788 1.403 . S
C787 C793 1.465 . S
C788 C783 1.373 1_455 S
C788 C787 1.403 . S
C788 C789 1.537 . S
C789 C788 1.537 . S
C789 C790 1.502 . S
C789 C791 1.561 . S
C789 C792 1.526 . S
C790 H774 0.959 . S
C790 H775 0.959 . S
C790 H776 0.977 . S
C790 C789 1.502 . S
C791 H777 0.960 . S
C791 H778 0.961 . S
C791 H779 0.959 . S
C791 C789 1.561 . S
C792 C789 1.526 . S
C792 C793 1.396 . S
C792 C797 1.390 . S
C793 C787 1.465 . S
C793 C792 1.396 . S
C793 C794 1.399 . S
C794 H780 0.929 . S
C794 C793 1.399 . S
C794 C795 1.385 . S
C795 H781 0.931 . S
C795 C794 1.385 . S
C795 C796 1.389 . S
C796 C795 1.389 . S
C796 C797 1.387 . S
C797 H782 0.930 . S
C797 C792 1.390 . S
C797 C796 1.387 . S
H798 C810 0.930 . S
H799 C812 0.930 . S
H800 C813 0.930 . S
H801 C817 0.959 . S
H802 C817 0.959 . S
H803 C817 0.961 . S
H804 C818 0.960 . S
H805 C818 0.961 . S
H806 C818 0.959 . S
H807 C821 0.929 . S
H808 C822 0.931 . S
H809 C824 0.930 . S
C810 H798 0.930 . S
C810 C811 1.399 . S
C810 C815 1.399 1_455 S
C811 C810 1.399 . S
C811 C812 1.376 . S
C812 H799 0.930 . S
C812 C811 1.376 . S
C812 C813 1.388 . S
C813 H800 0.930 . S
C813 C812 1.388 . S
C813 C814 1.390 1_455 S
C814 C813 1.390 1_655 S
C814 C815 1.394 . S
C814 C820 1.465 . S
C815 C810 1.399 1_655 S
C815 C814 1.394 . S
C815 C816 1.516 . S
C816 C815 1.516 . S
C816 C817 1.502 . S
C816 C818 1.561 . S
C816 C819 1.526 . S
C817 H801 0.959 . S
C817 H802 0.959 . S
C817 H803 0.961 . S
C817 C816 1.502 . S
C818 H804 0.960 . S
C818 H805 0.961 . S
C818 H806 0.959 . S
C818 C816 1.561 . S
C819 C816 1.526 . S
C819 C820 1.396 . S
C819 C824 1.390 . S
C820 C814 1.465 . S
C820 C819 1.396 . S
C820 C821 1.399 . S
C821 H807 0.929 . S
C821 C820 1.399 . S
C821 C822 1.385 . S
C822 H808 0.931 . S
C822 C821 1.385 . S
C822 C823 1.389 . S
C823 C822 1.389 . S
C823 C824 1.387 . S
C824 H809 0.930 . S
C824 C819 1.390 . S
C824 C823 1.387 . S
H825 C837 0.930 . S
H826 C839 0.930 . S
H827 C840 0.930 . S
H828 C844 0.959 . S
H829 C844 0.959 . S
H830 C844 0.961 . S
H831 C845 0.960 . S
H832 C845 0.989 . S
H833 C845 0.959 . S
H834 C848 0.929 . S
H835 C849 0.931 . S
H836 C851 0.930 . S
C837 H825 0.930 . S
C837 C838 1.399 . S
C837 C842 1.399 . S
C838 C837 1.399 . S
C838 C839 1.376 . S
C839 H826 0.930 . S
C839 C838 1.376 . S
C839 C840 1.388 . S
C840 H827 0.930 . S
C840 C839 1.388 . S
C840 C841 1.390 . S
C841 C840 1.390 . S
C841 C842 1.394 . S
C841 C847 1.465 . S
C842 C837 1.399 . S
C842 C841 1.394 . S
C842 C843 1.516 . S
C843 C842 1.516 . S
C843 C844 1.502 . S
C843 C845 1.561 . S
C843 C846 1.526 . S
C844 H828 0.959 . S
C844 H829 0.959 . S
C844 H830 0.961 . S
C844 C843 1.502 . S
C845 H831 0.960 . S
C845 H832 0.989 . S
C845 H833 0.959 . S
C845 C843 1.561 . S
C846 C843 1.526 . S
C846 C847 1.396 . S
C846 C851 1.390 1_455 S
C847 C841 1.465 . S
C847 C846 1.396 . S
C847 C848 1.399 1_455 S
C848 H834 0.929 . S
C848 C847 1.399 1_655 S
C848 C849 1.385 . S
C849 H835 0.931 . S
C849 C848 1.385 . S
C849 C850 1.389 . S
C850 C849 1.389 . S
C850 C851 1.387 . S
C851 H836 0.930 . S
C851 C846 1.390 1_655 S
C851 C850 1.387 . S
H852 C864 0.930 . S
H853 C866 0.930 . S
H854 C867 0.930 . S
H855 C871 0.959 . S
H856 C871 0.959 . S
H857 C871 0.961 . S
H858 C872 0.960 . S
H859 C872 0.961 . S
H860 C872 0.959 . S
H861 C875 0.929 . S
H862 C876 0.931 . S
H863 C878 0.930 . S
C864 H852 0.930 . S
C864 C865 1.399 . S
C864 C869 1.399 1_545 S
C865 C864 1.399 . S
C865 C866 1.376 . S
C866 H853 0.930 . S
C866 C865 1.376 . S
C866 C867 1.388 . S
C867 H854 0.930 . S
C867 C866 1.388 . S
C867 C868 1.390 1_545 S
C868 C867 1.390 1_565 S
C868 C869 1.394 . S
C868 C874 1.465 . S
C869 C864 1.399 1_565 S
C869 C868 1.394 . S
C869 C870 1.516 . S
C870 C869 1.516 . S
C870 C871 1.502 . S
C870 C872 1.561 . S
C870 C873 1.526 . S
C871 H855 0.959 . S
C871 H856 0.959 . S
C871 H857 0.961 . S
C871 C870 1.502 . S
C872 H858 0.960 . S
C872 H859 0.961 . S
C872 H860 0.959 . S
C872 C870 1.561 . S
C873 C870 1.526 . S
C873 C874 1.396 . S
C873 C878 1.390 . S
C874 C868 1.465 . S
C874 C873 1.396 . S
C874 C875 1.399 . S
C875 H861 0.929 . S
C875 C874 1.399 . S
C875 C876 1.385 . S
C876 H862 0.931 . S
C876 C875 1.385 . S
C876 C877 1.389 . S
C877 C876 1.389 . S
C877 C878 1.387 . S
C878 H863 0.930 . S
C878 C873 1.390 . S
C878 C877 1.387 . S
H879 C891 0.930 . S
H880 C893 0.930 . S
H881 C894 0.930 . S
H882 C898 0.959 . S
H883 C898 0.959 1_565 S
H884 C898 0.961 . S
H885 C899 0.960 . S
H886 C899 0.961 1_565 S
H887 C899 0.959 . S
H888 C902 0.929 . S
H889 C903 0.931 . S
H890 C905 0.930 . S
C891 H879 0.930 . S
C891 C892 1.399 . S
C891 C896 1.399 . S
C892 C891 1.399 . S
C892 C893 1.376 . S
C893 H880 0.930 . S
C893 C892 1.376 . S
C893 C894 1.388 . S
C894 H881 0.930 . S
C894 C893 1.388 . S
C894 C895 1.390 . S
C895 C894 1.390 . S
C895 C896 1.394 . S
C895 C901 1.465 . S
C896 C891 1.399 . S
C896 C895 1.394 . S
C896 C897 1.516 . S
C897 C896 1.516 . S
C897 C898 1.502 . S
C897 C899 1.561 . S
C897 C900 1.526 1_545 S
C898 H882 0.959 . S
C898 H883 0.959 1_545 S
C898 H884 0.961 . S
C898 C897 1.502 . S
C899 H885 0.960 . S
C899 H886 0.961 1_545 S
C899 H887 0.959 . S
C899 C897 1.561 . S
C900 C897 1.526 1_565 S
C900 C901 1.396 1_565 S
C900 C905 1.390 . S
C901 C895 1.465 . S
C901 C900 1.396 1_545 S
C901 C902 1.399 . S
C902 H888 0.929 . S
C902 C901 1.399 . S
C902 C903 1.385 1_545 S
C903 H889 0.931 . S
C903 C902 1.385 1_565 S
C903 C904 1.389 . S
C904 C903 1.389 . S
C904 C905 1.387 . S
C905 H890 0.930 . S
C905 C900 1.390 . S
C905 C904 1.387 . S
H906 C918 0.930 . S
H907 C920 0.930 . S
H908 C921 0.930 . S
H909 C925 0.959 . S
H910 C925 0.959 . S
H911 C925 0.961 . S
H912 C926 0.960 . S
H913 C926 0.961 . S
H914 C926 0.959 . S
H915 C929 0.929 . S
H916 C930 0.931 . S
H917 C932 0.930 . S
C918 H906 0.930 . S
C918 C919 1.399 . S
C918 C923 1.399 . S
C919 C918 1.399 . S
C919 C920 1.376 . S
C920 H907 0.930 . S
C920 C919 1.376 . S
C920 C921 1.388 . S
C921 H908 0.930 . S
C921 C920 1.388 . S
C921 C922 1.390 . S
C922 C921 1.390 . S
C922 C923 1.394 . S
C922 C928 1.465 . S
C923 C918 1.399 . S
C923 C922 1.394 . S
C923 C924 1.516 . S
C924 C923 1.516 . S
C924 C925 1.502 . S
C924 C926 1.561 . S
C924 C927 1.526 . S
C925 H909 0.959 . S
C925 H910 0.959 . S
C925 H911 0.961 . S
C925 C924 1.502 . S
C926 H912 0.960 . S
C926 H913 0.961 . S
C926 H914 0.959 . S
C926 C924 1.561 . S
C927 C924 1.526 . S
C927 C928 1.396 . S
C927 C932 1.390 . S
C928 C922 1.465 . S
C928 C927 1.396 . S
C928 C929 1.399 . S
C929 H915 0.929 . S
C929 C928 1.399 . S
C929 C930 1.385 . S
C930 H916 0.931 . S
C930 C929 1.385 . S
C930 C931 1.389 . S
C931 C930 1.389 . S
C931 C932 1.387 . S
C932 H917 0.930 . S
C932 C927 1.390 . S
C932 C931 1.387 . S
H933 C945 0.930 . S
H934 C947 0.930 . S
H935 C948 0.930 . S
H936 C952 0.959 . S
H937 C952 0.959 1_565 S
H938 C952 0.961 . S
H939 C953 0.960 . S
H940 C953 0.961 1_565 S
H941 C953 0.959 . S
H942 C956 0.929 . S
H943 C957 0.931 . S
H944 C959 0.930 . S
C945 H933 0.930 . S
C945 C946 1.399 . S
C945 C950 1.399 . S
C946 C945 1.399 . S
C946 C947 1.376 . S
C947 H934 0.930 . S
C947 C946 1.376 . S
C947 C948 1.388 . S
C948 H935 0.930 . S
C948 C947 1.388 . S
C948 C949 1.390 . S
C949 C948 1.390 . S
C949 C950 1.394 . S
C949 C955 1.465 . S
C950 C945 1.399 . S
C950 C949 1.394 . S
C950 C951 1.516 . S
C951 C950 1.516 . S
C951 C952 1.502 . S
C951 C953 1.561 . S
C951 C954 1.526 1_545 S
C952 H936 0.959 . S
C952 H937 0.959 1_545 S
C952 H938 0.961 . S
C952 C951 1.502 . S
C953 H939 0.960 . S
C953 H940 0.961 1_545 S
C953 H941 0.959 . S
C953 C951 1.561 . S
C954 C951 1.526 1_565 S
C954 C955 1.396 1_565 S
C954 C959 1.390 . S
C955 C949 1.465 . S
C955 C954 1.396 1_545 S
C955 C956 1.399 . S
C956 H942 0.929 . S
C956 C955 1.399 . S
C956 C957 1.385 1_545 S
C957 H943 0.931 . S
C957 C956 1.385 1_565 S
C957 C958 1.389 . S
C958 C957 1.389 . S
C958 C959 1.387 . S
C959 H944 0.930 . S
C959 C954 1.390 . S
C959 C958 1.387 . S
H960 C972 0.930 . S
H961 C974 0.930 . S
H962 C975 0.930 . S
H963 C979 0.959 1_455 S
H964 C979 0.959 . S
H965 C979 0.961 . S
H966 C980 0.960 . S
H967 C980 0.961 . S
H968 C980 0.959 . S
H969 C983 0.929 . S
H970 C984 0.931 . S
H971 C986 0.930 . S
C972 H960 0.930 . S
C972 C973 1.399 . S
C972 C977 1.399 . S
C973 C972 1.399 . S
C973 C974 1.376 1_655 S
C974 H961 0.930 . S
C974 C973 1.376 1_455 S
C974 C975 1.388 . S
C975 H962 0.930 . S
C975 C974 1.388 . S
C975 C976 1.390 . S
C976 C975 1.390 . S
C976 C977 1.394 1_455 S
C976 C982 1.465 . S
C977 C972 1.399 . S
C977 C976 1.394 1_655 S
C977 C978 1.516 . S
C978 C977 1.516 . S
C978 C979 1.502 . S
C978 C980 1.561 . S
C978 C981 1.526 . S
C979 H963 0.959 1_655 S
C979 H964 0.959 . S
C979 H965 0.961 . S
C979 C978 1.502 . S
C980 H966 0.960 . S
C980 H967 0.961 . S
C980 H968 0.959 . S
C980 C978 1.561 . S
C981 C978 1.526 . S
C981 C982 1.396 1_655 S
C981 C986 1.390 . S
C982 C976 1.465 . S
C982 C981 1.396 1_455 S
C982 C983 1.399 . S
C983 H969 0.929 . S
C983 C982 1.399 . S
C983 C984 1.385 . S
C984 H970 0.931 . S
C984 C983 1.385 . S
C984 C985 1.389 . S
C985 C984 1.389 . S
C985 C986 1.387 1_455 S
C986 H971 0.930 . S
C986 C981 1.390 . S
C986 C985 1.387 1_655 S
H987 C999 0.925 1_655 S
H988 C1001 0.930 . S
H989 C1002 0.930 . S
H990 C1006 0.959 . S
H991 C1006 0.959 . S
H992 C1006 0.961 . S
H993 C1007 0.960 . S
H994 C1007 0.961 . S
H995 C1007 0.959 . S
H996 C1010 0.929 . S
H997 C1011 0.932 . S
H998 C1013 0.930 . S
C999 H987 0.925 1_455 S
C999 C1000 1.399 . S
C999 C1004 1.399 . S
C1000 C999 1.399 . S
C1000 C1001 1.376 . S
C1001 H988 0.930 . S
C1001 C1000 1.376 . S
C1001 C1002 1.388 . S
C1002 H989 0.930 . S
C1002 C1001 1.388 . S
C1002 C1003 1.390 . S
C1003 C1002 1.390 . S
C1003 C1004 1.394 . S
C1003 C1009 1.465 . S
C1004 C999 1.399 . S
C1004 C1003 1.394 . S
C1004 C1005 1.516 1_455 S
C1005 C1004 1.516 1_655 S
C1005 C1006 1.502 . S
C1005 C1007 1.561 1_655 S
C1005 C1008 1.526 . S
C1006 H990 0.959 . S
C1006 H991 0.959 . S
C1006 H992 0.961 . S
C1006 C1005 1.502 . S
C1007 H993 0.960 . S
C1007 H994 0.961 . S
C1007 H995 0.959 . S
C1007 C1005 1.561 1_455 S
C1008 C1005 1.526 . S
C1008 C1009 1.396 1_655 S
C1008 C1013 1.390 . S
C1009 C1003 1.465 . S
C1009 C1008 1.396 1_455 S
C1009 C1010 1.399 . S
C1010 H996 0.929 . S
C1010 C1009 1.399 . S
C1010 C1011 1.389 . S
C1011 H997 0.932 . S
C1011 C1010 1.389 . S
C1011 C1012 1.384 1_455 S
C1012 C1011 1.384 1_655 S
C1012 C1013 1.387 . S
C1013 H998 0.930 . S
C1013 C1008 1.390 . S
C1013 C1012 1.387 . S
H1014 C1026 0.930 . S
H1015 C1028 0.930 . S
H1016 C1029 0.930 . S
H1017 C1033 0.959 . S
H1018 C1033 0.959 . S
H1019 C1033 0.961 . S
H1020 C1034 0.960 . S
H1021 C1034 0.961 . S
H1022 C1034 0.959 . S
H1023 C1037 0.929 . S
H1024 C1038 0.931 . S
H1025 C1040 0.930 . S
C1026 H1014 0.930 . S
C1026 C1027 1.399 . S
C1026 C1031 1.399 . S
C1027 C1026 1.399 . S
C1027 C1028 1.376 1_565 S
C1028 H1015 0.930 . S
C1028 C1027 1.376 1_545 S
C1028 C1029 1.388 . S
C1029 H1016 0.930 . S
C1029 C1028 1.388 . S
C1029 C1030 1.390 . S
C1030 C1029 1.390 . S
C1030 C1031 1.394 1_545 S
C1030 C1036 1.465 . S
C1031 C1026 1.399 . S
C1031 C1030 1.394 1_565 S
C1031 C1032 1.516 . S
C1032 C1031 1.516 . S
C1032 C1033 1.502 . S
C1032 C1034 1.561 . S
C1032 C1035 1.526 . S
C1033 H1017 0.959 . S
C1033 H1018 0.959 . S
C1033 H1019 0.961 . S
C1033 C1032 1.502 . S
C1034 H1020 0.960 . S
C1034 H1021 0.961 . S
C1034 H1022 0.959 . S
C1034 C1032 1.561 . S
C1035 C1032 1.526 . S
C1035 C1036 1.396 1_565 S
C1035 C1040 1.390 . S
C1036 C1030 1.465 . S
C1036 C1035 1.396 1_545 S
C1036 C1037 1.399 . S
C1037 H1023 0.929 . S
C1037 C1036 1.399 . S
C1037 C1038 1.385 . S
C1038 H1024 0.931 . S
C1038 C1037 1.385 . S
C1038 C1039 1.389 . S
C1039 C1038 1.389 . S
C1039 C1040 1.387 1_545 S
C1040 H1025 0.930 . S
C1040 C1035 1.390 . S
C1040 C1039 1.387 1_565 S
H1041 C1053 0.930 . S
H1042 C1055 0.930 . S
H1043 C1056 0.930 . S
H1044 C1060 0.959 . S
H1045 C1060 0.959 . S
H1046 C1060 0.961 . S
H1047 C1061 0.960 . S
H1048 C1061 0.961 . S
H1049 C1061 0.959 . S
H1050 C1064 0.929 . S
H1051 C1065 0.931 . S
H1052 C1067 0.930 . S
C1053 H1041 0.930 . S
C1053 C1054 1.399 . S
C1053 C1058 1.399 . S
C1054 C1053 1.399 . S
C1054 C1055 1.376 . S
C1055 H1042 0.930 . S
C1055 C1054 1.376 . S
C1055 C1056 1.388 . S
C1056 H1043 0.930 . S
C1056 C1055 1.388 . S
C1056 C1057 1.390 . S
C1057 C1056 1.390 . S
C1057 C1058 1.394 . S
C1057 C1063 1.465 . S
C1058 C1053 1.399 . S
C1058 C1057 1.394 . S
C1058 C1059 1.516 . S
C1059 C1058 1.516 . S
C1059 C1060 1.502 . S
C1059 C1061 1.561 . S
C1059 C1062 1.526 . S
C1060 H1044 0.959 . S
C1060 H1045 0.959 . S
C1060 H1046 0.961 . S
C1060 C1059 1.502 . S
C1061 H1047 0.960 . S
C1061 H1048 0.961 . S
C1061 H1049 0.959 . S
C1061 C1059 1.561 . S
C1062 C1059 1.526 . S
C1062 C1063 1.396 . S
C1062 C1067 1.390 . S
C1063 C1057 1.465 . S
C1063 C1062 1.396 . S
C1063 C1064 1.399 . S
C1064 H1050 0.929 . S
C1064 C1063 1.399 . S
C1064 C1065 1.385 . S
C1065 H1051 0.931 . S
C1065 C1064 1.385 . S
C1065 C1066 1.389 . S
C1066 C1065 1.389 . S
C1066 C1067 1.387 . S
C1067 H1052 0.930 . S
C1067 C1062 1.390 . S
C1067 C1066 1.387 . S
H1068 C1080 0.930 . S
H1069 C1082 0.930 . S
H1070 C1083 0.930 . S
H1071 C1087 0.959 . S
H1072 C1087 0.959 . S
H1073 C1087 0.961 . S
H1074 C1088 0.960 1_554 S
H1075 C1088 0.961 1_554 S
H1076 C1088 0.959 . S
H1077 C1091 0.929 . S
H1078 C1092 0.931 . S
H1079 C1094 0.930 . S
C1080 H1068 0.930 . S
C1080 C1081 1.399 . S
C1080 C1085 1.399 . S
C1081 C1080 1.399 . S
C1081 C1082 1.376 1_554 S
C1082 H1069 0.930 . S
C1082 C1081 1.376 1_556 S
C1082 C1083 1.388 . S
C1083 H1070 0.930 . S
C1083 C1082 1.388 . S
C1083 C1084 1.390 . S
C1084 C1083 1.390 . S
C1084 C1085 1.394 1_556 S
C1084 C1090 1.465 . S
C1085 C1080 1.399 . S
C1085 C1084 1.394 1_554 S
C1085 C1086 1.516 . S
C1086 C1085 1.516 . S
C1086 C1087 1.502 . S
C1086 C1088 1.561 1_554 S
C1086 C1089 1.526 . S
C1087 H1071 0.959 . S
C1087 H1072 0.959 . S
C1087 H1073 0.961 . S
C1087 C1086 1.502 . S
C1088 H1074 0.960 1_556 S
C1088 H1075 0.961 1_556 S
C1088 H1076 0.959 . S
C1088 C1086 1.561 1_556 S
C1089 C1086 1.526 . S
C1089 C1090 1.396 1_554 S
C1089 C1094 1.390 . S
C1090 C1084 1.465 . S
C1090 C1089 1.396 1_556 S
C1090 C1091 1.399 . S
C1091 H1077 0.929 . S
C1091 C1090 1.399 . S
C1091 C1092 1.385 . S
C1092 H1078 0.931 . S
C1092 C1091 1.385 . S
C1092 C1093 1.389 . S
C1093 C1092 1.389 . S
C1093 C1094 1.387 1_556 S
C1094 H1079 0.930 . S
C1094 C1089 1.390 . S
C1094 C1093 1.387 1_554 S
H1095 C1107 0.930 . S
H1096 C1109 0.930 . S
H1097 C1110 0.930 . S
H1098 C1114 0.959 . S
H1099 C1114 0.959 . S
H1100 C1114 0.961 . S
H1101 C1115 0.960 . S
H1102 C1115 0.961 . S
H1103 C1115 0.959 . S
H1104 C1118 0.929 . S
H1105 C1119 0.931 . S
H1106 C1121 0.930 . S
C1107 H1095 0.930 . S
C1107 C1108 1.399 . S
C1107 C1112 1.399 . S
C1108 C1107 1.399 . S
C1108 C1109 1.376 . S
C1109 H1096 0.930 . S
C1109 C1108 1.376 . S
C1109 C1110 1.388 . S
C1110 H1097 0.930 . S
C1110 C1109 1.388 . S
C1110 C1111 1.390 . S
C1111 C1110 1.390 . S
C1111 C1112 1.394 . S
C1111 C1117 1.465 . S
C1112 C1107 1.399 . S
C1112 C1111 1.394 . S
C1112 C1113 1.516 . S
C1113 C1112 1.516 . S
C1113 C1114 1.502 . S
C1113 C1115 1.561 . S
C1113 C1116 1.526 . S
C1114 H1098 0.959 . S
C1114 H1099 0.959 . S
C1114 H1100 0.961 . S
C1114 C1113 1.502 . S
C1115 H1101 0.960 . S
C1115 H1102 0.961 . S
C1115 H1103 0.959 . S
C1115 C1113 1.561 . S
C1116 C1113 1.526 . S
C1116 C1117 1.396 . S
C1116 C1121 1.390 . S
C1117 C1111 1.465 . S
C1117 C1116 1.396 . S
C1117 C1118 1.399 . S
C1118 H1104 0.929 . S
C1118 C1117 1.399 . S
C1118 C1119 1.385 . S
C1119 H1105 0.931 . S
C1119 C1118 1.385 . S
C1119 C1120 1.389 . S
C1120 C1119 1.389 . S
C1120 C1121 1.387 . S
C1121 H1106 0.930 . S
C1121 C1116 1.390 . S
C1121 C1120 1.387 . S
H1122 C1134 0.930 . S
H1123 C1136 0.930 . S
H1124 C1137 0.930 . S
H1125 C1141 0.959 . S
H1126 C1141 0.959 . S
H1127 C1141 0.961 . S
H1128 C1142 0.960 . S
H1129 C1142 0.961 . S
H1130 C1142 0.959 . S
H1131 C1145 0.929 . S
H1132 C1146 0.931 . S
H1133 C1148 0.930 . S
C1134 H1122 0.930 . S
C1134 C1135 1.399 . S
C1134 C1139 1.399 . S
C1135 C1134 1.399 . S
C1135 C1136 1.376 . S
C1136 H1123 0.930 . S
C1136 C1135 1.376 . S
C1136 C1137 1.388 . S
C1137 H1124 0.930 . S
C1137 C1136 1.388 . S
C1137 C1138 1.390 . S
C1138 C1137 1.390 . S
C1138 C1139 1.394 . S
C1138 C1144 1.465 . S
C1139 C1134 1.399 . S
C1139 C1138 1.394 . S
C1139 C1140 1.516 . S
C1140 C1139 1.516 . S
C1140 C1141 1.502 . S
C1140 C1142 1.561 . S
C1140 C1143 1.526 . S
C1141 H1125 0.959 . S
C1141 H1126 0.959 . S
C1141 H1127 0.961 . S
C1141 C1140 1.502 . S
C1142 H1128 0.960 . S
C1142 H1129 0.961 . S
C1142 H1130 0.959 . S
C1142 C1140 1.561 . S
C1143 C1140 1.526 . S
C1143 C1144 1.396 . S
C1143 C1148 1.390 . S
C1144 C1138 1.465 . S
C1144 C1143 1.396 . S
C1144 C1145 1.399 . S
C1145 H1131 0.929 . S
C1145 C1144 1.399 . S
C1145 C1146 1.385 . S
C1146 H1132 0.931 . S
C1146 C1145 1.385 . S
C1146 C1147 1.389 . S
C1147 C1146 1.389 . S
C1147 C1148 1.387 . S
C1148 H1133 0.930 . S
C1148 C1143 1.390 . S
C1148 C1147 1.387 . S
H1149 C1161 0.930 . S
H1150 C1163 0.930 . S
H1151 C1164 0.930 . S
H1152 C1168 0.959 . S
H1153 C1168 0.959 . S
H1154 C1168 0.961 . S
H1155 C1169 0.960 . S
H1156 C1169 0.961 . S
H1157 C1169 0.959 . S
H1158 C1172 0.929 . S
H1159 C1173 0.931 . S
H1160 C1175 0.930 . S
C1161 H1149 0.930 . S
C1161 C1162 1.399 . S
C1161 C1166 1.399 . S
C1162 C1161 1.399 . S
C1162 C1163 1.376 . S
C1163 H1150 0.930 . S
C1163 C1162 1.376 . S
C1163 C1164 1.388 . S
C1164 H1151 0.930 . S
C1164 C1163 1.388 . S
C1164 C1165 1.390 . S
C1165 C1164 1.390 . S
C1165 C1166 1.394 . S
C1165 C1171 1.465 . S
C1166 C1161 1.399 . S
C1166 C1165 1.394 . S
C1166 C1167 1.516 . S
C1167 C1166 1.516 . S
C1167 C1168 1.502 . S
C1167 C1169 1.561 . S
C1167 C1170 1.526 . S
C1168 H1152 0.959 . S
C1168 H1153 0.959 . S
C1168 H1154 0.961 . S
C1168 C1167 1.502 . S
C1169 H1155 0.960 . S
C1169 H1156 0.961 . S
C1169 H1157 0.959 . S
C1169 C1167 1.561 . S
C1170 C1167 1.526 . S
C1170 C1171 1.396 . S
C1170 C1175 1.390 . S
C1171 C1165 1.465 . S
C1171 C1170 1.396 . S
C1171 C1172 1.399 . S
C1172 H1158 0.929 . S
C1172 C1171 1.399 . S
C1172 C1173 1.385 . S
C1173 H1159 0.931 . S
C1173 C1172 1.385 . S
C1173 C1174 1.389 . S
C1174 C1173 1.389 . S
C1174 C1175 1.387 . S
C1175 H1160 0.930 . S
C1175 C1170 1.390 . S
C1175 C1174 1.387 . S
H1176 C1188 0.930 . S
H1177 C1190 0.930 . S
H1178 C1191 0.930 . S
H1179 C1195 0.959 . S
H1180 C1195 0.959 . S
H1181 C1195 0.961 . S
H1182 C1196 0.960 . S
H1183 C1196 0.961 . S
H1184 C1196 0.959 . S
H1185 C1199 0.929 . S
H1186 C1200 0.931 . S
H1187 C1202 0.930 . S
C1188 H1176 0.930 . S
C1188 C1189 1.399 . S
C1188 C1193 1.399 . S
C1189 C1188 1.399 . S
C1189 C1190 1.376 . S
C1190 H1177 0.930 . S
C1190 C1189 1.376 . S
C1190 C1191 1.388 . S
C1191 H1178 0.930 . S
C1191 C1190 1.388 . S
C1191 C1192 1.390 . S
C1192 C1191 1.390 . S
C1192 C1193 1.394 . S
C1192 C1198 1.465 . S
C1193 C1188 1.399 . S
C1193 C1192 1.394 . S
C1193 C1194 1.516 . S
C1194 C1193 1.516 . S
C1194 C1195 1.502 . S
C1194 C1196 1.561 . S
C1194 C1197 1.526 . S
C1195 H1179 0.959 . S
C1195 H1180 0.959 . S
C1195 H1181 0.961 . S
C1195 C1194 1.502 . S
C1196 H1182 0.960 . S
C1196 H1183 0.961 . S
C1196 H1184 0.959 . S
C1196 C1194 1.561 . S
C1197 C1194 1.526 . S
C1197 C1198 1.396 . S
C1197 C1202 1.390 . S
C1198 C1192 1.465 . S
C1198 C1197 1.396 . S
C1198 C1199 1.399 . S
C1199 H1185 0.929 . S
C1199 C1198 1.399 . S
C1199 C1200 1.385 . S
C1200 H1186 0.931 . S
C1200 C1199 1.385 . S
C1200 C1201 1.389 . S
C1201 C1200 1.389 . S
C1201 C1202 1.387 . S
C1202 H1187 0.930 . S
C1202 C1197 1.390 . S
C1202 C1201 1.387 . S
H1203 C1215 0.930 . S
H1204 C1217 0.930 . S
H1205 C1218 0.930 . S
H1206 C1222 0.959 . S
H1207 C1222 0.959 . S
H1208 C1222 0.961 . S
H1209 C1223 0.960 . S
H1210 C1223 0.961 . S
H1211 C1223 0.959 . S
H1212 C1226 0.929 . S
H1213 C1227 0.931 . S
H1214 C1229 0.930 . S
C1215 H1203 0.930 . S
C1215 C1216 1.399 . S
C1215 C1220 1.399 . S
C1216 C1215 1.399 . S
C1216 C1217 1.376 . S
C1217 H1204 0.930 . S
C1217 C1216 1.376 . S
C1217 C1218 1.388 . S
C1218 H1205 0.930 . S
C1218 C1217 1.388 . S
C1218 C1219 1.390 . S
C1219 C1218 1.390 . S
C1219 C1220 1.394 . S
C1219 C1225 1.465 . S
C1220 C1215 1.399 . S
C1220 C1219 1.394 . S
C1220 C1221 1.516 . S
C1221 C1220 1.516 . S
C1221 C1222 1.502 . S
C1221 C1223 1.561 . S
C1221 C1224 1.526 . S
C1222 H1206 0.959 . S
C1222 H1207 0.959 . S
C1222 H1208 0.961 . S
C1222 C1221 1.502 . S
C1223 H1209 0.960 . S
C1223 H1210 0.961 . S
C1223 H1211 0.959 . S
C1223 C1221 1.561 . S
C1224 C1221 1.526 . S
C1224 C1225 1.396 . S
C1224 C1229 1.390 . S
C1225 C1219 1.465 . S
C1225 C1224 1.396 . S
C1225 C1226 1.399 . S
C1226 H1212 0.929 . S
C1226 C1225 1.399 . S
C1226 C1227 1.385 . S
C1227 H1213 0.931 . S
C1227 C1226 1.385 . S
C1227 C1228 1.389 . S
C1228 C1227 1.389 . S
C1228 C1229 1.387 . S
C1229 H1214 0.930 . S
C1229 C1224 1.390 . S
C1229 C1228 1.387 . S
H1230 C1242 0.930 . S
H1231 C1244 0.930 . S
H1232 C1245 0.930 . S
H1233 C1249 0.959 . S
H1234 C1249 0.959 . S
H1235 C1249 0.961 . S
H1236 C1250 0.960 . S
H1237 C1250 0.961 . S
H1238 C1250 0.959 . S
H1239 C1253 0.929 . S
H1240 C1254 0.931 . S
H1241 C1256 0.930 . S
C1242 H1230 0.930 . S
C1242 C1243 1.399 1_565 S
C1242 C1247 1.399 . S
C1243 C1242 1.399 1_545 S
C1243 C1244 1.376 . S
C1244 H1231 0.930 . S
C1244 C1243 1.376 . S
C1244 C1245 1.388 . S
C1245 H1232 0.930 . S
C1245 C1244 1.388 . S
C1245 C1246 1.390 . S
C1246 C1245 1.390 . S
C1246 C1247 1.394 1_545 S
C1246 C1252 1.465 . S
C1247 C1242 1.399 . S
C1247 C1246 1.394 1_565 S
C1247 C1248 1.516 . S
C1248 C1247 1.516 . S
C1248 C1249 1.502 . S
C1248 C1250 1.561 . S
C1248 C1251 1.526 . S
C1249 H1233 0.959 . S
C1249 H1234 0.959 . S
C1249 H1235 0.961 . S
C1249 C1248 1.502 . S
C1250 H1236 0.960 . S
C1250 H1237 0.961 . S
C1250 H1238 0.959 . S
C1250 C1248 1.561 . S
C1251 C1248 1.526 . S
C1251 C1252 1.396 1_565 S
C1251 C1256 1.390 . S
C1252 C1246 1.465 . S
C1252 C1251 1.396 1_545 S
C1252 C1253 1.399 . S
C1253 H1239 0.929 . S
C1253 C1252 1.399 . S
C1253 C1254 1.385 . S
C1254 H1240 0.931 . S
C1254 C1253 1.385 . S
C1254 C1255 1.389 1_545 S
C1255 C1254 1.389 1_565 S
C1255 C1256 1.387 . S
C1256 H1241 0.930 . S
C1256 C1251 1.390 . S
C1256 C1255 1.387 . S
H1257 C1269 0.930 . S
H1258 C1271 0.930 . S
H1259 C1272 0.930 . S
H1260 C1276 0.959 . S
H1261 C1276 0.959 . S
H1262 C1276 0.961 . S
H1263 C1277 0.960 . S
H1264 C1277 0.961 . S
H1265 C1277 0.959 1_556 S
H1266 C1280 0.929 . S
H1267 C1281 0.931 . S
H1268 C1283 0.930 . S
C1269 H1257 0.930 . S
C1269 C1270 1.399 1_554 S
C1269 C1274 1.399 . S
C1270 C1269 1.399 1_556 S
C1270 C1271 1.376 . S
C1271 H1258 0.930 . S
C1271 C1270 1.376 . S
C1271 C1272 1.388 . S
C1272 H1259 0.930 . S
C1272 C1271 1.388 . S
C1272 C1273 1.390 . S
C1273 C1272 1.390 . S
C1273 C1274 1.394 1_556 S
C1273 C1279 1.465 . S
C1274 C1269 1.399 . S
C1274 C1273 1.394 1_554 S
C1274 C1275 1.516 . S
C1275 C1274 1.516 . S
C1275 C1276 1.502 . S
C1275 C1277 1.561 . S
C1275 C1278 1.526 . S
C1276 H1260 0.959 . S
C1276 H1261 0.959 . S
C1276 H1262 0.961 . S
C1276 C1275 1.502 . S
C1277 H1263 0.960 . S
C1277 H1264 0.961 . S
C1277 H1265 0.959 1_554 S
C1277 C1275 1.561 . S
C1278 C1275 1.526 . S
C1278 C1279 1.396 1_554 S
C1278 C1283 1.390 . S
C1279 C1273 1.465 . S
C1279 C1278 1.396 1_556 S
C1279 C1280 1.399 . S
C1280 H1266 0.929 . S
C1280 C1279 1.399 . S
C1280 C1281 1.385 . S
C1281 H1267 0.931 . S
C1281 C1280 1.385 . S
C1281 C1282 1.389 1_556 S
C1282 C1281 1.389 1_554 S
C1282 C1283 1.387 . S
C1283 H1268 0.930 . S
C1283 C1278 1.390 . S
C1283 C1282 1.387 . S
H1284 C1296 0.930 . S
H1285 C1298 0.930 . S
H1286 C1299 0.930 . S
H1287 C1303 0.959 . S
H1288 C1303 0.959 . S
H1289 C1303 0.961 . S
H1290 C1304 0.960 . S
H1291 C1304 0.961 . S
H1292 C1304 0.959 1_655 S
H1293 C1307 0.929 . S
H1294 C1308 0.931 . S
H1295 C1310 0.930 . S
C1296 H1284 0.930 . S
C1296 C1297 1.399 . S
C1296 C1301 1.399 . S
C1297 C1296 1.399 . S
C1297 C1298 1.376 1_455 S
C1298 H1285 0.930 . S
C1298 C1297 1.376 1_655 S
C1298 C1299 1.388 . S
C1299 H1286 0.930 . S
C1299 C1298 1.388 . S
C1299 C1300 1.390 1_655 S
C1300 C1299 1.390 1_455 S
C1300 C1301 1.394 . S
C1300 C1306 1.475 . S
C1301 C1296 1.399 . S
C1301 C1300 1.394 . S
C1301 C1302 1.516 1_565 S
C1302 C1301 1.516 1_545 S
C1302 C1303 1.502 . S
C1302 C1304 1.561 . S
C1302 C1305 1.526 . S
C1303 H1287 0.959 . S
C1303 H1288 0.959 . S
C1303 H1289 0.961 . S
C1303 C1302 1.502 . S
C1304 H1290 0.960 . S
C1304 H1291 0.961 . S
C1304 H1292 0.959 1_455 S
C1304 C1302 1.561 . S
C1305 C1302 1.526 . S
C1305 C1306 1.383 1_545 S
C1305 C1310 1.390 . S
C1306 C1300 1.475 . S
C1306 C1305 1.383 1_565 S
C1306 C1307 1.400 1_455 S
C1307 H1293 0.929 . S
C1307 C1306 1.400 1_655 S
C1307 C1308 1.385 1_565 S
C1308 H1294 0.931 . S
C1308 C1307 1.385 1_545 S
C1308 C1309 1.389 1_655 S
C1309 C1308 1.389 1_455 S
C1309 C1310 1.387 . S
C1310 H1295 0.930 . S
C1310 C1305 1.390 . S
C1310 C1309 1.387 . S
H1311 C1323 0.930 . S
H1312 C1325 0.930 . S
H1313 C1326 0.930 . S
H1314 C1330 0.959 . S
H1315 C1330 0.959 . S
H1316 C1330 0.961 . S
H1317 C1331 0.960 . S
H1318 C1331 0.961 . S
H1319 C1331 0.959 1_655 S
H1320 C1334 0.929 . S
H1321 C1335 0.931 . S
H1322 C1337 0.954 . S
C1323 H1311 0.930 . S
C1323 C1324 1.399 1_455 S
C1323 C1328 1.399 1_455 S
C1324 C1323 1.399 1_655 S
C1324 C1325 1.376 . S
C1325 H1312 0.930 . S
C1325 C1324 1.376 . S
C1325 C1326 1.388 . S
C1326 H1313 0.930 . S
C1326 C1325 1.388 . S
C1326 C1327 1.390 . S
C1327 C1326 1.390 . S
C1327 C1328 1.394 . S
C1327 C1333 1.465 . S
C1328 C1323 1.399 1_655 S
C1328 C1327 1.394 . S
C1328 C1329 1.516 1_655 S
C1329 C1328 1.516 1_455 S
C1329 C1330 1.502 . S
C1329 C1331 1.561 . S
C1329 C1332 1.526 1_455 S
C1330 H1314 0.959 . S
C1330 H1315 0.959 . S
C1330 H1316 0.961 . S
C1330 C1329 1.502 . S
C1331 H1317 0.960 . S
C1331 H1318 0.961 . S
C1331 H1319 0.959 1_455 S
C1331 C1329 1.561 . S
C1332 C1329 1.526 1_655 S
C1332 C1333 1.396 . S
C1332 C1337 1.384 1_655 S
C1333 C1327 1.465 . S
C1333 C1332 1.396 . S
C1333 C1334 1.399 . S
C1334 H1320 0.929 . S
C1334 C1333 1.399 . S
C1334 C1335 1.385 . S
C1335 H1321 0.931 . S
C1335 C1334 1.385 . S
C1335 C1336 1.389 . S
C1336 C1335 1.389 . S
C1336 C1337 1.368 1_655 S
C1337 H1322 0.954 . S
C1337 C1332 1.384 1_455 S
C1337 C1336 1.368 1_455 S
H1338 C1350 0.930 . S
H1339 C1352 0.930 . S
H1340 C1353 0.930 . S
H1341 C1357 0.959 . S
H1342 C1357 0.959 . S
H1343 C1357 0.961 . S
H1344 C1358 0.960 . S
H1345 C1358 0.961 1_554 S
H1346 C1358 0.959 . S
H1347 C1361 0.929 1_556 S
H1348 C1362 0.931 . S
H1349 C1364 0.930 . S
C1350 H1338 0.930 . S
C1350 C1351 1.399 1_565 S
C1350 C1355 1.399 . S
C1351 C1350 1.399 1_545 S
C1351 C1352 1.376 . S
C1352 H1339 0.930 . S
C1352 C1351 1.376 . S
C1352 C1353 1.388 . S
C1353 H1340 0.930 . S
C1353 C1352 1.388 . S
C1353 C1354 1.390 . S
C1354 C1353 1.390 . S
C1354 C1355 1.394 1_545 S
C1354 C1360 1.465 1_556 S
C1355 C1350 1.399 . S
C1355 C1354 1.394 1_565 S
C1355 C1356 1.516 1_556 S
C1356 C1355 1.516 1_554 S
C1356 C1357 1.502 . S
C1356 C1358 1.561 1_554 S
C1356 C1359 1.526 . S
C1357 H1341 0.959 . S
C1357 H1342 0.959 . S
C1357 H1343 0.961 . S
C1357 C1356 1.502 . S
C1358 H1344 0.960 . S
C1358 H1345 0.961 1_556 S
C1358 H1346 0.959 . S
C1358 C1356 1.561 1_556 S
C1359 C1356 1.526 . S
C1359 C1360 1.396 1_565 S
C1359 C1364 1.390 . S
C1360 C1354 1.465 1_554 S
C1360 C1359 1.396 1_545 S
C1360 C1361 1.399 . S
C1361 H1347 0.929 1_554 S
C1361 C1360 1.399 . S
C1361 C1362 1.385 . S
C1362 H1348 0.931 . S
C1362 C1361 1.385 . S
C1362 C1363 1.389 . S
C1363 C1362 1.389 . S
C1363 C1364 1.387 1_545 S
C1364 H1349 0.930 . S
C1364 C1359 1.390 . S
C1364 C1363 1.387 1_565 S
H1365 C1377 0.930 . S
H1366 C1379 0.930 . S
H1367 C1380 0.925 1_556 S
H1368 C1384 0.959 . S
H1369 C1384 0.959 . S
H1370 C1384 0.961 . S
H1371 C1385 0.960 1_554 S
H1372 C1385 0.961 . S
H1373 C1385 0.959 . S
H1374 C1388 0.929 . S
H1375 C1389 0.931 . S
H1376 C1391 0.930 . S
C1377 H1365 0.930 . S
C1377 C1378 1.399 . S
C1377 C1382 1.399 . S
C1378 C1377 1.399 . S
C1378 C1379 1.376 . S
C1379 H1366 0.930 . S
C1379 C1378 1.376 . S
C1379 C1380 1.388 . S
C1380 H1367 0.925 1_554 S
C1380 C1379 1.388 . S
C1380 C1381 1.390 . S
C1381 C1380 1.390 . S
C1381 C1382 1.394 . S
C1381 C1387 1.465 1_554 S
C1382 C1377 1.399 . S
C1382 C1381 1.394 . S
C1382 C1383 1.516 . S
C1383 C1382 1.516 . S
C1383 C1384 1.502 . S
C1383 C1385 1.561 1_554 S
C1383 C1386 1.526 1_554 S
C1384 H1368 0.959 . S
C1384 H1369 0.959 . S
C1384 H1370 0.961 . S
C1384 C1383 1.502 . S
C1385 H1371 0.960 1_556 S
C1385 H1372 0.961 . S
C1385 H1373 0.959 . S
C1385 C1383 1.561 1_556 S
C1386 C1383 1.526 1_556 S
C1386 C1387 1.396 . S
C1386 C1391 1.390 . S
C1387 C1381 1.465 1_556 S
C1387 C1386 1.396 . S
C1387 C1388 1.399 . S
C1388 H1374 0.929 . S
C1388 C1387 1.399 . S
C1388 C1389 1.385 . S
C1389 H1375 0.931 . S
C1389 C1388 1.385 . S
C1389 C1390 1.389 . S
C1390 C1389 1.389 . S
C1390 C1391 1.387 . S
C1391 H1376 0.930 . S
C1391 C1386 1.390 . S
C1391 C1390 1.387 . S
H1392 C1404 0.930 . S
H1393 C1406 0.930 . S
H1394 C1407 0.930 . S
H1395 C1411 0.959 . S
H1396 C1411 0.959 . S
H1397 C1411 0.961 . S
H1398 C1412 0.960 . S
H1399 C1412 0.961 . S
H1400 C1412 0.959 . S
H1401 C1415 0.929 . S
H1402 C1416 0.931 . S
H1403 C1418 0.930 . S
C1404 H1392 0.930 . S
C1404 C1405 1.399 1_545 S
C1404 C1409 1.405 . S
C1405 C1404 1.399 1_565 S
C1405 C1406 1.376 . S
C1406 H1393 0.930 . S
C1406 C1405 1.376 . S
C1406 C1407 1.388 . S
C1407 H1394 0.930 . S
C1407 C1406 1.388 . S
C1407 C1408 1.390 . S
C1408 C1407 1.390 . S
C1408 C1409 1.367 1_565 S
C1408 C1414 1.465 . S
C1409 C1404 1.405 . S
C1409 C1408 1.367 1_545 S
C1409 C1410 1.533 . S
C1410 C1409 1.533 . S
C1410 C1411 1.502 . S
C1410 C1412 1.561 . S
C1410 C1413 1.526 . S
C1411 H1395 0.959 . S
C1411 H1396 0.959 . S
C1411 H1397 0.961 . S
C1411 C1410 1.502 . S
C1412 H1398 0.960 . S
C1412 H1399 0.961 . S
C1412 H1400 0.959 . S
C1412 C1410 1.561 . S
C1413 C1410 1.526 . S
C1413 C1414 1.395 1_545 S
C1413 C1418 1.390 . S
C1414 C1408 1.465 . S
C1414 C1413 1.395 1_565 S
C1414 C1415 1.399 . S
C1415 H1401 0.929 . S
C1415 C1414 1.399 . S
C1415 C1416 1.385 . S
C1416 H1402 0.931 . S
C1416 C1415 1.385 . S
C1416 C1417 1.389 . S
C1417 C1416 1.389 . S
C1417 C1418 1.387 1_565 S
C1418 H1403 0.930 . S
C1418 C1413 1.390 . S
C1418 C1417 1.387 1_545 S
H1419 C1431 0.930 . S
H1420 C1433 0.930 . S
H1421 C1434 0.930 . S
H1422 C1438 0.959 . S
H1423 C1438 0.959 . S
H1424 C1438 0.961 . S
H1425 C1439 0.960 . S
H1426 C1439 0.961 . S
H1427 C1439 0.959 . S
H1428 C1442 0.929 . S
H1429 C1443 0.931 . S
H1430 C1445 0.930 . S
C1431 H1419 0.930 . S
C1431 C1432 1.399 . S
C1431 C1436 1.399 . S
C1432 C1431 1.399 . S
C1432 C1433 1.376 . S
C1433 H1420 0.930 . S
C1433 C1432 1.376 . S
C1433 C1434 1.388 . S
C1434 H1421 0.930 . S
C1434 C1433 1.388 . S
C1434 C1435 1.390 . S
C1435 C1434 1.390 . S
C1435 C1436 1.394 . S
C1435 C1441 1.465 . S
C1436 C1431 1.399 . S
C1436 C1435 1.394 . S
C1436 C1437 1.516 . S
C1437 C1436 1.516 . S
C1437 C1438 1.502 . S
C1437 C1439 1.561 . S
C1437 C1440 1.526 . S
C1438 H1422 0.959 . S
C1438 H1423 0.959 . S
C1438 H1424 0.961 . S
C1438 C1437 1.502 . S
C1439 H1425 0.960 . S
C1439 H1426 0.961 . S
C1439 H1427 0.959 . S
C1439 C1437 1.561 . S
C1440 C1437 1.526 . S
C1440 C1441 1.396 . S
C1440 C1445 1.390 . S
C1441 C1435 1.465 . S
C1441 C1440 1.396 . S
C1441 C1442 1.399 . S
C1442 H1428 0.929 . S
C1442 C1441 1.399 . S
C1442 C1443 1.385 . S
C1443 H1429 0.931 . S
C1443 C1442 1.385 . S
C1443 C1444 1.389 . S
C1444 C1443 1.389 . S
C1444 C1445 1.387 . S
C1445 H1430 0.930 . S
C1445 C1440 1.390 . S
C1445 C1444 1.387 . S
H1446 C1458 0.930 . S
H1447 C1460 0.930 . S
H1448 C1461 0.930 . S
H1449 C1465 0.959 . S
H1450 C1465 0.959 . S
H1451 C1465 0.961 . S
H1452 C1466 0.960 . S
H1453 C1466 0.985 . S
H1454 C1466 0.959 . S
H1455 C1469 0.929 . S
H1456 C1470 0.931 . S
H1457 C1472 0.930 . S
C1458 H1446 0.930 . S
C1458 C1459 1.399 1_556 S
C1458 C1463 1.399 . S
C1459 C1458 1.399 1_554 S
C1459 C1460 1.376 . S
C1460 H1447 0.930 . S
C1460 C1459 1.376 . S
C1460 C1461 1.388 . S
C1461 H1448 0.930 . S
C1461 C1460 1.388 . S
C1461 C1462 1.390 . S
C1462 C1461 1.390 . S
C1462 C1463 1.394 1_554 S
C1462 C1468 1.465 1_455 S
C1463 C1458 1.399 . S
C1463 C1462 1.394 1_556 S
C1463 C1464 1.516 1_455 S
C1464 C1463 1.516 1_655 S
C1464 C1465 1.502 . S
C1464 C1466 1.561 1_655 S
C1464 C1467 1.526 . S
C1465 H1449 0.959 . S
C1465 H1450 0.959 . S
C1465 H1451 0.961 . S
C1465 C1464 1.502 . S
C1466 H1452 0.960 . S
C1466 H1453 0.985 . S
C1466 H1454 0.959 . S
C1466 C1464 1.561 1_455 S
C1467 C1464 1.526 . S
C1467 C1468 1.396 1_556 S
C1467 C1472 1.390 . S
C1468 C1462 1.465 1_655 S
C1468 C1467 1.396 1_554 S
C1468 C1469 1.399 . S
C1469 H1455 0.929 . S
C1469 C1468 1.399 . S
C1469 C1470 1.385 . S
C1470 H1456 0.931 . S
C1470 C1469 1.385 . S
C1470 C1471 1.389 . S
C1471 C1470 1.389 . S
C1471 C1472 1.387 1_554 S
C1472 H1457 0.930 . S
C1472 C1467 1.390 . S
C1472 C1471 1.387 1_556 S
H1473 C1485 0.930 . S
H1474 C1487 0.930 . S
H1475 C1488 0.930 1_655 S
H1476 C1492 0.959 . S
H1477 C1492 0.959 . S
H1478 C1492 0.961 . S
H1479 C1493 0.960 1_455 S
H1480 C1493 0.961 . S
H1481 C1493 0.959 . S
H1482 C1496 0.929 . S
H1483 C1497 0.931 . S
H1484 C1499 0.930 . S
C1485 H1473 0.930 . S
C1485 C1486 1.399 . S
C1485 C1490 1.399 . S
C1486 C1485 1.399 . S
C1486 C1487 1.376 . S
C1487 H1474 0.930 . S
C1487 C1486 1.376 . S
C1487 C1488 1.388 . S
C1488 H1475 0.930 1_455 S
C1488 C1487 1.388 . S
C1488 C1489 1.390 . S
C1489 C1488 1.390 . S
C1489 C1490 1.394 . S
C1489 C1495 1.465 1_455 S
C1490 C1485 1.399 . S
C1490 C1489 1.394 . S
C1490 C1491 1.516 . S
C1491 C1490 1.516 . S
C1491 C1492 1.502 . S
C1491 C1493 1.561 1_455 S
C1491 C1494 1.526 1_455 S
C1492 H1476 0.959 . S
C1492 H1477 0.959 . S
C1492 H1478 0.961 . S
C1492 C1491 1.502 . S
C1493 H1479 0.960 1_655 S
C1493 H1480 0.961 . S
C1493 H1481 0.959 . S
C1493 C1491 1.561 1_655 S
C1494 C1491 1.526 1_655 S
C1494 C1495 1.396 . S
C1494 C1499 1.390 . S
C1495 C1489 1.465 1_655 S
C1495 C1494 1.396 . S
C1495 C1496 1.399 . S
C1496 H1482 0.929 . S
C1496 C1495 1.399 . S
C1496 C1497 1.385 . S
C1497 H1483 0.931 . S
C1497 C1496 1.385 . S
C1497 C1498 1.389 . S
C1498 C1497 1.389 . S
C1498 C1499 1.387 . S
C1499 H1484 0.930 . S
C1499 C1494 1.390 . S
C1499 C1498 1.387 . S
H1500 C1512 0.930 . S
H1501 C1514 0.930 . S
H1502 C1515 0.930 . S
H1503 C1519 0.959 . S
H1504 C1519 0.959 . S
H1505 C1519 0.961 . S
H1506 C1520 0.960 . S
H1507 C1520 0.961 . S
H1508 C1520 0.959 . S
H1509 C1523 0.929 . S
H1510 C1524 0.931 . S
H1511 C1526 0.930 . S
C1512 H1500 0.930 . S
C1512 C1513 1.399 . S
C1512 C1517 1.399 . S
C1513 C1512 1.399 . S
C1513 C1514 1.376 . S
C1514 H1501 0.930 . S
C1514 C1513 1.376 . S
C1514 C1515 1.388 . S
C1515 H1502 0.930 . S
C1515 C1514 1.388 . S
C1515 C1516 1.390 . S
C1516 C1515 1.390 . S
C1516 C1517 1.394 . S
C1516 C1522 1.465 . S
C1517 C1512 1.399 . S
C1517 C1516 1.394 . S
C1517 C1518 1.516 . S
C1518 C1517 1.516 . S
C1518 C1519 1.502 . S
C1518 C1520 1.561 . S
C1518 C1521 1.526 . S
C1519 H1503 0.959 . S
C1519 H1504 0.959 . S
C1519 H1505 0.961 . S
C1519 C1518 1.502 . S
C1520 H1506 0.960 . S
C1520 H1507 0.961 . S
C1520 H1508 0.959 . S
C1520 C1518 1.561 . S
C1521 C1518 1.526 . S
C1521 C1522 1.396 . S
C1521 C1526 1.390 . S
C1522 C1516 1.465 . S
C1522 C1521 1.396 . S
C1522 C1523 1.399 . S
C1523 H1509 0.929 . S
C1523 C1522 1.399 . S
C1523 C1524 1.385 . S
C1524 H1510 0.931 . S
C1524 C1523 1.385 . S
C1524 C1525 1.389 . S
C1525 C1524 1.389 . S
C1525 C1526 1.387 . S
C1526 H1511 0.930 . S
C1526 C1521 1.390 . S
C1526 C1525 1.387 . S
H1527 C1539 0.930 . S
H1528 C1541 0.930 . S
H1529 C1542 0.930 . S
H1530 C1546 0.959 . S
H1531 C1546 0.959 . S
H1532 C1546 0.961 . S
H1533 C1547 0.960 . S
H1534 C1547 0.961 . S
H1535 C1547 0.959 . S
H1536 C1550 0.929 . S
H1537 C1551 0.931 . S
H1538 C1553 0.930 . S
C1539 H1527 0.930 . S
C1539 C1540 1.399 . S
C1539 C1544 1.399 . S
C1540 C1539 1.399 . S
C1540 C1541 1.376 . S
C1541 H1528 0.930 . S
C1541 C1540 1.376 . S
C1541 C1542 1.388 . S
C1542 H1529 0.930 . S
C1542 C1541 1.388 . S
C1542 C1543 1.390 . S
C1543 C1542 1.390 . S
C1543 C1544 1.394 . S
C1543 C1549 1.465 . S
C1544 C1539 1.399 . S
C1544 C1543 1.394 . S
C1544 C1545 1.516 . S
C1545 C1544 1.516 . S
C1545 C1546 1.502 . S
C1545 C1547 1.561 . S
C1545 C1548 1.526 . S
C1546 H1530 0.959 . S
C1546 H1531 0.959 . S
C1546 H1532 0.961 . S
C1546 C1545 1.502 . S
C1547 H1533 0.960 . S
C1547 H1534 0.961 . S
C1547 H1535 0.959 . S
C1547 C1545 1.561 . S
C1548 C1545 1.526 . S
C1548 C1549 1.396 . S
C1548 C1553 1.390 . S
C1549 C1543 1.465 . S
C1549 C1548 1.396 . S
C1549 C1550 1.399 . S
C1550 H1536 0.929 . S
C1550 C1549 1.399 . S
C1550 C1551 1.385 . S
C1551 H1537 0.931 . S
C1551 C1550 1.385 . S
C1551 C1552 1.389 . S
C1552 C1551 1.389 . S
C1552 C1553 1.387 . S
C1553 H1538 0.930 . S
C1553 C1548 1.390 . S
C1553 C1552 1.387 . S
H1554 C1566 0.930 . S
H1555 C1568 0.930 . S
H1556 C1569 0.942 . S
H1557 C1573 0.959 . S
H1558 C1573 0.959 . S
H1559 C1573 0.961 . S
H1560 C1574 0.960 . S
H1561 C1574 0.961 . S
H1562 C1574 0.959 . S
H1563 C1577 0.929 . S
H1564 C1578 0.931 . S
H1565 C1580 0.930 . S
C1566 H1554 0.930 . S
C1566 C1567 1.399 . S
C1566 C1571 1.399 . S
C1567 C1566 1.399 . S
C1567 C1568 1.376 . S
C1568 H1555 0.930 . S
C1568 C1567 1.376 . S
C1568 C1569 1.377 1_565 S
C1569 H1556 0.942 . S
C1569 C1568 1.377 1_545 S
C1569 C1570 1.389 1_545 S
C1570 C1569 1.389 1_565 S
C1570 C1571 1.394 . S
C1570 C1576 1.465 1_565 S
C1571 C1566 1.399 . S
C1571 C1570 1.394 . S
C1571 C1572 1.516 . S
C1572 C1571 1.516 . S
C1572 C1573 1.502 . S
C1572 C1574 1.561 . S
C1572 C1575 1.526 1_565 S
C1573 H1557 0.959 . S
C1573 H1558 0.959 . S
C1573 H1559 0.961 . S
C1573 C1572 1.502 . S
C1574 H1560 0.960 . S
C1574 H1561 0.961 . S
C1574 H1562 0.959 . S
C1574 C1572 1.561 . S
C1575 C1572 1.526 1_545 S
C1575 C1576 1.396 . S
C1575 C1580 1.390 . S
C1576 C1570 1.465 1_545 S
C1576 C1575 1.396 . S
C1576 C1577 1.399 . S
C1577 H1563 0.929 . S
C1577 C1576 1.399 . S
C1577 C1578 1.385 . S
C1578 H1564 0.931 . S
C1578 C1577 1.385 . S
C1578 C1579 1.389 . S
C1579 C1578 1.389 . S
C1579 C1580 1.387 . S
C1580 H1565 0.930 . S
C1580 C1575 1.390 . S
C1580 C1579 1.387 . S
H1581 C1593 0.930 . S
H1582 C1595 0.930 . S
H1583 C1596 0.930 . S
H1584 C1600 0.959 . S
H1585 C1600 0.959 . S
H1586 C1600 0.961 . S
H1587 C1601 0.960 . S
H1588 C1601 0.961 . S
H1589 C1601 0.959 . S
H1590 C1604 0.929 . S
H1591 C1605 0.931 . S
H1592 C1607 0.930 . S
C1593 H1581 0.930 . S
C1593 C1594 1.399 . S
C1593 C1598 1.399 . S
C1594 C1593 1.399 . S
C1594 C1595 1.376 1_556 S
C1595 H1582 0.930 . S
C1595 C1594 1.376 1_554 S
C1595 C1596 1.388 . S
C1596 H1583 0.930 . S
C1596 C1595 1.388 . S
C1596 C1597 1.390 . S
C1597 C1596 1.390 . S
C1597 C1598 1.394 1_554 S
C1597 C1603 1.465 . S
C1598 C1593 1.399 . S
C1598 C1597 1.394 1_556 S
C1598 C1599 1.516 . S
C1599 C1598 1.516 . S
C1599 C1600 1.502 . S
C1599 C1601 1.561 . S
C1599 C1602 1.526 . S
C1600 H1584 0.959 . S
C1600 H1585 0.959 . S
C1600 H1586 0.961 . S
C1600 C1599 1.502 . S
C1601 H1587 0.960 . S
C1601 H1588 0.961 . S
C1601 H1589 0.959 . S
C1601 C1599 1.561 . S
C1602 C1599 1.526 . S
C1602 C1603 1.396 1_556 S
C1602 C1607 1.390 . S
C1603 C1597 1.465 . S
C1603 C1602 1.396 1_554 S
C1603 C1604 1.399 . S
C1604 H1590 0.929 . S
C1604 C1603 1.399 . S
C1604 C1605 1.385 . S
C1605 H1591 0.931 . S
C1605 C1604 1.385 . S
C1605 C1606 1.389 1_554 S
C1606 C1605 1.389 1_556 S
C1606 C1607 1.387 . S
C1607 H1592 0.930 . S
C1607 C1602 1.390 . S
C1607 C1606 1.387 . S
C325 C226 0.819 . S
C337 C8 0.665 . S
C352 C21 0.662 . S
C364 C213 0.624 . S
C379 C34 0.685 . S
C391 C252 0.649 . S
C406 C47 0.898 . S
C418 C239 0.812 . S
C433 C60 0.815 . S
C445 C278 0.752 . S
C460 C73 0.622 . S
C472 C291 0.741 . S
C487 C265 0.822 . S
C499 C86 0.825 . S
C514 C148 0.640 . S
C526 C99 0.789 . S
C541 C112 0.591 . S
C553 C44 0.759 . S
C568 C18 0.728 . S
C580 C125 0.623 . S
C595 C138 0.768 . S
C607 C5 0.896 . S
C622 C151 0.826 . S
C634 C187 0.661 . S
C649 C70 0.917 . S
C661 C164 0.802 . S
C676 C57 0.866 . S
C688 C177 0.734 . S
C703 C190 0.870 . S
C715 C96 0.837 . S
C730 C203 0.621 . S
C742 C83 0.728 . S
C757 C122 0.939 . S
C769 C216 0.850 . S
C784 C135 0.654 . S
C796 C229 0.762 . S
C811 C109 0.866 . S
C823 C242 0.734 . S
C838 C255 0.638 . S
C850 C304 0.721 . S
C865 C200 0.820 . S
C877 C268 0.759 . S
C892 C281 0.836 . S
C904 C174 0.668 . S
C919 C161 0.720 . S
C931 C294 0.611 . S
C946 C307 0.775 . S
C958 C31 0.640 . S
C973 C0 1.531 . S
C985 C13 1.545 . S
C1000 C39 1.494 . S
C1012 C26 1.472 . S
C1027 C52 1.517 . S
C1039 C78 1.547 . S
C1054 C65 1.649 . S
C1066 C91 1.653 . S
C1081 C286 1.486 . S
C1093 C104 1.508 . S
C1108 C117 1.594 . S
C1120 C143 1.610 . S
C1135 C260 1.538 . S
C1147 C130 1.575 . S
C1162 C169 1.611 . S
C1174 C156 1.585 . S
C1189 C182 1.656 . S
C1201 C195 1.645 . S
C1216 C234 1.579 . S
C1228 C208 1.539 . S
C1243 C221 1.463 . S
C1255 C247 1.425 . S
C1270 C299 1.489 . S
C1282 C273 1.458 . S
C1297 C36 1.259 . S
C1309 C10 1.204 . S
C1324 C23 1.312 . S
C1336 C49 1.347 . S
C1351 C257 1.256 . S
C1363 C62 1.204 . S
C1378 C75 1.273 . S
C1390 C244 1.315 . S
C1405 C88 1.328 . S
C1417 C231 1.331 . S
C1432 C218 1.358 . S
C1444 C101 1.427 . S
C1459 C114 1.247 . S
C1471 C309 1.212 . S
C1486 C127 1.269 . S
C1498 C140 1.319 . S
C1513 C270 1.408 . S
C1525 C153 1.375 . S
C1540 C166 1.427 . S
C1552 C192 1.362 . S
C1567 C179 1.254 . S
C1579 C205 1.328 . S
C1594 C296 1.323 . S
C1606 C283 1.336 . S
