# Generated by pormake.
# Topology zfb, (5)-cn, num edge types: 1
# Building blocks:
#     Node 0, Type 0, BuildingBlock: BEQFEK_clean_sbu_0, # of connection points: 5
#     Node 1, Type 0, BuildingBlock: BEQFEK_clean_sbu_0, # of connection points: 5
#     Node 2, Type 0, BuildingBlock: BEQFEK_clean_sbu_0, # of connection points: 5
#     Node 3, Type 0, BuildingBlock: BEQFEK_clean_sbu_0, # of connection points: 5
#     Node 4, Type 0, BuildingBlock: BEQFEK_clean_sbu_0, # of connection points: 5
#     Node 5, Type 0, BuildingBlock: BEQFEK_clean_sbu_0, # of connection points: 5
#     Node 6, Type 0, BuildingBlock: BEQFEK_clean_sbu_0, # of connection points: 5
#     Node 7, Type 0, BuildingBlock: BEQFEK_clean_sbu_0, # of connection points: 5
#     Edge 8, Type (0, 0), BuildingBlock: EYOCIG_clean_linker_4, # of connection points: 2
#     Edge 9, Type (0, 0), BuildingBlock: EYOCIG_clean_linker_4, # of connection points: 2
#     Edge 10, Type (0, 0), BuildingBlock: EYOCIG_clean_linker_4, # of connection points: 2
#     Edge 11, Type (0, 0), BuildingBlock: EYOCIG_clean_linker_4, # of connection points: 2
#     Edge 12, Type (0, 0), BuildingBlock: EYOCIG_clean_linker_4, # of connection points: 2
#     Edge 13, Type (0, 0), BuildingBlock: EYOCIG_clean_linker_4, # of connection points: 2
#     Edge 14, Type (0, 0), BuildingBlock: EYOCIG_clean_linker_4, # of connection points: 2
#     Edge 15, Type (0, 0), BuildingBlock: EYOCIG_clean_linker_4, # of connection points: 2
#     Edge 16, Type (0, 0), BuildingBlock: EYOCIG_clean_linker_4, # of connection points: 2
#     Edge 17, Type (0, 0), BuildingBlock: EYOCIG_clean_linker_4, # of connection points: 2
#     Edge 18, Type (0, 0), BuildingBlock: EYOCIG_clean_linker_4, # of connection points: 2
#     Edge 19, Type (0, 0), BuildingBlock: EYOCIG_clean_linker_4, # of connection points: 2
#     Edge 20, Type (0, 0), BuildingBlock: EYOCIG_clean_linker_4, # of connection points: 2
#     Edge 21, Type (0, 0), BuildingBlock: EYOCIG_clean_linker_4, # of connection points: 2
#     Edge 22, Type (0, 0), BuildingBlock: EYOCIG_clean_linker_4, # of connection points: 2
#     Edge 23, Type (0, 0), BuildingBlock: EYOCIG_clean_linker_4, # of connection points: 2
#     Edge 24, Type (0, 0), BuildingBlock: EYOCIG_clean_linker_4, # of connection points: 2
#     Edge 25, Type (0, 0), BuildingBlock: EYOCIG_clean_linker_4, # of connection points: 2
#     Edge 26, Type (0, 0), BuildingBlock: EYOCIG_clean_linker_4, # of connection points: 2
#     Edge 27, Type (0, 0), BuildingBlock: EYOCIG_clean_linker_4, # of connection points: 2
# Relax obj value: 0.110
# Max RMSD: 0.135
# Mean RMSD: 0.135
data_MOF--net-zfb--node1-BEQFEK_clean_sbu_0--edge1-EYOCIG_clean_linker_4
_symmetry_space_group_name_H-M    P1
_symmetry_Int_Tables_number       1
_symmetry_cell_setting            triclinic
loop_
_symmetry_equiv_pos_as_xyz
'x, y, z'
_cell_length_a     24.896392
_cell_length_b     24.896876
_cell_length_c     32.418819
_cell_angle_alpha  89.984834
_cell_angle_beta   90.011383
_cell_angle_gamma 90.005433
loop_
_atom_site_label
_atom_site_type_symbol
_atom_site_fract_x
_atom_site_fract_y
_atom_site_fract_z
_atom_type_partial_charge
Co0 Co 0.20006 0.37734 0.10395 0.0
Co1 Co 0.19036 0.38404 0.00667 0.0
C2 C 0.10023 0.41445 0.05937 0.0
O3 O 0.1272 0.40497 0.09192 0.0
O4 O 0.11813 0.40523 0.02335 0.0
C5 C 0.16189 0.34587 0.18435 0.0
O6 O 0.11678 0.33786 0.16436 0.0
C7 C 0.15734 0.37564 0.91972 0.0
C8 C 0.23623 0.37812 0.88836 0.0
C9 C 0.18168 0.37416 0.88146 0.0
N10 N 0.19606 0.3802 0.94838 0.0
N11 N 0.24304 0.38209 0.92942 0.0
C12 C 0.09859 0.37223 0.92906 0.0
H13 H 0.08415 0.41236 0.93899 0.0
H14 H 0.09175 0.34393 0.95498 0.0
H15 H 0.07526 0.35925 0.90164 0.0
C16 C 0.21822 0.26151 0.08188 0.0
N17 N 0.21353 0.31399 0.07158 0.0
N18 N 0.20929 0.31756 0.03117 0.0
C19 C 0.21082 0.26781 0.01468 0.0
C20 C 0.21599 0.23066 0.04616 0.0
C21 C 0.21983 0.24103 0.1252 0.0
H22 H 0.24592 0.2672 0.1443 0.0
H23 H 0.17867 0.24207 0.13828 0.0
H24 H 0.23484 0.19906 0.12626 0.0
O25 O 0.24649 0.44156 0.09079 0.0
O26 O 0.23386 0.44635 0.02305 0.0
H27 H 0.23358 0.27548 0.95139 0.0
H28 H 0.20282 0.21186 0.96374 0.0
C29 C 0.20191 0.25567 0.96998 0.0
H30 H 0.16246 0.27195 0.96028 0.0
H31 H 0.27984 0.38549 0.94462 0.0
O32 O 0.20336 0.36181 0.16488 0.0
C33 C 0.25217 0.46578 0.05635 0.0
Co34 Co 0.60893 0.19965 0.60403 0.0
Co35 Co 0.60236 0.19036 0.50676 0.0
C36 C 0.57247 0.09979 0.55924 0.0
O37 O 0.58175 0.12667 0.59186 0.0
O38 O 0.58158 0.11792 0.52326 0.0
C39 C 0.6402 0.16143 0.68446 0.0
O40 O 0.64826 0.11631 0.66451 0.0
C41 C 0.61111 0.15777 0.41977 0.0
C42 C 0.6082 0.23678 0.38857 0.0
C43 C 0.61252 0.18229 0.38157 0.0
N44 N 0.60623 0.19635 0.44851 0.0
N45 N 0.6041 0.2434 0.42964 0.0
C46 C 0.61486 0.09901 0.429 0.0
H47 H 0.57479 0.08427 0.43884 0.0
H48 H 0.64313 0.09224 0.45495 0.0
H49 H 0.62806 0.07588 0.40154 0.0
C50 C 0.7247 0.21835 0.58209 0.0
N51 N 0.67224 0.21358 0.57174 0.0
N52 N 0.66872 0.20955 0.53132 0.0
C53 C 0.71847 0.21131 0.51486 0.0
C54 C 0.75558 0.21639 0.54637 0.0
C55 C 0.74514 0.21969 0.62542 0.0
H56 H 0.71892 0.24564 0.6446 0.0
H57 H 0.74411 0.17845 0.63835 0.0
H58 H 0.7871 0.23474 0.62656 0.0
O59 O 0.54451 0.24581 0.59094 0.0
O60 O 0.53984 0.23348 0.52317 0.0
H61 H 0.71069 0.23422 0.45159 0.0
H62 H 0.7745 0.20387 0.46391 0.0
C63 C 0.73069 0.20263 0.47015 0.0
H64 H 0.71469 0.1631 0.46039 0.0
H65 H 0.60044 0.28011 0.44491 0.0
O66 O 0.62433 0.2029 0.66495 0.0
C67 C 0.52031 0.25156 0.55651 0.0
Co68 Co 0.78673 0.60898 0.1041 0.0
Co69 Co 0.79622 0.60252 0.00682 0.0
C70 C 0.88674 0.57275 0.05936 0.0
O71 O 0.85976 0.58192 0.09194 0.0
O72 O 0.86868 0.58189 0.02336 0.0
C73 C 0.82493 0.6404 0.18447 0.0
O74 O 0.86998 0.64865 0.16447 0.0
C75 C 0.82885 0.61134 0.91983 0.0
C76 C 0.74987 0.60835 0.8886 0.0
C77 C 0.80436 0.61273 0.88162 0.0
N78 N 0.79027 0.60642 0.94856 0.0
N79 N 0.74323 0.60424 0.92967 0.0
C80 C 0.88761 0.61516 0.92907 0.0
H81 H 0.90237 0.57512 0.93897 0.0
H82 H 0.89434 0.64348 0.95499 0.0
H83 H 0.91075 0.62833 0.90161 0.0
C84 C 0.76769 0.72469 0.08214 0.0
N85 N 0.77269 0.67226 0.07179 0.0
N86 N 0.77684 0.66878 0.03137 0.0
C87 C 0.77492 0.71854 0.01492 0.0
C88 C 0.76962 0.75559 0.04642 0.0
C89 C 0.76612 0.74508 0.12547 0.0
H90 H 0.74025 0.71872 0.1446 0.0
H91 H 0.80733 0.74425 0.13847 0.0
H92 H 0.75087 0.78696 0.12659 0.0
O93 O 0.74066 0.54454 0.09097 0.0
O94 O 0.75319 0.53993 0.02322 0.0
H95 H 0.7521 0.71082 0.95163 0.0
H96 H 0.7824 0.77464 0.964 0.0
C97 C 0.78366 0.73083 0.97022 0.0
H98 H 0.82321 0.71486 0.96048 0.0
H99 H 0.70651 0.60053 0.94494 0.0
O100 O 0.78349 0.62436 0.16502 0.0
C101 C 0.73502 0.52036 0.05652 0.0
Co102 Co 0.37759 0.78639 0.60415 0.0
Co103 Co 0.38424 0.79558 0.50683 0.0
C104 C 0.41438 0.88609 0.55926 0.0
O105 O 0.405 0.85927 0.59189 0.0
O106 O 0.40521 0.86797 0.52329 0.0
C107 C 0.34641 0.82484 0.68454 0.0
O108 O 0.33859 0.86998 0.66455 0.0
C109 C 0.37543 0.82813 0.41981 0.0
C110 C 0.37852 0.74913 0.38864 0.0
C111 C 0.37406 0.80361 0.38161 0.0
N112 N 0.38041 0.78957 0.44857 0.0
N113 N 0.38265 0.74253 0.42972 0.0
C114 C 0.37154 0.88688 0.42901 0.0
H115 H 0.41163 0.90176 0.4387 0.0
H116 H 0.34342 0.89358 0.45505 0.0
H117 H 0.3581 0.90996 0.40158 0.0
C118 C 0.26181 0.76781 0.58211 0.0
N119 N 0.31428 0.77256 0.5718 0.0
N120 N 0.31783 0.77654 0.53138 0.0
C121 C 0.26809 0.77474 0.51488 0.0
C122 C 0.23096 0.76971 0.54637 0.0
C123 C 0.24134 0.76649 0.62543 0.0
H124 H 0.26756 0.74057 0.64465 0.0
H125 H 0.24235 0.80774 0.63833 0.0
H126 H 0.19939 0.75142 0.62655 0.0
O127 O 0.44192 0.74008 0.59113 0.0
O128 O 0.44665 0.75235 0.52335 0.0
H129 H 0.27603 0.75168 0.45167 0.0
H130 H 0.21212 0.7819 0.46386 0.0
C131 C 0.25591 0.78326 0.47014 0.0
H132 H 0.27182 0.82282 0.46032 0.0
H133 H 0.3864 0.70583 0.44501 0.0
O134 O 0.36211 0.78329 0.66508 0.0
C135 C 0.46613 0.73426 0.55672 0.0
Co136 Co 0.69958 0.10903 0.97025 0.0
Co137 Co 0.69009 0.10252 0.06752 0.0
C138 C 0.59957 0.0728 0.01495 0.0
O139 O 0.62653 0.082 0.98237 0.0
O140 O 0.61764 0.08188 0.05095 0.0
C141 C 0.66147 0.14059 0.88989 0.0
O142 O 0.61649 0.14905 0.90992 0.0
C143 C 0.65728 0.11148 0.15445 0.0
C144 C 0.73619 0.10832 0.18578 0.0
C145 C 0.68169 0.11286 0.19269 0.0
N146 N 0.69592 0.10641 0.12578 0.0
N147 N 0.74291 0.10412 0.14473 0.0
C148 C 0.59856 0.11546 0.14512 0.0
H149 H 0.58369 0.07543 0.13531 0.0
H150 H 0.59198 0.1437 0.11913 0.0
H151 H 0.57541 0.1288 0.17252 0.0
C152 C 0.71862 0.22474 0.9922 0.0
N153 N 0.71362 0.1723 1.00255 0.0
N154 N 0.70949 0.1688 0.04297 0.0
C155 C 0.71143 0.21854 0.05942 0.0
C156 C 0.71671 0.25562 0.02791 0.0
C157 C 0.72016 0.24517 0.94887 0.0
H158 H 0.74604 0.21883 0.92973 0.0
H159 H 0.67894 0.24432 0.93587 0.0
H160 H 0.73539 0.28705 0.94775 0.0
O161 O 0.74561 0.04456 0.98342 0.0
O162 O 0.73314 0.03993 0.05117 0.0
H163 H 0.73422 0.21067 0.1227 0.0
H164 H 0.70416 0.27461 0.11035 0.0
C165 C 0.70274 0.23081 0.10412 0.0
H166 H 0.66313 0.21498 0.11386 0.0
H167 H 0.77965 0.1003 0.12952 0.0
O168 O 0.70287 0.12439 0.90933 0.0
C169 C 0.75127 0.02037 0.01787 0.0
Co170 Co 0.87745 0.6999 0.47025 0.0
Co171 Co 0.88417 0.69008 0.5675 0.0
C172 C 0.91399 0.59982 0.5148 0.0
O173 O 0.90472 0.62692 0.48229 0.0
O174 O 0.90488 0.6177 0.55085 0.0
C175 C 0.84601 0.66174 0.38989 0.0
O176 O 0.83786 0.61667 0.4099 0.0
C177 C 0.87535 0.65726 0.65446 0.0
C178 C 0.87852 0.73618 0.68574 0.0
C179 C 0.87398 0.68169 0.69269 0.0
N180 N 0.8804 0.69588 0.62577 0.0
N181 N 0.8827 0.74288 0.64468 0.0
C182 C 0.87137 0.59853 0.64517 0.0
H183 H 0.91143 0.58364 0.63544 0.0
H184 H 0.84321 0.59193 0.61913 0.0
H185 H 0.85793 0.5754 0.67257 0.0
C186 C 0.76172 0.71853 0.49237 0.0
N187 N 0.81419 0.71366 0.50264 0.0
N188 N 0.81778 0.7094 0.54305 0.0
C189 C 0.76806 0.71112 0.55957 0.0
C190 C 0.7309 0.7164 0.52811 0.0
C191 C 0.7412 0.72017 0.44906 0.0
H192 H 0.76754 0.74602 0.4299 0.0
H193 H 0.74193 0.67897 0.43605 0.0
H194 H 0.69934 0.73548 0.44801 0.0
O195 O 0.94186 0.74607 0.48338 0.0
O196 O 0.94669 0.73324 0.55109 0.0
H197 H 0.77604 0.73367 0.62288 0.0
H198 H 0.71211 0.70357 0.61056 0.0
C199 C 0.7559 0.70224 0.60427 0.0
H200 H 0.77179 0.66261 0.6139 0.0
H201 H 0.8865 0.77961 0.62945 0.0
O202 O 0.86197 0.70321 0.40934 0.0
C203 C 0.96614 0.75157 0.5178 0.0
Co204 Co 0.28638 0.87742 0.9703 0.0
Co205 Co 0.29579 0.88394 0.0676 0.0
C206 C 0.38606 0.91445 0.01504 0.0
O207 O 0.3592 0.90502 0.98244 0.0
O208 O 0.36806 0.90519 0.05103 0.0
C209 C 0.32474 0.84616 0.88994 0.0
O210 O 0.36979 0.83806 0.90999 0.0
C211 C 0.32878 0.87481 0.15451 0.0
C212 C 0.24994 0.87776 0.18592 0.0
C213 C 0.30446 0.87327 0.19277 0.0
N214 N 0.29007 0.87992 0.12588 0.0
N215 N 0.24312 0.88208 0.14488 0.0
C216 C 0.38749 0.87094 0.14511 0.0
H217 H 0.40236 0.9111 0.1356 0.0
H218 H 0.39403 0.84304 0.11891 0.0
H219 H 0.41067 0.85724 0.17241 0.0
C220 C 0.2682 0.76154 0.99224 0.0
N221 N 0.27283 0.814 1.0026 0.0
N222 N 0.27689 0.8175 0.04302 0.0
C223 C 0.27525 0.76772 0.05947 0.0
C224 C 0.27025 0.73062 0.02795 0.0
C225 C 0.26682 0.74114 0.94891 0.0
H226 H 0.24075 0.7673 0.92976 0.0
H227 H 0.30803 0.7423 0.93593 0.0
H228 H 0.25189 0.69914 0.94777 0.0
O229 O 0.23995 0.94163 0.98347 0.0
O230 O 0.25231 0.94629 0.05124 0.0
H231 H 0.25233 0.77558 0.12272 0.0
H232 H 0.28247 0.71167 0.11044 0.0
C233 C 0.28386 0.75547 0.10419 0.0
H234 H 0.32344 0.77133 0.11397 0.0
H235 H 0.20634 0.8859 0.12972 0.0
O236 O 0.28322 0.86205 0.90936 0.0
C237 C 0.23414 0.96579 0.01791 0.0
Co238 Co 0.10889 0.28616 0.47011 0.0
Co239 Co 0.10222 0.29622 0.56737 0.0
C240 C 0.07212 0.38625 0.51445 0.0
O241 O 0.08148 0.35915 0.48197 0.0
O242 O 0.08128 0.36844 0.55052 0.0
C243 C 0.14056 0.32411 0.38973 0.0
O244 O 0.14891 0.36914 0.40973 0.0
C245 C 0.11091 0.32955 0.65423 0.0
C246 C 0.10807 0.2508 0.6858 0.0
C247 C 0.11235 0.30535 0.69255 0.0
N248 N 0.10607 0.29074 0.62567 0.0
N249 N 0.10397 0.24384 0.64476 0.0
C250 C 0.11462 0.38824 0.64472 0.0
H251 H 0.07454 0.40287 0.63481 0.0
H252 H 0.14288 0.39483 0.61875 0.0
H253 H 0.12781 0.41161 0.67207 0.0
C254 C 0.22464 0.26761 0.49227 0.0
N255 N 0.17218 0.27257 0.50254 0.0
N256 N 0.16862 0.27697 0.54294 0.0
C257 C 0.21835 0.27527 0.55945 0.0
C258 C 0.25548 0.26984 0.528 0.0
C259 C 0.24512 0.26573 0.44897 0.0
H260 H 0.21879 0.23973 0.42991 0.0
H261 H 0.24433 0.30685 0.43579 0.0
H262 H 0.287 0.25046 0.44796 0.0
O263 O 0.04456 0.23994 0.48337 0.0
O264 O 0.03982 0.25282 0.55108 0.0
H265 H 0.21056 0.25279 0.6228 0.0
H266 H 0.27434 0.28315 0.6104 0.0
C267 C 0.23054 0.28428 0.60413 0.0
H268 H 0.21448 0.32385 0.61373 0.0
H269 H 0.10034 0.20701 0.62967 0.0
O270 O 0.12438 0.28272 0.40919 0.0
C271 C 0.02035 0.23442 0.51781 0.0
C272 C 0.21109 0.06904 0.0257 0.0
C273 C 0.22008 0.02208 0.01864 0.0
C274 C 0.21028 0.12483 0.03523 0.0
C275 C 0.21306 0.17264 0.04203 0.0
C276 C 0.91713 0.21142 0.52575 0.0
C277 C 0.96407 0.22033 0.51859 0.0
C278 C 0.86138 0.21066 0.5354 0.0
C279 C 0.81359 0.21344 0.54226 0.0
C280 C 0.77418 0.91714 0.0258 0.0
C281 C 0.76526 0.96409 0.01866 0.0
C282 C 0.77503 0.8614 0.03545 0.0
C283 C 0.77238 0.8136 0.04232 0.0
C284 C 0.06939 0.77451 0.52567 0.0
C285 C 0.02244 0.76562 0.51854 0.0
C286 C 0.12515 0.77531 0.53532 0.0
C287 C 0.17295 0.77259 0.5422 0.0
C288 C 0.71211 0.41714 0.04858 0.0
C289 C 0.72102 0.46407 0.05573 0.0
C290 C 0.71127 0.36141 0.0389 0.0
C291 C 0.71393 0.31362 0.03202 0.0
C292 C 0.56938 0.71139 0.54888 0.0
C293 C 0.52243 0.72027 0.55602 0.0
C294 C 0.62512 0.71067 0.5392 0.0
C295 C 0.6729 0.71346 0.53228 0.0
C296 C 0.27524 0.56902 0.04849 0.0
C297 C 0.26628 0.52207 0.05561 0.0
C298 C 0.27602 0.6248 0.03889 0.0
C299 C 0.27322 0.67261 0.03206 0.0
C300 C 0.36129 0.2753 0.53903 0.0
C301 C 0.31349 0.27262 0.53216 0.0
C302 C 0.41705 0.27447 0.54866 0.0
C303 C 0.46401 0.26554 0.55576 0.0
C304 C 0.0151 0.4757 0.06471 0.0
C305 C 0.05409 0.44768 0.06297 0.0
C306 C 0.97229 0.51207 0.06467 0.0
C307 C 0.9331 0.53983 0.06289 0.0
C308 C 0.47539 0.97142 0.56443 0.0
C309 C 0.44748 0.93234 0.56272 0.0
C310 C 0.51172 0.01427 0.56443 0.0
C311 C 0.53951 0.05344 0.56272 0.0
C312 C 0.4712 0.97574 0.00977 0.0
C313 C 0.43221 0.9477 0.01153 0.0
C314 C 0.514 0.01212 0.00973 0.0
C315 C 0.55319 0.03988 0.01144 0.0
C316 C 0.97477 0.51438 0.50921 0.0
C317 C 0.94697 0.55351 0.51113 0.0
C318 C 0.01111 0.47155 0.50904 0.0
C319 C 0.03902 0.43247 0.51076 0.0
C320 C 0.16079 0.33145 0.26538 0.0
C321 C 0.16318 0.33852 0.22849 0.0
C322 C 0.15474 0.3253 0.30867 0.0
C323 C 0.14777 0.32285 0.34557 0.0
C324 C 0.66032 0.15453 0.80882 0.0
C325 C 0.66269 0.14768 0.84573 0.0
C326 C 0.65432 0.16044 0.76551 0.0
C327 C 0.6474 0.16274 0.7286 0.0
C328 C 0.83198 0.66056 0.30882 0.0
C329 C 0.83887 0.66296 0.34573 0.0
C330 C 0.82602 0.65453 0.26552 0.0
C331 C 0.82368 0.6476 0.22862 0.0
C332 C 0.32604 0.83204 0.80888 0.0
C333 C 0.32358 0.83897 0.84578 0.0
C334 C 0.33214 0.82601 0.76559 0.0
C335 C 0.33913 0.8236 0.72869 0.0
C336 C 0.84486 0.62807 0.80759 0.0
C337 C 0.82872 0.62112 0.84213 0.0
C338 C 0.85822 0.64125 0.76669 0.0
C339 C 0.86535 0.65731 0.73215 0.0
C340 C 0.35849 0.84404 0.30757 0.0
C341 C 0.36554 0.82793 0.34211 0.0
C342 C 0.34515 0.85741 0.26669 0.0
C343 C 0.32897 0.86459 0.23219 0.0
C344 C 0.12775 0.3461 0.76649 0.0
C345 C 0.12077 0.32997 0.73195 0.0
C346 C 0.14101 0.35922 0.80743 0.0
C347 C 0.15715 0.366 0.84199 0.0
C348 C 0.64116 0.12853 0.26665 0.0
C349 C 0.65728 0.12144 0.23213 0.0
C350 C 0.62792 0.14184 0.30755 0.0
C351 C 0.62094 0.15795 0.34208 0.0
loop_
_geom_bond_atom_site_label_1
_geom_bond_atom_site_label_2
_geom_bond_distance
_geom_bond_site_symmetry_2
_ccdc_geom_bond_type
Co0 O3 1.970 . S
Co0 N17 1.989 . S
Co0 O25 1.967 . S
Co0 O32 1.920 . S
Co1 O4 1.966 1_556 S
Co1 N10 2.022 . S
Co1 N18 1.993 1_556 S
Co1 O26 1.941 1_556 S
C2 O3 1.258 . S
C2 O4 1.263 . S
O3 Co0 1.970 . S
O3 C2 1.258 . S
O4 Co1 1.966 1_554 S
O4 C2 1.263 . S
C5 O6 1.235 . S
C5 O32 1.289 . S
O6 C5 1.235 . S
C7 C9 1.400 . S
C7 N10 1.351 . S
C7 C12 1.501 . S
C8 C9 1.387 . S
C8 N11 1.341 . S
C9 C7 1.400 . S
C9 C8 1.387 . S
N10 Co1 2.022 . S
N10 C7 1.351 . S
N10 N11 1.365 . S
N11 C8 1.341 . S
N11 N10 1.365 . S
N11 H31 0.862 . S
C12 C7 1.501 . S
C12 H13 0.961 . S
C12 H14 0.961 . S
C12 H15 0.960 . S
H13 C12 0.961 . S
H14 C12 0.961 . S
H15 C12 0.960 . S
C16 N17 1.342 . S
C16 C20 1.401 . S
C16 C21 1.499 . S
N17 Co0 1.989 . S
N17 C16 1.342 . S
N17 N18 1.388 . S
N18 Co1 1.993 1_554 S
N18 N17 1.388 . S
N18 C19 1.346 . S
C19 N18 1.346 . S
C19 C20 1.396 . S
C19 C29 1.510 1_554 S
C20 C16 1.401 . S
C20 C19 1.396 . S
C21 C16 1.499 . S
C21 H22 0.959 . S
C21 H23 0.960 . S
C21 H24 0.961 . S
H22 C21 0.959 . S
H23 C21 0.960 . S
H24 C21 0.961 . S
O25 Co0 1.967 . S
O25 C33 1.258 . S
O26 Co1 1.941 1_554 S
O26 C33 1.266 . S
H27 C29 0.959 . S
H28 C29 0.961 . S
C29 C19 1.510 1_556 S
C29 H27 0.959 . S
C29 H28 0.961 . S
C29 H30 0.960 . S
H30 C29 0.960 . S
H31 N11 0.862 . S
O32 Co0 1.920 . S
O32 C5 1.289 . S
C33 O25 1.258 . S
C33 O26 1.266 . S
Co34 O37 1.970 . S
Co34 N51 1.989 . S
Co34 O59 1.967 . S
Co34 O66 1.920 . S
Co35 O38 1.966 . S
Co35 N44 2.022 . S
Co35 N52 1.993 . S
Co35 O60 1.941 . S
C36 O37 1.258 . S
C36 O38 1.263 . S
O37 Co34 1.970 . S
O37 C36 1.258 . S
O38 Co35 1.966 . S
O38 C36 1.263 . S
C39 O40 1.235 . S
C39 O66 1.289 . S
O40 C39 1.235 . S
C41 C43 1.400 . S
C41 N44 1.351 . S
C41 C46 1.501 . S
C42 C43 1.387 . S
C42 N45 1.341 . S
C43 C41 1.400 . S
C43 C42 1.387 . S
N44 Co35 2.022 . S
N44 C41 1.351 . S
N44 N45 1.365 . S
N45 C42 1.341 . S
N45 N44 1.365 . S
N45 H65 0.862 . S
C46 C41 1.501 . S
C46 H47 0.961 . S
C46 H48 0.961 . S
C46 H49 0.960 . S
H47 C46 0.961 . S
H48 C46 0.961 . S
H49 C46 0.960 . S
C50 N51 1.342 . S
C50 C54 1.401 . S
C50 C55 1.499 . S
N51 Co34 1.989 . S
N51 C50 1.342 . S
N51 N52 1.388 . S
N52 Co35 1.993 . S
N52 N51 1.388 . S
N52 C53 1.346 . S
C53 N52 1.346 . S
C53 C54 1.396 . S
C53 C63 1.510 . S
C54 C50 1.401 . S
C54 C53 1.396 . S
C55 C50 1.499 . S
C55 H56 0.959 . S
C55 H57 0.960 . S
C55 H58 0.961 . S
H56 C55 0.959 . S
H57 C55 0.960 . S
H58 C55 0.961 . S
O59 Co34 1.967 . S
O59 C67 1.258 . S
O60 Co35 1.941 . S
O60 C67 1.266 . S
H61 C63 0.959 . S
H62 C63 0.961 . S
C63 C53 1.510 . S
C63 H61 0.959 . S
C63 H62 0.961 . S
C63 H64 0.960 . S
H64 C63 0.960 . S
H65 N45 0.862 . S
O66 Co34 1.920 . S
O66 C39 1.289 . S
C67 O59 1.258 . S
C67 O60 1.266 . S
Co68 O71 1.970 . S
Co68 N85 1.989 . S
Co68 O93 1.967 . S
Co68 O100 1.920 . S
Co69 O72 1.966 1_556 S
Co69 N78 2.022 . S
Co69 N86 1.993 1_556 S
Co69 O94 1.941 1_556 S
C70 O71 1.258 . S
C70 O72 1.263 . S
O71 Co68 1.970 . S
O71 C70 1.258 . S
O72 Co69 1.966 1_554 S
O72 C70 1.263 . S
C73 O74 1.235 . S
C73 O100 1.289 . S
O74 C73 1.235 . S
C75 C77 1.400 . S
C75 N78 1.351 . S
C75 C80 1.501 . S
C76 C77 1.387 . S
C76 N79 1.341 . S
C77 C75 1.400 . S
C77 C76 1.387 . S
N78 Co69 2.022 . S
N78 C75 1.351 . S
N78 N79 1.365 . S
N79 C76 1.341 . S
N79 N78 1.365 . S
N79 H99 0.862 . S
C80 C75 1.501 . S
C80 H81 0.961 . S
C80 H82 0.961 . S
C80 H83 0.960 . S
H81 C80 0.961 . S
H82 C80 0.961 . S
H83 C80 0.960 . S
C84 N85 1.342 . S
C84 C88 1.401 . S
C84 C89 1.499 . S
N85 Co68 1.989 . S
N85 C84 1.342 . S
N85 N86 1.388 . S
N86 Co69 1.993 1_554 S
N86 N85 1.388 . S
N86 C87 1.346 . S
C87 N86 1.346 . S
C87 C88 1.396 . S
C87 C97 1.510 1_554 S
C88 C84 1.401 . S
C88 C87 1.396 . S
C89 C84 1.499 . S
C89 H90 0.959 . S
C89 H91 0.960 . S
C89 H92 0.961 . S
H90 C89 0.959 . S
H91 C89 0.960 . S
H92 C89 0.961 . S
O93 Co68 1.967 . S
O93 C101 1.258 . S
O94 Co69 1.941 1_554 S
O94 C101 1.266 . S
H95 C97 0.959 . S
H96 C97 0.961 . S
C97 C87 1.510 1_556 S
C97 H95 0.959 . S
C97 H96 0.961 . S
C97 H98 0.960 . S
H98 C97 0.960 . S
H99 N79 0.862 . S
O100 Co68 1.920 . S
O100 C73 1.289 . S
C101 O93 1.258 . S
C101 O94 1.266 . S
Co102 O105 1.970 . S
Co102 N119 1.989 . S
Co102 O127 1.967 . S
Co102 O134 1.920 . S
Co103 O106 1.966 . S
Co103 N112 2.022 . S
Co103 N120 1.993 . S
Co103 O128 1.941 . S
C104 O105 1.258 . S
C104 O106 1.263 . S
O105 Co102 1.970 . S
O105 C104 1.258 . S
O106 Co103 1.966 . S
O106 C104 1.263 . S
C107 O108 1.235 . S
C107 O134 1.289 . S
O108 C107 1.235 . S
C109 C111 1.400 . S
C109 N112 1.351 . S
C109 C114 1.501 . S
C110 C111 1.387 . S
C110 N113 1.341 . S
C111 C109 1.400 . S
C111 C110 1.387 . S
N112 Co103 2.022 . S
N112 C109 1.351 . S
N112 N113 1.365 . S
N113 C110 1.341 . S
N113 N112 1.365 . S
N113 H133 0.862 . S
C114 C109 1.501 . S
C114 H115 0.961 . S
C114 H116 0.961 . S
C114 H117 0.960 . S
H115 C114 0.961 . S
H116 C114 0.961 . S
H117 C114 0.960 . S
C118 N119 1.342 . S
C118 C122 1.401 . S
C118 C123 1.499 . S
N119 Co102 1.989 . S
N119 C118 1.342 . S
N119 N120 1.388 . S
N120 Co103 1.993 . S
N120 N119 1.388 . S
N120 C121 1.346 . S
C121 N120 1.346 . S
C121 C122 1.396 . S
C121 C131 1.510 . S
C122 C118 1.401 . S
C122 C121 1.396 . S
C123 C118 1.499 . S
C123 H124 0.959 . S
C123 H125 0.960 . S
C123 H126 0.961 . S
H124 C123 0.959 . S
H125 C123 0.960 . S
H126 C123 0.961 . S
O127 Co102 1.967 . S
O127 C135 1.258 . S
O128 Co103 1.941 . S
O128 C135 1.266 . S
H129 C131 0.959 . S
H130 C131 0.961 . S
C131 C121 1.510 . S
C131 H129 0.959 . S
C131 H130 0.961 . S
C131 H132 0.960 . S
H132 C131 0.960 . S
H133 N113 0.862 . S
O134 Co102 1.920 . S
O134 C107 1.289 . S
C135 O127 1.258 . S
C135 O128 1.266 . S
Co136 O139 1.970 . S
Co136 N153 1.989 1_556 S
Co136 O161 1.967 . S
Co136 O168 1.920 . S
Co137 O140 1.966 . S
Co137 N146 2.022 . S
Co137 N154 1.993 . S
Co137 O162 1.941 . S
C138 O139 1.258 1_554 S
C138 O140 1.263 . S
O139 Co136 1.970 . S
O139 C138 1.258 1_556 S
O140 Co137 1.966 . S
O140 C138 1.263 . S
C141 O142 1.235 . S
C141 O168 1.289 . S
O142 C141 1.235 . S
C143 C145 1.400 . S
C143 N146 1.351 . S
C143 C148 1.501 . S
C144 C145 1.387 . S
C144 N147 1.341 . S
C145 C143 1.400 . S
C145 C144 1.387 . S
N146 Co137 2.022 . S
N146 C143 1.351 . S
N146 N147 1.365 . S
N147 C144 1.341 . S
N147 N146 1.365 . S
N147 H167 0.862 . S
C148 C143 1.501 . S
C148 H149 0.961 . S
C148 H150 0.961 . S
C148 H151 0.960 . S
H149 C148 0.961 . S
H150 C148 0.961 . S
H151 C148 0.960 . S
C152 N153 1.342 1_556 S
C152 C156 1.401 1_556 S
C152 C157 1.499 . S
N153 Co136 1.989 1_554 S
N153 C152 1.342 1_554 S
N153 N154 1.388 . S
N154 Co137 1.993 . S
N154 N153 1.388 . S
N154 C155 1.346 . S
C155 N154 1.346 . S
C155 C156 1.396 . S
C155 C165 1.510 . S
C156 C152 1.401 1_554 S
C156 C155 1.396 . S
C157 C152 1.499 . S
C157 H158 0.959 . S
C157 H159 0.960 . S
C157 H160 0.961 . S
H158 C157 0.959 . S
H159 C157 0.960 . S
H160 C157 0.961 . S
O161 Co136 1.967 . S
O161 C169 1.258 1_556 S
O162 Co137 1.941 . S
O162 C169 1.266 . S
H163 C165 0.959 . S
H164 C165 0.961 . S
C165 C155 1.510 . S
C165 H163 0.959 . S
C165 H164 0.961 . S
C165 H166 0.960 . S
H166 C165 0.960 . S
H167 N147 0.862 . S
O168 Co136 1.920 . S
O168 C141 1.289 . S
C169 O161 1.258 1_554 S
C169 O162 1.266 . S
Co170 O173 1.970 . S
Co170 N187 1.989 . S
Co170 O195 1.967 . S
Co170 O202 1.920 . S
Co171 O174 1.966 . S
Co171 N180 2.022 . S
Co171 N188 1.993 . S
Co171 O196 1.941 . S
C172 O173 1.258 . S
C172 O174 1.263 . S
O173 Co170 1.970 . S
O173 C172 1.258 . S
O174 Co171 1.966 . S
O174 C172 1.263 . S
C175 O176 1.235 . S
C175 O202 1.289 . S
O176 C175 1.235 . S
C177 C179 1.400 . S
C177 N180 1.351 . S
C177 C182 1.501 . S
C178 C179 1.387 . S
C178 N181 1.341 . S
C179 C177 1.400 . S
C179 C178 1.387 . S
N180 Co171 2.022 . S
N180 C177 1.351 . S
N180 N181 1.365 . S
N181 C178 1.341 . S
N181 N180 1.365 . S
N181 H201 0.862 . S
C182 C177 1.501 . S
C182 H183 0.961 . S
C182 H184 0.961 . S
C182 H185 0.960 . S
H183 C182 0.961 . S
H184 C182 0.961 . S
H185 C182 0.960 . S
C186 N187 1.342 . S
C186 C190 1.401 . S
C186 C191 1.499 . S
N187 Co170 1.989 . S
N187 C186 1.342 . S
N187 N188 1.388 . S
N188 Co171 1.993 . S
N188 N187 1.388 . S
N188 C189 1.346 . S
C189 N188 1.346 . S
C189 C190 1.396 . S
C189 C199 1.510 . S
C190 C186 1.401 . S
C190 C189 1.396 . S
C191 C186 1.499 . S
C191 H192 0.959 . S
C191 H193 0.960 . S
C191 H194 0.961 . S
H192 C191 0.959 . S
H193 C191 0.960 . S
H194 C191 0.961 . S
O195 Co170 1.967 . S
O195 C203 1.258 . S
O196 Co171 1.941 . S
O196 C203 1.266 . S
H197 C199 0.959 . S
H198 C199 0.961 . S
C199 C189 1.510 . S
C199 H197 0.959 . S
C199 H198 0.961 . S
C199 H200 0.960 . S
H200 C199 0.960 . S
H201 N181 0.862 . S
O202 Co170 1.920 . S
O202 C175 1.289 . S
C203 O195 1.258 . S
C203 O196 1.266 . S
Co204 O207 1.970 . S
Co204 N221 1.989 1_556 S
Co204 O229 1.967 . S
Co204 O236 1.920 . S
Co205 O208 1.966 . S
Co205 N214 2.022 . S
Co205 N222 1.993 . S
Co205 O230 1.941 . S
C206 O207 1.258 1_554 S
C206 O208 1.263 . S
O207 Co204 1.970 . S
O207 C206 1.258 1_556 S
O208 Co205 1.966 . S
O208 C206 1.263 . S
C209 O210 1.235 . S
C209 O236 1.289 . S
O210 C209 1.235 . S
C211 C213 1.400 . S
C211 N214 1.351 . S
C211 C216 1.501 . S
C212 C213 1.387 . S
C212 N215 1.341 . S
C213 C211 1.400 . S
C213 C212 1.387 . S
N214 Co205 2.022 . S
N214 C211 1.351 . S
N214 N215 1.365 . S
N215 C212 1.341 . S
N215 N214 1.365 . S
N215 H235 0.862 . S
C216 C211 1.501 . S
C216 H217 0.961 . S
C216 H218 0.961 . S
C216 H219 0.960 . S
H217 C216 0.961 . S
H218 C216 0.961 . S
H219 C216 0.960 . S
C220 N221 1.342 1_556 S
C220 C224 1.401 1_556 S
C220 C225 1.499 . S
N221 Co204 1.989 1_554 S
N221 C220 1.342 1_554 S
N221 N222 1.388 . S
N222 Co205 1.993 . S
N222 N221 1.388 . S
N222 C223 1.346 . S
C223 N222 1.346 . S
C223 C224 1.396 . S
C223 C233 1.510 . S
C224 C220 1.401 1_554 S
C224 C223 1.396 . S
C225 C220 1.499 . S
C225 H226 0.959 . S
C225 H227 0.960 . S
C225 H228 0.961 . S
H226 C225 0.959 . S
H227 C225 0.960 . S
H228 C225 0.961 . S
O229 Co204 1.967 . S
O229 C237 1.258 1_556 S
O230 Co205 1.941 . S
O230 C237 1.266 . S
H231 C233 0.959 . S
H232 C233 0.961 . S
C233 C223 1.510 . S
C233 H231 0.959 . S
C233 H232 0.961 . S
C233 H234 0.960 . S
H234 C233 0.960 . S
H235 N215 0.862 . S
O236 Co204 1.920 . S
O236 C209 1.289 . S
C237 O229 1.258 1_554 S
C237 O230 1.266 . S
Co238 O241 1.970 . S
Co238 N255 1.989 . S
Co238 O263 1.967 . S
Co238 O270 1.920 . S
Co239 O242 1.966 . S
Co239 N248 2.022 . S
Co239 N256 1.993 . S
Co239 O264 1.941 . S
C240 O241 1.258 . S
C240 O242 1.263 . S
O241 Co238 1.970 . S
O241 C240 1.258 . S
O242 Co239 1.966 . S
O242 C240 1.263 . S
C243 O244 1.235 . S
C243 O270 1.289 . S
O244 C243 1.235 . S
C245 C247 1.400 . S
C245 N248 1.351 . S
C245 C250 1.501 . S
C246 C247 1.387 . S
C246 N249 1.341 . S
C247 C245 1.400 . S
C247 C246 1.387 . S
N248 Co239 2.022 . S
N248 C245 1.351 . S
N248 N249 1.365 . S
N249 C246 1.341 . S
N249 N248 1.365 . S
N249 H269 0.862 . S
C250 C245 1.501 . S
C250 H251 0.961 . S
C250 H252 0.961 . S
C250 H253 0.960 . S
H251 C250 0.961 . S
H252 C250 0.961 . S
H253 C250 0.960 . S
C254 N255 1.342 . S
C254 C258 1.401 . S
C254 C259 1.499 . S
N255 Co238 1.989 . S
N255 C254 1.342 . S
N255 N256 1.388 . S
N256 Co239 1.993 . S
N256 N255 1.388 . S
N256 C257 1.346 . S
C257 N256 1.346 . S
C257 C258 1.396 . S
C257 C267 1.510 . S
C258 C254 1.401 . S
C258 C257 1.396 . S
C259 C254 1.499 . S
C259 H260 0.959 . S
C259 H261 0.960 . S
C259 H262 0.961 . S
H260 C259 0.959 . S
H261 C259 0.960 . S
H262 C259 0.961 . S
O263 Co238 1.967 . S
O263 C271 1.258 . S
O264 Co239 1.941 . S
O264 C271 1.266 . S
H265 C267 0.959 . S
H266 C267 0.961 . S
C267 C257 1.510 . S
C267 H265 0.959 . S
C267 H266 0.961 . S
C267 H268 0.960 . S
H268 C267 0.960 . S
H269 N249 0.862 . S
O270 Co238 1.920 . S
O270 C243 1.289 . S
C271 O263 1.258 . S
C271 O264 1.266 . S
C272 C273 1.170 . S
C272 C274 1.380 . S
C273 C272 1.170 . S
C274 C272 1.380 . S
C274 C275 1.170 . S
C275 C274 1.170 . S
C276 C277 1.170 . S
C276 C278 1.380 . S
C277 C276 1.170 . S
C278 C276 1.380 . S
C278 C279 1.170 . S
C279 C278 1.170 . S
C280 C281 1.170 . S
C280 C282 1.380 . S
C281 C280 1.170 . S
C282 C280 1.380 . S
C282 C283 1.170 . S
C283 C282 1.170 . S
C284 C285 1.170 . S
C284 C286 1.380 . S
C285 C284 1.170 . S
C286 C284 1.380 . S
C286 C287 1.170 . S
C287 C286 1.170 . S
C288 C289 1.170 . S
C288 C290 1.380 . S
C289 C288 1.170 . S
C290 C288 1.380 . S
C290 C291 1.170 . S
C291 C290 1.170 . S
C292 C293 1.170 . S
C292 C294 1.380 . S
C293 C292 1.170 . S
C294 C292 1.380 . S
C294 C295 1.170 . S
C295 C294 1.170 . S
C296 C297 1.170 . S
C296 C298 1.380 . S
C297 C296 1.170 . S
C298 C296 1.380 . S
C298 C299 1.170 . S
C299 C298 1.170 . S
C300 C301 1.170 . S
C300 C302 1.380 . S
C301 C300 1.170 . S
C302 C300 1.380 . S
C302 C303 1.170 . S
C303 C302 1.170 . S
C304 C305 1.170 . S
C304 C306 1.380 1_455 S
C305 C304 1.170 . S
C306 C304 1.380 1_655 S
C306 C307 1.170 . S
C307 C306 1.170 . S
C308 C309 1.170 . S
C308 C310 1.380 1_565 S
C309 C308 1.170 . S
C310 C308 1.380 1_545 S
C310 C311 1.170 . S
C311 C310 1.170 . S
C312 C313 1.170 . S
C312 C314 1.380 1_565 S
C313 C312 1.170 . S
C314 C312 1.380 1_545 S
C314 C315 1.170 . S
C315 C314 1.170 . S
C316 C317 1.170 . S
C316 C318 1.380 1_655 S
C317 C316 1.170 . S
C318 C316 1.380 1_455 S
C318 C319 1.170 . S
C319 C318 1.170 . S
C320 C321 1.170 . S
C320 C322 1.380 . S
C321 C320 1.170 . S
C322 C320 1.380 . S
C322 C323 1.170 . S
C323 C322 1.170 . S
C324 C325 1.170 . S
C324 C326 1.380 . S
C325 C324 1.170 . S
C326 C324 1.380 . S
C326 C327 1.170 . S
C327 C326 1.170 . S
C328 C329 1.170 . S
C328 C330 1.380 . S
C329 C328 1.170 . S
C330 C328 1.380 . S
C330 C331 1.170 . S
C331 C330 1.170 . S
C332 C333 1.170 . S
C332 C334 1.380 . S
C333 C332 1.170 . S
C334 C332 1.380 . S
C334 C335 1.170 . S
C335 C334 1.170 . S
C336 C337 1.170 . S
C336 C338 1.380 . S
C337 C336 1.170 . S
C338 C336 1.380 . S
C338 C339 1.170 . S
C339 C338 1.170 . S
C340 C341 1.170 . S
C340 C342 1.380 . S
C341 C340 1.170 . S
C342 C340 1.380 . S
C342 C343 1.170 . S
C343 C342 1.170 . S
C344 C345 1.170 . S
C344 C346 1.380 . S
C345 C344 1.170 . S
C346 C344 1.380 . S
C346 C347 1.170 . S
C347 C346 1.170 . S
C348 C349 1.170 . S
C348 C350 1.380 . S
C349 C348 1.170 . S
C350 C348 1.380 . S
C350 C351 1.170 . S
C351 C350 1.170 . S
C273 C237 1.557 1_545 S
C275 C20 1.572 . S
C277 C271 1.570 1_655 S
C279 C54 1.571 . S
C281 C169 1.555 1_565 S
C283 C88 1.573 . S
C285 C203 1.573 1_455 S
C287 C122 1.578 . S
C289 C101 1.548 . S
C291 C156 1.576 . S
C293 C135 1.570 . S
C295 C190 1.584 . S
C297 C33 1.539 . S
C299 C224 1.583 . S
C301 C258 1.584 . S
C303 C67 1.537 . S
C305 C2 0.666 . S
C307 C70 0.717 . S
C309 C104 0.687 . S
C311 C36 0.719 . S
C313 C206 0.671 . S
C315 C138 0.720 . S
C317 C172 0.693 . S
C319 C240 0.670 . S
C321 C5 1.768 . S
C323 C243 1.762 . S
C325 C141 1.756 . S
C327 C39 1.770 . S
C329 C175 1.760 . S
C331 C73 1.756 . S
C333 C209 1.754 . S
C335 C107 1.769 . S
C337 C77 1.147 . S
C339 C179 1.155 . S
C341 C111 1.124 . S
C343 C213 1.176 . S
C345 C247 1.174 . S
C347 C9 1.118 . S
C349 C145 1.173 . S
C351 C43 1.128 . S
