# Generated by pormake.
# Topology snl, (6)-cn, num edge types: 1
# Building blocks:
#     Node 0, Type 0, BuildingBlock: FUNLAD_clean_sbu_0, # of connection points: 6
#     Node 1, Type 0, BuildingBlock: FUNLAD_clean_sbu_0, # of connection points: 6
#     Node 2, Type 0, BuildingBlock: FUNLAD_clean_sbu_0, # of connection points: 6
#     Node 3, Type 0, BuildingBlock: FUNLAD_clean_sbu_0, # of connection points: 6
#     Node 4, Type 0, BuildingBlock: FUNLAD_clean_sbu_0, # of connection points: 6
#     Node 5, Type 0, BuildingBlock: FUNLAD_clean_sbu_0, # of connection points: 6
#     Node 6, Type 0, BuildingBlock: FUNLAD_clean_sbu_0, # of connection points: 6
#     Node 7, Type 0, BuildingBlock: FUNLAD_clean_sbu_0, # of connection points: 6
#     Node 8, Type 0, BuildingBlock: FUNLAD_clean_sbu_0, # of connection points: 6
#     Node 9, Type 0, BuildingBlock: FUNLAD_clean_sbu_0, # of connection points: 6
#     Node 10, Type 0, BuildingBlock: FUNLAD_clean_sbu_0, # of connection points: 6
#     Node 11, Type 0, BuildingBlock: FUNLAD_clean_sbu_0, # of connection points: 6
#     Node 12, Type 0, BuildingBlock: FUNLAD_clean_sbu_0, # of connection points: 6
#     Node 13, Type 0, BuildingBlock: FUNLAD_clean_sbu_0, # of connection points: 6
#     Node 14, Type 0, BuildingBlock: FUNLAD_clean_sbu_0, # of connection points: 6
#     Node 15, Type 0, BuildingBlock: FUNLAD_clean_sbu_0, # of connection points: 6
#     Edge 16, Type (0, 0), BuildingBlock: OJICUG_clean_linker_0, # of connection points: 2
#     Edge 17, Type (0, 0), BuildingBlock: OJICUG_clean_linker_0, # of connection points: 2
#     Edge 18, Type (0, 0), BuildingBlock: OJICUG_clean_linker_0, # of connection points: 2
#     Edge 19, Type (0, 0), BuildingBlock: OJICUG_clean_linker_0, # of connection points: 2
#     Edge 20, Type (0, 0), BuildingBlock: OJICUG_clean_linker_0, # of connection points: 2
#     Edge 21, Type (0, 0), BuildingBlock: OJICUG_clean_linker_0, # of connection points: 2
#     Edge 22, Type (0, 0), BuildingBlock: OJICUG_clean_linker_0, # of connection points: 2
#     Edge 23, Type (0, 0), BuildingBlock: OJICUG_clean_linker_0, # of connection points: 2
#     Edge 24, Type (0, 0), BuildingBlock: OJICUG_clean_linker_0, # of connection points: 2
#     Edge 25, Type (0, 0), BuildingBlock: OJICUG_clean_linker_0, # of connection points: 2
#     Edge 26, Type (0, 0), BuildingBlock: OJICUG_clean_linker_0, # of connection points: 2
#     Edge 27, Type (0, 0), BuildingBlock: OJICUG_clean_linker_0, # of connection points: 2
#     Edge 28, Type (0, 0), BuildingBlock: OJICUG_clean_linker_0, # of connection points: 2
#     Edge 29, Type (0, 0), BuildingBlock: OJICUG_clean_linker_0, # of connection points: 2
#     Edge 30, Type (0, 0), BuildingBlock: OJICUG_clean_linker_0, # of connection points: 2
#     Edge 31, Type (0, 0), BuildingBlock: OJICUG_clean_linker_0, # of connection points: 2
#     Edge 32, Type (0, 0), BuildingBlock: OJICUG_clean_linker_0, # of connection points: 2
#     Edge 33, Type (0, 0), BuildingBlock: OJICUG_clean_linker_0, # of connection points: 2
#     Edge 34, Type (0, 0), BuildingBlock: OJICUG_clean_linker_0, # of connection points: 2
#     Edge 35, Type (0, 0), BuildingBlock: OJICUG_clean_linker_0, # of connection points: 2
#     Edge 36, Type (0, 0), BuildingBlock: OJICUG_clean_linker_0, # of connection points: 2
#     Edge 37, Type (0, 0), BuildingBlock: OJICUG_clean_linker_0, # of connection points: 2
#     Edge 38, Type (0, 0), BuildingBlock: OJICUG_clean_linker_0, # of connection points: 2
#     Edge 39, Type (0, 0), BuildingBlock: OJICUG_clean_linker_0, # of connection points: 2
#     Edge 40, Type (0, 0), BuildingBlock: OJICUG_clean_linker_0, # of connection points: 2
#     Edge 41, Type (0, 0), BuildingBlock: OJICUG_clean_linker_0, # of connection points: 2
#     Edge 42, Type (0, 0), BuildingBlock: OJICUG_clean_linker_0, # of connection points: 2
#     Edge 43, Type (0, 0), BuildingBlock: OJICUG_clean_linker_0, # of connection points: 2
#     Edge 44, Type (0, 0), BuildingBlock: OJICUG_clean_linker_0, # of connection points: 2
#     Edge 45, Type (0, 0), BuildingBlock: OJICUG_clean_linker_0, # of connection points: 2
#     Edge 46, Type (0, 0), BuildingBlock: OJICUG_clean_linker_0, # of connection points: 2
#     Edge 47, Type (0, 0), BuildingBlock: OJICUG_clean_linker_0, # of connection points: 2
#     Edge 48, Type (0, 0), BuildingBlock: OJICUG_clean_linker_0, # of connection points: 2
#     Edge 49, Type (0, 0), BuildingBlock: OJICUG_clean_linker_0, # of connection points: 2
#     Edge 50, Type (0, 0), BuildingBlock: OJICUG_clean_linker_0, # of connection points: 2
#     Edge 51, Type (0, 0), BuildingBlock: OJICUG_clean_linker_0, # of connection points: 2
#     Edge 52, Type (0, 0), BuildingBlock: OJICUG_clean_linker_0, # of connection points: 2
#     Edge 53, Type (0, 0), BuildingBlock: OJICUG_clean_linker_0, # of connection points: 2
#     Edge 54, Type (0, 0), BuildingBlock: OJICUG_clean_linker_0, # of connection points: 2
#     Edge 55, Type (0, 0), BuildingBlock: OJICUG_clean_linker_0, # of connection points: 2
#     Edge 56, Type (0, 0), BuildingBlock: OJICUG_clean_linker_0, # of connection points: 2
#     Edge 57, Type (0, 0), BuildingBlock: OJICUG_clean_linker_0, # of connection points: 2
#     Edge 58, Type (0, 0), BuildingBlock: OJICUG_clean_linker_0, # of connection points: 2
#     Edge 59, Type (0, 0), BuildingBlock: OJICUG_clean_linker_0, # of connection points: 2
#     Edge 60, Type (0, 0), BuildingBlock: OJICUG_clean_linker_0, # of connection points: 2
#     Edge 61, Type (0, 0), BuildingBlock: OJICUG_clean_linker_0, # of connection points: 2
#     Edge 62, Type (0, 0), BuildingBlock: OJICUG_clean_linker_0, # of connection points: 2
#     Edge 63, Type (0, 0), BuildingBlock: OJICUG_clean_linker_0, # of connection points: 2
# Relax obj value: 0.154
# Max RMSD: 0.145
# Mean RMSD: 0.105
data_MOF--net-snl--node1-FUNLAD_clean_sbu_0--edge1-OJICUG_clean_linker_0
_symmetry_space_group_name_H-M    P1
_symmetry_Int_Tables_number       1
_symmetry_cell_setting            triclinic
loop_
_symmetry_equiv_pos_as_xyz
'x, y, z'
_cell_length_a     56.133989
_cell_length_b     54.748461
_cell_length_c     11.310726
_cell_angle_alpha  90.836833
_cell_angle_beta   90.972387
_cell_angle_gamma 91.085296
loop_
_atom_site_label
_atom_site_type_symbol
_atom_site_fract_x
_atom_site_fract_y
_atom_site_fract_z
_atom_type_partial_charge
C0 C 0.17339 0.64161 0.55362 0.0
N1 N 0.17444 0.69792 0.31297 0.0
C2 C 0.15849 0.71099 0.37531 0.0
C3 C 0.15752 0.73613 0.36121 0.0
C4 C 0.17319 0.74746 0.28269 0.0
C5 C 0.19065 0.73376 0.22708 0.0
C6 C 0.19079 0.70877 0.24259 0.0
Zn7 Zn 0.17336 0.66177 0.31102 0.0
C8 C 0.22726 0.64331 0.31267 0.0
N9 N 0.17376 0.58571 0.29827 0.0
C10 C 0.15752 0.57141 0.35371 0.0
C11 C 0.19024 0.57609 0.22509 0.0
C12 C 0.19035 0.55118 0.20178 0.0
C13 C 0.17318 0.53609 0.25338 0.0
C14 C 0.15687 0.54627 0.33209 0.0
Zn15 Zn 0.17312 0.62225 0.30812 0.0
O16 O 0.17343 0.66158 0.49795 0.0
C17 C 0.11889 0.6417 0.3051 0.0
O18 O 0.17334 0.62156 0.4955 0.0
H19 H 0.20269 0.58787 0.18022 0.0
H20 H 0.14581 0.70177 0.43101 0.0
H21 H 0.14462 0.57961 0.41134 0.0
O22 O 0.13163 0.6615 0.30703 0.0
O23 O 0.13092 0.62184 0.3053 0.0
H24 H 0.20317 0.69792 0.19326 0.0
O25 O 0.17276 0.62252 0.12086 0.0
O26 O 0.17319 0.66235 0.12323 0.0
O27 O 0.21514 0.62316 0.31084 0.0
O28 O 0.21473 0.66261 0.31472 0.0
C29 C 0.17294 0.64239 0.06502 0.0
H30 H 0.14367 0.74624 0.40464 0.0
H31 H 0.20311 0.74207 0.16679 0.0
H32 H 0.20292 0.54401 0.13912 0.0
H33 H 0.14344 0.53502 0.3738 0.0
C34 C 0.6778 0.91372 0.51857 0.0
N35 N 0.62371 0.92609 0.27646 0.0
C36 C 0.60997 0.91389 0.35464 0.0
C37 C 0.58617 0.9195 0.36537 0.0
C38 C 0.57656 0.93777 0.29472 0.0
C39 C 0.59107 0.95014 0.21472 0.0
C40 C 0.61487 0.94395 0.20697 0.0
Zn41 Zn 0.65802 0.9181 0.2715 0.0
C42 C 0.68703 0.9632 0.27714 0.0
N43 N 0.73057 0.90216 0.27315 0.0
C44 C 0.73848 0.88563 0.19267 0.0
C45 C 0.74582 0.91565 0.34331 0.0
C46 C 0.77024 0.91395 0.32848 0.0
C47 C 0.77884 0.89829 0.24052 0.0
C48 C 0.76281 0.88333 0.1749 0.0
Zn49 Zn 0.69586 0.90982 0.27669 0.0
O50 O 0.659 0.91804 0.45937 0.0
C51 C 0.66447 0.86531 0.2672 0.0
O52 O 0.69684 0.90935 0.46391 0.0
H53 H 0.73903 0.92859 0.40687 0.0
H54 H 0.61747 0.89974 0.4087 0.0
H55 H 0.72589 0.87516 0.13802 0.0
O56 O 0.64906 0.8818 0.2664 0.0
O57 O 0.68649 0.87135 0.27257 0.0
H58 H 0.62631 0.95341 0.14596 0.0
O59 O 0.69505 0.91027 0.08903 0.0
O60 O 0.65702 0.91828 0.08435 0.0
O61 O 0.7045 0.94875 0.27994 0.0
O62 O 0.66609 0.95442 0.2749 0.0
C63 C 0.67616 0.91427 0.02979 0.0
H64 H 0.57527 0.90923 0.4261 0.0
H65 H 0.58407 0.96433 0.15894 0.0
H66 H 0.78223 0.92548 0.3818 0.0
H67 H 0.76891 0.87113 0.106 0.0
C68 C 0.3961 0.36963 0.07642 0.0
N69 N 0.45264 0.36829 0.33346 0.0
C70 C 0.46463 0.34944 0.28349 0.0
C71 C 0.48876 0.34597 0.31174 0.0
C72 C 0.50058 0.36216 0.39144 0.0
C73 C 0.48779 0.38165 0.43949 0.0
C74 C 0.46385 0.38439 0.40929 0.0
Zn75 Zn 0.41618 0.37028 0.32301 0.0
C76 C 0.3986 0.42499 0.31508 0.0
N77 N 0.33995 0.37221 0.32624 0.0
C78 C 0.32685 0.35101 0.31642 0.0
C79 C 0.33063 0.39246 0.37771 0.0
C80 C 0.30901 0.39102 0.43512 0.0
C81 C 0.29716 0.3684 0.44267 0.0
C82 C 0.30543 0.34853 0.37678 0.0
Zn83 Zn 0.3766 0.37125 0.31794 0.0
O84 O 0.41571 0.36958 0.1351 0.0
C85 C 0.39378 0.31687 0.32478 0.0
O86 O 0.37644 0.36993 0.13116 0.0
H87 H 0.3409 0.40917 0.38755 0.0
H88 H 0.45533 0.33663 0.2246 0.0
H89 H 0.33392 0.3352 0.27221 0.0
O90 O 0.41381 0.3285 0.32469 0.0
O91 O 0.37515 0.32993 0.32312 0.0
H92 H 0.45393 0.39882 0.4507 0.0
O93 O 0.37709 0.37252 0.50579 0.0
O94 O 0.41595 0.37085 0.5101 0.0
O95 O 0.37909 0.41254 0.31165 0.0
O96 O 0.41783 0.41263 0.32075 0.0
C97 C 0.39647 0.37179 0.56487 0.0
H98 H 0.49803 0.33084 0.27194 0.0
H99 H 0.49603 0.39438 0.50274 0.0
H100 H 0.30323 0.40677 0.4854 0.0
H101 H 0.29647 0.33085 0.37959 0.0
C102 C 0.87596 0.20387 0.70589 0.0
N103 N 0.84678 0.25313 0.94401 0.0
C104 C 0.85575 0.2699 0.86849 0.0
C105 C 0.8504 0.29434 0.88269 0.0
C106 C 0.83612 0.30146 -0.0232 0.0
C107 C 0.82489 0.28368 0.04523 0.0
C108 C 0.83051 0.25921 0.02682 0.0
Zn109 Zn 0.86351 0.22098 0.94958 0.0
C110 C 0.83161 0.17852 0.91508 0.0
N111 N 0.9005 0.15494 0.95999 0.0
C112 C 0.92083 0.15042 0.90014 0.0
C113 C 0.8912 0.13856 0.03647 0.0
C114 C 0.90265 0.11689 0.05776 0.0
C115 C 0.92372 0.11179 -0.00134 0.0
C116 C 0.93276 0.12854 0.91744 0.0
Zn117 Zn 0.88338 0.1868 0.95027 0.0
O118 O 0.86562 0.22053 0.76342 0.0
C119 C 0.91594 0.22863 -0.02826 0.0
O120 O 0.88602 0.18683 0.76213 0.0
H121 H 0.87491 0.14239 0.08218 0.0
H122 H 0.86888 0.26481 0.80438 0.0
H123 H 0.92784 0.16383 0.83994 0.0
O124 O 0.89683 0.24052 0.96409 0.0
O125 O 0.9153 0.20553 0.9683 0.0
H126 H 0.82356 0.24546 0.08532 0.0
O127 O 0.88092 0.18687 0.1364 0.0
O128 O 0.86143 0.22102 0.13819 0.0
O129 O 0.85129 0.16792 0.92934 0.0
O130 O 0.83082 0.20158 0.92912 0.0
C131 C 0.87101 0.20372 0.19424 0.0
H132 H 0.85926 0.30779 0.82851 0.0
H133 H 0.81385 0.28878 0.1189 0.0
H134 H 0.89482 0.10398 0.11835 0.0
H135 H 0.94882 0.12483 0.86918 0.0
C136 C 0.15787 0.38379 0.30698 0.0
N137 N 0.10167 0.39659 0.06545 0.0
C138 C 0.08762 0.38376 0.14022 0.0
C139 C 0.06358 0.38928 0.15011 0.0
C140 C 0.05403 0.40812 0.08219 0.0
C141 C 0.06887 0.42075 0.00438 0.0
C142 C 0.09276 0.41465 -0.00258 0.0
Zn143 Zn 0.13702 0.39031 0.05929 0.0
C144 C 0.164 0.43631 0.09515 0.0
N145 N 0.21221 0.37868 0.04626 0.0
C146 C 0.21915 0.35542 0.02162 0.0
C147 C 0.22489 0.3981 0.00461 0.0
C148 C 0.24151 0.39465 0.9165 0.0
C149 C 0.24517 0.37105 0.87175 0.0
C150 C 0.23544 0.35112 0.93194 0.0
Zn151 Zn 0.17608 0.38429 0.06684 0.0
O152 O 0.13894 0.38786 0.24723 0.0
C153 C 0.14724 0.33859 0.03178 0.0
O154 O 0.1773 0.38025 0.25309 0.0
H155 H 0.22026 0.41658 0.02684 0.0
H156 H 0.09514 0.36947 0.19331 0.0
H157 H 0.21009 0.33998 0.05999 0.0
O158 O 0.13019 0.35324 0.04174 0.0
O159 O 0.16853 0.34662 0.04072 0.0
H160 H 0.10432 0.42472 0.93924 0.0
O161 O 0.1746 0.38835 0.8796 0.0
O162 O 0.13594 0.39256 0.87207 0.0
O163 O 0.18169 0.42226 0.09486 0.0
O164 O 0.14329 0.42748 0.07665 0.0
C165 C 0.15558 0.39075 0.81888 0.0
H166 H 0.0526 0.37894 0.21012 0.0
H167 H 0.06226 0.43559 0.95161 0.0
H168 H 0.24969 0.41048 0.87618 0.0
H169 H 0.23846 0.33253 0.90265 0.0
C170 C 0.92854 0.90695 0.3673 0.0
N171 N 0.92789 0.84905 0.12539 0.0
C172 C 0.94319 0.83692 0.19695 0.0
C173 C 0.93936 0.81212 0.21862 0.0
C174 C 0.91923 0.79989 0.16865 0.0
C175 C 0.90445 0.81279 0.09083 0.0
C176 C 0.90935 0.83728 0.069 0.0
Zn177 Zn 0.9286 0.88604 0.12074 0.0
C178 C 0.87825 0.90454 0.13456 0.0
N179 N 0.92587 0.96274 0.12032 0.0
C180 C 0.94259 0.97515 0.18725 0.0
C181 C 0.91244 0.97408 0.03739 0.0
C182 C 0.91634 0.99872 0.01539 0.0
C183 C 0.93421 1.01173 0.07941 0.0
C184 C 0.94709 0.99985 0.1681 0.0
Zn185 Zn 0.92486 0.92604 0.12489 0.0
O186 O 0.93072 0.88722 0.30834 0.0
C187 C 0.97499 0.90924 0.11148 0.0
O188 O 0.92594 0.92685 0.31247 0.0
H189 H 0.89929 0.96379 -0.01473 0.0
H190 H 0.95778 0.84671 0.24124 0.0
H191 H 0.95318 0.96564 0.25204 0.0
O192 O 0.96637 0.88758 0.11008 0.0
O193 O 0.96121 0.92709 0.11993 0.0
H194 H 0.89745 0.84724 0.01201 0.0
O195 O 0.92383 0.92481 0.93717 0.0
O196 O 0.92648 0.88497 0.93325 0.0
O197 O 0.88826 0.9254 0.12947 0.0
O198 O 0.89083 0.88553 0.13205 0.0
C199 C 0.92495 0.90497 0.8783 0.0
H200 H 0.95174 0.80291 0.27635 0.0
H201 H 0.88852 0.80457 0.05106 0.0
H202 H 0.90553 1.00748 0.94868 0.0
H203 H 0.96089 1.00936 0.21972 0.0
C204 C 0.38977 0.65302 0.05966 0.0
N205 N 0.38613 0.71735 0.30425 0.0
C206 C 0.40289 0.73213 0.25265 0.0
C207 C 0.40078 0.75814 0.24979 0.0
C208 C 0.3811 0.77033 0.29963 0.0
C209 C 0.36409 0.7545 0.35196 0.0
C210 C 0.36692 0.72856 0.35359 0.0
Zn211 Zn 0.38925 0.67569 0.30457 0.0
C212 C 0.33677 0.64936 0.30466 0.0
N213 N 0.39368 0.58932 0.30314 0.0
C214 C 0.41268 0.57715 0.25723 0.0
C215 C 0.37583 0.57539 0.35125 0.0
C216 C 0.37656 0.54928 0.35375 0.0
C217 C 0.39591 0.53608 0.30713 0.0
C218 C 0.41414 0.55105 0.25865 0.0
Zn219 Zn 0.39155 0.63106 0.30246 0.0
O220 O 0.38878 0.67328 0.11727 0.0
C221 C 0.44428 0.6574 0.30237 0.0
O222 O 0.39089 0.63274 0.11451 0.0
H223 H 0.36071 0.58443 0.38903 0.0
H224 H 0.41813 0.72383 0.21212 0.0
H225 H 0.42702 0.58761 0.21852 0.0
O226 O 0.43118 0.67669 0.30389 0.0
O227 O 0.43303 0.63648 0.30208 0.0
H228 H 0.35341 0.71742 0.39505 0.0
O229 O 0.392 0.63347 0.48974 0.0
O230 O 0.38991 0.674 0.49251 0.0
O231 O 0.34985 0.63011 0.30303 0.0
O232 O 0.34797 0.67026 0.305 0.0
C233 C 0.39101 0.65373 0.54736 0.0
H234 H 0.41456 0.76854 0.20622 0.0
H235 H 0.3486 0.76202 0.39362 0.0
H236 H 0.36194 0.53961 0.39443 0.0
H237 H 0.42953 0.54272 0.21973 0.0
C238 C 0.69301 0.12119 0.08602 0.0
N239 N 0.63508 0.11553 0.3128 0.0
C240 C 0.6252 0.13175 0.23731 0.0
C241 C 0.60062 0.13398 0.2297 0.0
C242 C 0.5861 0.11952 0.30114 0.0
C243 C 0.59666 0.1023 0.37543 0.0
C244 C 0.62142 0.10056 0.37971 0.0
Zn245 Zn 0.6709 0.11658 0.33084 0.0
C246 C 0.69204 0.06815 0.30427 0.0
N247 N 0.74603 0.12126 0.35774 0.0
C248 C 0.75707 0.14345 0.34882 0.0
C249 C 0.75399 0.10447 0.43603 0.0
C250 C 0.77009 0.11149 0.52531 0.0
C251 C 0.77842 0.13577 0.53142 0.0
C252 C 0.77341 0.15123 0.43636 0.0
Zn253 Zn 0.71018 0.11947 0.32852 0.0
O254 O 0.67381 0.11951 0.14366 0.0
C255 C 0.68767 0.16776 0.36231 0.0
O256 O 0.71287 0.12225 0.14224 0.0
H257 H 0.745 0.08697 0.44323 0.0
H258 H 0.63642 0.14368 0.18599 0.0
H259 H 0.75084 0.15638 0.28446 0.0
O260 O 0.66924 0.15419 0.35428 0.0
O261 O 0.70805 0.15853 0.34918 0.0
H262 H 0.62974 0.0878 0.43891 0.0
O263 O 0.70729 0.1169 0.51564 0.0
O264 O 0.66847 0.1136 0.51765 0.0
O265 O 0.71132 0.08063 0.30938 0.0
O266 O 0.67228 0.0789 0.3115 0.0
C267 C 0.68825 0.11502 0.57372 0.0
H268 H 0.59315 0.1477 0.17263 0.0
H269 H 0.58593 0.09071 0.43114 0.0
H270 H 0.77363 0.09884 0.59587 0.0
H271 H 0.78037 0.16982 0.4352 0.0
C272 C 0.85398 0.45384 0.8779 0.0
N273 N 0.79632 0.45598 0.10217 0.0
C274 C 0.7873 0.46763 0.00644 0.0
C275 C 0.76823 0.45712 0.94123 0.0
C276 C 0.75859 0.43427 -0.0259 0.0
C277 C 0.76596 0.42491 0.08392 0.0
C278 C 0.78451 0.43648 0.1482 0.0
Zn279 Zn 0.83283 0.45495 0.12137 0.0
C280 C 0.84677 0.40251 0.10282 0.0
N281 N 0.9076 0.44505 0.13169 0.0
C282 C 0.92184 0.45852 0.06047 0.0
C283 C 0.91664 0.42764 0.2033 0.0
C284 C 0.94085 0.42259 0.20196 0.0
C285 C 0.95583 0.43558 0.12609 0.0
C286 C 0.94616 0.45405 0.05626 0.0
Zn287 Zn 0.87188 0.44912 0.12283 0.0
O288 O 0.83497 0.457 0.93457 0.0
C289 C 0.85929 0.50152 0.14563 0.0
O290 O 0.87322 0.45025 0.93511 0.0
H291 H 0.90494 0.41711 0.25887 0.0
H292 H 0.79679 0.48323 0.9713 0.0
H293 H 0.91422 0.47232 0.00462 0.0
O294 O 0.83775 0.49358 0.13991 0.0
O295 O 0.87626 0.4867 0.13582 0.0
H296 H 0.79189 0.42743 0.22452 0.0
O297 O 0.8701 0.448 0.30963 0.0
O298 O 0.83131 0.45275 0.30863 0.0
O299 O 0.86763 0.41154 0.11126 0.0
O300 O 0.82917 0.41656 0.10414 0.0
C301 C 0.85081 0.45013 0.36592 0.0
H302 H 0.76241 0.46601 0.86128 0.0
H303 H 0.75927 0.40758 0.11545 0.0
H304 H 0.94758 0.40804 0.25632 0.0
H305 H 0.95722 0.4647 -0.00215 0.0
C306 C 0.38418 0.15272 0.5695 0.0
N307 N 0.3269 0.15439 0.34255 0.0
C308 C 0.31886 0.13613 0.41273 0.0
C309 C 0.29673 0.13722 0.46391 0.0
C310 C 0.28236 0.15741 0.44446 0.0
C311 C 0.29034 0.17559 0.36683 0.0
C312 C 0.31293 0.17371 0.31638 0.0
Zn313 Zn 0.36296 0.15378 0.32139 0.0
C314 C 0.38614 0.20664 0.32913 0.0
N315 N 0.43777 0.14919 0.32446 0.0
C316 C 0.44746 0.13252 0.39813 0.0
C317 C 0.45136 0.16213 0.2482 0.0
C318 C 0.47583 0.15819 0.24318 0.0
C319 C 0.48616 0.14081 0.31751 0.0
C320 C 0.47168 0.12801 0.39604 0.0
Zn321 Zn 0.40205 0.15193 0.32816 0.0
O322 O 0.36503 0.15308 0.50899 0.0
C323 C 0.3795 0.09905 0.31607 0.0
O324 O 0.40382 0.15239 0.51599 0.0
H325 H 0.44316 0.17522 0.19028 0.0
H326 H 0.33038 0.12166 0.43976 0.0
H327 H 0.43628 0.12227 0.45728 0.0
O328 O 0.361 0.11221 0.31025 0.0
O329 O 0.39948 0.11054 0.32551 0.0
H330 H 0.31983 0.18839 0.26303 0.0
O331 O 0.40002 0.15166 0.14069 0.0
O332 O 0.361 0.15464 0.1344 0.0
O333 O 0.40469 0.1933 0.32922 0.0
O334 O 0.36588 0.19533 0.32822 0.0
C335 C 0.38072 0.15316 0.08079 0.0
H336 H 0.29188 0.12316 0.52593 0.0
H337 H 0.27974 0.19149 0.34929 0.0
H338 H 0.48652 0.16857 0.18211 0.0
H339 H 0.47887 0.11419 0.45338 0.0
C340 C 0.60853 0.66212 0.5383 0.0
N341 N 0.6051 0.60526 0.29715 0.0
C342 C 0.6198 0.59462 0.37685 0.0
C343 C 0.61534 0.57087 0.41114 0.0
C344 C 0.59569 0.55798 0.36224 0.0
C345 C 0.58176 0.56859 0.27372 0.0
C346 C 0.58674 0.5927 0.2427 0.0
Zn347 Zn 0.6077 0.64159 0.29056 0.0
C348 C 0.5542 0.66282 0.29452 0.0
N349 N 0.61308 0.71812 0.2974 0.0
C350 C 0.62992 0.72707 0.37524 0.0
C351 C 0.60312 0.73249 0.21373 0.0
C352 C 0.61082 0.75678 0.20361 0.0
C353 C 0.62895 0.76607 0.28004 0.0
C354 C 0.63807 0.75108 0.36839 0.0
Zn355 Zn 0.60878 0.68137 0.29654 0.0
O356 O 0.60838 0.64234 0.4788 0.0
C357 C 0.66229 0.65934 0.29231 0.0
O358 O 0.60861 0.68216 0.4838 0.0
H359 H 0.59005 0.72483 0.15161 0.0
H360 H 0.63413 0.60507 0.41945 0.0
H361 H 0.63799 0.71527 0.43963 0.0
O362 O 0.64926 0.63979 0.28773 0.0
O363 O 0.65063 0.6793 0.29771 0.0
H364 H 0.57528 0.60175 0.17997 0.0
O365 O 0.60867 0.6806 0.10872 0.0
O366 O 0.60687 0.64058 0.10388 0.0
O367 O 0.56673 0.68285 0.29506 0.0
O368 O 0.56635 0.64316 0.29288 0.0
C369 C 0.60771 0.6607 0.04945 0.0
H370 H 0.62682 0.56279 0.47733 0.0
H371 H 0.56675 0.55876 0.2331 0.0
H372 H 0.60337 0.76785 0.13407 0.0
H373 H 0.6517 0.7577 0.4305 0.0
C374 C 0.12341 0.9409 0.81979 0.0
N375 N 0.11298 0.998 0.05823 0.0
C376 C 0.12679 1.01173 -0.0136 0.0
C377 C 0.12021 0.03532 0.95812 0.0
C378 C 0.09899 0.04478 0.0027 0.0
C379 C 0.08562 0.03059 0.08094 0.0
C380 C 0.09304 1.00711 0.10802 0.0
Zn381 Zn 0.11984 0.96198 0.06885 0.0
C382 C 0.0742 0.93195 0.05331 0.0
N383 N 0.13024 0.8869 0.06882 0.0
C384 C 0.14885 0.87731 0.00983 0.0
C385 C 0.11773 0.87387 0.14893 0.0
C386 C 0.12487 0.8507 0.17888 0.0
C387 C 0.14506 0.84109 0.12584 0.0
C388 C 0.15668 0.85415 0.03739 0.0
Zn389 Zn 0.12398 0.92234 0.05918 0.0
O390 O 0.12141 0.96047 0.88026 0.0
C391 C 0.1702 0.94947 0.08412 0.0
O392 O 0.12516 0.92076 0.87311 0.0
H393 H 0.10298 0.88196 0.19449 0.0
H394 H 0.14245 1.00403 0.94722 0.0
H395 H 0.15846 0.88817 0.9466 0.0
O396 O 0.15789 0.96878 0.08456 0.0
O397 O 0.15977 0.929 0.07009 0.0
H398 H 0.08232 0.99581 0.16486 0.0
O399 O 0.12287 0.92407 0.24805 0.0
O400 O 0.1182 0.96365 0.25479 0.0
O401 O 0.08854 0.91457 0.04987 0.0
O402 O 0.08223 0.95383 0.05877 0.0
C403 C 0.12042 0.94359 0.30833 0.0
H404 H 0.1315 0.04589 0.90054 0.0
H405 H 0.06921 0.03718 0.11762 0.0
H406 H 0.11522 0.84073 0.24554 0.0
H407 H 0.1723 0.84709 -0.0053 0.0
C408 C 0.89018 0.65067 0.52855 0.0
N409 N 0.82528 0.65635 0.28224 0.0
C410 C 0.81116 0.63739 0.23779 0.0
C411 C 0.78547 0.63762 0.23872 0.0
C412 C 0.77245 0.65759 0.28531 0.0
C413 C 0.78759 0.67697 0.32981 0.0
C414 C 0.8133 0.67599 0.3279 0.0
Zn415 Zn 0.86746 0.65372 0.28316 0.0
C416 C 0.89583 0.70046 0.28634 0.0
N417 N 0.9552 0.64534 0.28915 0.0
C418 C 0.96731 0.62476 0.32182 0.0
C419 C 0.96933 0.66506 0.25866 0.0
C420 C 0.99506 0.66464 0.2607 0.0
C421 C 1.00824 0.64372 0.29415 0.0
C422 C 0.99308 0.6236 0.32454 0.0
Zn423 Zn 0.91268 0.64817 0.28659 0.0
O424 O 0.87052 0.65355 0.47104 0.0
C425 C 0.88327 0.60145 0.27279 0.0
O426 O 0.90988 0.64782 0.47416 0.0
H427 H 0.96078 0.68169 0.23194 0.0
H428 H 0.81968 0.62155 0.2007 0.0
H429 H 0.95712 0.60875 0.34707 0.0
O430 O 0.86578 0.61598 0.27958 0.0
O431 O 0.90499 0.60953 0.27618 0.0
H432 H 0.82357 0.6913 0.36464 0.0
O433 O 0.90975 0.64927 0.09878 0.0
O434 O 0.87012 0.65317 0.0955 0.0
O435 O 0.914 0.68668 0.29226 0.0
O436 O 0.87444 0.69173 0.28219 0.0
C437 C 0.88996 0.65126 0.04121 0.0
H438 H 0.77594 0.62195 0.20103 0.0
H439 H 0.77975 0.69303 0.36854 0.0
H440 H 1.00449 0.68102 0.23426 0.0
H441 H 1.00094 0.60671 0.35242 0.0
C442 C 0.10665 0.19254 0.65801 0.0
N443 N 0.16101 0.17316 0.88045 0.0
C444 C 0.16177 0.1548 0.79823 0.0
C445 C 0.1825 0.15041 0.73735 0.0
C446 C 0.20297 0.16481 0.76143 0.0
C447 C 0.20245 0.18205 0.8549 0.0
C448 C 0.18106 0.18603 0.91349 0.0
Zn449 Zn 0.12766 0.18633 0.90523 0.0
C450 C 0.12551 0.2385 0.91077 0.0
N451 N 0.05706 0.21128 0.91149 0.0
C452 C 0.03931 0.2041 0.83483 0.0
C453 C 0.05377 0.22911 -0.00546 0.0
C454 C 1.0317 0.24003 0.00507 0.0
C455 C 1.01302 0.23271 0.92831 0.0
C456 C 1.01702 0.21472 0.84144 0.0
Zn457 Zn 0.08976 0.19672 0.89973 0.0
O458 O 0.1252 0.18803 0.71839 0.0
C459 C 0.09141 0.14458 0.9011 0.0
O460 O 0.0875 0.19712 0.71154 0.0
H461 H 0.06826 0.23482 0.05347 0.0
H462 H 0.14569 0.14526 0.7691 0.0
H463 H 0.04239 0.18995 0.76948 0.0
O464 O 0.1133 0.15068 0.90158 0.0
O465 O 0.07557 0.16079 0.90114 0.0
H466 H 0.1801 0.20073 -0.0219 0.0
O467 O 0.09251 0.19601 0.08681 0.0
O468 O 0.12992 0.18492 0.09285 0.0
O469 O 0.10372 0.23226 0.90156 0.0
O470 O 0.14122 0.22221 0.91268 0.0
C471 C 0.11096 0.19051 0.14664 0.0
H472 H 0.18168 0.13723 0.66504 0.0
H473 H 0.21799 0.19322 0.87826 0.0
H474 H 1.02914 0.25373 0.07351 0.0
H475 H 1.0028 0.20821 0.78246 0.0
C476 C 0.6514 0.36999 0.3594 0.0
N477 N 0.6328 0.423 0.60216 0.0
C478 C 0.64393 0.43782 0.52443 0.0
C479 C 0.6333 0.45921 0.48942 0.0
C480 C 0.61117 0.46535 0.53567 0.0
C481 C 0.60109 0.451 0.62388 0.0
C482 C 0.61232 0.42955 0.65598 0.0
Zn483 Zn 0.64295 0.38817 0.60344 0.0
C484 C 0.59891 0.35766 0.55337 0.0
N485 N 0.65961 0.31344 0.59398 0.0
C486 C 0.6817 0.30883 0.55208 0.0
C487 C 0.64363 0.29499 0.61235 0.0
C488 C 0.64923 0.27096 0.58272 0.0
C489 C 0.67172 0.2657 0.53592 0.0
C490 C 0.68826 0.28504 0.52419 0.0
Zn491 Zn 0.64953 0.34902 0.60348 0.0
O492 O 0.64537 0.38897 0.41602 0.0
C493 C 0.69244 0.38313 0.65879 0.0
O494 O 0.65636 0.35099 0.41725 0.0
H495 H 0.62611 0.29901 0.6448 0.0
H496 H 0.66019 0.43218 0.48298 0.0
H497 H 0.69401 0.32373 0.53523 0.0
O498 O 0.67808 0.39921 0.62536 0.0
O499 O 0.68564 0.36075 0.65745 0.0
H500 H 0.60382 0.41731 0.71723 0.0
O501 O 0.64284 0.34688 0.78868 0.0
O502 O 0.64044 0.38689 0.79112 0.0
O503 O 0.61243 0.33923 0.55456 0.0
O504 O 0.60773 0.37838 0.58094 0.0
C505 C 0.64122 0.36688 0.84697 0.0
H506 H 0.64189 0.47044 0.42385 0.0
H507 H 0.58421 0.45563 0.66251 0.0
H508 H 0.6356 0.2569 0.59182 0.0
H509 H 0.70596 0.28201 0.49115 0.0
C510 C 0.37284 0.93487 0.05057 0.0
N511 N 0.31649 0.9371 0.27805 0.0
C512 C 0.3093 0.95505 0.20397 0.0
C513 C 0.28531 0.95892 0.18217 0.0
C514 C 0.26836 0.94386 0.23488 0.0
C515 C 0.276 0.92543 0.31155 0.0
C516 C 0.30042 0.92244 0.33282 0.0
Zn517 Zn 0.35252 0.93484 0.29448 0.0
C518 C 0.37227 0.88101 0.29279 0.0
N519 N 0.42668 0.9367 0.30142 0.0
C520 C 0.43739 0.953 0.229 0.0
C521 C 0.43931 0.92275 0.37732 0.0
C522 C 0.46402 0.92493 0.38187 0.0
C523 C 0.47544 0.9416 0.3075 0.0
C524 C 0.46192 0.95582 0.23086 0.0
Zn525 Zn 0.39138 0.93549 0.29587 0.0
O526 O 0.35356 0.93462 0.10695 0.0
C527 C 0.37364 0.98903 0.30175 0.0
O528 O 0.39239 0.93518 0.10823 0.0
H529 H 0.4302 0.91001 0.43405 0.0
H530 H 0.32221 0.96621 0.15877 0.0
H531 H 0.42689 0.96399 0.16994 0.0
O532 O 0.35397 0.97685 0.30065 0.0
O533 O 0.3925 0.97648 0.29988 0.0
H534 H 0.30653 0.90829 0.39111 0.0
O535 O 0.39038 0.93564 0.48303 0.0
O536 O 0.35128 0.9348 0.4814 0.0
O537 O 0.39124 0.89438 0.29368 0.0
O538 O 0.35236 0.89241 0.29191 0.0
C539 C 0.37094 0.93522 0.53905 0.0
H540 H 0.28012 0.97289 0.12044 0.0
H541 H 0.26325 0.91335 0.35312 0.0
H542 H 0.47409 0.91345 0.44094 0.0
H543 H 0.47022 0.96898 0.17313 0.0
C544 C 0.17296 0.61998 0.87036 0.0
C545 C 0.173 0.64222 0.93423 0.0
H546 H 0.17306 0.60233 0.7003 0.0
C547 C 0.1732 0.66423 0.87189 0.0
H548 H 0.17283 0.60269 0.91573 0.0
C549 C 0.17334 0.66401 0.74835 0.0
C550 C 0.1733 0.64178 0.68445 0.0
H551 H 0.17326 0.68167 0.91844 0.0
H552 H 0.17348 0.68131 0.70302 0.0
C553 C 0.1731 0.61977 0.74682 0.0
C554 C 0.69778 0.90947 0.83918 0.0
C555 C 0.67655 0.91416 0.89903 0.0
H556 H 0.71485 0.90566 0.67231 0.0
C557 C 0.65576 0.91869 0.83268 0.0
H558 H 0.71413 0.9059 0.88767 0.0
C559 C 0.65618 0.91853 0.70919 0.0
C560 C 0.67741 0.91385 0.64934 0.0
H561 H 0.63912 0.92236 0.87605 0.0
H562 H 0.63983 0.92208 0.6607 0.0
C563 C 0.69821 0.90932 0.71568 0.0
C564 C 0.37465 0.37073 0.88022 0.0
C565 C 0.39617 0.36993 0.94548 0.0
H566 H 0.35784 0.37204 0.70917 0.0
C567 C 0.41777 0.36988 0.88438 0.0
H568 H 0.35768 0.37083 0.92446 0.0
C569 C 0.41786 0.37063 0.76093 0.0
C570 C 0.39635 0.37145 0.69572 0.0
H571 H 0.43466 0.36932 0.93185 0.0
H572 H 0.43482 0.37053 0.71668 0.0
C573 C 0.37473 0.37149 0.75673 0.0
C574 C 0.86366 0.22289 0.51475 0.0
C575 C 0.87511 0.20395 0.57495 0.0
H576 H 0.85321 0.23762 0.34774 0.0
C577 C 0.88487 0.1848 0.50885 0.0
H578 H 0.85585 0.23789 0.56299 0.0
C579 C 0.88323 0.18461 0.38535 0.0
C580 C 0.87181 0.20358 0.32517 0.0
H581 H 0.89369 0.16988 0.5524 0.0
H582 H 0.89104 0.16961 0.33707 0.0
C583 C 0.86203 0.22271 0.39128 0.0
C584 C 0.13584 0.38951 0.49622 0.0
C585 C 0.15732 0.38491 0.43815 0.0
H586 H 0.11845 0.39524 0.66115 0.0
C587 C 0.17829 0.38266 0.50649 0.0
H588 H 0.11934 0.39147 0.44644 0.0
C589 C 0.17777 0.38497 0.62986 0.0
C590 C 0.15628 0.38961 0.68781 0.0
H591 H 0.19516 0.37925 0.46481 0.0
H592 H 0.1942 0.38289 0.67991 0.0
C593 C 0.13532 0.39182 0.61947 0.0
C594 C 0.92817 0.88369 0.68147 0.0
C595 C 0.92548 0.90537 0.74748 0.0
H596 H 0.93143 0.86719 0.51001 0.0
C597 C 0.92407 0.92763 0.68742 0.0
H598 H 0.9294 0.86625 0.72498 0.0
C599 C 0.9253 0.92819 0.56415 0.0
C600 C 0.92801 0.90651 0.49813 0.0
H601 H 0.92207 0.9447 0.73558 0.0
H602 H 0.92407 0.94563 0.52068 0.0
C603 C 0.92944 0.88425 0.55819 0.0
C604 C 0.38942 0.67553 0.74381 0.0
C605 C 0.39082 0.65358 0.67845 0.0
H606 H 0.38795 0.69259 0.91481 0.0
C607 C 0.39177 0.63142 0.73965 0.0
H608 H 0.38863 0.69292 0.69964 0.0
C609 C 0.39134 0.63122 0.86321 0.0
C610 C 0.38995 0.65316 0.92856 0.0
H611 H 0.39282 0.61416 0.69221 0.0
H612 H 0.39213 0.61382 0.90738 0.0
C613 C 0.389 0.67532 0.86736 0.0
C614 C 0.71158 0.11853 0.76473 0.0
C615 C 0.68941 0.1161 0.70487 0.0
H616 H 0.73015 0.12227 0.93135 0.0
C617 C 0.66853 0.11588 0.77141 0.0
H618 H 0.72806 0.11894 0.71623 0.0
C619 C 0.66976 0.11796 0.89481 0.0
C620 C 0.69192 0.12031 0.95476 0.0
H621 H 0.65119 0.11421 0.72823 0.0
H622 H 0.65328 0.11759 0.94323 0.0
C623 C 0.71281 0.1206 0.88818 0.0
C624 C 0.83061 0.45433 0.5613 0.0
C625 C 0.85145 0.45061 0.49697 0.0
H626 H 0.81508 0.45843 0.7317 0.0
C627 C 0.8732 0.44818 0.55908 0.0
H628 H 0.81358 0.45634 0.51629 0.0
C629 C 0.8741 0.44948 0.68261 0.0
C630 C 0.85327 0.45325 0.74691 0.0
H631 H 0.88963 0.44536 0.51231 0.0
H632 H 0.89112 0.44746 0.72762 0.0
C633 C 0.83151 0.45564 0.68486 0.0
C634 C 0.36044 0.15389 0.88141 0.0
C635 C 0.3815 0.1531 0.94994 0.0
H636 H 0.34477 0.15433 0.70776 0.0
C637 C 0.40349 0.15215 0.89218 0.0
H638 H 0.34322 0.15461 0.92301 0.0
C639 C 0.40441 0.15202 0.76877 0.0
C640 C 0.38335 0.1528 0.70026 0.0
H641 H 0.42008 0.15153 0.94227 0.0
H642 H 0.42162 0.15129 0.72715 0.0
C643 C 0.36135 0.15372 0.75794 0.0
C644 C 0.60732 0.63909 0.85249 0.0
C645 C 0.60781 0.66103 0.91866 0.0
H646 H 0.60722 0.62222 0.68064 0.0
C647 C 0.60858 0.68334 0.85864 0.0
H648 H 0.60674 0.6216 0.89598 0.0
C649 C 0.60886 0.6837 0.73518 0.0
C650 C 0.60838 0.66176 0.66903 0.0
H651 H 0.60899 0.70057 0.90696 0.0
H652 H 0.60945 0.70119 0.69168 0.0
C653 C 0.60762 0.63945 0.72901 0.0
C654 C 0.1237 0.92064 0.49784 0.0
C655 C 0.12091 0.94291 0.43918 0.0
H656 H 0.12678 0.90253 0.66369 0.0
C657 C 0.11915 0.96452 0.50679 0.0
H658 H 0.12516 0.90365 0.44842 0.0
C659 C 0.12016 0.96388 0.63029 0.0
C660 C 0.12294 0.9416 0.68894 0.0
H661 H 0.11706 0.98198 0.4644 0.0
H662 H 0.11869 0.98086 0.67972 0.0
C663 C 0.12469 0.91999 0.62132 0.0
C664 C 0.91141 0.64853 0.84865 0.0
C665 C 0.89002 0.65119 0.91006 0.0
H666 H 0.92829 0.64624 0.68074 0.0
C667 C 0.86868 0.65365 0.84478 0.0
H668 H 0.92819 0.64658 0.89597 0.0
C669 C 0.86873 0.65346 0.72114 0.0
C670 C 0.89013 0.65078 0.65973 0.0
H671 H 0.85186 0.65573 0.88905 0.0
H672 H 0.85196 0.65541 0.67382 0.0
C673 C 0.91147 0.64831 0.72501 0.0
C674 C 0.12894 0.18598 0.47038 0.0
C675 C 0.10767 0.1921 0.5272 0.0
H676 H 0.14671 0.18062 0.30607 0.0
C677 C 0.08758 0.19759 0.4578 0.0
H678 H 0.14478 0.18159 0.52123 0.0
C679 C 0.08873 0.19702 0.33443 0.0
C680 C 0.10999 0.1909 0.27753 0.0
H681 H 0.07095 0.20235 0.49868 0.0
H682 H 0.07288 0.20141 0.28368 0.0
C683 C 0.13008 0.18538 0.34695 0.0
C684 C 0.65205 0.34712 0.16454 0.0
C685 C 0.64993 0.36928 0.22786 0.0
H686 H 0.65052 0.32883 -0.00452 0.0
C687 C 0.64436 0.39044 0.1648 0.0
H688 H 0.6561 0.33041 0.21023 0.0
C689 C 0.64098 0.38949 0.04187 0.0
C690 C 0.64295 0.36733 -0.02151 0.0
H691 H 0.64241 0.40779 0.21053 0.0
H692 H 0.63692 0.40623 -0.00355 0.0
C693 C 0.64856 0.34615 0.04142 0.0
C694 C 0.35056 0.93468 0.85678 0.0
C695 C 0.37239 0.9349 0.91974 0.0
H696 H 0.33295 0.93461 0.68742 0.0
C697 C 0.39371 0.93525 0.85646 0.0
H698 H 0.3338 0.93445 0.90289 0.0
C699 C 0.3932 0.93536 0.73291 0.0
C700 C 0.37137 0.93514 0.66991 0.0
H701 H 0.41082 0.93544 0.90228 0.0
H702 H 0.40997 0.93561 0.68686 0.0
C703 C 0.35005 0.93479 0.73322 0.0
C704 C 0.1636 0.79072 0.32699 0.0
C705 C 0.16892 0.77241 0.24446 0.0
H706 H 0.15209 0.82733 0.35295 0.0
C707 C 0.16783 0.77728 0.12289 0.0
H708 H 0.16452 0.7873 0.42105 0.0
C709 C 0.16065 0.79993 0.08411 0.0
C710 C 0.1544 0.8179 0.16644 0.0
H711 H 0.17143 0.76323 0.05752 0.0
H712 H 0.15906 0.80305 -0.01005 0.0
C713 C 0.15642 0.81341 0.28811 0.0
C714 C 0.53952 0.94369 0.40765 0.0
C715 C 0.55102 0.94232 0.29862 0.0
H716 H 0.50615 0.94471 0.49574 0.0
C717 C 0.53767 0.94268 0.19292 0.0
H718 H 0.54963 0.9437 0.49013 0.0
C719 C 0.51301 0.94316 0.19616 0.0
C720 C 0.50144 0.94334 0.30513 0.0
H721 H 0.54621 0.94129 0.10795 0.0
H722 H 0.50297 0.94229 0.11349 0.0
C723 C 0.51481 0.94416 0.4109 0.0
C724 C 0.41231 0.27363 0.32747 0.0
C725 C 0.39197 0.28859 0.32647 0.0
H726 H 0.42673 0.23725 0.32912 0.0
C727 C 0.36967 0.27593 0.32683 0.0
H728 H 0.4299 0.2821 0.3272 0.0
C729 C 0.36782 0.24988 0.328 0.0
C730 C 0.38815 0.23491 0.3289 0.0
H731 H 0.35339 0.28623 0.32609 0.0
H732 H 0.35022 0.24144 0.32801 0.0
C733 C 0.41046 0.24756 0.32864 0.0
C734 C 0.95404 0.23771 0.07257 0.0
C735 C 0.93923 0.24068 -0.02681 0.0
H736 H 0.98972 0.23336 0.1359 0.0
C737 C 0.94914 0.24694 0.8647 0.0
H738 H 0.94656 0.23241 0.15634 0.0
C739 C 0.97381 0.24699 0.85205 0.0
C740 C 0.9886 0.241 0.9483 0.0
H741 H 0.93786 0.24882 0.78674 0.0
H742 H 0.98117 0.24947 0.76501 0.0
C743 C 0.97868 0.23811 0.06048 0.0
C744 C 0.16062 0.29603 -0.00916 0.0
C745 C 0.14217 0.3129 0.00054 0.0
H746 H 0.16984 0.25896 0.95315 0.0
C747 C 0.11864 0.30539 -0.02589 0.0
H748 H 0.17896 0.30145 0.00966 0.0
C749 C 0.11353 0.2814 0.94016 0.0
C750 C 0.1318 0.26432 0.93286 0.0
H751 H 0.10407 0.31803 -0.02068 0.0
H752 H 0.09509 0.27619 0.92205 0.0
C753 C 0.15545 0.27182 0.9575 0.0
C754 C 0.0405 0.90174 0.05688 0.0
C755 C 0.04866 0.92625 0.06156 0.0
H756 H 1.01068 0.87699 0.07036 0.0
C757 C 1.03252 0.94486 0.08297 0.0
H758 H 0.05264 0.88695 0.04088 0.0
C759 C 1.00867 0.93909 0.10078 0.0
C760 C 1.00047 0.91459 0.09711 0.0
H761 H 0.03834 0.96383 0.08795 0.0
H762 H 0.99665 0.95396 0.11757 0.0
C763 C 1.01656 0.89595 0.07458 0.0
C764 C 0.35609 0.81056 0.30297 0.0
C765 C 0.3785 0.79881 0.29747 0.0
H766 H 0.33627 0.84424 0.30492 0.0
C767 C 0.39849 0.81499 0.29004 0.0
H768 H 0.33991 0.79961 0.30748 0.0
C769 C 0.3963 0.84094 0.28852 0.0
C770 C 0.37398 0.85264 0.29363 0.0
H771 H 0.41624 0.80768 0.28729 0.0
H772 H 0.41246 0.85197 0.28348 0.0
C773 C 0.3539 0.83663 0.30074 0.0
C774 C 0.54895 0.12609 0.4134 0.0
C775 C 0.56029 0.12387 0.30433 0.0
H776 H 0.51675 0.13394 0.50303 0.0
C777 C 0.54719 0.12743 0.19928 0.0
H778 H 0.55878 0.12396 0.49574 0.0
C779 C 0.52312 0.13319 0.20336 0.0
C780 C 0.51181 0.13552 0.31258 0.0
H781 H 0.55555 0.12569 0.11402 0.0
H782 H 0.51331 0.13547 0.1211 0.0
C783 C 0.52495 0.13193 0.41751 0.0
C784 C 0.86041 0.33674 0.04664 0.0
C785 C 0.83778 0.32687 0.01828 0.0
H786 H 0.88093 0.36835 0.09726 0.0
C787 C 0.81761 0.34137 0.02798 0.0
H788 H 0.87613 0.32558 0.04197 0.0
C789 C 0.82033 0.36604 0.05968 0.0
C790 C 0.84321 0.37618 0.08278 0.0
H791 H 0.80001 0.33385 0.00739 0.0
H792 H 0.80466 0.37728 0.06277 0.0
C793 C 0.86313 0.36115 0.07876 0.0
C794 C 0.63155 0.83445 0.24851 0.0
C795 C 0.6561 0.83965 0.26337 0.0
H796 H 0.6038 0.80721 0.24283 0.0
C797 C 0.67187 0.82033 0.27754 0.0
H798 H 0.61886 0.84892 0.23673 0.0
C799 C 0.66311 0.79629 0.28031 0.0
C800 C 0.63846 0.79124 0.26871 0.0
H801 H 0.69085 0.8238 0.28846 0.0
H802 H 0.67559 0.78164 0.29227 0.0
C803 C 0.62284 0.81052 0.25106 0.0
C804 C 0.89363 0.73521 0.15168 0.0
C805 C 0.90001 0.72629 0.26279 0.0
H806 H 0.89601 0.76463 0.03153 0.0
C807 C 0.91288 0.74127 0.34327 0.0
H808 H 0.88429 0.72354 0.08723 0.0
C809 C 0.91893 0.76525 0.31351 0.0
C810 C 0.91299 0.77429 0.20083 0.0
H811 H 0.91821 0.73442 0.42895 0.0
H812 H 0.92813 0.77663 0.37935 0.0
C813 C 0.90037 0.75881 0.12017 0.0
C814 C 0.67057 0.19662 0.50542 0.0
C815 C 0.68514 0.19279 0.40764 0.0
H816 H 0.65603 0.22217 0.62669 0.0
C817 C 0.69652 0.21276 0.3555 0.0
H818 H 0.662 0.18132 0.54851 0.0
C819 C 0.69238 0.23648 0.39753 0.0
C820 C 0.67738 0.24048 0.49478 0.0
H821 H 0.70785 0.21011 0.27997 0.0
H822 H 0.70044 0.25162 0.35136 0.0
C823 C 0.66702 0.2201 0.54963 0.0
C824 C 0.99145 0.42722 0.00361 0.0
C825 C 0.98112 0.42901 0.11557 0.0
H826 H 1.02247 0.41872 0.90523 0.0
C827 C 0.99487 0.42372 0.21656 0.0
H828 H 0.98113 0.43072 0.92407 0.0
C829 C 1.01852 0.41677 0.20573 0.0
C830 C 1.02883 0.41498 0.09371 0.0
H831 H 0.98742 0.42519 0.30403 0.0
H832 H 1.02885 0.41317 0.28515 0.0
C833 C 1.01507 0.42027 -0.00721 0.0
C834 C 0.48573 0.68165 0.3006 0.0
C835 C 0.4725 0.65912 0.30049 0.0
H836 H 0.52006 0.70085 0.29894 0.0
C837 C 0.48704 0.63808 0.29812 0.0
H838 H 0.47611 0.6986 0.30223 0.0
C839 C 0.51271 0.63941 0.29611 0.0
C840 C 0.52598 0.66188 0.2963 0.0
H841 H 0.47852 0.62017 0.29776 0.0
H842 H 0.52226 0.62241 0.29442 0.0
C843 C 0.51147 0.68298 0.29861 0.0
C844 C 0.53608 0.33688 0.45416 0.0
C845 C 0.5262 0.35954 0.42405 0.0
H846 H 0.56705 0.31817 0.51998 0.0
C847 C 0.54076 0.38057 0.4312 0.0
H848 H 0.52523 0.32032 0.44933 0.0
C849 C 0.5641 0.37939 0.47251 0.0
C850 C 0.57396 0.35708 0.50732 0.0
H851 H 0.534 0.39818 0.40578 0.0
H852 H 0.57444 0.39631 0.47701 0.0
C853 C 0.55989 0.33564 0.49529 0.0
C854 C 0.07583 0.6205 0.30406 0.0
C855 C 0.09057 0.64199 0.3025 0.0
H856 H 0.04056 0.60364 0.30234 0.0
C857 C 0.07742 0.66399 0.29838 0.0
H858 H 0.08426 0.6029 0.30704 0.0
C859 C 0.05169 0.6645 0.29567 0.0
C860 C 0.03677 0.64304 0.29724 0.0
H861 H 0.08712 0.68126 0.29726 0.0
H862 H 0.04357 0.68224 0.29365 0.0
C863 C 0.05005 0.621 0.30179 0.0
C864 C 0.19136 0.49595 0.20546 0.0
C865 C 0.17103 0.51034 0.2157 0.0
H866 H 0.20515 0.46108 0.15762 0.0
C867 C 0.14867 0.50058 0.18144 0.0
H868 H 0.20881 0.5032 0.23122 0.0
C869 C 0.1466 0.47673 0.13838 0.0
C870 C 0.16685 0.46216 0.12942 0.0
H871 H 0.13282 0.51153 0.186 0.0
H872 H 0.12904 0.46966 0.11349 0.0
C873 C 0.18929 0.47198 0.16279 0.0
C874 C 0.8153 0.92231 0.19508 0.0
C875 C 0.80414 0.89945 0.20978 0.0
H876 H 0.84742 0.94182 0.15781 0.0
C877 C 0.8171 0.87807 0.1925 0.0
H878 H 0.80547 0.93904 0.20526 0.0
C879 C 0.84119 0.87962 0.16466 0.0
C880 C 0.85249 0.90257 0.15298 0.0
H881 H 0.80875 0.86026 0.20297 0.0
H882 H 0.85102 0.8629 0.15448 0.0
C883 C 0.83924 0.92387 0.16674 0.0
C884 C 0.37673 0.46638 0.31356 0.0
C885 C 0.39839 0.45343 0.31287 0.0
H886 H 0.35869 0.50078 0.31119 0.0
C887 C 0.41936 0.46828 0.30993 0.0
H888 H 0.35997 0.45628 0.31543 0.0
C889 C 0.41864 0.49445 0.30755 0.0
C890 C 0.39691 0.50747 0.30883 0.0
H891 H 0.43656 0.45965 0.30941 0.0
H892 H 0.43543 0.50447 0.30647 0.0
C893 C 0.37601 0.49246 0.31189 0.0
C894 C 0.81671 0.14113 0.80937 0.0
C895 C 0.81297 0.16552 0.8443 0.0
H896 H 0.80991 0.11311 0.67933 0.0
C897 C 0.79549 0.17888 0.78475 0.0
H898 H 0.82997 0.13025 0.85378 0.0
C899 C 0.78394 0.16897 0.68451 0.0
C900 C 0.78966 0.14555 0.64203 0.0
H901 H 0.79207 0.19765 0.8097 0.0
H902 H 0.77102 0.17995 0.63834 0.0
C903 C 0.80538 0.13135 0.70843 0.0
C904 C 0.89532 0.55928 0.21331 0.0
C905 C 0.87757 0.57544 0.24752 0.0
H906 H 0.90337 0.5234 0.15162 0.0
C907 C 0.85361 0.56718 0.2461 0.0
H908 H 0.91386 0.56513 0.21215 0.0
C909 C 0.8475 0.54339 0.20994 0.0
C910 C 0.86523 0.52729 0.17496 0.0
H911 H 0.8394 0.57919 0.27167 0.0
H912 H 0.82895 0.53757 0.21064 0.0
C913 C 0.88921 0.53545 0.17736 0.0
C914 C 0.22917 0.14065 0.62816 0.0
C915 C 0.22361 0.16314 0.68141 0.0
H916 H 0.25065 0.12158 0.5054 0.0
C917 C 0.23664 0.1842 0.64963 0.0
H918 H 0.21977 0.12397 0.65091 0.0
C919 C 0.25507 0.18265 0.56832 0.0
C920 C 0.26063 0.16008 0.516 0.0
H921 H 0.2325 0.20194 0.6866 0.0
H922 H 0.26538 0.199 0.54925 0.0
C923 C 0.24707 0.13924 0.54503 0.0
C924 C 0.58959 0.52914 0.52534 0.0
C925 C 0.59083 0.53323 0.40327 0.0
H926 H 0.59503 0.50359 0.66406 0.0
C927 C 0.59304 0.51352 0.32448 0.0
H928 H 0.5877 0.54429 0.58701 0.0
C929 C 0.59728 0.49038 0.36841 0.0
C930 C 0.59923 0.48696 0.49105 0.0
H931 H 0.59401 0.51642 0.2301 0.0
H932 H 0.60112 0.47565 0.30697 0.0
C933 C 0.59373 0.50599 0.56926 0.0
C934 C 0.23194 0.9687 0.19559 0.0
C935 C 0.24313 0.94589 0.19883 0.0
H936 H 0.19981 0.98797 0.15589 0.0
C937 C 0.23074 0.92503 0.15735 0.0
H938 H 0.24136 0.98511 0.22621 0.0
C939 C 0.20752 0.92674 0.11467 0.0
C940 C 0.19588 0.94934 0.11415 0.0
H941 H 0.23918 0.90739 0.15594 0.0
H942 H 0.19856 0.91007 0.08409 0.0
C943 C 0.20835 0.9704 0.15428 0.0
C944 C 0.71167 1.00208 0.30291 0.0
C945 C 0.6899 0.99002 0.27608 0.0
H946 H 0.72955 0.03676 0.33323 0.0
C947 C 0.66963 1.00392 0.25199 0.0
H948 H 0.72756 0.99179 0.32146 0.0
C949 C 0.6707 0.02918 0.25916 0.0
C950 C 0.69211 0.04138 0.28998 0.0
H951 H 0.65259 0.99531 0.22912 0.0
H952 H 0.65455 0.03913 0.24165 0.0
C953 C 0.71278 0.02771 0.30967 0.0
C954 C 0.25043 0.3836 0.66264 0.0
C955 C 0.25639 0.36781 0.75526 0.0
H956 H 0.25821 0.39555 0.48797 0.0
C957 C 0.27287 0.34933 0.73492 0.0
H958 H 0.2372 0.39753 0.67433 0.0
C959 C 0.28459 0.34797 0.62703 0.0
C960 C 0.27992 0.36504 0.53819 0.0
H961 H 0.2776 0.33679 0.80429 0.0
H962 H 0.29856 0.33476 0.61653 0.0
C963 C 0.26211 0.38225 0.55527 0.0
C964 C 0.93974 0.05458 0.15237 0.0
C965 C 0.9383 0.03789 0.05713 0.0
H966 H 0.93686 0.09192 0.20709 0.0
C967 C 0.9378 0.04661 0.94083 0.0
H968 H 0.94023 0.04835 0.24282 0.0
C969 C 0.93589 0.07155 0.92055 0.0
C970 C 0.93444 0.08788 0.01647 0.0
H971 H 0.93726 0.03404 0.86591 0.0
H972 H 0.93327 0.07772 0.83076 0.0
C973 C 0.93783 0.07947 0.13205 0.0
C974 C 0.26992 0.62354 0.30839 0.0
C975 C 0.25538 0.64458 0.31122 0.0
H976 H 0.30531 0.60809 0.30426 0.0
C977 C 0.26846 0.66713 0.31169 0.0
H978 H 0.26141 0.60562 0.30767 0.0
C979 C 0.29409 0.66858 0.30953 0.0
C980 C 0.30866 0.64758 0.3067 0.0
H981 H 0.25879 0.68405 0.3136 0.0
H982 H 0.30254 0.68652 0.31011 0.0
C983 C 0.29561 0.62499 0.30628 0.0
C984 C 0.39697 0.03024 0.31076 0.0
C985 C 0.37488 0.01725 0.30532 0.0
H986 H 0.41588 0.065 0.3186 0.0
C987 C 0.35426 0.0318 0.30335 0.0
H988 H 0.41342 0.02022 0.3125 0.0
C989 C 0.35571 0.05788 0.30654 0.0
C990 C 0.37784 0.07084 0.31219 0.0
H991 H 0.33682 0.02301 0.29914 0.0
H992 H 0.33929 0.06794 0.30478 0.0
C993 C 0.39841 0.05626 0.31431 0.0
C994 C 0.72924 0.63661 0.27653 0.0
C995 C 0.74405 0.65808 0.28745 0.0
H996 H 0.69385 0.61978 0.27005 0.0
C997 C 0.73084 0.67999 0.30038 0.0
H998 H 0.73745 0.61899 0.26771 0.0
C999 C 0.70514 0.68039 0.30169 0.0
C1000 C 0.69048 0.65891 0.29094 0.0
H1001 H 0.74034 0.69732 0.30818 0.0
H1002 H 0.69668 0.6979 0.31133 0.0
C1003 C 0.70355 0.63701 0.27852 0.0
C1004 C 0.07884 0.11019 0.02458 0.0
C1005 C 0.08545 0.11877 0.91353 0.0
H1006 H 0.07847 0.07985 0.14147 0.0
C1007 C 0.09294 0.10233 0.82662 0.0
H1008 H 0.07358 0.12285 0.09348 0.0
C1009 C 0.0955 0.07776 0.8531 0.0
C1010 C 0.09132 0.06945 0.96816 0.0
H1011 H 0.09841 0.10881 0.74095 0.0
H1012 H 0.1021 0.06558 0.78535 0.0
C1013 C 0.08183 0.08563 0.05205 0.0
C1014 C 0.72899 0.40909 0.68916 0.0
C1015 C 0.71288 0.39166 0.73226 0.0
H1016 H 0.75668 0.43521 0.72929 0.0
C1017 C 0.71231 0.38759 0.85433 0.0
H1018 H 0.7293 0.41298 0.59553 0.0
C1019 C 0.7268 0.40148 0.93263 0.0
C1020 C 0.7428 0.41941 0.89061 0.0
H1021 H 0.69931 0.37494 0.89018 0.0
H1022 H 0.72463 0.39867 0.02628 0.0
C1023 C 0.74415 0.42238 0.76696 0.0
loop_
_geom_bond_atom_site_label_1
_geom_bond_atom_site_label_2
_geom_bond_distance
_geom_bond_site_symmetry_2
_ccdc_geom_bond_type
C0 O16 1.251 . S
C0 O18 1.254 . S
N1 C2 1.333 . S
N1 C6 1.307 . S
N1 Zn7 2.020 . S
C2 N1 1.333 . S
C2 C3 1.379 . S
C2 H20 0.952 . S
C3 C2 1.379 . S
C3 C4 1.390 . S
C3 H30 0.949 . S
C4 C3 1.390 . S
C4 C5 1.357 . S
C5 C4 1.357 . S
C5 C6 1.370 . S
C5 H31 0.950 . S
C6 N1 1.307 . S
C6 C5 1.370 . S
C6 H24 0.948 . S
Zn7 N1 2.020 . S
Zn7 O16 2.039 . S
Zn7 O22 2.034 . S
Zn7 O26 2.025 1_554 S
Zn7 O28 2.024 . S
C8 O27 1.246 . S
C8 O28 1.249 . S
N9 C10 1.307 . S
N9 C11 1.333 . S
N9 Zn15 2.020 . S
C10 N9 1.307 . S
C10 C14 1.370 . S
C10 H21 0.948 . S
C11 N9 1.333 . S
C11 C12 1.379 . S
C11 H19 0.952 1_554 S
C12 C11 1.379 . S
C12 C13 1.390 . S
C12 H32 0.949 1_554 S
C13 C12 1.390 . S
C13 C14 1.357 . S
C14 C10 1.370 . S
C14 C13 1.357 . S
C14 H33 0.950 . S
Zn15 N9 2.020 . S
Zn15 O18 2.025 . S
Zn15 O23 2.024 . S
Zn15 O25 2.039 1_554 S
Zn15 O27 2.034 . S
O16 C0 1.251 . S
O16 Zn7 2.039 . S
C17 O22 1.246 . S
C17 O23 1.249 . S
O18 C0 1.254 . S
O18 Zn15 2.025 . S
H19 C11 0.952 1_556 S
H20 C2 0.952 . S
H21 C10 0.948 . S
O22 Zn7 2.034 . S
O22 C17 1.246 . S
O23 Zn15 2.024 . S
O23 C17 1.249 . S
H24 C6 0.948 . S
O25 Zn15 2.039 1_556 S
O25 C29 1.251 . S
O26 Zn7 2.025 1_556 S
O26 C29 1.254 . S
O27 C8 1.246 . S
O27 Zn15 2.034 . S
O28 Zn7 2.024 . S
O28 C8 1.249 . S
C29 O25 1.251 . S
C29 O26 1.254 . S
H30 C3 0.949 . S
H31 C5 0.950 . S
H32 C12 0.949 1_556 S
H33 C14 0.950 . S
C34 O50 1.251 . S
C34 O52 1.254 . S
N35 C36 1.333 . S
N35 C40 1.307 . S
N35 Zn41 2.020 . S
C36 N35 1.333 . S
C36 C37 1.379 . S
C36 H54 0.952 . S
C37 C36 1.379 . S
C37 C38 1.390 . S
C37 H64 0.949 . S
C38 C37 1.390 . S
C38 C39 1.357 . S
C39 C38 1.357 . S
C39 C40 1.370 . S
C39 H65 0.950 . S
C40 N35 1.307 . S
C40 C39 1.370 . S
C40 H58 0.948 . S
Zn41 N35 2.020 . S
Zn41 O50 2.039 . S
Zn41 O56 2.034 . S
Zn41 O60 2.025 . S
Zn41 O62 2.024 . S
C42 O61 1.246 . S
C42 O62 1.249 . S
N43 C44 1.307 . S
N43 C45 1.333 . S
N43 Zn49 2.020 . S
C44 N43 1.307 . S
C44 C48 1.370 . S
C44 H55 0.948 . S
C45 N43 1.333 . S
C45 C46 1.379 . S
C45 H53 0.952 . S
C46 C45 1.379 . S
C46 C47 1.390 . S
C46 H66 0.949 . S
C47 C46 1.390 . S
C47 C48 1.357 . S
C48 C44 1.370 . S
C48 C47 1.357 . S
C48 H67 0.950 . S
Zn49 N43 2.020 . S
Zn49 O52 2.025 . S
Zn49 O57 2.024 . S
Zn49 O59 2.039 . S
Zn49 O61 2.034 . S
O50 C34 1.251 . S
O50 Zn41 2.039 . S
C51 O56 1.246 . S
C51 O57 1.249 . S
O52 C34 1.254 . S
O52 Zn49 2.025 . S
H53 C45 0.952 . S
H54 C36 0.952 . S
H55 C44 0.948 . S
O56 Zn41 2.034 . S
O56 C51 1.246 . S
O57 Zn49 2.024 . S
O57 C51 1.249 . S
H58 C40 0.948 . S
O59 Zn49 2.039 . S
O59 C63 1.251 . S
O60 Zn41 2.025 . S
O60 C63 1.254 . S
O61 C42 1.246 . S
O61 Zn49 2.034 . S
O62 Zn41 2.024 . S
O62 C42 1.249 . S
C63 O59 1.251 . S
C63 O60 1.254 . S
H64 C37 0.949 . S
H65 C39 0.950 . S
H66 C46 0.949 . S
H67 C48 0.950 . S
C68 O84 1.251 . S
C68 O86 1.254 . S
N69 C70 1.333 . S
N69 C74 1.307 . S
N69 Zn75 2.020 . S
C70 N69 1.333 . S
C70 C71 1.379 . S
C70 H88 0.952 . S
C71 C70 1.379 . S
C71 C72 1.390 . S
C71 H98 0.949 . S
C72 C71 1.390 . S
C72 C73 1.357 . S
C73 C72 1.357 . S
C73 C74 1.370 . S
C73 H99 0.950 . S
C74 N69 1.307 . S
C74 C73 1.370 . S
C74 H92 0.948 . S
Zn75 N69 2.020 . S
Zn75 O84 2.039 . S
Zn75 O90 2.034 . S
Zn75 O94 2.025 . S
Zn75 O96 2.024 . S
C76 O95 1.246 . S
C76 O96 1.249 . S
N77 C78 1.307 . S
N77 C79 1.333 . S
N77 Zn83 2.020 . S
C78 N77 1.307 . S
C78 C82 1.370 . S
C78 H89 0.948 . S
C79 N77 1.333 . S
C79 C80 1.379 . S
C79 H87 0.952 . S
C80 C79 1.379 . S
C80 C81 1.390 . S
C80 H100 0.949 . S
C81 C80 1.390 . S
C81 C82 1.357 . S
C82 C78 1.370 . S
C82 C81 1.357 . S
C82 H101 0.950 . S
Zn83 N77 2.020 . S
Zn83 O86 2.025 . S
Zn83 O91 2.024 . S
Zn83 O93 2.039 . S
Zn83 O95 2.034 . S
O84 C68 1.251 . S
O84 Zn75 2.039 . S
C85 O90 1.246 . S
C85 O91 1.249 . S
O86 C68 1.254 . S
O86 Zn83 2.025 . S
H87 C79 0.952 . S
H88 C70 0.952 . S
H89 C78 0.948 . S
O90 Zn75 2.034 . S
O90 C85 1.246 . S
O91 Zn83 2.024 . S
O91 C85 1.249 . S
H92 C74 0.948 . S
O93 Zn83 2.039 . S
O93 C97 1.251 . S
O94 Zn75 2.025 . S
O94 C97 1.254 . S
O95 C76 1.246 . S
O95 Zn83 2.034 . S
O96 Zn75 2.024 . S
O96 C76 1.249 . S
C97 O93 1.251 . S
C97 O94 1.254 . S
H98 C71 0.949 . S
H99 C73 0.950 . S
H100 C80 0.949 . S
H101 C82 0.950 . S
C102 O118 1.251 . S
C102 O120 1.254 . S
N103 C104 1.333 . S
N103 C108 1.307 . S
N103 Zn109 2.020 . S
C104 N103 1.333 . S
C104 C105 1.379 . S
C104 H122 0.952 . S
C105 C104 1.379 . S
C105 C106 1.390 . S
C105 H132 0.949 . S
C106 C105 1.390 . S
C106 C107 1.357 . S
C107 C106 1.357 . S
C107 C108 1.370 . S
C107 H133 0.950 1_556 S
C108 N103 1.307 . S
C108 C107 1.370 . S
C108 H126 0.948 1_556 S
Zn109 N103 2.020 . S
Zn109 O118 2.039 . S
Zn109 O124 2.034 . S
Zn109 O128 2.025 1_556 S
Zn109 O130 2.024 . S
C110 O129 1.246 . S
C110 O130 1.249 . S
N111 C112 1.307 . S
N111 C113 1.333 . S
N111 Zn117 2.020 . S
C112 N111 1.307 . S
C112 C116 1.370 . S
C112 H123 0.948 . S
C113 N111 1.333 . S
C113 C114 1.379 1_556 S
C113 H121 0.952 1_556 S
C114 C113 1.379 1_554 S
C114 C115 1.390 1_554 S
C114 H134 0.949 . S
C115 C114 1.390 1_556 S
C115 C116 1.357 . S
C116 C112 1.370 . S
C116 C115 1.357 . S
C116 H135 0.950 . S
Zn117 N111 2.020 . S
Zn117 O120 2.025 . S
Zn117 O125 2.024 . S
Zn117 O127 2.039 1_556 S
Zn117 O129 2.034 . S
O118 C102 1.251 . S
O118 Zn109 2.039 . S
C119 O124 1.246 . S
C119 O125 1.249 . S
O120 C102 1.254 . S
O120 Zn117 2.025 . S
H121 C113 0.952 1_554 S
H122 C104 0.952 . S
H123 C112 0.948 . S
O124 Zn109 2.034 . S
O124 C119 1.246 . S
O125 Zn117 2.024 . S
O125 C119 1.249 . S
H126 C108 0.948 1_554 S
O127 Zn117 2.039 1_554 S
O127 C131 1.251 . S
O128 Zn109 2.025 1_554 S
O128 C131 1.254 . S
O129 C110 1.246 . S
O129 Zn117 2.034 . S
O130 Zn109 2.024 . S
O130 C110 1.249 . S
C131 O127 1.251 . S
C131 O128 1.254 . S
H132 C105 0.949 . S
H133 C107 0.950 1_554 S
H134 C114 0.949 . S
H135 C116 0.950 . S
C136 O152 1.251 . S
C136 O154 1.254 . S
N137 C138 1.333 1_556 S
N137 C142 1.307 . S
N137 Zn143 2.020 . S
C138 N137 1.333 1_554 S
C138 C139 1.379 . S
C138 H156 0.952 . S
C139 C138 1.379 . S
C139 C140 1.390 1_554 S
C139 H166 0.949 . S
C140 C139 1.390 1_556 S
C140 C141 1.357 . S
C141 C140 1.357 . S
C141 C142 1.370 . S
C141 H167 0.950 . S
C142 N137 1.307 . S
C142 C141 1.370 . S
C142 H160 0.948 . S
Zn143 N137 2.020 . S
Zn143 O152 2.039 1_556 S
Zn143 O158 2.034 . S
Zn143 O162 2.025 . S
Zn143 O164 2.024 . S
C144 O163 1.246 . S
C144 O164 1.249 . S
N145 C146 1.307 . S
N145 C147 1.333 . S
N145 Zn151 2.020 . S
C146 N145 1.307 . S
C146 C150 1.370 . S
C146 H157 0.948 1_556 S
C147 N145 1.333 . S
C147 C148 1.379 . S
C147 H155 0.952 . S
C148 C147 1.379 . S
C148 C149 1.390 . S
C148 H168 0.949 . S
C149 C148 1.390 . S
C149 C150 1.357 . S
C150 C146 1.370 . S
C150 C149 1.357 . S
C150 H169 0.950 1_556 S
Zn151 N145 2.020 . S
Zn151 O154 2.025 1_556 S
Zn151 O159 2.024 . S
Zn151 O161 2.039 . S
Zn151 O163 2.034 . S
O152 C136 1.251 . S
O152 Zn143 2.039 1_554 S
C153 O158 1.246 . S
C153 O159 1.249 . S
O154 C136 1.254 . S
O154 Zn151 2.025 1_554 S
H155 C147 0.952 . S
H156 C138 0.952 . S
H157 C146 0.948 1_554 S
O158 Zn143 2.034 . S
O158 C153 1.246 . S
O159 Zn151 2.024 . S
O159 C153 1.249 . S
H160 C142 0.948 . S
O161 Zn151 2.039 . S
O161 C165 1.251 . S
O162 Zn143 2.025 . S
O162 C165 1.254 . S
O163 C144 1.246 . S
O163 Zn151 2.034 . S
O164 Zn143 2.024 . S
O164 C144 1.249 . S
C165 O161 1.251 . S
C165 O162 1.254 . S
H166 C139 0.949 . S
H167 C141 0.950 . S
H168 C148 0.949 . S
H169 C150 0.950 1_554 S
C170 O186 1.251 . S
C170 O188 1.254 . S
N171 C172 1.333 . S
N171 C176 1.307 . S
N171 Zn177 2.020 . S
C172 N171 1.333 . S
C172 C173 1.379 . S
C172 H190 0.952 . S
C173 C172 1.379 . S
C173 C174 1.390 . S
C173 H200 0.949 . S
C174 C173 1.390 . S
C174 C175 1.357 . S
C175 C174 1.357 . S
C175 C176 1.370 . S
C175 H201 0.950 . S
C176 N171 1.307 . S
C176 C175 1.370 . S
C176 H194 0.948 . S
Zn177 N171 2.020 . S
Zn177 O186 2.039 . S
Zn177 O192 2.034 . S
Zn177 O196 2.025 1_554 S
Zn177 O198 2.024 . S
C178 O197 1.246 . S
C178 O198 1.249 . S
N179 C180 1.307 . S
N179 C181 1.333 . S
N179 Zn185 2.020 . S
C180 N179 1.307 . S
C180 C184 1.370 . S
C180 H191 0.948 . S
C181 N179 1.333 . S
C181 C182 1.379 . S
C181 H189 0.955 . S
C182 C181 1.379 . S
C182 C183 1.390 . S
C182 H202 0.949 1_554 S
C183 C182 1.390 . S
C183 C184 1.357 . S
C184 C180 1.370 . S
C184 C183 1.357 . S
C184 H203 0.950 . S
Zn185 N179 2.020 . S
Zn185 O188 2.025 . S
Zn185 O193 2.024 . S
Zn185 O195 2.039 1_554 S
Zn185 O197 2.034 . S
O186 C170 1.251 . S
O186 Zn177 2.039 . S
C187 O192 1.246 . S
C187 O193 1.249 . S
O188 C170 1.254 . S
O188 Zn185 2.025 . S
H189 C181 0.955 . S
H190 C172 0.952 . S
H191 C180 0.948 . S
O192 Zn177 2.034 . S
O192 C187 1.246 . S
O193 Zn185 2.024 . S
O193 C187 1.249 . S
H194 C176 0.948 . S
O195 Zn185 2.039 1_556 S
O195 C199 1.251 . S
O196 Zn177 2.025 1_556 S
O196 C199 1.254 . S
O197 C178 1.246 . S
O197 Zn185 2.034 . S
O198 Zn177 2.024 . S
O198 C178 1.249 . S
C199 O195 1.251 . S
C199 O196 1.254 . S
H200 C173 0.949 . S
H201 C175 0.950 . S
H202 C182 0.949 1_556 S
H203 C184 0.950 . S
C204 O220 1.251 . S
C204 O222 1.254 . S
N205 C206 1.333 . S
N205 C210 1.307 . S
N205 Zn211 2.020 . S
C206 N205 1.333 . S
C206 C207 1.379 . S
C206 H224 0.952 . S
C207 C206 1.379 . S
C207 C208 1.390 . S
C207 H234 0.949 . S
C208 C207 1.390 . S
C208 C209 1.357 . S
C209 C208 1.357 . S
C209 C210 1.370 . S
C209 H235 0.950 . S
C210 N205 1.307 . S
C210 C209 1.370 . S
C210 H228 0.948 . S
Zn211 N205 2.020 . S
Zn211 O220 2.039 . S
Zn211 O226 2.034 . S
Zn211 O230 2.025 . S
Zn211 O232 2.024 . S
C212 O231 1.246 . S
C212 O232 1.249 . S
N213 C214 1.307 . S
N213 C215 1.333 . S
N213 Zn219 2.020 . S
C214 N213 1.307 . S
C214 C218 1.370 . S
C214 H225 0.948 . S
C215 N213 1.333 . S
C215 C216 1.379 . S
C215 H223 0.952 . S
C216 C215 1.379 . S
C216 C217 1.390 . S
C216 H236 0.949 . S
C217 C216 1.390 . S
C217 C218 1.357 . S
C218 C214 1.370 . S
C218 C217 1.357 . S
C218 H237 0.950 . S
Zn219 N213 2.020 . S
Zn219 O222 2.025 . S
Zn219 O227 2.024 . S
Zn219 O229 2.039 . S
Zn219 O231 2.034 . S
O220 C204 1.251 . S
O220 Zn211 2.039 . S
C221 O226 1.246 . S
C221 O227 1.249 . S
O222 C204 1.254 . S
O222 Zn219 2.025 . S
H223 C215 0.952 . S
H224 C206 0.952 . S
H225 C214 0.948 . S
O226 Zn211 2.034 . S
O226 C221 1.246 . S
O227 Zn219 2.024 . S
O227 C221 1.249 . S
H228 C210 0.948 . S
O229 Zn219 2.039 . S
O229 C233 1.251 . S
O230 Zn211 2.025 . S
O230 C233 1.254 . S
O231 C212 1.246 . S
O231 Zn219 2.034 . S
O232 Zn211 2.024 . S
O232 C212 1.249 . S
C233 O229 1.251 . S
C233 O230 1.254 . S
H234 C207 0.949 . S
H235 C209 0.950 . S
H236 C216 0.949 . S
H237 C218 0.950 . S
C238 O254 1.251 . S
C238 O256 1.254 . S
N239 C240 1.333 . S
N239 C244 1.307 . S
N239 Zn245 2.020 . S
C240 N239 1.333 . S
C240 C241 1.379 . S
C240 H258 0.952 . S
C241 C240 1.379 . S
C241 C242 1.390 . S
C241 H268 0.949 . S
C242 C241 1.390 . S
C242 C243 1.357 . S
C243 C242 1.357 . S
C243 C244 1.370 . S
C243 H269 0.950 . S
C244 N239 1.307 . S
C244 C243 1.370 . S
C244 H262 0.948 . S
Zn245 N239 2.020 . S
Zn245 O254 2.039 . S
Zn245 O260 2.034 . S
Zn245 O264 2.025 . S
Zn245 O266 2.024 . S
C246 O265 1.246 . S
C246 O266 1.249 . S
N247 C248 1.307 . S
N247 C249 1.333 . S
N247 Zn253 2.020 . S
C248 N247 1.307 . S
C248 C252 1.370 . S
C248 H259 0.948 . S
C249 N247 1.333 . S
C249 C250 1.379 . S
C249 H257 0.952 . S
C250 C249 1.379 . S
C250 C251 1.390 . S
C250 H270 0.949 . S
C251 C250 1.390 . S
C251 C252 1.357 . S
C252 C248 1.370 . S
C252 C251 1.357 . S
C252 H271 0.950 . S
Zn253 N247 2.020 . S
Zn253 O256 2.025 . S
Zn253 O261 2.024 . S
Zn253 O263 2.039 . S
Zn253 O265 2.034 . S
O254 C238 1.251 . S
O254 Zn245 2.039 . S
C255 O260 1.246 . S
C255 O261 1.249 . S
O256 C238 1.254 . S
O256 Zn253 2.025 . S
H257 C249 0.952 . S
H258 C240 0.952 . S
H259 C248 0.948 . S
O260 Zn245 2.034 . S
O260 C255 1.246 . S
O261 Zn253 2.024 . S
O261 C255 1.249 . S
H262 C244 0.948 . S
O263 Zn253 2.039 . S
O263 C267 1.251 . S
O264 Zn245 2.025 . S
O264 C267 1.254 . S
O265 C246 1.246 . S
O265 Zn253 2.034 . S
O266 Zn245 2.024 . S
O266 C246 1.249 . S
C267 O263 1.251 . S
C267 O264 1.254 . S
H268 C241 0.949 . S
H269 C243 0.950 . S
H270 C250 0.949 . S
H271 C252 0.950 . S
C272 O288 1.251 . S
C272 O290 1.254 . S
N273 C274 1.333 . S
N273 C278 1.307 . S
N273 Zn279 2.020 . S
C274 N273 1.333 . S
C274 C275 1.379 . S
C274 H292 0.952 . S
C275 C274 1.379 . S
C275 C276 1.390 . S
C275 H302 0.949 . S
C276 C275 1.390 . S
C276 C277 1.357 . S
C277 C276 1.357 . S
C277 C278 1.370 . S
C277 H303 0.950 1_556 S
C278 N273 1.307 . S
C278 C277 1.370 . S
C278 H296 0.948 1_556 S
Zn279 N273 2.020 . S
Zn279 O288 2.039 . S
Zn279 O294 2.034 . S
Zn279 O298 2.025 1_556 S
Zn279 O300 2.024 . S
C280 O299 1.246 . S
C280 O300 1.249 . S
N281 C282 1.307 . S
N281 C283 1.333 1_556 S
N281 Zn287 2.020 . S
C282 N281 1.307 . S
C282 C286 1.370 . S
C282 H293 0.948 . S
C283 N281 1.333 1_554 S
C283 C284 1.379 . S
C283 H291 0.952 . S
C284 C283 1.379 . S
C284 C285 1.390 1_554 S
C284 H304 0.949 . S
C285 C284 1.390 1_556 S
C285 C286 1.357 . S
C286 C282 1.370 . S
C286 C285 1.357 . S
C286 H305 0.950 . S
Zn287 N281 2.020 . S
Zn287 O290 2.025 . S
Zn287 O295 2.024 . S
Zn287 O297 2.039 1_556 S
Zn287 O299 2.034 . S
O288 C272 1.251 . S
O288 Zn279 2.039 . S
C289 O294 1.246 . S
C289 O295 1.249 . S
O290 C272 1.254 . S
O290 Zn287 2.025 . S
H291 C283 0.952 . S
H292 C274 0.952 . S
H293 C282 0.948 . S
O294 Zn279 2.034 . S
O294 C289 1.246 . S
O295 Zn287 2.024 . S
O295 C289 1.249 . S
H296 C278 0.948 1_554 S
O297 Zn287 2.039 1_554 S
O297 C301 1.251 . S
O298 Zn279 2.025 1_554 S
O298 C301 1.254 . S
O299 C280 1.246 . S
O299 Zn287 2.034 . S
O300 Zn279 2.024 . S
O300 C280 1.249 . S
C301 O297 1.251 . S
C301 O298 1.254 . S
H302 C275 0.949 . S
H303 C277 0.950 1_554 S
H304 C284 0.949 . S
H305 C286 0.950 . S
C306 O322 1.251 . S
C306 O324 1.254 . S
N307 C308 1.333 . S
N307 C312 1.307 . S
N307 Zn313 2.020 . S
C308 N307 1.333 . S
C308 C309 1.379 . S
C308 H326 0.952 . S
C309 C308 1.379 . S
C309 C310 1.390 . S
C309 H336 0.949 . S
C310 C309 1.390 . S
C310 C311 1.357 . S
C311 C310 1.357 . S
C311 C312 1.370 . S
C311 H337 0.950 . S
C312 N307 1.307 . S
C312 C311 1.370 . S
C312 H330 0.948 . S
Zn313 N307 2.020 . S
Zn313 O322 2.039 . S
Zn313 O328 2.034 . S
Zn313 O332 2.025 . S
Zn313 O334 2.024 . S
C314 O333 1.246 . S
C314 O334 1.249 . S
N315 C316 1.307 . S
N315 C317 1.333 . S
N315 Zn321 2.020 . S
C316 N315 1.307 . S
C316 C320 1.370 . S
C316 H327 0.948 . S
C317 N315 1.333 . S
C317 C318 1.379 . S
C317 H325 0.952 . S
C318 C317 1.379 . S
C318 C319 1.390 . S
C318 H338 0.949 . S
C319 C318 1.390 . S
C319 C320 1.357 . S
C320 C316 1.370 . S
C320 C319 1.357 . S
C320 H339 0.950 . S
Zn321 N315 2.020 . S
Zn321 O324 2.025 . S
Zn321 O329 2.024 . S
Zn321 O331 2.039 . S
Zn321 O333 2.034 . S
O322 C306 1.251 . S
O322 Zn313 2.039 . S
C323 O328 1.246 . S
C323 O329 1.249 . S
O324 C306 1.254 . S
O324 Zn321 2.025 . S
H325 C317 0.952 . S
H326 C308 0.952 . S
H327 C316 0.948 . S
O328 Zn313 2.034 . S
O328 C323 1.246 . S
O329 Zn321 2.024 . S
O329 C323 1.249 . S
H330 C312 0.948 . S
O331 Zn321 2.039 . S
O331 C335 1.251 . S
O332 Zn313 2.025 . S
O332 C335 1.254 . S
O333 C314 1.246 . S
O333 Zn321 2.034 . S
O334 Zn313 2.024 . S
O334 C314 1.249 . S
C335 O331 1.251 . S
C335 O332 1.254 . S
H336 C309 0.949 . S
H337 C311 0.950 . S
H338 C318 0.949 . S
H339 C320 0.950 . S
C340 O356 1.251 . S
C340 O358 1.254 . S
N341 C342 1.333 . S
N341 C346 1.307 . S
N341 Zn347 2.020 . S
C342 N341 1.333 . S
C342 C343 1.379 . S
C342 H360 0.952 . S
C343 C342 1.379 . S
C343 C344 1.390 . S
C343 H370 0.949 . S
C344 C343 1.390 . S
C344 C345 1.357 . S
C345 C344 1.357 . S
C345 C346 1.370 . S
C345 H371 0.950 . S
C346 N341 1.307 . S
C346 C345 1.370 . S
C346 H364 0.948 . S
Zn347 N341 2.020 . S
Zn347 O356 2.039 . S
Zn347 O362 2.034 . S
Zn347 O366 2.025 . S
Zn347 O368 2.024 . S
C348 O367 1.246 . S
C348 O368 1.249 . S
N349 C350 1.307 . S
N349 C351 1.333 . S
N349 Zn355 2.020 . S
C350 N349 1.307 . S
C350 C354 1.370 . S
C350 H361 0.948 . S
C351 N349 1.333 . S
C351 C352 1.379 . S
C351 H359 0.952 . S
C352 C351 1.379 . S
C352 C353 1.390 . S
C352 H372 0.949 . S
C353 C352 1.390 . S
C353 C354 1.357 . S
C354 C350 1.370 . S
C354 C353 1.357 . S
C354 H373 0.950 . S
Zn355 N349 2.020 . S
Zn355 O358 2.025 . S
Zn355 O363 2.024 . S
Zn355 O365 2.039 . S
Zn355 O367 2.034 . S
O356 C340 1.251 . S
O356 Zn347 2.039 . S
C357 O362 1.246 . S
C357 O363 1.249 . S
O358 C340 1.254 . S
O358 Zn355 2.025 . S
H359 C351 0.952 . S
H360 C342 0.952 . S
H361 C350 0.948 . S
O362 Zn347 2.034 . S
O362 C357 1.246 . S
O363 Zn355 2.024 . S
O363 C357 1.249 . S
H364 C346 0.948 . S
O365 Zn355 2.039 . S
O365 C369 1.251 . S
O366 Zn347 2.025 . S
O366 C369 1.254 . S
O367 C348 1.246 . S
O367 Zn355 2.034 . S
O368 Zn347 2.024 . S
O368 C348 1.249 . S
C369 O365 1.251 . S
C369 O366 1.254 . S
H370 C343 0.949 . S
H371 C345 0.950 . S
H372 C352 0.949 . S
H373 C354 0.950 . S
C374 O390 1.251 . S
C374 O392 1.254 . S
N375 C376 1.333 . S
N375 C380 1.320 . S
N375 Zn381 2.020 . S
C376 N375 1.333 . S
C376 C377 1.379 1_565 S
C376 H394 0.952 . S
C377 C376 1.379 1_545 S
C377 C378 1.390 . S
C377 H404 0.949 1_554 S
C378 C377 1.390 . S
C378 C379 1.357 . S
C379 C378 1.357 . S
C379 C380 1.347 1_545 S
C379 H405 0.950 . S
C380 N375 1.320 . S
C380 C379 1.347 1_565 S
C380 H398 0.959 . S
Zn381 N375 2.020 . S
Zn381 O390 2.039 1_554 S
Zn381 O396 2.034 . S
Zn381 O400 2.025 . S
Zn381 O402 2.024 . S
C382 O401 1.246 . S
C382 O402 1.249 . S
N383 C384 1.307 . S
N383 C385 1.333 . S
N383 Zn389 2.020 . S
C384 N383 1.307 . S
C384 C388 1.370 . S
C384 H395 0.948 . S
C385 N383 1.333 . S
C385 C386 1.379 . S
C385 H393 0.952 . S
C386 C385 1.379 . S
C386 C387 1.390 . S
C386 H406 0.949 . S
C387 C386 1.390 . S
C387 C388 1.357 . S
C388 C384 1.370 . S
C388 C387 1.357 . S
C388 H407 0.950 . S
Zn389 N383 2.020 . S
Zn389 O392 2.025 1_554 S
Zn389 O397 2.024 . S
Zn389 O399 2.039 . S
Zn389 O401 2.034 . S
O390 C374 1.251 . S
O390 Zn381 2.039 1_556 S
C391 O396 1.246 . S
C391 O397 1.249 . S
O392 C374 1.254 . S
O392 Zn389 2.025 1_556 S
H393 C385 0.952 . S
H394 C376 0.952 . S
H395 C384 0.948 . S
O396 Zn381 2.034 . S
O396 C391 1.246 . S
O397 Zn389 2.024 . S
O397 C391 1.249 . S
H398 C380 0.959 . S
O399 Zn389 2.039 . S
O399 C403 1.251 . S
O400 Zn381 2.025 . S
O400 C403 1.254 . S
O401 C382 1.246 . S
O401 Zn389 2.034 . S
O402 Zn381 2.024 . S
O402 C382 1.249 . S
C403 O399 1.251 . S
C403 O400 1.254 . S
H404 C377 0.949 1_556 S
H405 C379 0.950 . S
H406 C386 0.949 . S
H407 C388 0.950 . S
C408 O424 1.251 . S
C408 O426 1.254 . S
N409 C410 1.333 . S
N409 C414 1.307 . S
N409 Zn415 2.020 . S
C410 N409 1.333 . S
C410 C411 1.379 . S
C410 H428 0.952 . S
C411 C410 1.379 . S
C411 C412 1.390 . S
C411 H438 0.949 . S
C412 C411 1.390 . S
C412 C413 1.357 . S
C413 C412 1.357 . S
C413 C414 1.370 . S
C413 H439 0.950 . S
C414 N409 1.307 . S
C414 C413 1.370 . S
C414 H432 0.948 1_554 S
Zn415 N409 2.020 . S
Zn415 O424 2.039 . S
Zn415 O430 2.034 . S
Zn415 O434 2.025 1_554 S
Zn415 O436 2.024 . S
C416 O435 1.246 . S
C416 O436 1.249 . S
N417 C418 1.307 . S
N417 C419 1.333 . S
N417 Zn423 2.020 . S
C418 N417 1.307 . S
C418 C422 1.370 . S
C418 H429 0.948 . S
C419 N417 1.333 . S
C419 C420 1.379 . S
C419 H427 0.952 1_554 S
C420 C419 1.379 . S
C420 C421 1.390 . S
C420 H440 0.949 1_554 S
C421 C420 1.390 . S
C421 C422 1.357 . S
C422 C418 1.370 . S
C422 C421 1.357 . S
C422 H441 0.950 . S
Zn423 N417 2.020 . S
Zn423 O426 2.025 . S
Zn423 O431 2.024 . S
Zn423 O433 2.039 1_554 S
Zn423 O435 2.034 . S
O424 C408 1.251 . S
O424 Zn415 2.039 . S
C425 O430 1.246 . S
C425 O431 1.249 . S
O426 C408 1.254 . S
O426 Zn423 2.025 . S
H427 C419 0.952 1_556 S
H428 C410 0.952 . S
H429 C418 0.948 . S
O430 Zn415 2.034 . S
O430 C425 1.246 . S
O431 Zn423 2.024 . S
O431 C425 1.249 . S
H432 C414 0.948 1_556 S
O433 Zn423 2.039 1_556 S
O433 C437 1.251 . S
O434 Zn415 2.025 1_556 S
O434 C437 1.254 . S
O435 C416 1.246 . S
O435 Zn423 2.034 . S
O436 Zn415 2.024 . S
O436 C416 1.249 . S
C437 O433 1.251 . S
C437 O434 1.254 . S
H438 C411 0.949 . S
H439 C413 0.950 . S
H440 C420 0.949 1_556 S
H441 C422 0.950 . S
C442 O458 1.251 . S
C442 O460 1.254 . S
N443 C444 1.333 . S
N443 C448 1.307 . S
N443 Zn449 2.020 . S
C444 N443 1.333 . S
C444 C445 1.379 . S
C444 H462 0.952 . S
C445 C444 1.379 . S
C445 C446 1.390 . S
C445 H472 0.949 . S
C446 C445 1.390 . S
C446 C447 1.357 . S
C447 C446 1.357 . S
C447 C448 1.370 . S
C447 H473 0.950 1_556 S
C448 N443 1.307 . S
C448 C447 1.370 . S
C448 H466 0.948 1_556 S
Zn449 N443 2.020 . S
Zn449 O458 2.039 . S
Zn449 O464 2.034 . S
Zn449 O468 2.025 1_556 S
Zn449 O470 2.024 . S
C450 O469 1.246 . S
C450 O470 1.249 . S
N451 C452 1.307 . S
N451 C453 1.333 1_556 S
N451 Zn457 2.020 . S
C452 N451 1.307 . S
C452 C456 1.370 1_455 S
C452 H463 0.948 . S
C453 N451 1.333 1_554 S
C453 C454 1.379 1_455 S
C453 H461 0.952 . S
C454 C453 1.379 1_655 S
C454 C455 1.390 1_554 S
C454 H474 0.949 . S
C455 C454 1.390 1_556 S
C455 C456 1.357 . S
C456 C452 1.370 1_655 S
C456 C455 1.357 . S
C456 H475 0.950 . S
Zn457 N451 2.020 . S
Zn457 O460 2.025 . S
Zn457 O465 2.024 . S
Zn457 O467 2.039 1_556 S
Zn457 O469 2.034 . S
O458 C442 1.251 . S
O458 Zn449 2.039 . S
C459 O464 1.246 . S
C459 O465 1.249 . S
O460 C442 1.254 . S
O460 Zn457 2.025 . S
H461 C453 0.952 . S
H462 C444 0.952 . S
H463 C452 0.948 . S
O464 Zn449 2.034 . S
O464 C459 1.246 . S
O465 Zn457 2.024 . S
O465 C459 1.249 . S
H466 C448 0.948 1_554 S
O467 Zn457 2.039 1_554 S
O467 C471 1.251 . S
O468 Zn449 2.025 1_554 S
O468 C471 1.254 . S
O469 C450 1.246 . S
O469 Zn457 2.034 . S
O470 Zn449 2.024 . S
O470 C450 1.249 . S
C471 O467 1.251 . S
C471 O468 1.254 . S
H472 C445 0.949 . S
H473 C447 0.950 1_554 S
H474 C454 0.949 . S
H475 C456 0.950 . S
C476 O492 1.251 . S
C476 O494 1.254 . S
N477 C478 1.333 . S
N477 C482 1.307 . S
N477 Zn483 2.020 . S
C478 N477 1.333 . S
C478 C479 1.379 . S
C478 H496 0.952 . S
C479 C478 1.379 . S
C479 C480 1.390 . S
C479 H506 0.949 . S
C480 C479 1.390 . S
C480 C481 1.357 . S
C481 C480 1.357 . S
C481 C482 1.370 . S
C481 H507 0.950 . S
C482 N477 1.307 . S
C482 C481 1.370 . S
C482 H500 0.948 . S
Zn483 N477 2.020 . S
Zn483 O492 2.039 . S
Zn483 O498 2.034 . S
Zn483 O502 2.025 . S
Zn483 O504 2.024 . S
C484 O503 1.246 . S
C484 O504 1.249 . S
N485 C486 1.307 . S
N485 C487 1.333 . S
N485 Zn491 2.020 . S
C486 N485 1.307 . S
C486 C490 1.370 . S
C486 H497 0.948 . S
C487 N485 1.333 . S
C487 C488 1.379 . S
C487 H495 0.952 . S
C488 C487 1.379 . S
C488 C489 1.390 . S
C488 H508 0.949 . S
C489 C488 1.390 . S
C489 C490 1.357 . S
C490 C486 1.370 . S
C490 C489 1.357 . S
C490 H509 0.950 . S
Zn491 N485 2.020 . S
Zn491 O494 2.025 . S
Zn491 O499 2.024 . S
Zn491 O501 2.039 . S
Zn491 O503 2.034 . S
O492 C476 1.251 . S
O492 Zn483 2.039 . S
C493 O498 1.246 . S
C493 O499 1.249 . S
O494 C476 1.254 . S
O494 Zn491 2.025 . S
H495 C487 0.952 . S
H496 C478 0.952 . S
H497 C486 0.948 . S
O498 Zn483 2.034 . S
O498 C493 1.246 . S
O499 Zn491 2.024 . S
O499 C493 1.249 . S
H500 C482 0.948 . S
O501 Zn491 2.039 . S
O501 C505 1.251 . S
O502 Zn483 2.025 . S
O502 C505 1.254 . S
O503 C484 1.246 . S
O503 Zn491 2.034 . S
O504 Zn483 2.024 . S
O504 C484 1.249 . S
C505 O501 1.251 . S
C505 O502 1.254 . S
H506 C479 0.949 . S
H507 C481 0.950 . S
H508 C488 0.949 . S
H509 C490 0.950 . S
C510 O526 1.251 . S
C510 O528 1.254 . S
N511 C512 1.333 . S
N511 C516 1.307 . S
N511 Zn517 2.020 . S
C512 N511 1.333 . S
C512 C513 1.379 . S
C512 H530 0.952 . S
C513 C512 1.379 . S
C513 C514 1.390 . S
C513 H540 0.949 . S
C514 C513 1.390 . S
C514 C515 1.357 . S
C515 C514 1.357 . S
C515 C516 1.370 . S
C515 H541 0.950 . S
C516 N511 1.307 . S
C516 C515 1.370 . S
C516 H534 0.948 . S
Zn517 N511 2.020 . S
Zn517 O526 2.039 . S
Zn517 O532 2.034 . S
Zn517 O536 2.025 . S
Zn517 O538 2.024 . S
C518 O537 1.246 . S
C518 O538 1.249 . S
N519 C520 1.307 . S
N519 C521 1.333 . S
N519 Zn525 2.020 . S
C520 N519 1.307 . S
C520 C524 1.370 . S
C520 H531 0.948 . S
C521 N519 1.333 . S
C521 C522 1.379 . S
C521 H529 0.952 . S
C522 C521 1.379 . S
C522 C523 1.390 . S
C522 H542 0.949 . S
C523 C522 1.390 . S
C523 C524 1.357 . S
C524 C520 1.370 . S
C524 C523 1.357 . S
C524 H543 0.950 . S
Zn525 N519 2.020 . S
Zn525 O528 2.025 . S
Zn525 O533 2.024 . S
Zn525 O535 2.039 . S
Zn525 O537 2.034 . S
O526 C510 1.251 . S
O526 Zn517 2.039 . S
C527 O532 1.246 . S
C527 O533 1.249 . S
O528 C510 1.254 . S
O528 Zn525 2.025 . S
H529 C521 0.952 . S
H530 C512 0.952 . S
H531 C520 0.948 . S
O532 Zn517 2.034 . S
O532 C527 1.246 . S
O533 Zn525 2.024 . S
O533 C527 1.249 . S
H534 C516 0.948 . S
O535 Zn525 2.039 . S
O535 C539 1.251 . S
O536 Zn517 2.025 . S
O536 C539 1.254 . S
O537 C518 1.246 . S
O537 Zn525 2.034 . S
O538 Zn517 2.024 . S
O538 C518 1.249 . S
C539 O535 1.251 . S
C539 O536 1.254 . S
H540 C513 0.949 . S
H541 C515 0.950 . S
H542 C522 0.949 . S
H543 C524 0.950 . S
C544 C545 1.387 . S
C544 H548 0.950 . S
C544 C553 1.390 . S
C545 C544 1.387 . S
C545 C547 1.387 . S
H546 C553 0.950 . S
C547 C545 1.387 . S
C547 C549 1.390 . S
C547 H551 0.950 . S
H548 C544 0.950 . S
C549 C547 1.390 . S
C549 C550 1.387 . S
C549 H552 0.950 . S
C550 C549 1.387 . S
C550 C553 1.387 . S
H551 C547 0.950 . S
H552 C549 0.950 . S
C553 C544 1.390 . S
C553 H546 0.950 . S
C553 C550 1.387 . S
C554 C555 1.387 1_556 S
C554 H558 0.950 . S
C554 C563 1.390 . S
C555 C554 1.387 1_554 S
C555 C557 1.387 1_554 S
H556 C563 0.950 . S
C557 C555 1.387 1_556 S
C557 C559 1.390 . S
C557 H561 0.950 . S
H558 C554 0.950 . S
C559 C557 1.390 . S
C559 C560 1.387 . S
C559 H562 0.950 . S
C560 C559 1.387 . S
C560 C563 1.387 . S
H561 C557 0.950 . S
H562 C559 0.950 . S
C563 C554 1.390 . S
C563 H556 0.950 . S
C563 C560 1.387 . S
C564 C565 1.387 . S
C564 H568 0.950 . S
C564 C573 1.390 1_554 S
C565 C564 1.387 . S
C565 C567 1.387 . S
H566 C573 0.950 . S
C567 C565 1.387 . S
C567 C569 1.390 1_554 S
C567 H571 0.950 . S
H568 C564 0.950 . S
C569 C567 1.390 1_556 S
C569 C570 1.387 . S
C569 H572 0.950 . S
C570 C569 1.387 . S
C570 C573 1.387 . S
H571 C567 0.950 . S
H572 C569 0.950 . S
C573 C564 1.390 1_556 S
C573 H566 0.950 . S
C573 C570 1.387 . S
C574 C575 1.387 . S
C574 H578 0.950 . S
C574 C583 1.390 . S
C575 C574 1.387 . S
C575 C577 1.387 . S
H576 C583 0.950 . S
C577 C575 1.387 . S
C577 C579 1.390 . S
C577 H581 0.950 . S
H578 C574 0.950 . S
C579 C577 1.390 . S
C579 C580 1.387 . S
C579 H582 0.950 . S
C580 C579 1.387 . S
C580 C583 1.387 . S
H581 C577 0.950 . S
H582 C579 0.950 . S
C583 C574 1.390 . S
C583 H576 0.950 . S
C583 C580 1.387 . S
C584 C585 1.387 . S
C584 H588 0.950 . S
C584 C593 1.390 . S
C585 C584 1.387 . S
C585 C587 1.387 . S
H586 C593 0.950 . S
C587 C585 1.387 . S
C587 C589 1.390 . S
C587 H591 0.950 . S
H588 C584 0.950 . S
C589 C587 1.390 . S
C589 C590 1.387 . S
C589 H592 0.950 . S
C590 C589 1.387 . S
C590 C593 1.387 . S
H591 C587 0.950 . S
H592 C589 0.950 . S
C593 C584 1.390 . S
C593 H586 0.950 . S
C593 C590 1.387 . S
C594 C595 1.387 . S
C594 H598 0.950 . S
C594 C603 1.390 . S
C595 C594 1.387 . S
C595 C597 1.387 . S
H596 C603 0.950 . S
C597 C595 1.387 . S
C597 C599 1.390 . S
C597 H601 0.950 . S
H598 C594 0.950 . S
C599 C597 1.390 . S
C599 C600 1.387 . S
C599 H602 0.950 . S
C600 C599 1.387 . S
C600 C603 1.387 . S
H601 C597 0.950 . S
H602 C599 0.950 . S
C603 C594 1.390 . S
C603 H596 0.950 . S
C603 C600 1.387 . S
C604 C605 1.387 . S
C604 H608 0.950 . S
C604 C613 1.390 . S
C605 C604 1.387 . S
C605 C607 1.387 . S
H606 C613 0.950 . S
C607 C605 1.387 . S
C607 C609 1.390 . S
C607 H611 0.950 . S
H608 C604 0.950 . S
C609 C607 1.390 . S
C609 C610 1.387 . S
C609 H612 0.950 . S
C610 C609 1.387 . S
C610 C613 1.387 . S
H611 C607 0.950 . S
H612 C609 0.950 . S
C613 C604 1.390 . S
C613 H606 0.950 . S
C613 C610 1.387 . S
C614 C615 1.387 1_554 S
C614 H618 0.950 1_554 S
C614 C623 1.390 . S
C615 C614 1.387 1_556 S
C615 C617 1.387 1_556 S
H616 C623 0.950 . S
C617 C615 1.387 1_554 S
C617 C619 1.390 . S
C617 H621 0.950 1_554 S
H618 C614 0.950 1_556 S
C619 C617 1.390 . S
C619 C620 1.387 . S
C619 H622 0.950 . S
C620 C619 1.387 . S
C620 C623 1.387 . S
H621 C617 0.950 1_556 S
H622 C619 0.950 . S
C623 C614 1.390 . S
C623 H616 0.950 . S
C623 C620 1.387 . S
C624 C625 1.387 . S
C624 H628 0.950 . S
C624 C633 1.390 . S
C625 C624 1.387 . S
C625 C627 1.387 . S
H626 C633 0.950 . S
C627 C625 1.387 . S
C627 C629 1.390 . S
C627 H631 0.950 . S
H628 C624 0.950 . S
C629 C627 1.390 . S
C629 C630 1.387 . S
C629 H632 0.950 . S
C630 C629 1.387 . S
C630 C633 1.387 . S
H631 C627 0.950 . S
H632 C629 0.950 . S
C633 C624 1.390 . S
C633 H626 0.950 . S
C633 C630 1.387 . S
C634 C635 1.387 . S
C634 H638 0.950 . S
C634 C643 1.390 1_554 S
C635 C634 1.387 . S
C635 C637 1.387 . S
H636 C643 0.950 . S
C637 C635 1.387 . S
C637 C639 1.390 1_554 S
C637 H641 0.950 . S
H638 C634 0.950 . S
C639 C637 1.390 1_556 S
C639 C640 1.387 . S
C639 H642 0.950 . S
C640 C639 1.387 . S
C640 C643 1.387 . S
H641 C637 0.950 . S
H642 C639 0.950 . S
C643 C634 1.390 1_556 S
C643 H636 0.950 . S
C643 C640 1.387 . S
C644 C645 1.387 . S
C644 H648 0.950 . S
C644 C653 1.390 . S
C645 C644 1.387 . S
C645 C647 1.387 . S
H646 C653 0.950 . S
C647 C645 1.387 . S
C647 C649 1.390 . S
C647 H651 0.950 . S
H648 C644 0.950 . S
C649 C647 1.390 . S
C649 C650 1.387 . S
C649 H652 0.950 . S
C650 C649 1.387 . S
C650 C653 1.387 . S
H651 C647 0.950 . S
H652 C649 0.950 . S
C653 C644 1.390 . S
C653 H646 0.950 . S
C653 C650 1.387 . S
C654 C655 1.387 . S
C654 H658 0.950 . S
C654 C663 1.390 . S
C655 C654 1.387 . S
C655 C657 1.387 . S
H656 C663 0.950 . S
C657 C655 1.387 . S
C657 C659 1.390 . S
C657 H661 0.950 . S
H658 C654 0.950 . S
C659 C657 1.390 . S
C659 C660 1.387 . S
C659 H662 0.950 . S
C660 C659 1.387 . S
C660 C663 1.387 . S
H661 C657 0.950 . S
H662 C659 0.950 . S
C663 C654 1.390 . S
C663 H656 0.950 . S
C663 C660 1.387 . S
C664 C665 1.387 . S
C664 H668 0.950 . S
C664 C673 1.390 . S
C665 C664 1.387 . S
C665 C667 1.387 . S
H666 C673 0.950 . S
C667 C665 1.387 . S
C667 C669 1.390 . S
C667 H671 0.950 . S
H668 C664 0.950 . S
C669 C667 1.390 . S
C669 C670 1.387 . S
C669 H672 0.950 . S
C670 C669 1.387 . S
C670 C673 1.387 . S
H671 C667 0.950 . S
H672 C669 0.950 . S
C673 C664 1.390 . S
C673 H666 0.950 . S
C673 C670 1.387 . S
C674 C675 1.387 . S
C674 H678 0.950 . S
C674 C683 1.390 . S
C675 C674 1.387 . S
C675 C677 1.387 . S
H676 C683 0.950 . S
C677 C675 1.387 . S
C677 C679 1.390 . S
C677 H681 0.950 . S
H678 C674 0.950 . S
C679 C677 1.390 . S
C679 C680 1.387 . S
C679 H682 0.950 . S
C680 C679 1.387 . S
C680 C683 1.387 . S
H681 C677 0.950 . S
H682 C679 0.950 . S
C683 C674 1.390 . S
C683 H676 0.950 . S
C683 C680 1.387 . S
C684 C685 1.387 . S
C684 H688 0.950 . S
C684 C693 1.390 . S
C685 C684 1.387 . S
C685 C687 1.387 . S
H686 C693 0.950 1_556 S
C687 C685 1.387 . S
C687 C689 1.390 . S
C687 H691 0.950 . S
H688 C684 0.950 . S
C689 C687 1.390 . S
C689 C690 1.387 1_554 S
C689 H692 0.950 . S
C690 C689 1.387 1_556 S
C690 C693 1.387 1_556 S
H691 C687 0.950 . S
H692 C689 0.950 . S
C693 C684 1.390 . S
C693 H686 0.950 1_554 S
C693 C690 1.387 1_554 S
C694 C695 1.387 1_556 S
C694 H698 0.950 . S
C694 C703 1.390 . S
C695 C694 1.387 1_554 S
C695 C697 1.387 1_554 S
H696 C703 0.950 . S
C697 C695 1.387 1_556 S
C697 C699 1.390 . S
C697 H701 0.950 . S
H698 C694 0.950 . S
C699 C697 1.390 . S
C699 C700 1.387 . S
C699 H702 0.950 . S
C700 C699 1.387 . S
C700 C703 1.387 . S
H701 C697 0.950 . S
H702 C699 0.950 . S
C703 C694 1.390 . S
C703 H696 0.950 . S
C703 C700 1.387 . S
C704 C705 1.387 . S
C704 H708 0.950 . S
C704 C713 1.390 . S
C705 C704 1.387 . S
C705 C707 1.387 . S
H706 C713 0.950 . S
C707 C705 1.387 . S
C707 C709 1.390 . S
C707 H711 0.950 . S
H708 C704 0.950 . S
C709 C707 1.390 . S
C709 C710 1.387 . S
C709 H712 0.950 . S
C710 C709 1.387 . S
C710 C713 1.387 . S
H711 C707 0.950 . S
H712 C709 0.950 . S
C713 C704 1.390 . S
C713 H706 0.950 . S
C713 C710 1.387 . S
C714 C715 1.387 . S
C714 H718 0.950 . S
C714 C723 1.390 . S
C715 C714 1.387 . S
C715 C717 1.387 . S
H716 C723 0.950 . S
C717 C715 1.387 . S
C717 C719 1.390 . S
C717 H721 0.950 . S
H718 C714 0.950 . S
C719 C717 1.390 . S
C719 C720 1.387 . S
C719 H722 0.950 . S
C720 C719 1.387 . S
C720 C723 1.387 . S
H721 C717 0.950 . S
H722 C719 0.950 . S
C723 C714 1.390 . S
C723 H716 0.950 . S
C723 C720 1.387 . S
C724 C725 1.387 . S
C724 H728 0.950 . S
C724 C733 1.390 . S
C725 C724 1.387 . S
C725 C727 1.387 . S
H726 C733 0.950 . S
C727 C725 1.387 . S
C727 C729 1.390 . S
C727 H731 0.950 . S
H728 C724 0.950 . S
C729 C727 1.390 . S
C729 C730 1.387 . S
C729 H732 0.950 . S
C730 C729 1.387 . S
C730 C733 1.387 . S
H731 C727 0.950 . S
H732 C729 0.950 . S
C733 C724 1.390 . S
C733 H726 0.950 . S
C733 C730 1.387 . S
C734 C735 1.387 . S
C734 H738 0.950 1_556 S
C734 C743 1.390 1_556 S
C735 C734 1.387 . S
C735 C737 1.387 . S
H736 C743 0.950 . S
C737 C735 1.387 . S
C737 C739 1.390 . S
C737 H741 0.950 . S
H738 C734 0.950 1_554 S
C739 C737 1.390 . S
C739 C740 1.387 . S
C739 H742 0.950 . S
C740 C739 1.387 . S
C740 C743 1.387 1_556 S
H741 C737 0.950 . S
H742 C739 0.950 . S
C743 C734 1.390 1_554 S
C743 H736 0.950 . S
C743 C740 1.387 1_554 S
C744 C745 1.387 . S
C744 H748 0.950 . S
C744 C753 1.390 . S
C745 C744 1.387 . S
C745 C747 1.387 1_556 S
H746 C753 0.950 . S
C747 C745 1.387 1_554 S
C747 C749 1.390 . S
C747 H751 0.950 . S
H748 C744 0.950 . S
C749 C747 1.390 . S
C749 C750 1.387 1_554 S
C749 H752 0.950 . S
C750 C749 1.387 1_556 S
C750 C753 1.387 . S
H751 C747 0.950 . S
H752 C749 0.950 . S
C753 C744 1.390 . S
C753 H746 0.950 . S
C753 C750 1.387 . S
C754 C755 1.387 1_655 S
C754 H758 0.950 1_655 S
C754 C763 1.390 . S
C755 C754 1.387 1_455 S
C755 C757 1.387 1_455 S
H756 C763 0.950 . S
C757 C755 1.387 1_655 S
C757 C759 1.390 . S
C757 H761 0.950 1_654 S
H758 C754 0.950 1_455 S
C759 C757 1.390 . S
C759 C760 1.387 . S
C759 H762 0.950 1_554 S
C760 C759 1.387 . S
C760 C763 1.387 . S
H761 C757 0.950 1_456 S
H762 C759 0.950 1_556 S
C763 C754 1.390 . S
C763 H756 0.950 . S
C763 C760 1.387 . S
C764 C765 1.387 . S
C764 H768 0.950 . S
C764 C773 1.390 . S
C765 C764 1.387 . S
C765 C767 1.387 . S
H766 C773 0.950 . S
C767 C765 1.387 . S
C767 C769 1.390 . S
C767 H771 0.950 . S
H768 C764 0.950 . S
C769 C767 1.390 . S
C769 C770 1.387 . S
C769 H772 0.950 . S
C770 C769 1.387 . S
C770 C773 1.387 . S
H771 C767 0.950 . S
H772 C769 0.950 . S
C773 C764 1.390 . S
C773 H766 0.950 . S
C773 C770 1.387 . S
C774 C775 1.387 . S
C774 H778 0.950 . S
C774 C783 1.390 . S
C775 C774 1.387 . S
C775 C777 1.387 . S
H776 C783 0.950 . S
C777 C775 1.387 . S
C777 C779 1.390 . S
C777 H781 0.950 . S
H778 C774 0.950 . S
C779 C777 1.390 . S
C779 C780 1.387 . S
C779 H782 0.950 . S
C780 C779 1.387 . S
C780 C783 1.387 . S
H781 C777 0.950 . S
H782 C779 0.950 . S
C783 C774 1.390 . S
C783 H776 0.950 . S
C783 C780 1.387 . S
C784 C785 1.387 . S
C784 H788 0.950 1_556 S
C784 C793 1.390 . S
C785 C784 1.387 . S
C785 C787 1.387 . S
H786 C793 0.950 1_554 S
C787 C785 1.387 . S
C787 C789 1.390 . S
C787 H791 0.950 . S
H788 C784 0.950 1_554 S
C789 C787 1.390 . S
C789 C790 1.387 . S
C789 H792 0.950 . S
C790 C789 1.387 . S
C790 C793 1.387 . S
H791 C787 0.950 . S
H792 C789 0.950 . S
C793 C784 1.390 . S
C793 H786 0.950 1_556 S
C793 C790 1.387 . S
C794 C795 1.387 . S
C794 H798 0.950 . S
C794 C803 1.390 . S
C795 C794 1.387 . S
C795 C797 1.387 . S
H796 C803 0.950 . S
C797 C795 1.387 . S
C797 C799 1.390 . S
C797 H801 0.950 . S
H798 C794 0.950 . S
C799 C797 1.390 . S
C799 C800 1.387 . S
C799 H802 0.950 . S
C800 C799 1.387 . S
C800 C803 1.387 . S
H801 C797 0.950 . S
H802 C799 0.950 . S
C803 C794 1.390 . S
C803 H796 0.950 . S
C803 C800 1.387 . S
C804 C805 1.387 . S
C804 H808 0.950 1_554 S
C804 C813 1.390 . S
C805 C804 1.387 . S
C805 C807 1.387 . S
H806 C813 0.950 . S
C807 C805 1.387 . S
C807 C809 1.390 . S
C807 H811 0.950 . S
H808 C804 0.950 1_556 S
C809 C807 1.390 . S
C809 C810 1.387 . S
C809 H812 0.950 . S
C810 C809 1.387 . S
C810 C813 1.387 . S
H811 C807 0.950 . S
H812 C809 0.950 . S
C813 C804 1.390 . S
C813 H806 0.950 . S
C813 C810 1.387 . S
C814 C815 1.387 . S
C814 H818 0.950 . S
C814 C823 1.390 . S
C815 C814 1.387 . S
C815 C817 1.387 . S
H816 C823 0.950 . S
C817 C815 1.387 . S
C817 C819 1.390 . S
C817 H821 0.950 . S
H818 C814 0.950 . S
C819 C817 1.390 . S
C819 C820 1.387 . S
C819 H822 0.950 . S
C820 C819 1.387 . S
C820 C823 1.387 . S
H821 C817 0.950 . S
H822 C819 0.950 . S
C823 C814 1.390 . S
C823 H816 0.950 . S
C823 C820 1.387 . S
C824 C825 1.387 . S
C824 H828 0.950 . S
C824 C833 1.390 . S
C825 C824 1.387 . S
C825 C827 1.387 1_556 S
H826 C833 0.950 . S
C827 C825 1.387 1_554 S
C827 C829 1.390 . S
C827 H831 0.950 . S
H828 C824 0.950 . S
C829 C827 1.390 . S
C829 C830 1.387 1_554 S
C829 H832 0.950 . S
C830 C829 1.387 1_556 S
C830 C833 1.387 . S
H831 C827 0.950 . S
H832 C829 0.950 . S
C833 C824 1.390 . S
C833 H826 0.950 . S
C833 C830 1.387 . S
C834 C835 1.387 . S
C834 H838 0.950 . S
C834 C843 1.390 . S
C835 C834 1.387 . S
C835 C837 1.387 . S
H836 C843 0.950 . S
C837 C835 1.387 . S
C837 C839 1.390 . S
C837 H841 0.950 . S
H838 C834 0.950 . S
C839 C837 1.390 . S
C839 C840 1.387 . S
C839 H842 0.950 . S
C840 C839 1.387 . S
C840 C843 1.387 . S
H841 C837 0.950 . S
H842 C839 0.950 . S
C843 C834 1.390 . S
C843 H836 0.950 . S
C843 C840 1.387 . S
C844 C845 1.387 . S
C844 H848 0.950 . S
C844 C853 1.390 . S
C845 C844 1.387 . S
C845 C847 1.387 . S
H846 C853 0.950 . S
C847 C845 1.387 . S
C847 C849 1.390 . S
C847 H851 0.950 . S
H848 C844 0.950 . S
C849 C847 1.390 . S
C849 C850 1.387 . S
C849 H852 0.950 . S
C850 C849 1.387 . S
C850 C853 1.387 . S
H851 C847 0.950 . S
H852 C849 0.950 . S
C853 C844 1.390 . S
C853 H846 0.950 . S
C853 C850 1.387 . S
C854 C855 1.387 . S
C854 H858 0.950 . S
C854 C863 1.390 . S
C855 C854 1.387 . S
C855 C857 1.387 . S
H856 C863 0.950 . S
C857 C855 1.387 . S
C857 C859 1.390 . S
C857 H861 0.950 . S
H858 C854 0.950 . S
C859 C857 1.390 . S
C859 C860 1.387 1_455 S
C859 H862 0.950 . S
C860 C859 1.387 1_655 S
C860 C863 1.387 1_655 S
H861 C857 0.950 . S
H862 C859 0.950 . S
C863 C854 1.390 . S
C863 H856 0.950 . S
C863 C860 1.387 1_455 S
C864 C865 1.387 . S
C864 H868 0.950 . S
C864 C873 1.390 . S
C865 C864 1.387 . S
C865 C867 1.387 1_554 S
H866 C873 0.950 . S
C867 C865 1.387 1_556 S
C867 C869 1.390 . S
C867 H871 0.950 . S
H868 C864 0.950 . S
C869 C867 1.390 . S
C869 C870 1.387 . S
C869 H872 0.950 . S
C870 C869 1.387 . S
C870 C873 1.387 1_556 S
H871 C867 0.950 . S
H872 C869 0.950 . S
C873 C864 1.390 . S
C873 H866 0.950 . S
C873 C870 1.387 1_554 S
C874 C875 1.387 . S
C874 H878 0.950 . S
C874 C883 1.390 . S
C875 C874 1.387 . S
C875 C877 1.387 . S
H876 C883 0.950 . S
C877 C875 1.387 . S
C877 C879 1.390 . S
C877 H881 0.950 . S
H878 C874 0.950 . S
C879 C877 1.390 . S
C879 C880 1.387 . S
C879 H882 0.950 . S
C880 C879 1.387 . S
C880 C883 1.387 . S
H881 C877 0.950 . S
H882 C879 0.950 . S
C883 C874 1.390 . S
C883 H876 0.950 . S
C883 C880 1.387 . S
C884 C885 1.387 . S
C884 H888 0.950 . S
C884 C893 1.390 . S
C885 C884 1.387 . S
C885 C887 1.387 . S
H886 C893 0.950 . S
C887 C885 1.387 . S
C887 C889 1.390 . S
C887 H891 0.950 . S
H888 C884 0.950 . S
C889 C887 1.390 . S
C889 C890 1.387 . S
C889 H892 0.950 . S
C890 C889 1.387 . S
C890 C893 1.387 . S
H891 C887 0.950 . S
H892 C889 0.950 . S
C893 C884 1.390 . S
C893 H886 0.950 . S
C893 C890 1.387 . S
C894 C895 1.387 . S
C894 H898 0.950 . S
C894 C903 1.390 . S
C895 C894 1.387 . S
C895 C897 1.387 . S
H896 C903 0.950 . S
C897 C895 1.387 . S
C897 C899 1.390 . S
C897 H901 0.950 . S
H898 C894 0.950 . S
C899 C897 1.390 . S
C899 C900 1.387 . S
C899 H902 0.950 . S
C900 C899 1.387 . S
C900 C903 1.387 . S
H901 C897 0.950 . S
H902 C899 0.950 . S
C903 C894 1.390 . S
C903 H896 0.950 . S
C903 C900 1.387 . S
C904 C905 1.387 1_556 S
C904 H908 0.950 . S
C904 C913 1.390 . S
C905 C904 1.387 1_554 S
C905 C907 1.387 . S
H906 C913 0.950 . S
C907 C905 1.387 . S
C907 C909 1.390 . S
C907 H911 0.950 . S
H908 C904 0.950 . S
C909 C907 1.390 . S
C909 C910 1.387 1_554 S
C909 H912 0.950 . S
C910 C909 1.387 1_556 S
C910 C913 1.387 . S
H911 C907 0.950 . S
H912 C909 0.950 . S
C913 C904 1.390 . S
C913 H906 0.950 . S
C913 C910 1.387 . S
C914 C915 1.387 . S
C914 H918 0.950 . S
C914 C923 1.390 . S
C915 C914 1.387 . S
C915 C917 1.387 . S
H916 C923 0.950 . S
C917 C915 1.387 . S
C917 C919 1.390 . S
C917 H921 0.950 . S
H918 C914 0.950 . S
C919 C917 1.390 . S
C919 C920 1.387 . S
C919 H922 0.950 . S
C920 C919 1.387 . S
C920 C923 1.387 . S
H921 C917 0.950 . S
H922 C919 0.950 . S
C923 C914 1.390 . S
C923 H916 0.950 . S
C923 C920 1.387 . S
C924 C925 1.387 . S
C924 H928 0.950 . S
C924 C933 1.390 . S
C925 C924 1.387 . S
C925 C927 1.387 . S
H926 C933 0.950 . S
C927 C925 1.387 . S
C927 C929 1.390 . S
C927 H931 0.950 . S
H928 C924 0.950 . S
C929 C927 1.390 . S
C929 C930 1.387 . S
C929 H932 0.950 . S
C930 C929 1.387 . S
C930 C933 1.387 . S
H931 C927 0.950 . S
H932 C929 0.950 . S
C933 C924 1.390 . S
C933 H926 0.950 . S
C933 C930 1.387 . S
C934 C935 1.387 . S
C934 H938 0.950 . S
C934 C943 1.390 . S
C935 C934 1.387 . S
C935 C937 1.387 . S
H936 C943 0.950 . S
C937 C935 1.387 . S
C937 C939 1.390 . S
C937 H941 0.950 . S
H938 C934 0.950 . S
C939 C937 1.390 . S
C939 C940 1.387 . S
C939 H942 0.950 . S
C940 C939 1.387 . S
C940 C943 1.387 . S
H941 C937 0.950 . S
H942 C939 0.950 . S
C943 C934 1.390 . S
C943 H936 0.950 . S
C943 C940 1.387 . S
C944 C945 1.387 1_545 S
C944 H948 0.950 1_545 S
C944 C953 1.390 . S
C945 C944 1.387 1_565 S
C945 C947 1.387 1_565 S
H946 C953 0.950 . S
C947 C945 1.387 1_545 S
C947 C949 1.390 . S
C947 H951 0.958 . S
H948 C944 0.950 1_565 S
C949 C947 1.390 . S
C949 C950 1.387 . S
C949 H952 0.950 . S
C950 C949 1.387 . S
C950 C953 1.387 . S
H951 C947 0.958 . S
H952 C949 0.950 . S
C953 C944 1.390 . S
C953 H946 0.950 . S
C953 C950 1.387 . S
C954 C955 1.387 . S
C954 H958 0.950 . S
C954 C963 1.390 . S
C955 C954 1.387 . S
C955 C957 1.387 . S
H956 C963 0.950 . S
C957 C955 1.387 . S
C957 C959 1.390 . S
C957 H961 0.950 . S
H958 C954 0.950 . S
C959 C957 1.390 . S
C959 C960 1.387 . S
C959 H962 0.950 . S
C960 C959 1.387 . S
C960 C963 1.387 . S
H961 C957 0.950 . S
H962 C959 0.950 . S
C963 C954 1.390 . S
C963 H956 0.950 . S
C963 C960 1.387 . S
C964 C965 1.387 . S
C964 H968 0.950 . S
C964 C973 1.390 . S
C965 C964 1.387 . S
C965 C967 1.387 1_554 S
H966 C973 0.950 . S
C967 C965 1.387 1_556 S
C967 C969 1.390 . S
C967 H971 0.950 1_545 S
H968 C964 0.950 . S
C969 C967 1.390 . S
C969 C970 1.387 . S
C969 H972 0.950 . S
C970 C969 1.387 . S
C970 C973 1.387 1_556 S
H971 C967 0.950 1_565 S
H972 C969 0.950 . S
C973 C964 1.390 . S
C973 H966 0.950 . S
C973 C970 1.387 1_554 S
C974 C975 1.387 . S
C974 H978 0.950 . S
C974 C983 1.390 . S
C975 C974 1.387 . S
C975 C977 1.387 . S
H976 C983 0.950 . S
C977 C975 1.387 . S
C977 C979 1.390 . S
C977 H981 0.950 . S
H978 C974 0.950 . S
C979 C977 1.390 . S
C979 C980 1.387 . S
C979 H982 0.950 . S
C980 C979 1.387 . S
C980 C983 1.387 . S
H981 C977 0.950 . S
H982 C979 0.950 . S
C983 C974 1.390 . S
C983 H976 0.950 . S
C983 C980 1.387 . S
C984 C985 1.387 . S
C984 H988 0.950 . S
C984 C993 1.390 . S
C985 C984 1.387 . S
C985 C987 1.387 . S
H986 C993 0.950 . S
C987 C985 1.387 . S
C987 C989 1.390 . S
C987 H991 0.950 . S
H988 C984 0.950 . S
C989 C987 1.390 . S
C989 C990 1.387 . S
C989 H992 0.950 . S
C990 C989 1.387 . S
C990 C993 1.387 . S
H991 C987 0.950 . S
H992 C989 0.950 . S
C993 C984 1.390 . S
C993 H986 0.950 . S
C993 C990 1.387 . S
C994 C995 1.387 . S
C994 H998 0.950 . S
C994 C1003 1.390 . S
C995 C994 1.387 . S
C995 C997 1.387 . S
H996 C1003 0.950 . S
C997 C995 1.387 . S
C997 C999 1.390 . S
C997 H1001 0.950 . S
H998 C994 0.950 . S
C999 C997 1.390 . S
C999 C1000 1.387 . S
C999 H1002 0.950 . S
C1000 C999 1.387 . S
C1000 C1003 1.387 . S
H1001 C997 0.950 . S
H1002 C999 0.950 . S
C1003 C994 1.390 . S
C1003 H996 0.950 . S
C1003 C1000 1.387 . S
C1004 C1005 1.387 1_554 S
C1004 H1008 0.950 1_554 S
C1004 C1013 1.390 . S
C1005 C1004 1.387 1_556 S
C1005 C1007 1.387 1_556 S
H1006 C1013 0.950 . S
C1007 C1005 1.387 1_554 S
C1007 C1009 1.390 . S
C1007 H1011 0.950 1_554 S
H1008 C1004 0.950 1_556 S
C1009 C1007 1.390 . S
C1009 C1010 1.387 . S
C1009 H1012 0.950 . S
C1010 C1009 1.387 . S
C1010 C1013 1.387 . S
H1011 C1007 0.950 1_556 S
H1012 C1009 0.950 . S
C1013 C1004 1.390 . S
C1013 H1006 0.950 . S
C1013 C1010 1.387 . S
C1014 C1015 1.387 . S
C1014 H1018 0.950 . S
C1014 C1023 1.390 . S
C1015 C1014 1.387 . S
C1015 C1017 1.387 . S
H1016 C1023 0.950 . S
C1017 C1015 1.387 . S
C1017 C1019 1.390 . S
C1017 H1021 0.950 . S
H1018 C1014 0.950 . S
C1019 C1017 1.390 . S
C1019 C1020 1.387 . S
C1019 H1022 0.950 . S
C1020 C1019 1.387 . S
C1020 C1023 1.387 . S
H1021 C1017 0.950 . S
H1022 C1019 0.950 . S
C1023 C1014 1.390 . S
C1023 H1016 0.950 . S
C1023 C1020 1.387 . S
C545 C29 1.371 . S
C550 C0 1.371 . S
C555 C63 1.370 . S
C560 C34 1.370 . S
C565 C68 1.373 . S
C570 C97 1.373 . S
C575 C102 1.372 . S
C580 C131 1.372 . S
C585 C136 1.373 . S
C590 C165 1.373 . S
C595 C199 1.371 . S
C600 C170 1.371 . S
C605 C233 1.372 . S
C610 C204 1.372 1_556 S
C615 C267 1.372 . S
C620 C238 1.372 . S
C625 C301 1.371 . S
C630 C272 1.371 . S
C635 C335 1.373 . S
C640 C306 1.373 . S
C645 C369 1.371 1_556 S
C650 C340 1.371 . S
C655 C403 1.372 . S
C660 C374 1.372 . S
C665 C437 1.370 . S
C670 C408 1.370 . S
C675 C442 1.374 . S
C680 C471 1.374 . S
C685 C476 1.373 . S
C690 C505 1.373 . S
C695 C510 1.370 . S
C700 C539 1.370 . S
C705 C4 1.204 . S
C710 C387 1.210 . S
C715 C38 1.421 . S
C720 C523 1.422 . S
C725 C85 2.315 . S
C730 C314 2.326 . S
C735 C119 0.999 . S
C740 C455 0.988 . S
C745 C153 1.497 . S
C750 C450 1.485 . S
C755 C382 2.286 . S
C760 C187 2.255 . S
C765 C208 2.194 . S
C770 C518 2.204 . S
C775 C242 1.070 . S
C780 C319 1.078 . S
C785 C106 1.155 . S
C790 C280 1.162 . S
C795 C51 1.570 . S
C800 C353 1.534 . S
C805 C416 1.587 . S
C810 C174 1.559 . S
C815 C255 1.326 . S
C820 C489 1.312 . S
C825 C285 1.115 . S
C830 C140 1.131 1_655 S
C835 C221 3.116 . S
C840 C348 3.104 . S
C845 C72 1.076 . S
C850 C484 1.092 . S
C855 C17 2.352 . S
C860 C421 2.339 . S
C865 C13 1.312 . S
C870 C144 1.329 . S
C875 C47 1.853 . S
C880 C178 1.851 . S
C885 C76 2.302 . S
C890 C217 2.301 . S
C895 C110 1.359 . S
C900 C251 1.330 . S
C905 C425 1.919 . S
C910 C289 1.894 . S
C915 C446 1.345 . S
C920 C310 1.346 . S
C925 C344 1.167 . S
C930 C480 1.174 . S
C935 C514 1.792 . S
C940 C391 1.785 . S
C945 C42 1.762 . S
C950 C246 1.757 . S
C955 C149 1.245 . S
C960 C81 1.247 . S
C965 C183 1.155 1_545 S
C970 C115 1.161 . S
C975 C8 3.064 . S
C980 C212 3.071 . S
C985 C527 2.194 1_545 S
C990 C323 2.204 . S
C995 C412 2.323 . S
C1000 C357 2.324 . S
C1005 C459 1.730 . S
C1010 C378 1.726 . S
C1015 C493 1.515 . S
C1020 C276 1.469 . S
