# Generated by pormake.
# Topology afi, (4)-cn, num edge types: 1
# Building blocks:
#     Node 0, Type 0, BuildingBlock: NAHDIM_clean_sbu_0, # of connection points: 4
#     Node 1, Type 0, BuildingBlock: NAHDIM_clean_sbu_0, # of connection points: 4
#     Node 2, Type 0, BuildingBlock: NAHDIM_clean_sbu_0, # of connection points: 4
#     Node 3, Type 0, BuildingBlock: NAHDIM_clean_sbu_0, # of connection points: 4
#     Node 4, Type 0, BuildingBlock: NAHDIM_clean_sbu_0, # of connection points: 4
#     Node 5, Type 0, BuildingBlock: NAHDIM_clean_sbu_0, # of connection points: 4
#     Node 6, Type 0, BuildingBlock: NAHDIM_clean_sbu_0, # of connection points: 4
#     Node 7, Type 0, BuildingBlock: NAHDIM_clean_sbu_0, # of connection points: 4
#     Node 8, Type 0, BuildingBlock: NAHDIM_clean_sbu_0, # of connection points: 4
#     Node 9, Type 0, BuildingBlock: NAHDIM_clean_sbu_0, # of connection points: 4
#     Node 10, Type 0, BuildingBlock: NAHDIM_clean_sbu_0, # of connection points: 4
#     Node 11, Type 0, BuildingBlock: NAHDIM_clean_sbu_0, # of connection points: 4
#     Node 12, Type 0, BuildingBlock: NAHDIM_clean_sbu_0, # of connection points: 4
#     Node 13, Type 0, BuildingBlock: NAHDIM_clean_sbu_0, # of connection points: 4
#     Node 14, Type 0, BuildingBlock: NAHDIM_clean_sbu_0, # of connection points: 4
#     Node 15, Type 0, BuildingBlock: NAHDIM_clean_sbu_0, # of connection points: 4
#     Node 16, Type 0, BuildingBlock: NAHDIM_clean_sbu_0, # of connection points: 4
#     Node 17, Type 0, BuildingBlock: NAHDIM_clean_sbu_0, # of connection points: 4
#     Node 18, Type 0, BuildingBlock: NAHDIM_clean_sbu_0, # of connection points: 4
#     Node 19, Type 0, BuildingBlock: NAHDIM_clean_sbu_0, # of connection points: 4
#     Node 20, Type 0, BuildingBlock: NAHDIM_clean_sbu_0, # of connection points: 4
#     Node 21, Type 0, BuildingBlock: NAHDIM_clean_sbu_0, # of connection points: 4
#     Node 22, Type 0, BuildingBlock: NAHDIM_clean_sbu_0, # of connection points: 4
#     Node 23, Type 0, BuildingBlock: NAHDIM_clean_sbu_0, # of connection points: 4
#     Edge 24, Type (0, 0), None
#     Edge 25, Type (0, 0), None
#     Edge 26, Type (0, 0), None
#     Edge 27, Type (0, 0), None
#     Edge 28, Type (0, 0), None
#     Edge 29, Type (0, 0), None
#     Edge 30, Type (0, 0), None
#     Edge 31, Type (0, 0), None
#     Edge 32, Type (0, 0), None
#     Edge 33, Type (0, 0), None
#     Edge 34, Type (0, 0), None
#     Edge 35, Type (0, 0), None
#     Edge 36, Type (0, 0), None
#     Edge 37, Type (0, 0), None
#     Edge 38, Type (0, 0), None
#     Edge 39, Type (0, 0), None
#     Edge 40, Type (0, 0), None
#     Edge 41, Type (0, 0), None
#     Edge 42, Type (0, 0), None
#     Edge 43, Type (0, 0), None
#     Edge 44, Type (0, 0), None
#     Edge 45, Type (0, 0), None
#     Edge 46, Type (0, 0), None
#     Edge 47, Type (0, 0), None
#     Edge 48, Type (0, 0), None
#     Edge 49, Type (0, 0), None
#     Edge 50, Type (0, 0), None
#     Edge 51, Type (0, 0), None
#     Edge 52, Type (0, 0), None
#     Edge 53, Type (0, 0), None
#     Edge 54, Type (0, 0), None
#     Edge 55, Type (0, 0), None
#     Edge 56, Type (0, 0), None
#     Edge 57, Type (0, 0), None
#     Edge 58, Type (0, 0), None
#     Edge 59, Type (0, 0), None
#     Edge 60, Type (0, 0), None
#     Edge 61, Type (0, 0), None
#     Edge 62, Type (0, 0), None
#     Edge 63, Type (0, 0), None
#     Edge 64, Type (0, 0), None
#     Edge 65, Type (0, 0), None
#     Edge 66, Type (0, 0), None
#     Edge 67, Type (0, 0), None
#     Edge 68, Type (0, 0), None
#     Edge 69, Type (0, 0), None
#     Edge 70, Type (0, 0), None
#     Edge 71, Type (0, 0), None
# Relax obj value: 0.073
# Max RMSD: 0.090
# Mean RMSD: 0.090
data_MOF--net-afi--node1-NAHDIM_clean_sbu_0--edge1-none
_symmetry_space_group_name_H-M    P1
_symmetry_Int_Tables_number       1
_symmetry_cell_setting            triclinic
loop_
_symmetry_equiv_pos_as_xyz
'x, y, z'
_cell_length_a     31.784637
_cell_length_b     31.786357
_cell_length_c     16.774037
_cell_angle_alpha  90.000001
_cell_angle_beta   90.000002
_cell_angle_gamma 120.00776
loop_
_atom_site_label
_atom_site_type_symbol
_atom_site_fract_x
_atom_site_fract_y
_atom_site_fract_z
_atom_type_partial_charge
C0 C 0.46378 0.20808 0.25196 0.0
O1 O 0.50521 0.21153 0.23125 0.0
O2 O 0.50055 0.12566 0.2754 0.0
Zn3 Zn 0.4388 0.11321 0.21849 0.0
O4 O 0.4452 0.11403 0.09828 0.0
C5 C 0.40361 0.01653 0.24686 0.0
O6 O 0.44668 0.03231 0.2152 0.0
O7 O 0.42537 0.16666 0.25126 0.0
C8 C 0.407 0.10347 0.05894 0.0
O9 O 0.36692 0.09281 0.09751 0.0
C10 C 0.53843 0.13069 0.2412 0.0
O11 O 0.54015 0.12972 0.16304 0.0
O12 O 0.38732 0.04564 0.25377 0.0
C13 C 0.24811 0.46758 0.25189 0.0
O14 O 0.28609 0.509 0.23113 0.0
O15 O 0.36729 0.50434 0.2754 0.0
Zn16 Zn 0.31799 0.44259 0.21849 0.0
O17 O 0.32358 0.44899 0.09828 0.0
C18 C 0.37946 0.40739 0.24691 0.0
O19 O 0.40677 0.45047 0.21528 0.0
O20 O 0.2511 0.42917 0.25125 0.0
C21 C 0.29592 0.41079 0.05894 0.0
O22 O 0.26649 0.37071 0.09751 0.0
C23 C 0.40015 0.54223 0.2412 0.0
O24 O 0.40282 0.54395 0.16304 0.0
O25 O 0.33406 0.39111 0.25378 0.0
C26 C 0.7729 0.2519 0.25194 0.0
O27 O 0.76945 0.28988 0.23122 0.0
O28 O 0.85532 0.3711 0.2754 0.0
Zn29 Zn 0.86777 0.3218 0.21849 0.0
O30 O 0.86696 0.32739 0.09828 0.0
C31 C 0.96446 0.38329 0.24693 0.0
O32 O 0.94869 0.4106 0.21532 0.0
O33 O 0.81431 0.25491 0.25125 0.0
C34 C 0.87751 0.29974 0.05894 0.0
O35 O 0.88816 0.27032 0.09751 0.0
C36 C 0.85028 0.40394 0.2412 0.0
O37 O 0.85123 0.40661 0.16305 0.0
O38 O 0.93534 0.33789 0.25378 0.0
C39 C 0.51339 0.7767 0.25196 0.0
O40 O 0.47196 0.77325 0.23125 0.0
O41 O 0.47662 0.85911 0.2754 0.0
Zn42 Zn 0.53837 0.87157 0.21849 0.0
O43 O 0.53197 0.87075 0.09828 0.0
C44 C 0.57356 0.96825 0.24686 0.0
O45 O 0.53049 0.95247 0.2152 0.0
O46 O 0.5518 0.81812 0.25126 0.0
C47 C 0.57017 0.88131 0.05894 0.0
O48 O 0.61025 0.89196 0.09751 0.0
C49 C 0.43874 0.85409 0.2412 0.0
O50 O 0.43702 0.85505 0.16304 0.0
O51 O 0.58985 0.93914 0.25377 0.0
C52 C 0.72906 0.5172 0.25189 0.0
O53 O 0.69108 0.47578 0.23113 0.0
O54 O 0.60988 0.48044 0.2754 0.0
Zn55 Zn 0.65918 0.54218 0.21849 0.0
O56 O 0.65359 0.53579 0.09828 0.0
C57 C 0.59771 0.57739 0.24691 0.0
O58 O 0.5704 0.53431 0.21528 0.0
O59 O 0.72607 0.55561 0.25125 0.0
C60 C 0.68125 0.57399 0.05894 0.0
O61 O 0.71068 0.61407 0.09751 0.0
C62 C 0.57702 0.44255 0.2412 0.0
O63 O 0.57435 0.44082 0.16304 0.0
O64 O 0.64311 0.59367 0.25378 0.0
C65 C 0.20427 0.73287 0.25194 0.0
O66 O 0.20772 0.69489 0.23122 0.0
O67 O 0.12185 0.61368 0.2754 0.0
Zn68 Zn 0.1094 0.66297 0.21849 0.0
O69 O 0.11021 0.65739 0.09828 0.0
C70 C 0.01271 0.60148 0.24693 0.0
O71 O 0.02848 0.57418 0.21532 0.0
O72 O 0.16286 0.72986 0.25125 0.0
C73 C 0.09966 0.68504 0.05894 0.0
O74 O 0.08901 0.71446 0.09751 0.0
C75 C 0.12689 0.58084 0.2412 0.0
O76 O 0.12594 0.57816 0.16305 0.0
O77 O 0.04183 0.64689 0.25378 0.0
C78 C 0.77291 0.51719 0.27846 0.0
O79 O 0.76946 0.47577 0.29922 0.0
O80 O 0.85531 0.48041 0.25495 0.0
Zn81 Zn 0.86778 0.54217 0.31185 0.0
O82 O 0.86698 0.53577 0.43206 0.0
C83 C 0.96446 0.57735 0.28334 0.0
O84 O 0.94869 0.53427 0.31494 0.0
O85 O 0.81433 0.5556 0.2791 0.0
C86 C 0.87754 0.57398 0.4714 0.0
O87 O 0.8882 0.61405 0.43283 0.0
C88 C 0.85029 0.44253 0.28915 0.0
O89 O 0.85126 0.44082 0.36731 0.0
O90 O 0.93535 0.59365 0.27654 0.0
C91 C 0.24812 0.77673 0.27852 0.0
O92 O 0.2861 0.7733 0.29932 0.0
O93 O 0.36731 0.85914 0.25495 0.0
Zn94 Zn 0.31802 0.87161 0.31185 0.0
O95 O 0.32362 0.87082 0.43206 0.0
C96 C 0.37951 0.96828 0.28327 0.0
O97 O 0.40684 0.95253 0.31483 0.0
O98 O 0.25113 0.81814 0.27912 0.0
C99 C 0.29597 0.88137 0.4714 0.0
O100 O 0.26654 0.89201 0.43283 0.0
C101 C 0.40015 0.8541 0.28915 0.0
O102 O 0.40283 0.85507 0.36731 0.0
O103 O 0.33409 0.93916 0.27653 0.0
C104 C 0.46377 0.25192 0.27853 0.0
O105 O 0.50518 0.2899 0.29934 0.0
O106 O 0.50054 0.3711 0.25495 0.0
Zn107 Zn 0.43878 0.3218 0.31185 0.0
O108 O 0.44517 0.3274 0.43206 0.0
C109 C 0.40359 0.38328 0.28333 0.0
O110 O 0.44668 0.41061 0.31493 0.0
O111 O 0.42536 0.25492 0.27911 0.0
C112 C 0.40697 0.29975 0.4714 0.0
O113 O 0.36689 0.27032 0.43283 0.0
C114 C 0.53842 0.40396 0.28915 0.0
O115 O 0.54014 0.40665 0.36731 0.0
O116 O 0.3873 0.33788 0.27653 0.0
C117 C 0.20426 0.46758 0.27846 0.0
O118 O 0.20771 0.50901 0.29922 0.0
O119 O 0.12186 0.50437 0.25495 0.0
Zn120 Zn 0.10939 0.44261 0.31185 0.0
O121 O 0.11019 0.449 0.43206 0.0
C122 C 0.01271 0.40743 0.28334 0.0
O123 O 0.02848 0.45051 0.31494 0.0
O124 O 0.16284 0.42918 0.2791 0.0
C125 C 0.09963 0.4108 0.4714 0.0
O126 O 0.08897 0.37072 0.43283 0.0
C127 C 0.12688 0.54224 0.28915 0.0
O128 O 0.12591 0.54396 0.36731 0.0
O129 O 0.04182 0.39113 0.27654 0.0
C130 C 0.72905 0.20805 0.27852 0.0
O131 O 0.69107 0.21148 0.29932 0.0
O132 O 0.60986 0.12563 0.25495 0.0
Zn133 Zn 0.65915 0.11317 0.31185 0.0
O134 O 0.65355 0.11396 0.43206 0.0
C135 C 0.59767 0.0165 0.28327 0.0
O136 O 0.57033 0.03225 0.31483 0.0
O137 O 0.72604 0.16664 0.27912 0.0
C138 C 0.6812 0.10341 0.4714 0.0
O139 O 0.71064 0.09277 0.43283 0.0
C140 C 0.57702 0.13067 0.28915 0.0
O141 O 0.57434 0.12971 0.36731 0.0
O142 O 0.64308 0.04561 0.27653 0.0
C143 C 0.5134 0.73286 0.27853 0.0
O144 O 0.47199 0.69488 0.29934 0.0
O145 O 0.47663 0.61368 0.25495 0.0
Zn146 Zn 0.53839 0.66297 0.31185 0.0
O147 O 0.532 0.65738 0.43206 0.0
C148 C 0.57358 0.6015 0.28333 0.0
O149 O 0.53049 0.57417 0.31493 0.0
O150 O 0.55181 0.72986 0.27911 0.0
C151 C 0.5702 0.68503 0.4714 0.0
O152 O 0.61028 0.71446 0.43283 0.0
C153 C 0.43875 0.58082 0.28915 0.0
O154 O 0.43703 0.57813 0.36731 0.0
O155 O 0.58987 0.6469 0.27653 0.0
C156 C 0.51339 0.7767 0.77838 0.0
O157 O 0.47196 0.77325 0.79909 0.0
O158 O 0.47662 0.85911 0.75495 0.0
Zn159 Zn 0.53837 0.87157 0.81185 0.0
O160 O 0.53197 0.87075 0.93206 0.0
C161 C 0.57356 0.96825 0.78348 0.0
O162 O 0.53049 0.95247 0.81515 0.0
O163 O 0.5518 0.81812 0.77908 0.0
C164 C 0.57017 0.8813 0.9714 0.0
O165 O 0.61025 0.89196 0.93283 0.0
C166 C 0.43874 0.85409 0.78914 0.0
O167 O 0.43702 0.85505 0.8673 0.0
O168 O 0.58985 0.93914 0.77657 0.0
C169 C 0.72906 0.5172 0.77845 0.0
O170 O 0.69108 0.47578 0.79921 0.0
O171 O 0.60988 0.48044 0.75495 0.0
Zn172 Zn 0.65918 0.54218 0.81185 0.0
O173 O 0.65359 0.53579 0.93206 0.0
C174 C 0.59771 0.57739 0.78343 0.0
O175 O 0.5704 0.53431 0.81507 0.0
O176 O 0.72607 0.55561 0.7791 0.0
C177 C 0.68125 0.57399 0.9714 0.0
O178 O 0.71068 0.61407 0.93283 0.0
C179 C 0.57702 0.44255 0.78914 0.0
O180 O 0.57435 0.44082 0.8673 0.0
O181 O 0.64311 0.59367 0.77656 0.0
C182 C 0.20427 0.73287 0.7784 0.0
O183 O 0.20772 0.69489 0.79912 0.0
O184 O 0.12185 0.61368 0.75494 0.0
Zn185 Zn 0.1094 0.66297 0.81185 0.0
O186 O 0.11021 0.65739 0.93206 0.0
C187 C 0.01271 0.60148 0.78341 0.0
O188 O 0.02848 0.57418 0.81503 0.0
O189 O 0.16286 0.72986 0.77909 0.0
C190 C 0.09966 0.68504 0.9714 0.0
O191 O 0.08901 0.71446 0.93283 0.0
C192 C 0.12689 0.58084 0.78914 0.0
O193 O 0.12594 0.57816 0.8673 0.0
O194 O 0.04183 0.64689 0.77656 0.0
C195 C 0.46378 0.20808 0.77838 0.0
O196 O 0.50521 0.21153 0.79909 0.0
O197 O 0.50055 0.12566 0.75495 0.0
Zn198 Zn 0.4388 0.11321 0.81185 0.0
O199 O 0.4452 0.11403 0.93206 0.0
C200 C 0.40361 0.01653 0.78348 0.0
O201 O 0.44668 0.03231 0.81515 0.0
O202 O 0.42537 0.16666 0.77908 0.0
C203 C 0.407 0.10347 0.9714 0.0
O204 O 0.36692 0.09281 0.93283 0.0
C205 C 0.53843 0.13069 0.78914 0.0
O206 O 0.54015 0.12972 0.8673 0.0
O207 O 0.38732 0.04564 0.77657 0.0
C208 C 0.24811 0.46758 0.77845 0.0
O209 O 0.28609 0.509 0.79921 0.0
O210 O 0.36729 0.50434 0.75495 0.0
Zn211 Zn 0.31799 0.44259 0.81185 0.0
O212 O 0.32358 0.44899 0.93206 0.0
C213 C 0.37946 0.40739 0.78343 0.0
O214 O 0.40677 0.45047 0.81507 0.0
O215 O 0.2511 0.42917 0.7791 0.0
C216 C 0.29592 0.41079 0.9714 0.0
O217 O 0.26649 0.37071 0.93283 0.0
C218 C 0.40015 0.54223 0.78914 0.0
O219 O 0.40282 0.54395 0.8673 0.0
O220 O 0.33406 0.39111 0.77656 0.0
C221 C 0.7729 0.2519 0.7784 0.0
O222 O 0.76945 0.28988 0.79912 0.0
O223 O 0.85532 0.3711 0.75494 0.0
Zn224 Zn 0.86777 0.3218 0.81185 0.0
O225 O 0.86696 0.32739 0.93206 0.0
C226 C 0.96446 0.38329 0.78341 0.0
O227 O 0.94869 0.4106 0.81503 0.0
O228 O 0.81431 0.25491 0.77909 0.0
C229 C 0.87751 0.29974 0.9714 0.0
O230 O 0.88816 0.27032 0.93283 0.0
C231 C 0.85028 0.40394 0.78914 0.0
O232 O 0.85123 0.40662 0.8673 0.0
O233 O 0.93534 0.33789 0.77656 0.0
C234 C 0.20426 0.46758 0.75188 0.0
O235 O 0.20771 0.50901 0.73112 0.0
O236 O 0.12186 0.50437 0.77539 0.0
Zn237 Zn 0.10939 0.44261 0.71849 0.0
O238 O 0.11019 0.449 0.59828 0.0
C239 C 0.01271 0.40743 0.747 0.0
O240 O 0.02848 0.45051 0.7154 0.0
O241 O 0.16284 0.42918 0.75124 0.0
C242 C 0.09963 0.4108 0.55894 0.0
O243 O 0.08897 0.37072 0.59751 0.0
C244 C 0.12688 0.54224 0.74119 0.0
O245 O 0.12591 0.54396 0.66303 0.0
O246 O 0.04182 0.39113 0.7538 0.0
C247 C 0.72905 0.20805 0.75183 0.0
O248 O 0.69107 0.21148 0.73103 0.0
O249 O 0.60986 0.12563 0.77539 0.0
Zn250 Zn 0.65915 0.11317 0.71849 0.0
O251 O 0.65355 0.11396 0.59828 0.0
C252 C 0.59767 0.0165 0.74707 0.0
O253 O 0.57033 0.03225 0.71551 0.0
O254 O 0.72604 0.16664 0.75123 0.0
C255 C 0.68121 0.10341 0.55894 0.0
O256 O 0.71064 0.09277 0.59751 0.0
C257 C 0.57702 0.13067 0.74119 0.0
O258 O 0.57434 0.12971 0.66303 0.0
O259 O 0.64308 0.04561 0.75381 0.0
C260 C 0.5134 0.73286 0.75181 0.0
O261 O 0.47199 0.69488 0.731 0.0
O262 O 0.47663 0.61368 0.77539 0.0
Zn263 Zn 0.53839 0.66297 0.71849 0.0
O264 O 0.532 0.65738 0.59828 0.0
C265 C 0.57358 0.6015 0.74701 0.0
O266 O 0.53049 0.57417 0.71541 0.0
O267 O 0.55181 0.72986 0.75123 0.0
C268 C 0.5702 0.68503 0.55894 0.0
O269 O 0.61028 0.71446 0.59751 0.0
C270 C 0.43875 0.58082 0.74119 0.0
O271 O 0.43703 0.57813 0.66303 0.0
O272 O 0.58987 0.6469 0.75381 0.0
C273 C 0.77291 0.51719 0.75188 0.0
O274 O 0.76946 0.47577 0.73112 0.0
O275 O 0.85531 0.48041 0.77539 0.0
Zn276 Zn 0.86778 0.54217 0.71849 0.0
O277 O 0.86698 0.53577 0.59828 0.0
C278 C 0.96446 0.57735 0.747 0.0
O279 O 0.94869 0.53427 0.7154 0.0
O280 O 0.81433 0.5556 0.75124 0.0
C281 C 0.87754 0.57398 0.55894 0.0
O282 O 0.8882 0.61405 0.59751 0.0
C283 C 0.85029 0.44253 0.74119 0.0
O284 O 0.85126 0.44082 0.66303 0.0
O285 O 0.93535 0.59365 0.7538 0.0
C286 C 0.24812 0.77673 0.75183 0.0
O287 O 0.2861 0.7733 0.73103 0.0
O288 O 0.36731 0.85914 0.77539 0.0
Zn289 Zn 0.31802 0.87161 0.71849 0.0
O290 O 0.32362 0.87082 0.59828 0.0
C291 C 0.37951 0.96828 0.74707 0.0
O292 O 0.40684 0.95253 0.71551 0.0
O293 O 0.25113 0.81814 0.75123 0.0
C294 C 0.29597 0.88137 0.55894 0.0
O295 O 0.26653 0.89201 0.59751 0.0
C296 C 0.40015 0.8541 0.74119 0.0
O297 O 0.40283 0.85507 0.66303 0.0
O298 O 0.33409 0.93916 0.75381 0.0
C299 C 0.46377 0.25192 0.75181 0.0
O300 O 0.50518 0.2899 0.731 0.0
O301 O 0.50054 0.3711 0.77539 0.0
Zn302 Zn 0.43878 0.3218 0.71849 0.0
O303 O 0.44517 0.3274 0.59828 0.0
C304 C 0.40359 0.38328 0.74701 0.0
O305 O 0.44668 0.41061 0.71541 0.0
O306 O 0.42536 0.25492 0.75123 0.0
C307 C 0.40697 0.29975 0.55894 0.0
O308 O 0.36689 0.27032 0.59751 0.0
C309 C 0.53842 0.40396 0.74119 0.0
O310 O 0.54014 0.40665 0.66303 0.0
O311 O 0.3873 0.33788 0.75381 0.0
loop_
_geom_bond_atom_site_label_1
_geom_bond_atom_site_label_2
_geom_bond_distance
_geom_bond_site_symmetry_2
_ccdc_geom_bond_type
C0 O1 1.160 . S
C0 O7 1.185 . S
O1 C0 1.160 . S
O2 Zn3 1.899 . S
O2 C10 1.284 . S
Zn3 O2 1.899 . S
Zn3 O4 2.032 . S
Zn3 O7 2.086 . S
Zn3 O12 1.977 . S
O4 Zn3 2.032 . S
O4 C8 1.278 . S
C5 O6 1.203 . S
C5 O12 1.267 . S
O6 C5 1.203 . S
O7 C0 1.185 . S
O7 Zn3 2.086 . S
C8 O4 1.278 . S
C8 O9 1.211 . S
O9 C8 1.211 . S
C10 O2 1.284 . S
C10 O11 1.273 . S
O11 C10 1.273 . S
O12 Zn3 1.977 . S
O12 C5 1.267 . S
C13 O14 1.160 . S
C13 O20 1.185 . S
O14 C13 1.160 . S
O15 Zn16 1.899 . S
O15 C23 1.284 . S
Zn16 O15 1.899 . S
Zn16 O17 2.032 . S
Zn16 O20 2.086 . S
Zn16 O25 1.977 . S
O17 Zn16 2.032 . S
O17 C21 1.278 . S
C18 O19 1.203 . S
C18 O25 1.267 . S
O19 C18 1.203 . S
O20 C13 1.185 . S
O20 Zn16 2.086 . S
C21 O17 1.278 . S
C21 O22 1.211 . S
O22 C21 1.211 . S
C23 O15 1.284 . S
C23 O24 1.273 . S
O24 C23 1.273 . S
O25 Zn16 1.977 . S
O25 C18 1.267 . S
C26 O27 1.160 . S
C26 O33 1.185 . S
O27 C26 1.160 . S
O28 Zn29 1.899 . S
O28 C36 1.284 . S
Zn29 O28 1.899 . S
Zn29 O30 2.032 . S
Zn29 O33 2.086 . S
Zn29 O38 1.977 . S
O30 Zn29 2.032 . S
O30 C34 1.278 . S
C31 O32 1.203 . S
C31 O38 1.267 . S
O32 C31 1.203 . S
O33 C26 1.185 . S
O33 Zn29 2.086 . S
C34 O30 1.278 . S
C34 O35 1.211 . S
O35 C34 1.211 . S
C36 O28 1.284 . S
C36 O37 1.273 . S
O37 C36 1.273 . S
O38 Zn29 1.977 . S
O38 C31 1.267 . S
C39 O40 1.160 . S
C39 O46 1.185 . S
O40 C39 1.160 . S
O41 Zn42 1.899 . S
O41 C49 1.284 . S
Zn42 O41 1.899 . S
Zn42 O43 2.032 . S
Zn42 O46 2.086 . S
Zn42 O51 1.977 . S
O43 Zn42 2.032 . S
O43 C47 1.278 . S
C44 O45 1.203 . S
C44 O51 1.267 . S
O45 C44 1.203 . S
O46 C39 1.185 . S
O46 Zn42 2.086 . S
C47 O43 1.278 . S
C47 O48 1.211 . S
O48 C47 1.211 . S
C49 O41 1.284 . S
C49 O50 1.273 . S
O50 C49 1.273 . S
O51 Zn42 1.977 . S
O51 C44 1.267 . S
C52 O53 1.160 . S
C52 O59 1.185 . S
O53 C52 1.160 . S
O54 Zn55 1.899 . S
O54 C62 1.284 . S
Zn55 O54 1.899 . S
Zn55 O56 2.032 . S
Zn55 O59 2.086 . S
Zn55 O64 1.977 . S
O56 Zn55 2.032 . S
O56 C60 1.278 . S
C57 O58 1.203 . S
C57 O64 1.267 . S
O58 C57 1.203 . S
O59 C52 1.185 . S
O59 Zn55 2.086 . S
C60 O56 1.278 . S
C60 O61 1.211 . S
O61 C60 1.211 . S
C62 O54 1.284 . S
C62 O63 1.273 . S
O63 C62 1.273 . S
O64 Zn55 1.977 . S
O64 C57 1.267 . S
C65 O66 1.160 . S
C65 O72 1.185 . S
O66 C65 1.160 . S
O67 Zn68 1.899 . S
O67 C75 1.284 . S
Zn68 O67 1.899 . S
Zn68 O69 2.032 . S
Zn68 O72 2.086 . S
Zn68 O77 1.977 . S
O69 Zn68 2.032 . S
O69 C73 1.278 . S
C70 O71 1.203 . S
C70 O77 1.267 . S
O71 C70 1.203 . S
O72 C65 1.185 . S
O72 Zn68 2.086 . S
C73 O69 1.278 . S
C73 O74 1.211 . S
O74 C73 1.211 . S
C75 O67 1.284 . S
C75 O76 1.273 . S
O76 C75 1.273 . S
O77 Zn68 1.977 . S
O77 C70 1.267 . S
C78 O79 1.160 . S
C78 O85 1.185 . S
O79 C78 1.160 . S
O80 Zn81 1.899 . S
O80 C88 1.284 . S
Zn81 O80 1.899 . S
Zn81 O82 2.032 . S
Zn81 O85 2.086 . S
Zn81 O90 1.977 . S
O82 Zn81 2.032 . S
O82 C86 1.278 . S
C83 O84 1.203 . S
C83 O90 1.267 . S
O84 C83 1.203 . S
O85 C78 1.185 . S
O85 Zn81 2.086 . S
C86 O82 1.278 . S
C86 O87 1.211 . S
O87 C86 1.211 . S
C88 O80 1.284 . S
C88 O89 1.273 . S
O89 C88 1.273 . S
O90 Zn81 1.977 . S
O90 C83 1.267 . S
C91 O92 1.160 . S
C91 O98 1.185 . S
O92 C91 1.160 . S
O93 Zn94 1.899 . S
O93 C101 1.284 . S
Zn94 O93 1.899 . S
Zn94 O95 2.032 . S
Zn94 O98 2.086 . S
Zn94 O103 1.977 . S
O95 Zn94 2.032 . S
O95 C99 1.278 . S
C96 O97 1.203 . S
C96 O103 1.267 . S
O97 C96 1.203 . S
O98 C91 1.185 . S
O98 Zn94 2.086 . S
C99 O95 1.278 . S
C99 O100 1.211 . S
O100 C99 1.211 . S
C101 O93 1.284 . S
C101 O102 1.273 . S
O102 C101 1.273 . S
O103 Zn94 1.977 . S
O103 C96 1.267 . S
C104 O105 1.160 . S
C104 O111 1.185 . S
O105 C104 1.160 . S
O106 Zn107 1.899 . S
O106 C114 1.284 . S
Zn107 O106 1.899 . S
Zn107 O108 2.032 . S
Zn107 O111 2.086 . S
Zn107 O116 1.977 . S
O108 Zn107 2.032 . S
O108 C112 1.278 . S
C109 O110 1.203 . S
C109 O116 1.267 . S
O110 C109 1.203 . S
O111 C104 1.185 . S
O111 Zn107 2.086 . S
C112 O108 1.278 . S
C112 O113 1.211 . S
O113 C112 1.211 . S
C114 O106 1.284 . S
C114 O115 1.273 . S
O115 C114 1.273 . S
O116 Zn107 1.977 . S
O116 C109 1.267 . S
C117 O118 1.160 . S
C117 O124 1.185 . S
O118 C117 1.160 . S
O119 Zn120 1.899 . S
O119 C127 1.284 . S
Zn120 O119 1.899 . S
Zn120 O121 2.032 . S
Zn120 O124 2.086 . S
Zn120 O129 1.977 . S
O121 Zn120 2.032 . S
O121 C125 1.278 . S
C122 O123 1.203 . S
C122 O129 1.267 . S
O123 C122 1.203 . S
O124 C117 1.185 . S
O124 Zn120 2.086 . S
C125 O121 1.278 . S
C125 O126 1.211 . S
O126 C125 1.211 . S
C127 O119 1.284 . S
C127 O128 1.273 . S
O128 C127 1.273 . S
O129 Zn120 1.977 . S
O129 C122 1.267 . S
C130 O131 1.160 . S
C130 O137 1.185 . S
O131 C130 1.160 . S
O132 Zn133 1.899 . S
O132 C140 1.284 . S
Zn133 O132 1.899 . S
Zn133 O134 2.032 . S
Zn133 O137 2.086 . S
Zn133 O142 1.977 . S
O134 Zn133 2.032 . S
O134 C138 1.278 . S
C135 O136 1.203 . S
C135 O142 1.267 . S
O136 C135 1.203 . S
O137 C130 1.185 . S
O137 Zn133 2.086 . S
C138 O134 1.278 . S
C138 O139 1.211 . S
O139 C138 1.211 . S
C140 O132 1.284 . S
C140 O141 1.273 . S
O141 C140 1.273 . S
O142 Zn133 1.977 . S
O142 C135 1.267 . S
C143 O144 1.160 . S
C143 O150 1.185 . S
O144 C143 1.160 . S
O145 Zn146 1.899 . S
O145 C153 1.284 . S
Zn146 O145 1.899 . S
Zn146 O147 2.032 . S
Zn146 O150 2.086 . S
Zn146 O155 1.977 . S
O147 Zn146 2.032 . S
O147 C151 1.278 . S
C148 O149 1.203 . S
C148 O155 1.267 . S
O149 C148 1.203 . S
O150 C143 1.185 . S
O150 Zn146 2.086 . S
C151 O147 1.278 . S
C151 O152 1.211 . S
O152 C151 1.211 . S
C153 O145 1.284 . S
C153 O154 1.273 . S
O154 C153 1.273 . S
O155 Zn146 1.977 . S
O155 C148 1.267 . S
C156 O157 1.160 . S
C156 O163 1.185 . S
O157 C156 1.160 . S
O158 Zn159 1.899 . S
O158 C166 1.284 . S
Zn159 O158 1.899 . S
Zn159 O160 2.032 . S
Zn159 O163 2.086 . S
Zn159 O168 1.977 . S
O160 Zn159 2.032 . S
O160 C164 1.278 . S
C161 O162 1.203 . S
C161 O168 1.267 . S
O162 C161 1.203 . S
O163 C156 1.185 . S
O163 Zn159 2.086 . S
C164 O160 1.278 . S
C164 O165 1.211 . S
O165 C164 1.211 . S
C166 O158 1.284 . S
C166 O167 1.273 . S
O167 C166 1.273 . S
O168 Zn159 1.977 . S
O168 C161 1.267 . S
C169 O170 1.160 . S
C169 O176 1.185 . S
O170 C169 1.160 . S
O171 Zn172 1.899 . S
O171 C179 1.284 . S
Zn172 O171 1.899 . S
Zn172 O173 2.032 . S
Zn172 O176 2.086 . S
Zn172 O181 1.977 . S
O173 Zn172 2.032 . S
O173 C177 1.278 . S
C174 O175 1.203 . S
C174 O181 1.267 . S
O175 C174 1.203 . S
O176 C169 1.185 . S
O176 Zn172 2.086 . S
C177 O173 1.278 . S
C177 O178 1.211 . S
O178 C177 1.211 . S
C179 O171 1.284 . S
C179 O180 1.273 . S
O180 C179 1.273 . S
O181 Zn172 1.977 . S
O181 C174 1.267 . S
C182 O183 1.160 . S
C182 O189 1.185 . S
O183 C182 1.160 . S
O184 Zn185 1.899 . S
O184 C192 1.284 . S
Zn185 O184 1.899 . S
Zn185 O186 2.032 . S
Zn185 O189 2.086 . S
Zn185 O194 1.977 . S
O186 Zn185 2.032 . S
O186 C190 1.278 . S
C187 O188 1.203 . S
C187 O194 1.267 . S
O188 C187 1.203 . S
O189 C182 1.185 . S
O189 Zn185 2.086 . S
C190 O186 1.278 . S
C190 O191 1.211 . S
O191 C190 1.211 . S
C192 O184 1.284 . S
C192 O193 1.273 . S
O193 C192 1.273 . S
O194 Zn185 1.977 . S
O194 C187 1.267 . S
C195 O196 1.160 . S
C195 O202 1.185 . S
O196 C195 1.160 . S
O197 Zn198 1.899 . S
O197 C205 1.284 . S
Zn198 O197 1.899 . S
Zn198 O199 2.032 . S
Zn198 O202 2.086 . S
Zn198 O207 1.977 . S
O199 Zn198 2.032 . S
O199 C203 1.278 . S
C200 O201 1.203 . S
C200 O207 1.267 . S
O201 C200 1.203 . S
O202 C195 1.185 . S
O202 Zn198 2.086 . S
C203 O199 1.278 . S
C203 O204 1.211 . S
O204 C203 1.211 . S
C205 O197 1.284 . S
C205 O206 1.273 . S
O206 C205 1.273 . S
O207 Zn198 1.977 . S
O207 C200 1.267 . S
C208 O209 1.160 . S
C208 O215 1.185 . S
O209 C208 1.160 . S
O210 Zn211 1.899 . S
O210 C218 1.284 . S
Zn211 O210 1.899 . S
Zn211 O212 2.032 . S
Zn211 O215 2.086 . S
Zn211 O220 1.977 . S
O212 Zn211 2.032 . S
O212 C216 1.278 . S
C213 O214 1.203 . S
C213 O220 1.267 . S
O214 C213 1.203 . S
O215 C208 1.185 . S
O215 Zn211 2.086 . S
C216 O212 1.278 . S
C216 O217 1.211 . S
O217 C216 1.211 . S
C218 O210 1.284 . S
C218 O219 1.273 . S
O219 C218 1.273 . S
O220 Zn211 1.977 . S
O220 C213 1.267 . S
C221 O222 1.160 . S
C221 O228 1.185 . S
O222 C221 1.160 . S
O223 Zn224 1.899 . S
O223 C231 1.284 . S
Zn224 O223 1.899 . S
Zn224 O225 2.032 . S
Zn224 O228 2.086 . S
Zn224 O233 1.977 . S
O225 Zn224 2.032 . S
O225 C229 1.278 . S
C226 O227 1.203 . S
C226 O233 1.267 . S
O227 C226 1.203 . S
O228 C221 1.185 . S
O228 Zn224 2.086 . S
C229 O225 1.278 . S
C229 O230 1.211 . S
O230 C229 1.211 . S
C231 O223 1.284 . S
C231 O232 1.273 . S
O232 C231 1.273 . S
O233 Zn224 1.977 . S
O233 C226 1.267 . S
C234 O235 1.160 . S
C234 O241 1.185 . S
O235 C234 1.160 . S
O236 Zn237 1.899 . S
O236 C244 1.284 . S
Zn237 O236 1.899 . S
Zn237 O238 2.032 . S
Zn237 O241 2.086 . S
Zn237 O246 1.977 . S
O238 Zn237 2.032 . S
O238 C242 1.278 . S
C239 O240 1.203 . S
C239 O246 1.267 . S
O240 C239 1.203 . S
O241 C234 1.185 . S
O241 Zn237 2.086 . S
C242 O238 1.278 . S
C242 O243 1.211 . S
O243 C242 1.211 . S
C244 O236 1.284 . S
C244 O245 1.273 . S
O245 C244 1.273 . S
O246 Zn237 1.977 . S
O246 C239 1.267 . S
C247 O248 1.160 . S
C247 O254 1.185 . S
O248 C247 1.160 . S
O249 Zn250 1.899 . S
O249 C257 1.284 . S
Zn250 O249 1.899 . S
Zn250 O251 2.032 . S
Zn250 O254 2.086 . S
Zn250 O259 1.977 . S
O251 Zn250 2.032 . S
O251 C255 1.278 . S
C252 O253 1.203 . S
C252 O259 1.267 . S
O253 C252 1.203 . S
O254 C247 1.185 . S
O254 Zn250 2.086 . S
C255 O251 1.278 . S
C255 O256 1.211 . S
O256 C255 1.211 . S
C257 O249 1.284 . S
C257 O258 1.273 . S
O258 C257 1.273 . S
O259 Zn250 1.977 . S
O259 C252 1.267 . S
C260 O261 1.160 . S
C260 O267 1.185 . S
O261 C260 1.160 . S
O262 Zn263 1.899 . S
O262 C270 1.284 . S
Zn263 O262 1.899 . S
Zn263 O264 2.032 . S
Zn263 O267 2.086 . S
Zn263 O272 1.977 . S
O264 Zn263 2.032 . S
O264 C268 1.278 . S
C265 O266 1.203 . S
C265 O272 1.267 . S
O266 C265 1.203 . S
O267 C260 1.185 . S
O267 Zn263 2.086 . S
C268 O264 1.278 . S
C268 O269 1.211 . S
O269 C268 1.211 . S
C270 O262 1.284 . S
C270 O271 1.273 . S
O271 C270 1.273 . S
O272 Zn263 1.977 . S
O272 C265 1.267 . S
C273 O274 1.160 . S
C273 O280 1.185 . S
O274 C273 1.160 . S
O275 Zn276 1.899 . S
O275 C283 1.284 . S
Zn276 O275 1.899 . S
Zn276 O277 2.032 . S
Zn276 O280 2.086 . S
Zn276 O285 1.977 . S
O277 Zn276 2.032 . S
O277 C281 1.278 . S
C278 O279 1.203 . S
C278 O285 1.267 . S
O279 C278 1.203 . S
O280 C273 1.185 . S
O280 Zn276 2.086 . S
C281 O277 1.278 . S
C281 O282 1.211 . S
O282 C281 1.211 . S
C283 O275 1.284 . S
C283 O284 1.273 . S
O284 C283 1.273 . S
O285 Zn276 1.977 . S
O285 C278 1.267 . S
C286 O287 1.160 . S
C286 O293 1.185 . S
O287 C286 1.160 . S
O288 Zn289 1.899 . S
O288 C296 1.284 . S
Zn289 O288 1.899 . S
Zn289 O290 2.032 . S
Zn289 O293 2.086 . S
Zn289 O298 1.977 . S
O290 Zn289 2.032 . S
O290 C294 1.278 . S
C291 O292 1.203 . S
C291 O298 1.267 . S
O292 C291 1.203 . S
O293 C286 1.185 . S
O293 Zn289 2.086 . S
C294 O290 1.278 . S
C294 O295 1.211 . S
O295 C294 1.211 . S
C296 O288 1.284 . S
C296 O297 1.273 . S
O297 C296 1.273 . S
O298 Zn289 1.977 . S
O298 C291 1.267 . S
C299 O300 1.160 . S
C299 O306 1.185 . S
O300 C299 1.160 . S
O301 Zn302 1.899 . S
O301 C309 1.284 . S
Zn302 O301 1.899 . S
Zn302 O303 2.032 . S
Zn302 O306 2.086 . S
Zn302 O311 1.977 . S
O303 Zn302 2.032 . S
O303 C307 1.278 . S
C304 O305 1.203 . S
C304 O311 1.267 . S
O305 C304 1.203 . S
O306 C299 1.185 . S
O306 Zn302 2.086 . S
C307 O303 1.278 . S
C307 O308 1.211 . S
O308 C307 1.211 . S
C309 O301 1.284 . S
C309 O310 1.273 . S
O310 C309 1.273 . S
O311 Zn302 1.977 . S
O311 C304 1.267 . S
C5 C96 1.141 1_545 S
C109 C18 1.141 . S
C31 C122 1.141 1_655 S
C44 C135 1.141 1_565 S
C148 C57 1.141 . S
C70 C83 1.141 1_455 S
C161 C252 1.141 1_565 S
C174 C265 1.141 . S
C278 C187 1.141 1_655 S
C200 C291 1.141 1_545 S
C213 C304 1.141 . S
C239 C226 1.141 1_455 S
C0 C104 1.206 . S
C117 C13 1.206 . S
C130 C26 1.206 . S
C39 C143 1.206 . S
C52 C78 1.206 . S
C65 C91 1.206 . S
C260 C156 1.206 . S
C169 C273 1.206 . S
C286 C182 1.206 . S
C299 C195 1.206 . S
C234 C208 1.206 . S
C221 C247 1.206 . S
C8 C203 1.402 1_554 S
C216 C21 1.402 1_556 S
C229 C34 1.402 1_556 S
C47 C164 1.402 1_554 S
C60 C177 1.402 1_554 S
C190 C73 1.402 1_556 S
C281 C86 1.402 . S
C294 C99 1.402 . S
C307 C112 1.402 . S
C242 C125 1.402 . S
C138 C255 1.402 . S
C151 C268 1.402 . S
C10 C140 1.600 . S
C153 C23 1.600 . S
C88 C36 1.600 . S
C49 C101 1.600 . S
C62 C114 1.600 . S
C75 C127 1.600 . S
C166 C296 1.600 . S
C179 C309 1.600 . S
C192 C244 1.600 . S
C257 C205 1.600 . S
C218 C270 1.600 . S
C231 C283 1.600 . S
