# Generated by pormake.
# Topology vbm, (6)-cn, num edge types: 1
# Building blocks:
#     Node 0, Type 0, BuildingBlock: JUFBIX_clean_sbu_0, # of connection points: 6
#     Node 1, Type 0, BuildingBlock: JUFBIX_clean_sbu_0, # of connection points: 6
#     Node 2, Type 0, BuildingBlock: JUFBIX_clean_sbu_0, # of connection points: 6
#     Node 3, Type 0, BuildingBlock: JUFBIX_clean_sbu_0, # of connection points: 6
#     Node 4, Type 0, BuildingBlock: JUFBIX_clean_sbu_0, # of connection points: 6
#     Node 5, Type 0, BuildingBlock: JUFBIX_clean_sbu_0, # of connection points: 6
#     Node 6, Type 0, BuildingBlock: JUFBIX_clean_sbu_0, # of connection points: 6
#     Node 7, Type 0, BuildingBlock: JUFBIX_clean_sbu_0, # of connection points: 6
#     Node 8, Type 0, BuildingBlock: JUFBIX_clean_sbu_0, # of connection points: 6
#     Node 9, Type 0, BuildingBlock: JUFBIX_clean_sbu_0, # of connection points: 6
#     Node 10, Type 0, BuildingBlock: JUFBIX_clean_sbu_0, # of connection points: 6
#     Node 11, Type 0, BuildingBlock: JUFBIX_clean_sbu_0, # of connection points: 6
#     Node 12, Type 0, BuildingBlock: JUFBIX_clean_sbu_0, # of connection points: 6
#     Node 13, Type 0, BuildingBlock: JUFBIX_clean_sbu_0, # of connection points: 6
#     Node 14, Type 0, BuildingBlock: JUFBIX_clean_sbu_0, # of connection points: 6
#     Node 15, Type 0, BuildingBlock: JUFBIX_clean_sbu_0, # of connection points: 6
#     Edge 16, Type (0, 0), BuildingBlock: EZIPEK_clean_linker_0, # of connection points: 2
#     Edge 17, Type (0, 0), BuildingBlock: EZIPEK_clean_linker_0, # of connection points: 2
#     Edge 18, Type (0, 0), BuildingBlock: EZIPEK_clean_linker_0, # of connection points: 2
#     Edge 19, Type (0, 0), BuildingBlock: EZIPEK_clean_linker_0, # of connection points: 2
#     Edge 20, Type (0, 0), BuildingBlock: EZIPEK_clean_linker_0, # of connection points: 2
#     Edge 21, Type (0, 0), BuildingBlock: EZIPEK_clean_linker_0, # of connection points: 2
#     Edge 22, Type (0, 0), BuildingBlock: EZIPEK_clean_linker_0, # of connection points: 2
#     Edge 23, Type (0, 0), BuildingBlock: EZIPEK_clean_linker_0, # of connection points: 2
#     Edge 24, Type (0, 0), BuildingBlock: EZIPEK_clean_linker_0, # of connection points: 2
#     Edge 25, Type (0, 0), BuildingBlock: EZIPEK_clean_linker_0, # of connection points: 2
#     Edge 26, Type (0, 0), BuildingBlock: EZIPEK_clean_linker_0, # of connection points: 2
#     Edge 27, Type (0, 0), BuildingBlock: EZIPEK_clean_linker_0, # of connection points: 2
#     Edge 28, Type (0, 0), BuildingBlock: EZIPEK_clean_linker_0, # of connection points: 2
#     Edge 29, Type (0, 0), BuildingBlock: EZIPEK_clean_linker_0, # of connection points: 2
#     Edge 30, Type (0, 0), BuildingBlock: EZIPEK_clean_linker_0, # of connection points: 2
#     Edge 31, Type (0, 0), BuildingBlock: EZIPEK_clean_linker_0, # of connection points: 2
#     Edge 32, Type (0, 0), BuildingBlock: EZIPEK_clean_linker_0, # of connection points: 2
#     Edge 33, Type (0, 0), BuildingBlock: EZIPEK_clean_linker_0, # of connection points: 2
#     Edge 34, Type (0, 0), BuildingBlock: EZIPEK_clean_linker_0, # of connection points: 2
#     Edge 35, Type (0, 0), BuildingBlock: EZIPEK_clean_linker_0, # of connection points: 2
#     Edge 36, Type (0, 0), BuildingBlock: EZIPEK_clean_linker_0, # of connection points: 2
#     Edge 37, Type (0, 0), BuildingBlock: EZIPEK_clean_linker_0, # of connection points: 2
#     Edge 38, Type (0, 0), BuildingBlock: EZIPEK_clean_linker_0, # of connection points: 2
#     Edge 39, Type (0, 0), BuildingBlock: EZIPEK_clean_linker_0, # of connection points: 2
#     Edge 40, Type (0, 0), BuildingBlock: EZIPEK_clean_linker_0, # of connection points: 2
#     Edge 41, Type (0, 0), BuildingBlock: EZIPEK_clean_linker_0, # of connection points: 2
#     Edge 42, Type (0, 0), BuildingBlock: EZIPEK_clean_linker_0, # of connection points: 2
#     Edge 43, Type (0, 0), BuildingBlock: EZIPEK_clean_linker_0, # of connection points: 2
#     Edge 44, Type (0, 0), BuildingBlock: EZIPEK_clean_linker_0, # of connection points: 2
#     Edge 45, Type (0, 0), BuildingBlock: EZIPEK_clean_linker_0, # of connection points: 2
#     Edge 46, Type (0, 0), BuildingBlock: EZIPEK_clean_linker_0, # of connection points: 2
#     Edge 47, Type (0, 0), BuildingBlock: EZIPEK_clean_linker_0, # of connection points: 2
#     Edge 48, Type (0, 0), BuildingBlock: EZIPEK_clean_linker_0, # of connection points: 2
#     Edge 49, Type (0, 0), BuildingBlock: EZIPEK_clean_linker_0, # of connection points: 2
#     Edge 50, Type (0, 0), BuildingBlock: EZIPEK_clean_linker_0, # of connection points: 2
#     Edge 51, Type (0, 0), BuildingBlock: EZIPEK_clean_linker_0, # of connection points: 2
#     Edge 52, Type (0, 0), BuildingBlock: EZIPEK_clean_linker_0, # of connection points: 2
#     Edge 53, Type (0, 0), BuildingBlock: EZIPEK_clean_linker_0, # of connection points: 2
#     Edge 54, Type (0, 0), BuildingBlock: EZIPEK_clean_linker_0, # of connection points: 2
#     Edge 55, Type (0, 0), BuildingBlock: EZIPEK_clean_linker_0, # of connection points: 2
#     Edge 56, Type (0, 0), BuildingBlock: EZIPEK_clean_linker_0, # of connection points: 2
#     Edge 57, Type (0, 0), BuildingBlock: EZIPEK_clean_linker_0, # of connection points: 2
#     Edge 58, Type (0, 0), BuildingBlock: EZIPEK_clean_linker_0, # of connection points: 2
#     Edge 59, Type (0, 0), BuildingBlock: EZIPEK_clean_linker_0, # of connection points: 2
#     Edge 60, Type (0, 0), BuildingBlock: EZIPEK_clean_linker_0, # of connection points: 2
#     Edge 61, Type (0, 0), BuildingBlock: EZIPEK_clean_linker_0, # of connection points: 2
#     Edge 62, Type (0, 0), BuildingBlock: EZIPEK_clean_linker_0, # of connection points: 2
#     Edge 63, Type (0, 0), BuildingBlock: EZIPEK_clean_linker_0, # of connection points: 2
# Relax obj value: 0.012
# Max RMSD: 0.059
# Mean RMSD: 0.059
data_MOF--net-vbm--node1-JUFBIX_clean_sbu_0--edge1-EZIPEK_clean_linker_0
_symmetry_space_group_name_H-M    P1
_symmetry_Int_Tables_number       1
_symmetry_cell_setting            triclinic
loop_
_symmetry_equiv_pos_as_xyz
'x, y, z'
_cell_length_a     61.905031
_cell_length_b     10.89503
_cell_length_c     43.216407
_cell_angle_alpha  90.032907
_cell_angle_beta   90.567934
_cell_angle_gamma 90.008201
loop_
_atom_site_label
_atom_site_type_symbol
_atom_site_fract_x
_atom_site_fract_y
_atom_site_fract_z
_atom_type_partial_charge
Co0 Co 0.18493 0.03279 0.13436 0.0
C1 C 0.15993 0.0239 0.18949 0.0
Co2 Co 0.1491 0.03188 0.12815 0.0
C3 C 0.23005 0.11002 0.1305 0.0
C4 C 0.22499 0.97814 0.16638 0.0
N5 N 0.21476 0.036 0.14286 0.0
N6 N 0.24919 0.1025 0.1459 0.0
C7 C 0.246 0.01907 0.16838 0.0
H8 H 0.2269 0.17335 0.1117 0.0
H9 H 0.21739 0.91489 0.18215 0.0
C10 C 0.17397 0.03637 0.07297 0.0
N11 N 0.11934 0.03436 0.11954 0.0
C12 C 0.10236 0.9799 0.13368 0.0
C13 C 0.1103 0.10209 0.09668 0.0
N14 N 0.08328 0.01171 0.12031 0.0
C15 C 0.08826 0.08836 0.09712 0.0
C16 C 0.167 0.26523 0.13226 0.0
O17 O 0.19024 0.03986 0.09111 0.0
O18 O 0.15505 0.03062 0.08424 0.0
O19 O 0.14943 0.20654 0.12834 0.0
O20 O 0.18454 0.20642 0.13592 0.0
O21 O 0.14372 0.03132 0.17133 0.0
H22 H 0.11918 0.15978 0.08091 0.0
H23 H 0.10389 0.91999 0.15355 0.0
O24 O 0.17893 0.02391 0.17834 0.0
O25 O 0.1848 0.85808 0.13204 0.0
O26 O 0.1493 0.8581 0.12873 0.0
C27 C 0.16704 0.79903 0.1302 0.0
H28 H 0.25788 0.99278 0.18571 0.0
H29 H 0.07667 0.13247 0.08184 0.0
Co30 Co 0.89195 0.96476 0.13549 0.0
C31 C 0.91838 0.9786 0.18998 0.0
Co32 Co 0.92773 0.9651 0.12878 0.0
C33 C 0.84676 0.88719 0.13221 0.0
C34 C 0.85279 0.01415 0.16911 0.0
N35 N 0.86243 0.95873 0.14498 0.0
N36 N 0.82794 0.89398 0.14788 0.0
C37 C 0.83174 0.97416 0.17104 0.0
H38 H 0.84936 0.82691 0.11267 0.0
H39 H 0.86077 0.07606 0.18509 0.0
C40 C 0.90115 0.95507 0.07427 0.0
N41 N 0.95732 0.97178 0.1188 0.0
C42 C 0.97541 0.93937 0.13489 0.0
C43 C 0.96488 0.02213 0.09245 0.0
N44 N 0.99366 0.96791 0.11935 0.0
C45 C 0.98702 0.01948 0.09272 0.0
C46 C 0.91067 0.73228 0.13385 0.0
O47 O 0.88526 0.95508 0.09259 0.0
O48 O 0.92028 0.96056 0.08527 0.0
O49 O 0.92825 0.7906 0.12962 0.0
O50 O 0.89313 0.79115 0.13739 0.0
O51 O 0.93435 0.97088 0.17182 0.0
H52 H 0.95499 0.06167 0.07429 0.0
H53 H 0.97527 0.89873 0.15773 0.0
O54 O 0.89921 0.97573 0.17898 0.0
O55 O 0.89138 0.13992 0.13295 0.0
O56 O 0.92671 0.13885 0.12868 0.0
C57 C 0.90912 0.19853 0.13052 0.0
H58 H 0.82021 -0.00039 0.1886 0.0
H59 H 0.99755 0.05557 0.07505 0.0
Co60 Co 0.18511 0.94307 0.37735 0.0
C61 C 0.15936 0.95359 0.32214 0.0
Co62 Co 0.14941 0.9454 0.38321 0.0
C63 C 0.2303 0.86859 0.38106 0.0
C64 C 0.22412 0.99766 0.3447 0.0
N65 N 0.21453 0.93917 0.36839 0.0
N66 N 0.24915 0.87869 0.36566 0.0
C67 C 0.24529 0.96017 0.34285 0.0
H68 H 0.22777 0.80663 0.40026 0.0
H69 H 0.21602 0.06012 0.32899 0.0
C70 C 0.17532 0.94165 0.43846 0.0
N71 N 0.11974 0.94352 0.39241 0.0
C72 C 0.10221 0.98204 0.37595 0.0
C73 C 0.11138 0.89525 0.41849 0.0
N74 N 0.08353 0.96087 0.39114 0.0
C75 C 0.08933 0.90634 0.41783 0.0
C76 C 0.16666 0.71054 0.37938 0.0
O77 O 0.19143 0.94427 0.42053 0.0
O78 O 0.15634 0.93847 0.42688 0.0
O79 O 0.14916 0.7711 0.38078 0.0
O80 O 0.18445 0.76857 0.37813 0.0
O81 O 0.14327 0.95424 0.34016 0.0
H82 H 0.12061 0.85268 0.43692 0.0
H83 H 0.10306 0.02431 0.35333 0.0
O84 O 0.17837 0.94384 0.33344 0.0
O85 O 0.18528 0.11704 0.3773 0.0
O86 O 0.1501 0.11942 0.38485 0.0
C87 C 0.16782 0.17682 0.38101 0.0
H88 H 0.25686 0.98805 0.32559 0.0
H89 H 0.07827 0.87538 0.43545 0.0
Co90 Co 0.89306 0.06635 0.37694 0.0
C91 C 0.9169 0.05975 0.32228 0.0
Co92 Co 0.92857 0.06875 0.38473 0.0
C93 C 0.84782 0.1374 0.38175 0.0
C94 C 0.85326 0.00513 0.34601 0.0
N95 N 0.86336 0.06613 0.36915 0.0
N96 N 0.82862 0.12559 0.36678 0.0
C97 C 0.83203 0.04206 0.34436 0.0
H98 H 0.85078 0.20171 0.4004 0.0
H99 H 0.86109 0.94191 0.3304 0.0
C100 C 0.904 0.06792 0.43927 0.0
N101 N 0.9584 0.07417 0.39272 0.0
C102 C 0.97549 0.0295 0.37684 0.0
C103 C 0.96735 0.13276 0.41724 0.0
N104 N 0.99455 0.05669 0.39098 0.0
C105 C 0.98939 0.12156 0.41632 0.0
C106 C 0.91088 0.30114 0.37997 0.0
O107 O 0.88809 0.06063 0.42055 0.0
O108 O 0.92295 0.07668 0.42829 0.0
O109 O 0.92837 0.2415 0.38277 0.0
O110 O 0.89307 0.24292 0.37765 0.0
O111 O 0.93326 0.05851 0.3405 0.0
H112 H 0.95846 0.18261 0.43461 0.0
H113 H 0.97406 0.97857 0.35541 0.0
O114 O 0.8981 0.0685 0.3335 0.0
O115 O 0.8939 0.89113 0.37619 0.0
O116 O 0.92866 0.89566 0.38725 0.0
C117 C 0.91152 0.83454 0.38193 0.0
H118 H 0.82011 0.0126 0.32741 0.0
H119 H 1.00088 0.15954 0.43279 0.0
Co120 Co 0.92668 0.95286 0.88616 0.0
C121 C 0.9014 0.94817 0.94047 0.0
Co122 Co 0.89105 0.95122 0.87856 0.0
C123 C 0.97385 0.92532 0.87992 0.0
C124 C 0.96435 0.03046 0.9194 0.0
N125 N 0.95622 0.96628 0.8952 0.0
N126 N 0.99243 0.96179 0.8939 0.0
C127 C 0.98649 0.02756 0.91868 0.0
H128 H 0.97312 0.87248 0.85872 0.0
H129 H 0.9548 0.07918 0.9362 0.0
C130 C 0.91631 0.96121 0.82431 0.0
N131 N 0.86156 0.9395 0.86937 0.0
C132 C 0.84617 0.8684 0.88242 0.0
C133 C 0.85151 0.99395 0.84517 0.0
N134 N 0.82712 0.87449 0.86678 0.0
C135 C 0.83049 0.95364 0.84341 0.0
C136 C 0.90662 0.18643 0.88261 0.0
O137 O 0.93233 0.95586 0.84288 0.0
O138 O 0.8973 0.95678 0.83523 0.0
O139 O 0.88923 0.12588 0.87891 0.0
O140 O 0.92444 0.12936 0.8861 0.0
O141 O 0.88534 0.94896 0.92188 0.0
H142 H 0.85916 0.05641 0.82921 0.0
H143 H 0.84906 0.8098 0.90225 0.0
O144 O 0.92043 0.94871 0.9296 0.0
O145 O 0.92849 0.77824 0.88596 0.0
O146 O 0.89327 0.77505 0.87831 0.0
C147 C 0.91108 0.71793 0.88194 0.0
H148 H 0.99747 0.07266 0.93469 0.0
H149 H 0.81862 0.97886 0.82598 0.0
Co150 Co 0.14721 0.0197 0.88378 0.0
C151 C 0.17284 0.02844 0.93918 0.0
Co152 Co 0.18283 0.02415 0.87807 0.0
C153 C 0.1006 0.96465 0.8782 0.0
C154 C 0.10891 0.08429 0.91584 0.0
N155 N 0.11768 0.01905 0.89254 0.0
N156 N 0.08171 0.99436 0.89184 0.0
C157 C 0.08691 0.06925 0.91545 0.0
H158 H 0.1019 0.90647 0.858 0.0
H159 H 0.11791 0.14117 0.93189 0.0
C160 C 0.15742 0.01394 0.82258 0.0
N161 N 0.21231 0.02871 0.86934 0.0
C162 C 0.22797 0.09825 0.88269 0.0
C163 C 0.22197 0.97515 0.84495 0.0
N164 N 0.24678 0.09201 0.8671 0.0
C165 C 0.24304 0.01421 0.84345 0.0
C166 C 0.16593 0.78837 0.88209 0.0
O167 O 0.14119 0.01953 0.84033 0.0
O168 O 0.17635 0.01371 0.83435 0.0
O169 O 0.18341 0.84976 0.88077 0.0
O170 O 0.14798 0.84541 0.88307 0.0
O171 O 0.18885 0.03374 0.92111 0.0
H172 H 0.21398 0.91617 0.82832 0.0
H173 H 0.22534 0.15731 0.90246 0.0
O174 O 0.15383 0.01894 0.92783 0.0
O175 O 0.14687 0.19423 0.88383 0.0
O176 O 0.18186 0.19773 0.87619 0.0
C177 C 0.16419 0.25473 0.88014 0.0
H178 H 0.07549 0.11127 0.93105 0.0
H179 H 0.2546 0.99047 0.82578 0.0
Co180 Co 0.92807 0.05062 0.62998 0.0
C181 C 0.90413 0.05709 0.57387 0.0
Co182 Co 0.89226 0.05306 0.63501 0.0
C183 C 0.97474 0.99132 0.63598 0.0
C184 C 0.96727 0.1323 0.60304 0.0
N185 N 0.95797 0.05463 0.62328 0.0
N186 N 0.99395 0.02734 0.62421 0.0
C187 C 0.98925 0.11581 0.60358 0.0
H188 H 0.97296 0.92116 0.65349 0.0
H189 H 0.95858 0.19789 0.58885 0.0
C190 C 0.91605 0.0387 0.69108 0.0
N191 N 0.86233 0.0555 0.6416 0.0
C192 C 0.8471 0.13122 0.6293 0.0
C193 C 0.85183 0.99203 0.66362 0.0
N194 N 0.82776 0.11959 0.64345 0.0
C195 C 0.83075 0.03155 0.66494 0.0
C196 C 0.91018 0.81813 0.63115 0.0
O197 O 0.9325 0.03699 0.67361 0.0
O198 O 0.89735 0.05266 0.67899 0.0
O199 O 0.89262 0.87705 0.63508 0.0
O200 O 0.92779 0.87638 0.62734 0.0
O201 O 0.88774 0.05096 0.59133 0.0
H202 H 0.85924 0.92499 0.67874 0.0
H203 H 0.85041 0.19815 0.61146 0.0
O204 O 0.92293 0.06132 0.5861 0.0
O205 O 0.92793 0.22625 0.63295 0.0
O206 O 0.8925 0.22848 0.63469 0.0
C207 C 0.91034 0.28607 0.63404 0.0
H208 H 1.00098 0.16524 0.58997 0.0
H209 H 0.81865 0.00069 0.6811 0.0
Co210 Co 0.14914 0.96024 0.62706 0.0
C211 C 0.1742 0.9527 0.57261 0.0
Co212 Co 0.18489 0.95719 0.63465 0.0
C213 C 0.10163 0.93354 0.63375 0.0
C214 C 0.11132 0.03316 0.59351 0.0
N215 N 0.11938 0.97101 0.61809 0.0
N216 N 0.08308 0.97031 0.61963 0.0
C217 C 0.08918 0.03237 0.59435 0.0
H218 H 0.10226 0.88387 0.65542 0.0
H219 H 0.12093 0.08018 0.57645 0.0
C220 C 0.15962 0.96683 0.68901 0.0
N221 N 0.21464 0.94797 0.64338 0.0
C222 C 0.22991 0.87598 0.63022 0.0
C223 C 0.22492 0.00233 0.6674 0.0
N224 N 0.2491 0.88125 0.64559 0.0
C225 C 0.24592 0.96104 0.66894 0.0
C226 C 0.16851 0.19283 0.63033 0.0
O227 O 0.14363 0.96001 0.67037 0.0
O228 O 0.17873 0.96665 0.67824 0.0
O229 O 0.1861 0.13282 0.63291 0.0
O230 O 0.15067 0.13555 0.62782 0.0
O231 O 0.1903 0.94801 0.59113 0.0
H232 H 0.2174 0.06474 0.68352 0.0
H233 H 0.22677 0.81658 0.61058 0.0
O234 O 0.15528 0.96045 0.58364 0.0
O235 O 0.14823 0.78407 0.62653 0.0
O236 O 0.18324 0.78295 0.63624 0.0
C237 C 0.16572 0.72488 0.63142 0.0
H238 H 0.0783 0.07713 0.57815 0.0
H239 H 0.25787 0.98555 0.68633 0.0
Co240 Co 0.68386 0.55987 0.13569 0.0
C241 C 0.65979 0.53838 0.1901 0.0
Co242 Co 0.64822 0.5548 0.12798 0.0
C243 C 0.72912 0.63673 0.13106 0.0
C244 C 0.72414 0.49972 0.16575 0.0
N245 N 0.71378 0.56234 0.14315 0.0
N246 N 0.74843 0.62512 0.14588 0.0
C247 C 0.74527 0.53851 0.1676 0.0
H248 H 0.72593 0.70267 0.11285 0.0
H249 H 0.71656 0.43379 0.18088 0.0
C250 C 0.67186 0.57161 0.07346 0.0
N251 N 0.61828 0.55755 0.12075 0.0
C252 C 0.60168 0.49655 0.13413 0.0
C253 C 0.60868 0.63312 0.10003 0.0
N254 N 0.5823 0.5317 0.12229 0.0
C255 C 0.5867 0.61743 0.10093 0.0
C256 C 0.66585 0.79058 0.13434 0.0
O257 O 0.68827 0.56647 0.09155 0.0
O258 O 0.65303 0.56845 0.0848 0.0
O259 O 0.64824 0.73105 0.13132 0.0
O260 O 0.68351 0.73249 0.13715 0.0
O261 O 0.64372 0.5383 0.17151 0.0
H262 H 0.61714 0.69744 0.08544 0.0
H263 H 0.6037 0.42934 0.15237 0.0
O264 O 0.67873 0.55223 0.17936 0.0
O265 O 0.68385 0.386 0.13462 0.0
O266 O 0.64901 0.38041 0.12439 0.0
C267 C 0.66681 0.32411 0.12914 0.0
H268 H 0.7573 0.50803 0.18425 0.0
H269 H 0.57475 0.66622 0.08722 0.0
Co270 Co 0.39119 0.46376 0.13461 0.0
C271 C 0.41711 0.47744 0.18962 0.0
Co272 Co 0.42699 0.4668 0.12859 0.0
C273 C 0.34628 0.37961 0.131 0.0
C274 C 0.35169 0.50725 0.16792 0.0
N275 N 0.36159 0.45376 0.14373 0.0
N276 N 0.32744 0.38324 0.14673 0.0
C277 C 0.33086 0.4639 0.16988 0.0
H278 H 0.34918 0.31949 0.11152 0.0
H279 H 0.35939 0.56946 0.18409 0.0
C280 C 0.401 0.45357 0.07367 0.0
N281 N 0.45666 0.4774 0.11921 0.0
C282 C 0.4747 0.44653 0.13561 0.0
C283 C 0.46431 0.52846 0.093 0.0
N284 N 0.49301 0.47695 0.12043 0.0
C285 C 0.48646 0.52794 0.09368 0.0
C286 C 0.4107 0.23319 0.1331 0.0
O287 O 0.38495 0.45102 0.09169 0.0
O288 O 0.41999 0.46311 0.08499 0.0
O289 O 0.42816 0.29255 0.12886 0.0
O290 O 0.39309 0.29092 0.13701 0.0
O291 O 0.43321 0.4703 0.17169 0.0
H292 H 0.45449 0.56646 0.07456 0.0
H293 H 0.47448 0.40524 0.15837 0.0
O294 O 0.39804 0.47734 0.17822 0.0
O295 O 0.38987 0.63847 0.13136 0.0
O296 O 0.42525 0.64126 0.12899 0.0
C297 C 0.40742 0.69932 0.12979 0.0
H298 H 0.31926 0.48705 0.18753 0.0
H299 H 0.49704 0.56462 0.07615 0.0
Co300 Co 0.68463 0.44879 0.37788 0.0
C301 C 0.65977 0.45613 0.32279 0.0
Co302 Co 0.64908 0.44779 0.3842 0.0
C303 C 0.72992 0.3773 0.38242 0.0
C304 C 0.72406 0.5121 0.34729 0.0
N305 N 0.71424 0.44958 0.37012 0.0
N306 N 0.74893 0.38993 0.36752 0.0
C307 C 0.74525 0.47506 0.3455 0.0
H308 H 0.72718 0.31194 0.40083 0.0
H309 H 0.71608 0.57666 0.332 0.0
C310 C 0.67387 0.44384 0.43933 0.0
N311 N 0.61939 0.44342 0.39191 0.0
C312 C 0.60253 0.50364 0.37857 0.0
C313 C 0.61025 0.36981 0.41323 0.0
N314 N 0.58343 0.4695 0.39089 0.0
C315 C 0.58825 0.38555 0.41262 0.0
C316 C 0.66734 0.21434 0.37994 0.0
O317 O 0.68995 0.43734 0.42129 0.0
O318 O 0.65491 0.45224 0.42783 0.0
O319 O 0.64987 0.27207 0.38488 0.0
O320 O 0.68461 0.27399 0.37518 0.0
O321 O 0.64376 0.44345 0.34073 0.0
H322 H 0.61902 0.30727 0.42813 0.0
H323 H 0.60414 0.57009 0.36016 0.0
O324 O 0.67872 0.46101 0.33444 0.0
O325 O 0.68437 0.62382 0.38065 0.0
O326 O 0.64883 0.62359 0.38325 0.0
C327 C 0.6666 0.68232 0.38204 0.0
H328 H 0.75696 0.50561 0.32872 0.0
H329 H 0.57659 0.33844 0.42687 0.0
Co330 Co 0.39274 0.53862 0.37765 0.0
C331 C 0.41787 0.52974 0.32296 0.0
Co332 Co 0.42846 0.53605 0.38441 0.0
C333 C 0.34794 0.6232 0.38127 0.0
C334 C 0.35315 0.4944 0.34465 0.0
N335 N 0.36326 0.55063 0.36856 0.0
N336 N 0.32888 0.61621 0.36569 0.0
C337 C 0.33216 0.53502 0.34272 0.0
H338 H 0.3509 0.68354 0.40076 0.0
H339 H 0.36076 0.43054 0.32899 0.0
C340 C 0.40351 0.54316 0.43923 0.0
N341 N 0.45804 0.52131 0.39351 0.0
C342 C 0.47591 0.55985 0.37834 0.0
C343 C 0.46586 0.4566 0.41781 0.0
N344 N 0.4943 0.52131 0.39253 0.0
C345 C 0.488 0.45685 0.4173 0.0
C346 C 0.41293 0.77143 0.38063 0.0
O347 O 0.38714 0.54119 0.42118 0.0
O348 O 0.42233 0.54159 0.42766 0.0
O349 O 0.4304 0.71101 0.38408 0.0
O350 O 0.39506 0.71443 0.3775 0.0
O351 O 0.43404 0.5323 0.34128 0.0
H352 H 0.45609 0.40884 0.43449 0.0
H353 H 0.47547 0.61208 0.35705 0.0
O354 O 0.39891 0.53376 0.33412 0.0
O355 O 0.39078 0.3639 0.37794 0.0
O356 O 0.42603 0.35938 0.38453 0.0
C357 C 0.40813 0.3028 0.38139 0.0
H358 H 0.32026 0.50873 0.32542 0.0
H359 H 0.49872 0.41053 0.43343 0.0
Co360 Co 0.42607 0.42003 0.88565 0.0
C361 C 0.40126 0.41874 0.94018 0.0
Co362 Co 0.39048 0.41852 0.87806 0.0
C363 C 0.473 0.46194 0.87765 0.0
C364 C 0.46501 0.36265 0.91869 0.0
N365 N 0.45597 0.41737 0.89369 0.0
N366 N 0.4921 0.43865 0.89215 0.0
C367 C 0.48702 0.37627 0.9179 0.0
H368 H 0.47149 0.51041 0.85587 0.0
H369 H 0.45621 0.31409 0.93636 0.0
C370 C 0.4142 0.4299 0.82334 0.0
N371 N 0.36084 0.417 0.87021 0.0
C372 C 0.34544 0.34481 0.88274 0.0
C373 C 0.3506 0.47896 0.84738 0.0
N374 N 0.32617 0.35696 0.86799 0.0
C375 C 0.32939 0.44167 0.84582 0.0
C376 C 0.40844 0.65212 0.88286 0.0
O377 O 0.43069 0.42898 0.84134 0.0
O378 O 0.39549 0.41971 0.83473 0.0
O379 O 0.39085 0.59403 0.87794 0.0
O380 O 0.42583 0.59269 0.88757 0.0
O381 O 0.38534 0.4209 0.92144 0.0
H382 H 0.3583 0.54341 0.83196 0.0
H383 H 0.34852 0.27999 0.90124 0.0
O384 O 0.42034 0.41479 0.92942 0.0
O385 O 0.42625 0.24657 0.88413 0.0
O386 O 0.39101 0.24192 0.87814 0.0
C387 C 0.40897 0.18533 0.88072 0.0
H388 H 0.49853 0.34176 0.9348 0.0
H389 H 0.31736 0.47173 0.82913 0.0
Co390 Co 0.64678 0.56255 0.88429 0.0
C391 C 0.67194 0.57436 0.93928 0.0
Co392 Co 0.68244 0.56381 0.87769 0.0
C393 C 0.59963 0.52413 0.8768 0.0
C394 C 0.60846 0.63337 0.9161 0.0
N395 N 0.617 0.57147 0.89207 0.0
N396 N 0.5808 0.5526 0.8909 0.0
C397 C 0.58641 0.6213 0.91555 0.0
H398 H 0.60073 0.46944 0.85595 0.0
H399 H 0.61765 0.68508 0.93301 0.0
C400 C 0.65774 0.54642 0.82267 0.0
N401 N 0.71209 0.55956 0.87014 0.0
C402 C 0.7279 0.6307 0.88254 0.0
C403 C 0.72191 0.49486 0.84769 0.0
N404 N 0.747 0.61538 0.86805 0.0
C405 C 0.74325 0.52953 0.84621 0.0
C406 C 0.66358 0.32941 0.88326 0.0
O407 O 0.64152 0.55217 0.84054 0.0
O408 O 0.67667 0.55387 0.83425 0.0
O409 O 0.68136 0.38741 0.88017 0.0
O410 O 0.64604 0.38888 0.8863 0.0
O411 O 0.68786 0.57442 0.92099 0.0
H412 H 0.71386 0.43039 0.83244 0.0
H413 H 0.72522 0.69724 0.90072 0.0
O414 O 0.65287 0.56904 0.928 0.0
O415 O 0.64786 0.73856 0.88226 0.0
O416 O 0.68297 0.73787 0.87536 0.0
C417 C 0.66549 0.79698 0.87884 0.0
H418 H 0.57523 0.66061 0.93193 0.0
H419 H 0.75501 0.497 0.82973 0.0
Co420 Co 0.42863 0.54677 0.63175 0.0
C421 C 0.40588 0.55223 0.5743 0.0
Co422 Co 0.39273 0.54302 0.63461 0.0
C423 C 0.47522 0.48908 0.63806 0.0
C424 C 0.46781 0.63054 0.60522 0.0
N425 N 0.45848 0.55223 0.62528 0.0
N426 N 0.49443 0.5257 0.62648 0.0
C427 C 0.48979 0.61448 0.60593 0.0
H428 H 0.47342 0.41864 0.6555 0.0
H429 H 0.45916 0.69621 0.59102 0.0
C430 C 0.41638 0.52944 0.69161 0.0
N431 N 0.36272 0.54425 0.64083 0.0
C432 C 0.34742 0.61973 0.62861 0.0
C433 C 0.35236 0.48117 0.66305 0.0
N434 N 0.32814 0.60819 0.64298 0.0
C435 C 0.33127 0.52053 0.66453 0.0
C436 C 0.41074 0.31105 0.63143 0.0
O437 O 0.43307 0.53475 0.67485 0.0
O438 O 0.39767 0.53756 0.67907 0.0
O439 O 0.39303 0.3696 0.63345 0.0
O440 O 0.42847 0.37046 0.62944 0.0
O441 O 0.38881 0.54475 0.59049 0.0
H442 H 0.35993 0.41511 0.67834 0.0
H443 H 0.35064 0.68673 0.61075 0.0
O444 O 0.42397 0.55869 0.58823 0.0
O445 O 0.42806 0.7215 0.63456 0.0
O446 O 0.39263 0.71729 0.63541 0.0
C447 C 0.41012 0.77803 0.63544 0.0
H448 H 0.50155 0.66448 0.5925 0.0
H449 H 0.31929 0.4901 0.68092 0.0
Co450 Co 0.64925 0.46428 0.62699 0.0
C451 C 0.67366 0.45356 0.57339 0.0
Co452 Co 0.68462 0.46488 0.63613 0.0
C453 C 0.60204 0.43652 0.6352 0.0
C454 C 0.61102 0.52712 0.59329 0.0
N455 N 0.61948 0.47159 0.61859 0.0
N456 N 0.58326 0.46845 0.62098 0.0
C457 C 0.5889 0.52489 0.59466 0.0
H458 H 0.60304 0.39207 0.65756 0.0
H459 H 0.62034 0.57042 0.5753 0.0
C460 C 0.66012 0.47581 0.68974 0.0
N461 N 0.71443 0.45904 0.64409 0.0
C462 C 0.72968 0.38804 0.63057 0.0
C463 C 0.72479 0.51309 0.66808 0.0
N464 N 0.74891 0.39315 0.64579 0.0
C465 C 0.74582 0.47227 0.6693 0.0
C466 C 0.66758 0.69808 0.62993 0.0
O467 O 0.64419 0.47903 0.67082 0.0
O468 O 0.67916 0.46538 0.67937 0.0
O469 O 0.68479 0.63986 0.63685 0.0
O470 O 0.65069 0.63708 0.62343 0.0
O471 O 0.68968 0.46397 0.59199 0.0
H472 H 0.71728 0.57424 0.6845 0.0
H473 H 0.72646 0.32891 0.61092 0.0
O474 O 0.6547 0.44969 0.58415 0.0
O475 O 0.64844 0.29074 0.62977 0.0
O476 O 0.68376 0.29181 0.63617 0.0
C477 C 0.66619 0.2326 0.63302 0.0
H478 H 0.57773 0.56492 0.57808 0.0
H479 H 0.75783 0.49619 0.68667 0.0
C480 C 0.28886 0.11393 0.13866 0.0
C481 C 0.2687 0.17457 0.14175 0.0
C482 C 0.2877 0.37238 0.13964 0.0
C483 C 0.30791 0.31148 0.14199 0.0
N484 N 0.32729 0.12126 0.14938 0.0
N485 N 0.24955 0.36392 0.1511 0.0
C486 C 0.30844 0.18115 0.14274 0.0
C487 C 0.26821 0.30476 0.14355 0.0
N488 N 0.28924 0.99203 0.13142 0.0
N489 N 0.28717 0.49502 0.1333 0.0
H490 H 0.23528 0.31791 0.15621 0.0
H491 H 0.24885 0.45784 0.15555 0.0
H492 H 0.30117 0.54569 0.12933 0.0
H493 H 0.27289 0.54264 0.12871 0.0
H494 H 0.30341 0.94492 0.12627 0.0
H495 H 0.27515 0.94177 0.12733 0.0
H496 H 0.32811 0.02688 0.15312 0.0
H497 H 0.34171 0.16676 0.15439 0.0
C498 C 0.80794 0.69535 0.14299 0.0
C499 C 0.80804 0.82572 0.14291 0.0
C500 C 0.76832 0.82497 0.14422 0.0
C501 C 0.7682 0.69488 0.14178 0.0
N502 N 0.78792 0.5106 0.13018 0.0
N503 N 0.78819 0.01286 0.13476 0.0
C504 C 0.78807 0.63161 0.13832 0.0
C505 C 0.78814 0.88985 0.14067 0.0
N506 N 0.82644 0.63193 0.14957 0.0
N507 N 0.74996 0.88651 0.15201 0.0
H508 H 0.80244 0.06159 0.131 0.0
H509 H 0.77415 0.06282 0.13027 0.0
H510 H 0.73546 0.84249 0.15692 0.0
H511 H 0.74973 0.98019 0.15687 0.0
H512 H 0.82674 0.53715 0.15276 0.0
H513 H 0.84101 0.67469 0.15513 0.0
H514 H 0.80189 0.46204 0.1248 0.0
H515 H 0.77361 0.46308 0.12552 0.0
C516 C 0.28936 0.61839 0.37335 0.0
C517 C 0.30907 0.68373 0.37073 0.0
C518 C 0.2888 0.87681 0.37357 0.0
C519 C 0.26909 0.81143 0.3704 0.0
N520 N 0.25109 0.61761 0.36165 0.0
N521 N 0.32711 0.87776 0.36308 0.0
C522 C 0.26942 0.68124 0.36909 0.0
C523 C 0.30876 0.81398 0.36975 0.0
N524 N 0.28977 0.49614 0.38016 0.0
N525 N 0.28839 -0.00105 0.38053 0.0
H526 H 0.34177 0.83535 0.35829 0.0
H527 H 0.32724 0.97212 0.35918 0.0
H528 H 0.27399 0.04604 0.38441 0.0
H529 H 0.30227 0.04947 0.38569 0.0
H530 H 0.27589 0.4456 0.38488 0.0
H531 H 0.30417 0.44903 0.3844 0.0
H532 H 0.25098 0.52335 0.35755 0.0
H533 H 0.23646 0.66015 0.3563 0.0
C534 C 0.78902 0.12827 0.37417 0.0
C535 C 0.80876 0.19326 0.37144 0.0
C536 C 0.78861 0.38648 0.37505 0.0
C537 C 0.76883 0.32179 0.37185 0.0
N538 N 0.75078 0.12848 0.36235 0.0
N539 N 0.82668 0.38755 0.36329 0.0
C540 C 0.7691 0.19162 0.37007 0.0
C541 C 0.80847 0.32359 0.37056 0.0
N542 N 0.78933 0.00605 0.38101 0.0
N543 N 0.78837 0.508 0.38269 0.0
H544 H 0.84117 0.34533 0.35747 0.0
H545 H 0.82673 0.48211 0.35965 0.0
H546 H 0.77406 0.55502 0.38721 0.0
H547 H 0.80236 0.55758 0.38784 0.0
H548 H 0.77541 0.95601 0.38578 0.0
H549 H 0.80369 0.95856 0.38529 0.0
H550 H 0.75069 0.03436 0.35802 0.0
H551 H 0.73621 0.17132 0.35688 0.0
C552 C 0.78664 0.61669 0.87642 0.0
C553 C 0.76703 0.68241 0.87244 0.0
C554 C 0.78758 0.87478 0.87421 0.0
C555 C 0.80721 0.80837 0.87223 0.0
N556 N 0.82499 0.61257 0.86625 0.0
N557 N 0.74946 0.87606 0.86169 0.0
C558 C 0.80671 0.67807 0.87226 0.0
C559 C 0.76758 0.81239 0.87008 0.0
N560 N 0.78604 0.49572 0.88453 0.0
N561 N 0.78811 0.99767 0.88026 0.0
H562 H 0.73485 0.83374 0.85612 0.0
H563 H 0.74959 0.96981 0.85692 0.0
H564 H 0.80255 0.04455 0.88443 0.0
H565 H 0.77426 0.0492 0.8845 0.0
H566 H 0.79983 0.44549 0.89027 0.0
H567 H 0.77156 0.44991 0.88876 0.0
H568 H 0.82497 0.51773 0.8631 0.0
H569 H 0.83973 0.6536 0.86122 0.0
C570 C 0.28671 0.35293 0.87627 0.0
C571 C 0.30642 0.2885 0.87257 0.0
C572 C 0.28638 0.09463 0.87452 0.0
C573 C 0.2666 0.15964 0.87235 0.0
N574 N 0.24829 0.3538 0.86566 0.0
N575 N 0.32441 0.09594 0.86246 0.0
C576 C 0.26677 0.28994 0.87207 0.0
C577 C 0.30619 0.15842 0.87049 0.0
N578 N 0.28711 0.47426 0.88409 0.0
N579 N 0.28618 0.97176 0.8806 0.0
H580 H 0.33888 0.13924 0.85707 0.0
H581 H 0.3245 0.00203 0.85788 0.0
H582 H 0.27187 0.92382 0.88454 0.0
H583 H 0.30016 0.92121 0.885 0.0
H584 H 0.27326 0.5237 0.8896 0.0
H585 H 0.30152 0.52133 0.88832 0.0
H586 H 0.24806 0.4485 0.86231 0.0
H587 H 0.23361 0.31149 0.86048 0.0
C588 C 0.76841 0.19352 0.63948 0.0
C589 C 0.76856 0.32395 0.64027 0.0
C590 C 0.80826 0.32071 0.64229 0.0
C591 C 0.80814 0.1909 0.63913 0.0
N592 N 0.78807 0.00898 0.62591 0.0
N593 N 0.78873 0.51037 0.63327 0.0
C594 C 0.78814 0.12917 0.63479 0.0
C595 C 0.78857 0.38698 0.63864 0.0
N596 N 0.74985 0.13034 0.64533 0.0
N597 N 0.82674 0.38049 0.65092 0.0
H598 H 0.77456 0.56014 0.62937 0.0
H599 H 0.80286 0.55973 0.6293 0.0
H600 H 0.84116 0.33525 0.65598 0.0
H601 H 0.82712 0.47371 0.65633 0.0
H602 H 0.74939 0.03523 0.64778 0.0
H603 H 0.73538 0.17301 0.65106 0.0
H604 H 0.774 0.96178 0.61986 0.0
H605 H 0.80229 0.96113 0.62134 0.0
C606 C 0.28882 0.8754 0.63847 0.0
C607 C 0.26881 0.81224 0.64024 0.0
C608 C 0.28845 0.61751 0.63485 0.0
C609 C 0.30846 0.6794 0.63888 0.0
N610 N 0.32707 0.86922 0.6504 0.0
N611 N 0.25021 0.6187 0.64581 0.0
C612 C 0.30856 0.80925 0.64198 0.0
C613 C 0.26872 0.68184 0.63966 0.0
N614 N 0.28894 -0.00125 0.63305 0.0
N615 N 0.28835 0.49714 0.62612 0.0
H616 H 0.23577 0.66157 0.65158 0.0
H617 H 0.24981 0.52369 0.6485 0.0
H618 H 0.30254 0.44926 0.62144 0.0
H619 H 0.27425 0.44974 0.62031 0.0
H620 H 0.30304 0.04818 0.62897 0.0
H621 H 0.27475 0.04845 0.62922 0.0
H622 H 0.32746 0.96246 0.65578 0.0
H623 H 0.34152 0.82409 0.65531 0.0
C624 C 0.15838 0.86696 0.26816 0.0
C625 C 0.15623 0.9693 0.28816 0.0
C626 C 0.1538 0.10737 0.24319 0.0
C627 C 0.1567 0.00532 0.22328 0.0
N628 N 0.15472 0.78663 0.216 0.0
N629 N 0.14615 0.18127 0.295 0.0
C630 C 0.15697 0.88448 0.23554 0.0
C631 C 0.15214 0.08798 0.27574 0.0
N632 N 0.16167 0.75285 0.2804 0.0
N633 N 0.15292 0.22287 0.23095 0.0
H634 H 0.14469 0.17019 0.31884 0.0
H635 H 0.14102 0.26702 0.28731 0.0
H636 H 0.15223 0.23885 0.20717 0.0
H637 H 0.15369 0.30273 0.24414 0.0
H638 H 0.16624 0.67692 0.26737 0.0
H639 H 0.16053 0.73525 0.30404 0.0
H640 H 0.15292 0.69635 0.22341 0.0
H641 H 0.1525 0.79719 0.19223 0.0
C642 C 0.91987 0.14084 0.26778 0.0
C643 C 0.9192 0.03932 0.28833 0.0
C644 C 0.92165 0.89738 0.24409 0.0
C645 C 0.92173 -0.00128 0.2237 0.0
N646 N 0.92677 0.21521 0.21583 0.0
N647 N 0.91423 0.82168 0.29552 0.0
C648 C 0.92261 0.12013 0.23549 0.0
C649 C 0.91891 0.9175 0.27637 0.0
N650 N 0.91615 0.25635 0.27884 0.0
N651 N 0.92494 0.78212 0.23257 0.0
H652 H 0.91082 0.83383 0.31882 0.0
H653 H 0.91156 0.73224 0.28792 0.0
H654 H 0.92775 0.76609 0.20915 0.0
H655 H 0.92712 0.70464 0.24633 0.0
H656 H 0.91432 0.33339 0.26483 0.0
H657 H 0.91256 0.27324 0.30194 0.0
H658 H 0.92969 0.30481 0.22312 0.0
H659 H 0.92934 0.20213 0.19225 0.0
C660 C 0.90613 0.91368 0.738 0.0
C661 C 0.9183 0.01155 0.72494 0.0
C662 C 0.93272 0.06296 0.77682 0.0
C663 C 0.91916 0.97128 0.79003 0.0
N664 N 0.89803 0.78758 0.78263 0.0
N665 N 0.9424 0.18356 0.73175 0.0
C666 C 0.90719 0.89103 0.77042 0.0
C667 C 0.93176 0.08554 0.74423 0.0
N668 N 0.89323 0.84252 0.71941 0.0
N669 N 0.94675 0.12803 0.79518 0.0
H670 H 0.9428 0.20163 0.70812 0.0
H671 H 0.94977 0.25247 0.74475 0.0
H672 H 0.94696 0.12455 0.8192 0.0
H673 H 0.95924 0.18177 0.78664 0.0
H674 H 0.88118 0.78485 0.7276 0.0
H675 H 0.89399 0.84343 0.6954 0.0
H676 H 0.89134 0.71694 0.76948 0.0
H677 H 0.89888 0.76527 0.80604 0.0
C678 C 0.14631 0.09154 0.76948 0.0
C679 C 0.15464 0.9966 0.78854 0.0
C680 C 0.16504 0.87949 0.74253 0.0
C681 C 0.15629 0.97283 0.72317 0.0
N682 N 0.13331 0.15206 0.71866 0.0
N683 N 0.16426 0.78384 0.793 0.0
C684 C 0.14512 0.07361 0.73676 0.0
C685 C 0.16179 0.88572 0.77498 0.0
N686 N 0.1404 0.20081 0.78241 0.0
N687 N 0.17648 0.78444 0.73012 0.0
H688 H 0.1603 0.78399 0.81638 0.0
H689 H 0.16749 0.69687 0.78414 0.0
H690 H 0.17831 0.77139 0.70641 0.0
H691 H 0.18531 0.72246 0.74356 0.0
H692 H 0.13675 0.27879 0.76944 0.0
H693 H 0.14063 0.21611 0.80624 0.0
H694 H 0.12306 0.21865 0.72767 0.0
H695 H 0.1324 0.14539 0.69465 0.0
C696 C 0.66967 0.39037 0.26894 0.0
C697 C 0.65684 0.46541 0.28848 0.0
C698 C 0.6433 0.57842 0.24276 0.0
C699 C 0.65698 0.50735 0.22354 0.0
N700 N 0.67791 0.32273 0.21698 0.0
N701 N 0.62817 0.61552 0.29337 0.0
C702 C 0.66871 0.40694 0.23629 0.0
C703 C 0.64252 0.55391 0.27518 0.0
N704 N 0.68282 0.30235 0.2816 0.0
N705 N 0.6318 0.67367 0.23031 0.0
H706 H 0.62833 0.61262 0.31739 0.0
H707 H 0.61523 0.66621 0.28465 0.0
H708 H 0.63014 0.6875 0.20663 0.0
H709 H 0.62447 0.74211 0.24332 0.0
H710 H 0.69511 0.25885 0.26952 0.0
H711 H 0.68197 0.27475 0.30464 0.0
H712 H 0.68459 0.24002 0.22437 0.0
H713 H 0.67696 0.32901 0.193 0.0
C714 C 0.41115 0.61548 0.2696 0.0
C715 C 0.4207 0.52374 0.28873 0.0
C716 C 0.42949 0.40305 0.24231 0.0
C717 C 0.42034 0.4962 0.22346 0.0
N718 N 0.41006 0.70795 0.21876 0.0
N719 N 0.44437 0.34678 0.29232 0.0
C720 C 0.41336 0.60741 0.237 0.0
C721 C 0.43173 0.42314 0.27481 0.0
N722 N 0.39998 0.71084 0.28236 0.0
N723 N 0.43515 0.29315 0.22945 0.0
H724 H 0.44604 0.35414 0.31622 0.0
H725 H 0.45455 0.28104 0.28278 0.0
H726 H 0.43405 0.27581 0.20575 0.0
H727 H 0.43936 0.2163 0.24251 0.0
H728 H 0.39053 0.77103 0.26928 0.0
H729 H 0.39908 0.72631 0.30609 0.0
H730 H 0.40694 0.79527 0.22748 0.0
H731 H 0.41323 0.70664 0.19513 0.0
C732 C 0.42029 0.35924 0.76845 0.0
C733 C 0.41618 0.45595 0.78959 0.0
C734 C 0.41511 0.60345 0.74645 0.0
C735 C 0.41857 0.50643 0.72539 0.0
N736 N 0.4301 0.29826 0.71643 0.0
N737 N 0.40448 0.6649 0.79778 0.0
C738 C 0.42291 0.38609 0.73643 0.0
C739 C 0.41228 0.57692 0.77836 0.0
N740 N 0.41975 0.24061 0.77859 0.0
N741 N 0.4158 0.72182 0.73609 0.0
H742 H 0.40146 0.64842 0.821 0.0
H743 H 0.39903 0.75049 0.79039 0.0
H744 H 0.41929 0.74327 0.71317 0.0
H745 H 0.41551 0.79815 0.75059 0.0
H746 H 0.42048 0.16451 0.76407 0.0
H747 H 0.41601 0.21829 0.80132 0.0
H748 H 0.43572 0.21253 0.72342 0.0
H749 H 0.43221 0.31459 0.6929 0.0
C750 C 0.64428 0.60249 0.76901 0.0
C751 C 0.65517 0.51894 0.78894 0.0
C752 C 0.66463 0.39288 0.74363 0.0
C753 C 0.6569 0.48686 0.72377 0.0
N754 N 0.64319 0.69254 0.71793 0.0
N755 N 0.67655 0.33415 0.79495 0.0
C756 C 0.6475 0.5942 0.73652 0.0
C757 C 0.66556 0.41384 0.77615 0.0
N758 N 0.63102 0.69052 0.78087 0.0
N759 N 0.67052 0.28202 0.73148 0.0
H760 H 0.67624 0.33887 0.81898 0.0
H761 H 0.68688 0.2664 0.78671 0.0
H762 H 0.67004 0.26339 0.70781 0.0
H763 H 0.67396 0.20499 0.7449 0.0
H764 H 0.6212 0.74618 0.76708 0.0
H765 H 0.62806 0.69975 0.80441 0.0
H766 H 0.63841 0.77795 0.72628 0.0
H767 H 0.64689 0.69264 0.69453 0.0
C768 C 0.18013 0.14136 0.98921 0.0
C769 C 0.17627 0.02909 0.97333 0.0
C770 C 0.17454 0.91921 0.02286 0.0
C771 C 0.17692 0.03249 0.03881 0.0
N772 N 0.18701 0.24577 0.0382 0.0
N773 N 0.17575 0.80854 0.974 0.0
C774 C 0.1813 0.14208 0.02225 0.0
C775 C 0.17515 0.91704 0.9899 0.0
N776 N 0.18235 0.24725 0.97259 0.0
N777 N 0.17192 0.81358 0.03942 0.0
H778 H 0.17734 0.80474 0.95002 0.0
H779 H 0.17653 0.72247 0.98433 0.0
H780 H 0.17403 0.81042 0.06336 0.0
H781 H 0.16733 0.7299 0.02979 0.0
H782 H 0.18264 0.33464 0.98228 0.0
H783 H 0.1833 0.24807 0.94851 0.0
H784 H 0.192 0.327 0.02788 0.0
H785 H 0.18823 0.24834 0.06228 0.0
C786 C 0.88765 0.86007 0.99096 0.0
C787 C 0.89832 0.95571 0.97463 0.0
C788 C 0.9042 0.06405 0.02377 0.0
C789 C 0.89768 0.95849 0.04019 0.0
N790 N 0.88369 0.75223 0.0398 0.0
N791 N 0.91792 0.14824 0.97627 0.0
C792 C 0.88929 0.85569 0.02393 0.0
C793 C 0.90699 0.05744 0.99128 0.0
N794 N 0.87583 0.77406 0.97522 0.0
N795 N 0.90651 0.17289 0.0391 0.0
H796 H 0.91924 0.15272 0.95231 0.0
H797 H 0.92678 0.21577 0.98785 0.0
H798 H 0.90272 0.18179 0.06245 0.0
H799 H 0.90938 0.25619 0.02804 0.0
H800 H 0.86604 0.70975 0.98609 0.0
H801 H 0.87429 0.77299 0.95122 0.0
H802 H 0.88003 0.66908 0.02905 0.0
H803 H 0.8841 0.74715 0.0639 0.0
C804 C 0.18761 0.03816 0.48901 0.0
C805 C 0.17826 0.93802 0.47271 0.0
C806 C 0.16684 0.84642 0.52166 0.0
C807 C 0.17702 0.94357 0.53838 0.0
N808 N 0.20148 0.11697 0.53777 0.0
N809 N 0.16601 0.7291 0.47409 0.0
C810 C 0.18895 0.03422 0.52202 0.0
C811 C 0.16992 0.83692 0.48924 0.0
N812 N 0.19424 0.13976 0.47318 0.0
N813 N 0.15405 0.76316 0.53645 0.0
H814 H 0.16984 0.71737 0.45084 0.0
H815 H 0.16173 0.6481 0.48528 0.0
H816 H 0.15198 0.76125 0.56031 0.0
H817 H 0.14432 0.70023 0.52466 0.0
H818 H 0.19867 0.22162 0.48397 0.0
H819 H 0.19374 0.14571 0.44911 0.0
H820 H 0.2122 0.17631 0.52692 0.0
H821 H 0.20256 0.12024 0.56181 0.0
C822 C 0.91373 0.9621 0.52273 0.0
C823 C 0.90171 0.05095 0.53943 0.0
C824 C 0.88646 0.12878 0.49025 0.0
C825 C 0.90116 0.05375 0.47353 0.0
N826 N 0.92714 0.8883 0.47366 0.0
N827 N 0.87676 0.22163 0.53915 0.0
C828 C 0.9143 0.96741 0.4898 0.0
C829 C 0.88786 0.13372 0.52324 0.0
N830 N 0.92364 0.86793 0.53831 0.0
N831 N 0.87087 0.1942 0.47491 0.0
H832 H 0.87631 0.22628 0.56317 0.0
H833 H 0.86917 0.29614 0.52862 0.0
H834 H 0.86928 0.1968 0.45101 0.0
H835 H 0.85808 0.23759 0.48591 0.0
H836 H 0.93058 0.79223 0.52761 0.0
H837 H 0.9233 0.85856 0.56227 0.0
H838 H 0.93979 0.83867 0.48359 0.0
H839 H 0.9254 0.87322 0.44996 0.0
C840 C 0.68527 0.48783 0.02268 0.0
C841 C 0.67426 0.58088 0.03922 0.0
C842 C 0.66375 0.6784 0.98996 0.0
C843 C 0.67513 0.58585 0.9735 0.0
N844 N 0.70205 0.42433 0.97508 0.0
N845 N 0.65625 0.77721 0.03909 0.0
C846 C 0.68773 0.49827 0.9901 0.0
C847 C 0.66442 0.67989 0.02296 0.0
N848 N 0.69193 0.38409 0.03769 0.0
N849 N 0.65227 0.76536 0.97398 0.0
H850 H 0.65603 0.78087 0.06317 0.0
H851 H 0.65115 0.85878 0.02886 0.0
H852 H 0.65337 0.77693 0.95012 0.0
H853 H 0.64109 0.8239 0.98412 0.0
H854 H 0.69774 0.30652 0.02638 0.0
H855 H 0.68939 0.37039 0.06116 0.0
H856 H 0.71324 0.36908 0.98666 0.0
H857 H 0.70438 0.42573 0.9513 0.0
C858 C 0.40728 0.53917 0.9893 0.0
C859 C 0.39798 0.43572 0.97411 0.0
C860 C 0.3887 0.34739 0.02455 0.0
C861 C 0.39786 0.45102 0.03954 0.0
N862 N 0.40802 0.6631 0.03585 0.0
N863 N 0.3725 0.26798 0.97751 0.0
C864 C 0.40494 0.55216 0.0218 0.0
C865 C 0.38635 0.34793 0.99174 0.0
N866 N 0.418 0.62652 0.97277 0.0
N867 N 0.3829 0.24674 0.04139 0.0
H868 H 0.36898 0.27171 0.95396 0.0
H869 H 0.36244 0.20866 0.98961 0.0
H870 H 0.38415 0.24316 0.06545 0.0
H871 H 0.37848 0.16352 0.03124 0.0
H872 H 0.42737 0.69491 0.98311 0.0
H873 H 0.41829 0.62803 0.9487 0.0
H874 H 0.4115 0.74361 0.0239 0.0
H875 H 0.40424 0.67706 0.05904 0.0
C876 C 0.68883 0.52795 0.48972 0.0
C877 C 0.67677 0.43664 0.47359 0.0
C878 C 0.66727 0.34176 0.5233 0.0
C879 C 0.67656 0.44314 0.53928 0.0
N880 N 0.69318 0.643 0.53729 0.0
N881 N 0.65394 0.25676 0.47501 0.0
C882 C 0.68683 0.53818 0.52243 0.0
C883 C 0.66587 0.34344 0.49041 0.0
N884 N 0.70199 0.6064 0.47398 0.0
N885 N 0.6603 0.24187 0.53957 0.0
H886 H 0.65397 0.24695 0.45104 0.0
H887 H 0.64315 0.19781 0.48585 0.0
H888 H 0.66078 0.23725 0.56364 0.0
H889 H 0.6558 0.15915 0.52931 0.0
H890 H 0.71295 0.66496 0.48493 0.0
H891 H 0.70332 0.60691 0.44999 0.0
H892 H 0.6984 0.72154 0.52585 0.0
H893 H 0.69114 0.65608 0.56091 0.0
C894 C 0.41872 0.47329 0.52215 0.0
C895 C 0.40493 0.55221 0.53951 0.0
C896 C 0.38888 0.62634 0.4902 0.0
C897 C 0.40142 0.53914 0.47367 0.0
N898 N 0.42288 0.3547 0.47552 0.0
N899 N 0.37652 0.70466 0.53959 0.0
C900 C 0.41462 0.45527 0.4902 0.0
C901 C 0.38969 0.62773 0.52337 0.0
N902 N 0.43642 0.41799 0.53524 0.0
N903 N 0.37714 0.71243 0.47433 0.0
H904 H 0.37885 0.72489 0.56295 0.0
H905 H 0.36295 0.74708 0.53005 0.0
H906 H 0.37562 0.71345 0.45034 0.0
H907 H 0.36994 0.78821 0.48465 0.0
H908 H 0.44806 0.37302 0.52217 0.0
H909 H 0.44125 0.42623 0.55814 0.0
H910 H 0.43033 0.2824 0.48728 0.0
H911 H 0.42027 0.33676 0.45212 0.0
C912 C 1.02867 0.86201 0.11591 0.0
C913 C 1.01604 0.95721 0.12874 0.0
C914 C 0.04908 0.06293 0.14597 0.0
C915 C 0.06152 0.97854 0.12875 0.0
N916 N 0.06411 0.79448 0.09868 0.0
N917 N 1.01346 0.14577 0.15709 0.0
C918 C 0.05159 0.87531 0.11467 0.0
C919 C 1.02608 0.05566 0.14478 0.0
N920 N 1.01844 0.76074 0.10431 0.0
N921 N 0.05951 0.15133 0.16281 0.0
H922 H 0.99664 0.14042 0.15696 0.0
H923 H 1.01944 0.2271 0.16643 0.0
H924 H 0.07633 0.15772 0.16351 0.0
H925 H 0.05181 0.21196 0.17768 0.0
H926 H 1.02639 0.68343 0.09606 0.0
H927 H 1.00167 0.7513 0.10503 0.0
H928 H 0.05803 0.72281 0.08528 0.0
H929 H 0.08091 0.80193 0.09821 0.0
C930 C 1.03096 0.12754 0.37709 0.0
C931 C 1.0164 0.029 0.38173 0.0
C932 C 0.04681 0.8853 0.37971 0.0
C933 C 0.06145 0.98508 0.38177 0.0
N934 N 0.06753 0.20324 0.38379 0.0
N935 N 1.01042 0.81244 0.38878 0.0
C936 C 0.0536 0.10711 0.38015 0.0
C937 C 1.02424 0.90683 0.38272 0.0
N938 N 1.02291 0.24088 0.37011 0.0
N939 N 0.05473 0.76985 0.37523 0.0
H940 H 0.99387 0.82494 0.3915 0.0
H941 H 1.01554 0.72306 0.3932 0.0
H942 H 0.07124 0.75333 0.37266 0.0
H943 H 0.04497 0.69364 0.37105 0.0
H944 H 1.03256 0.31518 0.36402 0.0
H945 H 1.00635 0.25646 0.36745 0.0
H946 H 0.06249 0.29386 0.38628 0.0
H947 H 0.08415 0.19164 0.38648 0.0
C948 C 0.04748 0.04195 0.86503 0.0
C949 C 0.05991 0.96048 0.88345 0.0
C950 C 1.02697 0.85158 0.89858 0.0
C951 C 1.01449 0.94496 0.88437 0.0
N952 N 1.01185 0.12321 0.85212 0.0
N953 N 0.06258 0.78231 0.91564 0.0
C954 C 1.0245 0.03696 0.86634 0.0
C955 C 0.04994 0.86166 0.89905 0.0
N956 N 0.05792 0.12592 0.84712 0.0
N957 N 1.01657 0.75576 0.91228 0.0
H958 H 0.07942 0.78745 0.91544 0.0
H959 H 0.05665 0.71355 0.9299 0.0
H960 H 0.99975 0.74883 0.91211 0.0
H961 H 1.02433 0.68018 0.92198 0.0
H962 H 0.05023 0.18509 0.8317 0.0
H963 H 0.07475 0.13067 0.84637 0.0
H964 H 1.01777 0.20004 0.84074 0.0
H965 H 0.99501 0.11864 0.85235 0.0
C966 C 1.02463 0.88885 0.61384 0.0
C967 C 1.01558 0.98558 0.63135 0.0
C968 C 0.05179 0.04878 0.64876 0.0
C969 C 0.06092 0.95795 0.62938 0.0
N970 N 0.0569 0.77538 0.59913 0.0
N971 N 1.0193 0.13901 0.67066 0.0
C972 C 0.04749 0.87166 0.61405 0.0
C973 C 1.02887 0.05855 0.65083 0.0
N974 N 1.01134 0.81884 0.59565 0.0
N975 N 0.06516 0.13014 0.66349 0.0
H976 H 1.00253 0.14707 0.67202 0.0
H977 H 1.02766 0.19054 0.68713 0.0
H978 H 0.08194 0.12272 0.66268 0.0
H979 H 0.05982 0.20674 0.67558 0.0
H980 H 1.01674 0.75398 0.57985 0.0
H981 H 0.99457 0.8289 0.59583 0.0
H982 H 0.04835 0.70379 0.58882 0.0
H983 H 0.07363 0.76322 0.5991 0.0
C984 C 0.52502 0.56365 0.14718 0.0
C985 C 0.51536 0.46696 0.13003 0.0
C986 C 0.55121 0.39166 0.11525 0.0
C987 C 0.56076 0.49342 0.13051 0.0
N988 N 0.55809 0.65869 0.16675 0.0
N989 N 0.51852 0.27452 0.10381 0.0
C990 C 0.548 0.5729 0.14869 0.0
C991 C 0.52836 0.3753 0.11635 0.0
N992 N 0.51211 0.65065 0.16022 0.0
N993 N 0.56399 0.31565 0.09823 0.0
H994 H 0.50179 0.26288 0.10444 0.0
H995 H 0.52679 0.19934 0.09498 0.0
H996 H 0.58075 0.32528 0.09775 0.0
H997 H 0.55811 0.24619 0.08392 0.0
H998 H 0.51784 0.73103 0.17038 0.0
H999 H 0.4953 0.64399 0.15982 0.0
H1000 H 0.55014 0.7153 0.18233 0.0
H1001 H 0.5749 0.66626 0.16773 0.0
C1002 C 0.52954 0.62298 0.39854 0.0
C1003 C 0.5165 0.53469 0.38327 0.0
C1004 C 0.54897 0.43325 0.36352 0.0
C1005 C 0.56181 0.50871 0.38299 0.0
N1006 N 0.56537 0.67988 0.41746 0.0
N1007 N 0.51294 0.36041 0.34974 0.0
C1008 C 0.5524 0.60699 0.39951 0.0
C1009 C 0.52602 0.44276 0.36465 0.0
N1010 N 0.51973 0.71975 0.41273 0.0
N1011 N 0.55895 0.35078 0.34466 0.0
H1012 H 0.49614 0.3681 0.34983 0.0
H1013 H 0.51849 0.28322 0.3381 0.0
H1014 H 0.57575 0.3428 0.344 0.0
H1015 H 0.55094 0.29692 0.32831 0.0
H1016 H 0.52798 0.7924 0.42305 0.0
H1017 H 0.50298 0.73094 0.41219 0.0
H1018 H 0.5597 0.7468 0.4325 0.0
H1019 H 0.58215 0.67054 0.41778 0.0
C1020 C 0.52108 0.59178 0.88192 0.0
C1021 C 0.51394 0.4682 0.88299 0.0
C1022 C 0.55163 0.3973 0.88342 0.0
C1023 C 0.55878 0.5209 0.88249 0.0
N1024 N 0.55065 0.73159 0.87123 0.0
N1025 N 0.52191 0.25515 0.87498 0.0
C1026 C 0.54351 0.61664 0.87835 0.0
C1027 C 0.52915 0.37164 0.88028 0.0
N1028 N 0.50677 0.68515 0.88654 0.0
N1029 N 0.56598 0.30523 0.88959 0.0
H1030 H 0.5055 0.2355 0.87213 0.0
H1031 H 0.53213 0.18164 0.87028 0.0
H1032 H 0.58245 0.32044 0.89284 0.0
H1033 H 0.56132 0.21503 0.8939 0.0
H1034 H 0.51145 0.77631 0.8894 0.0
H1035 H 0.49033 0.67064 0.88988 0.0
H1036 H 0.54035 0.80382 0.86545 0.0
H1037 H 0.56701 0.75052 0.86802 0.0
C1038 C 0.52944 0.56138 0.65229 0.0
C1039 C 0.51604 0.48476 0.63391 0.0
C1040 C 0.54781 0.36757 0.61765 0.0
C1041 C 0.5613 0.45729 0.63151 0.0
N1042 N 0.56574 0.6369 0.66306 0.0
N1043 N 0.51159 0.31145 0.60027 0.0
C1044 C 0.55232 0.55187 0.64984 0.0
C1045 C 0.52497 0.38467 0.6175 0.0
N1046 N 0.52 0.64501 0.6714 0.0
N1047 N 0.55714 0.26815 0.60398 0.0
H1048 H 0.49484 0.32169 0.60041 0.0
H1049 H 0.51695 0.24383 0.58518 0.0
H1050 H 0.57388 0.25611 0.60389 0.0
H1051 H 0.54853 0.19421 0.59492 0.0
H1052 H 0.52849 0.69939 0.68714 0.0
H1053 H 0.50324 0.65275 0.67305 0.0
H1054 H 0.56041 0.716 0.67411 0.0
H1055 H 0.58252 0.63005 0.66194 0.0
C1056 C 0.15501 0.59469 0.10807 0.0
C1057 C 0.16693 0.66209 0.13082 0.0
C1058 C 0.17738 0.46794 0.15606 0.0
C1059 C 0.16714 0.40149 0.13176 0.0
N1060 N 0.1504 0.40194 0.08105 0.0
N1061 N 0.19116 0.66082 0.17533 0.0
C1062 C 0.157 0.46484 0.10689 0.0
C1063 C 0.17877 0.59806 0.15426 0.0
N1064 N 0.14174 0.65334 0.08735 0.0
N1065 N 0.18469 0.40766 0.1819 0.0
H1066 H 0.19045 0.75529 0.17849 0.0
H1067 H 0.20285 0.61895 0.18924 0.0
H1068 H 0.18411 0.31275 0.18448 0.0
H1069 H 0.18961 0.45206 0.20211 0.0
H1070 H 0.13038 0.60727 0.07369 0.0
H1071 H 0.14089 0.74801 0.08471 0.0
H1072 H 0.14548 0.44472 0.06061 0.0
H1073 H 0.15194 0.30727 0.07861 0.0
C1074 C 0.92086 0.40307 0.1084 0.0
C1075 C 0.90961 0.33553 0.13149 0.0
C1076 C 0.90089 0.52958 0.15793 0.0
C1077 C 0.91029 0.59607 0.13322 0.0
N1078 N 0.92451 0.59615 0.08143 0.0
N1079 N 0.88776 0.33633 0.17777 0.0
C1080 C 0.91906 0.53293 0.10757 0.0
C1081 C 0.89912 0.39945 0.15593 0.0
N1082 N 0.93349 0.34474 0.08719 0.0
N1083 N 0.8947 0.58999 0.18416 0.0
H1084 H 0.88845 0.24155 0.18045 0.0
H1085 H 0.877 0.37803 0.19286 0.0
H1086 H 0.89552 0.68493 0.18667 0.0
H1087 H 0.89043 0.54585 0.20456 0.0
H1088 H 0.94425 0.39115 0.07296 0.0
H1089 H 0.9346 0.25014 0.08493 0.0
H1090 H 0.92837 0.55339 0.06063 0.0
H1091 H 0.92295 0.69098 0.07925 0.0
C1092 C 0.17759 0.37746 0.35576 0.0
C1093 C 0.16804 0.31298 0.38068 0.0
C1094 C 0.15496 0.507 0.40224 0.0
C1095 C 0.16647 0.57344 0.37919 0.0
N1096 N 0.19087 0.56927 0.3355 0.0
N1097 N 0.15241 0.31856 0.43154 0.0
C1098 C 0.17857 0.50791 0.35659 0.0
C1099 C 0.15798 0.37827 0.40493 0.0
N1100 N 0.18467 0.31493 0.33033 0.0
N1101 N 0.14104 0.56504 0.42178 0.0
H1102 H 0.15506 0.22508 0.43508 0.0
H1103 H 0.14741 0.36399 0.45145 0.0
H1104 H 0.13898 0.6594 0.42292 0.0
H1105 H 0.13024 0.51774 0.43577 0.0
H1106 H 0.18915 0.35768 0.30982 0.0
H1107 H 0.18415 0.21976 0.32831 0.0
H1108 H 0.2025 0.52623 0.32204 0.0
H1109 H 0.19042 0.66375 0.33221 0.0
C1110 C 0.92536 0.50337 0.36086 0.0
C1111 C 0.91142 0.43771 0.38089 0.0
C1112 C 0.89775 0.63236 0.40182 0.0
C1113 C 0.91209 0.69802 0.38233 0.0
N1114 N 0.94278 0.6946 0.34784 0.0
N1115 N 0.88896 0.43861 0.42609 0.0
C1116 C 0.92693 0.63321 0.36337 0.0
C1117 C 0.89872 0.50191 0.40277 0.0
N1118 N 0.9365 0.44257 0.33837 0.0
N1119 N 0.88357 0.69447 0.42018 0.0
H1120 H 0.8906 0.34418 0.42879 0.0
H1121 H 0.88128 0.48009 0.44469 0.0
H1122 H 0.88414 0.78909 0.42363 0.0
H1123 H 0.87065 0.65245 0.43121 0.0
H1124 H 0.94421 0.48662 0.32017 0.0
H1125 H 0.93685 0.3475 0.33629 0.0
H1126 H 0.95592 0.65089 0.33777 0.0
H1127 H 0.9438 0.78964 0.34628 0.0
C1128 C 0.90072 0.39036 0.9085 0.0
C1129 C 0.90647 0.32299 0.88176 0.0
C1130 C 0.91656 0.51459 0.85541 0.0
C1131 C 0.91118 0.58141 0.88244 0.0
N1132 N 0.90363 0.58178 0.93688 0.0
N1133 N 0.91504 0.32061 0.82764 0.0
C1134 C 0.90466 0.51899 0.90957 0.0
C1135 C 0.91321 0.38504 0.85463 0.0
N1136 N 0.8906 0.33223 0.93233 0.0
N1137 N 0.92564 0.57466 0.831 0.0
H1138 H 0.91149 0.22727 0.82617 0.0
H1139 H 0.91802 0.36032 0.80622 0.0
H1140 H 0.92872 0.66876 0.83126 0.0
H1141 H 0.9318 0.53094 0.81159 0.0
H1142 H 0.88408 0.37796 0.95122 0.0
H1143 H 0.88683 0.23896 0.9318 0.0
H1144 H 0.90106 0.54012 0.95821 0.0
H1145 H 0.90772 0.67437 0.93863 0.0
C1146 C 0.17458 0.45596 0.85677 0.0
C1147 C 0.164 0.39096 0.88057 0.0
C1148 C 0.15386 0.58636 0.90488 0.0
C1149 C 0.16628 0.65126 0.88255 0.0
N1150 N 0.19248 0.64098 0.84096 0.0
N1151 N 0.14681 0.39333 0.93055 0.0
C1152 C 0.178 0.58417 0.85983 0.0
C1153 C 0.15437 0.45576 0.90542 0.0
N1154 N 0.18028 0.39665 0.83014 0.0
N1155 N 0.14176 0.64865 0.92606 0.0
H1156 H 0.147 0.29813 0.93238 0.0
H1157 H 0.14223 0.43588 0.95105 0.0
H1158 H 0.14282 0.74279 0.92982 0.0
H1159 H 0.12986 0.60694 0.93929 0.0
H1160 H 0.18575 0.44232 0.81054 0.0
H1161 H 0.17723 0.30379 0.82619 0.0
H1162 H 0.20344 0.59267 0.82743 0.0
H1163 H 0.19474 0.73514 0.83986 0.0
C1164 C 0.90275 0.61436 0.60593 0.0
C1165 C 0.91028 0.68198 0.63193 0.0
C1166 C 0.9159 0.48964 0.66043 0.0
C1167 C 0.9106 0.4223 0.63335 0.0
N1168 N 0.90464 0.42166 0.57821 0.0
N1169 N 0.9283 0.68296 0.6818 0.0
C1170 C 0.90558 0.48493 0.60545 0.0
C1171 C 0.91823 0.61933 0.65854 0.0
N1172 N 0.89284 0.67315 0.58176 0.0
N1173 N 0.91799 0.43032 0.68812 0.0
H1174 H 0.93039 0.77784 0.68129 0.0
H1175 H 0.9362 0.64051 0.7003 0.0
H1176 H 0.91577 0.33588 0.69031 0.0
H1177 H 0.9198 0.47592 0.70919 0.0
H1178 H 0.88527 0.62667 0.56358 0.0
H1179 H 0.89052 0.76793 0.58122 0.0
H1180 H 0.90291 0.464 0.55672 0.0
H1181 H 0.90811 0.32821 0.57692 0.0
C1182 C 0.17209 0.3956 0.60304 0.0
C1183 C 0.16854 0.32914 0.63069 0.0
C1184 C 0.16024 0.52143 0.65761 0.0
C1185 C 0.16609 0.58863 0.63088 0.0
N1186 N 0.18289 0.58929 0.58065 0.0
N1187 N 0.1646 0.33135 0.68606 0.0
C1188 C 0.17366 0.52568 0.60431 0.0
C1189 C 0.16415 0.3928 0.65855 0.0
N1190 N 0.1733 0.33509 0.57544 0.0
N1191 N 0.15081 0.57989 0.68196 0.0
H1192 H 0.16851 0.23842 0.68754 0.0
H1193 H 0.16339 0.3749 0.70744 0.0
H1194 H 0.14755 0.67382 0.6819 0.0
H1195 H 0.14449 0.53343 0.70089 0.0
H1196 H 0.17388 0.38004 0.55419 0.0
H1197 H 0.17152 0.24019 0.57368 0.0
H1198 H 0.1904 0.54665 0.56205 0.0
H1199 H 0.1849 0.68424 0.58111 0.0
C1200 C 0.65316 0.99608 0.15384 0.0
C1201 C 0.66612 0.92699 0.13334 0.0
C1202 C 0.68253 0.11735 0.11441 0.0
C1203 C 0.66727 0.18743 0.13145 0.0
N1204 N 0.63784 0.1918 0.16807 0.0
N1205 N 0.6906 0.92332 0.09009 0.0
C1206 C 0.65235 0.12614 0.15109 0.0
C1207 C 0.68013 0.98797 0.11258 0.0
N1208 N 0.64284 0.93812 0.1775 0.0
N1209 N 0.69975 0.17227 0.1005 0.0
H1210 H 0.68947 0.82851 0.08757 0.0
H1211 H 0.69872 0.96511 0.0719 0.0
H1212 H 0.70276 0.26587 0.10096 0.0
H1213 H 0.71255 0.12294 0.09116 0.0
H1214 H 0.63508 0.98375 0.19541 0.0
H1215 H 0.64402 0.84407 0.18108 0.0
H1216 H 0.62451 0.15214 0.17868 0.0
H1217 H 0.63863 0.28647 0.17108 0.0
C1218 C 0.39579 0.90417 0.15249 0.0
C1219 C 0.40748 0.83688 0.12972 0.0
C1220 C 0.4194 0.0329 0.10715 0.0
C1221 C 0.41038 0.09717 0.1324 0.0
N1222 N 0.39413 0.09048 0.18284 0.0
N1223 N 0.43337 0.8424 0.08763 0.0
C1224 C 0.39966 0.03194 0.15604 0.0
C1225 C 0.4203 0.90263 0.10791 0.0
N1226 N 0.38101 0.84813 0.17104 0.0
N1227 N 0.42595 0.09522 0.08141 0.0
H1228 H 0.43365 0.7479 0.0848 0.0
H1229 H 0.44509 0.88707 0.07464 0.0
H1230 H 0.42489 0.19025 0.07917 0.0
H1231 H 0.43021 0.05166 0.06088 0.0
H1232 H 0.37018 0.89719 0.18461 0.0
H1233 H 0.37842 0.75418 0.17189 0.0
H1234 H 0.38849 0.04432 0.20227 0.0
H1235 H 0.39744 0.18291 0.18702 0.0
C1236 C 0.67484 0.01451 0.40695 0.0
C1237 C 0.66759 0.07819 0.38015 0.0
C1238 C 0.66207 0.8818 0.35347 0.0
C1239 C 0.66669 0.81859 0.38147 0.0
N1240 N 0.67374 0.82515 0.43634 0.0
N1241 N 0.65158 0.07337 0.32905 0.0
C1242 C 0.67205 0.88509 0.40867 0.0
C1243 C 0.66029 0.01204 0.35376 0.0
N1244 N 0.6848 0.07707 0.4305 0.0
N1245 N 0.66034 0.81782 0.32638 0.0
H1246 H 0.65049 0.16883 0.32812 0.0
H1247 H 0.64395 0.02938 0.31053 0.0
H1248 H 0.6624 0.72302 0.32528 0.0
H1249 H 0.65902 0.85941 0.30475 0.0
H1250 H 0.69224 0.03392 0.44928 0.0
H1251 H 0.68734 0.17163 0.42993 0.0
H1252 H 0.67558 0.87012 0.45748 0.0
H1253 H 0.67117 0.73095 0.43843 0.0
C1254 C 0.4176 0.97484 0.35398 0.0
C1255 C 0.41295 0.90795 0.38125 0.0
C1256 C 0.4027 0.09894 0.40766 0.0
C1257 C 0.40781 0.16615 0.38063 0.0
N1258 N 0.4141 0.16684 0.32588 0.0
N1259 N 0.40573 0.90689 0.43581 0.0
C1260 C 0.41372 0.10375 0.35317 0.0
C1261 C 0.40666 0.97017 0.40857 0.0
N1262 N 0.4265 0.91568 0.32929 0.0
N1263 N 0.39301 0.15731 0.43183 0.0
H1264 H 0.40958 0.81392 0.43736 0.0
H1265 H 0.40333 0.94806 0.45724 0.0
H1266 H 0.38902 0.25028 0.43121 0.0
H1267 H 0.38698 0.11213 0.45112 0.0
H1268 H 0.43222 0.96042 0.30974 0.0
H1269 H 0.42999 0.82203 0.32951 0.0
H1270 H 0.41624 0.12582 0.30438 0.0
H1271 H 0.40995 0.25944 0.32445 0.0
C1272 C 0.42343 0.85134 0.86258 0.0
C1273 C 0.40891 0.78849 0.88248 0.0
C1274 C 0.39736 0.98559 0.90427 0.0
C1275 C 0.40974 0.04867 0.88188 0.0
N1276 N 0.43462 0.04276 0.83924 0.0
N1277 N 0.38131 0.79571 0.92169 0.0
C1278 C 0.42297 0.98188 0.86113 0.0
C1279 C 0.39548 0.85569 0.9029 0.0
N1280 N 0.43788 0.78681 0.84515 0.0
N1281 N 0.38896 0.04939 0.92855 0.0
H1282 H 0.381 0.70072 0.92438 0.0
H1283 H 0.36907 0.84019 0.93369 0.0
H1284 H 0.39195 0.14253 0.93164 0.0
H1285 H 0.38152 0.00866 0.94744 0.0
H1286 H 0.45099 0.82679 0.83413 0.0
H1287 H 0.43759 0.69188 0.84257 0.0
H1288 H 0.44174 8e-05 0.82035 0.0
H1289 H 0.43639 0.13763 0.83885 0.0
C1290 C 0.67368 0.12648 0.90689 0.0
C1291 C 0.66336 0.19282 0.88266 0.0
C1292 C 0.65522 -0.00023 0.85543 0.0
C1293 C 0.66557 0.93344 0.8796 0.0
N1294 N 0.68734 0.93193 0.92624 0.0
N1295 N 0.64087 0.19325 0.83665 0.0
C1296 C 0.67563 0.99638 0.90472 0.0
C1297 C 0.65309 0.12961 0.85775 0.0
N1298 N 0.68015 0.18755 0.93303 0.0
N1299 N 0.6488 0.93902 0.82921 0.0
H1300 H 0.63947 0.28849 0.83667 0.0
H1301 H 0.63086 0.15176 0.82024 0.0
H1302 H 0.65107 0.84499 0.82631 0.0
H1303 H 0.64325 0.98216 0.80919 0.0
H1304 H 0.6859 0.14502 0.95301 0.0
H1305 H 0.67776 0.28149 0.93592 0.0
H1306 H 0.69719 0.97251 0.943 0.0
H1307 H 0.68841 0.83653 0.92635 0.0
C1308 C 0.40036 0.98205 0.65881 0.0
C1309 C 0.40953 0.91406 0.63418 0.0
C1310 C 0.4199 0.10507 0.60813 0.0
C1311 C 0.41055 0.1741 0.63253 0.0
N1312 N 0.39032 0.17947 0.68017 0.0
N1313 N 0.42355 0.90837 0.5824 0.0
C1314 C 0.40024 0.11279 0.65753 0.0
C1315 C 0.41825 0.97488 0.60813 0.0
N1316 N 0.39247 0.92148 0.68402 0.0
N1317 N 0.43009 0.16405 0.58455 0.0
H1318 H 0.42187 0.81335 0.58102 0.0
H1319 H 0.4277 0.94724 0.56129 0.0
H1320 H 0.42926 0.25833 0.5815 0.0
H1321 H 0.44004 0.12046 0.56867 0.0
H1322 H 0.38834 0.96388 0.7047 0.0
H1323 H 0.39092 0.82642 0.68503 0.0
H1324 H 0.37981 0.14228 0.69628 0.0
H1325 H 0.39197 0.27402 0.6826 0.0
C1326 C 0.64937 0.90025 0.64388 0.0
C1327 C 0.66697 0.83553 0.62997 0.0
C1328 C 0.68232 0.03418 0.61432 0.0
C1329 C 0.66662 0.09653 0.63215 0.0
N1330 N 0.63882 0.08468 0.67077 0.0
N1331 N 0.70223 0.84829 0.60545 0.0
C1332 C 0.65116 0.02854 0.64882 0.0
C1333 C 0.68415 0.90452 0.61657 0.0
N1334 N 0.63073 0.84247 0.6524 0.0
N1335 N 0.69476 0.09711 0.59367 0.0
H1336 H 0.70411 0.7542 0.60308 0.0
H1337 H 0.71624 0.89661 0.60007 0.0
H1338 H 0.69359 0.19128 0.58999 0.0
H1339 H 0.70458 0.05393 0.57752 0.0
H1340 H 0.61689 0.89087 0.65857 0.0
H1341 H 0.62792 0.74878 0.65146 0.0
H1342 H 0.62908 0.03605 0.68604 0.0
H1343 H 0.64013 0.17752 0.6763 0.0
loop_
_geom_bond_atom_site_label_1
_geom_bond_atom_site_label_2
_geom_bond_distance
_geom_bond_site_symmetry_2
_ccdc_geom_bond_type
Co0 N5 2.057 . S
Co0 O17 2.021 . S
Co0 O20 2.062 . S
Co0 O24 2.117 . S
Co0 O25 2.020 1_545 S
C1 O21 1.259 . S
C1 O24 1.258 . S
Co2 N11 2.057 . S
Co2 O18 2.117 . S
Co2 O19 2.020 . S
Co2 O21 2.021 . S
Co2 O26 2.062 1_545 S
C3 N5 1.316 . S
C3 N6 1.347 . S
C3 H8 0.931 . S
C4 N5 1.375 . S
C4 C7 1.350 . S
C4 H9 0.930 . S
N5 Co0 2.057 . S
N5 C3 1.316 . S
N5 C4 1.375 . S
N6 C3 1.347 . S
N6 C7 1.373 . S
C7 C4 1.350 . S
C7 N6 1.373 . S
C7 H28 0.931 . S
H8 C3 0.931 . S
H9 C4 0.930 . S
C10 O17 1.259 . S
C10 O18 1.258 . S
N11 Co2 2.057 . S
N11 C12 1.316 . S
N11 C13 1.375 . S
C12 N11 1.316 . S
C12 N14 1.347 . S
C12 H23 0.931 . S
C13 N11 1.375 . S
C13 C15 1.350 . S
C13 H22 0.930 . S
N14 C12 1.347 . S
N14 C15 1.373 . S
C15 C13 1.350 . S
C15 N14 1.373 . S
C15 H29 0.931 . S
C16 O19 1.256 . S
C16 O20 1.255 . S
O17 Co0 2.021 . S
O17 C10 1.259 . S
O18 Co2 2.117 . S
O18 C10 1.258 . S
O19 Co2 2.020 . S
O19 C16 1.256 . S
O20 Co0 2.062 . S
O20 C16 1.255 . S
O21 C1 1.259 . S
O21 Co2 2.021 . S
H22 C13 0.930 . S
H23 C12 0.931 . S
O24 Co0 2.117 . S
O24 C1 1.258 . S
O25 Co0 2.020 1_565 S
O25 C27 1.256 . S
O26 Co2 2.062 1_565 S
O26 C27 1.255 . S
C27 O25 1.256 . S
C27 O26 1.255 . S
H28 C7 0.931 . S
H29 C15 0.931 . S
Co30 N35 2.057 . S
Co30 O47 2.021 . S
Co30 O50 2.062 . S
Co30 O54 2.117 . S
Co30 O55 2.020 1_565 S
C31 O51 1.259 . S
C31 O54 1.258 . S
Co32 N41 2.057 . S
Co32 O48 2.117 . S
Co32 O49 2.020 . S
Co32 O51 2.021 . S
Co32 O56 2.062 1_565 S
C33 N35 1.316 . S
C33 N36 1.347 . S
C33 H38 0.931 . S
C34 N35 1.375 . S
C34 C37 1.350 . S
C34 H39 0.930 . S
N35 Co30 2.057 . S
N35 C33 1.316 . S
N35 C34 1.375 . S
N36 C33 1.347 . S
N36 C37 1.373 . S
C37 C34 1.350 . S
C37 N36 1.373 . S
C37 H58 0.931 . S
H38 C33 0.931 . S
H39 C34 0.930 . S
C40 O47 1.259 . S
C40 O48 1.258 . S
N41 Co32 2.057 . S
N41 C42 1.316 . S
N41 C43 1.375 . S
C42 N41 1.316 . S
C42 N44 1.347 . S
C42 H53 0.931 . S
C43 N41 1.375 . S
C43 C45 1.350 . S
C43 H52 0.930 . S
N44 C42 1.347 . S
N44 C45 1.373 . S
C45 C43 1.350 . S
C45 N44 1.373 . S
C45 H59 0.931 . S
C46 O49 1.256 . S
C46 O50 1.255 . S
O47 Co30 2.021 . S
O47 C40 1.259 . S
O48 Co32 2.117 . S
O48 C40 1.258 . S
O49 Co32 2.020 . S
O49 C46 1.256 . S
O50 Co30 2.062 . S
O50 C46 1.255 . S
O51 C31 1.259 . S
O51 Co32 2.021 . S
H52 C43 0.930 . S
H53 C42 0.931 . S
O54 Co30 2.117 . S
O54 C31 1.258 . S
O55 Co30 2.020 1_545 S
O55 C57 1.256 . S
O56 Co32 2.062 1_545 S
O56 C57 1.255 . S
C57 O55 1.256 . S
C57 O56 1.255 . S
H58 C37 0.931 . S
H59 C45 0.931 . S
Co60 N65 2.057 . S
Co60 O77 2.021 . S
Co60 O80 2.062 . S
Co60 O84 2.117 . S
Co60 O85 2.020 1_565 S
C61 O81 1.259 . S
C61 O84 1.258 . S
Co62 N71 2.057 . S
Co62 O78 2.117 . S
Co62 O79 2.020 . S
Co62 O81 2.021 . S
Co62 O86 2.062 1_565 S
C63 N65 1.316 . S
C63 N66 1.347 . S
C63 H68 0.931 . S
C64 N65 1.375 . S
C64 C67 1.350 . S
C64 H69 0.930 . S
N65 Co60 2.057 . S
N65 C63 1.316 . S
N65 C64 1.375 . S
N66 C63 1.347 . S
N66 C67 1.373 . S
C67 C64 1.350 . S
C67 N66 1.373 . S
C67 H88 0.931 . S
H68 C63 0.931 . S
H69 C64 0.930 . S
C70 O77 1.259 . S
C70 O78 1.258 . S
N71 Co62 2.057 . S
N71 C72 1.316 . S
N71 C73 1.375 . S
C72 N71 1.316 . S
C72 N74 1.347 . S
C72 H83 0.931 . S
C73 N71 1.375 . S
C73 C75 1.350 . S
C73 H82 0.930 . S
N74 C72 1.347 . S
N74 C75 1.373 . S
C75 C73 1.350 . S
C75 N74 1.373 . S
C75 H89 0.931 . S
C76 O79 1.256 . S
C76 O80 1.255 . S
O77 Co60 2.021 . S
O77 C70 1.259 . S
O78 Co62 2.117 . S
O78 C70 1.258 . S
O79 Co62 2.020 . S
O79 C76 1.256 . S
O80 Co60 2.062 . S
O80 C76 1.255 . S
O81 C61 1.259 . S
O81 Co62 2.021 . S
H82 C73 0.930 . S
H83 C72 0.931 . S
O84 Co60 2.117 . S
O84 C61 1.258 . S
O85 Co60 2.020 1_545 S
O85 C87 1.256 . S
O86 Co62 2.062 1_545 S
O86 C87 1.255 . S
C87 O85 1.256 . S
C87 O86 1.255 . S
H88 C67 0.931 . S
H89 C75 0.931 . S
Co90 N95 2.057 . S
Co90 O107 2.021 . S
Co90 O110 2.062 . S
Co90 O114 2.117 . S
Co90 O115 2.020 1_545 S
C91 O111 1.259 . S
C91 O114 1.258 . S
Co92 N101 2.057 . S
Co92 O108 2.117 . S
Co92 O109 2.020 . S
Co92 O111 2.021 . S
Co92 O116 2.062 1_545 S
C93 N95 1.316 . S
C93 N96 1.347 . S
C93 H98 0.931 . S
C94 N95 1.375 . S
C94 C97 1.350 . S
C94 H99 0.930 . S
N95 Co90 2.057 . S
N95 C93 1.316 . S
N95 C94 1.375 . S
N96 C93 1.347 . S
N96 C97 1.373 . S
C97 C94 1.350 . S
C97 N96 1.373 . S
C97 H118 0.931 . S
H98 C93 0.931 . S
H99 C94 0.930 . S
C100 O107 1.259 . S
C100 O108 1.258 . S
N101 Co92 2.057 . S
N101 C102 1.316 . S
N101 C103 1.375 . S
C102 N101 1.316 . S
C102 N104 1.347 . S
C102 H113 0.931 . S
C103 N101 1.375 . S
C103 C105 1.350 . S
C103 H112 0.930 . S
N104 C102 1.347 . S
N104 C105 1.373 . S
C105 C103 1.350 . S
C105 N104 1.373 . S
C105 H119 0.931 . S
C106 O109 1.256 . S
C106 O110 1.255 . S
O107 Co90 2.021 . S
O107 C100 1.259 . S
O108 Co92 2.117 . S
O108 C100 1.258 . S
O109 Co92 2.020 . S
O109 C106 1.256 . S
O110 Co90 2.062 . S
O110 C106 1.255 . S
O111 C91 1.259 . S
O111 Co92 2.021 . S
H112 C103 0.930 . S
H113 C102 0.931 . S
O114 Co90 2.117 . S
O114 C91 1.258 . S
O115 Co90 2.020 1_565 S
O115 C117 1.256 . S
O116 Co92 2.062 1_565 S
O116 C117 1.255 . S
C117 O115 1.256 . S
C117 O116 1.255 . S
H118 C97 0.931 . S
H119 C105 0.931 . S
Co120 N125 2.057 . S
Co120 O137 2.021 . S
Co120 O140 2.062 1_565 S
Co120 O144 2.117 . S
Co120 O145 2.020 . S
C121 O141 1.259 . S
C121 O144 1.258 . S
Co122 N131 2.057 . S
Co122 O138 2.117 . S
Co122 O139 2.020 1_565 S
Co122 O141 2.021 . S
Co122 O146 2.062 . S
C123 N125 1.316 . S
C123 N126 1.347 . S
C123 H128 0.931 . S
C124 N125 1.375 . S
C124 C127 1.350 . S
C124 H129 0.930 . S
N125 Co120 2.057 . S
N125 C123 1.316 . S
N125 C124 1.375 . S
N126 C123 1.347 . S
N126 C127 1.373 . S
C127 C124 1.350 . S
C127 N126 1.373 . S
C127 H148 0.931 . S
H128 C123 0.931 . S
H129 C124 0.930 . S
C130 O137 1.259 . S
C130 O138 1.258 . S
N131 Co122 2.057 . S
N131 C132 1.316 . S
N131 C133 1.375 . S
C132 N131 1.316 . S
C132 N134 1.347 . S
C132 H143 0.931 . S
C133 N131 1.375 . S
C133 C135 1.350 . S
C133 H142 0.930 . S
N134 C132 1.347 . S
N134 C135 1.373 . S
C135 C133 1.350 . S
C135 N134 1.373 . S
C135 H149 0.931 . S
C136 O139 1.256 . S
C136 O140 1.255 . S
O137 Co120 2.021 . S
O137 C130 1.259 . S
O138 Co122 2.117 . S
O138 C130 1.258 . S
O139 Co122 2.020 1_545 S
O139 C136 1.256 . S
O140 Co120 2.062 1_545 S
O140 C136 1.255 . S
O141 C121 1.259 . S
O141 Co122 2.021 . S
H142 C133 0.930 . S
H143 C132 0.931 . S
O144 Co120 2.117 . S
O144 C121 1.258 . S
O145 Co120 2.020 . S
O145 C147 1.256 . S
O146 Co122 2.062 . S
O146 C147 1.255 . S
C147 O145 1.256 . S
C147 O146 1.255 . S
H148 C127 0.931 . S
H149 C135 0.931 . S
Co150 N155 2.057 . S
Co150 O167 2.021 . S
Co150 O170 2.062 1_545 S
Co150 O174 2.117 . S
Co150 O175 2.020 . S
C151 O171 1.259 . S
C151 O174 1.258 . S
Co152 N161 2.057 . S
Co152 O168 2.117 . S
Co152 O169 2.020 1_545 S
Co152 O171 2.021 . S
Co152 O176 2.062 . S
C153 N155 1.316 . S
C153 N156 1.347 . S
C153 H158 0.931 . S
C154 N155 1.375 . S
C154 C157 1.350 . S
C154 H159 0.930 . S
N155 Co150 2.057 . S
N155 C153 1.316 . S
N155 C154 1.375 . S
N156 C153 1.347 . S
N156 C157 1.373 . S
C157 C154 1.350 . S
C157 N156 1.373 . S
C157 H178 0.931 . S
H158 C153 0.931 . S
H159 C154 0.930 . S
C160 O167 1.259 . S
C160 O168 1.258 . S
N161 Co152 2.057 . S
N161 C162 1.316 . S
N161 C163 1.375 . S
C162 N161 1.316 . S
C162 N164 1.347 . S
C162 H173 0.931 . S
C163 N161 1.375 . S
C163 C165 1.350 . S
C163 H172 0.930 . S
N164 C162 1.347 . S
N164 C165 1.373 . S
C165 C163 1.350 . S
C165 N164 1.373 . S
C165 H179 0.931 . S
C166 O169 1.256 . S
C166 O170 1.255 . S
O167 Co150 2.021 . S
O167 C160 1.259 . S
O168 Co152 2.117 . S
O168 C160 1.258 . S
O169 Co152 2.020 1_565 S
O169 C166 1.256 . S
O170 Co150 2.062 1_565 S
O170 C166 1.255 . S
O171 C151 1.259 . S
O171 Co152 2.021 . S
H172 C163 0.930 . S
H173 C162 0.931 . S
O174 Co150 2.117 . S
O174 C151 1.258 . S
O175 Co150 2.020 . S
O175 C177 1.256 . S
O176 Co152 2.062 . S
O176 C177 1.255 . S
C177 O175 1.256 . S
C177 O176 1.255 . S
H178 C157 0.931 . S
H179 C165 0.931 . S
Co180 N185 2.057 . S
Co180 O197 2.021 . S
Co180 O200 2.062 1_545 S
Co180 O204 2.117 . S
Co180 O205 2.020 . S
C181 O201 1.259 . S
C181 O204 1.258 . S
Co182 N191 2.057 . S
Co182 O198 2.117 . S
Co182 O199 2.020 1_545 S
Co182 O201 2.021 . S
Co182 O206 2.062 . S
C183 N185 1.316 . S
C183 N186 1.347 . S
C183 H188 0.931 . S
C184 N185 1.375 . S
C184 C187 1.350 . S
C184 H189 0.930 . S
N185 Co180 2.057 . S
N185 C183 1.316 . S
N185 C184 1.375 . S
N186 C183 1.347 . S
N186 C187 1.373 . S
C187 C184 1.350 . S
C187 N186 1.373 . S
C187 H208 0.931 . S
H188 C183 0.931 . S
H189 C184 0.930 . S
C190 O197 1.259 . S
C190 O198 1.258 . S
N191 Co182 2.057 . S
N191 C192 1.316 . S
N191 C193 1.375 . S
C192 N191 1.316 . S
C192 N194 1.347 . S
C192 H203 0.931 . S
C193 N191 1.375 . S
C193 C195 1.350 . S
C193 H202 0.930 . S
N194 C192 1.347 . S
N194 C195 1.373 . S
C195 C193 1.350 . S
C195 N194 1.373 . S
C195 H209 0.931 . S
C196 O199 1.256 . S
C196 O200 1.255 . S
O197 Co180 2.021 . S
O197 C190 1.259 . S
O198 Co182 2.117 . S
O198 C190 1.258 . S
O199 Co182 2.020 1_565 S
O199 C196 1.256 . S
O200 Co180 2.062 1_565 S
O200 C196 1.255 . S
O201 C181 1.259 . S
O201 Co182 2.021 . S
H202 C193 0.930 . S
H203 C192 0.931 . S
O204 Co180 2.117 . S
O204 C181 1.258 . S
O205 Co180 2.020 . S
O205 C207 1.256 . S
O206 Co182 2.062 . S
O206 C207 1.255 . S
C207 O205 1.256 . S
C207 O206 1.255 . S
H208 C187 0.931 . S
H209 C195 0.931 . S
Co210 N215 2.057 . S
Co210 O227 2.021 . S
Co210 O230 2.062 1_565 S
Co210 O234 2.117 . S
Co210 O235 2.020 . S
C211 O231 1.259 . S
C211 O234 1.258 . S
Co212 N221 2.057 . S
Co212 O228 2.117 . S
Co212 O229 2.020 1_565 S
Co212 O231 2.021 . S
Co212 O236 2.062 . S
C213 N215 1.316 . S
C213 N216 1.347 . S
C213 H218 0.931 . S
C214 N215 1.375 . S
C214 C217 1.350 . S
C214 H219 0.930 . S
N215 Co210 2.057 . S
N215 C213 1.316 . S
N215 C214 1.375 . S
N216 C213 1.347 . S
N216 C217 1.373 . S
C217 C214 1.350 . S
C217 N216 1.373 . S
C217 H238 0.931 . S
H218 C213 0.931 . S
H219 C214 0.930 . S
C220 O227 1.259 . S
C220 O228 1.258 . S
N221 Co212 2.057 . S
N221 C222 1.316 . S
N221 C223 1.375 . S
C222 N221 1.316 . S
C222 N224 1.347 . S
C222 H233 0.931 . S
C223 N221 1.375 . S
C223 C225 1.350 . S
C223 H232 0.930 . S
N224 C222 1.347 . S
N224 C225 1.373 . S
C225 C223 1.350 . S
C225 N224 1.373 . S
C225 H239 0.931 . S
C226 O229 1.256 . S
C226 O230 1.255 . S
O227 Co210 2.021 . S
O227 C220 1.259 . S
O228 Co212 2.117 . S
O228 C220 1.258 . S
O229 Co212 2.020 1_545 S
O229 C226 1.256 . S
O230 Co210 2.062 1_545 S
O230 C226 1.255 . S
O231 C211 1.259 . S
O231 Co212 2.021 . S
H232 C223 0.930 . S
H233 C222 0.931 . S
O234 Co210 2.117 . S
O234 C211 1.258 . S
O235 Co210 2.020 . S
O235 C237 1.256 . S
O236 Co212 2.062 . S
O236 C237 1.255 . S
C237 O235 1.256 . S
C237 O236 1.255 . S
H238 C217 0.931 . S
H239 C225 0.931 . S
Co240 N245 2.057 . S
Co240 O257 2.021 . S
Co240 O260 2.062 . S
Co240 O264 2.117 . S
Co240 O265 2.020 . S
C241 O261 1.259 . S
C241 O264 1.258 . S
Co242 N251 2.057 . S
Co242 O258 2.117 . S
Co242 O259 2.020 . S
Co242 O261 2.021 . S
Co242 O266 2.062 . S
C243 N245 1.316 . S
C243 N246 1.347 . S
C243 H248 0.931 . S
C244 N245 1.375 . S
C244 C247 1.350 . S
C244 H249 0.930 . S
N245 Co240 2.057 . S
N245 C243 1.316 . S
N245 C244 1.375 . S
N246 C243 1.347 . S
N246 C247 1.373 . S
C247 C244 1.350 . S
C247 N246 1.373 . S
C247 H268 0.931 . S
H248 C243 0.931 . S
H249 C244 0.930 . S
C250 O257 1.259 . S
C250 O258 1.258 . S
N251 Co242 2.057 . S
N251 C252 1.316 . S
N251 C253 1.375 . S
C252 N251 1.316 . S
C252 N254 1.347 . S
C252 H263 0.931 . S
C253 N251 1.375 . S
C253 C255 1.350 . S
C253 H262 0.930 . S
N254 C252 1.347 . S
N254 C255 1.373 . S
C255 C253 1.350 . S
C255 N254 1.373 . S
C255 H269 0.931 . S
C256 O259 1.256 . S
C256 O260 1.255 . S
O257 Co240 2.021 . S
O257 C250 1.259 . S
O258 Co242 2.117 . S
O258 C250 1.258 . S
O259 Co242 2.020 . S
O259 C256 1.256 . S
O260 Co240 2.062 . S
O260 C256 1.255 . S
O261 C241 1.259 . S
O261 Co242 2.021 . S
H262 C253 0.930 . S
H263 C252 0.931 . S
O264 Co240 2.117 . S
O264 C241 1.258 . S
O265 Co240 2.020 . S
O265 C267 1.256 . S
O266 Co242 2.062 . S
O266 C267 1.255 . S
C267 O265 1.256 . S
C267 O266 1.255 . S
H268 C247 0.931 . S
H269 C255 0.931 . S
Co270 N275 2.057 . S
Co270 O287 2.021 . S
Co270 O290 2.062 . S
Co270 O294 2.117 . S
Co270 O295 2.020 . S
C271 O291 1.259 . S
C271 O294 1.258 . S
Co272 N281 2.057 . S
Co272 O288 2.117 . S
Co272 O289 2.020 . S
Co272 O291 2.021 . S
Co272 O296 2.062 . S
C273 N275 1.316 . S
C273 N276 1.347 . S
C273 H278 0.931 . S
C274 N275 1.375 . S
C274 C277 1.350 . S
C274 H279 0.930 . S
N275 Co270 2.057 . S
N275 C273 1.316 . S
N275 C274 1.375 . S
N276 C273 1.347 . S
N276 C277 1.373 . S
C277 C274 1.350 . S
C277 N276 1.373 . S
C277 H298 0.931 . S
H278 C273 0.931 . S
H279 C274 0.930 . S
C280 O287 1.259 . S
C280 O288 1.258 . S
N281 Co272 2.057 . S
N281 C282 1.316 . S
N281 C283 1.375 . S
C282 N281 1.316 . S
C282 N284 1.347 . S
C282 H293 0.931 . S
C283 N281 1.375 . S
C283 C285 1.350 . S
C283 H292 0.930 . S
N284 C282 1.347 . S
N284 C285 1.373 . S
C285 C283 1.350 . S
C285 N284 1.373 . S
C285 H299 0.931 . S
C286 O289 1.256 . S
C286 O290 1.255 . S
O287 Co270 2.021 . S
O287 C280 1.259 . S
O288 Co272 2.117 . S
O288 C280 1.258 . S
O289 Co272 2.020 . S
O289 C286 1.256 . S
O290 Co270 2.062 . S
O290 C286 1.255 . S
O291 C271 1.259 . S
O291 Co272 2.021 . S
H292 C283 0.930 . S
H293 C282 0.931 . S
O294 Co270 2.117 . S
O294 C271 1.258 . S
O295 Co270 2.020 . S
O295 C297 1.256 . S
O296 Co272 2.062 . S
O296 C297 1.255 . S
C297 O295 1.256 . S
C297 O296 1.255 . S
H298 C277 0.931 . S
H299 C285 0.931 . S
Co300 N305 2.057 . S
Co300 O317 2.021 . S
Co300 O320 2.062 . S
Co300 O324 2.117 . S
Co300 O325 2.020 . S
C301 O321 1.259 . S
C301 O324 1.258 . S
Co302 N311 2.057 . S
Co302 O318 2.117 . S
Co302 O319 2.020 . S
Co302 O321 2.021 . S
Co302 O326 2.062 . S
C303 N305 1.316 . S
C303 N306 1.347 . S
C303 H308 0.931 . S
C304 N305 1.375 . S
C304 C307 1.350 . S
C304 H309 0.930 . S
N305 Co300 2.057 . S
N305 C303 1.316 . S
N305 C304 1.375 . S
N306 C303 1.347 . S
N306 C307 1.373 . S
C307 C304 1.350 . S
C307 N306 1.373 . S
C307 H328 0.931 . S
H308 C303 0.931 . S
H309 C304 0.930 . S
C310 O317 1.259 . S
C310 O318 1.258 . S
N311 Co302 2.057 . S
N311 C312 1.316 . S
N311 C313 1.375 . S
C312 N311 1.316 . S
C312 N314 1.347 . S
C312 H323 0.931 . S
C313 N311 1.375 . S
C313 C315 1.350 . S
C313 H322 0.930 . S
N314 C312 1.347 . S
N314 C315 1.373 . S
C315 C313 1.350 . S
C315 N314 1.373 . S
C315 H329 0.931 . S
C316 O319 1.256 . S
C316 O320 1.255 . S
O317 Co300 2.021 . S
O317 C310 1.259 . S
O318 Co302 2.117 . S
O318 C310 1.258 . S
O319 Co302 2.020 . S
O319 C316 1.256 . S
O320 Co300 2.062 . S
O320 C316 1.255 . S
O321 C301 1.259 . S
O321 Co302 2.021 . S
H322 C313 0.930 . S
H323 C312 0.931 . S
O324 Co300 2.117 . S
O324 C301 1.258 . S
O325 Co300 2.020 . S
O325 C327 1.256 . S
O326 Co302 2.062 . S
O326 C327 1.255 . S
C327 O325 1.256 . S
C327 O326 1.255 . S
H328 C307 0.931 . S
H329 C315 0.931 . S
Co330 N335 2.057 . S
Co330 O347 2.021 . S
Co330 O350 2.062 . S
Co330 O354 2.117 . S
Co330 O355 2.020 . S
C331 O351 1.259 . S
C331 O354 1.258 . S
Co332 N341 2.057 . S
Co332 O348 2.117 . S
Co332 O349 2.020 . S
Co332 O351 2.021 . S
Co332 O356 2.062 . S
C333 N335 1.316 . S
C333 N336 1.347 . S
C333 H338 0.931 . S
C334 N335 1.375 . S
C334 C337 1.350 . S
C334 H339 0.930 . S
N335 Co330 2.057 . S
N335 C333 1.316 . S
N335 C334 1.375 . S
N336 C333 1.347 . S
N336 C337 1.373 . S
C337 C334 1.350 . S
C337 N336 1.373 . S
C337 H358 0.931 . S
H338 C333 0.931 . S
H339 C334 0.930 . S
C340 O347 1.259 . S
C340 O348 1.258 . S
N341 Co332 2.057 . S
N341 C342 1.316 . S
N341 C343 1.375 . S
C342 N341 1.316 . S
C342 N344 1.347 . S
C342 H353 0.931 . S
C343 N341 1.375 . S
C343 C345 1.350 . S
C343 H352 0.930 . S
N344 C342 1.347 . S
N344 C345 1.373 . S
C345 C343 1.350 . S
C345 N344 1.373 . S
C345 H359 0.931 . S
C346 O349 1.256 . S
C346 O350 1.255 . S
O347 Co330 2.021 . S
O347 C340 1.259 . S
O348 Co332 2.117 . S
O348 C340 1.258 . S
O349 Co332 2.020 . S
O349 C346 1.256 . S
O350 Co330 2.062 . S
O350 C346 1.255 . S
O351 C331 1.259 . S
O351 Co332 2.021 . S
H352 C343 0.930 . S
H353 C342 0.931 . S
O354 Co330 2.117 . S
O354 C331 1.258 . S
O355 Co330 2.020 . S
O355 C357 1.256 . S
O356 Co332 2.062 . S
O356 C357 1.255 . S
C357 O355 1.256 . S
C357 O356 1.255 . S
H358 C337 0.931 . S
H359 C345 0.931 . S
Co360 N365 2.057 . S
Co360 O377 2.021 . S
Co360 O380 2.062 . S
Co360 O384 2.117 . S
Co360 O385 2.020 . S
C361 O381 1.259 . S
C361 O384 1.258 . S
Co362 N371 2.057 . S
Co362 O378 2.117 . S
Co362 O379 2.020 . S
Co362 O381 2.021 . S
Co362 O386 2.062 . S
C363 N365 1.316 . S
C363 N366 1.347 . S
C363 H368 0.931 . S
C364 N365 1.375 . S
C364 C367 1.350 . S
C364 H369 0.930 . S
N365 Co360 2.057 . S
N365 C363 1.316 . S
N365 C364 1.375 . S
N366 C363 1.347 . S
N366 C367 1.373 . S
C367 C364 1.350 . S
C367 N366 1.373 . S
C367 H388 0.931 . S
H368 C363 0.931 . S
H369 C364 0.930 . S
C370 O377 1.259 . S
C370 O378 1.258 . S
N371 Co362 2.057 . S
N371 C372 1.316 . S
N371 C373 1.375 . S
C372 N371 1.316 . S
C372 N374 1.347 . S
C372 H383 0.931 . S
C373 N371 1.375 . S
C373 C375 1.350 . S
C373 H382 0.930 . S
N374 C372 1.347 . S
N374 C375 1.373 . S
C375 C373 1.350 . S
C375 N374 1.373 . S
C375 H389 0.931 . S
C376 O379 1.256 . S
C376 O380 1.255 . S
O377 Co360 2.021 . S
O377 C370 1.259 . S
O378 Co362 2.117 . S
O378 C370 1.258 . S
O379 Co362 2.020 . S
O379 C376 1.256 . S
O380 Co360 2.062 . S
O380 C376 1.255 . S
O381 C361 1.259 . S
O381 Co362 2.021 . S
H382 C373 0.930 . S
H383 C372 0.931 . S
O384 Co360 2.117 . S
O384 C361 1.258 . S
O385 Co360 2.020 . S
O385 C387 1.256 . S
O386 Co362 2.062 . S
O386 C387 1.255 . S
C387 O385 1.256 . S
C387 O386 1.255 . S
H388 C367 0.931 . S
H389 C375 0.931 . S
Co390 N395 2.057 . S
Co390 O407 2.021 . S
Co390 O410 2.062 . S
Co390 O414 2.117 . S
Co390 O415 2.020 . S
C391 O411 1.259 . S
C391 O414 1.258 . S
Co392 N401 2.057 . S
Co392 O408 2.117 . S
Co392 O409 2.020 . S
Co392 O411 2.021 . S
Co392 O416 2.062 . S
C393 N395 1.316 . S
C393 N396 1.347 . S
C393 H398 0.931 . S
C394 N395 1.375 . S
C394 C397 1.350 . S
C394 H399 0.930 . S
N395 Co390 2.057 . S
N395 C393 1.316 . S
N395 C394 1.375 . S
N396 C393 1.347 . S
N396 C397 1.373 . S
C397 C394 1.350 . S
C397 N396 1.373 . S
C397 H418 0.931 . S
H398 C393 0.931 . S
H399 C394 0.930 . S
C400 O407 1.259 . S
C400 O408 1.258 . S
N401 Co392 2.057 . S
N401 C402 1.316 . S
N401 C403 1.375 . S
C402 N401 1.316 . S
C402 N404 1.347 . S
C402 H413 0.931 . S
C403 N401 1.375 . S
C403 C405 1.350 . S
C403 H412 0.930 . S
N404 C402 1.347 . S
N404 C405 1.373 . S
C405 C403 1.350 . S
C405 N404 1.373 . S
C405 H419 0.931 . S
C406 O409 1.256 . S
C406 O410 1.255 . S
O407 Co390 2.021 . S
O407 C400 1.259 . S
O408 Co392 2.117 . S
O408 C400 1.258 . S
O409 Co392 2.020 . S
O409 C406 1.256 . S
O410 Co390 2.062 . S
O410 C406 1.255 . S
O411 C391 1.259 . S
O411 Co392 2.021 . S
H412 C403 0.930 . S
H413 C402 0.931 . S
O414 Co390 2.117 . S
O414 C391 1.258 . S
O415 Co390 2.020 . S
O415 C417 1.256 . S
O416 Co392 2.062 . S
O416 C417 1.255 . S
C417 O415 1.256 . S
C417 O416 1.255 . S
H418 C397 0.931 . S
H419 C405 0.931 . S
Co420 N425 2.057 . S
Co420 O437 2.021 . S
Co420 O440 2.062 . S
Co420 O444 2.117 . S
Co420 O445 2.020 . S
C421 O441 1.259 . S
C421 O444 1.258 . S
Co422 N431 2.057 . S
Co422 O438 2.117 . S
Co422 O439 2.020 . S
Co422 O441 2.021 . S
Co422 O446 2.062 . S
C423 N425 1.316 . S
C423 N426 1.347 . S
C423 H428 0.931 . S
C424 N425 1.375 . S
C424 C427 1.350 . S
C424 H429 0.930 . S
N425 Co420 2.057 . S
N425 C423 1.316 . S
N425 C424 1.375 . S
N426 C423 1.347 . S
N426 C427 1.373 . S
C427 C424 1.350 . S
C427 N426 1.373 . S
C427 H448 0.931 . S
H428 C423 0.931 . S
H429 C424 0.930 . S
C430 O437 1.259 . S
C430 O438 1.258 . S
N431 Co422 2.057 . S
N431 C432 1.316 . S
N431 C433 1.375 . S
C432 N431 1.316 . S
C432 N434 1.347 . S
C432 H443 0.931 . S
C433 N431 1.375 . S
C433 C435 1.350 . S
C433 H442 0.930 . S
N434 C432 1.347 . S
N434 C435 1.373 . S
C435 C433 1.350 . S
C435 N434 1.373 . S
C435 H449 0.931 . S
C436 O439 1.256 . S
C436 O440 1.255 . S
O437 Co420 2.021 . S
O437 C430 1.259 . S
O438 Co422 2.117 . S
O438 C430 1.258 . S
O439 Co422 2.020 . S
O439 C436 1.256 . S
O440 Co420 2.062 . S
O440 C436 1.255 . S
O441 C421 1.259 . S
O441 Co422 2.021 . S
H442 C433 0.930 . S
H443 C432 0.931 . S
O444 Co420 2.117 . S
O444 C421 1.258 . S
O445 Co420 2.020 . S
O445 C447 1.256 . S
O446 Co422 2.062 . S
O446 C447 1.255 . S
C447 O445 1.256 . S
C447 O446 1.255 . S
H448 C427 0.931 . S
H449 C435 0.931 . S
Co450 N455 2.057 . S
Co450 O467 2.021 . S
Co450 O470 2.062 . S
Co450 O474 2.117 . S
Co450 O475 2.020 . S
C451 O471 1.259 . S
C451 O474 1.258 . S
Co452 N461 2.057 . S
Co452 O468 2.117 . S
Co452 O469 2.020 . S
Co452 O471 2.021 . S
Co452 O476 2.062 . S
C453 N455 1.316 . S
C453 N456 1.347 . S
C453 H458 0.931 . S
C454 N455 1.375 . S
C454 C457 1.350 . S
C454 H459 0.930 . S
N455 Co450 2.057 . S
N455 C453 1.316 . S
N455 C454 1.375 . S
N456 C453 1.347 . S
N456 C457 1.373 . S
C457 C454 1.350 . S
C457 N456 1.373 . S
C457 H478 0.931 . S
H458 C453 0.931 . S
H459 C454 0.930 . S
C460 O467 1.259 . S
C460 O468 1.258 . S
N461 Co452 2.057 . S
N461 C462 1.316 . S
N461 C463 1.375 . S
C462 N461 1.316 . S
C462 N464 1.347 . S
C462 H473 0.931 . S
C463 N461 1.375 . S
C463 C465 1.350 . S
C463 H472 0.930 . S
N464 C462 1.347 . S
N464 C465 1.373 . S
C465 C463 1.350 . S
C465 N464 1.373 . S
C465 H479 0.931 . S
C466 O469 1.256 . S
C466 O470 1.255 . S
O467 Co450 2.021 . S
O467 C460 1.259 . S
O468 Co452 2.117 . S
O468 C460 1.258 . S
O469 Co452 2.020 . S
O469 C466 1.256 . S
O470 Co450 2.062 . S
O470 C466 1.255 . S
O471 C451 1.259 . S
O471 Co452 2.021 . S
H472 C463 0.930 . S
H473 C462 0.931 . S
O474 Co450 2.117 . S
O474 C451 1.258 . S
O475 Co450 2.020 . S
O475 C477 1.256 . S
O476 Co452 2.062 . S
O476 C477 1.255 . S
C477 O475 1.256 . S
C477 O476 1.255 . S
H478 C457 0.931 . S
H479 C465 0.931 . S
C480 C481 1.363 . S
C480 C486 1.379 . S
C480 N488 1.356 . S
C481 C480 1.363 . S
C481 C487 1.363 . S
C482 C483 1.363 . S
C482 C487 1.379 . S
C482 N489 1.356 . S
C483 C482 1.363 . S
C483 C486 1.363 . S
N484 C486 1.356 . S
N484 H496 0.984 . S
N484 H497 0.985 . S
N485 C487 1.356 . S
N485 H490 0.984 . S
N485 H491 0.985 . S
C486 C480 1.379 . S
C486 C483 1.363 . S
C486 N484 1.356 . S
C487 C481 1.363 . S
C487 C482 1.379 . S
C487 N485 1.356 . S
N488 C480 1.356 . S
N488 H494 0.984 . S
N488 H495 0.984 . S
N489 C482 1.356 . S
N489 H492 0.984 . S
N489 H493 0.985 . S
H490 N485 0.984 . S
H491 N485 0.985 . S
H492 N489 0.984 . S
H493 N489 0.985 . S
H494 N488 0.984 . S
H495 N488 0.984 . S
H496 N484 0.984 . S
H497 N484 0.985 . S
C498 C499 1.363 . S
C498 C504 1.379 . S
C498 N506 1.356 . S
C499 C498 1.363 . S
C499 C505 1.363 . S
C500 C501 1.363 . S
C500 C505 1.379 . S
C500 N507 1.356 . S
C501 C500 1.363 . S
C501 C504 1.363 . S
N502 C504 1.356 . S
N502 H514 0.984 . S
N502 H515 0.985 . S
N503 C505 1.356 . S
N503 H508 0.984 . S
N503 H509 0.985 . S
C504 C498 1.379 . S
C504 C501 1.363 . S
C504 N502 1.356 . S
C505 C499 1.363 . S
C505 C500 1.379 . S
C505 N503 1.356 . S
N506 C498 1.356 . S
N506 H512 0.984 . S
N506 H513 0.984 . S
N507 C500 1.356 . S
N507 H510 0.984 . S
N507 H511 0.985 . S
H508 N503 0.984 . S
H509 N503 0.985 . S
H510 N507 0.984 . S
H511 N507 0.985 . S
H512 N506 0.984 . S
H513 N506 0.984 . S
H514 N502 0.984 . S
H515 N502 0.985 . S
C516 C517 1.363 . S
C516 C522 1.379 . S
C516 N524 1.356 . S
C517 C516 1.363 . S
C517 C523 1.363 . S
C518 C519 1.363 . S
C518 C523 1.379 . S
C518 N525 1.356 . S
C519 C518 1.363 . S
C519 C522 1.363 . S
N520 C522 1.356 . S
N520 H532 0.984 . S
N520 H533 0.985 . S
N521 C523 1.356 . S
N521 H526 0.984 . S
N521 H527 0.985 . S
C522 C516 1.379 . S
C522 C519 1.363 . S
C522 N520 1.356 . S
C523 C517 1.363 . S
C523 C518 1.379 . S
C523 N521 1.356 . S
N524 C516 1.356 . S
N524 H530 0.984 . S
N524 H531 0.984 . S
N525 C518 1.356 . S
N525 H528 0.984 . S
N525 H529 0.985 . S
H526 N521 0.984 . S
H527 N521 0.985 . S
H528 N525 0.984 . S
H529 N525 0.985 . S
H530 N524 0.984 . S
H531 N524 0.984 . S
H532 N520 0.984 . S
H533 N520 0.985 . S
C534 C535 1.363 . S
C534 C540 1.379 . S
C534 N542 1.356 . S
C535 C534 1.363 . S
C535 C541 1.363 . S
C536 C537 1.363 . S
C536 C541 1.379 . S
C536 N543 1.356 . S
C537 C536 1.363 . S
C537 C540 1.363 . S
N538 C540 1.356 . S
N538 H550 0.984 . S
N538 H551 0.985 . S
N539 C541 1.356 . S
N539 H544 0.984 . S
N539 H545 0.985 . S
C540 C534 1.379 . S
C540 C537 1.363 . S
C540 N538 1.356 . S
C541 C535 1.363 . S
C541 C536 1.379 . S
C541 N539 1.356 . S
N542 C534 1.356 . S
N542 H548 0.984 . S
N542 H549 0.984 . S
N543 C536 1.356 . S
N543 H546 0.984 . S
N543 H547 0.985 . S
H544 N539 0.984 . S
H545 N539 0.985 . S
H546 N543 0.984 . S
H547 N543 0.985 . S
H548 N542 0.984 . S
H549 N542 0.984 . S
H550 N538 0.984 . S
H551 N538 0.985 . S
C552 C553 1.363 . S
C552 C558 1.379 . S
C552 N560 1.356 . S
C553 C552 1.363 . S
C553 C559 1.363 . S
C554 C555 1.363 . S
C554 C559 1.379 . S
C554 N561 1.356 . S
C555 C554 1.363 . S
C555 C558 1.363 . S
N556 C558 1.356 . S
N556 H568 0.984 . S
N556 H569 0.985 . S
N557 C559 1.356 . S
N557 H562 0.984 . S
N557 H563 0.985 . S
C558 C552 1.379 . S
C558 C555 1.363 . S
C558 N556 1.356 . S
C559 C553 1.363 . S
C559 C554 1.379 . S
C559 N557 1.356 . S
N560 C552 1.356 . S
N560 H566 0.984 . S
N560 H567 0.984 . S
N561 C554 1.356 . S
N561 H564 0.984 . S
N561 H565 0.985 . S
H562 N557 0.984 . S
H563 N557 0.985 . S
H564 N561 0.984 . S
H565 N561 0.985 . S
H566 N560 0.984 . S
H567 N560 0.984 . S
H568 N556 0.984 . S
H569 N556 0.985 . S
C570 C571 1.363 . S
C570 C576 1.379 . S
C570 N578 1.356 . S
C571 C570 1.363 . S
C571 C577 1.363 . S
C572 C573 1.363 . S
C572 C577 1.379 . S
C572 N579 1.356 . S
C573 C572 1.363 . S
C573 C576 1.363 . S
N574 C576 1.356 . S
N574 H586 0.984 . S
N574 H587 0.985 . S
N575 C577 1.356 . S
N575 H580 0.984 . S
N575 H581 0.985 . S
C576 C570 1.379 . S
C576 C573 1.363 . S
C576 N574 1.356 . S
C577 C571 1.363 . S
C577 C572 1.379 . S
C577 N575 1.356 . S
N578 C570 1.356 . S
N578 H584 0.984 . S
N578 H585 0.984 . S
N579 C572 1.356 . S
N579 H582 0.984 . S
N579 H583 0.985 . S
H580 N575 0.984 . S
H581 N575 0.985 . S
H582 N579 0.984 . S
H583 N579 0.985 . S
H584 N578 0.984 . S
H585 N578 0.984 . S
H586 N574 0.984 . S
H587 N574 0.985 . S
C588 C589 1.363 . S
C588 C594 1.379 . S
C588 N596 1.356 . S
C589 C588 1.363 . S
C589 C595 1.363 . S
C590 C591 1.363 . S
C590 C595 1.379 . S
C590 N597 1.356 . S
C591 C590 1.363 . S
C591 C594 1.363 . S
N592 C594 1.356 . S
N592 H604 0.984 . S
N592 H605 0.985 . S
N593 C595 1.356 . S
N593 H598 0.984 . S
N593 H599 0.985 . S
C594 C588 1.379 . S
C594 C591 1.363 . S
C594 N592 1.356 . S
C595 C589 1.363 . S
C595 C590 1.379 . S
C595 N593 1.356 . S
N596 C588 1.356 . S
N596 H602 0.984 . S
N596 H603 0.984 . S
N597 C590 1.356 . S
N597 H600 0.984 . S
N597 H601 0.985 . S
H598 N593 0.984 . S
H599 N593 0.985 . S
H600 N597 0.984 . S
H601 N597 0.985 . S
H602 N596 0.984 . S
H603 N596 0.984 . S
H604 N592 0.984 . S
H605 N592 0.985 . S
C606 C607 1.363 . S
C606 C612 1.379 . S
C606 N614 1.356 . S
C607 C606 1.363 . S
C607 C613 1.363 . S
C608 C609 1.363 . S
C608 C613 1.379 . S
C608 N615 1.356 . S
C609 C608 1.363 . S
C609 C612 1.363 . S
N610 C612 1.356 . S
N610 H622 0.984 . S
N610 H623 0.985 . S
N611 C613 1.356 . S
N611 H616 0.984 . S
N611 H617 0.985 . S
C612 C606 1.379 . S
C612 C609 1.363 . S
C612 N610 1.356 . S
C613 C607 1.363 . S
C613 C608 1.379 . S
C613 N611 1.356 . S
N614 C606 1.356 . S
N614 H620 0.984 . S
N614 H621 0.984 . S
N615 C608 1.356 . S
N615 H618 0.984 . S
N615 H619 0.985 . S
H616 N611 0.984 . S
H617 N611 0.985 . S
H618 N615 0.984 . S
H619 N615 0.985 . S
H620 N614 0.984 . S
H621 N614 0.984 . S
H622 N610 0.984 . S
H623 N610 0.985 . S
C624 C625 1.363 . S
C624 C630 1.379 . S
C624 N632 1.356 . S
C625 C624 1.363 . S
C625 C631 1.363 1_565 S
C626 C627 1.363 . S
C626 C631 1.379 . S
C626 N633 1.356 . S
C627 C626 1.363 . S
C627 C630 1.363 1_545 S
N628 C630 1.356 . S
N628 H640 0.984 . S
N628 H641 0.985 . S
N629 C631 1.356 . S
N629 H634 0.984 . S
N629 H635 0.985 . S
C630 C624 1.379 . S
C630 C627 1.363 1_565 S
C630 N628 1.356 . S
C631 C625 1.363 1_545 S
C631 C626 1.379 . S
C631 N629 1.356 . S
N632 C624 1.356 . S
N632 H638 0.984 . S
N632 H639 0.984 . S
N633 C626 1.356 . S
N633 H636 0.984 . S
N633 H637 0.985 . S
H634 N629 0.984 . S
H635 N629 0.985 . S
H636 N633 0.984 . S
H637 N633 0.985 . S
H638 N632 0.984 . S
H639 N632 0.984 . S
H640 N628 0.984 . S
H641 N628 0.985 . S
C642 C643 1.363 . S
C642 C648 1.379 . S
C642 N650 1.356 . S
C643 C642 1.363 . S
C643 C649 1.363 1_545 S
C644 C645 1.363 . S
C644 C649 1.379 . S
C644 N651 1.356 . S
C645 C644 1.363 . S
C645 C648 1.363 1_565 S
N646 C648 1.356 . S
N646 H658 0.984 . S
N646 H659 0.985 . S
N647 C649 1.356 . S
N647 H652 0.984 . S
N647 H653 0.985 . S
C648 C642 1.379 . S
C648 C645 1.363 1_545 S
C648 N646 1.356 . S
C649 C643 1.363 1_565 S
C649 C644 1.379 . S
C649 N647 1.356 . S
N650 C642 1.356 . S
N650 H656 0.984 . S
N650 H657 0.984 . S
N651 C644 1.356 . S
N651 H654 0.984 . S
N651 H655 0.985 . S
H652 N647 0.984 . S
H653 N647 0.985 . S
H654 N651 0.984 . S
H655 N651 0.985 . S
H656 N650 0.984 . S
H657 N650 0.984 . S
H658 N646 0.984 . S
H659 N646 0.985 . S
C660 C661 1.363 1_565 S
C660 C666 1.379 . S
C660 N668 1.356 . S
C661 C660 1.363 1_545 S
C661 C667 1.363 . S
C662 C663 1.363 1_545 S
C662 C667 1.379 . S
C662 N669 1.356 . S
C663 C662 1.363 1_565 S
C663 C666 1.363 . S
N664 C666 1.356 . S
N664 H676 0.984 . S
N664 H677 0.985 . S
N665 C667 1.356 . S
N665 H670 0.984 . S
N665 H671 0.985 . S
C666 C660 1.379 . S
C666 C663 1.363 . S
C666 N664 1.356 . S
C667 C661 1.363 . S
C667 C662 1.379 . S
C667 N665 1.356 . S
N668 C660 1.356 . S
N668 H674 0.984 . S
N668 H675 0.984 . S
N669 C662 1.356 . S
N669 H672 0.984 . S
N669 H673 0.985 . S
H670 N665 0.984 . S
H671 N665 0.985 . S
H672 N669 0.984 . S
H673 N669 0.985 . S
H674 N668 0.984 . S
H675 N668 0.984 . S
H676 N664 0.984 . S
H677 N664 0.985 . S
C678 C679 1.363 . S
C678 C684 1.379 . S
C678 N686 1.356 . S
C679 C678 1.363 . S
C679 C685 1.363 1_545 S
C680 C681 1.363 . S
C680 C685 1.379 . S
C680 N687 1.356 . S
C681 C680 1.363 . S
C681 C684 1.363 1_565 S
N682 C684 1.356 . S
N682 H694 0.984 . S
N682 H695 0.985 . S
N683 C685 1.356 . S
N683 H688 0.984 . S
N683 H689 0.985 . S
C684 C678 1.379 . S
C684 C681 1.363 1_545 S
C684 N682 1.356 . S
C685 C679 1.363 1_565 S
C685 C680 1.379 . S
C685 N683 1.356 . S
N686 C678 1.356 . S
N686 H692 0.984 . S
N686 H693 0.984 . S
N687 C680 1.356 . S
N687 H690 0.984 . S
N687 H691 0.985 . S
H688 N683 0.984 . S
H689 N683 0.985 . S
H690 N687 0.984 . S
H691 N687 0.985 . S
H692 N686 0.984 . S
H693 N686 0.984 . S
H694 N682 0.984 . S
H695 N682 0.985 . S
C696 C697 1.363 . S
C696 C702 1.379 . S
C696 N704 1.356 . S
C697 C696 1.363 . S
C697 C703 1.363 . S
C698 C699 1.363 . S
C698 C703 1.379 . S
C698 N705 1.356 . S
C699 C698 1.363 . S
C699 C702 1.363 . S
N700 C702 1.356 . S
N700 H712 0.984 . S
N700 H713 0.985 . S
N701 C703 1.356 . S
N701 H706 0.984 . S
N701 H707 0.985 . S
C702 C696 1.379 . S
C702 C699 1.363 . S
C702 N700 1.356 . S
C703 C697 1.363 . S
C703 C698 1.379 . S
C703 N701 1.356 . S
N704 C696 1.356 . S
N704 H710 0.984 . S
N704 H711 0.984 . S
N705 C698 1.356 . S
N705 H708 0.984 . S
N705 H709 0.985 . S
H706 N701 0.984 . S
H707 N701 0.985 . S
H708 N705 0.984 . S
H709 N705 0.985 . S
H710 N704 0.984 . S
H711 N704 0.984 . S
H712 N700 0.984 . S
H713 N700 0.985 . S
C714 C715 1.363 . S
C714 C720 1.379 . S
C714 N722 1.356 . S
C715 C714 1.363 . S
C715 C721 1.363 . S
C716 C717 1.363 . S
C716 C721 1.379 . S
C716 N723 1.356 . S
C717 C716 1.363 . S
C717 C720 1.363 . S
N718 C720 1.356 . S
N718 H730 0.984 . S
N718 H731 0.985 . S
N719 C721 1.356 . S
N719 H724 0.984 . S
N719 H725 0.985 . S
C720 C714 1.379 . S
C720 C717 1.363 . S
C720 N718 1.356 . S
C721 C715 1.363 . S
C721 C716 1.379 . S
C721 N719 1.356 . S
N722 C714 1.356 . S
N722 H728 0.984 . S
N722 H729 0.984 . S
N723 C716 1.356 . S
N723 H726 0.984 . S
N723 H727 0.985 . S
H724 N719 0.984 . S
H725 N719 0.985 . S
H726 N723 0.984 . S
H727 N723 0.985 . S
H728 N722 0.984 . S
H729 N722 0.984 . S
H730 N718 0.984 . S
H731 N718 0.985 . S
C732 C733 1.363 . S
C732 C738 1.379 . S
C732 N740 1.356 . S
C733 C732 1.363 . S
C733 C739 1.363 . S
C734 C735 1.363 . S
C734 C739 1.379 . S
C734 N741 1.356 . S
C735 C734 1.363 . S
C735 C738 1.363 . S
N736 C738 1.356 . S
N736 H748 0.984 . S
N736 H749 0.985 . S
N737 C739 1.356 . S
N737 H742 0.984 . S
N737 H743 0.985 . S
C738 C732 1.379 . S
C738 C735 1.363 . S
C738 N736 1.356 . S
C739 C733 1.363 . S
C739 C734 1.379 . S
C739 N737 1.356 . S
N740 C732 1.356 . S
N740 H746 0.984 . S
N740 H747 0.984 . S
N741 C734 1.356 . S
N741 H744 0.984 . S
N741 H745 0.985 . S
H742 N737 0.984 . S
H743 N737 0.985 . S
H744 N741 0.984 . S
H745 N741 0.985 . S
H746 N740 0.984 . S
H747 N740 0.984 . S
H748 N736 0.984 . S
H749 N736 0.985 . S
C750 C751 1.363 . S
C750 C756 1.379 . S
C750 N758 1.356 . S
C751 C750 1.363 . S
C751 C757 1.363 . S
C752 C753 1.363 . S
C752 C757 1.379 . S
C752 N759 1.356 . S
C753 C752 1.363 . S
C753 C756 1.363 . S
N754 C756 1.356 . S
N754 H766 0.984 . S
N754 H767 0.985 . S
N755 C757 1.356 . S
N755 H760 0.984 . S
N755 H761 0.985 . S
C756 C750 1.379 . S
C756 C753 1.363 . S
C756 N754 1.356 . S
C757 C751 1.363 . S
C757 C752 1.379 . S
C757 N755 1.356 . S
N758 C750 1.356 . S
N758 H764 0.984 . S
N758 H765 0.984 . S
N759 C752 1.356 . S
N759 H762 0.984 . S
N759 H763 0.985 . S
H760 N755 0.984 . S
H761 N755 0.985 . S
H762 N759 0.984 . S
H763 N759 0.985 . S
H764 N758 0.984 . S
H765 N758 0.984 . S
H766 N754 0.984 . S
H767 N754 0.985 . S
C768 C769 1.363 . S
C768 C774 1.379 1_556 S
C768 N776 1.356 . S
C769 C768 1.363 . S
C769 C775 1.363 . S
C770 C771 1.363 . S
C770 C775 1.379 1_554 S
C770 N777 1.356 1_545 S
C771 C770 1.363 . S
C771 C774 1.363 . S
N772 C774 1.356 . S
N772 H784 0.984 . S
N772 H785 0.985 . S
N773 C775 1.356 1_565 S
N773 H778 0.984 . S
N773 H779 0.985 . S
C774 C768 1.379 1_554 S
C774 C771 1.363 . S
C774 N772 1.356 . S
C775 C769 1.363 . S
C775 C770 1.379 1_556 S
C775 N773 1.356 1_545 S
N776 C768 1.356 . S
N776 H782 0.984 . S
N776 H783 0.984 . S
N777 C770 1.356 1_565 S
N777 H780 0.984 . S
N777 H781 0.985 . S
H778 N773 0.984 . S
H779 N773 0.985 . S
H780 N777 0.984 . S
H781 N777 0.985 . S
H782 N776 0.984 . S
H783 N776 0.984 . S
H784 N772 0.984 . S
H785 N772 0.985 . S
C786 C787 1.363 . S
C786 C792 1.379 1_556 S
C786 N794 1.356 . S
C787 C786 1.363 . S
C787 C793 1.363 . S
C788 C789 1.363 . S
C788 C793 1.379 1_554 S
C788 N795 1.356 1_565 S
C789 C788 1.363 . S
C789 C792 1.363 . S
N790 C792 1.356 . S
N790 H802 0.984 . S
N790 H803 0.985 . S
N791 C793 1.356 1_545 S
N791 H796 0.984 . S
N791 H797 0.985 . S
C792 C786 1.379 1_554 S
C792 C789 1.363 . S
C792 N790 1.356 . S
C793 C787 1.363 . S
C793 C788 1.379 1_556 S
C793 N791 1.356 1_565 S
N794 C786 1.356 . S
N794 H800 0.984 . S
N794 H801 0.984 . S
N795 C788 1.356 1_545 S
N795 H798 0.984 . S
N795 H799 0.985 . S
H796 N791 0.984 . S
H797 N791 0.985 . S
H798 N795 0.984 . S
H799 N795 0.985 . S
H800 N794 0.984 . S
H801 N794 0.984 . S
H802 N790 0.984 . S
H803 N790 0.985 . S
C804 C805 1.363 . S
C804 C810 1.379 . S
C804 N812 1.356 1_565 S
C805 C804 1.363 . S
C805 C811 1.363 . S
C806 C807 1.363 . S
C806 C811 1.379 . S
C806 N813 1.356 . S
C807 C806 1.363 . S
C807 C810 1.363 . S
N808 C810 1.356 1_545 S
N808 H820 0.984 . S
N808 H821 0.985 . S
N809 C811 1.356 . S
N809 H814 0.984 . S
N809 H815 0.985 . S
C810 C804 1.379 . S
C810 C807 1.363 . S
C810 N808 1.356 1_565 S
C811 C805 1.363 . S
C811 C806 1.379 . S
C811 N809 1.356 . S
N812 C804 1.356 1_545 S
N812 H818 0.984 . S
N812 H819 0.984 . S
N813 C806 1.356 . S
N813 H816 0.984 . S
N813 H817 0.985 . S
H814 N809 0.984 . S
H815 N809 0.985 . S
H816 N813 0.984 . S
H817 N813 0.985 . S
H818 N812 0.984 . S
H819 N812 0.984 . S
H820 N808 0.984 . S
H821 N808 0.985 . S
C822 C823 1.363 . S
C822 C828 1.379 . S
C822 N830 1.356 1_545 S
C823 C822 1.363 . S
C823 C829 1.363 . S
C824 C825 1.363 . S
C824 C829 1.379 . S
C824 N831 1.356 . S
C825 C824 1.363 . S
C825 C828 1.363 . S
N826 C828 1.356 1_565 S
N826 H838 0.984 . S
N826 H839 0.985 . S
N827 C829 1.356 . S
N827 H832 0.984 . S
N827 H833 0.985 . S
C828 C822 1.379 . S
C828 C825 1.363 . S
C828 N826 1.356 1_545 S
C829 C823 1.363 . S
C829 C824 1.379 . S
C829 N827 1.356 . S
N830 C822 1.356 1_565 S
N830 H836 0.984 . S
N830 H837 0.984 . S
N831 C824 1.356 . S
N831 H834 0.984 . S
N831 H835 0.985 . S
H832 N827 0.984 . S
H833 N827 0.985 . S
H834 N831 0.984 . S
H835 N831 0.985 . S
H836 N830 0.984 . S
H837 N830 0.984 . S
H838 N826 0.984 . S
H839 N826 0.985 . S
C840 C841 1.363 . S
C840 C846 1.379 1_554 S
C840 N848 1.356 . S
C841 C840 1.363 . S
C841 C847 1.363 . S
C842 C843 1.363 . S
C842 C847 1.379 1_556 S
C842 N849 1.356 . S
C843 C842 1.363 . S
C843 C846 1.363 . S
N844 C846 1.356 . S
N844 H856 0.984 . S
N844 H857 0.985 . S
N845 C847 1.356 . S
N845 H850 0.984 . S
N845 H851 0.985 . S
C846 C840 1.379 1_556 S
C846 C843 1.363 . S
C846 N844 1.356 . S
C847 C841 1.363 . S
C847 C842 1.379 1_554 S
C847 N845 1.356 . S
N848 C840 1.356 . S
N848 H854 0.984 . S
N848 H855 0.984 . S
N849 C842 1.356 . S
N849 H852 0.984 . S
N849 H853 0.985 . S
H850 N845 0.984 . S
H851 N845 0.985 . S
H852 N849 0.984 . S
H853 N849 0.985 . S
H854 N848 0.984 . S
H855 N848 0.984 . S
H856 N844 0.984 . S
H857 N844 0.985 . S
C858 C859 1.363 . S
C858 C864 1.379 1_556 S
C858 N866 1.356 . S
C859 C858 1.363 . S
C859 C865 1.363 . S
C860 C861 1.363 . S
C860 C865 1.379 1_554 S
C860 N867 1.356 . S
C861 C860 1.363 . S
C861 C864 1.363 . S
N862 C864 1.356 . S
N862 H874 0.984 . S
N862 H875 0.985 . S
N863 C865 1.356 . S
N863 H868 0.984 . S
N863 H869 0.985 . S
C864 C858 1.379 1_554 S
C864 C861 1.363 . S
C864 N862 1.356 . S
C865 C859 1.363 . S
C865 C860 1.379 1_556 S
C865 N863 1.356 . S
N866 C858 1.356 . S
N866 H872 0.984 . S
N866 H873 0.984 . S
N867 C860 1.356 . S
N867 H870 0.984 . S
N867 H871 0.985 . S
H868 N863 0.984 . S
H869 N863 0.985 . S
H870 N867 0.984 . S
H871 N867 0.985 . S
H872 N866 0.984 . S
H873 N866 0.984 . S
H874 N862 0.984 . S
H875 N862 0.985 . S
C876 C877 1.363 . S
C876 C882 1.379 . S
C876 N884 1.356 . S
C877 C876 1.363 . S
C877 C883 1.363 . S
C878 C879 1.363 . S
C878 C883 1.379 . S
C878 N885 1.356 . S
C879 C878 1.363 . S
C879 C882 1.363 . S
N880 C882 1.356 . S
N880 H892 0.984 . S
N880 H893 0.985 . S
N881 C883 1.356 . S
N881 H886 0.984 . S
N881 H887 0.985 . S
C882 C876 1.379 . S
C882 C879 1.363 . S
C882 N880 1.356 . S
C883 C877 1.363 . S
C883 C878 1.379 . S
C883 N881 1.356 . S
N884 C876 1.356 . S
N884 H890 0.984 . S
N884 H891 0.984 . S
N885 C878 1.356 . S
N885 H888 0.984 . S
N885 H889 0.985 . S
H886 N881 0.984 . S
H887 N881 0.985 . S
H888 N885 0.984 . S
H889 N885 0.985 . S
H890 N884 0.984 . S
H891 N884 0.984 . S
H892 N880 0.984 . S
H893 N880 0.985 . S
C894 C895 1.363 . S
C894 C900 1.379 . S
C894 N902 1.356 . S
C895 C894 1.363 . S
C895 C901 1.363 . S
C896 C897 1.363 . S
C896 C901 1.379 . S
C896 N903 1.356 . S
C897 C896 1.363 . S
C897 C900 1.363 . S
N898 C900 1.356 . S
N898 H910 0.984 . S
N898 H911 0.985 . S
N899 C901 1.356 . S
N899 H904 0.984 . S
N899 H905 0.985 . S
C900 C894 1.379 . S
C900 C897 1.363 . S
C900 N898 1.356 . S
C901 C895 1.363 . S
C901 C896 1.379 . S
C901 N899 1.356 . S
N902 C894 1.356 . S
N902 H908 0.984 . S
N902 H909 0.984 . S
N903 C896 1.356 . S
N903 H906 0.984 . S
N903 H907 0.985 . S
H904 N899 0.984 . S
H905 N899 0.985 . S
H906 N903 0.984 . S
H907 N903 0.985 . S
H908 N902 0.984 . S
H909 N902 0.984 . S
H910 N898 0.984 . S
H911 N898 0.985 . S
C912 C913 1.363 . S
C912 C918 1.379 1_655 S
C912 N920 1.356 . S
C913 C912 1.363 . S
C913 C919 1.363 1_565 S
C914 C915 1.363 . S
C914 C919 1.379 1_455 S
C914 N921 1.356 . S
C915 C914 1.363 . S
C915 C918 1.363 1_545 S
N916 C918 1.356 . S
N916 H928 0.984 . S
N916 H929 0.985 . S
N917 C919 1.356 . S
N917 H922 0.984 . S
N917 H923 0.985 . S
C918 C912 1.379 1_455 S
C918 C915 1.363 1_565 S
C918 N916 1.356 . S
C919 C913 1.363 1_545 S
C919 C914 1.379 1_655 S
C919 N917 1.356 . S
N920 C912 1.356 . S
N920 H926 0.984 . S
N920 H927 0.984 . S
N921 C914 1.356 . S
N921 H924 0.984 . S
N921 H925 0.985 . S
H922 N917 0.984 . S
H923 N917 0.985 . S
H924 N921 0.984 . S
H925 N921 0.985 . S
H926 N920 0.984 . S
H927 N920 0.984 . S
H928 N916 0.984 . S
H929 N916 0.985 . S
C930 C931 1.363 . S
C930 C936 1.379 1_655 S
C930 N938 1.356 . S
C931 C930 1.363 . S
C931 C937 1.363 1_545 S
C932 C933 1.363 . S
C932 C937 1.379 1_455 S
C932 N939 1.356 . S
C933 C932 1.363 . S
C933 C936 1.363 1_565 S
N934 C936 1.356 . S
N934 H946 0.984 . S
N934 H947 0.985 . S
N935 C937 1.356 . S
N935 H940 0.984 . S
N935 H941 0.985 . S
C936 C930 1.379 1_455 S
C936 C933 1.363 1_545 S
C936 N934 1.356 . S
C937 C931 1.363 1_565 S
C937 C932 1.379 1_655 S
C937 N935 1.356 . S
N938 C930 1.356 . S
N938 H944 0.984 . S
N938 H945 0.984 . S
N939 C932 1.356 . S
N939 H942 0.984 . S
N939 H943 0.985 . S
H940 N935 0.984 . S
H941 N935 0.985 . S
H942 N939 0.984 . S
H943 N939 0.985 . S
H944 N938 0.984 . S
H945 N938 0.984 . S
H946 N934 0.984 . S
H947 N934 0.985 . S
C948 C949 1.363 . S
C948 C954 1.379 1_455 S
C948 N956 1.356 . S
C949 C948 1.363 . S
C949 C955 1.363 1_545 S
C950 C951 1.363 . S
C950 C955 1.379 1_655 S
C950 N957 1.356 . S
C951 C950 1.363 . S
C951 C954 1.363 1_565 S
N952 C954 1.356 . S
N952 H964 0.984 . S
N952 H965 0.985 . S
N953 C955 1.356 . S
N953 H958 0.984 . S
N953 H959 0.985 . S
C954 C948 1.379 1_655 S
C954 C951 1.363 1_545 S
C954 N952 1.356 . S
C955 C949 1.363 1_565 S
C955 C950 1.379 1_455 S
C955 N953 1.356 . S
N956 C948 1.356 . S
N956 H962 0.984 . S
N956 H963 0.984 . S
N957 C950 1.356 . S
N957 H960 0.984 . S
N957 H961 0.985 . S
H958 N953 0.984 . S
H959 N953 0.985 . S
H960 N957 0.984 . S
H961 N957 0.985 . S
H962 N956 0.984 . S
H963 N956 0.984 . S
H964 N952 0.984 . S
H965 N952 0.985 . S
C966 C967 1.363 1_565 S
C966 C972 1.379 1_655 S
C966 N974 1.356 . S
C967 C966 1.363 1_545 S
C967 C973 1.363 . S
C968 C969 1.363 1_545 S
C968 C973 1.379 1_455 S
C968 N975 1.356 . S
C969 C968 1.363 1_565 S
C969 C972 1.363 . S
N970 C972 1.356 . S
N970 H982 0.984 . S
N970 H983 0.985 . S
N971 C973 1.356 . S
N971 H976 0.984 . S
N971 H977 0.985 . S
C972 C966 1.379 1_455 S
C972 C969 1.363 . S
C972 N970 1.356 . S
C973 C967 1.363 . S
C973 C968 1.379 1_655 S
C973 N971 1.356 . S
N974 C966 1.356 . S
N974 H980 0.984 . S
N974 H981 0.984 . S
N975 C968 1.356 . S
N975 H978 0.984 . S
N975 H979 0.985 . S
H976 N971 0.984 . S
H977 N971 0.985 . S
H978 N975 0.984 . S
H979 N975 0.985 . S
H980 N974 0.984 . S
H981 N974 0.984 . S
H982 N970 0.984 . S
H983 N970 0.985 . S
C984 C985 1.363 . S
C984 C990 1.379 . S
C984 N992 1.356 . S
C985 C984 1.363 . S
C985 C991 1.363 . S
C986 C987 1.363 . S
C986 C991 1.379 . S
C986 N993 1.356 . S
C987 C986 1.363 . S
C987 C990 1.363 . S
N988 C990 1.356 . S
N988 H1000 0.984 . S
N988 H1001 0.985 . S
N989 C991 1.356 . S
N989 H994 0.984 . S
N989 H995 0.985 . S
C990 C984 1.379 . S
C990 C987 1.363 . S
C990 N988 1.356 . S
C991 C985 1.363 . S
C991 C986 1.379 . S
C991 N989 1.356 . S
N992 C984 1.356 . S
N992 H998 0.984 . S
N992 H999 0.984 . S
N993 C986 1.356 . S
N993 H996 0.984 . S
N993 H997 0.985 . S
H994 N989 0.984 . S
H995 N989 0.985 . S
H996 N993 0.984 . S
H997 N993 0.985 . S
H998 N992 0.984 . S
H999 N992 0.984 . S
H1000 N988 0.984 . S
H1001 N988 0.985 . S
C1002 C1003 1.363 . S
C1002 C1008 1.379 . S
C1002 N1010 1.356 . S
C1003 C1002 1.363 . S
C1003 C1009 1.363 . S
C1004 C1005 1.363 . S
C1004 C1009 1.379 . S
C1004 N1011 1.356 . S
C1005 C1004 1.363 . S
C1005 C1008 1.363 . S
N1006 C1008 1.356 . S
N1006 H1018 0.984 . S
N1006 H1019 0.985 . S
N1007 C1009 1.356 . S
N1007 H1012 0.984 . S
N1007 H1013 0.985 . S
C1008 C1002 1.379 . S
C1008 C1005 1.363 . S
C1008 N1006 1.356 . S
C1009 C1003 1.363 . S
C1009 C1004 1.379 . S
C1009 N1007 1.356 . S
N1010 C1002 1.356 . S
N1010 H1016 0.984 . S
N1010 H1017 0.984 . S
N1011 C1004 1.356 . S
N1011 H1014 0.984 . S
N1011 H1015 0.985 . S
H1012 N1007 0.984 . S
H1013 N1007 0.985 . S
H1014 N1011 0.984 . S
H1015 N1011 0.985 . S
H1016 N1010 0.984 . S
H1017 N1010 0.984 . S
H1018 N1006 0.984 . S
H1019 N1006 0.985 . S
C1020 C1021 1.363 . S
C1020 C1026 1.379 . S
C1020 N1028 1.356 . S
C1021 C1020 1.363 . S
C1021 C1027 1.363 . S
C1022 C1023 1.363 . S
C1022 C1027 1.379 . S
C1022 N1029 1.356 . S
C1023 C1022 1.363 . S
C1023 C1026 1.363 . S
N1024 C1026 1.356 . S
N1024 H1036 0.984 . S
N1024 H1037 0.985 . S
N1025 C1027 1.356 . S
N1025 H1030 0.984 . S
N1025 H1031 0.985 . S
C1026 C1020 1.379 . S
C1026 C1023 1.363 . S
C1026 N1024 1.356 . S
C1027 C1021 1.363 . S
C1027 C1022 1.379 . S
C1027 N1025 1.356 . S
N1028 C1020 1.356 . S
N1028 H1034 0.984 . S
N1028 H1035 0.984 . S
N1029 C1022 1.356 . S
N1029 H1032 0.984 . S
N1029 H1033 0.985 . S
H1030 N1025 0.984 . S
H1031 N1025 0.985 . S
H1032 N1029 0.984 . S
H1033 N1029 0.985 . S
H1034 N1028 0.984 . S
H1035 N1028 0.984 . S
H1036 N1024 0.984 . S
H1037 N1024 0.985 . S
C1038 C1039 1.363 . S
C1038 C1044 1.379 . S
C1038 N1046 1.356 . S
C1039 C1038 1.363 . S
C1039 C1045 1.363 . S
C1040 C1041 1.363 . S
C1040 C1045 1.379 . S
C1040 N1047 1.356 . S
C1041 C1040 1.363 . S
C1041 C1044 1.363 . S
N1042 C1044 1.356 . S
N1042 H1054 0.984 . S
N1042 H1055 0.985 . S
N1043 C1045 1.356 . S
N1043 H1048 0.984 . S
N1043 H1049 0.985 . S
C1044 C1038 1.379 . S
C1044 C1041 1.363 . S
C1044 N1042 1.356 . S
C1045 C1039 1.363 . S
C1045 C1040 1.379 . S
C1045 N1043 1.356 . S
N1046 C1038 1.356 . S
N1046 H1052 0.984 . S
N1046 H1053 0.984 . S
N1047 C1040 1.356 . S
N1047 H1050 0.984 . S
N1047 H1051 0.985 . S
H1048 N1043 0.984 . S
H1049 N1043 0.985 . S
H1050 N1047 0.984 . S
H1051 N1047 0.985 . S
H1052 N1046 0.984 . S
H1053 N1046 0.984 . S
H1054 N1042 0.984 . S
H1055 N1042 0.985 . S
C1056 C1057 1.363 . S
C1056 C1062 1.379 . S
C1056 N1064 1.356 . S
C1057 C1056 1.363 . S
C1057 C1063 1.363 . S
C1058 C1059 1.363 . S
C1058 C1063 1.379 . S
C1058 N1065 1.356 . S
C1059 C1058 1.363 . S
C1059 C1062 1.363 . S
N1060 C1062 1.356 . S
N1060 H1072 0.984 . S
N1060 H1073 0.985 . S
N1061 C1063 1.356 . S
N1061 H1066 0.984 . S
N1061 H1067 0.985 . S
C1062 C1056 1.379 . S
C1062 C1059 1.363 . S
C1062 N1060 1.356 . S
C1063 C1057 1.363 . S
C1063 C1058 1.379 . S
C1063 N1061 1.356 . S
N1064 C1056 1.356 . S
N1064 H1070 0.984 . S
N1064 H1071 0.984 . S
N1065 C1058 1.356 . S
N1065 H1068 0.984 . S
N1065 H1069 0.985 . S
H1066 N1061 0.984 . S
H1067 N1061 0.985 . S
H1068 N1065 0.984 . S
H1069 N1065 0.985 . S
H1070 N1064 0.984 . S
H1071 N1064 0.984 . S
H1072 N1060 0.984 . S
H1073 N1060 0.985 . S
C1074 C1075 1.363 . S
C1074 C1080 1.379 . S
C1074 N1082 1.356 . S
C1075 C1074 1.363 . S
C1075 C1081 1.363 . S
C1076 C1077 1.363 . S
C1076 C1081 1.379 . S
C1076 N1083 1.356 . S
C1077 C1076 1.363 . S
C1077 C1080 1.363 . S
N1078 C1080 1.356 . S
N1078 H1090 0.984 . S
N1078 H1091 0.985 . S
N1079 C1081 1.356 . S
N1079 H1084 0.984 . S
N1079 H1085 0.985 . S
C1080 C1074 1.379 . S
C1080 C1077 1.363 . S
C1080 N1078 1.356 . S
C1081 C1075 1.363 . S
C1081 C1076 1.379 . S
C1081 N1079 1.356 . S
N1082 C1074 1.356 . S
N1082 H1088 0.984 . S
N1082 H1089 0.984 . S
N1083 C1076 1.356 . S
N1083 H1086 0.984 . S
N1083 H1087 0.985 . S
H1084 N1079 0.984 . S
H1085 N1079 0.985 . S
H1086 N1083 0.984 . S
H1087 N1083 0.985 . S
H1088 N1082 0.984 . S
H1089 N1082 0.984 . S
H1090 N1078 0.984 . S
H1091 N1078 0.985 . S
C1092 C1093 1.363 . S
C1092 C1098 1.379 . S
C1092 N1100 1.356 . S
C1093 C1092 1.363 . S
C1093 C1099 1.363 . S
C1094 C1095 1.363 . S
C1094 C1099 1.379 . S
C1094 N1101 1.356 . S
C1095 C1094 1.363 . S
C1095 C1098 1.363 . S
N1096 C1098 1.356 . S
N1096 H1108 0.984 . S
N1096 H1109 0.985 . S
N1097 C1099 1.356 . S
N1097 H1102 0.984 . S
N1097 H1103 0.985 . S
C1098 C1092 1.379 . S
C1098 C1095 1.363 . S
C1098 N1096 1.356 . S
C1099 C1093 1.363 . S
C1099 C1094 1.379 . S
C1099 N1097 1.356 . S
N1100 C1092 1.356 . S
N1100 H1106 0.984 . S
N1100 H1107 0.984 . S
N1101 C1094 1.356 . S
N1101 H1104 0.984 . S
N1101 H1105 0.985 . S
H1102 N1097 0.984 . S
H1103 N1097 0.985 . S
H1104 N1101 0.984 . S
H1105 N1101 0.985 . S
H1106 N1100 0.984 . S
H1107 N1100 0.984 . S
H1108 N1096 0.984 . S
H1109 N1096 0.985 . S
C1110 C1111 1.363 . S
C1110 C1116 1.379 . S
C1110 N1118 1.356 . S
C1111 C1110 1.363 . S
C1111 C1117 1.363 . S
C1112 C1113 1.363 . S
C1112 C1117 1.379 . S
C1112 N1119 1.356 . S
C1113 C1112 1.363 . S
C1113 C1116 1.363 . S
N1114 C1116 1.356 . S
N1114 H1126 0.984 . S
N1114 H1127 0.985 . S
N1115 C1117 1.356 . S
N1115 H1120 0.984 . S
N1115 H1121 0.985 . S
C1116 C1110 1.379 . S
C1116 C1113 1.363 . S
C1116 N1114 1.356 . S
C1117 C1111 1.363 . S
C1117 C1112 1.379 . S
C1117 N1115 1.356 . S
N1118 C1110 1.356 . S
N1118 H1124 0.984 . S
N1118 H1125 0.984 . S
N1119 C1112 1.356 . S
N1119 H1122 0.984 . S
N1119 H1123 0.985 . S
H1120 N1115 0.984 . S
H1121 N1115 0.985 . S
H1122 N1119 0.984 . S
H1123 N1119 0.985 . S
H1124 N1118 0.984 . S
H1125 N1118 0.984 . S
H1126 N1114 0.984 . S
H1127 N1114 0.985 . S
C1128 C1129 1.363 . S
C1128 C1134 1.379 . S
C1128 N1136 1.356 . S
C1129 C1128 1.363 . S
C1129 C1135 1.363 . S
C1130 C1131 1.363 . S
C1130 C1135 1.379 . S
C1130 N1137 1.356 . S
C1131 C1130 1.363 . S
C1131 C1134 1.363 . S
N1132 C1134 1.356 . S
N1132 H1144 0.984 . S
N1132 H1145 0.985 . S
N1133 C1135 1.356 . S
N1133 H1138 0.984 . S
N1133 H1139 0.985 . S
C1134 C1128 1.379 . S
C1134 C1131 1.363 . S
C1134 N1132 1.356 . S
C1135 C1129 1.363 . S
C1135 C1130 1.379 . S
C1135 N1133 1.356 . S
N1136 C1128 1.356 . S
N1136 H1142 0.984 . S
N1136 H1143 0.984 . S
N1137 C1130 1.356 . S
N1137 H1140 0.984 . S
N1137 H1141 0.985 . S
H1138 N1133 0.984 . S
H1139 N1133 0.985 . S
H1140 N1137 0.984 . S
H1141 N1137 0.985 . S
H1142 N1136 0.984 . S
H1143 N1136 0.984 . S
H1144 N1132 0.984 . S
H1145 N1132 0.985 . S
C1146 C1147 1.363 . S
C1146 C1152 1.379 . S
C1146 N1154 1.356 . S
C1147 C1146 1.363 . S
C1147 C1153 1.363 . S
C1148 C1149 1.363 . S
C1148 C1153 1.379 . S
C1148 N1155 1.356 . S
C1149 C1148 1.363 . S
C1149 C1152 1.363 . S
N1150 C1152 1.356 . S
N1150 H1162 0.984 . S
N1150 H1163 0.985 . S
N1151 C1153 1.356 . S
N1151 H1156 0.984 . S
N1151 H1157 0.985 . S
C1152 C1146 1.379 . S
C1152 C1149 1.363 . S
C1152 N1150 1.356 . S
C1153 C1147 1.363 . S
C1153 C1148 1.379 . S
C1153 N1151 1.356 . S
N1154 C1146 1.356 . S
N1154 H1160 0.984 . S
N1154 H1161 0.984 . S
N1155 C1148 1.356 . S
N1155 H1158 0.984 . S
N1155 H1159 0.985 . S
H1156 N1151 0.984 . S
H1157 N1151 0.985 . S
H1158 N1155 0.984 . S
H1159 N1155 0.985 . S
H1160 N1154 0.984 . S
H1161 N1154 0.984 . S
H1162 N1150 0.984 . S
H1163 N1150 0.985 . S
C1164 C1165 1.363 . S
C1164 C1170 1.379 . S
C1164 N1172 1.356 . S
C1165 C1164 1.363 . S
C1165 C1171 1.363 . S
C1166 C1167 1.363 . S
C1166 C1171 1.379 . S
C1166 N1173 1.356 . S
C1167 C1166 1.363 . S
C1167 C1170 1.363 . S
N1168 C1170 1.356 . S
N1168 H1180 0.984 . S
N1168 H1181 0.985 . S
N1169 C1171 1.356 . S
N1169 H1174 0.984 . S
N1169 H1175 0.985 . S
C1170 C1164 1.379 . S
C1170 C1167 1.363 . S
C1170 N1168 1.356 . S
C1171 C1165 1.363 . S
C1171 C1166 1.379 . S
C1171 N1169 1.356 . S
N1172 C1164 1.356 . S
N1172 H1178 0.984 . S
N1172 H1179 0.984 . S
N1173 C1166 1.356 . S
N1173 H1176 0.984 . S
N1173 H1177 0.985 . S
H1174 N1169 0.984 . S
H1175 N1169 0.985 . S
H1176 N1173 0.984 . S
H1177 N1173 0.985 . S
H1178 N1172 0.984 . S
H1179 N1172 0.984 . S
H1180 N1168 0.984 . S
H1181 N1168 0.985 . S
C1182 C1183 1.363 . S
C1182 C1188 1.379 . S
C1182 N1190 1.356 . S
C1183 C1182 1.363 . S
C1183 C1189 1.363 . S
C1184 C1185 1.363 . S
C1184 C1189 1.379 . S
C1184 N1191 1.356 . S
C1185 C1184 1.363 . S
C1185 C1188 1.363 . S
N1186 C1188 1.356 . S
N1186 H1198 0.984 . S
N1186 H1199 0.985 . S
N1187 C1189 1.356 . S
N1187 H1192 0.984 . S
N1187 H1193 0.985 . S
C1188 C1182 1.379 . S
C1188 C1185 1.363 . S
C1188 N1186 1.356 . S
C1189 C1183 1.363 . S
C1189 C1184 1.379 . S
C1189 N1187 1.356 . S
N1190 C1182 1.356 . S
N1190 H1196 0.984 . S
N1190 H1197 0.984 . S
N1191 C1184 1.356 . S
N1191 H1194 0.984 . S
N1191 H1195 0.985 . S
H1192 N1187 0.984 . S
H1193 N1187 0.985 . S
H1194 N1191 0.984 . S
H1195 N1191 0.985 . S
H1196 N1190 0.984 . S
H1197 N1190 0.984 . S
H1198 N1186 0.984 . S
H1199 N1186 0.985 . S
C1200 C1201 1.363 1_545 S
C1200 C1206 1.379 . S
C1200 N1208 1.356 1_545 S
C1201 C1200 1.363 1_565 S
C1201 C1207 1.363 1_565 S
C1202 C1203 1.363 . S
C1202 C1207 1.379 . S
C1202 N1209 1.356 . S
C1203 C1202 1.363 . S
C1203 C1206 1.363 . S
N1204 C1206 1.356 . S
N1204 H1216 0.984 . S
N1204 H1217 0.985 . S
N1205 C1207 1.356 1_565 S
N1205 H1210 0.984 . S
N1205 H1211 0.985 . S
C1206 C1200 1.379 . S
C1206 C1203 1.363 . S
C1206 N1204 1.356 . S
C1207 C1201 1.363 1_545 S
C1207 C1202 1.379 . S
C1207 N1205 1.356 1_545 S
N1208 C1200 1.356 1_565 S
N1208 H1214 0.984 . S
N1208 H1215 0.984 . S
N1209 C1202 1.356 . S
N1209 H1212 0.984 . S
N1209 H1213 0.985 . S
H1210 N1205 0.984 . S
H1211 N1205 0.985 . S
H1212 N1209 0.984 . S
H1213 N1209 0.985 . S
H1214 N1208 0.984 . S
H1215 N1208 0.984 . S
H1216 N1204 0.984 . S
H1217 N1204 0.985 . S
C1218 C1219 1.363 . S
C1218 C1224 1.379 . S
C1218 N1226 1.356 . S
C1219 C1218 1.363 . S
C1219 C1225 1.363 . S
C1220 C1221 1.363 1_565 S
C1220 C1225 1.379 . S
C1220 N1227 1.356 1_565 S
C1221 C1220 1.363 1_545 S
C1221 C1224 1.363 1_545 S
N1222 C1224 1.356 1_545 S
N1222 H1234 0.984 . S
N1222 H1235 0.985 . S
N1223 C1225 1.356 . S
N1223 H1228 0.984 . S
N1223 H1229 0.985 . S
C1224 C1218 1.379 . S
C1224 C1221 1.363 1_565 S
C1224 N1222 1.356 1_565 S
C1225 C1219 1.363 . S
C1225 C1220 1.379 . S
C1225 N1223 1.356 . S
N1226 C1218 1.356 . S
N1226 H1232 0.984 . S
N1226 H1233 0.984 . S
N1227 C1220 1.356 1_545 S
N1227 H1230 0.984 . S
N1227 H1231 0.985 . S
H1228 N1223 0.984 . S
H1229 N1223 0.985 . S
H1230 N1227 0.984 . S
H1231 N1227 0.985 . S
H1232 N1226 0.984 . S
H1233 N1226 0.984 . S
H1234 N1222 0.984 . S
H1235 N1222 0.985 . S
C1236 C1237 1.363 1_565 S
C1236 C1242 1.379 . S
C1236 N1244 1.356 1_565 S
C1237 C1236 1.363 1_545 S
C1237 C1243 1.363 1_545 S
C1238 C1239 1.363 . S
C1238 C1243 1.379 . S
C1238 N1245 1.356 . S
C1239 C1238 1.363 . S
C1239 C1242 1.363 . S
N1240 C1242 1.356 . S
N1240 H1252 0.984 . S
N1240 H1253 0.985 . S
N1241 C1243 1.356 1_545 S
N1241 H1246 0.984 . S
N1241 H1247 0.985 . S
C1242 C1236 1.379 . S
C1242 C1239 1.363 . S
C1242 N1240 1.356 . S
C1243 C1237 1.363 1_565 S
C1243 C1238 1.379 . S
C1243 N1241 1.356 1_565 S
N1244 C1236 1.356 1_545 S
N1244 H1250 0.984 . S
N1244 H1251 0.984 . S
N1245 C1238 1.356 . S
N1245 H1248 0.984 . S
N1245 H1249 0.985 . S
H1246 N1241 0.984 . S
H1247 N1241 0.985 . S
H1248 N1245 0.984 . S
H1249 N1245 0.985 . S
H1250 N1244 0.984 . S
H1251 N1244 0.984 . S
H1252 N1240 0.984 . S
H1253 N1240 0.985 . S
C1254 C1255 1.363 1_545 S
C1254 C1260 1.379 . S
C1254 N1262 1.356 1_545 S
C1255 C1254 1.363 1_565 S
C1255 C1261 1.363 1_565 S
C1256 C1257 1.363 . S
C1256 C1261 1.379 . S
C1256 N1263 1.356 . S
C1257 C1256 1.363 . S
C1257 C1260 1.363 . S
N1258 C1260 1.356 . S
N1258 H1270 0.984 . S
N1258 H1271 0.985 . S
N1259 C1261 1.356 1_565 S
N1259 H1264 0.984 . S
N1259 H1265 0.985 . S
C1260 C1254 1.379 . S
C1260 C1257 1.363 . S
C1260 N1258 1.356 . S
C1261 C1255 1.363 1_545 S
C1261 C1256 1.379 . S
C1261 N1259 1.356 1_545 S
N1262 C1254 1.356 1_565 S
N1262 H1268 0.984 . S
N1262 H1269 0.984 . S
N1263 C1256 1.356 . S
N1263 H1266 0.984 . S
N1263 H1267 0.985 . S
H1264 N1259 0.984 . S
H1265 N1259 0.985 . S
H1266 N1263 0.984 . S
H1267 N1263 0.985 . S
H1268 N1262 0.984 . S
H1269 N1262 0.984 . S
H1270 N1258 0.984 . S
H1271 N1258 0.985 . S
C1272 C1273 1.363 . S
C1272 C1278 1.379 . S
C1272 N1280 1.356 . S
C1273 C1272 1.363 . S
C1273 C1279 1.363 . S
C1274 C1275 1.363 1_565 S
C1274 C1279 1.379 . S
C1274 N1281 1.356 1_565 S
C1275 C1274 1.363 1_545 S
C1275 C1278 1.363 1_545 S
N1276 C1278 1.356 1_545 S
N1276 H1288 0.984 . S
N1276 H1289 0.985 . S
N1277 C1279 1.356 . S
N1277 H1282 0.984 . S
N1277 H1283 0.985 . S
C1278 C1272 1.379 . S
C1278 C1275 1.363 1_565 S
C1278 N1276 1.356 1_565 S
C1279 C1273 1.363 . S
C1279 C1274 1.379 . S
C1279 N1277 1.356 . S
N1280 C1272 1.356 . S
N1280 H1286 0.984 . S
N1280 H1287 0.984 . S
N1281 C1274 1.356 1_545 S
N1281 H1284 0.984 . S
N1281 H1285 0.985 . S
H1282 N1277 0.984 . S
H1283 N1277 0.985 . S
H1284 N1281 0.984 . S
H1285 N1281 0.985 . S
H1286 N1280 0.984 . S
H1287 N1280 0.984 . S
H1288 N1276 0.984 . S
H1289 N1276 0.985 . S
C1290 C1291 1.363 . S
C1290 C1296 1.379 . S
C1290 N1298 1.356 . S
C1291 C1290 1.363 . S
C1291 C1297 1.363 . S
C1292 C1293 1.363 1_545 S
C1292 C1297 1.379 . S
C1292 N1299 1.356 1_545 S
C1293 C1292 1.363 1_565 S
C1293 C1296 1.363 1_565 S
N1294 C1296 1.356 1_565 S
N1294 H1306 0.984 . S
N1294 H1307 0.985 . S
N1295 C1297 1.356 . S
N1295 H1300 0.984 . S
N1295 H1301 0.985 . S
C1296 C1290 1.379 . S
C1296 C1293 1.363 1_545 S
C1296 N1294 1.356 1_545 S
C1297 C1291 1.363 . S
C1297 C1292 1.379 . S
C1297 N1295 1.356 . S
N1298 C1290 1.356 . S
N1298 H1304 0.984 . S
N1298 H1305 0.984 . S
N1299 C1292 1.356 1_565 S
N1299 H1302 0.984 . S
N1299 H1303 0.985 . S
H1300 N1295 0.984 . S
H1301 N1295 0.985 . S
H1302 N1299 0.984 . S
H1303 N1299 0.985 . S
H1304 N1298 0.984 . S
H1305 N1298 0.984 . S
H1306 N1294 0.984 . S
H1307 N1294 0.985 . S
C1308 C1309 1.363 1_545 S
C1308 C1314 1.379 . S
C1308 N1316 1.356 1_545 S
C1309 C1308 1.363 1_565 S
C1309 C1315 1.363 1_565 S
C1310 C1311 1.363 . S
C1310 C1315 1.379 . S
C1310 N1317 1.356 . S
C1311 C1310 1.363 . S
C1311 C1314 1.363 . S
N1312 C1314 1.356 . S
N1312 H1324 0.984 . S
N1312 H1325 0.985 . S
N1313 C1315 1.356 1_565 S
N1313 H1318 0.984 . S
N1313 H1319 0.985 . S
C1314 C1308 1.379 . S
C1314 C1311 1.363 . S
C1314 N1312 1.356 . S
C1315 C1309 1.363 1_545 S
C1315 C1310 1.379 . S
C1315 N1313 1.356 1_545 S
N1316 C1308 1.356 1_565 S
N1316 H1322 0.984 . S
N1316 H1323 0.984 . S
N1317 C1310 1.356 . S
N1317 H1320 0.984 . S
N1317 H1321 0.985 . S
H1318 N1313 0.984 . S
H1319 N1313 0.985 . S
H1320 N1317 0.984 . S
H1321 N1317 0.985 . S
H1322 N1316 0.984 . S
H1323 N1316 0.984 . S
H1324 N1312 0.984 . S
H1325 N1312 0.985 . S
C1326 C1327 1.363 . S
C1326 C1332 1.379 . S
C1326 N1334 1.356 . S
C1327 C1326 1.363 . S
C1327 C1333 1.363 . S
C1328 C1329 1.363 1_565 S
C1328 C1333 1.379 . S
C1328 N1335 1.356 1_565 S
C1329 C1328 1.363 1_545 S
C1329 C1332 1.363 1_545 S
N1330 C1332 1.356 1_545 S
N1330 H1342 0.984 . S
N1330 H1343 0.985 . S
N1331 C1333 1.356 . S
N1331 H1336 0.984 . S
N1331 H1337 0.985 . S
C1332 C1326 1.379 . S
C1332 C1329 1.363 1_565 S
C1332 N1330 1.356 1_565 S
C1333 C1327 1.363 . S
C1333 C1328 1.379 . S
C1333 N1331 1.356 . S
N1334 C1326 1.356 . S
N1334 H1340 0.984 . S
N1334 H1341 0.984 . S
N1335 C1328 1.356 1_545 S
N1335 H1338 0.984 . S
N1335 H1339 0.985 . S
H1336 N1331 0.984 . S
H1337 N1331 0.985 . S
H1338 N1335 0.984 . S
H1339 N1335 0.985 . S
H1340 N1334 0.984 . S
H1341 N1334 0.984 . S
H1342 N1330 0.984 . S
H1343 N1330 0.985 . S
C481 N6 1.502 . S
C483 N276 1.502 . S
C499 N36 1.502 . S
C501 N246 1.502 . S
C517 N336 1.502 . S
C519 N66 1.502 . S
C535 N96 1.502 . S
C537 N306 1.502 . S
C553 N404 1.502 . S
C555 N134 1.502 . S
C571 N374 1.502 . S
C573 N164 1.502 . S
C589 N464 1.502 . S
C591 N194 1.502 . S
C607 N224 1.502 . S
C609 N434 1.502 . S
C625 C61 1.556 . S
C627 C1 1.556 . S
C643 C91 1.556 . S
C645 C31 1.556 . S
C661 C190 1.556 . S
C663 C130 1.556 . S
C679 C160 1.556 . S
C681 C220 1.556 . S
C697 C301 1.556 . S
C699 C241 1.556 . S
C715 C331 1.556 . S
C717 C271 1.556 . S
C733 C370 1.556 . S
C735 C430 1.556 . S
C751 C400 1.556 . S
C753 C460 1.556 . S
C769 C151 1.519 . S
C771 C10 1.519 . S
C787 C121 1.519 . S
C789 C40 1.519 . S
C805 C70 1.519 . S
C807 C211 1.519 . S
C823 C181 1.519 . S
C825 C100 1.519 . S
C841 C250 1.519 . S
C843 C391 1.519 . S
C859 C361 1.519 . S
C861 C280 1.519 . S
C877 C310 1.519 . S
C879 C451 1.519 . S
C895 C421 1.519 . S
C897 C340 1.519 . S
C913 N44 1.468 . S
C915 N14 1.468 . S
C931 N104 1.468 . S
C933 N74 1.468 . S
C949 N156 1.468 . S
C951 N126 1.468 . S
C967 N186 1.468 . S
C969 N216 1.468 . S
C985 N284 1.468 . S
C987 N254 1.468 . S
C1003 N344 1.468 . S
C1005 N314 1.468 . S
C1021 N366 1.468 . S
C1023 N396 1.468 . S
C1039 N426 1.468 . S
C1041 N456 1.468 . S
C1057 C27 1.434 . S
C1059 C16 1.434 . S
C1075 C57 1.434 . S
C1077 C46 1.434 . S
C1093 C87 1.434 . S
C1095 C76 1.434 . S
C1111 C106 1.434 . S
C1113 C117 1.434 . S
C1129 C136 1.434 . S
C1131 C147 1.434 . S
C1147 C177 1.434 . S
C1149 C166 1.434 . S
C1165 C196 1.434 . S
C1167 C207 1.434 . S
C1183 C226 1.434 . S
C1185 C237 1.434 . S
C1201 C256 1.434 . S
C1203 C267 1.434 . S
C1219 C297 1.434 . S
C1221 C286 1.434 . S
C1237 C316 1.434 . S
C1239 C327 1.434 . S
C1255 C346 1.434 . S
C1257 C357 1.434 . S
C1273 C376 1.434 . S
C1275 C387 1.434 . S
C1291 C406 1.434 . S
C1293 C417 1.434 . S
C1309 C447 1.434 . S
C1311 C436 1.434 . S
C1327 C466 1.434 . S
C1329 C477 1.434 . S
