# Generated by pormake.
# Topology umg, (4)-cn, num edge types: 1
# Building blocks:
#     Node 0, Type 0, BuildingBlock: CEKHIL_clean_sbu_0, # of connection points: 4
#     Node 1, Type 0, BuildingBlock: CEKHIL_clean_sbu_0, # of connection points: 4
#     Node 2, Type 0, BuildingBlock: CEKHIL_clean_sbu_0, # of connection points: 4
#     Node 3, Type 0, BuildingBlock: CEKHIL_clean_sbu_0, # of connection points: 4
#     Node 4, Type 0, BuildingBlock: CEKHIL_clean_sbu_0, # of connection points: 4
#     Node 5, Type 0, BuildingBlock: CEKHIL_clean_sbu_0, # of connection points: 4
#     Node 6, Type 0, BuildingBlock: CEKHIL_clean_sbu_0, # of connection points: 4
#     Node 7, Type 0, BuildingBlock: CEKHIL_clean_sbu_0, # of connection points: 4
#     Node 8, Type 0, BuildingBlock: CEKHIL_clean_sbu_0, # of connection points: 4
#     Node 9, Type 0, BuildingBlock: CEKHIL_clean_sbu_0, # of connection points: 4
#     Node 10, Type 0, BuildingBlock: CEKHIL_clean_sbu_0, # of connection points: 4
#     Node 11, Type 0, BuildingBlock: CEKHIL_clean_sbu_0, # of connection points: 4
#     Edge 12, Type (0, 0), BuildingBlock: KIFKEQ_clean_linker_1, # of connection points: 2
#     Edge 13, Type (0, 0), BuildingBlock: KIFKEQ_clean_linker_1, # of connection points: 2
#     Edge 14, Type (0, 0), BuildingBlock: KIFKEQ_clean_linker_1, # of connection points: 2
#     Edge 15, Type (0, 0), BuildingBlock: KIFKEQ_clean_linker_1, # of connection points: 2
#     Edge 16, Type (0, 0), BuildingBlock: KIFKEQ_clean_linker_1, # of connection points: 2
#     Edge 17, Type (0, 0), BuildingBlock: KIFKEQ_clean_linker_1, # of connection points: 2
#     Edge 18, Type (0, 0), BuildingBlock: KIFKEQ_clean_linker_1, # of connection points: 2
#     Edge 19, Type (0, 0), BuildingBlock: KIFKEQ_clean_linker_1, # of connection points: 2
#     Edge 20, Type (0, 0), BuildingBlock: KIFKEQ_clean_linker_1, # of connection points: 2
#     Edge 21, Type (0, 0), BuildingBlock: KIFKEQ_clean_linker_1, # of connection points: 2
#     Edge 22, Type (0, 0), BuildingBlock: KIFKEQ_clean_linker_1, # of connection points: 2
#     Edge 23, Type (0, 0), BuildingBlock: KIFKEQ_clean_linker_1, # of connection points: 2
#     Edge 24, Type (0, 0), BuildingBlock: KIFKEQ_clean_linker_1, # of connection points: 2
#     Edge 25, Type (0, 0), BuildingBlock: KIFKEQ_clean_linker_1, # of connection points: 2
#     Edge 26, Type (0, 0), BuildingBlock: KIFKEQ_clean_linker_1, # of connection points: 2
#     Edge 27, Type (0, 0), BuildingBlock: KIFKEQ_clean_linker_1, # of connection points: 2
#     Edge 28, Type (0, 0), BuildingBlock: KIFKEQ_clean_linker_1, # of connection points: 2
#     Edge 29, Type (0, 0), BuildingBlock: KIFKEQ_clean_linker_1, # of connection points: 2
#     Edge 30, Type (0, 0), BuildingBlock: KIFKEQ_clean_linker_1, # of connection points: 2
#     Edge 31, Type (0, 0), BuildingBlock: KIFKEQ_clean_linker_1, # of connection points: 2
#     Edge 32, Type (0, 0), BuildingBlock: KIFKEQ_clean_linker_1, # of connection points: 2
#     Edge 33, Type (0, 0), BuildingBlock: KIFKEQ_clean_linker_1, # of connection points: 2
#     Edge 34, Type (0, 0), BuildingBlock: KIFKEQ_clean_linker_1, # of connection points: 2
#     Edge 35, Type (0, 0), BuildingBlock: KIFKEQ_clean_linker_1, # of connection points: 2
# Relax obj value: 0.086
# Max RMSD: 0.320
# Mean RMSD: 0.204
data_MOF--net-umg--node1-CEKHIL_clean_sbu_0--edge1-KIFKEQ_clean_linker_1
_symmetry_space_group_name_H-M    P1
_symmetry_Int_Tables_number       1
_symmetry_cell_setting            triclinic
loop_
_symmetry_equiv_pos_as_xyz
'x, y, z'
_cell_length_a     28.717883
_cell_length_b     28.732698
_cell_length_c     84.033502
_cell_angle_alpha  92.20864
_cell_angle_beta   92.191739
_cell_angle_gamma 120.53516
loop_
_atom_site_label
_atom_site_type_symbol
_atom_site_fract_x
_atom_site_fract_y
_atom_site_fract_z
_atom_type_partial_charge
Co0 Co 0.28587 0.55305 0.07572 0.0
O1 O 0.35793 0.56481 0.07711 0.0
O2 O 0.29013 0.49833 0.06218 0.0
C3 C 0.28047 0.56162 0.10225 0.0
O4 O 0.205 0.52976 0.07231 0.0
Co5 Co 0.27433 0.65047 0.08753 0.0
O6 O 0.19618 0.59625 0.08438 0.0
C7 C 0.31524 0.65097 0.05604 0.0
C8 C 0.3411 0.52286 0.06729 0.0
C9 C 0.17587 0.5499 0.07691 0.0
O10 O 0.30549 0.60248 0.05759 0.0
O11 O 0.30894 0.67885 0.06708 0.0
O12 O 0.27003 0.51572 0.09544 0.0
O13 O 0.29915 0.60169 0.09315 0.0
Co14 Co 0.76346 0.33652 0.41455 0.0
O15 O 0.82481 0.40861 0.41519 0.0
O16 O 0.82284 0.33731 0.40363 0.0
C17 C 0.74777 0.3382 0.44055 0.0
O18 O 0.70508 0.25537 0.41236 0.0
Co19 Co 0.65375 0.32708 0.4206 0.0
O20 O 0.62911 0.24918 0.42119 0.0
C21 C 0.69552 0.35493 0.38906 0.0
C22 C 0.84983 0.38939 0.40732 0.0
C23 C 0.6553 0.22727 0.41616 0.0
O24 O 0.73487 0.34874 0.3939 0.0
O25 O 0.65935 0.35131 0.39821 0.0
O26 O 0.78387 0.32717 0.43591 0.0
O27 O 0.72702 0.35421 0.4296 0.0
Co28 Co 0.38905 0.74626 0.74793 0.0
O29 O 0.37555 0.8053 0.74789 0.0
O30 O 0.44783 0.80871 0.73851 0.0
C31 C 0.36906 0.72676 0.77335 0.0
O32 O 0.41521 0.69126 0.74657 0.0
Co33 Co 0.29098 0.63203 0.75146 0.0
O34 O 0.34783 0.61337 0.755 0.0
C35 C 0.30713 0.67671 0.72008 0.0
C36 C 0.4207 0.83305 0.7412 0.0
C37 C 0.39593 0.64206 0.75068 0.0
O38 O 0.35028 0.71871 0.72627 0.0
O39 O 0.27553 0.63712 0.72818 0.0
O40 O 0.41659 0.76538 0.77008 0.0
O41 O 0.33324 0.70515 0.76136 0.0
Co42 Co 0.65813 0.35655 0.07669 0.0
O43 O 0.58657 0.3458 0.07722 0.0
O44 O 0.65433 0.41523 0.06675 0.0
C45 C 0.665 0.33956 0.10234 0.0
O46 O 0.73847 0.37949 0.0747 0.0
Co47 Co 0.66958 0.25671 0.08112 0.0
O48 O 0.74761 0.31168 0.08386 0.0
C49 C 0.63196 0.26994 0.04972 0.0
C50 C 0.60344 0.38991 0.06998 0.0
C51 C 0.76797 0.35922 0.079 0.0
O52 O 0.63741 0.31459 0.05544 0.0
O53 O 0.64117 0.2388 0.05807 0.0
O54 O 0.67578 0.38722 0.09853 0.0
O55 O 0.64478 0.30217 0.09075 0.0
Co56 Co 0.3392 0.70637 0.41398 0.0
O57 O 0.27857 0.63417 0.41432 0.0
O58 O 0.27472 0.70033 0.40305 0.0
C59 C 0.36565 0.71502 0.43994 0.0
O60 O 0.39606 0.78699 0.41218 0.0
Co61 Co 0.45241 0.72034 0.42019 0.0
O62 O 0.47546 0.79806 0.42199 0.0
C63 C 0.39585 0.67616 0.38879 0.0
C64 C 0.24971 0.64978 0.40659 0.0
C65 C 0.44691 0.81738 0.41678 0.0
O66 O 0.35919 0.68568 0.39337 0.0
O67 O 0.43598 0.68399 0.39804 0.0
O68 O 0.3273 0.72379 0.43535 0.0
O69 O 0.38258 0.69541 0.42894 0.0
Co70 Co 0.58671 0.31954 0.74431 0.0
O71 O 0.59719 0.2592 0.74635 0.0
O72 O 0.53004 0.25534 0.73159 0.0
C73 C 0.59798 0.34364 0.77057 0.0
O74 O 0.56465 0.37657 0.74045 0.0
Co75 Co 0.6869 0.43265 0.75454 0.0
O76 O 0.63346 0.45616 0.75156 0.0
C77 C 0.68397 0.37876 0.72389 0.0
C78 C 0.55427 0.23045 0.73695 0.0
C79 C 0.58612 0.42767 0.74466 0.0
O80 O 0.63444 0.34237 0.72573 0.0
O81 O 0.71378 0.41617 0.73465 0.0
O82 O 0.55125 0.30563 0.7643 0.0
O83 O 0.63723 0.3612 0.76118 0.0
Co84 Co 0.46548 0.7248 0.58412 0.0
O85 O 0.45312 0.65258 0.583 0.0
O86 O 0.52162 0.72117 0.59712 0.0
C87 C 0.45356 0.72842 0.55769 0.0
O88 O 0.48923 0.80577 0.58714 0.0
Co89 Co 0.36594 0.73473 0.57357 0.0
O90 O 0.42022 0.81305 0.57624 0.0
C91 C 0.3699 0.69531 0.60492 0.0
C92 C 0.49622 0.66987 0.59235 0.0
C93 C 0.46784 0.8342 0.58296 0.0
O94 O 0.41892 0.70738 0.60289 0.0
O95 O 0.33964 0.69876 0.59402 0.0
O96 O 0.50002 0.73842 0.56392 0.0
O97 O 0.41478 0.71076 0.56726 0.0
Co98 Co 0.69907 0.42865 0.91498 0.0
O99 O 0.76011 0.41886 0.9137 0.0
O100 O 0.76189 0.48532 0.92822 0.0
C101 C 0.67797 0.41806 0.88854 0.0
O102 O 0.64063 0.44953 0.91803 0.0
Co103 Co 0.58743 0.32791 0.90373 0.0
O104 O 0.5648 0.38247 0.90469 0.0
C105 C 0.63734 0.33109 0.93514 0.0
C106 C 0.78769 0.46154 0.92327 0.0
C107 C 0.59101 0.42895 0.91222 0.0
O108 O 0.67432 0.38045 0.9334 0.0
O109 O 0.60082 0.30133 0.92415 0.0
O110 O 0.71517 0.46474 0.89508 0.0
O111 O 0.65964 0.37853 0.89784 0.0
Co112 Co 0.30704 0.67148 0.24561 0.0
O113 O 0.37771 0.73291 0.24357 0.0
O114 O 0.3135 0.7367 0.25612 0.0
C115 C 0.29209 0.63999 0.21994 0.0
O116 O 0.22803 0.61396 0.24917 0.0
Co117 Co 0.29583 0.55931 0.24048 0.0
O118 O 0.21756 0.53361 0.24067 0.0
C119 C 0.34575 0.62145 0.2708 0.0
C120 C 0.36294 0.76199 0.25158 0.0
C121 C 0.19818 0.56225 0.24575 0.0
O122 O 0.33392 0.65637 0.26605 0.0
O123 O 0.33692 0.58011 0.26198 0.0
O124 O 0.28307 0.67824 0.22446 0.0
O125 O 0.31608 0.62665 0.23066 0.0
Co126 Co 0.66121 0.35181 0.58271 0.0
O127 O 0.67199 0.42328 0.58208 0.0
O128 O 0.60273 0.35588 0.59273 0.0
C129 C 0.67759 0.34443 0.55703 0.0
O130 O 0.63836 0.27158 0.5848 0.0
Co131 Co 0.76101 0.3405 0.57828 0.0
O132 O 0.70614 0.26251 0.57556 0.0
C133 C 0.74805 0.37827 0.60966 0.0
C134 C 0.62805 0.40666 0.5894 0.0
C135 C 0.65864 0.24212 0.58046 0.0
O136 O 0.70348 0.37295 0.6039 0.0
O137 O 0.77909 0.36878 0.60135 0.0
O138 O 0.63003 0.33368 0.56095 0.0
O139 O 0.71535 0.36496 0.56853 0.0
Co140 Co 0.27267 0.62769 0.91415 0.0
O141 O 0.21291 0.64014 0.9138 0.0
O142 O 0.21071 0.56961 0.92402 0.0
C143 C 0.29114 0.64503 0.88848 0.0
O144 O 0.32896 0.60304 0.91599 0.0
Co145 Co 0.38574 0.72702 0.90963 0.0
O146 O 0.40777 0.67222 0.90862 0.0
C147 C 0.34254 0.71307 0.94121 0.0
C148 C 0.18571 0.59584 0.9209 0.0
C149 C 0.3795 0.62413 0.91297 0.0
O150 O 0.30041 0.66909 0.9355 0.0
O151 O 0.38151 0.74392 0.93281 0.0
O152 O 0.25331 0.59769 0.89217 0.0
O153 O 0.31245 0.68194 0.90017 0.0
Co154 Co 0.6773 0.24872 0.24427 0.0
O155 O 0.60472 0.18816 0.24393 0.0
O156 O 0.67611 0.18881 0.25491 0.0
C157 C 0.67425 0.26463 0.21833 0.0
O158 O 0.75883 0.30578 0.24612 0.0
Co159 Co 0.68974 0.35983 0.23838 0.0
O160 O 0.76658 0.3814 0.23651 0.0
C161 C 0.66243 0.31828 0.27003 0.0
C162 C 0.62388 0.16249 0.25148 0.0
C163 C 0.78768 0.35461 0.24167 0.0
O164 O 0.66716 0.27806 0.26512 0.0
O165 O 0.66647 0.3546 0.26088 0.0
O166 O 0.68472 0.2279 0.2227 0.0
O167 O 0.65979 0.28604 0.22952 0.0
H168 H 0.26329 0.69914 0.96044 0.0
H169 H 0.4327 0.74865 0.96121 0.0
H170 H 0.26632 0.69725 0.9895 0.0
H171 H 0.4353 0.74521 0.99035 0.0
H172 H 0.3636 0.62377 0.03303 0.0
H173 H 0.37962 0.65446 0.00598 0.0
H174 H 0.31642 0.75939 0.01629 0.0
H175 H 0.30127 0.72968 0.04347 0.0
C176 C 0.3015 0.71105 0.9669 0.0
C177 C 0.3478 0.72424 0.95865 0.0
C178 C 0.30325 0.71 0.9835 0.0
C179 C 0.35098 0.72085 0.99209 0.0
C180 C 0.39806 0.7367 0.98394 0.0
C181 C 0.39667 0.73908 0.96733 0.0
C182 C 0.35402 0.6541 0.02963 0.0
C183 C 0.3309 0.67408 0.04035 0.0
C184 C 0.36357 0.67193 0.0142 0.0
C185 C 0.34929 0.7093 0.00913 0.0
C186 C 0.32785 0.73063 0.01997 0.0
C187 C 0.3193 0.71364 0.03551 0.0
H188 H 0.76786 0.37054 0.36683 0.0
H189 H 0.61037 0.35287 0.37192 0.0
H190 H 0.75315 0.36457 0.33799 0.0
H191 H 0.59653 0.34787 0.3427 0.0
H192 H 0.65564 0.39942 0.28659 0.0
H193 H 0.66024 0.41501 0.31573 0.0
H194 H 0.66352 0.26838 0.32173 0.0
H195 H 0.65802 0.25186 0.29298 0.0
C196 C 0.73047 0.36638 0.36186 0.0
C197 C 0.68991 0.36133 0.37176 0.0
C198 C 0.72223 0.36306 0.34532 0.0
C199 C 0.67363 0.35534 0.33824 0.0
C200 C 0.63438 0.35395 0.34798 0.0
C201 C 0.64239 0.35679 0.36466 0.0
C202 C 0.65626 0.36996 0.29411 0.0
C203 C 0.65708 0.3247 0.28738 0.0
C204 C 0.6588 0.37893 0.31075 0.0
C205 C 0.66268 0.34305 0.32082 0.0
C206 C 0.66086 0.2967 0.31413 0.0
C207 C 0.65772 0.28739 0.29763 0.0
H208 H 0.25239 0.58512 0.69975 0.0
H209 H 0.34345 0.75999 0.70067 0.0
H210 H 0.25708 0.58063 0.6706 0.0
H211 H 0.34793 0.75498 0.67179 0.0
H212 H 0.42388 0.68959 0.63159 0.0
H213 H 0.3948 0.67755 0.65876 0.0
H214 H 0.241 0.65663 0.64226 0.0
H215 H 0.26962 0.66887 0.61485 0.0
C216 C 0.27175 0.62243 0.69372 0.0
C217 C 0.29798 0.6729 0.70251 0.0
C218 C 0.27454 0.61978 0.67711 0.0
C219 C 0.30301 0.66751 0.66916 0.0
C220 C 0.32573 0.71777 0.67776 0.0
C221 C 0.32317 0.72049 0.69426 0.0
C222 C 0.38346 0.68154 0.6336 0.0
C223 C 0.34933 0.68079 0.621 0.0
C224 C 0.36691 0.67449 0.64916 0.0
C225 C 0.3158 0.66604 0.65242 0.0
C226 C 0.28047 0.6627 0.63988 0.0
C227 C 0.29704 0.66992 0.62425 0.0
H228 H 0.67095 0.22335 0.02933 0.0
H229 H 0.56878 0.29329 0.03086 0.0
H230 H 0.66983 0.22652 0.00013 0.0
H231 H 0.5668 0.29506 0.00179 0.0
H232 H 0.71326 0.376 0.96036 0.0
H233 H 0.70488 0.34514 0.98733 0.0
H234 H 0.54799 0.20673 0.97306 0.0
H235 H 0.55608 0.23663 0.94586 0.0
C236 C 0.64658 0.23731 0.02339 0.0
C237 C 0.62007 0.25822 0.03232 0.0
C238 C 0.6462 0.23933 0.00676 0.0
C239 C 0.61817 0.26095 -0.00109 0.0
C240 C 0.58828 0.27786 0.00768 0.0
C241 C 0.58949 0.27685 0.02426 0.0
C242 C 0.67731 0.33844 0.96282 0.0
C243 C 0.63513 0.30905 0.95094 0.0
C244 C 0.67282 0.32074 0.97822 0.0
C245 C 0.62602 0.27356 0.98207 0.0
C246 C 0.58461 0.243 0.9702 0.0
C247 C 0.58931 0.26029 0.9547 0.0
H248 H 0.3519 0.54646 0.28888 0.0
H249 H 0.38539 0.71146 0.29107 0.0
H250 H 0.37057 0.55414 0.31795 0.0
H251 H 0.40333 0.71826 0.31985 0.0
H252 H 0.31079 0.64419 0.36701 0.0
H253 H 0.30826 0.62785 0.33832 0.0
H254 H 0.46912 0.6518 0.34271 0.0
H255 H 0.4726 0.66897 0.37177 0.0
C256 C 0.36451 0.58464 0.29544 0.0
C257 C 0.36636 0.62807 0.28767 0.0
C258 C 0.37525 0.58894 0.31202 0.0
C259 C 0.38828 0.63675 0.32095 0.0
C260 C 0.39351 0.68112 0.31311 0.0
C261 C 0.38291 0.67696 0.29664 0.0
C262 C 0.34558 0.64539 0.36202 0.0
C263 C 0.39226 0.65864 0.37172 0.0
C264 C 0.34385 0.63576 0.34559 0.0
C265 C 0.38845 0.63867 0.33847 0.0
C266 C 0.4342 0.64909 0.34807 0.0
C267 C 0.43609 0.65895 0.36464 0.0
H268 H 0.63825 0.30171 0.69894 0.0
H269 H 0.77981 0.45761 0.71316 0.0
H270 H 0.66981 0.30791 0.67209 0.0
H271 H 0.81037 0.46353 0.68612 0.0
H272 H 0.79168 0.33726 0.63035 0.0
H273 H 0.78744 0.33898 0.65953 0.0
H274 H 0.7244 0.44659 0.6572 0.0
H275 H 0.72718 0.44399 0.62816 0.0
C276 C 0.67643 0.33687 0.69646 0.0
C277 C 0.70622 0.37939 0.70821 0.0
C278 C 0.69453 0.34012 0.68113 0.0
C279 C 0.74253 0.38596 0.67723 0.0
C280 C 0.77347 0.42762 0.689 0.0
C281 C 0.75577 0.42416 0.70442 0.0
C282 C 0.77875 0.36274 0.63614 0.0
C283 C 0.75968 0.39045 0.62705 0.0
C284 C 0.77607 0.36343 0.65276 0.0
C285 C 0.75565 0.39293 0.66042 0.0
C286 C 0.74064 0.42393 0.65147 0.0
C287 C 0.74227 0.42242 0.63491 0.0
H288 H 0.23496 0.65699 0.19688 0.0
H289 H 0.32415 0.57516 0.20502 0.0
H290 H 0.22558 0.63255 0.16843 0.0
H291 H 0.31529 0.55113 0.17632 0.0
H292 H 0.25383 0.48617 0.12426 0.0
H293 H 0.24981 0.49838 0.15302 0.0
H294 H 0.29151 0.66391 0.14774 0.0
H295 H 0.29508 0.6516 0.11904 0.0
C296 C 0.25223 0.63336 0.19259 0.0
C297 C 0.28096 0.61859 0.20313 0.0
C298 C 0.24702 0.61959 0.17629 0.0
C299 C 0.27044 0.59073 0.17013 0.0
C300 C 0.29671 0.57333 0.18075 0.0
C301 C 0.30193 0.58717 0.19715 0.0
C302 C 0.26171 0.52503 0.12925 0.0
C303 C 0.27488 0.56804 0.11944 0.0
C304 C 0.2597 0.53204 0.14571 0.0
C305 C 0.27034 0.58204 0.15262 0.0
C306 C 0.28245 0.62466 0.14273 0.0
C307 C 0.28478 0.61775 0.12631 0.0
H308 H 0.79077 0.30962 0.46495 0.0
H309 H 0.67695 0.36231 0.45445 0.0
H310 H 0.77376 0.30883 0.49309 0.0
H311 H 0.66038 0.36224 0.48281 0.0
H312 H 0.60336 0.30189 0.53174 0.0
H313 H 0.61932 0.29865 0.50362 0.0
H314 H 0.79098 0.37286 0.51582 0.0
H315 H 0.77482 0.37543 0.54416 0.0
C316 C 0.76203 0.32105 0.46866 0.0
C317 C 0.7352 0.33613 0.45748 0.0
C318 C 0.75262 0.32095 0.48482 0.0
C319 C 0.71598 0.33572 0.49021 0.0
C320 C 0.68854 0.35017 0.47901 0.0
C321 C 0.69811 0.35042 0.46278 0.0
C322 C 0.64455 0.31728 0.52846 0.0
C323 C 0.68794 0.33916 0.54016 0.0
C324 C 0.65367 0.31577 0.51231 0.0
C325 C 0.70641 0.33599 0.50746 0.0
C326 C 0.74978 0.35666 0.51919 0.0
C327 C 0.74062 0.35825 0.53541 0.0
H328 H 0.29675 0.62883 0.78442 0.0
H329 H 0.41364 0.79478 0.79973 0.0
H330 H 0.28047 0.60736 0.81224 0.0
H331 H 0.39473 0.7752 0.82731 0.0
H332 H 0.38673 0.72063 0.87703 0.0
H333 H 0.40658 0.7375 0.84918 0.0
H334 H 0.24117 0.61405 0.83451 0.0
H335 H 0.22345 0.59479 0.86219 0.0
C336 C 0.31828 0.66081 0.79377 0.0
C337 C 0.35651 0.7133 0.78999 0.0
C338 C 0.30883 0.64878 0.80975 0.0
C339 C 0.33629 0.68945 0.82226 0.0
C340 C 0.37378 0.74222 0.81824 0.0
C341 C 0.38428 0.75373 0.80236 0.0
C342 C 0.35496 0.69711 0.86777 0.0
C343 C 0.3037 0.65645 0.87172 0.0
C344 C 0.36601 0.70694 0.85176 0.0
C345 C 0.32546 0.67741 0.83936 0.0
C346 C 0.27402 0.63693 0.84351 0.0
C347 C 0.26358 0.62614 0.85945 0.0
H348 H 0.70683 0.41284 0.1279 0.0
H349 H 0.63546 0.24215 0.1148 0.0
H350 H 0.71115 0.39589 0.15589 0.0
H351 H 0.63895 0.22494 0.14299 0.0
H352 H 0.70265 0.22294 0.19351 0.0
H353 H 0.70294 0.24138 0.16548 0.0
H354 H 0.64908 0.35373 0.17681 0.0
H355 H 0.6497 0.33587 0.20502 0.0
C356 C 0.69213 0.37161 0.131 0.0
C357 C 0.67059 0.32874 0.11915 0.0
C358 C 0.69425 0.3619 0.14707 0.0
C359 C 0.67494 0.30906 0.1517 0.0
C360 C 0.65451 0.26622 0.13981 0.0
C361 C 0.65236 0.27598 0.12367 0.0
C362 C 0.69103 0.25176 0.19005 0.0
C363 C 0.67604 0.27794 0.20147 0.0
C364 C 0.69085 0.26201 0.17395 0.0
C365 C 0.67578 0.29877 0.16888 0.0
C366 C 0.66142 0.32553 0.18035 0.0
C367 C 0.66154 0.3152 0.19649 0.0
H368 H 0.50426 0.71149 0.53358 0.0
H369 H 0.38399 0.75441 0.54337 0.0
H370 H 0.4856 0.71042 0.50506 0.0
H371 H 0.36825 0.75829 0.51491 0.0
H372 H 0.30232 0.69756 0.46441 0.0
H373 H 0.326 0.70356 0.49262 0.0
H374 H 0.49112 0.7538 0.48234 0.0
H375 H 0.46527 0.74309 0.45376 0.0
C376 C 0.4745 0.72178 0.52955 0.0
C377 C 0.44498 0.73235 0.54056 0.0
C378 C 0.46406 0.72167 0.51318 0.0
C379 C 0.42488 0.73371 0.50747 0.0
C380 C 0.39736 0.74694 0.51869 0.0
C381 C 0.4066 0.74527 0.53504 0.0
C382 C 0.34369 0.70981 0.46821 0.0
C383 C 0.38203 0.71981 0.45698 0.0
C384 C 0.3576 0.71394 0.48446 0.0
C385 C 0.41083 0.72992 0.48999 0.0
C386 C 0.44949 0.74053 0.47864 0.0
C387 C 0.43496 0.73475 0.46226 0.0
H388 H 0.60392 0.3244 0.87163 0.0
H389 H 0.71203 0.49542 0.86703 0.0
H390 H 0.581 0.31139 0.84292 0.0
H391 H 0.68842 0.4826 0.83838 0.0
H392 H 0.69254 0.41753 0.78713 0.0
H393 H 0.70741 0.43922 0.8159 0.0
H394 H 0.5365 0.33235 0.8212 0.0
H395 H 0.5218 0.30998 0.79247 0.0
C396 C 0.62221 0.35927 0.86451 0.0
C397 C 0.66015 0.41076 0.8715 0.0
C398 C 0.60884 0.35194 0.84809 0.0
C399 C 0.63319 0.39598 0.83839 0.0
C400 C 0.66964 0.44781 0.84552 0.0
C401 C 0.68296 0.45513 0.86192 0.0
C402 C 0.65811 0.3992 0.79443 0.0
C403 C 0.60618 0.36164 0.78762 0.0
C404 C 0.66652 0.41182 0.81089 0.0
C405 C 0.62314 0.38712 0.82081 0.0
C406 C 0.57081 0.35133 0.81388 0.0
C407 C 0.56241 0.33875 0.79743 0.0
H408 H 0.83054 0.44852 0.06189 0.0
H409 H 0.84142 0.33749 0.09292 0.0
H410 H 0.92796 0.49154 0.05843 0.0
H411 H 0.93769 0.38049 0.0897 0.0
H412 H 0.10418 0.43919 0.07273 0.0
H413 H 1.0048 0.3927 0.07134 0.0
H414 H 0.01348 0.54741 0.07304 0.0
H415 H 0.1114 0.59311 0.074 0.0
C416 C 0.85363 0.43365 0.06809 0.0
C417 C 0.82784 0.3895 0.07767 0.0
C418 C 0.9095 0.45811 0.06608 0.0
C419 C 0.94087 0.43909 0.07363 0.0
C420 C 0.91496 0.39545 0.08334 0.0
C421 C 0.85951 0.37112 0.08533 0.0
C422 C 0.08469 0.46303 0.07247 0.0
C423 C 0.11589 0.51984 0.07368 0.0
C424 C 0.02774 0.43653 0.07184 0.0
C425 C 1.00085 0.46629 0.07227 0.0
C426 C 0.0323 0.52296 0.07257 0.0
C427 C 0.08879 0.54923 0.07328 0.0
H428 H 0.54735 0.1587 0.41906 0.0
H429 H 0.69402 0.15827 0.40954 0.0
H430 H 0.49713 0.06081 0.41793 0.0
H431 H 0.64274 0.05902 0.40809 0.0
H432 H 0.55004 0.89132 0.42819 0.0
H433 H 0.59972 0.98834 0.42635 0.0
H434 H 0.46091 0.97838 0.40101 0.0
H435 H 0.41007 0.88001 0.40306 0.0
C436 C 0.56907 0.1378 0.41661 0.0
C437 C 0.62523 0.16686 0.41456 0.0
C438 C 0.53982 0.08127 0.4158 0.0
C439 C 0.56563 0.05172 0.41293 0.0
C440 C 0.62159 0.08051 0.41051 0.0
C441 C 0.65103 0.13743 0.41128 0.0
C442 C 0.5297 0.90938 0.42215 0.0
C443 C 0.47566 0.87734 0.41576 0.0
C444 C 0.5587 0.96535 0.42098 0.0
C445 C 0.53476 0.99143 0.4134 0.0
C446 C 0.48061 0.95968 0.40703 0.0
C447 C 0.45138 0.90326 0.40819 0.0
H448 H 0.47546 0.38688 0.74277 0.0
H449 H 0.62923 0.53488 0.74082 0.0
H450 H 0.42971 0.43946 0.74278 0.0
H451 H 0.58431 0.58702 0.74124 0.0
H452 H 0.48243 0.66605 0.73236 0.0
H453 H 0.52534 0.61183 0.72814 0.0
H454 H 0.423 0.5004 0.76179 0.0
H455 H 0.38003 0.55357 0.76577 0.0
C456 C 0.49935 0.43036 0.74206 0.0
C457 C 0.55601 0.45658 0.74196 0.0
C458 C 0.47332 0.46069 0.74226 0.0
C459 C 0.50338 0.5178 0.74224 0.0
C460 C 0.55965 0.54334 0.74118 0.0
C461 C 0.5855 0.51325 0.74106 0.0
C462 C 0.46968 0.63037 0.73898 0.0
C463 C 0.42775 0.61433 0.74939 0.0
C464 C 0.49401 0.59901 0.73651 0.0
C465 C 0.47707 0.55101 0.74443 0.0
C466 C 0.43615 0.53604 0.75513 0.0
C467 C 0.41191 0.56711 0.75755 0.0
H468 H 0.5689 0.17935 0.59741 0.0
H469 H 0.68097 0.16893 0.56669 0.0
H470 H 0.52582 0.08195 0.6008 0.0
H471 H 0.63791 0.07268 0.56984 0.0
H472 H 0.57868 0.9061 0.58691 0.0
H473 H 0.62515 1.00539 0.58816 0.0
H474 H 0.47035 0.99668 0.58608 0.0
H475 H 0.42464 0.89891 0.58527 0.0
C476 C 0.584 0.15638 0.59127 0.0
C477 C 0.62844 0.18229 0.58179 0.0
C478 C 0.55949 0.10052 0.59324 0.0
C479 C 0.57876 0.06927 0.58574 0.0
C480 C 0.62273 0.09531 0.57614 0.0
C481 C 0.6471 0.15076 0.5742 0.0
C482 C 0.55479 0.92555 0.58701 0.0
C483 C 0.49794 0.89433 0.58578 0.0
C484 C 0.58129 0.98245 0.58758 0.0
C485 C 0.55151 0.00931 0.58705 0.0
C486 C 0.49481 0.97788 0.58664 0.0
C487 C 0.46853 0.92144 0.58601 0.0
H488 H 0.4886 0.66576 0.9142 0.0
H489 H 0.33793 0.51454 0.91669 0.0
H490 H 0.53859 0.61913 0.91593 0.0
H491 H 0.38894 0.46742 0.91879 0.0
H492 H 0.49036 0.39823 0.89917 0.0
H493 H 0.43914 0.44324 0.90149 0.0
H494 H 0.5692 0.57125 0.93205 0.0
H495 H 0.62193 0.52604 0.92948 0.0
C496 C 0.46586 0.62237 0.9152 0.0
C497 C 0.40873 0.59387 0.91504 0.0
C498 C 0.49498 0.59567 0.91641 0.0
C499 C 0.46814 0.53942 0.91747 0.0
C500 C 0.41105 0.5108 0.91778 0.0
C501 C 0.38169 0.53775 0.91664 0.0
C502 C 0.50848 0.43587 0.9065 0.0
C503 C 0.56082 0.45839 0.91412 0.0
C504 C 0.47846 0.46151 0.90794 0.0
C505 C 0.49948 0.51072 0.91706 0.0
C506 C 0.55173 0.53345 0.92482 0.0
C507 C 0.58206 0.50758 0.92337 0.0
H508 H 0.12915 0.4531 0.24509 0.0
H509 H 0.13156 0.60458 0.25021 0.0
H510 H 0.03138 0.40347 0.24521 0.0
H511 H 0.03262 0.55419 0.25074 0.0
H512 H 0.85804 0.44963 0.22909 0.0
H513 H 0.95605 0.5002 0.23198 0.0
H514 H 0.95385 0.37734 0.26052 0.0
H515 H 0.85466 0.32561 0.25738 0.0
C516 C 0.10891 0.47604 0.24641 0.0
C517 C 0.13858 0.53317 0.24746 0.0
C518 C 0.05252 0.44727 0.24664 0.0
C519 C 0.02377 0.47457 0.24791 0.0
C520 C 0.05338 0.53175 0.2495 0.0
C521 C 0.11016 0.56073 0.24932 0.0
C522 C 0.87814 0.43308 0.23602 0.0
C523 C 0.84805 0.38324 0.24301 0.0
C524 C 0.93466 0.46261 0.2378 0.0
C525 C 0.96316 0.44342 0.24663 0.0
C526 C 0.93329 0.3933 0.25354 0.0
C527 C 0.87638 0.36353 0.25174 0.0
H528 H 0.62466 0.48593 0.05747 0.0
H529 H 0.49509 0.33655 0.07337 0.0
H530 H 0.56062 0.51748 0.05285 0.0
H531 H 0.43207 0.36809 0.06914 0.0
H532 H 0.31805 0.42355 0.05372 0.0
H533 H 0.38182 0.39118 0.0508 0.0
H534 H 0.51341 0.54771 0.0693 0.0
H535 H 0.45056 0.57989 0.07183 0.0
C536 C 0.58259 0.45973 0.05987 0.0
C537 C 0.56527 0.40901 0.06594 0.0
C538 C 0.54584 0.47779 0.05728 0.0
C539 C 0.49094 0.44542 0.06065 0.0
C540 C 0.47358 0.39393 0.06616 0.0
C541 C 0.51012 0.37606 0.06877 0.0
C542 C 0.36075 0.4512 0.05683 0.0
C543 C 0.37903 0.50407 0.06315 0.0
C544 C 0.39733 0.43263 0.05528 0.0
C545 C 0.45295 0.46668 0.05994 0.0
C546 C 0.47126 0.52038 0.06542 0.0
C547 C 0.43489 0.53872 0.06701 0.0
H548 H 0.90673 0.49902 0.41147 0.0
H549 H 0.92184 0.3639 0.3944 0.0
H550 H 1.00178 0.56066 0.40804 0.0
H551 H 0.01784 0.42646 0.39051 0.0
H552 H 0.19509 0.54197 0.41063 0.0
H553 H 0.09841 0.47879 0.4076 0.0
H554 H 0.07343 0.60498 0.39057 0.0
H555 H 0.17128 0.66929 0.39407 0.0
C556 C 0.93023 0.48244 0.40675 0.0
C557 C 0.90669 0.42627 0.4034 0.0
C558 C 0.98491 0.51812 0.40461 0.0
C559 C 0.01789 0.49882 0.39903 0.0
C560 C 0.99386 0.44276 0.39504 0.0
C561 C 0.93879 0.40685 0.39718 0.0
C562 C 0.16921 0.55639 0.40609 0.0
C563 C 0.191 0.61102 0.40277 0.0
C564 C 0.11351 0.51975 0.40419 0.0
C565 C 0.07773 0.53652 0.39889 0.0
C566 C 0.09969 0.59074 0.3949 0.0
C567 C 0.15578 0.62761 0.39681 0.0
H568 H 0.45375 0.1488 0.72417 0.0
H569 H 0.6103 0.17943 0.74219 0.0
H570 H 0.42067 0.05122 0.72198 0.0
H571 H 0.57749 0.08327 0.7404 0.0
H572 H 0.36653 0.88732 0.74462 0.0
H573 H 0.39762 0.98145 0.74035 0.0
H574 H 0.54745 1.00185 0.72412 0.0
H575 H 0.51649 0.90712 0.72881 0.0
C576 C 0.48125 0.13486 0.72744 0.0
C577 C 0.53449 0.17193 0.73346 0.0
C578 C 0.46229 0.07894 0.72631 0.0
C579 C 0.4963 0.05905 0.7311 0.0
C580 C 0.55018 0.09667 0.7364 0.0
C581 C 0.5689 0.1521 0.73757 0.0
C582 C 0.40604 0.91164 0.74003 0.0
C583 C 0.43931 0.88968 0.73724 0.0
C584 C 0.42367 0.96573 0.73741 0.0
C585 C 0.47517 0.99967 0.73191 0.0
C586 C 0.50779 0.97719 0.72857 0.0
C587 C 0.49005 0.92282 0.7312 0.0
H588 H 0.43874 0.56038 0.58818 0.0
H589 H 0.5963 0.69307 0.60534 0.0
H590 H 0.47077 0.49742 0.59061 0.0
H591 H 0.62852 0.62919 0.60819 0.0
H592 H 0.68133 0.51466 0.5856 0.0
H593 H 0.65026 0.57801 0.58985 0.0
H594 H 0.5017 0.45067 0.60696 0.0
H595 H 0.53274 0.38626 0.6023 0.0
C596 C 0.48017 0.57609 0.59276 0.0
C597 C 0.51518 0.632 0.59638 0.0
C598 C 0.49843 0.53966 0.59431 0.0
C599 C 0.55239 0.55796 0.59951 0.0
C600 C 0.58685 0.61368 0.60392 0.0
C601 C 0.56839 0.65033 0.60241 0.0
C602 C 0.6421 0.49996 0.59039 0.0
C603 C 0.60921 0.44502 0.59343 0.0
C604 C 0.62451 0.5367 0.593 0.0
C605 C 0.57339 0.51977 0.59875 0.0
C606 C 0.5411 0.46511 0.60234 0.0
C607 C 0.55886 0.42814 0.59973 0.0
H608 H 0.13088 0.6491 0.91675 0.0
H609 H 0.11179 0.50095 0.93383 0.0
H610 H 0.0366 0.61797 0.92075 0.0
H611 H 0.01677 0.46994 0.93826 0.0
H612 H 0.8391 0.40523 0.91949 0.0
H613 H 0.93533 0.43828 0.92189 0.0
H614 H 0.96621 0.5961 0.9387 0.0
H615 H 0.86858 0.56274 0.93587 0.0
C616 C 0.10668 0.60998 0.92157 0.0
C617 C 0.12893 0.57722 0.92478 0.0
C618 C 0.05246 0.59235 0.92403 0.0
C619 C 0.01859 0.5413 0.92981 0.0
C620 C 0.04135 0.50922 0.93359 0.0
C621 C 0.09589 0.52699 0.93111 0.0
C622 C 0.86619 0.44691 0.9239 0.0
C623 C 0.84602 0.4815 0.92733 0.0
C624 C 0.92167 0.46579 0.92542 0.0
C625 C 0.95903 0.52002 0.93042 0.0
C626 C 0.93874 0.55421 0.9346 0.0
C627 C 0.88276 0.53509 0.93312 0.0
H628 H 0.34495 0.84019 0.26518 0.0
H629 H 0.46914 0.81734 0.24543 0.0
H630 H 0.40941 0.93805 0.2686 0.0
H631 H 0.53242 0.91397 0.24848 0.0
H632 H 0.64951 0.08895 0.26298 0.0
H633 H 0.58682 0.99267 0.26633 0.0
H634 H 0.45201 0.01139 0.25131 0.0
H635 H 0.51394 0.10683 0.24834 0.0
C636 C 0.38595 0.85591 0.26169 0.0
C637 C 0.40163 0.82093 0.25491 0.0
C638 C 0.4229 0.91198 0.26358 0.0
C639 C 0.47631 0.93413 0.2588 0.0
C640 C 0.49214 0.89864 0.25254 0.0
C641 C 0.45542 0.843 0.25063 0.0
C642 C 0.60643 0.07254 0.26064 0.0
C643 C 0.58689 0.1055 0.25524 0.0
C644 C 0.57045 0.01732 0.26247 0.0
C645 C 0.51418 0.99397 0.25899 0.0
C646 C 0.49478 0.02776 0.25429 0.0
C647 C 0.53057 0.08262 0.25244 0.0
loop_
_geom_bond_atom_site_label_1
_geom_bond_atom_site_label_2
_geom_bond_distance
_geom_bond_site_symmetry_2
_ccdc_geom_bond_type
Co0 O1 2.216 . S
Co0 O2 2.091 . S
Co0 O4 2.004 . S
Co0 O10 2.021 . S
Co0 O12 2.137 . S
Co0 O13 2.244 . S
O1 Co0 2.216 . S
O1 C8 1.247 . S
O2 Co0 2.091 . S
O2 C8 1.261 . S
C3 O12 1.247 . S
C3 O13 1.272 . S
O4 Co0 2.004 . S
O4 C9 1.259 . S
Co5 O6 2.061 . S
Co5 O11 2.052 . S
Co5 O13 2.135 . S
O6 Co5 2.061 . S
O6 C9 1.235 . S
C7 O10 1.238 . S
C7 O11 1.241 . S
C8 O1 1.247 . S
C8 O2 1.261 . S
C9 O4 1.259 . S
C9 O6 1.235 . S
O10 Co0 2.021 . S
O10 C7 1.238 . S
O11 Co5 2.052 . S
O11 C7 1.241 . S
O12 Co0 2.137 . S
O12 C3 1.247 . S
O13 Co0 2.244 . S
O13 C3 1.272 . S
O13 Co5 2.135 . S
Co14 O15 2.216 . S
Co14 O16 2.091 . S
Co14 O18 2.004 . S
Co14 O24 2.021 . S
Co14 O26 2.137 . S
Co14 O27 2.244 . S
O15 Co14 2.216 . S
O15 C22 1.247 . S
O16 Co14 2.091 . S
O16 C22 1.261 . S
C17 O26 1.247 . S
C17 O27 1.272 . S
O18 Co14 2.004 . S
O18 C23 1.259 . S
Co19 O20 2.061 . S
Co19 O25 2.052 . S
Co19 O27 2.135 . S
O20 Co19 2.061 . S
O20 C23 1.235 . S
C21 O24 1.238 . S
C21 O25 1.241 . S
C22 O15 1.247 . S
C22 O16 1.261 . S
C23 O18 1.259 . S
C23 O20 1.235 . S
O24 Co14 2.021 . S
O24 C21 1.238 . S
O25 Co19 2.052 . S
O25 C21 1.241 . S
O26 Co14 2.137 . S
O26 C17 1.247 . S
O27 Co14 2.244 . S
O27 C17 1.272 . S
O27 Co19 2.135 . S
Co28 O29 2.216 . S
Co28 O30 2.091 . S
Co28 O32 2.004 . S
Co28 O38 2.021 . S
Co28 O40 2.137 . S
Co28 O41 2.244 . S
O29 Co28 2.216 . S
O29 C36 1.247 . S
O30 Co28 2.091 . S
O30 C36 1.261 . S
C31 O40 1.247 . S
C31 O41 1.272 . S
O32 Co28 2.004 . S
O32 C37 1.259 . S
Co33 O34 2.061 . S
Co33 O39 2.052 . S
Co33 O41 2.135 . S
O34 Co33 2.061 . S
O34 C37 1.235 . S
C35 O38 1.238 . S
C35 O39 1.241 . S
C36 O29 1.247 . S
C36 O30 1.261 . S
C37 O32 1.259 . S
C37 O34 1.235 . S
O38 Co28 2.021 . S
O38 C35 1.238 . S
O39 Co33 2.052 . S
O39 C35 1.241 . S
O40 Co28 2.137 . S
O40 C31 1.247 . S
O41 Co28 2.244 . S
O41 C31 1.272 . S
O41 Co33 2.135 . S
Co42 O43 2.216 . S
Co42 O44 2.091 . S
Co42 O46 2.004 . S
Co42 O52 2.021 . S
Co42 O54 2.137 . S
Co42 O55 2.244 . S
O43 Co42 2.216 . S
O43 C50 1.247 . S
O44 Co42 2.091 . S
O44 C50 1.261 . S
C45 O54 1.247 . S
C45 O55 1.272 . S
O46 Co42 2.004 . S
O46 C51 1.259 . S
Co47 O48 2.061 . S
Co47 O53 2.052 . S
Co47 O55 2.135 . S
O48 Co47 2.061 . S
O48 C51 1.235 . S
C49 O52 1.238 . S
C49 O53 1.241 . S
C50 O43 1.247 . S
C50 O44 1.261 . S
C51 O46 1.259 . S
C51 O48 1.235 . S
O52 Co42 2.021 . S
O52 C49 1.238 . S
O53 Co47 2.052 . S
O53 C49 1.241 . S
O54 Co42 2.137 . S
O54 C45 1.247 . S
O55 Co42 2.244 . S
O55 C45 1.272 . S
O55 Co47 2.135 . S
Co56 O57 2.216 . S
Co56 O58 2.091 . S
Co56 O60 2.004 . S
Co56 O66 2.021 . S
Co56 O68 2.137 . S
Co56 O69 2.244 . S
O57 Co56 2.216 . S
O57 C64 1.247 . S
O58 Co56 2.091 . S
O58 C64 1.261 . S
C59 O68 1.247 . S
C59 O69 1.272 . S
O60 Co56 2.004 . S
O60 C65 1.259 . S
Co61 O62 2.061 . S
Co61 O67 2.052 . S
Co61 O69 2.135 . S
O62 Co61 2.061 . S
O62 C65 1.235 . S
C63 O66 1.238 . S
C63 O67 1.241 . S
C64 O57 1.247 . S
C64 O58 1.261 . S
C65 O60 1.259 . S
C65 O62 1.235 . S
O66 Co56 2.021 . S
O66 C63 1.238 . S
O67 Co61 2.052 . S
O67 C63 1.241 . S
O68 Co56 2.137 . S
O68 C59 1.247 . S
O69 Co56 2.244 . S
O69 C59 1.272 . S
O69 Co61 2.135 . S
Co70 O71 2.216 . S
Co70 O72 2.091 . S
Co70 O74 2.004 . S
Co70 O80 2.021 . S
Co70 O82 2.137 . S
Co70 O83 2.244 . S
O71 Co70 2.216 . S
O71 C78 1.247 . S
O72 Co70 2.091 . S
O72 C78 1.261 . S
C73 O82 1.247 . S
C73 O83 1.272 . S
O74 Co70 2.004 . S
O74 C79 1.259 . S
Co75 O76 2.061 . S
Co75 O81 2.052 . S
Co75 O83 2.135 . S
O76 Co75 2.061 . S
O76 C79 1.235 . S
C77 O80 1.238 . S
C77 O81 1.241 . S
C78 O71 1.247 . S
C78 O72 1.261 . S
C79 O74 1.259 . S
C79 O76 1.235 . S
O80 Co70 2.021 . S
O80 C77 1.238 . S
O81 Co75 2.052 . S
O81 C77 1.241 . S
O82 Co70 2.137 . S
O82 C73 1.247 . S
O83 Co70 2.244 . S
O83 C73 1.272 . S
O83 Co75 2.135 . S
Co84 O85 2.216 . S
Co84 O86 2.091 . S
Co84 O88 2.004 . S
Co84 O94 2.021 . S
Co84 O96 2.137 . S
Co84 O97 2.244 . S
O85 Co84 2.216 . S
O85 C92 1.247 . S
O86 Co84 2.091 . S
O86 C92 1.261 . S
C87 O96 1.247 . S
C87 O97 1.272 . S
O88 Co84 2.004 . S
O88 C93 1.259 . S
Co89 O90 2.061 . S
Co89 O95 2.052 . S
Co89 O97 2.135 . S
O90 Co89 2.061 . S
O90 C93 1.235 . S
C91 O94 1.238 . S
C91 O95 1.241 . S
C92 O85 1.247 . S
C92 O86 1.261 . S
C93 O88 1.259 . S
C93 O90 1.235 . S
O94 Co84 2.021 . S
O94 C91 1.238 . S
O95 Co89 2.052 . S
O95 C91 1.241 . S
O96 Co84 2.137 . S
O96 C87 1.247 . S
O97 Co84 2.244 . S
O97 C87 1.272 . S
O97 Co89 2.135 . S
Co98 O99 2.216 . S
Co98 O100 2.091 . S
Co98 O102 2.004 . S
Co98 O108 2.021 . S
Co98 O110 2.137 . S
Co98 O111 2.244 . S
O99 Co98 2.216 . S
O99 C106 1.247 . S
O100 Co98 2.091 . S
O100 C106 1.261 . S
C101 O110 1.247 . S
C101 O111 1.272 . S
O102 Co98 2.004 . S
O102 C107 1.259 . S
Co103 O104 2.061 . S
Co103 O109 2.052 . S
Co103 O111 2.135 . S
O104 Co103 2.061 . S
O104 C107 1.235 . S
C105 O108 1.238 . S
C105 O109 1.241 . S
C106 O99 1.247 . S
C106 O100 1.261 . S
C107 O102 1.259 . S
C107 O104 1.235 . S
O108 Co98 2.021 . S
O108 C105 1.238 . S
O109 Co103 2.052 . S
O109 C105 1.241 . S
O110 Co98 2.137 . S
O110 C101 1.247 . S
O111 Co98 2.244 . S
O111 C101 1.272 . S
O111 Co103 2.135 . S
Co112 O113 2.216 . S
Co112 O114 2.091 . S
Co112 O116 2.004 . S
Co112 O122 2.021 . S
Co112 O124 2.137 . S
Co112 O125 2.244 . S
O113 Co112 2.216 . S
O113 C120 1.247 . S
O114 Co112 2.091 . S
O114 C120 1.261 . S
C115 O124 1.247 . S
C115 O125 1.272 . S
O116 Co112 2.004 . S
O116 C121 1.259 . S
Co117 O118 2.061 . S
Co117 O123 2.052 . S
Co117 O125 2.135 . S
O118 Co117 2.061 . S
O118 C121 1.235 . S
C119 O122 1.238 . S
C119 O123 1.241 . S
C120 O113 1.247 . S
C120 O114 1.261 . S
C121 O116 1.259 . S
C121 O118 1.235 . S
O122 Co112 2.021 . S
O122 C119 1.238 . S
O123 Co117 2.052 . S
O123 C119 1.241 . S
O124 Co112 2.137 . S
O124 C115 1.247 . S
O125 Co112 2.244 . S
O125 C115 1.272 . S
O125 Co117 2.135 . S
Co126 O127 2.216 . S
Co126 O128 2.091 . S
Co126 O130 2.004 . S
Co126 O136 2.021 . S
Co126 O138 2.137 . S
Co126 O139 2.244 . S
O127 Co126 2.216 . S
O127 C134 1.247 . S
O128 Co126 2.091 . S
O128 C134 1.261 . S
C129 O138 1.247 . S
C129 O139 1.272 . S
O130 Co126 2.004 . S
O130 C135 1.259 . S
Co131 O132 2.061 . S
Co131 O137 2.052 . S
Co131 O139 2.135 . S
O132 Co131 2.061 . S
O132 C135 1.235 . S
C133 O136 1.238 . S
C133 O137 1.241 . S
C134 O127 1.247 . S
C134 O128 1.261 . S
C135 O130 1.259 . S
C135 O132 1.235 . S
O136 Co126 2.021 . S
O136 C133 1.238 . S
O137 Co131 2.052 . S
O137 C133 1.241 . S
O138 Co126 2.137 . S
O138 C129 1.247 . S
O139 Co126 2.244 . S
O139 C129 1.272 . S
O139 Co131 2.135 . S
Co140 O141 2.216 . S
Co140 O142 2.091 . S
Co140 O144 2.004 . S
Co140 O150 2.021 . S
Co140 O152 2.137 . S
Co140 O153 2.244 . S
O141 Co140 2.216 . S
O141 C148 1.247 . S
O142 Co140 2.091 . S
O142 C148 1.261 . S
C143 O152 1.247 . S
C143 O153 1.272 . S
O144 Co140 2.004 . S
O144 C149 1.259 . S
Co145 O146 2.061 . S
Co145 O151 2.052 . S
Co145 O153 2.135 . S
O146 Co145 2.061 . S
O146 C149 1.235 . S
C147 O150 1.238 . S
C147 O151 1.241 . S
C148 O141 1.247 . S
C148 O142 1.261 . S
C149 O144 1.259 . S
C149 O146 1.235 . S
O150 Co140 2.021 . S
O150 C147 1.238 . S
O151 Co145 2.052 . S
O151 C147 1.241 . S
O152 Co140 2.137 . S
O152 C143 1.247 . S
O153 Co140 2.244 . S
O153 C143 1.272 . S
O153 Co145 2.135 . S
Co154 O155 2.216 . S
Co154 O156 2.091 . S
Co154 O158 2.004 . S
Co154 O164 2.021 . S
Co154 O166 2.137 . S
Co154 O167 2.244 . S
O155 Co154 2.216 . S
O155 C162 1.247 . S
O156 Co154 2.091 . S
O156 C162 1.261 . S
C157 O166 1.247 . S
C157 O167 1.272 . S
O158 Co154 2.004 . S
O158 C163 1.259 . S
Co159 O160 2.061 . S
Co159 O165 2.052 . S
Co159 O167 2.135 . S
O160 Co159 2.061 . S
O160 C163 1.235 . S
C161 O164 1.238 . S
C161 O165 1.241 . S
C162 O155 1.247 . S
C162 O156 1.261 . S
C163 O158 1.259 . S
C163 O160 1.235 . S
O164 Co154 2.021 . S
O164 C161 1.238 . S
O165 Co159 2.052 . S
O165 C161 1.241 . S
O166 Co154 2.137 . S
O166 C157 1.247 . S
O167 Co154 2.244 . S
O167 C157 1.272 . S
O167 Co159 2.135 . S
H168 C176 0.950 . S
H169 C181 0.950 . S
H170 C178 0.950 . S
H171 C180 0.950 . S
H172 C182 0.950 . S
H173 C184 0.950 . S
H174 C186 0.950 . S
H175 C187 0.950 . S
C176 H168 0.950 . S
C176 C177 1.386 . S
C176 C178 1.391 . S
C177 C176 1.386 . S
C177 C181 1.393 . S
C178 H170 0.950 . S
C178 C176 1.391 . S
C178 C179 1.400 . S
C179 C178 1.400 . S
C179 C180 1.398 . S
C179 C185 1.491 1_556 S
C180 H171 0.950 . S
C180 C179 1.398 . S
C180 C181 1.391 . S
C181 H169 0.950 . S
C181 C177 1.393 . S
C181 C180 1.391 . S
C182 H172 0.950 . S
C182 C183 1.386 . S
C182 C184 1.391 . S
C183 C182 1.386 . S
C183 C187 1.393 . S
C184 H173 0.950 . S
C184 C182 1.391 . S
C184 C185 1.400 . S
C185 C179 1.491 1_554 S
C185 C184 1.400 . S
C185 C186 1.398 . S
C186 H174 0.950 . S
C186 C185 1.398 . S
C186 C187 1.391 . S
C187 H175 0.950 . S
C187 C183 1.393 . S
C187 C186 1.391 . S
H188 C196 0.950 . S
H189 C201 0.950 . S
H190 C198 0.950 . S
H191 C200 0.950 . S
H192 C202 0.950 . S
H193 C204 0.950 . S
H194 C206 0.950 . S
H195 C207 0.950 . S
C196 H188 0.950 . S
C196 C197 1.386 . S
C196 C198 1.391 . S
C197 C196 1.386 . S
C197 C201 1.393 . S
C198 H190 0.950 . S
C198 C196 1.391 . S
C198 C199 1.400 . S
C199 C198 1.400 . S
C199 C200 1.398 . S
C199 C205 1.491 . S
C200 H191 0.950 . S
C200 C199 1.398 . S
C200 C201 1.391 . S
C201 H189 0.950 . S
C201 C197 1.393 . S
C201 C200 1.391 . S
C202 H192 0.950 . S
C202 C203 1.386 . S
C202 C204 1.391 . S
C203 C202 1.386 . S
C203 C207 1.393 . S
C204 H193 0.950 . S
C204 C202 1.391 . S
C204 C205 1.400 . S
C205 C199 1.491 . S
C205 C204 1.400 . S
C205 C206 1.398 . S
C206 H194 0.950 . S
C206 C205 1.398 . S
C206 C207 1.391 . S
C207 H195 0.950 . S
C207 C203 1.393 . S
C207 C206 1.391 . S
H208 C216 0.950 . S
H209 C221 0.950 . S
H210 C218 0.950 . S
H211 C220 0.950 . S
H212 C222 0.950 . S
H213 C224 0.950 . S
H214 C226 0.950 . S
H215 C227 0.950 . S
C216 H208 0.950 . S
C216 C217 1.386 . S
C216 C218 1.391 . S
C217 C216 1.386 . S
C217 C221 1.393 . S
C218 H210 0.950 . S
C218 C216 1.391 . S
C218 C219 1.400 . S
C219 C218 1.400 . S
C219 C220 1.398 . S
C219 C225 1.491 . S
C220 H211 0.950 . S
C220 C219 1.398 . S
C220 C221 1.391 . S
C221 H209 0.950 . S
C221 C217 1.393 . S
C221 C220 1.391 . S
C222 H212 0.950 . S
C222 C223 1.386 . S
C222 C224 1.391 . S
C223 C222 1.386 . S
C223 C227 1.393 . S
C224 H213 0.950 . S
C224 C222 1.391 . S
C224 C225 1.400 . S
C225 C219 1.491 . S
C225 C224 1.400 . S
C225 C226 1.398 . S
C226 H214 0.950 . S
C226 C225 1.398 . S
C226 C227 1.391 . S
C227 H215 0.950 . S
C227 C223 1.393 . S
C227 C226 1.391 . S
H228 C236 0.950 . S
H229 C241 0.950 . S
H230 C238 0.950 1_556 S
H231 C240 0.950 . S
H232 C242 0.950 . S
H233 C244 0.950 . S
H234 C246 0.950 . S
H235 C247 0.950 . S
C236 H228 0.950 . S
C236 C237 1.386 . S
C236 C238 1.391 . S
C237 C236 1.386 . S
C237 C241 1.393 . S
C238 H230 0.950 1_554 S
C238 C236 1.391 . S
C238 C239 1.400 . S
C239 C238 1.400 . S
C239 C240 1.398 . S
C239 C245 1.491 1_554 S
C240 H231 0.950 . S
C240 C239 1.398 . S
C240 C241 1.391 . S
C241 H229 0.950 . S
C241 C237 1.393 . S
C241 C240 1.391 . S
C242 H232 0.950 . S
C242 C243 1.386 . S
C242 C244 1.391 . S
C243 C242 1.386 . S
C243 C247 1.393 . S
C244 H233 0.950 . S
C244 C242 1.391 . S
C244 C245 1.400 . S
C245 C239 1.491 1_556 S
C245 C244 1.400 . S
C245 C246 1.398 . S
C246 H234 0.950 . S
C246 C245 1.398 . S
C246 C247 1.391 . S
C247 H235 0.950 . S
C247 C243 1.393 . S
C247 C246 1.391 . S
H248 C256 0.950 . S
H249 C261 0.950 . S
H250 C258 0.950 . S
H251 C260 0.950 . S
H252 C262 0.950 . S
H253 C264 0.950 . S
H254 C266 0.950 . S
H255 C267 0.950 . S
C256 H248 0.950 . S
C256 C257 1.386 . S
C256 C258 1.391 . S
C257 C256 1.386 . S
C257 C261 1.393 . S
C258 H250 0.950 . S
C258 C256 1.391 . S
C258 C259 1.400 . S
C259 C258 1.400 . S
C259 C260 1.398 . S
C259 C265 1.491 . S
C260 H251 0.950 . S
C260 C259 1.398 . S
C260 C261 1.391 . S
C261 H249 0.950 . S
C261 C257 1.393 . S
C261 C260 1.391 . S
C262 H252 0.950 . S
C262 C263 1.386 . S
C262 C264 1.391 . S
C263 C262 1.386 . S
C263 C267 1.393 . S
C264 H253 0.950 . S
C264 C262 1.391 . S
C264 C265 1.400 . S
C265 C259 1.491 . S
C265 C264 1.400 . S
C265 C266 1.398 . S
C266 H254 0.950 . S
C266 C265 1.398 . S
C266 C267 1.391 . S
C267 H255 0.950 . S
C267 C263 1.393 . S
C267 C266 1.391 . S
H268 C276 0.950 . S
H269 C281 0.950 . S
H270 C278 0.950 . S
H271 C280 0.950 . S
H272 C282 0.950 . S
H273 C284 0.950 . S
H274 C286 0.950 . S
H275 C287 0.950 . S
C276 H268 0.950 . S
C276 C277 1.386 . S
C276 C278 1.391 . S
C277 C276 1.386 . S
C277 C281 1.393 . S
C278 H270 0.950 . S
C278 C276 1.391 . S
C278 C279 1.400 . S
C279 C278 1.400 . S
C279 C280 1.398 . S
C279 C285 1.491 . S
C280 H271 0.950 . S
C280 C279 1.398 . S
C280 C281 1.391 . S
C281 H269 0.950 . S
C281 C277 1.393 . S
C281 C280 1.391 . S
C282 H272 0.950 . S
C282 C283 1.386 . S
C282 C284 1.391 . S
C283 C282 1.386 . S
C283 C287 1.393 . S
C284 H273 0.950 . S
C284 C282 1.391 . S
C284 C285 1.400 . S
C285 C279 1.491 . S
C285 C284 1.400 . S
C285 C286 1.398 . S
C286 H274 0.950 . S
C286 C285 1.398 . S
C286 C287 1.391 . S
C287 H275 0.950 . S
C287 C283 1.393 . S
C287 C286 1.391 . S
H288 C296 0.950 . S
H289 C301 0.950 . S
H290 C298 0.950 . S
H291 C300 0.950 . S
H292 C302 0.950 . S
H293 C304 0.950 . S
H294 C306 0.950 . S
H295 C307 0.950 . S
C296 H288 0.950 . S
C296 C297 1.386 . S
C296 C298 1.391 . S
C297 C296 1.386 . S
C297 C301 1.393 . S
C298 H290 0.950 . S
C298 C296 1.391 . S
C298 C299 1.400 . S
C299 C298 1.400 . S
C299 C300 1.398 . S
C299 C305 1.491 . S
C300 H291 0.950 . S
C300 C299 1.398 . S
C300 C301 1.391 . S
C301 H289 0.950 . S
C301 C297 1.393 . S
C301 C300 1.391 . S
C302 H292 0.950 . S
C302 C303 1.386 . S
C302 C304 1.391 . S
C303 C302 1.386 . S
C303 C307 1.393 . S
C304 H293 0.950 . S
C304 C302 1.391 . S
C304 C305 1.400 . S
C305 C299 1.491 . S
C305 C304 1.400 . S
C305 C306 1.398 . S
C306 H294 0.950 . S
C306 C305 1.398 . S
C306 C307 1.391 . S
C307 H295 0.950 . S
C307 C303 1.393 . S
C307 C306 1.391 . S
H308 C316 0.950 . S
H309 C321 0.950 . S
H310 C318 0.950 . S
H311 C320 0.950 . S
H312 C322 0.950 . S
H313 C324 0.950 . S
H314 C326 0.950 . S
H315 C327 0.950 . S
C316 H308 0.950 . S
C316 C317 1.386 . S
C316 C318 1.391 . S
C317 C316 1.386 . S
C317 C321 1.393 . S
C318 H310 0.950 . S
C318 C316 1.391 . S
C318 C319 1.400 . S
C319 C318 1.400 . S
C319 C320 1.398 . S
C319 C325 1.491 . S
C320 H311 0.950 . S
C320 C319 1.398 . S
C320 C321 1.391 . S
C321 H309 0.950 . S
C321 C317 1.393 . S
C321 C320 1.391 . S
C322 H312 0.950 . S
C322 C323 1.386 . S
C322 C324 1.391 . S
C323 C322 1.386 . S
C323 C327 1.393 . S
C324 H313 0.950 . S
C324 C322 1.391 . S
C324 C325 1.400 . S
C325 C319 1.491 . S
C325 C324 1.400 . S
C325 C326 1.398 . S
C326 H314 0.950 . S
C326 C325 1.398 . S
C326 C327 1.391 . S
C327 H315 0.950 . S
C327 C323 1.393 . S
C327 C326 1.391 . S
H328 C336 0.950 . S
H329 C341 0.950 . S
H330 C338 0.950 . S
H331 C340 0.950 . S
H332 C342 0.950 . S
H333 C344 0.950 . S
H334 C346 0.950 . S
H335 C347 0.950 . S
C336 H328 0.950 . S
C336 C337 1.386 . S
C336 C338 1.391 . S
C337 C336 1.386 . S
C337 C341 1.393 . S
C338 H330 0.950 . S
C338 C336 1.391 . S
C338 C339 1.400 . S
C339 C338 1.400 . S
C339 C340 1.398 . S
C339 C345 1.491 . S
C340 H331 0.950 . S
C340 C339 1.398 . S
C340 C341 1.391 . S
C341 H329 0.950 . S
C341 C337 1.393 . S
C341 C340 1.391 . S
C342 H332 0.950 . S
C342 C343 1.386 . S
C342 C344 1.391 . S
C343 C342 1.386 . S
C343 C347 1.393 . S
C344 H333 0.950 . S
C344 C342 1.391 . S
C344 C345 1.400 . S
C345 C339 1.491 . S
C345 C344 1.400 . S
C345 C346 1.398 . S
C346 H334 0.950 . S
C346 C345 1.398 . S
C346 C347 1.391 . S
C347 H335 0.950 . S
C347 C343 1.393 . S
C347 C346 1.391 . S
H348 C356 0.950 . S
H349 C361 0.950 . S
H350 C358 0.950 . S
H351 C360 0.950 . S
H352 C362 0.950 . S
H353 C364 0.950 . S
H354 C366 0.950 . S
H355 C367 0.950 . S
C356 H348 0.950 . S
C356 C357 1.386 . S
C356 C358 1.391 . S
C357 C356 1.386 . S
C357 C361 1.393 . S
C358 H350 0.950 . S
C358 C356 1.391 . S
C358 C359 1.400 . S
C359 C358 1.400 . S
C359 C360 1.398 . S
C359 C365 1.491 . S
C360 H351 0.950 . S
C360 C359 1.398 . S
C360 C361 1.391 . S
C361 H349 0.950 . S
C361 C357 1.393 . S
C361 C360 1.391 . S
C362 H352 0.950 . S
C362 C363 1.386 . S
C362 C364 1.391 . S
C363 C362 1.386 . S
C363 C367 1.393 . S
C364 H353 0.950 . S
C364 C362 1.391 . S
C364 C365 1.400 . S
C365 C359 1.491 . S
C365 C364 1.400 . S
C365 C366 1.398 . S
C366 H354 0.950 . S
C366 C365 1.398 . S
C366 C367 1.391 . S
C367 H355 0.950 . S
C367 C363 1.393 . S
C367 C366 1.391 . S
H368 C376 0.950 . S
H369 C381 0.950 . S
H370 C378 0.950 . S
H371 C380 0.950 . S
H372 C382 0.950 . S
H373 C384 0.950 . S
H374 C386 0.950 . S
H375 C387 0.950 . S
C376 H368 0.950 . S
C376 C377 1.386 . S
C376 C378 1.391 . S
C377 C376 1.386 . S
C377 C381 1.393 . S
C378 H370 0.950 . S
C378 C376 1.391 . S
C378 C379 1.400 . S
C379 C378 1.400 . S
C379 C380 1.398 . S
C379 C385 1.491 . S
C380 H371 0.950 . S
C380 C379 1.398 . S
C380 C381 1.391 . S
C381 H369 0.950 . S
C381 C377 1.393 . S
C381 C380 1.391 . S
C382 H372 0.950 . S
C382 C383 1.386 . S
C382 C384 1.391 . S
C383 C382 1.386 . S
C383 C387 1.393 . S
C384 H373 0.950 . S
C384 C382 1.391 . S
C384 C385 1.400 . S
C385 C379 1.491 . S
C385 C384 1.400 . S
C385 C386 1.398 . S
C386 H374 0.950 . S
C386 C385 1.398 . S
C386 C387 1.391 . S
C387 H375 0.950 . S
C387 C383 1.393 . S
C387 C386 1.391 . S
H388 C396 0.950 . S
H389 C401 0.950 . S
H390 C398 0.950 . S
H391 C400 0.950 . S
H392 C402 0.950 . S
H393 C404 0.950 . S
H394 C406 0.950 . S
H395 C407 0.950 . S
C396 H388 0.950 . S
C396 C397 1.386 . S
C396 C398 1.391 . S
C397 C396 1.386 . S
C397 C401 1.393 . S
C398 H390 0.950 . S
C398 C396 1.391 . S
C398 C399 1.400 . S
C399 C398 1.400 . S
C399 C400 1.398 . S
C399 C405 1.491 . S
C400 H391 0.950 . S
C400 C399 1.398 . S
C400 C401 1.391 . S
C401 H389 0.950 . S
C401 C397 1.393 . S
C401 C400 1.391 . S
C402 H392 0.950 . S
C402 C403 1.386 . S
C402 C404 1.391 . S
C403 C402 1.386 . S
C403 C407 1.393 . S
C404 H393 0.950 . S
C404 C402 1.391 . S
C404 C405 1.400 . S
C405 C399 1.491 . S
C405 C404 1.400 . S
C405 C406 1.398 . S
C406 H394 0.950 . S
C406 C405 1.398 . S
C406 C407 1.391 . S
C407 H395 0.950 . S
C407 C403 1.393 . S
C407 C406 1.391 . S
H408 C416 0.950 . S
H409 C421 0.950 . S
H410 C418 0.950 . S
H411 C420 0.950 . S
H412 C422 0.950 . S
H413 C424 0.950 . S
H414 C426 0.950 1_655 S
H415 C427 0.950 . S
C416 H408 0.950 . S
C416 C417 1.386 . S
C416 C418 1.391 . S
C417 C416 1.386 . S
C417 C421 1.393 . S
C418 H410 0.950 . S
C418 C416 1.391 . S
C418 C419 1.400 . S
C419 C418 1.400 . S
C419 C420 1.398 . S
C419 C425 1.491 . S
C420 H411 0.950 . S
C420 C419 1.398 . S
C420 C421 1.391 . S
C421 H409 0.950 . S
C421 C417 1.393 . S
C421 C420 1.391 . S
C422 H412 0.950 . S
C422 C423 1.386 . S
C422 C424 1.391 1_455 S
C423 C422 1.386 . S
C423 C427 1.393 . S
C424 H413 0.950 . S
C424 C422 1.391 1_655 S
C424 C425 1.400 . S
C425 C419 1.491 . S
C425 C424 1.400 . S
C425 C426 1.398 1_655 S
C426 H414 0.950 1_455 S
C426 C425 1.398 1_455 S
C426 C427 1.391 . S
C427 H415 0.950 . S
C427 C423 1.393 . S
C427 C426 1.391 . S
H428 C436 0.950 . S
H429 C441 0.950 . S
H430 C438 0.950 . S
H431 C440 0.950 . S
H432 C442 0.950 . S
H433 C444 0.950 . S
H434 C446 0.950 . S
H435 C447 0.950 . S
C436 H428 0.950 . S
C436 C437 1.386 . S
C436 C438 1.391 . S
C437 C436 1.386 . S
C437 C441 1.393 . S
C438 H430 0.950 . S
C438 C436 1.391 . S
C438 C439 1.400 . S
C439 C438 1.400 . S
C439 C440 1.398 . S
C439 C445 1.491 1_545 S
C440 H431 0.950 . S
C440 C439 1.398 . S
C440 C441 1.391 . S
C441 H429 0.950 . S
C441 C437 1.393 . S
C441 C440 1.391 . S
C442 H432 0.950 . S
C442 C443 1.386 . S
C442 C444 1.391 . S
C443 C442 1.386 . S
C443 C447 1.393 . S
C444 H433 0.950 . S
C444 C442 1.391 . S
C444 C445 1.400 . S
C445 C439 1.491 1_565 S
C445 C444 1.400 . S
C445 C446 1.398 . S
C446 H434 0.950 . S
C446 C445 1.398 . S
C446 C447 1.391 . S
C447 H435 0.950 . S
C447 C443 1.393 . S
C447 C446 1.391 . S
H448 C456 0.950 . S
H449 C461 0.950 . S
H450 C458 0.950 . S
H451 C460 0.950 . S
H452 C462 0.950 . S
H453 C464 0.950 . S
H454 C466 0.950 . S
H455 C467 0.950 . S
C456 H448 0.950 . S
C456 C457 1.386 . S
C456 C458 1.391 . S
C457 C456 1.386 . S
C457 C461 1.393 . S
C458 H450 0.950 . S
C458 C456 1.391 . S
C458 C459 1.400 . S
C459 C458 1.400 . S
C459 C460 1.398 . S
C459 C465 1.491 . S
C460 H451 0.950 . S
C460 C459 1.398 . S
C460 C461 1.391 . S
C461 H449 0.950 . S
C461 C457 1.393 . S
C461 C460 1.391 . S
C462 H452 0.950 . S
C462 C463 1.386 . S
C462 C464 1.391 . S
C463 C462 1.386 . S
C463 C467 1.393 . S
C464 H453 0.950 . S
C464 C462 1.391 . S
C464 C465 1.400 . S
C465 C459 1.491 . S
C465 C464 1.400 . S
C465 C466 1.398 . S
C466 H454 0.950 . S
C466 C465 1.398 . S
C466 C467 1.391 . S
C467 H455 0.950 . S
C467 C463 1.393 . S
C467 C466 1.391 . S
H468 C476 0.950 . S
H469 C481 0.950 . S
H470 C478 0.950 . S
H471 C480 0.950 . S
H472 C482 0.950 . S
H473 C484 0.950 . S
H474 C486 0.950 . S
H475 C487 0.950 . S
C476 H468 0.950 . S
C476 C477 1.386 . S
C476 C478 1.391 . S
C477 C476 1.386 . S
C477 C481 1.393 . S
C478 H470 0.950 . S
C478 C476 1.391 . S
C478 C479 1.400 . S
C479 C478 1.400 . S
C479 C480 1.398 . S
C479 C485 1.491 . S
C480 H471 0.950 . S
C480 C479 1.398 . S
C480 C481 1.391 . S
C481 H469 0.950 . S
C481 C477 1.393 . S
C481 C480 1.391 . S
C482 H472 0.950 . S
C482 C483 1.386 . S
C482 C484 1.391 1_565 S
C483 C482 1.386 . S
C483 C487 1.393 . S
C484 H473 0.950 . S
C484 C482 1.391 1_545 S
C484 C485 1.400 . S
C485 C479 1.491 . S
C485 C484 1.400 . S
C485 C486 1.398 1_545 S
C486 H474 0.950 . S
C486 C485 1.398 1_565 S
C486 C487 1.391 . S
C487 H475 0.950 . S
C487 C483 1.393 . S
C487 C486 1.391 . S
H488 C496 0.950 . S
H489 C501 0.950 . S
H490 C498 0.950 . S
H491 C500 0.950 . S
H492 C502 0.950 . S
H493 C504 0.950 . S
H494 C506 0.950 . S
H495 C507 0.950 . S
C496 H488 0.950 . S
C496 C497 1.386 . S
C496 C498 1.391 . S
C497 C496 1.386 . S
C497 C501 1.393 . S
C498 H490 0.950 . S
C498 C496 1.391 . S
C498 C499 1.400 . S
C499 C498 1.400 . S
C499 C500 1.398 . S
C499 C505 1.491 . S
C500 H491 0.950 . S
C500 C499 1.398 . S
C500 C501 1.391 . S
C501 H489 0.950 . S
C501 C497 1.393 . S
C501 C500 1.391 . S
C502 H492 0.950 . S
C502 C503 1.386 . S
C502 C504 1.391 . S
C503 C502 1.386 . S
C503 C507 1.393 . S
C504 H493 0.950 . S
C504 C502 1.391 . S
C504 C505 1.400 . S
C505 C499 1.491 . S
C505 C504 1.400 . S
C505 C506 1.398 . S
C506 H494 0.950 . S
C506 C505 1.398 . S
C506 C507 1.391 . S
C507 H495 0.950 . S
C507 C503 1.393 . S
C507 C506 1.391 . S
H508 C516 0.950 . S
H509 C521 0.950 . S
H510 C518 0.950 . S
H511 C520 0.950 . S
H512 C522 0.950 . S
H513 C524 0.950 . S
H514 C526 0.950 . S
H515 C527 0.950 . S
C516 H508 0.950 . S
C516 C517 1.386 . S
C516 C518 1.391 . S
C517 C516 1.386 . S
C517 C521 1.393 . S
C518 H510 0.950 . S
C518 C516 1.391 . S
C518 C519 1.400 . S
C519 C518 1.400 . S
C519 C520 1.398 . S
C519 C525 1.491 1_455 S
C520 H511 0.950 . S
C520 C519 1.398 . S
C520 C521 1.391 . S
C521 H509 0.950 . S
C521 C517 1.393 . S
C521 C520 1.391 . S
C522 H512 0.950 . S
C522 C523 1.386 . S
C522 C524 1.391 . S
C523 C522 1.386 . S
C523 C527 1.393 . S
C524 H513 0.950 . S
C524 C522 1.391 . S
C524 C525 1.400 . S
C525 C519 1.491 1_655 S
C525 C524 1.400 . S
C525 C526 1.398 . S
C526 H514 0.950 . S
C526 C525 1.398 . S
C526 C527 1.391 . S
C527 H515 0.950 . S
C527 C523 1.393 . S
C527 C526 1.391 . S
H528 C536 0.950 . S
H529 C541 0.950 . S
H530 C538 0.950 . S
H531 C540 0.950 . S
H532 C542 0.950 . S
H533 C544 0.950 . S
H534 C546 0.950 . S
H535 C547 0.950 . S
C536 H528 0.950 . S
C536 C537 1.386 . S
C536 C538 1.391 . S
C537 C536 1.386 . S
C537 C541 1.393 . S
C538 H530 0.950 . S
C538 C536 1.391 . S
C538 C539 1.400 . S
C539 C538 1.400 . S
C539 C540 1.398 . S
C539 C545 1.491 . S
C540 H531 0.950 . S
C540 C539 1.398 . S
C540 C541 1.391 . S
C541 H529 0.950 . S
C541 C537 1.393 . S
C541 C540 1.391 . S
C542 H532 0.950 . S
C542 C543 1.386 . S
C542 C544 1.391 . S
C543 C542 1.386 . S
C543 C547 1.393 . S
C544 H533 0.950 . S
C544 C542 1.391 . S
C544 C545 1.400 . S
C545 C539 1.491 . S
C545 C544 1.400 . S
C545 C546 1.398 . S
C546 H534 0.950 . S
C546 C545 1.398 . S
C546 C547 1.391 . S
C547 H535 0.950 . S
C547 C543 1.393 . S
C547 C546 1.391 . S
H548 C556 0.950 . S
H549 C561 0.950 . S
H550 C558 0.950 . S
H551 C560 0.950 1_455 S
H552 C562 0.950 . S
H553 C564 0.950 . S
H554 C566 0.950 . S
H555 C567 0.950 . S
C556 H548 0.950 . S
C556 C557 1.386 . S
C556 C558 1.391 . S
C557 C556 1.386 . S
C557 C561 1.393 . S
C558 H550 0.950 . S
C558 C556 1.391 . S
C558 C559 1.400 . S
C559 C558 1.400 . S
C559 C560 1.398 . S
C559 C565 1.491 1_655 S
C560 H551 0.950 1_655 S
C560 C559 1.398 . S
C560 C561 1.391 . S
C561 H549 0.950 . S
C561 C557 1.393 . S
C561 C560 1.391 . S
C562 H552 0.950 . S
C562 C563 1.386 . S
C562 C564 1.391 . S
C563 C562 1.386 . S
C563 C567 1.393 . S
C564 H553 0.950 . S
C564 C562 1.391 . S
C564 C565 1.400 . S
C565 C559 1.491 1_455 S
C565 C564 1.400 . S
C565 C566 1.398 . S
C566 H554 0.950 . S
C566 C565 1.398 . S
C566 C567 1.391 . S
C567 H555 0.950 . S
C567 C563 1.393 . S
C567 C566 1.391 . S
H568 C576 0.950 . S
H569 C581 0.950 . S
H570 C578 0.950 . S
H571 C580 0.950 . S
H572 C582 0.950 . S
H573 C584 0.950 . S
H574 C586 0.950 . S
H575 C587 0.950 . S
C576 H568 0.950 . S
C576 C577 1.386 . S
C576 C578 1.391 . S
C577 C576 1.386 . S
C577 C581 1.393 . S
C578 H570 0.950 . S
C578 C576 1.391 . S
C578 C579 1.400 . S
C579 C578 1.400 . S
C579 C580 1.398 . S
C579 C585 1.491 1_545 S
C580 H571 0.950 . S
C580 C579 1.398 . S
C580 C581 1.391 . S
C581 H569 0.950 . S
C581 C577 1.393 . S
C581 C580 1.391 . S
C582 H572 0.950 . S
C582 C583 1.386 . S
C582 C584 1.391 . S
C583 C582 1.386 . S
C583 C587 1.393 . S
C584 H573 0.950 . S
C584 C582 1.391 . S
C584 C585 1.400 . S
C585 C579 1.491 1_565 S
C585 C584 1.400 . S
C585 C586 1.398 . S
C586 H574 0.950 . S
C586 C585 1.398 . S
C586 C587 1.391 . S
C587 H575 0.950 . S
C587 C583 1.393 . S
C587 C586 1.391 . S
H588 C596 0.950 . S
H589 C601 0.950 . S
H590 C598 0.950 . S
H591 C600 0.950 . S
H592 C602 0.950 . S
H593 C604 0.950 . S
H594 C606 0.950 . S
H595 C607 0.950 . S
C596 H588 0.950 . S
C596 C597 1.386 . S
C596 C598 1.391 . S
C597 C596 1.386 . S
C597 C601 1.393 . S
C598 H590 0.950 . S
C598 C596 1.391 . S
C598 C599 1.400 . S
C599 C598 1.400 . S
C599 C600 1.398 . S
C599 C605 1.491 . S
C600 H591 0.950 . S
C600 C599 1.398 . S
C600 C601 1.391 . S
C601 H589 0.950 . S
C601 C597 1.393 . S
C601 C600 1.391 . S
C602 H592 0.950 . S
C602 C603 1.386 . S
C602 C604 1.391 . S
C603 C602 1.386 . S
C603 C607 1.393 . S
C604 H593 0.950 . S
C604 C602 1.391 . S
C604 C605 1.400 . S
C605 C599 1.491 . S
C605 C604 1.400 . S
C605 C606 1.398 . S
C606 H594 0.950 . S
C606 C605 1.398 . S
C606 C607 1.391 . S
C607 H595 0.950 . S
C607 C603 1.393 . S
C607 C606 1.391 . S
H608 C616 0.950 . S
H609 C621 0.950 . S
H610 C618 0.950 . S
H611 C620 0.950 . S
H612 C622 0.950 . S
H613 C624 0.950 . S
H614 C626 0.950 . S
H615 C627 0.950 . S
C616 H608 0.950 . S
C616 C617 1.386 . S
C616 C618 1.391 . S
C617 C616 1.386 . S
C617 C621 1.393 . S
C618 H610 0.950 . S
C618 C616 1.391 . S
C618 C619 1.400 . S
C619 C618 1.400 . S
C619 C620 1.398 . S
C619 C625 1.491 1_455 S
C620 H611 0.950 . S
C620 C619 1.398 . S
C620 C621 1.391 . S
C621 H609 0.950 . S
C621 C617 1.393 . S
C621 C620 1.391 . S
C622 H612 0.950 . S
C622 C623 1.386 . S
C622 C624 1.391 . S
C623 C622 1.386 . S
C623 C627 1.393 . S
C624 H613 0.950 . S
C624 C622 1.391 . S
C624 C625 1.400 . S
C625 C619 1.491 1_655 S
C625 C624 1.400 . S
C625 C626 1.398 . S
C626 H614 0.950 . S
C626 C625 1.398 . S
C626 C627 1.391 . S
C627 H615 0.950 . S
C627 C623 1.393 . S
C627 C626 1.391 . S
H628 C636 0.950 . S
H629 C641 0.950 . S
H630 C638 0.950 . S
H631 C640 0.950 . S
H632 C642 0.950 . S
H633 C644 0.950 . S
H634 C646 0.950 . S
H635 C647 0.950 . S
C636 H628 0.950 . S
C636 C637 1.386 . S
C636 C638 1.391 . S
C637 C636 1.386 . S
C637 C641 1.393 . S
C638 H630 0.950 . S
C638 C636 1.391 . S
C638 C639 1.400 . S
C639 C638 1.400 . S
C639 C640 1.398 . S
C639 C645 1.491 1_565 S
C640 H631 0.950 . S
C640 C639 1.398 . S
C640 C641 1.391 . S
C641 H629 0.950 . S
C641 C637 1.393 . S
C641 C640 1.391 . S
C642 H632 0.950 . S
C642 C643 1.386 . S
C642 C644 1.391 . S
C643 C642 1.386 . S
C643 C647 1.393 . S
C644 H633 0.950 . S
C644 C642 1.391 . S
C644 C645 1.400 . S
C645 C639 1.491 1_545 S
C645 C644 1.400 . S
C645 C646 1.398 . S
C646 H634 0.950 . S
C646 C645 1.398 . S
C646 C647 1.391 . S
C647 H635 0.950 . S
C647 C643 1.393 . S
C647 C646 1.391 . S
C177 C147 1.449 . S
C183 C7 1.496 . S
C197 C21 1.313 . S
C203 C161 1.318 . S
C217 C35 1.470 . S
C223 C91 1.510 . S
C237 C49 1.405 . S
C243 C105 1.436 . S
C257 C119 1.159 . S
C263 C63 1.163 . S
C277 C77 1.415 . S
C283 C133 1.377 . S
C297 C115 1.165 . S
C303 C3 1.196 . S
C317 C17 1.577 . S
C323 C129 1.507 . S
C337 C31 1.783 . S
C343 C143 1.795 . S
C357 C45 1.510 . S
C363 C157 1.565 . S
C377 C87 1.209 . S
C383 C59 1.167 . S
C397 C101 1.147 . S
C403 C73 1.152 . S
C417 C51 1.435 . S
C423 C9 1.434 . S
C437 C23 1.463 . S
C443 C65 1.460 . S
C457 C79 1.398 . S
C463 C37 1.401 . S
C477 C135 1.433 . S
C483 C93 1.433 . S
C497 C149 1.416 . S
C503 C107 1.413 . S
C517 C121 1.464 . S
C523 C163 1.465 . S
C537 C50 1.386 . S
C543 C8 1.384 . S
C557 C22 1.438 . S
C563 C64 1.440 . S
C577 C78 1.407 . S
C583 C36 1.407 . S
C597 C92 1.384 . S
C603 C134 1.386 . S
C617 C148 1.408 . S
C623 C106 1.409 . S
C637 C120 1.440 . S
C643 C162 1.438 . S
