# Generated by pormake.
# Topology vba, (4)-cn, num edge types: 1
# Building blocks:
#     Node 0, Type 0, BuildingBlock: NAWXER_clean_sbu_0, # of connection points: 4
#     Node 1, Type 0, BuildingBlock: NAWXER_clean_sbu_0, # of connection points: 4
#     Node 2, Type 0, BuildingBlock: NAWXER_clean_sbu_0, # of connection points: 4
#     Node 3, Type 0, BuildingBlock: NAWXER_clean_sbu_0, # of connection points: 4
#     Node 4, Type 0, BuildingBlock: NAWXER_clean_sbu_0, # of connection points: 4
#     Node 5, Type 0, BuildingBlock: NAWXER_clean_sbu_0, # of connection points: 4
#     Node 6, Type 0, BuildingBlock: NAWXER_clean_sbu_0, # of connection points: 4
#     Node 7, Type 0, BuildingBlock: NAWXER_clean_sbu_0, # of connection points: 4
#     Node 8, Type 0, BuildingBlock: NAWXER_clean_sbu_0, # of connection points: 4
#     Node 9, Type 0, BuildingBlock: NAWXER_clean_sbu_0, # of connection points: 4
#     Node 10, Type 0, BuildingBlock: NAWXER_clean_sbu_0, # of connection points: 4
#     Node 11, Type 0, BuildingBlock: NAWXER_clean_sbu_0, # of connection points: 4
#     Node 12, Type 0, BuildingBlock: NAWXER_clean_sbu_0, # of connection points: 4
#     Node 13, Type 0, BuildingBlock: NAWXER_clean_sbu_0, # of connection points: 4
#     Node 14, Type 0, BuildingBlock: NAWXER_clean_sbu_0, # of connection points: 4
#     Node 15, Type 0, BuildingBlock: NAWXER_clean_sbu_0, # of connection points: 4
#     Node 16, Type 0, BuildingBlock: NAWXER_clean_sbu_0, # of connection points: 4
#     Node 17, Type 0, BuildingBlock: NAWXER_clean_sbu_0, # of connection points: 4
#     Node 18, Type 0, BuildingBlock: NAWXER_clean_sbu_0, # of connection points: 4
#     Node 19, Type 0, BuildingBlock: NAWXER_clean_sbu_0, # of connection points: 4
#     Node 20, Type 0, BuildingBlock: NAWXER_clean_sbu_0, # of connection points: 4
#     Node 21, Type 0, BuildingBlock: NAWXER_clean_sbu_0, # of connection points: 4
#     Node 22, Type 0, BuildingBlock: NAWXER_clean_sbu_0, # of connection points: 4
#     Node 23, Type 0, BuildingBlock: NAWXER_clean_sbu_0, # of connection points: 4
#     Node 24, Type 0, BuildingBlock: NAWXER_clean_sbu_0, # of connection points: 4
#     Node 25, Type 0, BuildingBlock: NAWXER_clean_sbu_0, # of connection points: 4
#     Node 26, Type 0, BuildingBlock: NAWXER_clean_sbu_0, # of connection points: 4
#     Node 27, Type 0, BuildingBlock: NAWXER_clean_sbu_0, # of connection points: 4
#     Node 28, Type 0, BuildingBlock: NAWXER_clean_sbu_0, # of connection points: 4
#     Node 29, Type 0, BuildingBlock: NAWXER_clean_sbu_0, # of connection points: 4
#     Node 30, Type 0, BuildingBlock: NAWXER_clean_sbu_0, # of connection points: 4
#     Node 31, Type 0, BuildingBlock: NAWXER_clean_sbu_0, # of connection points: 4
#     Edge 32, Type (0, 0), BuildingBlock: UVAHIK_clean_linker_0, # of connection points: 2
#     Edge 33, Type (0, 0), BuildingBlock: UVAHIK_clean_linker_0, # of connection points: 2
#     Edge 34, Type (0, 0), BuildingBlock: UVAHIK_clean_linker_0, # of connection points: 2
#     Edge 35, Type (0, 0), BuildingBlock: UVAHIK_clean_linker_0, # of connection points: 2
#     Edge 36, Type (0, 0), BuildingBlock: UVAHIK_clean_linker_0, # of connection points: 2
#     Edge 37, Type (0, 0), BuildingBlock: UVAHIK_clean_linker_0, # of connection points: 2
#     Edge 38, Type (0, 0), BuildingBlock: UVAHIK_clean_linker_0, # of connection points: 2
#     Edge 39, Type (0, 0), BuildingBlock: UVAHIK_clean_linker_0, # of connection points: 2
#     Edge 40, Type (0, 0), BuildingBlock: UVAHIK_clean_linker_0, # of connection points: 2
#     Edge 41, Type (0, 0), BuildingBlock: UVAHIK_clean_linker_0, # of connection points: 2
#     Edge 42, Type (0, 0), BuildingBlock: UVAHIK_clean_linker_0, # of connection points: 2
#     Edge 43, Type (0, 0), BuildingBlock: UVAHIK_clean_linker_0, # of connection points: 2
#     Edge 44, Type (0, 0), BuildingBlock: UVAHIK_clean_linker_0, # of connection points: 2
#     Edge 45, Type (0, 0), BuildingBlock: UVAHIK_clean_linker_0, # of connection points: 2
#     Edge 46, Type (0, 0), BuildingBlock: UVAHIK_clean_linker_0, # of connection points: 2
#     Edge 47, Type (0, 0), BuildingBlock: UVAHIK_clean_linker_0, # of connection points: 2
#     Edge 48, Type (0, 0), BuildingBlock: UVAHIK_clean_linker_0, # of connection points: 2
#     Edge 49, Type (0, 0), BuildingBlock: UVAHIK_clean_linker_0, # of connection points: 2
#     Edge 50, Type (0, 0), BuildingBlock: UVAHIK_clean_linker_0, # of connection points: 2
#     Edge 51, Type (0, 0), BuildingBlock: UVAHIK_clean_linker_0, # of connection points: 2
#     Edge 52, Type (0, 0), BuildingBlock: UVAHIK_clean_linker_0, # of connection points: 2
#     Edge 53, Type (0, 0), BuildingBlock: UVAHIK_clean_linker_0, # of connection points: 2
#     Edge 54, Type (0, 0), BuildingBlock: UVAHIK_clean_linker_0, # of connection points: 2
#     Edge 55, Type (0, 0), BuildingBlock: UVAHIK_clean_linker_0, # of connection points: 2
#     Edge 56, Type (0, 0), BuildingBlock: UVAHIK_clean_linker_0, # of connection points: 2
#     Edge 57, Type (0, 0), BuildingBlock: UVAHIK_clean_linker_0, # of connection points: 2
#     Edge 58, Type (0, 0), BuildingBlock: UVAHIK_clean_linker_0, # of connection points: 2
#     Edge 59, Type (0, 0), BuildingBlock: UVAHIK_clean_linker_0, # of connection points: 2
#     Edge 60, Type (0, 0), BuildingBlock: UVAHIK_clean_linker_0, # of connection points: 2
#     Edge 61, Type (0, 0), BuildingBlock: UVAHIK_clean_linker_0, # of connection points: 2
#     Edge 62, Type (0, 0), BuildingBlock: UVAHIK_clean_linker_0, # of connection points: 2
#     Edge 63, Type (0, 0), BuildingBlock: UVAHIK_clean_linker_0, # of connection points: 2
#     Edge 64, Type (0, 0), BuildingBlock: UVAHIK_clean_linker_0, # of connection points: 2
#     Edge 65, Type (0, 0), BuildingBlock: UVAHIK_clean_linker_0, # of connection points: 2
#     Edge 66, Type (0, 0), BuildingBlock: UVAHIK_clean_linker_0, # of connection points: 2
#     Edge 67, Type (0, 0), BuildingBlock: UVAHIK_clean_linker_0, # of connection points: 2
#     Edge 68, Type (0, 0), BuildingBlock: UVAHIK_clean_linker_0, # of connection points: 2
#     Edge 69, Type (0, 0), BuildingBlock: UVAHIK_clean_linker_0, # of connection points: 2
#     Edge 70, Type (0, 0), BuildingBlock: UVAHIK_clean_linker_0, # of connection points: 2
#     Edge 71, Type (0, 0), BuildingBlock: UVAHIK_clean_linker_0, # of connection points: 2
#     Edge 72, Type (0, 0), BuildingBlock: UVAHIK_clean_linker_0, # of connection points: 2
#     Edge 73, Type (0, 0), BuildingBlock: UVAHIK_clean_linker_0, # of connection points: 2
#     Edge 74, Type (0, 0), BuildingBlock: UVAHIK_clean_linker_0, # of connection points: 2
#     Edge 75, Type (0, 0), BuildingBlock: UVAHIK_clean_linker_0, # of connection points: 2
#     Edge 76, Type (0, 0), BuildingBlock: UVAHIK_clean_linker_0, # of connection points: 2
#     Edge 77, Type (0, 0), BuildingBlock: UVAHIK_clean_linker_0, # of connection points: 2
#     Edge 78, Type (0, 0), BuildingBlock: UVAHIK_clean_linker_0, # of connection points: 2
#     Edge 79, Type (0, 0), BuildingBlock: UVAHIK_clean_linker_0, # of connection points: 2
#     Edge 80, Type (0, 0), BuildingBlock: UVAHIK_clean_linker_0, # of connection points: 2
#     Edge 81, Type (0, 0), BuildingBlock: UVAHIK_clean_linker_0, # of connection points: 2
#     Edge 82, Type (0, 0), BuildingBlock: UVAHIK_clean_linker_0, # of connection points: 2
#     Edge 83, Type (0, 0), BuildingBlock: UVAHIK_clean_linker_0, # of connection points: 2
#     Edge 84, Type (0, 0), BuildingBlock: UVAHIK_clean_linker_0, # of connection points: 2
#     Edge 85, Type (0, 0), BuildingBlock: UVAHIK_clean_linker_0, # of connection points: 2
#     Edge 86, Type (0, 0), BuildingBlock: UVAHIK_clean_linker_0, # of connection points: 2
#     Edge 87, Type (0, 0), BuildingBlock: UVAHIK_clean_linker_0, # of connection points: 2
#     Edge 88, Type (0, 0), BuildingBlock: UVAHIK_clean_linker_0, # of connection points: 2
#     Edge 89, Type (0, 0), BuildingBlock: UVAHIK_clean_linker_0, # of connection points: 2
#     Edge 90, Type (0, 0), BuildingBlock: UVAHIK_clean_linker_0, # of connection points: 2
#     Edge 91, Type (0, 0), BuildingBlock: UVAHIK_clean_linker_0, # of connection points: 2
#     Edge 92, Type (0, 0), BuildingBlock: UVAHIK_clean_linker_0, # of connection points: 2
#     Edge 93, Type (0, 0), BuildingBlock: UVAHIK_clean_linker_0, # of connection points: 2
#     Edge 94, Type (0, 0), BuildingBlock: UVAHIK_clean_linker_0, # of connection points: 2
#     Edge 95, Type (0, 0), BuildingBlock: UVAHIK_clean_linker_0, # of connection points: 2
# Relax obj value: 0.002
# Max RMSD: 0.073
# Mean RMSD: 0.072
data_MOF--net-vba--node1-NAWXER_clean_sbu_0--edge1-UVAHIK_clean_linker_0
_symmetry_space_group_name_H-M    P1
_symmetry_Int_Tables_number       1
_symmetry_cell_setting            triclinic
loop_
_symmetry_equiv_pos_as_xyz
'x, y, z'
_cell_length_a     21.563721
_cell_length_b     136.71043
_cell_length_c     72.351854
_cell_angle_alpha  90.024761
_cell_angle_beta   89.973795
_cell_angle_gamma 89.884776
loop_
_atom_site_label
_atom_site_type_symbol
_atom_site_fract_x
_atom_site_fract_y
_atom_site_fract_z
_atom_type_partial_charge
C0 C 0.35776 0.06235 1.00768 0.0
C1 C 0.28353 0.09601 1.00647 0.0
O2 O 0.29902 0.06255 1.00467 0.0
Zn3 Zn 0.22898 0.074 1.00207 0.0
O4 O 0.38624 0.07035 1.00996 0.0
Zn5 Zn 0.31767 0.07917 1.00722 0.0
O6 O 0.26107 0.07687 0.03182 0.0
O7 O 0.17113 0.07146 0.02174 0.0
O8 O 0.33775 0.09277 1.0095 0.0
O9 O 0.23909 0.08995 1.00347 0.0
O10 O 0.1976 0.07211 0.97749 0.0
O11 O 0.29213 0.07819 0.978 0.0
C12 C 0.20544 0.074 0.03513 0.0
C13 C 0.24435 0.07536 0.96881 0.0
C14 C 0.96915 0.22569 0.01811 0.0
C15 C 0.09781 0.19609 1.01022 0.0
O16 O 0.02711 0.22555 0.0147 0.0
Zn17 Zn 0.03937 0.2113 0.01467 0.0
O18 O 0.94029 0.2176 0.02027 0.0
Zn19 Zn 0.95705 0.20236 0.01992 0.0
O20 O 0.94115 0.19842 0.04574 0.0
O21 O 0.02688 0.20706 0.04246 0.0
O22 O 0.04053 0.19465 0.01396 0.0
O23 O 0.11925 0.20478 1.0096 0.0
O24 O 0.98936 0.20685 0.99092 0.0
O25 O 0.90757 0.19804 0.99848 0.0
C26 C 0.98967 0.20223 0.05274 0.0
C27 C 0.94195 0.20186 0.98608 0.0
C28 C 0.23702 0.20236 0.23765 0.0
C29 C 0.28516 0.20105 0.30316 0.0
O30 O 0.29245 0.19915 0.24017 0.0
Zn31 Zn 0.35258 0.19673 0.26397 0.0
O32 O 0.20579 0.20523 0.25148 0.0
Zn33 Zn 0.26611 0.20247 0.27024 0.0
O34 O 0.33778 0.21348 0.26647 0.0
O35 O 0.42256 0.20518 0.26017 0.0
O36 O 0.23857 0.20473 0.29501 0.0
O37 O 0.331 0.19785 0.2935 0.0
O38 O 0.36971 0.18304 0.26176 0.0
O39 O 0.27285 0.18643 0.26932 0.0
C40 C 0.39601 0.21334 0.26268 0.0
C41 C 0.31563 0.1801 0.26588 0.0
C42 C 0.09478 0.0826 0.2675 0.0
C43 C 0.9645 0.05336 0.25959 0.0
O44 O 0.11458 0.07383 0.2686 0.0
Zn45 Zn 0.03467 0.06758 0.263 0.0
O46 O 0.03814 0.08425 0.26321 0.0
Zn47 Zn 0.95462 0.07677 0.25684 0.0
O48 O 0.90359 0.08155 0.27762 0.0
O49 O 0.98128 0.07203 0.28624 0.0
O50 O 0.93617 0.06149 0.25693 0.0
O51 O 0.02219 0.05341 0.26336 0.0
O52 O 0.02461 0.07136 0.23478 0.0
O53 O 0.9409 0.08042 0.23077 0.0
C54 C 0.93402 0.07727 0.29039 0.0
C55 C 0.98865 0.0762 0.22407 0.0
C56 C 0.81607 0.95946 0.0536 0.0
C57 C 0.87588 0.96163 0.98838 0.0
O58 O 0.86576 0.96294 0.04686 0.0
Zn59 Zn 0.84367 0.96151 0.02094 0.0
O60 O 0.77273 0.95671 0.04262 0.0
Zn61 Zn 0.75722 0.95577 0.01318 0.0
O62 O 0.74269 0.94197 1.01045 0.0
O63 O 0.83866 0.94568 0.01838 0.0
O64 O 0.82038 0.95843 0.99051 0.0
O65 O 0.90607 0.9645 1.00244 0.0
O66 O 0.77161 0.97247 0.01686 0.0
O67 O 0.688 0.96431 1.00878 0.0
C68 C 0.79755 0.93924 0.01432 0.0
C69 C 0.71403 0.97242 1.01225 0.0
C70 C 0.90978 0.81486 0.98338 0.0
C71 C 0.96671 0.81674 0.04867 0.0
O72 O 0.88109 0.81149 0.99732 0.0
Zn73 Zn 0.94161 0.81496 0.01592 0.0
O74 O 0.96376 0.81863 0.98564 0.0
Zn75 Zn 0.02532 0.82161 1.00861 0.0
O76 O 0.09815 0.81391 1.00392 0.0
O77 O 0.01839 0.80481 1.01181 0.0
O78 O 0.00943 0.8201 0.03807 0.0
O79 O 0.91886 0.81289 0.04149 0.0
O80 O 0.94031 0.83089 0.01425 0.0
O81 O 0.03499 0.83549 1.00661 0.0
C82 C 0.07585 0.80553 1.00726 0.0
C83 C 0.97933 0.83772 1.01058 0.0
C84 C 0.65675 0.82619 0.80059 0.0
C85 C 0.6006 0.82747 0.73439 0.0
O86 O 0.69549 0.82228 0.7894 0.0
Zn87 Zn 0.70783 0.81923 0.76104 0.0
O88 O 0.60605 0.82971 0.79441 0.0
Zn89 Zn 0.62152 0.82693 0.76796 0.0
O90 O 0.61441 0.81147 0.7671 0.0
O91 O 0.70487 0.80487 0.76008 0.0
O92 O 0.56745 0.83108 0.74733 0.0
O93 O 0.65115 0.82303 0.7383 0.0
O94 O 0.78214 0.82712 0.75575 0.0
O95 O 0.69884 0.83593 0.76216 0.0
C96 C 0.64765 0.80386 0.76408 0.0
C97 C 0.7561 0.83545 0.75761 0.0
C98 C 0.09792 0.96587 0.76631 0.0
C99 C 0.01079 0.93251 0.76334 0.0
O100 O 0.13576 0.9589 0.76992 0.0
Zn101 Zn 0.13944 0.94345 0.77177 0.0
O102 O 0.04187 0.9639 0.7621 0.0
Zn103 Zn 0.0485 0.94959 0.76439 0.0
O104 O 0.06463 0.94779 0.79309 0.0
O105 O 0.15824 0.94182 0.79833 0.0
O106 O 0.98014 0.94031 0.76005 0.0
O107 O 0.06807 0.93312 0.76776 0.0
O108 O 0.19538 0.93989 0.75108 0.0
O109 O 0.10696 0.94644 0.74183 0.0
C110 C 0.10627 0.9449 0.80447 0.0
C111 C 0.16011 0.94281 0.73805 0.0
C112 C 0.26974 0.57981 0.5466 0.0
C113 C 0.35881 0.58278 0.48423 0.0
O114 O 0.32135 0.58384 0.5427 0.0
Zn115 Zn 0.32092 0.58114 0.51611 0.0
O116 O 0.23919 0.57543 0.53387 0.0
Zn117 Zn 0.24496 0.57245 0.505 0.0
O118 O 0.25718 0.55822 0.50371 0.0
O119 O 0.33913 0.56586 0.51473 0.0
O120 O 0.31032 0.57745 0.48536 0.0
O121 O 0.38162 0.58667 0.49871 0.0
O122 O 0.24134 0.58908 0.50782 0.0
O123 O 0.17038 0.57928 0.49581 0.0
C124 C 0.31252 0.5579 0.50985 0.0
C125 C 0.18829 0.58784 0.50033 0.0
C126 C 0.03698 0.68757 0.50082 0.0
C127 C 0.91022 0.71707 0.5118 0.0
O128 O 0.05433 0.69625 0.49705 0.0
Zn129 Zn 0.97869 0.7027 0.50628 0.0
O130 O 0.98365 0.68604 0.50796 0.0
Zn131 Zn 0.90278 0.6937 0.51644 0.0
O132 O 0.84384 0.68832 0.49818 0.0
O133 O 0.91543 0.69789 0.48597 0.0
O134 O 0.88348 0.70902 0.51606 0.0
O135 O 0.96581 0.71688 0.50585 0.0
O136 O 0.98362 0.69914 0.53486 0.0
O137 O 0.90183 0.69044 0.54293 0.0
C138 C 0.86756 0.69248 0.48409 0.0
C139 C 0.95318 0.69445 0.54721 0.0
C140 C 0.36765 0.68811 0.78436 0.0
C141 C 0.265 0.69168 0.72385 0.0
O142 O 0.38979 0.68492 0.76917 0.0
Zn143 Zn 0.32302 0.69008 0.75327 0.0
O144 O 0.31663 0.69287 0.78452 0.0
Zn145 Zn 0.24595 0.69773 0.7665 0.0
O146 O 0.17647 0.69003 0.77636 0.0
O147 O 0.24857 0.68119 0.76227 0.0
O148 O 0.23552 0.69542 0.73753 0.0
O149 O 0.31884 0.68807 0.72643 0.0
O150 O 0.33512 0.70542 0.7558 0.0
O151 O 0.25286 0.71198 0.76904 0.0
C152 C 0.19677 0.68177 0.7708 0.0
C153 C 0.30661 0.71297 0.76196 0.0
C154 C 0.08996 0.58138 0.77098 0.0
C155 C 0.95035 0.55314 0.76366 0.0
O156 O 0.10643 0.57254 0.77387 0.0
Zn157 Zn 0.02559 0.56688 0.7673 0.0
O158 O 0.03478 0.58338 0.7657 0.0
Zn159 Zn 0.94869 0.57645 0.75952 0.0
O160 O 0.89792 0.58215 0.77966 0.0
O161 O 0.97463 0.5728 0.78952 0.0
O162 O 0.9251 0.56142 0.76018 0.0
O163 O 0.00731 0.55285 0.76823 0.0
O164 O 0.02251 0.57071 0.73892 0.0
O165 O 0.94079 0.57999 0.73321 0.0
C166 C 0.92933 0.57856 0.79297 0.0
C167 C 0.98998 0.57574 0.72757 0.0
C168 C 0.7255 0.44665 0.48174 0.0
C169 C 0.65487 0.44613 0.54674 0.0
O170 O 0.75825 0.45166 0.49305 0.0
Zn171 Zn 0.75975 0.45595 0.52121 0.0
O172 O 0.67527 0.44274 0.48733 0.0
Zn173 Zn 0.68163 0.44668 0.51352 0.0
O174 O 0.66201 0.46194 0.51294 0.0
O175 O 0.74605 0.47012 0.52067 0.0
O176 O 0.62718 0.44181 0.53348 0.0
O177 O 0.70221 0.45146 0.54333 0.0
O178 O 0.83812 0.44978 0.52893 0.0
O179 O 0.76428 0.43929 0.52128 0.0
C180 C 0.68922 0.47012 0.51589 0.0
C181 C 0.8194 0.44101 0.52687 0.0
C182 C 0.12307 0.33326 0.53812 0.0
C183 C 0.04326 0.33071 0.47433 0.0
O184 O 0.07199 0.32866 0.53624 0.0
Zn185 Zn 0.00767 0.3244 0.5159 0.0
O186 O 0.15063 0.3367 0.52396 0.0
Zn187 Zn 0.09014 0.3319 0.50551 0.0
O188 O 0.01375 0.34098 0.51204 0.0
O189 O 0.93594 0.33242 0.52362 0.0
O190 O 0.0961 0.33418 0.47874 0.0
O191 O 0.00869 0.32696 0.48686 0.0
O192 O 0.0118 0.3101 0.51795 0.0
O193 O 0.09891 0.31644 0.50742 0.0
C194 C 0.95901 0.34061 0.51878 0.0
C195 C 0.06729 0.30894 0.51226 0.0
C196 C 0.85382 0.335 0.2461 0.0
C197 C 0.74221 0.30392 0.25524 0.0
O198 O 0.79957 0.33574 0.25306 0.0
Zn199 Zn 0.72287 0.32706 0.26096 0.0
O200 O 0.87607 0.32662 0.24204 0.0
Zn201 Zn 0.80357 0.31911 0.25064 0.0
O202 O 0.73832 0.3234 0.23033 0.0
O203 O 0.66175 0.33188 0.24285 0.0
O204 O 0.79787 0.30479 0.24957 0.0
O205 O 0.7116 0.31161 0.25972 0.0
O206 O 0.71935 0.32992 0.28758 0.0
O207 O 0.80539 0.32229 0.27943 0.0
C208 C 0.68777 0.32822 0.2286 0.0
C209 C 0.77225 0.32643 0.29189 0.0
C210 C 0.01634 0.44472 0.30211 0.0
C211 C 0.11569 0.44205 0.24086 0.0
O212 O 0.9867 0.44884 0.28887 0.0
Zn213 Zn 0.99625 0.45172 0.26004 0.0
O214 O 0.06947 0.44097 0.29896 0.0
Zn215 Zn 0.07278 0.44354 0.27228 0.0
O216 O 0.08708 0.45891 0.2708 0.0
O217 O 0.00495 0.46598 0.25847 0.0
O218 O 0.13777 0.43838 0.25566 0.0
O219 O 0.06558 0.44704 0.24136 0.0
O220 O 0.92553 0.44443 0.24976 0.0
O221 O 0.99689 0.43508 0.2629 0.0
C222 C 0.05919 0.46667 0.26532 0.0
C223 C 0.94496 0.43599 0.25456 0.0
C224 C 0.77679 0.07826 0.54531 0.0
C225 C 0.88484 0.08039 0.48534 0.0
O226 O 0.82943 0.08222 0.54257 0.0
Zn227 Zn 0.83767 0.07911 0.5161 0.0
O228 O 0.75006 0.07379 0.53197 0.0
Zn229 Zn 0.76381 0.07057 0.50358 0.0
O230 O 0.77495 0.05629 0.50283 0.0
O231 O 0.85476 0.06377 0.51551 0.0
O232 O 0.83521 0.07528 0.48527 0.0
O233 O 0.90445 0.08417 0.50034 0.0
O234 O 0.76394 0.08728 0.50435 0.0
O235 O 0.69219 0.07752 0.49273 0.0
C236 C 0.82861 0.05585 0.51016 0.0
C237 C 0.71245 0.08612 0.49589 0.0
C238 C 0.47899 0.18319 0.5076 0.0
C239 C 0.3916 0.21629 0.51731 0.0
O240 O 0.50484 0.19112 0.5024 0.0
Zn241 Zn 0.44209 0.20008 0.51273 0.0
O242 O 0.42833 0.1836 0.51681 0.0
Zn243 Zn 0.36308 0.19389 0.52732 0.0
O244 O 0.28945 0.18999 0.51314 0.0
O245 O 0.36526 0.1961 0.49603 0.0
O246 O 0.36016 0.20928 0.52431 0.0
O247 O 0.44304 0.21439 0.50938 0.0
O248 O 0.45593 0.19804 0.54159 0.0
O249 O 0.37065 0.19208 0.55407 0.0
C250 C 0.31101 0.19241 0.49739 0.0
C251 C 0.42646 0.19496 0.55581 0.0
C252 C 0.75478 0.19949 0.72969 0.0
C253 C 0.84862 0.19656 0.79145 0.0
O254 O 0.80733 0.19562 0.7331 0.0
Zn255 Zn 0.81014 0.19857 0.75974 0.0
O256 O 0.72539 0.20386 0.74267 0.0
Zn257 Zn 0.73312 0.20695 0.77124 0.0
O258 O 0.7445 0.22121 0.77278 0.0
O259 O 0.82607 0.2138 0.76092 0.0
O260 O 0.79833 0.20152 0.79072 0.0
O261 O 0.87442 0.19359 0.7766 0.0
O262 O 0.73344 0.19032 0.7698 0.0
O263 O 0.65913 0.20007 0.78029 0.0
C264 C 0.79909 0.22168 0.76613 0.0
C265 C 0.68017 0.19148 0.77731 0.0
C266 C 0.40406 0.05915 0.75593 0.0
C267 C 0.47413 0.09323 0.76432 0.0
O268 O 0.45364 0.0617 0.7642 0.0
Zn269 Zn 0.44649 0.07592 0.76004 0.0
O270 O 0.36992 0.0657 0.74845 0.0
Zn271 Zn 0.36453 0.08094 0.74488 0.0
O272 O 0.37301 0.08251 0.71796 0.0
O273 O 0.46012 0.07771 0.73115 0.0
O274 O 0.42411 0.09205 0.75506 0.0
O275 O 0.50432 0.08575 0.7699 0.0
O276 O 0.3682 0.07941 0.77645 0.0
O277 O 0.28863 0.08395 0.75915 0.0
C278 C 0.43022 0.08025 0.71662 0.0
C279 C 0.31206 0.08233 0.77504 0.0
C280 C 0.25012 0.94562 0.48066 0.0
C281 C 0.15452 0.94279 0.54251 0.0
O282 O 0.27879 0.95002 0.49374 0.0
Zn283 Zn 0.26975 0.9531 0.52246 0.0
O284 O 0.19782 0.94164 0.48395 0.0
Zn285 Zn 0.19422 0.94446 0.51065 0.0
O286 O 0.17634 0.95975 0.51178 0.0
O287 O 0.25715 0.96734 0.52364 0.0
O288 O 0.13204 0.939 0.52788 0.0
O289 O 0.2032 0.94808 0.5416 0.0
O290 O 0.34294 0.94613 0.5324 0.0
O291 O 0.27225 0.93645 0.51989 0.0
C292 C 0.20257 0.9677 0.51693 0.0
C293 C 0.32454 0.93759 0.52788 0.0
C294 C 0.497 0.8274 0.47961 0.0
C295 C 0.59837 0.83126 0.54022 0.0
O296 O 0.46852 0.8234 0.49319 0.0
Zn297 Zn 0.47966 0.82095 0.52211 0.0
O298 O 0.54992 0.83129 0.4823 0.0
Zn299 Zn 0.55474 0.82908 0.50906 0.0
O300 O 0.57088 0.81377 0.51124 0.0
O301 O 0.49022 0.8067 0.52428 0.0
O302 O 0.61957 0.83465 0.52508 0.0
O303 O 0.54888 0.82614 0.54027 0.0
O304 O 0.40845 0.8283 0.53222 0.0
O305 O 0.47842 0.83755 0.51828 0.0
C306 C 0.54417 0.80603 0.51719 0.0
C307 C 0.42692 0.83669 0.52687 0.0
C308 C 0.18017 0.82703 0.30354 0.0
C309 C 0.08031 0.82782 0.24221 0.0
O310 O 0.21251 0.82339 0.29037 0.0
Zn311 Zn 0.20611 0.82039 0.26167 0.0
O312 O 0.12509 0.82995 0.30029 0.0
Zn313 Zn 0.12379 0.82718 0.27359 0.0
O314 O 0.121 0.81176 0.27257 0.0
O315 O 0.20659 0.80599 0.25999 0.0
O316 O 0.05376 0.83044 0.25717 0.0
O317 O 0.13493 0.82415 0.24265 0.0
O318 O 0.2731 0.82874 0.25234 0.0
O319 O 0.1927 0.83698 0.26331 0.0
C320 C 0.15345 0.80447 0.26712 0.0
C321 C 0.24624 0.83688 0.25561 0.0
C322 C 0.59725 0.96556 0.26811 0.0
C323 C 0.50685 0.93298 0.25668 0.0
O324 O 0.6296 0.95832 0.27383 0.0
Zn325 Zn 0.62779 0.94291 0.27507 0.0
O326 O 0.54453 0.96397 0.26076 0.0
Zn327 Zn 0.54587 0.94958 0.26265 0.0
O328 O 0.5379 0.94673 0.2914 0.0
O329 O 0.62506 0.94034 0.30186 0.0
O330 O 0.48035 0.9411 0.25299 0.0
O331 O 0.55987 0.93297 0.26468 0.0
O332 O 0.69933 0.93985 0.25895 0.0
O333 O 0.61866 0.94601 0.24408 0.0
C334 C 0.56968 0.94322 0.3048 0.0
C335 C 0.67367 0.94249 0.24387 0.0
C336 C 0.84717 0.58393 0.98718 0.0
C337 C 0.76974 0.5796 0.05066 0.0
O338 O 0.87659 0.58668 1.00155 0.0
Zn339 Zn 0.8177 0.58116 0.0197 0.0
O340 O 0.79801 0.5788 0.98885 0.0
Zn341 Zn 0.73856 0.57289 1.00907 0.0
O342 O 0.66299 0.57995 1.00153 0.0
O343 O 0.73717 0.58941 1.01289 0.0
O344 O 0.73722 0.57551 0.03804 0.0
O345 O 0.82159 0.58349 0.04647 0.0
O346 O 0.83401 0.566 0.01736 0.0
O347 O 0.75091 0.55866 1.0065 0.0
C348 C 0.68274 0.5884 1.00615 0.0
C349 C 0.80665 0.55816 1.01224 0.0
C350 C 0.46345 0.71903 1.00699 0.0
C351 C 0.58598 0.68901 0.99753 0.0
O352 O 0.52 0.71865 1.00194 0.0
Zn353 Zn 0.53018 0.7044 1.00248 0.0
O354 O 0.43489 0.71107 1.0108 0.0
Zn355 Zn 0.451 0.69572 1.01148 0.0
O356 O 0.44527 0.69248 0.03794 0.0
O357 O 0.52986 0.70078 0.03106 0.0
O358 O 0.53126 0.68772 1.00383 0.0
O359 O 0.60597 0.69762 0.99434 0.0
O360 O 0.46895 0.69991 0.98124 0.0
O361 O 0.39355 0.69075 0.99245 0.0
C362 C 0.4966 0.69625 0.04295 0.0
C363 C 0.42017 0.69478 0.97869 0.0
C364 C 0.84518 0.69028 0.28953 0.0
C365 C 0.76091 0.69312 0.22641 0.0
O366 O 0.86916 0.68637 0.27522 0.0
Zn367 Zn 0.80939 0.69181 0.25733 0.0
O368 O 0.79654 0.69558 0.28802 0.0
Zn369 Zn 0.7325 0.70046 0.26788 0.0
O370 O 0.65772 0.69372 0.27675 0.0
O371 O 0.72939 0.68384 0.26519 0.0
O372 O 0.72905 0.69749 0.23891 0.0
O373 O 0.81217 0.68907 0.23075 0.0
O374 O 0.82672 0.70713 0.25865 0.0
O375 O 0.74355 0.71464 0.26936 0.0
C376 C 0.67591 0.68515 0.27241 0.0
C377 C 0.79912 0.71504 0.26343 0.0
C378 C 0.54743 0.58515 0.27586 0.0
C379 C 0.42536 0.55524 0.26538 0.0
O380 O 0.56555 0.57658 0.28027 0.0
Zn381 Zn 0.49183 0.56981 0.27058 0.0
O382 O 0.49484 0.58641 0.26807 0.0
Zn383 Zn 0.41611 0.57847 0.25909 0.0
O384 O 0.35434 0.58403 0.27629 0.0
O385 O 0.42547 0.57484 0.28985 0.0
O386 O 0.39841 0.56316 0.26032 0.0
O387 O 0.48025 0.55563 0.27182 0.0
O388 O 0.49972 0.57291 0.24187 0.0
O389 O 0.41802 0.5813 0.2325 0.0
C390 C 0.37679 0.58016 0.29085 0.0
C391 C 0.47023 0.57733 0.22897 0.0
C392 C 0.14875 0.44636 0.04607 0.0
C393 C 0.22614 0.44767 0.98192 0.0
O394 O 0.19579 0.45187 0.04344 0.0
Zn395 Zn 0.2559 0.45659 0.02207 0.0
O396 O 0.12378 0.44198 0.03241 0.0
Zn397 Zn 0.17989 0.44721 0.01331 0.0
O398 O 0.26249 0.43997 0.02147 0.0
O399 O 0.33381 0.45058 0.03055 0.0
O400 O 0.17595 0.44356 0.98702 0.0
O401 O 0.25762 0.45261 0.99365 0.0
O402 O 0.24124 0.47072 0.02188 0.0
O403 O 0.15876 0.46243 1.01311 0.0
C404 C 0.3166 0.44178 0.02778 0.0
C405 C 0.18492 0.47064 0.01659 0.0
C406 C 0.63127 0.33683 0.03472 0.0
C407 C 0.53702 0.33334 0.97301 0.0
O408 O 0.58185 0.3317 0.03412 0.0
Zn409 Zn 0.5147 0.32661 0.01516 0.0
O410 O 0.65387 0.34042 0.01994 0.0
Zn411 Zn 0.59071 0.33497 1.00314 0.0
O412 O 0.51246 0.3432 1.01165 0.0
O413 O 0.44183 0.3337 0.02468 0.0
O414 O 0.58935 0.33727 0.97639 0.0
O415 O 0.50691 0.32923 0.98616 0.0
O416 O 0.52599 0.31239 0.01723 0.0
O417 O 0.60756 0.31972 1.00523 0.0
C418 C 0.45996 0.34216 0.01962 0.0
C419 C 0.58092 0.31189 1.01078 0.0
C420 C 0.23232 0.33111 0.7951 0.0
C421 C 0.14091 0.3332 0.73276 0.0
O422 O 0.26068 0.32616 0.78265 0.0
Zn423 Zn 0.25193 0.3224 0.75421 0.0
O424 O 0.18153 0.33539 0.7911 0.0
Zn425 Zn 0.17927 0.33194 0.76472 0.0
O426 O 0.15625 0.31677 0.76475 0.0
O427 O 0.23601 0.30834 0.7542 0.0
O428 O 0.11968 0.33756 0.74701 0.0
O429 O 0.18765 0.32749 0.73423 0.0
O430 O 0.32803 0.32819 0.74412 0.0
O431 O 0.26052 0.339 0.75497 0.0
C432 C 0.18084 0.30853 0.76047 0.0
C433 C 0.31267 0.33703 0.74743 0.0
C434 C 0.44252 0.43643 0.7554 0.0
C435 C 0.56437 0.46664 0.76327 0.0
O436 O 0.49446 0.43547 0.76373 0.0
Zn437 Zn 0.57235 0.44371 0.77228 0.0
O438 O 0.42479 0.44483 0.74982 0.0
Zn439 Zn 0.4975 0.45195 0.75939 0.0
O440 O 0.56493 0.44623 0.74096 0.0
O441 O 0.63577 0.43776 0.75626 0.0
O442 O 0.5098 0.46613 0.7566 0.0
O443 O 0.59034 0.45886 0.76936 0.0
O444 O 0.56936 0.44177 0.79906 0.0
O445 O 0.48764 0.44976 0.78854 0.0
C446 C 0.61393 0.44096 0.74105 0.0
C447 C 0.51695 0.4458 0.80202 0.0
C448 C 0.11623 0.07337 0.05748 0.0
C449 C 0.18051 0.07403 0.05429 0.0
C450 C 0.09234 0.07377 0.07547 0.0
C451 C 0.13417 0.06919 0.12378 0.0
H452 H 0.99732 0.08647 0.13604 0.0
C453 C 0.06857 0.07595 0.1993 0.0
C454 C 0.00587 0.07696 0.20426 0.0
C455 C 0.08665 0.07588 0.18081 0.0
C456 C 0.0349 0.08149 0.13283 0.0
H457 H 0.27001 0.07555 0.06761 0.0
H458 H 0.22836 0.07603 0.09904 0.0
H459 H 0.03495 0.08557 0.10416 0.0
H460 H 0.91292 0.07896 0.19362 0.0
H461 H 0.94428 0.07854 0.16097 0.0
H462 H 0.13373 0.06488 0.15211 0.0
C463 C 0.19648 0.07525 0.08756 0.0
C464 C 0.05661 0.08101 0.11456 0.0
C465 C 0.22033 0.075 0.06956 0.0
C466 C 0.96159 0.07818 0.19021 0.0
C467 C 0.97971 0.07796 0.17151 0.0
C468 C 0.11207 0.06957 0.14192 0.0
C469 C 0.1322 0.07468 0.09073 0.0
C470 C 0.10711 0.07495 0.1099 0.0
C471 C 0.04253 0.07663 0.16658 0.0
C472 C 0.06285 0.07585 0.14683 0.0
H473 H 0.08417 0.07267 0.04604 0.0
H474 H 0.04267 0.07324 0.07747 0.0
H475 H 0.17232 0.0643 0.12056 0.0
H476 H 0.10409 0.07517 0.20979 0.0
H477 H 0.1356 0.07519 0.17771 0.0
C478 C 0.14453 0.204 0.21679 0.0
C479 C 0.20859 0.20235 0.21896 0.0
C480 C 0.11711 0.20371 0.19926 0.0
C481 C 0.15345 0.20667 0.15007 0.0
H482 H 1.00161 0.19222 0.14122 0.0
C483 C 0.07119 0.19991 0.0764 0.0
C484 C 0.00778 0.20073 0.07226 0.0
C485 C 0.09166 0.19966 0.09463 0.0
C486 C 0.04353 0.1964 0.1435 0.0
H487 H 0.294 0.19913 0.20434 0.0
H488 H 0.24629 0.19876 0.17372 0.0
H489 H 0.04554 0.19288 0.17242 0.0
H490 H 0.91559 0.20152 0.084 0.0
H491 H 0.95161 0.20132 0.11629 0.0
H492 H 0.15145 0.21038 0.12144 0.0
C493 C 0.21731 0.20028 0.18562 0.0
C494 C 0.06878 0.19675 0.16136 0.0
C495 C 0.24463 0.20046 0.20317 0.0
C496 C 0.96474 0.20087 0.08683 0.0
C497 C 0.98547 0.20076 0.10528 0.0
C498 C 0.12804 0.20641 0.13233 0.0
C499 C 0.15322 0.20188 0.18347 0.0
C500 C 0.12456 0.20177 0.16476 0.0
C501 C 0.04946 0.2004 0.10936 0.0
C502 C 0.07338 0.20112 0.12869 0.0
H503 H 0.11529 0.20544 0.22866 0.0
H504 H 0.06776 0.20505 0.19804 0.0
H505 H 0.19568 0.21078 0.15231 0.0
H506 H 0.10543 0.19961 0.06544 0.0
H507 H 0.14101 0.19902 0.09715 0.0
C508 C 0.02918 0.9455 0.82997 0.0
C509 C 0.09174 0.9455 0.8245 0.0
C510 C 0.01245 0.94743 0.84821 0.0
C511 C 0.06729 0.94891 0.89648 0.0
H512 H 0.92292 0.96571 0.90139 0.0
C513 C 0.97011 0.96213 0.96772 0.0
C514 C 0.90547 0.9612 0.96983 0.0
C515 C 0.99806 0.96082 0.95036 0.0
C516 C 0.96311 0.96098 0.9003 0.0
H517 H 0.18618 0.94708 0.8342 0.0
H518 H 0.15669 0.95056 0.86644 0.0
H519 H 0.96331 0.96192 0.87084 0.0
H520 H 0.81961 0.95835 0.9552 0.0
H521 H 0.86799 0.95619 0.92509 0.0
H522 H 0.06641 0.94797 0.92613 0.0
C523 C 0.12067 0.94902 0.85644 0.0
C524 C 0.98628 0.95878 0.88275 0.0
C525 C 0.13761 0.94701 0.83801 0.0
C526 C 0.86944 0.95916 0.95411 0.0
C527 C 0.89722 0.95795 0.9368 0.0
C528 C 0.04409 0.95115 0.91414 0.0
C529 C 0.05765 0.94952 0.8616 0.0
C530 C 0.0377 0.95252 0.88055 0.0
C531 C 0.96191 0.95868 0.9347 0.0
C532 C 0.99082 0.95704 0.91621 0.0
H533 H 0.99263 0.9442 0.82 0.0
H534 H 0.96363 0.94744 0.85175 0.0
H535 H 0.10689 0.94407 0.89529 0.0
H536 H 0.99931 0.96364 0.97955 0.0
H537 H 0.04794 0.9615 0.94919 0.0
C538 C 0.63089 0.82502 0.83465 0.0
C539 C 0.67407 0.82654 0.82039 0.0
C540 C 0.65129 0.82374 0.85298 0.0
C541 C 0.79396 0.81627 0.87822 0.0
H542 H 0.71133 0.82639 0.92181 0.0
C543 C 0.91408 0.81778 0.94918 0.0
C544 C 0.87973 0.81513 0.9649 0.0
C545 C 0.88526 0.8187 0.93195 0.0
C546 C 0.73452 0.82343 0.90976 0.0
H547 H 0.7715 0.82869 0.81428 0.0
H548 H 0.80646 0.82684 0.84591 0.0
H549 H 0.66657 0.82939 0.89118 0.0
H550 H 0.78786 0.81132 0.97477 0.0
H551 H 0.73748 0.81297 0.94461 0.0
H552 H 0.86237 0.81047 0.89663 0.0
C553 C 0.7573 0.82622 0.84308 0.0
C554 C 0.70885 0.82514 0.89221 0.0
C555 C 0.73716 0.82737 0.82493 0.0
C556 C 0.81581 0.81333 0.96292 0.0
C557 C 0.78679 0.81435 0.94568 0.0
C558 C 0.81967 0.81462 0.89566 0.0
C559 C 0.71509 0.82404 0.85729 0.0
C560 C 0.73895 0.82174 0.87619 0.0
C561 C 0.82119 0.81707 0.93 0.0
C562 C 0.79089 0.8183 0.91163 0.0
H563 H 0.58201 0.8243 0.83151 0.0
H564 H 0.61746 0.82211 0.86359 0.0
H565 H 0.81757 0.81328 0.86628 0.0
H566 H 0.9633 0.81926 0.95019 0.0
H567 H 0.91302 0.8209 0.92019 0.0
C568 C 0.17764 0.57924 0.56748 0.0
C569 C 0.24206 0.58046 0.56534 0.0
C570 C 0.15015 0.57964 0.58493 0.0
C571 C 0.18219 0.57507 0.63341 0.0
H572 H 0.03219 0.59001 0.64272 0.0
C573 C 0.07998 0.57713 0.70638 0.0
C574 C 0.0153 0.57729 0.70875 0.0
C575 C 0.1064 0.57821 0.68893 0.0
C576 C 0.0735 0.58568 0.64032 0.0
H577 H 0.32803 0.58318 0.57991 0.0
H578 H 0.2799 0.58362 0.6107 0.0
H579 H 0.08187 0.59078 0.61237 0.0
H580 H 0.92743 0.57895 0.69467 0.0
H581 H 0.97358 0.58044 0.66374 0.0
H582 H 0.17309 0.56961 0.66088 0.0
C583 C 0.25086 0.58242 0.59871 0.0
C584 C 0.10221 0.58619 0.62296 0.0
C585 C 0.27837 0.5822 0.58112 0.0
C586 C 0.97742 0.57877 0.69322 0.0
C587 C 0.00403 0.57967 0.67554 0.0
C588 C 0.15307 0.57444 0.65064 0.0
C589 C 0.18643 0.58113 0.60077 0.0
C590 C 0.15704 0.58092 0.61936 0.0
C591 C 0.06903 0.57927 0.67315 0.0
C592 C 0.09854 0.57979 0.65444 0.0
H593 H 0.14816 0.57798 0.55559 0.0
H594 H 0.10056 0.57854 0.58609 0.0
H595 H 0.22364 0.57078 0.63093 0.0
H596 H 0.11063 0.57624 0.71813 0.0
H597 H 0.15649 0.57821 0.68789 0.0
C598 C 0.94615 0.69121 0.5816 0.0
C599 C 0.9816 0.69327 0.56577 0.0
C600 C 0.9749 0.6904 0.59898 0.0
C601 C 0.1251 0.68514 0.62125 0.0
H602 H 0.06413 0.7009 0.66189 0.0
C603 C 0.26657 0.69003 0.68903 0.0
C604 C 0.23352 0.69121 0.70561 0.0
C605 C 0.23518 0.68985 0.67201 0.0
C606 C 0.08138 0.69629 0.65086 0.0
H607 H 0.07516 0.69575 0.55571 0.0
H608 H 0.12473 0.69415 0.58571 0.0
H609 H 0.0082 0.70081 0.63266 0.0
H610 H 0.14137 0.69269 0.71736 0.0
H611 H 0.08707 0.69199 0.68813 0.0
H612 H 0.19766 0.68046 0.63939 0.0
C613 C 0.07491 0.69326 0.58481 0.0
C614 C 0.04916 0.69627 0.63406 0.0
C615 C 0.04627 0.69425 0.56763 0.0
C616 C 0.16851 0.69195 0.70483 0.0
C617 C 0.13721 0.69161 0.68796 0.0
C618 C 0.15685 0.68503 0.63813 0.0
C619 C 0.03967 0.69139 0.60072 0.0
C620 C 0.07098 0.69078 0.61901 0.0
C621 C 0.16992 0.69068 0.67123 0.0
C622 C 0.13578 0.69066 0.65319 0.0
H623 H 0.89631 0.69041 0.58061 0.0
H624 H 0.94662 0.68893 0.61103 0.0
H625 H 0.1428 0.68078 0.6099 0.0
H626 H 0.31667 0.68945 0.68917 0.0
H627 H 0.26229 0.68924 0.65947 0.0
C628 C 0.01977 0.44209 0.3367 0.0
C629 C 0.98597 0.444 0.32051 0.0
C630 C 0.98961 0.44164 0.35391 0.0
C631 C 0.83984 0.44863 0.37695 0.0
H632 H 0.89999 0.43156 0.41576 0.0
C633 C 0.71187 0.44352 0.44747 0.0
C634 C 0.75042 0.44501 0.46286 0.0
C635 C 0.73769 0.4426 0.42968 0.0
C636 C 0.8826 0.43635 0.40502 0.0
H637 H 0.89357 0.44657 0.30965 0.0
H638 H 0.84126 0.44544 0.33918 0.0
H639 H 0.95158 0.43157 0.38574 0.0
H640 H 0.84618 0.44627 0.47178 0.0
H641 H 0.89064 0.44447 0.4411 0.0
H642 H 0.77035 0.45329 0.39631 0.0
C643 C 0.89121 0.44465 0.33892 0.0
C644 C 0.91253 0.43643 0.38783 0.0
C645 C 0.92135 0.44524 0.32187 0.0
C646 C 0.81506 0.44523 0.4602 0.0
C647 C 0.84071 0.44412 0.44261 0.0
C648 C 0.80941 0.44844 0.39406 0.0
C649 C 0.92477 0.44295 0.35527 0.0
C650 C 0.89205 0.44265 0.37356 0.0
C651 C 0.80247 0.44291 0.42711 0.0
C652 C 0.83089 0.44239 0.40836 0.0
H653 H 0.06959 0.44111 0.33613 0.0
H654 H 0.01741 0.44044 0.36615 0.0
H655 H 0.82313 0.45368 0.36656 0.0
H656 H 0.66196 0.44333 0.44911 0.0
H657 H 0.70711 0.44165 0.41795 0.0
C658 C 0.86339 0.32668 0.3131 0.0
C659 C 0.79889 0.32755 0.31071 0.0
C660 C 0.89035 0.32767 0.33053 0.0
C661 C 0.85998 0.3366 0.37846 0.0
H662 H 0.00386 0.32058 0.3897 0.0
C663 C 0.95411 0.33079 0.45238 0.0
C664 C 0.01861 0.33131 0.4552 0.0
C665 C 0.92909 0.33108 0.4346 0.0
C666 C 0.96423 0.32519 0.38669 0.0
H667 H 0.71208 0.33025 0.32488 0.0
H668 H 0.75888 0.33164 0.35563 0.0
H669 H 0.95455 0.31925 0.35955 0.0
H670 H 0.10742 0.33264 0.44145 0.0
H671 H 0.06345 0.33292 0.41008 0.0
H672 H 0.86872 0.34223 0.40602 0.0
C673 C 0.78893 0.33039 0.34387 0.0
C674 C 0.93582 0.32446 0.36936 0.0
C675 C 0.76189 0.32953 0.32626 0.0
C676 C 0.05761 0.33222 0.43973 0.0
C677 C 0.03246 0.33234 0.42181 0.0
C678 C 0.88796 0.33723 0.3959 0.0
C679 C 0.85366 0.32942 0.34626 0.0
C680 C 0.88328 0.33016 0.36493 0.0
C681 C 0.96784 0.33177 0.41909 0.0
C682 C 0.94038 0.33153 0.40021 0.0
H683 H 0.89359 0.32533 0.3014 0.0
H684 H 0.94033 0.32716 0.33157 0.0
H685 H 0.82044 0.34124 0.37556 0.0
H686 H 0.92257 0.33016 0.46398 0.0
H687 H 0.87927 0.33053 0.43299 0.0
C688 C 0.67943 0.07724 0.56395 0.0
C689 C 0.74359 0.07911 0.56327 0.0
C690 C 0.64656 0.078 0.58052 0.0
C691 C 0.66352 0.07638 0.6306 0.0
H692 H 0.50483 0.08978 0.63183 0.0
C693 C 0.52952 0.08117 0.69894 0.0
C694 C 0.46434 0.08077 0.69878 0.0
C695 C 0.56332 0.08145 0.68248 0.0
C696 C 0.54855 0.08588 0.63172 0.0
H697 H 0.82345 0.08324 0.57963 0.0
H698 H 0.76585 0.08436 0.60891 0.0
H699 H 0.5653 0.0895 0.60331 0.0
H700 H 0.38353 0.08041 0.68106 0.0
H701 H 0.44262 0.08055 0.65214 0.0
H702 H 0.64632 0.07243 0.6587 0.0
C703 C 0.74121 0.08236 0.59643 0.0
C704 C 0.58345 0.08578 0.61538 0.0
C705 C 0.77414 0.08175 0.57969 0.0
C706 C 0.43367 0.08074 0.68166 0.0
C707 C 0.4677 0.08088 0.66508 0.0
C708 C 0.62832 0.07636 0.64688 0.0
C709 C 0.67695 0.08053 0.59698 0.0
C710 C 0.64133 0.08103 0.61462 0.0
C711 C 0.53317 0.08117 0.66526 0.0
C712 C 0.57028 0.08113 0.64773 0.0
H713 H 0.65415 0.07524 0.55158 0.0
H714 H 0.59733 0.07644 0.5805 0.0
H715 H 0.70743 0.07252 0.63039 0.0
H716 H 0.55481 0.08135 0.71187 0.0
H717 H 0.61333 0.08195 0.68334 0.0
C718 C 0.52443 0.19485 0.57425 0.0
C719 C 0.45917 0.19462 0.57385 0.0
C720 C 0.55651 0.19478 0.59102 0.0
C721 C 0.54132 0.2018 0.63933 0.0
H722 H 0.68301 0.1848 0.6474 0.0
C723 C 0.65941 0.1999 0.71029 0.0
C724 C 0.72396 0.19853 0.71142 0.0
C725 C 0.62839 0.19907 0.69347 0.0
C726 C 0.64422 0.18972 0.64531 0.0
H727 H 0.37649 0.19406 0.59083 0.0
H728 H 0.43284 0.19417 0.62032 0.0
H729 H 0.62531 0.18381 0.6184 0.0
H730 H 0.80653 0.19513 0.69563 0.0
H731 H 0.75251 0.19402 0.66587 0.0
H732 H 0.56092 0.20799 0.66577 0.0
C733 C 0.45893 0.19434 0.60753 0.0
C734 C 0.61087 0.18909 0.62872 0.0
C735 C 0.4267 0.19424 0.59068 0.0
C736 C 0.7568 0.19623 0.69521 0.0
C737 C 0.72565 0.19555 0.67819 0.0
C738 C 0.5751 0.20254 0.65577 0.0
C739 C 0.52421 0.19463 0.60785 0.0
C740 C 0.55882 0.19509 0.62562 0.0
C741 C 0.66091 0.19701 0.67709 0.0
C742 C 0.62675 0.19645 0.65911 0.0
H743 H 0.55099 0.19509 0.56155 0.0
H744 H 0.6067 0.19509 0.59081 0.0
H745 H 0.5022 0.20666 0.63718 0.0
H746 H 0.63228 0.2015 0.72254 0.0
H747 H 0.57849 0.19996 0.69343 0.0
C748 C 0.24901 0.94238 0.44614 0.0
C749 C 0.28138 0.94476 0.46238 0.0
C750 C 0.28038 0.94176 0.42912 0.0
C751 C 0.43062 0.94898 0.40661 0.0
H752 H 0.37972 0.93053 0.36893 0.0
C753 C 0.57418 0.94188 0.33967 0.0
C754 C 0.53962 0.94237 0.32323 0.0
C755 C 0.54396 0.94164 0.35689 0.0
C756 C 0.39444 0.93573 0.37933 0.0
H757 H 0.37259 0.94795 0.47352 0.0
H758 H 0.42686 0.94653 0.44441 0.0
H759 H 0.32339 0.93123 0.39818 0.0
H760 H 0.44627 0.94264 0.31201 0.0
H761 H 0.39421 0.94204 0.34181 0.0
H762 H 0.50233 0.95333 0.38779 0.0
C763 C 0.37708 0.94552 0.44443 0.0
C764 C 0.36182 0.93619 0.39609 0.0
C765 C 0.34578 0.94628 0.46126 0.0
C766 C 0.47444 0.94233 0.32439 0.0
C767 C 0.44443 0.94192 0.34148 0.0
C768 C 0.4637 0.94841 0.38998 0.0
C769 C 0.34499 0.94337 0.42802 0.0
C770 C 0.37927 0.94285 0.40999 0.0
C771 C 0.47868 0.94168 0.35796 0.0
C772 C 0.44583 0.94182 0.3761 0.0
H773 H 0.19942 0.94116 0.44653 0.0
H774 H 0.25373 0.94018 0.41681 0.0
H775 H 0.44491 0.95438 0.41669 0.0
H776 H 0.62438 0.94191 0.33925 0.0
H777 H 0.5716 0.94141 0.36938 0.0
C778 C 0.49749 0.82995 0.44496 0.0
C779 C 0.46532 0.82788 0.46138 0.0
C780 C 0.46593 0.83029 0.42798 0.0
C781 C 0.3157 0.82276 0.40599 0.0
H782 H 0.36693 0.84066 0.36741 0.0
C783 C 0.17415 0.82882 0.33831 0.0
C784 C 0.20941 0.82805 0.32203 0.0
C785 C 0.20365 0.82931 0.35561 0.0
C786 C 0.35212 0.83562 0.37808 0.0
H787 H 0.37433 0.82485 0.47286 0.0
H788 H 0.31964 0.82577 0.44373 0.0
H789 H 0.42274 0.84043 0.39675 0.0
H790 H 0.30323 0.82753 0.31114 0.0
H791 H 0.35401 0.82856 0.34107 0.0
H792 H 0.24441 0.8181 0.38731 0.0
C793 C 0.36941 0.82679 0.44364 0.0
C794 C 0.38444 0.83542 0.39487 0.0
C795 C 0.40093 0.82631 0.46046 0.0
C796 C 0.27453 0.82805 0.3234 0.0
C797 C 0.30381 0.82871 0.34056 0.0
C798 C 0.2829 0.82306 0.38931 0.0
C799 C 0.40132 0.82868 0.42707 0.0
C800 C 0.36696 0.82895 0.40908 0.0
C801 C 0.26886 0.82926 0.35689 0.0
C802 C 0.301 0.82944 0.3751 0.0
H803 H 0.54708 0.83119 0.4452 0.0
H804 H 0.49245 0.83165 0.41554 0.0
H805 H 0.30137 0.81752 0.41634 0.0
H806 H 0.12397 0.82884 0.33771 0.0
H807 H 0.17552 0.82977 0.36799 0.0
C808 C 0.78016 0.58153 0.0853 0.0
C809 C 0.74304 0.58033 0.06951 0.0
C810 C 0.75287 0.58189 0.10293 0.0
C811 C 0.60605 0.58731 0.12696 0.0
H812 H 0.664 0.56931 0.16452 0.0
C813 C 0.46683 0.58039 0.19451 0.0
C814 C 0.50053 0.57828 0.21063 0.0
C815 C 0.49726 0.58109 0.17738 0.0
C816 C 0.6477 0.57453 0.15438 0.0
H817 H 0.64818 0.57893 0.05979 0.0
H818 H 0.60118 0.57974 0.09028 0.0
H819 H 0.71837 0.57029 0.13508 0.0
H820 H 0.59288 0.57569 0.22152 0.0
H821 H 0.64557 0.57728 0.19217 0.0
H822 H 0.53597 0.59169 0.14622 0.0
C823 C 0.65114 0.58031 0.08914 0.0
C824 C 0.67901 0.57506 0.13747 0.0
C825 C 0.67828 0.57976 0.07167 0.0
C826 C 0.56521 0.57713 0.20933 0.0
C827 C 0.59557 0.57799 0.19238 0.0
C828 C 0.57523 0.58689 0.14398 0.0
C829 C 0.688 0.5813 0.10498 0.0
C830 C 0.65816 0.58138 0.12351 0.0
C831 C 0.56216 0.57986 0.17608 0.0
C832 C 0.59527 0.58044 0.15792 0.0
H833 H 0.83012 0.582 0.08405 0.0
H834 H 0.78235 0.58268 0.11496 0.0
H835 H 0.58915 0.59229 0.11646 0.0
H836 H 0.41697 0.58131 0.19507 0.0
H837 H 0.46966 0.58243 0.16515 0.0
C838 C 0.67133 0.69387 0.20456 0.0
C839 C 0.73538 0.69253 0.20738 0.0
C840 C 0.64592 0.69349 0.18682 0.0
C841 C 0.68324 0.69772 0.13847 0.0
H842 H 0.53439 0.68278 0.12825 0.0
C843 C 0.5861 0.69537 0.06464 0.0
C844 C 0.52159 0.695 0.06193 0.0
C845 C 0.61162 0.69448 0.08227 0.0
C846 C 0.57538 0.68712 0.13087 0.0
H847 H 0.82291 0.68968 0.19369 0.0
H848 H 0.77847 0.68927 0.16242 0.0
H849 H 0.58088 0.68222 0.15901 0.0
H850 H 0.43319 0.69325 0.07568 0.0
H851 H 0.47752 0.69209 0.10681 0.0
H852 H 0.67691 0.703 0.11078 0.0
C853 C 0.74806 0.69054 0.1741 0.0
C854 C 0.60229 0.68673 0.1485 0.0
C855 C 0.77347 0.69074 0.19197 0.0
C856 C 0.48306 0.69356 0.07734 0.0
C857 C 0.50868 0.69285 0.09517 0.0
C858 C 0.65587 0.69825 0.12096 0.0
C859 C 0.68395 0.69191 0.17136 0.0
C860 C 0.65663 0.692 0.15246 0.0
C861 C 0.57346 0.69338 0.0979 0.0
C862 C 0.60167 0.69292 0.11682 0.0
H863 H 0.6405 0.69519 0.21613 0.0
H864 H 0.59652 0.69465 0.18515 0.0
H865 H 0.72444 0.70201 0.1412 0.0
H866 H 0.6173 0.69627 0.05302 0.0
H867 H 0.66162 0.69461 0.08356 0.0
C868 C 0.52101 0.44364 0.83669 0.0
C869 C 0.48697 0.4455 0.82052 0.0
C870 C 0.49128 0.44339 0.85396 0.0
C871 C 0.34199 0.45053 0.87723 0.0
H872 H 0.40306 0.43353 0.91604 0.0
C873 C 0.21395 0.44474 0.94757 0.0
C874 C 0.25191 0.44638 0.96305 0.0
C875 C 0.24018 0.44404 0.92982 0.0
C876 C 0.38545 0.43831 0.9053 0.0
H877 H 0.39463 0.44824 0.80978 0.0
H878 H 0.34292 0.44742 0.83946 0.0
H879 H 0.45421 0.43353 0.88597 0.0
H880 H 0.34715 0.44817 0.97213 0.0
H881 H 0.39245 0.44671 0.94144 0.0
H882 H 0.27247 0.45513 0.89664 0.0
C883 C 0.39279 0.44653 0.83912 0.0
C884 C 0.41512 0.43839 0.88807 0.0
C885 C 0.42256 0.44694 0.82198 0.0
C886 C 0.31648 0.447 0.96048 0.0
C887 C 0.3426 0.44609 0.94291 0.0
C888 C 0.31174 0.45032 0.89436 0.0
C889 C 0.42659 0.44482 0.85544 0.0
C890 C 0.39427 0.44457 0.8738 0.0
C891 C 0.30486 0.44471 0.92735 0.0
C892 C 0.33354 0.44429 0.90865 0.0
H893 H 0.5707 0.44252 0.83604 0.0
H894 H 0.51933 0.44221 0.86616 0.0
H895 H 0.325 0.45556 0.86684 0.0
H896 H 0.1641 0.44424 0.94913 0.0
H897 H 0.21002 0.44295 0.91804 0.0
C898 C 0.32685 0.33115 0.81489 0.0
C899 C 0.26216 0.33219 0.81348 0.0
C900 C 0.35669 0.33192 0.83194 0.0
C901 C 0.33411 0.34004 0.88091 0.0
H902 H 0.48014 0.32395 0.88882 0.0
C903 C 0.4432 0.3329 0.95279 0.0
C904 C 0.50795 0.33387 0.95443 0.0
C905 C 0.41431 0.33333 0.93554 0.0
C906 C 0.43985 0.32857 0.88674 0.0
H907 H 0.17799 0.33496 0.82892 0.0
H908 H 0.22969 0.33589 0.85902 0.0
H909 H 0.42574 0.32315 0.85941 0.0
H910 H 0.5931 0.33611 0.93913 0.0
H911 H 0.54245 0.33658 0.90869 0.0
H912 H 0.3473 0.34509 0.90873 0.0
C913 C 0.25778 0.33472 0.84682 0.0
C914 C 0.40855 0.32815 0.86982 0.0
C915 C 0.22791 0.33413 0.82958 0.0
C916 C 0.5432 0.33532 0.93832 0.0
C917 C 0.51426 0.33556 0.92093 0.0
C918 C 0.3649 0.34032 0.89797 0.0
C919 C 0.32272 0.33355 0.84826 0.0
C920 C 0.35531 0.33392 0.86656 0.0
C921 C 0.44944 0.33459 0.91939 0.0
C922 C 0.4182 0.33461 0.90104 0.0
H923 H 0.35487 0.32983 0.8027 0.0
H924 H 0.40672 0.33128 0.83222 0.0
H925 H 0.29411 0.34472 0.87895 0.0
H926 H 0.4145 0.33185 0.96492 0.0
H927 H 0.36444 0.33248 0.93479 0.0
C928 C 0.45662 0.05294 1.01222 0.0
C929 C 0.39271 0.05295 1.00829 0.0
C930 C 0.49042 0.0442 1.0125 0.0
C931 C 0.4734 0.01726 0.0164 0.0
H932 H 0.64016 0.0171 0.99629 0.0
C933 C 0.61412 0.98148 1.00686 0.0
C934 C 0.67764 0.98167 1.01132 0.0
C935 C 0.57921 0.99011 1.00633 0.0
C936 C 0.59394 0.01703 1.00215 0.0
H937 H 0.3143 0.0437 1.00164 0.0
H938 H 0.37349 0.02842 1.00194 0.0
H939 H 0.57917 0.03212 0.99555 0.0
H940 H 0.75413 0.99118 0.01865 0.0
H941 H 0.69317 1.00625 0.01779 0.0
H942 H 0.48826 1.00216 0.02295 0.0
C943 C 0.39732 0.03519 1.00502 0.0
C944 C 0.55886 0.02566 1.00173 0.0
C945 C 0.36338 0.04396 1.00476 0.0
C946 C 0.70542 0.99075 0.01512 0.0
C947 C 0.67047 0.9994 0.01453 0.0
C948 C 0.50848 1.00862 0.01679 0.0
C949 C 0.46142 0.0352 1.00881 0.0
C950 C 0.49817 0.02591 1.00892 0.0
C951 C 0.60682 0.9992 1.01019 0.0
C952 C 0.56931 1.0084 1.00971 0.0
H953 H 0.48082 0.0597 0.01511 0.0
H954 H 0.53935 0.0445 0.01581 0.0
H955 H 0.42726 0.0172 0.0223 0.0
H956 H 0.5911 0.97463 1.00381 0.0
H957 H 0.5306 0.98967 1.00267 0.0
C958 C 0.59457 0.29401 0.01888 0.0
C959 C 0.61685 0.30259 1.01052 0.0
C960 C 0.63186 0.28558 0.01968 0.0
C961 C 0.77345 0.27424 0.99887 0.0
H962 H 0.77641 0.25905 0.04408 0.0
C963 C 0.9563 0.24376 1.01179 0.0
C964 C 0.93304 0.23495 0.01897 0.0
C965 C 0.91877 0.25217 1.01125 0.0
C966 C 0.77588 0.26318 0.03131 0.0
H967 H 0.69556 0.30892 0.99612 0.0
H968 H 0.75994 0.29444 0.99772 0.0
H969 H 0.70607 0.27298 0.04144 0.0
H970 H 0.85279 0.22818 0.03179 0.0
H971 H 0.78817 0.24273 0.03089 0.0
H972 H 0.84355 0.26446 0.9888 0.0
C973 C 0.71361 0.29409 1.00346 0.0
C974 C 0.73524 0.27114 0.02975 0.0
C975 C 0.67657 0.30246 1.00265 0.0
C976 C 0.87231 0.23483 0.02611 0.0
C977 C 0.83519 0.24321 0.0257 0.0
C978 C 0.81424 0.2663 1.00046 0.0
C979 C 0.69214 0.28555 1.0121 0.0
C980 C 0.73351 0.2768 0.01352 0.0
C981 C 0.85752 0.25195 0.01806 0.0
C982 C 0.81597 0.26066 0.01669 0.0
H983 H 0.54888 0.29385 0.02509 0.0
H984 H 0.61348 0.27909 0.02626 0.0
H985 H 0.7728 0.27831 0.98604 0.0
H986 H 0.00278 0.2441 1.00615 0.0
H987 H 0.93762 0.25883 1.00543 0.0
C988 C 0.49542 0.2223 0.25631 0.0
C989 C 0.4324 0.22256 0.26138 0.0
C990 C 0.53029 0.23091 0.25526 0.0
C991 C 0.51423 0.2579 0.25133 0.0
H992 H 0.6848 0.25802 0.26834 0.0
C993 C 0.6485 0.29376 0.26204 0.0
C994 C 0.71069 0.29425 0.25618 0.0
C995 C 0.6167 0.28488 0.26232 0.0
C996 C 0.63749 0.25808 0.26333 0.0
H997 H 0.35682 0.23215 0.26934 0.0
H998 H 0.41774 0.24716 0.26775 0.0
H999 H 0.62464 0.24292 0.26968 0.0
H1000 H 0.78838 0.28563 0.24629 0.0
H1001 H 0.73253 0.27001 0.2468 0.0
H1002 H 0.52683 0.27308 0.24516 0.0
C1003 C 0.44008 0.24029 0.26431 0.0
C1004 C 0.60289 0.24942 0.26409 0.0
C1005 C 0.40512 0.23167 0.26532 0.0
C1006 C 0.74059 0.28553 0.25089 0.0
C1007 C 0.70862 0.27658 0.25124 0.0
C1008 C 0.54871 0.26656 0.25063 0.0
C1009 C 0.50321 0.24003 0.25927 0.0
C1010 C 0.5406 0.24922 0.25821 0.0
C1011 C 0.646 0.27617 0.25677 0.0
C1012 C 0.61064 0.26679 0.25675 0.0
H1013 H 0.51803 0.21542 0.2531 0.0
H1014 H 0.57839 0.2304 0.25106 0.0
H1015 H 0.46694 0.25801 0.2463 0.0
H1016 H 0.62382 0.30029 0.26633 0.0
H1017 H 0.56899 0.28483 0.267 0.0
C1018 C 0.60232 0.98336 0.25861 0.0
C1019 C 0.62527 0.97547 0.26903 0.0
C1020 C 0.63501 0.99224 0.25794 0.0
C1021 C 0.76284 1.00604 0.28136 0.0
H1022 H 0.77977 0.01885 0.23386 0.0
C1023 C 0.94933 0.0356 0.26774 0.0
C1024 C 0.92818 0.04416 0.25901 0.0
C1025 C 0.91132 0.0273 0.26867 0.0
C1026 C 0.77521 0.01539 0.24725 0.0
H1027 H 0.69921 0.9709 0.28752 0.0
H1028 H 0.75578 0.98611 0.28611 0.0
H1029 H 0.71136 1.00473 0.23688 0.0
H1030 H 0.85154 0.05056 0.24375 0.0
H1031 H 0.78606 0.03609 0.24515 0.0
H1032 H 0.82776 0.01658 0.2916 0.0
C1033 C 0.71248 0.9856 0.2786 0.0
C1034 C 0.7356 1.00733 0.24902 0.0
C1035 C 0.68003 0.9768 0.27929 0.0
C1036 C 0.86925 0.0441 0.25065 0.0
C1037 C 0.83172 0.03579 0.25136 0.0
C1038 C 0.80283 0.01403 0.27954 0.0
C1039 C 0.69112 0.99341 0.26772 0.0
C1040 C 0.72926 1.00249 0.26608 0.0
C1041 C 0.8518 0.02734 0.26064 0.0
C1042 C 0.8098 0.01876 0.26244 0.0
H1043 H 0.56039 0.98257 0.25052 0.0
H1044 H 0.61669 0.99815 0.24959 0.0
H1045 H 0.75832 1.00266 0.29482 0.0
H1046 H 0.99437 0.03542 0.27436 0.0
H1047 H 0.92833 0.02085 0.27576 0.0
C1048 C 0.45443 0.73729 1.00169 0.0
C1049 C 0.42842 0.72841 1.00772 0.0
C1050 C 0.41862 0.74589 1.00137 0.0
C1051 C 0.25452 0.75403 0.99986 0.0
H1052 H 0.31855 0.77905 0.01617 0.0
C1053 C 0.0942 0.78746 1.01138 0.0
C1054 C 0.11656 0.79674 1.00639 0.0
C1055 C 0.1334 0.77927 1.01106 0.0
C1056 C 0.3001 0.77215 1.01134 0.0
H1057 H 0.34475 0.72176 0.0187 0.0
H1058 H 0.28333 0.73662 0.01827 0.0
H1059 H 0.38597 0.76466 0.01648 0.0
H1060 H 0.19786 0.80463 0.99693 0.0
H1061 H 0.26567 0.79037 0.99613 0.0
H1062 H 0.16882 0.76145 0.99468 0.0
C1063 C 0.33085 0.73695 0.01346 0.0
C1064 C 0.33885 0.7639 1.01152 0.0
C1065 C 0.36642 0.72841 0.01382 0.0
C1066 C 0.17898 0.79761 1.00093 0.0
C1067 C 0.21812 0.78943 1.00059 0.0
C1068 C 0.21591 0.76227 0.99963 0.0
C1069 C 0.35604 0.74577 1.007 0.0
C1070 C 0.31631 0.75471 1.00598 0.0
C1071 C 0.19598 0.78015 1.00571 0.0
C1072 C 0.23792 0.77143 1.00552 0.0
H1073 H 0.50197 0.73755 0.99689 0.0
H1074 H 0.43943 0.75257 0.99627 0.0
H1075 H 0.23592 0.74712 0.99513 0.0
H1076 H 0.04652 0.78652 0.01574 0.0
H1077 H 0.11484 0.77227 0.01534 0.0
C1078 C 0.64522 0.78568 0.75765 0.0
C1079 C 0.61741 0.79412 0.76505 0.0
C1080 C 0.61322 0.77673 0.75763 0.0
C1081 C 0.48095 0.7638 0.77978 0.0
H1082 H 0.48034 0.74828 0.73496 0.0
C1083 C 0.3138 0.73096 0.76989 0.0
C1084 C 0.33889 0.72257 0.76146 0.0
C1085 C 0.34737 0.73975 0.77021 0.0
C1086 C 0.48044 0.75246 0.74767 0.0
H1087 H 0.53484 0.79969 0.77873 0.0
H1088 H 0.47981 0.78425 0.77867 0.0
H1089 H 0.54329 0.76305 0.7365 0.0
H1090 H 0.41877 0.71695 0.74649 0.0
H1091 H 0.47681 0.73209 0.74724 0.0
H1092 H 0.41826 0.75321 0.79098 0.0
C1093 C 0.52621 0.78446 0.77294 0.0
C1094 C 0.51676 0.76093 0.74856 0.0
C1095 C 0.55778 0.79335 0.77284 0.0
C1096 C 0.39769 0.72325 0.75309 0.0
C1097 C 0.43105 0.73198 0.75341 0.0
C1098 C 0.44478 0.75532 0.77892 0.0
C1099 C 0.55311 0.77604 0.76519 0.0
C1100 C 0.51728 0.76673 0.76459 0.0
C1101 C 0.40668 0.74035 0.76206 0.0
C1102 C 0.44391 0.74954 0.76284 0.0
H1103 H 0.69101 0.78602 0.75153 0.0
H1104 H 0.63549 0.77036 0.75169 0.0
H1105 H 0.48083 0.76803 0.79244 0.0
H1106 H 0.26871 0.7307 0.77647 0.0
H1107 H 0.32681 0.74609 0.77681 0.0
C1108 C 0.1741 0.97802 0.77797 0.0
C1109 C 0.12202 0.976 0.76692 0.0
C1110 C 0.20311 0.98712 0.77724 0.0
C1111 C 0.22907 1.00767 0.7459 0.0
H1112 H 0.29204 0.02065 0.78971 0.0
C1113 C 0.33289 0.04639 0.74362 0.0
C1114 C 0.38146 0.0489 0.75569 0.0
C1115 C 0.30422 0.03728 0.74469 0.0
C1116 C 0.27574 0.01704 0.77731 0.0
H1117 H 0.05828 0.98206 0.74683 0.0
H1118 H 0.10956 0.99809 0.74542 0.0
H1119 H 0.2308 1.00575 0.79286 0.0
H1120 H 0.43973 0.04358 0.77791 0.0
H1121 H 0.39013 0.02746 0.7796 0.0
H1122 H 0.27461 0.01883 0.73031 0.0
C1123 C 0.12785 0.99256 0.75464 0.0
C1124 C 0.24017 1.00854 0.77913 0.0
C1125 C 0.09815 0.98343 0.75555 0.0
C1126 C 0.40256 0.04187 0.76839 0.0
C1127 C 0.37362 0.03268 0.76948 0.0
C1128 C 0.26496 0.01613 0.74408 0.0
C1129 C 0.18123 0.99444 0.7653 0.0
C1130 C 0.21627 1.00377 0.76345 0.0
C1131 C 0.3233 0.03035 0.75783 0.0
C1132 C 0.28856 0.02097 0.75976 0.0
H1133 H 0.19351 0.97247 0.78695 0.0
H1134 H 0.24429 0.98828 0.78552 0.0
H1135 H 0.21248 1.00406 0.73354 0.0
H1136 H 0.31545 0.0516 0.7336 0.0
H1137 H 0.26531 0.03585 0.73563 0.0
C1138 C 0.59165 0.47904 0.50745 0.0
C1139 C 0.65282 0.47934 0.51422 0.0
C1140 C 0.55532 0.48751 0.50664 0.0
C1141 C 0.53957 0.51212 0.52719 0.0
H1142 H 0.42976 0.51679 0.48566 0.0
C1143 C 0.40908 0.54866 0.518 0.0
C1144 C 0.34825 0.54858 0.51094 0.0
C1145 C 0.44481 0.54013 0.51851 0.0
C1146 C 0.45946 0.51554 0.49749 0.0
H1147 H 0.72389 0.4889 0.52522 0.0
H1148 H 0.66035 0.50375 0.52373 0.0
H1149 H 0.49676 0.50239 0.48576 0.0
H1150 H 0.27726 0.53933 0.49901 0.0
H1151 H 0.33965 0.52433 0.50009 0.0
H1152 H 0.50217 0.52523 0.53897 0.0
C1153 C 0.64041 0.49689 0.5192 0.0
C1154 C 0.49812 0.50728 0.49753 0.0
C1155 C 0.67702 0.48839 0.51993 0.0
C1156 C 0.32387 0.53966 0.50454 0.0
C1157 C 0.35985 0.53108 0.50505 0.0
C1158 C 0.50083 0.52035 0.52718 0.0
C1159 C 0.57891 0.49654 0.51263 0.0
C1160 C 0.5388 0.50547 0.51237 0.0
C1161 C 0.42093 0.53122 0.51201 0.0
C1162 C 0.46037 0.52221 0.5123 0.0
H1163 H 0.57127 0.47222 0.50292 0.0
H1164 H 0.50804 0.48692 0.50172 0.0
H1165 H 0.56935 0.51087 0.53901 0.0
H1166 H 0.42975 0.55537 0.523 0.0
H1167 H 0.49185 0.5406 0.52367 0.0
C1168 C 0.55411 0.78789 0.52377 0.0
C1169 C 0.5783 0.79655 0.5162 0.0
C1170 C 0.58876 0.77917 0.52331 0.0
C1171 C 0.72355 0.76742 0.49955 0.0
H1172 H 0.72586 0.75044 0.54241 0.0
C1173 C 0.89817 0.73525 0.50636 0.0
C1174 C 0.87464 0.72639 0.5133 0.0
C1175 C 0.86229 0.74382 0.50699 0.0
C1176 C 0.72537 0.75506 0.53024 0.0
H1177 H 0.65803 0.80275 0.5021 0.0
H1178 H 0.71786 0.78775 0.50151 0.0
H1179 H 0.66058 0.76504 0.54252 0.0
H1180 H 0.79508 0.71971 0.52665 0.0
H1181 H 0.73307 0.73456 0.52768 0.0
H1182 H 0.78853 0.75747 0.48731 0.0
C1183 C 0.67194 0.78758 0.50756 0.0
C1184 C 0.68769 0.76343 0.53029 0.0
C1185 C 0.63754 0.79624 0.50802 0.0
C1186 C 0.81491 0.72638 0.52117 0.0
C1187 C 0.7793 0.73493 0.52188 0.0
C1188 C 0.7613 0.75908 0.49952 0.0
C1189 C 0.64829 0.77891 0.51523 0.0
C1190 C 0.68641 0.76975 0.51496 0.0
C1191 C 0.8022 0.74376 0.51468 0.0
C1192 C 0.76285 0.75278 0.51488 0.0
H1193 H 0.50872 0.78785 0.53018 0.0
H1194 H 0.56874 0.77261 0.52919 0.0
H1195 H 0.72307 0.77201 0.48735 0.0
H1196 H 0.94392 0.73553 0.5002 0.0
H1197 H 0.88173 0.75052 0.50151 0.0
C1198 C 0.93445 0.53502 0.76863 0.0
C1199 C 0.91184 0.54414 0.76265 0.0
C1200 C 0.89627 0.52672 0.76825 0.0
C1201 C 0.72985 0.51943 0.76622 0.0
H1202 H 0.79729 0.49406 0.75317 0.0
C1203 C 0.57661 0.48467 0.756 0.0
C1204 C 0.60033 0.47593 0.76345 0.0
C1205 C 0.61319 0.49317 0.75557 0.0
C1206 C 0.77776 0.50108 0.75699 0.0
H1207 H 0.83154 0.55157 0.75117 0.0
H1208 H 0.766 0.53717 0.75021 0.0
H1209 H 0.86464 0.50835 0.75308 0.0
H1210 H 0.68093 0.46939 0.77663 0.0
H1211 H 0.74364 0.48406 0.77595 0.0
H1212 H 0.64286 0.51212 0.77007 0.0
C1213 C 0.81262 0.53643 0.75559 0.0
C1214 C 0.81651 0.50928 0.75699 0.0
C1215 C 0.85056 0.5447 0.75603 0.0
C1216 C 0.66095 0.47594 0.77067 0.0
C1217 C 0.69733 0.48437 0.77017 0.0
C1218 C 0.69102 0.51122 0.76616 0.0
C1219 C 0.83465 0.52733 0.76182 0.0
C1220 C 0.79322 0.51857 0.7617 0.0
C1221 C 0.67432 0.49307 0.76247 0.0
C1222 C 0.7146 0.50193 0.76169 0.0
H1223 H 0.98129 0.53432 0.77387 0.0
H1224 H 0.91472 0.51986 0.77334 0.0
H1225 H 0.71034 0.52643 0.77018 0.0
H1226 H 0.53021 0.48491 0.7503 0.0
H1227 H 0.59411 0.49975 0.74947 0.0
C1228 C 0.0726 0.29105 0.52102 0.0
C1229 C 0.09762 0.29916 0.51171 0.0
C1230 C 0.10493 0.28213 0.5215 0.0
C1231 C 0.23022 0.2681 0.49801 0.0
H1232 H 0.24225 0.25441 0.54475 0.0
C1233 C 0.3899 0.2341 0.50757 0.0
C1234 C 0.36464 0.22632 0.5178 0.0
C1235 C 0.35991 0.24324 0.50711 0.0
C1236 C 0.23895 0.25807 0.53152 0.0
H1237 H 0.17548 0.30411 0.49514 0.0
H1238 H 0.23112 0.28866 0.49595 0.0
H1239 H 0.18122 0.26939 0.54273 0.0
H1240 H 0.28869 0.2222 0.53593 0.0
H1241 H 0.23686 0.23789 0.53492 0.0
H1242 H 0.28743 0.25673 0.48674 0.0
C1243 C 0.18663 0.28914 0.50285 0.0
C1244 C 0.20374 0.26667 0.53037 0.0
C1245 C 0.15473 0.29804 0.50249 0.0
C1246 C 0.30976 0.22799 0.52788 0.0
C1247 C 0.28002 0.23706 0.52742 0.0
C1248 C 0.26523 0.25947 0.49914 0.0
C1249 C 0.16263 0.28109 0.51252 0.0
C1250 C 0.19877 0.27179 0.5136 0.0
C1251 C 0.30419 0.2448 0.51692 0.0
C1252 C 0.26987 0.25431 0.51589 0.0
H1253 H 0.02883 0.29167 0.52828 0.0
H1254 H 0.0848 0.27603 0.52892 0.0
H1255 H 0.22697 0.27181 0.48482 0.0
H1256 H 0.43199 0.23307 0.49963 0.0
H1257 H 0.3803 0.24907 0.49903 0.0
C1258 C 0.0691 0.48469 0.25798 0.0
C1259 C 0.09264 0.47617 0.26629 0.0
C1260 C 0.10387 0.49337 0.258 0.0
C1261 C 0.23735 0.50552 0.28136 0.0
H1262 H 0.24451 0.52108 0.23665 0.0
C1263 C 0.41336 0.53724 0.27242 0.0
C1264 C 0.39046 0.54588 0.26436 0.0
C1265 C 0.37759 0.52867 0.27237 0.0
C1266 C 0.24265 0.51687 0.24931 0.0
H1267 H 0.17094 0.47019 0.28146 0.0
H1268 H 0.231 0.48515 0.28136 0.0
H1269 H 0.17836 0.50663 0.23771 0.0
H1270 H 0.31233 0.55217 0.24959 0.0
H1271 H 0.25052 0.53735 0.2496 0.0
H1272 H 0.30178 0.51573 0.29294 0.0
C1273 C 0.18557 0.48523 0.27498 0.0
C1274 C 0.20447 0.50859 0.24994 0.0
C1275 C 0.15107 0.4766 0.27493 0.0
C1276 C 0.33164 0.54567 0.25593 0.0
C1277 C 0.29616 0.53712 0.25583 0.0
C1278 C 0.27557 0.51378 0.28072 0.0
C1279 C 0.1628 0.49373 0.26641 0.0
C1280 C 0.20141 0.50279 0.26596 0.0
C1281 C 0.3183 0.52853 0.26419 0.0
C1282 C 0.27881 0.51957 0.26469 0.0
H1283 H 0.02435 0.48462 0.25119 0.0
H1284 H 0.08455 0.49981 0.25144 0.0
H1285 H 0.23553 0.50132 0.29404 0.0
H1286 H 0.4584 0.53713 0.27903 0.0
H1287 H 0.39643 0.52214 0.27875 0.0
C1288 C 0.1088 0.97713 0.5068 0.0
C1289 C 0.16716 0.97704 0.51553 0.0
C1290 C 0.07292 0.98565 0.50614 0.0
C1291 C 0.04988 1.00945 0.52953 0.0
H1292 H 0.95423 0.01565 0.48566 0.0
C1293 C 0.92124 0.04631 0.52086 0.0
C1294 C 0.86335 0.04646 0.51186 0.0
C1295 C 0.95683 0.03777 0.52163 0.0
C1296 C 0.97989 0.01396 0.49813 0.0
H1297 H 0.23369 0.986 0.53023 0.0
H1298 H 0.17103 1.00096 0.52897 0.0
H1299 H 0.02144 1.00129 0.48586 0.0
H1300 H 0.79724 0.03757 0.49685 0.0
H1301 H 0.85928 0.02255 0.49835 0.0
H1302 H 0.00829 0.02212 0.54182 0.0
C1303 C 0.15287 0.99435 0.52278 0.0
C1304 C 0.0187 1.00573 0.49823 0.0
C1305 C 0.18906 0.98579 0.52338 0.0
C1306 C 0.84152 0.03773 0.5039 0.0
C1307 C 0.87738 0.02914 0.50464 0.0
C1308 C 0.01103 0.01769 0.52944 0.0
C1309 C 0.09412 0.99437 0.51421 0.0
C1310 C 0.05425 1.00335 0.51393 0.0
C1311 C 0.93577 0.02907 0.51342 0.0
C1312 C 0.97552 0.02008 0.51373 0.0
H1313 H 0.09015 0.97055 0.5006 0.0
H1314 H 0.02772 0.98532 0.49966 0.0
H1315 H 0.07561 1.00777 0.54199 0.0
H1316 H 0.93984 0.05287 0.52713 0.0
H1317 H 1.00177 0.03807 0.52827 0.0
C1318 C 0.81112 0.23977 0.77275 0.0
C1319 C 0.83398 0.23104 0.765 0.0
C1320 C 0.84732 0.24831 0.77257 0.0
C1321 C 0.01135 0.25629 0.76864 0.0
H1322 H 0.94111 0.28174 0.75768 0.0
C1323 C 0.16456 0.29044 0.7554 0.0
C1324 C 0.14319 0.29947 0.76221 0.0
C1325 C 0.12676 0.28211 0.75623 0.0
C1326 C 0.96144 0.27471 0.761 0.0
H1327 H 0.91223 0.22459 0.75047 0.0
H1328 H 0.97421 0.23935 0.75005 0.0
H1329 H 0.87401 0.26739 0.7583 0.0
H1330 H 0.06565 0.30672 0.77567 0.0
H1331 H 1.00072 0.29226 0.77736 0.0
H1332 H 0.09869 0.26357 0.77136 0.0
C1333 C 0.92904 0.2396 0.75658 0.0
C1334 C 0.92285 0.26647 0.76136 0.0
C1335 C 0.89308 0.23113 0.75672 0.0
C1336 C 0.08365 0.29992 0.77016 0.0
C1337 C 0.04606 0.29161 0.77102 0.0
C1338 C 0.04988 0.26452 0.76832 0.0
C1339 C 0.90716 0.24827 0.76471 0.0
C1340 C 0.94739 0.25715 0.76505 0.0
C1341 C 0.06674 0.28261 0.76392 0.0
C1342 C 0.02555 0.27384 0.76441 0.0
H1343 H 0.7659 0.23996 0.77926 0.0
H1344 H 0.82911 0.25486 0.77902 0.0
H1345 H 0.03171 0.24925 0.77187 0.0
H1346 H 0.21 0.28984 0.74912 0.0
H1347 H 0.14408 0.27533 0.75046 0.0
C1348 C 0.14961 0.78653 0.25846 0.0
C1349 C 0.12561 0.79455 0.26834 0.0
C1350 C 0.11788 0.77756 0.25828 0.0
C1351 C 0.99289 0.7637 0.28273 0.0
H1352 H 0.97625 0.75008 0.23602 0.0
C1353 C 0.81279 0.73282 0.27194 0.0
C1354 C 0.8341 0.72439 0.26275 0.0
C1355 C 0.84925 0.74131 0.27244 0.0
C1356 C 0.98081 0.75375 0.24921 0.0
H1357 H 0.0506 0.79926 0.28633 0.0
H1358 H 0.9958 0.78386 0.28585 0.0
H1359 H 0.04206 0.76455 0.23797 0.0
H1360 H 0.90971 0.71842 0.24641 0.0
H1361 H 0.97258 0.73315 0.24722 0.0
H1362 H 0.93094 0.75299 0.29389 0.0
C1363 C 0.03916 0.78437 0.27836 0.0
C1364 C 0.01887 0.76203 0.25036 0.0
C1365 C 0.07058 0.79327 0.27851 0.0
C1366 C 0.89177 0.72476 0.25365 0.0
C1367 C 0.92783 0.73324 0.25402 0.0
C1368 C 0.95462 0.75547 0.28155 0.0
C1369 C 0.06176 0.77641 0.26807 0.0
C1370 C 0.02506 0.76716 0.2671 0.0
C1371 C 0.90749 0.74158 0.26361 0.0
C1372 C 0.94778 0.75042 0.26476 0.0
H1373 H 0.19178 0.78727 0.25045 0.0
H1374 H 0.13705 0.77154 0.25037 0.0
H1375 H 0.99731 0.76735 0.29595 0.0
H1376 H 0.7687 0.73278 0.27911 0.0
H1377 H 0.83188 0.74765 0.27977 0.0
C1378 C 0.08713 0.47942 1.00788 0.0
C1379 C 0.14784 0.47979 0.015 0.0
C1380 C 0.05008 0.48781 1.00718 0.0
C1381 C 0.03125 0.51213 0.02864 0.0
H1382 H 0.92346 0.51714 0.98677 0.0
C1383 C 0.90272 0.54875 0.01992 0.0
C1384 C 0.84189 0.54879 1.01286 0.0
C1385 C 0.93798 0.54018 0.02022 0.0
C1386 C 0.95259 0.51578 0.99868 0.0
H1387 H 0.21741 0.48939 0.02669 0.0
H1388 H 0.15268 0.5041 0.02538 0.0
H1389 H 0.99108 0.5028 0.98665 0.0
H1390 H 0.77048 0.53974 1.00063 0.0
H1391 H 0.83225 0.52464 1.0013 0.0
H1392 H 0.99281 0.52508 0.04072 0.0
C1393 C 0.13361 0.49725 0.0205 0.0
C1394 C 0.99159 0.50757 0.9986 0.0
C1395 C 0.17092 0.48883 0.02114 0.0
C1396 C 0.81709 0.53997 1.00617 0.0
C1397 C 0.85267 0.53134 1.00646 0.0
C1398 C 0.99223 0.52032 0.02874 0.0
C1399 C 0.07252 0.49683 0.01362 0.0
C1400 C 0.03164 0.50566 0.01354 0.0
C1401 C 0.91365 0.53135 0.01351 0.0
C1402 C 0.95265 0.52231 0.01372 0.0
H1403 H 0.06763 0.47259 1.00302 0.0
H1404 H 0.00314 0.48716 1.00201 0.0
H1405 H 0.06045 0.51079 0.04055 0.0
H1406 H 0.92374 0.55539 0.02514 0.0
H1407 H 0.98499 0.54055 0.02543 0.0
C1408 C 0.1949 0.07181 0.93808 0.0
C1409 C 0.24234 0.07631 0.94836 0.0
C1410 C 0.19128 0.07306 0.91889 0.0
C1411 C 0.23786 0.08981 0.88157 0.0
H1412 H 0.21742 0.06743 0.84924 0.0
C1413 C 0.30802 0.09054 0.80528 0.0
C1414 C 0.27902 0.08437 0.79244 0.0
C1415 C 0.28997 0.09055 0.82379 0.0
C1416 C 0.22164 0.07381 0.85802 0.0
H1417 H 0.32327 0.08564 0.94645 0.0
H1418 H 0.31664 0.08788 0.91301 0.0
H1419 H 0.21492 0.06517 0.88268 0.0
H1420 H 0.20661 0.07365 0.78859 0.0
H1421 H 0.17342 0.07379 0.82111 0.0
H1422 H 0.24479 0.09847 0.85705 0.0
C1423 C 0.28215 0.0834 0.91983 0.0
C1424 C 0.22064 0.07249 0.87723 0.0
C1425 C 0.28625 0.08205 0.93897 0.0
C1426 C 0.22879 0.07862 0.79819 0.0
C1427 C 0.21065 0.07859 0.81686 0.0
C1428 C 0.23818 0.09115 0.8624 0.0
C1429 C 0.23449 0.07895 0.90957 0.0
C1430 C 0.23029 0.08044 0.88921 0.0
C1431 C 0.24255 0.08431 0.83002 0.0
C1432 C 0.23177 0.08314 0.85032 0.0
H1433 H 0.16028 0.06734 0.94486 0.0
H1434 H 0.15392 0.06956 0.91139 0.0
H1435 H 0.24411 0.09612 0.89045 0.0
H1436 H 0.34768 0.0949 0.80122 0.0
H1437 H 0.31641 0.09495 0.8334 0.0
C1438 C 0.97855 0.20323 0.95355 0.0
C1439 C 0.93231 0.20016 0.96599 0.0
C1440 C 0.97286 0.20158 0.93466 0.0
C1441 C 0.89055 0.18682 0.89955 0.0
H1442 H 0.94733 0.20744 0.86686 0.0
C1443 C 0.8269 0.18979 0.82235 0.0
C1444 C 0.87048 0.19364 0.80992 0.0
C1445 C 0.84068 0.18895 0.8411 0.0
C1446 C 0.93241 0.20153 0.87576 0.0
H1447 H 0.8437 0.19281 0.96814 0.0
H1448 H 0.83271 0.19012 0.9347 0.0
H1449 H 0.95355 0.20968 0.9001 0.0
H1450 H 0.96365 0.19925 0.80703 0.0
H1451 H 0.98826 0.19784 0.84015 0.0
H1452 H 0.8676 0.17882 0.87497 0.0
C1453 C 0.87398 0.19371 0.93981 0.0
C1454 C 0.93569 0.20282 0.89488 0.0
C1455 C 0.87996 0.19531 0.95894 0.0
C1456 C 0.92964 0.19615 0.81636 0.0
C1457 C 0.9433 0.19544 0.83529 0.0
C1458 C 0.88686 0.18556 0.88035 0.0
C1459 C 0.92039 0.19689 0.92744 0.0
C1460 C 0.91489 0.19549 0.90706 0.0
C1461 C 0.89818 0.1921 0.84793 0.0
C1462 C 0.90766 0.19291 0.86824 0.0
H1463 H 0.02015 0.20685 0.95838 0.0
H1464 H 0.01029 0.20391 0.92571 0.0
H1465 H 0.87492 0.18097 0.90848 0.0
H1466 H 0.78073 0.18787 0.81768 0.0
H1467 H 0.8047 0.18645 0.85041 0.0
C1468 C 0.24338 0.19792 0.47172 0.0
C1469 C 0.27822 0.19044 0.48003 0.0
C1470 C 0.23303 0.19785 0.45259 0.0
C1471 C 0.31802 0.19041 0.41185 0.0
H1472 H 0.17085 0.19751 0.38422 0.0
C1473 C 0.32205 0.19285 0.33215 0.0
C1474 C 0.28422 0.19986 0.32352 0.0
C1475 C 0.31726 0.19115 0.35118 0.0
C1476 C 0.21267 0.19566 0.39172 0.0
H1477 H 0.32713 0.17685 0.47527 0.0
H1478 H 0.30853 0.17664 0.44195 0.0
H1479 H 0.16396 0.19504 0.41762 0.0
H1480 H 0.21287 0.21078 0.32817 0.0
H1481 H 0.20651 0.20817 0.36139 0.0
H1482 H 0.36769 0.19145 0.38642 0.0
C1483 C 0.28886 0.18252 0.45013 0.0
C1484 C 0.20843 0.19416 0.41085 0.0
C1485 C 0.29867 0.18255 0.46922 0.0
C1486 C 0.24251 0.20529 0.3344 0.0
C1487 C 0.23841 0.20371 0.35346 0.0
C1488 C 0.32251 0.19205 0.39285 0.0
C1489 C 0.25848 0.1904 0.44151 0.0
C1490 C 0.26108 0.19149 0.42109 0.0
C1491 C 0.2752 0.19654 0.36213 0.0
C1492 C 0.26995 0.1947 0.38246 0.0
H1493 H 0.22896 0.20423 0.47972 0.0
H1494 H 0.20982 0.20405 0.44631 0.0
H1495 H 0.35973 0.18857 0.41945 0.0
H1496 H 0.35409 0.18846 0.32412 0.0
H1497 H 0.34569 0.18545 0.35718 0.0
C1498 C 0.907 0.09146 0.45888 0.0
C1499 C 0.91416 0.08229 0.46734 0.0
C1500 C 0.9158 0.09248 0.43976 0.0
C1501 C 0.97974 0.08014 0.39815 0.0
H1502 H 0.8403 0.09178 0.37231 0.0
C1503 C 0.93551 0.07099 0.32254 0.0
C1504 C 0.91962 0.07855 0.31027 0.0
C1505 C 0.93477 0.07252 0.34159 0.0
C1506 C 0.88003 0.08864 0.37928 0.0
H1507 H 0.93789 0.06711 0.4628 0.0
H1508 H 0.95573 0.06892 0.42968 0.0
H1509 H 0.84694 0.09303 0.40602 0.0
H1510 H 0.88751 0.09352 0.30837 0.0
H1511 H 0.88627 0.09626 0.34199 0.0
H1512 H 0.01257 0.07561 0.37162 0.0
C1513 C 0.9436 0.07535 0.43766 0.0
C1514 C 0.88397 0.08937 0.3986 0.0
C1515 C 0.93383 0.07431 0.45665 0.0
C1516 C 0.89943 0.08754 0.31753 0.0
C1517 C 0.89909 0.08911 0.33676 0.0
C1518 C 0.97597 0.07944 0.37892 0.0
C1519 C 0.93252 0.08436 0.42886 0.0
C1520 C 0.9331 0.08491 0.40828 0.0
C1521 C 0.91879 0.08169 0.34897 0.0
C1522 C 0.92517 0.08342 0.36926 0.0
H1523 H 0.89001 0.09765 0.46678 0.0
H1524 H 0.90719 0.09953 0.43339 0.0
H1525 H 0.01868 0.07676 0.40515 0.0
H1526 H 0.9507 0.06394 0.31737 0.0
H1527 H 0.94824 0.06653 0.35054 0.0
C1528 C 0.85668 0.96029 0.08633 0.0
C1529 C 0.80852 0.95809 0.07387 0.0
C1530 C 0.84941 0.95857 0.10535 0.0
C1531 C 0.72692 0.95492 0.14069 0.0
H1532 H 0.85671 0.94292 0.17015 0.0
C1533 C 0.66856 0.93875 0.21053 0.0
C1534 C 0.7045 0.94172 0.22569 0.0
C1535 C 0.68923 0.94025 0.19252 0.0
C1536 C 0.82033 0.94636 0.16212 0.0
H1537 H 0.71508 0.95233 0.07175 0.0
H1538 H 0.7027 0.94932 0.10456 0.0
H1539 H 0.87665 0.94705 0.13763 0.0
H1540 H 0.79207 0.94806 0.23396 0.0
H1541 H 0.82886 0.95073 0.20208 0.0
H1542 H 0.67031 0.95413 0.16486 0.0
C1543 C 0.74581 0.9525 0.09979 0.0
C1544 C 0.83171 0.94875 0.14352 0.0
C1545 C 0.75305 0.95419 0.08089 0.0
C1546 C 0.76386 0.9456 0.22249 0.0
C1547 C 0.78464 0.94717 0.20428 0.0
C1548 C 0.71557 0.95251 0.15911 0.0
C1549 C 0.79372 0.95468 0.11231 0.0
C1550 C 0.78459 0.95288 0.13248 0.0
C1551 C 0.74619 0.94488 0.18914 0.0
C1552 C 0.76155 0.94801 0.16995 0.0
H1553 H 0.90013 0.96327 0.08139 0.0
H1554 H 0.88709 0.9604 0.11461 0.0
H1555 H 0.6901 0.95834 0.13281 0.0
H1556 H 0.62271 0.9357 0.21262 0.0
H1557 H 0.6592 0.93818 0.18118 0.0
C1558 C 0.92549 0.81444 0.08101 0.0
C1559 C 0.97248 0.81775 0.06905 0.0
C1560 C 0.93071 0.81573 0.10019 0.0
C1561 C 0.04813 0.8203 0.13655 0.0
H1562 H 0.90841 0.82862 0.16655 0.0
C1563 C 0.08864 0.83337 0.20991 0.0
C1564 C 0.052 0.82921 0.22386 0.0
C1565 C 0.07149 0.8326 0.19142 0.0
C1566 C 0.94765 0.82622 0.15835 0.0
H1567 H 0.06159 0.82507 0.06795 0.0
H1568 H 0.07038 0.82737 0.10113 0.0
H1569 H 0.894 0.82561 0.13338 0.0
H1570 H 0.96694 0.82142 0.2296 0.0
H1571 H 0.93644 0.82 0.19689 0.0
H1572 H 0.10193 0.82096 0.16128 0.0
C1573 C 0.02987 0.82364 0.0958 0.0
C1574 C 0.93944 0.82447 0.13938 0.0
C1575 C 0.02469 0.82236 0.07671 0.0
C1576 C 0.99544 0.82481 0.21908 0.0
C1577 C 0.97829 0.82396 0.20038 0.0
C1578 C 0.0563 0.82207 0.15538 0.0
C1579 C 0.98311 0.82032 0.10782 0.0
C1580 C 0.98992 0.82164 0.1282 0.0
C1581 C 0.01762 0.8275 0.18634 0.0
C1582 C 0.00654 0.82522 0.16647 0.0
H1583 H 0.88455 0.81088 0.07558 0.0
H1584 H 0.89409 0.81301 0.10904 0.0
H1585 H 0.08767 0.81787 0.12852 0.0
H1586 H 0.13249 0.8368 0.21328 0.0
H1587 H 0.102 0.83562 0.18099 0.0
C1588 C 0.56835 0.83786 0.70731 0.0
C1589 C 0.586 0.82874 0.71458 0.0
C1590 C 0.57186 0.83958 0.68816 0.0
C1591 C 0.66036 0.83048 0.64799 0.0
H1592 H 0.53875 0.8438 0.61764 0.0
C1593 C 0.64679 0.82584 0.56934 0.0
C1594 C 0.62544 0.83357 0.55833 0.0
C1595 C 0.65115 0.8269 0.58851 0.0
C1596 C 0.57384 0.84024 0.62599 0.0
H1597 H 0.61617 0.81408 0.70756 0.0
H1598 H 0.62057 0.81696 0.67444 0.0
H1599 H 0.52124 0.84224 0.65096 0.0
H1600 H 0.59342 0.84857 0.55851 0.0
H1601 H 0.60193 0.85054 0.59213 0.0
H1602 H 0.71247 0.82829 0.62315 0.0
C1603 C 0.6058 0.82289 0.68338 0.0
C1604 C 0.56357 0.83931 0.64507 0.0
C1605 C 0.60253 0.8212 0.70234 0.0
C1606 C 0.61191 0.8426 0.56668 0.0
C1607 C 0.61562 0.84365 0.58594 0.0
C1608 C 0.67067 0.83142 0.62901 0.0
C1609 C 0.59314 0.8322 0.6761 0.0
C1610 C 0.60591 0.83416 0.65619 0.0
C1611 C 0.63316 0.83569 0.59714 0.0
C1612 C 0.62682 0.83608 0.61766 0.0
H1613 H 0.5563 0.84384 0.71647 0.0
H1614 H 0.56148 0.84683 0.68294 0.0
H1615 H 0.69479 0.8267 0.65624 0.0
H1616 H 0.65554 0.81872 0.56327 0.0
H1617 H 0.6641 0.82057 0.59664 0.0
C1618 C 0.14368 0.93169 0.56952 0.0
C1619 C 0.13056 0.94073 0.56116 0.0
C1620 C 0.14534 0.93086 0.58887 0.0
C1621 C 0.1804 0.94686 0.62831 0.0
H1622 H 0.1276 0.9253 0.65929 0.0
C1623 C 0.16359 0.95025 0.70696 0.0
C1624 C 0.1773 0.94221 0.71831 0.0
C1625 C 0.16485 0.94937 0.68776 0.0
C1626 C 0.14362 0.9313 0.65076 0.0
H1627 H 0.10498 0.95579 0.56626 0.0
H1628 H 0.10504 0.95429 0.59985 0.0
H1629 H 0.10707 0.92484 0.62594 0.0
H1630 H 0.2045 0.92697 0.71853 0.0
H1631 H 0.20722 0.9254 0.6846 0.0
H1632 H 0.2168 0.95335 0.65289 0.0
C1633 C 0.11529 0.94786 0.59162 0.0
C1634 C 0.13145 0.93106 0.63168 0.0
C1635 C 0.11402 0.94869 0.57238 0.0
C1636 C 0.19496 0.93333 0.71006 0.0
C1637 C 0.19552 0.9324 0.69068 0.0
C1638 C 0.1927 0.94708 0.64725 0.0
C1639 C 0.1342 0.93909 0.60011 0.0
C1640 C 0.14846 0.93896 0.6203 0.0
C1641 C 0.17923 0.94039 0.67932 0.0
C1642 C 0.17334 0.93941 0.65883 0.0
H1643 H 0.15849 0.92553 0.56117 0.0
H1644 H 0.16013 0.92401 0.59495 0.0
H1645 H 0.19601 0.95293 0.6199 0.0
H1646 H 0.14897 0.95714 0.71298 0.0
H1647 H 0.15125 0.95565 0.67956 0.0
C1648 C 0.38363 0.59394 0.45791 0.0
C1649 C 0.38395 0.58451 0.46561 0.0
C1650 C 0.38839 0.59516 0.43868 0.0
C1651 C 0.42653 0.58184 0.3951 0.0
H1652 H 0.29797 0.59793 0.37297 0.0
C1653 C 0.34873 0.57436 0.32195 0.0
C1654 C 0.35282 0.58221 0.30953 0.0
C1655 C 0.34925 0.57601 0.34096 0.0
C1656 C 0.33445 0.59349 0.37897 0.0
H1657 H 0.39224 0.56907 0.45964 0.0
H1658 H 0.40214 0.57114 0.42644 0.0
H1659 H 0.31565 0.5986 0.40647 0.0
H1660 H 0.35615 0.59798 0.30712 0.0
H1661 H 0.35593 0.60091 0.34069 0.0
H1662 H 0.4438 0.57644 0.36784 0.0
C1663 C 0.39864 0.57763 0.43497 0.0
C1664 C 0.34494 0.59392 0.39812 0.0
C1665 C 0.39318 0.57642 0.45403 0.0
C1666 C 0.35163 0.59182 0.31643 0.0
C1667 C 0.35221 0.59348 0.33561 0.0
C1668 C 0.41573 0.58136 0.37611 0.0
C1669 C 0.39416 0.58697 0.42696 0.0
C1670 C 0.39 0.58788 0.40646 0.0
C1671 C 0.35428 0.58555 0.34799 0.0
C1672 C 0.36844 0.58695 0.36791 0.0
H1673 H 0.375 0.60027 0.46655 0.0
H1674 H 0.3852 0.60246 0.43294 0.0
H1675 H 0.46246 0.57725 0.40097 0.0
H1676 H 0.35015 0.56689 0.31696 0.0
H1677 H 0.34951 0.56977 0.35018 0.0
C1678 C 0.87732 0.69686 0.31979 0.0
C1679 C 0.86945 0.68869 0.30831 0.0
C1680 C 0.88312 0.69574 0.33887 0.0
C1681 C 0.83339 0.6795 0.37624 0.0
H1682 H 0.93408 0.697 0.40577 0.0
C1683 C 0.84195 0.68124 0.4578 0.0
C1684 C 0.84574 0.69076 0.46505 0.0
C1685 C 0.84237 0.67975 0.43855 0.0
C1686 C 0.90537 0.69209 0.39772 0.0
H1687 H 0.86284 0.67291 0.30761 0.0
H1688 H 0.8734 0.67089 0.34127 0.0
H1689 H 0.94961 0.69626 0.37249 0.0
H1690 H 0.84768 0.70615 0.45811 0.0
H1691 H 0.84649 0.70361 0.42482 0.0
H1692 H 0.78871 0.67545 0.40171 0.0
C1693 C 0.8754 0.67817 0.33542 0.0
C1694 C 0.91446 0.69164 0.37865 0.0
C1695 C 0.87041 0.6793 0.31617 0.0
C1696 C 0.84449 0.69874 0.45287 0.0
C1697 C 0.84469 0.69728 0.4338 0.0
C1698 C 0.82446 0.67991 0.39546 0.0
C1699 C 0.88026 0.68642 0.34703 0.0
C1700 C 0.87742 0.68557 0.36756 0.0
C1701 C 0.84676 0.68778 0.42641 0.0
C1702 C 0.85912 0.68645 0.40631 0.0
H1703 H 0.87542 0.70418 0.31408 0.0
H1704 H 0.88592 0.70227 0.34732 0.0
H1705 H 0.80375 0.67478 0.36809 0.0
H1706 H 0.8441 0.67497 0.46691 0.0
H1707 H 0.84371 0.67235 0.43324 0.0
C1708 C 0.37931 0.68425 0.95281 0.0
C1709 C 0.39934 0.69338 0.9594 0.0
C1710 C 0.37315 0.68262 0.93369 0.0
C1711 C 0.36366 0.69578 0.88861 0.0
H1712 H 0.43967 0.67247 0.86794 0.0
C1713 C 0.42047 0.69445 0.81202 0.0
C1714 C 0.39715 0.68636 0.80236 0.0
C1715 C 0.42542 0.69422 0.83127 0.0
C1716 C 0.41801 0.67899 0.87353 0.0
H1717 H 0.42552 0.70807 0.95136 0.0
H1718 H 0.41427 0.70533 0.91846 0.0
H1719 H 0.42971 0.67418 0.90158 0.0
H1720 H 0.36336 0.67155 0.80501 0.0
H1721 H 0.37308 0.67104 0.83878 0.0
H1722 H 0.35294 0.7007 0.86078 0.0
C1723 C 0.40307 0.69939 0.92778 0.0
C1724 C 0.41183 0.67993 0.89279 0.0
C1725 C 0.40969 0.70097 0.94669 0.0
C1726 C 0.38336 0.67776 0.81213 0.0
C1727 C 0.38827 0.67752 0.83147 0.0
C1728 C 0.37022 0.69486 0.8695 0.0
C1729 C 0.38613 0.69015 0.92094 0.0
C1730 C 0.38564 0.68844 0.90056 0.0
C1731 C 0.40636 0.68593 0.84129 0.0
C1732 C 0.39857 0.68656 0.86172 0.0
H1733 H 0.37187 0.67824 0.9623 0.0
H1734 H 0.35951 0.67544 0.92888 0.0
H1735 H 0.34198 0.70233 0.89406 0.0
H1736 H 0.42991 0.70124 0.80483 0.0
H1737 H 0.44057 0.70076 0.83841 0.0
C1738 C 0.86358 0.58446 0.8199 0.0
C1739 C 0.92112 0.58169 0.81243 0.0
C1740 C 0.85835 0.58657 0.83889 0.0
C1741 C 0.93983 0.58118 0.88288 0.0
H1742 H 0.83453 0.60139 0.90357 0.0
C1743 C 0.92507 0.58679 0.96173 0.0
C1744 C 0.86395 0.5871 0.96833 0.0
C1745 C 0.93686 0.58803 0.94277 0.0
C1746 C 0.86422 0.59572 0.89799 0.0
H1747 H 0.01895 0.57975 0.81862 0.0
H1748 H 0.01004 0.58358 0.8511 0.0
H1749 H 0.84213 0.59959 0.86999 0.0
H1750 H 0.76802 0.58969 0.96077 0.0
H1751 H 0.78835 0.59186 0.92808 0.0
H1752 H 0.96105 0.57715 0.91071 0.0
C1753 C 0.96845 0.58377 0.84271 0.0
C1754 C 0.86823 0.59465 0.87875 0.0
C1755 C 0.9735 0.58159 0.82401 0.0
C1756 C 0.81565 0.58934 0.95599 0.0
C1757 C 0.82735 0.59067 0.93724 0.0
C1758 C 0.93589 0.58225 0.90204 0.0
C1759 C 0.9107 0.58602 0.85056 0.0
C1760 C 0.90587 0.58733 0.87097 0.0
C1761 C 0.88775 0.58971 0.93025 0.0
C1762 C 0.8976 0.58946 0.90987 0.0
H1763 H 0.82259 0.58465 0.81126 0.0
H1764 H 0.8131 0.58829 0.84452 0.0
H1765 H 0.96844 0.57534 0.87741 0.0
H1766 H 0.96301 0.58505 0.97097 0.0
H1767 H 0.98408 0.58737 0.93782 0.0
C1768 C 0.61469 0.43565 0.5729 0.0
C1769 C 0.63854 0.44458 0.56643 0.0
C1770 C 0.61334 0.43364 0.59198 0.0
C1771 C 0.69727 0.44079 0.63421 0.0
H1772 H 0.55857 0.43021 0.66168 0.0
C1773 C 0.67044 0.44556 0.71264 0.0
C1774 C 0.64039 0.43833 0.723 0.0
C1775 C 0.67747 0.44452 0.69353 0.0
C1776 C 0.59827 0.43298 0.65417 0.0
H1777 H 0.67483 0.45868 0.57488 0.0
H1778 H 0.67175 0.45525 0.60777 0.0
H1779 H 0.55093 0.43202 0.62808 0.0
H1780 H 0.5948 0.42427 0.72174 0.0
H1781 H 0.60807 0.42229 0.68828 0.0
H1782 H 0.74439 0.44193 0.66014 0.0
C1783 C 0.65561 0.44969 0.59826 0.0
C1784 C 0.59369 0.43405 0.63492 0.0
C1785 C 0.65684 0.45168 0.57939 0.0
C1786 C 0.61995 0.4298 0.71409 0.0
C1787 C 0.62653 0.42877 0.6949 0.0
C1788 C 0.70195 0.4397 0.65335 0.0
C1789 C 0.63605 0.44053 0.60479 0.0
C1790 C 0.64251 0.43824 0.62482 0.0
C1791 C 0.65358 0.43627 0.6843 0.0
C1792 C 0.65194 0.43603 0.66368 0.0
H1793 H 0.60071 0.43001 0.56324 0.0
H1794 H 0.59761 0.42654 0.59664 0.0
H1795 H 0.73631 0.44383 0.62675 0.0
H1796 H 0.68461 0.45234 0.71914 0.0
H1797 H 0.69774 0.45051 0.68585 0.0
C1798 C 0.14927 0.3441 0.5649 0.0
C1799 C 0.14548 0.33469 0.55717 0.0
C1800 C 0.14853 0.34532 0.58421 0.0
C1801 C 0.08431 0.33247 0.62431 0.0
H1802 H 0.18484 0.34945 0.65491 0.0
C1803 C 0.10905 0.32693 0.7022 0.0
C1804 C 0.11699 0.33498 0.71398 0.0
C1805 C 0.10389 0.32823 0.68314 0.0
C1806 C 0.1555 0.34482 0.6465 0.0
H1807 H 0.14263 0.31921 0.5633 0.0
H1808 H 0.14338 0.32128 0.59673 0.0
H1809 H 0.20106 0.34915 0.62133 0.0
H1810 H 0.12409 0.35075 0.71521 0.0
H1811 H 0.11461 0.3531 0.68161 0.0
H1812 H 0.03912 0.32803 0.64923 0.0
C1813 C 0.14562 0.32774 0.58807 0.0
C1814 C 0.16511 0.34461 0.62729 0.0
C1815 C 0.14617 0.32654 0.56894 0.0
C1816 C 0.11651 0.34445 0.70643 0.0
C1817 C 0.11216 0.34576 0.6872 0.0
C1818 C 0.07453 0.33271 0.64337 0.0
C1819 C 0.14367 0.33713 0.59594 0.0
C1820 C 0.13083 0.3382 0.61608 0.0
C1821 C 0.10743 0.33763 0.67531 0.0
C1822 C 0.11113 0.33867 0.65481 0.0
H1823 H 0.14733 0.3505 0.5561 0.0
H1824 H 0.14722 0.35265 0.58988 0.0
H1825 H 0.05585 0.32765 0.61599 0.0
H1826 H 0.11046 0.31955 0.70766 0.0
H1827 H 0.10111 0.32179 0.67447 0.0
C1828 C 0.68141 0.33019 0.06257 0.0
C1829 C 0.65889 0.33838 0.05305 0.0
C1830 C 0.68545 0.33025 0.08183 0.0
C1831 C 0.67824 0.34512 0.12448 0.0
H1832 H 0.60143 0.32171 0.14423 0.0
C1833 C 0.64363 0.33898 0.2036 0.0
C1834 C 0.66427 0.32977 0.20964 0.0
C1835 C 0.6358 0.34083 0.18462 0.0
C1836 C 0.62325 0.32828 0.13899 0.0
H1837 H 0.62549 0.35323 0.05598 0.0
H1838 H 0.63358 0.35345 0.08983 0.0
H1839 H 0.61157 0.32369 0.11098 0.0
H1840 H 0.68971 0.31517 0.20081 0.0
H1841 H 0.67537 0.31828 0.16812 0.0
H1842 H 0.69109 0.34958 0.15268 0.0
C1843 C 0.64881 0.347 0.08238 0.0
C1844 C 0.62932 0.3294 0.11991 0.0
C1845 C 0.64483 0.34692 0.06301 0.0
C1846 C 0.67333 0.32232 0.19656 0.0
C1847 C 0.66499 0.32412 0.17777 0.0
C1848 C 0.67253 0.34397 0.1437 0.0
C1849 C 0.66625 0.33849 0.09201 0.0
C1850 C 0.65811 0.33772 0.11241 0.0
C1851 C 0.64769 0.33345 0.17146 0.0
C1852 C 0.64613 0.33542 0.15118 0.0
H1853 H 0.69116 0.32345 0.05521 0.0
H1854 H 0.70014 0.32364 0.08883 0.0
H1855 H 0.70025 0.35164 0.11909 0.0
H1856 H 0.63724 0.3449 0.2134 0.0
H1857 H 0.62193 0.34809 0.18022 0.0
C1858 C 0.13567 0.4314 0.21358 0.0
C1859 C 0.14333 0.44045 0.22251 0.0
C1860 C 0.13814 0.43082 0.1942 0.0
C1861 C 0.10134 0.44684 0.15528 0.0
H1862 H 0.17583 0.42716 0.12369 0.0
C1863 C 0.13325 0.45276 0.07775 0.0
C1864 C 0.12841 0.44488 0.06538 0.0
C1865 C 0.12815 0.45129 0.09674 0.0
C1866 C 0.15375 0.4326 0.13236 0.0
H1867 H 0.16357 0.45578 0.21852 0.0
H1868 H 0.17015 0.45474 0.18493 0.0
H1869 H 0.18944 0.42616 0.15733 0.0
H1870 H 0.11254 0.4293 0.06315 0.0
H1871 H 0.10306 0.42668 0.0967 0.0
H1872 H 0.06561 0.45332 0.1306 0.0
C1873 C 0.16131 0.44812 0.19272 0.0
C1874 C 0.16196 0.43206 0.15161 0.0
C1875 C 0.15865 0.44869 0.21196 0.0
C1876 C 0.11543 0.43552 0.07238 0.0
C1877 C 0.11096 0.43401 0.09157 0.0
C1878 C 0.09285 0.44735 0.13619 0.0
C1879 C 0.14784 0.4393 0.18356 0.0
C1880 C 0.13717 0.43934 0.16322 0.0
C1881 C 0.11852 0.44187 0.10398 0.0
C1882 C 0.12021 0.44039 0.12441 0.0
H1883 H 0.12202 0.425 0.22141 0.0
H1884 H 0.12755 0.42392 0.18755 0.0
H1885 H 0.07997 0.4524 0.16387 0.0
H1886 H 0.14381 0.46004 0.07274 0.0
H1887 H 0.13502 0.4575 0.10581 0.0
C1888 C 0.19192 0.18539 0.01475 0.0
C1889 C 0.13538 0.18737 1.00585 0.0
C1890 C 0.21762 0.17593 0.01399 0.0
C1891 C 0.1607 0.15107 1.01136 0.0
H1892 H 0.32664 0.14254 0.9985 0.0
C1893 C 0.21441 0.11041 1.00033 0.0
C1894 C 0.2717 0.10671 1.00636 0.0
C1895 C 0.20302 0.12048 1.00031 0.0
C1896 C 0.28032 0.14481 1.00239 0.0
H1897 H 0.06429 0.18141 0.98796 0.0
H1898 H 0.10909 0.16509 0.9865 0.0
H1899 H 0.30102 0.16004 0.99801 0.0
H1900 H 0.36218 0.11071 0.01704 0.0
H1901 H 0.34171 0.12827 0.01743 0.0
H1902 H 0.1395 0.13604 0.01604 0.0
C1903 C 0.13316 0.1707 0.99428 0.0
C1904 C 0.26579 0.15483 1.00207 0.0
C1905 C 0.10776 0.18005 0.99504 0.0
C1906 C 0.31751 0.11333 1.01228 0.0
C1907 C 0.30593 0.12341 1.01239 0.0
C1908 C 0.17524 0.14114 1.01187 0.0
C1909 C 0.18677 0.16841 1.00437 0.0
C1910 C 0.2054 0.15801 1.00617 0.0
C1911 C 0.24836 0.12712 1.00651 0.0
C1912 C 0.23482 0.13783 1.00702 0.0
H1913 H 0.21363 0.1909 0.02332 0.0
H1914 H 0.25913 0.17433 0.02186 0.0
H1915 H 0.11404 0.15335 0.01494 0.0
H1916 H 0.17832 0.10554 0.99551 0.0
H1917 H 0.15861 0.12305 0.99528 0.0
C1918 C 0.24639 0.16615 0.27476 0.0
C1919 C 0.30261 0.16948 0.26724 0.0
C1920 C 0.23494 0.15614 0.27661 0.0
C1921 C 0.27834 0.13205 0.25817 0.0
H1922 H 0.19849 0.12266 0.30277 0.0
C1923 C 0.19621 0.09176 0.26599 0.0
C1924 C 0.13409 0.09115 0.27169 0.0
C1925 C 0.22848 0.10065 0.26758 0.0
C1926 C 0.2209 0.12516 0.29023 0.0
H1927 H 0.39065 0.16485 0.25556 0.0
H1928 H 0.37022 0.14735 0.25865 0.0
H1929 H 0.23039 0.13972 0.30069 0.0
H1930 H 0.05824 0.09908 0.28451 0.0
H1931 H 0.11388 0.11436 0.28741 0.0
H1932 H 0.26657 0.11755 0.24745 0.0
C1933 C 0.33513 0.15251 0.26313 0.0
C1934 C 0.23897 0.13494 0.28902 0.0
C1935 C 0.34684 0.16254 0.26142 0.0
C1936 C 0.10607 0.09935 0.27992 0.0
C1937 C 0.1382 0.10811 0.28172 0.0
C1938 C 0.25992 0.12224 0.25934 0.0
C1939 C 0.27922 0.1492 0.27087 0.0
C1940 C 0.26633 0.13857 0.2728 0.0
C1941 C 0.1993 0.10897 0.27521 0.0
C1942 C 0.22931 0.11876 0.27519 0.0
H1943 H 0.21133 0.17128 0.27939 0.0
H1944 H 0.19099 0.15382 0.28237 0.0
H1945 H 0.29922 0.13463 0.24546 0.0
H1946 H 0.21867 0.08555 0.2595 0.0
H1947 H 0.27566 0.10108 0.26252 0.0
C1948 C 0.00356 0.85564 1.01013 0.0
C1949 C 0.95951 0.84809 1.01103 0.0
C1950 C 0.98487 0.86543 1.01072 0.0
C1951 C 0.85227 0.88161 1.00183 0.0
H1952 H 0.93961 0.89971 0.03377 0.0
C1953 C 0.76886 0.92147 1.01261 0.0
C1954 C 0.81455 0.92874 0.01407 0.0
C1955 C 0.78538 0.91157 1.01249 0.0
C1956 C 0.91519 0.8948 0.02458 0.0
H1957 H 0.8612 0.84491 1.01312 0.0
H1958 H 0.82865 0.86202 0.014 0.0
H1959 H 0.97109 0.88259 0.03283 0.0
H1960 H 0.91352 0.93132 0.01628 0.0
H1961 H 0.94236 0.91413 0.01561 0.0
H1962 H 0.79711 0.89382 0.99327 0.0
C1963 C 0.87761 0.86034 1.01282 0.0
C1964 C 0.93318 0.88498 0.02409 0.0
C1965 C 0.89632 0.85055 1.01242 0.0
C1966 C 0.87708 0.9259 0.01529 0.0
C1967 C 0.89362 0.91602 0.01502 0.0
C1968 C 0.83459 0.89145 1.00218 0.0
C1969 C 0.92171 0.86788 1.01206 0.0
C1970 C 0.90202 0.87829 1.01269 0.0
C1971 C 0.84801 0.90872 0.01369 0.0
C1972 C 0.86594 0.89819 0.01353 0.0
H1973 H 0.05259 0.854 1.00906 0.0
H1974 H 0.01985 0.87109 1.00993 0.0
H1975 H 0.82783 0.87663 0.99275 0.0
H1976 H 0.72024 0.92342 1.01173 0.0
H1977 H 0.74893 0.90615 1.01171 0.0
C1978 C 0.75421 0.85304 0.74915 0.0
C1979 C 0.78904 0.84479 0.75442 0.0
C1980 C 0.78141 0.86225 0.74819 0.0
C1981 C 0.90796 0.87637 0.76841 0.0
H1982 H 0.86269 0.89555 0.73122 0.0
C1983 C 0.02016 0.91439 0.76607 0.0
C1984 C 0.98314 0.92259 0.76185 0.0
C1985 C 0.99697 0.90494 0.76441 0.0
C1986 C 0.87514 0.89032 0.74183 0.0
H1987 H 0.88052 0.83966 0.76207 0.0
H1988 H 0.92872 0.85594 0.76045 0.0
H1989 H 0.82614 0.87871 0.72836 0.0
H1990 H 0.89214 0.9272 0.75259 0.0
H1991 H 0.85087 0.91052 0.74987 0.0
H1992 H 0.95612 0.88796 0.78206 0.0
C1993 C 0.87996 0.85521 0.75717 0.0
C1994 C 0.85456 0.88065 0.74014 0.0
C1995 C 0.85265 0.84589 0.75795 0.0
C1996 C 0.92182 0.92105 0.75597 0.0
C1997 C 0.89841 0.9115 0.7543 0.0
C1998 C 0.9284 0.88603 0.77013 0.0
C1999 C 0.84424 0.86351 0.75256 0.0
C2000 C 0.8705 0.87357 0.75345 0.0
C2001 C 0.93584 0.90333 0.75855 0.0
C2002 C 0.91223 0.89313 0.75688 0.0
H2003 H 0.70511 0.85242 0.74619 0.0
H2004 H 0.75234 0.86847 0.74478 0.0
H2005 H 0.92001 0.87117 0.77911 0.0
H2006 H 0.06776 0.91523 0.77057 0.0
H2007 H 0.02754 0.89886 0.76747 0.0
C2008 C 0.08034 0.67489 0.47972 0.0
C2009 C 0.07607 0.67893 0.49751 0.0
C2010 C 0.09794 0.66508 0.47738 0.0
C2011 C 0.16174 0.64341 0.50271 0.0
H2012 H 0.0551 0.62843 0.47012 0.0
C2013 C 0.13696 0.60249 0.51276 0.0
C2014 C 0.15073 0.59668 0.49731 0.0
C2015 C 0.12409 0.61243 0.51071 0.0
C2016 C 0.08547 0.63253 0.47915 0.0
H2017 H 0.08838 0.67612 0.52666 0.0
H2018 H 0.1199 0.65918 0.52275 0.0
H2019 H 0.04988 0.64634 0.46987 0.0
H2020 H 0.15857 0.59652 0.46751 0.0
H2021 H 0.13438 0.614 0.46379 0.0
H2022 H 0.19565 0.62964 0.51247 0.0
C2023 C 0.11092 0.66349 0.51048 0.0
C2024 C 0.08294 0.64279 0.47893 0.0
C2025 C 0.09318 0.67324 0.51278 0.0
C2026 C 0.14634 0.6008 0.47958 0.0
C2027 C 0.13326 0.61081 0.47749 0.0
C2028 C 0.16372 0.6332 0.50306 0.0
C2029 C 0.11138 0.65916 0.49282 0.0
C2030 C 0.12015 0.64836 0.49102 0.0
C2031 C 0.12515 0.6168 0.49314 0.0
C2032 C 0.12467 0.62765 0.49161 0.0
H2033 H 0.06555 0.67908 0.46779 0.0
H2034 H 0.09843 0.66201 0.46357 0.0
H2035 H 0.19209 0.64742 0.5119 0.0
H2036 H 0.14125 0.5995 0.52659 0.0
H2037 H 0.11697 0.61683 0.52299 0.0
C2038 C 0.15988 0.66845 0.79159 0.0
C2039 C 0.16346 0.67255 0.77384 0.0
C2040 C 0.14854 0.65841 0.79374 0.0
C2041 C 0.10197 0.63593 0.76766 0.0
H2042 H 0.21381 0.62258 0.80129 0.0
C2043 C 0.14684 0.59544 0.75864 0.0
C2044 C 0.13086 0.58978 0.77407 0.0
C2045 C 0.15773 0.60545 0.76053 0.0
C2046 C 0.18223 0.62623 0.7919 0.0
H2047 H 0.15552 0.66962 0.74458 0.0
H2048 H 0.13495 0.65229 0.74817 0.0
H2049 H 0.20774 0.64049 0.8016 0.0
H2050 H 0.11816 0.58991 0.80372 0.0
H2051 H 0.13919 0.60744 0.80718 0.0
H2052 H 0.07805 0.62174 0.75754 0.0
C2053 C 0.1399 0.65669 0.76053 0.0
C2054 C 0.17818 0.63648 0.79219 0.0
C2055 C 0.15144 0.66665 0.75842 0.0
C2056 C 0.13233 0.59407 0.7917 0.0
C2057 C 0.14351 0.60413 0.79363 0.0
C2058 C 0.10666 0.62576 0.76722 0.0
C2059 C 0.14059 0.65234 0.77816 0.0
C2060 C 0.13879 0.64147 0.7798 0.0
C2061 C 0.15261 0.60998 0.77791 0.0
C2062 C 0.14768 0.6208 0.77906 0.0
H2063 H 0.17065 0.67283 0.80365 0.0
H2064 H 0.14866 0.65532 0.80752 0.0
H2065 H 0.0701 0.63948 0.75822 0.0
H2066 H 0.1444 0.59233 0.74487 0.0
H2067 H 0.16549 0.60978 0.74821 0.0
C2068 C 0.84942 0.42707 0.54662 0.0
C2069 C 0.85879 0.43244 0.53033 0.0
C2070 C 0.86356 0.41707 0.54723 0.0
C2071 C 0.86128 0.39666 0.51504 0.0
H2072 H 0.93375 0.38126 0.55451 0.0
C2073 C 0.92753 0.35644 0.50551 0.0
C2074 C 0.92547 0.34996 0.52052 0.0
C2075 C 0.91241 0.36628 0.5078 0.0
C2076 C 0.91224 0.38544 0.54354 0.0
H2077 H 0.89294 0.43181 0.50226 0.0
H2078 H 0.91909 0.4144 0.50338 0.0
H2079 H 0.93161 0.39914 0.55693 0.0
H2080 H 0.90373 0.34854 0.54957 0.0
H2081 H 0.87578 0.36587 0.55364 0.0
H2082 H 0.8409 0.38309 0.50171 0.0
C2083 C 0.90082 0.41788 0.5157 0.0
C2084 C 0.91163 0.39568 0.54486 0.0
C2085 C 0.88703 0.42787 0.51515 0.0
C2086 C 0.90446 0.35337 0.53772 0.0
C2087 C 0.88958 0.36331 0.54008 0.0
C2088 C 0.86129 0.38647 0.51381 0.0
C2089 C 0.88629 0.41227 0.53142 0.0
C2090 C 0.88727 0.4014 0.53043 0.0
C2091 C 0.89513 0.36994 0.52522 0.0
C2092 C 0.88787 0.38071 0.52784 0.0
H2093 H 0.82575 0.43038 0.55827 0.0
H2094 H 0.85161 0.41294 0.5595 0.0
H2095 H 0.84041 0.40084 0.50394 0.0
H2096 H 0.9445 0.354 0.49217 0.0
H2097 H 0.91812 0.37112 0.49608 0.0
C2098 C 0.90163 0.34977 0.25897 0.0
C2099 C 0.88775 0.34417 0.24327 0.0
C2100 C 0.90862 0.35989 0.2576 0.0
C2101 C 0.92922 0.38122 0.22764 0.0
H2102 H 0.81627 0.39349 0.26244 0.0
C2103 C 0.90716 0.42338 0.23239 0.0
C2104 C 0.91101 0.42693 0.25056 0.0
C2105 C 0.89543 0.41343 0.22913 0.0
C2106 C 0.84827 0.39021 0.25268 0.0
H2107 H 0.87382 0.34461 0.21368 0.0
H2108 H 0.88802 0.36239 0.21114 0.0
H2109 H 0.8249 0.37575 0.26147 0.0
H2110 H 0.90311 0.42311 0.27944 0.0
H2111 H 0.88169 0.40594 0.27394 0.0
H2112 H 0.95445 0.39573 0.21936 0.0
C2113 C 0.89374 0.35892 0.22448 0.0
C2114 C 0.85328 0.38004 0.25216 0.0
C2115 C 0.88641 0.34874 0.22589 0.0
C2116 C 0.8988 0.42058 0.2653 0.0
C2117 C 0.88679 0.4107 0.26209 0.0
C2118 C 0.9248 0.39146 0.22832 0.0
C2119 C 0.90159 0.36462 0.24049 0.0
C2120 C 0.89479 0.37543 0.23995 0.0
C2121 C 0.88727 0.4069 0.24401 0.0
C2122 C 0.88524 0.39609 0.24117 0.0
H2123 H 0.90139 0.34644 0.27257 0.0
H2124 H 0.91548 0.3641 0.27013 0.0
H2125 H 0.96125 0.37784 0.21802 0.0
H2126 H 0.91811 0.42811 0.22083 0.0
H2127 H 0.89546 0.41077 0.21503 0.0
C2128 C 0.61863 0.09703 0.49459 0.0
C2129 C 0.68024 0.09504 0.4896 0.0
C2130 C 0.59464 0.10654 0.49267 0.0
C2131 C 0.65243 0.13202 0.49158 0.0
H2132 H 0.48103 0.13856 0.48136 0.0
C2133 C 0.56088 0.17212 0.49353 0.0
C2134 C 0.50408 0.17337 0.50278 0.0
C2135 C 0.58252 0.16268 0.4892 0.0
C2136 C 0.52908 0.13685 0.48431 0.0
H2137 H 0.76351 0.1011 0.47745 0.0
H2138 H 0.72129 0.11748 0.47344 0.0
H2139 H 0.51602 0.12165 0.47816 0.0
H2140 H 0.42543 0.16563 0.51457 0.0
H2141 H 0.46312 0.14943 0.50726 0.0
H2142 H 0.66523 0.14716 0.4981 0.0
C2143 C 0.69184 0.11189 0.47936 0.0
C2144 C 0.54906 0.12714 0.48249 0.0
C2145 C 0.71581 0.10247 0.48145 0.0
C2146 C 0.46945 0.16501 0.50745 0.0
C2147 C 0.49077 0.15566 0.50308 0.0
C2148 C 0.63247 0.14171 0.49338 0.0
C2149 C 0.6319 0.11417 0.48566 0.0
C2150 C 0.61086 0.12457 0.48632 0.0
C2151 C 0.5475 0.15434 0.49391 0.0
C2152 C 0.57031 0.14423 0.49006 0.0
H2153 H 0.59068 0.09145 0.50116 0.0
H2154 H 0.54832 0.10804 0.49773 0.0
H2155 H 0.70013 0.13031 0.49498 0.0
H2156 H 0.58858 0.1784 0.48968 0.0
H2157 H 0.62641 0.16191 0.48206 0.0
C2158 C 0.45177 0.11109 0.76466 0.0
C2159 C 0.49293 0.10339 0.76882 0.0
C2160 C 0.4673 0.12076 0.76841 0.0
C2161 C 0.57154 0.1366 0.79552 0.0
H2162 H 0.53024 0.15557 0.75757 0.0
C2163 C 0.68149 0.17475 0.79013 0.0
C2164 C 0.64679 0.18256 0.78286 0.0
C2165 C 0.65565 0.16547 0.7918 0.0
C2166 C 0.54089 0.15042 0.7685 0.0
H2167 H 0.58253 0.09988 0.78064 0.0
H2168 H 0.61054 0.11698 0.78698 0.0
H2169 H 0.50358 0.13847 0.75312 0.0
H2170 H 0.55679 0.18698 0.77265 0.0
H2171 H 0.51081 0.1706 0.77554 0.0
H2172 H 0.6103 0.1486 0.81068 0.0
C2173 C 0.56575 0.11542 0.78092 0.0
C2174 C 0.52594 0.14059 0.76591 0.0
C2175 C 0.54996 0.10564 0.77719 0.0
C2176 C 0.58424 0.18109 0.77841 0.0
C2177 C 0.55834 0.1717 0.77989 0.0
C2178 C 0.58663 0.14647 0.79811 0.0
C2179 C 0.52469 0.12309 0.77635 0.0
C2180 C 0.5413 0.13354 0.77933 0.0
C2181 C 0.59452 0.16373 0.78605 0.0
C2182 C 0.57192 0.15348 0.78454 0.0
H2183 H 0.40692 0.10969 0.75847 0.0
H2184 H 0.43395 0.12643 0.76511 0.0
H2185 H 0.5832 0.13139 0.80624 0.0
H2186 H 0.72994 0.17572 0.79367 0.0
H2187 H 0.68506 0.15953 0.79644 0.0
C2188 C 0.3759 0.92269 0.51666 0.0
C2189 C 0.35989 0.92862 0.53176 0.0
C2190 C 0.384 0.91263 0.51893 0.0
C2191 C 0.40548 0.892 0.5504 0.0
H2192 H 0.29423 0.87882 0.51645 0.0
C2193 C 0.38892 0.84967 0.54835 0.0
C2194 C 0.39228 0.84578 0.53042 0.0
C2195 C 0.37632 0.85967 0.55099 0.0
C2196 C 0.32583 0.88234 0.52597 0.0
H2197 H 0.34342 0.92883 0.56125 0.0
H2198 H 0.35968 0.91115 0.56539 0.0
H2199 H 0.30075 0.89658 0.51622 0.0
H2200 H 0.38284 0.84905 0.50134 0.0
H2201 H 0.36005 0.86627 0.50576 0.0
H2202 H 0.43257 0.87771 0.55962 0.0
C2203 C 0.36615 0.91433 0.55181 0.0
C2204 C 0.32956 0.89253 0.52582 0.0
C2205 C 0.35769 0.92445 0.5495 0.0
C2206 C 0.37888 0.85184 0.51532 0.0
C2207 C 0.36608 0.86175 0.51791 0.0
C2208 C 0.40241 0.88174 0.55038 0.0
C2209 C 0.37607 0.90828 0.53636 0.0
C2210 C 0.37039 0.89747 0.53772 0.0
C2211 C 0.36685 0.8659 0.53572 0.0
C2212 C 0.36352 0.87677 0.53785 0.0
H2213 H 0.3764 0.92569 0.5028 0.0
H2214 H 0.39237 0.90815 0.50682 0.0
H2215 H 0.43703 0.89564 0.55979 0.0
H2216 H 0.40082 0.84519 0.56018 0.0
H2217 H 0.37662 0.86258 0.56491 0.0
C2218 C 0.51497 0.91491 0.25259 0.0
C2219 C 0.47823 0.92343 0.25207 0.0
C2220 C 0.48886 0.90572 0.24964 0.0
C2221 C 0.34168 0.89269 0.25409 0.0
H2222 H 0.42867 0.87204 0.22785 0.0
C2223 C 0.23532 0.8545 0.24776 0.0
C2224 C 0.27441 0.8464 0.25069 0.0
C2225 C 0.25977 0.86382 0.24518 0.0
C2226 C 0.40405 0.8777 0.23535 0.0
H2227 H 0.38532 0.92896 0.24747 0.0
H2228 H 0.3392 0.91278 0.24237 0.0
H2229 H 0.47041 0.88865 0.22781 0.0
H2230 H 0.37009 0.84167 0.25238 0.0
H2231 H 0.4134 0.85812 0.24823 0.0
H2232 H 0.27628 0.88178 0.26208 0.0
C2233 C 0.38842 0.91328 0.24517 0.0
C2234 C 0.42782 0.88723 0.23527 0.0
C2235 C 0.4148 0.92254 0.24799 0.0
C2236 C 0.3389 0.84778 0.25013 0.0
C2237 C 0.36357 0.8572 0.24772 0.0
C2238 C 0.31808 0.88318 0.25422 0.0
C2239 C 0.42515 0.90475 0.24618 0.0
C2240 C 0.39718 0.89482 0.24478 0.0
C2241 C 0.32411 0.86537 0.24566 0.0
C2242 C 0.34906 0.87554 0.24495 0.0
H2243 H 0.56413 0.91531 0.25557 0.0
H2244 H 0.5184 0.89933 0.25074 0.0
H2245 H 0.31754 0.89831 0.26184 0.0
H2246 H 0.18536 0.85365 0.24777 0.0
H2247 H 0.22798 0.86986 0.24308 0.0
C2248 C 0.61971 0.67547 0.97714 0.0
C2249 C 0.62318 0.68018 0.99433 0.0
C2250 C 0.63192 0.66543 0.9757 0.0
C2251 C 0.6892 0.64372 1.00237 0.0
H2252 H 0.56382 0.62972 0.97447 0.0
C2253 C 0.64066 0.60387 0.01804 0.0
C2254 C 0.64749 0.59745 1.00304 0.0
C2255 C 0.63299 0.61388 0.0151 0.0
C2256 C 0.59931 0.63354 0.9822 0.0
H2257 H 0.64418 0.6783 0.02331 0.0
H2258 H 0.66626 0.66091 0.02095 0.0
H2259 H 0.57066 0.64754 0.97201 0.0
H2260 H 0.64743 0.59631 0.97321 0.0
H2261 H 0.63217 0.61392 0.96799 0.0
H2262 H 0.71618 0.62977 1.01309 0.0
C2263 C 0.65542 0.66487 1.0084 0.0
C2264 C 0.60373 0.64375 0.9807 0.0
C2265 C 0.64328 0.67489 1.00979 0.0
C2266 C 0.64051 0.60109 0.985 0.0
C2267 C 0.63265 0.61116 0.98203 0.0
C2268 C 0.68425 0.63358 1.00403 0.0
C2269 C 0.64723 0.65992 0.99151 0.0
C2270 C 0.64802 0.64899 0.99105 0.0
C2271 C 0.63226 0.61769 0.99708 0.0
C2272 C 0.63848 0.6284 0.99428 0.0
H2273 H 0.60244 0.67937 0.96515 0.0
H2274 H 0.62609 0.66189 0.96242 0.0
H2275 H 0.72472 0.64746 1.01024 0.0
H2276 H 0.64702 0.60125 0.03206 0.0
H2277 H 0.63172 0.61872 0.02696 0.0
C2278 C 0.6299 0.67273 0.29354 0.0
C2279 C 0.63825 0.67637 0.27558 0.0
C2280 C 0.6139 0.66289 0.29628 0.0
C2281 C 0.5621 0.64036 0.27134 0.0
H2282 H 0.66539 0.62669 0.30688 0.0
C2283 C 0.60185 0.5996 0.26409 0.0
C2284 C 0.58406 0.59399 0.2794 0.0
C2285 C 0.61216 0.60963 0.26595 0.0
C2286 C 0.63601 0.63043 0.29701 0.0
H2287 H 0.63406 0.67285 0.24648 0.0
H2288 H 0.60523 0.65587 0.25107 0.0
H2289 H 0.66516 0.64462 0.30614 0.0
H2290 H 0.56658 0.59424 0.30884 0.0
H2291 H 0.58649 0.61185 0.31226 0.0
H2292 H 0.53487 0.62621 0.26173 0.0
C2293 C 0.61005 0.6605 0.26314 0.0
C2294 C 0.63535 0.6407 0.29666 0.0
C2295 C 0.62633 0.67026 0.26045 0.0
C2296 C 0.58213 0.59838 0.29695 0.0
C2297 C 0.59272 0.60846 0.29885 0.0
C2298 C 0.56336 0.63016 0.27154 0.0
C2299 C 0.60592 0.65657 0.28107 0.0
C2300 C 0.59943 0.64578 0.28351 0.0
C2301 C 0.60454 0.61424 0.28316 0.0
C2302 C 0.6014 0.62508 0.28406 0.0
H2303 H 0.64051 0.67726 0.30541 0.0
H2304 H 0.61047 0.66013 0.31027 0.0
H2305 H 0.53282 0.64401 0.26131 0.0
H2306 H 0.60221 0.59641 0.25038 0.0
H2307 H 0.62208 0.61389 0.25369 0.0
C2308 C 0.38043 0.4283 0.01588 0.0
C2309 C 0.35664 0.4333 0.03125 0.0
C2310 C 0.39366 0.41831 0.01699 0.0
C2311 C 0.4138 0.39675 0.04669 0.0
H2312 H 0.32234 0.3837 1.00769 0.0
C2313 C 0.41057 0.35446 0.04059 0.0
C2314 C 0.42329 0.3511 0.02266 0.0
C2315 C 0.39423 0.36429 0.04352 0.0
C2316 C 0.34847 0.3872 0.01862 0.0
H2317 H 0.33142 0.43203 0.06008 0.0
H2318 H 0.35659 0.41456 0.06224 0.0
H2319 H 0.32255 0.40147 1.00928 0.0
H2320 H 0.42613 0.35507 0.99374 0.0
H2321 H 0.39711 0.37201 0.99866 0.0
H2322 H 0.44155 0.38245 0.05565 0.0
C2323 C 0.36531 0.41837 0.04938 0.0
C2324 C 0.34873 0.39739 0.01949 0.0
C2325 C 0.35165 0.42838 0.04822 0.0
C2326 C 0.41536 0.35747 1.00767 0.0
C2327 C 0.39882 0.3672 1.01054 0.0
C2328 C 0.41427 0.3865 0.04568 0.0
C2329 C 0.3831 0.41315 0.03349 0.0
C2330 C 0.38237 0.40229 0.03328 0.0
C2331 C 0.39016 0.37086 0.02854 0.0
C2332 C 0.38257 0.3816 0.03138 0.0
H2333 H 0.38298 0.43188 1.00254 0.0
H2334 H 0.40801 0.41448 1.00459 0.0
H2335 H 0.43966 0.40036 0.05756 0.0
H2336 H 0.41782 0.34972 0.05239 0.0
H2337 H 0.38721 0.36684 0.05755 0.0
C2338 C 0.40261 0.42062 0.76631 0.0
C2339 C 0.40782 0.42737 0.75179 0.0
C2340 C 0.39241 0.41075 0.76266 0.0
C2341 C 0.34418 0.39205 0.73012 0.0
H2342 H 0.47442 0.37683 0.75355 0.0
C2343 C 0.34431 0.34998 0.72555 0.0
C2344 C 0.35217 0.34537 0.74272 0.0
C2345 C 0.36056 0.35983 0.72329 0.0
C2346 C 0.4376 0.38093 0.74694 0.0
H2347 H 0.40197 0.42927 0.72215 0.0
H2348 H 0.38227 0.41186 0.7157 0.0
H2349 H 0.47371 0.39457 0.75664 0.0
H2350 H 0.38493 0.34719 0.77071 0.0
H2351 H 0.41412 0.36424 0.76688 0.0
H2352 H 0.30621 0.37838 0.72117 0.0
C2353 C 0.38628 0.41427 0.72991 0.0
C2354 C 0.43724 0.3911 0.7487 0.0
C2355 C 0.39677 0.42423 0.7336 0.0
C2356 C 0.38045 0.35051 0.75717 0.0
C2357 C 0.3967 0.36033 0.75495 0.0
C2358 C 0.34406 0.38182 0.72852 0.0
C2359 C 0.38725 0.40741 0.74439 0.0
C2360 C 0.38972 0.39674 0.74072 0.0
C2361 C 0.38444 0.36524 0.73823 0.0
C2362 C 0.38998 0.37611 0.73733 0.0
H2363 H 0.41155 0.42286 0.78044 0.0
H2364 H 0.39225 0.40563 0.77409 0.0
H2365 H 0.30718 0.39624 0.7238 0.0
H2366 H 0.32076 0.34623 0.71439 0.0
H2367 H 0.35126 0.36334 0.71016 0.0
loop_
_geom_bond_atom_site_label_1
_geom_bond_atom_site_label_2
_geom_bond_distance
_geom_bond_site_symmetry_2
_ccdc_geom_bond_type
C0 O2 1.247 1_554 S
C0 O4 1.258 . S
C1 O8 1.252 . S
C1 O9 1.252 1_554 S
O2 C0 1.247 1_556 S
O2 Zn3 2.028 . S
Zn3 O2 2.028 . S
Zn3 O7 2.035 1_556 S
Zn3 O9 2.035 . S
Zn3 O10 2.028 . S
O4 C0 1.258 . S
O4 Zn5 2.035 . S
Zn5 O4 2.035 . S
Zn5 O6 2.028 . S
Zn5 O8 2.028 . S
Zn5 O11 2.035 1_554 S
O6 Zn5 2.028 . S
O6 C12 1.247 . S
O7 Zn3 2.035 1_554 S
O7 C12 1.258 . S
O8 C1 1.252 . S
O8 Zn5 2.028 . S
O9 C1 1.252 1_556 S
O9 Zn3 2.035 . S
O10 Zn3 2.028 . S
O10 C13 1.247 . S
O11 Zn5 2.035 1_556 S
O11 C13 1.258 . S
C12 O6 1.247 . S
C12 O7 1.258 . S
C13 O10 1.247 . S
C13 O11 1.258 . S
C14 O16 1.247 1_554 S
C14 O18 1.258 . S
C15 O22 1.251 1_455 S
C15 O23 1.252 1_554 S
O16 C14 1.247 1_556 S
O16 Zn17 2.028 1_655 S
Zn17 O16 2.028 1_455 S
Zn17 O21 2.035 1_556 S
Zn17 O23 2.035 . S
Zn17 O24 2.028 . S
O18 C14 1.258 . S
O18 Zn19 2.035 . S
Zn19 O18 2.035 . S
Zn19 O20 2.028 . S
Zn19 O22 2.028 . S
Zn19 O25 2.035 1_554 S
O20 Zn19 2.028 . S
O20 C26 1.247 1_655 S
O21 Zn17 2.035 1_554 S
O21 C26 1.258 . S
O22 C15 1.251 1_655 S
O22 Zn19 2.028 . S
O23 C15 1.252 1_556 S
O23 Zn17 2.035 . S
O24 Zn17 2.028 . S
O24 C27 1.247 1_455 S
O25 Zn19 2.035 1_556 S
O25 C27 1.258 . S
C26 O20 1.247 1_455 S
C26 O21 1.258 . S
C27 O24 1.247 1_655 S
C27 O25 1.258 . S
C28 O30 1.247 . S
C28 O32 1.258 . S
C29 O36 1.247 . S
C29 O37 1.258 . S
O30 C28 1.247 . S
O30 Zn31 2.028 . S
Zn31 O30 2.028 . S
Zn31 O35 2.035 . S
Zn31 O37 2.035 . S
Zn31 O38 2.028 . S
O32 C28 1.258 . S
O32 Zn33 2.035 . S
Zn33 O32 2.035 . S
Zn33 O34 2.028 . S
Zn33 O36 2.028 . S
Zn33 O39 2.035 . S
O34 Zn33 2.028 . S
O34 C40 1.247 . S
O35 Zn31 2.035 . S
O35 C40 1.258 . S
O36 C29 1.247 . S
O36 Zn33 2.028 . S
O37 C29 1.258 . S
O37 Zn31 2.035 . S
O38 Zn31 2.028 . S
O38 C41 1.247 . S
O39 Zn33 2.035 . S
O39 C41 1.258 . S
C40 O34 1.247 . S
C40 O35 1.258 . S
C41 O38 1.247 . S
C41 O39 1.258 . S
C42 O44 1.247 . S
C42 O46 1.258 1_455 S
C43 O50 1.247 . S
C43 O51 1.258 . S
O44 C42 1.247 . S
O44 Zn45 2.028 . S
Zn45 O44 2.028 . S
Zn45 O49 2.035 . S
Zn45 O51 2.035 1_455 S
Zn45 O52 2.028 . S
O46 C42 1.258 1_655 S
O46 Zn47 2.035 . S
Zn47 O46 2.035 . S
Zn47 O48 2.028 . S
Zn47 O50 2.028 . S
Zn47 O53 2.035 . S
O48 Zn47 2.028 . S
O48 C54 1.247 . S
O49 Zn45 2.035 . S
O49 C54 1.258 1_455 S
O50 C43 1.247 . S
O50 Zn47 2.028 . S
O51 C43 1.258 . S
O51 Zn45 2.035 1_655 S
O52 Zn45 2.028 . S
O52 C55 1.247 . S
O53 Zn47 2.035 . S
O53 C55 1.258 1_655 S
C54 O48 1.247 . S
C54 O49 1.258 1_655 S
C55 O52 1.247 . S
C55 O53 1.258 1_455 S
C56 O58 1.247 . S
C56 O60 1.258 . S
C57 O64 1.247 . S
C57 O65 1.258 . S
O58 C56 1.247 . S
O58 Zn59 2.028 . S
Zn59 O58 2.028 . S
Zn59 O63 2.035 . S
Zn59 O65 2.035 1_554 S
Zn59 O66 2.028 . S
O60 C56 1.258 . S
O60 Zn61 2.035 1_554 S
Zn61 O60 2.035 1_556 S
Zn61 O62 2.028 . S
Zn61 O64 2.028 . S
Zn61 O67 2.035 . S
O62 Zn61 2.028 . S
O62 C68 1.252 . S
O63 Zn59 2.035 . S
O63 C68 1.252 1_554 S
O64 C57 1.247 . S
O64 Zn61 2.028 . S
O65 C57 1.258 . S
O65 Zn59 2.035 1_556 S
O66 Zn59 2.028 . S
O66 C69 1.247 1_554 S
O67 Zn61 2.035 . S
O67 C69 1.258 . S
C68 O62 1.252 . S
C68 O63 1.252 1_556 S
C69 O66 1.247 1_556 S
C69 O67 1.258 . S
C70 O72 1.247 . S
C70 O74 1.258 1_655 S
C71 O78 1.247 . S
C71 O79 1.258 1_455 S
O72 C70 1.247 . S
O72 Zn73 2.028 1_556 S
Zn73 O72 2.028 1_554 S
Zn73 O77 2.035 1_655 S
Zn73 O79 2.035 . S
Zn73 O80 2.028 . S
O74 C70 1.258 1_455 S
O74 Zn75 2.035 . S
Zn75 O74 2.035 . S
Zn75 O76 2.028 . S
Zn75 O78 2.028 1_556 S
Zn75 O81 2.035 . S
O76 Zn75 2.028 . S
O76 C82 1.247 . S
O77 Zn73 2.035 1_455 S
O77 C82 1.258 1_554 S
O78 C71 1.247 . S
O78 Zn75 2.028 1_554 S
O79 C71 1.258 1_655 S
O79 Zn73 2.035 . S
O80 Zn73 2.028 . S
O80 C83 1.241 1_554 S
O81 Zn75 2.035 . S
O81 C83 1.263 1_455 S
C82 O76 1.247 . S
C82 O77 1.258 1_556 S
C83 O80 1.241 1_556 S
C83 O81 1.263 1_655 S
C84 O86 1.247 . S
C84 O88 1.258 . S
C85 O92 1.247 . S
C85 O93 1.258 . S
O86 C84 1.247 . S
O86 Zn87 2.028 . S
Zn87 O86 2.028 . S
Zn87 O91 2.035 . S
Zn87 O93 2.035 . S
Zn87 O94 2.028 . S
O88 C84 1.258 . S
O88 Zn89 2.035 . S
Zn89 O88 2.035 . S
Zn89 O90 2.028 . S
Zn89 O92 2.028 . S
Zn89 O95 2.035 . S
O90 Zn89 2.028 . S
O90 C96 1.247 . S
O91 Zn87 2.035 . S
O91 C96 1.258 . S
O92 C85 1.247 . S
O92 Zn89 2.028 . S
O93 C85 1.258 . S
O93 Zn87 2.035 . S
O94 Zn87 2.028 . S
O94 C97 1.247 . S
O95 Zn89 2.035 . S
O95 C97 1.258 . S
C96 O90 1.247 . S
C96 O91 1.258 . S
C97 O94 1.247 . S
C97 O95 1.258 . S
C98 O100 1.247 . S
C98 O102 1.258 . S
C99 O106 1.247 . S
C99 O107 1.258 1_655 S
O100 C98 1.247 . S
O100 Zn101 2.028 . S
Zn101 O100 2.028 . S
Zn101 O105 2.035 . S
Zn101 O107 2.035 . S
Zn101 O108 2.028 . S
O102 C98 1.258 . S
O102 Zn103 2.035 1_455 S
Zn103 O102 2.035 1_655 S
Zn103 O104 2.028 . S
Zn103 O106 2.028 . S
Zn103 O109 2.035 . S
O104 Zn103 2.028 . S
O104 C110 1.247 . S
O105 Zn101 2.035 . S
O105 C110 1.258 1_455 S
O106 C99 1.247 . S
O106 Zn103 2.028 . S
O107 C99 1.258 1_455 S
O107 Zn101 2.035 . S
O108 Zn101 2.028 . S
O108 C111 1.247 . S
O109 Zn103 2.035 . S
O109 C111 1.258 1_655 S
C110 O104 1.247 . S
C110 O105 1.258 1_655 S
C111 O108 1.247 . S
C111 O109 1.258 1_455 S
C112 O114 1.247 . S
C112 O116 1.258 . S
C113 O120 1.247 . S
C113 O121 1.258 . S
O114 C112 1.247 . S
O114 Zn115 2.028 . S
Zn115 O114 2.028 . S
Zn115 O119 2.035 . S
Zn115 O121 2.035 . S
Zn115 O122 2.028 . S
O116 C112 1.258 . S
O116 Zn117 2.035 . S
Zn117 O116 2.035 . S
Zn117 O118 2.028 . S
Zn117 O120 2.028 . S
Zn117 O123 2.035 . S
O118 Zn117 2.028 . S
O118 C124 1.247 . S
O119 Zn115 2.035 . S
O119 C124 1.258 . S
O120 C113 1.247 . S
O120 Zn117 2.028 . S
O121 C113 1.258 . S
O121 Zn115 2.035 . S
O122 Zn115 2.028 . S
O122 C125 1.247 . S
O123 Zn117 2.035 . S
O123 C125 1.258 . S
C124 O118 1.247 . S
C124 O119 1.258 . S
C125 O122 1.247 . S
C125 O123 1.258 . S
C126 O128 1.247 . S
C126 O130 1.258 1_455 S
C127 O134 1.247 . S
C127 O135 1.258 . S
O128 C126 1.247 . S
O128 Zn129 2.028 . S
Zn129 O128 2.028 . S
Zn129 O133 2.035 . S
Zn129 O135 2.035 1_455 S
Zn129 O136 2.028 . S
O130 C126 1.258 1_655 S
O130 Zn131 2.035 . S
Zn131 O130 2.035 . S
Zn131 O132 2.028 . S
Zn131 O134 2.028 . S
Zn131 O137 2.035 . S
O132 Zn131 2.028 . S
O132 C138 1.247 . S
O133 Zn129 2.035 . S
O133 C138 1.258 1_455 S
O134 C127 1.247 . S
O134 Zn131 2.028 . S
O135 C127 1.258 . S
O135 Zn129 2.035 1_655 S
O136 Zn129 2.028 . S
O136 C139 1.247 . S
O137 Zn131 2.035 . S
O137 C139 1.258 1_655 S
C138 O132 1.247 . S
C138 O133 1.258 1_655 S
C139 O136 1.247 . S
C139 O137 1.258 1_455 S
C140 O142 1.247 . S
C140 O144 1.258 . S
C141 O148 1.247 . S
C141 O149 1.258 . S
O142 C140 1.247 . S
O142 Zn143 2.028 . S
Zn143 O142 2.028 . S
Zn143 O147 2.035 . S
Zn143 O149 2.035 . S
Zn143 O150 2.028 . S
O144 C140 1.258 . S
O144 Zn145 2.035 . S
Zn145 O144 2.035 . S
Zn145 O146 2.028 . S
Zn145 O148 2.028 . S
Zn145 O151 2.035 . S
O146 Zn145 2.028 . S
O146 C152 1.247 . S
O147 Zn143 2.035 . S
O147 C152 1.258 . S
O148 C141 1.247 . S
O148 Zn145 2.028 . S
O149 C141 1.258 . S
O149 Zn143 2.035 . S
O150 Zn143 2.028 . S
O150 C153 1.247 . S
O151 Zn145 2.035 . S
O151 C153 1.258 . S
C152 O146 1.247 . S
C152 O147 1.258 . S
C153 O150 1.247 . S
C153 O151 1.258 . S
C154 O156 1.247 . S
C154 O158 1.258 1_455 S
C155 O162 1.247 . S
C155 O163 1.258 . S
O156 C154 1.247 . S
O156 Zn157 2.028 . S
Zn157 O156 2.028 . S
Zn157 O161 2.035 . S
Zn157 O163 2.035 1_455 S
Zn157 O164 2.028 . S
O158 C154 1.258 1_655 S
O158 Zn159 2.035 . S
Zn159 O158 2.035 . S
Zn159 O160 2.028 . S
Zn159 O162 2.028 . S
Zn159 O165 2.035 . S
O160 Zn159 2.028 . S
O160 C166 1.247 . S
O161 Zn157 2.035 . S
O161 C166 1.258 1_455 S
O162 C155 1.247 . S
O162 Zn159 2.028 . S
O163 C155 1.258 . S
O163 Zn157 2.035 1_655 S
O164 Zn157 2.028 . S
O164 C167 1.247 . S
O165 Zn159 2.035 . S
O165 C167 1.258 1_655 S
C166 O160 1.247 . S
C166 O161 1.258 1_655 S
C167 O164 1.247 . S
C167 O165 1.258 1_455 S
C168 O170 1.247 . S
C168 O172 1.258 . S
C169 O176 1.247 . S
C169 O177 1.258 . S
O170 C168 1.247 . S
O170 Zn171 2.028 . S
Zn171 O170 2.028 . S
Zn171 O175 2.035 . S
Zn171 O177 2.035 . S
Zn171 O178 2.028 . S
O172 C168 1.258 . S
O172 Zn173 2.035 . S
Zn173 O172 2.035 . S
Zn173 O174 2.028 . S
Zn173 O176 2.028 . S
Zn173 O179 2.035 . S
O174 Zn173 2.028 . S
O174 C180 1.247 . S
O175 Zn171 2.035 . S
O175 C180 1.258 . S
O176 C169 1.247 . S
O176 Zn173 2.028 . S
O177 C169 1.258 . S
O177 Zn171 2.035 . S
O178 Zn171 2.028 . S
O178 C181 1.247 . S
O179 Zn173 2.035 . S
O179 C181 1.258 . S
C180 O174 1.247 . S
C180 O175 1.258 . S
C181 O178 1.247 . S
C181 O179 1.258 . S
C182 O184 1.247 1_455 S
C182 O186 1.258 . S
C183 O190 1.247 1_655 S
C183 O191 1.258 . S
O184 C182 1.247 1_655 S
O184 Zn185 2.028 . S
Zn185 O184 2.028 . S
Zn185 O189 2.035 . S
Zn185 O191 2.035 . S
Zn185 O192 2.028 1_655 S
O186 C182 1.258 . S
O186 Zn187 2.035 . S
Zn187 O186 2.035 . S
Zn187 O188 2.028 . S
Zn187 O190 2.028 . S
Zn187 O193 2.035 . S
O188 Zn187 2.028 . S
O188 C194 1.247 1_455 S
O189 Zn185 2.035 . S
O189 C194 1.258 . S
O190 C183 1.247 1_455 S
O190 Zn187 2.028 . S
O191 C183 1.258 . S
O191 Zn185 2.035 . S
O192 Zn185 2.028 1_455 S
O192 C195 1.247 . S
O193 Zn187 2.035 . S
O193 C195 1.258 . S
C194 O188 1.247 1_655 S
C194 O189 1.258 . S
C195 O192 1.247 . S
C195 O193 1.258 . S
C196 O198 1.247 . S
C196 O200 1.258 . S
C197 O204 1.247 . S
C197 O205 1.258 . S
O198 C196 1.247 . S
O198 Zn199 2.028 . S
Zn199 O198 2.028 . S
Zn199 O203 2.035 . S
Zn199 O205 2.035 . S
Zn199 O206 2.028 . S
O200 C196 1.258 . S
O200 Zn201 2.035 . S
Zn201 O200 2.035 . S
Zn201 O202 2.028 . S
Zn201 O204 2.028 . S
Zn201 O207 2.035 . S
O202 Zn201 2.028 . S
O202 C208 1.247 . S
O203 Zn199 2.035 . S
O203 C208 1.258 . S
O204 C197 1.247 . S
O204 Zn201 2.028 . S
O205 C197 1.258 . S
O205 Zn199 2.035 . S
O206 Zn199 2.028 . S
O206 C209 1.247 . S
O207 Zn201 2.035 . S
O207 C209 1.258 . S
C208 O202 1.247 . S
C208 O203 1.258 . S
C209 O206 1.247 . S
C209 O207 1.258 . S
C210 O212 1.247 . S
C210 O214 1.258 1_655 S
C211 O218 1.247 . S
C211 O219 1.258 1_455 S
O212 C210 1.247 . S
O212 Zn213 2.028 . S
Zn213 O212 2.028 . S
Zn213 O217 2.035 1_655 S
Zn213 O219 2.035 . S
Zn213 O220 2.028 . S
O214 C210 1.258 1_455 S
O214 Zn215 2.035 . S
Zn215 O214 2.035 . S
Zn215 O216 2.028 . S
Zn215 O218 2.028 . S
Zn215 O221 2.035 . S
O216 Zn215 2.028 . S
O216 C222 1.247 . S
O217 Zn213 2.035 1_455 S
O217 C222 1.258 . S
O218 C211 1.247 . S
O218 Zn215 2.028 . S
O219 C211 1.258 1_655 S
O219 Zn213 2.035 . S
O220 Zn213 2.028 . S
O220 C223 1.247 . S
O221 Zn215 2.035 . S
O221 C223 1.258 1_455 S
C222 O216 1.247 . S
C222 O217 1.258 . S
C223 O220 1.247 . S
C223 O221 1.258 1_655 S
C224 O226 1.247 . S
C224 O228 1.258 . S
C225 O232 1.247 . S
C225 O233 1.258 . S
O226 C224 1.247 . S
O226 Zn227 2.028 . S
Zn227 O226 2.028 . S
Zn227 O231 2.035 . S
Zn227 O233 2.035 . S
Zn227 O234 2.028 . S
O228 C224 1.258 . S
O228 Zn229 2.035 . S
Zn229 O228 2.035 . S
Zn229 O230 2.028 . S
Zn229 O232 2.028 . S
Zn229 O235 2.035 . S
O230 Zn229 2.028 . S
O230 C236 1.247 . S
O231 Zn227 2.035 . S
O231 C236 1.258 . S
O232 C225 1.247 . S
O232 Zn229 2.028 . S
O233 C225 1.258 . S
O233 Zn227 2.035 . S
O234 Zn227 2.028 . S
O234 C237 1.247 . S
O235 Zn229 2.035 . S
O235 C237 1.258 . S
C236 O230 1.247 . S
C236 O231 1.258 . S
C237 O234 1.247 . S
C237 O235 1.258 . S
C238 O240 1.247 . S
C238 O242 1.258 . S
C239 O246 1.247 . S
C239 O247 1.258 . S
O240 C238 1.247 . S
O240 Zn241 2.028 . S
Zn241 O240 2.028 . S
Zn241 O245 2.035 . S
Zn241 O247 2.035 . S
Zn241 O248 2.028 . S
O242 C238 1.258 . S
O242 Zn243 2.035 . S
Zn243 O242 2.035 . S
Zn243 O244 2.028 . S
Zn243 O246 2.028 . S
Zn243 O249 2.035 . S
O244 Zn243 2.028 . S
O244 C250 1.247 . S
O245 Zn241 2.035 . S
O245 C250 1.258 . S
O246 C239 1.247 . S
O246 Zn243 2.028 . S
O247 C239 1.258 . S
O247 Zn241 2.035 . S
O248 Zn241 2.028 . S
O248 C251 1.247 . S
O249 Zn243 2.035 . S
O249 C251 1.258 . S
C250 O244 1.247 . S
C250 O245 1.258 . S
C251 O248 1.247 . S
C251 O249 1.258 . S
C252 O254 1.247 . S
C252 O256 1.258 . S
C253 O260 1.247 . S
C253 O261 1.258 . S
O254 C252 1.247 . S
O254 Zn255 2.028 . S
Zn255 O254 2.028 . S
Zn255 O259 2.035 . S
Zn255 O261 2.035 . S
Zn255 O262 2.028 . S
O256 C252 1.258 . S
O256 Zn257 2.035 . S
Zn257 O256 2.035 . S
Zn257 O258 2.028 . S
Zn257 O260 2.028 . S
Zn257 O263 2.035 . S
O258 Zn257 2.028 . S
O258 C264 1.247 . S
O259 Zn255 2.035 . S
O259 C264 1.258 . S
O260 C253 1.247 . S
O260 Zn257 2.028 . S
O261 C253 1.258 . S
O261 Zn255 2.035 . S
O262 Zn255 2.028 . S
O262 C265 1.247 . S
O263 Zn257 2.035 . S
O263 C265 1.258 . S
C264 O258 1.247 . S
C264 O259 1.258 . S
C265 O262 1.247 . S
C265 O263 1.258 . S
C266 O268 1.247 . S
C266 O270 1.258 . S
C267 O274 1.247 . S
C267 O275 1.258 . S
O268 C266 1.247 . S
O268 Zn269 2.028 . S
Zn269 O268 2.028 . S
Zn269 O273 2.035 . S
Zn269 O275 2.035 . S
Zn269 O276 2.028 . S
O270 C266 1.258 . S
O270 Zn271 2.035 . S
Zn271 O270 2.035 . S
Zn271 O272 2.028 . S
Zn271 O274 2.028 . S
Zn271 O277 2.035 . S
O272 Zn271 2.028 . S
O272 C278 1.247 . S
O273 Zn269 2.035 . S
O273 C278 1.258 . S
O274 C267 1.247 . S
O274 Zn271 2.028 . S
O275 C267 1.258 . S
O275 Zn269 2.035 . S
O276 Zn269 2.028 . S
O276 C279 1.247 . S
O277 Zn271 2.035 . S
O277 C279 1.258 . S
C278 O272 1.247 . S
C278 O273 1.258 . S
C279 O276 1.247 . S
C279 O277 1.258 . S
C280 O282 1.247 . S
C280 O284 1.258 . S
C281 O288 1.247 . S
C281 O289 1.258 . S
O282 C280 1.247 . S
O282 Zn283 2.028 . S
Zn283 O282 2.028 . S
Zn283 O287 2.035 . S
Zn283 O289 2.035 . S
Zn283 O290 2.028 . S
O284 C280 1.258 . S
O284 Zn285 2.035 . S
Zn285 O284 2.035 . S
Zn285 O286 2.028 . S
Zn285 O288 2.028 . S
Zn285 O291 2.035 . S
O286 Zn285 2.028 . S
O286 C292 1.247 . S
O287 Zn283 2.035 . S
O287 C292 1.258 . S
O288 C281 1.247 . S
O288 Zn285 2.028 . S
O289 C281 1.258 . S
O289 Zn283 2.035 . S
O290 Zn283 2.028 . S
O290 C293 1.247 . S
O291 Zn285 2.035 . S
O291 C293 1.258 . S
C292 O286 1.247 . S
C292 O287 1.258 . S
C293 O290 1.247 . S
C293 O291 1.258 . S
C294 O296 1.247 . S
C294 O298 1.258 . S
C295 O302 1.247 . S
C295 O303 1.258 . S
O296 C294 1.247 . S
O296 Zn297 2.028 . S
Zn297 O296 2.028 . S
Zn297 O301 2.035 . S
Zn297 O303 2.035 . S
Zn297 O304 2.028 . S
O298 C294 1.258 . S
O298 Zn299 2.035 . S
Zn299 O298 2.035 . S
Zn299 O300 2.028 . S
Zn299 O302 2.028 . S
Zn299 O305 2.035 . S
O300 Zn299 2.028 . S
O300 C306 1.247 . S
O301 Zn297 2.035 . S
O301 C306 1.258 . S
O302 C295 1.247 . S
O302 Zn299 2.028 . S
O303 C295 1.258 . S
O303 Zn297 2.035 . S
O304 Zn297 2.028 . S
O304 C307 1.247 . S
O305 Zn299 2.035 . S
O305 C307 1.258 . S
C306 O300 1.247 . S
C306 O301 1.258 . S
C307 O304 1.247 . S
C307 O305 1.258 . S
C308 O310 1.247 . S
C308 O312 1.258 . S
C309 O316 1.247 . S
C309 O317 1.258 . S
O310 C308 1.247 . S
O310 Zn311 2.028 . S
Zn311 O310 2.028 . S
Zn311 O315 2.035 . S
Zn311 O317 2.035 . S
Zn311 O318 2.028 . S
O312 C308 1.258 . S
O312 Zn313 2.035 . S
Zn313 O312 2.035 . S
Zn313 O314 2.028 . S
Zn313 O316 2.028 . S
Zn313 O319 2.035 . S
O314 Zn313 2.028 . S
O314 C320 1.247 . S
O315 Zn311 2.035 . S
O315 C320 1.258 . S
O316 C309 1.247 . S
O316 Zn313 2.028 . S
O317 C309 1.258 . S
O317 Zn311 2.035 . S
O318 Zn311 2.028 . S
O318 C321 1.247 . S
O319 Zn313 2.035 . S
O319 C321 1.258 . S
C320 O314 1.247 . S
C320 O315 1.258 . S
C321 O318 1.247 . S
C321 O319 1.258 . S
C322 O324 1.247 . S
C322 O326 1.258 . S
C323 O330 1.247 . S
C323 O331 1.258 . S
O324 C322 1.247 . S
O324 Zn325 2.028 . S
Zn325 O324 2.028 . S
Zn325 O329 2.035 . S
Zn325 O331 2.035 . S
Zn325 O332 2.028 . S
O326 C322 1.258 . S
O326 Zn327 2.035 . S
Zn327 O326 2.035 . S
Zn327 O328 2.028 . S
Zn327 O330 2.028 . S
Zn327 O333 2.035 . S
O328 Zn327 2.028 . S
O328 C334 1.247 . S
O329 Zn325 2.035 . S
O329 C334 1.258 . S
O330 C323 1.247 . S
O330 Zn327 2.028 . S
O331 C323 1.258 . S
O331 Zn325 2.035 . S
O332 Zn325 2.028 . S
O332 C335 1.247 . S
O333 Zn327 2.035 . S
O333 C335 1.258 . S
C334 O328 1.247 . S
C334 O329 1.258 . S
C335 O332 1.247 . S
C335 O333 1.258 . S
C336 O338 1.247 . S
C336 O340 1.258 . S
C337 O344 1.247 . S
C337 O345 1.258 . S
O338 C336 1.247 . S
O338 Zn339 2.028 1_556 S
Zn339 O338 2.028 1_554 S
Zn339 O343 2.035 . S
Zn339 O345 2.035 . S
Zn339 O346 2.028 . S
O340 C336 1.258 . S
O340 Zn341 2.035 . S
Zn341 O340 2.035 . S
Zn341 O342 2.028 . S
Zn341 O344 2.028 1_556 S
Zn341 O347 2.035 . S
O342 Zn341 2.028 . S
O342 C348 1.241 1_556 S
O343 Zn339 2.035 . S
O343 C348 1.263 . S
O344 C337 1.247 . S
O344 Zn341 2.028 1_554 S
O345 C337 1.258 . S
O345 Zn339 2.035 . S
O346 Zn339 2.028 . S
O346 C349 1.247 . S
O347 Zn341 2.035 . S
O347 C349 1.258 1_556 S
C348 O342 1.241 1_554 S
C348 O343 1.263 . S
C349 O346 1.247 . S
C349 O347 1.258 1_554 S
C350 O352 1.247 1_554 S
C350 O354 1.258 . S
C351 O358 1.251 . S
C351 O359 1.252 1_554 S
O352 C350 1.247 1_556 S
O352 Zn353 2.028 . S
Zn353 O352 2.028 . S
Zn353 O357 2.035 1_556 S
Zn353 O359 2.035 . S
Zn353 O360 2.028 . S
O354 C350 1.258 . S
O354 Zn355 2.035 . S
Zn355 O354 2.035 . S
Zn355 O356 2.028 . S
Zn355 O358 2.028 . S
Zn355 O361 2.035 1_554 S
O356 Zn355 2.028 . S
O356 C362 1.247 . S
O357 Zn353 2.035 1_554 S
O357 C362 1.258 . S
O358 C351 1.251 . S
O358 Zn355 2.028 . S
O359 C351 1.252 1_556 S
O359 Zn353 2.035 . S
O360 Zn353 2.028 . S
O360 C363 1.247 . S
O361 Zn355 2.035 1_556 S
O361 C363 1.258 . S
C362 O356 1.247 . S
C362 O357 1.258 . S
C363 O360 1.247 . S
C363 O361 1.258 . S
C364 O366 1.247 . S
C364 O368 1.258 . S
C365 O372 1.247 . S
C365 O373 1.258 . S
O366 C364 1.247 . S
O366 Zn367 2.028 . S
Zn367 O366 2.028 . S
Zn367 O371 2.035 . S
Zn367 O373 2.035 . S
Zn367 O374 2.028 . S
O368 C364 1.258 . S
O368 Zn369 2.035 . S
Zn369 O368 2.035 . S
Zn369 O370 2.028 . S
Zn369 O372 2.028 . S
Zn369 O375 2.035 . S
O370 Zn369 2.028 . S
O370 C376 1.247 . S
O371 Zn367 2.035 . S
O371 C376 1.258 . S
O372 C365 1.247 . S
O372 Zn369 2.028 . S
O373 C365 1.258 . S
O373 Zn367 2.035 . S
O374 Zn367 2.028 . S
O374 C377 1.247 . S
O375 Zn369 2.035 . S
O375 C377 1.258 . S
C376 O370 1.247 . S
C376 O371 1.258 . S
C377 O374 1.247 . S
C377 O375 1.258 . S
C378 O380 1.247 . S
C378 O382 1.258 . S
C379 O386 1.247 . S
C379 O387 1.258 . S
O380 C378 1.247 . S
O380 Zn381 2.028 . S
Zn381 O380 2.028 . S
Zn381 O385 2.035 . S
Zn381 O387 2.035 . S
Zn381 O388 2.028 . S
O382 C378 1.258 . S
O382 Zn383 2.035 . S
Zn383 O382 2.035 . S
Zn383 O384 2.028 . S
Zn383 O386 2.028 . S
Zn383 O389 2.035 . S
O384 Zn383 2.028 . S
O384 C390 1.247 . S
O385 Zn381 2.035 . S
O385 C390 1.258 . S
O386 C379 1.247 . S
O386 Zn383 2.028 . S
O387 C379 1.258 . S
O387 Zn381 2.035 . S
O388 Zn381 2.028 . S
O388 C391 1.247 . S
O389 Zn383 2.035 . S
O389 C391 1.258 . S
C390 O384 1.247 . S
C390 O385 1.258 . S
C391 O388 1.247 . S
C391 O389 1.258 . S
C392 O394 1.247 . S
C392 O396 1.258 . S
C393 O400 1.247 . S
C393 O401 1.258 . S
O394 C392 1.247 . S
O394 Zn395 2.028 . S
Zn395 O394 2.028 . S
Zn395 O399 2.035 . S
Zn395 O401 2.035 1_554 S
Zn395 O402 2.028 . S
O396 C392 1.258 . S
O396 Zn397 2.035 1_554 S
Zn397 O396 2.035 1_556 S
Zn397 O398 2.028 . S
Zn397 O400 2.028 . S
Zn397 O403 2.035 . S
O398 Zn397 2.028 . S
O398 C404 1.251 . S
O399 Zn395 2.035 . S
O399 C404 1.252 1_554 S
O400 C393 1.247 . S
O400 Zn397 2.028 . S
O401 C393 1.258 . S
O401 Zn395 2.035 1_556 S
O402 Zn395 2.028 . S
O402 C405 1.247 1_554 S
O403 Zn397 2.035 . S
O403 C405 1.258 . S
C404 O398 1.251 . S
C404 O399 1.252 1_556 S
C405 O402 1.247 1_556 S
C405 O403 1.258 . S
C406 O408 1.247 . S
C406 O410 1.258 . S
C407 O414 1.247 . S
C407 O415 1.258 . S
O408 C406 1.247 . S
O408 Zn409 2.028 . S
Zn409 O408 2.028 . S
Zn409 O413 2.035 . S
Zn409 O415 2.035 1_554 S
Zn409 O416 2.028 . S
O410 C406 1.258 . S
O410 Zn411 2.035 1_554 S
Zn411 O410 2.035 1_556 S
Zn411 O412 2.028 . S
Zn411 O414 2.028 . S
Zn411 O417 2.035 . S
O412 Zn411 2.028 . S
O412 C418 1.251 . S
O413 Zn409 2.035 . S
O413 C418 1.252 1_554 S
O414 C407 1.247 . S
O414 Zn411 2.028 . S
O415 C407 1.258 . S
O415 Zn409 2.035 1_556 S
O416 Zn409 2.028 . S
O416 C419 1.247 1_554 S
O417 Zn411 2.035 . S
O417 C419 1.258 . S
C418 O412 1.251 . S
C418 O413 1.252 1_556 S
C419 O416 1.247 1_556 S
C419 O417 1.258 . S
C420 O422 1.247 . S
C420 O424 1.258 . S
C421 O428 1.247 . S
C421 O429 1.258 . S
O422 C420 1.247 . S
O422 Zn423 2.028 . S
Zn423 O422 2.028 . S
Zn423 O427 2.035 . S
Zn423 O429 2.035 . S
Zn423 O430 2.028 . S
O424 C420 1.258 . S
O424 Zn425 2.035 . S
Zn425 O424 2.035 . S
Zn425 O426 2.028 . S
Zn425 O428 2.028 . S
Zn425 O431 2.035 . S
O426 Zn425 2.028 . S
O426 C432 1.247 . S
O427 Zn423 2.035 . S
O427 C432 1.258 . S
O428 C421 1.247 . S
O428 Zn425 2.028 . S
O429 C421 1.258 . S
O429 Zn423 2.035 . S
O430 Zn423 2.028 . S
O430 C433 1.247 . S
O431 Zn425 2.035 . S
O431 C433 1.258 . S
C432 O426 1.247 . S
C432 O427 1.258 . S
C433 O430 1.247 . S
C433 O431 1.258 . S
C434 O436 1.247 . S
C434 O438 1.258 . S
C435 O442 1.247 . S
C435 O443 1.258 . S
O436 C434 1.247 . S
O436 Zn437 2.028 . S
Zn437 O436 2.028 . S
Zn437 O441 2.035 . S
Zn437 O443 2.035 . S
Zn437 O444 2.028 . S
O438 C434 1.258 . S
O438 Zn439 2.035 . S
Zn439 O438 2.035 . S
Zn439 O440 2.028 . S
Zn439 O442 2.028 . S
Zn439 O445 2.035 . S
O440 Zn439 2.028 . S
O440 C446 1.247 . S
O441 Zn437 2.035 . S
O441 C446 1.258 . S
O442 C435 1.247 . S
O442 Zn439 2.028 . S
O443 C435 1.258 . S
O443 Zn437 2.035 . S
O444 Zn437 2.028 . S
O444 C447 1.247 . S
O445 Zn439 2.035 . S
O445 C447 1.258 . S
C446 O440 1.247 . S
C446 O441 1.258 . S
C447 O444 1.247 . S
C447 O445 1.258 . S
C448 C449 1.349 . S
C448 C450 1.327 . S
C448 H473 0.950 . S
C449 C448 1.349 . S
C449 C465 1.349 . S
C450 C448 1.327 . S
C450 C469 1.429 . S
C450 H474 0.950 . S
C451 C468 1.574 . S
C451 C470 1.368 . S
C451 H475 0.949 . S
H452 C456 0.949 . S
C453 C454 1.349 . S
C453 C455 1.327 . S
C453 H476 0.950 . S
C454 C453 1.349 . S
C454 C466 1.349 . S
C455 C453 1.327 . S
C455 C471 1.429 . S
C455 H477 0.950 . S
C456 H452 0.949 . S
C456 C464 1.574 . S
C456 C472 1.368 . S
H457 C465 0.950 . S
H458 C463 0.950 . S
H459 C464 0.949 . S
H460 C466 0.950 1_655 S
H461 C467 0.950 . S
H462 C468 0.949 . S
C463 H458 0.950 . S
C463 C465 1.327 . S
C463 C469 1.429 . S
C464 C456 1.574 . S
C464 H459 0.949 . S
C464 C470 1.368 . S
C465 C449 1.349 . S
C465 H457 0.950 . S
C465 C463 1.327 . S
C466 C454 1.349 . S
C466 H460 0.950 1_455 S
C466 C467 1.327 . S
C467 H461 0.950 . S
C467 C466 1.327 . S
C467 C471 1.429 . S
C468 C451 1.574 . S
C468 H462 0.949 . S
C468 C472 1.368 . S
C469 C450 1.429 . S
C469 C463 1.429 . S
C469 C470 1.523 . S
C470 C451 1.368 . S
C470 C464 1.368 . S
C470 C469 1.523 . S
C471 C455 1.429 . S
C471 C467 1.429 . S
C471 C472 1.523 . S
C472 C456 1.368 . S
C472 C468 1.368 . S
C472 C471 1.523 . S
H473 C448 0.950 . S
H474 C450 0.950 . S
H475 C451 0.949 . S
H476 C453 0.950 . S
H477 C455 0.950 . S
C478 C479 1.349 . S
C478 C480 1.327 . S
C478 H503 0.950 . S
C479 C478 1.349 . S
C479 C495 1.349 . S
C480 C478 1.327 . S
C480 C499 1.429 . S
C480 H504 0.950 . S
C481 C498 1.574 . S
C481 C500 1.368 . S
C481 H505 0.949 . S
H482 C486 0.949 . S
C483 C484 1.349 . S
C483 C485 1.327 . S
C483 H506 0.950 . S
C484 C483 1.349 . S
C484 C496 1.349 . S
C485 C483 1.327 . S
C485 C501 1.429 . S
C485 H507 0.950 . S
C486 H482 0.949 . S
C486 C494 1.574 . S
C486 C502 1.368 . S
H487 C495 0.950 . S
H488 C493 0.950 . S
H489 C494 0.949 . S
H490 C496 0.950 1_655 S
H491 C497 0.950 . S
H492 C498 0.949 . S
C493 H488 0.950 . S
C493 C495 1.327 . S
C493 C499 1.429 . S
C494 C486 1.574 . S
C494 H489 0.949 . S
C494 C500 1.368 . S
C495 C479 1.349 . S
C495 H487 0.950 . S
C495 C493 1.327 . S
C496 C484 1.349 . S
C496 H490 0.950 1_455 S
C496 C497 1.327 . S
C497 H491 0.950 . S
C497 C496 1.327 . S
C497 C501 1.429 . S
C498 C481 1.574 . S
C498 H492 0.949 . S
C498 C502 1.368 . S
C499 C480 1.429 . S
C499 C493 1.429 . S
C499 C500 1.523 . S
C500 C481 1.368 . S
C500 C494 1.368 . S
C500 C499 1.523 . S
C501 C485 1.429 . S
C501 C497 1.429 . S
C501 C502 1.523 . S
C502 C486 1.368 . S
C502 C498 1.368 . S
C502 C501 1.523 . S
H503 C478 0.950 . S
H504 C480 0.950 . S
H505 C481 0.949 . S
H506 C483 0.950 . S
H507 C485 0.950 . S
C508 C509 1.349 . S
C508 C510 1.327 . S
C508 H533 0.950 . S
C509 C508 1.349 . S
C509 C525 1.349 . S
C510 C508 1.327 . S
C510 C529 1.429 . S
C510 H534 0.950 . S
C511 C528 1.574 . S
C511 C530 1.368 . S
C511 H535 0.949 . S
H512 C516 0.949 . S
C513 C514 1.349 . S
C513 C515 1.327 . S
C513 H536 0.950 . S
C514 C513 1.349 . S
C514 C526 1.349 . S
C515 C513 1.327 . S
C515 C531 1.429 . S
C515 H537 0.950 . S
C516 H512 0.949 . S
C516 C524 1.574 . S
C516 C532 1.368 . S
H517 C525 0.950 1_455 S
H518 C523 0.950 . S
H519 C524 0.949 . S
H520 C526 0.950 . S
H521 C527 0.950 . S
H522 C528 0.949 . S
C523 H518 0.950 . S
C523 C525 1.327 . S
C523 C529 1.429 . S
C524 C516 1.574 . S
C524 H519 0.949 . S
C524 C530 1.368 . S
C525 C509 1.349 . S
C525 H517 0.950 1_655 S
C525 C523 1.327 . S
C526 C514 1.349 . S
C526 H520 0.950 . S
C526 C527 1.327 . S
C527 H521 0.950 . S
C527 C526 1.327 . S
C527 C531 1.429 . S
C528 C511 1.574 . S
C528 H522 0.949 . S
C528 C532 1.368 . S
C529 C510 1.429 . S
C529 C523 1.429 . S
C529 C530 1.523 . S
C530 C511 1.368 . S
C530 C524 1.368 . S
C530 C529 1.523 . S
C531 C515 1.429 . S
C531 C527 1.429 . S
C531 C532 1.523 . S
C532 C516 1.368 . S
C532 C528 1.368 . S
C532 C531 1.523 . S
H533 C508 0.950 . S
H534 C510 0.950 . S
H535 C511 0.949 . S
H536 C513 0.950 . S
H537 C515 0.950 . S
C538 C539 1.349 . S
C538 C540 1.327 . S
C538 H563 0.950 . S
C539 C538 1.349 . S
C539 C555 1.349 . S
C540 C538 1.327 . S
C540 C559 1.429 . S
C540 H564 0.950 . S
C541 C558 1.574 . S
C541 C560 1.368 . S
C541 H565 0.949 . S
H542 C546 0.949 . S
C543 C544 1.349 . S
C543 C545 1.327 . S
C543 H566 0.950 1_655 S
C544 C543 1.349 . S
C544 C556 1.349 . S
C545 C543 1.327 . S
C545 C561 1.429 . S
C545 H567 0.950 . S
C546 H542 0.949 . S
C546 C554 1.574 . S
C546 C562 1.368 . S
H547 C555 0.950 . S
H548 C553 0.950 . S
H549 C554 0.949 . S
H550 C556 0.950 . S
H551 C557 0.950 . S
H552 C558 0.949 . S
C553 H548 0.950 . S
C553 C555 1.327 . S
C553 C559 1.429 . S
C554 C546 1.574 . S
C554 H549 0.949 . S
C554 C560 1.368 . S
C555 C539 1.349 . S
C555 H547 0.950 . S
C555 C553 1.327 . S
C556 C544 1.349 . S
C556 H550 0.950 . S
C556 C557 1.327 . S
C557 H551 0.950 . S
C557 C556 1.327 . S
C557 C561 1.429 . S
C558 C541 1.574 . S
C558 H552 0.949 . S
C558 C562 1.368 . S
C559 C540 1.429 . S
C559 C553 1.429 . S
C559 C560 1.523 . S
C560 C541 1.368 . S
C560 C554 1.368 . S
C560 C559 1.523 . S
C561 C545 1.429 . S
C561 C557 1.429 . S
C561 C562 1.523 . S
C562 C546 1.368 . S
C562 C558 1.368 . S
C562 C561 1.523 . S
H563 C538 0.950 . S
H564 C540 0.950 . S
H565 C541 0.949 . S
H566 C543 0.950 1_455 S
H567 C545 0.950 . S
C568 C569 1.349 . S
C568 C570 1.327 . S
C568 H593 0.950 . S
C569 C568 1.349 . S
C569 C585 1.349 . S
C570 C568 1.327 . S
C570 C589 1.429 . S
C570 H594 0.950 . S
C571 C588 1.574 . S
C571 C590 1.368 . S
C571 H595 0.949 . S
H572 C576 0.949 . S
C573 C574 1.349 . S
C573 C575 1.327 . S
C573 H596 0.950 . S
C574 C573 1.349 . S
C574 C586 1.349 . S
C575 C573 1.327 . S
C575 C591 1.429 . S
C575 H597 0.950 . S
C576 H572 0.949 . S
C576 C584 1.574 . S
C576 C592 1.368 . S
H577 C585 0.950 . S
H578 C583 0.950 . S
H579 C584 0.949 . S
H580 C586 0.950 1_655 S
H581 C587 0.950 . S
H582 C588 0.949 . S
C583 H578 0.950 . S
C583 C585 1.327 . S
C583 C589 1.429 . S
C584 C576 1.574 . S
C584 H579 0.949 . S
C584 C590 1.368 . S
C585 C569 1.349 . S
C585 H577 0.950 . S
C585 C583 1.327 . S
C586 C574 1.349 . S
C586 H580 0.950 1_455 S
C586 C587 1.327 . S
C587 H581 0.950 . S
C587 C586 1.327 . S
C587 C591 1.429 . S
C588 C571 1.574 . S
C588 H582 0.949 . S
C588 C592 1.368 . S
C589 C570 1.429 . S
C589 C583 1.429 . S
C589 C590 1.523 . S
C590 C571 1.368 . S
C590 C584 1.368 . S
C590 C589 1.523 . S
C591 C575 1.429 . S
C591 C587 1.429 . S
C591 C592 1.523 . S
C592 C576 1.368 . S
C592 C588 1.368 . S
C592 C591 1.523 . S
H593 C568 0.950 . S
H594 C570 0.950 . S
H595 C571 0.949 . S
H596 C573 0.950 . S
H597 C575 0.950 . S
C598 C599 1.349 . S
C598 C600 1.327 . S
C598 H623 0.950 1_455 S
C599 C598 1.349 . S
C599 C615 1.349 . S
C600 C598 1.327 . S
C600 C619 1.429 . S
C600 H624 0.950 . S
C601 C618 1.574 . S
C601 C620 1.368 . S
C601 H625 0.949 . S
H602 C606 0.949 . S
C603 C604 1.349 . S
C603 C605 1.327 . S
C603 H626 0.950 . S
C604 C603 1.349 . S
C604 C616 1.349 . S
C605 C603 1.327 . S
C605 C621 1.429 . S
C605 H627 0.950 . S
C606 H602 0.949 . S
C606 C614 1.574 . S
C606 C622 1.368 . S
H607 C615 0.950 . S
H608 C613 0.950 . S
H609 C614 0.949 . S
H610 C616 0.950 . S
H611 C617 0.950 . S
H612 C618 0.949 . S
C613 H608 0.950 . S
C613 C615 1.327 . S
C613 C619 1.429 . S
C614 C606 1.574 . S
C614 H609 0.949 . S
C614 C620 1.368 . S
C615 C599 1.349 . S
C615 H607 0.950 . S
C615 C613 1.327 . S
C616 C604 1.349 . S
C616 H610 0.950 . S
C616 C617 1.327 . S
C617 H611 0.950 . S
C617 C616 1.327 . S
C617 C621 1.429 . S
C618 C601 1.574 . S
C618 H612 0.949 . S
C618 C622 1.368 . S
C619 C600 1.429 . S
C619 C613 1.429 . S
C619 C620 1.523 . S
C620 C601 1.368 . S
C620 C614 1.368 . S
C620 C619 1.523 . S
C621 C605 1.429 . S
C621 C617 1.429 . S
C621 C622 1.523 . S
C622 C606 1.368 . S
C622 C618 1.368 . S
C622 C621 1.523 . S
H623 C598 0.950 1_655 S
H624 C600 0.950 . S
H625 C601 0.949 . S
H626 C603 0.950 . S
H627 C605 0.950 . S
C628 C629 1.349 . S
C628 C630 1.327 . S
C628 H653 0.950 1_655 S
C629 C628 1.349 . S
C629 C645 1.349 . S
C630 C628 1.327 . S
C630 C649 1.429 . S
C630 H654 0.950 . S
C631 C648 1.574 . S
C631 C650 1.368 . S
C631 H655 0.949 . S
H632 C636 0.949 . S
C633 C634 1.349 . S
C633 C635 1.327 . S
C633 H656 0.950 . S
C634 C633 1.349 . S
C634 C646 1.349 . S
C635 C633 1.327 . S
C635 C651 1.429 . S
C635 H657 0.950 . S
C636 H632 0.949 . S
C636 C644 1.574 . S
C636 C652 1.368 . S
H637 C645 0.950 . S
H638 C643 0.950 . S
H639 C644 0.949 . S
H640 C646 0.950 . S
H641 C647 0.950 . S
H642 C648 0.949 . S
C643 H638 0.950 . S
C643 C645 1.327 . S
C643 C649 1.429 . S
C644 C636 1.574 . S
C644 H639 0.949 . S
C644 C650 1.368 . S
C645 C629 1.349 . S
C645 H637 0.950 . S
C645 C643 1.327 . S
C646 C634 1.349 . S
C646 H640 0.950 . S
C646 C647 1.327 . S
C647 H641 0.950 . S
C647 C646 1.327 . S
C647 C651 1.429 . S
C648 C631 1.574 . S
C648 H642 0.949 . S
C648 C652 1.368 . S
C649 C630 1.429 . S
C649 C643 1.429 . S
C649 C650 1.523 . S
C650 C631 1.368 . S
C650 C644 1.368 . S
C650 C649 1.523 . S
C651 C635 1.429 . S
C651 C647 1.429 . S
C651 C652 1.523 . S
C652 C636 1.368 . S
C652 C648 1.368 . S
C652 C651 1.523 . S
H653 C628 0.950 1_455 S
H654 C630 0.950 . S
H655 C631 0.949 . S
H656 C633 0.950 . S
H657 C635 0.950 . S
C658 C659 1.349 . S
C658 C660 1.327 . S
C658 H683 0.950 . S
C659 C658 1.349 . S
C659 C675 1.349 . S
C660 C658 1.327 . S
C660 C679 1.429 . S
C660 H684 0.950 . S
C661 C678 1.574 . S
C661 C680 1.368 . S
C661 H685 0.949 . S
H662 C666 0.949 . S
C663 C664 1.349 . S
C663 C665 1.327 . S
C663 H686 0.950 . S
C664 C663 1.349 . S
C664 C676 1.349 . S
C665 C663 1.327 . S
C665 C681 1.429 . S
C665 H687 0.950 . S
C666 H662 0.949 . S
C666 C674 1.574 . S
C666 C682 1.368 . S
H667 C675 0.950 . S
H668 C673 0.950 . S
H669 C674 0.949 . S
H670 C676 0.950 1_455 S
H671 C677 0.950 . S
H672 C678 0.949 . S
C673 H668 0.950 . S
C673 C675 1.327 . S
C673 C679 1.429 . S
C674 C666 1.574 . S
C674 H669 0.949 . S
C674 C680 1.368 . S
C675 C659 1.349 . S
C675 H667 0.950 . S
C675 C673 1.327 . S
C676 C664 1.349 . S
C676 H670 0.950 1_655 S
C676 C677 1.327 . S
C677 H671 0.950 . S
C677 C676 1.327 . S
C677 C681 1.429 . S
C678 C661 1.574 . S
C678 H672 0.949 . S
C678 C682 1.368 . S
C679 C660 1.429 . S
C679 C673 1.429 . S
C679 C680 1.523 . S
C680 C661 1.368 . S
C680 C674 1.368 . S
C680 C679 1.523 . S
C681 C665 1.429 . S
C681 C677 1.429 . S
C681 C682 1.523 . S
C682 C666 1.368 . S
C682 C678 1.368 . S
C682 C681 1.523 . S
H683 C658 0.950 . S
H684 C660 0.950 . S
H685 C661 0.949 . S
H686 C663 0.950 . S
H687 C665 0.950 . S
C688 C689 1.349 . S
C688 C690 1.327 . S
C688 H713 0.950 . S
C689 C688 1.349 . S
C689 C705 1.349 . S
C690 C688 1.327 . S
C690 C709 1.429 . S
C690 H714 0.950 . S
C691 C708 1.574 . S
C691 C710 1.368 . S
C691 H715 0.949 . S
H692 C696 0.949 . S
C693 C694 1.349 . S
C693 C695 1.327 . S
C693 H716 0.950 . S
C694 C693 1.349 . S
C694 C706 1.349 . S
C695 C693 1.327 . S
C695 C711 1.429 . S
C695 H717 0.950 . S
C696 H692 0.949 . S
C696 C704 1.574 . S
C696 C712 1.368 . S
H697 C705 0.950 . S
H698 C703 0.950 . S
H699 C704 0.949 . S
H700 C706 0.950 . S
H701 C707 0.950 . S
H702 C708 0.949 . S
C703 H698 0.950 . S
C703 C705 1.327 . S
C703 C709 1.429 . S
C704 C696 1.574 . S
C704 H699 0.949 . S
C704 C710 1.368 . S
C705 C689 1.349 . S
C705 H697 0.950 . S
C705 C703 1.327 . S
C706 C694 1.349 . S
C706 H700 0.950 . S
C706 C707 1.327 . S
C707 H701 0.950 . S
C707 C706 1.327 . S
C707 C711 1.429 . S
C708 C691 1.574 . S
C708 H702 0.949 . S
C708 C712 1.368 . S
C709 C690 1.429 . S
C709 C703 1.429 . S
C709 C710 1.523 . S
C710 C691 1.368 . S
C710 C704 1.368 . S
C710 C709 1.523 . S
C711 C695 1.429 . S
C711 C707 1.429 . S
C711 C712 1.523 . S
C712 C696 1.368 . S
C712 C708 1.368 . S
C712 C711 1.523 . S
H713 C688 0.950 . S
H714 C690 0.950 . S
H715 C691 0.949 . S
H716 C693 0.950 . S
H717 C695 0.950 . S
C718 C719 1.349 . S
C718 C720 1.327 . S
C718 H743 0.950 . S
C719 C718 1.349 . S
C719 C735 1.349 . S
C720 C718 1.327 . S
C720 C739 1.429 . S
C720 H744 0.950 . S
C721 C738 1.574 . S
C721 C740 1.368 . S
C721 H745 0.949 . S
H722 C726 0.949 . S
C723 C724 1.349 . S
C723 C725 1.327 . S
C723 H746 0.950 . S
C724 C723 1.349 . S
C724 C736 1.349 . S
C725 C723 1.327 . S
C725 C741 1.429 . S
C725 H747 0.950 . S
C726 H722 0.949 . S
C726 C734 1.574 . S
C726 C742 1.368 . S
H727 C735 0.950 . S
H728 C733 0.950 . S
H729 C734 0.949 . S
H730 C736 0.950 . S
H731 C737 0.950 . S
H732 C738 0.949 . S
C733 H728 0.950 . S
C733 C735 1.327 . S
C733 C739 1.429 . S
C734 C726 1.574 . S
C734 H729 0.949 . S
C734 C740 1.368 . S
C735 C719 1.349 . S
C735 H727 0.950 . S
C735 C733 1.327 . S
C736 C724 1.349 . S
C736 H730 0.950 . S
C736 C737 1.327 . S
C737 H731 0.950 . S
C737 C736 1.327 . S
C737 C741 1.429 . S
C738 C721 1.574 . S
C738 H732 0.949 . S
C738 C742 1.368 . S
C739 C720 1.429 . S
C739 C733 1.429 . S
C739 C740 1.523 . S
C740 C721 1.368 . S
C740 C734 1.368 . S
C740 C739 1.523 . S
C741 C725 1.429 . S
C741 C737 1.429 . S
C741 C742 1.523 . S
C742 C726 1.368 . S
C742 C738 1.368 . S
C742 C741 1.523 . S
H743 C718 0.950 . S
H744 C720 0.950 . S
H745 C721 0.949 . S
H746 C723 0.950 . S
H747 C725 0.950 . S
C748 C749 1.349 . S
C748 C750 1.327 . S
C748 H773 0.950 . S
C749 C748 1.349 . S
C749 C765 1.349 . S
C750 C748 1.327 . S
C750 C769 1.429 . S
C750 H774 0.950 . S
C751 C768 1.574 . S
C751 C770 1.368 . S
C751 H775 0.949 . S
H752 C756 0.949 . S
C753 C754 1.349 . S
C753 C755 1.327 . S
C753 H776 0.950 . S
C754 C753 1.349 . S
C754 C766 1.349 . S
C755 C753 1.327 . S
C755 C771 1.429 . S
C755 H777 0.950 . S
C756 H752 0.949 . S
C756 C764 1.574 . S
C756 C772 1.368 . S
H757 C765 0.950 . S
H758 C763 0.950 . S
H759 C764 0.949 . S
H760 C766 0.950 . S
H761 C767 0.950 . S
H762 C768 0.949 . S
C763 H758 0.950 . S
C763 C765 1.327 . S
C763 C769 1.429 . S
C764 C756 1.574 . S
C764 H759 0.949 . S
C764 C770 1.368 . S
C765 C749 1.349 . S
C765 H757 0.950 . S
C765 C763 1.327 . S
C766 C754 1.349 . S
C766 H760 0.950 . S
C766 C767 1.327 . S
C767 H761 0.950 . S
C767 C766 1.327 . S
C767 C771 1.429 . S
C768 C751 1.574 . S
C768 H762 0.949 . S
C768 C772 1.368 . S
C769 C750 1.429 . S
C769 C763 1.429 . S
C769 C770 1.523 . S
C770 C751 1.368 . S
C770 C764 1.368 . S
C770 C769 1.523 . S
C771 C755 1.429 . S
C771 C767 1.429 . S
C771 C772 1.523 . S
C772 C756 1.368 . S
C772 C768 1.368 . S
C772 C771 1.523 . S
H773 C748 0.950 . S
H774 C750 0.950 . S
H775 C751 0.949 . S
H776 C753 0.950 . S
H777 C755 0.950 . S
C778 C779 1.349 . S
C778 C780 1.327 . S
C778 H803 0.950 . S
C779 C778 1.349 . S
C779 C795 1.349 . S
C780 C778 1.327 . S
C780 C799 1.429 . S
C780 H804 0.950 . S
C781 C798 1.574 . S
C781 C800 1.368 . S
C781 H805 0.949 . S
H782 C786 0.949 . S
C783 C784 1.349 . S
C783 C785 1.327 . S
C783 H806 0.950 . S
C784 C783 1.349 . S
C784 C796 1.349 . S
C785 C783 1.327 . S
C785 C801 1.429 . S
C785 H807 0.950 . S
C786 H782 0.949 . S
C786 C794 1.574 . S
C786 C802 1.368 . S
H787 C795 0.950 . S
H788 C793 0.950 . S
H789 C794 0.949 . S
H790 C796 0.950 . S
H791 C797 0.950 . S
H792 C798 0.949 . S
C793 H788 0.950 . S
C793 C795 1.327 . S
C793 C799 1.429 . S
C794 C786 1.574 . S
C794 H789 0.949 . S
C794 C800 1.368 . S
C795 C779 1.349 . S
C795 H787 0.950 . S
C795 C793 1.327 . S
C796 C784 1.349 . S
C796 H790 0.950 . S
C796 C797 1.327 . S
C797 H791 0.950 . S
C797 C796 1.327 . S
C797 C801 1.429 . S
C798 C781 1.574 . S
C798 H792 0.949 . S
C798 C802 1.368 . S
C799 C780 1.429 . S
C799 C793 1.429 . S
C799 C800 1.523 . S
C800 C781 1.368 . S
C800 C794 1.368 . S
C800 C799 1.523 . S
C801 C785 1.429 . S
C801 C797 1.429 . S
C801 C802 1.523 . S
C802 C786 1.368 . S
C802 C798 1.368 . S
C802 C801 1.523 . S
H803 C778 0.950 . S
H804 C780 0.950 . S
H805 C781 0.949 . S
H806 C783 0.950 . S
H807 C785 0.950 . S
C808 C809 1.349 . S
C808 C810 1.327 . S
C808 H833 0.950 . S
C809 C808 1.349 . S
C809 C825 1.349 . S
C810 C808 1.327 . S
C810 C829 1.429 . S
C810 H834 0.950 . S
C811 C828 1.574 . S
C811 C830 1.368 . S
C811 H835 0.949 . S
H812 C816 0.949 . S
C813 C814 1.349 . S
C813 C815 1.327 . S
C813 H836 0.950 . S
C814 C813 1.349 . S
C814 C826 1.349 . S
C815 C813 1.327 . S
C815 C831 1.429 . S
C815 H837 0.950 . S
C816 H812 0.949 . S
C816 C824 1.574 . S
C816 C832 1.368 . S
H817 C825 0.950 . S
H818 C823 0.950 . S
H819 C824 0.949 . S
H820 C826 0.950 . S
H821 C827 0.950 . S
H822 C828 0.949 . S
C823 H818 0.950 . S
C823 C825 1.327 . S
C823 C829 1.429 . S
C824 C816 1.574 . S
C824 H819 0.949 . S
C824 C830 1.368 . S
C825 C809 1.349 . S
C825 H817 0.950 . S
C825 C823 1.327 . S
C826 C814 1.349 . S
C826 H820 0.950 . S
C826 C827 1.327 . S
C827 H821 0.950 . S
C827 C826 1.327 . S
C827 C831 1.429 . S
C828 C811 1.574 . S
C828 H822 0.949 . S
C828 C832 1.368 . S
C829 C810 1.429 . S
C829 C823 1.429 . S
C829 C830 1.523 . S
C830 C811 1.368 . S
C830 C824 1.368 . S
C830 C829 1.523 . S
C831 C815 1.429 . S
C831 C827 1.429 . S
C831 C832 1.523 . S
C832 C816 1.368 . S
C832 C828 1.368 . S
C832 C831 1.523 . S
H833 C808 0.950 . S
H834 C810 0.950 . S
H835 C811 0.949 . S
H836 C813 0.950 . S
H837 C815 0.950 . S
C838 C839 1.349 . S
C838 C840 1.327 . S
C838 H863 0.950 . S
C839 C838 1.349 . S
C839 C855 1.349 . S
C840 C838 1.327 . S
C840 C859 1.429 . S
C840 H864 0.950 . S
C841 C858 1.574 . S
C841 C860 1.368 . S
C841 H865 0.949 . S
H842 C846 0.949 . S
C843 C844 1.349 . S
C843 C845 1.327 . S
C843 H866 0.950 . S
C844 C843 1.349 . S
C844 C856 1.349 . S
C845 C843 1.327 . S
C845 C861 1.429 . S
C845 H867 0.950 . S
C846 H842 0.949 . S
C846 C854 1.574 . S
C846 C862 1.368 . S
H847 C855 0.950 . S
H848 C853 0.950 . S
H849 C854 0.949 . S
H850 C856 0.950 . S
H851 C857 0.950 . S
H852 C858 0.949 . S
C853 H848 0.950 . S
C853 C855 1.327 . S
C853 C859 1.429 . S
C854 C846 1.574 . S
C854 H849 0.949 . S
C854 C860 1.368 . S
C855 C839 1.349 . S
C855 H847 0.950 . S
C855 C853 1.327 . S
C856 C844 1.349 . S
C856 H850 0.950 . S
C856 C857 1.327 . S
C857 H851 0.950 . S
C857 C856 1.327 . S
C857 C861 1.429 . S
C858 C841 1.574 . S
C858 H852 0.949 . S
C858 C862 1.368 . S
C859 C840 1.429 . S
C859 C853 1.429 . S
C859 C860 1.523 . S
C860 C841 1.368 . S
C860 C854 1.368 . S
C860 C859 1.523 . S
C861 C845 1.429 . S
C861 C857 1.429 . S
C861 C862 1.523 . S
C862 C846 1.368 . S
C862 C858 1.368 . S
C862 C861 1.523 . S
H863 C838 0.950 . S
H864 C840 0.950 . S
H865 C841 0.949 . S
H866 C843 0.950 . S
H867 C845 0.950 . S
C868 C869 1.349 . S
C868 C870 1.327 . S
C868 H893 0.950 . S
C869 C868 1.349 . S
C869 C885 1.349 . S
C870 C868 1.327 . S
C870 C889 1.429 . S
C870 H894 0.950 . S
C871 C888 1.574 . S
C871 C890 1.368 . S
C871 H895 0.949 . S
H872 C876 0.949 . S
C873 C874 1.349 . S
C873 C875 1.327 . S
C873 H896 0.950 . S
C874 C873 1.349 . S
C874 C886 1.349 . S
C875 C873 1.327 . S
C875 C891 1.429 . S
C875 H897 0.950 . S
C876 H872 0.949 . S
C876 C884 1.574 . S
C876 C892 1.368 . S
H877 C885 0.950 . S
H878 C883 0.950 . S
H879 C884 0.949 . S
H880 C886 0.950 . S
H881 C887 0.950 . S
H882 C888 0.949 . S
C883 H878 0.950 . S
C883 C885 1.327 . S
C883 C889 1.429 . S
C884 C876 1.574 . S
C884 H879 0.949 . S
C884 C890 1.368 . S
C885 C869 1.349 . S
C885 H877 0.950 . S
C885 C883 1.327 . S
C886 C874 1.349 . S
C886 H880 0.950 . S
C886 C887 1.327 . S
C887 H881 0.950 . S
C887 C886 1.327 . S
C887 C891 1.429 . S
C888 C871 1.574 . S
C888 H882 0.949 . S
C888 C892 1.368 . S
C889 C870 1.429 . S
C889 C883 1.429 . S
C889 C890 1.523 . S
C890 C871 1.368 . S
C890 C884 1.368 . S
C890 C889 1.523 . S
C891 C875 1.429 . S
C891 C887 1.429 . S
C891 C892 1.523 . S
C892 C876 1.368 . S
C892 C888 1.368 . S
C892 C891 1.523 . S
H893 C868 0.950 . S
H894 C870 0.950 . S
H895 C871 0.949 . S
H896 C873 0.950 . S
H897 C875 0.950 . S
C898 C899 1.349 . S
C898 C900 1.327 . S
C898 H923 0.950 . S
C899 C898 1.349 . S
C899 C915 1.349 . S
C900 C898 1.327 . S
C900 C919 1.429 . S
C900 H924 0.950 . S
C901 C918 1.574 . S
C901 C920 1.368 . S
C901 H925 0.949 . S
H902 C906 0.949 . S
C903 C904 1.349 . S
C903 C905 1.327 . S
C903 H926 0.950 . S
C904 C903 1.349 . S
C904 C916 1.349 . S
C905 C903 1.327 . S
C905 C921 1.429 . S
C905 H927 0.950 . S
C906 H902 0.949 . S
C906 C914 1.574 . S
C906 C922 1.368 . S
H907 C915 0.950 . S
H908 C913 0.950 . S
H909 C914 0.949 . S
H910 C916 0.950 . S
H911 C917 0.950 . S
H912 C918 0.949 . S
C913 H908 0.950 . S
C913 C915 1.327 . S
C913 C919 1.429 . S
C914 C906 1.574 . S
C914 H909 0.949 . S
C914 C920 1.368 . S
C915 C899 1.349 . S
C915 H907 0.950 . S
C915 C913 1.327 . S
C916 C904 1.349 . S
C916 H910 0.950 . S
C916 C917 1.327 . S
C917 H911 0.950 . S
C917 C916 1.327 . S
C917 C921 1.429 . S
C918 C901 1.574 . S
C918 H912 0.949 . S
C918 C922 1.368 . S
C919 C900 1.429 . S
C919 C913 1.429 . S
C919 C920 1.523 . S
C920 C901 1.368 . S
C920 C914 1.368 . S
C920 C919 1.523 . S
C921 C905 1.429 . S
C921 C917 1.429 . S
C921 C922 1.523 . S
C922 C906 1.368 . S
C922 C918 1.368 . S
C922 C921 1.523 . S
H923 C898 0.950 . S
H924 C900 0.950 . S
H925 C901 0.949 . S
H926 C903 0.950 . S
H927 C905 0.950 . S
C928 C929 1.329 1_556 S
C928 C930 1.327 . S
C928 H953 0.950 . S
C929 C928 1.329 1_554 S
C929 C945 1.369 . S
C930 C928 1.327 . S
C930 C949 1.421 1_556 S
C930 H954 0.950 . S
C931 C948 1.574 1_545 S
C931 C950 1.369 . S
C931 H955 0.949 . S
H932 C936 0.949 . S
C933 C934 1.329 1_554 S
C933 C935 1.327 . S
C933 H956 0.950 . S
C934 C933 1.329 1_556 S
C934 C946 1.369 . S
C935 C933 1.327 . S
C935 C951 1.421 1_554 S
C935 H957 0.950 . S
C936 H932 0.949 . S
C936 C944 1.574 1_565 S
C936 C952 1.369 . S
H937 C945 0.950 . S
H938 C943 0.950 . S
H939 C944 0.949 . S
H940 C946 0.950 . S
H941 C947 0.950 . S
H942 C948 0.949 . S
C943 H938 0.950 . S
C943 C945 1.327 . S
C943 C949 1.436 . S
C944 C936 1.574 1_545 S
C944 H939 0.949 . S
C944 C950 1.367 1_556 S
C945 C929 1.369 . S
C945 H937 0.950 . S
C945 C943 1.327 . S
C946 C934 1.369 . S
C946 H940 0.950 . S
C946 C947 1.327 . S
C947 H941 0.950 . S
C947 C946 1.327 . S
C947 C951 1.436 . S
C948 C931 1.574 1_565 S
C948 H942 0.949 . S
C948 C952 1.368 1_554 S
C949 C930 1.421 1_554 S
C949 C943 1.436 . S
C949 C950 1.523 . S
C950 C931 1.369 . S
C950 C944 1.367 1_554 S
C950 C949 1.523 . S
C951 C935 1.421 1_556 S
C951 C947 1.436 . S
C951 C952 1.523 . S
C952 C936 1.369 . S
C952 C948 1.368 1_556 S
C952 C951 1.523 . S
H953 C928 0.950 . S
H954 C930 0.950 . S
H955 C931 0.949 . S
H956 C933 0.950 . S
H957 C935 0.950 . S
C958 C959 1.329 1_554 S
C958 C960 1.327 . S
C958 H983 0.950 . S
C959 C958 1.329 1_556 S
C959 C975 1.369 . S
C960 C958 1.327 . S
C960 C979 1.421 1_554 S
C960 H984 0.950 . S
C961 C978 1.574 . S
C961 C980 1.369 . S
C961 H985 0.949 . S
H962 C966 0.949 . S
C963 C964 1.329 1_556 S
C963 C965 1.327 . S
C963 H986 0.950 . S
C964 C963 1.329 1_554 S
C964 C976 1.369 . S
C965 C963 1.327 . S
C965 C981 1.421 1_556 S
C965 H987 0.950 . S
C966 H962 0.949 . S
C966 C974 1.574 . S
C966 C982 1.369 . S
H967 C975 0.950 . S
H968 C973 0.950 . S
H969 C974 0.949 . S
H970 C976 0.950 . S
H971 C977 0.950 . S
H972 C978 0.949 . S
C973 H968 0.950 . S
C973 C975 1.327 . S
C973 C979 1.436 . S
C974 C966 1.574 . S
C974 H969 0.949 . S
C974 C980 1.367 1_554 S
C975 C959 1.369 . S
C975 H967 0.950 . S
C975 C973 1.327 . S
C976 C964 1.369 . S
C976 H970 0.950 . S
C976 C977 1.327 . S
C977 H971 0.950 . S
C977 C976 1.327 . S
C977 C981 1.436 . S
C978 C961 1.574 . S
C978 H972 0.949 . S
C978 C982 1.368 1_556 S
C979 C960 1.421 1_556 S
C979 C973 1.436 . S
C979 C980 1.523 . S
C980 C961 1.369 . S
C980 C974 1.367 1_556 S
C980 C979 1.523 . S
C981 C965 1.421 1_554 S
C981 C977 1.436 . S
C981 C982 1.523 . S
C982 C966 1.369 . S
C982 C978 1.368 1_554 S
C982 C981 1.523 . S
H983 C958 0.950 . S
H984 C960 0.950 . S
H985 C961 0.949 . S
H986 C963 0.950 . S
H987 C965 0.950 . S
C988 C989 1.349 . S
C988 C990 1.327 . S
C988 H1013 0.950 . S
C989 C988 1.349 . S
C989 C1005 1.349 . S
C990 C988 1.327 . S
C990 C1009 1.429 . S
C990 H1014 0.950 . S
C991 C1008 1.574 . S
C991 C1010 1.368 . S
C991 H1015 0.949 . S
H992 C996 0.949 . S
C993 C994 1.349 . S
C993 C995 1.327 . S
C993 H1016 0.950 . S
C994 C993 1.349 . S
C994 C1006 1.349 . S
C995 C993 1.327 . S
C995 C1011 1.429 . S
C995 H1017 0.950 . S
C996 H992 0.949 . S
C996 C1004 1.574 . S
C996 C1012 1.368 . S
H997 C1005 0.950 . S
H998 C1003 0.950 . S
H999 C1004 0.949 . S
H1000 C1006 0.950 . S
H1001 C1007 0.950 . S
H1002 C1008 0.949 . S
C1003 H998 0.950 . S
C1003 C1005 1.327 . S
C1003 C1009 1.429 . S
C1004 C996 1.574 . S
C1004 H999 0.949 . S
C1004 C1010 1.368 . S
C1005 C989 1.349 . S
C1005 H997 0.950 . S
C1005 C1003 1.327 . S
C1006 C994 1.349 . S
C1006 H1000 0.950 . S
C1006 C1007 1.327 . S
C1007 H1001 0.950 . S
C1007 C1006 1.327 . S
C1007 C1011 1.429 . S
C1008 C991 1.574 . S
C1008 H1002 0.949 . S
C1008 C1012 1.368 . S
C1009 C990 1.429 . S
C1009 C1003 1.429 . S
C1009 C1010 1.523 . S
C1010 C991 1.368 . S
C1010 C1004 1.368 . S
C1010 C1009 1.523 . S
C1011 C995 1.429 . S
C1011 C1007 1.429 . S
C1011 C1012 1.523 . S
C1012 C996 1.368 . S
C1012 C1008 1.368 . S
C1012 C1011 1.523 . S
H1013 C988 0.950 . S
H1014 C990 0.950 . S
H1015 C991 0.949 . S
H1016 C993 0.950 . S
H1017 C995 0.950 . S
C1018 C1019 1.349 . S
C1018 C1020 1.327 . S
C1018 H1043 0.950 . S
C1019 C1018 1.349 . S
C1019 C1035 1.349 . S
C1020 C1018 1.327 . S
C1020 C1039 1.429 . S
C1020 H1044 0.950 . S
C1021 C1038 1.574 1_565 S
C1021 C1040 1.368 . S
C1021 H1045 0.949 . S
H1022 C1026 0.949 . S
C1023 C1024 1.349 . S
C1023 C1025 1.327 . S
C1023 H1046 0.950 . S
C1024 C1023 1.349 . S
C1024 C1036 1.349 . S
C1025 C1023 1.327 . S
C1025 C1041 1.429 . S
C1025 H1047 0.950 . S
C1026 H1022 0.949 . S
C1026 C1034 1.574 1_545 S
C1026 C1042 1.368 . S
H1027 C1035 0.950 . S
H1028 C1033 0.950 . S
H1029 C1034 0.949 . S
H1030 C1036 0.950 . S
H1031 C1037 0.950 . S
H1032 C1038 0.949 . S
C1033 H1028 0.950 . S
C1033 C1035 1.327 . S
C1033 C1039 1.429 . S
C1034 C1026 1.574 1_565 S
C1034 H1029 0.949 . S
C1034 C1040 1.368 . S
C1035 C1019 1.349 . S
C1035 H1027 0.950 . S
C1035 C1033 1.327 . S
C1036 C1024 1.349 . S
C1036 H1030 0.950 . S
C1036 C1037 1.327 . S
C1037 H1031 0.950 . S
C1037 C1036 1.327 . S
C1037 C1041 1.429 . S
C1038 C1021 1.574 1_545 S
C1038 H1032 0.949 . S
C1038 C1042 1.368 . S
C1039 C1020 1.429 . S
C1039 C1033 1.429 . S
C1039 C1040 1.523 . S
C1040 C1021 1.368 . S
C1040 C1034 1.368 . S
C1040 C1039 1.523 . S
C1041 C1025 1.429 . S
C1041 C1037 1.429 . S
C1041 C1042 1.523 . S
C1042 C1026 1.368 . S
C1042 C1038 1.368 . S
C1042 C1041 1.523 . S
H1043 C1018 0.950 . S
H1044 C1020 0.950 . S
H1045 C1021 0.949 . S
H1046 C1023 0.950 . S
H1047 C1025 0.950 . S
C1048 C1049 1.369 . S
C1048 C1050 1.327 . S
C1048 H1073 0.950 . S
C1049 C1048 1.369 . S
C1049 C1065 1.329 1_554 S
C1050 C1048 1.327 . S
C1050 C1069 1.436 . S
C1050 H1074 0.950 . S
C1051 C1068 1.574 . S
C1051 C1070 1.368 1_556 S
C1051 H1075 0.949 . S
H1052 C1056 0.949 . S
C1053 C1054 1.369 . S
C1053 C1055 1.327 . S
C1053 H1076 0.950 . S
C1054 C1053 1.369 . S
C1054 C1066 1.329 1_556 S
C1055 C1053 1.327 . S
C1055 C1071 1.436 . S
C1055 H1077 0.950 . S
C1056 H1052 0.949 . S
C1056 C1064 1.574 . S
C1056 C1072 1.368 1_554 S
H1057 C1065 0.950 . S
H1058 C1063 0.950 . S
H1059 C1064 0.949 . S
H1060 C1066 0.950 . S
H1061 C1067 0.950 . S
H1062 C1068 0.949 . S
C1063 H1058 0.950 . S
C1063 C1065 1.327 . S
C1063 C1069 1.421 1_556 S
C1064 C1056 1.574 . S
C1064 H1059 0.949 . S
C1064 C1070 1.369 . S
C1065 C1049 1.329 1_556 S
C1065 H1057 0.950 . S
C1065 C1063 1.327 . S
C1066 C1054 1.329 1_554 S
C1066 H1060 0.950 . S
C1066 C1067 1.327 . S
C1067 H1061 0.950 . S
C1067 C1066 1.327 . S
C1067 C1071 1.421 1_554 S
C1068 C1051 1.574 . S
C1068 H1062 0.949 . S
C1068 C1072 1.369 . S
C1069 C1050 1.436 . S
C1069 C1063 1.421 1_554 S
C1069 C1070 1.523 . S
C1070 C1051 1.368 1_554 S
C1070 C1064 1.369 . S
C1070 C1069 1.523 . S
C1071 C1055 1.436 . S
C1071 C1067 1.421 1_556 S
C1071 C1072 1.523 . S
C1072 C1056 1.368 1_556 S
C1072 C1068 1.369 . S
C1072 C1071 1.523 . S
H1073 C1048 0.950 . S
H1074 C1050 0.950 . S
H1075 C1051 0.949 . S
H1076 C1053 0.950 . S
H1077 C1055 0.950 . S
C1078 C1079 1.349 . S
C1078 C1080 1.327 . S
C1078 H1103 0.950 . S
C1079 C1078 1.349 . S
C1079 C1095 1.349 . S
C1080 C1078 1.327 . S
C1080 C1099 1.429 . S
C1080 H1104 0.950 . S
C1081 C1098 1.574 . S
C1081 C1100 1.368 . S
C1081 H1105 0.949 . S
H1082 C1086 0.949 . S
C1083 C1084 1.349 . S
C1083 C1085 1.327 . S
C1083 H1106 0.950 . S
C1084 C1083 1.349 . S
C1084 C1096 1.349 . S
C1085 C1083 1.327 . S
C1085 C1101 1.429 . S
C1085 H1107 0.950 . S
C1086 H1082 0.949 . S
C1086 C1094 1.574 . S
C1086 C1102 1.368 . S
H1087 C1095 0.950 . S
H1088 C1093 0.950 . S
H1089 C1094 0.949 . S
H1090 C1096 0.950 . S
H1091 C1097 0.950 . S
H1092 C1098 0.949 . S
C1093 H1088 0.950 . S
C1093 C1095 1.327 . S
C1093 C1099 1.429 . S
C1094 C1086 1.574 . S
C1094 H1089 0.949 . S
C1094 C1100 1.368 . S
C1095 C1079 1.349 . S
C1095 H1087 0.950 . S
C1095 C1093 1.327 . S
C1096 C1084 1.349 . S
C1096 H1090 0.950 . S
C1096 C1097 1.327 . S
C1097 H1091 0.950 . S
C1097 C1096 1.327 . S
C1097 C1101 1.429 . S
C1098 C1081 1.574 . S
C1098 H1092 0.949 . S
C1098 C1102 1.368 . S
C1099 C1080 1.429 . S
C1099 C1093 1.429 . S
C1099 C1100 1.523 . S
C1100 C1081 1.368 . S
C1100 C1094 1.368 . S
C1100 C1099 1.523 . S
C1101 C1085 1.429 . S
C1101 C1097 1.429 . S
C1101 C1102 1.523 . S
C1102 C1086 1.368 . S
C1102 C1098 1.368 . S
C1102 C1101 1.523 . S
H1103 C1078 0.950 . S
H1104 C1080 0.950 . S
H1105 C1081 0.949 . S
H1106 C1083 0.950 . S
H1107 C1085 0.950 . S
C1108 C1109 1.349 . S
C1108 C1110 1.327 . S
C1108 H1133 0.950 . S
C1109 C1108 1.349 . S
C1109 C1125 1.349 . S
C1110 C1108 1.327 . S
C1110 C1129 1.429 . S
C1110 H1134 0.950 . S
C1111 C1128 1.574 1_565 S
C1111 C1130 1.368 . S
C1111 H1135 0.949 . S
H1112 C1116 0.949 . S
C1113 C1114 1.349 . S
C1113 C1115 1.327 . S
C1113 H1136 0.950 . S
C1114 C1113 1.349 . S
C1114 C1126 1.349 . S
C1115 C1113 1.327 . S
C1115 C1131 1.429 . S
C1115 H1137 0.950 . S
C1116 H1112 0.949 . S
C1116 C1124 1.574 1_545 S
C1116 C1132 1.368 . S
H1117 C1125 0.950 . S
H1118 C1123 0.950 . S
H1119 C1124 0.949 . S
H1120 C1126 0.950 . S
H1121 C1127 0.950 . S
H1122 C1128 0.949 . S
C1123 H1118 0.950 . S
C1123 C1125 1.327 . S
C1123 C1129 1.429 . S
C1124 C1116 1.574 1_565 S
C1124 H1119 0.949 . S
C1124 C1130 1.368 . S
C1125 C1109 1.349 . S
C1125 H1117 0.950 . S
C1125 C1123 1.327 . S
C1126 C1114 1.349 . S
C1126 H1120 0.950 . S
C1126 C1127 1.327 . S
C1127 H1121 0.950 . S
C1127 C1126 1.327 . S
C1127 C1131 1.429 . S
C1128 C1111 1.574 1_545 S
C1128 H1122 0.949 . S
C1128 C1132 1.368 . S
C1129 C1110 1.429 . S
C1129 C1123 1.429 . S
C1129 C1130 1.523 . S
C1130 C1111 1.368 . S
C1130 C1124 1.368 . S
C1130 C1129 1.523 . S
C1131 C1115 1.429 . S
C1131 C1127 1.429 . S
C1131 C1132 1.523 . S
C1132 C1116 1.368 . S
C1132 C1128 1.368 . S
C1132 C1131 1.523 . S
H1133 C1108 0.950 . S
H1134 C1110 0.950 . S
H1135 C1111 0.949 . S
H1136 C1113 0.950 . S
H1137 C1115 0.950 . S
C1138 C1139 1.349 . S
C1138 C1140 1.327 . S
C1138 H1163 0.950 . S
C1139 C1138 1.349 . S
C1139 C1155 1.349 . S
C1140 C1138 1.327 . S
C1140 C1159 1.429 . S
C1140 H1164 0.950 . S
C1141 C1158 1.574 . S
C1141 C1160 1.368 . S
C1141 H1165 0.949 . S
H1142 C1146 0.949 . S
C1143 C1144 1.349 . S
C1143 C1145 1.327 . S
C1143 H1166 0.950 . S
C1144 C1143 1.349 . S
C1144 C1156 1.349 . S
C1145 C1143 1.327 . S
C1145 C1161 1.429 . S
C1145 H1167 0.950 . S
C1146 H1142 0.949 . S
C1146 C1154 1.574 . S
C1146 C1162 1.368 . S
H1147 C1155 0.950 . S
H1148 C1153 0.950 . S
H1149 C1154 0.949 . S
H1150 C1156 0.950 . S
H1151 C1157 0.950 . S
H1152 C1158 0.949 . S
C1153 H1148 0.950 . S
C1153 C1155 1.327 . S
C1153 C1159 1.429 . S
C1154 C1146 1.574 . S
C1154 H1149 0.949 . S
C1154 C1160 1.368 . S
C1155 C1139 1.349 . S
C1155 H1147 0.950 . S
C1155 C1153 1.327 . S
C1156 C1144 1.349 . S
C1156 H1150 0.950 . S
C1156 C1157 1.327 . S
C1157 H1151 0.950 . S
C1157 C1156 1.327 . S
C1157 C1161 1.429 . S
C1158 C1141 1.574 . S
C1158 H1152 0.949 . S
C1158 C1162 1.368 . S
C1159 C1140 1.429 . S
C1159 C1153 1.429 . S
C1159 C1160 1.523 . S
C1160 C1141 1.368 . S
C1160 C1154 1.368 . S
C1160 C1159 1.523 . S
C1161 C1145 1.429 . S
C1161 C1157 1.429 . S
C1161 C1162 1.523 . S
C1162 C1146 1.368 . S
C1162 C1158 1.368 . S
C1162 C1161 1.523 . S
H1163 C1138 0.950 . S
H1164 C1140 0.950 . S
H1165 C1141 0.949 . S
H1166 C1143 0.950 . S
H1167 C1145 0.950 . S
C1168 C1169 1.349 . S
C1168 C1170 1.327 . S
C1168 H1193 0.950 . S
C1169 C1168 1.349 . S
C1169 C1185 1.349 . S
C1170 C1168 1.327 . S
C1170 C1189 1.429 . S
C1170 H1194 0.950 . S
C1171 C1188 1.574 . S
C1171 C1190 1.368 . S
C1171 H1195 0.949 . S
H1172 C1176 0.949 . S
C1173 C1174 1.349 . S
C1173 C1175 1.327 . S
C1173 H1196 0.950 . S
C1174 C1173 1.349 . S
C1174 C1186 1.349 . S
C1175 C1173 1.327 . S
C1175 C1191 1.429 . S
C1175 H1197 0.950 . S
C1176 H1172 0.949 . S
C1176 C1184 1.574 . S
C1176 C1192 1.368 . S
H1177 C1185 0.950 . S
H1178 C1183 0.950 . S
H1179 C1184 0.949 . S
H1180 C1186 0.950 . S
H1181 C1187 0.950 . S
H1182 C1188 0.949 . S
C1183 H1178 0.950 . S
C1183 C1185 1.327 . S
C1183 C1189 1.429 . S
C1184 C1176 1.574 . S
C1184 H1179 0.949 . S
C1184 C1190 1.368 . S
C1185 C1169 1.349 . S
C1185 H1177 0.950 . S
C1185 C1183 1.327 . S
C1186 C1174 1.349 . S
C1186 H1180 0.950 . S
C1186 C1187 1.327 . S
C1187 H1181 0.950 . S
C1187 C1186 1.327 . S
C1187 C1191 1.429 . S
C1188 C1171 1.574 . S
C1188 H1182 0.949 . S
C1188 C1192 1.368 . S
C1189 C1170 1.429 . S
C1189 C1183 1.429 . S
C1189 C1190 1.523 . S
C1190 C1171 1.368 . S
C1190 C1184 1.368 . S
C1190 C1189 1.523 . S
C1191 C1175 1.429 . S
C1191 C1187 1.429 . S
C1191 C1192 1.523 . S
C1192 C1176 1.368 . S
C1192 C1188 1.368 . S
C1192 C1191 1.523 . S
H1193 C1168 0.950 . S
H1194 C1170 0.950 . S
H1195 C1171 0.949 . S
H1196 C1173 0.950 . S
H1197 C1175 0.950 . S
C1198 C1199 1.349 . S
C1198 C1200 1.327 . S
C1198 H1223 0.950 . S
C1199 C1198 1.349 . S
C1199 C1215 1.349 . S
C1200 C1198 1.327 . S
C1200 C1219 1.429 . S
C1200 H1224 0.950 . S
C1201 C1218 1.574 . S
C1201 C1220 1.368 . S
C1201 H1225 0.949 . S
H1202 C1206 0.949 . S
C1203 C1204 1.349 . S
C1203 C1205 1.327 . S
C1203 H1226 0.950 . S
C1204 C1203 1.349 . S
C1204 C1216 1.349 . S
C1205 C1203 1.327 . S
C1205 C1221 1.429 . S
C1205 H1227 0.950 . S
C1206 H1202 0.949 . S
C1206 C1214 1.574 . S
C1206 C1222 1.368 . S
H1207 C1215 0.950 . S
H1208 C1213 0.950 . S
H1209 C1214 0.949 . S
H1210 C1216 0.950 . S
H1211 C1217 0.950 . S
H1212 C1218 0.949 . S
C1213 H1208 0.950 . S
C1213 C1215 1.327 . S
C1213 C1219 1.429 . S
C1214 C1206 1.574 . S
C1214 H1209 0.949 . S
C1214 C1220 1.368 . S
C1215 C1199 1.349 . S
C1215 H1207 0.950 . S
C1215 C1213 1.327 . S
C1216 C1204 1.349 . S
C1216 H1210 0.950 . S
C1216 C1217 1.327 . S
C1217 H1211 0.950 . S
C1217 C1216 1.327 . S
C1217 C1221 1.429 . S
C1218 C1201 1.574 . S
C1218 H1212 0.949 . S
C1218 C1222 1.368 . S
C1219 C1200 1.429 . S
C1219 C1213 1.429 . S
C1219 C1220 1.523 . S
C1220 C1201 1.368 . S
C1220 C1214 1.368 . S
C1220 C1219 1.523 . S
C1221 C1205 1.429 . S
C1221 C1217 1.429 . S
C1221 C1222 1.523 . S
C1222 C1206 1.368 . S
C1222 C1218 1.368 . S
C1222 C1221 1.523 . S
H1223 C1198 0.950 . S
H1224 C1200 0.950 . S
H1225 C1201 0.949 . S
H1226 C1203 0.950 . S
H1227 C1205 0.950 . S
C1228 C1229 1.349 . S
C1228 C1230 1.327 . S
C1228 H1253 0.950 . S
C1229 C1228 1.349 . S
C1229 C1245 1.349 . S
C1230 C1228 1.327 . S
C1230 C1249 1.429 . S
C1230 H1254 0.950 . S
C1231 C1248 1.574 . S
C1231 C1250 1.368 . S
C1231 H1255 0.949 . S
H1232 C1236 0.949 . S
C1233 C1234 1.349 . S
C1233 C1235 1.327 . S
C1233 H1256 0.950 . S
C1234 C1233 1.349 . S
C1234 C1246 1.349 . S
C1235 C1233 1.327 . S
C1235 C1251 1.429 . S
C1235 H1257 0.950 . S
C1236 H1232 0.949 . S
C1236 C1244 1.574 . S
C1236 C1252 1.368 . S
H1237 C1245 0.950 . S
H1238 C1243 0.950 . S
H1239 C1244 0.949 . S
H1240 C1246 0.950 . S
H1241 C1247 0.950 . S
H1242 C1248 0.949 . S
C1243 H1238 0.950 . S
C1243 C1245 1.327 . S
C1243 C1249 1.429 . S
C1244 C1236 1.574 . S
C1244 H1239 0.949 . S
C1244 C1250 1.368 . S
C1245 C1229 1.349 . S
C1245 H1237 0.950 . S
C1245 C1243 1.327 . S
C1246 C1234 1.349 . S
C1246 H1240 0.950 . S
C1246 C1247 1.327 . S
C1247 H1241 0.950 . S
C1247 C1246 1.327 . S
C1247 C1251 1.429 . S
C1248 C1231 1.574 . S
C1248 H1242 0.949 . S
C1248 C1252 1.368 . S
C1249 C1230 1.429 . S
C1249 C1243 1.429 . S
C1249 C1250 1.523 . S
C1250 C1231 1.368 . S
C1250 C1244 1.368 . S
C1250 C1249 1.523 . S
C1251 C1235 1.429 . S
C1251 C1247 1.429 . S
C1251 C1252 1.523 . S
C1252 C1236 1.368 . S
C1252 C1248 1.368 . S
C1252 C1251 1.523 . S
H1253 C1228 0.950 . S
H1254 C1230 0.950 . S
H1255 C1231 0.949 . S
H1256 C1233 0.950 . S
H1257 C1235 0.950 . S
C1258 C1259 1.349 . S
C1258 C1260 1.327 . S
C1258 H1283 0.950 . S
C1259 C1258 1.349 . S
C1259 C1275 1.349 . S
C1260 C1258 1.327 . S
C1260 C1279 1.429 . S
C1260 H1284 0.950 . S
C1261 C1278 1.574 . S
C1261 C1280 1.368 . S
C1261 H1285 0.949 . S
H1262 C1266 0.949 . S
C1263 C1264 1.349 . S
C1263 C1265 1.327 . S
C1263 H1286 0.950 . S
C1264 C1263 1.349 . S
C1264 C1276 1.349 . S
C1265 C1263 1.327 . S
C1265 C1281 1.429 . S
C1265 H1287 0.950 . S
C1266 H1262 0.949 . S
C1266 C1274 1.574 . S
C1266 C1282 1.368 . S
H1267 C1275 0.950 . S
H1268 C1273 0.950 . S
H1269 C1274 0.949 . S
H1270 C1276 0.950 . S
H1271 C1277 0.950 . S
H1272 C1278 0.949 . S
C1273 H1268 0.950 . S
C1273 C1275 1.327 . S
C1273 C1279 1.429 . S
C1274 C1266 1.574 . S
C1274 H1269 0.949 . S
C1274 C1280 1.368 . S
C1275 C1259 1.349 . S
C1275 H1267 0.950 . S
C1275 C1273 1.327 . S
C1276 C1264 1.349 . S
C1276 H1270 0.950 . S
C1276 C1277 1.327 . S
C1277 H1271 0.950 . S
C1277 C1276 1.327 . S
C1277 C1281 1.429 . S
C1278 C1261 1.574 . S
C1278 H1272 0.949 . S
C1278 C1282 1.368 . S
C1279 C1260 1.429 . S
C1279 C1273 1.429 . S
C1279 C1280 1.523 . S
C1280 C1261 1.368 . S
C1280 C1274 1.368 . S
C1280 C1279 1.523 . S
C1281 C1265 1.429 . S
C1281 C1277 1.429 . S
C1281 C1282 1.523 . S
C1282 C1266 1.368 . S
C1282 C1278 1.368 . S
C1282 C1281 1.523 . S
H1283 C1258 0.950 . S
H1284 C1260 0.950 . S
H1285 C1261 0.949 . S
H1286 C1263 0.950 . S
H1287 C1265 0.950 . S
C1288 C1289 1.349 . S
C1288 C1290 1.327 . S
C1288 H1313 0.950 . S
C1289 C1288 1.349 . S
C1289 C1305 1.349 . S
C1290 C1288 1.327 . S
C1290 C1309 1.429 . S
C1290 H1314 0.950 . S
C1291 C1308 1.574 1_565 S
C1291 C1310 1.368 . S
C1291 H1315 0.949 . S
H1292 C1296 0.949 . S
C1293 C1294 1.349 . S
C1293 C1295 1.327 . S
C1293 H1316 0.950 . S
C1294 C1293 1.349 . S
C1294 C1306 1.349 . S
C1295 C1293 1.327 . S
C1295 C1311 1.429 . S
C1295 H1317 0.950 . S
C1296 H1292 0.949 . S
C1296 C1304 1.574 1_545 S
C1296 C1312 1.368 . S
H1297 C1305 0.950 . S
H1298 C1303 0.950 . S
H1299 C1304 0.949 . S
H1300 C1306 0.950 . S
H1301 C1307 0.950 . S
H1302 C1308 0.949 . S
C1303 H1298 0.950 . S
C1303 C1305 1.327 . S
C1303 C1309 1.429 . S
C1304 C1296 1.574 1_565 S
C1304 H1299 0.949 . S
C1304 C1310 1.368 1_655 S
C1305 C1289 1.349 . S
C1305 H1297 0.950 . S
C1305 C1303 1.327 . S
C1306 C1294 1.349 . S
C1306 H1300 0.950 . S
C1306 C1307 1.327 . S
C1307 H1301 0.950 . S
C1307 C1306 1.327 . S
C1307 C1311 1.429 . S
C1308 C1291 1.574 1_545 S
C1308 H1302 0.949 . S
C1308 C1312 1.368 1_455 S
C1309 C1290 1.429 . S
C1309 C1303 1.429 . S
C1309 C1310 1.523 . S
C1310 C1291 1.368 . S
C1310 C1304 1.368 1_455 S
C1310 C1309 1.523 . S
C1311 C1295 1.429 . S
C1311 C1307 1.429 . S
C1311 C1312 1.523 . S
C1312 C1296 1.368 . S
C1312 C1308 1.368 1_655 S
C1312 C1311 1.523 . S
H1313 C1288 0.950 . S
H1314 C1290 0.950 . S
H1315 C1291 0.949 . S
H1316 C1293 0.950 . S
H1317 C1295 0.950 . S
C1318 C1319 1.349 . S
C1318 C1320 1.327 . S
C1318 H1343 0.950 . S
C1319 C1318 1.349 . S
C1319 C1335 1.349 . S
C1320 C1318 1.327 . S
C1320 C1339 1.429 . S
C1320 H1344 0.950 . S
C1321 C1338 1.574 . S
C1321 C1340 1.368 1_455 S
C1321 H1345 0.949 . S
H1322 C1326 0.949 . S
C1323 C1324 1.349 . S
C1323 C1325 1.327 . S
C1323 H1346 0.950 . S
C1324 C1323 1.349 . S
C1324 C1336 1.349 . S
C1325 C1323 1.327 . S
C1325 C1341 1.429 . S
C1325 H1347 0.950 . S
C1326 H1322 0.949 . S
C1326 C1334 1.574 . S
C1326 C1342 1.368 1_655 S
H1327 C1335 0.950 . S
H1328 C1333 0.950 . S
H1329 C1334 0.949 . S
H1330 C1336 0.950 . S
H1331 C1337 0.950 . S
H1332 C1338 0.949 . S
C1333 H1328 0.950 . S
C1333 C1335 1.327 . S
C1333 C1339 1.429 . S
C1334 C1326 1.574 . S
C1334 H1329 0.949 . S
C1334 C1340 1.368 . S
C1335 C1319 1.349 . S
C1335 H1327 0.950 . S
C1335 C1333 1.327 . S
C1336 C1324 1.349 . S
C1336 H1330 0.950 . S
C1336 C1337 1.327 . S
C1337 H1331 0.950 . S
C1337 C1336 1.327 . S
C1337 C1341 1.429 . S
C1338 C1321 1.574 . S
C1338 H1332 0.949 . S
C1338 C1342 1.368 . S
C1339 C1320 1.429 . S
C1339 C1333 1.429 . S
C1339 C1340 1.523 . S
C1340 C1321 1.368 1_655 S
C1340 C1334 1.368 . S
C1340 C1339 1.523 . S
C1341 C1325 1.429 . S
C1341 C1337 1.429 . S
C1341 C1342 1.523 . S
C1342 C1326 1.368 1_455 S
C1342 C1338 1.368 . S
C1342 C1341 1.523 . S
H1343 C1318 0.950 . S
H1344 C1320 0.950 . S
H1345 C1321 0.949 . S
H1346 C1323 0.950 . S
H1347 C1325 0.950 . S
C1348 C1349 1.349 . S
C1348 C1350 1.327 . S
C1348 H1373 0.950 . S
C1349 C1348 1.349 . S
C1349 C1365 1.349 . S
C1350 C1348 1.327 . S
C1350 C1369 1.429 . S
C1350 H1374 0.950 . S
C1351 C1368 1.574 . S
C1351 C1370 1.368 1_655 S
C1351 H1375 0.949 . S
H1352 C1356 0.949 . S
C1353 C1354 1.349 . S
C1353 C1355 1.327 . S
C1353 H1376 0.950 . S
C1354 C1353 1.349 . S
C1354 C1366 1.349 . S
C1355 C1353 1.327 . S
C1355 C1371 1.429 . S
C1355 H1377 0.950 . S
C1356 H1352 0.949 . S
C1356 C1364 1.574 . S
C1356 C1372 1.368 1_455 S
H1357 C1365 0.950 . S
H1358 C1363 0.950 . S
H1359 C1364 0.949 . S
H1360 C1366 0.950 . S
H1361 C1367 0.950 . S
H1362 C1368 0.949 . S
C1363 H1358 0.950 . S
C1363 C1365 1.327 . S
C1363 C1369 1.429 . S
C1364 C1356 1.574 . S
C1364 H1359 0.949 . S
C1364 C1370 1.368 . S
C1365 C1349 1.349 . S
C1365 H1357 0.950 . S
C1365 C1363 1.327 . S
C1366 C1354 1.349 . S
C1366 H1360 0.950 . S
C1366 C1367 1.327 . S
C1367 H1361 0.950 . S
C1367 C1366 1.327 . S
C1367 C1371 1.429 . S
C1368 C1351 1.574 . S
C1368 H1362 0.949 . S
C1368 C1372 1.368 . S
C1369 C1350 1.429 . S
C1369 C1363 1.429 . S
C1369 C1370 1.523 . S
C1370 C1351 1.368 1_455 S
C1370 C1364 1.368 . S
C1370 C1369 1.523 . S
C1371 C1355 1.429 . S
C1371 C1367 1.429 . S
C1371 C1372 1.523 . S
C1372 C1356 1.368 1_655 S
C1372 C1368 1.368 . S
C1372 C1371 1.523 . S
H1373 C1348 0.950 . S
H1374 C1350 0.950 . S
H1375 C1351 0.949 . S
H1376 C1353 0.950 . S
H1377 C1355 0.950 . S
C1378 C1379 1.369 . S
C1378 C1380 1.327 . S
C1378 H1403 0.950 . S
C1379 C1378 1.369 . S
C1379 C1395 1.329 1_556 S
C1380 C1378 1.327 . S
C1380 C1399 1.436 . S
C1380 H1404 0.950 . S
C1381 C1398 1.574 . S
C1381 C1400 1.368 1_554 S
C1381 H1405 0.949 . S
H1382 C1386 0.949 . S
C1383 C1384 1.369 . S
C1383 C1385 1.327 . S
C1383 H1406 0.950 . S
C1384 C1383 1.369 . S
C1384 C1396 1.329 1_554 S
C1385 C1383 1.327 . S
C1385 C1401 1.436 . S
C1385 H1407 0.950 . S
C1386 H1382 0.949 . S
C1386 C1394 1.574 . S
C1386 C1402 1.368 1_556 S
H1387 C1395 0.950 . S
H1388 C1393 0.950 . S
H1389 C1394 0.949 . S
H1390 C1396 0.950 . S
H1391 C1397 0.950 . S
H1392 C1398 0.949 . S
C1393 H1388 0.950 . S
C1393 C1395 1.327 . S
C1393 C1399 1.422 1_554 S
C1394 C1386 1.574 . S
C1394 H1389 0.949 . S
C1394 C1400 1.369 1_655 S
C1395 C1379 1.329 1_554 S
C1395 H1387 0.950 . S
C1395 C1393 1.327 . S
C1396 C1384 1.329 1_556 S
C1396 H1390 0.950 . S
C1396 C1397 1.327 . S
C1397 H1391 0.950 . S
C1397 C1396 1.327 . S
C1397 C1401 1.421 1_556 S
C1398 C1381 1.574 . S
C1398 H1392 0.949 . S
C1398 C1402 1.369 1_455 S
C1399 C1380 1.436 . S
C1399 C1393 1.422 1_556 S
C1399 C1400 1.523 . S
C1400 C1381 1.368 1_556 S
C1400 C1394 1.369 1_455 S
C1400 C1399 1.523 . S
C1401 C1385 1.436 . S
C1401 C1397 1.421 1_554 S
C1401 C1402 1.523 . S
C1402 C1386 1.368 1_554 S
C1402 C1398 1.369 1_655 S
C1402 C1401 1.523 . S
H1403 C1378 0.950 . S
H1404 C1380 0.950 . S
H1405 C1381 0.949 . S
H1406 C1383 0.950 . S
H1407 C1385 0.950 . S
C1408 C1409 1.349 . S
C1408 C1410 1.327 . S
C1408 H1433 0.950 . S
C1409 C1408 1.349 . S
C1409 C1425 1.349 . S
C1410 C1408 1.327 . S
C1410 C1429 1.429 . S
C1410 H1434 0.950 . S
C1411 C1428 1.574 . S
C1411 C1430 1.368 . S
C1411 H1435 0.949 . S
H1412 C1416 0.949 . S
C1413 C1414 1.349 . S
C1413 C1415 1.327 . S
C1413 H1436 0.950 . S
C1414 C1413 1.349 . S
C1414 C1426 1.349 . S
C1415 C1413 1.327 . S
C1415 C1431 1.429 . S
C1415 H1437 0.950 . S
C1416 H1412 0.949 . S
C1416 C1424 1.574 . S
C1416 C1432 1.368 . S
H1417 C1425 0.950 . S
H1418 C1423 0.950 . S
H1419 C1424 0.949 . S
H1420 C1426 0.950 . S
H1421 C1427 0.950 . S
H1422 C1428 0.949 . S
C1423 H1418 0.950 . S
C1423 C1425 1.327 . S
C1423 C1429 1.429 . S
C1424 C1416 1.574 . S
C1424 H1419 0.949 . S
C1424 C1430 1.368 . S
C1425 C1409 1.349 . S
C1425 H1417 0.950 . S
C1425 C1423 1.327 . S
C1426 C1414 1.349 . S
C1426 H1420 0.950 . S
C1426 C1427 1.327 . S
C1427 H1421 0.950 . S
C1427 C1426 1.327 . S
C1427 C1431 1.429 . S
C1428 C1411 1.574 . S
C1428 H1422 0.949 . S
C1428 C1432 1.368 . S
C1429 C1410 1.429 . S
C1429 C1423 1.429 . S
C1429 C1430 1.523 . S
C1430 C1411 1.368 . S
C1430 C1424 1.368 . S
C1430 C1429 1.523 . S
C1431 C1415 1.429 . S
C1431 C1427 1.429 . S
C1431 C1432 1.523 . S
C1432 C1416 1.368 . S
C1432 C1428 1.368 . S
C1432 C1431 1.523 . S
H1433 C1408 0.950 . S
H1434 C1410 0.950 . S
H1435 C1411 0.949 . S
H1436 C1413 0.950 . S
H1437 C1415 0.950 . S
C1438 C1439 1.349 . S
C1438 C1440 1.327 . S
C1438 H1463 0.950 . S
C1439 C1438 1.349 . S
C1439 C1455 1.349 . S
C1440 C1438 1.327 . S
C1440 C1459 1.429 . S
C1440 H1464 0.950 . S
C1441 C1458 1.574 . S
C1441 C1460 1.368 . S
C1441 H1465 0.949 . S
H1442 C1446 0.949 . S
C1443 C1444 1.349 . S
C1443 C1445 1.327 . S
C1443 H1466 0.950 . S
C1444 C1443 1.349 . S
C1444 C1456 1.349 . S
C1445 C1443 1.327 . S
C1445 C1461 1.429 . S
C1445 H1467 0.950 . S
C1446 H1442 0.949 . S
C1446 C1454 1.574 . S
C1446 C1462 1.368 . S
H1447 C1455 0.950 . S
H1448 C1453 0.950 . S
H1449 C1454 0.949 . S
H1450 C1456 0.950 . S
H1451 C1457 0.950 . S
H1452 C1458 0.949 . S
C1453 H1448 0.950 . S
C1453 C1455 1.327 . S
C1453 C1459 1.429 . S
C1454 C1446 1.574 . S
C1454 H1449 0.949 . S
C1454 C1460 1.368 . S
C1455 C1439 1.349 . S
C1455 H1447 0.950 . S
C1455 C1453 1.327 . S
C1456 C1444 1.349 . S
C1456 H1450 0.950 . S
C1456 C1457 1.327 . S
C1457 H1451 0.950 . S
C1457 C1456 1.327 . S
C1457 C1461 1.429 . S
C1458 C1441 1.574 . S
C1458 H1452 0.949 . S
C1458 C1462 1.368 . S
C1459 C1440 1.429 . S
C1459 C1453 1.429 . S
C1459 C1460 1.523 . S
C1460 C1441 1.368 . S
C1460 C1454 1.368 . S
C1460 C1459 1.523 . S
C1461 C1445 1.429 . S
C1461 C1457 1.429 . S
C1461 C1462 1.523 . S
C1462 C1446 1.368 . S
C1462 C1458 1.368 . S
C1462 C1461 1.523 . S
H1463 C1438 0.950 . S
H1464 C1440 0.950 . S
H1465 C1441 0.949 . S
H1466 C1443 0.950 . S
H1467 C1445 0.950 . S
C1468 C1469 1.349 . S
C1468 C1470 1.327 . S
C1468 H1493 0.950 . S
C1469 C1468 1.349 . S
C1469 C1485 1.349 . S
C1470 C1468 1.327 . S
C1470 C1489 1.429 . S
C1470 H1494 0.950 . S
C1471 C1488 1.574 . S
C1471 C1490 1.368 . S
C1471 H1495 0.949 . S
H1472 C1476 0.949 . S
C1473 C1474 1.349 . S
C1473 C1475 1.327 . S
C1473 H1496 0.950 . S
C1474 C1473 1.349 . S
C1474 C1486 1.349 . S
C1475 C1473 1.327 . S
C1475 C1491 1.429 . S
C1475 H1497 0.950 . S
C1476 H1472 0.949 . S
C1476 C1484 1.574 . S
C1476 C1492 1.368 . S
H1477 C1485 0.950 . S
H1478 C1483 0.950 . S
H1479 C1484 0.949 . S
H1480 C1486 0.950 . S
H1481 C1487 0.950 . S
H1482 C1488 0.949 . S
C1483 H1478 0.950 . S
C1483 C1485 1.327 . S
C1483 C1489 1.429 . S
C1484 C1476 1.574 . S
C1484 H1479 0.949 . S
C1484 C1490 1.368 . S
C1485 C1469 1.349 . S
C1485 H1477 0.950 . S
C1485 C1483 1.327 . S
C1486 C1474 1.349 . S
C1486 H1480 0.950 . S
C1486 C1487 1.327 . S
C1487 H1481 0.950 . S
C1487 C1486 1.327 . S
C1487 C1491 1.429 . S
C1488 C1471 1.574 . S
C1488 H1482 0.949 . S
C1488 C1492 1.368 . S
C1489 C1470 1.429 . S
C1489 C1483 1.429 . S
C1489 C1490 1.523 . S
C1490 C1471 1.368 . S
C1490 C1484 1.368 . S
C1490 C1489 1.523 . S
C1491 C1475 1.429 . S
C1491 C1487 1.429 . S
C1491 C1492 1.523 . S
C1492 C1476 1.368 . S
C1492 C1488 1.368 . S
C1492 C1491 1.523 . S
H1493 C1468 0.950 . S
H1494 C1470 0.950 . S
H1495 C1471 0.949 . S
H1496 C1473 0.950 . S
H1497 C1475 0.950 . S
C1498 C1499 1.349 . S
C1498 C1500 1.327 . S
C1498 H1523 0.950 . S
C1499 C1498 1.349 . S
C1499 C1515 1.349 . S
C1500 C1498 1.327 . S
C1500 C1519 1.429 . S
C1500 H1524 0.950 . S
C1501 C1518 1.574 . S
C1501 C1520 1.368 . S
C1501 H1525 0.949 . S
H1502 C1506 0.949 . S
C1503 C1504 1.349 . S
C1503 C1505 1.327 . S
C1503 H1526 0.950 . S
C1504 C1503 1.349 . S
C1504 C1516 1.349 . S
C1505 C1503 1.327 . S
C1505 C1521 1.429 . S
C1505 H1527 0.950 . S
C1506 H1502 0.949 . S
C1506 C1514 1.574 . S
C1506 C1522 1.368 . S
H1507 C1515 0.950 . S
H1508 C1513 0.950 . S
H1509 C1514 0.949 . S
H1510 C1516 0.950 . S
H1511 C1517 0.950 . S
H1512 C1518 0.949 . S
C1513 H1508 0.950 . S
C1513 C1515 1.327 . S
C1513 C1519 1.429 . S
C1514 C1506 1.574 . S
C1514 H1509 0.949 . S
C1514 C1520 1.368 . S
C1515 C1499 1.349 . S
C1515 H1507 0.950 . S
C1515 C1513 1.327 . S
C1516 C1504 1.349 . S
C1516 H1510 0.950 . S
C1516 C1517 1.327 . S
C1517 H1511 0.950 . S
C1517 C1516 1.327 . S
C1517 C1521 1.429 . S
C1518 C1501 1.574 . S
C1518 H1512 0.949 . S
C1518 C1522 1.368 . S
C1519 C1500 1.429 . S
C1519 C1513 1.429 . S
C1519 C1520 1.523 . S
C1520 C1501 1.368 . S
C1520 C1514 1.368 . S
C1520 C1519 1.523 . S
C1521 C1505 1.429 . S
C1521 C1517 1.429 . S
C1521 C1522 1.523 . S
C1522 C1506 1.368 . S
C1522 C1518 1.368 . S
C1522 C1521 1.523 . S
H1523 C1498 0.950 . S
H1524 C1500 0.950 . S
H1525 C1501 0.949 . S
H1526 C1503 0.950 . S
H1527 C1505 0.950 . S
C1528 C1529 1.349 . S
C1528 C1530 1.327 . S
C1528 H1553 0.950 . S
C1529 C1528 1.349 . S
C1529 C1545 1.349 . S
C1530 C1528 1.327 . S
C1530 C1549 1.429 . S
C1530 H1554 0.950 . S
C1531 C1548 1.574 . S
C1531 C1550 1.368 . S
C1531 H1555 0.949 . S
H1532 C1536 0.949 . S
C1533 C1534 1.349 . S
C1533 C1535 1.327 . S
C1533 H1556 0.950 . S
C1534 C1533 1.349 . S
C1534 C1546 1.349 . S
C1535 C1533 1.327 . S
C1535 C1551 1.429 . S
C1535 H1557 0.950 . S
C1536 H1532 0.949 . S
C1536 C1544 1.574 . S
C1536 C1552 1.368 . S
H1537 C1545 0.950 . S
H1538 C1543 0.950 . S
H1539 C1544 0.949 . S
H1540 C1546 0.950 . S
H1541 C1547 0.950 . S
H1542 C1548 0.949 . S
C1543 H1538 0.950 . S
C1543 C1545 1.327 . S
C1543 C1549 1.429 . S
C1544 C1536 1.574 . S
C1544 H1539 0.949 . S
C1544 C1550 1.368 . S
C1545 C1529 1.349 . S
C1545 H1537 0.950 . S
C1545 C1543 1.327 . S
C1546 C1534 1.349 . S
C1546 H1540 0.950 . S
C1546 C1547 1.327 . S
C1547 H1541 0.950 . S
C1547 C1546 1.327 . S
C1547 C1551 1.429 . S
C1548 C1531 1.574 . S
C1548 H1542 0.949 . S
C1548 C1552 1.368 . S
C1549 C1530 1.429 . S
C1549 C1543 1.429 . S
C1549 C1550 1.523 . S
C1550 C1531 1.368 . S
C1550 C1544 1.368 . S
C1550 C1549 1.523 . S
C1551 C1535 1.429 . S
C1551 C1547 1.429 . S
C1551 C1552 1.523 . S
C1552 C1536 1.368 . S
C1552 C1548 1.368 . S
C1552 C1551 1.523 . S
H1553 C1528 0.950 . S
H1554 C1530 0.950 . S
H1555 C1531 0.949 . S
H1556 C1533 0.950 . S
H1557 C1535 0.950 . S
C1558 C1559 1.349 . S
C1558 C1560 1.327 . S
C1558 H1583 0.950 . S
C1559 C1558 1.349 . S
C1559 C1575 1.349 . S
C1560 C1558 1.327 . S
C1560 C1579 1.429 . S
C1560 H1584 0.950 . S
C1561 C1578 1.574 . S
C1561 C1580 1.368 . S
C1561 H1585 0.949 . S
H1562 C1566 0.949 . S
C1563 C1564 1.349 . S
C1563 C1565 1.327 . S
C1563 H1586 0.950 . S
C1564 C1563 1.349 . S
C1564 C1576 1.349 . S
C1565 C1563 1.327 . S
C1565 C1581 1.429 . S
C1565 H1587 0.950 . S
C1566 H1562 0.949 . S
C1566 C1574 1.574 . S
C1566 C1582 1.368 . S
H1567 C1575 0.950 . S
H1568 C1573 0.950 . S
H1569 C1574 0.949 . S
H1570 C1576 0.950 . S
H1571 C1577 0.950 . S
H1572 C1578 0.949 . S
C1573 H1568 0.950 . S
C1573 C1575 1.327 . S
C1573 C1579 1.429 . S
C1574 C1566 1.574 . S
C1574 H1569 0.949 . S
C1574 C1580 1.368 . S
C1575 C1559 1.349 . S
C1575 H1567 0.950 . S
C1575 C1573 1.327 . S
C1576 C1564 1.349 . S
C1576 H1570 0.950 . S
C1576 C1577 1.327 . S
C1577 H1571 0.950 . S
C1577 C1576 1.327 . S
C1577 C1581 1.429 . S
C1578 C1561 1.574 . S
C1578 H1572 0.949 . S
C1578 C1582 1.368 . S
C1579 C1560 1.429 . S
C1579 C1573 1.429 . S
C1579 C1580 1.523 . S
C1580 C1561 1.368 . S
C1580 C1574 1.368 . S
C1580 C1579 1.523 . S
C1581 C1565 1.429 . S
C1581 C1577 1.429 . S
C1581 C1582 1.523 . S
C1582 C1566 1.368 . S
C1582 C1578 1.368 . S
C1582 C1581 1.523 . S
H1583 C1558 0.950 . S
H1584 C1560 0.950 . S
H1585 C1561 0.949 . S
H1586 C1563 0.950 . S
H1587 C1565 0.950 . S
C1588 C1589 1.349 . S
C1588 C1590 1.327 . S
C1588 H1613 0.950 . S
C1589 C1588 1.349 . S
C1589 C1605 1.349 . S
C1590 C1588 1.327 . S
C1590 C1609 1.429 . S
C1590 H1614 0.950 . S
C1591 C1608 1.574 . S
C1591 C1610 1.368 . S
C1591 H1615 0.949 . S
H1592 C1596 0.949 . S
C1593 C1594 1.349 . S
C1593 C1595 1.327 . S
C1593 H1616 0.950 . S
C1594 C1593 1.349 . S
C1594 C1606 1.349 . S
C1595 C1593 1.327 . S
C1595 C1611 1.429 . S
C1595 H1617 0.950 . S
C1596 H1592 0.949 . S
C1596 C1604 1.574 . S
C1596 C1612 1.368 . S
H1597 C1605 0.950 . S
H1598 C1603 0.950 . S
H1599 C1604 0.949 . S
H1600 C1606 0.950 . S
H1601 C1607 0.950 . S
H1602 C1608 0.949 . S
C1603 H1598 0.950 . S
C1603 C1605 1.327 . S
C1603 C1609 1.429 . S
C1604 C1596 1.574 . S
C1604 H1599 0.949 . S
C1604 C1610 1.368 . S
C1605 C1589 1.349 . S
C1605 H1597 0.950 . S
C1605 C1603 1.327 . S
C1606 C1594 1.349 . S
C1606 H1600 0.950 . S
C1606 C1607 1.327 . S
C1607 H1601 0.950 . S
C1607 C1606 1.327 . S
C1607 C1611 1.429 . S
C1608 C1591 1.574 . S
C1608 H1602 0.949 . S
C1608 C1612 1.368 . S
C1609 C1590 1.429 . S
C1609 C1603 1.429 . S
C1609 C1610 1.523 . S
C1610 C1591 1.368 . S
C1610 C1604 1.368 . S
C1610 C1609 1.523 . S
C1611 C1595 1.429 . S
C1611 C1607 1.429 . S
C1611 C1612 1.523 . S
C1612 C1596 1.368 . S
C1612 C1608 1.368 . S
C1612 C1611 1.523 . S
H1613 C1588 0.950 . S
H1614 C1590 0.950 . S
H1615 C1591 0.949 . S
H1616 C1593 0.950 . S
H1617 C1595 0.950 . S
C1618 C1619 1.349 . S
C1618 C1620 1.327 . S
C1618 H1643 0.950 . S
C1619 C1618 1.349 . S
C1619 C1635 1.349 . S
C1620 C1618 1.327 . S
C1620 C1639 1.429 . S
C1620 H1644 0.950 . S
C1621 C1638 1.574 . S
C1621 C1640 1.368 . S
C1621 H1645 0.949 . S
H1622 C1626 0.949 . S
C1623 C1624 1.349 . S
C1623 C1625 1.327 . S
C1623 H1646 0.950 . S
C1624 C1623 1.349 . S
C1624 C1636 1.349 . S
C1625 C1623 1.327 . S
C1625 C1641 1.429 . S
C1625 H1647 0.950 . S
C1626 H1622 0.949 . S
C1626 C1634 1.574 . S
C1626 C1642 1.368 . S
H1627 C1635 0.950 . S
H1628 C1633 0.950 . S
H1629 C1634 0.949 . S
H1630 C1636 0.950 . S
H1631 C1637 0.950 . S
H1632 C1638 0.949 . S
C1633 H1628 0.950 . S
C1633 C1635 1.327 . S
C1633 C1639 1.429 . S
C1634 C1626 1.574 . S
C1634 H1629 0.949 . S
C1634 C1640 1.368 . S
C1635 C1619 1.349 . S
C1635 H1627 0.950 . S
C1635 C1633 1.327 . S
C1636 C1624 1.349 . S
C1636 H1630 0.950 . S
C1636 C1637 1.327 . S
C1637 H1631 0.950 . S
C1637 C1636 1.327 . S
C1637 C1641 1.429 . S
C1638 C1621 1.574 . S
C1638 H1632 0.949 . S
C1638 C1642 1.368 . S
C1639 C1620 1.429 . S
C1639 C1633 1.429 . S
C1639 C1640 1.523 . S
C1640 C1621 1.368 . S
C1640 C1634 1.368 . S
C1640 C1639 1.523 . S
C1641 C1625 1.429 . S
C1641 C1637 1.429 . S
C1641 C1642 1.523 . S
C1642 C1626 1.368 . S
C1642 C1638 1.368 . S
C1642 C1641 1.523 . S
H1643 C1618 0.950 . S
H1644 C1620 0.950 . S
H1645 C1621 0.949 . S
H1646 C1623 0.950 . S
H1647 C1625 0.950 . S
C1648 C1649 1.349 . S
C1648 C1650 1.327 . S
C1648 H1673 0.950 . S
C1649 C1648 1.349 . S
C1649 C1665 1.349 . S
C1650 C1648 1.327 . S
C1650 C1669 1.429 . S
C1650 H1674 0.950 . S
C1651 C1668 1.574 . S
C1651 C1670 1.368 . S
C1651 H1675 0.949 . S
H1652 C1656 0.949 . S
C1653 C1654 1.349 . S
C1653 C1655 1.327 . S
C1653 H1676 0.950 . S
C1654 C1653 1.349 . S
C1654 C1666 1.349 . S
C1655 C1653 1.327 . S
C1655 C1671 1.429 . S
C1655 H1677 0.950 . S
C1656 H1652 0.949 . S
C1656 C1664 1.574 . S
C1656 C1672 1.368 . S
H1657 C1665 0.950 . S
H1658 C1663 0.950 . S
H1659 C1664 0.949 . S
H1660 C1666 0.950 . S
H1661 C1667 0.950 . S
H1662 C1668 0.949 . S
C1663 H1658 0.950 . S
C1663 C1665 1.327 . S
C1663 C1669 1.429 . S
C1664 C1656 1.574 . S
C1664 H1659 0.949 . S
C1664 C1670 1.368 . S
C1665 C1649 1.349 . S
C1665 H1657 0.950 . S
C1665 C1663 1.327 . S
C1666 C1654 1.349 . S
C1666 H1660 0.950 . S
C1666 C1667 1.327 . S
C1667 H1661 0.950 . S
C1667 C1666 1.327 . S
C1667 C1671 1.429 . S
C1668 C1651 1.574 . S
C1668 H1662 0.949 . S
C1668 C1672 1.368 . S
C1669 C1650 1.429 . S
C1669 C1663 1.429 . S
C1669 C1670 1.523 . S
C1670 C1651 1.368 . S
C1670 C1664 1.368 . S
C1670 C1669 1.523 . S
C1671 C1655 1.429 . S
C1671 C1667 1.429 . S
C1671 C1672 1.523 . S
C1672 C1656 1.368 . S
C1672 C1668 1.368 . S
C1672 C1671 1.523 . S
H1673 C1648 0.950 . S
H1674 C1650 0.950 . S
H1675 C1651 0.949 . S
H1676 C1653 0.950 . S
H1677 C1655 0.950 . S
C1678 C1679 1.349 . S
C1678 C1680 1.327 . S
C1678 H1703 0.950 . S
C1679 C1678 1.349 . S
C1679 C1695 1.349 . S
C1680 C1678 1.327 . S
C1680 C1699 1.429 . S
C1680 H1704 0.950 . S
C1681 C1698 1.574 . S
C1681 C1700 1.368 . S
C1681 H1705 0.949 . S
H1682 C1686 0.949 . S
C1683 C1684 1.349 . S
C1683 C1685 1.327 . S
C1683 H1706 0.950 . S
C1684 C1683 1.349 . S
C1684 C1696 1.349 . S
C1685 C1683 1.327 . S
C1685 C1701 1.429 . S
C1685 H1707 0.950 . S
C1686 H1682 0.949 . S
C1686 C1694 1.574 . S
C1686 C1702 1.368 . S
H1687 C1695 0.950 . S
H1688 C1693 0.950 . S
H1689 C1694 0.949 . S
H1690 C1696 0.950 . S
H1691 C1697 0.950 . S
H1692 C1698 0.949 . S
C1693 H1688 0.950 . S
C1693 C1695 1.327 . S
C1693 C1699 1.429 . S
C1694 C1686 1.574 . S
C1694 H1689 0.949 . S
C1694 C1700 1.368 . S
C1695 C1679 1.349 . S
C1695 H1687 0.950 . S
C1695 C1693 1.327 . S
C1696 C1684 1.349 . S
C1696 H1690 0.950 . S
C1696 C1697 1.327 . S
C1697 H1691 0.950 . S
C1697 C1696 1.327 . S
C1697 C1701 1.429 . S
C1698 C1681 1.574 . S
C1698 H1692 0.949 . S
C1698 C1702 1.368 . S
C1699 C1680 1.429 . S
C1699 C1693 1.429 . S
C1699 C1700 1.523 . S
C1700 C1681 1.368 . S
C1700 C1694 1.368 . S
C1700 C1699 1.523 . S
C1701 C1685 1.429 . S
C1701 C1697 1.429 . S
C1701 C1702 1.523 . S
C1702 C1686 1.368 . S
C1702 C1698 1.368 . S
C1702 C1701 1.523 . S
H1703 C1678 0.950 . S
H1704 C1680 0.950 . S
H1705 C1681 0.949 . S
H1706 C1683 0.950 . S
H1707 C1685 0.950 . S
C1708 C1709 1.349 . S
C1708 C1710 1.327 . S
C1708 H1733 0.950 . S
C1709 C1708 1.349 . S
C1709 C1725 1.349 . S
C1710 C1708 1.327 . S
C1710 C1729 1.429 . S
C1710 H1734 0.950 . S
C1711 C1728 1.574 . S
C1711 C1730 1.368 . S
C1711 H1735 0.949 . S
H1712 C1716 0.949 . S
C1713 C1714 1.349 . S
C1713 C1715 1.327 . S
C1713 H1736 0.950 . S
C1714 C1713 1.349 . S
C1714 C1726 1.349 . S
C1715 C1713 1.327 . S
C1715 C1731 1.429 . S
C1715 H1737 0.950 . S
C1716 H1712 0.949 . S
C1716 C1724 1.574 . S
C1716 C1732 1.368 . S
H1717 C1725 0.950 . S
H1718 C1723 0.950 . S
H1719 C1724 0.949 . S
H1720 C1726 0.950 . S
H1721 C1727 0.950 . S
H1722 C1728 0.949 . S
C1723 H1718 0.950 . S
C1723 C1725 1.327 . S
C1723 C1729 1.429 . S
C1724 C1716 1.574 . S
C1724 H1719 0.949 . S
C1724 C1730 1.368 . S
C1725 C1709 1.349 . S
C1725 H1717 0.950 . S
C1725 C1723 1.327 . S
C1726 C1714 1.349 . S
C1726 H1720 0.950 . S
C1726 C1727 1.327 . S
C1727 H1721 0.950 . S
C1727 C1726 1.327 . S
C1727 C1731 1.429 . S
C1728 C1711 1.574 . S
C1728 H1722 0.949 . S
C1728 C1732 1.368 . S
C1729 C1710 1.429 . S
C1729 C1723 1.429 . S
C1729 C1730 1.523 . S
C1730 C1711 1.368 . S
C1730 C1724 1.368 . S
C1730 C1729 1.523 . S
C1731 C1715 1.429 . S
C1731 C1727 1.429 . S
C1731 C1732 1.523 . S
C1732 C1716 1.368 . S
C1732 C1728 1.368 . S
C1732 C1731 1.523 . S
H1733 C1708 0.950 . S
H1734 C1710 0.950 . S
H1735 C1711 0.949 . S
H1736 C1713 0.950 . S
H1737 C1715 0.950 . S
C1738 C1739 1.349 . S
C1738 C1740 1.327 . S
C1738 H1763 0.950 . S
C1739 C1738 1.349 . S
C1739 C1755 1.349 . S
C1740 C1738 1.327 . S
C1740 C1759 1.429 . S
C1740 H1764 0.950 . S
C1741 C1758 1.574 . S
C1741 C1760 1.368 . S
C1741 H1765 0.949 . S
H1742 C1746 0.949 . S
C1743 C1744 1.349 . S
C1743 C1745 1.327 . S
C1743 H1766 0.950 . S
C1744 C1743 1.349 . S
C1744 C1756 1.349 . S
C1745 C1743 1.327 . S
C1745 C1761 1.429 . S
C1745 H1767 0.950 . S
C1746 H1742 0.949 . S
C1746 C1754 1.574 . S
C1746 C1762 1.368 . S
H1747 C1755 0.950 . S
H1748 C1753 0.950 . S
H1749 C1754 0.949 . S
H1750 C1756 0.950 . S
H1751 C1757 0.950 . S
H1752 C1758 0.949 . S
C1753 H1748 0.950 . S
C1753 C1755 1.327 . S
C1753 C1759 1.429 . S
C1754 C1746 1.574 . S
C1754 H1749 0.949 . S
C1754 C1760 1.368 . S
C1755 C1739 1.349 . S
C1755 H1747 0.950 . S
C1755 C1753 1.327 . S
C1756 C1744 1.349 . S
C1756 H1750 0.950 . S
C1756 C1757 1.327 . S
C1757 H1751 0.950 . S
C1757 C1756 1.327 . S
C1757 C1761 1.429 . S
C1758 C1741 1.574 . S
C1758 H1752 0.949 . S
C1758 C1762 1.368 . S
C1759 C1740 1.429 . S
C1759 C1753 1.429 . S
C1759 C1760 1.523 . S
C1760 C1741 1.368 . S
C1760 C1754 1.368 . S
C1760 C1759 1.523 . S
C1761 C1745 1.429 . S
C1761 C1757 1.429 . S
C1761 C1762 1.523 . S
C1762 C1746 1.368 . S
C1762 C1758 1.368 . S
C1762 C1761 1.523 . S
H1763 C1738 0.950 . S
H1764 C1740 0.950 . S
H1765 C1741 0.949 . S
H1766 C1743 0.950 . S
H1767 C1745 0.950 . S
C1768 C1769 1.349 . S
C1768 C1770 1.327 . S
C1768 H1793 0.950 . S
C1769 C1768 1.349 . S
C1769 C1785 1.349 . S
C1770 C1768 1.327 . S
C1770 C1789 1.429 . S
C1770 H1794 0.950 . S
C1771 C1788 1.574 . S
C1771 C1790 1.368 . S
C1771 H1795 0.949 . S
H1772 C1776 0.949 . S
C1773 C1774 1.349 . S
C1773 C1775 1.327 . S
C1773 H1796 0.950 . S
C1774 C1773 1.349 . S
C1774 C1786 1.349 . S
C1775 C1773 1.327 . S
C1775 C1791 1.429 . S
C1775 H1797 0.950 . S
C1776 H1772 0.949 . S
C1776 C1784 1.574 . S
C1776 C1792 1.368 . S
H1777 C1785 0.950 . S
H1778 C1783 0.950 . S
H1779 C1784 0.949 . S
H1780 C1786 0.950 . S
H1781 C1787 0.950 . S
H1782 C1788 0.949 . S
C1783 H1778 0.950 . S
C1783 C1785 1.327 . S
C1783 C1789 1.429 . S
C1784 C1776 1.574 . S
C1784 H1779 0.949 . S
C1784 C1790 1.368 . S
C1785 C1769 1.349 . S
C1785 H1777 0.950 . S
C1785 C1783 1.327 . S
C1786 C1774 1.349 . S
C1786 H1780 0.950 . S
C1786 C1787 1.327 . S
C1787 H1781 0.950 . S
C1787 C1786 1.327 . S
C1787 C1791 1.429 . S
C1788 C1771 1.574 . S
C1788 H1782 0.949 . S
C1788 C1792 1.368 . S
C1789 C1770 1.429 . S
C1789 C1783 1.429 . S
C1789 C1790 1.523 . S
C1790 C1771 1.368 . S
C1790 C1784 1.368 . S
C1790 C1789 1.523 . S
C1791 C1775 1.429 . S
C1791 C1787 1.429 . S
C1791 C1792 1.523 . S
C1792 C1776 1.368 . S
C1792 C1788 1.368 . S
C1792 C1791 1.523 . S
H1793 C1768 0.950 . S
H1794 C1770 0.950 . S
H1795 C1771 0.949 . S
H1796 C1773 0.950 . S
H1797 C1775 0.950 . S
C1798 C1799 1.349 . S
C1798 C1800 1.327 . S
C1798 H1823 0.950 . S
C1799 C1798 1.349 . S
C1799 C1815 1.349 . S
C1800 C1798 1.327 . S
C1800 C1819 1.429 . S
C1800 H1824 0.950 . S
C1801 C1818 1.574 . S
C1801 C1820 1.368 . S
C1801 H1825 0.949 . S
H1802 C1806 0.949 . S
C1803 C1804 1.349 . S
C1803 C1805 1.327 . S
C1803 H1826 0.950 . S
C1804 C1803 1.349 . S
C1804 C1816 1.349 . S
C1805 C1803 1.327 . S
C1805 C1821 1.429 . S
C1805 H1827 0.950 . S
C1806 H1802 0.949 . S
C1806 C1814 1.574 . S
C1806 C1822 1.368 . S
H1807 C1815 0.950 . S
H1808 C1813 0.950 . S
H1809 C1814 0.949 . S
H1810 C1816 0.950 . S
H1811 C1817 0.950 . S
H1812 C1818 0.949 . S
C1813 H1808 0.950 . S
C1813 C1815 1.327 . S
C1813 C1819 1.429 . S
C1814 C1806 1.574 . S
C1814 H1809 0.949 . S
C1814 C1820 1.368 . S
C1815 C1799 1.349 . S
C1815 H1807 0.950 . S
C1815 C1813 1.327 . S
C1816 C1804 1.349 . S
C1816 H1810 0.950 . S
C1816 C1817 1.327 . S
C1817 H1811 0.950 . S
C1817 C1816 1.327 . S
C1817 C1821 1.429 . S
C1818 C1801 1.574 . S
C1818 H1812 0.949 . S
C1818 C1822 1.368 . S
C1819 C1800 1.429 . S
C1819 C1813 1.429 . S
C1819 C1820 1.523 . S
C1820 C1801 1.368 . S
C1820 C1814 1.368 . S
C1820 C1819 1.523 . S
C1821 C1805 1.429 . S
C1821 C1817 1.429 . S
C1821 C1822 1.523 . S
C1822 C1806 1.368 . S
C1822 C1818 1.368 . S
C1822 C1821 1.523 . S
H1823 C1798 0.950 . S
H1824 C1800 0.950 . S
H1825 C1801 0.949 . S
H1826 C1803 0.950 . S
H1827 C1805 0.950 . S
C1828 C1829 1.349 . S
C1828 C1830 1.327 . S
C1828 H1853 0.950 . S
C1829 C1828 1.349 . S
C1829 C1845 1.349 . S
C1830 C1828 1.327 . S
C1830 C1849 1.429 . S
C1830 H1854 0.950 . S
C1831 C1848 1.574 . S
C1831 C1850 1.368 . S
C1831 H1855 0.949 . S
H1832 C1836 0.949 . S
C1833 C1834 1.349 . S
C1833 C1835 1.327 . S
C1833 H1856 0.950 . S
C1834 C1833 1.349 . S
C1834 C1846 1.349 . S
C1835 C1833 1.327 . S
C1835 C1851 1.429 . S
C1835 H1857 0.950 . S
C1836 H1832 0.949 . S
C1836 C1844 1.574 . S
C1836 C1852 1.368 . S
H1837 C1845 0.950 . S
H1838 C1843 0.950 . S
H1839 C1844 0.949 . S
H1840 C1846 0.950 . S
H1841 C1847 0.950 . S
H1842 C1848 0.949 . S
C1843 H1838 0.950 . S
C1843 C1845 1.327 . S
C1843 C1849 1.429 . S
C1844 C1836 1.574 . S
C1844 H1839 0.949 . S
C1844 C1850 1.368 . S
C1845 C1829 1.349 . S
C1845 H1837 0.950 . S
C1845 C1843 1.327 . S
C1846 C1834 1.349 . S
C1846 H1840 0.950 . S
C1846 C1847 1.327 . S
C1847 H1841 0.950 . S
C1847 C1846 1.327 . S
C1847 C1851 1.429 . S
C1848 C1831 1.574 . S
C1848 H1842 0.949 . S
C1848 C1852 1.368 . S
C1849 C1830 1.429 . S
C1849 C1843 1.429 . S
C1849 C1850 1.523 . S
C1850 C1831 1.368 . S
C1850 C1844 1.368 . S
C1850 C1849 1.523 . S
C1851 C1835 1.429 . S
C1851 C1847 1.429 . S
C1851 C1852 1.523 . S
C1852 C1836 1.368 . S
C1852 C1848 1.368 . S
C1852 C1851 1.523 . S
H1853 C1828 0.950 . S
H1854 C1830 0.950 . S
H1855 C1831 0.949 . S
H1856 C1833 0.950 . S
H1857 C1835 0.950 . S
C1858 C1859 1.349 . S
C1858 C1860 1.327 . S
C1858 H1883 0.950 . S
C1859 C1858 1.349 . S
C1859 C1875 1.349 . S
C1860 C1858 1.327 . S
C1860 C1879 1.429 . S
C1860 H1884 0.950 . S
C1861 C1878 1.574 . S
C1861 C1880 1.368 . S
C1861 H1885 0.949 . S
H1862 C1866 0.949 . S
C1863 C1864 1.349 . S
C1863 C1865 1.327 . S
C1863 H1886 0.950 . S
C1864 C1863 1.349 . S
C1864 C1876 1.349 . S
C1865 C1863 1.327 . S
C1865 C1881 1.429 . S
C1865 H1887 0.950 . S
C1866 H1862 0.949 . S
C1866 C1874 1.574 . S
C1866 C1882 1.368 . S
H1867 C1875 0.950 . S
H1868 C1873 0.950 . S
H1869 C1874 0.949 . S
H1870 C1876 0.950 . S
H1871 C1877 0.950 . S
H1872 C1878 0.949 . S
C1873 H1868 0.950 . S
C1873 C1875 1.327 . S
C1873 C1879 1.429 . S
C1874 C1866 1.574 . S
C1874 H1869 0.949 . S
C1874 C1880 1.368 . S
C1875 C1859 1.349 . S
C1875 H1867 0.950 . S
C1875 C1873 1.327 . S
C1876 C1864 1.349 . S
C1876 H1870 0.950 . S
C1876 C1877 1.327 . S
C1877 H1871 0.950 . S
C1877 C1876 1.327 . S
C1877 C1881 1.429 . S
C1878 C1861 1.574 . S
C1878 H1872 0.949 . S
C1878 C1882 1.368 . S
C1879 C1860 1.429 . S
C1879 C1873 1.429 . S
C1879 C1880 1.523 . S
C1880 C1861 1.368 . S
C1880 C1874 1.368 . S
C1880 C1879 1.523 . S
C1881 C1865 1.429 . S
C1881 C1877 1.429 . S
C1881 C1882 1.523 . S
C1882 C1866 1.368 . S
C1882 C1878 1.368 . S
C1882 C1881 1.523 . S
H1883 C1858 0.950 . S
H1884 C1860 0.950 . S
H1885 C1861 0.949 . S
H1886 C1863 0.950 . S
H1887 C1865 0.950 . S
C1888 C1889 1.349 1_556 S
C1888 C1890 1.327 . S
C1888 H1913 0.950 . S
C1889 C1888 1.349 1_554 S
C1889 C1905 1.349 . S
C1890 C1888 1.327 . S
C1890 C1909 1.429 1_556 S
C1890 H1914 0.950 . S
C1891 C1908 1.574 . S
C1891 C1910 1.368 . S
C1891 H1915 0.949 . S
H1892 C1896 0.949 . S
C1893 C1894 1.349 . S
C1893 C1895 1.327 . S
C1893 H1916 0.950 . S
C1894 C1893 1.349 . S
C1894 C1906 1.349 1_554 S
C1895 C1893 1.327 . S
C1895 C1911 1.429 . S
C1895 H1917 0.950 . S
C1896 H1892 0.949 . S
C1896 C1904 1.574 . S
C1896 C1912 1.368 1_556 S
H1897 C1905 0.950 . S
H1898 C1903 0.950 . S
H1899 C1904 0.949 . S
H1900 C1906 0.950 . S
H1901 C1907 0.950 . S
H1902 C1908 0.949 . S
C1903 H1898 0.950 . S
C1903 C1905 1.327 . S
C1903 C1909 1.429 . S
C1904 C1896 1.574 . S
C1904 H1899 0.949 . S
C1904 C1910 1.368 1_556 S
C1905 C1889 1.349 . S
C1905 H1897 0.950 . S
C1905 C1903 1.327 . S
C1906 C1894 1.349 1_556 S
C1906 H1900 0.950 . S
C1906 C1907 1.327 . S
C1907 H1901 0.950 . S
C1907 C1906 1.327 . S
C1907 C1911 1.429 1_556 S
C1908 C1891 1.574 . S
C1908 H1902 0.949 . S
C1908 C1912 1.368 . S
C1909 C1890 1.429 1_554 S
C1909 C1903 1.429 . S
C1909 C1910 1.523 . S
C1910 C1891 1.368 . S
C1910 C1904 1.368 1_554 S
C1910 C1909 1.523 . S
C1911 C1895 1.429 . S
C1911 C1907 1.429 1_554 S
C1911 C1912 1.523 . S
C1912 C1896 1.368 1_554 S
C1912 C1908 1.368 . S
C1912 C1911 1.523 . S
H1913 C1888 0.950 . S
H1914 C1890 0.950 . S
H1915 C1891 0.949 . S
H1916 C1893 0.950 . S
H1917 C1895 0.950 . S
C1918 C1919 1.349 . S
C1918 C1920 1.327 . S
C1918 H1943 0.950 . S
C1919 C1918 1.349 . S
C1919 C1935 1.349 . S
C1920 C1918 1.327 . S
C1920 C1939 1.429 . S
C1920 H1944 0.950 . S
C1921 C1938 1.574 . S
C1921 C1940 1.368 . S
C1921 H1945 0.949 . S
H1922 C1926 0.949 . S
C1923 C1924 1.349 . S
C1923 C1925 1.327 . S
C1923 H1946 0.950 . S
C1924 C1923 1.349 . S
C1924 C1936 1.349 . S
C1925 C1923 1.327 . S
C1925 C1941 1.429 . S
C1925 H1947 0.950 . S
C1926 H1922 0.949 . S
C1926 C1934 1.574 . S
C1926 C1942 1.368 . S
H1927 C1935 0.950 . S
H1928 C1933 0.950 . S
H1929 C1934 0.949 . S
H1930 C1936 0.950 . S
H1931 C1937 0.950 . S
H1932 C1938 0.949 . S
C1933 H1928 0.950 . S
C1933 C1935 1.327 . S
C1933 C1939 1.429 . S
C1934 C1926 1.574 . S
C1934 H1929 0.949 . S
C1934 C1940 1.368 . S
C1935 C1919 1.349 . S
C1935 H1927 0.950 . S
C1935 C1933 1.327 . S
C1936 C1924 1.349 . S
C1936 H1930 0.950 . S
C1936 C1937 1.327 . S
C1937 H1931 0.950 . S
C1937 C1936 1.327 . S
C1937 C1941 1.429 . S
C1938 C1921 1.574 . S
C1938 H1932 0.949 . S
C1938 C1942 1.368 . S
C1939 C1920 1.429 . S
C1939 C1933 1.429 . S
C1939 C1940 1.523 . S
C1940 C1921 1.368 . S
C1940 C1934 1.368 . S
C1940 C1939 1.523 . S
C1941 C1925 1.429 . S
C1941 C1937 1.429 . S
C1941 C1942 1.523 . S
C1942 C1926 1.368 . S
C1942 C1938 1.368 . S
C1942 C1941 1.523 . S
H1943 C1918 0.950 . S
H1944 C1920 0.950 . S
H1945 C1921 0.949 . S
H1946 C1923 0.950 . S
H1947 C1925 0.950 . S
C1948 C1949 1.349 1_554 S
C1948 C1950 1.327 . S
C1948 H1973 0.950 . S
C1949 C1948 1.349 1_556 S
C1949 C1965 1.349 . S
C1950 C1948 1.327 . S
C1950 C1969 1.429 1_554 S
C1950 H1974 0.950 . S
C1951 C1968 1.574 . S
C1951 C1970 1.368 . S
C1951 H1975 0.949 . S
H1952 C1956 0.949 . S
C1953 C1954 1.349 . S
C1953 C1955 1.327 . S
C1953 H1976 0.950 . S
C1954 C1953 1.349 . S
C1954 C1966 1.349 1_556 S
C1955 C1953 1.327 . S
C1955 C1971 1.429 . S
C1955 H1977 0.950 . S
C1956 H1952 0.949 . S
C1956 C1964 1.574 . S
C1956 C1972 1.368 1_554 S
H1957 C1965 0.950 . S
H1958 C1963 0.950 . S
H1959 C1964 0.949 . S
H1960 C1966 0.950 . S
H1961 C1967 0.950 . S
H1962 C1968 0.949 . S
C1963 H1958 0.950 . S
C1963 C1965 1.327 . S
C1963 C1969 1.429 . S
C1964 C1956 1.574 . S
C1964 H1959 0.949 . S
C1964 C1970 1.368 1_554 S
C1965 C1949 1.349 . S
C1965 H1957 0.950 . S
C1965 C1963 1.327 . S
C1966 C1954 1.349 1_554 S
C1966 H1960 0.950 . S
C1966 C1967 1.327 . S
C1967 H1961 0.950 . S
C1967 C1966 1.327 . S
C1967 C1971 1.429 1_554 S
C1968 C1951 1.574 . S
C1968 H1962 0.949 . S
C1968 C1972 1.368 . S
C1969 C1950 1.429 1_556 S
C1969 C1963 1.429 . S
C1969 C1970 1.523 . S
C1970 C1951 1.368 . S
C1970 C1964 1.368 1_556 S
C1970 C1969 1.523 . S
C1971 C1955 1.429 . S
C1971 C1967 1.429 1_556 S
C1971 C1972 1.523 . S
C1972 C1956 1.368 1_556 S
C1972 C1968 1.368 . S
C1972 C1971 1.523 . S
H1973 C1948 0.950 . S
H1974 C1950 0.950 . S
H1975 C1951 0.949 . S
H1976 C1953 0.950 . S
H1977 C1955 0.950 . S
C1978 C1979 1.349 . S
C1978 C1980 1.327 . S
C1978 H2003 0.950 . S
C1979 C1978 1.349 . S
C1979 C1995 1.349 . S
C1980 C1978 1.327 . S
C1980 C1999 1.429 . S
C1980 H2004 0.950 . S
C1981 C1998 1.574 . S
C1981 C2000 1.368 . S
C1981 H2005 0.949 . S
H1982 C1986 0.949 . S
C1983 C1984 1.349 . S
C1983 C1985 1.327 . S
C1983 H2006 0.950 . S
C1984 C1983 1.349 . S
C1984 C1996 1.349 . S
C1985 C1983 1.327 . S
C1985 C2001 1.429 . S
C1985 H2007 0.950 . S
C1986 H1982 0.949 . S
C1986 C1994 1.574 . S
C1986 C2002 1.368 . S
H1987 C1995 0.950 . S
H1988 C1993 0.950 . S
H1989 C1994 0.949 . S
H1990 C1996 0.950 . S
H1991 C1997 0.950 . S
H1992 C1998 0.949 . S
C1993 H1988 0.950 . S
C1993 C1995 1.327 . S
C1993 C1999 1.429 . S
C1994 C1986 1.574 . S
C1994 H1989 0.949 . S
C1994 C2000 1.368 . S
C1995 C1979 1.349 . S
C1995 H1987 0.950 . S
C1995 C1993 1.327 . S
C1996 C1984 1.349 . S
C1996 H1990 0.950 . S
C1996 C1997 1.327 . S
C1997 H1991 0.950 . S
C1997 C1996 1.327 . S
C1997 C2001 1.429 . S
C1998 C1981 1.574 . S
C1998 H1992 0.949 . S
C1998 C2002 1.368 . S
C1999 C1980 1.429 . S
C1999 C1993 1.429 . S
C1999 C2000 1.523 . S
C2000 C1981 1.368 . S
C2000 C1994 1.368 . S
C2000 C1999 1.523 . S
C2001 C1985 1.429 . S
C2001 C1997 1.429 . S
C2001 C2002 1.523 . S
C2002 C1986 1.368 . S
C2002 C1998 1.368 . S
C2002 C2001 1.523 . S
H2003 C1978 0.950 . S
H2004 C1980 0.950 . S
H2005 C1981 0.949 . S
H2006 C1983 0.950 . S
H2007 C1985 0.950 . S
C2008 C2009 1.349 . S
C2008 C2010 1.327 . S
C2008 H2033 0.950 . S
C2009 C2008 1.349 . S
C2009 C2025 1.349 . S
C2010 C2008 1.327 . S
C2010 C2029 1.429 . S
C2010 H2034 0.950 . S
C2011 C2028 1.574 . S
C2011 C2030 1.368 . S
C2011 H2035 0.949 . S
H2012 C2016 0.949 . S
C2013 C2014 1.349 . S
C2013 C2015 1.327 . S
C2013 H2036 0.950 . S
C2014 C2013 1.349 . S
C2014 C2026 1.349 . S
C2015 C2013 1.327 . S
C2015 C2031 1.429 . S
C2015 H2037 0.950 . S
C2016 H2012 0.949 . S
C2016 C2024 1.574 . S
C2016 C2032 1.368 . S
H2017 C2025 0.950 . S
H2018 C2023 0.950 . S
H2019 C2024 0.949 . S
H2020 C2026 0.950 . S
H2021 C2027 0.950 . S
H2022 C2028 0.949 . S
C2023 H2018 0.950 . S
C2023 C2025 1.327 . S
C2023 C2029 1.429 . S
C2024 C2016 1.574 . S
C2024 H2019 0.949 . S
C2024 C2030 1.368 . S
C2025 C2009 1.349 . S
C2025 H2017 0.950 . S
C2025 C2023 1.327 . S
C2026 C2014 1.349 . S
C2026 H2020 0.950 . S
C2026 C2027 1.327 . S
C2027 H2021 0.950 . S
C2027 C2026 1.327 . S
C2027 C2031 1.429 . S
C2028 C2011 1.574 . S
C2028 H2022 0.949 . S
C2028 C2032 1.368 . S
C2029 C2010 1.429 . S
C2029 C2023 1.429 . S
C2029 C2030 1.523 . S
C2030 C2011 1.368 . S
C2030 C2024 1.368 . S
C2030 C2029 1.523 . S
C2031 C2015 1.429 . S
C2031 C2027 1.429 . S
C2031 C2032 1.523 . S
C2032 C2016 1.368 . S
C2032 C2028 1.368 . S
C2032 C2031 1.523 . S
H2033 C2008 0.950 . S
H2034 C2010 0.950 . S
H2035 C2011 0.949 . S
H2036 C2013 0.950 . S
H2037 C2015 0.950 . S
C2038 C2039 1.349 . S
C2038 C2040 1.327 . S
C2038 H2063 0.950 . S
C2039 C2038 1.349 . S
C2039 C2055 1.349 . S
C2040 C2038 1.327 . S
C2040 C2059 1.429 . S
C2040 H2064 0.950 . S
C2041 C2058 1.574 . S
C2041 C2060 1.368 . S
C2041 H2065 0.949 . S
H2042 C2046 0.949 . S
C2043 C2044 1.349 . S
C2043 C2045 1.327 . S
C2043 H2066 0.950 . S
C2044 C2043 1.349 . S
C2044 C2056 1.349 . S
C2045 C2043 1.327 . S
C2045 C2061 1.429 . S
C2045 H2067 0.950 . S
C2046 H2042 0.949 . S
C2046 C2054 1.574 . S
C2046 C2062 1.368 . S
H2047 C2055 0.950 . S
H2048 C2053 0.950 . S
H2049 C2054 0.949 . S
H2050 C2056 0.950 . S
H2051 C2057 0.950 . S
H2052 C2058 0.949 . S
C2053 H2048 0.950 . S
C2053 C2055 1.327 . S
C2053 C2059 1.429 . S
C2054 C2046 1.574 . S
C2054 H2049 0.949 . S
C2054 C2060 1.368 . S
C2055 C2039 1.349 . S
C2055 H2047 0.950 . S
C2055 C2053 1.327 . S
C2056 C2044 1.349 . S
C2056 H2050 0.950 . S
C2056 C2057 1.327 . S
C2057 H2051 0.950 . S
C2057 C2056 1.327 . S
C2057 C2061 1.429 . S
C2058 C2041 1.574 . S
C2058 H2052 0.949 . S
C2058 C2062 1.368 . S
C2059 C2040 1.429 . S
C2059 C2053 1.429 . S
C2059 C2060 1.523 . S
C2060 C2041 1.368 . S
C2060 C2054 1.368 . S
C2060 C2059 1.523 . S
C2061 C2045 1.429 . S
C2061 C2057 1.429 . S
C2061 C2062 1.523 . S
C2062 C2046 1.368 . S
C2062 C2058 1.368 . S
C2062 C2061 1.523 . S
H2063 C2038 0.950 . S
H2064 C2040 0.950 . S
H2065 C2041 0.949 . S
H2066 C2043 0.950 . S
H2067 C2045 0.950 . S
C2068 C2069 1.349 . S
C2068 C2070 1.327 . S
C2068 H2093 0.950 . S
C2069 C2068 1.349 . S
C2069 C2085 1.349 . S
C2070 C2068 1.327 . S
C2070 C2089 1.429 . S
C2070 H2094 0.950 . S
C2071 C2088 1.574 . S
C2071 C2090 1.368 . S
C2071 H2095 0.949 . S
H2072 C2076 0.949 . S
C2073 C2074 1.349 . S
C2073 C2075 1.327 . S
C2073 H2096 0.950 . S
C2074 C2073 1.349 . S
C2074 C2086 1.349 . S
C2075 C2073 1.327 . S
C2075 C2091 1.429 . S
C2075 H2097 0.950 . S
C2076 H2072 0.949 . S
C2076 C2084 1.574 . S
C2076 C2092 1.368 . S
H2077 C2085 0.950 . S
H2078 C2083 0.950 . S
H2079 C2084 0.949 . S
H2080 C2086 0.950 . S
H2081 C2087 0.950 . S
H2082 C2088 0.949 . S
C2083 H2078 0.950 . S
C2083 C2085 1.327 . S
C2083 C2089 1.429 . S
C2084 C2076 1.574 . S
C2084 H2079 0.949 . S
C2084 C2090 1.368 . S
C2085 C2069 1.349 . S
C2085 H2077 0.950 . S
C2085 C2083 1.327 . S
C2086 C2074 1.349 . S
C2086 H2080 0.950 . S
C2086 C2087 1.327 . S
C2087 H2081 0.950 . S
C2087 C2086 1.327 . S
C2087 C2091 1.429 . S
C2088 C2071 1.574 . S
C2088 H2082 0.949 . S
C2088 C2092 1.368 . S
C2089 C2070 1.429 . S
C2089 C2083 1.429 . S
C2089 C2090 1.523 . S
C2090 C2071 1.368 . S
C2090 C2084 1.368 . S
C2090 C2089 1.523 . S
C2091 C2075 1.429 . S
C2091 C2087 1.429 . S
C2091 C2092 1.523 . S
C2092 C2076 1.368 . S
C2092 C2088 1.368 . S
C2092 C2091 1.523 . S
H2093 C2068 0.950 . S
H2094 C2070 0.950 . S
H2095 C2071 0.949 . S
H2096 C2073 0.950 . S
H2097 C2075 0.950 . S
C2098 C2099 1.349 . S
C2098 C2100 1.327 . S
C2098 H2123 0.950 . S
C2099 C2098 1.349 . S
C2099 C2115 1.349 . S
C2100 C2098 1.327 . S
C2100 C2119 1.429 . S
C2100 H2124 0.950 . S
C2101 C2118 1.574 . S
C2101 C2120 1.368 . S
C2101 H2125 0.949 . S
H2102 C2106 0.949 . S
C2103 C2104 1.349 . S
C2103 C2105 1.327 . S
C2103 H2126 0.950 . S
C2104 C2103 1.349 . S
C2104 C2116 1.349 . S
C2105 C2103 1.327 . S
C2105 C2121 1.429 . S
C2105 H2127 0.950 . S
C2106 H2102 0.949 . S
C2106 C2114 1.574 . S
C2106 C2122 1.368 . S
H2107 C2115 0.950 . S
H2108 C2113 0.950 . S
H2109 C2114 0.949 . S
H2110 C2116 0.950 . S
H2111 C2117 0.950 . S
H2112 C2118 0.949 . S
C2113 H2108 0.950 . S
C2113 C2115 1.327 . S
C2113 C2119 1.429 . S
C2114 C2106 1.574 . S
C2114 H2109 0.949 . S
C2114 C2120 1.368 . S
C2115 C2099 1.349 . S
C2115 H2107 0.950 . S
C2115 C2113 1.327 . S
C2116 C2104 1.349 . S
C2116 H2110 0.950 . S
C2116 C2117 1.327 . S
C2117 H2111 0.950 . S
C2117 C2116 1.327 . S
C2117 C2121 1.429 . S
C2118 C2101 1.574 . S
C2118 H2112 0.949 . S
C2118 C2122 1.368 . S
C2119 C2100 1.429 . S
C2119 C2113 1.429 . S
C2119 C2120 1.523 . S
C2120 C2101 1.368 . S
C2120 C2114 1.368 . S
C2120 C2119 1.523 . S
C2121 C2105 1.429 . S
C2121 C2117 1.429 . S
C2121 C2122 1.523 . S
C2122 C2106 1.368 . S
C2122 C2118 1.368 . S
C2122 C2121 1.523 . S
H2123 C2098 0.950 . S
H2124 C2100 0.950 . S
H2125 C2101 0.949 . S
H2126 C2103 0.950 . S
H2127 C2105 0.950 . S
C2128 C2129 1.349 . S
C2128 C2130 1.327 . S
C2128 H2153 0.950 . S
C2129 C2128 1.349 . S
C2129 C2145 1.349 . S
C2130 C2128 1.327 . S
C2130 C2149 1.429 . S
C2130 H2154 0.950 . S
C2131 C2148 1.574 . S
C2131 C2150 1.368 . S
C2131 H2155 0.949 . S
H2132 C2136 0.949 . S
C2133 C2134 1.349 . S
C2133 C2135 1.327 . S
C2133 H2156 0.950 . S
C2134 C2133 1.349 . S
C2134 C2146 1.349 . S
C2135 C2133 1.327 . S
C2135 C2151 1.429 . S
C2135 H2157 0.950 . S
C2136 H2132 0.949 . S
C2136 C2144 1.574 . S
C2136 C2152 1.368 . S
H2137 C2145 0.950 . S
H2138 C2143 0.950 . S
H2139 C2144 0.949 . S
H2140 C2146 0.950 . S
H2141 C2147 0.950 . S
H2142 C2148 0.949 . S
C2143 H2138 0.950 . S
C2143 C2145 1.327 . S
C2143 C2149 1.429 . S
C2144 C2136 1.574 . S
C2144 H2139 0.949 . S
C2144 C2150 1.368 . S
C2145 C2129 1.349 . S
C2145 H2137 0.950 . S
C2145 C2143 1.327 . S
C2146 C2134 1.349 . S
C2146 H2140 0.950 . S
C2146 C2147 1.327 . S
C2147 H2141 0.950 . S
C2147 C2146 1.327 . S
C2147 C2151 1.429 . S
C2148 C2131 1.574 . S
C2148 H2142 0.949 . S
C2148 C2152 1.368 . S
C2149 C2130 1.429 . S
C2149 C2143 1.429 . S
C2149 C2150 1.523 . S
C2150 C2131 1.368 . S
C2150 C2144 1.368 . S
C2150 C2149 1.523 . S
C2151 C2135 1.429 . S
C2151 C2147 1.429 . S
C2151 C2152 1.523 . S
C2152 C2136 1.368 . S
C2152 C2148 1.368 . S
C2152 C2151 1.523 . S
H2153 C2128 0.950 . S
H2154 C2130 0.950 . S
H2155 C2131 0.949 . S
H2156 C2133 0.950 . S
H2157 C2135 0.950 . S
C2158 C2159 1.349 . S
C2158 C2160 1.327 . S
C2158 H2183 0.950 . S
C2159 C2158 1.349 . S
C2159 C2175 1.349 . S
C2160 C2158 1.327 . S
C2160 C2179 1.429 . S
C2160 H2184 0.950 . S
C2161 C2178 1.574 . S
C2161 C2180 1.368 . S
C2161 H2185 0.949 . S
H2162 C2166 0.949 . S
C2163 C2164 1.349 . S
C2163 C2165 1.327 . S
C2163 H2186 0.950 . S
C2164 C2163 1.349 . S
C2164 C2176 1.349 . S
C2165 C2163 1.327 . S
C2165 C2181 1.429 . S
C2165 H2187 0.950 . S
C2166 H2162 0.949 . S
C2166 C2174 1.574 . S
C2166 C2182 1.368 . S
H2167 C2175 0.950 . S
H2168 C2173 0.950 . S
H2169 C2174 0.949 . S
H2170 C2176 0.950 . S
H2171 C2177 0.950 . S
H2172 C2178 0.949 . S
C2173 H2168 0.950 . S
C2173 C2175 1.327 . S
C2173 C2179 1.429 . S
C2174 C2166 1.574 . S
C2174 H2169 0.949 . S
C2174 C2180 1.368 . S
C2175 C2159 1.349 . S
C2175 H2167 0.950 . S
C2175 C2173 1.327 . S
C2176 C2164 1.349 . S
C2176 H2170 0.950 . S
C2176 C2177 1.327 . S
C2177 H2171 0.950 . S
C2177 C2176 1.327 . S
C2177 C2181 1.429 . S
C2178 C2161 1.574 . S
C2178 H2172 0.949 . S
C2178 C2182 1.368 . S
C2179 C2160 1.429 . S
C2179 C2173 1.429 . S
C2179 C2180 1.523 . S
C2180 C2161 1.368 . S
C2180 C2174 1.368 . S
C2180 C2179 1.523 . S
C2181 C2165 1.429 . S
C2181 C2177 1.429 . S
C2181 C2182 1.523 . S
C2182 C2166 1.368 . S
C2182 C2178 1.368 . S
C2182 C2181 1.523 . S
H2183 C2158 0.950 . S
H2184 C2160 0.950 . S
H2185 C2161 0.949 . S
H2186 C2163 0.950 . S
H2187 C2165 0.950 . S
C2188 C2189 1.349 . S
C2188 C2190 1.327 . S
C2188 H2213 0.950 . S
C2189 C2188 1.349 . S
C2189 C2205 1.349 . S
C2190 C2188 1.327 . S
C2190 C2209 1.429 . S
C2190 H2214 0.950 . S
C2191 C2208 1.574 . S
C2191 C2210 1.368 . S
C2191 H2215 0.949 . S
H2192 C2196 0.949 . S
C2193 C2194 1.349 . S
C2193 C2195 1.327 . S
C2193 H2216 0.950 . S
C2194 C2193 1.349 . S
C2194 C2206 1.349 . S
C2195 C2193 1.327 . S
C2195 C2211 1.429 . S
C2195 H2217 0.950 . S
C2196 H2192 0.949 . S
C2196 C2204 1.574 . S
C2196 C2212 1.368 . S
H2197 C2205 0.950 . S
H2198 C2203 0.950 . S
H2199 C2204 0.949 . S
H2200 C2206 0.950 . S
H2201 C2207 0.950 . S
H2202 C2208 0.949 . S
C2203 H2198 0.950 . S
C2203 C2205 1.327 . S
C2203 C2209 1.429 . S
C2204 C2196 1.574 . S
C2204 H2199 0.949 . S
C2204 C2210 1.368 . S
C2205 C2189 1.349 . S
C2205 H2197 0.950 . S
C2205 C2203 1.327 . S
C2206 C2194 1.349 . S
C2206 H2200 0.950 . S
C2206 C2207 1.327 . S
C2207 H2201 0.950 . S
C2207 C2206 1.327 . S
C2207 C2211 1.429 . S
C2208 C2191 1.574 . S
C2208 H2202 0.949 . S
C2208 C2212 1.368 . S
C2209 C2190 1.429 . S
C2209 C2203 1.429 . S
C2209 C2210 1.523 . S
C2210 C2191 1.368 . S
C2210 C2204 1.368 . S
C2210 C2209 1.523 . S
C2211 C2195 1.429 . S
C2211 C2207 1.429 . S
C2211 C2212 1.523 . S
C2212 C2196 1.368 . S
C2212 C2208 1.368 . S
C2212 C2211 1.523 . S
H2213 C2188 0.950 . S
H2214 C2190 0.950 . S
H2215 C2191 0.949 . S
H2216 C2193 0.950 . S
H2217 C2195 0.950 . S
C2218 C2219 1.349 . S
C2218 C2220 1.327 . S
C2218 H2243 0.950 . S
C2219 C2218 1.349 . S
C2219 C2235 1.349 . S
C2220 C2218 1.327 . S
C2220 C2239 1.429 . S
C2220 H2244 0.950 . S
C2221 C2238 1.574 . S
C2221 C2240 1.368 . S
C2221 H2245 0.949 . S
H2222 C2226 0.949 . S
C2223 C2224 1.349 . S
C2223 C2225 1.327 . S
C2223 H2246 0.950 . S
C2224 C2223 1.349 . S
C2224 C2236 1.349 . S
C2225 C2223 1.327 . S
C2225 C2241 1.429 . S
C2225 H2247 0.950 . S
C2226 H2222 0.949 . S
C2226 C2234 1.574 . S
C2226 C2242 1.368 . S
H2227 C2235 0.950 . S
H2228 C2233 0.950 . S
H2229 C2234 0.949 . S
H2230 C2236 0.950 . S
H2231 C2237 0.950 . S
H2232 C2238 0.949 . S
C2233 H2228 0.950 . S
C2233 C2235 1.327 . S
C2233 C2239 1.429 . S
C2234 C2226 1.574 . S
C2234 H2229 0.949 . S
C2234 C2240 1.368 . S
C2235 C2219 1.349 . S
C2235 H2227 0.950 . S
C2235 C2233 1.327 . S
C2236 C2224 1.349 . S
C2236 H2230 0.950 . S
C2236 C2237 1.327 . S
C2237 H2231 0.950 . S
C2237 C2236 1.327 . S
C2237 C2241 1.429 . S
C2238 C2221 1.574 . S
C2238 H2232 0.949 . S
C2238 C2242 1.368 . S
C2239 C2220 1.429 . S
C2239 C2233 1.429 . S
C2239 C2240 1.523 . S
C2240 C2221 1.368 . S
C2240 C2234 1.368 . S
C2240 C2239 1.523 . S
C2241 C2225 1.429 . S
C2241 C2237 1.429 . S
C2241 C2242 1.523 . S
C2242 C2226 1.368 . S
C2242 C2238 1.368 . S
C2242 C2241 1.523 . S
H2243 C2218 0.950 . S
H2244 C2220 0.950 . S
H2245 C2221 0.949 . S
H2246 C2223 0.950 . S
H2247 C2225 0.950 . S
C2248 C2249 1.349 1_556 S
C2248 C2250 1.327 . S
C2248 H2273 0.950 . S
C2249 C2248 1.349 1_554 S
C2249 C2265 1.349 . S
C2250 C2248 1.327 . S
C2250 C2269 1.429 1_556 S
C2250 H2274 0.950 . S
C2251 C2268 1.574 . S
C2251 C2270 1.368 . S
C2251 H2275 0.949 . S
H2252 C2256 0.949 . S
C2253 C2254 1.349 . S
C2253 C2255 1.327 . S
C2253 H2276 0.950 . S
C2254 C2253 1.349 . S
C2254 C2266 1.349 1_554 S
C2255 C2253 1.327 . S
C2255 C2271 1.429 . S
C2255 H2277 0.950 . S
C2256 H2252 0.949 . S
C2256 C2264 1.574 . S
C2256 C2272 1.368 1_556 S
H2257 C2265 0.950 . S
H2258 C2263 0.950 . S
H2259 C2264 0.949 . S
H2260 C2266 0.950 . S
H2261 C2267 0.950 . S
H2262 C2268 0.949 . S
C2263 H2258 0.950 . S
C2263 C2265 1.327 . S
C2263 C2269 1.429 . S
C2264 C2256 1.574 . S
C2264 H2259 0.949 . S
C2264 C2270 1.368 1_556 S
C2265 C2249 1.349 . S
C2265 H2257 0.950 . S
C2265 C2263 1.327 . S
C2266 C2254 1.349 1_556 S
C2266 H2260 0.950 . S
C2266 C2267 1.327 . S
C2267 H2261 0.950 . S
C2267 C2266 1.327 . S
C2267 C2271 1.429 1_556 S
C2268 C2251 1.574 . S
C2268 H2262 0.949 . S
C2268 C2272 1.368 . S
C2269 C2250 1.429 1_554 S
C2269 C2263 1.429 . S
C2269 C2270 1.523 . S
C2270 C2251 1.368 . S
C2270 C2264 1.368 1_554 S
C2270 C2269 1.523 . S
C2271 C2255 1.429 . S
C2271 C2267 1.429 1_554 S
C2271 C2272 1.523 . S
C2272 C2256 1.368 1_554 S
C2272 C2268 1.368 . S
C2272 C2271 1.523 . S
H2273 C2248 0.950 . S
H2274 C2250 0.950 . S
H2275 C2251 0.949 . S
H2276 C2253 0.950 . S
H2277 C2255 0.950 . S
C2278 C2279 1.349 . S
C2278 C2280 1.327 . S
C2278 H2303 0.950 . S
C2279 C2278 1.349 . S
C2279 C2295 1.349 . S
C2280 C2278 1.327 . S
C2280 C2299 1.429 . S
C2280 H2304 0.950 . S
C2281 C2298 1.574 . S
C2281 C2300 1.368 . S
C2281 H2305 0.949 . S
H2282 C2286 0.949 . S
C2283 C2284 1.349 . S
C2283 C2285 1.327 . S
C2283 H2306 0.950 . S
C2284 C2283 1.349 . S
C2284 C2296 1.349 . S
C2285 C2283 1.327 . S
C2285 C2301 1.429 . S
C2285 H2307 0.950 . S
C2286 H2282 0.949 . S
C2286 C2294 1.574 . S
C2286 C2302 1.368 . S
H2287 C2295 0.950 . S
H2288 C2293 0.950 . S
H2289 C2294 0.949 . S
H2290 C2296 0.950 . S
H2291 C2297 0.950 . S
H2292 C2298 0.949 . S
C2293 H2288 0.950 . S
C2293 C2295 1.327 . S
C2293 C2299 1.429 . S
C2294 C2286 1.574 . S
C2294 H2289 0.949 . S
C2294 C2300 1.368 . S
C2295 C2279 1.349 . S
C2295 H2287 0.950 . S
C2295 C2293 1.327 . S
C2296 C2284 1.349 . S
C2296 H2290 0.950 . S
C2296 C2297 1.327 . S
C2297 H2291 0.950 . S
C2297 C2296 1.327 . S
C2297 C2301 1.429 . S
C2298 C2281 1.574 . S
C2298 H2292 0.949 . S
C2298 C2302 1.368 . S
C2299 C2280 1.429 . S
C2299 C2293 1.429 . S
C2299 C2300 1.523 . S
C2300 C2281 1.368 . S
C2300 C2294 1.368 . S
C2300 C2299 1.523 . S
C2301 C2285 1.429 . S
C2301 C2297 1.429 . S
C2301 C2302 1.523 . S
C2302 C2286 1.368 . S
C2302 C2298 1.368 . S
C2302 C2301 1.523 . S
H2303 C2278 0.950 . S
H2304 C2280 0.950 . S
H2305 C2281 0.949 . S
H2306 C2283 0.950 . S
H2307 C2285 0.950 . S
C2308 C2309 1.349 . S
C2308 C2310 1.327 . S
C2308 H2333 0.950 . S
C2309 C2308 1.349 . S
C2309 C2325 1.349 1_556 S
C2310 C2308 1.327 . S
C2310 C2329 1.429 . S
C2310 H2334 0.950 . S
C2311 C2328 1.574 . S
C2311 C2330 1.368 1_554 S
C2311 H2335 0.949 . S
H2312 C2316 0.949 . S
C2313 C2314 1.349 1_554 S
C2313 C2315 1.327 . S
C2313 H2336 0.950 . S
C2314 C2313 1.349 1_556 S
C2314 C2326 1.349 . S
C2315 C2313 1.327 . S
C2315 C2331 1.429 1_554 S
C2315 H2337 0.950 . S
C2316 H2312 0.949 . S
C2316 C2324 1.574 . S
C2316 C2332 1.368 . S
H2317 C2325 0.950 . S
H2318 C2323 0.950 . S
H2319 C2324 0.949 . S
H2320 C2326 0.950 . S
H2321 C2327 0.950 . S
H2322 C2328 0.949 . S
C2323 H2318 0.950 . S
C2323 C2325 1.327 . S
C2323 C2329 1.429 1_554 S
C2324 C2316 1.574 . S
C2324 H2319 0.949 . S
C2324 C2330 1.368 . S
C2325 C2309 1.349 1_554 S
C2325 H2317 0.950 . S
C2325 C2323 1.327 . S
C2326 C2314 1.349 . S
C2326 H2320 0.950 . S
C2326 C2327 1.327 . S
C2327 H2321 0.950 . S
C2327 C2326 1.327 . S
C2327 C2331 1.429 . S
C2328 C2311 1.574 . S
C2328 H2322 0.949 . S
C2328 C2332 1.368 1_554 S
C2329 C2310 1.429 . S
C2329 C2323 1.429 1_556 S
C2329 C2330 1.523 . S
C2330 C2311 1.368 1_556 S
C2330 C2324 1.368 . S
C2330 C2329 1.523 . S
C2331 C2315 1.429 1_556 S
C2331 C2327 1.429 . S
C2331 C2332 1.523 . S
C2332 C2316 1.368 . S
C2332 C2328 1.368 1_556 S
C2332 C2331 1.523 . S
H2333 C2308 0.950 . S
H2334 C2310 0.950 . S
H2335 C2311 0.949 . S
H2336 C2313 0.950 . S
H2337 C2315 0.950 . S
C2338 C2339 1.349 . S
C2338 C2340 1.327 . S
C2338 H2363 0.950 . S
C2339 C2338 1.349 . S
C2339 C2355 1.349 . S
C2340 C2338 1.327 . S
C2340 C2359 1.429 . S
C2340 H2364 0.950 . S
C2341 C2358 1.574 . S
C2341 C2360 1.368 . S
C2341 H2365 0.949 . S
H2342 C2346 0.949 . S
C2343 C2344 1.349 . S
C2343 C2345 1.327 . S
C2343 H2366 0.950 . S
C2344 C2343 1.349 . S
C2344 C2356 1.349 . S
C2345 C2343 1.327 . S
C2345 C2361 1.429 . S
C2345 H2367 0.950 . S
C2346 H2342 0.949 . S
C2346 C2354 1.574 . S
C2346 C2362 1.368 . S
H2347 C2355 0.950 . S
H2348 C2353 0.950 . S
H2349 C2354 0.949 . S
H2350 C2356 0.950 . S
H2351 C2357 0.950 . S
H2352 C2358 0.949 . S
C2353 H2348 0.950 . S
C2353 C2355 1.327 . S
C2353 C2359 1.429 . S
C2354 C2346 1.574 . S
C2354 H2349 0.949 . S
C2354 C2360 1.368 . S
C2355 C2339 1.349 . S
C2355 H2347 0.950 . S
C2355 C2353 1.327 . S
C2356 C2344 1.349 . S
C2356 H2350 0.950 . S
C2356 C2357 1.327 . S
C2357 H2351 0.950 . S
C2357 C2356 1.327 . S
C2357 C2361 1.429 . S
C2358 C2341 1.574 . S
C2358 H2352 0.949 . S
C2358 C2362 1.368 . S
C2359 C2340 1.429 . S
C2359 C2353 1.429 . S
C2359 C2360 1.523 . S
C2360 C2341 1.368 . S
C2360 C2354 1.368 . S
C2360 C2359 1.523 . S
C2361 C2345 1.429 . S
C2361 C2357 1.429 . S
C2361 C2362 1.523 . S
C2362 C2346 1.368 . S
C2362 C2358 1.368 . S
C2362 C2361 1.523 . S
H2363 C2338 0.950 . S
H2364 C2340 0.950 . S
H2365 C2341 0.949 . S
H2366 C2343 0.950 . S
H2367 C2345 0.950 . S
C449 C12 1.555 . S
C454 C55 1.555 . S
C479 C28 1.555 . S
C484 C26 1.555 . S
C509 C110 1.555 . S
C514 C57 1.555 . S
C539 C84 1.554 . S
C544 C70 1.554 . S
C569 C112 1.555 . S
C574 C167 1.555 . S
C599 C139 1.554 . S
C604 C141 1.554 . S
C629 C210 1.555 . S
C634 C168 1.555 . S
C659 C209 1.555 . S
C664 C183 1.555 . S
C689 C224 1.554 . S
C694 C278 1.554 . S
C719 C251 1.555 . S
C724 C252 1.555 . S
C749 C280 1.554 . S
C754 C334 1.554 . S
C779 C294 1.555 . S
C784 C308 1.555 . S
C809 C337 1.554 . S
C814 C391 1.554 . S
C839 C365 1.555 . S
C844 C362 1.555 . S
C869 C447 1.555 . S
C874 C393 1.555 . S
C899 C420 1.555 . S
C904 C407 1.555 . S
C929 C0 1.565 . S
C934 C69 1.565 . S
C959 C419 1.566 . S
C964 C14 1.566 . S
C989 C40 1.564 . S
C994 C197 1.564 . S
C1019 C322 1.563 . S
C1024 C43 1.563 . S
C1049 C350 1.566 . S
C1054 C82 1.565 . S
C1079 C96 1.564 . S
C1084 C153 1.564 . S
C1109 C98 1.563 . S
C1114 C266 1.564 . S
C1139 C180 1.563 . S
C1144 C124 1.564 . S
C1169 C306 1.563 . S
C1174 C127 1.563 . S
C1199 C155 1.563 . S
C1204 C435 1.563 . S
C1229 C195 1.563 . S
C1234 C239 1.563 . S
C1259 C222 1.563 . S
C1264 C379 1.563 . S
C1289 C292 1.563 . S
C1294 C236 1.564 . S
C1319 C264 1.563 . S
C1324 C432 1.562 . S
C1349 C320 1.562 . S
C1354 C377 1.562 . S
C1379 C405 1.566 . S
C1384 C349 1.566 . S
C1409 C13 1.461 . S
C1414 C279 1.461 . S
C1439 C27 1.461 . S
C1444 C253 1.461 . S
C1469 C250 1.462 . S
C1474 C29 1.462 . S
C1499 C225 1.462 . S
C1504 C54 1.462 . S
C1529 C56 1.461 . S
C1534 C335 1.461 . S
C1559 C71 1.462 . S
C1564 C309 1.462 . S
C1589 C85 1.462 . S
C1594 C295 1.462 . S
C1619 C281 1.462 . S
C1624 C111 1.462 . S
C1649 C113 1.462 . S
C1654 C390 1.462 . S
C1679 C364 1.462 . S
C1684 C138 1.462 . S
C1709 C363 1.462 . S
C1714 C140 1.462 . S
C1739 C166 1.462 . S
C1744 C336 1.462 . S
C1769 C169 1.462 . S
C1774 C446 1.462 . S
C1799 C182 1.461 . S
C1804 C421 1.462 . S
C1829 C406 1.462 . S
C1834 C208 1.462 . S
C1859 C211 1.462 . S
C1864 C392 1.462 . S
C1889 C15 1.555 . S
C1894 C1 1.555 . S
C1919 C41 1.554 . S
C1924 C42 1.554 . S
C1949 C83 1.556 . S
C1954 C68 1.555 . S
C1979 C97 1.554 . S
C1984 C99 1.554 . S
C2009 C126 1.555 . S
C2014 C125 1.554 . S
C2039 C152 1.554 . S
C2044 C154 1.554 . S
C2069 C181 1.554 . S
C2074 C194 1.554 . S
C2099 C196 1.553 . S
C2104 C223 1.554 . S
C2129 C237 1.553 . S
C2134 C238 1.554 . S
C2159 C267 1.553 . S
C2164 C265 1.553 . S
C2189 C293 1.554 . S
C2194 C307 1.554 . S
C2219 C323 1.554 . S
C2224 C321 1.554 . S
C2249 C351 1.555 . S
C2254 C348 1.556 . S
C2279 C376 1.554 . S
C2284 C378 1.554 . S
C2309 C404 1.555 . S
C2314 C418 1.555 . S
C2339 C434 1.553 . S
C2344 C433 1.554 . S
