# Generated by pormake.
# Topology soh, (5)-cn, num edge types: 1
# Building blocks:
#     Node 0, Type 0, BuildingBlock: XOMCOT_clean_sbu_1, # of connection points: 5
#     Node 1, Type 0, BuildingBlock: XOMCOT_clean_sbu_1, # of connection points: 5
#     Node 2, Type 0, BuildingBlock: XOMCOT_clean_sbu_1, # of connection points: 5
#     Node 3, Type 0, BuildingBlock: XOMCOT_clean_sbu_1, # of connection points: 5
#     Node 4, Type 0, BuildingBlock: XOMCOT_clean_sbu_1, # of connection points: 5
#     Node 5, Type 0, BuildingBlock: XOMCOT_clean_sbu_1, # of connection points: 5
#     Node 6, Type 0, BuildingBlock: XOMCOT_clean_sbu_1, # of connection points: 5
#     Node 7, Type 0, BuildingBlock: XOMCOT_clean_sbu_1, # of connection points: 5
#     Node 8, Type 0, BuildingBlock: XOMCOT_clean_sbu_1, # of connection points: 5
#     Node 9, Type 0, BuildingBlock: XOMCOT_clean_sbu_1, # of connection points: 5
#     Node 10, Type 0, BuildingBlock: XOMCOT_clean_sbu_1, # of connection points: 5
#     Node 11, Type 0, BuildingBlock: XOMCOT_clean_sbu_1, # of connection points: 5
#     Node 12, Type 0, BuildingBlock: XOMCOT_clean_sbu_1, # of connection points: 5
#     Node 13, Type 0, BuildingBlock: XOMCOT_clean_sbu_1, # of connection points: 5
#     Node 14, Type 0, BuildingBlock: XOMCOT_clean_sbu_1, # of connection points: 5
#     Node 15, Type 0, BuildingBlock: XOMCOT_clean_sbu_1, # of connection points: 5
#     Node 16, Type 0, BuildingBlock: XOMCOT_clean_sbu_1, # of connection points: 5
#     Node 17, Type 0, BuildingBlock: XOMCOT_clean_sbu_1, # of connection points: 5
#     Node 18, Type 0, BuildingBlock: XOMCOT_clean_sbu_1, # of connection points: 5
#     Node 19, Type 0, BuildingBlock: XOMCOT_clean_sbu_1, # of connection points: 5
#     Node 20, Type 0, BuildingBlock: XOMCOT_clean_sbu_1, # of connection points: 5
#     Node 21, Type 0, BuildingBlock: XOMCOT_clean_sbu_1, # of connection points: 5
#     Node 22, Type 0, BuildingBlock: XOMCOT_clean_sbu_1, # of connection points: 5
#     Node 23, Type 0, BuildingBlock: XOMCOT_clean_sbu_1, # of connection points: 5
#     Node 24, Type 0, BuildingBlock: XOMCOT_clean_sbu_1, # of connection points: 5
#     Node 25, Type 0, BuildingBlock: XOMCOT_clean_sbu_1, # of connection points: 5
#     Node 26, Type 0, BuildingBlock: XOMCOT_clean_sbu_1, # of connection points: 5
#     Node 27, Type 0, BuildingBlock: XOMCOT_clean_sbu_1, # of connection points: 5
#     Node 28, Type 0, BuildingBlock: XOMCOT_clean_sbu_1, # of connection points: 5
#     Node 29, Type 0, BuildingBlock: XOMCOT_clean_sbu_1, # of connection points: 5
#     Node 30, Type 0, BuildingBlock: XOMCOT_clean_sbu_1, # of connection points: 5
#     Node 31, Type 0, BuildingBlock: XOMCOT_clean_sbu_1, # of connection points: 5
#     Edge 32, Type (0, 0), BuildingBlock: UVAHIK_clean_linker_0, # of connection points: 2
#     Edge 33, Type (0, 0), BuildingBlock: UVAHIK_clean_linker_0, # of connection points: 2
#     Edge 34, Type (0, 0), BuildingBlock: UVAHIK_clean_linker_0, # of connection points: 2
#     Edge 35, Type (0, 0), BuildingBlock: UVAHIK_clean_linker_0, # of connection points: 2
#     Edge 36, Type (0, 0), BuildingBlock: UVAHIK_clean_linker_0, # of connection points: 2
#     Edge 37, Type (0, 0), BuildingBlock: UVAHIK_clean_linker_0, # of connection points: 2
#     Edge 38, Type (0, 0), BuildingBlock: UVAHIK_clean_linker_0, # of connection points: 2
#     Edge 39, Type (0, 0), BuildingBlock: UVAHIK_clean_linker_0, # of connection points: 2
#     Edge 40, Type (0, 0), BuildingBlock: UVAHIK_clean_linker_0, # of connection points: 2
#     Edge 41, Type (0, 0), BuildingBlock: UVAHIK_clean_linker_0, # of connection points: 2
#     Edge 42, Type (0, 0), BuildingBlock: UVAHIK_clean_linker_0, # of connection points: 2
#     Edge 43, Type (0, 0), BuildingBlock: UVAHIK_clean_linker_0, # of connection points: 2
#     Edge 44, Type (0, 0), BuildingBlock: UVAHIK_clean_linker_0, # of connection points: 2
#     Edge 45, Type (0, 0), BuildingBlock: UVAHIK_clean_linker_0, # of connection points: 2
#     Edge 46, Type (0, 0), BuildingBlock: UVAHIK_clean_linker_0, # of connection points: 2
#     Edge 47, Type (0, 0), BuildingBlock: UVAHIK_clean_linker_0, # of connection points: 2
#     Edge 48, Type (0, 0), BuildingBlock: UVAHIK_clean_linker_0, # of connection points: 2
#     Edge 49, Type (0, 0), BuildingBlock: UVAHIK_clean_linker_0, # of connection points: 2
#     Edge 50, Type (0, 0), BuildingBlock: UVAHIK_clean_linker_0, # of connection points: 2
#     Edge 51, Type (0, 0), BuildingBlock: UVAHIK_clean_linker_0, # of connection points: 2
#     Edge 52, Type (0, 0), BuildingBlock: UVAHIK_clean_linker_0, # of connection points: 2
#     Edge 53, Type (0, 0), BuildingBlock: UVAHIK_clean_linker_0, # of connection points: 2
#     Edge 54, Type (0, 0), BuildingBlock: UVAHIK_clean_linker_0, # of connection points: 2
#     Edge 55, Type (0, 0), BuildingBlock: UVAHIK_clean_linker_0, # of connection points: 2
#     Edge 56, Type (0, 0), BuildingBlock: UVAHIK_clean_linker_0, # of connection points: 2
#     Edge 57, Type (0, 0), BuildingBlock: UVAHIK_clean_linker_0, # of connection points: 2
#     Edge 58, Type (0, 0), BuildingBlock: UVAHIK_clean_linker_0, # of connection points: 2
#     Edge 59, Type (0, 0), BuildingBlock: UVAHIK_clean_linker_0, # of connection points: 2
#     Edge 60, Type (0, 0), BuildingBlock: UVAHIK_clean_linker_0, # of connection points: 2
#     Edge 61, Type (0, 0), BuildingBlock: UVAHIK_clean_linker_0, # of connection points: 2
#     Edge 62, Type (0, 0), BuildingBlock: UVAHIK_clean_linker_0, # of connection points: 2
#     Edge 63, Type (0, 0), BuildingBlock: UVAHIK_clean_linker_0, # of connection points: 2
#     Edge 64, Type (0, 0), BuildingBlock: UVAHIK_clean_linker_0, # of connection points: 2
#     Edge 65, Type (0, 0), BuildingBlock: UVAHIK_clean_linker_0, # of connection points: 2
#     Edge 66, Type (0, 0), BuildingBlock: UVAHIK_clean_linker_0, # of connection points: 2
#     Edge 67, Type (0, 0), BuildingBlock: UVAHIK_clean_linker_0, # of connection points: 2
#     Edge 68, Type (0, 0), BuildingBlock: UVAHIK_clean_linker_0, # of connection points: 2
#     Edge 69, Type (0, 0), BuildingBlock: UVAHIK_clean_linker_0, # of connection points: 2
#     Edge 70, Type (0, 0), BuildingBlock: UVAHIK_clean_linker_0, # of connection points: 2
#     Edge 71, Type (0, 0), BuildingBlock: UVAHIK_clean_linker_0, # of connection points: 2
#     Edge 72, Type (0, 0), BuildingBlock: UVAHIK_clean_linker_0, # of connection points: 2
#     Edge 73, Type (0, 0), BuildingBlock: UVAHIK_clean_linker_0, # of connection points: 2
#     Edge 74, Type (0, 0), BuildingBlock: UVAHIK_clean_linker_0, # of connection points: 2
#     Edge 75, Type (0, 0), BuildingBlock: UVAHIK_clean_linker_0, # of connection points: 2
#     Edge 76, Type (0, 0), BuildingBlock: UVAHIK_clean_linker_0, # of connection points: 2
#     Edge 77, Type (0, 0), BuildingBlock: UVAHIK_clean_linker_0, # of connection points: 2
#     Edge 78, Type (0, 0), BuildingBlock: UVAHIK_clean_linker_0, # of connection points: 2
#     Edge 79, Type (0, 0), BuildingBlock: UVAHIK_clean_linker_0, # of connection points: 2
#     Edge 80, Type (0, 0), BuildingBlock: UVAHIK_clean_linker_0, # of connection points: 2
#     Edge 81, Type (0, 0), BuildingBlock: UVAHIK_clean_linker_0, # of connection points: 2
#     Edge 82, Type (0, 0), BuildingBlock: UVAHIK_clean_linker_0, # of connection points: 2
#     Edge 83, Type (0, 0), BuildingBlock: UVAHIK_clean_linker_0, # of connection points: 2
#     Edge 84, Type (0, 0), BuildingBlock: UVAHIK_clean_linker_0, # of connection points: 2
#     Edge 85, Type (0, 0), BuildingBlock: UVAHIK_clean_linker_0, # of connection points: 2
#     Edge 86, Type (0, 0), BuildingBlock: UVAHIK_clean_linker_0, # of connection points: 2
#     Edge 87, Type (0, 0), BuildingBlock: UVAHIK_clean_linker_0, # of connection points: 2
#     Edge 88, Type (0, 0), BuildingBlock: UVAHIK_clean_linker_0, # of connection points: 2
#     Edge 89, Type (0, 0), BuildingBlock: UVAHIK_clean_linker_0, # of connection points: 2
#     Edge 90, Type (0, 0), BuildingBlock: UVAHIK_clean_linker_0, # of connection points: 2
#     Edge 91, Type (0, 0), BuildingBlock: UVAHIK_clean_linker_0, # of connection points: 2
#     Edge 92, Type (0, 0), BuildingBlock: UVAHIK_clean_linker_0, # of connection points: 2
#     Edge 93, Type (0, 0), BuildingBlock: UVAHIK_clean_linker_0, # of connection points: 2
#     Edge 94, Type (0, 0), BuildingBlock: UVAHIK_clean_linker_0, # of connection points: 2
#     Edge 95, Type (0, 0), BuildingBlock: UVAHIK_clean_linker_0, # of connection points: 2
#     Edge 96, Type (0, 0), BuildingBlock: UVAHIK_clean_linker_0, # of connection points: 2
#     Edge 97, Type (0, 0), BuildingBlock: UVAHIK_clean_linker_0, # of connection points: 2
#     Edge 98, Type (0, 0), BuildingBlock: UVAHIK_clean_linker_0, # of connection points: 2
#     Edge 99, Type (0, 0), BuildingBlock: UVAHIK_clean_linker_0, # of connection points: 2
#     Edge 100, Type (0, 0), BuildingBlock: UVAHIK_clean_linker_0, # of connection points: 2
#     Edge 101, Type (0, 0), BuildingBlock: UVAHIK_clean_linker_0, # of connection points: 2
#     Edge 102, Type (0, 0), BuildingBlock: UVAHIK_clean_linker_0, # of connection points: 2
#     Edge 103, Type (0, 0), BuildingBlock: UVAHIK_clean_linker_0, # of connection points: 2
#     Edge 104, Type (0, 0), BuildingBlock: UVAHIK_clean_linker_0, # of connection points: 2
#     Edge 105, Type (0, 0), BuildingBlock: UVAHIK_clean_linker_0, # of connection points: 2
#     Edge 106, Type (0, 0), BuildingBlock: UVAHIK_clean_linker_0, # of connection points: 2
#     Edge 107, Type (0, 0), BuildingBlock: UVAHIK_clean_linker_0, # of connection points: 2
#     Edge 108, Type (0, 0), BuildingBlock: UVAHIK_clean_linker_0, # of connection points: 2
#     Edge 109, Type (0, 0), BuildingBlock: UVAHIK_clean_linker_0, # of connection points: 2
#     Edge 110, Type (0, 0), BuildingBlock: UVAHIK_clean_linker_0, # of connection points: 2
#     Edge 111, Type (0, 0), BuildingBlock: UVAHIK_clean_linker_0, # of connection points: 2
# Relax obj value: 0.189
# Max RMSD: 0.168
# Mean RMSD: 0.168
data_MOF--net-soh--node1-XOMCOT_clean_sbu_1--edge1-UVAHIK_clean_linker_0
_symmetry_space_group_name_H-M    P1
_symmetry_Int_Tables_number       1
_symmetry_cell_setting            triclinic
loop_
_symmetry_equiv_pos_as_xyz
'x, y, z'
_cell_length_a     109.27915
_cell_length_b     55.344625
_cell_length_c     55.680934
_cell_angle_alpha  89.970572
_cell_angle_beta   90.044386
_cell_angle_gamma 89.973011
loop_
_atom_site_label
_atom_site_type_symbol
_atom_site_fract_x
_atom_site_fract_y
_atom_site_fract_z
_atom_type_partial_charge
C0 C 0.29456 0.35149 0.21962 0.0
C1 C 0.29366 0.3628 0.24149 0.0
N2 N 0.3041 0.35892 0.25383 0.0
N3 N 0.30558 0.3407 0.21794 0.0
C4 C 0.31119 0.34549 0.23905 0.0
H5 H 0.28737 0.35017 0.20635 0.0
Co6 Co 0.31044 0.31952 0.19391 0.0
C7 C 0.33546 0.33588 0.18057 0.0
O8 O 0.33263 0.33276 0.15789 0.0
N9 N 0.31515 0.2969 0.16925 0.0
C10 C 0.31756 0.27808 0.13402 0.0
C11 C 0.3147 0.29951 0.14503 0.0
C12 C 0.31846 0.27342 0.17217 0.0
N13 N 0.31981 0.26155 0.15112 0.0
O14 O 0.31328 0.29583 0.21826 0.0
H15 H 0.3124 0.31588 0.1355 0.0
H16 H 0.31971 0.26483 0.18941 0.0
O17 O 0.32746 0.33143 0.19677 0.0
C18 C 0.30352 0.28347 0.22071 0.0
O19 O 0.29442 0.28717 0.20571 0.0
N20 N 0.30596 0.3427 0.17095 0.0
C21 C 0.29425 0.37512 0.14002 0.0
C22 C 0.30525 0.38146 0.15159 0.0
C23 C 0.31085 0.36513 0.16744 0.0
C24 C 0.29511 0.33663 0.16053 0.0
C25 C 0.28918 0.35237 0.1449 0.0
H26 H 0.31881 0.37088 0.17739 0.0
H27 H 0.29094 0.31941 0.16474 0.0
H28 H 0.32009 0.33834 0.24379 0.0
H29 H 0.2856 0.37185 0.2483 0.0
H30 H 0.31744 0.27473 0.11488 0.0
H31 H 0.30942 0.39896 0.14874 0.0
H32 H 0.28048 0.34694 0.13731 0.0
C33 C 0.99552 0.91388 0.21911 0.0
C34 C 0.99611 0.9027 0.24114 0.0
N35 N 0.98549 0.90669 0.25285 0.0
N36 N 0.98454 0.92469 0.21675 0.0
C37 C 0.97864 0.92003 0.23754 0.0
H38 H 1.00285 0.91503 0.20612 0.0
Co39 Co 0.97992 0.94576 0.19236 0.0
C40 C 0.95521 0.92838 0.17838 0.0
O41 O 0.9585 0.92999 0.1558 0.0
N42 N 0.97539 0.96841 0.16739 0.0
C43 C 0.97285 0.9871 0.13207 0.0
C44 C 0.9753 0.9655 0.14319 0.0
C45 C 0.9728 0.99227 0.17016 0.0
N46 N 0.97138 1.00406 0.14906 0.0
O47 O 0.97708 0.96967 0.21643 0.0
H48 H 0.97703 0.94883 0.13374 0.0
H49 H 0.97208 1.00119 0.18732 0.0
O50 O 0.96285 0.9341 0.19487 0.0
C51 C 0.98714 0.98099 0.21917 0.0
O52 O 0.9963 0.97604 0.20471 0.0
N53 N 0.98442 0.92222 0.16972 0.0
C54 C 0.99587 0.88889 0.13964 0.0
C55 C 0.98561 0.88216 0.15325 0.0
C56 C 0.98005 0.89912 0.16844 0.0
C57 C 0.99479 0.9285 0.15763 0.0
C58 C 1.00045 0.91238 0.14202 0.0
H59 H 0.97259 0.8934 0.17981 0.0
H60 H 0.9987 0.94626 0.16025 0.0
H61 H 0.96966 0.92716 0.24166 0.0
H62 H 1.00403 0.89356 0.24844 0.0
H63 H 0.9727 0.9902 0.11288 0.0
H64 H 0.98203 0.86394 0.15235 0.0
H65 H 1.0086 0.91801 0.13246 0.0
C66 C 0.29459 0.91287 0.03881 0.0
C67 C 0.29423 0.90065 0.01736 0.0
N68 N 0.30459 0.90548 0.0051 0.0
N69 N 0.30517 0.92525 0.04026 0.0
C70 C 0.31107 0.92043 0.0195 0.0
H71 H 0.28735 0.91357 0.05202 0.0
Co72 Co 0.30924 0.9475 0.06403 0.0
C73 C 0.33463 0.93315 0.07744 0.0
O74 O 0.33158 0.93503 0.10011 0.0
N75 N 0.31315 0.97101 0.08836 0.0
C76 C 0.31589 0.98993 0.12341 0.0
C77 C 0.31384 0.96813 0.11251 0.0
C78 C 0.31482 0.99517 0.08534 0.0
N79 N 0.31642 0.00704 0.10634 0.0
O80 O 0.31113 0.97156 0.03943 0.0
H81 H 0.31297 0.95126 0.12209 0.0
H82 H 0.31446 1.00421 0.06817 0.0
O83 O 0.32666 0.93776 0.06119 0.0
C84 C 0.30029 0.97874 0.03463 0.0
O85 O 0.29123 0.97007 0.04753 0.0
N86 N 0.30565 0.92393 0.08726 0.0
C87 C 0.29552 0.89033 0.11881 0.0
C88 C 0.30586 0.88438 0.10508 0.0
C89 C 0.31076 0.90146 0.08915 0.0
C90 C 0.29518 0.92932 0.09943 0.0
C91 C 0.29015 0.91308 0.11574 0.0
H92 H 0.31832 0.89631 0.07777 0.0
H93 H 0.2907 0.94649 0.09639 0.0
H94 H 0.31976 0.92851 0.01477 0.0
H95 H 0.28657 0.89017 0.01082 0.0
H96 H 0.3169 0.99287 0.14253 0.0
H97 H 0.31005 0.8667 0.10654 0.0
H98 H 0.28192 0.91804 0.1254 0.0
C99 C 0.99499 0.35592 0.03815 0.0
C100 C 0.99516 0.36773 0.01648 0.0
N101 N 0.98496 0.36181 0.00417 0.0
N102 N 0.98467 0.3427 0.03976 0.0
C103 C 0.97873 0.34666 0.01882 0.0
H104 H 1.00228 0.35591 0.05127 0.0
Co105 Co 0.98124 0.31988 0.0636 0.0
C106 C 0.9561 0.33374 0.07955 0.0
O107 O 0.9595 0.33124 0.10198 0.0
N108 N 0.97803 0.2959 0.08782 0.0
C109 C 0.97629 0.27639 0.1228 0.0
C110 C 0.97792 0.29842 0.11204 0.0
C111 C 0.9765 0.27174 0.08462 0.0
N112 N 0.97547 0.25949 0.10556 0.0
O113 O 0.97845 0.29641 0.03893 0.0
H114 H 0.97897 0.31519 0.12172 0.0
H115 H 0.97656 0.26298 0.0673 0.0
O116 O 0.96382 0.32974 0.06273 0.0
C117 C 0.98889 0.28991 0.03102 0.0
O118 O 0.99877 0.29899 0.04097 0.0
N119 N 0.98555 0.34286 0.08687 0.0
C120 C 0.99727 0.37671 0.11608 0.0
C121 C 0.98603 0.38219 0.10503 0.0
C122 C 0.9804 0.36512 0.09008 0.0
C123 C 0.99653 0.33743 0.0972 0.0
C124 C 1.00243 0.35388 0.11214 0.0
H125 H 0.97231 0.37028 0.08019 0.0
H126 H 1.00085 0.32027 0.09335 0.0
H127 H 0.97028 0.33766 0.01405 0.0
H128 H 1.00266 0.37854 0.00974 0.0
H129 H 0.97577 0.27315 0.14194 0.0
H130 H 0.98191 0.39987 0.10703 0.0
H131 H 1.01107 0.34882 0.12027 0.0
C132 C 0.74486 0.65724 0.79139 0.0
C133 C 0.74578 0.64635 0.76931 0.0
N134 N 0.73635 0.65387 0.75558 0.0
N135 N 0.73483 0.67144 0.79174 0.0
C136 C 0.7298 0.66893 0.76969 0.0
H137 H 0.75144 0.65585 0.80582 0.0
Co138 Co 0.73081 0.6938 0.81549 0.0
C139 C 0.70491 0.68286 0.82712 0.0
O140 O 0.70766 0.68461 0.84997 0.0
N141 N 0.72695 0.71758 0.83976 0.0
C142 C 0.72437 0.73717 0.87454 0.0
C143 C 0.72637 0.71514 0.86398 0.0
C144 C 0.72518 0.74166 0.83638 0.0
N145 N 0.7237 0.75395 0.85717 0.0
O146 O 0.72998 0.71818 0.7911 0.0
H147 H 0.72728 0.69843 0.87383 0.0
H148 H 0.72506 0.75031 0.819 0.0
O149 O 0.71328 0.68578 0.81132 0.0
C150 C 0.74092 0.72596 0.78895 0.0
O151 O 0.74934 0.71679 0.80315 0.0
N152 N 0.73343 0.66986 0.83876 0.0
C153 C 0.74264 0.63539 0.87045 0.0
C154 C 0.73217 0.63044 0.85666 0.0
C155 C 0.72771 0.64799 0.84068 0.0
C156 C 0.74398 0.67425 0.85108 0.0
C157 C 0.74855 0.65758 0.86745 0.0
H158 H 0.72004 0.64363 0.82925 0.0
H159 H 0.74889 0.69094 0.84807 0.0
H160 H 0.72201 0.67935 0.76355 0.0
H161 H 0.75311 0.63457 0.7635 0.0
H162 H 0.72388 0.74059 0.89365 0.0
H163 H 0.72757 0.61316 0.85809 0.0
H164 H 0.75688 0.66173 0.87719 0.0
C165 C 0.0482 0.11064 0.79031 0.0
C166 C 0.04862 0.12272 0.76876 0.0
N167 N 0.05768 0.11313 0.75541 0.0
N168 N 0.05704 0.09361 0.79076 0.0
C169 C 0.06268 0.09564 0.76923 0.0
H170 H 0.04144 0.1134 0.80418 0.0
Co171 Co 0.05951 0.06951 0.81401 0.0
C172 C 0.08562 0.07613 0.82879 0.0
O173 O 0.08301 0.07054 0.85109 0.0
N174 N 0.06187 0.04451 0.83755 0.0
C175 C 0.06323 0.02397 0.87202 0.0
C176 C 0.06135 0.0462 0.86183 0.0
C177 C 0.06401 0.02063 0.8337 0.0
N178 N 0.0649 0.00782 0.85434 0.0
O179 O 0.06123 0.04627 0.78882 0.0
H180 H 0.05999 0.06258 0.872 0.0
H181 H 0.06501 0.01262 0.81613 0.0
O182 O 0.07713 0.07657 0.81299 0.0
C183 C 0.05065 0.04181 0.7803 0.0
O184 O 0.04111 0.0528 0.78965 0.0
N185 N 0.05623 0.09218 0.83799 0.0
C186 C 0.04603 0.12433 0.87096 0.0
C187 C 0.05786 0.12824 0.86171 0.0
C188 C 0.06279 0.11197 0.84494 0.0
C189 C 0.04464 0.0886 0.84626 0.0
C190 C 0.03943 0.10423 0.86285 0.0
H191 H 0.07162 0.11571 0.83712 0.0
H192 H 0.03938 0.07346 0.83961 0.0
H193 H 0.07 0.08382 0.76345 0.0
H194 H 0.04225 0.13646 0.76281 0.0
H195 H 0.06317 0.01999 0.89105 0.0
H196 H 0.06319 0.14377 0.86719 0.0
H197 H 0.03014 0.1009 0.86873 0.0
C198 C 0.74717 0.10683 0.96637 0.0
C199 C 0.74804 0.11826 0.98817 0.0
N200 N 0.73875 0.11067 1.00219 0.0
N201 N 0.73728 0.09229 0.96637 0.0
C202 C 0.7323 0.09505 0.98844 0.0
H203 H 0.75367 0.10831 0.95183 0.0
Co204 Co 0.73339 0.0698 0.94254 0.0
C205 C 0.70753 0.08068 0.93035 0.0
O206 O 0.71047 0.07883 0.90761 0.0
N207 N 0.72973 0.04595 0.91818 0.0
C208 C 0.72748 0.02674 0.88311 0.0
C209 C 0.72915 0.04868 0.89399 0.0
C210 C 0.72831 0.02172 0.92123 0.0
N211 N 0.72706 0.00968 0.90023 0.0
O212 O 0.73247 0.04548 0.96689 0.0
H213 H 0.72978 0.06556 0.88435 0.0
H214 H 0.72862 0.01273 0.93844 0.0
O215 O 0.7158 0.07775 0.94639 0.0
C216 C 0.74347 0.03821 0.96956 0.0
O217 O 0.75192 0.0476 0.95558 0.0
N218 N 0.73605 0.09376 0.91927 0.0
C219 C 0.74519 0.1283 0.88759 0.0
C220 C 0.73468 0.13315 0.90128 0.0
C221 C 0.73027 0.11558 0.91726 0.0
C222 C 0.74663 0.08947 0.90703 0.0
C223 C 0.75117 0.10617 0.89068 0.0
H224 H 0.72256 0.11989 0.92862 0.0
H225 H 0.75159 0.07284 0.91011 0.0
H226 H 0.72457 0.08462 0.99478 0.0
H227 H 0.75519 0.13067 0.99348 0.0
H228 H 0.72668 0.02366 0.86399 0.0
H229 H 0.73002 0.15036 0.89978 0.0
H230 H 0.75953 0.10209 0.88103 0.0
C231 C 0.04475 0.66234 0.97209 0.0
C232 C 0.04445 0.65098 0.99398 0.0
N233 N 0.05503 0.65556 0.00559 0.0
N234 N 0.05552 0.67388 0.96961 0.0
C235 C 0.06159 0.66954 0.99034 0.0
H236 H 0.0373 0.66311 0.95933 0.0
Co237 Co 0.05939 0.69497 0.94475 0.0
C238 C 0.08482 0.68176 0.93037 0.0
O239 O 0.08173 0.68426 0.90775 0.0
N240 N 0.06297 0.71747 0.91917 0.0
C241 C 0.06425 0.73503 0.88308 0.0
C242 C 0.06237 0.71377 0.89512 0.0
C243 C 0.06533 0.74153 0.92093 0.0
N244 N 0.06598 0.75265 0.89931 0.0
O245 O 0.06211 0.71947 0.96826 0.0
H246 H 0.06073 0.69666 0.88639 0.0
H247 H 0.06612 0.7511 0.93774 0.0
O248 O 0.07677 0.68495 0.94676 0.0
C249 C 0.05217 0.73101 0.97166 0.0
O250 O 0.0427 0.72616 0.95794 0.0
N251 N 0.05516 0.67081 0.92267 0.0
C252 C 0.04402 0.63654 0.89317 0.0
C253 C 0.05546 0.63185 0.90374 0.0
C254 C 0.06078 0.64908 0.91897 0.0
C255 C 0.04394 0.67534 0.91294 0.0
C256 C 0.03827 0.65861 0.89799 0.0
H257 H 0.06914 0.64459 0.92829 0.0
H258 H 0.03933 0.69215 0.91704 0.0
H259 H 0.07043 0.67728 0.99447 0.0
H260 H 0.0367 0.64133 1.00131 0.0
H261 H 0.06425 0.73727 0.86378 0.0
H262 H 0.06004 0.61472 0.9009 0.0
H263 H 0.02944 0.66297 0.89023 0.0
C264 C 0.29634 0.85083 0.72007 0.0
C265 C 0.29573 0.8625 0.74177 0.0
N266 N 0.30619 0.85822 0.75393 0.0
N267 N 0.30718 0.83941 0.71828 0.0
C268 C 0.31299 0.84415 0.7392 0.0
H269 H 0.28904 0.84973 0.707 0.0
Co270 Co 0.31149 0.81783 0.69421 0.0
C271 C 0.33693 0.8309 0.68055 0.0
O272 O 0.33397 0.8275 0.65798 0.0
N273 N 0.31557 0.79476 0.6695 0.0
C274 C 0.31716 0.7753 0.63444 0.0
C275 C 0.31467 0.79699 0.6453 0.0
C276 C 0.31882 0.77126 0.67256 0.0
N277 N 0.31965 0.75899 0.65163 0.0
O278 O 0.31387 0.79388 0.71849 0.0
H279 H 0.31233 0.81328 0.63567 0.0
H280 H 0.32039 0.76295 0.68982 0.0
O281 O 0.3288 0.82812 0.69687 0.0
C282 C 0.30403 0.78176 0.72091 0.0
O283 O 0.29491 0.7859 0.70608 0.0
N284 N 0.30753 0.84145 0.67135 0.0
C285 C 0.29644 0.87567 0.64164 0.0
C286 C 0.30778 0.8805 0.65255 0.0
C287 C 0.31307 0.86328 0.66784 0.0
C288 C 0.29641 0.83676 0.66126 0.0
C289 C 0.29079 0.85343 0.64614 0.0
H290 H 0.32129 0.86796 0.67753 0.0
H291 H 0.29182 0.81993 0.66529 0.0
H292 H 0.3218 0.83657 0.74386 0.0
H293 H 0.28784 0.8721 0.74861 0.0
H294 H 0.31664 0.77164 0.61538 0.0
H295 H 0.31227 0.89776 0.65003 0.0
H296 H 0.28204 0.84895 0.63813 0.0
C297 C 0.99733 0.4094 0.71826 0.0
C298 C 0.99756 0.39777 0.74004 0.0
N299 N 0.98712 0.40288 0.75192 0.0
N300 N 0.98674 0.42168 0.71617 0.0
C301 C 0.98071 0.41742 0.73693 0.0
H302 H 1.00468 0.40982 0.7053 0.0
Co303 Co 0.98291 0.44343 0.6918 0.0
C304 C 0.95747 0.43086 0.67797 0.0
O305 O 0.96067 0.4335 0.65543 0.0
N306 N 0.97925 0.46657 0.66688 0.0
C307 C 0.9774 0.48574 0.63169 0.0
C308 C 0.97976 0.46403 0.64267 0.0
C309 C 0.9765 0.49033 0.66984 0.0
N310 N 0.97543 0.50237 0.6488 0.0
O311 O 0.98124 0.46805 0.71574 0.0
H312 H 0.98162 0.44747 0.63313 0.0
H313 H 0.97536 0.49892 0.6871 0.0
O314 O 0.96543 0.43437 0.69451 0.0
C315 C 0.99205 0.47647 0.71809 0.0
O316 O 1.00066 0.46779 0.70404 0.0
N317 N 0.98641 0.41925 0.66923 0.0
C318 C 0.99738 0.3836 0.64105 0.0
C319 C 0.98611 0.37929 0.65243 0.0
C320 C 0.98087 0.39725 0.66691 0.0
C321 C 0.99743 0.42349 0.65858 0.0
C322 C 1.00295 0.40616 0.64412 0.0
H323 H 0.97276 0.39298 0.67713 0.0
H324 H 1.00207 0.44045 0.66173 0.0
H325 H 0.97201 0.42566 0.74124 0.0
H326 H 1.00521 0.38753 0.74707 0.0
H327 H 0.97753 0.48912 0.61254 0.0
H328 H 0.98168 0.36184 0.65107 0.0
H329 H 1.01163 0.41034 0.63569 0.0
C330 C 0.29435 0.41098 0.54039 0.0
C331 C 0.29352 0.39922 0.51872 0.0
N332 N 0.30377 0.40381 0.50599 0.0
N333 N 0.3051 0.4228 0.5415 0.0
C334 C 0.31064 0.41813 0.52033 0.0
H335 H 0.2873 0.41179 0.554 0.0
Co336 Co 0.30978 0.44457 0.56524 0.0
C337 C 0.33513 0.42861 0.57689 0.0
O338 O 0.33233 0.4296 0.59974 0.0
N339 N 0.31435 0.46771 0.58956 0.0
C340 C 0.31774 0.48613 0.62468 0.0
C341 C 0.31559 0.46446 0.61358 0.0
C342 C 0.31583 0.49195 0.58682 0.0
N343 N 0.31779 0.50354 0.60787 0.0
O344 O 0.31137 0.46875 0.54074 0.0
H345 H 0.31486 0.44745 0.62298 0.0
H346 H 0.31501 0.50129 0.56987 0.0
O347 O 0.32707 0.43429 0.56117 0.0
C348 C 0.3005 0.47688 0.53821 0.0
O349 O 0.29206 0.46901 0.55312 0.0
N350 N 0.30633 0.4209 0.58843 0.0
C351 C 0.2958 0.38714 0.61937 0.0
C352 C 0.30592 0.38084 0.60511 0.0
C353 C 0.311 0.398 0.58947 0.0
C354 C 0.29616 0.42678 0.60131 0.0
C355 C 0.29093 0.41044 0.61725 0.0
H356 H 0.31829 0.39257 0.57755 0.0
H357 H 0.29198 0.44435 0.59892 0.0
H358 H 0.31934 0.42591 0.51527 0.0
H359 H 0.28565 0.38925 0.51238 0.0
H360 H 0.31903 0.48881 0.64376 0.0
H361 H 0.30974 0.3628 0.60582 0.0
H362 H 0.28287 0.41577 0.62725 0.0
C363 C 0.99418 0.85623 0.53893 0.0
C364 C 0.99405 0.86792 0.51716 0.0
N365 N 0.98417 0.86046 0.50466 0.0
N366 N 0.98436 0.84157 0.54038 0.0
C367 C 0.97844 0.84453 0.51927 0.0
H368 H 1.00134 0.85743 0.55227 0.0
Co369 Co 0.98133 0.81853 0.56411 0.0
C370 C 0.95521 0.82648 0.57753 0.0
O371 O 0.95794 0.82242 0.6001 0.0
N372 N 0.97851 0.79426 0.58834 0.0
C373 C 0.97722 0.77471 0.62337 0.0
C374 C 0.97867 0.79675 0.61256 0.0
C375 C 0.97693 0.77011 0.58516 0.0
N376 N 0.97622 0.75783 0.60615 0.0
O377 O 0.98032 0.79455 0.53942 0.0
H378 H 0.97955 0.81354 0.62225 0.0
H379 H 0.97665 0.76141 0.56781 0.0
O380 O 0.96364 0.82563 0.5616 0.0
C381 C 0.99141 0.78813 0.53616 0.0
O382 O 0.9998 0.79747 0.5503 0.0
N383 N 0.98414 0.84209 0.58751 0.0
C384 C 0.99368 0.87534 0.62017 0.0
C385 C 0.98221 0.8793 0.60933 0.0
C386 C 0.97763 0.8625 0.59269 0.0
C387 C 0.99546 0.83858 0.59715 0.0
C388 C 1.00033 0.85474 0.61361 0.0
H389 H 0.96912 0.86628 0.58359 0.0
H390 H 1.00078 0.823 0.59183 0.0
H391 H 0.97035 0.83438 0.5144 0.0
H392 H 1.00112 0.87986 0.51054 0.0
H393 H 0.97687 0.77146 0.64252 0.0
H394 H 0.97688 0.89525 0.61351 0.0
H395 H 1.00941 0.85136 0.62066 0.0
C396 C 0.74551 0.15853 0.29094 0.0
C397 C 0.74683 0.14789 0.2688 0.0
N398 N 0.73723 0.15435 0.255 0.0
N399 N 0.73506 0.17149 0.29125 0.0
C400 C 0.73018 0.1685 0.26912 0.0
H401 H 0.75208 0.15787 0.30545 0.0
Co402 Co 0.73039 0.19334 0.31507 0.0
C403 C 0.70491 0.17771 0.32612 0.0
O404 O 0.7077 0.17834 0.34898 0.0
N405 N 0.72587 0.21659 0.33944 0.0
C406 C 0.72222 0.23488 0.37449 0.0
C407 C 0.72418 0.2132 0.3633 0.0
C408 C 0.72498 0.24097 0.33694 0.0
N409 N 0.72285 0.25257 0.35797 0.0
O410 O 0.72906 0.21767 0.29064 0.0
H411 H 0.72454 0.19608 0.37258 0.0
H412 H 0.7263 0.25026 0.32013 0.0
O413 O 0.71302 0.18345 0.31053 0.0
C414 C 0.74 0.22546 0.28826 0.0
O415 O 0.74835 0.21721 0.30318 0.0
N416 N 0.73358 0.16953 0.33832 0.0
C417 C 0.74366 0.13562 0.3697 0.0
C418 C 0.73374 0.12941 0.35487 0.0
C419 C 0.72887 0.14666 0.33904 0.0
C420 C 0.74358 0.17532 0.35177 0.0
C421 C 0.74856 0.1589 0.36796 0.0
H422 H 0.72171 0.14134 0.32674 0.0
H423 H 0.74781 0.19286 0.34967 0.0
H424 H 0.72212 0.17803 0.26293 0.0
H425 H 0.75453 0.13705 0.26301 0.0
H426 H 0.72066 0.23719 0.39351 0.0
H427 H 0.72991 0.11137 0.35529 0.0
H428 H 0.75648 0.16414 0.37845 0.0
C429 C 0.04625 0.60157 0.29088 0.0
C430 C 0.04574 0.61374 0.26941 0.0
N431 N 0.05608 0.60909 0.257 0.0
N432 N 0.05691 0.58942 0.29225 0.0
C433 C 0.0627 0.59428 0.27136 0.0
H434 H 0.03903 0.60071 0.30412 0.0
Co435 Co 0.06107 0.56712 0.31596 0.0
C436 C 0.08646 0.58059 0.3294 0.0
O437 O 0.08339 0.57778 0.35198 0.0
N438 N 0.06507 0.54343 0.34019 0.0
C439 C 0.06728 0.52364 0.37496 0.0
C440 C 0.06504 0.54562 0.36445 0.0
C441 C 0.06742 0.51957 0.33672 0.0
N442 N 0.0687 0.50714 0.3575 0.0
O443 O 0.06272 0.54325 0.29129 0.0
H444 H 0.0635 0.5621 0.37435 0.0
H445 H 0.06807 0.51118 0.31926 0.0
O446 O 0.07848 0.57678 0.31298 0.0
C447 C 0.05186 0.53509 0.28886 0.0
O448 O 0.04344 0.54295 0.30379 0.0
N449 N 0.05756 0.59061 0.33923 0.0
C450 C 0.04625 0.62563 0.36767 0.0
C451 C 0.05732 0.63065 0.35583 0.0
C452 C 0.06274 0.61297 0.34127 0.0
C453 C 0.04677 0.58561 0.35044 0.0
C454 C 0.0411 0.60261 0.36507 0.0
H455 H 0.07063 0.61778 0.33062 0.0
H456 H 0.04237 0.56836 0.34749 0.0
H457 H 0.07138 0.5863 0.26649 0.0
H458 H 0.03799 0.62403 0.26293 0.0
H459 H 0.06738 0.52001 0.39406 0.0
H460 H 0.06142 0.64844 0.3568 0.0
H461 H 0.0326 0.59786 0.37388 0.0
C462 C 0.74407 0.60563 0.46703 0.0
C463 C 0.74524 0.61724 0.48867 0.0
N464 N 0.73575 0.61088 0.50275 0.0
N465 N 0.73378 0.5922 0.46719 0.0
C466 C 0.72886 0.59585 0.48919 0.0
H467 H 0.75064 0.60604 0.45254 0.0
Co468 Co 0.7295 0.56936 0.44386 0.0
C469 C 0.70412 0.58497 0.43084 0.0
O470 O 0.70728 0.58574 0.40818 0.0
N471 N 0.72546 0.54535 0.42014 0.0
C472 C 0.72172 0.52616 0.38564 0.0
C473 C 0.72326 0.54819 0.39636 0.0
C474 C 0.72542 0.52097 0.42304 0.0
N475 N 0.72317 0.50884 0.40235 0.0
O476 O 0.72739 0.54589 0.46892 0.0
H477 H 0.72322 0.56512 0.38674 0.0
H478 H 0.72749 0.51212 0.43982 0.0
O479 O 0.71207 0.57922 0.44676 0.0
C480 C 0.73791 0.53948 0.47656 0.0
O481 O 0.74771 0.54856 0.46629 0.0
N482 N 0.73313 0.59224 0.41994 0.0
C483 C 0.74379 0.62519 0.3884 0.0
C484 C 0.73387 0.63209 0.40285 0.0
C485 C 0.72867 0.61529 0.41869 0.0
C486 C 0.74307 0.58569 0.40667 0.0
C487 C 0.74833 0.60163 0.39038 0.0
H488 H 0.7215 0.62111 0.43074 0.0
H489 H 0.7471 0.568 0.40916 0.0
H490 H 0.72089 0.58628 0.4957 0.0
H491 H 0.75277 0.6288 0.4939 0.0
H492 H 0.71987 0.52333 0.36677 0.0
H493 H 0.73033 0.65036 0.4022 0.0
H494 H 0.75624 0.59588 0.38012 0.0
C495 C 0.04627 0.15526 0.46565 0.0
C496 C 0.04518 0.14409 0.4876 0.0
N497 N 0.05458 0.1512 0.50163 0.0
N498 N 0.05639 0.16917 0.46565 0.0
C499 C 0.06128 0.16627 0.48777 0.0
H500 H 0.0398 0.15409 0.45101 0.0
Co501 Co 0.06099 0.19141 0.44209 0.0
C502 C 0.08658 0.17654 0.43114 0.0
O503 O 0.08397 0.17779 0.40821 0.0
N504 N 0.06548 0.215 0.41806 0.0
C505 C 0.06881 0.2339 0.38315 0.0
C506 C 0.06695 0.21201 0.39406 0.0
C507 C 0.06655 0.23931 0.42098 0.0
N508 N 0.06846 0.25117 0.40007 0.0
O509 O 0.06219 0.21544 0.46674 0.0
H510 H 0.06654 0.19505 0.38453 0.0
H511 H 0.06545 0.24848 0.43795 0.0
O512 O 0.07834 0.18172 0.44664 0.0
C513 C 0.05122 0.22303 0.46917 0.0
O514 O 0.0429 0.21479 0.45419 0.0
N515 N 0.05794 0.16788 0.41856 0.0
C516 C 0.04801 0.13432 0.38671 0.0
C517 C 0.05804 0.1281 0.40126 0.0
C518 C 0.06284 0.14518 0.41731 0.0
C519 C 0.04783 0.17363 0.40539 0.0
C520 C 0.04292 0.1574 0.38895 0.0
H521 H 0.0701 0.13983 0.4294 0.0
H522 H 0.04347 0.191 0.40788 0.0
H523 H 0.06914 0.17633 0.49406 0.0
H524 H 0.0378 0.13224 0.49298 0.0
H525 H 0.07016 0.23684 0.36412 0.0
H526 H 0.062 0.11018 0.40044 0.0
H527 H 0.03493 0.16261 0.37866 0.0
C528 C 0.79706 0.35428 0.71778 0.0
C529 C 0.79681 0.3658 0.73964 0.0
N530 N 0.80717 0.3603 0.75166 0.0
N531 N 0.80757 0.34173 0.71582 0.0
C532 C 0.81354 0.34575 0.7367 0.0
H533 H 0.78972 0.35404 0.70475 0.0
Co534 Co 0.81149 0.3194 0.69208 0.0
C535 C 0.83687 0.33241 0.67748 0.0
O536 O 0.83378 0.32938 0.65493 0.0
N537 N 0.81529 0.29564 0.66785 0.0
C538 C 0.81754 0.27593 0.63304 0.0
C539 C 0.81499 0.29777 0.64357 0.0
C540 C 0.81803 0.27193 0.67132 0.0
N541 N 0.81936 0.25964 0.65054 0.0
O542 O 0.81397 0.29599 0.71683 0.0
H543 H 0.81312 0.31415 0.6337 0.0
H544 H 0.819 0.2635 0.68871 0.0
O545 O 0.82885 0.32946 0.69395 0.0
C546 C 0.80377 0.28537 0.72014 0.0
O547 O 0.79454 0.29066 0.70595 0.0
N548 N 0.80737 0.34237 0.66869 0.0
C549 C 0.79608 0.37469 0.63707 0.0
C550 C 0.80734 0.38044 0.64798 0.0
C551 C 0.81276 0.36415 0.66413 0.0
C552 C 0.79628 0.33692 0.65891 0.0
C553 C 0.79056 0.35261 0.64296 0.0
H554 H 0.821 0.36941 0.67346 0.0
H555 H 0.79178 0.32025 0.66387 0.0
H556 H 0.82216 0.33724 0.74117 0.0
H557 H 0.78922 0.37617 0.74667 0.0
H558 H 0.81765 0.27215 0.61397 0.0
H559 H 0.81186 0.39746 0.64432 0.0
H560 H 0.78167 0.3477 0.6359 0.0
C561 C 0.49612 0.91165 0.72006 0.0
C562 C 0.49641 0.89965 0.74162 0.0
N563 N 0.4862 0.90526 0.75404 0.0
N564 N 0.48573 0.92468 0.71864 0.0
C565 C 0.47987 0.92047 0.73959 0.0
H566 H 0.50333 0.91178 0.70679 0.0
Co567 Co 0.48196 0.94705 0.69466 0.0
C568 C 0.45644 0.93447 0.68082 0.0
O569 O 0.45953 0.93732 0.65826 0.0
N570 N 0.47839 0.97064 0.67019 0.0
C571 C 0.47632 0.98998 0.63515 0.0
C572 C 0.47841 0.96811 0.64596 0.0
C573 C 0.47627 0.99463 0.67335 0.0
N574 N 0.47503 1.00676 0.65239 0.0
O575 O 0.48031 0.97135 0.7191 0.0
H576 H 0.47979 0.95143 0.63629 0.0
H577 H 0.47574 1.0033 0.69068 0.0
O578 O 0.46445 0.93798 0.69726 0.0
C579 C 0.4913 0.97803 0.72322 0.0
O580 O 0.50007 0.96848 0.71016 0.0
N581 N 0.48543 0.9233 0.67161 0.0
C582 C 0.49632 0.88824 0.64259 0.0
C583 C 0.48512 0.88364 0.65413 0.0
C584 C 0.47991 0.90131 0.66901 0.0
C585 C 0.49637 0.92784 0.66078 0.0
C586 C 0.50186 0.91081 0.64592 0.0
H587 H 0.47187 0.89679 0.67932 0.0
H588 H 0.50099 0.94479 0.66414 0.0
H589 H 0.47136 0.92918 0.74445 0.0
H590 H 0.50394 0.88879 0.74815 0.0
H591 H 0.47618 0.99334 0.61601 0.0
H592 H 0.48072 0.86618 0.65258 0.0
H593 H 0.51048 0.91521 0.63738 0.0
C594 C 0.79545 0.91219 0.53848 0.0
C595 C 0.79505 0.90042 0.51674 0.0
N596 N 0.80566 0.90453 0.50506 0.0
N597 N 0.80631 0.92349 0.54066 0.0
C598 C 0.81233 0.91851 0.52007 0.0
H599 H 0.78807 0.91339 0.55132 0.0
Co600 Co 0.81078 0.94533 0.56443 0.0
C601 C 0.83567 0.92865 0.57895 0.0
O602 O 0.83263 0.93129 0.60156 0.0
N603 N 0.81516 0.96863 0.58874 0.0
C604 C 0.81805 0.98785 0.62365 0.0
C605 C 0.81535 0.96614 0.61298 0.0
C606 C 0.81775 0.99242 0.58544 0.0
N607 N 0.81945 1.00442 0.60628 0.0
O608 O 0.81376 0.96856 0.53971 0.0
H609 H 0.81359 0.94964 0.62274 0.0
H610 H 0.8183 1.00115 0.56814 0.0
O611 O 0.82786 0.93358 0.56251 0.0
C612 C 0.80366 0.97956 0.5362 0.0
O613 O 0.79434 0.97466 0.55025 0.0
N614 N 0.80615 0.92264 0.58774 0.0
C615 C 0.79447 0.89109 0.61951 0.0
C616 C 0.80521 0.88407 0.60746 0.0
C617 C 0.81081 0.9 0.59125 0.0
C618 C 0.79545 0.92926 0.59844 0.0
C619 C 0.78956 0.91397 0.61455 0.0
H620 H 0.81862 0.89385 0.58106 0.0
H621 H 0.79142 0.9466 0.59421 0.0
H622 H 0.82124 0.92586 0.51585 0.0
H623 H 0.78724 0.8908 0.50958 0.0
H624 H 0.81847 0.99137 0.64276 0.0
H625 H 0.80921 0.86641 0.61037 0.0
H626 H 0.78105 0.91988 0.62259 0.0
C627 C 0.49464 0.35939 0.53872 0.0
C628 C 0.49548 0.37013 0.51654 0.0
N629 N 0.48624 0.36193 0.50275 0.0
N630 N 0.48484 0.34457 0.53907 0.0
C631 C 0.47986 0.34664 0.51692 0.0
H632 H 0.50119 0.36126 0.55314 0.0
Co633 Co 0.48115 0.32184 0.56281 0.0
C634 C 0.45499 0.33183 0.57465 0.0
O635 O 0.45744 0.32903 0.59752 0.0
N636 N 0.47768 0.29793 0.58706 0.0
C637 C 0.47559 0.27906 0.62233 0.0
C638 C 0.47699 0.30094 0.6112 0.0
C639 C 0.47667 0.27361 0.58428 0.0
N640 N 0.47549 0.26176 0.60542 0.0
O641 O 0.48014 0.29767 0.53823 0.0
H642 H 0.47741 0.31798 0.62061 0.0
H643 H 0.47724 0.26446 0.56718 0.0
O644 O 0.46358 0.32977 0.55916 0.0
C645 C 0.49118 0.29095 0.53483 0.0
O646 O 0.49968 0.30006 0.54888 0.0
N647 N 0.48394 0.34544 0.58622 0.0
C648 C 0.49361 0.37861 0.61884 0.0
C649 C 0.48251 0.38341 0.60687 0.0
C650 C 0.47787 0.36662 0.59029 0.0
C651 C 0.49491 0.34103 0.59702 0.0
C652 C 0.49981 0.35713 0.61352 0.0
H653 H 0.4697 0.371 0.58028 0.0
H654 H 0.49995 0.32483 0.59252 0.0
H655 H 0.47229 0.33567 0.51071 0.0
H656 H 0.50268 0.3822 0.51068 0.0
H657 H 0.47477 0.27616 0.64148 0.0
H658 H 0.47755 0.40003 0.61009 0.0
H659 H 0.50862 0.35303 0.62148 0.0
C660 C 0.24651 0.66493 0.28913 0.0
C661 C 0.24709 0.65362 0.26723 0.0
N662 N 0.23656 0.65787 0.25528 0.0
N663 N 0.23562 0.67612 0.29124 0.0
C664 C 0.22975 0.67157 0.27035 0.0
H665 H 0.25383 0.66597 0.30214 0.0
Co666 Co 0.23132 0.6974 0.31562 0.0
C667 C 0.20608 0.68331 0.3295 0.0
O668 O 0.20923 0.68576 0.3521 0.0
N669 N 0.22722 0.72023 0.3406 0.0
C670 C 0.22544 0.73923 0.37589 0.0
C671 C 0.22792 0.71764 0.36479 0.0
C672 C 0.22413 0.74387 0.3378 0.0
N673 N 0.22317 0.75585 0.35888 0.0
O674 O 0.22881 0.72155 0.29161 0.0
H675 H 0.23009 0.70116 0.37424 0.0
H676 H 0.22273 0.75245 0.32061 0.0
O677 O 0.21405 0.68696 0.31305 0.0
C678 C 0.23878 0.73323 0.28917 0.0
O679 O 0.24792 0.7285 0.30378 0.0
N680 N 0.23544 0.67356 0.3382 0.0
C681 C 0.24695 0.63866 0.36664 0.0
C682 C 0.23575 0.63367 0.35521 0.0
C683 C 0.23023 0.65126 0.34065 0.0
C684 C 0.24641 0.67848 0.34881 0.0
C685 C 0.2522 0.66152 0.36339 0.0
H686 H 0.22217 0.6465 0.33049 0.0
H687 H 0.25078 0.6957 0.34556 0.0
H688 H 0.22088 0.67906 0.26596 0.0
H689 H 0.255 0.64427 0.26015 0.0
H690 H 0.22579 0.74257 0.39502 0.0
H691 H 0.23156 0.61599 0.35665 0.0
H692 H 0.2608 0.66624 0.37182 0.0
C693 C 0.54324 0.10051 0.28759 0.0
C694 C 0.54201 0.1113 0.26552 0.0
N695 N 0.55209 0.10642 0.25244 0.0
N696 N 0.55411 0.08908 0.28866 0.0
C697 C 0.5593 0.09292 0.26697 0.0
H698 H 0.53635 0.10002 0.30151 0.0
Co699 Co 0.55908 0.06835 0.31308 0.0
C700 C 0.58444 0.08425 0.32479 0.0
O701 O 0.58166 0.08353 0.34767 0.0
N702 N 0.56382 0.04613 0.33819 0.0
C703 C 0.56676 0.02873 0.374 0.0
C704 C 0.56445 0.04999 0.36221 0.0
C705 C 0.5659 0.02199 0.33617 0.0
N706 N 0.56755 0.01098 0.35763 0.0
O707 O 0.56148 0.04397 0.2893 0.0
H708 H 0.5632 0.06716 0.37109 0.0
H709 H 0.56572 0.01224 0.31941 0.0
O710 O 0.57624 0.07931 0.3091 0.0
C711 C 0.55153 0.03231 0.28645 0.0
O712 O 0.5423 0.03687 0.30087 0.0
N713 N 0.55514 0.09236 0.33556 0.0
C714 C 0.54385 0.12719 0.36429 0.0
C715 C 0.55453 0.13272 0.35133 0.0
C716 C 0.55993 0.11512 0.33667 0.0
C717 C 0.54468 0.08687 0.34773 0.0
C718 C 0.53902 0.10381 0.36248 0.0
H719 H 0.56754 0.12017 0.32537 0.0
H720 H 0.54058 0.06921 0.34554 0.0
H721 H 0.56796 0.08511 0.26166 0.0
H722 H 0.53397 0.12075 0.25914 0.0
H723 H 0.56761 0.02656 0.39324 0.0
H724 H 0.55835 0.15077 0.35165 0.0
H725 H 0.53083 0.09867 0.37214 0.0
C726 C 0.24714 0.10801 0.46736 0.0
C727 C 0.24862 0.11856 0.48949 0.0
N728 N 0.23976 0.11034 0.5042 0.0
N729 N 0.23728 0.09338 0.46788 0.0
C730 C 0.23293 0.09526 0.49055 0.0
H731 H 0.25325 0.11 0.45224 0.0
Co732 Co 0.23278 0.07115 0.44416 0.0
C733 C 0.20682 0.08325 0.4339 0.0
O734 O 0.20931 0.08238 0.4109 0.0
N735 N 0.22845 0.04754 0.41998 0.0
C736 C 0.2251 0.02861 0.3851 0.0
C737 C 0.22717 0.05046 0.39592 0.0
C738 C 0.22705 0.02331 0.42302 0.0
N739 N 0.22511 0.01141 0.40213 0.0
O740 O 0.23211 0.0467 0.46847 0.0
H741 H 0.22763 0.06741 0.38635 0.0
H742 H 0.22781 0.01421 0.44011 0.0
O743 O 0.21535 0.07958 0.44926 0.0
C744 C 0.24313 0.03928 0.47051 0.0
O745 O 0.25139 0.04852 0.45602 0.0
N746 N 0.23527 0.09511 0.42079 0.0
C747 C 0.24464 0.12954 0.38921 0.0
C748 C 0.23444 0.13493 0.40358 0.0
C749 C 0.22989 0.11738 0.41947 0.0
C750 C 0.24552 0.09019 0.40773 0.0
C751 C 0.25015 0.10683 0.39142 0.0
H752 H 0.22246 0.12205 0.4314 0.0
H753 H 0.2502 0.07316 0.41024 0.0
H754 H 0.22546 0.08443 0.49736 0.0
H755 H 0.25595 0.13067 0.49456 0.0
H756 H 0.22372 0.02568 0.36608 0.0
H757 H 0.23017 0.15257 0.40278 0.0
H758 H 0.25828 0.10229 0.38125 0.0
C759 C 0.54445 0.66029 0.46813 0.0
C760 C 0.54432 0.64887 0.49006 0.0
N761 N 0.55459 0.65488 0.50209 0.0
N762 N 0.55482 0.6733 0.46617 0.0
C763 C 0.56081 0.66964 0.48707 0.0
H764 H 0.53715 0.66013 0.45503 0.0
Co765 Co 0.55859 0.69558 0.44229 0.0
C766 C 0.5844 0.68448 0.42943 0.0
O767 O 0.58169 0.68836 0.4068 0.0
N768 N 0.56224 0.7192 0.41796 0.0
C769 C 0.56411 0.73911 0.38321 0.0
C770 C 0.56172 0.71717 0.3937 0.0
C771 C 0.56504 0.74285 0.42145 0.0
N772 N 0.56612 0.75535 0.40069 0.0
O773 O 0.55993 0.71975 0.46676 0.0
H774 H 0.55983 0.70083 0.38382 0.0
H775 H 0.56621 0.75101 0.43891 0.0
O776 O 0.57608 0.6869 0.44542 0.0
C777 C 0.54904 0.72769 0.46926 0.0
O778 O 0.5406 0.71948 0.45455 0.0
N779 N 0.55544 0.67177 0.4192 0.0
C780 C 0.54506 0.63681 0.3894 0.0
C781 C 0.55649 0.6328 0.40034 0.0
C782 C 0.56142 0.65038 0.41569 0.0
C783 C 0.54428 0.67567 0.40896 0.0
C784 C 0.53901 0.65864 0.39381 0.0
H785 H 0.56969 0.64626 0.42547 0.0
H786 H 0.53934 0.69213 0.41294 0.0
H787 H 0.56933 0.67853 0.4915 0.0
H788 H 0.53684 0.6382 0.49709 0.0
H789 H 0.56396 0.7429 0.36414 0.0
H790 H 0.56129 0.61587 0.39785 0.0
H791 H 0.5302 0.66251 0.38575 0.0
C792 C 0.79553 0.84908 0.221 0.0
C793 C 0.79543 0.86042 0.24294 0.0
N794 N 0.80591 0.855 0.25453 0.0
N795 N 0.80609 0.83675 0.21855 0.0
C796 C 0.81222 0.84062 0.23928 0.0
H797 H 0.7881 0.84893 0.20819 0.0
Co798 Co 0.80987 0.8154 0.19389 0.0
C799 C 0.83539 0.82758 0.17969 0.0
O800 O 0.8324 0.8245 0.1571 0.0
N801 N 0.81344 0.79262 0.16859 0.0
C802 C 0.81485 0.77433 0.13291 0.0
C803 C 0.81261 0.79573 0.14449 0.0
C804 C 0.8163 0.76881 0.17086 0.0
N805 N 0.81705 0.75723 0.14951 0.0
O806 O 0.81232 0.79101 0.21759 0.0
H807 H 0.81068 0.81254 0.13541 0.0
H808 H 0.81746 0.75977 0.18788 0.0
O809 O 0.82727 0.82498 0.19602 0.0
C810 C 0.80234 0.77953 0.22048 0.0
O811 O 0.79306 0.78442 0.20626 0.0
N812 N 0.8059 0.83952 0.1716 0.0
C813 C 0.79504 0.87423 0.14216 0.0
C814 C 0.80652 0.87851 0.15276 0.0
C815 C 0.8117 0.86105 0.16792 0.0
C816 C 0.79465 0.83538 0.16187 0.0
C817 C 0.78913 0.85231 0.14691 0.0
H818 H 0.82008 0.86528 0.17728 0.0
H819 H 0.7899 0.81874 0.16599 0.0
H820 H 0.82093 0.8323 0.2434 0.0
H821 H 0.78789 0.87071 0.25029 0.0
H822 H 0.81482 0.7717 0.11366 0.0
H823 H 0.81122 0.89552 0.15003 0.0
H824 H 0.78028 0.84823 0.13911 0.0
C825 C 0.49619 0.40662 0.21381 0.0
C826 C 0.4972 0.39509 0.23555 0.0
N827 N 0.48777 0.40199 0.24954 0.0
N828 N 0.48606 0.42055 0.21386 0.0
C829 C 0.4811 0.41731 0.23587 0.0
H830 H 0.50271 0.40567 0.19926 0.0
Co831 Co 0.48175 0.44298 0.19029 0.0
C832 C 0.45592 0.43086 0.17911 0.0
O833 O 0.45865 0.43172 0.15622 0.0
N834 N 0.47758 0.46678 0.16621 0.0
C835 C 0.47451 0.48604 0.13139 0.0
C836 C 0.47656 0.4641 0.14207 0.0
C837 C 0.47602 0.49095 0.16944 0.0
N838 N 0.47426 0.50303 0.14859 0.0
O839 O 0.48095 0.46718 0.21481 0.0
H840 H 0.47718 0.44726 0.13237 0.0
H841 H 0.47655 0.49987 0.18664 0.0
O842 O 0.46429 0.43458 0.19479 0.0
C843 C 0.49196 0.47457 0.21687 0.0
O844 O 0.5002 0.46548 0.20224 0.0
N845 N 0.48443 0.41922 0.16686 0.0
C846 C 0.49453 0.38464 0.13629 0.0
C847 C 0.48409 0.37924 0.15001 0.0
C848 C 0.47919 0.39685 0.16541 0.0
C849 C 0.49483 0.42426 0.15432 0.0
C850 C 0.49984 0.40753 0.13856 0.0
H851 H 0.47163 0.3921 0.177 0.0
H852 H 0.4994 0.44137 0.15698 0.0
H853 H 0.4732 0.42722 0.24223 0.0
H854 H 0.50455 0.3831 0.24085 0.0
H855 H 0.47331 0.48917 0.11235 0.0
H856 H 0.47994 0.3615 0.14919 0.0
H857 H 0.50814 0.41215 0.12898 0.0
C858 C 0.79525 0.40998 0.03696 0.0
C859 C 0.79516 0.39883 0.01492 0.0
N860 N 0.8057 0.40416 1.00349 0.0
N861 N 0.80585 0.4221 0.03964 0.0
C862 C 0.81202 0.41826 0.01897 0.0
H863 H 0.78778 0.41023 0.04967 0.0
Co864 Co 0.80965 0.44356 0.06419 0.0
C865 C 0.83494 0.43095 0.07901 0.0
O866 O 0.83161 0.43369 0.10147 0.0
N867 N 0.81332 0.46651 0.08927 0.0
C868 C 0.81474 0.4859 0.1244 0.0
C869 C 0.81207 0.46434 0.11341 0.0
C870 C 0.81692 0.48983 0.08638 0.0
N871 N 0.81769 0.50203 0.10735 0.0
O872 O 0.81202 0.46787 0.0403 0.0
H873 H 0.80946 0.44815 0.12291 0.0
H874 H 0.81889 0.49802 0.06921 0.0
O875 O 0.82705 0.4339 0.06227 0.0
C876 C 0.80199 0.47942 0.03813 0.0
O877 O 0.79295 0.4744 0.05284 0.0
N878 N 0.80562 0.41957 0.08663 0.0
C879 C 0.79427 0.38458 0.1151 0.0
C880 C 0.80574 0.38008 0.10454 0.0
C881 C 0.81117 0.3977 0.08991 0.0
C882 C 0.79439 0.42395 0.09635 0.0
C883 C 0.78866 0.40695 0.11091 0.0
H884 H 0.8195 0.39329 0.08045 0.0
H885 H 0.78979 0.44081 0.09246 0.0
H886 H 0.82077 0.4265 0.01504 0.0
H887 H 0.78757 0.38881 0.00738 0.0
H888 H 0.81413 0.48959 0.14345 0.0
H889 H 0.81021 0.36275 0.10673 0.0
H890 H 0.77984 0.41127 0.11866 0.0
C891 C 0.49539 0.85002 0.03977 0.0
C892 C 0.49631 0.86168 0.01807 0.0
N893 N 0.48587 0.85805 0.00563 0.0
N894 N 0.48437 0.83924 0.04124 0.0
C895 C 0.47878 0.84439 0.0202 0.0
H896 H 0.50254 0.8485 0.05313 0.0
Co897 Co 0.47957 0.8178 0.06507 0.0
C898 C 0.45444 0.83349 0.07791 0.0
O899 O 0.45746 0.83199 0.10065 0.0
N900 N 0.4749 0.79475 0.08954 0.0
C901 C 0.47216 0.77558 0.12453 0.0
C902 C 0.47466 0.79732 0.11376 0.0
C903 C 0.47231 0.77094 0.08637 0.0
N904 N 0.47079 0.75886 0.10727 0.0
O905 O 0.47714 0.79415 0.04059 0.0
H906 H 0.47628 0.81388 0.12349 0.0
H907 H 0.47167 0.76228 0.06907 0.0
O908 O 0.46243 0.82885 0.06177 0.0
C909 C 0.48703 0.78226 0.03787 0.0
O910 O 0.49618 0.78635 0.05265 0.0
N911 N 0.48359 0.84116 0.08818 0.0
C912 C 0.49458 0.87469 0.11868 0.0
C913 C 0.48429 0.88113 0.10498 0.0
C914 C 0.47895 0.86406 0.0896 0.0
C915 C 0.49395 0.83516 0.10046 0.0
C916 C 0.49939 0.85138 0.11627 0.0
H917 H 0.47146 0.86956 0.07815 0.0
H918 H 0.49806 0.81759 0.09776 0.0
H919 H 0.46988 0.83736 0.01537 0.0
H920 H 0.50437 0.87087 0.01147 0.0
H921 H 0.47188 0.77223 0.14367 0.0
H922 H 0.48053 0.89921 0.10594 0.0
H923 H 0.50757 0.846 0.12591 0.0
C924 C 0.2484 0.1706 0.79205 0.0
C925 C 0.25112 0.15904 0.77084 0.0
N926 N 0.24107 0.15934 0.75674 0.0
N927 N 0.23665 0.17789 0.7915 0.0
C928 C 0.23242 0.1708 0.76982 0.0
H929 H 0.25471 0.17429 0.80658 0.0
Co930 Co 0.22889 0.19829 0.81326 0.0
C931 C 0.20642 0.17092 0.82475 0.0
O932 O 0.20923 0.17376 0.84754 0.0
N933 N 0.22109 0.22057 0.83435 0.0
C934 C 0.20718 0.24758 0.84618 0.0
C935 C 0.20899 0.22586 0.83496 0.0
C936 C 0.22641 0.24008 0.84485 0.0
N937 N 0.21815 0.25674 0.85212 0.0
O938 O 0.22529 0.21966 0.78723 0.0
H939 H 0.2019 0.21643 0.82531 0.0
H940 H 0.23616 0.24346 0.84455 0.0
O941 O 0.2133 0.1803 0.80857 0.0
C942 C 0.23424 0.2343 0.78557 0.0
O943 O 0.24322 0.2326 0.80116 0.0
N944 N 0.23382 0.17759 0.83886 0.0
C945 C 0.24571 0.14715 0.87176 0.0
C946 C 0.2383 0.13759 0.85351 0.0
C947 C 0.23259 0.15303 0.83712 0.0
C948 C 0.24098 0.18717 0.85654 0.0
C949 C 0.24687 0.17234 0.87331 0.0
H950 H 0.22764 0.14512 0.82226 0.0
H951 H 0.24276 0.20628 0.85704 0.0
H952 H 0.22341 0.17544 0.76319 0.0
H953 H 0.25994 0.15162 0.76597 0.0
H954 H 0.19853 0.25698 0.84775 0.0
H955 H 0.2374 0.11826 0.85108 0.0
H956 H 0.25254 0.18058 0.887 0.0
C957 C 0.54532 0.60746 0.7884 0.0
C958 C 0.54516 0.61921 0.76665 0.0
N959 N 0.55544 0.6134 0.75454 0.0
N960 N 0.5557 0.59443 0.79017 0.0
C961 C 0.5617 0.59851 0.76938 0.0
H962 H 0.53801 0.60728 0.80148 0.0
Co963 Co 0.55933 0.57124 0.81343 0.0
C964 C 0.58445 0.58685 0.82857 0.0
O965 O 0.58113 0.5861 0.85116 0.0
N966 N 0.56279 0.5468 0.83697 0.0
C967 C 0.5657 0.52651 0.87123 0.0
C968 C 0.5644 0.54892 0.86102 0.0
C969 C 0.56297 0.52252 0.83334 0.0
N970 N 0.56476 0.50985 0.8538 0.0
O971 O 0.56201 0.54828 0.78818 0.0
H972 H 0.56419 0.56559 0.87107 0.0
H973 H 0.56165 0.51405 0.81609 0.0
O974 O 0.57673 0.58122 0.81219 0.0
C975 C 0.55164 0.54203 0.77972 0.0
O976 O 0.54165 0.5509 0.78946 0.0
N977 N 0.55519 0.59374 0.83735 0.0
C978 C 0.5442 0.62631 0.86889 0.0
C979 C 0.55441 0.63323 0.85521 0.0
C980 C 0.55975 0.61665 0.83935 0.0
C981 C 0.54496 0.58721 0.84977 0.0
C982 C 0.53952 0.60295 0.86607 0.0
H983 H 0.56716 0.62255 0.82794 0.0
H984 H 0.54089 0.56966 0.84669 0.0
H985 H 0.57021 0.58966 0.7648 0.0
H986 H 0.53764 0.62985 0.7597 0.0
H987 H 0.56673 0.52276 0.8902 0.0
H988 H 0.55808 0.65136 0.85652 0.0
H989 H 0.53142 0.5972 0.87571 0.0
C990 C 0.24513 0.60729 0.96921 0.0
C991 C 0.24545 0.61966 0.99057 0.0
N992 N 0.23525 0.61431 1.00314 0.0
N993 N 0.23472 0.59431 0.96808 0.0
C994 C 0.22887 0.59899 0.98894 0.0
H995 H 0.25235 0.60673 0.95596 0.0
Co996 Co 0.23105 0.57079 0.9451 0.0
C997 C 0.20599 0.58635 0.92947 0.0
O998 O 0.20942 0.58534 0.90696 0.0
N999 N 0.2276 0.54604 0.92186 0.0
C1000 C 0.22471 0.52542 0.88782 0.0
C1001 C 0.22604 0.54791 0.89778 0.0
C1002 C 0.22741 0.52179 0.92576 0.0
N1003 N 0.22561 0.50892 0.90543 0.0
O1004 O 0.22823 0.54815 0.97063 0.0
H1005 H 0.2263 0.56446 0.88752 0.0
H1006 H 0.22874 0.51348 0.9431 0.0
O1007 O 0.21364 0.58095 0.94606 0.0
C1008 C 0.23847 0.542 0.97979 0.0
O1009 O 0.24859 0.55088 0.97064 0.0
N1010 N 0.23528 0.59297 0.92085 0.0
C1011 C 0.24639 0.62524 0.88913 0.0
C1012 C 0.23616 0.63232 0.90265 0.0
C1013 C 0.23076 0.61589 0.91859 0.0
C1014 C 0.24551 0.58625 0.90853 0.0
C1015 C 0.25101 0.60184 0.89215 0.0
H1016 H 0.22333 0.62194 0.9299 0.0
H1017 H 0.24955 0.5687 0.91179 0.0
H1018 H 0.22039 0.59031 0.99403 0.0
H1019 H 0.25304 0.63044 0.99695 0.0
H1020 H 0.22369 0.52149 0.86888 0.0
H1021 H 0.23252 0.65046 0.90118 0.0
H1022 H 0.25913 0.59596 0.88263 0.0
C1023 C 0.54364 0.17009 0.96643 0.0
C1024 C 0.54137 0.15804 0.98761 0.0
N1025 N 0.55175 0.15771 1.00074 0.0
N1026 N 0.55545 0.17705 0.96608 0.0
C1027 C 0.56015 0.16924 0.98711 0.0
H1028 H 0.53699 0.17461 0.95275 0.0
Co1029 Co 0.56281 0.19824 0.9447 0.0
C1030 C 0.58558 0.17232 0.93198 0.0
O1031 O 0.58249 0.17545 0.90936 0.0
N1032 N 0.57025 0.22132 0.92395 0.0
C1033 C 0.58385 0.24907 0.91247 0.0
C1034 C 0.58228 0.22716 0.92344 0.0
C1035 C 0.56471 0.24076 0.9137 0.0
N1036 N 0.57279 0.25783 0.90662 0.0
O1037 O 0.5664 0.21902 0.97115 0.0
H1038 H 0.58947 0.21795 0.93304 0.0
H1039 H 0.55494 0.24378 0.9141 0.0
O1040 O 0.57864 0.1808 0.94853 0.0
C1041 C 0.55745 0.23357 0.97345 0.0
O1042 O 0.54839 0.23241 0.95797 0.0
N1043 N 0.55786 0.17809 0.9188 0.0
C1044 C 0.54609 0.14837 0.88521 0.0
C1045 C 0.55384 0.13848 0.90274 0.0
C1046 C 0.55946 0.15356 0.91958 0.0
C1047 C 0.55028 0.18794 0.90195 0.0
C1048 C 0.54443 0.17349 0.88486 0.0
H1049 H 0.56469 0.14537 0.93392 0.0
H1050 H 0.54816 0.20691 0.90238 0.0
H1051 H 0.56942 0.17307 0.99273 0.0
H1052 H 0.53254 0.15146 0.99346 0.0
H1053 H 0.5924 0.25886 0.91104 0.0
H1054 H 0.55511 0.11913 0.90417 0.0
H1055 H 0.53844 0.18191 0.87179 0.0
C1056 C 0.29969 0.38388 0.28962 0.0
C1057 C 0.30631 0.36506 0.27868 0.0
C1058 C 0.30075 0.38824 0.31422 0.0
C1059 C 0.3198 0.37901 0.36765 0.0
H1060 H 0.2889 0.38277 0.40174 0.0
C1061 C 0.29955 0.37804 0.47061 0.0
C1062 C 0.306 0.39728 0.48123 0.0
C1063 C 0.30069 0.3732 0.44611 0.0
C1064 C 0.2976 0.38164 0.39249 0.0
H1065 H 0.31967 0.33672 0.2852 0.0
H1066 H 0.32169 0.34479 0.32812 0.0
H1067 H 0.28896 0.37722 0.35829 0.0
H1068 H 0.31916 0.42584 0.47421 0.0
H1069 H 0.3213 0.41698 0.43154 0.0
H1070 H 0.32841 0.3837 0.40203 0.0
C1071 C 0.31564 0.35604 0.31749 0.0
C1072 C 0.29763 0.37869 0.36761 0.0
C1073 C 0.3145 0.35149 0.29285 0.0
C1074 C 0.3141 0.41078 0.46685 0.0
C1075 C 0.31533 0.40575 0.44233 0.0
C1076 C 0.31976 0.38233 0.3926 0.0
C1077 C 0.30856 0.37409 0.32849 0.0
C1078 C 0.30872 0.37735 0.35492 0.0
C1079 C 0.30842 0.38727 0.43163 0.0
C1080 C 0.30865 0.38357 0.40525 0.0
H1081 H 0.29353 0.39507 0.27924 0.0
H1082 H 0.29533 0.40255 0.32217 0.0
H1083 H 0.32846 0.37809 0.35827 0.0
H1084 H 0.29347 0.36685 0.48114 0.0
H1085 H 0.29541 0.35857 0.4384 0.0
C1086 C 0.97456 0.84996 0.46559 0.0
C1087 C 0.98142 0.866 0.47985 0.0
C1088 C 0.97286 0.8544 0.44106 0.0
C1089 C 0.976 0.90215 0.39399 0.0
H1090 H 0.97915 0.84727 0.35122 0.0
C1091 C 0.97423 0.91388 0.29091 0.0
C1092 C 0.98279 0.90049 0.27751 0.0
C1093 C 0.97231 0.90891 0.31527 0.0
C1094 C 0.97831 0.86283 0.36288 0.0
H1095 H 0.99132 0.89996 0.47949 0.0
H1096 H 0.98875 0.90725 0.43683 0.0
H1097 H 0.97914 0.84085 0.39442 0.0
H1098 H 0.99564 0.87066 0.27924 0.0
H1099 H 0.99264 0.86258 0.32167 0.0
H1100 H 0.97584 0.92425 0.36249 0.0
C1101 C 0.98453 0.89135 0.44456 0.0
C1102 C 0.97812 0.85911 0.38772 0.0
C1103 C 0.98616 0.88699 0.46907 0.0
C1104 C 0.98911 0.88159 0.28899 0.0
C1105 C 0.98725 0.87673 0.31334 0.0
C1106 C 0.97628 0.90589 0.36915 0.0
C1107 C 0.97801 0.87495 0.43012 0.0
C1108 C 0.97715 0.87875 0.40364 0.0
C1109 C 0.97893 0.89049 0.32691 0.0
C1110 C 0.97763 0.88631 0.35326 0.0
H1111 H 0.97081 0.83354 0.47311 0.0
H1112 H 0.96762 0.84155 0.43061 0.0
H1113 H 0.97504 0.91769 0.40564 0.0
H1114 H 0.96924 0.92868 0.28285 0.0
H1115 H 0.9657 0.91967 0.32502 0.0
C1116 C 0.3166 0.85078 0.79294 0.0
C1117 C 0.3086 0.86464 0.77863 0.0
C1118 C 0.3178 0.85553 0.81753 0.0
C1119 C 0.29986 0.87886 0.86716 0.0
H1120 H 0.33045 0.884 0.90221 0.0
C1121 C 0.31537 0.9121 0.96636 0.0
C1122 C 0.30724 0.89853 0.98062 0.0
C1123 C 0.31691 0.90673 0.94197 0.0
C1124 C 0.32186 0.88258 0.89259 0.0
H1125 H 0.2963 0.89544 0.77884 0.0
H1126 H 0.29818 0.90322 0.82169 0.0
H1127 H 0.33074 0.87805 0.85845 0.0
H1128 H 0.29506 0.86755 0.98053 0.0
H1129 H 0.2975 0.85872 0.938 0.0
H1130 H 0.29094 0.88317 0.90107 0.0
C1131 C 0.3034 0.88855 0.81388 0.0
C1132 C 0.32203 0.87908 0.86766 0.0
C1133 C 0.3023 0.884 0.78934 0.0
C1134 C 0.30113 0.87882 0.97007 0.0
C1135 C 0.30257 0.87365 0.94571 0.0
C1136 C 0.29969 0.88195 0.89201 0.0
C1137 C 0.31096 0.87407 0.82831 0.0
C1138 C 0.31101 0.87741 0.85472 0.0
C1139 C 0.31027 0.88784 0.93131 0.0
C1140 C 0.31067 0.88393 0.90498 0.0
H1141 H 0.32154 0.83563 0.78544 0.0
H1142 H 0.32366 0.84404 0.82831 0.0
H1143 H 0.29124 0.8774 0.85765 0.0
H1144 H 0.32019 0.92748 0.97367 0.0
H1145 H 0.32286 0.91803 0.93122 0.0
C1146 C 0.98817 0.3876 0.96843 0.0
C1147 C 0.98244 0.36765 0.97934 0.0
C1148 C 0.98707 0.39164 0.94379 0.0
C1149 C 0.96914 0.37944 0.88974 0.0
H1150 H 1.00033 0.38519 0.85694 0.0
C1151 C 0.99055 0.37743 0.78788 0.0
C1152 C 0.98435 0.39661 0.77655 0.0
C1153 C 0.98903 0.37302 0.81238 0.0
C1154 C 0.99155 0.38353 0.86584 0.0
H1155 H 0.97045 0.33706 0.97269 0.0
H1156 H 0.9683 0.34461 0.92967 0.0
H1157 H 0.99987 0.38048 0.90051 0.0
H1158 H 0.97111 0.42535 0.78228 0.0
H1159 H 0.96827 0.41714 0.82498 0.0
H1160 H 0.96085 0.38289 0.85487 0.0
C1161 C 0.97373 0.35693 0.94039 0.0
C1162 C 0.99129 0.38103 0.89076 0.0
C1163 C 0.97496 0.35267 0.96508 0.0
C1164 C 0.97602 0.41037 0.7902 0.0
C1165 C 0.97439 0.40572 0.81472 0.0
C1166 C 0.9694 0.38239 0.86473 0.0
C1167 C 0.98006 0.37607 0.92944 0.0
C1168 C 0.9801 0.37893 0.90297 0.0
C1169 C 0.98113 0.38741 0.82614 0.0
C1170 C 0.98063 0.38431 0.85257 0.0
H1171 H 0.99374 0.39989 0.97885 0.0
H1172 H 0.99189 0.40676 0.93583 0.0
H1173 H 0.9604 0.37789 0.89877 0.0
H1174 H 0.99678 0.366 0.77795 0.0
H1175 H 0.99419 0.35853 0.82069 0.0
C1176 C 0.72315 0.64978 0.71958 0.0
C1177 C 0.73484 0.6499 0.73016 0.0
C1178 C 0.72183 0.64657 0.69472 0.0
C1179 C 0.73873 0.65457 0.63835 0.0
H1180 H 0.71684 0.60659 0.61134 0.0
C1181 C 0.74472 0.62088 0.54219 0.0
C1182 C 0.73436 0.61628 0.52795 0.0
C1183 C 0.74353 0.62616 0.56654 0.0
C1184 C 0.72284 0.62035 0.61856 0.0
H1185 H 0.75428 0.64708 0.72291 0.0
H1186 H 0.75199 0.64152 0.67984 0.0
H1187 H 0.71689 0.61384 0.65475 0.0
H1188 H 0.71459 0.61339 0.5283 0.0
H1189 H 0.71248 0.62284 0.57113 0.0
H1190 H 0.74475 0.66116 0.60247 0.0
C1191 C 0.74384 0.64385 0.69067 0.0
C1192 C 0.72288 0.62446 0.64341 0.0
C1193 C 0.74515 0.64675 0.71541 0.0
C1194 C 0.72274 0.61679 0.53882 0.0
C1195 C 0.72154 0.62217 0.56333 0.0
C1196 C 0.73863 0.65062 0.61362 0.0
C1197 C 0.73219 0.64384 0.68002 0.0
C1198 C 0.73105 0.64119 0.65358 0.0
C1199 C 0.73194 0.62711 0.57743 0.0
C1200 C 0.73093 0.63301 0.60344 0.0
H1201 H 0.71506 0.65207 0.73054 0.0
H1202 H 0.71274 0.64667 0.68696 0.0
H1203 H 0.74494 0.66794 0.64564 0.0
H1204 H 0.75382 0.61999 0.53464 0.0
H1205 H 0.75177 0.62917 0.57695 0.0
C1206 C 0.05764 0.14123 0.72098 0.0
C1207 C 0.06005 0.11818 0.73043 0.0
C1208 C 0.05856 0.14556 0.69633 0.0
C1209 C 0.05187 0.14412 0.64371 0.0
H1210 H 0.0767 0.11587 0.60265 0.0
C1211 C 0.04599 0.1406 0.54137 0.0
C1212 C 0.05613 0.14647 0.52697 0.0
C1213 C 0.04732 0.13721 0.56607 0.0
C1214 C 0.06976 0.12404 0.61391 0.0
H1215 H 0.06567 0.08173 0.72142 0.0
H1216 H 0.06726 0.08923 0.67833 0.0
H1217 H 0.07808 0.11079 0.64624 0.0
H1218 H 0.07572 0.1527 0.52737 0.0
H1219 H 0.07801 0.14703 0.57071 0.0
H1220 H 0.04357 0.1575 0.61157 0.0
C1221 C 0.06479 0.10408 0.69004 0.0
C1222 C 0.07049 0.12094 0.63885 0.0
C1223 C 0.0639 0.09977 0.71476 0.0
C1224 C 0.0677 0.14843 0.53793 0.0
C1225 C 0.06903 0.14497 0.56273 0.0
C1226 C 0.05112 0.14715 0.61886 0.0
C1227 C 0.06187 0.1269 0.68048 0.0
C1228 C 0.06152 0.13087 0.65403 0.0
C1229 C 0.05882 0.1396 0.57712 0.0
C1230 C 0.05999 0.13698 0.60362 0.0
H1231 H 0.05485 0.15587 0.73264 0.0
H1232 H 0.0565 0.16349 0.68963 0.0
H1233 H 0.04471 0.15176 0.6548 0.0
H1234 H 0.03692 0.13918 0.53372 0.0
H1235 H 0.03928 0.13274 0.57656 0.0
C1236 C 0.72428 0.14875 0.21883 0.0
C1237 C 0.73591 0.15032 0.22954 0.0
C1238 C 0.72312 0.14537 0.19396 0.0
C1239 C 0.7399 0.15527 0.13768 0.0
H1240 H 0.71965 0.10457 0.11066 0.0
C1241 C 0.74725 0.12198 0.0417 0.0
C1242 C 0.73711 0.11594 0.02737 0.0
C1243 C 0.74582 0.12723 0.06602 0.0
C1244 C 0.72519 0.11908 0.11787 0.0
H1245 H 0.75542 0.14998 0.22247 0.0
H1246 H 0.75342 0.14415 0.17938 0.0
H1247 H 0.71934 0.11202 0.15403 0.0
H1248 H 0.71748 0.11049 0.02756 0.0
H1249 H 0.71493 0.11988 0.0703 0.0
H1250 H 0.74581 0.16241 0.10183 0.0
C1251 C 0.74519 0.14545 0.19013 0.0
C1252 C 0.72502 0.1233 0.1427 0.0
C1253 C 0.74634 0.14851 0.21488 0.0
C1254 C 0.72547 0.11499 0.03813 0.0
C1255 C 0.72402 0.12035 0.0626 0.0
C1256 C 0.74001 0.15119 0.11295 0.0
C1257 C 0.73359 0.14394 0.17935 0.0
C1258 C 0.73262 0.14105 0.15289 0.0
C1259 C 0.73419 0.12672 0.07679 0.0
C1260 C 0.73291 0.13263 0.10278 0.0
H1261 H 0.7161 0.14999 0.22971 0.0
H1262 H 0.71407 0.14432 0.1861 0.0
H1263 H 0.74566 0.16941 0.14497 0.0
H1264 H 0.75639 0.12226 0.03425 0.0
H1265 H 0.75391 0.13138 0.07648 0.0
C1266 C 0.05234 0.63568 0.22201 0.0
C1267 C 0.05855 0.61602 0.23243 0.0
C1268 C 0.05356 0.64079 0.19757 0.0
C1269 C 0.05018 0.63228 0.14403 0.0
H1270 H 0.08086 0.63651 0.10927 0.0
C1271 C 0.05173 0.62986 0.04131 0.0
C1272 C 0.05778 0.64932 0.03022 0.0
C1273 C 0.05314 0.62545 0.06582 0.0
C1274 C 0.07225 0.6354 0.11882 0.0
H1275 H 0.07149 0.5871 0.22519 0.0
H1276 H 0.07379 0.59646 0.18259 0.0
H1277 H 0.08103 0.63057 0.15306 0.0
H1278 H 0.07062 0.67864 0.03627 0.0
H1279 H 0.07328 0.67047 0.07914 0.0
H1280 H 0.04137 0.63671 0.11 0.0
C1281 C 0.06791 0.60776 0.19349 0.0
C1282 C 0.07234 0.6319 0.14376 0.0
C1283 C 0.06659 0.60245 0.21796 0.0
C1284 C 0.06586 0.66342 0.04409 0.0
C1285 C 0.06737 0.6588 0.06867 0.0
C1286 C 0.05009 0.63536 0.11917 0.0
C1287 C 0.06115 0.62659 0.18297 0.0
C1288 C 0.06129 0.63043 0.1566 0.0
C1289 C 0.06077 0.64017 0.07986 0.0
C1290 C 0.0611 0.63694 0.10629 0.0
H1291 H 0.04633 0.64695 0.23262 0.0
H1292 H 0.04839 0.65567 0.18999 0.0
H1293 H 0.04153 0.63098 0.15343 0.0
H1294 H 0.0457 0.61823 0.03114 0.0
H1295 H 0.0481 0.6107 0.07393 0.0
C1296 C 0.81663 0.41326 0.96548 0.0
C1297 C 0.80868 0.39847 0.97885 0.0
C1298 C 0.81867 0.4088 0.94106 0.0
C1299 C 0.81435 0.36239 0.89315 0.0
H1300 H 0.81477 0.418 0.85082 0.0
C1301 C 0.81759 0.35116 0.79025 0.0
C1302 C 0.80988 0.36606 0.77642 0.0
C1303 C 0.81934 0.35568 0.81474 0.0
C1304 C 0.81461 0.40225 0.86235 0.0
H1305 H 0.7971 0.3667 0.97708 0.0
H1306 H 0.80031 0.35942 0.93458 0.0
H1307 H 0.81413 0.42399 0.89407 0.0
H1308 H 0.79845 0.39808 0.77747 0.0
H1309 H 0.80115 0.40546 0.82011 0.0
H1310 H 0.81416 0.34065 0.86144 0.0
C1311 C 0.80512 0.37431 0.94294 0.0
C1312 C 0.81443 0.40569 0.88723 0.0
C1313 C 0.80314 0.37869 0.96733 0.0
C1314 C 0.8043 0.38601 0.78757 0.0
C1315 C 0.80599 0.39044 0.81205 0.0
C1316 C 0.81445 0.35895 0.86827 0.0
C1317 C 0.81278 0.38949 0.92937 0.0
C1318 C 0.81409 0.3858 0.90297 0.0
C1319 C 0.8134 0.37514 0.82606 0.0
C1320 C 0.81439 0.37884 0.85252 0.0
H1321 H 0.82101 0.42875 0.97361 0.0
H1322 H 0.82477 0.42067 0.93129 0.0
H1323 H 0.8143 0.34663 0.90469 0.0
H1324 H 0.82198 0.33553 0.78243 0.0
H1325 H 0.82526 0.34371 0.82485 0.0
C1326 C 0.49043 0.88342 0.97014 0.0
C1327 C 0.48363 0.86474 0.98091 0.0
C1328 C 0.48928 0.8883 0.94564 0.0
C1329 C 0.46983 0.88127 0.89248 0.0
H1330 H 0.50057 0.88288 0.85772 0.0
C1331 C 0.48944 0.87868 0.78921 0.0
C1332 C 0.48364 0.89878 0.77869 0.0
C1333 C 0.48821 0.87392 0.81371 0.0
C1334 C 0.49191 0.88239 0.86716 0.0
H1335 H 0.46985 0.83728 0.97417 0.0
H1336 H 0.46768 0.84629 0.93148 0.0
H1337 H 0.50066 0.87698 0.90114 0.0
H1338 H 0.47141 0.92889 0.78582 0.0
H1339 H 0.46907 0.92015 0.82855 0.0
H1340 H 0.46112 0.88697 0.85831 0.0
C1341 C 0.47394 0.857 0.94216 0.0
C1342 C 0.49197 0.87923 0.89202 0.0
C1343 C 0.47518 0.8519 0.96668 0.0
C1344 C 0.47598 0.91319 0.79314 0.0
C1345 C 0.47464 0.90824 0.81767 0.0
C1346 C 0.46978 0.88484 0.86755 0.0
C1347 C 0.48119 0.87487 0.93132 0.0
C1348 C 0.48094 0.87859 0.90494 0.0
C1349 C 0.48101 0.88893 0.82828 0.0
C1350 C 0.48084 0.88527 0.85466 0.0
H1351 H 0.49679 0.89411 0.98054 0.0
H1352 H 0.49484 0.90245 0.9378 0.0
H1353 H 0.4612 0.8809 0.90205 0.0
H1354 H 0.49514 0.86678 0.77862 0.0
H1355 H 0.49305 0.85865 0.82136 0.0
C1356 C 0.80248 0.87843 0.46951 0.0
C1357 C 0.80848 0.89796 0.48056 0.0
C1358 C 0.8044 0.87322 0.44525 0.0
C1359 C 0.81448 0.90239 0.38893 0.0
H1360 H 0.81288 0.83689 0.36451 0.0
C1361 C 0.80363 0.88143 0.29 0.0
C1362 C 0.80887 0.861 0.27909 0.0
C1363 C 0.80551 0.88618 0.31435 0.0
C1364 C 0.81354 0.85529 0.37098 0.0
H1365 H 0.82153 0.92691 0.47461 0.0
H1366 H 0.82516 0.91737 0.4326 0.0
H1367 H 0.81307 0.8438 0.40767 0.0
H1368 H 0.82056 0.82992 0.28528 0.0
H1369 H 0.82413 0.83856 0.32763 0.0
H1370 H 0.8151 0.91387 0.35227 0.0
C1371 C 0.81877 0.90634 0.44262 0.0
C1372 C 0.81348 0.85927 0.39579 0.0
C1373 C 0.8168 0.91163 0.46688 0.0
C1374 C 0.81644 0.8459 0.29299 0.0
C1375 C 0.81836 0.8507 0.31739 0.0
C1376 C 0.81462 0.8984 0.36415 0.0
C1377 C 0.81244 0.88731 0.43138 0.0
C1378 C 0.8137 0.8829 0.40509 0.0
C1379 C 0.81276 0.8707 0.32847 0.0
C1380 C 0.8139 0.87482 0.35483 0.0
H1381 H 0.79615 0.86729 0.47952 0.0
H1382 H 0.79926 0.85859 0.43722 0.0
H1383 H 0.81456 0.92085 0.39537 0.0
H1384 H 0.79789 0.89363 0.27979 0.0
H1385 H 0.80093 0.9016 0.32225 0.0
C1386 C 0.47446 0.3967 0.28528 0.0
C1387 C 0.48614 0.39649 0.27468 0.0
C1388 C 0.47303 0.39139 0.30976 0.0
C1389 C 0.48942 0.36243 0.36081 0.0
H1390 H 0.46773 0.40055 0.40083 0.0
C1391 C 0.47327 0.36519 0.46634 0.0
C1392 C 0.48489 0.36531 0.47722 0.0
C1393 C 0.47212 0.36794 0.4414 0.0
C1394 C 0.4737 0.38956 0.3898 0.0
H1395 H 0.50549 0.39142 0.2818 0.0
H1396 H 0.50304 0.38244 0.32408 0.0
H1397 H 0.4681 0.40732 0.35735 0.0
H1398 H 0.50438 0.36796 0.47044 0.0
H1399 H 0.50237 0.37262 0.42718 0.0
H1400 H 0.49533 0.34529 0.39326 0.0
C1401 C 0.49492 0.38596 0.31349 0.0
C1402 C 0.4739 0.39338 0.3649 0.0
C1403 C 0.49633 0.39114 0.28915 0.0
C1404 C 0.4953 0.36814 0.46268 0.0
C1405 C 0.49416 0.37053 0.43786 0.0
C1406 C 0.48929 0.35878 0.3856 0.0
C1407 C 0.48325 0.38583 0.32412 0.0
C1408 C 0.48198 0.38023 0.35018 0.0
C1409 C 0.48258 0.37038 0.42691 0.0
C1410 C 0.48163 0.37265 0.40042 0.0
H1411 H 0.46643 0.40064 0.27459 0.0
H1412 H 0.4639 0.39132 0.31733 0.0
H1413 H 0.49551 0.35151 0.34999 0.0
H1414 H 0.46511 0.3631 0.47716 0.0
H1415 H 0.46308 0.36772 0.43339 0.0
C1416 C 0.24057 0.633 0.21922 0.0
C1417 C 0.23405 0.65175 0.23051 0.0
C1418 C 0.23924 0.62871 0.19466 0.0
C1419 C 0.2418 0.63909 0.14121 0.0
H1420 H 0.21077 0.63238 0.10796 0.0
C1421 C 0.23877 0.64068 0.03836 0.0
C1422 C 0.23285 0.62072 0.02787 0.0
C1423 C 0.23768 0.6453 0.06292 0.0
C1424 C 0.21948 0.63424 0.11707 0.0
H1425 H 0.22052 0.67993 0.22466 0.0
H1426 H 0.21802 0.67193 0.18181 0.0
H1427 H 0.21108 0.6378 0.15178 0.0
H1428 H 0.22061 0.59067 0.03517 0.0
H1429 H 0.21851 0.5992 0.07795 0.0
H1430 H 0.25023 0.63579 0.1067 0.0
C1431 C 0.22422 0.66073 0.19215 0.0
C1432 C 0.21966 0.63744 0.14205 0.0
C1433 C 0.22565 0.66524 0.21675 0.0
C1434 C 0.22525 0.60629 0.04243 0.0
C1435 C 0.22405 0.61112 0.06701 0.0
C1436 C 0.24162 0.63631 0.11631 0.0
C1437 C 0.23124 0.64281 0.18078 0.0
C1438 C 0.23084 0.6397 0.15434 0.0
C1439 C 0.23051 0.63031 0.07757 0.0
C1440 C 0.23048 0.63378 0.10398 0.0
H1441 H 0.24687 0.6218 0.22926 0.0
H1442 H 0.24462 0.6145 0.18641 0.0
H1443 H 0.25054 0.64101 0.15021 0.0
H1444 H 0.24445 0.65255 0.02771 0.0
H1445 H 0.24261 0.66045 0.07055 0.0
C1446 C 0.54485 0.13305 0.03534 0.0
C1447 C 0.55308 0.14983 0.02537 0.0
C1448 C 0.54557 0.12676 0.05962 0.0
C1449 C 0.54387 0.13198 0.11395 0.0
H1450 H 0.57471 0.11975 0.14636 0.0
C1451 C 0.54762 0.13149 0.21677 0.0
C1452 C 0.55383 0.11191 0.22732 0.0
C1453 C 0.54825 0.13556 0.19207 0.0
C1454 C 0.56603 0.12301 0.13751 0.0
H1455 H 0.56867 0.17282 0.03343 0.0
H1456 H 0.57 0.16154 0.07553 0.0
H1457 H 0.57444 0.12658 0.10288 0.0
H1458 H 0.56592 0.08168 0.22001 0.0
H1459 H 0.56719 0.08909 0.17683 0.0
H1460 H 0.53546 0.12858 0.14847 0.0
C1461 C 0.56304 0.15315 0.06445 0.0
C1462 C 0.56588 0.12708 0.11269 0.0
C1463 C 0.56228 0.15958 0.04021 0.0
C1464 C 0.56111 0.09706 0.2126 0.0
C1465 C 0.56181 0.10125 0.18783 0.0
C1466 C 0.54404 0.12817 0.13874 0.0
C1467 C 0.55458 0.13696 0.07451 0.0
C1468 C 0.5548 0.13167 0.10066 0.0
C1469 C 0.55518 0.12026 0.17726 0.0
C1470 C 0.55512 0.12378 0.15082 0.0
H1471 H 0.53779 0.12485 0.02442 0.0
H1472 H 0.53902 0.11397 0.0668 0.0
H1473 H 0.5352 0.1357 0.10526 0.0
H1474 H 0.54214 0.1436 0.2276 0.0
H1475 H 0.54324 0.15066 0.18451 0.0
C1476 C 0.22766 0.11216 0.54189 0.0
C1477 C 0.23893 0.11407 0.52982 0.0
C1478 C 0.22702 0.11535 0.56684 0.0
C1479 C 0.22797 0.1375 0.61758 0.0
H1480 H 0.25373 0.10973 0.65682 0.0
C1481 C 0.22875 0.14633 0.72158 0.0
C1482 C 0.24017 0.15178 0.73195 0.0
C1483 C 0.22787 0.13991 0.6973 0.0
C1484 C 0.24651 0.11777 0.64613 0.0
H1485 H 0.25836 0.12045 0.53474 0.0
H1486 H 0.25721 0.12631 0.57785 0.0
H1487 H 0.25341 0.10202 0.61377 0.0
H1488 H 0.25961 0.15495 0.72459 0.0
H1489 H 0.25808 0.14378 0.68257 0.0
H1490 H 0.2212 0.15359 0.64996 0.0
C1491 C 0.24887 0.12223 0.56813 0.0
C1492 C 0.24632 0.11333 0.62144 0.0
C1493 C 0.2495 0.11919 0.54329 0.0
C1494 C 0.25069 0.15045 0.71746 0.0
C1495 C 0.24981 0.14403 0.69326 0.0
C1496 C 0.22817 0.14199 0.64234 0.0
C1497 C 0.23765 0.12026 0.58026 0.0
C1498 C 0.23718 0.12347 0.60679 0.0
C1499 C 0.2384 0.13874 0.68283 0.0
C1500 C 0.23757 0.13251 0.65685 0.0
H1501 H 0.21935 0.10836 0.53202 0.0
H1502 H 0.21823 0.11363 0.57567 0.0
H1503 H 0.22085 0.14571 0.60676 0.0
H1504 H 0.22048 0.14688 0.73224 0.0
H1505 H 0.21896 0.13568 0.68992 0.0
C1506 C 0.56524 0.66421 0.54039 0.0
C1507 C 0.55739 0.64932 0.52687 0.0
C1508 C 0.56711 0.6599 0.56487 0.0
C1509 C 0.56244 0.61395 0.61306 0.0
H1510 H 0.56285 0.67002 0.65476 0.0
C1511 C 0.56572 0.60381 0.71598 0.0
C1512 C 0.55809 0.61893 0.72972 0.0
C1513 C 0.56742 0.60806 0.69145 0.0
C1514 C 0.56269 0.65414 0.6434 0.0
H1515 H 0.54584 0.61749 0.52853 0.0
H1516 H 0.54872 0.61056 0.57118 0.0
H1517 H 0.5623 0.67555 0.61145 0.0
H1518 H 0.54673 0.65104 0.7284 0.0
H1519 H 0.54931 0.65791 0.68565 0.0
H1520 H 0.56215 0.59255 0.64501 0.0
C1521 C 0.55358 0.62539 0.56285 0.0
C1522 C 0.56256 0.65731 0.61849 0.0
C1523 C 0.55178 0.62958 0.53836 0.0
C1524 C 0.55252 0.63881 0.71839 0.0
C1525 C 0.55414 0.64295 0.69385 0.0
C1526 C 0.56247 0.61078 0.63796 0.0
C1527 C 0.56113 0.64069 0.57652 0.0
C1528 C 0.56226 0.63726 0.60298 0.0
C1529 C 0.56148 0.62744 0.67997 0.0
C1530 C 0.56243 0.63084 0.65348 0.0
H1531 H 0.56968 0.67967 0.53234 0.0
H1532 H 0.57315 0.67183 0.57472 0.0
H1533 H 0.56241 0.59807 0.6017 0.0
H1534 H 0.57011 0.58821 0.7239 0.0
H1535 H 0.57329 0.59595 0.68143 0.0
C1536 C 0.35228 0.34687 0.20998 0.0
C1537 C 0.34742 0.34714 0.18655 0.0
C1538 C 0.3637 0.35761 0.21482 0.0
C1539 C 0.38444 0.40439 0.19173 0.0
H1540 H 0.4114 0.36757 0.21849 0.0
C1541 C 0.43387 0.42643 0.1687 0.0
C1542 C 0.44319 0.42445 0.18599 0.0
C1543 C 0.42195 0.4192 0.17385 0.0
C1544 C 0.40392 0.3783 0.21148 0.0
H1545 H 0.35073 0.35918 0.14999 0.0
H1546 H 0.37027 0.37804 0.15852 0.0
H1547 H 0.39067 0.35045 0.21857 0.0
H1548 H 0.44722 0.41346 0.22252 0.0
H1549 H 0.42615 0.40051 0.23158 0.0
H1550 H 0.39756 0.43193 0.18398 0.0
C1551 C 0.36535 0.36951 0.17313 0.0
C1552 C 0.39205 0.36848 0.21151 0.0
C1553 C 0.35415 0.35852 0.16824 0.0
C1554 C 0.44022 0.41532 0.20885 0.0
C1555 C 0.4282 0.40777 0.21398 0.0
C1556 C 0.3962 0.41422 0.19183 0.0
C1557 C 0.37027 0.36925 0.19642 0.0
C1558 C 0.3823 0.38109 0.2008 0.0
C1559 C 0.41892 0.40963 0.19646 0.0
C1560 C 0.40619 0.40094 0.20081 0.0
H1561 H 0.34733 0.33822 0.22446 0.0
H1562 H 0.3673 0.35714 0.23294 0.0
H1563 H 0.37706 0.4147 0.18372 0.0
H1564 H 0.4358 0.43341 0.15092 0.0
H1565 H 0.41514 0.42051 0.15976 0.0
C1566 C 0.93826 0.91744 0.2075 0.0
C1567 C 0.94316 0.91737 0.18411 0.0
C1568 C 0.92687 0.90651 0.21218 0.0
C1569 C 0.90648 0.85945 0.18845 0.0
H1570 H 0.87936 0.89459 0.21666 0.0
C1571 C 0.85707 0.83451 0.16756 0.0
C1572 C 0.84804 0.83557 0.18548 0.0
C1573 C 0.86891 0.84277 0.17197 0.0
C1574 C 0.88689 0.88434 0.2092 0.0
H1575 H 0.93988 0.90571 0.14741 0.0
H1576 H 0.92039 0.88663 0.15565 0.0
H1577 H 0.8999 0.91259 0.21646 0.0
H1578 H 0.84444 0.84615 0.22229 0.0
H1579 H 0.86532 0.86081 0.23004 0.0
H1580 H 0.8936 0.8315 0.1806 0.0
C1581 C 0.92527 0.89506 0.17037 0.0
C1582 C 0.89864 0.89466 0.20908 0.0
C1583 C 0.93645 0.90618 0.16565 0.0
C1584 C 0.8512 0.84499 0.20813 0.0
C1585 C 0.86313 0.85351 0.21252 0.0
C1586 C 0.89482 0.84913 0.18868 0.0
C1587 C 0.92036 0.89495 0.19365 0.0
C1588 C 0.90845 0.88264 0.19792 0.0
C1589 C 0.87213 0.85243 0.19444 0.0
C1590 C 0.88479 0.86179 0.19822 0.0
H1591 H 0.94319 0.92593 0.22211 0.0
H1592 H 0.92328 0.90671 0.2303 0.0
H1593 H 0.9139 0.84958 0.1801 0.0
H1594 H 0.855 0.8274 0.1499 0.0
H1595 H 0.8755 0.84205 0.15747 0.0
C1596 C 0.35121 0.92132 0.04775 0.0
C1597 C 0.34679 0.92267 0.07147 0.0
C1598 C 0.36261 0.91045 0.0429 0.0
C1599 C 0.38344 0.86501 0.06767 0.0
H1600 H 0.41043 0.89892 0.03757 0.0
C1601 C 0.43283 0.84167 0.08967 0.0
C1602 C 0.44184 0.84143 0.07167 0.0
C1603 C 0.42101 0.84972 0.0848 0.0
C1604 C 0.40292 0.88899 0.04555 0.0
H1605 H 0.35101 0.9138 0.1086 0.0
H1606 H 0.37047 0.8948 0.10009 0.0
H1607 H 0.38986 0.91696 0.03737 0.0
H1608 H 0.4454 0.84954 0.03423 0.0
H1609 H 0.42452 0.86393 0.02567 0.0
H1610 H 0.39638 0.83743 0.07653 0.0
C1611 C 0.36521 0.90207 0.08524 0.0
C1612 C 0.39116 0.89933 0.04544 0.0
C1613 C 0.35404 0.91313 0.0901 0.0
C1614 C 0.43866 0.8494 0.04847 0.0
C1615 C 0.42674 0.85775 0.04361 0.0
C1616 C 0.39509 0.85468 0.06768 0.0
C1617 C 0.3696 0.90039 0.06164 0.0
C1618 C 0.38142 0.8878 0.05731 0.0
C1619 C 0.41777 0.85789 0.06176 0.0
C1620 C 0.40509 0.86695 0.05749 0.0
H1621 H 0.34587 0.92851 0.033 0.0
H1622 H 0.36582 0.90942 0.02453 0.0
H1623 H 0.37606 0.85555 0.07663 0.0
H1624 H 0.43491 0.83568 0.10775 0.0
H1625 H 0.41443 0.84997 0.09934 0.0
C1626 C 0.93907 0.34584 0.05097 0.0
C1627 C 0.94378 0.344 0.07446 0.0
C1628 C 0.92753 0.35638 0.04686 0.0
C1629 C 0.90625 0.39988 0.074 0.0
H1630 H 0.87999 0.36699 0.04047 0.0
C1631 C 0.85631 0.42269 0.09256 0.0
C1632 C 0.84768 0.42307 0.07383 0.0
C1633 C 0.86824 0.41472 0.08861 0.0
C1634 C 0.88729 0.37664 0.04948 0.0
H1635 H 0.93992 0.35167 0.11197 0.0
H1636 H 0.92015 0.37011 0.10474 0.0
H1637 H 0.90068 0.3496 0.04048 0.0
H1638 H 0.84492 0.41528 0.03606 0.0
H1639 H 0.86597 0.40121 0.02909 0.0
H1640 H 0.89301 0.42665 0.08343 0.0
C1641 C 0.92532 0.3635 0.0895 0.0
C1642 C 0.89912 0.36666 0.0495 0.0
C1643 C 0.93667 0.35275 0.09362 0.0
C1644 C 0.85135 0.4153 0.05086 0.0
C1645 C 0.86338 0.40712 0.04691 0.0
C1646 C 0.89452 0.40987 0.07386 0.0
C1647 C 0.92063 0.36564 0.06612 0.0
C1648 C 0.90862 0.3778 0.06246 0.0
C1649 C 0.87198 0.40683 0.06578 0.0
C1650 C 0.88478 0.39798 0.06235 0.0
H1651 H 0.9443 0.33925 0.03582 0.0
H1652 H 0.92412 0.35779 0.02864 0.0
H1653 H 0.91344 0.40911 0.08376 0.0
H1654 H 0.85385 0.42847 0.11051 0.0
H1655 H 0.8745 0.41432 0.1037 0.0
C1656 C 0.68927 0.66578 0.79809 0.0
C1657 C 0.69221 0.67599 0.82052 0.0
C1658 C 0.6773 0.65771 0.79333 0.0
C1659 C 0.64528 0.66416 0.8153 0.0
H1660 H 0.64016 0.5993 0.79095 0.0
C1661 C 0.60346 0.60869 0.84062 0.0
C1662 C 0.59666 0.59706 0.82255 0.0
C1663 C 0.61472 0.61932 0.83552 0.0
C1664 C 0.64144 0.61761 0.79736 0.0
H1665 H 0.68479 0.68629 0.85517 0.0
H1666 H 0.66421 0.67247 0.84695 0.0
H1667 H 0.66078 0.61696 0.79042 0.0
H1668 H 0.59657 0.58715 0.78488 0.0
H1669 H 0.61665 0.60543 0.77607 0.0
H1670 H 0.62614 0.66443 0.82337 0.0
C1671 C 0.67101 0.67072 0.83292 0.0
C1672 C 0.65323 0.62774 0.79703 0.0
C1673 C 0.68289 0.67851 0.83771 0.0
C1674 C 0.60157 0.59599 0.79919 0.0
C1675 C 0.61305 0.60638 0.79416 0.0
C1676 C 0.63359 0.65403 0.81577 0.0
C1677 C 0.66803 0.66007 0.81077 0.0
C1678 C 0.65535 0.65083 0.80682 0.0
C1679 C 0.61963 0.61845 0.81227 0.0
C1680 C 0.6316 0.63036 0.80756 0.0
H1681 H 0.69627 0.66349 0.78452 0.0
H1682 H 0.67529 0.64962 0.77607 0.0
H1683 H 0.64652 0.6822 0.82245 0.0
H1684 H 0.60001 0.60996 0.85881 0.0
H1685 H 0.61965 0.62818 0.84993 0.0
C1686 C 0.10118 0.09471 0.80076 0.0
C1687 C 0.09834 0.08329 0.82265 0.0
C1688 C 0.11319 0.10229 0.79587 0.0
C1689 C 0.14536 0.09221 0.81492 0.0
H1690 H 0.15115 0.15772 0.79295 0.0
C1691 C 0.18962 0.1427 0.83585 0.0
C1692 C 0.19493 0.15804 0.81866 0.0
C1693 C 0.17836 0.13169 0.83158 0.0
C1694 C 0.1497 0.13922 0.79864 0.0
H1695 H 0.10599 0.07053 0.85633 0.0
H1696 H 0.12673 0.08357 0.84785 0.0
H1697 H 0.13023 0.14188 0.7942 0.0
H1698 H 0.19264 0.17354 0.7832 0.0
H1699 H 0.17267 0.15434 0.77575 0.0
H1700 H 0.16472 0.08972 0.82011 0.0
C1701 C 0.11976 0.0866 0.83434 0.0
C1702 C 0.13771 0.13015 0.79938 0.0
C1703 C 0.10781 0.07927 0.83929 0.0
C1704 C 0.18879 0.16174 0.79675 0.0
C1705 C 0.17734 0.15089 0.79257 0.0
C1706 C 0.15729 0.10124 0.81418 0.0
C1707 C 0.12262 0.09829 0.81265 0.0
C1708 C 0.13538 0.10679 0.80828 0.0
C1709 C 0.17199 0.13581 0.81004 0.0
C1710 C 0.15958 0.1251 0.80678 0.0
H1711 H 0.09409 0.09814 0.78757 0.0
H1712 H 0.11511 0.11118 0.77896 0.0
H1713 H 0.14392 0.07395 0.82134 0.0
H1714 H 0.19412 0.13937 0.85288 0.0
H1715 H 0.17445 0.1205 0.84557 0.0
C1716 C 0.60478 0.15218 0.91849 0.0
C1717 C 0.59774 0.16157 0.93744 0.0
C1718 C 0.61667 0.14405 0.92241 0.0
C1719 C 0.63884 0.12151 0.96608 0.0
H1720 H 0.66191 0.14414 0.91816 0.0
C1721 C 0.69153 0.09593 0.95973 0.0
C1722 C 0.69491 0.08861 0.93643 0.0
C1723 C 0.67978 0.10545 0.96409 0.0
C1724 C 0.6556 0.13771 0.93175 0.0
H1725 H 0.59756 0.16864 0.97574 0.0
H1726 H 0.61859 0.15408 0.98264 0.0
H1727 H 0.64109 0.15973 0.91823 0.0
H1728 H 0.68832 0.08441 0.89984 0.0
H1729 H 0.6682 0.10092 0.90739 0.0
H1730 H 0.65348 0.09889 0.97907 0.0
C1731 C 0.61477 0.15326 0.96471 0.0
C1732 C 0.64367 0.14661 0.93177 0.0
C1733 C 0.60277 0.1616 0.96074 0.0
C1734 C 0.68617 0.09014 0.91794 0.0
C1735 C 0.67459 0.09969 0.92223 0.0
C1736 C 0.65089 0.11254 0.96607 0.0
C1737 C 0.62194 0.14496 0.94539 0.0
C1738 C 0.63502 0.13802 0.94835 0.0
C1739 C 0.67132 0.10796 0.94516 0.0
C1740 C 0.65925 0.11998 0.94833 0.0
H1741 H 0.6012 0.15151 0.90036 0.0
H1742 H 0.62185 0.13725 0.90725 0.0
H1743 H 0.63237 0.11462 0.97911 0.0
H1744 H 0.69804 0.09493 0.97438 0.0
H1745 H 0.67746 0.11162 0.98197 0.0
C1746 C 0.10646 0.67479 0.91799 0.0
C1747 C 0.09752 0.67404 0.93612 0.0
C1748 C 0.11837 0.66693 0.92237 0.0
C1749 C 0.13697 0.62698 0.96024 0.0
H1750 H 0.16346 0.66223 0.92993 0.0
C1751 C 0.18883 0.59643 0.9585 0.0
C1752 C 0.19369 0.59639 0.93507 0.0
C1753 C 0.17727 0.6067 0.96308 0.0
C1754 C 0.15618 0.65222 0.93861 0.0
H1755 H 0.09419 0.66436 0.97327 0.0
H1756 H 0.11522 0.65037 0.98097 0.0
H1757 H 0.14295 0.67945 0.93037 0.0
H1758 H 0.19008 0.60702 0.89816 0.0
H1759 H 0.1703 0.62495 0.9062 0.0
H1760 H 0.15033 0.59943 0.9679 0.0
C1761 C 0.11288 0.65714 0.96331 0.0
C1762 C 0.14441 0.66205 0.93882 0.0
C1763 C 0.10087 0.66527 0.95894 0.0
C1764 C 0.18671 0.60669 0.91645 0.0
C1765 C 0.17535 0.61715 0.92105 0.0
C1766 C 0.14883 0.61713 0.96014 0.0
C1767 C 0.12178 0.65798 0.94503 0.0
C1768 C 0.13456 0.64919 0.94881 0.0
C1769 C 0.17051 0.61748 0.94438 0.0
C1770 C 0.15846 0.62932 0.94855 0.0
H1771 H 0.10426 0.6814 0.90018 0.0
H1772 H 0.12488 0.66744 0.90773 0.0
H1773 H 0.12958 0.61659 0.96807 0.0
H1774 H 0.19396 0.58863 0.97324 0.0
H1775 H 0.17373 0.60668 0.98124 0.0
C1776 C 0.43979 0.9216 0.70993 0.0
C1777 C 0.44423 0.9239 0.6863 0.0
C1778 C 0.42839 0.91057 0.71433 0.0
C1779 C 0.40772 0.86583 0.68813 0.0
H1780 H 0.38065 0.89807 0.71972 0.0
C1781 C 0.35839 0.83962 0.66803 0.0
C1782 C 0.3495 0.83946 0.68626 0.0
C1783 C 0.37016 0.84829 0.67238 0.0
C1784 C 0.38817 0.88859 0.71128 0.0
H1785 H 0.44004 0.91653 0.64884 0.0
H1786 H 0.42057 0.89717 0.65658 0.0
H1787 H 0.40106 0.9167 0.71995 0.0
H1788 H 0.34611 0.84835 0.72358 0.0
H1789 H 0.36689 0.86363 0.73127 0.0
H1790 H 0.395 0.838 0.67902 0.0
C1791 C 0.42581 0.90388 0.6717 0.0
C1792 C 0.39985 0.89928 0.71141 0.0
C1793 C 0.43699 0.91514 0.66729 0.0
C1794 C 0.35276 0.84814 0.70916 0.0
C1795 C 0.36463 0.85701 0.71352 0.0
C1796 C 0.39616 0.85511 0.68816 0.0
C1797 C 0.42141 0.90125 0.69521 0.0
C1798 C 0.40962 0.88837 0.6991 0.0
C1799 C 0.37349 0.85711 0.69514 0.0
C1800 C 0.38611 0.86675 0.69893 0.0
H1801 H 0.44513 0.92816 0.72497 0.0
H1802 H 0.42518 0.90878 0.73264 0.0
H1803 H 0.41513 0.85683 0.67881 0.0
H1804 H 0.35627 0.83316 0.65015 0.0
H1805 H 0.37661 0.84852 0.65763 0.0
C1806 C 0.94069 0.41852 0.70698 0.0
C1807 C 0.94517 0.42071 0.68336 0.0
C1808 C 0.92918 0.40792 0.71131 0.0
C1809 C 0.90801 0.36427 0.68469 0.0
H1810 H 0.88141 0.39725 0.71707 0.0
C1811 C 0.85833 0.34081 0.66468 0.0
C1812 C 0.84953 0.34052 0.68309 0.0
C1813 C 0.8702 0.34893 0.66902 0.0
C1814 C 0.8888 0.38757 0.7084 0.0
H1815 H 0.94094 0.41364 0.64587 0.0
H1816 H 0.92127 0.39505 0.65349 0.0
H1817 H 0.90204 0.41494 0.71734 0.0
H1818 H 0.84641 0.34862 0.72068 0.0
H1819 H 0.86736 0.36296 0.72832 0.0
H1820 H 0.89493 0.33719 0.67527 0.0
C1821 C 0.92657 0.40148 0.66865 0.0
C1822 C 0.9006 0.39772 0.70855 0.0
C1823 C 0.93787 0.4123 0.66431 0.0
C1824 C 0.85297 0.34853 0.70612 0.0
C1825 C 0.86494 0.35686 0.71046 0.0
C1826 C 0.89632 0.3541 0.68468 0.0
C1827 C 0.92212 0.39894 0.69214 0.0
C1828 C 0.9102 0.38655 0.69596 0.0
C1829 C 0.87371 0.35704 0.69193 0.0
C1830 C 0.88645 0.36603 0.69573 0.0
H1831 H 0.94608 0.42483 0.72205 0.0
H1832 H 0.92594 0.4062 0.72961 0.0
H1833 H 0.91529 0.35506 0.67516 0.0
H1834 H 0.85606 0.33485 0.6467 0.0
H1835 H 0.87659 0.34925 0.65417 0.0
C1836 C 0.35196 0.41991 0.54668 0.0
C1837 C 0.34712 0.41794 0.57003 0.0
C1838 C 0.36336 0.40944 0.54106 0.0
C1839 C 0.38379 0.36055 0.56039 0.0
H1840 H 0.41125 0.39903 0.53854 0.0
C1841 C 0.4328 0.33551 0.58415 0.0
C1842 C 0.44237 0.3389 0.56765 0.0
C1843 C 0.42097 0.34338 0.57897 0.0
C1844 C 0.40363 0.38788 0.54414 0.0
H1845 H 0.35046 0.40317 0.60561 0.0
H1846 H 0.36992 0.38482 0.59572 0.0
H1847 H 0.3906 0.4166 0.53896 0.0
H1848 H 0.44693 0.35305 0.53247 0.0
H1849 H 0.42605 0.36709 0.52339 0.0
H1850 H 0.39668 0.33211 0.56631 0.0
C1851 C 0.36502 0.39449 0.58177 0.0
C1852 C 0.39182 0.39795 0.54438 0.0
C1853 C 0.35386 0.40519 0.58745 0.0
C1854 C 0.43974 0.35008 0.54552 0.0
C1855 C 0.42782 0.35824 0.54039 0.0
C1856 C 0.3955 0.35049 0.56002 0.0
C1857 C 0.36991 0.39639 0.55857 0.0
C1858 C 0.38187 0.38464 0.55339 0.0
C1859 C 0.4183 0.35499 0.55714 0.0
C1860 C 0.40566 0.36431 0.55284 0.0
H1861 H 0.347 0.42963 0.53287 0.0
H1862 H 0.36695 0.4112 0.52303 0.0
H1863 H 0.37626 0.34975 0.56711 0.0
H1864 H 0.43446 0.32697 0.60136 0.0
H1865 H 0.41396 0.34092 0.59249 0.0
C1866 C 0.85257 0.91741 0.54985 0.0
C1867 C 0.84764 0.91725 0.57321 0.0
C1868 C 0.86391 0.90631 0.54516 0.0
C1869 C 0.88405 0.85854 0.56816 0.0
H1870 H 0.91145 0.89408 0.54159 0.0
C1871 C 0.93329 0.83165 0.58887 0.0
C1872 C 0.94252 0.83406 0.57148 0.0
C1873 C 0.92145 0.83999 0.58446 0.0
C1874 C 0.90384 0.8837 0.54857 0.0
H1875 H 0.85075 0.90509 0.60981 0.0
H1876 H 0.87017 0.8856 0.60152 0.0
H1877 H 0.89098 0.9124 0.54188 0.0
H1878 H 0.94646 0.84695 0.53554 0.0
H1879 H 0.92559 0.8616 0.52774 0.0
H1880 H 0.89675 0.83006 0.57531 0.0
C1881 C 0.86536 0.89433 0.58686 0.0
C1882 C 0.89213 0.89422 0.54875 0.0
C1883 C 0.85424 0.90568 0.59161 0.0
C1884 C 0.93954 0.84474 0.54928 0.0
C1885 C 0.92761 0.85327 0.54488 0.0
C1886 C 0.89566 0.84799 0.5678 0.0
C1887 C 0.87033 0.89442 0.56363 0.0
C1888 C 0.88222 0.88204 0.55932 0.0
C1889 C 0.91843 0.85102 0.5625 0.0
C1890 C 0.90581 0.86076 0.55885 0.0
H1891 H 0.84771 0.9262 0.5353 0.0
H1892 H 0.86755 0.90665 0.52708 0.0
H1893 H 0.87653 0.84856 0.57606 0.0
H1894 H 0.93521 0.82356 0.60618 0.0
H1895 H 0.91473 0.83833 0.59865 0.0
C1896 C 0.60639 0.09011 0.33522 0.0
C1897 C 0.59706 0.09143 0.3179 0.0
C1898 C 0.61826 0.09757 0.32989 0.0
C1899 C 0.63623 0.13822 0.29237 0.0
H1900 H 0.66307 0.10061 0.31855 0.0
C1901 C 0.68822 0.16862 0.29555 0.0
C1902 C 0.69282 0.16749 0.31917 0.0
C1903 C 0.67676 0.1584 0.28992 0.0
C1904 C 0.65569 0.11124 0.31092 0.0
H1905 H 0.59292 0.10169 0.28121 0.0
H1906 H 0.61389 0.11522 0.27189 0.0
H1907 H 0.64248 0.08374 0.31825 0.0
H1908 H 0.6889 0.1546 0.35525 0.0
H1909 H 0.66935 0.13677 0.34537 0.0
H1910 H 0.64955 0.16614 0.28596 0.0
C1911 C 0.6119 0.10819 0.28962 0.0
C1912 C 0.64389 0.10161 0.3108 0.0
C1913 C 0.59994 0.10034 0.2949 0.0
C1914 C 0.68573 0.15593 0.33686 0.0
C1915 C 0.6745 0.14551 0.33119 0.0
C1916 C 0.64813 0.14789 0.29243 0.0
C1917 C 0.6212 0.10679 0.3071 0.0
C1918 C 0.63393 0.11533 0.30246 0.0
C1919 C 0.66988 0.14646 0.30771 0.0
C1920 C 0.65788 0.13482 0.3026 0.0
H1921 H 0.60455 0.08332 0.3531 0.0
H1922 H 0.62512 0.09659 0.34391 0.0
H1923 H 0.62874 0.14924 0.28585 0.0
H1924 H 0.69345 0.17741 0.28152 0.0
H1925 H 0.67338 0.15942 0.27166 0.0
C1926 C 0.18469 0.67425 0.34225 0.0
C1927 C 0.19347 0.67498 0.32382 0.0
C1928 C 0.17288 0.6658 0.33788 0.0
C1929 C 0.15458 0.62681 0.29834 0.0
H1930 H 0.12786 0.65811 0.33196 0.0
C1931 C 0.10301 0.59378 0.30019 0.0
C1932 C 0.09864 0.59127 0.32385 0.0
C1933 C 0.11438 0.60488 0.29574 0.0
C1934 C 0.1352 0.64924 0.32232 0.0
H1935 H 0.19662 0.66732 0.28615 0.0
H1936 H 0.17578 0.65238 0.27845 0.0
H1937 H 0.14803 0.67675 0.3318 0.0
H1938 H 0.10294 0.59833 0.36132 0.0
H1939 H 0.12238 0.61777 0.35352 0.0
H1940 H 0.14159 0.59898 0.28936 0.0
C1941 C 0.17816 0.65841 0.29636 0.0
C1942 C 0.14678 0.65985 0.3223 0.0
C1943 C 0.19006 0.66709 0.30073 0.0
C1944 C 0.10592 0.5999 0.34284 0.0
C1945 C 0.11709 0.6112 0.3384 0.0
C1946 C 0.14288 0.61621 0.29822 0.0
C1947 C 0.16941 0.65777 0.31493 0.0
C1948 C 0.15675 0.64836 0.31111 0.0
C1949 C 0.12142 0.61404 0.31486 0.0
C1950 C 0.1332 0.62694 0.31096 0.0
H1951 H 0.18693 0.68011 0.36028 0.0
H1952 H 0.16651 0.66514 0.35276 0.0
H1953 H 0.16204 0.61745 0.28956 0.0
H1954 H 0.09763 0.58732 0.28516 0.0
H1955 H 0.11753 0.60682 0.27741 0.0
C1956 C 0.68245 0.59198 0.41899 0.0
C1957 C 0.69137 0.59177 0.43719 0.0
C1958 C 0.67056 0.59968 0.42365 0.0
C1959 C 0.65222 0.63839 0.46302 0.0
H1960 H 0.62563 0.6067 0.42926 0.0
C1961 C 0.60056 0.67105 0.45929 0.0
C1962 C 0.59653 0.67387 0.43541 0.0
C1963 C 0.61188 0.65996 0.46425 0.0
C1964 C 0.63294 0.61565 0.43897 0.0
H1965 H 0.69468 0.59932 0.47482 0.0
H1966 H 0.67363 0.61304 0.48307 0.0
H1967 H 0.6458 0.58797 0.43016 0.0
H1968 H 0.60135 0.66735 0.39812 0.0
H1969 H 0.62072 0.6478 0.40682 0.0
H1970 H 0.6392 0.66639 0.47128 0.0
C1971 C 0.67599 0.60716 0.46511 0.0
C1972 C 0.64451 0.60498 0.43942 0.0
C1973 C 0.688 0.59917 0.46044 0.0
C1974 C 0.6041 0.66556 0.41673 0.0
C1975 C 0.61521 0.6542 0.42168 0.0
C1976 C 0.64053 0.64902 0.46273 0.0
C1977 C 0.66713 0.60749 0.44669 0.0
C1978 C 0.65443 0.61666 0.45058 0.0
C1979 C 0.6192 0.65108 0.44544 0.0
C1980 C 0.63091 0.63814 0.44991 0.0
H1981 H 0.68468 0.58639 0.40087 0.0
H1982 H 0.66409 0.6001 0.40889 0.0
H1983 H 0.65966 0.64789 0.47173 0.0
H1984 H 0.59496 0.67727 0.47409 0.0
H1985 H 0.61478 0.65779 0.48274 0.0
C1986 C 0.1846 0.08638 0.42461 0.0
C1987 C 0.19415 0.08957 0.44122 0.0
C1988 C 0.17272 0.0937 0.42998 0.0
C1989 C 0.15508 0.13691 0.46545 0.0
H1990 H 0.12801 0.09845 0.44163 0.0
C1991 C 0.1032 0.1678 0.46186 0.0
C1992 C 0.09858 0.16608 0.4383 0.0
C1993 C 0.11461 0.15751 0.46775 0.0
C1994 C 0.13545 0.10932 0.44861 0.0
H1995 H 0.19863 0.10277 0.47678 0.0
H1996 H 0.17763 0.11596 0.4862 0.0
H1997 H 0.14853 0.08124 0.4426 0.0
H1998 H 0.10233 0.15195 0.40264 0.0
H1999 H 0.12181 0.1339 0.41301 0.0
H2000 H 0.14187 0.1653 0.47063 0.0
C2001 C 0.17946 0.10763 0.46898 0.0
C2002 C 0.14722 0.09951 0.44909 0.0
C2003 C 0.19145 0.09996 0.46367 0.0
C2004 C 0.10555 0.15377 0.42095 0.0
C2005 C 0.11673 0.14324 0.4269 0.0
C2006 C 0.14321 0.14673 0.46509 0.0
C2007 C 0.16997 0.1046 0.45211 0.0
C2008 C 0.15727 0.11349 0.45654 0.0
C2009 C 0.1214 0.14488 0.45031 0.0
C2010 C 0.13337 0.13331 0.45575 0.0
H2011 H 0.18633 0.07841 0.40717 0.0
H2012 H 0.16572 0.09143 0.41639 0.0
H2013 H 0.16262 0.14818 0.47125 0.0
H2014 H 0.09806 0.17718 0.47561 0.0
H2015 H 0.11804 0.15906 0.48594 0.0
C2016 C 0.32269 0.04777 0.09227 0.0
C2017 C 0.31773 0.03272 0.11015 0.0
C2018 C 0.32408 0.07261 0.09633 0.0
C2019 C 0.32569 0.1177 0.14559 0.0
H2020 H 0.31706 0.16366 0.09582 0.0
C2021 C 0.31778 0.21911 0.16472 0.0
C2022 C 0.32167 0.23599 0.14745 0.0
C2023 C 0.31853 0.19431 0.16013 0.0
C2024 C 0.31969 0.15107 0.10981 0.0
H2025 H 0.30996 0.0323 0.14601 0.0
H2026 H 0.31235 0.07529 0.15301 0.0
H2027 H 0.31597 0.12046 0.08745 0.0
H2028 H 0.32995 0.23988 0.11229 0.0
H2029 H 0.33126 0.19664 0.1043 0.0
H2030 H 0.32925 0.14829 0.16806 0.0
C2031 C 0.31546 0.06789 0.13607 0.0
C2032 C 0.31906 0.1263 0.105 0.0
C2033 C 0.31408 0.04317 0.13203 0.0
C2034 C 0.32668 0.22741 0.12581 0.0
C2035 C 0.32742 0.20262 0.12121 0.0
C2036 C 0.32631 0.14246 0.1504 0.0
C2037 C 0.32053 0.08293 0.11835 0.0
C2038 C 0.32191 0.1093 0.12292 0.0
C2039 C 0.32318 0.18577 0.13817 0.0
C2040 C 0.32319 0.15945 0.13266 0.0
H2041 H 0.3257 0.04031 0.07532 0.0
H2042 H 0.32811 0.08366 0.08237 0.0
H2043 H 0.32818 0.10511 0.15967 0.0
H2044 H 0.31371 0.22502 0.18142 0.0
H2045 H 0.31504 0.18185 0.17348 0.0
C2046 C 0.96501 0.03869 0.12371 0.0
C2047 C 0.97004 0.02977 0.14523 0.0
C2048 C 0.96457 0.06354 0.11916 0.0
C2049 C 0.96646 0.12345 0.1488 0.0
H2050 H 0.9759 0.14593 0.08548 0.0
C2051 C 0.97839 0.22302 0.13066 0.0
C2052 C 0.97437 0.2337 0.10912 0.0
C2053 C 0.97716 0.19821 0.1345 0.0
C2054 C 0.97307 0.13997 0.10315 0.0
H2055 H 0.97846 0.04031 0.17894 0.0
H2056 H 0.97764 0.08351 0.17108 0.0
H2057 H 0.97477 0.10265 0.09355 0.0
H2058 H 0.96593 0.22636 0.07463 0.0
H2059 H 0.96379 0.1829 0.08134 0.0
H2060 H 0.96487 0.16072 0.15849 0.0
C2061 C 0.9739 0.07128 0.1578 0.0
C2062 C 0.97242 0.11514 0.10779 0.0
C2063 C 0.97435 0.04643 0.16234 0.0
C2064 C 0.96922 0.21876 0.09134 0.0
C2065 C 0.96799 0.19384 0.0952 0.0
C2066 C 0.9671 0.14825 0.14416 0.0
C2067 C 0.96913 0.08015 0.13603 0.0
C2068 C 0.96923 0.10656 0.13075 0.0
C2069 C 0.97188 0.18329 0.11692 0.0
C2070 C 0.97056 0.15685 0.12136 0.0
H2071 H 0.96143 0.02645 0.11029 0.0
H2072 H 0.96064 0.06975 0.10239 0.0
H2073 H 0.96375 0.1175 0.16655 0.0
H2074 H 0.98267 0.23376 0.14454 0.0
H2075 H 0.98053 0.19066 0.1512 0.0
C2076 C 0.73069 0.97365 0.87498 0.0
C2077 C 0.72634 0.98388 0.89647 0.0
C2078 C 0.73004 0.94878 0.87108 0.0
C2079 C 0.71394 0.8935 0.8902 0.0
H2080 H 0.74156 0.86134 0.86036 0.0
C2081 C 0.71742 0.78933 0.88147 0.0
C2082 C 0.72275 0.77978 0.86052 0.0
C2083 C 0.71735 0.81423 0.88569 0.0
C2084 C 0.73369 0.87006 0.86839 0.0
H2085 H 0.71785 0.9758 0.93069 0.0
H2086 H 0.71681 0.93213 0.92396 0.0
H2087 H 0.74262 0.90445 0.86876 0.0
H2088 H 0.73196 0.78926 0.82731 0.0
H2089 H 0.73156 0.83267 0.83438 0.0
H2090 H 0.70499 0.85906 0.88975 0.0
C2091 C 0.72065 0.94353 0.91006 0.0
C2092 C 0.73432 0.8948 0.87328 0.0
C2093 C 0.72135 0.96851 0.91402 0.0
C2094 C 0.72769 0.79589 0.84355 0.0
C2095 C 0.72761 0.82081 0.84777 0.0
C2096 C 0.7133 0.86872 0.88526 0.0
C2097 C 0.72503 0.93337 0.88854 0.0
C2098 C 0.72444 0.90686 0.88414 0.0
C2099 C 0.72259 0.83029 0.86905 0.0
C2100 C 0.72316 0.8567 0.8742 0.0
H2101 H 0.73475 0.98483 0.86118 0.0
H2102 H 0.73338 0.94163 0.8542 0.0
H2103 H 0.70611 0.90229 0.89831 0.0
H2104 H 0.71339 0.77752 0.89478 0.0
H2105 H 0.71347 0.82083 0.90234 0.0
C2106 C 0.06258 0.96563 0.83999 0.0
C2107 C 0.06675 0.98216 0.85732 0.0
C2108 C 0.06352 0.9407 0.844 0.0
C2109 C 0.0665 0.89652 0.89367 0.0
H2110 H 0.0741 0.85141 0.8426 0.0
C2111 C 0.07252 0.79395 0.91124 0.0
C2112 C 0.06711 0.77824 0.89446 0.0
C2113 C 0.0733 0.81879 0.90659 0.0
C2114 C 0.07187 0.86376 0.85703 0.0
H2115 H 0.07584 0.98537 0.8918 0.0
H2116 H 0.07756 0.9421 0.89871 0.0
H2117 H 0.074 0.8947 0.83428 0.0
H2118 H 0.0581 0.77672 0.85971 0.0
H2119 H 0.05951 0.81968 0.85166 0.0
H2120 H 0.06426 0.86561 0.91637 0.0
C2121 C 0.07325 0.94832 0.8823 0.0
C2122 C 0.0718 0.88859 0.85224 0.0
C2123 C 0.07228 0.97316 0.87832 0.0
C2124 C 0.06256 0.78805 0.87288 0.0
C2125 C 0.06336 0.8128 0.86823 0.0
C2126 C 0.06657 0.87171 0.89846 0.0
C2127 C 0.06871 0.93174 0.8654 0.0
C2128 C 0.06906 0.90529 0.87048 0.0
C2129 C 0.0687 0.82852 0.88502 0.0
C2130 C 0.06918 0.85499 0.88017 0.0
H2131 H 0.05818 0.97195 0.82372 0.0
H2132 H 0.05983 0.92846 0.83067 0.0
H2133 H 0.06415 0.90882 0.90807 0.0
H2134 H 0.07624 0.78707 0.9279 0.0
H2135 H 0.0776 0.83036 0.91981 0.0
C2136 C 0.32566 0.72411 0.62641 0.0
C2137 C 0.32122 0.73329 0.64829 0.0
C2138 C 0.32607 0.6992 0.62222 0.0
C2139 C 0.31156 0.6425 0.64234 0.0
H2140 H 0.33806 0.61176 0.60756 0.0
C2141 C 0.31517 0.53913 0.63424 0.0
C2142 C 0.31866 0.52927 0.61199 0.0
C2143 C 0.31585 0.56397 0.63835 0.0
C2144 C 0.33053 0.62013 0.61706 0.0
H2145 H 0.31398 0.72323 0.68316 0.0
H2146 H 0.31494 0.67986 0.67608 0.0
H2147 H 0.33899 0.65505 0.61602 0.0
H2148 H 0.32574 0.53801 0.57668 0.0
H2149 H 0.32677 0.58158 0.58377 0.0
H2150 H 0.30308 0.6077 0.64337 0.0
C2151 C 0.31795 0.69197 0.66199 0.0
C2152 C 0.33107 0.64493 0.62195 0.0
C2153 C 0.31756 0.71688 0.66618 0.0
C2154 C 0.32289 0.54498 0.59394 0.0
C2155 C 0.3236 0.56993 0.5981 0.0
C2156 C 0.31103 0.61776 0.63748 0.0
C2157 C 0.32202 0.68283 0.63981 0.0
C2158 C 0.3216 0.6564 0.63474 0.0
C2159 C 0.32003 0.57972 0.62034 0.0
C2160 C 0.32053 0.60622 0.62487 0.0
H2161 H 0.32868 0.73621 0.61234 0.0
H2162 H 0.32919 0.69283 0.60489 0.0
H2163 H 0.30398 0.6508 0.65176 0.0
H2164 H 0.31171 0.52772 0.64847 0.0
H2165 H 0.31316 0.57083 0.65579 0.0
C2166 C 0.9777 0.54474 0.66248 0.0
C2167 C 0.9737 0.52799 0.64519 0.0
C2168 C 0.97686 0.56959 0.65811 0.0
C2169 C 0.97469 0.61356 0.60823 0.0
H2170 H 0.9667 0.65856 0.65919 0.0
C2171 C 0.97001 0.71698 0.5922 0.0
C2172 C 0.97526 0.73203 0.60976 0.0
C2173 C 0.96902 0.69202 0.59607 0.0
C2174 C 0.96904 0.64625 0.64479 0.0
H2175 H 0.96521 0.52435 0.61018 0.0
H2176 H 0.96369 0.56764 0.60262 0.0
H2177 H 0.9662 0.61526 0.66713 0.0
H2178 H 0.98395 0.73228 0.64484 0.0
H2179 H 0.98218 0.68913 0.65153 0.0
H2180 H 0.97762 0.64461 0.58596 0.0
C2181 C 0.96771 0.56156 0.61935 0.0
C2182 C 0.96876 0.62141 0.64936 0.0
C2183 C 0.96856 0.53673 0.6237 0.0
C2184 C 0.97959 0.72144 0.63113 0.0
C2185 C 0.97858 0.69661 0.63499 0.0
C2186 C 0.97495 0.63843 0.60366 0.0
C2187 C 0.97199 0.57832 0.63637 0.0
C2188 C 0.9717 0.60474 0.63121 0.0
C2189 C 0.97324 0.68157 0.61759 0.0
C2190 C 0.97227 0.65508 0.62196 0.0
H2191 H 0.98187 0.53868 0.67905 0.0
H2192 H 0.9804 0.58194 0.6715 0.0
H2193 H 0.97717 0.60127 0.59391 0.0
H2194 H 0.96649 0.7245 0.57564 0.0
H2195 H 0.96478 0.68096 0.58236 0.0
C2196 C 0.72403 0.4735 0.37496 0.0
C2197 C 0.72307 0.48295 0.39837 0.0
C2198 C 0.72384 0.44862 0.37088 0.0
C2199 C 0.71518 0.3902 0.39906 0.0
H2200 H 0.73535 0.36363 0.3482 0.0
C2201 C 0.72292 0.28762 0.38594 0.0
C2202 C 0.72231 0.27841 0.36234 0.0
C2203 C 0.72268 0.31248 0.39027 0.0
C2204 C 0.72957 0.37081 0.3623 0.0
H2205 H 0.72116 0.47298 0.43591 0.0
H2206 H 0.72127 0.42958 0.42885 0.0
H2207 H 0.73601 0.40681 0.35656 0.0
H2208 H 0.72077 0.28895 0.32483 0.0
H2209 H 0.72063 0.33224 0.33249 0.0
H2210 H 0.70898 0.35395 0.40506 0.0
C2211 C 0.72192 0.44159 0.41355 0.0
C2212 C 0.72992 0.3956 0.3671 0.0
C2213 C 0.72201 0.46659 0.41764 0.0
C2214 C 0.72143 0.29503 0.34323 0.0
C2215 C 0.72133 0.31997 0.34759 0.0
C2216 C 0.71493 0.36535 0.3944 0.0
C2217 C 0.72283 0.43227 0.39008 0.0
C2218 C 0.72269 0.40569 0.38547 0.0
C2219 C 0.72196 0.32895 0.37117 0.0
C2220 C 0.72209 0.35539 0.37591 0.0
H2221 H 0.72503 0.48521 0.35955 0.0
H2222 H 0.72436 0.44225 0.35253 0.0
H2223 H 0.70933 0.39729 0.41307 0.0
H2224 H 0.72379 0.27579 0.40127 0.0
H2225 H 0.72335 0.31883 0.40862 0.0
C2226 C 0.07313 0.29273 0.41413 0.0
C2227 C 0.06894 0.27695 0.39611 0.0
C2228 C 0.07355 0.31772 0.41006 0.0
C2229 C 0.06024 0.36543 0.37149 0.0
H2230 H 0.08838 0.40308 0.39136 0.0
C2231 C 0.06584 0.46509 0.34314 0.0
C2232 C 0.07004 0.48135 0.3607 0.0
C2233 C 0.06625 0.44013 0.34717 0.0
C2234 C 0.08039 0.39289 0.38591 0.0
H2235 H 0.06169 0.27529 0.35986 0.0
H2236 H 0.06258 0.31855 0.35272 0.0
H2237 H 0.08777 0.35978 0.39975 0.0
H2238 H 0.07848 0.48388 0.39589 0.0
H2239 H 0.07896 0.44053 0.40311 0.0
H2240 H 0.05279 0.39843 0.35782 0.0
C2241 C 0.0655 0.31169 0.37003 0.0
C2242 C 0.08004 0.36806 0.39074 0.0
C2243 C 0.06513 0.28679 0.37403 0.0
C2244 C 0.075 0.47195 0.38209 0.0
C2245 C 0.07541 0.44702 0.38613 0.0
C2246 C 0.06056 0.39022 0.36672 0.0
C2247 C 0.0697 0.32749 0.38797 0.0
C2248 C 0.06998 0.35402 0.38349 0.0
C2249 C 0.07089 0.43078 0.36887 0.0
C2250 C 0.07066 0.40429 0.37378 0.0
H2251 H 0.0762 0.28575 0.43126 0.0
H2252 H 0.07675 0.32942 0.42432 0.0
H2253 H 0.05225 0.35523 0.36601 0.0
H2254 H 0.06187 0.47159 0.32654 0.0
H2255 H 0.06287 0.42816 0.33331 0.0
C2256 C 0.8153 0.04666 0.59432 0.0
C2257 C 0.82111 0.03005 0.60961 0.0
C2258 C 0.8161 0.0715 0.5987 0.0
C2259 C 0.82355 0.11531 0.64744 0.0
H2260 H 0.82285 0.1612 0.5949 0.0
C2261 C 0.81565 0.21745 0.66318 0.0
C2262 C 0.82114 0.23402 0.64742 0.0
C2263 C 0.81649 0.19258 0.65892 0.0
C2264 C 0.82324 0.14872 0.60985 0.0
H2265 H 0.83273 0.02641 0.64088 0.0
H2266 H 0.83455 0.06972 0.64813 0.0
H2267 H 0.82332 0.11824 0.58629 0.0
H2268 H 0.83226 0.23759 0.61549 0.0
H2269 H 0.83415 0.19427 0.60845 0.0
H2270 H 0.82395 0.1458 0.67099 0.0
C2271 C 0.829 0.06366 0.63319 0.0
C2272 C 0.8233 0.12394 0.60488 0.0
C2273 C 0.82804 0.03882 0.62898 0.0
C2274 C 0.82781 0.22521 0.62775 0.0
C2275 C 0.82881 0.20035 0.62366 0.0
C2276 C 0.82365 0.14009 0.65241 0.0
C2277 C 0.8229 0.08038 0.61832 0.0
C2278 C 0.82334 0.10685 0.6236 0.0
C2279 C 0.82299 0.18366 0.63895 0.0
C2280 C 0.82339 0.15718 0.63369 0.0
H2281 H 0.80974 0.04041 0.57947 0.0
H2282 H 0.81109 0.08365 0.58707 0.0
H2283 H 0.82342 0.10281 0.6624 0.0
H2284 H 0.81031 0.22374 0.6783 0.0
H2285 H 0.8117 0.18044 0.67091 0.0
C2286 C 0.47818 0.04901 0.66583 0.0
C2287 C 0.4737 0.03248 0.64879 0.0
C2288 C 0.4778 0.07387 0.66132 0.0
C2289 C 0.46329 0.12057 0.6226 0.0
H2290 H 0.49211 0.1578 0.63928 0.0
C2291 C 0.47041 0.22012 0.59217 0.0
C2292 C 0.47513 0.23601 0.60956 0.0
C2293 C 0.46998 0.19518 0.59658 0.0
C2294 C 0.48394 0.14773 0.6347 0.0
H2295 H 0.46478 0.02933 0.61412 0.0
H2296 H 0.46431 0.07255 0.60608 0.0
H2297 H 0.49143 0.11483 0.64851 0.0
H2298 H 0.48337 0.23793 0.64499 0.0
H2299 H 0.48244 0.19483 0.65274 0.0
H2300 H 0.45584 0.15358 0.60868 0.0
C2301 C 0.46808 0.06634 0.62299 0.0
C2302 C 0.48353 0.12308 0.64007 0.0
C2303 C 0.46848 0.0415 0.62749 0.0
C2304 C 0.4795 0.22634 0.63131 0.0
C2305 C 0.47912 0.20153 0.63566 0.0
C2306 C 0.46371 0.14527 0.6172 0.0
C2307 C 0.4729 0.08284 0.63968 0.0
C2308 C 0.47319 0.10918 0.63418 0.0
C2309 C 0.47436 0.18561 0.61838 0.0
C2310 C 0.47401 0.15917 0.6233 0.0
H2311 H 0.48234 0.04275 0.68234 0.0
H2312 H 0.48142 0.08609 0.67474 0.0
H2313 H 0.45513 0.11047 0.61802 0.0
H2314 H 0.4669 0.22697 0.57531 0.0
H2315 H 0.46634 0.18338 0.58281 0.0
C2316 C 0.21694 0.7903 0.38452 0.0
C2317 C 0.2215 0.7815 0.36257 0.0
C2318 C 0.21628 0.81515 0.38895 0.0
C2319 C 0.21656 0.87504 0.35901 0.0
H2320 H 0.22753 0.89802 0.4212 0.0
C2321 C 0.22741 0.97539 0.37618 0.0
C2322 C 0.22406 0.98564 0.39835 0.0
C2323 C 0.22637 0.95055 0.37227 0.0
C2324 C 0.22427 0.89192 0.40386 0.0
H2325 H 0.22879 0.79222 0.32794 0.0
H2326 H 0.22758 0.83546 0.33559 0.0
H2327 H 0.22678 0.85472 0.41323 0.0
H2328 H 0.21697 0.97756 0.43379 0.0
H2329 H 0.21514 0.93408 0.42696 0.0
H2330 H 0.21412 0.91221 0.34956 0.0
C2331 C 0.22439 0.82312 0.34932 0.0
C2332 C 0.22384 0.86706 0.39928 0.0
C2333 C 0.22506 0.79826 0.3449 0.0
C2334 C 0.21974 0.97029 0.4166 0.0
C2335 C 0.21869 0.94535 0.41266 0.0
C2336 C 0.21697 0.89988 0.36359 0.0
C2337 C 0.22014 0.83188 0.37152 0.0
C2338 C 0.22008 0.85831 0.37672 0.0
C2339 C 0.22196 0.93518 0.39039 0.0
C2340 C 0.22095 0.90867 0.386 0.0
H2341 H 0.21393 0.77797 0.39838 0.0
H2342 H 0.21275 0.82126 0.40607 0.0
H2343 H 0.21343 0.86894 0.34158 0.0
H2344 H 0.23103 0.9865 0.36188 0.0
H2345 H 0.22925 0.94335 0.35509 0.0
C2346 C 0.57302 0.96937 0.34479 0.0
C2347 C 0.56854 0.98536 0.36235 0.0
C2348 C 0.57352 0.94445 0.34924 0.0
C2349 C 0.55972 0.89741 0.38789 0.0
H2350 H 0.58738 0.85851 0.36774 0.0
C2351 C 0.56414 0.79739 0.41553 0.0
C2352 C 0.56788 0.78105 0.39765 0.0
C2353 C 0.56496 0.82233 0.41174 0.0
C2354 C 0.57954 0.86908 0.3733 0.0
H2355 H 0.56105 0.98739 0.39841 0.0
H2356 H 0.56217 0.94434 0.40625 0.0
H2357 H 0.5873 0.90191 0.35966 0.0
H2358 H 0.5759 0.77827 0.36215 0.0
H2359 H 0.57713 0.82168 0.35538 0.0
H2360 H 0.5519 0.8647 0.40137 0.0
C2361 C 0.56518 0.95097 0.38894 0.0
C2362 C 0.57949 0.89396 0.36864 0.0
C2363 C 0.5647 0.97579 0.38453 0.0
C2364 C 0.57279 0.7903 0.37618 0.0
C2365 C 0.57362 0.81524 0.3724 0.0
C2366 C 0.55977 0.8726 0.39253 0.0
C2367 C 0.56951 0.93495 0.37132 0.0
C2368 C 0.56959 0.90843 0.37594 0.0
C2369 C 0.56955 0.83158 0.38999 0.0
C2370 C 0.56968 0.8581 0.38534 0.0
H2371 H 0.57616 0.97607 0.32761 0.0
H2372 H 0.57683 0.9326 0.33521 0.0
H2373 H 0.55184 0.90792 0.39337 0.0
H2374 H 0.56022 0.79099 0.43219 0.0
H2375 H 0.5619 0.8344 0.42582 0.0
C2376 C 0.81649 0.54435 0.09301 0.0
C2377 C 0.81984 0.52754 0.11078 0.0
C2378 C 0.81761 0.56918 0.09718 0.0
C2379 C 0.81945 0.61339 0.14697 0.0
H2380 H 0.82826 0.65787 0.09604 0.0
C2381 C 0.82416 0.71664 0.16275 0.0
C2382 C 0.81876 0.73163 0.14528 0.0
C2383 C 0.82541 0.69176 0.15878 0.0
C2384 C 0.82572 0.64569 0.11043 0.0
H2385 H 0.82752 0.52372 0.14648 0.0
H2386 H 0.8296 0.56698 0.15369 0.0
H2387 H 0.82862 0.61448 0.08846 0.0
H2388 H 0.81031 0.73173 0.10993 0.0
H2389 H 0.81261 0.68874 0.10303 0.0
H2390 H 0.81647 0.64466 0.16887 0.0
C2391 C 0.82584 0.561 0.13671 0.0
C2392 C 0.8259 0.6208 0.10607 0.0
C2393 C 0.82468 0.53618 0.13256 0.0
C2394 C 0.81475 0.72104 0.12367 0.0
C2395 C 0.81605 0.69626 0.11967 0.0
C2396 C 0.8193 0.63829 0.15135 0.0
C2397 C 0.82216 0.57785 0.11921 0.0
C2398 C 0.82264 0.60432 0.1242 0.0
C2399 C 0.82135 0.68128 0.13719 0.0
C2400 C 0.82229 0.65476 0.13304 0.0
H2401 H 0.81257 0.53837 0.07618 0.0
H2402 H 0.81451 0.58158 0.08341 0.0
H2403 H 0.8167 0.6013 0.16127 0.0
H2404 H 0.82751 0.72409 0.17947 0.0
H2405 H 0.82965 0.68074 0.17255 0.0
C2406 C 0.47683 0.53938 0.12323 0.0
C2407 C 0.47313 0.52881 0.14503 0.0
C2408 C 0.4757 0.56423 0.11949 0.0
C2409 C 0.47242 0.62246 0.15145 0.0
H2410 H 0.46276 0.64571 0.08849 0.0
C2411 C 0.46434 0.72393 0.13209 0.0
C2412 C 0.46941 0.7331 0.11072 0.0
C2413 C 0.46388 0.69903 0.13633 0.0
C2414 C 0.46556 0.63953 0.10612 0.0
H2415 H 0.46532 0.53627 0.18001 0.0
H2416 H 0.46329 0.57978 0.17346 0.0
H2417 H 0.46367 0.60239 0.09616 0.0
H2418 H 0.47787 0.72297 0.07694 0.0
H2419 H 0.47697 0.67964 0.08423 0.0
H2420 H 0.47435 0.65966 0.16133 0.0
C2421 C 0.4672 0.56878 0.15934 0.0
C2422 C 0.46609 0.61467 0.11053 0.0
C2423 C 0.46836 0.54383 0.1631 0.0
C2424 C 0.47372 0.71665 0.09342 0.0
C2425 C 0.47323 0.69174 0.09764 0.0
C2426 C 0.47185 0.64735 0.14704 0.0
C2427 C 0.47082 0.57928 0.13742 0.0
C2428 C 0.46966 0.60579 0.13318 0.0
C2429 C 0.46844 0.68263 0.11927 0.0
C2430 C 0.46852 0.65618 0.12425 0.0
H2431 H 0.4808 0.52851 0.1091 0.0
H2432 H 0.47885 0.5717 0.10262 0.0
H2433 H 0.47536 0.61631 0.16899 0.0
H2434 H 0.46075 0.73601 0.14564 0.0
H2435 H 0.45994 0.69262 0.15299 0.0
C2436 C 0.22981 0.28771 0.8748 0.0
C2437 C 0.2205 0.28156 0.8585 0.0
C2438 C 0.23179 0.31198 0.88114 0.0
C2439 C 0.22695 0.37375 0.85872 0.0
H2440 H 0.22709 0.39406 0.92536 0.0
C2441 C 0.21865 0.47261 0.88368 0.0
C2442 C 0.22542 0.48301 0.90246 0.0
C2443 C 0.21906 0.44777 0.87949 0.0
C2444 C 0.22726 0.38869 0.90667 0.0
H2445 H 0.20629 0.29597 0.83538 0.0
H2446 H 0.20978 0.33797 0.84615 0.0
H2447 H 0.22664 0.3509 0.91554 0.0
H2448 H 0.23777 0.47525 0.93195 0.0
H2449 H 0.23859 0.43168 0.92452 0.0
H2450 H 0.22755 0.41122 0.84963 0.0
C2451 C 0.21548 0.32419 0.85428 0.0
C2452 C 0.22701 0.36397 0.90107 0.0
C2453 C 0.2134 0.30009 0.84829 0.0
C2454 C 0.23238 0.46778 0.91743 0.0
C2455 C 0.23285 0.44281 0.91314 0.0
C2456 C 0.2273 0.39834 0.86427 0.0
C2457 C 0.22466 0.33045 0.8708 0.0
C2458 C 0.22654 0.35631 0.87702 0.0
C2459 C 0.22634 0.43255 0.89385 0.0
C2460 C 0.22712 0.4062 0.8883 0.0
H2461 H 0.2354 0.27373 0.88286 0.0
H2462 H 0.23895 0.31633 0.89386 0.0
H2463 H 0.22681 0.36837 0.84002 0.0
H2464 H 0.213 0.48375 0.87214 0.0
H2465 H 0.21363 0.44049 0.86492 0.0
C2466 C 0.56099 0.28862 0.88396 0.0
C2467 C 0.57019 0.28262 0.90056 0.0
C2468 C 0.55886 0.31288 0.87778 0.0
C2469 C 0.56309 0.37468 0.90068 0.0
H2470 H 0.56357 0.39518 0.83409 0.0
C2471 C 0.5715 0.4736 0.87599 0.0
C2472 C 0.56486 0.48396 0.85698 0.0
C2473 C 0.57106 0.44876 0.88023 0.0
C2474 C 0.56322 0.38975 0.85276 0.0
H2475 H 0.58401 0.29722 0.92442 0.0
H2476 H 0.58026 0.33922 0.91391 0.0
H2477 H 0.56407 0.35201 0.84383 0.0
H2478 H 0.5527 0.47615 0.82721 0.0
H2479 H 0.55185 0.43262 0.83472 0.0
H2480 H 0.5623 0.41211 0.90981 0.0
C2481 C 0.57476 0.32534 0.90544 0.0
C2482 C 0.5635 0.36503 0.85831 0.0
C2483 C 0.57699 0.30126 0.91128 0.0
C2484 C 0.558 0.46872 0.84189 0.0
C2485 C 0.55751 0.44377 0.84622 0.0
C2486 C 0.56273 0.39927 0.89517 0.0
C2487 C 0.56572 0.33147 0.88857 0.0
C2488 C 0.56375 0.3573 0.88236 0.0
C2489 C 0.5639 0.43353 0.86569 0.0
C2490 C 0.56312 0.40719 0.87117 0.0
H2491 H 0.55563 0.27453 0.87551 0.0
H2492 H 0.5518 0.31713 0.86478 0.0
H2493 H 0.56307 0.36923 0.91938 0.0
H2494 H 0.57708 0.48474 0.88762 0.0
H2495 H 0.57639 0.44148 0.89496 0.0
C2496 C 0.25403 0.17017 0.38128 0.0
C2497 C 0.25018 0.14753 0.37277 0.0
C2498 C 0.26106 0.18542 0.36665 0.0
C2499 C 0.2811 0.18258 0.31266 0.0
H2500 H 0.27754 0.25227 0.31227 0.0
C2501 C 0.29634 0.24362 0.23496 0.0
C2502 C 0.30184 0.26588 0.24021 0.0
C2503 C 0.29215 0.22872 0.25341 0.0
C2504 C 0.27878 0.23285 0.31252 0.0
H2505 H 0.24998 0.12364 0.34201 0.0
H2506 H 0.26176 0.15045 0.31621 0.0
H2507 H 0.26501 0.22798 0.33947 0.0
H2508 H 0.30759 0.28998 0.26865 0.0
H2509 H 0.29999 0.26394 0.30124 0.0
H2510 H 0.29448 0.18744 0.28498 0.0
C2511 C 0.25981 0.15621 0.33439 0.0
C2512 C 0.27159 0.21891 0.32806 0.0
C2513 C 0.25293 0.14094 0.34905 0.0
C2514 C 0.30356 0.27265 0.26426 0.0
C2515 C 0.2991 0.25792 0.28281 0.0
C2516 C 0.28817 0.19648 0.297 0.0
C2517 C 0.26428 0.17835 0.34318 0.0
C2518 C 0.27247 0.19353 0.32796 0.0
C2519 C 0.29312 0.23605 0.27748 0.0
C2520 C 0.28694 0.22171 0.29645 0.0
H2521 H 0.25213 0.17554 0.39961 0.0
H2522 H 0.26436 0.20227 0.37407 0.0
H2523 H 0.28232 0.16317 0.31256 0.0
H2524 H 0.29482 0.2382 0.21649 0.0
H2525 H 0.28749 0.2121 0.24873 0.0
C2526 C 0.03868 0.09384 0.37774 0.0
C2527 C 0.04236 0.11684 0.36988 0.0
C2528 C 0.03205 0.07858 0.36243 0.0
C2529 C 0.02547 0.06732 0.29867 0.0
H2530 H 0.99532 0.03801 0.32109 0.0
C2531 C 0.99384 0.02163 0.23158 0.0
C2532 C 0.98903 0.9991 0.23803 0.0
C2533 C 0.99896 0.0367 0.24893 0.0
C2534 C 1.00377 0.04587 0.31462 0.0
H2535 H 0.0424 0.14164 0.33977 0.0
H2536 H 0.03105 0.11494 0.31297 0.0
H2537 H 1.00798 0.06142 0.34897 0.0
H2538 H 0.98526 0.97481 0.26754 0.0
H2539 H 0.99449 1.00098 0.29811 0.0
H2540 H 0.02153 0.05166 0.26457 0.0
C2541 C 0.0332 0.10868 0.33093 0.0
C2542 C 1.01102 0.05923 0.33059 0.0
C2543 C 0.03966 0.12399 0.34626 0.0
C2544 C 0.98872 0.99239 0.26231 0.0
C2545 C 0.99407 0.00734 0.27974 0.0
C2546 C 1.01831 0.05389 0.28282 0.0
C2547 C 0.02918 0.08595 0.33892 0.0
C2548 C 0.02187 0.07033 0.32266 0.0
C2549 C 0.9997 0.02924 0.27306 0.0
C2550 C 1.00726 0.04328 0.29043 0.0
H2551 H 0.04055 0.08801 0.39595 0.0
H2552 H 0.02915 0.06107 0.36898 0.0
H2553 H 0.03388 0.07532 0.29215 0.0
H2554 H 0.99422 0.02703 0.21288 0.0
H2555 H 1.00285 0.05375 0.24322 0.0
C2556 C 0.30563 0.01284 0.00625 0.0
C2557 C 0.29739 0.99523 0.01452 0.0
C2558 C 0.30197 0.0295 0.98855 0.0
C2559 C 0.27859 0.03883 0.94108 0.0
H2560 H 0.2824 0.10727 0.95381 0.0
C2561 C 0.24748 0.10924 0.89647 0.0
C2562 C 0.25273 0.13081 0.88804 0.0
C2563 C 0.25428 0.09315 0.91051 0.0
C2564 C 0.2814 0.08823 0.9498 0.0
H2565 H 0.27911 0.98058 0.01011 0.0
H2566 H 0.27287 0.00909 0.97948 0.0
H2567 H 0.29263 0.07772 0.97971 0.0
H2568 H 0.26932 0.15235 0.888 0.0
H2569 H 0.28114 0.12435 0.91276 0.0
H2570 H 0.26716 0.04914 0.91161 0.0
C2571 C 0.2821 0.01028 0.98649 0.0
C2572 C 0.28731 0.07132 0.96458 0.0
C2573 C 0.28566 0.99403 0.00424 0.0
C2574 C 0.26491 0.13609 0.89445 0.0
C2575 C 0.27171 0.12 0.90858 0.0
C2576 C 0.27271 0.05566 0.92637 0.0
C2577 C 0.29013 0.02839 0.97857 0.0
C2578 C 0.28568 0.04642 0.96076 0.0
C2579 C 0.26652 0.09819 0.91653 0.0
C2580 C 0.27376 0.08055 0.93092 0.0
H2581 H 0.31471 0.01421 0.01397 0.0
H2582 H 0.30836 0.04327 0.98273 0.0
H2583 H 0.27732 0.01977 0.93741 0.0
H2584 H 0.23807 0.10476 0.89226 0.0
H2585 H 0.2499 0.07676 0.91677 0.0
C2586 C 0.0327 0.13252 0.90669 0.0
C2587 C 0.04016 0.14139 0.88809 0.0
C2588 C 0.02596 0.14827 0.92111 0.0
C2589 C 1.01359 0.21072 0.92196 0.0
H2590 H 1.00875 0.19732 0.98966 0.0
C2591 C 0.99816 0.28111 0.99165 0.0
C2592 C 0.99037 0.27381 0.01029 0.0
C2593 C 1.00217 0.26453 0.97453 0.0
C2594 C 1.00982 0.20106 0.97068 0.0
H2595 H 0.04673 0.17395 0.87072 0.0
H2596 H 0.03533 0.20158 0.89654 0.0
H2597 H 0.02098 0.16979 0.96546 0.0
H2598 H 0.9802 0.24393 0.02535 0.0
H2599 H 0.98735 0.21452 0.99538 0.0
H2600 H 1.00277 0.24254 0.92757 0.0
C2601 C 0.03442 0.18233 0.89952 0.0
C2602 C 1.01688 0.18532 0.95678 0.0
C2603 C 0.04113 0.16651 0.88495 0.0
C2604 C 0.98608 0.24996 0.0109 0.0
C2605 C 0.99027 0.23316 0.99394 0.0
C2606 C 1.00662 0.22658 0.93594 0.0
C2607 C 0.02659 0.17338 0.91752 0.0
C2608 C 1.01895 0.19004 0.93228 0.0
C2609 C 0.99864 0.24018 0.97601 0.0
C2610 C 1.00475 0.22202 0.96049 0.0
H2611 H 0.03187 0.11328 0.90984 0.0
H2612 H 1.01999 0.14065 0.93464 0.0
H2613 H 1.01475 0.21467 0.90306 0.0
H2614 H 1.00164 0.29944 0.99102 0.0
H2615 H 1.00867 0.27046 0.9611 0.0
C2616 C 0.75616 0.75529 0.77341 0.0
C2617 C 0.74448 0.74489 0.77151 0.0
C2618 C 0.76017 0.77229 0.75678 0.0
C2619 C 0.7558 0.79351 0.69508 0.0
H2620 H 0.7755 0.84706 0.71792 0.0
C2621 C 0.78717 0.84977 0.63231 0.0
C2622 C 0.78813 0.87473 0.63674 0.0
C2623 C 0.78078 0.83476 0.64822 0.0
C2624 C 0.7699 0.83244 0.71115 0.0
H2625 H 0.72774 0.74437 0.75064 0.0
H2626 H 0.73479 0.7745 0.72121 0.0
H2627 H 0.76549 0.82068 0.74664 0.0
H2628 H 0.78327 0.90328 0.66168 0.0
H2629 H 0.77191 0.87739 0.68886 0.0
H2630 H 0.76018 0.80551 0.65949 0.0
C2631 C 0.74084 0.76924 0.73571 0.0
C2632 C 0.76425 0.81713 0.72766 0.0
C2633 C 0.73678 0.75215 0.7526 0.0
C2634 C 0.7826 0.88422 0.6575 0.0
C2635 C 0.77619 0.86928 0.67328 0.0
C2636 C 0.76145 0.80893 0.67847 0.0
C2637 C 0.75261 0.77948 0.73768 0.0
C2638 C 0.75732 0.79722 0.71988 0.0
C2639 C 0.7752 0.84434 0.66891 0.0
C2640 C 0.76871 0.82841 0.68633 0.0
H2641 H 0.76236 0.75016 0.78773 0.0
H2642 H 0.76934 0.77943 0.75864 0.0
H2643 H 0.75058 0.77825 0.68851 0.0
H2644 H 0.79118 0.84187 0.61637 0.0
H2645 H 0.78035 0.81558 0.64445 0.0
C2646 C 0.0529 1.0016 0.76041 0.0
C2647 C 0.04868 0.02553 0.75987 0.0
C2648 C 0.04853 0.98486 0.74359 0.0
C2649 C 0.03237 0.97821 0.68566 0.0
H2650 H 1.01708 0.9226 0.7155 0.0
C2651 C 0.9985 0.91782 0.6334 0.0
C2652 C 0.99918 0.89279 0.63739 0.0
C2653 C 1.00495 0.93388 0.64814 0.0
C2654 C 0.02145 0.93778 0.70673 0.0
H2655 H 0.0374 0.05133 0.74077 0.0
H2656 H 0.03009 0.02239 0.71101 0.0
H2657 H 0.02933 0.95003 0.73977 0.0
H2658 H 1.00663 0.86513 0.66086 0.0
H2659 H 1.01817 0.89282 0.68584 0.0
H2660 H 0.02459 0.96597 0.65258 0.0
C2661 C 0.03663 0.01639 0.72438 0.0
C2662 C 0.0285 0.95347 0.72068 0.0
C2663 C 0.04078 0.03292 0.74141 0.0
C2664 C 1.00606 0.88428 0.65701 0.0
C2665 C 1.01259 0.90024 0.67155 0.0
C2666 C 0.02544 0.96235 0.67161 0.0
C2667 C 0.04011 0.99202 0.7258 0.0
C2668 C 0.03391 0.97398 0.71034 0.0
C2669 C 1.01228 0.92524 0.66714 0.0
C2670 C 1.01976 0.94206 0.68202 0.0
H2671 H 0.05889 0.99551 0.77469 0.0
H2672 H 0.05139 0.96616 0.74497 0.0
H2673 H 0.03647 0.99388 0.67724 0.0
H2674 H 0.99333 0.92499 0.61839 0.0
H2675 H 1.00428 0.95305 0.64449 0.0
C2676 C 0.7958 0.9039 0.10811 0.0
C2677 C 0.78911 0.89238 0.12632 0.0
C2678 C 0.78994 0.91931 0.09186 0.0
C2679 C 0.76227 0.9563 0.08218 0.0
H2680 H 0.77041 0.94768 0.01497 0.0
C2681 C 0.73891 0.01084 0.00482 0.0
C2682 C 0.74711 0.01987 0.98757 0.0
C2683 C 0.74292 0.99409 0.02209 0.0
C2684 C 0.76807 0.95043 0.03368 0.0
H2685 H 0.77116 0.88892 0.14258 0.0
H2686 H 0.76093 0.91583 0.11416 0.0
H2687 H 0.78002 0.92204 0.04507 0.0
H2688 H 0.76589 0.01829 0.97488 0.0
H2689 H 0.77278 0.98971 0.0047 0.0
H2690 H 0.75049 0.9851 0.07069 0.0
C2691 C 0.77068 0.91286 0.11238 0.0
C2692 C 0.77361 0.93577 0.05092 0.0
C2693 C 0.77653 0.89731 0.12851 0.0
C2694 C 0.75929 0.01171 0.98781 0.0
C2695 C 0.76325 0.9951 0.00487 0.0
C2696 C 0.75676 0.97113 0.06487 0.0
C2697 C 0.77728 0.92368 0.09361 0.0
C2698 C 0.77095 0.9388 0.07539 0.0
C2699 C 0.75516 0.98603 0.02221 0.0
C2700 C 0.75979 0.96864 0.04046 0.0
H2701 H 0.80549 0.90039 0.10594 0.0
H2702 H 0.79529 0.92768 0.07777 0.0
H2703 H 0.76004 0.95905 0.10093 0.0
H2704 H 0.72948 0.01686 0.0051 0.0
H2705 H 0.73646 0.98735 0.03522 0.0
C2706 C 0.04502 0.77116 0.98518 0.0
C2707 C 0.05084 0.74925 0.99062 0.0
C2708 C 0.04142 0.78679 1.00349 0.0
C2709 C 0.02974 0.78502 0.06363 0.0
H2710 H 0.03412 0.8545 0.06212 0.0
C2711 C 1.00603 0.84889 0.13221 0.0
C2712 C 1.00222 0.87154 0.12366 0.0
C2713 C 1.01312 0.83365 0.11772 0.0
C2714 C 0.03266 0.83516 0.06268 0.0
H2715 H 0.05772 0.72647 0.01921 0.0
H2716 H 0.05106 0.75372 0.05162 0.0
H2717 H 0.04537 0.82914 0.03399 0.0
H2718 H 1.00231 0.89563 0.09302 0.0
H2719 H 1.01416 0.86881 0.06739 0.0
H2720 H 1.01653 0.79097 0.09135 0.0
C2721 C 0.04952 0.75894 0.03311 0.0
C2722 C 0.03923 0.82065 0.04671 0.0
C2723 C 0.05342 0.74352 0.01466 0.0
C2724 C 1.00525 0.87834 0.10013 0.0
C2725 C 1.01216 0.86303 0.08555 0.0
C2726 C 0.02301 0.79956 0.0794 0.0
C2727 C 0.04328 0.78049 0.02766 0.0
C2728 C 0.03769 0.79549 0.04677 0.0
C2729 C 1.01641 0.84066 0.09426 0.0
C2730 C 0.02421 0.82489 0.07881 0.0
H2731 H 0.04286 0.77577 0.96673 0.0
H2732 H 0.03653 0.80317 0.99879 0.0
H2733 H 0.02827 0.76566 0.06382 0.0
H2734 H 1.00392 0.84334 0.15041 0.0
H2735 H 1.01629 0.81668 0.12516 0.0
C2736 C 0.30465 0.76949 0.76407 0.0
C2737 C 0.30242 0.76364 0.73994 0.0
C2738 C 0.30051 0.75414 0.7824 0.0
C2739 C 0.29004 0.69243 0.79577 0.0
H2740 H 0.26708 0.72248 0.83963 0.0
C2741 C 0.25592 0.63512 0.84951 0.0
C2742 C 0.25276 0.64231 0.87287 0.0
C2743 C 0.26285 0.65025 0.83476 0.0
C2744 C 0.27362 0.71377 0.82789 0.0
H2745 H 0.29484 0.73692 0.71579 0.0
H2746 H 0.28808 0.70968 0.74766 0.0
H2747 H 0.27902 0.74756 0.81226 0.0
H2748 H 0.25431 0.67097 0.89913 0.0
H2749 H 0.26671 0.69727 0.87363 0.0
H2750 H 0.28481 0.65869 0.81129 0.0
C2751 C 0.29287 0.72611 0.75253 0.0
C2752 C 0.28047 0.7282 0.81221 0.0
C2753 C 0.29672 0.74166 0.73432 0.0
C2754 C 0.2565 0.66513 0.88107 0.0
C2755 C 0.26361 0.68017 0.86641 0.0
C2756 C 0.28336 0.67804 0.81166 0.0
C2757 C 0.29437 0.73253 0.77674 0.0
C2758 C 0.28854 0.71761 0.79566 0.0
C2759 C 0.26699 0.67282 0.84312 0.0
C2760 C 0.27482 0.68843 0.82755 0.0
H2761 H 0.30886 0.78657 0.76877 0.0
H2762 H 0.30179 0.75946 0.80095 0.0
H2763 H 0.29628 0.68385 0.78329 0.0
H2764 H 0.25305 0.61768 0.84269 0.0
H2765 H 0.26494 0.64418 0.81674 0.0
C2766 C 0.04446 0.60784 0.85834 0.0
C2767 C 0.03797 0.61872 0.8772 0.0
C2768 C 0.03842 0.59298 0.84185 0.0
C2769 C 1.01102 0.55568 0.83211 0.0
H2770 H 1.01754 0.56851 0.76488 0.0
C2771 C 0.98737 0.50234 0.75442 0.0
C2772 C 0.99537 0.4951 0.73602 0.0
C2773 C 0.99128 0.5189 0.77196 0.0
C2774 C 1.01566 0.56455 0.78357 0.0
H2775 H 1.02021 0.62161 0.89433 0.0
H2776 H 1.00969 0.59542 0.8656 0.0
H2777 H 0.02744 0.59297 0.79555 0.0
H2778 H 1.01364 0.49992 0.7214 0.0
H2779 H 1.02037 0.52803 0.75167 0.0
H2780 H 0.99951 0.52672 0.82005 0.0
C2781 C 1.01942 0.59855 0.86348 0.0
C2782 C 0.02136 0.57857 0.80113 0.0
C2783 C 0.02542 0.61364 0.8798 0.0
C2784 C 1.00719 0.50505 0.73526 0.0
C2785 C 1.01106 0.52143 0.75259 0.0
C2786 C 1.00539 0.54143 0.81447 0.0
C2787 C 0.0258 0.58846 0.84405 0.0
C2788 C 1.01928 0.57403 0.82558 0.0
C2789 C 1.00321 0.52857 0.77122 0.0
C2790 C 1.00785 0.5454 0.78999 0.0
H2791 H 0.05412 0.61151 0.85585 0.0
H2792 H 0.04361 0.58518 0.8272 0.0
H2793 H 1.00924 0.55181 0.85085 0.0
H2794 H 0.97822 0.49492 0.7555 0.0
H2795 H 0.98499 0.52413 0.78604 0.0
C2796 C 0.30516 0.5024 0.50153 0.0
C2797 C 0.29682 0.49348 0.5186 0.0
C2798 C 0.30105 0.51716 0.48259 0.0
C2799 C 0.273 0.53086 0.44825 0.0
H2800 H 0.28765 0.59307 0.43444 0.0
C2801 C 0.2469 0.60521 0.39724 0.0
C2802 C 0.25339 0.62008 0.38127 0.0
C2803 C 0.25308 0.58853 0.41173 0.0
C2804 C 0.28356 0.57557 0.43778 0.0
H2805 H 0.27768 0.49347 0.52931 0.0
H2806 H 0.27069 0.51872 0.4967 0.0
H2807 H 0.29739 0.56601 0.46352 0.0
H2808 H 0.27145 0.62833 0.36732 0.0
H2809 H 0.2822 0.59923 0.39255 0.0
H2810 H 0.25909 0.54034 0.42293 0.0
C2811 C 0.28033 0.51424 0.49764 0.0
C2812 C 0.28916 0.56009 0.45441 0.0
C2813 C 0.2844 0.49984 0.51649 0.0
C2814 C 0.26619 0.61749 0.37978 0.0
C2815 C 0.27236 0.60081 0.39424 0.0
C2816 C 0.26744 0.54622 0.43162 0.0
C2817 C 0.28853 0.52287 0.48032 0.0
C2818 C 0.28376 0.53785 0.46026 0.0
C2819 C 0.2659 0.58622 0.41053 0.0
C2820 C 0.27247 0.56902 0.42659 0.0
H2821 H 0.31477 0.49781 0.50268 0.0
H2822 H 0.30757 0.52367 0.46947 0.0
H2823 H 0.26874 0.51362 0.45211 0.0
H2824 H 0.23706 0.60692 0.39902 0.0
H2825 H 0.24781 0.57785 0.42433 0.0
C2826 C 1.00787 0.76684 0.51392 0.0
C2827 C 0.99531 0.77169 0.51664 0.0
C2828 C 1.01207 0.7524 0.49526 0.0
C2829 C 1.00371 0.70425 0.45406 0.0
H2830 H 0.03312 0.72512 0.42095 0.0
C2831 C 0.0269 0.64653 0.38032 0.0
C2832 C 0.03972 0.64441 0.38182 0.0
C2833 C 1.02062 0.66332 0.39439 0.0
C2834 C 0.02495 0.71896 0.43011 0.0
H2835 H 0.97727 0.76473 0.50202 0.0
H2836 H 0.98472 0.73888 0.46911 0.0
H2837 H 0.02321 0.7521 0.44954 0.0
H2838 H 0.05598 0.65861 0.39903 0.0
H2839 H 0.04502 0.68797 0.42366 0.0
H2840 H 1.00565 0.67082 0.43506 0.0
C2841 C 0.99125 0.74656 0.4816 0.0
C2842 C 1.01925 0.73445 0.4464 0.0
C2843 C 0.98699 0.76132 0.50037 0.0
C2844 C 0.04613 0.65992 0.39731 0.0
C2845 C 0.03984 0.67675 0.41139 0.0
C2846 C 1.00944 0.68869 0.43773 0.0
C2847 C 1.00387 0.74226 0.47875 0.0
C2848 C 1.00875 0.72705 0.459 0.0
C2849 C 0.02699 0.6785 0.41025 0.0
C2850 C 1.02029 0.69569 0.42598 0.0
H2851 H 1.01457 0.77437 0.52614 0.0
H2852 H 0.02181 0.749 0.49389 0.0
H2853 H 0.99569 0.698 0.46364 0.0
H2854 H 0.0217 0.63522 0.36817 0.0
H2855 H 1.01076 0.66448 0.39277 0.0
C2856 C 0.77524 0.36244 0.12762 0.0
C2857 C 0.78794 0.36602 0.1299 0.0
C2858 C 0.76911 0.346 0.14239 0.0
C2859 C 0.77428 0.29374 0.18284 0.0
H2860 H 0.74334 0.31293 0.21125 0.0
C2861 C 0.75614 0.2494 0.26783 0.0
C2862 C 0.74382 0.24217 0.26887 0.0
C2863 C 0.76042 0.26359 0.24901 0.0
C2864 C 0.75187 0.30717 0.20314 0.0
H2865 H 0.80417 0.35484 0.14933 0.0
H2866 H 0.79349 0.32622 0.17522 0.0
H2867 H 0.75323 0.33923 0.18172 0.0
H2868 H 0.7262 0.24487 0.25116 0.0
H2869 H 0.73374 0.27032 0.21799 0.0
H2870 H 0.7731 0.26207 0.20476 0.0
C2871 C 0.78827 0.33591 0.16177 0.0
C2872 C 0.75755 0.32221 0.18625 0.0
C2873 C 0.79441 0.35234 0.14695 0.0
C2874 C 0.73574 0.25015 0.25085 0.0
C2875 C 0.74005 0.26467 0.23192 0.0
C2876 C 0.76864 0.27881 0.19974 0.0
C2877 C 0.77553 0.33268 0.15981 0.0
C2878 C 0.76896 0.31589 0.17627 0.0
C2879 C 0.7525 0.27112 0.23066 0.0
C2880 C 0.75752 0.28561 0.21048 0.0
H2881 H 0.77001 0.37235 0.11433 0.0
H2882 H 0.75934 0.34367 0.14009 0.0
H2883 H 0.7829 0.28801 0.17511 0.0
H2884 H 0.76264 0.24382 0.28144 0.0
H2885 H 0.76999 0.2687 0.24885 0.0
C2886 C 0.05639 0.51039 0.25162 0.0
C2887 C 0.04817 0.51852 0.26928 0.0
C2888 C 0.05222 0.4959 0.23256 0.0
C2889 C 0.02401 0.48245 0.19908 0.0
H2890 H 0.03864 0.42068 0.18332 0.0
C2891 C 0.99752 0.40927 0.14752 0.0
C2892 C 1.00386 0.39482 0.13096 0.0
C2893 C 1.00383 0.4256 0.16214 0.0
C2894 C 0.03455 0.43807 0.1872 0.0
H2895 H 0.02921 0.51721 0.28105 0.0
H2896 H 0.0221 0.49245 0.2482 0.0
H2897 H 0.04861 0.44711 0.21266 0.0
H2898 H 0.02178 0.38689 0.11611 0.0
H2899 H 0.03277 0.41541 0.14156 0.0
H2900 H 1.00988 0.4735 0.17404 0.0
C2901 C 0.03169 0.49738 0.24878 0.0
C2902 C 0.04028 0.45318 0.20398 0.0
C2903 C 0.03583 0.5115 0.26774 0.0
C2904 C 1.01664 0.39742 0.12903 0.0
C2905 C 0.02295 0.41377 0.14361 0.0
C2906 C 1.01832 0.46747 0.1823 0.0
C2907 C 0.03976 0.48967 0.23081 0.0
C2908 C 0.03488 0.47522 0.21053 0.0
C2909 C 1.01664 0.42796 0.16045 0.0
C2910 C 0.02335 0.44482 0.17659 0.0
H2911 H 0.06595 0.51549 0.25234 0.0
H2912 H 0.05864 0.49007 0.21893 0.0
H2913 H 1.01974 0.49954 0.20353 0.0
H2914 H 0.98771 0.40752 0.14963 0.0
H2915 H 0.9987 0.43597 0.17518 0.0
C2916 C 0.78977 0.4168 0.62476 0.0
C2917 C 0.7897 0.39175 0.62051 0.0
C2918 C 0.78293 0.43245 0.61022 0.0
C2919 C 0.76661 0.4356 0.55136 0.0
H2920 H 0.75125 0.49166 0.58027 0.0
C2921 C 0.73548 0.49932 0.49649 0.0
C2922 C 0.73958 0.52331 0.49721 0.0
C2923 C 0.73975 0.48258 0.51346 0.0
C2924 C 0.75545 0.476 0.572 0.0
H2925 H 0.78274 0.36377 0.59686 0.0
H2926 H 0.77049 0.39072 0.57234 0.0
H2927 H 0.76303 0.46389 0.60532 0.0
H2928 H 0.75064 0.54917 0.51664 0.0
H2929 H 0.75776 0.52026 0.5467 0.0
H2930 H 0.75893 0.44776 0.51807 0.0
C2931 C 0.77593 0.39845 0.58666 0.0
C2932 C 0.76231 0.4602 0.58628 0.0
C2933 C 0.78286 0.38288 0.60099 0.0
C2934 C 0.7473 0.53074 0.51594 0.0
C2935 C 0.75136 0.51421 0.53311 0.0
C2936 C 0.75961 0.45123 0.53717 0.0
C2937 C 0.77577 0.42345 0.59116 0.0
C2938 C 0.76814 0.43995 0.5761 0.0
C2939 C 0.74799 0.48979 0.53157 0.0
C2940 C 0.75409 0.47175 0.54727 0.0
H2941 H 0.79483 0.4243 0.63972 0.0
H2942 H 0.78324 0.45162 0.614 0.0
H2943 H 0.7711 0.42049 0.54273 0.0
H2944 H 0.72966 0.49317 0.48197 0.0
H2945 H 0.73698 0.46386 0.51195 0.0
C2946 C 1.01634 0.36127 0.62865 0.0
C2947 C 1.00361 0.36461 0.62667 0.0
C2948 C 0.02241 0.34452 0.61415 0.0
C2949 C 1.01724 0.2912 0.57525 0.0
H2950 H 0.04765 0.31082 0.54501 0.0
C2951 C 0.03491 0.24577 0.49041 0.0
C2952 C 0.04734 0.23943 0.48875 0.0
C2953 C 0.03065 0.25992 0.50927 0.0
C2954 C 0.03928 0.30494 0.55363 0.0
H2955 H 0.98725 0.35261 0.60823 0.0
H2956 H 0.99783 0.32339 0.5828 0.0
H2957 H 0.03785 0.33744 0.57431 0.0
H2958 H 0.06514 0.24352 0.50543 0.0
H2959 H 0.05763 0.26888 0.53865 0.0
H2960 H 1.01848 0.25905 0.55407 0.0
C2961 C 1.00312 0.33356 0.59577 0.0
C2962 C 0.03365 0.32016 0.5704 0.0
C2963 C 0.99704 0.35032 0.61032 0.0
C2964 C 0.05552 0.24811 0.50623 0.0
C2965 C 0.05123 0.26259 0.52519 0.0
C2966 C 0.02284 0.27607 0.55848 0.0
C2967 C 1.0159 0.33064 0.59734 0.0
C2968 C 0.02242 0.31367 0.58104 0.0
C2969 C 0.0387 0.26828 0.52703 0.0
C2970 C 0.03377 0.28301 0.54709 0.0
H2971 H 0.02165 0.37165 0.64143 0.0
H2972 H 0.03221 0.34242 0.61615 0.0
H2973 H 1.00876 0.28538 0.58349 0.0
H2974 H 0.02832 0.23958 0.47724 0.0
H2975 H 0.02101 0.26442 0.50987 0.0
C2976 C 0.7534 0.13912 0.84722 0.0
C2977 C 0.75037 0.14623 0.87067 0.0
C2978 C 0.75951 0.15495 0.83185 0.0
C2979 C 0.78046 0.20627 0.83151 0.0
H2980 H 0.77005 0.21268 0.76526 0.0
C2981 C 0.80198 0.27409 0.76328 0.0
C2982 C 0.80189 0.26729 0.73902 0.0
C2983 C 0.79674 0.25894 0.78065 0.0
C2984 C 0.77325 0.2108 0.78358 0.0
H2985 H 0.7512 0.17547 0.89644 0.0
H2986 H 0.76203 0.20333 0.86943 0.0
H2987 H 0.75809 0.18819 0.79279 0.0
H2988 H 0.79714 0.23908 0.71387 0.0
H2989 H 0.78872 0.21201 0.74413 0.0
H2990 H 0.79578 0.22857 0.82213 0.0
C2991 C 0.75963 0.18547 0.86302 0.0
C2992 C 0.7663 0.1969 0.7994 0.0
C2993 C 0.75334 0.16968 0.87835 0.0
C2994 C 0.79736 0.24455 0.73255 0.0
C2995 C 0.79236 0.22927 0.74986 0.0
C2996 C 0.78751 0.22007 0.81556 0.0
C2997 C 0.76285 0.17816 0.83968 0.0
C2998 C 0.76987 0.1943 0.82347 0.0
C2999 C 0.79143 0.23673 0.77395 0.0
C3000 C 0.78406 0.22227 0.7913 0.0
H3001 H 0.75121 0.12112 0.84091 0.0
H3002 H 0.76194 0.14875 0.81403 0.0
H3003 H 0.78347 0.2044 0.84995 0.0
H3004 H 0.80522 0.29183 0.76851 0.0
H3005 H 0.79616 0.26533 0.79899 0.0
C3006 C 0.50672 0.99487 0.75109 0.0
C3007 C 0.4947 0.99551 0.74216 0.0
C3008 C 0.51092 0.01256 0.76677 0.0
C3009 C 0.50232 0.06022 0.80919 0.0
H3010 H 0.53485 0.08369 0.79384 0.0
C3011 C 0.52697 0.13665 0.86275 0.0
C3012 C 0.53938 0.13245 0.86816 0.0
C3013 C 0.52061 0.12132 0.84711 0.0
C3014 C 0.5258 0.07724 0.7985 0.0
H3015 H 0.47742 0.0146 0.74361 0.0
H3016 H 0.48486 0.04608 0.77138 0.0
H3017 H 0.52498 0.05457 0.76752 0.0
H3018 H 0.55482 0.10889 0.86121 0.0
H3019 H 0.54375 0.08211 0.83412 0.0
H3020 H 0.50328 0.08286 0.84045 0.0
C3021 C 0.49099 0.03167 0.76606 0.0
C3022 C 0.52012 0.06057 0.78339 0.0
C3023 C 0.48673 0.0137 0.75024 0.0
C3024 C 0.54527 0.11258 0.85753 0.0
C3025 C 0.53894 0.09737 0.84182 0.0
C3026 C 0.50802 0.07703 0.82439 0.0
C3027 C 0.50325 0.03158 0.77393 0.0
C3028 C 0.50845 0.05138 0.78884 0.0
C3029 C 0.52654 0.10155 0.83638 0.0
C3030 C 0.51995 0.08529 0.81946 0.0
H3031 H 0.51304 0.98083 0.74559 0.0
H3032 H 0.52029 0.01152 0.77304 0.0
H3033 H 0.49333 0.05344 0.81388 0.0
H3034 H 0.52211 0.15161 0.87089 0.0
H3035 H 0.51109 0.12511 0.8432 0.0
C3036 C 0.79759 0.02055 0.52371 0.0
C3037 C 0.802 0.9977 0.51728 0.0
C3038 C 0.7926 0.03587 0.50639 0.0
C3039 C 0.78752 0.04519 0.44083 0.0
H3040 H 0.75787 0.07604 0.46385 0.0
C3041 C 0.75293 0.09493 0.37826 0.0
C3042 C 0.74936 0.11794 0.38631 0.0
C3043 C 0.75951 0.0794 0.39342 0.0
C3044 C 0.76616 0.06767 0.45717 0.0
H3045 H 0.80517 0.97303 0.48782 0.0
H3046 H 0.79617 0.99966 0.45731 0.0
H3047 H 0.77009 0.05181 0.49121 0.0
H3048 H 0.74949 0.14246 0.41663 0.0
H3049 H 0.7608 0.11536 0.4431 0.0
H3050 H 0.78335 0.06099 0.40656 0.0
C3051 C 0.79682 1.00607 0.47564 0.0
C3052 C 0.77324 0.05389 0.47289 0.0
C3053 C 0.80203 0.99086 0.49303 0.0
C3054 C 0.75215 0.12484 0.40996 0.0
C3055 C 0.75858 0.10928 0.42513 0.0
C3056 C 0.78036 0.05893 0.42499 0.0
C3057 C 0.79158 0.02835 0.48233 0.0
C3058 C 0.78412 0.04276 0.46508 0.0
C3059 C 0.76246 0.08651 0.41697 0.0
C3060 C 0.76968 0.07055 0.43311 0.0
H3061 H 0.7974 0.02605 0.54238 0.0
H3062 H 0.789 0.05317 0.5121 0.0
H3063 H 0.79584 0.03691 0.43421 0.0
H3064 H 0.75099 0.08927 0.36003 0.0
H3065 H 0.7623 0.06187 0.38673 0.0
C3066 C 0.48636 0.26333 0.49985 0.0
C3067 C 0.49489 0.27446 0.51519 0.0
C3068 C 0.49039 0.2483 0.4811 0.0
C3069 C 0.51774 0.23628 0.44389 0.0
H3070 H 0.50445 0.17197 0.43523 0.0
C3071 C 0.54408 0.16186 0.39349 0.0
C3072 C 0.53745 0.14576 0.37897 0.0
C3073 C 0.53798 0.17864 0.40797 0.0
C3074 C 0.50815 0.19002 0.43715 0.0
H3075 H 0.51429 0.27835 0.52293 0.0
H3076 H 0.52115 0.25251 0.49069 0.0
H3077 H 0.49493 0.19951 0.46404 0.0
H3078 H 0.5192 0.13536 0.36758 0.0
H3079 H 0.50859 0.16457 0.39284 0.0
H3080 H 0.53107 0.22682 0.41741 0.0
C3081 C 0.51141 0.25547 0.49282 0.0
C3082 C 0.50267 0.20578 0.45362 0.0
C3083 C 0.50743 0.27018 0.51148 0.0
C3084 C 0.52458 0.14716 0.37893 0.0
C3085 C 0.51849 0.16392 0.39339 0.0
C3086 C 0.52319 0.2206 0.42745 0.0
C3087 C 0.50298 0.24447 0.47729 0.0
C3088 C 0.5076 0.22887 0.45757 0.0
C3089 C 0.5251 0.17976 0.40821 0.0
C3090 C 0.51864 0.19708 0.42424 0.0
H3091 H 0.47664 0.26629 0.50228 0.0
H3092 H 0.48369 0.23999 0.46938 0.0
H3093 H 0.52161 0.25414 0.44625 0.0
H3094 H 0.55398 0.1611 0.39413 0.0
H3095 H 0.54336 0.19034 0.41943 0.0
C3096 C 0.23983 0.7452 0.24606 0.0
C3097 C 0.24056 0.75152 0.27041 0.0
C3098 C 0.24474 0.76056 0.2285 0.0
C3099 C 0.26824 0.80875 0.22421 0.0
H3100 H 0.25663 0.81558 0.15875 0.0
C3101 C 0.28707 0.88039 0.15925 0.0
C3102 C 0.28996 0.87294 0.13584 0.0
C3103 C 0.28098 0.86485 0.17495 0.0
C3104 C 0.26002 0.81362 0.17694 0.0
H3105 H 0.24604 0.77918 0.2956 0.0
H3106 H 0.25387 0.80664 0.26509 0.0
H3107 H 0.24492 0.79123 0.18738 0.0
H3108 H 0.28881 0.84341 0.11042 0.0
H3109 H 0.27799 0.8161 0.13798 0.0
H3110 H 0.28317 0.8315 0.21393 0.0
C3111 C 0.25004 0.78955 0.25938 0.0
C3112 C 0.25331 0.7997 0.19335 0.0
C3113 C 0.24538 0.77403 0.27686 0.0
C3114 C 0.28677 0.84949 0.12847 0.0
C3115 C 0.28049 0.834 0.14411 0.0
C3116 C 0.27482 0.82282 0.20794 0.0
C3117 C 0.25033 0.78255 0.23509 0.0
C3118 C 0.25729 0.79728 0.21729 0.0
C3119 C 0.27751 0.84159 0.16748 0.0
C3120 C 0.27075 0.82555 0.1842 0.0
H3121 H 0.23632 0.72767 0.2408 0.0
H3122 H 0.24482 0.7545 0.21002 0.0
H3123 H 0.27184 0.80672 0.24221 0.0
H3124 H 0.28944 0.89837 0.16537 0.0
H3125 H 0.27874 0.87123 0.1928 0.0
C3126 C 0.54409 0.9924 0.27285 0.0
C3127 C 0.54993 0.01426 0.26738 0.0
C3128 C 0.54033 0.9769 0.25454 0.0
C3129 C 0.52837 0.97884 0.19455 0.0
H3130 H 0.53276 0.90935 0.19594 0.0
C3131 C 0.50453 0.91489 0.12612 0.0
C3132 C 0.50078 0.89221 0.13471 0.0
C3133 C 0.51159 0.9302 0.14059 0.0
C3134 C 0.5313 0.9287 0.19542 0.0
H3135 H 0.55668 0.0371 0.23875 0.0
H3136 H 0.54975 0.01009 0.20636 0.0
H3137 H 0.54413 0.93466 0.22394 0.0
H3138 H 0.50093 0.86819 0.16539 0.0
H3139 H 0.51274 0.89513 0.19098 0.0
H3140 H 0.51505 0.97293 0.16698 0.0
C3141 C 0.54831 1.00481 0.22488 0.0
C3142 C 0.53793 0.94318 0.21131 0.0
C3143 C 0.55236 0.02009 0.24332 0.0
C3144 C 0.50382 0.8855 0.15827 0.0
C3145 C 0.51071 0.90087 0.17282 0.0
C3146 C 0.52158 0.96432 0.17886 0.0
C3147 C 0.54206 0.98328 0.23037 0.0
C3148 C 0.53639 0.96834 0.2113 0.0
C3149 C 0.51492 0.92323 0.16405 0.0
C3150 C 0.52277 0.93899 0.17942 0.0
H3151 H 0.54204 0.9877 0.29131 0.0
H3152 H 0.53545 0.96054 0.25927 0.0
H3153 H 0.5269 0.9982 0.1944 0.0
H3154 H 0.50241 0.92036 0.1079 0.0
H3155 H 0.51473 0.94716 0.13312 0.0
C3156 C 0.29692 0.90575 0.6079 0.0
C3157 C 0.29033 0.89367 0.62589 0.0
C3158 C 0.29092 0.92113 0.59181 0.0
C3159 C 0.2629 0.95715 0.5825 0.0
H3160 H 0.27115 0.9498 0.51521 0.0
C3161 C 0.23894 0.01169 0.5058 0.0
C3162 C 0.24699 0.02108 0.48848 0.0
C3163 C 0.24316 0.995 0.52295 0.0
C3164 C 0.26878 0.95221 0.53394 0.0
H3165 H 0.27238 0.88917 0.64191 0.0
H3166 H 0.26191 0.91605 0.6138 0.0
H3167 H 0.28102 0.92415 0.54498 0.0
H3168 H 0.26577 0.02029 0.47563 0.0
H3169 H 0.27301 0.99187 0.50526 0.0
H3170 H 0.25082 0.98563 0.57139 0.0
C3171 C 0.2717 0.91353 0.61206 0.0
C3172 C 0.27447 0.93754 0.551 0.0
C3173 C 0.27768 0.898 0.62801 0.0
C3174 C 0.25925 0.0134 0.48859 0.0
C3175 C 0.26342 0.99688 0.50554 0.0
C3176 C 0.25724 0.972 0.56539 0.0
C3177 C 0.27821 0.92493 0.59352 0.0
C3178 C 0.27175 0.94009 0.5755 0.0
C3179 C 0.25547 0.98738 0.52291 0.0
C3180 C 0.2603 0.96999 0.54095 0.0
H3181 H 0.30666 0.90272 0.60579 0.0
H3182 H 0.29621 0.92995 0.5779 0.0
H3183 H 0.26062 0.95952 0.60129 0.0
H3184 H 0.22945 0.01733 0.5062 0.0
H3185 H 0.23679 0.98794 0.53609 0.0
C3186 C 0.49588 0.85534 0.61147 0.0
C3187 C 0.50253 0.86953 0.62781 0.0
C3188 C 0.5019 0.83872 0.59668 0.0
C3189 C 0.53233 0.82527 0.57074 0.0
H3190 H 0.51695 0.76436 0.55444 0.0
C3191 C 0.55365 0.75274 0.50621 0.0
C3192 C 0.54536 0.74437 0.48876 0.0
C3193 C 0.54952 0.76735 0.52521 0.0
C3194 C 0.52137 0.78131 0.55884 0.0
H3195 H 0.52064 0.87657 0.64222 0.0
H3196 H 0.5311 0.84755 0.61652 0.0
H3197 H 0.50742 0.79064 0.58412 0.0
H3198 H 0.52635 0.74534 0.47728 0.0
H3199 H 0.51931 0.77038 0.51001 0.0
H3200 H 0.5462 0.81588 0.5451 0.0
C3201 C 0.52128 0.84964 0.61472 0.0
C3202 C 0.51587 0.79643 0.57576 0.0
C3203 C 0.51527 0.86626 0.62946 0.0
C3204 C 0.533 0.75125 0.49044 0.0
C3205 C 0.52891 0.76552 0.50933 0.0
C3206 C 0.53786 0.81005 0.55384 0.0
C3207 C 0.51469 0.83581 0.59799 0.0
C3208 C 0.52113 0.81885 0.58153 0.0
C3209 C 0.53705 0.7735 0.5271 0.0
C3210 C 0.53226 0.78819 0.5473 0.0
H3211 H 0.48608 0.85758 0.60961 0.0
H3212 H 0.49655 0.82861 0.58376 0.0
H3213 H 0.53658 0.8425 0.57464 0.0
H3214 H 0.56322 0.74774 0.50539 0.0
H3215 H 0.556 0.77336 0.53867 0.0
C3216 C 0.75436 0.66472 0.38103 0.0
C3217 C 0.75002 0.64253 0.37227 0.0
C3218 C 0.76162 0.67961 0.36653 0.0
C3219 C 0.78094 0.67693 0.31142 0.0
H3220 H 0.77809 0.74673 0.31293 0.0
C3221 C 0.79453 0.73992 0.23411 0.0
C3222 C 0.80071 0.76144 0.2395 0.0
C3223 C 0.79069 0.72457 0.25246 0.0
C3224 C 0.77914 0.72727 0.31265 0.0
H3225 H 0.74933 0.61898 0.34128 0.0
H3226 H 0.76151 0.64526 0.31564 0.0
H3227 H 0.76582 0.72231 0.34036 0.0
H3228 H 0.80803 0.78375 0.268 0.0
H3229 H 0.80096 0.75698 0.30049 0.0
H3230 H 0.79379 0.68198 0.2828 0.0
C3231 C 0.75975 0.65089 0.33394 0.0
C3232 C 0.7721 0.71324 0.32834 0.0
C3233 C 0.75265 0.63593 0.34851 0.0
C3234 C 0.80344 0.767 0.2635 0.0
C3235 C 0.79931 0.75187 0.282 0.0
C3236 C 0.78784 0.69093 0.29556 0.0
C3237 C 0.76458 0.67268 0.3429 0.0
C3238 C 0.77272 0.68784 0.32757 0.0
C3239 C 0.79269 0.73076 0.2766 0.0
C3240 C 0.78685 0.7162 0.29574 0.0
H3241 H 0.75256 0.67007 0.39941 0.0
H3242 H 0.76522 0.69615 0.37412 0.0
H3243 H 0.78195 0.65747 0.31076 0.0
H3244 H 0.79227 0.73543 0.21569 0.0
H3245 H 0.78552 0.70853 0.24781 0.0
C3246 C 0.48795 0.50141 0.25281 0.0
C3247 C 0.49588 0.49254 0.23501 0.0
C3248 C 0.49226 0.51774 0.27019 0.0
C3249 C 0.51785 0.56054 0.28142 0.0
H3250 H 0.51018 0.55147 0.34877 0.0
C3251 C 0.54591 0.60686 0.35558 0.0
C3252 C 0.53922 0.61837 0.3738 0.0
C3253 C 0.54005 0.59132 0.33944 0.0
C3254 C 0.51232 0.55433 0.33 0.0
H3255 H 0.51452 0.49398 0.2215 0.0
H3256 H 0.52192 0.52177 0.25151 0.0
H3257 H 0.5003 0.52593 0.31855 0.0
H3258 H 0.52131 0.62159 0.39026 0.0
H3259 H 0.5111 0.59449 0.36208 0.0
H3260 H 0.53002 0.58856 0.29277 0.0
C3261 C 0.51236 0.51661 0.25201 0.0
C3262 C 0.50662 0.5398 0.31269 0.0
C3263 C 0.5081 0.50045 0.23484 0.0
C3264 C 0.52667 0.61322 0.37618 0.0
C3265 C 0.52084 0.59755 0.36018 0.0
C3266 C 0.52359 0.57489 0.29866 0.0
C3267 C 0.50454 0.52553 0.2699 0.0
C3268 C 0.50948 0.54248 0.28822 0.0
C3269 C 0.52741 0.58681 0.34134 0.0
C3270 C 0.52103 0.57173 0.32316 0.0
H3271 H 0.47849 0.49559 0.25343 0.0
H3272 H 0.48599 0.52437 0.28372 0.0
H3273 H 0.52007 0.56345 0.26268 0.0
H3274 H 0.55558 0.61052 0.3533 0.0
H3275 H 0.54539 0.58302 0.3253 0.0
C3276 C 0.75117 0.59428 0.87957 0.0
C3277 C 0.74786 0.61751 0.88737 0.0
C3278 C 0.75756 0.57865 0.89493 0.0
C3279 C 0.76393 0.56684 0.95858 0.0
H3280 H 0.79406 0.53716 0.93656 0.0
C3281 C 0.79504 0.52003 0.02601 0.0
C3282 C 0.79997 0.49765 0.01941 0.0
C3283 C 0.78998 0.53528 0.0087 0.0
C3284 C 0.78561 0.5451 0.94292 0.0
H3285 H 0.74822 0.6424 0.91735 0.0
H3286 H 0.7591 0.615 0.94431 0.0
H3287 H 0.78163 0.56095 0.90858 0.0
H3288 H 0.80404 0.47381 0.9897 0.0
H3289 H 0.79487 0.50021 0.95923 0.0
H3290 H 0.76761 0.55085 0.99266 0.0
C3291 C 0.75686 0.60886 0.92637 0.0
C3292 C 0.77849 0.55868 0.92689 0.0
C3293 C 0.75066 0.62454 0.91096 0.0
C3294 C 0.80045 0.49126 0.99506 0.0
C3295 C 0.79515 0.50636 0.97768 0.0
C3296 C 0.77094 0.55314 0.97449 0.0
C3297 C 0.76054 0.58589 0.91842 0.0
C3298 C 0.76766 0.56994 0.93469 0.0
C3299 C 0.78942 0.52812 0.98447 0.0
C3300 C 0.78198 0.54239 0.96703 0.0
H3301 H 0.74923 0.58857 0.86136 0.0
H3302 H 0.76023 0.56097 0.88843 0.0
H3303 H 0.75553 0.57501 0.96499 0.0
H3304 H 0.79457 0.52523 0.04475 0.0
H3305 H 0.78603 0.55223 0.01452 0.0
C3306 C 0.5349 0.63637 0.90861 0.0
C3307 C 0.53793 0.64347 0.88516 0.0
C3308 C 0.52799 0.65151 0.92338 0.0
C3309 C 0.51708 0.7149 0.93017 0.0
H3310 H 0.49458 0.68481 0.97496 0.0
C3311 C 0.48626 0.77028 0.99467 0.0
C3312 C 0.48862 0.7643 0.01872 0.0
C3313 C 0.49033 0.75506 0.9762 0.0
C3314 C 0.50077 0.69344 0.96242 0.0
H3315 H 0.53622 0.672 0.85876 0.0
H3316 H 0.52387 0.69834 0.88432 0.0
H3317 H 0.506 0.65975 0.94681 0.0
H3318 H 0.49635 0.73747 0.04262 0.0
H3319 H 0.50298 0.71044 0.01051 0.0
H3320 H 0.51171 0.74864 0.94593 0.0
C3321 C 0.52704 0.6813 0.89157 0.0
C3322 C 0.50743 0.67911 0.94644 0.0
C3323 C 0.53412 0.66624 0.87689 0.0
C3324 C 0.49437 0.74231 0.02415 0.0
C3325 C 0.49815 0.72688 0.00581 0.0
C3326 C 0.51027 0.72927 0.94595 0.0
C3327 C 0.52375 0.674 0.91493 0.0
C3328 C 0.51592 0.68956 0.93051 0.0
C3329 C 0.49652 0.73343 0.98165 0.0
C3330 C 0.50226 0.71862 0.96257 0.0
H3331 H 0.53782 0.61898 0.91548 0.0
H3332 H 0.52598 0.64551 0.94146 0.0
H3333 H 0.52359 0.72364 0.91838 0.0
H3334 H 0.482 0.78738 0.99013 0.0
H3335 H 0.48896 0.76046 0.95769 0.0
C3336 C 0.239 0.27519 0.77092 0.0
C3337 C 0.23565 0.25136 0.7656 0.0
C3338 C 0.24413 0.28991 0.75328 0.0
C3339 C 0.25143 0.29596 0.68838 0.0
H3340 H 0.27975 0.32976 0.71365 0.0
C3341 C 0.28674 0.34623 0.62792 0.0
C3342 C 0.28988 0.36956 0.63579 0.0
C3343 C 0.28 0.33073 0.64281 0.0
C3344 C 0.27183 0.32059 0.70631 0.0
H3345 H 0.2344 0.22438 0.73761 0.0
H3346 H 0.24355 0.25011 0.70653 0.0
H3347 H 0.26704 0.30602 0.74049 0.0
H3348 H 0.28882 0.39462 0.6656 0.0
H3349 H 0.27718 0.36769 0.69151 0.0
H3350 H 0.2564 0.31062 0.65403 0.0
C3351 C 0.24201 0.25762 0.72422 0.0
C3352 C 0.26448 0.30706 0.72173 0.0
C3353 C 0.23669 0.24293 0.74192 0.0
C3354 C 0.28649 0.37678 0.65902 0.0
C3355 C 0.27987 0.36129 0.67391 0.0
C3356 C 0.25884 0.30954 0.67286 0.0
C3357 C 0.24629 0.28089 0.73006 0.0
C3358 C 0.25407 0.29489 0.71308 0.0
C3359 C 0.27643 0.33818 0.66592 0.0
C3360 C 0.26903 0.32227 0.68176 0.0
H3361 H 0.23834 0.28195 0.78914 0.0
H3362 H 0.247 0.30797 0.75821 0.0
H3363 H 0.2435 0.28677 0.68114 0.0
H3364 H 0.28914 0.34028 0.61001 0.0
H3365 H 0.27758 0.31294 0.63625 0.0
C3366 C 0.55342 0.50146 0.76069 0.0
C3367 C 0.55033 0.52598 0.75894 0.0
C3368 C 0.54897 0.485 0.7437 0.0
C3369 C 0.53407 0.47895 0.68424 0.0
H3370 H 0.51608 0.42682 0.7145 0.0
C3371 C 0.49943 0.42095 0.63097 0.0
C3372 C 0.49922 0.39605 0.63593 0.0
C3373 C 0.50604 0.43678 0.6457 0.0
C3374 C 0.52119 0.441 0.70563 0.0
H3375 H 0.54096 0.55298 0.73768 0.0
H3376 H 0.5335 0.52445 0.70761 0.0
H3377 H 0.52871 0.45337 0.73893 0.0
H3378 H 0.50524 0.36851 0.66105 0.0
H3379 H 0.51702 0.39574 0.68608 0.0
H3380 H 0.52662 0.46655 0.6509 0.0
C3381 C 0.53928 0.5178 0.72198 0.0
C3382 C 0.52847 0.45619 0.71968 0.0
C3383 C 0.54354 0.53413 0.73914 0.0
C3384 C 0.50536 0.38753 0.65647 0.0
C3385 C 0.51203 0.40325 0.67103 0.0
C3386 C 0.5269 0.46357 0.67011 0.0
C3387 C 0.54151 0.49296 0.72462 0.0
C3388 C 0.5349 0.47544 0.70918 0.0
C3389 C 0.51262 0.42805 0.66568 0.0
C3390 C 0.52027 0.4445 0.68065 0.0
H3391 H 0.55849 0.49478 0.77605 0.0
H3392 H 0.55089 0.46594 0.74605 0.0
H3393 H 0.53895 0.49364 0.67568 0.0
H3394 H 0.49486 0.4281 0.61523 0.0
H3395 H 0.50609 0.45583 0.64128 0.0
C3396 C 0.28115 0.38358 0.10382 0.0
C3397 C 0.28769 0.39225 0.12382 0.0
C3398 C 0.27417 0.3992 0.08965 0.0
C3399 C 0.26006 0.46058 0.09 0.0
H3400 H 0.25787 0.44979 0.02133 0.0
C3401 C 0.24687 0.53262 0.01987 0.0
C3402 C 0.23945 0.5257 1.0005 0.0
C3403 C 0.2504 0.51575 0.03716 0.0
C3404 C 0.25821 0.45278 0.04055 0.0
H3405 H 0.29217 0.42452 0.14413 0.0
H3406 H 0.28056 0.45194 0.11866 0.0
H3407 H 0.26969 0.42204 0.04608 0.0
H3408 H 0.22942 0.49618 0.98432 0.0
H3409 H 0.23584 0.46627 0.01446 0.0
H3410 H 0.24907 0.49215 0.084 0.0
C3411 C 0.2805 0.43286 0.11439 0.0
C3412 C 0.26501 0.43688 0.05479 0.0
C3413 C 0.28736 0.41716 0.12879 0.0
C3414 C 0.23504 0.50194 0.9993 0.0
C3415 C 0.23879 0.48486 0.01638 0.0
C3416 C 0.25341 0.47668 0.07567 0.0
C3417 C 0.27368 0.42406 0.09478 0.0
C3418 C 0.26613 0.44066 0.07971 0.0
C3419 C 0.24678 0.49151 0.03509 0.0
C3420 C 0.25251 0.47303 0.05078 0.0
H3421 H 0.28133 0.3646 0.09914 0.0
H3422 H 0.26898 0.39162 0.0749 0.0
H3423 H 0.26046 0.46383 0.10916 0.0
H3424 H 0.25044 0.55086 0.02097 0.0
H3425 H 0.25663 0.52135 0.05125 0.0
C3426 C 0.55616 0.2409 0.01757 0.0
C3427 C 0.55616 0.24994 0.99402 0.0
C3428 C 0.55147 0.25499 0.03639 0.0
C3429 C 0.54201 0.31717 0.05294 0.0
H3430 H 0.51573 0.28596 0.08797 0.0
C3431 C 0.50452 0.37307 0.09767 0.0
C3432 C 0.50058 0.36646 0.12075 0.0
C3433 C 0.51198 0.35769 0.0843 0.0
C3434 C 0.52315 0.29488 0.07864 0.0
H3435 H 0.55202 0.28083 0.97164 0.0
H3436 H 0.54428 0.30566 0.00438 0.0
H3437 H 0.52917 0.26186 0.06232 0.0
H3438 H 0.50095 0.33812 0.14758 0.0
H3439 H 0.51406 0.31103 0.12412 0.0
H3440 H 0.53593 0.35021 0.06879 0.0
C3441 C 0.54781 0.28785 0.00852 0.0
C3442 C 0.53089 0.28106 0.06402 0.0
C3443 C 0.55225 0.27368 0.98976 0.0
C3444 C 0.50377 0.34356 0.12973 0.0
C3445 C 0.51131 0.32813 0.11634 0.0
C3446 C 0.53434 0.33094 0.06758 0.0
C3447 C 0.54694 0.27838 0.03188 0.0
C3448 C 0.54019 0.29218 0.05053 0.0
C3449 C 0.51577 0.33532 0.09373 0.0
C3450 C 0.52459 0.32009 0.08007 0.0
H3451 H 0.5589 0.22242 0.02112 0.0
H3452 H 0.55095 0.24728 0.05425 0.0
H3453 H 0.5492 0.32619 0.043 0.0
H3454 H 0.50208 0.39051 0.0902 0.0
H3455 H 0.51493 0.36351 0.06666 0.0
loop_
_geom_bond_atom_site_label_1
_geom_bond_atom_site_label_2
_geom_bond_distance
_geom_bond_site_symmetry_2
_ccdc_geom_bond_type
C0 C1 1.351 . S
C0 N3 1.368 . S
C0 H5 0.931 . S
C1 C0 1.351 . S
C1 N2 1.373 . S
C1 H29 0.930 . S
N2 C1 1.373 . S
N2 C4 1.340 . S
N3 C0 1.368 . S
N3 C4 1.321 . S
N3 Co6 2.135 . S
C4 N2 1.340 . S
C4 N3 1.321 . S
C4 H28 0.930 . S
H5 C0 0.931 . S
Co6 N3 2.135 . S
Co6 N9 2.121 . S
Co6 O14 2.055 . S
Co6 O17 2.039 . S
Co6 N20 2.140 . S
C7 O8 1.227 . S
C7 O17 1.265 . S
O8 C7 1.227 . S
N9 Co6 2.121 . S
N9 C11 1.375 . S
N9 C12 1.313 . S
C10 C11 1.338 . S
C10 N13 1.377 . S
C10 H30 0.930 . S
C11 N9 1.375 . S
C11 C10 1.338 . S
C11 H15 0.931 . S
C12 N9 1.313 . S
C12 N13 1.344 . S
C12 H16 0.930 . S
N13 C10 1.377 . S
N13 C12 1.344 . S
O14 Co6 2.055 . S
O14 C18 1.253 . S
H15 C11 0.931 . S
H16 C12 0.930 . S
O17 Co6 2.039 . S
O17 C7 1.265 . S
C18 O14 1.253 . S
C18 O19 1.227 . S
O19 C18 1.227 . S
N20 Co6 2.140 . S
N20 C23 1.346 . S
N20 C24 1.345 . S
C21 C22 1.387 . S
C21 C25 1.391 . S
C22 C21 1.387 . S
C22 C23 1.369 . S
C22 H31 0.929 . S
C23 N20 1.346 . S
C23 C22 1.369 . S
C23 H26 0.928 . S
C24 N20 1.345 . S
C24 C25 1.371 . S
C24 H27 0.931 . S
C25 C21 1.391 . S
C25 C24 1.371 . S
C25 H32 0.930 . S
H26 C23 0.928 . S
H27 C24 0.931 . S
H28 C4 0.930 . S
H29 C1 0.930 . S
H30 C10 0.930 . S
H31 C22 0.929 . S
H32 C25 0.930 . S
C33 C34 1.351 . S
C33 N36 1.368 . S
C33 H38 0.931 . S
C34 C33 1.351 . S
C34 N35 1.373 . S
C34 H62 0.930 . S
N35 C34 1.373 . S
N35 C37 1.340 . S
N36 C33 1.368 . S
N36 C37 1.321 . S
N36 Co39 2.135 . S
C37 N35 1.340 . S
C37 N36 1.321 . S
C37 H61 0.930 . S
H38 C33 0.931 . S
Co39 N36 2.135 . S
Co39 N42 2.121 . S
Co39 O47 2.055 . S
Co39 O50 2.039 . S
Co39 N53 2.140 . S
C40 O41 1.227 . S
C40 O50 1.265 . S
O41 C40 1.227 . S
N42 Co39 2.121 . S
N42 C44 1.375 . S
N42 C45 1.313 1_565 S
C43 C44 1.338 1_545 S
C43 N46 1.377 . S
C43 H63 0.930 . S
C44 N42 1.375 . S
C44 C43 1.338 1_565 S
C44 H48 0.931 . S
C45 N42 1.313 1_545 S
C45 N46 1.344 . S
C45 H49 0.930 . S
N46 C43 1.377 . S
N46 C45 1.344 . S
O47 Co39 2.055 . S
O47 C51 1.253 1_565 S
H48 C44 0.931 . S
H49 C45 0.930 . S
O50 Co39 2.039 . S
O50 C40 1.265 . S
C51 O47 1.253 1_545 S
C51 O52 1.227 1_545 S
O52 C51 1.227 1_565 S
N53 Co39 2.140 . S
N53 C56 1.346 . S
N53 C57 1.345 . S
C54 C55 1.387 . S
C54 C58 1.391 . S
C55 C54 1.387 . S
C55 C56 1.369 . S
C55 H64 0.929 . S
C56 N53 1.346 . S
C56 C55 1.369 . S
C56 H59 0.928 . S
C57 N53 1.345 . S
C57 C58 1.371 . S
C57 H60 0.931 . S
C58 C54 1.391 . S
C58 C57 1.371 . S
C58 H65 0.930 . S
H59 C56 0.928 . S
H60 C57 0.931 . S
H61 C37 0.930 . S
H62 C34 0.930 . S
H63 C43 0.930 . S
H64 C55 0.929 . S
H65 C58 0.930 . S
C66 C67 1.351 . S
C66 N69 1.368 . S
C66 H71 0.931 . S
C67 C66 1.351 . S
C67 N68 1.373 . S
C67 H95 0.930 . S
N68 C67 1.373 . S
N68 C70 1.340 . S
N69 C66 1.368 . S
N69 C70 1.321 . S
N69 Co72 2.135 1_556 S
C70 N68 1.340 . S
C70 N69 1.321 . S
C70 H94 0.930 . S
H71 C66 0.931 . S
Co72 N69 2.135 1_554 S
Co72 N75 2.121 . S
Co72 O80 2.055 1_554 S
Co72 O83 2.039 . S
Co72 N86 2.140 . S
C73 O74 1.227 . S
C73 O83 1.265 . S
O74 C73 1.227 . S
N75 Co72 2.121 . S
N75 C77 1.375 . S
N75 C78 1.313 1_565 S
C76 C77 1.338 1_545 S
C76 N79 1.377 . S
C76 H96 0.930 . S
C77 N75 1.375 . S
C77 C76 1.338 1_565 S
C77 H81 0.931 . S
C78 N75 1.313 1_545 S
C78 N79 1.344 . S
C78 H82 0.930 . S
N79 C76 1.377 . S
N79 C78 1.344 . S
O80 Co72 2.055 1_556 S
O80 C84 1.253 1_565 S
H81 C77 0.931 . S
H82 C78 0.930 . S
O83 Co72 2.039 . S
O83 C73 1.265 . S
C84 O80 1.253 1_545 S
C84 O85 1.227 1_546 S
O85 C84 1.227 1_564 S
N86 Co72 2.140 . S
N86 C89 1.346 . S
N86 C90 1.345 . S
C87 C88 1.387 . S
C87 C91 1.391 . S
C88 C87 1.387 . S
C88 C89 1.369 . S
C88 H97 0.929 . S
C89 N86 1.346 . S
C89 C88 1.369 . S
C89 H92 0.928 . S
C90 N86 1.345 . S
C90 C91 1.371 . S
C90 H93 0.931 . S
C91 C87 1.391 . S
C91 C90 1.371 . S
C91 H98 0.930 . S
H92 C89 0.928 . S
H93 C90 0.931 . S
H94 C70 0.930 . S
H95 C67 0.930 . S
H96 C76 0.930 . S
H97 C88 0.929 . S
H98 C91 0.930 . S
C99 C100 1.351 . S
C99 N102 1.368 . S
C99 H104 0.931 . S
C100 C99 1.351 . S
C100 N101 1.373 . S
C100 H128 0.930 . S
N101 C100 1.373 . S
N101 C103 1.340 . S
N102 C99 1.368 . S
N102 C103 1.321 . S
N102 Co105 2.135 1_556 S
C103 N101 1.340 . S
C103 N102 1.321 . S
C103 H127 0.930 . S
H104 C99 0.931 . S
Co105 N102 2.135 1_554 S
Co105 N108 2.121 . S
Co105 O113 2.055 1_554 S
Co105 O116 2.039 . S
Co105 N119 2.140 . S
C106 O107 1.227 . S
C106 O116 1.265 . S
O107 C106 1.227 . S
N108 Co105 2.121 . S
N108 C110 1.375 . S
N108 C111 1.313 . S
C109 C110 1.338 . S
C109 N112 1.377 . S
C109 H129 0.930 . S
C110 N108 1.375 . S
C110 C109 1.338 . S
C110 H114 0.931 . S
C111 N108 1.313 . S
C111 N112 1.344 . S
C111 H115 0.930 . S
N112 C109 1.377 . S
N112 C111 1.344 . S
O113 Co105 2.055 1_556 S
O113 C117 1.253 . S
H114 C110 0.931 . S
H115 C111 0.930 . S
O116 Co105 2.039 . S
O116 C106 1.265 . S
C117 O113 1.253 . S
C117 O118 1.227 1_556 S
O118 C117 1.227 1_554 S
N119 Co105 2.140 . S
N119 C122 1.346 . S
N119 C123 1.345 . S
C120 C121 1.387 . S
C120 C124 1.391 . S
C121 C120 1.387 . S
C121 C122 1.369 . S
C121 H130 0.929 . S
C122 N119 1.346 . S
C122 C121 1.369 . S
C122 H125 0.928 . S
C123 N119 1.345 . S
C123 C124 1.371 . S
C123 H126 0.931 . S
C124 C120 1.391 . S
C124 C123 1.371 . S
C124 H131 0.930 . S
H125 C122 0.928 . S
H126 C123 0.931 . S
H127 C103 0.930 . S
H128 C100 0.930 . S
H129 C109 0.930 . S
H130 C121 0.929 . S
H131 C124 0.930 . S
C132 C133 1.351 . S
C132 N135 1.368 . S
C132 H137 0.931 . S
C133 C132 1.351 . S
C133 N134 1.373 . S
C133 H161 0.930 . S
N134 C133 1.373 . S
N134 C136 1.340 . S
N135 C132 1.368 . S
N135 C136 1.321 . S
N135 Co138 2.135 . S
C136 N134 1.340 . S
C136 N135 1.321 . S
C136 H160 0.930 . S
H137 C132 0.931 . S
Co138 N135 2.135 . S
Co138 N141 2.121 . S
Co138 O146 2.055 . S
Co138 O149 2.039 . S
Co138 N152 2.140 . S
C139 O140 1.227 . S
C139 O149 1.265 . S
O140 C139 1.227 . S
N141 Co138 2.121 . S
N141 C143 1.375 . S
N141 C144 1.313 . S
C142 C143 1.338 . S
C142 N145 1.377 . S
C142 H162 0.930 . S
C143 N141 1.375 . S
C143 C142 1.338 . S
C143 H147 0.931 . S
C144 N141 1.313 . S
C144 N145 1.344 . S
C144 H148 0.930 . S
N145 C142 1.377 . S
N145 C144 1.344 . S
O146 Co138 2.055 . S
O146 C150 1.253 . S
H147 C143 0.931 . S
H148 C144 0.930 . S
O149 Co138 2.039 . S
O149 C139 1.265 . S
C150 O146 1.253 . S
C150 O151 1.227 . S
O151 C150 1.227 . S
N152 Co138 2.140 . S
N152 C155 1.346 . S
N152 C156 1.345 . S
C153 C154 1.387 . S
C153 C157 1.391 . S
C154 C153 1.387 . S
C154 C155 1.369 . S
C154 H163 0.929 . S
C155 N152 1.346 . S
C155 C154 1.369 . S
C155 H158 0.928 . S
C156 N152 1.345 . S
C156 C157 1.371 . S
C156 H159 0.931 . S
C157 C153 1.391 . S
C157 C156 1.371 . S
C157 H164 0.930 . S
H158 C155 0.928 . S
H159 C156 0.931 . S
H160 C136 0.930 . S
H161 C133 0.930 . S
H162 C142 0.930 . S
H163 C154 0.929 . S
H164 C157 0.930 . S
C165 C166 1.351 . S
C165 N168 1.368 . S
C165 H170 0.931 . S
C166 C165 1.351 . S
C166 N167 1.373 . S
C166 H194 0.930 . S
N167 C166 1.373 . S
N167 C169 1.340 . S
N168 C165 1.368 . S
N168 C169 1.321 . S
N168 Co171 2.135 . S
C169 N167 1.340 . S
C169 N168 1.321 . S
C169 H193 0.930 . S
H170 C165 0.931 . S
Co171 N168 2.135 . S
Co171 N174 2.121 . S
Co171 O179 2.055 . S
Co171 O182 2.039 . S
Co171 N185 2.140 . S
C172 O173 1.227 . S
C172 O182 1.265 . S
O173 C172 1.227 . S
N174 Co171 2.121 . S
N174 C176 1.375 . S
N174 C177 1.313 1_545 S
C175 C176 1.338 1_565 S
C175 N178 1.377 . S
C175 H195 0.930 . S
C176 N174 1.375 . S
C176 C175 1.338 1_545 S
C176 H180 0.931 . S
C177 N174 1.313 1_565 S
C177 N178 1.344 . S
C177 H181 0.930 . S
N178 C175 1.377 . S
N178 C177 1.344 . S
O179 Co171 2.055 . S
O179 C183 1.253 1_545 S
H180 C176 0.931 . S
H181 C177 0.930 . S
O182 Co171 2.039 . S
O182 C172 1.265 . S
C183 O179 1.253 1_565 S
C183 O184 1.227 1_565 S
O184 C183 1.227 1_545 S
N185 Co171 2.140 . S
N185 C188 1.346 . S
N185 C189 1.345 . S
C186 C187 1.387 . S
C186 C190 1.391 . S
C187 C186 1.387 . S
C187 C188 1.369 . S
C187 H196 0.929 . S
C188 N185 1.346 . S
C188 C187 1.369 . S
C188 H191 0.928 . S
C189 N185 1.345 . S
C189 C190 1.371 . S
C189 H192 0.931 . S
C190 C186 1.391 . S
C190 C189 1.371 . S
C190 H197 0.930 . S
H191 C188 0.928 . S
H192 C189 0.931 . S
H193 C169 0.930 . S
H194 C166 0.930 . S
H195 C175 0.930 . S
H196 C187 0.929 . S
H197 C190 0.930 . S
C198 C199 1.351 . S
C198 N201 1.368 . S
C198 H203 0.931 . S
C199 C198 1.351 . S
C199 N200 1.373 . S
C199 H227 0.930 . S
N200 C199 1.373 . S
N200 C202 1.340 . S
N201 C198 1.368 . S
N201 C202 1.321 . S
N201 Co204 2.135 1_554 S
C202 N200 1.340 . S
C202 N201 1.321 . S
C202 H226 0.930 . S
H203 C198 0.931 . S
Co204 N201 2.135 1_556 S
Co204 N207 2.121 . S
Co204 O212 2.055 1_556 S
Co204 O215 2.039 . S
Co204 N218 2.140 . S
C205 O206 1.227 . S
C205 O215 1.265 . S
O206 C205 1.227 . S
N207 Co204 2.121 . S
N207 C209 1.375 . S
N207 C210 1.313 1_545 S
C208 C209 1.338 1_565 S
C208 N211 1.377 . S
C208 H228 0.930 . S
C209 N207 1.375 . S
C209 C208 1.338 1_545 S
C209 H213 0.931 . S
C210 N207 1.313 1_565 S
C210 N211 1.344 . S
C210 H214 0.930 . S
N211 C208 1.377 . S
N211 C210 1.344 . S
O212 Co204 2.055 1_554 S
O212 C216 1.253 1_545 S
H213 C209 0.931 . S
H214 C210 0.930 . S
O215 Co204 2.039 . S
O215 C205 1.265 . S
C216 O212 1.253 1_565 S
C216 O217 1.227 1_564 S
O217 C216 1.227 1_546 S
N218 Co204 2.140 . S
N218 C221 1.346 . S
N218 C222 1.345 . S
C219 C220 1.387 . S
C219 C223 1.391 . S
C220 C219 1.387 . S
C220 C221 1.369 . S
C220 H229 0.929 . S
C221 N218 1.346 . S
C221 C220 1.369 . S
C221 H224 0.928 . S
C222 N218 1.345 . S
C222 C223 1.371 . S
C222 H225 0.931 . S
C223 C219 1.391 . S
C223 C222 1.371 . S
C223 H230 0.930 . S
H224 C221 0.928 . S
H225 C222 0.931 . S
H226 C202 0.930 . S
H227 C199 0.930 . S
H228 C208 0.930 . S
H229 C220 0.929 . S
H230 C223 0.930 . S
C231 C232 1.351 . S
C231 N234 1.368 . S
C231 H236 0.931 . S
C232 C231 1.351 . S
C232 N233 1.373 . S
C232 H260 0.930 . S
N233 C232 1.373 . S
N233 C235 1.340 . S
N234 C231 1.368 . S
N234 C235 1.321 . S
N234 Co237 2.135 1_554 S
C235 N233 1.340 . S
C235 N234 1.321 . S
C235 H259 0.930 . S
H236 C231 0.931 . S
Co237 N234 2.135 1_556 S
Co237 N240 2.121 . S
Co237 O245 2.055 1_556 S
Co237 O248 2.039 . S
Co237 N251 2.140 . S
C238 O239 1.227 . S
C238 O248 1.265 . S
O239 C238 1.227 . S
N240 Co237 2.121 . S
N240 C242 1.375 . S
N240 C243 1.313 . S
C241 C242 1.338 . S
C241 N244 1.377 . S
C241 H261 0.930 . S
C242 N240 1.375 . S
C242 C241 1.338 . S
C242 H246 0.931 . S
C243 N240 1.313 . S
C243 N244 1.344 . S
C243 H247 0.930 . S
N244 C241 1.377 . S
N244 C243 1.344 . S
O245 Co237 2.055 1_554 S
O245 C249 1.253 . S
H246 C242 0.931 . S
H247 C243 0.930 . S
O248 Co237 2.039 . S
O248 C238 1.265 . S
C249 O245 1.253 . S
C249 O250 1.227 1_554 S
O250 C249 1.227 1_556 S
N251 Co237 2.140 . S
N251 C254 1.346 . S
N251 C255 1.345 . S
C252 C253 1.387 . S
C252 C256 1.391 . S
C253 C252 1.387 . S
C253 C254 1.369 . S
C253 H262 0.929 . S
C254 N251 1.346 . S
C254 C253 1.369 . S
C254 H257 0.928 . S
C255 N251 1.345 . S
C255 C256 1.371 . S
C255 H258 0.931 . S
C256 C252 1.391 . S
C256 C255 1.371 . S
C256 H263 0.930 . S
H257 C254 0.928 . S
H258 C255 0.931 . S
H259 C235 0.930 . S
H260 C232 0.930 . S
H261 C241 0.930 . S
H262 C253 0.929 . S
H263 C256 0.930 . S
C264 C265 1.351 . S
C264 N267 1.368 . S
C264 H269 0.931 . S
C265 C264 1.351 . S
C265 N266 1.373 . S
C265 H293 0.930 . S
N266 C265 1.373 . S
N266 C268 1.340 . S
N267 C264 1.368 . S
N267 C268 1.321 . S
N267 Co270 2.135 . S
C268 N266 1.340 . S
C268 N267 1.321 . S
C268 H292 0.930 . S
H269 C264 0.931 . S
Co270 N267 2.135 . S
Co270 N273 2.121 . S
Co270 O278 2.055 . S
Co270 O281 2.039 . S
Co270 N284 2.140 . S
C271 O272 1.227 . S
C271 O281 1.265 . S
O272 C271 1.227 . S
N273 Co270 2.121 . S
N273 C275 1.375 . S
N273 C276 1.313 . S
C274 C275 1.338 . S
C274 N277 1.377 . S
C274 H294 0.930 . S
C275 N273 1.375 . S
C275 C274 1.338 . S
C275 H279 0.931 . S
C276 N273 1.313 . S
C276 N277 1.344 . S
C276 H280 0.930 . S
N277 C274 1.377 . S
N277 C276 1.344 . S
O278 Co270 2.055 . S
O278 C282 1.253 . S
H279 C275 0.931 . S
H280 C276 0.930 . S
O281 Co270 2.039 . S
O281 C271 1.265 . S
C282 O278 1.253 . S
C282 O283 1.227 . S
O283 C282 1.227 . S
N284 Co270 2.140 . S
N284 C287 1.346 . S
N284 C288 1.345 . S
C285 C286 1.387 . S
C285 C289 1.391 . S
C286 C285 1.387 . S
C286 C287 1.369 . S
C286 H295 0.929 . S
C287 N284 1.346 . S
C287 C286 1.369 . S
C287 H290 0.928 . S
C288 N284 1.345 . S
C288 C289 1.371 . S
C288 H291 0.931 . S
C289 C285 1.391 . S
C289 C288 1.371 . S
C289 H296 0.930 . S
H290 C287 0.928 . S
H291 C288 0.931 . S
H292 C268 0.930 . S
H293 C265 0.930 . S
H294 C274 0.930 . S
H295 C286 0.929 . S
H296 C289 0.930 . S
C297 C298 1.351 . S
C297 N300 1.368 . S
C297 H302 0.931 . S
C298 C297 1.351 . S
C298 N299 1.373 . S
C298 H326 0.930 . S
N299 C298 1.373 . S
N299 C301 1.340 . S
N300 C297 1.368 . S
N300 C301 1.321 . S
N300 Co303 2.135 . S
C301 N299 1.340 . S
C301 N300 1.321 . S
C301 H325 0.930 . S
H302 C297 0.931 . S
Co303 N300 2.135 . S
Co303 N306 2.121 . S
Co303 O311 2.055 . S
Co303 O314 2.039 . S
Co303 N317 2.140 . S
C304 O305 1.227 . S
C304 O314 1.265 . S
O305 C304 1.227 . S
N306 Co303 2.121 . S
N306 C308 1.375 . S
N306 C309 1.313 . S
C307 C308 1.338 . S
C307 N310 1.377 . S
C307 H327 0.930 . S
C308 N306 1.375 . S
C308 C307 1.338 . S
C308 H312 0.931 . S
C309 N306 1.313 . S
C309 N310 1.344 . S
C309 H313 0.930 . S
N310 C307 1.377 . S
N310 C309 1.344 . S
O311 Co303 2.055 . S
O311 C315 1.253 . S
H312 C308 0.931 . S
H313 C309 0.930 . S
O314 Co303 2.039 . S
O314 C304 1.265 . S
C315 O311 1.253 . S
C315 O316 1.227 . S
O316 C315 1.227 . S
N317 Co303 2.140 . S
N317 C320 1.346 . S
N317 C321 1.345 . S
C318 C319 1.387 . S
C318 C322 1.391 . S
C319 C318 1.387 . S
C319 C320 1.369 . S
C319 H328 0.929 . S
C320 N317 1.346 . S
C320 C319 1.369 . S
C320 H323 0.928 . S
C321 N317 1.345 . S
C321 C322 1.371 . S
C321 H324 0.931 . S
C322 C318 1.391 . S
C322 C321 1.371 . S
C322 H329 0.930 . S
H323 C320 0.928 . S
H324 C321 0.931 . S
H325 C301 0.930 . S
H326 C298 0.930 . S
H327 C307 0.930 . S
H328 C319 0.929 . S
H329 C322 0.930 . S
C330 C331 1.351 . S
C330 N333 1.368 . S
C330 H335 0.931 . S
C331 C330 1.351 . S
C331 N332 1.373 . S
C331 H359 0.930 . S
N332 C331 1.373 . S
N332 C334 1.340 . S
N333 C330 1.368 . S
N333 C334 1.321 . S
N333 Co336 2.135 . S
C334 N332 1.340 . S
C334 N333 1.321 . S
C334 H358 0.930 . S
H335 C330 0.931 . S
Co336 N333 2.135 . S
Co336 N339 2.121 . S
Co336 O344 2.055 . S
Co336 O347 2.039 . S
Co336 N350 2.140 . S
C337 O338 1.227 . S
C337 O347 1.265 . S
O338 C337 1.227 . S
N339 Co336 2.121 . S
N339 C341 1.375 . S
N339 C342 1.313 . S
C340 C341 1.338 . S
C340 N343 1.377 . S
C340 H360 0.930 . S
C341 N339 1.375 . S
C341 C340 1.338 . S
C341 H345 0.931 . S
C342 N339 1.313 . S
C342 N343 1.344 . S
C342 H346 0.930 . S
N343 C340 1.377 . S
N343 C342 1.344 . S
O344 Co336 2.055 . S
O344 C348 1.253 . S
H345 C341 0.931 . S
H346 C342 0.930 . S
O347 Co336 2.039 . S
O347 C337 1.265 . S
C348 O344 1.253 . S
C348 O349 1.227 . S
O349 C348 1.227 . S
N350 Co336 2.140 . S
N350 C353 1.346 . S
N350 C354 1.345 . S
C351 C352 1.387 . S
C351 C355 1.391 . S
C352 C351 1.387 . S
C352 C353 1.369 . S
C352 H361 0.929 . S
C353 N350 1.346 . S
C353 C352 1.369 . S
C353 H356 0.928 . S
C354 N350 1.345 . S
C354 C355 1.371 . S
C354 H357 0.931 . S
C355 C351 1.391 . S
C355 C354 1.371 . S
C355 H362 0.930 . S
H356 C353 0.928 . S
H357 C354 0.931 . S
H358 C334 0.930 . S
H359 C331 0.930 . S
H360 C340 0.930 . S
H361 C352 0.929 . S
H362 C355 0.930 . S
C363 C364 1.351 . S
C363 N366 1.368 . S
C363 H368 0.931 . S
C364 C363 1.351 . S
C364 N365 1.373 . S
C364 H392 0.930 . S
N365 C364 1.373 . S
N365 C367 1.340 . S
N366 C363 1.368 . S
N366 C367 1.321 . S
N366 Co369 2.135 . S
C367 N365 1.340 . S
C367 N366 1.321 . S
C367 H391 0.930 . S
H368 C363 0.931 . S
Co369 N366 2.135 . S
Co369 N372 2.121 . S
Co369 O377 2.055 . S
Co369 O380 2.039 . S
Co369 N383 2.140 . S
C370 O371 1.227 . S
C370 O380 1.265 . S
O371 C370 1.227 . S
N372 Co369 2.121 . S
N372 C374 1.375 . S
N372 C375 1.313 . S
C373 C374 1.338 . S
C373 N376 1.377 . S
C373 H393 0.930 . S
C374 N372 1.375 . S
C374 C373 1.338 . S
C374 H378 0.931 . S
C375 N372 1.313 . S
C375 N376 1.344 . S
C375 H379 0.930 . S
N376 C373 1.377 . S
N376 C375 1.344 . S
O377 Co369 2.055 . S
O377 C381 1.253 . S
H378 C374 0.931 . S
H379 C375 0.930 . S
O380 Co369 2.039 . S
O380 C370 1.265 . S
C381 O377 1.253 . S
C381 O382 1.227 . S
O382 C381 1.227 . S
N383 Co369 2.140 . S
N383 C386 1.346 . S
N383 C387 1.345 . S
C384 C385 1.387 . S
C384 C388 1.391 . S
C385 C384 1.387 . S
C385 C386 1.369 . S
C385 H394 0.929 . S
C386 N383 1.346 . S
C386 C385 1.369 . S
C386 H389 0.928 . S
C387 N383 1.345 . S
C387 C388 1.371 . S
C387 H390 0.931 . S
C388 C384 1.391 . S
C388 C387 1.371 . S
C388 H395 0.930 . S
H389 C386 0.928 . S
H390 C387 0.931 . S
H391 C367 0.930 . S
H392 C364 0.930 . S
H393 C373 0.930 . S
H394 C385 0.929 . S
H395 C388 0.930 . S
C396 C397 1.351 . S
C396 N399 1.368 . S
C396 H401 0.931 . S
C397 C396 1.351 . S
C397 N398 1.373 . S
C397 H425 0.930 . S
N398 C397 1.373 . S
N398 C400 1.340 . S
N399 C396 1.368 . S
N399 C400 1.321 . S
N399 Co402 2.135 . S
C400 N398 1.340 . S
C400 N399 1.321 . S
C400 H424 0.930 . S
H401 C396 0.931 . S
Co402 N399 2.135 . S
Co402 N405 2.121 . S
Co402 O410 2.055 . S
Co402 O413 2.039 . S
Co402 N416 2.140 . S
C403 O404 1.227 . S
C403 O413 1.265 . S
O404 C403 1.227 . S
N405 Co402 2.121 . S
N405 C407 1.375 . S
N405 C408 1.313 . S
C406 C407 1.338 . S
C406 N409 1.377 . S
C406 H426 0.930 . S
C407 N405 1.375 . S
C407 C406 1.338 . S
C407 H411 0.931 . S
C408 N405 1.313 . S
C408 N409 1.344 . S
C408 H412 0.930 . S
N409 C406 1.377 . S
N409 C408 1.344 . S
O410 Co402 2.055 . S
O410 C414 1.253 . S
H411 C407 0.931 . S
H412 C408 0.930 . S
O413 Co402 2.039 . S
O413 C403 1.265 . S
C414 O410 1.253 . S
C414 O415 1.227 . S
O415 C414 1.227 . S
N416 Co402 2.140 . S
N416 C419 1.346 . S
N416 C420 1.345 . S
C417 C418 1.387 . S
C417 C421 1.391 . S
C418 C417 1.387 . S
C418 C419 1.369 . S
C418 H427 0.929 . S
C419 N416 1.346 . S
C419 C418 1.369 . S
C419 H422 0.928 . S
C420 N416 1.345 . S
C420 C421 1.371 . S
C420 H423 0.931 . S
C421 C417 1.391 . S
C421 C420 1.371 . S
C421 H428 0.930 . S
H422 C419 0.928 . S
H423 C420 0.931 . S
H424 C400 0.930 . S
H425 C397 0.930 . S
H426 C406 0.930 . S
H427 C418 0.929 . S
H428 C421 0.930 . S
C429 C430 1.351 . S
C429 N432 1.368 . S
C429 H434 0.931 . S
C430 C429 1.351 . S
C430 N431 1.373 . S
C430 H458 0.930 . S
N431 C430 1.373 . S
N431 C433 1.340 . S
N432 C429 1.368 . S
N432 C433 1.321 . S
N432 Co435 2.135 . S
C433 N431 1.340 . S
C433 N432 1.321 . S
C433 H457 0.930 . S
H434 C429 0.931 . S
Co435 N432 2.135 . S
Co435 N438 2.121 . S
Co435 O443 2.055 . S
Co435 O446 2.039 . S
Co435 N449 2.140 . S
C436 O437 1.227 . S
C436 O446 1.265 . S
O437 C436 1.227 . S
N438 Co435 2.121 . S
N438 C440 1.375 . S
N438 C441 1.313 . S
C439 C440 1.338 . S
C439 N442 1.377 . S
C439 H459 0.930 . S
C440 N438 1.375 . S
C440 C439 1.338 . S
C440 H444 0.931 . S
C441 N438 1.313 . S
C441 N442 1.344 . S
C441 H445 0.930 . S
N442 C439 1.377 . S
N442 C441 1.344 . S
O443 Co435 2.055 . S
O443 C447 1.253 . S
H444 C440 0.931 . S
H445 C441 0.930 . S
O446 Co435 2.039 . S
O446 C436 1.265 . S
C447 O443 1.253 . S
C447 O448 1.227 . S
O448 C447 1.227 . S
N449 Co435 2.140 . S
N449 C452 1.346 . S
N449 C453 1.345 . S
C450 C451 1.387 . S
C450 C454 1.391 . S
C451 C450 1.387 . S
C451 C452 1.369 . S
C451 H460 0.929 . S
C452 N449 1.346 . S
C452 C451 1.369 . S
C452 H455 0.928 . S
C453 N449 1.345 . S
C453 C454 1.371 . S
C453 H456 0.931 . S
C454 C450 1.391 . S
C454 C453 1.371 . S
C454 H461 0.930 . S
H455 C452 0.928 . S
H456 C453 0.931 . S
H457 C433 0.930 . S
H458 C430 0.930 . S
H459 C439 0.930 . S
H460 C451 0.929 . S
H461 C454 0.930 . S
C462 C463 1.351 . S
C462 N465 1.368 . S
C462 H467 0.931 . S
C463 C462 1.351 . S
C463 N464 1.373 . S
C463 H491 0.930 . S
N464 C463 1.373 . S
N464 C466 1.340 . S
N465 C462 1.368 . S
N465 C466 1.321 . S
N465 Co468 2.135 . S
C466 N464 1.340 . S
C466 N465 1.321 . S
C466 H490 0.930 . S
H467 C462 0.931 . S
Co468 N465 2.135 . S
Co468 N471 2.121 . S
Co468 O476 2.055 . S
Co468 O479 2.039 . S
Co468 N482 2.140 . S
C469 O470 1.227 . S
C469 O479 1.265 . S
O470 C469 1.227 . S
N471 Co468 2.121 . S
N471 C473 1.375 . S
N471 C474 1.313 . S
C472 C473 1.338 . S
C472 N475 1.377 . S
C472 H492 0.930 . S
C473 N471 1.375 . S
C473 C472 1.338 . S
C473 H477 0.931 . S
C474 N471 1.313 . S
C474 N475 1.344 . S
C474 H478 0.930 . S
N475 C472 1.377 . S
N475 C474 1.344 . S
O476 Co468 2.055 . S
O476 C480 1.253 . S
H477 C473 0.931 . S
H478 C474 0.930 . S
O479 Co468 2.039 . S
O479 C469 1.265 . S
C480 O476 1.253 . S
C480 O481 1.227 . S
O481 C480 1.227 . S
N482 Co468 2.140 . S
N482 C485 1.346 . S
N482 C486 1.345 . S
C483 C484 1.387 . S
C483 C487 1.391 . S
C484 C483 1.387 . S
C484 C485 1.369 . S
C484 H493 0.929 . S
C485 N482 1.346 . S
C485 C484 1.369 . S
C485 H488 0.928 . S
C486 N482 1.345 . S
C486 C487 1.371 . S
C486 H489 0.931 . S
C487 C483 1.391 . S
C487 C486 1.371 . S
C487 H494 0.930 . S
H488 C485 0.928 . S
H489 C486 0.931 . S
H490 C466 0.930 . S
H491 C463 0.930 . S
H492 C472 0.930 . S
H493 C484 0.929 . S
H494 C487 0.930 . S
C495 C496 1.351 . S
C495 N498 1.368 . S
C495 H500 0.931 . S
C496 C495 1.351 . S
C496 N497 1.373 . S
C496 H524 0.930 . S
N497 C496 1.373 . S
N497 C499 1.340 . S
N498 C495 1.368 . S
N498 C499 1.321 . S
N498 Co501 2.135 . S
C499 N497 1.340 . S
C499 N498 1.321 . S
C499 H523 0.930 . S
H500 C495 0.931 . S
Co501 N498 2.135 . S
Co501 N504 2.121 . S
Co501 O509 2.055 . S
Co501 O512 2.039 . S
Co501 N515 2.140 . S
C502 O503 1.227 . S
C502 O512 1.265 . S
O503 C502 1.227 . S
N504 Co501 2.121 . S
N504 C506 1.375 . S
N504 C507 1.313 . S
C505 C506 1.338 . S
C505 N508 1.377 . S
C505 H525 0.930 . S
C506 N504 1.375 . S
C506 C505 1.338 . S
C506 H510 0.931 . S
C507 N504 1.313 . S
C507 N508 1.344 . S
C507 H511 0.930 . S
N508 C505 1.377 . S
N508 C507 1.344 . S
O509 Co501 2.055 . S
O509 C513 1.253 . S
H510 C506 0.931 . S
H511 C507 0.930 . S
O512 Co501 2.039 . S
O512 C502 1.265 . S
C513 O509 1.253 . S
C513 O514 1.227 . S
O514 C513 1.227 . S
N515 Co501 2.140 . S
N515 C518 1.346 . S
N515 C519 1.345 . S
C516 C517 1.387 . S
C516 C520 1.391 . S
C517 C516 1.387 . S
C517 C518 1.369 . S
C517 H526 0.929 . S
C518 N515 1.346 . S
C518 C517 1.369 . S
C518 H521 0.928 . S
C519 N515 1.345 . S
C519 C520 1.371 . S
C519 H522 0.931 . S
C520 C516 1.391 . S
C520 C519 1.371 . S
C520 H527 0.930 . S
H521 C518 0.928 . S
H522 C519 0.931 . S
H523 C499 0.930 . S
H524 C496 0.930 . S
H525 C505 0.930 . S
H526 C517 0.929 . S
H527 C520 0.930 . S
C528 C529 1.351 . S
C528 N531 1.368 . S
C528 H533 0.931 . S
C529 C528 1.351 . S
C529 N530 1.373 . S
C529 H557 0.930 . S
N530 C529 1.373 . S
N530 C532 1.340 . S
N531 C528 1.368 . S
N531 C532 1.321 . S
N531 Co534 2.135 . S
C532 N530 1.340 . S
C532 N531 1.321 . S
C532 H556 0.930 . S
H533 C528 0.931 . S
Co534 N531 2.135 . S
Co534 N537 2.121 . S
Co534 O542 2.055 . S
Co534 O545 2.039 . S
Co534 N548 2.140 . S
C535 O536 1.227 . S
C535 O545 1.265 . S
O536 C535 1.227 . S
N537 Co534 2.121 . S
N537 C539 1.375 . S
N537 C540 1.313 . S
C538 C539 1.338 . S
C538 N541 1.377 . S
C538 H558 0.930 . S
C539 N537 1.375 . S
C539 C538 1.338 . S
C539 H543 0.931 . S
C540 N537 1.313 . S
C540 N541 1.344 . S
C540 H544 0.930 . S
N541 C538 1.377 . S
N541 C540 1.344 . S
O542 Co534 2.055 . S
O542 C546 1.253 . S
H543 C539 0.931 . S
H544 C540 0.930 . S
O545 Co534 2.039 . S
O545 C535 1.265 . S
C546 O542 1.253 . S
C546 O547 1.227 . S
O547 C546 1.227 . S
N548 Co534 2.140 . S
N548 C551 1.346 . S
N548 C552 1.345 . S
C549 C550 1.387 . S
C549 C553 1.391 . S
C550 C549 1.387 . S
C550 C551 1.369 . S
C550 H559 0.929 . S
C551 N548 1.346 . S
C551 C550 1.369 . S
C551 H554 0.928 . S
C552 N548 1.345 . S
C552 C553 1.371 . S
C552 H555 0.931 . S
C553 C549 1.391 . S
C553 C552 1.371 . S
C553 H560 0.930 . S
H554 C551 0.928 . S
H555 C552 0.931 . S
H556 C532 0.930 . S
H557 C529 0.930 . S
H558 C538 0.930 . S
H559 C550 0.929 . S
H560 C553 0.930 . S
C561 C562 1.351 . S
C561 N564 1.368 . S
C561 H566 0.931 . S
C562 C561 1.351 . S
C562 N563 1.373 . S
C562 H590 0.930 . S
N563 C562 1.373 . S
N563 C565 1.340 . S
N564 C561 1.368 . S
N564 C565 1.321 . S
N564 Co567 2.135 . S
C565 N563 1.340 . S
C565 N564 1.321 . S
C565 H589 0.930 . S
H566 C561 0.931 . S
Co567 N564 2.135 . S
Co567 N570 2.121 . S
Co567 O575 2.055 . S
Co567 O578 2.039 . S
Co567 N581 2.140 . S
C568 O569 1.227 . S
C568 O578 1.265 . S
O569 C568 1.227 . S
N570 Co567 2.121 . S
N570 C572 1.375 . S
N570 C573 1.313 1_565 S
C571 C572 1.338 1_545 S
C571 N574 1.377 . S
C571 H591 0.930 . S
C572 N570 1.375 . S
C572 C571 1.338 1_565 S
C572 H576 0.931 . S
C573 N570 1.313 1_545 S
C573 N574 1.344 . S
C573 H577 0.930 . S
N574 C571 1.377 . S
N574 C573 1.344 . S
O575 Co567 2.055 . S
O575 C579 1.253 1_565 S
H576 C572 0.931 . S
H577 C573 0.930 . S
O578 Co567 2.039 . S
O578 C568 1.265 . S
C579 O575 1.253 1_545 S
C579 O580 1.227 1_545 S
O580 C579 1.227 1_565 S
N581 Co567 2.140 . S
N581 C584 1.346 . S
N581 C585 1.345 . S
C582 C583 1.387 . S
C582 C586 1.391 . S
C583 C582 1.387 . S
C583 C584 1.369 . S
C583 H592 0.929 . S
C584 N581 1.346 . S
C584 C583 1.369 . S
C584 H587 0.928 . S
C585 N581 1.345 . S
C585 C586 1.371 . S
C585 H588 0.931 . S
C586 C582 1.391 . S
C586 C585 1.371 . S
C586 H593 0.930 . S
H587 C584 0.928 . S
H588 C585 0.931 . S
H589 C565 0.930 . S
H590 C562 0.930 . S
H591 C571 0.930 . S
H592 C583 0.929 . S
H593 C586 0.930 . S
C594 C595 1.351 . S
C594 N597 1.368 . S
C594 H599 0.931 . S
C595 C594 1.351 . S
C595 N596 1.373 . S
C595 H623 0.930 . S
N596 C595 1.373 . S
N596 C598 1.340 . S
N597 C594 1.368 . S
N597 C598 1.321 . S
N597 Co600 2.135 . S
C598 N596 1.340 . S
C598 N597 1.321 . S
C598 H622 0.930 . S
H599 C594 0.931 . S
Co600 N597 2.135 . S
Co600 N603 2.121 . S
Co600 O608 2.055 . S
Co600 O611 2.039 . S
Co600 N614 2.140 . S
C601 O602 1.227 . S
C601 O611 1.265 . S
O602 C601 1.227 . S
N603 Co600 2.121 . S
N603 C605 1.375 . S
N603 C606 1.313 1_565 S
C604 C605 1.338 1_545 S
C604 N607 1.377 . S
C604 H624 0.930 . S
C605 N603 1.375 . S
C605 C604 1.338 1_565 S
C605 H609 0.931 . S
C606 N603 1.313 1_545 S
C606 N607 1.344 . S
C606 H610 0.930 . S
N607 C604 1.377 . S
N607 C606 1.344 . S
O608 Co600 2.055 . S
O608 C612 1.253 1_565 S
H609 C605 0.931 . S
H610 C606 0.930 . S
O611 Co600 2.039 . S
O611 C601 1.265 . S
C612 O608 1.253 1_545 S
C612 O613 1.227 1_545 S
O613 C612 1.227 1_565 S
N614 Co600 2.140 . S
N614 C617 1.346 . S
N614 C618 1.345 . S
C615 C616 1.387 . S
C615 C619 1.391 . S
C616 C615 1.387 . S
C616 C617 1.369 . S
C616 H625 0.929 . S
C617 N614 1.346 . S
C617 C616 1.369 . S
C617 H620 0.928 . S
C618 N614 1.345 . S
C618 C619 1.371 . S
C618 H621 0.931 . S
C619 C615 1.391 . S
C619 C618 1.371 . S
C619 H626 0.930 . S
H620 C617 0.928 . S
H621 C618 0.931 . S
H622 C598 0.930 . S
H623 C595 0.930 . S
H624 C604 0.930 . S
H625 C616 0.929 . S
H626 C619 0.930 . S
C627 C628 1.351 . S
C627 N630 1.368 . S
C627 H632 0.931 . S
C628 C627 1.351 . S
C628 N629 1.373 . S
C628 H656 0.930 . S
N629 C628 1.373 . S
N629 C631 1.340 . S
N630 C627 1.368 . S
N630 C631 1.321 . S
N630 Co633 2.135 . S
C631 N629 1.340 . S
C631 N630 1.321 . S
C631 H655 0.930 . S
H632 C627 0.931 . S
Co633 N630 2.135 . S
Co633 N636 2.121 . S
Co633 O641 2.055 . S
Co633 O644 2.039 . S
Co633 N647 2.140 . S
C634 O635 1.227 . S
C634 O644 1.265 . S
O635 C634 1.227 . S
N636 Co633 2.121 . S
N636 C638 1.375 . S
N636 C639 1.313 . S
C637 C638 1.338 . S
C637 N640 1.377 . S
C637 H657 0.930 . S
C638 N636 1.375 . S
C638 C637 1.338 . S
C638 H642 0.931 . S
C639 N636 1.313 . S
C639 N640 1.344 . S
C639 H643 0.930 . S
N640 C637 1.377 . S
N640 C639 1.344 . S
O641 Co633 2.055 . S
O641 C645 1.253 . S
H642 C638 0.931 . S
H643 C639 0.930 . S
O644 Co633 2.039 . S
O644 C634 1.265 . S
C645 O641 1.253 . S
C645 O646 1.227 . S
O646 C645 1.227 . S
N647 Co633 2.140 . S
N647 C650 1.346 . S
N647 C651 1.345 . S
C648 C649 1.387 . S
C648 C652 1.391 . S
C649 C648 1.387 . S
C649 C650 1.369 . S
C649 H658 0.929 . S
C650 N647 1.346 . S
C650 C649 1.369 . S
C650 H653 0.928 . S
C651 N647 1.345 . S
C651 C652 1.371 . S
C651 H654 0.931 . S
C652 C648 1.391 . S
C652 C651 1.371 . S
C652 H659 0.930 . S
H653 C650 0.928 . S
H654 C651 0.931 . S
H655 C631 0.930 . S
H656 C628 0.930 . S
H657 C637 0.930 . S
H658 C649 0.929 . S
H659 C652 0.930 . S
C660 C661 1.351 . S
C660 N663 1.368 . S
C660 H665 0.931 . S
C661 C660 1.351 . S
C661 N662 1.373 . S
C661 H689 0.930 . S
N662 C661 1.373 . S
N662 C664 1.340 . S
N663 C660 1.368 . S
N663 C664 1.321 . S
N663 Co666 2.135 . S
C664 N662 1.340 . S
C664 N663 1.321 . S
C664 H688 0.930 . S
H665 C660 0.931 . S
Co666 N663 2.135 . S
Co666 N669 2.121 . S
Co666 O674 2.055 . S
Co666 O677 2.039 . S
Co666 N680 2.140 . S
C667 O668 1.227 . S
C667 O677 1.265 . S
O668 C667 1.227 . S
N669 Co666 2.121 . S
N669 C671 1.375 . S
N669 C672 1.313 . S
C670 C671 1.338 . S
C670 N673 1.377 . S
C670 H690 0.930 . S
C671 N669 1.375 . S
C671 C670 1.338 . S
C671 H675 0.931 . S
C672 N669 1.313 . S
C672 N673 1.344 . S
C672 H676 0.930 . S
N673 C670 1.377 . S
N673 C672 1.344 . S
O674 Co666 2.055 . S
O674 C678 1.253 . S
H675 C671 0.931 . S
H676 C672 0.930 . S
O677 Co666 2.039 . S
O677 C667 1.265 . S
C678 O674 1.253 . S
C678 O679 1.227 . S
O679 C678 1.227 . S
N680 Co666 2.140 . S
N680 C683 1.346 . S
N680 C684 1.345 . S
C681 C682 1.387 . S
C681 C685 1.391 . S
C682 C681 1.387 . S
C682 C683 1.369 . S
C682 H691 0.929 . S
C683 N680 1.346 . S
C683 C682 1.369 . S
C683 H686 0.928 . S
C684 N680 1.345 . S
C684 C685 1.371 . S
C684 H687 0.931 . S
C685 C681 1.391 . S
C685 C684 1.371 . S
C685 H692 0.930 . S
H686 C683 0.928 . S
H687 C684 0.931 . S
H688 C664 0.930 . S
H689 C661 0.930 . S
H690 C670 0.930 . S
H691 C682 0.929 . S
H692 C685 0.930 . S
C693 C694 1.351 . S
C693 N696 1.368 . S
C693 H698 0.931 . S
C694 C693 1.351 . S
C694 N695 1.373 . S
C694 H722 0.930 . S
N695 C694 1.373 . S
N695 C697 1.340 . S
N696 C693 1.368 . S
N696 C697 1.321 . S
N696 Co699 2.135 . S
C697 N695 1.340 . S
C697 N696 1.321 . S
C697 H721 0.930 . S
H698 C693 0.931 . S
Co699 N696 2.135 . S
Co699 N702 2.121 . S
Co699 O707 2.055 . S
Co699 O710 2.039 . S
Co699 N713 2.140 . S
C700 O701 1.227 . S
C700 O710 1.265 . S
O701 C700 1.227 . S
N702 Co699 2.121 . S
N702 C704 1.375 . S
N702 C705 1.313 1_545 S
C703 C704 1.338 1_565 S
C703 N706 1.377 . S
C703 H723 0.930 . S
C704 N702 1.375 . S
C704 C703 1.338 1_545 S
C704 H708 0.931 . S
C705 N702 1.313 1_565 S
C705 N706 1.344 . S
C705 H709 0.930 . S
N706 C703 1.377 . S
N706 C705 1.344 . S
O707 Co699 2.055 . S
O707 C711 1.253 1_545 S
H708 C704 0.931 . S
H709 C705 0.930 . S
O710 Co699 2.039 . S
O710 C700 1.265 . S
C711 O707 1.253 1_565 S
C711 O712 1.227 1_565 S
O712 C711 1.227 1_545 S
N713 Co699 2.140 . S
N713 C716 1.346 . S
N713 C717 1.345 . S
C714 C715 1.387 . S
C714 C718 1.391 . S
C715 C714 1.387 . S
C715 C716 1.369 . S
C715 H724 0.929 . S
C716 N713 1.346 . S
C716 C715 1.369 . S
C716 H719 0.928 . S
C717 N713 1.345 . S
C717 C718 1.371 . S
C717 H720 0.931 . S
C718 C714 1.391 . S
C718 C717 1.371 . S
C718 H725 0.930 . S
H719 C716 0.928 . S
H720 C717 0.931 . S
H721 C697 0.930 . S
H722 C694 0.930 . S
H723 C703 0.930 . S
H724 C715 0.929 . S
H725 C718 0.930 . S
C726 C727 1.351 . S
C726 N729 1.368 . S
C726 H731 0.931 . S
C727 C726 1.351 . S
C727 N728 1.373 . S
C727 H755 0.930 . S
N728 C727 1.373 . S
N728 C730 1.340 . S
N729 C726 1.368 . S
N729 C730 1.321 . S
N729 Co732 2.135 . S
C730 N728 1.340 . S
C730 N729 1.321 . S
C730 H754 0.930 . S
H731 C726 0.931 . S
Co732 N729 2.135 . S
Co732 N735 2.121 . S
Co732 O740 2.055 . S
Co732 O743 2.039 . S
Co732 N746 2.140 . S
C733 O734 1.227 . S
C733 O743 1.265 . S
O734 C733 1.227 . S
N735 Co732 2.121 . S
N735 C737 1.375 . S
N735 C738 1.313 1_545 S
C736 C737 1.338 1_565 S
C736 N739 1.377 . S
C736 H756 0.930 . S
C737 N735 1.375 . S
C737 C736 1.338 1_545 S
C737 H741 0.931 . S
C738 N735 1.313 1_565 S
C738 N739 1.344 . S
C738 H742 0.930 . S
N739 C736 1.377 . S
N739 C738 1.344 . S
O740 Co732 2.055 . S
O740 C744 1.253 1_545 S
H741 C737 0.931 . S
H742 C738 0.930 . S
O743 Co732 2.039 . S
O743 C733 1.265 . S
C744 O740 1.253 1_565 S
C744 O745 1.227 1_565 S
O745 C744 1.227 1_545 S
N746 Co732 2.140 . S
N746 C749 1.346 . S
N746 C750 1.345 . S
C747 C748 1.387 . S
C747 C751 1.391 . S
C748 C747 1.387 . S
C748 C749 1.369 . S
C748 H757 0.929 . S
C749 N746 1.346 . S
C749 C748 1.369 . S
C749 H752 0.928 . S
C750 N746 1.345 . S
C750 C751 1.371 . S
C750 H753 0.931 . S
C751 C747 1.391 . S
C751 C750 1.371 . S
C751 H758 0.930 . S
H752 C749 0.928 . S
H753 C750 0.931 . S
H754 C730 0.930 . S
H755 C727 0.930 . S
H756 C736 0.930 . S
H757 C748 0.929 . S
H758 C751 0.930 . S
C759 C760 1.351 . S
C759 N762 1.368 . S
C759 H764 0.931 . S
C760 C759 1.351 . S
C760 N761 1.373 . S
C760 H788 0.930 . S
N761 C760 1.373 . S
N761 C763 1.340 . S
N762 C759 1.368 . S
N762 C763 1.321 . S
N762 Co765 2.135 . S
C763 N761 1.340 . S
C763 N762 1.321 . S
C763 H787 0.930 . S
H764 C759 0.931 . S
Co765 N762 2.135 . S
Co765 N768 2.121 . S
Co765 O773 2.055 . S
Co765 O776 2.039 . S
Co765 N779 2.140 . S
C766 O767 1.227 . S
C766 O776 1.265 . S
O767 C766 1.227 . S
N768 Co765 2.121 . S
N768 C770 1.375 . S
N768 C771 1.313 . S
C769 C770 1.338 . S
C769 N772 1.377 . S
C769 H789 0.930 . S
C770 N768 1.375 . S
C770 C769 1.338 . S
C770 H774 0.931 . S
C771 N768 1.313 . S
C771 N772 1.344 . S
C771 H775 0.930 . S
N772 C769 1.377 . S
N772 C771 1.344 . S
O773 Co765 2.055 . S
O773 C777 1.253 . S
H774 C770 0.931 . S
H775 C771 0.930 . S
O776 Co765 2.039 . S
O776 C766 1.265 . S
C777 O773 1.253 . S
C777 O778 1.227 . S
O778 C777 1.227 . S
N779 Co765 2.140 . S
N779 C782 1.346 . S
N779 C783 1.345 . S
C780 C781 1.387 . S
C780 C784 1.391 . S
C781 C780 1.387 . S
C781 C782 1.369 . S
C781 H790 0.929 . S
C782 N779 1.346 . S
C782 C781 1.369 . S
C782 H785 0.928 . S
C783 N779 1.345 . S
C783 C784 1.371 . S
C783 H786 0.931 . S
C784 C780 1.391 . S
C784 C783 1.371 . S
C784 H791 0.930 . S
H785 C782 0.928 . S
H786 C783 0.931 . S
H787 C763 0.930 . S
H788 C760 0.930 . S
H789 C769 0.930 . S
H790 C781 0.929 . S
H791 C784 0.930 . S
C792 C793 1.351 . S
C792 N795 1.368 . S
C792 H797 0.931 . S
C793 C792 1.351 . S
C793 N794 1.373 . S
C793 H821 0.930 . S
N794 C793 1.373 . S
N794 C796 1.340 . S
N795 C792 1.368 . S
N795 C796 1.321 . S
N795 Co798 2.135 . S
C796 N794 1.340 . S
C796 N795 1.321 . S
C796 H820 0.930 . S
H797 C792 0.931 . S
Co798 N795 2.135 . S
Co798 N801 2.121 . S
Co798 O806 2.055 . S
Co798 O809 2.039 . S
Co798 N812 2.140 . S
C799 O800 1.227 . S
C799 O809 1.265 . S
O800 C799 1.227 . S
N801 Co798 2.121 . S
N801 C803 1.375 . S
N801 C804 1.313 . S
C802 C803 1.338 . S
C802 N805 1.377 . S
C802 H822 0.930 . S
C803 N801 1.375 . S
C803 C802 1.338 . S
C803 H807 0.931 . S
C804 N801 1.313 . S
C804 N805 1.344 . S
C804 H808 0.930 . S
N805 C802 1.377 . S
N805 C804 1.344 . S
O806 Co798 2.055 . S
O806 C810 1.253 . S
H807 C803 0.931 . S
H808 C804 0.930 . S
O809 Co798 2.039 . S
O809 C799 1.265 . S
C810 O806 1.253 . S
C810 O811 1.227 . S
O811 C810 1.227 . S
N812 Co798 2.140 . S
N812 C815 1.346 . S
N812 C816 1.345 . S
C813 C814 1.387 . S
C813 C817 1.391 . S
C814 C813 1.387 . S
C814 C815 1.369 . S
C814 H823 0.929 . S
C815 N812 1.346 . S
C815 C814 1.369 . S
C815 H818 0.928 . S
C816 N812 1.345 . S
C816 C817 1.371 . S
C816 H819 0.931 . S
C817 C813 1.391 . S
C817 C816 1.371 . S
C817 H824 0.930 . S
H818 C815 0.928 . S
H819 C816 0.931 . S
H820 C796 0.930 . S
H821 C793 0.930 . S
H822 C802 0.930 . S
H823 C814 0.929 . S
H824 C817 0.930 . S
C825 C826 1.351 . S
C825 N828 1.368 . S
C825 H830 0.931 . S
C826 C825 1.351 . S
C826 N827 1.373 . S
C826 H854 0.930 . S
N827 C826 1.373 . S
N827 C829 1.340 . S
N828 C825 1.368 . S
N828 C829 1.321 . S
N828 Co831 2.135 . S
C829 N827 1.340 . S
C829 N828 1.321 . S
C829 H853 0.930 . S
H830 C825 0.931 . S
Co831 N828 2.135 . S
Co831 N834 2.121 . S
Co831 O839 2.055 . S
Co831 O842 2.039 . S
Co831 N845 2.140 . S
C832 O833 1.227 . S
C832 O842 1.265 . S
O833 C832 1.227 . S
N834 Co831 2.121 . S
N834 C836 1.375 . S
N834 C837 1.313 . S
C835 C836 1.338 . S
C835 N838 1.377 . S
C835 H855 0.930 . S
C836 N834 1.375 . S
C836 C835 1.338 . S
C836 H840 0.931 . S
C837 N834 1.313 . S
C837 N838 1.344 . S
C837 H841 0.930 . S
N838 C835 1.377 . S
N838 C837 1.344 . S
O839 Co831 2.055 . S
O839 C843 1.253 . S
H840 C836 0.931 . S
H841 C837 0.930 . S
O842 Co831 2.039 . S
O842 C832 1.265 . S
C843 O839 1.253 . S
C843 O844 1.227 . S
O844 C843 1.227 . S
N845 Co831 2.140 . S
N845 C848 1.346 . S
N845 C849 1.345 . S
C846 C847 1.387 . S
C846 C850 1.391 . S
C847 C846 1.387 . S
C847 C848 1.369 . S
C847 H856 0.929 . S
C848 N845 1.346 . S
C848 C847 1.369 . S
C848 H851 0.928 . S
C849 N845 1.345 . S
C849 C850 1.371 . S
C849 H852 0.931 . S
C850 C846 1.391 . S
C850 C849 1.371 . S
C850 H857 0.930 . S
H851 C848 0.928 . S
H852 C849 0.931 . S
H853 C829 0.930 . S
H854 C826 0.930 . S
H855 C835 0.930 . S
H856 C847 0.929 . S
H857 C850 0.930 . S
C858 C859 1.351 . S
C858 N861 1.368 . S
C858 H863 0.931 . S
C859 C858 1.351 . S
C859 N860 1.373 . S
C859 H887 0.930 . S
N860 C859 1.373 . S
N860 C862 1.340 . S
N861 C858 1.368 . S
N861 C862 1.321 . S
N861 Co864 2.135 1_556 S
C862 N860 1.340 . S
C862 N861 1.321 . S
C862 H886 0.930 . S
H863 C858 0.931 . S
Co864 N861 2.135 1_554 S
Co864 N867 2.121 . S
Co864 O872 2.055 1_554 S
Co864 O875 2.039 . S
Co864 N878 2.140 . S
C865 O866 1.227 . S
C865 O875 1.265 . S
O866 C865 1.227 . S
N867 Co864 2.121 . S
N867 C869 1.375 . S
N867 C870 1.313 . S
C868 C869 1.338 . S
C868 N871 1.377 . S
C868 H888 0.930 . S
C869 N867 1.375 . S
C869 C868 1.338 . S
C869 H873 0.931 . S
C870 N867 1.313 . S
C870 N871 1.344 . S
C870 H874 0.930 . S
N871 C868 1.377 . S
N871 C870 1.344 . S
O872 Co864 2.055 1_556 S
O872 C876 1.253 . S
H873 C869 0.931 . S
H874 C870 0.930 . S
O875 Co864 2.039 . S
O875 C865 1.265 . S
C876 O872 1.253 . S
C876 O877 1.227 1_556 S
O877 C876 1.227 1_554 S
N878 Co864 2.140 . S
N878 C881 1.346 . S
N878 C882 1.345 . S
C879 C880 1.387 . S
C879 C883 1.391 . S
C880 C879 1.387 . S
C880 C881 1.369 . S
C880 H889 0.929 . S
C881 N878 1.346 . S
C881 C880 1.369 . S
C881 H884 0.928 . S
C882 N878 1.345 . S
C882 C883 1.371 . S
C882 H885 0.931 . S
C883 C879 1.391 . S
C883 C882 1.371 . S
C883 H890 0.930 . S
H884 C881 0.928 . S
H885 C882 0.931 . S
H886 C862 0.930 . S
H887 C859 0.930 . S
H888 C868 0.930 . S
H889 C880 0.929 . S
H890 C883 0.930 . S
C891 C892 1.351 . S
C891 N894 1.368 . S
C891 H896 0.931 . S
C892 C891 1.351 . S
C892 N893 1.373 . S
C892 H920 0.930 . S
N893 C892 1.373 . S
N893 C895 1.340 . S
N894 C891 1.368 . S
N894 C895 1.321 . S
N894 Co897 2.135 1_556 S
C895 N893 1.340 . S
C895 N894 1.321 . S
C895 H919 0.930 . S
H896 C891 0.931 . S
Co897 N894 2.135 1_554 S
Co897 N900 2.121 . S
Co897 O905 2.055 1_554 S
Co897 O908 2.039 . S
Co897 N911 2.140 . S
C898 O899 1.227 . S
C898 O908 1.265 . S
O899 C898 1.227 . S
N900 Co897 2.121 . S
N900 C902 1.375 . S
N900 C903 1.313 . S
C901 C902 1.338 . S
C901 N904 1.377 . S
C901 H921 0.930 . S
C902 N900 1.375 . S
C902 C901 1.338 . S
C902 H906 0.931 . S
C903 N900 1.313 . S
C903 N904 1.344 . S
C903 H907 0.930 . S
N904 C901 1.377 . S
N904 C903 1.344 . S
O905 Co897 2.055 1_556 S
O905 C909 1.253 . S
H906 C902 0.931 . S
H907 C903 0.930 . S
O908 Co897 2.039 . S
O908 C898 1.265 . S
C909 O905 1.253 . S
C909 O910 1.227 1_556 S
O910 C909 1.227 1_554 S
N911 Co897 2.140 . S
N911 C914 1.346 . S
N911 C915 1.345 . S
C912 C913 1.387 . S
C912 C916 1.391 . S
C913 C912 1.387 . S
C913 C914 1.369 . S
C913 H922 0.929 . S
C914 N911 1.346 . S
C914 C913 1.369 . S
C914 H917 0.928 . S
C915 N911 1.345 . S
C915 C916 1.371 . S
C915 H918 0.931 . S
C916 C912 1.391 . S
C916 C915 1.371 . S
C916 H923 0.930 . S
H917 C914 0.928 . S
H918 C915 0.931 . S
H919 C895 0.930 . S
H920 C892 0.930 . S
H921 C901 0.930 . S
H922 C913 0.929 . S
H923 C916 0.930 . S
C924 C925 1.351 . S
C924 N927 1.368 . S
C924 H929 0.931 . S
C925 C924 1.351 . S
C925 N926 1.373 . S
C925 H953 0.930 . S
N926 C925 1.373 . S
N926 C928 1.340 . S
N927 C924 1.368 . S
N927 C928 1.321 . S
N927 Co930 2.135 . S
C928 N926 1.340 . S
C928 N927 1.321 . S
C928 H952 0.930 . S
H929 C924 0.931 . S
Co930 N927 2.135 . S
Co930 N933 2.121 . S
Co930 O938 2.055 . S
Co930 O941 2.039 . S
Co930 N944 2.140 . S
C931 O932 1.227 . S
C931 O941 1.265 . S
O932 C931 1.227 . S
N933 Co930 2.121 . S
N933 C935 1.375 . S
N933 C936 1.313 . S
C934 C935 1.338 . S
C934 N937 1.377 . S
C934 H954 0.930 . S
C935 N933 1.375 . S
C935 C934 1.338 . S
C935 H939 0.931 . S
C936 N933 1.313 . S
C936 N937 1.344 . S
C936 H940 0.930 . S
N937 C934 1.377 . S
N937 C936 1.344 . S
O938 Co930 2.055 . S
O938 C942 1.253 . S
H939 C935 0.931 . S
H940 C936 0.930 . S
O941 Co930 2.039 . S
O941 C931 1.265 . S
C942 O938 1.253 . S
C942 O943 1.227 . S
O943 C942 1.227 . S
N944 Co930 2.140 . S
N944 C947 1.346 . S
N944 C948 1.345 . S
C945 C946 1.387 . S
C945 C949 1.391 . S
C946 C945 1.387 . S
C946 C947 1.369 . S
C946 H955 0.929 . S
C947 N944 1.346 . S
C947 C946 1.369 . S
C947 H950 0.928 . S
C948 N944 1.345 . S
C948 C949 1.371 . S
C948 H951 0.931 . S
C949 C945 1.391 . S
C949 C948 1.371 . S
C949 H956 0.930 . S
H950 C947 0.928 . S
H951 C948 0.931 . S
H952 C928 0.930 . S
H953 C925 0.930 . S
H954 C934 0.930 . S
H955 C946 0.929 . S
H956 C949 0.930 . S
C957 C958 1.351 . S
C957 N960 1.368 . S
C957 H962 0.931 . S
C958 C957 1.351 . S
C958 N959 1.373 . S
C958 H986 0.930 . S
N959 C958 1.373 . S
N959 C961 1.340 . S
N960 C957 1.368 . S
N960 C961 1.321 . S
N960 Co963 2.135 . S
C961 N959 1.340 . S
C961 N960 1.321 . S
C961 H985 0.930 . S
H962 C957 0.931 . S
Co963 N960 2.135 . S
Co963 N966 2.121 . S
Co963 O971 2.055 . S
Co963 O974 2.039 . S
Co963 N977 2.140 . S
C964 O965 1.227 . S
C964 O974 1.265 . S
O965 C964 1.227 . S
N966 Co963 2.121 . S
N966 C968 1.375 . S
N966 C969 1.313 . S
C967 C968 1.338 . S
C967 N970 1.377 . S
C967 H987 0.930 . S
C968 N966 1.375 . S
C968 C967 1.338 . S
C968 H972 0.931 . S
C969 N966 1.313 . S
C969 N970 1.344 . S
C969 H973 0.930 . S
N970 C967 1.377 . S
N970 C969 1.344 . S
O971 Co963 2.055 . S
O971 C975 1.253 . S
H972 C968 0.931 . S
H973 C969 0.930 . S
O974 Co963 2.039 . S
O974 C964 1.265 . S
C975 O971 1.253 . S
C975 O976 1.227 . S
O976 C975 1.227 . S
N977 Co963 2.140 . S
N977 C980 1.346 . S
N977 C981 1.345 . S
C978 C979 1.387 . S
C978 C982 1.391 . S
C979 C978 1.387 . S
C979 C980 1.369 . S
C979 H988 0.929 . S
C980 N977 1.346 . S
C980 C979 1.369 . S
C980 H983 0.928 . S
C981 N977 1.345 . S
C981 C982 1.371 . S
C981 H984 0.931 . S
C982 C978 1.391 . S
C982 C981 1.371 . S
C982 H989 0.930 . S
H983 C980 0.928 . S
H984 C981 0.931 . S
H985 C961 0.930 . S
H986 C958 0.930 . S
H987 C967 0.930 . S
H988 C979 0.929 . S
H989 C982 0.930 . S
C990 C991 1.351 . S
C990 N993 1.368 . S
C990 H995 0.931 . S
C991 C990 1.351 . S
C991 N992 1.373 . S
C991 H1019 0.930 . S
N992 C991 1.373 . S
N992 C994 1.340 . S
N993 C990 1.368 . S
N993 C994 1.321 . S
N993 Co996 2.135 1_554 S
C994 N992 1.340 . S
C994 N993 1.321 . S
C994 H1018 0.930 . S
H995 C990 0.931 . S
Co996 N993 2.135 1_556 S
Co996 N999 2.121 . S
Co996 O1004 2.055 1_556 S
Co996 O1007 2.039 . S
Co996 N1010 2.140 . S
C997 O998 1.227 . S
C997 O1007 1.265 . S
O998 C997 1.227 . S
N999 Co996 2.121 . S
N999 C1001 1.375 . S
N999 C1002 1.313 . S
C1000 C1001 1.338 . S
C1000 N1003 1.377 . S
C1000 H1020 0.930 . S
C1001 N999 1.375 . S
C1001 C1000 1.338 . S
C1001 H1005 0.931 . S
C1002 N999 1.313 . S
C1002 N1003 1.344 . S
C1002 H1006 0.930 . S
N1003 C1000 1.377 . S
N1003 C1002 1.344 . S
O1004 Co996 2.055 1_554 S
O1004 C1008 1.253 . S
H1005 C1001 0.931 . S
H1006 C1002 0.930 . S
O1007 Co996 2.039 . S
O1007 C997 1.265 . S
C1008 O1004 1.253 . S
C1008 O1009 1.227 1_554 S
O1009 C1008 1.227 1_556 S
N1010 Co996 2.140 . S
N1010 C1013 1.346 . S
N1010 C1014 1.345 . S
C1011 C1012 1.387 . S
C1011 C1015 1.391 . S
C1012 C1011 1.387 . S
C1012 C1013 1.369 . S
C1012 H1021 0.929 . S
C1013 N1010 1.346 . S
C1013 C1012 1.369 . S
C1013 H1016 0.928 . S
C1014 N1010 1.345 . S
C1014 C1015 1.371 . S
C1014 H1017 0.931 . S
C1015 C1011 1.391 . S
C1015 C1014 1.371 . S
C1015 H1022 0.930 . S
H1016 C1013 0.928 . S
H1017 C1014 0.931 . S
H1018 C994 0.930 . S
H1019 C991 0.930 . S
H1020 C1000 0.930 . S
H1021 C1012 0.929 . S
H1022 C1015 0.930 . S
C1023 C1024 1.351 . S
C1023 N1026 1.368 . S
C1023 H1028 0.931 . S
C1024 C1023 1.351 . S
C1024 N1025 1.373 . S
C1024 H1052 0.930 . S
N1025 C1024 1.373 . S
N1025 C1027 1.340 . S
N1026 C1023 1.368 . S
N1026 C1027 1.321 . S
N1026 Co1029 2.135 1_554 S
C1027 N1025 1.340 . S
C1027 N1026 1.321 . S
C1027 H1051 0.930 . S
H1028 C1023 0.931 . S
Co1029 N1026 2.135 1_556 S
Co1029 N1032 2.121 . S
Co1029 O1037 2.055 1_556 S
Co1029 O1040 2.039 . S
Co1029 N1043 2.140 . S
C1030 O1031 1.227 . S
C1030 O1040 1.265 . S
O1031 C1030 1.227 . S
N1032 Co1029 2.121 . S
N1032 C1034 1.375 . S
N1032 C1035 1.313 . S
C1033 C1034 1.338 . S
C1033 N1036 1.377 . S
C1033 H1053 0.930 . S
C1034 N1032 1.375 . S
C1034 C1033 1.338 . S
C1034 H1038 0.931 . S
C1035 N1032 1.313 . S
C1035 N1036 1.344 . S
C1035 H1039 0.930 . S
N1036 C1033 1.377 . S
N1036 C1035 1.344 . S
O1037 Co1029 2.055 1_554 S
O1037 C1041 1.253 . S
H1038 C1034 0.931 . S
H1039 C1035 0.930 . S
O1040 Co1029 2.039 . S
O1040 C1030 1.265 . S
C1041 O1037 1.253 . S
C1041 O1042 1.227 1_554 S
O1042 C1041 1.227 1_556 S
N1043 Co1029 2.140 . S
N1043 C1046 1.346 . S
N1043 C1047 1.345 . S
C1044 C1045 1.387 . S
C1044 C1048 1.391 . S
C1045 C1044 1.387 . S
C1045 C1046 1.369 . S
C1045 H1054 0.929 . S
C1046 N1043 1.346 . S
C1046 C1045 1.369 . S
C1046 H1049 0.928 . S
C1047 N1043 1.345 . S
C1047 C1048 1.371 . S
C1047 H1050 0.931 . S
C1048 C1044 1.391 . S
C1048 C1047 1.371 . S
C1048 H1055 0.930 . S
H1049 C1046 0.928 . S
H1050 C1047 0.931 . S
H1051 C1027 0.930 . S
H1052 C1024 0.930 . S
H1053 C1033 0.930 . S
H1054 C1045 0.929 . S
H1055 C1048 0.930 . S
C1056 C1057 1.349 . S
C1056 C1058 1.327 . S
C1056 H1081 0.950 . S
C1057 C1056 1.349 . S
C1057 C1073 1.349 . S
C1058 C1056 1.327 . S
C1058 C1077 1.429 . S
C1058 H1082 0.950 . S
C1059 C1076 1.574 . S
C1059 C1078 1.368 . S
C1059 H1083 0.949 . S
H1060 C1064 0.949 . S
C1061 C1062 1.349 . S
C1061 C1063 1.327 . S
C1061 H1084 0.950 . S
C1062 C1061 1.349 . S
C1062 C1074 1.349 . S
C1063 C1061 1.327 . S
C1063 C1079 1.429 . S
C1063 H1085 0.950 . S
C1064 H1060 0.949 . S
C1064 C1072 1.574 . S
C1064 C1080 1.368 . S
H1065 C1073 0.950 . S
H1066 C1071 0.950 . S
H1067 C1072 0.949 . S
H1068 C1074 0.950 . S
H1069 C1075 0.950 . S
H1070 C1076 0.949 . S
C1071 H1066 0.950 . S
C1071 C1073 1.327 . S
C1071 C1077 1.429 . S
C1072 C1064 1.574 . S
C1072 H1067 0.949 . S
C1072 C1078 1.368 . S
C1073 C1057 1.349 . S
C1073 H1065 0.950 . S
C1073 C1071 1.327 . S
C1074 C1062 1.349 . S
C1074 H1068 0.950 . S
C1074 C1075 1.327 . S
C1075 H1069 0.950 . S
C1075 C1074 1.327 . S
C1075 C1079 1.429 . S
C1076 C1059 1.574 . S
C1076 H1070 0.949 . S
C1076 C1080 1.368 . S
C1077 C1058 1.429 . S
C1077 C1071 1.429 . S
C1077 C1078 1.523 . S
C1078 C1059 1.368 . S
C1078 C1072 1.368 . S
C1078 C1077 1.523 . S
C1079 C1063 1.429 . S
C1079 C1075 1.429 . S
C1079 C1080 1.523 . S
C1080 C1064 1.368 . S
C1080 C1076 1.368 . S
C1080 C1079 1.523 . S
H1081 C1056 0.950 . S
H1082 C1058 0.950 . S
H1083 C1059 0.949 . S
H1084 C1061 0.950 . S
H1085 C1063 0.950 . S
C1086 C1087 1.349 . S
C1086 C1088 1.327 . S
C1086 H1111 0.950 . S
C1087 C1086 1.349 . S
C1087 C1103 1.349 . S
C1088 C1086 1.327 . S
C1088 C1107 1.429 . S
C1088 H1112 0.950 . S
C1089 C1106 1.574 . S
C1089 C1108 1.368 . S
C1089 H1113 0.949 . S
H1090 C1094 0.949 . S
C1091 C1092 1.349 . S
C1091 C1093 1.327 . S
C1091 H1114 0.950 . S
C1092 C1091 1.349 . S
C1092 C1104 1.349 . S
C1093 C1091 1.327 . S
C1093 C1109 1.429 . S
C1093 H1115 0.950 . S
C1094 H1090 0.949 . S
C1094 C1102 1.574 . S
C1094 C1110 1.368 . S
H1095 C1103 0.950 . S
H1096 C1101 0.950 . S
H1097 C1102 0.949 . S
H1098 C1104 0.950 . S
H1099 C1105 0.950 . S
H1100 C1106 0.949 . S
C1101 H1096 0.950 . S
C1101 C1103 1.327 . S
C1101 C1107 1.429 . S
C1102 C1094 1.574 . S
C1102 H1097 0.949 . S
C1102 C1108 1.368 . S
C1103 C1087 1.349 . S
C1103 H1095 0.950 . S
C1103 C1101 1.327 . S
C1104 C1092 1.349 . S
C1104 H1098 0.950 . S
C1104 C1105 1.327 . S
C1105 H1099 0.950 . S
C1105 C1104 1.327 . S
C1105 C1109 1.429 . S
C1106 C1089 1.574 . S
C1106 H1100 0.949 . S
C1106 C1110 1.368 . S
C1107 C1088 1.429 . S
C1107 C1101 1.429 . S
C1107 C1108 1.523 . S
C1108 C1089 1.368 . S
C1108 C1102 1.368 . S
C1108 C1107 1.523 . S
C1109 C1093 1.429 . S
C1109 C1105 1.429 . S
C1109 C1110 1.523 . S
C1110 C1094 1.368 . S
C1110 C1106 1.368 . S
C1110 C1109 1.523 . S
H1111 C1086 0.950 . S
H1112 C1088 0.950 . S
H1113 C1089 0.949 . S
H1114 C1091 0.950 . S
H1115 C1093 0.950 . S
C1116 C1117 1.349 . S
C1116 C1118 1.327 . S
C1116 H1141 0.950 . S
C1117 C1116 1.349 . S
C1117 C1133 1.349 . S
C1118 C1116 1.327 . S
C1118 C1137 1.429 . S
C1118 H1142 0.950 . S
C1119 C1136 1.574 . S
C1119 C1138 1.368 . S
C1119 H1143 0.949 . S
H1120 C1124 0.949 . S
C1121 C1122 1.349 . S
C1121 C1123 1.327 . S
C1121 H1144 0.950 . S
C1122 C1121 1.349 . S
C1122 C1134 1.349 . S
C1123 C1121 1.327 . S
C1123 C1139 1.429 . S
C1123 H1145 0.950 . S
C1124 H1120 0.949 . S
C1124 C1132 1.574 . S
C1124 C1140 1.368 . S
H1125 C1133 0.950 . S
H1126 C1131 0.950 . S
H1127 C1132 0.949 . S
H1128 C1134 0.950 . S
H1129 C1135 0.950 . S
H1130 C1136 0.949 . S
C1131 H1126 0.950 . S
C1131 C1133 1.327 . S
C1131 C1137 1.429 . S
C1132 C1124 1.574 . S
C1132 H1127 0.949 . S
C1132 C1138 1.368 . S
C1133 C1117 1.349 . S
C1133 H1125 0.950 . S
C1133 C1131 1.327 . S
C1134 C1122 1.349 . S
C1134 H1128 0.950 . S
C1134 C1135 1.327 . S
C1135 H1129 0.950 . S
C1135 C1134 1.327 . S
C1135 C1139 1.429 . S
C1136 C1119 1.574 . S
C1136 H1130 0.949 . S
C1136 C1140 1.368 . S
C1137 C1118 1.429 . S
C1137 C1131 1.429 . S
C1137 C1138 1.523 . S
C1138 C1119 1.368 . S
C1138 C1132 1.368 . S
C1138 C1137 1.523 . S
C1139 C1123 1.429 . S
C1139 C1135 1.429 . S
C1139 C1140 1.523 . S
C1140 C1124 1.368 . S
C1140 C1136 1.368 . S
C1140 C1139 1.523 . S
H1141 C1116 0.950 . S
H1142 C1118 0.950 . S
H1143 C1119 0.949 . S
H1144 C1121 0.950 . S
H1145 C1123 0.950 . S
C1146 C1147 1.349 . S
C1146 C1148 1.327 . S
C1146 H1171 0.950 . S
C1147 C1146 1.349 . S
C1147 C1163 1.349 . S
C1148 C1146 1.327 . S
C1148 C1167 1.429 . S
C1148 H1172 0.950 . S
C1149 C1166 1.574 . S
C1149 C1168 1.368 . S
C1149 H1173 0.949 . S
H1150 C1154 0.949 . S
C1151 C1152 1.349 . S
C1151 C1153 1.327 . S
C1151 H1174 0.950 . S
C1152 C1151 1.349 . S
C1152 C1164 1.349 . S
C1153 C1151 1.327 . S
C1153 C1169 1.429 . S
C1153 H1175 0.950 . S
C1154 H1150 0.949 . S
C1154 C1162 1.574 . S
C1154 C1170 1.368 . S
H1155 C1163 0.950 . S
H1156 C1161 0.950 . S
H1157 C1162 0.949 . S
H1158 C1164 0.950 . S
H1159 C1165 0.950 . S
H1160 C1166 0.949 . S
C1161 H1156 0.950 . S
C1161 C1163 1.327 . S
C1161 C1167 1.429 . S
C1162 C1154 1.574 . S
C1162 H1157 0.949 . S
C1162 C1168 1.368 . S
C1163 C1147 1.349 . S
C1163 H1155 0.950 . S
C1163 C1161 1.327 . S
C1164 C1152 1.349 . S
C1164 H1158 0.950 . S
C1164 C1165 1.327 . S
C1165 H1159 0.950 . S
C1165 C1164 1.327 . S
C1165 C1169 1.429 . S
C1166 C1149 1.574 . S
C1166 H1160 0.949 . S
C1166 C1170 1.368 . S
C1167 C1148 1.429 . S
C1167 C1161 1.429 . S
C1167 C1168 1.523 . S
C1168 C1149 1.368 . S
C1168 C1162 1.368 . S
C1168 C1167 1.523 . S
C1169 C1153 1.429 . S
C1169 C1165 1.429 . S
C1169 C1170 1.523 . S
C1170 C1154 1.368 . S
C1170 C1166 1.368 . S
C1170 C1169 1.523 . S
H1171 C1146 0.950 . S
H1172 C1148 0.950 . S
H1173 C1149 0.949 . S
H1174 C1151 0.950 . S
H1175 C1153 0.950 . S
C1176 C1177 1.349 . S
C1176 C1178 1.327 . S
C1176 H1201 0.950 . S
C1177 C1176 1.349 . S
C1177 C1193 1.349 . S
C1178 C1176 1.327 . S
C1178 C1197 1.429 . S
C1178 H1202 0.950 . S
C1179 C1196 1.574 . S
C1179 C1198 1.368 . S
C1179 H1203 0.949 . S
H1180 C1184 0.949 . S
C1181 C1182 1.349 . S
C1181 C1183 1.327 . S
C1181 H1204 0.950 . S
C1182 C1181 1.349 . S
C1182 C1194 1.349 . S
C1183 C1181 1.327 . S
C1183 C1199 1.429 . S
C1183 H1205 0.950 . S
C1184 H1180 0.949 . S
C1184 C1192 1.574 . S
C1184 C1200 1.368 . S
H1185 C1193 0.950 . S
H1186 C1191 0.950 . S
H1187 C1192 0.949 . S
H1188 C1194 0.950 . S
H1189 C1195 0.950 . S
H1190 C1196 0.949 . S
C1191 H1186 0.950 . S
C1191 C1193 1.327 . S
C1191 C1197 1.429 . S
C1192 C1184 1.574 . S
C1192 H1187 0.949 . S
C1192 C1198 1.368 . S
C1193 C1177 1.349 . S
C1193 H1185 0.950 . S
C1193 C1191 1.327 . S
C1194 C1182 1.349 . S
C1194 H1188 0.950 . S
C1194 C1195 1.327 . S
C1195 H1189 0.950 . S
C1195 C1194 1.327 . S
C1195 C1199 1.429 . S
C1196 C1179 1.574 . S
C1196 H1190 0.949 . S
C1196 C1200 1.368 . S
C1197 C1178 1.429 . S
C1197 C1191 1.429 . S
C1197 C1198 1.523 . S
C1198 C1179 1.368 . S
C1198 C1192 1.368 . S
C1198 C1197 1.523 . S
C1199 C1183 1.429 . S
C1199 C1195 1.429 . S
C1199 C1200 1.523 . S
C1200 C1184 1.368 . S
C1200 C1196 1.368 . S
C1200 C1199 1.523 . S
H1201 C1176 0.950 . S
H1202 C1178 0.950 . S
H1203 C1179 0.949 . S
H1204 C1181 0.950 . S
H1205 C1183 0.950 . S
C1206 C1207 1.349 . S
C1206 C1208 1.327 . S
C1206 H1231 0.950 . S
C1207 C1206 1.349 . S
C1207 C1223 1.349 . S
C1208 C1206 1.327 . S
C1208 C1227 1.429 . S
C1208 H1232 0.950 . S
C1209 C1226 1.574 . S
C1209 C1228 1.368 . S
C1209 H1233 0.949 . S
H1210 C1214 0.949 . S
C1211 C1212 1.349 . S
C1211 C1213 1.327 . S
C1211 H1234 0.950 . S
C1212 C1211 1.349 . S
C1212 C1224 1.349 . S
C1213 C1211 1.327 . S
C1213 C1229 1.429 . S
C1213 H1235 0.950 . S
C1214 H1210 0.949 . S
C1214 C1222 1.574 . S
C1214 C1230 1.368 . S
H1215 C1223 0.950 . S
H1216 C1221 0.950 . S
H1217 C1222 0.949 . S
H1218 C1224 0.950 . S
H1219 C1225 0.950 . S
H1220 C1226 0.949 . S
C1221 H1216 0.950 . S
C1221 C1223 1.327 . S
C1221 C1227 1.429 . S
C1222 C1214 1.574 . S
C1222 H1217 0.949 . S
C1222 C1228 1.368 . S
C1223 C1207 1.349 . S
C1223 H1215 0.950 . S
C1223 C1221 1.327 . S
C1224 C1212 1.349 . S
C1224 H1218 0.950 . S
C1224 C1225 1.327 . S
C1225 H1219 0.950 . S
C1225 C1224 1.327 . S
C1225 C1229 1.429 . S
C1226 C1209 1.574 . S
C1226 H1220 0.949 . S
C1226 C1230 1.368 . S
C1227 C1208 1.429 . S
C1227 C1221 1.429 . S
C1227 C1228 1.523 . S
C1228 C1209 1.368 . S
C1228 C1222 1.368 . S
C1228 C1227 1.523 . S
C1229 C1213 1.429 . S
C1229 C1225 1.429 . S
C1229 C1230 1.523 . S
C1230 C1214 1.368 . S
C1230 C1226 1.368 . S
C1230 C1229 1.523 . S
H1231 C1206 0.950 . S
H1232 C1208 0.950 . S
H1233 C1209 0.949 . S
H1234 C1211 0.950 . S
H1235 C1213 0.950 . S
C1236 C1237 1.349 . S
C1236 C1238 1.327 . S
C1236 H1261 0.950 . S
C1237 C1236 1.349 . S
C1237 C1253 1.349 . S
C1238 C1236 1.327 . S
C1238 C1257 1.429 . S
C1238 H1262 0.950 . S
C1239 C1256 1.574 . S
C1239 C1258 1.368 . S
C1239 H1263 0.949 . S
H1240 C1244 0.949 . S
C1241 C1242 1.349 . S
C1241 C1243 1.327 . S
C1241 H1264 0.950 . S
C1242 C1241 1.349 . S
C1242 C1254 1.349 . S
C1243 C1241 1.327 . S
C1243 C1259 1.429 . S
C1243 H1265 0.950 . S
C1244 H1240 0.949 . S
C1244 C1252 1.574 . S
C1244 C1260 1.368 . S
H1245 C1253 0.950 . S
H1246 C1251 0.950 . S
H1247 C1252 0.949 . S
H1248 C1254 0.950 . S
H1249 C1255 0.950 . S
H1250 C1256 0.949 . S
C1251 H1246 0.950 . S
C1251 C1253 1.327 . S
C1251 C1257 1.429 . S
C1252 C1244 1.574 . S
C1252 H1247 0.949 . S
C1252 C1258 1.368 . S
C1253 C1237 1.349 . S
C1253 H1245 0.950 . S
C1253 C1251 1.327 . S
C1254 C1242 1.349 . S
C1254 H1248 0.950 . S
C1254 C1255 1.327 . S
C1255 H1249 0.950 . S
C1255 C1254 1.327 . S
C1255 C1259 1.429 . S
C1256 C1239 1.574 . S
C1256 H1250 0.949 . S
C1256 C1260 1.368 . S
C1257 C1238 1.429 . S
C1257 C1251 1.429 . S
C1257 C1258 1.523 . S
C1258 C1239 1.368 . S
C1258 C1252 1.368 . S
C1258 C1257 1.523 . S
C1259 C1243 1.429 . S
C1259 C1255 1.429 . S
C1259 C1260 1.523 . S
C1260 C1244 1.368 . S
C1260 C1256 1.368 . S
C1260 C1259 1.523 . S
H1261 C1236 0.950 . S
H1262 C1238 0.950 . S
H1263 C1239 0.949 . S
H1264 C1241 0.950 . S
H1265 C1243 0.950 . S
C1266 C1267 1.349 . S
C1266 C1268 1.327 . S
C1266 H1291 0.950 . S
C1267 C1266 1.349 . S
C1267 C1283 1.349 . S
C1268 C1266 1.327 . S
C1268 C1287 1.429 . S
C1268 H1292 0.950 . S
C1269 C1286 1.574 . S
C1269 C1288 1.368 . S
C1269 H1293 0.949 . S
H1270 C1274 0.949 . S
C1271 C1272 1.349 . S
C1271 C1273 1.327 . S
C1271 H1294 0.950 . S
C1272 C1271 1.349 . S
C1272 C1284 1.349 . S
C1273 C1271 1.327 . S
C1273 C1289 1.429 . S
C1273 H1295 0.950 . S
C1274 H1270 0.949 . S
C1274 C1282 1.574 . S
C1274 C1290 1.368 . S
H1275 C1283 0.950 . S
H1276 C1281 0.950 . S
H1277 C1282 0.949 . S
H1278 C1284 0.950 . S
H1279 C1285 0.950 . S
H1280 C1286 0.949 . S
C1281 H1276 0.950 . S
C1281 C1283 1.327 . S
C1281 C1287 1.429 . S
C1282 C1274 1.574 . S
C1282 H1277 0.949 . S
C1282 C1288 1.368 . S
C1283 C1267 1.349 . S
C1283 H1275 0.950 . S
C1283 C1281 1.327 . S
C1284 C1272 1.349 . S
C1284 H1278 0.950 . S
C1284 C1285 1.327 . S
C1285 H1279 0.950 . S
C1285 C1284 1.327 . S
C1285 C1289 1.429 . S
C1286 C1269 1.574 . S
C1286 H1280 0.949 . S
C1286 C1290 1.368 . S
C1287 C1268 1.429 . S
C1287 C1281 1.429 . S
C1287 C1288 1.523 . S
C1288 C1269 1.368 . S
C1288 C1282 1.368 . S
C1288 C1287 1.523 . S
C1289 C1273 1.429 . S
C1289 C1285 1.429 . S
C1289 C1290 1.523 . S
C1290 C1274 1.368 . S
C1290 C1286 1.368 . S
C1290 C1289 1.523 . S
H1291 C1266 0.950 . S
H1292 C1268 0.950 . S
H1293 C1269 0.949 . S
H1294 C1271 0.950 . S
H1295 C1273 0.950 . S
C1296 C1297 1.349 . S
C1296 C1298 1.327 . S
C1296 H1321 0.950 . S
C1297 C1296 1.349 . S
C1297 C1313 1.349 . S
C1298 C1296 1.327 . S
C1298 C1317 1.429 . S
C1298 H1322 0.950 . S
C1299 C1316 1.574 . S
C1299 C1318 1.368 . S
C1299 H1323 0.949 . S
H1300 C1304 0.949 . S
C1301 C1302 1.349 . S
C1301 C1303 1.327 . S
C1301 H1324 0.950 . S
C1302 C1301 1.349 . S
C1302 C1314 1.349 . S
C1303 C1301 1.327 . S
C1303 C1319 1.429 . S
C1303 H1325 0.950 . S
C1304 H1300 0.949 . S
C1304 C1312 1.574 . S
C1304 C1320 1.368 . S
H1305 C1313 0.950 . S
H1306 C1311 0.950 . S
H1307 C1312 0.949 . S
H1308 C1314 0.950 . S
H1309 C1315 0.950 . S
H1310 C1316 0.949 . S
C1311 H1306 0.950 . S
C1311 C1313 1.327 . S
C1311 C1317 1.429 . S
C1312 C1304 1.574 . S
C1312 H1307 0.949 . S
C1312 C1318 1.368 . S
C1313 C1297 1.349 . S
C1313 H1305 0.950 . S
C1313 C1311 1.327 . S
C1314 C1302 1.349 . S
C1314 H1308 0.950 . S
C1314 C1315 1.327 . S
C1315 H1309 0.950 . S
C1315 C1314 1.327 . S
C1315 C1319 1.429 . S
C1316 C1299 1.574 . S
C1316 H1310 0.949 . S
C1316 C1320 1.368 . S
C1317 C1298 1.429 . S
C1317 C1311 1.429 . S
C1317 C1318 1.523 . S
C1318 C1299 1.368 . S
C1318 C1312 1.368 . S
C1318 C1317 1.523 . S
C1319 C1303 1.429 . S
C1319 C1315 1.429 . S
C1319 C1320 1.523 . S
C1320 C1304 1.368 . S
C1320 C1316 1.368 . S
C1320 C1319 1.523 . S
H1321 C1296 0.950 . S
H1322 C1298 0.950 . S
H1323 C1299 0.949 . S
H1324 C1301 0.950 . S
H1325 C1303 0.950 . S
C1326 C1327 1.349 . S
C1326 C1328 1.327 . S
C1326 H1351 0.950 . S
C1327 C1326 1.349 . S
C1327 C1343 1.349 . S
C1328 C1326 1.327 . S
C1328 C1347 1.429 . S
C1328 H1352 0.950 . S
C1329 C1346 1.574 . S
C1329 C1348 1.368 . S
C1329 H1353 0.949 . S
H1330 C1334 0.949 . S
C1331 C1332 1.349 . S
C1331 C1333 1.327 . S
C1331 H1354 0.950 . S
C1332 C1331 1.349 . S
C1332 C1344 1.349 . S
C1333 C1331 1.327 . S
C1333 C1349 1.429 . S
C1333 H1355 0.950 . S
C1334 H1330 0.949 . S
C1334 C1342 1.574 . S
C1334 C1350 1.368 . S
H1335 C1343 0.950 . S
H1336 C1341 0.950 . S
H1337 C1342 0.949 . S
H1338 C1344 0.950 . S
H1339 C1345 0.950 . S
H1340 C1346 0.949 . S
C1341 H1336 0.950 . S
C1341 C1343 1.327 . S
C1341 C1347 1.429 . S
C1342 C1334 1.574 . S
C1342 H1337 0.949 . S
C1342 C1348 1.368 . S
C1343 C1327 1.349 . S
C1343 H1335 0.950 . S
C1343 C1341 1.327 . S
C1344 C1332 1.349 . S
C1344 H1338 0.950 . S
C1344 C1345 1.327 . S
C1345 H1339 0.950 . S
C1345 C1344 1.327 . S
C1345 C1349 1.429 . S
C1346 C1329 1.574 . S
C1346 H1340 0.949 . S
C1346 C1350 1.368 . S
C1347 C1328 1.429 . S
C1347 C1341 1.429 . S
C1347 C1348 1.523 . S
C1348 C1329 1.368 . S
C1348 C1342 1.368 . S
C1348 C1347 1.523 . S
C1349 C1333 1.429 . S
C1349 C1345 1.429 . S
C1349 C1350 1.523 . S
C1350 C1334 1.368 . S
C1350 C1346 1.368 . S
C1350 C1349 1.523 . S
H1351 C1326 0.950 . S
H1352 C1328 0.950 . S
H1353 C1329 0.949 . S
H1354 C1331 0.950 . S
H1355 C1333 0.950 . S
C1356 C1357 1.349 . S
C1356 C1358 1.327 . S
C1356 H1381 0.950 . S
C1357 C1356 1.349 . S
C1357 C1373 1.349 . S
C1358 C1356 1.327 . S
C1358 C1377 1.429 . S
C1358 H1382 0.950 . S
C1359 C1376 1.574 . S
C1359 C1378 1.368 . S
C1359 H1383 0.949 . S
H1360 C1364 0.949 . S
C1361 C1362 1.349 . S
C1361 C1363 1.327 . S
C1361 H1384 0.950 . S
C1362 C1361 1.349 . S
C1362 C1374 1.349 . S
C1363 C1361 1.327 . S
C1363 C1379 1.429 . S
C1363 H1385 0.950 . S
C1364 H1360 0.949 . S
C1364 C1372 1.574 . S
C1364 C1380 1.368 . S
H1365 C1373 0.950 . S
H1366 C1371 0.950 . S
H1367 C1372 0.949 . S
H1368 C1374 0.950 . S
H1369 C1375 0.950 . S
H1370 C1376 0.949 . S
C1371 H1366 0.950 . S
C1371 C1373 1.327 . S
C1371 C1377 1.429 . S
C1372 C1364 1.574 . S
C1372 H1367 0.949 . S
C1372 C1378 1.368 . S
C1373 C1357 1.349 . S
C1373 H1365 0.950 . S
C1373 C1371 1.327 . S
C1374 C1362 1.349 . S
C1374 H1368 0.950 . S
C1374 C1375 1.327 . S
C1375 H1369 0.950 . S
C1375 C1374 1.327 . S
C1375 C1379 1.429 . S
C1376 C1359 1.574 . S
C1376 H1370 0.949 . S
C1376 C1380 1.368 . S
C1377 C1358 1.429 . S
C1377 C1371 1.429 . S
C1377 C1378 1.523 . S
C1378 C1359 1.368 . S
C1378 C1372 1.368 . S
C1378 C1377 1.523 . S
C1379 C1363 1.429 . S
C1379 C1375 1.429 . S
C1379 C1380 1.523 . S
C1380 C1364 1.368 . S
C1380 C1376 1.368 . S
C1380 C1379 1.523 . S
H1381 C1356 0.950 . S
H1382 C1358 0.950 . S
H1383 C1359 0.949 . S
H1384 C1361 0.950 . S
H1385 C1363 0.950 . S
C1386 C1387 1.349 . S
C1386 C1388 1.327 . S
C1386 H1411 0.950 . S
C1387 C1386 1.349 . S
C1387 C1403 1.349 . S
C1388 C1386 1.327 . S
C1388 C1407 1.429 . S
C1388 H1412 0.950 . S
C1389 C1406 1.574 . S
C1389 C1408 1.368 . S
C1389 H1413 0.949 . S
H1390 C1394 0.949 . S
C1391 C1392 1.349 . S
C1391 C1393 1.327 . S
C1391 H1414 0.950 . S
C1392 C1391 1.349 . S
C1392 C1404 1.349 . S
C1393 C1391 1.327 . S
C1393 C1409 1.429 . S
C1393 H1415 0.950 . S
C1394 H1390 0.949 . S
C1394 C1402 1.574 . S
C1394 C1410 1.368 . S
H1395 C1403 0.950 . S
H1396 C1401 0.950 . S
H1397 C1402 0.949 . S
H1398 C1404 0.950 . S
H1399 C1405 0.950 . S
H1400 C1406 0.949 . S
C1401 H1396 0.950 . S
C1401 C1403 1.327 . S
C1401 C1407 1.429 . S
C1402 C1394 1.574 . S
C1402 H1397 0.949 . S
C1402 C1408 1.368 . S
C1403 C1387 1.349 . S
C1403 H1395 0.950 . S
C1403 C1401 1.327 . S
C1404 C1392 1.349 . S
C1404 H1398 0.950 . S
C1404 C1405 1.327 . S
C1405 H1399 0.950 . S
C1405 C1404 1.327 . S
C1405 C1409 1.429 . S
C1406 C1389 1.574 . S
C1406 H1400 0.949 . S
C1406 C1410 1.368 . S
C1407 C1388 1.429 . S
C1407 C1401 1.429 . S
C1407 C1408 1.523 . S
C1408 C1389 1.368 . S
C1408 C1402 1.368 . S
C1408 C1407 1.523 . S
C1409 C1393 1.429 . S
C1409 C1405 1.429 . S
C1409 C1410 1.523 . S
C1410 C1394 1.368 . S
C1410 C1406 1.368 . S
C1410 C1409 1.523 . S
H1411 C1386 0.950 . S
H1412 C1388 0.950 . S
H1413 C1389 0.949 . S
H1414 C1391 0.950 . S
H1415 C1393 0.950 . S
C1416 C1417 1.349 . S
C1416 C1418 1.327 . S
C1416 H1441 0.950 . S
C1417 C1416 1.349 . S
C1417 C1433 1.349 . S
C1418 C1416 1.327 . S
C1418 C1437 1.429 . S
C1418 H1442 0.950 . S
C1419 C1436 1.574 . S
C1419 C1438 1.368 . S
C1419 H1443 0.949 . S
H1420 C1424 0.949 . S
C1421 C1422 1.349 . S
C1421 C1423 1.327 . S
C1421 H1444 0.950 . S
C1422 C1421 1.349 . S
C1422 C1434 1.349 . S
C1423 C1421 1.327 . S
C1423 C1439 1.429 . S
C1423 H1445 0.950 . S
C1424 H1420 0.949 . S
C1424 C1432 1.574 . S
C1424 C1440 1.368 . S
H1425 C1433 0.950 . S
H1426 C1431 0.950 . S
H1427 C1432 0.949 . S
H1428 C1434 0.950 . S
H1429 C1435 0.950 . S
H1430 C1436 0.949 . S
C1431 H1426 0.950 . S
C1431 C1433 1.327 . S
C1431 C1437 1.429 . S
C1432 C1424 1.574 . S
C1432 H1427 0.949 . S
C1432 C1438 1.368 . S
C1433 C1417 1.349 . S
C1433 H1425 0.950 . S
C1433 C1431 1.327 . S
C1434 C1422 1.349 . S
C1434 H1428 0.950 . S
C1434 C1435 1.327 . S
C1435 H1429 0.950 . S
C1435 C1434 1.327 . S
C1435 C1439 1.429 . S
C1436 C1419 1.574 . S
C1436 H1430 0.949 . S
C1436 C1440 1.368 . S
C1437 C1418 1.429 . S
C1437 C1431 1.429 . S
C1437 C1438 1.523 . S
C1438 C1419 1.368 . S
C1438 C1432 1.368 . S
C1438 C1437 1.523 . S
C1439 C1423 1.429 . S
C1439 C1435 1.429 . S
C1439 C1440 1.523 . S
C1440 C1424 1.368 . S
C1440 C1436 1.368 . S
C1440 C1439 1.523 . S
H1441 C1416 0.950 . S
H1442 C1418 0.950 . S
H1443 C1419 0.949 . S
H1444 C1421 0.950 . S
H1445 C1423 0.950 . S
C1446 C1447 1.349 . S
C1446 C1448 1.327 . S
C1446 H1471 0.950 . S
C1447 C1446 1.349 . S
C1447 C1463 1.349 . S
C1448 C1446 1.327 . S
C1448 C1467 1.429 . S
C1448 H1472 0.950 . S
C1449 C1466 1.574 . S
C1449 C1468 1.368 . S
C1449 H1473 0.949 . S
H1450 C1454 0.949 . S
C1451 C1452 1.349 . S
C1451 C1453 1.327 . S
C1451 H1474 0.950 . S
C1452 C1451 1.349 . S
C1452 C1464 1.349 . S
C1453 C1451 1.327 . S
C1453 C1469 1.429 . S
C1453 H1475 0.950 . S
C1454 H1450 0.949 . S
C1454 C1462 1.574 . S
C1454 C1470 1.368 . S
H1455 C1463 0.950 . S
H1456 C1461 0.950 . S
H1457 C1462 0.949 . S
H1458 C1464 0.950 . S
H1459 C1465 0.950 . S
H1460 C1466 0.949 . S
C1461 H1456 0.950 . S
C1461 C1463 1.327 . S
C1461 C1467 1.429 . S
C1462 C1454 1.574 . S
C1462 H1457 0.949 . S
C1462 C1468 1.368 . S
C1463 C1447 1.349 . S
C1463 H1455 0.950 . S
C1463 C1461 1.327 . S
C1464 C1452 1.349 . S
C1464 H1458 0.950 . S
C1464 C1465 1.327 . S
C1465 H1459 0.950 . S
C1465 C1464 1.327 . S
C1465 C1469 1.429 . S
C1466 C1449 1.574 . S
C1466 H1460 0.949 . S
C1466 C1470 1.368 . S
C1467 C1448 1.429 . S
C1467 C1461 1.429 . S
C1467 C1468 1.523 . S
C1468 C1449 1.368 . S
C1468 C1462 1.368 . S
C1468 C1467 1.523 . S
C1469 C1453 1.429 . S
C1469 C1465 1.429 . S
C1469 C1470 1.523 . S
C1470 C1454 1.368 . S
C1470 C1466 1.368 . S
C1470 C1469 1.523 . S
H1471 C1446 0.950 . S
H1472 C1448 0.950 . S
H1473 C1449 0.949 . S
H1474 C1451 0.950 . S
H1475 C1453 0.950 . S
C1476 C1477 1.349 . S
C1476 C1478 1.327 . S
C1476 H1501 0.950 . S
C1477 C1476 1.349 . S
C1477 C1493 1.349 . S
C1478 C1476 1.327 . S
C1478 C1497 1.429 . S
C1478 H1502 0.950 . S
C1479 C1496 1.574 . S
C1479 C1498 1.368 . S
C1479 H1503 0.949 . S
H1480 C1484 0.949 . S
C1481 C1482 1.349 . S
C1481 C1483 1.327 . S
C1481 H1504 0.950 . S
C1482 C1481 1.349 . S
C1482 C1494 1.349 . S
C1483 C1481 1.327 . S
C1483 C1499 1.429 . S
C1483 H1505 0.950 . S
C1484 H1480 0.949 . S
C1484 C1492 1.574 . S
C1484 C1500 1.368 . S
H1485 C1493 0.950 . S
H1486 C1491 0.950 . S
H1487 C1492 0.949 . S
H1488 C1494 0.950 . S
H1489 C1495 0.950 . S
H1490 C1496 0.949 . S
C1491 H1486 0.950 . S
C1491 C1493 1.327 . S
C1491 C1497 1.429 . S
C1492 C1484 1.574 . S
C1492 H1487 0.949 . S
C1492 C1498 1.368 . S
C1493 C1477 1.349 . S
C1493 H1485 0.950 . S
C1493 C1491 1.327 . S
C1494 C1482 1.349 . S
C1494 H1488 0.950 . S
C1494 C1495 1.327 . S
C1495 H1489 0.950 . S
C1495 C1494 1.327 . S
C1495 C1499 1.429 . S
C1496 C1479 1.574 . S
C1496 H1490 0.949 . S
C1496 C1500 1.368 . S
C1497 C1478 1.429 . S
C1497 C1491 1.429 . S
C1497 C1498 1.523 . S
C1498 C1479 1.368 . S
C1498 C1492 1.368 . S
C1498 C1497 1.523 . S
C1499 C1483 1.429 . S
C1499 C1495 1.429 . S
C1499 C1500 1.523 . S
C1500 C1484 1.368 . S
C1500 C1496 1.368 . S
C1500 C1499 1.523 . S
H1501 C1476 0.950 . S
H1502 C1478 0.950 . S
H1503 C1479 0.949 . S
H1504 C1481 0.950 . S
H1505 C1483 0.950 . S
C1506 C1507 1.349 . S
C1506 C1508 1.327 . S
C1506 H1531 0.950 . S
C1507 C1506 1.349 . S
C1507 C1523 1.349 . S
C1508 C1506 1.327 . S
C1508 C1527 1.429 . S
C1508 H1532 0.950 . S
C1509 C1526 1.574 . S
C1509 C1528 1.368 . S
C1509 H1533 0.949 . S
H1510 C1514 0.949 . S
C1511 C1512 1.349 . S
C1511 C1513 1.327 . S
C1511 H1534 0.950 . S
C1512 C1511 1.349 . S
C1512 C1524 1.349 . S
C1513 C1511 1.327 . S
C1513 C1529 1.429 . S
C1513 H1535 0.950 . S
C1514 H1510 0.949 . S
C1514 C1522 1.574 . S
C1514 C1530 1.368 . S
H1515 C1523 0.950 . S
H1516 C1521 0.950 . S
H1517 C1522 0.949 . S
H1518 C1524 0.950 . S
H1519 C1525 0.950 . S
H1520 C1526 0.949 . S
C1521 H1516 0.950 . S
C1521 C1523 1.327 . S
C1521 C1527 1.429 . S
C1522 C1514 1.574 . S
C1522 H1517 0.949 . S
C1522 C1528 1.368 . S
C1523 C1507 1.349 . S
C1523 H1515 0.950 . S
C1523 C1521 1.327 . S
C1524 C1512 1.349 . S
C1524 H1518 0.950 . S
C1524 C1525 1.327 . S
C1525 H1519 0.950 . S
C1525 C1524 1.327 . S
C1525 C1529 1.429 . S
C1526 C1509 1.574 . S
C1526 H1520 0.949 . S
C1526 C1530 1.368 . S
C1527 C1508 1.429 . S
C1527 C1521 1.429 . S
C1527 C1528 1.523 . S
C1528 C1509 1.368 . S
C1528 C1522 1.368 . S
C1528 C1527 1.523 . S
C1529 C1513 1.429 . S
C1529 C1525 1.429 . S
C1529 C1530 1.523 . S
C1530 C1514 1.368 . S
C1530 C1526 1.368 . S
C1530 C1529 1.523 . S
H1531 C1506 0.950 . S
H1532 C1508 0.950 . S
H1533 C1509 0.949 . S
H1534 C1511 0.950 . S
H1535 C1513 0.950 . S
C1536 C1537 1.349 . S
C1536 C1538 1.327 . S
C1536 H1561 0.950 . S
C1537 C1536 1.349 . S
C1537 C1553 1.349 . S
C1538 C1536 1.327 . S
C1538 C1557 1.429 . S
C1538 H1562 0.950 . S
C1539 C1556 1.574 . S
C1539 C1558 1.368 . S
C1539 H1563 0.949 . S
H1540 C1544 0.949 . S
C1541 C1542 1.349 . S
C1541 C1543 1.327 . S
C1541 H1564 0.950 . S
C1542 C1541 1.349 . S
C1542 C1554 1.349 . S
C1543 C1541 1.327 . S
C1543 C1559 1.429 . S
C1543 H1565 0.950 . S
C1544 H1540 0.949 . S
C1544 C1552 1.574 . S
C1544 C1560 1.368 . S
H1545 C1553 0.950 . S
H1546 C1551 0.950 . S
H1547 C1552 0.949 . S
H1548 C1554 0.950 . S
H1549 C1555 0.950 . S
H1550 C1556 0.949 . S
C1551 H1546 0.950 . S
C1551 C1553 1.327 . S
C1551 C1557 1.429 . S
C1552 C1544 1.574 . S
C1552 H1547 0.949 . S
C1552 C1558 1.368 . S
C1553 C1537 1.349 . S
C1553 H1545 0.950 . S
C1553 C1551 1.327 . S
C1554 C1542 1.349 . S
C1554 H1548 0.950 . S
C1554 C1555 1.327 . S
C1555 H1549 0.950 . S
C1555 C1554 1.327 . S
C1555 C1559 1.429 . S
C1556 C1539 1.574 . S
C1556 H1550 0.949 . S
C1556 C1560 1.368 . S
C1557 C1538 1.429 . S
C1557 C1551 1.429 . S
C1557 C1558 1.523 . S
C1558 C1539 1.368 . S
C1558 C1552 1.368 . S
C1558 C1557 1.523 . S
C1559 C1543 1.429 . S
C1559 C1555 1.429 . S
C1559 C1560 1.523 . S
C1560 C1544 1.368 . S
C1560 C1556 1.368 . S
C1560 C1559 1.523 . S
H1561 C1536 0.950 . S
H1562 C1538 0.950 . S
H1563 C1539 0.949 . S
H1564 C1541 0.950 . S
H1565 C1543 0.950 . S
C1566 C1567 1.349 . S
C1566 C1568 1.327 . S
C1566 H1591 0.950 . S
C1567 C1566 1.349 . S
C1567 C1583 1.349 . S
C1568 C1566 1.327 . S
C1568 C1587 1.429 . S
C1568 H1592 0.950 . S
C1569 C1586 1.574 . S
C1569 C1588 1.368 . S
C1569 H1593 0.949 . S
H1570 C1574 0.949 . S
C1571 C1572 1.349 . S
C1571 C1573 1.327 . S
C1571 H1594 0.950 . S
C1572 C1571 1.349 . S
C1572 C1584 1.349 . S
C1573 C1571 1.327 . S
C1573 C1589 1.429 . S
C1573 H1595 0.950 . S
C1574 H1570 0.949 . S
C1574 C1582 1.574 . S
C1574 C1590 1.368 . S
H1575 C1583 0.950 . S
H1576 C1581 0.950 . S
H1577 C1582 0.949 . S
H1578 C1584 0.950 . S
H1579 C1585 0.950 . S
H1580 C1586 0.949 . S
C1581 H1576 0.950 . S
C1581 C1583 1.327 . S
C1581 C1587 1.429 . S
C1582 C1574 1.574 . S
C1582 H1577 0.949 . S
C1582 C1588 1.368 . S
C1583 C1567 1.349 . S
C1583 H1575 0.950 . S
C1583 C1581 1.327 . S
C1584 C1572 1.349 . S
C1584 H1578 0.950 . S
C1584 C1585 1.327 . S
C1585 H1579 0.950 . S
C1585 C1584 1.327 . S
C1585 C1589 1.429 . S
C1586 C1569 1.574 . S
C1586 H1580 0.949 . S
C1586 C1590 1.368 . S
C1587 C1568 1.429 . S
C1587 C1581 1.429 . S
C1587 C1588 1.523 . S
C1588 C1569 1.368 . S
C1588 C1582 1.368 . S
C1588 C1587 1.523 . S
C1589 C1573 1.429 . S
C1589 C1585 1.429 . S
C1589 C1590 1.523 . S
C1590 C1574 1.368 . S
C1590 C1586 1.368 . S
C1590 C1589 1.523 . S
H1591 C1566 0.950 . S
H1592 C1568 0.950 . S
H1593 C1569 0.949 . S
H1594 C1571 0.950 . S
H1595 C1573 0.950 . S
C1596 C1597 1.349 . S
C1596 C1598 1.327 . S
C1596 H1621 0.950 1_554 S
C1597 C1596 1.349 . S
C1597 C1613 1.349 . S
C1598 C1596 1.327 . S
C1598 C1617 1.429 . S
C1598 H1622 0.950 1_554 S
C1599 C1616 1.574 . S
C1599 C1618 1.368 . S
C1599 H1623 0.949 . S
H1600 C1604 0.949 1_556 S
C1601 C1602 1.349 . S
C1601 C1603 1.327 . S
C1601 H1624 0.950 . S
C1602 C1601 1.349 . S
C1602 C1614 1.349 . S
C1603 C1601 1.327 . S
C1603 C1619 1.429 . S
C1603 H1625 0.950 . S
C1604 H1600 0.949 1_554 S
C1604 C1612 1.574 . S
C1604 C1620 1.368 . S
H1605 C1613 0.950 . S
H1606 C1611 0.950 . S
H1607 C1612 0.949 1_556 S
H1608 C1614 0.950 1_556 S
H1609 C1615 0.950 1_556 S
H1610 C1616 0.949 . S
C1611 H1606 0.950 . S
C1611 C1613 1.327 . S
C1611 C1617 1.429 . S
C1612 C1604 1.574 . S
C1612 H1607 0.949 1_554 S
C1612 C1618 1.368 . S
C1613 C1597 1.349 . S
C1613 H1605 0.950 . S
C1613 C1611 1.327 . S
C1614 C1602 1.349 . S
C1614 H1608 0.950 1_554 S
C1614 C1615 1.327 . S
C1615 H1609 0.950 1_554 S
C1615 C1614 1.327 . S
C1615 C1619 1.429 . S
C1616 C1599 1.574 . S
C1616 H1610 0.949 . S
C1616 C1620 1.368 . S
C1617 C1598 1.429 . S
C1617 C1611 1.429 . S
C1617 C1618 1.523 . S
C1618 C1599 1.368 . S
C1618 C1612 1.368 . S
C1618 C1617 1.523 . S
C1619 C1603 1.429 . S
C1619 C1615 1.429 . S
C1619 C1620 1.523 . S
C1620 C1604 1.368 . S
C1620 C1616 1.368 . S
C1620 C1619 1.523 . S
H1621 C1596 0.950 1_556 S
H1622 C1598 0.950 1_556 S
H1623 C1599 0.949 . S
H1624 C1601 0.950 . S
H1625 C1603 0.950 . S
C1626 C1627 1.349 . S
C1626 C1628 1.327 . S
C1626 H1651 0.950 1_554 S
C1627 C1626 1.349 . S
C1627 C1643 1.349 . S
C1628 C1626 1.327 . S
C1628 C1647 1.429 . S
C1628 H1652 0.950 1_554 S
C1629 C1646 1.574 . S
C1629 C1648 1.368 . S
C1629 H1653 0.949 . S
H1630 C1634 0.949 1_556 S
C1631 C1632 1.349 . S
C1631 C1633 1.327 . S
C1631 H1654 0.950 . S
C1632 C1631 1.349 . S
C1632 C1644 1.349 . S
C1633 C1631 1.327 . S
C1633 C1649 1.429 . S
C1633 H1655 0.950 . S
C1634 H1630 0.949 1_554 S
C1634 C1642 1.574 . S
C1634 C1650 1.368 . S
H1635 C1643 0.950 . S
H1636 C1641 0.950 . S
H1637 C1642 0.949 1_556 S
H1638 C1644 0.950 1_556 S
H1639 C1645 0.950 1_556 S
H1640 C1646 0.949 . S
C1641 H1636 0.950 . S
C1641 C1643 1.327 . S
C1641 C1647 1.429 . S
C1642 C1634 1.574 . S
C1642 H1637 0.949 1_554 S
C1642 C1648 1.368 . S
C1643 C1627 1.349 . S
C1643 H1635 0.950 . S
C1643 C1641 1.327 . S
C1644 C1632 1.349 . S
C1644 H1638 0.950 1_554 S
C1644 C1645 1.327 . S
C1645 H1639 0.950 1_554 S
C1645 C1644 1.327 . S
C1645 C1649 1.429 . S
C1646 C1629 1.574 . S
C1646 H1640 0.949 . S
C1646 C1650 1.368 . S
C1647 C1628 1.429 . S
C1647 C1641 1.429 . S
C1647 C1648 1.523 . S
C1648 C1629 1.368 . S
C1648 C1642 1.368 . S
C1648 C1647 1.523 . S
C1649 C1633 1.429 . S
C1649 C1645 1.429 . S
C1649 C1650 1.523 . S
C1650 C1634 1.368 . S
C1650 C1646 1.368 . S
C1650 C1649 1.523 . S
H1651 C1626 0.950 1_556 S
H1652 C1628 0.950 1_556 S
H1653 C1629 0.949 . S
H1654 C1631 0.950 . S
H1655 C1633 0.950 . S
C1656 C1657 1.349 . S
C1656 C1658 1.327 . S
C1656 H1681 0.950 . S
C1657 C1656 1.349 . S
C1657 C1673 1.349 . S
C1658 C1656 1.327 . S
C1658 C1677 1.429 . S
C1658 H1682 0.950 . S
C1659 C1676 1.574 . S
C1659 C1678 1.368 . S
C1659 H1683 0.949 . S
H1660 C1664 0.949 . S
C1661 C1662 1.349 . S
C1661 C1663 1.327 . S
C1661 H1684 0.950 . S
C1662 C1661 1.349 . S
C1662 C1674 1.349 . S
C1663 C1661 1.327 . S
C1663 C1679 1.429 . S
C1663 H1685 0.950 . S
C1664 H1660 0.949 . S
C1664 C1672 1.574 . S
C1664 C1680 1.368 . S
H1665 C1673 0.950 . S
H1666 C1671 0.950 . S
H1667 C1672 0.949 . S
H1668 C1674 0.950 . S
H1669 C1675 0.950 . S
H1670 C1676 0.949 . S
C1671 H1666 0.950 . S
C1671 C1673 1.327 . S
C1671 C1677 1.429 . S
C1672 C1664 1.574 . S
C1672 H1667 0.949 . S
C1672 C1678 1.368 . S
C1673 C1657 1.349 . S
C1673 H1665 0.950 . S
C1673 C1671 1.327 . S
C1674 C1662 1.349 . S
C1674 H1668 0.950 . S
C1674 C1675 1.327 . S
C1675 H1669 0.950 . S
C1675 C1674 1.327 . S
C1675 C1679 1.429 . S
C1676 C1659 1.574 . S
C1676 H1670 0.949 . S
C1676 C1680 1.368 . S
C1677 C1658 1.429 . S
C1677 C1671 1.429 . S
C1677 C1678 1.523 . S
C1678 C1659 1.368 . S
C1678 C1672 1.368 . S
C1678 C1677 1.523 . S
C1679 C1663 1.429 . S
C1679 C1675 1.429 . S
C1679 C1680 1.523 . S
C1680 C1664 1.368 . S
C1680 C1676 1.368 . S
C1680 C1679 1.523 . S
H1681 C1656 0.950 . S
H1682 C1658 0.950 . S
H1683 C1659 0.949 . S
H1684 C1661 0.950 . S
H1685 C1663 0.950 . S
C1686 C1687 1.349 . S
C1686 C1688 1.327 . S
C1686 H1711 0.950 . S
C1687 C1686 1.349 . S
C1687 C1703 1.349 . S
C1688 C1686 1.327 . S
C1688 C1707 1.429 . S
C1688 H1712 0.950 . S
C1689 C1706 1.574 . S
C1689 C1708 1.368 . S
C1689 H1713 0.949 . S
H1690 C1694 0.949 . S
C1691 C1692 1.349 . S
C1691 C1693 1.327 . S
C1691 H1714 0.950 . S
C1692 C1691 1.349 . S
C1692 C1704 1.349 . S
C1693 C1691 1.327 . S
C1693 C1709 1.429 . S
C1693 H1715 0.950 . S
C1694 H1690 0.949 . S
C1694 C1702 1.574 . S
C1694 C1710 1.368 . S
H1695 C1703 0.950 . S
H1696 C1701 0.950 . S
H1697 C1702 0.949 . S
H1698 C1704 0.950 . S
H1699 C1705 0.950 . S
H1700 C1706 0.949 . S
C1701 H1696 0.950 . S
C1701 C1703 1.327 . S
C1701 C1707 1.429 . S
C1702 C1694 1.574 . S
C1702 H1697 0.949 . S
C1702 C1708 1.368 . S
C1703 C1687 1.349 . S
C1703 H1695 0.950 . S
C1703 C1701 1.327 . S
C1704 C1692 1.349 . S
C1704 H1698 0.950 . S
C1704 C1705 1.327 . S
C1705 H1699 0.950 . S
C1705 C1704 1.327 . S
C1705 C1709 1.429 . S
C1706 C1689 1.574 . S
C1706 H1700 0.949 . S
C1706 C1710 1.368 . S
C1707 C1688 1.429 . S
C1707 C1701 1.429 . S
C1707 C1708 1.523 . S
C1708 C1689 1.368 . S
C1708 C1702 1.368 . S
C1708 C1707 1.523 . S
C1709 C1693 1.429 . S
C1709 C1705 1.429 . S
C1709 C1710 1.523 . S
C1710 C1694 1.368 . S
C1710 C1706 1.368 . S
C1710 C1709 1.523 . S
H1711 C1686 0.950 . S
H1712 C1688 0.950 . S
H1713 C1689 0.949 . S
H1714 C1691 0.950 . S
H1715 C1693 0.950 . S
C1716 C1717 1.349 . S
C1716 C1718 1.327 . S
C1716 H1741 0.950 . S
C1717 C1716 1.349 . S
C1717 C1733 1.349 . S
C1718 C1716 1.327 . S
C1718 C1737 1.429 . S
C1718 H1742 0.950 . S
C1719 C1736 1.574 . S
C1719 C1738 1.368 . S
C1719 H1743 0.949 1_556 S
H1720 C1724 0.949 . S
C1721 C1722 1.349 . S
C1721 C1723 1.327 . S
C1721 H1744 0.950 1_556 S
C1722 C1721 1.349 . S
C1722 C1734 1.349 . S
C1723 C1721 1.327 . S
C1723 C1739 1.429 . S
C1723 H1745 0.950 1_556 S
C1724 H1720 0.949 . S
C1724 C1732 1.574 . S
C1724 C1740 1.368 . S
H1725 C1733 0.950 1_554 S
H1726 C1731 0.950 1_554 S
H1727 C1732 0.949 . S
H1728 C1734 0.950 . S
H1729 C1735 0.950 . S
H1730 C1736 0.949 1_554 S
C1731 H1726 0.950 1_556 S
C1731 C1733 1.327 . S
C1731 C1737 1.429 . S
C1732 C1724 1.574 . S
C1732 H1727 0.949 . S
C1732 C1738 1.368 . S
C1733 C1717 1.349 . S
C1733 H1725 0.950 1_556 S
C1733 C1731 1.327 . S
C1734 C1722 1.349 . S
C1734 H1728 0.950 . S
C1734 C1735 1.327 . S
C1735 H1729 0.950 . S
C1735 C1734 1.327 . S
C1735 C1739 1.429 . S
C1736 C1719 1.574 . S
C1736 H1730 0.949 1_556 S
C1736 C1740 1.368 . S
C1737 C1718 1.429 . S
C1737 C1731 1.429 . S
C1737 C1738 1.523 . S
C1738 C1719 1.368 . S
C1738 C1732 1.368 . S
C1738 C1737 1.523 . S
C1739 C1723 1.429 . S
C1739 C1735 1.429 . S
C1739 C1740 1.523 . S
C1740 C1724 1.368 . S
C1740 C1736 1.368 . S
C1740 C1739 1.523 . S
H1741 C1716 0.950 . S
H1742 C1718 0.950 . S
H1743 C1719 0.949 1_554 S
H1744 C1721 0.950 1_554 S
H1745 C1723 0.950 1_554 S
C1746 C1747 1.349 . S
C1746 C1748 1.327 . S
C1746 H1771 0.950 . S
C1747 C1746 1.349 . S
C1747 C1763 1.349 . S
C1748 C1746 1.327 . S
C1748 C1767 1.429 . S
C1748 H1772 0.950 . S
C1749 C1766 1.574 . S
C1749 C1768 1.368 . S
C1749 H1773 0.949 1_556 S
H1750 C1754 0.949 . S
C1751 C1752 1.349 . S
C1751 C1753 1.327 . S
C1751 H1774 0.950 1_556 S
C1752 C1751 1.349 . S
C1752 C1764 1.349 . S
C1753 C1751 1.327 . S
C1753 C1769 1.429 . S
C1753 H1775 0.950 1_556 S
C1754 H1750 0.949 . S
C1754 C1762 1.574 . S
C1754 C1770 1.368 . S
H1755 C1763 0.950 1_554 S
H1756 C1761 0.950 1_554 S
H1757 C1762 0.949 . S
H1758 C1764 0.950 . S
H1759 C1765 0.950 . S
H1760 C1766 0.949 1_554 S
C1761 H1756 0.950 1_556 S
C1761 C1763 1.327 . S
C1761 C1767 1.429 . S
C1762 C1754 1.574 . S
C1762 H1757 0.949 . S
C1762 C1768 1.368 . S
C1763 C1747 1.349 . S
C1763 H1755 0.950 1_556 S
C1763 C1761 1.327 . S
C1764 C1752 1.349 . S
C1764 H1758 0.950 . S
C1764 C1765 1.327 . S
C1765 H1759 0.950 . S
C1765 C1764 1.327 . S
C1765 C1769 1.429 . S
C1766 C1749 1.574 . S
C1766 H1760 0.949 1_556 S
C1766 C1770 1.368 . S
C1767 C1748 1.429 . S
C1767 C1761 1.429 . S
C1767 C1768 1.523 . S
C1768 C1749 1.368 . S
C1768 C1762 1.368 . S
C1768 C1767 1.523 . S
C1769 C1753 1.429 . S
C1769 C1765 1.429 . S
C1769 C1770 1.523 . S
C1770 C1754 1.368 . S
C1770 C1766 1.368 . S
C1770 C1769 1.523 . S
H1771 C1746 0.950 . S
H1772 C1748 0.950 . S
H1773 C1749 0.949 1_554 S
H1774 C1751 0.950 1_554 S
H1775 C1753 0.950 1_554 S
C1776 C1777 1.349 . S
C1776 C1778 1.327 . S
C1776 H1801 0.950 . S
C1777 C1776 1.349 . S
C1777 C1793 1.349 . S
C1778 C1776 1.327 . S
C1778 C1797 1.429 . S
C1778 H1802 0.950 . S
C1779 C1796 1.574 . S
C1779 C1798 1.368 . S
C1779 H1803 0.949 . S
H1780 C1784 0.949 . S
C1781 C1782 1.349 . S
C1781 C1783 1.327 . S
C1781 H1804 0.950 . S
C1782 C1781 1.349 . S
C1782 C1794 1.349 . S
C1783 C1781 1.327 . S
C1783 C1799 1.429 . S
C1783 H1805 0.950 . S
C1784 H1780 0.949 . S
C1784 C1792 1.574 . S
C1784 C1800 1.368 . S
H1785 C1793 0.950 . S
H1786 C1791 0.950 . S
H1787 C1792 0.949 . S
H1788 C1794 0.950 . S
H1789 C1795 0.950 . S
H1790 C1796 0.949 . S
C1791 H1786 0.950 . S
C1791 C1793 1.327 . S
C1791 C1797 1.429 . S
C1792 C1784 1.574 . S
C1792 H1787 0.949 . S
C1792 C1798 1.368 . S
C1793 C1777 1.349 . S
C1793 H1785 0.950 . S
C1793 C1791 1.327 . S
C1794 C1782 1.349 . S
C1794 H1788 0.950 . S
C1794 C1795 1.327 . S
C1795 H1789 0.950 . S
C1795 C1794 1.327 . S
C1795 C1799 1.429 . S
C1796 C1779 1.574 . S
C1796 H1790 0.949 . S
C1796 C1800 1.368 . S
C1797 C1778 1.429 . S
C1797 C1791 1.429 . S
C1797 C1798 1.523 . S
C1798 C1779 1.368 . S
C1798 C1792 1.368 . S
C1798 C1797 1.523 . S
C1799 C1783 1.429 . S
C1799 C1795 1.429 . S
C1799 C1800 1.523 . S
C1800 C1784 1.368 . S
C1800 C1796 1.368 . S
C1800 C1799 1.523 . S
H1801 C1776 0.950 . S
H1802 C1778 0.950 . S
H1803 C1779 0.949 . S
H1804 C1781 0.950 . S
H1805 C1783 0.950 . S
C1806 C1807 1.349 . S
C1806 C1808 1.327 . S
C1806 H1831 0.950 . S
C1807 C1806 1.349 . S
C1807 C1823 1.349 . S
C1808 C1806 1.327 . S
C1808 C1827 1.429 . S
C1808 H1832 0.950 . S
C1809 C1826 1.574 . S
C1809 C1828 1.368 . S
C1809 H1833 0.949 . S
H1810 C1814 0.949 . S
C1811 C1812 1.349 . S
C1811 C1813 1.327 . S
C1811 H1834 0.950 . S
C1812 C1811 1.349 . S
C1812 C1824 1.349 . S
C1813 C1811 1.327 . S
C1813 C1829 1.429 . S
C1813 H1835 0.950 . S
C1814 H1810 0.949 . S
C1814 C1822 1.574 . S
C1814 C1830 1.368 . S
H1815 C1823 0.950 . S
H1816 C1821 0.950 . S
H1817 C1822 0.949 . S
H1818 C1824 0.950 . S
H1819 C1825 0.950 . S
H1820 C1826 0.949 . S
C1821 H1816 0.950 . S
C1821 C1823 1.327 . S
C1821 C1827 1.429 . S
C1822 C1814 1.574 . S
C1822 H1817 0.949 . S
C1822 C1828 1.368 . S
C1823 C1807 1.349 . S
C1823 H1815 0.950 . S
C1823 C1821 1.327 . S
C1824 C1812 1.349 . S
C1824 H1818 0.950 . S
C1824 C1825 1.327 . S
C1825 H1819 0.950 . S
C1825 C1824 1.327 . S
C1825 C1829 1.429 . S
C1826 C1809 1.574 . S
C1826 H1820 0.949 . S
C1826 C1830 1.368 . S
C1827 C1808 1.429 . S
C1827 C1821 1.429 . S
C1827 C1828 1.523 . S
C1828 C1809 1.368 . S
C1828 C1822 1.368 . S
C1828 C1827 1.523 . S
C1829 C1813 1.429 . S
C1829 C1825 1.429 . S
C1829 C1830 1.523 . S
C1830 C1814 1.368 . S
C1830 C1826 1.368 . S
C1830 C1829 1.523 . S
H1831 C1806 0.950 . S
H1832 C1808 0.950 . S
H1833 C1809 0.949 . S
H1834 C1811 0.950 . S
H1835 C1813 0.950 . S
C1836 C1837 1.349 . S
C1836 C1838 1.327 . S
C1836 H1861 0.950 . S
C1837 C1836 1.349 . S
C1837 C1853 1.349 . S
C1838 C1836 1.327 . S
C1838 C1857 1.429 . S
C1838 H1862 0.950 . S
C1839 C1856 1.574 . S
C1839 C1858 1.368 . S
C1839 H1863 0.949 . S
H1840 C1844 0.949 . S
C1841 C1842 1.349 . S
C1841 C1843 1.327 . S
C1841 H1864 0.950 . S
C1842 C1841 1.349 . S
C1842 C1854 1.349 . S
C1843 C1841 1.327 . S
C1843 C1859 1.429 . S
C1843 H1865 0.950 . S
C1844 H1840 0.949 . S
C1844 C1852 1.574 . S
C1844 C1860 1.368 . S
H1845 C1853 0.950 . S
H1846 C1851 0.950 . S
H1847 C1852 0.949 . S
H1848 C1854 0.950 . S
H1849 C1855 0.950 . S
H1850 C1856 0.949 . S
C1851 H1846 0.950 . S
C1851 C1853 1.327 . S
C1851 C1857 1.429 . S
C1852 C1844 1.574 . S
C1852 H1847 0.949 . S
C1852 C1858 1.368 . S
C1853 C1837 1.349 . S
C1853 H1845 0.950 . S
C1853 C1851 1.327 . S
C1854 C1842 1.349 . S
C1854 H1848 0.950 . S
C1854 C1855 1.327 . S
C1855 H1849 0.950 . S
C1855 C1854 1.327 . S
C1855 C1859 1.429 . S
C1856 C1839 1.574 . S
C1856 H1850 0.949 . S
C1856 C1860 1.368 . S
C1857 C1838 1.429 . S
C1857 C1851 1.429 . S
C1857 C1858 1.523 . S
C1858 C1839 1.368 . S
C1858 C1852 1.368 . S
C1858 C1857 1.523 . S
C1859 C1843 1.429 . S
C1859 C1855 1.429 . S
C1859 C1860 1.523 . S
C1860 C1844 1.368 . S
C1860 C1856 1.368 . S
C1860 C1859 1.523 . S
H1861 C1836 0.950 . S
H1862 C1838 0.950 . S
H1863 C1839 0.949 . S
H1864 C1841 0.950 . S
H1865 C1843 0.950 . S
C1866 C1867 1.349 . S
C1866 C1868 1.327 . S
C1866 H1891 0.950 . S
C1867 C1866 1.349 . S
C1867 C1883 1.349 . S
C1868 C1866 1.327 . S
C1868 C1887 1.429 . S
C1868 H1892 0.950 . S
C1869 C1886 1.574 . S
C1869 C1888 1.368 . S
C1869 H1893 0.949 . S
H1870 C1874 0.949 . S
C1871 C1872 1.349 . S
C1871 C1873 1.327 . S
C1871 H1894 0.950 . S
C1872 C1871 1.349 . S
C1872 C1884 1.349 . S
C1873 C1871 1.327 . S
C1873 C1889 1.429 . S
C1873 H1895 0.950 . S
C1874 H1870 0.949 . S
C1874 C1882 1.574 . S
C1874 C1890 1.368 . S
H1875 C1883 0.950 . S
H1876 C1881 0.950 . S
H1877 C1882 0.949 . S
H1878 C1884 0.950 . S
H1879 C1885 0.950 . S
H1880 C1886 0.949 . S
C1881 H1876 0.950 . S
C1881 C1883 1.327 . S
C1881 C1887 1.429 . S
C1882 C1874 1.574 . S
C1882 H1877 0.949 . S
C1882 C1888 1.368 . S
C1883 C1867 1.349 . S
C1883 H1875 0.950 . S
C1883 C1881 1.327 . S
C1884 C1872 1.349 . S
C1884 H1878 0.950 . S
C1884 C1885 1.327 . S
C1885 H1879 0.950 . S
C1885 C1884 1.327 . S
C1885 C1889 1.429 . S
C1886 C1869 1.574 . S
C1886 H1880 0.949 . S
C1886 C1890 1.368 . S
C1887 C1868 1.429 . S
C1887 C1881 1.429 . S
C1887 C1888 1.523 . S
C1888 C1869 1.368 . S
C1888 C1882 1.368 . S
C1888 C1887 1.523 . S
C1889 C1873 1.429 . S
C1889 C1885 1.429 . S
C1889 C1890 1.523 . S
C1890 C1874 1.368 . S
C1890 C1886 1.368 . S
C1890 C1889 1.523 . S
H1891 C1866 0.950 . S
H1892 C1868 0.950 . S
H1893 C1869 0.949 . S
H1894 C1871 0.950 . S
H1895 C1873 0.950 . S
C1896 C1897 1.349 . S
C1896 C1898 1.327 . S
C1896 H1921 0.950 . S
C1897 C1896 1.349 . S
C1897 C1913 1.349 . S
C1898 C1896 1.327 . S
C1898 C1917 1.429 . S
C1898 H1922 0.950 . S
C1899 C1916 1.574 . S
C1899 C1918 1.368 . S
C1899 H1923 0.949 . S
H1900 C1904 0.949 . S
C1901 C1902 1.349 . S
C1901 C1903 1.327 . S
C1901 H1924 0.950 . S
C1902 C1901 1.349 . S
C1902 C1914 1.349 . S
C1903 C1901 1.327 . S
C1903 C1919 1.429 . S
C1903 H1925 0.950 . S
C1904 H1900 0.949 . S
C1904 C1912 1.574 . S
C1904 C1920 1.368 . S
H1905 C1913 0.950 . S
H1906 C1911 0.950 . S
H1907 C1912 0.949 . S
H1908 C1914 0.950 . S
H1909 C1915 0.950 . S
H1910 C1916 0.949 . S
C1911 H1906 0.950 . S
C1911 C1913 1.327 . S
C1911 C1917 1.429 . S
C1912 C1904 1.574 . S
C1912 H1907 0.949 . S
C1912 C1918 1.368 . S
C1913 C1897 1.349 . S
C1913 H1905 0.950 . S
C1913 C1911 1.327 . S
C1914 C1902 1.349 . S
C1914 H1908 0.950 . S
C1914 C1915 1.327 . S
C1915 H1909 0.950 . S
C1915 C1914 1.327 . S
C1915 C1919 1.429 . S
C1916 C1899 1.574 . S
C1916 H1910 0.949 . S
C1916 C1920 1.368 . S
C1917 C1898 1.429 . S
C1917 C1911 1.429 . S
C1917 C1918 1.523 . S
C1918 C1899 1.368 . S
C1918 C1912 1.368 . S
C1918 C1917 1.523 . S
C1919 C1903 1.429 . S
C1919 C1915 1.429 . S
C1919 C1920 1.523 . S
C1920 C1904 1.368 . S
C1920 C1916 1.368 . S
C1920 C1919 1.523 . S
H1921 C1896 0.950 . S
H1922 C1898 0.950 . S
H1923 C1899 0.949 . S
H1924 C1901 0.950 . S
H1925 C1903 0.950 . S
C1926 C1927 1.349 . S
C1926 C1928 1.327 . S
C1926 H1951 0.950 . S
C1927 C1926 1.349 . S
C1927 C1943 1.349 . S
C1928 C1926 1.327 . S
C1928 C1947 1.429 . S
C1928 H1952 0.950 . S
C1929 C1946 1.574 . S
C1929 C1948 1.368 . S
C1929 H1953 0.949 . S
H1930 C1934 0.949 . S
C1931 C1932 1.349 . S
C1931 C1933 1.327 . S
C1931 H1954 0.950 . S
C1932 C1931 1.349 . S
C1932 C1944 1.349 . S
C1933 C1931 1.327 . S
C1933 C1949 1.429 . S
C1933 H1955 0.950 . S
C1934 H1930 0.949 . S
C1934 C1942 1.574 . S
C1934 C1950 1.368 . S
H1935 C1943 0.950 . S
H1936 C1941 0.950 . S
H1937 C1942 0.949 . S
H1938 C1944 0.950 . S
H1939 C1945 0.950 . S
H1940 C1946 0.949 . S
C1941 H1936 0.950 . S
C1941 C1943 1.327 . S
C1941 C1947 1.429 . S
C1942 C1934 1.574 . S
C1942 H1937 0.949 . S
C1942 C1948 1.368 . S
C1943 C1927 1.349 . S
C1943 H1935 0.950 . S
C1943 C1941 1.327 . S
C1944 C1932 1.349 . S
C1944 H1938 0.950 . S
C1944 C1945 1.327 . S
C1945 H1939 0.950 . S
C1945 C1944 1.327 . S
C1945 C1949 1.429 . S
C1946 C1929 1.574 . S
C1946 H1940 0.949 . S
C1946 C1950 1.368 . S
C1947 C1928 1.429 . S
C1947 C1941 1.429 . S
C1947 C1948 1.523 . S
C1948 C1929 1.368 . S
C1948 C1942 1.368 . S
C1948 C1947 1.523 . S
C1949 C1933 1.429 . S
C1949 C1945 1.429 . S
C1949 C1950 1.523 . S
C1950 C1934 1.368 . S
C1950 C1946 1.368 . S
C1950 C1949 1.523 . S
H1951 C1926 0.950 . S
H1952 C1928 0.950 . S
H1953 C1929 0.949 . S
H1954 C1931 0.950 . S
H1955 C1933 0.950 . S
C1956 C1957 1.349 . S
C1956 C1958 1.327 . S
C1956 H1981 0.950 . S
C1957 C1956 1.349 . S
C1957 C1973 1.349 . S
C1958 C1956 1.327 . S
C1958 C1977 1.429 . S
C1958 H1982 0.950 . S
C1959 C1976 1.574 . S
C1959 C1978 1.368 . S
C1959 H1983 0.949 . S
H1960 C1964 0.949 . S
C1961 C1962 1.349 . S
C1961 C1963 1.327 . S
C1961 H1984 0.950 . S
C1962 C1961 1.349 . S
C1962 C1974 1.349 . S
C1963 C1961 1.327 . S
C1963 C1979 1.429 . S
C1963 H1985 0.950 . S
C1964 H1960 0.949 . S
C1964 C1972 1.574 . S
C1964 C1980 1.368 . S
H1965 C1973 0.950 . S
H1966 C1971 0.950 . S
H1967 C1972 0.949 . S
H1968 C1974 0.950 . S
H1969 C1975 0.950 . S
H1970 C1976 0.949 . S
C1971 H1966 0.950 . S
C1971 C1973 1.327 . S
C1971 C1977 1.429 . S
C1972 C1964 1.574 . S
C1972 H1967 0.949 . S
C1972 C1978 1.368 . S
C1973 C1957 1.349 . S
C1973 H1965 0.950 . S
C1973 C1971 1.327 . S
C1974 C1962 1.349 . S
C1974 H1968 0.950 . S
C1974 C1975 1.327 . S
C1975 H1969 0.950 . S
C1975 C1974 1.327 . S
C1975 C1979 1.429 . S
C1976 C1959 1.574 . S
C1976 H1970 0.949 . S
C1976 C1980 1.368 . S
C1977 C1958 1.429 . S
C1977 C1971 1.429 . S
C1977 C1978 1.523 . S
C1978 C1959 1.368 . S
C1978 C1972 1.368 . S
C1978 C1977 1.523 . S
C1979 C1963 1.429 . S
C1979 C1975 1.429 . S
C1979 C1980 1.523 . S
C1980 C1964 1.368 . S
C1980 C1976 1.368 . S
C1980 C1979 1.523 . S
H1981 C1956 0.950 . S
H1982 C1958 0.950 . S
H1983 C1959 0.949 . S
H1984 C1961 0.950 . S
H1985 C1963 0.950 . S
C1986 C1987 1.349 . S
C1986 C1988 1.327 . S
C1986 H2011 0.950 . S
C1987 C1986 1.349 . S
C1987 C2003 1.349 . S
C1988 C1986 1.327 . S
C1988 C2007 1.429 . S
C1988 H2012 0.950 . S
C1989 C2006 1.574 . S
C1989 C2008 1.368 . S
C1989 H2013 0.949 . S
H1990 C1994 0.949 . S
C1991 C1992 1.349 . S
C1991 C1993 1.327 . S
C1991 H2014 0.950 . S
C1992 C1991 1.349 . S
C1992 C2004 1.349 . S
C1993 C1991 1.327 . S
C1993 C2009 1.429 . S
C1993 H2015 0.950 . S
C1994 H1990 0.949 . S
C1994 C2002 1.574 . S
C1994 C2010 1.368 . S
H1995 C2003 0.950 . S
H1996 C2001 0.950 . S
H1997 C2002 0.949 . S
H1998 C2004 0.950 . S
H1999 C2005 0.950 . S
H2000 C2006 0.949 . S
C2001 H1996 0.950 . S
C2001 C2003 1.327 . S
C2001 C2007 1.429 . S
C2002 C1994 1.574 . S
C2002 H1997 0.949 . S
C2002 C2008 1.368 . S
C2003 C1987 1.349 . S
C2003 H1995 0.950 . S
C2003 C2001 1.327 . S
C2004 C1992 1.349 . S
C2004 H1998 0.950 . S
C2004 C2005 1.327 . S
C2005 H1999 0.950 . S
C2005 C2004 1.327 . S
C2005 C2009 1.429 . S
C2006 C1989 1.574 . S
C2006 H2000 0.949 . S
C2006 C2010 1.368 . S
C2007 C1988 1.429 . S
C2007 C2001 1.429 . S
C2007 C2008 1.523 . S
C2008 C1989 1.368 . S
C2008 C2002 1.368 . S
C2008 C2007 1.523 . S
C2009 C1993 1.429 . S
C2009 C2005 1.429 . S
C2009 C2010 1.523 . S
C2010 C1994 1.368 . S
C2010 C2006 1.368 . S
C2010 C2009 1.523 . S
H2011 C1986 0.950 . S
H2012 C1988 0.950 . S
H2013 C1989 0.949 . S
H2014 C1991 0.950 . S
H2015 C1993 0.950 . S
C2016 C2017 1.349 . S
C2016 C2018 1.327 . S
C2016 H2041 0.950 . S
C2017 C2016 1.349 . S
C2017 C2033 1.349 . S
C2018 C2016 1.327 . S
C2018 C2037 1.429 . S
C2018 H2042 0.950 . S
C2019 C2036 1.574 . S
C2019 C2038 1.368 . S
C2019 H2043 0.949 . S
H2020 C2024 0.949 . S
C2021 C2022 1.349 . S
C2021 C2023 1.327 . S
C2021 H2044 0.950 . S
C2022 C2021 1.349 . S
C2022 C2034 1.349 . S
C2023 C2021 1.327 . S
C2023 C2039 1.429 . S
C2023 H2045 0.950 . S
C2024 H2020 0.949 . S
C2024 C2032 1.574 . S
C2024 C2040 1.368 . S
H2025 C2033 0.950 . S
H2026 C2031 0.950 . S
H2027 C2032 0.949 . S
H2028 C2034 0.950 . S
H2029 C2035 0.950 . S
H2030 C2036 0.949 . S
C2031 H2026 0.950 . S
C2031 C2033 1.327 . S
C2031 C2037 1.429 . S
C2032 C2024 1.574 . S
C2032 H2027 0.949 . S
C2032 C2038 1.368 . S
C2033 C2017 1.349 . S
C2033 H2025 0.950 . S
C2033 C2031 1.327 . S
C2034 C2022 1.349 . S
C2034 H2028 0.950 . S
C2034 C2035 1.327 . S
C2035 H2029 0.950 . S
C2035 C2034 1.327 . S
C2035 C2039 1.429 . S
C2036 C2019 1.574 . S
C2036 H2030 0.949 . S
C2036 C2040 1.368 . S
C2037 C2018 1.429 . S
C2037 C2031 1.429 . S
C2037 C2038 1.523 . S
C2038 C2019 1.368 . S
C2038 C2032 1.368 . S
C2038 C2037 1.523 . S
C2039 C2023 1.429 . S
C2039 C2035 1.429 . S
C2039 C2040 1.523 . S
C2040 C2024 1.368 . S
C2040 C2036 1.368 . S
C2040 C2039 1.523 . S
H2041 C2016 0.950 . S
H2042 C2018 0.950 . S
H2043 C2019 0.949 . S
H2044 C2021 0.950 . S
H2045 C2023 0.950 . S
C2046 C2047 1.349 . S
C2046 C2048 1.327 . S
C2046 H2071 0.950 . S
C2047 C2046 1.349 . S
C2047 C2063 1.349 . S
C2048 C2046 1.327 . S
C2048 C2067 1.429 . S
C2048 H2072 0.950 . S
C2049 C2066 1.574 . S
C2049 C2068 1.368 . S
C2049 H2073 0.949 . S
H2050 C2054 0.949 . S
C2051 C2052 1.349 . S
C2051 C2053 1.327 . S
C2051 H2074 0.950 . S
C2052 C2051 1.349 . S
C2052 C2064 1.349 . S
C2053 C2051 1.327 . S
C2053 C2069 1.429 . S
C2053 H2075 0.950 . S
C2054 H2050 0.949 . S
C2054 C2062 1.574 . S
C2054 C2070 1.368 . S
H2055 C2063 0.950 . S
H2056 C2061 0.950 . S
H2057 C2062 0.949 . S
H2058 C2064 0.950 . S
H2059 C2065 0.950 . S
H2060 C2066 0.949 . S
C2061 H2056 0.950 . S
C2061 C2063 1.327 . S
C2061 C2067 1.429 . S
C2062 C2054 1.574 . S
C2062 H2057 0.949 . S
C2062 C2068 1.368 . S
C2063 C2047 1.349 . S
C2063 H2055 0.950 . S
C2063 C2061 1.327 . S
C2064 C2052 1.349 . S
C2064 H2058 0.950 . S
C2064 C2065 1.327 . S
C2065 H2059 0.950 . S
C2065 C2064 1.327 . S
C2065 C2069 1.429 . S
C2066 C2049 1.574 . S
C2066 H2060 0.949 . S
C2066 C2070 1.368 . S
C2067 C2048 1.429 . S
C2067 C2061 1.429 . S
C2067 C2068 1.523 . S
C2068 C2049 1.368 . S
C2068 C2062 1.368 . S
C2068 C2067 1.523 . S
C2069 C2053 1.429 . S
C2069 C2065 1.429 . S
C2069 C2070 1.523 . S
C2070 C2054 1.368 . S
C2070 C2066 1.368 . S
C2070 C2069 1.523 . S
H2071 C2046 0.950 . S
H2072 C2048 0.950 . S
H2073 C2049 0.949 . S
H2074 C2051 0.950 . S
H2075 C2053 0.950 . S
C2076 C2077 1.349 . S
C2076 C2078 1.327 . S
C2076 H2101 0.950 . S
C2077 C2076 1.349 . S
C2077 C2093 1.349 . S
C2078 C2076 1.327 . S
C2078 C2097 1.429 . S
C2078 H2102 0.950 . S
C2079 C2096 1.574 . S
C2079 C2098 1.368 . S
C2079 H2103 0.949 . S
H2080 C2084 0.949 . S
C2081 C2082 1.349 . S
C2081 C2083 1.327 . S
C2081 H2104 0.950 . S
C2082 C2081 1.349 . S
C2082 C2094 1.349 . S
C2083 C2081 1.327 . S
C2083 C2099 1.429 . S
C2083 H2105 0.950 . S
C2084 H2080 0.949 . S
C2084 C2092 1.574 . S
C2084 C2100 1.368 . S
H2085 C2093 0.950 . S
H2086 C2091 0.950 . S
H2087 C2092 0.949 . S
H2088 C2094 0.950 . S
H2089 C2095 0.950 . S
H2090 C2096 0.949 . S
C2091 H2086 0.950 . S
C2091 C2093 1.327 . S
C2091 C2097 1.429 . S
C2092 C2084 1.574 . S
C2092 H2087 0.949 . S
C2092 C2098 1.368 . S
C2093 C2077 1.349 . S
C2093 H2085 0.950 . S
C2093 C2091 1.327 . S
C2094 C2082 1.349 . S
C2094 H2088 0.950 . S
C2094 C2095 1.327 . S
C2095 H2089 0.950 . S
C2095 C2094 1.327 . S
C2095 C2099 1.429 . S
C2096 C2079 1.574 . S
C2096 H2090 0.949 . S
C2096 C2100 1.368 . S
C2097 C2078 1.429 . S
C2097 C2091 1.429 . S
C2097 C2098 1.523 . S
C2098 C2079 1.368 . S
C2098 C2092 1.368 . S
C2098 C2097 1.523 . S
C2099 C2083 1.429 . S
C2099 C2095 1.429 . S
C2099 C2100 1.523 . S
C2100 C2084 1.368 . S
C2100 C2096 1.368 . S
C2100 C2099 1.523 . S
H2101 C2076 0.950 . S
H2102 C2078 0.950 . S
H2103 C2079 0.949 . S
H2104 C2081 0.950 . S
H2105 C2083 0.950 . S
C2106 C2107 1.349 . S
C2106 C2108 1.327 . S
C2106 H2131 0.950 . S
C2107 C2106 1.349 . S
C2107 C2123 1.349 . S
C2108 C2106 1.327 . S
C2108 C2127 1.429 . S
C2108 H2132 0.950 . S
C2109 C2126 1.574 . S
C2109 C2128 1.368 . S
C2109 H2133 0.949 . S
H2110 C2114 0.949 . S
C2111 C2112 1.349 . S
C2111 C2113 1.327 . S
C2111 H2134 0.950 . S
C2112 C2111 1.349 . S
C2112 C2124 1.349 . S
C2113 C2111 1.327 . S
C2113 C2129 1.429 . S
C2113 H2135 0.950 . S
C2114 H2110 0.949 . S
C2114 C2122 1.574 . S
C2114 C2130 1.368 . S
H2115 C2123 0.950 . S
H2116 C2121 0.950 . S
H2117 C2122 0.949 . S
H2118 C2124 0.950 . S
H2119 C2125 0.950 . S
H2120 C2126 0.949 . S
C2121 H2116 0.950 . S
C2121 C2123 1.327 . S
C2121 C2127 1.429 . S
C2122 C2114 1.574 . S
C2122 H2117 0.949 . S
C2122 C2128 1.368 . S
C2123 C2107 1.349 . S
C2123 H2115 0.950 . S
C2123 C2121 1.327 . S
C2124 C2112 1.349 . S
C2124 H2118 0.950 . S
C2124 C2125 1.327 . S
C2125 H2119 0.950 . S
C2125 C2124 1.327 . S
C2125 C2129 1.429 . S
C2126 C2109 1.574 . S
C2126 H2120 0.949 . S
C2126 C2130 1.368 . S
C2127 C2108 1.429 . S
C2127 C2121 1.429 . S
C2127 C2128 1.523 . S
C2128 C2109 1.368 . S
C2128 C2122 1.368 . S
C2128 C2127 1.523 . S
C2129 C2113 1.429 . S
C2129 C2125 1.429 . S
C2129 C2130 1.523 . S
C2130 C2114 1.368 . S
C2130 C2126 1.368 . S
C2130 C2129 1.523 . S
H2131 C2106 0.950 . S
H2132 C2108 0.950 . S
H2133 C2109 0.949 . S
H2134 C2111 0.950 . S
H2135 C2113 0.950 . S
C2136 C2137 1.349 . S
C2136 C2138 1.327 . S
C2136 H2161 0.950 . S
C2137 C2136 1.349 . S
C2137 C2153 1.349 . S
C2138 C2136 1.327 . S
C2138 C2157 1.429 . S
C2138 H2162 0.950 . S
C2139 C2156 1.574 . S
C2139 C2158 1.368 . S
C2139 H2163 0.949 . S
H2140 C2144 0.949 . S
C2141 C2142 1.349 . S
C2141 C2143 1.327 . S
C2141 H2164 0.950 . S
C2142 C2141 1.349 . S
C2142 C2154 1.349 . S
C2143 C2141 1.327 . S
C2143 C2159 1.429 . S
C2143 H2165 0.950 . S
C2144 H2140 0.949 . S
C2144 C2152 1.574 . S
C2144 C2160 1.368 . S
H2145 C2153 0.950 . S
H2146 C2151 0.950 . S
H2147 C2152 0.949 . S
H2148 C2154 0.950 . S
H2149 C2155 0.950 . S
H2150 C2156 0.949 . S
C2151 H2146 0.950 . S
C2151 C2153 1.327 . S
C2151 C2157 1.429 . S
C2152 C2144 1.574 . S
C2152 H2147 0.949 . S
C2152 C2158 1.368 . S
C2153 C2137 1.349 . S
C2153 H2145 0.950 . S
C2153 C2151 1.327 . S
C2154 C2142 1.349 . S
C2154 H2148 0.950 . S
C2154 C2155 1.327 . S
C2155 H2149 0.950 . S
C2155 C2154 1.327 . S
C2155 C2159 1.429 . S
C2156 C2139 1.574 . S
C2156 H2150 0.949 . S
C2156 C2160 1.368 . S
C2157 C2138 1.429 . S
C2157 C2151 1.429 . S
C2157 C2158 1.523 . S
C2158 C2139 1.368 . S
C2158 C2152 1.368 . S
C2158 C2157 1.523 . S
C2159 C2143 1.429 . S
C2159 C2155 1.429 . S
C2159 C2160 1.523 . S
C2160 C2144 1.368 . S
C2160 C2156 1.368 . S
C2160 C2159 1.523 . S
H2161 C2136 0.950 . S
H2162 C2138 0.950 . S
H2163 C2139 0.949 . S
H2164 C2141 0.950 . S
H2165 C2143 0.950 . S
C2166 C2167 1.349 . S
C2166 C2168 1.327 . S
C2166 H2191 0.950 . S
C2167 C2166 1.349 . S
C2167 C2183 1.349 . S
C2168 C2166 1.327 . S
C2168 C2187 1.429 . S
C2168 H2192 0.950 . S
C2169 C2186 1.574 . S
C2169 C2188 1.368 . S
C2169 H2193 0.949 . S
H2170 C2174 0.949 . S
C2171 C2172 1.349 . S
C2171 C2173 1.327 . S
C2171 H2194 0.950 . S
C2172 C2171 1.349 . S
C2172 C2184 1.349 . S
C2173 C2171 1.327 . S
C2173 C2189 1.429 . S
C2173 H2195 0.950 . S
C2174 H2170 0.949 . S
C2174 C2182 1.574 . S
C2174 C2190 1.368 . S
H2175 C2183 0.950 . S
H2176 C2181 0.950 . S
H2177 C2182 0.949 . S
H2178 C2184 0.950 . S
H2179 C2185 0.950 . S
H2180 C2186 0.949 . S
C2181 H2176 0.950 . S
C2181 C2183 1.327 . S
C2181 C2187 1.429 . S
C2182 C2174 1.574 . S
C2182 H2177 0.949 . S
C2182 C2188 1.368 . S
C2183 C2167 1.349 . S
C2183 H2175 0.950 . S
C2183 C2181 1.327 . S
C2184 C2172 1.349 . S
C2184 H2178 0.950 . S
C2184 C2185 1.327 . S
C2185 H2179 0.950 . S
C2185 C2184 1.327 . S
C2185 C2189 1.429 . S
C2186 C2169 1.574 . S
C2186 H2180 0.949 . S
C2186 C2190 1.368 . S
C2187 C2168 1.429 . S
C2187 C2181 1.429 . S
C2187 C2188 1.523 . S
C2188 C2169 1.368 . S
C2188 C2182 1.368 . S
C2188 C2187 1.523 . S
C2189 C2173 1.429 . S
C2189 C2185 1.429 . S
C2189 C2190 1.523 . S
C2190 C2174 1.368 . S
C2190 C2186 1.368 . S
C2190 C2189 1.523 . S
H2191 C2166 0.950 . S
H2192 C2168 0.950 . S
H2193 C2169 0.949 . S
H2194 C2171 0.950 . S
H2195 C2173 0.950 . S
C2196 C2197 1.349 . S
C2196 C2198 1.327 . S
C2196 H2221 0.950 . S
C2197 C2196 1.349 . S
C2197 C2213 1.349 . S
C2198 C2196 1.327 . S
C2198 C2217 1.429 . S
C2198 H2222 0.950 . S
C2199 C2216 1.574 . S
C2199 C2218 1.368 . S
C2199 H2223 0.949 . S
H2200 C2204 0.949 . S
C2201 C2202 1.349 . S
C2201 C2203 1.327 . S
C2201 H2224 0.950 . S
C2202 C2201 1.349 . S
C2202 C2214 1.349 . S
C2203 C2201 1.327 . S
C2203 C2219 1.429 . S
C2203 H2225 0.950 . S
C2204 H2200 0.949 . S
C2204 C2212 1.574 . S
C2204 C2220 1.368 . S
H2205 C2213 0.950 . S
H2206 C2211 0.950 . S
H2207 C2212 0.949 . S
H2208 C2214 0.950 . S
H2209 C2215 0.950 . S
H2210 C2216 0.949 . S
C2211 H2206 0.950 . S
C2211 C2213 1.327 . S
C2211 C2217 1.429 . S
C2212 C2204 1.574 . S
C2212 H2207 0.949 . S
C2212 C2218 1.368 . S
C2213 C2197 1.349 . S
C2213 H2205 0.950 . S
C2213 C2211 1.327 . S
C2214 C2202 1.349 . S
C2214 H2208 0.950 . S
C2214 C2215 1.327 . S
C2215 H2209 0.950 . S
C2215 C2214 1.327 . S
C2215 C2219 1.429 . S
C2216 C2199 1.574 . S
C2216 H2210 0.949 . S
C2216 C2220 1.368 . S
C2217 C2198 1.429 . S
C2217 C2211 1.429 . S
C2217 C2218 1.523 . S
C2218 C2199 1.368 . S
C2218 C2212 1.368 . S
C2218 C2217 1.523 . S
C2219 C2203 1.429 . S
C2219 C2215 1.429 . S
C2219 C2220 1.523 . S
C2220 C2204 1.368 . S
C2220 C2216 1.368 . S
C2220 C2219 1.523 . S
H2221 C2196 0.950 . S
H2222 C2198 0.950 . S
H2223 C2199 0.949 . S
H2224 C2201 0.950 . S
H2225 C2203 0.950 . S
C2226 C2227 1.349 . S
C2226 C2228 1.327 . S
C2226 H2251 0.950 . S
C2227 C2226 1.349 . S
C2227 C2243 1.349 . S
C2228 C2226 1.327 . S
C2228 C2247 1.429 . S
C2228 H2252 0.950 . S
C2229 C2246 1.574 . S
C2229 C2248 1.368 . S
C2229 H2253 0.949 . S
H2230 C2234 0.949 . S
C2231 C2232 1.349 . S
C2231 C2233 1.327 . S
C2231 H2254 0.950 . S
C2232 C2231 1.349 . S
C2232 C2244 1.349 . S
C2233 C2231 1.327 . S
C2233 C2249 1.429 . S
C2233 H2255 0.950 . S
C2234 H2230 0.949 . S
C2234 C2242 1.574 . S
C2234 C2250 1.368 . S
H2235 C2243 0.950 . S
H2236 C2241 0.950 . S
H2237 C2242 0.949 . S
H2238 C2244 0.950 . S
H2239 C2245 0.950 . S
H2240 C2246 0.949 . S
C2241 H2236 0.950 . S
C2241 C2243 1.327 . S
C2241 C2247 1.429 . S
C2242 C2234 1.574 . S
C2242 H2237 0.949 . S
C2242 C2248 1.368 . S
C2243 C2227 1.349 . S
C2243 H2235 0.950 . S
C2243 C2241 1.327 . S
C2244 C2232 1.349 . S
C2244 H2238 0.950 . S
C2244 C2245 1.327 . S
C2245 H2239 0.950 . S
C2245 C2244 1.327 . S
C2245 C2249 1.429 . S
C2246 C2229 1.574 . S
C2246 H2240 0.949 . S
C2246 C2250 1.368 . S
C2247 C2228 1.429 . S
C2247 C2241 1.429 . S
C2247 C2248 1.523 . S
C2248 C2229 1.368 . S
C2248 C2242 1.368 . S
C2248 C2247 1.523 . S
C2249 C2233 1.429 . S
C2249 C2245 1.429 . S
C2249 C2250 1.523 . S
C2250 C2234 1.368 . S
C2250 C2246 1.368 . S
C2250 C2249 1.523 . S
H2251 C2226 0.950 . S
H2252 C2228 0.950 . S
H2253 C2229 0.949 . S
H2254 C2231 0.950 . S
H2255 C2233 0.950 . S
C2256 C2257 1.349 . S
C2256 C2258 1.327 . S
C2256 H2281 0.950 . S
C2257 C2256 1.349 . S
C2257 C2273 1.349 . S
C2258 C2256 1.327 . S
C2258 C2277 1.429 . S
C2258 H2282 0.950 . S
C2259 C2276 1.574 . S
C2259 C2278 1.368 . S
C2259 H2283 0.949 . S
H2260 C2264 0.949 . S
C2261 C2262 1.349 . S
C2261 C2263 1.327 . S
C2261 H2284 0.950 . S
C2262 C2261 1.349 . S
C2262 C2274 1.349 . S
C2263 C2261 1.327 . S
C2263 C2279 1.429 . S
C2263 H2285 0.950 . S
C2264 H2260 0.949 . S
C2264 C2272 1.574 . S
C2264 C2280 1.368 . S
H2265 C2273 0.950 . S
H2266 C2271 0.950 . S
H2267 C2272 0.949 . S
H2268 C2274 0.950 . S
H2269 C2275 0.950 . S
H2270 C2276 0.949 . S
C2271 H2266 0.950 . S
C2271 C2273 1.327 . S
C2271 C2277 1.429 . S
C2272 C2264 1.574 . S
C2272 H2267 0.949 . S
C2272 C2278 1.368 . S
C2273 C2257 1.349 . S
C2273 H2265 0.950 . S
C2273 C2271 1.327 . S
C2274 C2262 1.349 . S
C2274 H2268 0.950 . S
C2274 C2275 1.327 . S
C2275 H2269 0.950 . S
C2275 C2274 1.327 . S
C2275 C2279 1.429 . S
C2276 C2259 1.574 . S
C2276 H2270 0.949 . S
C2276 C2280 1.368 . S
C2277 C2258 1.429 . S
C2277 C2271 1.429 . S
C2277 C2278 1.523 . S
C2278 C2259 1.368 . S
C2278 C2272 1.368 . S
C2278 C2277 1.523 . S
C2279 C2263 1.429 . S
C2279 C2275 1.429 . S
C2279 C2280 1.523 . S
C2280 C2264 1.368 . S
C2280 C2276 1.368 . S
C2280 C2279 1.523 . S
H2281 C2256 0.950 . S
H2282 C2258 0.950 . S
H2283 C2259 0.949 . S
H2284 C2261 0.950 . S
H2285 C2263 0.950 . S
C2286 C2287 1.349 . S
C2286 C2288 1.327 . S
C2286 H2311 0.950 . S
C2287 C2286 1.349 . S
C2287 C2303 1.349 . S
C2288 C2286 1.327 . S
C2288 C2307 1.429 . S
C2288 H2312 0.950 . S
C2289 C2306 1.574 . S
C2289 C2308 1.368 . S
C2289 H2313 0.949 . S
H2290 C2294 0.949 . S
C2291 C2292 1.349 . S
C2291 C2293 1.327 . S
C2291 H2314 0.950 . S
C2292 C2291 1.349 . S
C2292 C2304 1.349 . S
C2293 C2291 1.327 . S
C2293 C2309 1.429 . S
C2293 H2315 0.950 . S
C2294 H2290 0.949 . S
C2294 C2302 1.574 . S
C2294 C2310 1.368 . S
H2295 C2303 0.950 . S
H2296 C2301 0.950 . S
H2297 C2302 0.949 . S
H2298 C2304 0.950 . S
H2299 C2305 0.950 . S
H2300 C2306 0.949 . S
C2301 H2296 0.950 . S
C2301 C2303 1.327 . S
C2301 C2307 1.429 . S
C2302 C2294 1.574 . S
C2302 H2297 0.949 . S
C2302 C2308 1.368 . S
C2303 C2287 1.349 . S
C2303 H2295 0.950 . S
C2303 C2301 1.327 . S
C2304 C2292 1.349 . S
C2304 H2298 0.950 . S
C2304 C2305 1.327 . S
C2305 H2299 0.950 . S
C2305 C2304 1.327 . S
C2305 C2309 1.429 . S
C2306 C2289 1.574 . S
C2306 H2300 0.949 . S
C2306 C2310 1.368 . S
C2307 C2288 1.429 . S
C2307 C2301 1.429 . S
C2307 C2308 1.523 . S
C2308 C2289 1.368 . S
C2308 C2302 1.368 . S
C2308 C2307 1.523 . S
C2309 C2293 1.429 . S
C2309 C2305 1.429 . S
C2309 C2310 1.523 . S
C2310 C2294 1.368 . S
C2310 C2306 1.368 . S
C2310 C2309 1.523 . S
H2311 C2286 0.950 . S
H2312 C2288 0.950 . S
H2313 C2289 0.949 . S
H2314 C2291 0.950 . S
H2315 C2293 0.950 . S
C2316 C2317 1.349 . S
C2316 C2318 1.327 . S
C2316 H2341 0.950 . S
C2317 C2316 1.349 . S
C2317 C2333 1.349 . S
C2318 C2316 1.327 . S
C2318 C2337 1.429 . S
C2318 H2342 0.950 . S
C2319 C2336 1.574 . S
C2319 C2338 1.368 . S
C2319 H2343 0.949 . S
H2320 C2324 0.949 . S
C2321 C2322 1.349 . S
C2321 C2323 1.327 . S
C2321 H2344 0.950 . S
C2322 C2321 1.349 . S
C2322 C2334 1.349 . S
C2323 C2321 1.327 . S
C2323 C2339 1.429 . S
C2323 H2345 0.950 . S
C2324 H2320 0.949 . S
C2324 C2332 1.574 . S
C2324 C2340 1.368 . S
H2325 C2333 0.950 . S
H2326 C2331 0.950 . S
H2327 C2332 0.949 . S
H2328 C2334 0.950 . S
H2329 C2335 0.950 . S
H2330 C2336 0.949 . S
C2331 H2326 0.950 . S
C2331 C2333 1.327 . S
C2331 C2337 1.429 . S
C2332 C2324 1.574 . S
C2332 H2327 0.949 . S
C2332 C2338 1.368 . S
C2333 C2317 1.349 . S
C2333 H2325 0.950 . S
C2333 C2331 1.327 . S
C2334 C2322 1.349 . S
C2334 H2328 0.950 . S
C2334 C2335 1.327 . S
C2335 H2329 0.950 . S
C2335 C2334 1.327 . S
C2335 C2339 1.429 . S
C2336 C2319 1.574 . S
C2336 H2330 0.949 . S
C2336 C2340 1.368 . S
C2337 C2318 1.429 . S
C2337 C2331 1.429 . S
C2337 C2338 1.523 . S
C2338 C2319 1.368 . S
C2338 C2332 1.368 . S
C2338 C2337 1.523 . S
C2339 C2323 1.429 . S
C2339 C2335 1.429 . S
C2339 C2340 1.523 . S
C2340 C2324 1.368 . S
C2340 C2336 1.368 . S
C2340 C2339 1.523 . S
H2341 C2316 0.950 . S
H2342 C2318 0.950 . S
H2343 C2319 0.949 . S
H2344 C2321 0.950 . S
H2345 C2323 0.950 . S
C2346 C2347 1.349 . S
C2346 C2348 1.327 . S
C2346 H2371 0.950 . S
C2347 C2346 1.349 . S
C2347 C2363 1.349 . S
C2348 C2346 1.327 . S
C2348 C2367 1.429 . S
C2348 H2372 0.950 . S
C2349 C2366 1.574 . S
C2349 C2368 1.368 . S
C2349 H2373 0.949 . S
H2350 C2354 0.949 . S
C2351 C2352 1.349 . S
C2351 C2353 1.327 . S
C2351 H2374 0.950 . S
C2352 C2351 1.349 . S
C2352 C2364 1.349 . S
C2353 C2351 1.327 . S
C2353 C2369 1.429 . S
C2353 H2375 0.950 . S
C2354 H2350 0.949 . S
C2354 C2362 1.574 . S
C2354 C2370 1.368 . S
H2355 C2363 0.950 . S
H2356 C2361 0.950 . S
H2357 C2362 0.949 . S
H2358 C2364 0.950 . S
H2359 C2365 0.950 . S
H2360 C2366 0.949 . S
C2361 H2356 0.950 . S
C2361 C2363 1.327 . S
C2361 C2367 1.429 . S
C2362 C2354 1.574 . S
C2362 H2357 0.949 . S
C2362 C2368 1.368 . S
C2363 C2347 1.349 . S
C2363 H2355 0.950 . S
C2363 C2361 1.327 . S
C2364 C2352 1.349 . S
C2364 H2358 0.950 . S
C2364 C2365 1.327 . S
C2365 H2359 0.950 . S
C2365 C2364 1.327 . S
C2365 C2369 1.429 . S
C2366 C2349 1.574 . S
C2366 H2360 0.949 . S
C2366 C2370 1.368 . S
C2367 C2348 1.429 . S
C2367 C2361 1.429 . S
C2367 C2368 1.523 . S
C2368 C2349 1.368 . S
C2368 C2362 1.368 . S
C2368 C2367 1.523 . S
C2369 C2353 1.429 . S
C2369 C2365 1.429 . S
C2369 C2370 1.523 . S
C2370 C2354 1.368 . S
C2370 C2366 1.368 . S
C2370 C2369 1.523 . S
H2371 C2346 0.950 . S
H2372 C2348 0.950 . S
H2373 C2349 0.949 . S
H2374 C2351 0.950 . S
H2375 C2353 0.950 . S
C2376 C2377 1.349 . S
C2376 C2378 1.327 . S
C2376 H2401 0.950 . S
C2377 C2376 1.349 . S
C2377 C2393 1.349 . S
C2378 C2376 1.327 . S
C2378 C2397 1.429 . S
C2378 H2402 0.950 . S
C2379 C2396 1.574 . S
C2379 C2398 1.368 . S
C2379 H2403 0.949 . S
H2380 C2384 0.949 . S
C2381 C2382 1.349 . S
C2381 C2383 1.327 . S
C2381 H2404 0.950 . S
C2382 C2381 1.349 . S
C2382 C2394 1.349 . S
C2383 C2381 1.327 . S
C2383 C2399 1.429 . S
C2383 H2405 0.950 . S
C2384 H2380 0.949 . S
C2384 C2392 1.574 . S
C2384 C2400 1.368 . S
H2385 C2393 0.950 . S
H2386 C2391 0.950 . S
H2387 C2392 0.949 . S
H2388 C2394 0.950 . S
H2389 C2395 0.950 . S
H2390 C2396 0.949 . S
C2391 H2386 0.950 . S
C2391 C2393 1.327 . S
C2391 C2397 1.429 . S
C2392 C2384 1.574 . S
C2392 H2387 0.949 . S
C2392 C2398 1.368 . S
C2393 C2377 1.349 . S
C2393 H2385 0.950 . S
C2393 C2391 1.327 . S
C2394 C2382 1.349 . S
C2394 H2388 0.950 . S
C2394 C2395 1.327 . S
C2395 H2389 0.950 . S
C2395 C2394 1.327 . S
C2395 C2399 1.429 . S
C2396 C2379 1.574 . S
C2396 H2390 0.949 . S
C2396 C2400 1.368 . S
C2397 C2378 1.429 . S
C2397 C2391 1.429 . S
C2397 C2398 1.523 . S
C2398 C2379 1.368 . S
C2398 C2392 1.368 . S
C2398 C2397 1.523 . S
C2399 C2383 1.429 . S
C2399 C2395 1.429 . S
C2399 C2400 1.523 . S
C2400 C2384 1.368 . S
C2400 C2396 1.368 . S
C2400 C2399 1.523 . S
H2401 C2376 0.950 . S
H2402 C2378 0.950 . S
H2403 C2379 0.949 . S
H2404 C2381 0.950 . S
H2405 C2383 0.950 . S
C2406 C2407 1.349 . S
C2406 C2408 1.327 . S
C2406 H2431 0.950 . S
C2407 C2406 1.349 . S
C2407 C2423 1.349 . S
C2408 C2406 1.327 . S
C2408 C2427 1.429 . S
C2408 H2432 0.950 . S
C2409 C2426 1.574 . S
C2409 C2428 1.368 . S
C2409 H2433 0.949 . S
H2410 C2414 0.949 . S
C2411 C2412 1.349 . S
C2411 C2413 1.327 . S
C2411 H2434 0.950 . S
C2412 C2411 1.349 . S
C2412 C2424 1.349 . S
C2413 C2411 1.327 . S
C2413 C2429 1.429 . S
C2413 H2435 0.950 . S
C2414 H2410 0.949 . S
C2414 C2422 1.574 . S
C2414 C2430 1.368 . S
H2415 C2423 0.950 . S
H2416 C2421 0.950 . S
H2417 C2422 0.949 . S
H2418 C2424 0.950 . S
H2419 C2425 0.950 . S
H2420 C2426 0.949 . S
C2421 H2416 0.950 . S
C2421 C2423 1.327 . S
C2421 C2427 1.429 . S
C2422 C2414 1.574 . S
C2422 H2417 0.949 . S
C2422 C2428 1.368 . S
C2423 C2407 1.349 . S
C2423 H2415 0.950 . S
C2423 C2421 1.327 . S
C2424 C2412 1.349 . S
C2424 H2418 0.950 . S
C2424 C2425 1.327 . S
C2425 H2419 0.950 . S
C2425 C2424 1.327 . S
C2425 C2429 1.429 . S
C2426 C2409 1.574 . S
C2426 H2420 0.949 . S
C2426 C2430 1.368 . S
C2427 C2408 1.429 . S
C2427 C2421 1.429 . S
C2427 C2428 1.523 . S
C2428 C2409 1.368 . S
C2428 C2422 1.368 . S
C2428 C2427 1.523 . S
C2429 C2413 1.429 . S
C2429 C2425 1.429 . S
C2429 C2430 1.523 . S
C2430 C2414 1.368 . S
C2430 C2426 1.368 . S
C2430 C2429 1.523 . S
H2431 C2406 0.950 . S
H2432 C2408 0.950 . S
H2433 C2409 0.949 . S
H2434 C2411 0.950 . S
H2435 C2413 0.950 . S
C2436 C2437 1.349 . S
C2436 C2438 1.327 . S
C2436 H2461 0.950 . S
C2437 C2436 1.349 . S
C2437 C2453 1.349 . S
C2438 C2436 1.327 . S
C2438 C2457 1.429 . S
C2438 H2462 0.950 . S
C2439 C2456 1.574 . S
C2439 C2458 1.368 . S
C2439 H2463 0.949 . S
H2440 C2444 0.949 . S
C2441 C2442 1.349 . S
C2441 C2443 1.327 . S
C2441 H2464 0.950 . S
C2442 C2441 1.349 . S
C2442 C2454 1.349 . S
C2443 C2441 1.327 . S
C2443 C2459 1.429 . S
C2443 H2465 0.950 . S
C2444 H2440 0.949 . S
C2444 C2452 1.574 . S
C2444 C2460 1.368 . S
H2445 C2453 0.950 . S
H2446 C2451 0.950 . S
H2447 C2452 0.949 . S
H2448 C2454 0.950 . S
H2449 C2455 0.950 . S
H2450 C2456 0.949 . S
C2451 H2446 0.950 . S
C2451 C2453 1.327 . S
C2451 C2457 1.429 . S
C2452 C2444 1.574 . S
C2452 H2447 0.949 . S
C2452 C2458 1.368 . S
C2453 C2437 1.349 . S
C2453 H2445 0.950 . S
C2453 C2451 1.327 . S
C2454 C2442 1.349 . S
C2454 H2448 0.950 . S
C2454 C2455 1.327 . S
C2455 H2449 0.950 . S
C2455 C2454 1.327 . S
C2455 C2459 1.429 . S
C2456 C2439 1.574 . S
C2456 H2450 0.949 . S
C2456 C2460 1.368 . S
C2457 C2438 1.429 . S
C2457 C2451 1.429 . S
C2457 C2458 1.523 . S
C2458 C2439 1.368 . S
C2458 C2452 1.368 . S
C2458 C2457 1.523 . S
C2459 C2443 1.429 . S
C2459 C2455 1.429 . S
C2459 C2460 1.523 . S
C2460 C2444 1.368 . S
C2460 C2456 1.368 . S
C2460 C2459 1.523 . S
H2461 C2436 0.950 . S
H2462 C2438 0.950 . S
H2463 C2439 0.949 . S
H2464 C2441 0.950 . S
H2465 C2443 0.950 . S
C2466 C2467 1.349 . S
C2466 C2468 1.327 . S
C2466 H2491 0.950 . S
C2467 C2466 1.349 . S
C2467 C2483 1.349 . S
C2468 C2466 1.327 . S
C2468 C2487 1.429 . S
C2468 H2492 0.950 . S
C2469 C2486 1.574 . S
C2469 C2488 1.368 . S
C2469 H2493 0.949 . S
H2470 C2474 0.949 . S
C2471 C2472 1.349 . S
C2471 C2473 1.327 . S
C2471 H2494 0.950 . S
C2472 C2471 1.349 . S
C2472 C2484 1.349 . S
C2473 C2471 1.327 . S
C2473 C2489 1.429 . S
C2473 H2495 0.950 . S
C2474 H2470 0.949 . S
C2474 C2482 1.574 . S
C2474 C2490 1.368 . S
H2475 C2483 0.950 . S
H2476 C2481 0.950 . S
H2477 C2482 0.949 . S
H2478 C2484 0.950 . S
H2479 C2485 0.950 . S
H2480 C2486 0.949 . S
C2481 H2476 0.950 . S
C2481 C2483 1.327 . S
C2481 C2487 1.429 . S
C2482 C2474 1.574 . S
C2482 H2477 0.949 . S
C2482 C2488 1.368 . S
C2483 C2467 1.349 . S
C2483 H2475 0.950 . S
C2483 C2481 1.327 . S
C2484 C2472 1.349 . S
C2484 H2478 0.950 . S
C2484 C2485 1.327 . S
C2485 H2479 0.950 . S
C2485 C2484 1.327 . S
C2485 C2489 1.429 . S
C2486 C2469 1.574 . S
C2486 H2480 0.949 . S
C2486 C2490 1.368 . S
C2487 C2468 1.429 . S
C2487 C2481 1.429 . S
C2487 C2488 1.523 . S
C2488 C2469 1.368 . S
C2488 C2482 1.368 . S
C2488 C2487 1.523 . S
C2489 C2473 1.429 . S
C2489 C2485 1.429 . S
C2489 C2490 1.523 . S
C2490 C2474 1.368 . S
C2490 C2486 1.368 . S
C2490 C2489 1.523 . S
H2491 C2466 0.950 . S
H2492 C2468 0.950 . S
H2493 C2469 0.949 . S
H2494 C2471 0.950 . S
H2495 C2473 0.950 . S
C2496 C2497 1.349 . S
C2496 C2498 1.327 . S
C2496 H2521 0.950 . S
C2497 C2496 1.349 . S
C2497 C2513 1.349 . S
C2498 C2496 1.327 . S
C2498 C2517 1.429 . S
C2498 H2522 0.950 . S
C2499 C2516 1.574 . S
C2499 C2518 1.368 . S
C2499 H2523 0.949 . S
H2500 C2504 0.949 . S
C2501 C2502 1.349 . S
C2501 C2503 1.327 . S
C2501 H2524 0.950 . S
C2502 C2501 1.349 . S
C2502 C2514 1.349 . S
C2503 C2501 1.327 . S
C2503 C2519 1.429 . S
C2503 H2525 0.950 . S
C2504 H2500 0.949 . S
C2504 C2512 1.574 . S
C2504 C2520 1.368 . S
H2505 C2513 0.950 . S
H2506 C2511 0.950 . S
H2507 C2512 0.949 . S
H2508 C2514 0.950 . S
H2509 C2515 0.950 . S
H2510 C2516 0.949 . S
C2511 H2506 0.950 . S
C2511 C2513 1.327 . S
C2511 C2517 1.429 . S
C2512 C2504 1.574 . S
C2512 H2507 0.949 . S
C2512 C2518 1.368 . S
C2513 C2497 1.349 . S
C2513 H2505 0.950 . S
C2513 C2511 1.327 . S
C2514 C2502 1.349 . S
C2514 H2508 0.950 . S
C2514 C2515 1.327 . S
C2515 H2509 0.950 . S
C2515 C2514 1.327 . S
C2515 C2519 1.429 . S
C2516 C2499 1.574 . S
C2516 H2510 0.949 . S
C2516 C2520 1.368 . S
C2517 C2498 1.429 . S
C2517 C2511 1.429 . S
C2517 C2518 1.523 . S
C2518 C2499 1.368 . S
C2518 C2512 1.368 . S
C2518 C2517 1.523 . S
C2519 C2503 1.429 . S
C2519 C2515 1.429 . S
C2519 C2520 1.523 . S
C2520 C2504 1.368 . S
C2520 C2516 1.368 . S
C2520 C2519 1.523 . S
H2521 C2496 0.950 . S
H2522 C2498 0.950 . S
H2523 C2499 0.949 . S
H2524 C2501 0.950 . S
H2525 C2503 0.950 . S
C2526 C2527 1.349 . S
C2526 C2528 1.327 . S
C2526 H2551 0.950 . S
C2527 C2526 1.349 . S
C2527 C2543 1.349 . S
C2528 C2526 1.327 . S
C2528 C2547 1.429 . S
C2528 H2552 0.950 1_455 S
C2529 C2546 1.551 1_455 S
C2529 C2548 1.356 1_455 S
C2529 H2553 0.949 . S
H2530 C2534 0.949 . S
C2531 C2532 1.349 . S
C2531 C2533 1.327 . S
C2531 H2554 0.950 . S
C2532 C2531 1.349 . S
C2532 C2544 1.349 . S
C2533 C2531 1.327 . S
C2533 C2549 1.429 . S
C2533 H2555 0.950 . S
C2534 H2530 0.949 . S
C2534 C2542 1.574 . S
C2534 C2550 1.368 . S
H2535 C2543 0.950 . S
H2536 C2541 0.950 . S
H2537 C2542 0.949 . S
H2538 C2544 0.950 . S
H2539 C2545 0.950 . S
H2540 C2546 0.932 1_455 S
C2541 H2536 0.950 . S
C2541 C2543 1.327 . S
C2541 C2547 1.429 . S
C2542 C2534 1.574 . S
C2542 H2537 0.949 . S
C2542 C2548 1.389 . S
C2543 C2527 1.349 . S
C2543 H2535 0.950 . S
C2543 C2541 1.327 . S
C2544 C2532 1.349 . S
C2544 H2538 0.950 . S
C2544 C2545 1.327 . S
C2545 H2539 0.950 . S
C2545 C2544 1.327 . S
C2545 C2549 1.429 . S
C2546 C2529 1.551 1_655 S
C2546 H2540 0.932 1_655 S
C2546 C2550 1.412 . S
C2547 C2528 1.429 . S
C2547 C2541 1.429 . S
C2547 C2548 1.512 1_455 S
C2548 C2529 1.356 1_655 S
C2548 C2542 1.389 . S
C2548 C2547 1.512 1_655 S
C2549 C2533 1.429 . S
C2549 C2545 1.429 . S
C2549 C2550 1.523 . S
C2550 C2534 1.368 . S
C2550 C2546 1.412 . S
C2550 C2549 1.523 . S
H2551 C2526 0.950 . S
H2552 C2528 0.950 1_655 S
H2553 C2529 0.949 . S
H2554 C2531 0.950 . S
H2555 C2533 0.950 . S
C2556 C2557 1.349 . S
C2556 C2558 1.327 . S
C2556 H2581 0.950 . S
C2557 C2556 1.349 . S
C2557 C2573 1.349 . S
C2558 C2556 1.327 . S
C2558 C2577 1.429 . S
C2558 H2582 0.950 . S
C2559 C2576 1.574 . S
C2559 C2578 1.368 . S
C2559 H2583 0.949 . S
H2560 C2564 0.949 . S
C2561 C2562 1.349 . S
C2561 C2563 1.327 . S
C2561 H2584 0.950 . S
C2562 C2561 1.349 . S
C2562 C2574 1.349 . S
C2563 C2561 1.327 . S
C2563 C2579 1.429 . S
C2563 H2585 0.950 . S
C2564 H2560 0.949 . S
C2564 C2572 1.574 . S
C2564 C2580 1.368 . S
H2565 C2573 0.955 1_565 S
H2566 C2571 0.950 . S
H2567 C2572 0.949 . S
H2568 C2574 0.950 . S
H2569 C2575 0.950 . S
H2570 C2576 0.949 . S
C2571 H2566 0.950 . S
C2571 C2573 1.327 . S
C2571 C2577 1.429 . S
C2572 C2564 1.574 . S
C2572 H2567 0.949 . S
C2572 C2578 1.368 . S
C2573 C2557 1.349 . S
C2573 H2565 0.955 1_545 S
C2573 C2571 1.327 . S
C2574 C2562 1.349 . S
C2574 H2568 0.950 . S
C2574 C2575 1.327 . S
C2575 H2569 0.950 . S
C2575 C2574 1.327 . S
C2575 C2579 1.429 . S
C2576 C2559 1.574 . S
C2576 H2570 0.949 . S
C2576 C2580 1.368 . S
C2577 C2558 1.429 . S
C2577 C2571 1.429 . S
C2577 C2578 1.523 . S
C2578 C2559 1.368 . S
C2578 C2572 1.368 . S
C2578 C2577 1.523 . S
C2579 C2563 1.429 . S
C2579 C2575 1.429 . S
C2579 C2580 1.523 . S
C2580 C2564 1.368 . S
C2580 C2576 1.368 . S
C2580 C2579 1.523 . S
H2581 C2556 0.950 . S
H2582 C2558 0.950 . S
H2583 C2559 0.949 . S
H2584 C2561 0.950 . S
H2585 C2563 0.950 . S
C2586 C2587 1.349 . S
C2586 C2588 1.327 . S
C2586 H2611 0.950 . S
C2587 C2586 1.349 . S
C2587 C2603 1.349 . S
C2588 C2586 1.327 . S
C2588 C2607 1.429 . S
C2588 H2612 0.950 . S
C2589 C2606 1.574 . S
C2589 C2608 1.381 . S
C2589 H2613 0.949 . S
H2590 C2594 0.949 . S
C2591 C2592 1.349 . S
C2591 C2593 1.327 . S
C2591 H2614 0.950 . S
C2592 C2591 1.349 . S
C2592 C2604 1.349 . S
C2593 C2591 1.327 . S
C2593 C2609 1.429 . S
C2593 H2615 0.950 . S
C2594 H2590 0.949 . S
C2594 C2602 1.574 1_655 S
C2594 C2610 1.368 . S
H2595 C2603 0.950 . S
H2596 C2601 0.987 . S
H2597 C2602 0.949 . S
H2598 C2604 0.950 . S
H2599 C2605 0.950 . S
H2600 C2606 0.949 . S
C2601 H2596 0.987 . S
C2601 C2603 1.327 . S
C2601 C2607 1.429 . S
C2602 C2594 1.574 1_455 S
C2602 H2597 0.949 . S
C2602 C2608 1.365 1_455 S
C2603 C2587 1.349 . S
C2603 H2595 0.950 . S
C2603 C2601 1.327 . S
C2604 C2592 1.349 . S
C2604 H2598 0.950 . S
C2604 C2605 1.327 . S
C2605 H2599 0.950 . S
C2605 C2604 1.327 . S
C2605 C2609 1.429 . S
C2606 C2589 1.574 . S
C2606 H2600 0.949 . S
C2606 C2610 1.368 . S
C2607 C2588 1.429 . S
C2607 C2601 1.429 . S
C2607 C2608 1.512 1_455 S
C2608 C2589 1.381 . S
C2608 C2602 1.365 1_655 S
C2608 C2607 1.512 1_655 S
C2609 C2593 1.429 . S
C2609 C2605 1.429 . S
C2609 C2610 1.523 . S
C2610 C2594 1.368 . S
C2610 C2606 1.368 . S
C2610 C2609 1.523 . S
H2611 C2586 0.950 . S
H2612 C2588 0.950 . S
H2613 C2589 0.949 . S
H2614 C2591 0.950 . S
H2615 C2593 0.950 . S
C2616 C2617 1.349 . S
C2616 C2618 1.327 . S
C2616 H2641 0.950 . S
C2617 C2616 1.349 . S
C2617 C2633 1.349 . S
C2618 C2616 1.327 . S
C2618 C2637 1.429 . S
C2618 H2642 0.950 . S
C2619 C2636 1.574 . S
C2619 C2638 1.368 . S
C2619 H2643 0.949 . S
H2620 C2624 0.949 . S
C2621 C2622 1.349 . S
C2621 C2623 1.327 . S
C2621 H2644 0.950 . S
C2622 C2621 1.349 . S
C2622 C2634 1.349 . S
C2623 C2621 1.327 . S
C2623 C2639 1.429 . S
C2623 H2645 0.950 . S
C2624 H2620 0.949 . S
C2624 C2632 1.574 . S
C2624 C2640 1.368 . S
H2625 C2633 0.950 . S
H2626 C2631 0.950 . S
H2627 C2632 0.949 . S
H2628 C2634 0.950 . S
H2629 C2635 0.950 . S
H2630 C2636 0.949 . S
C2631 H2626 0.950 . S
C2631 C2633 1.327 . S
C2631 C2637 1.429 . S
C2632 C2624 1.574 . S
C2632 H2627 0.949 . S
C2632 C2638 1.368 . S
C2633 C2617 1.349 . S
C2633 H2625 0.950 . S
C2633 C2631 1.327 . S
C2634 C2622 1.349 . S
C2634 H2628 0.950 . S
C2634 C2635 1.327 . S
C2635 H2629 0.950 . S
C2635 C2634 1.327 . S
C2635 C2639 1.429 . S
C2636 C2619 1.574 . S
C2636 H2630 0.949 . S
C2636 C2640 1.368 . S
C2637 C2618 1.429 . S
C2637 C2631 1.429 . S
C2637 C2638 1.523 . S
C2638 C2619 1.368 . S
C2638 C2632 1.368 . S
C2638 C2637 1.523 . S
C2639 C2623 1.429 . S
C2639 C2635 1.429 . S
C2639 C2640 1.523 . S
C2640 C2624 1.368 . S
C2640 C2636 1.368 . S
C2640 C2639 1.523 . S
H2641 C2616 0.950 . S
H2642 C2618 0.950 . S
H2643 C2619 0.949 . S
H2644 C2621 0.950 . S
H2645 C2623 0.950 . S
C2646 C2647 1.349 . S
C2646 C2648 1.327 . S
C2646 H2671 0.950 . S
C2647 C2646 1.349 . S
C2647 C2663 1.349 . S
C2648 C2646 1.327 . S
C2648 C2667 1.429 . S
C2648 H2672 0.950 . S
C2649 C2666 1.574 . S
C2649 C2668 1.368 . S
C2649 H2673 0.949 . S
H2650 C2654 0.949 . S
C2651 C2652 1.349 . S
C2651 C2653 1.327 . S
C2651 H2674 0.950 . S
C2652 C2651 1.349 . S
C2652 C2664 1.349 . S
C2653 C2651 1.327 . S
C2653 C2669 1.429 . S
C2653 H2675 0.950 1_655 S
C2654 H2650 0.949 . S
C2654 C2662 1.574 1_655 S
C2654 C2670 1.361 1_655 S
H2655 C2663 0.950 . S
H2656 C2661 0.950 . S
H2657 C2662 0.949 . S
H2658 C2664 0.950 . S
H2659 C2665 0.950 . S
H2660 C2666 0.949 . S
C2661 H2656 0.950 . S
C2661 C2663 1.327 . S
C2661 C2667 1.429 . S
C2662 C2654 1.574 1_455 S
C2662 H2657 0.949 . S
C2662 C2668 1.368 . S
C2663 C2647 1.349 . S
C2663 H2655 0.950 . S
C2663 C2661 1.327 . S
C2664 C2652 1.349 . S
C2664 H2658 0.950 . S
C2664 C2665 1.327 . S
C2665 H2659 0.950 . S
C2665 C2664 1.327 . S
C2665 C2669 1.429 . S
C2666 C2649 1.574 . S
C2666 H2660 0.949 . S
C2666 C2670 1.384 . S
C2667 C2648 1.429 . S
C2667 C2661 1.429 . S
C2667 C2668 1.523 . S
C2668 C2649 1.368 . S
C2668 C2662 1.368 . S
C2668 C2667 1.523 . S
C2669 C2653 1.429 . S
C2669 C2665 1.429 . S
C2669 C2670 1.512 1_655 S
C2670 C2654 1.361 1_455 S
C2670 C2666 1.384 . S
C2670 C2669 1.512 1_455 S
H2671 C2646 0.950 . S
H2672 C2648 0.950 . S
H2673 C2649 0.949 . S
H2674 C2651 0.950 . S
H2675 C2653 0.950 1_455 S
C2676 C2677 1.349 . S
C2676 C2678 1.327 . S
C2676 H2701 0.950 . S
C2677 C2676 1.349 . S
C2677 C2693 1.349 . S
C2678 C2676 1.327 . S
C2678 C2697 1.429 . S
C2678 H2702 0.950 . S
C2679 C2696 1.574 . S
C2679 C2698 1.368 . S
C2679 H2703 0.949 . S
H2680 C2684 0.949 . S
C2681 C2682 1.349 . S
C2681 C2683 1.327 . S
C2681 H2704 0.950 . S
C2682 C2681 1.349 . S
C2682 C2694 1.349 . S
C2683 C2681 1.327 . S
C2683 C2699 1.429 . S
C2683 H2705 0.950 . S
C2684 H2680 0.949 . S
C2684 C2692 1.574 . S
C2684 C2700 1.368 . S
H2685 C2693 0.950 . S
H2686 C2691 0.950 . S
H2687 C2692 0.949 . S
H2688 C2694 0.950 . S
H2689 C2695 0.950 . S
H2690 C2696 0.949 . S
C2691 H2686 0.950 . S
C2691 C2693 1.327 . S
C2691 C2697 1.429 . S
C2692 C2684 1.574 . S
C2692 H2687 0.949 . S
C2692 C2698 1.368 . S
C2693 C2677 1.349 . S
C2693 H2685 0.950 . S
C2693 C2691 1.327 . S
C2694 C2682 1.349 . S
C2694 H2688 0.950 . S
C2694 C2695 1.327 . S
C2695 H2689 0.950 . S
C2695 C2694 1.327 . S
C2695 C2699 1.429 . S
C2696 C2679 1.574 . S
C2696 H2690 0.949 . S
C2696 C2700 1.368 . S
C2697 C2678 1.429 . S
C2697 C2691 1.429 . S
C2697 C2698 1.523 . S
C2698 C2679 1.368 . S
C2698 C2692 1.368 . S
C2698 C2697 1.523 . S
C2699 C2683 1.429 . S
C2699 C2695 1.429 . S
C2699 C2700 1.523 . S
C2700 C2684 1.368 . S
C2700 C2696 1.368 . S
C2700 C2699 1.523 . S
H2701 C2676 0.950 . S
H2702 C2678 0.950 . S
H2703 C2679 0.949 . S
H2704 C2681 0.950 . S
H2705 C2683 0.950 . S
C2706 C2707 1.349 . S
C2706 C2708 1.327 . S
C2706 H2731 0.950 . S
C2707 C2706 1.349 . S
C2707 C2723 1.349 . S
C2708 C2706 1.327 . S
C2708 C2727 1.429 . S
C2708 H2732 0.950 . S
C2709 C2726 1.574 . S
C2709 C2728 1.368 . S
C2709 H2733 0.949 . S
H2710 C2714 0.949 . S
C2711 C2712 1.349 . S
C2711 C2713 1.327 . S
C2711 H2734 0.950 . S
C2712 C2711 1.349 . S
C2712 C2724 1.349 . S
C2713 C2711 1.327 . S
C2713 C2729 1.429 . S
C2713 H2735 0.950 . S
C2714 H2710 0.949 . S
C2714 C2722 1.574 . S
C2714 C2730 1.375 . S
H2715 C2723 0.950 . S
H2716 C2721 0.950 . S
H2717 C2722 0.949 . S
H2718 C2724 0.950 . S
H2719 C2725 0.950 . S
H2720 C2726 0.949 1_655 S
C2721 H2716 0.950 . S
C2721 C2723 1.327 . S
C2721 C2727 1.429 . S
C2722 C2714 1.574 . S
C2722 H2717 0.949 . S
C2722 C2728 1.368 . S
C2723 C2707 1.349 . S
C2723 H2715 0.950 . S
C2723 C2721 1.327 . S
C2724 C2712 1.349 . S
C2724 H2718 0.950 . S
C2724 C2725 1.327 . S
C2725 H2719 0.950 . S
C2725 C2724 1.327 . S
C2725 C2729 1.429 . S
C2726 C2709 1.574 . S
C2726 H2720 0.949 1_455 S
C2726 C2730 1.370 . S
C2727 C2708 1.429 . S
C2727 C2721 1.429 . S
C2727 C2728 1.523 . S
C2728 C2709 1.368 . S
C2728 C2722 1.368 . S
C2728 C2727 1.523 . S
C2729 C2713 1.429 . S
C2729 C2725 1.429 . S
C2729 C2730 1.512 1_655 S
C2730 C2714 1.375 . S
C2730 C2726 1.370 . S
C2730 C2729 1.512 1_455 S
H2731 C2706 0.950 . S
H2732 C2708 0.950 . S
H2733 C2709 0.949 . S
H2734 C2711 0.950 . S
H2735 C2713 0.950 . S
C2736 C2737 1.349 . S
C2736 C2738 1.327 . S
C2736 H2761 0.950 . S
C2737 C2736 1.349 . S
C2737 C2753 1.349 . S
C2738 C2736 1.327 . S
C2738 C2757 1.429 . S
C2738 H2762 0.950 . S
C2739 C2756 1.574 . S
C2739 C2758 1.368 . S
C2739 H2763 0.949 . S
H2740 C2744 0.949 . S
C2741 C2742 1.349 . S
C2741 C2743 1.327 . S
C2741 H2764 0.950 . S
C2742 C2741 1.349 . S
C2742 C2754 1.349 . S
C2743 C2741 1.327 . S
C2743 C2759 1.429 . S
C2743 H2765 0.950 . S
C2744 H2740 0.949 . S
C2744 C2752 1.574 . S
C2744 C2760 1.368 . S
H2745 C2753 0.950 . S
H2746 C2751 0.950 . S
H2747 C2752 0.949 . S
H2748 C2754 0.950 . S
H2749 C2755 0.950 . S
H2750 C2756 0.949 . S
C2751 H2746 0.950 . S
C2751 C2753 1.327 . S
C2751 C2757 1.429 . S
C2752 C2744 1.574 . S
C2752 H2747 0.949 . S
C2752 C2758 1.368 . S
C2753 C2737 1.349 . S
C2753 H2745 0.950 . S
C2753 C2751 1.327 . S
C2754 C2742 1.349 . S
C2754 H2748 0.950 . S
C2754 C2755 1.327 . S
C2755 H2749 0.950 . S
C2755 C2754 1.327 . S
C2755 C2759 1.429 . S
C2756 C2739 1.574 . S
C2756 H2750 0.949 . S
C2756 C2760 1.368 . S
C2757 C2738 1.429 . S
C2757 C2751 1.429 . S
C2757 C2758 1.523 . S
C2758 C2739 1.368 . S
C2758 C2752 1.368 . S
C2758 C2757 1.523 . S
C2759 C2743 1.429 . S
C2759 C2755 1.429 . S
C2759 C2760 1.523 . S
C2760 C2744 1.368 . S
C2760 C2756 1.368 . S
C2760 C2759 1.523 . S
H2761 C2736 0.950 . S
H2762 C2738 0.950 . S
H2763 C2739 0.949 . S
H2764 C2741 0.950 . S
H2765 C2743 0.950 . S
C2766 C2767 1.349 . S
C2766 C2768 1.327 . S
C2766 H2791 0.950 . S
C2767 C2766 1.349 . S
C2767 C2783 1.349 . S
C2768 C2766 1.327 . S
C2768 C2787 1.429 . S
C2768 H2792 0.950 . S
C2769 C2786 1.574 . S
C2769 C2788 1.392 . S
C2769 H2793 0.949 . S
H2770 C2774 1.000 . S
C2771 C2772 1.349 . S
C2771 C2773 1.327 . S
C2771 H2794 0.950 . S
C2772 C2771 1.349 . S
C2772 C2784 1.349 . S
C2773 C2771 1.327 . S
C2773 C2789 1.429 . S
C2773 H2795 0.950 . S
C2774 H2770 1.000 . S
C2774 C2782 1.620 . S
C2774 C2790 1.273 1_455 S
H2775 C2783 0.992 . S
H2776 C2781 0.979 . S
H2777 C2782 0.949 . S
H2778 C2784 0.950 . S
H2779 C2785 0.950 . S
H2780 C2786 0.949 . S
C2781 H2776 0.979 . S
C2781 C2783 1.313 1_655 S
C2781 C2787 1.414 1_655 S
C2782 C2774 1.620 . S
C2782 H2777 0.949 . S
C2782 C2788 1.353 1_455 S
C2783 C2767 1.349 . S
C2783 H2775 0.992 . S
C2783 C2781 1.313 1_455 S
C2784 C2772 1.349 . S
C2784 H2778 0.950 . S
C2784 C2785 1.327 . S
C2785 H2779 0.950 . S
C2785 C2784 1.327 . S
C2785 C2789 1.429 . S
C2786 C2769 1.574 . S
C2786 H2780 0.949 . S
C2786 C2790 1.368 . S
C2787 C2768 1.429 . S
C2787 C2781 1.414 1_455 S
C2787 C2788 1.512 1_455 S
C2788 C2769 1.392 . S
C2788 C2782 1.353 1_655 S
C2788 C2787 1.512 1_655 S
C2789 C2773 1.429 . S
C2789 C2785 1.429 . S
C2789 C2790 1.523 . S
C2790 C2774 1.273 1_655 S
C2790 C2786 1.368 . S
C2790 C2789 1.523 . S
H2791 C2766 0.950 . S
H2792 C2768 0.950 . S
H2793 C2769 0.949 . S
H2794 C2771 0.950 . S
H2795 C2773 0.950 . S
C2796 C2797 1.349 . S
C2796 C2798 1.327 . S
C2796 H2821 0.950 . S
C2797 C2796 1.349 . S
C2797 C2813 1.349 . S
C2798 C2796 1.327 . S
C2798 C2817 1.429 . S
C2798 H2822 0.950 . S
C2799 C2816 1.574 . S
C2799 C2818 1.368 . S
C2799 H2823 0.949 . S
H2800 C2804 0.949 . S
C2801 C2802 1.349 . S
C2801 C2803 1.327 . S
C2801 H2824 0.950 . S
C2802 C2801 1.349 . S
C2802 C2814 1.349 . S
C2803 C2801 1.327 . S
C2803 C2819 1.429 . S
C2803 H2825 0.950 . S
C2804 H2800 0.949 . S
C2804 C2812 1.574 . S
C2804 C2820 1.368 . S
H2805 C2813 0.950 . S
H2806 C2811 0.950 . S
H2807 C2812 0.949 . S
H2808 C2814 0.950 . S
H2809 C2815 0.950 . S
H2810 C2816 0.949 . S
C2811 H2806 0.950 . S
C2811 C2813 1.327 . S
C2811 C2817 1.429 . S
C2812 C2804 1.574 . S
C2812 H2807 0.949 . S
C2812 C2818 1.368 . S
C2813 C2797 1.349 . S
C2813 H2805 0.950 . S
C2813 C2811 1.327 . S
C2814 C2802 1.349 . S
C2814 H2808 0.950 . S
C2814 C2815 1.327 . S
C2815 H2809 0.950 . S
C2815 C2814 1.327 . S
C2815 C2819 1.429 . S
C2816 C2799 1.574 . S
C2816 H2810 0.949 . S
C2816 C2820 1.368 . S
C2817 C2798 1.429 . S
C2817 C2811 1.429 . S
C2817 C2818 1.523 . S
C2818 C2799 1.368 . S
C2818 C2812 1.368 . S
C2818 C2817 1.523 . S
C2819 C2803 1.429 . S
C2819 C2815 1.429 . S
C2819 C2820 1.523 . S
C2820 C2804 1.368 . S
C2820 C2816 1.368 . S
C2820 C2819 1.523 . S
H2821 C2796 0.950 . S
H2822 C2798 0.950 . S
H2823 C2799 0.949 . S
H2824 C2801 0.950 . S
H2825 C2803 0.950 . S
C2826 C2827 1.349 . S
C2826 C2828 1.327 . S
C2826 H2851 0.950 . S
C2827 C2826 1.349 . S
C2827 C2843 1.349 . S
C2828 C2826 1.327 . S
C2828 C2847 1.429 . S
C2828 H2852 0.950 . S
C2829 C2846 1.574 . S
C2829 C2848 1.368 . S
C2829 H2853 0.949 . S
H2830 C2834 0.949 . S
C2831 C2832 1.349 . S
C2831 C2833 1.370 . S
C2831 H2854 0.950 . S
C2832 C2831 1.349 . S
C2832 C2844 1.349 . S
C2833 C2831 1.370 . S
C2833 C2849 1.464 . S
C2833 H2855 0.875 1_455 S
C2834 H2830 0.949 . S
C2834 C2842 1.562 1_455 S
C2834 C2850 1.356 1_455 S
H2835 C2843 0.950 . S
H2836 C2841 0.950 . S
H2837 C2842 0.940 1_455 S
H2838 C2844 0.950 . S
H2839 C2845 0.950 . S
H2840 C2846 0.949 . S
C2841 H2836 0.950 . S
C2841 C2843 1.327 . S
C2841 C2847 1.429 . S
C2842 C2834 1.562 1_655 S
C2842 H2837 0.940 1_655 S
C2842 C2848 1.391 . S
C2843 C2827 1.349 . S
C2843 H2835 0.950 . S
C2843 C2841 1.327 . S
C2844 C2832 1.349 . S
C2844 H2838 0.950 . S
C2844 C2845 1.327 . S
C2845 H2839 0.950 . S
C2845 C2844 1.327 . S
C2845 C2849 1.429 . S
C2846 C2829 1.574 . S
C2846 H2840 0.949 . S
C2846 C2850 1.390 . S
C2847 C2828 1.429 . S
C2847 C2841 1.429 . S
C2847 C2848 1.523 . S
C2848 C2829 1.368 . S
C2848 C2842 1.391 . S
C2848 C2847 1.523 . S
C2849 C2833 1.464 . S
C2849 C2845 1.429 . S
C2849 C2850 1.512 1_455 S
C2850 C2834 1.356 1_655 S
C2850 C2846 1.390 . S
C2850 C2849 1.512 1_655 S
H2851 C2826 0.950 . S
H2852 C2828 0.950 . S
H2853 C2829 0.949 . S
H2854 C2831 0.950 . S
H2855 C2833 0.875 1_655 S
C2856 C2857 1.349 . S
C2856 C2858 1.327 . S
C2856 H2881 0.950 . S
C2857 C2856 1.349 . S
C2857 C2873 1.349 . S
C2858 C2856 1.327 . S
C2858 C2877 1.429 . S
C2858 H2882 0.950 . S
C2859 C2876 1.574 . S
C2859 C2878 1.368 . S
C2859 H2883 0.949 . S
H2860 C2864 0.949 . S
C2861 C2862 1.349 . S
C2861 C2863 1.327 . S
C2861 H2884 0.950 . S
C2862 C2861 1.349 . S
C2862 C2874 1.349 . S
C2863 C2861 1.327 . S
C2863 C2879 1.429 . S
C2863 H2885 0.950 . S
C2864 H2860 0.949 . S
C2864 C2872 1.574 . S
C2864 C2880 1.368 . S
H2865 C2873 0.950 . S
H2866 C2871 0.950 . S
H2867 C2872 0.949 . S
H2868 C2874 0.950 . S
H2869 C2875 0.950 . S
H2870 C2876 0.949 . S
C2871 H2866 0.950 . S
C2871 C2873 1.327 . S
C2871 C2877 1.429 . S
C2872 C2864 1.574 . S
C2872 H2867 0.949 . S
C2872 C2878 1.368 . S
C2873 C2857 1.349 . S
C2873 H2865 0.950 . S
C2873 C2871 1.327 . S
C2874 C2862 1.349 . S
C2874 H2868 0.950 . S
C2874 C2875 1.327 . S
C2875 H2869 0.950 . S
C2875 C2874 1.327 . S
C2875 C2879 1.429 . S
C2876 C2859 1.574 . S
C2876 H2870 0.949 . S
C2876 C2880 1.368 . S
C2877 C2858 1.429 . S
C2877 C2871 1.429 . S
C2877 C2878 1.523 . S
C2878 C2859 1.368 . S
C2878 C2872 1.368 . S
C2878 C2877 1.523 . S
C2879 C2863 1.429 . S
C2879 C2875 1.429 . S
C2879 C2880 1.523 . S
C2880 C2864 1.368 . S
C2880 C2876 1.368 . S
C2880 C2879 1.523 . S
H2881 C2856 0.950 . S
H2882 C2858 0.950 . S
H2883 C2859 0.949 . S
H2884 C2861 0.950 . S
H2885 C2863 0.950 . S
C2886 C2887 1.349 . S
C2886 C2888 1.327 . S
C2886 H2911 0.950 . S
C2887 C2886 1.349 . S
C2887 C2903 1.349 . S
C2888 C2886 1.327 . S
C2888 C2907 1.429 . S
C2888 H2912 0.950 . S
C2889 C2906 1.580 . S
C2889 C2908 1.356 1_655 S
C2889 H2913 0.955 . S
H2890 C2894 0.949 . S
C2891 C2892 1.349 . S
C2891 C2893 1.327 . S
C2891 H2914 0.950 . S
C2892 C2891 1.349 . S
C2892 C2904 1.349 . S
C2893 C2891 1.327 . S
C2893 C2909 1.429 . S
C2893 H2915 0.950 . S
C2894 H2890 0.949 . S
C2894 C2902 1.574 . S
C2894 C2910 1.391 . S
H2895 C2903 0.950 . S
H2896 C2901 0.950 . S
H2897 C2902 0.949 . S
H2898 C2904 0.950 . S
H2899 C2905 0.924 1_455 S
H2900 C2906 0.949 . S
C2901 H2896 0.950 . S
C2901 C2903 1.327 . S
C2901 C2907 1.429 . S
C2902 C2894 1.574 . S
C2902 H2897 0.949 . S
C2902 C2908 1.368 . S
C2903 C2887 1.349 . S
C2903 H2895 0.950 . S
C2903 C2901 1.327 . S
C2904 C2892 1.349 . S
C2904 H2898 0.950 . S
C2904 C2905 1.341 . S
C2905 H2899 0.924 1_655 S
C2905 C2904 1.341 . S
C2905 C2909 1.441 . S
C2906 C2889 1.580 . S
C2906 H2900 0.949 . S
C2906 C2910 1.355 1_655 S
C2907 C2888 1.429 . S
C2907 C2901 1.429 . S
C2907 C2908 1.523 . S
C2908 C2889 1.356 1_455 S
C2908 C2902 1.368 . S
C2908 C2907 1.523 . S
C2909 C2893 1.429 . S
C2909 C2905 1.441 . S
C2909 C2910 1.512 1_655 S
C2910 C2894 1.391 . S
C2910 C2906 1.355 1_455 S
C2910 C2909 1.512 1_455 S
H2911 C2886 0.950 . S
H2912 C2888 0.950 . S
H2913 C2889 0.955 . S
H2914 C2891 0.950 . S
H2915 C2893 0.950 . S
C2916 C2917 1.349 . S
C2916 C2918 1.327 . S
C2916 H2941 0.950 . S
C2917 C2916 1.349 . S
C2917 C2933 1.349 . S
C2918 C2916 1.327 . S
C2918 C2937 1.429 . S
C2918 H2942 0.950 . S
C2919 C2936 1.574 . S
C2919 C2938 1.368 . S
C2919 H2943 0.949 . S
H2920 C2924 0.949 . S
C2921 C2922 1.349 . S
C2921 C2923 1.327 . S
C2921 H2944 0.950 . S
C2922 C2921 1.349 . S
C2922 C2934 1.349 . S
C2923 C2921 1.327 . S
C2923 C2939 1.429 . S
C2923 H2945 0.950 . S
C2924 H2920 0.949 . S
C2924 C2932 1.574 . S
C2924 C2940 1.368 . S
H2925 C2933 0.950 . S
H2926 C2931 0.950 . S
H2927 C2932 0.949 . S
H2928 C2934 0.950 . S
H2929 C2935 0.950 . S
H2930 C2936 0.949 . S
C2931 H2926 0.950 . S
C2931 C2933 1.327 . S
C2931 C2937 1.429 . S
C2932 C2924 1.574 . S
C2932 H2927 0.949 . S
C2932 C2938 1.368 . S
C2933 C2917 1.349 . S
C2933 H2925 0.950 . S
C2933 C2931 1.327 . S
C2934 C2922 1.349 . S
C2934 H2928 0.950 . S
C2934 C2935 1.327 . S
C2935 H2929 0.950 . S
C2935 C2934 1.327 . S
C2935 C2939 1.429 . S
C2936 C2919 1.574 . S
C2936 H2930 0.949 . S
C2936 C2940 1.368 . S
C2937 C2918 1.429 . S
C2937 C2931 1.429 . S
C2937 C2938 1.523 . S
C2938 C2919 1.368 . S
C2938 C2932 1.368 . S
C2938 C2937 1.523 . S
C2939 C2923 1.429 . S
C2939 C2935 1.429 . S
C2939 C2940 1.523 . S
C2940 C2924 1.368 . S
C2940 C2936 1.368 . S
C2940 C2939 1.523 . S
H2941 C2916 0.950 . S
H2942 C2918 0.950 . S
H2943 C2919 0.949 . S
H2944 C2921 0.950 . S
H2945 C2923 0.950 . S
C2946 C2947 1.349 . S
C2946 C2948 1.327 . S
C2946 H2971 0.950 . S
C2947 C2946 1.349 . S
C2947 C2963 1.349 . S
C2948 C2946 1.327 . S
C2948 C2967 1.429 . S
C2948 H2972 0.950 1_655 S
C2949 C2966 1.574 1_655 S
C2949 C2968 1.360 1_655 S
C2949 H2973 0.949 . S
H2950 C2954 0.949 . S
C2951 C2952 1.349 . S
C2951 C2953 1.327 . S
C2951 H2974 0.950 . S
C2952 C2951 1.349 . S
C2952 C2964 1.349 . S
C2953 C2951 1.327 . S
C2953 C2969 1.429 . S
C2953 H2975 0.950 . S
C2954 H2950 0.949 . S
C2954 C2962 1.574 . S
C2954 C2970 1.368 . S
H2955 C2963 0.950 . S
H2956 C2961 0.950 . S
H2957 C2962 0.949 . S
H2958 C2964 0.950 . S
H2959 C2965 0.950 . S
H2960 C2966 0.959 . S
C2961 H2956 0.950 . S
C2961 C2963 1.327 . S
C2961 C2967 1.429 . S
C2962 C2954 1.574 . S
C2962 H2957 0.949 . S
C2962 C2968 1.386 . S
C2963 C2947 1.349 . S
C2963 H2955 0.950 . S
C2963 C2961 1.327 . S
C2964 C2952 1.349 . S
C2964 H2958 0.950 . S
C2964 C2965 1.327 . S
C2965 H2959 0.950 . S
C2965 C2964 1.327 . S
C2965 C2969 1.429 . S
C2966 C2949 1.574 1_455 S
C2966 H2960 0.959 . S
C2966 C2970 1.368 . S
C2967 C2948 1.429 . S
C2967 C2961 1.429 . S
C2967 C2968 1.512 1_655 S
C2968 C2949 1.360 1_455 S
C2968 C2962 1.386 . S
C2968 C2967 1.512 1_455 S
C2969 C2953 1.429 . S
C2969 C2965 1.429 . S
C2969 C2970 1.523 . S
C2970 C2954 1.368 . S
C2970 C2966 1.368 . S
C2970 C2969 1.523 . S
H2971 C2946 0.950 . S
H2972 C2948 0.950 1_455 S
H2973 C2949 0.949 . S
H2974 C2951 0.950 . S
H2975 C2953 0.950 . S
C2976 C2977 1.349 . S
C2976 C2978 1.327 . S
C2976 H3001 0.950 . S
C2977 C2976 1.349 . S
C2977 C2993 1.349 . S
C2978 C2976 1.327 . S
C2978 C2997 1.429 . S
C2978 H3002 0.950 . S
C2979 C2996 1.574 . S
C2979 C2998 1.368 . S
C2979 H3003 0.949 . S
H2980 C2984 0.949 . S
C2981 C2982 1.349 . S
C2981 C2983 1.327 . S
C2981 H3004 0.950 . S
C2982 C2981 1.349 . S
C2982 C2994 1.349 . S
C2983 C2981 1.327 . S
C2983 C2999 1.429 . S
C2983 H3005 0.950 . S
C2984 H2980 0.949 . S
C2984 C2992 1.574 . S
C2984 C3000 1.368 . S
H2985 C2993 0.950 . S
H2986 C2991 0.950 . S
H2987 C2992 0.949 . S
H2988 C2994 0.950 . S
H2989 C2995 0.950 . S
H2990 C2996 0.949 . S
C2991 H2986 0.950 . S
C2991 C2993 1.327 . S
C2991 C2997 1.429 . S
C2992 C2984 1.574 . S
C2992 H2987 0.949 . S
C2992 C2998 1.368 . S
C2993 C2977 1.349 . S
C2993 H2985 0.950 . S
C2993 C2991 1.327 . S
C2994 C2982 1.349 . S
C2994 H2988 0.950 . S
C2994 C2995 1.327 . S
C2995 H2989 0.950 . S
C2995 C2994 1.327 . S
C2995 C2999 1.429 . S
C2996 C2979 1.574 . S
C2996 H2990 0.949 . S
C2996 C3000 1.368 . S
C2997 C2978 1.429 . S
C2997 C2991 1.429 . S
C2997 C2998 1.523 . S
C2998 C2979 1.368 . S
C2998 C2992 1.368 . S
C2998 C2997 1.523 . S
C2999 C2983 1.429 . S
C2999 C2995 1.429 . S
C2999 C3000 1.523 . S
C3000 C2984 1.368 . S
C3000 C2996 1.368 . S
C3000 C2999 1.523 . S
H3001 C2976 0.950 . S
H3002 C2978 0.950 . S
H3003 C2979 0.949 . S
H3004 C2981 0.950 . S
H3005 C2983 0.950 . S
C3006 C3007 1.349 . S
C3006 C3008 1.327 . S
C3006 H3031 0.950 . S
C3007 C3006 1.349 . S
C3007 C3023 1.349 . S
C3008 C3006 1.327 . S
C3008 C3027 1.429 . S
C3008 H3032 0.950 . S
C3009 C3026 1.574 . S
C3009 C3028 1.368 . S
C3009 H3033 0.949 . S
H3010 C3014 0.949 . S
C3011 C3012 1.349 . S
C3011 C3013 1.327 . S
C3011 H3034 0.950 . S
C3012 C3011 1.349 . S
C3012 C3024 1.349 . S
C3013 C3011 1.327 . S
C3013 C3029 1.429 . S
C3013 H3035 0.950 . S
C3014 H3010 0.949 . S
C3014 C3022 1.574 . S
C3014 C3030 1.368 . S
H3015 C3023 0.950 . S
H3016 C3021 0.950 . S
H3017 C3022 0.949 . S
H3018 C3024 0.950 . S
H3019 C3025 0.950 . S
H3020 C3026 0.949 . S
C3021 H3016 0.950 . S
C3021 C3023 1.327 . S
C3021 C3027 1.429 . S
C3022 C3014 1.574 . S
C3022 H3017 0.949 . S
C3022 C3028 1.368 . S
C3023 C3007 1.349 . S
C3023 H3015 0.950 . S
C3023 C3021 1.327 . S
C3024 C3012 1.349 . S
C3024 H3018 0.950 . S
C3024 C3025 1.327 . S
C3025 H3019 0.950 . S
C3025 C3024 1.327 . S
C3025 C3029 1.429 . S
C3026 C3009 1.574 . S
C3026 H3020 0.949 . S
C3026 C3030 1.368 . S
C3027 C3008 1.429 . S
C3027 C3021 1.429 . S
C3027 C3028 1.523 . S
C3028 C3009 1.368 . S
C3028 C3022 1.368 . S
C3028 C3027 1.523 . S
C3029 C3013 1.429 . S
C3029 C3025 1.429 . S
C3029 C3030 1.523 . S
C3030 C3014 1.368 . S
C3030 C3026 1.368 . S
C3030 C3029 1.523 . S
H3031 C3006 0.950 . S
H3032 C3008 0.950 . S
H3033 C3009 0.949 . S
H3034 C3011 0.950 . S
H3035 C3013 0.950 . S
C3036 C3037 1.349 . S
C3036 C3038 1.327 . S
C3036 H3061 0.950 . S
C3037 C3036 1.349 . S
C3037 C3053 1.349 . S
C3038 C3036 1.327 . S
C3038 C3057 1.429 . S
C3038 H3062 0.950 . S
C3039 C3056 1.574 . S
C3039 C3058 1.368 . S
C3039 H3063 0.949 . S
H3040 C3044 0.949 . S
C3041 C3042 1.349 . S
C3041 C3043 1.327 . S
C3041 H3064 0.950 . S
C3042 C3041 1.349 . S
C3042 C3054 1.349 . S
C3043 C3041 1.327 . S
C3043 C3059 1.429 . S
C3043 H3065 0.950 . S
C3044 H3040 0.949 . S
C3044 C3052 1.574 . S
C3044 C3060 1.368 . S
H3045 C3053 0.950 . S
H3046 C3051 0.950 . S
H3047 C3052 0.949 . S
H3048 C3054 0.950 . S
H3049 C3055 0.950 . S
H3050 C3056 0.949 . S
C3051 H3046 0.950 . S
C3051 C3053 1.327 . S
C3051 C3057 1.429 . S
C3052 C3044 1.574 . S
C3052 H3047 0.949 . S
C3052 C3058 1.368 . S
C3053 C3037 1.349 . S
C3053 H3045 0.950 . S
C3053 C3051 1.327 . S
C3054 C3042 1.349 . S
C3054 H3048 0.950 . S
C3054 C3055 1.327 . S
C3055 H3049 0.950 . S
C3055 C3054 1.327 . S
C3055 C3059 1.429 . S
C3056 C3039 1.574 . S
C3056 H3050 0.949 . S
C3056 C3060 1.368 . S
C3057 C3038 1.429 . S
C3057 C3051 1.429 . S
C3057 C3058 1.523 . S
C3058 C3039 1.368 . S
C3058 C3052 1.368 . S
C3058 C3057 1.523 . S
C3059 C3043 1.429 . S
C3059 C3055 1.429 . S
C3059 C3060 1.523 . S
C3060 C3044 1.368 . S
C3060 C3056 1.368 . S
C3060 C3059 1.523 . S
H3061 C3036 0.950 . S
H3062 C3038 0.950 . S
H3063 C3039 0.949 . S
H3064 C3041 0.950 . S
H3065 C3043 0.950 . S
C3066 C3067 1.349 . S
C3066 C3068 1.327 . S
C3066 H3091 0.950 . S
C3067 C3066 1.349 . S
C3067 C3083 1.349 . S
C3068 C3066 1.327 . S
C3068 C3087 1.429 . S
C3068 H3092 0.950 . S
C3069 C3086 1.574 . S
C3069 C3088 1.368 . S
C3069 H3093 0.949 . S
H3070 C3074 0.949 . S
C3071 C3072 1.349 . S
C3071 C3073 1.327 . S
C3071 H3094 0.950 . S
C3072 C3071 1.349 . S
C3072 C3084 1.349 . S
C3073 C3071 1.327 . S
C3073 C3089 1.429 . S
C3073 H3095 0.950 . S
C3074 H3070 0.949 . S
C3074 C3082 1.574 . S
C3074 C3090 1.368 . S
H3075 C3083 0.950 . S
H3076 C3081 0.950 . S
H3077 C3082 0.949 . S
H3078 C3084 0.950 . S
H3079 C3085 0.950 . S
H3080 C3086 0.949 . S
C3081 H3076 0.950 . S
C3081 C3083 1.327 . S
C3081 C3087 1.429 . S
C3082 C3074 1.574 . S
C3082 H3077 0.949 . S
C3082 C3088 1.368 . S
C3083 C3067 1.349 . S
C3083 H3075 0.950 . S
C3083 C3081 1.327 . S
C3084 C3072 1.349 . S
C3084 H3078 0.950 . S
C3084 C3085 1.327 . S
C3085 H3079 0.950 . S
C3085 C3084 1.327 . S
C3085 C3089 1.429 . S
C3086 C3069 1.574 . S
C3086 H3080 0.949 . S
C3086 C3090 1.368 . S
C3087 C3068 1.429 . S
C3087 C3081 1.429 . S
C3087 C3088 1.523 . S
C3088 C3069 1.368 . S
C3088 C3082 1.368 . S
C3088 C3087 1.523 . S
C3089 C3073 1.429 . S
C3089 C3085 1.429 . S
C3089 C3090 1.523 . S
C3090 C3074 1.368 . S
C3090 C3086 1.368 . S
C3090 C3089 1.523 . S
H3091 C3066 0.950 . S
H3092 C3068 0.950 . S
H3093 C3069 0.949 . S
H3094 C3071 0.950 . S
H3095 C3073 0.950 . S
C3096 C3097 1.349 . S
C3096 C3098 1.327 . S
C3096 H3121 0.950 . S
C3097 C3096 1.349 . S
C3097 C3113 1.349 . S
C3098 C3096 1.327 . S
C3098 C3117 1.429 . S
C3098 H3122 0.950 . S
C3099 C3116 1.574 . S
C3099 C3118 1.368 . S
C3099 H3123 0.949 . S
H3100 C3104 0.949 . S
C3101 C3102 1.349 . S
C3101 C3103 1.327 . S
C3101 H3124 0.950 . S
C3102 C3101 1.349 . S
C3102 C3114 1.349 . S
C3103 C3101 1.327 . S
C3103 C3119 1.429 . S
C3103 H3125 0.950 . S
C3104 H3100 0.949 . S
C3104 C3112 1.574 . S
C3104 C3120 1.368 . S
H3105 C3113 0.950 . S
H3106 C3111 0.950 . S
H3107 C3112 0.949 . S
H3108 C3114 0.950 . S
H3109 C3115 0.950 . S
H3110 C3116 0.949 . S
C3111 H3106 0.950 . S
C3111 C3113 1.327 . S
C3111 C3117 1.429 . S
C3112 C3104 1.574 . S
C3112 H3107 0.949 . S
C3112 C3118 1.368 . S
C3113 C3097 1.349 . S
C3113 H3105 0.950 . S
C3113 C3111 1.327 . S
C3114 C3102 1.349 . S
C3114 H3108 0.950 . S
C3114 C3115 1.327 . S
C3115 H3109 0.950 . S
C3115 C3114 1.327 . S
C3115 C3119 1.429 . S
C3116 C3099 1.574 . S
C3116 H3110 0.949 . S
C3116 C3120 1.368 . S
C3117 C3098 1.429 . S
C3117 C3111 1.429 . S
C3117 C3118 1.523 . S
C3118 C3099 1.368 . S
C3118 C3112 1.368 . S
C3118 C3117 1.523 . S
C3119 C3103 1.429 . S
C3119 C3115 1.429 . S
C3119 C3120 1.523 . S
C3120 C3104 1.368 . S
C3120 C3116 1.368 . S
C3120 C3119 1.523 . S
H3121 C3096 0.950 . S
H3122 C3098 0.950 . S
H3123 C3099 0.949 . S
H3124 C3101 0.950 . S
H3125 C3103 0.950 . S
C3126 C3127 1.349 . S
C3126 C3128 1.327 . S
C3126 H3151 0.950 . S
C3127 C3126 1.349 . S
C3127 C3143 1.349 . S
C3128 C3126 1.327 . S
C3128 C3147 1.429 . S
C3128 H3152 0.950 . S
C3129 C3146 1.574 . S
C3129 C3148 1.368 . S
C3129 H3153 0.949 . S
H3130 C3134 0.949 . S
C3131 C3132 1.349 . S
C3131 C3133 1.327 . S
C3131 H3154 0.950 . S
C3132 C3131 1.349 . S
C3132 C3144 1.349 . S
C3133 C3131 1.327 . S
C3133 C3149 1.429 . S
C3133 H3155 0.950 . S
C3134 H3130 0.949 . S
C3134 C3142 1.574 . S
C3134 C3150 1.368 . S
H3135 C3143 0.950 1_545 S
H3136 C3141 0.950 . S
H3137 C3142 0.949 . S
H3138 C3144 0.950 . S
H3139 C3145 0.950 . S
H3140 C3146 0.949 . S
C3141 H3136 0.950 . S
C3141 C3143 1.327 . S
C3141 C3147 1.429 . S
C3142 C3134 1.574 . S
C3142 H3137 0.949 . S
C3142 C3148 1.368 . S
C3143 C3127 1.349 . S
C3143 H3135 0.950 1_565 S
C3143 C3141 1.327 . S
C3144 C3132 1.349 . S
C3144 H3138 0.950 . S
C3144 C3145 1.327 . S
C3145 H3139 0.950 . S
C3145 C3144 1.327 . S
C3145 C3149 1.429 . S
C3146 C3129 1.574 . S
C3146 H3140 0.949 . S
C3146 C3150 1.368 . S
C3147 C3128 1.429 . S
C3147 C3141 1.429 . S
C3147 C3148 1.523 . S
C3148 C3129 1.368 . S
C3148 C3142 1.368 . S
C3148 C3147 1.523 . S
C3149 C3133 1.429 . S
C3149 C3145 1.429 . S
C3149 C3150 1.523 . S
C3150 C3134 1.368 . S
C3150 C3146 1.368 . S
C3150 C3149 1.523 . S
H3151 C3126 0.950 . S
H3152 C3128 0.950 . S
H3153 C3129 0.949 . S
H3154 C3131 0.950 . S
H3155 C3133 0.950 . S
C3156 C3157 1.349 . S
C3156 C3158 1.327 . S
C3156 H3181 0.950 . S
C3157 C3156 1.349 . S
C3157 C3173 1.349 . S
C3158 C3156 1.327 . S
C3158 C3177 1.429 . S
C3158 H3182 0.950 . S
C3159 C3176 1.574 . S
C3159 C3178 1.368 . S
C3159 H3183 0.949 . S
H3160 C3164 0.949 . S
C3161 C3162 1.349 . S
C3161 C3163 1.327 . S
C3161 H3184 0.950 . S
C3162 C3161 1.349 . S
C3162 C3174 1.349 . S
C3163 C3161 1.327 . S
C3163 C3179 1.429 . S
C3163 H3185 0.950 . S
C3164 H3160 0.949 . S
C3164 C3172 1.574 . S
C3164 C3180 1.368 . S
H3165 C3173 0.950 . S
H3166 C3171 0.950 . S
H3167 C3172 0.949 . S
H3168 C3174 0.950 . S
H3169 C3175 0.950 . S
H3170 C3176 0.949 . S
C3171 H3166 0.950 . S
C3171 C3173 1.327 . S
C3171 C3177 1.429 . S
C3172 C3164 1.574 . S
C3172 H3167 0.949 . S
C3172 C3178 1.368 . S
C3173 C3157 1.349 . S
C3173 H3165 0.950 . S
C3173 C3171 1.327 . S
C3174 C3162 1.349 . S
C3174 H3168 0.950 . S
C3174 C3175 1.327 . S
C3175 H3169 0.950 . S
C3175 C3174 1.327 . S
C3175 C3179 1.429 . S
C3176 C3159 1.574 . S
C3176 H3170 0.949 . S
C3176 C3180 1.368 . S
C3177 C3158 1.429 . S
C3177 C3171 1.429 . S
C3177 C3178 1.523 . S
C3178 C3159 1.368 . S
C3178 C3172 1.368 . S
C3178 C3177 1.523 . S
C3179 C3163 1.429 . S
C3179 C3175 1.429 . S
C3179 C3180 1.523 . S
C3180 C3164 1.368 . S
C3180 C3176 1.368 . S
C3180 C3179 1.523 . S
H3181 C3156 0.950 . S
H3182 C3158 0.950 . S
H3183 C3159 0.949 . S
H3184 C3161 0.950 . S
H3185 C3163 0.950 . S
C3186 C3187 1.349 . S
C3186 C3188 1.327 . S
C3186 H3211 0.950 . S
C3187 C3186 1.349 . S
C3187 C3203 1.349 . S
C3188 C3186 1.327 . S
C3188 C3207 1.429 . S
C3188 H3212 0.950 . S
C3189 C3206 1.574 . S
C3189 C3208 1.368 . S
C3189 H3213 0.949 . S
H3190 C3194 0.949 . S
C3191 C3192 1.349 . S
C3191 C3193 1.327 . S
C3191 H3214 0.950 . S
C3192 C3191 1.349 . S
C3192 C3204 1.349 . S
C3193 C3191 1.327 . S
C3193 C3209 1.429 . S
C3193 H3215 0.950 . S
C3194 H3190 0.949 . S
C3194 C3202 1.574 . S
C3194 C3210 1.368 . S
H3195 C3203 0.950 . S
H3196 C3201 0.950 . S
H3197 C3202 0.949 . S
H3198 C3204 0.950 . S
H3199 C3205 0.950 . S
H3200 C3206 0.949 . S
C3201 H3196 0.950 . S
C3201 C3203 1.327 . S
C3201 C3207 1.429 . S
C3202 C3194 1.574 . S
C3202 H3197 0.949 . S
C3202 C3208 1.368 . S
C3203 C3187 1.349 . S
C3203 H3195 0.950 . S
C3203 C3201 1.327 . S
C3204 C3192 1.349 . S
C3204 H3198 0.950 . S
C3204 C3205 1.327 . S
C3205 H3199 0.950 . S
C3205 C3204 1.327 . S
C3205 C3209 1.429 . S
C3206 C3189 1.574 . S
C3206 H3200 0.949 . S
C3206 C3210 1.368 . S
C3207 C3188 1.429 . S
C3207 C3201 1.429 . S
C3207 C3208 1.523 . S
C3208 C3189 1.368 . S
C3208 C3202 1.368 . S
C3208 C3207 1.523 . S
C3209 C3193 1.429 . S
C3209 C3205 1.429 . S
C3209 C3210 1.523 . S
C3210 C3194 1.368 . S
C3210 C3206 1.368 . S
C3210 C3209 1.523 . S
H3211 C3186 0.950 . S
H3212 C3188 0.950 . S
H3213 C3189 0.949 . S
H3214 C3191 0.950 . S
H3215 C3193 0.950 . S
C3216 C3217 1.349 . S
C3216 C3218 1.327 . S
C3216 H3241 0.950 . S
C3217 C3216 1.349 . S
C3217 C3233 1.349 . S
C3218 C3216 1.327 . S
C3218 C3237 1.429 . S
C3218 H3242 0.950 . S
C3219 C3236 1.574 . S
C3219 C3238 1.368 . S
C3219 H3243 0.949 . S
H3220 C3224 0.949 . S
C3221 C3222 1.349 . S
C3221 C3223 1.327 . S
C3221 H3244 0.950 . S
C3222 C3221 1.349 . S
C3222 C3234 1.349 . S
C3223 C3221 1.327 . S
C3223 C3239 1.429 . S
C3223 H3245 0.950 . S
C3224 H3220 0.949 . S
C3224 C3232 1.574 . S
C3224 C3240 1.368 . S
H3225 C3233 0.950 . S
H3226 C3231 0.950 . S
H3227 C3232 0.949 . S
H3228 C3234 0.950 . S
H3229 C3235 0.950 . S
H3230 C3236 0.949 . S
C3231 H3226 0.950 . S
C3231 C3233 1.327 . S
C3231 C3237 1.429 . S
C3232 C3224 1.574 . S
C3232 H3227 0.949 . S
C3232 C3238 1.368 . S
C3233 C3217 1.349 . S
C3233 H3225 0.950 . S
C3233 C3231 1.327 . S
C3234 C3222 1.349 . S
C3234 H3228 0.950 . S
C3234 C3235 1.327 . S
C3235 H3229 0.950 . S
C3235 C3234 1.327 . S
C3235 C3239 1.429 . S
C3236 C3219 1.574 . S
C3236 H3230 0.949 . S
C3236 C3240 1.368 . S
C3237 C3218 1.429 . S
C3237 C3231 1.429 . S
C3237 C3238 1.523 . S
C3238 C3219 1.368 . S
C3238 C3232 1.368 . S
C3238 C3237 1.523 . S
C3239 C3223 1.429 . S
C3239 C3235 1.429 . S
C3239 C3240 1.523 . S
C3240 C3224 1.368 . S
C3240 C3236 1.368 . S
C3240 C3239 1.523 . S
H3241 C3216 0.950 . S
H3242 C3218 0.950 . S
H3243 C3219 0.949 . S
H3244 C3221 0.950 . S
H3245 C3223 0.950 . S
C3246 C3247 1.349 . S
C3246 C3248 1.327 . S
C3246 H3271 0.950 . S
C3247 C3246 1.349 . S
C3247 C3263 1.349 . S
C3248 C3246 1.327 . S
C3248 C3267 1.429 . S
C3248 H3272 0.950 . S
C3249 C3266 1.574 . S
C3249 C3268 1.368 . S
C3249 H3273 0.949 . S
H3250 C3254 0.949 . S
C3251 C3252 1.349 . S
C3251 C3253 1.327 . S
C3251 H3274 0.950 . S
C3252 C3251 1.349 . S
C3252 C3264 1.349 . S
C3253 C3251 1.327 . S
C3253 C3269 1.429 . S
C3253 H3275 0.950 . S
C3254 H3250 0.949 . S
C3254 C3262 1.574 . S
C3254 C3270 1.368 . S
H3255 C3263 0.950 . S
H3256 C3261 0.950 . S
H3257 C3262 0.949 . S
H3258 C3264 0.950 . S
H3259 C3265 0.950 . S
H3260 C3266 0.949 . S
C3261 H3256 0.950 . S
C3261 C3263 1.327 . S
C3261 C3267 1.429 . S
C3262 C3254 1.574 . S
C3262 H3257 0.949 . S
C3262 C3268 1.368 . S
C3263 C3247 1.349 . S
C3263 H3255 0.950 . S
C3263 C3261 1.327 . S
C3264 C3252 1.349 . S
C3264 H3258 0.950 . S
C3264 C3265 1.327 . S
C3265 H3259 0.950 . S
C3265 C3264 1.327 . S
C3265 C3269 1.429 . S
C3266 C3249 1.574 . S
C3266 H3260 0.949 . S
C3266 C3270 1.368 . S
C3267 C3248 1.429 . S
C3267 C3261 1.429 . S
C3267 C3268 1.523 . S
C3268 C3249 1.368 . S
C3268 C3262 1.368 . S
C3268 C3267 1.523 . S
C3269 C3253 1.429 . S
C3269 C3265 1.429 . S
C3269 C3270 1.523 . S
C3270 C3254 1.368 . S
C3270 C3266 1.368 . S
C3270 C3269 1.523 . S
H3271 C3246 0.950 . S
H3272 C3248 0.950 . S
H3273 C3249 0.949 . S
H3274 C3251 0.950 . S
H3275 C3253 0.950 . S
C3276 C3277 1.349 . S
C3276 C3278 1.327 . S
C3276 H3301 0.950 . S
C3277 C3276 1.349 . S
C3277 C3293 1.349 . S
C3278 C3276 1.327 . S
C3278 C3297 1.429 . S
C3278 H3302 0.950 . S
C3279 C3296 1.574 . S
C3279 C3298 1.368 . S
C3279 H3303 0.949 . S
H3280 C3284 0.949 . S
C3281 C3282 1.349 . S
C3281 C3283 1.327 . S
C3281 H3304 0.950 . S
C3282 C3281 1.349 . S
C3282 C3294 1.349 . S
C3283 C3281 1.327 . S
C3283 C3299 1.429 . S
C3283 H3305 0.950 . S
C3284 H3280 0.949 . S
C3284 C3292 1.574 . S
C3284 C3300 1.368 . S
H3285 C3293 0.950 . S
H3286 C3291 0.950 . S
H3287 C3292 0.949 . S
H3288 C3294 0.950 . S
H3289 C3295 0.950 . S
H3290 C3296 0.949 . S
C3291 H3286 0.950 . S
C3291 C3293 1.327 . S
C3291 C3297 1.429 . S
C3292 C3284 1.574 . S
C3292 H3287 0.949 . S
C3292 C3298 1.368 . S
C3293 C3277 1.349 . S
C3293 H3285 0.950 . S
C3293 C3291 1.327 . S
C3294 C3282 1.349 . S
C3294 H3288 0.950 . S
C3294 C3295 1.327 . S
C3295 H3289 0.950 . S
C3295 C3294 1.327 . S
C3295 C3299 1.429 . S
C3296 C3279 1.574 . S
C3296 H3290 0.949 . S
C3296 C3300 1.368 . S
C3297 C3278 1.429 . S
C3297 C3291 1.429 . S
C3297 C3298 1.523 . S
C3298 C3279 1.368 . S
C3298 C3292 1.368 . S
C3298 C3297 1.523 . S
C3299 C3283 1.429 . S
C3299 C3295 1.429 . S
C3299 C3300 1.523 . S
C3300 C3284 1.368 . S
C3300 C3296 1.368 . S
C3300 C3299 1.523 . S
H3301 C3276 0.950 . S
H3302 C3278 0.950 . S
H3303 C3279 0.949 . S
H3304 C3281 0.950 . S
H3305 C3283 0.950 . S
C3306 C3307 1.349 . S
C3306 C3308 1.327 . S
C3306 H3331 0.950 . S
C3307 C3306 1.349 . S
C3307 C3323 1.349 . S
C3308 C3306 1.327 . S
C3308 C3327 1.429 . S
C3308 H3332 0.950 . S
C3309 C3326 1.574 . S
C3309 C3328 1.368 . S
C3309 H3333 0.949 . S
H3310 C3314 0.949 . S
C3311 C3312 1.349 . S
C3311 C3313 1.327 . S
C3311 H3334 0.950 . S
C3312 C3311 1.349 . S
C3312 C3324 1.349 . S
C3313 C3311 1.327 . S
C3313 C3329 1.429 . S
C3313 H3335 0.950 . S
C3314 H3310 0.949 . S
C3314 C3322 1.574 . S
C3314 C3330 1.368 . S
H3315 C3323 0.950 . S
H3316 C3321 0.950 . S
H3317 C3322 0.949 . S
H3318 C3324 0.950 . S
H3319 C3325 0.950 . S
H3320 C3326 0.949 . S
C3321 H3316 0.950 . S
C3321 C3323 1.327 . S
C3321 C3327 1.429 . S
C3322 C3314 1.574 . S
C3322 H3317 0.949 . S
C3322 C3328 1.368 . S
C3323 C3307 1.349 . S
C3323 H3315 0.950 . S
C3323 C3321 1.327 . S
C3324 C3312 1.349 . S
C3324 H3318 0.950 . S
C3324 C3325 1.327 . S
C3325 H3319 0.950 . S
C3325 C3324 1.327 . S
C3325 C3329 1.429 . S
C3326 C3309 1.574 . S
C3326 H3320 0.949 . S
C3326 C3330 1.368 . S
C3327 C3308 1.429 . S
C3327 C3321 1.429 . S
C3327 C3328 1.523 . S
C3328 C3309 1.368 . S
C3328 C3322 1.368 . S
C3328 C3327 1.523 . S
C3329 C3313 1.429 . S
C3329 C3325 1.429 . S
C3329 C3330 1.523 . S
C3330 C3314 1.368 . S
C3330 C3326 1.368 . S
C3330 C3329 1.523 . S
H3331 C3306 0.950 . S
H3332 C3308 0.950 . S
H3333 C3309 0.949 . S
H3334 C3311 0.950 . S
H3335 C3313 0.950 . S
C3336 C3337 1.349 . S
C3336 C3338 1.327 . S
C3336 H3361 0.950 . S
C3337 C3336 1.349 . S
C3337 C3353 1.349 . S
C3338 C3336 1.327 . S
C3338 C3357 1.429 . S
C3338 H3362 0.950 . S
C3339 C3356 1.574 . S
C3339 C3358 1.368 . S
C3339 H3363 0.949 . S
H3340 C3344 0.949 . S
C3341 C3342 1.349 . S
C3341 C3343 1.327 . S
C3341 H3364 0.950 . S
C3342 C3341 1.349 . S
C3342 C3354 1.349 . S
C3343 C3341 1.327 . S
C3343 C3359 1.429 . S
C3343 H3365 0.950 . S
C3344 H3340 0.949 . S
C3344 C3352 1.574 . S
C3344 C3360 1.368 . S
H3345 C3353 0.950 . S
H3346 C3351 0.950 . S
H3347 C3352 0.949 . S
H3348 C3354 0.950 . S
H3349 C3355 0.950 . S
H3350 C3356 0.949 . S
C3351 H3346 0.950 . S
C3351 C3353 1.327 . S
C3351 C3357 1.429 . S
C3352 C3344 1.574 . S
C3352 H3347 0.949 . S
C3352 C3358 1.368 . S
C3353 C3337 1.349 . S
C3353 H3345 0.950 . S
C3353 C3351 1.327 . S
C3354 C3342 1.349 . S
C3354 H3348 0.950 . S
C3354 C3355 1.327 . S
C3355 H3349 0.950 . S
C3355 C3354 1.327 . S
C3355 C3359 1.429 . S
C3356 C3339 1.574 . S
C3356 H3350 0.949 . S
C3356 C3360 1.368 . S
C3357 C3338 1.429 . S
C3357 C3351 1.429 . S
C3357 C3358 1.523 . S
C3358 C3339 1.368 . S
C3358 C3352 1.368 . S
C3358 C3357 1.523 . S
C3359 C3343 1.429 . S
C3359 C3355 1.429 . S
C3359 C3360 1.523 . S
C3360 C3344 1.368 . S
C3360 C3356 1.368 . S
C3360 C3359 1.523 . S
H3361 C3336 0.950 . S
H3362 C3338 0.950 . S
H3363 C3339 0.949 . S
H3364 C3341 0.950 . S
H3365 C3343 0.950 . S
C3366 C3367 1.349 . S
C3366 C3368 1.327 . S
C3366 H3391 0.950 . S
C3367 C3366 1.349 . S
C3367 C3383 1.349 . S
C3368 C3366 1.327 . S
C3368 C3387 1.429 . S
C3368 H3392 0.950 . S
C3369 C3386 1.574 . S
C3369 C3388 1.368 . S
C3369 H3393 0.949 . S
H3370 C3374 0.949 . S
C3371 C3372 1.349 . S
C3371 C3373 1.327 . S
C3371 H3394 0.950 . S
C3372 C3371 1.349 . S
C3372 C3384 1.349 . S
C3373 C3371 1.327 . S
C3373 C3389 1.429 . S
C3373 H3395 0.950 . S
C3374 H3370 0.949 . S
C3374 C3382 1.574 . S
C3374 C3390 1.368 . S
H3375 C3383 0.950 . S
H3376 C3381 0.950 . S
H3377 C3382 0.949 . S
H3378 C3384 0.950 . S
H3379 C3385 0.950 . S
H3380 C3386 0.949 . S
C3381 H3376 0.950 . S
C3381 C3383 1.327 . S
C3381 C3387 1.429 . S
C3382 C3374 1.574 . S
C3382 H3377 0.949 . S
C3382 C3388 1.368 . S
C3383 C3367 1.349 . S
C3383 H3375 0.950 . S
C3383 C3381 1.327 . S
C3384 C3372 1.349 . S
C3384 H3378 0.950 . S
C3384 C3385 1.327 . S
C3385 H3379 0.950 . S
C3385 C3384 1.327 . S
C3385 C3389 1.429 . S
C3386 C3369 1.574 . S
C3386 H3380 0.949 . S
C3386 C3390 1.368 . S
C3387 C3368 1.429 . S
C3387 C3381 1.429 . S
C3387 C3388 1.523 . S
C3388 C3369 1.368 . S
C3388 C3382 1.368 . S
C3388 C3387 1.523 . S
C3389 C3373 1.429 . S
C3389 C3385 1.429 . S
C3389 C3390 1.523 . S
C3390 C3374 1.368 . S
C3390 C3386 1.368 . S
C3390 C3389 1.523 . S
H3391 C3366 0.950 . S
H3392 C3368 0.950 . S
H3393 C3369 0.949 . S
H3394 C3371 0.950 . S
H3395 C3373 0.950 . S
C3396 C3397 1.349 . S
C3396 C3398 1.327 . S
C3396 H3421 0.950 . S
C3397 C3396 1.349 . S
C3397 C3413 1.349 . S
C3398 C3396 1.327 . S
C3398 C3417 1.429 . S
C3398 H3422 0.950 . S
C3399 C3416 1.574 . S
C3399 C3418 1.368 . S
C3399 H3423 0.949 . S
H3400 C3404 0.949 . S
C3401 C3402 1.349 . S
C3401 C3403 1.327 . S
C3401 H3424 0.950 . S
C3402 C3401 1.349 . S
C3402 C3414 1.349 . S
C3403 C3401 1.327 . S
C3403 C3419 1.429 . S
C3403 H3425 0.950 . S
C3404 H3400 0.949 . S
C3404 C3412 1.574 . S
C3404 C3420 1.368 . S
H3405 C3413 0.950 . S
H3406 C3411 0.950 . S
H3407 C3412 0.949 . S
H3408 C3414 0.950 . S
H3409 C3415 0.950 . S
H3410 C3416 0.949 . S
C3411 H3406 0.950 . S
C3411 C3413 1.327 . S
C3411 C3417 1.429 . S
C3412 C3404 1.574 . S
C3412 H3407 0.949 . S
C3412 C3418 1.368 . S
C3413 C3397 1.349 . S
C3413 H3405 0.950 . S
C3413 C3411 1.327 . S
C3414 C3402 1.349 . S
C3414 H3408 0.950 . S
C3414 C3415 1.327 . S
C3415 H3409 0.950 . S
C3415 C3414 1.327 . S
C3415 C3419 1.429 . S
C3416 C3399 1.574 . S
C3416 H3410 0.949 . S
C3416 C3420 1.368 . S
C3417 C3398 1.429 . S
C3417 C3411 1.429 . S
C3417 C3418 1.523 . S
C3418 C3399 1.368 . S
C3418 C3412 1.368 . S
C3418 C3417 1.523 . S
C3419 C3403 1.429 . S
C3419 C3415 1.429 . S
C3419 C3420 1.523 . S
C3420 C3404 1.368 . S
C3420 C3416 1.368 . S
C3420 C3419 1.523 . S
H3421 C3396 0.950 . S
H3422 C3398 0.950 . S
H3423 C3399 0.949 . S
H3424 C3401 0.950 . S
H3425 C3403 0.950 . S
C3426 C3427 1.349 . S
C3426 C3428 1.327 . S
C3426 H3451 0.950 . S
C3427 C3426 1.349 . S
C3427 C3443 1.349 . S
C3428 C3426 1.327 . S
C3428 C3447 1.429 . S
C3428 H3452 0.950 . S
C3429 C3446 1.574 . S
C3429 C3448 1.368 . S
C3429 H3453 0.949 . S
H3430 C3434 0.949 . S
C3431 C3432 1.349 . S
C3431 C3433 1.327 . S
C3431 H3454 0.950 . S
C3432 C3431 1.349 . S
C3432 C3444 1.349 . S
C3433 C3431 1.327 . S
C3433 C3449 1.429 . S
C3433 H3455 0.950 . S
C3434 H3430 0.949 . S
C3434 C3442 1.574 . S
C3434 C3450 1.368 . S
H3435 C3443 0.950 . S
H3436 C3441 0.950 . S
H3437 C3442 0.949 . S
H3438 C3444 0.950 . S
H3439 C3445 0.950 . S
H3440 C3446 0.949 . S
C3441 H3436 0.950 . S
C3441 C3443 1.327 . S
C3441 C3447 1.429 . S
C3442 C3434 1.574 . S
C3442 H3437 0.949 . S
C3442 C3448 1.368 . S
C3443 C3427 1.349 . S
C3443 H3435 0.950 . S
C3443 C3441 1.327 . S
C3444 C3432 1.349 . S
C3444 H3438 0.950 . S
C3444 C3445 1.327 . S
C3445 H3439 0.950 . S
C3445 C3444 1.327 . S
C3445 C3449 1.429 . S
C3446 C3429 1.574 . S
C3446 H3440 0.949 . S
C3446 C3450 1.368 . S
C3447 C3428 1.429 . S
C3447 C3441 1.429 . S
C3447 C3448 1.523 . S
C3448 C3429 1.368 . S
C3448 C3442 1.368 . S
C3448 C3447 1.523 . S
C3449 C3433 1.429 . S
C3449 C3445 1.429 . S
C3449 C3450 1.523 . S
C3450 C3434 1.368 . S
C3450 C3446 1.368 . S
C3450 C3449 1.523 . S
H3451 C3426 0.950 . S
H3452 C3428 0.950 . S
H3453 C3429 0.949 . S
H3454 C3431 0.950 . S
H3455 C3433 0.950 . S
C1057 N2 0.609 . S
C1062 N332 0.609 . S
C1087 N365 0.609 . S
C1092 N35 0.609 . S
C1117 N266 0.609 . S
C1122 N68 0.609 . S
C1147 N101 0.609 . S
C1152 N299 0.609 . S
C1177 N134 0.609 . S
C1182 N464 0.609 . S
C1207 N167 0.609 . S
C1212 N497 0.609 . S
C1237 N398 0.609 . S
C1242 N200 0.609 . S
C1267 N431 0.609 . S
C1272 N233 0.609 . S
C1297 N860 0.609 . S
C1302 N530 0.609 . S
C1327 N893 0.609 . S
C1332 N563 0.609 . S
C1357 N596 0.609 . S
C1362 N794 0.609 . S
C1387 N827 0.609 . S
C1392 N629 0.609 . S
C1417 N662 0.609 . S
C1422 N992 0.609 . S
C1447 N1025 0.609 . S
C1452 N695 0.609 . S
C1477 N728 0.609 . S
C1482 N926 0.609 . S
C1507 N761 0.609 . S
C1512 N959 0.609 . S
C1537 C7 1.788 . S
C1542 C832 1.788 . S
C1567 C40 1.788 . S
C1572 C799 1.788 . S
C1597 C73 1.787 . S
C1602 C898 1.787 . S
C1627 C106 1.787 . S
C1632 C865 1.787 . S
C1657 C139 1.788 . S
C1662 C964 1.788 . S
C1687 C172 1.788 . S
C1692 C931 1.788 . S
C1717 C1030 1.787 . S
C1722 C205 1.787 . S
C1747 C238 1.787 . S
C1752 C997 1.787 . S
C1777 C568 1.788 . S
C1782 C271 1.788 . S
C1807 C304 1.788 . S
C1812 C535 1.788 . S
C1837 C337 1.788 . S
C1842 C634 1.788 . S
C1867 C601 1.788 . S
C1872 C370 1.788 . S
C1897 C700 1.788 . S
C1902 C403 1.788 . S
C1927 C667 1.788 . S
C1932 C436 1.788 . S
C1957 C469 1.788 . S
C1962 C766 1.788 . S
C1987 C733 1.788 . S
C1992 C502 1.788 . S
C2017 N79 0.968 . S
C2022 N13 0.968 . S
C2047 N46 0.968 . S
C2052 N112 0.968 . S
C2077 N211 0.968 . S
C2082 N145 0.968 . S
C2107 N178 0.968 . S
C2112 N244 0.968 . S
C2137 N277 0.968 . S
C2142 N343 0.968 . S
C2167 N310 0.968 . S
C2172 N376 0.968 . S
C2197 N475 0.968 . S
C2202 N409 0.968 . S
C2227 N508 0.968 . S
C2232 N442 0.968 . S
C2257 N607 0.968 . S
C2262 N541 0.968 . S
C2287 N574 0.968 . S
C2292 N640 0.968 . S
C2317 N673 0.968 . S
C2322 N739 0.968 . S
C2347 N706 0.968 . S
C2352 N772 0.968 . S
C2377 N871 0.968 . S
C2382 N805 0.968 . S
C2407 N838 0.968 . S
C2412 N904 0.968 . S
C2437 N937 0.968 . S
C2442 N1003 0.968 . S
C2467 N1036 0.968 . S
C2472 N970 0.968 . S
C2497 C747 2.004 . S
C2502 C18 2.003 . S
C2527 C516 2.004 . S
C2532 C51 2.003 . S
C2557 C84 2.003 . S
C2562 C945 2.004 . S
C2587 C186 2.004 . S
C2592 C117 2.003 . S
C2617 C150 2.003 . S
C2622 C615 2.004 . S
C2647 C183 2.003 . S
C2652 C384 2.004 . S
C2677 C813 2.004 . S
C2682 C216 2.003 . S
C2707 C249 2.003 . S
C2712 C54 2.004 . S
C2737 C282 2.003 . S
C2742 C1011 2.004 . S
C2767 C252 2.004 . S
C2772 C315 2.003 . S
C2797 C348 2.003 . S
C2802 C681 2.004 . S
C2827 C381 2.003 . S
C2832 C450 2.004 . S
C2857 C879 2.004 . S
C2862 C414 2.003 . S
C2887 C447 2.003 . S
C2892 C120 2.004 . S
C2917 C549 2.004 . S
C2922 C480 2.003 . S
C2947 C318 2.004 . S
C2952 C513 2.003 . S
C2977 C219 2.004 . S
C2982 C546 2.003 . S
C3007 C579 2.003 . S
C3012 C1044 2.004 . S
C3037 C612 2.003 . S
C3042 C417 2.004 . S
C3067 C645 2.003 . S
C3072 C714 2.004 . S
C3097 C678 2.003 . S
C3102 C87 2.004 . S
C3127 C711 2.003 . S
C3132 C912 2.004 . S
C3157 C285 2.004 . S
C3162 C744 2.003 . S
C3187 C582 2.004 . S
C3192 C777 2.003 . S
C3217 C483 2.004 . S
C3222 C810 2.003 . S
C3247 C843 2.003 . S
C3252 C780 2.004 . S
C3277 C153 2.004 . S
C3282 C876 2.003 . S
C3307 C978 2.004 . S
C3312 C909 2.003 . S
C3337 C942 2.003 . S
C3342 C351 2.004 . S
C3367 C975 2.003 . S
C3372 C648 2.004 . S
C3397 C21 2.004 . S
C3402 C1008 2.003 . S
C3427 C1041 2.003 . S
C3432 C846 2.004 . S
