# Generated by pormake.
# Topology wiv, (6)-cn, num edge types: 1
# Building blocks:
#     Node 0, Type 0, BuildingBlock: BETDEL_clean_sbu_0, # of connection points: 6
#     Node 1, Type 0, BuildingBlock: BETDEL_clean_sbu_0, # of connection points: 6
#     Node 2, Type 0, BuildingBlock: BETDEL_clean_sbu_0, # of connection points: 6
#     Node 3, Type 0, BuildingBlock: BETDEL_clean_sbu_0, # of connection points: 6
#     Node 4, Type 0, BuildingBlock: BETDEL_clean_sbu_0, # of connection points: 6
#     Node 5, Type 0, BuildingBlock: BETDEL_clean_sbu_0, # of connection points: 6
#     Node 6, Type 0, BuildingBlock: BETDEL_clean_sbu_0, # of connection points: 6
#     Node 7, Type 0, BuildingBlock: BETDEL_clean_sbu_0, # of connection points: 6
#     Node 8, Type 0, BuildingBlock: BETDEL_clean_sbu_0, # of connection points: 6
#     Node 9, Type 0, BuildingBlock: BETDEL_clean_sbu_0, # of connection points: 6
#     Node 10, Type 0, BuildingBlock: BETDEL_clean_sbu_0, # of connection points: 6
#     Node 11, Type 0, BuildingBlock: BETDEL_clean_sbu_0, # of connection points: 6
#     Node 12, Type 0, BuildingBlock: BETDEL_clean_sbu_0, # of connection points: 6
#     Node 13, Type 0, BuildingBlock: BETDEL_clean_sbu_0, # of connection points: 6
#     Node 14, Type 0, BuildingBlock: BETDEL_clean_sbu_0, # of connection points: 6
#     Node 15, Type 0, BuildingBlock: BETDEL_clean_sbu_0, # of connection points: 6
#     Edge 16, Type (0, 0), BuildingBlock: XIVTED_clean_linker_0, # of connection points: 2
#     Edge 17, Type (0, 0), BuildingBlock: XIVTED_clean_linker_0, # of connection points: 2
#     Edge 18, Type (0, 0), BuildingBlock: XIVTED_clean_linker_0, # of connection points: 2
#     Edge 19, Type (0, 0), BuildingBlock: XIVTED_clean_linker_0, # of connection points: 2
#     Edge 20, Type (0, 0), BuildingBlock: XIVTED_clean_linker_0, # of connection points: 2
#     Edge 21, Type (0, 0), BuildingBlock: XIVTED_clean_linker_0, # of connection points: 2
#     Edge 22, Type (0, 0), BuildingBlock: XIVTED_clean_linker_0, # of connection points: 2
#     Edge 23, Type (0, 0), BuildingBlock: XIVTED_clean_linker_0, # of connection points: 2
#     Edge 24, Type (0, 0), BuildingBlock: XIVTED_clean_linker_0, # of connection points: 2
#     Edge 25, Type (0, 0), BuildingBlock: XIVTED_clean_linker_0, # of connection points: 2
#     Edge 26, Type (0, 0), BuildingBlock: XIVTED_clean_linker_0, # of connection points: 2
#     Edge 27, Type (0, 0), BuildingBlock: XIVTED_clean_linker_0, # of connection points: 2
#     Edge 28, Type (0, 0), BuildingBlock: XIVTED_clean_linker_0, # of connection points: 2
#     Edge 29, Type (0, 0), BuildingBlock: XIVTED_clean_linker_0, # of connection points: 2
#     Edge 30, Type (0, 0), BuildingBlock: XIVTED_clean_linker_0, # of connection points: 2
#     Edge 31, Type (0, 0), BuildingBlock: XIVTED_clean_linker_0, # of connection points: 2
#     Edge 32, Type (0, 0), BuildingBlock: XIVTED_clean_linker_0, # of connection points: 2
#     Edge 33, Type (0, 0), BuildingBlock: XIVTED_clean_linker_0, # of connection points: 2
#     Edge 34, Type (0, 0), BuildingBlock: XIVTED_clean_linker_0, # of connection points: 2
#     Edge 35, Type (0, 0), BuildingBlock: XIVTED_clean_linker_0, # of connection points: 2
#     Edge 36, Type (0, 0), BuildingBlock: XIVTED_clean_linker_0, # of connection points: 2
#     Edge 37, Type (0, 0), BuildingBlock: XIVTED_clean_linker_0, # of connection points: 2
#     Edge 38, Type (0, 0), BuildingBlock: XIVTED_clean_linker_0, # of connection points: 2
#     Edge 39, Type (0, 0), BuildingBlock: XIVTED_clean_linker_0, # of connection points: 2
#     Edge 40, Type (0, 0), BuildingBlock: XIVTED_clean_linker_0, # of connection points: 2
#     Edge 41, Type (0, 0), BuildingBlock: XIVTED_clean_linker_0, # of connection points: 2
#     Edge 42, Type (0, 0), BuildingBlock: XIVTED_clean_linker_0, # of connection points: 2
#     Edge 43, Type (0, 0), BuildingBlock: XIVTED_clean_linker_0, # of connection points: 2
#     Edge 44, Type (0, 0), BuildingBlock: XIVTED_clean_linker_0, # of connection points: 2
#     Edge 45, Type (0, 0), BuildingBlock: XIVTED_clean_linker_0, # of connection points: 2
#     Edge 46, Type (0, 0), BuildingBlock: XIVTED_clean_linker_0, # of connection points: 2
#     Edge 47, Type (0, 0), BuildingBlock: XIVTED_clean_linker_0, # of connection points: 2
#     Edge 48, Type (0, 0), BuildingBlock: XIVTED_clean_linker_0, # of connection points: 2
#     Edge 49, Type (0, 0), BuildingBlock: XIVTED_clean_linker_0, # of connection points: 2
#     Edge 50, Type (0, 0), BuildingBlock: XIVTED_clean_linker_0, # of connection points: 2
#     Edge 51, Type (0, 0), BuildingBlock: XIVTED_clean_linker_0, # of connection points: 2
#     Edge 52, Type (0, 0), BuildingBlock: XIVTED_clean_linker_0, # of connection points: 2
#     Edge 53, Type (0, 0), BuildingBlock: XIVTED_clean_linker_0, # of connection points: 2
#     Edge 54, Type (0, 0), BuildingBlock: XIVTED_clean_linker_0, # of connection points: 2
#     Edge 55, Type (0, 0), BuildingBlock: XIVTED_clean_linker_0, # of connection points: 2
#     Edge 56, Type (0, 0), BuildingBlock: XIVTED_clean_linker_0, # of connection points: 2
#     Edge 57, Type (0, 0), BuildingBlock: XIVTED_clean_linker_0, # of connection points: 2
#     Edge 58, Type (0, 0), BuildingBlock: XIVTED_clean_linker_0, # of connection points: 2
#     Edge 59, Type (0, 0), BuildingBlock: XIVTED_clean_linker_0, # of connection points: 2
#     Edge 60, Type (0, 0), BuildingBlock: XIVTED_clean_linker_0, # of connection points: 2
#     Edge 61, Type (0, 0), BuildingBlock: XIVTED_clean_linker_0, # of connection points: 2
#     Edge 62, Type (0, 0), BuildingBlock: XIVTED_clean_linker_0, # of connection points: 2
#     Edge 63, Type (0, 0), BuildingBlock: XIVTED_clean_linker_0, # of connection points: 2
# Relax obj value: 0.069
# Max RMSD: 0.130
# Mean RMSD: 0.130
data_MOF--net-wiv--node1-BETDEL_clean_sbu_0--edge1-XIVTED_clean_linker_0
_symmetry_space_group_name_H-M    P1
_symmetry_Int_Tables_number       1
_symmetry_cell_setting            triclinic
loop_
_symmetry_equiv_pos_as_xyz
'x, y, z'
_cell_length_a     55.892033
_cell_length_b     55.908006
_cell_length_c     17.854898
_cell_angle_alpha  89.950579
_cell_angle_beta   89.96083
_cell_angle_gamma 89.98913
loop_
_atom_site_label
_atom_site_type_symbol
_atom_site_fract_x
_atom_site_fract_y
_atom_site_fract_z
_atom_type_partial_charge
Dy0 Dy 0.3604 0.11962 0.17999 0.0
C1 C 0.39152 0.12563 0.87842 0.0
C2 C 0.35303 0.11439 0.33116 0.0
Dy3 Dy 0.38424 0.11968 0.02924 0.0
O4 O 0.34759 0.13316 0.29196 0.0
O5 O 0.36119 0.09791 0.28679 0.0
O6 O 0.34299 0.15398 0.15213 0.0
O7 O 0.3781 0.14785 0.11348 0.0
C8 C 0.36079 0.16254 0.11396 0.0
C9 C 0.38299 0.07708 0.09825 0.0
O10 O 0.41678 0.13047 0.09236 0.0
O11 O 0.40001 0.11798 0.20439 0.0
O12 O 0.3979 0.10706 0.91723 0.0
O13 O 0.38249 0.14159 0.92308 0.0
O14 O 0.40054 0.0838 0.05543 0.0
O15 O 0.36653 0.09239 0.097 0.0
O16 O 0.32809 0.10814 0.11385 0.0
O17 O 0.34517 0.12001 1.00164 0.0
C18 C 0.41877 0.12475 0.16402 0.0
C19 C 0.32648 0.11267 0.04088 0.0
Dy20 Dy 0.11714 0.61564 1.00273 0.0
C21 C 0.10556 0.64932 0.69782 0.0
C22 C 0.11979 0.60824 0.15412 0.0
Dy23 Dy 0.11829 0.64099 0.84313 0.0
O24 O 0.1008 0.60549 0.11331 0.0
O25 O 0.13786 0.61358 0.1112 0.0
O26 O 0.08078 0.60186 0.97034 0.0
O27 O 0.09223 0.6355 0.93159 0.0
C28 C 0.07566 0.62029 0.92897 0.0
C29 C 0.16297 0.63005 0.8864 0.0
O30 O 0.11394 0.67389 0.91517 0.0
O31 O 0.12088 0.6545 0.02913 0.0
O32 O 0.12219 0.66085 0.73397 0.0
O33 O 0.09482 0.63459 0.74312 0.0
O34 O 0.15813 0.64131 0.82477 0.0
O35 O 0.14374 0.62606 0.92102 0.0
O36 O 0.12805 0.58413 0.93494 0.0
O37 O 0.11457 0.60125 0.82332 0.0
C38 C 0.11766 0.67421 0.98901 0.0
C39 C 0.12186 0.58251 0.86335 0.0
Dy40 Dy 0.64422 0.8797 0.19464 0.0
C41 C 0.61416 0.87195 0.89318 0.0
C42 C 0.65138 0.88669 0.34529 0.0
Dy43 Dy 0.62126 0.87796 0.04421 0.0
O44 O 0.65929 0.86871 0.30668 0.0
O45 O 0.64083 0.90162 0.30045 0.0
O46 O 0.66041 0.84422 0.17491 0.0
O47 O 0.62587 0.85074 0.13288 0.0
C48 C 0.64249 0.83536 0.13818 0.0
C49 C 0.62335 0.92164 0.10654 0.0
O50 O 0.58845 0.86779 0.10674 0.0
O51 O 0.60442 0.88213 0.21745 0.0
O52 O 0.60696 0.8901 0.93237 0.0
O53 O 0.62391 0.85634 0.9376 0.0
O54 O 0.60571 0.91449 0.06512 0.0
O55 O 0.63952 0.90603 0.10796 0.0
O56 O 0.67675 0.88999 0.12663 0.0
O57 O 0.66018 0.87463 0.01858 0.0
C58 C 0.58591 0.87467 0.17717 0.0
C59 C 0.67876 0.88311 0.05557 0.0
Dy60 Dy 0.88177 0.38553 0.99682 0.0
C61 C 0.88756 0.35463 0.69541 0.0
C62 C 0.87564 0.39265 0.14766 0.0
Dy63 Dy 0.88213 0.36201 0.84652 0.0
O64 O 0.89353 0.40045 0.1082 0.0
O65 O 0.86037 0.38225 0.10362 0.0
O66 O 0.91777 0.40177 0.97225 0.0
O67 O 0.90934 0.36787 0.9297 0.0
C68 C 0.92465 0.38433 0.92943 0.0
C69 C 0.8389 0.36247 0.91135 0.0
O70 O 0.89385 0.32971 0.91266 0.0
O71 O 0.8815 0.34648 0.02459 0.0
O72 O 0.86941 0.34775 0.7353 0.0
O73 O 0.90339 0.36429 0.73907 0.0
O74 O 0.84765 0.34468 0.87372 0.0
O75 O 0.85365 0.37971 0.91206 0.0
O76 O 0.87061 0.41802 0.93386 0.0
O77 O 0.88352 0.40166 0.8219 0.0
C78 C 0.8891 0.3279 0.98547 0.0
C79 C 0.87645 0.42027 0.86236 0.0
Dy80 Dy 0.35963 0.38318 0.09656 0.0
C81 C 0.39064 0.37665 0.39794 0.0
C82 C 0.35224 0.38865 0.94545 0.0
Dy83 Dy 0.38343 0.38278 0.24713 0.0
O84 O 0.34644 0.36999 0.98464 0.0
O85 O 0.36078 0.40493 0.98983 0.0
O86 O 0.34249 0.3486 0.12333 0.0
O87 O 0.37752 0.35481 0.16207 0.0
C88 C 0.36036 0.33996 0.16095 0.0
C89 C 0.38202 0.42559 0.17945 0.0
O90 O 0.41596 0.37209 0.18341 0.0
O91 O 0.39922 0.38501 0.07189 0.0
O92 O 0.3974 0.39508 0.35909 0.0
O93 O 0.38129 0.36088 0.35328 0.0
O94 O 0.39958 0.41879 0.22202 0.0
O95 O 0.36561 0.41022 0.18025 0.0
O96 O 0.32727 0.39442 0.16302 0.0
O97 O 0.34434 0.38224 0.27483 0.0
C98 C 0.41797 0.37804 0.1119 0.0
C99 C 0.32564 0.38967 0.23585 0.0
Dy100 Dy 0.38209 0.61934 0.787 0.0
C101 C 0.3887 0.65057 0.08727 0.0
C102 C 0.37706 0.6119 0.63567 0.0
Dy103 Dy 0.38264 0.6433 0.93616 0.0
O104 O 0.39526 0.60534 0.67585 0.0
O105 O 0.3609 0.62112 0.67931 0.0
O106 O 0.41767 0.60275 0.81572 0.0
O107 O 0.40973 0.63755 0.85215 0.0
C108 C 0.42491 0.621 0.85437 0.0
C109 C 0.33887 0.64193 0.87471 0.0
O110 O 0.39385 0.6755 0.86873 0.0
O111 O 0.38075 0.6583 0.75849 0.0
O112 O 0.37053 0.65772 0.04799 0.0
O113 O 0.40431 0.64082 0.04286 0.0
O114 O 0.34763 0.65995 0.9113 0.0
O115 O 0.35406 0.62507 0.87253 0.0
O116 O 0.37109 0.58694 0.85043 0.0
O117 O 0.38442 0.60367 0.96133 0.0
C118 C 0.3886 0.67703 0.79626 0.0
C119 C 0.37726 0.58491 0.92169 0.0
Dy120 Dy 0.63811 0.61588 0.10615 0.0
C121 C 0.60681 0.61662 0.41828 0.0
C122 C 0.64614 0.60335 0.96112 0.0
Dy123 Dy 0.61406 0.61342 0.2675 0.0
O124 O 0.65872 0.61897 0.99829 0.0
O125 O 0.63019 0.59376 1.00477 0.0
O126 O 0.63984 0.65577 0.09226 0.0
O127 O 0.62488 0.64076 0.18851 0.0
C128 C 0.62927 0.66019 0.15545 0.0
C129 C 0.61637 0.57272 0.18874 0.0
O130 O 0.5821 0.62531 0.20401 0.0
O131 O 0.59812 0.61592 0.08642 0.0
O132 O 0.60235 0.59795 0.37753 0.0
O133 O 0.61403 0.6341 0.37578 0.0
O134 O 0.5992 0.57752 0.23549 0.0
O135 O 0.63204 0.58887 0.19096 0.0
O136 O 0.6714 0.60989 0.17567 0.0
O137 O 0.65316 0.61362 0.29298 0.0
C138 C 0.57997 0.62202 0.13078 0.0
C139 C 0.67241 0.61117 0.25028 0.0
Dy140 Dy 0.61836 0.38278 0.77554 0.0
C141 C 0.61416 0.35122 0.07714 0.0
C142 C 0.62405 0.39023 0.62461 0.0
Dy143 Dy 0.61886 0.35878 0.92579 0.0
O144 O 0.60574 0.39696 0.66406 0.0
O145 O 0.63993 0.38077 0.66871 0.0
O146 O 0.5823 0.39849 0.80146 0.0
O147 O 0.5913 0.36458 0.84347 0.0
C148 C 0.57579 0.38091 0.8444 0.0
C149 C 0.66176 0.36021 0.85914 0.0
O150 O 0.60804 0.32628 0.8596 0.0
O151 O 0.61924 0.34377 0.74733 0.0
O152 O 0.63274 0.34573 0.03717 0.0
O153 O 0.59756 0.35953 0.03344 0.0
O154 O 0.65358 0.34215 0.8969 0.0
O155 O 0.64671 0.37718 0.85956 0.0
O156 O 0.62879 0.4154 0.83907 0.0
O157 O 0.61648 0.39827 0.95073 0.0
C158 C 0.61248 0.32486 0.78653 0.0
C159 C 0.62298 0.4172 0.91072 0.0
Dy160 Dy 0.86141 0.62188 0.68062 0.0
C161 C 0.89061 0.62645 0.37861 0.0
C162 C 0.85436 0.6152 0.83102 0.0
Dy163 Dy 0.88342 0.62139 0.52958 0.0
O164 O 0.84592 0.63286 0.79195 0.0
O165 O 0.86557 0.60053 0.78699 0.0
O166 O 0.84456 0.65677 0.65732 0.0
O167 O 0.87891 0.65013 0.61362 0.0
C168 C 0.86215 0.66541 0.61835 0.0
C169 C 0.88233 0.57872 0.59865 0.0
O170 O 0.91704 0.63142 0.58713 0.0
O171 O 0.90132 0.62269 0.70425 0.0
O172 O 0.89704 0.60814 0.41842 0.0
O173 O 0.88137 0.64259 0.42215 0.0
O174 O 0.89961 0.58545 0.55499 0.0
O175 O 0.86592 0.59411 0.59855 0.0
O176 O 0.82838 0.61091 0.61639 0.0
O177 O 0.84443 0.62299 0.5034 0.0
C178 C 0.91967 0.62792 0.65983 0.0
C179 C 0.82602 0.61579 0.54386 0.0
Dy180 Dy 0.61939 0.11535 0.49692 0.0
C181 C 0.60594 0.14765 0.19037 0.0
C182 C 0.62477 0.10843 0.64759 0.0
Dy183 Dy 0.61889 0.14025 0.33578 0.0
O184 O 0.60658 0.10145 0.60808 0.0
O185 O 0.64079 0.11782 0.60365 0.0
O186 O 0.58285 0.10068 0.47126 0.0
O187 O 0.59346 0.13352 0.425 0.0
C188 C 0.57726 0.1179 0.42554 0.0
C189 C 0.66406 0.13169 0.37959 0.0
O190 O 0.61226 0.173 0.40718 0.0
O191 O 0.61906 0.15446 0.52276 0.0
O192 O 0.62127 0.16067 0.22722 0.0
O193 O 0.59664 0.13176 0.23484 0.0
O194 O 0.65874 0.14283 0.31814 0.0
O195 O 0.64501 0.12674 0.41367 0.0
O196 O 0.63153 0.0843 0.4288 0.0
O197 O 0.61684 0.10036 0.3172 0.0
C198 C 0.61493 0.17377 0.4815 0.0
C199 C 0.62512 0.08212 0.35753 0.0
Dy200 Dy 0.14116 0.38208 0.68134 0.0
C201 C 0.11022 0.37573 0.37999 0.0
C202 C 0.14853 0.38753 0.83242 0.0
Dy203 Dy 0.1175 0.38171 0.53076 0.0
O204 O 0.15534 0.36934 0.79271 0.0
O205 O 0.13896 0.40339 0.78859 0.0
O206 O 0.15842 0.34754 0.65486 0.0
O207 O 0.12344 0.35365 0.61569 0.0
C208 C 0.14066 0.33888 0.61694 0.0
C209 C 0.11865 0.42447 0.5986 0.0
O210 O 0.08505 0.37067 0.59415 0.0
O211 O 0.10154 0.38357 0.70594 0.0
O212 O 0.10273 0.39373 0.41942 0.0
O213 O 0.12039 0.36027 0.42403 0.0
O214 O 0.10117 0.41764 0.55586 0.0
O215 O 0.13514 0.40919 0.59782 0.0
O216 O 0.17342 0.39374 0.61497 0.0
O217 O 0.15657 0.38144 0.5031 0.0
C218 C 0.08288 0.37658 0.6656 0.0
C219 C 0.17517 0.389 0.54217 0.0
Dy220 Dy 0.38244 0.8835 0.49371 0.0
C221 C 0.38955 0.85265 0.1922 0.0
C222 C 0.37589 0.8906 0.64449 0.0
Dy223 Dy 0.38372 0.85991 0.34332 0.0
O224 O 0.39409 0.89802 0.60571 0.0
O225 O 0.36052 0.88066 0.59973 0.0
O226 O 0.41852 0.8998 0.47128 0.0
O227 O 0.41043 0.86586 0.42819 0.0
C228 C 0.42569 0.88237 0.42892 0.0
C229 C 0.34003 0.86055 0.40507 0.0
O230 O 0.39499 0.82761 0.41029 0.0
O231 O 0.38183 0.84447 0.52123 0.0
O232 O 0.37114 0.84611 0.2314 0.0
O233 O 0.40547 0.86184 0.23662 0.0
O234 O 0.34901 0.8427 0.36821 0.0
O235 O 0.35489 0.87769 0.40709 0.0
O236 O 0.37184 0.91601 0.42988 0.0
O237 O 0.38564 0.89952 0.3191 0.0
C238 C 0.38978 0.8259 0.48282 0.0
C239 C 0.37831 0.91818 0.35888 0.0
Dy240 Dy 0.86145 0.88632 0.59561 0.0
C241 C 0.89287 0.88001 0.90737 0.0
C242 C 0.85366 0.89917 0.45025 0.0
Dy243 Dy 0.88598 0.8858 0.75684 0.0
O244 O 0.84053 0.88413 0.48801 0.0
O245 O 0.86986 0.9083 0.49389 0.0
O246 O 0.86055 0.84661 0.57487 0.0
O247 O 0.87495 0.86 0.67351 0.0
C248 C 0.87092 0.84112 0.6374 0.0
C249 C 0.88389 0.92794 0.68528 0.0
O250 O 0.91705 0.8736 0.68854 0.0
O251 O 0.90125 0.8892 0.5779 0.0
O252 O 0.90132 0.89748 0.8673 0.0
O253 O 0.882 0.86483 0.864 0.0
O254 O 0.90087 0.92227 0.73169 0.0
O255 O 0.86815 0.91184 0.68453 0.0
O256 O 0.82842 0.89219 0.66654 0.0
O257 O 0.84696 0.88738 0.78314 0.0
C258 C 0.9194 0.88057 0.6178 0.0
C259 C 0.82768 0.89066 0.74115 0.0
Dy260 Dy 0.88292 0.1197 0.27924 0.0
C261 C 0.88989 0.15015 0.58091 0.0
C262 C 0.87652 0.1126 0.12857 0.0
Dy263 Dy 0.88391 0.14303 0.42992 0.0
O264 O 0.89473 0.10527 0.16732 0.0
O265 O 0.86108 0.12252 0.17325 0.0
O266 O 0.91883 0.10315 0.30243 0.0
O267 O 0.91083 0.13712 0.34561 0.0
C268 C 0.926 0.1205 0.34509 0.0
C269 C 0.84027 0.14239 0.36787 0.0
O270 O 0.89525 0.17543 0.36364 0.0
O271 O 0.88248 0.15878 0.25204 0.0
O272 O 0.87156 0.157 0.54191 0.0
O273 O 0.90562 0.14067 0.53641 0.0
O274 O 0.84914 0.1602 0.40517 0.0
O275 O 0.85523 0.12535 0.36558 0.0
O276 O 0.87197 0.08713 0.34216 0.0
O277 O 0.88537 0.10334 0.45374 0.0
C278 C 0.89025 0.17729 0.29105 0.0
C279 C 0.8781 0.08479 0.41337 0.0
Dy280 Dy 0.14199 0.11845 0.59629 0.0
C281 C 0.11099 0.12435 0.89802 0.0
C282 C 0.14942 0.11307 0.44526 0.0
Dy283 Dy 0.11826 0.11851 0.74721 0.0
O284 O 0.15489 0.13185 0.48423 0.0
O285 O 0.14116 0.09666 0.48978 0.0
O286 O 0.15935 0.15286 0.62361 0.0
O287 O 0.12432 0.14666 0.66278 0.0
C288 C 0.14159 0.16139 0.66203 0.0
C289 C 0.11951 0.07593 0.6783 0.0
O290 O 0.08579 0.12955 0.68415 0.0
O291 O 0.10233 0.11696 0.57195 0.0
O292 O 0.10457 0.10582 0.85919 0.0
O293 O 0.12006 0.14032 0.85338 0.0
O294 O 0.10194 0.08266 0.72101 0.0
O295 O 0.13596 0.09124 0.6795 0.0
O296 O 0.17437 0.10711 0.66241 0.0
O297 O 0.15732 0.11895 0.77464 0.0
C298 C 0.08367 0.12389 0.61251 0.0
C299 C 0.17601 0.11166 0.73534 0.0
Dy300 Dy 0.11889 0.88408 0.27754 0.0
C301 C 0.10576 0.8515 0.58432 0.0
C302 C 0.12449 0.89102 0.12696 0.0
Dy303 Dy 0.11855 0.85909 0.43872 0.0
O304 O 0.10627 0.89807 0.16636 0.0
O305 O 0.14044 0.88158 0.17101 0.0
O306 O 0.0825 0.89886 0.30323 0.0
O307 O 0.09298 0.86597 0.34988 0.0
C308 C 0.07688 0.88174 0.34929 0.0
C309 C 0.16364 0.8682 0.39484 0.0
O310 O 0.11248 0.82624 0.36748 0.0
O311 O 0.11796 0.84501 0.2514 0.0
O312 O 0.12126 0.8387 0.54732 0.0
O313 O 0.09621 0.86724 0.53989 0.0
O314 O 0.15843 0.85706 0.45639 0.0
O315 O 0.14454 0.8729 0.36079 0.0
O316 O 0.13057 0.91523 0.34615 0.0
O317 O 0.1159 0.89887 0.45746 0.0
C318 C 0.11446 0.82564 0.29296 0.0
C319 C 0.12391 0.91726 0.4173 0.0
H320 H 0.40293 0.9309 0.23376 0.0
H321 H 0.34799 0.06137 0.19368 0.0
H322 H 0.35474 0.95955 0.40015 0.0
H323 H 0.41538 0.04067 0.09533 0.0
H324 H 0.34676 0.02309 0.26113 0.0
H325 H 0.40405 0.96979 0.17259 0.0
C326 C 0.39247 0.94536 0.25739 0.0
C327 C 0.37866 0.94193 0.32222 0.0
C328 C 0.36184 0.02702 0.22504 0.0
C329 C 0.37987 0.98664 0.25185 0.0
C330 C 0.36256 0.0488 0.18656 0.0
C331 C 0.38188 0.05417 0.13917 0.0
C332 C 0.38035 0.01037 0.21474 0.0
C333 C 0.40017 0.03722 0.13132 0.0
C334 C 0.39326 0.96762 0.22255 0.0
C335 C 0.36566 0.96145 0.35041 0.0
N336 N 0.39888 0.01601 0.16832 0.0
N337 N 0.36644 0.98299 0.31469 0.0
H338 H 0.96097 0.60945 0.60315 0.0
H339 H 0.0517 0.6613 0.89499 0.0
H340 H 0.93286 0.6484 0.79205 0.0
H341 H 0.0503 0.58502 0.86008 0.0
H342 H 0.0139 0.66478 0.8247 0.0
H343 H 1.00037 0.60825 0.665 0.0
C344 C 0.96324 0.61809 0.65697 0.0
C345 C 0.94379 0.62904 0.69283 0.0
C346 C 0.02207 0.64737 0.8322 0.0
C347 C 0.98848 0.62817 0.76219 0.0
C348 C 0.04352 0.64537 0.87187 0.0
C349 C 0.05382 0.62281 0.8837 0.0
C350 C 0.01148 0.62679 0.80212 0.0
C351 C 0.04266 0.60266 0.85272 0.0
C352 C 0.98556 0.61727 0.69213 0.0
C353 C 0.94748 0.63974 0.7629 0.0
N354 N 0.02212 0.60513 0.81262 0.0
N355 N 0.96951 0.63924 0.7952 0.0
H356 H 0.65745 0.93773 0.20456 0.0
H357 H 0.6019 0.06866 0.23044 0.0
H358 H 0.59183 0.95856 0.09548 0.0
H359 H 0.64925 0.04131 0.4013 0.0
H360 H 0.60195 0.02962 0.1706 0.0
H361 H 0.65838 0.97665 0.26844 0.0
C362 C 0.64325 0.9505 0.19414 0.0
C363 C 0.6245 0.94498 0.14487 0.0
C364 C 0.61232 0.0321 0.22122 0.0
C365 C 0.62564 0.98942 0.21658 0.0
C366 C 0.61243 0.05446 0.25537 0.0
C367 C 0.62561 0.05831 0.3212 0.0
C368 C 0.62572 0.01336 0.25228 0.0
C369 C 0.63876 0.0391 0.35084 0.0
C370 C 0.64378 0.97262 0.23065 0.0
C371 C 0.60661 0.96212 0.13304 0.0
N372 N 0.63859 0.01743 0.31591 0.0
N373 N 0.6077 0.98361 0.16829 0.0
H374 H 0.9614 0.41625 0.93616 0.0
H375 H 0.04136 0.35396 0.6212 0.0
H376 H 0.94025 0.35 0.83177 0.0
H377 H 0.07018 0.4 0.79292 0.0
H378 H 0.00221 0.35563 0.68421 0.0
H379 H 0.99969 0.41414 0.86987 0.0
C380 C 0.96482 0.40129 0.89912 0.0
C381 C 0.94771 0.38327 0.88937 0.0
C382 C 0.0172 0.36527 0.70791 0.0
C383 C 0.99128 0.38085 0.81286 0.0
C384 C 0.03947 0.36438 0.67196 0.0
C385 C 0.05909 0.37676 0.702 0.0
C386 C 0.01452 0.37901 0.7733 0.0
C387 C 0.05564 0.39001 0.76796 0.0
C388 C 0.98666 0.40007 0.86143 0.0
C389 C 0.953 0.36429 0.84061 0.0
N390 N 0.03381 0.39089 0.80103 0.0
N391 N 0.97431 0.36361 0.80379 0.0
H392 H 0.34717 0.44135 0.08376 0.0
H393 H 0.40152 0.57227 0.04753 0.0
H394 H 0.41406 0.46226 0.18466 0.0
H395 H 0.35384 0.54358 0.88001 0.0
H396 H 0.40258 0.53332 0.10854 0.0
H397 H 0.34583 0.47985 0.01761 0.0
C398 C 0.3616 0.45402 0.09175 0.0
C399 C 0.38082 0.44864 0.13943 0.0
C400 C 0.39191 0.53551 0.0584 0.0
C401 C 0.37916 0.49268 0.06531 0.0
C402 C 0.39115 0.55779 0.02368 0.0
C403 C 0.3775 0.56121 0.95856 0.0
C404 C 0.37866 0.51646 0.02863 0.0
C405 C 0.36463 0.54169 0.93 0.0
C406 C 0.36082 0.47592 0.054 0.0
C407 C 0.39894 0.46571 0.14838 0.0
N408 N 0.36539 0.52012 0.96556 0.0
N409 N 0.39759 0.48703 0.11205 0.0
H410 H 0.53835 0.60194 0.17934 0.0
H411 H 0.45184 0.66036 0.88422 0.0
H412 H 0.56786 0.64575 1.00327 0.0
H413 H 0.44847 0.5843 0.92291 0.0
H414 H 0.48951 0.66188 0.95548 0.0
H415 H 0.4996 0.60193 0.11345 0.0
C416 C 0.53649 0.61188 0.12755 0.0
C417 C 0.55613 0.62391 0.09642 0.0
C418 C 0.48041 0.64493 0.94833 0.0
C419 C 0.51223 0.62427 0.02233 0.0
C420 C 0.45903 0.64404 0.90801 0.0
C421 C 0.44735 0.62212 0.89726 0.0
C422 C 0.48957 0.62392 0.98017 0.0
C423 C 0.45721 0.60146 0.92932 0.0
C424 C 0.51457 0.61171 0.08996 0.0
C425 C 0.55304 0.63627 0.02876 0.0
N426 N 0.47771 0.60287 0.97016 0.0
N427 N 0.53138 0.63633 0.99412 0.0
H428 H 0.65175 0.55908 0.09066 0.0
H429 H 0.59801 0.42889 0.03561 0.0
H430 H 0.58413 0.53646 0.18329 0.0
H431 H 0.64605 0.4592 0.87157 0.0
H432 H 0.59643 0.46723 0.09926 0.0
H433 H 0.65336 0.52189 0.01721 0.0
C434 C 0.6372 0.54636 0.09513 0.0
C435 C 0.61772 0.55083 0.1428 0.0
C436 C 0.60729 0.46559 0.04925 0.0
C437 C 0.61971 0.5083 0.06067 0.0
C438 C 0.60834 0.44362 1.01299 0.0
C439 C 0.62226 0.44079 0.94816 0.0
C440 C 0.62051 0.48496 0.02144 0.0
C441 C 0.63505 0.46065 0.92128 0.0
C442 C 0.63814 0.52522 0.05328 0.0
C443 C 0.59948 0.53372 0.14726 0.0
N444 N 0.63403 0.48194 0.95847 0.0
N445 N 0.60101 0.51316 0.10718 0.0
H446 H 0.4304 0.40207 0.98551 0.0
H447 H 0.56046 0.34625 0.942 0.0
H448 H 0.45941 0.35446 0.15293 0.0
H449 H 0.5394 0.41322 0.84167 0.0
H450 H 0.52247 0.34544 1.01139 0.0
H451 H 0.46901 0.40261 0.9227 0.0
C452 C 0.44489 0.39162 1.00905 0.0
C453 C 0.44163 0.37814 0.07464 0.0
C454 C 0.52627 0.36033 0.9744 0.0
C455 C 0.48606 0.37867 1.00233 0.0
C456 C 0.54787 0.3608 0.93479 0.0
C457 C 0.55305 0.37988 0.88628 0.0
C458 C 0.50962 0.37884 0.96411 0.0
C459 C 0.5361 0.39817 0.87846 0.0
C460 C 0.467 0.39207 0.97325 0.0
C461 C 0.46118 0.36514 0.10264 0.0
N462 N 0.51509 0.39712 0.91657 0.0
N463 N 0.48259 0.36558 0.06597 0.0
H464 H 0.85374 0.46164 0.90791 0.0
H465 H 0.91399 0.54186 0.58944 0.0
H466 H 0.89914 0.43317 0.73373 0.0
H467 H 0.84851 0.56313 0.69866 0.0
H468 H 0.91224 0.50355 0.65545 0.0
H469 H 0.85478 0.5008 0.84483 0.0
C470 C 0.86389 0.46361 0.8566 0.0
C471 C 0.87629 0.44408 0.82594 0.0
C472 C 0.89824 0.51659 0.665 0.0
C473 C 0.8778 0.48867 0.75446 0.0
C474 C 0.89926 0.53845 0.62745 0.0
C475 C 0.88135 0.55562 0.63859 0.0
C476 C 0.87935 0.51196 0.71488 0.0
C477 C 0.86268 0.55033 0.68864 0.0
C478 C 0.86442 0.48589 0.8206 0.0
C479 C 0.88916 0.44763 0.75924 0.0
N480 N 0.8622 0.52897 0.72532 0.0
N481 N 0.88969 0.46947 0.72612 0.0
H482 H 0.56304 0.15259 0.32631 0.0
H483 H 0.43084 0.10168 0.29247 0.0
H484 H 0.54002 0.08669 0.42938 0.0
H485 H 0.46074 0.14676 0.11964 0.0
H486 H 0.46972 0.10018 0.35318 0.0
H487 H 0.52484 0.15452 0.25829 0.0
C488 C 0.55 0.13848 0.33424 0.0
C489 C 0.55467 0.11937 0.38316 0.0
C490 C 0.46783 0.11039 0.30193 0.0
C491 C 0.511 0.12176 0.30724 0.0
C492 C 0.44557 0.1114 0.26733 0.0
C493 C 0.44249 0.12442 0.20076 0.0
C494 C 0.48724 0.12273 0.27061 0.0
C495 C 0.46236 0.13647 0.17075 0.0
C496 C 0.52828 0.1396 0.2955 0.0
C497 C 0.53714 0.10171 0.39215 0.0
N498 N 0.48394 0.13547 0.20622 0.0
N499 N 0.51602 0.10342 0.35499 0.0
H500 H 0.0966 0.56988 0.73941 0.0
H501 H 0.15326 0.44013 0.69517 0.0
H502 H 0.14603 0.54133 0.90235 0.0
H503 H 0.0861 0.46071 0.59524 0.0
H504 H 0.15404 0.47822 0.76342 0.0
H505 H 0.09584 0.53121 0.67691 0.0
C506 C 0.10739 0.55548 0.76201 0.0
C507 C 0.12147 0.55887 0.82623 0.0
C508 C 0.13911 0.47432 0.72678 0.0
C509 C 0.12067 0.51444 0.75439 0.0
C510 C 0.13866 0.45265 0.6878 0.0
C511 C 0.11954 0.44731 0.63976 0.0
C512 C 0.12051 0.49087 0.71642 0.0
C513 C 0.10117 0.46416 0.63174 0.0
C514 C 0.10682 0.53335 0.72642 0.0
C515 C 0.13488 0.53945 0.85316 0.0
N516 N 0.10219 0.48525 0.66932 0.0
N517 N 0.13429 0.51805 0.81674 0.0
H518 H 0.5449 0.85159 0.13163 0.0
H519 H 0.46236 0.91428 0.43917 0.0
H520 H 0.57229 0.89875 0.30264 0.0
H521 H 0.44217 0.84812 0.33242 0.0
H522 H 0.50124 0.91223 0.37635 0.0
H523 H 0.50538 0.85327 0.1919 0.0
C524 C 0.54261 0.86228 0.1817 0.0
C525 C 0.56193 0.87498 0.21229 0.0
C526 C 0.4883 0.89816 0.36667 0.0
C527 C 0.51691 0.87719 0.28062 0.0
C528 C 0.46612 0.89935 0.40236 0.0
C529 C 0.4491 0.88134 0.39092 0.0
C530 C 0.49337 0.87898 0.31843 0.0
C531 C 0.45483 0.8624 0.34255 0.0
C532 C 0.52012 0.86317 0.2161 0.0
C533 C 0.55797 0.88853 0.27732 0.0
N534 N 0.47648 0.86174 0.30771 0.0
N535 N 0.53591 0.88939 0.30899 0.0
H536 H 0.91622 0.96411 0.68741 0.0
H537 H 0.8548 0.04353 0.36944 0.0
H538 H 0.84967 0.94284 0.585 0.0
H539 H 0.9016 0.07179 0.54011 0.0
H540 H 0.85589 0.00442 0.43312 0.0
H541 H 0.91464 0.00171 0.61806 0.0
C542 C 0.9013 0.96735 0.65005 0.0
C543 C 0.88305 0.9504 0.64188 0.0
C544 C 0.86583 0.01928 0.45637 0.0
C545 C 0.88118 0.99335 0.56191 0.0
C546 C 0.86528 0.04152 0.42006 0.0
C547 C 0.87804 0.06098 0.44966 0.0
C548 C 0.8796 0.01649 0.52166 0.0
C549 C 0.89132 0.0574 0.51545 0.0
C550 C 0.90038 0.98882 0.61059 0.0
C551 C 0.86414 0.95547 0.59257 0.0
N552 N 0.89185 0.03563 0.54884 0.0
N553 N 0.86371 0.97653 0.5541 0.0
H554 H 0.04257 0.14734 0.65651 0.0
H555 H 0.96191 0.08766 0.33886 0.0
H556 H 0.07067 0.10068 0.48513 0.0
H557 H 0.94233 0.15444 0.44305 0.0
H558 H 1.00002 0.0886 0.40618 0.0
H559 H 0.00357 0.14677 0.59257 0.0
C560 C 0.04055 0.13698 0.60567 0.0
C561 C 0.05992 0.12414 0.57594 0.0
C562 C 0.98737 0.10305 0.41434 0.0
C563 C 0.01553 0.12318 0.50351 0.0
C564 C 0.96564 0.1025 0.37604 0.0
C565 C 0.94901 0.121 0.38548 0.0
C566 C 0.99239 0.12208 0.46322 0.0
C567 C 0.95469 0.13979 0.43448 0.0
C568 C 0.01837 0.13674 0.56917 0.0
C569 C 0.05632 0.11103 0.50983 0.0
N570 N 0.9759 0.13981 0.47191 0.0
N571 N 0.03457 0.11078 0.47619 0.0
H572 H 0.09821 0.93044 0.53972 0.0
H573 H 0.1547 0.06013 0.5838 0.0
H574 H 0.14858 0.95825 0.37815 0.0
H575 H 0.08685 0.03979 0.67978 0.0
H576 H 0.15589 0.02194 0.51607 0.0
H577 H 0.09721 0.96925 0.60079 0.0
C578 C 0.10918 0.9447 0.51711 0.0
C579 C 0.12358 0.94104 0.45367 0.0
C580 C 0.14072 0.02593 0.55169 0.0
C581 C 0.12246 0.98572 0.52396 0.0
C582 C 0.14003 0.04766 0.59035 0.0
C583 C 0.12059 0.05309 0.63718 0.0
C584 C 0.12205 0.00941 0.56119 0.0
C585 C 0.10215 0.03628 0.64425 0.0
C586 C 0.10845 0.96694 0.5519 0.0
C587 C 0.13719 0.96033 0.42677 0.0
N588 N 0.10341 0.01514 0.60705 0.0
N589 N 0.13644 0.98187 0.46243 0.0
H590 H 0.06173 0.84707 0.44783 0.0
H591 H 0.93311 0.90599 0.49556 0.0
H592 H 0.04129 0.91468 0.35042 0.0
H593 H 0.9599 0.85499 0.65682 0.0
H594 H 0.97178 0.90602 0.43388 0.0
H595 H 0.02391 0.84661 0.51852 0.0
C596 C 0.04934 0.86184 0.44167 0.0
C597 C 0.05459 0.88098 0.39343 0.0
C598 C 0.96931 0.89485 0.48288 0.0
C599 C 0.01142 0.88035 0.47259 0.0
C600 C 0.94713 0.89469 0.51805 0.0
C601 C 0.94321 0.88041 0.58154 0.0
C602 C 0.98782 0.88041 0.5105 0.0
C603 C 0.96221 0.86633 0.60817 0.0
C604 C 0.02784 0.86157 0.48195 0.0
C605 C 0.03793 0.89957 0.3869 0.0
N606 N 0.98374 0.86655 0.57215 0.0
N607 N 0.01706 0.89871 0.42562 0.0
H608 H 0.3252 0.19384 0.08997 0.0
H609 H 0.40179 0.3128 0.15767 0.0
H610 H 0.40143 0.19059 0.12523 0.0
H611 H 0.32495 0.30763 0.17209 0.0
H612 H 0.40379 0.26907 0.13959 0.0
H613 H 0.32653 0.237 0.1052 0.0
C614 C 0.34233 0.20236 0.09964 0.0
C615 C 0.36319 0.18869 0.10654 0.0
C616 C 0.38657 0.27756 0.14759 0.0
C617 C 0.36487 0.23825 0.12635 0.0
C618 C 0.38544 0.30241 0.15871 0.0
C619 C 0.36314 0.31376 0.16612 0.0
C620 C 0.36523 0.26427 0.14349 0.0
C621 C 0.34249 0.2996 0.16618 0.0
C622 C 0.34308 0.22701 0.1092 0.0
C623 C 0.38496 0.2006 0.11911 0.0
N624 N 0.34403 0.27572 0.15436 0.0
N625 N 0.38523 0.2248 0.12938 0.0
H626 H 0.30484 0.67532 0.9006 0.0
H627 H 0.19132 0.59316 0.84422 0.0
H628 H 0.31319 0.6003 0.85033 0.0
H629 H 0.19068 0.65805 0.97365 0.0
H630 H 0.23531 0.59395 0.84425 0.0
H631 H 0.26221 0.66908 0.91896 0.0
C632 C 0.29764 0.65751 0.89272 0.0
C633 C 0.31264 0.63828 0.87418 0.0
C634 C 0.22557 0.6076 0.87461 0.0
C635 C 0.26356 0.63094 0.89582 0.0
C636 C 0.20054 0.60696 0.87553 0.0
C637 C 0.18755 0.62527 0.91058 0.0
C638 C 0.2375 0.6271 0.90707 0.0
C639 C 0.20014 0.64332 0.94766 0.0
C640 C 0.27329 0.65391 0.90404 0.0
C641 C 0.30223 0.61562 0.8644 0.0
N642 N 0.22442 0.644 0.94395 0.0
N643 N 0.27824 0.61256 0.87523 0.0
H644 H 0.67542 0.80128 0.16808 0.0
H645 H 0.59212 0.6885 0.11609 0.0
H646 H 0.60063 0.80996 0.11477 0.0
H647 H 0.65757 0.68755 0.24286 0.0
H648 H 0.59313 0.73244 0.11594 0.0
H649 H 0.66872 0.7589 0.1895 0.0
C650 C 0.65756 0.7942 0.16022 0.0
C651 C 0.63854 0.80921 0.1398 0.0
C652 C 0.60685 0.72266 0.14586 0.0
C653 C 0.63066 0.76043 0.16499 0.0
C654 C 0.60608 0.69765 0.14694 0.0
C655 C 0.62452 0.68458 0.18106 0.0
C656 C 0.62658 0.73447 0.17732 0.0
C657 C 0.64276 0.69707 0.21755 0.0
C658 C 0.65369 0.76999 0.17329 0.0
C659 C 0.6158 0.79897 0.13018 0.0
N660 N 0.64355 0.72133 0.2137 0.0
N661 N 0.61247 0.77511 0.14272 0.0
H662 H 0.81138 0.40364 0.90548 0.0
H663 H 0.69383 0.32544 0.83368 0.0
H664 H 0.80689 0.32687 0.92426 0.0
H665 H 0.68892 0.40136 0.87288 0.0
H666 H 0.73693 0.32758 0.85026 0.0
H667 H 0.76766 0.4051 0.88599 0.0
C668 C 0.80113 0.38721 0.90725 0.0
C669 C 0.81268 0.36507 0.91621 0.0
C670 C 0.72658 0.34389 0.85482 0.0
C671 C 0.76324 0.36654 0.89189 0.0
C672 C 0.70198 0.34269 0.84446 0.0
C673 C 0.68787 0.36321 0.85215 0.0
C674 C 0.73732 0.36579 0.87354 0.0
C675 C 0.69929 0.38514 0.86615 0.0
C676 C 0.7763 0.38802 0.89533 0.0
C677 C 0.79871 0.34429 0.91714 0.0
N678 N 0.72345 0.38586 0.87718 0.0
N679 N 0.77486 0.34553 0.9044 0.0
H680 H 0.90264 0.69078 0.57795 0.0
H681 H 0.84952 0.81313 0.74211 0.0
H682 H 0.83084 0.6996 0.6628 0.0
H683 H 0.90391 0.81294 0.57126 0.0
H684 H 0.84985 0.7692 0.74158 0.0
H685 H 0.90935 0.73403 0.59611 0.0
C686 C 0.88828 0.70179 0.59965 0.0
C687 C 0.86616 0.69158 0.6188 0.0
C688 C 0.86218 0.77879 0.70561 0.0
C689 C 0.87397 0.74049 0.64222 0.0
C690 C 0.86227 0.80378 0.70698 0.0
C691 C 0.87696 0.81644 0.65753 0.0
C692 C 0.8769 0.76654 0.6544 0.0
C693 C 0.89259 0.80361 0.61095 0.0
C694 C 0.89218 0.72634 0.61062 0.0
C695 C 0.84821 0.70663 0.64735 0.0
N696 N 0.89206 0.77929 0.61 0.0
N697 N 0.85257 0.7302 0.65873 0.0
H698 H 0.80688 0.17702 0.38016 0.0
H699 H 0.6925 0.09268 0.36188 0.0
H700 H 0.81403 0.10066 0.35393 0.0
H701 H 0.69186 0.16496 0.44449 0.0
H702 H 0.73653 0.09362 0.36046 0.0
H703 H 0.76407 0.17215 0.39805 0.0
C704 C 0.79935 0.15919 0.37734 0.0
C705 C 0.81404 0.13921 0.36576 0.0
C706 C 0.72677 0.10902 0.38095 0.0
C707 C 0.76479 0.1334 0.38733 0.0
C708 C 0.70172 0.10833 0.38292 0.0
C709 C 0.68875 0.1286 0.40505 0.0
C710 C 0.73868 0.13033 0.39969 0.0
C711 C 0.70133 0.14883 0.42871 0.0
C712 C 0.77489 0.15638 0.38836 0.0
C713 C 0.80328 0.11654 0.36242 0.0
N714 N 0.72557 0.14929 0.42459 0.0
N715 N 0.77922 0.11421 0.3733 0.0
H716 H 0.09944 0.31142 0.62081 0.0
H717 H 0.17715 0.19285 0.68412 0.0
H718 H 0.17628 0.30686 0.60433 0.0
H719 H 0.10077 0.18923 0.65271 0.0
H720 H 0.17549 0.23602 0.66923 0.0
H721 H 0.09784 0.26764 0.6383 0.0
C722 C 0.11587 0.30115 0.61917 0.0
C723 C 0.13806 0.31268 0.61136 0.0
C724 C 0.15898 0.22594 0.66599 0.0
C725 C 0.13642 0.26313 0.6333 0.0
C726 C 0.15992 0.20129 0.67534 0.0
C727 C 0.13911 0.18752 0.66943 0.0
C728 C 0.13704 0.23709 0.65006 0.0
C729 C 0.11721 0.19932 0.65802 0.0
C730 C 0.11497 0.27627 0.62996 0.0
C731 C 0.15883 0.29868 0.61056 0.0
N732 N 0.11674 0.22353 0.64795 0.0
N733 N 0.1575 0.27477 0.62205 0.0
H734 H 0.30713 0.82544 0.39619 0.0
H735 H 0.19133 0.90779 0.41204 0.0
H736 H 0.31323 0.90207 0.4169 0.0
H737 H 0.19211 0.83536 0.33062 0.0
H738 H 0.23539 0.90769 0.41325 0.0
H739 H 0.26424 0.82957 0.37892 0.0
C740 C 0.29935 0.84319 0.39793 0.0
C741 C 0.31377 0.86344 0.40773 0.0
C742 C 0.22593 0.89208 0.39306 0.0
C743 C 0.26441 0.86839 0.38687 0.0
C744 C 0.20087 0.89227 0.39124 0.0
C745 C 0.1883 0.87172 0.3695 0.0
C746 C 0.23824 0.87097 0.37461 0.0
C747 C 0.20126 0.8517 0.34611 0.0
C748 C 0.27484 0.84556 0.38726 0.0
C749 C 0.30269 0.88598 0.40978 0.0
N750 N 0.22551 0.85172 0.35011 0.0
N751 N 0.27857 0.88789 0.39927 0.0
H752 H 0.22225 0.10634 0.68167 0.0
H753 H 0.28034 0.10648 0.09438 0.0
H754 H 0.18123 0.10911 0.88656 0.0
H755 H 0.32129 0.11057 0.88955 0.0
H756 H 0.24367 0.10323 0.01902 0.0
H757 H 0.25897 0.10364 0.75697 0.0
C758 C 0.22093 0.10621 0.74218 0.0
C759 C 0.19863 0.10824 0.77757 0.0
C760 C 0.26076 0.10474 0.99077 0.0
C761 C 0.24041 0.10516 0.8641 0.0
C762 C 0.28165 0.10654 0.03386 0.0
C763 C 0.30391 0.10908 0.99854 0.0
C764 C 0.2622 0.10535 0.91193 0.0
C765 C 0.30454 0.10898 0.91963 0.0
C766 C 0.24187 0.10473 0.78524 0.0
C767 C 0.19801 0.10793 0.85646 0.0
N768 N 0.28407 0.10726 0.87923 0.0
N769 N 0.21851 0.10653 0.89683 0.0
H770 H 0.12974 0.68033 0.13569 0.0
H771 H 0.1028 0.82031 0.14604 0.0
H772 H 0.10486 0.71993 0.94295 0.0
H773 H 0.12144 0.77915 0.3422 0.0
H774 H 0.10318 0.78396 0.07164 0.0
H775 H 0.12723 0.71633 0.21062 0.0
C776 C 0.12374 0.69661 0.10867 0.0
C777 C 0.11739 0.69693 0.0323 0.0
C778 C 0.10708 0.78277 0.13092 0.0
C779 C 0.11449 0.73862 0.11941 0.0
C780 C 0.10689 0.80356 0.1738 0.0
C781 C 0.11231 0.80287 0.25079 0.0
C782 C 0.11285 0.76092 0.16473 0.0
C783 C 0.11714 0.78056 0.28326 0.0
C784 C 0.12228 0.71723 0.15205 0.0
C785 C 0.10998 0.71877 1.00129 0.0
N786 N 0.11749 0.76048 0.23989 0.0
N787 N 0.1087 0.73874 0.04502 0.0
H788 H 0.72308 0.90056 0.10062 0.0
H789 H 0.78138 0.88352 0.69119 0.0
H790 H 0.68566 0.87194 0.90887 0.0
H791 H 0.822 0.90307 0.88742 0.0
H792 H 0.74493 0.88343 0.76818 0.0
H793 H 0.75898 0.90507 0.02178 0.0
C794 C 0.72238 0.8952 0.0424 0.0
C795 C 0.70128 0.88577 1.01188 0.0
C796 C 0.76185 0.88786 0.79418 0.0
C797 C 0.74204 0.89109 0.92121 0.0
C798 C 0.78261 0.88805 0.75002 0.0
C799 C 0.80481 0.89303 0.78283 0.0
C800 C 0.76334 0.89284 0.87148 0.0
C801 C 0.80533 0.89875 0.85969 0.0
C802 C 0.74282 0.89782 0.9973 0.0
C803 C 0.70142 0.87924 0.9356 0.0
N804 N 0.785 0.8984 0.9013 0.0
N805 N 0.72136 0.88203 0.89325 0.0
H806 H 0.89576 0.28183 0.93196 0.0
H807 H 0.8958 0.22347 0.34471 0.0
H808 H 0.89096 0.32258 0.13681 0.0
H809 H 0.89277 0.18258 0.13986 0.0
H810 H 0.89853 0.26023 0.26938 0.0
H811 H 0.89913 0.24514 1.00733 0.0
C812 C 0.89558 0.2831 0.99248 0.0
C813 C 0.89279 0.30531 0.0278 0.0
C814 C 0.89738 0.24314 0.24111 0.0
C815 C 0.89666 0.26356 0.11442 0.0
C816 C 0.8959 0.22219 0.28419 0.0
C817 C 0.89376 0.19992 0.24883 0.0
C818 C 0.89689 0.24174 0.16224 0.0
C819 C 0.89402 0.19934 0.16992 0.0
C820 C 0.89744 0.26218 0.03557 0.0
C821 C 0.89273 0.30587 0.10671 0.0
N822 N 0.89544 0.21986 0.12953 0.0
N823 N 0.89453 0.28539 0.14711 0.0
H824 H 0.27943 0.39538 0.1826 0.0
H825 H 0.22131 0.39519 0.59557 0.0
H826 H 0.32045 0.39182 0.3872 0.0
H827 H 0.1804 0.39116 0.39087 0.0
H828 H 0.25801 0.39834 0.52009 0.0
H829 H 0.24274 0.3982 0.25813 0.0
C830 C 0.28076 0.39536 0.24311 0.0
C831 C 0.30304 0.39308 0.27832 0.0
C832 C 0.24093 0.39687 0.4919 0.0
C833 C 0.26129 0.39632 0.36514 0.0
C834 C 0.22001 0.39514 0.53506 0.0
C835 C 0.19775 0.39263 0.4998 0.0
C836 C 0.2395 0.39623 0.41306 0.0
C837 C 0.19714 0.39272 0.4209 0.0
C838 C 0.25984 0.39691 0.2863 0.0
C839 C 0.30368 0.3932 0.35722 0.0
N840 N 0.21763 0.39438 0.38043 0.0
N841 N 0.28319 0.39469 0.39774 0.0
H842 H 0.39575 0.72334 0.84703 0.0
H843 H 0.39508 0.77942 0.43118 0.0
H844 H 0.38982 0.6815 0.64465 0.0
H845 H 0.39275 0.82138 0.63402 0.0
H846 H 0.3978 0.74304 0.50836 0.0
H847 H 0.3992 0.75957 0.76951 0.0
C848 C 0.39531 0.72174 0.7866 0.0
C849 C 0.39218 0.69937 0.75261 0.0
C850 C 0.39681 0.76028 0.53575 0.0
C851 C 0.39619 0.74057 0.66355 0.0
C852 C 0.39534 0.78101 0.49162 0.0
C853 C 0.39337 0.80346 0.52592 0.0
C854 C 0.39649 0.76211 0.61455 0.0
C855 C 0.39384 0.80446 0.60476 0.0
C856 C 0.39724 0.74239 0.74228 0.0
C857 C 0.39184 0.69836 0.67375 0.0
N858 N 0.39524 0.78416 0.64617 0.0
N859 N 0.39372 0.71859 0.63215 0.0
H860 H 0.71858 0.61106 0.19324 0.0
H861 H 0.78039 0.60841 0.60085 0.0
H862 H 0.67921 0.60752 0.40129 0.0
H863 H 0.81923 0.616 0.39297 0.0
H864 H 0.74307 0.60535 0.52847 0.0
H865 H 0.75598 0.61019 0.26536 0.0
C866 C 0.71775 0.60999 0.25375 0.0
C867 C 0.69563 0.60953 0.29083 0.0
C868 C 0.75983 0.60762 0.49891 0.0
C869 C 0.73831 0.60856 0.37393 0.0
C870 C 0.78111 0.60932 0.5403 0.0
C871 C 0.803 0.61269 0.50332 0.0
C872 C 0.7605 0.60918 0.42006 0.0
C873 C 0.80283 0.6137 0.42442 0.0
C874 C 0.7391 0.60954 0.29503 0.0
C875 C 0.69574 0.60811 0.36973 0.0
N876 N 0.78201 0.61202 0.38573 0.0
N877 N 0.71664 0.60775 0.40837 0.0
H878 H 0.60973 0.22009 0.42772 0.0
H879 H 0.60894 0.27847 0.84015 0.0
H880 H 0.6144 0.17947 0.63324 0.0
H881 H 0.60996 0.31957 0.63526 0.0
H882 H 0.6076 0.24169 0.76492 0.0
H883 H 0.60677 0.25685 0.50267 0.0
C884 C 0.61008 0.21884 0.48824 0.0
C885 C 0.61249 0.19658 0.52375 0.0
C886 C 0.60802 0.25882 0.73659 0.0
C887 C 0.60903 0.23847 0.60996 0.0
C888 C 0.60869 0.27979 0.77963 0.0
C889 C 0.6098 0.30215 0.74425 0.0
C890 C 0.60832 0.26027 0.65772 0.0
C891 C 0.60943 0.30276 0.66534 0.0
C892 C 0.6084 0.23981 0.5311 0.0
C893 C 0.61276 0.19613 0.60274 0.0
N894 N 0.60882 0.28221 0.62496 0.0
N895 N 0.61111 0.21666 0.64285 0.0
H896 H 0.37198 0.07923 0.41976 0.0
H897 H 0.37181 0.1605 0.79042 0.0
H898 H 0.34193 0.1502 0.42911 0.0
H899 H 0.4033 0.09017 0.77984 0.0
H900 H 0.36114 0.15731 0.65777 0.0
H901 H 0.38263 0.08242 0.55249 0.0
C902 C 0.36726 0.09532 0.45013 0.0
C903 C 0.35598 0.11445 0.41351 0.0
C904 C 0.37056 0.14264 0.68422 0.0
C905 C 0.36855 0.11846 0.565 0.0
C906 C 0.37684 0.14455 0.7598 0.0
C907 C 0.38854 0.12562 0.79606 0.0
C908 C 0.37593 0.12157 0.6446 0.0
C909 C 0.39438 0.10525 0.75393 0.0
C910 C 0.37354 0.09723 0.52573 0.0
C911 C 0.35052 0.13499 0.45529 0.0
N912 N 0.38791 0.10371 0.68062 0.0
N913 N 0.35695 0.1365 0.52863 0.0
H914 H 0.07307 0.62452 0.61437 0.0
H915 H 0.15416 0.62789 0.24433 0.0
H916 H 0.13706 0.66714 0.59458 0.0
H917 H 0.08305 0.59803 0.24946 0.0
H918 H 0.14953 0.63987 0.37564 0.0
H919 H 0.07675 0.61358 0.48209 0.0
C920 C 0.08762 0.63197 0.58171 0.0
C921 C 0.10472 0.64684 0.61538 0.0
C922 C 0.135 0.63055 0.3482 0.0
C923 C 0.1095 0.6338 0.46455 0.0
C924 C 0.13775 0.62345 0.27355 0.0
C925 C 0.11901 0.61183 0.23616 0.0
C926 C 0.11338 0.62588 0.38585 0.0
C927 C 0.09799 0.60685 0.27634 0.0
C928 C 0.08984 0.62556 0.50637 0.0
C929 C 0.12337 0.65577 0.5707 0.0
N930 N 0.09573 0.61392 0.34889 0.0
N931 N 0.12542 0.64891 0.49782 0.0
H932 H 0.62856 0.91968 0.43314 0.0
H933 H 0.63663 0.83893 0.80463 0.0
H934 H 0.66662 0.85268 0.44433 0.0
H935 H 0.59968 0.90656 0.795 0.0
H936 H 0.64701 0.84319 0.67196 0.0
H937 H 0.61834 0.9156 0.56604 0.0
C938 C 0.63511 0.90431 0.46393 0.0
C939 C 0.64853 0.88654 0.42775 0.0
C940 C 0.63647 0.85703 0.69862 0.0
C941 C 0.63647 0.88145 0.5795 0.0
C942 C 0.63035 0.85448 0.77422 0.0
C943 C 0.61717 0.87236 0.81077 0.0
C944 C 0.62942 0.87766 0.65922 0.0
C945 C 0.60976 0.89229 0.76888 0.0
C946 C 0.6291 0.90188 0.53966 0.0
C947 C 0.65634 0.86687 0.47014 0.0
N948 N 0.61607 0.89445 0.69553 0.0
N949 N 0.65009 0.86479 0.54355 0.0
H950 H 0.90981 0.40824 0.24551 0.0
H951 H 0.85295 0.33962 0.59828 0.0
H952 H 0.84314 0.36955 0.23661 0.0
H953 H 0.92046 0.37686 0.60569 0.0
H954 H 0.84927 0.34991 0.46549 0.0
H955 H 0.91352 0.39783 0.37821 0.0
C956 C 0.89574 0.39788 0.27185 0.0
C957 C 0.87608 0.38984 0.23009 0.0
C958 C 0.86499 0.35569 0.49589 0.0
C959 C 0.88044 0.37739 0.38169 0.0
C960 C 0.86719 0.34964 0.57159 0.0
C961 C 0.88708 0.35732 0.61296 0.0
C962 C 0.88276 0.36965 0.46127 0.0
C963 C 0.90489 0.37045 0.57574 0.0
C964 C 0.89798 0.39175 0.34748 0.0
C965 C 0.85852 0.37625 0.26686 0.0
N966 N 0.90225 0.37632 0.50219 0.0
N967 N 0.86117 0.37036 0.3404 0.0
H968 H 0.37016 0.34221 0.48599 0.0
H969 H 0.37186 0.42345 0.85676 0.0
H970 H 0.40304 0.41188 0.49654 0.0
H971 H 0.34041 0.35309 0.84745 0.0
H972 H 0.38243 0.42007 0.72396 0.0
H973 H 0.35949 0.34564 0.61864 0.0
C974 C 0.37549 0.35806 0.5166 0.0
C975 C 0.3876 0.37674 0.48032 0.0
C976 C 0.37305 0.40543 0.75074 0.0
C977 C 0.37498 0.38106 0.6318 0.0
C978 C 0.36682 0.40746 0.82639 0.0
C979 C 0.35517 0.38856 0.86305 0.0
C980 C 0.36765 0.38432 0.71145 0.0
C981 C 0.3493 0.36814 0.82124 0.0
C982 C 0.36921 0.36011 0.59218 0.0
C983 C 0.39382 0.39699 0.52245 0.0
N984 N 0.3557 0.36651 0.74786 0.0
N985 N 0.38734 0.39867 0.59576 0.0
H986 H 0.35424 0.66537 0.18544 0.0
H987 H 0.4123 0.59796 0.53873 0.0
H988 H 0.42174 0.62814 0.17631 0.0
H989 H 0.34395 0.63365 0.54546 0.0
H990 H 0.41601 0.60848 0.40601 0.0
H991 H 0.35076 0.65492 0.31818 0.0
C992 C 0.36853 0.65532 0.21173 0.0
C993 C 0.38837 0.6477 0.16983 0.0
C994 C 0.4001 0.61386 0.43626 0.0
C995 C 0.38427 0.63521 0.32168 0.0
C996 C 0.39788 0.60768 0.51193 0.0
C997 C 0.37772 0.61482 0.55313 0.0
C998 C 0.38206 0.62742 0.40141 0.0
C999 C 0.35972 0.62763 0.51572 0.0
C1000 C 0.36643 0.64917 0.28743 0.0
C1001 C 0.40622 0.63451 0.20663 0.0
N1002 N 0.36237 0.63361 0.4422 0.0
N1003 N 0.4037 0.62858 0.28026 0.0
H1004 H 0.66756 0.63293 0.85929 0.0
H1005 H 0.59292 0.58106 0.51298 0.0
H1006 H 0.61994 0.57249 0.87666 0.0
H1007 H 0.62931 0.64907 0.50836 0.0
H1008 H 0.60461 0.57611 0.64405 0.0
H1009 H 0.65734 0.63657 0.72636 0.0
C1010 C 0.65539 0.62009 0.83466 0.0
C1011 C 0.64454 0.6024 0.87882 0.0
C1012 C 0.60987 0.59222 0.61465 0.0
C1013 C 0.63237 0.60676 0.72763 0.0
C1014 C 0.60303 0.59514 0.54006 0.0
C1015 C 0.61005 0.61557 0.50011 0.0
C1016 C 0.62406 0.60975 0.64927 0.0
C1017 C 0.62335 0.63315 0.53747 0.0
C1018 C 0.64932 0.62236 0.75909 0.0
C1019 C 0.62868 0.58638 0.84443 0.0
N1020 N 0.6301 0.62976 0.60988 0.0
N1021 N 0.62296 0.58903 0.77096 0.0
H1022 H 0.58891 0.40362 0.52684 0.0
H1023 H 0.64985 0.33879 0.17401 0.0
H1024 H 0.6579 0.36922 0.53552 0.0
H1025 H 0.57991 0.37126 0.16704 0.0
H1026 H 0.65298 0.34941 0.30661 0.0
H1027 H 0.58577 0.39298 0.39421 0.0
C1028 C 0.60358 0.39417 0.50047 0.0
C1029 C 0.62375 0.38738 0.54216 0.0
C1030 C 0.63685 0.35406 0.27636 0.0
C1031 C 0.62008 0.37468 0.39062 0.0
C1032 C 0.63498 0.34782 0.20077 0.0
C1033 C 0.61454 0.35406 0.15957 0.0
C1034 C 0.6182 0.36678 0.31108 0.0
C1035 C 0.59592 0.36597 0.19686 0.0
C1036 C 0.60169 0.3879 0.42487 0.0
C1037 C 0.64211 0.37493 0.50534 0.0
N1038 N 0.59825 0.37206 0.27034 0.0
N1039 N 0.63979 0.36889 0.43184 0.0
H1040 H 0.8377 0.64874 0.92902 0.0
H1041 H 0.90568 0.5918 0.28206 0.0
H1042 H 0.87741 0.58267 0.91952 0.0
H1043 H 0.86868 0.65946 0.28884 0.0
H1044 H 0.89563 0.58814 0.14921 0.0
H1045 H 0.84756 0.65222 0.06208 0.0
C1046 C 0.84816 0.63476 0.95533 0.0
C1047 C 0.85672 0.61536 0.91336 0.0
C1048 C 0.88986 0.60389 0.1795 0.0
C1049 C 0.8685 0.61945 0.06518 0.0
C1050 C 0.89576 0.60607 0.25519 0.0
C1051 C 0.88807 0.626 0.29632 0.0
C1052 C 0.87604 0.62172 0.14474 0.0
C1053 C 0.87508 0.64387 0.259 0.0
C1054 C 0.85398 0.63686 0.03112 0.0
C1055 C 0.87038 0.59787 0.94999 0.0
N1056 N 0.86935 0.64124 0.18543 0.0
N1057 N 0.87596 0.60038 0.0237 0.0
H1058 H 0.65574 0.13385 0.73532 0.0
H1059 H 0.57625 0.11989 0.10641 0.0
H1060 H 0.59082 0.09229 0.74509 0.0
H1061 H 0.6354 0.16905 0.08783 0.0
H1062 H 0.58124 0.10949 0.97429 0.0
H1063 H 0.64975 0.14543 0.86633 0.0
C1064 C 0.64048 0.1268 0.76552 0.0
C1065 C 0.62381 0.11199 0.72952 0.0
C1066 C 0.59296 0.12277 0.99875 0.0
C1067 C 0.61654 0.12557 0.8788 0.0
C1068 C 0.58997 0.12887 0.07401 0.0
C1069 C 0.6054 0.14539 0.10798 0.0
C1070 C 0.61169 0.13308 0.95728 0.0
C1071 C 0.62302 0.15633 0.06365 0.0
C1072 C 0.6369 0.13364 0.84001 0.0
C1073 C 0.60417 0.10364 0.7709 0.0
N1074 N 0.62586 0.1498 0.99076 0.0
N1075 N 0.60104 0.11059 0.84321 0.0
H1076 H 0.09501 0.41012 0.2822 0.0
H1077 H 0.16328 0.35283 0.92974 0.0
H1078 H 0.1329 0.34299 0.29098 0.0
H1079 H 0.12643 0.42055 0.92189 0.0
H1080 H 0.15287 0.34918 0.06245 0.0
H1081 H 0.10548 0.41381 0.14952 0.0
C1082 C 0.1052 0.39595 0.25583 0.0
C1083 C 0.11301 0.37617 0.29756 0.0
C1084 C 0.14721 0.36494 0.03197 0.0
C1085 C 0.12552 0.38049 0.146 0.0
C1086 C 0.15333 0.36712 0.95633 0.0
C1087 C 0.14578 0.38707 0.91485 0.0
C1088 C 0.13332 0.38278 0.06645 0.0
C1089 C 0.13272 0.40494 0.95192 0.0
C1090 C 0.11136 0.39816 0.18022 0.0
C1091 C 0.12639 0.35847 0.26076 0.0
N1092 N 0.12679 0.40232 0.02545 0.0
N1093 N 0.13232 0.3611 0.18724 0.0
H1094 H 0.42345 0.8738 0.10344 0.0
H1095 H 0.34233 0.86865 0.73254 0.0
H1096 H 0.3545 0.83935 0.09414 0.0
H1097 H 0.41054 0.9045 0.74322 0.0
H1098 H 0.3462 0.85813 0.86522 0.0
H1099 H 0.4196 0.88425 0.97067 0.0
C1100 C 0.40769 0.86808 0.07309 0.0
C1101 C 0.38932 0.8556 0.10977 0.0
C1102 C 0.36025 0.86847 0.83879 0.0
C1103 C 0.38451 0.86794 0.95814 0.0
C1104 C 0.35793 0.87466 0.76318 0.0
C1105 C 0.37608 0.88757 0.72691 0.0
C1106 C 0.38093 0.87514 0.87846 0.0
C1107 C 0.39605 0.89464 0.7691 0.0
C1108 C 0.40538 0.87424 0.99744 0.0
C1109 C 0.36915 0.84889 0.06794 0.0
N1110 N 0.398 0.88824 0.84242 0.0
N1111 N 0.36723 0.85523 0.99457 0.0
H1112 H 0.82986 0.87118 0.34909 0.0
H1113 H 0.91212 0.91246 1.00413 0.0
H1114 H 0.88311 0.92676 0.36448 0.0
H1115 H 0.86484 0.85157 0.99597 0.0
H1116 H 0.9008 0.91888 0.13497 0.0
H1117 H 0.84003 0.86587 0.21664 0.0
C1118 C 0.84331 0.88263 0.32414 0.0
C1119 C 0.85566 0.89944 0.36773 0.0
C1120 C 0.89303 0.90398 0.10486 0.0
C1121 C 0.86781 0.89309 0.21684 0.0
C1122 C 0.89967 0.90018 0.03035 0.0
C1123 C 0.88952 0.88137 0.98936 0.0
C1124 C 0.87595 0.88897 0.13852 0.0
C1125 C 0.87325 0.86617 0.02579 0.0
C1126 C 0.84933 0.8794 0.24877 0.0
C1127 C 0.87312 0.91362 0.3328 0.0
N1128 N 0.86685 0.8704 0.09814 0.0
N1129 N 0.87879 0.91002 0.2596 0.0
H1130 H 0.84287 0.13436 0.04065 0.0
H1131 H 0.92377 0.12888 0.66917 0.0
H1132 H 0.91117 0.09865 0.02982 0.0
H1133 H 0.85501 0.16372 0.67929 0.0
H1134 H 0.91999 0.11849 0.802 0.0
H1135 H 0.84667 0.14478 0.9079 0.0
C1136 C 0.85848 0.12836 1.00996 0.0
C1137 C 0.87668 0.11554 0.04618 0.0
C1138 C 0.90579 0.12858 0.77539 0.0
C1139 C 0.88145 0.12784 0.8946 0.0
C1140 C 0.90806 0.13469 0.69972 0.0
C1141 C 0.88971 0.14725 0.66329 0.0
C1142 C 0.88499 0.135 0.81492 0.0
C1143 C 0.86963 0.15411 0.70533 0.0
C1144 C 0.86076 0.1345 0.93432 0.0
C1145 C 0.89665 0.10846 1.00395 0.0
N1146 N 0.86775 0.1478 0.77873 0.0
N1147 N 0.89856 0.1148 0.93058 0.0
H1148 H 0.13066 0.15919 0.98596 0.0
H1149 H 0.1305 0.07787 0.35692 0.0
H1150 H 0.09932 0.0888 0.99658 0.0
H1151 H 0.16064 0.1488 0.34704 0.0
H1152 H 0.11992 0.08103 0.22411 0.0
H1153 H 0.14136 0.15594 0.11856 0.0
C1154 C 0.12567 0.14322 0.01658 0.0
C1155 C 0.11399 0.12428 0.98035 0.0
C1156 C 0.12901 0.09584 0.25078 0.0
C1157 C 0.12665 0.12017 0.13176 0.0
C1158 C 0.13526 0.09395 0.32642 0.0
C1159 C 0.14654 0.11307 0.36291 0.0
C1160 C 0.13403 0.11705 0.21135 0.0
C1161 C 0.15205 0.13359 0.32096 0.0
C1162 C 0.13197 0.14127 0.09214 0.0
C1163 C 0.1082 0.10388 0.02248 0.0
N1164 N 0.14564 0.13508 0.2476 0.0
N1165 N 0.1147 0.10231 0.09577 0.0
H1166 H 0.07589 0.87906 0.66854 0.0
H1167 H 0.15547 0.86548 0.03938 0.0
H1168 H 0.13543 0.83034 0.68667 0.0
H1169 H 0.09062 0.90715 0.0293 0.0
H1170 H 0.14951 0.85381 0.90847 0.0
H1171 H 0.08086 0.88952 0.8006 0.0
C1172 C 0.0897 0.87019 0.70083 0.0
C1173 C 0.10524 0.85377 0.66673 0.0
C1174 C 0.13667 0.86564 0.93469 0.0
C1175 C 0.11151 0.86616 0.81739 0.0
C1176 C 0.14023 0.87254 1.00914 0.0
C1177 C 0.12357 0.88741 0.04503 0.0
C1178 C 0.11634 0.87372 0.89584 0.0
C1179 C 0.10396 0.89576 1.00358 0.0
C1180 C 0.09268 0.87632 0.77606 0.0
C1181 C 0.12297 0.84298 0.71093 0.0
N1182 N 0.10084 0.88875 0.93132 0.0
N1183 N 0.12579 0.84954 0.7838 0.0
loop_
_geom_bond_atom_site_label_1
_geom_bond_atom_site_label_2
_geom_bond_distance
_geom_bond_site_symmetry_2
_ccdc_geom_bond_type
Dy0 O4 2.398 . S
Dy0 O5 2.491 . S
Dy0 O6 2.403 . S
Dy0 O7 2.664 . S
Dy0 O11 2.326 . S
Dy0 O15 2.310 . S
Dy0 O16 2.351 . S
C1 O12 1.185 . S
C1 O13 1.355 . S
C2 O4 1.185 . S
C2 O5 1.355 . S
Dy3 O7 2.310 . S
Dy3 O10 2.351 . S
Dy3 O12 2.398 1_554 S
Dy3 O13 2.491 1_554 S
Dy3 O14 2.403 . S
Dy3 O15 2.664 . S
Dy3 O17 2.326 . S
O4 Dy0 2.398 . S
O4 C2 1.185 . S
O5 Dy0 2.491 . S
O5 C2 1.355 . S
O6 Dy0 2.403 . S
O6 C8 1.254 . S
O7 Dy0 2.664 . S
O7 Dy3 2.310 . S
O7 C8 1.268 . S
C8 O6 1.254 . S
C8 O7 1.268 . S
C9 O14 1.254 . S
C9 O15 1.268 . S
O10 Dy3 2.351 . S
O10 C18 1.249 . S
O11 Dy0 2.326 . S
O11 C18 1.267 . S
O12 C1 1.185 . S
O12 Dy3 2.398 1_556 S
O13 C1 1.355 . S
O13 Dy3 2.491 1_556 S
O14 Dy3 2.403 . S
O14 C9 1.254 . S
O15 Dy0 2.310 . S
O15 Dy3 2.664 . S
O15 C9 1.268 . S
O16 Dy0 2.351 . S
O16 C19 1.249 . S
O17 Dy3 2.326 . S
O17 C19 1.267 . S
C18 O10 1.249 . S
C18 O11 1.267 . S
C19 O16 1.249 . S
C19 O17 1.267 . S
Dy20 O24 2.398 1_556 S
Dy20 O25 2.491 1_556 S
Dy20 O26 2.403 . S
Dy20 O27 2.664 . S
Dy20 O31 2.326 . S
Dy20 O35 2.310 . S
Dy20 O36 2.351 . S
C21 O32 1.185 . S
C21 O33 1.355 . S
C22 O24 1.185 . S
C22 O25 1.355 . S
Dy23 O27 2.310 . S
Dy23 O30 2.351 . S
Dy23 O32 2.398 . S
Dy23 O33 2.491 . S
Dy23 O34 2.403 . S
Dy23 O35 2.664 . S
Dy23 O37 2.326 . S
O24 Dy20 2.398 1_554 S
O24 C22 1.185 . S
O25 Dy20 2.491 1_554 S
O25 C22 1.355 . S
O26 Dy20 2.403 . S
O26 C28 1.254 . S
O27 Dy20 2.664 . S
O27 Dy23 2.310 . S
O27 C28 1.268 . S
C28 O26 1.254 . S
C28 O27 1.268 . S
C29 O34 1.254 . S
C29 O35 1.268 . S
O30 Dy23 2.351 . S
O30 C38 1.249 . S
O31 Dy20 2.326 . S
O31 C38 1.267 . S
O32 C21 1.185 . S
O32 Dy23 2.398 . S
O33 C21 1.355 . S
O33 Dy23 2.491 . S
O34 Dy23 2.403 . S
O34 C29 1.254 . S
O35 Dy20 2.310 . S
O35 Dy23 2.664 . S
O35 C29 1.268 . S
O36 Dy20 2.351 . S
O36 C39 1.249 . S
O37 Dy23 2.326 . S
O37 C39 1.267 . S
C38 O30 1.249 . S
C38 O31 1.267 . S
C39 O36 1.249 . S
C39 O37 1.267 . S
Dy40 O44 2.398 . S
Dy40 O45 2.491 . S
Dy40 O46 2.403 . S
Dy40 O47 2.664 . S
Dy40 O51 2.326 . S
Dy40 O55 2.310 . S
Dy40 O56 2.351 . S
C41 O52 1.185 . S
C41 O53 1.355 . S
C42 O44 1.185 . S
C42 O45 1.355 . S
Dy43 O47 2.310 . S
Dy43 O50 2.351 . S
Dy43 O52 2.398 1_554 S
Dy43 O53 2.491 1_554 S
Dy43 O54 2.403 . S
Dy43 O55 2.664 . S
Dy43 O57 2.326 . S
O44 Dy40 2.398 . S
O44 C42 1.185 . S
O45 Dy40 2.491 . S
O45 C42 1.355 . S
O46 Dy40 2.403 . S
O46 C48 1.254 . S
O47 Dy40 2.664 . S
O47 Dy43 2.310 . S
O47 C48 1.268 . S
C48 O46 1.254 . S
C48 O47 1.268 . S
C49 O54 1.254 . S
C49 O55 1.268 . S
O50 Dy43 2.351 . S
O50 C58 1.249 . S
O51 Dy40 2.326 . S
O51 C58 1.267 . S
O52 C41 1.185 . S
O52 Dy43 2.398 1_556 S
O53 C41 1.355 . S
O53 Dy43 2.491 1_556 S
O54 Dy43 2.403 . S
O54 C49 1.254 . S
O55 Dy40 2.310 . S
O55 Dy43 2.664 . S
O55 C49 1.268 . S
O56 Dy40 2.351 . S
O56 C59 1.249 . S
O57 Dy43 2.326 . S
O57 C59 1.267 . S
C58 O50 1.249 . S
C58 O51 1.267 . S
C59 O56 1.249 . S
C59 O57 1.267 . S
Dy60 O64 2.398 1_556 S
Dy60 O65 2.491 1_556 S
Dy60 O66 2.403 . S
Dy60 O67 2.664 . S
Dy60 O71 2.326 . S
Dy60 O75 2.310 . S
Dy60 O76 2.351 . S
C61 O72 1.185 . S
C61 O73 1.355 . S
C62 O64 1.185 . S
C62 O65 1.355 . S
Dy63 O67 2.310 . S
Dy63 O70 2.351 . S
Dy63 O72 2.398 . S
Dy63 O73 2.491 . S
Dy63 O74 2.403 . S
Dy63 O75 2.664 . S
Dy63 O77 2.326 . S
O64 Dy60 2.398 1_554 S
O64 C62 1.185 . S
O65 Dy60 2.491 1_554 S
O65 C62 1.355 . S
O66 Dy60 2.403 . S
O66 C68 1.254 . S
O67 Dy60 2.664 . S
O67 Dy63 2.310 . S
O67 C68 1.268 . S
C68 O66 1.254 . S
C68 O67 1.268 . S
C69 O74 1.254 . S
C69 O75 1.268 . S
O70 Dy63 2.351 . S
O70 C78 1.249 . S
O71 Dy60 2.326 . S
O71 C78 1.267 . S
O72 C61 1.185 . S
O72 Dy63 2.398 . S
O73 C61 1.355 . S
O73 Dy63 2.491 . S
O74 Dy63 2.403 . S
O74 C69 1.254 . S
O75 Dy60 2.310 . S
O75 Dy63 2.664 . S
O75 C69 1.268 . S
O76 Dy60 2.351 . S
O76 C79 1.249 . S
O77 Dy63 2.326 . S
O77 C79 1.267 . S
C78 O70 1.249 . S
C78 O71 1.267 . S
C79 O76 1.249 . S
C79 O77 1.267 . S
Dy80 O84 2.398 1_554 S
Dy80 O85 2.491 1_554 S
Dy80 O86 2.403 . S
Dy80 O87 2.664 . S
Dy80 O91 2.326 . S
Dy80 O95 2.310 . S
Dy80 O96 2.351 . S
C81 O92 1.185 . S
C81 O93 1.355 . S
C82 O84 1.185 . S
C82 O85 1.355 . S
Dy83 O87 2.310 . S
Dy83 O90 2.351 . S
Dy83 O92 2.398 . S
Dy83 O93 2.491 . S
Dy83 O94 2.403 . S
Dy83 O95 2.664 . S
Dy83 O97 2.326 . S
O84 Dy80 2.398 1_556 S
O84 C82 1.185 . S
O85 Dy80 2.491 1_556 S
O85 C82 1.355 . S
O86 Dy80 2.403 . S
O86 C88 1.254 . S
O87 Dy80 2.664 . S
O87 Dy83 2.310 . S
O87 C88 1.268 . S
C88 O86 1.254 . S
C88 O87 1.268 . S
C89 O94 1.254 . S
C89 O95 1.268 . S
O90 Dy83 2.351 . S
O90 C98 1.249 . S
O91 Dy80 2.326 . S
O91 C98 1.267 . S
O92 C81 1.185 . S
O92 Dy83 2.398 . S
O93 C81 1.355 . S
O93 Dy83 2.491 . S
O94 Dy83 2.403 . S
O94 C89 1.254 . S
O95 Dy80 2.310 . S
O95 Dy83 2.664 . S
O95 C89 1.268 . S
O96 Dy80 2.351 . S
O96 C99 1.249 . S
O97 Dy83 2.326 . S
O97 C99 1.267 . S
C98 O90 1.249 . S
C98 O91 1.267 . S
C99 O96 1.249 . S
C99 O97 1.267 . S
Dy100 O104 2.398 . S
Dy100 O105 2.491 . S
Dy100 O106 2.403 . S
Dy100 O107 2.664 . S
Dy100 O111 2.326 . S
Dy100 O115 2.310 . S
Dy100 O116 2.351 . S
C101 O112 1.185 . S
C101 O113 1.355 . S
C102 O104 1.185 . S
C102 O105 1.355 . S
Dy103 O107 2.310 . S
Dy103 O110 2.351 . S
Dy103 O112 2.398 1_556 S
Dy103 O113 2.491 1_556 S
Dy103 O114 2.403 . S
Dy103 O115 2.664 . S
Dy103 O117 2.326 . S
O104 Dy100 2.398 . S
O104 C102 1.185 . S
O105 Dy100 2.491 . S
O105 C102 1.355 . S
O106 Dy100 2.403 . S
O106 C108 1.254 . S
O107 Dy100 2.664 . S
O107 Dy103 2.310 . S
O107 C108 1.268 . S
C108 O106 1.254 . S
C108 O107 1.268 . S
C109 O114 1.254 . S
C109 O115 1.268 . S
O110 Dy103 2.351 . S
O110 C118 1.249 . S
O111 Dy100 2.326 . S
O111 C118 1.267 . S
O112 C101 1.185 . S
O112 Dy103 2.398 1_554 S
O113 C101 1.355 . S
O113 Dy103 2.491 1_554 S
O114 Dy103 2.403 . S
O114 C109 1.254 . S
O115 Dy100 2.310 . S
O115 Dy103 2.664 . S
O115 C109 1.268 . S
O116 Dy100 2.351 . S
O116 C119 1.249 . S
O117 Dy103 2.326 . S
O117 C119 1.267 . S
C118 O110 1.249 . S
C118 O111 1.267 . S
C119 O116 1.249 . S
C119 O117 1.267 . S
Dy120 O124 2.398 1_554 S
Dy120 O125 2.491 1_554 S
Dy120 O126 2.403 . S
Dy120 O127 2.664 . S
Dy120 O131 2.326 . S
Dy120 O135 2.310 . S
Dy120 O136 2.351 . S
C121 O132 1.185 . S
C121 O133 1.355 . S
C122 O124 1.185 . S
C122 O125 1.355 . S
Dy123 O127 2.310 . S
Dy123 O130 2.351 . S
Dy123 O132 2.398 . S
Dy123 O133 2.491 . S
Dy123 O134 2.403 . S
Dy123 O135 2.664 . S
Dy123 O137 2.326 . S
O124 Dy120 2.398 1_556 S
O124 C122 1.185 . S
O125 Dy120 2.491 1_556 S
O125 C122 1.355 . S
O126 Dy120 2.403 . S
O126 C128 1.254 . S
O127 Dy120 2.664 . S
O127 Dy123 2.310 . S
O127 C128 1.268 . S
C128 O126 1.254 . S
C128 O127 1.268 . S
C129 O134 1.254 . S
C129 O135 1.268 . S
O130 Dy123 2.351 . S
O130 C138 1.249 . S
O131 Dy120 2.326 . S
O131 C138 1.267 . S
O132 C121 1.185 . S
O132 Dy123 2.398 . S
O133 C121 1.355 . S
O133 Dy123 2.491 . S
O134 Dy123 2.403 . S
O134 C129 1.254 . S
O135 Dy120 2.310 . S
O135 Dy123 2.664 . S
O135 C129 1.268 . S
O136 Dy120 2.351 . S
O136 C139 1.249 . S
O137 Dy123 2.326 . S
O137 C139 1.267 . S
C138 O130 1.249 . S
C138 O131 1.267 . S
C139 O136 1.249 . S
C139 O137 1.267 . S
Dy140 O144 2.398 . S
Dy140 O145 2.491 . S
Dy140 O146 2.403 . S
Dy140 O147 2.664 . S
Dy140 O151 2.326 . S
Dy140 O155 2.310 . S
Dy140 O156 2.351 . S
C141 O152 1.185 . S
C141 O153 1.355 . S
C142 O144 1.185 . S
C142 O145 1.355 . S
Dy143 O147 2.310 . S
Dy143 O150 2.351 . S
Dy143 O152 2.398 1_556 S
Dy143 O153 2.491 1_556 S
Dy143 O154 2.403 . S
Dy143 O155 2.664 . S
Dy143 O157 2.326 . S
O144 Dy140 2.398 . S
O144 C142 1.185 . S
O145 Dy140 2.491 . S
O145 C142 1.355 . S
O146 Dy140 2.403 . S
O146 C148 1.254 . S
O147 Dy140 2.664 . S
O147 Dy143 2.310 . S
O147 C148 1.268 . S
C148 O146 1.254 . S
C148 O147 1.268 . S
C149 O154 1.254 . S
C149 O155 1.268 . S
O150 Dy143 2.351 . S
O150 C158 1.249 . S
O151 Dy140 2.326 . S
O151 C158 1.267 . S
O152 C141 1.185 . S
O152 Dy143 2.398 1_554 S
O153 C141 1.355 . S
O153 Dy143 2.491 1_554 S
O154 Dy143 2.403 . S
O154 C149 1.254 . S
O155 Dy140 2.310 . S
O155 Dy143 2.664 . S
O155 C149 1.268 . S
O156 Dy140 2.351 . S
O156 C159 1.249 . S
O157 Dy143 2.326 . S
O157 C159 1.267 . S
C158 O150 1.249 . S
C158 O151 1.267 . S
C159 O156 1.249 . S
C159 O157 1.267 . S
Dy160 O164 2.398 . S
Dy160 O165 2.491 . S
Dy160 O166 2.403 . S
Dy160 O167 2.664 . S
Dy160 O171 2.326 . S
Dy160 O175 2.310 . S
Dy160 O176 2.351 . S
C161 O172 1.185 . S
C161 O173 1.355 . S
C162 O164 1.185 . S
C162 O165 1.355 . S
Dy163 O167 2.310 . S
Dy163 O170 2.351 . S
Dy163 O172 2.398 . S
Dy163 O173 2.491 . S
Dy163 O174 2.403 . S
Dy163 O175 2.664 . S
Dy163 O177 2.326 . S
O164 Dy160 2.398 . S
O164 C162 1.185 . S
O165 Dy160 2.491 . S
O165 C162 1.355 . S
O166 Dy160 2.403 . S
O166 C168 1.254 . S
O167 Dy160 2.664 . S
O167 Dy163 2.310 . S
O167 C168 1.268 . S
C168 O166 1.254 . S
C168 O167 1.268 . S
C169 O174 1.254 . S
C169 O175 1.268 . S
O170 Dy163 2.351 . S
O170 C178 1.249 . S
O171 Dy160 2.326 . S
O171 C178 1.267 . S
O172 C161 1.185 . S
O172 Dy163 2.398 . S
O173 C161 1.355 . S
O173 Dy163 2.491 . S
O174 Dy163 2.403 . S
O174 C169 1.254 . S
O175 Dy160 2.310 . S
O175 Dy163 2.664 . S
O175 C169 1.268 . S
O176 Dy160 2.351 . S
O176 C179 1.249 . S
O177 Dy163 2.326 . S
O177 C179 1.267 . S
C178 O170 1.249 . S
C178 O171 1.267 . S
C179 O176 1.249 . S
C179 O177 1.267 . S
Dy180 O184 2.398 . S
Dy180 O185 2.491 . S
Dy180 O186 2.403 . S
Dy180 O187 2.664 . S
Dy180 O191 2.326 . S
Dy180 O195 2.310 . S
Dy180 O196 2.351 . S
C181 O192 1.185 . S
C181 O193 1.355 . S
C182 O184 1.185 . S
C182 O185 1.355 . S
Dy183 O187 2.310 . S
Dy183 O190 2.351 . S
Dy183 O192 2.398 . S
Dy183 O193 2.491 . S
Dy183 O194 2.403 . S
Dy183 O195 2.664 . S
Dy183 O197 2.326 . S
O184 Dy180 2.398 . S
O184 C182 1.185 . S
O185 Dy180 2.491 . S
O185 C182 1.355 . S
O186 Dy180 2.403 . S
O186 C188 1.254 . S
O187 Dy180 2.664 . S
O187 Dy183 2.310 . S
O187 C188 1.268 . S
C188 O186 1.254 . S
C188 O187 1.268 . S
C189 O194 1.254 . S
C189 O195 1.268 . S
O190 Dy183 2.351 . S
O190 C198 1.249 . S
O191 Dy180 2.326 . S
O191 C198 1.267 . S
O192 C181 1.185 . S
O192 Dy183 2.398 . S
O193 C181 1.355 . S
O193 Dy183 2.491 . S
O194 Dy183 2.403 . S
O194 C189 1.254 . S
O195 Dy180 2.310 . S
O195 Dy183 2.664 . S
O195 C189 1.268 . S
O196 Dy180 2.351 . S
O196 C199 1.249 . S
O197 Dy183 2.326 . S
O197 C199 1.267 . S
C198 O190 1.249 . S
C198 O191 1.267 . S
C199 O196 1.249 . S
C199 O197 1.267 . S
Dy200 O204 2.398 . S
Dy200 O205 2.491 . S
Dy200 O206 2.403 . S
Dy200 O207 2.664 . S
Dy200 O211 2.326 . S
Dy200 O215 2.310 . S
Dy200 O216 2.351 . S
C201 O212 1.185 . S
C201 O213 1.355 . S
C202 O204 1.185 . S
C202 O205 1.355 . S
Dy203 O207 2.310 . S
Dy203 O210 2.351 . S
Dy203 O212 2.398 . S
Dy203 O213 2.491 . S
Dy203 O214 2.403 . S
Dy203 O215 2.664 . S
Dy203 O217 2.326 . S
O204 Dy200 2.398 . S
O204 C202 1.185 . S
O205 Dy200 2.491 . S
O205 C202 1.355 . S
O206 Dy200 2.403 . S
O206 C208 1.254 . S
O207 Dy200 2.664 . S
O207 Dy203 2.310 . S
O207 C208 1.268 . S
C208 O206 1.254 . S
C208 O207 1.268 . S
C209 O214 1.254 . S
C209 O215 1.268 . S
O210 Dy203 2.351 . S
O210 C218 1.249 . S
O211 Dy200 2.326 . S
O211 C218 1.267 . S
O212 C201 1.185 . S
O212 Dy203 2.398 . S
O213 C201 1.355 . S
O213 Dy203 2.491 . S
O214 Dy203 2.403 . S
O214 C209 1.254 . S
O215 Dy200 2.310 . S
O215 Dy203 2.664 . S
O215 C209 1.268 . S
O216 Dy200 2.351 . S
O216 C219 1.249 . S
O217 Dy203 2.326 . S
O217 C219 1.267 . S
C218 O210 1.249 . S
C218 O211 1.267 . S
C219 O216 1.249 . S
C219 O217 1.267 . S
Dy220 O224 2.398 . S
Dy220 O225 2.491 . S
Dy220 O226 2.403 . S
Dy220 O227 2.664 . S
Dy220 O231 2.326 . S
Dy220 O235 2.310 . S
Dy220 O236 2.351 . S
C221 O232 1.185 . S
C221 O233 1.355 . S
C222 O224 1.185 . S
C222 O225 1.355 . S
Dy223 O227 2.310 . S
Dy223 O230 2.351 . S
Dy223 O232 2.398 . S
Dy223 O233 2.491 . S
Dy223 O234 2.403 . S
Dy223 O235 2.664 . S
Dy223 O237 2.326 . S
O224 Dy220 2.398 . S
O224 C222 1.185 . S
O225 Dy220 2.491 . S
O225 C222 1.355 . S
O226 Dy220 2.403 . S
O226 C228 1.254 . S
O227 Dy220 2.664 . S
O227 Dy223 2.310 . S
O227 C228 1.268 . S
C228 O226 1.254 . S
C228 O227 1.268 . S
C229 O234 1.254 . S
C229 O235 1.268 . S
O230 Dy223 2.351 . S
O230 C238 1.249 . S
O231 Dy220 2.326 . S
O231 C238 1.267 . S
O232 C221 1.185 . S
O232 Dy223 2.398 . S
O233 C221 1.355 . S
O233 Dy223 2.491 . S
O234 Dy223 2.403 . S
O234 C229 1.254 . S
O235 Dy220 2.310 . S
O235 Dy223 2.664 . S
O235 C229 1.268 . S
O236 Dy220 2.351 . S
O236 C239 1.249 . S
O237 Dy223 2.326 . S
O237 C239 1.267 . S
C238 O230 1.249 . S
C238 O231 1.267 . S
C239 O236 1.249 . S
C239 O237 1.267 . S
Dy240 O244 2.398 . S
Dy240 O245 2.491 . S
Dy240 O246 2.403 . S
Dy240 O247 2.664 . S
Dy240 O251 2.326 . S
Dy240 O255 2.310 . S
Dy240 O256 2.351 . S
C241 O252 1.185 . S
C241 O253 1.355 . S
C242 O244 1.185 . S
C242 O245 1.355 . S
Dy243 O247 2.310 . S
Dy243 O250 2.351 . S
Dy243 O252 2.398 . S
Dy243 O253 2.491 . S
Dy243 O254 2.403 . S
Dy243 O255 2.664 . S
Dy243 O257 2.326 . S
O244 Dy240 2.398 . S
O244 C242 1.185 . S
O245 Dy240 2.491 . S
O245 C242 1.355 . S
O246 Dy240 2.403 . S
O246 C248 1.254 . S
O247 Dy240 2.664 . S
O247 Dy243 2.310 . S
O247 C248 1.268 . S
C248 O246 1.254 . S
C248 O247 1.268 . S
C249 O254 1.254 . S
C249 O255 1.268 . S
O250 Dy243 2.351 . S
O250 C258 1.249 . S
O251 Dy240 2.326 . S
O251 C258 1.267 . S
O252 C241 1.185 . S
O252 Dy243 2.398 . S
O253 C241 1.355 . S
O253 Dy243 2.491 . S
O254 Dy243 2.403 . S
O254 C249 1.254 . S
O255 Dy240 2.310 . S
O255 Dy243 2.664 . S
O255 C249 1.268 . S
O256 Dy240 2.351 . S
O256 C259 1.249 . S
O257 Dy243 2.326 . S
O257 C259 1.267 . S
C258 O250 1.249 . S
C258 O251 1.267 . S
C259 O256 1.249 . S
C259 O257 1.267 . S
Dy260 O264 2.398 . S
Dy260 O265 2.491 . S
Dy260 O266 2.403 . S
Dy260 O267 2.664 . S
Dy260 O271 2.326 . S
Dy260 O275 2.310 . S
Dy260 O276 2.351 . S
C261 O272 1.185 . S
C261 O273 1.355 . S
C262 O264 1.185 . S
C262 O265 1.355 . S
Dy263 O267 2.310 . S
Dy263 O270 2.351 . S
Dy263 O272 2.398 . S
Dy263 O273 2.491 . S
Dy263 O274 2.403 . S
Dy263 O275 2.664 . S
Dy263 O277 2.326 . S
O264 Dy260 2.398 . S
O264 C262 1.185 . S
O265 Dy260 2.491 . S
O265 C262 1.355 . S
O266 Dy260 2.403 . S
O266 C268 1.254 . S
O267 Dy260 2.664 . S
O267 Dy263 2.310 . S
O267 C268 1.268 . S
C268 O266 1.254 . S
C268 O267 1.268 . S
C269 O274 1.254 . S
C269 O275 1.268 . S
O270 Dy263 2.351 . S
O270 C278 1.249 . S
O271 Dy260 2.326 . S
O271 C278 1.267 . S
O272 C261 1.185 . S
O272 Dy263 2.398 . S
O273 C261 1.355 . S
O273 Dy263 2.491 . S
O274 Dy263 2.403 . S
O274 C269 1.254 . S
O275 Dy260 2.310 . S
O275 Dy263 2.664 . S
O275 C269 1.268 . S
O276 Dy260 2.351 . S
O276 C279 1.249 . S
O277 Dy263 2.326 . S
O277 C279 1.267 . S
C278 O270 1.249 . S
C278 O271 1.267 . S
C279 O276 1.249 . S
C279 O277 1.267 . S
Dy280 O284 2.398 . S
Dy280 O285 2.491 . S
Dy280 O286 2.403 . S
Dy280 O287 2.664 . S
Dy280 O291 2.326 . S
Dy280 O295 2.310 . S
Dy280 O296 2.351 . S
C281 O292 1.185 . S
C281 O293 1.355 . S
C282 O284 1.185 . S
C282 O285 1.355 . S
Dy283 O287 2.310 . S
Dy283 O290 2.351 . S
Dy283 O292 2.398 . S
Dy283 O293 2.491 . S
Dy283 O294 2.403 . S
Dy283 O295 2.664 . S
Dy283 O297 2.326 . S
O284 Dy280 2.398 . S
O284 C282 1.185 . S
O285 Dy280 2.491 . S
O285 C282 1.355 . S
O286 Dy280 2.403 . S
O286 C288 1.254 . S
O287 Dy280 2.664 . S
O287 Dy283 2.310 . S
O287 C288 1.268 . S
C288 O286 1.254 . S
C288 O287 1.268 . S
C289 O294 1.254 . S
C289 O295 1.268 . S
O290 Dy283 2.351 . S
O290 C298 1.249 . S
O291 Dy280 2.326 . S
O291 C298 1.267 . S
O292 C281 1.185 . S
O292 Dy283 2.398 . S
O293 C281 1.355 . S
O293 Dy283 2.491 . S
O294 Dy283 2.403 . S
O294 C289 1.254 . S
O295 Dy280 2.310 . S
O295 Dy283 2.664 . S
O295 C289 1.268 . S
O296 Dy280 2.351 . S
O296 C299 1.249 . S
O297 Dy283 2.326 . S
O297 C299 1.267 . S
C298 O290 1.249 . S
C298 O291 1.267 . S
C299 O296 1.249 . S
C299 O297 1.267 . S
Dy300 O304 2.398 . S
Dy300 O305 2.491 . S
Dy300 O306 2.403 . S
Dy300 O307 2.664 . S
Dy300 O311 2.326 . S
Dy300 O315 2.310 . S
Dy300 O316 2.351 . S
C301 O312 1.185 . S
C301 O313 1.355 . S
C302 O304 1.185 . S
C302 O305 1.355 . S
Dy303 O307 2.310 . S
Dy303 O310 2.351 . S
Dy303 O312 2.398 . S
Dy303 O313 2.491 . S
Dy303 O314 2.403 . S
Dy303 O315 2.664 . S
Dy303 O317 2.326 . S
O304 Dy300 2.398 . S
O304 C302 1.185 . S
O305 Dy300 2.491 . S
O305 C302 1.355 . S
O306 Dy300 2.403 . S
O306 C308 1.254 . S
O307 Dy300 2.664 . S
O307 Dy303 2.310 . S
O307 C308 1.268 . S
C308 O306 1.254 . S
C308 O307 1.268 . S
C309 O314 1.254 . S
C309 O315 1.268 . S
O310 Dy303 2.351 . S
O310 C318 1.249 . S
O311 Dy300 2.326 . S
O311 C318 1.267 . S
O312 C301 1.185 . S
O312 Dy303 2.398 . S
O313 C301 1.355 . S
O313 Dy303 2.491 . S
O314 Dy303 2.403 . S
O314 C309 1.254 . S
O315 Dy300 2.310 . S
O315 Dy303 2.664 . S
O315 C309 1.268 . S
O316 Dy300 2.351 . S
O316 C319 1.249 . S
O317 Dy303 2.326 . S
O317 C319 1.267 . S
C318 O310 1.249 . S
C318 O311 1.267 . S
C319 O316 1.249 . S
C319 O317 1.267 . S
H320 C326 0.930 . S
H321 C330 0.930 . S
H322 C335 0.929 . S
H323 C333 0.929 . S
H324 C328 0.929 . S
H325 C334 0.929 . S
C326 H320 0.930 . S
C326 C327 1.367 . S
C326 C334 1.378 . S
C327 C326 1.367 . S
C327 C335 1.433 . S
C328 H324 0.929 . S
C328 C330 1.378 . S
C328 C332 1.350 . S
C329 C332 1.463 1_565 S
C329 C334 1.350 . S
C329 N337 1.427 . S
C330 H321 0.930 . S
C330 C328 1.378 . S
C330 C331 1.367 . S
C331 C330 1.367 . S
C331 C333 1.433 . S
C332 C328 1.350 . S
C332 C329 1.463 1_545 S
C332 N336 1.427 . S
C333 H323 0.929 . S
C333 C331 1.433 . S
C333 N336 1.384 . S
C334 H325 0.929 . S
C334 C326 1.378 . S
C334 C329 1.350 . S
C335 H322 0.929 . S
C335 C327 1.433 . S
C335 N337 1.384 . S
N336 C332 1.427 . S
N336 C333 1.384 . S
N337 C329 1.427 . S
N337 C335 1.384 . S
H338 C344 0.930 . S
H339 C348 0.930 . S
H340 C353 0.929 . S
H341 C351 0.929 . S
H342 C346 0.929 1_655 S
H343 C352 0.929 . S
C344 H338 0.930 . S
C344 C345 1.367 . S
C344 C352 1.378 . S
C345 C344 1.367 . S
C345 C353 1.433 . S
C346 H342 0.929 1_455 S
C346 C348 1.378 . S
C346 C350 1.350 . S
C347 C350 1.463 1_655 S
C347 C352 1.350 . S
C347 N355 1.427 . S
C348 H339 0.930 . S
C348 C346 1.378 . S
C348 C349 1.367 . S
C349 C348 1.367 . S
C349 C351 1.433 . S
C350 C346 1.350 . S
C350 C347 1.463 1_455 S
C350 N354 1.427 . S
C351 H341 0.929 . S
C351 C349 1.433 . S
C351 N354 1.384 . S
C352 H343 0.929 . S
C352 C344 1.378 . S
C352 C347 1.350 . S
C353 H340 0.929 . S
C353 C345 1.433 . S
C353 N355 1.384 . S
N354 C350 1.427 . S
N354 C351 1.384 . S
N355 C347 1.427 . S
N355 C353 1.384 . S
H356 C362 0.930 . S
H357 C366 0.930 . S
H358 C371 0.929 . S
H359 C369 0.929 . S
H360 C364 0.929 . S
H361 C370 0.929 . S
C362 H356 0.930 . S
C362 C363 1.367 . S
C362 C370 1.378 . S
C363 C362 1.367 . S
C363 C371 1.433 . S
C364 H360 0.929 . S
C364 C366 1.378 . S
C364 C368 1.350 . S
C365 C368 1.463 1_565 S
C365 C370 1.350 . S
C365 N373 1.427 . S
C366 H357 0.930 . S
C366 C364 1.378 . S
C366 C367 1.367 . S
C367 C366 1.367 . S
C367 C369 1.433 . S
C368 C364 1.350 . S
C368 C365 1.463 1_545 S
C368 N372 1.427 . S
C369 H359 0.929 . S
C369 C367 1.433 . S
C369 N372 1.384 . S
C370 H361 0.929 . S
C370 C362 1.378 . S
C370 C365 1.350 . S
C371 H358 0.929 . S
C371 C363 1.433 . S
C371 N373 1.384 . S
N372 C368 1.427 . S
N372 C369 1.384 . S
N373 C365 1.427 . S
N373 C371 1.384 . S
H374 C380 0.930 . S
H375 C384 0.930 . S
H376 C389 0.929 . S
H377 C387 0.929 . S
H378 C382 0.929 . S
H379 C388 0.929 . S
C380 H374 0.930 . S
C380 C381 1.367 . S
C380 C388 1.378 . S
C381 C380 1.367 . S
C381 C389 1.433 . S
C382 H378 0.929 . S
C382 C384 1.378 . S
C382 C386 1.350 . S
C383 C386 1.463 1_655 S
C383 C388 1.350 . S
C383 N391 1.427 . S
C384 H375 0.930 . S
C384 C382 1.378 . S
C384 C385 1.367 . S
C385 C384 1.367 . S
C385 C387 1.433 . S
C386 C382 1.350 . S
C386 C383 1.463 1_455 S
C386 N390 1.427 . S
C387 H377 0.929 . S
C387 C385 1.433 . S
C387 N390 1.384 . S
C388 H379 0.929 . S
C388 C380 1.378 . S
C388 C383 1.350 . S
C389 H376 0.929 . S
C389 C381 1.433 . S
C389 N391 1.384 . S
N390 C386 1.427 . S
N390 C387 1.384 . S
N391 C383 1.427 . S
N391 C389 1.384 . S
H392 C398 0.930 1_556 S
H393 C402 0.930 . S
H394 C407 0.929 . S
H395 C405 0.929 . S
H396 C400 0.929 . S
H397 C406 0.923 1_556 S
C398 H392 0.930 1_554 S
C398 C399 1.367 . S
C398 C406 1.380 . S
C399 C398 1.367 . S
C399 C407 1.433 . S
C400 H396 0.929 . S
C400 C402 1.378 . S
C400 C404 1.350 . S
C401 C404 1.463 . S
C401 C406 1.354 . S
C401 N409 1.427 . S
C402 H393 0.930 . S
C402 C400 1.378 . S
C402 C403 1.367 1_554 S
C403 C402 1.367 1_556 S
C403 C405 1.433 . S
C404 C400 1.350 . S
C404 C401 1.463 . S
C404 N408 1.427 1_554 S
C405 H395 0.929 . S
C405 C403 1.433 . S
C405 N408 1.384 . S
C406 H397 0.923 1_554 S
C406 C398 1.380 . S
C406 C401 1.354 . S
C407 H394 0.929 . S
C407 C399 1.433 . S
C407 N409 1.384 . S
N408 C404 1.427 1_556 S
N408 C405 1.384 . S
N409 C401 1.427 . S
N409 C407 1.384 . S
H410 C416 0.930 . S
H411 C420 0.930 . S
H412 C425 0.929 . S
H413 C423 0.929 . S
H414 C418 0.929 . S
H415 C424 0.929 . S
C416 H410 0.930 . S
C416 C417 1.367 . S
C416 C424 1.378 . S
C417 C416 1.367 . S
C417 C425 1.433 1_554 S
C418 H414 0.929 . S
C418 C420 1.378 . S
C418 C422 1.350 . S
C419 C422 1.463 . S
C419 C424 1.350 1_556 S
C419 N427 1.427 . S
C420 H411 0.930 . S
C420 C418 1.378 . S
C420 C421 1.367 . S
C421 C420 1.367 . S
C421 C423 1.433 . S
C422 C418 1.350 . S
C422 C419 1.463 . S
C422 N426 1.427 . S
C423 H413 0.929 . S
C423 C421 1.433 . S
C423 N426 1.384 . S
C424 H415 0.929 . S
C424 C416 1.378 . S
C424 C419 1.350 1_554 S
C425 H412 0.929 . S
C425 C417 1.433 1_556 S
C425 N427 1.384 . S
N426 C422 1.427 . S
N426 C423 1.384 . S
N427 C419 1.427 . S
N427 C425 1.384 . S
H428 C434 0.930 1_556 S
H429 C438 0.930 . S
H430 C443 0.929 . S
H431 C441 0.929 . S
H432 C436 0.929 . S
H433 C442 0.929 . S
C434 H428 0.930 1_554 S
C434 C435 1.367 . S
C434 C442 1.378 1_554 S
C435 C434 1.367 . S
C435 C443 1.433 . S
C436 H432 0.929 . S
C436 C438 1.378 . S
C436 C440 1.350 . S
C437 C440 1.463 . S
C437 C442 1.350 1_554 S
C437 N445 1.427 . S
C438 H429 0.930 . S
C438 C436 1.378 . S
C438 C439 1.367 1_554 S
C439 C438 1.367 1_556 S
C439 C441 1.433 . S
C440 C436 1.350 . S
C440 C437 1.463 . S
C440 N444 1.427 1_554 S
C441 H431 0.929 . S
C441 C439 1.433 . S
C441 N444 1.384 . S
C442 H433 0.929 . S
C442 C434 1.378 1_556 S
C442 C437 1.350 1_556 S
C443 H430 0.929 . S
C443 C435 1.433 . S
C443 N445 1.384 . S
N444 C440 1.427 1_556 S
N444 C441 1.384 . S
N445 C437 1.427 . S
N445 C443 1.384 . S
H446 C452 0.930 . S
H447 C456 0.930 1_554 S
H448 C461 0.929 . S
H449 C459 0.929 . S
H450 C454 0.929 . S
H451 C460 0.929 . S
C452 H446 0.930 . S
C452 C453 1.367 1_556 S
C452 C460 1.378 . S
C453 C452 1.367 1_554 S
C453 C461 1.433 . S
C454 H450 0.929 . S
C454 C456 1.378 1_554 S
C454 C458 1.350 1_554 S
C455 C458 1.463 . S
C455 C460 1.350 . S
C455 N463 1.427 1_556 S
C456 H447 0.930 1_556 S
C456 C454 1.378 1_556 S
C456 C457 1.367 . S
C457 C456 1.367 . S
C457 C459 1.433 . S
C458 C454 1.350 1_556 S
C458 C455 1.463 . S
C458 N462 1.427 . S
C459 H449 0.929 . S
C459 C457 1.433 . S
C459 N462 1.384 . S
C460 H451 0.929 . S
C460 C452 1.378 . S
C460 C455 1.350 . S
C461 H448 0.929 . S
C461 C453 1.433 . S
C461 N463 1.384 . S
N462 C458 1.427 . S
N462 C459 1.384 . S
N463 C455 1.427 1_554 S
N463 C461 1.384 . S
H464 C470 0.930 . S
H465 C474 0.930 . S
H466 C479 0.929 . S
H467 C477 0.929 . S
H468 C472 0.929 . S
H469 C478 0.929 . S
C470 H464 0.930 . S
C470 C471 1.367 . S
C470 C478 1.378 . S
C471 C470 1.367 . S
C471 C479 1.433 . S
C472 H468 0.929 . S
C472 C474 1.378 . S
C472 C476 1.350 . S
C473 C476 1.463 . S
C473 C478 1.350 . S
C473 N481 1.427 . S
C474 H465 0.930 . S
C474 C472 1.378 . S
C474 C475 1.367 . S
C475 C474 1.367 . S
C475 C477 1.433 . S
C476 C472 1.350 . S
C476 C473 1.463 . S
C476 N480 1.427 . S
C477 H467 0.929 . S
C477 C475 1.433 . S
C477 N480 1.384 . S
C478 H469 0.929 . S
C478 C470 1.378 . S
C478 C473 1.350 . S
C479 H466 0.929 . S
C479 C471 1.433 . S
C479 N481 1.384 . S
N480 C476 1.427 . S
N480 C477 1.384 . S
N481 C473 1.427 . S
N481 C479 1.384 . S
H482 C488 0.930 . S
H483 C492 0.930 . S
H484 C497 0.929 . S
H485 C495 0.929 . S
H486 C490 0.929 . S
H487 C496 0.929 . S
C488 H482 0.930 . S
C488 C489 1.367 . S
C488 C496 1.378 . S
C489 C488 1.367 . S
C489 C497 1.433 . S
C490 H486 0.929 . S
C490 C492 1.378 . S
C490 C494 1.350 . S
C491 C494 1.463 . S
C491 C496 1.350 . S
C491 N499 1.427 . S
C492 H483 0.930 . S
C492 C490 1.378 . S
C492 C493 1.367 . S
C493 C492 1.367 . S
C493 C495 1.433 . S
C494 C490 1.350 . S
C494 C491 1.463 . S
C494 N498 1.427 . S
C495 H485 0.929 . S
C495 C493 1.433 . S
C495 N498 1.384 . S
C496 H487 0.929 . S
C496 C488 1.378 . S
C496 C491 1.350 . S
C497 H484 0.929 . S
C497 C489 1.433 . S
C497 N499 1.384 . S
N498 C494 1.427 . S
N498 C495 1.384 . S
N499 C491 1.427 . S
N499 C497 1.384 . S
H500 C506 0.930 . S
H501 C510 0.930 . S
H502 C515 0.929 . S
H503 C513 0.929 . S
H504 C508 0.929 . S
H505 C514 0.929 . S
C506 H500 0.930 . S
C506 C507 1.367 . S
C506 C514 1.378 . S
C507 C506 1.367 . S
C507 C515 1.433 . S
C508 H504 0.929 . S
C508 C510 1.378 . S
C508 C512 1.350 . S
C509 C512 1.463 . S
C509 C514 1.350 . S
C509 N517 1.427 . S
C510 H501 0.930 . S
C510 C508 1.378 . S
C510 C511 1.367 . S
C511 C510 1.367 . S
C511 C513 1.433 . S
C512 C508 1.350 . S
C512 C509 1.463 . S
C512 N516 1.427 . S
C513 H503 0.929 . S
C513 C511 1.433 . S
C513 N516 1.384 . S
C514 H505 0.929 . S
C514 C506 1.378 . S
C514 C509 1.350 . S
C515 H502 0.929 . S
C515 C507 1.433 . S
C515 N517 1.384 . S
N516 C512 1.427 . S
N516 C513 1.384 . S
N517 C509 1.427 . S
N517 C515 1.384 . S
H518 C524 0.930 . S
H519 C528 0.930 . S
H520 C533 0.929 . S
H521 C531 0.929 . S
H522 C526 0.929 . S
H523 C532 0.929 . S
C524 H518 0.930 . S
C524 C525 1.367 . S
C524 C532 1.378 . S
C525 C524 1.367 . S
C525 C533 1.433 . S
C526 H522 0.929 . S
C526 C528 1.378 . S
C526 C530 1.350 . S
C527 C530 1.463 . S
C527 C532 1.350 . S
C527 N535 1.427 . S
C528 H519 0.930 . S
C528 C526 1.378 . S
C528 C529 1.367 . S
C529 C528 1.367 . S
C529 C531 1.433 . S
C530 C526 1.350 . S
C530 C527 1.463 . S
C530 N534 1.427 . S
C531 H521 0.929 . S
C531 C529 1.433 . S
C531 N534 1.384 . S
C532 H523 0.929 . S
C532 C524 1.378 . S
C532 C527 1.350 . S
C533 H520 0.929 . S
C533 C525 1.433 . S
C533 N535 1.384 . S
N534 C530 1.427 . S
N534 C531 1.384 . S
N535 C527 1.427 . S
N535 C533 1.384 . S
H536 C542 0.930 . S
H537 C546 0.930 . S
H538 C551 0.929 . S
H539 C549 0.929 . S
H540 C544 0.929 . S
H541 C550 0.929 1_545 S
C542 H536 0.930 . S
C542 C543 1.367 . S
C542 C550 1.378 . S
C543 C542 1.367 . S
C543 C551 1.433 . S
C544 H540 0.929 . S
C544 C546 1.378 . S
C544 C548 1.350 . S
C545 C548 1.463 1_565 S
C545 C550 1.350 . S
C545 N553 1.427 . S
C546 H537 0.930 . S
C546 C544 1.378 . S
C546 C547 1.367 . S
C547 C546 1.367 . S
C547 C549 1.433 . S
C548 C544 1.350 . S
C548 C545 1.463 1_545 S
C548 N552 1.427 . S
C549 H539 0.929 . S
C549 C547 1.433 . S
C549 N552 1.384 . S
C550 H541 0.929 1_565 S
C550 C542 1.378 . S
C550 C545 1.350 . S
C551 H538 0.929 . S
C551 C543 1.433 . S
C551 N553 1.384 . S
N552 C548 1.427 . S
N552 C549 1.384 . S
N553 C545 1.427 . S
N553 C551 1.384 . S
H554 C560 0.930 . S
H555 C564 0.930 . S
H556 C569 0.929 . S
H557 C567 0.929 . S
H558 C562 0.929 1_455 S
H559 C568 0.929 . S
C560 H554 0.930 . S
C560 C561 1.367 . S
C560 C568 1.378 . S
C561 C560 1.367 . S
C561 C569 1.433 . S
C562 H558 0.929 1_655 S
C562 C564 1.378 . S
C562 C566 1.350 . S
C563 C566 1.463 1_455 S
C563 C568 1.350 . S
C563 N571 1.427 . S
C564 H555 0.930 . S
C564 C562 1.378 . S
C564 C565 1.367 . S
C565 C564 1.367 . S
C565 C567 1.433 . S
C566 C562 1.350 . S
C566 C563 1.463 1_655 S
C566 N570 1.427 . S
C567 H557 0.929 . S
C567 C565 1.433 . S
C567 N570 1.384 . S
C568 H559 0.929 . S
C568 C560 1.378 . S
C568 C563 1.350 . S
C569 H556 0.929 . S
C569 C561 1.433 . S
C569 N571 1.384 . S
N570 C566 1.427 . S
N570 C567 1.384 . S
N571 C563 1.427 . S
N571 C569 1.384 . S
H572 C578 0.930 . S
H573 C582 0.930 . S
H574 C587 0.929 . S
H575 C585 0.929 . S
H576 C580 0.943 . S
H577 C586 0.929 . S
C578 H572 0.930 . S
C578 C579 1.367 . S
C578 C586 1.378 . S
C579 C578 1.367 . S
C579 C587 1.433 . S
C580 H576 0.943 . S
C580 C582 1.378 . S
C580 C584 1.350 . S
C581 C584 1.463 1_565 S
C581 C586 1.350 . S
C581 N589 1.427 . S
C582 H573 0.930 . S
C582 C580 1.378 . S
C582 C583 1.367 . S
C583 C582 1.367 . S
C583 C585 1.433 . S
C584 C580 1.350 . S
C584 C581 1.463 1_545 S
C584 N588 1.427 . S
C585 H575 0.929 . S
C585 C583 1.433 . S
C585 N588 1.384 . S
C586 H577 0.929 . S
C586 C578 1.378 . S
C586 C581 1.350 . S
C587 H574 0.929 . S
C587 C579 1.433 . S
C587 N589 1.384 . S
N588 C584 1.427 . S
N588 C585 1.384 . S
N589 C581 1.427 . S
N589 C587 1.384 . S
H590 C596 0.930 . S
H591 C600 0.930 . S
H592 C605 0.929 . S
H593 C603 0.929 . S
H594 C598 0.929 . S
H595 C604 0.929 . S
C596 H590 0.930 . S
C596 C597 1.367 . S
C596 C604 1.378 . S
C597 C596 1.367 . S
C597 C605 1.433 . S
C598 H594 0.929 . S
C598 C600 1.378 . S
C598 C602 1.350 . S
C599 C602 1.463 1_455 S
C599 C604 1.350 . S
C599 N607 1.427 . S
C600 H591 0.930 . S
C600 C598 1.378 . S
C600 C601 1.367 . S
C601 C600 1.367 . S
C601 C603 1.433 . S
C602 C598 1.350 . S
C602 C599 1.463 1_655 S
C602 N606 1.427 . S
C603 H593 0.929 . S
C603 C601 1.433 . S
C603 N606 1.384 . S
C604 H595 0.929 . S
C604 C596 1.378 . S
C604 C599 1.350 . S
C605 H592 0.929 . S
C605 C597 1.433 . S
C605 N607 1.384 . S
N606 C602 1.427 . S
N606 C603 1.384 . S
N607 C599 1.427 . S
N607 C605 1.384 . S
H608 C614 0.930 . S
H609 C618 0.930 . S
H610 C623 0.929 . S
H611 C621 0.929 . S
H612 C616 0.929 . S
H613 C622 0.929 . S
C614 H608 0.930 . S
C614 C615 1.367 . S
C614 C622 1.378 . S
C615 C614 1.367 . S
C615 C623 1.433 . S
C616 H612 0.929 . S
C616 C618 1.378 . S
C616 C620 1.350 . S
C617 C620 1.463 . S
C617 C622 1.350 . S
C617 N625 1.427 . S
C618 H609 0.930 . S
C618 C616 1.378 . S
C618 C619 1.367 . S
C619 C618 1.367 . S
C619 C621 1.433 . S
C620 C616 1.350 . S
C620 C617 1.463 . S
C620 N624 1.427 . S
C621 H611 0.929 . S
C621 C619 1.433 . S
C621 N624 1.384 . S
C622 H613 0.929 . S
C622 C614 1.378 . S
C622 C617 1.350 . S
C623 H610 0.929 . S
C623 C615 1.433 . S
C623 N625 1.384 . S
N624 C620 1.427 . S
N624 C621 1.384 . S
N625 C617 1.427 . S
N625 C623 1.384 . S
H626 C632 0.930 . S
H627 C636 0.930 . S
H628 C641 0.929 . S
H629 C639 0.929 . S
H630 C634 0.929 . S
H631 C640 0.929 . S
C632 H626 0.930 . S
C632 C633 1.367 . S
C632 C640 1.378 . S
C633 C632 1.367 . S
C633 C641 1.433 . S
C634 H630 0.929 . S
C634 C636 1.378 . S
C634 C638 1.350 . S
C635 C638 1.463 . S
C635 C640 1.350 . S
C635 N643 1.427 . S
C636 H627 0.930 . S
C636 C634 1.378 . S
C636 C637 1.367 . S
C637 C636 1.367 . S
C637 C639 1.433 . S
C638 C634 1.350 . S
C638 C635 1.463 . S
C638 N642 1.427 . S
C639 H629 0.929 . S
C639 C637 1.433 . S
C639 N642 1.384 . S
C640 H631 0.929 . S
C640 C632 1.378 . S
C640 C635 1.350 . S
C641 H628 0.929 . S
C641 C633 1.433 . S
C641 N643 1.384 . S
N642 C638 1.427 . S
N642 C639 1.384 . S
N643 C635 1.427 . S
N643 C641 1.384 . S
H644 C650 0.930 . S
H645 C654 0.930 . S
H646 C659 0.929 . S
H647 C657 0.929 . S
H648 C652 0.929 . S
H649 C658 0.929 . S
C650 H644 0.930 . S
C650 C651 1.367 . S
C650 C658 1.378 . S
C651 C650 1.367 . S
C651 C659 1.433 . S
C652 H648 0.929 . S
C652 C654 1.378 . S
C652 C656 1.350 . S
C653 C656 1.463 . S
C653 C658 1.350 . S
C653 N661 1.427 . S
C654 H645 0.930 . S
C654 C652 1.378 . S
C654 C655 1.367 . S
C655 C654 1.367 . S
C655 C657 1.433 . S
C656 C652 1.350 . S
C656 C653 1.463 . S
C656 N660 1.427 . S
C657 H647 0.929 . S
C657 C655 1.433 . S
C657 N660 1.384 . S
C658 H649 0.929 . S
C658 C650 1.378 . S
C658 C653 1.350 . S
C659 H646 0.929 . S
C659 C651 1.433 . S
C659 N661 1.384 . S
N660 C656 1.427 . S
N660 C657 1.384 . S
N661 C653 1.427 . S
N661 C659 1.384 . S
H662 C668 0.930 . S
H663 C672 0.930 . S
H664 C677 0.929 . S
H665 C675 0.929 . S
H666 C670 0.929 . S
H667 C676 0.929 . S
C668 H662 0.930 . S
C668 C669 1.367 . S
C668 C676 1.378 . S
C669 C668 1.367 . S
C669 C677 1.433 . S
C670 H666 0.929 . S
C670 C672 1.378 . S
C670 C674 1.350 . S
C671 C674 1.463 . S
C671 C676 1.350 . S
C671 N679 1.427 . S
C672 H663 0.930 . S
C672 C670 1.378 . S
C672 C673 1.367 . S
C673 C672 1.367 . S
C673 C675 1.433 . S
C674 C670 1.350 . S
C674 C671 1.463 . S
C674 N678 1.427 . S
C675 H665 0.929 . S
C675 C673 1.433 . S
C675 N678 1.384 . S
C676 H667 0.929 . S
C676 C668 1.378 . S
C676 C671 1.350 . S
C677 H664 0.929 . S
C677 C669 1.433 . S
C677 N679 1.384 . S
N678 C674 1.427 . S
N678 C675 1.384 . S
N679 C671 1.427 . S
N679 C677 1.384 . S
H680 C686 0.930 . S
H681 C690 0.930 . S
H682 C695 0.929 . S
H683 C693 0.929 . S
H684 C688 0.929 . S
H685 C694 0.929 . S
C686 H680 0.930 . S
C686 C687 1.367 . S
C686 C694 1.378 . S
C687 C686 1.367 . S
C687 C695 1.433 . S
C688 H684 0.929 . S
C688 C690 1.378 . S
C688 C692 1.350 . S
C689 C692 1.463 . S
C689 C694 1.350 . S
C689 N697 1.427 . S
C690 H681 0.930 . S
C690 C688 1.378 . S
C690 C691 1.367 . S
C691 C690 1.367 . S
C691 C693 1.433 . S
C692 C688 1.350 . S
C692 C689 1.463 . S
C692 N696 1.427 . S
C693 H683 0.929 . S
C693 C691 1.433 . S
C693 N696 1.384 . S
C694 H685 0.929 . S
C694 C686 1.378 . S
C694 C689 1.350 . S
C695 H682 0.929 . S
C695 C687 1.433 . S
C695 N697 1.384 . S
N696 C692 1.427 . S
N696 C693 1.384 . S
N697 C689 1.427 . S
N697 C695 1.384 . S
H698 C704 0.930 . S
H699 C708 0.930 . S
H700 C713 0.929 . S
H701 C711 0.929 . S
H702 C706 0.929 . S
H703 C712 0.929 . S
C704 H698 0.930 . S
C704 C705 1.367 . S
C704 C712 1.378 . S
C705 C704 1.367 . S
C705 C713 1.433 . S
C706 H702 0.929 . S
C706 C708 1.378 . S
C706 C710 1.350 . S
C707 C710 1.463 . S
C707 C712 1.350 . S
C707 N715 1.427 . S
C708 H699 0.930 . S
C708 C706 1.378 . S
C708 C709 1.367 . S
C709 C708 1.367 . S
C709 C711 1.433 . S
C710 C706 1.350 . S
C710 C707 1.463 . S
C710 N714 1.427 . S
C711 H701 0.929 . S
C711 C709 1.433 . S
C711 N714 1.384 . S
C712 H703 0.929 . S
C712 C704 1.378 . S
C712 C707 1.350 . S
C713 H700 0.929 . S
C713 C705 1.433 . S
C713 N715 1.384 . S
N714 C710 1.427 . S
N714 C711 1.384 . S
N715 C707 1.427 . S
N715 C713 1.384 . S
H716 C722 0.930 . S
H717 C726 0.930 . S
H718 C731 0.929 . S
H719 C729 0.929 . S
H720 C724 0.929 . S
H721 C730 0.929 . S
C722 H716 0.930 . S
C722 C723 1.367 . S
C722 C730 1.378 . S
C723 C722 1.367 . S
C723 C731 1.433 . S
C724 H720 0.929 . S
C724 C726 1.378 . S
C724 C728 1.350 . S
C725 C728 1.463 . S
C725 C730 1.350 . S
C725 N733 1.427 . S
C726 H717 0.930 . S
C726 C724 1.378 . S
C726 C727 1.367 . S
C727 C726 1.367 . S
C727 C729 1.433 . S
C728 C724 1.350 . S
C728 C725 1.463 . S
C728 N732 1.427 . S
C729 H719 0.929 . S
C729 C727 1.433 . S
C729 N732 1.384 . S
C730 H721 0.929 . S
C730 C722 1.378 . S
C730 C725 1.350 . S
C731 H718 0.929 . S
C731 C723 1.433 . S
C731 N733 1.384 . S
N732 C728 1.427 . S
N732 C729 1.384 . S
N733 C725 1.427 . S
N733 C731 1.384 . S
H734 C740 0.930 . S
H735 C744 0.930 . S
H736 C749 0.929 . S
H737 C747 0.929 . S
H738 C742 0.929 . S
H739 C748 0.929 . S
C740 H734 0.930 . S
C740 C741 1.367 . S
C740 C748 1.378 . S
C741 C740 1.367 . S
C741 C749 1.433 . S
C742 H738 0.929 . S
C742 C744 1.378 . S
C742 C746 1.350 . S
C743 C746 1.463 . S
C743 C748 1.350 . S
C743 N751 1.427 . S
C744 H735 0.930 . S
C744 C742 1.378 . S
C744 C745 1.367 . S
C745 C744 1.367 . S
C745 C747 1.433 . S
C746 C742 1.350 . S
C746 C743 1.463 . S
C746 N750 1.427 . S
C747 H737 0.929 . S
C747 C745 1.433 . S
C747 N750 1.384 . S
C748 H739 0.929 . S
C748 C740 1.378 . S
C748 C743 1.350 . S
C749 H736 0.929 . S
C749 C741 1.433 . S
C749 N751 1.384 . S
N750 C746 1.427 . S
N750 C747 1.384 . S
N751 C743 1.427 . S
N751 C749 1.384 . S
H752 C758 0.930 . S
H753 C762 0.930 . S
H754 C767 0.929 . S
H755 C765 0.929 . S
H756 C760 0.929 . S
H757 C766 0.929 . S
C758 H752 0.930 . S
C758 C759 1.367 . S
C758 C766 1.378 . S
C759 C758 1.367 . S
C759 C767 1.433 . S
C760 H756 0.929 . S
C760 C762 1.378 1_556 S
C760 C764 1.350 . S
C761 C764 1.463 . S
C761 C766 1.350 . S
C761 N769 1.427 . S
C762 H753 0.930 . S
C762 C760 1.378 1_554 S
C762 C763 1.367 . S
C763 C762 1.367 . S
C763 C765 1.433 1_554 S
C764 C760 1.350 . S
C764 C761 1.463 . S
C764 N768 1.427 . S
C765 H755 0.929 . S
C765 C763 1.433 1_556 S
C765 N768 1.384 . S
C766 H757 0.929 . S
C766 C758 1.378 . S
C766 C761 1.350 . S
C767 H754 0.929 . S
C767 C759 1.433 . S
C767 N769 1.384 . S
N768 C764 1.427 . S
N768 C765 1.384 . S
N769 C761 1.427 . S
N769 C767 1.384 . S
H770 C776 0.930 . S
H771 C780 0.930 . S
H772 C785 0.929 1_556 S
H773 C783 0.929 . S
H774 C778 0.929 . S
H775 C784 0.929 . S
C776 H770 0.930 . S
C776 C777 1.365 1_554 S
C776 C784 1.378 . S
C777 C776 1.365 1_556 S
C777 C785 1.433 1_556 S
C778 H774 0.929 . S
C778 C780 1.378 . S
C778 C782 1.350 . S
C779 C782 1.463 . S
C779 C784 1.350 . S
C779 N787 1.427 . S
C780 H771 0.930 . S
C780 C778 1.378 . S
C780 C781 1.367 . S
C781 C780 1.367 . S
C781 C783 1.433 . S
C782 C778 1.350 . S
C782 C779 1.463 . S
C782 N786 1.427 . S
C783 H773 0.929 . S
C783 C781 1.433 . S
C783 N786 1.384 . S
C784 H775 0.929 . S
C784 C776 1.378 . S
C784 C779 1.350 . S
C785 H772 0.929 1_554 S
C785 C777 1.433 1_554 S
C785 N787 1.384 . S
N786 C782 1.427 . S
N786 C783 1.384 . S
N787 C779 1.427 . S
N787 C785 1.384 . S
H788 C794 0.930 1_554 S
H789 C798 0.930 . S
H790 C803 0.929 . S
H791 C801 0.929 . S
H792 C796 0.929 . S
H793 C802 0.929 . S
C794 H788 0.930 1_556 S
C794 C795 1.364 1_556 S
C794 C802 1.378 . S
C795 C794 1.364 1_554 S
C795 C803 1.427 1_554 S
C796 H792 0.929 . S
C796 C798 1.378 . S
C796 C800 1.350 . S
C797 C800 1.463 . S
C797 C802 1.350 . S
C797 N805 1.427 . S
C798 H789 0.930 . S
C798 C796 1.378 . S
C798 C799 1.367 . S
C799 C798 1.367 . S
C799 C801 1.433 . S
C800 C796 1.350 . S
C800 C797 1.463 . S
C800 N804 1.427 . S
C801 H791 0.929 . S
C801 C799 1.433 . S
C801 N804 1.384 . S
C802 H793 0.929 . S
C802 C794 1.378 . S
C802 C797 1.350 . S
C803 H790 0.929 . S
C803 C795 1.427 1_556 S
C803 N805 1.384 . S
N804 C800 1.427 . S
N804 C801 1.384 . S
N805 C797 1.427 . S
N805 C803 1.384 . S
H806 C812 0.930 . S
H807 C816 0.930 . S
H808 C821 0.929 . S
H809 C819 0.929 . S
H810 C814 0.929 . S
H811 C820 0.929 . S
C812 H806 0.930 . S
C812 C813 1.367 . S
C812 C820 1.378 1_556 S
C813 C812 1.367 . S
C813 C821 1.433 1_556 S
C814 H810 0.929 . S
C814 C816 1.378 . S
C814 C818 1.350 . S
C815 C818 1.463 . S
C815 C820 1.350 . S
C815 N823 1.427 . S
C816 H807 0.930 . S
C816 C814 1.378 . S
C816 C817 1.367 . S
C817 C816 1.367 . S
C817 C819 1.433 . S
C818 C814 1.350 . S
C818 C815 1.463 . S
C818 N822 1.427 . S
C819 H809 0.929 . S
C819 C817 1.433 . S
C819 N822 1.384 . S
C820 H811 0.929 . S
C820 C812 1.378 1_554 S
C820 C815 1.350 . S
C821 H808 0.929 . S
C821 C813 1.433 1_554 S
C821 N823 1.384 . S
N822 C818 1.427 . S
N822 C819 1.384 . S
N823 C815 1.427 . S
N823 C821 1.384 . S
H824 C830 0.930 . S
H825 C834 0.930 . S
H826 C839 0.929 . S
H827 C837 0.929 . S
H828 C832 0.929 . S
H829 C838 0.929 . S
C830 H824 0.930 . S
C830 C831 1.367 . S
C830 C838 1.378 . S
C831 C830 1.367 . S
C831 C839 1.433 . S
C832 H828 0.929 . S
C832 C834 1.378 . S
C832 C836 1.350 . S
C833 C836 1.463 . S
C833 C838 1.350 . S
C833 N841 1.427 . S
C834 H825 0.930 . S
C834 C832 1.378 . S
C834 C835 1.367 . S
C835 C834 1.367 . S
C835 C837 1.433 . S
C836 C832 1.350 . S
C836 C833 1.463 . S
C836 N840 1.427 . S
C837 H827 0.929 . S
C837 C835 1.433 . S
C837 N840 1.384 . S
C838 H829 0.929 . S
C838 C830 1.378 . S
C838 C833 1.350 . S
C839 H826 0.929 . S
C839 C831 1.433 . S
C839 N841 1.384 . S
N840 C836 1.427 . S
N840 C837 1.384 . S
N841 C833 1.427 . S
N841 C839 1.384 . S
H842 C848 0.930 . S
H843 C852 0.930 . S
H844 C857 0.929 . S
H845 C855 0.929 . S
H846 C850 0.929 . S
H847 C856 0.929 . S
C848 H842 0.930 . S
C848 C849 1.367 . S
C848 C856 1.378 . S
C849 C848 1.367 . S
C849 C857 1.433 . S
C850 H846 0.929 . S
C850 C852 1.378 . S
C850 C854 1.350 . S
C851 C854 1.463 . S
C851 C856 1.350 . S
C851 N859 1.427 . S
C852 H843 0.930 . S
C852 C850 1.378 . S
C852 C853 1.367 . S
C853 C852 1.367 . S
C853 C855 1.433 . S
C854 C850 1.350 . S
C854 C851 1.463 . S
C854 N858 1.427 . S
C855 H845 0.929 . S
C855 C853 1.433 . S
C855 N858 1.384 . S
C856 H847 0.929 . S
C856 C848 1.378 . S
C856 C851 1.350 . S
C857 H844 0.929 . S
C857 C849 1.433 . S
C857 N859 1.384 . S
N858 C854 1.427 . S
N858 C855 1.384 . S
N859 C851 1.427 . S
N859 C857 1.384 . S
H860 C866 0.930 . S
H861 C870 0.930 . S
H862 C875 0.929 . S
H863 C873 0.929 . S
H864 C868 0.929 . S
H865 C874 0.929 . S
C866 H860 0.930 . S
C866 C867 1.367 . S
C866 C874 1.378 . S
C867 C866 1.367 . S
C867 C875 1.433 . S
C868 H864 0.929 . S
C868 C870 1.378 . S
C868 C872 1.350 . S
C869 C872 1.463 . S
C869 C874 1.350 . S
C869 N877 1.427 . S
C870 H861 0.930 . S
C870 C868 1.378 . S
C870 C871 1.367 . S
C871 C870 1.367 . S
C871 C873 1.433 . S
C872 C868 1.350 . S
C872 C869 1.463 . S
C872 N876 1.427 . S
C873 H863 0.929 . S
C873 C871 1.433 . S
C873 N876 1.384 . S
C874 H865 0.929 . S
C874 C866 1.378 . S
C874 C869 1.350 . S
C875 H862 0.929 . S
C875 C867 1.433 . S
C875 N877 1.384 . S
N876 C872 1.427 . S
N876 C873 1.384 . S
N877 C869 1.427 . S
N877 C875 1.384 . S
H878 C884 0.930 . S
H879 C888 0.930 . S
H880 C893 0.929 . S
H881 C891 0.929 . S
H882 C886 0.929 . S
H883 C892 0.929 . S
C884 H878 0.930 . S
C884 C885 1.367 . S
C884 C892 1.378 . S
C885 C884 1.367 . S
C885 C893 1.433 . S
C886 H882 0.929 . S
C886 C888 1.378 . S
C886 C890 1.350 . S
C887 C890 1.463 . S
C887 C892 1.350 . S
C887 N895 1.427 . S
C888 H879 0.930 . S
C888 C886 1.378 . S
C888 C889 1.367 . S
C889 C888 1.367 . S
C889 C891 1.433 . S
C890 C886 1.350 . S
C890 C887 1.463 . S
C890 N894 1.427 . S
C891 H881 0.929 . S
C891 C889 1.433 . S
C891 N894 1.384 . S
C892 H883 0.929 . S
C892 C884 1.378 . S
C892 C887 1.350 . S
C893 H880 0.929 . S
C893 C885 1.433 . S
C893 N895 1.384 . S
N894 C890 1.427 . S
N894 C891 1.384 . S
N895 C887 1.427 . S
N895 C893 1.384 . S
H896 C902 0.930 . S
H897 C906 0.930 . S
H898 C911 0.929 . S
H899 C909 0.929 . S
H900 C904 0.929 . S
H901 C910 0.929 . S
C902 H896 0.930 . S
C902 C903 1.367 . S
C902 C910 1.378 . S
C903 C902 1.367 . S
C903 C911 1.433 . S
C904 H900 0.929 . S
C904 C906 1.378 . S
C904 C908 1.350 . S
C905 C908 1.463 . S
C905 C910 1.350 . S
C905 N913 1.427 . S
C906 H897 0.930 . S
C906 C904 1.378 . S
C906 C907 1.367 . S
C907 C906 1.367 . S
C907 C909 1.433 . S
C908 C904 1.350 . S
C908 C905 1.463 . S
C908 N912 1.427 . S
C909 H899 0.929 . S
C909 C907 1.433 . S
C909 N912 1.384 . S
C910 H901 0.929 . S
C910 C902 1.378 . S
C910 C905 1.350 . S
C911 H898 0.929 . S
C911 C903 1.433 . S
C911 N913 1.384 . S
N912 C908 1.427 . S
N912 C909 1.384 . S
N913 C905 1.427 . S
N913 C911 1.384 . S
H914 C920 0.930 . S
H915 C924 0.930 . S
H916 C929 0.929 . S
H917 C927 0.929 . S
H918 C922 0.929 . S
H919 C928 0.929 . S
C920 H914 0.930 . S
C920 C921 1.367 . S
C920 C928 1.378 . S
C921 C920 1.367 . S
C921 C929 1.433 . S
C922 H918 0.929 . S
C922 C924 1.378 . S
C922 C926 1.350 . S
C923 C926 1.463 . S
C923 C928 1.350 . S
C923 N931 1.427 . S
C924 H915 0.930 . S
C924 C922 1.378 . S
C924 C925 1.367 . S
C925 C924 1.367 . S
C925 C927 1.433 . S
C926 C922 1.350 . S
C926 C923 1.463 . S
C926 N930 1.427 . S
C927 H917 0.929 . S
C927 C925 1.433 . S
C927 N930 1.384 . S
C928 H919 0.929 . S
C928 C920 1.378 . S
C928 C923 1.350 . S
C929 H916 0.929 . S
C929 C921 1.433 . S
C929 N931 1.384 . S
N930 C926 1.427 . S
N930 C927 1.384 . S
N931 C923 1.427 . S
N931 C929 1.384 . S
H932 C938 0.930 . S
H933 C942 0.930 . S
H934 C947 0.929 . S
H935 C945 0.929 . S
H936 C940 0.929 . S
H937 C946 0.929 . S
C938 H932 0.930 . S
C938 C939 1.367 . S
C938 C946 1.378 . S
C939 C938 1.367 . S
C939 C947 1.433 . S
C940 H936 0.929 . S
C940 C942 1.378 . S
C940 C944 1.350 . S
C941 C944 1.463 . S
C941 C946 1.350 . S
C941 N949 1.427 . S
C942 H933 0.930 . S
C942 C940 1.378 . S
C942 C943 1.367 . S
C943 C942 1.367 . S
C943 C945 1.433 . S
C944 C940 1.350 . S
C944 C941 1.463 . S
C944 N948 1.427 . S
C945 H935 0.929 . S
C945 C943 1.433 . S
C945 N948 1.384 . S
C946 H937 0.929 . S
C946 C938 1.378 . S
C946 C941 1.350 . S
C947 H934 0.929 . S
C947 C939 1.433 . S
C947 N949 1.384 . S
N948 C944 1.427 . S
N948 C945 1.384 . S
N949 C941 1.427 . S
N949 C947 1.384 . S
H950 C956 0.930 . S
H951 C960 0.930 . S
H952 C965 0.929 . S
H953 C963 0.929 . S
H954 C958 0.929 . S
H955 C964 0.929 . S
C956 H950 0.930 . S
C956 C957 1.367 . S
C956 C964 1.378 . S
C957 C956 1.367 . S
C957 C965 1.433 . S
C958 H954 0.929 . S
C958 C960 1.378 . S
C958 C962 1.350 . S
C959 C962 1.463 . S
C959 C964 1.350 . S
C959 N967 1.427 . S
C960 H951 0.930 . S
C960 C958 1.378 . S
C960 C961 1.367 . S
C961 C960 1.367 . S
C961 C963 1.433 . S
C962 C958 1.350 . S
C962 C959 1.463 . S
C962 N966 1.427 . S
C963 H953 0.929 . S
C963 C961 1.433 . S
C963 N966 1.384 . S
C964 H955 0.929 . S
C964 C956 1.378 . S
C964 C959 1.350 . S
C965 H952 0.929 . S
C965 C957 1.433 . S
C965 N967 1.384 . S
N966 C962 1.427 . S
N966 C963 1.384 . S
N967 C959 1.427 . S
N967 C965 1.384 . S
H968 C974 0.930 . S
H969 C978 0.930 . S
H970 C983 0.929 . S
H971 C981 0.929 . S
H972 C976 0.929 . S
H973 C982 0.929 . S
C974 H968 0.930 . S
C974 C975 1.367 . S
C974 C982 1.378 . S
C975 C974 1.367 . S
C975 C983 1.433 . S
C976 H972 0.929 . S
C976 C978 1.378 . S
C976 C980 1.350 . S
C977 C980 1.463 . S
C977 C982 1.350 . S
C977 N985 1.427 . S
C978 H969 0.930 . S
C978 C976 1.378 . S
C978 C979 1.367 . S
C979 C978 1.367 . S
C979 C981 1.433 . S
C980 C976 1.350 . S
C980 C977 1.463 . S
C980 N984 1.427 . S
C981 H971 0.929 . S
C981 C979 1.433 . S
C981 N984 1.384 . S
C982 H973 0.929 . S
C982 C974 1.378 . S
C982 C977 1.350 . S
C983 H970 0.929 . S
C983 C975 1.433 . S
C983 N985 1.384 . S
N984 C980 1.427 . S
N984 C981 1.384 . S
N985 C977 1.427 . S
N985 C983 1.384 . S
H986 C992 0.930 . S
H987 C996 0.930 . S
H988 C1001 0.929 . S
H989 C999 0.929 . S
H990 C994 0.929 . S
H991 C1000 0.929 . S
C992 H986 0.930 . S
C992 C993 1.367 . S
C992 C1000 1.378 . S
C993 C992 1.367 . S
C993 C1001 1.433 . S
C994 H990 0.929 . S
C994 C996 1.378 . S
C994 C998 1.350 . S
C995 C998 1.463 . S
C995 C1000 1.350 . S
C995 N1003 1.427 . S
C996 H987 0.930 . S
C996 C994 1.378 . S
C996 C997 1.367 . S
C997 C996 1.367 . S
C997 C999 1.433 . S
C998 C994 1.350 . S
C998 C995 1.463 . S
C998 N1002 1.427 . S
C999 H989 0.929 . S
C999 C997 1.433 . S
C999 N1002 1.384 . S
C1000 H991 0.929 . S
C1000 C992 1.378 . S
C1000 C995 1.350 . S
C1001 H988 0.929 . S
C1001 C993 1.433 . S
C1001 N1003 1.384 . S
N1002 C998 1.427 . S
N1002 C999 1.384 . S
N1003 C995 1.427 . S
N1003 C1001 1.384 . S
H1004 C1010 0.930 . S
H1005 C1014 0.930 . S
H1006 C1019 0.929 . S
H1007 C1017 0.929 . S
H1008 C1012 0.929 . S
H1009 C1018 0.929 . S
C1010 H1004 0.930 . S
C1010 C1011 1.367 . S
C1010 C1018 1.378 . S
C1011 C1010 1.367 . S
C1011 C1019 1.433 . S
C1012 H1008 0.929 . S
C1012 C1014 1.378 . S
C1012 C1016 1.350 . S
C1013 C1016 1.463 . S
C1013 C1018 1.350 . S
C1013 N1021 1.427 . S
C1014 H1005 0.930 . S
C1014 C1012 1.378 . S
C1014 C1015 1.367 . S
C1015 C1014 1.367 . S
C1015 C1017 1.433 . S
C1016 C1012 1.350 . S
C1016 C1013 1.463 . S
C1016 N1020 1.427 . S
C1017 H1007 0.929 . S
C1017 C1015 1.433 . S
C1017 N1020 1.384 . S
C1018 H1009 0.929 . S
C1018 C1010 1.378 . S
C1018 C1013 1.350 . S
C1019 H1006 0.929 . S
C1019 C1011 1.433 . S
C1019 N1021 1.384 . S
N1020 C1016 1.427 . S
N1020 C1017 1.384 . S
N1021 C1013 1.427 . S
N1021 C1019 1.384 . S
H1022 C1028 0.930 . S
H1023 C1032 0.930 . S
H1024 C1037 0.929 . S
H1025 C1035 0.929 . S
H1026 C1030 0.929 . S
H1027 C1036 0.929 . S
C1028 H1022 0.930 . S
C1028 C1029 1.367 . S
C1028 C1036 1.378 . S
C1029 C1028 1.367 . S
C1029 C1037 1.433 . S
C1030 H1026 0.929 . S
C1030 C1032 1.378 . S
C1030 C1034 1.350 . S
C1031 C1034 1.463 . S
C1031 C1036 1.350 . S
C1031 N1039 1.427 . S
C1032 H1023 0.930 . S
C1032 C1030 1.378 . S
C1032 C1033 1.367 . S
C1033 C1032 1.367 . S
C1033 C1035 1.433 . S
C1034 C1030 1.350 . S
C1034 C1031 1.463 . S
C1034 N1038 1.427 . S
C1035 H1025 0.929 . S
C1035 C1033 1.433 . S
C1035 N1038 1.384 . S
C1036 H1027 0.929 . S
C1036 C1028 1.378 . S
C1036 C1031 1.350 . S
C1037 H1024 0.929 . S
C1037 C1029 1.433 . S
C1037 N1039 1.384 . S
N1038 C1034 1.427 . S
N1038 C1035 1.384 . S
N1039 C1031 1.427 . S
N1039 C1037 1.384 . S
H1040 C1046 0.930 . S
H1041 C1050 0.930 . S
H1042 C1055 0.929 . S
H1043 C1053 0.929 . S
H1044 C1048 0.929 . S
H1045 C1054 0.929 . S
C1046 H1040 0.930 . S
C1046 C1047 1.367 . S
C1046 C1054 1.378 1_556 S
C1047 C1046 1.367 . S
C1047 C1055 1.433 . S
C1048 H1044 0.929 . S
C1048 C1050 1.378 . S
C1048 C1052 1.350 . S
C1049 C1052 1.463 . S
C1049 C1054 1.350 . S
C1049 N1057 1.427 . S
C1050 H1041 0.930 . S
C1050 C1048 1.378 . S
C1050 C1051 1.367 . S
C1051 C1050 1.367 . S
C1051 C1053 1.433 . S
C1052 C1048 1.350 . S
C1052 C1049 1.463 . S
C1052 N1056 1.427 . S
C1053 H1043 0.929 . S
C1053 C1051 1.433 . S
C1053 N1056 1.384 . S
C1054 H1045 0.929 . S
C1054 C1046 1.378 1_554 S
C1054 C1049 1.350 . S
C1055 H1042 0.929 . S
C1055 C1047 1.433 . S
C1055 N1057 1.384 1_556 S
N1056 C1052 1.427 . S
N1056 C1053 1.384 . S
N1057 C1049 1.427 . S
N1057 C1055 1.384 1_554 S
H1058 C1064 0.930 . S
H1059 C1068 0.930 . S
H1060 C1073 0.929 . S
H1061 C1071 0.929 . S
H1062 C1066 0.929 . S
H1063 C1072 0.929 . S
C1064 H1058 0.930 . S
C1064 C1065 1.367 . S
C1064 C1072 1.378 . S
C1065 C1064 1.367 . S
C1065 C1073 1.433 . S
C1066 H1062 0.929 . S
C1066 C1068 1.378 1_556 S
C1066 C1070 1.350 . S
C1067 C1070 1.463 . S
C1067 C1072 1.350 . S
C1067 N1075 1.427 . S
C1068 H1059 0.930 . S
C1068 C1066 1.378 1_554 S
C1068 C1069 1.367 . S
C1069 C1068 1.367 . S
C1069 C1071 1.433 . S
C1070 C1066 1.350 . S
C1070 C1067 1.463 . S
C1070 N1074 1.427 . S
C1071 H1061 0.929 . S
C1071 C1069 1.433 . S
C1071 N1074 1.384 1_554 S
C1072 H1063 0.929 . S
C1072 C1064 1.378 . S
C1072 C1067 1.350 . S
C1073 H1060 0.929 . S
C1073 C1065 1.433 . S
C1073 N1075 1.384 . S
N1074 C1070 1.427 . S
N1074 C1071 1.384 1_556 S
N1075 C1067 1.427 . S
N1075 C1073 1.384 . S
H1076 C1082 0.930 . S
H1077 C1086 0.930 . S
H1078 C1091 0.929 . S
H1079 C1089 0.929 . S
H1080 C1084 0.929 . S
H1081 C1090 0.929 . S
C1082 H1076 0.930 . S
C1082 C1083 1.367 . S
C1082 C1090 1.378 . S
C1083 C1082 1.367 . S
C1083 C1091 1.433 . S
C1084 H1080 0.929 . S
C1084 C1086 1.378 1_554 S
C1084 C1088 1.350 . S
C1085 C1088 1.463 . S
C1085 C1090 1.350 . S
C1085 N1093 1.427 . S
C1086 H1077 0.930 . S
C1086 C1084 1.378 1_556 S
C1086 C1087 1.367 . S
C1087 C1086 1.367 . S
C1087 C1089 1.433 . S
C1088 C1084 1.350 . S
C1088 C1085 1.463 . S
C1088 N1092 1.427 . S
C1089 H1079 0.929 . S
C1089 C1087 1.433 . S
C1089 N1092 1.384 1_556 S
C1090 H1081 0.929 . S
C1090 C1082 1.378 . S
C1090 C1085 1.350 . S
C1091 H1078 0.929 . S
C1091 C1083 1.433 . S
C1091 N1093 1.384 . S
N1092 C1088 1.427 . S
N1092 C1089 1.384 1_554 S
N1093 C1085 1.427 . S
N1093 C1091 1.384 . S
H1094 C1100 0.930 . S
H1095 C1104 0.930 . S
H1096 C1109 0.929 . S
H1097 C1107 0.929 . S
H1098 C1102 0.929 . S
H1099 C1108 0.929 . S
C1100 H1094 0.930 . S
C1100 C1101 1.367 . S
C1100 C1108 1.378 1_554 S
C1101 C1100 1.367 . S
C1101 C1109 1.433 . S
C1102 H1098 0.929 . S
C1102 C1104 1.378 . S
C1102 C1106 1.350 . S
C1103 C1106 1.463 . S
C1103 C1108 1.350 . S
C1103 N1111 1.427 . S
C1104 H1095 0.930 . S
C1104 C1102 1.378 . S
C1104 C1105 1.367 . S
C1105 C1104 1.367 . S
C1105 C1107 1.433 . S
C1106 C1102 1.350 . S
C1106 C1103 1.463 . S
C1106 N1110 1.427 . S
C1107 H1097 0.929 . S
C1107 C1105 1.433 . S
C1107 N1110 1.384 . S
C1108 H1099 0.929 . S
C1108 C1100 1.378 1_556 S
C1108 C1103 1.350 . S
C1109 H1096 0.929 . S
C1109 C1101 1.433 . S
C1109 N1111 1.384 1_554 S
N1110 C1106 1.427 . S
N1110 C1107 1.384 . S
N1111 C1103 1.427 . S
N1111 C1109 1.384 1_556 S
H1112 C1118 0.930 . S
H1113 C1122 0.930 . S
H1114 C1127 0.929 . S
H1115 C1125 0.929 . S
H1116 C1120 0.929 . S
H1117 C1126 0.929 . S
C1118 H1112 0.930 . S
C1118 C1119 1.367 . S
C1118 C1126 1.378 . S
C1119 C1118 1.367 . S
C1119 C1127 1.433 . S
C1120 H1116 0.929 . S
C1120 C1122 1.378 1_554 S
C1120 C1124 1.350 . S
C1121 C1124 1.463 . S
C1121 C1126 1.350 . S
C1121 N1129 1.427 . S
C1122 H1113 0.930 . S
C1122 C1120 1.378 1_556 S
C1122 C1123 1.367 . S
C1123 C1122 1.367 . S
C1123 C1125 1.433 . S
C1124 C1120 1.350 . S
C1124 C1121 1.463 . S
C1124 N1128 1.427 . S
C1125 H1115 0.929 . S
C1125 C1123 1.433 . S
C1125 N1128 1.384 1_556 S
C1126 H1117 0.929 . S
C1126 C1118 1.378 . S
C1126 C1121 1.350 . S
C1127 H1114 0.929 . S
C1127 C1119 1.433 . S
C1127 N1129 1.384 . S
N1128 C1124 1.427 . S
N1128 C1125 1.384 1_554 S
N1129 C1121 1.427 . S
N1129 C1127 1.384 . S
H1130 C1136 0.930 . S
H1131 C1140 0.930 . S
H1132 C1145 0.929 . S
H1133 C1143 0.929 . S
H1134 C1138 0.929 . S
H1135 C1144 0.929 . S
C1136 H1130 0.930 . S
C1136 C1137 1.367 . S
C1136 C1144 1.378 1_554 S
C1137 C1136 1.367 . S
C1137 C1145 1.433 . S
C1138 H1134 0.929 . S
C1138 C1140 1.378 . S
C1138 C1142 1.350 . S
C1139 C1142 1.463 . S
C1139 C1144 1.350 . S
C1139 N1147 1.427 . S
C1140 H1131 0.930 . S
C1140 C1138 1.378 . S
C1140 C1141 1.367 . S
C1141 C1140 1.367 . S
C1141 C1143 1.433 . S
C1142 C1138 1.350 . S
C1142 C1139 1.463 . S
C1142 N1146 1.427 . S
C1143 H1133 0.929 . S
C1143 C1141 1.433 . S
C1143 N1146 1.384 . S
C1144 H1135 0.929 . S
C1144 C1136 1.378 1_556 S
C1144 C1139 1.350 . S
C1145 H1132 0.929 . S
C1145 C1137 1.433 . S
C1145 N1147 1.384 1_554 S
N1146 C1142 1.427 . S
N1146 C1143 1.384 . S
N1147 C1139 1.427 . S
N1147 C1145 1.384 1_556 S
H1148 C1154 0.930 . S
H1149 C1158 0.930 . S
H1150 C1163 0.929 . S
H1151 C1161 0.929 . S
H1152 C1156 0.929 . S
H1153 C1162 0.929 . S
C1154 H1148 0.930 . S
C1154 C1155 1.367 . S
C1154 C1162 1.378 1_556 S
C1155 C1154 1.367 . S
C1155 C1163 1.433 . S
C1156 H1152 0.929 . S
C1156 C1158 1.378 . S
C1156 C1160 1.350 . S
C1157 C1160 1.463 . S
C1157 C1162 1.350 . S
C1157 N1165 1.427 . S
C1158 H1149 0.930 . S
C1158 C1156 1.378 . S
C1158 C1159 1.367 . S
C1159 C1158 1.367 . S
C1159 C1161 1.433 . S
C1160 C1156 1.350 . S
C1160 C1157 1.463 . S
C1160 N1164 1.427 . S
C1161 H1151 0.929 . S
C1161 C1159 1.433 . S
C1161 N1164 1.384 . S
C1162 H1153 0.929 . S
C1162 C1154 1.378 1_554 S
C1162 C1157 1.350 . S
C1163 H1150 0.929 . S
C1163 C1155 1.433 . S
C1163 N1165 1.384 1_556 S
N1164 C1160 1.427 . S
N1164 C1161 1.384 . S
N1165 C1157 1.427 . S
N1165 C1163 1.384 1_554 S
H1166 C1172 0.930 . S
H1167 C1176 0.930 . S
H1168 C1181 0.929 . S
H1169 C1179 0.929 . S
H1170 C1174 0.929 . S
H1171 C1180 0.929 . S
C1172 H1166 0.930 . S
C1172 C1173 1.367 . S
C1172 C1180 1.378 . S
C1173 C1172 1.367 . S
C1173 C1181 1.433 . S
C1174 H1170 0.929 . S
C1174 C1176 1.378 1_556 S
C1174 C1178 1.350 . S
C1175 C1178 1.463 . S
C1175 C1180 1.350 . S
C1175 N1183 1.427 . S
C1176 H1167 0.930 . S
C1176 C1174 1.378 1_554 S
C1176 C1177 1.367 . S
C1177 C1176 1.367 . S
C1177 C1179 1.433 . S
C1178 C1174 1.350 . S
C1178 C1175 1.463 . S
C1178 N1182 1.427 . S
C1179 H1169 0.929 . S
C1179 C1177 1.433 . S
C1179 N1182 1.384 1_554 S
C1180 H1171 0.929 . S
C1180 C1172 1.378 . S
C1180 C1175 1.350 . S
C1181 H1168 0.929 . S
C1181 C1173 1.433 . S
C1181 N1183 1.384 . S
N1182 C1178 1.427 . S
N1182 C1179 1.384 1_556 S
N1183 C1175 1.427 . S
N1183 C1181 1.384 . S
C327 C239 1.597 . S
C331 C9 1.597 . S
C345 C178 1.595 . S
C349 C28 1.597 . S
C363 C49 1.601 . S
C367 C199 1.601 . S
C381 C68 1.592 . S
C385 C218 1.591 . S
C399 C89 1.601 . S
C403 C119 1.601 . S
C417 C138 1.595 . S
C421 C108 1.597 . S
C435 C129 1.601 . S
C439 C159 1.601 . S
C453 C98 1.598 . S
C457 C148 1.598 . S
C471 C79 1.594 . S
C475 C169 1.596 . S
C489 C188 1.601 . S
C493 C18 1.600 . S
C507 C39 1.598 . S
C511 C209 1.598 . S
C525 C58 1.593 . S
C529 C228 1.593 . S
C543 C249 1.593 . S
C547 C279 1.591 . S
C561 C298 1.592 . S
C565 C268 1.593 . S
C579 C319 1.598 . S
C583 C289 1.600 . S
C597 C308 1.600 . S
C601 C258 1.600 . S
C615 C8 1.305 . S
C619 C88 1.311 . S
C633 C109 1.307 . S
C637 C29 1.311 . S
C651 C48 1.307 . S
C655 C128 1.312 . S
C669 C69 1.312 . S
C673 C149 1.311 . S
C687 C168 1.297 . S
C691 C248 1.293 . S
C705 C269 1.307 . S
C709 C189 1.312 . S
C723 C208 1.305 . S
C727 C288 1.298 . S
C741 C229 1.308 . S
C745 C309 1.312 . S
C759 C299 1.830 . S
C763 C19 1.831 . S
C777 C38 1.831 . S
C781 C318 1.826 . S
C795 C59 1.836 . S
C799 C259 1.831 . S
C813 C78 1.829 . S
C817 C278 1.831 . S
C831 C99 1.830 . S
C835 C219 1.827 . S
C849 C118 1.831 . S
C853 C238 1.827 . S
C867 C139 1.829 . S
C871 C179 1.831 . S
C885 C198 1.829 . S
C889 C158 1.831 . S
C903 C2 1.316 . S
C907 C1 1.316 . S
C921 C21 1.312 . S
C925 C22 1.312 . S
C939 C42 1.313 . S
C943 C41 1.313 . S
C957 C62 1.305 . S
C961 C61 1.305 . S
C975 C81 1.306 . S
C979 C82 1.306 . S
C993 C101 1.306 . S
C997 C102 1.306 . S
C1011 C122 1.308 . S
C1015 C121 1.308 . S
C1029 C142 1.312 . S
C1033 C141 1.312 . S
C1047 C162 1.305 . S
C1051 C161 1.305 . S
C1065 C182 1.311 . S
C1069 C181 1.311 . S
C1083 C201 1.315 . S
C1087 C202 1.315 . S
C1101 C221 1.316 . S
C1105 C222 1.316 . S
C1119 C242 1.305 . S
C1123 C241 1.305 . S
C1137 C262 1.306 . S
C1141 C261 1.306 . S
C1155 C281 1.308 . S
C1159 C282 1.308 . S
C1173 C301 1.316 . S
C1177 C302 1.316 . S
