# Generated by pormake.
# Topology unw, (4)-cn, num edge types: 1
# Building blocks:
#     Node 0, Type 0, BuildingBlock: QUQFOY_clean_sbu_1, # of connection points: 4
#     Node 1, Type 0, BuildingBlock: QUQFOY_clean_sbu_1, # of connection points: 4
#     Node 2, Type 0, BuildingBlock: QUQFOY_clean_sbu_1, # of connection points: 4
#     Node 3, Type 0, BuildingBlock: QUQFOY_clean_sbu_1, # of connection points: 4
#     Node 4, Type 0, BuildingBlock: QUQFOY_clean_sbu_1, # of connection points: 4
#     Node 5, Type 0, BuildingBlock: QUQFOY_clean_sbu_1, # of connection points: 4
#     Node 6, Type 0, BuildingBlock: QUQFOY_clean_sbu_1, # of connection points: 4
#     Node 7, Type 0, BuildingBlock: QUQFOY_clean_sbu_1, # of connection points: 4
#     Node 8, Type 0, BuildingBlock: QUQFOY_clean_sbu_1, # of connection points: 4
#     Node 9, Type 0, BuildingBlock: QUQFOY_clean_sbu_1, # of connection points: 4
#     Node 10, Type 0, BuildingBlock: QUQFOY_clean_sbu_1, # of connection points: 4
#     Node 11, Type 0, BuildingBlock: QUQFOY_clean_sbu_1, # of connection points: 4
#     Node 12, Type 0, BuildingBlock: QUQFOY_clean_sbu_1, # of connection points: 4
#     Node 13, Type 0, BuildingBlock: QUQFOY_clean_sbu_1, # of connection points: 4
#     Node 14, Type 0, BuildingBlock: QUQFOY_clean_sbu_1, # of connection points: 4
#     Node 15, Type 0, BuildingBlock: QUQFOY_clean_sbu_1, # of connection points: 4
#     Node 16, Type 0, BuildingBlock: QUQFOY_clean_sbu_1, # of connection points: 4
#     Node 17, Type 0, BuildingBlock: QUQFOY_clean_sbu_1, # of connection points: 4
#     Node 18, Type 0, BuildingBlock: QUQFOY_clean_sbu_1, # of connection points: 4
#     Node 19, Type 0, BuildingBlock: QUQFOY_clean_sbu_1, # of connection points: 4
#     Node 20, Type 0, BuildingBlock: QUQFOY_clean_sbu_1, # of connection points: 4
#     Node 21, Type 0, BuildingBlock: QUQFOY_clean_sbu_1, # of connection points: 4
#     Node 22, Type 0, BuildingBlock: QUQFOY_clean_sbu_1, # of connection points: 4
#     Node 23, Type 0, BuildingBlock: QUQFOY_clean_sbu_1, # of connection points: 4
#     Edge 24, Type (0, 0), BuildingBlock: ZUJKAS_clean_linker_0, # of connection points: 2
#     Edge 25, Type (0, 0), BuildingBlock: ZUJKAS_clean_linker_0, # of connection points: 2
#     Edge 26, Type (0, 0), BuildingBlock: ZUJKAS_clean_linker_0, # of connection points: 2
#     Edge 27, Type (0, 0), BuildingBlock: ZUJKAS_clean_linker_0, # of connection points: 2
#     Edge 28, Type (0, 0), BuildingBlock: ZUJKAS_clean_linker_0, # of connection points: 2
#     Edge 29, Type (0, 0), BuildingBlock: ZUJKAS_clean_linker_0, # of connection points: 2
#     Edge 30, Type (0, 0), BuildingBlock: ZUJKAS_clean_linker_0, # of connection points: 2
#     Edge 31, Type (0, 0), BuildingBlock: ZUJKAS_clean_linker_0, # of connection points: 2
#     Edge 32, Type (0, 0), BuildingBlock: ZUJKAS_clean_linker_0, # of connection points: 2
#     Edge 33, Type (0, 0), BuildingBlock: ZUJKAS_clean_linker_0, # of connection points: 2
#     Edge 34, Type (0, 0), BuildingBlock: ZUJKAS_clean_linker_0, # of connection points: 2
#     Edge 35, Type (0, 0), BuildingBlock: ZUJKAS_clean_linker_0, # of connection points: 2
#     Edge 36, Type (0, 0), BuildingBlock: ZUJKAS_clean_linker_0, # of connection points: 2
#     Edge 37, Type (0, 0), BuildingBlock: ZUJKAS_clean_linker_0, # of connection points: 2
#     Edge 38, Type (0, 0), BuildingBlock: ZUJKAS_clean_linker_0, # of connection points: 2
#     Edge 39, Type (0, 0), BuildingBlock: ZUJKAS_clean_linker_0, # of connection points: 2
#     Edge 40, Type (0, 0), BuildingBlock: ZUJKAS_clean_linker_0, # of connection points: 2
#     Edge 41, Type (0, 0), BuildingBlock: ZUJKAS_clean_linker_0, # of connection points: 2
#     Edge 42, Type (0, 0), BuildingBlock: ZUJKAS_clean_linker_0, # of connection points: 2
#     Edge 43, Type (0, 0), BuildingBlock: ZUJKAS_clean_linker_0, # of connection points: 2
#     Edge 44, Type (0, 0), BuildingBlock: ZUJKAS_clean_linker_0, # of connection points: 2
#     Edge 45, Type (0, 0), BuildingBlock: ZUJKAS_clean_linker_0, # of connection points: 2
#     Edge 46, Type (0, 0), BuildingBlock: ZUJKAS_clean_linker_0, # of connection points: 2
#     Edge 47, Type (0, 0), BuildingBlock: ZUJKAS_clean_linker_0, # of connection points: 2
#     Edge 48, Type (0, 0), BuildingBlock: ZUJKAS_clean_linker_0, # of connection points: 2
#     Edge 49, Type (0, 0), BuildingBlock: ZUJKAS_clean_linker_0, # of connection points: 2
#     Edge 50, Type (0, 0), BuildingBlock: ZUJKAS_clean_linker_0, # of connection points: 2
#     Edge 51, Type (0, 0), BuildingBlock: ZUJKAS_clean_linker_0, # of connection points: 2
#     Edge 52, Type (0, 0), BuildingBlock: ZUJKAS_clean_linker_0, # of connection points: 2
#     Edge 53, Type (0, 0), BuildingBlock: ZUJKAS_clean_linker_0, # of connection points: 2
#     Edge 54, Type (0, 0), BuildingBlock: ZUJKAS_clean_linker_0, # of connection points: 2
#     Edge 55, Type (0, 0), BuildingBlock: ZUJKAS_clean_linker_0, # of connection points: 2
#     Edge 56, Type (0, 0), BuildingBlock: ZUJKAS_clean_linker_0, # of connection points: 2
#     Edge 57, Type (0, 0), BuildingBlock: ZUJKAS_clean_linker_0, # of connection points: 2
#     Edge 58, Type (0, 0), BuildingBlock: ZUJKAS_clean_linker_0, # of connection points: 2
#     Edge 59, Type (0, 0), BuildingBlock: ZUJKAS_clean_linker_0, # of connection points: 2
#     Edge 60, Type (0, 0), BuildingBlock: ZUJKAS_clean_linker_0, # of connection points: 2
#     Edge 61, Type (0, 0), BuildingBlock: ZUJKAS_clean_linker_0, # of connection points: 2
#     Edge 62, Type (0, 0), BuildingBlock: ZUJKAS_clean_linker_0, # of connection points: 2
#     Edge 63, Type (0, 0), BuildingBlock: ZUJKAS_clean_linker_0, # of connection points: 2
#     Edge 64, Type (0, 0), BuildingBlock: ZUJKAS_clean_linker_0, # of connection points: 2
#     Edge 65, Type (0, 0), BuildingBlock: ZUJKAS_clean_linker_0, # of connection points: 2
#     Edge 66, Type (0, 0), BuildingBlock: ZUJKAS_clean_linker_0, # of connection points: 2
#     Edge 67, Type (0, 0), BuildingBlock: ZUJKAS_clean_linker_0, # of connection points: 2
#     Edge 68, Type (0, 0), BuildingBlock: ZUJKAS_clean_linker_0, # of connection points: 2
#     Edge 69, Type (0, 0), BuildingBlock: ZUJKAS_clean_linker_0, # of connection points: 2
#     Edge 70, Type (0, 0), BuildingBlock: ZUJKAS_clean_linker_0, # of connection points: 2
#     Edge 71, Type (0, 0), BuildingBlock: ZUJKAS_clean_linker_0, # of connection points: 2
# Relax obj value: 0.153
# Max RMSD: 0.162
# Mean RMSD: 0.162
data_MOF--net-unw--node1-QUQFOY_clean_sbu_1--edge1-ZUJKAS_clean_linker_0
_symmetry_space_group_name_H-M    P1
_symmetry_Int_Tables_number       1
_symmetry_cell_setting            triclinic
loop_
_symmetry_equiv_pos_as_xyz
'x, y, z'
_cell_length_a     65.205076
_cell_length_b     65.170148
_cell_length_c     65.188569
_cell_angle_alpha  89.975419
_cell_angle_beta   90.022836
_cell_angle_gamma 89.998025
loop_
_atom_site_label
_atom_site_type_symbol
_atom_site_fract_x
_atom_site_fract_y
_atom_site_fract_z
_atom_type_partial_charge
O0 O 0.1514 0.3349 0.28443 0.0
Cd1 Cd 0.14503 0.34501 0.25533 0.0
Cd2 Cd 0.16788 0.37663 0.27361 0.0
O3 O 0.16055 0.36283 0.30133 0.0
O4 O 0.12759 0.32149 0.24649 0.0
O5 O 0.11529 0.35272 0.25085 0.0
C6 C 0.11192 0.33345 0.24766 0.0
C7 C 0.1697 0.41152 0.26595 0.0
C8 C 0.15547 0.344 0.30114 0.0
C9 C 0.18683 0.35223 0.23954 0.0
O10 O 0.18944 0.36188 0.25624 0.0
O11 O 0.16903 0.34605 0.23438 0.0
O12 O 0.18193 0.4032 0.2791 0.0
O13 O 0.15471 0.4005 0.25903 0.0
O14 O 0.63892 0.162 0.24563 0.0
Cd15 Cd 0.62789 0.14989 0.27221 0.0
Cd16 Cd 0.65706 0.1192 0.25595 0.0
O17 O 0.65494 0.13686 0.22942 0.0
O18 O 0.60646 0.17096 0.27813 0.0
O19 O 0.59895 0.13915 0.2693 0.0
C20 C 0.59289 0.15777 0.27249 0.0
C21 C 0.66481 0.08414 0.25728 0.0
C22 C 0.64778 0.15504 0.22978 0.0
C23 C 0.66588 0.1431 0.29577 0.0
O24 O 0.67143 0.13248 0.28045 0.0
O25 O 0.64788 0.15056 0.29699 0.0
O26 O 0.67749 0.09724 0.2497 0.0
O27 O 0.64665 0.09058 0.26192 0.0
O28 O 0.85735 0.66171 0.28306 0.0
Cd29 Cd 0.86555 0.65452 0.25362 0.0
Cd30 Cd 0.83591 0.6206 0.27012 0.0
O31 O 0.83974 0.63644 0.29744 0.0
O32 O 0.88329 0.67894 0.24809 0.0
O33 O 0.89577 0.64764 0.25079 0.0
C34 C 0.89905 0.66714 0.24939 0.0
C35 C 0.82591 0.58605 0.26828 0.0
C36 C 0.84858 0.65381 0.29854 0.0
C37 C 0.82533 0.64816 0.2325 0.0
O38 O 0.82119 0.63575 0.24692 0.0
O39 O 0.84298 0.65642 0.23108 0.0
O40 O 0.81413 0.59988 0.27597 0.0
O41 O 0.8444 0.59138 0.26357 0.0
O42 O 0.32341 0.85958 0.27498 0.0
Cd43 Cd 0.34178 0.86991 0.2517 0.0
Cd44 Cd 0.36704 0.84867 0.27332 0.0
O45 O 0.34824 0.85668 0.29774 0.0
O46 O 0.32572 0.8936 0.24096 0.0
O47 O 0.35458 0.89707 0.25857 0.0
C48 C 0.33831 0.90536 0.25076 0.0
C49 C 0.40239 0.84936 0.26926 0.0
C50 C 0.32925 0.85804 0.29348 0.0
C51 C 0.35191 0.83025 0.23514 0.0
O52 O 0.3554 0.82689 0.254 0.0
O53 O 0.34915 0.84861 0.22899 0.0
O54 O 0.39384 0.83678 0.28198 0.0
O55 O 0.39104 0.86341 0.26099 0.0
O56 O 0.13746 0.66546 0.73984 0.0
Cd57 Cd 0.12205 0.6559 0.7654 0.0
Cd58 Cd 0.15718 0.62305 0.7551 0.0
O59 O 0.16059 0.64249 0.72999 0.0
O60 O 0.1026 0.67954 0.76788 0.0
O61 O 0.09222 0.64824 0.7606 0.0
C62 C 0.08794 0.66748 0.76253 0.0
C63 C 0.17018 0.5893 0.75566 0.0
C64 C 0.15119 0.65944 0.72744 0.0
C65 C 0.15512 0.64774 0.79623 0.0
O66 O 0.16301 0.63571 0.78314 0.0
O67 O 0.13829 0.65703 0.79281 0.0
O68 O 0.18193 0.60494 0.75319 0.0
O69 O 0.15065 0.59254 0.7559 0.0
O70 O 0.31964 0.14058 0.7668 0.0
Cd71 Cd 0.34336 0.12786 0.78361 0.0
Cd72 Cd 0.35904 0.16138 0.76703 0.0
O73 O 0.33872 0.15582 0.74352 0.0
O74 O 0.33171 0.10054 0.79094 0.0
O75 O 0.35687 0.10458 0.76851 0.0
C76 C 0.34331 0.09277 0.77691 0.0
C77 C 0.39263 0.17363 0.76529 0.0
C78 C 0.32142 0.1488 0.74919 0.0
C79 C 0.3491 0.16204 0.81037 0.0
O80 O 0.3458 0.17132 0.79362 0.0
O81 O 0.35325 0.14297 0.81019 0.0
O82 O 0.37727 0.18495 0.76002 0.0
O83 O 0.38907 0.15452 0.76935 0.0
O84 O 0.83543 0.36178 0.77294 0.0
Cd85 Cd 0.84704 0.37348 0.7463 0.0
Cd86 Cd 0.8782 0.34303 0.76135 0.0
O87 O 0.85974 0.34289 0.78739 0.0
O88 O 0.82536 0.39433 0.74058 0.0
O89 O 0.85706 0.40279 0.7488 0.0
C90 C 0.83832 0.40836 0.74556 0.0
C91 C 0.91353 0.33666 0.76041 0.0
C92 C 0.84204 0.35112 0.78782 0.0
C93 C 0.85514 0.33664 0.7206 0.0
O94 O 0.86606 0.33034 0.73542 0.0
O95 O 0.84686 0.35433 0.72082 0.0
O96 O 0.90074 0.32294 0.76662 0.0
O97 O 0.90653 0.35491 0.75704 0.0
O98 O 0.63261 0.83172 0.76802 0.0
Cd99 Cd 0.62065 0.84476 0.74219 0.0
Cd100 Cd 0.6535 0.87492 0.76043 0.0
O101 O 0.65253 0.85385 0.78441 0.0
O102 O 0.60028 0.82294 0.73528 0.0
O103 O 0.59112 0.85388 0.74542 0.0
C104 C 0.58598 0.83522 0.74113 0.0
C105 C 0.66617 0.90846 0.76375 0.0
C106 C 0.64358 0.83651 0.78337 0.0
C107 C 0.65709 0.85491 0.71691 0.0
O108 O 0.66341 0.86476 0.73245 0.0
O109 O 0.63961 0.84626 0.71669 0.0
O110 O 0.67763 0.89268 0.76678 0.0
O111 O 0.64679 0.9053 0.76115 0.0
O112 O 0.23512 0.16517 0.33756 0.0
Cd113 Cd 0.25979 0.15073 0.35032 0.0
Cd114 Cd 0.24009 0.12082 0.33386 0.0
O115 O 0.21488 0.13872 0.34267 0.0
O116 O 0.2683 0.16986 0.3726 0.0
O117 O 0.25419 0.13947 0.37843 0.0
C118 C 0.26015 0.15709 0.3854 0.0
C119 C 0.24452 0.08539 0.33462 0.0
C120 C 0.21723 0.15785 0.33951 0.0
C121 C 0.27641 0.13835 0.31218 0.0
O122 O 0.2581 0.13189 0.31036 0.0
O123 O 0.28288 0.14419 0.32966 0.0
O124 O 0.23121 0.0938 0.32259 0.0
O125 O 0.25328 0.0969 0.34821 0.0
O126 O 0.87476 0.27431 0.32752 0.0
Cd127 Cd 0.88961 0.24789 0.33574 0.0
Cd128 Cd 0.85301 0.25932 0.36928 0.0
O129 O 0.85049 0.28409 0.34932 0.0
O130 O 0.90758 0.24574 0.31101 0.0
O131 O 0.92002 0.2507 0.34202 0.0
C132 C 0.92314 0.24958 0.3225 0.0
C133 C 0.8374 0.25952 0.40188 0.0
C134 C 0.8609 0.28682 0.33302 0.0
C135 C 0.85666 0.2173 0.34538 0.0
O136 O 0.84904 0.23059 0.35736 0.0
O137 O 0.87294 0.22076 0.33519 0.0
O138 O 0.82683 0.26046 0.38525 0.0
O139 O 0.85711 0.26041 0.40019 0.0
O140 O 0.7681 0.83552 0.36687 0.0
Cd141 Cd 0.74482 0.85578 0.3727 0.0
Cd142 Cd 0.76958 0.87688 0.35078 0.0
O143 O 0.79269 0.85813 0.36191 0.0
O144 O 0.73049 0.84117 0.3953 0.0
O145 O 0.74868 0.86949 0.39996 0.0
C146 C 0.73941 0.85374 0.40774 0.0
C147 C 0.76485 0.91202 0.3501 0.0
C148 C 0.78705 0.83984 0.36573 0.0
C149 C 0.73242 0.86244 0.33067 0.0
O150 O 0.75169 0.86408 0.32849 0.0
O151 O 0.72475 0.8623 0.34865 0.0
O152 O 0.77867 0.9034 0.33877 0.0
O153 O 0.75586 0.90094 0.36393 0.0
O154 O 0.12717 0.7399 0.34289 0.0
Cd155 Cd 0.11077 0.76557 0.35031 0.0
Cd156 Cd 0.14619 0.75746 0.38542 0.0
O157 O 0.14975 0.73168 0.36701 0.0
O158 O 0.09251 0.76667 0.32561 0.0
O159 O 0.08065 0.76068 0.35665 0.0
C160 C 0.0773 0.76176 0.33715 0.0
C161 C 0.16149 0.75856 0.41823 0.0
C162 C 0.14091 0.72807 0.34997 0.0
C163 C 0.14236 0.79793 0.35919 0.0
O164 O 0.15027 0.78561 0.37203 0.0
O165 O 0.12627 0.79337 0.34912 0.0
O166 O 0.17218 0.7568 0.40178 0.0
O167 O 0.14179 0.75809 0.41634 0.0
O168 O 0.28066 0.87026 0.67264 0.0
Cd169 Cd 0.25347 0.88383 0.6651 0.0
Cd170 Cd 0.26389 0.85138 0.63094 0.0
O171 O 0.29075 0.84912 0.64796 0.0
O172 O 0.25119 0.90295 0.68903 0.0
O173 O 0.25594 0.91394 0.65744 0.0
C174 C 0.25499 0.91796 0.67681 0.0
C175 C 0.26152 0.84131 0.59636 0.0
C176 C 0.29371 0.85797 0.66511 0.0
C177 C 0.22496 0.84841 0.65852 0.0
O178 O 0.23772 0.84195 0.64534 0.0
O179 O 0.22755 0.8654 0.66781 0.0
O180 O 0.26635 0.82852 0.6106 0.0
O181 O 0.25994 0.86041 0.60139 0.0
O182 O 0.16076 0.22266 0.62139 0.0
Cd183 Cd 0.15761 0.24777 0.60261 0.0
Cd184 Cd 0.12149 0.24986 0.63834 0.0
O185 O 0.13555 0.22198 0.64428 0.0
O186 O 0.1828 0.24387 0.58531 0.0
O187 O 0.15178 0.24276 0.57222 0.0
C188 C 0.1713 0.24085 0.5696 0.0
C189 C 0.08983 0.25646 0.65508 0.0
C190 C 0.15166 0.21421 0.63641 0.0
C191 C 0.15507 0.28385 0.63186 0.0
O192 O 0.13987 0.27531 0.64055 0.0
O193 O 0.16371 0.27588 0.61626 0.0
O194 O 0.10658 0.25358 0.66502 0.0
O195 O 0.09059 0.25461 0.6354 0.0
O196 O 0.72862 0.13318 0.65622 0.0
Cd197 Cd 0.75606 0.11857 0.6522 0.0
Cd198 Cd 0.74678 0.15401 0.61536 0.0
O199 O 0.72 0.15603 0.63251 0.0
O200 O 0.75624 0.10389 0.67917 0.0
O201 O 0.75481 0.08743 0.64977 0.0
C202 C 0.75411 0.08683 0.66955 0.0
C203 C 0.74887 0.16937 0.58263 0.0
C204 C 0.71613 0.14622 0.64895 0.0
C205 C 0.78622 0.15252 0.64378 0.0
O206 O 0.77397 0.15927 0.63022 0.0
O207 O 0.78235 0.13637 0.65406 0.0
O208 O 0.7462 0.18001 0.599 0.0
O209 O 0.74869 0.14965 0.58449 0.0
O210 O 0.83887 0.78428 0.63294 0.0
Cd211 Cd 0.84372 0.75723 0.61787 0.0
Cd212 Cd 0.87956 0.76475 0.65279 0.0
O213 O 0.86291 0.79176 0.65588 0.0
O214 O 0.81798 0.75733 0.60111 0.0
O215 O 0.84857 0.75991 0.58715 0.0
C216 C 0.8289 0.76043 0.585 0.0
C217 C 0.9128 0.76138 0.66671 0.0
C218 C 0.84646 0.79617 0.64633 0.0
C219 C 0.85036 0.72629 0.65144 0.0
O220 O 0.86413 0.73805 0.65854 0.0
O221 O 0.84057 0.73058 0.63509 0.0
O222 O 0.89708 0.76498 0.67803 0.0
O223 O 0.91007 0.76142 0.64709 0.0
O224 O 0.35386 0.27099 0.12033 0.0
Cd225 Cd 0.35923 0.24591 0.10214 0.0
Cd226 Cd 0.3946 0.24821 0.13957 0.0
O227 O 0.37811 0.27505 0.14393 0.0
O228 O 0.33419 0.2477 0.08429 0.0
O229 O 0.36535 0.25132 0.07194 0.0
C230 C 0.34579 0.25178 0.06889 0.0
C231 C 0.42527 0.2437 0.1586 0.0
C232 C 0.36166 0.28092 0.13518 0.0
C233 C 0.36447 0.21094 0.13205 0.0
O234 O 0.37832 0.22137 0.14091 0.0
O235 O 0.35537 0.21751 0.11606 0.0
O236 O 0.40776 0.24589 0.1673 0.0
O237 O 0.42582 0.24534 0.13889 0.0
O238 O 0.36594 0.77149 0.84652 0.0
Cd239 Cd 0.37875 0.74361 0.8529 0.0
Cd240 Cd 0.34457 0.75633 0.88806 0.0
O241 O 0.3439 0.78258 0.86998 0.0
O242 O 0.39528 0.74082 0.82721 0.0
O243 O 0.40955 0.74451 0.8576 0.0
C244 C 0.41159 0.74368 0.83792 0.0
C245 C 0.33095 0.75571 0.92146 0.0
C246 C 0.35378 0.78505 0.85333 0.0
C247 C 0.34312 0.7158 0.86178 0.0
O248 O 0.33688 0.72915 0.87446 0.0
O249 O 0.35975 0.71805 0.8518 0.0
O250 O 0.31969 0.75945 0.90571 0.0
O251 O 0.35048 0.75422 0.91856 0.0
O252 O 0.29095 0.33438 0.83832 0.0
Cd253 Cd 0.26382 0.34549 0.84927 0.0
Cd254 Cd 0.28123 0.37785 0.83497 0.0
O255 O 0.30735 0.36273 0.8461 0.0
O256 O 0.25545 0.32427 0.86966 0.0
O257 O 0.26542 0.35558 0.87835 0.0
C258 C 0.26077 0.33706 0.88384 0.0
C259 C 0.27265 0.41245 0.83698 0.0
C260 C 0.3076 0.34358 0.84229 0.0
C261 C 0.24893 0.35707 0.81008 0.0
O262 O 0.26651 0.36553 0.80971 0.0
O263 O 0.24189 0.35025 0.82697 0.0
O264 O 0.28778 0.40628 0.82579 0.0
O265 O 0.26405 0.39922 0.84904 0.0
O266 O 0.62599 0.24395 0.8255 0.0
Cd267 Cd 0.61419 0.26785 0.84193 0.0
Cd268 Cd 0.64598 0.24942 0.86888 0.0
O269 O 0.64443 0.22579 0.84746 0.0
O270 O 0.5905 0.27512 0.82388 0.0
O271 O 0.58657 0.26194 0.85481 0.0
C272 C 0.57851 0.26734 0.83751 0.0
C273 C 0.65685 0.24572 0.90299 0.0
C274 C 0.63634 0.22804 0.8298 0.0
C275 C 0.65089 0.29287 0.85055 0.0
O276 O 0.65779 0.2767 0.85888 0.0
O277 O 0.6326 0.29381 0.84376 0.0
O278 O 0.66873 0.24146 0.88781 0.0
O279 O 0.63789 0.24977 0.89888 0.0
O280 O 0.73364 0.66317 0.87038 0.0
Cd281 Cd 0.76304 0.65971 0.88049 0.0
Cd282 Cd 0.75007 0.62238 0.8498 0.0
O283 O 0.72217 0.63773 0.85099 0.0
O284 O 0.76478 0.6864 0.89551 0.0
O285 O 0.76587 0.65665 0.91143 0.0
C286 C 0.7647 0.6764 0.9125 0.0
C287 C 0.75252 0.58814 0.8386 0.0
C288 C 0.71941 0.65474 0.86015 0.0
C289 C 0.78711 0.6523 0.84196 0.0
O290 O 0.77443 0.63812 0.83778 0.0
O291 O 0.78603 0.66247 0.8586 0.0
O292 O 0.74602 0.60254 0.82678 0.0
O293 O 0.75595 0.59276 0.85755 0.0
O294 O 0.65411 0.74742 0.13326 0.0
Cd295 Cd 0.64921 0.77389 0.11713 0.0
Cd296 Cd 0.61294 0.76597 0.15305 0.0
O297 O 0.63032 0.73937 0.1562 0.0
O298 O 0.67613 0.77403 0.10235 0.0
O299 O 0.64677 0.77073 0.08611 0.0
C300 C 0.66655 0.7706 0.08547 0.0
C301 C 0.5798 0.76846 0.16746 0.0
C302 C 0.647 0.73543 0.14684 0.0
C303 C 0.64081 0.80555 0.14979 0.0
O304 O 0.62773 0.79335 0.1575 0.0
O305 O 0.65052 0.8012 0.13341 0.0
O306 O 0.59581 0.76565 0.17861 0.0
O307 O 0.58225 0.76829 0.14781 0.0
O308 O 0.24588 0.63132 0.17672 0.0
Cd309 Cd 0.2666 0.61681 0.1583 0.0
Cd310 Cd 0.24924 0.6491 0.13203 0.0
O311 O 0.2271 0.6494 0.15501 0.0
O312 O 0.27285 0.59239 0.17568 0.0
O313 O 0.25617 0.5902 0.14628 0.0
C314 C 0.26233 0.58148 0.16299 0.0
C315 C 0.24359 0.66117 0.0986 0.0
C316 C 0.23025 0.64229 0.17295 0.0
C317 C 0.29431 0.65035 0.14694 0.0
O318 O 0.27815 0.65856 0.13983 0.0
O319 O 0.2941 0.63213 0.15395 0.0
O320 O 0.24162 0.67292 0.11432 0.0
O321 O 0.24647 0.64184 0.10192 0.0
O322 O 0.77266 0.36396 0.15581 0.0
Cd323 Cd 0.74354 0.37521 0.15268 0.0
Cd324 Cd 0.75582 0.34344 0.11499 0.0
O325 O 0.78345 0.34357 0.1308 0.0
O326 O 0.74249 0.38925 0.17992 0.0
O327 O 0.74139 0.40633 0.15082 0.0
C328 C 0.74272 0.40661 0.17058 0.0
C329 C 0.75297 0.33187 0.08089 0.0
C330 C 0.78648 0.35299 0.14763 0.0
C331 C 0.71788 0.33777 0.14444 0.0
O332 O 0.73071 0.33306 0.13059 0.0
O333 O 0.71947 0.35437 0.15462 0.0
O334 O 0.75881 0.31993 0.09548 0.0
O335 O 0.75055 0.35105 0.08522 0.0
H336 H 0.23218 0.55822 0.145 0.0
H337 H 0.21493 0.52828 0.1599 0.0
H338 H 0.25734 0.52898 0.21065 0.0
H339 H 0.27474 0.55865 0.19582 0.0
H340 H 0.2481 0.48928 0.19638 0.0
H341 H 0.17743 0.53503 0.21035 0.0
H342 H 0.18627 0.53423 0.18425 0.0
H343 H 0.20155 0.54674 0.20346 0.0
C344 C 0.23814 0.5517 0.15907 0.0
C345 C 0.25478 0.56093 0.16928 0.0
C346 C 0.2281 0.53473 0.1677 0.0
C347 C 0.23453 0.52672 0.18666 0.0
C348 C 0.25198 0.53503 0.19611 0.0
H349 H 0.19939 0.43837 0.27825 0.0
H350 H 0.21365 0.46686 0.25852 0.0
C351 C 0.26197 0.55197 0.18756 0.0
C352 C 0.2227 0.51033 0.19725 0.0
H353 H 0.17699 0.50048 0.2211 0.0
C354 C 0.23252 0.4917 0.20169 0.0
C355 C 0.20235 0.5135 0.2042 0.0
C356 C 0.19125 0.53349 0.20051 0.0
C357 C 0.22263 0.47621 0.21295 0.0
C358 C 0.20249 0.47958 0.22036 0.0
C359 C 0.19245 0.49799 0.2155 0.0
C360 C 0.19194 0.46425 0.23356 0.0
C361 C 0.23381 0.45629 0.21677 0.0
C362 C 0.1742 0.45416 0.2267 0.0
C363 C 0.16583 0.43792 0.23808 0.0
C364 C 0.17508 0.43156 0.25655 0.0
C365 C 0.19193 0.44276 0.26406 0.0
C366 C 0.20024 0.45895 0.25271 0.0
H367 H 0.24662 0.45404 0.20576 0.0
H368 H 0.24038 0.45647 0.23248 0.0
H369 H 0.22321 0.443 0.21561 0.0
H370 H 0.16743 0.45816 0.21205 0.0
H371 H 0.15289 0.42961 0.23181 0.0
H372 H 0.56422 0.13696 0.2498 0.0
H373 H 0.53479 0.15189 0.23183 0.0
H374 H 0.54569 0.20981 0.26183 0.0
H375 H 0.57528 0.19514 0.27957 0.0
H376 H 0.49871 0.1718 0.24281 0.0
H377 H 0.55084 0.22454 0.20108 0.0
H378 H 0.56011 0.20322 0.21613 0.0
H379 H 0.5525 0.22669 0.22848 0.0
C380 C 0.56005 0.15272 0.25299 0.0
C381 C 0.57225 0.16489 0.26599 0.0
C382 C 0.54329 0.16128 0.24259 0.0
C383 C 0.53841 0.18214 0.24501 0.0
C384 C 0.54952 0.19384 0.25927 0.0
H385 H 0.42894 0.24366 0.20026 0.0
H386 H 0.45668 0.22925 0.22087 0.0
C387 C 0.56631 0.18534 0.26959 0.0
C388 C 0.52247 0.19192 0.23188 0.0
H389 H 0.51514 0.2298 0.19627 0.0
C390 C 0.5023 0.18447 0.23263 0.0
C391 C 0.52724 0.20818 0.21824 0.0
C392 C 0.54888 0.21603 0.21572 0.0
C393 C 0.48669 0.19313 0.2205 0.0
C394 C 0.49129 0.20996 0.2075 0.0
C395 C 0.51156 0.2171 0.20641 0.0
C396 C 0.47525 0.22027 0.1949 0.0
C397 C 0.46549 0.18389 0.22144 0.0
C398 C 0.47693 0.22109 0.1734 0.0
C399 C 0.46115 0.22963 0.16151 0.0
C400 C 0.44342 0.23752 0.17092 0.0
C401 C 0.44229 0.23756 0.19248 0.0
C402 C 0.45807 0.22915 0.20432 0.0
H403 H 0.46585 0.16791 0.22737 0.0
H404 H 0.45582 0.19313 0.23196 0.0
H405 H 0.45812 0.18383 0.20608 0.0
H406 H 0.49016 0.21452 0.16579 0.0
H407 H 0.46249 0.22932 0.14495 0.0
H408 H 0.75515 0.40976 0.21027 0.0
H409 H 0.7677 0.44003 0.22801 0.0
H410 H 0.75319 0.47727 0.17522 0.0
H411 H 0.74148 0.44657 0.15685 0.0
H412 H 0.7896 0.48646 0.18805 0.0
H413 H 0.73979 0.48552 0.25642 0.0
H414 H 0.75315 0.46164 0.25402 0.0
H415 H 0.73499 0.46927 0.23457 0.0
C416 C 0.75421 0.42443 0.2025 0.0
C417 C 0.74715 0.42574 0.18214 0.0
C418 C 0.76133 0.44183 0.21278 0.0
C419 C 0.76107 0.46112 0.2032 0.0
C420 C 0.75348 0.46259 0.18303 0.0
H421 H 0.78577 0.57464 0.26811 0.0
H422 H 0.77073 0.54423 0.25259 0.0
C423 C 0.74667 0.44506 0.17256 0.0
C424 C 0.77008 0.47935 0.21374 0.0
H425 H 0.7706 0.50552 0.25916 0.0
C426 C 0.78526 0.49075 0.20353 0.0
C427 C 0.76436 0.48519 0.23388 0.0
C428 C 0.74702 0.47488 0.24524 0.0
C429 C 0.79502 0.50755 0.21291 0.0
C430 C 0.79011 0.51266 0.23347 0.0
C431 C 0.77472 0.50143 0.24357 0.0
C432 C 0.79976 0.53036 0.24434 0.0
C433 C 0.81003 0.51996 0.20038 0.0
C434 C 0.8212 0.53252 0.24567 0.0
C435 C 0.82992 0.55021 0.2543 0.0
C436 C 0.81735 0.56581 0.26228 0.0
C437 C 0.79596 0.56294 0.26217 0.0
C438 C 0.78729 0.54551 0.25322 0.0
H439 H 0.80741 0.51796 0.18366 0.0
H440 H 0.80893 0.53656 0.20404 0.0
H441 H 0.82585 0.5147 0.20378 0.0
H442 H 0.83122 0.52074 0.23963 0.0
H443 H 0.84644 0.55189 0.25425 0.0
H444 H 0.56866 0.76332 0.20747 0.0
H445 H 0.53842 0.77727 0.22478 0.0
H446 H 0.51632 0.80126 0.16727 0.0
H447 H 0.54648 0.78709 0.14969 0.0
H448 H 0.5215 0.83033 0.20533 0.0
H449 H 0.47477 0.75996 0.21795 0.0
H450 H 0.50198 0.75841 0.22257 0.0
H451 H 0.49274 0.76222 0.19695 0.0
C452 C 0.55718 0.7712 0.1984 0.0
C453 C 0.55996 0.77404 0.17717 0.0
C454 C 0.53993 0.7792 0.20834 0.0
C455 C 0.52517 0.79032 0.19731 0.0
C456 C 0.52754 0.79269 0.17604 0.0
H457 H 0.42083 0.86497 0.23494 0.0
H458 H 0.45158 0.85193 0.21803 0.0
C459 C 0.54471 0.78446 0.166 0.0
C460 C 0.50795 0.80039 0.2083 0.0
H461 H 0.46315 0.79047 0.23348 0.0
C462 C 0.50865 0.82169 0.21141 0.0
C463 C 0.49142 0.78901 0.21642 0.0
C464 C 0.48996 0.76613 0.2133 0.0
C465 C 0.49337 0.8319 0.22274 0.0
C466 C 0.47662 0.82056 0.2307 0.0
C467 C 0.47597 0.79921 0.22748 0.0
C468 C 0.45938 0.8304 0.24212 0.0
C469 C 0.49568 0.85462 0.22654 0.0
C470 C 0.45344 0.82284 0.26142 0.0
C471 C 0.43569 0.83015 0.27104 0.0
C472 C 0.42346 0.84523 0.2616 0.0
C473 C 0.43003 0.85359 0.24281 0.0
C474 C 0.44768 0.84612 0.23309 0.0
H475 H 0.51196 0.85951 0.22539 0.0
H476 H 0.48687 0.86318 0.21475 0.0
H477 H 0.48977 0.85897 0.2419 0.0
H478 H 0.46218 0.81075 0.26874 0.0
H479 H 0.43105 0.82329 0.28545 0.0
H480 H 0.28883 0.44448 0.81527 0.0
H481 H 0.27071 0.47484 0.80278 0.0
H482 H 0.21668 0.45638 0.83617 0.0
H483 H 0.23489 0.42626 0.84914 0.0
H484 H 0.23771 0.47355 0.77821 0.0
H485 H 0.21755 0.51681 0.84856 0.0
H486 H 0.23624 0.49638 0.84859 0.0
H487 H 0.20927 0.49057 0.84922 0.0
C488 C 0.27329 0.44718 0.82047 0.0
C489 C 0.26335 0.43293 0.83328 0.0
C490 C 0.26288 0.46451 0.81319 0.0
C491 C 0.24231 0.46801 0.81854 0.0
C492 C 0.23265 0.45431 0.83211 0.0
H493 H 0.15118 0.55621 0.77347 0.0
H494 H 0.16773 0.52547 0.78766 0.0
C495 C 0.24311 0.43704 0.83954 0.0
C496 C 0.23056 0.48486 0.80843 0.0
H497 H 0.20121 0.52737 0.81764 0.0
C498 C 0.22983 0.48536 0.78687 0.0
C499 C 0.22008 0.50023 0.81967 0.0
C500 C 0.22095 0.50114 0.84278 0.0
C501 C 0.21895 0.5007 0.7763 0.0
C502 C 0.20859 0.51607 0.78752 0.0
C503 C 0.20906 0.51548 0.80906 0.0
C504 C 0.19815 0.53355 0.77721 0.0
C505 C 0.21848 0.50026 0.75316 0.0
C506 C 0.2097 0.5481 0.76633 0.0
C507 C 0.20033 0.56564 0.75827 0.0
C508 C 0.17917 0.56901 0.76084 0.0
C509 C 0.16746 0.55398 0.771 0.0
C510 C 0.17691 0.53649 0.77927 0.0
H511 H 0.22286 0.48497 0.74703 0.0
H512 H 0.20299 0.5043 0.74733 0.0
H513 H 0.22952 0.51174 0.74713 0.0
H514 H 0.22614 0.54628 0.76475 0.0
H515 H 0.20983 0.57695 0.75064 0.0
H516 H 0.55076 0.24497 0.86003 0.0
H517 H 0.5186 0.22988 0.84763 0.0
H518 H 0.526 0.26124 0.78989 0.0
H519 H 0.55805 0.27633 0.80206 0.0
H520 H 0.48122 0.24717 0.8304 0.0
H521 H 0.52429 0.19913 0.77478 0.0
H522 H 0.53656 0.21207 0.79598 0.0
H523 H 0.52957 0.22616 0.77335 0.0
C524 C 0.54532 0.24904 0.84487 0.0
C525 C 0.5571 0.26177 0.832 0.0
C526 C 0.52697 0.24031 0.83777 0.0
C527 C 0.52016 0.24407 0.81767 0.0
C528 C 0.53118 0.25781 0.8053 0.0
H529 H 0.40349 0.21391 0.76104 0.0
H530 H 0.43471 0.23056 0.77338 0.0
C531 C 0.54945 0.26655 0.81238 0.0
C532 C 0.50213 0.23294 0.80923 0.0
H533 H 0.48801 0.19838 0.77234 0.0
C534 C 0.48269 0.23649 0.81773 0.0
C535 C 0.50412 0.21875 0.79289 0.0
C536 C 0.52476 0.2136 0.78378 0.0
C537 C 0.46513 0.22661 0.81001 0.0
C538 C 0.46704 0.21295 0.79321 0.0
C539 C 0.48654 0.20902 0.78504 0.0
C540 C 0.44891 0.20253 0.78406 0.0
C541 C 0.44469 0.23065 0.82004 0.0
C542 C 0.44691 0.1811 0.78507 0.0
C543 C 0.42906 0.17146 0.77791 0.0
C544 C 0.41296 0.18308 0.76943 0.0
C545 C 0.41554 0.20445 0.76747 0.0
C546 C 0.43332 0.21405 0.77469 0.0
H547 H 0.44646 0.23756 0.83552 0.0
H548 H 0.43578 0.2415 0.8104 0.0
H549 H 0.43571 0.21624 0.82147 0.0
H550 H 0.45883 0.17189 0.7921 0.0
H551 H 0.42757 0.15501 0.77974 0.0
H552 H 0.74683 0.57494 0.79934 0.0
H553 H 0.76122 0.54439 0.78319 0.0
H554 H 0.78649 0.52532 0.84126 0.0
H555 H 0.77206 0.55597 0.85766 0.0
H556 H 0.80397 0.53522 0.78228 0.0
H557 H 0.75833 0.47291 0.81851 0.0
H558 H 0.75005 0.49936 0.81849 0.0
H559 H 0.76979 0.49108 0.83582 0.0
C560 C 0.75511 0.56408 0.80882 0.0
C561 C 0.75827 0.56792 0.82984 0.0
C562 C 0.76341 0.54666 0.79951 0.0
C563 C 0.77492 0.53257 0.81099 0.0
C564 C 0.77747 0.53588 0.83214 0.0
H565 H 0.85954 0.43964 0.76419 0.0
H566 H 0.84498 0.47095 0.77908 0.0
C567 C 0.76918 0.5534 0.84151 0.0
C568 C 0.78513 0.51511 0.80049 0.0
H569 H 0.78581 0.46283 0.7971 0.0
C570 C 0.80003 0.51938 0.78552 0.0
C571 C 0.77986 0.49449 0.80466 0.0
C572 C 0.76353 0.48907 0.82012 0.0
C573 C 0.80985 0.50356 0.77462 0.0
C574 C 0.8047 0.48293 0.77891 0.0
C575 C 0.78977 0.47867 0.79387 0.0
C576 C 0.81424 0.46545 0.76782 0.0
C577 C 0.82532 0.50903 0.75832 0.0
C578 C 0.80192 0.45219 0.75619 0.0
C579 C 0.81019 0.43437 0.74762 0.0
C580 C 0.83096 0.42931 0.75063 0.0
C581 C 0.84354 0.44316 0.7614 0.0
C582 C 0.83523 0.46105 0.76997 0.0
H583 H 0.8243 0.52544 0.75382 0.0
H584 H 0.84099 0.50613 0.76429 0.0
H585 H 0.82312 0.49939 0.74444 0.0
H586 H 0.78571 0.45532 0.75428 0.0
H587 H 0.80004 0.42406 0.73945 0.0
H588 H 0.57086 0.79724 0.73217 0.0
H589 H 0.54034 0.78103 0.74659 0.0
H590 H 0.52435 0.8377 0.77671 0.0
H591 H 0.55482 0.85414 0.76215 0.0
H592 H 0.53418 0.77646 0.78839 0.0
H593 H 0.46939 0.81881 0.75289 0.0
H594 H 0.49509 0.81959 0.74261 0.0
H595 H 0.48848 0.83491 0.76455 0.0
C596 C 0.56058 0.80646 0.74141 0.0
C597 C 0.56531 0.82702 0.74599 0.0
C598 C 0.54318 0.7971 0.74974 0.0
C599 C 0.53004 0.80811 0.76274 0.0
C600 C 0.5341 0.82895 0.7665 0.0
H601 H 0.44713 0.75831 0.85519 0.0
H602 H 0.47674 0.77274 0.83709 0.0
C603 C 0.55153 0.83836 0.75813 0.0
C604 C 0.51317 0.79728 0.77364 0.0
H605 H 0.46128 0.79671 0.78074 0.0
C606 C 0.51822 0.78083 0.78665 0.0
C607 C 0.49236 0.80291 0.77129 0.0
C608 C 0.48591 0.8199 0.75695 0.0
C609 C 0.50306 0.76999 0.79752 0.0
C610 C 0.4823 0.77592 0.79553 0.0
C611 C 0.47722 0.79224 0.78235 0.0
C612 C 0.4655 0.76531 0.80674 0.0
C613 C 0.50938 0.75209 0.81076 0.0
C614 C 0.44944 0.75611 0.79576 0.0
C615 C 0.43254 0.74786 0.80604 0.0
C616 C 0.43124 0.74873 0.82758 0.0
C617 C 0.44774 0.75717 0.83863 0.0
C618 C 0.46468 0.76546 0.82829 0.0
H619 H 0.52487 0.74631 0.80662 0.0
H620 H 0.50981 0.75705 0.82704 0.0
H621 H 0.49823 0.73928 0.80942 0.0
H622 H 0.44975 0.75578 0.77914 0.0
H623 H 0.4201 0.74154 0.79702 0.0
H624 H 0.15142 0.22769 0.53473 0.0
H625 H 0.16699 0.21291 0.50377 0.0
H626 H 0.22721 0.22364 0.52888 0.0
H627 H 0.21188 0.23811 0.5598 0.0
H628 H 0.19451 0.2284 0.47494 0.0
H629 H 0.22867 0.16236 0.51624 0.0
H630 H 0.20952 0.17876 0.52765 0.0
H631 H 0.23591 0.18675 0.52678 0.0
C632 C 0.16798 0.22706 0.53357 0.0
C633 C 0.18038 0.23395 0.54984 0.0
C634 C 0.17686 0.21855 0.51589 0.0
C635 C 0.19828 0.21671 0.51419 0.0
C636 C 0.21066 0.22439 0.53004 0.0
H637 H 0.26941 0.19367 0.40382 0.0
H638 H 0.25478 0.20754 0.43542 0.0
C639 C 0.20183 0.23282 0.54768 0.0
C640 C 0.20778 0.20667 0.49598 0.0
H641 H 0.23968 0.16748 0.48178 0.0
C642 C 0.20432 0.21504 0.47643 0.0
C643 C 0.22034 0.18902 0.49784 0.0
C644 C 0.2237 0.17854 0.51822 0.0
C645 C 0.21349 0.20659 0.45881 0.0
C646 C 0.22676 0.18947 0.46081 0.0
C647 C 0.22977 0.18077 0.48028 0.0
C648 C 0.23738 0.18026 0.4428 0.0
C649 C 0.20864 0.21588 0.43815 0.0
C650 C 0.23343 0.15987 0.43702 0.0
C651 C 0.24197 0.15178 0.41902 0.0
C652 C 0.25471 0.1639 0.40649 0.0
C653 C 0.25963 0.18389 0.41303 0.0
C654 C 0.25109 0.19195 0.43101 0.0
H655 H 0.19438 0.2252 0.4386 0.0
H656 H 0.22142 0.2261 0.43346 0.0
H657 H 0.20688 0.20379 0.42628 0.0
H658 H 0.22306 0.15048 0.44599 0.0
H659 H 0.23778 0.13636 0.41444 0.0
H660 H 0.75532 0.15196 0.54469 0.0
H661 H 0.7686 0.16896 0.51386 0.0
H662 H 0.76922 0.22684 0.54593 0.0
H663 H 0.75528 0.21021 0.57635 0.0
H664 H 0.75695 0.23256 0.50801 0.0
H665 H 0.82745 0.18511 0.50661 0.0
H666 H 0.80448 0.17011 0.5046 0.0
H667 H 0.80957 0.18439 0.52768 0.0
C668 C 0.75801 0.16836 0.54506 0.0
C669 C 0.75433 0.17967 0.56305 0.0
C670 C 0.76584 0.17803 0.52749 0.0
C671 C 0.77049 0.19912 0.52771 0.0
C672 C 0.76594 0.21055 0.54537 0.0
H673 H 0.85472 0.25632 0.44024 0.0
H674 H 0.83823 0.24377 0.47164 0.0
C675 C 0.75792 0.20097 0.56279 0.0
C676 C 0.78042 0.20936 0.50981 0.0
H677 H 0.82217 0.20727 0.47819 0.0
C678 C 0.77125 0.22704 0.50153 0.0
C679 C 0.79935 0.20253 0.50162 0.0
C680 C 0.81092 0.18463 0.51071 0.0
C681 C 0.78024 0.23783 0.48516 0.0
C682 C 0.79866 0.23041 0.47632 0.0
C683 C 0.808 0.21293 0.48481 0.0
C684 C 0.8082 0.24009 0.45791 0.0
C685 C 0.7701 0.25732 0.47784 0.0
C686 C 0.79683 0.24251 0.43978 0.0
C687 C 0.80613 0.24999 0.42197 0.0
C688 C 0.82716 0.25487 0.4217 0.0
C689 C 0.83848 0.25286 0.43995 0.0
C690 C 0.82908 0.24556 0.45788 0.0
H691 H 0.76087 0.26452 0.49022 0.0
H692 H 0.78156 0.26865 0.47234 0.0
H693 H 0.75952 0.25365 0.46502 0.0
H694 H 0.7809 0.23789 0.43914 0.0
H695 H 0.79697 0.25107 0.40815 0.0
H696 H 0.76401 0.87238 0.43636 0.0
H697 H 0.77748 0.85662 0.4677 0.0
H698 H 0.73749 0.80471 0.45901 0.0
H699 H 0.72391 0.82027 0.42772 0.0
H700 H 0.75918 0.83948 0.50517 0.0
H701 H 0.79736 0.7813 0.45592 0.0
H702 H 0.78707 0.80497 0.44583 0.0
H703 H 0.7702 0.7841 0.45204 0.0
C704 C 0.75758 0.85792 0.44144 0.0
C705 C 0.743 0.84752 0.42937 0.0
C706 C 0.76542 0.84887 0.4593 0.0
C707 C 0.75885 0.82927 0.46537 0.0
C708 C 0.74305 0.81967 0.45437 0.0
H709 H 0.78794 0.7621 0.5766 0.0
H710 H 0.77126 0.77825 0.5472 0.0
C711 C 0.73517 0.82871 0.43656 0.0
C712 C 0.76953 0.8182 0.4822 0.0
H713 H 0.80006 0.77661 0.49184 0.0
C714 C 0.7681 0.82574 0.50229 0.0
C715 C 0.78148 0.80047 0.47832 0.0
C716 C 0.78434 0.79226 0.45686 0.0
C717 C 0.77795 0.81574 0.5187 0.0
C718 C 0.78935 0.79762 0.51492 0.0
C719 C 0.79115 0.79036 0.49474 0.0
C720 C 0.79955 0.78608 0.53176 0.0
C721 C 0.7763 0.82482 0.53992 0.0
C722 C 0.821 0.78416 0.53237 0.0
C723 C 0.83065 0.77476 0.54916 0.0
C724 C 0.81897 0.76702 0.56557 0.0
C725 C 0.79744 0.76797 0.5643 0.0
C726 C 0.78785 0.77736 0.54757 0.0
H727 H 0.77145 0.84116 0.53945 0.0
H728 H 0.76468 0.81614 0.54883 0.0
H729 H 0.79116 0.82376 0.54818 0.0
H730 H 0.83032 0.79063 0.52022 0.0
H731 H 0.84725 0.77433 0.54966 0.0
H732 H 0.14399 0.77282 0.45379 0.0
H733 H 0.16191 0.78657 0.4839 0.0
H734 H 0.21996 0.76939 0.45731 0.0
H735 H 0.20227 0.75601 0.42713 0.0
H736 H 0.18864 0.77046 0.51249 0.0
H737 H 0.22741 0.83066 0.46661 0.0
H738 H 0.20662 0.81539 0.45659 0.0
H739 H 0.23224 0.80516 0.45742 0.0
C740 C 0.16055 0.77168 0.45451 0.0
C741 C 0.1717 0.76348 0.43797 0.0
C742 C 0.17078 0.77963 0.47169 0.0
C743 C 0.19232 0.77954 0.47261 0.0
C744 C 0.20338 0.77019 0.45669 0.0
H745 H 0.2666 0.80277 0.58081 0.0
H746 H 0.25054 0.78828 0.55022 0.0
C747 C 0.1932 0.76236 0.43951 0.0
C748 C 0.20329 0.7896 0.48993 0.0
H749 H 0.23871 0.82668 0.5011 0.0
C750 C 0.19955 0.78278 0.51 0.0
C751 C 0.21726 0.80596 0.48674 0.0
C752 C 0.221 0.81489 0.46571 0.0
C753 C 0.20972 0.79152 0.5269 0.0
C754 C 0.22436 0.80726 0.52361 0.0
C755 C 0.22774 0.81442 0.50359 0.0
C756 C 0.23606 0.81664 0.54083 0.0
C757 C 0.2044 0.78404 0.54816 0.0
C758 C 0.23436 0.83772 0.54506 0.0
C759 C 0.24381 0.84616 0.56244 0.0
C760 C 0.25515 0.83365 0.57589 0.0
C761 C 0.25786 0.81282 0.57087 0.0
C762 C 0.24851 0.80445 0.55348 0.0
H763 H 0.18923 0.77628 0.54849 0.0
H764 H 0.21612 0.77279 0.55324 0.0
H765 H 0.20418 0.79692 0.55931 0.0
H766 H 0.225 0.84748 0.53539 0.0
H767 H 0.24136 0.86223 0.56587 0.0
H768 H 0.70688 0.91743 0.7612 0.0
H769 H 0.72248 0.94859 0.74795 0.0
H770 H 0.66288 0.97706 0.74404 0.0
H771 H 0.64696 0.94534 0.7565 0.0
H772 H 0.68231 0.98206 0.70959 0.0
H773 H 0.73642 0.00283 0.77128 0.0
H774 H 0.74076 0.97703 0.76288 0.0
H775 H 0.71674 0.98372 0.77484 0.0
C776 C 0.69706 0.93045 0.75803 0.0
C777 C 0.67562 0.92886 0.75999 0.0
C778 C 0.70608 0.94839 0.7505 0.0
C779 C 0.69396 0.96539 0.7452 0.0
C780 C 0.6726 0.96419 0.74805 0.0
H781 H 0.74464 0.08353 0.71009 0.0
H782 H 0.73046 0.05399 0.728 0.0
C783 C 0.66351 0.94609 0.75532 0.0
C784 C 0.70341 0.98357 0.73498 0.0
H785 H 0.74312 0.01766 0.73818 0.0
C786 C 0.69547 0.98998 0.71598 0.0
C787 C 0.72051 0.9941 0.7433 0.0
C788 C 0.72894 0.98919 0.7643 0.0
C789 C 0.70426 0.00631 0.70497 0.0
C790 C 0.72203 0.01611 0.71277 0.0
C791 C 0.72977 0.00994 0.73194 0.0
C792 C 0.73212 0.03355 0.70189 0.0
C793 C 0.69402 0.01319 0.68537 0.0
C794 C 0.7385 0.03186 0.68133 0.0
C795 C 0.74641 0.04893 0.67087 0.0
C796 C 0.74853 0.0679 0.68093 0.0
C797 C 0.74326 0.06918 0.70183 0.0
C798 C 0.73509 0.05225 0.71214 0.0
H799 H 0.67767 0.0084 0.68482 0.0
H800 H 0.69473 0.03012 0.68362 0.0
H801 H 0.70193 0.00606 0.67211 0.0
H802 H 0.73702 0.01743 0.67324 0.0
H803 H 0.75044 0.0474 0.65483 0.0
H804 H 0.94661 0.74462 0.64794 0.0
H805 H 0.97624 0.72861 0.66475 0.0
H806 H 0.95293 0.74716 0.72377 0.0
H807 H 0.92324 0.76289 0.7072 0.0
H808 H 0.00675 0.74293 0.69091 0.0
H809 H 0.95839 0.68508 0.73025 0.0
H810 H 0.94882 0.70109 0.70978 0.0
H811 H 0.95083 0.71104 0.73543 0.0
C812 C 0.94796 0.74558 0.66447 0.0
C813 C 0.93246 0.75491 0.67622 0.0
C814 C 0.96486 0.73633 0.67407 0.0
C815 C 0.96653 0.73621 0.69557 0.0
C816 C 0.95169 0.74656 0.70722 0.0
H817 H 0.07415 0.70664 0.76793 0.0
H818 H 0.04418 0.72265 0.75216 0.0
C819 C 0.93481 0.75573 0.69767 0.0
C820 C 0.98349 0.72494 0.7059 0.0
H821 H 0.99334 0.68688 0.74071 0.0
C822 C 0.00382 0.73064 0.70174 0.0
C823 C 0.9797 0.70862 0.71977 0.0
C824 C 0.95827 0.70092 0.72395 0.0
C825 C 0.02041 0.72085 0.71147 0.0
C826 C 0.01657 0.70517 0.72605 0.0
C827 C 0.99627 0.69909 0.72978 0.0
C828 C 0.03348 0.69489 0.73744 0.0
C829 C 0.04193 0.72722 0.70583 0.0
C830 C 0.03679 0.67367 0.73545 0.0
C831 C 0.05384 0.66437 0.74471 0.0
C832 C 0.06786 0.67613 0.75615 0.0
C833 C 0.06377 0.69713 0.75911 0.0
C834 C 0.04672 0.70637 0.74993 0.0
H835 H 0.0424 0.73513 0.69073 0.0
H836 H 0.04784 0.73804 0.71757 0.0
H837 H 0.05236 0.71376 0.70526 0.0
H838 H 0.02664 0.66446 0.72605 0.0
H839 H 0.05656 0.64819 0.74207 0.0
H840 H 0.35622 0.07635 0.74043 0.0
H841 H 0.34144 0.04673 0.72266 0.0
H842 H 0.30426 0.03334 0.77567 0.0
H843 H 0.31856 0.06316 0.79334 0.0
H844 H 0.33813 0.00529 0.72954 0.0
H845 H 0.26114 0.04127 0.73157 0.0
H846 H 0.28413 0.05502 0.73849 0.0
H847 H 0.27214 0.03793 0.75658 0.0
C848 C 0.34525 0.06683 0.7485 0.0
C849 C 0.33844 0.07226 0.76825 0.0
C850 C 0.33671 0.04996 0.73825 0.0
C851 C 0.32125 0.03818 0.74757 0.0
C852 C 0.31568 0.04258 0.76791 0.0
H853 H 0.24922 0.93212 0.71577 0.0
H854 H 0.26482 0.96238 0.73155 0.0
C855 C 0.32407 0.05951 0.77809 0.0
C856 C 0.31032 0.02193 0.73578 0.0
H857 H 0.26261 0.00663 0.72009 0.0
C858 C 0.32165 0.00567 0.72734 0.0
C859 C 0.28879 0.02251 0.7327 0.0
C860 C 0.27585 0.04022 0.74012 0.0
C861 C 0.31197 0.98966 0.71655 0.0
C862 C 0.29042 0.99002 0.71397 0.0
C863 C 0.27912 0.00639 0.72213 0.0
C864 C 0.27929 0.973 0.70367 0.0
C865 C 0.32476 0.97216 0.70846 0.0
C866 C 0.28157 0.96939 0.68255 0.0
C867 C 0.27244 0.95219 0.67339 0.0
C868 C 0.261 0.93825 0.68525 0.0
C869 C 0.25793 0.94253 0.70618 0.0
C870 C 0.26689 0.95979 0.71526 0.0
H871 H 0.3407 0.97253 0.71448 0.0
H872 H 0.31768 0.95721 0.71257 0.0
H873 H 0.32543 0.97309 0.69147 0.0
H874 H 0.29089 0.97956 0.67328 0.0
H875 H 0.27522 0.94929 0.65727 0.0
H876 H 0.05345 0.27035 0.63876 0.0
H877 H 0.02418 0.28493 0.65747 0.0
H878 H 0.0545 0.27224 0.71488 0.0
H879 H 0.08376 0.25802 0.69642 0.0
H880 H 0.99793 0.26883 0.68665 0.0
H881 H 0.04236 0.33329 0.71975 0.0
H882 H 0.05208 0.31751 0.69919 0.0
H883 H 0.05327 0.30863 0.7253 0.0
C884 C 0.05379 0.27052 0.65537 0.0
C885 C 0.07102 0.26316 0.66607 0.0
C886 C 0.03709 0.27891 0.66605 0.0
C887 C 0.03736 0.28015 0.68759 0.0
C888 C 0.05416 0.272 0.69827 0.0
H889 H 0.93282 0.30012 0.76748 0.0
H890 H 0.96362 0.28716 0.75055 0.0
C891 C 0.07083 0.2637 0.68765 0.0
C892 C 0.02013 0.28991 0.69897 0.0
H893 H 0.00894 0.3278 0.73353 0.0
C894 C 1.00032 0.28177 0.69683 0.0
C895 C 0.02318 0.30703 0.71204 0.0
C896 C 0.04383 0.31728 0.71409 0.0
C897 C 0.98361 0.28991 0.70776 0.0
C898 C 0.98684 0.30643 0.72152 0.0
C899 C 0.00653 0.31494 0.72325 0.0
C900 C 0.96982 0.31522 0.73394 0.0
C901 C 0.96258 0.28091 0.70423 0.0
C902 C 0.9638 0.33576 0.73132 0.0
C903 C 0.94629 0.34335 0.74123 0.0
C904 C 0.9345 0.33051 0.75397 0.0
C905 C 0.94145 0.3104 0.75769 0.0
C906 C 0.95896 0.30288 0.74784 0.0
H907 H 0.96177 0.27232 0.68953 0.0
H908 H 0.95895 0.27006 0.71683 0.0
H909 H 0.95066 0.29309 0.70408 0.0
H910 H 0.97208 0.34564 0.72083 0.0
H911 H 0.94136 0.35888 0.73796 0.0
H912 H 0.73027 0.93102 0.3646 0.0
H913 H 0.71253 0.96023 0.34903 0.0
H914 H 0.7628 0.96852 0.30692 0.0
H915 H 0.78051 0.93916 0.32214 0.0
H916 H 0.7215 1.00145 0.34167 0.0
H917 H 0.71423 0.9585 0.26857 0.0
H918 H 0.72235 0.94647 0.29215 0.0
H919 H 0.7402 0.96132 0.27724 0.0
C920 C 0.73782 0.93935 0.35236 0.0
C921 C 0.75675 0.93259 0.3445 0.0
C922 C 0.72757 0.95599 0.34338 0.0
C923 C 0.73605 0.96617 0.3264 0.0
C924 C 0.75569 0.96052 0.31963 0.0
H925 H 0.70074 0.06547 0.24662 0.0
H926 H 0.7165 0.03566 0.26307 0.0
C927 C 0.76591 0.94386 0.32852 0.0
C928 C 0.72397 0.98197 0.31515 0.0
H929 H 0.70386 0.99345 0.26803 0.0
C930 C 0.71752 0.99965 0.32561 0.0
C931 C 0.71863 0.97953 0.29421 0.0
C932 C 0.72402 0.96035 0.2824 0.0
C933 C 0.70648 0.01523 0.31554 0.0
C934 C 0.70147 0.01294 0.29453 0.0
C935 C 0.7077 0.99516 0.28413 0.0
C936 C 0.69067 0.02931 0.28288 0.0
C937 C 0.70076 0.03433 0.32731 0.0
C938 C 0.67051 0.03505 0.28785 0.0
C939 C 0.66134 0.05201 0.27831 0.0
C940 C 0.67223 0.06357 0.26368 0.0
C941 C 0.69192 0.05694 0.25783 0.0
C942 C 0.701 0.03994 0.26728 0.0
H943 H 0.70915 0.03547 0.3421 0.0
H944 H 0.70401 0.04829 0.31808 0.0
H945 H 0.68408 0.03406 0.33067 0.0
H946 H 0.66213 0.02682 0.2996 0.0
H947 H 0.6462 0.05674 0.28324 0.0
H948 H 0.93356 0.64817 0.26422 0.0
H949 H 0.96444 0.66502 0.2775 0.0
H950 H 0.94193 0.72342 0.25606 0.0
H951 H 0.91093 0.70681 0.24312 0.0
H952 H 0.99535 0.68971 0.26169 0.0
H953 H 0.94802 0.7329 0.31763 0.0
H954 H 0.93796 0.71188 0.3027 0.0
H955 H 0.94058 0.73694 0.29143 0.0
C956 C 0.93541 0.66453 0.26189 0.0
C957 C 0.91967 0.67617 0.25278 0.0
C958 C 0.95302 0.67416 0.2696 0.0
C959 C 0.95522 0.69558 0.26832 0.0
C960 C 0.94031 0.70697 0.25776 0.0
H961 H 0.06544 0.7653 0.29714 0.0
H962 H 0.03555 0.74984 0.28067 0.0
C963 C 0.92267 0.69739 0.25017 0.0
C964 C 0.97249 0.70612 0.27891 0.0
H965 H 0.98323 0.7419 0.31577 0.0
C966 C 0.99272 0.70112 0.27351 0.0
C967 C 0.96906 0.72071 0.29467 0.0
C968 C 0.94775 0.72581 0.30213 0.0
C969 C 0.00956 0.7106 0.28311 0.0
C970 C 0.0061 0.7258 0.29828 0.0
C971 C 0.98589 0.73048 0.30397 0.0
C972 C 0.02329 0.73676 0.3086 0.0
C973 C 0.03092 0.70393 0.27719 0.0
C974 C 0.02577 0.73558 0.33 0.0
C975 C 0.04275 0.7447 0.33955 0.0
C976 C 0.05756 0.75519 0.32787 0.0
C977 C 0.05442 0.75723 0.3066 0.0
C978 C 0.03743 0.74821 0.2971 0.0
H979 H 0.0309 0.68855 0.26983 0.0
H980 H 0.03736 0.71505 0.26603 0.0
H981 H 0.04118 0.70344 0.29078 0.0
H982 H 0.01494 0.727 0.33923 0.0
H983 H 0.04472 0.74278 0.35594 0.0
H984 H 0.30508 0.92684 0.23681 0.0
H985 H 0.29036 0.9579 0.25176 0.0
H986 H 0.34167 0.96239 0.29325 0.0
H987 H 0.35665 0.93146 0.27819 0.0
H988 H 0.2785 0.96045 0.29231 0.0
H989 H 0.33497 0.02165 0.27462 0.0
H990 H 0.33477 0.99732 0.26138 0.0
H991 H 0.34581 0.99931 0.28658 0.0
C992 C 0.31358 0.93475 0.2487 0.0
C993 C 0.3321 0.92662 0.25625 0.0
C994 C 0.30505 0.95246 0.25734 0.0
C995 C 0.31487 0.96254 0.27365 0.0
C996 C 0.33392 0.95511 0.28049 0.0
H997 H 0.27805 0.06594 0.35104 0.0
H998 H 0.29461 0.03475 0.33818 0.0
C999 C 0.3425 0.9374 0.27181 0.0
C1000 C 0.30428 0.97961 0.28459 0.0
H1001 H 0.30855 0.03009 0.29817 0.0
C1002 C 0.28505 0.9757 0.29352 0.0
C1003 C 0.3129 0.99946 0.28638 0.0
C1004 C 0.33316 0.00481 0.27659 0.0
C1005 C 0.27425 0.99102 0.30419 0.0
C1006 C 0.28272 0.01095 0.30575 0.0
C1007 C 0.30208 0.0148 0.29706 0.0
C1008 C 0.27136 0.0283 0.31538 0.0
C1009 C 0.25397 0.98563 0.31394 0.0
C1010 C 0.25251 0.03481 0.30724 0.0
C1011 C 0.24295 0.05255 0.31463 0.0
C1012 C 0.25208 0.0643 0.33029 0.0
C1013 C 0.27046 0.05719 0.33913 0.0
C1014 C 0.28006 0.03944 0.33166 0.0
H1015 H 0.25263 0.96887 0.31676 0.0
H1016 H 0.25186 0.99384 0.32871 0.0
H1017 H 0.24135 0.99018 0.30346 0.0
H1018 H 0.24564 0.02671 0.29446 0.0
H1019 H 0.22892 0.05763 0.30733 0.0
H1020 H 0.10156 0.29303 0.24942 0.0
H1021 H 0.06866 0.27848 0.259 0.0
H1022 H 0.04161 0.33889 0.25862 0.0
H1023 H 0.07503 0.35378 0.24996 0.0
H1024 H 0.03193 0.32045 0.29234 0.0
H1025 H 0.01725 0.26526 0.22996 0.0
H1026 H 0.04178 0.26039 0.24133 0.0
H1027 H 0.03719 0.28436 0.22825 0.0
C1028 C 0.08854 0.30325 0.25084 0.0
C1029 C 0.09097 0.32462 0.24886 0.0
C1030 C 0.0696 0.29483 0.25625 0.0
C1031 C 0.05245 0.30748 0.2593 0.0
C1032 C 0.05458 0.32877 0.25633 0.0
H1033 H 0.93089 0.25765 0.2823 0.0
H1034 H 0.9621 0.27162 0.26732 0.0
C1035 C 0.07366 0.33727 0.25122 0.0
C1036 C 0.03299 0.29867 0.2675 0.0
H1037 H 0.99901 0.25921 0.26152 0.0
C1038 C 0.0246 0.30721 0.28542 0.0
C1039 C 0.0232 0.2815 0.25846 0.0
C1040 C 0.03022 0.27252 0.23831 0.0
C1041 C 0.00702 0.29889 0.29473 0.0
C1042 C 0.99798 0.28096 0.28639 0.0
C1043 C 0.00612 0.27268 0.26822 0.0
C1044 C 0.97947 0.27117 0.29563 0.0
C1045 C 0.9981 0.3098 0.3131 0.0
C1046 C 0.97887 0.26558 0.31648 0.0
C1047 C 0.9608 0.25785 0.32524 0.0
C1048 C 0.94316 0.25506 0.31316 0.0
C1049 C 0.94419 0.25954 0.29207 0.0
C1050 C 0.96208 0.26759 0.28345 0.0
H1051 H 0.00279 0.32619 0.31354 0.0
H1052 H 0.98109 0.30907 0.31308 0.0
H1053 H 0.00383 0.30242 0.32733 0.0
H1054 H 0.99227 0.26749 0.32609 0.0
H1055 H 0.96054 0.25443 0.34149 0.0
H1056 H 0.75751 0.71722 0.91786 0.0
H1057 H 0.7436 0.7341 0.94805 0.0
H1058 H 0.7474 0.6773 0.98182 0.0
H1059 H 0.7607 0.65999 0.95119 0.0
H1060 H 0.71077 0.69367 0.98615 0.0
H1061 H 0.76753 0.75495 1.00012 0.0
H1062 H 0.7581 0.75596 0.97432 0.0
H1063 H 0.7725 0.73392 0.98283 0.0
C1064 C 0.75586 0.70835 0.93181 0.0
C1065 C 0.76029 0.6872 0.93207 0.0
C1066 C 0.74796 0.71811 0.94918 0.0
C1067 C 0.74464 0.70711 0.96739 0.0
C1068 C 0.74986 0.68617 0.96798 0.0
H1069 H 0.70765 0.7639 0.08215 0.0
H1070 H 0.72618 0.74881 0.05345 0.0
C1071 C 0.75761 0.6763 0.9505 0.0
C1072 C 0.73407 0.71706 0.98508 0.0
H1073 H 0.73447 0.75964 0.01567 0.0
C1074 C 0.71609 0.70799 0.99274 0.0
C1075 C 0.74103 0.73568 0.99387 0.0
C1076 C 0.76097 0.74556 0.9875 0.0
C1077 C 0.70472 0.71714 0.00862 0.0
C1078 C 0.71109 0.7363 0.01667 0.0
C1079 C 0.72931 0.74517 0.00928 0.0
C1080 C 0.69973 0.74685 0.03349 0.0
C1081 C 0.68627 0.70586 0.01689 0.0
C1082 C 0.67872 0.75149 0.03172 0.0
C1083 C 0.66794 0.75998 0.0483 0.0
C1084 C 0.67807 0.76436 0.06683 0.0
C1085 C 0.69932 0.76075 0.06812 0.0
C1086 C 0.70998 0.75206 0.05169 0.0
H1087 H 0.687 0.68919 0.01341 0.0
H1088 H 0.68491 0.7078 0.03376 0.0
H1089 H 0.67219 0.71206 0.0096 0.0
H1090 H 0.67055 0.74822 0.01763 0.0
H1091 H 0.65162 0.76266 0.04676 0.0
H1092 H 0.23503 0.70043 0.08686 0.0
H1093 H 0.24675 0.71777 0.05579 0.0
H1094 H 0.27108 0.66063 0.03301 0.0
H1095 H 0.25908 0.64307 0.06396 0.0
H1096 H 0.28707 0.72088 0.04554 0.0
H1097 H 0.24412 0.68416 0.98201 0.0
H1098 H 0.23641 0.68177 0.0085 0.0
H1099 H 0.25682 0.66613 0.99851 0.0
C1100 C 0.24233 0.69139 0.07498 0.0
C1101 C 0.24612 0.67034 0.07791 0.0
C1102 C 0.24913 0.70138 0.05726 0.0
C1103 C 0.25981 0.69054 0.04203 0.0
C1104 C 0.26259 0.66928 0.04437 0.0
H1105 H 0.34911 0.73919 0.95569 0.0
H1106 H 0.33178 0.72475 0.98573 0.0
C1107 C 0.25569 0.65924 0.06209 0.0
C1108 C 0.2697 0.70185 0.02483 0.0
H1109 H 0.27306 0.70449 0.97261 0.0
C1110 C 0.28389 0.71739 0.02959 0.0
C1111 C 0.26548 0.69741 0.00402 0.0
C1112 C 0.24974 0.6816 0.9979 0.0
C1113 C 0.29419 0.72836 0.01414 0.0
C1114 C 0.29047 0.72346 0.99334 0.0
C1115 C 0.27603 0.70816 0.98857 0.0
C1116 C 0.30132 0.73397 0.97623 0.0
C1117 C 0.30874 0.74528 0.02025 0.0
C1118 C 0.29004 0.74412 0.96096 0.0
C1119 C 0.2999 0.75233 0.94377 0.0
C1120 C 0.32128 0.75051 0.94141 0.0
C1121 C 0.33267 0.74108 0.95713 0.0
C1122 C 0.32277 0.7328 0.97433 0.0
H1123 H 0.30563 0.75086 0.03606 0.0
H1124 H 0.32469 0.73935 0.01986 0.0
H1125 H 0.3077 0.75846 0.0095 0.0
H1126 H 0.2735 0.74524 0.96209 0.0
H1127 H 0.29062 0.75943 0.93195 0.0
H1128 H 0.27888 0.35784 0.91565 0.0
H1129 H 0.29191 0.34318 0.94771 0.0
H1130 H 0.26528 0.28473 0.93198 0.0
H1131 H 0.25244 0.29914 0.89983 0.0
H1132 H 0.27457 0.32313 0.98143 0.0
H1133 H 0.32631 0.27129 0.93821 0.0
H1134 H 0.31273 0.29225 0.92625 0.0
H1135 H 0.29973 0.2685 0.93156 0.0
C1136 C 0.2754 0.34198 0.9192 0.0
C1137 C 0.26472 0.32965 0.90505 0.0
C1138 C 0.28296 0.33359 0.93751 0.0
C1139 C 0.28003 0.31271 0.94203 0.0
C1140 C 0.26817 0.30074 0.92861 0.0
H1141 H 0.30537 0.2516 0.05802 0.0
H1142 H 0.28973 0.26609 0.02721 0.0
C1143 C 0.26066 0.30908 0.91029 0.0
C1144 C 0.29015 0.30324 0.96021 0.0
H1145 H 0.32456 0.26616 0.97423 0.0
C1146 C 0.2855 0.31069 0.97987 0.0
C1147 C 0.30475 0.28726 0.95816 0.0
C1148 C 0.31137 0.27946 0.93742 0.0
C1149 C 0.2947 0.3023 0.99752 0.0
C1150 C 0.30871 0.28578 0.9955 0.0
C1151 C 0.31367 0.27864 0.97582 0.0
C1152 C 0.31841 0.27579 0.01364 0.0
C1153 C 0.28962 0.31149 0.01814 0.0
C1154 C 0.33986 0.27547 0.01588 0.0
C1155 C 0.34892 0.26693 0.03344 0.0
C1156 C 0.33669 0.25849 0.04908 0.0
C1157 C 0.31527 0.25809 0.04637 0.0
C1158 C 0.30626 0.26655 0.02882 0.0
H1159 H 0.28341 0.3273 0.01662 0.0
H1160 H 0.27777 0.30193 0.02575 0.0
H1161 H 0.30335 0.31198 0.02821 0.0
H1162 H 0.34958 0.28233 0.00427 0.0
H1163 H 0.36545 0.26752 0.03505 0.0
H1164 H 0.75678 0.2922 0.06807 0.0
H1165 H 0.7414 0.27638 0.03781 0.0
H1166 H 0.71861 0.33536 0.01835 0.0
H1167 H 0.73409 0.35141 0.04863 0.0
H1168 H 0.69932 0.27645 0.02904 0.0
H1169 H 0.74415 0.31166 0.96573 0.0
H1170 H 0.75278 0.31197 0.99206 0.0
H1171 H 0.73334 0.32961 0.98364 0.0
C1172 C 0.74886 0.30194 0.05717 0.0
C1173 C 0.74671 0.32312 0.06079 0.0
C1174 C 0.73998 0.29281 0.03991 0.0
C1175 C 0.72887 0.30465 0.02578 0.0
C1176 C 0.72733 0.32594 0.0289 0.0
H1177 H 0.63829 0.26297 0.93663 0.0
H1178 H 0.6553 0.27582 0.96757 0.0
C1179 C 0.73622 0.33511 0.04622 0.0
C1180 C 0.71794 0.29446 0.00853 0.0
H1181 H 0.71497 0.29213 0.95627 0.0
C1182 C 0.70277 0.27983 0.01312 0.0
C1183 C 0.72255 0.29877 0.98778 0.0
C1184 C 0.73921 0.31372 0.98191 0.0
C1185 C 0.69195 0.26956 0.99752 0.0
C1186 C 0.69628 0.27417 0.97677 0.0
C1187 C 0.71159 0.28865 0.97219 0.0
C1188 C 0.68529 0.26411 0.95948 0.0
C1189 C 0.67623 0.25362 0.00337 0.0
C1190 C 0.69635 0.2529 0.94482 0.0
C1191 C 0.68667 0.24551 0.92717 0.0
C1192 C 0.6657 0.24929 0.92368 0.0
C1193 C 0.65439 0.25958 0.93891 0.0
C1194 C 0.66412 0.26699 0.95661 0.0
H1195 H 0.67829 0.24829 0.01943 0.0
H1196 H 0.66067 0.26037 1.00201 0.0
H1197 H 0.67707 0.24015 0.99298 0.0
H1198 H 0.71268 0.25045 0.94672 0.0
H1199 H 0.69589 0.23769 0.91577 0.0
H1200 H 0.18905 0.3284 0.31946 0.0
H1201 H 0.18953 0.29541 0.33725 0.0
H1202 H 0.12349 0.2964 0.34103 0.0
H1203 H 0.12303 0.32899 0.32226 0.0
H1204 H 0.17565 0.27397 0.37083 0.0
H1205 H 0.13315 0.25097 0.30024 0.0
H1206 H 0.14341 0.2764 0.30345 0.0
H1207 H 0.12047 0.2689 0.31681 0.0
C1208 C 0.17474 0.32212 0.3251 0.0
C1209 C 0.15603 0.33119 0.31962 0.0
C1210 C 0.17497 0.30315 0.33513 0.0
C1211 C 0.15649 0.2931 0.33987 0.0
C1212 C 0.1379 0.30361 0.33703 0.0
H1213 H 0.187 0.16321 0.36822 0.0
H1214 H 0.16548 0.19415 0.37179 0.0
C1215 C 0.13766 0.3224 0.32663 0.0
C1216 C 0.15687 0.27065 0.34391 0.0
H1217 H 0.14725 0.22497 0.32004 0.0
C1218 C 0.16901 0.26317 0.36007 0.0
C1219 C 0.14824 0.25656 0.32973 0.0
C1220 C 0.13571 0.26351 0.3115 0.0
C1221 C 0.17404 0.24222 0.36153 0.0
C1222 C 0.16645 0.22841 0.34658 0.0
C1223 C 0.15291 0.23562 0.33151 0.0
C1224 C 0.17592 0.20795 0.34343 0.0
C1225 C 0.18883 0.23533 0.37797 0.0
C1226 C 0.18789 0.20497 0.3258 0.0
C1227 C 0.19991 0.18746 0.32372 0.0
C1228 C 0.20003 0.17241 0.33909 0.0
C1229 C 0.18684 0.17449 0.35601 0.0
C1230 C 0.17482 0.19225 0.35819 0.0
H1231 H 0.19464 0.24835 0.38732 0.0
H1232 H 0.18104 0.22434 0.38838 0.0
H1233 H 0.20212 0.22732 0.37096 0.0
H1234 H 0.18896 0.21685 0.3142 0.0
H1235 H 0.21013 0.18627 0.31067 0.0
H1236 H 0.84097 0.20524 0.30887 0.0
H1237 H 0.80879 0.18628 0.30505 0.0
H1238 H 0.81034 0.17058 0.36933 0.0
H1239 H 0.84198 0.19039 0.37333 0.0
H1240 H 0.79139 0.14934 0.31185 0.0
H1241 H 0.76021 0.20666 0.36662 0.0
H1242 H 0.78581 0.20836 0.35636 0.0
H1243 H 0.78026 0.19097 0.37707 0.0
C1244 C 0.83494 0.19692 0.32193 0.0
C1245 C 0.84385 0.19923 0.34138 0.0
C1246 C 0.81642 0.18627 0.31982 0.0
C1247 C 0.80679 0.17768 0.3371 0.0
C1248 C 0.81716 0.17767 0.35595 0.0
H1249 H 0.68923 0.11632 0.31707 0.0
H1250 H 0.72307 0.12365 0.33158 0.0
C1251 C 0.83542 0.18865 0.35815 0.0
C1252 C 0.78503 0.17107 0.33581 0.0
H1253 H 0.73703 0.18215 0.35383 0.0
C1254 C 0.77952 0.15635 0.32115 0.0
C1255 C 0.76948 0.18063 0.34767 0.0
C1256 C 0.77415 0.19767 0.36267 0.0
C1257 C 0.75891 0.15109 0.31778 0.0
C1258 C 0.7434 0.16033 0.32994 0.0
C1259 C 0.74894 0.17486 0.34479 0.0
C1260 C 0.72129 0.15637 0.32618 0.0
C1261 C 0.75393 0.13644 0.30054 0.0
C1262 C 0.70828 0.17255 0.32029 0.0
C1263 C 0.68862 0.16844 0.3127 0.0
C1264 C 0.68187 0.14811 0.3108 0.0
C1265 C 0.69411 0.13215 0.31856 0.0
C1266 C 0.71355 0.13629 0.32651 0.0
H1267 H 0.76688 0.13492 0.28957 0.0
H1268 H 0.75078 0.12101 0.307 0.0
H1269 H 0.74017 0.14157 0.29192 0.0
H1270 H 0.71387 0.18821 0.32009 0.0
H1271 H 0.67958 0.18093 0.30646 0.0
H1272 H 0.87755 0.6796 0.31314 0.0
H1273 H 0.87144 0.70928 0.33497 0.0
H1274 H 0.80987 0.68807 0.34661 0.0
H1275 H 0.81593 0.65822 0.32449 0.0
H1276 H 0.812 0.725 0.32607 0.0
H1277 H 0.86277 0.72772 0.39418 0.0
H1278 H 0.87603 0.7212 0.37094 0.0
H1279 H 0.85681 0.7041 0.3809 0.0
C1280 C 0.86301 0.68078 0.3211 0.0
C1281 C 0.84713 0.66675 0.31702 0.0
C1282 C 0.85957 0.69772 0.33369 0.0
C1283 C 0.84021 0.70091 0.34243 0.0
C1284 C 0.82498 0.6858 0.34007 0.0
H1285 H 0.78571 0.80909 0.39334 0.0
H1286 H 0.80272 0.77581 0.3904 0.0
C1287 C 0.82846 0.6687 0.32754 0.0
C1288 C 0.83473 0.72169 0.34983 0.0
H1289 H 0.84871 0.75999 0.38285 0.0
C1290 C 0.81985 0.73252 0.33867 0.0
C1291 C 0.8452 0.73159 0.36607 0.0
C1292 C 0.86097 0.72049 0.37884 0.0
C1293 C 0.8154 0.75306 0.34302 0.0
C1294 C 0.82622 0.76313 0.35888 0.0
C1295 C 0.84077 0.75227 0.37043 0.0
C1296 C 0.82115 0.78454 0.36427 0.0
C1297 C 0.79913 0.76394 0.33061 0.0
C1298 C 0.82678 0.80075 0.3512 0.0
C1299 C 0.8172 0.81991 0.35297 0.0
C1300 C 0.80174 0.82282 0.36764 0.0
C1301 C 0.79758 0.80714 0.38186 0.0
C1302 C 0.80731 0.78817 0.38026 0.0
H1303 H 0.79052 0.75326 0.32049 0.0
H1304 H 0.78807 0.77178 0.34092 0.0
H1305 H 0.80645 0.77583 0.32087 0.0
H1306 H 0.83738 0.7981 0.33868 0.0
H1307 H 0.82049 0.83172 0.34174 0.0
H1308 H 0.30834 0.89046 0.30841 0.0
H1309 H 0.27535 0.88909 0.32644 0.0
H1310 H 0.27987 0.82305 0.32912 0.0
H1311 H 0.31313 0.82461 0.31188 0.0
H1312 H 0.24265 0.87285 0.31069 0.0
H1313 H 0.25636 0.8337 0.38429 0.0
H1314 H 0.27708 0.84411 0.36917 0.0
H1315 H 0.26712 0.81883 0.36386 0.0
C1316 C 0.30268 0.87579 0.31385 0.0
C1317 C 0.31338 0.85767 0.30937 0.0
C1318 C 0.28376 0.87498 0.32391 0.0
C1319 C 0.27515 0.85599 0.32937 0.0
C1320 C 0.2864 0.83794 0.32569 0.0
H1321 H 0.15562 0.80951 0.32156 0.0
H1322 H 0.18646 0.82973 0.31517 0.0
C1323 C 0.30543 0.83879 0.31585 0.0
C1324 C 0.25344 0.8547 0.33622 0.0
H1325 H 0.22224 0.82954 0.36973 0.0
C1326 C 0.2382 0.86376 0.3239 0.0
C1327 C 0.24749 0.84324 0.35364 0.0
C1328 C 0.26293 0.83464 0.3686 0.0
C1329 C 0.21725 0.86052 0.32776 0.0
C1330 C 0.21137 0.84736 0.34398 0.0
C1331 C 0.2266 0.83945 0.35709 0.0
C1332 C 0.18996 0.8399 0.34666 0.0
C1333 C 0.20173 0.87105 0.3142 0.0
C1334 C 0.18113 0.83934 0.3663 0.0
C1335 C 0.16374 0.82739 0.37 0.0
C1336 C 0.15464 0.81614 0.35405 0.0
C1337 C 0.16207 0.81846 0.334 0.0
C1338 C 0.17978 0.83004 0.33037 0.0
H1339 H 0.2076 0.88612 0.30881 0.0
H1340 H 0.19891 0.86146 0.30042 0.0
H1341 H 0.18695 0.87353 0.32228 0.0
H1342 H 0.18861 0.84683 0.37911 0.0
H1343 H 0.15841 0.8256 0.38564 0.0
H1344 H 0.19016 0.67159 0.71862 0.0
H1345 H 0.19943 0.70456 0.70299 0.0
H1346 H 0.13616 0.71459 0.68641 0.0
H1347 H 0.12679 0.6821 0.70267 0.0
H1348 H 0.19585 0.72499 0.66658 0.0
H1349 H 0.14677 0.76152 0.7257 0.0
H1350 H 0.15287 0.73454 0.72604 0.0
H1351 H 0.13312 0.74414 0.70931 0.0
C1352 C 0.17841 0.68047 0.7109 0.0
C1353 C 0.15778 0.67441 0.71187 0.0
C1354 C 0.18366 0.6994 0.70217 0.0
C1355 C 0.16835 0.71234 0.6942 0.0
C1356 C 0.14811 0.70515 0.69307 0.0
H1357 H 0.19993 0.82697 0.63335 0.0
H1358 H 0.1827 0.79475 0.64194 0.0
C1359 C 0.14282 0.68645 0.70206 0.0
C1360 C 0.17321 0.73394 0.68881 0.0
H1361 H 0.16175 0.78365 0.70115 0.0
C1362 C 0.18835 0.73782 0.67406 0.0
C1363 C 0.16371 0.75068 0.69896 0.0
C1364 C 0.14837 0.74758 0.71603 0.0
C1365 C 0.19418 0.75795 0.66906 0.0
C1366 C 0.18417 0.7747 0.67868 0.0
C1367 C 0.16912 0.77082 0.69354 0.0
C1368 C 0.19002 0.79628 0.67428 0.0
C1369 C 0.21154 0.76102 0.65403 0.0
C1370 C 0.19804 0.80877 0.68993 0.0
C1371 C 0.20731 0.82756 0.68513 0.0
C1372 C 0.20878 0.83391 0.66461 0.0
C1373 C 0.19891 0.82238 0.6493 0.0
C1374 C 0.18937 0.80384 0.65415 0.0
H1375 H 0.22099 0.74693 0.65233 0.0
H1376 H 0.20512 0.76485 0.63874 0.0
H1377 H 0.2217 0.77378 0.65893 0.0
H1378 H 0.1985 0.80332 0.70563 0.0
H1379 H 0.21508 0.83603 0.69714 0.0
H1380 H 0.31651 0.17234 0.71458 0.0
H1381 H 0.28483 0.17744 0.69489 0.0
H1382 H 0.25323 0.13481 0.73437 0.0
H1383 H 0.28465 0.12961 0.75409 0.0
H1384 H 0.24503 0.13105 0.68956 0.0
H1385 H 0.23528 0.20945 0.72188 0.0
H1386 H 0.25987 0.204 0.71065 0.0
H1387 H 0.252 0.19057 0.73336 0.0
C1388 C 0.30288 0.1639 0.71893 0.0
C1389 C 0.30303 0.15076 0.73603 0.0
C1390 C 0.28481 0.16685 0.70771 0.0
C1391 C 0.26672 0.15662 0.71335 0.0
C1392 C 0.26705 0.14285 0.72983 0.0
H1393 H 0.1474 0.202 0.67639 0.0
H1394 H 0.1729 0.18294 0.69625 0.0
C1395 C 0.28501 0.14 0.74113 0.0
C1396 C 0.24712 0.1612 0.70291 0.0
H1397 H 0.212 0.19931 0.69606 0.0
C1398 C 0.23771 0.14593 0.69099 0.0
C1399 C 0.23747 0.18046 0.70523 0.0
C1400 C 0.24652 0.19706 0.71859 0.0
C1401 C 0.21915 0.14973 0.68069 0.0
C1402 C 0.20991 0.16928 0.68239 0.0
C1403 C 0.21905 0.18428 0.69485 0.0
C1404 C 0.19184 0.17542 0.67006 0.0
C1405 C 0.20962 0.13286 0.66807 0.0
C1406 C 0.1935 0.17657 0.64866 0.0
C1407 C 0.17897 0.18742 0.63728 0.0
C1408 C 0.16259 0.19744 0.64714 0.0
C1409 C 0.1598 0.19446 0.66831 0.0
C1410 C 0.17442 0.18365 0.67971 0.0
H1411 H 0.21482 0.11747 0.67327 0.0
H1412 H 0.19261 0.13347 0.66882 0.0
H1413 H 0.21428 0.13474 0.65181 0.0
H1414 H 0.20693 0.1706 0.64091 0.0
H1415 H 0.18149 0.18935 0.62096 0.0
H1416 H 0.81121 0.17331 0.61796 0.0
H1417 H 0.83078 0.20413 0.62647 0.0
H1418 H 0.81696 0.19499 0.69057 0.0
H1419 H 0.79819 0.16367 0.68213 0.0
H1420 H 0.81216 0.23619 0.64084 0.0
H1421 H 0.87386 0.21645 0.69532 0.0
H1422 H 0.86084 0.1972 0.68027 0.0
H1423 H 0.84984 0.20629 0.70396 0.0
C1424 C 0.81325 0.17737 0.63396 0.0
C1425 C 0.80333 0.16611 0.64943 0.0
C1426 C 0.82427 0.19507 0.63879 0.0
C1427 C 0.82533 0.20198 0.65915 0.0
C1428 C 0.81678 0.18981 0.6748 0.0
H1429 H 0.81831 0.32424 0.70539 0.0
H1430 H 0.81224 0.29238 0.68642 0.0
C1431 C 0.80607 0.17184 0.66999 0.0
C1432 C 0.83243 0.22319 0.66359 0.0
H1433 H 0.8614 0.25142 0.6967 0.0
C1434 C 0.82325 0.23949 0.6528 0.0
C1435 C 0.84703 0.2276 0.67899 0.0
C1436 C 0.8586 0.21091 0.69012 0.0
C1437 C 0.82762 0.26003 0.65759 0.0
C1438 C 0.84106 0.26442 0.67402 0.0
C1439 C 0.85091 0.24812 0.68421 0.0
C1440 C 0.84446 0.2856 0.68172 0.0
C1441 C 0.81773 0.27673 0.64497 0.0
C1442 C 0.86451 0.29267 0.68506 0.0
C1443 C 0.86793 0.31062 0.69619 0.0
C1444 C 0.85136 0.32201 0.70389 0.0
C1445 C 0.83128 0.31595 0.69915 0.0
C1446 C 0.82785 0.29771 0.68833 0.0
H1447 H 0.81433 0.27132 0.62917 0.0
H1448 H 0.80295 0.28116 0.65216 0.0
H1449 H 0.82764 0.29055 0.64399 0.0
H1450 H 0.87756 0.28365 0.6801 0.0
H1451 H 0.88355 0.31493 0.69988 0.0
H1452 H 0.83327 0.8042 0.68491 0.0
H1453 H 0.80065 0.82098 0.69286 0.0
H1454 H 0.79626 0.84236 0.63038 0.0
H1455 H 0.82839 0.82476 0.6222 0.0
H1456 H 0.7809 0.85738 0.69077 0.0
H1457 H 0.74841 0.80327 0.63351 0.0
H1458 H 0.77479 0.80215 0.64167 0.0
H1459 H 0.76676 0.82093 0.62309 0.0
C1460 C 0.82583 0.81331 0.67315 0.0
C1461 C 0.83322 0.81317 0.65295 0.0
C1462 C 0.80706 0.8227 0.67763 0.0
C1463 C 0.79566 0.83224 0.66199 0.0
C1464 C 0.80448 0.8345 0.64249 0.0
H1465 H 0.67709 0.88469 0.69619 0.0
H1466 H 0.70995 0.8806 0.67851 0.0
C1467 C 0.823 0.82477 0.63792 0.0
C1468 C 0.77376 0.83744 0.66549 0.0
H1469 H 0.7251 0.82515 0.65021 0.0
C1470 C 0.76869 0.8505 0.68179 0.0
C1471 C 0.75782 0.82804 0.65402 0.0
C1472 C 0.76214 0.81266 0.63723 0.0
C1473 C 0.74817 0.85425 0.68714 0.0
C1474 C 0.73224 0.84517 0.67541 0.0
C1475 C 0.73731 0.83232 0.65894 0.0
C1476 C 0.71032 0.8475 0.68115 0.0
C1477 C 0.74385 0.86707 0.70595 0.0
C1478 C 0.69869 0.83015 0.68658 0.0
C1479 C 0.67954 0.83245 0.696 0.0
C1480 C 0.67194 0.85213 0.70021 0.0
C1481 C 0.68263 0.86936 0.69293 0.0
C1482 C 0.70154 0.86705 0.68318 0.0
H1483 H 0.75755 0.86843 0.716 0.0
H1484 H 0.73936 0.88277 0.70113 0.0
H1485 H 0.73111 0.86042 0.71509 0.0
H1486 H 0.70509 0.81489 0.68498 0.0
H1487 H 0.67173 0.81898 0.70182 0.0
H1488 H 0.26998 0.11956 0.27557 0.0
H1489 H 0.28783 0.12554 0.24332 0.0
H1490 H 0.32947 0.1669 0.27382 0.0
H1491 H 0.31147 0.1611 0.30641 0.0
H1492 H 0.30968 0.18368 0.2397 0.0
H1493 H 0.34365 0.10818 0.22018 0.0
H1494 H 0.317 0.10694 0.22704 0.0
H1495 H 0.33557 0.11477 0.24586 0.0
C1496 C 0.28315 0.1297 0.27555 0.0
C1497 C 0.28922 0.14 0.29353 0.0
C1498 C 0.29345 0.13293 0.2571 0.0
C1499 C 0.31009 0.14648 0.25621 0.0
C1500 C 0.31673 0.15625 0.27426 0.0
H1501 H 0.38609 0.18515 0.15658 0.0
H1502 H 0.3719 0.16547 0.1851 0.0
C1503 C 0.30647 0.15291 0.29284 0.0
C1504 C 0.31887 0.15218 0.23604 0.0
H1505 H 0.34172 0.1328 0.19301 0.0
C1506 C 0.31679 0.17258 0.22954 0.0
C1507 C 0.32811 0.13764 0.22283 0.0
C1508 C 0.33141 0.11569 0.22937 0.0
C1509 C 0.32345 0.17883 0.21009 0.0
C1510 C 0.33213 0.16419 0.19661 0.0
C1511 C 0.33461 0.14384 0.20321 0.0
C1512 C 0.34031 0.17048 0.17639 0.0
C1513 C 0.32147 0.20117 0.20424 0.0
C1514 C 0.32723 0.17846 0.16122 0.0
C1515 C 0.33532 0.18965 0.14477 0.0
C1516 C 0.35655 0.19305 0.14346 0.0
C1517 C 0.36965 0.18286 0.15729 0.0
C1518 C 0.36157 0.17164 0.17363 0.0
H1519 H 0.31803 0.21104 0.2177 0.0
H1520 H 0.3358 0.20678 0.19693 0.0
H1521 H 0.30881 0.20295 0.193 0.0
H1522 H 0.31074 0.17749 0.16303 0.0
H1523 H 0.32486 0.19738 0.13441 0.0
H1524 H 0.88726 0.31052 0.31151 0.0
H1525 H 0.8797 0.32869 0.27961 0.0
H1526 H 0.81533 0.3155 0.2875 0.0
H1527 H 0.82283 0.29801 0.31988 0.0
H1528 H 0.86563 0.30901 0.24759 0.0
H1529 H 0.812 0.37233 0.26471 0.0
H1530 H 0.8266 0.35961 0.28451 0.0
H1531 H 0.80301 0.34857 0.27525 0.0
C1532 C 0.8714 0.31236 0.30688 0.0
C1533 C 0.85559 0.30302 0.31818 0.0
C1534 C 0.86711 0.32257 0.28856 0.0
C1535 C 0.84696 0.32346 0.28106 0.0
C1536 C 0.83095 0.31542 0.29312 0.0
H1537 H 0.80196 0.31598 0.1588 0.0
H1538 H 0.82138 0.30976 0.19027 0.0
C1539 C 0.83522 0.30546 0.31168 0.0
C1540 C 0.84314 0.33013 0.25959 0.0
H1541 H 0.81187 0.35976 0.22993 0.0
C1542 C 0.85411 0.32039 0.24375 0.0
C1543 C 0.82831 0.34511 0.25449 0.0
C1544 C 0.81698 0.35715 0.27067 0.0
C1545 C 0.8501 0.32463 0.22301 0.0
C1546 C 0.83432 0.33859 0.21792 0.0
C1547 C 0.82392 0.34893 0.23376 0.0
C1548 C 0.82729 0.3419 0.19647 0.0
C1549 C 0.86281 0.31405 0.20684 0.0
C1550 C 0.82478 0.36194 0.18897 0.0
C1551 C 0.81348 0.36547 0.17113 0.0
C1552 C 0.80469 0.34902 0.16033 0.0
C1553 C 0.80901 0.32887 0.16657 0.0
C1554 C 0.82006 0.32534 0.18465 0.0
H1555 H 0.8783 0.31014 0.21277 0.0
H1556 H 0.85519 0.29949 0.20238 0.0
H1557 H 0.86456 0.32373 0.19293 0.0
H1558 H 0.83025 0.37495 0.19775 0.0
H1559 H 0.81009 0.38116 0.16676 0.0
H1560 H 0.61612 0.82793 0.17463 0.0
H1561 H 0.62733 0.84794 0.20421 0.0
H1562 H 0.69017 0.84192 0.18445 0.0
H1563 H 0.67897 0.82214 0.15461 0.0
H1564 H 0.65114 0.82658 0.23113 0.0
H1565 H 0.69001 0.89907 0.21014 0.0
H1566 H 0.67239 0.88612 0.1931 0.0
H1567 H 0.69857 0.87764 0.19513 0.0
C1568 C 0.63225 0.83169 0.17609 0.0
C1569 C 0.64672 0.82334 0.16246 0.0
C1570 C 0.63862 0.84309 0.19302 0.0
C1571 C 0.65957 0.84634 0.19661 0.0
C1572 C 0.67389 0.83988 0.18184 0.0
H1573 H 0.74531 0.85684 0.2915 0.0
H1574 H 0.72481 0.85562 0.26041 0.0
C1575 C 0.66748 0.82857 0.16474 0.0
C1576 C 0.66659 0.85237 0.21737 0.0
H1577 H 0.69911 0.88439 0.24292 0.0
C1578 C 0.66127 0.83951 0.23384 0.0
C1579 C 0.67984 0.86914 0.2208 0.0
C1580 C 0.68539 0.88391 0.20388 0.0
C1581 C 0.66986 0.84218 0.25337 0.0
C1582 C 0.68384 0.85843 0.25661 0.0
C1583 C 0.68837 0.87193 0.24039 0.0
C1584 C 0.69581 0.86012 0.27585 0.0
C1585 C 0.66493 0.82676 0.26995 0.0
C1586 C 0.68629 0.86306 0.29498 0.0
C1587 C 0.69803 0.86352 0.313 0.0
C1588 C 0.71945 0.86128 0.31207 0.0
C1589 C 0.72884 0.8586 0.29283 0.0
C1590 C 0.71716 0.85801 0.27497 0.0
H1591 H 0.65693 0.81303 0.2638 0.0
H1592 H 0.67913 0.82165 0.27786 0.0
H1593 H 0.65478 0.83401 0.28152 0.0
H1594 H 0.66983 0.86501 0.29596 0.0
H1595 H 0.69039 0.86584 0.32756 0.0
H1596 H 0.2278 0.62238 0.20942 0.0
H1597 H 0.20923 0.63285 0.23998 0.0
H1598 H 0.18291 0.68373 0.20681 0.0
H1599 H 0.20189 0.67346 0.17591 0.0
H1600 H 0.20197 0.69505 0.24291 0.0
H1601 H 0.14951 0.6298 0.25732 0.0
H1602 H 0.17561 0.6219 0.25359 0.0
H1603 H 0.16186 0.63389 0.23286 0.0
C1604 C 0.21782 0.63565 0.20845 0.0
C1605 C 0.21644 0.64721 0.19025 0.0
C1606 C 0.20705 0.64148 0.22594 0.0
C1607 C 0.19452 0.65891 0.22562 0.0
C1608 C 0.19243 0.67012 0.20729 0.0
H1609 H 0.11874 0.70825 0.32091 0.0
H1610 H 0.13226 0.68864 0.2921 0.0
C1611 C 0.20321 0.66422 0.18966 0.0
C1612 C 0.18549 0.66651 0.24502 0.0
H1613 H 0.15526 0.65266 0.28552 0.0
C1614 C 0.19164 0.68585 0.25216 0.0
C1615 C 0.17203 0.65445 0.25705 0.0
C1616 C 0.1642 0.63394 0.24974 0.0
C1617 C 0.18491 0.69339 0.27113 0.0
C1618 C 0.17201 0.68105 0.28349 0.0
C1619 C 0.16555 0.66185 0.27622 0.0
C1620 C 0.16356 0.68884 0.30307 0.0
C1621 C 0.19133 0.71469 0.27758 0.0
C1622 C 0.17651 0.69434 0.31942 0.0
C1623 C 0.16879 0.70558 0.33602 0.0
C1624 C 0.14806 0.71144 0.33636 0.0
C1625 C 0.13484 0.70413 0.32094 0.0
C1626 C 0.14253 0.69291 0.30446 0.0
H1627 H 0.19768 0.72367 0.26456 0.0
H1628 H 0.17816 0.72326 0.28415 0.0
H1629 H 0.20338 0.71354 0.28956 0.0
H1630 H 0.19276 0.69099 0.31874 0.0
H1631 H 0.17932 0.71101 0.34768 0.0
H1632 H 0.31674 0.79718 0.8387 0.0
H1633 H 0.31162 0.81496 0.80596 0.0
H1634 H 0.3763 0.82859 0.80317 0.0
H1635 H 0.38153 0.81009 0.83542 0.0
H1636 H 0.31896 0.85165 0.78726 0.0
H1637 H 0.36892 0.79102 0.7543 0.0
H1638 H 0.36008 0.79036 0.78049 0.0
H1639 H 0.38125 0.80658 0.77337 0.0
C1640 C 0.32967 0.80479 0.83154 0.0
C1641 C 0.34951 0.8023 0.83947 0.0
C1642 C 0.32679 0.81475 0.81273 0.0
C1643 C 0.34372 0.82244 0.8018 0.0
C1644 C 0.36314 0.82219 0.81104 0.0
H1645 H 0.32 0.88319 0.68494 0.0
H1646 H 0.33704 0.87507 0.7174 0.0
C1647 C 0.36607 0.81195 0.82961 0.0
C1648 C 0.34136 0.82857 0.78 0.0
H1649 H 0.35606 0.81577 0.73129 0.0
C1650 C 0.3272 0.84395 0.77502 0.0
C1651 C 0.35183 0.81814 0.76402 0.0
C1652 C 0.36622 0.80047 0.76823 0.0
C1653 C 0.32303 0.84911 0.75453 0.0
C1654 C 0.33382 0.83899 0.73856 0.0
C1655 C 0.34812 0.82373 0.74354 0.0
C1656 C 0.32903 0.84286 0.71665 0.0
C1657 C 0.30641 0.86467 0.7502 0.0
C1658 C 0.32087 0.82704 0.70448 0.0
C1659 C 0.31176 0.83155 0.68556 0.0
C1660 C 0.31058 0.85194 0.67878 0.0
C1661 C 0.32085 0.86732 0.68985 0.0
C1662 C 0.33026 0.86276 0.70853 0.0
H1663 H 0.29638 0.86718 0.76374 0.0
H1664 H 0.31356 0.87958 0.74618 0.0
H1665 H 0.29667 0.85972 0.73712 0.0
H1666 H 0.31996 0.81151 0.71036 0.0
H1667 H 0.30366 0.8195 0.67746 0.0
H1668 H 0.21525 0.33284 0.80264 0.0
H1669 H 0.19908 0.32606 0.76932 0.0
H1670 H 0.24095 0.36815 0.74021 0.0
H1671 H 0.25713 0.37507 0.77327 0.0
H1672 H 0.19827 0.37094 0.72661 0.0
H1673 H 0.2306 0.29199 0.72479 0.0
H1674 H 0.21631 0.29845 0.74747 0.0
H1675 H 0.23995 0.31152 0.74207 0.0
C1676 C 0.22085 0.34082 0.78919 0.0
C1677 C 0.23762 0.3543 0.79057 0.0
C1678 C 0.21165 0.33689 0.77018 0.0
C1679 C 0.21902 0.34644 0.75232 0.0
C1680 C 0.2351 0.36059 0.75381 0.0
H1681 H 0.19557 0.29491 0.63182 0.0
H1682 H 0.21271 0.31484 0.65865 0.0
C1683 C 0.24437 0.36444 0.77273 0.0
C1684 C 0.21083 0.34083 0.7319 0.0
H1685 H 0.20764 0.30095 0.69821 0.0
C1686 C 0.20035 0.35567 0.72032 0.0
C1687 C 0.21399 0.32106 0.7236 0.0
C1688 C 0.22597 0.30483 0.73499 0.0
C1689 C 0.1923 0.35099 0.70086 0.0
C1690 C 0.19479 0.33095 0.6929 0.0
C1691 C 0.20582 0.31635 0.70428 0.0
C1692 C 0.18463 0.324 0.67378 0.0
C1693 C 0.18122 0.36748 0.689 0.0
C1694 C 0.16316 0.32343 0.6728 0.0
C1695 C 0.15336 0.31213 0.65749 0.0
C1696 C 0.16485 0.30106 0.64296 0.0
C1697 C 0.18628 0.30335 0.64271 0.0
C1698 C 0.19611 0.31462 0.65812 0.0
H1699 H 0.18616 0.38305 0.69389 0.0
H1700 H 0.18385 0.36587 0.67225 0.0
H1701 H 0.16451 0.36615 0.69191 0.0
H1702 H 0.15398 0.33027 0.68483 0.0
H1703 H 0.13681 0.31068 0.65806 0.0
H1704 H 0.69768 0.18382 0.6531 0.0
H1705 H 0.67778 0.19495 0.68306 0.0
H1706 H 0.67674 0.13272 0.70559 0.0
H1707 H 0.69607 0.1215 0.67565 0.0
H1708 H 0.64163 0.1541 0.71602 0.0
H1709 H 0.71241 0.19741 0.73554 0.0
H1710 H 0.70079 0.20473 0.71166 0.0
H1711 H 0.71131 0.1794 0.71459 0.0
C1712 C 0.69242 0.17241 0.66399 0.0
C1713 C 0.69869 0.15187 0.66224 0.0
C1714 C 0.6813 0.17881 0.68123 0.0
C1715 C 0.6764 0.16474 0.69684 0.0
C1716 C 0.68057 0.14387 0.69386 0.0
H1717 H 0.66783 0.20023 0.82551 0.0
H1718 H 0.67649 0.18103 0.79425 0.0
C1719 C 0.69161 0.13749 0.67671 0.0
C1720 C 0.66948 0.17181 0.71731 0.0
H1721 H 0.68469 0.20025 0.75855 0.0
C1722 C 0.65098 0.16424 0.72532 0.0
C1723 C 0.68208 0.18444 0.72969 0.0
C1724 C 0.70285 0.19183 0.72258 0.0
C1725 C 0.64449 0.16945 0.7452 0.0
C1726 C 0.65667 0.18283 0.75721 0.0
C1727 C 0.67537 0.18999 0.74935 0.0
C1728 C 0.64973 0.19101 0.77727 0.0
C1729 C 0.62478 0.16036 0.75323 0.0
C1730 C 0.6316 0.20248 0.77826 0.0
C1731 C 0.62664 0.2133 0.79599 0.0
C1732 C 0.63981 0.21308 0.8131 0.0
C1733 C 0.65736 0.20061 0.81261 0.0
C1734 C 0.66235 0.18974 0.79475 0.0
H1735 H 0.62126 0.14551 0.74563 0.0
H1736 H 0.62548 0.15786 0.77006 0.0
H1737 H 0.61195 0.17104 0.7499 0.0
H1738 H 0.62183 0.20408 0.76491 0.0
H1739 H 0.61292 0.22269 0.79591 0.0
H1740 H 0.81176 0.71768 0.66451 0.0
H1741 H 0.80368 0.70024 0.69683 0.0
H1742 H 0.86657 0.68035 0.70196 0.0
H1743 H 0.87482 0.69844 0.67012 0.0
H1744 H 0.80684 0.66275 0.71558 0.0
H1745 H 0.86078 0.71844 0.75078 0.0
H1746 H 0.85294 0.72005 0.72431 0.0
H1747 H 0.87246 0.7021 0.73198 0.0
C1748 C 0.82361 0.7088 0.67207 0.0
C1749 C 0.8439 0.70941 0.66494 0.0
C1750 C 0.81905 0.69903 0.69065 0.0
C1751 C 0.83471 0.68965 0.70214 0.0
C1752 C 0.85441 0.68805 0.69365 0.0
H1753 H 0.80837 0.62681 0.81707 0.0
H1754 H 0.82296 0.63556 0.78365 0.0
C1755 C 0.85903 0.69809 0.67531 0.0
C1756 C 0.83099 0.68366 0.72379 0.0
H1757 H 0.84583 0.69406 0.77303 0.0
C1758 C 0.81542 0.66949 0.72814 0.0
C1759 C 0.8419 0.6929 0.7402 0.0
C1760 C 0.85781 0.70937 0.73667 0.0
C1761 C 0.81051 0.66419 0.74843 0.0
C1762 C 0.82189 0.67291 0.76481 0.0
C1763 C 0.83738 0.68716 0.76046 0.0
C1764 C 0.81717 0.66812 0.78655 0.0
C1765 C 0.7927 0.64986 0.75212 0.0
C1766 C 0.81081 0.68374 0.80002 0.0
C1767 C 0.80301 0.67881 0.81942 0.0
C1768 C 0.80135 0.6582 0.82546 0.0
C1769 C 0.80946 0.64282 0.81271 0.0
C1770 C 0.81753 0.64777 0.79352 0.0
H1771 H 0.78236 0.64901 0.73859 0.0
H1772 H 0.79862 0.63419 0.75513 0.0
H1773 H 0.78355 0.6548 0.76561 0.0
H1774 H 0.81063 0.69959 0.79501 0.0
H1775 H 0.79665 0.69091 0.82887 0.0
H1776 H 0.22471 0.36928 0.2433 0.0
H1777 H 0.25529 0.36205 0.2232 0.0
H1778 H 0.22098 0.31966 0.18577 0.0
H1779 H 0.19001 0.32673 0.20603 0.0
H1780 H 0.25775 0.30377 0.20228 0.0
H1781 H 0.27105 0.37887 0.16446 0.0
H1782 H 0.2671 0.38052 0.19168 0.0
H1783 H 0.24663 0.37175 0.17543 0.0
C1784 C 0.22352 0.35851 0.2307 0.0
C1785 C 0.2049 0.34847 0.22633 0.0
C1786 C 0.24103 0.35457 0.2191 0.0
C1787 C 0.24032 0.34057 0.20285 0.0
C1788 C 0.22174 0.33067 0.19819 0.0
H1789 H 0.33222 0.3038 0.1164 0.0
H1790 H 0.30412 0.32171 0.13344 0.0
C1791 C 0.2041 0.33471 0.20976 0.0
C1792 C 0.25944 0.33508 0.19194 0.0
H1793 H 0.29877 0.35493 0.16353 0.0
C1794 C 0.26667 0.31491 0.19372 0.0
C1795 C 0.27099 0.34969 0.18078 0.0
C1796 C 0.26349 0.37139 0.17777 0.0
C1797 C 0.28534 0.30899 0.18488 0.0
C1798 C 0.2972 0.32373 0.17424 0.0
C1799 C 0.28981 0.34382 0.17209 0.0
C1800 C 0.31652 0.31784 0.16395 0.0
C1801 C 0.29207 0.28689 0.18672 0.0
C1802 C 0.33343 0.31098 0.17541 0.0
C1803 C 0.34961 0.30078 0.1657 0.0
C1804 C 0.34895 0.29723 0.14444 0.0
C1805 C 0.33305 0.30612 0.13283 0.0
C1806 C 0.31697 0.31637 0.14253 0.0
H1807 H 0.27943 0.27676 0.19202 0.0
H1808 H 0.29778 0.28108 0.17176 0.0
H1809 H 0.3048 0.28581 0.19797 0.0
H1810 H 0.3334 0.31223 0.19198 0.0
H1811 H 0.36162 0.29411 0.17505 0.0
H1812 H 0.32868 0.7046 0.82433 0.0
H1813 H 0.29568 0.68758 0.8184 0.0
H1814 H 0.29139 0.67329 0.88288 0.0
H1815 H 0.32389 0.69105 0.88893 0.0
H1816 H 0.27631 0.65122 0.82487 0.0
H1817 H 0.24321 0.71154 0.8751 0.0
H1818 H 0.26958 0.71194 0.86682 0.0
H1819 H 0.26178 0.6955 0.88759 0.0
C1820 C 0.3211 0.69705 0.83705 0.0
C1821 C 0.3287 0.69913 0.85707 0.0
C1822 C 0.30215 0.68751 0.83371 0.0
C1823 C 0.29076 0.67983 0.85034 0.0
C1824 C 0.29961 0.6797 0.86995 0.0
H1825 H 0.17355 0.62153 0.82263 0.0
H1826 H 0.20561 0.62866 0.84081 0.0
C1827 C 0.31832 0.68953 0.87334 0.0
C1828 C 0.26893 0.67406 0.84747 0.0
H1829 H 0.22013 0.68736 0.86139 0.0
C1830 C 0.26402 0.65897 0.83297 0.0
C1831 C 0.25289 0.68454 0.85779 0.0
C1832 C 0.25705 0.70192 0.87255 0.0
C1833 C 0.24355 0.65421 0.8283 0.0
C1834 C 0.22752 0.6644 0.83891 0.0
C1835 C 0.23242 0.67933 0.85357 0.0
C1836 C 0.20566 0.66105 0.83352 0.0
C1837 C 0.23935 0.63902 0.81131 0.0
C1838 C 0.194 0.67729 0.82539 0.0
C1839 C 0.17529 0.67334 0.81564 0.0
C1840 C 0.16822 0.6531 0.81375 0.0
C1841 C 0.17869 0.63729 0.82401 0.0
C1842 C 0.19716 0.64129 0.83407 0.0
H1843 H 0.25308 0.63643 0.80155 0.0
H1844 H 0.23492 0.62405 0.81811 0.0
H1845 H 0.2266 0.64436 0.80135 0.0
H1846 H 0.20018 0.69271 0.825 0.0
H1847 H 0.16766 0.68572 0.80757 0.0
H1848 H 0.32164 0.31657 0.81468 0.0
H1849 H 0.34285 0.28683 0.82218 0.0
H1850 H 0.35564 0.3109 0.88252 0.0
H1851 H 0.33381 0.34081 0.87501 0.0
H1852 H 0.3812 0.27597 0.83539 0.0
H1853 H 0.32264 0.25987 0.89567 0.0
H1854 H 0.31942 0.28085 0.87796 0.0
H1855 H 0.3383 0.28247 0.89797 0.0
C1856 C 0.32969 0.31595 0.82922 0.0
C1857 C 0.32612 0.33088 0.84427 0.0
C1858 C 0.34179 0.29891 0.83356 0.0
C1859 C 0.35045 0.29633 0.85311 0.0
C1860 C 0.34878 0.31236 0.86747 0.0
H1861 H 0.38203 0.16744 0.83569 0.0
H1862 H 0.38809 0.19864 0.85605 0.0
C1863 C 0.33659 0.32959 0.86307 0.0
C1864 C 0.35796 0.27554 0.85874 0.0
H1865 H 0.33979 0.23203 0.8816 0.0
C1866 C 0.37272 0.26638 0.84603 0.0
C1867 C 0.34694 0.26309 0.87276 0.0
C1868 C 0.33088 0.27193 0.88687 0.0
C1869 C 0.37474 0.24495 0.84489 0.0
C1870 C 0.36205 0.23239 0.85732 0.0
C1871 C 0.34939 0.24168 0.87204 0.0
C1872 C 0.35754 0.21083 0.85142 0.0
C1873 C 0.3887 0.236 0.82872 0.0
C1874 C 0.33787 0.20642 0.84381 0.0
C1875 C 0.33435 0.18859 0.83261 0.0
C1876 C 0.35036 0.17474 0.82892 0.0
C1877 C 0.36936 0.17779 0.83862 0.0
C1878 C 0.37292 0.19577 0.84993 0.0
H1879 H 0.39638 0.24802 0.8194 0.0
H1880 H 0.40073 0.2266 0.83621 0.0
H1881 H 0.37987 0.2259 0.81823 0.0
H1882 H 0.3257 0.21771 0.84478 0.0
H1883 H 0.31965 0.18665 0.82507 0.0
H1884 H 0.67173 0.31311 0.87996 0.0
H1885 H 0.70453 0.33068 0.87525 0.0
H1886 H 0.698 0.3247 0.80963 0.0
H1887 H 0.66475 0.30803 0.81442 0.0
H1888 H 0.73571 0.31115 0.86065 0.0
H1889 H 0.72456 0.3795 0.81203 0.0
H1890 H 0.7034 0.36682 0.82458 0.0
H1891 H 0.71293 0.35752 0.80034 0.0
C1892 C 0.67681 0.31664 0.86453 0.0
C1893 C 0.66563 0.30962 0.84753 0.0
C1894 C 0.69567 0.32644 0.86184 0.0
C1895 C 0.70383 0.32906 0.84208 0.0
C1896 C 0.6919 0.32337 0.82501 0.0
H1897 H 0.82651 0.31455 0.80024 0.0
H1898 H 0.79376 0.31007 0.81799 0.0
C1899 C 0.67282 0.31389 0.82772 0.0
C1900 C 0.72581 0.33464 0.83949 0.0
H1901 H 0.7583 0.36395 0.81087 0.0
C1902 C 0.74063 0.323 0.85005 0.0
C1903 C 0.73237 0.35022 0.82591 0.0
C1904 C 0.71744 0.36435 0.81526 0.0
C1905 C 0.7617 0.32588 0.8467 0.0
C1906 C 0.76819 0.34036 0.83192 0.0
C1907 C 0.75342 0.35266 0.82208 0.0
C1908 C 0.78997 0.34229 0.82536 0.0
C1909 C 0.77673 0.31329 0.85901 0.0
C1910 C 0.7991 0.36175 0.824 0.0
C1911 C 0.81763 0.3643 0.81359 0.0
C1912 C 0.82756 0.34741 0.80466 0.0
C1913 C 0.81943 0.3277 0.80754 0.0
C1914 C 0.80065 0.32517 0.81765 0.0
H1915 H 0.77024 0.30911 0.87421 0.0
H1916 H 0.78002 0.2988 0.8507 0.0
H1917 H 0.79138 0.32162 0.86145 0.0
H1918 H 0.79122 0.37518 0.82981 0.0
H1919 H 0.82345 0.3797 0.8112 0.0
H1920 H 0.69701 0.6585 0.82483 0.0
H1921 H 0.6768 0.68893 0.8157 0.0
H1922 H 0.68166 0.71089 0.87791 0.0
H1923 H 0.70128 0.68044 0.88717 0.0
H1924 H 0.64581 0.72387 0.85918 0.0
H1925 H 0.71456 0.73906 0.81116 0.0
H1926 H 0.70094 0.71606 0.80451 0.0
H1927 H 0.71332 0.71804 0.82909 0.0
C1928 C 0.69283 0.66929 0.83676 0.0
C1929 C 0.70097 0.66734 0.8566 0.0
C1930 C 0.68155 0.68681 0.83148 0.0
C1931 C 0.67841 0.70247 0.84598 0.0
C1932 C 0.68413 0.69913 0.86642 0.0
H1933 H 0.6764 0.83101 0.80937 0.0
H1934 H 0.68403 0.7998 0.82911 0.0
C1935 C 0.6953 0.68168 0.8717 0.0
C1936 C 0.67233 0.72342 0.83952 0.0
H1937 H 0.68828 0.7638 0.81024 0.0
C1938 C 0.65502 0.73261 0.84843 0.0
C1939 C 0.68485 0.73507 0.82612 0.0
C1940 C 0.70457 0.72669 0.8173 0.0
C1941 C 0.64955 0.75295 0.84379 0.0
C1942 C 0.66154 0.76424 0.82961 0.0
C1943 C 0.6791 0.75518 0.82113 0.0
C1944 C 0.65533 0.78471 0.82181 0.0
C1945 C 0.63117 0.76222 0.85433 0.0
C1946 C 0.63645 0.78686 0.8118 0.0
C1947 C 0.63207 0.80459 0.80072 0.0
C1948 C 0.64658 0.82051 0.79917 0.0
C1949 C 0.66491 0.81905 0.81038 0.0
C1950 C 0.6693 0.80119 0.82155 0.0
H1951 H 0.62848 0.75496 0.86953 0.0
H1952 H 0.63302 0.77901 0.85653 0.0
H1953 H 0.61732 0.75951 0.84481 0.0
H1954 H 0.6256 0.77428 0.81136 0.0
H1955 H 0.61773 0.80531 0.79233 0.0
H1956 H 0.65013 0.71768 0.18496 0.0
H1957 H 0.67952 0.69768 0.19745 0.0
H1958 H 0.70456 0.6962 0.13624 0.0
H1959 H 0.6752 0.71556 0.12366 0.0
H1960 H 0.71313 0.66103 0.15716 0.0
H1961 H 0.73287 0.7299 0.20332 0.0
H1962 H 0.70841 0.7188 0.20939 0.0
H1963 H 0.71261 0.72995 0.1845 0.0
C1964 C 0.66151 0.7124 0.17407 0.0
C1965 C 0.66054 0.71845 0.15341 0.0
C1966 C 0.67843 0.70123 0.18126 0.0
C1967 C 0.69455 0.69607 0.16787 0.0
C1968 C 0.69246 0.70023 0.14689 0.0
H1969 H 0.82194 0.68178 0.207 0.0
H1970 H 0.79111 0.69271 0.18822 0.0
C1971 C 0.67563 0.71131 0.13973 0.0
C1972 C 0.71447 0.68832 0.17571 0.0
H1973 H 0.75489 0.70134 0.20638 0.0
C1974 C 0.72225 0.66979 0.16797 0.0
C1975 C 0.72666 0.70013 0.18928 0.0
C1976 C 0.71986 0.7209 0.19698 0.0
C1977 C 0.74169 0.66252 0.1738 0.0
C1978 C 0.75348 0.67391 0.18806 0.0
C1979 C 0.74585 0.69261 0.19547 0.0
C1980 C 0.77307 0.66611 0.19666 0.0
C1981 C 0.74952 0.64289 0.16436 0.0
C1982 C 0.77327 0.64742 0.20727 0.0
C1983 C 0.79076 0.64116 0.21782 0.0
C1984 C 0.80845 0.65355 0.21826 0.0
C1985 C 0.80861 0.67186 0.20688 0.0
C1986 C 0.79099 0.67815 0.19624 0.0
H1987 H 0.7424 0.64007 0.14913 0.0
H1988 H 0.76644 0.64319 0.16251 0.0
H1989 H 0.74544 0.62981 0.17447 0.0
H1990 H 0.75957 0.63808 0.20823 0.0
H1991 H 0.79009 0.6269 0.22636 0.0
H1992 H 0.34868 0.83021 0.19286 0.0
H1993 H 0.34765 0.80001 0.17025 0.0
H1994 H 0.35251 0.76029 0.22297 0.0
H1995 H 0.354 0.78995 0.24536 0.0
H1996 H 0.37703 0.74736 0.19106 0.0
H1997 H 0.29728 0.76355 0.16481 0.0
H1998 H 0.31599 0.78323 0.1601 0.0
H1999 H 0.3088 0.7771 0.18598 0.0
C2000 C 0.34955 0.81501 0.19957 0.0
C2001 C 0.35124 0.81252 0.22093 0.0
C2002 C 0.34895 0.7978 0.18665 0.0
C2003 C 0.34984 0.77789 0.19496 0.0
C2004 C 0.3519 0.77548 0.2162 0.0
H2005 H 0.31913 0.65484 0.18031 0.0
H2006 H 0.33888 0.68581 0.18811 0.0
C2007 C 0.35261 0.79253 0.22902 0.0
C2008 C 0.34752 0.75929 0.18208 0.0
H2009 H 0.31175 0.73231 0.15514 0.0
C2010 C 0.3629 0.74417 0.18288 0.0
C2011 C 0.32909 0.75516 0.17143 0.0
C2012 C 0.31174 0.7705 0.17056 0.0
C2013 C 0.35995 0.72471 0.17407 0.0
C2014 C 0.34111 0.72026 0.16438 0.0
C2015 C 0.32624 0.73577 0.16255 0.0
C2016 C 0.33525 0.69924 0.15791 0.0
C2017 C 0.37683 0.70898 0.17563 0.0
C2018 C 0.32751 0.69603 0.1381 0.0
C2019 C 0.3161 0.67846 0.13373 0.0
C2020 C 0.31234 0.66377 0.14907 0.0
C2021 C 0.32208 0.66579 0.16815 0.0
C2022 C 0.33336 0.68353 0.17261 0.0
H2023 H 0.3921 0.71643 0.177 0.0
H2024 H 0.37439 0.69953 0.18957 0.0
H2025 H 0.37692 0.69864 0.16209 0.0
H2026 H 0.32877 0.70791 0.12654 0.0
H2027 H 0.30867 0.67725 0.11891 0.0
H2028 H 0.69935 0.33095 0.18169 0.0
H2029 H 0.6821 0.29911 0.19213 0.0
H2030 H 0.68589 0.2766 0.13003 0.0
H2031 H 0.70247 0.30835 0.11946 0.0
H2032 H 0.65094 0.26357 0.14895 0.0
H2033 H 0.71959 0.24921 0.19733 0.0
H2034 H 0.70587 0.27217 0.20387 0.0
H2035 H 0.71823 0.27014 0.17929 0.0
C2036 C 0.69583 0.31951 0.17017 0.0
C2037 C 0.70258 0.32196 0.14986 0.0
C2038 C 0.68621 0.30124 0.17617 0.0
C2039 C 0.68334 0.28526 0.16195 0.0
C2040 C 0.68817 0.28861 0.1413 0.0
H2041 H 0.68023 0.158 0.20306 0.0
H2042 H 0.68827 0.18797 0.1816 0.0
C2043 C 0.69769 0.30678 0.1353 0.0
C2044 C 0.67743 0.26436 0.16869 0.0
H2045 H 0.69304 0.22463 0.199 0.0
C2046 C 0.66012 0.25503 0.1599 0.0
C2047 C 0.68986 0.25297 0.18239 0.0
C2048 C 0.70954 0.26151 0.19113 0.0
C2049 C 0.65452 0.23484 0.16498 0.0
C2050 C 0.66635 0.22386 0.17952 0.0
C2051 C 0.68398 0.23301 0.18783 0.0
C2052 C 0.65977 0.20381 0.18804 0.0
C2053 C 0.6361 0.22545 0.15459 0.0
C2054 C 0.64081 0.20241 0.19804 0.0
C2055 C 0.63621 0.18537 0.21006 0.0
C2056 C 0.65055 0.16945 0.21255 0.0
C2057 C 0.66886 0.16998 0.20126 0.0
C2058 C 0.67349 0.18715 0.18914 0.0
H2059 H 0.63369 0.23217 0.13911 0.0
H2060 H 0.6377 0.20856 0.15305 0.0
H2061 H 0.6222 0.22875 0.16383 0.0
H2062 H 0.63015 0.21515 0.19784 0.0
H2063 H 0.62194 0.18532 0.21859 0.0
loop_
_geom_bond_atom_site_label_1
_geom_bond_atom_site_label_2
_geom_bond_distance
_geom_bond_site_symmetry_2
_ccdc_geom_bond_type
O0 Cd1 2.223 . S
O0 C8 1.315 . S
Cd1 O0 2.223 . S
Cd1 O4 2.297 . S
Cd1 O5 2.439 . S
Cd1 O11 2.240 . S
Cd2 O3 2.240 . S
Cd2 O10 2.223 . S
Cd2 O12 2.297 . S
Cd2 O13 2.439 . S
O3 Cd2 2.240 . S
O3 C8 1.279 . S
O4 Cd1 2.297 . S
O4 C6 1.247 . S
O5 Cd1 2.439 . S
O5 C6 1.208 . S
C6 O4 1.247 . S
C6 O5 1.208 . S
C7 O12 1.247 . S
C7 O13 1.208 . S
C8 O0 1.315 . S
C8 O3 1.279 . S
C9 O10 1.315 . S
C9 O11 1.279 . S
O10 Cd2 2.223 . S
O10 C9 1.315 . S
O11 Cd1 2.240 . S
O11 C9 1.279 . S
O12 Cd2 2.297 . S
O12 C7 1.247 . S
O13 Cd2 2.439 . S
O13 C7 1.208 . S
O14 Cd15 2.223 . S
O14 C22 1.315 . S
Cd15 O14 2.223 . S
Cd15 O18 2.297 . S
Cd15 O19 2.439 . S
Cd15 O25 2.240 . S
Cd16 O17 2.240 . S
Cd16 O24 2.223 . S
Cd16 O26 2.297 . S
Cd16 O27 2.439 . S
O17 Cd16 2.240 . S
O17 C22 1.279 . S
O18 Cd15 2.297 . S
O18 C20 1.247 . S
O19 Cd15 2.439 . S
O19 C20 1.208 . S
C20 O18 1.247 . S
C20 O19 1.208 . S
C21 O26 1.247 . S
C21 O27 1.208 . S
C22 O14 1.315 . S
C22 O17 1.279 . S
C23 O24 1.315 . S
C23 O25 1.279 . S
O24 Cd16 2.223 . S
O24 C23 1.315 . S
O25 Cd15 2.240 . S
O25 C23 1.279 . S
O26 Cd16 2.297 . S
O26 C21 1.247 . S
O27 Cd16 2.439 . S
O27 C21 1.208 . S
O28 Cd29 2.223 . S
O28 C36 1.315 . S
Cd29 O28 2.223 . S
Cd29 O32 2.297 . S
Cd29 O33 2.439 . S
Cd29 O39 2.240 . S
Cd30 O31 2.240 . S
Cd30 O38 2.223 . S
Cd30 O40 2.297 . S
Cd30 O41 2.439 . S
O31 Cd30 2.240 . S
O31 C36 1.279 . S
O32 Cd29 2.297 . S
O32 C34 1.247 . S
O33 Cd29 2.439 . S
O33 C34 1.208 . S
C34 O32 1.247 . S
C34 O33 1.208 . S
C35 O40 1.247 . S
C35 O41 1.208 . S
C36 O28 1.315 . S
C36 O31 1.279 . S
C37 O38 1.315 . S
C37 O39 1.279 . S
O38 Cd30 2.223 . S
O38 C37 1.315 . S
O39 Cd29 2.240 . S
O39 C37 1.279 . S
O40 Cd30 2.297 . S
O40 C35 1.247 . S
O41 Cd30 2.439 . S
O41 C35 1.208 . S
O42 Cd43 2.223 . S
O42 C50 1.315 . S
Cd43 O42 2.223 . S
Cd43 O46 2.297 . S
Cd43 O47 2.439 . S
Cd43 O53 2.240 . S
Cd44 O45 2.240 . S
Cd44 O52 2.223 . S
Cd44 O54 2.297 . S
Cd44 O55 2.439 . S
O45 Cd44 2.240 . S
O45 C50 1.279 . S
O46 Cd43 2.297 . S
O46 C48 1.247 . S
O47 Cd43 2.439 . S
O47 C48 1.208 . S
C48 O46 1.247 . S
C48 O47 1.208 . S
C49 O54 1.247 . S
C49 O55 1.208 . S
C50 O42 1.315 . S
C50 O45 1.279 . S
C51 O52 1.315 . S
C51 O53 1.279 . S
O52 Cd44 2.223 . S
O52 C51 1.315 . S
O53 Cd43 2.240 . S
O53 C51 1.279 . S
O54 Cd44 2.297 . S
O54 C49 1.247 . S
O55 Cd44 2.439 . S
O55 C49 1.208 . S
O56 Cd57 2.223 . S
O56 C64 1.315 . S
Cd57 O56 2.223 . S
Cd57 O60 2.297 . S
Cd57 O61 2.439 . S
Cd57 O67 2.240 . S
Cd58 O59 2.240 . S
Cd58 O66 2.223 . S
Cd58 O68 2.297 . S
Cd58 O69 2.439 . S
O59 Cd58 2.240 . S
O59 C64 1.279 . S
O60 Cd57 2.297 . S
O60 C62 1.247 . S
O61 Cd57 2.439 . S
O61 C62 1.208 . S
C62 O60 1.247 . S
C62 O61 1.208 . S
C63 O68 1.247 . S
C63 O69 1.208 . S
C64 O56 1.315 . S
C64 O59 1.279 . S
C65 O66 1.315 . S
C65 O67 1.279 . S
O66 Cd58 2.223 . S
O66 C65 1.315 . S
O67 Cd57 2.240 . S
O67 C65 1.279 . S
O68 Cd58 2.297 . S
O68 C63 1.247 . S
O69 Cd58 2.439 . S
O69 C63 1.208 . S
O70 Cd71 2.223 . S
O70 C78 1.315 . S
Cd71 O70 2.223 . S
Cd71 O74 2.297 . S
Cd71 O75 2.439 . S
Cd71 O81 2.240 . S
Cd72 O73 2.240 . S
Cd72 O80 2.223 . S
Cd72 O82 2.297 . S
Cd72 O83 2.439 . S
O73 Cd72 2.240 . S
O73 C78 1.279 . S
O74 Cd71 2.297 . S
O74 C76 1.247 . S
O75 Cd71 2.439 . S
O75 C76 1.208 . S
C76 O74 1.247 . S
C76 O75 1.208 . S
C77 O82 1.247 . S
C77 O83 1.208 . S
C78 O70 1.315 . S
C78 O73 1.279 . S
C79 O80 1.315 . S
C79 O81 1.279 . S
O80 Cd72 2.223 . S
O80 C79 1.315 . S
O81 Cd71 2.240 . S
O81 C79 1.279 . S
O82 Cd72 2.297 . S
O82 C77 1.247 . S
O83 Cd72 2.439 . S
O83 C77 1.208 . S
O84 Cd85 2.223 . S
O84 C92 1.315 . S
Cd85 O84 2.223 . S
Cd85 O88 2.297 . S
Cd85 O89 2.439 . S
Cd85 O95 2.240 . S
Cd86 O87 2.240 . S
Cd86 O94 2.223 . S
Cd86 O96 2.297 . S
Cd86 O97 2.439 . S
O87 Cd86 2.240 . S
O87 C92 1.279 . S
O88 Cd85 2.297 . S
O88 C90 1.247 . S
O89 Cd85 2.439 . S
O89 C90 1.208 . S
C90 O88 1.247 . S
C90 O89 1.208 . S
C91 O96 1.247 . S
C91 O97 1.208 . S
C92 O84 1.315 . S
C92 O87 1.279 . S
C93 O94 1.315 . S
C93 O95 1.279 . S
O94 Cd86 2.223 . S
O94 C93 1.315 . S
O95 Cd85 2.240 . S
O95 C93 1.279 . S
O96 Cd86 2.297 . S
O96 C91 1.247 . S
O97 Cd86 2.439 . S
O97 C91 1.208 . S
O98 Cd99 2.223 . S
O98 C106 1.315 . S
Cd99 O98 2.223 . S
Cd99 O102 2.297 . S
Cd99 O103 2.439 . S
Cd99 O109 2.240 . S
Cd100 O101 2.240 . S
Cd100 O108 2.223 . S
Cd100 O110 2.297 . S
Cd100 O111 2.439 . S
O101 Cd100 2.240 . S
O101 C106 1.279 . S
O102 Cd99 2.297 . S
O102 C104 1.247 . S
O103 Cd99 2.439 . S
O103 C104 1.208 . S
C104 O102 1.247 . S
C104 O103 1.208 . S
C105 O110 1.247 . S
C105 O111 1.208 . S
C106 O98 1.315 . S
C106 O101 1.279 . S
C107 O108 1.315 . S
C107 O109 1.279 . S
O108 Cd100 2.223 . S
O108 C107 1.315 . S
O109 Cd99 2.240 . S
O109 C107 1.279 . S
O110 Cd100 2.297 . S
O110 C105 1.247 . S
O111 Cd100 2.439 . S
O111 C105 1.208 . S
O112 Cd113 2.223 . S
O112 C120 1.315 . S
Cd113 O112 2.223 . S
Cd113 O116 2.297 . S
Cd113 O117 2.439 . S
Cd113 O123 2.240 . S
Cd114 O115 2.240 . S
Cd114 O122 2.223 . S
Cd114 O124 2.297 . S
Cd114 O125 2.439 . S
O115 Cd114 2.240 . S
O115 C120 1.279 . S
O116 Cd113 2.297 . S
O116 C118 1.247 . S
O117 Cd113 2.439 . S
O117 C118 1.208 . S
C118 O116 1.247 . S
C118 O117 1.208 . S
C119 O124 1.247 . S
C119 O125 1.208 . S
C120 O112 1.315 . S
C120 O115 1.279 . S
C121 O122 1.315 . S
C121 O123 1.279 . S
O122 Cd114 2.223 . S
O122 C121 1.315 . S
O123 Cd113 2.240 . S
O123 C121 1.279 . S
O124 Cd114 2.297 . S
O124 C119 1.247 . S
O125 Cd114 2.439 . S
O125 C119 1.208 . S
O126 Cd127 2.223 . S
O126 C134 1.315 . S
Cd127 O126 2.223 . S
Cd127 O130 2.297 . S
Cd127 O131 2.439 . S
Cd127 O137 2.240 . S
Cd128 O129 2.240 . S
Cd128 O136 2.223 . S
Cd128 O138 2.297 . S
Cd128 O139 2.439 . S
O129 Cd128 2.240 . S
O129 C134 1.279 . S
O130 Cd127 2.297 . S
O130 C132 1.247 . S
O131 Cd127 2.439 . S
O131 C132 1.208 . S
C132 O130 1.247 . S
C132 O131 1.208 . S
C133 O138 1.247 . S
C133 O139 1.208 . S
C134 O126 1.315 . S
C134 O129 1.279 . S
C135 O136 1.315 . S
C135 O137 1.279 . S
O136 Cd128 2.223 . S
O136 C135 1.315 . S
O137 Cd127 2.240 . S
O137 C135 1.279 . S
O138 Cd128 2.297 . S
O138 C133 1.247 . S
O139 Cd128 2.439 . S
O139 C133 1.208 . S
O140 Cd141 2.223 . S
O140 C148 1.315 . S
Cd141 O140 2.223 . S
Cd141 O144 2.297 . S
Cd141 O145 2.439 . S
Cd141 O151 2.240 . S
Cd142 O143 2.240 . S
Cd142 O150 2.223 . S
Cd142 O152 2.297 . S
Cd142 O153 2.439 . S
O143 Cd142 2.240 . S
O143 C148 1.279 . S
O144 Cd141 2.297 . S
O144 C146 1.247 . S
O145 Cd141 2.439 . S
O145 C146 1.208 . S
C146 O144 1.247 . S
C146 O145 1.208 . S
C147 O152 1.247 . S
C147 O153 1.208 . S
C148 O140 1.315 . S
C148 O143 1.279 . S
C149 O150 1.315 . S
C149 O151 1.279 . S
O150 Cd142 2.223 . S
O150 C149 1.315 . S
O151 Cd141 2.240 . S
O151 C149 1.279 . S
O152 Cd142 2.297 . S
O152 C147 1.247 . S
O153 Cd142 2.439 . S
O153 C147 1.208 . S
O154 Cd155 2.223 . S
O154 C162 1.315 . S
Cd155 O154 2.223 . S
Cd155 O158 2.297 . S
Cd155 O159 2.439 . S
Cd155 O165 2.240 . S
Cd156 O157 2.240 . S
Cd156 O164 2.223 . S
Cd156 O166 2.297 . S
Cd156 O167 2.439 . S
O157 Cd156 2.240 . S
O157 C162 1.279 . S
O158 Cd155 2.297 . S
O158 C160 1.247 . S
O159 Cd155 2.439 . S
O159 C160 1.208 . S
C160 O158 1.247 . S
C160 O159 1.208 . S
C161 O166 1.247 . S
C161 O167 1.208 . S
C162 O154 1.315 . S
C162 O157 1.279 . S
C163 O164 1.315 . S
C163 O165 1.279 . S
O164 Cd156 2.223 . S
O164 C163 1.315 . S
O165 Cd155 2.240 . S
O165 C163 1.279 . S
O166 Cd156 2.297 . S
O166 C161 1.247 . S
O167 Cd156 2.439 . S
O167 C161 1.208 . S
O168 Cd169 2.223 . S
O168 C176 1.315 . S
Cd169 O168 2.223 . S
Cd169 O172 2.297 . S
Cd169 O173 2.439 . S
Cd169 O179 2.240 . S
Cd170 O171 2.240 . S
Cd170 O178 2.223 . S
Cd170 O180 2.297 . S
Cd170 O181 2.439 . S
O171 Cd170 2.240 . S
O171 C176 1.279 . S
O172 Cd169 2.297 . S
O172 C174 1.247 . S
O173 Cd169 2.439 . S
O173 C174 1.208 . S
C174 O172 1.247 . S
C174 O173 1.208 . S
C175 O180 1.247 . S
C175 O181 1.208 . S
C176 O168 1.315 . S
C176 O171 1.279 . S
C177 O178 1.315 . S
C177 O179 1.279 . S
O178 Cd170 2.223 . S
O178 C177 1.315 . S
O179 Cd169 2.240 . S
O179 C177 1.279 . S
O180 Cd170 2.297 . S
O180 C175 1.247 . S
O181 Cd170 2.439 . S
O181 C175 1.208 . S
O182 Cd183 2.223 . S
O182 C190 1.315 . S
Cd183 O182 2.223 . S
Cd183 O186 2.297 . S
Cd183 O187 2.439 . S
Cd183 O193 2.240 . S
Cd184 O185 2.240 . S
Cd184 O192 2.223 . S
Cd184 O194 2.297 . S
Cd184 O195 2.439 . S
O185 Cd184 2.240 . S
O185 C190 1.279 . S
O186 Cd183 2.297 . S
O186 C188 1.247 . S
O187 Cd183 2.439 . S
O187 C188 1.208 . S
C188 O186 1.247 . S
C188 O187 1.208 . S
C189 O194 1.247 . S
C189 O195 1.208 . S
C190 O182 1.315 . S
C190 O185 1.279 . S
C191 O192 1.315 . S
C191 O193 1.279 . S
O192 Cd184 2.223 . S
O192 C191 1.315 . S
O193 Cd183 2.240 . S
O193 C191 1.279 . S
O194 Cd184 2.297 . S
O194 C189 1.247 . S
O195 Cd184 2.439 . S
O195 C189 1.208 . S
O196 Cd197 2.223 . S
O196 C204 1.315 . S
Cd197 O196 2.223 . S
Cd197 O200 2.297 . S
Cd197 O201 2.439 . S
Cd197 O207 2.240 . S
Cd198 O199 2.240 . S
Cd198 O206 2.223 . S
Cd198 O208 2.297 . S
Cd198 O209 2.439 . S
O199 Cd198 2.240 . S
O199 C204 1.279 . S
O200 Cd197 2.297 . S
O200 C202 1.247 . S
O201 Cd197 2.439 . S
O201 C202 1.208 . S
C202 O200 1.247 . S
C202 O201 1.208 . S
C203 O208 1.247 . S
C203 O209 1.208 . S
C204 O196 1.315 . S
C204 O199 1.279 . S
C205 O206 1.315 . S
C205 O207 1.279 . S
O206 Cd198 2.223 . S
O206 C205 1.315 . S
O207 Cd197 2.240 . S
O207 C205 1.279 . S
O208 Cd198 2.297 . S
O208 C203 1.247 . S
O209 Cd198 2.439 . S
O209 C203 1.208 . S
O210 Cd211 2.223 . S
O210 C218 1.315 . S
Cd211 O210 2.223 . S
Cd211 O214 2.297 . S
Cd211 O215 2.439 . S
Cd211 O221 2.240 . S
Cd212 O213 2.240 . S
Cd212 O220 2.223 . S
Cd212 O222 2.297 . S
Cd212 O223 2.439 . S
O213 Cd212 2.240 . S
O213 C218 1.279 . S
O214 Cd211 2.297 . S
O214 C216 1.247 . S
O215 Cd211 2.439 . S
O215 C216 1.208 . S
C216 O214 1.247 . S
C216 O215 1.208 . S
C217 O222 1.247 . S
C217 O223 1.208 . S
C218 O210 1.315 . S
C218 O213 1.279 . S
C219 O220 1.315 . S
C219 O221 1.279 . S
O220 Cd212 2.223 . S
O220 C219 1.315 . S
O221 Cd211 2.240 . S
O221 C219 1.279 . S
O222 Cd212 2.297 . S
O222 C217 1.247 . S
O223 Cd212 2.439 . S
O223 C217 1.208 . S
O224 Cd225 2.223 . S
O224 C232 1.315 . S
Cd225 O224 2.223 . S
Cd225 O228 2.297 . S
Cd225 O229 2.439 . S
Cd225 O235 2.240 . S
Cd226 O227 2.240 . S
Cd226 O234 2.223 . S
Cd226 O236 2.297 . S
Cd226 O237 2.439 . S
O227 Cd226 2.240 . S
O227 C232 1.279 . S
O228 Cd225 2.297 . S
O228 C230 1.247 . S
O229 Cd225 2.439 . S
O229 C230 1.208 . S
C230 O228 1.247 . S
C230 O229 1.208 . S
C231 O236 1.247 . S
C231 O237 1.208 . S
C232 O224 1.315 . S
C232 O227 1.279 . S
C233 O234 1.315 . S
C233 O235 1.279 . S
O234 Cd226 2.223 . S
O234 C233 1.315 . S
O235 Cd225 2.240 . S
O235 C233 1.279 . S
O236 Cd226 2.297 . S
O236 C231 1.247 . S
O237 Cd226 2.439 . S
O237 C231 1.208 . S
O238 Cd239 2.223 . S
O238 C246 1.315 . S
Cd239 O238 2.223 . S
Cd239 O242 2.297 . S
Cd239 O243 2.439 . S
Cd239 O249 2.240 . S
Cd240 O241 2.240 . S
Cd240 O248 2.223 . S
Cd240 O250 2.297 . S
Cd240 O251 2.439 . S
O241 Cd240 2.240 . S
O241 C246 1.279 . S
O242 Cd239 2.297 . S
O242 C244 1.247 . S
O243 Cd239 2.439 . S
O243 C244 1.208 . S
C244 O242 1.247 . S
C244 O243 1.208 . S
C245 O250 1.247 . S
C245 O251 1.208 . S
C246 O238 1.315 . S
C246 O241 1.279 . S
C247 O248 1.315 . S
C247 O249 1.279 . S
O248 Cd240 2.223 . S
O248 C247 1.315 . S
O249 Cd239 2.240 . S
O249 C247 1.279 . S
O250 Cd240 2.297 . S
O250 C245 1.247 . S
O251 Cd240 2.439 . S
O251 C245 1.208 . S
O252 Cd253 2.223 . S
O252 C260 1.315 . S
Cd253 O252 2.223 . S
Cd253 O256 2.297 . S
Cd253 O257 2.439 . S
Cd253 O263 2.240 . S
Cd254 O255 2.240 . S
Cd254 O262 2.223 . S
Cd254 O264 2.297 . S
Cd254 O265 2.439 . S
O255 Cd254 2.240 . S
O255 C260 1.279 . S
O256 Cd253 2.297 . S
O256 C258 1.247 . S
O257 Cd253 2.439 . S
O257 C258 1.208 . S
C258 O256 1.247 . S
C258 O257 1.208 . S
C259 O264 1.247 . S
C259 O265 1.208 . S
C260 O252 1.315 . S
C260 O255 1.279 . S
C261 O262 1.315 . S
C261 O263 1.279 . S
O262 Cd254 2.223 . S
O262 C261 1.315 . S
O263 Cd253 2.240 . S
O263 C261 1.279 . S
O264 Cd254 2.297 . S
O264 C259 1.247 . S
O265 Cd254 2.439 . S
O265 C259 1.208 . S
O266 Cd267 2.223 . S
O266 C274 1.315 . S
Cd267 O266 2.223 . S
Cd267 O270 2.297 . S
Cd267 O271 2.439 . S
Cd267 O277 2.240 . S
Cd268 O269 2.240 . S
Cd268 O276 2.223 . S
Cd268 O278 2.297 . S
Cd268 O279 2.439 . S
O269 Cd268 2.240 . S
O269 C274 1.279 . S
O270 Cd267 2.297 . S
O270 C272 1.247 . S
O271 Cd267 2.439 . S
O271 C272 1.208 . S
C272 O270 1.247 . S
C272 O271 1.208 . S
C273 O278 1.247 . S
C273 O279 1.208 . S
C274 O266 1.315 . S
C274 O269 1.279 . S
C275 O276 1.315 . S
C275 O277 1.279 . S
O276 Cd268 2.223 . S
O276 C275 1.315 . S
O277 Cd267 2.240 . S
O277 C275 1.279 . S
O278 Cd268 2.297 . S
O278 C273 1.247 . S
O279 Cd268 2.439 . S
O279 C273 1.208 . S
O280 Cd281 2.223 . S
O280 C288 1.315 . S
Cd281 O280 2.223 . S
Cd281 O284 2.297 . S
Cd281 O285 2.439 . S
Cd281 O291 2.240 . S
Cd282 O283 2.240 . S
Cd282 O290 2.223 . S
Cd282 O292 2.297 . S
Cd282 O293 2.439 . S
O283 Cd282 2.240 . S
O283 C288 1.279 . S
O284 Cd281 2.297 . S
O284 C286 1.247 . S
O285 Cd281 2.439 . S
O285 C286 1.208 . S
C286 O284 1.247 . S
C286 O285 1.208 . S
C287 O292 1.247 . S
C287 O293 1.208 . S
C288 O280 1.315 . S
C288 O283 1.279 . S
C289 O290 1.315 . S
C289 O291 1.279 . S
O290 Cd282 2.223 . S
O290 C289 1.315 . S
O291 Cd281 2.240 . S
O291 C289 1.279 . S
O292 Cd282 2.297 . S
O292 C287 1.247 . S
O293 Cd282 2.439 . S
O293 C287 1.208 . S
O294 Cd295 2.223 . S
O294 C302 1.315 . S
Cd295 O294 2.223 . S
Cd295 O298 2.297 . S
Cd295 O299 2.439 . S
Cd295 O305 2.240 . S
Cd296 O297 2.240 . S
Cd296 O304 2.223 . S
Cd296 O306 2.297 . S
Cd296 O307 2.439 . S
O297 Cd296 2.240 . S
O297 C302 1.279 . S
O298 Cd295 2.297 . S
O298 C300 1.247 . S
O299 Cd295 2.439 . S
O299 C300 1.208 . S
C300 O298 1.247 . S
C300 O299 1.208 . S
C301 O306 1.247 . S
C301 O307 1.208 . S
C302 O294 1.315 . S
C302 O297 1.279 . S
C303 O304 1.315 . S
C303 O305 1.279 . S
O304 Cd296 2.223 . S
O304 C303 1.315 . S
O305 Cd295 2.240 . S
O305 C303 1.279 . S
O306 Cd296 2.297 . S
O306 C301 1.247 . S
O307 Cd296 2.439 . S
O307 C301 1.208 . S
O308 Cd309 2.223 . S
O308 C316 1.315 . S
Cd309 O308 2.223 . S
Cd309 O312 2.297 . S
Cd309 O313 2.439 . S
Cd309 O319 2.240 . S
Cd310 O311 2.240 . S
Cd310 O318 2.223 . S
Cd310 O320 2.297 . S
Cd310 O321 2.439 . S
O311 Cd310 2.240 . S
O311 C316 1.279 . S
O312 Cd309 2.297 . S
O312 C314 1.247 . S
O313 Cd309 2.439 . S
O313 C314 1.208 . S
C314 O312 1.247 . S
C314 O313 1.208 . S
C315 O320 1.247 . S
C315 O321 1.208 . S
C316 O308 1.315 . S
C316 O311 1.279 . S
C317 O318 1.315 . S
C317 O319 1.279 . S
O318 Cd310 2.223 . S
O318 C317 1.315 . S
O319 Cd309 2.240 . S
O319 C317 1.279 . S
O320 Cd310 2.297 . S
O320 C315 1.247 . S
O321 Cd310 2.439 . S
O321 C315 1.208 . S
O322 Cd323 2.223 . S
O322 C330 1.315 . S
Cd323 O322 2.223 . S
Cd323 O326 2.297 . S
Cd323 O327 2.439 . S
Cd323 O333 2.240 . S
Cd324 O325 2.240 . S
Cd324 O332 2.223 . S
Cd324 O334 2.297 . S
Cd324 O335 2.439 . S
O325 Cd324 2.240 . S
O325 C330 1.279 . S
O326 Cd323 2.297 . S
O326 C328 1.247 . S
O327 Cd323 2.439 . S
O327 C328 1.208 . S
C328 O326 1.247 . S
C328 O327 1.208 . S
C329 O334 1.247 . S
C329 O335 1.208 . S
C330 O322 1.315 . S
C330 O325 1.279 . S
C331 O332 1.315 . S
C331 O333 1.279 . S
O332 Cd324 2.223 . S
O332 C331 1.315 . S
O333 Cd323 2.240 . S
O333 C331 1.279 . S
O334 Cd324 2.297 . S
O334 C329 1.247 . S
O335 Cd324 2.439 . S
O335 C329 1.208 . S
H336 C344 0.929 . S
H337 C346 0.930 . S
H338 C348 0.930 . S
H339 C351 0.929 . S
H340 C354 0.930 . S
H341 C356 0.960 . S
H342 C356 0.960 . S
H343 C356 0.960 . S
C344 H336 0.929 . S
C344 C345 1.377 . S
C344 C346 1.384 . S
C345 C344 1.377 . S
C345 C351 1.390 . S
C346 H337 0.930 . S
C346 C344 1.384 . S
C346 C347 1.372 . S
C347 C346 1.372 . S
C347 C348 1.400 . S
C347 C352 1.490 . S
C348 H338 0.930 . S
C348 C347 1.400 . S
C348 C351 1.386 . S
H349 C365 0.930 . S
H350 C366 0.931 . S
C351 H339 0.929 . S
C351 C345 1.390 . S
C351 C348 1.386 . S
C352 C347 1.490 . S
C352 C354 1.395 . S
C352 C355 1.403 . S
H353 C359 0.930 . S
C354 H340 0.930 . S
C354 C352 1.395 . S
C354 C357 1.403 . S
C355 C352 1.403 . S
C355 C356 1.524 . S
C355 C359 1.400 . S
C356 H341 0.960 . S
C356 H342 0.960 . S
C356 H343 0.960 . S
C356 C355 1.524 . S
C357 C354 1.403 . S
C357 C358 1.392 . S
C357 C361 1.495 . S
C358 C357 1.392 . S
C358 C359 1.385 . S
C358 C360 1.478 . S
C359 H353 0.930 . S
C359 C355 1.400 . S
C359 C358 1.385 . S
C360 C358 1.478 . S
C360 C362 1.381 . S
C360 C366 1.383 . S
C361 C357 1.495 . S
C361 H367 0.959 . S
C361 H368 0.961 . S
C361 H369 0.960 . S
C362 C360 1.381 . S
C362 C363 1.394 . S
C362 H370 0.930 . S
C363 C362 1.394 . S
C363 C364 1.383 . S
C363 H371 0.929 . S
C364 C363 1.383 . S
C364 C365 1.377 . S
C365 H349 0.930 . S
C365 C364 1.377 . S
C365 C366 1.379 . S
C366 H350 0.931 . S
C366 C360 1.383 . S
C366 C365 1.379 . S
H367 C361 0.959 . S
H368 C361 0.961 . S
H369 C361 0.960 . S
H370 C362 0.930 . S
H371 C363 0.929 . S
H372 C380 0.929 . S
H373 C382 0.930 . S
H374 C384 0.930 . S
H375 C387 0.929 . S
H376 C390 0.930 . S
H377 C392 0.960 . S
H378 C392 0.960 . S
H379 C392 0.960 . S
C380 H372 0.929 . S
C380 C381 1.377 . S
C380 C382 1.384 . S
C381 C380 1.377 . S
C381 C387 1.390 . S
C382 H373 0.930 . S
C382 C380 1.384 . S
C382 C383 1.372 . S
C383 C382 1.372 . S
C383 C384 1.400 . S
C383 C388 1.490 . S
C384 H374 0.930 . S
C384 C383 1.400 . S
C384 C387 1.386 . S
H385 C401 0.930 . S
H386 C402 0.931 . S
C387 H375 0.929 . S
C387 C381 1.390 . S
C387 C384 1.386 . S
C388 C383 1.490 . S
C388 C390 1.395 . S
C388 C391 1.403 . S
H389 C395 0.930 . S
C390 H376 0.930 . S
C390 C388 1.395 . S
C390 C393 1.403 . S
C391 C388 1.403 . S
C391 C392 1.524 . S
C391 C395 1.400 . S
C392 H377 0.960 . S
C392 H378 0.960 . S
C392 H379 0.960 . S
C392 C391 1.524 . S
C393 C390 1.403 . S
C393 C394 1.392 . S
C393 C397 1.495 . S
C394 C393 1.392 . S
C394 C395 1.385 . S
C394 C396 1.478 . S
C395 H389 0.930 . S
C395 C391 1.400 . S
C395 C394 1.385 . S
C396 C394 1.478 . S
C396 C398 1.381 . S
C396 C402 1.383 . S
C397 C393 1.495 . S
C397 H403 0.959 . S
C397 H404 0.961 . S
C397 H405 0.960 . S
C398 C396 1.381 . S
C398 C399 1.394 . S
C398 H406 0.930 . S
C399 C398 1.394 . S
C399 C400 1.383 . S
C399 H407 0.929 . S
C400 C399 1.383 . S
C400 C401 1.377 . S
C401 H385 0.930 . S
C401 C400 1.377 . S
C401 C402 1.379 . S
C402 H386 0.931 . S
C402 C396 1.383 . S
C402 C401 1.379 . S
H403 C397 0.959 . S
H404 C397 0.961 . S
H405 C397 0.960 . S
H406 C398 0.930 . S
H407 C399 0.929 . S
H408 C416 0.929 . S
H409 C418 0.930 . S
H410 C420 0.930 . S
H411 C423 0.929 . S
H412 C426 0.930 . S
H413 C428 0.960 . S
H414 C428 0.960 . S
H415 C428 0.960 . S
C416 H408 0.929 . S
C416 C417 1.377 . S
C416 C418 1.384 . S
C417 C416 1.377 . S
C417 C423 1.390 . S
C418 H409 0.930 . S
C418 C416 1.384 . S
C418 C419 1.372 . S
C419 C418 1.372 . S
C419 C420 1.400 . S
C419 C424 1.490 . S
C420 H410 0.930 . S
C420 C419 1.400 . S
C420 C423 1.386 . S
H421 C437 0.930 . S
H422 C438 0.931 . S
C423 H411 0.929 . S
C423 C417 1.390 . S
C423 C420 1.386 . S
C424 C419 1.490 . S
C424 C426 1.395 . S
C424 C427 1.403 . S
H425 C431 0.930 . S
C426 H412 0.930 . S
C426 C424 1.395 . S
C426 C429 1.403 . S
C427 C424 1.403 . S
C427 C428 1.524 . S
C427 C431 1.400 . S
C428 H413 0.960 . S
C428 H414 0.960 . S
C428 H415 0.960 . S
C428 C427 1.524 . S
C429 C426 1.403 . S
C429 C430 1.392 . S
C429 C433 1.495 . S
C430 C429 1.392 . S
C430 C431 1.385 . S
C430 C432 1.478 . S
C431 H425 0.930 . S
C431 C427 1.400 . S
C431 C430 1.385 . S
C432 C430 1.478 . S
C432 C434 1.381 . S
C432 C438 1.383 . S
C433 C429 1.495 . S
C433 H439 0.959 . S
C433 H440 0.961 . S
C433 H441 0.960 . S
C434 C432 1.381 . S
C434 C435 1.394 . S
C434 H442 0.930 . S
C435 C434 1.394 . S
C435 C436 1.383 . S
C435 H443 0.929 . S
C436 C435 1.383 . S
C436 C437 1.377 . S
C437 H421 0.930 . S
C437 C436 1.377 . S
C437 C438 1.379 . S
C438 H422 0.931 . S
C438 C432 1.383 . S
C438 C437 1.379 . S
H439 C433 0.959 . S
H440 C433 0.961 . S
H441 C433 0.960 . S
H442 C434 0.930 . S
H443 C435 0.929 . S
H444 C452 0.929 . S
H445 C454 0.930 . S
H446 C456 0.930 . S
H447 C459 0.929 . S
H448 C462 0.930 . S
H449 C464 0.960 . S
H450 C464 0.960 . S
H451 C464 0.960 . S
C452 H444 0.929 . S
C452 C453 1.377 . S
C452 C454 1.384 . S
C453 C452 1.377 . S
C453 C459 1.390 . S
C454 H445 0.930 . S
C454 C452 1.384 . S
C454 C455 1.372 . S
C455 C454 1.372 . S
C455 C456 1.400 . S
C455 C460 1.490 . S
C456 H446 0.930 . S
C456 C455 1.400 . S
C456 C459 1.386 . S
H457 C473 0.930 . S
H458 C474 0.931 . S
C459 H447 0.929 . S
C459 C453 1.390 . S
C459 C456 1.386 . S
C460 C455 1.490 . S
C460 C462 1.395 . S
C460 C463 1.403 . S
H461 C467 0.930 . S
C462 H448 0.930 . S
C462 C460 1.395 . S
C462 C465 1.403 . S
C463 C460 1.403 . S
C463 C464 1.524 . S
C463 C467 1.400 . S
C464 H449 0.960 . S
C464 H450 0.960 . S
C464 H451 0.960 . S
C464 C463 1.524 . S
C465 C462 1.403 . S
C465 C466 1.392 . S
C465 C469 1.495 . S
C466 C465 1.392 . S
C466 C467 1.385 . S
C466 C468 1.478 . S
C467 H461 0.930 . S
C467 C463 1.400 . S
C467 C466 1.385 . S
C468 C466 1.478 . S
C468 C470 1.381 . S
C468 C474 1.383 . S
C469 C465 1.495 . S
C469 H475 0.959 . S
C469 H476 0.961 . S
C469 H477 0.960 . S
C470 C468 1.381 . S
C470 C471 1.394 . S
C470 H478 0.930 . S
C471 C470 1.394 . S
C471 C472 1.383 . S
C471 H479 0.929 . S
C472 C471 1.383 . S
C472 C473 1.377 . S
C473 H457 0.930 . S
C473 C472 1.377 . S
C473 C474 1.379 . S
C474 H458 0.931 . S
C474 C468 1.383 . S
C474 C473 1.379 . S
H475 C469 0.959 . S
H476 C469 0.961 . S
H477 C469 0.960 . S
H478 C470 0.930 . S
H479 C471 0.929 . S
H480 C488 0.929 . S
H481 C490 0.930 . S
H482 C492 0.930 . S
H483 C495 0.929 . S
H484 C498 0.930 . S
H485 C500 0.960 . S
H486 C500 0.960 . S
H487 C500 0.960 . S
C488 H480 0.929 . S
C488 C489 1.377 . S
C488 C490 1.384 . S
C489 C488 1.377 . S
C489 C495 1.390 . S
C490 H481 0.930 . S
C490 C488 1.384 . S
C490 C491 1.372 . S
C491 C490 1.372 . S
C491 C492 1.400 . S
C491 C496 1.490 . S
C492 H482 0.930 . S
C492 C491 1.400 . S
C492 C495 1.386 . S
H493 C509 0.930 . S
H494 C510 0.931 . S
C495 H483 0.929 . S
C495 C489 1.390 . S
C495 C492 1.386 . S
C496 C491 1.490 . S
C496 C498 1.395 . S
C496 C499 1.403 . S
H497 C503 0.930 . S
C498 H484 0.930 . S
C498 C496 1.395 . S
C498 C501 1.403 . S
C499 C496 1.403 . S
C499 C500 1.524 . S
C499 C503 1.400 . S
C500 H485 0.960 . S
C500 H486 0.960 . S
C500 H487 0.960 . S
C500 C499 1.524 . S
C501 C498 1.403 . S
C501 C502 1.392 . S
C501 C505 1.495 . S
C502 C501 1.392 . S
C502 C503 1.385 . S
C502 C504 1.478 . S
C503 H497 0.930 . S
C503 C499 1.400 . S
C503 C502 1.385 . S
C504 C502 1.478 . S
C504 C506 1.381 . S
C504 C510 1.383 . S
C505 C501 1.495 . S
C505 H511 0.959 . S
C505 H512 0.961 . S
C505 H513 0.960 . S
C506 C504 1.381 . S
C506 C507 1.394 . S
C506 H514 0.930 . S
C507 C506 1.394 . S
C507 C508 1.383 . S
C507 H515 0.929 . S
C508 C507 1.383 . S
C508 C509 1.377 . S
C509 H493 0.930 . S
C509 C508 1.377 . S
C509 C510 1.379 . S
C510 H494 0.931 . S
C510 C504 1.383 . S
C510 C509 1.379 . S
H511 C505 0.959 . S
H512 C505 0.961 . S
H513 C505 0.960 . S
H514 C506 0.930 . S
H515 C507 0.929 . S
H516 C524 0.929 . S
H517 C526 0.930 . S
H518 C528 0.930 . S
H519 C531 0.929 . S
H520 C534 0.930 . S
H521 C536 0.960 . S
H522 C536 0.960 . S
H523 C536 0.960 . S
C524 H516 0.929 . S
C524 C525 1.377 . S
C524 C526 1.384 . S
C525 C524 1.377 . S
C525 C531 1.390 . S
C526 H517 0.930 . S
C526 C524 1.384 . S
C526 C527 1.372 . S
C527 C526 1.372 . S
C527 C528 1.400 . S
C527 C532 1.490 . S
C528 H518 0.930 . S
C528 C527 1.400 . S
C528 C531 1.386 . S
H529 C545 0.930 . S
H530 C546 0.931 . S
C531 H519 0.929 . S
C531 C525 1.390 . S
C531 C528 1.386 . S
C532 C527 1.490 . S
C532 C534 1.395 . S
C532 C535 1.403 . S
H533 C539 0.930 . S
C534 H520 0.930 . S
C534 C532 1.395 . S
C534 C537 1.403 . S
C535 C532 1.403 . S
C535 C536 1.524 . S
C535 C539 1.400 . S
C536 H521 0.960 . S
C536 H522 0.960 . S
C536 H523 0.960 . S
C536 C535 1.524 . S
C537 C534 1.403 . S
C537 C538 1.392 . S
C537 C541 1.495 . S
C538 C537 1.392 . S
C538 C539 1.385 . S
C538 C540 1.478 . S
C539 H533 0.930 . S
C539 C535 1.400 . S
C539 C538 1.385 . S
C540 C538 1.478 . S
C540 C542 1.381 . S
C540 C546 1.383 . S
C541 C537 1.495 . S
C541 H547 0.959 . S
C541 H548 0.961 . S
C541 H549 0.960 . S
C542 C540 1.381 . S
C542 C543 1.394 . S
C542 H550 0.930 . S
C543 C542 1.394 . S
C543 C544 1.383 . S
C543 H551 0.929 . S
C544 C543 1.383 . S
C544 C545 1.377 . S
C545 H529 0.930 . S
C545 C544 1.377 . S
C545 C546 1.379 . S
C546 H530 0.931 . S
C546 C540 1.383 . S
C546 C545 1.379 . S
H547 C541 0.959 . S
H548 C541 0.961 . S
H549 C541 0.960 . S
H550 C542 0.930 . S
H551 C543 0.929 . S
H552 C560 0.929 . S
H553 C562 0.930 . S
H554 C564 0.930 . S
H555 C567 0.929 . S
H556 C570 0.930 . S
H557 C572 0.960 . S
H558 C572 0.960 . S
H559 C572 0.960 . S
C560 H552 0.929 . S
C560 C561 1.377 . S
C560 C562 1.384 . S
C561 C560 1.377 . S
C561 C567 1.390 . S
C562 H553 0.930 . S
C562 C560 1.384 . S
C562 C563 1.372 . S
C563 C562 1.372 . S
C563 C564 1.400 . S
C563 C568 1.490 . S
C564 H554 0.930 . S
C564 C563 1.400 . S
C564 C567 1.386 . S
H565 C581 0.930 . S
H566 C582 0.931 . S
C567 H555 0.929 . S
C567 C561 1.390 . S
C567 C564 1.386 . S
C568 C563 1.490 . S
C568 C570 1.395 . S
C568 C571 1.403 . S
H569 C575 0.930 . S
C570 H556 0.930 . S
C570 C568 1.395 . S
C570 C573 1.403 . S
C571 C568 1.403 . S
C571 C572 1.524 . S
C571 C575 1.400 . S
C572 H557 0.960 . S
C572 H558 0.960 . S
C572 H559 0.960 . S
C572 C571 1.524 . S
C573 C570 1.403 . S
C573 C574 1.392 . S
C573 C577 1.495 . S
C574 C573 1.392 . S
C574 C575 1.385 . S
C574 C576 1.478 . S
C575 H569 0.930 . S
C575 C571 1.400 . S
C575 C574 1.385 . S
C576 C574 1.478 . S
C576 C578 1.381 . S
C576 C582 1.383 . S
C577 C573 1.495 . S
C577 H583 0.959 . S
C577 H584 0.961 . S
C577 H585 0.960 . S
C578 C576 1.381 . S
C578 C579 1.394 . S
C578 H586 0.930 . S
C579 C578 1.394 . S
C579 C580 1.383 . S
C579 H587 0.929 . S
C580 C579 1.383 . S
C580 C581 1.377 . S
C581 H565 0.930 . S
C581 C580 1.377 . S
C581 C582 1.379 . S
C582 H566 0.931 . S
C582 C576 1.383 . S
C582 C581 1.379 . S
H583 C577 0.959 . S
H584 C577 0.961 . S
H585 C577 0.960 . S
H586 C578 0.930 . S
H587 C579 0.929 . S
H588 C596 0.929 . S
H589 C598 0.930 . S
H590 C600 0.930 . S
H591 C603 0.929 . S
H592 C606 0.930 . S
H593 C608 0.960 . S
H594 C608 0.960 . S
H595 C608 0.960 . S
C596 H588 0.929 . S
C596 C597 1.377 . S
C596 C598 1.384 . S
C597 C596 1.377 . S
C597 C603 1.390 . S
C598 H589 0.930 . S
C598 C596 1.384 . S
C598 C599 1.372 . S
C599 C598 1.372 . S
C599 C600 1.400 . S
C599 C604 1.490 . S
C600 H590 0.930 . S
C600 C599 1.400 . S
C600 C603 1.386 . S
H601 C617 0.930 . S
H602 C618 0.931 . S
C603 H591 0.929 . S
C603 C597 1.390 . S
C603 C600 1.386 . S
C604 C599 1.490 . S
C604 C606 1.395 . S
C604 C607 1.403 . S
H605 C611 0.930 . S
C606 H592 0.930 . S
C606 C604 1.395 . S
C606 C609 1.403 . S
C607 C604 1.403 . S
C607 C608 1.524 . S
C607 C611 1.400 . S
C608 H593 0.960 . S
C608 H594 0.960 . S
C608 H595 0.960 . S
C608 C607 1.524 . S
C609 C606 1.403 . S
C609 C610 1.392 . S
C609 C613 1.495 . S
C610 C609 1.392 . S
C610 C611 1.385 . S
C610 C612 1.478 . S
C611 H605 0.930 . S
C611 C607 1.400 . S
C611 C610 1.385 . S
C612 C610 1.478 . S
C612 C614 1.381 . S
C612 C618 1.383 . S
C613 C609 1.495 . S
C613 H619 0.959 . S
C613 H620 0.961 . S
C613 H621 0.960 . S
C614 C612 1.381 . S
C614 C615 1.394 . S
C614 H622 0.930 . S
C615 C614 1.394 . S
C615 C616 1.383 . S
C615 H623 0.929 . S
C616 C615 1.383 . S
C616 C617 1.377 . S
C617 H601 0.930 . S
C617 C616 1.377 . S
C617 C618 1.379 . S
C618 H602 0.931 . S
C618 C612 1.383 . S
C618 C617 1.379 . S
H619 C613 0.959 . S
H620 C613 0.961 . S
H621 C613 0.960 . S
H622 C614 0.930 . S
H623 C615 0.929 . S
H624 C632 0.929 . S
H625 C634 0.930 . S
H626 C636 0.930 . S
H627 C639 0.929 . S
H628 C642 0.930 . S
H629 C644 0.960 . S
H630 C644 0.960 . S
H631 C644 0.960 . S
C632 H624 0.929 . S
C632 C633 1.377 . S
C632 C634 1.384 . S
C633 C632 1.377 . S
C633 C639 1.390 . S
C634 H625 0.930 . S
C634 C632 1.384 . S
C634 C635 1.372 . S
C635 C634 1.372 . S
C635 C636 1.400 . S
C635 C640 1.490 . S
C636 H626 0.930 . S
C636 C635 1.400 . S
C636 C639 1.386 . S
H637 C653 0.930 . S
H638 C654 0.931 . S
C639 H627 0.929 . S
C639 C633 1.390 . S
C639 C636 1.386 . S
C640 C635 1.490 . S
C640 C642 1.395 . S
C640 C643 1.403 . S
H641 C647 0.930 . S
C642 H628 0.930 . S
C642 C640 1.395 . S
C642 C645 1.403 . S
C643 C640 1.403 . S
C643 C644 1.524 . S
C643 C647 1.400 . S
C644 H629 0.960 . S
C644 H630 0.960 . S
C644 H631 0.960 . S
C644 C643 1.524 . S
C645 C642 1.403 . S
C645 C646 1.392 . S
C645 C649 1.495 . S
C646 C645 1.392 . S
C646 C647 1.385 . S
C646 C648 1.478 . S
C647 H641 0.930 . S
C647 C643 1.400 . S
C647 C646 1.385 . S
C648 C646 1.478 . S
C648 C650 1.381 . S
C648 C654 1.383 . S
C649 C645 1.495 . S
C649 H655 0.959 . S
C649 H656 0.961 . S
C649 H657 0.960 . S
C650 C648 1.381 . S
C650 C651 1.394 . S
C650 H658 0.930 . S
C651 C650 1.394 . S
C651 C652 1.383 . S
C651 H659 0.929 . S
C652 C651 1.383 . S
C652 C653 1.377 . S
C653 H637 0.930 . S
C653 C652 1.377 . S
C653 C654 1.379 . S
C654 H638 0.931 . S
C654 C648 1.383 . S
C654 C653 1.379 . S
H655 C649 0.959 . S
H656 C649 0.961 . S
H657 C649 0.960 . S
H658 C650 0.930 . S
H659 C651 0.929 . S
H660 C668 0.929 . S
H661 C670 0.930 . S
H662 C672 0.930 . S
H663 C675 0.929 . S
H664 C678 0.930 . S
H665 C680 0.960 . S
H666 C680 0.960 . S
H667 C680 0.960 . S
C668 H660 0.929 . S
C668 C669 1.377 . S
C668 C670 1.384 . S
C669 C668 1.377 . S
C669 C675 1.390 . S
C670 H661 0.930 . S
C670 C668 1.384 . S
C670 C671 1.372 . S
C671 C670 1.372 . S
C671 C672 1.400 . S
C671 C676 1.490 . S
C672 H662 0.930 . S
C672 C671 1.400 . S
C672 C675 1.386 . S
H673 C689 0.930 . S
H674 C690 0.931 . S
C675 H663 0.929 . S
C675 C669 1.390 . S
C675 C672 1.386 . S
C676 C671 1.490 . S
C676 C678 1.395 . S
C676 C679 1.403 . S
H677 C683 0.930 . S
C678 H664 0.930 . S
C678 C676 1.395 . S
C678 C681 1.403 . S
C679 C676 1.403 . S
C679 C680 1.524 . S
C679 C683 1.400 . S
C680 H665 0.960 . S
C680 H666 0.960 . S
C680 H667 0.960 . S
C680 C679 1.524 . S
C681 C678 1.403 . S
C681 C682 1.392 . S
C681 C685 1.495 . S
C682 C681 1.392 . S
C682 C683 1.385 . S
C682 C684 1.478 . S
C683 H677 0.930 . S
C683 C679 1.400 . S
C683 C682 1.385 . S
C684 C682 1.478 . S
C684 C686 1.381 . S
C684 C690 1.383 . S
C685 C681 1.495 . S
C685 H691 0.959 . S
C685 H692 0.961 . S
C685 H693 0.960 . S
C686 C684 1.381 . S
C686 C687 1.394 . S
C686 H694 0.930 . S
C687 C686 1.394 . S
C687 C688 1.383 . S
C687 H695 0.929 . S
C688 C687 1.383 . S
C688 C689 1.377 . S
C689 H673 0.930 . S
C689 C688 1.377 . S
C689 C690 1.379 . S
C690 H674 0.931 . S
C690 C684 1.383 . S
C690 C689 1.379 . S
H691 C685 0.959 . S
H692 C685 0.961 . S
H693 C685 0.960 . S
H694 C686 0.930 . S
H695 C687 0.929 . S
H696 C704 0.929 . S
H697 C706 0.930 . S
H698 C708 0.930 . S
H699 C711 0.929 . S
H700 C714 0.930 . S
H701 C716 0.960 . S
H702 C716 0.960 . S
H703 C716 0.960 . S
C704 H696 0.929 . S
C704 C705 1.377 . S
C704 C706 1.384 . S
C705 C704 1.377 . S
C705 C711 1.390 . S
C706 H697 0.930 . S
C706 C704 1.384 . S
C706 C707 1.372 . S
C707 C706 1.372 . S
C707 C708 1.400 . S
C707 C712 1.490 . S
C708 H698 0.930 . S
C708 C707 1.400 . S
C708 C711 1.386 . S
H709 C725 0.930 . S
H710 C726 0.931 . S
C711 H699 0.929 . S
C711 C705 1.390 . S
C711 C708 1.386 . S
C712 C707 1.490 . S
C712 C714 1.395 . S
C712 C715 1.403 . S
H713 C719 0.930 . S
C714 H700 0.930 . S
C714 C712 1.395 . S
C714 C717 1.403 . S
C715 C712 1.403 . S
C715 C716 1.524 . S
C715 C719 1.400 . S
C716 H701 0.960 . S
C716 H702 0.960 . S
C716 H703 0.960 . S
C716 C715 1.524 . S
C717 C714 1.403 . S
C717 C718 1.392 . S
C717 C721 1.495 . S
C718 C717 1.392 . S
C718 C719 1.385 . S
C718 C720 1.478 . S
C719 H713 0.930 . S
C719 C715 1.400 . S
C719 C718 1.385 . S
C720 C718 1.478 . S
C720 C722 1.381 . S
C720 C726 1.383 . S
C721 C717 1.495 . S
C721 H727 0.959 . S
C721 H728 0.961 . S
C721 H729 0.960 . S
C722 C720 1.381 . S
C722 C723 1.394 . S
C722 H730 0.930 . S
C723 C722 1.394 . S
C723 C724 1.383 . S
C723 H731 0.929 . S
C724 C723 1.383 . S
C724 C725 1.377 . S
C725 H709 0.930 . S
C725 C724 1.377 . S
C725 C726 1.379 . S
C726 H710 0.931 . S
C726 C720 1.383 . S
C726 C725 1.379 . S
H727 C721 0.959 . S
H728 C721 0.961 . S
H729 C721 0.960 . S
H730 C722 0.930 . S
H731 C723 0.929 . S
H732 C740 0.929 . S
H733 C742 0.930 . S
H734 C744 0.930 . S
H735 C747 0.929 . S
H736 C750 0.930 . S
H737 C752 0.960 . S
H738 C752 0.960 . S
H739 C752 0.960 . S
C740 H732 0.929 . S
C740 C741 1.377 . S
C740 C742 1.384 . S
C741 C740 1.377 . S
C741 C747 1.390 . S
C742 H733 0.930 . S
C742 C740 1.384 . S
C742 C743 1.372 . S
C743 C742 1.372 . S
C743 C744 1.400 . S
C743 C748 1.490 . S
C744 H734 0.930 . S
C744 C743 1.400 . S
C744 C747 1.386 . S
H745 C761 0.930 . S
H746 C762 0.931 . S
C747 H735 0.929 . S
C747 C741 1.390 . S
C747 C744 1.386 . S
C748 C743 1.490 . S
C748 C750 1.395 . S
C748 C751 1.403 . S
H749 C755 0.930 . S
C750 H736 0.930 . S
C750 C748 1.395 . S
C750 C753 1.403 . S
C751 C748 1.403 . S
C751 C752 1.524 . S
C751 C755 1.400 . S
C752 H737 0.960 . S
C752 H738 0.960 . S
C752 H739 0.960 . S
C752 C751 1.524 . S
C753 C750 1.403 . S
C753 C754 1.392 . S
C753 C757 1.495 . S
C754 C753 1.392 . S
C754 C755 1.385 . S
C754 C756 1.478 . S
C755 H749 0.930 . S
C755 C751 1.400 . S
C755 C754 1.385 . S
C756 C754 1.478 . S
C756 C758 1.381 . S
C756 C762 1.383 . S
C757 C753 1.495 . S
C757 H763 0.959 . S
C757 H764 0.961 . S
C757 H765 0.960 . S
C758 C756 1.381 . S
C758 C759 1.394 . S
C758 H766 0.930 . S
C759 C758 1.394 . S
C759 C760 1.383 . S
C759 H767 0.929 . S
C760 C759 1.383 . S
C760 C761 1.377 . S
C761 H745 0.930 . S
C761 C760 1.377 . S
C761 C762 1.379 . S
C762 H746 0.931 . S
C762 C756 1.383 . S
C762 C761 1.379 . S
H763 C757 0.959 . S
H764 C757 0.961 . S
H765 C757 0.960 . S
H766 C758 0.930 . S
H767 C759 0.929 . S
H768 C776 0.929 . S
H769 C778 0.930 . S
H770 C780 0.930 . S
H771 C783 0.929 . S
H772 C786 0.930 . S
H773 C788 0.960 1_545 S
H774 C788 0.960 . S
H775 C788 0.960 . S
C776 H768 0.929 . S
C776 C777 1.377 . S
C776 C778 1.384 . S
C777 C776 1.377 . S
C777 C783 1.390 . S
C778 H769 0.930 . S
C778 C776 1.384 . S
C778 C779 1.372 . S
C779 C778 1.372 . S
C779 C780 1.400 . S
C779 C784 1.490 . S
C780 H770 0.930 . S
C780 C779 1.400 . S
C780 C783 1.386 . S
H781 C797 0.930 . S
H782 C798 0.931 . S
C783 H771 0.929 . S
C783 C777 1.390 . S
C783 C780 1.386 . S
C784 C779 1.490 . S
C784 C786 1.395 . S
C784 C787 1.403 . S
H785 C791 0.930 . S
C786 H772 0.930 . S
C786 C784 1.395 . S
C786 C789 1.403 1_565 S
C787 C784 1.403 . S
C787 C788 1.524 . S
C787 C791 1.400 1_565 S
C788 H773 0.960 1_565 S
C788 H774 0.960 . S
C788 H775 0.960 . S
C788 C787 1.524 . S
C789 C786 1.403 1_545 S
C789 C790 1.392 . S
C789 C793 1.495 . S
C790 C789 1.392 . S
C790 C791 1.385 . S
C790 C792 1.478 . S
C791 H785 0.930 . S
C791 C787 1.400 1_545 S
C791 C790 1.385 . S
C792 C790 1.478 . S
C792 C794 1.381 . S
C792 C798 1.383 . S
C793 C789 1.495 . S
C793 H799 0.959 1_545 S
C793 H800 0.961 . S
C793 H801 0.960 . S
C794 C792 1.381 . S
C794 C795 1.394 . S
C794 H802 0.930 . S
C795 C794 1.394 . S
C795 C796 1.383 . S
C795 H803 0.929 . S
C796 C795 1.383 . S
C796 C797 1.377 . S
C797 H781 0.930 . S
C797 C796 1.377 . S
C797 C798 1.379 . S
C798 H782 0.931 . S
C798 C792 1.383 . S
C798 C797 1.379 . S
H799 C793 0.959 1_565 S
H800 C793 0.961 . S
H801 C793 0.960 . S
H802 C794 0.930 . S
H803 C795 0.929 . S
H804 C812 0.929 . S
H805 C814 0.930 . S
H806 C816 0.930 . S
H807 C819 0.929 . S
H808 C822 0.930 . S
H809 C824 0.960 . S
H810 C824 0.960 . S
H811 C824 0.960 . S
C812 H804 0.929 . S
C812 C813 1.377 . S
C812 C814 1.384 . S
C813 C812 1.377 . S
C813 C819 1.390 . S
C814 H805 0.930 . S
C814 C812 1.384 . S
C814 C815 1.372 . S
C815 C814 1.372 . S
C815 C816 1.400 . S
C815 C820 1.490 . S
C816 H806 0.930 . S
C816 C815 1.400 . S
C816 C819 1.386 . S
H817 C833 0.930 . S
H818 C834 0.931 . S
C819 H807 0.929 . S
C819 C813 1.390 . S
C819 C816 1.386 . S
C820 C815 1.490 . S
C820 C822 1.395 . S
C820 C823 1.403 . S
H821 C827 0.930 . S
C822 H808 0.930 . S
C822 C820 1.395 . S
C822 C825 1.403 1_655 S
C823 C820 1.403 . S
C823 C824 1.524 . S
C823 C827 1.400 1_655 S
C824 H809 0.960 . S
C824 H810 0.960 . S
C824 H811 0.960 . S
C824 C823 1.524 . S
C825 C822 1.403 1_455 S
C825 C826 1.392 . S
C825 C829 1.495 . S
C826 C825 1.392 . S
C826 C827 1.385 . S
C826 C828 1.478 . S
C827 H821 0.930 . S
C827 C823 1.400 1_455 S
C827 C826 1.385 . S
C828 C826 1.478 . S
C828 C830 1.381 . S
C828 C834 1.383 . S
C829 C825 1.495 . S
C829 H835 0.959 . S
C829 H836 0.961 . S
C829 H837 0.960 . S
C830 C828 1.381 . S
C830 C831 1.394 . S
C830 H838 0.930 . S
C831 C830 1.394 . S
C831 C832 1.383 . S
C831 H839 0.929 . S
C832 C831 1.383 . S
C832 C833 1.377 . S
C833 H817 0.930 . S
C833 C832 1.377 . S
C833 C834 1.379 . S
C834 H818 0.931 . S
C834 C828 1.383 . S
C834 C833 1.379 . S
H835 C829 0.959 . S
H836 C829 0.961 . S
H837 C829 0.960 . S
H838 C830 0.930 . S
H839 C831 0.929 . S
H840 C848 0.929 . S
H841 C850 0.930 . S
H842 C852 0.930 . S
H843 C855 0.929 . S
H844 C858 0.930 . S
H845 C860 0.960 . S
H846 C860 0.960 . S
H847 C860 0.960 . S
C848 H840 0.929 . S
C848 C849 1.377 . S
C848 C850 1.384 . S
C849 C848 1.377 . S
C849 C855 1.390 . S
C850 H841 0.930 . S
C850 C848 1.384 . S
C850 C851 1.372 . S
C851 C850 1.372 . S
C851 C852 1.400 . S
C851 C856 1.490 . S
C852 H842 0.930 . S
C852 C851 1.400 . S
C852 C855 1.386 . S
H853 C869 0.930 . S
H854 C870 0.931 . S
C855 H843 0.929 . S
C855 C849 1.390 . S
C855 C852 1.386 . S
C856 C851 1.490 . S
C856 C858 1.395 . S
C856 C859 1.403 . S
H857 C863 0.930 . S
C858 H844 0.930 . S
C858 C856 1.395 . S
C858 C861 1.403 1_545 S
C859 C856 1.403 . S
C859 C860 1.524 . S
C859 C863 1.400 1_545 S
C860 H845 0.960 . S
C860 H846 0.960 . S
C860 H847 0.960 . S
C860 C859 1.524 . S
C861 C858 1.403 1_565 S
C861 C862 1.392 . S
C861 C865 1.495 . S
C862 C861 1.392 . S
C862 C863 1.385 . S
C862 C864 1.478 . S
C863 H857 0.930 . S
C863 C859 1.400 1_565 S
C863 C862 1.385 . S
C864 C862 1.478 . S
C864 C866 1.381 . S
C864 C870 1.383 . S
C865 C861 1.495 . S
C865 H871 0.959 . S
C865 H872 0.961 . S
C865 H873 0.960 . S
C866 C864 1.381 . S
C866 C867 1.394 . S
C866 H874 0.930 . S
C867 C866 1.394 . S
C867 C868 1.383 . S
C867 H875 0.929 . S
C868 C867 1.383 . S
C868 C869 1.377 . S
C869 H853 0.930 . S
C869 C868 1.377 . S
C869 C870 1.379 . S
C870 H854 0.931 . S
C870 C864 1.383 . S
C870 C869 1.379 . S
H871 C865 0.959 . S
H872 C865 0.961 . S
H873 C865 0.960 . S
H874 C866 0.930 . S
H875 C867 0.929 . S
H876 C884 0.929 . S
H877 C886 0.930 . S
H878 C888 0.930 . S
H879 C891 0.929 . S
H880 C894 0.930 . S
H881 C896 0.960 . S
H882 C896 0.960 . S
H883 C896 0.960 . S
C884 H876 0.929 . S
C884 C885 1.377 . S
C884 C886 1.384 . S
C885 C884 1.377 . S
C885 C891 1.390 . S
C886 H877 0.930 . S
C886 C884 1.384 . S
C886 C887 1.372 . S
C887 C886 1.372 . S
C887 C888 1.400 . S
C887 C892 1.490 . S
C888 H878 0.930 . S
C888 C887 1.400 . S
C888 C891 1.386 . S
H889 C905 0.930 . S
H890 C906 0.931 . S
C891 H879 0.929 . S
C891 C885 1.390 . S
C891 C888 1.386 . S
C892 C887 1.490 . S
C892 C894 1.395 1_455 S
C892 C895 1.403 . S
H893 C899 0.930 . S
C894 H880 0.930 . S
C894 C892 1.395 1_655 S
C894 C897 1.403 . S
C895 C892 1.403 . S
C895 C896 1.524 . S
C895 C899 1.400 1_455 S
C896 H881 0.960 . S
C896 H882 0.960 . S
C896 H883 0.960 . S
C896 C895 1.524 . S
C897 C894 1.403 . S
C897 C898 1.392 . S
C897 C901 1.495 . S
C898 C897 1.392 . S
C898 C899 1.385 . S
C898 C900 1.478 . S
C899 H893 0.930 . S
C899 C895 1.400 1_655 S
C899 C898 1.385 . S
C900 C898 1.478 . S
C900 C902 1.381 . S
C900 C906 1.383 . S
C901 C897 1.495 . S
C901 H907 0.959 . S
C901 H908 0.961 . S
C901 H909 0.960 . S
C902 C900 1.381 . S
C902 C903 1.394 . S
C902 H910 0.930 . S
C903 C902 1.394 . S
C903 C904 1.383 . S
C903 H911 0.929 . S
C904 C903 1.383 . S
C904 C905 1.377 . S
C905 H889 0.930 . S
C905 C904 1.377 . S
C905 C906 1.379 . S
C906 H890 0.931 . S
C906 C900 1.383 . S
C906 C905 1.379 . S
H907 C901 0.959 . S
H908 C901 0.961 . S
H909 C901 0.960 . S
H910 C902 0.930 . S
H911 C903 0.929 . S
H912 C920 0.929 . S
H913 C922 0.930 . S
H914 C924 0.930 . S
H915 C927 0.929 . S
H916 C930 0.930 . S
H917 C932 0.960 . S
H918 C932 0.960 . S
H919 C932 0.960 . S
C920 H912 0.929 . S
C920 C921 1.377 . S
C920 C922 1.384 . S
C921 C920 1.377 . S
C921 C927 1.390 . S
C922 H913 0.930 . S
C922 C920 1.384 . S
C922 C923 1.372 . S
C923 C922 1.372 . S
C923 C924 1.400 . S
C923 C928 1.490 . S
C924 H914 0.930 . S
C924 C923 1.400 . S
C924 C927 1.386 . S
H925 C941 0.930 . S
H926 C942 0.931 . S
C927 H915 0.929 . S
C927 C921 1.390 . S
C927 C924 1.386 . S
C928 C923 1.490 . S
C928 C930 1.395 . S
C928 C931 1.403 . S
H929 C935 0.930 . S
C930 H916 0.930 . S
C930 C928 1.395 . S
C930 C933 1.403 1_565 S
C931 C928 1.403 . S
C931 C932 1.524 . S
C931 C935 1.400 1_565 S
C932 H917 0.960 . S
C932 H918 0.960 . S
C932 H919 0.960 . S
C932 C931 1.524 . S
C933 C930 1.403 1_545 S
C933 C934 1.392 . S
C933 C937 1.495 . S
C934 C933 1.392 . S
C934 C935 1.385 . S
C934 C936 1.478 . S
C935 H929 0.930 . S
C935 C931 1.400 1_545 S
C935 C934 1.385 . S
C936 C934 1.478 . S
C936 C938 1.381 . S
C936 C942 1.383 . S
C937 C933 1.495 . S
C937 H943 0.959 . S
C937 H944 0.961 . S
C937 H945 0.960 . S
C938 C936 1.381 . S
C938 C939 1.394 . S
C938 H946 0.930 . S
C939 C938 1.394 . S
C939 C940 1.383 . S
C939 H947 0.929 . S
C940 C939 1.383 . S
C940 C941 1.377 . S
C941 H925 0.930 . S
C941 C940 1.377 . S
C941 C942 1.379 . S
C942 H926 0.931 . S
C942 C936 1.383 . S
C942 C941 1.379 . S
H943 C937 0.959 . S
H944 C937 0.961 . S
H945 C937 0.960 . S
H946 C938 0.930 . S
H947 C939 0.929 . S
H948 C956 0.929 . S
H949 C958 0.930 . S
H950 C960 0.930 . S
H951 C963 0.929 . S
H952 C966 0.930 . S
H953 C968 0.960 . S
H954 C968 0.960 . S
H955 C968 0.960 . S
C956 H948 0.929 . S
C956 C957 1.377 . S
C956 C958 1.384 . S
C957 C956 1.377 . S
C957 C963 1.390 . S
C958 H949 0.930 . S
C958 C956 1.384 . S
C958 C959 1.372 . S
C959 C958 1.372 . S
C959 C960 1.400 . S
C959 C964 1.490 . S
C960 H950 0.930 . S
C960 C959 1.400 . S
C960 C963 1.386 . S
H961 C977 0.930 . S
H962 C978 0.931 . S
C963 H951 0.929 . S
C963 C957 1.390 . S
C963 C960 1.386 . S
C964 C959 1.490 . S
C964 C966 1.395 . S
C964 C967 1.403 . S
H965 C971 0.930 . S
C966 H952 0.930 . S
C966 C964 1.395 . S
C966 C969 1.403 1_655 S
C967 C964 1.403 . S
C967 C968 1.524 . S
C967 C971 1.400 1_655 S
C968 H953 0.960 . S
C968 H954 0.960 . S
C968 H955 0.960 . S
C968 C967 1.524 . S
C969 C966 1.403 1_455 S
C969 C970 1.392 . S
C969 C973 1.495 . S
C970 C969 1.392 . S
C970 C971 1.385 . S
C970 C972 1.478 . S
C971 H965 0.930 . S
C971 C967 1.400 1_455 S
C971 C970 1.385 . S
C972 C970 1.478 . S
C972 C974 1.381 . S
C972 C978 1.383 . S
C973 C969 1.495 . S
C973 H979 0.959 . S
C973 H980 0.961 . S
C973 H981 0.960 . S
C974 C972 1.381 . S
C974 C975 1.394 . S
C974 H982 0.930 . S
C975 C974 1.394 . S
C975 C976 1.383 . S
C975 H983 0.929 . S
C976 C975 1.383 . S
C976 C977 1.377 . S
C977 H961 0.930 . S
C977 C976 1.377 . S
C977 C978 1.379 . S
C978 H962 0.931 . S
C978 C972 1.383 . S
C978 C977 1.379 . S
H979 C973 0.959 . S
H980 C973 0.961 . S
H981 C973 0.960 . S
H982 C974 0.930 . S
H983 C975 0.929 . S
H984 C992 0.929 . S
H985 C994 0.930 . S
H986 C996 0.930 . S
H987 C999 0.929 . S
H988 C1002 0.930 . S
H989 C1004 0.966 . S
H990 C1004 0.960 . S
H991 C1004 0.955 1_565 S
C992 H984 0.929 . S
C992 C993 1.377 . S
C992 C994 1.384 . S
C993 C992 1.377 . S
C993 C999 1.390 . S
C994 H985 0.930 . S
C994 C992 1.384 . S
C994 C995 1.372 . S
C995 C994 1.372 . S
C995 C996 1.400 . S
C995 C1000 1.490 . S
C996 H986 0.930 . S
C996 C995 1.400 . S
C996 C999 1.386 . S
H997 C1013 0.930 . S
H998 C1014 0.931 . S
C999 H987 0.929 . S
C999 C993 1.390 . S
C999 C996 1.386 . S
C1000 C995 1.490 . S
C1000 C1002 1.395 . S
C1000 C1003 1.435 . S
H1001 C1007 0.930 . S
C1002 H988 0.930 . S
C1002 C1000 1.395 . S
C1002 C1005 1.396 1_565 S
C1003 C1000 1.435 . S
C1003 C1004 1.522 1_565 S
C1003 C1007 1.369 1_565 S
C1004 H989 0.966 . S
C1004 H990 0.960 . S
C1004 H991 0.955 1_545 S
C1004 C1003 1.522 1_545 S
C1005 C1002 1.396 1_545 S
C1005 C1006 1.399 . S
C1005 C1009 1.495 1_545 S
C1006 C1005 1.399 . S
C1006 C1007 1.385 . S
C1006 C1008 1.478 . S
C1007 H1001 0.930 . S
C1007 C1003 1.369 1_545 S
C1007 C1006 1.385 . S
C1008 C1006 1.478 . S
C1008 C1010 1.381 . S
C1008 C1014 1.383 . S
C1009 C1005 1.495 1_565 S
C1009 H1015 0.954 . S
C1009 H1016 0.961 1_565 S
C1009 H1017 0.964 1_565 S
C1010 C1008 1.381 . S
C1010 C1011 1.394 . S
C1010 H1018 0.930 . S
C1011 C1010 1.394 . S
C1011 C1012 1.383 . S
C1011 H1019 0.929 . S
C1012 C1011 1.383 . S
C1012 C1013 1.377 . S
C1013 H997 0.930 . S
C1013 C1012 1.377 . S
C1013 C1014 1.379 . S
C1014 H998 0.931 . S
C1014 C1008 1.383 . S
C1014 C1013 1.379 . S
H1015 C1009 0.954 . S
H1016 C1009 0.961 1_545 S
H1017 C1009 0.964 1_545 S
H1018 C1010 0.930 . S
H1019 C1011 0.929 . S
H1020 C1028 0.929 . S
H1021 C1030 0.930 . S
H1022 C1032 0.930 . S
H1023 C1035 0.929 . S
H1024 C1038 0.930 . S
H1025 C1040 0.960 1_655 S
H1026 C1040 0.960 . S
H1027 C1040 0.960 . S
C1028 H1020 0.929 . S
C1028 C1029 1.377 . S
C1028 C1030 1.384 . S
C1029 C1028 1.377 . S
C1029 C1035 1.390 . S
C1030 H1021 0.930 . S
C1030 C1028 1.384 . S
C1030 C1031 1.372 . S
C1031 C1030 1.372 . S
C1031 C1032 1.400 . S
C1031 C1036 1.490 . S
C1032 H1022 0.930 . S
C1032 C1031 1.400 . S
C1032 C1035 1.386 . S
H1033 C1049 0.930 . S
H1034 C1050 0.931 . S
C1035 H1023 0.929 . S
C1035 C1029 1.390 . S
C1035 C1032 1.386 . S
C1036 C1031 1.490 . S
C1036 C1038 1.395 . S
C1036 C1039 1.403 . S
H1037 C1043 0.930 . S
C1038 H1024 0.930 . S
C1038 C1036 1.395 . S
C1038 C1041 1.403 1_455 S
C1039 C1036 1.403 . S
C1039 C1040 1.524 . S
C1039 C1043 1.400 1_455 S
C1040 H1025 0.960 1_455 S
C1040 H1026 0.960 . S
C1040 H1027 0.960 . S
C1040 C1039 1.524 . S
C1041 C1038 1.403 1_655 S
C1041 C1042 1.392 . S
C1041 C1045 1.495 . S
C1042 C1041 1.392 . S
C1042 C1043 1.385 . S
C1042 C1044 1.478 . S
C1043 H1037 0.930 . S
C1043 C1039 1.400 1_655 S
C1043 C1042 1.385 . S
C1044 C1042 1.478 . S
C1044 C1046 1.381 . S
C1044 C1050 1.383 . S
C1045 C1041 1.495 . S
C1045 H1051 0.959 1_655 S
C1045 H1052 0.961 . S
C1045 H1053 0.960 . S
C1046 C1044 1.381 . S
C1046 C1047 1.394 . S
C1046 H1054 0.930 . S
C1047 C1046 1.394 . S
C1047 C1048 1.383 . S
C1047 H1055 0.929 . S
C1048 C1047 1.383 . S
C1048 C1049 1.377 . S
C1049 H1033 0.930 . S
C1049 C1048 1.377 . S
C1049 C1050 1.379 . S
C1050 H1034 0.931 . S
C1050 C1044 1.383 . S
C1050 C1049 1.379 . S
H1051 C1045 0.959 1_455 S
H1052 C1045 0.961 . S
H1053 C1045 0.960 . S
H1054 C1046 0.930 . S
H1055 C1047 0.929 . S
H1056 C1064 0.929 . S
H1057 C1066 0.930 . S
H1058 C1068 0.930 . S
H1059 C1071 0.929 . S
H1060 C1074 0.930 . S
H1061 C1076 0.960 1_554 S
H1062 C1076 0.960 . S
H1063 C1076 0.960 . S
C1064 H1056 0.929 . S
C1064 C1065 1.377 . S
C1064 C1066 1.384 . S
C1065 C1064 1.377 . S
C1065 C1071 1.390 . S
C1066 H1057 0.930 . S
C1066 C1064 1.384 . S
C1066 C1067 1.372 . S
C1067 C1066 1.372 . S
C1067 C1068 1.400 . S
C1067 C1072 1.490 . S
C1068 H1058 0.930 . S
C1068 C1067 1.400 . S
C1068 C1071 1.386 . S
H1069 C1085 0.930 . S
H1070 C1086 0.931 . S
C1071 H1059 0.929 . S
C1071 C1065 1.390 . S
C1071 C1068 1.386 . S
C1072 C1067 1.490 . S
C1072 C1074 1.395 . S
C1072 C1075 1.403 . S
H1073 C1079 0.930 . S
C1074 H1060 0.930 . S
C1074 C1072 1.395 . S
C1074 C1077 1.403 1_556 S
C1075 C1072 1.403 . S
C1075 C1076 1.524 . S
C1075 C1079 1.400 1_556 S
C1076 H1061 0.960 1_556 S
C1076 H1062 0.960 . S
C1076 H1063 0.960 . S
C1076 C1075 1.524 . S
C1077 C1074 1.403 1_554 S
C1077 C1078 1.392 . S
C1077 C1081 1.495 . S
C1078 C1077 1.392 . S
C1078 C1079 1.385 . S
C1078 C1080 1.478 . S
C1079 H1073 0.930 . S
C1079 C1075 1.400 1_554 S
C1079 C1078 1.385 . S
C1080 C1078 1.478 . S
C1080 C1082 1.381 . S
C1080 C1086 1.383 . S
C1081 C1077 1.495 . S
C1081 H1087 0.959 1_554 S
C1081 H1088 0.961 . S
C1081 H1089 0.960 . S
C1082 C1080 1.381 . S
C1082 C1083 1.394 . S
C1082 H1090 0.930 . S
C1083 C1082 1.394 . S
C1083 C1084 1.383 . S
C1083 H1091 0.929 . S
C1084 C1083 1.383 . S
C1084 C1085 1.377 . S
C1085 H1069 0.930 . S
C1085 C1084 1.377 . S
C1085 C1086 1.379 . S
C1086 H1070 0.931 . S
C1086 C1080 1.383 . S
C1086 C1085 1.379 . S
H1087 C1081 0.959 1_556 S
H1088 C1081 0.961 . S
H1089 C1081 0.960 . S
H1090 C1082 0.930 . S
H1091 C1083 0.929 . S
H1092 C1100 0.929 . S
H1093 C1102 0.930 . S
H1094 C1104 0.930 . S
H1095 C1107 0.929 . S
H1096 C1110 0.930 . S
H1097 C1112 0.960 . S
H1098 C1112 0.960 . S
H1099 C1112 0.960 . S
C1100 H1092 0.929 . S
C1100 C1101 1.377 . S
C1100 C1102 1.384 . S
C1101 C1100 1.377 . S
C1101 C1107 1.390 . S
C1102 H1093 0.930 . S
C1102 C1100 1.384 . S
C1102 C1103 1.372 . S
C1103 C1102 1.372 . S
C1103 C1104 1.400 . S
C1103 C1108 1.490 . S
C1104 H1094 0.930 . S
C1104 C1103 1.400 . S
C1104 C1107 1.386 . S
H1105 C1121 0.930 . S
H1106 C1122 0.931 . S
C1107 H1095 0.929 . S
C1107 C1101 1.390 . S
C1107 C1104 1.386 . S
C1108 C1103 1.490 . S
C1108 C1110 1.395 . S
C1108 C1111 1.403 1_554 S
H1109 C1115 0.930 . S
C1110 H1096 0.930 . S
C1110 C1108 1.395 . S
C1110 C1113 1.403 . S
C1111 C1108 1.403 1_556 S
C1111 C1112 1.524 . S
C1111 C1115 1.400 . S
C1112 H1097 0.960 . S
C1112 H1098 0.960 . S
C1112 H1099 0.960 . S
C1112 C1111 1.524 . S
C1113 C1110 1.403 . S
C1113 C1114 1.392 1_554 S
C1113 C1117 1.495 . S
C1114 C1113 1.392 1_556 S
C1114 C1115 1.385 . S
C1114 C1116 1.478 . S
C1115 H1109 0.930 . S
C1115 C1111 1.400 . S
C1115 C1114 1.385 . S
C1116 C1114 1.478 . S
C1116 C1118 1.381 . S
C1116 C1122 1.383 . S
C1117 C1113 1.495 . S
C1117 H1123 0.959 . S
C1117 H1124 0.961 . S
C1117 H1125 0.960 . S
C1118 C1116 1.381 . S
C1118 C1119 1.394 . S
C1118 H1126 0.930 . S
C1119 C1118 1.394 . S
C1119 C1120 1.383 . S
C1119 H1127 0.929 . S
C1120 C1119 1.383 . S
C1120 C1121 1.377 . S
C1121 H1105 0.930 . S
C1121 C1120 1.377 . S
C1121 C1122 1.379 . S
C1122 H1106 0.931 . S
C1122 C1116 1.383 . S
C1122 C1121 1.379 . S
H1123 C1117 0.959 . S
H1124 C1117 0.961 . S
H1125 C1117 0.960 . S
H1126 C1118 0.930 . S
H1127 C1119 0.929 . S
H1128 C1136 0.929 . S
H1129 C1138 0.930 . S
H1130 C1140 0.930 . S
H1131 C1143 0.929 . S
H1132 C1146 0.930 . S
H1133 C1148 0.960 . S
H1134 C1148 0.960 . S
H1135 C1148 0.960 . S
C1136 H1128 0.929 . S
C1136 C1137 1.377 . S
C1136 C1138 1.384 . S
C1137 C1136 1.377 . S
C1137 C1143 1.390 . S
C1138 H1129 0.930 . S
C1138 C1136 1.384 . S
C1138 C1139 1.372 . S
C1139 C1138 1.372 . S
C1139 C1140 1.400 . S
C1139 C1144 1.490 . S
C1140 H1130 0.930 . S
C1140 C1139 1.400 . S
C1140 C1143 1.386 . S
H1141 C1157 0.930 . S
H1142 C1158 0.931 . S
C1143 H1131 0.929 . S
C1143 C1137 1.390 . S
C1143 C1140 1.386 . S
C1144 C1139 1.490 . S
C1144 C1146 1.395 . S
C1144 C1147 1.403 . S
H1145 C1151 0.930 . S
C1146 H1132 0.930 . S
C1146 C1144 1.395 . S
C1146 C1149 1.403 1_556 S
C1147 C1144 1.403 . S
C1147 C1148 1.524 . S
C1147 C1151 1.400 1_556 S
C1148 H1133 0.960 . S
C1148 H1134 0.960 . S
C1148 H1135 0.960 . S
C1148 C1147 1.524 . S
C1149 C1146 1.403 1_554 S
C1149 C1150 1.392 . S
C1149 C1153 1.495 . S
C1150 C1149 1.392 . S
C1150 C1151 1.385 . S
C1150 C1152 1.478 . S
C1151 H1145 0.930 . S
C1151 C1147 1.400 1_554 S
C1151 C1150 1.385 . S
C1152 C1150 1.478 . S
C1152 C1154 1.381 . S
C1152 C1158 1.383 . S
C1153 C1149 1.495 . S
C1153 H1159 0.959 . S
C1153 H1160 0.961 . S
C1153 H1161 0.960 . S
C1154 C1152 1.381 . S
C1154 C1155 1.394 . S
C1154 H1162 0.930 . S
C1155 C1154 1.394 . S
C1155 C1156 1.383 . S
C1155 H1163 0.929 . S
C1156 C1155 1.383 . S
C1156 C1157 1.377 . S
C1157 H1141 0.930 . S
C1157 C1156 1.377 . S
C1157 C1158 1.379 . S
C1158 H1142 0.931 . S
C1158 C1152 1.383 . S
C1158 C1157 1.379 . S
H1159 C1153 0.959 . S
H1160 C1153 0.961 . S
H1161 C1153 0.960 . S
H1162 C1154 0.930 . S
H1163 C1155 0.929 . S
H1164 C1172 0.929 . S
H1165 C1174 0.930 . S
H1166 C1176 0.930 . S
H1167 C1179 0.929 . S
H1168 C1182 0.930 . S
H1169 C1184 0.960 . S
H1170 C1184 0.960 1_554 S
H1171 C1184 0.960 . S
C1172 H1164 0.929 . S
C1172 C1173 1.377 . S
C1172 C1174 1.384 . S
C1173 C1172 1.377 . S
C1173 C1179 1.390 . S
C1174 H1165 0.930 . S
C1174 C1172 1.384 . S
C1174 C1175 1.372 . S
C1175 C1174 1.372 . S
C1175 C1176 1.400 . S
C1175 C1180 1.490 . S
C1176 H1166 0.930 . S
C1176 C1175 1.400 . S
C1176 C1179 1.386 . S
H1177 C1193 0.930 . S
H1178 C1194 0.931 . S
C1179 H1167 0.929 . S
C1179 C1173 1.390 . S
C1179 C1176 1.386 . S
C1180 C1175 1.490 . S
C1180 C1182 1.395 . S
C1180 C1183 1.400 . S
H1181 C1187 0.930 . S
C1182 H1168 0.930 . S
C1182 C1180 1.395 . S
C1182 C1185 1.403 . S
C1183 C1180 1.400 . S
C1183 C1184 1.524 1_554 S
C1183 C1187 1.403 1_554 S
C1184 H1169 0.960 . S
C1184 H1170 0.960 1_556 S
C1184 H1171 0.960 . S
C1184 C1183 1.524 1_556 S
C1185 C1182 1.403 . S
C1185 C1186 1.392 1_554 S
C1185 C1189 1.495 . S
C1186 C1185 1.392 1_556 S
C1186 C1187 1.385 . S
C1186 C1188 1.478 . S
C1187 H1181 0.930 . S
C1187 C1183 1.403 1_556 S
C1187 C1186 1.385 . S
C1188 C1186 1.478 . S
C1188 C1190 1.381 . S
C1188 C1194 1.383 . S
C1189 C1185 1.495 . S
C1189 H1195 0.959 . S
C1189 H1196 0.961 1_554 S
C1189 H1197 0.960 . S
C1190 C1188 1.381 . S
C1190 C1191 1.394 . S
C1190 H1198 0.930 . S
C1191 C1190 1.394 . S
C1191 C1192 1.383 . S
C1191 H1199 0.929 . S
C1192 C1191 1.383 . S
C1192 C1193 1.377 . S
C1193 H1177 0.930 . S
C1193 C1192 1.377 . S
C1193 C1194 1.379 . S
C1194 H1178 0.931 . S
C1194 C1188 1.383 . S
C1194 C1193 1.379 . S
H1195 C1189 0.959 . S
H1196 C1189 0.961 1_556 S
H1197 C1189 0.960 . S
H1198 C1190 0.930 . S
H1199 C1191 0.929 . S
H1200 C1208 0.929 . S
H1201 C1210 0.930 . S
H1202 C1212 0.930 . S
H1203 C1215 0.929 . S
H1204 C1218 0.930 . S
H1205 C1220 0.960 . S
H1206 C1220 0.960 . S
H1207 C1220 0.960 . S
C1208 H1200 0.929 . S
C1208 C1209 1.377 . S
C1208 C1210 1.384 . S
C1209 C1208 1.377 . S
C1209 C1215 1.390 . S
C1210 H1201 0.930 . S
C1210 C1208 1.384 . S
C1210 C1211 1.372 . S
C1211 C1210 1.372 . S
C1211 C1212 1.400 . S
C1211 C1216 1.490 . S
C1212 H1202 0.930 . S
C1212 C1211 1.400 . S
C1212 C1215 1.386 . S
H1213 C1229 0.930 . S
H1214 C1230 0.931 . S
C1215 H1203 0.929 . S
C1215 C1209 1.390 . S
C1215 C1212 1.386 . S
C1216 C1211 1.490 . S
C1216 C1218 1.395 . S
C1216 C1219 1.403 . S
H1217 C1223 0.930 . S
C1218 H1204 0.930 . S
C1218 C1216 1.395 . S
C1218 C1221 1.403 . S
C1219 C1216 1.403 . S
C1219 C1220 1.524 . S
C1219 C1223 1.400 . S
C1220 H1205 0.960 . S
C1220 H1206 0.960 . S
C1220 H1207 0.960 . S
C1220 C1219 1.524 . S
C1221 C1218 1.403 . S
C1221 C1222 1.392 . S
C1221 C1225 1.495 . S
C1222 C1221 1.392 . S
C1222 C1223 1.385 . S
C1222 C1224 1.478 . S
C1223 H1217 0.930 . S
C1223 C1219 1.400 . S
C1223 C1222 1.385 . S
C1224 C1222 1.478 . S
C1224 C1226 1.381 . S
C1224 C1230 1.383 . S
C1225 C1221 1.495 . S
C1225 H1231 0.959 . S
C1225 H1232 0.961 . S
C1225 H1233 0.960 . S
C1226 C1224 1.381 . S
C1226 C1227 1.394 . S
C1226 H1234 0.930 . S
C1227 C1226 1.394 . S
C1227 C1228 1.383 . S
C1227 H1235 0.929 . S
C1228 C1227 1.383 . S
C1228 C1229 1.377 . S
C1229 H1213 0.930 . S
C1229 C1228 1.377 . S
C1229 C1230 1.379 . S
C1230 H1214 0.931 . S
C1230 C1224 1.383 . S
C1230 C1229 1.379 . S
H1231 C1225 0.959 . S
H1232 C1225 0.961 . S
H1233 C1225 0.960 . S
H1234 C1226 0.930 . S
H1235 C1227 0.929 . S
H1236 C1244 0.929 . S
H1237 C1246 0.930 . S
H1238 C1248 0.930 . S
H1239 C1251 0.929 . S
H1240 C1254 0.930 . S
H1241 C1256 0.960 . S
H1242 C1256 0.960 . S
H1243 C1256 0.960 . S
C1244 H1236 0.929 . S
C1244 C1245 1.377 . S
C1244 C1246 1.384 . S
C1245 C1244 1.377 . S
C1245 C1251 1.390 . S
C1246 H1237 0.930 . S
C1246 C1244 1.384 . S
C1246 C1247 1.372 . S
C1247 C1246 1.372 . S
C1247 C1248 1.400 . S
C1247 C1252 1.490 . S
C1248 H1238 0.930 . S
C1248 C1247 1.400 . S
C1248 C1251 1.386 . S
H1249 C1265 0.930 . S
H1250 C1266 0.931 . S
C1251 H1239 0.929 . S
C1251 C1245 1.390 . S
C1251 C1248 1.386 . S
C1252 C1247 1.490 . S
C1252 C1254 1.395 . S
C1252 C1255 1.403 . S
H1253 C1259 0.930 . S
C1254 H1240 0.930 . S
C1254 C1252 1.395 . S
C1254 C1257 1.403 . S
C1255 C1252 1.403 . S
C1255 C1256 1.524 . S
C1255 C1259 1.400 . S
C1256 H1241 0.960 . S
C1256 H1242 0.960 . S
C1256 H1243 0.960 . S
C1256 C1255 1.524 . S
C1257 C1254 1.403 . S
C1257 C1258 1.392 . S
C1257 C1261 1.495 . S
C1258 C1257 1.392 . S
C1258 C1259 1.385 . S
C1258 C1260 1.478 . S
C1259 H1253 0.930 . S
C1259 C1255 1.400 . S
C1259 C1258 1.385 . S
C1260 C1258 1.478 . S
C1260 C1262 1.381 . S
C1260 C1266 1.383 . S
C1261 C1257 1.495 . S
C1261 H1267 0.959 . S
C1261 H1268 0.961 . S
C1261 H1269 0.960 . S
C1262 C1260 1.381 . S
C1262 C1263 1.394 . S
C1262 H1270 0.930 . S
C1263 C1262 1.394 . S
C1263 C1264 1.383 . S
C1263 H1271 0.929 . S
C1264 C1263 1.383 . S
C1264 C1265 1.377 . S
C1265 H1249 0.930 . S
C1265 C1264 1.377 . S
C1265 C1266 1.379 . S
C1266 H1250 0.931 . S
C1266 C1260 1.383 . S
C1266 C1265 1.379 . S
H1267 C1261 0.959 . S
H1268 C1261 0.961 . S
H1269 C1261 0.960 . S
H1270 C1262 0.930 . S
H1271 C1263 0.929 . S
H1272 C1280 0.929 . S
H1273 C1282 0.930 . S
H1274 C1284 0.930 . S
H1275 C1287 0.929 . S
H1276 C1290 0.930 . S
H1277 C1292 0.960 . S
H1278 C1292 0.960 . S
H1279 C1292 0.960 . S
C1280 H1272 0.929 . S
C1280 C1281 1.377 . S
C1280 C1282 1.384 . S
C1281 C1280 1.377 . S
C1281 C1287 1.390 . S
C1282 H1273 0.930 . S
C1282 C1280 1.384 . S
C1282 C1283 1.372 . S
C1283 C1282 1.372 . S
C1283 C1284 1.400 . S
C1283 C1288 1.490 . S
C1284 H1274 0.930 . S
C1284 C1283 1.400 . S
C1284 C1287 1.386 . S
H1285 C1301 0.930 . S
H1286 C1302 0.931 . S
C1287 H1275 0.929 . S
C1287 C1281 1.390 . S
C1287 C1284 1.386 . S
C1288 C1283 1.490 . S
C1288 C1290 1.395 . S
C1288 C1291 1.403 . S
H1289 C1295 0.930 . S
C1290 H1276 0.930 . S
C1290 C1288 1.395 . S
C1290 C1293 1.403 . S
C1291 C1288 1.403 . S
C1291 C1292 1.524 . S
C1291 C1295 1.400 . S
C1292 H1277 0.960 . S
C1292 H1278 0.960 . S
C1292 H1279 0.960 . S
C1292 C1291 1.524 . S
C1293 C1290 1.403 . S
C1293 C1294 1.392 . S
C1293 C1297 1.495 . S
C1294 C1293 1.392 . S
C1294 C1295 1.385 . S
C1294 C1296 1.478 . S
C1295 H1289 0.930 . S
C1295 C1291 1.400 . S
C1295 C1294 1.385 . S
C1296 C1294 1.478 . S
C1296 C1298 1.381 . S
C1296 C1302 1.383 . S
C1297 C1293 1.495 . S
C1297 H1303 0.959 . S
C1297 H1304 0.961 . S
C1297 H1305 0.960 . S
C1298 C1296 1.381 . S
C1298 C1299 1.394 . S
C1298 H1306 0.930 . S
C1299 C1298 1.394 . S
C1299 C1300 1.383 . S
C1299 H1307 0.929 . S
C1300 C1299 1.383 . S
C1300 C1301 1.377 . S
C1301 H1285 0.930 . S
C1301 C1300 1.377 . S
C1301 C1302 1.379 . S
C1302 H1286 0.931 . S
C1302 C1296 1.383 . S
C1302 C1301 1.379 . S
H1303 C1297 0.959 . S
H1304 C1297 0.961 . S
H1305 C1297 0.960 . S
H1306 C1298 0.930 . S
H1307 C1299 0.929 . S
H1308 C1316 0.929 . S
H1309 C1318 0.930 . S
H1310 C1320 0.930 . S
H1311 C1323 0.929 . S
H1312 C1326 0.930 . S
H1313 C1328 0.960 . S
H1314 C1328 0.960 . S
H1315 C1328 0.960 . S
C1316 H1308 0.929 . S
C1316 C1317 1.377 . S
C1316 C1318 1.384 . S
C1317 C1316 1.377 . S
C1317 C1323 1.390 . S
C1318 H1309 0.930 . S
C1318 C1316 1.384 . S
C1318 C1319 1.372 . S
C1319 C1318 1.372 . S
C1319 C1320 1.400 . S
C1319 C1324 1.490 . S
C1320 H1310 0.930 . S
C1320 C1319 1.400 . S
C1320 C1323 1.386 . S
H1321 C1337 0.930 . S
H1322 C1338 0.931 . S
C1323 H1311 0.929 . S
C1323 C1317 1.390 . S
C1323 C1320 1.386 . S
C1324 C1319 1.490 . S
C1324 C1326 1.395 . S
C1324 C1327 1.403 . S
H1325 C1331 0.930 . S
C1326 H1312 0.930 . S
C1326 C1324 1.395 . S
C1326 C1329 1.403 . S
C1327 C1324 1.403 . S
C1327 C1328 1.524 . S
C1327 C1331 1.400 . S
C1328 H1313 0.960 . S
C1328 H1314 0.960 . S
C1328 H1315 0.960 . S
C1328 C1327 1.524 . S
C1329 C1326 1.403 . S
C1329 C1330 1.392 . S
C1329 C1333 1.495 . S
C1330 C1329 1.392 . S
C1330 C1331 1.385 . S
C1330 C1332 1.478 . S
C1331 H1325 0.930 . S
C1331 C1327 1.400 . S
C1331 C1330 1.385 . S
C1332 C1330 1.478 . S
C1332 C1334 1.381 . S
C1332 C1338 1.383 . S
C1333 C1329 1.495 . S
C1333 H1339 0.959 . S
C1333 H1340 0.961 . S
C1333 H1341 0.960 . S
C1334 C1332 1.381 . S
C1334 C1335 1.394 . S
C1334 H1342 0.930 . S
C1335 C1334 1.394 . S
C1335 C1336 1.383 . S
C1335 H1343 0.929 . S
C1336 C1335 1.383 . S
C1336 C1337 1.377 . S
C1337 H1321 0.930 . S
C1337 C1336 1.377 . S
C1337 C1338 1.379 . S
C1338 H1322 0.931 . S
C1338 C1332 1.383 . S
C1338 C1337 1.379 . S
H1339 C1333 0.959 . S
H1340 C1333 0.961 . S
H1341 C1333 0.960 . S
H1342 C1334 0.930 . S
H1343 C1335 0.929 . S
H1344 C1352 0.929 . S
H1345 C1354 0.930 . S
H1346 C1356 0.930 . S
H1347 C1359 0.929 . S
H1348 C1362 0.930 . S
H1349 C1364 0.960 . S
H1350 C1364 0.960 . S
H1351 C1364 0.960 . S
C1352 H1344 0.929 . S
C1352 C1353 1.377 . S
C1352 C1354 1.384 . S
C1353 C1352 1.377 . S
C1353 C1359 1.390 . S
C1354 H1345 0.930 . S
C1354 C1352 1.384 . S
C1354 C1355 1.372 . S
C1355 C1354 1.372 . S
C1355 C1356 1.400 . S
C1355 C1360 1.490 . S
C1356 H1346 0.930 . S
C1356 C1355 1.400 . S
C1356 C1359 1.386 . S
H1357 C1373 0.930 . S
H1358 C1374 0.931 . S
C1359 H1347 0.929 . S
C1359 C1353 1.390 . S
C1359 C1356 1.386 . S
C1360 C1355 1.490 . S
C1360 C1362 1.395 . S
C1360 C1363 1.403 . S
H1361 C1367 0.930 . S
C1362 H1348 0.930 . S
C1362 C1360 1.395 . S
C1362 C1365 1.403 . S
C1363 C1360 1.403 . S
C1363 C1364 1.524 . S
C1363 C1367 1.400 . S
C1364 H1349 0.960 . S
C1364 H1350 0.960 . S
C1364 H1351 0.960 . S
C1364 C1363 1.524 . S
C1365 C1362 1.403 . S
C1365 C1366 1.392 . S
C1365 C1369 1.495 . S
C1366 C1365 1.392 . S
C1366 C1367 1.385 . S
C1366 C1368 1.478 . S
C1367 H1361 0.930 . S
C1367 C1363 1.400 . S
C1367 C1366 1.385 . S
C1368 C1366 1.478 . S
C1368 C1370 1.381 . S
C1368 C1374 1.383 . S
C1369 C1365 1.495 . S
C1369 H1375 0.959 . S
C1369 H1376 0.961 . S
C1369 H1377 0.960 . S
C1370 C1368 1.381 . S
C1370 C1371 1.394 . S
C1370 H1378 0.930 . S
C1371 C1370 1.394 . S
C1371 C1372 1.383 . S
C1371 H1379 0.929 . S
C1372 C1371 1.383 . S
C1372 C1373 1.377 . S
C1373 H1357 0.930 . S
C1373 C1372 1.377 . S
C1373 C1374 1.379 . S
C1374 H1358 0.931 . S
C1374 C1368 1.383 . S
C1374 C1373 1.379 . S
H1375 C1369 0.959 . S
H1376 C1369 0.961 . S
H1377 C1369 0.960 . S
H1378 C1370 0.930 . S
H1379 C1371 0.929 . S
H1380 C1388 0.929 . S
H1381 C1390 0.930 . S
H1382 C1392 0.930 . S
H1383 C1395 0.929 . S
H1384 C1398 0.930 . S
H1385 C1400 0.960 . S
H1386 C1400 0.960 . S
H1387 C1400 0.960 . S
C1388 H1380 0.929 . S
C1388 C1389 1.377 . S
C1388 C1390 1.384 . S
C1389 C1388 1.377 . S
C1389 C1395 1.390 . S
C1390 H1381 0.930 . S
C1390 C1388 1.384 . S
C1390 C1391 1.372 . S
C1391 C1390 1.372 . S
C1391 C1392 1.400 . S
C1391 C1396 1.490 . S
C1392 H1382 0.930 . S
C1392 C1391 1.400 . S
C1392 C1395 1.386 . S
H1393 C1409 0.930 . S
H1394 C1410 0.931 . S
C1395 H1383 0.929 . S
C1395 C1389 1.390 . S
C1395 C1392 1.386 . S
C1396 C1391 1.490 . S
C1396 C1398 1.395 . S
C1396 C1399 1.403 . S
H1397 C1403 0.930 . S
C1398 H1384 0.930 . S
C1398 C1396 1.395 . S
C1398 C1401 1.403 . S
C1399 C1396 1.403 . S
C1399 C1400 1.524 . S
C1399 C1403 1.400 . S
C1400 H1385 0.960 . S
C1400 H1386 0.960 . S
C1400 H1387 0.960 . S
C1400 C1399 1.524 . S
C1401 C1398 1.403 . S
C1401 C1402 1.392 . S
C1401 C1405 1.495 . S
C1402 C1401 1.392 . S
C1402 C1403 1.385 . S
C1402 C1404 1.478 . S
C1403 H1397 0.930 . S
C1403 C1399 1.400 . S
C1403 C1402 1.385 . S
C1404 C1402 1.478 . S
C1404 C1406 1.381 . S
C1404 C1410 1.383 . S
C1405 C1401 1.495 . S
C1405 H1411 0.959 . S
C1405 H1412 0.961 . S
C1405 H1413 0.960 . S
C1406 C1404 1.381 . S
C1406 C1407 1.394 . S
C1406 H1414 0.930 . S
C1407 C1406 1.394 . S
C1407 C1408 1.383 . S
C1407 H1415 0.929 . S
C1408 C1407 1.383 . S
C1408 C1409 1.377 . S
C1409 H1393 0.930 . S
C1409 C1408 1.377 . S
C1409 C1410 1.379 . S
C1410 H1394 0.931 . S
C1410 C1404 1.383 . S
C1410 C1409 1.379 . S
H1411 C1405 0.959 . S
H1412 C1405 0.961 . S
H1413 C1405 0.960 . S
H1414 C1406 0.930 . S
H1415 C1407 0.929 . S
H1416 C1424 0.929 . S
H1417 C1426 0.930 . S
H1418 C1428 0.930 . S
H1419 C1431 0.929 . S
H1420 C1434 0.930 . S
H1421 C1436 0.960 . S
H1422 C1436 0.960 . S
H1423 C1436 0.960 . S
C1424 H1416 0.929 . S
C1424 C1425 1.377 . S
C1424 C1426 1.384 . S
C1425 C1424 1.377 . S
C1425 C1431 1.390 . S
C1426 H1417 0.930 . S
C1426 C1424 1.384 . S
C1426 C1427 1.372 . S
C1427 C1426 1.372 . S
C1427 C1428 1.400 . S
C1427 C1432 1.490 . S
C1428 H1418 0.930 . S
C1428 C1427 1.400 . S
C1428 C1431 1.386 . S
H1429 C1445 0.930 . S
H1430 C1446 0.931 . S
C1431 H1419 0.929 . S
C1431 C1425 1.390 . S
C1431 C1428 1.386 . S
C1432 C1427 1.490 . S
C1432 C1434 1.395 . S
C1432 C1435 1.403 . S
H1433 C1439 0.930 . S
C1434 H1420 0.930 . S
C1434 C1432 1.395 . S
C1434 C1437 1.403 . S
C1435 C1432 1.403 . S
C1435 C1436 1.524 . S
C1435 C1439 1.400 . S
C1436 H1421 0.960 . S
C1436 H1422 0.960 . S
C1436 H1423 0.960 . S
C1436 C1435 1.524 . S
C1437 C1434 1.403 . S
C1437 C1438 1.392 . S
C1437 C1441 1.495 . S
C1438 C1437 1.392 . S
C1438 C1439 1.385 . S
C1438 C1440 1.478 . S
C1439 H1433 0.930 . S
C1439 C1435 1.400 . S
C1439 C1438 1.385 . S
C1440 C1438 1.478 . S
C1440 C1442 1.381 . S
C1440 C1446 1.383 . S
C1441 C1437 1.495 . S
C1441 H1447 0.959 . S
C1441 H1448 0.961 . S
C1441 H1449 0.960 . S
C1442 C1440 1.381 . S
C1442 C1443 1.394 . S
C1442 H1450 0.930 . S
C1443 C1442 1.394 . S
C1443 C1444 1.383 . S
C1443 H1451 0.929 . S
C1444 C1443 1.383 . S
C1444 C1445 1.377 . S
C1445 H1429 0.930 . S
C1445 C1444 1.377 . S
C1445 C1446 1.379 . S
C1446 H1430 0.931 . S
C1446 C1440 1.383 . S
C1446 C1445 1.379 . S
H1447 C1441 0.959 . S
H1448 C1441 0.961 . S
H1449 C1441 0.960 . S
H1450 C1442 0.930 . S
H1451 C1443 0.929 . S
H1452 C1460 0.929 . S
H1453 C1462 0.930 . S
H1454 C1464 0.930 . S
H1455 C1467 0.929 . S
H1456 C1470 0.930 . S
H1457 C1472 0.960 . S
H1458 C1472 0.960 . S
H1459 C1472 0.960 . S
C1460 H1452 0.929 . S
C1460 C1461 1.377 . S
C1460 C1462 1.384 . S
C1461 C1460 1.377 . S
C1461 C1467 1.390 . S
C1462 H1453 0.930 . S
C1462 C1460 1.384 . S
C1462 C1463 1.372 . S
C1463 C1462 1.372 . S
C1463 C1464 1.400 . S
C1463 C1468 1.490 . S
C1464 H1454 0.930 . S
C1464 C1463 1.400 . S
C1464 C1467 1.386 . S
H1465 C1481 0.930 . S
H1466 C1482 0.931 . S
C1467 H1455 0.929 . S
C1467 C1461 1.390 . S
C1467 C1464 1.386 . S
C1468 C1463 1.490 . S
C1468 C1470 1.395 . S
C1468 C1471 1.403 . S
H1469 C1475 0.930 . S
C1470 H1456 0.930 . S
C1470 C1468 1.395 . S
C1470 C1473 1.403 . S
C1471 C1468 1.403 . S
C1471 C1472 1.524 . S
C1471 C1475 1.400 . S
C1472 H1457 0.960 . S
C1472 H1458 0.960 . S
C1472 H1459 0.960 . S
C1472 C1471 1.524 . S
C1473 C1470 1.403 . S
C1473 C1474 1.392 . S
C1473 C1477 1.495 . S
C1474 C1473 1.392 . S
C1474 C1475 1.385 . S
C1474 C1476 1.478 . S
C1475 H1469 0.930 . S
C1475 C1471 1.400 . S
C1475 C1474 1.385 . S
C1476 C1474 1.478 . S
C1476 C1478 1.381 . S
C1476 C1482 1.383 . S
C1477 C1473 1.495 . S
C1477 H1483 0.959 . S
C1477 H1484 0.961 . S
C1477 H1485 0.960 . S
C1478 C1476 1.381 . S
C1478 C1479 1.394 . S
C1478 H1486 0.930 . S
C1479 C1478 1.394 . S
C1479 C1480 1.383 . S
C1479 H1487 0.929 . S
C1480 C1479 1.383 . S
C1480 C1481 1.377 . S
C1481 H1465 0.930 . S
C1481 C1480 1.377 . S
C1481 C1482 1.379 . S
C1482 H1466 0.931 . S
C1482 C1476 1.383 . S
C1482 C1481 1.379 . S
H1483 C1477 0.959 . S
H1484 C1477 0.961 . S
H1485 C1477 0.960 . S
H1486 C1478 0.930 . S
H1487 C1479 0.929 . S
H1488 C1496 0.929 . S
H1489 C1498 0.930 . S
H1490 C1500 0.930 . S
H1491 C1503 0.929 . S
H1492 C1506 0.930 . S
H1493 C1508 0.960 . S
H1494 C1508 0.960 . S
H1495 C1508 0.960 . S
C1496 H1488 0.929 . S
C1496 C1497 1.377 . S
C1496 C1498 1.384 . S
C1497 C1496 1.377 . S
C1497 C1503 1.390 . S
C1498 H1489 0.930 . S
C1498 C1496 1.384 . S
C1498 C1499 1.372 . S
C1499 C1498 1.372 . S
C1499 C1500 1.400 . S
C1499 C1504 1.490 . S
C1500 H1490 0.930 . S
C1500 C1499 1.400 . S
C1500 C1503 1.386 . S
H1501 C1517 0.930 . S
H1502 C1518 0.931 . S
C1503 H1491 0.929 . S
C1503 C1497 1.390 . S
C1503 C1500 1.386 . S
C1504 C1499 1.490 . S
C1504 C1506 1.395 . S
C1504 C1507 1.403 . S
H1505 C1511 0.930 . S
C1506 H1492 0.930 . S
C1506 C1504 1.395 . S
C1506 C1509 1.403 . S
C1507 C1504 1.403 . S
C1507 C1508 1.524 . S
C1507 C1511 1.400 . S
C1508 H1493 0.960 . S
C1508 H1494 0.960 . S
C1508 H1495 0.960 . S
C1508 C1507 1.524 . S
C1509 C1506 1.403 . S
C1509 C1510 1.392 . S
C1509 C1513 1.495 . S
C1510 C1509 1.392 . S
C1510 C1511 1.385 . S
C1510 C1512 1.478 . S
C1511 H1505 0.930 . S
C1511 C1507 1.400 . S
C1511 C1510 1.385 . S
C1512 C1510 1.478 . S
C1512 C1514 1.381 . S
C1512 C1518 1.383 . S
C1513 C1509 1.495 . S
C1513 H1519 0.959 . S
C1513 H1520 0.961 . S
C1513 H1521 0.960 . S
C1514 C1512 1.381 . S
C1514 C1515 1.394 . S
C1514 H1522 0.930 . S
C1515 C1514 1.394 . S
C1515 C1516 1.383 . S
C1515 H1523 0.929 . S
C1516 C1515 1.383 . S
C1516 C1517 1.377 . S
C1517 H1501 0.930 . S
C1517 C1516 1.377 . S
C1517 C1518 1.379 . S
C1518 H1502 0.931 . S
C1518 C1512 1.383 . S
C1518 C1517 1.379 . S
H1519 C1513 0.959 . S
H1520 C1513 0.961 . S
H1521 C1513 0.960 . S
H1522 C1514 0.930 . S
H1523 C1515 0.929 . S
H1524 C1532 0.929 . S
H1525 C1534 0.930 . S
H1526 C1536 0.930 . S
H1527 C1539 0.929 . S
H1528 C1542 0.930 . S
H1529 C1544 0.960 . S
H1530 C1544 0.960 . S
H1531 C1544 0.960 . S
C1532 H1524 0.929 . S
C1532 C1533 1.377 . S
C1532 C1534 1.384 . S
C1533 C1532 1.377 . S
C1533 C1539 1.390 . S
C1534 H1525 0.930 . S
C1534 C1532 1.384 . S
C1534 C1535 1.372 . S
C1535 C1534 1.372 . S
C1535 C1536 1.400 . S
C1535 C1540 1.490 . S
C1536 H1526 0.930 . S
C1536 C1535 1.400 . S
C1536 C1539 1.386 . S
H1537 C1553 0.930 . S
H1538 C1554 0.931 . S
C1539 H1527 0.929 . S
C1539 C1533 1.390 . S
C1539 C1536 1.386 . S
C1540 C1535 1.490 . S
C1540 C1542 1.395 . S
C1540 C1543 1.403 . S
H1541 C1547 0.930 . S
C1542 H1528 0.930 . S
C1542 C1540 1.395 . S
C1542 C1545 1.403 . S
C1543 C1540 1.403 . S
C1543 C1544 1.524 . S
C1543 C1547 1.400 . S
C1544 H1529 0.960 . S
C1544 H1530 0.960 . S
C1544 H1531 0.960 . S
C1544 C1543 1.524 . S
C1545 C1542 1.403 . S
C1545 C1546 1.392 . S
C1545 C1549 1.495 . S
C1546 C1545 1.392 . S
C1546 C1547 1.385 . S
C1546 C1548 1.478 . S
C1547 H1541 0.930 . S
C1547 C1543 1.400 . S
C1547 C1546 1.385 . S
C1548 C1546 1.478 . S
C1548 C1550 1.381 . S
C1548 C1554 1.383 . S
C1549 C1545 1.495 . S
C1549 H1555 0.959 . S
C1549 H1556 0.961 . S
C1549 H1557 0.960 . S
C1550 C1548 1.381 . S
C1550 C1551 1.394 . S
C1550 H1558 0.930 . S
C1551 C1550 1.394 . S
C1551 C1552 1.383 . S
C1551 H1559 0.929 . S
C1552 C1551 1.383 . S
C1552 C1553 1.377 . S
C1553 H1537 0.930 . S
C1553 C1552 1.377 . S
C1553 C1554 1.379 . S
C1554 H1538 0.931 . S
C1554 C1548 1.383 . S
C1554 C1553 1.379 . S
H1555 C1549 0.959 . S
H1556 C1549 0.961 . S
H1557 C1549 0.960 . S
H1558 C1550 0.930 . S
H1559 C1551 0.929 . S
H1560 C1568 0.929 . S
H1561 C1570 0.930 . S
H1562 C1572 0.930 . S
H1563 C1575 0.929 . S
H1564 C1578 0.930 . S
H1565 C1580 0.960 . S
H1566 C1580 0.960 . S
H1567 C1580 0.960 . S
C1568 H1560 0.929 . S
C1568 C1569 1.377 . S
C1568 C1570 1.384 . S
C1569 C1568 1.377 . S
C1569 C1575 1.390 . S
C1570 H1561 0.930 . S
C1570 C1568 1.384 . S
C1570 C1571 1.372 . S
C1571 C1570 1.372 . S
C1571 C1572 1.400 . S
C1571 C1576 1.490 . S
C1572 H1562 0.930 . S
C1572 C1571 1.400 . S
C1572 C1575 1.386 . S
H1573 C1589 0.930 . S
H1574 C1590 0.931 . S
C1575 H1563 0.929 . S
C1575 C1569 1.390 . S
C1575 C1572 1.386 . S
C1576 C1571 1.490 . S
C1576 C1578 1.395 . S
C1576 C1579 1.403 . S
H1577 C1583 0.930 . S
C1578 H1564 0.930 . S
C1578 C1576 1.395 . S
C1578 C1581 1.403 . S
C1579 C1576 1.403 . S
C1579 C1580 1.524 . S
C1579 C1583 1.400 . S
C1580 H1565 0.960 . S
C1580 H1566 0.960 . S
C1580 H1567 0.960 . S
C1580 C1579 1.524 . S
C1581 C1578 1.403 . S
C1581 C1582 1.392 . S
C1581 C1585 1.495 . S
C1582 C1581 1.392 . S
C1582 C1583 1.385 . S
C1582 C1584 1.478 . S
C1583 H1577 0.930 . S
C1583 C1579 1.400 . S
C1583 C1582 1.385 . S
C1584 C1582 1.478 . S
C1584 C1586 1.381 . S
C1584 C1590 1.383 . S
C1585 C1581 1.495 . S
C1585 H1591 0.959 . S
C1585 H1592 0.961 . S
C1585 H1593 0.960 . S
C1586 C1584 1.381 . S
C1586 C1587 1.394 . S
C1586 H1594 0.930 . S
C1587 C1586 1.394 . S
C1587 C1588 1.383 . S
C1587 H1595 0.929 . S
C1588 C1587 1.383 . S
C1588 C1589 1.377 . S
C1589 H1573 0.930 . S
C1589 C1588 1.377 . S
C1589 C1590 1.379 . S
C1590 H1574 0.931 . S
C1590 C1584 1.383 . S
C1590 C1589 1.379 . S
H1591 C1585 0.959 . S
H1592 C1585 0.961 . S
H1593 C1585 0.960 . S
H1594 C1586 0.930 . S
H1595 C1587 0.929 . S
H1596 C1604 0.929 . S
H1597 C1606 0.930 . S
H1598 C1608 0.930 . S
H1599 C1611 0.929 . S
H1600 C1614 0.930 . S
H1601 C1616 0.960 . S
H1602 C1616 0.960 . S
H1603 C1616 0.960 . S
C1604 H1596 0.929 . S
C1604 C1605 1.377 . S
C1604 C1606 1.384 . S
C1605 C1604 1.377 . S
C1605 C1611 1.390 . S
C1606 H1597 0.930 . S
C1606 C1604 1.384 . S
C1606 C1607 1.372 . S
C1607 C1606 1.372 . S
C1607 C1608 1.400 . S
C1607 C1612 1.490 . S
C1608 H1598 0.930 . S
C1608 C1607 1.400 . S
C1608 C1611 1.386 . S
H1609 C1625 0.930 . S
H1610 C1626 0.931 . S
C1611 H1599 0.929 . S
C1611 C1605 1.390 . S
C1611 C1608 1.386 . S
C1612 C1607 1.490 . S
C1612 C1614 1.395 . S
C1612 C1615 1.403 . S
H1613 C1619 0.930 . S
C1614 H1600 0.930 . S
C1614 C1612 1.395 . S
C1614 C1617 1.403 . S
C1615 C1612 1.403 . S
C1615 C1616 1.524 . S
C1615 C1619 1.400 . S
C1616 H1601 0.960 . S
C1616 H1602 0.960 . S
C1616 H1603 0.960 . S
C1616 C1615 1.524 . S
C1617 C1614 1.403 . S
C1617 C1618 1.392 . S
C1617 C1621 1.495 . S
C1618 C1617 1.392 . S
C1618 C1619 1.385 . S
C1618 C1620 1.478 . S
C1619 H1613 0.930 . S
C1619 C1615 1.400 . S
C1619 C1618 1.385 . S
C1620 C1618 1.478 . S
C1620 C1622 1.381 . S
C1620 C1626 1.383 . S
C1621 C1617 1.495 . S
C1621 H1627 0.959 . S
C1621 H1628 0.961 . S
C1621 H1629 0.960 . S
C1622 C1620 1.381 . S
C1622 C1623 1.394 . S
C1622 H1630 0.930 . S
C1623 C1622 1.394 . S
C1623 C1624 1.383 . S
C1623 H1631 0.929 . S
C1624 C1623 1.383 . S
C1624 C1625 1.377 . S
C1625 H1609 0.930 . S
C1625 C1624 1.377 . S
C1625 C1626 1.379 . S
C1626 H1610 0.931 . S
C1626 C1620 1.383 . S
C1626 C1625 1.379 . S
H1627 C1621 0.959 . S
H1628 C1621 0.961 . S
H1629 C1621 0.960 . S
H1630 C1622 0.930 . S
H1631 C1623 0.929 . S
H1632 C1640 0.929 . S
H1633 C1642 0.930 . S
H1634 C1644 0.930 . S
H1635 C1647 0.929 . S
H1636 C1650 0.930 . S
H1637 C1652 0.960 . S
H1638 C1652 0.960 . S
H1639 C1652 0.960 . S
C1640 H1632 0.929 . S
C1640 C1641 1.377 . S
C1640 C1642 1.384 . S
C1641 C1640 1.377 . S
C1641 C1647 1.390 . S
C1642 H1633 0.930 . S
C1642 C1640 1.384 . S
C1642 C1643 1.372 . S
C1643 C1642 1.372 . S
C1643 C1644 1.400 . S
C1643 C1648 1.490 . S
C1644 H1634 0.930 . S
C1644 C1643 1.400 . S
C1644 C1647 1.386 . S
H1645 C1661 0.930 . S
H1646 C1662 0.931 . S
C1647 H1635 0.929 . S
C1647 C1641 1.390 . S
C1647 C1644 1.386 . S
C1648 C1643 1.490 . S
C1648 C1650 1.395 . S
C1648 C1651 1.403 . S
H1649 C1655 0.930 . S
C1650 H1636 0.930 . S
C1650 C1648 1.395 . S
C1650 C1653 1.403 . S
C1651 C1648 1.403 . S
C1651 C1652 1.524 . S
C1651 C1655 1.400 . S
C1652 H1637 0.960 . S
C1652 H1638 0.960 . S
C1652 H1639 0.960 . S
C1652 C1651 1.524 . S
C1653 C1650 1.403 . S
C1653 C1654 1.392 . S
C1653 C1657 1.495 . S
C1654 C1653 1.392 . S
C1654 C1655 1.385 . S
C1654 C1656 1.478 . S
C1655 H1649 0.930 . S
C1655 C1651 1.400 . S
C1655 C1654 1.385 . S
C1656 C1654 1.478 . S
C1656 C1658 1.381 . S
C1656 C1662 1.383 . S
C1657 C1653 1.495 . S
C1657 H1663 0.959 . S
C1657 H1664 0.961 . S
C1657 H1665 0.960 . S
C1658 C1656 1.381 . S
C1658 C1659 1.394 . S
C1658 H1666 0.930 . S
C1659 C1658 1.394 . S
C1659 C1660 1.383 . S
C1659 H1667 0.929 . S
C1660 C1659 1.383 . S
C1660 C1661 1.377 . S
C1661 H1645 0.930 . S
C1661 C1660 1.377 . S
C1661 C1662 1.379 . S
C1662 H1646 0.931 . S
C1662 C1656 1.383 . S
C1662 C1661 1.379 . S
H1663 C1657 0.959 . S
H1664 C1657 0.961 . S
H1665 C1657 0.960 . S
H1666 C1658 0.930 . S
H1667 C1659 0.929 . S
H1668 C1676 0.929 . S
H1669 C1678 0.930 . S
H1670 C1680 0.930 . S
H1671 C1683 0.929 . S
H1672 C1686 0.930 . S
H1673 C1688 0.960 . S
H1674 C1688 0.960 . S
H1675 C1688 0.960 . S
C1676 H1668 0.929 . S
C1676 C1677 1.377 . S
C1676 C1678 1.384 . S
C1677 C1676 1.377 . S
C1677 C1683 1.390 . S
C1678 H1669 0.930 . S
C1678 C1676 1.384 . S
C1678 C1679 1.372 . S
C1679 C1678 1.372 . S
C1679 C1680 1.400 . S
C1679 C1684 1.490 . S
C1680 H1670 0.930 . S
C1680 C1679 1.400 . S
C1680 C1683 1.386 . S
H1681 C1697 0.930 . S
H1682 C1698 0.931 . S
C1683 H1671 0.929 . S
C1683 C1677 1.390 . S
C1683 C1680 1.386 . S
C1684 C1679 1.490 . S
C1684 C1686 1.395 . S
C1684 C1687 1.403 . S
H1685 C1691 0.930 . S
C1686 H1672 0.930 . S
C1686 C1684 1.395 . S
C1686 C1689 1.403 . S
C1687 C1684 1.403 . S
C1687 C1688 1.524 . S
C1687 C1691 1.400 . S
C1688 H1673 0.960 . S
C1688 H1674 0.960 . S
C1688 H1675 0.960 . S
C1688 C1687 1.524 . S
C1689 C1686 1.403 . S
C1689 C1690 1.392 . S
C1689 C1693 1.495 . S
C1690 C1689 1.392 . S
C1690 C1691 1.385 . S
C1690 C1692 1.478 . S
C1691 H1685 0.930 . S
C1691 C1687 1.400 . S
C1691 C1690 1.385 . S
C1692 C1690 1.478 . S
C1692 C1694 1.381 . S
C1692 C1698 1.383 . S
C1693 C1689 1.495 . S
C1693 H1699 0.959 . S
C1693 H1700 0.961 . S
C1693 H1701 0.960 . S
C1694 C1692 1.381 . S
C1694 C1695 1.394 . S
C1694 H1702 0.930 . S
C1695 C1694 1.394 . S
C1695 C1696 1.383 . S
C1695 H1703 0.929 . S
C1696 C1695 1.383 . S
C1696 C1697 1.377 . S
C1697 H1681 0.930 . S
C1697 C1696 1.377 . S
C1697 C1698 1.379 . S
C1698 H1682 0.931 . S
C1698 C1692 1.383 . S
C1698 C1697 1.379 . S
H1699 C1693 0.959 . S
H1700 C1693 0.961 . S
H1701 C1693 0.960 . S
H1702 C1694 0.930 . S
H1703 C1695 0.929 . S
H1704 C1712 0.929 . S
H1705 C1714 0.930 . S
H1706 C1716 0.930 . S
H1707 C1719 0.929 . S
H1708 C1722 0.930 . S
H1709 C1724 0.960 . S
H1710 C1724 0.960 . S
H1711 C1724 0.960 . S
C1712 H1704 0.929 . S
C1712 C1713 1.377 . S
C1712 C1714 1.384 . S
C1713 C1712 1.377 . S
C1713 C1719 1.390 . S
C1714 H1705 0.930 . S
C1714 C1712 1.384 . S
C1714 C1715 1.372 . S
C1715 C1714 1.372 . S
C1715 C1716 1.400 . S
C1715 C1720 1.490 . S
C1716 H1706 0.930 . S
C1716 C1715 1.400 . S
C1716 C1719 1.386 . S
H1717 C1733 0.930 . S
H1718 C1734 0.931 . S
C1719 H1707 0.929 . S
C1719 C1713 1.390 . S
C1719 C1716 1.386 . S
C1720 C1715 1.490 . S
C1720 C1722 1.395 . S
C1720 C1723 1.403 . S
H1721 C1727 0.930 . S
C1722 H1708 0.930 . S
C1722 C1720 1.395 . S
C1722 C1725 1.403 . S
C1723 C1720 1.403 . S
C1723 C1724 1.524 . S
C1723 C1727 1.400 . S
C1724 H1709 0.960 . S
C1724 H1710 0.960 . S
C1724 H1711 0.960 . S
C1724 C1723 1.524 . S
C1725 C1722 1.403 . S
C1725 C1726 1.392 . S
C1725 C1729 1.495 . S
C1726 C1725 1.392 . S
C1726 C1727 1.385 . S
C1726 C1728 1.478 . S
C1727 H1721 0.930 . S
C1727 C1723 1.400 . S
C1727 C1726 1.385 . S
C1728 C1726 1.478 . S
C1728 C1730 1.381 . S
C1728 C1734 1.383 . S
C1729 C1725 1.495 . S
C1729 H1735 0.959 . S
C1729 H1736 0.961 . S
C1729 H1737 0.960 . S
C1730 C1728 1.381 . S
C1730 C1731 1.394 . S
C1730 H1738 0.930 . S
C1731 C1730 1.394 . S
C1731 C1732 1.383 . S
C1731 H1739 0.929 . S
C1732 C1731 1.383 . S
C1732 C1733 1.377 . S
C1733 H1717 0.930 . S
C1733 C1732 1.377 . S
C1733 C1734 1.379 . S
C1734 H1718 0.931 . S
C1734 C1728 1.383 . S
C1734 C1733 1.379 . S
H1735 C1729 0.959 . S
H1736 C1729 0.961 . S
H1737 C1729 0.960 . S
H1738 C1730 0.930 . S
H1739 C1731 0.929 . S
H1740 C1748 0.929 . S
H1741 C1750 0.930 . S
H1742 C1752 0.930 . S
H1743 C1755 0.929 . S
H1744 C1758 0.930 . S
H1745 C1760 0.960 . S
H1746 C1760 0.960 . S
H1747 C1760 0.960 . S
C1748 H1740 0.929 . S
C1748 C1749 1.377 . S
C1748 C1750 1.384 . S
C1749 C1748 1.377 . S
C1749 C1755 1.390 . S
C1750 H1741 0.930 . S
C1750 C1748 1.384 . S
C1750 C1751 1.372 . S
C1751 C1750 1.372 . S
C1751 C1752 1.400 . S
C1751 C1756 1.490 . S
C1752 H1742 0.930 . S
C1752 C1751 1.400 . S
C1752 C1755 1.386 . S
H1753 C1769 0.930 . S
H1754 C1770 0.931 . S
C1755 H1743 0.929 . S
C1755 C1749 1.390 . S
C1755 C1752 1.386 . S
C1756 C1751 1.490 . S
C1756 C1758 1.395 . S
C1756 C1759 1.403 . S
H1757 C1763 0.930 . S
C1758 H1744 0.930 . S
C1758 C1756 1.395 . S
C1758 C1761 1.403 . S
C1759 C1756 1.403 . S
C1759 C1760 1.524 . S
C1759 C1763 1.400 . S
C1760 H1745 0.960 . S
C1760 H1746 0.960 . S
C1760 H1747 0.960 . S
C1760 C1759 1.524 . S
C1761 C1758 1.403 . S
C1761 C1762 1.392 . S
C1761 C1765 1.495 . S
C1762 C1761 1.392 . S
C1762 C1763 1.385 . S
C1762 C1764 1.478 . S
C1763 H1757 0.930 . S
C1763 C1759 1.400 . S
C1763 C1762 1.385 . S
C1764 C1762 1.478 . S
C1764 C1766 1.381 . S
C1764 C1770 1.383 . S
C1765 C1761 1.495 . S
C1765 H1771 0.959 . S
C1765 H1772 0.961 . S
C1765 H1773 0.960 . S
C1766 C1764 1.381 . S
C1766 C1767 1.394 . S
C1766 H1774 0.930 . S
C1767 C1766 1.394 . S
C1767 C1768 1.383 . S
C1767 H1775 0.929 . S
C1768 C1767 1.383 . S
C1768 C1769 1.377 . S
C1769 H1753 0.930 . S
C1769 C1768 1.377 . S
C1769 C1770 1.379 . S
C1770 H1754 0.931 . S
C1770 C1764 1.383 . S
C1770 C1769 1.379 . S
H1771 C1765 0.959 . S
H1772 C1765 0.961 . S
H1773 C1765 0.960 . S
H1774 C1766 0.930 . S
H1775 C1767 0.929 . S
H1776 C1784 0.929 . S
H1777 C1786 0.930 . S
H1778 C1788 0.930 . S
H1779 C1791 0.929 . S
H1780 C1794 0.930 . S
H1781 C1796 0.960 . S
H1782 C1796 0.960 . S
H1783 C1796 0.960 . S
C1784 H1776 0.929 . S
C1784 C1785 1.377 . S
C1784 C1786 1.384 . S
C1785 C1784 1.377 . S
C1785 C1791 1.390 . S
C1786 H1777 0.930 . S
C1786 C1784 1.384 . S
C1786 C1787 1.372 . S
C1787 C1786 1.372 . S
C1787 C1788 1.400 . S
C1787 C1792 1.490 . S
C1788 H1778 0.930 . S
C1788 C1787 1.400 . S
C1788 C1791 1.386 . S
H1789 C1805 0.930 . S
H1790 C1806 0.931 . S
C1791 H1779 0.929 . S
C1791 C1785 1.390 . S
C1791 C1788 1.386 . S
C1792 C1787 1.490 . S
C1792 C1794 1.395 . S
C1792 C1795 1.403 . S
H1793 C1799 0.930 . S
C1794 H1780 0.930 . S
C1794 C1792 1.395 . S
C1794 C1797 1.403 . S
C1795 C1792 1.403 . S
C1795 C1796 1.524 . S
C1795 C1799 1.400 . S
C1796 H1781 0.960 . S
C1796 H1782 0.960 . S
C1796 H1783 0.960 . S
C1796 C1795 1.524 . S
C1797 C1794 1.403 . S
C1797 C1798 1.392 . S
C1797 C1801 1.495 . S
C1798 C1797 1.392 . S
C1798 C1799 1.385 . S
C1798 C1800 1.478 . S
C1799 H1793 0.930 . S
C1799 C1795 1.400 . S
C1799 C1798 1.385 . S
C1800 C1798 1.478 . S
C1800 C1802 1.381 . S
C1800 C1806 1.383 . S
C1801 C1797 1.495 . S
C1801 H1807 0.959 . S
C1801 H1808 0.961 . S
C1801 H1809 0.960 . S
C1802 C1800 1.381 . S
C1802 C1803 1.394 . S
C1802 H1810 0.930 . S
C1803 C1802 1.394 . S
C1803 C1804 1.383 . S
C1803 H1811 0.929 . S
C1804 C1803 1.383 . S
C1804 C1805 1.377 . S
C1805 H1789 0.930 . S
C1805 C1804 1.377 . S
C1805 C1806 1.379 . S
C1806 H1790 0.931 . S
C1806 C1800 1.383 . S
C1806 C1805 1.379 . S
H1807 C1801 0.959 . S
H1808 C1801 0.961 . S
H1809 C1801 0.960 . S
H1810 C1802 0.930 . S
H1811 C1803 0.929 . S
H1812 C1820 0.929 . S
H1813 C1822 0.930 . S
H1814 C1824 0.930 . S
H1815 C1827 0.929 . S
H1816 C1830 0.930 . S
H1817 C1832 0.960 . S
H1818 C1832 0.960 . S
H1819 C1832 0.960 . S
C1820 H1812 0.929 . S
C1820 C1821 1.377 . S
C1820 C1822 1.384 . S
C1821 C1820 1.377 . S
C1821 C1827 1.390 . S
C1822 H1813 0.930 . S
C1822 C1820 1.384 . S
C1822 C1823 1.372 . S
C1823 C1822 1.372 . S
C1823 C1824 1.400 . S
C1823 C1828 1.490 . S
C1824 H1814 0.930 . S
C1824 C1823 1.400 . S
C1824 C1827 1.386 . S
H1825 C1841 0.930 . S
H1826 C1842 0.931 . S
C1827 H1815 0.929 . S
C1827 C1821 1.390 . S
C1827 C1824 1.386 . S
C1828 C1823 1.490 . S
C1828 C1830 1.395 . S
C1828 C1831 1.403 . S
H1829 C1835 0.930 . S
C1830 H1816 0.930 . S
C1830 C1828 1.395 . S
C1830 C1833 1.403 . S
C1831 C1828 1.403 . S
C1831 C1832 1.524 . S
C1831 C1835 1.400 . S
C1832 H1817 0.960 . S
C1832 H1818 0.960 . S
C1832 H1819 0.960 . S
C1832 C1831 1.524 . S
C1833 C1830 1.403 . S
C1833 C1834 1.392 . S
C1833 C1837 1.495 . S
C1834 C1833 1.392 . S
C1834 C1835 1.385 . S
C1834 C1836 1.478 . S
C1835 H1829 0.930 . S
C1835 C1831 1.400 . S
C1835 C1834 1.385 . S
C1836 C1834 1.478 . S
C1836 C1838 1.381 . S
C1836 C1842 1.383 . S
C1837 C1833 1.495 . S
C1837 H1843 0.959 . S
C1837 H1844 0.961 . S
C1837 H1845 0.960 . S
C1838 C1836 1.381 . S
C1838 C1839 1.394 . S
C1838 H1846 0.930 . S
C1839 C1838 1.394 . S
C1839 C1840 1.383 . S
C1839 H1847 0.929 . S
C1840 C1839 1.383 . S
C1840 C1841 1.377 . S
C1841 H1825 0.930 . S
C1841 C1840 1.377 . S
C1841 C1842 1.379 . S
C1842 H1826 0.931 . S
C1842 C1836 1.383 . S
C1842 C1841 1.379 . S
H1843 C1837 0.959 . S
H1844 C1837 0.961 . S
H1845 C1837 0.960 . S
H1846 C1838 0.930 . S
H1847 C1839 0.929 . S
H1848 C1856 0.929 . S
H1849 C1858 0.930 . S
H1850 C1860 0.930 . S
H1851 C1863 0.929 . S
H1852 C1866 0.930 . S
H1853 C1868 0.960 . S
H1854 C1868 0.960 . S
H1855 C1868 0.960 . S
C1856 H1848 0.929 . S
C1856 C1857 1.377 . S
C1856 C1858 1.384 . S
C1857 C1856 1.377 . S
C1857 C1863 1.390 . S
C1858 H1849 0.930 . S
C1858 C1856 1.384 . S
C1858 C1859 1.372 . S
C1859 C1858 1.372 . S
C1859 C1860 1.400 . S
C1859 C1864 1.490 . S
C1860 H1850 0.930 . S
C1860 C1859 1.400 . S
C1860 C1863 1.386 . S
H1861 C1877 0.930 . S
H1862 C1878 0.931 . S
C1863 H1851 0.929 . S
C1863 C1857 1.390 . S
C1863 C1860 1.386 . S
C1864 C1859 1.490 . S
C1864 C1866 1.395 . S
C1864 C1867 1.403 . S
H1865 C1871 0.930 . S
C1866 H1852 0.930 . S
C1866 C1864 1.395 . S
C1866 C1869 1.403 . S
C1867 C1864 1.403 . S
C1867 C1868 1.524 . S
C1867 C1871 1.400 . S
C1868 H1853 0.960 . S
C1868 H1854 0.960 . S
C1868 H1855 0.960 . S
C1868 C1867 1.524 . S
C1869 C1866 1.403 . S
C1869 C1870 1.392 . S
C1869 C1873 1.495 . S
C1870 C1869 1.392 . S
C1870 C1871 1.385 . S
C1870 C1872 1.478 . S
C1871 H1865 0.930 . S
C1871 C1867 1.400 . S
C1871 C1870 1.385 . S
C1872 C1870 1.478 . S
C1872 C1874 1.381 . S
C1872 C1878 1.383 . S
C1873 C1869 1.495 . S
C1873 H1879 0.959 . S
C1873 H1880 0.961 . S
C1873 H1881 0.960 . S
C1874 C1872 1.381 . S
C1874 C1875 1.394 . S
C1874 H1882 0.930 . S
C1875 C1874 1.394 . S
C1875 C1876 1.383 . S
C1875 H1883 0.929 . S
C1876 C1875 1.383 . S
C1876 C1877 1.377 . S
C1877 H1861 0.930 . S
C1877 C1876 1.377 . S
C1877 C1878 1.379 . S
C1878 H1862 0.931 . S
C1878 C1872 1.383 . S
C1878 C1877 1.379 . S
H1879 C1873 0.959 . S
H1880 C1873 0.961 . S
H1881 C1873 0.960 . S
H1882 C1874 0.930 . S
H1883 C1875 0.929 . S
H1884 C1892 0.929 . S
H1885 C1894 0.930 . S
H1886 C1896 0.930 . S
H1887 C1899 0.929 . S
H1888 C1902 0.930 . S
H1889 C1904 0.960 . S
H1890 C1904 0.960 . S
H1891 C1904 0.960 . S
C1892 H1884 0.929 . S
C1892 C1893 1.377 . S
C1892 C1894 1.384 . S
C1893 C1892 1.377 . S
C1893 C1899 1.390 . S
C1894 H1885 0.930 . S
C1894 C1892 1.384 . S
C1894 C1895 1.372 . S
C1895 C1894 1.372 . S
C1895 C1896 1.400 . S
C1895 C1900 1.490 . S
C1896 H1886 0.930 . S
C1896 C1895 1.400 . S
C1896 C1899 1.386 . S
H1897 C1913 0.930 . S
H1898 C1914 0.931 . S
C1899 H1887 0.929 . S
C1899 C1893 1.390 . S
C1899 C1896 1.386 . S
C1900 C1895 1.490 . S
C1900 C1902 1.395 . S
C1900 C1903 1.403 . S
H1901 C1907 0.930 . S
C1902 H1888 0.930 . S
C1902 C1900 1.395 . S
C1902 C1905 1.403 . S
C1903 C1900 1.403 . S
C1903 C1904 1.524 . S
C1903 C1907 1.400 . S
C1904 H1889 0.960 . S
C1904 H1890 0.960 . S
C1904 H1891 0.960 . S
C1904 C1903 1.524 . S
C1905 C1902 1.403 . S
C1905 C1906 1.392 . S
C1905 C1909 1.495 . S
C1906 C1905 1.392 . S
C1906 C1907 1.385 . S
C1906 C1908 1.478 . S
C1907 H1901 0.930 . S
C1907 C1903 1.400 . S
C1907 C1906 1.385 . S
C1908 C1906 1.478 . S
C1908 C1910 1.381 . S
C1908 C1914 1.383 . S
C1909 C1905 1.495 . S
C1909 H1915 0.959 . S
C1909 H1916 0.961 . S
C1909 H1917 0.960 . S
C1910 C1908 1.381 . S
C1910 C1911 1.394 . S
C1910 H1918 0.930 . S
C1911 C1910 1.394 . S
C1911 C1912 1.383 . S
C1911 H1919 0.929 . S
C1912 C1911 1.383 . S
C1912 C1913 1.377 . S
C1913 H1897 0.930 . S
C1913 C1912 1.377 . S
C1913 C1914 1.379 . S
C1914 H1898 0.931 . S
C1914 C1908 1.383 . S
C1914 C1913 1.379 . S
H1915 C1909 0.959 . S
H1916 C1909 0.961 . S
H1917 C1909 0.960 . S
H1918 C1910 0.930 . S
H1919 C1911 0.929 . S
H1920 C1928 0.929 . S
H1921 C1930 0.930 . S
H1922 C1932 0.930 . S
H1923 C1935 0.929 . S
H1924 C1938 0.930 . S
H1925 C1940 0.960 . S
H1926 C1940 0.960 . S
H1927 C1940 0.960 . S
C1928 H1920 0.929 . S
C1928 C1929 1.377 . S
C1928 C1930 1.384 . S
C1929 C1928 1.377 . S
C1929 C1935 1.390 . S
C1930 H1921 0.930 . S
C1930 C1928 1.384 . S
C1930 C1931 1.372 . S
C1931 C1930 1.372 . S
C1931 C1932 1.400 . S
C1931 C1936 1.490 . S
C1932 H1922 0.930 . S
C1932 C1931 1.400 . S
C1932 C1935 1.386 . S
H1933 C1949 0.930 . S
H1934 C1950 0.931 . S
C1935 H1923 0.929 . S
C1935 C1929 1.390 . S
C1935 C1932 1.386 . S
C1936 C1931 1.490 . S
C1936 C1938 1.395 . S
C1936 C1939 1.403 . S
H1937 C1943 0.930 . S
C1938 H1924 0.930 . S
C1938 C1936 1.395 . S
C1938 C1941 1.403 . S
C1939 C1936 1.403 . S
C1939 C1940 1.524 . S
C1939 C1943 1.400 . S
C1940 H1925 0.960 . S
C1940 H1926 0.960 . S
C1940 H1927 0.960 . S
C1940 C1939 1.524 . S
C1941 C1938 1.403 . S
C1941 C1942 1.392 . S
C1941 C1945 1.495 . S
C1942 C1941 1.392 . S
C1942 C1943 1.385 . S
C1942 C1944 1.478 . S
C1943 H1937 0.930 . S
C1943 C1939 1.400 . S
C1943 C1942 1.385 . S
C1944 C1942 1.478 . S
C1944 C1946 1.381 . S
C1944 C1950 1.383 . S
C1945 C1941 1.495 . S
C1945 H1951 0.959 . S
C1945 H1952 0.961 . S
C1945 H1953 0.960 . S
C1946 C1944 1.381 . S
C1946 C1947 1.394 . S
C1946 H1954 0.930 . S
C1947 C1946 1.394 . S
C1947 C1948 1.383 . S
C1947 H1955 0.929 . S
C1948 C1947 1.383 . S
C1948 C1949 1.377 . S
C1949 H1933 0.930 . S
C1949 C1948 1.377 . S
C1949 C1950 1.379 . S
C1950 H1934 0.931 . S
C1950 C1944 1.383 . S
C1950 C1949 1.379 . S
H1951 C1945 0.959 . S
H1952 C1945 0.961 . S
H1953 C1945 0.960 . S
H1954 C1946 0.930 . S
H1955 C1947 0.929 . S
H1956 C1964 0.929 . S
H1957 C1966 0.930 . S
H1958 C1968 0.930 . S
H1959 C1971 0.929 . S
H1960 C1974 0.930 . S
H1961 C1976 0.960 . S
H1962 C1976 0.960 . S
H1963 C1976 0.960 . S
C1964 H1956 0.929 . S
C1964 C1965 1.377 . S
C1964 C1966 1.384 . S
C1965 C1964 1.377 . S
C1965 C1971 1.390 . S
C1966 H1957 0.930 . S
C1966 C1964 1.384 . S
C1966 C1967 1.372 . S
C1967 C1966 1.372 . S
C1967 C1968 1.400 . S
C1967 C1972 1.490 . S
C1968 H1958 0.930 . S
C1968 C1967 1.400 . S
C1968 C1971 1.386 . S
H1969 C1985 0.930 . S
H1970 C1986 0.931 . S
C1971 H1959 0.929 . S
C1971 C1965 1.390 . S
C1971 C1968 1.386 . S
C1972 C1967 1.490 . S
C1972 C1974 1.395 . S
C1972 C1975 1.403 . S
H1973 C1979 0.930 . S
C1974 H1960 0.930 . S
C1974 C1972 1.395 . S
C1974 C1977 1.403 . S
C1975 C1972 1.403 . S
C1975 C1976 1.524 . S
C1975 C1979 1.400 . S
C1976 H1961 0.960 . S
C1976 H1962 0.960 . S
C1976 H1963 0.960 . S
C1976 C1975 1.524 . S
C1977 C1974 1.403 . S
C1977 C1978 1.392 . S
C1977 C1981 1.495 . S
C1978 C1977 1.392 . S
C1978 C1979 1.385 . S
C1978 C1980 1.478 . S
C1979 H1973 0.930 . S
C1979 C1975 1.400 . S
C1979 C1978 1.385 . S
C1980 C1978 1.478 . S
C1980 C1982 1.381 . S
C1980 C1986 1.383 . S
C1981 C1977 1.495 . S
C1981 H1987 0.959 . S
C1981 H1988 0.961 . S
C1981 H1989 0.960 . S
C1982 C1980 1.381 . S
C1982 C1983 1.394 . S
C1982 H1990 0.930 . S
C1983 C1982 1.394 . S
C1983 C1984 1.383 . S
C1983 H1991 0.929 . S
C1984 C1983 1.383 . S
C1984 C1985 1.377 . S
C1985 H1969 0.930 . S
C1985 C1984 1.377 . S
C1985 C1986 1.379 . S
C1986 H1970 0.931 . S
C1986 C1980 1.383 . S
C1986 C1985 1.379 . S
H1987 C1981 0.959 . S
H1988 C1981 0.961 . S
H1989 C1981 0.960 . S
H1990 C1982 0.930 . S
H1991 C1983 0.929 . S
H1992 C2000 0.929 . S
H1993 C2002 0.930 . S
H1994 C2004 0.930 . S
H1995 C2007 0.929 . S
H1996 C2010 0.930 . S
H1997 C2012 0.960 . S
H1998 C2012 0.960 . S
H1999 C2012 0.960 . S
C2000 H1992 0.929 . S
C2000 C2001 1.377 . S
C2000 C2002 1.384 . S
C2001 C2000 1.377 . S
C2001 C2007 1.390 . S
C2002 H1993 0.930 . S
C2002 C2000 1.384 . S
C2002 C2003 1.372 . S
C2003 C2002 1.372 . S
C2003 C2004 1.400 . S
C2003 C2008 1.490 . S
C2004 H1994 0.930 . S
C2004 C2003 1.400 . S
C2004 C2007 1.386 . S
H2005 C2021 0.930 . S
H2006 C2022 0.931 . S
C2007 H1995 0.929 . S
C2007 C2001 1.390 . S
C2007 C2004 1.386 . S
C2008 C2003 1.490 . S
C2008 C2010 1.395 . S
C2008 C2011 1.403 . S
H2009 C2015 0.930 . S
C2010 H1996 0.930 . S
C2010 C2008 1.395 . S
C2010 C2013 1.403 . S
C2011 C2008 1.403 . S
C2011 C2012 1.524 . S
C2011 C2015 1.400 . S
C2012 H1997 0.960 . S
C2012 H1998 0.960 . S
C2012 H1999 0.960 . S
C2012 C2011 1.524 . S
C2013 C2010 1.403 . S
C2013 C2014 1.392 . S
C2013 C2017 1.495 . S
C2014 C2013 1.392 . S
C2014 C2015 1.385 . S
C2014 C2016 1.478 . S
C2015 H2009 0.930 . S
C2015 C2011 1.400 . S
C2015 C2014 1.385 . S
C2016 C2014 1.478 . S
C2016 C2018 1.381 . S
C2016 C2022 1.383 . S
C2017 C2013 1.495 . S
C2017 H2023 0.959 . S
C2017 H2024 0.961 . S
C2017 H2025 0.960 . S
C2018 C2016 1.381 . S
C2018 C2019 1.394 . S
C2018 H2026 0.930 . S
C2019 C2018 1.394 . S
C2019 C2020 1.383 . S
C2019 H2027 0.929 . S
C2020 C2019 1.383 . S
C2020 C2021 1.377 . S
C2021 H2005 0.930 . S
C2021 C2020 1.377 . S
C2021 C2022 1.379 . S
C2022 H2006 0.931 . S
C2022 C2016 1.383 . S
C2022 C2021 1.379 . S
H2023 C2017 0.959 . S
H2024 C2017 0.961 . S
H2025 C2017 0.960 . S
H2026 C2018 0.930 . S
H2027 C2019 0.929 . S
H2028 C2036 0.929 . S
H2029 C2038 0.930 . S
H2030 C2040 0.930 . S
H2031 C2043 0.929 . S
H2032 C2046 0.930 . S
H2033 C2048 0.960 . S
H2034 C2048 0.960 . S
H2035 C2048 0.960 . S
C2036 H2028 0.929 . S
C2036 C2037 1.377 . S
C2036 C2038 1.384 . S
C2037 C2036 1.377 . S
C2037 C2043 1.390 . S
C2038 H2029 0.930 . S
C2038 C2036 1.384 . S
C2038 C2039 1.372 . S
C2039 C2038 1.372 . S
C2039 C2040 1.400 . S
C2039 C2044 1.490 . S
C2040 H2030 0.930 . S
C2040 C2039 1.400 . S
C2040 C2043 1.386 . S
H2041 C2057 0.930 . S
H2042 C2058 0.931 . S
C2043 H2031 0.929 . S
C2043 C2037 1.390 . S
C2043 C2040 1.386 . S
C2044 C2039 1.490 . S
C2044 C2046 1.395 . S
C2044 C2047 1.403 . S
H2045 C2051 0.930 . S
C2046 H2032 0.930 . S
C2046 C2044 1.395 . S
C2046 C2049 1.403 . S
C2047 C2044 1.403 . S
C2047 C2048 1.524 . S
C2047 C2051 1.400 . S
C2048 H2033 0.960 . S
C2048 H2034 0.960 . S
C2048 H2035 0.960 . S
C2048 C2047 1.524 . S
C2049 C2046 1.403 . S
C2049 C2050 1.392 . S
C2049 C2053 1.495 . S
C2050 C2049 1.392 . S
C2050 C2051 1.385 . S
C2050 C2052 1.478 . S
C2051 H2045 0.930 . S
C2051 C2047 1.400 . S
C2051 C2050 1.385 . S
C2052 C2050 1.478 . S
C2052 C2054 1.381 . S
C2052 C2058 1.383 . S
C2053 C2049 1.495 . S
C2053 H2059 0.959 . S
C2053 H2060 0.961 . S
C2053 H2061 0.960 . S
C2054 C2052 1.381 . S
C2054 C2055 1.394 . S
C2054 H2062 0.930 . S
C2055 C2054 1.394 . S
C2055 C2056 1.383 . S
C2055 H2063 0.929 . S
C2056 C2055 1.383 . S
C2056 C2057 1.377 . S
C2057 H2041 0.930 . S
C2057 C2056 1.377 . S
C2057 C2058 1.379 . S
C2058 H2042 0.931 . S
C2058 C2052 1.383 . S
C2058 C2057 1.379 . S
H2059 C2053 0.959 . S
H2060 C2053 0.961 . S
H2061 C2053 0.960 . S
H2062 C2054 0.930 . S
H2063 C2055 0.929 . S
C345 C314 1.562 . S
C364 C7 1.527 . S
C381 C20 1.553 . S
C400 C231 1.560 . S
C417 C328 1.552 . S
C436 C35 1.580 . S
C453 C301 1.553 . S
C472 C49 1.582 . S
C489 C259 1.562 . S
C508 C63 1.547 . S
C525 C272 1.553 . S
C544 C77 1.568 . S
C561 C287 1.553 . S
C580 C90 1.582 . S
C597 C104 1.557 . S
C616 C244 1.575 . S
C633 C188 1.563 . S
C652 C118 1.527 . S
C669 C203 1.563 . S
C688 C133 1.528 . S
C705 C146 1.553 . S
C724 C216 1.567 . S
C741 C161 1.552 . S
C760 C175 1.572 . S
C777 C105 1.552 . S
C796 C202 1.578 . S
C813 C217 1.563 . S
C832 C62 1.527 . S
C849 C76 1.552 . S
C868 C174 1.570 . S
C885 C189 1.557 . S
C904 C91 1.541 . S
C921 C147 1.553 . S
C940 C21 1.568 . S
C957 C34 1.553 . S
C976 C160 1.563 . S
C993 C48 1.561 . S
C1012 C119 1.556 . S
C1029 C6 1.552 . S
C1048 C132 1.578 . S
C1065 C286 1.552 . S
C1084 C300 1.578 . S
C1101 C315 1.556 . S
C1120 C245 1.577 . S
C1137 C258 1.554 . S
C1156 C230 1.557 . S
C1173 C329 1.553 . S
C1192 C273 1.582 . S
C1209 C8 0.680 . S
C1228 C120 0.637 . S
C1245 C135 0.671 . S
C1264 C23 0.615 . S
C1281 C36 0.672 . S
C1300 C148 0.685 . S
C1317 C50 0.694 . S
C1336 C163 0.732 . S
C1353 C64 0.667 . S
C1372 C177 0.643 . S
C1389 C78 0.694 . S
C1408 C190 0.724 . S
C1425 C205 0.692 . S
C1444 C93 0.743 . S
C1461 C218 0.676 . S
C1480 C107 0.624 . S
C1497 C121 0.671 . S
C1516 C233 0.678 . S
C1533 C134 0.690 . S
C1552 C330 0.745 . S
C1569 C303 0.678 . S
C1588 C149 0.713 . S
C1605 C316 0.668 . S
C1624 C162 0.661 . S
C1641 C246 0.668 . S
C1660 C176 0.615 . S
C1677 C261 0.693 . S
C1696 C191 0.711 . S
C1713 C204 0.686 . S
C1732 C274 0.665 . S
C1749 C219 0.678 . S
C1768 C289 0.631 . S
C1785 C9 0.667 . S
C1804 C232 0.643 . S
C1821 C247 0.667 . S
C1840 C65 0.621 . S
C1857 C260 0.673 . S
C1876 C79 0.618 . S
C1893 C275 0.684 . S
C1912 C92 0.734 . S
C1929 C288 0.690 . S
C1948 C106 0.690 . S
C1965 C302 0.688 . S
C1984 C37 0.680 . S
C2001 C51 0.694 . S
C2020 C317 0.724 . S
C2037 C331 0.688 . S
C2056 C22 0.678 . S
