# Generated by pormake.
# Topology wgh, (5)-cn, num edge types: 1
# Building blocks:
#     Node 0, Type 0, BuildingBlock: XOMCOT_clean_sbu_0, # of connection points: 5
#     Node 1, Type 0, BuildingBlock: XOMCOT_clean_sbu_0, # of connection points: 5
#     Node 2, Type 0, BuildingBlock: XOMCOT_clean_sbu_0, # of connection points: 5
#     Node 3, Type 0, BuildingBlock: XOMCOT_clean_sbu_0, # of connection points: 5
#     Node 4, Type 0, BuildingBlock: XOMCOT_clean_sbu_0, # of connection points: 5
#     Node 5, Type 0, BuildingBlock: XOMCOT_clean_sbu_0, # of connection points: 5
#     Node 6, Type 0, BuildingBlock: XOMCOT_clean_sbu_0, # of connection points: 5
#     Node 7, Type 0, BuildingBlock: XOMCOT_clean_sbu_0, # of connection points: 5
#     Node 8, Type 0, BuildingBlock: XOMCOT_clean_sbu_0, # of connection points: 5
#     Node 9, Type 0, BuildingBlock: XOMCOT_clean_sbu_0, # of connection points: 5
#     Node 10, Type 0, BuildingBlock: XOMCOT_clean_sbu_0, # of connection points: 5
#     Node 11, Type 0, BuildingBlock: XOMCOT_clean_sbu_0, # of connection points: 5
#     Node 12, Type 0, BuildingBlock: XOMCOT_clean_sbu_0, # of connection points: 5
#     Node 13, Type 0, BuildingBlock: XOMCOT_clean_sbu_0, # of connection points: 5
#     Node 14, Type 0, BuildingBlock: XOMCOT_clean_sbu_0, # of connection points: 5
#     Node 15, Type 0, BuildingBlock: XOMCOT_clean_sbu_0, # of connection points: 5
#     Node 16, Type 0, BuildingBlock: XOMCOT_clean_sbu_0, # of connection points: 5
#     Node 17, Type 0, BuildingBlock: XOMCOT_clean_sbu_0, # of connection points: 5
#     Node 18, Type 0, BuildingBlock: XOMCOT_clean_sbu_0, # of connection points: 5
#     Node 19, Type 0, BuildingBlock: XOMCOT_clean_sbu_0, # of connection points: 5
#     Node 20, Type 0, BuildingBlock: XOMCOT_clean_sbu_0, # of connection points: 5
#     Node 21, Type 0, BuildingBlock: XOMCOT_clean_sbu_0, # of connection points: 5
#     Node 22, Type 0, BuildingBlock: XOMCOT_clean_sbu_0, # of connection points: 5
#     Node 23, Type 0, BuildingBlock: XOMCOT_clean_sbu_0, # of connection points: 5
#     Node 24, Type 0, BuildingBlock: XOMCOT_clean_sbu_0, # of connection points: 5
#     Node 25, Type 0, BuildingBlock: XOMCOT_clean_sbu_0, # of connection points: 5
#     Node 26, Type 0, BuildingBlock: XOMCOT_clean_sbu_0, # of connection points: 5
#     Node 27, Type 0, BuildingBlock: XOMCOT_clean_sbu_0, # of connection points: 5
#     Node 28, Type 0, BuildingBlock: XOMCOT_clean_sbu_0, # of connection points: 5
#     Node 29, Type 0, BuildingBlock: XOMCOT_clean_sbu_0, # of connection points: 5
#     Node 30, Type 0, BuildingBlock: XOMCOT_clean_sbu_0, # of connection points: 5
#     Node 31, Type 0, BuildingBlock: XOMCOT_clean_sbu_0, # of connection points: 5
#     Edge 32, Type (0, 0), BuildingBlock: KIFKEQ_clean_linker_1, # of connection points: 2
#     Edge 33, Type (0, 0), BuildingBlock: KIFKEQ_clean_linker_1, # of connection points: 2
#     Edge 34, Type (0, 0), BuildingBlock: KIFKEQ_clean_linker_1, # of connection points: 2
#     Edge 35, Type (0, 0), BuildingBlock: KIFKEQ_clean_linker_1, # of connection points: 2
#     Edge 36, Type (0, 0), BuildingBlock: KIFKEQ_clean_linker_1, # of connection points: 2
#     Edge 37, Type (0, 0), BuildingBlock: KIFKEQ_clean_linker_1, # of connection points: 2
#     Edge 38, Type (0, 0), BuildingBlock: KIFKEQ_clean_linker_1, # of connection points: 2
#     Edge 39, Type (0, 0), BuildingBlock: KIFKEQ_clean_linker_1, # of connection points: 2
#     Edge 40, Type (0, 0), BuildingBlock: KIFKEQ_clean_linker_1, # of connection points: 2
#     Edge 41, Type (0, 0), BuildingBlock: KIFKEQ_clean_linker_1, # of connection points: 2
#     Edge 42, Type (0, 0), BuildingBlock: KIFKEQ_clean_linker_1, # of connection points: 2
#     Edge 43, Type (0, 0), BuildingBlock: KIFKEQ_clean_linker_1, # of connection points: 2
#     Edge 44, Type (0, 0), BuildingBlock: KIFKEQ_clean_linker_1, # of connection points: 2
#     Edge 45, Type (0, 0), BuildingBlock: KIFKEQ_clean_linker_1, # of connection points: 2
#     Edge 46, Type (0, 0), BuildingBlock: KIFKEQ_clean_linker_1, # of connection points: 2
#     Edge 47, Type (0, 0), BuildingBlock: KIFKEQ_clean_linker_1, # of connection points: 2
#     Edge 48, Type (0, 0), BuildingBlock: KIFKEQ_clean_linker_1, # of connection points: 2
#     Edge 49, Type (0, 0), BuildingBlock: KIFKEQ_clean_linker_1, # of connection points: 2
#     Edge 50, Type (0, 0), BuildingBlock: KIFKEQ_clean_linker_1, # of connection points: 2
#     Edge 51, Type (0, 0), BuildingBlock: KIFKEQ_clean_linker_1, # of connection points: 2
#     Edge 52, Type (0, 0), BuildingBlock: KIFKEQ_clean_linker_1, # of connection points: 2
#     Edge 53, Type (0, 0), BuildingBlock: KIFKEQ_clean_linker_1, # of connection points: 2
#     Edge 54, Type (0, 0), BuildingBlock: KIFKEQ_clean_linker_1, # of connection points: 2
#     Edge 55, Type (0, 0), BuildingBlock: KIFKEQ_clean_linker_1, # of connection points: 2
#     Edge 56, Type (0, 0), BuildingBlock: KIFKEQ_clean_linker_1, # of connection points: 2
#     Edge 57, Type (0, 0), BuildingBlock: KIFKEQ_clean_linker_1, # of connection points: 2
#     Edge 58, Type (0, 0), BuildingBlock: KIFKEQ_clean_linker_1, # of connection points: 2
#     Edge 59, Type (0, 0), BuildingBlock: KIFKEQ_clean_linker_1, # of connection points: 2
#     Edge 60, Type (0, 0), BuildingBlock: KIFKEQ_clean_linker_1, # of connection points: 2
#     Edge 61, Type (0, 0), BuildingBlock: KIFKEQ_clean_linker_1, # of connection points: 2
#     Edge 62, Type (0, 0), BuildingBlock: KIFKEQ_clean_linker_1, # of connection points: 2
#     Edge 63, Type (0, 0), BuildingBlock: KIFKEQ_clean_linker_1, # of connection points: 2
#     Edge 64, Type (0, 0), BuildingBlock: KIFKEQ_clean_linker_1, # of connection points: 2
#     Edge 65, Type (0, 0), BuildingBlock: KIFKEQ_clean_linker_1, # of connection points: 2
#     Edge 66, Type (0, 0), BuildingBlock: KIFKEQ_clean_linker_1, # of connection points: 2
#     Edge 67, Type (0, 0), BuildingBlock: KIFKEQ_clean_linker_1, # of connection points: 2
#     Edge 68, Type (0, 0), BuildingBlock: KIFKEQ_clean_linker_1, # of connection points: 2
#     Edge 69, Type (0, 0), BuildingBlock: KIFKEQ_clean_linker_1, # of connection points: 2
#     Edge 70, Type (0, 0), BuildingBlock: KIFKEQ_clean_linker_1, # of connection points: 2
#     Edge 71, Type (0, 0), BuildingBlock: KIFKEQ_clean_linker_1, # of connection points: 2
#     Edge 72, Type (0, 0), BuildingBlock: KIFKEQ_clean_linker_1, # of connection points: 2
#     Edge 73, Type (0, 0), BuildingBlock: KIFKEQ_clean_linker_1, # of connection points: 2
#     Edge 74, Type (0, 0), BuildingBlock: KIFKEQ_clean_linker_1, # of connection points: 2
#     Edge 75, Type (0, 0), BuildingBlock: KIFKEQ_clean_linker_1, # of connection points: 2
#     Edge 76, Type (0, 0), BuildingBlock: KIFKEQ_clean_linker_1, # of connection points: 2
#     Edge 77, Type (0, 0), BuildingBlock: KIFKEQ_clean_linker_1, # of connection points: 2
#     Edge 78, Type (0, 0), BuildingBlock: KIFKEQ_clean_linker_1, # of connection points: 2
#     Edge 79, Type (0, 0), BuildingBlock: KIFKEQ_clean_linker_1, # of connection points: 2
#     Edge 80, Type (0, 0), BuildingBlock: KIFKEQ_clean_linker_1, # of connection points: 2
#     Edge 81, Type (0, 0), BuildingBlock: KIFKEQ_clean_linker_1, # of connection points: 2
#     Edge 82, Type (0, 0), BuildingBlock: KIFKEQ_clean_linker_1, # of connection points: 2
#     Edge 83, Type (0, 0), BuildingBlock: KIFKEQ_clean_linker_1, # of connection points: 2
#     Edge 84, Type (0, 0), BuildingBlock: KIFKEQ_clean_linker_1, # of connection points: 2
#     Edge 85, Type (0, 0), BuildingBlock: KIFKEQ_clean_linker_1, # of connection points: 2
#     Edge 86, Type (0, 0), BuildingBlock: KIFKEQ_clean_linker_1, # of connection points: 2
#     Edge 87, Type (0, 0), BuildingBlock: KIFKEQ_clean_linker_1, # of connection points: 2
#     Edge 88, Type (0, 0), BuildingBlock: KIFKEQ_clean_linker_1, # of connection points: 2
#     Edge 89, Type (0, 0), BuildingBlock: KIFKEQ_clean_linker_1, # of connection points: 2
#     Edge 90, Type (0, 0), BuildingBlock: KIFKEQ_clean_linker_1, # of connection points: 2
#     Edge 91, Type (0, 0), BuildingBlock: KIFKEQ_clean_linker_1, # of connection points: 2
#     Edge 92, Type (0, 0), BuildingBlock: KIFKEQ_clean_linker_1, # of connection points: 2
#     Edge 93, Type (0, 0), BuildingBlock: KIFKEQ_clean_linker_1, # of connection points: 2
#     Edge 94, Type (0, 0), BuildingBlock: KIFKEQ_clean_linker_1, # of connection points: 2
#     Edge 95, Type (0, 0), BuildingBlock: KIFKEQ_clean_linker_1, # of connection points: 2
#     Edge 96, Type (0, 0), BuildingBlock: KIFKEQ_clean_linker_1, # of connection points: 2
#     Edge 97, Type (0, 0), BuildingBlock: KIFKEQ_clean_linker_1, # of connection points: 2
#     Edge 98, Type (0, 0), BuildingBlock: KIFKEQ_clean_linker_1, # of connection points: 2
#     Edge 99, Type (0, 0), BuildingBlock: KIFKEQ_clean_linker_1, # of connection points: 2
#     Edge 100, Type (0, 0), BuildingBlock: KIFKEQ_clean_linker_1, # of connection points: 2
#     Edge 101, Type (0, 0), BuildingBlock: KIFKEQ_clean_linker_1, # of connection points: 2
#     Edge 102, Type (0, 0), BuildingBlock: KIFKEQ_clean_linker_1, # of connection points: 2
#     Edge 103, Type (0, 0), BuildingBlock: KIFKEQ_clean_linker_1, # of connection points: 2
#     Edge 104, Type (0, 0), BuildingBlock: KIFKEQ_clean_linker_1, # of connection points: 2
#     Edge 105, Type (0, 0), BuildingBlock: KIFKEQ_clean_linker_1, # of connection points: 2
#     Edge 106, Type (0, 0), BuildingBlock: KIFKEQ_clean_linker_1, # of connection points: 2
#     Edge 107, Type (0, 0), BuildingBlock: KIFKEQ_clean_linker_1, # of connection points: 2
#     Edge 108, Type (0, 0), BuildingBlock: KIFKEQ_clean_linker_1, # of connection points: 2
#     Edge 109, Type (0, 0), BuildingBlock: KIFKEQ_clean_linker_1, # of connection points: 2
#     Edge 110, Type (0, 0), BuildingBlock: KIFKEQ_clean_linker_1, # of connection points: 2
#     Edge 111, Type (0, 0), BuildingBlock: KIFKEQ_clean_linker_1, # of connection points: 2
# Relax obj value: 0.216
# Max RMSD: 0.212
# Mean RMSD: 0.212
data_MOF--net-wgh--node1-XOMCOT_clean_sbu_0--edge1-KIFKEQ_clean_linker_1
_symmetry_space_group_name_H-M    P1
_symmetry_Int_Tables_number       1
_symmetry_cell_setting            triclinic
loop_
_symmetry_equiv_pos_as_xyz
'x, y, z'
_cell_length_a     98.879586
_cell_length_b     98.796371
_cell_length_c     20.137573
_cell_angle_alpha  90.002154
_cell_angle_beta   89.96617
_cell_angle_gamma 90.050968
loop_
_atom_site_label
_atom_site_type_symbol
_atom_site_fract_x
_atom_site_fract_y
_atom_site_fract_z
_atom_type_partial_charge
Co0 Co 0.15685 0.18936 0.42912 0.0
C1 C 0.1582 0.21279 0.5255 0.0
C2 C 0.15572 0.19353 0.57305 0.0
C3 C 0.15562 0.20334 0.62092 0.0
N4 N 0.15749 0.1993 0.51287 0.0
N5 N 0.15716 0.21545 0.59138 0.0
H6 H 0.15938 0.22051 0.48785 0.0
H7 H 0.15402 0.18293 0.58238 0.0
C8 C 0.14452 0.16264 0.46947 0.0
O9 O 0.15302 0.15642 0.42966 0.0
N10 N 0.15547 0.17931 0.34615 0.0
C11 C 0.16498 0.17638 0.30032 0.0
C12 C 0.15908 0.16914 0.24957 0.0
C13 C 0.14386 0.17416 0.32127 0.0
N14 N 0.14578 0.16767 0.2629 0.0
C15 C 0.18518 0.1842 0.42025 0.0
C16 C 0.18783 0.16483 0.5179 0.0
C17 C 0.19926 0.16865 0.48119 0.0
C18 C 0.19778 0.17853 0.43237 0.0
C19 C 0.17517 0.17062 0.50305 0.0
N20 N 0.17382 0.18 0.45317 0.0
H21 H 0.18477 0.19199 0.38308 0.0
H22 H 0.16668 0.16752 0.53262 0.0
H23 H 0.17547 0.17925 0.30221 0.0
H24 H 0.13419 0.17514 0.34595 0.0
O25 O 0.16501 0.20416 0.38231 0.0
O26 O 0.14299 0.20183 0.3946 0.0
O27 O 0.14475 0.17555 0.47419 0.0
C28 C 0.15306 0.20855 0.36841 0.0
H29 H 0.15407 0.20171 0.67356 0.0
H30 H 0.16431 0.16506 0.20682 0.0
H31 H 0.18865 0.15741 0.55726 0.0
H32 H 0.20644 0.1821 0.40427 0.0
Co33 Co 0.06176 0.91138 0.67553 0.0
C34 C 0.03715 0.91094 0.76404 0.0
C35 C 0.05572 0.91262 0.81821 0.0
C36 C 0.04528 0.91195 0.8629 0.0
N37 N 0.05073 0.91218 0.75588 0.0
N38 N 0.03361 0.91084 0.829 0.0
H39 H 0.02994 0.91004 0.72397 0.0
H40 H 0.06628 0.9128 0.83122 0.0
C41 C 0.08742 0.89759 0.724 0.0
O42 O 0.09501 0.90568 0.68791 0.0
N43 N 0.07284 0.91015 0.59576 0.0
C44 C 0.0756 0.91999 0.55134 0.0
C45 C 0.08347 0.9147 0.5014 0.0
C46 C 0.07879 0.8989 0.57087 0.0
N47 N 0.08554 0.90145 0.51371 0.0
C48 C 0.06636 0.9399 0.6712 0.0
C49 C 0.08687 0.94213 0.76316 0.0
C50 C 0.08271 0.9537 0.72853 0.0
C51 C 0.07225 0.95245 0.68269 0.0
C52 C 0.08087 0.92953 0.74883 0.0
N53 N 0.0709 0.92838 0.70174 0.0
H54 H 0.05825 0.93966 0.63581 0.0
H55 H 0.08423 0.92093 0.7769 0.0
H56 H 0.07204 0.93027 0.5536 0.0
H57 H 0.0781 0.88905 0.59405 0.0
O58 O 0.04748 0.91939 0.62408 0.0
O59 O 0.04986 0.89741 0.63845 0.0
O60 O 0.07458 0.89902 0.72512 0.0
C61 C 0.0432 0.90732 0.61101 0.0
H62 H 0.04623 0.91177 0.91646 0.0
H63 H 0.08748 0.9203 0.45958 0.0
H64 H 0.09472 0.94279 0.80046 0.0
H65 H 0.06846 0.96123 0.65632 0.0
Co66 Co 0.33278 0.81973 0.92519 0.0
C67 C 0.33967 0.79637 0.01427 0.0
C68 C 0.32806 0.81181 0.0629 0.0
C69 C 0.33191 0.80244 0.1095 0.0
N70 N 0.33284 0.80805 0.00294 0.0
N71 N 0.33927 0.79279 0.07908 0.0
H72 H 0.34548 0.79099 0.97722 0.0
H73 H 0.32272 0.82113 0.07294 0.0
C74 C 0.3451 0.84628 0.97499 0.0
O75 O 0.34002 0.85305 0.92483 0.0
N76 N 0.33311 0.83144 0.8479 0.0
C77 C 0.32267 0.83624 0.81199 0.0
C78 C 0.32774 0.84439 0.76213 0.0
C79 C 0.34434 0.83625 0.81783 0.0
N80 N 0.34137 0.84447 0.76623 0.0
C81 C 0.30478 0.81638 0.94692 0.0
C82 C 0.29751 0.8429 0.97114 0.0
C83 C 0.28737 0.83312 0.96314 0.0
C84 C 0.29116 0.8197 0.95253 0.0
C85 C 0.31115 0.83915 0.96418 0.0
N86 N 0.31464 0.82606 0.94982 0.0
H87 H 0.30738 0.8059 0.93867 0.0
H88 H 0.31864 0.8469 0.96871 0.0
H89 H 0.31212 0.83408 0.82143 0.0
H90 H 0.35445 0.83436 0.83613 0.0
O91 O 0.32692 0.80521 0.86867 0.0
O92 O 0.34836 0.81004 0.8887 0.0
O93 O 0.34267 0.83362 0.98205 0.0
C94 C 0.33952 0.80251 0.85768 0.0
H95 H 0.32977 0.80289 0.16218 0.0
H96 H 0.3218 0.84985 0.72583 0.0
H97 H 0.2949 0.85338 0.98026 0.0
H98 H 0.28359 0.81182 0.9475 0.0
Co99 Co 0.43817 0.09386 0.15821 0.0
C100 C 0.46258 0.09853 0.24518 0.0
C101 C 0.44484 0.09293 0.29979 0.0
C102 C 0.45482 0.09613 0.34422 0.0
N103 N 0.44959 0.09433 0.23732 0.0
N104 N 0.46595 0.09978 0.31019 0.0
H105 H 0.46924 0.10127 0.20477 0.0
H106 H 0.43457 0.09055 0.31316 0.0
C107 C 0.41097 0.10337 0.2079 0.0
O108 O 0.40494 0.09468 0.16832 0.0
N109 N 0.42662 0.09407 0.08016 0.0
C110 C 0.42318 0.08394 0.03863 0.0
C111 C 0.41467 0.08901 0.99046 0.0
C112 C 0.42043 0.10519 0.05559 0.0
N113 N 0.41288 0.10238 1.00137 0.0
C114 C 0.43804 0.06498 0.15258 0.0
C115 C 0.41926 0.05931 0.24995 0.0
C116 C 0.42607 0.04855 0.21917 0.0
C117 C 0.43536 0.0516 0.16923 0.0
C118 C 0.42232 0.07275 0.23187 0.0
N119 N 0.43171 0.07557 0.18351 0.0
H120 H 0.44531 0.06657 0.11373 0.0
H121 H 0.41736 0.08067 0.25907 0.0
H122 H 0.42654 0.07359 0.04224 0.0
H123 H 0.42111 0.11505 0.07866 0.0
O124 O 0.45301 0.08812 0.10381 0.0
O125 O 0.44787 0.10953 0.1208 0.0
O126 O 0.42388 0.10387 0.21074 0.0
C127 C 0.45539 0.10065 0.09011 0.0
H128 H 0.45383 0.09603 0.39775 0.0
H129 H 0.41021 0.08326 0.95028 0.0
H130 H 0.41203 0.05738 0.28925 0.0
H131 H 0.44067 0.04363 0.14304 0.0
Co132 Co 0.14652 0.80996 0.09799 0.0
C133 C 0.14935 0.78634 0.99968 0.0
C134 C 0.1291 0.79248 0.02258 0.0
C135 C 0.12845 0.78157 0.98088 0.0
N136 N 0.14215 0.79563 0.03465 0.0
N137 N 0.14114 0.77766 0.96651 0.0
H138 H 0.1602 0.78554 0.99909 0.0
H139 H 0.12054 0.79779 0.04352 0.0
C140 C 0.13368 0.82386 0.98386 0.0
O141 O 0.14132 0.81616 0.94616 0.0
N142 N 0.14946 0.82408 0.16253 0.0
C143 C 0.16064 0.82721 0.19745 0.0
C144 C 0.15726 0.83698 0.24384 0.0
C145 C 0.13952 0.83182 0.18797 0.0
N146 N 0.14395 0.83984 0.23769 0.0
C147 C 0.1732 0.80758 0.0458 0.0
C148 C 0.17661 0.8343 0.00891 0.0
C149 C 0.18765 0.82542 0.00433 0.0
C150 C 0.18572 0.81189 0.02243 0.0
C151 C 0.16405 0.82946 0.03143 0.0
N152 N 0.1624 0.81616 0.0488 0.0
H153 H 0.17252 0.79749 0.06566 0.0
H154 H 0.15592 0.83661 0.0385 0.0
H155 H 0.17041 0.82248 0.19094 0.0
H156 H 0.12908 0.83105 0.1723 0.0
O157 O 0.15578 0.79738 0.15389 0.0
O158 O 0.13381 0.80131 0.16013 0.0
O159 O 0.13423 0.82273 0.04718 0.0
C160 C 0.14436 0.79479 0.18243 0.0
H161 H 0.1193 0.77689 0.96229 0.0
H162 H 0.16405 0.84149 0.2797 0.0
H163 H 0.17776 0.84491 0.99676 0.0
H164 H 0.19408 0.80481 0.0224 0.0
Co165 Co 0.4346 0.90259 0.35087 0.0
C166 C 0.45771 0.90383 0.25029 0.0
C167 C 0.44602 0.88558 0.24908 0.0
C168 C 0.45657 0.88404 0.20577 0.0
N169 N 0.44647 0.89804 0.2766 0.0
N170 N 0.46393 0.89548 0.20654 0.0
H171 H 0.46187 0.91344 0.26499 0.0
H172 H 0.43874 0.87783 0.26184 0.0
C173 C 0.41614 0.89582 0.24028 0.0
O174 O 0.42344 0.9044 0.20553 0.0
N175 N 0.4227 0.90564 0.42513 0.0
C176 C 0.42181 0.91618 0.46726 0.0
C177 C 0.41243 0.91297 0.51592 0.0
C178 C 0.41408 0.89624 0.44855 0.0
N179 N 0.40766 0.90036 0.5041 0.0
C180 C 0.44028 0.92979 0.31142 0.0
C181 C 0.41393 0.93823 0.29258 0.0
C182 C 0.42446 0.94765 0.28481 0.0
C183 C 0.43774 0.94321 0.29458 0.0
C184 C 0.41696 0.92471 0.30861 0.0
N185 N 0.43008 0.92053 0.31603 0.0
H186 H 0.45045 0.92712 0.32472 0.0
H187 H 0.40872 0.91774 0.31733 0.0
H188 H 0.42773 0.92536 0.46373 0.0
H189 H 0.4127 0.88646 0.42539 0.0
O190 O 0.44988 0.90807 0.40289 0.0
O191 O 0.4422 0.887 0.39793 0.0
O192 O 0.41902 0.89375 0.30146 0.0
C193 C 0.4511 0.89557 0.42099 0.0
H194 H 0.45881 0.8751 0.17674 0.0
H195 H 0.40969 0.91925 0.55784 0.0
H196 H 0.40348 0.9413 0.28703 0.0
H197 H 0.44615 0.95023 0.29233 0.0
Co198 Co 0.34277 0.18472 0.57416 0.0
C199 C 0.34762 0.20684 0.47303 0.0
C200 C 0.34028 0.18829 0.43103 0.0
C201 C 0.3427 0.19723 0.38037 0.0
N202 N 0.34321 0.19427 0.48941 0.0
N203 N 0.34742 0.2089 0.40637 0.0
H204 H 0.35128 0.21419 0.50853 0.0
H205 H 0.33677 0.17798 0.42551 0.0
C206 C 0.35671 0.15772 0.53908 0.0
O207 O 0.3523 0.1515 0.59237 0.0
N208 N 0.34287 0.17513 0.65825 0.0
C209 C 0.33233 0.17218 0.69807 0.0
C210 C 0.33707 0.16517 0.75251 0.0
C211 C 0.35391 0.17056 0.69069 0.0
N212 N 0.35065 0.16402 0.74745 0.0
C213 C 0.31564 0.18559 0.53031 0.0
C214 C 0.30884 0.15867 0.54614 0.0
C215 C 0.2988 0.16788 0.52689 0.0
C216 C 0.30241 0.18145 0.51817 0.0
C217 C 0.32214 0.16322 0.55642 0.0
N218 N 0.32541 0.1766 0.54907 0.0
H219 H 0.318 0.19624 0.52595 0.0
H220 H 0.32945 0.15605 0.57355 0.0
H221 H 0.32191 0.17479 0.68795 0.0
H222 H 0.36405 0.17133 0.67075 0.0
O223 O 0.33519 0.20002 0.61862 0.0
O224 O 0.35719 0.19636 0.60877 0.0
O225 O 0.35386 0.17016 0.52809 0.0
C226 C 0.3474 0.20392 0.6319 0.0
H227 H 0.34102 0.19521 0.32823 0.0
H228 H 0.33093 0.16112 0.79235 0.0
H229 H 0.30641 0.1481 0.55385 0.0
H230 H 0.29494 0.18896 0.50444 0.0
Co231 Co 0.06321 0.09478 0.83658 0.0
C232 C 0.04016 0.09372 0.73859 0.0
C233 C 0.05948 0.09607 0.69187 0.0
C234 C 0.04969 0.09714 0.64411 0.0
N235 N 0.05364 0.09391 0.75162 0.0
N236 N 0.03753 0.0958 0.67333 0.0
H237 H 0.03238 0.09278 0.776 0.0
H238 H 0.07012 0.09761 0.68305 0.0
C239 C 0.08991 0.10734 0.79762 0.0
O240 O 0.09614 0.09886 0.83745 0.0
N241 N 0.07281 0.09644 0.9207 0.0
C242 C 0.0752 0.08715 0.96839 0.0
C243 C 0.08229 0.09318 0.01926 0.0
C244 C 0.07811 0.10808 0.94469 0.0
N245 N 0.08419 0.10635 0.00422 0.0
C246 C 0.06892 0.06658 0.84826 0.0
C247 C 0.0882 0.06388 0.75034 0.0
C248 C 0.08454 0.0525 0.7879 0.0
C249 C 0.07476 0.05401 0.83709 0.0
C250 C 0.0823 0.07653 0.76449 0.0
N251 N 0.07292 0.0779 0.81432 0.0
H252 H 0.06104 0.06696 0.88495 0.0
H253 H 0.08527 0.08499 0.73433 0.0
H254 H 0.07202 0.07674 0.96785 0.0
H255 H 0.0775 0.11764 0.91867 0.0
O256 O 0.04832 0.08641 0.8813 0.0
O257 O 0.05033 0.10849 0.86927 0.0
O258 O 0.07702 0.10702 0.79262 0.0
C259 C 0.04349 0.09829 0.89339 0.0
H260 H 0.05141 0.0991 0.59189 0.0
H261 H 0.08595 0.08812 0.06335 0.0
H262 H 0.09552 0.06301 0.71056 0.0
H263 H 0.07129 0.04538 0.86565 0.0
Co264 Co 0.83122 0.8203 0.60454 0.0
C265 C 0.83655 0.79453 0.52922 0.0
C266 C 0.82549 0.80925 0.47278 0.0
C267 C 0.82754 0.79809 0.43355 0.0
N268 N 0.83088 0.807 0.53331 0.0
N269 N 0.83452 0.78887 0.4689 0.0
H270 H 0.84203 0.78963 0.56894 0.0
H271 H 0.82056 0.81851 0.45759 0.0
C272 C 0.84398 0.84529 0.53943 0.0
O273 O 0.83895 0.85351 0.58423 0.0
N274 N 0.83181 0.83363 0.67515 0.0
C275 C 0.8214 0.83856 0.71078 0.0
C276 C 0.82639 0.84749 0.75728 0.0
C277 C 0.84301 0.83925 0.70191 0.0
N278 N 0.84 0.84803 0.75141 0.0
C279 C 0.80323 0.8168 0.58495 0.0
C280 C 0.79607 0.84271 0.54779 0.0
C281 C 0.78588 0.83315 0.55994 0.0
C282 C 0.78964 0.82 0.57719 0.0
C283 C 0.8097 0.83912 0.55717 0.0
N284 N 0.81314 0.82635 0.57752 0.0
H285 H 0.80578 0.80653 0.59811 0.0
H286 H 0.81723 0.84672 0.54934 0.0
H287 H 0.81091 0.83578 0.70399 0.0
H288 H 0.85309 0.83726 0.68357 0.0
O289 O 0.82519 0.80718 0.66853 0.0
O290 O 0.84667 0.8111 0.64512 0.0
O291 O 0.84134 0.83259 0.54061 0.0
C292 C 0.83776 0.80437 0.67987 0.0
H293 H 0.82442 0.79693 0.38232 0.0
H294 H 0.82041 0.85302 0.79314 0.0
H295 H 0.7935 0.85296 0.53348 0.0
H296 H 0.78208 0.81223 0.58536 0.0
Co297 Co 0.93445 0.08935 0.3345 0.0
C298 C 0.95664 0.09231 0.23177 0.0
C299 C 0.93722 0.08717 0.19145 0.0
C300 C 0.94605 0.08903 0.13992 0.0
N301 N 0.94376 0.08915 0.24928 0.0
N302 N 0.95832 0.09222 0.16479 0.0
H303 H 0.96456 0.09469 0.26685 0.0
H304 H 0.92658 0.08481 0.18695 0.0
C305 C 0.90838 0.10524 0.30067 0.0
O306 O 0.902 0.10199 0.35547 0.0
N307 N 0.92507 0.09015 0.41912 0.0
C308 C 0.92155 0.07988 0.45959 0.0
C309 C 0.91481 0.08516 0.51371 0.0
C310 C 0.92121 0.10151 0.45112 0.0
N311 N 0.91442 0.09879 0.50785 0.0
C312 C 0.93372 0.06217 0.29106 0.0
C313 C 0.90661 0.05683 0.31149 0.0
C314 C 0.9152 0.04625 0.29209 0.0
C315 C 0.92883 0.04913 0.28051 0.0
C316 C 0.91187 0.06996 0.31949 0.0
N317 N 0.92537 0.07244 0.31059 0.0
H318 H 0.94444 0.06395 0.28531 0.0
H319 H 0.90523 0.07784 0.33645 0.0
H320 H 0.92351 0.06929 0.44995 0.0
H321 H 0.92255 0.11154 0.43047 0.0
O322 O 0.94944 0.08113 0.37908 0.0
O323 O 0.94681 0.10326 0.36772 0.0
O324 O 0.92035 0.101 0.28838 0.0
C325 C 0.95381 0.0932 0.39226 0.0
H326 H 0.94342 0.08841 0.08789 0.0
H327 H 0.91035 0.07933 0.55358 0.0
H328 H 0.89601 0.05492 0.32146 0.0
H329 H 0.93582 0.04119 0.26638 0.0
Co330 Co 0.66011 0.1943 0.06785 0.0
C331 C 0.66207 0.2177 0.97239 0.0
C332 C 0.65519 0.19943 0.9259 0.0
C333 C 0.65431 0.20973 0.88052 0.0
N334 N 0.65996 0.20433 0.9841 0.0
N335 N 0.65857 0.22118 0.90969 0.0
H336 H 0.66539 0.22491 0.00939 0.0
H337 H 0.65194 0.18917 0.9168 0.0
C338 C 0.6477 0.16765 0.02937 0.0
O339 O 0.65701 0.16158 0.06512 0.0
N340 N 0.6594 0.18427 0.15127 0.0
C341 C 0.66898 0.18207 0.19779 0.0
C342 C 0.66341 0.1747 0.24905 0.0
C343 C 0.64805 0.17864 0.1766 0.0
N344 N 0.65025 0.17246 0.23548 0.0
C345 C 0.68813 0.18772 0.0718 0.0
C346 C 0.68938 0.16986 0.96677 0.0
C347 C 0.70106 0.17224 0.00456 0.0
C348 C 0.70032 0.18146 0.05681 0.0
C349 C 0.67715 0.17622 0.98454 0.0
N350 N 0.67647 0.18462 0.03873 0.0
H351 H 0.68832 0.19523 0.11034 0.0
H352 H 0.66839 0.17438 0.95415 0.0
H353 H 0.67925 0.18565 0.19651 0.0
H354 H 0.63832 0.17913 0.15219 0.0
O355 O 0.66919 0.20888 0.11173 0.0
O356 O 0.647 0.20713 0.10642 0.0
O357 O 0.64735 0.18058 0.02658 0.0
C358 C 0.65755 0.21371 0.12851 0.0
H359 H 0.6505 0.20895 0.83026 0.0
H360 H 0.66876 0.17113 0.2925 0.0
H361 H 0.68968 0.16312 0.9244 0.0
H362 H 0.70924 0.18411 0.08527 0.0
Co363 Co 0.56154 0.91332 0.83584 0.0
C364 C 0.53756 0.90755 0.74812 0.0
C365 C 0.55497 0.91468 0.69485 0.0
C366 C 0.54524 0.91107 0.64963 0.0
N367 N 0.55023 0.91253 0.75678 0.0
N368 N 0.53433 0.90653 0.68301 0.0
H369 H 0.53107 0.90408 0.78786 0.0
H370 H 0.56509 0.91813 0.68322 0.0
C371 C 0.58744 0.89859 0.79139 0.0
O372 O 0.59459 0.90349 0.84064 0.0
N373 N 0.57283 0.91354 0.91468 0.0
C374 C 0.57679 0.92423 0.95142 0.0
C375 C 0.58451 0.91959 0.0038 0.0
C376 C 0.57758 0.90256 0.94703 0.0
N377 N 0.58513 0.90595 1.00041 0.0
C378 C 0.55991 0.94034 0.79034 0.0
C379 C 0.58708 0.94681 0.79076 0.0
C380 C 0.57762 0.95697 0.77649 0.0
C381 C 0.56391 0.95352 0.77536 0.0
C382 C 0.58264 0.93359 0.80414 0.0
N383 N 0.56915 0.9305 0.80479 0.0
H384 H 0.54922 0.93808 0.79194 0.0
H385 H 0.59006 0.92619 0.81716 0.0
H386 H 0.57435 0.93467 0.94069 0.0
H387 H 0.57586 0.89228 0.93036 0.0
O388 O 0.54725 0.92108 0.88789 0.0
O389 O 0.5508 0.89903 0.87686 0.0
O390 O 0.57498 0.90179 0.78416 0.0
C391 C 0.54383 0.90883 0.90384 0.0
H392 H 0.5462 0.91149 0.59611 0.0
H393 H 0.5896 0.92581 0.04028 0.0
H394 H 0.59779 0.9491 0.79224 0.0
H395 H 0.55624 0.96108 0.76541 0.0
Co396 Co 0.8436 0.18634 0.91147 0.0
C397 C 0.84723 0.2106 1.00029 0.0
C398 C 0.84034 0.19294 0.05241 0.0
C399 C 0.84193 0.20327 0.09744 0.0
N400 N 0.84347 0.19752 0.99121 0.0
N401 N 0.84629 0.21435 0.06474 0.0
H402 H 0.85051 0.21731 0.96108 0.0
H403 H 0.8372 0.1827 0.06366 0.0
C404 C 0.85837 0.16051 0.95687 0.0
O405 O 0.85518 0.15367 0.90339 0.0
N406 N 0.84419 0.17532 0.83163 0.0
C407 C 0.83378 0.17125 0.79343 0.0
C408 C 0.8388 0.16363 0.74165 0.0
C409 C 0.85542 0.17088 0.80016 0.0
N410 N 0.85243 0.16321 0.74647 0.0
C411 C 0.81619 0.18741 0.95073 0.0
C412 C 0.81037 0.16005 0.94774 0.0
C413 C 0.79992 0.1693 0.96014 0.0
C414 C 0.80302 0.18309 0.96274 0.0
C415 C 0.82361 0.16481 0.93775 0.0
N416 N 0.82634 0.17839 0.93815 0.0
H417 H 0.81823 0.19816 0.9501 0.0
H418 H 0.83139 0.15761 0.92635 0.0
H419 H 0.82326 0.17353 0.8028 0.0
H420 H 0.86552 0.17249 0.81922 0.0
O421 O 0.83611 0.20067 0.85909 0.0
O422 O 0.85807 0.19744 0.87403 0.0
O423 O 0.85446 0.17274 0.96554 0.0
C424 C 0.84839 0.20439 0.84587 0.0
H425 H 0.84023 0.20261 0.15045 0.0
H426 H 0.8328 0.15866 0.70393 0.0
H427 H 0.8083 0.1493 0.94516 0.0
H428 H 0.7952 0.19055 0.97157 0.0
Co429 Co 0.56569 0.10073 0.65771 0.0
C430 C 0.54101 0.10291 0.74506 0.0
C431 C 0.55943 0.10059 0.79982 0.0
C432 C 0.54915 0.10279 0.84404 0.0
N433 N 0.55446 0.10059 0.73742 0.0
N434 N 0.53757 0.10439 0.80987 0.0
H435 H 0.53397 0.10411 0.70445 0.0
H436 H 0.56995 0.09982 0.81308 0.0
C437 C 0.59238 0.1119 0.7061 0.0
O438 O 0.59876 0.10353 0.66618 0.0
N439 N 0.57702 0.10152 0.57881 0.0
C440 C 0.58059 0.09162 0.53617 0.0
C441 C 0.58849 0.09714 0.48667 0.0
C442 C 0.58252 0.11294 0.55356 0.0
N443 N 0.58974 0.11056 0.49777 0.0
C444 C 0.56826 0.07198 0.65132 0.0
C445 C 0.58739 0.06786 0.74872 0.0
C446 C 0.58245 0.05669 0.71327 0.0
C447 C 0.57271 0.05894 0.66454 0.0
C448 C 0.58279 0.08098 0.73295 0.0
N449 N 0.57344 0.08303 0.68358 0.0
H450 H 0.56074 0.07297 0.61318 0.0
H451 H 0.58675 0.08924 0.76161 0.0
H452 H 0.57772 0.08113 0.53959 0.0
H453 H 0.58122 0.12281 0.57597 0.0
O454 O 0.55116 0.09379 0.60458 0.0
O455 O 0.55481 0.11557 0.61985 0.0
O456 O 0.57946 0.1118 0.70892 0.0
C457 C 0.5479 0.10607 0.59006 0.0
H458 H 0.5502 0.1034 0.89746 0.0
H459 H 0.59311 0.0916 0.44626 0.0
H460 H 0.59479 0.0665 0.78778 0.0
H461 H 0.56834 0.05058 0.63704 0.0
Co462 Co 0.64449 0.81182 0.40433 0.0
C463 C 0.64688 0.78825 0.50357 0.0
C464 C 0.62676 0.79431 0.47784 0.0
C465 C 0.62588 0.7839 0.52243 0.0
N466 N 0.63987 0.79724 0.46591 0.0
N467 N 0.6385 0.78008 0.53889 0.0
H468 H 0.65773 0.78769 0.50683 0.0
H469 H 0.6183 0.79956 0.45561 0.0
C470 C 0.63275 0.82538 0.52146 0.0
O471 O 0.6409 0.81756 0.55584 0.0
N472 N 0.64771 0.82629 0.34192 0.0
C473 C 0.65889 0.82905 0.30616 0.0
C474 C 0.6559 0.83942 0.26245 0.0
C475 C 0.63816 0.83487 0.31972 0.0
N476 N 0.64284 0.84305 0.27119 0.0
C477 C 0.67124 0.80841 0.45456 0.0
C478 C 0.67549 0.83485 0.49413 0.0
C479 C 0.68626 0.82564 0.49742 0.0
C480 C 0.68393 0.81226 0.47779 0.0
C481 C 0.66278 0.83049 0.47152 0.0
N482 N 0.66069 0.8173 0.45311 0.0
H483 H 0.67017 0.79839 0.43408 0.0
H484 H 0.65484 0.8379 0.46555 0.0
H485 H 0.66838 0.82368 0.31032 0.0
H486 H 0.62777 0.83465 0.33667 0.0
O487 O 0.65329 0.79937 0.34592 0.0
O488 O 0.6314 0.80395 0.34184 0.0
O489 O 0.6326 0.82448 0.45802 0.0
C490 C 0.64172 0.7973 0.31783 0.0
H491 H 0.61663 0.77937 0.54066 0.0
H492 H 0.66277 0.84381 0.22652 0.0
H493 H 0.67693 0.84537 0.50755 0.0
H494 H 0.69208 0.80493 0.4769 0.0
Co495 Co 0.93219 0.90509 0.17253 0.0
C496 C 0.95491 0.90558 0.27706 0.0
C497 C 0.94728 0.88605 0.25003 0.0
C498 C 0.95729 0.88425 0.2959 0.0
N499 N 0.94548 0.89939 0.23853 0.0
N500 N 0.96211 0.89649 0.31315 0.0
H501 H 0.95666 0.91632 0.27931 0.0
H502 H 0.94164 0.87807 0.22586 0.0
C503 C 0.91644 0.89177 0.27917 0.0
O504 O 0.92367 0.89908 0.32056 0.0
N505 N 0.91898 0.90913 0.105 0.0
C506 C 0.91652 0.92062 0.07116 0.0
C507 C 0.90701 0.91781 0.02248 0.0
C508 C 0.91116 0.8996 0.07667 0.0
N509 N 0.90375 0.90452 0.02589 0.0
C510 C 0.93491 0.93104 0.23355 0.0
C511 C 0.90772 0.93553 0.25615 0.0
C512 C 0.9169 0.94616 0.2664 0.0
C513 C 0.93066 0.94366 0.25639 0.0
C514 C 0.91247 0.92283 0.23518 0.0
N515 N 0.92597 0.92069 0.2239 0.0
H516 H 0.94529 0.93005 0.21832 0.0
H517 H 0.90517 0.91505 0.22338 0.0
H518 H 0.92152 0.93019 0.07994 0.0
H519 H 0.91114 0.88915 0.09258 0.0
O520 O 0.94578 0.91445 0.12286 0.0
O521 O 0.94108 0.89275 0.10955 0.0
O522 O 0.91841 0.89275 0.2165 0.0
C523 C 0.94826 0.90326 0.09187 0.0
H524 H 0.96102 0.87462 0.31381 0.0
H525 H 0.90321 0.92489 0.98602 0.0
H526 H 0.89696 0.93716 0.26194 0.0
H527 H 0.93802 0.95174 0.26123 0.0
Co528 Co 0.66544 0.68525 0.9166 0.0
C529 C 0.65903 0.70948 1.00156 0.0
C530 C 0.66801 0.6931 0.05586 0.0
C531 C 0.66534 0.70345 0.0994 0.0
N532 N 0.66425 0.69689 0.99425 0.0
N533 N 0.65968 0.71372 0.06534 0.0
H534 H 0.65494 0.71552 0.96158 0.0
H535 H 0.67231 0.68337 0.06845 0.0
C536 C 0.65318 0.65836 0.96367 0.0
O537 O 0.65883 0.65166 0.91476 0.0
N538 N 0.6663 0.67359 0.83921 0.0
C539 C 0.67728 0.6695 0.80504 0.0
C540 C 0.67311 0.66109 0.75425 0.0
C541 C 0.65563 0.66818 0.80695 0.0
N542 N 0.65948 0.66016 0.75593 0.0
C543 C 0.6928 0.68954 0.94889 0.0
C544 C 0.7011 0.66308 0.96551 0.0
C545 C 0.71083 0.67339 0.96312 0.0
C546 C 0.70649 0.68676 0.95664 0.0
C547 C 0.68736 0.66631 0.95672 0.0
N548 N 0.68341 0.67941 0.94604 0.0
H549 H 0.68977 0.69997 0.94282 0.0
H550 H 0.68021 0.65819 0.95585 0.0
H551 H 0.68759 0.67231 0.81633 0.0
H552 H 0.64529 0.66946 0.8234 0.0
O553 O 0.67162 0.69994 0.86193 0.0
O554 O 0.65009 0.69463 0.87598 0.0
O555 O 0.65529 0.67108 0.97092 0.0
C556 C 0.65911 0.70239 0.84757 0.0
H557 H 0.66724 0.70337 0.15235 0.0
H558 H 0.67966 0.65604 0.71905 0.0
H559 H 0.70412 0.65261 0.97106 0.0
H560 H 0.71371 0.69503 0.95586 0.0
Co561 Co 0.56978 0.40784 0.14038 0.0
C562 C 0.54645 0.40827 0.24283 0.0
C563 C 0.55488 0.38892 0.21861 0.0
C564 C 0.545 0.38698 0.26497 0.0
N565 N 0.55602 0.40222 0.20442 0.0
N566 N 0.5397 0.39909 0.28064 0.0
H567 H 0.54454 0.41899 0.24493 0.0
H568 H 0.56105 0.38105 0.19682 0.0
C569 C 0.58489 0.39894 0.25894 0.0
O570 O 0.57668 0.40692 0.29214 0.0
N571 N 0.58371 0.41171 0.07595 0.0
C572 C 0.58552 0.42252 0.03625 0.0
C573 C 0.59577 0.41953 0.9916 0.0
C574 C 0.59269 0.40239 0.05509 0.0
N575 N 0.60024 0.40683 0.00367 0.0
C576 C 0.56328 0.43444 0.18486 0.0
C577 C 0.58907 0.44251 0.21974 0.0
C578 C 0.57856 0.45208 0.22166 0.0
C579 C 0.56554 0.44779 0.20427 0.0
C580 C 0.58632 0.42909 0.20057 0.0
N581 N 0.57346 0.42512 0.1844 0.0
H582 H 0.55337 0.43182 0.16657 0.0
H583 H 0.59464 0.42207 0.19583 0.0
H584 H 0.57954 0.43167 0.03804 0.0
H585 H 0.59308 0.39222 0.07489 0.0
O586 O 0.55632 0.41458 0.08087 0.0
O587 O 0.56322 0.3933 0.08201 0.0
O588 O 0.58371 0.39796 0.19584 0.0
C589 C 0.55541 0.40255 0.0561 0.0
H590 H 0.54183 0.37732 0.28515 0.0
H591 H 0.59941 0.42611 0.95253 0.0
H592 H 0.59934 0.4454 0.23179 0.0
H593 H 0.55719 0.45487 0.20234 0.0
Co594 Co 0.85558 0.31487 0.4037 0.0
C595 C 0.85406 0.29073 0.5003 0.0
C596 C 0.87388 0.29775 0.47451 0.0
C597 C 0.87527 0.28681 0.51535 0.0
N598 N 0.86064 0.30037 0.46466 0.0
N599 N 0.86285 0.28234 0.53154 0.0
H600 H 0.84325 0.28954 0.50299 0.0
H601 H 0.88209 0.30349 0.45278 0.0
C602 C 0.86773 0.3284 0.51947 0.0
O603 O 0.85958 0.32059 0.55396 0.0
N604 N 0.85207 0.32927 0.34137 0.0
C605 C 0.8408 0.33197 0.3063 0.0
C606 C 0.8436 0.3425 0.2631 0.0
C607 C 0.86149 0.33803 0.31925 0.0
N608 N 0.85663 0.34628 0.27154 0.0
C609 C 0.82913 0.31157 0.45913 0.0
C610 C 0.82494 0.33844 0.49121 0.0
C611 C 0.81412 0.32933 0.49633 0.0
C612 C 0.81643 0.3157 0.48151 0.0
C613 C 0.83767 0.33379 0.47044 0.0
N614 N 0.83968 0.32046 0.4546 0.0
H615 H 0.83009 0.30142 0.44034 0.0
H616 H 0.84562 0.34112 0.46258 0.0
H617 H 0.83136 0.32651 0.31077 0.0
H618 H 0.8719 0.33792 0.3358 0.0
O619 O 0.84642 0.30231 0.34709 0.0
O620 O 0.86826 0.30686 0.33952 0.0
O621 O 0.86776 0.32758 0.45595 0.0
C622 C 0.85782 0.30007 0.31764 0.0
H623 H 0.88472 0.28253 0.53237 0.0
H624 H 0.83663 0.34692 0.22784 0.0
H625 H 0.82346 0.34912 0.50085 0.0
H626 H 0.8082 0.30845 0.48241 0.0
Co627 Co 0.94141 0.60116 0.66522 0.0
C628 C 0.966 0.60141 0.757 0.0
C629 C 0.9534 0.61892 0.76325 0.0
C630 C 0.96434 0.62097 0.80316 0.0
N631 N 0.95393 0.60643 0.73603 0.0
N632 N 0.9723 0.60998 0.79974 0.0
H633 H 0.97051 0.59215 0.73905 0.0
H634 H 0.94602 0.62661 0.75143 0.0
C635 C 0.92319 0.61223 0.7684 0.0
O636 O 0.92871 0.60319 0.80782 0.0
N637 N 0.92902 0.59748 0.59315 0.0
C638 C 0.92769 0.58635 0.55507 0.0
C639 C 0.91805 0.58895 0.50688 0.0
C640 C 0.92038 0.60664 0.56763 0.0
N641 N 0.91345 0.60172 0.51519 0.0
C642 C 0.94372 0.57561 0.7322 0.0
C643 C 0.9165 0.56925 0.72943 0.0
C644 C 0.92579 0.55929 0.74864 0.0
C645 C 0.9395 0.56274 0.75187 0.0
C646 C 0.92113 0.58217 0.7118 0.0
N647 N 0.93466 0.58517 0.71205 0.0
H648 H 0.95438 0.57743 0.72833 0.0
H649 H 0.91388 0.58951 0.69402 0.0
H650 H 0.93339 0.5771 0.56143 0.0
H651 H 0.91955 0.61691 0.58586 0.0
O652 O 0.95554 0.5921 0.6181 0.0
O653 O 0.95089 0.61393 0.60732 0.0
O654 O 0.92708 0.6131 0.70778 0.0
C655 C 0.95822 0.60352 0.58943 0.0
H656 H 0.96668 0.63024 0.82944 0.0
H657 H 0.9147 0.58198 0.46881 0.0
H658 H 0.90581 0.56692 0.72581 0.0
H659 H 0.94703 0.55523 0.76474 0.0
Co660 Co 0.66902 0.32346 0.56971 0.0
C661 C 0.66518 0.30047 0.47122 0.0
C662 C 0.67 0.31965 0.42698 0.0
C663 C 0.66811 0.31042 0.37723 0.0
N664 N 0.66826 0.31352 0.48615 0.0
N665 N 0.66514 0.29832 0.40459 0.0
H666 H 0.66314 0.29272 0.50779 0.0
H667 H 0.67242 0.33025 0.42038 0.0
C668 C 0.65607 0.35071 0.53019 0.0
O669 O 0.66159 0.35737 0.57952 0.0
N670 N 0.66909 0.33359 0.65245 0.0
C671 C 0.6795 0.336 0.6939 0.0
C672 C 0.6749 0.3438 0.74615 0.0
C673 C 0.65821 0.33926 0.68188 0.0
N674 N 0.66151 0.34599 0.73808 0.0
C675 C 0.69588 0.32138 0.5221 0.0
C676 C 0.70456 0.34748 0.54597 0.0
C677 C 0.71393 0.33782 0.52415 0.0
C678 C 0.70937 0.32472 0.51081 0.0
C679 C 0.69094 0.34379 0.55464 0.0
N680 N 0.68672 0.33078 0.54364 0.0
H681 H 0.69289 0.31093 0.51605 0.0
H682 H 0.68421 0.35122 0.57464 0.0
H683 H 0.68976 0.33258 0.6861 0.0
H684 H 0.64813 0.33879 0.66112 0.0
O685 O 0.67603 0.30819 0.61741 0.0
O686 O 0.65416 0.3126 0.60491 0.0
O687 O 0.65825 0.33805 0.52213 0.0
C688 C 0.66361 0.30503 0.63094 0.0
H689 H 0.6687 0.31256 0.3246 0.0
H690 H 0.68107 0.34789 0.78569 0.0
H691 H 0.7078 0.35767 0.55781 0.0
H692 H 0.71636 0.3169 0.49521 0.0
Co693 Co 0.9394 0.41533 0.84017 0.0
C694 C 0.96393 0.40935 0.75703 0.0
C695 C 0.94669 0.41528 0.69939 0.0
C696 C 0.95695 0.41178 0.65667 0.0
N697 N 0.95103 0.41384 0.76246 0.0
N698 N 0.96777 0.40799 0.69285 0.0
H699 H 0.97025 0.40662 0.79866 0.0
H700 H 0.93659 0.41835 0.68535 0.0
C701 C 0.91358 0.40048 0.79478 0.0
O702 O 0.90616 0.40581 0.84196 0.0
N703 N 0.9278 0.41613 0.91787 0.0
C704 C 0.92402 0.427 0.95382 0.0
C705 C 0.91597 0.42265 0.00575 0.0
C706 C 0.92265 0.40535 0.95036 0.0
N707 N 0.91499 0.40903 0.00287 0.0
C708 C 0.94126 0.44176 0.78672 0.0
C709 C 0.91431 0.4489 0.79299 0.0
C710 C 0.92388 0.45874 0.7755 0.0
C711 C 0.93745 0.45493 0.77078 0.0
C712 C 0.91853 0.43563 0.80669 0.0
N713 N 0.93193 0.43223 0.80493 0.0
H714 H 0.95192 0.43933 0.78713 0.0
H715 H 0.91106 0.42854 0.8231 0.0
H716 H 0.92678 0.43735 0.9428 0.0
H717 H 0.9242 0.395 0.93446 0.0
O718 O 0.9535 0.42362 0.89156 0.0
O719 O 0.95002 0.4015 0.88543 0.0
O720 O 0.92616 0.40341 0.78936 0.0
C721 C 0.95695 0.41156 0.91043 0.0
H722 H 0.95643 0.412 0.603 0.0
H723 H 0.91091 0.42907 0.04155 0.0
H724 H 0.90372 0.45153 0.79778 0.0
H725 H 0.94519 0.4623 0.75853 0.0
Co726 Co 0.85228 0.69425 0.1173 0.0
C727 C 0.85018 0.7189 0.02478 0.0
C728 C 0.87023 0.71272 0.05097 0.0
C729 C 0.87119 0.72384 0.01078 0.0
N730 N 0.85711 0.70949 0.06022 0.0
N731 N 0.85862 0.72779 0.9943 0.0
H732 H 0.83934 0.71948 0.02115 0.0
H733 H 0.87864 0.7072 0.072 0.0
C734 C 0.86468 0.6819 0.99801 0.0
O735 O 0.85662 0.68978 0.96346 0.0
N736 N 0.84881 0.67907 0.17523 0.0
C737 C 0.83734 0.67563 0.20704 0.0
C738 C 0.84007 0.66478 0.24822 0.0
C739 C 0.85831 0.67041 0.1974 0.0
N740 N 0.8533 0.66152 0.24206 0.0
C741 C 0.82568 0.69829 0.0668 0.0
C742 C 0.82154 0.67244 0.01862 0.0
C743 C 0.81072 0.68163 0.01838 0.0
C744 C 0.81301 0.69473 0.04228 0.0
C745 C 0.83423 0.67652 0.04284 0.0
N746 N 0.83625 0.68942 0.06572 0.0
H747 H 0.8267 0.70803 0.09046 0.0
H748 H 0.84217 0.66906 0.04664 0.0
H749 H 0.82777 0.68083 0.20184 0.0
H750 H 0.86885 0.67106 0.1832 0.0
O751 O 0.84337 0.70602 0.17881 0.0
O752 O 0.86523 0.70127 0.18265 0.0
O753 O 0.86439 0.68231 0.06153 0.0
C754 C 0.85489 0.70766 0.208 0.0
H755 H 0.88049 0.72851 0.99402 0.0
H756 H 0.8329 0.65981 0.28071 0.0
H757 H 0.82014 0.66213 1.00179 0.0
H758 H 0.80485 0.702 0.04564 0.0
Co759 Co 0.56831 0.59758 0.35024 0.0
C760 C 0.54491 0.59651 0.24907 0.0
C761 C 0.55274 0.61613 0.27325 0.0
C762 C 0.54272 0.61776 0.22737 0.0
N763 N 0.55433 0.60286 0.28707 0.0
N764 N 0.53779 0.60548 0.21185 0.0
H765 H 0.54334 0.58572 0.24693 0.0
H766 H 0.55868 0.62418 0.29501 0.0
C767 C 0.58311 0.60742 0.23187 0.0
O768 O 0.57522 0.59924 0.19796 0.0
N769 N 0.58241 0.59403 0.41389 0.0
C770 C 0.58445 0.58337 0.45434 0.0
C771 C 0.59438 0.58685 0.49984 0.0
C772 C 0.59094 0.60371 0.43506 0.0
N773 N 0.59832 0.59974 0.48784 0.0
C774 C 0.56264 0.57077 0.30733 0.0
C775 C 0.58873 0.56341 0.27402 0.0
C776 C 0.57874 0.55335 0.27854 0.0
C777 C 0.56552 0.55726 0.29371 0.0
C778 C 0.58541 0.57694 0.28868 0.0
N779 N 0.57245 0.5805 0.30535 0.0
H780 H 0.55261 0.57315 0.32477 0.0
H781 H 0.59345 0.58434 0.29118 0.0
H782 H 0.57868 0.57406 0.45306 0.0
H783 H 0.59124 0.61374 0.41356 0.0
O784 O 0.55516 0.59024 0.40997 0.0
O785 O 0.56134 0.61173 0.4101 0.0
O786 O 0.58187 0.60812 0.29504 0.0
C787 C 0.55396 0.60211 0.43601 0.0
H788 H 0.53919 0.6273 0.20751 0.0
H789 H 0.59783 0.58065 0.54073 0.0
H790 H 0.59913 0.56072 0.26366 0.0
H791 H 0.55755 0.54978 0.29839 0.0
Co792 Co 0.35002 0.31239 0.07719 0.0
C793 C 0.35147 0.29046 0.97254 0.0
C794 C 0.34919 0.31051 0.9331 0.0
C795 C 0.35 0.30162 0.8811 0.0
N796 N 0.35009 0.30361 0.99064 0.0
N797 N 0.35138 0.28898 0.90557 0.0
H798 H 0.35232 0.28214 0.00712 0.0
H799 H 0.34801 0.32136 0.92914 0.0
C800 C 0.36497 0.33928 0.04648 0.0
O801 O 0.36046 0.34557 0.09934 0.0
N802 N 0.35054 0.32126 0.16289 0.0
C803 C 0.34028 0.32451 0.20391 0.0
C804 C 0.34548 0.33168 0.257 0.0
C805 C 0.36183 0.32572 0.19331 0.0
N806 N 0.35903 0.33262 0.2495 0.0
C807 C 0.32293 0.31295 0.03164 0.0
C808 C 0.31703 0.33979 0.0564 0.0
C809 C 0.30667 0.33121 0.03434 0.0
C810 C 0.30983 0.31768 0.02094 0.0
C811 C 0.33015 0.33467 0.06525 0.0
N812 N 0.33298 0.32133 0.05364 0.0
H813 H 0.32491 0.3023 0.02414 0.0
H814 H 0.33763 0.34133 0.08516 0.0
H815 H 0.32972 0.32233 0.19465 0.0
H816 H 0.37184 0.32462 0.17227 0.0
O817 O 0.34198 0.29683 0.1186 0.0
O818 O 0.36409 0.30014 0.10909 0.0
O819 O 0.36176 0.32695 0.03443 0.0
C820 C 0.35415 0.29262 0.1308 0.0
H821 H 0.34971 0.30432 0.82906 0.0
H822 H 0.33965 0.33648 0.2959 0.0
H823 H 0.31499 0.35031 0.06769 0.0
H824 H 0.3021 0.31063 0.00493 0.0
Co825 Co 0.43979 0.59172 0.83815 0.0
C826 C 0.4653 0.59309 0.75651 0.0
C827 C 0.44775 0.58888 0.69773 0.0
C828 C 0.45868 0.58993 0.65608 0.0
N829 N 0.45181 0.59061 0.76119 0.0
N830 N 0.46969 0.59264 0.6929 0.0
H831 H 0.47183 0.59537 0.79803 0.0
H832 H 0.43748 0.58768 0.68139 0.0
C833 C 0.41474 0.60509 0.78294 0.0
O834 O 0.40707 0.59707 0.81897 0.0
N835 N 0.4278 0.59337 0.91454 0.0
C836 C 0.42377 0.58368 0.95738 0.0
C837 C 0.41533 0.58938 0.004 0.0
C838 C 0.42208 0.60492 0.9373 0.0
N839 N 0.41417 0.60274 0.99115 0.0
C840 C 0.43493 0.56323 0.84284 0.0
C841 C 0.41572 0.56083 0.74439 0.0
C842 C 0.41955 0.54928 0.78 0.0
C843 C 0.42934 0.55063 0.82929 0.0
C844 C 0.42141 0.57347 0.76063 0.0
N845 N 0.4308 0.5747 0.81052 0.0
H846 H 0.44248 0.56353 0.88109 0.0
H847 H 0.41834 0.582 0.73132 0.0
H848 H 0.42679 0.57321 0.95624 0.0
H849 H 0.42342 0.61466 0.91359 0.0
O850 O 0.4533 0.58369 0.89409 0.0
O851 O 0.45141 0.60566 0.8779 0.0
O852 O 0.4276 0.60389 0.78399 0.0
C853 C 0.45759 0.59571 0.90777 0.0
H854 H 0.45846 0.58934 0.6024 0.0
H855 H 0.41057 0.58408 0.04483 0.0
H856 H 0.40837 0.56012 0.7047 0.0
H857 H 0.43288 0.5419 0.85681 0.0
Co858 Co 0.16783 0.68299 0.58784 0.0
C859 C 0.16156 0.70688 0.50009 0.0
C860 C 0.16886 0.68958 0.44646 0.0
C861 C 0.16605 0.69968 0.4017 0.0
N862 N 0.16623 0.69409 0.50835 0.0
N863 N 0.16144 0.71053 0.43534 0.0
H864 H 0.15838 0.71345 0.54005 0.0
H865 H 0.17249 0.67955 0.43461 0.0
C866 C 0.15526 0.65587 0.54492 0.0
O867 O 0.16078 0.64927 0.59447 0.0
N868 N 0.16884 0.67186 0.66717 0.0
C869 C 0.17976 0.66835 0.70327 0.0
C870 C 0.17558 0.66019 0.75508 0.0
C871 C 0.15817 0.66646 0.69956 0.0
N872 N 0.16198 0.65891 0.75226 0.0
C873 C 0.19459 0.68667 0.54114 0.0
C874 C 0.20326 0.66012 0.54391 0.0
C875 C 0.21256 0.67035 0.52846 0.0
C876 C 0.20801 0.68372 0.5258 0.0
C877 C 0.18972 0.66349 0.55705 0.0
N878 N 0.18555 0.67669 0.55686 0.0
H879 H 0.19149 0.69716 0.54211 0.0
H880 H 0.18299 0.65551 0.57099 0.0
H881 H 0.19004 0.67138 0.69253 0.0
H882 H 0.14786 0.66741 0.68212 0.0
O883 O 0.17447 0.69797 0.63918 0.0
O884 O 0.1528 0.69272 0.62845 0.0
O885 O 0.15739 0.66856 0.5369 0.0
C886 C 0.16201 0.70054 0.65488 0.0
H887 H 0.16712 0.69902 0.34829 0.0
H888 H 0.18208 0.65554 0.79177 0.0
H889 H 0.20647 0.64966 0.54694 0.0
H890 H 0.21494 0.69194 0.51492 0.0
Co891 Co 0.06689 0.40607 0.35741 0.0
C892 C 0.04364 0.40792 0.25571 0.0
C893 C 0.05199 0.38823 0.27285 0.0
C894 C 0.04197 0.38701 0.22666 0.0
N895 N 0.05327 0.4013 0.29118 0.0
N896 N 0.03671 0.39935 0.21545 0.0
H897 H 0.04172 0.41864 0.25782 0.0
H898 H 0.05808 0.38003 0.29205 0.0
C899 C 0.08232 0.39765 0.23854 0.0
O900 O 0.07448 0.40606 0.20581 0.0
N901 N 0.08058 0.40922 0.42386 0.0
C902 C 0.08238 0.41985 0.46475 0.0
C903 C 0.09216 0.41644 0.511 0.0
C904 C 0.08912 0.39958 0.4456 0.0
N905 N 0.09635 0.40365 0.49881 0.0
C906 C 0.06119 0.43318 0.3179 0.0
C907 C 0.08717 0.44065 0.28306 0.0
C908 C 0.07692 0.45049 0.28193 0.0
C909 C 0.0638 0.44652 0.29958 0.0
C910 C 0.08407 0.42726 0.30124 0.0
N911 N 0.0711 0.42357 0.31694 0.0
H912 H 0.05124 0.43078 0.33624 0.0
H913 H 0.0922 0.42001 0.30528 0.0
H914 H 0.07666 0.42917 0.46269 0.0
H915 H 0.08938 0.38947 0.42504 0.0
O916 O 0.05331 0.41255 0.41726 0.0
O917 O 0.0599 0.39117 0.41195 0.0
O918 O 0.08085 0.3963 0.30138 0.0
C919 C 0.05218 0.40031 0.43937 0.0
H920 H 0.03863 0.37766 0.20385 0.0
H921 H 0.09567 0.4228 0.55122 0.0
H922 H 0.09751 0.4433 0.27094 0.0
H923 H 0.05566 0.45383 0.30228 0.0
Co924 Co 0.35507 0.69372 0.4159 0.0
C925 C 0.35272 0.71615 0.51992 0.0
C926 C 0.37196 0.70631 0.51537 0.0
C927 C 0.37277 0.71648 0.56128 0.0
N928 N 0.35929 0.70568 0.49051 0.0
N929 N 0.36068 0.72269 0.56444 0.0
H930 H 0.34262 0.71938 0.50791 0.0
H931 H 0.3803 0.70005 0.49924 0.0
C932 C 0.36555 0.67583 0.52105 0.0
O933 O 0.35692 0.68211 0.55995 0.0
N934 N 0.35234 0.68197 0.34046 0.0
C935 C 0.34127 0.68008 0.30265 0.0
C936 C 0.34456 0.6712 0.252 0.0
C937 C 0.36214 0.67445 0.3123 0.0
N938 N 0.35773 0.66773 0.25808 0.0
C939 C 0.32811 0.6954 0.46784 0.0
C940 C 0.32336 0.6679 0.47648 0.0
C941 C 0.31276 0.6769 0.48994 0.0
C942 C 0.31532 0.69079 0.48647 0.0
C943 C 0.33618 0.67297 0.45989 0.0
N944 N 0.3385 0.68663 0.45625 0.0
H945 H 0.32925 0.70601 0.4579 0.0
H946 H 0.34403 0.66589 0.44633 0.0
H947 H 0.3316 0.68491 0.31083 0.0
H948 H 0.37235 0.67396 0.33141 0.0
O949 O 0.34689 0.70846 0.36941 0.0
O950 O 0.36875 0.70357 0.36463 0.0
O951 O 0.36634 0.679 0.45944 0.0
C952 C 0.35878 0.71146 0.34697 0.0
H953 H 0.38178 0.71947 0.58803 0.0
H954 H 0.33784 0.66783 0.21292 0.0
H955 H 0.32165 0.65707 0.47708 0.0
H956 H 0.30725 0.69805 0.49379 0.0
Co957 Co 0.07041 0.59623 0.15597 0.0
C958 C 0.0451 0.59605 0.24532 0.0
C959 C 0.05598 0.61476 0.23834 0.0
C960 C 0.04462 0.617 0.27518 0.0
N961 N 0.05652 0.60165 0.21957 0.0
N962 N 0.03774 0.60531 0.27955 0.0
H963 H 0.04179 0.58578 0.23742 0.0
H964 H 0.06325 0.6224 0.22398 0.0
C965 C 0.08551 0.60511 0.2751 0.0
O966 O 0.07743 0.59699 0.30833 0.0
N967 N 0.08444 0.59264 0.09183 0.0
C968 C 0.08636 0.58209 0.05062 0.0
C969 C 0.09635 0.58558 0.00536 0.0
C970 C 0.0931 0.60229 0.07132 0.0
N971 N 0.10045 0.59838 0.01826 0.0
C972 C 0.06407 0.56946 0.19759 0.0
C973 C 0.09 0.5614 0.22991 0.0
C974 C 0.07974 0.55163 0.2258 0.0
C975 C 0.06662 0.55588 0.21107 0.0
C976 C 0.08703 0.57501 0.21539 0.0
N977 N 0.07414 0.57892 0.19931 0.0
H978 H 0.05415 0.57206 0.17994 0.0
H979 H 0.09526 0.58219 0.21268 0.0
H980 H 0.08049 0.57284 0.05125 0.0
H981 H 0.09353 0.61224 0.09352 0.0
O982 O 0.05707 0.5895 0.09559 0.0
O983 O 0.06386 0.61083 0.09833 0.0
O984 O 0.08425 0.60613 0.21207 0.0
C985 C 0.05615 0.60158 0.07147 0.0
H986 H 0.04154 0.62657 0.29666 0.0
H987 H 0.09975 0.57946 0.96403 0.0
H988 H 0.10035 0.55843 0.23987 0.0
H989 H 0.05846 0.54861 0.20649 0.0
Co990 Co 0.16417 0.31868 0.93244 0.0
C991 C 0.16061 0.29477 0.02423 0.0
C992 C 0.16325 0.31355 0.07575 0.0
C993 C 0.16039 0.3037 0.12155 0.0
N994 N 0.16346 0.30808 0.01434 0.0
N995 N 0.15861 0.2919 0.08939 0.0
H996 H 0.15939 0.28743 0.98489 0.0
H997 H 0.16431 0.32415 0.08706 0.0
C998 C 0.15183 0.34549 0.97289 0.0
O999 O 0.16041 0.35196 0.93442 0.0
N1000 N 0.16424 0.32941 0.85127 0.0
C1001 C 0.17468 0.33264 0.81114 0.0
C1002 C 0.16999 0.34077 0.76058 0.0
C1003 C 0.1533 0.33528 0.82314 0.0
N1004 N 0.15655 0.34254 0.76842 0.0
C1005 C 0.1929 0.32143 0.93438 0.0
C1006 C 0.19567 0.34218 0.02484 0.0
C1007 C 0.20724 0.33695 0.99391 0.0
C1008 C 0.20569 0.32639 0.94885 0.0
C1009 C 0.18282 0.33705 0.0078 0.0
N1010 N 0.18144 0.32691 0.96161 0.0
H1011 H 0.19247 0.31332 0.89897 0.0
H1012 H 0.17421 0.34124 0.03291 0.0
H1013 H 0.18502 0.32948 0.81748 0.0
H1014 H 0.1432 0.33444 0.84336 0.0
O1015 O 0.17186 0.30379 0.88481 0.0
O1016 O 0.14994 0.30727 0.8924 0.0
O1017 O 0.15235 0.3326 0.97795 0.0
C1018 C 0.15984 0.30006 0.86806 0.0
H1019 H 0.15946 0.3052 0.1746 0.0
H1020 H 0.17614 0.34533 0.72213 0.0
H1021 H 0.19653 0.35023 0.06113 0.0
H1022 H 0.21441 0.32188 0.92488 0.0
Co1023 Co 0.44134 0.40837 0.65569 0.0
C1024 C 0.46576 0.40568 0.74377 0.0
C1025 C 0.44761 0.41051 0.7972 0.0
C1026 C 0.45797 0.40912 0.84208 0.0
N1027 N 0.45247 0.40854 0.73537 0.0
N1028 N 0.46936 0.40605 0.80854 0.0
H1029 H 0.47272 0.40342 0.70389 0.0
H1030 H 0.43716 0.41268 0.80895 0.0
C1031 C 0.4161 0.39249 0.70032 0.0
O1032 O 0.40894 0.3966 0.64943 0.0
N1033 N 0.43031 0.40752 0.57635 0.0
C1034 C 0.42529 0.41763 0.53882 0.0
C1035 C 0.41775 0.412 0.48802 0.0
C1036 C 0.42646 0.396 0.5459 0.0
N1037 N 0.41835 0.39839 0.49335 0.0
C1038 C 0.44097 0.43532 0.70215 0.0
C1039 C 0.41347 0.4401 0.6988 0.0
C1040 C 0.42222 0.45071 0.71568 0.0
C1041 C 0.43611 0.44813 0.7181 0.0
C1042 C 0.41877 0.42724 0.68468 0.0
N1043 N 0.43242 0.42497 0.68586 0.0
H1044 H 0.45178 0.43378 0.70154 0.0
H1045 H 0.41187 0.41951 0.66957 0.0
H1046 H 0.42672 0.4283 0.54844 0.0
H1047 H 0.42902 0.38602 0.56419 0.0
O1048 O 0.45508 0.41728 0.60478 0.0
O1049 O 0.45342 0.39504 0.61506 0.0
O1050 O 0.4285 0.39605 0.7073 0.0
C1051 C 0.45967 0.40544 0.589 0.0
H1052 H 0.45713 0.41004 0.89549 0.0
H1053 H 0.41182 0.41752 0.45187 0.0
H1054 H 0.40266 0.44176 0.69587 0.0
H1055 H 0.44324 0.45611 0.72986 0.0
H1056 H 0.11725 0.10708 0.77566 0.0
H1057 H 0.08056 0.1274 0.71568 0.0
H1058 H 0.13009 0.12053 0.69579 0.0
H1059 H 0.09344 0.14085 0.63586 0.0
H1060 H 0.12456 0.17188 0.55237 0.0
H1061 H 0.11133 0.15888 0.63271 0.0
H1062 H 0.13183 0.12236 0.572 0.0
H1063 H 0.14505 0.1353 0.49165 0.0
C1064 C 0.11192 0.11447 0.74583 0.0
C1065 C 0.09786 0.11614 0.75217 0.0
C1066 C 0.11927 0.12211 0.69967 0.0
C1067 C 0.11277 0.13171 0.65919 0.0
C1068 C 0.09876 0.1336 0.66656 0.0
C1069 C 0.09138 0.12586 0.71222 0.0
C1070 C 0.12619 0.16106 0.5558 0.0
C1071 C 0.13588 0.15464 0.51545 0.0
C1072 C 0.11858 0.15361 0.60176 0.0
C1073 C 0.12058 0.1396 0.60903 0.0
C1074 C 0.13017 0.13317 0.56822 0.0
C1075 C 0.13767 0.14058 0.52178 0.0
H1076 H 0.07599 0.87408 0.76714 0.0
H1077 H 0.11303 0.89721 0.77599 0.0
H1078 H 0.0864 0.8563 0.83461 0.0
H1079 H 0.12326 0.87953 0.84538 0.0
H1080 H 0.1278 0.84922 0.03087 0.0
H1081 H 0.11626 0.86757 0.97072 0.0
H1082 H 0.10947 0.84074 0.80512 0.0
H1083 H 0.12133 0.8226 0.86383 0.0
C1084 C 0.08631 0.87542 0.78399 0.0
C1085 C 0.09372 0.88702 0.76602 0.0
C1086 C 0.09223 0.86525 0.82254 0.0
C1087 C 0.10557 0.86662 0.84538 0.0
C1088 C 0.11292 0.87832 0.82873 0.0
C1089 C 0.1071 0.88836 0.78872 0.0
C1090 C 0.12369 0.84723 0.98196 0.0
C1091 C 0.12543 0.8345 0.95196 0.0
C1092 C 0.1172 0.85773 0.9475 0.0
C1093 C 0.11203 0.85552 0.88338 0.0
C1094 C 0.11334 0.84266 0.85455 0.0
C1095 C 0.12013 0.83232 0.88812 0.0
H1096 H 0.40755 0.89889 0.11305 0.0
H1097 H 0.39935 0.8761 0.29178 0.0
H1098 H 0.3897 0.88684 0.05584 0.0
H1099 H 0.3811 0.86405 0.234 0.0
H1100 H 0.34935 0.87346 0.98447 0.0
H1101 H 0.3654 0.88533 0.05469 0.0
H1102 H 0.37751 0.8474 0.1431 0.0
H1103 H 0.3611 0.83544 0.07341 0.0
C1104 C 0.40187 0.89136 0.14045 0.0
C1105 C 0.4049 0.8885 0.20717 0.0
C1106 C 0.39153 0.88448 0.10759 0.0
C1107 C 0.38385 0.87455 0.1404 0.0
C1108 C 0.38686 0.87161 0.2072 0.0
C1109 C 0.39726 0.87855 0.24037 0.0
C1110 C 0.35533 0.86761 0.01917 0.0
C1111 C 0.35404 0.85346 0.02262 0.0
C1112 C 0.3646 0.87443 0.05933 0.0
C1113 C 0.37292 0.8673 0.10381 0.0
C1114 C 0.37123 0.8532 0.10954 0.0
C1115 C 0.36187 0.84635 0.06937 0.0
H1116 H 0.38438 0.10015 0.24214 0.0
H1117 H 0.41919 0.12559 0.2781 0.0
H1118 H 0.37125 0.11355 0.32121 0.0
H1119 H 0.40597 0.13906 0.35662 0.0
H1120 H 0.37201 0.1677 0.43651 0.0
H1121 H 0.38508 0.15484 0.35477 0.0
H1122 H 0.37242 0.11752 0.44733 0.0
H1123 H 0.35951 0.13029 0.5294 0.0
C1124 C 0.38921 0.10865 0.26654 0.0
C1125 C 0.40284 0.11178 0.25394 0.0
C1126 C 0.38171 0.11627 0.31204 0.0
C1127 C 0.3876 0.12733 0.34509 0.0
C1128 C 0.40114 0.13064 0.33153 0.0
C1129 C 0.40872 0.12289 0.28684 0.0
C1130 C 0.37204 0.15676 0.43951 0.0
C1131 C 0.36474 0.15003 0.48963 0.0
C1132 C 0.37955 0.14941 0.39285 0.0
C1133 C 0.37973 0.13519 0.39465 0.0
C1134 C 0.37237 0.12847 0.44443 0.0
C1135 C 0.36505 0.1358 0.49167 0.0
H1136 H 0.84485 0.87091 0.48906 0.0
H1137 H 0.86472 0.83207 0.47744 0.0
H1138 H 0.86198 0.88059 0.41487 0.0
H1139 H 0.88209 0.84194 0.40503 0.0
H1140 H 0.91747 0.87718 0.39282 0.0
H1141 H 0.89917 0.86439 0.44549 0.0
H1142 H 0.87272 0.87426 0.28233 0.0
H1143 H 0.89128 0.8867 0.22794 0.0
C1144 C 0.85278 0.86442 0.47009 0.0
C1145 C 0.85347 0.85075 0.48916 0.0
C1146 C 0.86251 0.86994 0.42743 0.0
C1147 C 0.87327 0.86197 0.40431 0.0
C1148 C 0.87382 0.84824 0.42202 0.0
C1149 C 0.86389 0.84262 0.46332 0.0
C1150 C 0.90783 0.87641 0.3676 0.0
C1151 C 0.90577 0.88289 0.30637 0.0
C1152 C 0.8974 0.86907 0.39761 0.0
C1153 C 0.8846 0.86837 0.36781 0.0
C1154 C 0.88255 0.87464 0.30598 0.0
C1155 C 0.89314 0.88168 0.27491 0.0
H1156 H 0.88147 0.14626 0.9402 0.0
H1157 H 0.85308 0.15923 0.08943 0.0
H1158 H 0.89433 0.13406 0.02367 0.0
H1159 H 0.86501 0.14595 0.17273 0.0
H1160 H 0.8934 0.12785 0.3236 0.0
H1161 H 0.88235 0.14231 0.24221 0.0
H1162 H 0.89574 0.1154 0.08547 0.0
H1163 H 0.90778 0.10189 0.16685 0.0
C1164 C 0.87795 0.14635 0.99118 0.0
C1165 C 0.86635 0.15367 0.00867 0.0
C1166 C 0.88521 0.13919 0.03924 0.0
C1167 C 0.88073 0.13869 0.10577 0.0
C1168 C 0.86907 0.14618 0.12287 0.0
C1169 C 0.86211 0.15375 0.07505 0.0
C1170 C 0.89401 0.12517 0.2715 0.0
C1171 C 0.90147 0.11383 0.2513 0.0
C1172 C 0.88755 0.13338 0.22455 0.0
C1173 C 0.88801 0.13018 0.15626 0.0
C1174 C 0.89538 0.1186 0.13678 0.0
C1175 C 0.90221 0.1107 0.18355 0.0
H1176 H 0.61971 0.11182 0.72788 0.0
H1177 H 0.58281 0.13137 0.79114 0.0
H1178 H 0.63249 0.12531 0.80754 0.0
H1179 H 0.59565 0.14485 0.87101 0.0
H1180 H 0.6267 0.17649 0.9515 0.0
H1181 H 0.6131 0.16322 0.87376 0.0
H1182 H 0.63483 0.12713 0.9301 0.0
H1183 H 0.64844 0.14033 0.00757 0.0
C1184 C 0.61431 0.11901 0.7586 0.0
C1185 C 0.60021 0.12048 0.75303 0.0
C1186 C 0.62164 0.12669 0.80463 0.0
C1187 C 0.61509 0.13611 0.84591 0.0
C1188 C 0.60102 0.13774 0.83967 0.0
C1189 C 0.59366 0.12997 0.79402 0.0
C1190 C 0.62851 0.1657 0.94772 0.0
C1191 C 0.6387 0.15949 0.98579 0.0
C1192 C 0.62068 0.1581 0.90327 0.0
C1193 C 0.62294 0.14413 0.89536 0.0
C1194 C 0.63296 0.1379 0.93429 0.0
C1195 C 0.6407 0.14546 0.97911 0.0
H1196 H 0.61687 0.84571 0.46889 0.0
H1197 H 0.63082 0.82893 0.65487 0.0
H1198 H 0.60547 0.86395 0.52996 0.0
H1199 H 0.6195 0.84692 0.71491 0.0
H1200 H 0.61317 0.88875 0.79642 0.0
H1201 H 0.62336 0.87144 0.72706 0.0
H1202 H 0.5865 0.86833 0.61329 0.0
H1203 H 0.5762 0.8859 0.68273 0.0
C1204 C 0.61741 0.84583 0.52261 0.0
C1205 C 0.62486 0.83591 0.55689 0.0
C1206 C 0.61086 0.85625 0.55753 0.0
C1207 C 0.61175 0.85698 0.62721 0.0
C1208 C 0.61885 0.84682 0.66121 0.0
C1209 C 0.6253 0.83644 0.62662 0.0
C1210 C 0.6072 0.88448 0.75647 0.0
C1211 C 0.5938 0.88866 0.74568 0.0
C1212 C 0.61305 0.87449 0.71684 0.0
C1213 C 0.60568 0.86838 0.66522 0.0
C1214 C 0.59244 0.87286 0.65263 0.0
C1215 C 0.58653 0.88288 0.69262 0.0
H1216 H 0.63856 0.66853 0.06908 0.0
H1217 H 0.64658 0.63156 0.96137 0.0
H1218 H 0.62193 0.65652 0.13753 0.0
H1219 H 0.63023 0.61966 0.02986 0.0
H1220 H 0.6015 0.62562 0.28332 0.0
H1221 H 0.61902 0.63817 0.22275 0.0
H1222 H 0.60566 0.61987 0.0394 0.0
H1223 H 0.58843 0.60734 0.09923 0.0
C1224 C 0.63689 0.65784 0.06035 0.0
C1225 C 0.64384 0.65106 0.00919 0.0
C1226 C 0.6274 0.65095 0.09979 0.0
C1227 C 0.62463 0.63716 0.08865 0.0
C1228 C 0.63192 0.63033 0.03895 0.0
C1229 C 0.64137 0.63717 0.99982 0.0
C1230 C 0.60232 0.6243 0.23007 0.0
C1231 C 0.59359 0.6154 0.19626 0.0
C1232 C 0.61231 0.63154 0.19537 0.0
C1233 C 0.61383 0.62993 0.1263 0.0
C1234 C 0.60496 0.62117 0.09271 0.0
C1235 C 0.595 0.61402 0.12712 0.0
H1236 H 0.58966 0.39923 0.39198 0.0
H1237 H 0.60445 0.38193 0.20867 0.0
H1238 H 0.60726 0.38756 0.45315 0.0
H1239 H 0.62233 0.37029 0.27054 0.0
H1240 H 0.64237 0.34047 0.42257 0.0
H1241 H 0.62559 0.35202 0.35382 0.0
H1242 H 0.63163 0.38867 0.46689 0.0
H1243 H 0.64815 0.37716 0.53611 0.0
C1244 C 0.5967 0.39296 0.36455 0.0
C1245 C 0.59564 0.39156 0.29528 0.0
C1246 C 0.60687 0.38633 0.39974 0.0
C1247 C 0.6163 0.37809 0.36675 0.0
C1248 C 0.61518 0.37651 0.29748 0.0
C1249 C 0.60497 0.38321 0.26203 0.0
C1250 C 0.64015 0.35102 0.43257 0.0
C1251 C 0.64653 0.35784 0.48536 0.0
C1252 C 0.63059 0.35765 0.39287 0.0
C1253 C 0.62717 0.37123 0.40523 0.0
C1254 C 0.63384 0.37813 0.45677 0.0
C1255 C 0.64339 0.37154 0.49629 0.0
H1256 H 0.88803 0.39018 0.80049 0.0
H1257 H 0.92486 0.38818 0.68506 0.0
H1258 H 0.87786 0.37309 0.72969 0.0
H1259 H 0.91455 0.37084 0.61398 0.0
H1260 H 0.88336 0.34913 0.46797 0.0
H1261 H 0.89509 0.36699 0.53067 0.0
H1262 H 0.88213 0.34856 0.71437 0.0
H1263 H 0.87054 0.33097 0.65288 0.0
C1264 C 0.89397 0.38614 0.75986 0.0
C1265 C 0.90732 0.3905 0.74894 0.0
C1266 C 0.88814 0.37628 0.71938 0.0
C1267 C 0.89545 0.3705 0.66667 0.0
C1268 C 0.90866 0.37513 0.65414 0.0
C1269 C 0.91457 0.385 0.6951 0.0
C1270 C 0.88315 0.34886 0.52174 0.0
C1271 C 0.87589 0.33869 0.55532 0.0
C1272 C 0.88987 0.35906 0.55757 0.0
C1273 C 0.88935 0.35929 0.62745 0.0
C1274 C 0.88249 0.34884 0.66061 0.0
C1275 C 0.87587 0.3387 0.62515 0.0
H1276 H 0.91512 0.63672 0.71709 0.0
H1277 H 0.90987 0.61029 0.886 0.0
H1278 H 0.90121 0.65388 0.77182 0.0
H1279 H 0.89571 0.62712 0.93952 0.0
H1280 H 0.88375 0.66498 0.0513 0.0
H1281 H 0.89766 0.64841 0.99332 0.0
H1282 H 0.87883 0.65949 0.80749 0.0
H1283 H 0.86528 0.67636 0.8651 0.0
C1284 C 0.91084 0.6345 0.76541 0.0
C1285 C 0.91368 0.6222 0.79739 0.0
C1286 C 0.90285 0.64432 0.79682 0.0
C1287 C 0.89745 0.64198 0.86062 0.0
C1288 C 0.89996 0.62946 0.89129 0.0
C1289 C 0.908 0.61973 0.86024 0.0
C1290 C 0.88262 0.66392 0.99804 0.0
C1291 C 0.87339 0.672 0.96294 0.0
C1292 C 0.89053 0.65434 0.96475 0.0
C1293 C 0.88933 0.65252 0.8956 0.0
C1294 C 0.88017 0.66071 0.86052 0.0
C1295 C 0.87233 0.67034 0.89374 0.0
H1296 H 0.38918 0.39132 0.72686 0.0
H1297 H 0.42763 0.37526 0.79138 0.0
H1298 H 0.3777 0.37829 0.81299 0.0
H1299 H 0.41593 0.36185 0.87692 0.0
H1300 H 0.38206 0.329 0.95167 0.0
H1301 H 0.39545 0.34171 0.86997 0.0
H1302 H 0.38008 0.3792 0.94952 0.0
H1303 H 0.36701 0.36664 0.03214 0.0
C1304 C 0.39518 0.38493 0.7591 0.0
C1305 C 0.40932 0.38431 0.75226 0.0
C1306 C 0.38859 0.37752 0.80852 0.0
C1307 C 0.39595 0.3691 0.85136 0.0
C1308 C 0.41006 0.36827 0.84419 0.0
C1309 C 0.41673 0.37595 0.79554 0.0
C1310 C 0.38164 0.33996 0.95206 0.0
C1311 C 0.37347 0.34682 0.99835 0.0
C1312 C 0.38934 0.3472 0.9056 0.0
C1313 C 0.38876 0.3614 0.9037 0.0
C1314 C 0.38067 0.36825 0.95009 0.0
C1315 C 0.37322 0.36105 0.99738 0.0
H1316 H 0.42584 0.62846 0.73574 0.0
H1317 H 0.38949 0.60423 0.72783 0.0
H1318 H 0.41512 0.64549 0.66471 0.0
H1319 H 0.37897 0.62113 0.65511 0.0
H1320 H 0.37313 0.65125 0.47003 0.0
H1321 H 0.38594 0.6334 0.5281 0.0
H1322 H 0.39103 0.65988 0.69657 0.0
H1323 H 0.37792 0.6774 0.64007 0.0
C1324 C 0.41564 0.62669 0.71815 0.0
C1325 C 0.40846 0.61507 0.73769 0.0
C1326 C 0.40955 0.63641 0.6775 0.0
C1327 C 0.39631 0.63451 0.65423 0.0
C1328 C 0.38926 0.62271 0.67198 0.0
C1329 C 0.39523 0.61314 0.71396 0.0
C1330 C 0.37716 0.65325 0.51907 0.0
C1331 C 0.37456 0.66563 0.5508 0.0
C1332 C 0.38439 0.64307 0.55226 0.0
C1333 C 0.38942 0.64535 0.61659 0.0
C1334 C 0.38729 0.65794 0.6469 0.0
C1335 C 0.37978 0.66792 0.61467 0.0
H1336 H 0.10404 0.62323 0.22475 0.0
H1337 H 0.09078 0.60459 0.40776 0.0
H1338 H 0.1215 0.63564 0.28607 0.0
H1339 H 0.10796 0.61703 0.46847 0.0
H1340 H 0.14072 0.66592 0.43931 0.0
H1341 H 0.1242 0.65383 0.37085 0.0
H1342 H 0.13242 0.61707 0.47949 0.0
H1343 H 0.14865 0.62906 0.54818 0.0
C1344 C 0.10482 0.6218 0.27795 0.0
C1345 C 0.09604 0.61286 0.31125 0.0
C1346 C 0.11477 0.62895 0.31308 0.0
C1347 C 0.1162 0.62725 0.38211 0.0
C1348 C 0.10732 0.6184 0.4152 0.0
C1349 C 0.09739 0.61132 0.38031 0.0
C1350 C 0.13904 0.65524 0.44831 0.0
C1351 C 0.14593 0.64851 0.49976 0.0
C1352 C 0.12963 0.6483 0.40884 0.0
C1353 C 0.12688 0.63452 0.42017 0.0
C1354 C 0.13409 0.62774 0.47026 0.0
C1355 C 0.14347 0.63463 0.50949 0.0
H1356 H 0.08865 0.39959 0.10718 0.0
H1357 H 0.09988 0.3784 0.28662 0.0
H1358 H 0.10564 0.38706 0.04547 0.0
H1359 H 0.11711 0.3659 0.22441 0.0
H1360 H 0.13508 0.33582 0.07042 0.0
H1361 H 0.11871 0.34845 0.13663 0.0
H1362 H 0.13017 0.38526 0.03546 0.0
H1363 H 0.1464 0.37263 0.96858 0.0
C1364 C 0.09478 0.39229 0.13365 0.0
C1365 C 0.09287 0.39 0.20197 0.0
C1366 C 0.1046 0.38516 0.0982 0.0
C1367 C 0.11278 0.37551 0.12996 0.0
C1368 C 0.11089 0.37319 0.19834 0.0
C1369 C 0.10107 0.38039 0.23403 0.0
C1370 C 0.13411 0.34661 0.06223 0.0
C1371 C 0.14202 0.3532 0.01388 0.0
C1372 C 0.1248 0.35387 0.10062 0.0
C1373 C 0.12311 0.36787 0.09132 0.0
C1374 C 0.1311 0.37446 0.04335 0.0
C1375 C 0.14046 0.36722 0.0052 0.0
H1376 H 0.21355 0.1685 0.59768 0.0
H1377 H 0.21601 0.15686 0.39166 0.0
H1378 H 0.23797 0.16489 0.60944 0.0
H1379 H 0.24026 0.15301 0.40332 0.0
H1380 H 0.28231 0.17347 0.4226 0.0
H1381 H 0.25801 0.16996 0.4149 0.0
H1382 H 0.25829 0.1498 0.60527 0.0
H1383 H 0.28281 0.15349 0.61304 0.0
C1384 C 0.21924 0.16469 0.55568 0.0
C1385 C 0.21296 0.16308 0.49365 0.0
C1386 C 0.23322 0.16263 0.56227 0.0
C1387 C 0.24111 0.15891 0.50692 0.0
C1388 C 0.23454 0.15616 0.44653 0.0
C1389 C 0.22064 0.15827 0.43993 0.0
C1390 C 0.27722 0.1681 0.46231 0.0
C1391 C 0.28444 0.16378 0.51843 0.0
C1392 C 0.26329 0.16599 0.45779 0.0
C1393 C 0.25617 0.15958 0.5095 0.0
C1394 C 0.26346 0.15483 0.56478 0.0
C1395 C 0.2775 0.15682 0.56896 0.0
H1396 H 0.09489 0.97027 0.63905 0.0
H1397 H 0.08275 0.96799 0.84428 0.0
H1398 H 0.09971 0.99437 0.65164 0.0
H1399 H 0.08692 0.9922 0.85683 0.0
H1400 H 0.09708 0.03557 0.87466 0.0
H1401 H 0.10094 0.01132 0.86113 0.0
H1402 H 0.08645 0.01394 0.65891 0.0
H1403 H 0.08322 0.03825 0.67224 0.0
C1404 C 0.09353 0.97493 0.6873 0.0
C1405 C 0.08848 0.96732 0.74077 0.0
C1406 C 0.09613 0.98877 0.69441 0.0
C1407 C 0.0935 0.99539 0.75492 0.0
C1408 C 0.08924 0.98752 0.80958 0.0
C1409 C 0.08682 0.97361 0.80262 0.0
C1410 C 0.09514 0.03096 0.82675 0.0
C1411 C 0.08987 0.03874 0.77443 0.0
C1412 C 0.09719 0.01704 0.81916 0.0
C1413 C 0.09379 0.01052 0.75932 0.0
C1414 C 0.08935 0.01854 0.70558 0.0
C1415 C 0.08748 0.03251 0.71301 0.0
H1416 H 0.20518 0.8136 0.918 0.0
H1417 H 0.20147 0.84751 0.05179 0.0
H1418 H 0.22907 0.8185 0.90339 0.0
H1419 H 0.2255 0.85274 0.03583 0.0
H1420 H 0.27039 0.83193 0.85839 0.0
H1421 H 0.24575 0.8334 0.85978 0.0
H1422 H 0.24688 0.84255 0.06963 0.0
H1423 H 0.27166 0.84154 0.067 0.0
C1424 C 0.20945 0.8223 0.94319 0.0
C1425 C 0.20147 0.83012 0.98627 0.0
C1426 C 0.22315 0.8252 0.93447 0.0
C1427 C 0.22929 0.83602 0.96859 0.0
C1428 C 0.22115 0.84426 0.00933 0.0
C1429 C 0.20735 0.84137 0.01786 0.0
C1430 C 0.26533 0.8346 0.90431 0.0
C1431 C 0.27283 0.83661 0.96259 0.0
C1432 C 0.25123 0.83533 0.90536 0.0
C1433 C 0.24427 0.83785 0.96506 0.0
C1434 C 0.25187 0.84068 0.02265 0.0
C1435 C 0.26605 0.84009 0.02135 0.0
H1436 H 0.44571 0.03037 0.2474 0.0
H1437 H 0.40231 0.03418 0.23526 0.0
H1438 H 0.44351 0.00606 0.26221 0.0
H1439 H 0.40006 0.00952 0.25031 0.0
H1440 H 0.40586 0.96481 0.34232 0.0
H1441 H 0.40476 0.98956 0.33065 0.0
H1442 H 0.4365 0.98797 0.18362 0.0
H1443 H 0.43759 0.96348 0.19516 0.0
C1444 C 0.43567 0.02599 0.24838 0.0
C1445 C 0.4242 0.03416 0.23906 0.0
C1446 C 0.4344 0.01204 0.25656 0.0
C1447 C 0.42163 0.00581 0.25576 0.0
C1448 C 0.41004 0.01403 0.25074 0.0
C1449 C 0.41132 0.02812 0.24237 0.0
C1450 C 0.41237 0.96976 0.30649 0.0
C1451 C 0.42196 0.96222 0.27033 0.0
C1452 C 0.41177 0.98392 0.29999 0.0
C1453 C 0.42076 0.99075 0.25733 0.0
C1454 C 0.42969 0.98306 0.21822 0.0
C1455 C 0.43028 0.96902 0.22464 0.0
H1456 H 0.70345 0.81271 0.58154 0.0
H1457 H 0.70062 0.84786 0.45511 0.0
H1458 H 0.72725 0.81741 0.6006 0.0
H1459 H 0.72457 0.85284 0.47553 0.0
H1460 H 0.77122 0.84216 0.45328 0.0
H1461 H 0.74648 0.84294 0.4443 0.0
H1462 H 0.74312 0.83238 0.65193 0.0
H1463 H 0.7677 0.83122 0.65979 0.0
C1464 C 0.70789 0.8216 0.5587 0.0
C1465 C 0.70017 0.82987 0.51664 0.0
C1466 C 0.72154 0.82438 0.57004 0.0
C1467 C 0.72789 0.83553 0.53961 0.0
C1468 C 0.72004 0.84412 0.49932 0.0
C1469 C 0.70629 0.84136 0.48822 0.0
C1470 C 0.76513 0.84035 0.49715 0.0
C1471 C 0.77129 0.83652 0.55703 0.0
C1472 C 0.75097 0.8408 0.49217 0.0
C1473 C 0.74278 0.83748 0.54716 0.0
C1474 C 0.74908 0.83467 0.6082 0.0
C1475 C 0.76316 0.8341 0.61292 0.0
H1476 H 0.90546 0.03057 0.39266 0.0
H1477 H 0.91546 0.02966 0.18433 0.0
H1478 H 0.90263 0.00586 0.392 0.0
H1479 H 0.91239 0.00507 0.18308 0.0
H1480 H 0.89905 0.96117 0.19416 0.0
H1481 H 0.89514 0.98564 0.20206 0.0
H1482 H 0.92104 0.98745 0.37429 0.0
H1483 H 0.9251 0.96308 0.36561 0.0
C1484 C 0.9066 0.02512 0.34633 0.0
C1485 C 0.91059 0.03198 0.28843 0.0
C1486 C 0.9051 0.011 0.34603 0.0
C1487 C 0.9073 0.00353 0.28751 0.0
C1488 C 0.91047 0.01054 0.22875 0.0
C1489 C 0.91224 0.0246 0.22938 0.0
C1490 C 0.90359 0.96676 0.23474 0.0
C1491 C 0.91235 0.96024 0.2794 0.0
C1492 C 0.90144 0.98076 0.23896 0.0
C1493 C 0.9078 0.98847 0.2887 0.0
C1494 C 0.91589 0.98178 0.33581 0.0
C1495 C 0.91824 0.96784 0.3308 0.0
H1496 H 0.71542 0.17306 0.88822 0.0
H1497 H 0.71689 0.15798 0.08904 0.0
H1498 H 0.73968 0.1685 0.87582 0.0
H1499 H 0.74099 0.15331 0.07677 0.0
H1500 H 0.78343 0.17411 0.06494 0.0
H1501 H 0.75905 0.17071 0.07103 0.0
H1502 H 0.75956 0.15207 0.877 0.0
H1503 H 0.78419 0.15546 0.87141 0.0
C1504 C 0.72082 0.16827 0.92868 0.0
C1505 C 0.71435 0.16598 0.98974 0.0
C1506 C 0.73471 0.16568 0.92173 0.0
C1507 C 0.7423 0.16077 0.9758 0.0
C1508 C 0.73548 0.15732 0.03465 0.0
C1509 C 0.72168 0.15991 0.04155 0.0
C1510 C 0.77837 0.16899 0.02437 0.0
C1511 C 0.78565 0.16498 0.96793 0.0
C1512 C 0.76441 0.16699 0.02782 0.0
C1513 C 0.75735 0.1611 0.97447 0.0
C1514 C 0.76472 0.15666 0.91877 0.0
C1515 C 0.77879 0.15848 0.9158 0.0
H1516 H 0.59118 0.03816 0.62346 0.0
H1517 H 0.58295 0.04318 0.83241 0.0
H1518 H 0.59294 0.01375 0.63878 0.0
H1519 H 0.58466 0.01859 0.84796 0.0
H1520 H 0.56991 0.97348 0.67539 0.0
H1521 H 0.57438 0.99759 0.66263 0.0
H1522 H 0.59884 0.99709 0.84022 0.0
H1523 H 0.59429 0.97277 0.85298 0.0
C1524 C 0.59005 0.03404 0.67302 0.0
C1525 C 0.58677 0.04254 0.72663 0.0
C1526 C 0.59099 0.02006 0.68173 0.0
C1527 C 0.58868 0.01421 0.7443 0.0
C1528 C 0.58651 0.0228 0.79913 0.0
C1529 C 0.58556 0.03687 0.79034 0.0
C1530 C 0.57638 0.97848 0.71123 0.0
C1531 C 0.58175 0.97125 0.76511 0.0
C1532 C 0.57902 0.99228 0.70377 0.0
C1533 C 0.587 0.99927 0.75036 0.0
C1534 C 0.59262 0.992 0.80365 0.0
C1535 C 0.59012 0.97808 0.81063 0.0
H1536 H 0.72624 0.66262 0.06304 0.0
H1537 H 0.72846 0.67829 0.86361 0.0
H1538 H 0.75103 0.66229 0.06892 0.0
H1539 H 0.75309 0.67754 0.86794 0.0
H1540 H 0.79306 0.69582 0.94158 0.0
H1541 H 0.76923 0.69127 0.92326 0.0
H1542 H 0.77281 0.65366 0.03138 0.0
H1543 H 0.79676 0.65853 0.05167 0.0
C1544 C 0.73207 0.6656 0.01987 0.0
C1545 C 0.72553 0.67057 0.96309 0.0
C1546 C 0.74625 0.6654 0.02302 0.0
C1547 C 0.7541 0.6701 0.96922 0.0
C1548 C 0.74742 0.67416 0.91088 0.0
C1549 C 0.73332 0.67449 0.90809 0.0
C1550 C 0.7888 0.68651 0.9609 0.0
C1551 C 0.79679 0.67759 0.9984 0.0
C1552 C 0.77513 0.68381 0.9499 0.0
C1553 C 0.76902 0.67208 0.97589 0.0
C1554 C 0.77714 0.66285 0.0112 0.0
C1555 C 0.7909 0.66555 0.02213 0.0
H1556 H 0.56294 0.46865 0.29821 0.0
H1557 H 0.59947 0.46861 0.18075 0.0
H1558 H 0.56493 0.49291 0.31358 0.0
H1559 H 0.60182 0.49305 0.19845 0.0
H1560 H 0.57496 0.53468 0.37486 0.0
H1561 H 0.57721 0.51019 0.36704 0.0
H1562 H 0.59138 0.51423 0.16491 0.0
H1563 H 0.58956 0.53896 0.17426 0.0
C1564 C 0.57151 0.47381 0.27628 0.0
C1565 C 0.58098 0.46664 0.23789 0.0
C1566 C 0.57275 0.48777 0.28569 0.0
C1567 C 0.58356 0.49505 0.25738 0.0
C1568 C 0.59329 0.48783 0.22048 0.0
C1569 C 0.59204 0.47378 0.21105 0.0
C1570 C 0.57875 0.53032 0.3291 0.0
C1571 C 0.58198 0.53868 0.27497 0.0
C1572 C 0.57995 0.51627 0.32434 0.0
C1573 C 0.58421 0.51012 0.26486 0.0
C1574 C 0.58811 0.51856 0.21162 0.0
C1575 C 0.58705 0.53272 0.21676 0.0
H1576 H 0.73062 0.34509 0.62555 0.0
H1577 H 0.73035 0.33623 0.4159 0.0
H1578 H 0.75546 0.34557 0.62423 0.0
H1579 H 0.75512 0.33706 0.41404 0.0
H1580 H 0.79998 0.34859 0.42889 0.0
H1581 H 0.77572 0.35354 0.43739 0.0
H1582 H 0.77233 0.32529 0.59995 0.0
H1583 H 0.79649 0.32013 0.59041 0.0
C1584 C 0.73589 0.34366 0.57888 0.0
C1585 C 0.72862 0.34072 0.52071 0.0
C1586 C 0.75006 0.34384 0.57821 0.0
C1587 C 0.7572 0.34136 0.51904 0.0
C1588 C 0.74988 0.33914 0.46019 0.0
C1589 C 0.73574 0.33866 0.46119 0.0
C1590 C 0.79409 0.3437 0.4674 0.0
C1591 C 0.80009 0.33402 0.50918 0.0
C1592 C 0.78022 0.34646 0.47195 0.0
C1593 C 0.77216 0.3398 0.51932 0.0
C1594 C 0.77832 0.33066 0.5634 0.0
C1595 C 0.79212 0.32768 0.55789 0.0
H1596 H 0.91129 0.5436 0.66318 0.0
H1597 H 0.93152 0.54257 0.8529 0.0
H1598 H 0.90788 0.51904 0.66869 0.0
H1599 H 0.92791 0.51807 0.85897 0.0
H1600 H 0.92893 0.4753 0.6702 0.0
H1601 H 0.92629 0.49993 0.66564 0.0
H1602 H 0.90876 0.49955 0.86197 0.0
H1603 H 0.91116 0.47483 0.86585 0.0
C1604 C 0.91466 0.53817 0.70687 0.0
C1605 C 0.92165 0.54497 0.7577 0.0
C1606 C 0.91279 0.52413 0.70978 0.0
C1607 C 0.91764 0.51667 0.76419 0.0
C1608 C 0.92396 0.52359 0.81672 0.0
C1609 C 0.92607 0.53758 0.8132 0.0
C1610 C 0.92421 0.48047 0.71159 0.0
C1611 C 0.92019 0.47321 0.76821 0.0
C1612 C 0.92266 0.49454 0.70899 0.0
C1613 C 0.91734 0.50164 0.76354 0.0
C1614 C 0.9129 0.49431 0.81931 0.0
C1615 C 0.91419 0.4802 0.82133 0.0
H1616 H 0.22144 0.33561 0.11022 0.0
H1617 H 0.22446 0.34851 0.90629 0.0
H1618 H 0.24608 0.3374 0.12158 0.0
H1619 H 0.24896 0.35055 0.91749 0.0
H1620 H 0.28943 0.32703 0.93098 0.0
H1621 H 0.26538 0.33214 0.92558 0.0
H1622 H 0.26748 0.35104 0.11874 0.0
H1623 H 0.2917 0.34575 0.12428 0.0
C1624 C 0.22733 0.33937 0.06879 0.0
C1625 C 0.22111 0.34191 0.00742 0.0
C1626 C 0.24144 0.34036 0.07509 0.0
C1627 C 0.24951 0.34387 0.02 0.0
C1628 C 0.24308 0.34755 0.96046 0.0
C1629 C 0.22905 0.34653 0.95419 0.0
C1630 C 0.2848 0.33242 0.97195 0.0
C1631 C 0.29245 0.33595 0.02807 0.0
C1632 C 0.27103 0.33546 0.96871 0.0
C1633 C 0.26448 0.34205 0.02172 0.0
C1634 C 0.2722 0.34593 0.07722 0.0
C1635 C 0.28608 0.343 0.08014 0.0
H1636 H 0.42751 0.46656 0.82247 0.0
H1637 H 0.40628 0.46635 0.6354 0.0
H1638 H 0.42273 0.49058 0.83545 0.0
H1639 H 0.4014 0.4906 0.64825 0.0
H1640 H 0.40817 0.53174 0.8673 0.0
H1641 H 0.40481 0.50748 0.85179 0.0
H1642 H 0.41612 0.51145 0.6455 0.0
H1643 H 0.4193 0.53585 0.66116 0.0
C1644 C 0.42156 0.47164 0.78479 0.0
C1645 C 0.41727 0.46463 0.72799 0.0
C1646 C 0.41874 0.48539 0.7923 0.0
C1647 C 0.41167 0.49252 0.74284 0.0
C1648 C 0.40691 0.48539 0.68704 0.0
C1649 C 0.4096 0.47152 0.67995 0.0
C1650 C 0.40955 0.52747 0.8182 0.0
C1651 C 0.41413 0.5356 0.76557 0.0
C1652 C 0.4077 0.51358 0.80938 0.0
C1653 C 0.41046 0.5075 0.74778 0.0
C1654 C 0.41386 0.51583 0.69353 0.0
C1655 C 0.41568 0.5298 0.70238 0.0
H1656 H 0.29626 0.68243 0.59484 0.0
H1657 H 0.29745 0.66126 0.40763 0.0
H1658 H 0.27199 0.67775 0.60404 0.0
H1659 H 0.27307 0.65684 0.41596 0.0
H1660 H 0.22839 0.67627 0.42161 0.0
H1661 H 0.25308 0.67477 0.41411 0.0
H1662 H 0.25446 0.6574 0.61061 0.0
H1663 H 0.22968 0.6586 0.61733 0.0
C1664 C 0.29135 0.67653 0.55641 0.0
C1665 C 0.2987 0.67213 0.50075 0.0
C1666 C 0.2775 0.67384 0.56168 0.0
C1667 C 0.27066 0.66696 0.51064 0.0
C1668 C 0.2781 0.66217 0.45596 0.0
C1669 C 0.29203 0.66461 0.45141 0.0
C1670 C 0.23397 0.67183 0.46242 0.0
C1671 C 0.22718 0.66749 0.51987 0.0
C1672 C 0.24807 0.67094 0.45813 0.0
C1673 C 0.25567 0.66598 0.51183 0.0
C1674 C 0.24883 0.66126 0.56855 0.0
C1675 C 0.23469 0.66187 0.57223 0.0
H1676 H 0.0983 0.46641 0.32254 0.0
H1677 H 0.06166 0.4675 0.20619 0.0
H1678 H 0.10132 0.49077 0.30486 0.0
H1679 H 0.06432 0.49169 0.19086 0.0
H1680 H 0.07551 0.53312 0.12928 0.0
H1681 H 0.07714 0.50857 0.13691 0.0
H1682 H 0.09138 0.5122 0.33903 0.0
H1683 H 0.09019 0.53697 0.32989 0.0
C1684 C 0.09099 0.4718 0.29251 0.0
C1685 C 0.07971 0.46499 0.26597 0.0
C1686 C 0.09263 0.4858 0.28308 0.0
C1687 C 0.08307 0.49328 0.2465 0.0
C1688 C 0.07202 0.48633 0.2185 0.0
C1689 C 0.0704 0.47242 0.2279 0.0
C1690 C 0.07918 0.52865 0.17498 0.0
C1691 C 0.08261 0.53689 0.22921 0.0
C1692 C 0.08003 0.51457 0.17962 0.0
C1693 C 0.08413 0.50832 0.23906 0.0
C1694 C 0.08824 0.51663 0.29236 0.0
C1695 C 0.08753 0.53081 0.28735 0.0
H1696 H 0.13067 0.22472 0.34281 0.0
H1697 H 0.17237 0.21834 0.2871 0.0
H1698 H 0.12966 0.24418 0.26631 0.0
H1699 H 0.1714 0.23743 0.21236 0.0
H1700 H 0.16534 0.26662 0.04816 0.0
H1701 H 0.16155 0.24543 0.10841 0.0
H1702 H 0.13993 0.26725 0.26091 0.0
H1703 H 0.1434 0.28826 0.19995 0.0
C1704 C 0.13954 0.2274 0.31413 0.0
C1705 C 0.15161 0.22006 0.32158 0.0
C1706 C 0.139 0.23852 0.27044 0.0
C1707 C 0.15044 0.24231 0.23272 0.0
C1708 C 0.16232 0.2347 0.23945 0.0
C1709 C 0.16291 0.22381 0.28321 0.0
C1710 C 0.15954 0.26683 0.09376 0.0
C1711 C 0.15493 0.27916 0.11985 0.0
C1712 C 0.15743 0.25471 0.12859 0.0
C1713 C 0.15058 0.25466 0.19005 0.0
C1714 C 0.14521 0.26688 0.21379 0.0
C1715 C 0.14737 0.27897 0.1792 0.0
H1716 H 0.96811 0.88174 0.42195 0.0
H1717 H 0.98107 0.91634 0.30767 0.0
H1718 H 0.9877 0.88414 0.49412 0.0
H1719 H 1.00087 0.91872 0.37955 0.0
H1720 H 0.02722 0.92703 0.56014 0.0
H1721 H 0.00742 0.9247 0.49018 0.0
H1722 H 0.01195 0.88121 0.49384 0.0
H1723 H 0.03177 0.88357 0.56601 0.0
C1724 C 0.9752 0.88985 0.41215 0.0
C1725 C 0.97309 0.89881 0.35885 0.0
C1726 C 0.98648 0.89118 0.45335 0.0
C1727 C 0.99597 0.90152 0.44237 0.0
C1728 C 0.9937 0.9107 0.3899 0.0
C1729 C 0.98235 0.90938 0.34873 0.0
C1730 C 0.02403 0.91693 0.54618 0.0
C1731 C 0.0311 0.90546 0.56865 0.0
C1732 C 0.01269 0.91562 0.50552 0.0
C1733 C 0.0081 0.90279 0.48589 0.0
C1734 C 0.01513 0.89126 0.50857 0.0
C1735 C 0.02652 0.89258 0.54965 0.0
H1736 H 0.32239 0.78712 0.78463 0.0
H1737 H 0.36483 0.79249 0.82811 0.0
H1738 H 0.32768 0.76825 0.71222 0.0
H1739 H 0.37022 0.77353 0.75393 0.0
H1740 H 0.37178 0.72908 0.68303 0.0
H1741 H 0.36731 0.74895 0.75078 0.0
H1742 H 0.33804 0.76269 0.60666 0.0
H1743 H 0.34256 0.74271 0.53857 0.0
C1744 C 0.3329 0.78432 0.77843 0.0
C1745 C 0.34321 0.79129 0.8124 0.0
C1746 C 0.33594 0.77353 0.73632 0.0
C1747 C 0.34937 0.76938 0.72698 0.0
C1748 C 0.35974 0.77641 0.76053 0.0
C1749 C 0.35668 0.78729 0.80276 0.0
C1750 C 0.36448 0.73639 0.66537 0.0
C1751 C 0.35755 0.7343 0.60518 0.0
C1752 C 0.36195 0.74782 0.70422 0.0
C1753 C 0.35239 0.75747 0.68408 0.0
C1754 C 0.34539 0.75538 0.624 0.0
C1755 C 0.34793 0.7439 0.58502 0.0
H1756 H 0.46925 0.12473 0.06992 0.0
H1757 H 0.46506 0.08389 0.99624 0.0
H1758 H 0.4879 0.12854 0.9909 0.0
H1759 H 0.48343 0.08755 0.91925 0.0
H1760 H 0.51291 0.09704 0.76278 0.0
H1761 H 0.49127 0.09911 0.82099 0.0
H1762 H 0.5112 0.12022 0.98136 0.0
H1763 H 0.53258 0.11857 0.92224 0.0
C1764 C 0.47218 0.11667 0.03646 0.0
C1765 C 0.46581 0.10398 0.03987 0.0
C1766 C 0.48286 0.1188 0.9914 0.0
C1767 C 0.48716 0.10835 0.94848 0.0
C1768 C 0.48032 0.09591 0.95047 0.0
C1769 C 0.46985 0.09376 0.99549 0.0
C1770 C 0.51258 0.1024 0.80963 0.0
C1771 C 0.52451 0.10734 0.83856 0.0
C1772 C 0.50021 0.10352 0.84329 0.0
C1773 C 0.49953 0.10965 0.90649 0.0
C1774 C 0.51131 0.11547 0.93288 0.0
C1775 C 0.52363 0.11434 0.89934 0.0
H1776 H 0.17307 0.72276 0.33065 0.0
H1777 H 0.14113 0.72728 0.47503 0.0
H1778 H 0.16671 0.74422 0.27993 0.0
H1779 H 0.13462 0.74897 0.42323 0.0
H1780 H 0.12396 0.77685 0.21629 0.0
H1781 H 0.12661 0.75667 0.28755 0.0
H1782 H 0.16704 0.76949 0.33766 0.0
H1783 H 0.16444 0.78941 0.26801 0.0
C1784 C 0.16462 0.72832 0.35123 0.0
C1785 C 0.15762 0.72335 0.4068 0.0
C1786 C 0.161 0.74061 0.32235 0.0
C1787 C 0.15017 0.7482 0.34768 0.0
C1788 C 0.14297 0.74324 0.40271 0.0
C1789 C 0.14677 0.73095 0.43255 0.0
C1790 C 0.1332 0.77555 0.24448 0.0
C1791 C 0.14405 0.78458 0.23611 0.0
C1792 C 0.13472 0.76403 0.28499 0.0
C1793 C 0.1471 0.76151 0.31726 0.0
C1794 C 0.15746 0.77115 0.31285 0.0
C1795 C 0.15595 0.78254 0.27291 0.0
H1796 H 0.45209 0.88676 0.54999 0.0
H1797 H 0.4768 0.89697 0.38099 0.0
H1798 H 0.4724 0.88625 0.62065 0.0
H1799 H 0.49689 0.8967 0.45022 0.0
H1800 H 0.5328 0.89083 0.57393 0.0
H1801 H 0.51244 0.884 0.51474 0.0
H1802 H 0.48792 0.90331 0.66503 0.0
H1803 H 0.50849 0.90977 0.72534 0.0
C1804 C 0.46193 0.8884 0.52771 0.0
C1805 C 0.46301 0.89164 0.46008 0.0
C1806 C 0.47352 0.88832 0.56814 0.0
C1807 C 0.48633 0.89145 0.54132 0.0
C1808 C 0.48731 0.89399 0.4727 0.0
C1809 C 0.4758 0.89415 0.43279 0.0
C1810 C 0.52305 0.89349 0.59463 0.0
C1811 C 0.52222 0.90105 0.65353 0.0
C1812 C 0.51137 0.88958 0.56074 0.0
C1813 C 0.4985 0.89332 0.58428 0.0
C1814 C 0.49764 0.90018 0.64552 0.0
C1815 C 0.50939 0.90395 0.68 0.0
H1816 H 0.3285 0.22261 0.6615 0.0
H1817 H 0.37075 0.21346 0.69231 0.0
H1818 H 0.33063 0.2427 0.72903 0.0
H1819 H 0.37294 0.23408 0.76073 0.0
H1820 H 0.36306 0.26492 0.93977 0.0
H1821 H 0.36362 0.24412 0.87273 0.0
H1822 H 0.34212 0.26468 0.716 0.0
H1823 H 0.34113 0.28502 0.78267 0.0
C1824 C 0.33832 0.22492 0.6825 0.0
C1825 C 0.34949 0.21643 0.67118 0.0
C1826 C 0.33953 0.23651 0.72114 0.0
C1827 C 0.35196 0.24005 0.74986 0.0
C1828 C 0.36321 0.23156 0.7393 0.0
C1829 C 0.362 0.21986 0.69979 0.0
C1830 C 0.35842 0.26494 0.89112 0.0
C1831 C 0.35203 0.27668 0.86681 0.0
C1832 C 0.3589 0.2531 0.85246 0.0
C1833 C 0.35289 0.25277 0.78917 0.0
C1834 C 0.34675 0.26457 0.76474 0.0
C1835 C 0.34629 0.2763 0.80297 0.0
H1836 H 0.03235 0.12054 0.95848 0.0
H1837 H 0.02575 0.0782 0.91543 0.0
H1838 H 0.01149 0.12066 0.02638 0.0
H1839 H 0.00557 0.07828 0.98249 0.0
H1840 H 0.96315 0.08427 0.03815 0.0
H1841 H 0.98305 0.08825 0.97201 0.0
H1842 H 1.00176 0.10936 0.13556 0.0
H1843 H 0.98121 0.10593 0.20231 0.0
C1844 C 0.02644 0.11135 0.96303 0.0
C1845 C 0.03067 0.09939 0.9313 0.0
C1846 C 0.01462 0.11137 1.0023 0.0
C1847 C 0.00683 0.09949 0.00942 0.0
C1848 C 0.01116 0.08766 0.97735 0.0
C1849 C 0.02283 0.08762 0.93895 0.0
C1850 C 0.97128 0.09002 0.06032 0.0
C1851 C 0.97043 0.09476 0.12609 0.0
C1852 C 0.98282 0.0922 0.02219 0.0
C1853 C 0.99405 0.09903 0.04858 0.0
C1854 C 0.99323 0.10412 0.11372 0.0
C1855 C 0.98152 0.10198 0.15223 0.0
H1856 H 0.83664 0.73051 0.91447 0.0
H1857 H 0.87313 0.7508 0.97753 0.0
H1858 H 0.83192 0.74911 0.83795 0.0
H1859 H 0.86844 0.76934 0.90154 0.0
H1860 H 0.86276 0.79335 0.70704 0.0
H1861 H 0.86776 0.77471 0.78362 0.0
H1862 H 0.82553 0.77265 0.83798 0.0
H1863 H 0.82056 0.7909 0.76134 0.0
C1864 C 0.84357 0.73899 0.91258 0.0
C1865 C 0.85529 0.7391 0.95189 0.0
C1866 C 0.8409 0.74966 0.86863 0.0
C1867 C 0.84986 0.76071 0.8632 0.0
C1868 C 0.86147 0.76088 0.90331 0.0
C1869 C 0.86413 0.75024 0.94708 0.0
C1870 C 0.85459 0.78892 0.73561 0.0
C1871 C 0.84128 0.79359 0.72795 0.0
C1872 C 0.85744 0.77827 0.77959 0.0
C1873 C 0.84701 0.7721 0.81671 0.0
C1874 C 0.83376 0.77694 0.80938 0.0
C1875 C 0.83094 0.78752 0.76565 0.0
H1876 H 0.03172 0.11187 0.56829 0.0
H1877 H 0.01398 0.08316 0.70443 0.0
H1878 H 0.01079 0.11246 0.50471 0.0
H1879 H 0.99281 0.08398 0.64142 0.0
H1880 H 0.96743 0.07341 0.45678 0.0
H1881 H 0.98659 0.07547 0.53089 0.0
H1882 H 0.98648 0.11883 0.50382 0.0
H1883 H 0.96704 0.11676 0.42836 0.0
C1884 C 0.0233 0.10573 0.58491 0.0
C1885 C 0.0246 0.09725 0.64075 0.0
C1886 C 0.01123 0.10622 0.54888 0.0
C1887 C 1.00016 0.09819 0.56754 0.0
C1888 C 1.00123 0.09016 0.6252 0.0
C1889 C 0.01331 0.08975 0.66161 0.0
C1890 C 0.97143 0.08344 0.46639 0.0
C1891 C 0.96572 0.09494 0.43625 0.0
C1892 C 0.98237 0.08461 0.50966 0.0
C1893 C 0.988 0.09731 0.52396 0.0
C1894 C 0.98236 0.10888 0.49371 0.0
C1895 C 0.97126 0.10771 0.45052 0.0
H1896 H 0.67894 0.22833 0.1699 0.0
H1897 H 0.63536 0.22674 0.18552 0.0
H1898 H 0.67948 0.24804 0.24016 0.0
H1899 H 0.63597 0.24711 0.25689 0.0
H1900 H 0.64959 0.27653 0.4399 0.0
H1901 H 0.64601 0.25573 0.37438 0.0
H1902 H 0.67188 0.27168 0.22041 0.0
H1903 H 0.67576 0.29186 0.28542 0.0
C1904 C 0.66939 0.2322 0.18813 0.0
C1905 C 0.65707 0.22597 0.17125 0.0
C1906 C 0.66974 0.24359 0.2286 0.0
C1907 C 0.65778 0.24924 0.25361 0.0
C1908 C 0.64536 0.24294 0.23833 0.0
C1909 C 0.645 0.23138 0.19713 0.0
C1910 C 0.65453 0.2755 0.39221 0.0
C1911 C 0.66295 0.28591 0.36799 0.0
C1912 C 0.65234 0.2637 0.3544 0.0
C1913 C 0.65867 0.26207 0.29224 0.0
C1914 C 0.66691 0.27256 0.2682 0.0
C1915 C 0.66907 0.28422 0.30548 0.0
H1916 H 0.47185 0.91872 0.14742 0.0
H1917 H 0.48356 0.87728 0.18103 0.0
H1918 H 0.49135 0.9218 0.07435 0.0
H1919 H 0.50332 0.88034 0.11044 0.0
H1920 H 0.52897 0.88566 0.92329 0.0
H1921 H 0.50981 0.88262 0.99877 0.0
H1922 H 0.51485 0.92373 0.06847 0.0
H1923 H 0.53342 0.92686 0.99116 0.0
C1924 C 0.47877 0.91037 0.14009 0.0
C1925 C 0.47617 0.89776 0.16941 0.0
C1926 C 0.48997 0.91208 0.09829 0.0
C1927 C 0.49894 0.90127 0.08581 0.0
C1928 C 0.49651 0.8888 0.11728 0.0
C1929 C 0.48523 0.88705 0.15817 0.0
C1930 C 0.52594 0.894 0.9549 0.0
C1931 C 0.53261 0.9065 0.95104 0.0
C1932 C 0.51501 0.89227 0.9985 0.0
C1933 C 0.51068 0.90296 0.03986 0.0
C1934 C 0.51762 0.91536 0.03656 0.0
C1935 C 0.52836 0.91713 0.99242 0.0
H1936 H 0.87256 0.21633 0.81085 0.0
H1937 H 0.82943 0.21876 0.77906 0.0
H1938 H 0.87583 0.23549 0.7352 0.0
H1939 H 0.83267 0.23745 0.70286 0.0
H1940 H 0.84203 0.27938 0.61803 0.0
H1941 H 0.83876 0.26082 0.69702 0.0
H1942 H 0.87425 0.24087 0.61891 0.0
H1943 H 0.87754 0.25944 0.54128 0.0
C1944 C 0.86381 0.22092 0.78769 0.0
C1945 C 0.85076 0.21603 0.801 0.0
C1946 C 0.86565 0.23185 0.74409 0.0
C1947 C 0.85449 0.23804 0.71285 0.0
C1948 C 0.84147 0.23312 0.7267 0.0
C1949 C 0.83964 0.2223 0.7702 0.0
C1950 C 0.849 0.27094 0.61744 0.0
C1951 C 0.86007 0.2709 0.57385 0.0
C1952 C 0.84718 0.26031 0.66272 0.0
C1953 C 0.85635 0.24939 0.66489 0.0
C1954 C 0.8672 0.24925 0.61993 0.0
C1955 C 0.86904 0.25986 0.57511 0.0
H1956 H 0.54116 0.08916 0.49113 0.0
H1957 H 0.53078 0.12808 0.57404 0.0
H1958 H 0.52243 0.09066 0.41445 0.0
H1959 H 0.51174 0.12972 0.49546 0.0
H1960 H 0.469 0.11351 0.42559 0.0
H1961 H 0.49 0.11794 0.48444 0.0
H1962 H 0.51256 0.10161 0.31915 0.0
H1963 H 0.49136 0.09672 0.26105 0.0
C1964 C 0.53493 0.09818 0.49235 0.0
C1965 C 0.53734 0.10844 0.53927 0.0
C1966 C 0.52424 0.0991 0.44758 0.0
C1967 C 0.51553 0.1103 0.44845 0.0
C1968 C 0.51822 0.1209 0.49373 0.0
C1969 C 0.52913 0.12002 0.53849 0.0
C1970 C 0.47844 0.11092 0.40155 0.0
C1971 C 0.47849 0.10442 0.33928 0.0
C1972 C 0.49052 0.11367 0.43499 0.0
C1973 C 0.503 0.10999 0.40707 0.0
C1974 C 0.50311 0.10438 0.34263 0.0
C1975 C 0.49098 0.10165 0.30904 0.0
H1976 H 0.63769 0.7288 0.03198 0.0
H1977 H 0.67256 0.72772 0.16051 0.0
H1978 H 0.63076 0.75049 0.08241 0.0
H1979 H 0.6658 0.74921 0.20976 0.0
H1980 H 0.6605 0.79364 0.22356 0.0
H1981 H 0.66326 0.77394 0.15228 0.0
H1982 H 0.62462 0.75857 0.21738 0.0
H1983 H 0.62183 0.77852 0.28988 0.0
C1984 C 0.64388 0.73324 0.07057 0.0
C1985 C 0.65566 0.72661 0.09246 0.0
C1986 C 0.63987 0.74554 0.09962 0.0
C1987 C 0.64777 0.75149 0.14975 0.0
C1988 C 0.65956 0.74486 0.17099 0.0
C1989 C 0.6634 0.73255 0.14304 0.0
C1990 C 0.65238 0.78627 0.22125 0.0
C1991 C 0.641 0.78752 0.26258 0.0
C1992 C 0.65398 0.775 0.18051 0.0
C1993 C 0.64424 0.76469 0.18008 0.0
C1994 C 0.63224 0.76644 0.21677 0.0
C1995 C 0.63062 0.77784 0.25796 0.0
H1996 H 0.02455 0.92348 0.93821 0.0
H1997 H 0.01284 0.8949 0.78683 0.0
H1998 H 0.00284 0.9204 0.99334 0.0
H1999 H 0.99085 0.89172 0.84275 0.0
H2000 H 0.96218 0.88142 0.0384 0.0
H2001 H 0.98222 0.88262 0.96542 0.0
H2002 H 0.97834 0.92608 0.95738 0.0
H2003 H 0.95864 0.92496 0.02881 0.0
C2004 C 0.01729 0.91653 0.91674 0.0
C2005 C 0.02037 0.90947 0.8582 0.0
C2006 C 0.00485 0.91479 0.94815 0.0
C2007 C 0.99516 0.90582 0.92231 0.0
C2008 C 0.99817 0.89865 0.86381 0.0
C2009 C 0.01065 0.90058 0.83154 0.0
C2010 C 0.96549 0.89116 0.01979 0.0
C2011 C 0.95897 0.9031 0.04028 0.0
C2012 C 0.97691 0.89185 0.97807 0.0
C2013 C 0.98192 0.90448 0.95664 0.0
C2014 C 0.97484 0.91624 0.97394 0.0
C2015 C 0.96354 0.91556 0.01504 0.0
H2016 H 0.66036 0.7635 0.53484 0.0
H2017 H 0.62421 0.77228 0.64683 0.0
H2018 H 0.66505 0.74436 0.60827 0.0
H2019 H 0.6289 0.75336 0.72051 0.0
H2020 H 0.63412 0.71018 0.80025 0.0
H2021 H 0.62923 0.72897 0.72449 0.0
H2022 H 0.67173 0.73917 0.7193 0.0
H2023 H 0.67658 0.72038 0.79281 0.0
C2024 C 0.65352 0.76144 0.5756 0.0
C2025 C 0.64188 0.76936 0.58468 0.0
C2026 C 0.65616 0.75046 0.6177 0.0
C2027 C 0.64728 0.74721 0.67019 0.0
C2028 C 0.63579 0.75533 0.67983 0.0
C2029 C 0.63313 0.76623 0.63767 0.0
C2030 C 0.64238 0.71644 0.78272 0.0
C2031 C 0.65572 0.71375 0.80246 0.0
C2032 C 0.6396 0.72725 0.73956 0.0
C2033 C 0.65011 0.73559 0.71545 0.0
C2034 C 0.66341 0.73285 0.73567 0.0
C2035 C 0.66617 0.72209 0.77839 0.0
H2036 H 0.54019 0.37962 0.03188 0.0
H2037 H 0.54766 0.42031 0.96273 0.0
H2038 H 0.51968 0.37864 0.96213 0.0
H2039 H 0.52738 0.41933 0.8945 0.0
H2040 H 0.47972 0.41862 0.91564 0.0
H2041 H 0.50197 0.41527 0.96507 0.0
H2042 H 0.51138 0.38528 0.81655 0.0
H2043 H 0.48891 0.38869 0.76613 0.0
C2044 C 0.53774 0.38811 1.00005 0.0
C2045 C 0.54541 0.40008 0.00305 0.0
C2046 C 0.52603 0.38757 0.96044 0.0
C2047 C 0.52199 0.39897 0.9236 0.0
C2048 C 0.5303 0.41045 0.92265 0.0
C2049 C 0.54188 0.41099 0.96177 0.0
C2050 C 0.48645 0.41122 0.89375 0.0
C2051 C 0.48257 0.40393 0.83701 0.0
C2052 C 0.49917 0.40933 0.92196 0.0
C2053 C 0.50828 0.39998 0.89468 0.0
C2054 C 0.50444 0.39248 0.83856 0.0
C2055 C 0.49169 0.39453 0.80952 0.0
H2056 H 0.87921 0.28377 0.27914 0.0
H2057 H 0.8373 0.29267 0.23793 0.0
H2058 H 0.87756 0.26337 0.2088 0.0
H2059 H 0.83569 0.27254 0.16906 0.0
H2060 H 0.83283 0.22599 0.16581 0.0
H2061 H 0.83737 0.24785 0.21717 0.0
H2062 H 0.87057 0.2544 0.08179 0.0
H2063 H 0.86593 0.2323 0.02953 0.0
C2064 C 0.86981 0.28161 0.25359 0.0
C2065 C 0.85834 0.2897 0.26463 0.0
C2066 C 0.86886 0.26995 0.21358 0.0
C2067 C 0.85642 0.2663 0.1845 0.0
C2068 C 0.84533 0.275 0.19167 0.0
C2069 C 0.84628 0.28654 0.23109 0.0
C2070 C 0.84113 0.23204 0.14707 0.0
C2071 C 0.84901 0.22744 0.09363 0.0
C2072 C 0.84369 0.24459 0.17624 0.0
C2073 C 0.8543 0.25283 0.15333 0.0
C2074 C 0.86236 0.24822 0.10044 0.0
C2075 C 0.85963 0.23567 0.07029 0.0
H2076 H 0.97186 0.62571 0.53985 0.0
H2077 H 0.96871 0.58226 0.52255 0.0
H2078 H 0.99056 0.62555 0.45994 0.0
H2079 H 0.98684 0.5821 0.44163 0.0
H2080 H 0.03027 0.58488 0.36107 0.0
H2081 H 0.01045 0.58454 0.43392 0.0
H2082 H 0.99673 0.62216 0.34735 0.0
H2083 H 0.01675 0.62258 0.27673 0.0
C2084 C 0.97504 0.61618 0.51837 0.0
C2085 C 0.9689 0.60402 0.53795 0.0
C2086 C 0.98572 0.61605 0.47234 0.0
C2087 C 0.99033 0.60376 0.44444 0.0
C2088 C 0.98385 0.5917 0.46297 0.0
C2089 C 0.97335 0.59182 0.50924 0.0
C2090 C 0.02284 0.59289 0.357 0.0
C2091 C 0.02504 0.60377 0.31368 0.0
C2092 C 0.01149 0.59276 0.39873 0.0
C2093 C 1.00201 0.60344 0.39731 0.0
C2094 C 0.00394 0.61396 0.3513 0.0
C2095 C 0.01534 0.61414 0.31031 0.0
H2096 H 0.6789 0.23932 0.90327 0.0
H2097 H 0.63744 0.23257 0.84745 0.0
H2098 H 0.6792 0.26023 0.83866 0.0
H2099 H 0.63719 0.25389 0.78651 0.0
H2100 H 0.6459 0.28382 0.61759 0.0
H2101 H 0.64411 0.26405 0.69011 0.0
H2102 H 0.67301 0.28222 0.82488 0.0
H2103 H 0.67542 0.30129 0.74958 0.0
C2104 C 0.66975 0.24258 0.8785 0.0
C2105 C 0.65818 0.23441 0.87998 0.0
C2106 C 0.66983 0.2546 0.84152 0.0
C2107 C 0.65821 0.25888 0.80645 0.0
C2108 C 0.64645 0.25088 0.81094 0.0
C2109 C 0.64651 0.23873 0.84652 0.0
C2110 C 0.65172 0.28355 0.66316 0.0
C2111 C 0.66083 0.29397 0.67807 0.0
C2112 C 0.65069 0.27225 0.70513 0.0
C2113 C 0.65853 0.27132 0.76371 0.0
C2114 C 0.66711 0.28222 0.77963 0.0
C2115 C 0.66839 0.29327 0.73686 0.0
H2116 H 0.9717 0.4313 0.97038 0.0
H2117 H 0.96822 0.38782 0.95532 0.0
H2118 H 0.99101 0.42884 0.04397 0.0
H2119 H 0.98754 0.38533 0.0304 0.0
H2120 H 0.0314 0.38638 0.10046 0.0
H2121 H 0.01185 0.38926 0.02881 0.0
H2122 H 0.99747 0.42154 0.15508 0.0
H2123 H 0.01722 0.4186 0.22724 0.0
C2124 C 0.97502 0.42118 0.98308 0.0
C2125 C 0.96845 0.40973 0.95672 0.0
C2126 C 0.98605 0.41979 0.02576 0.0
C2127 C 0.99085 0.40691 0.04316 0.0
C2128 C 0.9842 0.39542 0.01733 0.0
C2129 C 0.9731 0.39682 0.9746 0.0
C2130 C 0.02405 0.39407 0.11318 0.0
C2131 C 0.02579 0.40217 0.17002 0.0
C2132 C 0.0128 0.39568 0.07216 0.0
C2133 C 0.00296 0.40548 0.08664 0.0
C2134 C 0.00489 0.41391 0.14234 0.0
C2135 C 0.01621 0.41229 0.18359 0.0
H2136 H 0.87353 0.72757 0.23552 0.0
H2137 H 0.83724 0.70849 0.30896 0.0
H2138 H 0.87001 0.7465 0.31324 0.0
H2139 H 0.83383 0.72709 0.3865 0.0
H2140 H 0.81979 0.7718 0.39515 0.0
H2141 H 0.82709 0.7505 0.34615 0.0
H2142 H 0.86626 0.755 0.43822 0.0
H2143 H 0.85875 0.77654 0.48825 0.0
C2144 C 0.86517 0.72715 0.27024 0.0
C2145 C 0.85559 0.71668 0.26619 0.0
C2146 C 0.86312 0.73797 0.31451 0.0
C2147 C 0.8515 0.73836 0.35499 0.0
C2148 C 0.84274 0.72717 0.35517 0.0
C2149 C 0.84473 0.7165 0.31104 0.0
C2150 C 0.82991 0.76818 0.40542 0.0
C2151 C 0.8387 0.77577 0.44537 0.0
C2152 C 0.83408 0.75595 0.37777 0.0
C2153 C 0.84723 0.75104 0.38866 0.0
C2154 C 0.85607 0.75856 0.42913 0.0
C2155 C 0.85177 0.77078 0.45801 0.0
H2156 H 0.54902 0.58409 0.53249 0.0
H2157 H 0.53695 0.62362 0.46332 0.0
H2158 H 0.52946 0.58327 0.60578 0.0
H2159 H 0.51716 0.6228 0.53812 0.0
H2160 H 0.48765 0.61194 0.73189 0.0
H2161 H 0.50984 0.6168 0.6805 0.0
H2162 H 0.50383 0.58357 0.5447 0.0
H2163 H 0.48182 0.57892 0.59476 0.0
C2164 C 0.54239 0.59281 0.53456 0.0
C2165 C 0.54442 0.60387 0.49183 0.0
C2166 C 0.53121 0.59232 0.57658 0.0
C2167 C 0.5218 0.6029 0.57711 0.0
C2168 C 0.52438 0.61455 0.53879 0.0
C2169 C 0.53568 0.61505 0.49625 0.0
C2170 C 0.4912 0.60566 0.69143 0.0
C2171 C 0.48308 0.59503 0.66726 0.0
C2172 C 0.50376 0.60851 0.66176 0.0
C2173 C 0.50846 0.60057 0.60866 0.0
C2174 C 0.50042 0.58984 0.58558 0.0
C2175 C 0.48785 0.58717 0.61415 0.0
H2176 H 0.33963 0.26974 0.11677 0.0
H2177 H 0.37253 0.28696 0.2293 0.0
H2178 H 0.34035 0.24941 0.18538 0.0
H2179 H 0.373 0.26655 0.30003 0.0
H2180 H 0.34921 0.235 0.45079 0.0
H2181 H 0.35354 0.25524 0.38338 0.0
H2182 H 0.3586 0.23019 0.20988 0.0
H2183 H 0.35485 0.21007 0.27654 0.0
C2184 C 0.34714 0.26907 0.15581 0.0
C2185 C 0.35611 0.27983 0.16744 0.0
C2186 C 0.34754 0.25745 0.19509 0.0
C2187 C 0.35671 0.25643 0.24808 0.0
C2188 C 0.36583 0.26712 0.25952 0.0
C2189 C 0.36565 0.27869 0.21881 0.0
C2190 C 0.35154 0.23377 0.39864 0.0
C2191 C 0.35136 0.22084 0.36913 0.0
C2192 C 0.35403 0.24537 0.3601 0.0
C2193 C 0.35628 0.24426 0.29135 0.0
C2194 C 0.35674 0.23134 0.26261 0.0
C2195 C 0.35444 0.2198 0.30098 0.0
H2196 H 0.47203 0.57577 0.9667 0.0
H2197 H 0.46977 0.61931 0.95034 0.0
H2198 H 0.49154 0.57774 0.03856 0.0
H2199 H 0.48932 0.62133 0.02461 0.0
H2200 H 0.53288 0.61926 0.09896 0.0
H2201 H 0.51335 0.61713 0.0263 0.0
H2202 H 0.49829 0.58436 0.14783 0.0
H2203 H 0.51808 0.58644 0.22016 0.0
C2204 C 0.47564 0.58582 0.97886 0.0
C2205 C 0.46933 0.59741 0.95267 0.0
C2206 C 0.48682 0.58693 0.02064 0.0
C2207 C 0.49201 0.59968 0.03776 0.0
C2208 C 0.48567 0.61133 0.01182 0.0
C2209 C 0.47444 0.61021 0.96959 0.0
C2210 C 0.5254 0.61158 0.11007 0.0
C2211 C 0.52696 0.60306 0.16549 0.0
C2212 C 0.51415 0.61043 0.06866 0.0
C2213 C 0.50412 0.60071 0.08157 0.0
C2214 C 0.50586 0.59191 0.13606 0.0
C2215 C 0.5172 0.59304 0.17744 0.0
H2216 H 0.17981 0.71584 0.72504 0.0
H2217 H 0.13709 0.7109 0.68783 0.0
H2218 H 0.17507 0.73425 0.80134 0.0
H2219 H 0.13229 0.72975 0.763 0.0
H2220 H 0.12751 0.75413 0.95328 0.0
H2221 H 0.13249 0.7356 0.87768 0.0
H2222 H 0.16781 0.75711 0.80767 0.0
H2223 H 0.16288 0.77558 0.8849 0.0
C2224 C 0.16937 0.71877 0.73276 0.0
C2225 C 0.15881 0.71188 0.70039 0.0
C2226 C 0.16666 0.72943 0.77631 0.0
C2227 C 0.1533 0.73357 0.78847 0.0
C2228 C 0.14271 0.72672 0.75568 0.0
C2229 C 0.14543 0.71596 0.71228 0.0
C2230 C 0.13633 0.75491 0.92164 0.0
C2231 C 0.14477 0.76636 0.92477 0.0
C2232 C 0.13915 0.7443 0.87796 0.0
C2233 C 0.15047 0.74486 0.83581 0.0
C2234 C 0.15907 0.75623 0.8398 0.0
C2235 C 0.15628 0.76683 0.88405 0.0
H2236 H 0.99232 0.40995 0.75254 0.0
H2237 H 0.97248 0.39544 0.57533 0.0
H2238 H 0.01426 0.40438 0.70399 0.0
H2239 H 0.99435 0.39031 0.52603 0.0
H2240 H 0.04628 0.41644 0.54263 0.0
H2241 H 0.02663 0.41527 0.61466 0.0
H2242 H 0.01542 0.37702 0.52622 0.0
H2243 H 0.03532 0.37832 0.45311 0.0
C2244 C 0.99261 0.4054 0.70369 0.0
C2245 C 0.98064 0.40339 0.6674 0.0
C2246 C 0.00519 0.40226 0.67568 0.0
C2247 C 0.00609 0.397 0.61083 0.0
C2248 C 0.99406 0.39425 0.57621 0.0
C2249 C 0.98151 0.39741 0.60411 0.0
C2250 C 0.03982 0.40759 0.53985 0.0
C2251 C 0.04225 0.3975 0.49225 0.0
C2252 C 0.02858 0.40687 0.58145 0.0
C2253 C 0.01936 0.39611 0.576 0.0
C2254 C 0.02227 0.38552 0.5312 0.0
C2255 C 0.03371 0.38617 0.48986 0.0
H2256 H 0.34261 0.76721 0.0326 0.0
H2257 H 0.35134 0.79328 0.19884 0.0
H2258 H 0.35101 0.74768 0.09592 0.0
H2259 H 0.35994 0.77404 0.26134 0.0
H2260 H 0.34878 0.73564 0.37934 0.0
H2261 H 0.3471 0.75567 0.31032 0.0
H2262 H 0.37009 0.7357 0.15629 0.0
H2263 H 0.37173 0.71534 0.22694 0.0
C2264 C 0.34662 0.76879 0.08203 0.0
C2265 C 0.34603 0.78168 0.11147 0.0
C2266 C 0.35149 0.75765 0.11819 0.0
C2267 C 0.35594 0.75927 0.18415 0.0
C2268 C 0.3563 0.77238 0.21127 0.0
C2269 C 0.35134 0.7834 0.17557 0.0
C2270 C 0.35376 0.73563 0.33136 0.0
C2271 C 0.36046 0.72403 0.30852 0.0
C2272 C 0.35285 0.74714 0.29176 0.0
C2273 C 0.35849 0.74734 0.22769 0.0
C2274 C 0.36561 0.73584 0.20537 0.0
C2275 C 0.36669 0.72427 0.24588 0.0
H2276 H 0.0437 0.62557 0.03825 0.0
H2277 H 0.046 0.58329 0.98534 0.0
H2278 H 0.02432 0.62825 0.96325 0.0
H2279 H 0.02669 0.58584 0.91207 0.0
H2280 H 0.99466 0.59634 0.75726 0.0
H2281 H 0.01679 0.59564 0.81228 0.0
H2282 H 1.00101 0.62018 0.97205 0.0
H2283 H 0.97915 0.62078 0.91776 0.0
C2284 C 0.04026 0.61695 0.00958 0.0
C2285 C 0.04624 0.60421 0.01814 0.0
C2286 C 0.02911 0.61842 0.96713 0.0
C2287 C 0.02384 0.60719 0.93229 0.0
C2288 C 0.03048 0.59471 0.93767 0.0
C2289 C 0.04151 0.59323 0.98016 0.0
C2290 C 0.99594 0.60147 0.80431 0.0
C2291 C 0.98517 0.60868 0.83287 0.0
C2292 C 0.00862 0.60117 0.83564 0.0
C2293 C 0.01075 0.60807 0.89607 0.0
C2294 C 0.99989 0.61511 0.92468 0.0
C2295 C 0.9873 0.61537 0.89366 0.0
H2296 H 0.17969 0.28334 0.82754 0.0
H2297 H 0.13663 0.28976 0.80801 0.0
H2298 H 0.17832 0.26384 0.75578 0.0
H2299 H 0.13529 0.2697 0.73487 0.0
H2300 H 0.14622 0.23944 0.55142 0.0
H2301 H 0.14541 0.26063 0.61646 0.0
H2302 H 0.16735 0.24104 0.77476 0.0
H2303 H 0.1683 0.22029 0.71036 0.0
C2304 C 0.16986 0.2806 0.80797 0.0
C2305 C 0.15822 0.28809 0.8242 0.0
C2306 C 0.16911 0.26936 0.76665 0.0
C2307 C 0.15671 0.26519 0.74 0.0
C2308 C 0.14501 0.27276 0.75464 0.0
C2309 C 0.14574 0.28413 0.79684 0.0
C2310 C 0.15097 0.2398 0.59983 0.0
C2311 C 0.15737 0.22824 0.62582 0.0
C2312 C 0.15033 0.25181 0.63732 0.0
C2313 C 0.15627 0.25245 0.70074 0.0
C2314 C 0.16271 0.24089 0.72603 0.0
C2315 C 0.16324 0.22899 0.68917 0.0
H2316 H 0.53541 0.38494 0.39318 0.0
H2317 H 0.51953 0.41771 0.27527 0.0
H2318 H 0.51601 0.38632 0.4671 0.0
H2319 H 0.4999 0.41911 0.34934 0.0
H2320 H 0.4738 0.42614 0.53385 0.0
H2321 H 0.49328 0.42508 0.4609 0.0
H2322 H 0.49197 0.38139 0.46799 0.0
H2323 H 0.47244 0.38247 0.54286 0.0
C2324 C 0.52772 0.39245 0.38302 0.0
C2325 C 0.52894 0.40115 0.328 0.0
C2326 C 0.51655 0.39319 0.42524 0.0
C2327 C 0.50626 0.40267 0.41375 0.0
C2328 C 0.50767 0.41171 0.3599 0.0
C2329 C 0.51892 0.41097 0.31754 0.0
C2330 C 0.47763 0.41626 0.52001 0.0
C2331 C 0.47155 0.40435 0.54435 0.0
C2332 C 0.48878 0.41568 0.47762 0.0
C2333 C 0.4942 0.40318 0.45824 0.0
C2334 C 0.48814 0.39122 0.48252 0.0
C2335 C 0.47691 0.3918 0.52516 0.0
H2336 H 0.14713 0.16095 0.13208 0.0
H2337 H 0.12204 0.15691 0.30672 0.0
H2338 H 0.13155 0.14673 0.07023 0.0
H2339 H 0.10606 0.14329 0.24377 0.0
H2340 H 0.09 0.10568 0.13614 0.0
H2341 H 0.10434 0.1212 0.19771 0.0
H2342 H 0.10972 0.14541 0.02097 0.0
H2343 H 0.09597 0.12946 0.95844 0.0
C2344 C 0.13826 0.15712 0.15735 0.0
C2345 C 0.13597 0.16006 0.2248 0.0
C2346 C 0.12919 0.14908 0.12146 0.0
C2347 C 0.11751 0.14379 0.15186 0.0
C2348 C 0.11504 0.147 0.21886 0.0
C2349 C 0.12414 0.155 0.25486 0.0
C2350 C 0.09428 0.11425 0.11013 0.0
C2351 C 0.09184 0.11619 0.04195 0.0
C2352 C 0.10239 0.12329 0.14581 0.0
C2353 C 0.10825 0.13459 0.11447 0.0
C2354 C 0.10555 0.13673 0.04666 0.0
C2355 C 0.09748 0.12765 0.01087 0.0
H2356 H 0.09107 0.90324 0.38212 0.0
H2357 H 0.09849 0.87871 0.55577 0.0
H2358 H 0.10562 0.8886 0.31683 0.0
H2359 H 0.1127 0.86364 0.48942 0.0
H2360 H 0.14868 0.84811 0.36465 0.0
H2361 H 0.13448 0.86292 0.43231 0.0
H2362 H 0.10617 0.8664 0.26991 0.0
H2363 H 0.12057 0.85214 0.20179 0.0
C2364 C 0.09578 0.89471 0.40648 0.0
C2365 C 0.09361 0.89222 0.47444 0.0
C2366 C 0.10404 0.88619 0.36872 0.0
C2367 C 0.11035 0.87489 0.39768 0.0
C2368 C 0.10812 0.87232 0.46559 0.0
C2369 C 0.09983 0.88087 0.50349 0.0
C2370 C 0.13951 0.85217 0.34315 0.0
C2371 C 0.1358 0.84888 0.27764 0.0
C2372 C 0.13127 0.86053 0.38227 0.0
C2373 C 0.11913 0.86586 0.35674 0.0
C2374 C 0.11549 0.86262 0.29114 0.0
C2375 C 0.1237 0.85428 0.25218 0.0
H2376 H 0.36799 0.83931 0.74502 0.0
H2377 H 0.33631 0.86796 0.7003 0.0
H2378 H 0.38413 0.85326 0.68487 0.0
H2379 H 0.35237 0.88166 0.63758 0.0
H2380 H 0.38801 0.9098 0.58668 0.0
H2381 H 0.37195 0.89637 0.65152 0.0
H2382 H 0.38961 0.85969 0.57346 0.0
H2383 H 0.40589 0.87299 0.51143 0.0
C2384 C 0.36444 0.84857 0.72233 0.0
C2385 C 0.3508 0.85246 0.72771 0.0
C2386 C 0.37369 0.85653 0.68715 0.0
C2387 C 0.36957 0.8686 0.65617 0.0
C2388 C 0.35594 0.8725 0.66138 0.0
C2389 C 0.34667 0.86453 0.69662 0.0
C2390 C 0.38854 0.89888 0.58394 0.0
C2391 C 0.39823 0.89253 0.5434 0.0
C2392 C 0.37924 0.89117 0.62054 0.0
C2393 C 0.37945 0.87693 0.61769 0.0
C2394 C 0.38921 0.87062 0.57753 0.0
C2395 C 0.39847 0.87829 0.54108 0.0
H2396 H 0.39081 0.09589 0.92765 0.0
H2397 H 0.41501 0.12979 0.99287 0.0
H2398 H 0.37596 0.11126 0.86801 0.0
H2399 H 0.39982 0.14525 0.9351 0.0
H2400 H 0.37785 0.1669 0.76232 0.0
H2401 H 0.39309 0.15212 0.82393 0.0
H2402 H 0.35897 0.12827 0.88938 0.0
H2403 H 0.34383 0.14268 0.82592 0.0
C2404 C 0.39302 0.10661 0.92917 0.0
C2405 C 0.40417 0.11154 0.9652 0.0
C2406 C 0.38437 0.11547 0.8956 0.0
C2407 C 0.38661 0.12953 0.89701 0.0
C2408 C 0.39782 0.13448 0.93254 0.0
C2409 C 0.40647 0.12561 0.96628 0.0
C2410 C 0.37359 0.15849 0.78967 0.0
C2411 C 0.35957 0.156 0.78865 0.0
C2412 C 0.38233 0.15008 0.8256 0.0
C2413 C 0.37729 0.13892 0.86134 0.0
C2414 C 0.36325 0.13663 0.86161 0.0
C2415 C 0.35452 0.14504 0.82583 0.0
H2416 H 0.9044 0.87743 0.00252 0.0
H2417 H 0.88288 0.91398 0.95071 0.0
H2418 H 0.88892 0.86424 0.93588 0.0
H2419 H 0.86769 0.90073 0.8804 0.0
H2420 H 0.83407 0.87068 0.82306 0.0
H2421 H 0.84959 0.88459 0.88707 0.0
H2422 H 0.88283 0.85919 0.82527 0.0
H2423 H 0.86725 0.84485 0.76436 0.0
C2424 C 0.89636 0.88271 0.97701 0.0
C2425 C 0.89485 0.89683 0.983 0.0
C2426 C 0.88756 0.87511 0.93766 0.0
C2427 C 0.87702 0.88137 0.90241 0.0
C2428 C 0.87559 0.89552 0.90745 0.0
C2429 C 0.8844 0.90316 0.94723 0.0
C2430 C 0.84465 0.86792 0.82359 0.0
C2431 C 0.84929 0.85648 0.78857 0.0
C2432 C 0.85362 0.87606 0.85968 0.0
C2433 C 0.86751 0.87305 0.86163 0.0
C2434 C 0.87218 0.86174 0.82587 0.0
C2435 C 0.86322 0.85356 0.79011 0.0
H2436 H 0.87974 0.16612 0.73357 0.0
H2437 H 0.84621 0.14073 0.67461 0.0
H2438 H 0.89537 0.15057 0.67938 0.0
H2439 H 0.86173 0.12561 0.61822 0.0
H2440 H 0.89294 0.09307 0.58768 0.0
H2441 H 0.87852 0.10904 0.64564 0.0
H2442 H 0.90283 0.14218 0.57252 0.0
H2443 H 0.91769 0.12612 0.51676 0.0
C2444 C 0.87565 0.1573 0.70884 0.0
C2445 C 0.86164 0.15472 0.70907 0.0
C2446 C 0.88464 0.14842 0.67718 0.0
C2447 C 0.87985 0.13673 0.64489 0.0
C2448 C 0.86583 0.13436 0.64364 0.0
C2449 C 0.85686 0.1432 0.67529 0.0
C2450 C 0.89543 0.10371 0.58476 0.0
C2451 C 0.90653 0.10823 0.54696 0.0
C2452 C 0.88699 0.11293 0.61735 0.0
C2453 C 0.88936 0.12694 0.61307 0.0
C2454 C 0.9007 0.13146 0.57711 0.0
C2455 C 0.90917 0.12223 0.54453 0.0
H2456 H 0.59725 0.10846 0.36837 0.0
H2457 H 0.60026 0.13451 0.54006 0.0
H2458 H 0.6115 0.12394 0.30578 0.0
H2459 H 0.61399 0.15033 0.47641 0.0
H2460 H 0.6514 0.16676 0.36745 0.0
H2461 H 0.6363 0.15214 0.4304 0.0
H2462 H 0.61203 0.14581 0.25476 0.0
H2463 H 0.62751 0.15989 0.19106 0.0
C2464 C 0.60089 0.1175 0.39282 0.0
C2465 C 0.5976 0.12015 0.45956 0.0
C2466 C 0.60894 0.1265 0.35655 0.0
C2467 C 0.61392 0.13843 0.3859 0.0
C2468 C 0.61048 0.14118 0.45235 0.0
C2469 C 0.60244 0.13216 0.48869 0.0
C2470 C 0.6429 0.16221 0.34205 0.0
C2471 C 0.64076 0.16451 0.27391 0.0
C2472 C 0.63412 0.15393 0.37845 0.0
C2473 C 0.62293 0.14775 0.34777 0.0
C2474 C 0.62064 0.15025 0.27992 0.0
C2475 C 0.62944 0.1585 0.24348 0.0
H2476 H 0.62105 0.85727 0.31345 0.0
H2477 H 0.64695 0.85098 0.1436 0.0
H2478 H 0.60703 0.87263 0.24836 0.0
H2479 H 0.63313 0.86663 0.0789 0.0
H2480 H 0.59623 0.88201 0.96346 0.0
H2481 H 0.61043 0.86717 0.03016 0.0
H2482 H 0.60735 0.89497 0.19497 0.0
H2483 H 0.5928 0.90968 0.12856 0.0
C2484 C 0.62377 0.85919 0.26225 0.0
C2485 C 0.63509 0.85281 0.2337 0.0
C2486 C 0.61581 0.86811 0.2251 0.0
C2487 C 0.61891 0.87084 0.15827 0.0
C2488 C 0.63036 0.86463 0.13 0.0
C2489 C 0.63837 0.85577 0.16731 0.0
C2490 C 0.59841 0.88489 0.01417 0.0
C2491 C 0.59328 0.89702 0.04074 0.0
C2492 C 0.60672 0.87646 0.05217 0.0
C2493 C 0.61009 0.87989 0.11788 0.0
C2494 C 0.60488 0.89197 0.14469 0.0
C2495 C 0.59662 0.90045 0.10648 0.0
H2496 H 0.6189 0.59164 0.56848 0.0
H2497 H 0.59808 0.62719 0.49688 0.0
H2498 H 0.63384 0.60611 0.63447 0.0
H2499 H 0.61325 0.64149 0.55947 0.0
H2500 H 0.63259 0.66311 0.73263 0.0
H2501 H 0.6179 0.64798 0.67077 0.0
H2502 H 0.65209 0.62249 0.62432 0.0
H2503 H 0.66672 0.63731 0.68908 0.0
C2504 C 0.61751 0.60249 0.56658 0.0
C2505 C 0.60729 0.60817 0.52681 0.0
C2506 C 0.62617 0.61081 0.60387 0.0
C2507 C 0.62476 0.625 0.60243 0.0
C2508 C 0.61455 0.63062 0.56264 0.0
C2509 C 0.60593 0.62236 0.52569 0.0
C2510 C 0.637 0.65424 0.70981 0.0
C2511 C 0.6509 0.6515 0.71611 0.0
C2512 C 0.62857 0.6456 0.6736 0.0
C2513 C 0.63379 0.63399 0.64224 0.0
C2514 C 0.64768 0.63124 0.64834 0.0
C2515 C 0.65613 0.63988 0.68476 0.0
H2516 H 0.66508 0.35379 0.86648 0.0
H2517 H 0.63838 0.35855 0.69839 0.0
H2518 H 0.65115 0.36939 0.93036 0.0
H2519 H 0.62412 0.37361 0.76317 0.0
H2520 H 0.60784 0.41014 0.87458 0.0
H2521 H 0.62321 0.39585 0.8108 0.0
H2522 H 0.62971 0.37087 0.98394 0.0
H2523 H 0.6149 0.38547 0.04812 0.0
C2524 C 0.65623 0.3581 0.84309 0.0
C2525 C 0.6529 0.3548 0.77713 0.0
C2526 C 0.64814 0.36698 0.88002 0.0
C2527 C 0.63646 0.37281 0.85212 0.0
C2528 C 0.63312 0.36949 0.7862 0.0
C2529 C 0.64121 0.36063 0.74925 0.0
C2530 C 0.61271 0.40174 0.89933 0.0
C2531 C 0.61 0.39895 0.96654 0.0
C2532 C 0.62141 0.39341 0.86248 0.0
C2533 C 0.62766 0.38209 0.89189 0.0
C2534 C 0.6252 0.37953 0.95953 0.0
C2535 C 0.61654 0.38784 0.99628 0.0
H2536 H 0.90699 0.41306 0.13041 0.0
H2537 H 0.90339 0.38535 0.96558 0.0
H2538 H 0.89206 0.39861 0.19647 0.0
H2539 H 0.88882 0.37078 0.03186 0.0
H2540 H 0.85234 0.35454 0.14462 0.0
H2541 H 0.86609 0.37038 0.0804 0.0
H2542 H 0.89219 0.37625 0.24985 0.0
H2543 H 0.87825 0.3607 0.31443 0.0
C2544 C 0.90304 0.40389 0.1083 0.0
C2545 C 0.90648 0.40034 0.04281 0.0
C2546 C 0.89456 0.39556 0.14628 0.0
C2547 C 0.88921 0.38353 0.11945 0.0
C2548 C 0.89262 0.38003 0.05388 0.0
C2549 C 0.90115 0.3883 0.01614 0.0
C2550 C 0.86089 0.35935 0.16845 0.0
C2551 C 0.86423 0.35627 0.23459 0.0
C2552 C 0.86886 0.36833 0.13143 0.0
C2553 C 0.88031 0.37453 0.1598 0.0
C2554 C 0.88342 0.37173 0.22652 0.0
C2555 C 0.8755 0.3627 0.26336 0.0
H2556 H 0.90725 0.5977 0.38503 0.0
H2557 H 0.89732 0.6223 0.55537 0.0
H2558 H 0.89157 0.61092 0.31728 0.0
H2559 H 0.88207 0.63575 0.48757 0.0
H2560 H 0.84732 0.65117 0.36375 0.0
H2561 H 0.86082 0.63531 0.42851 0.0
H2562 H 0.89024 0.63355 0.27017 0.0
H2563 H 0.87651 0.64901 0.20449 0.0
C2564 C 0.90166 0.60585 0.40817 0.0
C2565 C 0.90365 0.60899 0.4756 0.0
C2566 C 0.89277 0.61353 0.36918 0.0
C2567 C 0.88557 0.62446 0.3968 0.0
C2568 C 0.88731 0.62734 0.46464 0.0
C2569 C 0.89622 0.61972 0.50343 0.0
C2570 C 0.85655 0.64724 0.34222 0.0
C2571 C 0.86084 0.65149 0.27895 0.0
C2572 C 0.86438 0.63824 0.37971 0.0
C2573 C 0.8767 0.63321 0.35488 0.0
C2574 C 0.88078 0.63712 0.29079 0.0
C2575 C 0.87297 0.64614 0.25337 0.0
H2576 H 0.35716 0.34011 0.3788 0.0
H2577 H 0.38151 0.34515 0.20236 0.0
H2578 H 0.3718 0.35603 0.43788 0.0
H2579 H 0.39624 0.36073 0.26156 0.0
H2580 H 0.40934 0.40014 0.36646 0.0
H2581 H 0.39506 0.38383 0.30784 0.0
H2582 H 0.39512 0.35795 0.48065 0.0
H2583 H 0.40906 0.37434 0.53949 0.0
C2584 C 0.36567 0.34453 0.35278 0.0
C2585 C 0.36816 0.34128 0.28596 0.0
C2586 C 0.37411 0.35359 0.38668 0.0
C2587 C 0.38517 0.35968 0.35432 0.0
C2588 C 0.38773 0.35633 0.28773 0.0
C2589 C 0.37936 0.34722 0.25404 0.0
C2590 C 0.40629 0.39098 0.39183 0.0
C2591 C 0.41043 0.38853 0.45746 0.0
C2592 C 0.39819 0.38158 0.35816 0.0
C2593 C 0.39395 0.36958 0.38962 0.0
C2594 C 0.39811 0.36713 0.45519 0.0
C2595 C 0.40627 0.37647 0.48862 0.0
H2596 H 0.3485 0.64713 0.18075 0.0
H2597 H 0.38491 0.66822 0.23849 0.0
H2598 H 0.36192 0.63186 0.1119 0.0
H2599 H 0.39833 0.6527 0.17182 0.0
H2600 H 0.4176 0.63005 0.99848 0.0
H2601 H 0.40353 0.64623 0.0586 0.0
H2602 H 0.37791 0.61354 0.12568 0.0
H2603 H 0.39164 0.59749 0.06386 0.0
C2604 C 0.35934 0.64856 0.17863 0.0
C2605 C 0.36559 0.65889 0.21569 0.0
C2606 C 0.36707 0.63971 0.13964 0.0
C2607 C 0.38124 0.64098 0.13643 0.0
C2608 C 0.38745 0.65146 0.17253 0.0
C2609 C 0.37974 0.66028 0.21159 0.0
C2610 C 0.4089 0.62632 0.02547 0.0
C2611 C 0.40585 0.61241 0.02643 0.0
C2612 C 0.40088 0.6356 0.06053 0.0
C2613 C 0.38957 0.63121 0.09723 0.0
C2614 C 0.38644 0.61733 0.09749 0.0
C2615 C 0.39446 0.60807 0.06266 0.0
H2616 H 0.10021 0.62582 0.00964 0.0
H2617 H 0.12122 0.59034 0.93856 0.0
H2618 H 0.11552 0.64018 0.94793 0.0
H2619 H 0.13635 0.60487 0.87366 0.0
H2620 H 0.16929 0.63632 0.82094 0.0
H2621 H 0.15459 0.62143 0.8854 0.0
H2622 H 0.12032 0.64658 0.83616 0.0
H2623 H 0.13505 0.66172 0.77437 0.0
C2624 C 0.10814 0.62102 0.98115 0.0
C2625 C 0.10951 0.60684 0.97986 0.0
C2626 C 0.11684 0.62932 0.94475 0.0
C2627 C 0.12716 0.62373 0.90544 0.0
C2628 C 0.12858 0.60954 0.9039 0.0
C2629 C 0.11983 0.60119 0.94055 0.0
C2630 C 0.15866 0.6388 0.82462 0.0
C2631 C 0.1534 0.6503 0.79243 0.0
C2632 C 0.15019 0.63013 0.86086 0.0
C2633 C 0.13625 0.63277 0.86603 0.0
C2634 C 0.13102 0.64429 0.83401 0.0
C2635 C 0.13947 0.65294 0.79788 0.0
H2636 H 0.16023 0.35047 0.64055 0.0
H2637 H 0.13305 0.35451 0.80731 0.0
H2638 H 0.14625 0.36589 0.5764 0.0
H2639 H 0.11869 0.36948 0.74198 0.0
H2640 H 0.10305 0.40651 0.62934 0.0
H2641 H 0.11784 0.39191 0.69465 0.0
H2642 H 0.12495 0.36707 0.5216 0.0
H2643 H 0.11071 0.38196 0.45596 0.0
C2644 C 0.15126 0.35461 0.6636 0.0
C2645 C 0.14782 0.35119 0.72931 0.0
C2646 C 0.14313 0.36337 0.62645 0.0
C2647 C 0.13129 0.36897 0.6538 0.0
C2648 C 0.1278 0.36551 0.71944 0.0
C2649 C 0.13596 0.35674 0.75668 0.0
C2650 C 0.10791 0.39806 0.60498 0.0
C2651 C 0.1056 0.39543 0.53725 0.0
C2652 C 0.11627 0.38956 0.6427 0.0
C2653 C 0.12257 0.37823 0.61366 0.0
C2654 C 0.1204 0.37575 0.5457 0.0
C2655 C 0.11208 0.38423 0.50808 0.0
loop_
_geom_bond_atom_site_label_1
_geom_bond_atom_site_label_2
_geom_bond_distance
_geom_bond_site_symmetry_2
_ccdc_geom_bond_type
Co0 N4 2.148 . S
Co0 N10 2.128 . S
Co0 N20 2.194 . S
Co0 O25 2.351 . S
Co0 O26 2.155 . S
Co0 O27 2.096 . S
C1 N4 1.301 . S
C1 N5 1.328 . S
C1 H6 0.930 . S
C2 C3 1.333 . S
C2 N4 1.317 . S
C2 H7 0.930 . S
C3 C2 1.333 . S
C3 N5 1.350 . S
C3 H29 0.931 . S
N4 Co0 2.148 . S
N4 C1 1.301 . S
N4 C2 1.317 . S
N5 C1 1.328 . S
N5 C3 1.350 . S
H6 C1 0.930 . S
H7 C2 0.930 . S
C8 O9 1.224 . S
C8 O27 1.247 . S
O9 C8 1.224 . S
N10 Co0 2.128 . S
N10 C11 1.355 . S
N10 C13 1.311 . S
C11 N10 1.355 . S
C11 C12 1.363 . S
C11 H23 0.929 . S
C12 C11 1.363 . S
C12 N14 1.375 . S
C12 H30 0.931 . S
C13 N10 1.311 . S
C13 N14 1.347 . S
C13 H24 0.929 . S
N14 C12 1.375 . S
N14 C13 1.347 . S
C15 C18 1.365 . S
C15 N20 1.328 . S
C15 H21 0.929 . S
C16 C17 1.362 . S
C16 C19 1.378 . S
C16 H31 0.929 . S
C17 C16 1.362 . S
C17 C18 1.366 . S
C18 C15 1.365 . S
C18 C17 1.366 . S
C18 H32 0.930 . S
C19 C16 1.378 . S
C19 N20 1.315 . S
C19 H22 0.930 . S
N20 Co0 2.194 . S
N20 C15 1.328 . S
N20 C19 1.315 . S
H21 C15 0.929 . S
H22 C19 0.930 . S
H23 C11 0.929 . S
H24 C13 0.929 . S
O25 Co0 2.351 . S
O25 C28 1.244 . S
O26 Co0 2.155 . S
O26 C28 1.240 . S
O27 Co0 2.096 . S
O27 C8 1.247 . S
C28 O25 1.244 . S
C28 O26 1.240 . S
H29 C3 0.931 . S
H30 C12 0.931 . S
H31 C16 0.929 . S
H32 C18 0.930 . S
Co33 N37 2.148 . S
Co33 N43 2.128 . S
Co33 N53 2.194 . S
Co33 O58 2.351 . S
Co33 O59 2.155 . S
Co33 O60 2.096 . S
C34 N37 1.301 . S
C34 N38 1.328 . S
C34 H39 0.930 . S
C35 C36 1.333 . S
C35 N37 1.317 . S
C35 H40 0.930 . S
C36 C35 1.333 . S
C36 N38 1.350 . S
C36 H62 0.931 . S
N37 Co33 2.148 . S
N37 C34 1.301 . S
N37 C35 1.317 . S
N38 C34 1.328 . S
N38 C36 1.350 . S
H39 C34 0.930 . S
H40 C35 0.930 . S
C41 O42 1.224 . S
C41 O60 1.247 . S
O42 C41 1.224 . S
N43 Co33 2.128 . S
N43 C44 1.355 . S
N43 C46 1.311 . S
C44 N43 1.355 . S
C44 C45 1.363 . S
C44 H56 0.929 . S
C45 C44 1.363 . S
C45 N47 1.375 . S
C45 H63 0.931 . S
C46 N43 1.311 . S
C46 N47 1.347 . S
C46 H57 0.929 . S
N47 C45 1.375 . S
N47 C46 1.347 . S
C48 C51 1.365 . S
C48 N53 1.328 . S
C48 H54 0.929 . S
C49 C50 1.362 . S
C49 C52 1.378 . S
C49 H64 0.929 . S
C50 C49 1.362 . S
C50 C51 1.366 . S
C51 C48 1.365 . S
C51 C50 1.366 . S
C51 H65 0.930 . S
C52 C49 1.378 . S
C52 N53 1.315 . S
C52 H55 0.930 . S
N53 Co33 2.194 . S
N53 C48 1.328 . S
N53 C52 1.315 . S
H54 C48 0.929 . S
H55 C52 0.930 . S
H56 C44 0.929 . S
H57 C46 0.929 . S
O58 Co33 2.351 . S
O58 C61 1.244 . S
O59 Co33 2.155 . S
O59 C61 1.240 . S
O60 Co33 2.096 . S
O60 C41 1.247 . S
C61 O58 1.244 . S
C61 O59 1.240 . S
H62 C36 0.931 . S
H63 C45 0.931 . S
H64 C49 0.929 . S
H65 C51 0.930 . S
Co66 N70 2.148 1_556 S
Co66 N76 2.128 . S
Co66 N86 2.194 . S
Co66 O91 2.351 . S
Co66 O92 2.155 . S
Co66 O93 2.096 . S
C67 N70 1.301 . S
C67 N71 1.328 . S
C67 H72 0.930 . S
C68 C69 1.333 . S
C68 N70 1.317 . S
C68 H73 0.930 . S
C69 C68 1.333 . S
C69 N71 1.350 . S
C69 H95 0.931 . S
N70 Co66 2.148 1_554 S
N70 C67 1.301 . S
N70 C68 1.317 . S
N71 C67 1.328 . S
N71 C69 1.350 . S
H72 C67 0.930 . S
H73 C68 0.930 . S
C74 O75 1.224 . S
C74 O93 1.247 1_554 S
O75 C74 1.224 . S
N76 Co66 2.128 . S
N76 C77 1.355 . S
N76 C79 1.311 . S
C77 N76 1.355 . S
C77 C78 1.363 . S
C77 H89 0.929 . S
C78 C77 1.363 . S
C78 N80 1.375 . S
C78 H96 0.931 . S
C79 N76 1.311 . S
C79 N80 1.347 . S
C79 H90 0.929 . S
N80 C78 1.375 . S
N80 C79 1.347 . S
C81 C84 1.365 . S
C81 N86 1.328 . S
C81 H87 0.929 . S
C82 C83 1.362 1_554 S
C82 C85 1.378 . S
C82 H97 0.929 . S
C83 C82 1.362 1_556 S
C83 C84 1.366 . S
C84 C81 1.365 . S
C84 C83 1.366 . S
C84 H98 0.930 . S
C85 C82 1.378 . S
C85 N86 1.315 1_554 S
C85 H88 0.930 . S
N86 Co66 2.194 . S
N86 C81 1.328 . S
N86 C85 1.315 1_556 S
H87 C81 0.929 . S
H88 C85 0.930 . S
H89 C77 0.929 . S
H90 C79 0.929 . S
O91 Co66 2.351 . S
O91 C94 1.244 . S
O92 Co66 2.155 . S
O92 C94 1.240 . S
O93 Co66 2.096 . S
O93 C74 1.247 1_556 S
C94 O91 1.244 . S
C94 O92 1.240 . S
H95 C69 0.931 . S
H96 C78 0.931 . S
H97 C82 0.929 . S
H98 C84 0.930 . S
Co99 N103 2.148 . S
Co99 N109 2.128 . S
Co99 N119 2.194 . S
Co99 O124 2.351 . S
Co99 O125 2.155 . S
Co99 O126 2.096 . S
C100 N103 1.301 . S
C100 N104 1.328 . S
C100 H105 0.930 . S
C101 C102 1.333 . S
C101 N103 1.317 . S
C101 H106 0.930 . S
C102 C101 1.333 . S
C102 N104 1.350 . S
C102 H128 0.931 . S
N103 Co99 2.148 . S
N103 C100 1.301 . S
N103 C101 1.317 . S
N104 C100 1.328 . S
N104 C102 1.350 . S
H105 C100 0.930 . S
H106 C101 0.930 . S
C107 O108 1.224 . S
C107 O126 1.247 . S
O108 C107 1.224 . S
N109 Co99 2.128 . S
N109 C110 1.355 . S
N109 C112 1.311 . S
C110 N109 1.355 . S
C110 C111 1.363 . S
C110 H122 0.929 . S
C111 C110 1.363 . S
C111 N113 1.375 . S
C111 H129 0.931 . S
C112 N109 1.311 . S
C112 N113 1.347 . S
C112 H123 0.929 . S
N113 C111 1.375 . S
N113 C112 1.347 . S
C114 C117 1.365 . S
C114 N119 1.328 . S
C114 H120 0.929 . S
C115 C116 1.362 . S
C115 C118 1.378 . S
C115 H130 0.929 . S
C116 C115 1.362 . S
C116 C117 1.366 . S
C117 C114 1.365 . S
C117 C116 1.366 . S
C117 H131 0.930 . S
C118 C115 1.378 . S
C118 N119 1.315 . S
C118 H121 0.930 . S
N119 Co99 2.194 . S
N119 C114 1.328 . S
N119 C118 1.315 . S
H120 C114 0.929 . S
H121 C118 0.930 . S
H122 C110 0.929 . S
H123 C112 0.929 . S
O124 Co99 2.351 . S
O124 C127 1.244 . S
O125 Co99 2.155 . S
O125 C127 1.240 . S
O126 Co99 2.096 . S
O126 C107 1.247 . S
C127 O124 1.244 . S
C127 O125 1.240 . S
H128 C102 0.931 . S
H129 C111 0.931 . S
H130 C115 0.929 . S
H131 C117 0.930 . S
Co132 N136 2.148 1_554 S
Co132 N142 2.128 . S
Co132 N152 2.194 . S
Co132 O157 2.351 . S
Co132 O158 2.155 . S
Co132 O159 2.096 . S
C133 N136 1.301 . S
C133 N137 1.328 . S
C133 H138 0.930 . S
C134 C135 1.333 . S
C134 N136 1.317 . S
C134 H139 0.930 . S
C135 C134 1.333 . S
C135 N137 1.350 . S
C135 H161 0.931 . S
N136 Co132 2.148 1_556 S
N136 C133 1.301 . S
N136 C134 1.317 . S
N137 C133 1.328 . S
N137 C135 1.350 . S
H138 C133 0.930 . S
H139 C134 0.930 . S
C140 O141 1.224 . S
C140 O159 1.247 1_556 S
O141 C140 1.224 . S
N142 Co132 2.128 . S
N142 C143 1.355 . S
N142 C145 1.311 . S
C143 N142 1.355 . S
C143 C144 1.363 . S
C143 H155 0.929 . S
C144 C143 1.363 . S
C144 N146 1.375 . S
C144 H162 0.931 . S
C145 N142 1.311 . S
C145 N146 1.347 . S
C145 H156 0.929 . S
N146 C144 1.375 . S
N146 C145 1.347 . S
C147 C150 1.365 . S
C147 N152 1.328 . S
C147 H153 0.929 . S
C148 C149 1.362 1_556 S
C148 C151 1.378 . S
C148 H163 0.929 . S
C149 C148 1.362 1_554 S
C149 C150 1.366 . S
C150 C147 1.365 . S
C150 C149 1.366 . S
C150 H164 0.930 . S
C151 C148 1.378 . S
C151 N152 1.315 1_556 S
C151 H154 0.930 . S
N152 Co132 2.194 . S
N152 C147 1.328 . S
N152 C151 1.315 1_554 S
H153 C147 0.929 . S
H154 C151 0.930 . S
H155 C143 0.929 . S
H156 C145 0.929 . S
O157 Co132 2.351 . S
O157 C160 1.244 . S
O158 Co132 2.155 . S
O158 C160 1.240 . S
O159 Co132 2.096 . S
O159 C140 1.247 1_554 S
C160 O157 1.244 . S
C160 O158 1.240 . S
H161 C135 0.931 . S
H162 C144 0.931 . S
H163 C148 0.929 . S
H164 C150 0.930 . S
Co165 N169 2.148 . S
Co165 N175 2.128 . S
Co165 N185 2.194 . S
Co165 O190 2.351 . S
Co165 O191 2.155 . S
Co165 O192 2.096 . S
C166 N169 1.301 . S
C166 N170 1.328 . S
C166 H171 0.930 . S
C167 C168 1.333 . S
C167 N169 1.317 . S
C167 H172 0.930 . S
C168 C167 1.333 . S
C168 N170 1.350 . S
C168 H194 0.931 . S
N169 Co165 2.148 . S
N169 C166 1.301 . S
N169 C167 1.317 . S
N170 C166 1.328 . S
N170 C168 1.350 . S
H171 C166 0.930 . S
H172 C167 0.930 . S
C173 O174 1.224 . S
C173 O192 1.247 . S
O174 C173 1.224 . S
N175 Co165 2.128 . S
N175 C176 1.355 . S
N175 C178 1.311 . S
C176 N175 1.355 . S
C176 C177 1.363 . S
C176 H188 0.929 . S
C177 C176 1.363 . S
C177 N179 1.375 . S
C177 H195 0.931 . S
C178 N175 1.311 . S
C178 N179 1.347 . S
C178 H189 0.929 . S
N179 C177 1.375 . S
N179 C178 1.347 . S
C180 C183 1.365 . S
C180 N185 1.328 . S
C180 H186 0.929 . S
C181 C182 1.362 . S
C181 C184 1.378 . S
C181 H196 0.929 . S
C182 C181 1.362 . S
C182 C183 1.366 . S
C183 C180 1.365 . S
C183 C182 1.366 . S
C183 H197 0.930 . S
C184 C181 1.378 . S
C184 N185 1.315 . S
C184 H187 0.930 . S
N185 Co165 2.194 . S
N185 C180 1.328 . S
N185 C184 1.315 . S
H186 C180 0.929 . S
H187 C184 0.930 . S
H188 C176 0.929 . S
H189 C178 0.929 . S
O190 Co165 2.351 . S
O190 C193 1.244 . S
O191 Co165 2.155 . S
O191 C193 1.240 . S
O192 Co165 2.096 . S
O192 C173 1.247 . S
C193 O190 1.244 . S
C193 O191 1.240 . S
H194 C168 0.931 . S
H195 C177 0.931 . S
H196 C181 0.929 . S
H197 C183 0.930 . S
Co198 N202 2.148 . S
Co198 N208 2.128 . S
Co198 N218 2.194 . S
Co198 O223 2.351 . S
Co198 O224 2.155 . S
Co198 O225 2.096 . S
C199 N202 1.301 . S
C199 N203 1.328 . S
C199 H204 0.930 . S
C200 C201 1.333 . S
C200 N202 1.317 . S
C200 H205 0.930 . S
C201 C200 1.333 . S
C201 N203 1.350 . S
C201 H227 0.931 . S
N202 Co198 2.148 . S
N202 C199 1.301 . S
N202 C200 1.317 . S
N203 C199 1.328 . S
N203 C201 1.350 . S
H204 C199 0.930 . S
H205 C200 0.930 . S
C206 O207 1.224 . S
C206 O225 1.247 . S
O207 C206 1.224 . S
N208 Co198 2.128 . S
N208 C209 1.355 . S
N208 C211 1.311 . S
C209 N208 1.355 . S
C209 C210 1.363 . S
C209 H221 0.929 . S
C210 C209 1.363 . S
C210 N212 1.375 . S
C210 H228 0.931 . S
C211 N208 1.311 . S
C211 N212 1.347 . S
C211 H222 0.929 . S
N212 C210 1.375 . S
N212 C211 1.347 . S
C213 C216 1.365 . S
C213 N218 1.328 . S
C213 H219 0.929 . S
C214 C215 1.362 . S
C214 C217 1.378 . S
C214 H229 0.929 . S
C215 C214 1.362 . S
C215 C216 1.366 . S
C216 C213 1.365 . S
C216 C215 1.366 . S
C216 H230 0.930 . S
C217 C214 1.378 . S
C217 N218 1.315 . S
C217 H220 0.930 . S
N218 Co198 2.194 . S
N218 C213 1.328 . S
N218 C217 1.315 . S
H219 C213 0.929 . S
H220 C217 0.930 . S
H221 C209 0.929 . S
H222 C211 0.929 . S
O223 Co198 2.351 . S
O223 C226 1.244 . S
O224 Co198 2.155 . S
O224 C226 1.240 . S
O225 Co198 2.096 . S
O225 C206 1.247 . S
C226 O223 1.244 . S
C226 O224 1.240 . S
H227 C201 0.931 . S
H228 C210 0.931 . S
H229 C214 0.929 . S
H230 C216 0.930 . S
Co231 N235 2.148 . S
Co231 N241 2.128 . S
Co231 N251 2.194 . S
Co231 O256 2.351 . S
Co231 O257 2.155 . S
Co231 O258 2.096 . S
C232 N235 1.301 . S
C232 N236 1.328 . S
C232 H237 0.930 . S
C233 C234 1.333 . S
C233 N235 1.317 . S
C233 H238 0.930 . S
C234 C233 1.333 . S
C234 N236 1.350 . S
C234 H260 0.931 . S
N235 Co231 2.148 . S
N235 C232 1.301 . S
N235 C233 1.317 . S
N236 C232 1.328 . S
N236 C234 1.350 . S
H237 C232 0.930 . S
H238 C233 0.930 . S
C239 O240 1.224 . S
C239 O258 1.247 . S
O240 C239 1.224 . S
N241 Co231 2.128 . S
N241 C242 1.355 . S
N241 C244 1.311 . S
C242 N241 1.355 . S
C242 C243 1.363 . S
C242 H254 0.929 . S
C243 C242 1.363 . S
C243 N245 1.375 . S
C243 H261 0.931 . S
C244 N241 1.311 . S
C244 N245 1.347 . S
C244 H255 0.929 . S
N245 C243 1.375 . S
N245 C244 1.347 . S
C246 C249 1.365 . S
C246 N251 1.328 . S
C246 H252 0.929 . S
C247 C248 1.362 . S
C247 C250 1.378 . S
C247 H262 0.929 . S
C248 C247 1.362 . S
C248 C249 1.366 . S
C249 C246 1.365 . S
C249 C248 1.366 . S
C249 H263 0.930 . S
C250 C247 1.378 . S
C250 N251 1.315 . S
C250 H253 0.930 . S
N251 Co231 2.194 . S
N251 C246 1.328 . S
N251 C250 1.315 . S
H252 C246 0.929 . S
H253 C250 0.930 . S
H254 C242 0.929 . S
H255 C244 0.929 . S
O256 Co231 2.351 . S
O256 C259 1.244 . S
O257 Co231 2.155 . S
O257 C259 1.240 . S
O258 Co231 2.096 . S
O258 C239 1.247 . S
C259 O256 1.244 . S
C259 O257 1.240 . S
H260 C234 0.931 . S
H261 C243 0.931 . S
H262 C247 0.929 . S
H263 C249 0.930 . S
Co264 N268 2.148 . S
Co264 N274 2.128 . S
Co264 N284 2.194 . S
Co264 O289 2.351 . S
Co264 O290 2.155 . S
Co264 O291 2.096 . S
C265 N268 1.301 . S
C265 N269 1.328 . S
C265 H270 0.930 . S
C266 C267 1.333 . S
C266 N268 1.317 . S
C266 H271 0.930 . S
C267 C266 1.333 . S
C267 N269 1.350 . S
C267 H293 0.931 . S
N268 Co264 2.148 . S
N268 C265 1.301 . S
N268 C266 1.317 . S
N269 C265 1.328 . S
N269 C267 1.350 . S
H270 C265 0.930 . S
H271 C266 0.930 . S
C272 O273 1.224 . S
C272 O291 1.247 . S
O273 C272 1.224 . S
N274 Co264 2.128 . S
N274 C275 1.355 . S
N274 C277 1.311 . S
C275 N274 1.355 . S
C275 C276 1.363 . S
C275 H287 0.929 . S
C276 C275 1.363 . S
C276 N278 1.375 . S
C276 H294 0.931 . S
C277 N274 1.311 . S
C277 N278 1.347 . S
C277 H288 0.929 . S
N278 C276 1.375 . S
N278 C277 1.347 . S
C279 C282 1.365 . S
C279 N284 1.328 . S
C279 H285 0.929 . S
C280 C281 1.362 . S
C280 C283 1.378 . S
C280 H295 0.929 . S
C281 C280 1.362 . S
C281 C282 1.366 . S
C282 C279 1.365 . S
C282 C281 1.366 . S
C282 H296 0.930 . S
C283 C280 1.378 . S
C283 N284 1.315 . S
C283 H286 0.930 . S
N284 Co264 2.194 . S
N284 C279 1.328 . S
N284 C283 1.315 . S
H285 C279 0.929 . S
H286 C283 0.930 . S
H287 C275 0.929 . S
H288 C277 0.929 . S
O289 Co264 2.351 . S
O289 C292 1.244 . S
O290 Co264 2.155 . S
O290 C292 1.240 . S
O291 Co264 2.096 . S
O291 C272 1.247 . S
C292 O289 1.244 . S
C292 O290 1.240 . S
H293 C267 0.931 . S
H294 C276 0.931 . S
H295 C280 0.929 . S
H296 C282 0.930 . S
Co297 N301 2.148 . S
Co297 N307 2.128 . S
Co297 N317 2.194 . S
Co297 O322 2.351 . S
Co297 O323 2.155 . S
Co297 O324 2.096 . S
C298 N301 1.301 . S
C298 N302 1.328 . S
C298 H303 0.930 . S
C299 C300 1.333 . S
C299 N301 1.317 . S
C299 H304 0.930 . S
C300 C299 1.333 . S
C300 N302 1.350 . S
C300 H326 0.931 . S
N301 Co297 2.148 . S
N301 C298 1.301 . S
N301 C299 1.317 . S
N302 C298 1.328 . S
N302 C300 1.350 . S
H303 C298 0.930 . S
H304 C299 0.930 . S
C305 O306 1.224 . S
C305 O324 1.247 . S
O306 C305 1.224 . S
N307 Co297 2.128 . S
N307 C308 1.355 . S
N307 C310 1.311 . S
C308 N307 1.355 . S
C308 C309 1.363 . S
C308 H320 0.929 . S
C309 C308 1.363 . S
C309 N311 1.375 . S
C309 H327 0.931 . S
C310 N307 1.311 . S
C310 N311 1.347 . S
C310 H321 0.929 . S
N311 C309 1.375 . S
N311 C310 1.347 . S
C312 C315 1.365 . S
C312 N317 1.328 . S
C312 H318 0.929 . S
C313 C314 1.362 . S
C313 C316 1.378 . S
C313 H328 0.929 . S
C314 C313 1.362 . S
C314 C315 1.366 . S
C315 C312 1.365 . S
C315 C314 1.366 . S
C315 H329 0.930 . S
C316 C313 1.378 . S
C316 N317 1.315 . S
C316 H319 0.930 . S
N317 Co297 2.194 . S
N317 C312 1.328 . S
N317 C316 1.315 . S
H318 C312 0.929 . S
H319 C316 0.930 . S
H320 C308 0.929 . S
H321 C310 0.929 . S
O322 Co297 2.351 . S
O322 C325 1.244 . S
O323 Co297 2.155 . S
O323 C325 1.240 . S
O324 Co297 2.096 . S
O324 C305 1.247 . S
C325 O322 1.244 . S
C325 O323 1.240 . S
H326 C300 0.931 . S
H327 C309 0.931 . S
H328 C313 0.929 . S
H329 C315 0.930 . S
Co330 N334 2.148 1_554 S
Co330 N340 2.128 . S
Co330 N350 2.194 . S
Co330 O355 2.351 . S
Co330 O356 2.155 . S
Co330 O357 2.096 . S
C331 N334 1.301 . S
C331 N335 1.328 . S
C331 H336 0.930 . S
C332 C333 1.333 . S
C332 N334 1.317 . S
C332 H337 0.930 . S
C333 C332 1.333 . S
C333 N335 1.350 . S
C333 H359 0.931 . S
N334 Co330 2.148 1_556 S
N334 C331 1.301 . S
N334 C332 1.317 . S
N335 C331 1.328 . S
N335 C333 1.350 . S
H336 C331 0.930 . S
H337 C332 0.930 . S
C338 O339 1.224 . S
C338 O357 1.247 1_556 S
O339 C338 1.224 . S
N340 Co330 2.128 . S
N340 C341 1.355 . S
N340 C343 1.311 . S
C341 N340 1.355 . S
C341 C342 1.363 . S
C341 H353 0.929 . S
C342 C341 1.363 . S
C342 N344 1.375 . S
C342 H360 0.931 . S
C343 N340 1.311 . S
C343 N344 1.347 . S
C343 H354 0.929 . S
N344 C342 1.375 . S
N344 C343 1.347 . S
C345 C348 1.365 . S
C345 N350 1.328 . S
C345 H351 0.929 . S
C346 C347 1.362 1_556 S
C346 C349 1.378 . S
C346 H361 0.929 . S
C347 C346 1.362 1_554 S
C347 C348 1.366 . S
C348 C345 1.365 . S
C348 C347 1.366 . S
C348 H362 0.930 . S
C349 C346 1.378 . S
C349 N350 1.315 1_556 S
C349 H352 0.930 . S
N350 Co330 2.194 . S
N350 C345 1.328 . S
N350 C349 1.315 1_554 S
H351 C345 0.929 . S
H352 C349 0.930 . S
H353 C341 0.929 . S
H354 C343 0.929 . S
O355 Co330 2.351 . S
O355 C358 1.244 . S
O356 Co330 2.155 . S
O356 C358 1.240 . S
O357 Co330 2.096 . S
O357 C338 1.247 1_554 S
C358 O355 1.244 . S
C358 O356 1.240 . S
H359 C333 0.931 . S
H360 C342 0.931 . S
H361 C346 0.929 . S
H362 C348 0.930 . S
Co363 N367 2.148 . S
Co363 N373 2.128 . S
Co363 N383 2.194 . S
Co363 O388 2.351 . S
Co363 O389 2.155 . S
Co363 O390 2.096 . S
C364 N367 1.301 . S
C364 N368 1.328 . S
C364 H369 0.930 . S
C365 C366 1.333 . S
C365 N367 1.317 . S
C365 H370 0.930 . S
C366 C365 1.333 . S
C366 N368 1.350 . S
C366 H392 0.931 . S
N367 Co363 2.148 . S
N367 C364 1.301 . S
N367 C365 1.317 . S
N368 C364 1.328 . S
N368 C366 1.350 . S
H369 C364 0.930 . S
H370 C365 0.930 . S
C371 O372 1.224 . S
C371 O390 1.247 . S
O372 C371 1.224 . S
N373 Co363 2.128 . S
N373 C374 1.355 . S
N373 C376 1.311 . S
C374 N373 1.355 . S
C374 C375 1.363 . S
C374 H386 0.929 . S
C375 C374 1.363 . S
C375 N377 1.375 . S
C375 H393 0.931 . S
C376 N373 1.311 . S
C376 N377 1.347 . S
C376 H387 0.929 . S
N377 C375 1.375 . S
N377 C376 1.347 . S
C378 C381 1.365 . S
C378 N383 1.328 . S
C378 H384 0.929 . S
C379 C380 1.362 . S
C379 C382 1.378 . S
C379 H394 0.929 . S
C380 C379 1.362 . S
C380 C381 1.366 . S
C381 C378 1.365 . S
C381 C380 1.366 . S
C381 H395 0.930 . S
C382 C379 1.378 . S
C382 N383 1.315 . S
C382 H385 0.930 . S
N383 Co363 2.194 . S
N383 C378 1.328 . S
N383 C382 1.315 . S
H384 C378 0.929 . S
H385 C382 0.930 . S
H386 C374 0.929 . S
H387 C376 0.929 . S
O388 Co363 2.351 . S
O388 C391 1.244 . S
O389 Co363 2.155 . S
O389 C391 1.240 . S
O390 Co363 2.096 . S
O390 C371 1.247 . S
C391 O388 1.244 . S
C391 O389 1.240 . S
H392 C366 0.931 . S
H393 C375 0.931 . S
H394 C379 0.929 . S
H395 C381 0.930 . S
Co396 N400 2.148 1_556 S
Co396 N406 2.128 . S
Co396 N416 2.194 . S
Co396 O421 2.351 . S
Co396 O422 2.155 . S
Co396 O423 2.096 . S
C397 N400 1.301 . S
C397 N401 1.328 . S
C397 H402 0.930 . S
C398 C399 1.333 . S
C398 N400 1.317 . S
C398 H403 0.930 . S
C399 C398 1.333 . S
C399 N401 1.350 . S
C399 H425 0.931 . S
N400 Co396 2.148 1_554 S
N400 C397 1.301 . S
N400 C398 1.317 . S
N401 C397 1.328 . S
N401 C399 1.350 . S
H402 C397 0.930 . S
H403 C398 0.930 . S
C404 O405 1.224 . S
C404 O423 1.247 1_554 S
O405 C404 1.224 . S
N406 Co396 2.128 . S
N406 C407 1.355 . S
N406 C409 1.311 . S
C407 N406 1.355 . S
C407 C408 1.363 . S
C407 H419 0.929 . S
C408 C407 1.363 . S
C408 N410 1.375 . S
C408 H426 0.931 . S
C409 N406 1.311 . S
C409 N410 1.347 . S
C409 H420 0.929 . S
N410 C408 1.375 . S
N410 C409 1.347 . S
C411 C414 1.365 . S
C411 N416 1.328 . S
C411 H417 0.929 . S
C412 C413 1.362 1_554 S
C412 C415 1.378 . S
C412 H427 0.929 . S
C413 C412 1.362 1_556 S
C413 C414 1.366 . S
C414 C411 1.365 . S
C414 C413 1.366 . S
C414 H428 0.930 . S
C415 C412 1.378 . S
C415 N416 1.315 1_554 S
C415 H418 0.930 . S
N416 Co396 2.194 . S
N416 C411 1.328 . S
N416 C415 1.315 1_556 S
H417 C411 0.929 . S
H418 C415 0.930 . S
H419 C407 0.929 . S
H420 C409 0.929 . S
O421 Co396 2.351 . S
O421 C424 1.244 . S
O422 Co396 2.155 . S
O422 C424 1.240 . S
O423 Co396 2.096 . S
O423 C404 1.247 1_556 S
C424 O421 1.244 . S
C424 O422 1.240 . S
H425 C399 0.931 . S
H426 C408 0.931 . S
H427 C412 0.929 . S
H428 C414 0.930 . S
Co429 N433 2.148 . S
Co429 N439 2.128 . S
Co429 N449 2.194 . S
Co429 O454 2.351 . S
Co429 O455 2.155 . S
Co429 O456 2.096 . S
C430 N433 1.301 . S
C430 N434 1.328 . S
C430 H435 0.930 . S
C431 C432 1.333 . S
C431 N433 1.317 . S
C431 H436 0.930 . S
C432 C431 1.333 . S
C432 N434 1.350 . S
C432 H458 0.931 . S
N433 Co429 2.148 . S
N433 C430 1.301 . S
N433 C431 1.317 . S
N434 C430 1.328 . S
N434 C432 1.350 . S
H435 C430 0.930 . S
H436 C431 0.930 . S
C437 O438 1.224 . S
C437 O456 1.247 . S
O438 C437 1.224 . S
N439 Co429 2.128 . S
N439 C440 1.355 . S
N439 C442 1.311 . S
C440 N439 1.355 . S
C440 C441 1.363 . S
C440 H452 0.929 . S
C441 C440 1.363 . S
C441 N443 1.375 . S
C441 H459 0.931 . S
C442 N439 1.311 . S
C442 N443 1.347 . S
C442 H453 0.929 . S
N443 C441 1.375 . S
N443 C442 1.347 . S
C444 C447 1.365 . S
C444 N449 1.328 . S
C444 H450 0.929 . S
C445 C446 1.362 . S
C445 C448 1.378 . S
C445 H460 0.929 . S
C446 C445 1.362 . S
C446 C447 1.366 . S
C447 C444 1.365 . S
C447 C446 1.366 . S
C447 H461 0.930 . S
C448 C445 1.378 . S
C448 N449 1.315 . S
C448 H451 0.930 . S
N449 Co429 2.194 . S
N449 C444 1.328 . S
N449 C448 1.315 . S
H450 C444 0.929 . S
H451 C448 0.930 . S
H452 C440 0.929 . S
H453 C442 0.929 . S
O454 Co429 2.351 . S
O454 C457 1.244 . S
O455 Co429 2.155 . S
O455 C457 1.240 . S
O456 Co429 2.096 . S
O456 C437 1.247 . S
C457 O454 1.244 . S
C457 O455 1.240 . S
H458 C432 0.931 . S
H459 C441 0.931 . S
H460 C445 0.929 . S
H461 C447 0.930 . S
Co462 N466 2.148 . S
Co462 N472 2.128 . S
Co462 N482 2.194 . S
Co462 O487 2.351 . S
Co462 O488 2.155 . S
Co462 O489 2.096 . S
C463 N466 1.301 . S
C463 N467 1.328 . S
C463 H468 0.930 . S
C464 C465 1.333 . S
C464 N466 1.317 . S
C464 H469 0.930 . S
C465 C464 1.333 . S
C465 N467 1.350 . S
C465 H491 0.931 . S
N466 Co462 2.148 . S
N466 C463 1.301 . S
N466 C464 1.317 . S
N467 C463 1.328 . S
N467 C465 1.350 . S
H468 C463 0.930 . S
H469 C464 0.930 . S
C470 O471 1.224 . S
C470 O489 1.247 . S
O471 C470 1.224 . S
N472 Co462 2.128 . S
N472 C473 1.355 . S
N472 C475 1.311 . S
C473 N472 1.355 . S
C473 C474 1.363 . S
C473 H485 0.929 . S
C474 C473 1.363 . S
C474 N476 1.375 . S
C474 H492 0.931 . S
C475 N472 1.311 . S
C475 N476 1.347 . S
C475 H486 0.929 . S
N476 C474 1.375 . S
N476 C475 1.347 . S
C477 C480 1.365 . S
C477 N482 1.328 . S
C477 H483 0.929 . S
C478 C479 1.362 . S
C478 C481 1.378 . S
C478 H493 0.929 . S
C479 C478 1.362 . S
C479 C480 1.366 . S
C480 C477 1.365 . S
C480 C479 1.366 . S
C480 H494 0.930 . S
C481 C478 1.378 . S
C481 N482 1.315 . S
C481 H484 0.930 . S
N482 Co462 2.194 . S
N482 C477 1.328 . S
N482 C481 1.315 . S
H483 C477 0.929 . S
H484 C481 0.930 . S
H485 C473 0.929 . S
H486 C475 0.929 . S
O487 Co462 2.351 . S
O487 C490 1.244 . S
O488 Co462 2.155 . S
O488 C490 1.240 . S
O489 Co462 2.096 . S
O489 C470 1.247 . S
C490 O487 1.244 . S
C490 O488 1.240 . S
H491 C465 0.931 . S
H492 C474 0.931 . S
H493 C478 0.929 . S
H494 C480 0.930 . S
Co495 N499 2.148 . S
Co495 N505 2.128 . S
Co495 N515 2.194 . S
Co495 O520 2.351 . S
Co495 O521 2.155 . S
Co495 O522 2.096 . S
C496 N499 1.301 . S
C496 N500 1.328 . S
C496 H501 0.930 . S
C497 C498 1.333 . S
C497 N499 1.317 . S
C497 H502 0.930 . S
C498 C497 1.333 . S
C498 N500 1.350 . S
C498 H524 0.931 . S
N499 Co495 2.148 . S
N499 C496 1.301 . S
N499 C497 1.317 . S
N500 C496 1.328 . S
N500 C498 1.350 . S
H501 C496 0.930 . S
H502 C497 0.930 . S
C503 O504 1.224 . S
C503 O522 1.247 . S
O504 C503 1.224 . S
N505 Co495 2.128 . S
N505 C506 1.355 . S
N505 C508 1.311 . S
C506 N505 1.355 . S
C506 C507 1.363 . S
C506 H518 0.929 . S
C507 C506 1.363 . S
C507 N509 1.375 . S
C507 H525 0.931 . S
C508 N505 1.311 . S
C508 N509 1.347 . S
C508 H519 0.929 . S
N509 C507 1.375 . S
N509 C508 1.347 . S
C510 C513 1.365 . S
C510 N515 1.328 . S
C510 H516 0.929 . S
C511 C512 1.362 . S
C511 C514 1.378 . S
C511 H526 0.929 . S
C512 C511 1.362 . S
C512 C513 1.366 . S
C513 C510 1.365 . S
C513 C512 1.366 . S
C513 H527 0.930 . S
C514 C511 1.378 . S
C514 N515 1.315 . S
C514 H517 0.930 . S
N515 Co495 2.194 . S
N515 C510 1.328 . S
N515 C514 1.315 . S
H516 C510 0.929 . S
H517 C514 0.930 . S
H518 C506 0.929 . S
H519 C508 0.929 . S
O520 Co495 2.351 . S
O520 C523 1.244 . S
O521 Co495 2.155 . S
O521 C523 1.240 . S
O522 Co495 2.096 . S
O522 C503 1.247 . S
C523 O520 1.244 . S
C523 O521 1.240 . S
H524 C498 0.931 . S
H525 C507 0.931 . S
H526 C511 0.929 . S
H527 C513 0.930 . S
Co528 N532 2.148 1_556 S
Co528 N538 2.128 . S
Co528 N548 2.194 . S
Co528 O553 2.351 . S
Co528 O554 2.155 . S
Co528 O555 2.096 . S
C529 N532 1.301 . S
C529 N533 1.328 . S
C529 H534 0.930 . S
C530 C531 1.333 . S
C530 N532 1.317 . S
C530 H535 0.930 . S
C531 C530 1.333 . S
C531 N533 1.350 . S
C531 H557 0.931 . S
N532 Co528 2.148 1_554 S
N532 C529 1.301 . S
N532 C530 1.317 . S
N533 C529 1.328 . S
N533 C531 1.350 . S
H534 C529 0.930 . S
H535 C530 0.930 . S
C536 O537 1.224 . S
C536 O555 1.247 1_554 S
O537 C536 1.224 . S
N538 Co528 2.128 . S
N538 C539 1.355 . S
N538 C541 1.311 . S
C539 N538 1.355 . S
C539 C540 1.363 . S
C539 H551 0.929 . S
C540 C539 1.363 . S
C540 N542 1.375 . S
C540 H558 0.931 . S
C541 N538 1.311 . S
C541 N542 1.347 . S
C541 H552 0.929 . S
N542 C540 1.375 . S
N542 C541 1.347 . S
C543 C546 1.365 . S
C543 N548 1.328 . S
C543 H549 0.929 . S
C544 C545 1.362 1_554 S
C544 C547 1.378 . S
C544 H559 0.929 . S
C545 C544 1.362 1_556 S
C545 C546 1.366 . S
C546 C543 1.365 . S
C546 C545 1.366 . S
C546 H560 0.930 . S
C547 C544 1.378 . S
C547 N548 1.315 1_554 S
C547 H550 0.930 . S
N548 Co528 2.194 . S
N548 C543 1.328 . S
N548 C547 1.315 1_556 S
H549 C543 0.929 . S
H550 C547 0.930 . S
H551 C539 0.929 . S
H552 C541 0.929 . S
O553 Co528 2.351 . S
O553 C556 1.244 . S
O554 Co528 2.155 . S
O554 C556 1.240 . S
O555 Co528 2.096 . S
O555 C536 1.247 1_556 S
C556 O553 1.244 . S
C556 O554 1.240 . S
H557 C531 0.931 . S
H558 C540 0.931 . S
H559 C544 0.929 . S
H560 C546 0.930 . S
Co561 N565 2.148 . S
Co561 N571 2.128 . S
Co561 N581 2.194 . S
Co561 O586 2.351 . S
Co561 O587 2.155 . S
Co561 O588 2.096 . S
C562 N565 1.301 . S
C562 N566 1.328 . S
C562 H567 0.930 . S
C563 C564 1.333 . S
C563 N565 1.317 . S
C563 H568 0.930 . S
C564 C563 1.333 . S
C564 N566 1.350 . S
C564 H590 0.931 . S
N565 Co561 2.148 . S
N565 C562 1.301 . S
N565 C563 1.317 . S
N566 C562 1.328 . S
N566 C564 1.350 . S
H567 C562 0.930 . S
H568 C563 0.930 . S
C569 O570 1.224 . S
C569 O588 1.247 . S
O570 C569 1.224 . S
N571 Co561 2.128 . S
N571 C572 1.355 . S
N571 C574 1.311 . S
C572 N571 1.355 . S
C572 C573 1.363 . S
C572 H584 0.929 . S
C573 C572 1.363 . S
C573 N575 1.375 . S
C573 H591 0.931 . S
C574 N571 1.311 . S
C574 N575 1.347 . S
C574 H585 0.929 . S
N575 C573 1.375 . S
N575 C574 1.347 . S
C576 C579 1.365 . S
C576 N581 1.328 . S
C576 H582 0.929 . S
C577 C578 1.362 . S
C577 C580 1.378 . S
C577 H592 0.929 . S
C578 C577 1.362 . S
C578 C579 1.366 . S
C579 C576 1.365 . S
C579 C578 1.366 . S
C579 H593 0.930 . S
C580 C577 1.378 . S
C580 N581 1.315 . S
C580 H583 0.930 . S
N581 Co561 2.194 . S
N581 C576 1.328 . S
N581 C580 1.315 . S
H582 C576 0.929 . S
H583 C580 0.930 . S
H584 C572 0.929 . S
H585 C574 0.929 . S
O586 Co561 2.351 . S
O586 C589 1.244 . S
O587 Co561 2.155 . S
O587 C589 1.240 . S
O588 Co561 2.096 . S
O588 C569 1.247 . S
C589 O586 1.244 . S
C589 O587 1.240 . S
H590 C564 0.931 . S
H591 C573 0.931 . S
H592 C577 0.929 . S
H593 C579 0.930 . S
Co594 N598 2.148 . S
Co594 N604 2.128 . S
Co594 N614 2.194 . S
Co594 O619 2.351 . S
Co594 O620 2.155 . S
Co594 O621 2.096 . S
C595 N598 1.301 . S
C595 N599 1.328 . S
C595 H600 0.930 . S
C596 C597 1.333 . S
C596 N598 1.317 . S
C596 H601 0.930 . S
C597 C596 1.333 . S
C597 N599 1.350 . S
C597 H623 0.931 . S
N598 Co594 2.148 . S
N598 C595 1.301 . S
N598 C596 1.317 . S
N599 C595 1.328 . S
N599 C597 1.350 . S
H600 C595 0.930 . S
H601 C596 0.930 . S
C602 O603 1.224 . S
C602 O621 1.247 . S
O603 C602 1.224 . S
N604 Co594 2.128 . S
N604 C605 1.355 . S
N604 C607 1.311 . S
C605 N604 1.355 . S
C605 C606 1.363 . S
C605 H617 0.929 . S
C606 C605 1.363 . S
C606 N608 1.375 . S
C606 H624 0.931 . S
C607 N604 1.311 . S
C607 N608 1.347 . S
C607 H618 0.929 . S
N608 C606 1.375 . S
N608 C607 1.347 . S
C609 C612 1.365 . S
C609 N614 1.328 . S
C609 H615 0.929 . S
C610 C611 1.362 . S
C610 C613 1.378 . S
C610 H625 0.929 . S
C611 C610 1.362 . S
C611 C612 1.366 . S
C612 C609 1.365 . S
C612 C611 1.366 . S
C612 H626 0.930 . S
C613 C610 1.378 . S
C613 N614 1.315 . S
C613 H616 0.930 . S
N614 Co594 2.194 . S
N614 C609 1.328 . S
N614 C613 1.315 . S
H615 C609 0.929 . S
H616 C613 0.930 . S
H617 C605 0.929 . S
H618 C607 0.929 . S
O619 Co594 2.351 . S
O619 C622 1.244 . S
O620 Co594 2.155 . S
O620 C622 1.240 . S
O621 Co594 2.096 . S
O621 C602 1.247 . S
C622 O619 1.244 . S
C622 O620 1.240 . S
H623 C597 0.931 . S
H624 C606 0.931 . S
H625 C610 0.929 . S
H626 C612 0.930 . S
Co627 N631 2.148 . S
Co627 N637 2.128 . S
Co627 N647 2.194 . S
Co627 O652 2.351 . S
Co627 O653 2.155 . S
Co627 O654 2.096 . S
C628 N631 1.301 . S
C628 N632 1.328 . S
C628 H633 0.930 . S
C629 C630 1.333 . S
C629 N631 1.317 . S
C629 H634 0.930 . S
C630 C629 1.333 . S
C630 N632 1.350 . S
C630 H656 0.931 . S
N631 Co627 2.148 . S
N631 C628 1.301 . S
N631 C629 1.317 . S
N632 C628 1.328 . S
N632 C630 1.350 . S
H633 C628 0.930 . S
H634 C629 0.930 . S
C635 O636 1.224 . S
C635 O654 1.247 . S
O636 C635 1.224 . S
N637 Co627 2.128 . S
N637 C638 1.355 . S
N637 C640 1.311 . S
C638 N637 1.355 . S
C638 C639 1.363 . S
C638 H650 0.929 . S
C639 C638 1.363 . S
C639 N641 1.375 . S
C639 H657 0.931 . S
C640 N637 1.311 . S
C640 N641 1.347 . S
C640 H651 0.929 . S
N641 C639 1.375 . S
N641 C640 1.347 . S
C642 C645 1.365 . S
C642 N647 1.328 . S
C642 H648 0.929 . S
C643 C644 1.362 . S
C643 C646 1.378 . S
C643 H658 0.929 . S
C644 C643 1.362 . S
C644 C645 1.366 . S
C645 C642 1.365 . S
C645 C644 1.366 . S
C645 H659 0.930 . S
C646 C643 1.378 . S
C646 N647 1.315 . S
C646 H649 0.930 . S
N647 Co627 2.194 . S
N647 C642 1.328 . S
N647 C646 1.315 . S
H648 C642 0.929 . S
H649 C646 0.930 . S
H650 C638 0.929 . S
H651 C640 0.929 . S
O652 Co627 2.351 . S
O652 C655 1.244 . S
O653 Co627 2.155 . S
O653 C655 1.240 . S
O654 Co627 2.096 . S
O654 C635 1.247 . S
C655 O652 1.244 . S
C655 O653 1.240 . S
H656 C630 0.931 . S
H657 C639 0.931 . S
H658 C643 0.929 . S
H659 C645 0.930 . S
Co660 N664 2.148 . S
Co660 N670 2.128 . S
Co660 N680 2.194 . S
Co660 O685 2.351 . S
Co660 O686 2.155 . S
Co660 O687 2.096 . S
C661 N664 1.301 . S
C661 N665 1.328 . S
C661 H666 0.930 . S
C662 C663 1.333 . S
C662 N664 1.317 . S
C662 H667 0.930 . S
C663 C662 1.333 . S
C663 N665 1.350 . S
C663 H689 0.931 . S
N664 Co660 2.148 . S
N664 C661 1.301 . S
N664 C662 1.317 . S
N665 C661 1.328 . S
N665 C663 1.350 . S
H666 C661 0.930 . S
H667 C662 0.930 . S
C668 O669 1.224 . S
C668 O687 1.247 . S
O669 C668 1.224 . S
N670 Co660 2.128 . S
N670 C671 1.355 . S
N670 C673 1.311 . S
C671 N670 1.355 . S
C671 C672 1.363 . S
C671 H683 0.929 . S
C672 C671 1.363 . S
C672 N674 1.375 . S
C672 H690 0.931 . S
C673 N670 1.311 . S
C673 N674 1.347 . S
C673 H684 0.929 . S
N674 C672 1.375 . S
N674 C673 1.347 . S
C675 C678 1.365 . S
C675 N680 1.328 . S
C675 H681 0.929 . S
C676 C677 1.362 . S
C676 C679 1.378 . S
C676 H691 0.929 . S
C677 C676 1.362 . S
C677 C678 1.366 . S
C678 C675 1.365 . S
C678 C677 1.366 . S
C678 H692 0.930 . S
C679 C676 1.378 . S
C679 N680 1.315 . S
C679 H682 0.930 . S
N680 Co660 2.194 . S
N680 C675 1.328 . S
N680 C679 1.315 . S
H681 C675 0.929 . S
H682 C679 0.930 . S
H683 C671 0.929 . S
H684 C673 0.929 . S
O685 Co660 2.351 . S
O685 C688 1.244 . S
O686 Co660 2.155 . S
O686 C688 1.240 . S
O687 Co660 2.096 . S
O687 C668 1.247 . S
C688 O685 1.244 . S
C688 O686 1.240 . S
H689 C663 0.931 . S
H690 C672 0.931 . S
H691 C676 0.929 . S
H692 C678 0.930 . S
Co693 N697 2.148 . S
Co693 N703 2.128 . S
Co693 N713 2.194 . S
Co693 O718 2.351 . S
Co693 O719 2.155 . S
Co693 O720 2.096 . S
C694 N697 1.301 . S
C694 N698 1.328 . S
C694 H699 0.930 . S
C695 C696 1.333 . S
C695 N697 1.317 . S
C695 H700 0.930 . S
C696 C695 1.333 . S
C696 N698 1.350 . S
C696 H722 0.931 . S
N697 Co693 2.148 . S
N697 C694 1.301 . S
N697 C695 1.317 . S
N698 C694 1.328 . S
N698 C696 1.350 . S
H699 C694 0.930 . S
H700 C695 0.930 . S
C701 O702 1.224 . S
C701 O720 1.247 . S
O702 C701 1.224 . S
N703 Co693 2.128 . S
N703 C704 1.355 . S
N703 C706 1.311 . S
C704 N703 1.355 . S
C704 C705 1.363 . S
C704 H716 0.929 . S
C705 C704 1.363 . S
C705 N707 1.375 . S
C705 H723 0.931 . S
C706 N703 1.311 . S
C706 N707 1.347 . S
C706 H717 0.929 . S
N707 C705 1.375 . S
N707 C706 1.347 . S
C708 C711 1.365 . S
C708 N713 1.328 . S
C708 H714 0.929 . S
C709 C710 1.362 . S
C709 C712 1.378 . S
C709 H724 0.929 . S
C710 C709 1.362 . S
C710 C711 1.366 . S
C711 C708 1.365 . S
C711 C710 1.366 . S
C711 H725 0.930 . S
C712 C709 1.378 . S
C712 N713 1.315 . S
C712 H715 0.930 . S
N713 Co693 2.194 . S
N713 C708 1.328 . S
N713 C712 1.315 . S
H714 C708 0.929 . S
H715 C712 0.930 . S
H716 C704 0.929 . S
H717 C706 0.929 . S
O718 Co693 2.351 . S
O718 C721 1.244 . S
O719 Co693 2.155 . S
O719 C721 1.240 . S
O720 Co693 2.096 . S
O720 C701 1.247 . S
C721 O718 1.244 . S
C721 O719 1.240 . S
H722 C696 0.931 . S
H723 C705 0.931 . S
H724 C709 0.929 . S
H725 C711 0.930 . S
Co726 N730 2.148 1_554 S
Co726 N736 2.128 . S
Co726 N746 2.194 . S
Co726 O751 2.351 . S
Co726 O752 2.155 . S
Co726 O753 2.096 . S
C727 N730 1.301 . S
C727 N731 1.328 . S
C727 H732 0.930 . S
C728 C729 1.333 . S
C728 N730 1.317 . S
C728 H733 0.930 . S
C729 C728 1.333 . S
C729 N731 1.350 . S
C729 H755 0.931 . S
N730 Co726 2.148 1_556 S
N730 C727 1.301 . S
N730 C728 1.317 . S
N731 C727 1.328 . S
N731 C729 1.350 . S
H732 C727 0.930 . S
H733 C728 0.930 . S
C734 O735 1.224 . S
C734 O753 1.247 1_556 S
O735 C734 1.224 . S
N736 Co726 2.128 . S
N736 C737 1.355 . S
N736 C739 1.311 . S
C737 N736 1.355 . S
C737 C738 1.363 . S
C737 H749 0.929 . S
C738 C737 1.363 . S
C738 N740 1.375 . S
C738 H756 0.931 . S
C739 N736 1.311 . S
C739 N740 1.347 . S
C739 H750 0.929 . S
N740 C738 1.375 . S
N740 C739 1.347 . S
C741 C744 1.365 . S
C741 N746 1.328 . S
C741 H747 0.929 . S
C742 C743 1.362 1_556 S
C742 C745 1.378 . S
C742 H757 0.929 . S
C743 C742 1.362 1_554 S
C743 C744 1.366 . S
C744 C741 1.365 . S
C744 C743 1.366 . S
C744 H758 0.930 . S
C745 C742 1.378 . S
C745 N746 1.315 1_556 S
C745 H748 0.930 . S
N746 Co726 2.194 . S
N746 C741 1.328 . S
N746 C745 1.315 1_554 S
H747 C741 0.929 . S
H748 C745 0.930 . S
H749 C737 0.929 . S
H750 C739 0.929 . S
O751 Co726 2.351 . S
O751 C754 1.244 . S
O752 Co726 2.155 . S
O752 C754 1.240 . S
O753 Co726 2.096 . S
O753 C734 1.247 1_554 S
C754 O751 1.244 . S
C754 O752 1.240 . S
H755 C729 0.931 . S
H756 C738 0.931 . S
H757 C742 0.929 . S
H758 C744 0.930 . S
Co759 N763 2.148 . S
Co759 N769 2.128 . S
Co759 N779 2.194 . S
Co759 O784 2.351 . S
Co759 O785 2.155 . S
Co759 O786 2.096 . S
C760 N763 1.301 . S
C760 N764 1.328 . S
C760 H765 0.930 . S
C761 C762 1.333 . S
C761 N763 1.317 . S
C761 H766 0.930 . S
C762 C761 1.333 . S
C762 N764 1.350 . S
C762 H788 0.931 . S
N763 Co759 2.148 . S
N763 C760 1.301 . S
N763 C761 1.317 . S
N764 C760 1.328 . S
N764 C762 1.350 . S
H765 C760 0.930 . S
H766 C761 0.930 . S
C767 O768 1.224 . S
C767 O786 1.247 . S
O768 C767 1.224 . S
N769 Co759 2.128 . S
N769 C770 1.355 . S
N769 C772 1.311 . S
C770 N769 1.355 . S
C770 C771 1.363 . S
C770 H782 0.929 . S
C771 C770 1.363 . S
C771 N773 1.375 . S
C771 H789 0.931 . S
C772 N769 1.311 . S
C772 N773 1.347 . S
C772 H783 0.929 . S
N773 C771 1.375 . S
N773 C772 1.347 . S
C774 C777 1.365 . S
C774 N779 1.328 . S
C774 H780 0.929 . S
C775 C776 1.362 . S
C775 C778 1.378 . S
C775 H790 0.929 . S
C776 C775 1.362 . S
C776 C777 1.366 . S
C777 C774 1.365 . S
C777 C776 1.366 . S
C777 H791 0.930 . S
C778 C775 1.378 . S
C778 N779 1.315 . S
C778 H781 0.930 . S
N779 Co759 2.194 . S
N779 C774 1.328 . S
N779 C778 1.315 . S
H780 C774 0.929 . S
H781 C778 0.930 . S
H782 C770 0.929 . S
H783 C772 0.929 . S
O784 Co759 2.351 . S
O784 C787 1.244 . S
O785 Co759 2.155 . S
O785 C787 1.240 . S
O786 Co759 2.096 . S
O786 C767 1.247 . S
C787 O784 1.244 . S
C787 O785 1.240 . S
H788 C762 0.931 . S
H789 C771 0.931 . S
H790 C775 0.929 . S
H791 C777 0.930 . S
Co792 N796 2.148 1_554 S
Co792 N802 2.128 . S
Co792 N812 2.194 . S
Co792 O817 2.351 . S
Co792 O818 2.155 . S
Co792 O819 2.096 . S
C793 N796 1.301 . S
C793 N797 1.328 . S
C793 H798 0.930 . S
C794 C795 1.333 . S
C794 N796 1.317 . S
C794 H799 0.930 . S
C795 C794 1.333 . S
C795 N797 1.350 . S
C795 H821 0.931 . S
N796 Co792 2.148 1_556 S
N796 C793 1.301 . S
N796 C794 1.317 . S
N797 C793 1.328 . S
N797 C795 1.350 . S
H798 C793 0.930 . S
H799 C794 0.930 . S
C800 O801 1.224 . S
C800 O819 1.247 1_556 S
O801 C800 1.224 . S
N802 Co792 2.128 . S
N802 C803 1.355 . S
N802 C805 1.311 . S
C803 N802 1.355 . S
C803 C804 1.363 . S
C803 H815 0.929 . S
C804 C803 1.363 . S
C804 N806 1.375 . S
C804 H822 0.931 . S
C805 N802 1.311 . S
C805 N806 1.347 . S
C805 H816 0.929 . S
N806 C804 1.375 . S
N806 C805 1.347 . S
C807 C810 1.365 . S
C807 N812 1.328 . S
C807 H813 0.929 . S
C808 C809 1.362 1_556 S
C808 C811 1.378 . S
C808 H823 0.929 . S
C809 C808 1.362 1_554 S
C809 C810 1.366 . S
C810 C807 1.365 . S
C810 C809 1.366 . S
C810 H824 0.930 . S
C811 C808 1.378 . S
C811 N812 1.315 1_556 S
C811 H814 0.930 . S
N812 Co792 2.194 . S
N812 C807 1.328 . S
N812 C811 1.315 1_554 S
H813 C807 0.929 . S
H814 C811 0.930 . S
H815 C803 0.929 . S
H816 C805 0.929 . S
O817 Co792 2.351 . S
O817 C820 1.244 . S
O818 Co792 2.155 . S
O818 C820 1.240 . S
O819 Co792 2.096 . S
O819 C800 1.247 1_554 S
C820 O817 1.244 . S
C820 O818 1.240 . S
H821 C795 0.931 . S
H822 C804 0.931 . S
H823 C808 0.929 . S
H824 C810 0.930 . S
Co825 N829 2.148 . S
Co825 N835 2.128 . S
Co825 N845 2.194 . S
Co825 O850 2.351 . S
Co825 O851 2.155 . S
Co825 O852 2.096 . S
C826 N829 1.301 . S
C826 N830 1.328 . S
C826 H831 0.930 . S
C827 C828 1.333 . S
C827 N829 1.317 . S
C827 H832 0.930 . S
C828 C827 1.333 . S
C828 N830 1.350 . S
C828 H854 0.931 . S
N829 Co825 2.148 . S
N829 C826 1.301 . S
N829 C827 1.317 . S
N830 C826 1.328 . S
N830 C828 1.350 . S
H831 C826 0.930 . S
H832 C827 0.930 . S
C833 O834 1.224 . S
C833 O852 1.247 . S
O834 C833 1.224 . S
N835 Co825 2.128 . S
N835 C836 1.355 . S
N835 C838 1.311 . S
C836 N835 1.355 . S
C836 C837 1.363 . S
C836 H848 0.929 . S
C837 C836 1.363 . S
C837 N839 1.375 . S
C837 H855 0.931 . S
C838 N835 1.311 . S
C838 N839 1.347 . S
C838 H849 0.929 . S
N839 C837 1.375 . S
N839 C838 1.347 . S
C840 C843 1.365 . S
C840 N845 1.328 . S
C840 H846 0.929 . S
C841 C842 1.362 . S
C841 C844 1.378 . S
C841 H856 0.929 . S
C842 C841 1.362 . S
C842 C843 1.366 . S
C843 C840 1.365 . S
C843 C842 1.366 . S
C843 H857 0.930 . S
C844 C841 1.378 . S
C844 N845 1.315 . S
C844 H847 0.930 . S
N845 Co825 2.194 . S
N845 C840 1.328 . S
N845 C844 1.315 . S
H846 C840 0.929 . S
H847 C844 0.930 . S
H848 C836 0.929 . S
H849 C838 0.929 . S
O850 Co825 2.351 . S
O850 C853 1.244 . S
O851 Co825 2.155 . S
O851 C853 1.240 . S
O852 Co825 2.096 . S
O852 C833 1.247 . S
C853 O850 1.244 . S
C853 O851 1.240 . S
H854 C828 0.931 . S
H855 C837 0.931 . S
H856 C841 0.929 . S
H857 C843 0.930 . S
Co858 N862 2.148 . S
Co858 N868 2.128 . S
Co858 N878 2.194 . S
Co858 O883 2.351 . S
Co858 O884 2.155 . S
Co858 O885 2.096 . S
C859 N862 1.301 . S
C859 N863 1.328 . S
C859 H864 0.930 . S
C860 C861 1.333 . S
C860 N862 1.317 . S
C860 H865 0.930 . S
C861 C860 1.333 . S
C861 N863 1.350 . S
C861 H887 0.931 . S
N862 Co858 2.148 . S
N862 C859 1.301 . S
N862 C860 1.317 . S
N863 C859 1.328 . S
N863 C861 1.350 . S
H864 C859 0.930 . S
H865 C860 0.930 . S
C866 O867 1.224 . S
C866 O885 1.247 . S
O867 C866 1.224 . S
N868 Co858 2.128 . S
N868 C869 1.355 . S
N868 C871 1.311 . S
C869 N868 1.355 . S
C869 C870 1.363 . S
C869 H881 0.929 . S
C870 C869 1.363 . S
C870 N872 1.375 . S
C870 H888 0.931 . S
C871 N868 1.311 . S
C871 N872 1.347 . S
C871 H882 0.929 . S
N872 C870 1.375 . S
N872 C871 1.347 . S
C873 C876 1.365 . S
C873 N878 1.328 . S
C873 H879 0.929 . S
C874 C875 1.362 . S
C874 C877 1.378 . S
C874 H889 0.929 . S
C875 C874 1.362 . S
C875 C876 1.366 . S
C876 C873 1.365 . S
C876 C875 1.366 . S
C876 H890 0.930 . S
C877 C874 1.378 . S
C877 N878 1.315 . S
C877 H880 0.930 . S
N878 Co858 2.194 . S
N878 C873 1.328 . S
N878 C877 1.315 . S
H879 C873 0.929 . S
H880 C877 0.930 . S
H881 C869 0.929 . S
H882 C871 0.929 . S
O883 Co858 2.351 . S
O883 C886 1.244 . S
O884 Co858 2.155 . S
O884 C886 1.240 . S
O885 Co858 2.096 . S
O885 C866 1.247 . S
C886 O883 1.244 . S
C886 O884 1.240 . S
H887 C861 0.931 . S
H888 C870 0.931 . S
H889 C874 0.929 . S
H890 C876 0.930 . S
Co891 N895 2.148 . S
Co891 N901 2.128 . S
Co891 N911 2.194 . S
Co891 O916 2.351 . S
Co891 O917 2.155 . S
Co891 O918 2.096 . S
C892 N895 1.301 . S
C892 N896 1.328 . S
C892 H897 0.930 . S
C893 C894 1.333 . S
C893 N895 1.317 . S
C893 H898 0.930 . S
C894 C893 1.333 . S
C894 N896 1.350 . S
C894 H920 0.931 . S
N895 Co891 2.148 . S
N895 C892 1.301 . S
N895 C893 1.317 . S
N896 C892 1.328 . S
N896 C894 1.350 . S
H897 C892 0.930 . S
H898 C893 0.930 . S
C899 O900 1.224 . S
C899 O918 1.247 . S
O900 C899 1.224 . S
N901 Co891 2.128 . S
N901 C902 1.355 . S
N901 C904 1.311 . S
C902 N901 1.355 . S
C902 C903 1.363 . S
C902 H914 0.929 . S
C903 C902 1.363 . S
C903 N905 1.375 . S
C903 H921 0.931 . S
C904 N901 1.311 . S
C904 N905 1.347 . S
C904 H915 0.929 . S
N905 C903 1.375 . S
N905 C904 1.347 . S
C906 C909 1.365 . S
C906 N911 1.328 . S
C906 H912 0.929 . S
C907 C908 1.362 . S
C907 C910 1.378 . S
C907 H922 0.929 . S
C908 C907 1.362 . S
C908 C909 1.366 . S
C909 C906 1.365 . S
C909 C908 1.366 . S
C909 H923 0.930 . S
C910 C907 1.378 . S
C910 N911 1.315 . S
C910 H913 0.930 . S
N911 Co891 2.194 . S
N911 C906 1.328 . S
N911 C910 1.315 . S
H912 C906 0.929 . S
H913 C910 0.930 . S
H914 C902 0.929 . S
H915 C904 0.929 . S
O916 Co891 2.351 . S
O916 C919 1.244 . S
O917 Co891 2.155 . S
O917 C919 1.240 . S
O918 Co891 2.096 . S
O918 C899 1.247 . S
C919 O916 1.244 . S
C919 O917 1.240 . S
H920 C894 0.931 . S
H921 C903 0.931 . S
H922 C907 0.929 . S
H923 C909 0.930 . S
Co924 N928 2.148 . S
Co924 N934 2.128 . S
Co924 N944 2.194 . S
Co924 O949 2.351 . S
Co924 O950 2.155 . S
Co924 O951 2.096 . S
C925 N928 1.301 . S
C925 N929 1.328 . S
C925 H930 0.930 . S
C926 C927 1.333 . S
C926 N928 1.317 . S
C926 H931 0.930 . S
C927 C926 1.333 . S
C927 N929 1.350 . S
C927 H953 0.931 . S
N928 Co924 2.148 . S
N928 C925 1.301 . S
N928 C926 1.317 . S
N929 C925 1.328 . S
N929 C927 1.350 . S
H930 C925 0.930 . S
H931 C926 0.930 . S
C932 O933 1.224 . S
C932 O951 1.247 . S
O933 C932 1.224 . S
N934 Co924 2.128 . S
N934 C935 1.355 . S
N934 C937 1.311 . S
C935 N934 1.355 . S
C935 C936 1.363 . S
C935 H947 0.929 . S
C936 C935 1.363 . S
C936 N938 1.375 . S
C936 H954 0.931 . S
C937 N934 1.311 . S
C937 N938 1.347 . S
C937 H948 0.929 . S
N938 C936 1.375 . S
N938 C937 1.347 . S
C939 C942 1.365 . S
C939 N944 1.328 . S
C939 H945 0.929 . S
C940 C941 1.362 . S
C940 C943 1.378 . S
C940 H955 0.929 . S
C941 C940 1.362 . S
C941 C942 1.366 . S
C942 C939 1.365 . S
C942 C941 1.366 . S
C942 H956 0.930 . S
C943 C940 1.378 . S
C943 N944 1.315 . S
C943 H946 0.930 . S
N944 Co924 2.194 . S
N944 C939 1.328 . S
N944 C943 1.315 . S
H945 C939 0.929 . S
H946 C943 0.930 . S
H947 C935 0.929 . S
H948 C937 0.929 . S
O949 Co924 2.351 . S
O949 C952 1.244 . S
O950 Co924 2.155 . S
O950 C952 1.240 . S
O951 Co924 2.096 . S
O951 C932 1.247 . S
C952 O949 1.244 . S
C952 O950 1.240 . S
H953 C927 0.931 . S
H954 C936 0.931 . S
H955 C940 0.929 . S
H956 C942 0.930 . S
Co957 N961 2.148 . S
Co957 N967 2.128 . S
Co957 N977 2.194 . S
Co957 O982 2.351 . S
Co957 O983 2.155 . S
Co957 O984 2.096 . S
C958 N961 1.301 . S
C958 N962 1.328 . S
C958 H963 0.930 . S
C959 C960 1.333 . S
C959 N961 1.317 . S
C959 H964 0.930 . S
C960 C959 1.333 . S
C960 N962 1.350 . S
C960 H986 0.931 . S
N961 Co957 2.148 . S
N961 C958 1.301 . S
N961 C959 1.317 . S
N962 C958 1.328 . S
N962 C960 1.350 . S
H963 C958 0.930 . S
H964 C959 0.930 . S
C965 O966 1.224 . S
C965 O984 1.247 . S
O966 C965 1.224 . S
N967 Co957 2.128 . S
N967 C968 1.355 . S
N967 C970 1.311 . S
C968 N967 1.355 . S
C968 C969 1.363 . S
C968 H980 0.929 . S
C969 C968 1.363 . S
C969 N971 1.375 . S
C969 H987 0.931 . S
C970 N967 1.311 . S
C970 N971 1.347 . S
C970 H981 0.929 . S
N971 C969 1.375 . S
N971 C970 1.347 . S
C972 C975 1.365 . S
C972 N977 1.328 . S
C972 H978 0.929 . S
C973 C974 1.362 . S
C973 C976 1.378 . S
C973 H988 0.929 . S
C974 C973 1.362 . S
C974 C975 1.366 . S
C975 C972 1.365 . S
C975 C974 1.366 . S
C975 H989 0.930 . S
C976 C973 1.378 . S
C976 N977 1.315 . S
C976 H979 0.930 . S
N977 Co957 2.194 . S
N977 C972 1.328 . S
N977 C976 1.315 . S
H978 C972 0.929 . S
H979 C976 0.930 . S
H980 C968 0.929 . S
H981 C970 0.929 . S
O982 Co957 2.351 . S
O982 C985 1.244 . S
O983 Co957 2.155 . S
O983 C985 1.240 . S
O984 Co957 2.096 . S
O984 C965 1.247 . S
C985 O982 1.244 . S
C985 O983 1.240 . S
H986 C960 0.931 . S
H987 C969 0.931 . S
H988 C973 0.929 . S
H989 C975 0.930 . S
Co990 N994 2.148 1_556 S
Co990 N1000 2.128 . S
Co990 N1010 2.194 . S
Co990 O1015 2.351 . S
Co990 O1016 2.155 . S
Co990 O1017 2.096 . S
C991 N994 1.301 . S
C991 N995 1.328 . S
C991 H996 0.930 . S
C992 C993 1.333 . S
C992 N994 1.317 . S
C992 H997 0.930 . S
C993 C992 1.333 . S
C993 N995 1.350 . S
C993 H1019 0.931 . S
N994 Co990 2.148 1_554 S
N994 C991 1.301 . S
N994 C992 1.317 . S
N995 C991 1.328 . S
N995 C993 1.350 . S
H996 C991 0.930 . S
H997 C992 0.930 . S
C998 O999 1.224 . S
C998 O1017 1.247 1_554 S
O999 C998 1.224 . S
N1000 Co990 2.128 . S
N1000 C1001 1.355 . S
N1000 C1003 1.311 . S
C1001 N1000 1.355 . S
C1001 C1002 1.363 . S
C1001 H1013 0.929 . S
C1002 C1001 1.363 . S
C1002 N1004 1.375 . S
C1002 H1020 0.931 . S
C1003 N1000 1.311 . S
C1003 N1004 1.347 . S
C1003 H1014 0.929 . S
N1004 C1002 1.375 . S
N1004 C1003 1.347 . S
C1005 C1008 1.365 . S
C1005 N1010 1.328 . S
C1005 H1011 0.929 . S
C1006 C1007 1.362 1_554 S
C1006 C1009 1.378 . S
C1006 H1021 0.929 . S
C1007 C1006 1.362 1_556 S
C1007 C1008 1.366 . S
C1008 C1005 1.365 . S
C1008 C1007 1.366 . S
C1008 H1022 0.930 . S
C1009 C1006 1.378 . S
C1009 N1010 1.315 1_554 S
C1009 H1012 0.930 . S
N1010 Co990 2.194 . S
N1010 C1005 1.328 . S
N1010 C1009 1.315 1_556 S
H1011 C1005 0.929 . S
H1012 C1009 0.930 . S
H1013 C1001 0.929 . S
H1014 C1003 0.929 . S
O1015 Co990 2.351 . S
O1015 C1018 1.244 . S
O1016 Co990 2.155 . S
O1016 C1018 1.240 . S
O1017 Co990 2.096 . S
O1017 C998 1.247 1_556 S
C1018 O1015 1.244 . S
C1018 O1016 1.240 . S
H1019 C993 0.931 . S
H1020 C1002 0.931 . S
H1021 C1006 0.929 . S
H1022 C1008 0.930 . S
Co1023 N1027 2.148 . S
Co1023 N1033 2.128 . S
Co1023 N1043 2.194 . S
Co1023 O1048 2.351 . S
Co1023 O1049 2.155 . S
Co1023 O1050 2.096 . S
C1024 N1027 1.301 . S
C1024 N1028 1.328 . S
C1024 H1029 0.930 . S
C1025 C1026 1.333 . S
C1025 N1027 1.317 . S
C1025 H1030 0.930 . S
C1026 C1025 1.333 . S
C1026 N1028 1.350 . S
C1026 H1052 0.931 . S
N1027 Co1023 2.148 . S
N1027 C1024 1.301 . S
N1027 C1025 1.317 . S
N1028 C1024 1.328 . S
N1028 C1026 1.350 . S
H1029 C1024 0.930 . S
H1030 C1025 0.930 . S
C1031 O1032 1.224 . S
C1031 O1050 1.247 . S
O1032 C1031 1.224 . S
N1033 Co1023 2.128 . S
N1033 C1034 1.355 . S
N1033 C1036 1.311 . S
C1034 N1033 1.355 . S
C1034 C1035 1.363 . S
C1034 H1046 0.929 . S
C1035 C1034 1.363 . S
C1035 N1037 1.375 . S
C1035 H1053 0.931 . S
C1036 N1033 1.311 . S
C1036 N1037 1.347 . S
C1036 H1047 0.929 . S
N1037 C1035 1.375 . S
N1037 C1036 1.347 . S
C1038 C1041 1.365 . S
C1038 N1043 1.328 . S
C1038 H1044 0.929 . S
C1039 C1040 1.362 . S
C1039 C1042 1.378 . S
C1039 H1054 0.929 . S
C1040 C1039 1.362 . S
C1040 C1041 1.366 . S
C1041 C1038 1.365 . S
C1041 C1040 1.366 . S
C1041 H1055 0.930 . S
C1042 C1039 1.378 . S
C1042 N1043 1.315 . S
C1042 H1045 0.930 . S
N1043 Co1023 2.194 . S
N1043 C1038 1.328 . S
N1043 C1042 1.315 . S
H1044 C1038 0.929 . S
H1045 C1042 0.930 . S
H1046 C1034 0.929 . S
H1047 C1036 0.929 . S
O1048 Co1023 2.351 . S
O1048 C1051 1.244 . S
O1049 Co1023 2.155 . S
O1049 C1051 1.240 . S
O1050 Co1023 2.096 . S
O1050 C1031 1.247 . S
C1051 O1048 1.244 . S
C1051 O1049 1.240 . S
H1052 C1026 0.931 . S
H1053 C1035 0.931 . S
H1054 C1039 0.929 . S
H1055 C1041 0.930 . S
H1056 C1064 0.950 . S
H1057 C1069 0.950 . S
H1058 C1066 0.950 . S
H1059 C1068 0.950 . S
H1060 C1070 0.950 . S
H1061 C1072 0.950 . S
H1062 C1074 0.950 . S
H1063 C1075 0.950 . S
C1064 H1056 0.950 . S
C1064 C1065 1.386 . S
C1064 C1066 1.391 . S
C1065 C1064 1.386 . S
C1065 C1069 1.393 . S
C1066 H1058 0.950 . S
C1066 C1064 1.391 . S
C1066 C1067 1.400 . S
C1067 C1066 1.400 . S
C1067 C1068 1.398 . S
C1067 C1073 1.491 . S
C1068 H1059 0.950 . S
C1068 C1067 1.398 . S
C1068 C1069 1.391 . S
C1069 H1057 0.950 . S
C1069 C1065 1.393 . S
C1069 C1068 1.391 . S
C1070 H1060 0.950 . S
C1070 C1071 1.386 . S
C1070 C1072 1.391 . S
C1071 C1070 1.386 . S
C1071 C1075 1.393 . S
C1072 H1061 0.950 . S
C1072 C1070 1.391 . S
C1072 C1073 1.400 . S
C1073 C1067 1.491 . S
C1073 C1072 1.400 . S
C1073 C1074 1.398 . S
C1074 H1062 0.950 . S
C1074 C1073 1.398 . S
C1074 C1075 1.391 . S
C1075 H1063 0.950 . S
C1075 C1071 1.393 . S
C1075 C1074 1.391 . S
H1076 C1084 0.950 . S
H1077 C1089 0.950 . S
H1078 C1086 0.950 . S
H1079 C1088 0.950 . S
H1080 C1090 0.950 1_554 S
H1081 C1092 0.950 . S
H1082 C1094 0.950 . S
H1083 C1095 0.950 . S
C1084 H1076 0.950 . S
C1084 C1085 1.386 . S
C1084 C1086 1.391 . S
C1085 C1084 1.386 . S
C1085 C1089 1.393 . S
C1086 H1078 0.950 . S
C1086 C1084 1.391 . S
C1086 C1087 1.400 . S
C1087 C1086 1.400 . S
C1087 C1088 1.398 . S
C1087 C1093 1.491 . S
C1088 H1079 0.950 . S
C1088 C1087 1.398 . S
C1088 C1089 1.391 . S
C1089 H1077 0.950 . S
C1089 C1085 1.393 . S
C1089 C1088 1.391 . S
C1090 H1080 0.950 1_556 S
C1090 C1091 1.386 . S
C1090 C1092 1.391 . S
C1091 C1090 1.386 . S
C1091 C1095 1.393 . S
C1092 H1081 0.950 . S
C1092 C1090 1.391 . S
C1092 C1093 1.400 . S
C1093 C1087 1.491 . S
C1093 C1092 1.400 . S
C1093 C1094 1.398 . S
C1094 H1082 0.950 . S
C1094 C1093 1.398 . S
C1094 C1095 1.391 . S
C1095 H1083 0.950 . S
C1095 C1091 1.393 . S
C1095 C1094 1.391 . S
H1096 C1104 0.950 . S
H1097 C1109 0.950 . S
H1098 C1106 0.950 . S
H1099 C1108 0.950 . S
H1100 C1110 0.950 . S
H1101 C1112 0.950 . S
H1102 C1114 0.950 . S
H1103 C1115 0.950 1_556 S
C1104 H1096 0.950 . S
C1104 C1105 1.386 . S
C1104 C1106 1.391 . S
C1105 C1104 1.386 . S
C1105 C1109 1.393 . S
C1106 H1098 0.950 . S
C1106 C1104 1.391 . S
C1106 C1107 1.400 . S
C1107 C1106 1.400 . S
C1107 C1108 1.398 . S
C1107 C1113 1.491 . S
C1108 H1099 0.950 . S
C1108 C1107 1.398 . S
C1108 C1109 1.391 . S
C1109 H1097 0.950 . S
C1109 C1105 1.393 . S
C1109 C1108 1.391 . S
C1110 H1100 0.950 . S
C1110 C1111 1.386 . S
C1110 C1112 1.391 . S
C1111 C1110 1.386 . S
C1111 C1115 1.393 . S
C1112 H1101 0.950 . S
C1112 C1110 1.391 . S
C1112 C1113 1.400 . S
C1113 C1107 1.491 . S
C1113 C1112 1.400 . S
C1113 C1114 1.398 . S
C1114 H1102 0.950 . S
C1114 C1113 1.398 . S
C1114 C1115 1.391 . S
C1115 H1103 0.950 1_554 S
C1115 C1111 1.393 . S
C1115 C1114 1.391 . S
H1116 C1124 0.950 . S
H1117 C1129 0.950 . S
H1118 C1126 0.950 . S
H1119 C1128 0.950 . S
H1120 C1130 0.950 . S
H1121 C1132 0.950 . S
H1122 C1134 0.950 . S
H1123 C1135 0.950 . S
C1124 H1116 0.950 . S
C1124 C1125 1.386 . S
C1124 C1126 1.391 . S
C1125 C1124 1.386 . S
C1125 C1129 1.393 . S
C1126 H1118 0.950 . S
C1126 C1124 1.391 . S
C1126 C1127 1.400 . S
C1127 C1126 1.400 . S
C1127 C1128 1.398 . S
C1127 C1133 1.491 . S
C1128 H1119 0.950 . S
C1128 C1127 1.398 . S
C1128 C1129 1.391 . S
C1129 H1117 0.950 . S
C1129 C1125 1.393 . S
C1129 C1128 1.391 . S
C1130 H1120 0.950 . S
C1130 C1131 1.386 . S
C1130 C1132 1.391 . S
C1131 C1130 1.386 . S
C1131 C1135 1.393 . S
C1132 H1121 0.950 . S
C1132 C1130 1.391 . S
C1132 C1133 1.400 . S
C1133 C1127 1.491 . S
C1133 C1132 1.400 . S
C1133 C1134 1.398 . S
C1134 H1122 0.950 . S
C1134 C1133 1.398 . S
C1134 C1135 1.391 . S
C1135 H1123 0.950 . S
C1135 C1131 1.393 . S
C1135 C1134 1.391 . S
H1136 C1144 0.950 . S
H1137 C1149 0.950 . S
H1138 C1146 0.950 . S
H1139 C1148 0.950 . S
H1140 C1150 0.950 . S
H1141 C1152 0.950 . S
H1142 C1154 0.950 . S
H1143 C1155 0.950 . S
C1144 H1136 0.950 . S
C1144 C1145 1.386 . S
C1144 C1146 1.391 . S
C1145 C1144 1.386 . S
C1145 C1149 1.393 . S
C1146 H1138 0.950 . S
C1146 C1144 1.391 . S
C1146 C1147 1.400 . S
C1147 C1146 1.400 . S
C1147 C1148 1.398 . S
C1147 C1153 1.491 . S
C1148 H1139 0.950 . S
C1148 C1147 1.398 . S
C1148 C1149 1.391 . S
C1149 H1137 0.950 . S
C1149 C1145 1.393 . S
C1149 C1148 1.391 . S
C1150 H1140 0.950 . S
C1150 C1151 1.386 . S
C1150 C1152 1.391 . S
C1151 C1150 1.386 . S
C1151 C1155 1.393 . S
C1152 H1141 0.950 . S
C1152 C1150 1.391 . S
C1152 C1153 1.400 . S
C1153 C1147 1.491 . S
C1153 C1152 1.400 . S
C1153 C1154 1.398 . S
C1154 H1142 0.950 . S
C1154 C1153 1.398 . S
C1154 C1155 1.391 . S
C1155 H1143 0.950 . S
C1155 C1151 1.393 . S
C1155 C1154 1.391 . S
H1156 C1164 0.950 1_556 S
H1157 C1169 0.950 . S
H1158 C1166 0.950 . S
H1159 C1168 0.950 . S
H1160 C1170 0.950 . S
H1161 C1172 0.950 . S
H1162 C1174 0.950 . S
H1163 C1175 0.950 . S
C1164 H1156 0.950 1_554 S
C1164 C1165 1.386 . S
C1164 C1166 1.391 . S
C1165 C1164 1.386 . S
C1165 C1169 1.393 . S
C1166 H1158 0.950 . S
C1166 C1164 1.391 . S
C1166 C1167 1.400 . S
C1167 C1166 1.400 . S
C1167 C1168 1.398 . S
C1167 C1173 1.491 . S
C1168 H1159 0.950 . S
C1168 C1167 1.398 . S
C1168 C1169 1.391 . S
C1169 H1157 0.950 . S
C1169 C1165 1.393 . S
C1169 C1168 1.391 . S
C1170 H1160 0.950 . S
C1170 C1171 1.386 . S
C1170 C1172 1.391 . S
C1171 C1170 1.386 . S
C1171 C1175 1.393 . S
C1172 H1161 0.950 . S
C1172 C1170 1.391 . S
C1172 C1173 1.400 . S
C1173 C1167 1.491 . S
C1173 C1172 1.400 . S
C1173 C1174 1.398 . S
C1174 H1162 0.950 . S
C1174 C1173 1.398 . S
C1174 C1175 1.391 . S
C1175 H1163 0.950 . S
C1175 C1171 1.393 . S
C1175 C1174 1.391 . S
H1176 C1184 0.950 . S
H1177 C1189 0.950 . S
H1178 C1186 0.950 . S
H1179 C1188 0.950 . S
H1180 C1190 0.950 1_554 S
H1181 C1192 0.950 . S
H1182 C1194 0.950 . S
H1183 C1195 0.950 . S
C1184 H1176 0.950 . S
C1184 C1185 1.386 . S
C1184 C1186 1.391 . S
C1185 C1184 1.386 . S
C1185 C1189 1.393 . S
C1186 H1178 0.950 . S
C1186 C1184 1.391 . S
C1186 C1187 1.400 . S
C1187 C1186 1.400 . S
C1187 C1188 1.398 . S
C1187 C1193 1.491 . S
C1188 H1179 0.950 . S
C1188 C1187 1.398 . S
C1188 C1189 1.391 . S
C1189 H1177 0.950 . S
C1189 C1185 1.393 . S
C1189 C1188 1.391 . S
C1190 H1180 0.950 1_556 S
C1190 C1191 1.386 . S
C1190 C1192 1.391 . S
C1191 C1190 1.386 . S
C1191 C1195 1.393 . S
C1192 H1181 0.950 . S
C1192 C1190 1.391 . S
C1192 C1193 1.400 . S
C1193 C1187 1.491 . S
C1193 C1192 1.400 . S
C1193 C1194 1.398 . S
C1194 H1182 0.950 . S
C1194 C1193 1.398 . S
C1194 C1195 1.391 . S
C1195 H1183 0.950 . S
C1195 C1191 1.393 . S
C1195 C1194 1.391 . S
H1196 C1204 0.950 . S
H1197 C1209 0.950 . S
H1198 C1206 0.950 . S
H1199 C1208 0.950 . S
H1200 C1210 0.950 . S
H1201 C1212 0.950 . S
H1202 C1214 0.950 . S
H1203 C1215 0.950 . S
C1204 H1196 0.950 . S
C1204 C1205 1.386 . S
C1204 C1206 1.391 . S
C1205 C1204 1.386 . S
C1205 C1209 1.393 . S
C1206 H1198 0.950 . S
C1206 C1204 1.391 . S
C1206 C1207 1.400 . S
C1207 C1206 1.400 . S
C1207 C1208 1.398 . S
C1207 C1213 1.491 . S
C1208 H1199 0.950 . S
C1208 C1207 1.398 . S
C1208 C1209 1.391 . S
C1209 H1197 0.950 . S
C1209 C1205 1.393 . S
C1209 C1208 1.391 . S
C1210 H1200 0.950 . S
C1210 C1211 1.386 . S
C1210 C1212 1.391 . S
C1211 C1210 1.386 . S
C1211 C1215 1.393 . S
C1212 H1201 0.950 . S
C1212 C1210 1.391 . S
C1212 C1213 1.400 . S
C1213 C1207 1.491 . S
C1213 C1212 1.400 . S
C1213 C1214 1.398 . S
C1214 H1202 0.950 . S
C1214 C1213 1.398 . S
C1214 C1215 1.391 . S
C1215 H1203 0.950 . S
C1215 C1211 1.393 . S
C1215 C1214 1.391 . S
H1216 C1224 0.950 1_556 S
H1217 C1229 0.950 . S
H1218 C1226 0.950 . S
H1219 C1228 0.950 . S
H1220 C1230 0.950 . S
H1221 C1232 0.950 . S
H1222 C1234 0.950 . S
H1223 C1235 0.950 . S
C1224 H1216 0.950 1_554 S
C1224 C1225 1.386 . S
C1224 C1226 1.391 . S
C1225 C1224 1.386 . S
C1225 C1229 1.393 . S
C1226 H1218 0.950 . S
C1226 C1224 1.391 . S
C1226 C1227 1.400 . S
C1227 C1226 1.400 . S
C1227 C1228 1.398 . S
C1227 C1233 1.491 . S
C1228 H1219 0.950 . S
C1228 C1227 1.398 . S
C1228 C1229 1.391 . S
C1229 H1217 0.950 . S
C1229 C1225 1.393 . S
C1229 C1228 1.391 . S
C1230 H1220 0.950 . S
C1230 C1231 1.386 . S
C1230 C1232 1.391 . S
C1231 C1230 1.386 . S
C1231 C1235 1.393 . S
C1232 H1221 0.950 . S
C1232 C1230 1.391 . S
C1232 C1233 1.400 . S
C1233 C1227 1.491 . S
C1233 C1232 1.400 . S
C1233 C1234 1.398 . S
C1234 H1222 0.950 . S
C1234 C1233 1.398 . S
C1234 C1235 1.391 . S
C1235 H1223 0.950 . S
C1235 C1231 1.393 . S
C1235 C1234 1.391 . S
H1236 C1244 0.950 . S
H1237 C1249 0.950 . S
H1238 C1246 0.950 . S
H1239 C1248 0.950 . S
H1240 C1250 0.950 . S
H1241 C1252 0.950 . S
H1242 C1254 0.950 . S
H1243 C1255 0.950 . S
C1244 H1236 0.950 . S
C1244 C1245 1.386 . S
C1244 C1246 1.391 . S
C1245 C1244 1.386 . S
C1245 C1249 1.393 . S
C1246 H1238 0.950 . S
C1246 C1244 1.391 . S
C1246 C1247 1.400 . S
C1247 C1246 1.400 . S
C1247 C1248 1.398 . S
C1247 C1253 1.491 . S
C1248 H1239 0.950 . S
C1248 C1247 1.398 . S
C1248 C1249 1.391 . S
C1249 H1237 0.950 . S
C1249 C1245 1.393 . S
C1249 C1248 1.391 . S
C1250 H1240 0.950 . S
C1250 C1251 1.386 . S
C1250 C1252 1.391 . S
C1251 C1250 1.386 . S
C1251 C1255 1.393 . S
C1252 H1241 0.950 . S
C1252 C1250 1.391 . S
C1252 C1253 1.400 . S
C1253 C1247 1.491 . S
C1253 C1252 1.400 . S
C1253 C1254 1.398 . S
C1254 H1242 0.950 . S
C1254 C1253 1.398 . S
C1254 C1255 1.391 . S
C1255 H1243 0.950 . S
C1255 C1251 1.393 . S
C1255 C1254 1.391 . S
H1256 C1264 0.950 . S
H1257 C1269 0.950 . S
H1258 C1266 0.950 . S
H1259 C1268 0.950 . S
H1260 C1270 0.950 . S
H1261 C1272 0.950 . S
H1262 C1274 0.950 . S
H1263 C1275 0.950 . S
C1264 H1256 0.950 . S
C1264 C1265 1.386 . S
C1264 C1266 1.391 . S
C1265 C1264 1.386 . S
C1265 C1269 1.393 . S
C1266 H1258 0.950 . S
C1266 C1264 1.391 . S
C1266 C1267 1.400 . S
C1267 C1266 1.400 . S
C1267 C1268 1.398 . S
C1267 C1273 1.491 . S
C1268 H1259 0.950 . S
C1268 C1267 1.398 . S
C1268 C1269 1.391 . S
C1269 H1257 0.950 . S
C1269 C1265 1.393 . S
C1269 C1268 1.391 . S
C1270 H1260 0.950 . S
C1270 C1271 1.386 . S
C1270 C1272 1.391 . S
C1271 C1270 1.386 . S
C1271 C1275 1.393 . S
C1272 H1261 0.950 . S
C1272 C1270 1.391 . S
C1272 C1273 1.400 . S
C1273 C1267 1.491 . S
C1273 C1272 1.400 . S
C1273 C1274 1.398 . S
C1274 H1262 0.950 . S
C1274 C1273 1.398 . S
C1274 C1275 1.391 . S
C1275 H1263 0.950 . S
C1275 C1271 1.393 . S
C1275 C1274 1.391 . S
H1276 C1284 0.950 . S
H1277 C1289 0.950 . S
H1278 C1286 0.950 . S
H1279 C1288 0.950 . S
H1280 C1290 0.950 . S
H1281 C1292 0.950 . S
H1282 C1294 0.950 . S
H1283 C1295 0.950 . S
C1284 H1276 0.950 . S
C1284 C1285 1.386 . S
C1284 C1286 1.391 . S
C1285 C1284 1.386 . S
C1285 C1289 1.393 . S
C1286 H1278 0.950 . S
C1286 C1284 1.391 . S
C1286 C1287 1.400 . S
C1287 C1286 1.400 . S
C1287 C1288 1.398 . S
C1287 C1293 1.491 . S
C1288 H1279 0.950 . S
C1288 C1287 1.398 . S
C1288 C1289 1.391 . S
C1289 H1277 0.950 . S
C1289 C1285 1.393 . S
C1289 C1288 1.391 . S
C1290 H1280 0.950 . S
C1290 C1291 1.386 . S
C1290 C1292 1.391 . S
C1291 C1290 1.386 . S
C1291 C1295 1.393 . S
C1292 H1281 0.950 . S
C1292 C1290 1.391 . S
C1292 C1293 1.400 . S
C1293 C1287 1.491 . S
C1293 C1292 1.400 . S
C1293 C1294 1.398 . S
C1294 H1282 0.950 . S
C1294 C1293 1.398 . S
C1294 C1295 1.391 . S
C1295 H1283 0.950 . S
C1295 C1291 1.393 . S
C1295 C1294 1.391 . S
H1296 C1304 0.950 . S
H1297 C1309 0.950 . S
H1298 C1306 0.950 . S
H1299 C1308 0.950 . S
H1300 C1310 0.950 1_554 S
H1301 C1312 0.950 . S
H1302 C1314 0.950 . S
H1303 C1315 0.950 . S
C1304 H1296 0.950 . S
C1304 C1305 1.386 . S
C1304 C1306 1.391 . S
C1305 C1304 1.386 . S
C1305 C1309 1.393 . S
C1306 H1298 0.950 . S
C1306 C1304 1.391 . S
C1306 C1307 1.400 . S
C1307 C1306 1.400 . S
C1307 C1308 1.398 . S
C1307 C1313 1.491 . S
C1308 H1299 0.950 . S
C1308 C1307 1.398 . S
C1308 C1309 1.391 . S
C1309 H1297 0.950 . S
C1309 C1305 1.393 . S
C1309 C1308 1.391 . S
C1310 H1300 0.950 1_556 S
C1310 C1311 1.386 . S
C1310 C1312 1.391 . S
C1311 C1310 1.386 . S
C1311 C1315 1.393 . S
C1312 H1301 0.950 . S
C1312 C1310 1.391 . S
C1312 C1313 1.400 . S
C1313 C1307 1.491 . S
C1313 C1312 1.400 . S
C1313 C1314 1.398 . S
C1314 H1302 0.950 . S
C1314 C1313 1.398 . S
C1314 C1315 1.391 . S
C1315 H1303 0.950 . S
C1315 C1311 1.393 . S
C1315 C1314 1.391 . S
H1316 C1324 0.950 . S
H1317 C1329 0.950 . S
H1318 C1326 0.950 . S
H1319 C1328 0.950 . S
H1320 C1330 0.950 . S
H1321 C1332 0.950 . S
H1322 C1334 0.950 . S
H1323 C1335 0.950 . S
C1324 H1316 0.950 . S
C1324 C1325 1.386 . S
C1324 C1326 1.391 . S
C1325 C1324 1.386 . S
C1325 C1329 1.393 . S
C1326 H1318 0.950 . S
C1326 C1324 1.391 . S
C1326 C1327 1.400 . S
C1327 C1326 1.400 . S
C1327 C1328 1.398 . S
C1327 C1333 1.491 . S
C1328 H1319 0.950 . S
C1328 C1327 1.398 . S
C1328 C1329 1.391 . S
C1329 H1317 0.950 . S
C1329 C1325 1.393 . S
C1329 C1328 1.391 . S
C1330 H1320 0.950 . S
C1330 C1331 1.386 . S
C1330 C1332 1.391 . S
C1331 C1330 1.386 . S
C1331 C1335 1.393 . S
C1332 H1321 0.950 . S
C1332 C1330 1.391 . S
C1332 C1333 1.400 . S
C1333 C1327 1.491 . S
C1333 C1332 1.400 . S
C1333 C1334 1.398 . S
C1334 H1322 0.950 . S
C1334 C1333 1.398 . S
C1334 C1335 1.391 . S
C1335 H1323 0.950 . S
C1335 C1331 1.393 . S
C1335 C1334 1.391 . S
H1336 C1344 0.950 . S
H1337 C1349 0.950 . S
H1338 C1346 0.950 . S
H1339 C1348 0.950 . S
H1340 C1350 0.950 . S
H1341 C1352 0.950 . S
H1342 C1354 0.950 . S
H1343 C1355 0.950 . S
C1344 H1336 0.950 . S
C1344 C1345 1.386 . S
C1344 C1346 1.391 . S
C1345 C1344 1.386 . S
C1345 C1349 1.393 . S
C1346 H1338 0.950 . S
C1346 C1344 1.391 . S
C1346 C1347 1.400 . S
C1347 C1346 1.400 . S
C1347 C1348 1.398 . S
C1347 C1353 1.491 . S
C1348 H1339 0.950 . S
C1348 C1347 1.398 . S
C1348 C1349 1.391 . S
C1349 H1337 0.950 . S
C1349 C1345 1.393 . S
C1349 C1348 1.391 . S
C1350 H1340 0.950 . S
C1350 C1351 1.386 . S
C1350 C1352 1.391 . S
C1351 C1350 1.386 . S
C1351 C1355 1.393 . S
C1352 H1341 0.950 . S
C1352 C1350 1.391 . S
C1352 C1353 1.400 . S
C1353 C1347 1.491 . S
C1353 C1352 1.400 . S
C1353 C1354 1.398 . S
C1354 H1342 0.950 . S
C1354 C1353 1.398 . S
C1354 C1355 1.391 . S
C1355 H1343 0.950 . S
C1355 C1351 1.393 . S
C1355 C1354 1.391 . S
H1356 C1364 0.950 . S
H1357 C1369 0.950 . S
H1358 C1366 0.950 . S
H1359 C1368 0.950 . S
H1360 C1370 0.950 . S
H1361 C1372 0.950 . S
H1362 C1374 0.950 . S
H1363 C1375 0.950 1_556 S
C1364 H1356 0.950 . S
C1364 C1365 1.386 . S
C1364 C1366 1.391 . S
C1365 C1364 1.386 . S
C1365 C1369 1.393 . S
C1366 H1358 0.950 . S
C1366 C1364 1.391 . S
C1366 C1367 1.400 . S
C1367 C1366 1.400 . S
C1367 C1368 1.398 . S
C1367 C1373 1.491 . S
C1368 H1359 0.950 . S
C1368 C1367 1.398 . S
C1368 C1369 1.391 . S
C1369 H1357 0.950 . S
C1369 C1365 1.393 . S
C1369 C1368 1.391 . S
C1370 H1360 0.950 . S
C1370 C1371 1.386 . S
C1370 C1372 1.391 . S
C1371 C1370 1.386 . S
C1371 C1375 1.393 . S
C1372 H1361 0.950 . S
C1372 C1370 1.391 . S
C1372 C1373 1.400 . S
C1373 C1367 1.491 . S
C1373 C1372 1.400 . S
C1373 C1374 1.398 . S
C1374 H1362 0.950 . S
C1374 C1373 1.398 . S
C1374 C1375 1.391 . S
C1375 H1363 0.950 1_554 S
C1375 C1371 1.393 . S
C1375 C1374 1.391 . S
H1376 C1384 0.950 . S
H1377 C1389 0.950 . S
H1378 C1386 0.950 . S
H1379 C1388 0.950 . S
H1380 C1390 0.950 . S
H1381 C1392 0.950 . S
H1382 C1394 0.950 . S
H1383 C1395 0.950 . S
C1384 H1376 0.950 . S
C1384 C1385 1.386 . S
C1384 C1386 1.391 . S
C1385 C1384 1.386 . S
C1385 C1389 1.393 . S
C1386 H1378 0.950 . S
C1386 C1384 1.391 . S
C1386 C1387 1.400 . S
C1387 C1386 1.400 . S
C1387 C1388 1.398 . S
C1387 C1393 1.491 . S
C1388 H1379 0.950 . S
C1388 C1387 1.398 . S
C1388 C1389 1.391 . S
C1389 H1377 0.950 . S
C1389 C1385 1.393 . S
C1389 C1388 1.391 . S
C1390 H1380 0.950 . S
C1390 C1391 1.386 . S
C1390 C1392 1.391 . S
C1391 C1390 1.386 . S
C1391 C1395 1.393 . S
C1392 H1381 0.950 . S
C1392 C1390 1.391 . S
C1392 C1393 1.400 . S
C1393 C1387 1.491 . S
C1393 C1392 1.400 . S
C1393 C1394 1.398 . S
C1394 H1382 0.950 . S
C1394 C1393 1.398 . S
C1394 C1395 1.391 . S
C1395 H1383 0.950 . S
C1395 C1391 1.393 . S
C1395 C1394 1.391 . S
H1396 C1404 0.950 . S
H1397 C1409 0.950 . S
H1398 C1406 0.950 . S
H1399 C1408 0.950 . S
H1400 C1410 0.950 . S
H1401 C1412 0.950 . S
H1402 C1414 0.950 . S
H1403 C1415 0.950 . S
C1404 H1396 0.950 . S
C1404 C1405 1.386 . S
C1404 C1406 1.391 . S
C1405 C1404 1.386 . S
C1405 C1409 1.393 . S
C1406 H1398 0.950 . S
C1406 C1404 1.391 . S
C1406 C1407 1.400 . S
C1407 C1406 1.400 . S
C1407 C1408 1.398 . S
C1407 C1413 1.491 1_565 S
C1408 H1399 0.950 . S
C1408 C1407 1.398 . S
C1408 C1409 1.391 . S
C1409 H1397 0.950 . S
C1409 C1405 1.393 . S
C1409 C1408 1.391 . S
C1410 H1400 0.950 . S
C1410 C1411 1.386 . S
C1410 C1412 1.391 . S
C1411 C1410 1.386 . S
C1411 C1415 1.393 . S
C1412 H1401 0.950 . S
C1412 C1410 1.391 . S
C1412 C1413 1.400 . S
C1413 C1407 1.491 1_545 S
C1413 C1412 1.400 . S
C1413 C1414 1.398 . S
C1414 H1402 0.950 . S
C1414 C1413 1.398 . S
C1414 C1415 1.391 . S
C1415 H1403 0.950 . S
C1415 C1411 1.393 . S
C1415 C1414 1.391 . S
H1416 C1424 0.950 . S
H1417 C1429 0.950 . S
H1418 C1426 0.950 . S
H1419 C1428 0.950 . S
H1420 C1430 0.950 . S
H1421 C1432 0.950 . S
H1422 C1434 0.950 . S
H1423 C1435 0.950 . S
C1424 H1416 0.950 . S
C1424 C1425 1.386 . S
C1424 C1426 1.391 . S
C1425 C1424 1.386 . S
C1425 C1429 1.393 1_554 S
C1426 H1418 0.950 . S
C1426 C1424 1.391 . S
C1426 C1427 1.405 . S
C1427 C1426 1.405 . S
C1427 C1428 1.394 1_554 S
C1427 C1433 1.490 1_554 S
C1428 H1419 0.950 . S
C1428 C1427 1.394 1_556 S
C1428 C1429 1.391 . S
C1429 H1417 0.950 . S
C1429 C1425 1.393 1_556 S
C1429 C1428 1.391 . S
C1430 H1420 0.950 . S
C1430 C1431 1.386 . S
C1430 C1432 1.391 . S
C1431 C1430 1.386 . S
C1431 C1435 1.393 1_556 S
C1432 H1421 0.950 . S
C1432 C1430 1.391 . S
C1432 C1433 1.405 . S
C1433 C1427 1.490 1_556 S
C1433 C1432 1.405 . S
C1433 C1434 1.394 1_556 S
C1434 H1422 0.950 . S
C1434 C1433 1.394 1_554 S
C1434 C1435 1.391 . S
C1435 H1423 0.950 . S
C1435 C1431 1.393 1_554 S
C1435 C1434 1.391 . S
H1436 C1444 0.950 . S
H1437 C1449 0.950 . S
H1438 C1446 0.950 . S
H1439 C1448 0.950 . S
H1440 C1450 0.950 . S
H1441 C1452 0.950 . S
H1442 C1454 0.950 . S
H1443 C1455 0.950 . S
C1444 H1436 0.950 . S
C1444 C1445 1.386 . S
C1444 C1446 1.391 . S
C1445 C1444 1.386 . S
C1445 C1449 1.393 . S
C1446 H1438 0.950 . S
C1446 C1444 1.391 . S
C1446 C1447 1.400 . S
C1447 C1446 1.400 . S
C1447 C1448 1.398 . S
C1447 C1453 1.491 1_545 S
C1448 H1439 0.950 . S
C1448 C1447 1.398 . S
C1448 C1449 1.391 . S
C1449 H1437 0.950 . S
C1449 C1445 1.393 . S
C1449 C1448 1.391 . S
C1450 H1440 0.950 . S
C1450 C1451 1.386 . S
C1450 C1452 1.391 . S
C1451 C1450 1.386 . S
C1451 C1455 1.393 . S
C1452 H1441 0.950 . S
C1452 C1450 1.391 . S
C1452 C1453 1.400 . S
C1453 C1447 1.491 1_565 S
C1453 C1452 1.400 . S
C1453 C1454 1.398 . S
C1454 H1442 0.950 . S
C1454 C1453 1.398 . S
C1454 C1455 1.391 . S
C1455 H1443 0.950 . S
C1455 C1451 1.393 . S
C1455 C1454 1.391 . S
H1456 C1464 0.950 . S
H1457 C1469 0.950 . S
H1458 C1466 0.950 . S
H1459 C1468 0.950 . S
H1460 C1470 0.950 . S
H1461 C1472 0.950 . S
H1462 C1474 0.950 . S
H1463 C1475 0.950 . S
C1464 H1456 0.950 . S
C1464 C1465 1.386 . S
C1464 C1466 1.391 . S
C1465 C1464 1.386 . S
C1465 C1469 1.393 . S
C1466 H1458 0.950 . S
C1466 C1464 1.391 . S
C1466 C1467 1.400 . S
C1467 C1466 1.400 . S
C1467 C1468 1.398 . S
C1467 C1473 1.491 . S
C1468 H1459 0.950 . S
C1468 C1467 1.398 . S
C1468 C1469 1.391 . S
C1469 H1457 0.950 . S
C1469 C1465 1.393 . S
C1469 C1468 1.391 . S
C1470 H1460 0.950 . S
C1470 C1471 1.386 . S
C1470 C1472 1.391 . S
C1471 C1470 1.386 . S
C1471 C1475 1.393 . S
C1472 H1461 0.950 . S
C1472 C1470 1.391 . S
C1472 C1473 1.400 . S
C1473 C1467 1.491 . S
C1473 C1472 1.400 . S
C1473 C1474 1.398 . S
C1474 H1462 0.950 . S
C1474 C1473 1.398 . S
C1474 C1475 1.391 . S
C1475 H1463 0.950 . S
C1475 C1471 1.393 . S
C1475 C1474 1.391 . S
H1476 C1484 0.950 . S
H1477 C1489 0.950 . S
H1478 C1486 0.950 . S
H1479 C1488 0.950 . S
H1480 C1490 0.950 . S
H1481 C1492 0.950 . S
H1482 C1494 0.950 . S
H1483 C1495 0.950 . S
C1484 H1476 0.950 . S
C1484 C1485 1.386 . S
C1484 C1486 1.391 . S
C1485 C1484 1.386 . S
C1485 C1489 1.393 . S
C1486 H1478 0.950 . S
C1486 C1484 1.391 . S
C1486 C1487 1.400 . S
C1487 C1486 1.400 . S
C1487 C1488 1.398 . S
C1487 C1493 1.491 1_545 S
C1488 H1479 0.950 . S
C1488 C1487 1.398 . S
C1488 C1489 1.391 . S
C1489 H1477 0.950 . S
C1489 C1485 1.393 . S
C1489 C1488 1.391 . S
C1490 H1480 0.950 . S
C1490 C1491 1.386 . S
C1490 C1492 1.391 . S
C1491 C1490 1.386 . S
C1491 C1495 1.393 . S
C1492 H1481 0.950 . S
C1492 C1490 1.391 . S
C1492 C1493 1.400 . S
C1493 C1487 1.491 1_565 S
C1493 C1492 1.400 . S
C1493 C1494 1.398 . S
C1494 H1482 0.950 . S
C1494 C1493 1.398 . S
C1494 C1495 1.391 . S
C1495 H1483 0.950 . S
C1495 C1491 1.393 . S
C1495 C1494 1.391 . S
H1496 C1504 0.950 . S
H1497 C1509 0.950 . S
H1498 C1506 0.950 . S
H1499 C1508 0.950 . S
H1500 C1510 0.950 . S
H1501 C1512 0.950 . S
H1502 C1514 0.950 . S
H1503 C1515 0.950 . S
C1504 H1496 0.950 . S
C1504 C1505 1.386 1_556 S
C1504 C1506 1.391 . S
C1505 C1504 1.386 1_554 S
C1505 C1509 1.393 . S
C1506 H1498 0.950 . S
C1506 C1504 1.391 . S
C1506 C1507 1.400 1_556 S
C1507 C1506 1.400 1_554 S
C1507 C1508 1.398 . S
C1507 C1513 1.491 1_554 S
C1508 H1499 0.950 . S
C1508 C1507 1.398 . S
C1508 C1509 1.391 . S
C1509 H1497 0.950 . S
C1509 C1505 1.393 . S
C1509 C1508 1.391 . S
C1510 H1500 0.950 . S
C1510 C1511 1.386 1_554 S
C1510 C1512 1.391 . S
C1511 C1510 1.386 1_556 S
C1511 C1515 1.393 . S
C1512 H1501 0.950 . S
C1512 C1510 1.391 . S
C1512 C1513 1.400 1_554 S
C1513 C1507 1.491 1_556 S
C1513 C1512 1.400 1_556 S
C1513 C1514 1.398 . S
C1514 H1502 0.950 . S
C1514 C1513 1.398 . S
C1514 C1515 1.391 . S
C1515 H1503 0.950 . S
C1515 C1511 1.393 . S
C1515 C1514 1.391 . S
H1516 C1524 0.950 . S
H1517 C1529 0.950 . S
H1518 C1526 0.950 . S
H1519 C1528 0.950 . S
H1520 C1530 0.950 . S
H1521 C1532 0.950 . S
H1522 C1534 0.950 . S
H1523 C1535 0.950 . S
C1524 H1516 0.950 . S
C1524 C1525 1.386 . S
C1524 C1526 1.391 . S
C1525 C1524 1.386 . S
C1525 C1529 1.393 . S
C1526 H1518 0.950 . S
C1526 C1524 1.391 . S
C1526 C1527 1.400 . S
C1527 C1526 1.400 . S
C1527 C1528 1.398 . S
C1527 C1533 1.491 1_545 S
C1528 H1519 0.950 . S
C1528 C1527 1.398 . S
C1528 C1529 1.391 . S
C1529 H1517 0.950 . S
C1529 C1525 1.393 . S
C1529 C1528 1.391 . S
C1530 H1520 0.950 . S
C1530 C1531 1.386 . S
C1530 C1532 1.391 . S
C1531 C1530 1.386 . S
C1531 C1535 1.393 . S
C1532 H1521 0.950 . S
C1532 C1530 1.391 . S
C1532 C1533 1.400 . S
C1533 C1527 1.491 1_565 S
C1533 C1532 1.400 . S
C1533 C1534 1.398 . S
C1534 H1522 0.950 . S
C1534 C1533 1.398 . S
C1534 C1535 1.391 . S
C1535 H1523 0.950 . S
C1535 C1531 1.393 . S
C1535 C1534 1.391 . S
H1536 C1544 0.950 . S
H1537 C1549 0.950 . S
H1538 C1546 0.950 . S
H1539 C1548 0.950 . S
H1540 C1550 0.950 . S
H1541 C1552 0.950 . S
H1542 C1554 0.950 . S
H1543 C1555 0.950 . S
C1544 H1536 0.950 . S
C1544 C1545 1.386 1_554 S
C1544 C1546 1.391 . S
C1545 C1544 1.386 1_556 S
C1545 C1549 1.393 . S
C1546 H1538 0.950 . S
C1546 C1544 1.391 . S
C1546 C1547 1.400 1_554 S
C1547 C1546 1.400 1_556 S
C1547 C1548 1.398 . S
C1547 C1553 1.491 1_556 S
C1548 H1539 0.950 . S
C1548 C1547 1.398 . S
C1548 C1549 1.391 . S
C1549 H1537 0.950 . S
C1549 C1545 1.393 . S
C1549 C1548 1.391 . S
C1550 H1540 0.950 . S
C1550 C1551 1.386 1_556 S
C1550 C1552 1.391 . S
C1551 C1550 1.386 1_554 S
C1551 C1555 1.393 . S
C1552 H1541 0.950 . S
C1552 C1550 1.391 . S
C1552 C1553 1.400 1_556 S
C1553 C1547 1.491 1_554 S
C1553 C1552 1.400 1_554 S
C1553 C1554 1.398 . S
C1554 H1542 0.950 . S
C1554 C1553 1.398 . S
C1554 C1555 1.391 . S
C1555 H1543 0.950 . S
C1555 C1551 1.393 . S
C1555 C1554 1.391 . S
H1556 C1564 0.950 . S
H1557 C1569 0.950 . S
H1558 C1566 0.950 . S
H1559 C1568 0.950 . S
H1560 C1570 0.950 . S
H1561 C1572 0.950 . S
H1562 C1574 0.950 . S
H1563 C1575 0.950 . S
C1564 H1556 0.950 . S
C1564 C1565 1.386 . S
C1564 C1566 1.391 . S
C1565 C1564 1.386 . S
C1565 C1569 1.393 . S
C1566 H1558 0.950 . S
C1566 C1564 1.391 . S
C1566 C1567 1.400 . S
C1567 C1566 1.400 . S
C1567 C1568 1.398 . S
C1567 C1573 1.491 . S
C1568 H1559 0.950 . S
C1568 C1567 1.398 . S
C1568 C1569 1.391 . S
C1569 H1557 0.950 . S
C1569 C1565 1.393 . S
C1569 C1568 1.391 . S
C1570 H1560 0.950 . S
C1570 C1571 1.386 . S
C1570 C1572 1.391 . S
C1571 C1570 1.386 . S
C1571 C1575 1.393 . S
C1572 H1561 0.950 . S
C1572 C1570 1.391 . S
C1572 C1573 1.400 . S
C1573 C1567 1.491 . S
C1573 C1572 1.400 . S
C1573 C1574 1.398 . S
C1574 H1562 0.950 . S
C1574 C1573 1.398 . S
C1574 C1575 1.391 . S
C1575 H1563 0.950 . S
C1575 C1571 1.393 . S
C1575 C1574 1.391 . S
H1576 C1584 0.950 . S
H1577 C1589 0.950 . S
H1578 C1586 0.950 . S
H1579 C1588 0.950 . S
H1580 C1590 0.950 . S
H1581 C1592 0.950 . S
H1582 C1594 0.950 . S
H1583 C1595 0.950 . S
C1584 H1576 0.950 . S
C1584 C1585 1.386 . S
C1584 C1586 1.391 . S
C1585 C1584 1.386 . S
C1585 C1589 1.393 . S
C1586 H1578 0.950 . S
C1586 C1584 1.391 . S
C1586 C1587 1.400 . S
C1587 C1586 1.400 . S
C1587 C1588 1.398 . S
C1587 C1593 1.491 . S
C1588 H1579 0.950 . S
C1588 C1587 1.398 . S
C1588 C1589 1.391 . S
C1589 H1577 0.950 . S
C1589 C1585 1.393 . S
C1589 C1588 1.391 . S
C1590 H1580 0.950 . S
C1590 C1591 1.386 . S
C1590 C1592 1.391 . S
C1591 C1590 1.386 . S
C1591 C1595 1.393 . S
C1592 H1581 0.950 . S
C1592 C1590 1.391 . S
C1592 C1593 1.400 . S
C1593 C1587 1.491 . S
C1593 C1592 1.400 . S
C1593 C1594 1.398 . S
C1594 H1582 0.950 . S
C1594 C1593 1.398 . S
C1594 C1595 1.391 . S
C1595 H1583 0.950 . S
C1595 C1591 1.393 . S
C1595 C1594 1.391 . S
H1596 C1604 0.950 . S
H1597 C1609 0.950 . S
H1598 C1606 0.950 . S
H1599 C1608 0.950 . S
H1600 C1610 0.950 . S
H1601 C1612 0.950 . S
H1602 C1614 0.950 . S
H1603 C1615 0.950 . S
C1604 H1596 0.950 . S
C1604 C1605 1.386 . S
C1604 C1606 1.391 . S
C1605 C1604 1.386 . S
C1605 C1609 1.393 . S
C1606 H1598 0.950 . S
C1606 C1604 1.391 . S
C1606 C1607 1.400 . S
C1607 C1606 1.400 . S
C1607 C1608 1.398 . S
C1607 C1613 1.491 . S
C1608 H1599 0.950 . S
C1608 C1607 1.398 . S
C1608 C1609 1.391 . S
C1609 H1597 0.950 . S
C1609 C1605 1.393 . S
C1609 C1608 1.391 . S
C1610 H1600 0.950 . S
C1610 C1611 1.386 . S
C1610 C1612 1.391 . S
C1611 C1610 1.386 . S
C1611 C1615 1.393 . S
C1612 H1601 0.950 . S
C1612 C1610 1.391 . S
C1612 C1613 1.400 . S
C1613 C1607 1.491 . S
C1613 C1612 1.400 . S
C1613 C1614 1.398 . S
C1614 H1602 0.950 . S
C1614 C1613 1.398 . S
C1614 C1615 1.391 . S
C1615 H1603 0.950 . S
C1615 C1611 1.393 . S
C1615 C1614 1.391 . S
H1616 C1624 0.950 . S
H1617 C1629 0.950 . S
H1618 C1626 0.950 . S
H1619 C1628 0.950 . S
H1620 C1630 0.950 . S
H1621 C1632 0.950 . S
H1622 C1634 0.950 . S
H1623 C1635 0.950 . S
C1624 H1616 0.950 . S
C1624 C1625 1.386 1_554 S
C1624 C1626 1.391 . S
C1625 C1624 1.386 1_556 S
C1625 C1629 1.393 . S
C1626 H1618 0.950 . S
C1626 C1624 1.391 . S
C1626 C1627 1.400 1_554 S
C1627 C1626 1.400 1_556 S
C1627 C1628 1.398 . S
C1627 C1633 1.491 1_556 S
C1628 H1619 0.950 . S
C1628 C1627 1.398 . S
C1628 C1629 1.391 . S
C1629 H1617 0.950 . S
C1629 C1625 1.393 . S
C1629 C1628 1.391 . S
C1630 H1620 0.950 . S
C1630 C1631 1.386 1_556 S
C1630 C1632 1.391 . S
C1631 C1630 1.386 1_554 S
C1631 C1635 1.393 . S
C1632 H1621 0.950 . S
C1632 C1630 1.391 . S
C1632 C1633 1.400 1_556 S
C1633 C1627 1.491 1_554 S
C1633 C1632 1.400 1_554 S
C1633 C1634 1.398 . S
C1634 H1622 0.950 . S
C1634 C1633 1.398 . S
C1634 C1635 1.391 . S
C1635 H1623 0.950 . S
C1635 C1631 1.393 . S
C1635 C1634 1.391 . S
H1636 C1644 0.950 . S
H1637 C1649 0.950 . S
H1638 C1646 0.950 . S
H1639 C1648 0.950 . S
H1640 C1650 0.950 . S
H1641 C1652 0.950 . S
H1642 C1654 0.950 . S
H1643 C1655 0.950 . S
C1644 H1636 0.950 . S
C1644 C1645 1.386 . S
C1644 C1646 1.391 . S
C1645 C1644 1.386 . S
C1645 C1649 1.393 . S
C1646 H1638 0.950 . S
C1646 C1644 1.391 . S
C1646 C1647 1.400 . S
C1647 C1646 1.400 . S
C1647 C1648 1.398 . S
C1647 C1653 1.491 . S
C1648 H1639 0.950 . S
C1648 C1647 1.398 . S
C1648 C1649 1.391 . S
C1649 H1637 0.950 . S
C1649 C1645 1.393 . S
C1649 C1648 1.391 . S
C1650 H1640 0.950 . S
C1650 C1651 1.386 . S
C1650 C1652 1.391 . S
C1651 C1650 1.386 . S
C1651 C1655 1.393 . S
C1652 H1641 0.950 . S
C1652 C1650 1.391 . S
C1652 C1653 1.400 . S
C1653 C1647 1.491 . S
C1653 C1652 1.400 . S
C1653 C1654 1.398 . S
C1654 H1642 0.950 . S
C1654 C1653 1.398 . S
C1654 C1655 1.391 . S
C1655 H1643 0.950 . S
C1655 C1651 1.393 . S
C1655 C1654 1.391 . S
H1656 C1664 0.950 . S
H1657 C1669 0.950 . S
H1658 C1666 0.950 . S
H1659 C1668 0.950 . S
H1660 C1670 0.950 . S
H1661 C1672 0.950 . S
H1662 C1674 0.950 . S
H1663 C1675 0.950 . S
C1664 H1656 0.950 . S
C1664 C1665 1.386 . S
C1664 C1666 1.391 . S
C1665 C1664 1.386 . S
C1665 C1669 1.393 . S
C1666 H1658 0.950 . S
C1666 C1664 1.391 . S
C1666 C1667 1.400 . S
C1667 C1666 1.400 . S
C1667 C1668 1.398 . S
C1667 C1673 1.491 . S
C1668 H1659 0.950 . S
C1668 C1667 1.398 . S
C1668 C1669 1.391 . S
C1669 H1657 0.950 . S
C1669 C1665 1.393 . S
C1669 C1668 1.391 . S
C1670 H1660 0.950 . S
C1670 C1671 1.386 . S
C1670 C1672 1.391 . S
C1671 C1670 1.386 . S
C1671 C1675 1.393 . S
C1672 H1661 0.950 . S
C1672 C1670 1.391 . S
C1672 C1673 1.400 . S
C1673 C1667 1.491 . S
C1673 C1672 1.400 . S
C1673 C1674 1.398 . S
C1674 H1662 0.950 . S
C1674 C1673 1.398 . S
C1674 C1675 1.391 . S
C1675 H1663 0.950 . S
C1675 C1671 1.393 . S
C1675 C1674 1.391 . S
H1676 C1684 0.950 . S
H1677 C1689 0.950 . S
H1678 C1686 0.950 . S
H1679 C1688 0.950 . S
H1680 C1690 0.950 . S
H1681 C1692 0.950 . S
H1682 C1694 0.950 . S
H1683 C1695 0.950 . S
C1684 H1676 0.950 . S
C1684 C1685 1.386 . S
C1684 C1686 1.391 . S
C1685 C1684 1.386 . S
C1685 C1689 1.393 . S
C1686 H1678 0.950 . S
C1686 C1684 1.391 . S
C1686 C1687 1.400 . S
C1687 C1686 1.400 . S
C1687 C1688 1.398 . S
C1687 C1693 1.491 . S
C1688 H1679 0.950 . S
C1688 C1687 1.398 . S
C1688 C1689 1.391 . S
C1689 H1677 0.950 . S
C1689 C1685 1.393 . S
C1689 C1688 1.391 . S
C1690 H1680 0.950 . S
C1690 C1691 1.386 . S
C1690 C1692 1.391 . S
C1691 C1690 1.386 . S
C1691 C1695 1.393 . S
C1692 H1681 0.950 . S
C1692 C1690 1.391 . S
C1692 C1693 1.400 . S
C1693 C1687 1.491 . S
C1693 C1692 1.400 . S
C1693 C1694 1.398 . S
C1694 H1682 0.950 . S
C1694 C1693 1.398 . S
C1694 C1695 1.391 . S
C1695 H1683 0.950 . S
C1695 C1691 1.393 . S
C1695 C1694 1.391 . S
H1696 C1704 0.950 . S
H1697 C1709 0.950 . S
H1698 C1706 0.950 . S
H1699 C1708 0.950 . S
H1700 C1710 0.950 . S
H1701 C1712 0.950 . S
H1702 C1714 0.950 . S
H1703 C1715 0.950 . S
C1704 H1696 0.950 . S
C1704 C1705 1.386 . S
C1704 C1706 1.391 . S
C1705 C1704 1.386 . S
C1705 C1709 1.393 . S
C1706 H1698 0.950 . S
C1706 C1704 1.391 . S
C1706 C1707 1.400 . S
C1707 C1706 1.400 . S
C1707 C1708 1.398 . S
C1707 C1713 1.491 . S
C1708 H1699 0.950 . S
C1708 C1707 1.398 . S
C1708 C1709 1.391 . S
C1709 H1697 0.950 . S
C1709 C1705 1.393 . S
C1709 C1708 1.391 . S
C1710 H1700 0.950 . S
C1710 C1711 1.386 . S
C1710 C1712 1.391 . S
C1711 C1710 1.386 . S
C1711 C1715 1.393 . S
C1712 H1701 0.950 . S
C1712 C1710 1.391 . S
C1712 C1713 1.400 . S
C1713 C1707 1.491 . S
C1713 C1712 1.400 . S
C1713 C1714 1.398 . S
C1714 H1702 0.950 . S
C1714 C1713 1.398 . S
C1714 C1715 1.391 . S
C1715 H1703 0.950 . S
C1715 C1711 1.393 . S
C1715 C1714 1.391 . S
H1716 C1724 0.950 . S
H1717 C1729 0.950 . S
H1718 C1726 0.950 . S
H1719 C1728 0.950 1_455 S
H1720 C1730 0.950 . S
H1721 C1732 0.950 . S
H1722 C1734 0.963 . S
H1723 C1735 0.950 . S
C1724 H1716 0.950 . S
C1724 C1725 1.386 . S
C1724 C1726 1.391 . S
C1725 C1724 1.386 . S
C1725 C1729 1.393 . S
C1726 H1718 0.950 . S
C1726 C1724 1.391 . S
C1726 C1727 1.400 . S
C1727 C1726 1.400 . S
C1727 C1728 1.398 . S
C1727 C1733 1.491 1_655 S
C1728 H1719 0.950 1_655 S
C1728 C1727 1.398 . S
C1728 C1729 1.391 . S
C1729 H1717 0.950 . S
C1729 C1725 1.393 . S
C1729 C1728 1.391 . S
C1730 H1720 0.950 . S
C1730 C1731 1.386 . S
C1730 C1732 1.391 . S
C1731 C1730 1.386 . S
C1731 C1735 1.393 . S
C1732 H1721 0.950 . S
C1732 C1730 1.391 . S
C1732 C1733 1.400 . S
C1733 C1727 1.491 1_455 S
C1733 C1732 1.400 . S
C1733 C1734 1.398 . S
C1734 H1722 0.963 . S
C1734 C1733 1.398 . S
C1734 C1735 1.391 . S
C1735 H1723 0.950 . S
C1735 C1731 1.393 . S
C1735 C1734 1.391 . S
H1736 C1744 0.950 . S
H1737 C1749 0.950 . S
H1738 C1746 0.950 . S
H1739 C1748 0.950 . S
H1740 C1750 0.950 . S
H1741 C1752 0.950 . S
H1742 C1754 0.950 . S
H1743 C1755 0.950 . S
C1744 H1736 0.950 . S
C1744 C1745 1.386 . S
C1744 C1746 1.391 . S
C1745 C1744 1.386 . S
C1745 C1749 1.393 . S
C1746 H1738 0.950 . S
C1746 C1744 1.391 . S
C1746 C1747 1.400 . S
C1747 C1746 1.400 . S
C1747 C1748 1.398 . S
C1747 C1753 1.491 . S
C1748 H1739 0.950 . S
C1748 C1747 1.398 . S
C1748 C1749 1.391 . S
C1749 H1737 0.950 . S
C1749 C1745 1.393 . S
C1749 C1748 1.391 . S
C1750 H1740 0.950 . S
C1750 C1751 1.386 . S
C1750 C1752 1.391 . S
C1751 C1750 1.386 . S
C1751 C1755 1.393 . S
C1752 H1741 0.950 . S
C1752 C1750 1.391 . S
C1752 C1753 1.400 . S
C1753 C1747 1.491 . S
C1753 C1752 1.400 . S
C1753 C1754 1.398 . S
C1754 H1742 0.950 . S
C1754 C1753 1.398 . S
C1754 C1755 1.391 . S
C1755 H1743 0.950 . S
C1755 C1751 1.393 . S
C1755 C1754 1.391 . S
H1756 C1764 0.950 . S
H1757 C1769 0.950 . S
H1758 C1766 0.950 . S
H1759 C1768 0.950 . S
H1760 C1770 0.950 . S
H1761 C1772 0.950 . S
H1762 C1774 0.950 . S
H1763 C1775 0.950 . S
C1764 H1756 0.950 . S
C1764 C1765 1.386 . S
C1764 C1766 1.391 . S
C1765 C1764 1.386 . S
C1765 C1769 1.393 . S
C1766 H1758 0.950 . S
C1766 C1764 1.391 . S
C1766 C1767 1.400 . S
C1767 C1766 1.400 . S
C1767 C1768 1.398 1_554 S
C1767 C1773 1.491 1_554 S
C1768 H1759 0.950 . S
C1768 C1767 1.398 1_556 S
C1768 C1769 1.391 1_556 S
C1769 H1757 0.950 . S
C1769 C1765 1.393 . S
C1769 C1768 1.391 1_554 S
C1770 H1760 0.950 . S
C1770 C1771 1.386 . S
C1770 C1772 1.391 . S
C1771 C1770 1.386 . S
C1771 C1775 1.393 . S
C1772 H1761 0.950 . S
C1772 C1770 1.391 . S
C1772 C1773 1.400 . S
C1773 C1767 1.491 1_556 S
C1773 C1772 1.400 . S
C1773 C1774 1.398 1_556 S
C1774 H1762 0.950 . S
C1774 C1773 1.398 1_554 S
C1774 C1775 1.391 1_554 S
C1775 H1763 0.950 . S
C1775 C1771 1.393 . S
C1775 C1774 1.391 1_556 S
H1776 C1784 0.950 . S
H1777 C1789 0.950 . S
H1778 C1786 0.950 . S
H1779 C1788 0.950 . S
H1780 C1790 0.950 . S
H1781 C1792 0.950 . S
H1782 C1794 0.950 . S
H1783 C1795 0.950 . S
C1784 H1776 0.950 . S
C1784 C1785 1.386 . S
C1784 C1786 1.391 . S
C1785 C1784 1.386 . S
C1785 C1789 1.393 . S
C1786 H1778 0.950 . S
C1786 C1784 1.391 . S
C1786 C1787 1.400 . S
C1787 C1786 1.400 . S
C1787 C1788 1.398 . S
C1787 C1793 1.491 . S
C1788 H1779 0.950 . S
C1788 C1787 1.398 . S
C1788 C1789 1.391 . S
C1789 H1777 0.950 . S
C1789 C1785 1.393 . S
C1789 C1788 1.391 . S
C1790 H1780 0.950 . S
C1790 C1791 1.386 . S
C1790 C1792 1.391 . S
C1791 C1790 1.386 . S
C1791 C1795 1.393 . S
C1792 H1781 0.950 . S
C1792 C1790 1.391 . S
C1792 C1793 1.400 . S
C1793 C1787 1.491 . S
C1793 C1792 1.400 . S
C1793 C1794 1.398 . S
C1794 H1782 0.950 . S
C1794 C1793 1.398 . S
C1794 C1795 1.391 . S
C1795 H1783 0.950 . S
C1795 C1791 1.393 . S
C1795 C1794 1.391 . S
H1796 C1804 0.950 . S
H1797 C1809 0.950 . S
H1798 C1806 0.950 . S
H1799 C1808 0.950 . S
H1800 C1810 0.950 . S
H1801 C1812 0.950 . S
H1802 C1814 0.950 . S
H1803 C1815 0.950 . S
C1804 H1796 0.950 . S
C1804 C1805 1.386 . S
C1804 C1806 1.391 . S
C1805 C1804 1.386 . S
C1805 C1809 1.393 . S
C1806 H1798 0.950 . S
C1806 C1804 1.391 . S
C1806 C1807 1.400 . S
C1807 C1806 1.400 . S
C1807 C1808 1.398 . S
C1807 C1813 1.491 . S
C1808 H1799 0.950 . S
C1808 C1807 1.398 . S
C1808 C1809 1.391 . S
C1809 H1797 0.950 . S
C1809 C1805 1.393 . S
C1809 C1808 1.391 . S
C1810 H1800 0.950 . S
C1810 C1811 1.386 . S
C1810 C1812 1.391 . S
C1811 C1810 1.386 . S
C1811 C1815 1.393 . S
C1812 H1801 0.950 . S
C1812 C1810 1.391 . S
C1812 C1813 1.400 . S
C1813 C1807 1.491 . S
C1813 C1812 1.400 . S
C1813 C1814 1.398 . S
C1814 H1802 0.950 . S
C1814 C1813 1.398 . S
C1814 C1815 1.391 . S
C1815 H1803 0.950 . S
C1815 C1811 1.393 . S
C1815 C1814 1.391 . S
H1816 C1824 0.950 . S
H1817 C1829 0.950 . S
H1818 C1826 0.950 . S
H1819 C1828 0.950 . S
H1820 C1830 0.950 . S
H1821 C1832 0.950 . S
H1822 C1834 0.950 . S
H1823 C1835 0.950 . S
C1824 H1816 0.950 . S
C1824 C1825 1.386 . S
C1824 C1826 1.391 . S
C1825 C1824 1.386 . S
C1825 C1829 1.393 . S
C1826 H1818 0.950 . S
C1826 C1824 1.391 . S
C1826 C1827 1.400 . S
C1827 C1826 1.400 . S
C1827 C1828 1.398 . S
C1827 C1833 1.491 . S
C1828 H1819 0.950 . S
C1828 C1827 1.398 . S
C1828 C1829 1.391 . S
C1829 H1817 0.950 . S
C1829 C1825 1.393 . S
C1829 C1828 1.391 . S
C1830 H1820 0.950 . S
C1830 C1831 1.386 . S
C1830 C1832 1.391 . S
C1831 C1830 1.386 . S
C1831 C1835 1.393 . S
C1832 H1821 0.950 . S
C1832 C1830 1.391 . S
C1832 C1833 1.400 . S
C1833 C1827 1.491 . S
C1833 C1832 1.400 . S
C1833 C1834 1.398 . S
C1834 H1822 0.950 . S
C1834 C1833 1.398 . S
C1834 C1835 1.391 . S
C1835 H1823 0.950 . S
C1835 C1831 1.393 . S
C1835 C1834 1.391 . S
H1836 C1844 0.950 . S
H1837 C1849 0.950 . S
H1838 C1846 0.950 . S
H1839 C1848 0.950 . S
H1840 C1850 0.950 . S
H1841 C1852 0.950 . S
H1842 C1854 0.950 1_455 S
H1843 C1855 0.950 . S
C1844 H1836 0.950 . S
C1844 C1845 1.386 . S
C1844 C1846 1.391 1_556 S
C1845 C1844 1.386 . S
C1845 C1849 1.393 . S
C1846 H1838 0.950 . S
C1846 C1844 1.391 1_554 S
C1846 C1847 1.400 1_554 S
C1847 C1846 1.400 1_556 S
C1847 C1848 1.398 . S
C1847 C1853 1.491 1_456 S
C1848 H1839 0.950 . S
C1848 C1847 1.398 . S
C1848 C1849 1.391 . S
C1849 H1837 0.950 . S
C1849 C1845 1.393 . S
C1849 C1848 1.391 . S
C1850 H1840 0.950 . S
C1850 C1851 1.386 . S
C1850 C1852 1.391 1_554 S
C1851 C1850 1.386 . S
C1851 C1855 1.393 . S
C1852 H1841 0.950 . S
C1852 C1850 1.391 1_556 S
C1852 C1853 1.400 1_556 S
C1853 C1847 1.491 1_654 S
C1853 C1852 1.400 1_554 S
C1853 C1854 1.398 . S
C1854 H1842 0.950 1_655 S
C1854 C1853 1.398 . S
C1854 C1855 1.391 . S
C1855 H1843 0.950 . S
C1855 C1851 1.393 . S
C1855 C1854 1.391 . S
H1856 C1864 0.950 . S
H1857 C1869 0.950 . S
H1858 C1866 0.950 . S
H1859 C1868 0.950 . S
H1860 C1870 0.950 . S
H1861 C1872 0.950 . S
H1862 C1874 0.950 . S
H1863 C1875 0.950 . S
C1864 H1856 0.950 . S
C1864 C1865 1.386 . S
C1864 C1866 1.391 . S
C1865 C1864 1.386 . S
C1865 C1869 1.393 . S
C1866 H1858 0.950 . S
C1866 C1864 1.391 . S
C1866 C1867 1.400 . S
C1867 C1866 1.400 . S
C1867 C1868 1.398 . S
C1867 C1873 1.491 . S
C1868 H1859 0.950 . S
C1868 C1867 1.398 . S
C1868 C1869 1.391 . S
C1869 H1857 0.950 . S
C1869 C1865 1.393 . S
C1869 C1868 1.391 . S
C1870 H1860 0.950 . S
C1870 C1871 1.386 . S
C1870 C1872 1.391 . S
C1871 C1870 1.386 . S
C1871 C1875 1.393 . S
C1872 H1861 0.950 . S
C1872 C1870 1.391 . S
C1872 C1873 1.400 . S
C1873 C1867 1.491 . S
C1873 C1872 1.400 . S
C1873 C1874 1.398 . S
C1874 H1862 0.950 . S
C1874 C1873 1.398 . S
C1874 C1875 1.391 . S
C1875 H1863 0.950 . S
C1875 C1871 1.393 . S
C1875 C1874 1.391 . S
H1876 C1884 0.950 . S
H1877 C1889 0.950 . S
H1878 C1886 0.950 . S
H1879 C1888 0.950 1_655 S
H1880 C1890 0.950 . S
H1881 C1892 0.950 . S
H1882 C1894 0.950 . S
H1883 C1895 0.950 . S
C1884 H1876 0.950 . S
C1884 C1885 1.386 . S
C1884 C1886 1.391 . S
C1885 C1884 1.386 . S
C1885 C1889 1.393 . S
C1886 H1878 0.950 . S
C1886 C1884 1.391 . S
C1886 C1887 1.400 . S
C1887 C1886 1.400 . S
C1887 C1888 1.398 . S
C1887 C1893 1.491 1_455 S
C1888 H1879 0.950 1_455 S
C1888 C1887 1.398 . S
C1888 C1889 1.391 . S
C1889 H1877 0.950 . S
C1889 C1885 1.393 . S
C1889 C1888 1.391 . S
C1890 H1880 0.950 . S
C1890 C1891 1.386 . S
C1890 C1892 1.391 . S
C1891 C1890 1.386 . S
C1891 C1895 1.393 . S
C1892 H1881 0.950 . S
C1892 C1890 1.391 . S
C1892 C1893 1.400 . S
C1893 C1887 1.491 1_655 S
C1893 C1892 1.400 . S
C1893 C1894 1.398 . S
C1894 H1882 0.950 . S
C1894 C1893 1.398 . S
C1894 C1895 1.391 . S
C1895 H1883 0.950 . S
C1895 C1891 1.393 . S
C1895 C1894 1.391 . S
H1896 C1904 0.950 . S
H1897 C1909 0.950 . S
H1898 C1906 0.950 . S
H1899 C1908 0.950 . S
H1900 C1910 0.950 . S
H1901 C1912 0.950 . S
H1902 C1914 0.950 . S
H1903 C1915 0.950 . S
C1904 H1896 0.950 . S
C1904 C1905 1.386 . S
C1904 C1906 1.391 . S
C1905 C1904 1.386 . S
C1905 C1909 1.393 . S
C1906 H1898 0.950 . S
C1906 C1904 1.391 . S
C1906 C1907 1.400 . S
C1907 C1906 1.400 . S
C1907 C1908 1.398 . S
C1907 C1913 1.491 . S
C1908 H1899 0.950 . S
C1908 C1907 1.398 . S
C1908 C1909 1.391 . S
C1909 H1897 0.950 . S
C1909 C1905 1.393 . S
C1909 C1908 1.391 . S
C1910 H1900 0.950 . S
C1910 C1911 1.386 . S
C1910 C1912 1.391 . S
C1911 C1910 1.386 . S
C1911 C1915 1.393 . S
C1912 H1901 0.950 . S
C1912 C1910 1.391 . S
C1912 C1913 1.400 . S
C1913 C1907 1.491 . S
C1913 C1912 1.400 . S
C1913 C1914 1.398 . S
C1914 H1902 0.950 . S
C1914 C1913 1.398 . S
C1914 C1915 1.391 . S
C1915 H1903 0.950 . S
C1915 C1911 1.393 . S
C1915 C1914 1.391 . S
H1916 C1924 0.950 . S
H1917 C1929 0.950 . S
H1918 C1926 0.950 1_556 S
H1919 C1928 0.950 . S
H1920 C1930 0.950 . S
H1921 C1932 0.950 1_554 S
H1922 C1934 0.950 . S
H1923 C1935 0.950 . S
C1924 H1916 0.950 . S
C1924 C1925 1.386 . S
C1924 C1926 1.391 . S
C1925 C1924 1.386 . S
C1925 C1929 1.393 . S
C1926 H1918 0.950 1_554 S
C1926 C1924 1.391 . S
C1926 C1927 1.400 . S
C1927 C1926 1.400 . S
C1927 C1928 1.398 . S
C1927 C1933 1.491 1_554 S
C1928 H1919 0.950 . S
C1928 C1927 1.398 . S
C1928 C1929 1.391 . S
C1929 H1917 0.950 . S
C1929 C1925 1.393 . S
C1929 C1928 1.391 . S
C1930 H1920 0.950 . S
C1930 C1931 1.386 . S
C1930 C1932 1.391 . S
C1931 C1930 1.386 . S
C1931 C1935 1.393 . S
C1932 H1921 0.950 1_556 S
C1932 C1930 1.391 . S
C1932 C1933 1.400 . S
C1933 C1927 1.491 1_556 S
C1933 C1932 1.400 . S
C1933 C1934 1.398 . S
C1934 H1922 0.950 . S
C1934 C1933 1.398 . S
C1934 C1935 1.391 . S
C1935 H1923 0.950 . S
C1935 C1931 1.393 . S
C1935 C1934 1.391 . S
H1936 C1944 0.950 . S
H1937 C1949 0.950 . S
H1938 C1946 0.950 . S
H1939 C1948 0.950 . S
H1940 C1950 0.950 . S
H1941 C1952 0.950 . S
H1942 C1954 0.950 . S
H1943 C1955 0.950 . S
C1944 H1936 0.950 . S
C1944 C1945 1.386 . S
C1944 C1946 1.391 . S
C1945 C1944 1.386 . S
C1945 C1949 1.393 . S
C1946 H1938 0.950 . S
C1946 C1944 1.391 . S
C1946 C1947 1.400 . S
C1947 C1946 1.400 . S
C1947 C1948 1.398 . S
C1947 C1953 1.491 . S
C1948 H1939 0.950 . S
C1948 C1947 1.398 . S
C1948 C1949 1.391 . S
C1949 H1937 0.950 . S
C1949 C1945 1.393 . S
C1949 C1948 1.391 . S
C1950 H1940 0.950 . S
C1950 C1951 1.386 . S
C1950 C1952 1.391 . S
C1951 C1950 1.386 . S
C1951 C1955 1.393 . S
C1952 H1941 0.950 . S
C1952 C1950 1.391 . S
C1952 C1953 1.400 . S
C1953 C1947 1.491 . S
C1953 C1952 1.400 . S
C1953 C1954 1.398 . S
C1954 H1942 0.950 . S
C1954 C1953 1.398 . S
C1954 C1955 1.391 . S
C1955 H1943 0.950 . S
C1955 C1951 1.393 . S
C1955 C1954 1.391 . S
H1956 C1964 0.950 . S
H1957 C1969 0.950 . S
H1958 C1966 0.950 . S
H1959 C1968 0.950 . S
H1960 C1970 0.950 . S
H1961 C1972 0.950 . S
H1962 C1974 0.950 . S
H1963 C1975 0.950 . S
C1964 H1956 0.950 . S
C1964 C1965 1.386 . S
C1964 C1966 1.391 . S
C1965 C1964 1.386 . S
C1965 C1969 1.393 . S
C1966 H1958 0.950 . S
C1966 C1964 1.391 . S
C1966 C1967 1.400 . S
C1967 C1966 1.400 . S
C1967 C1968 1.398 . S
C1967 C1973 1.491 . S
C1968 H1959 0.950 . S
C1968 C1967 1.398 . S
C1968 C1969 1.391 . S
C1969 H1957 0.950 . S
C1969 C1965 1.393 . S
C1969 C1968 1.391 . S
C1970 H1960 0.950 . S
C1970 C1971 1.386 . S
C1970 C1972 1.391 . S
C1971 C1970 1.386 . S
C1971 C1975 1.393 . S
C1972 H1961 0.950 . S
C1972 C1970 1.391 . S
C1972 C1973 1.400 . S
C1973 C1967 1.491 . S
C1973 C1972 1.400 . S
C1973 C1974 1.398 . S
C1974 H1962 0.950 . S
C1974 C1973 1.398 . S
C1974 C1975 1.391 . S
C1975 H1963 0.950 . S
C1975 C1971 1.393 . S
C1975 C1974 1.391 . S
H1976 C1984 0.950 . S
H1977 C1989 0.950 . S
H1978 C1986 0.950 . S
H1979 C1988 0.950 . S
H1980 C1990 0.950 . S
H1981 C1992 0.950 . S
H1982 C1994 0.950 . S
H1983 C1995 0.950 . S
C1984 H1976 0.950 . S
C1984 C1985 1.386 . S
C1984 C1986 1.391 . S
C1985 C1984 1.386 . S
C1985 C1989 1.393 . S
C1986 H1978 0.950 . S
C1986 C1984 1.391 . S
C1986 C1987 1.400 . S
C1987 C1986 1.400 . S
C1987 C1988 1.398 . S
C1987 C1993 1.491 . S
C1988 H1979 0.950 . S
C1988 C1987 1.398 . S
C1988 C1989 1.391 . S
C1989 H1977 0.950 . S
C1989 C1985 1.393 . S
C1989 C1988 1.391 . S
C1990 H1980 0.950 . S
C1990 C1991 1.386 . S
C1990 C1992 1.391 . S
C1991 C1990 1.386 . S
C1991 C1995 1.393 . S
C1992 H1981 0.950 . S
C1992 C1990 1.391 . S
C1992 C1993 1.400 . S
C1993 C1987 1.491 . S
C1993 C1992 1.400 . S
C1993 C1994 1.398 . S
C1994 H1982 0.950 . S
C1994 C1993 1.398 . S
C1994 C1995 1.391 . S
C1995 H1983 0.950 . S
C1995 C1991 1.393 . S
C1995 C1994 1.391 . S
H1996 C2004 0.950 . S
H1997 C2009 0.950 . S
H1998 C2006 0.950 . S
H1999 C2008 0.950 1_655 S
H2000 C2010 0.950 . S
H2001 C2012 0.963 . S
H2002 C2014 0.950 . S
H2003 C2015 0.950 . S
C2004 H1996 0.950 . S
C2004 C2005 1.386 . S
C2004 C2006 1.391 1_556 S
C2005 C2004 1.386 . S
C2005 C2009 1.393 . S
C2006 H1998 0.950 . S
C2006 C2004 1.391 1_554 S
C2006 C2007 1.400 1_554 S
C2007 C2006 1.400 1_556 S
C2007 C2008 1.398 . S
C2007 C2013 1.491 1_456 S
C2008 H1999 0.950 1_455 S
C2008 C2007 1.398 . S
C2008 C2009 1.391 . S
C2009 H1997 0.950 . S
C2009 C2005 1.393 . S
C2009 C2008 1.391 . S
C2010 H2000 0.950 . S
C2010 C2011 1.386 . S
C2010 C2012 1.383 1_554 S
C2011 C2010 1.386 . S
C2011 C2015 1.393 . S
C2012 H2001 0.963 . S
C2012 C2010 1.383 1_556 S
C2012 C2013 1.395 1_556 S
C2013 C2007 1.491 1_654 S
C2013 C2012 1.395 1_554 S
C2013 C2014 1.398 . S
C2014 H2002 0.950 . S
C2014 C2013 1.398 . S
C2014 C2015 1.391 . S
C2015 H2003 0.950 . S
C2015 C2011 1.393 . S
C2015 C2014 1.391 . S
H2016 C2024 0.950 . S
H2017 C2029 0.950 . S
H2018 C2026 0.950 . S
H2019 C2028 0.950 . S
H2020 C2030 0.950 . S
H2021 C2032 0.950 . S
H2022 C2034 0.950 . S
H2023 C2035 0.950 . S
C2024 H2016 0.950 . S
C2024 C2025 1.386 . S
C2024 C2026 1.391 . S
C2025 C2024 1.386 . S
C2025 C2029 1.393 . S
C2026 H2018 0.950 . S
C2026 C2024 1.391 . S
C2026 C2027 1.400 . S
C2027 C2026 1.400 . S
C2027 C2028 1.398 . S
C2027 C2033 1.491 . S
C2028 H2019 0.950 . S
C2028 C2027 1.398 . S
C2028 C2029 1.391 . S
C2029 H2017 0.950 . S
C2029 C2025 1.393 . S
C2029 C2028 1.391 . S
C2030 H2020 0.950 . S
C2030 C2031 1.386 . S
C2030 C2032 1.391 . S
C2031 C2030 1.386 . S
C2031 C2035 1.393 . S
C2032 H2021 0.950 . S
C2032 C2030 1.391 . S
C2032 C2033 1.400 . S
C2033 C2027 1.491 . S
C2033 C2032 1.400 . S
C2033 C2034 1.398 . S
C2034 H2022 0.950 . S
C2034 C2033 1.398 . S
C2034 C2035 1.391 . S
C2035 H2023 0.950 . S
C2035 C2031 1.393 . S
C2035 C2034 1.391 . S
H2036 C2044 0.950 . S
H2037 C2049 0.950 . S
H2038 C2046 0.950 1_556 S
H2039 C2048 0.950 . S
H2040 C2050 0.950 . S
H2041 C2052 0.950 1_554 S
H2042 C2054 0.950 . S
H2043 C2055 0.950 . S
C2044 H2036 0.950 . S
C2044 C2045 1.386 . S
C2044 C2046 1.391 . S
C2045 C2044 1.386 . S
C2045 C2049 1.393 . S
C2046 H2038 0.950 1_554 S
C2046 C2044 1.391 . S
C2046 C2047 1.400 . S
C2047 C2046 1.400 . S
C2047 C2048 1.398 . S
C2047 C2053 1.491 1_554 S
C2048 H2039 0.950 . S
C2048 C2047 1.398 . S
C2048 C2049 1.391 . S
C2049 H2037 0.950 . S
C2049 C2045 1.393 . S
C2049 C2048 1.391 . S
C2050 H2040 0.950 . S
C2050 C2051 1.386 . S
C2050 C2052 1.391 . S
C2051 C2050 1.386 . S
C2051 C2055 1.393 . S
C2052 H2041 0.950 1_556 S
C2052 C2050 1.391 . S
C2052 C2053 1.400 . S
C2053 C2047 1.491 1_556 S
C2053 C2052 1.400 . S
C2053 C2054 1.398 . S
C2054 H2042 0.950 . S
C2054 C2053 1.398 . S
C2054 C2055 1.391 . S
C2055 H2043 0.950 . S
C2055 C2051 1.393 . S
C2055 C2054 1.391 . S
H2056 C2064 0.950 . S
H2057 C2069 0.950 . S
H2058 C2066 0.950 . S
H2059 C2068 0.950 . S
H2060 C2070 0.950 . S
H2061 C2072 0.950 . S
H2062 C2074 0.950 . S
H2063 C2075 0.950 . S
C2064 H2056 0.950 . S
C2064 C2065 1.386 . S
C2064 C2066 1.391 . S
C2065 C2064 1.386 . S
C2065 C2069 1.393 . S
C2066 H2058 0.950 . S
C2066 C2064 1.391 . S
C2066 C2067 1.400 . S
C2067 C2066 1.400 . S
C2067 C2068 1.398 . S
C2067 C2073 1.491 . S
C2068 H2059 0.950 . S
C2068 C2067 1.398 . S
C2068 C2069 1.391 . S
C2069 H2057 0.950 . S
C2069 C2065 1.393 . S
C2069 C2068 1.391 . S
C2070 H2060 0.950 . S
C2070 C2071 1.386 . S
C2070 C2072 1.391 . S
C2071 C2070 1.386 . S
C2071 C2075 1.393 . S
C2072 H2061 0.950 . S
C2072 C2070 1.391 . S
C2072 C2073 1.400 . S
C2073 C2067 1.491 . S
C2073 C2072 1.400 . S
C2073 C2074 1.398 . S
C2074 H2062 0.950 . S
C2074 C2073 1.398 . S
C2074 C2075 1.391 . S
C2075 H2063 0.950 . S
C2075 C2071 1.393 . S
C2075 C2074 1.391 . S
H2076 C2084 0.950 . S
H2077 C2089 0.950 . S
H2078 C2086 0.950 . S
H2079 C2088 0.950 . S
H2080 C2090 0.950 . S
H2081 C2092 0.950 . S
H2082 C2094 0.950 . S
H2083 C2095 0.950 . S
C2084 H2076 0.950 . S
C2084 C2085 1.386 . S
C2084 C2086 1.391 . S
C2085 C2084 1.386 . S
C2085 C2089 1.393 . S
C2086 H2078 0.950 . S
C2086 C2084 1.391 . S
C2086 C2087 1.400 . S
C2087 C2086 1.400 . S
C2087 C2088 1.398 . S
C2087 C2093 1.491 1_655 S
C2088 H2079 0.950 . S
C2088 C2087 1.398 . S
C2088 C2089 1.391 . S
C2089 H2077 0.950 . S
C2089 C2085 1.393 . S
C2089 C2088 1.391 . S
C2090 H2080 0.950 . S
C2090 C2091 1.386 . S
C2090 C2092 1.391 . S
C2091 C2090 1.386 . S
C2091 C2095 1.393 . S
C2092 H2081 0.950 . S
C2092 C2090 1.391 . S
C2092 C2093 1.400 . S
C2093 C2087 1.491 1_455 S
C2093 C2092 1.400 . S
C2093 C2094 1.398 . S
C2094 H2082 0.950 . S
C2094 C2093 1.398 . S
C2094 C2095 1.391 . S
C2095 H2083 0.950 . S
C2095 C2091 1.393 . S
C2095 C2094 1.391 . S
H2096 C2104 0.950 . S
H2097 C2109 0.950 . S
H2098 C2106 0.950 . S
H2099 C2108 0.950 . S
H2100 C2110 0.950 . S
H2101 C2112 0.950 . S
H2102 C2114 0.950 . S
H2103 C2115 0.950 . S
C2104 H2096 0.950 . S
C2104 C2105 1.386 . S
C2104 C2106 1.391 . S
C2105 C2104 1.386 . S
C2105 C2109 1.393 . S
C2106 H2098 0.950 . S
C2106 C2104 1.391 . S
C2106 C2107 1.400 . S
C2107 C2106 1.400 . S
C2107 C2108 1.398 . S
C2107 C2113 1.491 . S
C2108 H2099 0.950 . S
C2108 C2107 1.398 . S
C2108 C2109 1.391 . S
C2109 H2097 0.950 . S
C2109 C2105 1.393 . S
C2109 C2108 1.391 . S
C2110 H2100 0.950 . S
C2110 C2111 1.386 . S
C2110 C2112 1.391 . S
C2111 C2110 1.386 . S
C2111 C2115 1.393 . S
C2112 H2101 0.950 . S
C2112 C2110 1.391 . S
C2112 C2113 1.400 . S
C2113 C2107 1.491 . S
C2113 C2112 1.400 . S
C2113 C2114 1.398 . S
C2114 H2102 0.950 . S
C2114 C2113 1.398 . S
C2114 C2115 1.391 . S
C2115 H2103 0.950 . S
C2115 C2111 1.393 . S
C2115 C2114 1.391 . S
H2116 C2124 0.950 . S
H2117 C2129 0.950 . S
H2118 C2126 0.950 1_554 S
H2119 C2128 0.950 . S
H2120 C2130 0.950 . S
H2121 C2132 0.950 1_556 S
H2122 C2134 0.950 1_655 S
H2123 C2135 0.950 . S
C2124 H2116 0.950 . S
C2124 C2125 1.386 . S
C2124 C2126 1.391 . S
C2125 C2124 1.386 . S
C2125 C2129 1.393 . S
C2126 H2118 0.950 1_556 S
C2126 C2124 1.391 . S
C2126 C2127 1.400 . S
C2127 C2126 1.400 . S
C2127 C2128 1.398 . S
C2127 C2133 1.491 1_656 S
C2128 H2119 0.950 . S
C2128 C2127 1.398 . S
C2128 C2129 1.391 . S
C2129 H2117 0.950 . S
C2129 C2125 1.393 . S
C2129 C2128 1.391 . S
C2130 H2120 0.950 . S
C2130 C2131 1.386 . S
C2130 C2132 1.391 . S
C2131 C2130 1.386 . S
C2131 C2135 1.393 . S
C2132 H2121 0.950 1_554 S
C2132 C2130 1.391 . S
C2132 C2133 1.400 . S
C2133 C2127 1.491 1_454 S
C2133 C2132 1.400 . S
C2133 C2134 1.398 . S
C2134 H2122 0.950 1_455 S
C2134 C2133 1.398 . S
C2134 C2135 1.391 . S
C2135 H2123 0.950 . S
C2135 C2131 1.393 . S
C2135 C2134 1.391 . S
H2136 C2144 0.950 . S
H2137 C2149 0.950 . S
H2138 C2146 0.950 . S
H2139 C2148 0.950 . S
H2140 C2150 0.950 . S
H2141 C2152 0.950 . S
H2142 C2154 0.950 . S
H2143 C2155 0.950 . S
C2144 H2136 0.950 . S
C2144 C2145 1.386 . S
C2144 C2146 1.391 . S
C2145 C2144 1.386 . S
C2145 C2149 1.393 . S
C2146 H2138 0.950 . S
C2146 C2144 1.391 . S
C2146 C2147 1.400 . S
C2147 C2146 1.400 . S
C2147 C2148 1.398 . S
C2147 C2153 1.491 . S
C2148 H2139 0.950 . S
C2148 C2147 1.398 . S
C2148 C2149 1.391 . S
C2149 H2137 0.950 . S
C2149 C2145 1.393 . S
C2149 C2148 1.391 . S
C2150 H2140 0.950 . S
C2150 C2151 1.386 . S
C2150 C2152 1.391 . S
C2151 C2150 1.386 . S
C2151 C2155 1.393 . S
C2152 H2141 0.950 . S
C2152 C2150 1.391 . S
C2152 C2153 1.400 . S
C2153 C2147 1.491 . S
C2153 C2152 1.400 . S
C2153 C2154 1.398 . S
C2154 H2142 0.950 . S
C2154 C2153 1.398 . S
C2154 C2155 1.391 . S
C2155 H2143 0.950 . S
C2155 C2151 1.393 . S
C2155 C2154 1.391 . S
H2156 C2164 0.950 . S
H2157 C2169 0.950 . S
H2158 C2166 0.950 . S
H2159 C2168 0.950 . S
H2160 C2170 0.950 . S
H2161 C2172 0.950 . S
H2162 C2174 0.950 . S
H2163 C2175 0.950 . S
C2164 H2156 0.950 . S
C2164 C2165 1.386 . S
C2164 C2166 1.391 . S
C2165 C2164 1.386 . S
C2165 C2169 1.393 . S
C2166 H2158 0.950 . S
C2166 C2164 1.391 . S
C2166 C2167 1.400 . S
C2167 C2166 1.400 . S
C2167 C2168 1.398 . S
C2167 C2173 1.491 . S
C2168 H2159 0.950 . S
C2168 C2167 1.398 . S
C2168 C2169 1.391 . S
C2169 H2157 0.950 . S
C2169 C2165 1.393 . S
C2169 C2168 1.391 . S
C2170 H2160 0.950 . S
C2170 C2171 1.386 . S
C2170 C2172 1.391 . S
C2171 C2170 1.386 . S
C2171 C2175 1.393 . S
C2172 H2161 0.950 . S
C2172 C2170 1.391 . S
C2172 C2173 1.400 . S
C2173 C2167 1.491 . S
C2173 C2172 1.400 . S
C2173 C2174 1.398 . S
C2174 H2162 0.950 . S
C2174 C2173 1.398 . S
C2174 C2175 1.391 . S
C2175 H2163 0.950 . S
C2175 C2171 1.393 . S
C2175 C2174 1.391 . S
H2176 C2184 0.950 . S
H2177 C2189 0.950 . S
H2178 C2186 0.950 . S
H2179 C2188 0.950 . S
H2180 C2190 0.950 . S
H2181 C2192 0.950 . S
H2182 C2194 0.950 . S
H2183 C2195 0.950 . S
C2184 H2176 0.950 . S
C2184 C2185 1.386 . S
C2184 C2186 1.391 . S
C2185 C2184 1.386 . S
C2185 C2189 1.393 . S
C2186 H2178 0.950 . S
C2186 C2184 1.391 . S
C2186 C2187 1.400 . S
C2187 C2186 1.400 . S
C2187 C2188 1.398 . S
C2187 C2193 1.491 . S
C2188 H2179 0.950 . S
C2188 C2187 1.398 . S
C2188 C2189 1.391 . S
C2189 H2177 0.950 . S
C2189 C2185 1.393 . S
C2189 C2188 1.391 . S
C2190 H2180 0.950 . S
C2190 C2191 1.386 . S
C2190 C2192 1.391 . S
C2191 C2190 1.386 . S
C2191 C2195 1.393 . S
C2192 H2181 0.950 . S
C2192 C2190 1.391 . S
C2192 C2193 1.400 . S
C2193 C2187 1.491 . S
C2193 C2192 1.400 . S
C2193 C2194 1.398 . S
C2194 H2182 0.950 . S
C2194 C2193 1.398 . S
C2194 C2195 1.391 . S
C2195 H2183 0.950 . S
C2195 C2191 1.393 . S
C2195 C2194 1.391 . S
H2196 C2204 0.950 . S
H2197 C2209 0.950 . S
H2198 C2206 0.950 1_554 S
H2199 C2208 0.950 . S
H2200 C2210 0.950 . S
H2201 C2212 0.950 1_556 S
H2202 C2214 0.950 . S
H2203 C2215 0.950 . S
C2204 H2196 0.950 . S
C2204 C2205 1.386 . S
C2204 C2206 1.391 . S
C2205 C2204 1.386 . S
C2205 C2209 1.393 . S
C2206 H2198 0.950 1_556 S
C2206 C2204 1.391 . S
C2206 C2207 1.400 . S
C2207 C2206 1.400 . S
C2207 C2208 1.398 . S
C2207 C2213 1.491 1_556 S
C2208 H2199 0.950 . S
C2208 C2207 1.398 . S
C2208 C2209 1.391 . S
C2209 H2197 0.950 . S
C2209 C2205 1.393 . S
C2209 C2208 1.391 . S
C2210 H2200 0.950 . S
C2210 C2211 1.386 . S
C2210 C2212 1.391 . S
C2211 C2210 1.386 . S
C2211 C2215 1.393 . S
C2212 H2201 0.950 1_554 S
C2212 C2210 1.391 . S
C2212 C2213 1.400 . S
C2213 C2207 1.491 1_554 S
C2213 C2212 1.400 . S
C2213 C2214 1.398 . S
C2214 H2202 0.950 . S
C2214 C2213 1.398 . S
C2214 C2215 1.391 . S
C2215 H2203 0.950 . S
C2215 C2211 1.393 . S
C2215 C2214 1.391 . S
H2216 C2224 0.950 . S
H2217 C2229 0.950 . S
H2218 C2226 0.950 . S
H2219 C2228 0.950 . S
H2220 C2230 0.950 . S
H2221 C2232 0.950 . S
H2222 C2234 0.950 . S
H2223 C2235 0.950 . S
C2224 H2216 0.950 . S
C2224 C2225 1.386 . S
C2224 C2226 1.391 . S
C2225 C2224 1.386 . S
C2225 C2229 1.393 . S
C2226 H2218 0.950 . S
C2226 C2224 1.391 . S
C2226 C2227 1.400 . S
C2227 C2226 1.400 . S
C2227 C2228 1.398 . S
C2227 C2233 1.491 . S
C2228 H2219 0.950 . S
C2228 C2227 1.398 . S
C2228 C2229 1.391 . S
C2229 H2217 0.950 . S
C2229 C2225 1.393 . S
C2229 C2228 1.391 . S
C2230 H2220 0.950 . S
C2230 C2231 1.386 . S
C2230 C2232 1.391 . S
C2231 C2230 1.386 . S
C2231 C2235 1.393 . S
C2232 H2221 0.950 . S
C2232 C2230 1.391 . S
C2232 C2233 1.400 . S
C2233 C2227 1.491 . S
C2233 C2232 1.400 . S
C2233 C2234 1.398 . S
C2234 H2222 0.950 . S
C2234 C2233 1.398 . S
C2234 C2235 1.391 . S
C2235 H2223 0.950 . S
C2235 C2231 1.393 . S
C2235 C2234 1.391 . S
H2236 C2244 0.950 . S
H2237 C2249 0.950 . S
H2238 C2246 0.911 1_455 S
H2239 C2248 0.950 . S
H2240 C2250 0.950 . S
H2241 C2252 0.950 . S
H2242 C2254 0.950 . S
H2243 C2255 0.950 . S
C2244 H2236 0.950 . S
C2244 C2245 1.386 . S
C2244 C2246 1.391 . S
C2245 C2244 1.386 . S
C2245 C2249 1.393 . S
C2246 H2238 0.911 1_655 S
C2246 C2244 1.391 . S
C2246 C2247 1.400 . S
C2247 C2246 1.400 . S
C2247 C2248 1.398 . S
C2247 C2253 1.491 1_655 S
C2248 H2239 0.950 . S
C2248 C2247 1.398 . S
C2248 C2249 1.391 . S
C2249 H2237 0.950 . S
C2249 C2245 1.393 . S
C2249 C2248 1.391 . S
C2250 H2240 0.950 . S
C2250 C2251 1.386 . S
C2250 C2252 1.391 . S
C2251 C2250 1.386 . S
C2251 C2255 1.393 . S
C2252 H2241 0.950 . S
C2252 C2250 1.391 . S
C2252 C2253 1.400 . S
C2253 C2247 1.491 1_455 S
C2253 C2252 1.400 . S
C2253 C2254 1.398 . S
C2254 H2242 0.950 . S
C2254 C2253 1.398 . S
C2254 C2255 1.391 . S
C2255 H2243 0.950 . S
C2255 C2251 1.393 . S
C2255 C2254 1.391 . S
H2256 C2264 0.950 . S
H2257 C2269 0.950 . S
H2258 C2266 0.950 . S
H2259 C2268 0.950 . S
H2260 C2270 0.950 . S
H2261 C2272 0.950 . S
H2262 C2274 0.950 . S
H2263 C2275 0.950 . S
C2264 H2256 0.950 . S
C2264 C2265 1.386 . S
C2264 C2266 1.391 . S
C2265 C2264 1.386 . S
C2265 C2269 1.393 . S
C2266 H2258 0.950 . S
C2266 C2264 1.391 . S
C2266 C2267 1.400 . S
C2267 C2266 1.400 . S
C2267 C2268 1.398 . S
C2267 C2273 1.491 . S
C2268 H2259 0.950 . S
C2268 C2267 1.398 . S
C2268 C2269 1.391 . S
C2269 H2257 0.950 . S
C2269 C2265 1.393 . S
C2269 C2268 1.391 . S
C2270 H2260 0.950 . S
C2270 C2271 1.386 . S
C2270 C2272 1.391 . S
C2271 C2270 1.386 . S
C2271 C2275 1.393 . S
C2272 H2261 0.950 . S
C2272 C2270 1.391 . S
C2272 C2273 1.400 . S
C2273 C2267 1.491 . S
C2273 C2272 1.400 . S
C2273 C2274 1.398 . S
C2274 H2262 0.950 . S
C2274 C2273 1.398 . S
C2274 C2275 1.391 . S
C2275 H2263 0.950 . S
C2275 C2271 1.393 . S
C2275 C2274 1.391 . S
H2276 C2284 0.950 . S
H2277 C2289 0.950 . S
H2278 C2286 0.950 . S
H2279 C2288 0.950 1_556 S
H2280 C2290 0.950 . S
H2281 C2292 0.950 1_455 S
H2282 C2294 0.954 . S
H2283 C2295 0.950 . S
C2284 H2276 0.950 . S
C2284 C2285 1.386 . S
C2284 C2286 1.391 . S
C2285 C2284 1.386 . S
C2285 C2289 1.393 . S
C2286 H2278 0.950 . S
C2286 C2284 1.391 . S
C2286 C2287 1.400 . S
C2287 C2286 1.400 . S
C2287 C2288 1.398 . S
C2287 C2293 1.491 1_454 S
C2288 H2279 0.950 1_554 S
C2288 C2287 1.398 . S
C2288 C2289 1.391 . S
C2289 H2277 0.950 . S
C2289 C2285 1.393 . S
C2289 C2288 1.391 . S
C2290 H2280 0.950 . S
C2290 C2291 1.386 . S
C2290 C2292 1.391 . S
C2291 C2290 1.386 . S
C2291 C2295 1.393 . S
C2292 H2281 0.950 1_655 S
C2292 C2290 1.391 . S
C2292 C2293 1.400 . S
C2293 C2287 1.491 1_656 S
C2293 C2292 1.400 . S
C2293 C2294 1.397 1_556 S
C2294 H2282 0.954 . S
C2294 C2293 1.397 1_554 S
C2294 C2295 1.388 1_554 S
C2295 H2283 0.950 . S
C2295 C2291 1.393 . S
C2295 C2294 1.388 1_556 S
H2296 C2304 0.950 . S
H2297 C2309 0.950 . S
H2298 C2306 0.950 . S
H2299 C2308 0.950 . S
H2300 C2310 0.950 . S
H2301 C2312 0.950 . S
H2302 C2314 0.950 . S
H2303 C2315 0.950 . S
C2304 H2296 0.950 . S
C2304 C2305 1.386 . S
C2304 C2306 1.391 . S
C2305 C2304 1.386 . S
C2305 C2309 1.393 . S
C2306 H2298 0.950 . S
C2306 C2304 1.391 . S
C2306 C2307 1.400 . S
C2307 C2306 1.400 . S
C2307 C2308 1.398 . S
C2307 C2313 1.491 . S
C2308 H2299 0.950 . S
C2308 C2307 1.398 . S
C2308 C2309 1.391 . S
C2309 H2297 0.950 . S
C2309 C2305 1.393 . S
C2309 C2308 1.391 . S
C2310 H2300 0.950 . S
C2310 C2311 1.386 . S
C2310 C2312 1.391 . S
C2311 C2310 1.386 . S
C2311 C2315 1.393 . S
C2312 H2301 0.950 . S
C2312 C2310 1.391 . S
C2312 C2313 1.400 . S
C2313 C2307 1.491 . S
C2313 C2312 1.400 . S
C2313 C2314 1.398 . S
C2314 H2302 0.950 . S
C2314 C2313 1.398 . S
C2314 C2315 1.391 . S
C2315 H2303 0.950 . S
C2315 C2311 1.393 . S
C2315 C2314 1.391 . S
H2316 C2324 0.950 . S
H2317 C2329 0.950 . S
H2318 C2326 0.950 . S
H2319 C2328 0.950 . S
H2320 C2330 0.950 . S
H2321 C2332 0.950 . S
H2322 C2334 0.950 . S
H2323 C2335 0.950 . S
C2324 H2316 0.950 . S
C2324 C2325 1.386 . S
C2324 C2326 1.391 . S
C2325 C2324 1.386 . S
C2325 C2329 1.393 . S
C2326 H2318 0.950 . S
C2326 C2324 1.391 . S
C2326 C2327 1.400 . S
C2327 C2326 1.400 . S
C2327 C2328 1.398 . S
C2327 C2333 1.491 . S
C2328 H2319 0.950 . S
C2328 C2327 1.398 . S
C2328 C2329 1.391 . S
C2329 H2317 0.950 . S
C2329 C2325 1.393 . S
C2329 C2328 1.391 . S
C2330 H2320 0.950 . S
C2330 C2331 1.386 . S
C2330 C2332 1.391 . S
C2331 C2330 1.386 . S
C2331 C2335 1.393 . S
C2332 H2321 0.950 . S
C2332 C2330 1.391 . S
C2332 C2333 1.400 . S
C2333 C2327 1.491 . S
C2333 C2332 1.400 . S
C2333 C2334 1.398 . S
C2334 H2322 0.950 . S
C2334 C2333 1.398 . S
C2334 C2335 1.391 . S
C2335 H2323 0.950 . S
C2335 C2331 1.393 . S
C2335 C2334 1.391 . S
H2336 C2344 0.950 . S
H2337 C2349 0.950 . S
H2338 C2346 0.950 . S
H2339 C2348 0.950 . S
H2340 C2350 0.950 . S
H2341 C2352 0.950 . S
H2342 C2354 0.950 . S
H2343 C2355 0.950 . S
C2344 H2336 0.950 . S
C2344 C2345 1.386 . S
C2344 C2346 1.391 . S
C2345 C2344 1.386 . S
C2345 C2349 1.393 . S
C2346 H2338 0.950 . S
C2346 C2344 1.391 . S
C2346 C2347 1.400 . S
C2347 C2346 1.400 . S
C2347 C2348 1.398 . S
C2347 C2353 1.491 . S
C2348 H2339 0.950 . S
C2348 C2347 1.398 . S
C2348 C2349 1.391 . S
C2349 H2337 0.950 . S
C2349 C2345 1.393 . S
C2349 C2348 1.391 . S
C2350 H2340 0.950 . S
C2350 C2351 1.386 1_554 S
C2350 C2352 1.391 . S
C2351 C2350 1.386 1_556 S
C2351 C2355 1.393 . S
C2352 H2341 0.950 . S
C2352 C2350 1.391 . S
C2352 C2353 1.400 . S
C2353 C2347 1.491 . S
C2353 C2352 1.400 . S
C2353 C2354 1.398 . S
C2354 H2342 0.950 . S
C2354 C2353 1.398 . S
C2354 C2355 1.391 1_554 S
C2355 H2343 0.950 . S
C2355 C2351 1.393 . S
C2355 C2354 1.391 1_556 S
H2356 C2364 0.950 . S
H2357 C2369 0.950 . S
H2358 C2366 0.950 . S
H2359 C2368 0.950 . S
H2360 C2370 0.950 . S
H2361 C2372 0.950 . S
H2362 C2374 0.950 . S
H2363 C2375 0.950 . S
C2364 H2356 0.950 . S
C2364 C2365 1.386 . S
C2364 C2366 1.391 . S
C2365 C2364 1.386 . S
C2365 C2369 1.393 . S
C2366 H2358 0.950 . S
C2366 C2364 1.391 . S
C2366 C2367 1.400 . S
C2367 C2366 1.400 . S
C2367 C2368 1.398 . S
C2367 C2373 1.491 . S
C2368 H2359 0.950 . S
C2368 C2367 1.398 . S
C2368 C2369 1.391 . S
C2369 H2357 0.950 . S
C2369 C2365 1.393 . S
C2369 C2368 1.391 . S
C2370 H2360 0.950 . S
C2370 C2371 1.386 . S
C2370 C2372 1.391 . S
C2371 C2370 1.386 . S
C2371 C2375 1.393 . S
C2372 H2361 0.950 . S
C2372 C2370 1.391 . S
C2372 C2373 1.400 . S
C2373 C2367 1.491 . S
C2373 C2372 1.400 . S
C2373 C2374 1.398 . S
C2374 H2362 0.950 . S
C2374 C2373 1.398 . S
C2374 C2375 1.391 . S
C2375 H2363 0.950 . S
C2375 C2371 1.393 . S
C2375 C2374 1.391 . S
H2376 C2384 0.950 . S
H2377 C2389 0.950 . S
H2378 C2386 0.950 . S
H2379 C2388 0.950 . S
H2380 C2390 0.950 . S
H2381 C2392 0.950 . S
H2382 C2394 0.950 . S
H2383 C2395 0.950 . S
C2384 H2376 0.950 . S
C2384 C2385 1.386 . S
C2384 C2386 1.391 . S
C2385 C2384 1.386 . S
C2385 C2389 1.393 . S
C2386 H2378 0.950 . S
C2386 C2384 1.391 . S
C2386 C2387 1.400 . S
C2387 C2386 1.400 . S
C2387 C2388 1.398 . S
C2387 C2393 1.491 . S
C2388 H2379 0.950 . S
C2388 C2387 1.398 . S
C2388 C2389 1.391 . S
C2389 H2377 0.950 . S
C2389 C2385 1.393 . S
C2389 C2388 1.391 . S
C2390 H2380 0.950 . S
C2390 C2391 1.386 . S
C2390 C2392 1.391 . S
C2391 C2390 1.386 . S
C2391 C2395 1.393 . S
C2392 H2381 0.950 . S
C2392 C2390 1.391 . S
C2392 C2393 1.400 . S
C2393 C2387 1.491 . S
C2393 C2392 1.400 . S
C2393 C2394 1.398 . S
C2394 H2382 0.950 . S
C2394 C2393 1.398 . S
C2394 C2395 1.391 . S
C2395 H2383 0.950 . S
C2395 C2391 1.393 . S
C2395 C2394 1.391 . S
H2396 C2404 0.950 1_554 S
H2397 C2409 0.950 . S
H2398 C2406 0.950 . S
H2399 C2408 0.950 . S
H2400 C2410 0.950 . S
H2401 C2412 0.950 . S
H2402 C2414 0.950 . S
H2403 C2415 0.950 . S
C2404 H2396 0.950 1_556 S
C2404 C2405 1.386 1_556 S
C2404 C2406 1.391 . S
C2405 C2404 1.386 1_554 S
C2405 C2409 1.393 1_554 S
C2406 H2398 0.950 . S
C2406 C2404 1.391 . S
C2406 C2407 1.400 . S
C2407 C2406 1.400 . S
C2407 C2408 1.398 . S
C2407 C2413 1.491 . S
C2408 H2399 0.950 . S
C2408 C2407 1.398 . S
C2408 C2409 1.391 . S
C2409 H2397 0.950 . S
C2409 C2405 1.393 1_556 S
C2409 C2408 1.391 . S
C2410 H2400 0.950 . S
C2410 C2411 1.386 . S
C2410 C2412 1.391 . S
C2411 C2410 1.386 . S
C2411 C2415 1.393 . S
C2412 H2401 0.950 . S
C2412 C2410 1.391 . S
C2412 C2413 1.400 . S
C2413 C2407 1.491 . S
C2413 C2412 1.400 . S
C2413 C2414 1.398 . S
C2414 H2402 0.950 . S
C2414 C2413 1.398 . S
C2414 C2415 1.391 . S
C2415 H2403 0.950 . S
C2415 C2411 1.393 . S
C2415 C2414 1.391 . S
H2416 C2424 0.950 1_554 S
H2417 C2429 0.950 . S
H2418 C2426 0.950 . S
H2419 C2428 0.950 . S
H2420 C2430 0.950 . S
H2421 C2432 0.950 . S
H2422 C2434 0.950 . S
H2423 C2435 0.950 . S
C2424 H2416 0.950 1_556 S
C2424 C2425 1.386 1_556 S
C2424 C2426 1.391 . S
C2425 C2424 1.386 1_554 S
C2425 C2429 1.393 1_554 S
C2426 H2418 0.950 . S
C2426 C2424 1.391 . S
C2426 C2427 1.400 . S
C2427 C2426 1.400 . S
C2427 C2428 1.398 . S
C2427 C2433 1.491 . S
C2428 H2419 0.950 . S
C2428 C2427 1.398 . S
C2428 C2429 1.391 . S
C2429 H2417 0.950 . S
C2429 C2425 1.393 1_556 S
C2429 C2428 1.391 . S
C2430 H2420 0.950 . S
C2430 C2431 1.386 . S
C2430 C2432 1.391 . S
C2431 C2430 1.386 . S
C2431 C2435 1.393 . S
C2432 H2421 0.950 . S
C2432 C2430 1.391 . S
C2432 C2433 1.400 . S
C2433 C2427 1.491 . S
C2433 C2432 1.400 . S
C2433 C2434 1.398 . S
C2434 H2422 0.950 . S
C2434 C2433 1.398 . S
C2434 C2435 1.391 . S
C2435 H2423 0.950 . S
C2435 C2431 1.393 . S
C2435 C2434 1.391 . S
H2436 C2444 0.950 . S
H2437 C2449 0.950 . S
H2438 C2446 0.950 . S
H2439 C2448 0.950 . S
H2440 C2450 0.950 . S
H2441 C2452 0.950 . S
H2442 C2454 0.950 . S
H2443 C2455 0.950 . S
C2444 H2436 0.950 . S
C2444 C2445 1.386 . S
C2444 C2446 1.391 . S
C2445 C2444 1.386 . S
C2445 C2449 1.393 . S
C2446 H2438 0.950 . S
C2446 C2444 1.391 . S
C2446 C2447 1.400 . S
C2447 C2446 1.400 . S
C2447 C2448 1.398 . S
C2447 C2453 1.491 . S
C2448 H2439 0.950 . S
C2448 C2447 1.398 . S
C2448 C2449 1.391 . S
C2449 H2437 0.950 . S
C2449 C2445 1.393 . S
C2449 C2448 1.391 . S
C2450 H2440 0.950 . S
C2450 C2451 1.386 . S
C2450 C2452 1.391 . S
C2451 C2450 1.386 . S
C2451 C2455 1.393 . S
C2452 H2441 0.950 . S
C2452 C2450 1.391 . S
C2452 C2453 1.400 . S
C2453 C2447 1.491 . S
C2453 C2452 1.400 . S
C2453 C2454 1.398 . S
C2454 H2442 0.950 . S
C2454 C2453 1.398 . S
C2454 C2455 1.391 . S
C2455 H2443 0.950 . S
C2455 C2451 1.393 . S
C2455 C2454 1.391 . S
H2456 C2464 0.950 . S
H2457 C2469 0.950 . S
H2458 C2466 0.950 . S
H2459 C2468 0.950 . S
H2460 C2470 0.950 . S
H2461 C2472 0.950 . S
H2462 C2474 0.950 . S
H2463 C2475 0.950 . S
C2464 H2456 0.950 . S
C2464 C2465 1.386 . S
C2464 C2466 1.391 . S
C2465 C2464 1.386 . S
C2465 C2469 1.393 . S
C2466 H2458 0.950 . S
C2466 C2464 1.391 . S
C2466 C2467 1.400 . S
C2467 C2466 1.400 . S
C2467 C2468 1.398 . S
C2467 C2473 1.491 . S
C2468 H2459 0.950 . S
C2468 C2467 1.398 . S
C2468 C2469 1.391 . S
C2469 H2457 0.950 . S
C2469 C2465 1.393 . S
C2469 C2468 1.391 . S
C2470 H2460 0.950 . S
C2470 C2471 1.386 . S
C2470 C2472 1.391 . S
C2471 C2470 1.386 . S
C2471 C2475 1.393 . S
C2472 H2461 0.950 . S
C2472 C2470 1.391 . S
C2472 C2473 1.400 . S
C2473 C2467 1.491 . S
C2473 C2472 1.400 . S
C2473 C2474 1.398 . S
C2474 H2462 0.950 . S
C2474 C2473 1.398 . S
C2474 C2475 1.391 . S
C2475 H2463 0.950 . S
C2475 C2471 1.393 . S
C2475 C2474 1.391 . S
H2476 C2484 0.950 . S
H2477 C2489 0.950 . S
H2478 C2486 0.950 . S
H2479 C2488 0.950 . S
H2480 C2490 0.950 . S
H2481 C2492 0.950 . S
H2482 C2494 0.950 . S
H2483 C2495 0.950 . S
C2484 H2476 0.950 . S
C2484 C2485 1.386 . S
C2484 C2486 1.391 . S
C2485 C2484 1.386 . S
C2485 C2489 1.393 . S
C2486 H2478 0.950 . S
C2486 C2484 1.391 . S
C2486 C2487 1.400 . S
C2487 C2486 1.400 . S
C2487 C2488 1.398 . S
C2487 C2493 1.491 . S
C2488 H2479 0.950 . S
C2488 C2487 1.398 . S
C2488 C2489 1.391 . S
C2489 H2477 0.950 . S
C2489 C2485 1.393 . S
C2489 C2488 1.391 . S
C2490 H2480 0.950 . S
C2490 C2491 1.386 . S
C2490 C2492 1.391 1_556 S
C2491 C2490 1.386 . S
C2491 C2495 1.393 1_556 S
C2492 H2481 0.950 . S
C2492 C2490 1.391 1_554 S
C2492 C2493 1.400 . S
C2493 C2487 1.491 . S
C2493 C2492 1.400 . S
C2493 C2494 1.398 . S
C2494 H2482 0.950 . S
C2494 C2493 1.398 . S
C2494 C2495 1.391 . S
C2495 H2483 0.950 . S
C2495 C2491 1.393 1_554 S
C2495 C2494 1.391 . S
H2496 C2504 0.950 . S
H2497 C2509 0.950 . S
H2498 C2506 0.950 . S
H2499 C2508 0.950 . S
H2500 C2510 0.950 . S
H2501 C2512 0.950 . S
H2502 C2514 0.950 . S
H2503 C2515 0.950 . S
C2504 H2496 0.950 . S
C2504 C2505 1.386 . S
C2504 C2506 1.391 . S
C2505 C2504 1.386 . S
C2505 C2509 1.393 . S
C2506 H2498 0.950 . S
C2506 C2504 1.391 . S
C2506 C2507 1.400 . S
C2507 C2506 1.400 . S
C2507 C2508 1.398 . S
C2507 C2513 1.491 . S
C2508 H2499 0.950 . S
C2508 C2507 1.398 . S
C2508 C2509 1.391 . S
C2509 H2497 0.950 . S
C2509 C2505 1.393 . S
C2509 C2508 1.391 . S
C2510 H2500 0.950 . S
C2510 C2511 1.386 . S
C2510 C2512 1.391 . S
C2511 C2510 1.386 . S
C2511 C2515 1.393 . S
C2512 H2501 0.950 . S
C2512 C2510 1.391 . S
C2512 C2513 1.400 . S
C2513 C2507 1.491 . S
C2513 C2512 1.400 . S
C2513 C2514 1.398 . S
C2514 H2502 0.950 . S
C2514 C2513 1.398 . S
C2514 C2515 1.391 . S
C2515 H2503 0.950 . S
C2515 C2511 1.393 . S
C2515 C2514 1.391 . S
H2516 C2524 0.950 . S
H2517 C2529 0.950 . S
H2518 C2526 0.950 . S
H2519 C2528 0.950 . S
H2520 C2530 0.950 . S
H2521 C2532 0.950 . S
H2522 C2534 0.950 . S
H2523 C2535 0.950 . S
C2524 H2516 0.950 . S
C2524 C2525 1.386 . S
C2524 C2526 1.391 . S
C2525 C2524 1.386 . S
C2525 C2529 1.393 . S
C2526 H2518 0.950 . S
C2526 C2524 1.391 . S
C2526 C2527 1.400 . S
C2527 C2526 1.400 . S
C2527 C2528 1.398 . S
C2527 C2533 1.491 . S
C2528 H2519 0.950 . S
C2528 C2527 1.398 . S
C2528 C2529 1.391 . S
C2529 H2517 0.950 . S
C2529 C2525 1.393 . S
C2529 C2528 1.391 . S
C2530 H2520 0.950 . S
C2530 C2531 1.386 1_556 S
C2530 C2532 1.391 . S
C2531 C2530 1.386 1_554 S
C2531 C2535 1.393 . S
C2532 H2521 0.950 . S
C2532 C2530 1.391 . S
C2532 C2533 1.400 . S
C2533 C2527 1.491 . S
C2533 C2532 1.400 . S
C2533 C2534 1.398 . S
C2534 H2522 0.950 . S
C2534 C2533 1.398 . S
C2534 C2535 1.391 1_556 S
C2535 H2523 0.950 . S
C2535 C2531 1.393 . S
C2535 C2534 1.391 1_554 S
H2536 C2544 0.950 . S
H2537 C2549 0.950 . S
H2538 C2546 0.950 . S
H2539 C2548 0.950 . S
H2540 C2550 0.950 . S
H2541 C2552 0.950 . S
H2542 C2554 0.950 . S
H2543 C2555 0.950 . S
C2544 H2536 0.950 . S
C2544 C2545 1.386 1_554 S
C2544 C2546 1.391 . S
C2545 C2544 1.386 1_556 S
C2545 C2549 1.393 . S
C2546 H2538 0.950 . S
C2546 C2544 1.391 . S
C2546 C2547 1.400 . S
C2547 C2546 1.400 . S
C2547 C2548 1.398 . S
C2547 C2553 1.491 . S
C2548 H2539 0.950 . S
C2548 C2547 1.398 . S
C2548 C2549 1.391 1_554 S
C2549 H2537 0.950 . S
C2549 C2545 1.393 . S
C2549 C2548 1.391 1_556 S
C2550 H2540 0.950 . S
C2550 C2551 1.386 . S
C2550 C2552 1.391 . S
C2551 C2550 1.386 . S
C2551 C2555 1.393 . S
C2552 H2541 0.950 . S
C2552 C2550 1.391 . S
C2552 C2553 1.400 . S
C2553 C2547 1.491 . S
C2553 C2552 1.400 . S
C2553 C2554 1.398 . S
C2554 H2542 0.950 . S
C2554 C2553 1.398 . S
C2554 C2555 1.391 . S
C2555 H2543 0.950 . S
C2555 C2551 1.393 . S
C2555 C2554 1.391 . S
H2556 C2564 0.950 . S
H2557 C2569 0.950 . S
H2558 C2566 0.950 . S
H2559 C2568 0.950 . S
H2560 C2570 0.950 . S
H2561 C2572 0.950 . S
H2562 C2574 0.950 . S
H2563 C2575 0.950 . S
C2564 H2556 0.950 . S
C2564 C2565 1.386 . S
C2564 C2566 1.391 . S
C2565 C2564 1.386 . S
C2565 C2569 1.393 . S
C2566 H2558 0.950 . S
C2566 C2564 1.391 . S
C2566 C2567 1.400 . S
C2567 C2566 1.400 . S
C2567 C2568 1.398 . S
C2567 C2573 1.491 . S
C2568 H2559 0.950 . S
C2568 C2567 1.398 . S
C2568 C2569 1.391 . S
C2569 H2557 0.950 . S
C2569 C2565 1.393 . S
C2569 C2568 1.391 . S
C2570 H2560 0.950 . S
C2570 C2571 1.386 . S
C2570 C2572 1.391 . S
C2571 C2570 1.386 . S
C2571 C2575 1.393 . S
C2572 H2561 0.950 . S
C2572 C2570 1.391 . S
C2572 C2573 1.400 . S
C2573 C2567 1.491 . S
C2573 C2572 1.400 . S
C2573 C2574 1.398 . S
C2574 H2562 0.950 . S
C2574 C2573 1.398 . S
C2574 C2575 1.391 . S
C2575 H2563 0.950 . S
C2575 C2571 1.393 . S
C2575 C2574 1.391 . S
H2576 C2584 0.950 . S
H2577 C2589 0.950 . S
H2578 C2586 0.950 . S
H2579 C2588 0.950 . S
H2580 C2590 0.950 . S
H2581 C2592 0.950 . S
H2582 C2594 0.950 . S
H2583 C2595 0.950 . S
C2584 H2576 0.950 . S
C2584 C2585 1.386 . S
C2584 C2586 1.391 . S
C2585 C2584 1.386 . S
C2585 C2589 1.393 . S
C2586 H2578 0.950 . S
C2586 C2584 1.391 . S
C2586 C2587 1.400 . S
C2587 C2586 1.400 . S
C2587 C2588 1.398 . S
C2587 C2593 1.491 . S
C2588 H2579 0.950 . S
C2588 C2587 1.398 . S
C2588 C2589 1.391 . S
C2589 H2577 0.950 . S
C2589 C2585 1.393 . S
C2589 C2588 1.391 . S
C2590 H2580 0.950 . S
C2590 C2591 1.386 . S
C2590 C2592 1.391 . S
C2591 C2590 1.386 . S
C2591 C2595 1.393 . S
C2592 H2581 0.950 . S
C2592 C2590 1.391 . S
C2592 C2593 1.400 . S
C2593 C2587 1.491 . S
C2593 C2592 1.400 . S
C2593 C2594 1.398 . S
C2594 H2582 0.950 . S
C2594 C2593 1.398 . S
C2594 C2595 1.391 . S
C2595 H2583 0.950 . S
C2595 C2591 1.393 . S
C2595 C2594 1.391 . S
H2596 C2604 0.950 . S
H2597 C2609 0.950 . S
H2598 C2606 0.950 . S
H2599 C2608 0.950 . S
H2600 C2610 0.950 . S
H2601 C2612 0.950 . S
H2602 C2614 0.950 . S
H2603 C2615 0.950 1_556 S
C2604 H2596 0.950 . S
C2604 C2605 1.386 . S
C2604 C2606 1.391 . S
C2605 C2604 1.386 . S
C2605 C2609 1.393 . S
C2606 H2598 0.950 . S
C2606 C2604 1.391 . S
C2606 C2607 1.400 . S
C2607 C2606 1.400 . S
C2607 C2608 1.398 . S
C2607 C2613 1.491 . S
C2608 H2599 0.950 . S
C2608 C2607 1.398 . S
C2608 C2609 1.391 . S
C2609 H2597 0.950 . S
C2609 C2605 1.393 . S
C2609 C2608 1.391 . S
C2610 H2600 0.950 . S
C2610 C2611 1.386 1_554 S
C2610 C2612 1.391 . S
C2611 C2610 1.386 1_556 S
C2611 C2615 1.393 1_556 S
C2612 H2601 0.950 . S
C2612 C2610 1.391 . S
C2612 C2613 1.400 . S
C2613 C2607 1.491 . S
C2613 C2612 1.400 . S
C2613 C2614 1.398 . S
C2614 H2602 0.950 . S
C2614 C2613 1.398 . S
C2614 C2615 1.391 . S
C2615 H2603 0.950 1_554 S
C2615 C2611 1.393 1_554 S
C2615 C2614 1.391 . S
H2616 C2624 0.950 1_554 S
H2617 C2629 0.950 . S
H2618 C2626 0.950 . S
H2619 C2628 0.950 . S
H2620 C2630 0.950 . S
H2621 C2632 0.950 . S
H2622 C2634 0.950 . S
H2623 C2635 0.950 . S
C2624 H2616 0.950 1_556 S
C2624 C2625 1.386 1_556 S
C2624 C2626 1.391 . S
C2625 C2624 1.386 1_554 S
C2625 C2629 1.393 1_554 S
C2626 H2618 0.950 . S
C2626 C2624 1.391 . S
C2626 C2627 1.400 . S
C2627 C2626 1.400 . S
C2627 C2628 1.398 . S
C2627 C2633 1.491 . S
C2628 H2619 0.950 . S
C2628 C2627 1.398 . S
C2628 C2629 1.391 . S
C2629 H2617 0.950 . S
C2629 C2625 1.393 1_556 S
C2629 C2628 1.391 . S
C2630 H2620 0.950 . S
C2630 C2631 1.386 . S
C2630 C2632 1.391 . S
C2631 C2630 1.386 . S
C2631 C2635 1.393 . S
C2632 H2621 0.950 . S
C2632 C2630 1.391 . S
C2632 C2633 1.400 . S
C2633 C2627 1.491 . S
C2633 C2632 1.400 . S
C2633 C2634 1.398 . S
C2634 H2622 0.950 . S
C2634 C2633 1.398 . S
C2634 C2635 1.391 . S
C2635 H2623 0.950 . S
C2635 C2631 1.393 . S
C2635 C2634 1.391 . S
H2636 C2644 0.950 . S
H2637 C2649 0.950 . S
H2638 C2646 0.950 . S
H2639 C2648 0.950 . S
H2640 C2650 0.950 . S
H2641 C2652 0.950 . S
H2642 C2654 0.950 . S
H2643 C2655 0.950 . S
C2644 H2636 0.950 . S
C2644 C2645 1.386 . S
C2644 C2646 1.391 . S
C2645 C2644 1.386 . S
C2645 C2649 1.393 . S
C2646 H2638 0.950 . S
C2646 C2644 1.391 . S
C2646 C2647 1.400 . S
C2647 C2646 1.400 . S
C2647 C2648 1.398 . S
C2647 C2653 1.491 . S
C2648 H2639 0.950 . S
C2648 C2647 1.398 . S
C2648 C2649 1.391 . S
C2649 H2637 0.950 . S
C2649 C2645 1.393 . S
C2649 C2648 1.391 . S
C2650 H2640 0.950 . S
C2650 C2651 1.386 . S
C2650 C2652 1.391 . S
C2651 C2650 1.386 . S
C2651 C2655 1.393 . S
C2652 H2641 0.950 . S
C2652 C2650 1.391 . S
C2652 C2653 1.400 . S
C2653 C2647 1.491 . S
C2653 C2652 1.400 . S
C2653 C2654 1.398 . S
C2654 H2642 0.950 . S
C2654 C2653 1.398 . S
C2654 C2655 1.391 . S
C2655 H2643 0.950 . S
C2655 C2651 1.393 . S
C2655 C2654 1.391 . S
C1065 C239 0.646 . S
C1071 C8 0.628 . S
C1085 C41 0.631 . S
C1091 C140 0.645 . S
C1105 C173 0.643 . S
C1111 C74 0.633 . S
C1125 C107 0.645 . S
C1131 C206 0.627 . S
C1145 C272 0.632 . S
C1151 C503 0.645 . S
C1165 C404 0.644 . S
C1171 C305 0.627 . S
C1185 C437 0.645 . S
C1191 C338 0.627 . S
C1205 C470 0.629 . S
C1211 C371 0.642 . S
C1225 C536 0.630 . S
C1231 C767 0.645 . S
C1245 C569 0.633 . S
C1251 C668 0.636 . S
C1265 C701 0.639 . S
C1271 C602 0.631 . S
C1285 C635 0.636 . S
C1291 C734 0.641 . S
C1305 C1031 0.646 . S
C1311 C800 0.629 . S
C1325 C833 0.642 . S
C1331 C932 0.629 . S
C1345 C965 0.645 . S
C1351 C866 0.631 . S
C1365 C899 0.628 . S
C1371 C998 0.642 . S
C1385 C17 1.240 . S
C1391 C215 1.220 . S
C1405 C50 1.220 . S
C1411 C248 1.238 . S
C1425 C149 1.226 . S
C1431 C83 1.231 . S
C1445 C116 1.230 . S
C1451 C182 1.227 . S
C1465 C479 1.221 . S
C1471 C281 1.237 . S
C1485 C314 1.238 . S
C1491 C512 1.220 . S
C1505 C347 1.226 . S
C1511 C413 1.236 . S
C1525 C446 1.232 . S
C1531 C380 1.226 . S
C1545 C545 1.239 . S
C1551 C743 1.222 . S
C1565 C578 1.229 . S
C1571 C776 1.229 . S
C1585 C677 1.222 . S
C1591 C611 1.236 . S
C1605 C644 1.225 . S
C1611 C710 1.236 . S
C1625 C1007 1.223 . S
C1631 C809 1.238 . S
C1645 C1040 1.233 . S
C1651 C842 1.229 . S
C1665 C941 1.226 . S
C1671 C875 1.236 . S
C1685 C908 1.235 . S
C1691 C974 1.223 . S
C1705 C28 1.511 . S
C1711 N995 1.467 . S
C1725 N500 1.471 . S
C1731 C61 1.513 . S
C1745 C94 1.527 . S
C1751 N929 1.492 . S
C1765 C127 1.511 . S
C1771 N434 1.468 . S
C1785 N863 1.469 . S
C1791 C160 1.513 . S
C1805 C193 1.522 . S
C1811 N368 1.484 . S
C1825 C226 1.521 . S
C1831 N797 1.483 . S
C1845 C259 1.526 . S
C1851 N302 1.492 . S
C1865 N731 1.493 . S
C1871 C292 1.527 . S
C1885 N236 1.488 . S
C1891 C325 1.524 . S
C1905 C358 1.524 . S
C1911 N665 1.489 . S
C1925 N170 1.489 . S
C1931 C391 1.524 . S
C1945 C424 1.516 . S
C1951 N599 1.474 . S
C1965 C457 1.511 . S
C1971 N104 1.468 . S
C1985 N533 1.473 . S
C1991 C490 1.515 . S
C2005 N38 1.492 . S
C2011 C523 1.526 . S
C2025 N467 1.487 . S
C2031 C556 1.524 . S
C2045 C589 1.525 . S
C2051 N1028 1.490 . S
C2065 C622 1.524 . S
C2071 N401 1.489 . S
C2085 C655 1.523 . S
C2091 N962 1.487 . S
C2105 N335 1.480 . S
C2111 C688 1.520 . S
C2125 C721 1.525 . S
C2131 N896 1.489 . S
C2145 C754 1.515 . S
C2151 N269 1.475 . S
C2165 C787 1.511 . S
C2171 N830 1.467 . S
C2185 C820 1.521 . S
C2191 N203 1.483 . S
C2205 C853 1.514 . S
C2211 N764 1.473 . S
C2225 C886 1.526 . S
C2231 N137 1.491 . S
C2245 N698 1.470 . S
C2251 C919 1.513 . S
C2265 N71 1.477 . S
C2271 C952 1.516 . S
C2285 C985 1.524 . S
C2291 N632 1.487 . S
C2305 C1018 1.527 . S
C2311 N5 1.493 . S
C2325 N566 1.490 . S
C2331 C1051 1.526 . S
C2345 N14 1.761 . S
C2351 N245 1.751 . S
C2365 N47 1.758 . S
C2371 N146 1.749 . S
C2385 N80 1.752 . S
C2391 N179 1.749 . S
C2405 N113 1.764 . S
C2411 N212 1.769 . S
C2425 N509 1.769 . S
C2431 N278 1.765 . S
C2445 N410 1.769 . S
C2451 N311 1.761 . S
C2465 N443 1.760 . S
C2471 N344 1.768 . S
C2485 N476 1.767 . S
C2491 N377 1.757 . S
C2505 N773 1.769 . S
C2511 N542 1.763 . S
C2525 N674 1.759 . S
C2531 N575 1.750 . S
C2545 N707 1.762 . S
C2551 N608 1.751 . S
C2565 N641 1.763 . S
C2571 N740 1.753 . S
C2585 N806 1.758 . S
C2591 N1037 1.767 . S
C2605 N938 1.749 . S
C2611 N839 1.752 . S
C2625 N971 1.769 . S
C2631 N872 1.763 . S
C2645 N1004 1.751 . S
C2651 N905 1.762 . S
