# Generated by pormake.
# Topology sma, (6)-cn, num edge types: 1
# Building blocks:
#     Node 0, Type 0, BuildingBlock: GEDQOX_clean_sbu_0, # of connection points: 6
#     Node 1, Type 0, BuildingBlock: GEDQOX_clean_sbu_0, # of connection points: 6
#     Node 2, Type 0, BuildingBlock: GEDQOX_clean_sbu_0, # of connection points: 6
#     Edge 3, Type (0, 0), BuildingBlock: XIVTED_clean_linker_0, # of connection points: 2
#     Edge 4, Type (0, 0), BuildingBlock: XIVTED_clean_linker_0, # of connection points: 2
#     Edge 5, Type (0, 0), BuildingBlock: XIVTED_clean_linker_0, # of connection points: 2
#     Edge 6, Type (0, 0), BuildingBlock: XIVTED_clean_linker_0, # of connection points: 2
#     Edge 7, Type (0, 0), BuildingBlock: XIVTED_clean_linker_0, # of connection points: 2
#     Edge 8, Type (0, 0), BuildingBlock: XIVTED_clean_linker_0, # of connection points: 2
#     Edge 9, Type (0, 0), BuildingBlock: XIVTED_clean_linker_0, # of connection points: 2
#     Edge 10, Type (0, 0), BuildingBlock: XIVTED_clean_linker_0, # of connection points: 2
#     Edge 11, Type (0, 0), BuildingBlock: XIVTED_clean_linker_0, # of connection points: 2
# Relax obj value: 0.127
# Max RMSD: 0.260
# Mean RMSD: 0.205
data_MOF--net-sma--node1-GEDQOX_clean_sbu_0--edge1-XIVTED_clean_linker_0
_symmetry_space_group_name_H-M    P1
_symmetry_Int_Tables_number       1
_symmetry_cell_setting            triclinic
loop_
_symmetry_equiv_pos_as_xyz
'x, y, z'
_cell_length_a     40.512636
_cell_length_b     30.979835
_cell_length_c     14.414255
_cell_angle_alpha  95.982794
_cell_angle_beta   90.940856
_cell_angle_gamma 98.244177
loop_
_atom_site_label
_atom_site_type_symbol
_atom_site_fract_x
_atom_site_fract_y
_atom_site_fract_z
_atom_type_partial_charge
Nd0 Nd 0.0625 0.61016 0.01841 0.0
Nd1 Nd 0.04224 0.51122 0.03492 0.0
C2 C 0.0789 0.69373 -0.00346 0.0
C3 C 0.10523 0.7276 0.04353 0.0
C4 C 0.13221 0.7457 -0.00694 0.0
C5 C 0.159 0.77399 0.03885 0.0
C6 C 0.15935 0.78491 0.13623 0.0
C7 C 0.13174 0.76795 0.18599 0.0
C8 C 0.1051 0.7396 0.1404 0.0
C9 C 0.06745 0.58553 0.19465 0.0
C10 C 0.12053 0.54879 0.01975 0.0
C11 C 1.01616 0.43314 0.07953 0.0
C12 C 0.98497 0.41178 0.1176 0.0
C13 C 0.97454 0.42477 0.20752 0.0
C14 C 0.94466 0.40404 0.24064 0.0
C15 C 0.92457 0.37008 0.18441 0.0
C16 C 0.93522 0.35709 0.09477 0.0
C17 C 0.96508 0.3776 0.06199 0.0
C18 C 0.05967 0.53053 0.86006 0.0
C19 C 0.98306 0.57084 0.00205 0.0
O20 O 0.08937 0.66234 0.9415 0.0
O21 O 0.05416 0.67919 0.04793 0.0
O22 O 0.08865 0.61506 0.16255 0.0
O23 O 0.04409 0.57142 0.13623 0.0
O24 O 0.11057 0.58257 -0.01549 0.0
O25 O 0.09951 0.51949 0.05847 0.0
O26 O 1.03657 0.46126 0.13573 0.0
O27 O 1.01348 0.44541 -0.00411 0.0
O28 O 0.06587 0.49541 0.89461 0.0
O29 O 0.04291 0.55262 0.91468 0.0
O30 O 0.99069 0.53361 0.02739 0.0
O31 O 1.00619 0.60392 -0.0124 0.0
H32 H 0.13304 0.73694 0.91847 0.0
H33 H 0.17992 0.78611 -0.00174 0.0
H34 H 0.13077 0.77629 0.26065 0.0
H35 H 0.08477 0.72637 0.1818 0.0
H36 H 0.9893 0.45098 0.25223 0.0
H37 H 0.93708 0.415 0.3098 0.0
H38 H 0.92068 0.33056 0.05025 0.0
H39 H 0.97266 0.3667 -0.00727 0.0
Nd40 Nd 0.50732 0.0641 0.57084 0.0
Nd41 Nd 0.58134 0.0701 0.52473 0.0
C42 C 0.44492 1.0453 0.62226 0.0
C43 C 0.41556 1.01761 0.57536 0.0
C44 C 0.38619 1.00763 0.62366 0.0
C45 C 0.35811 0.98208 0.57785 0.0
C46 C 0.35894 0.9663 0.48277 0.0
C47 C 0.38864 0.97615 0.43507 0.0
C48 C 0.41668 1.00143 0.48099 0.0
C49 C 0.52023 0.06434 0.38519 0.0
C50 C 0.5432 0.9745 0.55187 0.0
C51 C 0.64032 0.08558 0.44841 0.0
C52 C 0.66729 0.12131 0.43277 0.0
C53 C 0.66101 0.15888 0.39252 0.0
C54 C 0.6875 0.19075 0.37342 0.0
C55 C 0.7207 0.18579 0.39474 0.0
C56 C 0.72672 0.14856 0.43676 0.0
C57 C 0.70032 0.11668 0.45529 0.0
C58 C 0.56873 0.06611 0.70927 0.0
C59 C 0.54837 0.16066 0.5789 0.0
O60 O 0.46895 1.02469 0.6481 0.0
O61 O 0.45601 0.08042 0.58274 0.0
O62 O 0.4971 0.08347 0.42509 0.0
O63 O 0.53428 1.04378 0.44117 0.0
O64 O 0.51904 0.9949 0.58719 0.0
O65 O 0.56864 0.99524 0.51023 0.0
O66 O 0.61193 0.08326 0.40199 0.0
O67 O 0.63658 0.07595 0.53416 0.0
O68 O 0.59255 1.0485 0.66792 0.0
O69 O 0.55443 0.08786 0.65593 0.0
O70 O 0.57135 0.14231 0.53113 0.0
O71 O 0.52374 0.13668 0.61727 0.0
H72 H 0.38489 1.01985 0.69652 0.0
H73 H 0.33556 0.97538 0.61641 0.0
H74 H 0.39033 0.96397 0.36235 0.0
H75 H 0.43926 1.00857 0.44267 0.0
H76 H 0.63573 0.16341 0.37486 0.0
H77 H 0.682 0.21926 0.34191 0.0
H78 H 0.75196 0.14335 0.4529 0.0
H79 H 0.70577 0.08789 0.48589 0.0
Nd80 Nd 0.50561 0.56618 0.69883 0.0
Nd81 Nd 0.58193 0.58634 0.74478 0.0
C82 C 0.44248 0.53705 0.64795 0.0
C83 C 0.41058 0.53629 0.69565 0.0
C84 C 0.38114 0.51311 0.65237 0.0
C85 C 0.35089 0.5117 0.69855 0.0
C86 C 0.34963 0.53354 0.78887 0.0
C87 C 0.37938 0.55639 0.8321 0.0
C88 C 0.40952 0.55772 0.78595 0.0
C89 C 0.5235 0.58253 0.88406 0.0
C90 C 0.53852 0.66678 0.71233 0.0
C91 C 0.64113 0.61663 0.82508 0.0
C92 C 0.67506 0.60778 0.84447 0.0
C93 C 0.68452 0.56615 0.82302 0.0
C94 C 0.7176 0.55973 0.8397 0.0
C95 C 0.74161 0.59495 0.87745 0.0
C96 C 0.73163 0.63633 0.89978 0.0
C97 C 0.69873 0.64262 0.88334 0.0
C98 C 0.56555 0.56913 0.55974 0.0
C99 C 0.55151 0.48602 0.68739 0.0
O100 O 0.4577 0.57566 0.63232 0.0
O101 O 0.46287 0.51239 0.67892 0.0
O102 O 0.49732 0.59498 0.84894 0.0
O103 O 0.53767 0.56048 0.82346 0.0
O104 O 0.51424 0.63777 0.67151 0.0
O105 O 0.56384 0.65458 0.75743 0.0
O106 O 0.61658 0.59589 0.86851 0.0
O107 O 0.63337 0.62126 0.73864 0.0
O108 O 0.59268 0.55887 0.59595 0.0
O109 O 0.55014 0.59063 0.61894 0.0
O110 O 0.57598 0.51156 0.73681 0.0
O111 O 0.52565 0.50162 0.653 0.0
H112 H 0.38152 0.4962 0.58279 0.0
H113 H 0.32841 0.49425 0.66279 0.0
H114 H 0.37944 0.57305 0.90201 0.0
H115 H 0.43202 0.57547 0.82091 0.0
H116 H 0.66648 0.5389 0.79264 0.0
H117 H 0.72453 0.52753 0.82122 0.0
H118 H 0.74925 0.66395 0.93049 0.0
H119 H 0.69179 0.67496 0.90049 0.0
H120 H 0.14794 0.47231 -0.01081 0.0
H121 H 0.32764 0.60248 0.89185 0.0
H122 H 0.17331 0.6132 0.02141 0.0
H123 H 0.29787 0.46561 0.79485 0.0
H124 H 0.27403 0.60379 -0.03464 0.0
H125 H 0.20564 0.46626 0.94403 0.0
C126 C 0.16582 0.50184 -0.01126 0.0
C127 C 0.15591 0.54331 0.00852 0.0
C128 C 0.27922 0.57336 0.9284 0.0
C129 C 0.22146 0.53675 -0.04327 0.0
C130 C 0.30997 0.57251 0.88679 0.0
C131 C 0.31733 0.53391 0.83667 0.0
C132 C 0.25542 0.53533 0.92021 0.0
C133 C 0.29311 0.49627 0.8316 0.0
C134 C 0.19859 0.49842 -0.03781 0.0
C135 C 0.17988 0.58059 0.00591 0.0
N136 N 0.26319 0.49793 0.8726 0.0
N137 N 0.21141 0.57643 -0.01985 0.0
H138 H 0.77786 0.21888 0.49872 0.0
H139 H 0.86457 0.34528 0.08899 0.0
H140 H 0.72867 0.22622 0.23423 0.0
H141 H 0.91218 0.34368 0.35833 0.0
H142 H 0.81376 0.30443 0.14347 0.0
H143 H 0.8263 0.26731 0.45147 0.0
C144 C 0.77721 0.23076 0.43075 0.0
C145 C 0.74918 0.21818 0.37014 0.0
C146 C 0.83524 0.31318 0.19091 0.0
C147 C 0.80465 0.27384 0.31556 0.0
C148 C 0.86435 0.33633 0.15966 0.0
C149 C 0.89284 0.34767 0.2189 0.0
C150 C 0.83452 0.30096 0.28209 0.0
C151 C 0.89081 0.33589 0.31036 0.0
C152 C 0.80484 0.25857 0.40395 0.0
C153 C 0.74957 0.23524 0.28355 0.0
N154 N 0.86227 0.31293 0.33888 0.0
N155 N 0.77693 0.26188 0.25862 0.0
H156 H 0.48859 0.91577 0.58004 0.0
H157 H 0.5922 0.73242 0.72954 0.0
H158 H 0.59562 0.92762 0.56046 0.0
H159 H 0.48689 0.70687 0.6569 0.0
H160 H 0.59383 0.80709 0.68582 0.0
H161 H 0.48746 0.84138 0.62246 0.0
C162 C 0.51186 0.90253 0.58387 0.0
C163 C 0.54225 0.92785 0.56644 0.0
C164 C 0.57039 0.7851 0.67981 0.0
C165 C 0.54118 0.84291 0.61678 0.0
C166 C 0.56934 0.74267 0.70564 0.0
C167 C 0.53933 0.71337 0.69691 0.0
C168 C 0.54114 0.79845 0.64622 0.0
C169 C 0.51058 0.72829 0.66457 0.0
C170 C 0.51119 0.86008 0.60822 0.0
C171 C 0.57163 0.90904 0.5725 0.0
N172 N 0.51219 0.76977 0.64057 0.0
N173 N 0.57042 0.86776 0.59809 0.0
H174 H 0.76645 0.52618 0.94706 0.0
H175 H 0.95701 0.6395 0.93786 0.0
H176 H 0.79771 0.65077 0.84283 0.0
H177 H 0.92776 0.51108 0.02715 0.0
H178 H 0.89847 0.64439 0.9057 0.0
H179 H 0.82512 0.51963 -0.02251 0.0
C180 C 0.78562 0.55199 0.92994 0.0
C181 C 0.77707 0.58922 0.8929 0.0
C182 C 0.90481 0.61513 0.9324 0.0
C183 C 0.84424 0.58217 0.92845 0.0
C184 C 0.93831 0.61235 -0.04893 0.0
C185 C 0.94745 0.57481 -0.01469 0.0
C186 C 0.8801 0.58017 -0.05185 0.0
C187 C 0.92197 0.54067 0.00075 0.0
C188 C 0.81911 0.54836 -0.05215 0.0
C189 C 0.80302 0.62185 0.87302 0.0
N190 N 0.88949 0.54417 -0.01794 0.0
N191 N 0.83532 0.61759 0.89119 0.0
H192 H 0.31527 0.90022 0.54579 0.0
H193 H 0.1987 0.85727 0.08053 0.0
H194 H 0.3343 0.97196 0.30654 0.0
H195 H 0.18739 0.77574 0.30659 0.0
H196 H 0.24707 0.90153 0.1643 0.0
H197 H 0.26654 0.85676 0.46225 0.0
C198 C 0.3091 0.90703 0.47589 0.0
C199 C 0.32899 0.93981 0.43318 0.0
C200 C 0.23396 0.87397 0.19557 0.0
C201 C 0.27325 0.88989 0.33665 0.0
C202 C 0.2064 0.84851 0.14752 0.0
C203 C 0.18873 0.81267 0.18644 0.0
C204 C 0.24402 0.86366 0.28341 0.0
C205 C 0.19974 0.80344 0.27431 0.0
C206 C 0.28137 0.882 0.42796 0.0
C207 C 0.31997 0.9467 0.34187 0.0
N208 N 0.22658 0.82871 0.31966 0.0
N209 N 0.29278 0.92205 0.29681 0.0
H210 H 0.49915 0.4223 0.63698 0.0
H211 H 0.60286 0.22296 0.55996 0.0
H212 H 0.60535 0.44105 0.69669 0.0
H213 H 0.49894 0.20821 0.63013 0.0
H214 H 0.60514 0.30313 0.58624 0.0
H215 H 0.49956 0.34358 0.60888 0.0
C216 C 0.52265 0.40989 0.64377 0.0
C217 C 0.55229 0.43833 0.66937 0.0
C218 C 0.58195 0.28215 0.59598 0.0
C219 C 0.55285 0.34793 0.63679 0.0
C220 C 0.58056 0.23654 0.58061 0.0
C221 C 0.55066 0.20893 0.59308 0.0
C222 C 0.55308 0.3 0.622 0.0
C223 C 0.52255 0.2282 0.62017 0.0
C224 C 0.5228 0.36487 0.62814 0.0
C225 C 0.58192 0.42021 0.67758 0.0
N226 N 0.52441 0.27248 0.6331 0.0
N227 N 0.58152 0.37602 0.66081 0.0
H228 H 0.06782 0.46946 0.71626 0.0
H229 H 1.02756 0.5208 0.26969 0.0
H230 H 0.0613 0.60705 0.78199 0.0
H231 H 0.10737 0.62796 0.33948 0.0
H232 H 1.02847 0.50419 0.43232 0.0
H233 H 0.07091 0.48052 0.55033 0.0
C234 C 0.06739 0.50204 0.6957 0.0
C235 C 0.06405 0.53745 0.76196 0.0
C236 C 0.04597 0.53098 0.41127 0.0
C237 C 0.06798 0.55011 0.57462 0.0
C238 C 0.04551 0.54036 0.31902 0.0
C239 C 0.06785 0.57511 0.29138 0.0
C240 C 0.06826 0.55745 0.47615 0.0
C241 C 0.09001 0.60054 0.35826 0.0
C242 C 0.06896 0.50816 0.60155 0.0
C243 C 0.06362 0.57901 0.73234 0.0
N244 N 0.08937 0.59156 0.44844 0.0
N245 N 0.06579 0.58436 0.64026 0.0
H246 H 0.49079 0.10651 0.25831 0.0
H247 H 0.59892 1.02341 0.83477 0.0
H248 H 0.56485 1.02113 0.28627 0.0
H249 H 0.52193 0.10458 0.80761 0.0
H250 H 0.58698 1.02184 0.00027 0.0
H251 H 0.50207 0.10606 0.09262 0.0
C252 C 0.50945 0.08764 0.22931 0.0
C253 C 0.527 0.06388 0.28555 0.0
C254 C 0.57268 1.03997 -0.04189 0.0
C255 C 0.54008 0.0632 0.09641 0.0
C256 C 0.57951 1.04089 0.86386 0.0
C257 C 0.56147 0.06436 0.80817 0.0
C258 C 0.54767 0.06272 -0.00352 0.0
C259 C 0.53648 0.08628 0.84861 0.0
C260 C 0.51588 0.08738 0.1348 0.0
C261 C 0.55089 1.03998 0.24494 0.0
N262 N 0.53035 0.085 0.94055 0.0
N263 N 0.55679 1.04028 0.15253 0.0
H264 H 0.60137 0.53633 0.41753 0.0
H265 H 0.49029 0.619 0.02774 0.0
H266 H 0.51335 0.59693 0.47605 0.0
H267 H 0.57141 0.54526 -0.03419 0.0
H268 H 0.49963 0.61357 0.19387 0.0
H269 H 0.59128 0.53979 0.2509 0.0
C270 C 0.57981 0.55001 0.39499 0.0
C271 C 0.5583 0.56672 0.45978 0.0
C272 C 0.51544 0.59869 0.14387 0.0
C273 C 0.54678 0.5712 0.27105 0.0
C274 C 0.51021 0.60201 0.04942 0.0
C275 C 0.5302 0.58266 -0.01617 0.0
C276 C 0.54083 0.57594 0.17208 0.0
C277 C 0.55562 0.56088 0.01469 0.0
C278 C 0.5741 0.55213 0.30026 0.0
C279 C 0.53064 0.58401 0.42783 0.0
N280 N 0.56021 0.55802 0.1069 0.0
N281 N 0.52577 0.58607 0.33544 0.0
loop_
_geom_bond_atom_site_label_1
_geom_bond_atom_site_label_2
_geom_bond_distance
_geom_bond_site_symmetry_2
_ccdc_geom_bond_type
Nd0 C2 2.836 . S
Nd0 O20 2.500 . S
Nd0 O21 2.492 . S
Nd0 O22 2.487 . S
Nd0 O23 2.682 1_455 S
Nd0 O24 2.410 . S
Nd0 O29 2.414 . S
Nd0 O31 2.424 1_455 S
Nd1 C11 2.836 . S
Nd1 O23 2.414 . S
Nd1 O25 2.424 1_655 S
Nd1 O26 2.500 . S
Nd1 O27 2.492 . S
Nd1 O28 2.487 1_554 S
Nd1 O29 2.682 1_655 S
Nd1 O30 2.410 . S
C2 Nd0 2.836 . S
C2 C3 1.498 . S
C2 O20 1.258 . S
C2 O21 1.239 . S
C3 C2 1.498 . S
C3 C4 1.366 . S
C3 C8 1.407 . S
C4 C3 1.366 . S
C4 C5 1.392 . S
C4 H32 0.930 . S
C5 C4 1.392 . S
C5 C6 1.398 . S
C5 H33 0.929 . S
C6 C5 1.398 . S
C6 C7 1.352 . S
C7 C6 1.352 . S
C7 C8 1.384 . S
C7 H34 0.930 . S
C8 C3 1.407 . S
C8 C7 1.384 . S
C8 H35 0.929 . S
C9 O22 1.241 . S
C9 O23 1.273 1_455 S
C10 O24 1.251 . S
C10 O25 1.268 . S
C11 Nd1 2.836 . S
C11 C12 1.498 . S
C11 O26 1.258 . S
C11 O27 1.239 . S
C12 C11 1.498 . S
C12 C13 1.366 . S
C12 C17 1.407 . S
C13 C12 1.366 . S
C13 C14 1.392 . S
C13 H36 0.930 . S
C14 C13 1.392 . S
C14 C15 1.398 . S
C14 H37 0.929 . S
C15 C14 1.398 . S
C15 C16 1.352 . S
C16 C15 1.352 . S
C16 C17 1.384 . S
C16 H38 0.930 1_554 S
C17 C12 1.407 . S
C17 C16 1.384 . S
C17 H39 0.929 1_554 S
C18 O28 1.241 1_455 S
C18 O29 1.273 1_556 S
C19 O30 1.251 . S
C19 O31 1.268 . S
O20 Nd0 2.500 . S
O20 C2 1.258 . S
O21 Nd0 2.492 . S
O21 C2 1.239 . S
O22 Nd0 2.487 . S
O22 C9 1.241 . S
O23 Nd0 2.682 1_655 S
O23 Nd1 2.414 . S
O23 C9 1.273 1_655 S
O24 Nd0 2.410 . S
O24 C10 1.251 . S
O25 Nd1 2.424 1_455 S
O25 C10 1.268 . S
O26 Nd1 2.500 . S
O26 C11 1.258 . S
O27 Nd1 2.492 . S
O27 C11 1.239 . S
O28 Nd1 2.487 1_556 S
O28 C18 1.241 1_655 S
O29 Nd0 2.414 . S
O29 Nd1 2.682 1_455 S
O29 C18 1.273 1_554 S
O30 Nd1 2.410 . S
O30 C19 1.251 . S
O31 Nd0 2.424 1_655 S
O31 C19 1.268 . S
H32 C4 0.930 . S
H33 C5 0.929 . S
H34 C7 0.930 . S
H35 C8 0.929 . S
H36 C13 0.930 . S
H37 C14 0.929 . S
H38 C16 0.930 1_556 S
H39 C17 0.929 1_556 S
Nd40 C42 2.836 1_545 S
Nd40 O60 2.500 1_545 S
Nd40 O61 2.492 1_545 S
Nd40 O62 2.487 1_545 S
Nd40 O63 2.682 . S
Nd40 O64 2.410 1_545 S
Nd40 O69 2.414 . S
Nd40 O71 2.424 . S
Nd41 C51 2.836 . S
Nd41 O63 2.414 . S
Nd41 O65 2.424 1_545 S
Nd41 O66 2.500 . S
Nd41 O67 2.492 . S
Nd41 O68 2.487 . S
Nd41 O69 2.682 . S
Nd41 O70 2.410 . S
C42 Nd40 2.836 1_565 S
C42 C43 1.498 . S
C42 O60 1.258 . S
C42 O61 1.239 . S
C43 C42 1.498 . S
C43 C44 1.366 . S
C43 C48 1.407 . S
C44 C43 1.366 . S
C44 C45 1.392 . S
C44 H72 0.930 . S
C45 C44 1.392 . S
C45 C46 1.398 . S
C45 H73 0.929 . S
C46 C45 1.398 . S
C46 C47 1.352 . S
C47 C46 1.352 . S
C47 C48 1.384 . S
C47 H74 0.930 . S
C48 C43 1.407 . S
C48 C47 1.384 . S
C48 H75 0.929 . S
C49 O62 1.241 1_545 S
C49 O63 1.273 . S
C50 O64 1.251 . S
C50 O65 1.268 . S
C51 Nd41 2.836 . S
C51 C52 1.498 . S
C51 O66 1.258 . S
C51 O67 1.239 . S
C52 C51 1.498 . S
C52 C53 1.366 . S
C52 C57 1.407 . S
C53 C52 1.366 . S
C53 C54 1.392 . S
C53 H76 0.930 . S
C54 C53 1.392 . S
C54 C55 1.398 . S
C54 H77 0.929 . S
C55 C54 1.398 . S
C55 C56 1.352 . S
C56 C55 1.352 . S
C56 C57 1.384 . S
C56 H78 0.930 . S
C57 C52 1.407 . S
C57 C56 1.384 . S
C57 H79 0.929 . S
C58 O68 1.241 . S
C58 O69 1.273 . S
C59 O70 1.251 . S
C59 O71 1.268 . S
O60 Nd40 2.500 1_565 S
O60 C42 1.258 . S
O61 Nd40 2.492 1_565 S
O61 C42 1.239 . S
O62 Nd40 2.487 1_565 S
O62 C49 1.241 1_565 S
O63 Nd40 2.682 . S
O63 Nd41 2.414 . S
O63 C49 1.273 . S
O64 Nd40 2.410 1_565 S
O64 C50 1.251 . S
O65 Nd41 2.424 1_565 S
O65 C50 1.268 . S
O66 Nd41 2.500 . S
O66 C51 1.258 . S
O67 Nd41 2.492 . S
O67 C51 1.239 . S
O68 Nd41 2.487 . S
O68 C58 1.241 . S
O69 Nd40 2.414 . S
O69 Nd41 2.682 . S
O69 C58 1.273 . S
O70 Nd41 2.410 . S
O70 C59 1.251 . S
O71 Nd40 2.424 . S
O71 C59 1.268 . S
H72 C44 0.930 . S
H73 C45 0.929 . S
H74 C47 0.930 . S
H75 C48 0.929 . S
H76 C53 0.930 . S
H77 C54 0.929 . S
H78 C56 0.930 . S
H79 C57 0.929 . S
Nd80 C82 2.836 . S
Nd80 O100 2.500 . S
Nd80 O101 2.492 . S
Nd80 O102 2.487 1_556 S
Nd80 O103 2.682 . S
Nd80 O104 2.410 . S
Nd80 O109 2.414 . S
Nd80 O111 2.424 . S
Nd81 C91 2.836 . S
Nd81 O103 2.414 . S
Nd81 O105 2.424 . S
Nd81 O106 2.500 . S
Nd81 O107 2.492 . S
Nd81 O108 2.487 . S
Nd81 O109 2.682 . S
Nd81 O110 2.410 . S
C82 Nd80 2.836 . S
C82 C83 1.498 . S
C82 O100 1.258 . S
C82 O101 1.239 . S
C83 C82 1.498 . S
C83 C84 1.366 . S
C83 C88 1.407 . S
C84 C83 1.366 . S
C84 C85 1.392 . S
C84 H112 0.930 . S
C85 C84 1.392 . S
C85 C86 1.398 . S
C85 H113 0.929 . S
C86 C85 1.398 . S
C86 C87 1.352 . S
C87 C86 1.352 . S
C87 C88 1.384 . S
C87 H114 0.930 . S
C88 C83 1.407 . S
C88 C87 1.384 . S
C88 H115 0.929 . S
C89 O102 1.241 . S
C89 O103 1.273 1_554 S
C90 O104 1.251 . S
C90 O105 1.268 . S
C91 Nd81 2.836 . S
C91 C92 1.498 . S
C91 O106 1.258 . S
C91 O107 1.239 . S
C92 C91 1.498 . S
C92 C93 1.366 . S
C92 C97 1.407 . S
C93 C92 1.366 . S
C93 C94 1.392 . S
C93 H116 0.930 . S
C94 C93 1.392 . S
C94 C95 1.398 . S
C94 H117 0.929 . S
C95 C94 1.398 . S
C95 C96 1.352 . S
C96 C95 1.352 . S
C96 C97 1.384 . S
C96 H118 0.930 . S
C97 C92 1.407 . S
C97 C96 1.384 . S
C97 H119 0.929 . S
C98 O108 1.241 . S
C98 O109 1.273 . S
C99 O110 1.251 . S
C99 O111 1.268 . S
O100 Nd80 2.500 . S
O100 C82 1.258 . S
O101 Nd80 2.492 . S
O101 C82 1.239 . S
O102 Nd80 2.487 1_554 S
O102 C89 1.241 . S
O103 Nd80 2.682 . S
O103 Nd81 2.414 . S
O103 C89 1.273 1_556 S
O104 Nd80 2.410 . S
O104 C90 1.251 . S
O105 Nd81 2.424 . S
O105 C90 1.268 . S
O106 Nd81 2.500 . S
O106 C91 1.258 . S
O107 Nd81 2.492 . S
O107 C91 1.239 . S
O108 Nd81 2.487 . S
O108 C98 1.241 . S
O109 Nd80 2.414 . S
O109 Nd81 2.682 . S
O109 C98 1.273 . S
O110 Nd81 2.410 . S
O110 C99 1.251 . S
O111 Nd80 2.424 . S
O111 C99 1.268 . S
H112 C84 0.930 . S
H113 C85 0.929 . S
H114 C87 0.930 . S
H115 C88 0.929 . S
H116 C93 0.930 . S
H117 C94 0.929 . S
H118 C96 0.930 . S
H119 C97 0.929 . S
H120 C126 0.930 . S
H121 C130 0.930 1_554 S
H122 C135 0.929 . S
H123 C133 0.929 . S
H124 C128 0.929 . S
H125 C134 0.929 . S
C126 H120 0.930 . S
C126 C127 1.367 1_556 S
C126 C134 1.378 . S
C127 C126 1.367 1_554 S
C127 C135 1.433 . S
C128 H124 0.929 . S
C128 C130 1.378 1_554 S
C128 C132 1.350 1_554 S
C129 C132 1.463 . S
C129 C134 1.350 . S
C129 N137 1.427 1_556 S
C130 H121 0.930 1_556 S
C130 C128 1.378 1_556 S
C130 C131 1.367 . S
C131 C130 1.367 . S
C131 C133 1.433 . S
C132 C128 1.350 1_556 S
C132 C129 1.463 . S
C132 N136 1.427 . S
C133 H123 0.929 . S
C133 C131 1.433 . S
C133 N136 1.384 . S
C134 H125 0.929 . S
C134 C126 1.378 . S
C134 C129 1.350 . S
C135 H122 0.929 . S
C135 C127 1.433 . S
C135 N137 1.384 . S
N136 C132 1.427 . S
N136 C133 1.384 . S
N137 C129 1.427 1_554 S
N137 C135 1.384 . S
H138 C144 0.930 . S
H139 C148 0.930 . S
H140 C153 0.929 . S
H141 C151 0.929 . S
H142 C146 0.929 . S
H143 C152 0.929 . S
C144 H138 0.930 . S
C144 C145 1.367 . S
C144 C152 1.378 . S
C145 C144 1.367 . S
C145 C153 1.433 . S
C146 H142 0.929 . S
C146 C148 1.378 . S
C146 C150 1.350 . S
C147 C150 1.463 . S
C147 C152 1.350 . S
C147 N155 1.427 . S
C148 H139 0.930 . S
C148 C146 1.378 . S
C148 C149 1.367 . S
C149 C148 1.367 . S
C149 C151 1.433 . S
C150 C146 1.350 . S
C150 C147 1.463 . S
C150 N154 1.427 . S
C151 H141 0.929 . S
C151 C149 1.433 . S
C151 N154 1.384 . S
C152 H143 0.929 . S
C152 C144 1.378 . S
C152 C147 1.350 . S
C153 H140 0.929 . S
C153 C145 1.433 . S
C153 N155 1.384 . S
N154 C150 1.427 . S
N154 C151 1.384 . S
N155 C147 1.427 . S
N155 C153 1.384 . S
H156 C162 0.930 . S
H157 C166 0.930 . S
H158 C171 0.929 . S
H159 C169 0.929 . S
H160 C164 0.929 . S
H161 C170 0.929 . S
C162 H156 0.930 . S
C162 C163 1.367 . S
C162 C170 1.378 . S
C163 C162 1.367 . S
C163 C171 1.433 . S
C164 H160 0.929 . S
C164 C166 1.378 . S
C164 C168 1.350 . S
C165 C168 1.463 . S
C165 C170 1.350 . S
C165 N173 1.427 . S
C166 H157 0.930 . S
C166 C164 1.378 . S
C166 C167 1.367 . S
C167 C166 1.367 . S
C167 C169 1.433 . S
C168 C164 1.350 . S
C168 C165 1.463 . S
C168 N172 1.427 . S
C169 H159 0.929 . S
C169 C167 1.433 . S
C169 N172 1.384 . S
C170 H161 0.929 . S
C170 C162 1.378 . S
C170 C165 1.350 . S
C171 H158 0.929 . S
C171 C163 1.433 . S
C171 N173 1.384 . S
N172 C168 1.427 . S
N172 C169 1.384 . S
N173 C165 1.427 . S
N173 C171 1.384 . S
H174 C180 0.930 . S
H175 C184 0.930 1_556 S
H176 C189 0.929 . S
H177 C187 0.929 . S
H178 C182 0.929 . S
H179 C188 0.929 . S
C180 H174 0.930 . S
C180 C181 1.367 1_554 S
C180 C188 1.378 . S
C181 C180 1.367 1_556 S
C181 C189 1.433 . S
C182 H178 0.929 . S
C182 C184 1.378 1_556 S
C182 C186 1.350 1_556 S
C183 C186 1.463 1_556 S
C183 C188 1.350 1_556 S
C183 N191 1.427 . S
C184 H175 0.930 1_554 S
C184 C182 1.378 1_554 S
C184 C185 1.367 . S
C185 C184 1.367 . S
C185 C187 1.433 . S
C186 C182 1.350 1_554 S
C186 C183 1.463 1_554 S
C186 N190 1.427 . S
C187 H177 0.929 . S
C187 C185 1.433 . S
C187 N190 1.384 . S
C188 H179 0.929 . S
C188 C180 1.378 . S
C188 C183 1.350 1_554 S
C189 H176 0.929 . S
C189 C181 1.433 . S
C189 N191 1.384 . S
N190 C186 1.427 . S
N190 C187 1.384 . S
N191 C183 1.427 . S
N191 C189 1.384 . S
H192 C198 0.930 . S
H193 C202 0.930 . S
H194 C207 0.929 . S
H195 C205 0.929 . S
H196 C200 0.929 . S
H197 C206 0.929 . S
C198 H192 0.930 . S
C198 C199 1.367 . S
C198 C206 1.378 . S
C199 C198 1.367 . S
C199 C207 1.433 . S
C200 H196 0.929 . S
C200 C202 1.378 . S
C200 C204 1.350 . S
C201 C204 1.463 . S
C201 C206 1.350 . S
C201 N209 1.427 . S
C202 H193 0.930 . S
C202 C200 1.378 . S
C202 C203 1.367 . S
C203 C202 1.367 . S
C203 C205 1.433 . S
C204 C200 1.350 . S
C204 C201 1.463 . S
C204 N208 1.427 . S
C205 H195 0.929 . S
C205 C203 1.433 . S
C205 N208 1.384 . S
C206 H197 0.929 . S
C206 C198 1.378 . S
C206 C201 1.350 . S
C207 H194 0.929 . S
C207 C199 1.433 . S
C207 N209 1.384 . S
N208 C204 1.427 . S
N208 C205 1.384 . S
N209 C201 1.427 . S
N209 C207 1.384 . S
H210 C216 0.930 . S
H211 C220 0.930 . S
H212 C225 0.929 . S
H213 C223 0.929 . S
H214 C218 0.929 . S
H215 C224 0.929 . S
C216 H210 0.930 . S
C216 C217 1.367 . S
C216 C224 1.378 . S
C217 C216 1.367 . S
C217 C225 1.433 . S
C218 H214 0.929 . S
C218 C220 1.378 . S
C218 C222 1.350 . S
C219 C222 1.463 . S
C219 C224 1.350 . S
C219 N227 1.427 . S
C220 H211 0.930 . S
C220 C218 1.378 . S
C220 C221 1.367 . S
C221 C220 1.367 . S
C221 C223 1.433 . S
C222 C218 1.350 . S
C222 C219 1.463 . S
C222 N226 1.427 . S
C223 H213 0.929 . S
C223 C221 1.433 . S
C223 N226 1.384 . S
C224 H215 0.929 . S
C224 C216 1.378 . S
C224 C219 1.350 . S
C225 H212 0.929 . S
C225 C217 1.433 . S
C225 N227 1.384 . S
N226 C222 1.427 . S
N226 C223 1.384 . S
N227 C219 1.427 . S
N227 C225 1.384 . S
H228 C234 0.930 . S
H229 C238 0.930 . S
H230 C243 0.929 . S
H231 C241 0.929 . S
H232 C236 0.929 . S
H233 C242 0.929 . S
C234 H228 0.930 . S
C234 C235 1.367 . S
C234 C242 1.378 . S
C235 C234 1.367 . S
C235 C243 1.433 . S
C236 H232 0.929 . S
C236 C238 1.378 . S
C236 C240 1.350 1_655 S
C237 C240 1.463 . S
C237 C242 1.350 . S
C237 N245 1.427 . S
C238 H229 0.930 . S
C238 C236 1.378 . S
C238 C239 1.371 . S
C239 C238 1.371 . S
C239 C241 1.429 1_655 S
C240 C236 1.350 1_455 S
C240 C237 1.463 . S
C240 N244 1.427 . S
C241 H231 0.929 . S
C241 C239 1.429 1_455 S
C241 N244 1.384 . S
C242 H233 0.929 . S
C242 C234 1.378 . S
C242 C237 1.350 . S
C243 H230 0.929 . S
C243 C235 1.433 . S
C243 N245 1.384 . S
N244 C240 1.427 . S
N244 C241 1.384 . S
N245 C237 1.427 . S
N245 C243 1.384 . S
H246 C252 0.930 . S
H247 C256 0.930 . S
H248 C261 0.929 . S
H249 C259 0.929 . S
H250 C254 0.929 . S
H251 C260 0.929 . S
C252 H246 0.930 . S
C252 C253 1.367 . S
C252 C260 1.378 . S
C253 C252 1.367 . S
C253 C261 1.433 1_545 S
C254 H250 0.929 . S
C254 C256 1.378 . S
C254 C258 1.350 1_565 S
C255 C258 1.463 1_554 S
C255 C260 1.350 . S
C255 N263 1.427 1_545 S
C256 H247 0.930 . S
C256 C254 1.378 . S
C256 C257 1.367 1_565 S
C257 C256 1.367 1_545 S
C257 C259 1.433 . S
C258 C254 1.350 1_545 S
C258 C255 1.463 1_556 S
C258 N262 1.427 . S
C259 H249 0.929 . S
C259 C257 1.433 . S
C259 N262 1.384 . S
C260 H251 0.929 . S
C260 C252 1.378 . S
C260 C255 1.350 . S
C261 H248 0.929 . S
C261 C253 1.433 1_565 S
C261 N263 1.384 . S
N262 C258 1.427 . S
N262 C259 1.384 . S
N263 C255 1.427 1_565 S
N263 C261 1.384 . S
H264 C270 0.930 . S
H265 C274 0.930 . S
H266 C279 0.929 . S
H267 C277 0.929 . S
H268 C272 0.929 . S
H269 C278 0.929 . S
C270 H264 0.930 . S
C270 C271 1.367 . S
C270 C278 1.378 . S
C271 C270 1.367 . S
C271 C279 1.433 . S
C272 H268 0.929 . S
C272 C274 1.378 . S
C272 C276 1.350 . S
C273 C276 1.463 . S
C273 C278 1.350 . S
C273 N281 1.427 . S
C274 H265 0.930 . S
C274 C272 1.378 . S
C274 C275 1.367 . S
C275 C274 1.367 . S
C275 C277 1.433 . S
C276 C272 1.350 . S
C276 C273 1.463 . S
C276 N280 1.427 . S
C277 H267 0.929 . S
C277 C275 1.433 . S
C277 N280 1.384 . S
C278 H269 0.929 . S
C278 C270 1.378 . S
C278 C273 1.350 . S
C279 H266 0.929 . S
C279 C271 1.433 . S
C279 N281 1.384 . S
N280 C276 1.427 . S
N280 C277 1.384 . S
N281 C273 1.427 . S
N281 C279 1.384 . S
C127 C10 2.596 . S
C131 C86 2.445 . S
C145 C55 1.679 . S
C149 C15 1.683 . S
C163 C50 3.015 . S
C167 C90 2.964 . S
C181 C95 2.221 . S
C185 C19 2.208 . S
C199 C46 1.449 . S
C203 C6 1.462 . S
C217 C99 2.655 . S
C221 C59 2.693 . S
C235 C18 0.528 . S
C239 C9 0.523 1_655 S
C253 C49 0.549 . S
C257 C58 0.549 . S
C271 C98 0.574 . S
C275 C89 0.574 . S
