# Generated by pormake.
# Topology wgb, (5)-cn, num edge types: 1
# Building blocks:
#     Node 0, Type 0, BuildingBlock: XOMCOT_clean_sbu_1, # of connection points: 5
#     Node 1, Type 0, BuildingBlock: XOMCOT_clean_sbu_1, # of connection points: 5
#     Node 2, Type 0, BuildingBlock: XOMCOT_clean_sbu_1, # of connection points: 5
#     Node 3, Type 0, BuildingBlock: XOMCOT_clean_sbu_1, # of connection points: 5
#     Node 4, Type 0, BuildingBlock: XOMCOT_clean_sbu_1, # of connection points: 5
#     Node 5, Type 0, BuildingBlock: XOMCOT_clean_sbu_1, # of connection points: 5
#     Node 6, Type 0, BuildingBlock: XOMCOT_clean_sbu_1, # of connection points: 5
#     Node 7, Type 0, BuildingBlock: XOMCOT_clean_sbu_1, # of connection points: 5
#     Node 8, Type 0, BuildingBlock: XOMCOT_clean_sbu_1, # of connection points: 5
#     Node 9, Type 0, BuildingBlock: XOMCOT_clean_sbu_1, # of connection points: 5
#     Node 10, Type 0, BuildingBlock: XOMCOT_clean_sbu_1, # of connection points: 5
#     Node 11, Type 0, BuildingBlock: XOMCOT_clean_sbu_1, # of connection points: 5
#     Node 12, Type 0, BuildingBlock: XOMCOT_clean_sbu_1, # of connection points: 5
#     Node 13, Type 0, BuildingBlock: XOMCOT_clean_sbu_1, # of connection points: 5
#     Node 14, Type 0, BuildingBlock: XOMCOT_clean_sbu_1, # of connection points: 5
#     Node 15, Type 0, BuildingBlock: XOMCOT_clean_sbu_1, # of connection points: 5
#     Edge 16, Type (0, 0), BuildingBlock: AJUNOK_clean_linker_0, # of connection points: 2
#     Edge 17, Type (0, 0), BuildingBlock: AJUNOK_clean_linker_0, # of connection points: 2
#     Edge 18, Type (0, 0), BuildingBlock: AJUNOK_clean_linker_0, # of connection points: 2
#     Edge 19, Type (0, 0), BuildingBlock: AJUNOK_clean_linker_0, # of connection points: 2
#     Edge 20, Type (0, 0), BuildingBlock: AJUNOK_clean_linker_0, # of connection points: 2
#     Edge 21, Type (0, 0), BuildingBlock: AJUNOK_clean_linker_0, # of connection points: 2
#     Edge 22, Type (0, 0), BuildingBlock: AJUNOK_clean_linker_0, # of connection points: 2
#     Edge 23, Type (0, 0), BuildingBlock: AJUNOK_clean_linker_0, # of connection points: 2
#     Edge 24, Type (0, 0), BuildingBlock: AJUNOK_clean_linker_0, # of connection points: 2
#     Edge 25, Type (0, 0), BuildingBlock: AJUNOK_clean_linker_0, # of connection points: 2
#     Edge 26, Type (0, 0), BuildingBlock: AJUNOK_clean_linker_0, # of connection points: 2
#     Edge 27, Type (0, 0), BuildingBlock: AJUNOK_clean_linker_0, # of connection points: 2
#     Edge 28, Type (0, 0), BuildingBlock: AJUNOK_clean_linker_0, # of connection points: 2
#     Edge 29, Type (0, 0), BuildingBlock: AJUNOK_clean_linker_0, # of connection points: 2
#     Edge 30, Type (0, 0), BuildingBlock: AJUNOK_clean_linker_0, # of connection points: 2
#     Edge 31, Type (0, 0), BuildingBlock: AJUNOK_clean_linker_0, # of connection points: 2
#     Edge 32, Type (0, 0), BuildingBlock: AJUNOK_clean_linker_0, # of connection points: 2
#     Edge 33, Type (0, 0), BuildingBlock: AJUNOK_clean_linker_0, # of connection points: 2
#     Edge 34, Type (0, 0), BuildingBlock: AJUNOK_clean_linker_0, # of connection points: 2
#     Edge 35, Type (0, 0), BuildingBlock: AJUNOK_clean_linker_0, # of connection points: 2
#     Edge 36, Type (0, 0), BuildingBlock: AJUNOK_clean_linker_0, # of connection points: 2
#     Edge 37, Type (0, 0), BuildingBlock: AJUNOK_clean_linker_0, # of connection points: 2
#     Edge 38, Type (0, 0), BuildingBlock: AJUNOK_clean_linker_0, # of connection points: 2
#     Edge 39, Type (0, 0), BuildingBlock: AJUNOK_clean_linker_0, # of connection points: 2
#     Edge 40, Type (0, 0), BuildingBlock: AJUNOK_clean_linker_0, # of connection points: 2
#     Edge 41, Type (0, 0), BuildingBlock: AJUNOK_clean_linker_0, # of connection points: 2
#     Edge 42, Type (0, 0), BuildingBlock: AJUNOK_clean_linker_0, # of connection points: 2
#     Edge 43, Type (0, 0), BuildingBlock: AJUNOK_clean_linker_0, # of connection points: 2
#     Edge 44, Type (0, 0), BuildingBlock: AJUNOK_clean_linker_0, # of connection points: 2
#     Edge 45, Type (0, 0), BuildingBlock: AJUNOK_clean_linker_0, # of connection points: 2
#     Edge 46, Type (0, 0), BuildingBlock: AJUNOK_clean_linker_0, # of connection points: 2
#     Edge 47, Type (0, 0), BuildingBlock: AJUNOK_clean_linker_0, # of connection points: 2
#     Edge 48, Type (0, 0), BuildingBlock: AJUNOK_clean_linker_0, # of connection points: 2
#     Edge 49, Type (0, 0), BuildingBlock: AJUNOK_clean_linker_0, # of connection points: 2
#     Edge 50, Type (0, 0), BuildingBlock: AJUNOK_clean_linker_0, # of connection points: 2
#     Edge 51, Type (0, 0), BuildingBlock: AJUNOK_clean_linker_0, # of connection points: 2
#     Edge 52, Type (0, 0), BuildingBlock: AJUNOK_clean_linker_0, # of connection points: 2
#     Edge 53, Type (0, 0), BuildingBlock: AJUNOK_clean_linker_0, # of connection points: 2
#     Edge 54, Type (0, 0), BuildingBlock: AJUNOK_clean_linker_0, # of connection points: 2
#     Edge 55, Type (0, 0), BuildingBlock: AJUNOK_clean_linker_0, # of connection points: 2
# Relax obj value: 0.102
# Max RMSD: 0.128
# Mean RMSD: 0.128
data_MOF--net-wgb--node1-XOMCOT_clean_sbu_1--edge1-AJUNOK_clean_linker_0
_symmetry_space_group_name_H-M    P1
_symmetry_Int_Tables_number       1
_symmetry_cell_setting            triclinic
loop_
_symmetry_equiv_pos_as_xyz
'x, y, z'
_cell_length_a     44.700374
_cell_length_b     44.705858
_cell_length_c     20.397502
_cell_angle_alpha  89.964769
_cell_angle_beta   90.022401
_cell_angle_gamma 90.278997
loop_
_atom_site_label
_atom_site_type_symbol
_atom_site_fract_x
_atom_site_fract_y
_atom_site_fract_z
_atom_type_partial_charge
C0 C 0.37995 0.06347 0.11463 0.0
C1 C 0.38721 0.03376 0.12114 0.0
N2 N 0.38084 0.02525 0.18289 0.0
N3 N 0.36867 0.07356 0.17175 0.0
C4 C 0.36949 0.04979 0.21251 0.0
H5 H 0.38313 0.07705 0.07128 0.0
Co6 Co 0.35754 0.11302 0.18677 0.0
C7 C 0.301 0.1079 0.2627 0.0
O8 O 0.28901 0.12596 0.21925 0.0
N9 N 0.34766 0.15375 0.20222 0.0
C10 C 0.3363 0.19581 0.25523 0.0
C11 C 0.3392 0.16538 0.26049 0.0
C12 C 0.35162 0.17817 0.16369 0.0
N13 N 0.34446 0.204 0.19429 0.0
O14 O 0.38957 0.11717 0.24822 0.0
H15 H 0.33601 0.15275 0.30513 0.0
H16 H 0.36118 0.17759 0.11526 0.0
O17 O 0.32865 0.10043 0.25682 0.0
C18 C 0.41246 0.12439 0.21419 0.0
O19 O 0.40887 0.12825 0.1508 0.0
N20 N 0.32884 0.10883 0.12004 0.0
C21 C 0.29617 0.09928 0.00547 0.0
C22 C 0.29018 0.08232 0.06182 0.0
C23 C 0.30731 0.08696 0.1183 0.0
C24 C 0.33617 0.12378 0.0641 0.0
C25 C 0.31966 0.12004 0.00696 0.0
H26 H 0.30408 0.07211 0.15951 0.0
H27 H 0.35629 0.13701 0.06205 0.0
H28 H 0.36201 0.05054 0.26291 0.0
H29 H 0.39728 0.01975 0.08401 0.0
H30 H 0.32854 0.2105 0.29362 0.0
H31 H 0.27327 0.0649 0.06149 0.0
H32 H 0.32577 0.1328 0.96378 0.0
C33 C 0.06519 0.64622 0.89249 0.0
C34 C 0.03573 0.6378 0.88567 0.0
N35 N 0.02647 0.64597 0.8255 0.0
N36 N 0.07442 0.66 0.83723 0.0
C37 C 0.05038 0.65949 0.79712 0.0
H38 H 0.07919 0.64235 0.93489 0.0
Co39 Co 0.11335 0.67388 0.82551 0.0
C40 C 0.10427 0.73159 0.7537 0.0
O41 O 0.11926 0.74515 0.80057 0.0
N42 N 0.15388 0.68647 0.81427 0.0
C43 C 0.19701 0.70439 0.7752 0.0
C44 C 0.16677 0.70169 0.7643 0.0
C45 C 0.17742 0.67831 0.85199 0.0
N46 N 0.20375 0.68983 0.83099 0.0
O47 O 0.11965 0.64356 0.76132 0.0
H48 H 0.1555 0.70942 0.72076 0.0
H49 H 0.17565 0.66243 0.89158 0.0
O50 O 0.10016 0.7031 0.75686 0.0
C51 C 0.13072 0.6208 0.79005 0.0
O52 O 0.13562 0.6222 0.85348 0.0
N53 N 0.10699 0.70113 0.89453 0.0
C54 C 0.09591 0.73272 0.00976 0.0
C55 C 0.0776 0.73673 0.95467 0.0
C56 C 0.08312 0.72016 0.89783 0.0
C57 C 0.12345 0.69563 0.94939 0.0
C58 C 0.11887 0.71166 0.00674 0.0
H59 H 0.06776 0.72203 0.85712 0.0
H60 H 0.13904 0.67749 0.95057 0.0
H61 H 0.05042 0.6689 0.74825 0.0
H62 H 0.02237 0.62587 0.9215 0.0
H63 H 0.2128 0.71593 0.74381 0.0
H64 H 0.05873 0.75181 0.95613 0.0
H65 H 0.13295 0.70717 0.04885 0.0
C66 C 0.64829 0.96481 0.10761 0.0
C67 C 0.64304 0.995 0.1112 0.0
N68 N 0.65116 1.00457 0.17121 0.0
N69 N 0.65983 0.95526 0.16497 0.0
C70 C 0.66107 0.97992 0.2031 0.0
H71 H 0.6437 0.95061 0.0659 0.0
Co72 Co 0.66926 0.91548 0.18198 0.0
C73 C 0.72639 0.91782 0.25656 0.0
O74 O 0.73704 0.89827 0.21462 0.0
N75 N 0.67753 0.87464 0.19921 0.0
C76 C 0.68699 0.83282 0.25483 0.0
C77 C 0.68377 0.86326 0.25904 0.0
C78 C 0.67548 0.85016 0.16028 0.0
N79 N 0.68144 0.82444 0.19258 0.0
O80 O 0.63823 0.91348 0.24573 0.0
H81 H 0.68564 0.87624 0.30357 0.0
H82 H 0.66857 0.85067 0.10974 0.0
O83 O 0.69946 0.92736 0.24976 0.0
C84 C 0.6143 0.90658 0.21506 0.0
O85 O 0.61569 0.90339 0.15108 0.0
N86 N 0.69694 0.91724 0.11328 0.0
C87 C 0.72903 0.91964 0.99672 0.0
C88 C 0.7383 0.93655 0.05099 0.0
C89 C 0.72137 0.93567 0.10864 0.0
C90 C 0.68622 0.9033 0.05877 0.0
C91 C 0.70218 0.90362 1.00045 0.0
H92 H 0.72755 0.95023 0.14868 0.0
H93 H 0.6643 0.89311 0.05963 0.0
H94 H 0.66816 0.97953 0.2538 0.0
H95 H 0.63393 1.00885 0.07256 0.0
H96 H 0.69341 0.8183 0.29474 0.0
H97 H 0.75824 0.95038 0.04871 0.0
H98 H 0.69318 0.89205 0.95809 0.0
C99 C 0.95599 0.37587 0.89294 0.0
C100 C 0.9859 0.3829 0.88915 0.0
N101 N 0.99578 0.37548 0.82897 0.0
N102 N 0.94696 0.36396 0.83551 0.0
C103 C 0.97156 0.36438 0.7971 0.0
H104 H 0.94171 0.37876 0.93525 0.0
Co105 Co 0.90811 0.3503 0.82012 0.0
C106 C 0.91996 0.29396 0.74473 0.0
O107 O 0.90576 0.27895 0.79069 0.0
N108 N 0.86787 0.3381 0.80495 0.0
C109 C 0.82543 0.32 0.76301 0.0
C110 C 0.85591 0.32148 0.75606 0.0
C111 C 0.84361 0.34814 0.838 0.0
N112 N 0.81752 0.33705 0.81444 0.0
O113 O 0.90243 0.38203 0.75864 0.0
H114 H 0.86791 0.31178 0.71563 0.0
H115 H 0.84495 0.36416 0.87758 0.0
O116 O 0.92243 0.32257 0.74972 0.0
C117 C 0.89497 0.40539 0.79055 0.0
O118 O 0.89235 0.40322 0.85456 0.0
N119 N 0.91373 0.32138 0.88666 0.0
C120 C 0.92569 0.28863 1.00011 0.0
C121 C 0.94534 0.2876 0.94673 0.0
C122 C 0.93918 0.30452 0.89079 0.0
C123 C 0.89503 0.32316 0.93927 0.0
C124 C 0.90024 0.30658 0.99578 0.0
H125 H 0.95545 0.30489 0.85161 0.0
H126 H 0.87691 0.33881 0.93977 0.0
H127 H 0.97151 0.35702 0.7466 0.0
H128 H 0.99946 0.39224 0.92813 0.0
H129 H 0.81054 0.30697 0.73244 0.0
H130 H 0.96581 0.27479 0.94913 0.0
H131 H 0.88483 0.30843 0.03655 0.0
C132 C 0.37399 0.46127 0.14761 0.0
C133 C 0.38256 0.49066 0.1408 0.0
N134 N 0.37641 0.49934 0.07907 0.0
N135 N 0.36213 0.45149 0.09068 0.0
C136 C 0.36389 0.47516 0.04971 0.0
H137 H 0.37655 0.44766 0.19109 0.0
Co138 Co 0.34931 0.41222 0.07731 0.0
C139 C 0.29231 0.42154 1.00251 0.0
O140 O 0.27801 0.40715 0.04925 0.0
N141 N 0.33796 0.3716 0.06439 0.0
C142 C 0.32043 0.32807 0.02693 0.0
C143 C 0.32158 0.35842 0.01661 0.0
C144 C 0.34837 0.34823 0.09979 0.0
N145 N 0.3371 0.32161 0.07995 0.0
O146 O 0.38092 0.40673 0.01539 0.0
H147 H 0.31187 0.3695 0.97485 0.0
H148 H 0.36512 0.35064 0.13757 0.0
O149 O 0.32082 0.4252 0.00704 0.0
C150 C 0.40435 0.40068 0.0486 0.0
O151 O 0.40175 0.39836 0.11257 0.0
N152 N 0.32085 0.41766 0.14463 0.0
C153 C 0.29026 0.4299 0.26064 0.0
C154 C 0.28662 0.44833 0.20571 0.0
C155 C 0.30269 0.4422 0.14847 0.0
C156 C 0.32485 0.40006 0.19849 0.0
C157 C 0.30925 0.40526 0.25615 0.0
H158 H 0.30148 0.45785 0.10816 0.0
H159 H 0.34171 0.3831 0.19914 0.0
H160 H 0.35617 0.47459 0.99946 0.0
H161 H 0.39329 0.50435 0.17781 0.0
H162 H 0.30828 0.31204 0.99728 0.0
H163 H 0.27248 0.46791 0.20789 0.0
H164 H 0.31274 0.39053 0.29762 0.0
C165 C 0.46143 0.64728 0.86559 0.0
C166 C 0.49163 0.642 0.8693 0.0
N167 N 0.50128 0.65039 0.92912 0.0
N168 N 0.45195 0.65908 0.92267 0.0
C169 C 0.47662 0.66039 0.9608 0.0
H170 H 0.44723 0.64303 0.82364 0.0
Co171 Co 0.4125 0.67039 0.93815 0.0
C172 C 0.41815 0.72708 0.01391 0.0
O173 O 0.40041 0.73941 0.97026 0.0
N174 N 0.37181 0.68058 0.95385 0.0
C175 C 0.32995 0.69289 0.00661 0.0
C176 C 0.36035 0.68957 0.01187 0.0
C177 C 0.34729 0.67671 0.91555 0.0
N178 N 0.32156 0.68445 0.94596 0.0
O179 O 0.40836 0.63869 1.00024 0.0
H180 H 0.37304 0.69288 0.05638 0.0
H181 H 0.34772 0.66684 0.86742 0.0
O182 O 0.42543 0.69941 0.00747 0.0
C183 C 0.40093 0.61568 0.96686 0.0
O184 O 0.39705 0.61891 0.90338 0.0
N185 N 0.41666 0.69872 0.87081 0.0
C186 C 0.42758 0.72899 0.75376 0.0
C187 C 0.44381 0.73621 0.8104 0.0
C188 C 0.43858 0.72019 0.86818 0.0
C189 C 0.40186 0.6907 0.81514 0.0
C190 C 0.40622 0.70609 0.75677 0.0
H191 H 0.45317 0.72404 0.90955 0.0
H192 H 0.38842 0.67071 0.81428 0.0
H193 H 0.47628 0.66797 0.01113 0.0
H194 H 0.50548 0.63301 0.83059 0.0
H195 H 0.31545 0.70115 0.04483 0.0
H196 H 0.46117 0.7532 0.80927 0.0
H197 H 0.39351 0.69952 0.71387 0.0
C198 C 0.64136 0.57106 0.14013 0.0
C199 C 0.63257 0.54164 0.13552 0.0
N200 N 0.64271 0.53068 0.07826 0.0
N201 N 0.65693 0.5787 0.08605 0.0
C202 C 0.6572 0.55373 0.04886 0.0
H203 H 0.63648 0.58615 0.1801 0.0
Co204 Co 0.67225 0.61697 0.07349 0.0
C205 C 0.72944 0.60454 1.00169 0.0
O206 O 0.74403 0.61821 0.049 0.0
N207 N 0.68623 0.6569 0.06177 0.0
C208 C 0.70668 0.69959 0.02662 0.0
C209 C 0.70389 0.6694 0.0153 0.0
C210 C 0.67693 0.68062 0.09746 0.0
N211 N 0.68987 0.70668 0.07901 0.0
O212 O 0.64191 0.62426 0.0095 0.0
H213 H 0.71339 0.658 0.97377 0.0
H214 H 0.65969 0.67898 0.13427 0.0
O215 O 0.70072 0.60253 0.00461 0.0
C216 C 0.61915 0.6351 0.03864 0.0
O217 O 0.62043 0.639 0.1024 0.0
N218 N 0.69951 0.60973 0.14234 0.0
C219 C 0.73083 0.59721 0.25733 0.0
C220 C 0.73303 0.57814 0.20309 0.0
C221 C 0.71663 0.58447 0.14639 0.0
C222 C 0.696 0.62734 0.19627 0.0
C223 C 0.71192 0.62195 0.25351 0.0
H224 H 0.71714 0.56869 0.1063 0.0
H225 H 0.67956 0.64472 0.19698 0.0
H226 H 0.66776 0.55245 1.00121 0.0
H227 H 0.61888 0.52964 0.1706 0.0
H228 H 0.71995 0.7151 0.99793 0.0
H229 H 0.74651 0.5581 0.20516 0.0
H230 H 0.70898 0.63679 0.29497 0.0
C231 C 0.55832 0.38112 0.86326 0.0
C232 C 0.52851 0.38753 0.87109 0.0
N233 N 0.52057 0.38017 0.93267 0.0
N234 N 0.56915 0.36938 0.91933 0.0
C235 C 0.54562 0.36908 0.96087 0.0
H236 H 0.5715 0.38549 0.81984 0.0
Co237 Co 0.60922 0.35969 0.93215 0.0
C238 C 0.60769 0.30252 0.0073 0.0
O239 O 0.62655 0.29151 0.9643 0.0
N240 N 0.65039 0.35113 0.94492 0.0
C241 C 0.69379 0.3402 0.99288 0.0
C242 C 0.66356 0.34366 1.00224 0.0
C243 C 0.6736 0.35393 0.90268 0.0
N244 N 0.70016 0.34648 0.92982 0.0
O245 O 0.61268 0.39069 0.99585 0.0
H246 H 0.65202 0.3412 0.04852 0.0
H247 H 0.67149 0.36301 0.85412 0.0
O248 O 0.59845 0.32956 1.00082 0.0
C249 C 0.61956 0.41441 0.96431 0.0
O250 O 0.62227 0.41255 0.90027 0.0
N251 N 0.60595 0.33211 0.86335 0.0
C252 C 0.60347 0.29951 0.74752 0.0
C253 C 0.58738 0.28991 0.80275 0.0
C254 C 0.58825 0.30711 0.86008 0.0
C255 C 0.61864 0.34323 0.80776 0.0
C256 C 0.61828 0.32707 0.74977 0.0
H257 H 0.57449 0.3005 0.90113 0.0
H258 H 0.62813 0.36546 0.80776 0.0
H259 H 0.54698 0.36117 0.01091 0.0
H260 H 0.51407 0.39789 0.83512 0.0
H261 H 0.70979 0.33356 0.0299 0.0
H262 H 0.57438 0.2694 0.80162 0.0
H263 H 0.62911 0.3363 0.7067 0.0
C264 C 0.88169 0.56334 0.61662 0.0
C265 C 0.88808 0.53337 0.62074 0.0
N266 N 0.87709 0.52288 0.67783 0.0
N267 N 0.86685 0.57189 0.67091 0.0
C268 C 0.86451 0.54681 0.70759 0.0
H269 H 0.88789 0.57819 0.57696 0.0
Co270 Co 0.8548 0.61117 0.68533 0.0
C271 C 0.79791 0.60499 0.76061 0.0
O272 O 0.78534 0.62203 0.71597 0.0
N273 N 0.8439 0.65179 0.69987 0.0
C274 C 0.83002 0.69364 0.75052 0.0
C275 C 0.83385 0.66339 0.75687 0.0
C276 C 0.84805 0.67621 0.66135 0.0
N277 N 0.83934 0.70198 0.69041 0.0
O278 O 0.8864 0.61608 0.74776 0.0
H279 H 0.83017 0.65093 0.80154 0.0
H280 H 0.85885 0.67559 0.61419 0.0
O281 O 0.82574 0.59818 0.75472 0.0
C282 C 0.90921 0.62432 0.71454 0.0
O283 O 0.90571 0.62893 0.65137 0.0
N284 N 0.82677 0.60624 0.61763 0.0
C285 C 0.79623 0.59525 0.50092 0.0
C286 C 0.78926 0.57893 0.55758 0.0
C287 C 0.80548 0.58414 0.61513 0.0
C288 C 0.83468 0.62099 0.56182 0.0
C289 C 0.8192 0.61654 0.50356 0.0
H290 H 0.80173 0.5696 0.65665 0.0
H291 H 0.8545 0.63471 0.56095 0.0
H292 H 0.85397 0.54613 0.75533 0.0
H293 H 0.9009 0.52066 0.58555 0.0
H294 H 0.82076 0.70796 0.78789 0.0
H295 H 0.77223 0.56161 0.55668 0.0
H296 H 0.82563 0.62926 0.46055 0.0
C297 C 0.56896 0.14778 0.38892 0.0
C298 C 0.53943 0.1394 0.38329 0.0
N299 N 0.52983 0.14716 0.32312 0.0
N300 N 0.57786 0.16116 0.3329 0.0
C301 C 0.55355 0.16044 0.29361 0.0
H302 H 0.58326 0.14391 0.43081 0.0
Co303 Co 0.61666 0.17442 0.31727 0.0
C304 C 0.60873 0.23183 0.24444 0.0
O305 O 0.62613 0.24475 0.28812 0.0
N306 N 0.65686 0.18664 0.30126 0.0
C307 C 0.69834 0.20144 0.24974 0.0
C308 C 0.66801 0.19742 0.24433 0.0
C309 C 0.68152 0.18247 0.33879 0.0
N310 N 0.70706 0.19163 0.30917 0.0
O311 O 0.62133 0.14402 0.25259 0.0
H312 H 0.6552 0.20135 0.20028 0.0
H313 H 0.68123 0.17126 0.38553 0.0
O314 O 0.60243 0.20384 0.25029 0.0
C315 C 0.63395 0.12203 0.28116 0.0
O316 O 0.64034 0.12449 0.34382 0.0
N317 N 0.61238 0.20135 0.38693 0.0
C318 C 0.60723 0.23275 0.50404 0.0
C319 C 0.58906 0.24002 0.45033 0.0
C320 C 0.5914 0.22338 0.39245 0.0
C321 C 0.62772 0.19225 0.44097 0.0
C322 C 0.62597 0.20791 0.49954 0.0
H323 H 0.57608 0.22791 0.35276 0.0
H324 H 0.6401 0.17166 0.43984 0.0
H325 H 0.55335 0.16934 0.24428 0.0
H326 H 0.52631 0.12762 0.41977 0.0
H327 H 0.71251 0.211 0.21225 0.0
H328 H 0.57321 0.25822 0.45313 0.0
H329 H 0.63865 0.2002 0.5415 0.0
C330 C 0.13826 0.46189 0.62195 0.0
C331 C 0.13245 0.49197 0.62587 0.0
N332 N 0.14333 0.50226 0.68322 0.0
N333 N 0.15287 0.45313 0.67638 0.0
C334 C 0.15535 0.47808 0.71331 0.0
H335 H 0.13265 0.44731 0.58143 0.0
Co336 Co 0.1663 0.41425 0.68787 0.0
C337 C 0.2235 0.421 0.76166 0.0
O338 O 0.23614 0.40459 0.71607 0.0
N339 N 0.17867 0.37388 0.69887 0.0
C340 C 0.19344 0.33091 0.7438 0.0
C341 C 0.18931 0.36098 0.75409 0.0
C342 C 0.17466 0.35051 0.65748 0.0
N343 N 0.18434 0.3243 0.6826 0.0
O344 O 0.13562 0.40746 0.75127 0.0
H345 H 0.19296 0.37236 0.80014 0.0
H346 H 0.16267 0.35208 0.6119 0.0
O347 O 0.19544 0.42707 0.75724 0.0
C348 C 0.11365 0.39505 0.72177 0.0
O349 O 0.11611 0.38968 0.65867 0.0
N350 N 0.19373 0.42108 0.61959 0.0
C351 C 0.22529 0.43279 0.50453 0.0
C352 C 0.23129 0.44922 0.56162 0.0
C353 C 0.21467 0.44352 0.61839 0.0
C354 C 0.18606 0.40696 0.56287 0.0
C355 C 0.20203 0.41176 0.50542 0.0
H356 H 0.21802 0.45776 0.66052 0.0
H357 H 0.16622 0.39331 0.56078 0.0
H358 H 0.1654 0.47829 0.76151 0.0
H359 H 0.1215 0.50533 0.58875 0.0
H360 H 0.20206 0.31511 0.77921 0.0
H361 H 0.24801 0.46683 0.56186 0.0
H362 H 0.19588 0.39939 0.46177 0.0
C363 C 0.46025 0.87924 0.39768 0.0
C364 C 0.48976 0.88764 0.39289 0.0
N365 N 0.49962 0.88021 0.33273 0.0
N366 N 0.45144 0.86658 0.34085 0.0
C367 C 0.47583 0.86767 0.3019 0.0
H368 H 0.44583 0.88268 0.43954 0.0
Co369 Co 0.41233 0.8538 0.32612 0.0
C370 C 0.42154 0.79665 0.25273 0.0
O371 O 0.40628 0.78285 0.29886 0.0
N372 N 0.37182 0.8425 0.31205 0.0
C373 C 0.32851 0.82505 0.27309 0.0
C374 C 0.35886 0.82677 0.26293 0.0
C375 C 0.34832 0.85204 0.34809 0.0
N376 N 0.32189 0.84071 0.32741 0.0
O377 O 0.40731 0.88528 0.26375 0.0
H378 H 0.37016 0.81782 0.22066 0.0
H379 H 0.35038 0.86831 0.38692 0.0
O380 O 0.42559 0.82514 0.25646 0.0
C381 C 0.40083 0.90864 0.29668 0.0
O382 O 0.39764 0.90596 0.36046 0.0
N383 N 0.41735 0.82545 0.3938 0.0
C384 C 0.42787 0.79328 0.50864 0.0
C385 C 0.4469 0.79012 0.45456 0.0
C386 C 0.44159 0.8069 0.39791 0.0
C387 C 0.39978 0.82972 0.44751 0.0
C388 C 0.4041 0.81339 0.50457 0.0
H389 H 0.45752 0.80575 0.35816 0.0
H390 H 0.38351 0.84724 0.44849 0.0
H391 H 0.47605 0.85977 0.25176 0.0
H392 H 0.50252 0.89944 0.4299 0.0
H393 H 0.31259 0.81316 0.24264 0.0
H394 H 0.46628 0.7757 0.45686 0.0
H395 H 0.38935 0.81709 0.54589 0.0
C396 C 0.88149 0.95747 0.63643 0.0
C397 C 0.88749 0.98759 0.63335 0.0
N398 N 0.87706 0.99812 0.57588 0.0
N399 N 0.86719 0.9489 0.58137 0.0
C400 C 0.86506 0.97404 0.54493 0.0
H401 H 0.8871 0.94269 0.67651 0.0
Co402 Co 0.85471 0.90969 0.5675 0.0
C403 C 0.79738 0.91573 0.49305 0.0
O404 O 0.7845 0.89831 0.53676 0.0
N405 N 0.84329 0.86903 0.55439 0.0
C406 C 0.82815 0.82583 0.51066 0.0
C407 C 0.83195 0.85599 0.49995 0.0
C408 C 0.84809 0.84574 0.59543 0.0
N409 N 0.83815 0.81935 0.57129 0.0
O410 O 0.88519 0.90492 0.50321 0.0
H411 H 0.82738 0.86737 0.45432 0.0
H412 H 0.86068 0.84764 0.64015 0.0
O413 O 0.82521 0.92256 0.49945 0.0
C414 C 0.90744 0.89302 0.53227 0.0
O415 O 0.90517 0.88712 0.59519 0.0
N416 N 0.82763 0.91423 0.63679 0.0
C417 C 0.79548 0.91865 0.7529 0.0
C418 C 0.78742 0.93591 0.69831 0.0
C419 C 0.80445 0.93401 0.64087 0.0
C420 C 0.83753 0.90024 0.6919 0.0
C421 C 0.8215 0.90154 0.74997 0.0
H422 H 0.7992 0.94863 0.60035 0.0
H423 H 0.85887 0.88917 0.69181 0.0
H424 H 0.85554 0.97444 0.4962 0.0
H425 H 0.89846 1.00076 0.67089 0.0
H426 H 0.819 0.80993 0.47598 0.0
H427 H 0.76828 0.95065 0.70004 0.0
H428 H 0.82974 0.88973 0.79268 0.0
C429 C 0.96017 0.13428 0.3744 0.0
C430 C 0.99009 0.12761 0.37897 0.0
N431 N 1.00171 0.14302 0.42975 0.0
N432 N 0.95284 0.15369 0.42219 0.0
C433 C 0.97854 0.15852 0.45544 0.0
H434 H 0.94455 0.12531 0.3389 0.0
Co435 Co 0.9143 0.1682 0.43223 0.0
C436 C 0.92171 0.22604 0.50328 0.0
O437 O 0.90544 0.23851 0.45715 0.0
N438 N 0.87428 0.18179 0.44202 0.0
C439 C 0.83179 0.19802 0.48631 0.0
C440 C 0.86159 0.1926 0.49721 0.0
C441 C 0.85102 0.17905 0.39989 0.0
N442 N 0.82504 0.18954 0.4247 0.0
O443 O 0.90674 0.1385 0.4976 0.0
H444 H 0.87293 0.19555 0.54356 0.0
H445 H 0.8525 0.16737 0.35399 0.0
O446 O 0.92761 0.19793 0.49972 0.0
C447 C 0.89301 0.11676 0.47008 0.0
O448 O 0.88645 0.11896 0.40748 0.0
N449 N 0.92174 0.19423 0.36202 0.0
C450 C 0.93262 0.22339 0.24375 0.0
C451 C 0.94834 0.23166 0.30046 0.0
C452 C 0.94329 0.21602 0.3589 0.0
C453 C 0.90829 0.18452 0.30601 0.0
C454 C 0.91263 0.19929 0.24687 0.0
H455 H 0.95714 0.22103 0.40088 0.0
H456 H 0.89516 0.16425 0.30644 0.0
H457 H 0.9803 0.17305 0.49769 0.0
H458 H 1.00202 0.11177 0.34873 0.0
H459 H 0.81627 0.20703 0.52177 0.0
H460 H 0.96478 0.24952 0.29917 0.0
H461 H 0.90047 0.19178 0.20393 0.0
C462 C 0.14632 0.06902 0.64436 0.0
C463 C 0.13859 0.03928 0.64024 0.0
N464 N 0.14824 0.0287 0.58219 0.0
N465 N 0.16071 0.07728 0.58917 0.0
C466 C 0.16138 0.05233 0.55192 0.0
H467 H 0.14136 0.08391 0.68465 0.0
Co468 Co 0.17409 0.11618 0.57378 0.0
C469 C 0.23151 0.10594 0.50168 0.0
O470 O 0.24544 0.12114 0.5477 0.0
N471 N 0.18616 0.15652 0.55827 0.0
C472 C 0.20346 0.19856 0.5127 0.0
C473 C 0.20113 0.16809 0.50642 0.0
C474 C 0.17772 0.18106 0.5925 0.0
N475 N 0.18849 0.20684 0.56686 0.0
O476 O 0.14321 0.12116 0.51005 0.0
H477 H 0.20902 0.15573 0.46456 0.0
H478 H 0.1626 0.18039 0.63373 0.0
O479 O 0.20302 0.102 0.50581 0.0
C480 C 0.12006 0.1299 0.54111 0.0
O481 O 0.12247 0.13415 0.60467 0.0
N482 N 0.20175 0.11126 0.64266 0.0
C483 C 0.23154 0.10045 0.76042 0.0
C484 C 0.23601 0.08171 0.70634 0.0
C485 C 0.22028 0.08707 0.64824 0.0
C486 C 0.1966 0.12888 0.69589 0.0
C487 C 0.21182 0.12445 0.75441 0.0
H488 H 0.22215 0.07115 0.60863 0.0
H489 H 0.17912 0.14519 0.69517 0.0
H490 H 0.17114 0.05153 0.50341 0.0
H491 H 0.12581 0.02683 0.67618 0.0
H492 H 0.21551 0.21321 0.47972 0.0
H493 H 0.25061 0.0625 0.70977 0.0
H494 H 0.20755 0.13932 0.79524 0.0
C495 C 0.06615 0.88144 0.36444 0.0
C496 C 0.03601 0.88708 0.3673 0.0
N497 N 0.02589 0.87835 0.42651 0.0
N498 N 0.07508 0.86913 0.42147 0.0
C499 C 0.05017 0.86784 0.45873 0.0
H500 H 0.08069 0.88572 0.32307 0.0
Co501 Co 0.11416 0.85715 0.4373 0.0
C502 C 0.1071 0.80044 0.51317 0.0
O503 O 0.12413 0.78747 0.46912 0.0
N504 N 0.15459 0.84645 0.45302 0.0
C505 C 0.19678 0.8333 0.50358 0.0
C506 C 0.16633 0.83586 0.50954 0.0
C507 C 0.17894 0.85212 0.4154 0.0
N508 N 0.20481 0.84382 0.4443 0.0
O509 O 0.11873 0.8886 0.49971 0.0
H510 H 0.15389 0.83115 0.55375 0.0
H511 H 0.17826 0.86384 0.36925 0.0
O512 O 0.10076 0.82835 0.50676 0.0
C513 C 0.12676 0.912 0.4683 0.0
O514 O 0.13023 0.90989 0.40448 0.0
N515 N 0.10956 0.82875 0.36989 0.0
C516 C 0.09801 0.79806 0.25353 0.0
C517 C 0.08123 0.79191 0.30998 0.0
C518 C 0.08683 0.80812 0.36734 0.0
C519 C 0.12502 0.83566 0.31437 0.0
C520 C 0.12033 0.82003 0.25641 0.0
H521 H 0.07195 0.80507 0.40852 0.0
H522 H 0.13937 0.85498 0.31303 0.0
H523 H 0.05004 0.8598 0.50876 0.0
H524 H 0.0225 0.89647 0.32842 0.0
H525 H 0.21162 0.82423 0.54034 0.0
H526 H 0.0632 0.77565 0.30897 0.0
H527 H 0.13354 0.82575 0.21366 0.0
C528 C 0.29703 0.09893 0.38394 0.0
C529 C 0.28321 0.10039 0.32216 0.0
C530 C 0.27992 0.09868 0.4418 0.0
C531 C 0.24833 0.09944 0.44023 0.0
H532 H 0.32118 0.10003 0.38786 0.0
H533 H 0.29163 0.0993 0.48829 0.0
S534 S 0.2014 0.09855 0.29024 0.0
N535 N 0.2361 0.09913 0.2625 0.0
N536 N 0.20409 0.09826 0.37097 0.0
C537 C 0.23429 0.09834 0.37861 0.0
C538 C 0.2517 0.09898 0.31971 0.0
C539 C 0.10124 0.75174 0.57298 0.0
C540 C 0.09975 0.78329 0.57387 0.0
C541 C 0.10021 0.73479 0.63107 0.0
C542 C 0.09807 0.74874 0.69258 0.0
H543 H 0.10453 0.74 0.52711 0.0
H544 H 0.10309 0.71079 0.62788 0.0
S545 S 0.08935 0.83027 0.72182 0.0
N546 N 0.09267 0.82742 0.64145 0.0
N547 N 0.09112 0.79576 0.75048 0.0
C548 C 0.09445 0.78008 0.69391 0.0
C549 C 0.09514 0.7973 0.63466 0.0
C550 C 0.74857 0.924 0.43541 0.0
C551 C 0.78013 0.92326 0.4328 0.0
C552 C 0.7311 0.92497 0.37806 0.0
C553 C 0.74453 0.92464 0.31582 0.0
H554 H 0.7372 0.92247 0.48219 0.0
H555 H 0.70697 0.92382 0.38254 0.0
S556 S 0.82609 0.92643 0.28168 0.0
N557 N 0.82393 0.92543 0.36248 0.0
N558 N 0.79122 0.92651 0.25488 0.0
C559 C 0.77601 0.92587 0.31255 0.0
C560 C 0.79379 0.92543 0.37095 0.0
C561 C 0.92867 0.24624 0.68336 0.0
C562 C 0.92717 0.2778 0.68281 0.0
C563 C 0.92931 0.22955 0.625 0.0
C564 C 0.92814 0.24372 0.56357 0.0
H565 H 0.92797 0.23416 0.7294 0.0
H566 H 0.92876 0.20537 0.62823 0.0
S567 S 0.92867 0.3258 0.53449 0.0
N568 N 0.92812 0.32253 0.61511 0.0
N569 N 0.92909 0.29131 0.50557 0.0
C570 C 0.92892 0.27529 0.56222 0.0
C571 C 0.92855 0.29229 0.62172 0.0
C572 C 0.24401 0.4282 0.94166 0.0
C573 C 0.27562 0.42793 0.9407 0.0
C574 C 0.2271 0.42833 0.8835 0.0
C575 C 0.2411 0.42783 0.82188 0.0
H576 H 0.23211 0.427 0.98785 0.0
H577 H 0.20295 0.42689 0.887 0.0
S578 S 0.32302 0.43144 0.79164 0.0
N579 N 0.32005 0.43064 0.87232 0.0
N580 N 0.28842 0.43059 0.76323 0.0
C581 C 0.27262 0.42972 0.82012 0.0
C582 C 0.28984 0.4299 0.87938 0.0
C583 C 0.42443 0.79336 0.13007 0.0
C584 C 0.42793 0.7797 0.1916 0.0
C585 C 0.42315 0.77618 0.0724 0.0
C586 C 0.42573 0.7447 0.07377 0.0
H587 H 0.42057 0.81722 0.12674 0.0
H588 H 0.41877 0.78761 0.02658 0.0
S589 S 0.44001 0.6987 0.22175 0.0
N590 N 0.43739 0.73322 0.24989 0.0
N591 N 0.43543 0.70111 0.14158 0.0
C592 C 0.43177 0.73109 0.13443 0.0
C593 C 0.4327 0.74854 0.19326 0.0
C594 C 0.7322 0.60111 0.87892 0.0
C595 C 0.7461 0.59776 0.94025 0.0
C596 C 0.74908 0.60153 0.82075 0.0
C597 C 0.7805 0.59828 0.82134 0.0
H598 H 0.7084 0.60539 0.87598 0.0
H599 H 0.73745 0.60577 0.7751 0.0
S600 S 0.827 0.58407 0.96863 0.0
N601 N 0.7927 0.58764 0.99758 0.0
N602 N 0.82424 0.58817 0.8884 0.0
C603 C 0.79432 0.59247 0.8819 0.0
C604 C 0.77717 0.59233 0.94124 0.0
C605 C 0.60101 0.28059 0.18634 0.0
C606 C 0.60141 0.24903 0.18399 0.0
C607 C 0.60048 0.29798 0.12885 0.0
C608 C 0.60091 0.28446 0.06671 0.0
H609 H 0.60249 0.29203 0.23305 0.0
H610 H 0.60183 0.32211 0.13317 0.0
S611 S 0.59821 0.20287 0.03314 0.0
N612 N 0.59896 0.20515 0.11394 0.0
N613 N 0.59868 0.23771 0.00609 0.0
C614 C 0.59933 0.253 0.06365 0.0
C615 C 0.59933 0.2353 0.12219 0.0
C616 C 0.33816 0.26639 0.07086 0.0
C617 C 0.34116 0.29239 0.1093 0.0
C618 C 0.33979 0.23778 0.09876 0.0
C619 C 0.34474 0.23379 0.16635 0.0
H620 H 0.33428 0.26805 0.01864 0.0
H621 H 0.33638 0.21864 0.06713 0.0
S622 S 0.35602 0.29443 0.28859 0.0
N623 N 0.34972 0.31212 0.219 0.0
N624 N 0.35485 0.25849 0.2704 0.0
C625 C 0.34887 0.25956 0.20514 0.0
C626 C 0.34666 0.28877 0.1769 0.0
C627 C 0.25906 0.68925 0.8222 0.0
C628 C 0.23303 0.68702 0.86085 0.0
C629 C 0.28768 0.68803 0.85022 0.0
C630 C 0.2917 0.68423 0.91819 0.0
H631 H 0.25741 0.69206 0.76965 0.0
H632 H 0.30682 0.69071 0.81823 0.0
S633 S 0.23096 0.67587 0.04144 0.0
N634 N 0.21331 0.68092 0.97133 0.0
N635 N 0.2669 0.67639 0.02311 0.0
C636 C 0.26588 0.68111 0.95736 0.0
C637 C 0.23667 0.68296 0.92894 0.0
C638 C 0.68935 0.79056 0.09831 0.0
C639 C 0.6823 0.79461 0.16499 0.0
C640 C 0.69125 0.76195 0.07059 0.0
C641 C 0.68651 0.73597 0.10836 0.0
H642 H 0.694 0.80963 0.0672 0.0
H643 H 0.69651 0.76029 0.01897 0.0
S644 S 0.66682 0.73408 0.28544 0.0
N645 N 0.66898 0.76999 0.26744 0.0
N646 N 0.67482 0.71634 0.21684 0.0
C647 C 0.67936 0.73966 0.17521 0.0
C648 C 0.6768 0.76888 0.20314 0.0
C649 C 0.78404 0.34686 0.90859 0.0
C650 C 0.78781 0.34129 0.84118 0.0
C651 C 0.7555 0.34909 0.93666 0.0
C652 C 0.72933 0.34555 0.89882 0.0
H653 H 0.80329 0.34883 0.94049 0.0
H654 H 0.75403 0.3535 0.98869 0.0
S655 S 0.72674 0.33199 0.71903 0.0
N656 N 0.76271 0.33446 0.73629 0.0
N657 N 0.70929 0.33624 0.7896 0.0
C658 C 0.73276 0.34034 0.83105 0.0
C659 C 0.76188 0.33873 0.8022 0.0
C660 C 0.8393 0.76396 0.56444 0.0
C661 C 0.8389 0.79021 0.60256 0.0
C662 C 0.83954 0.73551 0.59344 0.0
C663 C 0.83984 0.73181 0.66208 0.0
H664 H 0.83952 0.76527 0.51149 0.0
H665 H 0.83905 0.71625 0.56137 0.0
S666 S 0.83925 0.79345 0.78474 0.0
N667 N 0.8377 0.81054 0.71323 0.0
N668 N 0.84097 0.75747 0.76752 0.0
C669 C 0.83999 0.75794 0.70096 0.0
C670 C 0.8389 0.78696 0.67134 0.0
C671 C 0.76971 0.18996 0.43294 0.0
C672 C 0.79575 0.18988 0.39406 0.0
C673 C 0.74113 0.19064 0.40485 0.0
C674 C 0.73703 0.19072 0.33639 0.0
H675 H 0.77123 0.18935 0.48583 0.0
H676 H 0.72209 0.19142 0.43752 0.0
S677 S 0.7978 0.19022 0.21179 0.0
N678 N 0.81544 0.191 0.28276 0.0
N679 N 0.76188 0.18948 0.23011 0.0
C680 C 0.76286 0.19016 0.29665 0.0
C681 C 0.79209 0.19032 0.32537 0.0
C682 C 0.18212 0.26903 0.69053 0.0
C683 C 0.18403 0.2951 0.6519 0.0
C684 C 0.18303 0.24047 0.6623 0.0
C685 C 0.18568 0.2366 0.59407 0.0
H686 H 0.17996 0.27061 0.74323 0.0
H687 H 0.18234 0.22125 0.69457 0.0
S688 S 0.19002 0.29746 0.4702 0.0
N689 N 0.18866 0.31502 0.54122 0.0
N690 N 0.18828 0.2615 0.48806 0.0
C691 C 0.18672 0.26245 0.55453 0.0
C692 C 0.18633 0.2916 0.5834 0.0
C693 C 0.26668 0.84166 0.31922 0.0
C694 C 0.29278 0.84366 0.35762 0.0
C695 C 0.23818 0.8423 0.34776 0.0
C696 C 0.23446 0.84513 0.41601 0.0
H697 H 0.26822 0.83932 0.26653 0.0
H698 H 0.21891 0.83977 0.31607 0.0
S699 S 0.29548 0.85285 0.53864 0.0
N700 N 0.31294 0.84891 0.46796 0.0
N701 N 0.25947 0.85202 0.52095 0.0
C702 C 0.26033 0.84816 0.45493 0.0
C703 C 0.28942 0.84705 0.42593 0.0
C704 C 0.29406 0.09282 0.88385 0.0
C705 C 0.27892 0.09505 0.94419 0.0
C706 C 0.27843 0.09293 0.82439 0.0
C707 C 0.24713 0.09532 0.82331 0.0
H708 H 0.31827 0.09188 0.88251 0.0
H709 H 0.291 0.09258 0.779 0.0
S710 S 0.19675 0.09809 0.96767 0.0
N711 N 0.23076 0.0974 0.99924 0.0
N712 N 0.20127 0.09674 0.88738 0.0
C713 C 0.2316 0.09565 0.88329 0.0
C714 C 0.24752 0.09565 0.94381 0.0
C715 C 0.09223 0.7505 0.19095 0.0
C716 C 0.09244 0.7819 0.19143 0.0
C717 C 0.0917 0.73469 0.13178 0.0
C718 C 0.09131 0.74974 0.0711 0.0
H719 H 0.09397 0.73809 0.23642 0.0
H720 H 0.09264 0.71049 0.13347 0.0
S721 S 0.08773 0.8318 0.04638 0.0
N722 N 0.0888 0.82749 0.12676 0.0
N723 N 0.08869 0.79772 0.01532 0.0
C724 C 0.0896 0.78108 0.07107 0.0
C725 C 0.09003 0.79719 0.13133 0.0
C726 C 0.75503 0.94612 0.90462 0.0
C727 C 0.74648 0.91922 0.93528 0.0
C728 C 0.77029 0.94591 0.84457 0.0
C729 C 0.77766 0.91879 0.81383 0.0
H730 H 0.74954 0.96742 0.92676 0.0
H731 H 0.77681 0.96704 0.82264 0.0
S732 S 0.76034 0.84238 0.8743 0.0
N733 N 0.74673 0.86487 0.93099 0.0
N734 N 0.77492 0.86448 0.81773 0.0
C735 C 0.76915 0.8918 0.844 0.0
C736 C 0.75368 0.89202 0.90486 0.0
C737 C 0.93163 0.27121 0.18128 0.0
C738 C 0.93605 0.24014 0.18171 0.0
C739 C 0.92952 0.28693 0.12214 0.0
C740 C 0.93189 0.27213 0.06147 0.0
H741 H 0.92828 0.28321 0.2268 0.0
H742 H 0.92516 0.31074 0.12386 0.0
S743 S 0.94695 0.19147 0.03655 0.0
N744 N 0.94565 0.19555 0.11696 0.0
N745 N 0.94107 0.22506 0.00554 0.0
C746 C 0.93804 0.24136 0.06134 0.0
C747 C 0.94022 0.22536 0.12157 0.0
C748 C 0.22765 0.43958 0.38296 0.0
C749 C 0.24264 0.43735 0.44352 0.0
C750 C 0.24339 0.43896 0.32366 0.0
C751 C 0.27463 0.43601 0.32301 0.0
H752 H 0.20345 0.44074 0.38136 0.0
H753 H 0.23091 0.43921 0.27812 0.0
S754 S 0.32472 0.43322 0.46793 0.0
N755 N 0.29067 0.4346 0.49913 0.0
N756 N 0.32035 0.43427 0.38757 0.0
C757 C 0.29005 0.43585 0.38315 0.0
C758 C 0.27403 0.43638 0.44349 0.0
C759 C 0.4315 0.79197 0.63067 0.0
C760 C 0.43277 0.77668 0.57039 0.0
C761 C 0.43147 0.77642 0.69018 0.0
C762 C 0.43269 0.74506 0.69139 0.0
H763 H 0.42949 0.81611 0.63175 0.0
H764 H 0.429 0.78894 0.7353 0.0
S765 S 0.44019 0.69481 0.54768 0.0
N766 N 0.43779 0.72867 0.51577 0.0
N767 N 0.43862 0.6994 0.62793 0.0
C768 C 0.43599 0.72963 0.63174 0.0
C769 C 0.4359 0.74547 0.57111 0.0
C770 C 0.73255 0.59324 0.37935 0.0
C771 C 0.7475 0.59156 0.31872 0.0
C772 C 0.74838 0.59266 0.43852 0.0
C773 C 0.7797 0.5905 0.439 0.0
H774 H 0.7085 0.59606 0.38097 0.0
H775 H 0.73617 0.59546 0.48397 0.0
S776 S 0.82903 0.58184 0.29409 0.0
N777 N 0.79509 0.5852 0.26297 0.0
N778 N 0.82486 0.58344 0.37446 0.0
C779 C 0.79474 0.58686 0.37897 0.0
C780 C 0.77862 0.58748 0.31871 0.0
C781 C 0.57808 0.27155 0.6566 0.0
C782 C 0.60458 0.28156 0.68679 0.0
C783 C 0.57895 0.25619 0.59666 0.0
C784 C 0.60635 0.25019 0.56555 0.0
H785 H 0.55657 0.27607 0.67885 0.0
H786 H 0.55812 0.24865 0.57497 0.0
S787 S 0.68193 0.2714 0.62522 0.0
N788 N 0.65889 0.28391 0.68205 0.0
N789 N 0.66048 0.25567 0.56897 0.0
C790 C 0.63294 0.26003 0.59549 0.0
C791 C 0.63207 0.27556 0.65625 0.0
C792 C 0.38239 0.97003 0.17404 0.0
C793 C 0.38653 0.99629 0.21131 0.0
C794 C 0.38777 0.9416 0.20103 0.0
C795 C 0.39739 0.93852 0.26627 0.0
H796 H 0.37442 0.97148 0.12402 0.0
H797 H 0.38366 0.92197 0.17121 0.0
S798 S 0.41545 1.00043 0.38142 0.0
N799 N 0.40363 0.01737 0.31443 0.0
N800 N 0.41335 0.96429 0.36556 0.0
C801 C 0.40254 0.96467 0.30323 0.0
C802 C 0.39718 0.99347 0.27571 0.0
C803 C 0.94287 0.6359 0.81028 0.0
C804 C 0.93934 0.62838 0.74383 0.0
C805 C 0.97141 0.64172 0.83662 0.0
C806 C 0.99737 0.64015 0.7975 0.0
H807 H 0.92347 0.63798 0.84173 0.0
H808 H 0.97315 0.64797 0.88776 0.0
S809 S 1.00054 0.61751 0.62289 0.0
N810 N 0.96455 0.61724 0.64088 0.0
N811 N 0.01782 0.62781 0.69077 0.0
C812 C 0.99416 0.6317 0.73166 0.0
C813 C 0.96525 0.62587 0.7048 0.0
C814 C 0.62451 0.05301 0.17505 0.0
C815 C 0.64827 0.03466 0.19605 0.0
C816 C 0.62067 0.08198 0.20022 0.0
C817 C 0.64037 0.0935 0.2476 0.0
H818 H 0.60819 0.0446 0.14035 0.0
H819 H 0.60151 0.0949 0.18454 0.0
S820 S 0.7084 0.05639 0.31223 0.0
N821 N 0.6935 0.03159 0.26178 0.0
N822 N 0.68596 0.08559 0.31023 0.0
C823 C 0.66486 0.07591 0.26704 0.0
C824 C 0.66888 0.04659 0.24109 0.0
C825 C 0.07315 0.40733 0.80213 0.0
C826 C 0.08506 0.38798 0.75477 0.0
C827 C 0.04406 0.40296 0.82652 0.0
C828 C 0.02597 0.37897 0.80478 0.0
H829 H 0.08586 0.42665 0.81835 0.0
H830 H 0.03535 0.41901 0.86123 0.0
S831 S 0.04883 0.31952 0.68849 0.0
N832 N 0.07782 0.3425 0.69137 0.0
N833 N 0.02367 0.33382 0.73856 0.0
C834 C 0.03833 0.35867 0.75983 0.0
C835 C 0.06775 0.36328 0.7346 0.0
C836 C 0.38731 0.58272 0.06227 0.0
C837 C 0.39639 0.58577 0.99665 0.0
C838 C 0.38074 0.55441 0.08882 0.0
C839 C 0.38312 0.52819 0.05079 0.0
H840 H 0.38453 0.60234 0.09277 0.0
H841 H 0.37324 0.55306 0.13919 0.0
S842 S 0.40972 0.52383 0.87894 0.0
N843 N 0.40973 0.55993 0.89583 0.0
N844 N 0.39786 0.50701 0.94617 0.0
C845 C 0.39315 0.53092 0.98586 0.0
C846 C 0.3997 0.55963 0.95877 0.0
C847 C 0.57964 0.62184 0.95644 0.0
C848 C 0.59073 0.64142 0.00452 0.0
C849 C 0.55052 0.62511 0.93158 0.0
C850 C 0.53156 0.64822 0.95351 0.0
H851 H 0.59299 0.60309 0.94018 0.0
H852 H 0.54247 0.60881 0.89647 0.0
S853 S 0.55209 0.70792 0.07185 0.0
N854 N 0.5818 0.68617 0.06898 0.0
N855 N 0.5276 0.69292 0.02079 0.0
C856 C 0.54312 0.66881 0.99913 0.0
C857 C 0.57258 0.66528 0.02489 0.0
C858 C 0.632 0.49781 0.98426 0.0
C859 C 0.63711 0.50128 0.0517 0.0
C860 C 0.62595 0.46968 0.95724 0.0
C861 C 0.62475 0.44372 0.99646 0.0
H862 H 0.63227 0.51709 0.95211 0.0
H863 H 0.6221 0.4684 0.90488 0.0
S864 S 0.63799 0.44043 0.17575 0.0
N865 N 0.64169 0.47623 0.15717 0.0
N866 N 0.6299 0.42325 0.10626 0.0
C867 C 0.62983 0.44679 0.06411 0.0
C868 C 0.63611 0.47557 0.09173 0.0
C869 C 0.43701 0.38729 0.95268 0.0
C870 C 0.43419 0.39661 0.01817 0.0
C871 C 0.46529 0.38172 0.92524 0.0
C872 C 0.49173 0.38533 0.96223 0.0
H873 H 0.41726 0.38371 0.92285 0.0
H874 H 0.46649 0.37416 0.87491 0.0
S875 S 0.49668 0.41288 0.13329 0.0
N876 N 0.46047 0.41141 0.11773 0.0
N877 N 0.51329 0.40131 0.06575 0.0
C878 C 0.4892 0.39546 0.02708 0.0
C879 C 0.46053 0.40104 0.05506 0.0
C880 C 0.88956 0.46074 0.79865 0.0
C881 C 0.89026 0.43493 0.75899 0.0
C882 C 0.88491 0.48916 0.77189 0.0
C883 C 0.88067 0.49312 0.70425 0.0
H884 H 0.89296 0.45913 0.85112 0.0
H885 H 0.88523 0.50827 0.80444 0.0
S886 S 0.87827 0.43274 0.5792 0.0
N887 N 0.88515 0.41507 0.64868 0.0
N888 N 0.87581 0.46855 0.59826 0.0
C889 C 0.88083 0.4675 0.66389 0.0
C890 C 0.88577 0.43843 0.69125 0.0
C891 C 0.47483 0.1428 0.33503 0.0
C892 C 0.50071 0.14088 0.29576 0.0
C893 C 0.44627 0.13672 0.30916 0.0
C894 C 0.44264 0.12856 0.24308 0.0
H895 H 0.47667 0.14956 0.38583 0.0
H896 H 0.42692 0.13913 0.34064 0.0
S897 S 0.50364 0.11653 0.12222 0.0
N898 N 0.52101 0.12749 0.18949 0.0
N899 N 0.46768 0.11641 0.1405 0.0
C900 C 0.46848 0.12564 0.204 0.0
C901 C 0.49742 0.13175 0.23037 0.0
C902 C 0.11758 0.55119 0.68832 0.0
C903 C 0.14175 0.53274 0.70664 0.0
C904 C 0.11493 0.58051 0.71229 0.0
C905 C 0.13619 0.59227 0.75595 0.0
H906 H 0.10003 0.54263 0.65687 0.0
H907 H 0.09541 0.59347 0.69908 0.0
S908 S 0.20561 0.55519 0.81241 0.0
N909 N 0.18904 0.53003 0.76539 0.0
N910 N 0.18337 0.58456 0.81236 0.0
C911 C 0.16099 0.57464 0.77268 0.0
C912 C 0.16393 0.545 0.74765 0.0
C913 C 0.55882 0.90225 0.21131 0.0
C914 C 0.58537 0.90119 0.24846 0.0
C915 C 0.53104 0.89529 0.2391 0.0
C916 C 0.52861 0.88691 0.30521 0.0
H917 H 0.55941 0.9085 0.15999 0.0
H918 H 0.51126 0.8968 0.20867 0.0
S919 S 0.59143 0.8792 0.42316 0.0
N920 N 0.60757 0.89048 0.35459 0.0
N921 N 0.55529 0.87691 0.40687 0.0
C922 C 0.55495 0.88572 0.34314 0.0
C923 C 0.58333 0.893 0.31478 0.0
C924 C 0.90748 0.076 0.54789 0.0
C925 C 0.88667 0.08821 0.50396 0.0
C926 C 0.90401 0.04668 0.57161 0.0
C927 C 0.87948 0.02861 0.55271 0.0
H928 H 0.92727 0.08861 0.56156 0.0
H929 H 0.92123 0.0378 0.6033 0.0
S930 S 0.81655 0.05213 0.44605 0.0
N931 N 0.83942 0.08124 0.44688 0.0
N932 N 0.83241 0.02664 0.49303 0.0
C933 C 0.85777 0.04126 0.51141 0.0
C934 C 0.86147 0.07094 0.48677 0.0
C935 C 0.06514 0.13841 0.54981 0.0
C936 C 0.09039 0.13392 0.5096 0.0
C937 C 0.03651 0.14183 0.52329 0.0
C938 C 0.03174 0.14094 0.45533 0.0
H939 H 0.06729 0.13889 0.60269 0.0
H940 H 0.01783 0.14448 0.55651 0.0
S941 S 0.09037 0.13214 0.32785 0.0
N942 N 0.10884 0.13014 0.39785 0.0
N943 N 0.0549 0.13704 0.34772 0.0
C944 C 0.05678 0.13709 0.41418 0.0
C945 C 0.08609 0.13349 0.44134 0.0
C946 C 0.13236 0.96737 0.46116 0.0
C947 C 0.13174 0.94139 0.50032 0.0
C948 C 0.13791 0.99561 0.4882 0.0
C949 C 0.14318 0.99917 0.55561 0.0
H950 H 0.12832 0.96602 0.40887 0.0
H951 H 0.13762 0.01488 0.45606 0.0
S952 S 0.14583 0.93818 0.67928 0.0
N953 N 0.13774 0.92093 0.60988 0.0
N954 N 0.14876 0.97405 0.66082 0.0
C955 C 0.14289 0.97338 0.59551 0.0
C956 C 0.13703 0.94451 0.56787 0.0
C957 C 0.977 0.90416 0.42896 0.0
C958 C 0.99549 0.88048 0.44982 0.0
C959 C 0.94774 0.90735 0.45297 0.0
C960 C 0.93611 0.88709 0.49905 0.0
H961 H 0.98551 0.92091 0.3954 0.0
H962 H 0.93471 0.92649 0.43764 0.0
S963 S 0.97345 0.81897 0.56231 0.0
N964 N 0.99849 0.83461 0.51352 0.0
N965 N 0.944 0.84108 0.56009 0.0
C966 C 0.9538 0.86266 0.51816 0.0
C967 C 0.98339 0.85925 0.49329 0.0
loop_
_geom_bond_atom_site_label_1
_geom_bond_atom_site_label_2
_geom_bond_distance
_geom_bond_site_symmetry_2
_ccdc_geom_bond_type
C0 C1 1.351 . S
C0 N3 1.368 . S
C0 H5 0.931 . S
C1 C0 1.351 . S
C1 N2 1.373 . S
C1 H29 0.912 1_545 S
N2 C1 1.373 . S
N2 C4 1.340 . S
N3 C0 1.368 . S
N3 C4 1.321 . S
N3 Co6 2.135 . S
C4 N2 1.340 . S
C4 N3 1.321 . S
C4 H28 0.930 . S
H5 C0 0.931 . S
Co6 N3 2.135 . S
Co6 N9 2.121 . S
Co6 O14 2.055 . S
Co6 O17 2.039 . S
Co6 N20 2.140 . S
C7 O8 1.227 . S
C7 O17 1.265 . S
O8 C7 1.227 . S
N9 Co6 2.121 . S
N9 C11 1.375 . S
N9 C12 1.313 . S
C10 C11 1.338 . S
C10 N13 1.377 . S
C10 H30 0.930 . S
C11 N9 1.375 . S
C11 C10 1.338 . S
C11 H15 0.931 . S
C12 N9 1.313 . S
C12 N13 1.344 . S
C12 H16 0.930 . S
N13 C10 1.377 . S
N13 C12 1.344 . S
O14 Co6 2.055 . S
O14 C18 1.253 . S
H15 C11 0.931 . S
H16 C12 0.930 . S
O17 Co6 2.039 . S
O17 C7 1.265 . S
C18 O14 1.253 . S
C18 O19 1.227 . S
O19 C18 1.227 . S
N20 Co6 2.140 . S
N20 C23 1.346 . S
N20 C24 1.345 . S
C21 C22 1.387 1_556 S
C21 C25 1.391 . S
C22 C21 1.387 1_554 S
C22 C23 1.369 . S
C22 H31 0.929 . S
C23 N20 1.346 . S
C23 C22 1.369 . S
C23 H26 0.928 . S
C24 N20 1.345 . S
C24 C25 1.371 1_554 S
C24 H27 0.931 . S
C25 C21 1.391 . S
C25 C24 1.371 1_556 S
C25 H32 0.930 . S
H26 C23 0.928 . S
H27 C24 0.931 . S
H28 C4 0.930 . S
H29 C1 0.912 1_565 S
H30 C10 0.930 . S
H31 C22 0.929 . S
H32 C25 0.930 . S
C33 C34 1.351 . S
C33 N36 1.368 . S
C33 H38 0.931 . S
C34 C33 1.351 . S
C34 N35 1.373 . S
C34 H62 0.912 1_455 S
N35 C34 1.373 . S
N35 C37 1.340 . S
N36 C33 1.368 . S
N36 C37 1.321 . S
N36 Co39 2.135 . S
C37 N35 1.340 . S
C37 N36 1.321 . S
C37 H61 0.930 . S
H38 C33 0.931 . S
Co39 N36 2.135 . S
Co39 N42 2.121 . S
Co39 O47 2.055 . S
Co39 O50 2.039 . S
Co39 N53 2.140 . S
C40 O41 1.227 . S
C40 O50 1.265 . S
O41 C40 1.227 . S
N42 Co39 2.121 . S
N42 C44 1.375 . S
N42 C45 1.313 . S
C43 C44 1.338 . S
C43 N46 1.377 . S
C43 H63 0.930 . S
C44 N42 1.375 . S
C44 C43 1.338 . S
C44 H48 0.931 . S
C45 N42 1.313 . S
C45 N46 1.344 . S
C45 H49 0.930 . S
N46 C43 1.377 . S
N46 C45 1.344 . S
O47 Co39 2.055 . S
O47 C51 1.253 . S
H48 C44 0.931 . S
H49 C45 0.930 . S
O50 Co39 2.039 . S
O50 C40 1.265 . S
C51 O47 1.253 . S
C51 O52 1.227 . S
O52 C51 1.227 . S
N53 Co39 2.140 . S
N53 C56 1.346 . S
N53 C57 1.345 . S
C54 C55 1.387 1_554 S
C54 C58 1.391 . S
C55 C54 1.387 1_556 S
C55 C56 1.369 . S
C55 H64 0.929 . S
C56 N53 1.346 . S
C56 C55 1.369 . S
C56 H59 0.928 . S
C57 N53 1.345 . S
C57 C58 1.371 1_556 S
C57 H60 0.931 . S
C58 C54 1.391 . S
C58 C57 1.371 1_554 S
C58 H65 0.930 . S
H59 C56 0.928 . S
H60 C57 0.931 . S
H61 C37 0.930 . S
H62 C34 0.912 1_655 S
H63 C43 0.930 . S
H64 C55 0.929 . S
H65 C58 0.930 . S
C66 C67 1.351 . S
C66 N69 1.368 . S
C66 H71 0.931 . S
C67 C66 1.351 . S
C67 N68 1.373 . S
C67 H95 0.912 1_565 S
N68 C67 1.373 . S
N68 C70 1.340 . S
N69 C66 1.368 . S
N69 C70 1.321 . S
N69 Co72 2.135 . S
C70 N68 1.340 . S
C70 N69 1.321 . S
C70 H94 0.930 . S
H71 C66 0.931 . S
Co72 N69 2.135 . S
Co72 N75 2.121 . S
Co72 O80 2.055 . S
Co72 O83 2.039 . S
Co72 N86 2.140 . S
C73 O74 1.227 . S
C73 O83 1.265 . S
O74 C73 1.227 . S
N75 Co72 2.121 . S
N75 C77 1.375 . S
N75 C78 1.313 . S
C76 C77 1.338 . S
C76 N79 1.377 . S
C76 H96 0.930 . S
C77 N75 1.375 . S
C77 C76 1.338 . S
C77 H81 0.931 . S
C78 N75 1.313 . S
C78 N79 1.344 . S
C78 H82 0.930 . S
N79 C76 1.377 . S
N79 C78 1.344 . S
O80 Co72 2.055 . S
O80 C84 1.253 . S
H81 C77 0.931 . S
H82 C78 0.930 . S
O83 Co72 2.039 . S
O83 C73 1.265 . S
C84 O80 1.253 . S
C84 O85 1.227 . S
O85 C84 1.227 . S
N86 Co72 2.140 . S
N86 C89 1.346 . S
N86 C90 1.345 . S
C87 C88 1.387 1_556 S
C87 C91 1.391 . S
C88 C87 1.387 1_554 S
C88 C89 1.369 . S
C88 H97 0.929 . S
C89 N86 1.346 . S
C89 C88 1.369 . S
C89 H92 0.928 . S
C90 N86 1.345 . S
C90 C91 1.371 1_554 S
C90 H93 0.931 . S
C91 C87 1.391 . S
C91 C90 1.371 1_556 S
C91 H98 0.930 . S
H92 C89 0.928 . S
H93 C90 0.931 . S
H94 C70 0.930 . S
H95 C67 0.912 1_545 S
H96 C76 0.930 . S
H97 C88 0.929 . S
H98 C91 0.930 . S
C99 C100 1.351 . S
C99 N102 1.368 . S
C99 H104 0.931 . S
C100 C99 1.351 . S
C100 N101 1.373 . S
C100 H128 0.912 1_655 S
N101 C100 1.373 . S
N101 C103 1.340 . S
N102 C99 1.368 . S
N102 C103 1.321 . S
N102 Co105 2.135 . S
C103 N101 1.340 . S
C103 N102 1.321 . S
C103 H127 0.930 . S
H104 C99 0.931 . S
Co105 N102 2.135 . S
Co105 N108 2.121 . S
Co105 O113 2.055 . S
Co105 O116 2.039 . S
Co105 N119 2.140 . S
C106 O107 1.227 . S
C106 O116 1.265 . S
O107 C106 1.227 . S
N108 Co105 2.121 . S
N108 C110 1.375 . S
N108 C111 1.313 . S
C109 C110 1.338 . S
C109 N112 1.377 . S
C109 H129 0.930 . S
C110 N108 1.375 . S
C110 C109 1.338 . S
C110 H114 0.931 . S
C111 N108 1.313 . S
C111 N112 1.344 . S
C111 H115 0.930 . S
N112 C109 1.377 . S
N112 C111 1.344 . S
O113 Co105 2.055 . S
O113 C117 1.253 . S
H114 C110 0.931 . S
H115 C111 0.930 . S
O116 Co105 2.039 . S
O116 C106 1.265 . S
C117 O113 1.253 . S
C117 O118 1.227 . S
O118 C117 1.227 . S
N119 Co105 2.140 . S
N119 C122 1.346 . S
N119 C123 1.345 . S
C120 C121 1.387 1_554 S
C120 C124 1.391 . S
C121 C120 1.387 1_556 S
C121 C122 1.369 . S
C121 H130 0.929 . S
C122 N119 1.346 . S
C122 C121 1.369 . S
C122 H125 0.928 . S
C123 N119 1.345 . S
C123 C124 1.371 1_556 S
C123 H126 0.931 . S
C124 C120 1.391 . S
C124 C123 1.371 1_554 S
C124 H131 0.930 . S
H125 C122 0.928 . S
H126 C123 0.931 . S
H127 C103 0.930 . S
H128 C100 0.912 1_455 S
H129 C109 0.930 . S
H130 C121 0.929 . S
H131 C124 0.930 . S
C132 C133 1.351 . S
C132 N135 1.368 . S
C132 H137 0.931 . S
C133 C132 1.351 . S
C133 N134 1.373 . S
C133 H161 0.930 . S
N134 C133 1.373 . S
N134 C136 1.340 . S
N135 C132 1.368 . S
N135 C136 1.321 . S
N135 Co138 2.135 . S
C136 N134 1.340 . S
C136 N135 1.321 . S
C136 H160 0.930 1_554 S
H137 C132 0.931 . S
Co138 N135 2.135 . S
Co138 N141 2.121 . S
Co138 O146 2.055 . S
Co138 O149 2.039 1_554 S
Co138 N152 2.140 . S
C139 O140 1.227 1_556 S
C139 O149 1.265 . S
O140 C139 1.227 1_554 S
N141 Co138 2.121 . S
N141 C143 1.375 . S
N141 C144 1.313 . S
C142 C143 1.338 . S
C142 N145 1.377 . S
C142 H162 0.930 . S
C143 N141 1.375 . S
C143 C142 1.338 . S
C143 H147 0.931 . S
C144 N141 1.313 . S
C144 N145 1.344 . S
C144 H148 0.930 . S
N145 C142 1.377 . S
N145 C144 1.344 . S
O146 Co138 2.055 . S
O146 C150 1.253 . S
H147 C143 0.931 . S
H148 C144 0.930 . S
O149 Co138 2.039 1_556 S
O149 C139 1.265 . S
C150 O146 1.253 . S
C150 O151 1.227 . S
O151 C150 1.227 . S
N152 Co138 2.140 . S
N152 C155 1.346 . S
N152 C156 1.345 . S
C153 C154 1.387 . S
C153 C157 1.391 . S
C154 C153 1.387 . S
C154 C155 1.369 . S
C154 H163 0.929 . S
C155 N152 1.346 . S
C155 C154 1.369 . S
C155 H158 0.928 . S
C156 N152 1.345 . S
C156 C157 1.371 . S
C156 H159 0.931 . S
C157 C153 1.391 . S
C157 C156 1.371 . S
C157 H164 0.930 . S
H158 C155 0.928 . S
H159 C156 0.931 . S
H160 C136 0.930 1_556 S
H161 C133 0.930 . S
H162 C142 0.930 . S
H163 C154 0.929 . S
H164 C157 0.930 . S
C165 C166 1.351 . S
C165 N168 1.368 . S
C165 H170 0.931 . S
C166 C165 1.351 . S
C166 N167 1.373 . S
C166 H194 0.930 . S
N167 C166 1.373 . S
N167 C169 1.340 . S
N168 C165 1.368 . S
N168 C169 1.321 . S
N168 Co171 2.135 . S
C169 N167 1.340 . S
C169 N168 1.321 . S
C169 H193 0.930 1_556 S
H170 C165 0.931 . S
Co171 N168 2.135 . S
Co171 N174 2.121 . S
Co171 O179 2.055 . S
Co171 O182 2.039 1_556 S
Co171 N185 2.140 . S
C172 O173 1.227 1_554 S
C172 O182 1.265 . S
O173 C172 1.227 1_556 S
N174 Co171 2.121 . S
N174 C176 1.375 . S
N174 C177 1.313 . S
C175 C176 1.338 . S
C175 N178 1.377 . S
C175 H195 0.930 . S
C176 N174 1.375 . S
C176 C175 1.338 . S
C176 H180 0.931 . S
C177 N174 1.313 . S
C177 N178 1.344 . S
C177 H181 0.930 . S
N178 C175 1.377 . S
N178 C177 1.344 . S
O179 Co171 2.055 . S
O179 C183 1.253 . S
H180 C176 0.931 . S
H181 C177 0.930 . S
O182 Co171 2.039 1_554 S
O182 C172 1.265 . S
C183 O179 1.253 . S
C183 O184 1.227 . S
O184 C183 1.227 . S
N185 Co171 2.140 . S
N185 C188 1.346 . S
N185 C189 1.345 . S
C186 C187 1.387 . S
C186 C190 1.391 . S
C187 C186 1.387 . S
C187 C188 1.369 . S
C187 H196 0.929 . S
C188 N185 1.346 . S
C188 C187 1.369 . S
C188 H191 0.928 . S
C189 N185 1.345 . S
C189 C190 1.371 . S
C189 H192 0.931 . S
C190 C186 1.391 . S
C190 C189 1.371 . S
C190 H197 0.930 . S
H191 C188 0.928 . S
H192 C189 0.931 . S
H193 C169 0.930 1_554 S
H194 C166 0.930 . S
H195 C175 0.930 . S
H196 C187 0.929 . S
H197 C190 0.930 . S
C198 C199 1.351 . S
C198 N201 1.368 . S
C198 H203 0.931 . S
C199 C198 1.351 . S
C199 N200 1.373 . S
C199 H227 0.930 . S
N200 C199 1.373 . S
N200 C202 1.340 . S
N201 C198 1.368 . S
N201 C202 1.321 . S
N201 Co204 2.135 . S
C202 N200 1.340 . S
C202 N201 1.321 . S
C202 H226 0.930 1_554 S
H203 C198 0.931 . S
Co204 N201 2.135 . S
Co204 N207 2.121 . S
Co204 O212 2.055 . S
Co204 O215 2.039 1_554 S
Co204 N218 2.140 . S
C205 O206 1.227 1_556 S
C205 O215 1.265 . S
O206 C205 1.227 1_554 S
N207 Co204 2.121 . S
N207 C209 1.375 . S
N207 C210 1.313 . S
C208 C209 1.338 . S
C208 N211 1.377 . S
C208 H228 0.930 . S
C209 N207 1.375 . S
C209 C208 1.338 . S
C209 H213 0.931 . S
C210 N207 1.313 . S
C210 N211 1.344 . S
C210 H214 0.930 . S
N211 C208 1.377 . S
N211 C210 1.344 . S
O212 Co204 2.055 . S
O212 C216 1.253 . S
H213 C209 0.931 . S
H214 C210 0.930 . S
O215 Co204 2.039 1_556 S
O215 C205 1.265 . S
C216 O212 1.253 . S
C216 O217 1.227 . S
O217 C216 1.227 . S
N218 Co204 2.140 . S
N218 C221 1.346 . S
N218 C222 1.345 . S
C219 C220 1.387 . S
C219 C223 1.391 . S
C220 C219 1.387 . S
C220 C221 1.369 . S
C220 H229 0.929 . S
C221 N218 1.346 . S
C221 C220 1.369 . S
C221 H224 0.928 . S
C222 N218 1.345 . S
C222 C223 1.371 . S
C222 H225 0.931 . S
C223 C219 1.391 . S
C223 C222 1.371 . S
C223 H230 0.930 . S
H224 C221 0.928 . S
H225 C222 0.931 . S
H226 C202 0.930 1_556 S
H227 C199 0.930 . S
H228 C208 0.930 . S
H229 C220 0.929 . S
H230 C223 0.930 . S
C231 C232 1.351 . S
C231 N234 1.368 . S
C231 H236 0.931 . S
C232 C231 1.351 . S
C232 N233 1.373 . S
C232 H260 0.930 . S
N233 C232 1.373 . S
N233 C235 1.340 . S
N234 C231 1.368 . S
N234 C235 1.321 . S
N234 Co237 2.135 . S
C235 N233 1.340 . S
C235 N234 1.321 . S
C235 H259 0.930 1_556 S
H236 C231 0.931 . S
Co237 N234 2.135 . S
Co237 N240 2.121 . S
Co237 O245 2.055 . S
Co237 O248 2.039 1_556 S
Co237 N251 2.140 . S
C238 O239 1.227 1_554 S
C238 O248 1.265 . S
O239 C238 1.227 1_556 S
N240 Co237 2.121 . S
N240 C242 1.375 . S
N240 C243 1.313 . S
C241 C242 1.338 . S
C241 N244 1.377 . S
C241 H261 0.930 . S
C242 N240 1.375 . S
C242 C241 1.338 . S
C242 H246 0.931 . S
C243 N240 1.313 . S
C243 N244 1.344 . S
C243 H247 0.930 . S
N244 C241 1.377 . S
N244 C243 1.344 . S
O245 Co237 2.055 . S
O245 C249 1.253 . S
H246 C242 0.931 . S
H247 C243 0.930 . S
O248 Co237 2.039 1_554 S
O248 C238 1.265 . S
C249 O245 1.253 . S
C249 O250 1.227 . S
O250 C249 1.227 . S
N251 Co237 2.140 . S
N251 C254 1.346 . S
N251 C255 1.345 . S
C252 C253 1.387 . S
C252 C256 1.391 . S
C253 C252 1.387 . S
C253 C254 1.369 . S
C253 H262 0.929 . S
C254 N251 1.346 . S
C254 C253 1.369 . S
C254 H257 0.928 . S
C255 N251 1.345 . S
C255 C256 1.371 . S
C255 H258 0.931 . S
C256 C252 1.391 . S
C256 C255 1.371 . S
C256 H263 0.930 . S
H257 C254 0.928 . S
H258 C255 0.931 . S
H259 C235 0.930 1_554 S
H260 C232 0.930 . S
H261 C241 0.930 . S
H262 C253 0.929 . S
H263 C256 0.930 . S
C264 C265 1.351 . S
C264 N267 1.368 . S
C264 H269 0.931 . S
C265 C264 1.351 . S
C265 N266 1.373 . S
C265 H293 0.930 . S
N266 C265 1.373 . S
N266 C268 1.340 . S
N267 C264 1.368 . S
N267 C268 1.321 . S
N267 Co270 2.135 . S
C268 N266 1.340 . S
C268 N267 1.321 . S
C268 H292 0.930 . S
H269 C264 0.931 . S
Co270 N267 2.135 . S
Co270 N273 2.121 . S
Co270 O278 2.055 . S
Co270 O281 2.039 . S
Co270 N284 2.140 . S
C271 O272 1.227 . S
C271 O281 1.265 . S
O272 C271 1.227 . S
N273 Co270 2.121 . S
N273 C275 1.375 . S
N273 C276 1.313 . S
C274 C275 1.338 . S
C274 N277 1.377 . S
C274 H294 0.930 . S
C275 N273 1.375 . S
C275 C274 1.338 . S
C275 H279 0.931 . S
C276 N273 1.313 . S
C276 N277 1.344 . S
C276 H280 0.930 . S
N277 C274 1.377 . S
N277 C276 1.344 . S
O278 Co270 2.055 . S
O278 C282 1.253 . S
H279 C275 0.931 . S
H280 C276 0.930 . S
O281 Co270 2.039 . S
O281 C271 1.265 . S
C282 O278 1.253 . S
C282 O283 1.227 . S
O283 C282 1.227 . S
N284 Co270 2.140 . S
N284 C287 1.346 . S
N284 C288 1.345 . S
C285 C286 1.387 . S
C285 C289 1.391 . S
C286 C285 1.387 . S
C286 C287 1.369 . S
C286 H295 0.929 . S
C287 N284 1.346 . S
C287 C286 1.369 . S
C287 H290 0.928 . S
C288 N284 1.345 . S
C288 C289 1.371 . S
C288 H291 0.931 . S
C289 C285 1.391 . S
C289 C288 1.371 . S
C289 H296 0.930 . S
H290 C287 0.928 . S
H291 C288 0.931 . S
H292 C268 0.930 . S
H293 C265 0.930 . S
H294 C274 0.930 . S
H295 C286 0.929 . S
H296 C289 0.930 . S
C297 C298 1.351 . S
C297 N300 1.368 . S
C297 H302 0.931 . S
C298 C297 1.351 . S
C298 N299 1.373 . S
C298 H326 0.930 . S
N299 C298 1.373 . S
N299 C301 1.340 . S
N300 C297 1.368 . S
N300 C301 1.321 . S
N300 Co303 2.135 . S
C301 N299 1.340 . S
C301 N300 1.321 . S
C301 H325 0.930 . S
H302 C297 0.931 . S
Co303 N300 2.135 . S
Co303 N306 2.121 . S
Co303 O311 2.055 . S
Co303 O314 2.039 . S
Co303 N317 2.140 . S
C304 O305 1.227 . S
C304 O314 1.265 . S
O305 C304 1.227 . S
N306 Co303 2.121 . S
N306 C308 1.375 . S
N306 C309 1.313 . S
C307 C308 1.338 . S
C307 N310 1.377 . S
C307 H327 0.930 . S
C308 N306 1.375 . S
C308 C307 1.338 . S
C308 H312 0.931 . S
C309 N306 1.313 . S
C309 N310 1.344 . S
C309 H313 0.930 . S
N310 C307 1.377 . S
N310 C309 1.344 . S
O311 Co303 2.055 . S
O311 C315 1.253 . S
H312 C308 0.931 . S
H313 C309 0.930 . S
O314 Co303 2.039 . S
O314 C304 1.265 . S
C315 O311 1.253 . S
C315 O316 1.227 . S
O316 C315 1.227 . S
N317 Co303 2.140 . S
N317 C320 1.346 . S
N317 C321 1.345 . S
C318 C319 1.387 . S
C318 C322 1.391 . S
C319 C318 1.387 . S
C319 C320 1.369 . S
C319 H328 0.929 . S
C320 N317 1.346 . S
C320 C319 1.369 . S
C320 H323 0.928 . S
C321 N317 1.345 . S
C321 C322 1.371 . S
C321 H324 0.931 . S
C322 C318 1.391 . S
C322 C321 1.371 . S
C322 H329 0.930 . S
H323 C320 0.928 . S
H324 C321 0.931 . S
H325 C301 0.930 . S
H326 C298 0.930 . S
H327 C307 0.930 . S
H328 C319 0.929 . S
H329 C322 0.930 . S
C330 C331 1.351 . S
C330 N333 1.368 . S
C330 H335 0.931 . S
C331 C330 1.351 . S
C331 N332 1.373 . S
C331 H359 0.930 . S
N332 C331 1.373 . S
N332 C334 1.340 . S
N333 C330 1.368 . S
N333 C334 1.321 . S
N333 Co336 2.135 . S
C334 N332 1.340 . S
C334 N333 1.321 . S
C334 H358 0.930 . S
H335 C330 0.931 . S
Co336 N333 2.135 . S
Co336 N339 2.121 . S
Co336 O344 2.055 . S
Co336 O347 2.039 . S
Co336 N350 2.140 . S
C337 O338 1.227 . S
C337 O347 1.265 . S
O338 C337 1.227 . S
N339 Co336 2.121 . S
N339 C341 1.375 . S
N339 C342 1.313 . S
C340 C341 1.338 . S
C340 N343 1.377 . S
C340 H360 0.930 . S
C341 N339 1.375 . S
C341 C340 1.338 . S
C341 H345 0.931 . S
C342 N339 1.313 . S
C342 N343 1.344 . S
C342 H346 0.930 . S
N343 C340 1.377 . S
N343 C342 1.344 . S
O344 Co336 2.055 . S
O344 C348 1.253 . S
H345 C341 0.931 . S
H346 C342 0.930 . S
O347 Co336 2.039 . S
O347 C337 1.265 . S
C348 O344 1.253 . S
C348 O349 1.227 . S
O349 C348 1.227 . S
N350 Co336 2.140 . S
N350 C353 1.346 . S
N350 C354 1.345 . S
C351 C352 1.387 . S
C351 C355 1.391 . S
C352 C351 1.387 . S
C352 C353 1.369 . S
C352 H361 0.929 . S
C353 N350 1.346 . S
C353 C352 1.369 . S
C353 H356 0.928 . S
C354 N350 1.345 . S
C354 C355 1.371 . S
C354 H357 0.931 . S
C355 C351 1.391 . S
C355 C354 1.371 . S
C355 H362 0.930 . S
H356 C353 0.928 . S
H357 C354 0.931 . S
H358 C334 0.930 . S
H359 C331 0.930 . S
H360 C340 0.930 . S
H361 C352 0.929 . S
H362 C355 0.930 . S
C363 C364 1.351 . S
C363 N366 1.368 . S
C363 H368 0.931 . S
C364 C363 1.351 . S
C364 N365 1.373 . S
C364 H392 0.930 . S
N365 C364 1.373 . S
N365 C367 1.340 . S
N366 C363 1.368 . S
N366 C367 1.321 . S
N366 Co369 2.135 . S
C367 N365 1.340 . S
C367 N366 1.321 . S
C367 H391 0.930 . S
H368 C363 0.931 . S
Co369 N366 2.135 . S
Co369 N372 2.121 . S
Co369 O377 2.055 . S
Co369 O380 2.039 . S
Co369 N383 2.140 . S
C370 O371 1.227 . S
C370 O380 1.265 . S
O371 C370 1.227 . S
N372 Co369 2.121 . S
N372 C374 1.375 . S
N372 C375 1.313 . S
C373 C374 1.338 . S
C373 N376 1.377 . S
C373 H393 0.930 . S
C374 N372 1.375 . S
C374 C373 1.338 . S
C374 H378 0.931 . S
C375 N372 1.313 . S
C375 N376 1.344 . S
C375 H379 0.930 . S
N376 C373 1.377 . S
N376 C375 1.344 . S
O377 Co369 2.055 . S
O377 C381 1.253 . S
H378 C374 0.931 . S
H379 C375 0.930 . S
O380 Co369 2.039 . S
O380 C370 1.265 . S
C381 O377 1.253 . S
C381 O382 1.227 . S
O382 C381 1.227 . S
N383 Co369 2.140 . S
N383 C386 1.346 . S
N383 C387 1.345 . S
C384 C385 1.387 . S
C384 C388 1.391 . S
C385 C384 1.387 . S
C385 C386 1.369 . S
C385 H394 0.929 . S
C386 N383 1.346 . S
C386 C385 1.369 . S
C386 H389 0.928 . S
C387 N383 1.345 . S
C387 C388 1.371 . S
C387 H390 0.931 . S
C388 C384 1.391 . S
C388 C387 1.371 . S
C388 H395 0.930 . S
H389 C386 0.928 . S
H390 C387 0.931 . S
H391 C367 0.930 . S
H392 C364 0.930 . S
H393 C373 0.930 . S
H394 C385 0.929 . S
H395 C388 0.930 . S
C396 C397 1.351 . S
C396 N399 1.368 . S
C396 H401 0.931 . S
C397 C396 1.351 . S
C397 N398 1.373 . S
C397 H425 0.912 1_565 S
N398 C397 1.373 . S
N398 C400 1.340 . S
N399 C396 1.368 . S
N399 C400 1.321 . S
N399 Co402 2.135 . S
C400 N398 1.340 . S
C400 N399 1.321 . S
C400 H424 0.930 . S
H401 C396 0.931 . S
Co402 N399 2.135 . S
Co402 N405 2.121 . S
Co402 O410 2.055 . S
Co402 O413 2.039 . S
Co402 N416 2.140 . S
C403 O404 1.227 . S
C403 O413 1.265 . S
O404 C403 1.227 . S
N405 Co402 2.121 . S
N405 C407 1.375 . S
N405 C408 1.313 . S
C406 C407 1.338 . S
C406 N409 1.377 . S
C406 H426 0.930 . S
C407 N405 1.375 . S
C407 C406 1.338 . S
C407 H411 0.931 . S
C408 N405 1.313 . S
C408 N409 1.344 . S
C408 H412 0.930 . S
N409 C406 1.377 . S
N409 C408 1.344 . S
O410 Co402 2.055 . S
O410 C414 1.253 . S
H411 C407 0.931 . S
H412 C408 0.930 . S
O413 Co402 2.039 . S
O413 C403 1.265 . S
C414 O410 1.253 . S
C414 O415 1.227 . S
O415 C414 1.227 . S
N416 Co402 2.140 . S
N416 C419 1.346 . S
N416 C420 1.345 . S
C417 C418 1.387 . S
C417 C421 1.391 . S
C418 C417 1.387 . S
C418 C419 1.369 . S
C418 H427 0.929 . S
C419 N416 1.346 . S
C419 C418 1.369 . S
C419 H422 0.928 . S
C420 N416 1.345 . S
C420 C421 1.371 . S
C420 H423 0.931 . S
C421 C417 1.391 . S
C421 C420 1.371 . S
C421 H428 0.930 . S
H422 C419 0.928 . S
H423 C420 0.931 . S
H424 C400 0.930 . S
H425 C397 0.912 1_545 S
H426 C406 0.930 . S
H427 C418 0.929 . S
H428 C421 0.930 . S
C429 C430 1.351 . S
C429 N432 1.368 . S
C429 H434 0.931 . S
C430 C429 1.351 . S
C430 N431 1.373 . S
C430 H458 0.912 1_655 S
N431 C430 1.373 . S
N431 C433 1.340 . S
N432 C429 1.368 . S
N432 C433 1.321 . S
N432 Co435 2.135 . S
C433 N431 1.340 . S
C433 N432 1.321 . S
C433 H457 0.930 . S
H434 C429 0.931 . S
Co435 N432 2.135 . S
Co435 N438 2.121 . S
Co435 O443 2.055 . S
Co435 O446 2.039 . S
Co435 N449 2.140 . S
C436 O437 1.227 . S
C436 O446 1.265 . S
O437 C436 1.227 . S
N438 Co435 2.121 . S
N438 C440 1.375 . S
N438 C441 1.313 . S
C439 C440 1.338 . S
C439 N442 1.377 . S
C439 H459 0.930 . S
C440 N438 1.375 . S
C440 C439 1.338 . S
C440 H444 0.931 . S
C441 N438 1.313 . S
C441 N442 1.344 . S
C441 H445 0.930 . S
N442 C439 1.377 . S
N442 C441 1.344 . S
O443 Co435 2.055 . S
O443 C447 1.253 . S
H444 C440 0.931 . S
H445 C441 0.930 . S
O446 Co435 2.039 . S
O446 C436 1.265 . S
C447 O443 1.253 . S
C447 O448 1.227 . S
O448 C447 1.227 . S
N449 Co435 2.140 . S
N449 C452 1.346 . S
N449 C453 1.345 . S
C450 C451 1.387 . S
C450 C454 1.391 . S
C451 C450 1.387 . S
C451 C452 1.369 . S
C451 H460 0.929 . S
C452 N449 1.346 . S
C452 C451 1.369 . S
C452 H455 0.928 . S
C453 N449 1.345 . S
C453 C454 1.371 . S
C453 H456 0.931 . S
C454 C450 1.391 . S
C454 C453 1.371 . S
C454 H461 0.930 . S
H455 C452 0.928 . S
H456 C453 0.931 . S
H457 C433 0.930 . S
H458 C430 0.912 1_455 S
H459 C439 0.930 . S
H460 C451 0.929 . S
H461 C454 0.930 . S
C462 C463 1.351 . S
C462 N465 1.368 . S
C462 H467 0.931 . S
C463 C462 1.351 . S
C463 N464 1.373 . S
C463 H491 0.912 1_545 S
N464 C463 1.373 . S
N464 C466 1.340 . S
N465 C462 1.368 . S
N465 C466 1.321 . S
N465 Co468 2.135 . S
C466 N464 1.340 . S
C466 N465 1.321 . S
C466 H490 0.930 . S
H467 C462 0.931 . S
Co468 N465 2.135 . S
Co468 N471 2.121 . S
Co468 O476 2.055 . S
Co468 O479 2.039 . S
Co468 N482 2.140 . S
C469 O470 1.227 . S
C469 O479 1.265 . S
O470 C469 1.227 . S
N471 Co468 2.121 . S
N471 C473 1.375 . S
N471 C474 1.313 . S
C472 C473 1.338 . S
C472 N475 1.377 . S
C472 H492 0.930 . S
C473 N471 1.375 . S
C473 C472 1.338 . S
C473 H477 0.931 . S
C474 N471 1.313 . S
C474 N475 1.344 . S
C474 H478 0.930 . S
N475 C472 1.377 . S
N475 C474 1.344 . S
O476 Co468 2.055 . S
O476 C480 1.253 . S
H477 C473 0.931 . S
H478 C474 0.930 . S
O479 Co468 2.039 . S
O479 C469 1.265 . S
C480 O476 1.253 . S
C480 O481 1.227 . S
O481 C480 1.227 . S
N482 Co468 2.140 . S
N482 C485 1.346 . S
N482 C486 1.345 . S
C483 C484 1.387 . S
C483 C487 1.391 . S
C484 C483 1.387 . S
C484 C485 1.369 . S
C484 H493 0.929 . S
C485 N482 1.346 . S
C485 C484 1.369 . S
C485 H488 0.928 . S
C486 N482 1.345 . S
C486 C487 1.371 . S
C486 H489 0.931 . S
C487 C483 1.391 . S
C487 C486 1.371 . S
C487 H494 0.930 . S
H488 C485 0.928 . S
H489 C486 0.931 . S
H490 C466 0.930 . S
H491 C463 0.912 1_565 S
H492 C472 0.930 . S
H493 C484 0.929 . S
H494 C487 0.930 . S
C495 C496 1.351 . S
C495 N498 1.368 . S
C495 H500 0.931 . S
C496 C495 1.351 . S
C496 N497 1.373 . S
C496 H524 0.912 1_455 S
N497 C496 1.373 . S
N497 C499 1.340 . S
N498 C495 1.368 . S
N498 C499 1.321 . S
N498 Co501 2.135 . S
C499 N497 1.340 . S
C499 N498 1.321 . S
C499 H523 0.930 . S
H500 C495 0.931 . S
Co501 N498 2.135 . S
Co501 N504 2.121 . S
Co501 O509 2.055 . S
Co501 O512 2.039 . S
Co501 N515 2.140 . S
C502 O503 1.227 . S
C502 O512 1.265 . S
O503 C502 1.227 . S
N504 Co501 2.121 . S
N504 C506 1.375 . S
N504 C507 1.313 . S
C505 C506 1.338 . S
C505 N508 1.377 . S
C505 H525 0.930 . S
C506 N504 1.375 . S
C506 C505 1.338 . S
C506 H510 0.931 . S
C507 N504 1.313 . S
C507 N508 1.344 . S
C507 H511 0.930 . S
N508 C505 1.377 . S
N508 C507 1.344 . S
O509 Co501 2.055 . S
O509 C513 1.253 . S
H510 C506 0.931 . S
H511 C507 0.930 . S
O512 Co501 2.039 . S
O512 C502 1.265 . S
C513 O509 1.253 . S
C513 O514 1.227 . S
O514 C513 1.227 . S
N515 Co501 2.140 . S
N515 C518 1.346 . S
N515 C519 1.345 . S
C516 C517 1.387 . S
C516 C520 1.391 . S
C517 C516 1.387 . S
C517 C518 1.369 . S
C517 H526 0.929 . S
C518 N515 1.346 . S
C518 C517 1.369 . S
C518 H521 0.928 . S
C519 N515 1.345 . S
C519 C520 1.371 . S
C519 H522 0.931 . S
C520 C516 1.391 . S
C520 C519 1.371 . S
C520 H527 0.930 . S
H521 C518 0.928 . S
H522 C519 0.931 . S
H523 C499 0.930 . S
H524 C496 0.912 1_655 S
H525 C505 0.930 . S
H526 C517 0.929 . S
H527 C520 0.930 . S
C528 C529 1.369 . S
C528 C530 1.419 . S
C528 H532 0.930 . S
C529 C528 1.369 . S
C529 C538 1.429 . S
C530 C528 1.419 . S
C530 C531 1.363 . S
C530 H533 0.929 . S
C531 C530 1.363 . S
C531 C537 1.428 . S
H532 C528 0.930 . S
H533 C530 0.929 . S
S534 N535 1.613 . S
S534 N536 1.610 . S
N535 S534 1.613 . S
N535 C538 1.350 . S
N536 S534 1.610 . S
N536 C537 1.351 . S
C537 C531 1.428 . S
C537 N536 1.351 . S
C537 C538 1.434 . S
C538 C529 1.429 . S
C538 N535 1.350 . S
C538 C537 1.434 . S
C539 C540 1.369 . S
C539 C541 1.419 . S
C539 H543 0.930 . S
C540 C539 1.369 . S
C540 C549 1.429 . S
C541 C539 1.419 . S
C541 C542 1.363 . S
C541 H544 0.929 . S
C542 C541 1.363 . S
C542 C548 1.428 . S
H543 C539 0.930 . S
H544 C541 0.929 . S
S545 N546 1.613 . S
S545 N547 1.610 . S
N546 S545 1.613 . S
N546 C549 1.350 . S
N547 S545 1.610 . S
N547 C548 1.351 . S
C548 C542 1.428 . S
C548 N547 1.351 . S
C548 C549 1.434 . S
C549 C540 1.429 . S
C549 N546 1.350 . S
C549 C548 1.434 . S
C550 C551 1.369 . S
C550 C552 1.419 . S
C550 H554 0.930 . S
C551 C550 1.369 . S
C551 C560 1.429 . S
C552 C550 1.419 . S
C552 C553 1.363 . S
C552 H555 0.929 . S
C553 C552 1.363 . S
C553 C559 1.428 . S
H554 C550 0.930 . S
H555 C552 0.929 . S
S556 N557 1.613 . S
S556 N558 1.610 . S
N557 S556 1.613 . S
N557 C560 1.350 . S
N558 S556 1.610 . S
N558 C559 1.351 . S
C559 C553 1.428 . S
C559 N558 1.351 . S
C559 C560 1.434 . S
C560 C551 1.429 . S
C560 N557 1.350 . S
C560 C559 1.434 . S
C561 C562 1.369 . S
C561 C563 1.419 . S
C561 H565 0.930 . S
C562 C561 1.369 . S
C562 C571 1.429 . S
C563 C561 1.419 . S
C563 C564 1.363 . S
C563 H566 0.929 . S
C564 C563 1.363 . S
C564 C570 1.428 . S
H565 C561 0.930 . S
H566 C563 0.929 . S
S567 N568 1.613 . S
S567 N569 1.610 . S
N568 S567 1.613 . S
N568 C571 1.350 . S
N569 S567 1.610 . S
N569 C570 1.351 . S
C570 C564 1.428 . S
C570 N569 1.351 . S
C570 C571 1.434 . S
C571 C562 1.429 . S
C571 N568 1.350 . S
C571 C570 1.434 . S
C572 C573 1.369 . S
C572 C574 1.419 . S
C572 H576 0.930 . S
C573 C572 1.369 . S
C573 C582 1.429 . S
C574 C572 1.419 . S
C574 C575 1.363 . S
C574 H577 0.929 . S
C575 C574 1.363 . S
C575 C581 1.428 . S
H576 C572 0.930 . S
H577 C574 0.929 . S
S578 N579 1.613 . S
S578 N580 1.610 . S
N579 S578 1.613 . S
N579 C582 1.350 . S
N580 S578 1.610 . S
N580 C581 1.351 . S
C581 C575 1.428 . S
C581 N580 1.351 . S
C581 C582 1.434 . S
C582 C573 1.429 . S
C582 N579 1.350 . S
C582 C581 1.434 . S
C583 C584 1.369 . S
C583 C585 1.419 . S
C583 H587 0.930 . S
C584 C583 1.369 . S
C584 C593 1.429 . S
C585 C583 1.419 . S
C585 C586 1.363 . S
C585 H588 0.929 . S
C586 C585 1.363 . S
C586 C592 1.428 . S
H587 C583 0.930 . S
H588 C585 0.929 . S
S589 N590 1.613 . S
S589 N591 1.610 . S
N590 S589 1.613 . S
N590 C593 1.350 . S
N591 S589 1.610 . S
N591 C592 1.351 . S
C592 C586 1.428 . S
C592 N591 1.351 . S
C592 C593 1.434 . S
C593 C584 1.429 . S
C593 N590 1.350 . S
C593 C592 1.434 . S
C594 C595 1.369 . S
C594 C596 1.419 . S
C594 H598 0.930 . S
C595 C594 1.369 . S
C595 C604 1.429 . S
C596 C594 1.419 . S
C596 C597 1.363 . S
C596 H599 0.929 . S
C597 C596 1.363 . S
C597 C603 1.428 . S
H598 C594 0.930 . S
H599 C596 0.929 . S
S600 N601 1.613 . S
S600 N602 1.610 . S
N601 S600 1.613 . S
N601 C604 1.350 . S
N602 S600 1.610 . S
N602 C603 1.351 . S
C603 C597 1.428 . S
C603 N602 1.351 . S
C603 C604 1.434 . S
C604 C595 1.429 . S
C604 N601 1.350 . S
C604 C603 1.434 . S
C605 C606 1.369 . S
C605 C607 1.419 . S
C605 H609 0.930 . S
C606 C605 1.369 . S
C606 C615 1.429 . S
C607 C605 1.419 . S
C607 C608 1.363 . S
C607 H610 0.929 . S
C608 C607 1.363 . S
C608 C614 1.428 . S
H609 C605 0.930 . S
H610 C607 0.929 . S
S611 N612 1.613 . S
S611 N613 1.610 . S
N612 S611 1.613 . S
N612 C615 1.350 . S
N613 S611 1.610 . S
N613 C614 1.351 . S
C614 C608 1.428 . S
C614 N613 1.351 . S
C614 C615 1.434 . S
C615 C606 1.429 . S
C615 N612 1.350 . S
C615 C614 1.434 . S
C616 C617 1.369 . S
C616 C618 1.419 . S
C616 H620 0.930 . S
C617 C616 1.369 . S
C617 C626 1.429 . S
C618 C616 1.419 . S
C618 C619 1.363 . S
C618 H621 0.929 . S
C619 C618 1.363 . S
C619 C625 1.428 . S
H620 C616 0.930 . S
H621 C618 0.929 . S
S622 N623 1.613 . S
S622 N624 1.610 . S
N623 S622 1.613 . S
N623 C626 1.350 . S
N624 S622 1.610 . S
N624 C625 1.351 . S
C625 C619 1.428 . S
C625 N624 1.351 . S
C625 C626 1.434 . S
C626 C617 1.429 . S
C626 N623 1.350 . S
C626 C625 1.434 . S
C627 C628 1.369 . S
C627 C629 1.419 . S
C627 H631 0.930 . S
C628 C627 1.369 . S
C628 C637 1.429 . S
C629 C627 1.419 . S
C629 C630 1.363 . S
C629 H632 0.929 . S
C630 C629 1.363 . S
C630 C636 1.428 . S
H631 C627 0.930 . S
H632 C629 0.929 . S
S633 N634 1.613 . S
S633 N635 1.610 . S
N634 S633 1.613 . S
N634 C637 1.350 . S
N635 S633 1.610 . S
N635 C636 1.351 . S
C636 C630 1.428 . S
C636 N635 1.351 . S
C636 C637 1.434 . S
C637 C628 1.429 . S
C637 N634 1.350 . S
C637 C636 1.434 . S
C638 C639 1.369 . S
C638 C640 1.419 . S
C638 H642 0.930 . S
C639 C638 1.369 . S
C639 C648 1.429 . S
C640 C638 1.419 . S
C640 C641 1.363 . S
C640 H643 0.929 . S
C641 C640 1.363 . S
C641 C647 1.428 . S
H642 C638 0.930 . S
H643 C640 0.929 . S
S644 N645 1.613 . S
S644 N646 1.610 . S
N645 S644 1.613 . S
N645 C648 1.350 . S
N646 S644 1.610 . S
N646 C647 1.351 . S
C647 C641 1.428 . S
C647 N646 1.351 . S
C647 C648 1.434 . S
C648 C639 1.429 . S
C648 N645 1.350 . S
C648 C647 1.434 . S
C649 C650 1.369 . S
C649 C651 1.419 . S
C649 H653 0.930 . S
C650 C649 1.369 . S
C650 C659 1.429 . S
C651 C649 1.419 . S
C651 C652 1.363 . S
C651 H654 0.929 . S
C652 C651 1.363 . S
C652 C658 1.428 . S
H653 C649 0.930 . S
H654 C651 0.929 . S
S655 N656 1.613 . S
S655 N657 1.610 . S
N656 S655 1.613 . S
N656 C659 1.350 . S
N657 S655 1.610 . S
N657 C658 1.351 . S
C658 C652 1.428 . S
C658 N657 1.351 . S
C658 C659 1.434 . S
C659 C650 1.429 . S
C659 N656 1.350 . S
C659 C658 1.434 . S
C660 C661 1.369 . S
C660 C662 1.419 . S
C660 H664 0.930 . S
C661 C660 1.369 . S
C661 C670 1.429 . S
C662 C660 1.419 . S
C662 C663 1.363 . S
C662 H665 0.929 . S
C663 C662 1.363 . S
C663 C669 1.428 . S
H664 C660 0.930 . S
H665 C662 0.929 . S
S666 N667 1.613 . S
S666 N668 1.610 . S
N667 S666 1.613 . S
N667 C670 1.350 . S
N668 S666 1.610 . S
N668 C669 1.351 . S
C669 C663 1.428 . S
C669 N668 1.351 . S
C669 C670 1.434 . S
C670 C661 1.429 . S
C670 N667 1.350 . S
C670 C669 1.434 . S
C671 C672 1.369 . S
C671 C673 1.419 . S
C671 H675 0.930 . S
C672 C671 1.369 . S
C672 C681 1.429 . S
C673 C671 1.419 . S
C673 C674 1.363 . S
C673 H676 0.929 . S
C674 C673 1.363 . S
C674 C680 1.428 . S
H675 C671 0.930 . S
H676 C673 0.929 . S
S677 N678 1.613 . S
S677 N679 1.610 . S
N678 S677 1.613 . S
N678 C681 1.350 . S
N679 S677 1.610 . S
N679 C680 1.351 . S
C680 C674 1.428 . S
C680 N679 1.351 . S
C680 C681 1.434 . S
C681 C672 1.429 . S
C681 N678 1.350 . S
C681 C680 1.434 . S
C682 C683 1.369 . S
C682 C684 1.419 . S
C682 H686 0.930 . S
C683 C682 1.369 . S
C683 C692 1.429 . S
C684 C682 1.419 . S
C684 C685 1.363 . S
C684 H687 0.929 . S
C685 C684 1.363 . S
C685 C691 1.428 . S
H686 C682 0.930 . S
H687 C684 0.929 . S
S688 N689 1.613 . S
S688 N690 1.610 . S
N689 S688 1.613 . S
N689 C692 1.350 . S
N690 S688 1.610 . S
N690 C691 1.351 . S
C691 C685 1.428 . S
C691 N690 1.351 . S
C691 C692 1.434 . S
C692 C683 1.429 . S
C692 N689 1.350 . S
C692 C691 1.434 . S
C693 C694 1.369 . S
C693 C695 1.419 . S
C693 H697 0.930 . S
C694 C693 1.369 . S
C694 C703 1.429 . S
C695 C693 1.419 . S
C695 C696 1.363 . S
C695 H698 0.929 . S
C696 C695 1.363 . S
C696 C702 1.428 . S
H697 C693 0.930 . S
H698 C695 0.929 . S
S699 N700 1.613 . S
S699 N701 1.610 . S
N700 S699 1.613 . S
N700 C703 1.350 . S
N701 S699 1.610 . S
N701 C702 1.351 . S
C702 C696 1.428 . S
C702 N701 1.351 . S
C702 C703 1.434 . S
C703 C694 1.429 . S
C703 N700 1.350 . S
C703 C702 1.434 . S
C704 C705 1.369 . S
C704 C706 1.419 . S
C704 H708 0.930 . S
C705 C704 1.369 . S
C705 C714 1.429 . S
C706 C704 1.419 . S
C706 C707 1.363 . S
C706 H709 0.929 . S
C707 C706 1.363 . S
C707 C713 1.428 . S
H708 C704 0.930 . S
H709 C706 0.929 . S
S710 N711 1.612 1_556 S
S710 N712 1.626 . S
N711 S710 1.612 1_554 S
N711 C714 1.350 1_554 S
N712 S710 1.626 . S
N712 C713 1.351 . S
C713 C707 1.428 . S
C713 N712 1.351 . S
C713 C714 1.434 . S
C714 C705 1.429 . S
C714 N711 1.350 1_556 S
C714 C713 1.434 . S
C715 C716 1.369 . S
C715 C717 1.419 . S
C715 H719 0.930 . S
C716 C715 1.369 . S
C716 C725 1.429 . S
C717 C715 1.419 . S
C717 C718 1.363 . S
C717 H720 0.929 . S
C718 C717 1.363 . S
C718 C724 1.428 . S
H719 C715 0.930 . S
H720 C717 0.929 . S
S721 N722 1.613 . S
S721 N723 1.610 1_554 S
N722 S721 1.613 . S
N722 C725 1.350 . S
N723 S721 1.610 1_556 S
N723 C724 1.351 1_556 S
C724 C718 1.428 . S
C724 N723 1.351 1_554 S
C724 C725 1.434 . S
C725 C716 1.429 . S
C725 N722 1.350 . S
C725 C724 1.434 . S
C726 C727 1.369 . S
C726 C728 1.419 . S
C726 H730 0.930 . S
C727 C726 1.369 . S
C727 C736 1.429 . S
C728 C726 1.419 . S
C728 C729 1.363 . S
C728 H731 0.929 . S
C729 C728 1.363 . S
C729 C735 1.428 . S
H730 C726 0.930 . S
H731 C728 0.929 . S
S732 N733 1.613 . S
S732 N734 1.610 . S
N733 S732 1.613 . S
N733 C736 1.350 . S
N734 S732 1.610 . S
N734 C735 1.351 . S
C735 C729 1.428 . S
C735 N734 1.351 . S
C735 C736 1.434 . S
C736 C727 1.429 . S
C736 N733 1.350 . S
C736 C735 1.434 . S
C737 C738 1.369 . S
C737 C739 1.419 . S
C737 H741 0.930 . S
C738 C737 1.369 . S
C738 C747 1.429 . S
C739 C737 1.419 . S
C739 C740 1.363 . S
C739 H742 0.929 . S
C740 C739 1.363 . S
C740 C746 1.428 . S
H741 C737 0.930 . S
H742 C739 0.929 . S
S743 N744 1.613 . S
S743 N745 1.610 . S
N744 S743 1.613 . S
N744 C747 1.350 . S
N745 S743 1.610 . S
N745 C746 1.351 . S
C746 C740 1.428 . S
C746 N745 1.351 . S
C746 C747 1.434 . S
C747 C738 1.429 . S
C747 N744 1.350 . S
C747 C746 1.434 . S
C748 C749 1.369 . S
C748 C750 1.419 . S
C748 H752 0.930 . S
C749 C748 1.369 . S
C749 C758 1.429 . S
C750 C748 1.419 . S
C750 C751 1.363 . S
C750 H753 0.929 . S
C751 C750 1.363 . S
C751 C757 1.428 . S
H752 C748 0.930 . S
H753 C750 0.929 . S
S754 N755 1.613 . S
S754 N756 1.610 . S
N755 S754 1.613 . S
N755 C758 1.350 . S
N756 S754 1.610 . S
N756 C757 1.351 . S
C757 C751 1.428 . S
C757 N756 1.351 . S
C757 C758 1.434 . S
C758 C749 1.429 . S
C758 N755 1.350 . S
C758 C757 1.434 . S
C759 C760 1.369 . S
C759 C761 1.419 . S
C759 H763 0.930 . S
C760 C759 1.369 . S
C760 C769 1.429 . S
C761 C759 1.419 . S
C761 C762 1.363 . S
C761 H764 0.929 . S
C762 C761 1.363 . S
C762 C768 1.428 . S
H763 C759 0.930 . S
H764 C761 0.929 . S
S765 N766 1.613 . S
S765 N767 1.610 . S
N766 S765 1.613 . S
N766 C769 1.350 . S
N767 S765 1.610 . S
N767 C768 1.351 . S
C768 C762 1.428 . S
C768 N767 1.351 . S
C768 C769 1.434 . S
C769 C760 1.429 . S
C769 N766 1.350 . S
C769 C768 1.434 . S
C770 C771 1.369 . S
C770 C772 1.419 . S
C770 H774 0.930 . S
C771 C770 1.369 . S
C771 C780 1.429 . S
C772 C770 1.419 . S
C772 C773 1.363 . S
C772 H775 0.929 . S
C773 C772 1.363 . S
C773 C779 1.428 . S
H774 C770 0.930 . S
H775 C772 0.929 . S
S776 N777 1.613 . S
S776 N778 1.610 . S
N777 S776 1.613 . S
N777 C780 1.350 . S
N778 S776 1.610 . S
N778 C779 1.351 . S
C779 C773 1.428 . S
C779 N778 1.351 . S
C779 C780 1.434 . S
C780 C771 1.429 . S
C780 N777 1.350 . S
C780 C779 1.434 . S
C781 C782 1.369 . S
C781 C783 1.419 . S
C781 H785 0.930 . S
C782 C781 1.369 . S
C782 C791 1.429 . S
C783 C781 1.419 . S
C783 C784 1.363 . S
C783 H786 0.929 . S
C784 C783 1.363 . S
C784 C790 1.428 . S
H785 C781 0.930 . S
H786 C783 0.929 . S
S787 N788 1.613 . S
S787 N789 1.610 . S
N788 S787 1.613 . S
N788 C791 1.350 . S
N789 S787 1.610 . S
N789 C790 1.351 . S
C790 C784 1.428 . S
C790 N789 1.351 . S
C790 C791 1.434 . S
C791 C782 1.429 . S
C791 N788 1.350 . S
C791 C790 1.434 . S
C792 C793 1.369 . S
C792 C794 1.419 . S
C792 H796 0.930 . S
C793 C792 1.369 . S
C793 C802 1.429 . S
C794 C792 1.419 . S
C794 C795 1.363 . S
C794 H797 0.929 . S
C795 C794 1.363 . S
C795 C801 1.428 . S
H796 C792 0.930 . S
H797 C794 0.929 . S
S798 N799 1.613 . S
S798 N800 1.610 . S
N799 S798 1.613 . S
N799 C802 1.350 . S
N800 S798 1.610 . S
N800 C801 1.351 . S
C801 C795 1.428 . S
C801 N800 1.351 . S
C801 C802 1.434 . S
C802 C793 1.429 . S
C802 N799 1.350 . S
C802 C801 1.434 . S
C803 C804 1.369 . S
C803 C805 1.419 . S
C803 H807 0.930 . S
C804 C803 1.369 . S
C804 C813 1.429 . S
C805 C803 1.419 . S
C805 C806 1.363 . S
C805 H808 0.929 . S
C806 C805 1.363 . S
C806 C812 1.428 . S
H807 C803 0.930 . S
H808 C805 0.929 . S
S809 N810 1.613 . S
S809 N811 1.610 1_655 S
N810 S809 1.613 . S
N810 C813 1.350 . S
N811 S809 1.610 1_455 S
N811 C812 1.351 1_455 S
C812 C806 1.428 . S
C812 N811 1.351 1_655 S
C812 C813 1.434 . S
C813 C804 1.429 . S
C813 N810 1.350 . S
C813 C812 1.434 . S
C814 C815 1.369 . S
C814 C816 1.419 . S
C814 H818 0.930 . S
C815 C814 1.369 . S
C815 C824 1.429 . S
C816 C814 1.419 . S
C816 C817 1.363 . S
C816 H819 0.929 . S
C817 C816 1.363 . S
C817 C823 1.428 . S
H818 C814 0.930 . S
H819 C816 0.929 . S
S820 N821 1.613 . S
S820 N822 1.610 . S
N821 S820 1.613 . S
N821 C824 1.350 . S
N822 S820 1.610 . S
N822 C823 1.351 . S
C823 C817 1.428 . S
C823 N822 1.351 . S
C823 C824 1.434 . S
C824 C815 1.429 . S
C824 N821 1.350 . S
C824 C823 1.434 . S
C825 C826 1.369 . S
C825 C827 1.419 . S
C825 H829 0.930 . S
C826 C825 1.369 . S
C826 C835 1.429 . S
C827 C825 1.419 . S
C827 C828 1.363 . S
C827 H830 0.929 . S
C828 C827 1.363 . S
C828 C834 1.428 . S
H829 C825 0.930 . S
H830 C827 0.929 . S
S831 N832 1.613 . S
S831 N833 1.610 . S
N832 S831 1.613 . S
N832 C835 1.350 . S
N833 S831 1.610 . S
N833 C834 1.351 . S
C834 C828 1.428 . S
C834 N833 1.351 . S
C834 C835 1.434 . S
C835 C826 1.429 . S
C835 N832 1.350 . S
C835 C834 1.434 . S
C836 C837 1.369 1_554 S
C836 C838 1.419 . S
C836 H840 0.930 . S
C837 C836 1.369 1_556 S
C837 C846 1.429 . S
C838 C836 1.419 . S
C838 C839 1.363 . S
C838 H841 0.929 . S
C839 C838 1.363 . S
C839 C845 1.428 1_554 S
H840 C836 0.930 . S
H841 C838 0.929 . S
S842 N843 1.613 . S
S842 N844 1.610 . S
N843 S842 1.613 . S
N843 C846 1.350 . S
N844 S842 1.610 . S
N844 C845 1.351 . S
C845 C839 1.428 1_556 S
C845 N844 1.351 . S
C845 C846 1.434 . S
C846 C837 1.429 . S
C846 N843 1.350 . S
C846 C845 1.434 . S
C847 C848 1.369 1_556 S
C847 C849 1.419 . S
C847 H851 0.930 . S
C848 C847 1.369 1_554 S
C848 C857 1.429 . S
C849 C847 1.419 . S
C849 C850 1.363 . S
C849 H852 0.929 . S
C850 C849 1.363 . S
C850 C856 1.428 1_556 S
H851 C847 0.930 . S
H852 C849 0.929 . S
S853 N854 1.613 . S
S853 N855 1.610 . S
N854 S853 1.613 . S
N854 C857 1.350 . S
N855 S853 1.610 . S
N855 C856 1.351 . S
C856 C850 1.428 1_554 S
C856 N855 1.351 . S
C856 C857 1.434 . S
C857 C848 1.429 . S
C857 N854 1.350 . S
C857 C856 1.434 . S
C858 C859 1.369 1_556 S
C858 C860 1.419 . S
C858 H862 0.930 . S
C859 C858 1.369 1_554 S
C859 C868 1.429 . S
C860 C858 1.419 . S
C860 C861 1.363 . S
C860 H863 0.929 . S
C861 C860 1.363 . S
C861 C867 1.428 1_556 S
H862 C858 0.930 . S
H863 C860 0.929 . S
S864 N865 1.613 . S
S864 N866 1.610 . S
N865 S864 1.613 . S
N865 C868 1.350 . S
N866 S864 1.610 . S
N866 C867 1.351 . S
C867 C861 1.428 1_554 S
C867 N866 1.351 . S
C867 C868 1.434 . S
C868 C859 1.429 . S
C868 N865 1.350 . S
C868 C867 1.434 . S
C869 C870 1.368 . S
C869 C871 1.419 1_554 S
C869 H873 0.930 1_554 S
C870 C869 1.368 . S
C870 C879 1.429 . S
C871 C869 1.419 1_556 S
C871 C872 1.363 . S
C871 H874 0.929 . S
C872 C871 1.363 . S
C872 C878 1.428 1_556 S
H873 C869 0.930 1_556 S
H874 C871 0.929 . S
S875 N876 1.613 . S
S875 N877 1.610 . S
N876 S875 1.613 . S
N876 C879 1.350 . S
N877 S875 1.610 . S
N877 C878 1.351 . S
C878 C872 1.428 1_554 S
C878 N877 1.351 . S
C878 C879 1.434 . S
C879 C870 1.429 . S
C879 N876 1.350 . S
C879 C878 1.434 . S
C880 C881 1.369 . S
C880 C882 1.419 . S
C880 H884 0.930 . S
C881 C880 1.369 . S
C881 C890 1.429 . S
C882 C880 1.419 . S
C882 C883 1.363 . S
C882 H885 0.929 . S
C883 C882 1.363 . S
C883 C889 1.428 . S
H884 C880 0.930 . S
H885 C882 0.929 . S
S886 N887 1.613 . S
S886 N888 1.610 . S
N887 S886 1.613 . S
N887 C890 1.350 . S
N888 S886 1.610 . S
N888 C889 1.351 . S
C889 C883 1.428 . S
C889 N888 1.351 . S
C889 C890 1.434 . S
C890 C881 1.429 . S
C890 N887 1.350 . S
C890 C889 1.434 . S
C891 C892 1.369 . S
C891 C893 1.419 . S
C891 H895 0.930 . S
C892 C891 1.369 . S
C892 C901 1.429 . S
C893 C891 1.419 . S
C893 C894 1.363 . S
C893 H896 0.929 . S
C894 C893 1.363 . S
C894 C900 1.428 . S
H895 C891 0.930 . S
H896 C893 0.929 . S
S897 N898 1.613 . S
S897 N899 1.610 . S
N898 S897 1.613 . S
N898 C901 1.350 . S
N899 S897 1.610 . S
N899 C900 1.351 . S
C900 C894 1.428 . S
C900 N899 1.351 . S
C900 C901 1.434 . S
C901 C892 1.429 . S
C901 N898 1.350 . S
C901 C900 1.434 . S
C902 C903 1.369 . S
C902 C904 1.419 . S
C902 H906 0.930 . S
C903 C902 1.369 . S
C903 C912 1.429 . S
C904 C902 1.419 . S
C904 C905 1.363 . S
C904 H907 0.929 . S
C905 C904 1.363 . S
C905 C911 1.428 . S
H906 C902 0.930 . S
H907 C904 0.929 . S
S908 N909 1.613 . S
S908 N910 1.610 . S
N909 S908 1.613 . S
N909 C912 1.350 . S
N910 S908 1.610 . S
N910 C911 1.351 . S
C911 C905 1.428 . S
C911 N910 1.351 . S
C911 C912 1.434 . S
C912 C903 1.429 . S
C912 N909 1.350 . S
C912 C911 1.434 . S
C913 C914 1.369 . S
C913 C915 1.419 . S
C913 H917 0.930 . S
C914 C913 1.369 . S
C914 C923 1.429 . S
C915 C913 1.419 . S
C915 C916 1.363 . S
C915 H918 0.929 . S
C916 C915 1.363 . S
C916 C922 1.428 . S
H917 C913 0.930 . S
H918 C915 0.929 . S
S919 N920 1.613 . S
S919 N921 1.610 . S
N920 S919 1.613 . S
N920 C923 1.350 . S
N921 S919 1.610 . S
N921 C922 1.351 . S
C922 C916 1.428 . S
C922 N921 1.351 . S
C922 C923 1.434 . S
C923 C914 1.429 . S
C923 N920 1.350 . S
C923 C922 1.434 . S
C924 C925 1.369 . S
C924 C926 1.419 . S
C924 H928 0.930 . S
C925 C924 1.369 . S
C925 C934 1.429 . S
C926 C924 1.419 . S
C926 C927 1.363 . S
C926 H929 0.929 . S
C927 C926 1.363 . S
C927 C933 1.428 . S
H928 C924 0.930 . S
H929 C926 0.929 . S
S930 N931 1.613 . S
S930 N932 1.610 . S
N931 S930 1.613 . S
N931 C934 1.350 . S
N932 S930 1.610 . S
N932 C933 1.351 . S
C933 C927 1.428 . S
C933 N932 1.351 . S
C933 C934 1.434 . S
C934 C925 1.429 . S
C934 N931 1.350 . S
C934 C933 1.434 . S
C935 C936 1.369 . S
C935 C937 1.419 . S
C935 H939 0.930 . S
C936 C935 1.369 . S
C936 C945 1.429 . S
C937 C935 1.419 . S
C937 C938 1.363 . S
C937 H940 0.929 . S
C938 C937 1.363 . S
C938 C944 1.428 . S
H939 C935 0.930 . S
H940 C937 0.929 . S
S941 N942 1.613 . S
S941 N943 1.610 . S
N942 S941 1.613 . S
N942 C945 1.350 . S
N943 S941 1.610 . S
N943 C944 1.351 . S
C944 C938 1.428 . S
C944 N943 1.351 . S
C944 C945 1.434 . S
C945 C936 1.429 . S
C945 N942 1.350 . S
C945 C944 1.434 . S
C946 C947 1.369 . S
C946 C948 1.419 . S
C946 H950 0.930 . S
C947 C946 1.369 . S
C947 C956 1.429 . S
C948 C946 1.419 . S
C948 C949 1.363 . S
C948 H951 0.929 . S
C949 C948 1.363 . S
C949 C955 1.428 . S
H950 C946 0.930 . S
H951 C948 0.929 . S
S952 N953 1.613 . S
S952 N954 1.610 . S
N953 S952 1.613 . S
N953 C956 1.350 . S
N954 S952 1.610 . S
N954 C955 1.351 . S
C955 C949 1.428 . S
C955 N954 1.351 . S
C955 C956 1.434 . S
C956 C947 1.429 . S
C956 N953 1.350 . S
C956 C955 1.434 . S
C957 C958 1.369 . S
C957 C959 1.419 . S
C957 H961 0.930 . S
C958 C957 1.369 . S
C958 C967 1.429 . S
C959 C957 1.419 . S
C959 C960 1.363 . S
C959 H962 0.929 . S
C960 C959 1.363 . S
C960 C966 1.428 . S
H961 C957 0.930 . S
H962 C959 0.929 . S
S963 N964 1.613 . S
S963 N965 1.610 . S
N964 S963 1.613 . S
N964 C967 1.350 . S
N965 S963 1.610 . S
N965 C966 1.351 . S
C966 C960 1.428 . S
C966 N965 1.351 . S
C966 C967 1.434 . S
C967 C958 1.429 . S
C967 N964 1.350 . S
C967 C966 1.434 . S
C529 C7 1.160 . S
C531 C469 1.160 . S
C540 C502 1.160 . S
C542 C40 1.159 . S
C551 C403 1.160 . S
C553 C73 1.159 . S
C562 C106 1.161 . S
C564 C436 1.160 . S
C573 C139 1.159 . S
C575 C337 1.159 . S
C584 C370 1.159 . S
C586 C172 1.160 . S
C595 C205 1.159 . S
C597 C271 1.160 . S
C606 C304 1.161 . S
C608 C238 1.160 . S
C617 N145 1.481 . S
C619 N13 1.482 . S
C628 N46 1.476 . S
C630 N178 1.478 . S
C639 N79 1.482 . S
C641 N211 1.480 . S
C650 N112 1.481 . S
C652 N244 1.478 . S
C661 N409 1.481 . S
C663 N277 1.482 . S
C672 N442 1.478 . S
C674 N310 1.480 . S
C683 N343 1.477 . S
C685 N475 1.479 . S
C694 N376 1.478 . S
C696 N508 1.480 . S
C705 C21 1.507 . S
C707 C483 1.513 . S
C716 C516 1.514 . S
C718 C54 1.507 . S
C727 C87 1.509 . S
C729 C417 1.508 . S
C738 C450 1.513 . S
C740 C120 1.509 . S
C749 C351 1.509 . S
C751 C153 1.512 . S
C760 C384 1.507 . S
C762 C186 1.513 . S
C771 C219 1.508 . S
C773 C285 1.513 . S
C782 C252 1.509 . S
C784 C318 1.508 . S
C793 N2 1.475 1_565 S
C795 C381 1.586 . S
C804 C282 1.587 . S
C806 N35 1.477 1_655 S
C815 N68 1.485 1_545 S
C817 C315 1.584 . S
C826 C348 1.585 . S
C828 N101 1.484 1_455 S
C837 C183 1.585 . S
C839 N134 1.484 . S
C848 C216 1.585 . S
C850 N167 1.484 . S
C859 N200 1.480 . S
C861 C249 1.584 . S
C870 C150 1.587 . S
C872 N233 1.477 . S
C881 C117 1.584 . S
C883 N266 1.479 . S
C892 N299 1.482 . S
C894 C18 1.586 . S
C903 N332 1.485 . S
C905 C51 1.585 . S
C914 C84 1.582 . S
C916 N365 1.482 . S
C925 C447 1.583 . S
C927 N398 1.486 1_545 S
C936 C480 1.582 . S
C938 N431 1.487 1_455 S
C947 C513 1.583 . S
C949 N464 1.480 1_565 S
C958 N497 1.488 1_655 S
C960 C414 1.583 . S
