# Generated by pormake.
# Topology sml, (6)-cn, num edge types: 1
# Building blocks:
#     Node 0, Type 0, BuildingBlock: KUMBOL_clean_sbu_0, # of connection points: 6
#     Node 1, Type 0, BuildingBlock: KUMBOL_clean_sbu_0, # of connection points: 6
#     Node 2, Type 0, BuildingBlock: KUMBOL_clean_sbu_0, # of connection points: 6
#     Node 3, Type 0, BuildingBlock: KUMBOL_clean_sbu_0, # of connection points: 6
#     Node 4, Type 0, BuildingBlock: KUMBOL_clean_sbu_0, # of connection points: 6
#     Node 5, Type 0, BuildingBlock: KUMBOL_clean_sbu_0, # of connection points: 6
#     Edge 6, Type (0, 0), BuildingBlock: XIVTED_clean_linker_0, # of connection points: 2
#     Edge 7, Type (0, 0), BuildingBlock: XIVTED_clean_linker_0, # of connection points: 2
#     Edge 8, Type (0, 0), BuildingBlock: XIVTED_clean_linker_0, # of connection points: 2
#     Edge 9, Type (0, 0), BuildingBlock: XIVTED_clean_linker_0, # of connection points: 2
#     Edge 10, Type (0, 0), BuildingBlock: XIVTED_clean_linker_0, # of connection points: 2
#     Edge 11, Type (0, 0), BuildingBlock: XIVTED_clean_linker_0, # of connection points: 2
#     Edge 12, Type (0, 0), BuildingBlock: XIVTED_clean_linker_0, # of connection points: 2
#     Edge 13, Type (0, 0), BuildingBlock: XIVTED_clean_linker_0, # of connection points: 2
#     Edge 14, Type (0, 0), BuildingBlock: XIVTED_clean_linker_0, # of connection points: 2
#     Edge 15, Type (0, 0), BuildingBlock: XIVTED_clean_linker_0, # of connection points: 2
#     Edge 16, Type (0, 0), BuildingBlock: XIVTED_clean_linker_0, # of connection points: 2
#     Edge 17, Type (0, 0), BuildingBlock: XIVTED_clean_linker_0, # of connection points: 2
#     Edge 18, Type (0, 0), BuildingBlock: XIVTED_clean_linker_0, # of connection points: 2
#     Edge 19, Type (0, 0), BuildingBlock: XIVTED_clean_linker_0, # of connection points: 2
#     Edge 20, Type (0, 0), BuildingBlock: XIVTED_clean_linker_0, # of connection points: 2
#     Edge 21, Type (0, 0), BuildingBlock: XIVTED_clean_linker_0, # of connection points: 2
#     Edge 22, Type (0, 0), BuildingBlock: XIVTED_clean_linker_0, # of connection points: 2
#     Edge 23, Type (0, 0), BuildingBlock: XIVTED_clean_linker_0, # of connection points: 2
# Relax obj value: 0.028
# Max RMSD: 0.150
# Mean RMSD: 0.150
data_MOF--net-sml--node1-KUMBOL_clean_sbu_0--edge1-XIVTED_clean_linker_0
_symmetry_space_group_name_H-M    P1
_symmetry_Int_Tables_number       1
_symmetry_cell_setting            triclinic
loop_
_symmetry_equiv_pos_as_xyz
'x, y, z'
_cell_length_a     33.299781
_cell_length_b     33.275491
_cell_length_c     24.274246
_cell_angle_alpha  89.909062
_cell_angle_beta   90.173964
_cell_angle_gamma 120.05751
loop_
_atom_site_label
_atom_site_type_symbol
_atom_site_fract_x
_atom_site_fract_y
_atom_site_fract_z
_atom_type_partial_charge
Gd0 Gd 0.25341 0.42488 0.07397 0.0
Gd1 Gd 0.17166 0.4155 0.96363 0.0
C2 C 0.09311 0.49414 0.98467 0.0
C3 C 0.01334 0.43124 0.9927 0.0
C4 C 0.07553 0.41447 0.97702 0.0
C5 C 0.10767 0.4613 0.97809 0.0
C6 C 0.02782 0.39887 0.98258 0.0
C7 C 0.04606 0.47883 0.99404 0.0
C8 C 0.12597 0.54131 0.97943 0.0
C9 C 0.17152 0.55447 0.96533 0.0
N10 N 0.15277 0.4748 0.96862 0.0
C11 C 0.18425 0.52052 0.9593 0.0
H12 H 0.2197 0.53136 0.9489 0.0
C13 C 0.06005 0.33838 0.95773 0.0
N14 N 0.09081 0.3843 0.96724 0.0
C15 C 0.01233 0.32115 0.96292 0.0
C16 C 0.99615 0.35141 0.97626 0.0
H17 H 0.0726 0.31489 0.94809 0.0
H18 H 0.03467 0.50368 1.00075 0.0
H19 H 0.18651 0.30813 0.08821 0.0
H20 H 0.11617 0.56765 0.98415 0.0
H21 H 0.19696 0.59077 0.95954 0.0
H22 H 0.97691 0.41996 0.99805 0.0
H23 H 0.36085 0.51503 0.07859 0.0
H24 H 0.27258 0.24777 0.07116 0.0
H25 H 0.1953 0.23937 0.08587 0.0
H26 H 0.42543 0.37967 0.05492 0.0
H27 H 0.98809 0.28456 0.95683 0.0
H28 H 0.95918 0.33801 0.98016 0.0
H29 H 0.35835 0.30035 0.05893 0.0
H30 H 0.4417 0.53088 0.07182 0.0
N31 N 0.25829 0.35627 0.07457 0.0
C32 C 0.26903 0.2784 0.07241 0.0
C33 C 0.22541 0.27354 0.08086 0.0
C34 C 0.30772 0.3228 0.06693 0.0
C35 C 0.30115 0.36152 0.06868 0.0
C36 C 0.22069 0.31299 0.08241 0.0
N37 N 0.33098 0.44202 0.06973 0.0
C38 C 0.33871 0.40587 0.066 0.0
C39 C 0.41304 0.49554 0.06985 0.0
C40 C 0.42143 0.45871 0.06322 0.0
C41 C 0.36734 0.48646 0.07379 0.0
C42 C 0.38411 0.41314 0.06207 0.0
H43 H 0.45674 0.46565 0.06019 0.0
O44 O 0.28628 0.46851 0.14572 0.0
O45 O 0.205 0.44794 0.04421 0.0
O46 O 0.24444 0.47433 0.94691 0.0
O47 O 0.2977 0.46411 0.99943 0.0
O48 O 0.26875 0.49863 0.07419 0.0
O49 O 0.22811 0.399 0.1562 0.0
O50 O 0.15192 0.3759 0.8871 0.0
O51 O 0.22172 0.39526 0.99339 0.0
O52 O 0.17835 0.37413 0.09822 0.0
O53 O 0.12644 0.37815 0.03597 0.0
O54 O 0.16373 0.34379 0.9556 0.0
O55 O 0.19021 0.4509 0.88482 0.0
C56 C 0.22896 0.49066 0.05602 0.0
C57 C 0.39083 0.3748 0.05844 0.0
C58 C 0.35266 0.32966 0.06079 0.0
C59 C 0.25898 0.4368 0.18065 0.0
C60 C 0.28006 0.43063 0.23103 0.0
C61 C 0.31844 0.42413 0.22834 0.0
C62 C 0.26083 0.43063 0.28266 0.0
C63 C 0.28 0.42457 0.33176 0.0
C64 C 0.33763 0.41804 0.27668 0.0
C65 C 0.31871 0.4183 0.32796 0.0
C66 C 0.28697 0.4823 0.95692 0.0
C67 C 0.20316 0.35387 0.97708 0.0
C68 C 0.17086 0.41278 0.85604 0.0
C69 C 0.14532 0.41245 0.8063 0.0
C70 C 0.10325 0.41221 0.81013 0.0
C71 C 0.16404 0.41327 0.75408 0.0
C72 C 0.14102 0.41393 0.70541 0.0
C73 C 0.0801 0.41274 0.7623 0.0
C74 C 0.09874 0.41367 0.7104 0.0
C75 C 0.13601 0.36351 0.08206 0.0
H76 H 0.33344 0.42367 0.18899 0.0
H77 H 0.23127 0.43592 0.2845 0.0
H78 H 0.36722 0.41291 0.27441 0.0
H79 H 0.33401 0.41285 0.36461 0.0
H80 H 0.08851 0.41181 0.84998 0.0
H81 H 0.19637 0.41295 0.75157 0.0
H82 H 0.04768 0.41274 0.76542 0.0
H83 H 0.08031 0.41495 0.67423 0.0
Gd84 Gd 0.83254 0.25244 0.40677 0.0
Gd85 Gd 0.75466 0.17681 0.29666 0.0
C86 C 0.59718 0.10103 0.31201 0.0
C87 C 0.57788 0.02027 0.31571 0.0
C88 C 0.65816 0.08172 0.30622 0.0
C89 C 0.64454 0.11474 0.30765 0.0
C90 C 0.62497 0.03407 0.30944 0.0
C91 C 0.56406 0.05373 0.31701 0.0
C92 C 0.58441 0.13516 0.30973 0.0
C93 C 0.6184 0.18143 0.30135 0.0
N94 N 0.67738 0.16011 0.30217 0.0
C95 C 0.66492 0.19327 0.29684 0.0
H96 H 0.69083 0.22916 0.29035 0.0
C97 C 0.71866 0.06491 0.29361 0.0
N98 N 0.70389 0.09623 0.29995 0.0
C99 C 0.68706 0.01725 0.29682 0.0
C100 C 0.64004 0.00175 0.30525 0.0
H101 H 0.755 0.07675 0.28732 0.0
H102 H 0.52765 0.04279 0.32078 0.0
H103 H 0.88814 0.19081 0.4077 0.0
H104 H 0.54837 0.12604 0.31303 0.0
H105 H 0.60883 0.20802 0.29842 0.0
H106 H 0.55189 0.98383 0.31858 0.0
H107 H 0.84252 0.35629 0.42163 0.0
H108 H 0.03391 0.28528 0.39797 0.0
H109 H 0.96774 0.20497 0.40315 0.0
H110 H 0.04529 0.4346 0.40416 0.0
H111 H 0.69897 0.99252 0.29278 0.0
H112 H 0.61561 0.96481 0.30755 0.0
H113 H 0.06256 0.37093 0.39819 0.0
H114 H 0.90411 0.43891 0.42445 0.0
N115 N 0.90799 0.26244 0.40351 0.0
C116 C 0.99882 0.27931 0.39982 0.0
C117 C 0.96158 0.23397 0.40283 0.0
C118 C 0.99038 0.31645 0.40051 0.0
C119 C 0.94401 0.30673 0.40267 0.0
C120 C 0.91626 0.22614 0.40548 0.0
N121 N 0.88948 0.3315 0.40891 0.0
C122 C 0.9344 0.34242 0.40536 0.0
C123 C 0.91311 0.41212 0.41876 0.0
C124 C 0.95949 0.424 0.41316 0.0
C125 C 0.87837 0.36538 0.41718 0.0
C126 C 0.97071 0.38899 0.40689 0.0
H127 H 0.98641 0.4601 0.41487 0.0
O128 O 0.81758 0.27502 0.48423 0.0
O129 O 0.75987 0.20877 0.3785 0.0
O130 O 0.77285 0.25163 0.28495 0.0
O131 O 0.84114 0.29974 0.33388 0.0
O132 O 0.77616 0.27084 0.41505 0.0
O133 O 0.83874 0.22326 0.48428 0.0
O134 O 0.77123 0.15688 0.2184 0.0
O135 O 0.82717 0.22289 0.32378 0.0
O136 O 0.81097 0.17559 0.41817 0.0
O137 O 0.74048 0.13302 0.37218 0.0
O138 O 0.81411 0.16275 0.28546 0.0
O139 O 0.73719 0.19793 0.21993 0.0
C140 C 0.74283 0.23318 0.39431 0.0
C141 C 0.01692 0.39902 0.40342 0.0
C142 C 0.02674 0.36278 0.40008 0.0
C143 C 0.82729 0.24845 0.51414 0.0
C144 C 0.85471 0.26898 0.56446 0.0
C145 C 0.90082 0.30521 0.56156 0.0
C146 C 0.83428 0.25182 0.61621 0.0
C147 C 0.85961 0.27085 0.66524 0.0
C148 C 0.92623 0.32423 0.60985 0.0
C149 C 0.90589 0.3073 0.66129 0.0
C150 C 0.81087 0.29227 0.29367 0.0
C151 C 0.84646 0.20133 0.30568 0.0
C152 C 0.7537 0.1774 0.18932 0.0
C153 C 0.72655 0.1527 0.1403 0.0
C154 C 0.68245 0.1133 0.14508 0.0
C155 C 0.74535 0.16919 0.08776 0.0
C156 C 0.72033 0.14664 0.03966 0.0
C157 C 0.65737 0.09063 0.09777 0.0
C158 C 0.67602 0.10707 0.04547 0.0
C159 C 0.77044 0.13698 0.41057 0.0
H160 H 0.91711 0.3187 0.52211 0.0
H161 H 0.79844 0.22407 0.61817 0.0
H162 H 0.9619 0.35213 0.60742 0.0
H163 H 0.92667 0.32236 0.69797 0.0
H164 H 0.66747 0.10021 0.18523 0.0
H165 H 0.77978 0.19934 0.08453 0.0
H166 H 0.62323 0.06028 0.1016 0.0
H167 H 0.65539 0.08915 1.00963 0.0
Gd168 Gd 0.57986 0.83217 0.73908 0.0
Gd169 Gd 0.58184 0.75652 0.62885 0.0
C170 C 0.50144 0.59865 0.63984 0.0
C171 C 0.56351 0.58045 0.64565 0.0
C172 C 0.58159 0.66064 0.6378 0.0
C173 C 0.53475 0.64629 0.63728 0.0
C174 C 0.59655 0.62788 0.6413 0.0
C175 C 0.51606 0.56593 0.64491 0.0
C176 C 0.45443 0.58521 0.63577 0.0
C177 C 0.44178 0.6189 0.62747 0.0
N178 N 0.52177 0.67877 0.63174 0.0
C179 C 0.47613 0.66573 0.62474 0.0
H180 H 0.46581 0.69135 0.61821 0.0
C181 C 0.65899 0.7223 0.6291 0.0
N182 N 0.61256 0.70668 0.63329 0.0
C183 C 0.67553 0.69116 0.63272 0.0
C184 C 0.64421 0.64376 0.63929 0.0
H185 H 0.68327 0.75894 0.62423 0.0
H186 H 0.49079 0.52932 0.64715 0.0
H187 H 0.69692 0.88775 0.74642 0.0
H188 H 0.42777 0.54893 0.63766 0.0
H189 H 0.40558 0.60885 0.62319 0.0
H190 H 0.57429 0.55473 0.64863 0.0
H191 H 0.48662 0.84334 0.75262 0.0
H192 H 0.74936 0.03313 0.72609 0.0
H193 H 0.76287 0.96715 0.73955 0.0
H194 H 0.61178 0.04505 0.72168 0.0
H195 H 0.7124 0.7037 0.63039 0.0
H196 H 0.65711 0.61969 0.64189 0.0
H197 H 0.69268 0.0619 0.71892 0.0
H198 H 0.46595 0.90515 0.74925 0.0
N199 N 0.64563 0.90758 0.73559 0.0
C200 C 0.72006 0.99816 0.72904 0.0
C201 C 0.7278 0.96103 0.73677 0.0
C202 C 0.67455 0.98982 0.72684 0.0
C203 C 0.63766 0.94359 0.73067 0.0
C204 C 0.69004 0.91584 0.74075 0.0
N205 N 0.55831 0.88953 0.73795 0.0
C206 C 0.59245 0.93421 0.73183 0.0
C207 C 0.50166 0.91379 0.74401 0.0
C208 C 0.53626 0.95979 0.73515 0.0
C209 C 0.51347 0.87895 0.74602 0.0
C210 C 0.58242 0.97062 0.72973 0.0
H211 H 0.52722 0.9868 0.73382 0.0
O212 O 0.54042 0.8173 0.81501 0.0
O213 O 0.55246 0.76009 0.7096 0.0
O214 O 0.52464 0.77323 0.61446 0.0
O215 O 0.5402 0.83901 0.66604 0.0
O216 O 0.50528 0.77498 0.74496 0.0
O217 O 0.61328 0.83832 0.81807 0.0
O218 O 0.62038 0.774 0.55205 0.0
O219 O 0.60623 0.82792 0.65751 0.0
O220 O 0.63448 0.8101 0.75398 0.0
O221 O 0.60918 0.74117 0.70538 0.0
O222 O 0.65512 0.81801 0.61935 0.0
O223 O 0.5452 0.74048 0.55088 0.0
C224 C 0.51055 0.74237 0.72392 0.0
C225 C 0.6188 0.01661 0.72384 0.0
C226 C 0.66484 0.0262 0.72231 0.0
C227 C 0.57593 0.82701 0.84638 0.0
C228 C 0.58174 0.85445 0.8962 0.0
C229 C 0.58845 0.89943 0.89282 0.0
C230 C 0.58081 0.83512 0.94803 0.0
C231 C 0.58628 0.86033 0.99683 0.0
C232 C 0.59392 0.92474 0.94086 0.0
C233 C 0.5928 0.90544 0.99248 0.0
C234 C 0.5196 0.80963 0.62443 0.0
C235 C 0.64731 0.84903 0.64031 0.0
C236 C 0.58303 0.75725 0.52167 0.0
C237 C 0.58144 0.73097 0.47237 0.0
C238 C 0.57844 0.68756 0.47642 0.0
C239 C 0.58261 0.7499 0.42021 0.0
C240 C 0.58088 0.72579 0.37176 0.0
C241 C 0.57669 0.66334 0.42866 0.0
C242 C 0.57787 0.68219 0.37669 0.0
C243 C 0.63338 0.77006 0.74548 0.0
H244 H 0.58943 0.91488 0.85319 0.0
H245 H 0.57643 0.8006 0.95014 0.0
H246 H 0.5989 0.95943 0.93813 0.0
H247 H 0.59644 0.92568 0.02898 0.0
H248 H 0.57744 0.6725 0.51632 0.0
H249 H 0.58421 0.7832 0.41751 0.0
H250 H 0.57452 0.62986 0.43189 0.0
H251 H 0.57706 0.6629 0.34042 0.0
Gd252 Gd 0.74732 0.57835 0.07343 0.0
Gd253 Gd 0.82631 0.58324 0.96358 0.0
C254 C 0.90388 0.50289 0.97079 0.0
C255 C 0.98416 0.56499 0.97761 0.0
C256 C 0.92196 0.58302 0.97197 0.0
C257 C 0.88949 0.53616 0.97004 0.0
C258 C 0.96971 0.59804 0.97515 0.0
C259 C 0.95126 0.51752 0.97531 0.0
C260 C 0.87036 0.45594 0.96534 0.0
C261 C 0.82399 0.44332 0.95751 0.0
N262 N 0.84402 0.52318 0.9647 0.0
C263 C 0.81145 0.47763 0.95651 0.0
H264 H 0.77549 0.46726 0.95019 0.0
C265 C 0.93769 0.66057 0.96582 0.0
N266 N 0.90687 0.614 0.96877 0.0
C267 C 0.98539 0.67717 0.96939 0.0
C268 C 0.00149 0.64579 0.97449 0.0
H269 H 0.92531 0.68488 0.96193 0.0
H270 H 0.96265 0.49228 0.97579 0.0
H271 H 0.80455 0.69525 0.08204 0.0
H272 H 0.88003 0.42932 0.96582 0.0
H273 H 0.79786 0.40718 0.95221 0.0
H274 H 0.02069 0.57579 0.98016 0.0
H275 H 0.64497 0.48214 0.08762 0.0
H276 H 0.70704 0.74193 0.06141 0.0
H277 H 0.7877 0.75901 0.07537 0.0
H278 H 0.56055 0.60031 0.05713 0.0
H279 H 0.00971 0.71413 0.96806 0.0
H280 H 0.03848 0.65874 0.97691 0.0
H281 H 0.62225 0.68239 0.05407 0.0
H282 H 0.56156 0.4579 0.08514 0.0
N283 N 0.7343 0.64189 0.07026 0.0
C284 C 0.71423 0.71364 0.06418 0.0
C285 C 0.75976 0.72339 0.07221 0.0
C286 C 0.67836 0.66742 0.06166 0.0
C287 C 0.68968 0.63192 0.06525 0.0
C288 C 0.76913 0.68693 0.07604 0.0
N289 N 0.66759 0.55329 0.07267 0.0
C290 C 0.65515 0.58603 0.06654 0.0
C291 C 0.58753 0.49405 0.07955 0.0
C292 C 0.57416 0.52718 0.07073 0.0
C293 C 0.63471 0.50787 0.08105 0.0
C294 C 0.60809 0.57394 0.06484 0.0
H295 H 0.53769 0.51656 0.0699 0.0
O296 O 0.72501 0.53871 0.14958 0.0
O297 O 0.79329 0.55269 0.04388 0.0
O298 O 0.75259 0.52551 0.94848 0.0
O299 O 0.70137 0.53952 0.99976 0.0
O300 O 0.73165 0.5042 0.07887 0.0
O301 O 0.77336 0.61264 0.15222 0.0
O302 O 0.84841 0.62352 0.88788 0.0
O303 O 0.77836 0.60634 0.99228 0.0
O304 O 0.82346 0.63478 0.08795 0.0
O305 O 0.86816 0.61023 0.0408 0.0
O306 O 0.83777 0.65647 0.95596 0.0
O307 O 0.80601 0.54841 0.88459 0.0
C308 C 0.76987 0.51055 0.05776 0.0
C309 C 0.59651 0.60893 0.05902 0.0
C310 C 0.63163 0.65564 0.05731 0.0
C311 C 0.74921 0.57484 0.18074 0.0
C312 C 0.72649 0.57886 0.23054 0.0
C313 C 0.68658 0.58278 0.22708 0.0
C314 C 0.74545 0.57904 0.28242 0.0
C315 C 0.72467 0.58288 0.33116 0.0
C316 C 0.66571 0.58659 0.27509 0.0
C317 C 0.68446 0.58659 0.32674 0.0
C318 C 0.71074 0.51948 0.95819 0.0
C319 C 0.7985 0.64784 0.97628 0.0
C320 C 0.82775 0.58686 0.85644 0.0
C321 C 0.85281 0.58599 0.80718 0.0
C322 C 0.89416 0.5848 0.81134 0.0
C323 C 0.8345 0.58606 0.75498 0.0
C324 C 0.85728 0.58507 0.70659 0.0
C325 C 0.91703 0.58379 0.76364 0.0
C326 C 0.89883 0.58392 0.71163 0.0
C327 C 0.86277 0.6343 0.08036 0.0
H328 H 0.67165 0.58286 0.18744 0.0
H329 H 0.7768 0.57682 0.2846 0.0
H330 H 0.63476 0.5894 0.27229 0.0
H331 H 0.66707 0.58889 0.3632 0.0
H332 H 0.90866 0.58465 0.85127 0.0
H333 H 0.80209 0.58625 0.75221 0.0
H334 H 0.94907 0.58304 0.76696 0.0
H335 H 0.91766 0.58376 0.67542 0.0
Gd336 Gd 0.16737 0.7472 0.40882 0.0
Gd337 Gd 0.24309 0.82544 0.29863 0.0
C338 C 0.40054 0.90453 0.31563 0.0
C339 C 0.4175 0.98439 0.32321 0.0
C340 C 0.33813 0.92181 0.31031 0.0
C341 C 0.35297 0.88973 0.31042 0.0
C342 C 0.37025 0.96958 0.3158 0.0
C343 C 0.43256 0.95187 0.32324 0.0
C344 C 0.41461 0.87144 0.31174 0.0
C345 C 0.38167 0.82519 0.30102 0.0
N346 N 0.32109 0.84425 0.30308 0.0
C347 C 0.33484 0.81222 0.29609 0.0
H348 H 0.30971 0.77631 0.28814 0.0
C349 C 0.2762 0.93673 0.29865 0.0
N350 N 0.29219 0.90625 0.30363 0.0
C351 C 0.30675 0.98449 0.30383 0.0
C352 C 0.35393 0.00099 0.313 0.0
H353 H 0.23969 0.92404 0.29211 0.0
H354 H 0.46906 0.96359 0.32822 0.0
H355 H 0.11148 0.80839 0.41671 0.0
H356 H 0.45087 0.88141 0.3156 0.0
H357 H 0.39226 0.79945 0.29684 0.0
H358 H 0.44269 0.02092 0.32812 0.0
H359 H 0.15629 0.64268 0.42229 0.0
H360 H 0.96643 0.7152 0.3945 0.0
H361 H 0.03214 0.79472 0.40924 0.0
H362 H 0.95494 0.56581 0.38839 0.0
H363 H 0.29389 0.00854 0.30092 0.0
H364 H 0.37751 0.038 0.31705 0.0
H365 H 0.93794 0.6298 0.38611 0.0
H366 H 0.0947 0.56005 0.4175 0.0
N367 N 0.09193 0.73734 0.40522 0.0
C368 C 0.00138 0.72095 0.39783 0.0
C369 C 0.03836 0.76584 0.40627 0.0
C370 C 0.00984 0.68386 0.39537 0.0
C371 C 0.05603 0.69332 0.39973 0.0
C372 C 0.08353 0.77338 0.41062 0.0
N373 N 0.11012 0.66815 0.40732 0.0
C374 C 0.06549 0.65752 0.40069 0.0
C375 C 0.08601 0.58713 0.41246 0.0
C376 C 0.04011 0.57568 0.40286 0.0
C377 C 0.12072 0.63385 0.41531 0.0
C378 C 0.02921 0.61101 0.39774 0.0
H379 H 0.01322 0.53958 0.40066 0.0
O380 O 0.18126 0.72175 0.48497 0.0
O381 O 0.23921 0.79217 0.37937 0.0
O382 O 0.22701 0.75155 0.2847 0.0
O383 O 0.16111 0.70102 0.33581 0.0
O384 O 0.22503 0.73053 0.41566 0.0
O385 O 0.16254 0.7753 0.48759 0.0
O386 O 0.22594 0.84641 0.22129 0.0
O387 O 0.17177 0.7781 0.32716 0.0
O388 O 0.18891 0.82381 0.42358 0.0
O389 O 0.25772 0.86788 0.37511 0.0
O390 O 0.18144 0.83678 0.28837 0.0
O391 O 0.25967 0.80499 0.22116 0.0
C392 C 0.25735 0.7685 0.39433 0.0
C393 C 0.98328 0.60132 0.39124 0.0
C394 C 0.9736 0.63773 0.38999 0.0
C395 C 0.17285 0.74851 0.51612 0.0
C396 C 0.14545 0.72776 0.56616 0.0
C397 C 0.09996 0.69029 0.56319 0.0
C398 C 0.16532 0.74624 0.61779 0.0
C399 C 0.14008 0.7274 0.66674 0.0
C400 C 0.07465 0.67134 0.61146 0.0
C401 C 0.09446 0.68963 0.66286 0.0
C402 C 0.19068 0.70993 0.29453 0.0
C403 C 0.15061 0.79799 0.30973 0.0
C404 C 0.243 0.82596 0.19142 0.0
C405 C 0.2696 0.85079 0.14234 0.0
C406 C 0.31282 0.89141 0.14679 0.0
C407 C 0.25121 0.83293 0.09002 0.0
C408 C 0.27574 0.85528 0.04175 0.0
C409 C 0.33739 0.91397 0.09924 0.0
C410 C 0.31913 0.89613 0.04711 0.0
C411 C 0.2288 0.86295 0.41506 0.0
H412 H 0.0841 0.67582 0.52371 0.0
H413 H 0.20069 0.77497 0.61974 0.0
H414 H 0.03946 0.64245 0.60904 0.0
H415 H 0.07377 0.67461 0.69951 0.0
H416 H 0.32749 0.90552 0.18683 0.0
H417 H 0.21745 0.80179 0.08709 0.0
H418 H 0.37086 0.94529 0.10277 0.0
H419 H 0.33935 0.914 1.01108 0.0
Gd420 Gd 0.42066 0.16818 0.74117 0.0
Gd421 Gd 0.41683 0.24365 0.63127 0.0
C422 C 0.49732 0.40132 0.64611 0.0
C423 C 0.4353 0.41926 0.6555 0.0
C424 C 0.41718 0.33945 0.64298 0.0
C425 C 0.46398 0.3538 0.64179 0.0
C426 C 0.40224 0.37204 0.64886 0.0
C427 C 0.48276 0.43379 0.65429 0.0
C428 C 0.54426 0.4149 0.64074 0.0
C429 C 0.55676 0.38152 0.62942 0.0
N430 N 0.47686 0.32149 0.63396 0.0
C431 C 0.52237 0.33476 0.62548 0.0
H432 H 0.53262 0.30935 0.61708 0.0
C433 C 0.33978 0.27802 0.6331 0.0
N434 N 0.38622 0.29354 0.637 0.0
C435 C 0.32324 0.30903 0.63869 0.0
C436 C 0.35457 0.3562 0.64718 0.0
H437 H 0.31549 0.24151 0.6271 0.0
H438 H 0.50806 0.47024 0.65874 0.0
H439 H 0.30368 0.11191 0.75056 0.0
H440 H 0.57096 0.45111 0.64384 0.0
H441 H 0.59289 0.39172 0.62405 0.0
H442 H 0.42454 0.44482 0.66075 0.0
H443 H 0.51443 0.15774 0.75336 0.0
H444 H 0.2518 0.96664 0.73046 0.0
H445 H 0.23799 0.03232 0.74459 0.0
H446 H 0.38989 0.95576 0.72371 0.0
H447 H 0.28637 0.29654 0.63664 0.0
H448 H 0.34167 0.38015 0.65154 0.0
H449 H 0.30878 0.93837 0.72215 0.0
H450 H 0.53559 0.0963 0.7496 0.0
N451 N 0.35514 0.09254 0.73846 0.0
C452 C 0.281 0.00171 0.73298 0.0
C453 C 0.27309 0.03866 0.7411 0.0
C454 C 0.32657 0.01035 0.72991 0.0
C455 C 0.36331 0.0567 0.73323 0.0
C456 C 0.31072 0.08397 0.74456 0.0
N457 N 0.44263 0.11115 0.73954 0.0
C458 C 0.40863 0.06637 0.73374 0.0
C459 C 0.49974 0.08741 0.74479 0.0
C460 C 0.46524 0.0413 0.7363 0.0
C461 C 0.48766 0.12204 0.74703 0.0
C462 C 0.41893 0.03016 0.73145 0.0
H463 H 0.47449 0.01445 0.73483 0.0
O464 O 0.46073 0.18301 0.81693 0.0
O465 O 0.44731 0.24006 0.71142 0.0
O466 O 0.47423 0.22743 0.61604 0.0
O467 O 0.45998 0.1619 0.66745 0.0
O468 O 0.49512 0.22574 0.74662 0.0
O469 O 0.38818 0.16282 0.82045 0.0
O470 O 0.37728 0.22632 0.55486 0.0
O471 O 0.39306 0.17232 0.66004 0.0
O472 O 0.36578 0.18968 0.75671 0.0
O473 O 0.39018 0.25869 0.70855 0.0
O474 O 0.34348 0.1821 0.62291 0.0
O475 O 0.45228 0.25893 0.55275 0.0
C476 C 0.48937 0.25806 0.72541 0.0
C477 C 0.38267 0.98405 0.72601 0.0
C478 C 0.33651 0.97416 0.72515 0.0
C479 C 0.42566 0.1739 0.84858 0.0
C480 C 0.41995 0.14655 0.89865 0.0
C481 C 0.4144 0.10202 0.89538 0.0
C482 C 0.41969 0.16534 0.9505 0.0
C483 C 0.4141 0.13995 0.99932 0.0
C484 C 0.40895 0.07664 0.9434 0.0
C485 C 0.40887 0.09535 0.99494 0.0
C486 C 0.48009 0.19146 0.62584 0.0
C487 C 0.35167 0.1512 0.64366 0.0
C488 C 0.41415 0.24239 0.52395 0.0
C489 C 0.41559 0.26858 0.47443 0.0
C490 C 0.41746 0.31145 0.47845 0.0
C491 C 0.41568 0.25033 0.42219 0.0
C492 C 0.4176 0.27466 0.3737 0.0
C493 C 0.41928 0.33581 0.4307 0.0
C494 C 0.41937 0.31768 0.37874 0.0
C495 C 0.36659 0.22966 0.74875 0.0
H496 H 0.41431 0.08698 0.85583 0.0
H497 H 0.42319 0.19949 0.95256 0.0
H498 H 0.4049 0.04233 0.94072 0.0
H499 H 0.40529 0.07502 0.03138 0.0
H500 H 0.41754 0.32601 0.51836 0.0
H501 H 0.41497 0.21746 0.41948 0.0
H502 H 0.42055 0.36887 0.43394 0.0
H503 H 0.4202 0.33712 0.34252 0.0
H504 H 0.29427 0.17605 0.8199 0.0
H505 H 0.29519 0.3973 0.94941 0.0
H506 H 0.38374 0.31749 0.76698 0.0
H507 H 0.1713 0.26274 0.9505 0.0
H508 H 0.33562 0.36458 0.90024 0.0
H509 H 0.25527 0.20371 0.88304 0.0
C510 C 0.30577 0.21278 0.8216 0.0
C511 C 0.34207 0.2444 0.78767 0.0
C512 C 0.2997 0.34199 0.91167 0.0
C513 C 0.29847 0.27614 0.86029 0.0
C514 C 0.27663 0.36065 0.94034 0.0
C515 C 0.2298 0.33272 0.95465 0.0
C516 C 0.27586 0.29494 0.89659 0.0
C517 C 0.2075 0.28542 0.94045 0.0
C518 C 0.28351 0.22846 0.85751 0.0
C519 C 0.35562 0.29165 0.79172 0.0
N520 N 0.23067 0.26794 0.91205 0.0
N521 N 0.33403 0.30598 0.82737 0.0
H522 H 0.12971 0.38288 0.18947 0.0
H523 H 0.89018 0.1596 0.25808 0.0
H524 H 0.05389 0.28442 0.06075 0.0
H525 H 0.90896 0.29489 0.2935 0.0
H526 H 0.96345 0.19706 0.20631 0.0
H527 H 0.06137 0.34249 0.24991 0.0
C528 C 0.09896 0.35226 0.1744 0.0
C529 C 0.09718 0.33673 0.12027 0.0
C530 C 0.95174 0.21834 0.22654 0.0
C531 C 0.02001 0.29031 0.18901 0.0
C532 C 0.91018 0.19716 0.25617 0.0
C533 C 0.89375 0.22414 0.2813 0.0
C534 C 0.97757 0.26688 0.22301 0.0
C535 C 0.92074 0.27268 0.27644 0.0
C536 C 0.06013 0.32956 0.20863 0.0
C537 C 0.05642 0.29738 0.10224 0.0
N538 N 0.96153 0.29255 0.24832 0.0
N539 N 0.01946 0.27519 0.13672 0.0
H540 H 0.82512 0.11696 0.47849 0.0
H541 H 0.60604 0.9 0.61446 0.0
H542 H 0.68299 0.06558 0.4288 0.0
H543 H 0.73784 0.90511 0.60806 0.0
H544 H 0.63897 0.97245 0.56393 0.0
H545 H 0.79835 0.04961 0.54074 0.0
C546 C 0.78844 0.09167 0.48063 0.0
C547 C 0.75632 0.09682 0.44805 0.0
C548 C 0.66093 0.95804 0.5739 0.0
C549 C 0.72567 0.02079 0.51965 0.0
C550 C 0.64217 0.91666 0.60337 0.0
C551 C 0.66919 0.89638 0.61608 0.0
C552 C 0.7072 0.97959 0.55636 0.0
C553 C 0.71584 0.91969 0.59929 0.0
C554 C 0.77329 0.05335 0.51602 0.0
C555 C 0.70918 0.06302 0.45258 0.0
N556 N 0.73348 0.96014 0.57014 0.0
N557 N 0.69538 0.0268 0.48781 0.0
H558 H 0.61567 0.68195 0.76198 0.0
H559 H 0.83328 0.73927 0.94818 0.0
H560 H 0.70658 0.82267 0.81662 0.0
H561 H 0.70695 0.60671 0.94705 0.0
H562 H 0.79285 0.7726 0.89663 0.0
H563 H 0.65466 0.65528 0.82405 0.0
C564 C 0.64404 0.70743 0.78693 0.0
C565 C 0.65796 0.75478 0.78377 0.0
C566 C 0.77396 0.7364 0.90861 0.0
C567 C 0.70308 0.72403 0.85558 0.0
C568 C 0.79694 0.7174 0.9379 0.0
C569 C 0.77339 0.67016 0.95238 0.0
C570 C 0.72755 0.70754 0.89252 0.0
C571 C 0.72649 0.64323 0.93753 0.0
C572 C 0.6661 0.69201 0.8228 0.0
C573 C 0.69473 0.78587 0.81776 0.0
N574 N 0.70536 0.66214 0.90808 0.0
N575 N 0.71642 0.77 0.85199 0.0
H576 H 0.09982 0.70583 0.28374 0.0
H577 H 0.88158 0.70757 0.15015 0.0
H578 H 0.09404 0.8323 0.27901 0.0
H579 H 0.93383 0.6181 0.09903 0.0
H580 H 0.94871 0.74771 0.21306 0.0
H581 H 0.02672 0.66611 0.23438 0.0
C582 C 0.08286 0.72519 0.27328 0.0
C583 C 0.10308 0.77247 0.28613 0.0
C584 C 0.94515 0.71924 0.18792 0.0
C585 C 0.01924 0.72712 0.22768 0.0
C586 C 0.90695 0.69632 0.15221 0.0
C587 C 0.90221 0.65963 0.11897 0.0
C588 C 0.97792 0.70445 0.19116 0.0
C589 C 0.93609 0.64643 0.12333 0.0
C590 C 0.04112 0.70247 0.2445 0.0
C591 C 0.07947 0.79573 0.2701 0.0
N592 N 0.97217 0.66859 0.15881 0.0
N593 N 0.0387 0.77285 0.24153 0.0
H594 H 0.2602 0.09476 0.61528 0.0
H595 H 0.31687 0.93298 0.43243 0.0
H596 H 0.39228 0.10029 0.61552 0.0
H597 H 0.17609 0.88387 0.48519 0.0
H598 H 0.34354 0.99881 0.49397 0.0
H599 H 0.22655 0.02064 0.56445 0.0
C600 C 0.28189 0.08006 0.60546 0.0
C601 C 0.32908 0.10364 0.62013 0.0
C602 C 0.3068 0.97364 0.49245 0.0
C603 C 0.29135 0.02003 0.56113 0.0
C604 C 0.29137 0.93606 0.45685 0.0
C605 C 0.244 0.90279 0.45328 0.0
C606 C 0.27478 0.97888 0.52457 0.0
C607 C 0.2129 0.9087 0.48667 0.0
C608 C 0.26271 0.03788 0.57659 0.0
C609 C 0.35579 0.0834 0.60586 0.0
N610 N 0.22878 0.94637 0.52065 0.0
N611 N 0.33671 0.04317 0.57685 0.0
H612 H 0.09497 0.37063 0.60958 0.0
H613 H 0.32599 0.4641 0.42855 0.0
H614 H 0.23289 0.46028 0.67346 0.0
H615 H 0.18787 0.38489 0.36089 0.0
H616 H 0.29249 0.46155 0.51881 0.0
H617 H 0.12818 0.37445 0.51882 0.0
C618 C 0.13222 0.39135 0.60466 0.0
C619 C 0.16102 0.41522 0.64974 0.0
C620 C 0.26946 0.44478 0.48424 0.0
C621 C 0.1995 0.41914 0.54533 0.0
C622 C 0.28858 0.446 0.43261 0.0
C623 C 0.2598 0.42452 0.38677 0.0
C624 C 0.22103 0.42175 0.49056 0.0
C625 C 0.21153 0.40233 0.39472 0.0
C626 C 0.1512 0.39329 0.55269 0.0
C627 C 0.20918 0.4407 0.6405 0.0
N628 N 0.19373 0.40137 0.44551 0.0
N629 N 0.2268 0.44196 0.58954 0.0
H630 H 0.7134 0.09641 0.94634 0.0
H631 H 0.8686 0.32049 0.75939 0.0
H632 H 0.77274 0.23736 1.00487 0.0
H633 H 0.80143 0.1802 0.69706 0.0
H634 H 0.83482 0.29047 0.84985 0.0
H635 H 0.74567 0.12617 0.8552 0.0
C636 C 0.73296 0.13362 0.94011 0.0
C637 C 0.74022 0.16432 0.98376 0.0
C638 C 0.82738 0.26621 0.81641 0.0
C639 C 0.77797 0.19874 0.8791 0.0
C640 C 0.8469 0.28333 0.7647 0.0
C641 C 0.83808 0.25289 0.72033 0.0
C642 C 0.79878 0.21815 0.82423 0.0
C643 C 0.80891 0.20509 0.72974 0.0
C644 C 0.75163 0.1506 0.88798 0.0
C645 C 0.76669 0.21223 0.973 0.0
N646 N 0.7905 0.18924 0.78058 0.0
N647 N 0.78454 0.22787 0.92194 0.0
H648 H 0.63376 0.81666 0.33846 0.0
H649 H 0.53074 0.76998 0.03126 0.0
H650 H 0.53118 0.68139 0.27858 0.0
H651 H 0.63929 0.90349 0.08857 0.0
H652 H 0.52984 0.73707 0.1216 0.0
H653 H 0.63493 0.84932 0.24786 0.0
C654 C 0.61127 0.7938 0.30639 0.0
C655 C 0.58226 0.74611 0.31643 0.0
C656 C 0.55387 0.77357 0.11442 0.0
C657 C 0.58382 0.78338 0.21198 0.0
C658 C 0.55463 0.7924 0.06262 0.0
C659 C 0.5852 0.83971 0.05193 0.0
C660 C 0.58382 0.80216 0.15619 0.0
C661 C 0.61466 0.86704 0.09486 0.0
C662 C 0.61219 0.81247 0.25447 0.0
C663 C 0.55452 0.71821 0.27275 0.0
N664 N 0.61322 0.8479 0.14493 0.0
N665 N 0.55593 0.73724 0.22261 0.0
H666 H 0.81588 0.63466 0.67265 0.0
H667 H 0.76395 0.53137 0.36579 0.0
H668 H 0.85408 0.53604 0.61383 0.0
H669 H 0.73142 0.6346 0.42281 0.0
H670 H 0.79677 0.53232 0.45626 0.0
H671 H 0.78357 0.63398 0.58195 0.0
C672 C 0.8173 0.61264 0.64081 0.0
C673 C 0.83777 0.5853 0.65118 0.0
C674 C 0.78245 0.55478 0.44899 0.0
C675 C 0.80113 0.58479 0.54658 0.0
C676 C 0.76392 0.55448 0.39712 0.0
C677 C 0.7448 0.58299 0.38632 0.0
C678 C 0.78192 0.58373 0.49071 0.0
C679 C 0.7451 0.61152 0.42919 0.0
C680 C 0.79906 0.61252 0.58882 0.0
C681 C 0.8392 0.55813 0.60775 0.0
N682 N 0.76331 0.61115 0.47933 0.0
N683 N 0.8211 0.55851 0.55752 0.0
H684 H 0.19543 0.81914 0.69587 0.0
H685 H 0.22692 0.76367 1.0096 0.0
H686 H 0.13298 0.68057 0.76295 0.0
H687 H 0.27992 0.90259 0.94663 0.0
H688 H 0.19426 0.73276 0.9189 0.0
H689 H 0.22936 0.8504 0.78621 0.0
C690 C 0.18903 0.79522 0.72946 0.0
C691 C 0.16118 0.74705 0.72158 0.0
C692 C 0.21303 0.77002 0.92489 0.0
C693 C 0.19971 0.78277 0.82561 0.0
C694 C 0.23151 0.78776 0.97689 0.0
C695 C 0.25618 0.83594 0.98618 0.0
C696 C 0.21924 0.80055 0.88144 0.0
C697 C 0.26171 0.86527 0.94152 0.0
C698 C 0.20821 0.81314 0.7812 0.0
C699 C 0.15364 0.71791 0.76707 0.0
N700 N 0.24339 0.84714 0.89126 0.0
N701 N 0.17279 0.73619 0.81695 0.0
H702 H 0.46789 0.3212 0.2819 0.0
H703 H 0.36048 0.0947 0.08969 0.0
H704 H 0.36752 0.18392 0.33831 0.0
H705 H 0.46682 0.23037 0.03563 0.0
H706 H 0.36173 0.12705 0.18028 0.0
H707 H 0.46658 0.28907 0.19097 0.0
C708 C 0.44538 0.28432 0.2752 0.0
C709 C 0.4177 0.25533 0.31813 0.0
C710 C 0.38479 0.14979 0.14863 0.0
C711 C 0.41638 0.2181 0.2137 0.0
C712 C 0.38431 0.13126 0.09679 0.0
C713 C 0.41373 0.15969 0.05459 0.0
C714 C 0.41482 0.19727 0.15875 0.0
C715 C 0.44309 0.20708 0.06639 0.0
C716 C 0.44486 0.26594 0.22323 0.0
C717 C 0.38987 0.20764 0.3069 0.0
N718 N 0.44291 0.22429 0.11722 0.0
N719 N 0.38986 0.19061 0.25591 0.0
H720 H 0.26855 0.58323 0.04852 0.0
H721 H 0.146 0.6138 0.30947 0.0
H722 H 0.15038 0.46361 0.1186 0.0
H723 H 0.21939 0.721 0.18845 0.0
H724 H 0.14503 0.55655 0.24393 0.0
H725 H 0.24988 0.63358 0.10191 0.0
C726 C 0.2379 0.56767 0.07431 0.0
C727 C 0.21049 0.51939 0.07837 0.0
C728 C 0.16079 0.59264 0.23183 0.0
C729 C 0.19002 0.5768 0.14228 0.0
C730 C 0.16143 0.62531 0.26925 0.0
C731 C 0.18403 0.67268 0.2553 0.0
C732 C 0.18295 0.60773 0.18045 0.0
C733 C 0.20301 0.68539 0.2022 0.0
C734 C 0.22731 0.59636 0.10509 0.0
C735 C 0.17175 0.50081 0.11349 0.0
N736 N 0.2025 0.65343 0.16731 0.0
N737 N 0.16306 0.52961 0.14502 0.0
H738 H 0.68732 0.15035 0.4481 0.0
H739 H 0.49787 0.22148 0.52004 0.0
H740 H 0.69325 0.27687 0.39529 0.0
H741 H 0.53249 0.14755 0.63971 0.0
H742 H 0.55477 0.22239 0.45773 0.0
H743 H 0.61716 0.13093 0.50227 0.0
C744 C 0.67302 0.17324 0.44652 0.0
C745 C 0.69558 0.215 0.41659 0.0
C746 C 0.54989 0.20574 0.4975 0.0
C747 C 0.61623 0.19329 0.47837 0.0
C748 C 0.51742 0.20537 0.53358 0.0
C749 C 0.51109 0.18568 0.58637 0.0
C750 C 0.57663 0.18606 0.51354 0.0
C751 C 0.53656 0.16371 0.59988 0.0
C752 C 0.63348 0.16245 0.47795 0.0
C753 C 0.67657 0.24416 0.41731 0.0
N754 N 0.56876 0.16495 0.56387 0.0
N755 N 0.63802 0.23269 0.44743 0.0
H756 H 0.27311 0.50418 0.85335 0.0
H757 H 0.53654 0.68667 0.77961 0.0
H758 H 0.38367 0.53104 0.96716 0.0
H759 H 0.41747 0.69206 0.71961 0.0
H760 H 0.48433 0.61673 0.83349 0.0
H761 H 0.32919 0.55905 0.78952 0.0
C762 C 0.30922 0.52162 0.86537 0.0
C763 C 0.3232 0.51353 0.91693 0.0
C764 C 0.46977 0.63278 0.80757 0.0
C765 C 0.38852 0.57716 0.84235 0.0
C766 C 0.49939 0.67218 0.77627 0.0
C767 C 0.48103 0.69463 0.7446 0.0
C768 C 0.42168 0.61569 0.80627 0.0
C769 C 0.43285 0.67545 0.74306 0.0
C770 C 0.3414 0.55302 0.82838 0.0
C771 C 0.37108 0.53655 0.92842 0.0
N772 N 0.40496 0.6372 0.77334 0.0
N773 N 0.40213 0.56784 0.89163 0.0
H774 H 0.85451 0.38816 0.30961 0.0
H775 H 0.73132 0.41798 0.04867 0.0
H776 H 0.78543 0.28175 0.18647 0.0
H777 H 0.84921 0.53803 0.11884 0.0
H778 H 0.75154 0.36799 0.10103 0.0
H779 H 0.85515 0.44535 0.24388 0.0
C780 C 0.84008 0.37689 0.2688 0.0
C781 C 0.8186 0.32973 0.25423 0.0
C782 C 0.77375 0.40527 0.10431 0.0
C783 C 0.81916 0.39448 0.17935 0.0
C784 C 0.76229 0.43373 0.07408 0.0
C785 C 0.78921 0.48203 0.07848 0.0
C786 C 0.81133 0.42508 0.14134 0.0
C787 C 0.8283 0.50085 0.11329 0.0
C788 C 0.84047 0.40948 0.23133 0.0
C789 C 0.8008 0.31721 0.20052 0.0
N790 N 0.83776 0.47229 0.14434 0.0
N791 N 0.80093 0.34906 0.16559 0.0
H792 H 0.31144 0.85071 0.44946 0.0
H793 H 0.50527 0.78427 0.51708 0.0
H794 H 0.3093 0.72739 0.3914 0.0
H795 H 0.46591 0.85165 0.63983 0.0
H796 H 0.44891 0.78447 0.45404 0.0
H797 H 0.38241 0.87104 0.5027 0.0
C798 C 0.32681 0.82884 0.44643 0.0
C799 C 0.30507 0.78765 0.4154 0.0
C800 C 0.45272 0.79951 0.49463 0.0
C801 C 0.38526 0.81033 0.47614 0.0
C802 C 0.48478 0.79918 0.53105 0.0
C803 C 0.48944 0.81657 0.58482 0.0
C804 C 0.42482 0.8176 0.51145 0.0
C805 C 0.46304 0.83726 0.59915 0.0
C806 C 0.3668 0.84011 0.47734 0.0
C807 C 0.32537 0.75965 0.41432 0.0
N808 N 0.43124 0.83667 0.56282 0.0
N809 N 0.36432 0.77156 0.44405 0.0
H810 H 0.61431 0.47179 0.97013 0.0
H811 H 0.58202 0.30925 0.71725 0.0
H812 H 0.72266 0.49679 0.85459 0.0
H813 H 0.46408 0.31298 0.78339 0.0
H814 H 0.63345 0.37951 0.76847 0.0
H815 H 0.55707 0.41474 0.905 0.0
C816 C 0.62613 0.46575 0.93124 0.0
C817 C 0.67374 0.48835 0.91885 0.0
C818 C 0.59637 0.36574 0.77117 0.0
C819 C 0.60877 0.42373 0.84433 0.0
C820 C 0.56709 0.32576 0.74159 0.0
C821 C 0.51897 0.30597 0.7453 0.0
C822 C 0.57749 0.38525 0.80679 0.0
C823 C 0.50115 0.32795 0.77854 0.0
C824 C 0.59346 0.43334 0.894 0.0
C825 C 0.6868 0.47948 0.86727 0.0
N826 N 0.53045 0.36609 0.80896 0.0
N827 N 0.65479 0.44776 0.83254 0.0
loop_
_geom_bond_atom_site_label_1
_geom_bond_atom_site_label_2
_geom_bond_distance
_geom_bond_site_symmetry_2
_ccdc_geom_bond_type
Gd0 N31 2.661 . S
Gd0 N37 2.601 . S
Gd0 O44 2.545 . S
Gd0 O45 2.606 . S
Gd0 O47 2.429 . S
Gd0 O48 2.545 . S
Gd0 O49 2.412 . S
Gd0 O51 2.362 1_554 S
Gd0 O52 2.324 . S
Gd0 C59 2.828 . S
Gd1 N10 2.661 . S
Gd1 N14 2.601 . S
Gd1 O45 2.362 1_556 S
Gd1 O46 2.324 . S
Gd1 O50 2.545 . S
Gd1 O51 2.606 . S
Gd1 O53 2.429 1_556 S
Gd1 O54 2.545 . S
Gd1 O55 2.412 . S
Gd1 C68 2.828 . S
C2 C5 1.417 . S
C2 C7 1.431 . S
C2 C8 1.412 . S
C3 C6 1.437 . S
C3 C7 1.317 . S
C3 H22 0.929 . S
C4 C5 1.426 . S
C4 C6 1.413 . S
C4 N14 1.359 . S
C5 C2 1.417 . S
C5 C4 1.426 . S
C5 N10 1.350 . S
C6 C3 1.437 . S
C6 C4 1.413 . S
C6 C16 1.391 . S
C7 C2 1.431 . S
C7 C3 1.317 . S
C7 H18 0.930 . S
C8 C2 1.412 . S
C8 C9 1.355 . S
C8 H20 0.930 . S
C9 C8 1.355 . S
C9 C11 1.402 . S
C9 H21 0.930 . S
N10 Gd1 2.661 . S
N10 C5 1.350 . S
N10 C11 1.307 . S
C11 C9 1.402 . S
C11 N10 1.307 . S
C11 H12 0.930 . S
H12 C11 0.930 . S
C13 N14 1.334 . S
C13 C15 1.394 . S
C13 H17 0.930 . S
N14 Gd1 2.601 . S
N14 C4 1.359 . S
N14 C13 1.334 . S
C15 C13 1.394 . S
C15 C16 1.359 . S
C15 H27 0.930 1_455 S
C16 C6 1.391 . S
C16 C15 1.359 . S
C16 H28 0.929 1_455 S
H17 C13 0.930 . S
H18 C7 0.930 . S
H19 C36 0.930 . S
H20 C8 0.930 . S
H21 C9 0.930 . S
H22 C3 0.929 . S
H23 C41 0.930 . S
H24 C32 0.930 . S
H25 C33 0.930 . S
H26 C57 0.929 . S
H27 C15 0.930 1_655 S
H28 C16 0.929 1_655 S
H29 C58 0.930 . S
H30 C39 0.930 . S
N31 Gd0 2.661 . S
N31 C35 1.350 . S
N31 C36 1.307 . S
C32 H24 0.930 . S
C32 C33 1.355 . S
C32 C34 1.412 . S
C33 H25 0.930 . S
C33 C32 1.355 . S
C33 C36 1.402 . S
C34 C32 1.412 . S
C34 C35 1.417 . S
C34 C58 1.431 . S
C35 N31 1.350 . S
C35 C34 1.417 . S
C35 C38 1.426 . S
C36 H19 0.930 . S
C36 N31 1.307 . S
C36 C33 1.402 . S
N37 Gd0 2.601 . S
N37 C38 1.359 . S
N37 C41 1.334 . S
C38 C35 1.426 . S
C38 N37 1.359 . S
C38 C42 1.413 . S
C39 H30 0.930 . S
C39 C40 1.359 . S
C39 C41 1.394 . S
C40 C39 1.359 . S
C40 C42 1.391 . S
C40 H43 0.929 . S
C41 H23 0.930 . S
C41 N37 1.334 . S
C41 C39 1.394 . S
C42 C38 1.413 . S
C42 C40 1.391 . S
C42 C57 1.437 . S
H43 C40 0.929 . S
O44 Gd0 2.545 . S
O44 C59 1.258 . S
O45 Gd0 2.606 . S
O45 Gd1 2.362 1_554 S
O45 C56 1.284 . S
O46 Gd1 2.324 . S
O46 C66 1.254 . S
O47 Gd0 2.429 . S
O47 C66 1.268 1_554 S
O48 Gd0 2.545 . S
O48 C56 1.250 . S
O49 Gd0 2.412 . S
O49 C59 1.252 . S
O50 Gd1 2.545 . S
O50 C68 1.258 . S
O51 Gd0 2.362 1_556 S
O51 Gd1 2.606 . S
O51 C67 1.284 . S
O52 Gd0 2.324 . S
O52 C75 1.254 . S
O53 Gd1 2.429 1_554 S
O53 C75 1.268 . S
O54 Gd1 2.545 . S
O54 C67 1.250 . S
O55 Gd1 2.412 . S
O55 C68 1.252 . S
C56 O45 1.284 . S
C56 O48 1.250 . S
C57 H26 0.929 . S
C57 C42 1.437 . S
C57 C58 1.317 . S
C58 H29 0.930 . S
C58 C34 1.431 . S
C58 C57 1.317 . S
C59 Gd0 2.828 . S
C59 O44 1.258 . S
C59 O49 1.252 . S
C59 C60 1.497 . S
C60 C59 1.497 . S
C60 C61 1.395 . S
C60 C62 1.380 . S
C61 C60 1.395 . S
C61 C64 1.398 . S
C61 H76 0.930 . S
C62 C60 1.380 . S
C62 C63 1.391 . S
C62 H77 0.930 . S
C63 C62 1.391 . S
C63 C65 1.387 . S
C64 C61 1.398 . S
C64 C65 1.380 . S
C64 H78 0.930 . S
C65 C63 1.387 . S
C65 C64 1.380 . S
C65 H79 0.930 . S
C66 O46 1.254 . S
C66 O47 1.268 1_556 S
C67 O51 1.284 . S
C67 O54 1.250 . S
C68 Gd1 2.828 . S
C68 O50 1.258 . S
C68 O55 1.252 . S
C68 C69 1.497 . S
C69 C68 1.497 . S
C69 C70 1.395 . S
C69 C71 1.380 . S
C70 C69 1.395 . S
C70 C73 1.398 . S
C70 H80 0.930 . S
C71 C69 1.380 . S
C71 C72 1.391 . S
C71 H81 0.930 . S
C72 C71 1.391 . S
C72 C74 1.387 . S
C73 C70 1.398 . S
C73 C74 1.380 . S
C73 H82 0.930 . S
C74 C72 1.387 . S
C74 C73 1.380 . S
C74 H83 0.930 . S
C75 O52 1.254 . S
C75 O53 1.268 . S
H76 C61 0.930 . S
H77 C62 0.930 . S
H78 C64 0.930 . S
H79 C65 0.930 . S
H80 C70 0.930 . S
H81 C71 0.930 . S
H82 C73 0.930 . S
H83 C74 0.930 . S
Gd84 N115 2.661 . S
Gd84 N121 2.601 . S
Gd84 O128 2.545 . S
Gd84 O129 2.606 . S
Gd84 O131 2.429 . S
Gd84 O132 2.545 . S
Gd84 O133 2.412 . S
Gd84 O135 2.362 . S
Gd84 O136 2.324 . S
Gd84 C143 2.828 . S
Gd85 N94 2.661 . S
Gd85 N98 2.601 . S
Gd85 O129 2.362 . S
Gd85 O130 2.324 . S
Gd85 O134 2.545 . S
Gd85 O135 2.606 . S
Gd85 O137 2.429 . S
Gd85 O138 2.545 . S
Gd85 O139 2.412 . S
Gd85 C152 2.828 . S
C86 C89 1.417 . S
C86 C91 1.431 . S
C86 C92 1.412 . S
C87 C90 1.437 . S
C87 C91 1.317 . S
C87 H106 0.929 . S
C88 C89 1.426 . S
C88 C90 1.413 . S
C88 N98 1.359 . S
C89 C86 1.417 . S
C89 C88 1.426 . S
C89 N94 1.350 . S
C90 C87 1.437 . S
C90 C88 1.413 . S
C90 C100 1.391 . S
C91 C86 1.431 . S
C91 C87 1.317 . S
C91 H102 0.930 . S
C92 C86 1.412 . S
C92 C93 1.355 . S
C92 H104 0.930 . S
C93 C92 1.355 . S
C93 C95 1.402 . S
C93 H105 0.930 . S
N94 Gd85 2.661 . S
N94 C89 1.350 . S
N94 C95 1.307 . S
C95 C93 1.402 . S
C95 N94 1.307 . S
C95 H96 0.930 . S
H96 C95 0.930 . S
C97 N98 1.334 . S
C97 C99 1.394 . S
C97 H101 0.930 . S
N98 Gd85 2.601 . S
N98 C88 1.359 . S
N98 C97 1.334 . S
C99 C97 1.394 . S
C99 C100 1.359 . S
C99 H111 0.930 1_545 S
C100 C90 1.391 . S
C100 C99 1.359 . S
C100 H112 0.929 1_545 S
H101 C97 0.930 . S
H102 C91 0.930 . S
H103 C120 0.930 . S
H104 C92 0.930 . S
H105 C93 0.930 . S
H106 C87 0.929 . S
H107 C125 0.930 . S
H108 C116 0.930 1_455 S
H109 C117 0.930 . S
H110 C141 0.929 . S
H111 C99 0.930 1_565 S
H112 C100 0.929 1_565 S
H113 C142 0.930 . S
H114 C123 0.930 . S
N115 Gd84 2.661 . S
N115 C119 1.350 . S
N115 C120 1.307 . S
C116 H108 0.930 1_655 S
C116 C117 1.355 . S
C116 C118 1.412 . S
C117 H109 0.930 . S
C117 C116 1.355 . S
C117 C120 1.402 . S
C118 C116 1.412 . S
C118 C119 1.417 . S
C118 C142 1.431 1_655 S
C119 N115 1.350 . S
C119 C118 1.417 . S
C119 C122 1.426 . S
C120 H103 0.930 . S
C120 N115 1.307 . S
C120 C117 1.402 . S
N121 Gd84 2.601 . S
N121 C122 1.359 . S
N121 C125 1.334 . S
C122 C119 1.426 . S
C122 N121 1.359 . S
C122 C126 1.413 . S
C123 H114 0.930 . S
C123 C124 1.359 . S
C123 C125 1.394 . S
C124 C123 1.359 . S
C124 C126 1.391 . S
C124 H127 0.929 1_655 S
C125 H107 0.930 . S
C125 N121 1.334 . S
C125 C123 1.394 . S
C126 C122 1.413 . S
C126 C124 1.391 . S
C126 C141 1.437 1_655 S
H127 C124 0.929 1_455 S
O128 Gd84 2.545 . S
O128 C143 1.258 . S
O129 Gd84 2.606 . S
O129 Gd85 2.362 . S
O129 C140 1.284 . S
O130 Gd85 2.324 . S
O130 C150 1.254 . S
O131 Gd84 2.429 . S
O131 C150 1.268 . S
O132 Gd84 2.545 . S
O132 C140 1.250 . S
O133 Gd84 2.412 . S
O133 C143 1.252 . S
O134 Gd85 2.545 . S
O134 C152 1.258 . S
O135 Gd84 2.362 . S
O135 Gd85 2.606 . S
O135 C151 1.284 . S
O136 Gd84 2.324 . S
O136 C159 1.254 . S
O137 Gd85 2.429 . S
O137 C159 1.268 . S
O138 Gd85 2.545 . S
O138 C151 1.250 . S
O139 Gd85 2.412 . S
O139 C152 1.252 . S
C140 O129 1.284 . S
C140 O132 1.250 . S
C141 H110 0.929 . S
C141 C126 1.437 1_455 S
C141 C142 1.317 . S
C142 H113 0.930 . S
C142 C118 1.431 1_455 S
C142 C141 1.317 . S
C143 Gd84 2.828 . S
C143 O128 1.258 . S
C143 O133 1.252 . S
C143 C144 1.497 . S
C144 C143 1.497 . S
C144 C145 1.395 . S
C144 C146 1.380 . S
C145 C144 1.395 . S
C145 C148 1.398 . S
C145 H160 0.930 . S
C146 C144 1.380 . S
C146 C147 1.391 . S
C146 H161 0.930 . S
C147 C146 1.391 . S
C147 C149 1.387 . S
C148 C145 1.398 . S
C148 C149 1.380 . S
C148 H162 0.930 . S
C149 C147 1.387 . S
C149 C148 1.380 . S
C149 H163 0.930 . S
C150 O130 1.254 . S
C150 O131 1.268 . S
C151 O135 1.284 . S
C151 O138 1.250 . S
C152 Gd85 2.828 . S
C152 O134 1.258 . S
C152 O139 1.252 . S
C152 C153 1.497 . S
C153 C152 1.497 . S
C153 C154 1.395 . S
C153 C155 1.380 . S
C154 C153 1.395 . S
C154 C157 1.398 . S
C154 H164 0.930 . S
C155 C153 1.380 . S
C155 C156 1.391 . S
C155 H165 0.930 . S
C156 C155 1.391 . S
C156 C158 1.384 1_554 S
C157 C154 1.398 . S
C157 C158 1.374 1_554 S
C157 H166 0.930 . S
C158 C156 1.384 1_556 S
C158 C157 1.374 1_556 S
C158 H167 0.941 . S
C159 O136 1.254 . S
C159 O137 1.268 . S
H160 C145 0.930 . S
H161 C146 0.930 . S
H162 C148 0.930 . S
H163 C149 0.930 . S
H164 C154 0.930 . S
H165 C155 0.930 . S
H166 C157 0.930 . S
H167 C158 0.941 . S
Gd168 N199 2.661 . S
Gd168 N205 2.601 . S
Gd168 O212 2.545 . S
Gd168 O213 2.606 . S
Gd168 O215 2.429 . S
Gd168 O216 2.545 . S
Gd168 O217 2.412 . S
Gd168 O219 2.362 . S
Gd168 O220 2.324 . S
Gd168 C227 2.828 . S
Gd169 N178 2.661 . S
Gd169 N182 2.601 . S
Gd169 O213 2.362 . S
Gd169 O214 2.324 . S
Gd169 O218 2.545 . S
Gd169 O219 2.606 . S
Gd169 O221 2.429 . S
Gd169 O222 2.545 . S
Gd169 O223 2.412 . S
Gd169 C236 2.828 . S
C170 C173 1.417 . S
C170 C175 1.431 . S
C170 C176 1.412 . S
C171 C174 1.437 . S
C171 C175 1.317 . S
C171 H190 0.929 . S
C172 C173 1.426 . S
C172 C174 1.413 . S
C172 N182 1.359 . S
C173 C170 1.417 . S
C173 C172 1.426 . S
C173 N178 1.350 . S
C174 C171 1.437 . S
C174 C172 1.413 . S
C174 C184 1.391 . S
C175 C170 1.431 . S
C175 C171 1.317 . S
C175 H186 0.930 . S
C176 C170 1.412 . S
C176 C177 1.355 . S
C176 H188 0.930 . S
C177 C176 1.355 . S
C177 C179 1.402 . S
C177 H189 0.930 . S
N178 Gd169 2.661 . S
N178 C173 1.350 . S
N178 C179 1.307 . S
C179 C177 1.402 . S
C179 N178 1.307 . S
C179 H180 0.930 . S
H180 C179 0.930 . S
C181 N182 1.334 . S
C181 C183 1.394 . S
C181 H185 0.930 . S
N182 Gd169 2.601 . S
N182 C172 1.359 . S
N182 C181 1.334 . S
C183 C181 1.394 . S
C183 C184 1.359 . S
C183 H195 0.930 . S
C184 C174 1.391 . S
C184 C183 1.359 . S
C184 H196 0.929 . S
H185 C181 0.930 . S
H186 C175 0.930 . S
H187 C204 0.930 . S
H188 C176 0.930 . S
H189 C177 0.930 . S
H190 C171 0.929 . S
H191 C209 0.930 . S
H192 C200 0.930 1_545 S
H193 C201 0.930 . S
H194 C225 0.929 . S
H195 C183 0.930 . S
H196 C184 0.929 . S
H197 C226 0.930 . S
H198 C207 0.930 . S
N199 Gd168 2.661 . S
N199 C203 1.350 . S
N199 C204 1.307 . S
C200 H192 0.930 1_565 S
C200 C201 1.355 . S
C200 C202 1.412 . S
C201 H193 0.930 . S
C201 C200 1.355 . S
C201 C204 1.402 . S
C202 C200 1.412 . S
C202 C203 1.417 . S
C202 C226 1.431 1_565 S
C203 N199 1.350 . S
C203 C202 1.417 . S
C203 C206 1.426 . S
C204 H187 0.930 . S
C204 N199 1.307 . S
C204 C201 1.402 . S
N205 Gd168 2.601 . S
N205 C206 1.359 . S
N205 C209 1.334 . S
C206 C203 1.426 . S
C206 N205 1.359 . S
C206 C210 1.413 . S
C207 H198 0.930 . S
C207 C208 1.359 . S
C207 C209 1.394 . S
C208 C207 1.359 . S
C208 C210 1.391 . S
C208 H211 0.929 1_565 S
C209 H191 0.930 . S
C209 N205 1.334 . S
C209 C207 1.394 . S
C210 C206 1.413 . S
C210 C208 1.391 . S
C210 C225 1.437 1_565 S
H211 C208 0.929 1_545 S
O212 Gd168 2.545 . S
O212 C227 1.258 . S
O213 Gd168 2.606 . S
O213 Gd169 2.362 . S
O213 C224 1.284 . S
O214 Gd169 2.324 . S
O214 C234 1.254 . S
O215 Gd168 2.429 . S
O215 C234 1.268 . S
O216 Gd168 2.545 . S
O216 C224 1.250 . S
O217 Gd168 2.412 . S
O217 C227 1.252 . S
O218 Gd169 2.545 . S
O218 C236 1.258 . S
O219 Gd168 2.362 . S
O219 Gd169 2.606 . S
O219 C235 1.284 . S
O220 Gd168 2.324 . S
O220 C243 1.254 . S
O221 Gd169 2.429 . S
O221 C243 1.268 . S
O222 Gd169 2.545 . S
O222 C235 1.250 . S
O223 Gd169 2.412 . S
O223 C236 1.252 . S
C224 O213 1.284 . S
C224 O216 1.250 . S
C225 H194 0.929 . S
C225 C210 1.437 1_545 S
C225 C226 1.317 . S
C226 H197 0.930 . S
C226 C202 1.431 1_545 S
C226 C225 1.317 . S
C227 Gd168 2.828 . S
C227 O212 1.258 . S
C227 O217 1.252 . S
C227 C228 1.497 . S
C228 C227 1.497 . S
C228 C229 1.395 . S
C228 C230 1.380 . S
C229 C228 1.395 . S
C229 C232 1.398 . S
C229 H244 0.930 . S
C230 C228 1.380 . S
C230 C231 1.391 . S
C230 H245 0.930 . S
C231 C230 1.391 . S
C231 C233 1.387 1_556 S
C232 C229 1.398 . S
C232 C233 1.380 1_556 S
C232 H246 0.930 . S
C233 C231 1.387 1_554 S
C233 C232 1.380 1_554 S
C233 H247 0.930 . S
C234 O214 1.254 . S
C234 O215 1.268 . S
C235 O219 1.284 . S
C235 O222 1.250 . S
C236 Gd169 2.828 . S
C236 O218 1.258 . S
C236 O223 1.252 . S
C236 C237 1.497 . S
C237 C236 1.497 . S
C237 C238 1.395 . S
C237 C239 1.380 . S
C238 C237 1.395 . S
C238 C241 1.398 . S
C238 H248 0.930 . S
C239 C237 1.380 . S
C239 C240 1.391 . S
C239 H249 0.930 . S
C240 C239 1.391 . S
C240 C242 1.387 . S
C241 C238 1.398 . S
C241 C242 1.380 . S
C241 H250 0.930 . S
C242 C240 1.387 . S
C242 C241 1.380 . S
C242 H251 0.930 . S
C243 O220 1.254 . S
C243 O221 1.268 . S
H244 C229 0.930 . S
H245 C230 0.930 . S
H246 C232 0.930 . S
H247 C233 0.930 . S
H248 C238 0.930 . S
H249 C239 0.930 . S
H250 C241 0.930 . S
H251 C242 0.930 . S
Gd252 N283 2.661 . S
Gd252 N289 2.601 . S
Gd252 O296 2.545 . S
Gd252 O297 2.606 . S
Gd252 O299 2.429 . S
Gd252 O300 2.545 . S
Gd252 O301 2.412 . S
Gd252 O303 2.362 1_554 S
Gd252 O304 2.324 . S
Gd252 C311 2.828 . S
Gd253 N262 2.661 . S
Gd253 N266 2.601 . S
Gd253 O297 2.362 1_556 S
Gd253 O298 2.324 . S
Gd253 O302 2.545 . S
Gd253 O303 2.606 . S
Gd253 O305 2.429 1_556 S
Gd253 O306 2.545 . S
Gd253 O307 2.412 . S
Gd253 C320 2.828 . S
C254 C257 1.417 . S
C254 C259 1.431 . S
C254 C260 1.412 . S
C255 C258 1.437 . S
C255 C259 1.317 . S
C255 H274 0.929 . S
C256 C257 1.426 . S
C256 C258 1.413 . S
C256 N266 1.359 . S
C257 C254 1.417 . S
C257 C256 1.426 . S
C257 N262 1.350 . S
C258 C255 1.437 . S
C258 C256 1.413 . S
C258 C268 1.391 . S
C259 C254 1.431 . S
C259 C255 1.317 . S
C259 H270 0.930 . S
C260 C254 1.412 . S
C260 C261 1.355 . S
C260 H272 0.930 . S
C261 C260 1.355 . S
C261 C263 1.402 . S
C261 H273 0.930 . S
N262 Gd253 2.661 . S
N262 C257 1.350 . S
N262 C263 1.307 . S
C263 C261 1.402 . S
C263 N262 1.307 . S
C263 H264 0.930 . S
H264 C263 0.930 . S
C265 N266 1.334 . S
C265 C267 1.394 . S
C265 H269 0.930 . S
N266 Gd253 2.601 . S
N266 C256 1.359 . S
N266 C265 1.334 . S
C267 C265 1.394 . S
C267 C268 1.359 . S
C267 H279 0.930 1_655 S
C268 C258 1.391 . S
C268 C267 1.359 . S
C268 H280 0.929 1_655 S
H269 C265 0.930 . S
H270 C259 0.930 . S
H271 C288 0.930 . S
H272 C260 0.930 . S
H273 C261 0.930 . S
H274 C255 0.929 . S
H275 C293 0.930 . S
H276 C284 0.930 . S
H277 C285 0.930 . S
H278 C309 0.929 . S
H279 C267 0.930 1_455 S
H280 C268 0.929 1_455 S
H281 C310 0.930 . S
H282 C291 0.930 . S
N283 Gd252 2.661 . S
N283 C287 1.350 . S
N283 C288 1.307 . S
C284 H276 0.930 . S
C284 C285 1.355 . S
C284 C286 1.412 . S
C285 H277 0.930 . S
C285 C284 1.355 . S
C285 C288 1.402 . S
C286 C284 1.412 . S
C286 C287 1.417 . S
C286 C310 1.431 . S
C287 N283 1.350 . S
C287 C286 1.417 . S
C287 C290 1.426 . S
C288 H271 0.930 . S
C288 N283 1.307 . S
C288 C285 1.402 . S
N289 Gd252 2.601 . S
N289 C290 1.359 . S
N289 C293 1.334 . S
C290 C287 1.426 . S
C290 N289 1.359 . S
C290 C294 1.413 . S
C291 H282 0.930 . S
C291 C292 1.359 . S
C291 C293 1.394 . S
C292 C291 1.359 . S
C292 C294 1.391 . S
C292 H295 0.929 . S
C293 H275 0.930 . S
C293 N289 1.334 . S
C293 C291 1.394 . S
C294 C290 1.413 . S
C294 C292 1.391 . S
C294 C309 1.437 . S
H295 C292 0.929 . S
O296 Gd252 2.545 . S
O296 C311 1.258 . S
O297 Gd252 2.606 . S
O297 Gd253 2.362 1_554 S
O297 C308 1.284 . S
O298 Gd253 2.324 . S
O298 C318 1.254 . S
O299 Gd252 2.429 . S
O299 C318 1.268 1_554 S
O300 Gd252 2.545 . S
O300 C308 1.250 . S
O301 Gd252 2.412 . S
O301 C311 1.252 . S
O302 Gd253 2.545 . S
O302 C320 1.258 . S
O303 Gd252 2.362 1_556 S
O303 Gd253 2.606 . S
O303 C319 1.284 . S
O304 Gd252 2.324 . S
O304 C327 1.254 . S
O305 Gd253 2.429 1_554 S
O305 C327 1.268 . S
O306 Gd253 2.545 . S
O306 C319 1.250 . S
O307 Gd253 2.412 . S
O307 C320 1.252 . S
C308 O297 1.284 . S
C308 O300 1.250 . S
C309 H278 0.929 . S
C309 C294 1.437 . S
C309 C310 1.317 . S
C310 H281 0.930 . S
C310 C286 1.431 . S
C310 C309 1.317 . S
C311 Gd252 2.828 . S
C311 O296 1.258 . S
C311 O301 1.252 . S
C311 C312 1.497 . S
C312 C311 1.497 . S
C312 C313 1.395 . S
C312 C314 1.380 . S
C313 C312 1.395 . S
C313 C316 1.398 . S
C313 H328 0.930 . S
C314 C312 1.380 . S
C314 C315 1.391 . S
C314 H329 0.930 . S
C315 C314 1.391 . S
C315 C317 1.387 . S
C316 C313 1.398 . S
C316 C317 1.380 . S
C316 H330 0.930 . S
C317 C315 1.387 . S
C317 C316 1.380 . S
C317 H331 0.930 . S
C318 O298 1.254 . S
C318 O299 1.268 1_556 S
C319 O303 1.284 . S
C319 O306 1.250 . S
C320 Gd253 2.828 . S
C320 O302 1.258 . S
C320 O307 1.252 . S
C320 C321 1.497 . S
C321 C320 1.497 . S
C321 C322 1.395 . S
C321 C323 1.380 . S
C322 C321 1.395 . S
C322 C325 1.398 . S
C322 H332 0.930 . S
C323 C321 1.380 . S
C323 C324 1.391 . S
C323 H333 0.930 . S
C324 C323 1.391 . S
C324 C326 1.387 . S
C325 C322 1.398 . S
C325 C326 1.380 . S
C325 H334 0.930 . S
C326 C324 1.387 . S
C326 C325 1.380 . S
C326 H335 0.930 . S
C327 O304 1.254 . S
C327 O305 1.268 . S
H328 C313 0.930 . S
H329 C314 0.930 . S
H330 C316 0.930 . S
H331 C317 0.930 . S
H332 C322 0.930 . S
H333 C323 0.930 . S
H334 C325 0.930 . S
H335 C326 0.930 . S
Gd336 N367 2.661 . S
Gd336 N373 2.601 . S
Gd336 O380 2.545 . S
Gd336 O381 2.606 . S
Gd336 O383 2.429 . S
Gd336 O384 2.545 . S
Gd336 O385 2.412 . S
Gd336 O387 2.362 . S
Gd336 O388 2.324 . S
Gd336 C395 2.828 . S
Gd337 N346 2.661 . S
Gd337 N350 2.601 . S
Gd337 O381 2.362 . S
Gd337 O382 2.324 . S
Gd337 O386 2.545 . S
Gd337 O387 2.606 . S
Gd337 O389 2.429 . S
Gd337 O390 2.545 . S
Gd337 O391 2.412 . S
Gd337 C404 2.828 . S
C338 C341 1.417 . S
C338 C343 1.431 . S
C338 C344 1.412 . S
C339 C342 1.437 . S
C339 C343 1.317 . S
C339 H358 0.929 . S
C340 C341 1.426 . S
C340 C342 1.413 . S
C340 N350 1.359 . S
C341 C338 1.417 . S
C341 C340 1.426 . S
C341 N346 1.350 . S
C342 C339 1.437 . S
C342 C340 1.413 . S
C342 C352 1.391 . S
C343 C338 1.431 . S
C343 C339 1.317 . S
C343 H354 0.930 . S
C344 C338 1.412 . S
C344 C345 1.355 . S
C344 H356 0.930 . S
C345 C344 1.355 . S
C345 C347 1.402 . S
C345 H357 0.930 . S
N346 Gd337 2.661 . S
N346 C341 1.350 . S
N346 C347 1.307 . S
C347 C345 1.402 . S
C347 N346 1.307 . S
C347 H348 0.930 . S
H348 C347 0.930 . S
C349 N350 1.334 . S
C349 C351 1.394 . S
C349 H353 0.930 . S
N350 Gd337 2.601 . S
N350 C340 1.359 . S
N350 C349 1.334 . S
C351 C349 1.394 . S
C351 C352 1.359 . S
C351 H363 0.930 1_565 S
C352 C342 1.391 . S
C352 C351 1.359 . S
C352 H364 0.929 1_565 S
H353 C349 0.930 . S
H354 C343 0.930 . S
H355 C372 0.930 . S
H356 C344 0.930 . S
H357 C345 0.930 . S
H358 C339 0.929 . S
H359 C377 0.930 . S
H360 C368 0.930 1_655 S
H361 C369 0.930 . S
H362 C393 0.929 . S
H363 C351 0.930 1_545 S
H364 C352 0.929 1_545 S
H365 C394 0.930 . S
H366 C375 0.930 . S
N367 Gd336 2.661 . S
N367 C371 1.350 . S
N367 C372 1.307 . S
C368 H360 0.930 1_455 S
C368 C369 1.355 . S
C368 C370 1.412 . S
C369 H361 0.930 . S
C369 C368 1.355 . S
C369 C372 1.402 . S
C370 C368 1.412 . S
C370 C371 1.417 . S
C370 C394 1.431 1_455 S
C371 N367 1.350 . S
C371 C370 1.417 . S
C371 C374 1.426 . S
C372 H355 0.930 . S
C372 N367 1.307 . S
C372 C369 1.402 . S
N373 Gd336 2.601 . S
N373 C374 1.359 . S
N373 C377 1.334 . S
C374 C371 1.426 . S
C374 N373 1.359 . S
C374 C378 1.413 . S
C375 H366 0.930 . S
C375 C376 1.359 . S
C375 C377 1.394 . S
C376 C375 1.359 . S
C376 C378 1.391 . S
C376 H379 0.929 1_455 S
C377 H359 0.930 . S
C377 N373 1.334 . S
C377 C375 1.394 . S
C378 C374 1.413 . S
C378 C376 1.391 . S
C378 C393 1.437 1_455 S
H379 C376 0.929 1_655 S
O380 Gd336 2.545 . S
O380 C395 1.258 . S
O381 Gd336 2.606 . S
O381 Gd337 2.362 . S
O381 C392 1.284 . S
O382 Gd337 2.324 . S
O382 C402 1.254 . S
O383 Gd336 2.429 . S
O383 C402 1.268 . S
O384 Gd336 2.545 . S
O384 C392 1.250 . S
O385 Gd336 2.412 . S
O385 C395 1.252 . S
O386 Gd337 2.545 . S
O386 C404 1.258 . S
O387 Gd336 2.362 . S
O387 Gd337 2.606 . S
O387 C403 1.284 . S
O388 Gd336 2.324 . S
O388 C411 1.254 . S
O389 Gd337 2.429 . S
O389 C411 1.268 . S
O390 Gd337 2.545 . S
O390 C403 1.250 . S
O391 Gd337 2.412 . S
O391 C404 1.252 . S
C392 O381 1.284 . S
C392 O384 1.250 . S
C393 H362 0.929 . S
C393 C378 1.437 1_655 S
C393 C394 1.317 . S
C394 H365 0.930 . S
C394 C370 1.431 1_655 S
C394 C393 1.317 . S
C395 Gd336 2.828 . S
C395 O380 1.258 . S
C395 O385 1.252 . S
C395 C396 1.497 . S
C396 C395 1.497 . S
C396 C397 1.395 . S
C396 C398 1.380 . S
C397 C396 1.395 . S
C397 C400 1.398 . S
C397 H412 0.930 . S
C398 C396 1.380 . S
C398 C399 1.391 . S
C398 H413 0.930 . S
C399 C398 1.391 . S
C399 C401 1.387 . S
C400 C397 1.398 . S
C400 C401 1.380 . S
C400 H414 0.930 . S
C401 C399 1.387 . S
C401 C400 1.380 . S
C401 H415 0.930 . S
C402 O382 1.254 . S
C402 O383 1.268 . S
C403 O387 1.284 . S
C403 O390 1.250 . S
C404 Gd337 2.828 . S
C404 O386 1.258 . S
C404 O391 1.252 . S
C404 C405 1.497 . S
C405 C404 1.497 . S
C405 C406 1.395 . S
C405 C407 1.380 . S
C406 C405 1.395 . S
C406 C409 1.398 . S
C406 H416 0.930 . S
C407 C405 1.380 . S
C407 C408 1.391 . S
C407 H417 0.930 . S
C408 C407 1.391 . S
C408 C410 1.384 1_554 S
C409 C406 1.398 . S
C409 C410 1.374 1_554 S
C409 H418 0.930 . S
C410 C408 1.384 1_556 S
C410 C409 1.374 1_556 S
C410 H419 0.941 . S
C411 O388 1.254 . S
C411 O389 1.268 . S
H412 C397 0.930 . S
H413 C398 0.930 . S
H414 C400 0.930 . S
H415 C401 0.930 . S
H416 C406 0.930 . S
H417 C407 0.930 . S
H418 C409 0.930 . S
H419 C410 0.941 . S
Gd420 N451 2.661 . S
Gd420 N457 2.601 . S
Gd420 O464 2.545 . S
Gd420 O465 2.606 . S
Gd420 O467 2.429 . S
Gd420 O468 2.545 . S
Gd420 O469 2.412 . S
Gd420 O471 2.362 . S
Gd420 O472 2.324 . S
Gd420 C479 2.828 . S
Gd421 N430 2.661 . S
Gd421 N434 2.601 . S
Gd421 O465 2.362 . S
Gd421 O466 2.324 . S
Gd421 O470 2.545 . S
Gd421 O471 2.606 . S
Gd421 O473 2.429 . S
Gd421 O474 2.545 . S
Gd421 O475 2.412 . S
Gd421 C488 2.828 . S
C422 C425 1.417 . S
C422 C427 1.431 . S
C422 C428 1.412 . S
C423 C426 1.437 . S
C423 C427 1.317 . S
C423 H442 0.929 . S
C424 C425 1.426 . S
C424 C426 1.413 . S
C424 N434 1.359 . S
C425 C422 1.417 . S
C425 C424 1.426 . S
C425 N430 1.350 . S
C426 C423 1.437 . S
C426 C424 1.413 . S
C426 C436 1.391 . S
C427 C422 1.431 . S
C427 C423 1.317 . S
C427 H438 0.930 . S
C428 C422 1.412 . S
C428 C429 1.355 . S
C428 H440 0.930 . S
C429 C428 1.355 . S
C429 C431 1.402 . S
C429 H441 0.930 . S
N430 Gd421 2.661 . S
N430 C425 1.350 . S
N430 C431 1.307 . S
C431 C429 1.402 . S
C431 N430 1.307 . S
C431 H432 0.930 . S
H432 C431 0.930 . S
C433 N434 1.334 . S
C433 C435 1.394 . S
C433 H437 0.930 . S
N434 Gd421 2.601 . S
N434 C424 1.359 . S
N434 C433 1.334 . S
C435 C433 1.394 . S
C435 C436 1.359 . S
C435 H447 0.930 . S
C436 C426 1.391 . S
C436 C435 1.359 . S
C436 H448 0.929 . S
H437 C433 0.930 . S
H438 C427 0.930 . S
H439 C456 0.930 . S
H440 C428 0.930 . S
H441 C429 0.930 . S
H442 C423 0.929 . S
H443 C461 0.930 . S
H444 C452 0.930 1_565 S
H445 C453 0.930 . S
H446 C477 0.929 . S
H447 C435 0.930 . S
H448 C436 0.929 . S
H449 C478 0.930 . S
H450 C459 0.930 . S
N451 Gd420 2.661 . S
N451 C455 1.350 . S
N451 C456 1.307 . S
C452 H444 0.930 1_545 S
C452 C453 1.355 . S
C452 C454 1.412 . S
C453 H445 0.930 . S
C453 C452 1.355 . S
C453 C456 1.402 . S
C454 C452 1.412 . S
C454 C455 1.417 . S
C454 C478 1.431 1_545 S
C455 N451 1.350 . S
C455 C454 1.417 . S
C455 C458 1.426 . S
C456 H439 0.930 . S
C456 N451 1.307 . S
C456 C453 1.402 . S
N457 Gd420 2.601 . S
N457 C458 1.359 . S
N457 C461 1.334 . S
C458 C455 1.426 . S
C458 N457 1.359 . S
C458 C462 1.413 . S
C459 H450 0.930 . S
C459 C460 1.359 . S
C459 C461 1.394 . S
C460 C459 1.359 . S
C460 C462 1.391 . S
C460 H463 0.929 1_545 S
C461 H443 0.930 . S
C461 N457 1.334 . S
C461 C459 1.394 . S
C462 C458 1.413 . S
C462 C460 1.391 . S
C462 C477 1.437 1_545 S
H463 C460 0.929 1_565 S
O464 Gd420 2.545 . S
O464 C479 1.258 . S
O465 Gd420 2.606 . S
O465 Gd421 2.362 . S
O465 C476 1.284 . S
O466 Gd421 2.324 . S
O466 C486 1.254 . S
O467 Gd420 2.429 . S
O467 C486 1.268 . S
O468 Gd420 2.545 . S
O468 C476 1.250 . S
O469 Gd420 2.412 . S
O469 C479 1.252 . S
O470 Gd421 2.545 . S
O470 C488 1.258 . S
O471 Gd420 2.362 . S
O471 Gd421 2.606 . S
O471 C487 1.284 . S
O472 Gd420 2.324 . S
O472 C495 1.254 . S
O473 Gd421 2.429 . S
O473 C495 1.268 . S
O474 Gd421 2.545 . S
O474 C487 1.250 . S
O475 Gd421 2.412 . S
O475 C488 1.252 . S
C476 O465 1.284 . S
C476 O468 1.250 . S
C477 H446 0.929 . S
C477 C462 1.437 1_565 S
C477 C478 1.317 . S
C478 H449 0.930 . S
C478 C454 1.431 1_565 S
C478 C477 1.317 . S
C479 Gd420 2.828 . S
C479 O464 1.258 . S
C479 O469 1.252 . S
C479 C480 1.497 . S
C480 C479 1.497 . S
C480 C481 1.395 . S
C480 C482 1.380 . S
C481 C480 1.395 . S
C481 C484 1.398 . S
C481 H496 0.930 . S
C482 C480 1.380 . S
C482 C483 1.391 . S
C482 H497 0.930 . S
C483 C482 1.391 . S
C483 C485 1.387 1_556 S
C484 C481 1.398 . S
C484 C485 1.380 1_556 S
C484 H498 0.930 . S
C485 C483 1.387 1_554 S
C485 C484 1.380 1_554 S
C485 H499 0.930 . S
C486 O466 1.254 . S
C486 O467 1.268 . S
C487 O471 1.284 . S
C487 O474 1.250 . S
C488 Gd421 2.828 . S
C488 O470 1.258 . S
C488 O475 1.252 . S
C488 C489 1.497 . S
C489 C488 1.497 . S
C489 C490 1.395 . S
C489 C491 1.380 . S
C490 C489 1.395 . S
C490 C493 1.398 . S
C490 H500 0.930 . S
C491 C489 1.380 . S
C491 C492 1.391 . S
C491 H501 0.930 . S
C492 C491 1.391 . S
C492 C494 1.387 . S
C493 C490 1.398 . S
C493 C494 1.380 . S
C493 H502 0.930 . S
C494 C492 1.387 . S
C494 C493 1.380 . S
C494 H503 0.930 . S
C495 O472 1.254 . S
C495 O473 1.268 . S
H496 C481 0.930 . S
H497 C482 0.930 . S
H498 C484 0.930 . S
H499 C485 0.930 . S
H500 C490 0.930 . S
H501 C491 0.930 . S
H502 C493 0.930 . S
H503 C494 0.930 . S
H504 C510 0.930 . S
H505 C514 0.930 . S
H506 C519 0.929 . S
H507 C517 0.929 . S
H508 C512 0.929 . S
H509 C518 0.929 . S
C510 H504 0.930 . S
C510 C511 1.367 . S
C510 C518 1.378 . S
C511 C510 1.367 . S
C511 C519 1.433 . S
C512 H508 0.929 . S
C512 C514 1.378 . S
C512 C516 1.350 . S
C513 C516 1.463 . S
C513 C518 1.350 . S
C513 N521 1.427 . S
C514 H505 0.930 . S
C514 C512 1.378 . S
C514 C515 1.367 . S
C515 C514 1.367 . S
C515 C517 1.433 . S
C516 C512 1.350 . S
C516 C513 1.463 . S
C516 N520 1.427 . S
C517 H507 0.929 . S
C517 C515 1.433 . S
C517 N520 1.384 . S
C518 H509 0.929 . S
C518 C510 1.378 . S
C518 C513 1.350 . S
C519 H506 0.929 . S
C519 C511 1.433 . S
C519 N521 1.384 . S
N520 C516 1.427 . S
N520 C517 1.384 . S
N521 C513 1.427 . S
N521 C519 1.384 . S
H522 C528 0.930 . S
H523 C532 0.930 . S
H524 C537 0.929 . S
H525 C535 0.929 . S
H526 C530 0.929 . S
H527 C536 0.929 . S
C528 H522 0.930 . S
C528 C529 1.367 . S
C528 C536 1.378 . S
C529 C528 1.367 . S
C529 C537 1.433 . S
C530 H526 0.929 . S
C530 C532 1.378 . S
C530 C534 1.350 . S
C531 C534 1.463 1_455 S
C531 C536 1.350 . S
C531 N539 1.427 . S
C532 H523 0.930 . S
C532 C530 1.378 . S
C532 C533 1.367 . S
C533 C532 1.367 . S
C533 C535 1.433 . S
C534 C530 1.350 . S
C534 C531 1.463 1_655 S
C534 N538 1.427 . S
C535 H525 0.929 . S
C535 C533 1.433 . S
C535 N538 1.384 . S
C536 H527 0.929 . S
C536 C528 1.378 . S
C536 C531 1.350 . S
C537 H524 0.929 . S
C537 C529 1.433 . S
C537 N539 1.384 . S
N538 C534 1.427 . S
N538 C535 1.384 . S
N539 C531 1.427 . S
N539 C537 1.384 . S
H540 C546 0.930 . S
H541 C550 0.930 . S
H542 C555 0.929 . S
H543 C553 0.929 . S
H544 C548 0.929 . S
H545 C554 0.929 . S
C546 H540 0.930 . S
C546 C547 1.367 . S
C546 C554 1.378 . S
C547 C546 1.367 . S
C547 C555 1.433 . S
C548 H544 0.929 . S
C548 C550 1.378 . S
C548 C552 1.350 . S
C549 C552 1.463 1_545 S
C549 C554 1.350 . S
C549 N557 1.427 . S
C550 H541 0.930 . S
C550 C548 1.378 . S
C550 C551 1.367 . S
C551 C550 1.367 . S
C551 C553 1.433 . S
C552 C548 1.350 . S
C552 C549 1.463 1_565 S
C552 N556 1.427 . S
C553 H543 0.929 . S
C553 C551 1.433 . S
C553 N556 1.384 . S
C554 H545 0.929 . S
C554 C546 1.378 . S
C554 C549 1.350 . S
C555 H542 0.929 . S
C555 C547 1.433 . S
C555 N557 1.384 . S
N556 C552 1.427 . S
N556 C553 1.384 . S
N557 C549 1.427 . S
N557 C555 1.384 . S
H558 C564 0.930 . S
H559 C568 0.930 . S
H560 C573 0.929 . S
H561 C571 0.929 . S
H562 C566 0.929 . S
H563 C572 0.929 . S
C564 H558 0.930 . S
C564 C565 1.367 . S
C564 C572 1.378 . S
C565 C564 1.367 . S
C565 C573 1.433 . S
C566 H562 0.929 . S
C566 C568 1.378 . S
C566 C570 1.350 . S
C567 C570 1.463 . S
C567 C572 1.350 . S
C567 N575 1.427 . S
C568 H559 0.930 . S
C568 C566 1.378 . S
C568 C569 1.367 . S
C569 C568 1.367 . S
C569 C571 1.433 . S
C570 C566 1.350 . S
C570 C567 1.463 . S
C570 N574 1.427 . S
C571 H561 0.929 . S
C571 C569 1.433 . S
C571 N574 1.384 . S
C572 H563 0.929 . S
C572 C564 1.378 . S
C572 C567 1.350 . S
C573 H560 0.929 . S
C573 C565 1.433 . S
C573 N575 1.384 . S
N574 C570 1.427 . S
N574 C571 1.384 . S
N575 C567 1.427 . S
N575 C573 1.384 . S
H576 C582 0.930 . S
H577 C586 0.930 . S
H578 C591 0.929 . S
H579 C589 0.929 . S
H580 C584 0.929 . S
H581 C590 0.929 . S
C582 H576 0.930 . S
C582 C583 1.367 . S
C582 C590 1.378 . S
C583 C582 1.367 . S
C583 C591 1.433 . S
C584 H580 0.929 . S
C584 C586 1.378 . S
C584 C588 1.350 . S
C585 C588 1.463 1_455 S
C585 C590 1.350 . S
C585 N593 1.427 . S
C586 H577 0.930 . S
C586 C584 1.378 . S
C586 C587 1.367 . S
C587 C586 1.367 . S
C587 C589 1.433 . S
C588 C584 1.350 . S
C588 C585 1.463 1_655 S
C588 N592 1.427 . S
C589 H579 0.929 . S
C589 C587 1.433 . S
C589 N592 1.384 . S
C590 H581 0.929 . S
C590 C582 1.378 . S
C590 C585 1.350 . S
C591 H578 0.929 . S
C591 C583 1.433 . S
C591 N593 1.384 . S
N592 C588 1.427 . S
N592 C589 1.384 . S
N593 C585 1.427 . S
N593 C591 1.384 . S
H594 C600 0.930 . S
H595 C604 0.930 . S
H596 C609 0.929 . S
H597 C607 0.929 . S
H598 C602 0.929 1_545 S
H599 C608 0.929 1_565 S
C600 H594 0.930 . S
C600 C601 1.367 . S
C600 C608 1.378 . S
C601 C600 1.367 . S
C601 C609 1.433 . S
C602 H598 0.929 1_565 S
C602 C604 1.378 . S
C602 C606 1.350 . S
C603 C606 1.463 1_545 S
C603 C608 1.350 . S
C603 N611 1.427 . S
C604 H595 0.930 . S
C604 C602 1.378 . S
C604 C605 1.367 . S
C605 C604 1.367 . S
C605 C607 1.433 . S
C606 C602 1.350 . S
C606 C603 1.463 1_565 S
C606 N610 1.427 . S
C607 H597 0.929 . S
C607 C605 1.433 . S
C607 N610 1.384 . S
C608 H599 0.929 1_545 S
C608 C600 1.378 . S
C608 C603 1.350 . S
C609 H596 0.929 . S
C609 C601 1.433 . S
C609 N611 1.384 . S
N610 C606 1.427 . S
N610 C607 1.384 . S
N611 C603 1.427 . S
N611 C609 1.384 . S
H612 C618 0.930 . S
H613 C622 0.930 . S
H614 C627 0.929 . S
H615 C625 0.929 . S
H616 C620 0.929 . S
H617 C626 0.929 . S
C618 H612 0.930 . S
C618 C619 1.367 . S
C618 C626 1.378 . S
C619 C618 1.367 . S
C619 C627 1.433 . S
C620 H616 0.929 . S
C620 C622 1.378 . S
C620 C624 1.350 . S
C621 C624 1.463 . S
C621 C626 1.350 . S
C621 N629 1.427 . S
C622 H613 0.930 . S
C622 C620 1.378 . S
C622 C623 1.367 . S
C623 C622 1.367 . S
C623 C625 1.433 . S
C624 C620 1.350 . S
C624 C621 1.463 . S
C624 N628 1.427 . S
C625 H615 0.929 . S
C625 C623 1.433 . S
C625 N628 1.384 . S
C626 H617 0.929 . S
C626 C618 1.378 . S
C626 C621 1.350 . S
C627 H614 0.929 . S
C627 C619 1.433 . S
C627 N629 1.384 . S
N628 C624 1.427 . S
N628 C625 1.384 . S
N629 C621 1.427 . S
N629 C627 1.384 . S
H630 C636 0.930 . S
H631 C640 0.930 . S
H632 C645 0.929 . S
H633 C643 0.929 . S
H634 C638 0.929 . S
H635 C644 0.929 . S
C636 H630 0.930 . S
C636 C637 1.367 . S
C636 C644 1.378 . S
C637 C636 1.367 . S
C637 C645 1.433 . S
C638 H634 0.929 . S
C638 C640 1.378 . S
C638 C642 1.350 . S
C639 C642 1.463 . S
C639 C644 1.350 . S
C639 N647 1.427 . S
C640 H631 0.930 . S
C640 C638 1.378 . S
C640 C641 1.367 . S
C641 C640 1.367 . S
C641 C643 1.433 . S
C642 C638 1.350 . S
C642 C639 1.463 . S
C642 N646 1.427 . S
C643 H633 0.929 . S
C643 C641 1.433 . S
C643 N646 1.384 . S
C644 H635 0.929 . S
C644 C636 1.378 . S
C644 C639 1.350 . S
C645 H632 0.929 . S
C645 C637 1.433 . S
C645 N647 1.384 . S
N646 C642 1.427 . S
N646 C643 1.384 . S
N647 C639 1.427 . S
N647 C645 1.384 . S
H648 C654 0.930 . S
H649 C658 0.930 . S
H650 C663 0.929 . S
H651 C661 0.929 . S
H652 C656 0.929 . S
H653 C662 0.929 . S
C654 H648 0.930 . S
C654 C655 1.367 . S
C654 C662 1.378 . S
C655 C654 1.367 . S
C655 C663 1.433 . S
C656 H652 0.929 . S
C656 C658 1.378 . S
C656 C660 1.350 . S
C657 C660 1.463 . S
C657 C662 1.350 . S
C657 N665 1.427 . S
C658 H649 0.930 . S
C658 C656 1.378 . S
C658 C659 1.367 . S
C659 C658 1.367 . S
C659 C661 1.433 . S
C660 C656 1.350 . S
C660 C657 1.463 . S
C660 N664 1.427 . S
C661 H651 0.929 . S
C661 C659 1.433 . S
C661 N664 1.384 . S
C662 H653 0.929 . S
C662 C654 1.378 . S
C662 C657 1.350 . S
C663 H650 0.929 . S
C663 C655 1.433 . S
C663 N665 1.384 . S
N664 C660 1.427 . S
N664 C661 1.384 . S
N665 C657 1.427 . S
N665 C663 1.384 . S
H666 C672 0.930 . S
H667 C676 0.930 . S
H668 C681 0.929 . S
H669 C679 0.929 . S
H670 C674 0.929 . S
H671 C680 0.929 . S
C672 H666 0.930 . S
C672 C673 1.367 . S
C672 C680 1.378 . S
C673 C672 1.367 . S
C673 C681 1.433 . S
C674 H670 0.929 . S
C674 C676 1.378 . S
C674 C678 1.350 . S
C675 C678 1.463 . S
C675 C680 1.350 . S
C675 N683 1.427 . S
C676 H667 0.930 . S
C676 C674 1.378 . S
C676 C677 1.367 . S
C677 C676 1.367 . S
C677 C679 1.433 . S
C678 C674 1.350 . S
C678 C675 1.463 . S
C678 N682 1.427 . S
C679 H669 0.929 . S
C679 C677 1.433 . S
C679 N682 1.384 . S
C680 H671 0.929 . S
C680 C672 1.378 . S
C680 C675 1.350 . S
C681 H668 0.929 . S
C681 C673 1.433 . S
C681 N683 1.384 . S
N682 C678 1.427 . S
N682 C679 1.384 . S
N683 C675 1.427 . S
N683 C681 1.384 . S
H684 C690 0.930 . S
H685 C694 0.930 . S
H686 C699 0.929 . S
H687 C697 0.929 . S
H688 C692 0.929 . S
H689 C698 0.929 . S
C690 H684 0.930 . S
C690 C691 1.367 . S
C690 C698 1.378 . S
C691 C690 1.367 . S
C691 C699 1.433 . S
C692 H688 0.929 . S
C692 C694 1.378 . S
C692 C696 1.350 . S
C693 C696 1.463 . S
C693 C698 1.350 . S
C693 N701 1.427 . S
C694 H685 0.930 . S
C694 C692 1.378 . S
C694 C695 1.367 . S
C695 C694 1.367 . S
C695 C697 1.433 . S
C696 C692 1.350 . S
C696 C693 1.463 . S
C696 N700 1.427 . S
C697 H687 0.929 . S
C697 C695 1.433 . S
C697 N700 1.384 . S
C698 H689 0.929 . S
C698 C690 1.378 . S
C698 C693 1.350 . S
C699 H686 0.929 . S
C699 C691 1.433 . S
C699 N701 1.384 . S
N700 C696 1.427 . S
N700 C697 1.384 . S
N701 C693 1.427 . S
N701 C699 1.384 . S
H702 C708 0.930 . S
H703 C712 0.930 . S
H704 C717 0.929 . S
H705 C715 0.929 . S
H706 C710 0.929 . S
H707 C716 0.929 . S
C708 H702 0.930 . S
C708 C709 1.367 . S
C708 C716 1.378 . S
C709 C708 1.367 . S
C709 C717 1.433 . S
C710 H706 0.929 . S
C710 C712 1.378 . S
C710 C714 1.350 . S
C711 C714 1.463 . S
C711 C716 1.350 . S
C711 N719 1.427 . S
C712 H703 0.930 . S
C712 C710 1.378 . S
C712 C713 1.367 . S
C713 C712 1.367 . S
C713 C715 1.433 . S
C714 C710 1.350 . S
C714 C711 1.463 . S
C714 N718 1.427 . S
C715 H705 0.929 . S
C715 C713 1.433 . S
C715 N718 1.384 . S
C716 H707 0.929 . S
C716 C708 1.378 . S
C716 C711 1.350 . S
C717 H704 0.929 . S
C717 C709 1.433 . S
C717 N719 1.384 . S
N718 C714 1.427 . S
N718 C715 1.384 . S
N719 C711 1.427 . S
N719 C717 1.384 . S
H720 C726 0.930 . S
H721 C730 0.930 . S
H722 C735 0.929 . S
H723 C733 0.929 . S
H724 C728 0.929 . S
H725 C734 0.929 . S
C726 H720 0.930 . S
C726 C727 1.367 . S
C726 C734 1.378 . S
C727 C726 1.367 . S
C727 C735 1.433 . S
C728 H724 0.929 . S
C728 C730 1.378 . S
C728 C732 1.350 . S
C729 C732 1.463 . S
C729 C734 1.350 . S
C729 N737 1.427 . S
C730 H721 0.930 . S
C730 C728 1.378 . S
C730 C731 1.367 . S
C731 C730 1.367 . S
C731 C733 1.433 . S
C732 C728 1.350 . S
C732 C729 1.463 . S
C732 N736 1.427 . S
C733 H723 0.929 . S
C733 C731 1.433 . S
C733 N736 1.384 . S
C734 H725 0.929 . S
C734 C726 1.378 . S
C734 C729 1.350 . S
C735 H722 0.929 . S
C735 C727 1.433 . S
C735 N737 1.384 . S
N736 C732 1.427 . S
N736 C733 1.384 . S
N737 C729 1.427 . S
N737 C735 1.384 . S
H738 C744 0.930 . S
H739 C748 0.930 . S
H740 C753 0.929 . S
H741 C751 0.929 . S
H742 C746 0.929 . S
H743 C752 0.929 . S
C744 H738 0.930 . S
C744 C745 1.367 . S
C744 C752 1.378 . S
C745 C744 1.367 . S
C745 C753 1.433 . S
C746 H742 0.929 . S
C746 C748 1.378 . S
C746 C750 1.350 . S
C747 C750 1.463 . S
C747 C752 1.350 . S
C747 N755 1.427 . S
C748 H739 0.930 . S
C748 C746 1.378 . S
C748 C749 1.367 . S
C749 C748 1.367 . S
C749 C751 1.433 . S
C750 C746 1.350 . S
C750 C747 1.463 . S
C750 N754 1.427 . S
C751 H741 0.929 . S
C751 C749 1.433 . S
C751 N754 1.384 . S
C752 H743 0.929 . S
C752 C744 1.378 . S
C752 C747 1.350 . S
C753 H740 0.929 . S
C753 C745 1.433 . S
C753 N755 1.384 . S
N754 C750 1.427 . S
N754 C751 1.384 . S
N755 C747 1.427 . S
N755 C753 1.384 . S
H756 C762 0.930 . S
H757 C766 0.930 . S
H758 C771 0.929 . S
H759 C769 0.929 . S
H760 C764 0.929 . S
H761 C770 0.929 . S
C762 H756 0.930 . S
C762 C763 1.367 . S
C762 C770 1.378 . S
C763 C762 1.367 . S
C763 C771 1.433 . S
C764 H760 0.929 . S
C764 C766 1.378 . S
C764 C768 1.350 . S
C765 C768 1.463 . S
C765 C770 1.350 . S
C765 N773 1.427 . S
C766 H757 0.930 . S
C766 C764 1.378 . S
C766 C767 1.367 . S
C767 C766 1.367 . S
C767 C769 1.433 . S
C768 C764 1.350 . S
C768 C765 1.463 . S
C768 N772 1.427 . S
C769 H759 0.929 . S
C769 C767 1.433 . S
C769 N772 1.384 . S
C770 H761 0.929 . S
C770 C762 1.378 . S
C770 C765 1.350 . S
C771 H758 0.929 . S
C771 C763 1.433 . S
C771 N773 1.384 . S
N772 C768 1.427 . S
N772 C769 1.384 . S
N773 C765 1.427 . S
N773 C771 1.384 . S
H774 C780 0.930 . S
H775 C784 0.930 . S
H776 C789 0.929 . S
H777 C787 0.929 . S
H778 C782 0.929 . S
H779 C788 0.929 . S
C780 H774 0.930 . S
C780 C781 1.367 . S
C780 C788 1.378 . S
C781 C780 1.367 . S
C781 C789 1.433 . S
C782 H778 0.929 . S
C782 C784 1.378 . S
C782 C786 1.350 . S
C783 C786 1.463 . S
C783 C788 1.350 . S
C783 N791 1.427 . S
C784 H775 0.930 . S
C784 C782 1.378 . S
C784 C785 1.367 . S
C785 C784 1.367 . S
C785 C787 1.433 . S
C786 C782 1.350 . S
C786 C783 1.463 . S
C786 N790 1.427 . S
C787 H777 0.929 . S
C787 C785 1.433 . S
C787 N790 1.384 . S
C788 H779 0.929 . S
C788 C780 1.378 . S
C788 C783 1.350 . S
C789 H776 0.929 . S
C789 C781 1.433 . S
C789 N791 1.384 . S
N790 C786 1.427 . S
N790 C787 1.384 . S
N791 C783 1.427 . S
N791 C789 1.384 . S
H792 C798 0.930 . S
H793 C802 0.930 . S
H794 C807 0.929 . S
H795 C805 0.929 . S
H796 C800 0.929 . S
H797 C806 0.929 . S
C798 H792 0.930 . S
C798 C799 1.367 . S
C798 C806 1.378 . S
C799 C798 1.367 . S
C799 C807 1.433 . S
C800 H796 0.929 . S
C800 C802 1.378 . S
C800 C804 1.350 . S
C801 C804 1.463 . S
C801 C806 1.350 . S
C801 N809 1.427 . S
C802 H793 0.930 . S
C802 C800 1.378 . S
C802 C803 1.367 . S
C803 C802 1.367 . S
C803 C805 1.433 . S
C804 C800 1.350 . S
C804 C801 1.463 . S
C804 N808 1.427 . S
C805 H795 0.929 . S
C805 C803 1.433 . S
C805 N808 1.384 . S
C806 H797 0.929 . S
C806 C798 1.378 . S
C806 C801 1.350 . S
C807 H794 0.929 . S
C807 C799 1.433 . S
C807 N809 1.384 . S
N808 C804 1.427 . S
N808 C805 1.384 . S
N809 C801 1.427 . S
N809 C807 1.384 . S
H810 C816 0.930 . S
H811 C820 0.930 . S
H812 C825 0.929 . S
H813 C823 0.929 . S
H814 C818 0.929 . S
H815 C824 0.929 . S
C816 H810 0.930 . S
C816 C817 1.367 . S
C816 C824 1.378 . S
C817 C816 1.367 . S
C817 C825 1.433 . S
C818 H814 0.929 . S
C818 C820 1.378 . S
C818 C822 1.350 . S
C819 C822 1.463 . S
C819 C824 1.350 . S
C819 N827 1.427 . S
C820 H811 0.930 . S
C820 C818 1.378 . S
C820 C821 1.367 . S
C821 C820 1.367 . S
C821 C823 1.433 . S
C822 C818 1.350 . S
C822 C819 1.463 . S
C822 N826 1.427 . S
C823 H813 0.929 . S
C823 C821 1.433 . S
C823 N826 1.384 . S
C824 H815 0.929 . S
C824 C816 1.378 . S
C824 C819 1.350 . S
C825 H812 0.929 . S
C825 C817 1.433 . S
C825 N827 1.384 . S
N826 C822 1.427 . S
N826 C823 1.384 . S
N827 C819 1.427 . S
N827 C825 1.384 . S
C511 C495 1.443 . S
C515 C67 1.387 . S
C529 C75 1.444 . S
C533 C151 1.384 . S
C547 C159 1.440 . S
C551 C235 1.397 . S
C565 C243 1.443 . S
C569 C319 1.395 . S
C583 C403 1.387 . S
C587 C327 1.443 . S
C601 C487 1.399 . S
C605 C411 1.441 . S
C619 C72 1.310 . S
C623 C63 1.310 . S
C637 C156 1.308 1_556 S
C641 C147 1.308 . S
C655 C240 1.317 . S
C659 C231 1.317 1_554 S
C673 C324 1.327 . S
C677 C315 1.327 . S
C691 C399 1.326 . S
C695 C408 1.326 1_556 S
C709 C492 1.318 . S
C713 C483 1.318 1_554 S
C727 C56 1.382 . S
C731 C402 1.428 . S
C745 C140 1.370 . S
C749 C486 1.434 . S
C763 C66 1.434 . S
C767 C224 1.370 . S
C781 C150 1.432 . S
C785 C308 1.376 . S
C799 C392 1.379 . S
C803 C234 1.427 . S
C817 C318 1.430 . S
C821 C476 1.379 . S
