# Generated by pormake.
# Topology sow, (4)-cn, num edge types: 1
# Building blocks:
#     Node 0, Type 0, BuildingBlock: NAWXER_clean_sbu_0, # of connection points: 4
#     Node 1, Type 0, BuildingBlock: NAWXER_clean_sbu_0, # of connection points: 4
#     Node 2, Type 0, BuildingBlock: NAWXER_clean_sbu_0, # of connection points: 4
#     Node 3, Type 0, BuildingBlock: NAWXER_clean_sbu_0, # of connection points: 4
#     Node 4, Type 0, BuildingBlock: NAWXER_clean_sbu_0, # of connection points: 4
#     Node 5, Type 0, BuildingBlock: NAWXER_clean_sbu_0, # of connection points: 4
#     Node 6, Type 0, BuildingBlock: NAWXER_clean_sbu_0, # of connection points: 4
#     Node 7, Type 0, BuildingBlock: NAWXER_clean_sbu_0, # of connection points: 4
#     Edge 8, Type (0, 0), BuildingBlock: ZUJKAS_clean_linker_0, # of connection points: 2
#     Edge 9, Type (0, 0), BuildingBlock: ZUJKAS_clean_linker_0, # of connection points: 2
#     Edge 10, Type (0, 0), BuildingBlock: ZUJKAS_clean_linker_0, # of connection points: 2
#     Edge 11, Type (0, 0), BuildingBlock: ZUJKAS_clean_linker_0, # of connection points: 2
#     Edge 12, Type (0, 0), BuildingBlock: ZUJKAS_clean_linker_0, # of connection points: 2
#     Edge 13, Type (0, 0), BuildingBlock: ZUJKAS_clean_linker_0, # of connection points: 2
#     Edge 14, Type (0, 0), BuildingBlock: ZUJKAS_clean_linker_0, # of connection points: 2
#     Edge 15, Type (0, 0), BuildingBlock: ZUJKAS_clean_linker_0, # of connection points: 2
#     Edge 16, Type (0, 0), BuildingBlock: ZUJKAS_clean_linker_0, # of connection points: 2
#     Edge 17, Type (0, 0), BuildingBlock: ZUJKAS_clean_linker_0, # of connection points: 2
#     Edge 18, Type (0, 0), BuildingBlock: ZUJKAS_clean_linker_0, # of connection points: 2
#     Edge 19, Type (0, 0), BuildingBlock: ZUJKAS_clean_linker_0, # of connection points: 2
#     Edge 20, Type (0, 0), BuildingBlock: ZUJKAS_clean_linker_0, # of connection points: 2
#     Edge 21, Type (0, 0), BuildingBlock: ZUJKAS_clean_linker_0, # of connection points: 2
#     Edge 22, Type (0, 0), BuildingBlock: ZUJKAS_clean_linker_0, # of connection points: 2
#     Edge 23, Type (0, 0), BuildingBlock: ZUJKAS_clean_linker_0, # of connection points: 2
# Relax obj value: 0.113
# Max RMSD: 0.238
# Mean RMSD: 0.237
data_MOF--net-sow--node1-NAWXER_clean_sbu_0--edge1-ZUJKAS_clean_linker_0
_symmetry_space_group_name_H-M    P1
_symmetry_Int_Tables_number       1
_symmetry_cell_setting            triclinic
loop_
_symmetry_equiv_pos_as_xyz
'x, y, z'
_cell_length_a     56.783981
_cell_length_b     25.163582
_cell_length_c     29.662122
_cell_angle_alpha  89.995764
_cell_angle_beta   89.960425
_cell_angle_gamma 90.020958
loop_
_atom_site_label
_atom_site_type_symbol
_atom_site_fract_x
_atom_site_fract_y
_atom_site_fract_z
_atom_type_partial_charge
C0 C 0.17526 0.19259 0.14391 0.0
C1 C 0.11149 0.12685 0.05058 0.0
O2 O 0.1681 0.14543 0.13777 0.0
Zn3 Zn 0.14477 0.16048 0.09316 0.0
O4 O 0.16607 0.23073 0.12118 0.0
Zn5 Zn 0.13818 0.23768 0.07147 0.0
O6 O 0.11649 0.28459 0.10091 0.0
O7 O 0.1186 0.2048 0.13155 0.0
O8 O 0.11388 0.1774 0.04636 0.0
O9 O 0.12651 0.10096 0.0734 0.0
O10 O 0.16438 0.18337 0.0335 0.0
O11 O 0.15336 0.26542 0.01898 0.0
C12 C 0.10949 0.25152 0.13038 0.0
C13 C 0.16573 0.22525 0.00888 0.0
C14 C 0.32709 0.30216 0.64244 0.0
C15 C 0.39037 0.37739 0.55223 0.0
O16 O 0.33281 0.35041 0.63661 0.0
Zn17 Zn 0.35724 0.33932 0.59325 0.0
O18 O 0.33777 0.26581 0.6199 0.0
Zn19 Zn 0.366 0.26353 0.57031 0.0
O20 O 0.38844 0.21849 0.59943 0.0
O21 O 0.38399 0.29685 0.63188 0.0
O22 O 0.38905 0.32677 0.54743 0.0
O23 O 0.37459 0.40136 0.57472 0.0
O24 O 0.33841 0.31531 0.53337 0.0
O25 O 0.35234 0.23622 0.51601 0.0
C26 C 0.39426 0.25139 0.62995 0.0
C27 C 0.33869 0.27466 0.50728 0.0
C28 C 0.67654 0.30484 0.86088 0.0
C29 C 0.61336 0.37803 0.95225 0.0
O30 O 0.67069 0.35292 0.86714 0.0
Zn31 Zn 0.64638 0.34101 0.91067 0.0
O32 O 0.66604 0.26809 0.88325 0.0
Zn33 Zn 0.63821 0.26474 0.93337 0.0
O34 O 0.61576 0.21936 0.90456 0.0
O35 O 0.61964 0.29808 0.87244 0.0
O36 O 0.61497 0.32744 0.9571 0.0
O37 O 0.62888 0.40243 0.92939 0.0
O38 O 0.66531 0.3176 0.97047 0.0
O39 O 0.65274 0.23715 0.98679 0.0
C40 C 0.60958 0.25235 0.87437 0.0
C41 C 0.66584 0.27645 0.996 0.0
C42 C 0.82881 0.19825 0.3592 0.0
C43 C 0.89177 0.12987 0.45349 0.0
O44 O 0.83522 0.15064 0.36597 0.0
Zn45 Zn 0.85889 0.16455 0.41036 0.0
O46 O 0.83858 0.23584 0.38171 0.0
Zn47 Zn 0.86594 0.24155 0.43241 0.0
O48 O 0.88818 0.28774 0.4038 0.0
O49 O 0.88548 0.20839 0.37242 0.0
O50 O 0.88959 0.18043 0.45787 0.0
O51 O 0.87683 0.10444 0.4301 0.0
O52 O 0.83936 0.18756 0.4698 0.0
O53 O 0.85048 0.26947 0.48462 0.0
C54 C 0.89497 0.25473 0.37411 0.0
C55 C 0.83799 0.22937 0.49446 0.0
C56 C 0.88989 0.87707 0.95334 0.0
C57 C 0.82616 0.80833 0.86116 0.0
O58 O 0.88818 0.82632 0.95697 0.0
Zn59 Zn 0.86452 0.76484 0.93189 0.0
O60 O 0.87433 0.9024 0.93139 0.0
Zn61 Zn 0.8566 0.84197 0.91161 0.0
O62 O 0.83807 0.81691 0.97153 0.0
O63 O 0.84989 0.73509 0.98435 0.0
O64 O 0.8321 0.85603 0.86898 0.0
O65 O 0.83665 0.77053 0.88218 0.0
O66 O 0.88661 0.72004 0.90167 0.0
O67 O 0.88306 0.79995 0.8716 0.0
C68 C 0.83728 0.77448 0.99549 0.0
C69 C 0.89286 0.75388 0.87221 0.0
C70 C 0.61103 0.63086 0.4545 0.0
C71 C 0.6746 0.69856 0.36081 0.0
O72 O 0.61292 0.68159 0.45779 0.0
Zn73 Zn 0.63646 0.74262 0.43187 0.0
O74 O 0.62636 0.60512 0.43225 0.0
Zn75 Zn 0.64423 0.66516 0.41168 0.0
O76 O 0.66313 0.69065 0.47098 0.0
O77 O 0.65135 0.77252 0.48393 0.0
O78 O 0.6686 0.65085 0.36855 0.0
O79 O 0.6642 0.73636 0.38201 0.0
O80 O 0.6143 0.78726 0.40152 0.0
O81 O 0.61778 0.70709 0.37195 0.0
C82 C 0.66406 0.73317 0.4948 0.0
C83 C 0.60801 0.75317 0.37231 0.0
C84 C 0.39078 0.62358 0.0451 0.0
C85 C 0.32834 0.68933 0.14183 0.0
O86 O 0.38832 0.67412 0.04108 0.0
Zn87 Zn 0.36447 0.73434 0.06747 0.0
O88 O 0.37606 0.59757 0.06858 0.0
Zn89 Zn 0.35802 0.65702 0.08939 0.0
O90 O 0.33758 0.68022 0.03105 0.0
O91 O 0.34858 0.76216 0.01585 0.0
O92 O 0.3353 0.64209 0.13526 0.0
O93 O 0.3373 0.72741 0.11865 0.0
O94 O 0.38666 0.781 0.09594 0.0
O95 O 0.38466 0.70114 0.12651 0.0
C96 C 0.33595 0.72212 0.00653 0.0
C97 C 0.39388 0.74774 0.12504 0.0
C98 C 0.11232 0.87646 0.54868 0.0
C99 C 0.17454 0.80031 0.64043 0.0
O100 O 0.11344 0.82583 0.54384 0.0
Zn101 Zn 0.13611 0.7622 0.56717 0.0
O102 O 0.12807 0.90005 0.57149 0.0
Zn103 Zn 0.14497 0.8377 0.5904 0.0
O104 O 0.16437 0.81329 0.53129 0.0
O105 O 0.15014 0.73467 0.51327 0.0
O106 O 0.16901 0.84861 0.63431 0.0
O107 O 0.16394 0.76399 0.61769 0.0
O108 O 0.11328 0.71747 0.5955 0.0
O109 O 0.11782 0.79552 0.62846 0.0
C110 C 0.16413 0.77268 0.50515 0.0
C111 C 0.10739 0.75024 0.62608 0.0
H112 H 0.29849 0.36966 0.68943 0.0
H113 H 0.27019 0.34723 0.74853 0.0
H114 H 0.28623 0.18094 0.73202 0.0
H115 H 0.3147 0.20293 0.67267 0.0
H116 H 0.22971 0.27489 0.74319 0.0
H117 H 0.29707 0.21355 0.86928 0.0
H118 H 0.30433 0.25367 0.82072 0.0
H119 H 0.29881 0.18391 0.81416 0.0
C120 C 0.29598 0.32825 0.69816 0.0
C121 C 0.30895 0.28809 0.67641 0.0
C122 C 0.27977 0.31554 0.73193 0.0
C123 C 0.27634 0.26253 0.74495 0.0
C124 C 0.28886 0.22216 0.7228 0.0
H125 H 0.19231 0.14459 0.9727 0.0
H126 H 0.21821 0.14896 0.90659 0.0
C127 C 0.30502 0.23481 0.68875 0.0
C128 C 0.25974 0.25004 0.78203 0.0
H129 H 0.2574 0.21003 0.89197 0.0
C130 C 0.2357 0.26037 0.77565 0.0
C131 C 0.26764 0.2308 0.82418 0.0
C132 C 0.29337 0.22004 0.83292 0.0
C133 C 0.21934 0.25255 0.81053 0.0
C134 C 0.22734 0.23524 0.85329 0.0
C135 C 0.2513 0.22341 0.85924 0.0
C136 C 0.21136 0.23199 0.89286 0.0
C137 C 0.19362 0.26276 0.80112 0.0
C138 C 0.19921 0.27737 0.90753 0.0
C139 C 0.18437 0.27495 0.94501 0.0
C140 C 0.18155 0.22721 0.96911 0.0
C141 C 0.19403 0.18192 0.95483 0.0
C142 C 0.20883 0.18435 0.91707 0.0
H143 H 0.18958 0.25864 0.76464 0.0
H144 H 0.18218 0.23504 0.82034 0.0
H145 H 0.18919 0.30401 0.81125 0.0
H146 H 0.20139 0.31494 0.89021 0.0
H147 H 0.17524 0.31075 0.95528 0.0
H148 H 0.20802 0.27238 0.1451 0.0
H149 H 0.23804 0.28898 0.20288 0.0
H150 H 0.21136 0.15686 0.28048 0.0
H151 H 0.18258 0.13815 0.2216 0.0
H152 H 0.23668 0.31674 0.28541 0.0
H153 H 0.27836 0.11892 0.28262 0.0
H154 H 0.2569 0.13854 0.24116 0.0
H155 H 0.24765 0.11238 0.29501 0.0
C156 C 0.20882 0.24661 0.17432 0.0
C157 C 0.19327 0.20348 0.17859 0.0
C158 C 0.22592 0.25614 0.20736 0.0
C159 C 0.22747 0.2233 0.24565 0.0
C160 C 0.21129 0.18143 0.25053 0.0
H161 H 0.29408 0.3135 0.49862 0.0
H162 H 0.26765 0.3034 0.43402 0.0
C163 C 0.19469 0.171 0.21699 0.0
C164 C 0.24547 0.23357 0.28112 0.0
H165 H 0.28578 0.17188 0.34838 0.0
C166 C 0.24765 0.28518 0.29875 0.0
C167 C 0.26024 0.19285 0.29805 0.0
C168 C 0.26085 0.1378 0.2778 0.0
C169 C 0.26367 0.29683 0.3335 0.0
C170 C 0.27712 0.25517 0.35274 0.0
C171 C 0.27531 0.20388 0.33431 0.0
C172 C 0.29329 0.26338 0.39174 0.0
C173 C 0.26628 0.35393 0.34825 0.0
C174 C 0.31626 0.2426 0.39051 0.0
C175 C 0.33099 0.24643 0.42807 0.0
C176 C 0.32327 0.27223 0.46733 0.0
C177 C 0.30053 0.29405 0.46846 0.0
C178 C 0.28551 0.28874 0.43132 0.0
H179 H 0.26173 0.38174 0.32048 0.0
H180 H 0.25396 0.3619 0.37651 0.0
H181 H 0.28449 0.36271 0.35957 0.0
H182 H 0.32278 0.22284 0.36055 0.0
H183 H 0.34849 0.22943 0.42633 0.0
H184 H 0.80885 0.12941 0.29908 0.0
H185 H 0.78098 0.14997 0.2388 0.0
H186 H 0.78046 0.31447 0.27929 0.0
H187 H 0.8085 0.29443 0.3398 0.0
H188 H 0.73384 0.26282 0.26199 0.0
H189 H 0.79888 0.23959 0.12317 0.0
H190 H 0.79803 0.18647 0.16373 0.0
H191 H 0.80751 0.25145 0.18093 0.0
C192 C 0.80278 0.16997 0.29538 0.0
C193 C 0.81099 0.21034 0.32419 0.0
C194 C 0.78693 0.18164 0.26077 0.0
C195 C 0.77892 0.23379 0.25437 0.0
C196 C 0.78657 0.27401 0.28364 0.0
H197 H 0.70134 0.34553 0.01793 0.0
H198 H 0.72847 0.33972 0.08203 0.0
C199 C 0.80258 0.26247 0.31814 0.0
C200 C 0.76261 0.24605 0.21691 0.0
H201 H 0.75871 0.24757 0.10205 0.0
C202 C 0.73927 0.2599 0.22701 0.0
C203 C 0.76988 0.24268 0.1714 0.0
C204 C 0.79498 0.22966 0.1589 0.0
C205 C 0.72275 0.26875 0.19258 0.0
C206 C 0.72982 0.26344 0.14709 0.0
C207 C 0.75335 0.25133 0.13701 0.0
C208 C 0.71286 0.26828 0.10946 0.0
C209 C 0.69784 0.28347 0.20499 0.0
C210 C 0.69525 0.22982 0.10363 0.0
C211 C 0.67988 0.23274 0.06696 0.0
C212 C 0.68178 0.27434 0.03547 0.0
C213 C 0.69935 0.31312 0.04166 0.0
C214 C 0.71486 0.30987 0.07819 0.0
H215 H 0.6965 0.29735 0.24046 0.0
H216 H 0.69108 0.31513 0.18234 0.0
H217 H 0.68634 0.24811 0.20103 0.0
H218 H 0.69365 0.19702 0.1271 0.0
H219 H 0.66657 0.20222 0.06321 0.0
H220 H 0.68836 0.20635 0.82847 0.0
H221 H 0.7171 0.18536 0.76932 0.0
H222 H 0.7342 0.35164 0.75692 0.0
H223 H 0.7056 0.37307 0.81572 0.0
H224 H 0.71678 0.22925 0.6779 0.0
H225 H 0.79897 0.27511 0.77139 0.0
H226 H 0.77132 0.26168 0.79937 0.0
H227 H 0.77666 0.32563 0.77444 0.0
C228 C 0.6984 0.2384 0.81346 0.0
C229 C 0.69472 0.29139 0.82689 0.0
C230 C 0.71476 0.22632 0.77963 0.0
C231 C 0.72791 0.2669 0.75917 0.0
C232 C 0.72445 0.31969 0.77279 0.0
H233 H 0.82812 0.3148 0.54792 0.0
H234 H 0.80129 0.31887 0.61208 0.0
C235 C 0.70802 0.33185 0.80628 0.0
C236 C 0.74458 0.25476 0.72214 0.0
H237 H 0.8024 0.26477 0.69194 0.0
C238 C 0.73555 0.23633 0.68099 0.0
C239 C 0.769 0.26422 0.72643 0.0
C240 C 0.77967 0.28232 0.77038 0.0
C241 C 0.75021 0.22927 0.64328 0.0
C242 C 0.77462 0.23981 0.64727 0.0
C243 C 0.78369 0.25682 0.68889 0.0
C244 C 0.79089 0.23627 0.60819 0.0
C245 C 0.73927 0.21292 0.59905 0.0
C246 C 0.79416 0.18827 0.58484 0.0
C247 C 0.80943 0.18586 0.54779 0.0
C248 C 0.82189 0.2313 0.53378 0.0
C249 C 0.81881 0.27904 0.55773 0.0
C250 C 0.80348 0.28146 0.5945 0.0
H251 H 0.71988 0.21896 0.59898 0.0
H252 H 0.747 0.23567 0.57058 0.0
H253 H 0.74271 0.17008 0.59316 0.0
H254 H 0.78502 0.1526 0.59541 0.0
H255 H 0.81153 0.14839 0.5303 0.0
H256 H 0.81007 0.85312 0.03277 0.0
H257 H 0.78402 0.84625 0.09841 0.0
H258 H 0.80246 0.6809 0.11299 0.0
H259 H 0.82882 0.68761 0.04829 0.0
H260 H 0.74545 0.78316 0.11055 0.0
H261 H 0.81248 0.73517 0.23976 0.0
H262 H 0.8202 0.75999 0.1846 0.0
H263 H 0.81349 0.69069 0.19256 0.0
C264 C 0.80871 0.8154 0.05017 0.0
C265 C 0.82165 0.771 0.03543 0.0
C266 C 0.79382 0.81155 0.08766 0.0
C267 C 0.79163 0.76334 0.11115 0.0
C268 C 0.80434 0.71888 0.09619 0.0
H269 H 0.70254 0.62813 0.31528 0.0
H270 H 0.73117 0.64758 0.25585 0.0
C271 C 0.8193 0.72273 0.05893 0.0
C272 C 0.77533 0.75864 0.15009 0.0
H273 H 0.77228 0.7192 0.26018 0.0
C274 C 0.75135 0.76984 0.14342 0.0
C275 C 0.78307 0.74131 0.19302 0.0
C276 C 0.80875 0.73162 0.20311 0.0
C277 C 0.7348 0.76231 0.17805 0.0
C278 C 0.74248 0.74356 0.22049 0.0
C279 C 0.76647 0.73335 0.22748 0.0
C280 C 0.7257 0.73259 0.25759 0.0
C281 C 0.70911 0.77279 0.16863 0.0
C282 C 0.71347 0.77412 0.27872 0.0
C283 C 0.69716 0.76321 0.31287 0.0
C284 C 0.69277 0.71051 0.32638 0.0
C285 C 0.70542 0.66913 0.30561 0.0
C286 C 0.72181 0.68013 0.27168 0.0
H287 H 0.70559 0.77815 0.13206 0.0
H288 H 0.69807 0.73957 0.18137 0.0
H289 H 0.7036 0.80952 0.18644 0.0
H290 H 0.71647 0.81494 0.26864 0.0
H291 H 0.68776 0.79601 0.32819 0.0
H292 H 0.67277 0.8202 0.54723 0.0
H293 H 0.70015 0.82759 0.61039 0.0
H294 H 0.71921 0.66283 0.59472 0.0
H295 H 0.69179 0.65487 0.53121 0.0
H296 H 0.70902 0.69978 0.68778 0.0
H297 H 0.7736 0.82571 0.596 0.0
H298 H 0.74351 0.84757 0.59295 0.0
H299 H 0.75184 0.78566 0.56739 0.0
C300 C 0.68272 0.78542 0.55716 0.0
C301 C 0.68016 0.73698 0.53398 0.0
C302 C 0.69842 0.78981 0.59319 0.0
C303 C 0.71186 0.74593 0.60681 0.0
C304 C 0.70904 0.69719 0.5845 0.0
H305 H 0.81365 0.71124 0.82675 0.0
H306 H 0.78566 0.69315 0.76592 0.0
C307 C 0.6934 0.69278 0.54821 0.0
C308 C 0.72892 0.75141 0.64424 0.0
H309 H 0.7792 0.81632 0.67473 0.0
C310 C 0.72449 0.72489 0.68498 0.0
C311 C 0.74901 0.78423 0.64028 0.0
C312 C 0.75498 0.81216 0.59673 0.0
C313 C 0.73927 0.73179 0.72253 0.0
C314 C 0.75923 0.76524 0.71876 0.0
C315 C 0.76384 0.7909 0.67765 0.0
C316 C 0.77538 0.77533 0.75716 0.0
C317 C 0.73293 0.70472 0.76627 0.0
C318 C 0.77916 0.82757 0.77204 0.0
C319 C 0.7953 0.8381 0.8064 0.0
C320 C 0.80804 0.79655 0.82664 0.0
C321 C 0.80399 0.7441 0.81213 0.0
C322 C 0.78791 0.73364 0.77751 0.0
H323 H 0.71417 0.69217 0.7669 0.0
H324 H 0.74396 0.66866 0.77035 0.0
H325 H 0.73623 0.73128 0.79548 0.0
H326 H 0.76973 0.86037 0.75674 0.0
H327 H 0.79797 0.87894 0.81674 0.0
H328 H 0.32581 0.80779 0.9536 0.0
H329 H 0.29787 0.81284 0.89129 0.0
H330 H 0.28039 0.64752 0.90944 0.0
H331 H 0.30842 0.6419 0.97227 0.0
H332 H 0.28987 0.68436 0.81523 0.0
H333 H 0.2244 0.80699 0.9076 0.0
H334 H 0.25426 0.83046 0.91064 0.0
H335 H 0.24659 0.76795 0.93598 0.0
C336 C 0.31608 0.77237 0.94446 0.0
C337 C 0.31929 0.72446 0.96812 0.0
C338 C 0.30006 0.77544 0.90888 0.0
C339 C 0.28692 0.73073 0.89615 0.0
C340 C 0.29032 0.68251 0.91898 0.0
H341 H 0.18588 0.7013 0.67268 0.0
H342 H 0.21309 0.67988 0.73414 0.0
C343 C 0.3063 0.67943 0.95488 0.0
C344 C 0.26963 0.73498 0.859 0.0
H345 H 0.21926 0.79939 0.82846 0.0
C346 C 0.27426 0.70897 0.8181 0.0
C347 C 0.24935 0.76714 0.86305 0.0
C348 C 0.24315 0.79445 0.90677 0.0
C349 C 0.2596 0.71617 0.78039 0.0
C350 C 0.23959 0.74944 0.78414 0.0
C351 C 0.23466 0.77413 0.82554 0.0
C352 C 0.224 0.76126 0.74526 0.0
C353 C 0.26618 0.68992 0.73643 0.0
C354 C 0.2209 0.8141 0.73139 0.0
C355 C 0.20524 0.8265 0.6967 0.0
C356 C 0.19229 0.78627 0.67505 0.0
C357 C 0.19571 0.73317 0.68843 0.0
C358 C 0.21133 0.72082 0.72342 0.0
H359 H 0.2848 0.67634 0.73632 0.0
H360 H 0.25478 0.65465 0.73112 0.0
H361 H 0.26351 0.71748 0.70765 0.0
H362 H 0.23047 0.84595 0.74779 0.0
H363 H 0.20309 0.86779 0.68725 0.0
H364 H 0.29518 0.76809 0.14433 0.0
H365 H 0.26649 0.78543 0.20431 0.0
H366 H 0.29521 0.65523 0.28153 0.0
H367 H 0.32261 0.63564 0.22038 0.0
H368 H 0.25132 0.65048 0.28767 0.0
H369 H 0.2747 0.86049 0.31935 0.0
H370 H 0.26527 0.85078 0.26234 0.0
H371 H 0.29173 0.81885 0.28223 0.0
C372 C 0.29527 0.74327 0.17417 0.0
C373 C 0.31104 0.70051 0.17776 0.0
C374 C 0.27906 0.75354 0.20869 0.0
C375 C 0.27896 0.72252 0.24817 0.0
C376 C 0.29485 0.67988 0.25159 0.0
H377 H 0.20886 0.81162 0.4986 0.0
H378 H 0.23658 0.79936 0.43607 0.0
C379 C 0.31052 0.66865 0.2166 0.0
C380 C 0.26186 0.73273 0.28532 0.0
H381 H 0.23938 0.82925 0.354 0.0
C382 C 0.2489 0.68959 0.30234 0.0
C383 C 0.25885 0.78351 0.3052 0.0
C384 C 0.27357 0.83085 0.29166 0.0
C385 C 0.23316 0.69556 0.33847 0.0
C386 C 0.22915 0.74685 0.35663 0.0
C387 C 0.24214 0.79005 0.33975 0.0
C388 C 0.21199 0.75626 0.3938 0.0
C389 C 0.22177 0.64624 0.35765 0.0
C390 C 0.18875 0.7374 0.39062 0.0
C391 C 0.1732 0.74294 0.42682 0.0
C392 C 0.18025 0.76941 0.46622 0.0
C393 C 0.20302 0.791 0.46855 0.0
C394 C 0.21883 0.78403 0.43281 0.0
H395 H 0.23255 0.61027 0.35085 0.0
H396 H 0.21916 0.64954 0.39463 0.0
H397 H 0.20438 0.64015 0.34138 0.0
H398 H 0.18266 0.71785 0.36029 0.0
H399 H 0.15558 0.72674 0.42392 0.0
H400 H 0.08251 0.34175 0.13023 0.0
H401 H 0.04651 0.35808 0.17355 0.0
H402 H 0.05475 0.20692 0.24017 0.0
H403 H 0.09075 0.19038 0.19747 0.0
H404 H 0.00652 0.2936 0.16956 0.0
H405 H 0.03983 0.30802 0.34464 0.0
H406 H 0.05877 0.31497 0.29602 0.0
H407 H 0.05023 0.25006 0.31552 0.0
C408 C 0.07692 0.31242 0.15474 0.0
C409 C 0.0895 0.26471 0.16037 0.0
C410 C 0.05632 0.3218 0.17935 0.0
C411 C 0.04812 0.28396 0.21034 0.0
C412 C 0.06102 0.2371 0.21705 0.0
H413 H 0.91293 0.19452 0.30564 0.0
H414 H 0.94918 0.21004 0.26337 0.0
C415 C 0.08155 0.2276 0.1924 0.0
C416 C 0.02507 0.291 0.23288 0.0
H417 H 0.99853 0.29019 0.33609 0.0
C418 C 0.00477 0.2937 0.20598 0.0
C419 C 0.02286 0.29167 0.28034 0.0
C420 C 0.0441 0.29156 0.31085 0.0
C421 C 0.98222 0.29441 0.22535 0.0
C422 C 0.97999 0.29179 0.27275 0.0
C423 C 1.0003 0.29177 0.2997 0.0
C424 C 0.95684 0.28555 0.29507 0.0
C425 C 0.96099 0.29722 0.19492 0.0
C426 C 0.94912 0.3229 0.3269 0.0
C427 C 0.92838 0.31413 0.35122 0.0
C428 C 0.91516 0.2675 0.34445 0.0
C429 C 0.92264 0.23091 0.31159 0.0
C430 C 0.94331 0.23983 0.28721 0.0
H431 H 0.96552 0.31449 0.16155 0.0
H432 H 0.95413 0.25646 0.18924 0.0
H433 H 0.94674 0.32134 0.21041 0.0
H434 H 0.95942 0.35828 0.33359 0.0
H435 H 0.92317 0.34301 0.37639 0.0
H436 H 0.41249 0.31499 0.69589 0.0
H437 H 0.44901 0.30172 0.73779 0.0
H438 H 0.45838 0.14913 0.67415 0.0
H439 H 0.42194 0.16222 0.63154 0.0
H440 H 0.46463 0.22078 0.79685 0.0
H441 H 0.51846 0.23276 0.64033 0.0
H442 H 0.4879 0.25233 0.64211 0.0
H443 H 0.49567 0.18317 0.64056 0.0
C444 C 0.42212 0.27826 0.69116 0.0
C445 C 0.41442 0.2399 0.65999 0.0
C446 C 0.44299 0.27077 0.71516 0.0
C447 C 0.45656 0.22491 0.7084 0.0
C448 C 0.44834 0.18524 0.67917 0.0
H449 H 0.58179 0.16327 0.87381 0.0
H450 H 0.5452 0.14989 0.83171 0.0
C451 C 0.42744 0.19269 0.65508 0.0
C452 C 0.47984 0.22022 0.7304 0.0
H453 H 0.53889 0.22021 0.70855 0.0
C454 C 0.48089 0.22009 0.77764 0.0
C455 C 0.50097 0.22008 0.70507 0.0
C456 C 0.50086 0.22252 0.65422 0.0
C457 C 0.50256 0.22059 0.80033 0.0
C458 C 0.52368 0.22041 0.77499 0.0
C459 C 0.52264 0.21976 0.72777 0.0
C460 C 0.54697 0.22534 0.79693 0.0
C461 C 0.50268 0.22355 0.85116 0.0
C462 C 0.56055 0.27112 0.78973 0.0
C463 C 0.5815 0.27878 0.81344 0.0
C464 C 0.58929 0.24066 0.84473 0.0
C465 C 0.57623 0.19354 0.85014 0.0
C466 C 0.55525 0.18593 0.82635 0.0
H467 H 0.48508 0.23385 0.86499 0.0
H468 H 0.50791 0.18438 0.86511 0.0
H469 H 0.51562 0.25355 0.86302 0.0
H470 H 0.55449 0.30187 0.76694 0.0
H471 H 0.59115 0.31544 0.80833 0.0
H472 H 0.09046 0.81105 0.69518 0.0
H473 H 0.05408 0.7977 0.73762 0.0
H474 H 0.04167 0.65092 0.66647 0.0
H475 H 0.07802 0.66401 0.62353 0.0
H476 H 0.0035 0.72204 0.66473 0.0
H477 H 0.03666 0.69292 0.83875 0.0
H478 H 0.04865 0.7505 0.81127 0.0
H479 H 0.05519 0.6854 0.78962 0.0
C480 C 0.08024 0.77542 0.68906 0.0
C481 C 0.08714 0.73864 0.6559 0.0
C482 C 0.0595 0.76775 0.71352 0.0
C483 C 0.04532 0.7231 0.70542 0.0
C484 C 0.05246 0.68552 0.67331 0.0
H485 H 0.92002 0.6641 0.86939 0.0
H486 H 0.95595 0.64996 0.82546 0.0
C487 C 0.07326 0.69303 0.64892 0.0
C488 C 0.02215 0.71813 0.72788 0.0
H489 H 0.99582 0.71472 0.83122 0.0
C490 C 1.00179 0.71972 0.70111 0.0
C491 C 0.02001 0.71459 0.77524 0.0
C492 C 0.04129 0.71023 0.80543 0.0
C493 C 0.97928 0.72012 0.72063 0.0
C494 C 0.97717 0.71949 0.76811 0.0
C495 C 0.99751 0.7156 0.79479 0.0
C496 C 0.95416 0.72558 0.79097 0.0
C497 C 0.95797 0.72168 0.69032 0.0
C498 C 0.94116 0.77256 0.78571 0.0
C499 C 0.92063 0.7808 0.81071 0.0
C500 C 0.91281 0.74229 0.84166 0.0
C501 C 0.92551 0.69452 0.84579 0.0
C502 C 0.94607 0.68639 0.82082 0.0
H503 H 0.96213 0.70664 0.656 0.0
H504 H 0.94331 0.69774 0.70456 0.0
H505 H 0.95187 0.76339 0.68701 0.0
H506 H 0.94734 0.80372 0.76345 0.0
H507 H 0.91135 0.81812 0.80684 0.0
H508 H 0.42143 0.83726 0.12386 0.0
H509 H 0.45796 0.85237 0.16588 0.0
H510 H 0.44919 0.70172 0.23311 0.0
H511 H 0.41267 0.68641 0.19177 0.0
H512 H 0.464 0.78636 0.29027 0.0
H513 H 0.51865 0.76782 0.13515 0.0
H514 H 0.49547 0.81647 0.13363 0.0
H515 H 0.48822 0.74716 0.1372 0.0
C516 C 0.42711 0.80767 0.14804 0.0
C517 C 0.41424 0.7604 0.1542 0.0
C518 C 0.44804 0.81625 0.17178 0.0
C519 C 0.45641 0.77774 0.20196 0.0
C520 C 0.44305 0.73179 0.20976 0.0
H521 H 0.5894 0.68789 0.30799 0.0
H522 H 0.55322 0.70134 0.26506 0.0
C523 C 0.42219 0.72311 0.18605 0.0
C524 C 0.47957 0.78371 0.22417 0.0
H525 H 0.53873 0.78154 0.20353 0.0
C526 C 0.48036 0.78598 0.27138 0.0
C527 C 0.50082 0.78246 0.19927 0.0
C528 C 0.50092 0.77795 0.14852 0.0
C529 C 0.5019 0.78602 0.29452 0.0
C530 C 0.52316 0.78451 0.26962 0.0
C531 C 0.52237 0.78323 0.22238 0.0
C532 C 0.54627 0.77957 0.29222 0.0
C533 C 0.50174 0.78529 0.3454 0.0
C534 C 0.55471 0.81988 0.32057 0.0
C535 C 0.57541 0.81234 0.34525 0.0
C536 C 0.58801 0.76435 0.34182 0.0
C537 C 0.58009 0.72521 0.31158 0.0
C538 C 0.55942 0.73282 0.28697 0.0
H539 H 0.48398 0.77642 0.35921 0.0
H540 H 0.51433 0.75524 0.35844 0.0
H541 H 0.50728 0.82479 0.35822 0.0
H542 H 0.54498 0.85662 0.32444 0.0
H543 H 0.58109 0.8434 0.36805 0.0
H544 H 0.07305 0.17218 0.0102 0.0
H545 H 0.03523 0.12977 0.99371 0.0
H546 H 0.06301 0.97891 0.03741 0.0
H547 H 0.10079 0.0209 0.05447 0.0
H548 H 0.02261 0.04305 0.93779 0.0
H549 H 0.00493 0.00066 0.11843 0.0
H550 H 0.02776 0.0458 0.10025 0.0
H551 H 0.03247 0.97523 0.09786 0.0
C552 C 0.07125 0.12983 0.01574 0.0
C553 C 0.08991 0.10004 0.03404 0.0
C554 C 0.04959 0.10571 0.00641 0.0
C555 C 0.04618 0.05149 0.01533 0.0
C556 C 0.06512 0.02108 0.03129 0.0
H557 H 0.92873 0.8335 0.99359 0.0
H558 H 0.96622 0.87741 0.00977 0.0
C559 C 0.08677 0.04512 0.04068 0.0
C560 C 0.02265 0.02702 0.00904 0.0
H561 H 0.97807 0.96453 0.06552 0.0
C562 C 0.0128 0.02608 0.96569 0.0
C563 C 0.0099 0.00502 0.04559 0.0
C564 C 0.01915 0.00703 0.09325 0.0
C565 C 0.99074 0.00264 0.95771 0.0
C566 C 0.97803 0.98048 0.99425 0.0
C567 C 0.98785 0.98157 0.03762 0.0
C568 C 0.95468 0.95516 0.9879 0.0
C569 C 0.98149 0.00061 0.91006 0.0
C570 C 0.93551 0.98476 0.97184 0.0
C571 C 0.91403 0.95985 0.96263 0.0
C572 C 0.9113 0.90485 0.96953 0.0
C573 C 0.93021 0.87588 0.98783 0.0
C574 C 0.95168 0.90086 0.997 0.0
H575 H 0.99565 0.00753 0.88487 0.0
H576 H 0.97312 0.96161 0.90295 0.0
H577 H 0.96797 0.032 0.9056 0.0
H578 H 0.9373 0.02697 0.96556 0.0
H579 H 0.89982 0.98343 0.94879 0.0
H580 H 0.5733 0.67516 0.49797 0.0
H581 H 0.5359 0.63236 0.51683 0.0
H582 H 0.56241 0.48302 0.4668 0.0
H583 H 0.59996 0.52518 0.4484 0.0
H584 H 0.50606 0.58421 0.45517 0.0
H585 H 0.53315 0.44025 0.5869 0.0
H586 H 0.55152 0.49531 0.5699 0.0
H587 H 0.55025 0.43605 0.5361 0.0
C588 C 0.57138 0.63295 0.49181 0.0
C589 C 0.58968 0.60359 0.47173 0.0
C590 C 0.54994 0.60862 0.50244 0.0
C591 C 0.54642 0.55443 0.49355 0.0
C592 C 0.56487 0.52466 0.47474 0.0
H593 H 0.42863 0.33651 0.50824 0.0
H594 H 0.46577 0.38141 0.49138 0.0
C595 C 0.58633 0.54892 0.46411 0.0
C596 C 0.52296 0.5299 0.50101 0.0
H597 H 0.49476 0.42917 0.55616 0.0
C598 C 0.50353 0.55056 0.47752 0.0
C599 C 0.51974 0.48586 0.52999 0.0
C600 C 0.53971 0.46331 0.55751 0.0
C601 C 0.48106 0.52768 0.48152 0.0
C602 C 0.47788 0.48345 0.51028 0.0
C603 C 0.49728 0.46295 0.53394 0.0
C604 C 0.45457 0.45792 0.51676 0.0
C605 C 0.46104 0.55022 0.45411 0.0
C606 C 0.43581 0.48625 0.53606 0.0
C607 C 0.41448 0.46074 0.54563 0.0
C608 C 0.41158 0.40629 0.53634 0.0
C609 C 0.43019 0.37849 0.51572 0.0
C610 C 0.45149 0.40402 0.50621 0.0
H611 H 0.46751 0.57475 0.42552 0.0
H612 H 0.44969 0.51801 0.44059 0.0
H613 H 0.45003 0.57594 0.47601 0.0
H614 H 0.43792 0.52766 0.54515 0.0
H615 H 0.40059 0.48328 0.56178 0.0
H616 H 0.42797 0.669 1.00064 0.0
H617 H 0.46577 0.62768 0.98227 0.0
H618 H 0.44056 0.47788 0.03387 0.0
H619 H 0.40266 0.5185 0.05175 0.0
H620 H 0.4958 0.58221 0.04498 0.0
H621 H 0.47072 0.43439 0.91492 0.0
H622 H 0.45173 0.48878 0.93088 0.0
H623 H 0.4534 0.43016 0.96543 0.0
C624 C 0.43026 0.62697 0.00717 0.0
C625 C 0.41224 0.59706 0.02763 0.0
C626 C 0.45192 0.60349 0.99683 0.0
C627 C 0.45593 0.54963 0.0064 0.0
C628 C 0.43773 0.51926 0.02542 0.0
H629 H 0.57538 0.3363 0.99665 0.0
H630 H 0.53788 0.38007 0.0127 0.0
C631 C 0.41607 0.54265 0.03576 0.0
C632 C 0.47964 0.52616 0.99965 0.0
H633 H 0.50895 0.42535 0.94692 0.0
C634 C 0.49874 0.54817 0.02326 0.0
C635 C 0.48339 0.48161 0.9715 0.0
C636 C 0.46377 0.4576 0.94389 0.0
C637 C 0.5214 0.52611 0.02022 0.0
C638 C 0.5251 0.48132 0.99232 0.0
C639 C 0.50604 0.45951 0.96851 0.0
C640 C 0.54865 0.45666 0.98675 0.0
C641 C 0.54105 0.5501 0.04773 0.0
C642 C 0.56728 0.48546 0.9675 0.0
C643 C 0.58881 0.46063 0.95844 0.0
C644 C 0.59203 0.40637 0.96816 0.0
C645 C 0.57356 0.37815 0.98886 0.0
C646 C 0.55206 0.40302 0.99789 0.0
H647 H 0.53419 0.5748 0.07587 0.0
H648 H 0.55263 0.51872 0.06189 0.0
H649 H 0.55193 0.57601 0.02573 0.0
H650 H 0.56492 0.52665 0.95794 0.0
H651 H 0.60258 0.48348 0.94222 0.0
H652 H 0.07435 0.83674 0.50311 0.0
H653 H 0.03727 0.88201 0.48673 0.0
H654 H 0.06491 0.02683 0.54363 0.0
H655 H 0.10218 0.98212 0.55971 0.0
H656 H 0.00821 0.92737 0.55239 0.0
H657 H 0.03534 0.07759 0.42538 0.0
H658 H 0.0533 0.02067 0.43922 0.0
H659 H 0.05271 0.07745 0.47595 0.0
C660 C 0.07276 0.87852 0.51134 0.0
C661 C 0.09128 0.90579 0.53272 0.0
C662 C 0.0515 0.90426 0.5021 0.0
C663 C 0.04837 0.95783 0.51373 0.0
C664 C 0.06707 0.9857 0.53369 0.0
H665 H 0.92899 0.17375 0.49881 0.0
H666 H 0.96646 0.1312 0.51753 0.0
C667 C 0.08836 0.96 0.54296 0.0
C668 C 0.02504 0.98334 0.50785 0.0
H669 H 0.99674 0.08561 0.45517 0.0
C670 C 0.00566 0.96185 0.53099 0.0
C671 C 0.02182 0.02853 0.48021 0.0
C672 C 0.04183 0.05225 0.45342 0.0
C673 C 0.98316 0.98461 0.52754 0.0
C674 C 0.97989 0.02954 0.49961 0.0
C675 C 0.9993 0.05126 0.47671 0.0
C676 C 0.95638 0.05376 0.49243 0.0
C677 C 0.96319 0.96088 0.55444 0.0
C678 C 0.93816 0.02414 0.47269 0.0
C679 C 0.91668 0.04823 0.46214 0.0
C680 C 0.91307 0.10261 0.47077 0.0
C681 C 0.93112 0.13177 0.49185 0.0
C682 C 0.95259 0.1076 0.50241 0.0
H683 H 0.96977 0.93713 0.5834 0.0
H684 H 0.95123 0.99227 0.56739 0.0
H685 H 0.95282 0.93401 0.5324 0.0
H686 H 0.94083 0.9828 0.46392 0.0
H687 H 0.90324 0.02466 0.44567 0.0
loop_
_geom_bond_atom_site_label_1
_geom_bond_atom_site_label_2
_geom_bond_distance
_geom_bond_site_symmetry_2
_ccdc_geom_bond_type
C0 O2 1.247 . S
C0 O4 1.258 . S
C1 O8 1.247 . S
C1 O9 1.258 . S
O2 C0 1.247 . S
O2 Zn3 2.028 . S
Zn3 O2 2.028 . S
Zn3 O7 2.035 . S
Zn3 O9 2.035 . S
Zn3 O10 2.028 . S
O4 C0 1.258 . S
O4 Zn5 2.035 . S
Zn5 O4 2.035 . S
Zn5 O6 2.028 . S
Zn5 O8 2.028 . S
Zn5 O11 2.035 . S
O6 Zn5 2.028 . S
O6 C12 1.247 . S
O7 Zn3 2.035 . S
O7 C12 1.258 . S
O8 C1 1.247 . S
O8 Zn5 2.028 . S
O9 C1 1.258 . S
O9 Zn3 2.035 . S
O10 Zn3 2.028 . S
O10 C13 1.247 . S
O11 Zn5 2.035 . S
O11 C13 1.258 . S
C12 O6 1.247 . S
C12 O7 1.258 . S
C13 O10 1.247 . S
C13 O11 1.258 . S
C14 O16 1.247 . S
C14 O18 1.258 . S
C15 O22 1.247 . S
C15 O23 1.258 . S
O16 C14 1.247 . S
O16 Zn17 2.028 . S
Zn17 O16 2.028 . S
Zn17 O21 2.035 . S
Zn17 O23 2.035 . S
Zn17 O24 2.028 . S
O18 C14 1.258 . S
O18 Zn19 2.035 . S
Zn19 O18 2.035 . S
Zn19 O20 2.028 . S
Zn19 O22 2.028 . S
Zn19 O25 2.035 . S
O20 Zn19 2.028 . S
O20 C26 1.247 . S
O21 Zn17 2.035 . S
O21 C26 1.258 . S
O22 C15 1.247 . S
O22 Zn19 2.028 . S
O23 C15 1.258 . S
O23 Zn17 2.035 . S
O24 Zn17 2.028 . S
O24 C27 1.247 . S
O25 Zn19 2.035 . S
O25 C27 1.258 . S
C26 O20 1.247 . S
C26 O21 1.258 . S
C27 O24 1.247 . S
C27 O25 1.258 . S
C28 O30 1.247 . S
C28 O32 1.258 . S
C29 O36 1.247 . S
C29 O37 1.258 . S
O30 C28 1.247 . S
O30 Zn31 2.028 . S
Zn31 O30 2.028 . S
Zn31 O35 2.035 . S
Zn31 O37 2.035 . S
Zn31 O38 2.028 . S
O32 C28 1.258 . S
O32 Zn33 2.035 . S
Zn33 O32 2.035 . S
Zn33 O34 2.028 . S
Zn33 O36 2.028 . S
Zn33 O39 2.035 . S
O34 Zn33 2.028 . S
O34 C40 1.247 . S
O35 Zn31 2.035 . S
O35 C40 1.258 . S
O36 C29 1.247 . S
O36 Zn33 2.028 . S
O37 C29 1.258 . S
O37 Zn31 2.035 . S
O38 Zn31 2.028 . S
O38 C41 1.247 . S
O39 Zn33 2.035 . S
O39 C41 1.258 . S
C40 O34 1.247 . S
C40 O35 1.258 . S
C41 O38 1.247 . S
C41 O39 1.258 . S
C42 O44 1.247 . S
C42 O46 1.258 . S
C43 O50 1.247 . S
C43 O51 1.258 . S
O44 C42 1.247 . S
O44 Zn45 2.028 . S
Zn45 O44 2.028 . S
Zn45 O49 2.035 . S
Zn45 O51 2.035 . S
Zn45 O52 2.028 . S
O46 C42 1.258 . S
O46 Zn47 2.035 . S
Zn47 O46 2.035 . S
Zn47 O48 2.028 . S
Zn47 O50 2.028 . S
Zn47 O53 2.035 . S
O48 Zn47 2.028 . S
O48 C54 1.247 . S
O49 Zn45 2.035 . S
O49 C54 1.258 . S
O50 C43 1.247 . S
O50 Zn47 2.028 . S
O51 C43 1.258 . S
O51 Zn45 2.035 . S
O52 Zn45 2.028 . S
O52 C55 1.247 . S
O53 Zn47 2.035 . S
O53 C55 1.258 . S
C54 O48 1.247 . S
C54 O49 1.258 . S
C55 O52 1.247 . S
C55 O53 1.258 . S
C56 O58 1.247 . S
C56 O60 1.258 . S
C57 O64 1.247 . S
C57 O65 1.258 . S
O58 C56 1.247 . S
O58 Zn59 2.028 . S
Zn59 O58 2.028 . S
Zn59 O63 2.035 . S
Zn59 O65 2.035 . S
Zn59 O66 2.028 . S
O60 C56 1.258 . S
O60 Zn61 2.035 . S
Zn61 O60 2.035 . S
Zn61 O62 2.028 . S
Zn61 O64 2.028 . S
Zn61 O67 2.035 . S
O62 Zn61 2.028 . S
O62 C68 1.247 . S
O63 Zn59 2.035 . S
O63 C68 1.258 . S
O64 C57 1.247 . S
O64 Zn61 2.028 . S
O65 C57 1.258 . S
O65 Zn59 2.035 . S
O66 Zn59 2.028 . S
O66 C69 1.247 . S
O67 Zn61 2.035 . S
O67 C69 1.258 . S
C68 O62 1.247 . S
C68 O63 1.258 . S
C69 O66 1.247 . S
C69 O67 1.258 . S
C70 O72 1.247 . S
C70 O74 1.258 . S
C71 O78 1.247 . S
C71 O79 1.258 . S
O72 C70 1.247 . S
O72 Zn73 2.028 . S
Zn73 O72 2.028 . S
Zn73 O77 2.035 . S
Zn73 O79 2.035 . S
Zn73 O80 2.028 . S
O74 C70 1.258 . S
O74 Zn75 2.035 . S
Zn75 O74 2.035 . S
Zn75 O76 2.028 . S
Zn75 O78 2.028 . S
Zn75 O81 2.035 . S
O76 Zn75 2.028 . S
O76 C82 1.247 . S
O77 Zn73 2.035 . S
O77 C82 1.258 . S
O78 C71 1.247 . S
O78 Zn75 2.028 . S
O79 C71 1.258 . S
O79 Zn73 2.035 . S
O80 Zn73 2.028 . S
O80 C83 1.247 . S
O81 Zn75 2.035 . S
O81 C83 1.258 . S
C82 O76 1.247 . S
C82 O77 1.258 . S
C83 O80 1.247 . S
C83 O81 1.258 . S
C84 O86 1.247 . S
C84 O88 1.258 . S
C85 O92 1.247 . S
C85 O93 1.258 . S
O86 C84 1.247 . S
O86 Zn87 2.028 . S
Zn87 O86 2.028 . S
Zn87 O91 2.035 . S
Zn87 O93 2.035 . S
Zn87 O94 2.028 . S
O88 C84 1.258 . S
O88 Zn89 2.035 . S
Zn89 O88 2.035 . S
Zn89 O90 2.028 . S
Zn89 O92 2.028 . S
Zn89 O95 2.035 . S
O90 Zn89 2.028 . S
O90 C96 1.247 . S
O91 Zn87 2.035 . S
O91 C96 1.258 . S
O92 C85 1.247 . S
O92 Zn89 2.028 . S
O93 C85 1.258 . S
O93 Zn87 2.035 . S
O94 Zn87 2.028 . S
O94 C97 1.247 . S
O95 Zn89 2.035 . S
O95 C97 1.258 . S
C96 O90 1.247 . S
C96 O91 1.258 . S
C97 O94 1.247 . S
C97 O95 1.258 . S
C98 O100 1.247 . S
C98 O102 1.258 . S
C99 O106 1.247 . S
C99 O107 1.258 . S
O100 C98 1.247 . S
O100 Zn101 2.028 . S
Zn101 O100 2.028 . S
Zn101 O105 2.035 . S
Zn101 O107 2.035 . S
Zn101 O108 2.028 . S
O102 C98 1.258 . S
O102 Zn103 2.035 . S
Zn103 O102 2.035 . S
Zn103 O104 2.028 . S
Zn103 O106 2.028 . S
Zn103 O109 2.035 . S
O104 Zn103 2.028 . S
O104 C110 1.247 . S
O105 Zn101 2.035 . S
O105 C110 1.258 . S
O106 C99 1.247 . S
O106 Zn103 2.028 . S
O107 C99 1.258 . S
O107 Zn101 2.035 . S
O108 Zn101 2.028 . S
O108 C111 1.247 . S
O109 Zn103 2.035 . S
O109 C111 1.258 . S
C110 O104 1.247 . S
C110 O105 1.258 . S
C111 O108 1.247 . S
C111 O109 1.258 . S
H112 C120 0.929 . S
H113 C122 0.930 . S
H114 C124 0.930 . S
H115 C127 0.929 . S
H116 C130 0.930 . S
H117 C132 0.960 . S
H118 C132 0.960 . S
H119 C132 0.960 . S
C120 H112 0.929 . S
C120 C121 1.377 . S
C120 C122 1.384 . S
C121 C120 1.377 . S
C121 C127 1.390 . S
C122 H113 0.930 . S
C122 C120 1.384 . S
C122 C123 1.372 . S
C123 C122 1.372 . S
C123 C124 1.400 . S
C123 C128 1.490 . S
C124 H114 0.930 . S
C124 C123 1.400 . S
C124 C127 1.386 . S
H125 C141 0.930 . S
H126 C142 0.931 . S
C127 H115 0.929 . S
C127 C121 1.390 . S
C127 C124 1.386 . S
C128 C123 1.490 . S
C128 C130 1.395 . S
C128 C131 1.403 . S
H129 C135 0.930 . S
C130 H116 0.930 . S
C130 C128 1.395 . S
C130 C133 1.403 . S
C131 C128 1.403 . S
C131 C132 1.524 . S
C131 C135 1.400 . S
C132 H117 0.960 . S
C132 H118 0.960 . S
C132 H119 0.960 . S
C132 C131 1.524 . S
C133 C130 1.403 . S
C133 C134 1.392 . S
C133 C137 1.495 . S
C134 C133 1.392 . S
C134 C135 1.385 . S
C134 C136 1.478 . S
C135 H129 0.930 . S
C135 C131 1.400 . S
C135 C134 1.385 . S
C136 C134 1.478 . S
C136 C138 1.381 . S
C136 C142 1.383 . S
C137 C133 1.495 . S
C137 H143 0.959 . S
C137 H144 0.961 . S
C137 H145 0.960 . S
C138 C136 1.381 . S
C138 C139 1.394 . S
C138 H146 0.930 . S
C139 C138 1.394 . S
C139 C140 1.383 . S
C139 H147 0.929 1_556 S
C140 C139 1.383 . S
C140 C141 1.377 . S
C141 H125 0.930 . S
C141 C140 1.377 . S
C141 C142 1.379 . S
C142 H126 0.931 . S
C142 C136 1.383 . S
C142 C141 1.379 . S
H143 C137 0.959 . S
H144 C137 0.961 . S
H145 C137 0.960 . S
H146 C138 0.930 . S
H147 C139 0.929 1_554 S
H148 C156 0.929 . S
H149 C158 0.930 . S
H150 C160 0.930 . S
H151 C163 0.929 . S
H152 C166 0.930 . S
H153 C168 0.960 . S
H154 C168 0.960 . S
H155 C168 0.960 . S
C156 H148 0.929 . S
C156 C157 1.377 . S
C156 C158 1.384 . S
C157 C156 1.377 . S
C157 C163 1.390 . S
C158 H149 0.930 . S
C158 C156 1.384 . S
C158 C159 1.372 . S
C159 C158 1.372 . S
C159 C160 1.400 . S
C159 C164 1.490 . S
C160 H150 0.930 . S
C160 C159 1.400 . S
C160 C163 1.386 . S
H161 C177 0.930 . S
H162 C178 0.931 . S
C163 H151 0.929 . S
C163 C157 1.390 . S
C163 C160 1.386 . S
C164 C159 1.490 . S
C164 C166 1.395 . S
C164 C167 1.403 . S
H165 C171 0.930 . S
C166 H152 0.930 . S
C166 C164 1.395 . S
C166 C169 1.403 . S
C167 C164 1.403 . S
C167 C168 1.524 . S
C167 C171 1.400 . S
C168 H153 0.960 . S
C168 H154 0.960 . S
C168 H155 0.960 . S
C168 C167 1.524 . S
C169 C166 1.403 . S
C169 C170 1.392 . S
C169 C173 1.495 . S
C170 C169 1.392 . S
C170 C171 1.385 . S
C170 C172 1.478 . S
C171 H165 0.930 . S
C171 C167 1.400 . S
C171 C170 1.385 . S
C172 C170 1.478 . S
C172 C174 1.381 . S
C172 C178 1.383 . S
C173 C169 1.495 . S
C173 H179 0.959 . S
C173 H180 0.961 . S
C173 H181 0.960 . S
C174 C172 1.381 . S
C174 C175 1.394 . S
C174 H182 0.930 . S
C175 C174 1.394 . S
C175 C176 1.383 . S
C175 H183 0.929 . S
C176 C175 1.383 . S
C176 C177 1.377 . S
C177 H161 0.930 . S
C177 C176 1.377 . S
C177 C178 1.379 . S
C178 H162 0.931 . S
C178 C172 1.383 . S
C178 C177 1.379 . S
H179 C173 0.959 . S
H180 C173 0.961 . S
H181 C173 0.960 . S
H182 C174 0.930 . S
H183 C175 0.929 . S
H184 C192 0.929 . S
H185 C194 0.930 . S
H186 C196 0.930 . S
H187 C199 0.929 . S
H188 C202 0.930 . S
H189 C204 0.960 . S
H190 C204 0.960 . S
H191 C204 0.960 . S
C192 H184 0.929 . S
C192 C193 1.377 . S
C192 C194 1.384 . S
C193 C192 1.377 . S
C193 C199 1.390 . S
C194 H185 0.930 . S
C194 C192 1.384 . S
C194 C195 1.372 . S
C195 C194 1.372 . S
C195 C196 1.400 . S
C195 C200 1.490 . S
C196 H186 0.930 . S
C196 C195 1.400 . S
C196 C199 1.386 . S
H197 C213 0.930 1_556 S
H198 C214 0.931 . S
C199 H187 0.929 . S
C199 C193 1.390 . S
C199 C196 1.386 . S
C200 C195 1.490 . S
C200 C202 1.395 . S
C200 C203 1.403 . S
H201 C207 0.930 . S
C202 H188 0.930 . S
C202 C200 1.395 . S
C202 C205 1.403 . S
C203 C200 1.403 . S
C203 C204 1.524 . S
C203 C207 1.400 . S
C204 H189 0.960 . S
C204 H190 0.960 . S
C204 H191 0.960 . S
C204 C203 1.524 . S
C205 C202 1.403 . S
C205 C206 1.392 . S
C205 C209 1.495 . S
C206 C205 1.392 . S
C206 C207 1.385 . S
C206 C208 1.478 . S
C207 H201 0.930 . S
C207 C203 1.400 . S
C207 C206 1.385 . S
C208 C206 1.478 . S
C208 C210 1.381 . S
C208 C214 1.383 . S
C209 C205 1.495 . S
C209 H215 0.959 . S
C209 H216 0.961 . S
C209 H217 0.960 . S
C210 C208 1.381 . S
C210 C211 1.394 . S
C210 H218 0.930 . S
C211 C210 1.394 . S
C211 C212 1.383 . S
C211 H219 0.929 . S
C212 C211 1.383 . S
C212 C213 1.377 . S
C213 H197 0.930 1_554 S
C213 C212 1.377 . S
C213 C214 1.379 . S
C214 H198 0.931 . S
C214 C208 1.383 . S
C214 C213 1.379 . S
H215 C209 0.959 . S
H216 C209 0.961 . S
H217 C209 0.960 . S
H218 C210 0.930 . S
H219 C211 0.929 . S
H220 C228 0.929 . S
H221 C230 0.930 . S
H222 C232 0.930 . S
H223 C235 0.929 . S
H224 C238 0.930 . S
H225 C240 0.960 . S
H226 C240 0.960 . S
H227 C240 0.960 . S
C228 H220 0.929 . S
C228 C229 1.377 . S
C228 C230 1.384 . S
C229 C228 1.377 . S
C229 C235 1.390 . S
C230 H221 0.930 . S
C230 C228 1.384 . S
C230 C231 1.372 . S
C231 C230 1.372 . S
C231 C232 1.400 . S
C231 C236 1.490 . S
C232 H222 0.930 . S
C232 C231 1.400 . S
C232 C235 1.386 . S
H233 C249 0.930 . S
H234 C250 0.931 . S
C235 H223 0.929 . S
C235 C229 1.390 . S
C235 C232 1.386 . S
C236 C231 1.490 . S
C236 C238 1.395 . S
C236 C239 1.403 . S
H237 C243 0.930 . S
C238 H224 0.930 . S
C238 C236 1.395 . S
C238 C241 1.403 . S
C239 C236 1.403 . S
C239 C240 1.524 . S
C239 C243 1.400 . S
C240 H225 0.960 . S
C240 H226 0.960 . S
C240 H227 0.960 . S
C240 C239 1.524 . S
C241 C238 1.403 . S
C241 C242 1.392 . S
C241 C245 1.495 . S
C242 C241 1.392 . S
C242 C243 1.385 . S
C242 C244 1.478 . S
C243 H237 0.930 . S
C243 C239 1.400 . S
C243 C242 1.385 . S
C244 C242 1.478 . S
C244 C246 1.381 . S
C244 C250 1.383 . S
C245 C241 1.495 . S
C245 H251 0.959 . S
C245 H252 0.961 . S
C245 H253 0.960 . S
C246 C244 1.381 . S
C246 C247 1.394 . S
C246 H254 0.930 . S
C247 C246 1.394 . S
C247 C248 1.383 . S
C247 H255 0.929 . S
C248 C247 1.383 . S
C248 C249 1.377 . S
C249 H233 0.930 . S
C249 C248 1.377 . S
C249 C250 1.379 . S
C250 H234 0.931 . S
C250 C244 1.383 . S
C250 C249 1.379 . S
H251 C245 0.959 . S
H252 C245 0.961 . S
H253 C245 0.960 . S
H254 C246 0.930 . S
H255 C247 0.929 . S
H256 C264 0.929 . S
H257 C266 0.930 . S
H258 C268 0.930 . S
H259 C271 0.929 . S
H260 C274 0.930 . S
H261 C276 0.960 . S
H262 C276 0.960 . S
H263 C276 0.960 . S
C264 H256 0.929 . S
C264 C265 1.377 . S
C264 C266 1.384 . S
C265 C264 1.377 . S
C265 C271 1.390 . S
C266 H257 0.930 . S
C266 C264 1.384 . S
C266 C267 1.372 . S
C267 C266 1.372 . S
C267 C268 1.400 . S
C267 C272 1.490 . S
C268 H258 0.930 . S
C268 C267 1.400 . S
C268 C271 1.386 . S
H269 C285 0.930 . S
H270 C286 0.931 . S
C271 H259 0.929 . S
C271 C265 1.390 . S
C271 C268 1.386 . S
C272 C267 1.490 . S
C272 C274 1.395 . S
C272 C275 1.403 . S
H273 C279 0.930 . S
C274 H260 0.930 . S
C274 C272 1.395 . S
C274 C277 1.403 . S
C275 C272 1.403 . S
C275 C276 1.524 . S
C275 C279 1.400 . S
C276 H261 0.960 . S
C276 H262 0.960 . S
C276 H263 0.960 . S
C276 C275 1.524 . S
C277 C274 1.403 . S
C277 C278 1.392 . S
C277 C281 1.495 . S
C278 C277 1.392 . S
C278 C279 1.385 . S
C278 C280 1.478 . S
C279 H273 0.930 . S
C279 C275 1.400 . S
C279 C278 1.385 . S
C280 C278 1.478 . S
C280 C282 1.381 . S
C280 C286 1.383 . S
C281 C277 1.495 . S
C281 H287 0.959 . S
C281 H288 0.961 . S
C281 H289 0.960 . S
C282 C280 1.381 . S
C282 C283 1.394 . S
C282 H290 0.930 . S
C283 C282 1.394 . S
C283 C284 1.383 . S
C283 H291 0.929 . S
C284 C283 1.383 . S
C284 C285 1.377 . S
C285 H269 0.930 . S
C285 C284 1.377 . S
C285 C286 1.379 . S
C286 H270 0.931 . S
C286 C280 1.383 . S
C286 C285 1.379 . S
H287 C281 0.959 . S
H288 C281 0.961 . S
H289 C281 0.960 . S
H290 C282 0.930 . S
H291 C283 0.929 . S
H292 C300 0.929 . S
H293 C302 0.930 . S
H294 C304 0.930 . S
H295 C307 0.929 . S
H296 C310 0.930 . S
H297 C312 0.960 . S
H298 C312 0.960 . S
H299 C312 0.960 . S
C300 H292 0.929 . S
C300 C301 1.377 . S
C300 C302 1.384 . S
C301 C300 1.377 . S
C301 C307 1.390 . S
C302 H293 0.930 . S
C302 C300 1.384 . S
C302 C303 1.372 . S
C303 C302 1.372 . S
C303 C304 1.400 . S
C303 C308 1.490 . S
C304 H294 0.930 . S
C304 C303 1.400 . S
C304 C307 1.386 . S
H305 C321 0.930 . S
H306 C322 0.931 . S
C307 H295 0.929 . S
C307 C301 1.390 . S
C307 C304 1.386 . S
C308 C303 1.490 . S
C308 C310 1.395 . S
C308 C311 1.403 . S
H309 C315 0.930 . S
C310 H296 0.930 . S
C310 C308 1.395 . S
C310 C313 1.403 . S
C311 C308 1.403 . S
C311 C312 1.524 . S
C311 C315 1.400 . S
C312 H297 0.960 . S
C312 H298 0.960 . S
C312 H299 0.960 . S
C312 C311 1.524 . S
C313 C310 1.403 . S
C313 C314 1.392 . S
C313 C317 1.495 . S
C314 C313 1.392 . S
C314 C315 1.385 . S
C314 C316 1.478 . S
C315 H309 0.930 . S
C315 C311 1.400 . S
C315 C314 1.385 . S
C316 C314 1.478 . S
C316 C318 1.381 . S
C316 C322 1.383 . S
C317 C313 1.495 . S
C317 H323 0.959 . S
C317 H324 0.961 . S
C317 H325 0.960 . S
C318 C316 1.381 . S
C318 C319 1.394 . S
C318 H326 0.930 . S
C319 C318 1.394 . S
C319 C320 1.383 . S
C319 H327 0.929 . S
C320 C319 1.383 . S
C320 C321 1.377 . S
C321 H305 0.930 . S
C321 C320 1.377 . S
C321 C322 1.379 . S
C322 H306 0.931 . S
C322 C316 1.383 . S
C322 C321 1.379 . S
H323 C317 0.959 . S
H324 C317 0.961 . S
H325 C317 0.960 . S
H326 C318 0.930 . S
H327 C319 0.929 . S
H328 C336 0.929 . S
H329 C338 0.930 . S
H330 C340 0.930 . S
H331 C343 0.929 1_554 S
H332 C346 0.930 . S
H333 C348 0.960 . S
H334 C348 0.960 . S
H335 C348 0.960 . S
C336 H328 0.929 . S
C336 C337 1.377 . S
C336 C338 1.384 . S
C337 C336 1.377 . S
C337 C343 1.390 . S
C338 H329 0.930 . S
C338 C336 1.384 . S
C338 C339 1.372 . S
C339 C338 1.372 . S
C339 C340 1.400 . S
C339 C344 1.490 . S
C340 H330 0.930 . S
C340 C339 1.400 . S
C340 C343 1.386 . S
H341 C357 0.930 . S
H342 C358 0.931 . S
C343 H331 0.929 1_556 S
C343 C337 1.390 . S
C343 C340 1.386 . S
C344 C339 1.490 . S
C344 C346 1.395 . S
C344 C347 1.403 . S
H345 C351 0.930 . S
C346 H332 0.930 . S
C346 C344 1.395 . S
C346 C349 1.403 . S
C347 C344 1.403 . S
C347 C348 1.524 . S
C347 C351 1.400 . S
C348 H333 0.960 . S
C348 H334 0.960 . S
C348 H335 0.960 . S
C348 C347 1.524 . S
C349 C346 1.403 . S
C349 C350 1.392 . S
C349 C353 1.495 . S
C350 C349 1.392 . S
C350 C351 1.385 . S
C350 C352 1.478 . S
C351 H345 0.930 . S
C351 C347 1.400 . S
C351 C350 1.385 . S
C352 C350 1.478 . S
C352 C354 1.381 . S
C352 C358 1.383 . S
C353 C349 1.495 . S
C353 H359 0.959 . S
C353 H360 0.961 . S
C353 H361 0.960 . S
C354 C352 1.381 . S
C354 C355 1.394 . S
C354 H362 0.930 . S
C355 C354 1.394 . S
C355 C356 1.383 . S
C355 H363 0.929 . S
C356 C355 1.383 . S
C356 C357 1.377 . S
C357 H341 0.930 . S
C357 C356 1.377 . S
C357 C358 1.379 . S
C358 H342 0.931 . S
C358 C352 1.383 . S
C358 C357 1.379 . S
H359 C353 0.959 . S
H360 C353 0.961 . S
H361 C353 0.960 . S
H362 C354 0.930 . S
H363 C355 0.929 . S
H364 C372 0.929 . S
H365 C374 0.930 . S
H366 C376 0.930 . S
H367 C379 0.929 . S
H368 C382 0.930 . S
H369 C384 0.960 . S
H370 C384 0.960 . S
H371 C384 0.960 . S
C372 H364 0.929 . S
C372 C373 1.377 . S
C372 C374 1.384 . S
C373 C372 1.377 . S
C373 C379 1.390 . S
C374 H365 0.930 . S
C374 C372 1.384 . S
C374 C375 1.372 . S
C375 C374 1.372 . S
C375 C376 1.400 . S
C375 C380 1.490 . S
C376 H366 0.930 . S
C376 C375 1.400 . S
C376 C379 1.386 . S
H377 C393 0.930 . S
H378 C394 0.931 . S
C379 H367 0.929 . S
C379 C373 1.390 . S
C379 C376 1.386 . S
C380 C375 1.490 . S
C380 C382 1.395 . S
C380 C383 1.403 . S
H381 C387 0.930 . S
C382 H368 0.930 . S
C382 C380 1.395 . S
C382 C385 1.403 . S
C383 C380 1.403 . S
C383 C384 1.524 . S
C383 C387 1.400 . S
C384 H369 0.960 . S
C384 H370 0.960 . S
C384 H371 0.960 . S
C384 C383 1.524 . S
C385 C382 1.403 . S
C385 C386 1.392 . S
C385 C389 1.495 . S
C386 C385 1.392 . S
C386 C387 1.385 . S
C386 C388 1.478 . S
C387 H381 0.930 . S
C387 C383 1.400 . S
C387 C386 1.385 . S
C388 C386 1.478 . S
C388 C390 1.381 . S
C388 C394 1.383 . S
C389 C385 1.495 . S
C389 H395 0.959 . S
C389 H396 0.961 . S
C389 H397 0.960 . S
C390 C388 1.381 . S
C390 C391 1.394 . S
C390 H398 0.930 . S
C391 C390 1.394 . S
C391 C392 1.383 . S
C391 H399 0.929 . S
C392 C391 1.383 . S
C392 C393 1.377 . S
C393 H377 0.930 . S
C393 C392 1.377 . S
C393 C394 1.379 . S
C394 H378 0.931 . S
C394 C388 1.383 . S
C394 C393 1.379 . S
H395 C389 0.959 . S
H396 C389 0.961 . S
H397 C389 0.960 . S
H398 C390 0.930 . S
H399 C391 0.929 . S
H400 C408 0.929 . S
H401 C410 0.930 . S
H402 C412 0.930 . S
H403 C415 0.929 . S
H404 C418 0.930 . S
H405 C420 0.960 . S
H406 C420 0.960 . S
H407 C420 0.960 . S
C408 H400 0.929 . S
C408 C409 1.377 . S
C408 C410 1.384 . S
C409 C408 1.377 . S
C409 C415 1.390 . S
C410 H401 0.930 . S
C410 C408 1.384 . S
C410 C411 1.372 . S
C411 C410 1.372 . S
C411 C412 1.400 . S
C411 C416 1.490 . S
C412 H402 0.930 . S
C412 C411 1.400 . S
C412 C415 1.386 . S
H413 C429 0.930 . S
H414 C430 0.931 . S
C415 H403 0.929 . S
C415 C409 1.390 . S
C415 C412 1.386 . S
C416 C411 1.490 . S
C416 C418 1.395 . S
C416 C419 1.403 . S
H417 C423 0.930 . S
C418 H404 0.930 . S
C418 C416 1.395 . S
C418 C421 1.403 1_455 S
C419 C416 1.403 . S
C419 C420 1.524 . S
C419 C423 1.400 1_455 S
C420 H405 0.960 . S
C420 H406 0.960 . S
C420 H407 0.960 . S
C420 C419 1.524 . S
C421 C418 1.403 1_655 S
C421 C422 1.392 . S
C421 C425 1.495 . S
C422 C421 1.392 . S
C422 C423 1.385 . S
C422 C424 1.478 . S
C423 H417 0.930 . S
C423 C419 1.400 1_655 S
C423 C422 1.385 . S
C424 C422 1.478 . S
C424 C426 1.381 . S
C424 C430 1.383 . S
C425 C421 1.495 . S
C425 H431 0.959 . S
C425 H432 0.961 . S
C425 H433 0.960 . S
C426 C424 1.381 . S
C426 C427 1.394 . S
C426 H434 0.930 . S
C427 C426 1.394 . S
C427 C428 1.383 . S
C427 H435 0.929 . S
C428 C427 1.383 . S
C428 C429 1.377 . S
C429 H413 0.930 . S
C429 C428 1.377 . S
C429 C430 1.379 . S
C430 H414 0.931 . S
C430 C424 1.383 . S
C430 C429 1.379 . S
H431 C425 0.959 . S
H432 C425 0.961 . S
H433 C425 0.960 . S
H434 C426 0.930 . S
H435 C427 0.929 . S
H436 C444 0.929 . S
H437 C446 0.930 . S
H438 C448 0.930 . S
H439 C451 0.929 . S
H440 C454 0.930 . S
H441 C456 0.960 . S
H442 C456 0.960 . S
H443 C456 0.960 . S
C444 H436 0.929 . S
C444 C445 1.377 . S
C444 C446 1.384 . S
C445 C444 1.377 . S
C445 C451 1.390 . S
C446 H437 0.930 . S
C446 C444 1.384 . S
C446 C447 1.372 . S
C447 C446 1.372 . S
C447 C448 1.400 . S
C447 C452 1.490 . S
C448 H438 0.930 . S
C448 C447 1.400 . S
C448 C451 1.386 . S
H449 C465 0.930 . S
H450 C466 0.931 . S
C451 H439 0.929 . S
C451 C445 1.390 . S
C451 C448 1.386 . S
C452 C447 1.490 . S
C452 C454 1.395 . S
C452 C455 1.403 . S
H453 C459 0.930 . S
C454 H440 0.930 . S
C454 C452 1.395 . S
C454 C457 1.403 . S
C455 C452 1.403 . S
C455 C456 1.524 . S
C455 C459 1.400 . S
C456 H441 0.960 . S
C456 H442 0.960 . S
C456 H443 0.960 . S
C456 C455 1.524 . S
C457 C454 1.403 . S
C457 C458 1.392 . S
C457 C461 1.495 . S
C458 C457 1.392 . S
C458 C459 1.385 . S
C458 C460 1.478 . S
C459 H453 0.930 . S
C459 C455 1.400 . S
C459 C458 1.385 . S
C460 C458 1.478 . S
C460 C462 1.381 . S
C460 C466 1.383 . S
C461 C457 1.495 . S
C461 H467 0.959 . S
C461 H468 0.961 . S
C461 H469 0.960 . S
C462 C460 1.381 . S
C462 C463 1.394 . S
C462 H470 0.930 . S
C463 C462 1.394 . S
C463 C464 1.383 . S
C463 H471 0.929 . S
C464 C463 1.383 . S
C464 C465 1.377 . S
C465 H449 0.930 . S
C465 C464 1.377 . S
C465 C466 1.379 . S
C466 H450 0.931 . S
C466 C460 1.383 . S
C466 C465 1.379 . S
H467 C461 0.959 . S
H468 C461 0.961 . S
H469 C461 0.960 . S
H470 C462 0.930 . S
H471 C463 0.929 . S
H472 C480 0.929 . S
H473 C482 0.930 . S
H474 C484 0.930 . S
H475 C487 0.929 . S
H476 C490 0.930 . S
H477 C492 0.960 . S
H478 C492 0.960 . S
H479 C492 0.960 . S
C480 H472 0.929 . S
C480 C481 1.377 . S
C480 C482 1.384 . S
C481 C480 1.377 . S
C481 C487 1.390 . S
C482 H473 0.930 . S
C482 C480 1.384 . S
C482 C483 1.372 . S
C483 C482 1.372 . S
C483 C484 1.400 . S
C483 C488 1.490 . S
C484 H474 0.930 . S
C484 C483 1.400 . S
C484 C487 1.386 . S
H485 C501 0.930 . S
H486 C502 0.931 . S
C487 H475 0.929 . S
C487 C481 1.390 . S
C487 C484 1.386 . S
C488 C483 1.490 . S
C488 C490 1.395 . S
C488 C491 1.403 . S
H489 C495 0.930 . S
C490 H476 0.930 . S
C490 C488 1.395 . S
C490 C493 1.403 1_455 S
C491 C488 1.403 . S
C491 C492 1.524 . S
C491 C495 1.400 1_455 S
C492 H477 0.960 . S
C492 H478 0.960 . S
C492 H479 0.960 . S
C492 C491 1.524 . S
C493 C490 1.403 1_655 S
C493 C494 1.392 . S
C493 C497 1.495 . S
C494 C493 1.392 . S
C494 C495 1.385 . S
C494 C496 1.478 . S
C495 H489 0.930 . S
C495 C491 1.400 1_655 S
C495 C494 1.385 . S
C496 C494 1.478 . S
C496 C498 1.381 . S
C496 C502 1.383 . S
C497 C493 1.495 . S
C497 H503 0.959 . S
C497 H504 0.961 . S
C497 H505 0.960 . S
C498 C496 1.381 . S
C498 C499 1.394 . S
C498 H506 0.930 . S
C499 C498 1.394 . S
C499 C500 1.383 . S
C499 H507 0.929 . S
C500 C499 1.383 . S
C500 C501 1.377 . S
C501 H485 0.930 . S
C501 C500 1.377 . S
C501 C502 1.379 . S
C502 H486 0.931 . S
C502 C496 1.383 . S
C502 C501 1.379 . S
H503 C497 0.959 . S
H504 C497 0.961 . S
H505 C497 0.960 . S
H506 C498 0.930 . S
H507 C499 0.929 . S
H508 C516 0.929 . S
H509 C518 0.930 . S
H510 C520 0.930 . S
H511 C523 0.929 . S
H512 C526 0.930 . S
H513 C528 0.960 . S
H514 C528 0.960 . S
H515 C528 0.960 . S
C516 H508 0.929 . S
C516 C517 1.377 . S
C516 C518 1.384 . S
C517 C516 1.377 . S
C517 C523 1.390 . S
C518 H509 0.930 . S
C518 C516 1.384 . S
C518 C519 1.372 . S
C519 C518 1.372 . S
C519 C520 1.400 . S
C519 C524 1.490 . S
C520 H510 0.930 . S
C520 C519 1.400 . S
C520 C523 1.386 . S
H521 C537 0.930 . S
H522 C538 0.931 . S
C523 H511 0.929 . S
C523 C517 1.390 . S
C523 C520 1.386 . S
C524 C519 1.490 . S
C524 C526 1.395 . S
C524 C527 1.403 . S
H525 C531 0.930 . S
C526 H512 0.930 . S
C526 C524 1.395 . S
C526 C529 1.403 . S
C527 C524 1.403 . S
C527 C528 1.524 . S
C527 C531 1.400 . S
C528 H513 0.960 . S
C528 H514 0.960 . S
C528 H515 0.960 . S
C528 C527 1.524 . S
C529 C526 1.403 . S
C529 C530 1.392 . S
C529 C533 1.495 . S
C530 C529 1.392 . S
C530 C531 1.385 . S
C530 C532 1.478 . S
C531 H525 0.930 . S
C531 C527 1.400 . S
C531 C530 1.385 . S
C532 C530 1.478 . S
C532 C534 1.381 . S
C532 C538 1.383 . S
C533 C529 1.495 . S
C533 H539 0.959 . S
C533 H540 0.961 . S
C533 H541 0.960 . S
C534 C532 1.381 . S
C534 C535 1.394 . S
C534 H542 0.930 . S
C535 C534 1.394 . S
C535 C536 1.383 . S
C535 H543 0.929 . S
C536 C535 1.383 . S
C536 C537 1.377 . S
C537 H521 0.930 . S
C537 C536 1.377 . S
C537 C538 1.379 . S
C538 H522 0.931 . S
C538 C532 1.383 . S
C538 C537 1.379 . S
H539 C533 0.959 . S
H540 C533 0.961 . S
H541 C533 0.960 . S
H542 C534 0.930 . S
H543 C535 0.929 . S
H544 C552 0.929 . S
H545 C554 0.930 . S
H546 C556 0.930 . S
H547 C559 0.929 . S
H548 C562 0.930 . S
H549 C564 0.960 . S
H550 C564 0.960 . S
H551 C564 0.960 . S
C552 H544 0.929 . S
C552 C553 1.377 . S
C552 C554 1.384 . S
C553 C552 1.377 . S
C553 C559 1.390 1_554 S
C554 H545 0.930 . S
C554 C552 1.384 . S
C554 C555 1.372 . S
C555 C554 1.372 . S
C555 C556 1.400 1_554 S
C555 C560 1.490 . S
C556 H546 0.930 . S
C556 C555 1.400 1_556 S
C556 C559 1.386 . S
H557 C573 0.930 . S
H558 C574 0.931 . S
C559 H547 0.929 . S
C559 C553 1.390 1_556 S
C559 C556 1.386 . S
C560 C555 1.490 . S
C560 C562 1.395 1_454 S
C560 C563 1.403 1_545 S
H561 C567 0.930 . S
C562 H548 0.930 . S
C562 C560 1.395 1_656 S
C562 C565 1.403 . S
C563 C560 1.403 1_565 S
C563 C564 1.524 . S
C563 C567 1.400 . S
C564 H549 0.960 . S
C564 H550 0.960 . S
C564 H551 0.960 . S
C564 C563 1.524 . S
C565 C562 1.403 . S
C565 C566 1.392 1_545 S
C565 C569 1.495 . S
C566 C565 1.392 1_565 S
C566 C567 1.385 1_656 S
C566 C568 1.478 . S
C567 H561 0.930 . S
C567 C563 1.400 . S
C567 C566 1.385 1_454 S
C568 C566 1.478 . S
C568 C570 1.381 1_556 S
C568 C574 1.383 . S
C569 C565 1.495 . S
C569 H575 0.959 . S
C569 H576 0.961 . S
C569 H577 0.960 . S
C570 C568 1.381 1_554 S
C570 C571 1.394 . S
C570 H578 0.930 . S
C571 C570 1.394 . S
C571 C572 1.383 1_554 S
C571 H579 0.929 . S
C572 C571 1.383 1_556 S
C572 C573 1.377 . S
C573 H557 0.930 . S
C573 C572 1.377 . S
C573 C574 1.379 . S
C574 H558 0.931 . S
C574 C568 1.383 . S
C574 C573 1.379 . S
H575 C569 0.959 . S
H576 C569 0.961 . S
H577 C569 0.960 . S
H578 C570 0.930 . S
H579 C571 0.929 . S
H580 C588 0.929 . S
H581 C590 0.930 . S
H582 C592 0.930 . S
H583 C595 0.929 . S
H584 C598 0.930 . S
H585 C600 0.960 . S
H586 C600 0.960 . S
H587 C600 0.960 . S
C588 H580 0.929 . S
C588 C589 1.377 . S
C588 C590 1.384 . S
C589 C588 1.377 . S
C589 C595 1.390 . S
C590 H581 0.930 . S
C590 C588 1.384 . S
C590 C591 1.372 . S
C591 C590 1.372 . S
C591 C592 1.400 . S
C591 C596 1.490 . S
C592 H582 0.930 . S
C592 C591 1.400 . S
C592 C595 1.386 . S
H593 C609 0.930 . S
H594 C610 0.931 . S
C595 H583 0.929 . S
C595 C589 1.390 . S
C595 C592 1.386 . S
C596 C591 1.490 . S
C596 C598 1.395 . S
C596 C599 1.403 . S
H597 C603 0.930 . S
C598 H584 0.930 . S
C598 C596 1.395 . S
C598 C601 1.403 . S
C599 C596 1.403 . S
C599 C600 1.524 . S
C599 C603 1.400 . S
C600 H585 0.960 . S
C600 H586 0.960 . S
C600 H587 0.960 . S
C600 C599 1.524 . S
C601 C598 1.403 . S
C601 C602 1.392 . S
C601 C605 1.495 . S
C602 C601 1.392 . S
C602 C603 1.385 . S
C602 C604 1.478 . S
C603 H597 0.930 . S
C603 C599 1.400 . S
C603 C602 1.385 . S
C604 C602 1.478 . S
C604 C606 1.381 . S
C604 C610 1.383 . S
C605 C601 1.495 . S
C605 H611 0.959 . S
C605 H612 0.961 . S
C605 H613 0.960 . S
C606 C604 1.381 . S
C606 C607 1.394 . S
C606 H614 0.930 . S
C607 C606 1.394 . S
C607 C608 1.383 . S
C607 H615 0.929 . S
C608 C607 1.383 . S
C608 C609 1.377 . S
C609 H593 0.930 . S
C609 C608 1.377 . S
C609 C610 1.379 . S
C610 H594 0.931 . S
C610 C604 1.383 . S
C610 C609 1.379 . S
H611 C605 0.959 . S
H612 C605 0.961 . S
H613 C605 0.960 . S
H614 C606 0.930 . S
H615 C607 0.929 . S
H616 C624 0.929 . S
H617 C626 0.930 . S
H618 C628 0.930 . S
H619 C631 0.929 . S
H620 C634 0.930 . S
H621 C636 0.960 . S
H622 C636 0.960 1_556 S
H623 C636 0.960 . S
C624 H616 0.929 . S
C624 C625 1.377 1_556 S
C624 C626 1.384 . S
C625 C624 1.377 1_554 S
C625 C631 1.390 . S
C626 H617 0.930 . S
C626 C624 1.384 . S
C626 C627 1.372 1_556 S
C627 C626 1.372 1_554 S
C627 C628 1.400 . S
C627 C632 1.490 . S
C628 H618 0.930 . S
C628 C627 1.400 . S
C628 C631 1.386 . S
H629 C645 0.930 . S
H630 C646 0.931 . S
C631 H619 0.929 . S
C631 C625 1.390 . S
C631 C628 1.386 . S
C632 C627 1.490 . S
C632 C634 1.395 1_554 S
C632 C635 1.403 . S
H633 C639 0.930 . S
C634 H620 0.930 . S
C634 C632 1.395 1_556 S
C634 C637 1.403 . S
C635 C632 1.403 . S
C635 C636 1.524 . S
C635 C639 1.400 . S
C636 H621 0.960 . S
C636 H622 0.960 1_554 S
C636 H623 0.960 . S
C636 C635 1.524 . S
C637 C634 1.403 . S
C637 C638 1.392 . S
C637 C641 1.495 . S
C638 C637 1.392 . S
C638 C639 1.385 1_556 S
C638 C640 1.478 . S
C639 H633 0.930 . S
C639 C635 1.400 . S
C639 C638 1.385 1_554 S
C640 C638 1.478 . S
C640 C642 1.381 . S
C640 C646 1.383 1_556 S
C641 C637 1.495 . S
C641 H647 0.959 . S
C641 H648 0.961 . S
C641 H649 0.960 . S
C642 C640 1.381 . S
C642 C643 1.394 . S
C642 H650 0.930 . S
C643 C642 1.394 . S
C643 C644 1.383 . S
C643 H651 0.929 . S
C644 C643 1.383 . S
C644 C645 1.377 1_556 S
C645 H629 0.930 . S
C645 C644 1.377 1_554 S
C645 C646 1.379 . S
C646 H630 0.931 . S
C646 C640 1.383 1_554 S
C646 C645 1.379 . S
H647 C641 0.959 . S
H648 C641 0.961 . S
H649 C641 0.960 . S
H650 C642 0.930 . S
H651 C643 0.929 . S
H652 C660 0.929 . S
H653 C662 0.930 . S
H654 C664 0.930 . S
H655 C667 0.929 . S
H656 C670 0.930 . S
H657 C672 0.960 . S
H658 C672 0.960 . S
H659 C672 0.960 . S
C660 H652 0.929 . S
C660 C661 1.377 . S
C660 C662 1.384 . S
C661 C660 1.377 . S
C661 C667 1.390 . S
C662 H653 0.930 . S
C662 C660 1.384 . S
C662 C663 1.372 . S
C663 C662 1.372 . S
C663 C664 1.400 . S
C663 C668 1.490 . S
C664 H654 0.930 . S
C664 C663 1.400 . S
C664 C667 1.386 . S
H665 C681 0.930 . S
H666 C682 0.931 . S
C667 H655 0.929 . S
C667 C661 1.390 . S
C667 C664 1.386 . S
C668 C663 1.490 . S
C668 C670 1.395 1_455 S
C668 C671 1.403 1_565 S
H669 C675 0.930 . S
C670 H656 0.930 . S
C670 C668 1.395 1_655 S
C670 C673 1.403 . S
C671 C668 1.403 1_545 S
C671 C672 1.524 . S
C671 C675 1.400 . S
C672 H657 0.960 . S
C672 H658 0.960 . S
C672 H659 0.960 . S
C672 C671 1.524 . S
C673 C670 1.403 . S
C673 C674 1.392 1_565 S
C673 C677 1.495 . S
C674 C673 1.392 1_545 S
C674 C675 1.385 1_655 S
C674 C676 1.478 . S
C675 H669 0.930 . S
C675 C671 1.400 . S
C675 C674 1.385 1_455 S
C676 C674 1.478 . S
C676 C678 1.381 . S
C676 C682 1.383 . S
C677 C673 1.495 . S
C677 H683 0.959 . S
C677 H684 0.961 . S
C677 H685 0.960 . S
C678 C676 1.381 . S
C678 C679 1.394 . S
C678 H686 0.930 . S
C679 C678 1.394 . S
C679 C680 1.383 . S
C679 H687 0.929 . S
C680 C679 1.383 . S
C680 C681 1.377 . S
C681 H665 0.930 . S
C681 C680 1.377 . S
C681 C682 1.379 . S
C682 H666 0.931 . S
C682 C676 1.383 . S
C682 C681 1.379 . S
H683 C677 0.959 . S
H684 C677 0.961 . S
H685 C677 0.960 . S
H686 C678 0.930 . S
H687 C679 0.929 . S
C121 C14 2.096 . S
C140 C13 2.131 1_556 S
C157 C0 2.098 . S
C176 C27 2.131 . S
C193 C42 2.096 . S
C212 C41 2.127 1_554 S
C229 C28 2.101 . S
C248 C55 2.140 . S
C265 C68 2.136 1_554 S
C284 C71 2.090 . S
C301 C82 2.137 . S
C320 C57 2.109 . S
C337 C96 2.137 1_556 S
C356 C99 2.110 . S
C373 C85 2.101 . S
C392 C110 2.131 . S
C409 C12 0.356 . S
C428 C54 0.387 . S
C445 C26 0.347 . S
C464 C40 0.310 . S
C481 C111 0.356 . S
C500 C69 0.395 . S
C517 C97 0.341 . S
C536 C83 0.310 . S
C553 C1 1.795 . S
C572 C56 1.779 . S
C589 C70 1.803 . S
C608 C15 1.796 . S
C625 C84 1.800 . S
C644 C29 1.780 . S
C661 C98 1.801 . S
C680 C43 1.784 . S
