# Generated by pormake.
# Topology pem, (4)-cn, num edge types: 1
# Building blocks:
#     Node 0, Type 0, BuildingBlock: QUQFOY_clean_sbu_1, # of connection points: 4
#     Node 1, Type 0, BuildingBlock: QUQFOY_clean_sbu_1, # of connection points: 4
#     Node 2, Type 0, BuildingBlock: QUQFOY_clean_sbu_1, # of connection points: 4
#     Node 3, Type 0, BuildingBlock: QUQFOY_clean_sbu_1, # of connection points: 4
#     Node 4, Type 0, BuildingBlock: QUQFOY_clean_sbu_1, # of connection points: 4
#     Node 5, Type 0, BuildingBlock: QUQFOY_clean_sbu_1, # of connection points: 4
#     Node 6, Type 0, BuildingBlock: QUQFOY_clean_sbu_1, # of connection points: 4
#     Node 7, Type 0, BuildingBlock: QUQFOY_clean_sbu_1, # of connection points: 4
#     Node 8, Type 0, BuildingBlock: QUQFOY_clean_sbu_1, # of connection points: 4
#     Node 9, Type 0, BuildingBlock: QUQFOY_clean_sbu_1, # of connection points: 4
#     Node 10, Type 0, BuildingBlock: QUQFOY_clean_sbu_1, # of connection points: 4
#     Node 11, Type 0, BuildingBlock: QUQFOY_clean_sbu_1, # of connection points: 4
#     Node 12, Type 0, BuildingBlock: QUQFOY_clean_sbu_1, # of connection points: 4
#     Node 13, Type 0, BuildingBlock: QUQFOY_clean_sbu_1, # of connection points: 4
#     Node 14, Type 0, BuildingBlock: QUQFOY_clean_sbu_1, # of connection points: 4
#     Node 15, Type 0, BuildingBlock: QUQFOY_clean_sbu_1, # of connection points: 4
#     Node 16, Type 0, BuildingBlock: QUQFOY_clean_sbu_1, # of connection points: 4
#     Node 17, Type 0, BuildingBlock: QUQFOY_clean_sbu_1, # of connection points: 4
#     Node 18, Type 0, BuildingBlock: QUQFOY_clean_sbu_1, # of connection points: 4
#     Node 19, Type 0, BuildingBlock: QUQFOY_clean_sbu_1, # of connection points: 4
#     Node 20, Type 0, BuildingBlock: QUQFOY_clean_sbu_1, # of connection points: 4
#     Node 21, Type 0, BuildingBlock: QUQFOY_clean_sbu_1, # of connection points: 4
#     Node 22, Type 0, BuildingBlock: QUQFOY_clean_sbu_1, # of connection points: 4
#     Node 23, Type 0, BuildingBlock: QUQFOY_clean_sbu_1, # of connection points: 4
#     Node 24, Type 0, BuildingBlock: QUQFOY_clean_sbu_1, # of connection points: 4
#     Node 25, Type 0, BuildingBlock: QUQFOY_clean_sbu_1, # of connection points: 4
#     Node 26, Type 0, BuildingBlock: QUQFOY_clean_sbu_1, # of connection points: 4
#     Node 27, Type 0, BuildingBlock: QUQFOY_clean_sbu_1, # of connection points: 4
#     Node 28, Type 0, BuildingBlock: QUQFOY_clean_sbu_1, # of connection points: 4
#     Node 29, Type 0, BuildingBlock: QUQFOY_clean_sbu_1, # of connection points: 4
#     Node 30, Type 0, BuildingBlock: QUQFOY_clean_sbu_1, # of connection points: 4
#     Node 31, Type 0, BuildingBlock: QUQFOY_clean_sbu_1, # of connection points: 4
#     Edge 32, Type (0, 0), BuildingBlock: KIFKEQ_clean_linker_1, # of connection points: 2
#     Edge 33, Type (0, 0), BuildingBlock: KIFKEQ_clean_linker_1, # of connection points: 2
#     Edge 34, Type (0, 0), BuildingBlock: KIFKEQ_clean_linker_1, # of connection points: 2
#     Edge 35, Type (0, 0), BuildingBlock: KIFKEQ_clean_linker_1, # of connection points: 2
#     Edge 36, Type (0, 0), BuildingBlock: KIFKEQ_clean_linker_1, # of connection points: 2
#     Edge 37, Type (0, 0), BuildingBlock: KIFKEQ_clean_linker_1, # of connection points: 2
#     Edge 38, Type (0, 0), BuildingBlock: KIFKEQ_clean_linker_1, # of connection points: 2
#     Edge 39, Type (0, 0), BuildingBlock: KIFKEQ_clean_linker_1, # of connection points: 2
#     Edge 40, Type (0, 0), BuildingBlock: KIFKEQ_clean_linker_1, # of connection points: 2
#     Edge 41, Type (0, 0), BuildingBlock: KIFKEQ_clean_linker_1, # of connection points: 2
#     Edge 42, Type (0, 0), BuildingBlock: KIFKEQ_clean_linker_1, # of connection points: 2
#     Edge 43, Type (0, 0), BuildingBlock: KIFKEQ_clean_linker_1, # of connection points: 2
#     Edge 44, Type (0, 0), BuildingBlock: KIFKEQ_clean_linker_1, # of connection points: 2
#     Edge 45, Type (0, 0), BuildingBlock: KIFKEQ_clean_linker_1, # of connection points: 2
#     Edge 46, Type (0, 0), BuildingBlock: KIFKEQ_clean_linker_1, # of connection points: 2
#     Edge 47, Type (0, 0), BuildingBlock: KIFKEQ_clean_linker_1, # of connection points: 2
#     Edge 48, Type (0, 0), BuildingBlock: KIFKEQ_clean_linker_1, # of connection points: 2
#     Edge 49, Type (0, 0), BuildingBlock: KIFKEQ_clean_linker_1, # of connection points: 2
#     Edge 50, Type (0, 0), BuildingBlock: KIFKEQ_clean_linker_1, # of connection points: 2
#     Edge 51, Type (0, 0), BuildingBlock: KIFKEQ_clean_linker_1, # of connection points: 2
#     Edge 52, Type (0, 0), BuildingBlock: KIFKEQ_clean_linker_1, # of connection points: 2
#     Edge 53, Type (0, 0), BuildingBlock: KIFKEQ_clean_linker_1, # of connection points: 2
#     Edge 54, Type (0, 0), BuildingBlock: KIFKEQ_clean_linker_1, # of connection points: 2
#     Edge 55, Type (0, 0), BuildingBlock: KIFKEQ_clean_linker_1, # of connection points: 2
#     Edge 56, Type (0, 0), BuildingBlock: KIFKEQ_clean_linker_1, # of connection points: 2
#     Edge 57, Type (0, 0), BuildingBlock: KIFKEQ_clean_linker_1, # of connection points: 2
#     Edge 58, Type (0, 0), BuildingBlock: KIFKEQ_clean_linker_1, # of connection points: 2
#     Edge 59, Type (0, 0), BuildingBlock: KIFKEQ_clean_linker_1, # of connection points: 2
#     Edge 60, Type (0, 0), BuildingBlock: KIFKEQ_clean_linker_1, # of connection points: 2
#     Edge 61, Type (0, 0), BuildingBlock: KIFKEQ_clean_linker_1, # of connection points: 2
#     Edge 62, Type (0, 0), BuildingBlock: KIFKEQ_clean_linker_1, # of connection points: 2
#     Edge 63, Type (0, 0), BuildingBlock: KIFKEQ_clean_linker_1, # of connection points: 2
#     Edge 64, Type (0, 0), BuildingBlock: KIFKEQ_clean_linker_1, # of connection points: 2
#     Edge 65, Type (0, 0), BuildingBlock: KIFKEQ_clean_linker_1, # of connection points: 2
#     Edge 66, Type (0, 0), BuildingBlock: KIFKEQ_clean_linker_1, # of connection points: 2
#     Edge 67, Type (0, 0), BuildingBlock: KIFKEQ_clean_linker_1, # of connection points: 2
#     Edge 68, Type (0, 0), BuildingBlock: KIFKEQ_clean_linker_1, # of connection points: 2
#     Edge 69, Type (0, 0), BuildingBlock: KIFKEQ_clean_linker_1, # of connection points: 2
#     Edge 70, Type (0, 0), BuildingBlock: KIFKEQ_clean_linker_1, # of connection points: 2
#     Edge 71, Type (0, 0), BuildingBlock: KIFKEQ_clean_linker_1, # of connection points: 2
#     Edge 72, Type (0, 0), BuildingBlock: KIFKEQ_clean_linker_1, # of connection points: 2
#     Edge 73, Type (0, 0), BuildingBlock: KIFKEQ_clean_linker_1, # of connection points: 2
#     Edge 74, Type (0, 0), BuildingBlock: KIFKEQ_clean_linker_1, # of connection points: 2
#     Edge 75, Type (0, 0), BuildingBlock: KIFKEQ_clean_linker_1, # of connection points: 2
#     Edge 76, Type (0, 0), BuildingBlock: KIFKEQ_clean_linker_1, # of connection points: 2
#     Edge 77, Type (0, 0), BuildingBlock: KIFKEQ_clean_linker_1, # of connection points: 2
#     Edge 78, Type (0, 0), BuildingBlock: KIFKEQ_clean_linker_1, # of connection points: 2
#     Edge 79, Type (0, 0), BuildingBlock: KIFKEQ_clean_linker_1, # of connection points: 2
#     Edge 80, Type (0, 0), BuildingBlock: KIFKEQ_clean_linker_1, # of connection points: 2
#     Edge 81, Type (0, 0), BuildingBlock: KIFKEQ_clean_linker_1, # of connection points: 2
#     Edge 82, Type (0, 0), BuildingBlock: KIFKEQ_clean_linker_1, # of connection points: 2
#     Edge 83, Type (0, 0), BuildingBlock: KIFKEQ_clean_linker_1, # of connection points: 2
#     Edge 84, Type (0, 0), BuildingBlock: KIFKEQ_clean_linker_1, # of connection points: 2
#     Edge 85, Type (0, 0), BuildingBlock: KIFKEQ_clean_linker_1, # of connection points: 2
#     Edge 86, Type (0, 0), BuildingBlock: KIFKEQ_clean_linker_1, # of connection points: 2
#     Edge 87, Type (0, 0), BuildingBlock: KIFKEQ_clean_linker_1, # of connection points: 2
#     Edge 88, Type (0, 0), BuildingBlock: KIFKEQ_clean_linker_1, # of connection points: 2
#     Edge 89, Type (0, 0), BuildingBlock: KIFKEQ_clean_linker_1, # of connection points: 2
#     Edge 90, Type (0, 0), BuildingBlock: KIFKEQ_clean_linker_1, # of connection points: 2
#     Edge 91, Type (0, 0), BuildingBlock: KIFKEQ_clean_linker_1, # of connection points: 2
#     Edge 92, Type (0, 0), BuildingBlock: KIFKEQ_clean_linker_1, # of connection points: 2
#     Edge 93, Type (0, 0), BuildingBlock: KIFKEQ_clean_linker_1, # of connection points: 2
#     Edge 94, Type (0, 0), BuildingBlock: KIFKEQ_clean_linker_1, # of connection points: 2
#     Edge 95, Type (0, 0), BuildingBlock: KIFKEQ_clean_linker_1, # of connection points: 2
# Relax obj value: 0.278
# Max RMSD: 0.272
# Mean RMSD: 0.235
data_MOF--net-pem--node1-QUQFOY_clean_sbu_1--edge1-KIFKEQ_clean_linker_1
_symmetry_space_group_name_H-M    P1
_symmetry_Int_Tables_number       1
_symmetry_cell_setting            triclinic
loop_
_symmetry_equiv_pos_as_xyz
'x, y, z'
_cell_length_a     45.19816
_cell_length_b     45.670237
_cell_length_c     45.086192
_cell_angle_alpha  89.683228
_cell_angle_beta   89.449217
_cell_angle_gamma 95.673354
loop_
_atom_site_label
_atom_site_type_symbol
_atom_site_fract_x
_atom_site_fract_y
_atom_site_fract_z
_atom_type_partial_charge
O0 O 0.12094 0.09064 0.09166 0.0
Cd1 Cd 0.10985 0.11833 0.05766 0.0
Cd2 Cd 0.0774 0.13404 0.10609 0.0
O3 O 0.1078 0.11517 0.13089 0.0
O4 O 0.12679 0.09731 0.0241 0.0
O5 O 0.14276 0.14302 0.03498 0.0
C6 C 0.14447 0.12039 0.01829 0.0
C7 C 0.05563 0.17699 0.11447 0.0
C8 C 0.12007 0.09394 0.1196 0.0
C9 C 0.0455 0.10276 0.0596 0.0
O10 O 0.04801 0.10346 0.08747 0.0
O11 O 0.06632 0.11462 0.04318 0.0
O12 O 0.05199 0.1552 0.1329 0.0
O13 O 0.07432 0.17554 0.09275 0.0
O14 O 0.13611 0.91132 0.26661 0.0
Cd15 Cd 0.13121 0.87506 0.29365 0.0
Cd16 Cd 0.1949 0.90293 0.30734 0.0
O17 O 0.18153 0.93229 0.27582 0.0
O18 O 0.09025 0.85637 0.28483 0.0
O19 O 0.10442 0.87085 0.32939 0.0
C20 C 0.08422 0.85803 0.31266 0.0
C21 C 0.22596 0.91676 0.34747 0.0
C22 C 0.15718 0.93137 0.26163 0.0
C23 C 0.18413 0.8392 0.28692 0.0
O24 O 0.20178 0.86133 0.294 0.0
O25 O 0.1563 0.84077 0.28563 0.0
O26 O 0.23576 0.91839 0.32052 0.0
O27 O 0.19783 0.90958 0.35152 0.0
O28 O 0.39647 0.92104 0.59547 0.0
Cd29 Cd 0.40058 0.89692 0.55723 0.0
Cd30 Cd 0.47133 0.89191 0.60813 0.0
O31 O 0.43836 0.91906 0.62229 0.0
O32 O 0.39222 0.91938 0.52031 0.0
O33 O 0.36482 0.87902 0.53502 0.0
C34 C 0.36956 0.90042 0.5161 0.0
C35 C 0.49891 0.86442 0.63907 0.0
C36 C 0.41278 0.92838 0.61788 0.0
C37 C 0.4624 0.88947 0.54733 0.0
O38 O 0.48443 0.89183 0.56435 0.0
O39 O 0.4384 0.87694 0.558 0.0
O40 O 0.50844 0.89136 0.6327 0.0
O41 O 0.47305 0.85446 0.6296 0.0
O42 O 0.35611 0.10275 0.76108 0.0
Cd43 Cd 0.34669 0.13882 0.78511 0.0
Cd44 Cd 0.29705 0.10472 0.79676 0.0
O45 O 0.31651 0.07293 0.77312 0.0
O46 O 0.38533 0.16322 0.78331 0.0
O47 O 0.36325 0.14818 0.8256 0.0
C48 C 0.3852 0.16266 0.81182 0.0
C49 C 0.28306 0.10164 0.8461 0.0
C50 C 0.34107 0.07788 0.75916 0.0
C51 C 0.28923 0.16029 0.76553 0.0
O52 O 0.27628 0.13559 0.77372 0.0
O53 O 0.3171 0.16588 0.76863 0.0
O54 O 0.2682 0.08618 0.82634 0.0
O55 O 0.30727 0.11723 0.83812 0.0
O56 O 0.14982 0.92855 0.39625 0.0
Cd57 Cd 0.14255 0.90775 0.43631 0.0
Cd58 Cd 0.0961 0.87223 0.40731 0.0
O59 O 0.10948 0.9055 0.3769 0.0
O60 O 0.17661 0.92124 0.4615 0.0
O61 O 0.16478 0.87445 0.44979 0.0
C62 C 0.18141 0.89402 0.46424 0.0
C63 C 0.067 0.83311 0.38387 0.0
C64 C 0.13139 0.92519 0.37521 0.0
C65 C 0.08144 0.90649 0.46174 0.0
O66 O 0.07395 0.88535 0.44438 0.0
O67 O 0.10751 0.91949 0.46082 0.0
O68 O 0.05869 0.85879 0.38766 0.0
O69 O 0.09251 0.82829 0.39423 0.0
O70 O 0.39685 0.79428 0.63428 0.0
Cd71 Cd 0.36423 0.82074 0.64567 0.0
Cd72 Cd 0.40377 0.84085 0.68625 0.0
O73 O 0.43208 0.81995 0.65915 0.0
O74 O 0.33281 0.80901 0.61679 0.0
O75 O 0.35426 0.85454 0.62003 0.0
C76 C 0.33457 0.83598 0.60802 0.0
C77 C 0.40531 0.88966 0.70006 0.0
C78 C 0.42402 0.79972 0.64083 0.0
C79 C 0.35086 0.80933 0.71041 0.0
O80 O 0.37826 0.81505 0.71582 0.0
O81 O 0.34116 0.81295 0.68451 0.0
O82 O 0.42455 0.87306 0.71012 0.0
O83 O 0.38752 0.8794 0.67943 0.0
O84 O 0.36149 0.12971 0.92894 0.0
Cd85 Cd 0.40289 0.12454 0.91059 0.0
Cd86 Cd 0.37214 0.07238 0.89111 0.0
O87 O 0.33675 0.08872 0.91284 0.0
O88 O 0.42679 0.16391 0.91124 0.0
O89 O 0.4161 0.1391 0.87013 0.0
C90 C 0.42863 0.16242 0.88276 0.0
C91 C 0.36877 0.04788 0.84548 0.0
C92 C 0.33774 0.11224 0.92799 0.0
C93 C 0.42284 0.06822 0.93337 0.0
O94 O 0.40164 0.05506 0.91884 0.0
O95 O 0.42775 0.09608 0.93249 0.0
O96 O 0.3549 0.03714 0.8688 0.0
O97 O 0.38292 0.07379 0.84739 0.0
O98 O 0.15487 0.17949 0.15217 0.0
Cd99 Cd 0.18497 0.14757 0.15328 0.0
Cd100 Cd 0.14453 0.1328 0.2004 0.0
O101 O 0.11717 0.15834 0.17871 0.0
O102 O 0.21573 0.16305 0.12337 0.0
O103 O 0.18856 0.12076 0.11782 0.0
C104 C 0.20919 0.13987 0.10775 0.0
C105 C 0.13434 0.08792 0.2237 0.0
C106 C 0.12837 0.17925 0.16216 0.0
C107 C 0.20384 0.15106 0.21657 0.0
O108 O 0.17729 0.15564 0.22246 0.0
O109 O 0.21093 0.14312 0.19069 0.0
O110 O 0.12118 0.11028 0.23218 0.0
O111 O 0.15087 0.09044 0.20008 0.0
O112 O 0.62046 0.42694 0.8809 0.0
Cd113 Cd 0.61558 0.41311 0.9246 0.0
Cd114 Cd 0.56094 0.38523 0.89928 0.0
O115 O 0.58089 0.40275 0.86081 0.0
O116 O 0.65398 0.42812 0.94318 0.0
O117 O 0.63781 0.38094 0.94207 0.0
C118 C 0.6577 0.40143 0.95038 0.0
C119 C 0.52862 0.34171 0.89659 0.0
C120 C 0.60436 0.42048 0.8584 0.0
C121 C 0.55738 0.43155 0.94665 0.0
O122 O 0.54464 0.41488 0.92727 0.0
O123 O 0.5853 0.43285 0.95024 0.0
O124 O 0.52267 0.36583 0.88421 0.0
O125 O 0.55383 0.34171 0.9098 0.0
O126 O 0.87963 0.32289 0.12821 0.0
Cd127 Cd 0.84807 0.35199 0.13648 0.0
Cd128 Cd 0.89054 0.36734 0.17688 0.0
O129 O 0.91842 0.34912 0.14723 0.0
O130 O 0.81514 0.3364 0.11019 0.0
O131 O 0.83742 0.38135 0.1053 0.0
C132 C 0.8171 0.36141 0.09674 0.0
C133 C 0.89236 0.41289 0.19946 0.0
C134 C 0.90751 0.32728 0.13208 0.0
C135 C 0.83682 0.33743 0.19946 0.0
O136 O 0.86469 0.33707 0.20153 0.0
O137 O 0.8259 0.34862 0.17672 0.0
O138 O 0.9114 0.39461 0.20609 0.0
O139 O 0.87474 0.40668 0.1774 0.0
O140 O 0.84271 0.64555 0.43578 0.0
Cd141 Cd 0.88501 0.64501 0.4189 0.0
Cd142 Cd 0.86455 0.58757 0.40308 0.0
O143 O 0.82906 0.59814 0.42932 0.0
O144 O 0.90313 0.68659 0.41369 0.0
O145 O 0.89906 0.65474 0.37751 0.0
C146 C 0.90949 0.68048 0.3866 0.0
C147 C 0.86021 0.56065 0.35903 0.0
C148 C 0.82438 0.62297 0.44023 0.0
C149 C 0.91852 0.59657 0.44166 0.0
O150 O 0.90192 0.57956 0.42537 0.0
O151 O 0.91431 0.62355 0.4443 0.0
O152 O 0.8514 0.5489 0.38404 0.0
O153 O 0.86951 0.5883 0.35872 0.0
O154 O 0.87782 0.59752 0.24785 0.0
Cd155 Cd 0.86762 0.6309 0.27517 0.0
Cd156 Cd 0.81544 0.59684 0.28018 0.0
O157 O 0.83676 0.56786 0.255 0.0
O158 O 0.90608 0.65541 0.27939 0.0
O159 O 0.88145 0.63395 0.31749 0.0
C160 C 0.90404 0.65066 0.30752 0.0
C161 C 0.79594 0.58843 0.32716 0.0
C162 C 0.86218 0.57347 0.24284 0.0
C163 C 0.81123 0.65571 0.25509 0.0
O164 O 0.79764 0.63033 0.25907 0.0
O165 O 0.83878 0.6605 0.26078 0.0
O166 O 0.78324 0.57555 0.30453 0.0
O167 O 0.82099 0.6043 0.32321 0.0
O168 O 0.64875 0.3922 0.76979 0.0
Cd169 Cd 0.64817 0.35399 0.79437 0.0
Cd170 Cd 0.70558 0.38539 0.81186 0.0
O171 O 0.69159 0.41618 0.78277 0.0
O172 O 0.6189 0.34167 0.82723 0.0
O173 O 0.61115 0.3316 0.77994 0.0
C174 C 0.6025 0.32847 0.80711 0.0
C175 C 0.72962 0.39818 0.85613 0.0
C176 C 0.66803 0.41436 0.76739 0.0
C177 C 0.70559 0.32538 0.78539 0.0
O178 O 0.72084 0.3483 0.79449 0.0
O179 O 0.67751 0.32418 0.78421 0.0
O180 O 0.74187 0.40484 0.83075 0.0
O181 O 0.7025 0.38615 0.85649 0.0
O182 O 0.85664 0.89709 0.92712 0.0
Cd183 Cd 0.89219 0.91794 0.90339 0.0
Cd184 Cd 0.91976 0.87699 0.93882 0.0
O185 O 0.87691 0.86089 0.94952 0.0
O186 O 0.87124 0.94862 0.88292 0.0
O187 O 0.89893 0.9194 0.85879 0.0
C188 C 0.88322 0.94149 0.85842 0.0
C189 C 0.95639 0.84775 0.92329 0.0
C190 C 0.85447 0.87479 0.94436 0.0
C191 C 0.9342 0.94017 0.9513 0.0
O192 O 0.93457 0.91424 0.96132 0.0
O193 O 0.92108 0.94528 0.92743 0.0
O194 O 0.94686 0.84707 0.95037 0.0
O195 O 0.94413 0.86426 0.90457 0.0
O196 O 0.90165 0.17249 0.66002 0.0
Cd197 Cd 0.87095 0.14347 0.68158 0.0
Cd198 Cd 0.83494 0.15739 0.63189 0.0
O199 O 0.87341 0.18461 0.62295 0.0
O200 O 0.89349 0.12404 0.71255 0.0
O201 O 0.86462 0.09932 0.6799 0.0
C202 C 0.88114 0.09925 0.70313 0.0
C203 C 0.80312 0.14579 0.59169 0.0
C204 C 0.89754 0.18822 0.63734 0.0
C205 C 0.81607 0.17131 0.69511 0.0
O206 O 0.8103 0.16899 0.66769 0.0
O207 O 0.84008 0.16343 0.70532 0.0
O208 O 0.80967 0.1723 0.60039 0.0
O209 O 0.81579 0.12532 0.6049 0.0
O210 O 0.62896 0.09455 0.43238 0.0
Cd211 Cd 0.59603 0.07831 0.40357 0.0
Cd212 Cd 0.56844 0.12549 0.43466 0.0
O213 O 0.61028 0.13288 0.45256 0.0
O214 O 0.6151 0.04368 0.38851 0.0
O215 O 0.59908 0.07723 0.35885 0.0
C216 C 0.61048 0.05262 0.36209 0.0
C217 C 0.54063 0.16305 0.41945 0.0
C218 C 0.63117 0.11629 0.45001 0.0
C219 C 0.53935 0.06445 0.43989 0.0
O220 O 0.54168 0.09012 0.45064 0.0
O221 O 0.55755 0.05701 0.42047 0.0
O222 O 0.54613 0.15884 0.44705 0.0
O223 O 0.55288 0.14718 0.40008 0.0
O224 O 0.59512 0.82167 0.17396 0.0
Cd225 Cd 0.63154 0.8456 0.19184 0.0
Cd226 Cd 0.65563 0.83073 0.13368 0.0
O227 O 0.61235 0.81182 0.12943 0.0
O228 O 0.61477 0.86329 0.22775 0.0
O229 O 0.63829 0.88995 0.19202 0.0
C230 C 0.62475 0.88874 0.21742 0.0
C231 C 0.6842 0.84261 0.09084 0.0
C232 C 0.59156 0.80952 0.14877 0.0
C233 C 0.6832 0.81026 0.19146 0.0
O234 O 0.68231 0.8121 0.16342 0.0
O235 O 0.66447 0.82185 0.20764 0.0
O236 O 0.67393 0.81604 0.09704 0.0
O237 O 0.67633 0.86319 0.10784 0.0
O238 O 0.90521 0.04704 0.64146 0.0
Cd239 Cd 0.92458 0.07137 0.60638 0.0
Cd240 Cd 0.87616 0.04476 0.57834 0.0
O241 O 0.86409 0.02839 0.61976 0.0
O242 O 0.95716 0.09645 0.62601 0.0
O243 O 0.92302 0.11486 0.59872 0.0
C244 C 0.94682 0.11906 0.61437 0.0
C245 C 0.8415 0.06504 0.54831 0.0
C246 C 0.88073 0.03073 0.64233 0.0
C247 C 0.93577 0.02791 0.55929 0.0
O248 O 0.90777 0.02276 0.55695 0.0
O249 O 0.94696 0.04765 0.57671 0.0
O250 O 0.83994 0.03722 0.55385 0.0
O251 O 0.8626 0.08181 0.56054 0.0
O252 O 0.65986 0.11565 0.3209 0.0
Cd253 Cd 0.6802 0.14649 0.34955 0.0
Cd254 Cd 0.63058 0.17541 0.32842 0.0
O255 O 0.619 0.13537 0.30826 0.0
O256 O 0.71423 0.12525 0.36274 0.0
O257 O 0.68242 0.14244 0.39416 0.0
C258 C 0.70613 0.12946 0.38964 0.0
C259 C 0.59651 0.20373 0.35107 0.0
C260 C 0.63568 0.11455 0.30653 0.0
C261 C 0.69218 0.20285 0.31486 0.0
O262 O 0.66471 0.20181 0.30909 0.0
O263 O 0.70213 0.18382 0.33163 0.0
O264 O 0.59666 0.19946 0.32284 0.0
O265 O 0.61432 0.18988 0.367 0.0
O266 O 0.56595 0.93708 0.15749 0.0
Cd267 Cd 0.54536 0.91229 0.12385 0.0
Cd268 Cd 0.59832 0.93314 0.09394 0.0
O269 O 0.60839 0.95166 0.13469 0.0
O270 O 0.51071 0.8895 0.14372 0.0
O271 O 0.54458 0.86839 0.11795 0.0
C272 C 0.51996 0.86595 0.13296 0.0
C273 C 0.6354 0.91596 0.06394 0.0
C274 C 0.59134 0.95187 0.15727 0.0
C275 C 0.54018 0.95159 0.07132 0.0
O276 O 0.56832 0.95345 0.06923 0.0
O277 O 0.52655 0.93582 0.09138 0.0
O278 O 0.63544 0.94335 0.07044 0.0
O279 O 0.61509 0.89768 0.07596 0.0
O280 O 0.8169 0.88315 0.82448 0.0
Cd281 Cd 0.79911 0.85401 0.85667 0.0
Cd282 Cd 0.85942 0.83217 0.84551 0.0
O283 O 0.86188 0.86865 0.81796 0.0
O284 O 0.76076 0.86919 0.8682 0.0
O285 O 0.79671 0.86283 0.90001 0.0
C286 C 0.77021 0.8698 0.89504 0.0
C287 C 0.90184 0.8123 0.86222 0.0
C288 C 0.84217 0.88567 0.81153 0.0
C289 C 0.80247 0.79151 0.83782 0.0
O290 O 0.8304 0.79675 0.83565 0.0
O291 O 0.78634 0.81139 0.84554 0.0
O292 O 0.89636 0.81449 0.83443 0.0
O293 O 0.88496 0.82453 0.88073 0.0
O294 O 0.39598 0.56258 0.15695 0.0
Cd295 Cd 0.41664 0.58784 0.12321 0.0
Cd296 Cd 0.3669 0.56365 0.0925 0.0
O297 O 0.35637 0.54384 0.13275 0.0
O298 O 0.44965 0.61131 0.14373 0.0
O299 O 0.41649 0.63157 0.11662 0.0
C300 C 0.44042 0.63454 0.13219 0.0
C301 C 0.32826 0.57869 0.06383 0.0
C302 C 0.37197 0.54556 0.15605 0.0
C303 C 0.42735 0.54924 0.07173 0.0
O304 O 0.39939 0.5459 0.06821 0.0
O305 O 0.43872 0.56535 0.09229 0.0
O306 O 0.33092 0.55138 0.06906 0.0
O307 O 0.34726 0.59802 0.0757 0.0
O308 O 0.15284 0.60957 0.8244 0.0
Cd309 Cd 0.17233 0.63805 0.85515 0.0
Cd310 Cd 0.13027 0.67395 0.8317 0.0
O311 O 0.11994 0.63698 0.80546 0.0
O312 O 0.20046 0.61317 0.87401 0.0
O313 O 0.16827 0.63662 0.8997 0.0
C314 C 0.19038 0.62076 0.89927 0.0
C315 C 0.09441 0.70218 0.85112 0.0
C316 C 0.13272 0.61333 0.80567 0.0
C317 C 0.19547 0.69519 0.82716 0.0
O318 O 0.16884 0.7001 0.82216 0.0
O319 O 0.20129 0.67139 0.83923 0.0
O320 O 0.09956 0.7011 0.82301 0.0
O321 O 0.10808 0.68531 0.86828 0.0
O322 O 0.06966 0.44873 0.64179 0.0
Cd323 Cd 0.04972 0.42828 0.60557 0.0
Cd324 Cd 0.10204 0.44919 0.57844 0.0
O325 O 0.11226 0.46516 0.62041 0.0
O326 O 0.01431 0.40452 0.62291 0.0
O327 O 0.04833 0.38491 0.59605 0.0
C328 C 0.02364 0.38158 0.6109 0.0
C329 C 0.13651 0.4266 0.5495 0.0
C330 C 0.09496 0.46351 0.64293 0.0
C331 C 0.04642 0.47362 0.55789 0.0
O332 O 0.07436 0.47355 0.55466 0.0
O333 O 0.03223 0.4567 0.57671 0.0
O334 O 0.14027 0.4542 0.55571 0.0
O335 O 0.11359 0.41123 0.56085 0.0
O336 O 0.0779 0.32165 0.66435 0.0
Cd337 Cd 0.11277 0.34699 0.6836 0.0
Cd338 Cd 0.14143 0.3324 0.62785 0.0
O339 O 0.09947 0.31149 0.6219 0.0
O340 O 0.09479 0.36716 0.71743 0.0
O341 O 0.12146 0.3912 0.68195 0.0
C342 C 0.10691 0.39173 0.70672 0.0
C343 C 0.17121 0.34117 0.58516 0.0
C344 C 0.07729 0.30845 0.63955 0.0
C345 C 0.16481 0.3127 0.68786 0.0
O346 O 0.16671 0.31534 0.65988 0.0
O347 O 0.14415 0.32329 0.70229 0.0
O348 O 0.1611 0.31511 0.59329 0.0
O349 O 0.16296 0.3629 0.60027 0.0
O350 O 0.37492 0.67045 0.18043 0.0
Cd351 Cd 0.34148 0.6434 0.20067 0.0
Cd352 Cd 0.3111 0.65925 0.14726 0.0
O353 O 0.35238 0.68247 0.13943 0.0
O354 O 0.36213 0.62569 0.23415 0.0
O355 O 0.33649 0.59907 0.2005 0.0
C356 C 0.35183 0.60026 0.22456 0.0
C357 C 0.28036 0.64466 0.10705 0.0
C358 C 0.37495 0.68493 0.15626 0.0
C359 C 0.28789 0.67548 0.20848 0.0
O360 O 0.28564 0.67489 0.18046 0.0
O361 O 0.30905 0.66439 0.22129 0.0
O362 O 0.28818 0.67185 0.11269 0.0
O363 O 0.29162 0.62517 0.12312 0.0
O364 O 0.64294 0.56627 0.5876 0.0
Cd365 Cd 0.63193 0.58818 0.54936 0.0
Cd366 Cd 0.59593 0.61418 0.59539 0.0
O367 O 0.61927 0.5891 0.6225 0.0
O368 O 0.65432 0.56647 0.51978 0.0
O369 O 0.66083 0.6147 0.52398 0.0
C370 C 0.66733 0.59119 0.51068 0.0
C371 C 0.57702 0.65732 0.6106 0.0
C372 C 0.63589 0.56959 0.61466 0.0
C373 C 0.56495 0.57963 0.54704 0.0
O374 O 0.56356 0.59067 0.57258 0.0
O375 O 0.58965 0.57876 0.53364 0.0
O376 O 0.57029 0.63276 0.62425 0.0
O377 O 0.59713 0.65822 0.59 0.0
O378 O 0.91667 0.40831 0.09025 0.0
Cd379 Cd 0.91445 0.38059 0.05464 0.0
Cd380 Cd 0.99019 0.38287 0.09365 0.0
O381 O 0.96182 0.41225 0.11156 0.0
O382 O 0.90066 0.40262 0.02011 0.0
O383 O 0.8751 0.36291 0.03926 0.0
C384 C 0.8772 0.38408 0.01992 0.0
C385 C 0.01868 0.35467 0.12239 0.0
C386 C 0.93522 0.41952 0.10924 0.0
C387 C 0.97363 0.37733 0.03429 0.0
O388 O 0.99754 0.3818 0.04854 0.0
O389 O 0.95247 0.36201 0.04722 0.0
O390 O 0.02932 0.38076 0.11404 0.0
O391 O 0.99166 0.34583 0.1157 0.0
O392 O 0.63836 0.68976 0.66239 0.0
Cd393 Cd 0.66787 0.65757 0.6626 0.0
Cd394 Cd 0.62574 0.63599 0.70602 0.0
O395 O 0.60194 0.66909 0.69092 0.0
O396 O 0.69797 0.67343 0.63235 0.0
O397 O 0.67243 0.63002 0.62821 0.0
C398 C 0.69251 0.64946 0.6177 0.0
C399 C 0.61087 0.58726 0.71607 0.0
C400 C 0.61295 0.69039 0.67468 0.0
C401 C 0.68651 0.65236 0.72636 0.0
O402 O 0.6593 0.64903 0.7338 0.0
O403 O 0.69423 0.65394 0.6992 0.0
O404 O 0.59962 0.60776 0.7307 0.0
O405 O 0.62762 0.59454 0.69325 0.0
O406 O 0.35074 0.38196 0.42865 0.0
Cd407 Cd 0.38554 0.40622 0.408 0.0
Cd408 Cd 0.4142 0.36625 0.44616 0.0
O409 O 0.37117 0.34923 0.45613 0.0
O410 O 0.36117 0.43622 0.39101 0.0
O411 O 0.39264 0.41378 0.36392 0.0
C412 C 0.3741 0.43339 0.36594 0.0
C413 C 0.45235 0.33957 0.42952 0.0
C414 C 0.34839 0.36101 0.44744 0.0
C415 C 0.42466 0.43005 0.45836 0.0
O416 O 0.42799 0.40436 0.46773 0.0
O417 O 0.41041 0.43399 0.43489 0.0
O418 O 0.44301 0.33759 0.45668 0.0
O419 O 0.43877 0.35556 0.41133 0.0
O420 O 0.12116 0.58508 0.93569 0.0
Cd421 Cd 0.0915 0.56925 0.90357 0.0
Cd422 Cd 0.05661 0.61318 0.93177 0.0
O423 O 0.09474 0.61751 0.95726 0.0
O424 O 0.11314 0.53835 0.88422 0.0
O425 O 0.09461 0.57388 0.8591 0.0
C426 C 0.10719 0.5497 0.85909 0.0
C427 C 0.03365 0.65483 0.91836 0.0
C428 C 0.11803 0.604 0.9558 0.0
C429 C 0.02993 0.55051 0.92957 0.0
O430 O 0.02672 0.57656 0.93772 0.0
O431 O 0.05377 0.54441 0.91708 0.0
O432 O 0.03356 0.64564 0.94541 0.0
O433 O 0.04809 0.6411 0.89884 0.0
O434 O 0.31474 0.37306 0.3185 0.0
Cd435 Cd 0.30368 0.34347 0.35352 0.0
Cd436 Cd 0.36231 0.3344 0.33906 0.0
O437 O 0.36373 0.37515 0.32071 0.0
O438 O 0.2614 0.3483 0.36465 0.0
O439 O 0.29945 0.36006 0.39431 0.0
C440 C 0.2712 0.3582 0.38975 0.0
C441 C 0.40137 0.31284 0.36039 0.0
C442 C 0.34041 0.38459 0.31034 0.0
C443 C 0.31836 0.28725 0.32802 0.0
O444 O 0.33939 0.30276 0.3152 0.0
O445 O 0.30358 0.29829 0.34845 0.0
O446 O 0.40259 0.32177 0.33323 0.0
O447 O 0.37946 0.31967 0.37674 0.0
H448 H 0.0192 0.10891 0.00612 0.0
H449 H 0.01889 0.05248 0.08329 0.0
H450 H 0.98607 0.07179 0.98103 0.0
H451 H 0.98829 0.0145 0.05776 0.0
H452 H 0.92651 0.9504 0.00967 0.0
H453 H 0.94564 0.99391 0.03713 0.0
H454 H 0.99208 0.02836 0.95786 0.0
H455 H 0.9705 0.98611 0.93024 0.0
C456 C 0.01176 0.08862 0.01771 0.0
C457 C 0.02164 0.0833 0.04639 0.0
C458 C 0.99312 0.0672 0.00331 0.0
C459 C 0.98505 0.03973 0.017 0.0
C460 C 0.9936 0.03536 0.04648 0.0
C461 C 0.01137 0.05712 0.06116 0.0
C462 C 0.94086 0.96744 -0.00162 0.0
C463 C 0.94754 0.96507 0.96818 0.0
C464 C 0.95184 0.99234 0.014 0.0
C465 C 0.97055 0.01478 -0.00016 0.0
C466 C 0.97717 0.01206 0.96945 0.0
C467 C 0.96532 0.98765 0.95367 0.0
H468 H 0.29319 0.69387 0.26603 0.0
H469 H 0.23599 0.69453 0.18974 0.0
H470 H 0.26408 0.72912 0.29066 0.0
H471 H 0.20737 0.72989 0.21411 0.0
H472 H 0.15397 0.78761 0.26853 0.0
H473 H 0.17487 0.74199 0.25567 0.0
H474 H 0.2625 0.78173 0.27797 0.0
H475 H 0.24178 0.82701 0.29114 0.0
C476 C 0.27406 0.70102 0.25479 0.0
C477 C 0.26722 0.69192 0.22573 0.0
C478 C 0.25751 0.72127 0.26883 0.0
C479 C 0.23377 0.73253 0.2541 0.0
C480 C 0.22546 0.72152 0.22607 0.0
C481 C 0.24205 0.70143 0.21201 0.0
C482 C 0.17766 0.78651 0.27091 0.0
C483 C 0.19629 0.81108 0.28042 0.0
C484 C 0.18957 0.76039 0.26362 0.0
C485 C 0.22027 0.75833 0.26586 0.0
C486 C 0.23868 0.78251 0.27645 0.0
C487 C 0.22683 0.8086 0.28363 0.0
H488 H 0.48467 0.89264 0.49148 0.0
H489 H 0.44104 0.94137 0.5576 0.0
H490 H 0.4942 0.93713 0.46148 0.0
H491 H 0.4476 0.98527 0.52663 0.0
H492 H 0.51683 0.06032 0.49583 0.0
H493 H 0.48867 0.01785 0.51808 0.0
H494 H 0.48158 0.97588 0.43217 0.0
H495 H 0.51175 0.01792 0.41043 0.0
C496 C 0.47588 0.91265 0.49879 0.0
C497 C 0.46153 0.91367 0.52628 0.0
C498 C 0.48107 0.93815 0.48158 0.0
C499 C 0.47181 0.965 0.49168 0.0
C500 C 0.45558 0.96523 0.5184 0.0
C501 C 0.45134 0.94001 0.53595 0.0
C502 C 0.50868 0.04226 0.48166 0.0
C503 C 0.5169 0.04196 0.45167 0.0
C504 C 0.49226 0.01789 0.49432 0.0
C505 C 0.48318 0.99307 0.47701 0.0
C506 C 0.48897 0.9942 0.44631 0.0
C507 C 0.50606 0.01829 0.43382 0.0
H508 H 0.2287 0.15915 0.76238 0.0
H509 H 0.31025 0.21453 0.74447 0.0
H510 H 0.20005 0.19899 0.7467 0.0
H511 H 0.28157 0.2543 0.72926 0.0
H512 H 0.21816 0.29896 0.66699 0.0
H513 H 0.24892 0.2632 0.68732 0.0
H514 H 0.18931 0.24961 0.7627 0.0
H515 H 0.15809 0.28542 0.7421 0.0
C516 C 0.2405 0.17974 0.75503 0.0
C517 C 0.27174 0.18361 0.75448 0.0
C518 C 0.2241 0.20264 0.74642 0.0
C519 C 0.23863 0.22975 0.73699 0.0
C520 C 0.26982 0.23357 0.7363 0.0
C521 C 0.28621 0.21075 0.74498 0.0
C522 C 0.2118 0.28868 0.68812 0.0
C523 C 0.1856 0.29479 0.70286 0.0
C524 C 0.2295 0.26829 0.69981 0.0
C525 C 0.22132 0.25347 0.72642 0.0
C526 C 0.19585 0.26049 0.74191 0.0
C527 C 0.17819 0.28116 0.7303 0.0
H528 H 0.02159 0.90101 0.45321 0.0
H529 H 0.0899 0.9408 0.51075 0.0
H530 H 0.98536 0.92957 0.47671 0.0
H531 H 0.05338 0.96827 0.53542 0.0
H532 H 0.99419 0.04142 0.54533 0.0
H533 H 0.02822 0.00931 0.52365 0.0
H534 H 0.95663 0.93932 0.51856 0.0
H535 H 0.9223 0.97211 0.53891 0.0
C536 C 0.02865 0.91522 0.47152 0.0
C537 C 0.05861 0.91893 0.47999 0.0
C538 C 0.00786 0.93161 0.48503 0.0
C539 C 0.01653 0.95169 0.50761 0.0
C540 C 0.04611 0.95373 0.51746 0.0
C541 C 0.06699 0.93774 0.5036 0.0
C542 C 0.98571 0.01925 0.5393 0.0
C543 C 0.95563 0.00926 0.54374 0.0
C544 C 0.00527 0.00069 0.52721 0.0
C545 C 0.99533 0.9715 0.51981 0.0
C546 C 0.96504 0.96171 0.52377 0.0
C547 C 0.94534 0.98049 0.53541 0.0
H548 H 0.36276 0.78871 0.76593 0.0
H549 H 0.29093 0.80633 0.70782 0.0
H550 H 0.32636 0.76697 0.80241 0.0
H551 H 0.25515 0.78435 0.74346 0.0
H552 H 0.19233 0.75265 0.81194 0.0
H553 H 0.23228 0.78694 0.7917 0.0
H554 H 0.29375 0.72085 0.80149 0.0
H555 H 0.2542 0.68702 0.82266 0.0
C556 C 0.33928 0.78824 0.76112 0.0
C557 C 0.32966 0.79866 0.73387 0.0
C558 C 0.31852 0.77584 0.78193 0.0
C559 C 0.28796 0.77396 0.77575 0.0
C560 C 0.27848 0.78587 0.74914 0.0
C561 C 0.29908 0.79809 0.72846 0.0
C562 C 0.21449 0.74565 0.81017 0.0
C563 C 0.22005 0.71698 0.81814 0.0
C564 C 0.23734 0.76528 0.79871 0.0
C565 C 0.26598 0.75639 0.79464 0.0
C566 C 0.27198 0.72843 0.8046 0.0
C567 C 0.24921 0.70892 0.81639 0.0
H568 H 0.47189 0.08801 0.96531 0.0
H569 H 0.41513 0.00913 0.94424 0.0
H570 H 0.50061 0.05938 -0.00174 0.0
H571 H 0.44403 0.98066 0.97695 0.0
H572 H 0.47984 0.94946 0.06579 0.0
H573 H 0.45213 0.97766 0.03156 0.0
H574 H 0.53457 0.01939 0.99514 0.0
H575 H 0.56239 0.99147 0.02946 0.0
C576 C 0.46565 0.06458 0.96755 0.0
C577 C 0.44119 0.05086 0.95223 0.0
C578 C 0.48216 0.0482 0.98631 0.0
C579 C 0.47441 0.01787 0.99019 0.0
C580 C 0.45022 0.00409 0.97462 0.0
C581 C 0.43382 0.0204 0.95576 0.0
C582 C 0.49207 0.96462 0.05048 0.0
C583 C 0.5233 0.96825 0.05035 0.0
C584 C 0.4762 0.98063 0.03079 0.0
C585 C 0.49126 0.00067 0.01075 0.0
C586 C 0.52245 0.00429 0.01058 0.0
C587 C 0.53833 0.98817 0.03013 0.0
H588 H 0.28826 0.24204 0.35914 0.0
H589 H 0.33256 0.26378 0.27544 0.0
H590 H 0.26992 0.19391 0.33983 0.0
H591 H 0.31288 0.21717 0.25549 0.0
H592 H 0.26411 0.14789 0.2122 0.0
H593 H 0.30118 0.16734 0.24787 0.0
H594 H 0.23043 0.18601 0.30823 0.0
H595 H 0.1942 0.16528 0.27383 0.0
C596 C 0.29417 0.2364 0.33669 0.0
C597 C 0.31071 0.25691 0.31831 0.0
C598 C 0.28385 0.20884 0.32565 0.0
C599 C 0.28898 0.20195 0.29575 0.0
C600 C 0.30833 0.22141 0.2786 0.0
C601 C 0.31924 0.24855 0.28987 0.0
C602 C 0.25669 0.15545 0.23349 0.0
C603 C 0.22635 0.15653 0.23969 0.0
C604 C 0.27787 0.16654 0.25394 0.0
C605 C 0.26887 0.17943 0.28043 0.0
C606 C 0.2385 0.1766 0.2881 0.0
C607 C 0.21749 0.16517 0.26796 0.0
H608 H 0.48741 0.56004 0.06377 0.0
H609 H 0.4111 0.50232 0.03646 0.0
H610 H 0.51954 0.53284 0.0328 0.0
H611 H 0.44323 0.47438 0.00662 0.0
H612 H 0.50262 0.44726 0.93366 0.0
H613 H 0.47208 0.47735 0.96282 0.0
H614 H 0.54005 0.48687 0.02993 0.0
H615 H 0.5713 0.45772 -0.00013 0.0
C616 C 0.47754 0.54147 0.05123 0.0
C617 C 0.44675 0.53335 0.05243 0.0
C618 C 0.49597 0.52576 0.03366 0.0
C619 C 0.48399 0.50141 0.01723 0.0
C620 C 0.45315 0.49336 0.01851 0.0
C621 C 0.43472 0.50929 0.03574 0.0
C622 C 0.51107 0.45579 0.95464 0.0
C623 C 0.53926 0.45001 0.96461 0.0
C624 C 0.49348 0.47293 0.97145 0.0
C625 C 0.50346 0.48431 -0.00114 0.0
C626 C 0.53183 0.47875 0.00873 0.0
C627 C 0.54967 0.46191 0.99164 0.0
H628 H 0.84865 0.29377 0.23741 0.0
H629 H 0.78 0.34815 0.21204 0.0
H630 H 0.81325 0.26437 0.26901 0.0
H631 H 0.74481 0.31975 0.2449 0.0
H632 H 0.68362 0.23601 0.266 0.0
H633 H 0.71911 0.27242 0.24237 0.0
H634 H 0.78247 0.26016 0.3116 0.0
H635 H 0.74734 0.22259 0.33439 0.0
C636 C 0.82615 0.29988 0.23925 0.0
C637 C 0.81684 0.32285 0.22202 0.0
C638 C 0.80587 0.28316 0.2575 0.0
C639 C 0.77607 0.28949 0.25919 0.0
C640 C 0.7674 0.31383 0.24347 0.0
C641 C 0.78754 0.33019 0.22481 0.0
C642 C 0.70506 0.24126 0.27624 0.0
C643 C 0.71291 0.22629 0.30178 0.0
C644 C 0.72534 0.26234 0.26288 0.0
C645 C 0.75368 0.26922 0.2751 0.0
C646 C 0.76104 0.25499 0.30134 0.0
C647 C 0.74092 0.23354 0.31442 0.0
H648 H 0.06422 0.50194 0.50623 0.0
H649 H 0.99291 0.49308 0.57124 0.0
H650 H 0.03736 0.53667 0.47799 0.0
H651 H 0.96648 0.52805 0.54324 0.0
H652 H 0.93958 0.61082 0.49693 0.0
H653 H 0.97429 0.58412 0.5258 0.0
H654 H 0.98582 0.52762 0.45097 0.0
H655 H 0.95094 0.5537 0.42251 0.0
C656 C 0.04295 0.50754 0.51456 0.0
C657 C 0.03049 0.4946 0.54075 0.0
C658 C 0.0277 0.52742 0.49848 0.0
C659 C 8e-05 0.53511 0.50868 0.0
C660 C 0.98796 0.52273 0.53519 0.0
C661 C 0.00291 0.50247 0.55097 0.0
C662 C 0.95003 0.59306 0.48659 0.0
C663 C 0.9425 0.58406 0.4577 0.0
C664 C 0.96969 0.57778 0.50306 0.0
C665 C 0.98254 0.55386 0.49051 0.0
C666 C 0.97633 0.54611 0.46102 0.0
C667 C 0.95628 0.5609 0.44486 0.0
H668 H 0.83288 0.71151 0.23818 0.0
H669 H 0.75104 0.65566 0.25306 0.0
H670 H 0.80414 0.75269 0.22644 0.0
H671 H 0.72262 0.69673 0.24148 0.0
H672 H 0.68053 0.78229 0.24538 0.0
H673 H 0.71379 0.7469 0.2631 0.0
H674 H 0.76877 0.7631 0.18473 0.0
H675 H 0.7357 0.79824 0.167 0.0
C676 C 0.80883 0.708 0.23886 0.0
C677 C 0.79423 0.68029 0.24634 0.0
C678 C 0.79245 0.73155 0.23224 0.0
C679 C 0.76123 0.72788 0.23341 0.0
C680 C 0.74668 0.70024 0.24093 0.0
C681 C 0.76299 0.67666 0.24718 0.0
C682 C 0.70005 0.7787 0.23229 0.0
C683 C 0.70539 0.79271 0.2047 0.0
C684 C 0.71893 0.75838 0.24231 0.0
C685 C 0.74362 0.75216 0.22509 0.0
C686 C 0.74996 0.76759 0.19845 0.0
C687 C 0.73092 0.78755 0.18826 0.0
H688 H 0.76046 0.18529 0.68232 0.0
H689 H 0.82689 0.19247 0.751 0.0
H690 H 0.73207 0.21925 0.70903 0.0
H691 H 0.79801 0.22623 0.77807 0.0
H692 H 0.67934 0.27155 0.76935 0.0
H693 H 0.70362 0.22891 0.75368 0.0
H694 H 0.78949 0.27767 0.76597 0.0
H695 H 0.76529 0.32021 0.78225 0.0
C696 C 0.76865 0.19359 0.70348 0.0
C697 C 0.79615 0.18664 0.71431 0.0
C698 C 0.75227 0.21291 0.71888 0.0
C699 C 0.76307 0.22564 0.74542 0.0
C700 C 0.78947 0.21704 0.75739 0.0
C701 C 0.80585 0.19758 0.742 0.0
C702 C 0.70341 0.27316 0.76887 0.0
C703 C 0.72043 0.29939 0.77666 0.0
C704 C 0.71726 0.24871 0.75996 0.0
C705 C 0.74839 0.25001 0.7586 0.0
C706 C 0.76543 0.27591 0.76724 0.0
C707 C 0.75157 0.30038 0.77623 0.0
H708 H 0.8303 0.7442 0.81961 0.0
H709 H 0.74369 0.77156 0.84102 0.0
H710 H 0.80685 0.69737 0.80172 0.0
H711 H 0.72045 0.72517 0.82282 0.0
H712 H 0.6784 0.64812 0.78635 0.0
H713 H 0.71177 0.67109 0.82346 0.0
H714 H 0.77862 0.69224 0.75543 0.0
H715 H 0.74571 0.66891 0.71858 0.0
C716 C 0.80631 0.74007 0.82093 0.0
C717 C 0.78871 0.76188 0.83084 0.0
C718 C 0.79298 0.71318 0.81091 0.0
C719 C 0.7619 0.70773 0.81068 0.0
C720 C 0.74451 0.72855 0.82302 0.0
C721 C 0.75779 0.7554 0.833 0.0
C722 C 0.70059 0.65686 0.77951 0.0
C723 C 0.70906 0.65798 0.74943 0.0
C724 C 0.71969 0.66983 0.80079 0.0
C725 C 0.74733 0.68419 0.79213 0.0
C726 C 0.75737 0.68146 0.76277 0.0
C727 C 0.73833 0.66838 0.74153 0.0
H728 H 0.42861 0.48691 0.43937 0.0
H729 H 0.45106 0.43185 0.51265 0.0
H730 H 0.45594 0.52929 0.46235 0.0
H731 H 0.47825 0.47456 0.5356 0.0
H732 H 0.5136 0.5602 0.57591 0.0
H733 H 0.47225 0.52806 0.55597 0.0
H734 H 0.5139 0.53414 0.46926 0.0
H735 H 0.55546 0.56592 0.48908 0.0
C736 C 0.43894 0.48393 0.46061 0.0
C737 C 0.43824 0.45597 0.47401 0.0
C738 C 0.4544 0.50821 0.47371 0.0
C739 C 0.46903 0.50494 0.50055 0.0
C740 C 0.46678 0.47749 0.51496 0.0
C741 C 0.45157 0.45307 0.5017 0.0
C742 C 0.51357 0.55523 0.55244 0.0
C743 C 0.53787 0.56505 0.53404 0.0
C744 C 0.48998 0.5369 0.54116 0.0
C745 C 0.49021 0.52873 0.51129 0.0
C746 C 0.5133 0.54042 0.49238 0.0
C747 C 0.53711 0.55835 0.50374 0.0
H748 H 0.02676 0.49469 0.90855 0.0
H749 H 0.98055 0.55144 0.96539 0.0
H750 H 0.99757 0.45214 0.929 0.0
H751 H 0.95022 0.50846 0.98533 0.0
H752 H 0.97287 0.43344 0.05125 0.0
H753 H 0.97074 0.47611 0.0196 0.0
H754 H 0.95537 0.41926 0.94364 0.0
H755 H 0.95822 0.37618 0.97598 0.0
C756 C 0.0097 0.49815 0.92485 0.0
C757 C 0.00685 0.52625 0.93638 0.0
C758 C 0.99251 0.47366 0.93626 0.0
C759 C 0.97209 0.47682 0.95943 0.0
C760 C 0.96636 0.50533 0.968 0.0
C761 C 0.98375 0.52992 0.95665 0.0
C762 C 0.9684 0.43014 0.02787 0.0
C763 C 0.96658 0.4019 0.01566 0.0
C764 C 0.96665 0.45455 0.00973 0.0
C765 C 0.9633 0.45116 0.97893 0.0
C766 C 0.95844 0.42255 0.96722 0.0
C767 C 0.96018 0.39798 0.98555 0.0
H768 H 0.08633 0.06958 0.16433 0.0
H769 H 0.16819 0.0619 0.11634 0.0
H770 H 0.09534 0.02783 0.19517 0.0
H771 H 0.17777 0.01984 0.14766 0.0
H772 H 0.19933 0.97029 0.23434 0.0
H773 H 0.19106 0.00749 0.19696 0.0
H774 H 0.09726 0.97757 0.19746 0.0
H775 H 0.10531 0.94163 0.23536 0.0
C776 C 0.10647 0.059 0.16064 0.0
C777 C 0.12711 0.06951 0.13876 0.0
C778 C 0.11147 0.03469 0.17799 0.0
C779 C 0.13748 0.02048 0.17418 0.0
C780 C 0.15786 0.03065 0.15169 0.0
C781 C 0.15248 0.05473 0.13382 0.0
C782 C 0.17698 0.97177 0.22643 0.0
C783 C 0.15292 0.95343 0.23829 0.0
C784 C 0.17227 0.9928 0.20467 0.0
C785 C 0.14339 0.9959 0.19443 0.0
C786 C 0.11966 0.97651 0.20539 0.0
C787 C 0.12433 0.95569 0.22708 0.0
H788 H 0.3726 0.94471 0.47468 0.0
H789 H 0.32076 0.86371 0.49986 0.0
H790 H 0.33818 0.95151 0.43431 0.0
H791 H 0.28632 0.87067 0.45954 0.0
H792 H 0.21334 0.90836 0.40663 0.0
H793 H 0.24886 0.90608 0.44703 0.0
H794 H 0.32157 0.92779 0.38597 0.0
H795 H 0.28635 0.93063 0.3455 0.0
C796 C 0.35389 0.92832 0.47162 0.0
C797 C 0.34927 0.9038 0.49079 0.0
C798 C 0.3342 0.93223 0.44842 0.0
C799 C 0.30928 0.91185 0.44396 0.0
C800 C 0.30491 0.88712 0.46284 0.0
C801 C 0.32473 0.88307 0.48587 0.0
C802 C 0.23685 0.91309 0.40185 0.0
C803 C 0.24694 0.91957 0.37275 0.0
C804 C 0.25713 0.91139 0.42495 0.0
C805 C 0.28791 0.91611 0.41965 0.0
C806 C 0.29798 0.92399 0.39084 0.0
C807 C 0.27775 0.92561 0.36764 0.0
H808 H 0.31082 0.02624 0.74109 0.0
H809 H 0.39485 0.07946 0.73092 0.0
H810 H 0.32744 0.99101 0.70582 0.0
H811 H 0.41154 0.04423 0.69587 0.0
H812 H 0.44439 0.95995 0.66058 0.0
H813 H 0.4269 0.99628 0.69401 0.0
H814 H 0.33937 0.98242 0.6557 0.0
H815 H 0.35665 0.94557 0.62279 0.0
C816 C 0.3329 0.03033 0.73147 0.0
C817 C 0.35156 0.05554 0.739 0.0
C818 C 0.34239 0.01025 0.71103 0.0
C819 C 0.37101 0.01454 0.69818 0.0
C820 C 0.38959 0.03985 0.70571 0.0
C821 C 0.37995 0.06015 0.72576 0.0
C822 C 0.42138 0.96456 0.65934 0.0
C823 C 0.40195 0.94977 0.639 0.0
C824 C 0.41141 0.98569 0.6783 0.0
C825 C 0.38171 0.99246 0.67751 0.0
C826 C 0.36227 0.97756 0.65723 0.0
C827 C 0.37225 0.9565 0.63821 0.0
H828 H 0.25818 0.05816 0.88233 0.0
H829 H 0.27733 0.15228 0.8755 0.0
H830 H 0.22767 0.06397 0.92621 0.0
H831 H 0.24453 0.15868 0.9176 0.0
H832 H 0.19193 0.1609 0.00457 0.0
H833 H 0.22938 0.15701 0.96586 0.0
H834 H 0.18154 0.07567 0.93653 0.0
H835 H 0.14549 0.07902 0.97569 0.0
C836 C 0.25591 0.08011 0.89048 0.0
C837 C 0.26994 0.10475 0.8757 0.0
C838 C 0.23791 0.0836 0.91527 0.0
C839 C 0.23242 0.11191 0.92502 0.0
C840 C 0.24799 0.13652 0.91102 0.0
C841 C 0.26689 0.13292 0.88684 0.0
C842 C 0.18956 0.14227 0.98972 0.0
C843 C 0.16607 0.12003 0.99351 0.0
C844 C 0.21105 0.13996 0.96744 0.0
C845 C 0.20935 0.11543 0.9484 0.0
C846 C 0.18479 0.09413 0.95148 0.0
C847 C 0.1637 0.09625 0.97383 0.0
H848 H 0.08676 0.06059 0.25401 0.0
H849 H 0.18036 0.05695 0.23699 0.0
H850 H 0.08691 0.01928 0.28885 0.0
H851 H 0.18093 0.0164 0.27237 0.0
H852 H 0.17599 0.96871 0.36274 0.0
H853 H 0.17659 0.0067 0.32458 0.0
H854 H 0.09255 0.96702 0.29185 0.0
H855 H 0.09159 0.92939 0.33037 0.0
C856 C 0.10726 0.05068 0.25757 0.0
C857 C 0.13343 0.0615 0.2426 0.0
C858 C 0.10739 0.02702 0.2774 0.0
C859 C 0.13392 0.01436 0.28325 0.0
C860 C 0.16013 0.0256 0.26842 0.0
C861 C 0.15978 0.04863 0.24797 0.0
C862 C 0.15777 0.9679 0.34724 0.0
C863 C 0.13367 0.94606 0.34979 0.0
C864 C 0.15815 0.98965 0.32527 0.0
C865 C 0.13443 0.99012 0.30535 0.0
C866 C 0.11086 0.96767 0.30724 0.0
C867 C 0.11051 0.94587 0.32914 0.0
H868 H 0.32976 0.89138 0.58606 0.0
H869 H 0.29146 0.8011 0.58024 0.0
H870 H 0.29446 0.90572 0.54948 0.0
H871 H 0.25504 0.81552 0.54558 0.0
H872 H 0.2082 0.84303 0.46458 0.0
H873 H 0.24727 0.82998 0.49752 0.0
H874 H 0.24505 0.91309 0.5428 0.0
H875 H 0.20741 0.92663 0.50874 0.0
C876 C 0.31372 0.87465 0.57707 0.0
C877 C 0.31362 0.84509 0.58573 0.0
C878 C 0.29321 0.88288 0.55636 0.0
C879 C 0.27178 0.86178 0.54444 0.0
C880 C 0.27161 0.8323 0.55355 0.0
C881 C 0.29239 0.82404 0.57373 0.0
C882 C 0.21615 0.85842 0.48161 0.0
C883 C 0.20474 0.88573 0.48423 0.0
C884 C 0.23841 0.85093 0.50065 0.0
C885 C 0.24927 0.87037 0.5231 0.0
C886 C 0.23776 0.89775 0.52552 0.0
C887 C 0.21593 0.90542 0.50615 0.0
H888 H 0.41142 0.05354 0.80167 0.0
H889 H 0.33241 -0.00064 0.82994 0.0
H890 H 0.42035 0.01762 0.76335 0.0
H891 H 0.34123 0.9636 0.79181 0.0
H892 H 0.35318 0.91375 0.70677 0.0
H893 H 0.34271 0.9536 0.73969 0.0
H894 H 0.43577 0.96772 0.76184 0.0
H895 H 0.44595 0.92668 0.72985 0.0
C896 C 0.39565 0.03426 0.79934 0.0
C897 C 0.37125 0.02924 0.8189 0.0
C898 C 0.40098 0.01348 0.77763 0.0
C899 C 0.3817 0.98752 0.77465 0.0
C900 C 0.35645 0.98338 0.79325 0.0
C901 C 0.35139 0.00389 0.81519 0.0
C902 C 0.3715 0.92573 0.71822 0.0
C903 C 0.40045 0.9173 0.7155 0.0
C904 C 0.36548 0.94849 0.73728 0.0
C905 C 0.38842 0.96421 0.7532 0.0
C906 C 0.41762 0.95645 0.74957 0.0
C907 C 0.42349 0.93297 0.73125 0.0
H908 H 0.32188 0.16419 0.94987 0.0
H909 H 0.29898 0.07031 0.95453 0.0
H910 H 0.28795 0.17084 0.99098 0.0
H911 H 0.26642 0.07654 0.99679 0.0
H912 H 0.19684 0.09743 0.06526 0.0
H913 H 0.2241 0.09108 0.01907 0.0
H914 H 0.28628 0.16567 0.04145 0.0
H915 H 0.25848 0.17251 0.08653 0.0
C916 C 0.3094 0.14498 0.9596 0.0
C917 C 0.3132 0.11676 0.94901 0.0
C918 C 0.29025 0.14868 0.98356 0.0
C919 C 0.27492 0.12418 -0.00189 0.0
C920 C 0.27763 0.09603 0.98639 0.0
C921 C 0.29637 0.09241 0.96203 0.0
C922 C 0.21631 0.11246 0.06016 0.0
C923 C 0.2254 0.13553 0.07956 0.0
C924 C 0.23215 0.10873 0.03373 0.0
C925 C 0.25746 0.128 0.02605 0.0
C926 C 0.2665 0.15086 0.0458 0.0
C927 C 0.25063 0.15466 0.07199 0.0
H928 H 0.90965 0.27757 0.1638 0.0
H929 H 0.94531 0.32229 0.08541 0.0
H930 H 0.94306 0.23978 0.15715 0.0
H931 H 0.98205 0.28722 0.08034 0.0
H932 H 0.04129 0.21394 0.07022 0.0
H933 H 0.00246 0.24684 0.07105 0.0
H934 H 0.98745 0.22724 0.16457 0.0
H935 H 0.0245 0.19291 0.16257 0.0
C936 C 0.92515 0.27937 0.14523 0.0
C937 C 0.92593 0.30329 0.12565 0.0
C938 C 0.94492 0.25799 0.14164 0.0
C939 C 0.96685 0.2606 0.11896 0.0
C940 C 0.96597 0.28381 0.09821 0.0
C941 C 0.94515 0.30442 0.10119 0.0
C942 C 0.02978 0.21706 0.09098 0.0
C943 C 0.03598 0.20091 0.11634 0.0
C944 C 0.0073 0.23607 0.09158 0.0
C945 C 0.99088 0.24002 0.11783 0.0
C946 C -0.00183 0.22438 0.14342 0.0
C947 C 0.02013 0.20498 0.14258 0.0
H948 H 0.52872 0.28881 0.92658 0.0
H949 H 0.47927 0.33453 0.86259 0.0
H950 H 0.49818 0.24272 0.91531 0.0
H951 H 0.44926 0.28901 0.85158 0.0
H952 H 0.37581 0.20253 0.85901 0.0
H953 H 0.41145 0.24287 0.88814 0.0
H954 H 0.49544 0.19292 0.81532 0.0
H955 H 0.44655 0.15901 0.79712 0.0
C956 C 0.51133 0.28905 0.91025 0.0
C957 C 0.50753 0.31491 0.89421 0.0
C958 C 0.49397 0.26268 0.90373 0.0
C959 C 0.47328 0.26191 0.88053 0.0
C960 C 0.46648 0.28864 0.86809 0.0
C961 C 0.4837 0.31477 0.87445 0.0
C962 C 0.39934 0.20302 0.85417 0.0
C963 C 0.4093 0.17907 0.82768 0.0
C964 C 0.42159 0.22855 0.87286 0.0
C965 C 0.45929 0.2336 0.86671 0.0
C966 C 0.47431 0.1961 0.82633 0.0
C967 C 0.44385 0.17482 0.81447 0.0
H968 H 0.95487 0.70776 0.42172 0.0
H969 H 0.95283 0.70453 0.29648 0.0
H970 H 0.00794 0.73399 0.40923 0.0
H971 H 0.0085 0.73172 0.30284 0.0
H972 H 0.02267 0.86747 0.33413 0.0
H973 H 0.98041 0.82622 0.3582 0.0
H974 H 0.07089 0.75114 0.33933 0.0
H975 H 0.09812 0.80158 0.31935 0.0
C976 C 0.96058 0.71093 0.3985 0.0
C977 C 0.93591 0.69858 0.37174 0.0
C978 C 0.99486 0.72638 0.39028 0.0
C979 C 0.01007 0.73532 0.35657 0.0
C980 C 0.99592 0.72518 0.32276 0.0
C981 C 0.96046 0.7093 0.31908 0.0
C982 C 0.02826 0.84519 0.33729 0.0
C983 C 0.06224 0.83601 0.32565 0.0
C984 C 0.00252 0.81953 0.35332 0.0
C985 C 0.02427 0.76761 0.3554 0.0
C986 C 0.05929 0.77067 0.34125 0.0
C987 C 0.07582 0.80266 0.328 0.0
H988 H 0.00106 0.30903 0.15927 0.0
H989 H 0.07847 0.35284 0.1153 0.0
H990 H 0.02927 0.2686 0.17278 0.0
H991 H 0.10683 0.31185 0.12814 0.0
H992 H 0.13351 0.21875 0.11625 0.0
H993 H 0.10919 0.26382 0.11142 0.0
H994 H 0.06517 0.24564 0.19613 0.0
H995 H 0.08782 0.1997 0.19965 0.0
C996 C 0.02432 0.31011 0.15287 0.0
C997 C 0.0375 0.33381 0.13592 0.0
C998 C 0.04053 0.28677 0.1604 0.0
C999 C 0.07001 0.28608 0.15031 0.0
C1000 C 0.08383 0.311 0.13531 0.0
C1001 C 0.06775 0.33473 0.12833 0.0
C1002 C 0.11837 0.22435 0.13362 0.0
C1003 C 0.11225 0.20556 0.1581 0.0
C1004 C 0.10475 0.25043 0.13115 0.0
C1005 C 0.08534 0.25877 0.15355 0.0
C1006 C 0.07956 0.23994 0.17819 0.0
C1007 C 0.09253 0.21349 0.18022 0.0
H1008 H 0.57247 0.70996 0.71318 0.0
H1009 H 0.61856 0.73191 0.63054 0.0
H1010 H 0.54825 0.7551 0.71016 0.0
H1011 H 0.59299 0.77622 0.62638 0.0
H1012 H 0.55882 0.86407 0.63172 0.0
H1013 H 0.58838 0.82366 0.64349 0.0
H1014 H 0.51145 0.77683 0.68612 0.0
H1015 H 0.48319 0.81812 0.67642 0.0
C1016 C 0.57715 0.72432 0.69416 0.0
C1017 C 0.59731 0.71729 0.67202 0.0
C1018 C 0.56317 0.75024 0.69234 0.0
C1019 C 0.56856 0.76961 0.66803 0.0
C1020 C 0.58875 0.76242 0.64585 0.0
C1021 C 0.60322 0.73679 0.64802 0.0
C1022 C 0.54863 0.84553 0.6445 0.0
C1023 C 0.51843 0.84393 0.65254 0.0
C1024 C 0.56538 0.82204 0.65075 0.0
C1025 C 0.55222 0.7964 0.66507 0.0
C1026 C 0.52261 0.79602 0.67513 0.0
C1027 C 0.5061 0.81962 0.66918 0.0
H1028 H 0.96015 0.63995 0.33812 0.0
H1029 H 0.88626 0.70555 0.3167 0.0
H1030 H 0.00094 0.68152 0.36229 0.0
H1031 H 0.91217 0.75629 0.3362 0.0
H1032 H 0.02399 0.80324 0.42023 0.0
H1033 H 0.9714 0.77557 0.40756 0.0
H1034 H 0.97614 0.77408 0.30106 0.0
H1035 H 0.03183 0.80229 0.2954 0.0
C1036 C 0.95403 0.66206 0.34099 0.0
C1037 C 0.92118 0.67113 0.32699 0.0
C1038 C 0.97909 0.68811 0.35647 0.0
C1039 C 0.95764 0.7401 0.35504 0.0
C1040 C 0.92342 0.73675 0.33975 0.0
C1041 C 0.90749 0.70446 0.32735 0.0
C1042 C 0.01925 0.79837 0.3972 0.0
C1043 C 0.04487 0.80978 0.37078 0.0
C1044 C 0.98544 0.78244 0.38868 0.0
C1045 C 0.97187 0.7723 0.35493 0.0
C1046 C 0.98775 0.78121 0.32105 0.0
C1047 C 0.02336 0.79725 0.31787 0.0
H1048 H 0.49029 0.17693 0.89483 0.0
H1049 H 0.4199 0.22987 0.81099 0.0
H1050 H 0.53055 0.217 0.87135 0.0
H1051 H 0.47099 0.26395 0.80028 0.0
H1052 H 0.55881 0.306 0.77007 0.0
H1053 H 0.51852 0.26816 0.78114 0.0
H1054 H 0.5483 0.26495 0.87185 0.0
H1055 H 0.58807 0.30297 0.86079 0.0
C1056 C 0.48325 0.19103 0.87743 0.0
C1057 C 0.44721 0.18641 0.86569 0.0
C1058 C 0.50845 0.21691 0.8624 0.0
C1059 C 0.50354 0.24209 0.83496 0.0
C1060 C 0.47154 0.24652 0.81652 0.0
C1061 C 0.43938 0.22509 0.82375 0.0
C1062 C 0.5563 0.29755 0.79255 0.0
C1063 C 0.57625 0.30788 0.81473 0.0
C1064 C 0.5331 0.27584 0.79896 0.0
C1065 C 0.52936 0.26382 0.82767 0.0
C1066 C 0.54984 0.2738 0.84961 0.0
C1067 C 0.57269 0.2959 0.84337 0.0
H1068 H 0.92867 0.08253 0.73333 0.0
H1069 H 0.83631 0.05681 0.7149 0.0
H1070 H 0.92871 0.04208 0.76921 0.0
H1071 H 0.83595 0.01704 0.75137 0.0
H1072 H 0.8395 0.97596 0.84512 0.0
H1073 H 0.83954 0.01252 0.80549 0.0
H1074 H 0.92384 0.98762 0.77348 0.0
H1075 H 0.92348 0.95063 0.81297 0.0
C1076 C 0.90854 0.06789 0.73667 0.0
C1077 C 0.88262 0.07244 0.72113 0.0
C1078 C 0.90852 0.04481 0.75721 0.0
C1079 C 0.8823 0.0264 0.76321 0.0
C1080 C 0.85643 0.03096 0.74745 0.0
C1081 C 0.85672 0.05347 0.72629 0.0
C1082 C 0.85779 0.97799 0.8293 0.0
C1083 C 0.88139 0.96035 0.83196 0.0
C1084 C 0.85782 -0.00109 0.80659 0.0
C1085 C 0.88171 0.00302 0.78634 0.0
C1086 C 0.90517 0.98508 0.78881 0.0
C1087 C 0.90484 0.96371 0.81121 0.0
H1088 H 0.64878 0.16416 0.48408 0.0
H1089 H 0.67163 0.07725 0.46183 0.0
H1090 H 0.68958 0.16953 0.51906 0.0
H1091 H 0.71242 0.08256 0.49669 0.0
H1092 H 0.77065 0.09323 0.57948 0.0
H1093 H 0.72808 0.08547 0.54637 0.0
H1094 H 0.74136 0.17694 0.51961 0.0
H1095 H 0.78296 0.18466 0.55306 0.0
C1096 C 0.66267 0.14629 0.48647 0.0
C1097 C 0.65715 0.12046 0.46987 0.0
C1098 C 0.68616 0.14935 0.50652 0.0
C1099 C 0.70466 0.1266 0.51058 0.0
C1100 C 0.69865 0.1005 0.49438 0.0
C1101 C 0.67544 0.09761 0.47404 0.0
C1102 C 0.76452 0.11153 0.56628 0.0
C1103 C 0.78002 0.13957 0.56898 0.0
C1104 C 0.74008 0.10715 0.54734 0.0
C1105 C 0.73082 0.1307 0.5306 0.0
C1106 C 0.74711 0.15846 0.53276 0.0
C1107 C 0.7713 0.16282 0.55168 0.0
H1108 H 0.57966 0.89853 0.25506 0.0
H1109 H 0.66362 0.93827 0.22044 0.0
H1110 H 0.57675 0.94017 0.28836 0.0
H1111 H 0.66117 0.97966 0.25444 0.0
H1112 H 0.65949 0.02553 0.34755 0.0
H1113 H 0.66285 0.98697 0.31031 0.0
H1114 H 0.57147 0.994 0.28656 0.0
H1115 H 0.56892 0.03373 0.32227 0.0
C1116 C 0.59738 0.91633 0.25447 0.0
C1117 C 0.62182 0.9153 0.2352 0.0
C1118 C 0.5957 0.94016 0.27347 0.0
C1119 C 0.61878 0.96312 0.27407 0.0
C1120 C 0.64317 0.96217 0.2546 0.0
C1121 C 0.64445 0.93867 0.23499 0.0
C1122 C 0.64052 0.01932 0.33363 0.0
C1123 C 0.6142 0.0329 0.33708 0.0
C1124 C 0.64235 0.99725 0.31248 0.0
C1125 C 0.6175 0.98767 0.29529 0.0
C1126 C 0.59109 0.00117 0.29914 0.0
C1127 C 0.58967 0.024 0.31939 0.0
H1128 H 0.83575 0.82435 0.97528 0.0
H1129 H 0.81238 0.9119 0.9561 0.0
H1130 H 0.7944 0.81721 0.01069 0.0
H1131 H 0.77144 0.90492 0.99146 0.0
H1132 H 0.71932 0.89378 0.07877 0.0
H1133 H 0.76045 0.90089 0.04313 0.0
H1134 H 0.74151 0.81103 0.01403 0.0
H1135 H 0.7008 0.80394 0.04969 0.0
C1136 C 0.82153 0.84188 0.97831 0.0
C1137 C 0.82719 0.86854 0.96266 0.0
C1138 C 0.79784 0.83784 -0.00138 0.0
C1139 C 0.77956 0.86054 0.00403 0.0
C1140 C 0.78521 0.8871 0.98819 0.0
C1141 C 0.80849 0.89093 0.96754 0.0
C1142 C 0.72377 0.87569 0.0645 0.0
C1143 C 0.70674 0.84836 0.06699 0.0
C1144 C 0.7474 0.8797 0.04411 0.0
C1145 C 0.75449 0.85644 0.02581 0.0
C1146 C 0.73714 0.82925 0.02816 0.0
C1147 C 0.71349 0.82531 0.04836 0.0
H1148 H 0.82698 0.00186 0.65888 0.0
H1149 H 0.91967 0.01351 0.6829 0.0
H1150 H 0.81744 0.96537 0.69857 0.0
H1151 H 0.91035 0.977 0.72197 0.0
H1152 H 0.80678 0.92749 0.7932 0.0
H1153 H 0.81532 0.96174 0.75175 0.0
H1154 H 0.89828 0.9261 0.73185 0.0
H1155 H 0.89016 0.89241 0.77377 0.0
C1156 C 0.84523 0.99681 0.6728 0.0
C1157 C 0.87397 0.01086 0.66802 0.0
C1158 C 0.83981 0.97587 0.69549 0.0
C1159 C 0.86311 0.96822 0.71357 0.0
C1160 C 0.89189 0.98208 0.70842 0.0
C1161 C 0.89717 0.00339 0.68622 0.0
C1162 C 0.82688 0.92698 0.78002 0.0
C1163 C 0.84787 0.9073 0.78698 0.0
C1164 C 0.83163 0.94643 0.75602 0.0
C1165 C 0.85744 0.94665 0.73834 0.0
C1166 C 0.87832 0.92682 0.74519 0.0
C1167 C 0.87364 0.90744 0.76925 0.0
H1168 H 0.84362 0.1205 0.52379 0.0
H1169 H 0.79178 0.0358 0.52532 0.0
H1170 H 0.81134 0.13729 0.48523 0.0
H1171 H 0.75937 0.05262 0.48766 0.0
H1172 H 0.72784 0.07697 0.39733 0.0
H1173 H 0.76138 0.06315 0.43593 0.0
H1174 H 0.76244 0.15012 0.47347 0.0
H1175 H 0.72759 0.16324 0.43555 0.0
C1176 C 0.8252 0.10558 0.5161 0.0
C1177 C 0.82051 0.07668 0.5273 0.0
C1178 C 0.80667 0.1152 0.49405 0.0
C1179 C 0.78312 0.09609 0.48282 0.0
C1180 C 0.77784 0.06764 0.49503 0.0
C1181 C 0.79631 0.05806 0.51688 0.0
C1182 C 0.73487 0.09285 0.41426 0.0
C1183 C 0.72465 0.12081 0.41412 0.0
C1184 C 0.75409 0.08503 0.43634 0.0
C1185 C 0.76409 0.10529 0.45836 0.0
C1186 C 0.75484 0.13381 0.45726 0.0
C1187 C 0.73471 0.14128 0.43574 0.0
H1188 H 0.6443 0.98521 0.16607 0.0
H1189 H 0.55533 0.96798 0.20216 0.0
H1190 H 0.65442 0.0253 0.20108 0.0
H1191 H 0.56529 0.00822 0.23677 0.0
H1192 H 0.58354 0.0998 0.27678 0.0
H1193 H 0.57343 0.06066 0.24046 0.0
H1194 H 0.66199 0.03487 0.25245 0.0
H1195 H 0.6721 0.07387 0.2883 0.0
C1196 C 0.62703 0.98968 0.18174 0.0
C1197 C 0.59906 0.97318 0.18138 0.0
C1198 C 0.6328 0.01276 0.2018 0.0
C1199 C 0.61071 0.02006 0.2219 0.0
C1200 C 0.58286 0.00335 0.22167 0.0
C1201 C 0.57723 0.98 0.20195 0.0
C1202 C 0.60078 0.08569 0.27169 0.0
C1203 C 0.62855 0.0899 0.28564 0.0
C1204 C 0.59499 0.0632 0.2509 0.0
C1205 C 0.6169 0.04455 0.24342 0.0
C1206 C 0.6447 0.049 0.25725 0.0
C1207 C 0.65039 0.07123 0.27815 0.0
H1208 H 0.68538 0.94746 0.04276 0.0
H1209 H 0.63254 0.86402 0.03337 0.0
H1210 H 0.71685 0.93545 0.00156 0.0
H1211 H 0.66342 0.85232 0.99114 0.0
H1212 H 0.74452 0.83073 0.93484 0.0
H1213 H 0.71 0.83994 0.97491 0.0
H1214 H 0.71613 0.93183 0.94953 0.0
H1215 H 0.74994 0.92204 0.90888 0.0
C1216 C 0.68048 0.9265 0.03185 0.0
C1217 C 0.65639 0.90674 0.04124 0.0
C1218 C 0.6983 0.91977 0.00789 0.0
C1219 C 0.69233 0.89321 0.99243 0.0
C1220 C 0.66876 0.87297 0.00247 0.0
C1221 C 0.65104 0.87964 0.02671 0.0
C1222 C 0.73841 0.85286 0.93805 0.0
C1223 C 0.75019 0.87588 0.91947 0.0
C1224 C 0.71855 0.85817 0.96088 0.0
C1225 C 0.71094 0.88683 0.9662 0.0
C1226 C 0.72221 0.90966 0.94679 0.0
C1227 C 0.74149 0.90416 0.92349 0.0
H1228 H 0.98662 0.84926 0.87028 0.0
H1229 H 0.98167 0.80665 0.95609 0.0
H1230 H 0.02423 0.81801 0.85454 0.0
H1231 H 0.01828 0.77471 0.94036 0.0
H1232 H 0.08977 0.72075 0.90855 0.0
H1233 H 0.06222 0.76018 0.92685 0.0
H1234 H 0.02873 0.77241 0.83841 0.0
H1235 H 0.05712 0.73407 0.82037 0.0
C1236 C 0.99352 0.83311 0.88576 0.0
C1237 C 0.9806 0.82997 0.91417 0.0
C1238 C 0.01503 0.81491 0.87669 0.0
C1239 C 0.02379 0.79267 0.89561 0.0
C1240 C 0.01218 0.79106 0.92476 0.0
C1241 C 0.99086 0.80939 0.93386 0.0
C1242 C 0.0763 0.73183 0.89316 0.0
C1243 C 0.07545 0.7241 0.86306 0.0
C1244 C 0.06037 0.75455 0.90363 0.0
C1245 C 0.0428 0.76986 0.88434 0.0
C1246 C 0.04213 0.76185 0.85418 0.0
C1247 C 0.05822 0.73941 0.84374 0.0
H1248 H 0.47523 0.65332 0.17831 0.0
H1249 H 0.44728 0.67925 0.09161 0.0
H1250 H 0.5096 0.69788 0.18082 0.0
H1251 H 0.48221 0.7237 0.09375 0.0
H1252 H 0.57552 0.7787 0.09831 0.0
H1253 H 0.53676 0.73774 0.09397 0.0
H1254 H 0.50912 0.75141 0.18436 0.0
H1255 H 0.54735 0.79233 0.18868 0.0
C1256 C 0.47626 0.66878 0.15993 0.0
C1257 C 0.45845 0.66306 0.13491 0.0
C1258 C 0.4959 0.69429 0.16135 0.0
C1259 C 0.49858 0.71438 0.13751 0.0
C1260 C 0.48074 0.70861 0.11242 0.0
C1261 C 0.46053 0.68337 0.11132 0.0
C1262 C 0.56079 0.77333 0.11706 0.0
C1263 C 0.56479 0.78866 0.14394 0.0
C1264 C 0.53862 0.74981 0.11458 0.0
C1265 C 0.5202 0.74102 0.13898 0.0
C1266 C 0.5233 0.75726 0.16533 0.0
C1267 C 0.54511 0.78095 0.16769 0.0
H1268 H 0.0232 0.33405 0.57392 0.0
H1269 H 0.98368 0.36417 0.65433 0.0
H1270 H 0.99188 0.28717 0.57834 0.0
H1271 H 0.95305 0.3174 0.65906 0.0
H1272 H 0.93247 0.21903 0.67708 0.0
H1273 H 0.96106 0.26643 0.67002 0.0
H1274 H 0.93825 0.26556 0.57723 0.0
H1275 H 0.90775 0.21851 0.58478 0.0
C1276 C 0.00799 0.33057 0.5926 0.0
C1277 C 0.00597 0.35267 0.61387 0.0
C1278 C 0.98989 0.30387 0.595 0.0
C1279 C 0.97016 0.29851 0.61916 0.0
C1280 C 0.9683 0.32068 0.64039 0.0
C1281 C 0.98581 0.3475 0.63765 0.0
C1282 C 0.93375 0.2287 0.65506 0.0
C1283 C 0.91824 0.21477 0.63136 0.0
C1284 C 0.94992 0.25606 0.65107 0.0
C1285 C 0.95223 0.26962 0.623 0.0
C1286 C 0.93721 0.25547 0.59906 0.0
C1287 C 0.91986 0.22855 0.60334 0.0
H1288 H 0.01524 0.66938 0.8631 0.0
H1289 H 0.01142 0.69458 0.95504 0.0
H1290 H 0.9826 0.70657 0.85027 0.0
H1291 H 0.97998 0.73261 0.9424 0.0
H1292 H 0.90526 0.78576 0.91638 0.0
H1293 H 0.93557 0.74664 0.92944 0.0
H1294 H 0.97759 0.7544 0.84266 0.0
H1295 H 0.94654 0.79253 0.82961 0.0
C1296 C 0.00778 0.68325 0.8805 0.0
C1297 C 0.01601 0.67915 0.91004 0.0
C1298 C 0.98907 0.70478 0.87319 0.0
C1299 C 0.97856 0.72319 0.89515 0.0
C1300 C 0.98706 0.71892 0.92472 0.0
C1301 C 0.00546 0.69721 0.93204 0.0
C1302 C 0.92141 0.77938 0.90036 0.0
C1303 C 0.92373 0.79243 0.87209 0.0
C1304 C 0.93888 0.75681 0.90779 0.0
C1305 C 0.95947 0.74704 0.88725 0.0
C1306 C 0.96196 0.76069 0.85913 0.0
C1307 C 0.94434 0.78299 0.85167 0.0
H1308 H 0.40046 0.28274 0.4133 0.0
H1309 H 0.44788 0.294 0.32977 0.0
H1310 H 0.43084 0.24369 0.42697 0.0
H1311 H 0.47819 0.25555 0.34324 0.0
H1312 H 0.51978 0.17363 0.36395 0.0
H1313 H 0.48346 0.20709 0.35031 0.0
H1314 H 0.47646 0.23279 0.44216 0.0
H1315 H 0.51224 0.1991 0.45559 0.0
C1316 C 0.41771 0.27721 0.39807 0.0
C1317 C 0.42202 0.29181 0.37065 0.0
C1318 C 0.43518 0.25473 0.40585 0.0
C1319 C 0.4574 0.24631 0.38638 0.0
C1320 C 0.4614 0.26099 0.3589 0.0
C1321 C 0.44411 0.28345 0.35123 0.0
C1322 C 0.51053 0.18657 0.38116 0.0
C1323 C 0.51931 0.18408 0.41076 0.0
C1324 C 0.48969 0.2059 0.37337 0.0
C1325 C 0.47725 0.22339 0.39497 0.0
C1326 C 0.48534 0.21991 0.42474 0.0
C1327 C 0.50624 0.20072 0.43248 0.0
H1328 H 0.98027 0.13872 0.66109 0.0
H1329 H 0.95052 0.16523 0.57526 0.0
H1330 H 0.01019 0.18576 0.66593 0.0
H1331 H 0.98087 0.21244 0.57983 0.0
H1332 H 0.06456 0.27952 0.58741 0.0
H1333 H 0.03193 0.23419 0.58092 0.0
H1334 H 0.00553 0.23672 0.67314 0.0
H1335 H 0.03718 0.28229 0.67936 0.0
C1336 C 0.98 0.15479 0.64335 0.0
C1337 C 0.96292 0.1485 0.61793 0.0
C1338 C 0.99706 0.1818 0.64613 0.0
C1339 C 0.9978 0.20302 0.62335 0.0
C1340 C 0.98092 0.19654 0.59772 0.0
C1341 C 0.96329 0.16968 0.59523 0.0
C1342 C 0.0512 0.27075 0.60609 0.0
C1343 C 0.05338 0.28466 0.63386 0.0
C1344 C 0.03255 0.24472 0.60239 0.0
C1345 C 0.01614 0.23172 0.62652 0.0
C1346 C 0.01797 0.24599 0.65409 0.0
C1347 C 0.03587 0.27239 0.65758 0.0
H1348 H 0.38603 0.71845 0.10569 0.0
H1349 H 0.41902 0.70524 0.19395 0.0
H1350 H 0.42222 0.76169 0.09949 0.0
H1351 H 0.45441 0.74844 0.1879 0.0
H1352 H 0.48529 0.84712 0.18011 0.0
H1353 H 0.45134 0.8022 0.1842 0.0
H1354 H 0.47741 0.77693 0.09632 0.0
H1355 H 0.51223 0.8215 0.09273 0.0
C1356 C 0.40118 0.7245 0.1236 0.0
C1357 C 0.39954 0.70833 0.15032 0.0
C1358 C 0.42184 0.74931 0.12007 0.0
C1359 C 0.44094 0.75868 0.14334 0.0
C1360 C 0.43976 0.74206 0.1697 0.0
C1361 C 0.41959 0.71706 0.17303 0.0
C1362 C 0.48404 0.83173 0.16186 0.0
C1363 C 0.50156 0.83756 0.13626 0.0
C1364 C 0.4646 0.80604 0.16417 0.0
C1365 C 0.46172 0.78595 0.1406 0.0
C1366 C 0.47905 0.79199 0.11481 0.0
C1367 C 0.49919 0.81731 0.11287 0.0
H1368 H 0.70772 0.46053 0.74939 0.0
H1369 H 0.61944 0.41878 0.73281 0.0
H1370 H 0.70143 0.49629 0.71012 0.0
H1371 H 0.61342 0.454 0.69338 0.0
H1372 H 0.59794 0.54357 0.65522 0.0
H1373 H 0.60603 0.50408 0.68943 0.0
H1374 H 0.69649 0.50456 0.65722 0.0
H1375 H 0.68781 0.54401 0.622 0.0
C1376 C 0.68698 0.45896 0.73739 0.0
C1377 C 0.66396 0.43698 0.74451 0.0
C1378 C 0.68358 0.47917 0.71453 0.0
C1379 C 0.65692 0.47807 0.69855 0.0
C1380 C 0.63409 0.45582 0.70549 0.0
C1381 C 0.63755 0.43557 0.72815 0.0
C1382 C 0.61964 0.53538 0.65559 0.0
C1383 C 0.64248 0.54717 0.63651 0.0
C1384 C 0.62418 0.51241 0.67489 0.0
C1385 C 0.652 0.50122 0.6763 0.0
C1386 C 0.67494 0.51301 0.65706 0.0
C1387 C 0.67006 0.53555 0.63697 0.0
H1388 H 0.83294 0.34274 0.00206 0.0
H1389 H 0.86748 0.43351 0.98922 0.0
H1390 H 0.7953 0.34844 0.96457 0.0
H1391 H 0.8291 0.4398 0.95304 0.0
H1392 H 0.78323 0.42995 0.86327 0.0
H1393 H 0.81724 0.42738 0.9043 0.0
H1394 H 0.75186 0.36858 0.95106 0.0
H1395 H 0.7176 0.37131 0.90993 0.0
C1396 C 0.83229 0.36397 0.99139 0.0
C1397 C 0.85341 0.38753 -0.00176 0.0
C1398 C 0.81054 0.36738 0.97006 0.0
C1399 C 0.80918 0.39458 0.95544 0.0
C1400 C 0.82982 0.41833 0.96317 0.0
C1401 C 0.85179 0.41478 0.98407 0.0
C1402 C 0.7758 0.41703 0.88265 0.0
C1403 C 0.74768 0.40091 0.88336 0.0
C1404 C 0.79532 0.41561 0.90633 0.0
C1405 C 0.78729 0.39791 0.93134 0.0
C1406 C 0.75873 0.38254 0.93237 0.0
C1407 C 0.73901 0.38424 0.90881 0.0
H1408 H 0.83029 0.52849 0.21461 0.0
H1409 H 0.91943 0.57093 0.22395 0.0
H1410 H 0.8487 0.49311 0.18092 0.0
H1411 H 0.93801 0.53556 0.18996 0.0
H1412 H 0.96421 0.44677 0.15643 0.0
H1413 H 0.94736 0.48575 0.18712 0.0
H1414 H 0.86808 0.48561 0.13416 0.0
H1415 H 0.88428 0.44633 0.10435 0.0
C1416 C 0.85385 0.53028 0.20937 0.0
C1417 C 0.87345 0.55225 0.22213 0.0
C1418 C 0.86443 0.51019 0.18976 0.0
C1419 C 0.89494 0.51129 0.18284 0.0
C1420 C 0.91448 0.53365 0.19527 0.0
C1421 C 0.90381 0.55404 0.21458 0.0
C1422 C 0.94318 0.45507 0.15142 0.0
C1423 C 0.9255 0.44317 0.12815 0.0
C1424 C 0.93363 0.47764 0.16881 0.0
C1425 C 0.9062 0.48871 0.16329 0.0
C1426 C 0.88893 0.47718 0.13959 0.0
C1427 C 0.89835 0.45462 0.12237 0.0
H1428 H 0.79682 0.63263 0.36701 0.0
H1429 H 0.75835 0.54398 0.35099 0.0
H1430 H 0.76575 0.63493 0.41107 0.0
H1431 H 0.72805 0.5456 0.39592 0.0
H1432 H 0.69701 0.54631 0.49068 0.0
H1433 H 0.72989 0.54589 0.44783 0.0
H1434 H 0.71789 0.63713 0.43025 0.0
H1435 H 0.68603 0.63779 0.47427 0.0
C1436 C 0.78226 0.61333 0.37347 0.0
C1437 C 0.7803 0.58794 0.35596 0.0
C1438 C 0.76426 0.61467 0.39868 0.0
C1439 C 0.74487 0.59021 0.40773 0.0
C1440 C 0.7433 0.56463 0.39023 0.0
C1441 C 0.76061 0.56364 0.36446 0.0
C1442 C 0.70149 0.56633 0.47771 0.0
C1443 C 0.6887 0.59201 0.48562 0.0
C1444 C 0.72017 0.56602 0.45294 0.0
C1445 C 0.72619 0.59128 0.43508 0.0
C1446 C 0.71394 0.61726 0.44348 0.0
C1447 C 0.69556 0.61766 0.46864 0.0
H1448 H 0.65055 0.46222 0.8462 0.0
H1449 H 0.57068 0.41884 0.80792 0.0
H1450 H 0.65286 0.49922 0.80731 0.0
H1451 H 0.57352 0.4556 0.76827 0.0
H1452 H 0.5628 0.55168 0.73678 0.0
H1453 H 0.56385 0.50657 0.76623 0.0
H1454 H 0.65962 0.5138 0.75776 0.0
H1455 H 0.65823 0.55802 0.72761 0.0
C1456 C 0.63389 0.46008 0.82902 0.0
C1457 C 0.61006 0.43788 0.83064 0.0
C1458 C 0.63526 0.48136 0.80655 0.0
C1459 C 0.61293 0.48088 0.78496 0.0
C1460 C 0.59056 0.45716 0.78506 0.0
C1461 C 0.58916 0.43586 0.80762 0.0
C1462 C 0.58388 0.54292 0.7405 0.0
C1463 C 0.61033 0.55776 0.7294 0.0
C1464 C 0.58457 0.51709 0.75729 0.0
C1465 C 0.61185 0.50618 0.76407 0.0
C1466 C 0.63822 0.52124 0.75276 0.0
C1467 C 0.63745 0.54652 0.73536 0.0
H1468 H 0.7653 0.3287 0.08471 0.0
H1469 H 0.82008 0.40673 0.05612 0.0
H1470 H 0.72821 0.33825 0.04863 0.0
H1471 H 0.78372 0.41547 0.01824 0.0
H1472 H 0.69899 0.44091 0.97565 0.0
H1473 H 0.73806 0.43121 0.00969 0.0
H1474 H 0.71395 0.33762 0.00044 0.0
H1475 H 0.67382 0.34764 0.96749 0.0
C1476 C 0.76966 0.3477 0.07027 0.0
C1477 C 0.79563 0.36699 0.0733 0.0
C1478 C 0.7484 0.35309 0.04924 0.0
C1479 C 0.75273 0.37761 0.03012 0.0
C1480 C 0.7791 0.39668 0.03286 0.0
C1481 C 0.80017 0.39157 0.05441 0.0
C1482 C 0.7021 0.41824 0.98082 0.0
C1483 C 0.68313 0.39504 0.96901 0.0
C1484 C 0.72476 0.41261 0.00027 0.0
C1485 C 0.72935 0.38358 0.00824 0.0
C1486 C 0.71074 0.36034 0.99571 0.0
C1487 C 0.68788 0.36601 0.97643 0.0
H1488 H 0.82464 0.51129 0.34412 0.0
H1489 H 0.90179 0.56753 0.31478 0.0
H1490 H 0.8324 0.47715 0.30381 0.0
H1491 H 0.91031 0.53288 0.27518 0.0
H1492 H 0.93392 0.44511 0.23288 0.0
H1493 H 0.92522 0.48267 0.26967 0.0
H1494 H 0.83154 0.47237 0.24963 0.0
H1495 H 0.84048 0.4356 0.21232 0.0
C1496 C 0.84305 0.51649 0.32879 0.0
C1497 C 0.86248 0.54213 0.33244 0.0
C1498 C 0.84751 0.49697 0.30569 0.0
C1499 C 0.87198 0.50226 0.28617 0.0
C1500 C 0.89129 0.52807 0.2898 0.0
C1501 C 0.88627 0.54807 0.31232 0.0
C1502 C 0.91159 0.45131 0.23603 0.0
C1503 C 0.88798 0.43782 0.21937 0.0
C1504 C 0.90657 0.47281 0.25707 0.0
C1505 C 0.87765 0.48054 0.26266 0.0
C1506 C 0.85404 0.46677 0.24612 0.0
C1507 C 0.85921 0.44598 0.22445 0.0
H1508 H 0.79957 0.57974 0.47717 0.0
H1509 H 0.79477 0.67065 0.45304 0.0
H1510 H 0.76683 0.58521 0.51931 0.0
H1511 H 0.75972 0.67569 0.49342 0.0
H1512 H 0.72932 0.68959 0.58679 0.0
H1513 H 0.75858 0.68192 0.54289 0.0
H1514 H 0.72318 0.59031 0.54215 0.0
H1515 H 0.69487 0.59808 0.58702 0.0
C1516 C 0.79075 0.60071 0.48042 0.0
C1517 C 0.79998 0.62487 0.46202 0.0
C1518 C 0.77178 0.60391 0.50465 0.0
C1519 C 0.76089 0.63117 0.51059 0.0
C1520 C 0.76852 0.65468 0.49065 0.0
C1521 C 0.7883 0.65174 0.4671 0.0
C1522 C 0.72763 0.66783 0.57712 0.0
C1523 C 0.70935 0.64453 0.59015 0.0
C1524 C 0.74422 0.66343 0.55155 0.0
C1525 C 0.74289 0.6356 0.53801 0.0
C1526 C 0.72491 0.61215 0.55151 0.0
C1527 C 0.70828 0.6166 0.57718 0.0
H1528 H 0.54298 0.66613 0.65898 0.0
H1529 H 0.56896 0.70319 0.57327 0.0
H1530 H 0.50723 0.70183 0.66484 0.0
H1531 H 0.53122 0.73748 0.57774 0.0
H1532 H 0.47209 0.80895 0.60278 0.0
H1533 H 0.51224 0.77763 0.59734 0.0
H1534 H 0.46121 0.71009 0.64943 0.0
H1535 H 0.42316 0.74324 0.6578 0.0
C1536 C 0.54098 0.68199 0.64133 0.0
C1537 C 0.55882 0.68193 0.61571 0.0
C1538 C 0.52004 0.70222 0.64442 0.0
C1539 C 0.5154 0.72214 0.62138 0.0
C1540 C 0.53407 0.72272 0.59612 0.0
C1541 C 0.55577 0.70301 0.59346 0.0
C1542 C 0.47 0.78778 0.61375 0.0
C1543 C 0.44534 0.77902 0.63192 0.0
C1544 C 0.49272 0.76939 0.61004 0.0
C1545 C 0.49064 0.7414 0.62363 0.0
C1546 C 0.46452 0.73191 0.63974 0.0
C1547 C 0.44231 0.75063 0.64409 0.0
H1548 H 0.31183 0.55244 0.23314 0.0
H1549 H 0.40008 0.58909 0.2566 0.0
H1550 H 0.31619 0.51096 0.26676 0.0
H1551 H 0.40496 0.54715 0.28951 0.0
H1552 H 0.414 0.45392 0.32319 0.0
H1553 H 0.40897 0.49399 0.28801 0.0
H1554 H 0.31934 0.50041 0.31974 0.0
H1555 H 0.32464 0.4607 0.35513 0.0
C1556 C 0.33233 0.5513 0.24515 0.0
C1557 C 0.35573 0.5737 0.24216 0.0
C1558 C 0.33474 0.52775 0.26463 0.0
C1559 C 0.361 0.52565 0.28068 0.0
C1560 C 0.38461 0.5479 0.27717 0.0
C1561 C 0.38184 0.57188 0.25837 0.0
C1562 C 0.39311 0.46363 0.32225 0.0
C1563 C 0.36966 0.4542 0.34171 0.0
C1564 C 0.3903 0.48677 0.30235 0.0
C1565 C 0.36375 0.50045 0.30111 0.0
C1566 C 0.33998 0.49022 0.31996 0.0
C1567 C 0.34301 0.46751 0.34022 0.0
H1568 H 0.24965 0.59065 0.09671 0.0
H1569 H 0.25833 0.68116 0.06696 0.0
H1570 H 0.20817 0.57972 0.06273 0.0
H1571 H 0.21766 0.67034 0.03297 0.0
H1572 H 0.12864 0.65186 0.99167 0.0
H1573 H 0.16593 0.65973 0.03022 0.0
H1574 H 0.19561 0.5745 0.01187 0.0
H1575 H 0.15842 0.5668 0.97325 0.0
C1576 C 0.2429 0.60812 0.08273 0.0
C1577 C 0.25728 0.63677 0.08456 0.0
C1578 C 0.21908 0.6019 0.06328 0.0
C1579 C 0.20918 0.6242 0.04525 0.0
C1580 C 0.22401 0.65269 0.04693 0.0
C1581 C 0.2477 0.65886 0.06623 0.0
C1582 C 0.1432 0.63485 0.99584 0.0
C1583 C 0.14094 0.60897 0.97902 0.0
C1584 C 0.16467 0.63936 0.01792 0.0
C1585 C 0.18426 0.61797 0.02395 0.0
C1586 C 0.18101 0.59149 0.00798 0.0
C1587 C 0.1599 0.58721 0.98552 0.0
H1588 H 0.06668 0.54091 0.81552 0.0
H1589 H 0.15265 0.51798 0.84287 0.0
H1590 H 0.06578 0.5042 0.77626 0.0
H1591 H 0.15256 0.48225 0.80245 0.0
H1592 H 0.15029 0.43746 0.71079 0.0
H1593 H 0.15185 0.4787 0.74552 0.0
H1594 H 0.06328 0.44849 0.77631 0.0
H1595 H 0.06215 0.40685 0.74237 0.0
C1596 C 0.08582 0.52868 0.81243 0.0
C1597 C 0.10992 0.53247 0.83188 0.0
C1598 C 0.08521 0.5075 0.79014 0.0
C1599 C 0.10918 0.49048 0.78614 0.0
C1600 C 0.13392 0.49526 0.8048 0.0
C1601 C 0.13405 0.51573 0.82781 0.0
C1602 C 0.13103 0.43994 0.7247 0.0
C1603 C 0.10608 0.41904 0.72394 0.0
C1604 C 0.13203 0.46333 0.74474 0.0
C1605 C 0.10773 0.46673 0.76368 0.0
C1606 C 0.08226 0.44655 0.76186 0.0
C1607 C 0.0816 0.42273 0.74247 0.0
H1608 H 0.18423 0.30142 0.54346 0.0
H1609 H 0.21057 0.38939 0.57437 0.0
H1610 H 0.22642 0.30502 0.50909 0.0
H1611 H 0.2533 0.3927 0.54074 0.0
H1612 H 0.30919 0.40066 0.45733 0.0
H1613 H 0.26643 0.39644 0.49003 0.0
H1614 H 0.28038 0.30607 0.50922 0.0
H1615 H 0.32467 0.31076 0.47687 0.0
C1616 C 0.19896 0.32162 0.54275 0.0
C1617 C 0.19409 0.34518 0.56154 0.0
C1618 C 0.22335 0.32351 0.52335 0.0
C1619 C 0.24347 0.34897 0.52238 0.0
C1620 C 0.23813 0.37282 0.54071 0.0
C1621 C 0.21358 0.37101 0.55994 0.0
C1622 C 0.303 0.37964 0.4681 0.0
C1623 C 0.32009 0.35584 0.46416 0.0
C1624 C 0.27852 0.37735 0.48714 0.0
C1625 C 0.26971 0.35089 0.50209 0.0
C1626 C 0.28633 0.32669 0.49765 0.0
C1627 C 0.3116 0.32928 0.47915 0.0
H1628 H 0.38924 0.40122 0.27639 0.0
H1629 H 0.29831 0.41951 0.29107 0.0
H1630 H 0.39503 0.43886 0.23808 0.0
H1631 H 0.30436 0.4581 0.25313 0.0
H1632 H 0.31986 0.51059 0.16601 0.0
H1633 H 0.31124 0.47004 0.20159 0.0
H1634 H 0.40012 0.49044 0.23512 0.0
H1635 H 0.40854 0.53073 0.20005 0.0
C1636 C 0.3705 0.41346 0.27157 0.0
C1637 C 0.34343 0.40767 0.28708 0.0
C1638 C 0.37385 0.43514 0.24959 0.0
C1639 C 0.35034 0.45191 0.24275 0.0
C1640 C 0.32293 0.44556 0.25769 0.0
C1641 C 0.31949 0.42359 0.27958 0.0
C1642 C 0.33736 0.50661 0.18134 0.0
C1643 C 0.36484 0.52399 0.18029 0.0
C1644 C 0.33245 0.48332 0.20167 0.0
C1645 C 0.35505 0.47672 0.22112 0.0
C1646 C 0.38233 0.49445 0.22021 0.0
C1647 C 0.38704 0.51794 0.20033 0.0
H1648 H 0.28118 0.54338 0.04341 0.0
H1649 H 0.32327 0.63238 0.03756 0.0
H1650 H 0.24633 0.55432 0.00537 0.0
H1651 H 0.28856 0.64329 -0.00137 0.0
H1652 H 0.20426 0.65744 0.94532 0.0
H1653 H 0.23813 0.64961 0.98587 0.0
H1654 H 0.24749 0.56207 0.95341 0.0
H1655 H 0.21456 0.5705 0.91244 0.0
C1656 C 0.28297 0.56536 0.03399 0.0
C1657 C 0.30521 0.58692 0.04322 0.0
C1658 C 0.2631 0.57158 0.01195 0.0
C1659 C 0.26502 0.5995 -0.00159 0.0
C1660 C 0.28647 0.62154 0.00856 0.0
C1661 C 0.30638 0.6153 0.03082 0.0
C1662 C 0.2132 0.63637 0.94733 0.0
C1663 C 0.20643 0.61429 0.92627 0.0
C1664 C 0.23289 0.632 0.9703 0.0
C1665 C 0.24514 0.60501 0.97332 0.0
C1666 C 0.23793 0.58286 0.95226 0.0
C1667 C 0.21901 0.58759 0.92884 0.0
H1668 H 0.05698 0.47768 0.68673 0.0
H1669 H 0.14815 0.4946 0.65658 0.0
H1670 H 0.06572 0.51535 0.72428 0.0
H1671 H 0.15706 0.53203 0.69483 0.0
H1672 H 0.08406 0.60489 0.76939 0.0
H1673 H 0.07578 0.56878 0.72959 0.0
H1674 H 0.16012 0.53618 0.74862 0.0
H1675 H 0.16832 0.57191 0.78811 0.0
C1676 C 0.07907 0.48907 0.68842 0.0
C1677 C 0.10192 0.48297 0.66866 0.0
C1678 C 0.08397 0.51097 0.7098 0.0
C1679 C 0.11205 0.52682 0.71256 0.0
C1680 C 0.13519 0.52013 0.6934 0.0
C1681 C 0.13013 0.49858 0.67157 0.0
C1682 C 0.10075 0.58995 0.76505 0.0
C1683 C 0.12666 0.59108 0.78213 0.0
C1684 C 0.09603 0.56926 0.74231 0.0
C1685 C 0.11734 0.54961 0.73589 0.0
C1686 C 0.14344 0.55119 0.75266 0.0
C1687 C 0.14794 0.57149 0.77559 0.0
H1688 H 0.19178 0.44967 0.53225 0.0
H1689 H 0.12707 0.37512 0.51838 0.0
H1690 H 0.22331 0.43221 0.49374 0.0
H1691 H 0.15795 0.35819 0.47853 0.0
H1692 H 0.23365 0.32282 0.42469 0.0
H1693 H 0.20054 0.33768 0.4638 0.0
H1694 H 0.22805 0.42907 0.4431 0.0
H1695 H 0.26221 0.41373 0.40533 0.0
C1696 C 0.18425 0.42953 0.52084 0.0
C1697 C 0.15683 0.4139 0.52822 0.0
C1698 C 0.20217 0.41967 0.49836 0.0
C1699 C 0.19301 0.3941 0.48223 0.0
C1700 C 0.16594 0.3779 0.49037 0.0
C1701 C 0.14815 0.38761 0.51324 0.0
C1702 C 0.23246 0.34604 0.42873 0.0
C1703 C 0.25056 0.36722 0.41251 0.0
C1704 C 0.21332 0.35465 0.45094 0.0
C1705 C 0.21173 0.38468 0.45715 0.0
C1706 C 0.22918 0.40576 0.43977 0.0
C1707 C 0.24865 0.39709 0.41797 0.0
H1708 H 0.48116 0.29983 0.46086 0.0
H1709 H 0.48244 0.34502 0.37649 0.0
H1710 H 0.5205 0.27157 0.44383 0.0
H1711 H 0.5224 0.31727 0.35939 0.0
H1712 H 0.55757 0.23527 0.32227 0.0
H1713 H 0.52866 0.27237 0.34187 0.0
H1714 H 0.5658 0.2606 0.42879 0.0
H1715 H 0.59451 0.22267 0.40879 0.0
C1716 C 0.49006 0.30389 0.43867 0.0
C1717 C 0.47799 0.32402 0.41971 0.0
C1718 C 0.51293 0.28774 0.42884 0.0
C1719 C 0.52413 0.29095 0.39961 0.0
C1720 C 0.51358 0.31292 0.38154 0.0
C1721 C 0.49067 0.32907 0.39138 0.0
C1722 C 0.5595 0.24046 0.34562 0.0
C1723 C 0.57805 0.22562 0.36402 0.0
C1724 C 0.54302 0.26217 0.35698 0.0
C1725 C 0.54432 0.26973 0.38722 0.0
C1726 C 0.56345 0.25518 0.40555 0.0
C1727 C 0.58005 0.23336 0.3941 0.0
loop_
_geom_bond_atom_site_label_1
_geom_bond_atom_site_label_2
_geom_bond_distance
_geom_bond_site_symmetry_2
_ccdc_geom_bond_type
O0 Cd1 2.223 . S
O0 C8 1.315 . S
Cd1 O0 2.223 . S
Cd1 O4 2.297 . S
Cd1 O5 2.439 . S
Cd1 O11 2.240 . S
Cd2 O3 2.240 . S
Cd2 O10 2.223 . S
Cd2 O12 2.297 1_455 S
Cd2 O13 2.439 . S
O3 Cd2 2.240 . S
O3 C8 1.279 . S
O4 Cd1 2.297 . S
O4 C6 1.247 . S
O5 Cd1 2.439 . S
O5 C6 1.208 . S
C6 O4 1.247 . S
C6 O5 1.208 . S
C7 O12 1.247 1_455 S
C7 O13 1.208 . S
C8 O0 1.315 . S
C8 O3 1.279 . S
C9 O10 1.315 . S
C9 O11 1.279 . S
O10 Cd2 2.223 . S
O10 C9 1.315 . S
O11 Cd1 2.240 . S
O11 C9 1.279 . S
O12 Cd2 2.297 1_655 S
O12 C7 1.247 1_655 S
O13 Cd2 2.439 . S
O13 C7 1.208 . S
O14 Cd15 2.223 . S
O14 C22 1.315 . S
Cd15 O14 2.223 . S
Cd15 O18 2.297 . S
Cd15 O19 2.439 . S
Cd15 O25 2.240 . S
Cd16 O17 2.240 . S
Cd16 O24 2.223 . S
Cd16 O26 2.297 . S
Cd16 O27 2.439 . S
O17 Cd16 2.240 . S
O17 C22 1.279 . S
O18 Cd15 2.297 . S
O18 C20 1.247 . S
O19 Cd15 2.439 . S
O19 C20 1.208 . S
C20 O18 1.247 . S
C20 O19 1.208 . S
C21 O26 1.247 . S
C21 O27 1.208 . S
C22 O14 1.315 . S
C22 O17 1.279 . S
C23 O24 1.315 . S
C23 O25 1.279 . S
O24 Cd16 2.223 . S
O24 C23 1.315 . S
O25 Cd15 2.240 . S
O25 C23 1.279 . S
O26 Cd16 2.297 . S
O26 C21 1.247 . S
O27 Cd16 2.439 . S
O27 C21 1.208 . S
O28 Cd29 2.223 . S
O28 C36 1.315 . S
Cd29 O28 2.223 . S
Cd29 O32 2.297 . S
Cd29 O33 2.439 . S
Cd29 O39 2.240 . S
Cd30 O31 2.240 . S
Cd30 O38 2.223 . S
Cd30 O40 2.297 . S
Cd30 O41 2.439 . S
O31 Cd30 2.240 . S
O31 C36 1.279 . S
O32 Cd29 2.297 . S
O32 C34 1.247 . S
O33 Cd29 2.439 . S
O33 C34 1.208 . S
C34 O32 1.247 . S
C34 O33 1.208 . S
C35 O40 1.247 . S
C35 O41 1.208 . S
C36 O28 1.315 . S
C36 O31 1.279 . S
C37 O38 1.315 . S
C37 O39 1.279 . S
O38 Cd30 2.223 . S
O38 C37 1.315 . S
O39 Cd29 2.240 . S
O39 C37 1.279 . S
O40 Cd30 2.297 . S
O40 C35 1.247 . S
O41 Cd30 2.439 . S
O41 C35 1.208 . S
O42 Cd43 2.223 . S
O42 C50 1.315 . S
Cd43 O42 2.223 . S
Cd43 O46 2.297 . S
Cd43 O47 2.439 . S
Cd43 O53 2.240 . S
Cd44 O45 2.240 . S
Cd44 O52 2.223 . S
Cd44 O54 2.297 . S
Cd44 O55 2.439 . S
O45 Cd44 2.240 . S
O45 C50 1.279 . S
O46 Cd43 2.297 . S
O46 C48 1.247 . S
O47 Cd43 2.439 . S
O47 C48 1.208 . S
C48 O46 1.247 . S
C48 O47 1.208 . S
C49 O54 1.247 . S
C49 O55 1.208 . S
C50 O42 1.315 . S
C50 O45 1.279 . S
C51 O52 1.315 . S
C51 O53 1.279 . S
O52 Cd44 2.223 . S
O52 C51 1.315 . S
O53 Cd43 2.240 . S
O53 C51 1.279 . S
O54 Cd44 2.297 . S
O54 C49 1.247 . S
O55 Cd44 2.439 . S
O55 C49 1.208 . S
O56 Cd57 2.223 . S
O56 C64 1.315 . S
Cd57 O56 2.223 . S
Cd57 O60 2.297 . S
Cd57 O61 2.439 . S
Cd57 O67 2.240 . S
Cd58 O59 2.240 . S
Cd58 O66 2.223 . S
Cd58 O68 2.297 . S
Cd58 O69 2.439 . S
O59 Cd58 2.240 . S
O59 C64 1.279 . S
O60 Cd57 2.297 . S
O60 C62 1.247 . S
O61 Cd57 2.439 . S
O61 C62 1.208 . S
C62 O60 1.247 . S
C62 O61 1.208 . S
C63 O68 1.247 . S
C63 O69 1.208 . S
C64 O56 1.315 . S
C64 O59 1.279 . S
C65 O66 1.315 . S
C65 O67 1.279 . S
O66 Cd58 2.223 . S
O66 C65 1.315 . S
O67 Cd57 2.240 . S
O67 C65 1.279 . S
O68 Cd58 2.297 . S
O68 C63 1.247 . S
O69 Cd58 2.439 . S
O69 C63 1.208 . S
O70 Cd71 2.223 . S
O70 C78 1.315 . S
Cd71 O70 2.223 . S
Cd71 O74 2.297 . S
Cd71 O75 2.439 . S
Cd71 O81 2.240 . S
Cd72 O73 2.240 . S
Cd72 O80 2.223 . S
Cd72 O82 2.297 . S
Cd72 O83 2.439 . S
O73 Cd72 2.240 . S
O73 C78 1.279 . S
O74 Cd71 2.297 . S
O74 C76 1.247 . S
O75 Cd71 2.439 . S
O75 C76 1.208 . S
C76 O74 1.247 . S
C76 O75 1.208 . S
C77 O82 1.247 . S
C77 O83 1.208 . S
C78 O70 1.315 . S
C78 O73 1.279 . S
C79 O80 1.315 . S
C79 O81 1.279 . S
O80 Cd72 2.223 . S
O80 C79 1.315 . S
O81 Cd71 2.240 . S
O81 C79 1.279 . S
O82 Cd72 2.297 . S
O82 C77 1.247 . S
O83 Cd72 2.439 . S
O83 C77 1.208 . S
O84 Cd85 2.223 . S
O84 C92 1.315 . S
Cd85 O84 2.223 . S
Cd85 O88 2.297 . S
Cd85 O89 2.439 . S
Cd85 O95 2.240 . S
Cd86 O87 2.240 . S
Cd86 O94 2.223 . S
Cd86 O96 2.297 . S
Cd86 O97 2.439 . S
O87 Cd86 2.240 . S
O87 C92 1.279 . S
O88 Cd85 2.297 . S
O88 C90 1.247 . S
O89 Cd85 2.439 . S
O89 C90 1.208 . S
C90 O88 1.247 . S
C90 O89 1.208 . S
C91 O96 1.247 . S
C91 O97 1.208 . S
C92 O84 1.315 . S
C92 O87 1.279 . S
C93 O94 1.315 . S
C93 O95 1.279 . S
O94 Cd86 2.223 . S
O94 C93 1.315 . S
O95 Cd85 2.240 . S
O95 C93 1.279 . S
O96 Cd86 2.297 . S
O96 C91 1.247 . S
O97 Cd86 2.439 . S
O97 C91 1.208 . S
O98 Cd99 2.223 . S
O98 C106 1.315 . S
Cd99 O98 2.223 . S
Cd99 O102 2.297 . S
Cd99 O103 2.439 . S
Cd99 O109 2.240 . S
Cd100 O101 2.240 . S
Cd100 O108 2.223 . S
Cd100 O110 2.297 . S
Cd100 O111 2.439 . S
O101 Cd100 2.240 . S
O101 C106 1.279 . S
O102 Cd99 2.297 . S
O102 C104 1.247 . S
O103 Cd99 2.439 . S
O103 C104 1.208 . S
C104 O102 1.247 . S
C104 O103 1.208 . S
C105 O110 1.247 . S
C105 O111 1.208 . S
C106 O98 1.315 . S
C106 O101 1.279 . S
C107 O108 1.315 . S
C107 O109 1.279 . S
O108 Cd100 2.223 . S
O108 C107 1.315 . S
O109 Cd99 2.240 . S
O109 C107 1.279 . S
O110 Cd100 2.297 . S
O110 C105 1.247 . S
O111 Cd100 2.439 . S
O111 C105 1.208 . S
O112 Cd113 2.223 . S
O112 C120 1.315 . S
Cd113 O112 2.223 . S
Cd113 O116 2.297 . S
Cd113 O117 2.439 . S
Cd113 O123 2.240 . S
Cd114 O115 2.240 . S
Cd114 O122 2.223 . S
Cd114 O124 2.297 . S
Cd114 O125 2.439 . S
O115 Cd114 2.240 . S
O115 C120 1.279 . S
O116 Cd113 2.297 . S
O116 C118 1.247 . S
O117 Cd113 2.439 . S
O117 C118 1.208 . S
C118 O116 1.247 . S
C118 O117 1.208 . S
C119 O124 1.247 . S
C119 O125 1.208 . S
C120 O112 1.315 . S
C120 O115 1.279 . S
C121 O122 1.315 . S
C121 O123 1.279 . S
O122 Cd114 2.223 . S
O122 C121 1.315 . S
O123 Cd113 2.240 . S
O123 C121 1.279 . S
O124 Cd114 2.297 . S
O124 C119 1.247 . S
O125 Cd114 2.439 . S
O125 C119 1.208 . S
O126 Cd127 2.223 . S
O126 C134 1.315 . S
Cd127 O126 2.223 . S
Cd127 O130 2.297 . S
Cd127 O131 2.439 . S
Cd127 O137 2.240 . S
Cd128 O129 2.240 . S
Cd128 O136 2.223 . S
Cd128 O138 2.297 . S
Cd128 O139 2.439 . S
O129 Cd128 2.240 . S
O129 C134 1.279 . S
O130 Cd127 2.297 . S
O130 C132 1.247 . S
O131 Cd127 2.439 . S
O131 C132 1.208 . S
C132 O130 1.247 . S
C132 O131 1.208 . S
C133 O138 1.247 . S
C133 O139 1.208 . S
C134 O126 1.315 . S
C134 O129 1.279 . S
C135 O136 1.315 . S
C135 O137 1.279 . S
O136 Cd128 2.223 . S
O136 C135 1.315 . S
O137 Cd127 2.240 . S
O137 C135 1.279 . S
O138 Cd128 2.297 . S
O138 C133 1.247 . S
O139 Cd128 2.439 . S
O139 C133 1.208 . S
O140 Cd141 2.223 . S
O140 C148 1.315 . S
Cd141 O140 2.223 . S
Cd141 O144 2.297 . S
Cd141 O145 2.439 . S
Cd141 O151 2.240 . S
Cd142 O143 2.240 . S
Cd142 O150 2.223 . S
Cd142 O152 2.297 . S
Cd142 O153 2.439 . S
O143 Cd142 2.240 . S
O143 C148 1.279 . S
O144 Cd141 2.297 . S
O144 C146 1.247 . S
O145 Cd141 2.439 . S
O145 C146 1.208 . S
C146 O144 1.247 . S
C146 O145 1.208 . S
C147 O152 1.247 . S
C147 O153 1.208 . S
C148 O140 1.315 . S
C148 O143 1.279 . S
C149 O150 1.315 . S
C149 O151 1.279 . S
O150 Cd142 2.223 . S
O150 C149 1.315 . S
O151 Cd141 2.240 . S
O151 C149 1.279 . S
O152 Cd142 2.297 . S
O152 C147 1.247 . S
O153 Cd142 2.439 . S
O153 C147 1.208 . S
O154 Cd155 2.223 . S
O154 C162 1.315 . S
Cd155 O154 2.223 . S
Cd155 O158 2.297 . S
Cd155 O159 2.439 . S
Cd155 O165 2.240 . S
Cd156 O157 2.240 . S
Cd156 O164 2.223 . S
Cd156 O166 2.297 . S
Cd156 O167 2.439 . S
O157 Cd156 2.240 . S
O157 C162 1.279 . S
O158 Cd155 2.297 . S
O158 C160 1.247 . S
O159 Cd155 2.439 . S
O159 C160 1.208 . S
C160 O158 1.247 . S
C160 O159 1.208 . S
C161 O166 1.247 . S
C161 O167 1.208 . S
C162 O154 1.315 . S
C162 O157 1.279 . S
C163 O164 1.315 . S
C163 O165 1.279 . S
O164 Cd156 2.223 . S
O164 C163 1.315 . S
O165 Cd155 2.240 . S
O165 C163 1.279 . S
O166 Cd156 2.297 . S
O166 C161 1.247 . S
O167 Cd156 2.439 . S
O167 C161 1.208 . S
O168 Cd169 2.223 . S
O168 C176 1.315 . S
Cd169 O168 2.223 . S
Cd169 O172 2.297 . S
Cd169 O173 2.439 . S
Cd169 O179 2.240 . S
Cd170 O171 2.240 . S
Cd170 O178 2.223 . S
Cd170 O180 2.297 . S
Cd170 O181 2.439 . S
O171 Cd170 2.240 . S
O171 C176 1.279 . S
O172 Cd169 2.297 . S
O172 C174 1.247 . S
O173 Cd169 2.439 . S
O173 C174 1.208 . S
C174 O172 1.247 . S
C174 O173 1.208 . S
C175 O180 1.247 . S
C175 O181 1.208 . S
C176 O168 1.315 . S
C176 O171 1.279 . S
C177 O178 1.315 . S
C177 O179 1.279 . S
O178 Cd170 2.223 . S
O178 C177 1.315 . S
O179 Cd169 2.240 . S
O179 C177 1.279 . S
O180 Cd170 2.297 . S
O180 C175 1.247 . S
O181 Cd170 2.439 . S
O181 C175 1.208 . S
O182 Cd183 2.223 . S
O182 C190 1.315 . S
Cd183 O182 2.223 . S
Cd183 O186 2.297 . S
Cd183 O187 2.439 . S
Cd183 O193 2.240 . S
Cd184 O185 2.240 . S
Cd184 O192 2.223 . S
Cd184 O194 2.297 . S
Cd184 O195 2.439 . S
O185 Cd184 2.240 . S
O185 C190 1.279 . S
O186 Cd183 2.297 . S
O186 C188 1.247 . S
O187 Cd183 2.439 . S
O187 C188 1.208 . S
C188 O186 1.247 . S
C188 O187 1.208 . S
C189 O194 1.247 . S
C189 O195 1.208 . S
C190 O182 1.315 . S
C190 O185 1.279 . S
C191 O192 1.315 . S
C191 O193 1.279 . S
O192 Cd184 2.223 . S
O192 C191 1.315 . S
O193 Cd183 2.240 . S
O193 C191 1.279 . S
O194 Cd184 2.297 . S
O194 C189 1.247 . S
O195 Cd184 2.439 . S
O195 C189 1.208 . S
O196 Cd197 2.223 . S
O196 C204 1.315 . S
Cd197 O196 2.223 . S
Cd197 O200 2.297 . S
Cd197 O201 2.439 . S
Cd197 O207 2.240 . S
Cd198 O199 2.240 . S
Cd198 O206 2.223 . S
Cd198 O208 2.297 . S
Cd198 O209 2.439 . S
O199 Cd198 2.240 . S
O199 C204 1.279 . S
O200 Cd197 2.297 . S
O200 C202 1.247 . S
O201 Cd197 2.439 . S
O201 C202 1.208 . S
C202 O200 1.247 . S
C202 O201 1.208 . S
C203 O208 1.247 . S
C203 O209 1.208 . S
C204 O196 1.315 . S
C204 O199 1.279 . S
C205 O206 1.315 . S
C205 O207 1.279 . S
O206 Cd198 2.223 . S
O206 C205 1.315 . S
O207 Cd197 2.240 . S
O207 C205 1.279 . S
O208 Cd198 2.297 . S
O208 C203 1.247 . S
O209 Cd198 2.439 . S
O209 C203 1.208 . S
O210 Cd211 2.223 . S
O210 C218 1.315 . S
Cd211 O210 2.223 . S
Cd211 O214 2.297 . S
Cd211 O215 2.439 . S
Cd211 O221 2.240 . S
Cd212 O213 2.240 . S
Cd212 O220 2.223 . S
Cd212 O222 2.297 . S
Cd212 O223 2.439 . S
O213 Cd212 2.240 . S
O213 C218 1.279 . S
O214 Cd211 2.297 . S
O214 C216 1.247 . S
O215 Cd211 2.439 . S
O215 C216 1.208 . S
C216 O214 1.247 . S
C216 O215 1.208 . S
C217 O222 1.247 . S
C217 O223 1.208 . S
C218 O210 1.315 . S
C218 O213 1.279 . S
C219 O220 1.315 . S
C219 O221 1.279 . S
O220 Cd212 2.223 . S
O220 C219 1.315 . S
O221 Cd211 2.240 . S
O221 C219 1.279 . S
O222 Cd212 2.297 . S
O222 C217 1.247 . S
O223 Cd212 2.439 . S
O223 C217 1.208 . S
O224 Cd225 2.223 . S
O224 C232 1.315 . S
Cd225 O224 2.223 . S
Cd225 O228 2.297 . S
Cd225 O229 2.439 . S
Cd225 O235 2.240 . S
Cd226 O227 2.240 . S
Cd226 O234 2.223 . S
Cd226 O236 2.297 . S
Cd226 O237 2.439 . S
O227 Cd226 2.240 . S
O227 C232 1.279 . S
O228 Cd225 2.297 . S
O228 C230 1.247 . S
O229 Cd225 2.439 . S
O229 C230 1.208 . S
C230 O228 1.247 . S
C230 O229 1.208 . S
C231 O236 1.247 . S
C231 O237 1.208 . S
C232 O224 1.315 . S
C232 O227 1.279 . S
C233 O234 1.315 . S
C233 O235 1.279 . S
O234 Cd226 2.223 . S
O234 C233 1.315 . S
O235 Cd225 2.240 . S
O235 C233 1.279 . S
O236 Cd226 2.297 . S
O236 C231 1.247 . S
O237 Cd226 2.439 . S
O237 C231 1.208 . S
O238 Cd239 2.223 . S
O238 C246 1.315 . S
Cd239 O238 2.223 . S
Cd239 O242 2.297 . S
Cd239 O243 2.439 . S
Cd239 O249 2.240 . S
Cd240 O241 2.240 . S
Cd240 O248 2.223 . S
Cd240 O250 2.297 . S
Cd240 O251 2.439 . S
O241 Cd240 2.240 . S
O241 C246 1.279 . S
O242 Cd239 2.297 . S
O242 C244 1.247 . S
O243 Cd239 2.439 . S
O243 C244 1.208 . S
C244 O242 1.247 . S
C244 O243 1.208 . S
C245 O250 1.247 . S
C245 O251 1.208 . S
C246 O238 1.315 . S
C246 O241 1.279 . S
C247 O248 1.315 . S
C247 O249 1.279 . S
O248 Cd240 2.223 . S
O248 C247 1.315 . S
O249 Cd239 2.240 . S
O249 C247 1.279 . S
O250 Cd240 2.297 . S
O250 C245 1.247 . S
O251 Cd240 2.439 . S
O251 C245 1.208 . S
O252 Cd253 2.223 . S
O252 C260 1.315 . S
Cd253 O252 2.223 . S
Cd253 O256 2.297 . S
Cd253 O257 2.439 . S
Cd253 O263 2.240 . S
Cd254 O255 2.240 . S
Cd254 O262 2.223 . S
Cd254 O264 2.297 . S
Cd254 O265 2.439 . S
O255 Cd254 2.240 . S
O255 C260 1.279 . S
O256 Cd253 2.297 . S
O256 C258 1.247 . S
O257 Cd253 2.439 . S
O257 C258 1.208 . S
C258 O256 1.247 . S
C258 O257 1.208 . S
C259 O264 1.247 . S
C259 O265 1.208 . S
C260 O252 1.315 . S
C260 O255 1.279 . S
C261 O262 1.315 . S
C261 O263 1.279 . S
O262 Cd254 2.223 . S
O262 C261 1.315 . S
O263 Cd253 2.240 . S
O263 C261 1.279 . S
O264 Cd254 2.297 . S
O264 C259 1.247 . S
O265 Cd254 2.439 . S
O265 C259 1.208 . S
O266 Cd267 2.223 . S
O266 C274 1.315 . S
Cd267 O266 2.223 . S
Cd267 O270 2.297 . S
Cd267 O271 2.439 . S
Cd267 O277 2.240 . S
Cd268 O269 2.240 . S
Cd268 O276 2.223 . S
Cd268 O278 2.297 . S
Cd268 O279 2.439 . S
O269 Cd268 2.240 . S
O269 C274 1.279 . S
O270 Cd267 2.297 . S
O270 C272 1.247 . S
O271 Cd267 2.439 . S
O271 C272 1.208 . S
C272 O270 1.247 . S
C272 O271 1.208 . S
C273 O278 1.247 . S
C273 O279 1.208 . S
C274 O266 1.315 . S
C274 O269 1.279 . S
C275 O276 1.315 . S
C275 O277 1.279 . S
O276 Cd268 2.223 . S
O276 C275 1.315 . S
O277 Cd267 2.240 . S
O277 C275 1.279 . S
O278 Cd268 2.297 . S
O278 C273 1.247 . S
O279 Cd268 2.439 . S
O279 C273 1.208 . S
O280 Cd281 2.223 . S
O280 C288 1.315 . S
Cd281 O280 2.223 . S
Cd281 O284 2.297 . S
Cd281 O285 2.439 . S
Cd281 O291 2.240 . S
Cd282 O283 2.240 . S
Cd282 O290 2.223 . S
Cd282 O292 2.297 . S
Cd282 O293 2.439 . S
O283 Cd282 2.240 . S
O283 C288 1.279 . S
O284 Cd281 2.297 . S
O284 C286 1.247 . S
O285 Cd281 2.439 . S
O285 C286 1.208 . S
C286 O284 1.247 . S
C286 O285 1.208 . S
C287 O292 1.247 . S
C287 O293 1.208 . S
C288 O280 1.315 . S
C288 O283 1.279 . S
C289 O290 1.315 . S
C289 O291 1.279 . S
O290 Cd282 2.223 . S
O290 C289 1.315 . S
O291 Cd281 2.240 . S
O291 C289 1.279 . S
O292 Cd282 2.297 . S
O292 C287 1.247 . S
O293 Cd282 2.439 . S
O293 C287 1.208 . S
O294 Cd295 2.223 . S
O294 C302 1.315 . S
Cd295 O294 2.223 . S
Cd295 O298 2.297 . S
Cd295 O299 2.439 . S
Cd295 O305 2.240 . S
Cd296 O297 2.240 . S
Cd296 O304 2.223 . S
Cd296 O306 2.297 . S
Cd296 O307 2.439 . S
O297 Cd296 2.240 . S
O297 C302 1.279 . S
O298 Cd295 2.297 . S
O298 C300 1.247 . S
O299 Cd295 2.439 . S
O299 C300 1.208 . S
C300 O298 1.247 . S
C300 O299 1.208 . S
C301 O306 1.247 . S
C301 O307 1.208 . S
C302 O294 1.315 . S
C302 O297 1.279 . S
C303 O304 1.315 . S
C303 O305 1.279 . S
O304 Cd296 2.223 . S
O304 C303 1.315 . S
O305 Cd295 2.240 . S
O305 C303 1.279 . S
O306 Cd296 2.297 . S
O306 C301 1.247 . S
O307 Cd296 2.439 . S
O307 C301 1.208 . S
O308 Cd309 2.223 . S
O308 C316 1.315 . S
Cd309 O308 2.223 . S
Cd309 O312 2.297 . S
Cd309 O313 2.439 . S
Cd309 O319 2.240 . S
Cd310 O311 2.240 . S
Cd310 O318 2.223 . S
Cd310 O320 2.297 . S
Cd310 O321 2.439 . S
O311 Cd310 2.240 . S
O311 C316 1.279 . S
O312 Cd309 2.297 . S
O312 C314 1.247 . S
O313 Cd309 2.439 . S
O313 C314 1.208 . S
C314 O312 1.247 . S
C314 O313 1.208 . S
C315 O320 1.247 . S
C315 O321 1.208 . S
C316 O308 1.315 . S
C316 O311 1.279 . S
C317 O318 1.315 . S
C317 O319 1.279 . S
O318 Cd310 2.223 . S
O318 C317 1.315 . S
O319 Cd309 2.240 . S
O319 C317 1.279 . S
O320 Cd310 2.297 . S
O320 C315 1.247 . S
O321 Cd310 2.439 . S
O321 C315 1.208 . S
O322 Cd323 2.223 . S
O322 C330 1.315 . S
Cd323 O322 2.223 . S
Cd323 O326 2.297 . S
Cd323 O327 2.439 . S
Cd323 O333 2.240 . S
Cd324 O325 2.240 . S
Cd324 O332 2.223 . S
Cd324 O334 2.297 . S
Cd324 O335 2.439 . S
O325 Cd324 2.240 . S
O325 C330 1.279 . S
O326 Cd323 2.297 . S
O326 C328 1.247 . S
O327 Cd323 2.439 . S
O327 C328 1.208 . S
C328 O326 1.247 . S
C328 O327 1.208 . S
C329 O334 1.247 . S
C329 O335 1.208 . S
C330 O322 1.315 . S
C330 O325 1.279 . S
C331 O332 1.315 . S
C331 O333 1.279 . S
O332 Cd324 2.223 . S
O332 C331 1.315 . S
O333 Cd323 2.240 . S
O333 C331 1.279 . S
O334 Cd324 2.297 . S
O334 C329 1.247 . S
O335 Cd324 2.439 . S
O335 C329 1.208 . S
O336 Cd337 2.223 . S
O336 C344 1.315 . S
Cd337 O336 2.223 . S
Cd337 O340 2.297 . S
Cd337 O341 2.439 . S
Cd337 O347 2.240 . S
Cd338 O339 2.240 . S
Cd338 O346 2.223 . S
Cd338 O348 2.297 . S
Cd338 O349 2.439 . S
O339 Cd338 2.240 . S
O339 C344 1.279 . S
O340 Cd337 2.297 . S
O340 C342 1.247 . S
O341 Cd337 2.439 . S
O341 C342 1.208 . S
C342 O340 1.247 . S
C342 O341 1.208 . S
C343 O348 1.247 . S
C343 O349 1.208 . S
C344 O336 1.315 . S
C344 O339 1.279 . S
C345 O346 1.315 . S
C345 O347 1.279 . S
O346 Cd338 2.223 . S
O346 C345 1.315 . S
O347 Cd337 2.240 . S
O347 C345 1.279 . S
O348 Cd338 2.297 . S
O348 C343 1.247 . S
O349 Cd338 2.439 . S
O349 C343 1.208 . S
O350 Cd351 2.223 . S
O350 C358 1.315 . S
Cd351 O350 2.223 . S
Cd351 O354 2.297 . S
Cd351 O355 2.439 . S
Cd351 O361 2.240 . S
Cd352 O353 2.240 . S
Cd352 O360 2.223 . S
Cd352 O362 2.297 . S
Cd352 O363 2.439 . S
O353 Cd352 2.240 . S
O353 C358 1.279 . S
O354 Cd351 2.297 . S
O354 C356 1.247 . S
O355 Cd351 2.439 . S
O355 C356 1.208 . S
C356 O354 1.247 . S
C356 O355 1.208 . S
C357 O362 1.247 . S
C357 O363 1.208 . S
C358 O350 1.315 . S
C358 O353 1.279 . S
C359 O360 1.315 . S
C359 O361 1.279 . S
O360 Cd352 2.223 . S
O360 C359 1.315 . S
O361 Cd351 2.240 . S
O361 C359 1.279 . S
O362 Cd352 2.297 . S
O362 C357 1.247 . S
O363 Cd352 2.439 . S
O363 C357 1.208 . S
O364 Cd365 2.223 . S
O364 C372 1.315 . S
Cd365 O364 2.223 . S
Cd365 O368 2.297 . S
Cd365 O369 2.439 . S
Cd365 O375 2.240 . S
Cd366 O367 2.240 . S
Cd366 O374 2.223 . S
Cd366 O376 2.297 . S
Cd366 O377 2.439 . S
O367 Cd366 2.240 . S
O367 C372 1.279 . S
O368 Cd365 2.297 . S
O368 C370 1.247 . S
O369 Cd365 2.439 . S
O369 C370 1.208 . S
C370 O368 1.247 . S
C370 O369 1.208 . S
C371 O376 1.247 . S
C371 O377 1.208 . S
C372 O364 1.315 . S
C372 O367 1.279 . S
C373 O374 1.315 . S
C373 O375 1.279 . S
O374 Cd366 2.223 . S
O374 C373 1.315 . S
O375 Cd365 2.240 . S
O375 C373 1.279 . S
O376 Cd366 2.297 . S
O376 C371 1.247 . S
O377 Cd366 2.439 . S
O377 C371 1.208 . S
O378 Cd379 2.223 . S
O378 C386 1.315 . S
Cd379 O378 2.223 . S
Cd379 O382 2.297 . S
Cd379 O383 2.439 . S
Cd379 O389 2.240 . S
Cd380 O381 2.240 . S
Cd380 O388 2.223 . S
Cd380 O390 2.297 1_655 S
Cd380 O391 2.439 . S
O381 Cd380 2.240 . S
O381 C386 1.279 . S
O382 Cd379 2.297 . S
O382 C384 1.247 . S
O383 Cd379 2.439 . S
O383 C384 1.208 . S
C384 O382 1.247 . S
C384 O383 1.208 . S
C385 O390 1.247 1_655 S
C385 O391 1.208 . S
C386 O378 1.315 . S
C386 O381 1.279 . S
C387 O388 1.315 . S
C387 O389 1.279 . S
O388 Cd380 2.223 . S
O388 C387 1.315 . S
O389 Cd379 2.240 . S
O389 C387 1.279 . S
O390 Cd380 2.297 1_455 S
O390 C385 1.247 1_455 S
O391 Cd380 2.439 . S
O391 C385 1.208 . S
O392 Cd393 2.223 . S
O392 C400 1.315 . S
Cd393 O392 2.223 . S
Cd393 O396 2.297 . S
Cd393 O397 2.439 . S
Cd393 O403 2.240 . S
Cd394 O395 2.240 . S
Cd394 O402 2.223 . S
Cd394 O404 2.297 . S
Cd394 O405 2.439 . S
O395 Cd394 2.240 . S
O395 C400 1.279 . S
O396 Cd393 2.297 . S
O396 C398 1.247 . S
O397 Cd393 2.439 . S
O397 C398 1.208 . S
C398 O396 1.247 . S
C398 O397 1.208 . S
C399 O404 1.247 . S
C399 O405 1.208 . S
C400 O392 1.315 . S
C400 O395 1.279 . S
C401 O402 1.315 . S
C401 O403 1.279 . S
O402 Cd394 2.223 . S
O402 C401 1.315 . S
O403 Cd393 2.240 . S
O403 C401 1.279 . S
O404 Cd394 2.297 . S
O404 C399 1.247 . S
O405 Cd394 2.439 . S
O405 C399 1.208 . S
O406 Cd407 2.223 . S
O406 C414 1.315 . S
Cd407 O406 2.223 . S
Cd407 O410 2.297 . S
Cd407 O411 2.439 . S
Cd407 O417 2.240 . S
Cd408 O409 2.240 . S
Cd408 O416 2.223 . S
Cd408 O418 2.297 . S
Cd408 O419 2.439 . S
O409 Cd408 2.240 . S
O409 C414 1.279 . S
O410 Cd407 2.297 . S
O410 C412 1.247 . S
O411 Cd407 2.439 . S
O411 C412 1.208 . S
C412 O410 1.247 . S
C412 O411 1.208 . S
C413 O418 1.247 . S
C413 O419 1.208 . S
C414 O406 1.315 . S
C414 O409 1.279 . S
C415 O416 1.315 . S
C415 O417 1.279 . S
O416 Cd408 2.223 . S
O416 C415 1.315 . S
O417 Cd407 2.240 . S
O417 C415 1.279 . S
O418 Cd408 2.297 . S
O418 C413 1.247 . S
O419 Cd408 2.439 . S
O419 C413 1.208 . S
O420 Cd421 2.223 . S
O420 C428 1.315 . S
Cd421 O420 2.223 . S
Cd421 O424 2.297 . S
Cd421 O425 2.439 . S
Cd421 O431 2.240 . S
Cd422 O423 2.240 . S
Cd422 O430 2.223 . S
Cd422 O432 2.297 . S
Cd422 O433 2.439 . S
O423 Cd422 2.240 . S
O423 C428 1.279 . S
O424 Cd421 2.297 . S
O424 C426 1.247 . S
O425 Cd421 2.439 . S
O425 C426 1.208 . S
C426 O424 1.247 . S
C426 O425 1.208 . S
C427 O432 1.247 . S
C427 O433 1.208 . S
C428 O420 1.315 . S
C428 O423 1.279 . S
C429 O430 1.315 . S
C429 O431 1.279 . S
O430 Cd422 2.223 . S
O430 C429 1.315 . S
O431 Cd421 2.240 . S
O431 C429 1.279 . S
O432 Cd422 2.297 . S
O432 C427 1.247 . S
O433 Cd422 2.439 . S
O433 C427 1.208 . S
O434 Cd435 2.223 . S
O434 C442 1.315 . S
Cd435 O434 2.223 . S
Cd435 O438 2.297 . S
Cd435 O439 2.439 . S
Cd435 O445 2.240 . S
Cd436 O437 2.240 . S
Cd436 O444 2.223 . S
Cd436 O446 2.297 . S
Cd436 O447 2.439 . S
O437 Cd436 2.240 . S
O437 C442 1.279 . S
O438 Cd435 2.297 . S
O438 C440 1.247 . S
O439 Cd435 2.439 . S
O439 C440 1.208 . S
C440 O438 1.247 . S
C440 O439 1.208 . S
C441 O446 1.247 . S
C441 O447 1.208 . S
C442 O434 1.315 . S
C442 O437 1.279 . S
C443 O444 1.315 . S
C443 O445 1.279 . S
O444 Cd436 2.223 . S
O444 C443 1.315 . S
O445 Cd435 2.240 . S
O445 C443 1.279 . S
O446 Cd436 2.297 . S
O446 C441 1.247 . S
O447 Cd436 2.439 . S
O447 C441 1.208 . S
H448 C456 0.950 . S
H449 C461 0.950 . S
H450 C458 0.950 . S
H451 C460 0.950 . S
H452 C462 0.950 . S
H453 C464 0.922 1_455 S
H454 C466 0.950 . S
H455 C467 0.950 . S
C456 H448 0.950 . S
C456 C457 1.386 1_655 S
C456 C458 1.391 . S
C457 C456 1.386 1_455 S
C457 C461 1.393 1_545 S
C458 H450 0.950 . S
C458 C456 1.391 . S
C458 C459 1.400 1_545 S
C459 C458 1.400 1_565 S
C459 C460 1.398 1_655 S
C459 C465 1.491 . S
C460 H451 0.950 . S
C460 C459 1.398 1_455 S
C460 C461 1.391 . S
C461 H449 0.950 . S
C461 C457 1.393 1_565 S
C461 C460 1.391 . S
C462 H452 0.950 . S
C462 C463 1.386 . S
C462 C464 1.391 1_556 S
C463 C462 1.386 . S
C463 C467 1.393 . S
C464 H453 0.922 1_655 S
C464 C462 1.391 1_554 S
C464 C465 1.400 . S
C465 C459 1.491 . S
C465 C464 1.400 . S
C465 C466 1.398 . S
C466 H454 0.950 . S
C466 C465 1.398 . S
C466 C467 1.391 1_554 S
C467 H455 0.950 . S
C467 C463 1.393 . S
C467 C466 1.391 1_556 S
H468 C476 0.950 . S
H469 C481 0.950 . S
H470 C478 0.950 . S
H471 C480 0.950 . S
H472 C482 0.950 . S
H473 C484 0.950 . S
H474 C486 0.950 . S
H475 C487 0.950 . S
C476 H468 0.950 . S
C476 C477 1.386 . S
C476 C478 1.391 . S
C477 C476 1.386 . S
C477 C481 1.393 . S
C478 H470 0.950 . S
C478 C476 1.391 . S
C478 C479 1.400 . S
C479 C478 1.400 . S
C479 C480 1.398 . S
C479 C485 1.491 . S
C480 H471 0.950 . S
C480 C479 1.398 . S
C480 C481 1.391 . S
C481 H469 0.950 . S
C481 C477 1.393 . S
C481 C480 1.391 . S
C482 H472 0.950 . S
C482 C483 1.386 . S
C482 C484 1.391 . S
C483 C482 1.386 . S
C483 C487 1.393 . S
C484 H473 0.950 . S
C484 C482 1.391 . S
C484 C485 1.400 . S
C485 C479 1.491 . S
C485 C484 1.400 . S
C485 C486 1.398 . S
C486 H474 0.950 . S
C486 C485 1.398 . S
C486 C487 1.391 . S
C487 H475 0.950 . S
C487 C483 1.393 . S
C487 C486 1.391 . S
H488 C496 0.950 . S
H489 C501 0.950 . S
H490 C498 0.950 . S
H491 C500 0.950 . S
H492 C502 0.950 . S
H493 C504 0.950 . S
H494 C506 0.950 . S
H495 C507 0.950 . S
C496 H488 0.950 . S
C496 C497 1.386 . S
C496 C498 1.391 . S
C497 C496 1.386 . S
C497 C501 1.393 . S
C498 H490 0.950 . S
C498 C496 1.391 . S
C498 C499 1.400 1_565 S
C499 C498 1.400 1_545 S
C499 C500 1.398 . S
C499 C505 1.491 . S
C500 H491 0.950 . S
C500 C499 1.398 . S
C500 C501 1.391 1_545 S
C501 H489 0.950 . S
C501 C497 1.393 . S
C501 C500 1.391 1_565 S
C502 H492 0.950 . S
C502 C503 1.386 . S
C502 C504 1.391 . S
C503 C502 1.386 . S
C503 C507 1.393 . S
C504 H493 0.950 . S
C504 C502 1.391 . S
C504 C505 1.400 . S
C505 C499 1.491 . S
C505 C504 1.400 . S
C505 C506 1.398 . S
C506 H494 0.950 . S
C506 C505 1.398 . S
C506 C507 1.391 . S
C507 H495 0.950 . S
C507 C503 1.393 . S
C507 C506 1.391 . S
H508 C516 0.950 . S
H509 C521 0.950 . S
H510 C518 0.950 . S
H511 C520 0.950 . S
H512 C522 0.950 . S
H513 C524 0.950 . S
H514 C526 0.950 . S
H515 C527 0.950 . S
C516 H508 0.950 . S
C516 C517 1.386 . S
C516 C518 1.391 . S
C517 C516 1.386 . S
C517 C521 1.393 . S
C518 H510 0.950 . S
C518 C516 1.391 . S
C518 C519 1.400 . S
C519 C518 1.400 . S
C519 C520 1.398 . S
C519 C525 1.491 . S
C520 H511 0.950 . S
C520 C519 1.398 . S
C520 C521 1.391 . S
C521 H509 0.950 . S
C521 C517 1.393 . S
C521 C520 1.391 . S
C522 H512 0.950 . S
C522 C523 1.386 . S
C522 C524 1.391 . S
C523 C522 1.386 . S
C523 C527 1.393 . S
C524 H513 0.950 . S
C524 C522 1.391 . S
C524 C525 1.400 . S
C525 C519 1.491 . S
C525 C524 1.400 . S
C525 C526 1.398 . S
C526 H514 0.950 . S
C526 C525 1.398 . S
C526 C527 1.391 . S
C527 H515 0.950 . S
C527 C523 1.393 . S
C527 C526 1.391 . S
H528 C536 0.951 . S
H529 C541 0.950 . S
H530 C538 0.950 . S
H531 C540 0.950 . S
H532 C542 0.950 . S
H533 C544 0.950 . S
H534 C546 0.951 . S
H535 C547 0.950 . S
C536 H528 0.951 . S
C536 C537 1.377 1_655 S
C536 C538 1.399 . S
C537 C536 1.377 1_455 S
C537 C541 1.393 . S
C538 H530 0.950 . S
C538 C536 1.399 . S
C538 C539 1.400 . S
C539 C538 1.400 . S
C539 C540 1.398 1_655 S
C539 C545 1.491 . S
C540 H531 0.950 . S
C540 C539 1.398 1_455 S
C540 C541 1.391 . S
C541 H529 0.950 . S
C541 C537 1.393 . S
C541 C540 1.391 . S
C542 H532 0.950 . S
C542 C543 1.386 1_565 S
C542 C544 1.391 . S
C543 C542 1.386 1_545 S
C543 C547 1.393 . S
C544 H533 0.950 . S
C544 C542 1.391 . S
C544 C545 1.400 . S
C545 C539 1.491 . S
C545 C544 1.400 . S
C545 C546 1.398 . S
C546 H534 0.951 . S
C546 C545 1.398 . S
C546 C547 1.391 1_565 S
C547 H535 0.950 . S
C547 C543 1.393 . S
C547 C546 1.391 1_545 S
H548 C556 0.950 . S
H549 C561 0.950 . S
H550 C558 0.950 . S
H551 C560 0.950 . S
H552 C562 0.950 . S
H553 C564 0.950 . S
H554 C566 0.950 . S
H555 C567 0.950 . S
C556 H548 0.950 . S
C556 C557 1.386 . S
C556 C558 1.391 . S
C557 C556 1.386 . S
C557 C561 1.393 . S
C558 H550 0.950 . S
C558 C556 1.391 . S
C558 C559 1.400 . S
C559 C558 1.400 . S
C559 C560 1.398 . S
C559 C565 1.491 . S
C560 H551 0.950 . S
C560 C559 1.398 . S
C560 C561 1.391 . S
C561 H549 0.950 . S
C561 C557 1.393 . S
C561 C560 1.391 . S
C562 H552 0.950 . S
C562 C563 1.386 . S
C562 C564 1.391 . S
C563 C562 1.386 . S
C563 C567 1.393 . S
C564 H553 0.950 . S
C564 C562 1.391 . S
C564 C565 1.400 . S
C565 C559 1.491 . S
C565 C564 1.400 . S
C565 C566 1.398 . S
C566 H554 0.950 . S
C566 C565 1.398 . S
C566 C567 1.391 . S
C567 H555 0.950 . S
C567 C563 1.393 . S
C567 C566 1.391 . S
H568 C576 0.950 . S
H569 C581 0.950 . S
H570 C578 0.950 . S
H571 C580 0.950 1_565 S
H572 C582 0.950 . S
H573 C584 0.950 . S
H574 C586 0.950 . S
H575 C587 0.950 . S
C576 H568 0.950 . S
C576 C577 1.386 . S
C576 C578 1.391 . S
C577 C576 1.386 . S
C577 C581 1.393 . S
C578 H570 0.950 . S
C578 C576 1.391 . S
C578 C579 1.402 . S
C579 C578 1.402 . S
C579 C580 1.401 . S
C579 C585 1.486 1_556 S
C580 H571 0.950 1_545 S
C580 C579 1.401 . S
C580 C581 1.391 . S
C581 H569 0.950 . S
C581 C577 1.393 . S
C581 C580 1.391 . S
C582 H572 0.950 . S
C582 C583 1.386 . S
C582 C584 1.391 . S
C583 C582 1.386 . S
C583 C587 1.393 1_565 S
C584 H573 0.950 . S
C584 C582 1.391 . S
C584 C585 1.400 1_565 S
C585 C579 1.486 1_554 S
C585 C584 1.400 1_545 S
C585 C586 1.398 . S
C586 H574 0.950 . S
C586 C585 1.398 . S
C586 C587 1.391 . S
C587 H575 0.950 . S
C587 C583 1.393 1_545 S
C587 C586 1.391 . S
H588 C596 0.950 . S
H589 C601 0.950 . S
H590 C598 0.950 . S
H591 C600 0.950 . S
H592 C602 0.950 . S
H593 C604 0.950 . S
H594 C606 0.950 . S
H595 C607 0.950 . S
C596 H588 0.950 . S
C596 C597 1.386 . S
C596 C598 1.391 . S
C597 C596 1.386 . S
C597 C601 1.393 . S
C598 H590 0.950 . S
C598 C596 1.391 . S
C598 C599 1.400 . S
C599 C598 1.400 . S
C599 C600 1.398 . S
C599 C605 1.491 . S
C600 H591 0.950 . S
C600 C599 1.398 . S
C600 C601 1.391 . S
C601 H589 0.950 . S
C601 C597 1.393 . S
C601 C600 1.391 . S
C602 H592 0.950 . S
C602 C603 1.386 . S
C602 C604 1.391 . S
C603 C602 1.386 . S
C603 C607 1.393 . S
C604 H593 0.950 . S
C604 C602 1.391 . S
C604 C605 1.400 . S
C605 C599 1.491 . S
C605 C604 1.400 . S
C605 C606 1.398 . S
C606 H594 0.950 . S
C606 C605 1.398 . S
C606 C607 1.391 . S
C607 H595 0.950 . S
C607 C603 1.393 . S
C607 C606 1.391 . S
H608 C616 0.950 . S
H609 C621 0.950 . S
H610 C618 0.950 . S
H611 C620 0.950 . S
H612 C622 0.950 . S
H613 C624 0.950 . S
H614 C626 0.950 1_554 S
H615 C627 0.950 . S
C616 H608 0.950 . S
C616 C617 1.386 . S
C616 C618 1.391 . S
C617 C616 1.386 . S
C617 C621 1.393 . S
C618 H610 0.950 . S
C618 C616 1.391 . S
C618 C619 1.433 . S
C619 C618 1.433 . S
C619 C620 1.388 1_554 S
C619 C625 1.470 1_554 S
C620 H611 0.950 . S
C620 C619 1.388 1_556 S
C620 C621 1.391 1_556 S
C621 H609 0.950 . S
C621 C617 1.393 . S
C621 C620 1.391 1_554 S
C622 H612 0.950 . S
C622 C623 1.386 . S
C622 C624 1.391 . S
C623 C622 1.386 . S
C623 C627 1.393 . S
C624 H613 0.950 . S
C624 C622 1.391 . S
C624 C625 1.400 . S
C625 C619 1.470 1_556 S
C625 C624 1.400 . S
C625 C626 1.398 . S
C626 H614 0.950 1_556 S
C626 C625 1.398 . S
C626 C627 1.391 . S
C627 H615 0.950 . S
C627 C623 1.393 . S
C627 C626 1.391 . S
H628 C636 0.950 . S
H629 C641 0.950 . S
H630 C638 0.950 . S
H631 C640 0.950 . S
H632 C642 0.950 . S
H633 C644 0.950 . S
H634 C646 0.950 . S
H635 C647 0.950 . S
C636 H628 0.950 . S
C636 C637 1.386 . S
C636 C638 1.391 . S
C637 C636 1.386 . S
C637 C641 1.393 . S
C638 H630 0.950 . S
C638 C636 1.391 . S
C638 C639 1.400 . S
C639 C638 1.400 . S
C639 C640 1.398 . S
C639 C645 1.491 . S
C640 H631 0.950 . S
C640 C639 1.398 . S
C640 C641 1.391 . S
C641 H629 0.950 . S
C641 C637 1.393 . S
C641 C640 1.391 . S
C642 H632 0.950 . S
C642 C643 1.386 . S
C642 C644 1.391 . S
C643 C642 1.386 . S
C643 C647 1.393 . S
C644 H633 0.950 . S
C644 C642 1.391 . S
C644 C645 1.400 . S
C645 C639 1.491 . S
C645 C644 1.400 . S
C645 C646 1.398 . S
C646 H634 0.950 . S
C646 C645 1.398 . S
C646 C647 1.391 . S
C647 H635 0.950 . S
C647 C643 1.393 . S
C647 C646 1.391 . S
H648 C656 0.950 . S
H649 C661 0.950 . S
H650 C658 0.950 . S
H651 C660 0.971 . S
H652 C662 0.950 . S
H653 C664 0.950 . S
H654 C666 0.950 . S
H655 C667 0.950 . S
C656 H648 0.950 . S
C656 C657 1.386 . S
C656 C658 1.391 . S
C657 C656 1.386 . S
C657 C661 1.393 . S
C658 H650 0.950 . S
C658 C656 1.391 . S
C658 C659 1.400 . S
C659 C658 1.400 . S
C659 C660 1.398 . S
C659 C665 1.491 1_455 S
C660 H651 0.971 . S
C660 C659 1.398 . S
C660 C661 1.391 . S
C661 H649 0.950 . S
C661 C657 1.393 . S
C661 C660 1.391 . S
C662 H652 0.950 . S
C662 C663 1.386 . S
C662 C664 1.391 . S
C663 C662 1.386 . S
C663 C667 1.393 . S
C664 H653 0.950 . S
C664 C662 1.391 . S
C664 C665 1.400 . S
C665 C659 1.491 1_655 S
C665 C664 1.400 . S
C665 C666 1.398 . S
C666 H654 0.950 . S
C666 C665 1.398 . S
C666 C667 1.391 . S
C667 H655 0.950 . S
C667 C663 1.393 . S
C667 C666 1.391 . S
H668 C676 0.950 . S
H669 C681 0.950 . S
H670 C678 0.950 . S
H671 C680 0.950 . S
H672 C682 0.950 . S
H673 C684 0.950 . S
H674 C686 0.950 . S
H675 C687 0.950 . S
C676 H668 0.950 . S
C676 C677 1.386 . S
C676 C678 1.391 . S
C677 C676 1.386 . S
C677 C681 1.393 . S
C678 H670 0.950 . S
C678 C676 1.391 . S
C678 C679 1.400 . S
C679 C678 1.400 . S
C679 C680 1.398 . S
C679 C685 1.491 . S
C680 H671 0.950 . S
C680 C679 1.398 . S
C680 C681 1.391 . S
C681 H669 0.950 . S
C681 C677 1.393 . S
C681 C680 1.391 . S
C682 H672 0.950 . S
C682 C683 1.386 . S
C682 C684 1.391 . S
C683 C682 1.386 . S
C683 C687 1.393 . S
C684 H673 0.950 . S
C684 C682 1.391 . S
C684 C685 1.400 . S
C685 C679 1.491 . S
C685 C684 1.400 . S
C685 C686 1.398 . S
C686 H674 0.950 . S
C686 C685 1.398 . S
C686 C687 1.391 . S
C687 H675 0.950 . S
C687 C683 1.393 . S
C687 C686 1.391 . S
H688 C696 0.950 . S
H689 C701 0.950 . S
H690 C698 0.950 . S
H691 C700 0.950 . S
H692 C702 0.950 . S
H693 C704 0.950 . S
H694 C706 0.950 . S
H695 C707 0.950 . S
C696 H688 0.950 . S
C696 C697 1.386 . S
C696 C698 1.391 . S
C697 C696 1.386 . S
C697 C701 1.393 . S
C698 H690 0.950 . S
C698 C696 1.391 . S
C698 C699 1.400 . S
C699 C698 1.400 . S
C699 C700 1.398 . S
C699 C705 1.491 . S
C700 H691 0.950 . S
C700 C699 1.398 . S
C700 C701 1.391 . S
C701 H689 0.950 . S
C701 C697 1.393 . S
C701 C700 1.391 . S
C702 H692 0.950 . S
C702 C703 1.386 . S
C702 C704 1.391 . S
C703 C702 1.386 . S
C703 C707 1.393 . S
C704 H693 0.950 . S
C704 C702 1.391 . S
C704 C705 1.400 . S
C705 C699 1.491 . S
C705 C704 1.400 . S
C705 C706 1.398 . S
C706 H694 0.950 . S
C706 C705 1.398 . S
C706 C707 1.391 . S
C707 H695 0.950 . S
C707 C703 1.393 . S
C707 C706 1.391 . S
H708 C716 0.950 . S
H709 C721 0.950 . S
H710 C718 0.950 . S
H711 C720 0.950 . S
H712 C722 0.950 . S
H713 C724 0.950 . S
H714 C726 0.950 . S
H715 C727 0.950 . S
C716 H708 0.950 . S
C716 C717 1.386 . S
C716 C718 1.391 . S
C717 C716 1.386 . S
C717 C721 1.393 . S
C718 H710 0.950 . S
C718 C716 1.391 . S
C718 C719 1.400 . S
C719 C718 1.400 . S
C719 C720 1.398 . S
C719 C725 1.491 . S
C720 H711 0.950 . S
C720 C719 1.398 . S
C720 C721 1.391 . S
C721 H709 0.950 . S
C721 C717 1.393 . S
C721 C720 1.391 . S
C722 H712 0.950 . S
C722 C723 1.386 . S
C722 C724 1.391 . S
C723 C722 1.386 . S
C723 C727 1.393 . S
C724 H713 0.950 . S
C724 C722 1.391 . S
C724 C725 1.400 . S
C725 C719 1.491 . S
C725 C724 1.400 . S
C725 C726 1.398 . S
C726 H714 0.950 . S
C726 C725 1.398 . S
C726 C727 1.391 . S
C727 H715 0.950 . S
C727 C723 1.393 . S
C727 C726 1.391 . S
H728 C736 0.950 . S
H729 C741 0.950 . S
H730 C738 0.950 . S
H731 C740 0.950 . S
H732 C742 0.950 . S
H733 C744 0.950 . S
H734 C746 0.950 . S
H735 C747 0.950 . S
C736 H728 0.950 . S
C736 C737 1.386 . S
C736 C738 1.391 . S
C737 C736 1.386 . S
C737 C741 1.393 . S
C738 H730 0.950 . S
C738 C736 1.391 . S
C738 C739 1.400 . S
C739 C738 1.400 . S
C739 C740 1.398 . S
C739 C745 1.491 . S
C740 H731 0.950 . S
C740 C739 1.398 . S
C740 C741 1.391 . S
C741 H729 0.950 . S
C741 C737 1.393 . S
C741 C740 1.391 . S
C742 H732 0.950 . S
C742 C743 1.386 . S
C742 C744 1.391 . S
C743 C742 1.386 . S
C743 C747 1.393 . S
C744 H733 0.950 . S
C744 C742 1.391 . S
C744 C745 1.400 . S
C745 C739 1.491 . S
C745 C744 1.400 . S
C745 C746 1.398 . S
C746 H734 0.950 . S
C746 C745 1.398 . S
C746 C747 1.391 . S
C747 H735 0.950 . S
C747 C743 1.393 . S
C747 C746 1.391 . S
H748 C756 0.950 . S
H749 C761 0.950 . S
H750 C758 0.950 . S
H751 C760 0.950 . S
H752 C762 0.950 . S
H753 C764 0.950 . S
H754 C766 0.950 . S
H755 C767 0.950 . S
C756 H748 0.950 . S
C756 C757 1.386 . S
C756 C758 1.391 . S
C757 C756 1.386 . S
C757 C761 1.393 1_556 S
C758 H750 0.950 . S
C758 C756 1.391 . S
C758 C759 1.400 1_556 S
C759 C758 1.400 1_554 S
C759 C760 1.398 . S
C759 C765 1.491 . S
C760 H751 0.950 . S
C760 C759 1.398 . S
C760 C761 1.391 . S
C761 H749 0.950 . S
C761 C757 1.393 1_554 S
C761 C760 1.391 . S
C762 H752 0.950 . S
C762 C763 1.386 1_455 S
C762 C764 1.391 . S
C763 C762 1.386 1_655 S
C763 C767 1.393 . S
C764 H753 0.950 . S
C764 C762 1.391 . S
C764 C765 1.400 . S
C765 C759 1.491 . S
C765 C764 1.400 . S
C765 C766 1.398 1_455 S
C766 H754 0.950 . S
C766 C765 1.398 1_655 S
C766 C767 1.391 . S
C767 H755 0.950 . S
C767 C763 1.393 . S
C767 C766 1.391 . S
H768 C776 0.950 . S
H769 C781 0.950 . S
H770 C778 0.950 . S
H771 C780 0.950 1_545 S
H772 C782 0.950 . S
H773 C784 0.950 . S
H774 C786 0.950 . S
H775 C787 0.950 . S
C776 H768 0.950 . S
C776 C777 1.386 1_565 S
C776 C778 1.391 . S
C777 C776 1.386 1_545 S
C777 C781 1.393 . S
C778 H770 0.950 . S
C778 C776 1.391 . S
C778 C779 1.400 . S
C779 C778 1.400 . S
C779 C780 1.398 . S
C779 C785 1.491 . S
C780 H771 0.950 1_565 S
C780 C779 1.398 . S
C780 C781 1.391 1_565 S
C781 H769 0.950 . S
C781 C777 1.393 . S
C781 C780 1.391 1_545 S
C782 H772 0.950 . S
C782 C783 1.386 . S
C782 C784 1.391 . S
C783 C782 1.386 . S
C783 C787 1.393 . S
C784 H773 0.950 . S
C784 C782 1.391 . S
C784 C785 1.400 . S
C785 C779 1.491 . S
C785 C784 1.400 . S
C785 C786 1.398 . S
C786 H774 0.950 . S
C786 C785 1.398 . S
C786 C787 1.391 . S
C787 H775 0.950 . S
C787 C783 1.393 . S
C787 C786 1.391 . S
H788 C796 0.950 . S
H789 C801 0.950 . S
H790 C798 0.950 . S
H791 C800 0.950 . S
H792 C802 0.950 . S
H793 C804 0.950 . S
H794 C806 0.950 . S
H795 C807 0.950 . S
C796 H788 0.950 . S
C796 C797 1.386 . S
C796 C798 1.391 . S
C797 C796 1.386 . S
C797 C801 1.393 . S
C798 H790 0.950 . S
C798 C796 1.391 . S
C798 C799 1.400 . S
C799 C798 1.400 . S
C799 C800 1.398 . S
C799 C805 1.491 . S
C800 H791 0.950 . S
C800 C799 1.398 . S
C800 C801 1.391 . S
C801 H789 0.950 . S
C801 C797 1.393 . S
C801 C800 1.391 . S
C802 H792 0.950 . S
C802 C803 1.386 . S
C802 C804 1.391 . S
C803 C802 1.386 . S
C803 C807 1.393 . S
C804 H793 0.950 . S
C804 C802 1.391 . S
C804 C805 1.400 . S
C805 C799 1.491 . S
C805 C804 1.400 . S
C805 C806 1.398 . S
C806 H794 0.950 . S
C806 C805 1.398 . S
C806 C807 1.391 . S
C807 H795 0.950 . S
C807 C803 1.393 . S
C807 C806 1.391 . S
H808 C816 0.950 . S
H809 C821 0.950 . S
H810 C818 0.950 . S
H811 C820 0.950 . S
H812 C822 0.950 . S
H813 C824 0.950 . S
H814 C826 0.950 . S
H815 C827 0.950 . S
C816 H808 0.950 . S
C816 C817 1.386 . S
C816 C818 1.391 . S
C817 C816 1.386 . S
C817 C821 1.393 . S
C818 H810 0.950 . S
C818 C816 1.391 . S
C818 C819 1.400 . S
C819 C818 1.400 . S
C819 C820 1.398 . S
C819 C825 1.491 . S
C820 H811 0.950 . S
C820 C819 1.398 . S
C820 C821 1.391 . S
C821 H809 0.950 . S
C821 C817 1.393 . S
C821 C820 1.391 . S
C822 H812 0.950 . S
C822 C823 1.386 1_545 S
C822 C824 1.391 . S
C823 C822 1.386 1_565 S
C823 C827 1.393 . S
C824 H813 0.950 . S
C824 C822 1.391 . S
C824 C825 1.400 . S
C825 C819 1.491 . S
C825 C824 1.400 . S
C825 C826 1.398 1_545 S
C826 H814 0.950 . S
C826 C825 1.398 1_565 S
C826 C827 1.391 . S
C827 H815 0.950 . S
C827 C823 1.393 . S
C827 C826 1.391 . S
H828 C836 0.950 . S
H829 C841 0.950 . S
H830 C838 0.950 . S
H831 C840 0.950 . S
H832 C842 0.950 . S
H833 C844 0.950 . S
H834 C846 0.950 . S
H835 C847 0.950 . S
C836 H828 0.950 . S
C836 C837 1.386 . S
C836 C838 1.391 . S
C837 C836 1.386 . S
C837 C841 1.393 . S
C838 H830 0.950 . S
C838 C836 1.391 . S
C838 C839 1.400 . S
C839 C838 1.400 . S
C839 C840 1.398 . S
C839 C845 1.491 . S
C840 H831 0.950 . S
C840 C839 1.398 . S
C840 C841 1.391 . S
C841 H829 0.950 . S
C841 C837 1.393 . S
C841 C840 1.391 . S
C842 H832 0.950 . S
C842 C843 1.386 . S
C842 C844 1.391 1_554 S
C843 C842 1.386 . S
C843 C847 1.393 . S
C844 H833 0.950 . S
C844 C842 1.391 1_556 S
C844 C845 1.400 . S
C845 C839 1.491 . S
C845 C844 1.400 . S
C845 C846 1.398 1_556 S
C846 H834 0.950 . S
C846 C845 1.398 1_554 S
C846 C847 1.391 . S
C847 H835 0.950 . S
C847 C843 1.393 . S
C847 C846 1.391 . S
H848 C856 0.950 . S
H849 C861 0.950 . S
H850 C858 0.950 . S
H851 C860 0.950 . S
H852 C862 0.950 . S
H853 C864 0.950 . S
H854 C866 0.950 . S
H855 C867 0.950 . S
C856 H848 0.950 . S
C856 C857 1.386 . S
C856 C858 1.391 . S
C857 C856 1.386 . S
C857 C861 1.393 . S
C858 H850 0.950 . S
C858 C856 1.391 . S
C858 C859 1.400 . S
C859 C858 1.400 . S
C859 C860 1.398 . S
C859 C865 1.491 . S
C860 H851 0.950 . S
C860 C859 1.398 . S
C860 C861 1.391 . S
C861 H849 0.950 . S
C861 C857 1.393 . S
C861 C860 1.391 . S
C862 H852 0.950 . S
C862 C863 1.386 . S
C862 C864 1.391 1_565 S
C863 C862 1.386 . S
C863 C867 1.393 . S
C864 H853 0.950 . S
C864 C862 1.391 1_545 S
C864 C865 1.400 . S
C865 C859 1.491 . S
C865 C864 1.400 . S
C865 C866 1.398 1_545 S
C866 H854 0.950 . S
C866 C865 1.398 1_565 S
C866 C867 1.391 . S
C867 H855 0.950 . S
C867 C863 1.393 . S
C867 C866 1.391 . S
H868 C876 0.950 . S
H869 C881 0.950 . S
H870 C878 0.950 . S
H871 C880 0.950 . S
H872 C882 0.950 . S
H873 C884 0.950 . S
H874 C886 0.950 . S
H875 C887 0.950 . S
C876 H868 0.950 . S
C876 C877 1.386 . S
C876 C878 1.391 . S
C877 C876 1.386 . S
C877 C881 1.393 . S
C878 H870 0.950 . S
C878 C876 1.391 . S
C878 C879 1.400 . S
C879 C878 1.400 . S
C879 C880 1.398 . S
C879 C885 1.491 . S
C880 H871 0.950 . S
C880 C879 1.398 . S
C880 C881 1.391 . S
C881 H869 0.950 . S
C881 C877 1.393 . S
C881 C880 1.391 . S
C882 H872 0.950 . S
C882 C883 1.386 . S
C882 C884 1.391 . S
C883 C882 1.386 . S
C883 C887 1.393 . S
C884 H873 0.950 . S
C884 C882 1.391 . S
C884 C885 1.400 . S
C885 C879 1.491 . S
C885 C884 1.400 . S
C885 C886 1.398 . S
C886 H874 0.950 . S
C886 C885 1.398 . S
C886 C887 1.391 . S
C887 H875 0.950 . S
C887 C883 1.393 . S
C887 C886 1.391 . S
H888 C896 0.950 . S
H889 C901 0.950 . S
H890 C898 0.950 . S
H891 C900 0.950 . S
H892 C902 0.950 . S
H893 C904 0.950 . S
H894 C906 0.963 . S
H895 C907 0.950 . S
C896 H888 0.950 . S
C896 C897 1.386 . S
C896 C898 1.391 . S
C897 C896 1.386 . S
C897 C901 1.393 . S
C898 H890 0.950 . S
C898 C896 1.391 . S
C898 C899 1.400 1_545 S
C899 C898 1.400 1_565 S
C899 C900 1.398 . S
C899 C905 1.491 . S
C900 H891 0.950 . S
C900 C899 1.398 . S
C900 C901 1.391 1_565 S
C901 H889 0.950 . S
C901 C897 1.393 . S
C901 C900 1.391 1_545 S
C902 H892 0.950 . S
C902 C903 1.386 . S
C902 C904 1.391 . S
C903 C902 1.386 . S
C903 C907 1.393 . S
C904 H893 0.950 . S
C904 C902 1.391 . S
C904 C905 1.400 . S
C905 C899 1.491 . S
C905 C904 1.400 . S
C905 C906 1.398 . S
C906 H894 0.963 . S
C906 C905 1.398 . S
C906 C907 1.391 . S
C907 H895 0.950 . S
C907 C903 1.393 . S
C907 C906 1.391 . S
H908 C916 0.950 . S
H909 C921 0.950 . S
H910 C918 0.950 . S
H911 C920 0.950 1_554 S
H912 C922 0.950 . S
H913 C924 0.950 . S
H914 C926 0.950 . S
H915 C927 0.950 . S
C916 H908 0.950 . S
C916 C917 1.386 . S
C916 C918 1.391 . S
C917 C916 1.386 . S
C917 C921 1.393 . S
C918 H910 0.950 . S
C918 C916 1.391 . S
C918 C919 1.410 . S
C919 C918 1.410 . S
C919 C920 1.400 . S
C919 C925 1.479 1_556 S
C920 H911 0.950 1_556 S
C920 C919 1.400 . S
C920 C921 1.391 . S
C921 H909 0.950 . S
C921 C917 1.393 . S
C921 C920 1.391 . S
C922 H912 0.950 . S
C922 C923 1.386 . S
C922 C924 1.391 . S
C923 C922 1.386 . S
C923 C927 1.393 . S
C924 H913 0.950 . S
C924 C922 1.391 . S
C924 C925 1.400 . S
C925 C919 1.479 1_554 S
C925 C924 1.400 . S
C925 C926 1.398 . S
C926 H914 0.950 . S
C926 C925 1.398 . S
C926 C927 1.391 . S
C927 H915 0.950 . S
C927 C923 1.393 . S
C927 C926 1.391 . S
H928 C936 0.950 . S
H929 C941 0.950 . S
H930 C938 0.950 . S
H931 C940 0.950 . S
H932 C942 0.950 . S
H933 C944 0.950 . S
H934 C946 0.950 . S
H935 C947 0.959 . S
C936 H928 0.950 . S
C936 C937 1.386 . S
C936 C938 1.391 . S
C937 C936 1.386 . S
C937 C941 1.393 . S
C938 H930 0.950 . S
C938 C936 1.391 . S
C938 C939 1.400 . S
C939 C938 1.400 . S
C939 C940 1.398 . S
C939 C945 1.491 . S
C940 H931 0.950 . S
C940 C939 1.398 . S
C940 C941 1.391 . S
C941 H929 0.950 . S
C941 C937 1.393 . S
C941 C940 1.391 . S
C942 H932 0.950 . S
C942 C943 1.386 . S
C942 C944 1.391 . S
C943 C942 1.386 . S
C943 C947 1.391 1_655 S
C944 H933 0.950 . S
C944 C942 1.391 . S
C944 C945 1.400 . S
C945 C939 1.491 . S
C945 C944 1.400 . S
C945 C946 1.398 . S
C946 H934 0.950 . S
C946 C945 1.398 . S
C946 C947 1.383 1_655 S
C947 H935 0.959 . S
C947 C943 1.391 1_455 S
C947 C946 1.383 1_455 S
H948 C956 0.950 . S
H949 C961 0.950 . S
H950 C958 0.950 . S
H951 C960 0.950 . S
H952 C962 0.950 . S
H953 C964 0.950 . S
H954 C966 0.950 . S
H955 C967 0.950 . S
C956 H948 0.950 . S
C956 C957 1.386 . S
C956 C958 1.391 . S
C957 C956 1.386 . S
C957 C961 1.393 . S
C958 H950 0.950 . S
C958 C956 1.391 . S
C958 C959 1.400 . S
C959 C958 1.400 . S
C959 C960 1.398 . S
C959 C965 1.491 . S
C960 H951 0.950 . S
C960 C959 1.398 . S
C960 C961 1.391 . S
C961 H949 0.950 . S
C961 C957 1.393 . S
C961 C960 1.391 . S
C962 H952 0.950 . S
C962 C963 1.386 . S
C962 C964 1.391 . S
C963 C962 1.386 . S
C963 C967 1.393 . S
C964 H953 0.950 . S
C964 C962 1.391 . S
C964 C965 1.400 . S
C965 C959 1.491 . S
C965 C964 1.400 . S
C965 C966 1.398 . S
C966 H954 0.950 . S
C966 C965 1.398 . S
C966 C967 1.391 . S
C967 H955 0.950 . S
C967 C963 1.393 . S
C967 C966 1.391 . S
H968 C976 0.950 . S
H969 C981 0.950 . S
H970 C978 0.950 . S
H971 C980 0.950 . S
H972 C982 0.950 . S
H973 C984 0.950 . S
H974 C986 0.950 . S
H975 C987 0.950 . S
C976 H968 0.950 . S
C976 C977 1.386 . S
C976 C978 1.391 1_655 S
C977 C976 1.386 . S
C977 C981 1.393 . S
C978 H970 0.950 . S
C978 C976 1.391 1_455 S
C978 C979 1.400 1_455 S
C979 C978 1.400 1_655 S
C979 C980 1.400 . S
C979 C985 1.489 1_655 S
C980 H971 0.950 . S
C980 C979 1.400 . S
C980 C981 1.391 . S
C981 H969 0.950 . S
C981 C977 1.393 . S
C981 C980 1.391 . S
C982 H972 0.950 . S
C982 C983 1.386 . S
C982 C984 1.391 . S
C983 C982 1.386 . S
C983 C987 1.393 . S
C984 H973 0.950 . S
C984 C982 1.391 . S
C984 C985 1.400 . S
C985 C979 1.489 1_455 S
C985 C984 1.400 . S
C985 C986 1.398 . S
C986 H974 0.950 . S
C986 C985 1.398 . S
C986 C987 1.391 . S
C987 H975 0.950 . S
C987 C983 1.393 . S
C987 C986 1.391 . S
H988 C996 0.950 1_655 S
H989 C1001 0.950 . S
H990 C998 0.950 . S
H991 C1000 0.950 . S
H992 C1002 0.950 . S
H993 C1004 0.950 . S
H994 C1006 0.950 . S
H995 C1007 0.950 . S
C996 H988 0.950 1_455 S
C996 C997 1.386 . S
C996 C998 1.391 . S
C997 C996 1.386 . S
C997 C1001 1.393 . S
C998 H990 0.950 . S
C998 C996 1.391 . S
C998 C999 1.400 . S
C999 C998 1.400 . S
C999 C1000 1.398 . S
C999 C1005 1.491 . S
C1000 H991 0.950 . S
C1000 C999 1.398 . S
C1000 C1001 1.391 . S
C1001 H989 0.950 . S
C1001 C997 1.393 . S
C1001 C1000 1.391 . S
C1002 H992 0.950 . S
C1002 C1003 1.386 . S
C1002 C1004 1.391 . S
C1003 C1002 1.386 . S
C1003 C1007 1.393 . S
C1004 H993 0.950 . S
C1004 C1002 1.391 . S
C1004 C1005 1.400 . S
C1005 C999 1.491 . S
C1005 C1004 1.400 . S
C1005 C1006 1.398 . S
C1006 H994 0.950 . S
C1006 C1005 1.398 . S
C1006 C1007 1.391 . S
C1007 H995 0.950 . S
C1007 C1003 1.393 . S
C1007 C1006 1.391 . S
H1008 C1016 0.950 . S
H1009 C1021 0.950 . S
H1010 C1018 0.950 . S
H1011 C1020 0.950 . S
H1012 C1022 0.950 . S
H1013 C1024 0.950 . S
H1014 C1026 0.950 . S
H1015 C1027 0.950 . S
C1016 H1008 0.950 . S
C1016 C1017 1.386 . S
C1016 C1018 1.391 . S
C1017 C1016 1.386 . S
C1017 C1021 1.393 . S
C1018 H1010 0.950 . S
C1018 C1016 1.391 . S
C1018 C1019 1.400 . S
C1019 C1018 1.400 . S
C1019 C1020 1.398 . S
C1019 C1025 1.491 . S
C1020 H1011 0.950 . S
C1020 C1019 1.398 . S
C1020 C1021 1.391 . S
C1021 H1009 0.950 . S
C1021 C1017 1.393 . S
C1021 C1020 1.391 . S
C1022 H1012 0.950 . S
C1022 C1023 1.386 . S
C1022 C1024 1.391 . S
C1023 C1022 1.386 . S
C1023 C1027 1.393 . S
C1024 H1013 0.950 . S
C1024 C1022 1.391 . S
C1024 C1025 1.400 . S
C1025 C1019 1.491 . S
C1025 C1024 1.400 . S
C1025 C1026 1.398 . S
C1026 H1014 0.950 . S
C1026 C1025 1.398 . S
C1026 C1027 1.391 . S
C1027 H1015 0.950 . S
C1027 C1023 1.393 . S
C1027 C1026 1.391 . S
H1028 C1036 0.950 . S
H1029 C1041 0.950 . S
H1030 C1038 0.950 . S
H1031 C1040 0.950 . S
H1032 C1042 0.951 . S
H1033 C1044 0.950 . S
H1034 C1046 0.950 . S
H1035 C1047 0.950 . S
C1036 H1028 0.950 . S
C1036 C1037 1.386 . S
C1036 C1038 1.391 . S
C1037 C1036 1.386 . S
C1037 C1041 1.393 . S
C1038 H1030 0.950 . S
C1038 C1036 1.391 . S
C1038 C1039 1.400 . S
C1039 C1038 1.400 . S
C1039 C1040 1.398 . S
C1039 C1045 1.491 . S
C1040 H1031 0.950 . S
C1040 C1039 1.398 . S
C1040 C1041 1.391 . S
C1041 H1029 0.950 . S
C1041 C1037 1.393 . S
C1041 C1040 1.391 . S
C1042 H1032 0.951 . S
C1042 C1043 1.386 . S
C1042 C1044 1.391 1_455 S
C1043 C1042 1.386 . S
C1043 C1047 1.393 . S
C1044 H1033 0.950 . S
C1044 C1042 1.391 1_655 S
C1044 C1045 1.400 . S
C1045 C1039 1.491 . S
C1045 C1044 1.400 . S
C1045 C1046 1.398 1_655 S
C1046 H1034 0.950 . S
C1046 C1045 1.398 1_455 S
C1046 C1047 1.391 . S
C1047 H1035 0.950 . S
C1047 C1043 1.393 . S
C1047 C1046 1.391 . S
H1048 C1056 0.950 . S
H1049 C1061 0.950 . S
H1050 C1058 0.950 . S
H1051 C1060 0.950 . S
H1052 C1062 0.950 . S
H1053 C1064 0.950 . S
H1054 C1066 0.950 . S
H1055 C1067 0.950 . S
C1056 H1048 0.950 . S
C1056 C1057 1.386 . S
C1056 C1058 1.391 . S
C1057 C1056 1.386 . S
C1057 C1061 1.393 . S
C1058 H1050 0.950 . S
C1058 C1056 1.391 . S
C1058 C1059 1.400 . S
C1059 C1058 1.400 . S
C1059 C1060 1.398 . S
C1059 C1065 1.491 . S
C1060 H1051 0.950 . S
C1060 C1059 1.398 . S
C1060 C1061 1.391 . S
C1061 H1049 0.950 . S
C1061 C1057 1.393 . S
C1061 C1060 1.391 . S
C1062 H1052 0.950 . S
C1062 C1063 1.386 . S
C1062 C1064 1.391 . S
C1063 C1062 1.386 . S
C1063 C1067 1.393 . S
C1064 H1053 0.950 . S
C1064 C1062 1.391 . S
C1064 C1065 1.400 . S
C1065 C1059 1.491 . S
C1065 C1064 1.400 . S
C1065 C1066 1.398 . S
C1066 H1054 0.950 . S
C1066 C1065 1.398 . S
C1066 C1067 1.391 . S
C1067 H1055 0.950 . S
C1067 C1063 1.393 . S
C1067 C1066 1.391 . S
H1068 C1076 0.950 . S
H1069 C1081 0.950 . S
H1070 C1078 0.950 . S
H1071 C1080 0.950 . S
H1072 C1082 0.950 . S
H1073 C1084 0.950 . S
H1074 C1086 0.950 1_545 S
H1075 C1087 0.950 . S
C1076 H1068 0.950 . S
C1076 C1077 1.386 . S
C1076 C1078 1.391 . S
C1077 C1076 1.386 . S
C1077 C1081 1.393 . S
C1078 H1070 0.950 . S
C1078 C1076 1.391 . S
C1078 C1079 1.400 . S
C1079 C1078 1.400 . S
C1079 C1080 1.398 . S
C1079 C1085 1.478 1_545 S
C1080 H1071 0.950 . S
C1080 C1079 1.398 . S
C1080 C1081 1.391 . S
C1081 H1069 0.950 . S
C1081 C1077 1.393 . S
C1081 C1080 1.391 . S
C1082 H1072 0.950 . S
C1082 C1083 1.386 . S
C1082 C1084 1.391 . S
C1083 C1082 1.386 . S
C1083 C1087 1.393 . S
C1084 H1073 0.950 . S
C1084 C1082 1.391 . S
C1084 C1085 1.412 . S
C1085 C1079 1.478 1_565 S
C1085 C1084 1.412 . S
C1085 C1086 1.400 . S
C1086 H1074 0.950 1_565 S
C1086 C1085 1.400 . S
C1086 C1087 1.391 . S
C1087 H1075 0.950 . S
C1087 C1083 1.393 . S
C1087 C1086 1.391 . S
H1088 C1096 0.950 . S
H1089 C1101 0.950 . S
H1090 C1098 0.950 . S
H1091 C1100 0.950 . S
H1092 C1102 0.950 . S
H1093 C1104 0.950 . S
H1094 C1106 0.950 . S
H1095 C1107 0.950 . S
C1096 H1088 0.950 . S
C1096 C1097 1.386 . S
C1096 C1098 1.391 . S
C1097 C1096 1.386 . S
C1097 C1101 1.393 . S
C1098 H1090 0.950 . S
C1098 C1096 1.391 . S
C1098 C1099 1.400 . S
C1099 C1098 1.400 . S
C1099 C1100 1.398 . S
C1099 C1105 1.491 . S
C1100 H1091 0.950 . S
C1100 C1099 1.398 . S
C1100 C1101 1.391 . S
C1101 H1089 0.950 . S
C1101 C1097 1.393 . S
C1101 C1100 1.391 . S
C1102 H1092 0.950 . S
C1102 C1103 1.386 . S
C1102 C1104 1.391 . S
C1103 C1102 1.386 . S
C1103 C1107 1.393 . S
C1104 H1093 0.950 . S
C1104 C1102 1.391 . S
C1104 C1105 1.400 . S
C1105 C1099 1.491 . S
C1105 C1104 1.400 . S
C1105 C1106 1.398 . S
C1106 H1094 0.950 . S
C1106 C1105 1.398 . S
C1106 C1107 1.391 . S
C1107 H1095 0.950 . S
C1107 C1103 1.393 . S
C1107 C1106 1.391 . S
H1108 C1116 0.950 . S
H1109 C1121 0.950 . S
H1110 C1118 0.950 . S
H1111 C1120 0.950 . S
H1112 C1122 0.950 . S
H1113 C1124 0.950 . S
H1114 C1126 0.950 1_565 S
H1115 C1127 0.950 . S
C1116 H1108 0.950 . S
C1116 C1117 1.386 . S
C1116 C1118 1.391 . S
C1117 C1116 1.386 . S
C1117 C1121 1.393 . S
C1118 H1110 0.950 . S
C1118 C1116 1.391 . S
C1118 C1119 1.400 . S
C1119 C1118 1.400 . S
C1119 C1120 1.398 . S
C1119 C1125 1.491 . S
C1120 H1111 0.950 . S
C1120 C1119 1.398 . S
C1120 C1121 1.391 . S
C1121 H1109 0.950 . S
C1121 C1117 1.393 . S
C1121 C1120 1.391 . S
C1122 H1112 0.950 . S
C1122 C1123 1.386 . S
C1122 C1124 1.391 . S
C1123 C1122 1.386 . S
C1123 C1127 1.393 . S
C1124 H1113 0.950 . S
C1124 C1122 1.391 . S
C1124 C1125 1.400 1_545 S
C1125 C1119 1.491 . S
C1125 C1124 1.400 1_565 S
C1125 C1126 1.398 1_565 S
C1126 H1114 0.950 1_545 S
C1126 C1125 1.398 1_545 S
C1126 C1127 1.391 . S
C1127 H1115 0.950 . S
C1127 C1123 1.393 . S
C1127 C1126 1.391 . S
H1128 C1136 0.950 . S
H1129 C1141 0.950 . S
H1130 C1138 0.950 . S
H1131 C1140 0.950 . S
H1132 C1142 0.950 . S
H1133 C1144 0.950 . S
H1134 C1146 0.950 . S
H1135 C1147 0.950 . S
C1136 H1128 0.950 . S
C1136 C1137 1.386 . S
C1136 C1138 1.391 . S
C1137 C1136 1.386 . S
C1137 C1141 1.393 1_556 S
C1138 H1130 0.950 . S
C1138 C1136 1.391 . S
C1138 C1139 1.400 1_556 S
C1139 C1138 1.400 1_554 S
C1139 C1140 1.398 . S
C1139 C1145 1.491 . S
C1140 H1131 0.950 . S
C1140 C1139 1.398 . S
C1140 C1141 1.391 . S
C1141 H1129 0.950 . S
C1141 C1137 1.393 1_554 S
C1141 C1140 1.391 . S
C1142 H1132 0.950 . S
C1142 C1143 1.386 . S
C1142 C1144 1.391 . S
C1143 C1142 1.386 . S
C1143 C1147 1.393 . S
C1144 H1133 0.950 . S
C1144 C1142 1.391 . S
C1144 C1145 1.400 . S
C1145 C1139 1.491 . S
C1145 C1144 1.400 . S
C1145 C1146 1.398 . S
C1146 H1134 0.950 . S
C1146 C1145 1.398 . S
C1146 C1147 1.391 . S
C1147 H1135 0.950 . S
C1147 C1143 1.393 . S
C1147 C1146 1.391 . S
H1148 C1156 0.950 . S
H1149 C1161 0.950 . S
H1150 C1158 0.950 . S
H1151 C1160 0.950 . S
H1152 C1162 0.950 . S
H1153 C1164 0.950 . S
H1154 C1166 0.950 . S
H1155 C1167 0.950 . S
C1156 H1148 0.950 . S
C1156 C1157 1.386 1_565 S
C1156 C1158 1.391 . S
C1157 C1156 1.386 1_545 S
C1157 C1161 1.393 . S
C1158 H1150 0.950 . S
C1158 C1156 1.391 . S
C1158 C1159 1.400 . S
C1159 C1158 1.400 . S
C1159 C1160 1.398 1_565 S
C1159 C1165 1.491 . S
C1160 H1151 0.950 . S
C1160 C1159 1.398 1_545 S
C1160 C1161 1.391 . S
C1161 H1149 0.950 . S
C1161 C1157 1.393 . S
C1161 C1160 1.391 . S
C1162 H1152 0.950 . S
C1162 C1163 1.386 . S
C1162 C1164 1.391 . S
C1163 C1162 1.386 . S
C1163 C1167 1.393 . S
C1164 H1153 0.950 . S
C1164 C1162 1.391 . S
C1164 C1165 1.400 . S
C1165 C1159 1.491 . S
C1165 C1164 1.400 . S
C1165 C1166 1.398 . S
C1166 H1154 0.950 . S
C1166 C1165 1.398 . S
C1166 C1167 1.391 . S
C1167 H1155 0.950 . S
C1167 C1163 1.393 . S
C1167 C1166 1.391 . S
H1168 C1176 0.950 . S
H1169 C1181 0.950 . S
H1170 C1178 0.950 . S
H1171 C1180 0.950 . S
H1172 C1182 0.950 . S
H1173 C1184 0.950 . S
H1174 C1186 0.950 . S
H1175 C1187 0.950 . S
C1176 H1168 0.950 . S
C1176 C1177 1.386 . S
C1176 C1178 1.391 . S
C1177 C1176 1.386 . S
C1177 C1181 1.393 . S
C1178 H1170 0.950 . S
C1178 C1176 1.391 . S
C1178 C1179 1.400 . S
C1179 C1178 1.400 . S
C1179 C1180 1.398 . S
C1179 C1185 1.491 . S
C1180 H1171 0.950 . S
C1180 C1179 1.398 . S
C1180 C1181 1.391 . S
C1181 H1169 0.950 . S
C1181 C1177 1.393 . S
C1181 C1180 1.391 . S
C1182 H1172 0.950 . S
C1182 C1183 1.386 . S
C1182 C1184 1.391 . S
C1183 C1182 1.386 . S
C1183 C1187 1.393 . S
C1184 H1173 0.950 . S
C1184 C1182 1.391 . S
C1184 C1185 1.400 . S
C1185 C1179 1.491 . S
C1185 C1184 1.400 . S
C1185 C1186 1.398 . S
C1186 H1174 0.950 . S
C1186 C1185 1.398 . S
C1186 C1187 1.391 . S
C1187 H1175 0.950 . S
C1187 C1183 1.393 . S
C1187 C1186 1.391 . S
H1188 C1196 0.950 . S
H1189 C1201 0.950 . S
H1190 C1198 0.950 . S
H1191 C1200 0.954 . S
H1192 C1202 0.950 . S
H1193 C1204 0.950 . S
H1194 C1206 0.950 . S
H1195 C1207 0.950 . S
C1196 H1188 0.950 . S
C1196 C1197 1.386 . S
C1196 C1198 1.391 1_565 S
C1197 C1196 1.386 . S
C1197 C1201 1.393 . S
C1198 H1190 0.950 . S
C1198 C1196 1.391 1_545 S
C1198 C1199 1.400 . S
C1199 C1198 1.400 . S
C1199 C1200 1.410 . S
C1199 C1205 1.491 . S
C1200 H1191 0.954 . S
C1200 C1199 1.410 . S
C1200 C1201 1.376 1_545 S
C1201 H1189 0.950 . S
C1201 C1197 1.393 . S
C1201 C1200 1.376 1_565 S
C1202 H1192 0.950 . S
C1202 C1203 1.386 . S
C1202 C1204 1.391 . S
C1203 C1202 1.386 . S
C1203 C1207 1.393 . S
C1204 H1193 0.950 . S
C1204 C1202 1.391 . S
C1204 C1205 1.400 . S
C1205 C1199 1.491 . S
C1205 C1204 1.400 . S
C1205 C1206 1.398 . S
C1206 H1194 0.950 . S
C1206 C1205 1.398 . S
C1206 C1207 1.391 . S
C1207 H1195 0.950 . S
C1207 C1203 1.393 . S
C1207 C1206 1.391 . S
H1208 C1216 0.950 . S
H1209 C1221 0.950 . S
H1210 C1218 0.950 . S
H1211 C1220 0.950 . S
H1212 C1222 0.950 . S
H1213 C1224 0.950 . S
H1214 C1226 0.950 . S
H1215 C1227 0.950 . S
C1216 H1208 0.950 . S
C1216 C1217 1.386 . S
C1216 C1218 1.391 . S
C1217 C1216 1.386 . S
C1217 C1221 1.393 . S
C1218 H1210 0.950 . S
C1218 C1216 1.391 . S
C1218 C1219 1.384 1_554 S
C1219 C1218 1.384 1_556 S
C1219 C1220 1.400 . S
C1219 C1225 1.504 . S
C1220 H1211 0.950 . S
C1220 C1219 1.400 . S
C1220 C1221 1.391 1_556 S
C1221 H1209 0.950 . S
C1221 C1217 1.393 . S
C1221 C1220 1.391 1_554 S
C1222 H1212 0.950 . S
C1222 C1223 1.386 . S
C1222 C1224 1.391 . S
C1223 C1222 1.386 . S
C1223 C1227 1.393 . S
C1224 H1213 0.950 . S
C1224 C1222 1.391 . S
C1224 C1225 1.400 . S
C1225 C1219 1.504 . S
C1225 C1224 1.400 . S
C1225 C1226 1.398 . S
C1226 H1214 0.950 . S
C1226 C1225 1.398 . S
C1226 C1227 1.391 . S
C1227 H1215 0.950 . S
C1227 C1223 1.393 . S
C1227 C1226 1.391 . S
H1228 C1236 0.950 . S
H1229 C1241 0.950 . S
H1230 C1238 0.950 . S
H1231 C1240 0.950 . S
H1232 C1242 0.950 . S
H1233 C1244 0.950 . S
H1234 C1246 0.950 . S
H1235 C1247 0.950 . S
C1236 H1228 0.950 . S
C1236 C1237 1.386 . S
C1236 C1238 1.391 1_655 S
C1237 C1236 1.386 . S
C1237 C1241 1.393 . S
C1238 H1230 0.950 . S
C1238 C1236 1.391 1_455 S
C1238 C1239 1.400 . S
C1239 C1238 1.400 . S
C1239 C1240 1.398 . S
C1239 C1245 1.491 . S
C1240 H1231 0.950 . S
C1240 C1239 1.398 . S
C1240 C1241 1.391 1_455 S
C1241 H1229 0.950 . S
C1241 C1237 1.393 . S
C1241 C1240 1.391 1_655 S
C1242 H1232 0.950 . S
C1242 C1243 1.386 . S
C1242 C1244 1.391 . S
C1243 C1242 1.386 . S
C1243 C1247 1.393 . S
C1244 H1233 0.950 . S
C1244 C1242 1.391 . S
C1244 C1245 1.400 . S
C1245 C1239 1.491 . S
C1245 C1244 1.400 . S
C1245 C1246 1.398 . S
C1246 H1234 0.950 . S
C1246 C1245 1.398 . S
C1246 C1247 1.391 . S
C1247 H1235 0.950 . S
C1247 C1243 1.393 . S
C1247 C1246 1.391 . S
H1248 C1256 0.950 . S
H1249 C1261 0.950 . S
H1250 C1258 0.950 . S
H1251 C1260 0.950 . S
H1252 C1262 0.950 . S
H1253 C1264 0.950 . S
H1254 C1266 0.950 . S
H1255 C1267 0.950 . S
C1256 H1248 0.950 . S
C1256 C1257 1.386 . S
C1256 C1258 1.391 . S
C1257 C1256 1.386 . S
C1257 C1261 1.393 . S
C1258 H1250 0.950 . S
C1258 C1256 1.391 . S
C1258 C1259 1.400 . S
C1259 C1258 1.400 . S
C1259 C1260 1.398 . S
C1259 C1265 1.491 . S
C1260 H1251 0.950 . S
C1260 C1259 1.398 . S
C1260 C1261 1.391 . S
C1261 H1249 0.950 . S
C1261 C1257 1.393 . S
C1261 C1260 1.391 . S
C1262 H1252 0.950 . S
C1262 C1263 1.386 . S
C1262 C1264 1.391 . S
C1263 C1262 1.386 . S
C1263 C1267 1.393 . S
C1264 H1253 0.950 . S
C1264 C1262 1.391 . S
C1264 C1265 1.400 . S
C1265 C1259 1.491 . S
C1265 C1264 1.400 . S
C1265 C1266 1.398 . S
C1266 H1254 0.950 . S
C1266 C1265 1.398 . S
C1266 C1267 1.391 . S
C1267 H1255 0.950 . S
C1267 C1263 1.393 . S
C1267 C1266 1.391 . S
H1268 C1276 0.950 . S
H1269 C1281 0.950 . S
H1270 C1278 0.950 . S
H1271 C1280 0.950 . S
H1272 C1282 0.950 . S
H1273 C1284 0.950 . S
H1274 C1286 0.950 . S
H1275 C1287 0.950 . S
C1276 H1268 0.950 . S
C1276 C1277 1.386 . S
C1276 C1278 1.391 . S
C1277 C1276 1.386 . S
C1277 C1281 1.393 . S
C1278 H1270 0.950 . S
C1278 C1276 1.391 . S
C1278 C1279 1.400 1_455 S
C1279 C1278 1.400 1_655 S
C1279 C1280 1.398 . S
C1279 C1285 1.491 . S
C1280 H1271 0.950 . S
C1280 C1279 1.398 . S
C1280 C1281 1.391 1_655 S
C1281 H1269 0.950 . S
C1281 C1277 1.393 . S
C1281 C1280 1.391 1_455 S
C1282 H1272 0.950 . S
C1282 C1283 1.386 . S
C1282 C1284 1.391 . S
C1283 C1282 1.386 . S
C1283 C1287 1.393 . S
C1284 H1273 0.950 . S
C1284 C1282 1.391 . S
C1284 C1285 1.400 . S
C1285 C1279 1.491 . S
C1285 C1284 1.400 . S
C1285 C1286 1.398 . S
C1286 H1274 0.950 . S
C1286 C1285 1.398 . S
C1286 C1287 1.391 . S
C1287 H1275 0.950 . S
C1287 C1283 1.393 . S
C1287 C1286 1.391 . S
H1288 C1296 0.950 . S
H1289 C1301 0.950 . S
H1290 C1298 0.950 . S
H1291 C1300 0.950 . S
H1292 C1302 0.950 . S
H1293 C1304 0.950 . S
H1294 C1306 0.950 . S
H1295 C1307 0.950 . S
C1296 H1288 0.950 . S
C1296 C1297 1.386 . S
C1296 C1298 1.391 1_455 S
C1297 C1296 1.386 . S
C1297 C1301 1.393 1_455 S
C1298 H1290 0.950 . S
C1298 C1296 1.391 1_655 S
C1298 C1299 1.400 . S
C1299 C1298 1.400 . S
C1299 C1300 1.398 . S
C1299 C1305 1.491 . S
C1300 H1291 0.950 . S
C1300 C1299 1.398 . S
C1300 C1301 1.391 . S
C1301 H1289 0.950 . S
C1301 C1297 1.393 1_655 S
C1301 C1300 1.391 . S
C1302 H1292 0.950 . S
C1302 C1303 1.386 . S
C1302 C1304 1.391 . S
C1303 C1302 1.386 . S
C1303 C1307 1.393 . S
C1304 H1293 0.950 . S
C1304 C1302 1.391 . S
C1304 C1305 1.400 . S
C1305 C1299 1.491 . S
C1305 C1304 1.400 . S
C1305 C1306 1.398 . S
C1306 H1294 0.950 . S
C1306 C1305 1.398 . S
C1306 C1307 1.391 . S
C1307 H1295 0.950 . S
C1307 C1303 1.393 . S
C1307 C1306 1.391 . S
H1308 C1316 0.950 . S
H1309 C1321 0.950 . S
H1310 C1318 0.950 . S
H1311 C1320 0.950 . S
H1312 C1322 0.950 . S
H1313 C1324 0.950 . S
H1314 C1326 0.950 . S
H1315 C1327 0.950 . S
C1316 H1308 0.950 . S
C1316 C1317 1.386 . S
C1316 C1318 1.391 . S
C1317 C1316 1.386 . S
C1317 C1321 1.393 . S
C1318 H1310 0.950 . S
C1318 C1316 1.391 . S
C1318 C1319 1.400 . S
C1319 C1318 1.400 . S
C1319 C1320 1.398 . S
C1319 C1325 1.491 . S
C1320 H1311 0.950 . S
C1320 C1319 1.398 . S
C1320 C1321 1.391 . S
C1321 H1309 0.950 . S
C1321 C1317 1.393 . S
C1321 C1320 1.391 . S
C1322 H1312 0.950 . S
C1322 C1323 1.386 . S
C1322 C1324 1.391 . S
C1323 C1322 1.386 . S
C1323 C1327 1.393 . S
C1324 H1313 0.950 . S
C1324 C1322 1.391 . S
C1324 C1325 1.400 . S
C1325 C1319 1.491 . S
C1325 C1324 1.400 . S
C1325 C1326 1.398 . S
C1326 H1314 0.950 . S
C1326 C1325 1.398 . S
C1326 C1327 1.391 . S
C1327 H1315 0.950 . S
C1327 C1323 1.393 . S
C1327 C1326 1.391 . S
H1328 C1336 0.950 . S
H1329 C1341 0.950 . S
H1330 C1338 0.950 . S
H1331 C1340 0.950 1_455 S
H1332 C1342 0.950 . S
H1333 C1344 0.950 . S
H1334 C1346 0.950 1_655 S
H1335 C1347 0.950 . S
C1336 H1328 0.950 . S
C1336 C1337 1.386 . S
C1336 C1338 1.391 . S
C1337 C1336 1.386 . S
C1337 C1341 1.393 . S
C1338 H1330 0.950 . S
C1338 C1336 1.391 . S
C1338 C1339 1.400 . S
C1339 C1338 1.400 . S
C1339 C1340 1.398 . S
C1339 C1345 1.491 1_655 S
C1340 H1331 0.950 1_655 S
C1340 C1339 1.398 . S
C1340 C1341 1.391 . S
C1341 H1329 0.950 . S
C1341 C1337 1.393 . S
C1341 C1340 1.391 . S
C1342 H1332 0.950 . S
C1342 C1343 1.386 . S
C1342 C1344 1.391 . S
C1343 C1342 1.386 . S
C1343 C1347 1.393 . S
C1344 H1333 0.950 . S
C1344 C1342 1.391 . S
C1344 C1345 1.400 . S
C1345 C1339 1.491 1_455 S
C1345 C1344 1.400 . S
C1345 C1346 1.398 . S
C1346 H1334 0.950 1_455 S
C1346 C1345 1.398 . S
C1346 C1347 1.391 . S
C1347 H1335 0.950 . S
C1347 C1343 1.393 . S
C1347 C1346 1.391 . S
H1348 C1356 0.950 . S
H1349 C1361 0.950 . S
H1350 C1358 0.950 . S
H1351 C1360 0.950 . S
H1352 C1362 0.950 . S
H1353 C1364 0.950 . S
H1354 C1366 0.950 . S
H1355 C1367 0.950 . S
C1356 H1348 0.950 . S
C1356 C1357 1.386 . S
C1356 C1358 1.391 . S
C1357 C1356 1.386 . S
C1357 C1361 1.393 . S
C1358 H1350 0.950 . S
C1358 C1356 1.391 . S
C1358 C1359 1.400 . S
C1359 C1358 1.400 . S
C1359 C1360 1.398 . S
C1359 C1365 1.491 . S
C1360 H1351 0.950 . S
C1360 C1359 1.398 . S
C1360 C1361 1.391 . S
C1361 H1349 0.950 . S
C1361 C1357 1.393 . S
C1361 C1360 1.391 . S
C1362 H1352 0.950 . S
C1362 C1363 1.386 . S
C1362 C1364 1.391 . S
C1363 C1362 1.386 . S
C1363 C1367 1.393 . S
C1364 H1353 0.950 . S
C1364 C1362 1.391 . S
C1364 C1365 1.400 . S
C1365 C1359 1.491 . S
C1365 C1364 1.400 . S
C1365 C1366 1.398 . S
C1366 H1354 0.950 . S
C1366 C1365 1.398 . S
C1366 C1367 1.391 . S
C1367 H1355 0.950 . S
C1367 C1363 1.393 . S
C1367 C1366 1.391 . S
H1368 C1376 0.950 . S
H1369 C1381 0.950 . S
H1370 C1378 0.950 . S
H1371 C1380 0.950 . S
H1372 C1382 0.950 . S
H1373 C1384 0.950 . S
H1374 C1386 0.950 . S
H1375 C1387 0.950 . S
C1376 H1368 0.950 . S
C1376 C1377 1.386 . S
C1376 C1378 1.391 . S
C1377 C1376 1.386 . S
C1377 C1381 1.393 . S
C1378 H1370 0.950 . S
C1378 C1376 1.391 . S
C1378 C1379 1.400 . S
C1379 C1378 1.400 . S
C1379 C1380 1.398 . S
C1379 C1385 1.491 . S
C1380 H1371 0.950 . S
C1380 C1379 1.398 . S
C1380 C1381 1.391 . S
C1381 H1369 0.950 . S
C1381 C1377 1.393 . S
C1381 C1380 1.391 . S
C1382 H1372 0.950 . S
C1382 C1383 1.386 . S
C1382 C1384 1.391 . S
C1383 C1382 1.386 . S
C1383 C1387 1.393 . S
C1384 H1373 0.950 . S
C1384 C1382 1.391 . S
C1384 C1385 1.400 . S
C1385 C1379 1.491 . S
C1385 C1384 1.400 . S
C1385 C1386 1.398 . S
C1386 H1374 0.950 . S
C1386 C1385 1.398 . S
C1386 C1387 1.391 . S
C1387 H1375 0.950 . S
C1387 C1383 1.393 . S
C1387 C1386 1.391 . S
H1388 C1396 0.950 . S
H1389 C1401 0.950 . S
H1390 C1398 0.950 . S
H1391 C1400 0.950 . S
H1392 C1402 0.950 . S
H1393 C1404 0.950 . S
H1394 C1406 0.950 . S
H1395 C1407 0.950 . S
C1396 H1388 0.950 . S
C1396 C1397 1.386 . S
C1396 C1398 1.391 1_554 S
C1397 C1396 1.386 . S
C1397 C1401 1.393 . S
C1398 H1390 0.950 . S
C1398 C1396 1.391 1_556 S
C1398 C1399 1.400 . S
C1399 C1398 1.400 . S
C1399 C1400 1.398 1_556 S
C1399 C1405 1.491 . S
C1400 H1391 0.950 . S
C1400 C1399 1.398 1_554 S
C1400 C1401 1.391 . S
C1401 H1389 0.950 . S
C1401 C1397 1.393 . S
C1401 C1400 1.391 . S
C1402 H1392 0.950 . S
C1402 C1403 1.386 . S
C1402 C1404 1.391 . S
C1403 C1402 1.386 . S
C1403 C1407 1.393 . S
C1404 H1393 0.950 . S
C1404 C1402 1.391 . S
C1404 C1405 1.400 . S
C1405 C1399 1.491 . S
C1405 C1404 1.400 . S
C1405 C1406 1.398 . S
C1406 H1394 0.950 . S
C1406 C1405 1.398 . S
C1406 C1407 1.391 . S
C1407 H1395 0.950 . S
C1407 C1403 1.393 . S
C1407 C1406 1.391 . S
H1408 C1416 0.950 . S
H1409 C1421 0.950 . S
H1410 C1418 0.950 . S
H1411 C1420 0.950 . S
H1412 C1422 0.950 . S
H1413 C1424 0.950 . S
H1414 C1426 0.950 . S
H1415 C1427 0.950 . S
C1416 H1408 0.950 . S
C1416 C1417 1.386 . S
C1416 C1418 1.391 . S
C1417 C1416 1.386 . S
C1417 C1421 1.393 . S
C1418 H1410 0.950 . S
C1418 C1416 1.391 . S
C1418 C1419 1.400 . S
C1419 C1418 1.400 . S
C1419 C1420 1.398 . S
C1419 C1425 1.491 . S
C1420 H1411 0.950 . S
C1420 C1419 1.398 . S
C1420 C1421 1.391 . S
C1421 H1409 0.950 . S
C1421 C1417 1.393 . S
C1421 C1420 1.391 . S
C1422 H1412 0.950 . S
C1422 C1423 1.386 . S
C1422 C1424 1.391 . S
C1423 C1422 1.386 . S
C1423 C1427 1.393 . S
C1424 H1413 0.950 . S
C1424 C1422 1.391 . S
C1424 C1425 1.400 . S
C1425 C1419 1.491 . S
C1425 C1424 1.400 . S
C1425 C1426 1.398 . S
C1426 H1414 0.950 . S
C1426 C1425 1.398 . S
C1426 C1427 1.391 . S
C1427 H1415 0.950 . S
C1427 C1423 1.393 . S
C1427 C1426 1.391 . S
H1428 C1436 0.950 . S
H1429 C1441 0.950 . S
H1430 C1438 0.950 . S
H1431 C1440 0.950 . S
H1432 C1442 0.950 . S
H1433 C1444 0.950 . S
H1434 C1446 0.950 . S
H1435 C1447 0.950 . S
C1436 H1428 0.950 . S
C1436 C1437 1.386 . S
C1436 C1438 1.391 . S
C1437 C1436 1.386 . S
C1437 C1441 1.393 . S
C1438 H1430 0.950 . S
C1438 C1436 1.391 . S
C1438 C1439 1.400 . S
C1439 C1438 1.400 . S
C1439 C1440 1.398 . S
C1439 C1445 1.491 . S
C1440 H1431 0.950 . S
C1440 C1439 1.398 . S
C1440 C1441 1.391 . S
C1441 H1429 0.950 . S
C1441 C1437 1.393 . S
C1441 C1440 1.391 . S
C1442 H1432 0.950 . S
C1442 C1443 1.386 . S
C1442 C1444 1.391 . S
C1443 C1442 1.386 . S
C1443 C1447 1.393 . S
C1444 H1433 0.950 . S
C1444 C1442 1.391 . S
C1444 C1445 1.400 . S
C1445 C1439 1.491 . S
C1445 C1444 1.400 . S
C1445 C1446 1.398 . S
C1446 H1434 0.950 . S
C1446 C1445 1.398 . S
C1446 C1447 1.391 . S
C1447 H1435 0.950 . S
C1447 C1443 1.393 . S
C1447 C1446 1.391 . S
H1448 C1456 0.950 . S
H1449 C1461 0.950 . S
H1450 C1458 0.950 . S
H1451 C1460 0.950 . S
H1452 C1462 0.950 . S
H1453 C1464 0.950 . S
H1454 C1466 0.950 . S
H1455 C1467 0.950 . S
C1456 H1448 0.950 . S
C1456 C1457 1.386 . S
C1456 C1458 1.391 . S
C1457 C1456 1.386 . S
C1457 C1461 1.393 . S
C1458 H1450 0.950 . S
C1458 C1456 1.391 . S
C1458 C1459 1.400 . S
C1459 C1458 1.400 . S
C1459 C1460 1.398 . S
C1459 C1465 1.491 . S
C1460 H1451 0.950 . S
C1460 C1459 1.398 . S
C1460 C1461 1.391 . S
C1461 H1449 0.950 . S
C1461 C1457 1.393 . S
C1461 C1460 1.391 . S
C1462 H1452 0.950 . S
C1462 C1463 1.386 . S
C1462 C1464 1.391 . S
C1463 C1462 1.386 . S
C1463 C1467 1.393 . S
C1464 H1453 0.950 . S
C1464 C1462 1.391 . S
C1464 C1465 1.400 . S
C1465 C1459 1.491 . S
C1465 C1464 1.400 . S
C1465 C1466 1.398 . S
C1466 H1454 0.950 . S
C1466 C1465 1.398 . S
C1466 C1467 1.391 . S
C1467 H1455 0.950 . S
C1467 C1463 1.393 . S
C1467 C1466 1.391 . S
H1468 C1476 0.950 . S
H1469 C1481 0.950 . S
H1470 C1478 0.950 . S
H1471 C1480 0.950 . S
H1472 C1482 0.950 . S
H1473 C1484 0.964 . S
H1474 C1486 0.950 . S
H1475 C1487 0.950 . S
C1476 H1468 0.950 . S
C1476 C1477 1.386 1_556 S
C1476 C1478 1.391 . S
C1477 C1476 1.386 1_554 S
C1477 C1481 1.393 . S
C1478 H1470 0.950 . S
C1478 C1476 1.391 . S
C1478 C1479 1.400 . S
C1479 C1478 1.400 . S
C1479 C1480 1.398 1_556 S
C1479 C1485 1.491 . S
C1480 H1471 0.950 . S
C1480 C1479 1.398 1_554 S
C1480 C1481 1.391 . S
C1481 H1469 0.950 . S
C1481 C1477 1.393 . S
C1481 C1480 1.391 . S
C1482 H1472 0.950 . S
C1482 C1483 1.386 . S
C1482 C1484 1.391 . S
C1483 C1482 1.386 . S
C1483 C1487 1.393 . S
C1484 H1473 0.964 . S
C1484 C1482 1.391 . S
C1484 C1485 1.400 . S
C1485 C1479 1.491 . S
C1485 C1484 1.400 . S
C1485 C1486 1.398 . S
C1486 H1474 0.950 . S
C1486 C1485 1.398 . S
C1486 C1487 1.391 . S
C1487 H1475 0.950 . S
C1487 C1483 1.393 . S
C1487 C1486 1.391 . S
H1488 C1496 0.950 . S
H1489 C1501 0.950 . S
H1490 C1498 0.950 . S
H1491 C1500 0.950 . S
H1492 C1502 0.950 . S
H1493 C1504 0.950 . S
H1494 C1506 0.950 . S
H1495 C1507 0.950 . S
C1496 H1488 0.950 . S
C1496 C1497 1.386 . S
C1496 C1498 1.391 . S
C1497 C1496 1.386 . S
C1497 C1501 1.393 . S
C1498 H1490 0.950 . S
C1498 C1496 1.391 . S
C1498 C1499 1.400 . S
C1499 C1498 1.400 . S
C1499 C1500 1.398 . S
C1499 C1505 1.491 . S
C1500 H1491 0.950 . S
C1500 C1499 1.398 . S
C1500 C1501 1.391 . S
C1501 H1489 0.950 . S
C1501 C1497 1.393 . S
C1501 C1500 1.391 . S
C1502 H1492 0.950 . S
C1502 C1503 1.386 . S
C1502 C1504 1.391 . S
C1503 C1502 1.386 . S
C1503 C1507 1.393 . S
C1504 H1493 0.950 . S
C1504 C1502 1.391 . S
C1504 C1505 1.400 . S
C1505 C1499 1.491 . S
C1505 C1504 1.400 . S
C1505 C1506 1.398 . S
C1506 H1494 0.950 . S
C1506 C1505 1.398 . S
C1506 C1507 1.391 . S
C1507 H1495 0.950 . S
C1507 C1503 1.393 . S
C1507 C1506 1.391 . S
H1508 C1516 0.950 . S
H1509 C1521 0.950 . S
H1510 C1518 0.950 . S
H1511 C1520 0.950 . S
H1512 C1522 0.950 . S
H1513 C1524 0.950 . S
H1514 C1526 0.950 . S
H1515 C1527 0.950 . S
C1516 H1508 0.950 . S
C1516 C1517 1.386 . S
C1516 C1518 1.391 . S
C1517 C1516 1.386 . S
C1517 C1521 1.393 . S
C1518 H1510 0.950 . S
C1518 C1516 1.391 . S
C1518 C1519 1.400 . S
C1519 C1518 1.400 . S
C1519 C1520 1.398 . S
C1519 C1525 1.491 . S
C1520 H1511 0.950 . S
C1520 C1519 1.398 . S
C1520 C1521 1.391 . S
C1521 H1509 0.950 . S
C1521 C1517 1.393 . S
C1521 C1520 1.391 . S
C1522 H1512 0.950 . S
C1522 C1523 1.386 . S
C1522 C1524 1.391 . S
C1523 C1522 1.386 . S
C1523 C1527 1.393 . S
C1524 H1513 0.950 . S
C1524 C1522 1.391 . S
C1524 C1525 1.400 . S
C1525 C1519 1.491 . S
C1525 C1524 1.400 . S
C1525 C1526 1.398 . S
C1526 H1514 0.950 . S
C1526 C1525 1.398 . S
C1526 C1527 1.391 . S
C1527 H1515 0.950 . S
C1527 C1523 1.393 . S
C1527 C1526 1.391 . S
H1528 C1536 0.950 . S
H1529 C1541 0.950 . S
H1530 C1538 0.950 . S
H1531 C1540 0.950 . S
H1532 C1542 0.950 . S
H1533 C1544 0.950 . S
H1534 C1546 0.950 . S
H1535 C1547 0.950 . S
C1536 H1528 0.950 . S
C1536 C1537 1.386 . S
C1536 C1538 1.391 . S
C1537 C1536 1.386 . S
C1537 C1541 1.393 . S
C1538 H1530 0.950 . S
C1538 C1536 1.391 . S
C1538 C1539 1.400 . S
C1539 C1538 1.400 . S
C1539 C1540 1.398 . S
C1539 C1545 1.491 . S
C1540 H1531 0.950 . S
C1540 C1539 1.398 . S
C1540 C1541 1.391 . S
C1541 H1529 0.950 . S
C1541 C1537 1.393 . S
C1541 C1540 1.391 . S
C1542 H1532 0.950 . S
C1542 C1543 1.386 . S
C1542 C1544 1.391 . S
C1543 C1542 1.386 . S
C1543 C1547 1.393 . S
C1544 H1533 0.950 . S
C1544 C1542 1.391 . S
C1544 C1545 1.400 . S
C1545 C1539 1.491 . S
C1545 C1544 1.400 . S
C1545 C1546 1.398 . S
C1546 H1534 0.950 . S
C1546 C1545 1.398 . S
C1546 C1547 1.391 . S
C1547 H1535 0.950 . S
C1547 C1543 1.393 . S
C1547 C1546 1.391 . S
H1548 C1556 0.950 . S
H1549 C1561 0.950 . S
H1550 C1558 0.950 . S
H1551 C1560 0.950 . S
H1552 C1562 0.950 . S
H1553 C1564 0.950 . S
H1554 C1566 0.950 . S
H1555 C1567 0.950 . S
C1556 H1548 0.950 . S
C1556 C1557 1.386 . S
C1556 C1558 1.391 . S
C1557 C1556 1.386 . S
C1557 C1561 1.393 . S
C1558 H1550 0.950 . S
C1558 C1556 1.391 . S
C1558 C1559 1.400 . S
C1559 C1558 1.400 . S
C1559 C1560 1.398 . S
C1559 C1565 1.491 . S
C1560 H1551 0.950 . S
C1560 C1559 1.398 . S
C1560 C1561 1.391 . S
C1561 H1549 0.950 . S
C1561 C1557 1.393 . S
C1561 C1560 1.391 . S
C1562 H1552 0.950 . S
C1562 C1563 1.386 . S
C1562 C1564 1.391 . S
C1563 C1562 1.386 . S
C1563 C1567 1.393 . S
C1564 H1553 0.950 . S
C1564 C1562 1.391 . S
C1564 C1565 1.400 . S
C1565 C1559 1.491 . S
C1565 C1564 1.400 . S
C1565 C1566 1.398 . S
C1566 H1554 0.950 . S
C1566 C1565 1.398 . S
C1566 C1567 1.391 . S
C1567 H1555 0.950 . S
C1567 C1563 1.393 . S
C1567 C1566 1.391 . S
H1568 C1576 0.950 . S
H1569 C1581 0.950 . S
H1570 C1578 0.950 . S
H1571 C1580 0.950 . S
H1572 C1582 0.950 . S
H1573 C1584 0.950 . S
H1574 C1586 0.950 . S
H1575 C1587 0.950 . S
C1576 H1568 0.950 . S
C1576 C1577 1.386 . S
C1576 C1578 1.391 . S
C1577 C1576 1.386 . S
C1577 C1581 1.393 . S
C1578 H1570 0.950 . S
C1578 C1576 1.391 . S
C1578 C1579 1.400 . S
C1579 C1578 1.400 . S
C1579 C1580 1.398 . S
C1579 C1585 1.491 . S
C1580 H1571 0.950 . S
C1580 C1579 1.398 . S
C1580 C1581 1.391 . S
C1581 H1569 0.950 . S
C1581 C1577 1.393 . S
C1581 C1580 1.391 . S
C1582 H1572 0.950 . S
C1582 C1583 1.386 1_554 S
C1582 C1584 1.391 . S
C1583 C1582 1.386 1_556 S
C1583 C1587 1.393 . S
C1584 H1573 0.950 . S
C1584 C1582 1.391 . S
C1584 C1585 1.400 . S
C1585 C1579 1.491 . S
C1585 C1584 1.400 . S
C1585 C1586 1.398 1_554 S
C1586 H1574 0.950 . S
C1586 C1585 1.398 1_556 S
C1586 C1587 1.391 . S
C1587 H1575 0.950 . S
C1587 C1583 1.393 . S
C1587 C1586 1.391 . S
H1588 C1596 0.950 . S
H1589 C1601 0.950 . S
H1590 C1598 0.950 . S
H1591 C1600 0.950 . S
H1592 C1602 0.950 . S
H1593 C1604 0.950 . S
H1594 C1606 0.950 . S
H1595 C1607 0.950 . S
C1596 H1588 0.950 . S
C1596 C1597 1.386 . S
C1596 C1598 1.391 . S
C1597 C1596 1.386 . S
C1597 C1601 1.393 . S
C1598 H1590 0.950 . S
C1598 C1596 1.391 . S
C1598 C1599 1.400 . S
C1599 C1598 1.400 . S
C1599 C1600 1.398 . S
C1599 C1605 1.491 . S
C1600 H1591 0.950 . S
C1600 C1599 1.398 . S
C1600 C1601 1.391 . S
C1601 H1589 0.950 . S
C1601 C1597 1.393 . S
C1601 C1600 1.391 . S
C1602 H1592 0.950 . S
C1602 C1603 1.386 . S
C1602 C1604 1.391 . S
C1603 C1602 1.386 . S
C1603 C1607 1.393 . S
C1604 H1593 0.950 . S
C1604 C1602 1.391 . S
C1604 C1605 1.400 . S
C1605 C1599 1.491 . S
C1605 C1604 1.400 . S
C1605 C1606 1.398 . S
C1606 H1594 0.950 . S
C1606 C1605 1.398 . S
C1606 C1607 1.391 . S
C1607 H1595 0.950 . S
C1607 C1603 1.393 . S
C1607 C1606 1.391 . S
H1608 C1616 0.950 . S
H1609 C1621 0.950 . S
H1610 C1618 0.950 . S
H1611 C1620 0.950 . S
H1612 C1622 0.950 . S
H1613 C1624 0.950 . S
H1614 C1626 0.950 . S
H1615 C1627 0.950 . S
C1616 H1608 0.950 . S
C1616 C1617 1.386 . S
C1616 C1618 1.391 . S
C1617 C1616 1.386 . S
C1617 C1621 1.393 . S
C1618 H1610 0.950 . S
C1618 C1616 1.391 . S
C1618 C1619 1.400 . S
C1619 C1618 1.400 . S
C1619 C1620 1.398 . S
C1619 C1625 1.491 . S
C1620 H1611 0.950 . S
C1620 C1619 1.398 . S
C1620 C1621 1.391 . S
C1621 H1609 0.950 . S
C1621 C1617 1.393 . S
C1621 C1620 1.391 . S
C1622 H1612 0.950 . S
C1622 C1623 1.386 . S
C1622 C1624 1.391 . S
C1623 C1622 1.386 . S
C1623 C1627 1.393 . S
C1624 H1613 0.950 . S
C1624 C1622 1.391 . S
C1624 C1625 1.400 . S
C1625 C1619 1.491 . S
C1625 C1624 1.400 . S
C1625 C1626 1.398 . S
C1626 H1614 0.950 . S
C1626 C1625 1.398 . S
C1626 C1627 1.391 . S
C1627 H1615 0.950 . S
C1627 C1623 1.393 . S
C1627 C1626 1.391 . S
H1628 C1636 0.950 . S
H1629 C1641 0.950 . S
H1630 C1638 0.950 . S
H1631 C1640 0.950 . S
H1632 C1642 0.950 . S
H1633 C1644 0.950 . S
H1634 C1646 0.950 . S
H1635 C1647 0.950 . S
C1636 H1628 0.950 . S
C1636 C1637 1.386 . S
C1636 C1638 1.391 . S
C1637 C1636 1.386 . S
C1637 C1641 1.393 . S
C1638 H1630 0.950 . S
C1638 C1636 1.391 . S
C1638 C1639 1.400 . S
C1639 C1638 1.400 . S
C1639 C1640 1.398 . S
C1639 C1645 1.491 . S
C1640 H1631 0.950 . S
C1640 C1639 1.398 . S
C1640 C1641 1.391 . S
C1641 H1629 0.950 . S
C1641 C1637 1.393 . S
C1641 C1640 1.391 . S
C1642 H1632 0.950 . S
C1642 C1643 1.386 . S
C1642 C1644 1.391 . S
C1643 C1642 1.386 . S
C1643 C1647 1.393 . S
C1644 H1633 0.950 . S
C1644 C1642 1.391 . S
C1644 C1645 1.400 . S
C1645 C1639 1.491 . S
C1645 C1644 1.400 . S
C1645 C1646 1.398 . S
C1646 H1634 0.950 . S
C1646 C1645 1.398 . S
C1646 C1647 1.391 . S
C1647 H1635 0.950 . S
C1647 C1643 1.393 . S
C1647 C1646 1.391 . S
H1648 C1656 0.950 . S
H1649 C1661 0.950 . S
H1650 C1658 0.950 . S
H1651 C1660 0.950 . S
H1652 C1662 0.950 . S
H1653 C1664 0.950 . S
H1654 C1666 0.950 . S
H1655 C1667 0.950 . S
C1656 H1648 0.950 . S
C1656 C1657 1.386 . S
C1656 C1658 1.391 1_554 S
C1657 C1656 1.386 . S
C1657 C1661 1.393 . S
C1658 H1650 0.950 . S
C1658 C1656 1.391 1_556 S
C1658 C1659 1.400 . S
C1659 C1658 1.400 . S
C1659 C1660 1.398 1_556 S
C1659 C1665 1.491 . S
C1660 H1651 0.950 . S
C1660 C1659 1.398 1_554 S
C1660 C1661 1.391 . S
C1661 H1649 0.950 . S
C1661 C1657 1.393 . S
C1661 C1660 1.391 . S
C1662 H1652 0.950 . S
C1662 C1663 1.386 . S
C1662 C1664 1.391 . S
C1663 C1662 1.386 . S
C1663 C1667 1.393 . S
C1664 H1653 0.950 . S
C1664 C1662 1.391 . S
C1664 C1665 1.400 . S
C1665 C1659 1.491 . S
C1665 C1664 1.400 . S
C1665 C1666 1.398 . S
C1666 H1654 0.950 . S
C1666 C1665 1.398 . S
C1666 C1667 1.391 . S
C1667 H1655 0.950 . S
C1667 C1663 1.393 . S
C1667 C1666 1.391 . S
H1668 C1676 0.950 . S
H1669 C1681 0.950 . S
H1670 C1678 0.950 . S
H1671 C1680 0.950 . S
H1672 C1682 0.950 . S
H1673 C1684 0.950 . S
H1674 C1686 0.950 . S
H1675 C1687 0.950 . S
C1676 H1668 0.950 . S
C1676 C1677 1.386 . S
C1676 C1678 1.391 . S
C1677 C1676 1.386 . S
C1677 C1681 1.393 . S
C1678 H1670 0.950 . S
C1678 C1676 1.391 . S
C1678 C1679 1.400 . S
C1679 C1678 1.400 . S
C1679 C1680 1.398 . S
C1679 C1685 1.491 . S
C1680 H1671 0.950 . S
C1680 C1679 1.398 . S
C1680 C1681 1.391 . S
C1681 H1669 0.950 . S
C1681 C1677 1.393 . S
C1681 C1680 1.391 . S
C1682 H1672 0.950 . S
C1682 C1683 1.386 . S
C1682 C1684 1.391 . S
C1683 C1682 1.386 . S
C1683 C1687 1.393 . S
C1684 H1673 0.950 . S
C1684 C1682 1.391 . S
C1684 C1685 1.400 . S
C1685 C1679 1.491 . S
C1685 C1684 1.400 . S
C1685 C1686 1.398 . S
C1686 H1674 0.950 . S
C1686 C1685 1.398 . S
C1686 C1687 1.391 . S
C1687 H1675 0.950 . S
C1687 C1683 1.393 . S
C1687 C1686 1.391 . S
H1688 C1696 0.950 . S
H1689 C1701 0.950 . S
H1690 C1698 0.950 . S
H1691 C1700 0.950 . S
H1692 C1702 0.950 . S
H1693 C1704 0.950 . S
H1694 C1706 0.950 . S
H1695 C1707 0.950 . S
C1696 H1688 0.950 . S
C1696 C1697 1.386 . S
C1696 C1698 1.391 . S
C1697 C1696 1.386 . S
C1697 C1701 1.393 . S
C1698 H1690 0.950 . S
C1698 C1696 1.391 . S
C1698 C1699 1.400 . S
C1699 C1698 1.400 . S
C1699 C1700 1.398 . S
C1699 C1705 1.491 . S
C1700 H1691 0.950 . S
C1700 C1699 1.398 . S
C1700 C1701 1.391 . S
C1701 H1689 0.950 . S
C1701 C1697 1.393 . S
C1701 C1700 1.391 . S
C1702 H1692 0.950 . S
C1702 C1703 1.386 . S
C1702 C1704 1.391 . S
C1703 C1702 1.386 . S
C1703 C1707 1.393 . S
C1704 H1693 0.950 . S
C1704 C1702 1.391 . S
C1704 C1705 1.400 . S
C1705 C1699 1.491 . S
C1705 C1704 1.400 . S
C1705 C1706 1.398 . S
C1706 H1694 0.950 . S
C1706 C1705 1.398 . S
C1706 C1707 1.391 . S
C1707 H1695 0.950 . S
C1707 C1703 1.393 . S
C1707 C1706 1.391 . S
H1708 C1716 0.950 . S
H1709 C1721 0.950 . S
H1710 C1718 0.950 . S
H1711 C1720 0.950 . S
H1712 C1722 0.950 . S
H1713 C1724 0.950 . S
H1714 C1726 0.950 . S
H1715 C1727 0.950 . S
C1716 H1708 0.950 . S
C1716 C1717 1.386 . S
C1716 C1718 1.391 . S
C1717 C1716 1.386 . S
C1717 C1721 1.393 . S
C1718 H1710 0.950 . S
C1718 C1716 1.391 . S
C1718 C1719 1.400 . S
C1719 C1718 1.400 . S
C1719 C1720 1.398 . S
C1719 C1725 1.491 . S
C1720 H1711 0.950 . S
C1720 C1719 1.398 . S
C1720 C1721 1.391 . S
C1721 H1709 0.950 . S
C1721 C1717 1.393 . S
C1721 C1720 1.391 . S
C1722 H1712 0.950 . S
C1722 C1723 1.386 . S
C1722 C1724 1.391 . S
C1723 C1722 1.386 . S
C1723 C1727 1.393 . S
C1724 H1713 0.950 . S
C1724 C1722 1.391 . S
C1724 C1725 1.400 . S
C1725 C1719 1.491 . S
C1725 C1724 1.400 . S
C1725 C1726 1.398 . S
C1726 H1714 0.950 . S
C1726 C1725 1.398 . S
C1726 C1727 1.391 . S
C1727 H1715 0.950 . S
C1727 C1723 1.393 . S
C1727 C1726 1.391 . S
C457 C9 0.377 . S
C463 C191 0.375 . S
C477 C359 1.619 . S
C483 C23 1.606 . S
C497 C37 0.328 . S
C503 C219 0.328 . S
C517 C51 1.642 . S
C523 C345 1.654 . S
C537 C65 2.390 . S
C543 C247 2.390 . S
C557 C79 1.586 . S
C563 C317 1.603 . S
C577 C93 2.292 . S
C583 C275 2.282 . S
C597 C443 0.795 . S
C603 C107 0.790 . S
C617 C303 2.394 . S
C623 C121 2.398 . S
C637 C135 1.586 . S
C643 C261 1.601 . S
C657 C331 2.283 . S
C663 C149 2.286 . S
C677 C163 1.648 . S
C683 C233 1.653 . S
C697 C205 1.618 . S
C703 C177 1.606 . S
C717 C289 0.783 . S
C723 C401 0.797 . S
C737 C415 0.375 . S
C743 C373 0.408 . S
C757 C429 0.325 . S
C763 C387 0.349 . S
C777 C8 1.558 . S
C783 C22 1.560 . S
C797 C34 1.698 . S
C803 C21 1.878 . S
C817 C50 1.671 . S
C823 C36 1.678 . S
C837 C49 1.532 . S
C843 C6 1.389 . S
C857 C105 1.961 . S
C863 C64 2.008 . S
C877 C76 1.198 . S
C883 C62 1.214 . S
C897 C91 1.738 . S
C903 C77 1.727 . S
C917 C92 1.494 . S
C923 C104 1.355 . S
C937 C134 1.792 . S
C943 C7 1.799 1_655 S
C957 C119 1.228 . S
C963 C48 1.129 . S
C977 C146 1.195 . S
C983 C20 1.198 . S
C997 C385 2.188 1_455 S
C1003 C106 2.236 . S
C1017 C400 2.235 . S
C1023 C35 2.189 . S
C1037 C160 1.113 . S
C1043 C63 1.234 . S
C1057 C90 1.162 . S
C1063 C174 1.186 . S
C1077 C202 1.615 . S
C1083 C188 1.625 . S
C1097 C218 1.457 . S
C1103 C203 1.397 . S
C1117 C230 1.755 . S
C1123 C216 1.766 . S
C1137 C190 1.557 . S
C1143 C231 1.504 . S
C1157 C246 1.736 . S
C1163 C288 1.737 . S
C1177 C245 1.235 . S
C1183 C258 1.198 . S
C1197 C274 1.692 . S
C1203 C260 1.691 . S
C1217 C273 1.472 . S
C1223 C286 1.407 . S
C1237 C189 1.472 . S
C1243 C315 1.453 . S
C1257 C300 1.773 . S
C1263 C232 1.922 . S
C1277 C328 1.498 . S
C1283 C204 1.606 . S
C1297 C427 1.437 . S
C1303 C287 1.430 . S
C1317 C441 1.441 . S
C1323 C217 1.430 . S
C1337 C244 1.793 . S
C1343 C344 1.928 . S
C1357 C358 1.600 . S
C1363 C272 1.501 . S
C1377 C176 1.556 . S
C1383 C372 1.560 . S
C1397 C384 1.724 . S
C1403 C175 1.870 . S
C1417 C162 1.667 . S
C1423 C386 1.676 . S
C1437 C161 1.518 . S
C1443 C370 1.426 . S
C1457 C120 2.010 . S
C1463 C399 1.947 . S
C1477 C132 1.176 . S
C1483 C118 1.227 . S
C1497 C147 1.740 . S
C1503 C133 1.708 . S
C1517 C148 1.490 . S
C1523 C398 1.379 . S
C1537 C371 1.789 . S
C1543 C78 1.799 . S
C1557 C356 1.642 . S
C1563 C412 1.606 . S
C1577 C357 1.422 . S
C1583 C428 1.467 . S
C1597 C426 1.765 . S
C1603 C342 1.755 . S
C1617 C343 1.507 . S
C1623 C414 1.558 . S
C1637 C442 1.742 . S
C1643 C302 1.742 . S
C1657 C301 1.209 . S
C1663 C314 1.155 . S
C1677 C330 1.693 . S
C1683 C316 1.694 . S
C1697 C329 1.481 . S
C1703 C440 1.422 . S
C1717 C413 1.478 . S
C1723 C259 1.477 . S
