# Generated by pormake.
# Topology wjg, (4)-cn, num edge types: 1
# Building blocks:
#     Node 0, Type 0, BuildingBlock: QUQFOY_clean_sbu_1, # of connection points: 4
#     Node 1, Type 0, BuildingBlock: QUQFOY_clean_sbu_1, # of connection points: 4
#     Node 2, Type 0, BuildingBlock: QUQFOY_clean_sbu_1, # of connection points: 4
#     Node 3, Type 0, BuildingBlock: QUQFOY_clean_sbu_1, # of connection points: 4
#     Node 4, Type 0, BuildingBlock: QUQFOY_clean_sbu_1, # of connection points: 4
#     Node 5, Type 0, BuildingBlock: QUQFOY_clean_sbu_1, # of connection points: 4
#     Node 6, Type 0, BuildingBlock: QUQFOY_clean_sbu_1, # of connection points: 4
#     Node 7, Type 0, BuildingBlock: QUQFOY_clean_sbu_1, # of connection points: 4
#     Node 8, Type 0, BuildingBlock: QUQFOY_clean_sbu_1, # of connection points: 4
#     Node 9, Type 0, BuildingBlock: QUQFOY_clean_sbu_1, # of connection points: 4
#     Node 10, Type 0, BuildingBlock: QUQFOY_clean_sbu_1, # of connection points: 4
#     Node 11, Type 0, BuildingBlock: QUQFOY_clean_sbu_1, # of connection points: 4
#     Edge 12, Type (0, 0), BuildingBlock: TEMPAE_clean_linker_10, # of connection points: 2
#     Edge 13, Type (0, 0), BuildingBlock: TEMPAE_clean_linker_10, # of connection points: 2
#     Edge 14, Type (0, 0), BuildingBlock: TEMPAE_clean_linker_10, # of connection points: 2
#     Edge 15, Type (0, 0), BuildingBlock: TEMPAE_clean_linker_10, # of connection points: 2
#     Edge 16, Type (0, 0), BuildingBlock: TEMPAE_clean_linker_10, # of connection points: 2
#     Edge 17, Type (0, 0), BuildingBlock: TEMPAE_clean_linker_10, # of connection points: 2
#     Edge 18, Type (0, 0), BuildingBlock: TEMPAE_clean_linker_10, # of connection points: 2
#     Edge 19, Type (0, 0), BuildingBlock: TEMPAE_clean_linker_10, # of connection points: 2
#     Edge 20, Type (0, 0), BuildingBlock: TEMPAE_clean_linker_10, # of connection points: 2
#     Edge 21, Type (0, 0), BuildingBlock: TEMPAE_clean_linker_10, # of connection points: 2
#     Edge 22, Type (0, 0), BuildingBlock: TEMPAE_clean_linker_10, # of connection points: 2
#     Edge 23, Type (0, 0), BuildingBlock: TEMPAE_clean_linker_10, # of connection points: 2
#     Edge 24, Type (0, 0), BuildingBlock: TEMPAE_clean_linker_10, # of connection points: 2
#     Edge 25, Type (0, 0), BuildingBlock: TEMPAE_clean_linker_10, # of connection points: 2
#     Edge 26, Type (0, 0), BuildingBlock: TEMPAE_clean_linker_10, # of connection points: 2
#     Edge 27, Type (0, 0), BuildingBlock: TEMPAE_clean_linker_10, # of connection points: 2
#     Edge 28, Type (0, 0), BuildingBlock: TEMPAE_clean_linker_10, # of connection points: 2
#     Edge 29, Type (0, 0), BuildingBlock: TEMPAE_clean_linker_10, # of connection points: 2
#     Edge 30, Type (0, 0), BuildingBlock: TEMPAE_clean_linker_10, # of connection points: 2
#     Edge 31, Type (0, 0), BuildingBlock: TEMPAE_clean_linker_10, # of connection points: 2
#     Edge 32, Type (0, 0), BuildingBlock: TEMPAE_clean_linker_10, # of connection points: 2
#     Edge 33, Type (0, 0), BuildingBlock: TEMPAE_clean_linker_10, # of connection points: 2
#     Edge 34, Type (0, 0), BuildingBlock: TEMPAE_clean_linker_10, # of connection points: 2
#     Edge 35, Type (0, 0), BuildingBlock: TEMPAE_clean_linker_10, # of connection points: 2
# Relax obj value: 0.297
# Max RMSD: 0.131
# Mean RMSD: 0.129
data_MOF--net-wjg--node1-QUQFOY_clean_sbu_1--edge1-TEMPAE_clean_linker_10
_symmetry_space_group_name_H-M    P1
_symmetry_Int_Tables_number       1
_symmetry_cell_setting            triclinic
loop_
_symmetry_equiv_pos_as_xyz
'x, y, z'
_cell_length_a     35.029461
_cell_length_b     34.920797
_cell_length_c     40.648547
_cell_angle_alpha  89.950746
_cell_angle_beta   90.003812
_cell_angle_gamma 120.28188
loop_
_atom_site_label
_atom_site_type_symbol
_atom_site_fract_x
_atom_site_fract_y
_atom_site_fract_z
_atom_type_partial_charge
O0 O 0.1143 0.30637 0.34278 0.0
Cd1 Cd 0.1086 0.36201 0.3414 0.0
Cd2 Cd 0.19194 0.3986 0.33069 0.0
O3 O 0.17467 0.33681 0.31254 0.0
O4 O 0.05335 0.35179 0.31829 0.0
O5 O 0.12049 0.38833 0.29629 0.0
C6 C 0.07825 0.37107 0.29301 0.0
C7 C 0.24535 0.46858 0.3133 0.0
C8 C 0.14381 0.30293 0.32706 0.0
C9 C 0.1642 0.40401 0.39844 0.0
O10 O 0.19201 0.4007 0.38057 0.0
O11 O 0.12735 0.39619 0.38628 0.0
O12 O 0.25571 0.43913 0.32093 0.0
O13 O 0.20398 0.45639 0.31113 0.0
O14 O 0.82087 0.10967 0.66965 0.0
Cd15 Cd 0.7566 0.09578 0.67338 0.0
Cd16 Cd 0.7949 0.18089 0.66001 0.0
O17 O 0.84381 0.17103 0.64121 0.0
O18 O 0.71638 0.03718 0.65239 0.0
O19 O 0.72821 0.10132 0.63211 0.0
C20 C 0.7105 0.05882 0.62894 0.0
C21 C 0.78823 0.2414 0.64348 0.0
C22 C 0.85114 0.14189 0.65358 0.0
C23 C 0.76645 0.14865 0.73043 0.0
O24 O 0.79056 0.17894 0.71021 0.0
O25 O 0.74256 0.10884 0.72047 0.0
O26 O 0.82402 0.24625 0.65605 0.0
O27 O 0.75708 0.20158 0.63698 0.0
O28 O 0.59651 0.79804 0.03871 0.0
Cd29 Cd 0.59306 0.79433 0.98868 0.0
Cd30 Cd 0.63478 0.75288 1.0002 0.0
O31 O 0.60822 0.74257 0.04765 0.0
O32 O 0.54815 0.81198 0.97974 0.0
O33 O 0.53509 0.74347 0.97319 0.0
C34 C 0.52029 0.77063 0.97457 0.0
C35 C 0.62532 0.70478 0.95718 0.0
C36 C 0.59853 0.77095 0.05842 0.0
C37 C 0.68733 0.84576 0.97647 0.0
O38 O 0.68765 0.81555 0.99368 0.0
O39 O 0.65079 0.8402 0.96555 0.0
O40 O 0.65129 0.71014 0.9816 0.0
O41 O 0.60151 0.72344 0.95897 0.0
O42 O 0.85385 0.68026 0.31746 0.0
Cd43 Cd 0.86277 0.62813 0.32853 0.0
Cd44 Cd 0.7819 0.58827 0.31304 0.0
O45 O 0.7967 0.64316 0.28498 0.0
O46 O 0.92412 0.64554 0.31434 0.0
O47 O 0.86377 0.59353 0.28943 0.0
C48 C 0.90638 0.61864 0.28978 0.0
C49 C 0.73251 0.51358 0.30411 0.0
C50 C 0.82589 0.67987 0.29737 0.0
C51 C 0.80416 0.60151 0.38431 0.0
O52 O 0.77857 0.59996 0.36164 0.0
O53 O 0.84146 0.6056 0.37673 0.0
O54 O 0.71952 0.54217 0.30386 0.0
O55 O 0.7745 0.52815 0.30496 0.0
O56 O 0.17926 0.86305 0.66223 0.0
Cd57 Cd 0.24434 0.88221 0.66983 0.0
Cd58 Cd 0.21189 0.79852 0.6603 0.0
O59 O 0.1627 0.80219 0.63516 0.0
O60 O 0.28051 0.94327 0.65124 0.0
O61 O 0.27909 0.88419 0.62979 0.0
C62 C 0.29158 0.9259 0.62766 0.0
C63 C 0.23697 0.7496 0.64904 0.0
C64 C 0.1519 0.82984 0.6454 0.0
C65 C 0.23011 0.83246 0.72986 0.0
O66 O 0.20689 0.80087 0.71027 0.0
O67 O 0.2556 0.87135 0.71853 0.0
O68 O 0.19587 0.73559 0.65465 0.0
O69 O 0.26347 0.7918 0.64626 0.0
O70 O 0.41002 0.24577 0.06152 0.0
Cd71 Cd 0.41442 0.22389 0.01576 0.0
Cd72 Cd 0.35197 0.25431 1.01196 0.0
O73 O 0.36903 0.27719 0.0598 0.0
O74 O 0.44523 0.1937 0.0336 0.0
O75 O 0.47677 0.2475 0.99741 0.0
C76 C 0.47973 0.22017 0.0171 0.0
C77 C 0.35572 0.29434 0.96465 0.0
C78 C 0.39291 0.26575 0.0758 0.0
C79 C 0.31918 0.15734 1.00353 0.0
O80 O 0.30974 0.18697 1.01073 0.0
O81 O 0.3591 0.1673 0.99916 0.0
O82 O 0.32432 0.28263 0.98595 0.0
O83 O 0.38667 0.28558 0.97126 0.0
O84 O 0.68109 0.87165 0.35712 0.0
Cd85 Cd 0.63141 0.88638 0.35698 0.0
Cd86 Cd 0.58512 0.80076 0.36402 0.0
O87 O 0.6431 0.80728 0.38203 0.0
O88 O 0.6544 0.9451 0.37892 0.0
O89 O 0.60112 0.88196 0.4 0.0
C90 C 0.62826 0.92412 0.40324 0.0
C91 C 0.51437 0.74445 0.37799 0.0
C92 C 0.67945 0.83784 0.37022 0.0
C93 C 0.59055 0.84037 0.29688 0.0
O94 O 0.58545 0.80787 0.31416 0.0
O95 O 0.60425 0.87818 0.31015 0.0
O96 O 0.54366 0.73573 0.36728 0.0
O97 O 0.52645 0.78522 0.38433 0.0
O98 O 0.80222 0.6835 0.68444 0.0
Cd99 Cd 0.7347 0.64399 0.68351 0.0
Cd100 Cd 0.76021 0.57749 0.67883 0.0
O101 O 0.81885 0.63135 0.69435 0.0
O102 O 0.70934 0.67404 0.70999 0.0
O103 O 0.70286 0.60973 0.7242 0.0
C104 C 0.69634 0.64217 0.73114 0.0
C105 C 0.76021 0.51015 0.67621 0.0
C106 C 0.83054 0.67199 0.69066 0.0
C107 C 0.71959 0.60234 0.61971 0.0
O108 O 0.73763 0.58311 0.63374 0.0
O109 O 0.71102 0.62833 0.63581 0.0
O110 O 0.7867 0.54417 0.65923 0.0
O111 O 0.73515 0.51466 0.69717 0.0
O112 O 0.18884 0.7799 0.9885 0.0
Cd113 Cd 0.19433 0.77775 0.03844 0.0
Cd114 Cd 0.10912 0.74369 0.03071 0.0
O115 O 0.11807 0.73141 0.98186 0.0
O116 O 0.25851 0.7982 0.04169 0.0
O117 O 0.20647 0.72952 0.05306 0.0
C118 C 0.24776 0.75806 0.04851 0.0
C119 C 0.06556 0.69653 0.07307 0.0
C120 C 0.15645 0.75629 0.9697 0.0
C121 C 0.16193 0.83731 0.05348 0.0
O122 O 0.12807 0.80904 0.03774 0.0
O123 O 0.19045 0.82735 0.06298 0.0
O124 O 0.04834 0.70786 0.04955 0.0
O125 O 0.10708 0.70882 0.07087 0.0
O126 O 0.30197 0.13183 0.37962 0.0
Cd127 Cd 0.35463 0.1235 0.36949 0.0
Cd128 Cd 0.39419 0.20511 0.38403 0.0
O129 O 0.33873 0.1902 0.41125 0.0
O130 O 0.3383 0.06255 0.38472 0.0
O131 O 0.38904 0.1241 0.4092 0.0
C132 C 0.36485 0.08129 0.40928 0.0
C133 C 0.46856 0.25378 0.39402 0.0
C134 C 0.30216 0.16015 0.39931 0.0
C135 C 0.38367 0.18207 0.31309 0.0
O136 O 0.38437 0.20819 0.33503 0.0
O137 O 0.37867 0.14454 0.32154 0.0
O138 O 0.44058 0.26749 0.39342 0.0
O139 O 0.45339 0.21153 0.39349 0.0
O140 O 0.1929 0.31495 0.6973 0.0
Cd141 Cd 0.25657 0.36664 0.69348 0.0
Cd142 Cd 0.21724 0.41099 0.70408 0.0
O143 O 0.16841 0.35254 0.72464 0.0
O144 O 0.2962 0.34723 0.71354 0.0
O145 O 0.28422 0.39827 0.73571 0.0
C146 C 0.30122 0.37296 0.73809 0.0
C147 C 0.23778 0.48281 0.71976 0.0
C148 C 0.16218 0.3159 0.71318 0.0
C149 C 0.24474 0.40684 0.63492 0.0
O150 O 0.218 0.41045 0.6539 0.0
O151 O 0.27066 0.39438 0.64637 0.0
O152 O 0.19756 0.45458 0.71198 0.0
O153 O 0.26543 0.46883 0.72258 0.0
O154 O 0.82309 0.21071 0.98379 0.0
Cd155 Cd 0.81946 0.20303 0.03363 0.0
Cd156 Cd 0.90557 0.2481 0.02254 0.0
O157 O 0.89165 0.26455 0.97649 0.0
O158 O 0.754 0.1683 0.03572 0.0
O159 O 0.79266 0.23492 0.05741 0.0
C160 C 0.75468 0.20189 0.04918 0.0
C161 C 0.93396 0.28959 0.07045 0.0
C162 C 0.85315 0.23866 0.96508 0.0
C163 C 0.86573 0.15297 0.03813 0.0
O164 O 0.897 0.18528 0.02273 0.0
O165 O 0.8352 0.15744 0.05123 0.0
O166 O 0.95998 0.29293 0.0466 0.0
O167 O 0.89175 0.26522 0.06602 0.0
C168 C 0.32218 0.53089 0.3044 0.0
C169 C 0.27926 0.5158 0.31585 0.0
C170 C 0.3573 0.57236 0.31414 0.0
C171 C 0.3495 0.59818 0.33715 0.0
C172 C 0.3058 0.58388 0.34762 0.0
C173 C 0.27104 0.54316 0.33631 0.0
C174 C 0.40315 0.58733 0.30127 0.0
C175 C 0.29618 0.60953 0.37291 0.0
C176 C 0.45129 0.66878 0.389 0.0
C177 C 0.46757 0.71048 0.37452 0.0
C178 C 0.41084 0.63258 0.37878 0.0
C179 C 0.38759 0.63792 0.35226 0.0
C180 C 0.40316 0.68052 0.33851 0.0
C181 C 0.44266 0.71652 0.35027 0.0
C182 C 0.39436 0.58809 0.39507 0.0
C183 C 0.38037 0.68743 0.3095 0.0
H184 H 0.32853 0.50949 0.28884 0.0
H185 H 0.23796 0.53097 0.34585 0.0
H186 H 0.41953 0.62254 0.29335 0.0
H187 H 0.42356 0.58492 0.32113 0.0
H188 H 0.40261 0.56684 0.28018 0.0
H189 H 0.26018 0.59689 0.37546 0.0
H190 H 0.30917 0.60672 0.39715 0.0
H191 H 0.31301 0.64525 0.36652 0.0
H192 H 0.47104 0.66413 0.40737 0.0
H193 H 0.45608 0.74863 0.33844 0.0
H194 H 0.39859 0.56567 0.37807 0.0
H195 H 0.35858 0.57241 0.40078 0.0
H196 H 0.41254 0.5909 0.41818 0.0
H197 H 0.38545 0.67195 0.28735 0.0
H198 H 0.39344 0.72315 0.30429 0.0
H199 H 0.34423 0.67117 0.31371 0.0
C200 C 0.81585 0.3217 0.65148 0.0
C201 C 0.7815 0.27989 0.64165 0.0
C202 C 0.8086 0.35722 0.65614 0.0
C203 C 0.76607 0.35111 0.65031 0.0
C204 C 0.73171 0.30966 0.63881 0.0
C205 C 0.73977 0.27434 0.63476 0.0
C206 C 0.84621 0.40094 0.66834 0.0
C207 C 0.68621 0.30231 0.63168 0.0
C208 C 0.74455 0.43467 0.69389 0.0
C209 C 0.75741 0.4673 0.66959 0.0
C210 C 0.74538 0.39548 0.68758 0.0
C211 C 0.75837 0.38868 0.65606 0.0
C212 C 0.76881 0.4205 0.63098 0.0
C213 C 0.76868 0.45959 0.63817 0.0
C214 C 0.73452 0.36244 0.71504 0.0
C215 C 0.78197 0.41418 0.5969 0.0
H216 H 0.84824 0.32636 0.65685 0.0
H217 H 0.71303 0.24208 0.62731 0.0
H218 H 0.85277 0.42775 0.65062 0.0
H219 H 0.83705 0.40971 0.69213 0.0
H220 H 0.87723 0.4001 0.67187 0.0
H221 H 0.66401 0.26916 0.62078 0.0
H222 H 0.67102 0.30527 0.65477 0.0
H223 H 0.68848 0.32813 0.61455 0.0
H224 H 0.73561 0.44055 0.71812 0.0
H225 H 0.77777 0.48443 0.61908 0.0
H226 H 0.76474 0.36166 0.72208 0.0
H227 H 0.70972 0.32862 0.70671 0.0
H228 H 0.72155 0.37075 0.73718 0.0
H229 H 0.81486 0.41682 0.59789 0.0
H230 H 0.78375 0.43929 0.5792 0.0
H231 H 0.7581 0.38066 0.58744 0.0
C232 C 0.45498 0.78006 0.96702 0.0
C233 C 0.47267 0.75438 0.97827 0.0
C234 C 0.4135 0.77181 0.97801 0.0
C235 C 0.39019 0.73836 1.00192 0.0
C236 C 0.4068 0.71068 1.01188 0.0
C237 C 0.4476 0.71859 0.99947 0.0
C238 C 0.39611 0.80094 0.96571 0.0
C239 C 0.38372 0.67546 0.03788 0.0
C240 C 0.32336 0.77034 0.05676 0.0
C241 C 0.28084 0.74442 0.04381 0.0
C242 C 0.35863 0.7658 0.04521 0.0
C243 C 0.35148 0.73616 0.01898 0.0
C244 C 0.30804 0.7082 1.00707 0.0
C245 C 0.27303 0.7122 0.02007 0.0
C246 C 0.40411 0.79497 0.05956 0.0
C247 C 0.29907 0.67706 0.97861 0.0
H248 H 0.4745 0.80789 0.95079 0.0
H249 H 0.46168 0.69926 1.00874 0.0
H250 H 0.36057 0.78058 0.95926 0.0
H251 H 0.39911 0.82426 0.98543 0.0
H252 H 0.41458 0.82062 0.94381 0.0
H253 H 0.39697 0.65253 0.03921 0.0
H254 H 0.38845 0.69166 0.06221 0.0
H255 H 0.34765 0.65583 0.03321 0.0
H256 H 0.32937 0.79557 0.07487 0.0
H257 H 0.24027 0.69294 1.00949 0.0
H258 H 0.42496 0.82126 0.04162 0.0
H259 H 0.42041 0.77533 0.06454 0.0
H260 H 0.40295 0.81113 0.08277 0.0
H261 H 0.31143 0.69666 0.95558 0.0
H262 H 0.26321 0.65299 0.97565 0.0
H263 H 0.31679 0.65846 0.98176 0.0
C264 C 0.5387 0.27421 0.36498 0.0
C265 C 0.51568 0.2856 0.38748 0.0
C266 C 0.57809 0.30698 0.35032 0.0
C267 C 0.59543 0.35195 0.35915 0.0
C268 C 0.57448 0.36298 0.38422 0.0
C269 C 0.5344 0.32975 0.39765 0.0
C270 C 0.59878 0.29382 0.32331 0.0
C271 C 0.59273 0.41033 0.39527 0.0
C272 C 0.71028 0.44388 0.33477 0.0
C273 C 0.70008 0.46665 0.31114 0.0
C274 C 0.67678 0.40506 0.34968 0.0
C275 C 0.6323 0.38806 0.33995 0.0
C276 C 0.62251 0.40868 0.31384 0.0
C277 C 0.65643 0.44821 0.30016 0.0
C278 C 0.68863 0.38473 0.37779 0.0
C279 C 0.57572 0.39072 0.30185 0.0
H280 H 0.52393 0.24019 0.3566 0.0
H281 H 0.51658 0.33863 0.41496 0.0
H282 H 0.59168 0.30384 0.2992 0.0
H283 H 0.63522 0.31105 0.32609 0.0
H284 H 0.58562 0.25747 0.32287 0.0
H285 H 0.57625 0.41252 0.41796 0.0
H286 H 0.62878 0.42638 0.39995 0.0
H287 H 0.58785 0.42943 0.37554 0.0
H288 H 0.74392 0.45848 0.34376 0.0
H289 H 0.64848 0.46588 0.282 0.0
H290 H 0.67101 0.34809 0.37568 0.0
H291 H 0.67821 0.39284 0.40131 0.0
H292 H 0.72475 0.39741 0.379 0.0
H293 H 0.55933 0.35439 0.29785 0.0
H294 H 0.57449 0.40675 0.27857 0.0
H295 H 0.55641 0.39658 0.32078 0.0
C296 C 0.2859 0.72802 0.67721 0.0
C297 C 0.25353 0.71868 0.6533 0.0
C298 C 0.29231 0.69423 0.68991 0.0
C299 C 0.26664 0.65056 0.67756 0.0
C300 C 0.2371 0.64216 0.65106 0.0
C301 C 0.23014 0.67614 0.63977 0.0
C302 C 0.32332 0.70448 0.71861 0.0
C303 C 0.21039 0.59647 0.63622 0.0
C304 C 0.2889 0.55719 0.69683 0.0
C305 C 0.25293 0.53044 0.71732 0.0
C306 C 0.2955 0.59787 0.68489 0.0
C307 C 0.26621 0.61256 0.69461 0.0
C308 C 0.23264 0.58767 0.71801 0.0
C309 C 0.22579 0.54638 0.72852 0.0
C310 C 0.331 0.6227 0.65946 0.0
C311 C 0.20176 0.603 0.73005 0.0
H312 H 0.30327 0.76077 0.6882 0.0
H313 H 0.20484 0.66892 0.62149 0.0
H314 H 0.30364 0.69136 0.74151 0.0
H315 H 0.34327 0.68816 0.71569 0.0
H316 H 0.34601 0.74072 0.72166 0.0
H317 H 0.19426 0.597 0.61283 0.0
H318 H 0.23171 0.58201 0.63142 0.0
H319 H 0.18428 0.57427 0.65379 0.0
H320 H 0.30936 0.54441 0.68758 0.0
H321 H 0.19779 0.52551 0.74418 0.0
H322 H 0.34866 0.6589 0.66419 0.0
H323 H 0.31541 0.61713 0.63482 0.0
H324 H 0.35548 0.61138 0.65878 0.0
H325 H 0.2206 0.63864 0.73679 0.0
H326 H 0.18219 0.58364 0.75172 0.0
H327 H 0.17846 0.59913 0.7101 0.0
C328 C 0.67553 0.17115 0.03478 0.0
C329 C 0.71388 0.20461 0.04999 0.0
C330 C 0.63858 0.17588 0.02987 0.0
C331 C 0.63951 0.21468 0.04102 0.0
C332 C 0.67734 0.24785 0.05765 0.0
C333 C 0.71431 0.24258 0.06173 0.0
C334 C 0.59895 0.1398 1.01191 0.0
C335 C 0.67903 0.28921 0.07052 0.0
C336 C 0.55685 0.24033 1.00071 0.0
C337 C 0.52155 0.22053 0.02294 0.0
C338 C 0.59612 0.23972 1.00663 0.0
C339 C 0.60023 0.21963 0.03573 0.0
C340 C 0.5652 0.201 0.05871 0.0
C341 C 0.52621 0.20132 0.05189 0.0
C342 C 0.63266 0.25935 0.98135 0.0
C343 C 0.56847 0.17985 0.09023 0.0
H344 H 0.67488 0.14176 0.02544 0.0
H345 H 0.74388 0.26865 0.07336 0.0
H346 H 0.56918 0.12642 0.02778 0.0
H347 H 0.5922 0.15369 0.98956 0.0
H348 H 0.60378 0.11194 1.00441 0.0
H349 H 0.71009 0.31091 0.08415 0.0
H350 H 0.67637 0.30837 0.04976 0.0
H351 H 0.65056 0.28018 0.0871 0.0
H352 H 0.55343 0.2554 0.97842 0.0
H353 H 0.49931 0.18661 0.0695 0.0
H354 H 0.63773 0.23286 0.97099 0.0
H355 H 0.66419 0.28407 0.99304 0.0
H356 H 0.62523 0.27564 0.96085 0.0
H357 H 0.57019 0.14971 0.08445 0.0
H358 H 0.53979 0.17026 0.10677 0.0
H359 H 0.59919 0.20295 0.10364 0.0
C360 C 0.12622 0.23537 0.35963 0.0
C361 C 0.14943 0.26435 0.33355 0.0
C362 C 0.1408 0.2082 0.37354 0.0
C363 C 0.17907 0.20978 0.36076 0.0
C364 C 0.19933 0.23487 0.332 0.0
C365 C 0.18427 0.26194 0.31875 0.0
C366 C 0.11771 0.1813 0.40376 0.0
C367 C 0.23948 0.23633 0.31695 0.0
C368 C 0.26653 0.20499 0.41149 0.0
C369 C 0.26279 0.16542 0.39999 0.0
C370 C 0.23637 0.21791 0.40142 0.0
C371 C 0.20185 0.19053 0.37945 0.0
C372 C 0.19447 0.14795 0.3715 0.0
C373 C 0.22494 0.13573 0.38209 0.0
C374 C 0.24438 0.26301 0.41144 0.0
C375 C 0.15743 0.11727 0.34886 0.0
H376 H 0.09889 0.23655 0.37109 0.0
H377 H 0.20194 0.28367 0.29829 0.0
H378 H 0.11712 0.14924 0.40396 0.0
H379 H 0.13587 0.20005 0.426 0.0
H380 H 0.08324 0.17465 0.40551 0.0
H381 H 0.24817 0.25333 0.29268 0.0
H382 H 0.26819 0.25432 0.33368 0.0
H383 H 0.23376 0.2023 0.31373 0.0
H384 H 0.29518 0.22781 0.4258 0.0
H385 H 0.22117 0.10455 0.37367 0.0
H386 H 0.21298 0.26103 0.4189 0.0
H387 H 0.25778 0.28597 0.39014 0.0
H388 H 0.26832 0.27733 0.43207 0.0
H389 H 0.12697 0.11861 0.3537 0.0
H390 H 0.14978 0.08242 0.35141 0.0
H391 H 0.16742 0.12778 0.32301 0.0
C392 C 0.90845 0.13102 0.68143 0.0
C393 C 0.89733 0.15182 0.65668 0.0
C394 C 0.9523 0.14917 0.69209 0.0
C395 C 0.98566 0.1886 0.67732 0.0
C396 C 0.97535 0.2067 0.64984 0.0
C397 C 0.93121 0.18812 0.63988 0.0
C398 C 0.96203 0.12851 0.72114 0.0
C399 C 0.0103 0.24806 0.63277 0.0
C400 C 0.08118 0.27936 0.72466 0.0
C401 C 0.11692 0.27696 0.71158 0.0
C402 C 0.03766 0.24839 0.71563 0.0
C403 C 0.02986 0.21443 0.6929 0.0
C404 C 0.06536 0.20925 0.68222 0.0
C405 C 0.10853 0.24048 0.69184 0.0
C406 C 0.0004 0.25427 0.72829 0.0
C407 C 0.0584 0.17321 0.65833 0.0
H408 H 0.88254 0.10272 0.69445 0.0
H409 H 0.92296 0.20399 0.62044 0.0
H410 H 0.99375 0.1291 0.71781 0.0
H411 H 0.96507 0.14786 0.74362 0.0
H412 H 0.93527 0.0937 0.72523 0.0
H413 H -0.00203 0.25469 0.60951 0.0
H414 H 0.02109 0.27701 0.64931 0.0
H415 H 0.03975 0.24521 0.62716 0.0
H416 H 0.08727 0.30706 0.74024 0.0
H417 H 0.13588 0.23796 0.68186 0.0
H418 H 0.97269 0.2222 0.7372 0.0
H419 H 0.98756 0.26587 0.70797 0.0
H420 H 0.01121 0.2788 0.74863 0.0
H421 H 0.02834 0.14135 0.66464 0.0
H422 H 0.0872 0.16805 0.65773 0.0
H423 H 0.05364 0.18267 0.63324 0.0
C424 C 0.87666 0.09838 1.00602 0.0
C425 C 0.8578 0.10758 0.03319 0.0
C426 C 0.85848 0.05496 0.99399 0.0
C427 C 0.82094 0.02022 1.00972 0.0
C428 C 0.80534 0.02863 0.03944 0.0
C429 C 0.824 0.07228 0.05083 0.0
C430 C 0.87676 0.04725 0.96269 0.0
C431 C 0.76604 0.99226 0.0575 0.0
C432 C 0.72499 0.927 0.96475 0.0
C433 C 0.72747 0.89035 0.97595 0.0
C434 C 0.75774 0.97024 0.97315 0.0
C435 C 0.79374 0.97681 0.99311 0.0
C436 C 0.79905 0.9404 1.00114 0.0
C437 C 0.76584 0.89751 0.99238 0.0
C438 C 0.75148 0.00844 0.96334 0.0
C439 C 0.83747 0.9461 0.02167 0.0
H440 H 0.90303 0.12543 0.99231 0.0
H441 H 0.80974 0.0791 0.07212 0.0
H442 H 0.87568 0.01495 0.96331 0.0
H443 H 0.85633 0.04657 0.94159 0.0
H444 H 0.91138 0.07407 0.95825 0.0
H445 H 0.76132 0.00323 0.08205 0.0
H446 H 0.73565 0.98166 0.04276 0.0
H447 H 0.76996 0.9629 0.06082 0.0
H448 H 0.69584 0.92188 0.95164 0.0
H449 H 0.76851 0.86943 1.00066 0.0
H450 H 0.7827 0.03626 0.95342 0.0
H451 H 0.74232 0.02086 0.98535 0.0
H452 H 0.72511 -0.00139 0.94456 0.0
H453 H 0.86851 0.9766 1.01462 0.0
H454 H 0.84239 0.91718 0.01929 0.0
H455 H 0.83092 0.94932 0.04794 0.0
C456 C 0.74685 0.85309 0.33894 0.0
C457 C 0.71571 0.82884 0.36359 0.0
C458 C 0.77321 0.83762 0.32509 0.0
C459 C 0.76895 0.79752 0.33669 0.0
C460 C 0.74099 0.7754 0.36385 0.0
C461 C 0.7144 0.79116 0.37684 0.0
C462 C 0.80257 0.8622 0.29622 0.0
C463 C 0.73678 0.73327 0.3777 0.0
C464 C 0.78026 0.7145 0.28454 0.0
C465 C 0.81925 0.71852 0.29737 0.0
C466 C 0.76542 0.74308 0.29491 0.0
C467 C 0.79007 0.77601 0.31877 0.0
C468 C 0.83205 0.78371 0.32854 0.0
C469 C 0.84645 0.7552 0.31733 0.0
C470 C 0.72125 0.73512 0.28284 0.0
C471 C 0.85959 0.81875 0.35363 0.0
H472 H 0.74828 0.88238 0.32854 0.0
H473 H 0.69078 0.77251 0.39607 0.0
H474 H 0.83463 0.86314 0.29775 0.0
H475 H 0.7861 0.84467 0.27315 0.0
H476 H 0.80903 0.89673 0.29455 0.0
H477 H 0.71753 0.72296 0.40098 0.0
H478 H 0.71992 0.70608 0.35952 0.0
H479 H 0.76995 0.73764 0.3824 0.0
H480 H 0.75936 0.68676 0.26868 0.0
H481 H 0.87717 0.75921 0.32688 0.0
H482 H 0.72317 0.76696 0.27652 0.0
H483 H 0.6963 0.71926 0.30268 0.0
H484 H 0.70958 0.71316 0.26092 0.0
H485 H 0.859 0.84978 0.34916 0.0
H486 H 0.89449 0.82648 0.35358 0.0
H487 H 0.84564 0.80658 0.37851 0.0
C488 C 0.09052 0.83897 0.66714 0.0
C489 C 0.10496 0.81798 0.64503 0.0
C490 C 0.04553 0.8209 0.67422 0.0
C491 C 0.01422 0.78161 0.65815 0.0
C492 C 0.0282 0.76286 0.63338 0.0
C493 C 0.07355 0.78104 0.62732 0.0
C494 C 0.03203 0.84168 0.70098 0.0
C495 C 0.99551 0.72176 0.61491 0.0
C496 C 0.90975 0.69718 0.70178 0.0
C497 C 0.87799 0.7048 0.68719 0.0
C498 C 0.9546 0.72349 0.69366 0.0
C499 C 0.96768 0.75737 0.66971 0.0
C500 C 0.936 0.76641 0.65591 0.0
C501 C 0.89153 0.74031 0.66514 0.0
C502 C 0.98772 0.71378 0.70969 0.0
C503 C 0.94856 0.8017 0.62992 0.0
H504 H 0.1145 0.86765 0.68092 0.0
H505 H 0.08442 0.76491 0.60999 0.0
H506 H 0.00311 0.84436 0.69325 0.0
H507 H 0.02211 0.82026 0.72319 0.0
H508 H 0.05935 0.87519 0.70786 0.0
H509 H 0.0109 0.71509 0.59343 0.0
H510 H 0.98209 0.69269 0.63163 0.0
H511 H 0.96725 0.725 0.60618 0.0
H512 H 0.89935 0.66979 0.71884 0.0
H513 H 0.86698 0.74596 0.65343 0.0
H514 H 0.01579 0.7447 0.71981 0.0
H515 H 0.00136 0.70072 0.69105 0.0
H516 H 0.9728 0.68909 0.72988 0.0
H517 H 0.97764 0.83339 0.63783 0.0
H518 H 0.92099 0.8077 0.62418 0.0
H519 H 0.95798 0.79125 0.607 0.0
C520 C 0.29085 0.07734 0.9921 0.0
C521 C 0.28508 0.11017 1.00705 0.0
C522 C 0.26412 0.03264 1.00083 0.0
C523 C 0.23168 0.02077 0.02569 0.0
C524 C 0.22413 0.05347 0.03959 0.0
C525 C 0.25064 0.09781 0.0298 0.0
C526 C 0.2722 -0.00158 0.98467 0.0
C527 C 0.19031 0.04223 0.06645 0.0
C528 C 0.15077 0.89767 0.03176 0.0
C529 C 0.1732 0.88424 0.05331 0.0
C530 C 0.16807 0.9425 0.02386 0.0
C531 C 0.20813 0.97466 0.03849 0.0
C532 C 0.2284 0.96177 0.06284 0.0
C533 C 0.21089 0.91658 0.06977 0.0
C534 C 0.14558 0.95483 0.99766 0.0
C535 C 0.27042 0.9954 0.0798 0.0
H536 H 0.31736 0.08682 0.97446 0.0
H537 H 0.24637 0.12315 0.04174 0.0
H538 H 0.28629 0.9853 1.00291 0.0
H539 H 0.24059 0.97006 0.9758 0.0
H540 H 0.29542 0.01235 0.96356 0.0
H541 H 0.18436 0.07006 0.0715 0.0
H542 H 0.15844 0.01241 0.0599 0.0
H543 H 0.2022 0.03449 0.08942 0.0
H544 H 0.12148 0.87299 0.01897 0.0
H545 H 0.22813 0.90651 0.08669 0.0
H546 H 0.16515 0.96322 0.9746 0.0
H547 H 0.14386 0.98449 1.00501 0.0
H548 H 0.11159 0.92728 0.9924 0.0
H549 H 0.29834 0.00824 0.06212 0.0
H550 H 0.27848 0.98091 0.10118 0.0
H551 H 0.26761 0.02402 0.0884 0.0
C552 C 0.93473 0.2809 0.13113 0.0
C553 C 0.95206 0.30808 0.10333 0.0
C554 C 0.95502 0.29477 0.16208 0.0
C555 C 0.99243 0.33779 0.16573 0.0
C556 C 0.00834 0.36642 0.13803 0.0
C557 C 0.98873 0.35077 0.10695 0.0
C558 C 0.93798 0.26231 0.1904 0.0
C559 C 0.0467 0.41322 0.14105 0.0
C560 C 0.02307 0.3744 0.25518 0.0
C561 C 0.05879 0.36755 0.26001 0.0
C562 C 0.00279 0.36751 0.22405 0.0
C563 C 0.01698 0.35096 0.19774 0.0
C564 C 0.05318 0.34414 0.20269 0.0
C565 C 0.07422 0.35353 0.23347 0.0
C566 C 0.96583 0.37732 0.21946 0.0
C567 C 0.06836 0.3248 0.17597 0.0
H568 H 0.90674 0.24763 0.12826 0.0
H569 H 0.00211 0.37187 0.08547 0.0
H570 H 0.96425 0.25566 0.1988 0.0
H571 H 0.92938 0.27655 0.21154 0.0
H572 H 0.90835 0.23029 0.1836 0.0
H573 H 0.05033 0.43335 0.11884 0.0
H574 H 0.04239 0.42974 0.16289 0.0
H575 H 0.07781 0.41265 0.14452 0.0
H576 H 0.01116 0.38533 0.27568 0.0
H577 H 0.10145 0.34759 0.23732 0.0
H578 H 0.93393 0.34588 0.21677 0.0
H579 H 0.97113 0.39689 0.19665 0.0
H580 H 0.96308 0.39594 0.2406 0.0
H581 H 0.04061 0.29184 0.16856 0.0
H582 H 0.0965 0.32081 0.18395 0.0
H583 H 0.07862 0.34632 0.15387 0.0
C584 C 0.68823 0.99756 0.58819 0.0
C585 C 0.68853 0.03632 0.59772 0.0
C586 C 0.674 0.97932 0.55667 0.0
C587 C 0.65834 -0.00054 0.53431 0.0
C588 C 0.656 0.03704 0.54455 0.0
C589 C 0.67186 0.05549 0.57589 0.0
C590 C 0.67815 0.93992 0.54667 0.0
C591 C 0.6381 0.05863 0.52201 0.0
C592 C 0.67378 0.98413 0.44348 0.0
C593 C 0.63317 0.94669 0.43529 0.0
C594 C 0.68193 0.00222 0.47533 0.0
C595 C 0.6482 0.98335 0.4995 0.0
C596 C 0.6062 0.94717 0.4908 0.0
C597 C 0.59943 0.92876 0.459 0.0
C598 C 0.72752 0.04006 0.48358 0.0
C599 C 0.56884 0.92704 0.51538 0.0
H600 H 0.70142 0.98275 0.60476 0.0
H601 H 0.67181 0.08534 0.58313 0.0
H602 H 0.64595 0.91266 0.53771 0.0
H603 H 0.7021 0.94947 0.52609 0.0
H604 H 0.68951 0.92717 0.56725 0.0
H605 H 0.63266 0.08339 0.53511 0.0
H606 H 0.66172 0.07567 0.50159 0.0
H607 H 0.6064 0.03322 0.51089 0.0
H608 H 0.70019 -0.00204 0.42546 0.0
H609 H 0.56791 0.89992 0.45283 0.0
H610 H 0.74267 0.02932 0.50278 0.0
H611 H 0.72542 0.0684 0.49373 0.0
H612 H 0.74976 0.05177 0.46182 0.0
H613 H 0.57613 0.9091 0.53462 0.0
H614 H 0.53682 0.90336 0.50366 0.0
H615 H 0.5654 0.95341 0.52785 0.0
C616 C 0.66484 0.67988 0.91925 0.0
C617 C 0.62748 0.68343 0.92612 0.0
C618 C 0.67198 0.66814 0.88771 0.0
C619 C 0.6405 0.65865 0.86248 0.0
C620 C 0.60116 0.65904 0.86995 0.0
C621 C 0.59539 0.67199 0.90151 0.0
C622 C 0.71472 0.6689 0.88085 0.0
C623 C 0.56612 0.64789 0.84414 0.0
C624 C 0.68546 0.68595 0.77504 0.0
C625 C 0.67801 0.64487 0.76354 0.0
C626 C 0.67278 0.6906 0.80691 0.0
C627 C 0.65106 0.65303 0.82774 0.0
C628 C 0.64171 0.61104 0.81579 0.0
C629 C 0.65584 0.60755 0.78401 0.0
C630 C 0.68419 0.73617 0.81871 0.0
C631 C 0.61757 0.56996 0.83681 0.0
H632 H 0.68998 0.68892 0.93798 0.0
H633 H 0.56633 0.67446 0.9066 0.0
H634 H 0.70805 0.63755 0.86896 0.0
H635 H 0.73509 0.69629 0.8635 0.0
H636 H 0.73428 0.67373 0.90356 0.0
H637 H 0.53493 0.64322 0.85495 0.0
H638 H 0.57829 0.6751 0.8258 0.0
H639 H 0.55888 0.61724 0.83079 0.0
H640 H 0.70283 0.71505 0.75954 0.0
H641 H 0.64979 0.57564 0.77529 0.0
H642 H 0.70648 0.7456 0.84034 0.0
H643 H 0.65385 0.73602 0.82672 0.0
H644 H 0.70071 0.76193 0.79939 0.0
H645 H 0.63847 0.57231 0.85807 0.0
H646 H 0.60895 0.53929 0.82287 0.0
H647 H 0.58677 0.56714 0.84681 0.0
C648 C 0.05439 0.65504 0.12636 0.0
C649 C 0.03978 0.67497 0.10345 0.0
C650 C 0.03296 0.6396 0.15696 0.0
C651 C -0.00303 0.64552 0.16534 0.0
C652 C 0.98142 0.66454 0.14189 0.0
C653 C 0.00256 0.6784 0.11119 0.0
C654 C 0.0497 0.61816 0.1807 0.0
C655 C 0.94381 0.67242 0.14984 0.0
C656 C 0.91631 0.58829 0.23629 0.0
C657 C 0.93328 0.62146 0.26051 0.0
C658 C 0.93828 0.59435 0.20599 0.0
C659 C 0.97742 0.6351 0.19926 0.0
C660 C 0.99563 0.66787 0.2242 0.0
C661 C 0.97372 0.6604 0.25458 0.0
C662 C 0.91848 0.55788 0.18063 0.0
C663 C 0.03673 0.71216 0.21806 0.0
H664 H 0.08303 0.65212 0.1206 0.0
H665 H 0.99119 0.69407 0.09383 0.0
H666 H 0.06617 0.64067 0.2018 0.0
H667 H 0.02175 0.58702 0.19069 0.0
H668 H 0.07375 0.61054 0.16896 0.0
H669 H 0.93494 0.68657 0.12868 0.0
H670 H 0.9141 0.64093 0.15727 0.0
H671 H 0.95314 0.69565 0.17091 0.0
H672 H 0.88517 0.55803 0.24064 0.0
H673 H 0.98697 0.68642 0.27296 0.0
H674 H 0.94446 0.55262 0.16959 0.0
H675 H 0.90367 0.56753 0.16047 0.0
H676 H 0.89234 0.52606 0.19129 0.0
H677 H 0.06396 0.70743 0.2091 0.0
H678 H 0.0481 0.73314 0.2405 0.0
H679 H 0.02998 0.73029 0.19861 0.0
C680 C 0.32428 0.01457 0.44544 0.0
C681 C 0.36273 0.05522 0.43895 0.0
C682 C 0.31755 0.99337 0.47611 0.0
C683 C 0.35058 0.01254 0.50075 0.0
C684 C 0.39082 0.05194 0.49348 0.0
C685 C 0.39613 0.07319 0.46291 0.0
C686 C 0.27376 0.95196 0.48284 0.0
C687 C 0.42755 0.07274 0.51851 0.0
C688 C 0.30883 0.98856 0.58919 0.0
C689 C 0.31281 0.95161 0.59718 0.0
C690 C 0.32204 0.00929 0.55828 0.0
C691 C 0.34098 0.99362 0.53489 0.0
C692 C 0.34754 0.958 0.54354 0.0
C693 C 0.33271 0.93694 0.57434 0.0
C694 C 0.31348 0.04649 0.55004 0.0
C695 C 0.36896 0.94121 0.51988 0.0
H696 H 0.2981 0.00058 0.42726 0.0
H697 H 0.426 0.10452 0.4581 0.0
H698 H 0.27904 0.92507 0.49197 0.0
H699 H 0.25585 0.95883 0.50235 0.0
H700 H 0.25244 0.93993 0.46062 0.0
H701 H 0.45894 0.09903 0.50748 0.0
H702 H 0.41795 0.08775 0.53855 0.0
H703 H 0.43342 0.04721 0.52979 0.0
H704 H 0.29315 -7e-05 0.6065 0.0
H705 H 0.33604 0.9085 0.58031 0.0
H706 H 0.2899 0.03644 0.52918 0.0
H707 H 0.34454 0.07635 0.54216 0.0
H708 H 0.29956 0.05558 0.57119 0.0
H709 H 0.34623 0.92399 0.49905 0.0
H710 H 0.37723 0.91768 0.53182 0.0
H711 H 0.39962 0.96931 0.50947 0.0
C712 C 0.3137 0.30812 0.92096 0.0
C713 C 0.354 0.31374 0.93243 0.0
C714 C 0.30983 0.32171 0.88917 0.0
C715 C 0.34744 0.34256 0.86843 0.0
C716 C 0.38872 0.35016 0.88039 0.0
C717 C 0.39138 0.3351 0.91205 0.0
C718 C 0.26496 0.3121 0.87734 0.0
C719 C 0.42987 0.37338 0.8595 0.0
C720 C 0.32201 0.33052 0.77665 0.0
C721 C 0.3205 0.36912 0.76971 0.0
C722 C 0.33234 0.32226 0.80834 0.0
C723 C 0.34255 0.35384 0.83368 0.0
C724 C 0.34399 0.39423 0.82624 0.0
C725 C 0.33235 0.40111 0.79451 0.0
C726 C 0.32955 0.2784 0.81518 0.0
C727 C 0.35598 0.42938 0.85218 0.0
H728 H 0.28454 0.29138 0.93638 0.0
H729 H 0.4227 0.33976 0.92075 0.0
H730 H 0.26646 0.34321 0.86937 0.0
H731 H 0.25483 0.28975 0.85568 0.0
H732 H 0.23913 0.29624 0.89663 0.0
H733 H 0.4601 0.38085 0.87349 0.0
H734 H 0.42684 0.35225 0.83816 0.0
H735 H 0.4339 0.40484 0.8496 0.0
H736 H 0.31259 0.30542 0.75778 0.0
H737 H 0.33143 0.4311 0.78936 0.0
H738 H 0.30204 0.25881 0.83259 0.0
H739 H 0.3604 0.28376 0.82698 0.0
H740 H 0.32381 0.25854 0.79247 0.0
H741 H 0.32883 0.4178 0.87042 0.0
H742 H 0.36175 0.46116 0.84147 0.0
H743 H 0.38614 0.43554 0.86561 0.0
C744 C 0.14435 0.38984 0.45815 0.0
C745 C 0.17529 0.41399 0.43361 0.0
C746 C 0.15784 0.39177 0.49105 0.0
C747 C 0.20313 0.41895 0.49945 0.0
C748 C 0.23388 0.44546 0.47498 0.0
C749 C 0.21963 0.44238 0.44237 0.0
C750 C 0.12406 0.36302 0.51649 0.0
C751 C 0.2822 0.47563 0.48292 0.0
C752 C 0.22982 0.44562 0.58997 0.0
C753 C 0.2421 0.41466 0.59946 0.0
C754 C 0.2184 0.44831 0.55735 0.0
C755 C 0.21859 0.41884 0.53362 0.0
C756 C 0.23278 0.38872 0.54273 0.0
C757 C 0.24473 0.38721 0.57559 0.0
C758 C 0.20456 0.48162 0.5486 0.0
C759 C 0.23343 0.35675 0.51808 0.0
H760 H 0.11023 0.36738 0.45132 0.0
H761 H 0.24364 0.46109 0.42334 0.0
H762 H 0.13214 0.33814 0.526 0.0
H763 H 0.12496 0.38344 0.53768 0.0
H764 H 0.08996 0.34528 0.50636 0.0
H765 H 0.30102 0.49687 0.4617 0.0
H766 H 0.28598 0.4973 0.50409 0.0
H767 H 0.29718 0.45543 0.49012 0.0
H768 H 0.22787 0.46701 0.60841 0.0
H769 H 0.25363 0.36288 0.58295 0.0
H770 H 0.16913 0.46398 0.54159 0.0
H771 H 0.22365 0.50171 0.52707 0.0
H772 H 0.20942 0.50436 0.56933 0.0
H773 H 0.19938 0.3341 0.50904 0.0
H774 H 0.24669 0.3365 0.52873 0.0
H775 H 0.25383 0.37507 0.49646 0.0
C776 C 0.87261 0.23975 0.90556 0.0
C777 C 0.84241 0.23615 0.92966 0.0
C778 C 0.85866 0.22638 0.87293 0.0
C779 C 0.81365 0.20946 0.86436 0.0
C780 C 0.7838 0.20837 0.88825 0.0
C781 C 0.79851 0.22158 0.92055 0.0
C782 C 0.89155 0.22834 0.84803 0.0
C783 C 0.73581 0.19139 0.88011 0.0
C784 C 0.78543 0.20551 0.77382 0.0
C785 C 0.77087 0.16115 0.76564 0.0
C786 C 0.79868 0.22142 0.80588 0.0
C787 C 0.79751 0.19232 0.83056 0.0
C788 C 0.78096 0.14696 0.82289 0.0
C789 C 0.76765 0.13182 0.79046 0.0
C790 C 0.81538 0.26978 0.81303 0.0
C791 C 0.77894 0.11485 0.84866 0.0
H792 H 0.90635 0.25034 0.9126 0.0
H793 H 0.77504 0.21876 0.93917 0.0
H794 H 0.88181 0.19425 0.83998 0.0
H795 H 0.89156 0.24693 0.82588 0.0
H796 H 0.92566 0.24434 0.85808 0.0
H797 H 0.7176 0.19539 0.90095 0.0
H798 H 0.73309 0.20912 0.85839 0.0
H799 H 0.71942 0.15569 0.87366 0.0
H800 H 0.78785 0.22837 0.75474 0.0
H801 H 0.75695 0.09769 0.78421 0.0
H802 H 0.85073 0.28641 0.82023 0.0
H803 H 0.79696 0.27305 0.834 0.0
H804 H 0.81212 0.28751 0.79148 0.0
H805 H 0.81278 0.12548 0.85759 0.0
H806 H 0.76392 0.08046 0.8391 0.0
H807 H 0.75941 0.11486 0.87015 0.0
C808 C 0.61362 0.86492 0.23872 0.0
C809 C 0.58416 0.83318 0.26101 0.0
C810 C 0.61397 0.85384 0.20545 0.0
C811 C 0.58381 0.81026 0.19437 0.0
C812 C 0.55233 0.77903 0.21648 0.0
C813 C 0.55305 0.79081 0.24951 0.0
C814 C 0.64797 0.88808 0.18254 0.0
C815 C 0.51901 0.73255 0.20561 0.0
C816 C 0.56387 0.79242 0.10248 0.0
C817 C 0.59095 0.77508 0.09372 0.0
C818 C 0.56063 0.80321 0.13515 0.0
C819 C 0.58548 0.79701 0.15978 0.0
C820 C 0.61182 0.77813 0.15134 0.0
C821 C 0.61401 0.76706 0.11835 0.0
C822 C 0.53142 0.82227 0.14313 0.0
C823 C 0.63874 0.77097 0.17701 0.0
H824 H 0.63812 0.89743 0.24766 0.0
H825 H 0.53019 0.76618 0.26675 0.0
H826 H 0.67075 0.87681 0.17392 0.0
H827 H 0.6316 0.892 0.16048 0.0
H828 H 0.66776 0.92094 0.19456 0.0
H829 H 0.49483 0.7133 0.22529 0.0
H830 H 0.50066 0.73357 0.1837 0.0
H831 H 0.5364 0.71467 0.1984 0.0
H832 H 0.5457 0.7984 0.08352 0.0
H833 H 0.63526 0.75407 0.11162 0.0
H834 H 0.5519 0.85664 0.15241 0.0
H835 H 0.5077 0.80261 0.16289 0.0
H836 H 0.51248 0.82284 0.12139 0.0
H837 H 0.66301 0.80323 0.18815 0.0
H838 H 0.6569 0.75529 0.16662 0.0
H839 H 0.61693 0.74963 0.1971 0.0
C840 C 0.74595 0.59091 0.42459 0.0
C841 C 0.78938 0.59997 0.41885 0.0
C842 C 0.73075 0.59154 0.45632 0.0
C843 C 0.75946 0.60128 0.48337 0.0
C844 C 0.80325 0.61009 0.47801 0.0
C845 C 0.81774 0.60931 0.44576 0.0
C846 C 0.68382 0.58168 0.46086 0.0
C847 C 0.83476 0.62043 0.50638 0.0
C848 C 0.73423 0.63861 0.56461 0.0
C849 C 0.71768 0.59981 0.58343 0.0
C850 C 0.74706 0.63942 0.53165 0.0
C851 C 0.74291 0.60046 0.51732 0.0
C852 C 0.72316 0.5605 0.53558 0.0
C853 C 0.71088 0.56071 0.56836 0.0
C854 C 0.76755 0.68258 0.51285 0.0
C855 C 0.71736 0.51803 0.52115 0.0
H856 H 0.72346 0.58342 0.40411 0.0
H857 H 0.85129 0.61653 0.44161 0.0
H858 H 0.6653 0.55205 0.47675 0.0
H859 H 0.68374 0.60982 0.47344 0.0
H860 H 0.66591 0.57555 0.43713 0.0
H861 H 0.86785 0.62725 0.49815 0.0
H862 H 0.83871 0.6497 0.52005 0.0
H863 H 0.82104 0.59213 0.52385 0.0
H864 H 0.74045 0.6691 0.57634 0.0
H865 H 0.69845 0.53074 0.58297 0.0
H866 H 0.75114 0.67779 0.48864 0.0
H867 H 0.80291 0.69412 0.50805 0.0
H868 H 0.76534 0.70893 0.52651 0.0
H869 H 0.69946 0.51064 0.49738 0.0
H870 H 0.69892 0.48925 0.53788 0.0
H871 H 0.75025 0.52188 0.5161 0.0
C872 C 0.13301 0.75764 0.91136 0.0
C873 C 0.16496 0.76112 0.93379 0.0
C874 C 0.1441 0.76963 0.8781 0.0
C875 C 0.18796 0.78493 0.86713 0.0
C876 C 0.21973 0.78676 0.8895 0.0
C877 C 0.2079 0.77502 0.92246 0.0
C878 C 0.10928 0.76713 0.8549 0.0
C879 C 0.26657 0.80198 0.87881 0.0
C880 C 0.20782 0.77857 0.77602 0.0
C881 C 0.22432 0.82254 0.7656 0.0
C882 C 0.19608 0.76605 0.80889 0.0
C883 C 0.20065 0.79818 0.83213 0.0
C884 C 0.21836 0.84293 0.82204 0.0
C885 C 0.23024 0.85468 0.78885 0.0
C886 C 0.17817 0.7182 0.81861 0.0
C887 C 0.22384 0.87816 0.84619 0.0
H888 H 0.09997 0.74743 0.92005 0.0
H889 H 0.23274 0.77756 0.93967 0.0
H890 H 0.11978 0.80062 0.84497 0.0
H891 H 0.10545 0.74552 0.83368 0.0
H892 H 0.07665 0.75404 0.8671 0.0
H893 H 0.28697 0.80037 0.8991 0.0
H894 H 0.26649 0.78119 0.85816 0.0
H895 H 0.28252 0.83665 0.86974 0.0
H896 H 0.2034 0.75354 0.75823 0.0
H897 H 0.24254 0.88855 0.7809 0.0
H898 H 0.14411 0.70402 0.82837 0.0
H899 H 0.19868 0.71605 0.83852 0.0
H900 H 0.17747 0.69746 0.79764 0.0
H901 H 0.19128 0.86923 0.85697 0.0
H902 H 0.23819 0.91139 0.83455 0.0
H903 H 0.24558 0.88013 0.86675 0.0
C904 C 0.402 0.2415 0.27165 0.0
C905 C 0.38779 0.19671 0.27826 0.0
C906 C 0.40347 0.25676 0.23954 0.0
C907 C 0.39048 0.22662 0.21305 0.0
C908 C 0.37669 0.18144 0.21931 0.0
C909 C 0.37561 0.16698 0.2519 0.0
C910 C 0.41887 0.30522 0.23402 0.0
C911 C 0.36278 0.14836 0.19158 0.0
C912 C 0.35781 0.25536 0.13111 0.0
C913 C 0.39558 0.26736 0.11211 0.0
C914 C 0.35594 0.24295 0.16432 0.0
C915 C 0.3928 0.24287 0.17874 0.0
C916 C 0.43201 0.25798 0.16021 0.0
C917 C 0.43287 0.26996 0.12718 0.0
C918 C 0.31368 0.22746 0.18341 0.0
C919 C 0.47233 0.2592 0.17469 0.0
H920 H 0.41189 0.26499 0.29175 0.0
H921 H 0.36443 0.13238 0.25677 0.0
H922 H 0.44823 0.32029 0.21767 0.0
H923 H 0.39258 0.30865 0.22153 0.0
H924 H 0.42762 0.32434 0.25736 0.0
H925 H 0.3525 0.11442 0.20049 0.0
H926 H 0.33485 0.14729 0.17789 0.0
H927 H 0.39047 0.15881 0.17394 0.0
H928 H 0.32864 0.25246 0.11943 0.0
H929 H 0.46207 0.27898 0.11248 0.0
H930 H 0.32067 0.24544 0.20714 0.0
H931 H 0.2987 0.19167 0.18922 0.0
H932 H 0.28919 0.2324 0.1695 0.0
H933 H 0.48189 0.27812 0.19808 0.0
H934 H 0.50107 0.27446 0.15767 0.0
H935 H 0.46463 0.22497 0.18047 0.0
loop_
_geom_bond_atom_site_label_1
_geom_bond_atom_site_label_2
_geom_bond_distance
_geom_bond_site_symmetry_2
_ccdc_geom_bond_type
O0 Cd1 2.223 . S
O0 C8 1.315 . S
Cd1 O0 2.223 . S
Cd1 O4 2.297 . S
Cd1 O5 2.439 . S
Cd1 O11 2.240 . S
Cd2 O3 2.240 . S
Cd2 O10 2.223 . S
Cd2 O12 2.297 . S
Cd2 O13 2.439 . S
O3 Cd2 2.240 . S
O3 C8 1.279 . S
O4 Cd1 2.297 . S
O4 C6 1.247 . S
O5 Cd1 2.439 . S
O5 C6 1.208 . S
C6 O4 1.247 . S
C6 O5 1.208 . S
C7 O12 1.247 . S
C7 O13 1.208 . S
C8 O0 1.315 . S
C8 O3 1.279 . S
C9 O10 1.315 . S
C9 O11 1.279 . S
O10 Cd2 2.223 . S
O10 C9 1.315 . S
O11 Cd1 2.240 . S
O11 C9 1.279 . S
O12 Cd2 2.297 . S
O12 C7 1.247 . S
O13 Cd2 2.439 . S
O13 C7 1.208 . S
O14 Cd15 2.223 . S
O14 C22 1.315 . S
Cd15 O14 2.223 . S
Cd15 O18 2.297 . S
Cd15 O19 2.439 . S
Cd15 O25 2.240 . S
Cd16 O17 2.240 . S
Cd16 O24 2.223 . S
Cd16 O26 2.297 . S
Cd16 O27 2.439 . S
O17 Cd16 2.240 . S
O17 C22 1.279 . S
O18 Cd15 2.297 . S
O18 C20 1.247 . S
O19 Cd15 2.439 . S
O19 C20 1.208 . S
C20 O18 1.247 . S
C20 O19 1.208 . S
C21 O26 1.247 . S
C21 O27 1.208 . S
C22 O14 1.315 . S
C22 O17 1.279 . S
C23 O24 1.315 . S
C23 O25 1.279 . S
O24 Cd16 2.223 . S
O24 C23 1.315 . S
O25 Cd15 2.240 . S
O25 C23 1.279 . S
O26 Cd16 2.297 . S
O26 C21 1.247 . S
O27 Cd16 2.439 . S
O27 C21 1.208 . S
O28 Cd29 2.223 . S
O28 C36 1.315 . S
Cd29 O28 2.223 . S
Cd29 O32 2.297 . S
Cd29 O33 2.439 1_554 S
Cd29 O39 2.240 1_554 S
Cd30 O31 2.240 . S
Cd30 O38 2.223 . S
Cd30 O40 2.297 1_554 S
Cd30 O41 2.439 1_554 S
O31 Cd30 2.240 . S
O31 C36 1.279 . S
O32 Cd29 2.297 . S
O32 C34 1.247 . S
O33 Cd29 2.439 1_556 S
O33 C34 1.208 1_556 S
C34 O32 1.247 . S
C34 O33 1.208 1_554 S
C35 O40 1.247 . S
C35 O41 1.208 . S
C36 O28 1.315 . S
C36 O31 1.279 . S
C37 O38 1.310 1_556 S
C37 O39 1.286 . S
O38 Cd30 2.223 . S
O38 C37 1.310 1_554 S
O39 Cd29 2.240 1_556 S
O39 C37 1.286 . S
O40 Cd30 2.297 1_556 S
O40 C35 1.247 . S
O41 Cd30 2.439 1_556 S
O41 C35 1.208 . S
O42 Cd43 2.223 . S
O42 C50 1.315 . S
Cd43 O42 2.223 . S
Cd43 O46 2.297 . S
Cd43 O47 2.439 . S
Cd43 O53 2.240 . S
Cd44 O45 2.240 . S
Cd44 O52 2.223 . S
Cd44 O54 2.297 . S
Cd44 O55 2.439 . S
O45 Cd44 2.240 . S
O45 C50 1.279 . S
O46 Cd43 2.297 . S
O46 C48 1.247 . S
O47 Cd43 2.439 . S
O47 C48 1.208 . S
C48 O46 1.247 . S
C48 O47 1.208 . S
C49 O54 1.247 . S
C49 O55 1.208 . S
C50 O42 1.315 . S
C50 O45 1.279 . S
C51 O52 1.315 . S
C51 O53 1.279 . S
O52 Cd44 2.223 . S
O52 C51 1.315 . S
O53 Cd43 2.240 . S
O53 C51 1.279 . S
O54 Cd44 2.297 . S
O54 C49 1.247 . S
O55 Cd44 2.439 . S
O55 C49 1.208 . S
O56 Cd57 2.223 . S
O56 C64 1.315 . S
Cd57 O56 2.223 . S
Cd57 O60 2.297 . S
Cd57 O61 2.439 . S
Cd57 O67 2.240 . S
Cd58 O59 2.240 . S
Cd58 O66 2.223 . S
Cd58 O68 2.297 . S
Cd58 O69 2.439 . S
O59 Cd58 2.240 . S
O59 C64 1.279 . S
O60 Cd57 2.297 . S
O60 C62 1.247 . S
O61 Cd57 2.439 . S
O61 C62 1.208 . S
C62 O60 1.247 . S
C62 O61 1.208 . S
C63 O68 1.247 . S
C63 O69 1.208 . S
C64 O56 1.315 . S
C64 O59 1.279 . S
C65 O66 1.315 . S
C65 O67 1.279 . S
O66 Cd58 2.223 . S
O66 C65 1.315 . S
O67 Cd57 2.240 . S
O67 C65 1.279 . S
O68 Cd58 2.297 . S
O68 C63 1.247 . S
O69 Cd58 2.439 . S
O69 C63 1.208 . S
O70 Cd71 2.223 . S
O70 C78 1.315 . S
Cd71 O70 2.223 . S
Cd71 O74 2.297 . S
Cd71 O75 2.439 1_554 S
Cd71 O81 2.240 1_554 S
Cd72 O73 2.240 . S
Cd72 O80 2.223 . S
Cd72 O82 2.297 1_554 S
Cd72 O83 2.439 1_554 S
O73 Cd72 2.240 . S
O73 C78 1.279 . S
O74 Cd71 2.297 . S
O74 C76 1.247 . S
O75 Cd71 2.439 1_556 S
O75 C76 1.208 1_556 S
C76 O74 1.247 . S
C76 O75 1.208 1_554 S
C77 O82 1.247 . S
C77 O83 1.208 . S
C78 O70 1.315 . S
C78 O73 1.279 . S
C79 O80 1.310 1_556 S
C79 O81 1.286 . S
O80 Cd72 2.223 . S
O80 C79 1.310 1_554 S
O81 Cd71 2.240 1_556 S
O81 C79 1.286 . S
O82 Cd72 2.297 1_556 S
O82 C77 1.247 . S
O83 Cd72 2.439 1_556 S
O83 C77 1.208 . S
O84 Cd85 2.223 . S
O84 C92 1.315 . S
Cd85 O84 2.223 . S
Cd85 O88 2.297 . S
Cd85 O89 2.439 . S
Cd85 O95 2.240 . S
Cd86 O87 2.240 . S
Cd86 O94 2.223 . S
Cd86 O96 2.297 . S
Cd86 O97 2.439 . S
O87 Cd86 2.240 . S
O87 C92 1.279 . S
O88 Cd85 2.297 . S
O88 C90 1.247 . S
O89 Cd85 2.439 . S
O89 C90 1.208 . S
C90 O88 1.247 . S
C90 O89 1.208 . S
C91 O96 1.247 . S
C91 O97 1.208 . S
C92 O84 1.315 . S
C92 O87 1.279 . S
C93 O94 1.315 . S
C93 O95 1.279 . S
O94 Cd86 2.223 . S
O94 C93 1.315 . S
O95 Cd85 2.240 . S
O95 C93 1.279 . S
O96 Cd86 2.297 . S
O96 C91 1.247 . S
O97 Cd86 2.439 . S
O97 C91 1.208 . S
O98 Cd99 2.223 . S
O98 C106 1.315 . S
Cd99 O98 2.223 . S
Cd99 O102 2.297 . S
Cd99 O103 2.439 . S
Cd99 O109 2.240 . S
Cd100 O101 2.240 . S
Cd100 O108 2.223 . S
Cd100 O110 2.297 . S
Cd100 O111 2.439 . S
O101 Cd100 2.240 . S
O101 C106 1.279 . S
O102 Cd99 2.297 . S
O102 C104 1.247 . S
O103 Cd99 2.439 . S
O103 C104 1.208 . S
C104 O102 1.247 . S
C104 O103 1.208 . S
C105 O110 1.247 . S
C105 O111 1.208 . S
C106 O98 1.315 . S
C106 O101 1.279 . S
C107 O108 1.315 . S
C107 O109 1.279 . S
O108 Cd100 2.223 . S
O108 C107 1.315 . S
O109 Cd99 2.240 . S
O109 C107 1.279 . S
O110 Cd100 2.297 . S
O110 C105 1.247 . S
O111 Cd100 2.439 . S
O111 C105 1.208 . S
O112 Cd113 2.223 . S
O112 C120 1.315 . S
Cd113 O112 2.223 . S
Cd113 O116 2.297 . S
Cd113 O117 2.439 1_556 S
Cd113 O123 2.240 1_556 S
Cd114 O115 2.240 . S
Cd114 O122 2.223 . S
Cd114 O124 2.297 1_556 S
Cd114 O125 2.439 1_556 S
O115 Cd114 2.240 . S
O115 C120 1.279 . S
O116 Cd113 2.297 . S
O116 C118 1.247 . S
O117 Cd113 2.439 1_554 S
O117 C118 1.208 1_554 S
C118 O116 1.247 . S
C118 O117 1.208 1_556 S
C119 O124 1.247 . S
C119 O125 1.208 . S
C120 O112 1.315 . S
C120 O115 1.279 . S
C121 O122 1.310 1_554 S
C121 O123 1.286 . S
O122 Cd114 2.223 . S
O122 C121 1.310 1_556 S
O123 Cd113 2.240 1_554 S
O123 C121 1.286 . S
O124 Cd114 2.297 1_554 S
O124 C119 1.247 . S
O125 Cd114 2.439 1_554 S
O125 C119 1.208 . S
O126 Cd127 2.223 . S
O126 C134 1.315 . S
Cd127 O126 2.223 . S
Cd127 O130 2.297 . S
Cd127 O131 2.439 . S
Cd127 O137 2.240 . S
Cd128 O129 2.240 . S
Cd128 O136 2.223 . S
Cd128 O138 2.297 . S
Cd128 O139 2.439 . S
O129 Cd128 2.240 . S
O129 C134 1.279 . S
O130 Cd127 2.297 . S
O130 C132 1.247 . S
O131 Cd127 2.439 . S
O131 C132 1.208 . S
C132 O130 1.247 . S
C132 O131 1.208 . S
C133 O138 1.247 . S
C133 O139 1.208 . S
C134 O126 1.315 . S
C134 O129 1.279 . S
C135 O136 1.315 . S
C135 O137 1.279 . S
O136 Cd128 2.223 . S
O136 C135 1.315 . S
O137 Cd127 2.240 . S
O137 C135 1.279 . S
O138 Cd128 2.297 . S
O138 C133 1.247 . S
O139 Cd128 2.439 . S
O139 C133 1.208 . S
O140 Cd141 2.223 . S
O140 C148 1.315 . S
Cd141 O140 2.223 . S
Cd141 O144 2.297 . S
Cd141 O145 2.439 . S
Cd141 O151 2.240 . S
Cd142 O143 2.240 . S
Cd142 O150 2.223 . S
Cd142 O152 2.297 . S
Cd142 O153 2.439 . S
O143 Cd142 2.240 . S
O143 C148 1.279 . S
O144 Cd141 2.297 . S
O144 C146 1.247 . S
O145 Cd141 2.439 . S
O145 C146 1.208 . S
C146 O144 1.247 . S
C146 O145 1.208 . S
C147 O152 1.247 . S
C147 O153 1.208 . S
C148 O140 1.315 . S
C148 O143 1.279 . S
C149 O150 1.315 . S
C149 O151 1.279 . S
O150 Cd142 2.223 . S
O150 C149 1.315 . S
O151 Cd141 2.240 . S
O151 C149 1.279 . S
O152 Cd142 2.297 . S
O152 C147 1.247 . S
O153 Cd142 2.439 . S
O153 C147 1.208 . S
O154 Cd155 2.223 . S
O154 C162 1.315 . S
Cd155 O154 2.223 . S
Cd155 O158 2.297 . S
Cd155 O159 2.439 1_556 S
Cd155 O165 2.240 1_556 S
Cd156 O157 2.240 . S
Cd156 O164 2.223 . S
Cd156 O166 2.297 1_556 S
Cd156 O167 2.439 1_556 S
O157 Cd156 2.240 . S
O157 C162 1.279 . S
O158 Cd155 2.297 . S
O158 C160 1.247 . S
O159 Cd155 2.439 1_554 S
O159 C160 1.208 1_554 S
C160 O158 1.247 . S
C160 O159 1.208 1_556 S
C161 O166 1.247 . S
C161 O167 1.208 . S
C162 O154 1.315 . S
C162 O157 1.279 . S
C163 O164 1.310 1_554 S
C163 O165 1.286 . S
O164 Cd156 2.223 . S
O164 C163 1.310 1_556 S
O165 Cd155 2.240 1_554 S
O165 C163 1.286 . S
O166 Cd156 2.297 1_554 S
O166 C161 1.247 . S
O167 Cd156 2.439 1_554 S
O167 C161 1.208 . S
C168 C169 1.391 . S
C168 C170 1.394 . S
C168 H184 0.931 . S
C169 C168 1.391 . S
C169 C173 1.376 . S
C170 C168 1.394 . S
C170 C171 1.369 . S
C170 C174 1.531 . S
C171 C170 1.369 . S
C171 C172 1.410 . S
C171 C179 1.503 . S
C172 C171 1.410 . S
C172 C173 1.392 . S
C172 C175 1.511 . S
C173 C169 1.376 . S
C173 C172 1.392 . S
C173 H185 0.929 . S
C174 C170 1.531 . S
C174 H186 0.960 . S
C174 H187 0.962 . S
C174 H188 0.960 . S
C175 C172 1.511 . S
C175 H189 0.961 . S
C175 H190 0.961 . S
C175 H191 0.961 . S
C176 C177 1.370 . S
C176 C178 1.363 . S
C176 H192 0.931 . S
C177 C176 1.370 . S
C177 C181 1.408 . S
C178 C176 1.363 . S
C178 C179 1.370 . S
C178 C182 1.524 . S
C179 C171 1.503 . S
C179 C178 1.370 . S
C179 C180 1.403 . S
C180 C179 1.403 . S
C180 C181 1.404 . S
C180 C183 1.539 . S
C181 C177 1.408 . S
C181 C180 1.404 . S
C181 H193 0.930 . S
C182 C178 1.524 . S
C182 H194 0.956 . S
C182 H195 0.961 . S
C182 H196 0.961 . S
C183 C180 1.539 . S
C183 H197 0.958 . S
C183 H198 0.961 . S
C183 H199 0.960 . S
H184 C168 0.931 . S
H185 C173 0.929 . S
H186 C174 0.960 . S
H187 C174 0.962 . S
H188 C174 0.960 . S
H189 C175 0.961 . S
H190 C175 0.961 . S
H191 C175 0.961 . S
H192 C176 0.931 . S
H193 C181 0.930 . S
H194 C182 0.956 . S
H195 C182 0.961 . S
H196 C182 0.961 . S
H197 C183 0.958 . S
H198 C183 0.961 . S
H199 C183 0.960 . S
C200 C201 1.391 . S
C200 C202 1.394 . S
C200 H216 0.931 . S
C201 C200 1.391 . S
C201 C205 1.376 . S
C202 C200 1.394 . S
C202 C203 1.369 . S
C202 C206 1.531 . S
C203 C202 1.369 . S
C203 C204 1.410 . S
C203 C211 1.503 . S
C204 C203 1.410 . S
C204 C205 1.392 . S
C204 C207 1.511 . S
C205 C201 1.376 . S
C205 C204 1.392 . S
C205 H217 0.929 . S
C206 C202 1.531 . S
C206 H218 0.960 . S
C206 H219 0.962 . S
C206 H220 0.960 . S
C207 C204 1.511 . S
C207 H221 0.961 . S
C207 H222 0.961 . S
C207 H223 0.961 . S
C208 C209 1.370 . S
C208 C210 1.363 . S
C208 H224 0.931 . S
C209 C208 1.370 . S
C209 C213 1.408 . S
C210 C208 1.363 . S
C210 C211 1.370 . S
C210 C214 1.524 . S
C211 C203 1.503 . S
C211 C210 1.370 . S
C211 C212 1.403 . S
C212 C211 1.403 . S
C212 C213 1.404 . S
C212 C215 1.539 . S
C213 C209 1.408 . S
C213 C212 1.404 . S
C213 H225 0.930 . S
C214 C210 1.524 . S
C214 H226 0.956 . S
C214 H227 0.961 . S
C214 H228 0.961 . S
C215 C212 1.539 . S
C215 H229 0.958 . S
C215 H230 0.961 . S
C215 H231 0.960 . S
H216 C200 0.931 . S
H217 C205 0.929 . S
H218 C206 0.960 . S
H219 C206 0.962 . S
H220 C206 0.960 . S
H221 C207 0.961 . S
H222 C207 0.961 . S
H223 C207 0.961 . S
H224 C208 0.931 . S
H225 C213 0.930 . S
H226 C214 0.956 . S
H227 C214 0.961 . S
H228 C214 0.961 . S
H229 C215 0.958 . S
H230 C215 0.961 . S
H231 C215 0.960 . S
C232 C233 1.391 . S
C232 C234 1.394 . S
C232 H248 0.931 . S
C233 C232 1.391 . S
C233 C237 1.376 1_556 S
C234 C232 1.394 . S
C234 C235 1.369 . S
C234 C238 1.531 . S
C235 C234 1.369 . S
C235 C236 1.410 1_556 S
C235 C243 1.503 . S
C236 C235 1.410 1_554 S
C236 C237 1.392 . S
C236 C239 1.511 . S
C237 C233 1.376 1_554 S
C237 C236 1.392 . S
C237 H249 0.929 . S
C238 C234 1.531 . S
C238 H250 0.960 . S
C238 H251 0.962 . S
C238 H252 0.960 . S
C239 C236 1.511 . S
C239 H253 0.961 . S
C239 H254 0.961 . S
C239 H255 0.961 . S
C240 C241 1.370 1_554 S
C240 C242 1.363 . S
C240 H256 0.931 . S
C241 C240 1.370 1_556 S
C241 C245 1.408 . S
C242 C240 1.363 . S
C242 C243 1.370 1_554 S
C242 C246 1.524 . S
C243 C235 1.503 . S
C243 C242 1.370 1_556 S
C243 C244 1.403 . S
C244 C243 1.403 . S
C244 C245 1.404 . S
C244 C247 1.539 . S
C245 C241 1.408 . S
C245 C244 1.404 . S
C245 H257 0.930 . S
C246 C242 1.524 . S
C246 H258 0.956 . S
C246 H259 0.961 . S
C246 H260 0.961 . S
C247 C244 1.539 . S
C247 H261 0.958 . S
C247 H262 0.961 . S
C247 H263 0.960 . S
H248 C232 0.931 . S
H249 C237 0.929 . S
H250 C238 0.960 . S
H251 C238 0.962 . S
H252 C238 0.960 . S
H253 C239 0.961 . S
H254 C239 0.961 . S
H255 C239 0.961 . S
H256 C240 0.931 . S
H257 C245 0.930 . S
H258 C246 0.956 . S
H259 C246 0.961 . S
H260 C246 0.961 . S
H261 C247 0.958 . S
H262 C247 0.961 . S
H263 C247 0.960 . S
C264 C265 1.391 . S
C264 C266 1.394 . S
C264 H280 0.931 . S
C265 C264 1.391 . S
C265 C269 1.376 . S
C266 C264 1.394 . S
C266 C267 1.369 . S
C266 C270 1.531 . S
C267 C266 1.369 . S
C267 C268 1.410 . S
C267 C275 1.503 . S
C268 C267 1.410 . S
C268 C269 1.392 . S
C268 C271 1.511 . S
C269 C265 1.376 . S
C269 C268 1.392 . S
C269 H281 0.929 . S
C270 C266 1.531 . S
C270 H282 0.960 . S
C270 H283 0.962 . S
C270 H284 0.960 . S
C271 C268 1.511 . S
C271 H285 0.961 . S
C271 H286 0.961 . S
C271 H287 0.961 . S
C272 C273 1.370 . S
C272 C274 1.363 . S
C272 H288 0.931 . S
C273 C272 1.370 . S
C273 C277 1.408 . S
C274 C272 1.363 . S
C274 C275 1.370 . S
C274 C278 1.524 . S
C275 C267 1.503 . S
C275 C274 1.370 . S
C275 C276 1.403 . S
C276 C275 1.403 . S
C276 C277 1.404 . S
C276 C279 1.539 . S
C277 C273 1.408 . S
C277 C276 1.404 . S
C277 H289 0.930 . S
C278 C274 1.524 . S
C278 H290 0.956 . S
C278 H291 0.961 . S
C278 H292 0.961 . S
C279 C276 1.539 . S
C279 H293 0.958 . S
C279 H294 0.961 . S
C279 H295 0.960 . S
H280 C264 0.931 . S
H281 C269 0.929 . S
H282 C270 0.960 . S
H283 C270 0.962 . S
H284 C270 0.960 . S
H285 C271 0.961 . S
H286 C271 0.961 . S
H287 C271 0.961 . S
H288 C272 0.931 . S
H289 C277 0.930 . S
H290 C278 0.956 . S
H291 C278 0.961 . S
H292 C278 0.961 . S
H293 C279 0.958 . S
H294 C279 0.961 . S
H295 C279 0.960 . S
C296 C297 1.391 . S
C296 C298 1.394 . S
C296 H312 0.931 . S
C297 C296 1.391 . S
C297 C301 1.376 . S
C298 C296 1.394 . S
C298 C299 1.369 . S
C298 C302 1.531 . S
C299 C298 1.369 . S
C299 C300 1.410 . S
C299 C307 1.503 . S
C300 C299 1.410 . S
C300 C301 1.392 . S
C300 C303 1.511 . S
C301 C297 1.376 . S
C301 C300 1.392 . S
C301 H313 0.929 . S
C302 C298 1.531 . S
C302 H314 0.960 . S
C302 H315 0.962 . S
C302 H316 0.960 . S
C303 C300 1.511 . S
C303 H317 0.961 . S
C303 H318 0.961 . S
C303 H319 0.961 . S
C304 C305 1.370 . S
C304 C306 1.363 . S
C304 H320 0.931 . S
C305 C304 1.370 . S
C305 C309 1.408 . S
C306 C304 1.363 . S
C306 C307 1.370 . S
C306 C310 1.524 . S
C307 C299 1.503 . S
C307 C306 1.370 . S
C307 C308 1.403 . S
C308 C307 1.403 . S
C308 C309 1.404 . S
C308 C311 1.539 . S
C309 C305 1.408 . S
C309 C308 1.404 . S
C309 H321 0.930 . S
C310 C306 1.524 . S
C310 H322 0.956 . S
C310 H323 0.961 . S
C310 H324 0.961 . S
C311 C308 1.539 . S
C311 H325 0.958 . S
C311 H326 0.961 . S
C311 H327 0.960 . S
H312 C296 0.931 . S
H313 C301 0.929 . S
H314 C302 0.960 . S
H315 C302 0.962 . S
H316 C302 0.960 . S
H317 C303 0.961 . S
H318 C303 0.961 . S
H319 C303 0.961 . S
H320 C304 0.931 . S
H321 C309 0.930 . S
H322 C310 0.956 . S
H323 C310 0.961 . S
H324 C310 0.961 . S
H325 C311 0.958 . S
H326 C311 0.961 . S
H327 C311 0.960 . S
C328 C329 1.388 1_556 S
C328 C330 1.394 . S
C328 H344 0.931 . S
C329 C328 1.388 1_554 S
C329 C333 1.379 . S
C330 C328 1.394 . S
C330 C331 1.369 1_556 S
C330 C334 1.531 . S
C331 C330 1.369 1_554 S
C331 C332 1.410 . S
C331 C339 1.503 . S
C332 C331 1.410 . S
C332 C333 1.392 . S
C332 C335 1.511 . S
C333 C329 1.379 . S
C333 C332 1.392 . S
C333 H345 0.929 . S
C334 C330 1.531 . S
C334 H346 0.960 . S
C334 H347 0.962 . S
C334 H348 0.960 . S
C335 C332 1.511 . S
C335 H349 0.961 . S
C335 H350 0.961 . S
C335 H351 0.961 . S
C336 C337 1.370 1_556 S
C336 C338 1.363 . S
C336 H352 0.931 . S
C337 C336 1.370 1_554 S
C337 C341 1.408 . S
C338 C336 1.363 . S
C338 C339 1.370 1_556 S
C338 C342 1.524 . S
C339 C331 1.503 . S
C339 C338 1.370 1_554 S
C339 C340 1.403 . S
C340 C339 1.403 . S
C340 C341 1.404 . S
C340 C343 1.539 . S
C341 C337 1.408 . S
C341 C340 1.404 . S
C341 H353 0.930 . S
C342 C338 1.524 . S
C342 H354 0.956 . S
C342 H355 0.961 1_556 S
C342 H356 0.961 . S
C343 C340 1.539 . S
C343 H357 0.958 1_554 S
C343 H358 0.961 . S
C343 H359 0.960 . S
H344 C328 0.931 . S
H345 C333 0.929 . S
H346 C334 0.960 . S
H347 C334 0.962 . S
H348 C334 0.960 . S
H349 C335 0.961 . S
H350 C335 0.961 . S
H351 C335 0.961 . S
H352 C336 0.931 . S
H353 C341 0.930 . S
H354 C342 0.956 . S
H355 C342 0.961 1_554 S
H356 C342 0.961 . S
H357 C343 0.958 1_556 S
H358 C343 0.961 . S
H359 C343 0.960 . S
C360 C361 1.391 . S
C360 C362 1.394 . S
C360 H376 0.931 . S
C361 C360 1.391 . S
C361 C365 1.376 . S
C362 C360 1.394 . S
C362 C363 1.369 . S
C362 C366 1.531 . S
C363 C362 1.369 . S
C363 C364 1.410 . S
C363 C371 1.503 . S
C364 C363 1.410 . S
C364 C365 1.392 . S
C364 C367 1.511 . S
C365 C361 1.376 . S
C365 C364 1.392 . S
C365 H377 0.929 . S
C366 C362 1.531 . S
C366 H378 0.960 . S
C366 H379 0.962 . S
C366 H380 0.960 . S
C367 C364 1.511 . S
C367 H381 0.961 . S
C367 H382 0.961 . S
C367 H383 0.961 . S
C368 C369 1.370 . S
C368 C370 1.363 . S
C368 H384 0.931 . S
C369 C368 1.370 . S
C369 C373 1.408 . S
C370 C368 1.363 . S
C370 C371 1.370 . S
C370 C374 1.524 . S
C371 C363 1.503 . S
C371 C370 1.370 . S
C371 C372 1.403 . S
C372 C371 1.403 . S
C372 C373 1.404 . S
C372 C375 1.539 . S
C373 C369 1.408 . S
C373 C372 1.404 . S
C373 H385 0.930 . S
C374 C370 1.524 . S
C374 H386 0.956 . S
C374 H387 0.961 . S
C374 H388 0.961 . S
C375 C372 1.539 . S
C375 H389 0.958 . S
C375 H390 0.961 . S
C375 H391 0.960 . S
H376 C360 0.931 . S
H377 C365 0.929 . S
H378 C366 0.960 . S
H379 C366 0.962 . S
H380 C366 0.960 . S
H381 C367 0.961 . S
H382 C367 0.961 . S
H383 C367 0.961 . S
H384 C368 0.931 . S
H385 C373 0.930 . S
H386 C374 0.956 . S
H387 C374 0.961 . S
H388 C374 0.961 . S
H389 C375 0.958 . S
H390 C375 0.961 . S
H391 C375 0.960 . S
C392 C393 1.391 . S
C392 C394 1.394 . S
C392 H408 0.931 . S
C393 C392 1.391 . S
C393 C397 1.376 . S
C394 C392 1.394 . S
C394 C395 1.369 . S
C394 C398 1.531 . S
C395 C394 1.369 . S
C395 C396 1.410 . S
C395 C403 1.503 1_655 S
C396 C395 1.410 . S
C396 C397 1.392 . S
C396 C399 1.511 . S
C397 C393 1.376 . S
C397 C396 1.392 . S
C397 H409 0.929 . S
C398 C394 1.531 . S
C398 H410 0.960 1_655 S
C398 H411 0.962 . S
C398 H412 0.960 . S
C399 C396 1.511 . S
C399 H413 0.961 . S
C399 H414 0.961 1_655 S
C399 H415 0.961 . S
C400 C401 1.370 . S
C400 C402 1.363 . S
C400 H416 0.931 . S
C401 C400 1.370 . S
C401 C405 1.408 . S
C402 C400 1.363 . S
C402 C403 1.370 . S
C402 C406 1.524 . S
C403 C395 1.503 1_455 S
C403 C402 1.370 . S
C403 C404 1.403 . S
C404 C403 1.403 . S
C404 C405 1.404 . S
C404 C407 1.539 . S
C405 C401 1.408 . S
C405 C404 1.404 . S
C405 H417 0.930 . S
C406 C402 1.524 . S
C406 H418 0.956 . S
C406 H419 0.961 . S
C406 H420 0.961 . S
C407 C404 1.539 . S
C407 H421 0.958 . S
C407 H422 0.961 . S
C407 H423 0.960 1_455 S
H408 C392 0.931 . S
H409 C397 0.929 . S
H410 C398 0.960 1_455 S
H411 C398 0.962 . S
H412 C398 0.960 . S
H413 C399 0.961 . S
H414 C399 0.961 1_455 S
H415 C399 0.961 . S
H416 C400 0.931 . S
H417 C405 0.930 . S
H418 C406 0.956 . S
H419 C406 0.961 . S
H420 C406 0.961 . S
H421 C407 0.958 . S
H422 C407 0.961 . S
H423 C407 0.960 1_655 S
C424 C425 1.403 . S
C424 C426 1.394 . S
C424 H440 0.931 . S
C425 C424 1.403 . S
C425 C429 1.364 1_556 S
C426 C424 1.394 . S
C426 C427 1.369 . S
C426 C430 1.531 . S
C427 C426 1.369 . S
C427 C428 1.410 1_556 S
C427 C435 1.504 1_545 S
C428 C427 1.410 1_554 S
C428 C429 1.392 . S
C428 C431 1.511 . S
C429 C425 1.364 1_554 S
C429 C428 1.392 . S
C429 H441 0.929 . S
C430 C426 1.531 . S
C430 H442 0.960 1_545 S
C430 H443 0.962 . S
C430 H444 0.960 . S
C431 C428 1.511 . S
C431 H445 0.961 . S
C431 H446 0.961 1_545 S
C431 H447 0.961 . S
C432 C433 1.371 . S
C432 C434 1.363 . S
C432 H448 0.931 . S
C433 C432 1.371 . S
C433 C437 1.407 1_554 S
C434 C432 1.363 . S
C434 C435 1.369 1_554 S
C434 C438 1.524 . S
C435 C427 1.504 1_565 S
C435 C434 1.369 1_556 S
C435 C436 1.404 . S
C436 C435 1.404 . S
C436 C437 1.404 . S
C436 C439 1.539 . S
C437 C433 1.407 1_556 S
C437 C436 1.404 . S
C437 H449 0.930 . S
C438 C434 1.524 . S
C438 H450 0.956 1_554 S
C438 H451 0.961 1_565 S
C438 H452 0.961 . S
C439 C436 1.539 . S
C439 H453 0.958 . S
C439 H454 0.961 1_556 S
C439 H455 0.972 1_556 S
H440 C424 0.931 . S
H441 C429 0.929 . S
H442 C430 0.960 1_565 S
H443 C430 0.962 . S
H444 C430 0.960 . S
H445 C431 0.961 . S
H446 C431 0.961 1_565 S
H447 C431 0.961 . S
H448 C432 0.931 . S
H449 C437 0.930 . S
H450 C438 0.956 1_556 S
H451 C438 0.961 1_545 S
H452 C438 0.961 . S
H453 C439 0.958 . S
H454 C439 0.961 1_554 S
H455 C439 0.972 1_554 S
C456 C457 1.391 . S
C456 C458 1.394 . S
C456 H472 0.931 . S
C457 C456 1.391 . S
C457 C461 1.376 . S
C458 C456 1.394 . S
C458 C459 1.369 . S
C458 C462 1.531 . S
C459 C458 1.369 . S
C459 C460 1.410 . S
C459 C467 1.503 . S
C460 C459 1.410 . S
C460 C461 1.392 . S
C460 C463 1.511 . S
C461 C457 1.376 . S
C461 C460 1.392 . S
C461 H473 0.929 . S
C462 C458 1.531 . S
C462 H474 0.960 . S
C462 H475 0.962 . S
C462 H476 0.960 . S
C463 C460 1.511 . S
C463 H477 0.961 . S
C463 H478 0.961 . S
C463 H479 0.961 . S
C464 C465 1.370 . S
C464 C466 1.363 . S
C464 H480 0.931 . S
C465 C464 1.370 . S
C465 C469 1.408 . S
C466 C464 1.363 . S
C466 C467 1.370 . S
C466 C470 1.524 . S
C467 C459 1.503 . S
C467 C466 1.370 . S
C467 C468 1.403 . S
C468 C467 1.403 . S
C468 C469 1.404 . S
C468 C471 1.539 . S
C469 C465 1.408 . S
C469 C468 1.404 . S
C469 H481 0.930 . S
C470 C466 1.524 . S
C470 H482 0.956 . S
C470 H483 0.961 . S
C470 H484 0.961 . S
C471 C468 1.539 . S
C471 H485 0.958 . S
C471 H486 0.961 . S
C471 H487 0.960 . S
H472 C456 0.931 . S
H473 C461 0.929 . S
H474 C462 0.960 . S
H475 C462 0.962 . S
H476 C462 0.960 . S
H477 C463 0.961 . S
H478 C463 0.961 . S
H479 C463 0.961 . S
H480 C464 0.931 . S
H481 C469 0.930 . S
H482 C470 0.956 . S
H483 C470 0.961 . S
H484 C470 0.961 . S
H485 C471 0.958 . S
H486 C471 0.961 . S
H487 C471 0.960 . S
C488 C489 1.391 . S
C488 C490 1.394 . S
C488 H504 0.931 . S
C489 C488 1.391 . S
C489 C493 1.376 . S
C490 C488 1.394 . S
C490 C491 1.369 . S
C490 C494 1.531 . S
C491 C490 1.369 . S
C491 C492 1.410 . S
C491 C499 1.503 1_455 S
C492 C491 1.410 . S
C492 C493 1.392 . S
C492 C495 1.511 . S
C493 C489 1.376 . S
C493 C492 1.392 . S
C493 H505 0.929 . S
C494 C490 1.531 . S
C494 H506 0.960 1_455 S
C494 H507 0.962 . S
C494 H508 0.960 . S
C495 C492 1.511 . S
C495 H509 0.961 . S
C495 H510 0.961 1_455 S
C495 H511 0.961 . S
C496 C497 1.370 . S
C496 C498 1.363 . S
C496 H512 0.931 . S
C497 C496 1.370 . S
C497 C501 1.408 . S
C498 C496 1.363 . S
C498 C499 1.370 . S
C498 C502 1.524 . S
C499 C491 1.503 1_655 S
C499 C498 1.370 . S
C499 C500 1.403 . S
C500 C499 1.403 . S
C500 C501 1.404 . S
C500 C503 1.539 . S
C501 C497 1.408 . S
C501 C500 1.404 . S
C501 H513 0.930 . S
C502 C498 1.524 . S
C502 H514 0.956 . S
C502 H515 0.961 . S
C502 H516 0.961 . S
C503 C500 1.539 . S
C503 H517 0.958 . S
C503 H518 0.961 . S
C503 H519 0.960 1_655 S
H504 C488 0.931 . S
H505 C493 0.929 . S
H506 C494 0.960 1_655 S
H507 C494 0.962 . S
H508 C494 0.960 . S
H509 C495 0.961 . S
H510 C495 0.961 1_655 S
H511 C495 0.961 . S
H512 C496 0.931 . S
H513 C501 0.930 . S
H514 C502 0.956 . S
H515 C502 0.961 . S
H516 C502 0.961 . S
H517 C503 0.958 . S
H518 C503 0.961 . S
H519 C503 0.960 1_455 S
C520 C521 1.391 . S
C520 C522 1.394 . S
C520 H536 0.931 . S
C521 C520 1.391 . S
C521 C525 1.376 1_556 S
C522 C520 1.394 . S
C522 C523 1.369 . S
C522 C526 1.531 . S
C523 C522 1.369 . S
C523 C524 1.410 1_556 S
C523 C531 1.503 1_545 S
C524 C523 1.410 1_554 S
C524 C525 1.392 . S
C524 C527 1.511 . S
C525 C521 1.376 1_554 S
C525 C524 1.392 . S
C525 H537 0.929 . S
C526 C522 1.531 . S
C526 H538 0.960 1_545 S
C526 H539 0.962 . S
C526 H540 0.960 . S
C527 C524 1.511 . S
C527 H541 0.961 . S
C527 H542 0.961 1_545 S
C527 H543 0.961 . S
C528 C529 1.356 1_554 S
C528 C530 1.363 . S
C528 H544 0.931 . S
C529 C528 1.356 1_556 S
C529 C533 1.425 . S
C530 C528 1.363 . S
C530 C531 1.370 1_554 S
C530 C534 1.524 . S
C531 C523 1.503 1_565 S
C531 C530 1.370 1_556 S
C531 C532 1.403 . S
C532 C531 1.403 . S
C532 C533 1.404 . S
C532 C535 1.539 . S
C533 C529 1.425 . S
C533 C532 1.404 . S
C533 H545 0.930 . S
C534 C530 1.524 . S
C534 H546 0.956 . S
C534 H547 0.961 1_565 S
C534 H548 0.961 . S
C535 C532 1.539 . S
C535 H549 0.958 . S
C535 H550 0.961 . S
C535 H551 0.968 . S
H536 C520 0.931 . S
H537 C525 0.929 . S
H538 C526 0.960 1_565 S
H539 C526 0.962 . S
H540 C526 0.960 . S
H541 C527 0.961 . S
H542 C527 0.961 1_565 S
H543 C527 0.961 . S
H544 C528 0.931 . S
H545 C533 0.930 . S
H546 C534 0.956 . S
H547 C534 0.961 1_545 S
H548 C534 0.961 . S
H549 C535 0.958 . S
H550 C535 0.961 . S
H551 C535 0.968 . S
C552 C553 1.391 . S
C552 C554 1.394 . S
C552 H568 0.931 . S
C553 C552 1.391 . S
C553 C557 1.376 . S
C554 C552 1.394 . S
C554 C555 1.369 . S
C554 C558 1.531 . S
C555 C554 1.369 . S
C555 C556 1.410 1_655 S
C555 C563 1.503 1_655 S
C556 C555 1.410 1_455 S
C556 C557 1.392 1_455 S
C556 C559 1.511 . S
C557 C553 1.376 . S
C557 C556 1.392 1_655 S
C557 H569 0.929 1_655 S
C558 C554 1.531 . S
C558 H570 0.960 . S
C558 H571 0.962 . S
C558 H572 0.960 . S
C559 C556 1.511 . S
C559 H573 0.961 . S
C559 H574 0.961 . S
C559 H575 0.961 . S
C560 C561 1.370 . S
C560 C562 1.363 1_455 S
C560 H576 0.931 1_455 S
C561 C560 1.370 . S
C561 C565 1.408 . S
C562 C560 1.363 1_655 S
C562 C563 1.370 1_655 S
C562 C566 1.524 . S
C563 C555 1.503 1_455 S
C563 C562 1.370 1_455 S
C563 C564 1.403 . S
C564 C563 1.403 . S
C564 C565 1.404 . S
C564 C567 1.539 . S
C565 C561 1.408 . S
C565 C564 1.404 . S
C565 H577 0.930 . S
C566 C562 1.524 . S
C566 H578 0.956 . S
C566 H579 0.961 . S
C566 H580 0.961 . S
C567 C564 1.539 . S
C567 H581 0.958 . S
C567 H582 0.961 . S
C567 H583 0.960 . S
H568 C552 0.931 . S
H569 C557 0.929 1_455 S
H570 C558 0.960 . S
H571 C558 0.962 . S
H572 C558 0.960 . S
H573 C559 0.961 . S
H574 C559 0.961 . S
H575 C559 0.961 . S
H576 C560 0.931 1_655 S
H577 C565 0.930 . S
H578 C566 0.956 . S
H579 C566 0.961 . S
H580 C566 0.961 . S
H581 C567 0.958 . S
H582 C567 0.961 . S
H583 C567 0.960 . S
C584 C585 1.391 1_565 S
C584 C586 1.394 . S
C584 H600 0.931 . S
C585 C584 1.391 1_545 S
C585 C589 1.376 . S
C586 C584 1.394 . S
C586 C587 1.369 1_565 S
C586 C590 1.531 . S
C587 C586 1.369 1_545 S
C587 C588 1.410 . S
C587 C595 1.503 1_545 S
C588 C587 1.410 . S
C588 C589 1.392 . S
C588 C591 1.511 . S
C589 C585 1.376 . S
C589 C588 1.392 . S
C589 H601 0.929 . S
C590 C586 1.531 . S
C590 H602 0.960 . S
C590 H603 0.962 . S
C590 H604 0.960 . S
C591 C588 1.511 . S
C591 H605 0.961 . S
C591 H606 0.961 . S
C591 H607 0.961 . S
C592 C593 1.370 . S
C592 C594 1.363 . S
C592 H608 0.931 . S
C593 C592 1.370 . S
C593 C597 1.408 . S
C594 C592 1.363 . S
C594 C595 1.370 . S
C594 C598 1.524 1_565 S
C595 C587 1.503 1_565 S
C595 C594 1.370 . S
C595 C596 1.403 . S
C596 C595 1.403 . S
C596 C597 1.404 . S
C596 C599 1.539 . S
C597 C593 1.408 . S
C597 C596 1.404 . S
C597 H609 0.930 . S
C598 C594 1.524 1_545 S
C598 H610 0.956 1_545 S
C598 H611 0.961 . S
C598 H612 0.961 . S
C599 C596 1.539 . S
C599 H613 0.958 . S
C599 H614 0.961 . S
C599 H615 0.960 . S
H600 C584 0.931 . S
H601 C589 0.929 . S
H602 C590 0.960 . S
H603 C590 0.962 . S
H604 C590 0.960 . S
H605 C591 0.961 . S
H606 C591 0.961 . S
H607 C591 0.961 . S
H608 C592 0.931 . S
H609 C597 0.930 . S
H610 C598 0.956 1_565 S
H611 C598 0.961 . S
H612 C598 0.961 . S
H613 C599 0.958 . S
H614 C599 0.961 . S
H615 C599 0.960 . S
C616 C617 1.391 . S
C616 C618 1.394 . S
C616 H632 0.931 . S
C617 C616 1.391 . S
C617 C621 1.376 . S
C618 C616 1.394 . S
C618 C619 1.369 . S
C618 C622 1.531 . S
C619 C618 1.369 . S
C619 C620 1.410 . S
C619 C627 1.503 . S
C620 C619 1.410 . S
C620 C621 1.392 . S
C620 C623 1.511 . S
C621 C617 1.376 . S
C621 C620 1.392 . S
C621 H633 0.929 . S
C622 C618 1.531 . S
C622 H634 0.960 . S
C622 H635 0.962 . S
C622 H636 0.960 . S
C623 C620 1.511 . S
C623 H637 0.961 . S
C623 H638 0.961 . S
C623 H639 0.961 . S
C624 C625 1.370 . S
C624 C626 1.363 . S
C624 H640 0.931 . S
C625 C624 1.370 . S
C625 C629 1.408 . S
C626 C624 1.363 . S
C626 C627 1.370 . S
C626 C630 1.524 . S
C627 C619 1.503 . S
C627 C626 1.370 . S
C627 C628 1.403 . S
C628 C627 1.403 . S
C628 C629 1.404 . S
C628 C631 1.539 . S
C629 C625 1.408 . S
C629 C628 1.404 . S
C629 H641 0.930 . S
C630 C626 1.524 . S
C630 H642 0.956 . S
C630 H643 0.961 . S
C630 H644 0.961 . S
C631 C628 1.539 . S
C631 H645 0.958 . S
C631 H646 0.961 . S
C631 H647 0.960 . S
H632 C616 0.931 . S
H633 C621 0.929 . S
H634 C622 0.960 . S
H635 C622 0.962 . S
H636 C622 0.960 . S
H637 C623 0.961 . S
H638 C623 0.961 . S
H639 C623 0.961 . S
H640 C624 0.931 . S
H641 C629 0.930 . S
H642 C630 0.956 . S
H643 C630 0.961 . S
H644 C630 0.961 . S
H645 C631 0.958 . S
H646 C631 0.961 . S
H647 C631 0.960 . S
C648 C649 1.391 . S
C648 C650 1.394 . S
C648 H664 0.931 . S
C649 C648 1.391 . S
C649 C653 1.376 . S
C650 C648 1.394 . S
C650 C651 1.369 . S
C650 C654 1.531 . S
C651 C650 1.369 . S
C651 C652 1.410 1_455 S
C651 C659 1.503 1_455 S
C652 C651 1.410 1_655 S
C652 C653 1.392 1_655 S
C652 C655 1.511 . S
C653 C649 1.376 . S
C653 C652 1.392 1_455 S
C653 H665 0.929 1_455 S
C654 C650 1.531 . S
C654 H666 0.960 . S
C654 H667 0.962 . S
C654 H668 0.960 . S
C655 C652 1.511 . S
C655 H669 0.961 . S
C655 H670 0.961 . S
C655 H671 0.961 . S
C656 C657 1.370 . S
C656 C658 1.363 . S
C656 H672 0.931 . S
C657 C656 1.370 . S
C657 C661 1.408 . S
C658 C656 1.363 . S
C658 C659 1.370 . S
C658 C662 1.524 . S
C659 C651 1.503 1_655 S
C659 C658 1.370 . S
C659 C660 1.403 . S
C660 C659 1.403 . S
C660 C661 1.404 . S
C660 C663 1.539 1_655 S
C661 C657 1.408 . S
C661 C660 1.404 . S
C661 H673 0.930 . S
C662 C658 1.524 . S
C662 H674 0.956 1_655 S
C662 H675 0.961 . S
C662 H676 0.961 . S
C663 C660 1.539 1_455 S
C663 H677 0.958 . S
C663 H678 0.961 1_455 S
C663 H679 0.960 . S
H664 C648 0.931 . S
H665 C653 0.929 1_655 S
H666 C654 0.960 . S
H667 C654 0.962 . S
H668 C654 0.960 . S
H669 C655 0.961 . S
H670 C655 0.961 . S
H671 C655 0.961 . S
H672 C656 0.931 . S
H673 C661 0.930 . S
H674 C662 0.956 1_455 S
H675 C662 0.961 . S
H676 C662 0.961 . S
H677 C663 0.958 . S
H678 C663 0.961 1_655 S
H679 C663 0.960 . S
C680 C681 1.391 . S
C680 C682 1.394 1_545 S
C680 H696 0.931 1_545 S
C681 C680 1.391 . S
C681 C685 1.376 . S
C682 C680 1.394 1_565 S
C682 C683 1.369 1_565 S
C682 C686 1.531 . S
C683 C682 1.369 1_545 S
C683 C684 1.410 . S
C683 C691 1.503 1_545 S
C684 C683 1.410 . S
C684 C685 1.392 . S
C684 C687 1.511 . S
C685 C681 1.376 . S
C685 C684 1.392 . S
C685 H697 0.929 . S
C686 C682 1.531 . S
C686 H698 0.960 . S
C686 H699 0.962 . S
C686 H700 0.960 . S
C687 C684 1.511 . S
C687 H701 0.961 . S
C687 H702 0.961 . S
C687 H703 0.961 . S
C688 C689 1.370 . S
C688 C690 1.363 . S
C688 H704 0.931 . S
C689 C688 1.370 . S
C689 C693 1.408 . S
C690 C688 1.363 . S
C690 C691 1.370 . S
C690 C694 1.524 . S
C691 C683 1.503 1_565 S
C691 C690 1.370 . S
C691 C692 1.403 1_565 S
C692 C691 1.403 1_545 S
C692 C693 1.404 1_545 S
C692 C695 1.539 . S
C693 C689 1.408 . S
C693 C692 1.404 1_565 S
C693 H705 0.930 1_565 S
C694 C690 1.524 . S
C694 H706 0.956 . S
C694 H707 0.961 . S
C694 H708 0.961 . S
C695 C692 1.539 . S
C695 H709 0.958 . S
C695 H710 0.961 . S
C695 H711 0.960 . S
H696 C680 0.931 1_565 S
H697 C685 0.929 . S
H698 C686 0.960 . S
H699 C686 0.962 . S
H700 C686 0.960 . S
H701 C687 0.961 . S
H702 C687 0.961 . S
H703 C687 0.961 . S
H704 C688 0.931 . S
H705 C693 0.930 1_545 S
H706 C694 0.956 . S
H707 C694 0.961 . S
H708 C694 0.961 . S
H709 C695 0.958 . S
H710 C695 0.961 . S
H711 C695 0.960 . S
C712 C713 1.391 . S
C712 C714 1.394 . S
C712 H728 0.931 . S
C713 C712 1.391 . S
C713 C717 1.376 . S
C714 C712 1.394 . S
C714 C715 1.369 . S
C714 C718 1.531 . S
C715 C714 1.369 . S
C715 C716 1.410 . S
C715 C723 1.503 . S
C716 C715 1.410 . S
C716 C717 1.392 . S
C716 C719 1.511 . S
C717 C713 1.376 . S
C717 C716 1.392 . S
C717 H729 0.929 . S
C718 C714 1.531 . S
C718 H730 0.960 . S
C718 H731 0.962 . S
C718 H732 0.960 . S
C719 C716 1.511 . S
C719 H733 0.961 . S
C719 H734 0.961 . S
C719 H735 0.961 . S
C720 C721 1.370 . S
C720 C722 1.363 . S
C720 H736 0.931 . S
C721 C720 1.370 . S
C721 C725 1.408 . S
C722 C720 1.363 . S
C722 C723 1.370 . S
C722 C726 1.524 . S
C723 C715 1.503 . S
C723 C722 1.370 . S
C723 C724 1.403 . S
C724 C723 1.403 . S
C724 C725 1.404 . S
C724 C727 1.539 . S
C725 C721 1.408 . S
C725 C724 1.404 . S
C725 H737 0.930 . S
C726 C722 1.524 . S
C726 H738 0.956 . S
C726 H739 0.961 . S
C726 H740 0.961 . S
C727 C724 1.539 . S
C727 H741 0.958 . S
C727 H742 0.961 . S
C727 H743 0.960 . S
H728 C712 0.931 . S
H729 C717 0.929 . S
H730 C718 0.960 . S
H731 C718 0.962 . S
H732 C718 0.960 . S
H733 C719 0.961 . S
H734 C719 0.961 . S
H735 C719 0.961 . S
H736 C720 0.931 . S
H737 C725 0.930 . S
H738 C726 0.956 . S
H739 C726 0.961 . S
H740 C726 0.961 . S
H741 C727 0.958 . S
H742 C727 0.961 . S
H743 C727 0.960 . S
C744 C745 1.391 . S
C744 C746 1.394 . S
C744 H760 0.931 . S
C745 C744 1.391 . S
C745 C749 1.376 . S
C746 C744 1.394 . S
C746 C747 1.369 . S
C746 C750 1.531 . S
C747 C746 1.369 . S
C747 C748 1.410 . S
C747 C755 1.503 . S
C748 C747 1.410 . S
C748 C749 1.392 . S
C748 C751 1.511 . S
C749 C745 1.376 . S
C749 C748 1.392 . S
C749 H761 0.929 . S
C750 C746 1.531 . S
C750 H762 0.960 . S
C750 H763 0.962 . S
C750 H764 0.960 . S
C751 C748 1.511 . S
C751 H765 0.961 . S
C751 H766 0.961 . S
C751 H767 0.961 . S
C752 C753 1.370 . S
C752 C754 1.363 . S
C752 H768 0.931 . S
C753 C752 1.370 . S
C753 C757 1.408 . S
C754 C752 1.363 . S
C754 C755 1.370 . S
C754 C758 1.524 . S
C755 C747 1.503 . S
C755 C754 1.370 . S
C755 C756 1.403 . S
C756 C755 1.403 . S
C756 C757 1.404 . S
C756 C759 1.539 . S
C757 C753 1.408 . S
C757 C756 1.404 . S
C757 H769 0.930 . S
C758 C754 1.524 . S
C758 H770 0.956 . S
C758 H771 0.961 . S
C758 H772 0.961 . S
C759 C756 1.539 . S
C759 H773 0.958 . S
C759 H774 0.961 . S
C759 H775 0.960 . S
H760 C744 0.931 . S
H761 C749 0.929 . S
H762 C750 0.960 . S
H763 C750 0.962 . S
H764 C750 0.960 . S
H765 C751 0.961 . S
H766 C751 0.961 . S
H767 C751 0.961 . S
H768 C752 0.931 . S
H769 C757 0.930 . S
H770 C758 0.956 . S
H771 C758 0.961 . S
H772 C758 0.961 . S
H773 C759 0.958 . S
H774 C759 0.961 . S
H775 C759 0.960 . S
C776 C777 1.391 . S
C776 C778 1.394 . S
C776 H792 0.931 . S
C777 C776 1.391 . S
C777 C781 1.376 . S
C778 C776 1.394 . S
C778 C779 1.369 . S
C778 C782 1.531 . S
C779 C778 1.369 . S
C779 C780 1.410 . S
C779 C787 1.503 . S
C780 C779 1.410 . S
C780 C781 1.392 . S
C780 C783 1.511 . S
C781 C777 1.376 . S
C781 C780 1.392 . S
C781 H793 0.929 . S
C782 C778 1.531 . S
C782 H794 0.960 . S
C782 H795 0.962 . S
C782 H796 0.960 . S
C783 C780 1.511 . S
C783 H797 0.961 . S
C783 H798 0.961 . S
C783 H799 0.961 . S
C784 C785 1.370 . S
C784 C786 1.363 . S
C784 H800 0.931 . S
C785 C784 1.370 . S
C785 C789 1.408 . S
C786 C784 1.363 . S
C786 C787 1.370 . S
C786 C790 1.524 . S
C787 C779 1.503 . S
C787 C786 1.370 . S
C787 C788 1.403 . S
C788 C787 1.403 . S
C788 C789 1.404 . S
C788 C791 1.539 . S
C789 C785 1.408 . S
C789 C788 1.404 . S
C789 H801 0.930 . S
C790 C786 1.524 . S
C790 H802 0.956 . S
C790 H803 0.961 . S
C790 H804 0.961 . S
C791 C788 1.539 . S
C791 H805 0.958 . S
C791 H806 0.961 . S
C791 H807 0.960 . S
H792 C776 0.931 . S
H793 C781 0.929 . S
H794 C782 0.960 . S
H795 C782 0.962 . S
H796 C782 0.960 . S
H797 C783 0.961 . S
H798 C783 0.961 . S
H799 C783 0.961 . S
H800 C784 0.931 . S
H801 C789 0.930 . S
H802 C790 0.956 . S
H803 C790 0.961 . S
H804 C790 0.961 . S
H805 C791 0.958 . S
H806 C791 0.961 . S
H807 C791 0.960 . S
C808 C809 1.391 . S
C808 C810 1.394 . S
C808 H824 0.931 . S
C809 C808 1.391 . S
C809 C813 1.376 . S
C810 C808 1.394 . S
C810 C811 1.369 . S
C810 C814 1.531 . S
C811 C810 1.369 . S
C811 C812 1.410 . S
C811 C819 1.503 . S
C812 C811 1.410 . S
C812 C813 1.392 . S
C812 C815 1.511 . S
C813 C809 1.376 . S
C813 C812 1.392 . S
C813 H825 0.929 . S
C814 C810 1.531 . S
C814 H826 0.960 . S
C814 H827 0.962 . S
C814 H828 0.960 . S
C815 C812 1.511 . S
C815 H829 0.961 . S
C815 H830 0.961 . S
C815 H831 0.961 . S
C816 C817 1.370 . S
C816 C818 1.363 . S
C816 H832 0.931 . S
C817 C816 1.370 . S
C817 C821 1.408 . S
C818 C816 1.363 . S
C818 C819 1.370 . S
C818 C822 1.524 . S
C819 C811 1.503 . S
C819 C818 1.370 . S
C819 C820 1.403 . S
C820 C819 1.403 . S
C820 C821 1.404 . S
C820 C823 1.539 . S
C821 C817 1.408 . S
C821 C820 1.404 . S
C821 H833 0.930 . S
C822 C818 1.524 . S
C822 H834 0.956 . S
C822 H835 0.961 . S
C822 H836 0.961 . S
C823 C820 1.539 . S
C823 H837 0.958 . S
C823 H838 0.961 . S
C823 H839 0.960 . S
H824 C808 0.931 . S
H825 C813 0.929 . S
H826 C814 0.960 . S
H827 C814 0.962 . S
H828 C814 0.960 . S
H829 C815 0.961 . S
H830 C815 0.961 . S
H831 C815 0.961 . S
H832 C816 0.931 . S
H833 C821 0.930 . S
H834 C822 0.956 . S
H835 C822 0.961 . S
H836 C822 0.961 . S
H837 C823 0.958 . S
H838 C823 0.961 . S
H839 C823 0.960 . S
C840 C841 1.391 . S
C840 C842 1.394 . S
C840 H856 0.931 . S
C841 C840 1.391 . S
C841 C845 1.376 . S
C842 C840 1.394 . S
C842 C843 1.369 . S
C842 C846 1.531 . S
C843 C842 1.369 . S
C843 C844 1.410 . S
C843 C851 1.503 . S
C844 C843 1.410 . S
C844 C845 1.392 . S
C844 C847 1.511 . S
C845 C841 1.376 . S
C845 C844 1.392 . S
C845 H857 0.929 . S
C846 C842 1.531 . S
C846 H858 0.960 . S
C846 H859 0.962 . S
C846 H860 0.960 . S
C847 C844 1.511 . S
C847 H861 0.961 . S
C847 H862 0.961 . S
C847 H863 0.961 . S
C848 C849 1.370 . S
C848 C850 1.363 . S
C848 H864 0.931 . S
C849 C848 1.370 . S
C849 C853 1.408 . S
C850 C848 1.363 . S
C850 C851 1.370 . S
C850 C854 1.524 . S
C851 C843 1.503 . S
C851 C850 1.370 . S
C851 C852 1.403 . S
C852 C851 1.403 . S
C852 C853 1.404 . S
C852 C855 1.539 . S
C853 C849 1.408 . S
C853 C852 1.404 . S
C853 H865 0.930 . S
C854 C850 1.524 . S
C854 H866 0.956 . S
C854 H867 0.961 . S
C854 H868 0.961 . S
C855 C852 1.539 . S
C855 H869 0.958 . S
C855 H870 0.961 . S
C855 H871 0.960 . S
H856 C840 0.931 . S
H857 C845 0.929 . S
H858 C846 0.960 . S
H859 C846 0.962 . S
H860 C846 0.960 . S
H861 C847 0.961 . S
H862 C847 0.961 . S
H863 C847 0.961 . S
H864 C848 0.931 . S
H865 C853 0.930 . S
H866 C854 0.956 . S
H867 C854 0.961 . S
H868 C854 0.961 . S
H869 C855 0.958 . S
H870 C855 0.961 . S
H871 C855 0.960 . S
C872 C873 1.391 . S
C872 C874 1.394 . S
C872 H888 0.931 . S
C873 C872 1.391 . S
C873 C877 1.376 . S
C874 C872 1.394 . S
C874 C875 1.369 . S
C874 C878 1.531 . S
C875 C874 1.369 . S
C875 C876 1.410 . S
C875 C883 1.503 . S
C876 C875 1.410 . S
C876 C877 1.392 . S
C876 C879 1.511 . S
C877 C873 1.376 . S
C877 C876 1.392 . S
C877 H889 0.929 . S
C878 C874 1.531 . S
C878 H890 0.960 . S
C878 H891 0.962 . S
C878 H892 0.960 . S
C879 C876 1.511 . S
C879 H893 0.961 . S
C879 H894 0.961 . S
C879 H895 0.961 . S
C880 C881 1.370 . S
C880 C882 1.363 . S
C880 H896 0.931 . S
C881 C880 1.370 . S
C881 C885 1.408 . S
C882 C880 1.363 . S
C882 C883 1.370 . S
C882 C886 1.524 . S
C883 C875 1.503 . S
C883 C882 1.370 . S
C883 C884 1.403 . S
C884 C883 1.403 . S
C884 C885 1.404 . S
C884 C887 1.539 . S
C885 C881 1.408 . S
C885 C884 1.404 . S
C885 H897 0.930 . S
C886 C882 1.524 . S
C886 H898 0.956 . S
C886 H899 0.961 . S
C886 H900 0.961 . S
C887 C884 1.539 . S
C887 H901 0.958 . S
C887 H902 0.961 . S
C887 H903 0.960 . S
H888 C872 0.931 . S
H889 C877 0.929 . S
H890 C878 0.960 . S
H891 C878 0.962 . S
H892 C878 0.960 . S
H893 C879 0.961 . S
H894 C879 0.961 . S
H895 C879 0.961 . S
H896 C880 0.931 . S
H897 C885 0.930 . S
H898 C886 0.956 . S
H899 C886 0.961 . S
H900 C886 0.961 . S
H901 C887 0.958 . S
H902 C887 0.961 . S
H903 C887 0.960 . S
C904 C905 1.391 . S
C904 C906 1.394 . S
C904 H920 0.931 . S
C905 C904 1.391 . S
C905 C909 1.376 . S
C906 C904 1.394 . S
C906 C907 1.369 . S
C906 C910 1.531 . S
C907 C906 1.369 . S
C907 C908 1.410 . S
C907 C915 1.503 . S
C908 C907 1.410 . S
C908 C909 1.392 . S
C908 C911 1.511 . S
C909 C905 1.376 . S
C909 C908 1.392 . S
C909 H921 0.929 . S
C910 C906 1.531 . S
C910 H922 0.960 . S
C910 H923 0.962 . S
C910 H924 0.960 . S
C911 C908 1.511 . S
C911 H925 0.961 . S
C911 H926 0.961 . S
C911 H927 0.961 . S
C912 C913 1.370 . S
C912 C914 1.363 . S
C912 H928 0.931 . S
C913 C912 1.370 . S
C913 C917 1.408 . S
C914 C912 1.363 . S
C914 C915 1.370 . S
C914 C918 1.524 . S
C915 C907 1.503 . S
C915 C914 1.370 . S
C915 C916 1.403 . S
C916 C915 1.403 . S
C916 C917 1.404 . S
C916 C919 1.539 . S
C917 C913 1.408 . S
C917 C916 1.404 . S
C917 H929 0.930 . S
C918 C914 1.524 . S
C918 H930 0.956 . S
C918 H931 0.961 . S
C918 H932 0.961 . S
C919 C916 1.539 . S
C919 H933 0.958 . S
C919 H934 0.961 . S
C919 H935 0.960 . S
H920 C904 0.931 . S
H921 C909 0.929 . S
H922 C910 0.960 . S
H923 C910 0.962 . S
H924 C910 0.960 . S
H925 C911 0.961 . S
H926 C911 0.961 . S
H927 C911 0.961 . S
H928 C912 0.931 . S
H929 C917 0.930 . S
H930 C918 0.956 . S
H931 C918 0.961 . S
H932 C918 0.961 . S
H933 C919 0.958 . S
H934 C919 0.961 . S
H935 C919 0.960 . S
C169 C7 1.670 . S
C177 C91 1.675 . S
C201 C21 1.670 . S
C209 C105 1.663 . S
C233 C34 1.609 1_556 S
C241 C118 1.594 . S
C265 C133 1.650 . S
C273 C49 1.654 . S
C297 C63 1.634 . S
C305 C147 1.648 . S
C329 C160 1.544 1_554 S
C337 C76 1.568 . S
C361 C8 1.493 . S
C369 C134 1.501 . S
C393 C22 1.485 . S
C401 C148 1.500 . S
C425 C163 1.420 1_556 S
C433 C37 1.421 1_554 S
C457 C92 1.486 . S
C465 C50 1.500 . S
C489 C64 1.488 . S
C497 C106 1.501 . S
C521 C79 1.411 . S
C529 C121 1.418 1_556 S
C553 C161 1.511 . S
C561 C6 1.515 . S
C585 C20 1.690 . S
C593 C90 1.689 . S
C617 C35 1.527 . S
C625 C104 1.521 . S
C649 C119 1.510 . S
C657 C48 1.513 . S
C681 C132 1.688 . S
C689 C62 1.688 . S
C713 C77 1.527 . S
C721 C146 1.520 . S
C745 C9 0.972 . S
C753 C149 0.984 . S
C777 C162 1.064 . S
C785 C23 1.140 . S
C809 C93 1.136 . S
C817 C36 1.130 . S
C841 C51 0.917 . S
C849 C107 0.957 . S
C873 C120 1.060 . S
C881 C65 1.138 . S
C905 C135 1.068 . S
C913 C78 1.114 . S
