# Generated by pormake.
# Topology uoz, (4)-cn, num edge types: 1
# Building blocks:
#     Node 0, Type 0, BuildingBlock: KUFVIS_clean_sbu_0, # of connection points: 4
#     Node 1, Type 0, BuildingBlock: KUFVIS_clean_sbu_0, # of connection points: 4
#     Node 2, Type 0, BuildingBlock: KUFVIS_clean_sbu_0, # of connection points: 4
#     Node 3, Type 0, BuildingBlock: KUFVIS_clean_sbu_0, # of connection points: 4
#     Node 4, Type 0, BuildingBlock: KUFVIS_clean_sbu_0, # of connection points: 4
#     Node 5, Type 0, BuildingBlock: KUFVIS_clean_sbu_0, # of connection points: 4
#     Node 6, Type 0, BuildingBlock: KUFVIS_clean_sbu_0, # of connection points: 4
#     Node 7, Type 0, BuildingBlock: KUFVIS_clean_sbu_0, # of connection points: 4
#     Node 8, Type 0, BuildingBlock: KUFVIS_clean_sbu_0, # of connection points: 4
#     Node 9, Type 0, BuildingBlock: KUFVIS_clean_sbu_0, # of connection points: 4
#     Node 10, Type 0, BuildingBlock: KUFVIS_clean_sbu_0, # of connection points: 4
#     Node 11, Type 0, BuildingBlock: KUFVIS_clean_sbu_0, # of connection points: 4
#     Node 12, Type 0, BuildingBlock: KUFVIS_clean_sbu_0, # of connection points: 4
#     Node 13, Type 0, BuildingBlock: KUFVIS_clean_sbu_0, # of connection points: 4
#     Node 14, Type 0, BuildingBlock: KUFVIS_clean_sbu_0, # of connection points: 4
#     Node 15, Type 0, BuildingBlock: KUFVIS_clean_sbu_0, # of connection points: 4
#     Edge 16, Type (0, 0), BuildingBlock: XIVTED_clean_linker_0, # of connection points: 2
#     Edge 17, Type (0, 0), BuildingBlock: XIVTED_clean_linker_0, # of connection points: 2
#     Edge 18, Type (0, 0), BuildingBlock: XIVTED_clean_linker_0, # of connection points: 2
#     Edge 19, Type (0, 0), BuildingBlock: XIVTED_clean_linker_0, # of connection points: 2
#     Edge 20, Type (0, 0), BuildingBlock: XIVTED_clean_linker_0, # of connection points: 2
#     Edge 21, Type (0, 0), BuildingBlock: XIVTED_clean_linker_0, # of connection points: 2
#     Edge 22, Type (0, 0), BuildingBlock: XIVTED_clean_linker_0, # of connection points: 2
#     Edge 23, Type (0, 0), BuildingBlock: XIVTED_clean_linker_0, # of connection points: 2
#     Edge 24, Type (0, 0), BuildingBlock: XIVTED_clean_linker_0, # of connection points: 2
#     Edge 25, Type (0, 0), BuildingBlock: XIVTED_clean_linker_0, # of connection points: 2
#     Edge 26, Type (0, 0), BuildingBlock: XIVTED_clean_linker_0, # of connection points: 2
#     Edge 27, Type (0, 0), BuildingBlock: XIVTED_clean_linker_0, # of connection points: 2
#     Edge 28, Type (0, 0), BuildingBlock: XIVTED_clean_linker_0, # of connection points: 2
#     Edge 29, Type (0, 0), BuildingBlock: XIVTED_clean_linker_0, # of connection points: 2
#     Edge 30, Type (0, 0), BuildingBlock: XIVTED_clean_linker_0, # of connection points: 2
#     Edge 31, Type (0, 0), BuildingBlock: XIVTED_clean_linker_0, # of connection points: 2
#     Edge 32, Type (0, 0), BuildingBlock: XIVTED_clean_linker_0, # of connection points: 2
#     Edge 33, Type (0, 0), BuildingBlock: XIVTED_clean_linker_0, # of connection points: 2
#     Edge 34, Type (0, 0), BuildingBlock: XIVTED_clean_linker_0, # of connection points: 2
#     Edge 35, Type (0, 0), BuildingBlock: XIVTED_clean_linker_0, # of connection points: 2
#     Edge 36, Type (0, 0), BuildingBlock: XIVTED_clean_linker_0, # of connection points: 2
#     Edge 37, Type (0, 0), BuildingBlock: XIVTED_clean_linker_0, # of connection points: 2
#     Edge 38, Type (0, 0), BuildingBlock: XIVTED_clean_linker_0, # of connection points: 2
#     Edge 39, Type (0, 0), BuildingBlock: XIVTED_clean_linker_0, # of connection points: 2
#     Edge 40, Type (0, 0), BuildingBlock: XIVTED_clean_linker_0, # of connection points: 2
#     Edge 41, Type (0, 0), BuildingBlock: XIVTED_clean_linker_0, # of connection points: 2
#     Edge 42, Type (0, 0), BuildingBlock: XIVTED_clean_linker_0, # of connection points: 2
#     Edge 43, Type (0, 0), BuildingBlock: XIVTED_clean_linker_0, # of connection points: 2
#     Edge 44, Type (0, 0), BuildingBlock: XIVTED_clean_linker_0, # of connection points: 2
#     Edge 45, Type (0, 0), BuildingBlock: XIVTED_clean_linker_0, # of connection points: 2
#     Edge 46, Type (0, 0), BuildingBlock: XIVTED_clean_linker_0, # of connection points: 2
#     Edge 47, Type (0, 0), BuildingBlock: XIVTED_clean_linker_0, # of connection points: 2
# Relax obj value: 0.154
# Max RMSD: 0.147
# Mean RMSD: 0.147
data_MOF--net-uoz--node1-KUFVIS_clean_sbu_0--edge1-XIVTED_clean_linker_0
_symmetry_space_group_name_H-M    P1
_symmetry_Int_Tables_number       1
_symmetry_cell_setting            triclinic
loop_
_symmetry_equiv_pos_as_xyz
'x, y, z'
_cell_length_a     61.177921
_cell_length_b     61.146992
_cell_length_c     21.317041
_cell_angle_alpha  90.003249
_cell_angle_beta   89.989661
_cell_angle_gamma 90.000681
loop_
_atom_site_label
_atom_site_type_symbol
_atom_site_fract_x
_atom_site_fract_y
_atom_site_fract_z
_atom_type_partial_charge
Mn0 Mn 0.0438 0.57786 0.30626 0.0
Mn1 Mn 0.05092 0.58736 0.15101 0.0
C2 C 0.02553 0.55736 0.23108 0.0
C3 C 0.05374 0.55703 0.39556 0.0
C4 C 0.02276 0.61592 0.23485 0.0
O5 O 0.07177 0.59681 0.30423 0.0
O6 O 0.07561 0.59913 0.19881 0.0
C7 C 0.08955 0.55936 0.12761 0.0
N8 N 0.06858 0.5651 0.11399 0.0
C9 C 0.0683 0.54217 0.02237 0.0
C10 C 0.0899 0.53596 0.03535 0.0
C11 C 0.10048 0.5444 0.08864 0.0
C12 C 0.058 0.55648 0.06415 0.0
H13 H 0.0979 0.56632 0.16753 0.0
C14 C 0.08212 0.60276 0.25468 0.0
O15 O 0.04325 0.57544 0.40115 0.0
O16 O 0.05991 0.55194 0.33949 0.0
N17 N 0.02803 0.57666 0.0982 0.0
C18 C 0.00697 0.58374 0.09361 0.0
C19 C 0.99371 0.57592 0.04473 0.0
C20 C 0.00244 0.56145 1.00006 0.0
C21 C 0.02429 0.55475 0.00508 0.0
C22 C 0.03652 0.56261 0.05577 0.0
H23 H 0.00038 0.59533 0.1268 0.0
O24 O 0.01825 0.55801 0.2881 0.0
O25 O 0.04308 0.56848 0.22046 0.0
O26 O 0.0249 0.60519 0.28628 0.0
O27 O 0.03236 0.61068 0.1839 0.0
C28 C 0.03451 0.54085 0.96129 0.0
C29 C 0.05658 0.53478 0.96954 0.0
H30 H 0.09849 0.52469 0.00483 0.0
H31 H 0.11714 0.53968 0.099 0.0
H32 H 0.97691 0.58129 0.04094 0.0
H33 H 0.99225 0.55569 0.96191 0.0
H34 H 0.02554 0.53465 0.92126 0.0
H35 H 0.06422 0.52394 0.93582 0.0
Mn36 Mn 0.71772 0.75297 0.55397 0.0
Mn37 Mn 0.70635 0.76511 0.40192 0.0
C38 C 0.73943 0.74016 0.47313 0.0
C39 C 0.73757 0.76077 0.64648 0.0
C40 C 0.68232 0.73011 0.47538 0.0
O41 O 0.69596 0.77863 0.56248 0.0
O42 O 0.69163 0.78542 0.45891 0.0
C43 C 0.72889 0.8079 0.3948 0.0
N44 N 0.72559 0.78736 0.37204 0.0
C45 C 0.74828 0.79455 0.28223 0.0
C46 C 0.75189 0.81582 0.30455 0.0
C47 C 0.74231 0.82245 0.36139 0.0
C48 C 0.73519 0.78063 0.31833 0.0
H49 H 0.72125 0.81312 0.4379 0.0
C50 C 0.688 0.78961 0.51655 0.0
O51 O 0.7206 0.74796 0.64726 0.0
O52 O 0.74178 0.77028 0.59369 0.0
N53 N 0.71955 0.74676 0.33991 0.0
C54 C 0.71531 0.72538 0.32659 0.0
C55 C 0.72437 0.71591 0.27249 0.0
C56 C 0.73717 0.72866 0.23178 0.0
C57 C 0.74095 0.75074 0.24585 0.0
C58 C 0.73183 0.75917 0.301 0.0
H59 H 0.70509 0.71565 0.35699 0.0
O60 O 0.73984 0.73056 0.52721 0.0
O61 O 0.72677 0.757 0.46806 0.0
O62 O 0.69251 0.73216 0.52768 0.0
O63 O 0.68619 0.74195 0.42741 0.0
C64 C 0.75338 0.76473 0.20731 0.0
C65 C 0.75712 0.7866 0.22562 0.0
H66 H 0.76204 0.82716 0.27856 0.0
H67 H 0.74506 0.83882 0.37901 0.0
H68 H 0.72129 0.69888 0.26182 0.0
H69 H 0.74402 0.72133 0.18989 0.0
H70 H 0.76052 0.75872 0.16411 0.0
H71 H 0.76711 0.79705 0.19628 0.0
Mn72 Mn 0.54291 0.42271 0.79726 0.0
Mn73 Mn 0.52989 0.41138 0.64576 0.0
C74 C 0.55532 0.44445 0.71608 0.0
C75 C 0.53544 0.44248 0.89015 0.0
C76 C 0.56542 0.38742 0.71723 0.0
O77 O 0.51741 0.40087 0.80699 0.0
O78 O 0.51005 0.39648 0.70381 0.0
C79 C 0.48703 0.43384 0.6417 0.0
N80 N 0.50735 0.43057 0.61745 0.0
C81 C 0.49949 0.45361 0.52885 0.0
C82 C 0.47842 0.45717 0.55268 0.0
C83 C 0.47223 0.44738 0.60965 0.0
C84 C 0.51365 0.44033 0.56354 0.0
H85 H 0.48216 0.42609 0.685 0.0
C86 C 0.50624 0.39282 0.76165 0.0
O87 O 0.54837 0.4256 0.8904 0.0
O88 O 0.52571 0.44669 0.83771 0.0
N89 N 0.54769 0.42469 0.58263 0.0
C90 C 0.56894 0.42049 0.5678 0.0
C91 C 0.57796 0.42966 0.51322 0.0
C92 C 0.56489 0.44256 0.47363 0.0
C93 C 0.54295 0.4463 0.48925 0.0
C94 C 0.53496 0.43701 0.54471 0.0
H95 H 0.57894 0.41023 0.59739 0.0
O96 O 0.56514 0.44483 0.76981 0.0
O97 O 0.53841 0.43183 0.71152 0.0
O98 O 0.5636 0.39752 0.76978 0.0
O99 O 0.55333 0.39131 0.66979 0.0
C100 C 0.52868 0.45892 0.45208 0.0
C101 C 0.50701 0.46271 0.4721 0.0
H102 H 0.4669 0.46745 0.52779 0.0
H103 H 0.45602 0.4501 0.62845 0.0
H104 H 0.5949 0.42663 0.50137 0.0
H105 H 0.57188 0.44953 0.43144 0.0
H106 H 0.53435 0.46619 0.40869 0.0
H107 H 0.49637 0.47288 0.44385 0.0
Mn108 Mn 0.872 0.24751 0.04733 0.0
Mn109 Mn 0.88321 0.23527 0.89519 0.0
C110 C 0.85007 0.26003 0.96677 0.0
C111 C 0.85236 0.23996 0.14041 0.0
C112 C 0.90688 0.27076 0.96715 0.0
O113 O 0.8938 0.22195 0.05616 0.0
O114 O 0.89883 0.21574 0.95258 0.0
C115 C 0.86187 0.19182 0.89135 0.0
N116 N 0.86446 0.21228 0.86734 0.0
C117 C 0.84114 0.20399 0.77969 0.0
C118 C 0.83825 0.18278 0.80334 0.0
C119 C 0.84852 0.17673 0.8597 0.0
C120 C 0.85424 0.21844 0.81401 0.0
H121 H 0.87001 0.18704 0.93413 0.0
C122 C 0.9024 0.21149 0.01021 0.0
O123 O 0.86932 0.25279 0.14056 0.0
O124 O 0.84804 0.23029 0.08792 0.0
N125 N 0.86923 0.2528 0.83269 0.0
C126 C 0.87293 0.27415 0.81774 0.0
C127 C 0.86332 0.28301 0.76357 0.0
C128 C 0.8505 0.26969 0.72448 0.0
C129 C 0.84727 0.24766 0.74019 0.0
C130 C 0.85697 0.23984 0.79524 0.0
H131 H 0.88312 0.28434 0.84698 0.0
O132 O 0.84983 0.26979 0.02061 0.0
O133 O 0.86278 0.2432 0.96161 0.0
O134 O 0.89717 0.26826 0.02008 0.0
O135 O 0.90278 0.25915 0.91887 0.0
C136 C 0.83478 0.23314 0.70343 0.0
C137 C 0.83157 0.21137 0.72343 0.0
H138 H 0.82814 0.17104 0.77872 0.0
H139 H 0.84634 0.16041 0.87831 0.0
H140 H 0.86597 0.30001 0.75166 0.0
H141 H 0.84319 0.27655 0.6826 0.0
H142 H 0.82719 0.23868 0.66037 0.0
H143 H 0.82152 0.20051 0.69549 0.0
Mn144 Mn 0.0446 0.42251 0.8293 0.0
Mn145 Mn 0.05407 0.41266 0.98367 0.0
C146 C 0.02937 0.4443 0.90653 0.0
C147 C 0.05381 0.44252 0.73778 0.0
C148 C 0.02131 0.38695 0.90674 0.0
O149 O 0.07121 0.40183 0.82626 0.0
O150 O 0.07559 0.39763 0.93089 0.0
C151 C 0.09621 0.43625 0.99392 0.0
N152 N 0.07545 0.4327 0.01457 0.0
C153 C 0.08043 0.45747 0.10108 0.0
C154 C 0.1019 0.46136 0.0809 0.0
C155 C 0.10977 0.45081 0.02683 0.0
C156 C 0.06759 0.44306 0.06582 0.0
H157 H 0.10235 0.42801 0.95275 0.0
C158 C 0.08113 0.39397 0.87421 0.0
O159 O 0.04204 0.42481 0.7346 0.0
O160 O 0.06155 0.44727 0.79246 0.0
N161 N 0.03451 0.42624 0.04182 0.0
C162 C 0.01297 0.42191 0.0523 0.0
C163 C 0.00234 0.43175 0.10344 0.0
C164 C 0.01408 0.44554 0.14401 0.0
C165 C 0.03631 0.4495 0.13275 0.0
C166 C 0.04596 0.43943 0.08068 0.0
H167 H 0.00397 0.41106 0.02182 0.0
O168 O 0.02078 0.44387 0.85105 0.0
O169 O 0.04647 0.43221 0.91499 0.0
O170 O 0.0244 0.39646 0.85367 0.0
O171 O 0.03176 0.39187 0.95657 0.0
C172 C 0.04922 0.46326 0.17067 0.0
C173 C 0.07119 0.46747 0.15441 0.0
H174 H 0.11244 0.47251 0.10632 0.0
H175 H 0.1263 0.45378 0.01084 0.0
H176 H 0.98519 0.42859 0.11185 0.0
H177 H 0.00584 0.45308 0.18344 0.0
H178 H 0.04226 0.47114 0.21156 0.0
H179 H 0.08076 0.47857 0.18293 0.0
Mn180 Mn 0.87468 0.75248 0.06627 0.0
Mn181 Mn 0.88174 0.76382 0.22084 0.0
C182 C 0.85037 0.73991 0.14095 0.0
C183 C 0.85733 0.76102 0.97028 0.0
C184 C 0.90703 0.72847 0.1528 0.0
O185 O 0.89713 0.77761 0.06347 0.0
O186 O 0.89921 0.78343 0.16808 0.0
C187 C 0.86063 0.80741 0.22074 0.0
N188 N 0.86248 0.78691 0.24501 0.0
C189 C 0.83651 0.79503 0.32648 0.0
C190 C 0.8344 0.8163 0.3026 0.0
C191 C 0.84639 0.82246 0.24919 0.0
C192 C 0.85066 0.78066 0.29545 0.0
H193 H 0.86997 0.81222 0.18007 0.0
C194 C 0.9045 0.78781 0.11159 0.0
O195 O 0.87402 0.74784 0.97234 0.0
O196 O 0.85211 0.77046 0.02235 0.0
N197 N 0.86574 0.74619 0.27907 0.0
C198 C 0.86853 0.72468 0.29356 0.0
C199 C 0.85725 0.7157 0.34486 0.0
C200 C 0.84361 0.72905 0.38153 0.0
C201 C 0.84119 0.75121 0.36614 0.0
C202 C 0.85263 0.75916 0.31406 0.0
H203 H 0.87922 0.71443 0.26602 0.0
O204 O 0.85149 0.7304 0.08686 0.0
O205 O 0.86323 0.75643 0.14969 0.0
O206 O 0.89882 0.73131 0.09794 0.0
O207 O 0.90165 0.73976 0.20073 0.0
C208 C 0.8277 0.76568 0.40002 0.0
C209 C 0.82509 0.78749 0.37966 0.0
H210 H 0.82354 0.82799 0.32468 0.0
H211 H 0.84478 0.83881 0.23032 0.0
H212 H 0.85919 0.69858 0.35639 0.0
H213 H 0.83495 0.72209 0.42111 0.0
H214 H 0.81882 0.76006 0.44091 0.0
H215 H 0.81418 0.79828 0.40504 0.0
Mn216 Mn 0.54673 0.57985 0.30937 0.0
Mn217 Mn 0.53617 0.58744 0.46416 0.0
C218 C 0.5593 0.55557 0.38426 0.0
C219 C 0.53779 0.56232 0.21394 0.0
C220 C 0.57127 0.6124 0.39396 0.0
O221 O 0.52171 0.60247 0.30716 0.0
O222 O 0.51623 0.60472 0.41197 0.0
C223 C 0.49259 0.56636 0.46733 0.0
N224 N 0.51329 0.56822 0.49013 0.0
C225 C 0.50584 0.54232 0.57233 0.0
C226 C 0.48439 0.54019 0.54995 0.0
C227 C 0.4778 0.55214 0.49691 0.0
C228 C 0.51995 0.55644 0.54019 0.0
H229 H 0.48745 0.57568 0.42697 0.0
C230 C 0.51167 0.60992 0.35552 0.0
O231 O 0.55102 0.57898 0.21539 0.0
O232 O 0.52846 0.55727 0.26635 0.0
N233 N 0.55423 0.57159 0.52156 0.0
C234 C 0.57583 0.57448 0.53472 0.0
C235 C 0.58523 0.5632 0.58538 0.0
C236 C 0.57223 0.54947 0.6228 0.0
C237 C 0.54997 0.547 0.60886 0.0
C238 C 0.54159 0.55842 0.55733 0.0
H239 H 0.58581 0.58528 0.50673 0.0
O240 O 0.56865 0.55645 0.32989 0.0
O241 O 0.54303 0.5687 0.39312 0.0
O242 O 0.56826 0.60388 0.33958 0.0
O243 O 0.56004 0.60734 0.44228 0.0
C244 C 0.5358 0.53351 0.64378 0.0
C245 C 0.51382 0.53094 0.62503 0.0
H246 H 0.4729 0.52935 0.57291 0.0
H247 H 0.4613 0.55053 0.4792 0.0
H248 H 0.60242 0.56522 0.59587 0.0
H249 H 0.57952 0.54083 0.66192 0.0
H250 H 0.54178 0.52461 0.68422 0.0
H251 H 0.50326 0.52004 0.65122 0.0
Mn252 Mn 0.71475 0.2498 0.55945 0.0
Mn253 Mn 0.70651 0.23911 0.71392 0.0
C254 C 0.73876 0.2622 0.63513 0.0
C255 C 0.73254 0.24092 0.46433 0.0
C256 C 0.68224 0.27465 0.64383 0.0
O257 O 0.69219 0.22475 0.55612 0.0
O258 O 0.68898 0.21968 0.66084 0.0
C259 C 0.72667 0.19507 0.71618 0.0
N260 N 0.72522 0.21575 0.7395 0.0
C261 C 0.75104 0.20757 0.82132 0.0
C262 C 0.75277 0.18615 0.79834 0.0
C263 C 0.74064 0.17993 0.74528 0.0
C264 C 0.73713 0.22203 0.78974 0.0
H265 H 0.71721 0.19019 0.67581 0.0
C266 C 0.68413 0.21505 0.6042 0.0
O267 O 0.71596 0.25425 0.46552 0.0
O268 O 0.73742 0.23153 0.51678 0.0
N269 N 0.72254 0.25665 0.77229 0.0
C270 C 0.71993 0.27823 0.78635 0.0
C271 C 0.73131 0.28723 0.83743 0.0
C272 C 0.74486 0.27386 0.87431 0.0
C273 C 0.74703 0.25163 0.85946 0.0
C274 C 0.73547 0.24363 0.80764 0.0
H275 H 0.7093 0.2885 0.75872 0.0
O276 O 0.73806 0.27165 0.58088 0.0
O277 O 0.7256 0.2459 0.6435 0.0
O278 O 0.69065 0.2714 0.58939 0.0
O279 O 0.68719 0.26344 0.69226 0.0
C280 C 0.76038 0.23712 0.89367 0.0
C281 C 0.76262 0.21519 0.87411 0.0
H282 H 0.76342 0.17439 0.82089 0.0
H283 H 0.74193 0.16344 0.72715 0.0
H284 H 0.72952 0.3044 0.84861 0.0
H285 H 0.7536 0.28085 0.91368 0.0
H286 H 0.76939 0.2428 0.93426 0.0
H287 H 0.77338 0.20435 0.89983 0.0
Mn288 Mn 0.37208 0.24984 0.58012 0.0
Mn289 Mn 0.38196 0.25953 0.73419 0.0
C290 C 0.35094 0.23398 0.65788 0.0
C291 C 0.35147 0.25872 0.48946 0.0
C292 C 0.40851 0.22764 0.65644 0.0
O293 O 0.39218 0.27692 0.57687 0.0
O294 O 0.39602 0.28169 0.68149 0.0
C295 C 0.35729 0.30096 0.74695 0.0
N296 N 0.36133 0.28012 0.76618 0.0
C297 C 0.33811 0.28449 0.85634 0.0
C298 C 0.33369 0.30603 0.83761 0.0
C299 C 0.34314 0.31421 0.78228 0.0
C300 C 0.35176 0.27185 0.81814 0.0
H301 H 0.36495 0.30743 0.70527 0.0
C302 C 0.39957 0.28724 0.62476 0.0
O303 O 0.36942 0.24737 0.48542 0.0
O304 O 0.34682 0.26629 0.54439 0.0
N305 N 0.36926 0.23931 0.79211 0.0
C306 C 0.3745 0.21794 0.80215 0.0
C307 C 0.36555 0.20694 0.85398 0.0
C308 C 0.35188 0.2182 0.89597 0.0
C309 C 0.34711 0.24032 0.88536 0.0
C310 C 0.35603 0.25026 0.83204 0.0
H311 H 0.38543 0.20937 0.7709 0.0
O312 O 0.35136 0.22548 0.60228 0.0
O313 O 0.36259 0.25139 0.66596 0.0
O314 O 0.39866 0.23024 0.60368 0.0
O315 O 0.40346 0.23807 0.70619 0.0
C316 C 0.33405 0.25299 0.92593 0.0
C317 C 0.32962 0.27508 0.91154 0.0
H318 H 0.32304 0.3164 0.86525 0.0
H319 H 0.33981 0.33081 0.76747 0.0
H320 H 0.36942 0.1899 0.86205 0.0
H321 H 0.34522 0.20974 0.93631 0.0
H322 H 0.32708 0.24582 0.96788 0.0
H323 H 0.31925 0.28454 0.94254 0.0
Mn324 Mn 0.21811 0.74388 0.0741 0.0
Mn325 Mn 0.20634 0.73078 0.22535 0.0
C326 C 0.23951 0.75633 0.15592 0.0
C327 C 0.23819 0.73672 0.9815 0.0
C328 C 0.18255 0.76629 0.15351 0.0
O329 O 0.19645 0.71825 0.0637 0.0
O330 O 0.19163 0.71099 0.16679 0.0
C331 C 0.2288 0.6879 0.22959 0.0
N332 N 0.22545 0.70821 0.25392 0.0
C333 C 0.24823 0.70027 0.343 0.0
C334 C 0.25187 0.67921 0.31908 0.0
C335 C 0.24226 0.67307 0.26184 0.0
C336 C 0.23504 0.71446 0.30812 0.0
H337 H 0.22118 0.68307 0.18608 0.0
C338 C 0.18822 0.70711 0.10887 0.0
O339 O 0.22118 0.74948 0.98111 0.0
O340 O 0.24233 0.72691 0.03389 0.0
N341 N 0.21945 0.74852 0.28892 0.0
C342 C 0.2152 0.76978 0.30383 0.0
C343 C 0.22419 0.77875 0.35871 0.0
C344 C 0.23697 0.76564 0.3985 0.0
C345 C 0.24077 0.7437 0.38278 0.0
C346 C 0.23165 0.73576 0.32705 0.0
H347 H 0.20503 0.7798 0.27406 0.0
O348 O 0.24002 0.76621 0.10227 0.0
O349 O 0.22696 0.73935 0.16006 0.0
O350 O 0.19277 0.76441 0.10116 0.0
O351 O 0.18633 0.75424 0.20111 0.0
C352 C 0.2533 0.7294 0.42012 0.0
C353 C 0.25716 0.70774 0.40002 0.0
H354 H 0.26208 0.66767 0.34412 0.0
H355 H 0.24504 0.65688 0.24297 0.0
H356 H 0.22112 0.79568 0.37061 0.0
H357 H 0.24381 0.77259 0.44091 0.0
H358 H 0.26045 0.73504 0.46371 0.0
H359 H 0.26725 0.69707 0.42841 0.0
Mn360 Mn 0.21574 0.25078 0.0585 0.0
Mn361 Mn 0.20699 0.2607 0.904 0.0
C362 C 0.23746 0.23499 0.982 0.0
C363 C 0.23589 0.25959 0.15006 0.0
C364 C 0.17972 0.22885 0.98001 0.0
O365 O 0.19565 0.27787 0.06072 0.0
O366 O 0.19278 0.28304 0.95597 0.0
C367 C 0.23256 0.30169 0.89389 0.0
N368 N 0.22816 0.28105 0.87355 0.0
C369 C 0.25351 0.28466 0.78791 0.0
C370 C 0.25827 0.30601 0.80772 0.0
C371 C 0.24786 0.31449 0.86124 0.0
C372 C 0.23842 0.27256 0.82298 0.0
H373 H 0.22444 0.30829 0.93464 0.0
C374 C 0.18881 0.28846 0.01263 0.0
O375 O 0.21791 0.24826 0.15335 0.0
O376 O 0.24078 0.26722 0.09539 0.0
N377 N 0.21998 0.24035 0.84697 0.0
C378 C 0.21481 0.21896 0.83697 0.0
C379 C 0.22449 0.2077 0.7867 0.0
C380 C 0.23902 0.21868 0.74651 0.0
C381 C 0.24388 0.24077 0.7573 0.0
C382 C 0.23395 0.25104 0.80858 0.0
H383 H 0.20339 0.21055 0.86713 0.0
O384 O 0.23661 0.22642 0.03745 0.0
O385 O 0.22577 0.25234 0.97336 0.0
O386 O 0.18932 0.23127 0.03323 0.0
O387 O 0.18504 0.2394 0.93064 0.0
C388 C 0.25833 0.25295 0.71953 0.0
C389 C 0.26331 0.27483 0.73516 0.0
H390 H 0.26998 0.31597 0.78249 0.0
H391 H 0.25151 0.33092 0.87701 0.0
H392 H 0.22064 0.19066 0.77865 0.0
H393 H 0.24642 0.20996 0.70769 0.0
H394 H 0.26616 0.24549 0.67928 0.0
H395 H 0.27492 0.28383 0.70678 0.0
Mn396 Mn 0.37507 0.74731 0.56161 0.0
Mn397 Mn 0.38191 0.73679 0.40651 0.0
C398 C 0.3503 0.75964 0.48788 0.0
C399 C 0.35805 0.73821 0.65772 0.0
C400 C 0.40668 0.77234 0.47505 0.0
O401 O 0.39796 0.72255 0.5631 0.0
O402 O 0.40006 0.71746 0.45815 0.0
C403 C 0.36194 0.69266 0.40577 0.0
N404 N 0.36313 0.71332 0.38225 0.0
C405 C 0.33705 0.70487 0.30136 0.0
C406 C 0.33559 0.68346 0.32453 0.0
C407 C 0.34796 0.67738 0.37727 0.0
C408 C 0.35093 0.71948 0.33249 0.0
H409 H 0.37161 0.6879 0.44583 0.0
C410 C 0.40557 0.71289 0.51433 0.0
O411 O 0.37453 0.75165 0.65568 0.0
O412 O 0.35291 0.7288 0.60553 0.0
N413 N 0.36527 0.75423 0.34936 0.0
C414 C 0.36758 0.77584 0.33526 0.0
C415 C 0.35591 0.78472 0.28454 0.0
C416 C 0.34241 0.77119 0.24799 0.0
C417 C 0.34053 0.74894 0.26291 0.0
C418 C 0.3523 0.74109 0.31449 0.0
H419 H 0.37818 0.78622 0.36262 0.0
O420 O 0.35142 0.76902 0.54215 0.0
O421 O 0.36348 0.74343 0.47839 0.0
O422 O 0.39877 0.76902 0.53006 0.0
O423 O 0.4013 0.76123 0.4268 0.0
C424 C 0.32731 0.73426 0.22893 0.0
C425 C 0.32529 0.71232 0.24871 0.0
H426 H 0.32496 0.67158 0.30235 0.0
H427 H 0.34688 0.6609 0.39555 0.0
H428 H 0.35747 0.80191 0.27332 0.0
H429 H 0.33348 0.77807 0.20881 0.0
H430 H 0.31818 0.73981 0.18839 0.0
H431 H 0.31458 0.70136 0.22325 0.0
Mn432 Mn 0.54611 0.07669 0.79666 0.0
Mn433 Mn 0.55552 0.08505 0.64168 0.0
C434 C 0.53044 0.05446 0.72112 0.0
C435 C 0.55545 0.05699 0.88866 0.0
C436 C 0.52351 0.11213 0.71768 0.0
O437 O 0.57281 0.09731 0.79771 0.0
O438 O 0.57777 0.09971 0.69279 0.0
C439 C 0.59676 0.05993 0.63135 0.0
N440 N 0.57606 0.06407 0.61123 0.0
C441 C 0.5799 0.0388 0.52545 0.0
C442 C 0.60132 0.03432 0.54502 0.0
C443 C 0.60972 0.04481 0.59852 0.0
C444 C 0.56764 0.05371 0.56075 0.0
H445 H 0.6033 0.06813 0.67208 0.0
C446 C 0.58321 0.10407 0.74916 0.0
O447 O 0.54385 0.07481 0.89163 0.0
O448 O 0.56305 0.05205 0.83399 0.0
N449 N 0.53522 0.07167 0.58527 0.0
C450 C 0.51376 0.07657 0.57554 0.0
C451 C 0.50258 0.06677 0.52534 0.0
C452 C 0.5137 0.05244 0.48487 0.0
C453 C 0.53586 0.04788 0.49537 0.0
C454 C 0.54605 0.05789 0.54665 0.0
H455 H 0.50525 0.08787 0.60584 0.0
O456 O 0.52204 0.05533 0.77678 0.0
O457 O 0.5476 0.06636 0.71172 0.0
O458 O 0.52613 0.10271 0.77107 0.0
O459 O 0.53402 0.1068 0.66826 0.0
C460 C 0.5482 0.03366 0.45727 0.0
C461 C 0.57014 0.02894 0.47269 0.0
H462 H 0.6114 0.02276 0.5196 0.0
H463 H 0.6262 0.04137 0.6141 0.0
H464 H 0.48549 0.0704 0.5175 0.0
H465 H 0.50505 0.04496 0.44608 0.0
H466 H 0.54081 0.02581 0.41695 0.0
H467 H 0.57927 0.01748 0.44409 0.0
Mn468 Mn 0.04812 0.91972 0.30933 0.0
Mn469 Mn 0.03903 0.91075 0.15447 0.0
C470 C 0.0632 0.94213 0.23327 0.0
C471 C 0.03854 0.93956 0.40093 0.0
C472 C 0.07184 0.88482 0.23057 0.0
O473 O 0.02169 0.89878 0.31108 0.0
O474 O 0.01762 0.89512 0.20614 0.0
C475 C 0.99662 0.9339 0.14495 0.0
N476 N 0.01747 0.93079 0.12452 0.0
C477 C 0.01234 0.9561 0.03941 0.0
C478 C 0.99077 0.95954 0.05938 0.0
C479 C 0.98293 0.94851 0.11266 0.0
C480 C 0.02532 0.94165 0.07413 0.0
H481 H 0.9905 0.92527 0.18548 0.0
C482 C 0.012 0.89105 0.26254 0.0
O483 O 0.05044 0.92194 0.40425 0.0
O484 O 0.03082 0.9442 0.34621 0.0
N485 N 0.05854 0.92503 0.09756 0.0
C486 C 0.08016 0.92107 0.08724 0.0
C487 C 0.09077 0.93144 0.03693 0.0
C488 C 0.07894 0.94538 0.99704 0.0
C489 C 0.05664 0.94899 0.00818 0.0
C490 C 0.04703 0.93843 0.05947 0.0
H491 H 0.08924 0.91013 0.11724 0.0
O492 O 0.07177 0.94145 0.28872 0.0
O493 O 0.04631 0.92982 0.22421 0.0
O494 O 0.06856 0.89391 0.28417 0.0
O495 O 0.06152 0.89004 0.18078 0.0
C496 C 0.04362 0.9628 0.97076 0.0
C497 C 0.02154 0.96655 0.98676 0.0
H498 H 0.98013 0.97071 0.03439 0.0
H499 H 0.96633 0.95113 0.12851 0.0
H500 H 0.10798 0.92855 0.02863 0.0
H501 H 0.08716 0.95331 0.9582 0.0
H502 H 0.05057 0.97108 0.93048 0.0
H503 H 0.01187 0.97769 0.95864 0.0
Mn504 Mn 0.54563 0.92077 0.31872 0.0
Mn505 Mn 0.55417 0.91048 0.47313 0.0
C506 C 0.52878 0.9414 0.39608 0.0
C507 C 0.55498 0.94171 0.22906 0.0
C508 C 0.52386 0.88337 0.39171 0.0
O509 O 0.5731 0.9011 0.31726 0.0
O510 O 0.57747 0.89761 0.42218 0.0
C511 C 0.59444 0.93653 0.49176 0.0
N512 N 0.5735 0.9317 0.50826 0.0
C513 C 0.5758 0.9544 0.60012 0.0
C514 C 0.59742 0.95966 0.58419 0.0
C515 C 0.60669 0.95087 0.52937 0.0
C516 C 0.56418 0.94063 0.55969 0.0
H517 H 0.60177 0.92933 0.45055 0.0
C518 C 0.58345 0.8942 0.36574 0.0
O519 O 0.54397 0.92358 0.224 0.0
O520 O 0.56198 0.94642 0.2846 0.0
N521 N 0.53271 0.92211 0.5292 0.0
C522 C 0.51143 0.91605 0.53652 0.0
C523 C 0.49939 0.92433 0.58735 0.0
C524 C 0.50955 0.93817 0.63116 0.0
C525 C 0.5316 0.94379 0.62335 0.0
C526 C 0.54259 0.93552 0.57087 0.0
H527 H 0.50374 0.90493 0.50395 0.0
O528 O 0.5208 0.94113 0.33982 0.0
O529 O 0.54622 0.9299 0.40489 0.0
O530 O 0.52622 0.89387 0.33994 0.0
O531 O 0.53397 0.88827 0.4421 0.0
C532 C 0.5432 0.95703 0.66598 0.0
C533 C 0.56535 0.96218 0.65464 0.0
H534 H 0.60702 0.97044 0.61362 0.0
H535 H 0.62336 0.95485 0.51674 0.0
H536 H 0.48242 0.91979 0.59329 0.0
H537 H 0.50029 0.94429 0.67076 0.0
H538 H 0.53521 0.96351 0.70734 0.0
H539 H 0.57401 0.97261 0.68733 0.0
Mn540 Mn 0.04454 0.07618 0.83064 0.0
Mn541 Mn 0.03446 0.08585 0.98461 0.0
C542 C 0.06086 0.05543 0.90848 0.0
C543 C 0.03611 0.05534 0.73999 0.0
C544 C 0.06558 0.11332 0.90666 0.0
O545 O 0.01707 0.09576 0.82742 0.0
O546 O 0.0117 0.09895 0.93199 0.0
C547 C 0.99409 0.05956 0.99812 0.0
N548 N 0.01475 0.06448 0.01714 0.0
C549 C 0.01141 0.04125 0.10766 0.0
C550 C 0.99006 0.03595 0.08921 0.0
C551 C 0.98145 0.04496 0.03381 0.0
C552 C 0.02344 0.05534 0.06916 0.0
H553 H 0.9873 0.06684 0.95632 0.0
C554 C 0.00624 0.10251 0.87518 0.0
O555 O 0.04706 0.07354 0.73593 0.0
O556 O 0.02864 0.05055 0.79493 0.0
N557 N 0.05524 0.07401 0.04239 0.0
C558 C 0.07643 0.08 0.05192 0.0
C559 C 0.08786 0.07153 0.10365 0.0
C560 C 0.07718 0.05754 0.14603 0.0
C561 C 0.05523 0.05196 0.13589 0.0
C562 C 0.04487 0.06045 0.08268 0.0
H563 H 0.08454 0.09116 0.02033 0.0
O564 O 0.06932 0.05597 0.85284 0.0
O565 O 0.04321 0.06669 0.91648 0.0
O566 O 0.06353 0.10318 0.85417 0.0
O567 O 0.05507 0.10815 0.95618 0.0
C568 C 0.04316 0.03847 0.17677 0.0
C569 C 0.02123 0.0332 0.1628 0.0
H570 H 0.98016 0.02494 0.1171 0.0
H571 H 0.965 0.04091 0.01917 0.0
H572 H 0.10476 0.07602 0.11133 0.0
H573 H 0.08597 0.05124 0.18626 0.0
H574 H 0.05067 0.03181 0.21863 0.0
H575 H 0.01223 0.02251 0.19404 0.0
H576 H 0.14463 0.71122 0.09793 0.0
H577 H 0.12423 0.59132 0.23325 0.0
H578 H 0.1962 0.66351 0.10842 0.0
H579 H 0.08244 0.64644 0.27029 0.0
H580 H 0.15051 0.61582 0.18223 0.0
H581 H 0.11949 0.68481 0.14494 0.0
C582 C 0.15033 0.69472 0.10674 0.0
C583 C 0.17245 0.68945 0.09859 0.0
C584 C 0.13588 0.62266 0.20305 0.0
C585 C 0.1442 0.65956 0.15597 0.0
C586 C 0.12117 0.60877 0.23365 0.0
C587 C 0.10139 0.61697 0.25733 0.0
C588 C 0.13048 0.6448 0.19498 0.0
C589 C 0.09776 0.63957 0.25415 0.0
C590 C 0.13617 0.67988 0.13553 0.0
C591 C 0.17918 0.66808 0.11309 0.0
N592 N 0.11193 0.65265 0.22237 0.0
N593 N 0.16522 0.654 0.1421 0.0
H594 H 0.62616 0.90465 0.38029 0.0
H595 H 0.64433 0.78592 0.52701 0.0
H596 H 0.58234 0.85044 0.35301 0.0
H597 H 0.69631 0.83312 0.51437 0.0
H598 H 0.61956 0.8121 0.47743 0.0
H599 H 0.65208 0.88009 0.43242 0.0
C600 C 0.62256 0.88731 0.38215 0.0
C601 C 0.60227 0.87947 0.3612 0.0
C602 C 0.63625 0.81699 0.48688 0.0
C603 C 0.63102 0.85161 0.42478 0.0
C604 C 0.6502 0.80229 0.51714 0.0
C605 C 0.67233 0.80745 0.52547 0.0
C606 C 0.64451 0.83704 0.46507 0.0
C607 C 0.67927 0.82863 0.50959 0.0
C608 C 0.63707 0.87341 0.41349 0.0
C609 C 0.59802 0.85703 0.36712 0.0
N610 N 0.66553 0.84255 0.4791 0.0
N611 N 0.61203 0.84398 0.39952 0.0
H612 H 0.51026 0.34917 0.77291 0.0
H613 H 0.39023 0.33037 0.63529 0.0
H614 H 0.46271 0.40086 0.76119 0.0
H615 H 0.4433 0.28484 0.61311 0.0
H616 H 0.41549 0.35652 0.68347 0.0
H617 H 0.48367 0.32387 0.72742 0.0
C618 C 0.49377 0.35488 0.76408 0.0
C619 C 0.48856 0.37705 0.77164 0.0
C620 C 0.42177 0.34105 0.66653 0.0
C621 C 0.45848 0.34862 0.71579 0.0
C622 C 0.40746 0.32637 0.63747 0.0
C623 C 0.4148 0.30561 0.61897 0.0
C624 C 0.44347 0.33473 0.67804 0.0
C625 C 0.43712 0.30089 0.62526 0.0
C626 C 0.47881 0.34062 0.73619 0.0
C627 C 0.46723 0.3838 0.75705 0.0
N628 N 0.45059 0.31514 0.65534 0.0
N629 N 0.45306 0.36975 0.72882 0.0
H630 H 0.89381 0.16816 0.01964 0.0
H631 H 0.008 0.14564 0.84956 0.0
H632 H 0.9462 0.21497 0.00923 0.0
H633 H 0.96358 0.09377 0.8983 0.0
H634 H 0.98268 0.17213 0.89569 0.0
H635 H 0.91794 0.1404 0.97394 0.0
C636 C 0.91078 0.17224 0.01102 0.0
C637 C 0.91817 0.19376 0.01934 0.0
C638 C 0.97818 0.155 0.89502 0.0
C639 C 0.94537 0.16265 0.96296 0.0
C640 C 0.99234 0.13997 0.86687 0.0
C641 C 0.98769 0.11755 0.86921 0.0
C642 C 0.95925 0.1475 0.92565 0.0
C643 C 0.96756 0.11098 0.89463 0.0
C644 C 0.92437 0.15657 0.98328 0.0
C645 C 0.94005 0.19842 0.00491 0.0
N646 N 0.95419 0.12583 0.92267 0.0
N647 N 0.95274 0.18316 0.97624 0.0
H648 H 0.12445 0.40322 0.87639 0.0
H649 H 0.14534 0.28621 0.03185 0.0
H650 H 0.07834 0.35011 0.87092 0.0
H651 H 0.19768 0.33143 0.99476 0.0
H652 H 0.11943 0.31225 0.98632 0.0
H653 H 0.15163 0.37857 0.92274 0.0
C654 C 0.12046 0.38606 0.88182 0.0
C655 C 0.09932 0.37852 0.8684 0.0
C656 C 0.13652 0.31673 0.98945 0.0
C657 C 0.12966 0.35067 0.92553 0.0
C658 C 0.15119 0.30214 0.01721 0.0
C659 C 0.17359 0.30687 0.01811 0.0
C660 C 0.14435 0.33619 0.9624 0.0
C661 C 0.18046 0.32737 0.99597 0.0
C662 C 0.13577 0.37214 0.9098 0.0
C663 C 0.09466 0.35638 0.87901 0.0
N664 N 0.16595 0.3412 0.96829 0.0
N665 N 0.10954 0.34333 0.90799 0.0
H666 H 0.96871 0.90001 0.25762 0.0
H667 H 0.94811 0.78192 0.10697 0.0
H668 H 0.01504 0.84715 0.266 0.0
H669 H 0.89844 0.83163 0.11666 0.0
H670 H 0.97399 0.80709 0.15637 0.0
H671 H 0.94231 0.87548 0.20761 0.0
C672 C 0.97287 0.8829 0.252 0.0
C673 C 0.9939 0.87545 0.26715 0.0
C674 C 0.95758 0.81274 0.14637 0.0
C675 C 0.96443 0.84766 0.20611 0.0
C676 C 0.94301 0.79858 0.11636 0.0
C677 C 0.92124 0.80486 0.10667 0.0
C678 C 0.95025 0.8333 0.16705 0.0
C679 C 0.9152 0.82632 0.12229 0.0
C680 C 0.95803 0.86904 0.22187 0.0
C681 C -0.00121 0.85336 0.25648 0.0
N682 N 0.92952 0.83968 0.15257 0.0
N683 N 0.98433 0.84033 0.22563 0.0
H684 H 0.39978 0.66905 0.51487 0.0
H685 H 0.51679 0.65369 0.35248 0.0
H686 H 0.44915 0.71914 0.51038 0.0
H687 H 0.46801 0.60306 0.3599 0.0
H688 H 0.4913 0.67875 0.40404 0.0
H689 H 0.42505 0.64397 0.46248 0.0
C690 C 0.41638 0.67437 0.50589 0.0
C691 C 0.42255 0.69604 0.51808 0.0
C692 C 0.48592 0.66232 0.39304 0.0
C693 C 0.4511 0.66799 0.45438 0.0
C694 C 0.50025 0.64823 0.36182 0.0
C695 C 0.49436 0.6264 0.35095 0.0
C696 C 0.46559 0.65444 0.41388 0.0
C697 C 0.47304 0.61988 0.36648 0.0
C698 C 0.43061 0.66026 0.47435 0.0
C699 C 0.44396 0.70238 0.50321 0.0
N700 N 0.45955 0.6337 0.39812 0.0
N701 N 0.45736 0.68857 0.47119 0.0
H702 H 0.69193 0.17167 0.59181 0.0
H703 H 0.57994 0.14729 0.77306 0.0
H704 H 0.64053 0.21894 0.61633 0.0
H705 H 0.62601 0.09687 0.72436 0.0
H706 H 0.6042 0.17452 0.72569 0.0
H707 H 0.66857 0.14373 0.63977 0.0
C708 C 0.67527 0.17585 0.60415 0.0
C709 C 0.66794 0.1975 0.59882 0.0
C710 C 0.60929 0.15756 0.72664 0.0
C711 C 0.64168 0.16612 0.65769 0.0
C712 C 0.59574 0.14212 0.75543 0.0
C713 C 0.60117 0.11987 0.75356 0.0
C714 C 0.62838 0.15064 0.69566 0.0
C715 C 0.62142 0.11393 0.72768 0.0
C716 C 0.66214 0.16007 0.63315 0.0
C717 C 0.64656 0.20229 0.61816 0.0
N718 N 0.63417 0.12916 0.69893 0.0
N719 N 0.63432 0.18686 0.64771 0.0
H720 H 0.00712 0.36859 0.01598 0.0
H721 H 0.92521 0.28442 0.85707 0.0
H722 H 0.99609 0.36644 0.81577 0.0
H723 H 0.92621 0.29741 0.05635 0.0
H724 H 0.95221 0.31293 0.84124 0.0
H725 H 0.97899 0.34131 0.03073 0.0
C726 C -0.00115 0.36239 0.97475 0.0
C727 C 0.00417 0.36993 0.91416 0.0
C728 C 0.94651 0.30962 0.88839 0.0
C729 C 0.97159 0.3383 0.93157 0.0
C730 C 0.93108 0.29323 0.8978 0.0
C731 C 0.92337 0.28833 0.95849 0.0
C732 C 0.95459 0.32123 0.93995 0.0
C733 C 0.93165 0.30053 0.00886 0.0
C734 C 0.98263 0.34679 0.98356 0.0
C735 C 0.99262 0.36115 0.8632 0.0
N736 N 0.94691 0.31634 0.99847 0.0
N737 N 0.97691 0.3457 0.87305 0.0
H738 H 0.51007 0.13055 0.60761 0.0
H739 H 0.42892 0.21572 0.76492 0.0
H740 H 0.49851 0.13336 0.80752 0.0
H741 H 0.42809 0.20129 0.56637 0.0
H742 H 0.45643 0.18785 0.78018 0.0
H743 H 0.48236 0.15829 0.59174 0.0
C744 C 0.50178 0.13701 0.64852 0.0
C745 C 0.50679 0.1295 0.70938 0.0
C746 C 0.45026 0.19071 0.73327 0.0
C747 C 0.47478 0.16159 0.69068 0.0
C748 C 0.43453 0.20678 0.72412 0.0
C749 C 0.42602 0.21101 0.66387 0.0
C750 C 0.4579 0.17873 0.68193 0.0
C751 C 0.43411 0.19867 0.61351 0.0
C752 C 0.48583 0.15285 0.63906 0.0
C753 C 0.49528 0.13859 0.75991 0.0
N754 N 0.44967 0.1831 0.62367 0.0
N755 N 0.47985 0.15424 0.74942 0.0
H756 H 0.59485 0.63568 0.30573 0.0
H757 H 0.66603 0.7005 0.5621 0.0
H758 H 0.5876 0.62673 0.50573 0.0
H759 H 0.66131 0.71916 0.36696 0.0
H760 H 0.63985 0.67087 0.5417 0.0
H761 H 0.62248 0.66387 0.32643 0.0
C762 C 0.59911 0.63951 0.3538 0.0
C763 C 0.58874 0.62887 0.40387 0.0
C764 C 0.64461 0.68155 0.50355 0.0
C765 C 0.62031 0.66098 0.42799 0.0
C766 C 0.65951 0.69847 0.51524 0.0
C767 C 0.66591 0.71247 0.46646 0.0
C768 C 0.63625 0.67853 0.44258 0.0
C769 C 0.65692 0.70893 0.40642 0.0
C770 C 0.61482 0.65564 0.36567 0.0
C771 C 0.59497 0.63455 0.4654 0.0
N772 N 0.64267 0.69234 0.39626 0.0
N773 N 0.6103 0.65017 0.47565 0.0
H774 H 0.16597 0.79563 0.06686 0.0
H775 H 0.09497 0.86177 0.3211 0.0
H776 H 0.16196 0.77754 0.26256 0.0
H777 H 0.08778 0.86887 0.1204 0.0
H778 H 0.12249 0.83317 0.30225 0.0
H779 H 0.13975 0.82514 0.0871 0.0
C780 C 0.1596 0.79777 0.11385 0.0
C781 C 0.16619 0.78395 0.16278 0.0
C782 C 0.11481 0.84109 0.26254 0.0
C783 C 0.13641 0.81779 0.18654 0.0
C784 C 0.09916 0.85742 0.27334 0.0
C785 C 0.08888 0.86774 0.22252 0.0
C786 C 0.12034 0.83527 0.20055 0.0
C787 C 0.09505 0.8614 0.16141 0.0
C788 C 0.14465 0.81463 0.12548 0.0
C789 C 0.15738 0.78764 0.22301 0.0
N790 N 0.11031 0.84569 0.15227 0.0
N791 N 0.14305 0.80419 0.23313 0.0
H792 H 0.99062 0.62902 0.31854 0.0
H793 H 0.93317 0.70719 0.06659 0.0
H794 H 0.01862 0.64454 0.13776 0.0
H795 H 0.91893 0.71054 0.26487 0.0
H796 H 0.96192 0.68033 0.08944 0.0
H797 H 0.96186 0.65626 0.29861 0.0
C798 C 0.99094 0.63829 0.27525 0.0
C799 C 0.00702 0.63431 0.22975 0.0
C800 C 0.9524 0.68698 0.1278 0.0
C801 C 0.97401 0.66494 0.20603 0.0
C802 C 0.93593 0.70218 0.11468 0.0
C803 C 0.92364 0.71122 0.16372 0.0
C804 C 0.95636 0.68058 0.19024 0.0
C805 C 0.92801 0.70414 0.22538 0.0
C806 C 0.97446 0.6537 0.26367 0.0
C807 C 0.00648 0.64677 0.17416 0.0
N808 N 0.94394 0.68924 0.23683 0.0
N809 N 0.99017 0.6613 0.16369 0.0
H810 H 0.09204 0.1329 0.81705 0.0
H811 H 0.15878 0.20357 0.06973 0.0
H812 H 0.07653 0.13444 0.0149 0.0
H813 H 0.16086 0.21591 0.87012 0.0
H814 H 0.13075 0.17558 0.05079 0.0
H815 H 0.11981 0.16124 0.83555 0.0
C816 C 0.09435 0.13918 0.86408 0.0
C817 C 0.08182 0.1312 0.91421 0.0
C818 C 0.13738 0.18453 0.01131 0.0
C819 C 0.11366 0.16331 0.93591 0.0
C820 C 0.15337 0.20049 0.02217 0.0
C821 C 0.16223 0.21223 0.97172 0.0
C822 C 0.13043 0.18014 0.94956 0.0
C823 C 0.15456 0.20743 0.91085 0.0
C824 C 0.11019 0.15533 0.87469 0.0
C825 C 0.08565 0.13999 0.97442 0.0
N826 N 0.13924 0.19175 0.90155 0.0
N827 N 0.10123 0.15541 0.98352 0.0
H828 H 0.66832 0.29126 0.75571 0.0
H829 H 0.57636 0.36705 0.60766 0.0
H830 H 0.65907 0.2986 0.55587 0.0
H831 H 0.59488 0.37031 0.80312 0.0
H832 H 0.60544 0.34099 0.58907 0.0
H833 H 0.64087 0.31912 0.7741 0.0
C834 C 0.66058 0.29875 0.7154 0.0
C835 C 0.66605 0.29239 0.65384 0.0
C836 C 0.60322 0.3474 0.63601 0.0
C837 C 0.63424 0.3245 0.6753 0.0
C838 C 0.58648 0.36228 0.64704 0.0
C839 C 0.58298 0.37098 0.70744 0.0
C840 C 0.61665 0.34083 0.68565 0.0
C841 C 0.59686 0.36407 0.75594 0.0
C842 C 0.64488 0.31476 0.72622 0.0
C843 C 0.65542 0.30291 0.604 0.0
N844 N 0.61304 0.34931 0.74401 0.0
N845 N 0.63989 0.31835 0.61586 0.0
H846 H 0.43292 0.79339 0.56141 0.0
H847 H 0.49155 0.87054 0.30812 0.0
H848 H 0.41803 0.79095 0.36344 0.0
H849 H 0.51837 0.85587 0.49094 0.0
H850 H 0.46215 0.84405 0.3287 0.0
H851 H 0.4617 0.82023 0.53874 0.0
C852 C 0.43553 0.79861 0.51344 0.0
C853 C 0.42309 0.78979 0.4644 0.0
C854 C 0.47461 0.84666 0.36398 0.0
C855 C 0.45588 0.82039 0.43804 0.0
C856 C 0.49145 0.86165 0.35205 0.0
C857 C 0.50745 0.86561 0.3978 0.0
C858 C 0.47373 0.8358 0.4222 0.0
C859 C 0.50636 0.85363 0.45422 0.0
C860 C 0.45202 0.8138 0.50039 0.0
C861 C 0.42726 0.79716 0.4029 0.0
N862 N 0.48975 0.83948 0.46492 0.0
N863 N 0.44325 0.81199 0.39151 0.0
H864 H 0.9872 0.5459 0.16969 0.0
H865 H 0.0593 0.4713 0.95114 0.0
H866 H 0.05382 0.52625 0.20402 0.0
H867 H 0.98997 0.45881 0.9553 0.0
H868 H 0.05523 0.49669 0.03641 0.0
H869 H 0.98475 0.51761 0.08643 0.0
C870 C 0.00102 0.53531 0.16051 0.0
C871 C 0.02096 0.53856 0.19157 0.0
C872 C 0.04067 0.48898 0.01799 0.0
C873 C 0.01838 0.5071 0.09862 0.0
C874 C 0.04307 0.47431 0.96966 0.0
C875 C 0.0251 0.46243 0.94885 0.0
C876 C 0.01992 0.49281 0.04359 0.0
C877 C 0.00424 0.4675 0.97202 0.0
C878 C -0.00035 0.51935 0.11336 0.0
C879 C 0.03838 0.52454 0.17958 0.0
N880 N 0.00212 0.48242 0.01921 0.0
N881 N 0.03679 0.50972 0.1333 0.0
H882 H 0.82332 0.77127 0.1773 0.0
H883 H 0.75227 0.70162 0.41687 0.0
H884 H 0.83423 0.70184 0.19262 0.0
H885 H 0.76608 0.77063 0.4286 0.0
H886 H 0.7784 0.6988 0.32838 0.0
H887 H 0.79643 0.76911 0.25954 0.0
C888 C 0.81959 0.75544 0.19751 0.0
C889 C 0.83141 0.73688 0.1809 0.0
C890 C 0.77568 0.71444 0.35088 0.0
C891 C 0.79979 0.73395 0.27284 0.0
C892 C 0.76101 0.71601 0.40113 0.0
C893 C 0.7567 0.73654 0.42763 0.0
C894 C 0.78569 0.73356 0.32842 0.0
C895 C 0.76847 0.75469 0.40749 0.0
C896 C 0.80407 0.75412 0.24405 0.0
C897 C 0.82559 0.71655 0.20618 0.0
N898 N 0.7821 0.75284 0.3583 0.0
N899 N 0.81019 0.71558 0.25225 0.0
H900 H 0.52724 0.52899 0.41823 0.0
H901 H 0.59418 0.45663 0.66107 0.0
H902 H 0.59671 0.53857 0.4376 0.0
H903 H 0.52531 0.47121 0.66905 0.0
H904 H 0.59787 0.48259 0.57249 0.0
H905 H 0.52836 0.50173 0.49971 0.0
C906 C 0.54287 0.52489 0.43916 0.0
C907 C 0.56174 0.5364 0.42378 0.0
C908 C 0.58205 0.48004 0.59407 0.0
C909 C 0.56345 0.50447 0.51514 0.0
C910 C 0.57999 0.46547 0.64437 0.0
C911 C 0.55926 0.46142 0.66987 0.0
C912 C 0.56322 0.49025 0.57051 0.0
C913 C 0.54138 0.47336 0.64861 0.0
C914 C 0.54358 0.50917 0.48531 0.0
C915 C 0.58177 0.53015 0.4501 0.0
N916 N 0.54371 0.48691 0.59935 0.0
N917 N 0.58213 0.51461 0.49585 0.0
H918 H 0.83709 0.29867 0.91185 0.0
H919 H 0.76515 0.23025 0.67142 0.0
H920 H 0.82337 0.22961 0.92167 0.0
H921 H 0.75546 0.29984 0.68784 0.0
H922 H 0.79211 0.23178 0.75368 0.0
H923 H 0.81076 0.30183 0.82407 0.0
C924 C 0.82833 0.28433 0.89581 0.0
C925 C 0.83275 0.26371 0.92149 0.0
C926 C 0.78467 0.24693 0.73857 0.0
C927 C 0.80347 0.26706 0.82311 0.0
C928 C 0.76914 0.24598 0.69194 0.0
C929 C 0.75768 0.26478 0.67548 0.0
C930 C 0.78926 0.26696 0.76772 0.0
C931 C 0.76382 0.28495 0.70121 0.0
C932 C 0.81354 0.28609 0.84596 0.0
C933 C 0.82091 0.24562 0.90108 0.0
N934 N 0.77919 0.28554 0.74739 0.0
N935 N 0.80712 0.24766 0.8523 0.0
H936 H 0.26563 0.26504 0.94536 0.0
H937 H 0.33841 0.1951 0.71398 0.0
H938 H 0.25177 0.19615 0.92892 0.0
H939 H 0.32208 0.26338 0.69507 0.0
H940 H 0.31066 0.19194 0.79853 0.0
H941 H 0.29189 0.26203 0.86217 0.0
C942 C 0.26862 0.24909 0.92483 0.0
C943 C 0.25611 0.23101 0.94149 0.0
C944 C 0.31311 0.20743 0.77496 0.0
C945 C 0.28747 0.227 0.84909 0.0
C946 C 0.32872 0.20921 0.72704 0.0
C947 C 0.33276 0.2297 0.69989 0.0
C948 C 0.30194 0.22632 0.79431 0.0
C949 C 0.31986 0.24749 0.71665 0.0
C950 C 0.28384 0.24728 0.87782 0.0
C951 C 0.261 0.21051 0.9155 0.0
N952 N 0.30534 0.24545 0.76353 0.0
N953 N 0.27639 0.20899 0.86942 0.0
H954 H 0.32371 0.72759 0.45375 0.0
H955 H 0.25154 0.79515 0.21166 0.0
H956 H 0.33303 0.79719 0.43621 0.0
H957 H 0.26609 0.72624 0.20312 0.0
H958 H 0.27721 0.79866 0.30099 0.0
H959 H 0.29626 0.72893 0.37287 0.0
C960 C 0.31951 0.74328 0.43336 0.0
C961 C 0.33102 0.76215 0.44898 0.0
C962 C 0.2747 0.78288 0.27914 0.0
C963 C 0.29892 0.76409 0.35825 0.0
C964 C 0.26031 0.78091 0.2284 0.0
C965 C 0.25635 0.76023 0.20249 0.0
C966 C 0.2848 0.76397 0.30272 0.0
C967 C 0.26818 0.74229 0.22383 0.0
C968 C 0.30369 0.74412 0.38756 0.0
C969 C 0.32463 0.78226 0.42344 0.0
N970 N 0.28154 0.74451 0.27351 0.0
N971 N 0.30904 0.78273 0.3779 0.0
H972 H 0.48996 0.95342 0.45379 0.0
H973 H 0.56047 0.02652 0.68281 0.0
H974 H 0.55785 0.97074 0.43159 0.0
H975 H 0.49142 0.03987 0.66995 0.0
H976 H 0.55719 0.00037 0.59937 0.0
H977 H 0.48696 0.98101 0.5389 0.0
C978 C 0.50399 0.96331 0.46618 0.0
C979 C 0.52435 0.95962 0.43785 0.0
C980 C 0.54247 0.00828 0.61585 0.0
C981 C 0.52118 0.99021 0.53301 0.0
C982 C 0.54444 0.02344 0.66302 0.0
C983 C 0.52637 0.03578 0.68072 0.0
C984 C 0.52206 0.00454 0.58807 0.0
C985 C 0.50577 0.03077 0.65571 0.0
C986 C 0.50232 0.97883 0.51443 0.0
C987 C 0.54206 0.97274 0.45392 0.0
N988 N 0.50409 0.01544 0.60946 0.0
N989 N 0.54013 0.98712 0.50118 0.0
H990 H 0.10001 0.04413 0.96502 0.0
H991 H 0.03213 0.96909 0.19599 0.0
H992 H 0.03229 0.02579 0.94589 0.0
H993 H 0.10157 0.95815 0.1815 0.0
H994 H 0.0343 0.99547 0.11287 0.0
H995 H 0.10389 0.01665 0.05004 0.0
C996 C 0.08618 0.03407 0.97816 0.0
C997 C 0.06562 0.03745 0.95077 0.0
C998 C 0.04932 0.98805 0.12892 0.0
C999 C 0.06979 0.00693 0.04578 0.0
C1000 C 0.048 0.97276 0.17593 0.0
C1001 C 0.06653 0.96102 0.19309 0.0
C1002 C 0.06951 0.9925 0.10068 0.0
C1003 C 0.08688 0.96677 0.1677 0.0
C1004 C 0.08836 0.01861 0.02636 0.0
C1005 C 0.04821 0.02407 0.96764 0.0
N1006 N 0.0879 0.98219 0.12157 0.0
N1007 N 0.05061 0.00972 0.0148 0.0
H1008 H 0.0459 0.43645 0.61079 0.0
H1009 H 0.04949 0.56343 0.52377 0.0
H1010 H 0.06589 0.48539 0.74475 0.0
H1011 H 0.06239 0.51337 0.38609 0.0
H1012 H 0.05084 0.53526 0.6064 0.0
H1013 H 0.04724 0.46448 0.52771 0.0
C1014 C 0.05072 0.45298 0.6227 0.0
C1015 C 0.05596 0.45844 0.68491 0.0
C1016 C 0.0535 0.53052 0.55805 0.0
C1017 C 0.05692 0.49074 0.59044 0.0
C1018 C 0.05275 0.5466 0.51092 0.0
C1019 C 0.05601 0.54087 0.44781 0.0
C1020 C 0.05695 0.50844 0.5419 0.0
C1021 C 0.06 0.51868 0.43406 0.0
C1022 C 0.05146 0.46898 0.57532 0.0
C1023 C 0.06191 0.48028 0.69749 0.0
N1024 N 0.06011 0.50332 0.48039 0.0
N1025 N 0.062 0.49559 0.65106 0.0
H1026 H 0.83439 0.7967 0.92963 0.0
H1027 H 0.74785 0.72909 0.73277 0.0
H1028 H 0.84475 0.72841 0.8897 0.0
H1029 H 0.76468 0.79477 0.67759 0.0
H1030 H 0.77849 0.72941 0.80767 0.0
H1031 H 0.80478 0.79734 0.85157 0.0
C1032 C 0.8307 0.78194 0.90357 0.0
C1033 C 0.84235 0.76257 0.9154 0.0
C1034 C 0.77531 0.7438 0.77951 0.0
C1035 C 0.80772 0.76293 0.82844 0.0
C1036 C 0.75766 0.74375 0.7374 0.0
C1037 C 0.75355 0.76201 0.69917 0.0
C1038 C 0.78865 0.76243 0.78467 0.0
C1039 C 0.76715 0.78039 0.70635 0.0
C1040 C 0.81373 0.7823 0.85939 0.0
C1041 C 0.83653 0.74381 0.88115 0.0
N1042 N 0.78394 0.78021 0.74849 0.0
N1043 N 0.81941 0.74436 0.84003 0.0
H1044 H 0.56953 0.55178 0.12825 0.0
H1045 H 0.50051 0.46752 0.926 0.0
H1046 H 0.50287 0.53717 0.17837 0.0
H1047 H 0.56795 0.45482 0.97144 0.0
H1048 H 0.50033 0.49762 1.00261 0.0
H1049 H 0.56866 0.52158 0.05185 0.0
C1050 C 0.55454 0.54262 0.12203 0.0
C1051 C 0.53617 0.54717 0.15938 0.0
C1052 C 0.51509 0.4881 0.99616 0.0
C1053 C 0.53511 0.51255 0.07228 0.0
C1054 C 0.51519 0.47086 0.95277 0.0
C1055 C 0.53418 0.45838 0.94301 0.0
C1056 C 0.53436 0.4935 0.02844 0.0
C1057 C 0.55284 0.46372 0.97829 0.0
C1058 C 0.55416 0.5252 0.07911 0.0
C1059 C 0.51734 0.53435 0.15027 0.0
N1060 N 0.55257 0.48106 0.01869 0.0
N1061 N 0.51723 0.51776 0.10745 0.0
H1062 H 0.84211 0.27197 0.2257 0.0
H1063 H 0.75589 0.20515 0.42606 0.0
H1064 H 0.82544 0.20598 0.17319 0.0
H1065 H 0.74515 0.27309 0.38234 0.0
H1066 H 0.78558 0.20418 0.34822 0.0
H1067 H 0.81157 0.2719 0.30096 0.0
C1068 C 0.83237 0.2573 0.23101 0.0
C1069 C 0.83648 0.23888 0.1934 0.0
C1070 C 0.77654 0.21921 0.3552 0.0
C1071 C 0.8015 0.23873 0.27934 0.0
C1072 C 0.75952 0.21976 0.39927 0.0
C1073 C 0.74774 0.23913 0.40996 0.0
C1074 C 0.78244 0.2384 0.3232 0.0
C1075 C 0.75348 0.2577 0.37474 0.0
C1076 C 0.81477 0.25738 0.27332 0.0
C1077 C 0.82295 0.22048 0.20145 0.0
N1078 N 0.77063 0.25698 0.33373 0.0
N1079 N 0.80622 0.2208 0.24378 0.0
H1080 H 0.35724 0.25216 0.36167 0.0
H1081 H 0.22997 0.2523 0.27758 0.0
H1082 H 0.30818 0.26877 0.49898 0.0
H1083 H 0.27912 0.2699 0.14158 0.0
H1084 H 0.25831 0.25304 0.35989 0.0
H1085 H 0.32882 0.25334 0.27966 0.0
C1086 C 0.34059 0.25617 0.37456 0.0
C1087 C 0.33522 0.26057 0.43735 0.0
C1088 C 0.26279 0.25685 0.31197 0.0
C1089 C 0.3025 0.26132 0.34411 0.0
C1090 C 0.24661 0.25645 0.26505 0.0
C1091 C 0.25204 0.26125 0.20253 0.0
C1092 C 0.28467 0.26148 0.29604 0.0
C1093 C 0.27403 0.26632 0.18911 0.0
C1094 C 0.32437 0.25683 0.3278 0.0
C1095 C 0.31322 0.26549 0.45121 0.0
N1096 N 0.28949 0.26608 0.2351 0.0
N1097 N 0.29772 0.26551 0.40533 0.0
H1098 H 0.33534 0.70227 0.69761 0.0
H1099 H 0.24848 0.76884 0.8965 0.0
H1100 H 0.3453 0.77049 0.7392 0.0
H1101 H 0.26545 0.70296 0.94928 0.0
H1102 H 0.27915 0.76894 0.82167 0.0
H1103 H 0.30574 0.70122 0.77569 0.0
C1104 C 0.33157 0.71692 0.72404 0.0
C1105 C 0.3431 0.7364 0.71265 0.0
C1106 C 0.276 0.75442 0.8493 0.0
C1107 C 0.30847 0.73558 0.79967 0.0
C1108 C 0.25833 0.75423 0.89136 0.0
C1109 C 0.25425 0.73579 0.9289 0.0
C1110 C 0.28939 0.73584 0.84346 0.0
C1111 C 0.2679 0.71748 0.92108 0.0
C1112 C 0.31459 0.71634 0.76824 0.0
C1113 C 0.33718 0.75502 0.74739 0.0
N1114 N 0.28471 0.71789 0.87899 0.0
N1115 N 0.32006 0.75425 0.78851 0.0
H1116 H 0.54965 0.93581 0.101 0.0
H1117 H 0.54765 0.06301 0.01594 0.0
H1118 H 0.56419 0.98524 0.23915 0.0
H1119 H 0.56696 0.01401 0.88131 0.0
H1120 H 0.54868 0.03481 0.0987 0.0
H1121 H 0.55092 0.9642 0.01898 0.0
C1122 C 0.55324 0.95254 0.11407 0.0
C1123 C 0.55702 0.95802 0.17711 0.0
C1124 C 0.55281 0.03034 0.05099 0.0
C1125 C 0.55787 0.99073 0.08377 0.0
C1126 C 0.55225 0.04643 0.00381 0.0
C1127 C 0.55741 0.04101 0.94151 0.0
C1128 C 0.55798 0.00853 0.03555 0.0
C1129 C 0.56306 0.01911 0.92864 0.0
C1130 C 0.55395 0.96875 0.0673 0.0
C1131 C 0.56141 0.98012 0.19119 0.0
N1132 N 0.56296 0.00372 0.97485 0.0
N1133 N 0.56148 0.99562 0.14522 0.0
H1134 H 0.04251 0.0612 0.61217 0.0
H1135 H 0.04595 0.93389 0.52851 0.0
H1136 H 0.02717 0.01179 0.74967 0.0
H1137 H 0.02688 0.98246 0.39237 0.0
H1138 H 0.04435 0.96226 0.61074 0.0
H1139 H 0.04208 0.0327 0.53028 0.0
C1140 C 0.03893 0.04445 0.62513 0.0
C1141 C 0.03467 0.039 0.68794 0.0
C1142 C 0.04041 0.9666 0.56281 0.0
C1143 C 0.03479 0.0062 0.59483 0.0
C1144 C 0.0413 0.95041 0.51593 0.0
C1145 C 0.03635 0.95566 0.45339 0.0
C1146 C 0.03513 0.98833 0.54682 0.0
C1147 C 0.03061 0.97749 0.43993 0.0
C1148 C 0.0387 0.02819 0.57843 0.0
C1149 C 0.03032 0.01689 0.70189 0.0
N1150 N 0.03039 0.99298 0.48587 0.0
N1151 N 0.03072 0.00135 0.65606 0.0
loop_
_geom_bond_atom_site_label_1
_geom_bond_atom_site_label_2
_geom_bond_distance
_geom_bond_site_symmetry_2
_ccdc_geom_bond_type
Mn0 O5 2.095 . S
Mn0 O15 2.162 . S
Mn0 O16 2.297 . S
Mn0 O24 2.385 . S
Mn0 O25 2.209 . S
Mn0 O26 2.094 . S
Mn1 O6 2.121 . S
Mn1 N8 2.257 . S
Mn1 N17 2.282 . S
Mn1 O25 2.215 . S
Mn1 O27 2.117 . S
C2 O24 1.234 . S
C2 O25 1.283 . S
C3 O15 1.281 . S
C3 O16 1.236 . S
C4 O26 1.240 . S
C4 O27 1.264 . S
O5 Mn0 2.095 . S
O5 C14 1.250 . S
O6 Mn1 2.121 . S
O6 C14 1.258 . S
C7 N8 1.326 . S
C7 C11 1.460 . S
C7 H13 0.929 . S
N8 Mn1 2.257 . S
N8 C7 1.326 . S
N8 C12 1.362 . S
C9 C10 1.258 . S
C9 C12 1.431 1_556 S
C9 C29 1.449 . S
C10 C9 1.258 . S
C10 C11 1.477 1_556 S
C10 H30 0.931 . S
C11 C7 1.460 . S
C11 C10 1.477 1_554 S
C11 H31 0.930 . S
C12 N8 1.362 . S
C12 C9 1.431 1_554 S
C12 C22 1.476 . S
H13 C7 0.929 . S
C14 O5 1.250 . S
C14 O6 1.258 . S
O15 Mn0 2.162 . S
O15 C3 1.281 . S
O16 Mn0 2.297 . S
O16 C3 1.236 . S
N17 Mn1 2.282 . S
N17 C18 1.328 . S
N17 C22 1.318 . S
C18 N17 1.328 . S
C18 C19 1.457 . S
C18 H23 0.929 . S
C19 C18 1.457 . S
C19 C20 1.291 1_554 S
C19 H32 0.931 1_455 S
C20 C19 1.291 1_556 S
C20 C21 1.373 . S
C20 H33 0.929 . S
C21 C20 1.373 . S
C21 C22 1.396 1_556 S
C21 C28 1.403 . S
C22 C12 1.476 . S
C22 N17 1.318 . S
C22 C21 1.396 1_554 S
H23 C18 0.929 . S
O24 Mn0 2.385 . S
O24 C2 1.234 . S
O25 Mn0 2.209 . S
O25 Mn1 2.215 . S
O25 C2 1.283 . S
O26 Mn0 2.094 . S
O26 C4 1.240 . S
O27 Mn1 2.117 . S
O27 C4 1.264 . S
C28 C21 1.403 . S
C28 C29 1.399 . S
C28 H34 0.929 . S
C29 C9 1.449 . S
C29 C28 1.399 . S
C29 H35 0.930 . S
H30 C10 0.931 . S
H31 C11 0.930 . S
H32 C19 0.931 1_655 S
H33 C20 0.929 . S
H34 C28 0.929 . S
H35 C29 0.930 . S
Mn36 O41 2.095 . S
Mn36 O51 2.162 . S
Mn36 O52 2.297 . S
Mn36 O60 2.385 . S
Mn36 O61 2.209 . S
Mn36 O62 2.094 . S
Mn37 O42 2.121 . S
Mn37 N44 2.257 . S
Mn37 N53 2.282 . S
Mn37 O61 2.215 . S
Mn37 O63 2.117 . S
C38 O60 1.234 . S
C38 O61 1.283 . S
C39 O51 1.281 . S
C39 O52 1.236 . S
C40 O62 1.240 . S
C40 O63 1.264 . S
O41 Mn36 2.095 . S
O41 C50 1.250 . S
O42 Mn37 2.121 . S
O42 C50 1.258 . S
C43 N44 1.326 . S
C43 C47 1.460 . S
C43 H49 0.929 . S
N44 Mn37 2.257 . S
N44 C43 1.326 . S
N44 C48 1.362 . S
C45 C46 1.258 . S
C45 C48 1.431 . S
C45 C65 1.449 . S
C46 C45 1.258 . S
C46 C47 1.477 . S
C46 H66 0.931 . S
C47 C43 1.460 . S
C47 C46 1.477 . S
C47 H67 0.930 . S
C48 N44 1.362 . S
C48 C45 1.431 . S
C48 C58 1.476 . S
H49 C43 0.929 . S
C50 O41 1.250 . S
C50 O42 1.258 . S
O51 Mn36 2.162 . S
O51 C39 1.281 . S
O52 Mn36 2.297 . S
O52 C39 1.236 . S
N53 Mn37 2.282 . S
N53 C54 1.328 . S
N53 C58 1.318 . S
C54 N53 1.328 . S
C54 C55 1.457 . S
C54 H59 0.929 . S
C55 C54 1.457 . S
C55 C56 1.291 . S
C55 H68 0.931 . S
C56 C55 1.291 . S
C56 C57 1.373 . S
C56 H69 0.929 . S
C57 C56 1.373 . S
C57 C58 1.396 . S
C57 C64 1.403 . S
C58 C48 1.476 . S
C58 N53 1.318 . S
C58 C57 1.396 . S
H59 C54 0.929 . S
O60 Mn36 2.385 . S
O60 C38 1.234 . S
O61 Mn36 2.209 . S
O61 Mn37 2.215 . S
O61 C38 1.283 . S
O62 Mn36 2.094 . S
O62 C40 1.240 . S
O63 Mn37 2.117 . S
O63 C40 1.264 . S
C64 C57 1.403 . S
C64 C65 1.399 . S
C64 H70 0.929 . S
C65 C45 1.449 . S
C65 C64 1.399 . S
C65 H71 0.930 . S
H66 C46 0.931 . S
H67 C47 0.930 . S
H68 C55 0.931 . S
H69 C56 0.929 . S
H70 C64 0.929 . S
H71 C65 0.930 . S
Mn72 O77 2.095 . S
Mn72 O87 2.162 . S
Mn72 O88 2.297 . S
Mn72 O96 2.385 . S
Mn72 O97 2.209 . S
Mn72 O98 2.094 . S
Mn73 O78 2.121 . S
Mn73 N80 2.257 . S
Mn73 N89 2.282 . S
Mn73 O97 2.215 . S
Mn73 O99 2.117 . S
C74 O96 1.234 . S
C74 O97 1.283 . S
C75 O87 1.281 . S
C75 O88 1.236 . S
C76 O98 1.240 . S
C76 O99 1.264 . S
O77 Mn72 2.095 . S
O77 C86 1.250 . S
O78 Mn73 2.121 . S
O78 C86 1.258 . S
C79 N80 1.326 . S
C79 C83 1.460 . S
C79 H85 0.929 . S
N80 Mn73 2.257 . S
N80 C79 1.326 . S
N80 C84 1.362 . S
C81 C82 1.258 . S
C81 C84 1.431 . S
C81 C101 1.449 . S
C82 C81 1.258 . S
C82 C83 1.477 . S
C82 H102 0.931 . S
C83 C79 1.460 . S
C83 C82 1.477 . S
C83 H103 0.930 . S
C84 N80 1.362 . S
C84 C81 1.431 . S
C84 C94 1.476 . S
H85 C79 0.929 . S
C86 O77 1.250 . S
C86 O78 1.258 . S
O87 Mn72 2.162 . S
O87 C75 1.281 . S
O88 Mn72 2.297 . S
O88 C75 1.236 . S
N89 Mn73 2.282 . S
N89 C90 1.328 . S
N89 C94 1.318 . S
C90 N89 1.328 . S
C90 C91 1.457 . S
C90 H95 0.929 . S
C91 C90 1.457 . S
C91 C92 1.291 . S
C91 H104 0.931 . S
C92 C91 1.291 . S
C92 C93 1.373 . S
C92 H105 0.929 . S
C93 C92 1.373 . S
C93 C94 1.396 . S
C93 C100 1.403 . S
C94 C84 1.476 . S
C94 N89 1.318 . S
C94 C93 1.396 . S
H95 C90 0.929 . S
O96 Mn72 2.385 . S
O96 C74 1.234 . S
O97 Mn72 2.209 . S
O97 Mn73 2.215 . S
O97 C74 1.283 . S
O98 Mn72 2.094 . S
O98 C76 1.240 . S
O99 Mn73 2.117 . S
O99 C76 1.264 . S
C100 C93 1.403 . S
C100 C101 1.399 . S
C100 H106 0.929 . S
C101 C81 1.449 . S
C101 C100 1.399 . S
C101 H107 0.930 . S
H102 C82 0.931 . S
H103 C83 0.930 . S
H104 C91 0.931 . S
H105 C92 0.929 . S
H106 C100 0.929 . S
H107 C101 0.930 . S
Mn108 O113 2.095 . S
Mn108 O123 2.162 . S
Mn108 O124 2.297 . S
Mn108 O132 2.385 1_554 S
Mn108 O133 2.209 1_554 S
Mn108 O134 2.094 . S
Mn109 O114 2.121 . S
Mn109 N116 2.257 . S
Mn109 N125 2.282 . S
Mn109 O133 2.215 . S
Mn109 O135 2.117 . S
C110 O132 1.234 . S
C110 O133 1.283 . S
C111 O123 1.281 . S
C111 O124 1.236 . S
C112 O134 1.240 1_556 S
C112 O135 1.264 . S
O113 Mn108 2.095 . S
O113 C122 1.250 1_554 S
O114 Mn109 2.121 . S
O114 C122 1.258 . S
C115 N116 1.326 . S
C115 C119 1.460 . S
C115 H121 0.929 . S
N116 Mn109 2.257 . S
N116 C115 1.326 . S
N116 C120 1.362 . S
C117 C118 1.258 . S
C117 C120 1.431 . S
C117 C137 1.449 . S
C118 C117 1.258 . S
C118 C119 1.477 . S
C118 H138 0.931 . S
C119 C115 1.460 . S
C119 C118 1.477 . S
C119 H139 0.930 . S
C120 N116 1.362 . S
C120 C117 1.431 . S
C120 C130 1.476 . S
H121 C115 0.929 . S
C122 O113 1.250 1_556 S
C122 O114 1.258 . S
O123 Mn108 2.162 . S
O123 C111 1.281 . S
O124 Mn108 2.297 . S
O124 C111 1.236 . S
N125 Mn109 2.282 . S
N125 C126 1.328 . S
N125 C130 1.318 . S
C126 N125 1.328 . S
C126 C127 1.457 . S
C126 H131 0.929 . S
C127 C126 1.457 . S
C127 C128 1.291 . S
C127 H140 0.931 . S
C128 C127 1.291 . S
C128 C129 1.373 . S
C128 H141 0.929 . S
C129 C128 1.373 . S
C129 C130 1.396 . S
C129 C136 1.403 . S
C130 C120 1.476 . S
C130 N125 1.318 . S
C130 C129 1.396 . S
H131 C126 0.929 . S
O132 Mn108 2.385 1_556 S
O132 C110 1.234 . S
O133 Mn108 2.209 1_556 S
O133 Mn109 2.215 . S
O133 C110 1.283 . S
O134 Mn108 2.094 . S
O134 C112 1.240 1_554 S
O135 Mn109 2.117 . S
O135 C112 1.264 . S
C136 C129 1.403 . S
C136 C137 1.399 . S
C136 H142 0.929 . S
C137 C117 1.449 . S
C137 C136 1.399 . S
C137 H143 0.930 . S
H138 C118 0.931 . S
H139 C119 0.930 . S
H140 C127 0.931 . S
H141 C128 0.929 . S
H142 C136 0.929 . S
H143 C137 0.930 . S
Mn144 O149 2.095 . S
Mn144 O159 2.162 . S
Mn144 O160 2.297 . S
Mn144 O168 2.385 . S
Mn144 O169 2.209 . S
Mn144 O170 2.094 . S
Mn145 O150 2.121 . S
Mn145 N152 2.257 1_556 S
Mn145 N161 2.282 1_556 S
Mn145 O169 2.215 . S
Mn145 O171 2.117 . S
C146 O168 1.234 . S
C146 O169 1.283 . S
C147 O159 1.281 . S
C147 O160 1.236 . S
C148 O170 1.240 . S
C148 O171 1.264 . S
O149 Mn144 2.095 . S
O149 C158 1.250 . S
O150 Mn145 2.121 . S
O150 C158 1.258 . S
C151 N152 1.326 . S
C151 C155 1.460 . S
C151 H157 0.929 . S
N152 Mn145 2.257 1_554 S
N152 C151 1.326 . S
N152 C156 1.362 . S
C153 C154 1.258 . S
C153 C156 1.431 . S
C153 C173 1.449 . S
C154 C153 1.258 . S
C154 C155 1.477 . S
C154 H174 0.931 . S
C155 C151 1.460 . S
C155 C154 1.477 . S
C155 H175 0.930 . S
C156 N152 1.362 . S
C156 C153 1.431 . S
C156 C166 1.476 . S
H157 C151 0.929 . S
C158 O149 1.250 . S
C158 O150 1.258 . S
O159 Mn144 2.162 . S
O159 C147 1.281 . S
O160 Mn144 2.297 . S
O160 C147 1.236 . S
N161 Mn145 2.282 1_554 S
N161 C162 1.328 . S
N161 C166 1.318 . S
C162 N161 1.328 . S
C162 C163 1.457 . S
C162 H167 0.929 . S
C163 C162 1.457 . S
C163 C164 1.291 . S
C163 H176 0.931 1_455 S
C164 C163 1.291 . S
C164 C165 1.373 . S
C164 H177 0.929 . S
C165 C164 1.373 . S
C165 C166 1.396 . S
C165 C172 1.403 . S
C166 C156 1.476 . S
C166 N161 1.318 . S
C166 C165 1.396 . S
H167 C162 0.929 . S
O168 Mn144 2.385 . S
O168 C146 1.234 . S
O169 Mn144 2.209 . S
O169 Mn145 2.215 . S
O169 C146 1.283 . S
O170 Mn144 2.094 . S
O170 C148 1.240 . S
O171 Mn145 2.117 . S
O171 C148 1.264 . S
C172 C165 1.403 . S
C172 C173 1.399 . S
C172 H178 0.929 . S
C173 C153 1.449 . S
C173 C172 1.399 . S
C173 H179 0.930 . S
H174 C154 0.931 . S
H175 C155 0.930 . S
H176 C163 0.931 1_655 S
H177 C164 0.929 . S
H178 C172 0.929 . S
H179 C173 0.930 . S
Mn180 O185 2.095 . S
Mn180 O195 2.162 1_554 S
Mn180 O196 2.297 . S
Mn180 O204 2.385 . S
Mn180 O205 2.209 . S
Mn180 O206 2.094 . S
Mn181 O186 2.121 . S
Mn181 N188 2.257 . S
Mn181 N197 2.282 . S
Mn181 O205 2.215 . S
Mn181 O207 2.117 . S
C182 O204 1.234 . S
C182 O205 1.283 . S
C183 O195 1.281 . S
C183 O196 1.236 1_556 S
C184 O206 1.240 . S
C184 O207 1.264 . S
O185 Mn180 2.095 . S
O185 C194 1.250 . S
O186 Mn181 2.121 . S
O186 C194 1.258 . S
C187 N188 1.326 . S
C187 C191 1.460 . S
C187 H193 0.929 . S
N188 Mn181 2.257 . S
N188 C187 1.326 . S
N188 C192 1.362 . S
C189 C190 1.258 . S
C189 C192 1.431 . S
C189 C209 1.449 . S
C190 C189 1.258 . S
C190 C191 1.477 . S
C190 H210 0.931 . S
C191 C187 1.460 . S
C191 C190 1.477 . S
C191 H211 0.930 . S
C192 N188 1.362 . S
C192 C189 1.431 . S
C192 C202 1.476 . S
H193 C187 0.929 . S
C194 O185 1.250 . S
C194 O186 1.258 . S
O195 Mn180 2.162 1_556 S
O195 C183 1.281 . S
O196 Mn180 2.297 . S
O196 C183 1.236 1_554 S
N197 Mn181 2.282 . S
N197 C198 1.328 . S
N197 C202 1.318 . S
C198 N197 1.328 . S
C198 C199 1.457 . S
C198 H203 0.929 . S
C199 C198 1.457 . S
C199 C200 1.291 . S
C199 H212 0.931 . S
C200 C199 1.291 . S
C200 C201 1.373 . S
C200 H213 0.929 . S
C201 C200 1.373 . S
C201 C202 1.396 . S
C201 C208 1.403 . S
C202 C192 1.476 . S
C202 N197 1.318 . S
C202 C201 1.396 . S
H203 C198 0.929 . S
O204 Mn180 2.385 . S
O204 C182 1.234 . S
O205 Mn180 2.209 . S
O205 Mn181 2.215 . S
O205 C182 1.283 . S
O206 Mn180 2.094 . S
O206 C184 1.240 . S
O207 Mn181 2.117 . S
O207 C184 1.264 . S
C208 C201 1.403 . S
C208 C209 1.399 . S
C208 H214 0.929 . S
C209 C189 1.449 . S
C209 C208 1.399 . S
C209 H215 0.930 . S
H210 C190 0.931 . S
H211 C191 0.930 . S
H212 C199 0.931 . S
H213 C200 0.929 . S
H214 C208 0.929 . S
H215 C209 0.930 . S
Mn216 O221 2.095 . S
Mn216 O231 2.162 . S
Mn216 O232 2.297 . S
Mn216 O240 2.385 . S
Mn216 O241 2.209 . S
Mn216 O242 2.094 . S
Mn217 O222 2.121 . S
Mn217 N224 2.257 . S
Mn217 N233 2.282 . S
Mn217 O241 2.215 . S
Mn217 O243 2.117 . S
C218 O240 1.234 . S
C218 O241 1.283 . S
C219 O231 1.281 . S
C219 O232 1.236 . S
C220 O242 1.240 . S
C220 O243 1.264 . S
O221 Mn216 2.095 . S
O221 C230 1.250 . S
O222 Mn217 2.121 . S
O222 C230 1.258 . S
C223 N224 1.326 . S
C223 C227 1.460 . S
C223 H229 0.929 . S
N224 Mn217 2.257 . S
N224 C223 1.326 . S
N224 C228 1.362 . S
C225 C226 1.258 . S
C225 C228 1.431 . S
C225 C245 1.449 . S
C226 C225 1.258 . S
C226 C227 1.477 . S
C226 H246 0.931 . S
C227 C223 1.460 . S
C227 C226 1.477 . S
C227 H247 0.930 . S
C228 N224 1.362 . S
C228 C225 1.431 . S
C228 C238 1.476 . S
H229 C223 0.929 . S
C230 O221 1.250 . S
C230 O222 1.258 . S
O231 Mn216 2.162 . S
O231 C219 1.281 . S
O232 Mn216 2.297 . S
O232 C219 1.236 . S
N233 Mn217 2.282 . S
N233 C234 1.328 . S
N233 C238 1.318 . S
C234 N233 1.328 . S
C234 C235 1.457 . S
C234 H239 0.929 . S
C235 C234 1.457 . S
C235 C236 1.291 . S
C235 H248 0.931 . S
C236 C235 1.291 . S
C236 C237 1.373 . S
C236 H249 0.929 . S
C237 C236 1.373 . S
C237 C238 1.396 . S
C237 C244 1.403 . S
C238 C228 1.476 . S
C238 N233 1.318 . S
C238 C237 1.396 . S
H239 C234 0.929 . S
O240 Mn216 2.385 . S
O240 C218 1.234 . S
O241 Mn216 2.209 . S
O241 Mn217 2.215 . S
O241 C218 1.283 . S
O242 Mn216 2.094 . S
O242 C220 1.240 . S
O243 Mn217 2.117 . S
O243 C220 1.264 . S
C244 C237 1.403 . S
C244 C245 1.399 . S
C244 H250 0.929 . S
C245 C225 1.449 . S
C245 C244 1.399 . S
C245 H251 0.930 . S
H246 C226 0.931 . S
H247 C227 0.930 . S
H248 C235 0.931 . S
H249 C236 0.929 . S
H250 C244 0.929 . S
H251 C245 0.930 . S
Mn252 O257 2.095 . S
Mn252 O267 2.162 . S
Mn252 O268 2.297 . S
Mn252 O276 2.385 . S
Mn252 O277 2.209 . S
Mn252 O278 2.094 . S
Mn253 O258 2.121 . S
Mn253 N260 2.257 . S
Mn253 N269 2.282 . S
Mn253 O277 2.215 . S
Mn253 O279 2.117 . S
C254 O276 1.234 . S
C254 O277 1.283 . S
C255 O267 1.281 . S
C255 O268 1.236 . S
C256 O278 1.240 . S
C256 O279 1.264 . S
O257 Mn252 2.095 . S
O257 C266 1.250 . S
O258 Mn253 2.121 . S
O258 C266 1.258 . S
C259 N260 1.326 . S
C259 C263 1.460 . S
C259 H265 0.929 . S
N260 Mn253 2.257 . S
N260 C259 1.326 . S
N260 C264 1.362 . S
C261 C262 1.258 . S
C261 C264 1.431 . S
C261 C281 1.449 . S
C262 C261 1.258 . S
C262 C263 1.477 . S
C262 H282 0.931 . S
C263 C259 1.460 . S
C263 C262 1.477 . S
C263 H283 0.930 . S
C264 N260 1.362 . S
C264 C261 1.431 . S
C264 C274 1.476 . S
H265 C259 0.929 . S
C266 O257 1.250 . S
C266 O258 1.258 . S
O267 Mn252 2.162 . S
O267 C255 1.281 . S
O268 Mn252 2.297 . S
O268 C255 1.236 . S
N269 Mn253 2.282 . S
N269 C270 1.328 . S
N269 C274 1.318 . S
C270 N269 1.328 . S
C270 C271 1.457 . S
C270 H275 0.929 . S
C271 C270 1.457 . S
C271 C272 1.291 . S
C271 H284 0.931 . S
C272 C271 1.291 . S
C272 C273 1.373 . S
C272 H285 0.929 . S
C273 C272 1.373 . S
C273 C274 1.396 . S
C273 C280 1.403 . S
C274 C264 1.476 . S
C274 N269 1.318 . S
C274 C273 1.396 . S
H275 C270 0.929 . S
O276 Mn252 2.385 . S
O276 C254 1.234 . S
O277 Mn252 2.209 . S
O277 Mn253 2.215 . S
O277 C254 1.283 . S
O278 Mn252 2.094 . S
O278 C256 1.240 . S
O279 Mn253 2.117 . S
O279 C256 1.264 . S
C280 C273 1.403 . S
C280 C281 1.399 . S
C280 H286 0.929 . S
C281 C261 1.449 . S
C281 C280 1.399 . S
C281 H287 0.930 . S
H282 C262 0.931 . S
H283 C263 0.930 . S
H284 C271 0.931 . S
H285 C272 0.929 . S
H286 C280 0.929 . S
H287 C281 0.930 . S
Mn288 O293 2.095 . S
Mn288 O303 2.162 . S
Mn288 O304 2.297 . S
Mn288 O312 2.385 . S
Mn288 O313 2.209 . S
Mn288 O314 2.094 . S
Mn289 O294 2.121 . S
Mn289 N296 2.257 . S
Mn289 N305 2.282 . S
Mn289 O313 2.215 . S
Mn289 O315 2.117 . S
C290 O312 1.234 . S
C290 O313 1.283 . S
C291 O303 1.281 . S
C291 O304 1.236 . S
C292 O314 1.240 . S
C292 O315 1.264 . S
O293 Mn288 2.095 . S
O293 C302 1.250 . S
O294 Mn289 2.121 . S
O294 C302 1.258 . S
C295 N296 1.326 . S
C295 C299 1.460 . S
C295 H301 0.929 . S
N296 Mn289 2.257 . S
N296 C295 1.326 . S
N296 C300 1.362 . S
C297 C298 1.258 . S
C297 C300 1.431 . S
C297 C317 1.449 . S
C298 C297 1.258 . S
C298 C299 1.477 . S
C298 H318 0.931 . S
C299 C295 1.460 . S
C299 C298 1.477 . S
C299 H319 0.930 . S
C300 N296 1.362 . S
C300 C297 1.431 . S
C300 C310 1.476 . S
H301 C295 0.929 . S
C302 O293 1.250 . S
C302 O294 1.258 . S
O303 Mn288 2.162 . S
O303 C291 1.281 . S
O304 Mn288 2.297 . S
O304 C291 1.236 . S
N305 Mn289 2.282 . S
N305 C306 1.328 . S
N305 C310 1.318 . S
C306 N305 1.328 . S
C306 C307 1.457 . S
C306 H311 0.929 . S
C307 C306 1.457 . S
C307 C308 1.291 . S
C307 H320 0.931 . S
C308 C307 1.291 . S
C308 C309 1.373 . S
C308 H321 0.929 . S
C309 C308 1.373 . S
C309 C310 1.396 . S
C309 C316 1.403 . S
C310 C300 1.476 . S
C310 N305 1.318 . S
C310 C309 1.396 . S
H311 C306 0.929 . S
O312 Mn288 2.385 . S
O312 C290 1.234 . S
O313 Mn288 2.209 . S
O313 Mn289 2.215 . S
O313 C290 1.283 . S
O314 Mn288 2.094 . S
O314 C292 1.240 . S
O315 Mn289 2.117 . S
O315 C292 1.264 . S
C316 C309 1.403 . S
C316 C317 1.399 . S
C316 H322 0.929 . S
C317 C297 1.449 . S
C317 C316 1.399 . S
C317 H323 0.930 . S
H318 C298 0.931 . S
H319 C299 0.930 . S
H320 C307 0.931 . S
H321 C308 0.929 . S
H322 C316 0.929 . S
H323 C317 0.930 . S
Mn324 O329 2.095 . S
Mn324 O339 2.162 1_554 S
Mn324 O340 2.297 . S
Mn324 O348 2.385 . S
Mn324 O349 2.209 . S
Mn324 O350 2.094 . S
Mn325 O330 2.121 . S
Mn325 N332 2.257 . S
Mn325 N341 2.282 . S
Mn325 O349 2.215 . S
Mn325 O351 2.117 . S
C326 O348 1.234 . S
C326 O349 1.283 . S
C327 O339 1.281 . S
C327 O340 1.236 1_556 S
C328 O350 1.240 . S
C328 O351 1.264 . S
O329 Mn324 2.095 . S
O329 C338 1.250 . S
O330 Mn325 2.121 . S
O330 C338 1.258 . S
C331 N332 1.326 . S
C331 C335 1.460 . S
C331 H337 0.929 . S
N332 Mn325 2.257 . S
N332 C331 1.326 . S
N332 C336 1.362 . S
C333 C334 1.258 . S
C333 C336 1.431 . S
C333 C353 1.449 . S
C334 C333 1.258 . S
C334 C335 1.477 . S
C334 H354 0.931 . S
C335 C331 1.460 . S
C335 C334 1.477 . S
C335 H355 0.930 . S
C336 N332 1.362 . S
C336 C333 1.431 . S
C336 C346 1.476 . S
H337 C331 0.929 . S
C338 O329 1.250 . S
C338 O330 1.258 . S
O339 Mn324 2.162 1_556 S
O339 C327 1.281 . S
O340 Mn324 2.297 . S
O340 C327 1.236 1_554 S
N341 Mn325 2.282 . S
N341 C342 1.328 . S
N341 C346 1.318 . S
C342 N341 1.328 . S
C342 C343 1.457 . S
C342 H347 0.929 . S
C343 C342 1.457 . S
C343 C344 1.291 . S
C343 H356 0.931 . S
C344 C343 1.291 . S
C344 C345 1.373 . S
C344 H357 0.929 . S
C345 C344 1.373 . S
C345 C346 1.396 . S
C345 C352 1.403 . S
C346 C336 1.476 . S
C346 N341 1.318 . S
C346 C345 1.396 . S
H347 C342 0.929 . S
O348 Mn324 2.385 . S
O348 C326 1.234 . S
O349 Mn324 2.209 . S
O349 Mn325 2.215 . S
O349 C326 1.283 . S
O350 Mn324 2.094 . S
O350 C328 1.240 . S
O351 Mn325 2.117 . S
O351 C328 1.264 . S
C352 C345 1.403 . S
C352 C353 1.399 . S
C352 H358 0.929 . S
C353 C333 1.449 . S
C353 C352 1.399 . S
C353 H359 0.930 . S
H354 C334 0.931 . S
H355 C335 0.930 . S
H356 C343 0.931 . S
H357 C344 0.929 . S
H358 C352 0.929 . S
H359 C353 0.930 . S
Mn360 O365 2.095 . S
Mn360 O375 2.162 . S
Mn360 O376 2.297 . S
Mn360 O384 2.385 1_554 S
Mn360 O385 2.209 1_554 S
Mn360 O386 2.094 . S
Mn361 O366 2.121 . S
Mn361 N368 2.257 . S
Mn361 N377 2.282 . S
Mn361 O385 2.215 . S
Mn361 O387 2.117 . S
C362 O384 1.234 . S
C362 O385 1.283 . S
C363 O375 1.281 . S
C363 O376 1.236 . S
C364 O386 1.240 1_556 S
C364 O387 1.264 . S
O365 Mn360 2.095 . S
O365 C374 1.250 1_554 S
O366 Mn361 2.121 . S
O366 C374 1.258 . S
C367 N368 1.326 . S
C367 C371 1.460 . S
C367 H373 0.929 . S
N368 Mn361 2.257 . S
N368 C367 1.326 . S
N368 C372 1.362 . S
C369 C370 1.258 . S
C369 C372 1.431 . S
C369 C389 1.449 . S
C370 C369 1.258 . S
C370 C371 1.477 . S
C370 H390 0.931 . S
C371 C367 1.460 . S
C371 C370 1.477 . S
C371 H391 0.930 . S
C372 N368 1.362 . S
C372 C369 1.431 . S
C372 C382 1.476 . S
H373 C367 0.929 . S
C374 O365 1.250 1_556 S
C374 O366 1.258 . S
O375 Mn360 2.162 . S
O375 C363 1.281 . S
O376 Mn360 2.297 . S
O376 C363 1.236 . S
N377 Mn361 2.282 . S
N377 C378 1.328 . S
N377 C382 1.318 . S
C378 N377 1.328 . S
C378 C379 1.457 . S
C378 H383 0.929 . S
C379 C378 1.457 . S
C379 C380 1.291 . S
C379 H392 0.931 . S
C380 C379 1.291 . S
C380 C381 1.373 . S
C380 H393 0.929 . S
C381 C380 1.373 . S
C381 C382 1.396 . S
C381 C388 1.403 . S
C382 C372 1.476 . S
C382 N377 1.318 . S
C382 C381 1.396 . S
H383 C378 0.929 . S
O384 Mn360 2.385 1_556 S
O384 C362 1.234 . S
O385 Mn360 2.209 1_556 S
O385 Mn361 2.215 . S
O385 C362 1.283 . S
O386 Mn360 2.094 . S
O386 C364 1.240 1_554 S
O387 Mn361 2.117 . S
O387 C364 1.264 . S
C388 C381 1.403 . S
C388 C389 1.399 . S
C388 H394 0.929 . S
C389 C369 1.449 . S
C389 C388 1.399 . S
C389 H395 0.930 . S
H390 C370 0.931 . S
H391 C371 0.930 . S
H392 C379 0.931 . S
H393 C380 0.929 . S
H394 C388 0.929 . S
H395 C389 0.930 . S
Mn396 O401 2.095 . S
Mn396 O411 2.162 . S
Mn396 O412 2.297 . S
Mn396 O420 2.385 . S
Mn396 O421 2.209 . S
Mn396 O422 2.094 . S
Mn397 O402 2.121 . S
Mn397 N404 2.257 . S
Mn397 N413 2.282 . S
Mn397 O421 2.215 . S
Mn397 O423 2.117 . S
C398 O420 1.234 . S
C398 O421 1.283 . S
C399 O411 1.281 . S
C399 O412 1.236 . S
C400 O422 1.240 . S
C400 O423 1.264 . S
O401 Mn396 2.095 . S
O401 C410 1.250 . S
O402 Mn397 2.121 . S
O402 C410 1.258 . S
C403 N404 1.326 . S
C403 C407 1.460 . S
C403 H409 0.929 . S
N404 Mn397 2.257 . S
N404 C403 1.326 . S
N404 C408 1.362 . S
C405 C406 1.258 . S
C405 C408 1.431 . S
C405 C425 1.449 . S
C406 C405 1.258 . S
C406 C407 1.477 . S
C406 H426 0.931 . S
C407 C403 1.460 . S
C407 C406 1.477 . S
C407 H427 0.930 . S
C408 N404 1.362 . S
C408 C405 1.431 . S
C408 C418 1.476 . S
H409 C403 0.929 . S
C410 O401 1.250 . S
C410 O402 1.258 . S
O411 Mn396 2.162 . S
O411 C399 1.281 . S
O412 Mn396 2.297 . S
O412 C399 1.236 . S
N413 Mn397 2.282 . S
N413 C414 1.328 . S
N413 C418 1.318 . S
C414 N413 1.328 . S
C414 C415 1.457 . S
C414 H419 0.929 . S
C415 C414 1.457 . S
C415 C416 1.291 . S
C415 H428 0.931 . S
C416 C415 1.291 . S
C416 C417 1.373 . S
C416 H429 0.929 . S
C417 C416 1.373 . S
C417 C418 1.396 . S
C417 C424 1.403 . S
C418 C408 1.476 . S
C418 N413 1.318 . S
C418 C417 1.396 . S
H419 C414 0.929 . S
O420 Mn396 2.385 . S
O420 C398 1.234 . S
O421 Mn396 2.209 . S
O421 Mn397 2.215 . S
O421 C398 1.283 . S
O422 Mn396 2.094 . S
O422 C400 1.240 . S
O423 Mn397 2.117 . S
O423 C400 1.264 . S
C424 C417 1.403 . S
C424 C425 1.399 . S
C424 H430 0.929 . S
C425 C405 1.449 . S
C425 C424 1.399 . S
C425 H431 0.930 . S
H426 C406 0.931 . S
H427 C407 0.930 . S
H428 C415 0.931 . S
H429 C416 0.929 . S
H430 C424 0.929 . S
H431 C425 0.930 . S
Mn432 O437 2.095 . S
Mn432 O447 2.162 . S
Mn432 O448 2.297 . S
Mn432 O456 2.385 . S
Mn432 O457 2.209 . S
Mn432 O458 2.094 . S
Mn433 O438 2.121 . S
Mn433 N440 2.257 . S
Mn433 N449 2.282 . S
Mn433 O457 2.215 . S
Mn433 O459 2.117 . S
C434 O456 1.234 . S
C434 O457 1.283 . S
C435 O447 1.281 . S
C435 O448 1.236 . S
C436 O458 1.240 . S
C436 O459 1.264 . S
O437 Mn432 2.095 . S
O437 C446 1.250 . S
O438 Mn433 2.121 . S
O438 C446 1.258 . S
C439 N440 1.326 . S
C439 C443 1.460 . S
C439 H445 0.929 . S
N440 Mn433 2.257 . S
N440 C439 1.326 . S
N440 C444 1.362 . S
C441 C442 1.258 . S
C441 C444 1.431 . S
C441 C461 1.449 . S
C442 C441 1.258 . S
C442 C443 1.477 . S
C442 H462 0.931 . S
C443 C439 1.460 . S
C443 C442 1.477 . S
C443 H463 0.930 . S
C444 N440 1.362 . S
C444 C441 1.431 . S
C444 C454 1.476 . S
H445 C439 0.929 . S
C446 O437 1.250 . S
C446 O438 1.258 . S
O447 Mn432 2.162 . S
O447 C435 1.281 . S
O448 Mn432 2.297 . S
O448 C435 1.236 . S
N449 Mn433 2.282 . S
N449 C450 1.328 . S
N449 C454 1.318 . S
C450 N449 1.328 . S
C450 C451 1.457 . S
C450 H455 0.929 . S
C451 C450 1.457 . S
C451 C452 1.291 . S
C451 H464 0.931 . S
C452 C451 1.291 . S
C452 C453 1.373 . S
C452 H465 0.929 . S
C453 C452 1.373 . S
C453 C454 1.396 . S
C453 C460 1.403 . S
C454 C444 1.476 . S
C454 N449 1.318 . S
C454 C453 1.396 . S
H455 C450 0.929 . S
O456 Mn432 2.385 . S
O456 C434 1.234 . S
O457 Mn432 2.209 . S
O457 Mn433 2.215 . S
O457 C434 1.283 . S
O458 Mn432 2.094 . S
O458 C436 1.240 . S
O459 Mn433 2.117 . S
O459 C436 1.264 . S
C460 C453 1.403 . S
C460 C461 1.399 . S
C460 H466 0.929 . S
C461 C441 1.449 . S
C461 C460 1.399 . S
C461 H467 0.930 . S
H462 C442 0.931 . S
H463 C443 0.930 . S
H464 C451 0.931 . S
H465 C452 0.929 . S
H466 C460 0.929 . S
H467 C461 0.930 . S
Mn468 O473 2.095 . S
Mn468 O483 2.162 . S
Mn468 O484 2.297 . S
Mn468 O492 2.385 . S
Mn468 O493 2.209 . S
Mn468 O494 2.094 . S
Mn469 O474 2.121 . S
Mn469 N476 2.257 . S
Mn469 N485 2.282 . S
Mn469 O493 2.215 . S
Mn469 O495 2.117 . S
C470 O492 1.234 . S
C470 O493 1.283 . S
C471 O483 1.281 . S
C471 O484 1.236 . S
C472 O494 1.240 . S
C472 O495 1.264 . S
O473 Mn468 2.095 . S
O473 C482 1.250 . S
O474 Mn469 2.121 . S
O474 C482 1.258 . S
C475 N476 1.326 1_655 S
C475 C479 1.460 . S
C475 H481 0.929 . S
N476 Mn469 2.257 . S
N476 C475 1.326 1_455 S
N476 C480 1.362 . S
C477 C478 1.258 1_455 S
C477 C480 1.431 1_556 S
C477 C497 1.449 . S
C478 C477 1.258 1_655 S
C478 C479 1.477 1_556 S
C478 H498 0.931 . S
C479 C475 1.460 . S
C479 C478 1.477 1_554 S
C479 H499 0.930 . S
C480 N476 1.362 . S
C480 C477 1.431 1_554 S
C480 C490 1.476 . S
H481 C475 0.929 . S
C482 O473 1.250 . S
C482 O474 1.258 . S
O483 Mn468 2.162 . S
O483 C471 1.281 . S
O484 Mn468 2.297 . S
O484 C471 1.236 . S
N485 Mn469 2.282 . S
N485 C486 1.328 . S
N485 C490 1.318 . S
C486 N485 1.328 . S
C486 C487 1.457 . S
C486 H491 0.929 . S
C487 C486 1.457 . S
C487 C488 1.291 1_554 S
C487 H500 0.931 . S
C488 C487 1.291 1_556 S
C488 C489 1.373 . S
C488 H501 0.929 . S
C489 C488 1.373 . S
C489 C490 1.396 1_556 S
C489 C496 1.403 . S
C490 C480 1.476 . S
C490 N485 1.318 . S
C490 C489 1.396 1_554 S
H491 C486 0.929 . S
O492 Mn468 2.385 . S
O492 C470 1.234 . S
O493 Mn468 2.209 . S
O493 Mn469 2.215 . S
O493 C470 1.283 . S
O494 Mn468 2.094 . S
O494 C472 1.240 . S
O495 Mn469 2.117 . S
O495 C472 1.264 . S
C496 C489 1.403 . S
C496 C497 1.399 . S
C496 H502 0.929 . S
C497 C477 1.449 . S
C497 C496 1.399 . S
C497 H503 0.930 . S
H498 C478 0.931 . S
H499 C479 0.930 . S
H500 C487 0.931 . S
H501 C488 0.929 . S
H502 C496 0.929 . S
H503 C497 0.930 . S
Mn504 O509 2.095 . S
Mn504 O519 2.162 . S
Mn504 O520 2.297 . S
Mn504 O528 2.385 . S
Mn504 O529 2.209 . S
Mn504 O530 2.094 . S
Mn505 O510 2.121 . S
Mn505 N512 2.257 . S
Mn505 N521 2.282 . S
Mn505 O529 2.215 . S
Mn505 O531 2.117 . S
C506 O528 1.234 . S
C506 O529 1.283 . S
C507 O519 1.281 . S
C507 O520 1.236 . S
C508 O530 1.240 . S
C508 O531 1.264 . S
O509 Mn504 2.095 . S
O509 C518 1.250 . S
O510 Mn505 2.121 . S
O510 C518 1.258 . S
C511 N512 1.326 . S
C511 C515 1.460 . S
C511 H517 0.929 . S
N512 Mn505 2.257 . S
N512 C511 1.326 . S
N512 C516 1.362 . S
C513 C514 1.258 . S
C513 C516 1.431 . S
C513 C533 1.449 . S
C514 C513 1.258 . S
C514 C515 1.477 . S
C514 H534 0.931 . S
C515 C511 1.460 . S
C515 C514 1.477 . S
C515 H535 0.930 . S
C516 N512 1.362 . S
C516 C513 1.431 . S
C516 C526 1.476 . S
H517 C511 0.929 . S
C518 O509 1.250 . S
C518 O510 1.258 . S
O519 Mn504 2.162 . S
O519 C507 1.281 . S
O520 Mn504 2.297 . S
O520 C507 1.236 . S
N521 Mn505 2.282 . S
N521 C522 1.328 . S
N521 C526 1.318 . S
C522 N521 1.328 . S
C522 C523 1.457 . S
C522 H527 0.929 . S
C523 C522 1.457 . S
C523 C524 1.291 . S
C523 H536 0.931 . S
C524 C523 1.291 . S
C524 C525 1.373 . S
C524 H537 0.929 . S
C525 C524 1.373 . S
C525 C526 1.396 . S
C525 C532 1.403 . S
C526 C516 1.476 . S
C526 N521 1.318 . S
C526 C525 1.396 . S
H527 C522 0.929 . S
O528 Mn504 2.385 . S
O528 C506 1.234 . S
O529 Mn504 2.209 . S
O529 Mn505 2.215 . S
O529 C506 1.283 . S
O530 Mn504 2.094 . S
O530 C508 1.240 . S
O531 Mn505 2.117 . S
O531 C508 1.264 . S
C532 C525 1.403 . S
C532 C533 1.399 . S
C532 H538 0.929 . S
C533 C513 1.449 . S
C533 C532 1.399 . S
C533 H539 0.930 . S
H534 C514 0.931 . S
H535 C515 0.930 . S
H536 C523 0.931 . S
H537 C524 0.929 . S
H538 C532 0.929 . S
H539 C533 0.930 . S
Mn540 O545 2.095 . S
Mn540 O555 2.162 . S
Mn540 O556 2.297 . S
Mn540 O564 2.385 . S
Mn540 O565 2.209 . S
Mn540 O566 2.094 . S
Mn541 O546 2.121 . S
Mn541 N548 2.257 1_556 S
Mn541 N557 2.282 1_556 S
Mn541 O565 2.215 . S
Mn541 O567 2.117 . S
C542 O564 1.234 . S
C542 O565 1.283 . S
C543 O555 1.281 . S
C543 O556 1.236 . S
C544 O566 1.240 . S
C544 O567 1.264 . S
O545 Mn540 2.095 . S
O545 C554 1.250 . S
O546 Mn541 2.121 . S
O546 C554 1.258 . S
C547 N548 1.326 1_655 S
C547 C551 1.460 . S
C547 H553 0.929 . S
N548 Mn541 2.257 1_554 S
N548 C547 1.326 1_455 S
N548 C552 1.362 . S
C549 C550 1.258 1_455 S
C549 C552 1.431 . S
C549 C569 1.449 . S
C550 C549 1.258 1_655 S
C550 C551 1.477 . S
C550 H570 0.931 . S
C551 C547 1.460 . S
C551 C550 1.477 . S
C551 H571 0.930 . S
C552 N548 1.362 . S
C552 C549 1.431 . S
C552 C562 1.476 . S
H553 C547 0.929 . S
C554 O545 1.250 . S
C554 O546 1.258 . S
O555 Mn540 2.162 . S
O555 C543 1.281 . S
O556 Mn540 2.297 . S
O556 C543 1.236 . S
N557 Mn541 2.282 1_554 S
N557 C558 1.328 . S
N557 C562 1.318 . S
C558 N557 1.328 . S
C558 C559 1.457 . S
C558 H563 0.929 . S
C559 C558 1.457 . S
C559 C560 1.291 . S
C559 H572 0.931 . S
C560 C559 1.291 . S
C560 C561 1.373 . S
C560 H573 0.929 . S
C561 C560 1.373 . S
C561 C562 1.396 . S
C561 C568 1.403 . S
C562 C552 1.476 . S
C562 N557 1.318 . S
C562 C561 1.396 . S
H563 C558 0.929 . S
O564 Mn540 2.385 . S
O564 C542 1.234 . S
O565 Mn540 2.209 . S
O565 Mn541 2.215 . S
O565 C542 1.283 . S
O566 Mn540 2.094 . S
O566 C544 1.240 . S
O567 Mn541 2.117 . S
O567 C544 1.264 . S
C568 C561 1.403 . S
C568 C569 1.399 . S
C568 H574 0.929 . S
C569 C549 1.449 . S
C569 C568 1.399 . S
C569 H575 0.930 . S
H570 C550 0.931 . S
H571 C551 0.930 . S
H572 C559 0.931 . S
H573 C560 0.929 . S
H574 C568 0.929 . S
H575 C569 0.930 . S
H576 C582 0.930 . S
H577 C586 0.930 . S
H578 C591 0.929 . S
H579 C589 0.929 . S
H580 C584 0.929 . S
H581 C590 0.929 . S
C582 H576 0.930 . S
C582 C583 1.367 . S
C582 C590 1.378 . S
C583 C582 1.367 . S
C583 C591 1.433 . S
C584 H580 0.929 . S
C584 C586 1.378 . S
C584 C588 1.350 . S
C585 C588 1.463 . S
C585 C590 1.350 . S
C585 N593 1.427 . S
C586 H577 0.930 . S
C586 C584 1.378 . S
C586 C587 1.367 . S
C587 C586 1.367 . S
C587 C589 1.433 . S
C588 C584 1.350 . S
C588 C585 1.463 . S
C588 N592 1.427 . S
C589 H579 0.929 . S
C589 C587 1.433 . S
C589 N592 1.384 . S
C590 H581 0.929 . S
C590 C582 1.378 . S
C590 C585 1.350 . S
C591 H578 0.929 . S
C591 C583 1.433 . S
C591 N593 1.384 . S
N592 C588 1.427 . S
N592 C589 1.384 . S
N593 C585 1.427 . S
N593 C591 1.384 . S
H594 C600 0.930 . S
H595 C604 0.930 . S
H596 C609 0.929 . S
H597 C607 0.929 . S
H598 C602 0.929 . S
H599 C608 0.929 . S
C600 H594 0.930 . S
C600 C601 1.367 . S
C600 C608 1.378 . S
C601 C600 1.367 . S
C601 C609 1.433 . S
C602 H598 0.929 . S
C602 C604 1.378 . S
C602 C606 1.350 . S
C603 C606 1.463 . S
C603 C608 1.350 . S
C603 N611 1.427 . S
C604 H595 0.930 . S
C604 C602 1.378 . S
C604 C605 1.367 . S
C605 C604 1.367 . S
C605 C607 1.433 . S
C606 C602 1.350 . S
C606 C603 1.463 . S
C606 N610 1.427 . S
C607 H597 0.929 . S
C607 C605 1.433 . S
C607 N610 1.384 . S
C608 H599 0.929 . S
C608 C600 1.378 . S
C608 C603 1.350 . S
C609 H596 0.929 . S
C609 C601 1.433 . S
C609 N611 1.384 . S
N610 C606 1.427 . S
N610 C607 1.384 . S
N611 C603 1.427 . S
N611 C609 1.384 . S
H612 C618 0.930 . S
H613 C622 0.930 . S
H614 C627 0.929 . S
H615 C625 0.929 . S
H616 C620 0.929 . S
H617 C626 0.929 . S
C618 H612 0.930 . S
C618 C619 1.367 . S
C618 C626 1.378 . S
C619 C618 1.367 . S
C619 C627 1.433 . S
C620 H616 0.929 . S
C620 C622 1.378 . S
C620 C624 1.350 . S
C621 C624 1.463 . S
C621 C626 1.350 . S
C621 N629 1.427 . S
C622 H613 0.930 . S
C622 C620 1.378 . S
C622 C623 1.367 . S
C623 C622 1.367 . S
C623 C625 1.433 . S
C624 C620 1.350 . S
C624 C621 1.463 . S
C624 N628 1.427 . S
C625 H615 0.929 . S
C625 C623 1.433 . S
C625 N628 1.384 . S
C626 H617 0.929 . S
C626 C618 1.378 . S
C626 C621 1.350 . S
C627 H614 0.929 . S
C627 C619 1.433 . S
C627 N629 1.384 . S
N628 C624 1.427 . S
N628 C625 1.384 . S
N629 C621 1.427 . S
N629 C627 1.384 . S
H630 C636 0.930 . S
H631 C640 0.930 . S
H632 C645 0.929 . S
H633 C643 0.929 . S
H634 C638 0.929 . S
H635 C644 0.929 . S
C636 H630 0.930 . S
C636 C637 1.367 1_554 S
C636 C644 1.378 . S
C637 C636 1.367 1_556 S
C637 C645 1.433 . S
C638 H634 0.929 . S
C638 C640 1.378 . S
C638 C642 1.350 . S
C639 C642 1.463 . S
C639 C644 1.350 1_556 S
C639 N647 1.427 . S
C640 H631 0.930 . S
C640 C638 1.378 . S
C640 C641 1.367 . S
C641 C640 1.367 . S
C641 C643 1.433 . S
C642 C638 1.350 . S
C642 C639 1.463 . S
C642 N646 1.427 . S
C643 H633 0.929 . S
C643 C641 1.433 . S
C643 N646 1.384 . S
C644 H635 0.929 . S
C644 C636 1.378 . S
C644 C639 1.350 1_554 S
C645 H632 0.929 . S
C645 C637 1.433 . S
C645 N647 1.384 . S
N646 C642 1.427 . S
N646 C643 1.384 . S
N647 C639 1.427 . S
N647 C645 1.384 . S
H648 C654 0.930 . S
H649 C658 0.930 . S
H650 C663 0.929 . S
H651 C661 0.929 . S
H652 C656 0.929 . S
H653 C662 0.929 . S
C654 H648 0.930 . S
C654 C655 1.367 . S
C654 C662 1.378 . S
C655 C654 1.367 . S
C655 C663 1.433 . S
C656 H652 0.929 . S
C656 C658 1.378 . S
C656 C660 1.350 1_554 S
C657 C660 1.463 . S
C657 C662 1.350 . S
C657 N665 1.427 . S
C658 H649 0.930 . S
C658 C656 1.378 . S
C658 C659 1.367 1_554 S
C659 C658 1.367 1_556 S
C659 C661 1.433 . S
C660 C656 1.350 1_556 S
C660 C657 1.463 . S
C660 N664 1.427 . S
C661 H651 0.929 . S
C661 C659 1.433 . S
C661 N664 1.384 . S
C662 H653 0.929 . S
C662 C654 1.378 . S
C662 C657 1.350 . S
C663 H650 0.929 . S
C663 C655 1.433 . S
C663 N665 1.384 . S
N664 C660 1.427 . S
N664 C661 1.384 . S
N665 C657 1.427 . S
N665 C663 1.384 . S
H666 C672 0.930 . S
H667 C676 0.930 . S
H668 C681 0.929 1_455 S
H669 C679 0.929 . S
H670 C674 0.929 . S
H671 C680 0.929 . S
C672 H666 0.930 . S
C672 C673 1.367 . S
C672 C680 1.378 . S
C673 C672 1.367 . S
C673 C681 1.433 . S
C674 H670 0.929 . S
C674 C676 1.378 . S
C674 C678 1.350 . S
C675 C678 1.463 . S
C675 C680 1.350 . S
C675 N683 1.427 . S
C676 H667 0.930 . S
C676 C674 1.378 . S
C676 C677 1.367 . S
C677 C676 1.367 . S
C677 C679 1.433 . S
C678 C674 1.350 . S
C678 C675 1.463 . S
C678 N682 1.427 . S
C679 H669 0.929 . S
C679 C677 1.433 . S
C679 N682 1.384 . S
C680 H671 0.929 . S
C680 C672 1.378 . S
C680 C675 1.350 . S
C681 H668 0.929 1_655 S
C681 C673 1.433 . S
C681 N683 1.384 . S
N682 C678 1.427 . S
N682 C679 1.384 . S
N683 C675 1.427 . S
N683 C681 1.384 . S
H684 C690 0.930 . S
H685 C694 0.930 . S
H686 C699 0.929 . S
H687 C697 0.929 . S
H688 C692 0.929 . S
H689 C698 0.929 . S
C690 H684 0.930 . S
C690 C691 1.367 . S
C690 C698 1.378 . S
C691 C690 1.367 . S
C691 C699 1.433 . S
C692 H688 0.929 . S
C692 C694 1.378 . S
C692 C696 1.350 . S
C693 C696 1.463 . S
C693 C698 1.350 . S
C693 N701 1.427 . S
C694 H685 0.930 . S
C694 C692 1.378 . S
C694 C695 1.367 . S
C695 C694 1.367 . S
C695 C697 1.433 . S
C696 C692 1.350 . S
C696 C693 1.463 . S
C696 N700 1.427 . S
C697 H687 0.929 . S
C697 C695 1.433 . S
C697 N700 1.384 . S
C698 H689 0.929 . S
C698 C690 1.378 . S
C698 C693 1.350 . S
C699 H686 0.929 . S
C699 C691 1.433 . S
C699 N701 1.384 . S
N700 C696 1.427 . S
N700 C697 1.384 . S
N701 C693 1.427 . S
N701 C699 1.384 . S
H702 C708 0.930 . S
H703 C712 0.930 . S
H704 C717 0.929 . S
H705 C715 0.929 . S
H706 C710 0.929 . S
H707 C716 0.929 . S
C708 H702 0.930 . S
C708 C709 1.367 . S
C708 C716 1.378 . S
C709 C708 1.367 . S
C709 C717 1.433 . S
C710 H706 0.929 . S
C710 C712 1.378 . S
C710 C714 1.350 . S
C711 C714 1.463 . S
C711 C716 1.350 . S
C711 N719 1.427 . S
C712 H703 0.930 . S
C712 C710 1.378 . S
C712 C713 1.367 . S
C713 C712 1.367 . S
C713 C715 1.433 . S
C714 C710 1.350 . S
C714 C711 1.463 . S
C714 N718 1.427 . S
C715 H705 0.929 . S
C715 C713 1.433 . S
C715 N718 1.384 . S
C716 H707 0.929 . S
C716 C708 1.378 . S
C716 C711 1.350 . S
C717 H704 0.929 . S
C717 C709 1.433 . S
C717 N719 1.384 . S
N718 C714 1.427 . S
N718 C715 1.384 . S
N719 C711 1.427 . S
N719 C717 1.384 . S
H720 C726 0.936 . S
H721 C730 0.930 . S
H722 C735 0.929 . S
H723 C733 0.929 . S
H724 C728 0.929 . S
H725 C734 0.929 1_554 S
C726 H720 0.936 . S
C726 C727 1.367 . S
C726 C734 1.378 . S
C727 C726 1.367 . S
C727 C735 1.433 . S
C728 H724 0.929 . S
C728 C730 1.378 . S
C728 C732 1.350 . S
C729 C732 1.463 . S
C729 C734 1.350 . S
C729 N737 1.427 . S
C730 H721 0.930 . S
C730 C728 1.378 . S
C730 C731 1.367 . S
C731 C730 1.367 . S
C731 C733 1.433 1_556 S
C732 C728 1.350 . S
C732 C729 1.463 . S
C732 N736 1.427 . S
C733 H723 0.929 . S
C733 C731 1.433 1_554 S
C733 N736 1.384 1_554 S
C734 H725 0.929 1_556 S
C734 C726 1.378 . S
C734 C729 1.350 . S
C735 H722 0.929 . S
C735 C727 1.433 . S
C735 N737 1.384 . S
N736 C732 1.427 . S
N736 C733 1.384 1_556 S
N737 C729 1.427 . S
N737 C735 1.384 . S
H738 C744 0.930 . S
H739 C748 0.930 . S
H740 C753 0.929 . S
H741 C751 0.929 . S
H742 C746 0.929 . S
H743 C752 0.929 . S
C744 H738 0.930 . S
C744 C745 1.367 . S
C744 C752 1.378 . S
C745 C744 1.367 . S
C745 C753 1.433 . S
C746 H742 0.929 . S
C746 C748 1.378 . S
C746 C750 1.350 . S
C747 C750 1.463 . S
C747 C752 1.350 . S
C747 N755 1.427 . S
C748 H739 0.930 . S
C748 C746 1.378 . S
C748 C749 1.367 . S
C749 C748 1.367 . S
C749 C751 1.433 . S
C750 C746 1.350 . S
C750 C747 1.463 . S
C750 N754 1.427 . S
C751 H741 0.929 . S
C751 C749 1.433 . S
C751 N754 1.384 . S
C752 H743 0.929 . S
C752 C744 1.378 . S
C752 C747 1.350 . S
C753 H740 0.929 . S
C753 C745 1.433 . S
C753 N755 1.384 . S
N754 C750 1.427 . S
N754 C751 1.384 . S
N755 C747 1.427 . S
N755 C753 1.384 . S
H756 C762 0.930 . S
H757 C766 0.930 . S
H758 C771 0.929 . S
H759 C769 0.929 . S
H760 C764 0.929 . S
H761 C770 0.929 . S
C762 H756 0.930 . S
C762 C763 1.367 . S
C762 C770 1.378 . S
C763 C762 1.367 . S
C763 C771 1.433 . S
C764 H760 0.929 . S
C764 C766 1.378 . S
C764 C768 1.350 . S
C765 C768 1.463 . S
C765 C770 1.350 . S
C765 N773 1.427 . S
C766 H757 0.930 . S
C766 C764 1.378 . S
C766 C767 1.367 . S
C767 C766 1.367 . S
C767 C769 1.433 . S
C768 C764 1.350 . S
C768 C765 1.463 . S
C768 N772 1.427 . S
C769 H759 0.929 . S
C769 C767 1.433 . S
C769 N772 1.384 . S
C770 H761 0.929 . S
C770 C762 1.378 . S
C770 C765 1.350 . S
C771 H758 0.929 . S
C771 C763 1.433 . S
C771 N773 1.384 . S
N772 C768 1.427 . S
N772 C769 1.384 . S
N773 C765 1.427 . S
N773 C771 1.384 . S
H774 C780 0.930 . S
H775 C784 0.930 . S
H776 C789 0.929 . S
H777 C787 0.929 . S
H778 C782 0.929 . S
H779 C788 0.929 . S
C780 H774 0.930 . S
C780 C781 1.367 . S
C780 C788 1.378 . S
C781 C780 1.367 . S
C781 C789 1.433 . S
C782 H778 0.929 . S
C782 C784 1.378 . S
C782 C786 1.350 . S
C783 C786 1.463 . S
C783 C788 1.350 . S
C783 N791 1.427 . S
C784 H775 0.930 . S
C784 C782 1.378 . S
C784 C785 1.367 . S
C785 C784 1.367 . S
C785 C787 1.433 . S
C786 C782 1.350 . S
C786 C783 1.463 . S
C786 N790 1.427 . S
C787 H777 0.929 . S
C787 C785 1.433 . S
C787 N790 1.384 . S
C788 H779 0.929 . S
C788 C780 1.378 . S
C788 C783 1.350 . S
C789 H776 0.929 . S
C789 C781 1.433 . S
C789 N791 1.384 . S
N790 C786 1.427 . S
N790 C787 1.384 . S
N791 C783 1.427 . S
N791 C789 1.384 . S
H792 C798 0.930 . S
H793 C802 0.930 . S
H794 C807 0.929 . S
H795 C805 0.929 . S
H796 C800 0.929 . S
H797 C806 0.929 . S
C798 H792 0.930 . S
C798 C799 1.367 . S
C798 C806 1.378 . S
C799 C798 1.367 . S
C799 C807 1.433 1_655 S
C800 H796 0.929 . S
C800 C802 1.378 . S
C800 C804 1.350 . S
C801 C804 1.463 . S
C801 C806 1.350 . S
C801 N809 1.427 . S
C802 H793 0.930 . S
C802 C800 1.378 . S
C802 C803 1.367 . S
C803 C802 1.367 . S
C803 C805 1.433 . S
C804 C800 1.350 . S
C804 C801 1.463 . S
C804 N808 1.427 . S
C805 H795 0.929 . S
C805 C803 1.433 . S
C805 N808 1.384 . S
C806 H797 0.929 . S
C806 C798 1.378 . S
C806 C801 1.350 . S
C807 H794 0.929 . S
C807 C799 1.433 1_455 S
C807 N809 1.384 1_455 S
N808 C804 1.427 . S
N808 C805 1.384 . S
N809 C801 1.427 . S
N809 C807 1.384 1_655 S
H810 C816 0.930 . S
H811 C820 0.930 . S
H812 C825 0.929 1_554 S
H813 C823 0.929 . S
H814 C818 0.929 1_554 S
H815 C824 0.929 . S
C816 H810 0.930 . S
C816 C817 1.367 . S
C816 C824 1.378 . S
C817 C816 1.367 . S
C817 C825 1.433 . S
C818 H814 0.929 1_556 S
C818 C820 1.378 1_556 S
C818 C822 1.349 . S
C819 C822 1.463 . S
C819 C824 1.350 . S
C819 N827 1.427 . S
C820 H811 0.930 . S
C820 C818 1.378 1_554 S
C820 C821 1.367 1_554 S
C821 C820 1.367 1_556 S
C821 C823 1.433 . S
C822 C818 1.349 . S
C822 C819 1.463 . S
C822 N826 1.427 . S
C823 H813 0.929 . S
C823 C821 1.433 . S
C823 N826 1.384 . S
C824 H815 0.929 . S
C824 C816 1.378 . S
C824 C819 1.350 . S
C825 H812 0.929 1_556 S
C825 C817 1.433 . S
C825 N827 1.384 . S
N826 C822 1.427 . S
N826 C823 1.384 . S
N827 C819 1.427 . S
N827 C825 1.384 . S
H828 C834 0.930 . S
H829 C838 0.930 . S
H830 C843 0.929 . S
H831 C841 0.929 . S
H832 C836 0.929 . S
H833 C842 0.929 . S
C834 H828 0.930 . S
C834 C835 1.367 . S
C834 C842 1.378 . S
C835 C834 1.367 . S
C835 C843 1.433 . S
C836 H832 0.929 . S
C836 C838 1.378 . S
C836 C840 1.350 . S
C837 C840 1.463 . S
C837 C842 1.350 . S
C837 N845 1.427 . S
C838 H829 0.930 . S
C838 C836 1.378 . S
C838 C839 1.367 . S
C839 C838 1.367 . S
C839 C841 1.433 . S
C840 C836 1.350 . S
C840 C837 1.463 . S
C840 N844 1.427 . S
C841 H831 0.929 . S
C841 C839 1.433 . S
C841 N844 1.384 . S
C842 H833 0.929 . S
C842 C834 1.378 . S
C842 C837 1.350 . S
C843 H830 0.929 . S
C843 C835 1.433 . S
C843 N845 1.384 . S
N844 C840 1.427 . S
N844 C841 1.384 . S
N845 C837 1.427 . S
N845 C843 1.384 . S
H846 C852 0.930 . S
H847 C856 0.930 . S
H848 C861 0.929 . S
H849 C859 0.929 . S
H850 C854 0.929 . S
H851 C860 0.929 . S
C852 H846 0.930 . S
C852 C853 1.367 . S
C852 C860 1.378 . S
C853 C852 1.367 . S
C853 C861 1.433 . S
C854 H850 0.929 . S
C854 C856 1.378 . S
C854 C858 1.350 . S
C855 C858 1.463 . S
C855 C860 1.350 . S
C855 N863 1.427 . S
C856 H847 0.930 . S
C856 C854 1.378 . S
C856 C857 1.367 . S
C857 C856 1.367 . S
C857 C859 1.433 . S
C858 C854 1.350 . S
C858 C855 1.463 . S
C858 N862 1.427 . S
C859 H849 0.929 . S
C859 C857 1.433 . S
C859 N862 1.384 . S
C860 H851 0.929 . S
C860 C852 1.378 . S
C860 C855 1.350 . S
C861 H848 0.929 . S
C861 C853 1.433 . S
C861 N863 1.384 . S
N862 C858 1.427 . S
N862 C859 1.384 . S
N863 C855 1.427 . S
N863 C861 1.384 . S
H864 C870 0.930 . S
H865 C874 0.930 . S
H866 C879 0.929 . S
H867 C877 0.929 . S
H868 C872 0.930 . S
H869 C878 0.929 . S
C870 H864 0.930 . S
C870 C871 1.367 . S
C870 C878 1.378 . S
C871 C870 1.367 . S
C871 C879 1.433 . S
C872 H868 0.930 . S
C872 C874 1.372 1_554 S
C872 C876 1.355 . S
C873 C876 1.463 . S
C873 C878 1.350 . S
C873 N881 1.427 . S
C874 H865 0.930 . S
C874 C872 1.372 1_556 S
C874 C875 1.367 . S
C875 C874 1.367 . S
C875 C877 1.433 . S
C876 C872 1.355 . S
C876 C873 1.463 . S
C876 N880 1.427 . S
C877 H867 0.929 . S
C877 C875 1.433 . S
C877 N880 1.384 1_556 S
C878 H869 0.929 . S
C878 C870 1.378 . S
C878 C873 1.350 . S
C879 H866 0.929 . S
C879 C871 1.433 . S
C879 N881 1.384 . S
N880 C876 1.427 . S
N880 C877 1.384 1_554 S
N881 C873 1.427 . S
N881 C879 1.384 . S
H882 C888 0.930 . S
H883 C892 0.930 . S
H884 C897 0.929 . S
H885 C895 0.929 . S
H886 C890 0.929 . S
H887 C896 0.929 . S
C888 H882 0.930 . S
C888 C889 1.367 . S
C888 C896 1.378 . S
C889 C888 1.367 . S
C889 C897 1.433 . S
C890 H886 0.929 . S
C890 C892 1.378 . S
C890 C894 1.350 . S
C891 C894 1.463 . S
C891 C896 1.350 . S
C891 N899 1.427 . S
C892 H883 0.930 . S
C892 C890 1.378 . S
C892 C893 1.367 . S
C893 C892 1.367 . S
C893 C895 1.433 . S
C894 C890 1.350 . S
C894 C891 1.463 . S
C894 N898 1.427 . S
C895 H885 0.929 . S
C895 C893 1.433 . S
C895 N898 1.384 . S
C896 H887 0.929 . S
C896 C888 1.378 . S
C896 C891 1.350 . S
C897 H884 0.929 . S
C897 C889 1.433 . S
C897 N899 1.384 . S
N898 C894 1.427 . S
N898 C895 1.384 . S
N899 C891 1.427 . S
N899 C897 1.384 . S
H900 C906 0.930 . S
H901 C910 0.930 . S
H902 C915 0.929 . S
H903 C913 0.929 . S
H904 C908 0.929 . S
H905 C914 0.929 . S
C906 H900 0.930 . S
C906 C907 1.367 . S
C906 C914 1.378 . S
C907 C906 1.367 . S
C907 C915 1.433 . S
C908 H904 0.929 . S
C908 C910 1.378 . S
C908 C912 1.350 . S
C909 C912 1.463 . S
C909 C914 1.350 . S
C909 N917 1.427 . S
C910 H901 0.930 . S
C910 C908 1.378 . S
C910 C911 1.367 . S
C911 C910 1.367 . S
C911 C913 1.433 . S
C912 C908 1.350 . S
C912 C909 1.463 . S
C912 N916 1.427 . S
C913 H903 0.929 . S
C913 C911 1.433 . S
C913 N916 1.384 . S
C914 H905 0.929 . S
C914 C906 1.378 . S
C914 C909 1.350 . S
C915 H902 0.929 . S
C915 C907 1.433 . S
C915 N917 1.384 . S
N916 C912 1.427 . S
N916 C913 1.384 . S
N917 C909 1.427 . S
N917 C915 1.384 . S
H918 C924 0.930 . S
H919 C928 0.930 . S
H920 C933 0.929 . S
H921 C931 0.929 . S
H922 C926 0.929 . S
H923 C932 0.929 . S
C924 H918 0.930 . S
C924 C925 1.367 . S
C924 C932 1.378 . S
C925 C924 1.367 . S
C925 C933 1.433 . S
C926 H922 0.929 . S
C926 C928 1.378 . S
C926 C930 1.350 . S
C927 C930 1.463 . S
C927 C932 1.350 . S
C927 N935 1.427 . S
C928 H919 0.930 . S
C928 C926 1.378 . S
C928 C929 1.367 . S
C929 C928 1.367 . S
C929 C931 1.433 . S
C930 C926 1.350 . S
C930 C927 1.463 . S
C930 N934 1.427 . S
C931 H921 0.929 . S
C931 C929 1.433 . S
C931 N934 1.384 . S
C932 H923 0.929 . S
C932 C924 1.378 . S
C932 C927 1.350 . S
C933 H920 0.929 . S
C933 C925 1.433 . S
C933 N935 1.384 . S
N934 C930 1.427 . S
N934 C931 1.384 . S
N935 C927 1.427 . S
N935 C933 1.384 . S
H936 C942 0.930 . S
H937 C946 0.930 . S
H938 C951 0.929 . S
H939 C949 0.929 . S
H940 C944 0.929 . S
H941 C950 0.929 . S
C942 H936 0.930 . S
C942 C943 1.367 . S
C942 C950 1.378 . S
C943 C942 1.367 . S
C943 C951 1.433 . S
C944 H940 0.929 . S
C944 C946 1.378 . S
C944 C948 1.350 . S
C945 C948 1.463 . S
C945 C950 1.350 . S
C945 N953 1.427 . S
C946 H937 0.930 . S
C946 C944 1.378 . S
C946 C947 1.367 . S
C947 C946 1.367 . S
C947 C949 1.433 . S
C948 C944 1.350 . S
C948 C945 1.463 . S
C948 N952 1.427 . S
C949 H939 0.929 . S
C949 C947 1.433 . S
C949 N952 1.384 . S
C950 H941 0.929 . S
C950 C942 1.378 . S
C950 C945 1.350 . S
C951 H938 0.929 . S
C951 C943 1.433 . S
C951 N953 1.384 . S
N952 C948 1.427 . S
N952 C949 1.384 . S
N953 C945 1.427 . S
N953 C951 1.384 . S
H954 C960 0.930 . S
H955 C964 0.930 . S
H956 C969 0.929 . S
H957 C967 0.929 . S
H958 C962 0.929 . S
H959 C968 0.929 . S
C960 H954 0.930 . S
C960 C961 1.367 . S
C960 C968 1.378 . S
C961 C960 1.367 . S
C961 C969 1.433 . S
C962 H958 0.929 . S
C962 C964 1.378 . S
C962 C966 1.350 . S
C963 C966 1.463 . S
C963 C968 1.350 . S
C963 N971 1.427 . S
C964 H955 0.930 . S
C964 C962 1.378 . S
C964 C965 1.367 . S
C965 C964 1.367 . S
C965 C967 1.433 . S
C966 C962 1.350 . S
C966 C963 1.463 . S
C966 N970 1.427 . S
C967 H957 0.929 . S
C967 C965 1.433 . S
C967 N970 1.384 . S
C968 H959 0.929 . S
C968 C960 1.378 . S
C968 C963 1.350 . S
C969 H956 0.929 . S
C969 C961 1.433 . S
C969 N971 1.384 . S
N970 C966 1.427 . S
N970 C967 1.384 . S
N971 C963 1.427 . S
N971 C969 1.384 . S
H972 C978 0.930 . S
H973 C982 0.930 . S
H974 C987 0.929 . S
H975 C985 0.929 . S
H976 C980 0.929 1_565 S
H977 C986 0.929 1_545 S
C978 H972 0.930 . S
C978 C979 1.367 . S
C978 C986 1.378 . S
C979 C978 1.367 . S
C979 C987 1.433 . S
C980 H976 0.929 1_545 S
C980 C982 1.378 . S
C980 C984 1.350 . S
C981 C984 1.463 1_565 S
C981 C986 1.350 . S
C981 N989 1.427 . S
C982 H973 0.930 . S
C982 C980 1.378 . S
C982 C983 1.367 . S
C983 C982 1.367 . S
C983 C985 1.433 . S
C984 C980 1.350 . S
C984 C981 1.463 1_545 S
C984 N988 1.427 . S
C985 H975 0.929 . S
C985 C983 1.433 . S
C985 N988 1.384 . S
C986 H977 0.929 1_565 S
C986 C978 1.378 . S
C986 C981 1.350 . S
C987 H974 0.929 . S
C987 C979 1.433 . S
C987 N989 1.384 . S
N988 C984 1.427 . S
N988 C985 1.384 . S
N989 C981 1.427 . S
N989 C987 1.384 . S
H990 C996 0.930 . S
H991 C1000 0.930 . S
H992 C1005 0.929 . S
H993 C1003 0.929 . S
H994 C998 0.929 . S
H995 C1004 0.929 . S
C996 H990 0.930 . S
C996 C997 1.367 1_554 S
C996 C1004 1.378 . S
C997 C996 1.367 1_556 S
C997 C1005 1.433 . S
C998 H994 0.929 . S
C998 C1000 1.378 . S
C998 C1002 1.350 . S
C999 C1002 1.463 1_545 S
C999 C1004 1.350 . S
C999 N1007 1.427 1_554 S
C1000 H991 0.930 . S
C1000 C998 1.378 . S
C1000 C1001 1.367 . S
C1001 C1000 1.367 . S
C1001 C1003 1.433 . S
C1002 C998 1.350 . S
C1002 C999 1.463 1_565 S
C1002 N1006 1.427 . S
C1003 H993 0.929 . S
C1003 C1001 1.433 . S
C1003 N1006 1.384 . S
C1004 H995 0.929 . S
C1004 C996 1.378 . S
C1004 C999 1.350 . S
C1005 H992 0.929 . S
C1005 C997 1.433 . S
C1005 N1007 1.384 . S
N1006 C1002 1.427 . S
N1006 C1003 1.384 . S
N1007 C999 1.427 1_556 S
N1007 C1005 1.384 . S
H1008 C1014 0.930 . S
H1009 C1018 0.930 . S
H1010 C1023 0.929 . S
H1011 C1021 0.929 . S
H1012 C1016 0.929 . S
H1013 C1022 0.929 . S
C1014 H1008 0.930 . S
C1014 C1015 1.367 . S
C1014 C1022 1.378 . S
C1015 C1014 1.367 . S
C1015 C1023 1.433 . S
C1016 H1012 0.929 . S
C1016 C1018 1.378 . S
C1016 C1020 1.350 . S
C1017 C1020 1.463 . S
C1017 C1022 1.350 . S
C1017 N1025 1.427 . S
C1018 H1009 0.930 . S
C1018 C1016 1.378 . S
C1018 C1019 1.367 . S
C1019 C1018 1.367 . S
C1019 C1021 1.433 . S
C1020 C1016 1.350 . S
C1020 C1017 1.463 . S
C1020 N1024 1.427 . S
C1021 H1011 0.929 . S
C1021 C1019 1.433 . S
C1021 N1024 1.384 . S
C1022 H1013 0.929 . S
C1022 C1014 1.378 . S
C1022 C1017 1.350 . S
C1023 H1010 0.929 . S
C1023 C1015 1.433 . S
C1023 N1025 1.384 . S
N1024 C1020 1.427 . S
N1024 C1021 1.384 . S
N1025 C1017 1.427 . S
N1025 C1023 1.384 . S
H1026 C1032 0.930 . S
H1027 C1036 0.930 . S
H1028 C1041 0.929 . S
H1029 C1039 0.929 . S
H1030 C1034 0.929 . S
H1031 C1040 0.929 . S
C1032 H1026 0.930 . S
C1032 C1033 1.367 . S
C1032 C1040 1.378 . S
C1033 C1032 1.367 . S
C1033 C1041 1.433 . S
C1034 H1030 0.929 . S
C1034 C1036 1.378 . S
C1034 C1038 1.350 . S
C1035 C1038 1.463 . S
C1035 C1040 1.350 . S
C1035 N1043 1.427 . S
C1036 H1027 0.930 . S
C1036 C1034 1.378 . S
C1036 C1037 1.367 . S
C1037 C1036 1.367 . S
C1037 C1039 1.433 . S
C1038 C1034 1.350 . S
C1038 C1035 1.463 . S
C1038 N1042 1.427 . S
C1039 H1029 0.929 . S
C1039 C1037 1.433 . S
C1039 N1042 1.384 . S
C1040 H1031 0.929 . S
C1040 C1032 1.378 . S
C1040 C1035 1.350 . S
C1041 H1028 0.929 . S
C1041 C1033 1.433 . S
C1041 N1043 1.384 . S
N1042 C1038 1.427 . S
N1042 C1039 1.384 . S
N1043 C1035 1.427 . S
N1043 C1041 1.384 . S
H1044 C1050 0.930 . S
H1045 C1054 0.930 . S
H1046 C1059 0.929 . S
H1047 C1057 0.929 . S
H1048 C1052 0.929 . S
H1049 C1058 0.929 . S
C1050 H1044 0.930 . S
C1050 C1051 1.367 . S
C1050 C1058 1.378 . S
C1051 C1050 1.367 . S
C1051 C1059 1.433 . S
C1052 H1048 0.929 . S
C1052 C1054 1.378 1_554 S
C1052 C1056 1.350 . S
C1053 C1056 1.463 . S
C1053 C1058 1.350 . S
C1053 N1061 1.427 . S
C1054 H1045 0.930 . S
C1054 C1052 1.378 1_556 S
C1054 C1055 1.367 . S
C1055 C1054 1.367 . S
C1055 C1057 1.433 . S
C1056 C1052 1.350 . S
C1056 C1053 1.463 . S
C1056 N1060 1.427 . S
C1057 H1047 0.929 . S
C1057 C1055 1.433 . S
C1057 N1060 1.384 1_556 S
C1058 H1049 0.929 . S
C1058 C1050 1.378 . S
C1058 C1053 1.350 . S
C1059 H1046 0.929 . S
C1059 C1051 1.433 . S
C1059 N1061 1.384 . S
N1060 C1056 1.427 . S
N1060 C1057 1.384 1_554 S
N1061 C1053 1.427 . S
N1061 C1059 1.384 . S
H1062 C1068 0.930 . S
H1063 C1072 0.930 . S
H1064 C1077 0.929 . S
H1065 C1075 0.929 . S
H1066 C1070 0.929 . S
H1067 C1076 0.929 . S
C1068 H1062 0.930 . S
C1068 C1069 1.367 . S
C1068 C1076 1.378 . S
C1069 C1068 1.367 . S
C1069 C1077 1.433 . S
C1070 H1066 0.929 . S
C1070 C1072 1.378 . S
C1070 C1074 1.350 . S
C1071 C1074 1.463 . S
C1071 C1076 1.350 . S
C1071 N1079 1.427 . S
C1072 H1063 0.930 . S
C1072 C1070 1.378 . S
C1072 C1073 1.367 . S
C1073 C1072 1.367 . S
C1073 C1075 1.433 . S
C1074 C1070 1.350 . S
C1074 C1071 1.463 . S
C1074 N1078 1.427 . S
C1075 H1065 0.929 . S
C1075 C1073 1.433 . S
C1075 N1078 1.384 . S
C1076 H1067 0.929 . S
C1076 C1068 1.378 . S
C1076 C1071 1.350 . S
C1077 H1064 0.929 . S
C1077 C1069 1.433 . S
C1077 N1079 1.384 . S
N1078 C1074 1.427 . S
N1078 C1075 1.384 . S
N1079 C1071 1.427 . S
N1079 C1077 1.384 . S
H1080 C1086 0.930 . S
H1081 C1090 0.930 . S
H1082 C1095 0.929 . S
H1083 C1093 0.929 . S
H1084 C1088 0.929 . S
H1085 C1094 0.929 . S
C1086 H1080 0.930 . S
C1086 C1087 1.367 . S
C1086 C1094 1.378 . S
C1087 C1086 1.367 . S
C1087 C1095 1.433 . S
C1088 H1084 0.929 . S
C1088 C1090 1.378 . S
C1088 C1092 1.350 . S
C1089 C1092 1.463 . S
C1089 C1094 1.350 . S
C1089 N1097 1.427 . S
C1090 H1081 0.930 . S
C1090 C1088 1.378 . S
C1090 C1091 1.367 . S
C1091 C1090 1.367 . S
C1091 C1093 1.433 . S
C1092 C1088 1.350 . S
C1092 C1089 1.463 . S
C1092 N1096 1.427 . S
C1093 H1083 0.929 . S
C1093 C1091 1.433 . S
C1093 N1096 1.384 . S
C1094 H1085 0.929 . S
C1094 C1086 1.378 . S
C1094 C1089 1.350 . S
C1095 H1082 0.929 . S
C1095 C1087 1.433 . S
C1095 N1097 1.384 . S
N1096 C1092 1.427 . S
N1096 C1093 1.384 . S
N1097 C1089 1.427 . S
N1097 C1095 1.384 . S
H1098 C1104 0.930 . S
H1099 C1108 0.930 . S
H1100 C1113 0.929 . S
H1101 C1111 0.929 . S
H1102 C1106 0.929 . S
H1103 C1112 0.929 . S
C1104 H1098 0.930 . S
C1104 C1105 1.367 . S
C1104 C1112 1.378 . S
C1105 C1104 1.367 . S
C1105 C1113 1.433 . S
C1106 H1102 0.929 . S
C1106 C1108 1.378 . S
C1106 C1110 1.350 . S
C1107 C1110 1.463 . S
C1107 C1112 1.350 . S
C1107 N1115 1.427 . S
C1108 H1099 0.930 . S
C1108 C1106 1.378 . S
C1108 C1109 1.367 . S
C1109 C1108 1.367 . S
C1109 C1111 1.433 . S
C1110 C1106 1.350 . S
C1110 C1107 1.463 . S
C1110 N1114 1.427 . S
C1111 H1101 0.929 . S
C1111 C1109 1.433 . S
C1111 N1114 1.384 . S
C1112 H1103 0.929 . S
C1112 C1104 1.378 . S
C1112 C1107 1.350 . S
C1113 H1100 0.929 . S
C1113 C1105 1.433 . S
C1113 N1115 1.384 . S
N1114 C1110 1.427 . S
N1114 C1111 1.384 . S
N1115 C1107 1.427 . S
N1115 C1113 1.384 . S
H1116 C1122 0.930 . S
H1117 C1126 0.930 . S
H1118 C1131 0.929 . S
H1119 C1129 0.929 . S
H1120 C1124 0.929 . S
H1121 C1130 0.929 . S
C1122 H1116 0.930 . S
C1122 C1123 1.367 . S
C1122 C1130 1.378 . S
C1123 C1122 1.367 . S
C1123 C1131 1.433 . S
C1124 H1120 0.929 . S
C1124 C1126 1.378 1_554 S
C1124 C1128 1.350 . S
C1125 C1128 1.463 1_565 S
C1125 C1130 1.350 . S
C1125 N1133 1.427 . S
C1126 H1117 0.930 . S
C1126 C1124 1.378 1_556 S
C1126 C1127 1.367 . S
C1127 C1126 1.367 . S
C1127 C1129 1.433 . S
C1128 C1124 1.350 . S
C1128 C1125 1.463 1_545 S
C1128 N1132 1.427 1_554 S
C1129 H1119 0.929 . S
C1129 C1127 1.433 . S
C1129 N1132 1.384 . S
C1130 H1121 0.929 . S
C1130 C1122 1.378 . S
C1130 C1125 1.350 . S
C1131 H1118 0.929 . S
C1131 C1123 1.433 . S
C1131 N1133 1.384 . S
N1132 C1128 1.427 1_556 S
N1132 C1129 1.384 . S
N1133 C1125 1.427 . S
N1133 C1131 1.384 . S
H1134 C1140 0.930 . S
H1135 C1144 0.930 . S
H1136 C1149 0.929 . S
H1137 C1147 0.929 . S
H1138 C1142 0.929 . S
H1139 C1148 0.929 . S
C1140 H1134 0.930 . S
C1140 C1141 1.367 . S
C1140 C1148 1.378 . S
C1141 C1140 1.367 . S
C1141 C1149 1.433 . S
C1142 H1138 0.929 . S
C1142 C1144 1.378 . S
C1142 C1146 1.350 . S
C1143 C1146 1.463 1_545 S
C1143 C1148 1.350 . S
C1143 N1151 1.432 . S
C1144 H1135 0.930 . S
C1144 C1142 1.378 . S
C1144 C1145 1.367 . S
C1145 C1144 1.367 . S
C1145 C1147 1.433 . S
C1146 C1142 1.350 . S
C1146 C1143 1.463 1_565 S
C1146 N1150 1.432 . S
C1147 H1137 0.929 . S
C1147 C1145 1.433 . S
C1147 N1150 1.393 . S
C1148 H1139 0.929 . S
C1148 C1140 1.378 . S
C1148 C1143 1.350 . S
C1149 H1136 0.929 . S
C1149 C1141 1.433 . S
C1149 N1151 1.393 . S
N1150 C1146 1.432 . S
N1150 C1147 1.393 . S
N1151 C1143 1.432 . S
N1151 C1149 1.393 . S
C583 C338 1.380 . S
C587 C14 1.385 . S
C601 C518 1.375 . S
C605 C50 1.366 . S
C619 C86 1.364 . S
C623 C302 1.373 . S
C637 C122 1.385 . S
C641 C554 1.381 1_655 S
C655 C158 1.385 . S
C659 C374 1.383 . S
C673 C482 1.385 1_655 S
C677 C194 1.383 . S
C691 C410 1.385 . S
C695 C230 1.381 . S
C709 C266 1.385 . S
C713 C446 1.380 . S
C727 C148 1.474 1_655 S
C731 C112 1.473 . S
C745 C436 1.474 . S
C749 C292 1.473 . S
C763 C220 1.474 . S
C767 C40 1.477 . S
C781 C328 1.477 . S
C785 C472 1.475 . S
C799 C4 1.477 1_655 S
C803 C184 1.473 . S
C817 C544 1.476 . S
C821 C364 1.476 . S
C835 C256 1.473 . S
C839 C76 1.474 . S
C853 C400 1.474 . S
C857 C508 1.477 . S
C871 C2 0.562 . S
C875 C146 0.569 . S
C889 C182 0.569 . S
C893 C38 0.562 . S
C907 C218 0.565 . S
C911 C74 0.563 . S
C925 C110 0.564 . S
C929 C254 0.570 . S
C943 C362 0.570 . S
C947 C290 0.564 . S
C961 C398 0.568 . S
C965 C326 0.562 . S
C979 C506 0.562 . S
C983 C434 0.567 . S
C997 C542 0.566 . S
C1001 C470 0.570 . S
C1015 C147 1.718 . S
C1019 C3 1.720 . S
C1033 C183 1.720 . S
C1037 C39 1.717 . S
C1051 C219 1.717 . S
C1055 C75 1.720 . S
C1069 C111 1.717 . S
C1073 C255 1.720 . S
C1087 C291 1.720 . S
C1091 C363 1.718 . S
C1105 C399 1.721 . S
C1109 C327 1.717 . S
C1123 C507 1.718 . S
C1127 C435 1.720 . S
C1141 C543 1.719 . S
C1145 C471 1.720 . S
