# Generated by pormake.
# Topology kag, (6)-cn, num edge types: 1
# Building blocks:
#     Node 0, Type 0, BuildingBlock: PAMTUU_clean_sbu_0, # of connection points: 6
#     Node 1, Type 0, BuildingBlock: PAMTUU_clean_sbu_0, # of connection points: 6
#     Node 2, Type 0, BuildingBlock: PAMTUU_clean_sbu_0, # of connection points: 6
#     Edge 3, Type (0, 0), BuildingBlock: UVAHIK_clean_linker_0, # of connection points: 2
#     Edge 4, Type (0, 0), BuildingBlock: UVAHIK_clean_linker_0, # of connection points: 2
#     Edge 5, Type (0, 0), BuildingBlock: UVAHIK_clean_linker_0, # of connection points: 2
#     Edge 6, Type (0, 0), BuildingBlock: UVAHIK_clean_linker_0, # of connection points: 2
#     Edge 7, Type (0, 0), BuildingBlock: UVAHIK_clean_linker_0, # of connection points: 2
#     Edge 8, Type (0, 0), BuildingBlock: UVAHIK_clean_linker_0, # of connection points: 2
#     Edge 9, Type (0, 0), BuildingBlock: UVAHIK_clean_linker_0, # of connection points: 2
#     Edge 10, Type (0, 0), BuildingBlock: UVAHIK_clean_linker_0, # of connection points: 2
#     Edge 11, Type (0, 0), BuildingBlock: UVAHIK_clean_linker_0, # of connection points: 2
# Relax obj value: 0.062
# Max RMSD: 0.135
# Mean RMSD: 0.100
data_MOF--net-kag--node1-PAMTUU_clean_sbu_0--edge1-UVAHIK_clean_linker_0
_symmetry_space_group_name_H-M    P1
_symmetry_Int_Tables_number       1
_symmetry_cell_setting            triclinic
loop_
_symmetry_equiv_pos_as_xyz
'x, y, z'
_cell_length_a     58.563901
_cell_length_b     39.624595
_cell_length_c     19.674211
_cell_angle_alpha  89.021108
_cell_angle_beta   98.79286
_cell_angle_gamma 121.78426
loop_
_atom_site_label
_atom_site_type_symbol
_atom_site_fract_x
_atom_site_fract_y
_atom_site_fract_z
_atom_type_partial_charge
Tb0 Tb 1.01571 0.56664 0.96632 0.0
Tb1 Tb 0.03126 0.49793 0.97417 0.0
C2 C 1.02194 0.53148 0.83681 0.0
C3 C 0.97636 0.61413 0.97564 0.0
C4 C 0.92829 0.60895 -0.0009 0.0
C5 C 0.94658 0.63995 0.96277 0.0
C6 C 0.9704 0.6425 0.95124 0.0
C7 C 0.95828 0.58315 0.01191 0.0
C8 C 0.93451 0.58065 0.02376 0.0
C9 C 1.0008 0.61602 0.96054 0.0
O10 O 0.97718 0.51013 0.93773 0.0
O11 O 0.98839 0.46585 0.9837 0.0
O12 O 0.04168 0.52613 0.07759 0.0
O13 O 1.00875 0.54119 0.06506 0.0
O14 O 0.04281 0.46477 0.9228 0.0
O15 O 0.03681 0.45589 0.02853 0.0
O16 O 0.06912 0.55301 0.96549 0.0
O17 O 0.05991 0.59972 -0.00219 0.0
O18 O 0.0298 0.56477 0.87159 0.0
O19 O 1.01409 0.49859 0.86824 0.0
C20 C 0.97019 0.47472 0.95864 0.0
O21 O 1.01674 0.61473 0.01327 0.0
O22 O 0.99666 0.59269 0.90806 0.0
C23 C 0.02559 0.53388 0.10446 0.0
C24 C 0.07206 0.45109 -0.00505 0.0
C25 C 0.1235 0.4592 0.01443 0.0
C26 C 0.12102 0.49096 0.03418 0.0
C27 C 0.09551 0.48693 0.02444 0.0
C28 C 0.07431 0.41913 0.97652 0.0
C29 C 0.09978 0.42309 0.98621 0.0
C30 C 0.04565 0.44786 0.978 0.0
C31 C 0.07711 0.58968 0.98524 0.0
H32 H 0.94225 0.66185 0.94198 0.0
H33 H 0.98401 0.66635 0.9225 0.0
H34 H 0.9625 0.56079 0.03074 0.0
H35 H 0.92111 0.55668 0.05259 0.0
H36 H 0.1388 0.51901 0.05671 0.0
H37 H 0.09413 0.51202 0.03868 0.0
H38 H 0.05644 0.39141 0.95296 0.0
H39 H 0.10096 0.39825 0.9694 0.0
Tb40 Tb 0.48987 1.01646 0.97403 0.0
Tb41 Tb 0.55781 0.06341 0.00818 0.0
C42 C 0.52547 0.04413 0.85675 0.0
C43 C 0.41188 0.95158 0.95616 0.0
C44 C 0.35934 0.89085 0.97713 0.0
C45 C 0.36287 0.922 0.93577 0.0
C46 C 0.38882 0.95195 0.92549 0.0
C47 C 0.40869 0.92044 -0.00304 0.0
C48 C 0.38254 0.89014 0.00715 0.0
C49 C 0.43871 0.98475 0.94502 0.0
O50 O 0.49942 0.97082 0.96254 0.0
O51 O 0.54194 1.00165 0.03006 0.0
O52 O 0.54294 0.06205 0.10341 0.0
O53 O 0.49933 1.00713 0.08089 0.0
O54 O 0.59393 0.06581 -0.00105 0.0
O55 O 0.59473 0.10986 0.06417 0.0
O56 O 0.54919 0.10833 0.97185 0.0
O57 O 0.50668 0.07921 0.00167 0.0
O58 O 0.50475 0.0415 0.87985 0.0
O59 O 0.54634 0.04686 0.89808 0.0
C60 C 0.5202 0.96977 -0.00347 0.0
O61 O 0.45417 1.01074 -0.00302 0.0
O62 O 0.45267 0.97686 0.90974 0.0
C63 C 0.52092 1.03335 0.12428 0.0
C64 C 0.63579 0.12823 0.0246 0.0
C65 C 0.68843 0.18448 -0.00264 0.0
C66 C 0.6849 0.16693 0.06069 0.0
C67 C 0.6589 0.13918 0.07404 0.0
C68 C 0.63894 0.14597 0.96152 0.0
C69 C 0.66513 0.17407 0.94808 0.0
C70 C 0.60907 0.09768 0.04105 0.0
C71 C 0.52869 0.1105 0.98541 0.0
H72 H 0.34549 0.92311 0.9108 0.0
H73 H 0.3909 0.97568 0.8936 0.0
H74 H 0.42634 0.91976 0.02115 0.0
H75 H 0.3805 0.86662 0.03947 0.0
H76 H 0.70229 0.1748 0.10032 0.0
H77 H 0.65686 0.12596 0.12318 0.0
H78 H 0.62127 0.13787 0.92272 0.0
H79 H 0.66719 0.187 0.89874 0.0
Tb80 Tb 0.56047 0.56992 -0.00835 0.0
Tb81 Tb 0.49311 0.5139 0.96354 0.0
C82 C 0.52671 0.5411 0.11159 0.0
C83 C 0.63479 0.60466 0.02479 0.0
C84 C 0.68119 0.59838 0.04262 0.0
C85 C 0.68146 0.62898 0.07881 0.0
C86 C 0.65853 0.63215 0.0697 0.0
C87 C 0.63394 0.57298 -0.00908 0.0
C88 C 0.65694 0.56996 -0.00046 0.0
C89 C 0.612 0.61118 0.01043 0.0
O90 O 0.55113 0.51013 0.96752 0.0
O91 O 0.50699 0.47315 0.98838 0.0
O92 O 0.50728 0.51141 0.86926 0.0
O93 O 0.54539 0.57375 0.88562 0.0
O94 O 0.45669 0.47011 -0.00493 0.0
O95 O 0.45631 0.49522 0.89693 0.0
O96 O 0.50276 0.57468 0.95265 0.0
O97 O 0.5474 0.61083 0.0086 0.0
O98 O 0.54749 0.54435 0.08766 0.0
O99 O 0.50577 0.53794 0.0701 0.0
C100 C 0.52964 0.47609 0.97817 0.0
O101 O 0.59651 0.59725 0.95025 0.0
O102 O 0.5978 0.60491 0.05932 0.0
C103 C 0.52639 0.54279 0.84454 0.0
C104 C 0.41853 0.47441 0.952 0.0
C105 C 0.37324 0.47888 0.9691 0.0
C106 C 0.3696 0.44421 0.93832 0.0
C107 C 0.39204 0.44206 0.92984 0.0
C108 C 0.42245 0.50901 0.98347 0.0
C109 C 0.39994 0.5112 -0.00789 0.0
C110 C 0.44163 0.47154 0.94039 0.0
C111 C 0.5245 0.60826 0.98155 0.0
H112 H 0.69954 0.65088 0.11357 0.0
H113 H 0.65956 0.65667 0.0966 0.0
H114 H 0.61578 0.55121 0.95617 0.0
H115 H 0.65598 0.5462 0.97037 0.0
H116 H 0.34936 0.41855 0.92113 0.0
H117 H 0.38869 0.4151 0.90563 0.0
H118 H 0.44285 0.53433 0.00071 0.0
H119 H 0.40342 0.5384 0.01557 0.0
C120 C 1.01203 0.49559 0.72187 0.0
C121 C 1.02241 0.53134 0.76171 0.0
C122 C 1.01278 0.49575 0.65109 0.0
C123 C 1.0196 0.55786 0.50313 0.0
H124 H 0.035 0.48668 0.4159 0.0
C125 C 0.0451 0.52918 0.22476 0.0
C126 C 0.02588 0.53362 0.17992 0.0
C127 C 0.04512 0.5289 0.29596 0.0
C128 C 0.03092 0.50703 0.43953 0.0
H129 H 0.04204 0.59538 0.75843 0.0
H130 H 0.04375 0.59573 0.63572 0.0
H131 H 0.03471 0.48667 0.53971 0.0
H132 H 0.99137 0.54076 0.17482 0.0
H133 H 0.9911 0.53954 0.29816 0.0
H134 H 1.01653 0.57901 0.40356 0.0
C135 C 0.03452 0.56742 0.65867 0.0
C136 C 0.03039 0.50664 0.51043 0.0
C137 C 0.03365 0.56724 0.72925 0.0
C138 C 1.00662 0.53758 0.20782 0.0
C139 C 1.00655 0.53711 0.27877 0.0
C140 C 1.02023 0.55836 0.43242 0.0
C141 C 0.02402 0.53169 0.61857 0.0
C142 C 0.02467 0.53202 0.54312 0.0
C143 C 0.02585 0.53292 0.32386 0.0
C144 C 0.02578 0.53284 0.39958 0.0
H145 H 1.00319 0.46739 0.74522 0.0
H146 H 1.00418 0.46761 0.6217 0.0
H147 H 1.0148 0.5775 0.52628 0.0
H148 H 0.06026 0.52615 0.20499 0.0
H149 H 0.06048 0.5261 0.3292 0.0
C150 C 0.49602 1.01137 0.22499 0.0
C151 C 0.52065 1.03163 0.19919 0.0
C152 C 0.49613 1.01198 0.29614 0.0
C153 C 0.54085 0.06944 0.45997 0.0
H154 H 0.48816 0.97758 0.54407 0.0
C155 C 0.54898 0.05624 0.75463 0.0
C156 C 0.52506 0.04371 0.7815 0.0
C157 C 0.54827 0.05486 0.68336 0.0
C158 C 0.50287 1.00351 0.52107 0.0
H159 H 0.5647 0.06691 0.22755 0.0
H160 H 0.56494 0.06684 0.35098 0.0
H161 H 0.48714 0.9739 0.41979 0.0
H162 H 0.4816 1.01969 0.75479 0.0
H163 H 0.4804 1.01689 0.63044 0.0
H164 H 0.55691 0.09863 0.56172 0.0
C165 C 0.54548 0.05166 0.31668 0.0
C166 C 0.50224 1.0015 0.4499 0.0
C167 C 0.54535 0.05148 0.2458 0.0
C168 C 0.50042 1.02975 0.73572 0.0
C169 C 0.49966 1.02785 0.66457 0.0
C170 C 0.54167 0.07125 0.53114 0.0
C171 C 0.52089 1.03246 0.34283 0.0
C172 C 0.52126 1.03445 0.41846 0.0
C173 C 0.52356 0.04038 0.63775 0.0
C174 C 0.5227 0.03833 0.56232 0.0
H175 H 0.47667 0.99594 0.19024 0.0
H176 H 0.4768 0.99721 0.31437 0.0
H177 H 0.55543 0.09571 0.43746 0.0
H178 H 0.56827 0.0672 0.78858 0.0
H179 H 0.56696 0.0645 0.66388 0.0
C180 C 0.50263 0.51757 0.72278 0.0
C181 C 0.52656 0.54317 0.76942 0.0
C182 C 0.50278 0.5179 0.65176 0.0
C183 C 0.54648 0.53896 0.52411 0.0
H184 H 0.49333 0.55115 0.40104 0.0
C185 C 0.55145 0.55703 0.23356 0.0
C186 C 0.52687 0.54101 0.18688 0.0
C187 C 0.55159 0.5577 0.30471 0.0
C188 C 0.50805 0.54699 0.43429 0.0
H189 H 0.56946 0.5888 0.77833 0.0
H190 H 0.56981 0.58857 0.65406 0.0
H191 H 0.49293 0.55073 0.52473 0.0
H192 H 0.48308 0.51226 0.17809 0.0
H193 H 0.48311 0.51175 0.30172 0.0
H194 H 0.56109 0.53373 0.43421 0.0
C195 C 0.55094 0.56861 0.67265 0.0
C196 C 0.50788 0.54703 0.50528 0.0
C197 C 0.55068 0.56886 0.74363 0.0
C198 C 0.5024 0.52517 0.21278 0.0
C199 C 0.50247 0.52517 0.28388 0.0
C200 C 0.54637 0.53819 0.453 0.0
C201 C 0.52696 0.54325 0.62607 0.0
C202 C 0.52714 0.54315 0.55084 0.0
C203 C 0.52709 0.5417 0.33099 0.0
C204 C 0.52719 0.54232 0.40697 0.0
H205 H 0.48372 0.49752 0.7411 0.0
H206 H 0.48406 0.49791 0.61688 0.0
H207 H 0.56138 0.5355 0.55819 0.0
H208 H 0.57067 0.56977 0.21515 0.0
H209 H 0.57103 0.57138 0.33897 0.0
C210 C 0.15434 0.43268 0.03994 0.0
C211 C 0.15074 0.46407 0.02023 0.0
C212 C 0.17936 0.4361 0.04021 0.0
C213 C 0.2527 0.50827 0.03904 0.0
H214 H 0.24955 0.41751 0.9561 0.0
C215 C 0.34803 0.49766 0.03759 0.0
C216 C 0.34911 0.48099 0.97652 0.0
C217 C 0.32458 0.49744 0.04545 0.0
C218 C 0.2508 0.44321 0.97908 0.0
H219 H 0.17092 0.52406 0.98663 0.0
H220 H 0.21461 0.53007 0.98752 0.0
H221 H 0.20744 0.41373 0.96712 0.0
H222 H 0.32694 0.45289 0.87458 0.0
H223 H 0.28618 0.45243 0.88835 0.0
H224 H 0.29618 0.53794 0.04975 0.0
C225 C 0.19811 0.50293 0.00336 0.0
C226 C 0.22666 0.44086 0.98619 0.0
C227 C 0.17306 0.49947 0.00293 0.0
C228 C 0.32655 0.46515 0.92288 0.0
C229 C 0.30318 0.46488 0.93075 0.0
C230 C 0.27692 0.51055 0.03221 0.0
C231 C 0.20141 0.47103 0.02091 0.0
C232 C 0.22729 0.4734 0.01593 0.0
C233 C 0.30175 0.48051 -0.00756 0.0
C234 C 0.27622 0.47813 0.00162 0.0
H235 H 0.13775 0.40529 0.05482 0.0
H236 H 0.18138 0.41125 0.05519 0.0
H237 H 0.25386 0.53375 0.06262 0.0
H238 H 0.36498 0.50981 0.08008 0.0
H239 H 0.32404 0.50946 0.09379 0.0
C240 C 0.73733 0.20546 0.0037 0.0
C241 C 0.7165 0.21315 0.9837 0.0
C242 C 0.76419 0.2334 -0.00363 0.0
C243 C 0.8074 0.32367 0.90847 0.0
H244 H 0.86361 0.33907 0.06 0.0
C245 C 0.92071 0.45308 0.93205 0.0
C246 C 0.94077 0.44421 0.9558 0.0
C247 C 0.89309 0.42488 0.93226 0.0
C248 C 0.84823 0.33486 0.01682 0.0
H249 H 0.70753 0.25596 0.93825 0.0
H250 H 0.75463 0.30507 0.92558 0.0
H251 H 0.81606 0.29028 0.06536 0.0
H252 H 0.94725 0.39828 -0.00256 0.0
H253 H 0.89922 0.34922 -0.00265 0.0
H254 H 0.83977 0.36863 0.86027 0.0
C255 C 0.75007 0.27716 0.9466 0.0
C256 C 0.8209 0.30681 0.01986 0.0
C257 C 0.72307 0.24902 0.95383 0.0
C258 C 0.93245 0.40627 0.97893 0.0
C259 C 0.90487 0.37816 0.9793 0.0
C260 C 0.83481 0.35187 0.90549 0.0
C261 C 0.77105 0.26995 0.9689 0.0
C262 C 0.80011 0.30058 0.96555 0.0
C263 C 0.88484 0.38718 0.95648 0.0
C264 C 0.85559 0.35761 0.95948 0.0
H265 H 0.73289 0.17776 0.0255 0.0
H266 H 0.77963 0.22634 0.01247 0.0
H267 H 0.79197 0.31943 0.86544 0.0
H268 H 0.92632 0.48203 0.91412 0.0
H269 H 0.87826 0.43299 0.91498 0.0
C270 C 0.54197 0.93032 0.02965 0.0
C271 C 0.51932 0.93156 -0.00288 0.0
C272 C 0.54177 0.8949 0.02808 0.0
C273 C 0.49612 0.78538 0.00018 0.0
H274 H 0.56149 0.7905 0.96758 0.0
C275 C 0.49941 0.6438 0.95396 0.0
C276 C 0.5232 0.64472 0.98361 0.0
C277 C 0.49839 0.6783 0.95539 0.0
C278 C 0.54316 0.78852 0.9776 0.0
H279 H 0.47847 0.89604 0.93816 0.0
H280 H 0.47819 0.83421 0.93536 0.0
H281 H 0.56057 0.85115 0.97096 0.0
H282 H 0.56446 0.68286 0.03892 0.0
H283 H 0.56252 0.74262 0.04219 0.0
H284 H 0.47876 0.7227 0.00717 0.0
C285 C 0.49606 0.86071 0.96248 0.0
C286 C 0.54263 0.82337 0.97947 0.0
C287 C 0.49628 0.89624 0.96382 0.0
C288 C 0.54583 0.68097 0.01517 0.0
C289 C 0.54478 0.7154 0.01669 0.0
C290 C 0.49667 0.75047 -0.00152 0.0
C291 C 0.5189 0.85969 -0.0059 0.0
C292 C 0.51916 0.8223 -0.00892 0.0
C293 C 0.5211 0.71462 0.98657 0.0
C294 C 0.52025 0.75161 0.98745 0.0
H295 H 0.56007 0.95683 0.05596 0.0
H296 H 0.55955 0.89509 0.0539 0.0
H297 H 0.47781 0.78353 0.01001 0.0
H298 H 0.48157 0.61646 0.92917 0.0
H299 H 0.4799 0.67663 0.93102 0.0
C300 C 0.90247 0.64038 0.02487 0.0
C301 C 0.9027 0.60594 0.01036 0.0
C302 C 0.87835 0.63769 0.03363 0.0
C303 C 0.80325 0.57034 -0.00632 0.0
H304 H 0.80474 0.64281 0.12683 0.0
C305 C 0.70533 0.56101 0.0454 0.0
C306 C 0.70647 0.59738 0.0469 0.0
C307 C 0.729 0.56032 0.04576 0.0
C308 C 0.80403 0.62249 0.08922 0.0
H309 H 0.87751 0.54153 -0.00613 0.0
H310 H 0.83565 0.53678 0.01128 0.0
H311 H 0.8465 0.64456 0.119 0.0
H312 H 0.73363 0.66155 0.04962 0.0
H313 H 0.77478 0.66027 0.05161 0.0
H314 H 0.7607 0.5483 0.96411 0.0
C315 C 0.85408 0.56598 0.01481 0.0
C316 C 0.82798 0.62356 0.08453 0.0
C317 C 0.8782 0.56868 0.00572 0.0
C318 C 0.73196 0.63301 0.04991 0.0
C319 C 0.7556 0.63231 0.05082 0.0
C320 C 0.77925 0.5691 -0.00127 0.0
C321 C 0.8538 0.60047 0.02852 0.0
C322 C 0.82798 0.59785 0.03609 0.0
C323 C 0.75438 0.59598 0.04819 0.0
C324 C 0.77945 0.5955 0.04596 0.0
H325 H 0.921 0.66954 0.02972 0.0
H326 H 0.87889 0.66495 0.04324 0.0
H327 H 0.80252 0.55048 0.9551 0.0
H328 H 0.68615 0.53301 0.0441 0.0
H329 H 0.72747 0.53187 0.04446 0.0
C330 C 0.11604 0.66127 0.00415 0.0
C331 C 0.10659 0.62077 -0.00832 0.0
C332 C 0.14372 0.69046 0.00765 0.0
C333 C 0.21272 0.70543 0.03315 0.0
H334 H 0.23164 0.80138 0.93955 0.0
C335 C 0.32265 0.81904 0.98427 0.0
C336 C 0.33143 0.85962 0.98832 0.0
C337 C 0.29563 0.7898 -0.01078 0.0
C338 C 0.22679 0.77505 0.96685 0.0
H339 H 0.11914 0.57933 0.9744 0.0
H340 H 0.16716 0.6301 0.98028 0.0
H341 H 0.18393 0.75114 0.94035 0.0
H342 H 0.31908 0.9013 0.00473 0.0
H343 H 0.27228 0.85062 0.01394 0.0
H344 H 0.25566 0.72937 0.05942 0.0
C345 C 0.15324 0.63933 0.98781 0.0
C346 C 0.19937 0.7462 0.96727 0.0
C347 C 0.12559 0.61019 0.98399 0.0
C348 C 0.31285 0.87029 -8e-05 0.0
C349 C 0.28595 0.84117 0.00505 0.0
C350 C 0.2402 0.73438 0.03286 0.0
C351 C 0.16265 0.67987 -0.00087 0.0
C352 C 0.19195 0.71097 0.00032 0.0
C353 C 0.27681 0.8005 -0.00141 0.0
C354 C 0.24761 0.76959 -0.00033 0.0
H355 H 0.10205 0.67055 0.01048 0.0
H356 H 0.15031 0.72137 0.01729 0.0
H357 H 0.20776 0.67887 0.05981 0.0
H358 H 0.33639 0.80982 0.97486 0.0
H359 H 0.28928 0.75878 0.98348 0.0
C360 C 0.5084 0.40283 -0.00877 0.0
C361 C 0.53091 0.43957 0.979 0.0
C362 C 0.50951 0.36843 -0.00751 0.0
C363 C 0.54611 0.32433 0.93498 0.0
H364 H 0.51385 0.25029 0.07321 0.0
C365 C 0.55382 0.18428 0.97063 0.0
C366 C 0.53029 0.1492 0.98392 0.0
C367 C 0.55512 0.22065 0.97043 0.0
C368 C 0.52272 0.27041 0.03378 0.0
H369 H 0.5723 0.46869 0.95828 0.0
H370 H 0.57422 0.4086 0.96083 0.0
H371 H 0.51383 0.3117 0.07212 0.0
H372 H 0.48949 0.125 0.00637 0.0
H373 H 0.49167 0.18787 0.00523 0.0
H374 H 0.55481 0.28274 0.89638 0.0
C375 C 0.55561 0.40643 0.96885 0.0
C376 C 0.52271 0.30568 0.03319 0.0
C377 C 0.55454 0.44094 0.96775 0.0
C378 C 0.50805 0.15136 -0.0036 0.0
C379 C 0.50935 0.18757 -0.00381 0.0
C380 C 0.54609 0.28894 0.93552 0.0
C381 C 0.53313 0.36976 0.9815 0.0
C382 C 0.53417 0.33294 0.98341 0.0
C383 C 0.53292 0.22277 0.98363 0.0
C384 C 0.53414 0.26133 0.98453 0.0
H385 H 0.48981 0.4005 -0.00014 0.0
H386 H 0.49166 0.34061 0.00132 0.0
H387 H 0.55487 0.34446 0.89549 0.0
H388 H 0.57134 0.18375 0.96086 0.0
H389 H 0.57368 0.24722 0.9611 0.0
loop_
_geom_bond_atom_site_label_1
_geom_bond_atom_site_label_2
_geom_bond_distance
_geom_bond_site_symmetry_2
_ccdc_geom_bond_type
Tb0 C9 2.764 . S
Tb0 O10 2.325 . S
Tb0 O13 2.291 1_656 S
Tb0 O17 2.322 1_655 S
Tb0 O18 2.349 . S
Tb0 O21 2.415 1_556 S
Tb0 O22 2.399 . S
Tb1 O11 2.322 1_455 S
Tb1 O12 2.349 . S
Tb1 O14 2.415 1_554 S
Tb1 O15 2.399 . S
Tb1 O16 2.325 . S
Tb1 O19 2.303 1_554 S
Tb1 C30 2.764 . S
C2 O18 1.261 . S
C2 O19 1.257 1_655 S
C3 C6 1.358 . S
C3 C7 1.332 1_556 S
C3 C9 1.504 . S
C4 C5 1.373 1_554 S
C4 C8 1.308 . S
C5 C4 1.373 1_556 S
C5 C6 1.429 . S
C5 H32 0.932 . S
C6 C3 1.358 . S
C6 C5 1.429 . S
C6 H33 0.930 . S
C7 C3 1.332 1_554 S
C7 C8 1.394 . S
C7 H34 0.932 . S
C8 C4 1.308 . S
C8 C7 1.394 . S
C8 H35 0.929 . S
C9 Tb0 2.764 . S
C9 C3 1.504 . S
C9 O21 1.239 1_556 S
C9 O22 1.263 . S
O10 Tb0 2.325 . S
O10 C20 1.236 . S
O11 Tb1 2.322 1_655 S
O11 C20 1.257 1_554 S
O12 Tb1 2.349 . S
O12 C23 1.261 . S
O13 Tb0 2.291 1_454 S
O13 C23 1.267 . S
O14 Tb1 2.415 1_556 S
O14 C30 1.239 1_556 S
O15 Tb1 2.399 . S
O15 C30 1.263 . S
O16 Tb1 2.325 . S
O16 C31 1.236 . S
O17 Tb0 2.322 1_455 S
O17 C31 1.257 1_556 S
O18 Tb0 2.349 . S
O18 C2 1.261 . S
O19 Tb1 2.303 1_556 S
O19 C2 1.257 1_455 S
C20 O10 1.236 . S
C20 O11 1.257 1_556 S
O21 Tb0 2.415 1_554 S
O21 C9 1.239 1_554 S
O22 Tb0 2.399 . S
O22 C9 1.263 . S
C23 O12 1.261 . S
C23 O13 1.267 . S
C24 C27 1.358 . S
C24 C28 1.332 1_554 S
C24 C30 1.504 . S
C25 C26 1.373 1_556 S
C25 C29 1.308 . S
C26 C25 1.373 1_554 S
C26 C27 1.429 . S
C26 H36 0.932 . S
C27 C24 1.358 . S
C27 C26 1.429 . S
C27 H37 0.930 . S
C28 C24 1.332 1_556 S
C28 C29 1.394 . S
C28 H38 0.932 . S
C29 C25 1.308 . S
C29 C28 1.394 . S
C29 H39 0.929 . S
C30 Tb1 2.764 . S
C30 O14 1.239 1_554 S
C30 O15 1.263 . S
C30 C24 1.504 . S
C31 O16 1.236 . S
C31 O17 1.257 1_554 S
H32 C5 0.932 . S
H33 C6 0.930 . S
H34 C7 0.932 . S
H35 C8 0.929 . S
H36 C26 0.932 . S
H37 C27 0.930 . S
H38 C28 0.932 . S
H39 C29 0.929 . S
Tb40 C49 2.764 . S
Tb40 O50 2.325 . S
Tb40 O53 2.303 1_556 S
Tb40 O57 2.322 1_565 S
Tb40 O58 2.349 . S
Tb40 O61 2.415 1_556 S
Tb40 O62 2.399 . S
Tb41 O51 2.322 1_545 S
Tb41 O52 2.349 . S
Tb41 O54 2.415 1_554 S
Tb41 O55 2.399 . S
Tb41 O56 2.325 . S
Tb41 O59 2.303 1_554 S
Tb41 C70 2.764 . S
C42 O58 1.261 . S
C42 O59 1.257 1_565 S
C43 C46 1.358 . S
C43 C47 1.332 1_556 S
C43 C49 1.504 . S
C44 C45 1.373 . S
C44 C48 1.308 1_556 S
C45 C44 1.373 . S
C45 C46 1.429 . S
C45 H72 0.932 . S
C46 C43 1.358 . S
C46 C45 1.429 . S
C46 H73 0.930 . S
C47 C43 1.332 1_554 S
C47 C48 1.394 . S
C47 H74 0.932 . S
C48 C44 1.308 1_554 S
C48 C47 1.394 . S
C48 H75 0.929 . S
C49 Tb40 2.764 . S
C49 C43 1.504 . S
C49 O61 1.239 1_556 S
C49 O62 1.263 . S
O50 Tb40 2.325 . S
O50 C60 1.236 1_556 S
O51 Tb41 2.322 1_565 S
O51 C60 1.257 . S
O52 Tb41 2.349 . S
O52 C63 1.261 . S
O53 Tb40 2.303 1_554 S
O53 C63 1.257 1_565 S
O54 Tb41 2.415 1_556 S
O54 C70 1.239 1_556 S
O55 Tb41 2.399 . S
O55 C70 1.263 . S
O56 Tb41 2.325 . S
O56 C71 1.236 1_554 S
O57 Tb40 2.322 1_545 S
O57 C71 1.257 . S
O58 Tb40 2.349 . S
O58 C42 1.261 . S
O59 Tb41 2.303 1_556 S
O59 C42 1.257 1_545 S
C60 O50 1.236 1_554 S
C60 O51 1.257 . S
O61 Tb40 2.415 1_554 S
O61 C49 1.239 1_554 S
O62 Tb40 2.399 . S
O62 C49 1.263 . S
C63 O52 1.261 . S
C63 O53 1.257 1_545 S
C64 C67 1.358 . S
C64 C68 1.332 1_554 S
C64 C70 1.504 . S
C65 C66 1.373 . S
C65 C69 1.308 1_554 S
C66 C65 1.373 . S
C66 C67 1.429 . S
C66 H76 0.932 . S
C67 C64 1.358 . S
C67 C66 1.429 . S
C67 H77 0.930 . S
C68 C64 1.332 1_556 S
C68 C69 1.394 . S
C68 H78 0.932 . S
C69 C65 1.308 1_556 S
C69 C68 1.394 . S
C69 H79 0.929 . S
C70 Tb41 2.764 . S
C70 O54 1.239 1_554 S
C70 O55 1.263 . S
C70 C64 1.504 . S
C71 O56 1.236 1_556 S
C71 O57 1.257 . S
H72 C45 0.932 . S
H73 C46 0.930 . S
H74 C47 0.932 . S
H75 C48 0.929 . S
H76 C66 0.932 . S
H77 C67 0.930 . S
H78 C68 0.932 . S
H79 C69 0.929 . S
Tb80 C89 2.764 . S
Tb80 O90 2.325 . S
Tb80 O93 2.303 1_554 S
Tb80 O97 2.322 . S
Tb80 O98 2.349 . S
Tb80 O101 2.415 1_554 S
Tb80 O102 2.399 . S
Tb81 O91 2.322 . S
Tb81 O92 2.349 . S
Tb81 O94 2.415 1_556 S
Tb81 O95 2.399 . S
Tb81 O96 2.325 . S
Tb81 O99 2.303 1_556 S
Tb81 C110 2.764 . S
C82 O98 1.261 . S
C82 O99 1.257 . S
C83 C86 1.358 . S
C83 C87 1.332 1_554 S
C83 C89 1.504 . S
C84 C85 1.373 . S
C84 C88 1.308 1_554 S
C85 C84 1.373 . S
C85 C86 1.429 . S
C85 H112 0.932 . S
C86 C83 1.358 . S
C86 C85 1.429 . S
C86 H113 0.930 . S
C87 C83 1.332 1_556 S
C87 C88 1.394 . S
C87 H114 0.932 . S
C88 C84 1.308 1_556 S
C88 C87 1.394 . S
C88 H115 0.929 . S
C89 Tb80 2.764 . S
C89 C83 1.504 . S
C89 O101 1.239 1_554 S
C89 O102 1.263 . S
O90 Tb80 2.325 . S
O90 C100 1.236 1_554 S
O91 Tb81 2.322 . S
O91 C100 1.257 . S
O92 Tb81 2.349 . S
O92 C103 1.261 . S
O93 Tb80 2.303 1_556 S
O93 C103 1.257 . S
O94 Tb81 2.415 1_554 S
O94 C110 1.239 1_554 S
O95 Tb81 2.399 . S
O95 C110 1.263 . S
O96 Tb81 2.325 . S
O96 C111 1.236 1_556 S
O97 Tb80 2.322 . S
O97 C111 1.257 . S
O98 Tb80 2.349 . S
O98 C82 1.261 . S
O99 Tb81 2.303 1_554 S
O99 C82 1.257 . S
C100 O90 1.236 1_556 S
C100 O91 1.257 . S
O101 Tb80 2.415 1_556 S
O101 C89 1.239 1_556 S
O102 Tb80 2.399 . S
O102 C89 1.263 . S
C103 O92 1.261 . S
C103 O93 1.257 . S
C104 C107 1.358 . S
C104 C108 1.332 1_556 S
C104 C110 1.504 . S
C105 C106 1.373 . S
C105 C109 1.308 1_556 S
C106 C105 1.373 . S
C106 C107 1.429 . S
C106 H116 0.932 . S
C107 C104 1.358 . S
C107 C106 1.429 . S
C107 H117 0.930 . S
C108 C104 1.332 1_554 S
C108 C109 1.394 . S
C108 H118 0.932 . S
C109 C105 1.308 1_554 S
C109 C108 1.394 . S
C109 H119 0.929 . S
C110 Tb81 2.764 . S
C110 O94 1.239 1_556 S
C110 O95 1.263 . S
C110 C104 1.504 . S
C111 O96 1.236 1_554 S
C111 O97 1.257 . S
H112 C85 0.932 . S
H113 C86 0.930 . S
H114 C87 0.932 . S
H115 C88 0.929 . S
H116 C106 0.932 . S
H117 C107 0.930 . S
H118 C108 0.932 . S
H119 C109 0.929 . S
C120 C121 1.349 1_655 S
C120 C122 1.327 . S
C120 H145 0.950 . S
C121 C120 1.349 1_455 S
C121 C137 1.349 . S
C122 C120 1.327 . S
C122 C141 1.429 1_655 S
C122 H146 0.950 . S
C123 C140 1.574 . S
C123 C142 1.368 . S
C123 H147 0.949 . S
H124 C128 0.949 . S
C125 C126 1.349 . S
C125 C127 1.327 . S
C125 H148 0.950 . S
C126 C125 1.349 . S
C126 C138 1.349 1_455 S
C127 C125 1.327 . S
C127 C143 1.429 . S
C127 H149 0.950 . S
C128 H124 0.949 . S
C128 C136 1.574 . S
C128 C144 1.368 1_655 S
H129 C137 0.950 . S
H130 C135 0.950 . S
H131 C136 0.949 . S
H132 C138 0.950 . S
H133 C139 0.950 . S
H134 C140 0.949 . S
C135 H130 0.950 . S
C135 C137 1.327 . S
C135 C141 1.429 . S
C136 C128 1.574 . S
C136 H131 0.949 . S
C136 C142 1.368 1_655 S
C137 C121 1.349 . S
C137 H129 0.950 . S
C137 C135 1.327 . S
C138 C126 1.349 1_655 S
C138 H132 0.950 . S
C138 C139 1.327 . S
C139 H133 0.950 . S
C139 C138 1.327 . S
C139 C143 1.429 1_655 S
C140 C123 1.574 . S
C140 H134 0.949 . S
C140 C144 1.368 . S
C141 C122 1.429 1_455 S
C141 C135 1.429 . S
C141 C142 1.523 . S
C142 C123 1.368 . S
C142 C136 1.368 1_455 S
C142 C141 1.523 . S
C143 C127 1.429 . S
C143 C139 1.429 1_455 S
C143 C144 1.523 . S
C144 C128 1.368 1_455 S
C144 C140 1.368 . S
C144 C143 1.523 . S
H145 C120 0.950 . S
H146 C122 0.950 . S
H147 C123 0.949 . S
H148 C125 0.950 . S
H149 C127 0.950 . S
C150 C151 1.349 . S
C150 C152 1.327 . S
C150 H175 0.950 . S
C151 C150 1.349 . S
C151 C167 1.349 1_565 S
C152 C150 1.327 . S
C152 C171 1.429 . S
C152 H176 0.950 . S
C153 C170 1.574 . S
C153 C172 1.359 1_545 S
C153 H177 0.949 . S
H154 C158 0.949 . S
C155 C156 1.349 . S
C155 C157 1.327 . S
C155 H178 0.950 . S
C156 C155 1.349 . S
C156 C168 1.349 1_545 S
C157 C155 1.327 . S
C157 C173 1.429 . S
C157 H179 0.950 . S
C158 H154 0.949 . S
C158 C166 1.574 . S
C158 C174 1.368 1_565 S
H159 C167 0.950 . S
H160 C165 0.950 . S
H161 C166 0.949 . S
H162 C168 0.950 . S
H163 C169 0.950 . S
H164 C170 0.949 . S
C165 H160 0.950 . S
C165 C167 1.327 . S
C165 C171 1.429 1_545 S
C166 C158 1.574 . S
C166 H161 0.949 . S
C166 C172 1.378 . S
C167 C151 1.349 1_545 S
C167 H159 0.950 . S
C167 C165 1.327 . S
C168 C156 1.349 1_565 S
C168 H162 0.950 . S
C168 C169 1.327 . S
C169 H163 0.950 . S
C169 C168 1.327 . S
C169 C173 1.429 1_565 S
C170 C153 1.574 . S
C170 H164 0.949 . S
C170 C174 1.368 . S
C171 C152 1.429 . S
C171 C165 1.429 1_565 S
C171 C172 1.523 . S
C172 C153 1.359 1_565 S
C172 C166 1.378 . S
C172 C171 1.523 . S
C173 C157 1.429 . S
C173 C169 1.429 1_545 S
C173 C174 1.523 . S
C174 C158 1.368 1_545 S
C174 C170 1.368 . S
C174 C173 1.523 . S
H175 C150 0.950 . S
H176 C152 0.950 . S
H177 C153 0.949 . S
H178 C155 0.950 . S
H179 C157 0.950 . S
C180 C181 1.349 . S
C180 C182 1.327 . S
C180 H205 0.950 . S
C181 C180 1.349 . S
C181 C197 1.349 . S
C182 C180 1.327 . S
C182 C201 1.429 . S
C182 H206 0.950 . S
C183 C200 1.574 . S
C183 C202 1.368 . S
C183 H207 0.949 . S
H184 C188 0.949 . S
C185 C186 1.349 . S
C185 C187 1.327 . S
C185 H208 0.950 . S
C186 C185 1.349 . S
C186 C198 1.349 . S
C187 C185 1.327 . S
C187 C203 1.429 . S
C187 H209 0.950 . S
C188 H184 0.949 . S
C188 C196 1.574 . S
C188 C204 1.368 . S
H189 C197 0.950 . S
H190 C195 0.950 . S
H191 C196 0.949 . S
H192 C198 0.950 . S
H193 C199 0.950 . S
H194 C200 0.949 . S
C195 H190 0.950 . S
C195 C197 1.327 . S
C195 C201 1.429 . S
C196 C188 1.574 . S
C196 H191 0.949 . S
C196 C202 1.368 . S
C197 C181 1.349 . S
C197 H189 0.950 . S
C197 C195 1.327 . S
C198 C186 1.349 . S
C198 H192 0.950 . S
C198 C199 1.327 . S
C199 H193 0.950 . S
C199 C198 1.327 . S
C199 C203 1.429 . S
C200 C183 1.574 . S
C200 H194 0.949 . S
C200 C204 1.368 . S
C201 C182 1.429 . S
C201 C195 1.429 . S
C201 C202 1.523 . S
C202 C183 1.368 . S
C202 C196 1.368 . S
C202 C201 1.523 . S
C203 C187 1.429 . S
C203 C199 1.429 . S
C203 C204 1.523 . S
C204 C188 1.368 . S
C204 C200 1.368 . S
C204 C203 1.523 . S
H205 C180 0.950 . S
H206 C182 0.950 . S
H207 C183 0.949 . S
H208 C185 0.950 . S
H209 C187 0.950 . S
C210 C211 1.349 . S
C210 C212 1.327 . S
C210 H235 0.950 . S
C211 C210 1.349 . S
C211 C227 1.349 1_556 S
C212 C210 1.327 . S
C212 C231 1.429 . S
C212 H236 0.950 . S
C213 C230 1.574 . S
C213 C232 1.368 1_554 S
C213 H237 0.949 . S
H214 C218 0.949 . S
C215 C216 1.349 1_554 S
C215 C217 1.327 . S
C215 H238 0.950 . S
C216 C215 1.349 1_556 S
C216 C228 1.349 . S
C217 C215 1.327 . S
C217 C233 1.429 1_554 S
C217 H239 0.950 . S
C218 H214 0.949 . S
C218 C226 1.574 . S
C218 C234 1.368 . S
H219 C227 0.950 . S
H220 C225 0.950 . S
H221 C226 0.949 . S
H222 C228 0.950 . S
H223 C229 0.950 . S
H224 C230 0.949 . S
C225 H220 0.950 . S
C225 C227 1.327 . S
C225 C231 1.429 1_554 S
C226 C218 1.574 . S
C226 H221 0.949 . S
C226 C232 1.368 . S
C227 C211 1.349 1_554 S
C227 H219 0.950 . S
C227 C225 1.327 . S
C228 C216 1.349 . S
C228 H222 0.950 . S
C228 C229 1.327 . S
C229 H223 0.950 . S
C229 C228 1.327 . S
C229 C233 1.429 . S
C230 C213 1.574 . S
C230 H224 0.949 . S
C230 C234 1.368 1_554 S
C231 C212 1.429 . S
C231 C225 1.429 1_556 S
C231 C232 1.523 . S
C232 C213 1.368 1_556 S
C232 C226 1.368 . S
C232 C231 1.523 . S
C233 C217 1.429 1_556 S
C233 C229 1.429 . S
C233 C234 1.523 . S
C234 C218 1.368 . S
C234 C230 1.368 1_556 S
C234 C233 1.523 . S
H235 C210 0.950 . S
H236 C212 0.950 . S
H237 C213 0.949 . S
H238 C215 0.950 . S
H239 C217 0.950 . S
C240 C241 1.349 . S
C240 C242 1.327 . S
C240 H265 0.950 . S
C241 C240 1.349 . S
C241 C257 1.349 1_554 S
C242 C240 1.327 . S
C242 C261 1.429 . S
C242 H266 0.950 . S
C243 C260 1.574 . S
C243 C262 1.368 1_556 S
C243 H267 0.949 . S
H244 C248 0.949 . S
C245 C246 1.349 . S
C245 C247 1.327 . S
C245 H268 0.950 . S
C246 C245 1.349 . S
C246 C258 1.349 1_556 S
C247 C245 1.327 . S
C247 C263 1.440 . S
C247 H269 0.950 . S
C248 H244 0.949 . S
C248 C256 1.574 . S
C248 C264 1.369 1_554 S
H249 C257 0.950 . S
H250 C255 0.950 . S
H251 C256 0.949 . S
H252 C258 0.950 . S
H253 C259 0.950 . S
H254 C260 0.949 . S
C255 H250 0.950 . S
C255 C257 1.327 . S
C255 C261 1.429 1_556 S
C256 C248 1.574 . S
C256 H251 0.949 . S
C256 C262 1.368 . S
C257 C241 1.349 1_556 S
C257 H249 0.950 . S
C257 C255 1.327 . S
C258 C246 1.349 1_554 S
C258 H252 0.950 . S
C258 C259 1.327 . S
C259 H253 0.950 . S
C259 C258 1.327 . S
C259 C263 1.420 1_554 S
C260 C243 1.574 . S
C260 H254 0.949 . S
C260 C264 1.368 . S
C261 C242 1.429 . S
C261 C255 1.429 1_554 S
C261 C262 1.523 . S
C262 C243 1.368 1_554 S
C262 C256 1.368 . S
C262 C261 1.523 . S
C263 C247 1.440 . S
C263 C259 1.420 1_556 S
C263 C264 1.521 . S
C264 C248 1.369 1_556 S
C264 C260 1.368 . S
C264 C263 1.521 . S
H265 C240 0.950 . S
H266 C242 0.950 . S
H267 C243 0.949 . S
H268 C245 0.950 . S
H269 C247 0.950 . S
C270 C271 1.349 1_556 S
C270 C272 1.327 . S
C270 H295 0.950 . S
C271 C270 1.349 1_554 S
C271 C287 1.349 . S
C272 C270 1.327 . S
C272 C291 1.429 1_556 S
C272 H296 0.950 . S
C273 C290 1.574 . S
C273 C292 1.368 . S
C273 H297 0.949 . S
H274 C278 0.949 . S
C275 C276 1.349 . S
C275 C277 1.327 . S
C275 H298 0.950 . S
C276 C275 1.349 . S
C276 C288 1.349 1_554 S
C277 C275 1.327 . S
C277 C293 1.429 . S
C277 H299 0.950 . S
C278 H274 0.949 . S
C278 C286 1.574 . S
C278 C294 1.368 1_556 S
H279 C287 0.950 . S
H280 C285 0.950 . S
H281 C286 0.949 . S
H282 C288 0.950 . S
H283 C289 0.950 . S
H284 C290 0.949 . S
C285 H280 0.950 . S
C285 C287 1.327 . S
C285 C291 1.429 . S
C286 C278 1.574 . S
C286 H281 0.949 . S
C286 C292 1.368 1_556 S
C287 C271 1.349 . S
C287 H279 0.950 . S
C287 C285 1.327 . S
C288 C276 1.349 1_556 S
C288 H282 0.950 . S
C288 C289 1.327 . S
C289 H283 0.950 . S
C289 C288 1.327 . S
C289 C293 1.429 1_556 S
C290 C273 1.574 . S
C290 H284 0.949 . S
C290 C294 1.368 . S
C291 C272 1.429 1_554 S
C291 C285 1.429 . S
C291 C292 1.523 . S
C292 C273 1.368 . S
C292 C286 1.368 1_554 S
C292 C291 1.523 . S
C293 C277 1.429 . S
C293 C289 1.429 1_554 S
C293 C294 1.523 . S
C294 C278 1.368 1_554 S
C294 C290 1.368 . S
C294 C293 1.523 . S
H295 C270 0.950 . S
H296 C272 0.950 . S
H297 C273 0.949 . S
H298 C275 0.950 . S
H299 C277 0.950 . S
C300 C301 1.349 . S
C300 C302 1.327 . S
C300 H325 0.950 . S
C301 C300 1.349 . S
C301 C317 1.349 . S
C302 C300 1.327 . S
C302 C321 1.429 . S
C302 H326 0.950 . S
C303 C320 1.574 . S
C303 C322 1.368 . S
C303 H327 0.949 . S
H304 C308 0.949 . S
C305 C306 1.349 . S
C305 C307 1.327 . S
C305 H328 0.950 . S
C306 C305 1.349 . S
C306 C318 1.349 . S
C307 C305 1.327 . S
C307 C323 1.429 . S
C307 H329 0.950 . S
C308 H304 0.949 . S
C308 C316 1.574 . S
C308 C324 1.368 . S
H309 C317 0.950 . S
H310 C315 0.950 . S
H311 C316 0.949 . S
H312 C318 0.950 . S
H313 C319 0.950 . S
H314 C320 0.949 . S
C315 H310 0.950 . S
C315 C317 1.327 . S
C315 C321 1.429 . S
C316 C308 1.574 . S
C316 H311 0.949 . S
C316 C322 1.368 . S
C317 C301 1.349 . S
C317 H309 0.950 . S
C317 C315 1.327 . S
C318 C306 1.349 . S
C318 H312 0.950 . S
C318 C319 1.327 . S
C319 H313 0.950 . S
C319 C318 1.327 . S
C319 C323 1.429 . S
C320 C303 1.574 . S
C320 H314 0.949 . S
C320 C324 1.368 . S
C321 C302 1.429 . S
C321 C315 1.429 . S
C321 C322 1.523 . S
C322 C303 1.368 . S
C322 C316 1.368 . S
C322 C321 1.523 . S
C323 C307 1.429 . S
C323 C319 1.429 . S
C323 C324 1.523 . S
C324 C308 1.368 . S
C324 C320 1.368 . S
C324 C323 1.523 . S
H325 C300 0.950 . S
H326 C302 0.950 . S
H327 C303 0.949 . S
H328 C305 0.950 . S
H329 C307 0.950 . S
C330 C331 1.349 1_556 S
C330 C332 1.327 . S
C330 H355 0.950 . S
C331 C330 1.349 1_554 S
C331 C347 1.349 . S
C332 C330 1.327 . S
C332 C351 1.429 1_556 S
C332 H356 0.950 . S
C333 C350 1.574 . S
C333 C352 1.375 . S
C333 H357 0.949 . S
H334 C338 0.949 . S
C335 C336 1.349 1_554 S
C335 C337 1.327 . S
C335 H358 0.950 . S
C336 C335 1.349 1_556 S
C336 C348 1.349 . S
C337 C335 1.327 . S
C337 C353 1.429 1_554 S
C337 H359 0.950 . S
C338 H334 0.949 . S
C338 C346 1.574 . S
C338 C354 1.376 . S
H339 C347 0.950 . S
H340 C345 0.950 . S
H341 C346 0.949 . S
H342 C348 0.950 . S
H343 C349 0.950 . S
H344 C350 0.949 . S
C345 H340 0.950 . S
C345 C347 1.327 . S
C345 C351 1.429 . S
C346 C338 1.574 . S
C346 H341 0.949 . S
C346 C352 1.360 1_556 S
C347 C331 1.349 . S
C347 H339 0.950 . S
C347 C345 1.327 . S
C348 C336 1.349 . S
C348 H342 0.950 . S
C348 C349 1.327 . S
C349 H343 0.950 . S
C349 C348 1.327 . S
C349 C353 1.429 . S
C350 C333 1.574 . S
C350 H344 0.949 . S
C350 C354 1.359 1_554 S
C351 C332 1.429 1_554 S
C351 C345 1.429 . S
C351 C352 1.525 . S
C352 C333 1.375 . S
C352 C346 1.360 1_554 S
C352 C351 1.525 . S
C353 C337 1.429 1_556 S
C353 C349 1.429 . S
C353 C354 1.525 . S
C354 C338 1.376 . S
C354 C350 1.359 1_556 S
C354 C353 1.525 . S
H355 C330 0.950 . S
H356 C332 0.950 . S
H357 C333 0.949 . S
H358 C335 0.950 . S
H359 C337 0.950 . S
C360 C361 1.349 1_554 S
C360 C362 1.327 . S
C360 H385 0.950 . S
C361 C360 1.349 1_556 S
C361 C377 1.349 . S
C362 C360 1.327 . S
C362 C381 1.429 1_554 S
C362 H386 0.950 . S
C363 C380 1.574 . S
C363 C382 1.368 . S
C363 H387 0.949 . S
H364 C368 0.949 . S
C365 C366 1.349 . S
C365 C367 1.327 . S
C365 H388 0.950 . S
C366 C365 1.349 . S
C366 C378 1.349 1_556 S
C367 C365 1.327 . S
C367 C383 1.429 . S
C367 H389 0.950 . S
C368 H364 0.949 . S
C368 C376 1.574 . S
C368 C384 1.368 1_554 S
H369 C377 0.950 . S
H370 C375 0.950 . S
H371 C376 0.949 . S
H372 C378 0.950 . S
H373 C379 0.950 . S
H374 C380 0.949 . S
C375 H370 0.950 . S
C375 C377 1.327 . S
C375 C381 1.429 . S
C376 C368 1.574 . S
C376 H371 0.949 . S
C376 C382 1.368 1_554 S
C377 C361 1.349 . S
C377 H369 0.950 . S
C377 C375 1.327 . S
C378 C366 1.349 1_554 S
C378 H372 0.950 . S
C378 C379 1.327 . S
C379 H373 0.950 . S
C379 C378 1.327 . S
C379 C383 1.429 1_554 S
C380 C363 1.574 . S
C380 H374 0.949 . S
C380 C384 1.368 . S
C381 C362 1.429 1_556 S
C381 C375 1.429 . S
C381 C382 1.523 . S
C382 C363 1.368 . S
C382 C376 1.368 1_556 S
C382 C381 1.523 . S
C383 C367 1.429 . S
C383 C379 1.429 1_556 S
C383 C384 1.523 . S
C384 C368 1.368 1_556 S
C384 C380 1.368 . S
C384 C383 1.523 . S
H385 C360 0.950 . S
H386 C362 0.950 . S
H387 C363 0.949 . S
H388 C365 0.950 . S
H389 C367 0.950 . S
C121 C2 1.465 1_455 S
C126 C23 1.465 . S
C151 C63 1.474 1_565 S
C156 C42 1.474 1_545 S
C181 C103 1.471 . S
C186 C82 1.471 . S
C211 C25 0.702 . S
C216 C105 0.700 . S
C241 C65 1.697 . S
C246 C20 1.695 . S
C271 C60 2.477 . S
C276 C111 2.492 . S
C301 C4 0.702 . S
C306 C84 0.700 . S
C331 C31 1.696 . S
C336 C44 1.697 . S
C361 C100 2.491 . S
C366 C71 2.477 . S
