# Generated by pormake.
# Topology upc, (4)-cn, num edge types: 1
# Building blocks:
#     Node 0, Type 0, BuildingBlock: NAWXER_clean_sbu_0, # of connection points: 4
#     Node 1, Type 0, BuildingBlock: NAWXER_clean_sbu_0, # of connection points: 4
#     Node 2, Type 0, BuildingBlock: NAWXER_clean_sbu_0, # of connection points: 4
#     Node 3, Type 0, BuildingBlock: NAWXER_clean_sbu_0, # of connection points: 4
#     Node 4, Type 0, BuildingBlock: NAWXER_clean_sbu_0, # of connection points: 4
#     Node 5, Type 0, BuildingBlock: NAWXER_clean_sbu_0, # of connection points: 4
#     Node 6, Type 0, BuildingBlock: NAWXER_clean_sbu_0, # of connection points: 4
#     Node 7, Type 0, BuildingBlock: NAWXER_clean_sbu_0, # of connection points: 4
#     Node 8, Type 0, BuildingBlock: NAWXER_clean_sbu_0, # of connection points: 4
#     Node 9, Type 0, BuildingBlock: NAWXER_clean_sbu_0, # of connection points: 4
#     Node 10, Type 0, BuildingBlock: NAWXER_clean_sbu_0, # of connection points: 4
#     Node 11, Type 0, BuildingBlock: NAWXER_clean_sbu_0, # of connection points: 4
#     Node 12, Type 0, BuildingBlock: NAWXER_clean_sbu_0, # of connection points: 4
#     Node 13, Type 0, BuildingBlock: NAWXER_clean_sbu_0, # of connection points: 4
#     Node 14, Type 0, BuildingBlock: NAWXER_clean_sbu_0, # of connection points: 4
#     Node 15, Type 0, BuildingBlock: NAWXER_clean_sbu_0, # of connection points: 4
#     Edge 16, Type (0, 0), BuildingBlock: AJUNOK_clean_linker_0, # of connection points: 2
#     Edge 17, Type (0, 0), BuildingBlock: AJUNOK_clean_linker_0, # of connection points: 2
#     Edge 18, Type (0, 0), BuildingBlock: AJUNOK_clean_linker_0, # of connection points: 2
#     Edge 19, Type (0, 0), BuildingBlock: AJUNOK_clean_linker_0, # of connection points: 2
#     Edge 20, Type (0, 0), BuildingBlock: AJUNOK_clean_linker_0, # of connection points: 2
#     Edge 21, Type (0, 0), BuildingBlock: AJUNOK_clean_linker_0, # of connection points: 2
#     Edge 22, Type (0, 0), BuildingBlock: AJUNOK_clean_linker_0, # of connection points: 2
#     Edge 23, Type (0, 0), BuildingBlock: AJUNOK_clean_linker_0, # of connection points: 2
#     Edge 24, Type (0, 0), BuildingBlock: AJUNOK_clean_linker_0, # of connection points: 2
#     Edge 25, Type (0, 0), BuildingBlock: AJUNOK_clean_linker_0, # of connection points: 2
#     Edge 26, Type (0, 0), BuildingBlock: AJUNOK_clean_linker_0, # of connection points: 2
#     Edge 27, Type (0, 0), BuildingBlock: AJUNOK_clean_linker_0, # of connection points: 2
#     Edge 28, Type (0, 0), BuildingBlock: AJUNOK_clean_linker_0, # of connection points: 2
#     Edge 29, Type (0, 0), BuildingBlock: AJUNOK_clean_linker_0, # of connection points: 2
#     Edge 30, Type (0, 0), BuildingBlock: AJUNOK_clean_linker_0, # of connection points: 2
#     Edge 31, Type (0, 0), BuildingBlock: AJUNOK_clean_linker_0, # of connection points: 2
#     Edge 32, Type (0, 0), BuildingBlock: AJUNOK_clean_linker_0, # of connection points: 2
#     Edge 33, Type (0, 0), BuildingBlock: AJUNOK_clean_linker_0, # of connection points: 2
#     Edge 34, Type (0, 0), BuildingBlock: AJUNOK_clean_linker_0, # of connection points: 2
#     Edge 35, Type (0, 0), BuildingBlock: AJUNOK_clean_linker_0, # of connection points: 2
#     Edge 36, Type (0, 0), BuildingBlock: AJUNOK_clean_linker_0, # of connection points: 2
#     Edge 37, Type (0, 0), BuildingBlock: AJUNOK_clean_linker_0, # of connection points: 2
#     Edge 38, Type (0, 0), BuildingBlock: AJUNOK_clean_linker_0, # of connection points: 2
#     Edge 39, Type (0, 0), BuildingBlock: AJUNOK_clean_linker_0, # of connection points: 2
#     Edge 40, Type (0, 0), BuildingBlock: AJUNOK_clean_linker_0, # of connection points: 2
#     Edge 41, Type (0, 0), BuildingBlock: AJUNOK_clean_linker_0, # of connection points: 2
#     Edge 42, Type (0, 0), BuildingBlock: AJUNOK_clean_linker_0, # of connection points: 2
#     Edge 43, Type (0, 0), BuildingBlock: AJUNOK_clean_linker_0, # of connection points: 2
#     Edge 44, Type (0, 0), BuildingBlock: AJUNOK_clean_linker_0, # of connection points: 2
#     Edge 45, Type (0, 0), BuildingBlock: AJUNOK_clean_linker_0, # of connection points: 2
#     Edge 46, Type (0, 0), BuildingBlock: AJUNOK_clean_linker_0, # of connection points: 2
#     Edge 47, Type (0, 0), BuildingBlock: AJUNOK_clean_linker_0, # of connection points: 2
# Relax obj value: 0.229
# Max RMSD: 0.220
# Mean RMSD: 0.220
data_MOF--net-upc--node1-NAWXER_clean_sbu_0--edge1-AJUNOK_clean_linker_0
_symmetry_space_group_name_H-M    P1
_symmetry_Int_Tables_number       1
_symmetry_cell_setting            triclinic
loop_
_symmetry_equiv_pos_as_xyz
'x, y, z'
_cell_length_a     25.533844
_cell_length_b     25.555456
_cell_length_c     32.303093
_cell_angle_alpha  89.922467
_cell_angle_beta   90.016236
_cell_angle_gamma 90.057384
loop_
_atom_site_label
_atom_site_type_symbol
_atom_site_fract_x
_atom_site_fract_y
_atom_site_fract_z
_atom_type_partial_charge
C0 C 0.0956 0.56541 0.14562 0.0
C1 C 0.19665 0.69122 0.06202 0.0
O2 O 0.06738 0.5999 0.12733 0.0
Zn3 Zn 0.07716 0.66251 0.08278 0.0
O4 O 0.14374 0.56087 0.13596 0.0
Zn5 Zn 0.14539 0.6196 0.09651 0.0
O6 O 0.12355 0.68155 0.13873 0.0
O7 O 0.04945 0.71699 0.11605 0.0
O8 O 0.21226 0.64727 0.07589 0.0
O9 O 0.14739 0.70064 0.06178 0.0
O10 O 0.03622 0.64388 0.03606 0.0
O11 O 0.10184 0.58941 0.04483 0.0
C12 C 0.08613 0.71466 0.14265 0.0
C13 C 0.0602 0.60285 0.02527 0.0
C14 C 0.96754 0.06505 0.03666 0.0
C15 C 0.84611 0.08095 0.14927 0.0
O16 O 0.97878 0.10508 0.05896 0.0
Zn17 Zn 0.94416 0.14432 0.1113 0.0
O18 O 0.92558 0.04013 0.04364 0.0
Zn19 Zn 0.90356 0.07633 0.092 0.0
O20 O 0.86554 0.14762 0.07329 0.0
O21 O 0.9162 0.21245 0.09287 0.0
O22 O 0.84733 0.04509 0.12204 0.0
O23 O 0.87937 0.11855 0.14879 0.0
O24 O 1.00025 0.13984 0.1531 0.0
O25 O 0.96525 0.06393 0.13663 0.0
C26 C 0.87339 0.19693 0.07678 0.0
C27 C 0.99835 0.09037 0.15795 0.0
C28 C 0.4572 0.84149 0.14573 0.0
C29 C 0.47919 0.9579 0.03017 0.0
O30 O 0.41912 0.87389 0.14228 0.0
Zn31 Zn 0.39476 0.93562 0.10097 0.0
O32 O 0.49356 0.84053 0.11879 0.0
Zn33 Zn 0.46401 0.89468 0.08564 0.0
O34 O 0.47249 0.95762 0.13013 0.0
O35 O 0.39504 0.99348 0.14091 0.0
O36 O 0.50385 0.91619 0.03838 0.0
O37 O 0.43765 0.96903 0.05063 0.0
O38 O 0.32869 0.90742 0.07943 0.0
O39 O 0.39443 0.85526 0.06483 0.0
C40 C 0.44378 0.99099 0.14922 0.0
C41 C 0.34505 0.86416 0.06498 0.0
C42 C 0.60136 0.46864 0.02224 0.0
C43 C 0.71209 0.47597 0.14108 0.0
O44 O 0.58942 0.43161 0.04743 0.0
Zn45 Zn 0.62401 0.39933 0.10283 0.0
O46 O 0.64337 0.49393 0.02786 0.0
Zn47 Zn 0.6634 0.46489 0.07973 0.0
O48 O 0.70676 0.39416 0.06909 0.0
O49 O 0.6553 0.33095 0.09038 0.0
O50 O 0.71507 0.50385 0.10857 0.0
O51 O 0.68181 0.43591 0.14277 0.0
O52 O 0.56522 0.40365 0.14136 0.0
O53 O 0.59721 0.47987 0.12149 0.0
C54 C 0.69885 0.34524 0.07507 0.0
C55 C 0.56469 0.45346 0.14362 0.0
C56 C 0.10527 0.98246 0.29337 0.0
C57 C 0.20708 0.85205 0.3718 0.0
O58 O 0.07707 0.94784 0.31163 0.0
Zn59 Zn 0.08751 0.88312 0.35446 0.0
O60 O 0.15387 0.98576 0.30195 0.0
Zn61 Zn 0.15556 0.92564 0.34005 0.0
O62 O 0.13071 0.86578 0.29664 0.0
O63 O 0.05699 0.83087 0.32067 0.0
O64 O 0.22263 0.89653 0.35901 0.0
O65 O 0.15779 0.84269 0.37249 0.0
O66 O 0.04874 0.90028 0.40265 0.0
O67 O 0.11391 0.95515 0.39296 0.0
C68 C 0.09222 0.83374 0.29293 0.0
C69 C 0.07307 0.94118 0.41335 0.0
C70 C 0.59218 0.0738 0.40456 0.0
C71 C 0.69929 0.09094 0.28337 0.0
O72 O 0.57685 0.11323 0.38303 0.0
Zn73 Zn 0.60577 0.15382 0.32887 0.0
O74 O 0.63419 0.05085 0.3947 0.0
Zn75 Zn 0.64984 0.08777 0.34526 0.0
O76 O 0.68874 0.15976 0.36092 0.0
O77 O 0.63342 0.22249 0.34561 0.0
O78 O 0.70258 0.05699 0.31207 0.0
O79 O 0.66603 0.12842 0.28594 0.0
O80 O 0.54581 0.14936 0.29102 0.0
O81 O 0.58432 0.07386 0.30389 0.0
C82 C 0.67835 0.20871 0.35863 0.0
C83 C 0.54909 0.10027 0.28469 0.0
C84 C 0.49091 0.58517 0.39997 0.0
C85 C 0.46523 0.70725 0.28839 0.0
O86 O 0.44922 0.57449 0.37952 0.0
Zn87 Zn 0.40583 0.60904 0.32998 0.0
O88 O 0.51547 0.6272 0.39241 0.0
Zn89 Zn 0.47495 0.6505 0.34603 0.0
O90 O 0.40484 0.68752 0.36841 0.0
O91 O 0.33931 0.63596 0.35193 0.0
O92 O 0.50276 0.70734 0.31435 0.0
O93 O 0.42816 0.67359 0.29105 0.0
O94 O 0.40734 0.5533 0.28807 0.0
O95 O 0.48406 0.59069 0.29935 0.0
C96 C 0.35544 0.67877 0.36754 0.0
C97 C 0.4558 0.55781 0.27933 0.0
C98 C 0.95148 0.48284 0.40256 0.0
C99 C 0.83758 0.48473 0.28517 0.0
O100 O 0.96208 0.44427 0.37858 0.0
Zn101 Zn 0.92664 0.41014 0.32431 0.0
O102 O 0.91023 0.50909 0.39631 0.0
Zn103 Zn 0.88866 0.47766 0.34577 0.0
O104 O 0.84539 0.40779 0.35974 0.0
O105 O 0.89457 0.34262 0.33913 0.0
O106 O 0.83608 0.51495 0.31634 0.0
O107 O 0.86804 0.44485 0.2844 0.0
O108 O 0.98493 0.41254 0.28507 0.0
O109 O 0.95417 0.48984 0.30308 0.0
C110 C 0.85181 0.35851 0.35484 0.0
C111 C 0.98635 0.46223 0.28169 0.0
C112 C 0.95664 0.34634 0.78499 0.0
C113 C 0.97337 0.46232 0.90127 0.0
O114 O 0.99156 0.3449 0.8131 0.0
Zn115 Zn 0.96143 0.40028 0.84448 0.0
O116 O 0.91942 0.37991 0.78662 0.0
Zn117 Zn 0.89417 0.44271 0.82633 0.0
O118 O 0.89883 0.50015 0.7861 0.0
O119 O 0.97444 0.46223 0.80005 0.0
O120 O 0.9335 0.47457 0.87915 0.0
O121 O 0.99832 0.4208 0.89313 0.0
O122 O 0.88963 0.36266 0.8625 0.0
O123 O 0.82599 0.41572 0.84432 0.0
C124 C 0.94786 0.49607 0.77955 0.0
C125 C 0.84051 0.37223 0.8597 0.0
C126 C 0.06763 0.95505 0.79543 0.0
C127 C 0.20023 0.84776 0.86674 0.0
O128 O 0.06616 0.9056 0.80058 0.0
Zn129 Zn 0.12664 0.90177 0.83753 0.0
O130 O 0.10243 0.98181 0.81487 0.0
Zn131 Zn 0.16933 0.9681 0.85549 0.0
O132 O 0.22197 1.00094 0.82317 0.0
O133 O 0.18467 0.93132 0.79429 0.0
O134 O 0.20941 0.89682 0.86999 0.0
O135 O 0.15589 0.83333 0.85294 0.0
O136 O 0.09694 0.93966 0.89247 0.0
O137 O 0.15297 1.00279 0.9058 0.0
C138 C 0.21722 0.96955 0.79294 0.0
C139 C 0.11137 0.97851 0.91495 0.0
C140 C 0.56906 0.21209 0.78971 0.0
C141 C 0.56602 0.10317 0.91 0.0
O142 O 0.53809 0.21532 0.82039 0.0
Zn143 Zn 0.57331 0.1629 0.8514 0.0
O144 O 0.60841 0.18092 0.79026 0.0
Zn145 Zn 0.64068 0.12266 0.832 0.0
O146 O 0.63753 0.06367 0.79325 0.0
O147 O 0.56074 0.09765 0.80931 0.0
O148 O 0.60473 0.09012 0.88683 0.0
O149 O 0.54044 0.14416 0.90162 0.0
O150 O 0.64321 0.20496 0.86547 0.0
O151 O 0.70845 0.15451 0.84696 0.0
C152 C 0.58803 0.06506 0.78815 0.0
C153 C 0.69251 0.19791 0.86146 0.0
C154 C 0.3382 0.57588 0.78722 0.0
C155 C 0.45455 0.55542 0.90256 0.0
O156 O 0.33455 0.54321 0.81679 0.0
Zn157 Zn 0.39174 0.57162 0.84685 0.0
O158 O 0.37293 0.61222 0.78779 0.0
Zn159 Zn 0.43623 0.63666 0.82845 0.0
O160 O 0.4932 0.63171 0.7881 0.0
O161 O 0.45337 0.5568 0.80153 0.0
O162 O 0.46863 0.5948 0.88047 0.0
O163 O 0.41118 0.53343 0.89511 0.0
O164 O 0.35641 0.64406 0.86504 0.0
O165 O 0.4118 0.70565 0.84705 0.0
C166 C 0.48754 0.58301 0.78091 0.0
C167 C 0.36789 0.69274 0.86256 0.0
C168 C 0.98479 0.08217 0.53612 0.0
C169 C 0.96343 0.20357 0.64817 0.0
O170 O 1.00913 0.12424 0.54371 0.0
Zn171 Zn 0.97073 0.14648 0.59108 0.0
O172 O 0.94432 0.07038 0.55772 0.0
Zn173 Zn 0.90328 0.10415 0.60891 0.0
O174 O 0.83535 0.12963 0.58915 0.0
O175 O 0.89896 0.18296 0.57112 0.0
O176 O 0.92647 0.16959 0.64698 0.0
O177 O 0.99978 0.20359 0.62122 0.0
O178 O 0.98275 0.08722 0.63791 0.0
O179 O 0.90701 0.04874 0.65093 0.0
C180 C 0.84985 0.17297 0.57345 0.0
C181 C 0.9556 0.05418 0.65877 0.0
C182 C 0.48753 0.95817 0.64867 0.0
C183 C 0.36516 0.84654 0.57027 0.0
O184 O 0.49244 0.909 0.64319 0.0
Zn185 Zn 0.43478 0.90257 0.60322 0.0
O186 O 0.45346 0.9834 0.6273 0.0
Zn187 Zn 0.39041 0.9677 0.58371 0.0
O188 O 0.33449 0.99752 0.61492 0.0
O189 O 0.37337 0.92906 0.64416 0.0
O190 O 0.35441 0.89528 0.56702 0.0
O191 O 0.40883 0.83344 0.5861 0.0
O192 O 0.4665 0.9425 0.55015 0.0
O193 O 0.40975 1.00408 0.5344 0.0
C194 C 0.33946 0.96599 0.64517 0.0
C195 C 0.45287 0.98134 0.52734 0.0
C196 C 0.57325 0.33078 0.64139 0.0
C197 C 0.57491 0.43886 0.52055 0.0
O198 O 0.54382 0.32673 0.60982 0.0
Zn199 Zn 0.58005 0.37918 0.57939 0.0
O200 O 0.61259 0.36201 0.64161 0.0
Zn201 Zn 0.64637 0.41999 0.60054 0.0
O202 O 0.64113 0.47911 0.639 0.0
O203 O 0.5653 0.44478 0.62077 0.0
O204 O 0.61254 0.45213 0.54476 0.0
O205 O 0.54915 0.39769 0.52822 0.0
O206 O 0.65082 0.3378 0.56694 0.0
O207 O 0.71489 0.38874 0.58729 0.0
C208 C 0.59139 0.4778 0.64251 0.0
C209 C 0.6999 0.34534 0.57211 0.0
C210 C 0.20925 0.57648 0.64288 0.0
C211 C 0.09953 0.56512 0.5232 0.0
O212 O 0.21213 0.54365 0.61348 0.0
Zn213 Zn 0.1595 0.57655 0.58136 0.0
O214 O 0.17778 0.61552 0.64115 0.0
Zn215 Zn 0.11928 0.64476 0.59803 0.0
O216 O 0.05967 0.64447 0.63586 0.0
O217 O 0.09368 0.56654 0.6238 0.0
O218 O 0.08698 0.6054 0.54475 0.0
O219 O 0.14064 0.5401 0.53233 0.0
O220 O 0.20153 0.64605 0.56476 0.0
O221 O 0.15006 0.71165 0.5805 0.0
C222 C 0.06022 0.59538 0.64282 0.0
C223 C 0.19385 0.69545 0.56694 0.0
C224 C 0.28889 0.72629 0.05871 0.0
C225 C 0.23476 0.73463 0.05351 0.0
C226 C 0.32459 0.76825 0.05944 0.0
C227 C 0.30782 0.82062 0.05545 0.0
H228 H 0.30372 0.68723 0.06435 0.0
H229 H 0.36535 0.75958 0.0657 0.0
S230 S 0.17173 0.86374 0.03437 0.0
N231 N 0.16723 0.79952 0.0389 0.0
N232 N 0.23424 0.87792 0.04116 0.0
C233 C 0.25445 0.82935 0.04734 0.0
C234 C 0.21805 0.78657 0.04607 0.0
C235 C 0.83732 0.28876 0.07027 0.0
C236 C 0.82903 0.23426 0.06917 0.0
C237 C 0.79511 0.32428 0.06984 0.0
C238 C 0.74258 0.30698 0.06908 0.0
H239 H 0.87671 0.30419 0.07282 0.0
H240 H 0.80383 0.36567 0.07213 0.0
S241 S 0.69894 0.16867 0.06304 0.0
N242 N 0.76345 0.16508 0.0644 0.0
N243 N 0.6849 0.23166 0.06466 0.0
C244 C 0.73372 0.25278 0.06635 0.0
C245 C 0.77663 0.21659 0.06606 0.0
C246 C 0.22786 0.75592 0.37518 0.0
C247 C 0.24493 0.80826 0.37903 0.0
C248 C 0.26349 0.71393 0.37413 0.0
C249 C 0.31789 0.72216 0.37741 0.0
H250 H 0.18673 0.7473 0.37055 0.0
H251 H 0.24826 0.67494 0.36883 0.0
S252 S 0.38243 0.85108 0.39436 0.0
N253 N 0.31958 0.86532 0.39046 0.0
N254 N 0.38643 0.78693 0.38935 0.0
C255 C 0.33515 0.77403 0.38439 0.0
C256 C 0.29882 0.81684 0.38493 0.0
C257 C 0.816 0.26695 0.36227 0.0
C258 C 0.80732 0.32134 0.3624 0.0
C259 C 0.77415 0.2311 0.36364 0.0
C260 C 0.72146 0.24785 0.36457 0.0
H261 H 0.85546 0.25176 0.35987 0.0
H262 H 0.78334 0.18979 0.36194 0.0
S263 S 0.67703 0.38602 0.36867 0.0
N264 N 0.7415 0.39014 0.36648 0.0
N265 N 0.66331 0.32287 0.36834 0.0
C266 C 0.71222 0.30208 0.36651 0.0
C267 C 0.75491 0.33869 0.36564 0.0
C268 C 0.8194 0.27664 0.86772 0.0
C269 C 0.80207 0.32911 0.8675 0.0
C270 C 0.78395 0.23446 0.86768 0.0
C271 C 0.72947 0.24269 0.86806 0.0
H272 H 0.86081 0.26782 0.86576 0.0
H273 H 0.79947 0.19509 0.86597 0.0
S274 S 0.66354 0.37249 0.87199 0.0
N275 N 0.7266 0.38671 0.87069 0.0
N276 N 0.66001 0.30799 0.87138 0.0
C277 C 0.71161 0.295 0.87033 0.0
C278 C 0.7478 0.33796 0.86982 0.0
C279 C 0.27337 0.71772 0.87161 0.0
C280 C 0.32659 0.73278 0.87121 0.0
C281 C 0.2328 0.75492 0.8723 0.0
C282 C 0.24345 0.80897 0.87323 0.0
H283 H 0.26267 0.67681 0.86915 0.0
H284 H 0.19274 0.74111 0.87058 0.0
S285 S 0.37617 0.86905 0.87796 0.0
N286 N 0.38757 0.80556 0.87548 0.0
N287 N 0.31183 0.87538 0.87757 0.0
C288 C 0.29654 0.82448 0.87563 0.0
C289 C 0.33788 0.78652 0.87438 0.0
C290 C 0.792 0.31019 0.56775 0.0
C291 C 0.73767 0.30129 0.56551 0.0
C292 C 0.82796 0.26852 0.56744 0.0
C293 C 0.8113 0.21586 0.56555 0.0
H294 H 0.80697 0.34963 0.57112 0.0
H295 H 0.86913 0.27776 0.57099 0.0
S296 S 0.67369 0.17093 0.55554 0.0
N297 N 0.66928 0.23529 0.55804 0.0
N298 N 0.73681 0.15748 0.55838 0.0
C299 C 0.7573 0.20642 0.5614 0.0
C300 C 0.72061 0.2489 0.56112 0.0
C301 C 0.2291 0.78693 0.55834 0.0
C302 C 0.23832 0.73268 0.56001 0.0
C303 C 0.27059 0.82315 0.5589 0.0
C304 C 0.32332 0.80692 0.5618 0.0
H305 H 0.18936 0.80173 0.55812 0.0
H306 H 0.26086 0.8644 0.55924 0.0
S307 S 0.36942 0.66924 0.56264 0.0
N308 N 0.30498 0.66447 0.56097 0.0
N309 N 0.38245 0.73253 0.56273 0.0
C310 C 0.3333 0.75279 0.5612 0.0
C311 C 0.29104 0.71578 0.56009 0.0
C312 C 0.04856 0.45934 0.22051 0.0
C313 C 1.02033 0.48859 0.25017 0.0
C314 C 0.07497 0.484 0.18735 0.0
C315 C 0.07334 0.53864 0.18243 0.0
H316 H 0.04891 0.41701 0.2221 0.0
H317 H 0.09486 0.4601 0.1646 0.0
S318 S 1.01141 0.63385 0.25381 0.0
N319 N 0.99772 0.57616 0.27409 0.0
N320 N 0.04583 0.62152 0.21174 0.0
C321 C 0.04751 0.56833 0.21275 0.0
C322 C 1.02145 0.54361 0.24661 0.0
C323 C 0.06094 0.09077 0.21917 0.0
C324 C 0.03048 0.06281 0.19007 0.0
C325 C 0.08681 0.06495 0.25208 0.0
C326 C 0.08235 1.01047 0.25735 0.0
H327 H 0.06378 0.13297 0.21716 0.0
H328 H 0.10883 0.08789 0.27425 0.0
S329 S 1.01339 0.91813 0.18747 0.0
N330 N 1.00239 0.97632 0.16712 0.0
N331 N 0.04943 0.92899 0.22894 0.0
C332 C 0.05394 0.98202 0.22769 0.0
C333 C 0.02846 1.00783 0.19409 0.0
C334 C 0.53543 1.02446 0.23748 0.0
C335 C 0.51808 0.07355 0.25171 0.0
C336 C 0.51107 0.99901 0.20443 0.0
C337 C 0.46751 1.02079 0.18408 0.0
H338 H 0.56915 1.00561 0.25133 0.0
H339 H 0.52661 0.96144 0.19495 0.0
S340 S 0.40474 0.14751 0.2097 0.0
N341 N 0.45363 0.1428 0.24305 0.0
N342 N 0.4068 0.09388 0.1812 0.0
C343 C 0.4486 0.06924 0.19837 0.0
C344 C 0.47416 0.09588 0.23197 0.0
C345 C 0.49711 0.45339 0.20117 0.0
C346 C 0.53194 0.48116 0.17515 0.0
C347 C 0.47077 0.47831 0.23414 0.0
C348 C 0.47918 0.5316 0.24273 0.0
H349 H 0.49103 0.41185 0.19668 0.0
H350 H 0.44528 0.45536 0.25389 0.0
S351 S 0.56202 0.62346 0.18231 0.0
N352 N 0.56965 0.56654 0.15906 0.0
N353 N 0.52135 0.61223 0.22095 0.0
C354 C 0.51227 0.5601 0.21622 0.0
C355 C 0.5383 0.53524 0.18248 0.0
C356 C 0.0438 0.52288 0.69273 0.0
C357 C 0.02801 0.57143 0.67635 0.0
C358 C 1.01788 0.49996 0.72624 0.0
C359 C 0.97413 0.52383 0.74475 0.0
H360 H 0.07742 0.50251 0.68019 0.0
H361 H 0.03218 0.4626 0.73738 0.0
S362 S 0.91537 0.65043 0.71324 0.0
N363 N 0.96517 0.6427 0.68115 0.0
N364 N 0.91519 0.59842 0.74371 0.0
C365 C 0.95694 0.5719 0.72838 0.0
C366 C 0.98419 0.59599 0.69441 0.0
C367 C 0.9989 0.95271 0.73882 0.0
C368 C 0.03416 0.98151 0.7637 0.0
C369 C 0.97195 0.97633 0.70551 0.0
C370 C 0.98014 0.02927 0.69548 0.0
H371 H 0.99301 0.91133 0.74441 0.0
H372 H 0.9461 0.95263 0.68667 0.0
S373 S 0.06311 0.12372 0.75309 0.0
N374 N 0.07148 0.06764 0.77754 0.0
N375 N 1.02207 0.1109 0.71501 0.0
C376 C 1.01348 0.05888 0.72097 0.0
C377 C 0.04013 0.03533 0.75504 0.0
C378 C 0.58382 0.99054 0.73631 0.0
C379 C 0.56216 0.03636 0.7535 0.0
C380 C 0.55999 0.96521 0.70229 0.0
C381 C 0.51464 0.98576 0.68336 0.0
H382 H 0.61912 0.97391 0.74943 0.0
H383 H 0.57741 0.92956 0.69056 0.0
S384 S 0.44326 0.10582 0.71588 0.0
N385 N 0.49247 0.10107 0.74865 0.0
N386 N 0.44951 0.05538 0.68457 0.0
C387 C 0.49329 0.03208 0.69999 0.0
C388 C 0.5165 0.0568 0.73505 0.0
C389 C 0.58912 0.54771 0.69821 0.0
C390 C 0.56366 0.50786 0.67562 0.0
C391 C 0.56446 0.57263 0.732 0.0
C392 C 0.51411 0.55747 0.74522 0.0
H393 H 0.62851 0.5595 0.68998 0.0
H394 H 0.5854 0.60308 0.74843 0.0
S395 S 0.42944 0.45683 0.69608 0.0
N396 N 0.48361 0.45651 0.66834 0.0
N397 N 0.43897 0.50142 0.73211 0.0
C398 C 0.48814 0.51816 0.72267 0.0
C399 C 0.5124 0.49393 0.68783 0.0
C400 C 0.13356 0.76168 0.19748 0.0
C401 C 0.08557 0.74764 0.17945 0.0
C402 C 0.13508 0.78904 0.23462 0.0
C403 C 0.08868 0.80246 0.25527 0.0
H404 H 0.1703 0.75134 0.18282 0.0
H405 H 0.17296 0.79936 0.24741 0.0
S406 S 0.95299 0.77496 0.22066 0.0
N407 N 0.99053 0.74941 0.18431 0.0
N408 N 0.99338 0.80061 0.25507 0.0
C409 C 0.04032 0.7887 0.23766 0.0
C410 C 0.03876 0.76153 0.19931 0.0
C411 C 0.79331 0.03743 0.20377 0.0
C412 C 0.80504 0.08215 0.18044 0.0
C413 C 0.75852 0.04043 0.2371 0.0
C414 C 0.73401 0.08802 0.24731 0.0
H415 H 0.81257 1.00059 0.19723 0.0
H416 H 0.75113 1.00542 0.25512 0.0
S417 S 0.74911 0.215 0.1924 0.0
N418 N 0.78798 0.17423 0.16752 0.0
N419 N 0.72198 0.18012 0.22972 0.0
C420 C 0.74403 0.13248 0.22284 0.0
C421 C 0.77982 0.12946 0.18943 0.0
C422 C 0.50956 0.75793 0.23286 0.0
C423 C 0.4636 0.74451 0.25418 0.0
C424 C 0.50723 0.78861 0.19701 0.0
C425 C 0.45897 0.80715 0.18204 0.0
H426 H 0.5472 0.74338 0.24321 0.0
H427 H 0.54341 0.79821 0.1812 0.0
S428 S 0.32772 0.78369 0.22806 0.0
N429 N 0.3689 0.75272 0.25888 0.0
N430 N 0.3643 0.81019 0.1915 0.0
C431 C 0.41286 0.79446 0.20361 0.0
C432 C 0.41525 0.76317 0.23978 0.0
C433 C 0.79726 0.49328 0.17427 0.0
C434 C 0.74274 0.48916 0.17746 0.0
C435 C 0.82803 0.49512 0.20994 0.0
C436 C 0.80473 0.49437 0.24931 0.0
H437 H 0.81628 0.49143 0.14432 0.0
H438 H 0.87031 0.4948 0.20681 0.0
S439 S 0.66315 0.49049 0.27332 0.0
N440 N 0.6662 0.48874 0.22225 0.0
N441 N 0.72443 0.49392 0.2896 0.0
C442 C 0.75015 0.49437 0.25277 0.0
C443 C 0.71889 0.49126 0.21655 0.0
C444 C 1.00829 0.25614 0.70213 0.0
C445 C 0.96228 0.24244 0.68103 0.0
C446 C 1.00626 0.28931 0.73649 0.0
C447 C 0.95827 0.31013 0.74998 0.0
H448 H 0.04568 0.23998 0.69278 0.0
H449 H 0.0424 0.29901 0.75232 0.0
S450 S 0.82717 0.28696 0.70358 0.0
N451 N 0.86797 0.25268 0.6748 0.0
N452 N 0.86386 0.31507 0.73926 0.0
C453 C 0.91216 0.29719 0.72851 0.0
C454 C 0.91425 0.26328 0.69395 0.0
C455 C 0.25472 0.97957 0.68098 0.0
C456 C 0.30916 0.97313 0.68294 0.0
C457 C 0.22492 0.98003 0.71727 0.0
C458 C 0.24924 0.97592 0.75615 0.0
H459 H 0.23496 0.98171 0.65133 0.0
H460 H 0.18264 0.98258 0.71498 0.0
S461 S 0.39087 0.96262 0.77754 0.0
N462 N 0.38644 0.96458 0.72655 0.0
N463 N 0.33028 0.9681 0.7949 0.0
C464 C 0.30373 0.97227 0.75856 0.0
C465 C 0.33386 0.97018 0.72175 0.0
C466 C 0.56087 0.21757 0.71397 0.0
C467 C 0.56008 0.24282 0.75258 0.0
C468 C 0.56107 0.24652 0.67732 0.0
C469 C 0.56214 0.30123 0.67876 0.0
H470 H 0.56329 0.1753 0.71216 0.0
H471 H 0.56385 0.22618 0.64799 0.0
S472 S 0.55754 0.38536 0.77203 0.0
N473 N 0.55675 0.3249 0.79026 0.0
N474 N 0.55951 0.37978 0.72111 0.0
C475 C 0.55924 0.32685 0.71709 0.0
C476 C 0.55756 0.29739 0.75428 0.0
C477 C 0.3272 0.5769 0.71141 0.0
C478 C 0.30478 0.57107 0.7509 0.0
C479 C 0.29604 0.57574 0.67596 0.0
C480 C 0.24168 0.57027 0.67938 0.0
H481 H 0.36898 0.58295 0.70797 0.0
H482 H 0.31419 0.58138 0.64595 0.0
S483 S 0.16423 0.55346 0.77534 0.0
N484 N 0.22556 0.55805 0.79135 0.0
N485 N 0.16639 0.55833 0.72436 0.0
C486 C 0.21881 0.56385 0.71848 0.0
C487 C 0.25064 0.56355 0.7545 0.0
C488 C 0.06033 0.51934 -0.01488 0.0
C489 C 0.03793 0.56865 -0.00733 0.0
C490 C 0.03842 0.4849 0.95626 0.0
C491 C 0.9932 0.4983 0.93365 0.0
H492 H 0.09491 0.50685 0.00186 0.0
H493 H 0.05748 0.44754 0.95153 0.0
S494 S 0.91943 0.6231 0.94149 0.0
N495 N 0.9679 0.6294 -0.02511 0.0
N496 N 0.92678 0.56463 0.92073 0.0
C497 C 0.97028 0.54751 0.94088 0.0
C498 C 0.99266 0.58268 -0.02972 0.0
C499 C 1.02446 0.982 0.95038 0.0
C500 C 0.07677 0.99897 0.94804 0.0
C501 C 0.98934 1.00439 -0.02148 0.0
C502 C 1.005 0.04472 0.00552 0.0
H503 H 1.01004 0.95185 0.92977 0.0
H504 H 0.94945 0.98991 -0.02106 0.0
S505 S 0.13866 0.10123 0.01359 0.0
N506 N 0.14322 0.05721 -0.02357 0.0
N507 N 0.07718 0.09926 0.02924 0.0
C508 C 0.05743 0.0616 0.00395 0.0
C509 C 0.0933 0.03868 -0.02467 0.0
C510 C 0.53915 0.97942 -0.02871 0.0
C511 C 0.50098 0.99562 -5e-05 0.0
C512 C 0.56167 1.01488 0.94333 0.0
C513 C 0.54699 0.06792 0.94312 0.0
H514 H 0.55137 0.93887 -0.02994 0.0
H515 H 0.58973 1.00025 0.92104 0.0
S516 S 0.45279 0.13138 0.01485 0.0
N517 N 0.45219 0.06909 0.02832 0.0
N518 N 0.4946 0.13567 -0.02394 0.0
C519 C 0.51009 0.08496 -0.02746 0.0
C520 C 0.48699 0.04884 0.00081 0.0
C521 C 0.54315 0.54934 0.93507 0.0
C522 C 0.49067 0.53272 0.93376 0.0
C523 C 0.57897 0.52682 0.96261 0.0
C524 C 0.5639 0.48677 -0.00983 0.0
H525 H 0.55699 0.57984 0.91447 0.0
H526 H 0.61875 0.5416 0.96259 0.0
S527 S 0.43091 0.42895 -0.00073 0.0
N528 N 0.4253 0.47339 0.96243 0.0
N529 N 0.49265 0.43123 0.01426 0.0
C530 C 0.51164 0.46931 -0.01106 0.0
C531 C 0.47505 0.4923 0.96083 0.0
C532 C 0.07117 0.02602 0.45162 0.0
C533 C 0.05144 0.97508 0.44634 0.0
C534 C 0.04874 0.06049 0.48017 0.0
C535 C 1.00565 0.04549 0.50469 0.0
H536 H 0.10373 0.03987 0.43311 0.0
H537 H 0.06546 0.0993 0.48293 0.0
S538 S 0.94044 0.91551 0.5041 0.0
N539 N 0.98707 0.91068 0.46896 0.0
N540 N 0.94494 0.97551 0.52256 0.0
C541 C 0.98579 0.99444 0.50006 0.0
C542 C 1.00871 0.95925 0.47099 0.0
C543 C 0.50625 0.06797 0.44149 0.0
C544 C 0.55854 0.05148 0.43762 0.0
C545 C 0.47222 0.04425 0.46988 0.0
C546 C 0.489 1.00302 0.49566 0.0
H547 H 0.49105 0.09892 0.42195 0.0
H548 H 0.43235 0.05853 0.47158 0.0
S549 S 0.62292 0.94654 0.49904 0.0
N550 N 0.62604 0.99222 0.46298 0.0
N551 N 0.56208 0.94766 0.51619 0.0
C552 C 0.54137 0.9864 0.49241 0.0
C553 C 0.57611 1.01066 0.46353 0.0
C554 C 0.5718 0.52729 0.48736 0.0
C555 C 0.55707 0.47423 0.48707 0.0
C556 C 0.55004 0.56297 0.45923 0.0
C557 C 0.51257 0.54698 0.42988 0.0
H558 H 0.59921 0.54181 0.51024 0.0
H559 H 0.56212 0.60356 0.46096 0.0
S560 S 0.46506 0.41124 0.41322 0.0
N561 N 0.50577 0.40666 0.45273 0.0
N562 N 0.46475 0.47367 0.40013 0.0
C563 C 0.49876 0.49371 0.42838 0.0
C564 C 0.52111 0.45736 0.45684 0.0
C565 C 0.97597 0.5427 0.46054 0.0
C566 C 0.98946 0.50089 0.43425 0.0
C567 C 1.01222 0.56407 0.48829 0.0
C568 C 0.06354 0.54451 0.49106 0.0
H569 H 0.93707 0.55953 0.45958 0.0
H570 H 0.99951 0.59579 0.5081 0.0
S571 S 0.11937 0.43607 0.42852 0.0
N572 N 0.05826 0.44113 0.41241 0.0
N573 N 0.1264 0.48119 0.4646 0.0
C574 C 0.07773 0.50273 0.46492 0.0
C575 C 0.04071 0.4809 0.43662 0.0
loop_
_geom_bond_atom_site_label_1
_geom_bond_atom_site_label_2
_geom_bond_distance
_geom_bond_site_symmetry_2
_ccdc_geom_bond_type
C0 O2 1.240 1_455 S
C0 O4 1.280 . S
C1 O8 1.247 . S
C1 O9 1.258 . S
O2 C0 1.240 1_655 S
O2 Zn3 2.028 1_655 S
Zn3 O2 2.028 1_455 S
Zn3 O7 2.035 . S
Zn3 O9 2.035 . S
Zn3 O10 2.028 . S
O4 C0 1.280 . S
O4 Zn5 2.035 . S
Zn5 O4 2.035 . S
Zn5 O6 2.028 . S
Zn5 O8 2.028 . S
Zn5 O11 2.035 . S
O6 Zn5 2.028 . S
O6 C12 1.247 . S
O7 Zn3 2.035 . S
O7 C12 1.258 . S
O8 C1 1.247 . S
O8 Zn5 2.028 . S
O9 C1 1.258 . S
O9 Zn3 2.035 . S
O10 Zn3 2.028 . S
O10 C13 1.247 . S
O11 Zn5 2.035 . S
O11 C13 1.258 . S
C12 O6 1.247 . S
C12 O7 1.258 . S
C13 O10 1.247 . S
C13 O11 1.258 . S
C14 O16 1.247 . S
C14 O18 1.258 . S
C15 O22 1.247 . S
C15 O23 1.258 . S
O16 C14 1.247 . S
O16 Zn17 2.028 . S
Zn17 O16 2.028 . S
Zn17 O21 2.035 . S
Zn17 O23 2.035 . S
Zn17 O24 2.028 . S
O18 C14 1.258 . S
O18 Zn19 2.035 . S
Zn19 O18 2.035 . S
Zn19 O20 2.028 . S
Zn19 O22 2.028 . S
Zn19 O25 2.035 1_545 S
O20 Zn19 2.028 . S
O20 C26 1.247 . S
O21 Zn17 2.035 . S
O21 C26 1.258 . S
O22 C15 1.247 . S
O22 Zn19 2.028 . S
O23 C15 1.258 . S
O23 Zn17 2.035 . S
O24 Zn17 2.028 . S
O24 C27 1.247 . S
O25 Zn19 2.035 1_565 S
O25 C27 1.258 1_565 S
C26 O20 1.247 . S
C26 O21 1.258 . S
C27 O24 1.247 . S
C27 O25 1.258 1_545 S
C28 O30 1.247 . S
C28 O32 1.258 . S
C29 O36 1.247 . S
C29 O37 1.258 . S
O30 C28 1.247 . S
O30 Zn31 2.028 . S
Zn31 O30 2.028 . S
Zn31 O35 2.035 . S
Zn31 O37 2.035 . S
Zn31 O38 2.028 . S
O32 C28 1.258 . S
O32 Zn33 2.035 . S
Zn33 O32 2.035 . S
Zn33 O34 2.028 . S
Zn33 O36 2.028 . S
Zn33 O39 2.035 . S
O34 Zn33 2.028 . S
O34 C40 1.247 . S
O35 Zn31 2.035 . S
O35 C40 1.258 . S
O36 C29 1.247 . S
O36 Zn33 2.028 . S
O37 C29 1.258 . S
O37 Zn31 2.035 . S
O38 Zn31 2.028 . S
O38 C41 1.247 . S
O39 Zn33 2.035 . S
O39 C41 1.258 . S
C40 O34 1.247 . S
C40 O35 1.258 . S
C41 O38 1.247 . S
C41 O39 1.258 . S
C42 O44 1.247 . S
C42 O46 1.258 . S
C43 O50 1.247 . S
C43 O51 1.258 . S
O44 C42 1.247 . S
O44 Zn45 2.028 . S
Zn45 O44 2.028 . S
Zn45 O49 2.035 . S
Zn45 O51 2.035 . S
Zn45 O52 2.028 . S
O46 C42 1.258 . S
O46 Zn47 2.035 . S
Zn47 O46 2.035 . S
Zn47 O48 2.028 . S
Zn47 O50 2.028 . S
Zn47 O53 2.035 . S
O48 Zn47 2.028 . S
O48 C54 1.247 . S
O49 Zn45 2.035 . S
O49 C54 1.258 . S
O50 C43 1.247 . S
O50 Zn47 2.028 . S
O51 C43 1.258 . S
O51 Zn45 2.035 . S
O52 Zn45 2.028 . S
O52 C55 1.247 . S
O53 Zn47 2.035 . S
O53 C55 1.258 . S
C54 O48 1.247 . S
C54 O49 1.258 . S
C55 O52 1.247 . S
C55 O53 1.258 . S
C56 O58 1.240 1_455 S
C56 O60 1.280 . S
C57 O64 1.247 . S
C57 O65 1.258 . S
O58 C56 1.240 1_655 S
O58 Zn59 2.028 1_655 S
Zn59 O58 2.028 1_455 S
Zn59 O63 2.035 . S
Zn59 O65 2.035 . S
Zn59 O66 2.028 . S
O60 C56 1.280 . S
O60 Zn61 2.035 . S
Zn61 O60 2.035 . S
Zn61 O62 2.028 . S
Zn61 O64 2.028 . S
Zn61 O67 2.035 . S
O62 Zn61 2.028 . S
O62 C68 1.247 . S
O63 Zn59 2.035 . S
O63 C68 1.258 . S
O64 C57 1.247 . S
O64 Zn61 2.028 . S
O65 C57 1.258 . S
O65 Zn59 2.035 . S
O66 Zn59 2.028 . S
O66 C69 1.247 . S
O67 Zn61 2.035 . S
O67 C69 1.258 . S
C68 O62 1.247 . S
C68 O63 1.258 . S
C69 O66 1.247 . S
C69 O67 1.258 . S
C70 O72 1.247 . S
C70 O74 1.258 . S
C71 O78 1.247 . S
C71 O79 1.258 . S
O72 C70 1.247 . S
O72 Zn73 2.028 . S
Zn73 O72 2.028 . S
Zn73 O77 2.035 . S
Zn73 O79 2.035 . S
Zn73 O80 2.028 . S
O74 C70 1.258 . S
O74 Zn75 2.035 . S
Zn75 O74 2.035 . S
Zn75 O76 2.028 . S
Zn75 O78 2.028 . S
Zn75 O81 2.035 1_545 S
O76 Zn75 2.028 . S
O76 C82 1.247 . S
O77 Zn73 2.035 . S
O77 C82 1.258 . S
O78 C71 1.247 . S
O78 Zn75 2.028 . S
O79 C71 1.258 . S
O79 Zn73 2.035 . S
O80 Zn73 2.028 . S
O80 C83 1.247 . S
O81 Zn75 2.035 1_565 S
O81 C83 1.258 1_565 S
C82 O76 1.247 . S
C82 O77 1.258 . S
C83 O80 1.247 . S
C83 O81 1.258 1_545 S
C84 O86 1.247 . S
C84 O88 1.258 . S
C85 O92 1.247 . S
C85 O93 1.258 . S
O86 C84 1.247 . S
O86 Zn87 2.028 . S
Zn87 O86 2.028 . S
Zn87 O91 2.035 . S
Zn87 O93 2.035 . S
Zn87 O94 2.028 . S
O88 C84 1.258 . S
O88 Zn89 2.035 . S
Zn89 O88 2.035 . S
Zn89 O90 2.028 . S
Zn89 O92 2.028 . S
Zn89 O95 2.035 . S
O90 Zn89 2.028 . S
O90 C96 1.247 . S
O91 Zn87 2.035 . S
O91 C96 1.258 . S
O92 C85 1.247 . S
O92 Zn89 2.028 . S
O93 C85 1.258 . S
O93 Zn87 2.035 . S
O94 Zn87 2.028 . S
O94 C97 1.247 . S
O95 Zn89 2.035 . S
O95 C97 1.258 . S
C96 O90 1.247 . S
C96 O91 1.258 . S
C97 O94 1.247 . S
C97 O95 1.258 . S
C98 O100 1.247 . S
C98 O102 1.258 . S
C99 O106 1.247 . S
C99 O107 1.258 . S
O100 C98 1.247 . S
O100 Zn101 2.028 . S
Zn101 O100 2.028 . S
Zn101 O105 2.035 . S
Zn101 O107 2.035 . S
Zn101 O108 2.028 . S
O102 C98 1.258 . S
O102 Zn103 2.035 . S
Zn103 O102 2.035 . S
Zn103 O104 2.028 . S
Zn103 O106 2.028 . S
Zn103 O109 2.035 . S
O104 Zn103 2.028 . S
O104 C110 1.247 . S
O105 Zn101 2.035 . S
O105 C110 1.258 . S
O106 C99 1.247 . S
O106 Zn103 2.028 . S
O107 C99 1.258 . S
O107 Zn101 2.035 . S
O108 Zn101 2.028 . S
O108 C111 1.247 . S
O109 Zn103 2.035 . S
O109 C111 1.258 . S
C110 O104 1.247 . S
C110 O105 1.258 . S
C111 O108 1.247 . S
C111 O109 1.258 . S
C112 O114 1.247 . S
C112 O116 1.258 . S
C113 O120 1.247 . S
C113 O121 1.258 . S
O114 C112 1.247 . S
O114 Zn115 2.028 . S
Zn115 O114 2.028 . S
Zn115 O119 2.035 1_655 S
Zn115 O121 2.035 . S
Zn115 O122 2.028 . S
O116 C112 1.258 . S
O116 Zn117 2.035 . S
Zn117 O116 2.035 . S
Zn117 O118 2.028 . S
Zn117 O120 2.028 . S
Zn117 O123 2.035 . S
O118 Zn117 2.028 . S
O118 C124 1.247 . S
O119 Zn115 2.035 1_455 S
O119 C124 1.258 1_455 S
O120 C113 1.247 . S
O120 Zn117 2.028 . S
O121 C113 1.258 . S
O121 Zn115 2.035 . S
O122 Zn115 2.028 . S
O122 C125 1.247 . S
O123 Zn117 2.035 . S
O123 C125 1.258 . S
C124 O118 1.247 . S
C124 O119 1.258 1_655 S
C125 O122 1.247 . S
C125 O123 1.258 . S
C126 O128 1.247 . S
C126 O130 1.258 1_565 S
C127 O134 1.247 . S
C127 O135 1.258 . S
O128 C126 1.247 . S
O128 Zn129 2.028 . S
Zn129 O128 2.028 . S
Zn129 O133 2.035 . S
Zn129 O135 2.035 . S
Zn129 O136 2.028 . S
O130 C126 1.258 1_545 S
O130 Zn131 2.035 1_545 S
Zn131 O130 2.035 1_565 S
Zn131 O132 2.028 . S
Zn131 O134 2.028 . S
Zn131 O137 2.035 . S
O132 Zn131 2.028 . S
O132 C138 1.247 . S
O133 Zn129 2.035 . S
O133 C138 1.258 . S
O134 C127 1.247 . S
O134 Zn131 2.028 . S
O135 C127 1.258 . S
O135 Zn129 2.035 . S
O136 Zn129 2.028 . S
O136 C139 1.247 . S
O137 Zn131 2.035 . S
O137 C139 1.258 . S
C138 O132 1.247 . S
C138 O133 1.258 . S
C139 O136 1.247 . S
C139 O137 1.258 . S
C140 O142 1.247 . S
C140 O144 1.258 . S
C141 O148 1.247 . S
C141 O149 1.258 . S
O142 C140 1.247 . S
O142 Zn143 2.028 . S
Zn143 O142 2.028 . S
Zn143 O147 2.035 . S
Zn143 O149 2.035 . S
Zn143 O150 2.028 . S
O144 C140 1.258 . S
O144 Zn145 2.035 . S
Zn145 O144 2.035 . S
Zn145 O146 2.028 . S
Zn145 O148 2.028 . S
Zn145 O151 2.035 . S
O146 Zn145 2.028 . S
O146 C152 1.247 . S
O147 Zn143 2.035 . S
O147 C152 1.258 . S
O148 C141 1.247 . S
O148 Zn145 2.028 . S
O149 C141 1.258 . S
O149 Zn143 2.035 . S
O150 Zn143 2.028 . S
O150 C153 1.247 . S
O151 Zn145 2.035 . S
O151 C153 1.258 . S
C152 O146 1.247 . S
C152 O147 1.258 . S
C153 O150 1.247 . S
C153 O151 1.258 . S
C154 O156 1.247 . S
C154 O158 1.258 . S
C155 O162 1.247 . S
C155 O163 1.258 . S
O156 C154 1.247 . S
O156 Zn157 2.028 . S
Zn157 O156 2.028 . S
Zn157 O161 2.035 . S
Zn157 O163 2.035 . S
Zn157 O164 2.028 . S
O158 C154 1.258 . S
O158 Zn159 2.035 . S
Zn159 O158 2.035 . S
Zn159 O160 2.028 . S
Zn159 O162 2.028 . S
Zn159 O165 2.035 . S
O160 Zn159 2.028 . S
O160 C166 1.247 . S
O161 Zn157 2.035 . S
O161 C166 1.258 . S
O162 C155 1.247 . S
O162 Zn159 2.028 . S
O163 C155 1.258 . S
O163 Zn157 2.035 . S
O164 Zn157 2.028 . S
O164 C167 1.247 . S
O165 Zn159 2.035 . S
O165 C167 1.258 . S
C166 O160 1.247 . S
C166 O161 1.258 . S
C167 O164 1.247 . S
C167 O165 1.258 . S
C168 O170 1.247 . S
C168 O172 1.258 . S
C169 O176 1.247 . S
C169 O177 1.258 . S
O170 C168 1.247 . S
O170 Zn171 2.028 . S
Zn171 O170 2.028 . S
Zn171 O175 2.035 . S
Zn171 O177 2.035 . S
Zn171 O178 2.028 1_655 S
O172 C168 1.258 . S
O172 Zn173 2.035 . S
Zn173 O172 2.035 . S
Zn173 O174 2.028 . S
Zn173 O176 2.028 . S
Zn173 O179 2.035 . S
O174 Zn173 2.028 . S
O174 C180 1.247 . S
O175 Zn171 2.035 . S
O175 C180 1.258 . S
O176 C169 1.247 . S
O176 Zn173 2.028 . S
O177 C169 1.258 . S
O177 Zn171 2.035 . S
O178 Zn171 2.028 1_455 S
O178 C181 1.240 1_455 S
O179 Zn173 2.035 . S
O179 C181 1.280 . S
C180 O174 1.247 . S
C180 O175 1.258 . S
C181 O178 1.240 1_655 S
C181 O179 1.280 . S
C182 O184 1.247 . S
C182 O186 1.258 1_565 S
C183 O190 1.247 . S
C183 O191 1.258 . S
O184 C182 1.247 . S
O184 Zn185 2.028 . S
Zn185 O184 2.028 . S
Zn185 O189 2.035 . S
Zn185 O191 2.035 . S
Zn185 O192 2.028 . S
O186 C182 1.258 1_545 S
O186 Zn187 2.035 1_545 S
Zn187 O186 2.035 1_565 S
Zn187 O188 2.028 . S
Zn187 O190 2.028 . S
Zn187 O193 2.035 . S
O188 Zn187 2.028 . S
O188 C194 1.247 . S
O189 Zn185 2.035 . S
O189 C194 1.258 . S
O190 C183 1.247 . S
O190 Zn187 2.028 . S
O191 C183 1.258 . S
O191 Zn185 2.035 . S
O192 Zn185 2.028 . S
O192 C195 1.247 . S
O193 Zn187 2.035 . S
O193 C195 1.258 . S
C194 O188 1.247 . S
C194 O189 1.258 . S
C195 O192 1.247 . S
C195 O193 1.258 . S
C196 O198 1.247 . S
C196 O200 1.258 . S
C197 O204 1.247 . S
C197 O205 1.258 . S
O198 C196 1.247 . S
O198 Zn199 2.028 . S
Zn199 O198 2.028 . S
Zn199 O203 2.035 . S
Zn199 O205 2.035 . S
Zn199 O206 2.028 . S
O200 C196 1.258 . S
O200 Zn201 2.035 . S
Zn201 O200 2.035 . S
Zn201 O202 2.028 . S
Zn201 O204 2.028 . S
Zn201 O207 2.035 . S
O202 Zn201 2.028 . S
O202 C208 1.247 . S
O203 Zn199 2.035 . S
O203 C208 1.258 . S
O204 C197 1.247 . S
O204 Zn201 2.028 . S
O205 C197 1.258 . S
O205 Zn199 2.035 . S
O206 Zn199 2.028 . S
O206 C209 1.247 . S
O207 Zn201 2.035 . S
O207 C209 1.258 . S
C208 O202 1.247 . S
C208 O203 1.258 . S
C209 O206 1.247 . S
C209 O207 1.258 . S
C210 O212 1.247 . S
C210 O214 1.258 . S
C211 O218 1.247 . S
C211 O219 1.258 . S
O212 C210 1.247 . S
O212 Zn213 2.028 . S
Zn213 O212 2.028 . S
Zn213 O217 2.035 . S
Zn213 O219 2.035 . S
Zn213 O220 2.028 . S
O214 C210 1.258 . S
O214 Zn215 2.035 . S
Zn215 O214 2.035 . S
Zn215 O216 2.028 . S
Zn215 O218 2.028 . S
Zn215 O221 2.035 . S
O216 Zn215 2.028 . S
O216 C222 1.247 . S
O217 Zn213 2.035 . S
O217 C222 1.258 . S
O218 C211 1.247 . S
O218 Zn215 2.028 . S
O219 C211 1.258 . S
O219 Zn213 2.035 . S
O220 Zn213 2.028 . S
O220 C223 1.247 . S
O221 Zn215 2.035 . S
O221 C223 1.258 . S
C222 O216 1.247 . S
C222 O217 1.258 . S
C223 O220 1.247 . S
C223 O221 1.258 . S
C224 C225 1.369 . S
C224 C226 1.419 . S
C224 H228 0.930 . S
C225 C224 1.369 . S
C225 C234 1.429 . S
C226 C224 1.419 . S
C226 C227 1.363 . S
C226 H229 0.929 . S
C227 C226 1.363 . S
C227 C233 1.428 . S
H228 C224 0.930 . S
H229 C226 0.929 . S
S230 N231 1.613 . S
S230 N232 1.610 . S
N231 S230 1.613 . S
N231 C234 1.350 . S
N232 S230 1.610 . S
N232 C233 1.351 . S
C233 C227 1.428 . S
C233 N232 1.351 . S
C233 C234 1.434 . S
C234 C225 1.429 . S
C234 N231 1.350 . S
C234 C233 1.434 . S
C235 C236 1.369 . S
C235 C237 1.419 . S
C235 H239 0.930 . S
C236 C235 1.369 . S
C236 C245 1.429 . S
C237 C235 1.419 . S
C237 C238 1.363 . S
C237 H240 0.929 . S
C238 C237 1.363 . S
C238 C244 1.428 . S
H239 C235 0.930 . S
H240 C237 0.929 . S
S241 N242 1.613 . S
S241 N243 1.610 . S
N242 S241 1.613 . S
N242 C245 1.350 . S
N243 S241 1.610 . S
N243 C244 1.351 . S
C244 C238 1.428 . S
C244 N243 1.351 . S
C244 C245 1.434 . S
C245 C236 1.429 . S
C245 N242 1.350 . S
C245 C244 1.434 . S
C246 C247 1.369 . S
C246 C248 1.419 . S
C246 H250 0.930 . S
C247 C246 1.369 . S
C247 C256 1.429 . S
C248 C246 1.419 . S
C248 C249 1.363 . S
C248 H251 0.929 . S
C249 C248 1.363 . S
C249 C255 1.428 . S
H250 C246 0.930 . S
H251 C248 0.929 . S
S252 N253 1.613 . S
S252 N254 1.610 . S
N253 S252 1.613 . S
N253 C256 1.350 . S
N254 S252 1.610 . S
N254 C255 1.351 . S
C255 C249 1.428 . S
C255 N254 1.351 . S
C255 C256 1.434 . S
C256 C247 1.429 . S
C256 N253 1.350 . S
C256 C255 1.434 . S
C257 C258 1.369 . S
C257 C259 1.419 . S
C257 H261 0.930 . S
C258 C257 1.369 . S
C258 C267 1.429 . S
C259 C257 1.419 . S
C259 C260 1.363 . S
C259 H262 0.929 . S
C260 C259 1.363 . S
C260 C266 1.428 . S
H261 C257 0.930 . S
H262 C259 0.929 . S
S263 N264 1.613 . S
S263 N265 1.610 . S
N264 S263 1.613 . S
N264 C267 1.350 . S
N265 S263 1.610 . S
N265 C266 1.351 . S
C266 C260 1.428 . S
C266 N265 1.351 . S
C266 C267 1.434 . S
C267 C258 1.429 . S
C267 N264 1.350 . S
C267 C266 1.434 . S
C268 C269 1.369 . S
C268 C270 1.419 . S
C268 H272 0.930 . S
C269 C268 1.369 . S
C269 C278 1.429 . S
C270 C268 1.419 . S
C270 C271 1.363 . S
C270 H273 0.929 . S
C271 C270 1.363 . S
C271 C277 1.428 . S
H272 C268 0.930 . S
H273 C270 0.929 . S
S274 N275 1.613 . S
S274 N276 1.610 . S
N275 S274 1.613 . S
N275 C278 1.350 . S
N276 S274 1.610 . S
N276 C277 1.351 . S
C277 C271 1.428 . S
C277 N276 1.351 . S
C277 C278 1.434 . S
C278 C269 1.429 . S
C278 N275 1.350 . S
C278 C277 1.434 . S
C279 C280 1.369 . S
C279 C281 1.419 . S
C279 H283 0.930 . S
C280 C279 1.369 . S
C280 C289 1.429 . S
C281 C279 1.419 . S
C281 C282 1.363 . S
C281 H284 0.929 . S
C282 C281 1.363 . S
C282 C288 1.428 . S
H283 C279 0.930 . S
H284 C281 0.929 . S
S285 N286 1.613 1_554 S
S285 N287 1.610 1_554 S
N286 S285 1.613 1_556 S
N286 C289 1.350 . S
N287 S285 1.610 1_556 S
N287 C288 1.351 . S
C288 C282 1.428 . S
C288 N287 1.351 . S
C288 C289 1.434 . S
C289 C280 1.429 . S
C289 N286 1.350 . S
C289 C288 1.434 . S
C290 C291 1.369 . S
C290 C292 1.419 . S
C290 H294 0.930 . S
C291 C290 1.369 . S
C291 C300 1.429 . S
C292 C290 1.419 . S
C292 C293 1.363 . S
C292 H295 0.929 . S
C293 C292 1.363 . S
C293 C299 1.428 . S
H294 C290 0.930 . S
H295 C292 0.929 . S
S296 N297 1.613 . S
S296 N298 1.610 . S
N297 S296 1.613 . S
N297 C300 1.350 . S
N298 S296 1.610 . S
N298 C299 1.351 . S
C299 C293 1.428 . S
C299 N298 1.351 . S
C299 C300 1.434 . S
C300 C291 1.429 . S
C300 N297 1.350 . S
C300 C299 1.434 . S
C301 C302 1.369 . S
C301 C303 1.419 . S
C301 H305 0.930 . S
C302 C301 1.369 . S
C302 C311 1.429 . S
C303 C301 1.419 . S
C303 C304 1.363 . S
C303 H306 0.929 . S
C304 C303 1.363 . S
C304 C310 1.428 . S
H305 C301 0.930 . S
H306 C303 0.929 . S
S307 N308 1.613 . S
S307 N309 1.610 . S
N308 S307 1.613 . S
N308 C311 1.350 . S
N309 S307 1.610 . S
N309 C310 1.351 . S
C310 C304 1.428 . S
C310 N309 1.351 . S
C310 C311 1.434 . S
C311 C302 1.429 . S
C311 N308 1.350 . S
C311 C310 1.434 . S
C312 C313 1.369 . S
C312 C314 1.419 . S
C312 H316 0.930 . S
C313 C312 1.369 . S
C313 C322 1.429 . S
C314 C312 1.419 . S
C314 C315 1.363 . S
C314 H317 0.929 . S
C315 C314 1.363 . S
C315 C321 1.428 . S
H316 C312 0.930 . S
H317 C314 0.929 . S
S318 N319 1.613 . S
S318 N320 1.610 . S
N319 S318 1.613 . S
N319 C322 1.350 . S
N320 S318 1.610 . S
N320 C321 1.351 . S
C321 C315 1.428 . S
C321 N320 1.351 . S
C321 C322 1.434 . S
C322 C313 1.429 . S
C322 N319 1.350 . S
C322 C321 1.434 . S
C323 C324 1.369 . S
C323 C325 1.419 . S
C323 H327 0.930 1_565 S
C324 C323 1.369 . S
C324 C333 1.429 . S
C325 C323 1.419 . S
C325 C326 1.363 . S
C325 H328 0.929 1_565 S
C326 C325 1.363 . S
C326 C332 1.428 . S
H327 C323 0.930 1_545 S
H328 C325 0.929 1_545 S
S329 N330 1.613 . S
S329 N331 1.610 . S
N330 S329 1.613 . S
N330 C333 1.350 . S
N331 S329 1.610 . S
N331 C332 1.351 . S
C332 C326 1.428 . S
C332 N331 1.351 . S
C332 C333 1.434 . S
C333 C324 1.429 . S
C333 N330 1.350 . S
C333 C332 1.434 . S
C334 C335 1.369 . S
C334 C336 1.419 . S
C334 H338 0.930 . S
C335 C334 1.369 . S
C335 C344 1.429 . S
C336 C334 1.419 . S
C336 C337 1.363 . S
C336 H339 0.929 . S
C337 C336 1.363 . S
C337 C343 1.428 . S
H338 C334 0.930 . S
H339 C336 0.929 . S
S340 N341 1.613 . S
S340 N342 1.610 . S
N341 S340 1.613 . S
N341 C344 1.350 . S
N342 S340 1.610 . S
N342 C343 1.351 . S
C343 C337 1.428 . S
C343 N342 1.351 . S
C343 C344 1.434 . S
C344 C335 1.429 . S
C344 N341 1.350 . S
C344 C343 1.434 . S
C345 C346 1.369 . S
C345 C347 1.419 . S
C345 H349 0.930 . S
C346 C345 1.369 . S
C346 C355 1.429 . S
C347 C345 1.419 . S
C347 C348 1.363 . S
C347 H350 0.929 . S
C348 C347 1.363 . S
C348 C354 1.428 . S
H349 C345 0.930 . S
H350 C347 0.929 . S
S351 N352 1.613 . S
S351 N353 1.610 . S
N352 S351 1.613 . S
N352 C355 1.350 . S
N353 S351 1.610 . S
N353 C354 1.351 . S
C354 C348 1.428 . S
C354 N353 1.351 . S
C354 C355 1.434 . S
C355 C346 1.429 . S
C355 N352 1.350 . S
C355 C354 1.434 . S
C356 C357 1.369 . S
C356 C358 1.419 . S
C356 H360 0.930 . S
C357 C356 1.369 . S
C357 C366 1.429 . S
C358 C356 1.419 . S
C358 C359 1.363 . S
C358 H361 0.929 . S
C359 C358 1.363 . S
C359 C365 1.422 1_455 S
H360 C356 0.930 . S
H361 C358 0.929 . S
S362 N363 1.613 . S
S362 N364 1.610 . S
N363 S362 1.613 . S
N363 C366 1.350 1_655 S
N364 S362 1.610 . S
N364 C365 1.361 . S
C365 C359 1.422 1_655 S
C365 N364 1.361 . S
C365 C366 1.431 1_655 S
C366 C357 1.429 . S
C366 N363 1.350 1_455 S
C366 C365 1.431 1_455 S
C367 C368 1.369 . S
C367 C369 1.419 . S
C367 H371 0.930 1_545 S
C368 C367 1.369 . S
C368 C377 1.429 . S
C369 C367 1.419 . S
C369 C370 1.363 . S
C369 H372 0.929 1_545 S
C370 C369 1.363 . S
C370 C376 1.428 . S
H371 C367 0.930 1_565 S
H372 C369 0.929 1_565 S
S373 N374 1.603 1_655 S
S373 N375 1.610 1_655 S
N374 S373 1.603 1_455 S
N374 C377 1.350 . S
N375 S373 1.610 1_455 S
N375 C376 1.356 . S
C376 C370 1.428 . S
C376 N375 1.356 . S
C376 C377 1.434 . S
C377 C368 1.429 . S
C377 N374 1.350 . S
C377 C376 1.434 . S
C378 C379 1.369 . S
C378 C380 1.419 . S
C378 H382 0.930 1_545 S
C379 C378 1.369 . S
C379 C388 1.429 . S
C380 C378 1.419 . S
C380 C381 1.363 . S
C380 H383 0.929 1_545 S
C381 C380 1.363 . S
C381 C387 1.428 . S
H382 C378 0.930 1_565 S
H383 C380 0.929 1_565 S
S384 N385 1.613 . S
S384 N386 1.610 . S
N385 S384 1.613 . S
N385 C388 1.350 . S
N386 S384 1.610 . S
N386 C387 1.351 . S
C387 C381 1.428 . S
C387 N386 1.351 . S
C387 C388 1.434 . S
C388 C379 1.429 . S
C388 N385 1.350 . S
C388 C387 1.434 . S
C389 C390 1.369 . S
C389 C391 1.419 . S
C389 H393 0.930 . S
C390 C389 1.369 . S
C390 C399 1.429 . S
C391 C389 1.419 . S
C391 C392 1.363 . S
C391 H394 0.929 . S
C392 C391 1.363 . S
C392 C398 1.428 . S
H393 C389 0.930 . S
H394 C391 0.929 . S
S395 N396 1.613 . S
S395 N397 1.610 . S
N396 S395 1.613 . S
N396 C399 1.350 . S
N397 S395 1.610 . S
N397 C398 1.351 . S
C398 C392 1.428 . S
C398 N397 1.351 . S
C398 C399 1.434 . S
C399 C390 1.429 . S
C399 N396 1.350 . S
C399 C398 1.434 . S
C400 C401 1.369 . S
C400 C402 1.419 . S
C400 H404 0.930 . S
C401 C400 1.369 . S
C401 C410 1.429 . S
C402 C400 1.419 . S
C402 C403 1.363 . S
C402 H405 0.929 . S
C403 C402 1.363 . S
C403 C409 1.428 . S
H404 C400 0.930 . S
H405 C402 0.929 . S
S406 N407 1.613 . S
S406 N408 1.610 . S
N407 S406 1.613 . S
N407 C410 1.350 1_655 S
N408 S406 1.610 . S
N408 C409 1.351 1_655 S
C409 C403 1.428 . S
C409 N408 1.351 1_455 S
C409 C410 1.434 . S
C410 C401 1.429 . S
C410 N407 1.350 1_455 S
C410 C409 1.434 . S
C411 C412 1.369 . S
C411 C413 1.419 . S
C411 H415 0.930 . S
C412 C411 1.369 . S
C412 C421 1.429 . S
C413 C411 1.419 . S
C413 C414 1.363 . S
C413 H416 0.929 . S
C414 C413 1.363 . S
C414 C420 1.428 . S
H415 C411 0.930 . S
H416 C413 0.929 . S
S417 N418 1.613 . S
S417 N419 1.610 . S
N418 S417 1.613 . S
N418 C421 1.350 . S
N419 S417 1.610 . S
N419 C420 1.351 . S
C420 C414 1.428 . S
C420 N419 1.351 . S
C420 C421 1.434 . S
C421 C412 1.429 . S
C421 N418 1.350 . S
C421 C420 1.434 . S
C422 C423 1.369 . S
C422 C424 1.419 . S
C422 H426 0.930 . S
C423 C422 1.369 . S
C423 C432 1.429 . S
C424 C422 1.419 . S
C424 C425 1.363 . S
C424 H427 0.929 . S
C425 C424 1.363 . S
C425 C431 1.428 . S
H426 C422 0.930 . S
H427 C424 0.929 . S
S428 N429 1.613 . S
S428 N430 1.610 . S
N429 S428 1.613 . S
N429 C432 1.350 . S
N430 S428 1.610 . S
N430 C431 1.351 . S
C431 C425 1.428 . S
C431 N430 1.351 . S
C431 C432 1.434 . S
C432 C423 1.429 . S
C432 N429 1.350 . S
C432 C431 1.434 . S
C433 C434 1.369 . S
C433 C435 1.419 . S
C433 H437 0.930 . S
C434 C433 1.369 . S
C434 C443 1.429 . S
C435 C433 1.419 . S
C435 C436 1.363 . S
C435 H438 0.929 . S
C436 C435 1.363 . S
C436 C442 1.428 . S
H437 C433 0.930 . S
H438 C435 0.929 . S
S439 N440 1.613 . S
S439 N441 1.610 . S
N440 S439 1.613 . S
N440 C443 1.350 . S
N441 S439 1.610 . S
N441 C442 1.351 . S
C442 C436 1.428 . S
C442 N441 1.351 . S
C442 C443 1.434 . S
C443 C434 1.429 . S
C443 N440 1.350 . S
C443 C442 1.434 . S
C444 C445 1.369 . S
C444 C446 1.419 . S
C444 H448 0.930 . S
C445 C444 1.369 . S
C445 C454 1.429 . S
C446 C444 1.419 . S
C446 C447 1.363 . S
C446 H449 0.929 . S
C447 C446 1.363 . S
C447 C453 1.428 . S
H448 C444 0.930 . S
H449 C446 0.929 . S
S450 N451 1.613 . S
S450 N452 1.610 . S
N451 S450 1.613 . S
N451 C454 1.350 . S
N452 S450 1.610 . S
N452 C453 1.351 . S
C453 C447 1.428 . S
C453 N452 1.351 . S
C453 C454 1.434 . S
C454 C445 1.429 . S
C454 N451 1.350 . S
C454 C453 1.434 . S
C455 C456 1.369 . S
C455 C457 1.419 . S
C455 H459 0.930 . S
C456 C455 1.369 . S
C456 C465 1.429 . S
C457 C455 1.419 . S
C457 C458 1.363 . S
C457 H460 0.929 . S
C458 C457 1.363 . S
C458 C464 1.428 . S
H459 C455 0.930 . S
H460 C457 0.929 . S
S461 N462 1.613 . S
S461 N463 1.610 . S
N462 S461 1.613 . S
N462 C465 1.350 . S
N463 S461 1.610 . S
N463 C464 1.351 . S
C464 C458 1.428 . S
C464 N463 1.351 . S
C464 C465 1.434 . S
C465 C456 1.429 . S
C465 N462 1.350 . S
C465 C464 1.434 . S
C466 C467 1.369 . S
C466 C468 1.419 . S
C466 H470 0.930 . S
C467 C466 1.369 . S
C467 C476 1.429 . S
C468 C466 1.419 . S
C468 C469 1.363 . S
C468 H471 0.929 . S
C469 C468 1.363 . S
C469 C475 1.428 . S
H470 C466 0.930 . S
H471 C468 0.929 . S
S472 N473 1.613 . S
S472 N474 1.610 . S
N473 S472 1.613 . S
N473 C476 1.350 . S
N474 S472 1.610 . S
N474 C475 1.351 . S
C475 C469 1.428 . S
C475 N474 1.351 . S
C475 C476 1.434 . S
C476 C467 1.429 . S
C476 N473 1.350 . S
C476 C475 1.434 . S
C477 C478 1.369 . S
C477 C479 1.419 . S
C477 H481 0.930 . S
C478 C477 1.369 . S
C478 C487 1.429 . S
C479 C477 1.419 . S
C479 C480 1.363 . S
C479 H482 0.929 . S
C480 C479 1.363 . S
C480 C486 1.428 . S
H481 C477 0.930 . S
H482 C479 0.929 . S
S483 N484 1.613 . S
S483 N485 1.610 . S
N484 S483 1.613 . S
N484 C487 1.350 . S
N485 S483 1.610 . S
N485 C486 1.351 . S
C486 C480 1.428 . S
C486 N485 1.351 . S
C486 C487 1.434 . S
C487 C478 1.429 . S
C487 N484 1.350 . S
C487 C486 1.434 . S
C488 C489 1.369 1_556 S
C488 C490 1.419 . S
C488 H492 0.930 . S
C489 C488 1.369 1_554 S
C489 C498 1.429 1_455 S
C490 C488 1.419 . S
C490 C491 1.363 1_455 S
C490 H493 0.929 . S
C491 C490 1.363 1_655 S
C491 C497 1.428 1_556 S
H492 C488 0.930 . S
H493 C490 0.929 . S
S494 N495 1.613 . S
S494 N496 1.610 . S
N495 S494 1.613 . S
N495 C498 1.350 . S
N496 S494 1.610 . S
N496 C497 1.351 . S
C497 C491 1.428 1_554 S
C497 N496 1.351 . S
C497 C498 1.434 . S
C498 C489 1.429 1_655 S
C498 N495 1.350 . S
C498 C497 1.434 . S
C499 C500 1.369 1_545 S
C499 C501 1.419 1_455 S
C499 H503 0.930 . S
C500 C499 1.369 1_565 S
C500 C509 1.429 1_556 S
C501 C499 1.419 1_655 S
C501 C502 1.363 1_556 S
C501 H504 0.929 . S
C502 C501 1.363 1_554 S
C502 C508 1.428 1_545 S
H503 C499 0.930 . S
H504 C501 0.929 . S
S505 N506 1.613 . S
S505 N507 1.610 1_455 S
N506 S505 1.613 . S
N506 C509 1.350 . S
N507 S505 1.610 1_655 S
N507 C508 1.351 . S
C508 C502 1.428 1_565 S
C508 N507 1.351 . S
C508 C509 1.434 1_655 S
C509 C500 1.429 1_554 S
C509 N506 1.350 . S
C509 C508 1.434 1_455 S
C510 C511 1.369 1_556 S
C510 C512 1.419 . S
C510 H514 0.930 . S
C511 C510 1.369 1_554 S
C511 C520 1.429 1_565 S
C512 C510 1.419 . S
C512 C513 1.363 1_565 S
C512 H515 0.929 . S
C513 C512 1.363 1_545 S
C513 C519 1.428 1_556 S
H514 C510 0.930 . S
H515 C512 0.929 . S
S516 N517 1.613 . S
S516 N518 1.610 . S
N517 S516 1.613 . S
N517 C520 1.350 . S
N518 S516 1.610 . S
N518 C519 1.351 . S
C519 C513 1.428 1_554 S
C519 N518 1.351 . S
C519 C520 1.434 . S
C520 C511 1.429 1_545 S
C520 N517 1.350 . S
C520 C519 1.434 . S
C521 C522 1.369 . S
C521 C523 1.419 . S
C521 H525 0.930 . S
C522 C521 1.369 . S
C522 C531 1.429 1_556 S
C523 C521 1.419 . S
C523 C524 1.363 1_556 S
C523 H526 0.929 . S
C524 C523 1.363 1_554 S
C524 C530 1.428 . S
H525 C521 0.930 . S
H526 C523 0.929 . S
S527 N528 1.613 . S
S527 N529 1.610 . S
N528 S527 1.613 . S
N528 C531 1.350 . S
N529 S527 1.610 . S
N529 C530 1.351 . S
C530 C524 1.428 . S
C530 N529 1.351 . S
C530 C531 1.434 . S
C531 C522 1.429 1_554 S
C531 N528 1.350 . S
C531 C530 1.434 . S
C532 C533 1.369 1_545 S
C532 C534 1.419 . S
C532 H536 0.930 . S
C533 C532 1.369 1_565 S
C533 C542 1.429 1_455 S
C534 C532 1.419 . S
C534 C535 1.363 1_455 S
C534 H537 0.929 . S
C535 C534 1.363 1_655 S
C535 C541 1.428 1_545 S
H536 C532 0.930 . S
H537 C534 0.929 . S
S538 N539 1.613 . S
S538 N540 1.610 . S
N539 S538 1.613 . S
N539 C542 1.350 . S
N540 S538 1.610 . S
N540 C541 1.351 . S
C541 C535 1.428 1_565 S
C541 N540 1.351 . S
C541 C542 1.434 . S
C542 C533 1.429 1_655 S
C542 N539 1.350 . S
C542 C541 1.434 . S
C543 C544 1.369 . S
C543 C545 1.419 . S
C543 H547 0.930 . S
C544 C543 1.369 . S
C544 C553 1.429 1_545 S
C545 C543 1.419 . S
C545 C546 1.363 1_545 S
C545 H548 0.929 . S
C546 C545 1.363 1_565 S
C546 C552 1.428 . S
H547 C543 0.930 . S
H548 C545 0.929 . S
S549 N550 1.613 . S
S549 N551 1.610 . S
N550 S549 1.613 . S
N550 C553 1.350 . S
N551 S549 1.610 . S
N551 C552 1.351 . S
C552 C546 1.428 . S
C552 N551 1.351 . S
C552 C553 1.434 . S
C553 C544 1.429 1_565 S
C553 N550 1.350 . S
C553 C552 1.434 . S
C554 C555 1.369 . S
C554 C556 1.419 . S
C554 H558 0.930 . S
C555 C554 1.369 . S
C555 C564 1.429 . S
C556 C554 1.419 . S
C556 C557 1.363 . S
C556 H559 0.929 . S
C557 C556 1.363 . S
C557 C563 1.428 . S
H558 C554 0.930 . S
H559 C556 0.929 . S
S560 N561 1.613 . S
S560 N562 1.610 . S
N561 S560 1.613 . S
N561 C564 1.350 . S
N562 S560 1.610 . S
N562 C563 1.351 . S
C563 C557 1.428 . S
C563 N562 1.351 . S
C563 C564 1.434 . S
C564 C555 1.429 . S
C564 N561 1.350 . S
C564 C563 1.434 . S
C565 C566 1.369 . S
C565 C567 1.419 . S
C565 H569 0.930 . S
C566 C565 1.369 . S
C566 C575 1.429 1_655 S
C567 C565 1.419 . S
C567 C568 1.363 1_655 S
C567 H570 0.929 . S
C568 C567 1.363 1_455 S
C568 C574 1.428 . S
H569 C565 0.930 . S
H570 C567 0.929 . S
S571 N572 1.613 . S
S571 N573 1.610 . S
N572 S571 1.613 . S
N572 C575 1.350 . S
N573 S571 1.610 . S
N573 C574 1.351 . S
C574 C568 1.428 . S
C574 N573 1.351 . S
C574 C575 1.434 . S
C575 C566 1.429 1_455 S
C575 N572 1.350 . S
C575 C574 1.434 . S
C225 C1 1.909 . S
C227 C41 1.907 . S
C236 C26 1.912 . S
C238 C54 1.910 . S
C247 C57 1.907 . S
C249 C96 1.912 . S
C258 C110 1.913 . S
C260 C82 1.913 . S
C269 C125 1.913 . S
C271 C153 1.913 . S
C280 C167 1.913 . S
C282 C127 1.913 . S
C291 C209 1.909 . S
C293 C180 1.907 . S
C302 C223 1.914 . S
C304 C183 1.912 . S
C313 C111 1.717 . S
C315 C0 1.701 1_655 S
C324 C27 1.717 1_565 S
C326 C56 1.701 1_655 S
C335 C83 1.717 1_565 S
C337 C40 1.712 . S
C346 C55 1.709 . S
C348 C97 1.716 . S
C357 C222 1.711 . S
C359 C124 1.713 1_455 S
C368 C126 1.718 1_545 S
C370 C181 1.699 1_455 S
C379 C152 1.709 . S
C381 C182 1.717 1_545 S
C390 C208 1.718 . S
C392 C166 1.708 . S
C401 C12 0.789 . S
C403 C68 0.788 . S
C412 C15 0.795 . S
C414 C71 0.793 . S
C423 C85 0.790 . S
C425 C28 0.795 . S
C434 C43 0.786 . S
C436 C99 0.791 . S
C445 C169 0.796 . S
C447 C112 0.792 . S
C456 C194 0.794 . S
C458 C138 0.794 . S
C467 C140 0.795 . S
C469 C196 0.789 . S
C478 C154 0.792 . S
C480 C210 0.787 . S
C489 C13 1.778 . S
C491 C113 1.784 . S
C500 C139 1.785 . S
C502 C14 1.780 . S
C511 C29 1.783 . S
C513 C141 1.780 . S
C522 C155 1.785 . S
C524 C42 1.780 . S
C533 C69 1.778 . S
C535 C168 1.783 . S
C544 C70 1.780 . S
C546 C195 1.784 . S
C555 C197 1.780 . S
C557 C84 1.784 . S
C566 C98 1.782 . S
C568 C211 1.782 . S
