# Generated by pormake.
# Topology wfa, (4)-cn, num edge types: 1
# Building blocks:
#     Node 0, Type 0, BuildingBlock: CEKHIL_clean_sbu_0, # of connection points: 4
#     Node 1, Type 0, BuildingBlock: CEKHIL_clean_sbu_0, # of connection points: 4
#     Node 2, Type 0, BuildingBlock: CEKHIL_clean_sbu_0, # of connection points: 4
#     Node 3, Type 0, BuildingBlock: CEKHIL_clean_sbu_0, # of connection points: 4
#     Node 4, Type 0, BuildingBlock: CEKHIL_clean_sbu_0, # of connection points: 4
#     Node 5, Type 0, BuildingBlock: CEKHIL_clean_sbu_0, # of connection points: 4
#     Node 6, Type 0, BuildingBlock: CEKHIL_clean_sbu_0, # of connection points: 4
#     Node 7, Type 0, BuildingBlock: CEKHIL_clean_sbu_0, # of connection points: 4
#     Node 8, Type 0, BuildingBlock: CEKHIL_clean_sbu_0, # of connection points: 4
#     Node 9, Type 0, BuildingBlock: CEKHIL_clean_sbu_0, # of connection points: 4
#     Node 10, Type 0, BuildingBlock: CEKHIL_clean_sbu_0, # of connection points: 4
#     Node 11, Type 0, BuildingBlock: CEKHIL_clean_sbu_0, # of connection points: 4
#     Node 12, Type 0, BuildingBlock: CEKHIL_clean_sbu_0, # of connection points: 4
#     Node 13, Type 0, BuildingBlock: CEKHIL_clean_sbu_0, # of connection points: 4
#     Node 14, Type 0, BuildingBlock: CEKHIL_clean_sbu_0, # of connection points: 4
#     Node 15, Type 0, BuildingBlock: CEKHIL_clean_sbu_0, # of connection points: 4
#     Edge 16, Type (0, 0), BuildingBlock: EZIPEK_clean_linker_0, # of connection points: 2
#     Edge 17, Type (0, 0), BuildingBlock: EZIPEK_clean_linker_0, # of connection points: 2
#     Edge 18, Type (0, 0), BuildingBlock: EZIPEK_clean_linker_0, # of connection points: 2
#     Edge 19, Type (0, 0), BuildingBlock: EZIPEK_clean_linker_0, # of connection points: 2
#     Edge 20, Type (0, 0), BuildingBlock: EZIPEK_clean_linker_0, # of connection points: 2
#     Edge 21, Type (0, 0), BuildingBlock: EZIPEK_clean_linker_0, # of connection points: 2
#     Edge 22, Type (0, 0), BuildingBlock: EZIPEK_clean_linker_0, # of connection points: 2
#     Edge 23, Type (0, 0), BuildingBlock: EZIPEK_clean_linker_0, # of connection points: 2
#     Edge 24, Type (0, 0), BuildingBlock: EZIPEK_clean_linker_0, # of connection points: 2
#     Edge 25, Type (0, 0), BuildingBlock: EZIPEK_clean_linker_0, # of connection points: 2
#     Edge 26, Type (0, 0), BuildingBlock: EZIPEK_clean_linker_0, # of connection points: 2
#     Edge 27, Type (0, 0), BuildingBlock: EZIPEK_clean_linker_0, # of connection points: 2
#     Edge 28, Type (0, 0), BuildingBlock: EZIPEK_clean_linker_0, # of connection points: 2
#     Edge 29, Type (0, 0), BuildingBlock: EZIPEK_clean_linker_0, # of connection points: 2
#     Edge 30, Type (0, 0), BuildingBlock: EZIPEK_clean_linker_0, # of connection points: 2
#     Edge 31, Type (0, 0), BuildingBlock: EZIPEK_clean_linker_0, # of connection points: 2
#     Edge 32, Type (0, 0), BuildingBlock: EZIPEK_clean_linker_0, # of connection points: 2
#     Edge 33, Type (0, 0), BuildingBlock: EZIPEK_clean_linker_0, # of connection points: 2
#     Edge 34, Type (0, 0), BuildingBlock: EZIPEK_clean_linker_0, # of connection points: 2
#     Edge 35, Type (0, 0), BuildingBlock: EZIPEK_clean_linker_0, # of connection points: 2
#     Edge 36, Type (0, 0), BuildingBlock: EZIPEK_clean_linker_0, # of connection points: 2
#     Edge 37, Type (0, 0), BuildingBlock: EZIPEK_clean_linker_0, # of connection points: 2
#     Edge 38, Type (0, 0), BuildingBlock: EZIPEK_clean_linker_0, # of connection points: 2
#     Edge 39, Type (0, 0), BuildingBlock: EZIPEK_clean_linker_0, # of connection points: 2
#     Edge 40, Type (0, 0), BuildingBlock: EZIPEK_clean_linker_0, # of connection points: 2
#     Edge 41, Type (0, 0), BuildingBlock: EZIPEK_clean_linker_0, # of connection points: 2
#     Edge 42, Type (0, 0), BuildingBlock: EZIPEK_clean_linker_0, # of connection points: 2
#     Edge 43, Type (0, 0), BuildingBlock: EZIPEK_clean_linker_0, # of connection points: 2
#     Edge 44, Type (0, 0), BuildingBlock: EZIPEK_clean_linker_0, # of connection points: 2
#     Edge 45, Type (0, 0), BuildingBlock: EZIPEK_clean_linker_0, # of connection points: 2
#     Edge 46, Type (0, 0), BuildingBlock: EZIPEK_clean_linker_0, # of connection points: 2
#     Edge 47, Type (0, 0), BuildingBlock: EZIPEK_clean_linker_0, # of connection points: 2
# Relax obj value: 0.219
# Max RMSD: 0.278
# Mean RMSD: 0.272
data_MOF--net-wfa--node1-CEKHIL_clean_sbu_0--edge1-EZIPEK_clean_linker_0
_symmetry_space_group_name_H-M    P1
_symmetry_Int_Tables_number       1
_symmetry_cell_setting            triclinic
loop_
_symmetry_equiv_pos_as_xyz
'x, y, z'
_cell_length_a     33.172271
_cell_length_b     33.168638
_cell_length_c     17.201914
_cell_angle_alpha  89.785791
_cell_angle_beta   89.617393
_cell_angle_gamma 89.500778
loop_
_atom_site_label
_atom_site_type_symbol
_atom_site_fract_x
_atom_site_fract_y
_atom_site_fract_z
_atom_type_partial_charge
Co0 Co 0.66173 0.9918 0.02829 0.0
O1 O 0.67886 0.95763 0.94244 0.0
O2 O 0.70885 0.01386 0.97586 0.0
C3 C 0.59418 0.99486 1.00033 0.0
O4 O 0.65308 0.03421 0.11266 0.0
Co5 Co 0.60302 0.95445 0.15151 0.0
O6 O 0.60762 0.00866 0.19747 0.0
C7 C 0.69149 0.94416 0.17212 0.0
C8 C 0.70735 0.98327 0.92875 0.0
C9 C 0.63182 0.03618 0.1755 0.0
O10 O 0.69762 0.96168 0.10576 0.0
O11 O 0.65588 0.93785 0.19842 0.0
O12 O 0.61974 0.01745 0.96351 0.0
O13 O 0.61072 0.96747 0.04354 0.0
Co14 Co 0.52404 0.64967 0.04294 0.0
O15 O 0.56276 0.66562 0.96399 0.0
O16 O 0.50352 0.6951 0.98328 0.0
C17 C 0.52664 0.58139 0.01809 0.0
O18 O 0.47619 0.64116 0.11629 0.0
Co19 Co 0.55225 0.59488 0.17965 0.0
O20 O 0.4943 0.59503 0.20655 0.0
C21 C 0.55661 0.68372 0.19484 0.0
C22 C 0.53691 0.69312 0.94328 0.0
C23 C 0.46854 0.61879 0.17584 0.0
O24 O 0.54769 0.68798 0.12233 0.0
O25 O 0.56122 0.64923 0.22742 0.0
O26 O 0.50482 0.60603 0.977 0.0
O27 O 0.54914 0.59968 0.06784 0.0
Co28 Co 0.84807 0.52229 0.02785 0.0
O29 O 0.83189 0.56244 0.95184 0.0
O30 O 0.803 0.5031 0.96729 0.0
C31 C 0.91647 0.52432 1.00206 0.0
O32 O 0.85735 0.47345 0.09819 0.0
Co33 Co 0.90203 0.54962 0.16484 0.0
O34 O 0.90309 0.49139 0.18808 0.0
C35 C 0.81312 0.55125 0.18298 0.0
C36 C 0.8048 0.53712 0.9295 0.0
C37 C 0.88002 0.46564 0.15695 0.0
O38 O 0.80919 0.54462 0.10952 0.0
O39 O 0.84748 0.55553 0.21528 0.0
O40 O 0.89192 0.50366 0.95988 0.0
O41 O 0.89793 0.54658 0.05302 0.0
Co42 Co 0.96668 0.8479 0.04973 0.0
O43 O 0.9271 0.82408 0.98071 0.0
O44 O 0.98986 0.8026 0.9928 0.0
C45 C 0.9556 0.91472 0.01658 0.0
O46 O 0.01594 0.86488 0.11062 0.0
Co47 Co 0.93599 0.90268 0.18365 0.0
O48 O 0.99453 0.90848 0.2028 0.0
C49 C 0.93339 0.8165 0.20741 0.0
C50 C 0.95535 0.79938 0.95802 0.0
C51 C 0.02228 0.8885 0.16824 0.0
O52 O 0.95204 0.81106 0.14178 0.0
O53 O 0.91679 0.85005 0.22576 0.0
O54 O 0.97757 0.89095 0.97361 0.0
O55 O 0.93719 0.89593 0.07229 0.0
Co56 Co 0.15385 0.0257 0.46998 0.0
O57 O 0.17288 0.06257 0.54833 0.0
O58 O 0.19863 1.00192 0.52727 0.0
C59 C 0.086 0.03111 0.49823 0.0
O60 O 0.14054 0.97995 0.3954 0.0
Co61 Co 0.10082 0.06242 0.33843 0.0
O62 O 0.09359 0.00505 0.31335 0.0
C63 C 0.18916 0.05656 0.31606 0.0
C64 C 0.19891 0.03506 0.56769 0.0
C65 C 0.11545 0.97623 0.33897 0.0
O66 O 0.19316 0.04726 0.38857 0.0
O67 O 0.155 0.06504 0.2856 0.0
O68 O 0.11002 0.00819 0.53825 0.0
O69 O 0.10511 0.05402 0.44931 0.0
Co70 Co 0.49401 0.15086 0.49481 0.0
O71 O 0.4523 0.17297 0.56246 0.0
O72 O 0.51363 0.19774 0.54953 0.0
C73 C 0.48742 0.08398 0.53055 0.0
O74 O 0.54453 0.13578 0.43445 0.0
Co75 Co 0.46787 0.09094 0.36474 0.0
O76 O 0.52727 0.08654 0.35089 0.0
C77 C 0.46246 0.17786 0.33357 0.0
C78 C 0.47868 0.19922 0.58423 0.0
C79 C 0.55309 0.10982 0.38155 0.0
O80 O 0.47737 0.18564 0.40133 0.0
O81 O 0.4508 0.14269 0.31381 0.0
O82 O 0.5074 0.1092 0.57267 0.0
O83 O 0.46834 0.10157 0.47453 0.0
Co84 Co 0.34511 0.49117 0.48257 0.0
O85 O 0.32788 0.44837 0.55219 0.0
O86 O 0.29714 0.50739 0.54043 0.0
C87 C 0.41217 0.49086 0.5132 0.0
O88 O 0.35471 0.54199 0.41851 0.0
Co89 Co 0.40545 0.46587 0.34952 0.0
O90 O 0.40028 0.52445 0.32589 0.0
C91 C 0.31943 0.45349 0.32658 0.0
C92 C 0.29943 0.47259 0.5755 0.0
C93 C 0.37639 0.54991 0.3581 0.0
O94 O 0.31121 0.47115 0.39187 0.0
O95 O 0.35492 0.44117 0.30847 0.0
O96 O 0.38597 0.50833 0.55841 0.0
O97 O 0.39628 0.4692 0.45953 0.0
Co98 Co 0.01844 0.34693 0.46244 0.0
O99 O 0.05847 0.33257 0.53964 0.0
O100 O 0.99958 0.30273 0.52774 0.0
C101 C 0.01954 0.4157 0.485 0.0
O102 O 0.96956 0.35487 0.39247 0.0
Co103 Co 0.04583 0.39824 0.32224 0.0
O104 O 0.98792 0.39887 0.29864 0.0
C105 C 0.04719 0.30952 0.30806 0.0
C106 C 0.03308 0.30635 0.56598 0.0
C107 C 0.96201 0.37643 0.33181 0.0
O108 O 0.04108 0.3067 0.38235 0.0
O109 O 0.05133 0.3435 0.27361 0.0
O110 O 0.99896 0.39109 0.52788 0.0
O111 O 0.0426 0.39736 0.43474 0.0
Co112 Co 0.35062 0.01889 0.96777 0.0
O113 O 0.33458 0.05754 0.04686 0.0
O114 O 0.30522 0.99889 0.0283 0.0
C115 C 0.41874 0.01918 0.98907 0.0
O116 O 0.35913 0.97155 0.89362 0.0
Co117 Co 0.40442 0.0497 0.83038 0.0
O118 O 0.40031 0.99299 0.79727 0.0
C119 C 0.31556 0.05138 0.81545 0.0
C120 C 0.30697 0.0322 0.06786 0.0
C121 C 0.3784 0.96612 0.82916 0.0
O122 O 0.3117 0.04301 0.88852 0.0
O123 O 0.34981 0.05669 0.78247 0.0
O124 O 0.39477 0.99854 0.03352 0.0
O125 O 0.40047 0.0435 0.94166 0.0
Co126 Co 0.4909 0.34487 0.99102 0.0
O127 O 0.45136 0.32136 0.0611 0.0
O128 O 0.51353 0.29842 0.04477 0.0
C129 C 0.48215 0.41124 0.02774 0.0
O130 O 0.53959 0.36191 0.92727 0.0
Co131 Co 0.45894 0.40391 0.86292 0.0
O132 O 0.51763 0.40902 0.84175 0.0
C133 C 0.45677 0.31722 0.83295 0.0
C134 C 0.47926 0.29592 0.0817 0.0
C135 C 0.54543 0.38728 0.87173 0.0
O136 O 0.47425 0.31 0.89875 0.0
O137 O 0.44213 0.35181 0.81491 0.0
O138 O 0.50384 0.38624 0.06825 0.0
O139 O 0.46267 0.39358 0.97286 0.0
Co140 Co 0.15351 0.4765 0.98368 0.0
O141 O 0.17273 0.44061 0.0649 0.0
O142 O 0.19899 0.49997 0.037 0.0
C143 C 0.08579 0.47338 0.01385 0.0
O144 O 0.14107 0.52154 0.90598 0.0
Co145 Co 0.09907 0.44073 0.85538 0.0
O146 O 0.09464 0.49765 0.82304 0.0
C147 C 0.18735 0.44397 0.83068 0.0
C148 C 0.19936 0.46774 0.08045 0.0
C149 C 0.11712 0.52569 0.84781 0.0
O150 O 0.19195 0.45213 0.90338 0.0
O151 O 0.15282 0.43709 0.80098 0.0
O152 O 0.11024 0.49654 0.0512 0.0
O153 O 0.10427 0.44926 0.96599 0.0
Co154 Co 1.00064 0.1568 0.9538 0.0
O155 O 0.04339 0.16732 0.0294 0.0
O156 O 0.98639 0.20127 0.02318 0.0
C157 C 0.99349 0.08575 0.97718 0.0
O158 O 0.95309 0.15361 0.88585 0.0
Co159 Co 0.0438 0.14479 0.88595 0.0
O160 O 1.00022 0.13873 0.80182 0.0
C161 C 0.05314 0.21151 0.8484 0.0
C162 C 0.02064 0.1958 0.05771 0.0
C163 C 0.96292 0.14574 0.81604 0.0
O164 O 0.01858 0.20259 0.87669 0.0
O165 O 0.0823 0.18905 0.8666 0.0
O166 O 0.97998 0.11386 0.02124 0.0
O167 O 0.01507 0.09739 0.91891 0.0
Co168 Co 0.85157 0.98701 0.50992 0.0
O169 O 0.82968 0.94418 0.44696 0.0
O170 O 0.8048 0.00609 0.4515 0.0
C171 C 0.91857 0.97915 0.47525 0.0
O172 O 0.86743 0.03818 0.56575 0.0
Co173 Co 0.91102 0.96097 0.64228 0.0
O174 O 0.91746 0.02036 0.64824 0.0
C175 C 0.82396 0.9597 0.67414 0.0
C176 C 0.80362 0.97021 0.42123 0.0
C177 C 0.89447 0.04656 0.61634 0.0
O178 O 0.81647 0.97324 0.60486 0.0
O179 O 0.8589 0.94724 0.69508 0.0
O180 O 0.89319 0.99813 0.43099 0.0
O181 O 0.90091 0.96091 0.53242 0.0
Co182 Co 0.52909 0.84578 0.53943 0.0
O183 O 0.56896 0.82703 0.46447 0.0
O184 O 0.50791 0.80171 0.47885 0.0
C185 C 0.53489 0.91387 0.51439 0.0
O186 O 0.47984 0.85775 0.60693 0.0
Co187 Co 0.55619 0.89897 0.67822 0.0
O188 O 0.49755 0.90359 0.6968 0.0
C189 C 0.55641 0.81011 0.69513 0.0
C190 C 0.54218 0.80141 0.44168 0.0
C191 C 0.47156 0.88147 0.66394 0.0
O192 O 0.54856 0.80623 0.62213 0.0
O193 O 0.56202 0.84429 0.72743 0.0
O194 O 0.51373 0.89035 0.47086 0.0
O195 O 0.55551 0.89432 0.56624 0.0
Co196 Co 0.65441 0.52075 0.53605 0.0
O197 O 0.66816 0.55655 0.45084 0.0
O198 O 0.70015 0.49944 0.47713 0.0
C199 C 0.58637 0.51892 0.51647 0.0
O200 O 0.64807 0.47666 0.61922 0.0
Co201 Co 0.60057 0.55669 0.66883 0.0
O202 O 0.60468 0.50112 0.70947 0.0
C203 C 0.68959 0.55832 0.68146 0.0
C204 C 0.6967 0.53128 0.43302 0.0
C205 C 0.62804 0.47348 0.68356 0.0
O206 O 0.69293 0.54895 0.60901 0.0
O207 O 0.6555 0.56421 0.71501 0.0
O208 O 0.61078 0.49679 0.47532 0.0
O209 O 0.60402 0.5455 0.5591 0.0
Co210 Co 0.97465 0.65225 0.54904 0.0
O211 O 0.93301 0.67323 0.48087 0.0
O212 O 0.9935 0.69971 0.4939 0.0
C213 C 0.97049 0.58528 0.51242 0.0
O214 O 0.02489 0.63818 0.61 0.0
Co215 Co 0.94741 0.59314 0.67946 0.0
O216 O 0.00637 0.59086 0.69775 0.0
C217 C 0.94045 0.67947 0.70967 0.0
C218 C 0.95889 0.70008 0.45872 0.0
C219 C 0.03259 0.61357 0.66586 0.0
O220 O 0.95647 0.68689 0.64218 0.0
O221 O 0.92833 0.64437 0.72946 0.0
O222 O 0.99004 0.61152 0.47116 0.0
O223 O 0.95008 0.60176 0.56854 0.0
C224 C 0.61848 0.07456 0.36843 0.0
C225 C 0.59397 0.10785 0.3484 0.0
C226 C 0.62051 0.1077 0.21596 0.0
C227 C 0.63714 0.06927 0.23177 0.0
N228 N 0.66978 0.02668 0.32533 0.0
N229 N 0.58555 0.1666 0.26869 0.0
C230 C 0.64305 0.05704 0.30979 0.0
C231 C 0.60041 0.12842 0.27736 0.0
N232 N 0.61514 0.0579 0.44079 0.0
N233 N 0.62167 0.12259 0.14209 0.0
H234 H 0.57042 0.18119 0.31417 0.0
H235 H 0.59049 0.18435 0.21957 0.0
H236 H 0.63848 0.10836 0.0985 0.0
H237 H 0.60632 0.14851 0.12441 0.0
H238 H 0.62893 0.03085 0.45695 0.0
H239 H 0.59737 0.07133 0.48407 0.0
H240 H 0.67681 0.0169 0.38126 0.0
H241 H 0.68736 0.01396 0.28105 0.0
C242 C 0.36552 0.58898 0.24008 0.0
C243 C 0.37405 0.5898 0.32011 0.0
C244 C 0.43014 0.63443 0.29652 0.0
C245 C 0.42955 0.62239 0.2172 0.0
N246 N 0.39259 0.59572 0.10911 0.0
N247 N 0.3967 0.63113 0.42318 0.0
C248 C 0.39503 0.60335 0.1868 0.0
C249 C 0.40026 0.61918 0.34786 0.0
N250 N 0.33039 0.5721 0.21672 0.0
N251 N 0.46096 0.65749 0.32298 0.0
H252 H 0.37398 0.61951 0.45893 0.0
H253 H 0.4136 0.6541 0.44759 0.0
H254 H 0.48257 0.66938 0.28532 0.0
H255 H 0.46551 0.66409 0.38136 0.0
H256 H 0.32061 0.57211 0.15934 0.0
H257 H 0.30996 0.56057 0.25748 0.0
H258 H 0.37018 0.57819 0.08449 0.0
H259 H 0.41381 0.60659 0.0694 0.0
C260 C 0.9013 0.39382 0.16345 0.0
C261 C 0.87881 0.42599 0.19585 0.0
C262 C 0.89196 0.40129 0.32732 0.0
C263 C 0.92205 0.37611 0.29512 0.0
N264 N 0.9442 0.33531 0.18856 0.0
N265 N 0.84006 0.45195 0.30291 0.0
C266 C 0.92182 0.36718 0.21478 0.0
C267 C 0.86904 0.42599 0.27623 0.0
N268 N 0.90601 0.39146 0.08472 0.0
N269 N 0.88857 0.40424 0.40619 0.0
H270 H 0.82434 0.47079 0.26492 0.0
H271 H 0.83011 0.45329 0.36031 0.0
H272 H 0.90503 0.38538 0.44316 0.0
H273 H 0.8698 0.42469 0.43482 0.0
H274 H 0.92525 0.37111 0.05694 0.0
H275 H 0.89032 0.41056 0.04702 0.0
H276 H 0.94491 0.32569 0.13106 0.0
H277 H 0.9601 0.31693 0.22722 0.0
C278 C 0.06941 0.88023 0.27702 0.0
C279 C 0.06323 0.89292 0.19949 0.0
C280 C 0.11689 0.94168 0.21318 0.0
C281 C 0.1125 0.93832 0.29497 0.0
N282 N 0.08993 0.90037 0.4062 0.0
N283 N 0.08556 0.93048 0.08795 0.0
C284 C 0.09156 0.90535 0.3275 0.0
C285 C 0.08947 0.92109 0.16485 0.0
N286 N 0.05272 0.84505 0.30191 0.0
N287 N 0.14548 0.96675 0.18321 0.0
H288 H 0.06611 0.9148 0.05171 0.0
H289 H 0.1006 0.95418 0.06092 0.0
H290 H 0.165 0.98242 0.21931 0.0
H291 H 0.15193 0.96921 0.12407 0.0
H292 H 0.05788 0.83264 0.3567 0.0
H293 H 0.03666 0.82674 0.26394 0.0
H294 H 0.07108 0.87976 0.43379 0.0
H295 H 0.10684 0.91799 0.4438 0.0
C296 C 0.39616 0.89379 0.82135 0.0
C297 C 0.37684 0.92728 0.78744 0.0
C298 C 0.40122 0.90717 0.65896 0.0
C299 C 0.43053 0.8832 0.69702 0.0
N300 N 0.45162 0.84596 0.81016 0.0
N301 N 0.34668 0.95637 0.67438 0.0
C302 C 0.42566 0.87291 0.77669 0.0
C303 C 0.37367 0.9297 0.70555 0.0
N304 N 0.38711 0.88333 0.89606 0.0
N305 N 0.40234 0.9108 0.57989 0.0
H306 H 0.32722 0.97303 0.70999 0.0
H307 H 0.34263 0.96119 0.61518 0.0
H308 H 0.42245 0.89405 0.54582 0.0
H309 H 0.38293 0.92903 0.54779 0.0
H310 H 0.39885 0.85789 0.92371 0.0
H311 H 0.36482 0.89868 0.92756 0.0
H312 H 0.45272 0.84024 0.86965 0.0
H313 H 0.47302 0.83016 0.77733 0.0
C314 C 0.61698 0.40003 0.70984 0.0
C315 C 0.63195 0.43755 0.73481 0.0
C316 C 0.60983 0.4237 0.86768 0.0
C317 C 0.58601 0.39244 0.83853 0.0
N318 N 0.57775 0.34044 0.7441 0.0
N319 N 0.65702 0.47607 0.84306 0.0
C320 C 0.59382 0.37671 0.76346 0.0
C321 C 0.63437 0.44537 0.81568 0.0
N322 N 0.62342 0.38815 0.63499 0.0
N323 N 0.60676 0.43475 0.94379 0.0
H324 H 0.67562 0.49334 0.80731 0.0
H325 H 0.67562 0.49334 0.80731 0.0
H326 H 0.58865 0.4191 0.98335 0.0
H327 H 0.62282 0.45888 0.96658 0.0
H328 H 0.61125 0.36238 0.61057 0.0
H329 H 0.64234 0.40421 0.59765 0.0
H330 H 0.5819 0.3264 0.69067 0.0
H331 H 0.56141 0.32351 0.78463 0.0
C332 C 0.07864 0.62405 0.77413 0.0
C333 C 0.07352 0.61042 0.69728 0.0
C334 C 0.12338 0.55783 0.71932 0.0
C335 C 0.11705 0.56283 0.80036 0.0
N336 N 0.09482 0.60467 0.90656 0.0
N337 N 0.09665 0.57034 0.59019 0.0
C338 C 0.09783 0.5981 0.82852 0.0
C339 C 0.09901 0.58012 0.667 0.0
N340 N 0.06316 0.66067 0.79472 0.0
N341 N 0.15079 0.52996 0.6938 0.0
H342 H 0.07918 0.58732 0.55157 0.0
H343 H 0.1109 0.54533 0.56559 0.0
H344 H 0.16813 0.51329 0.73283 0.0
H345 H 0.15857 0.52598 0.63558 0.0
H346 H 0.06767 0.67375 0.84889 0.0
H347 H 0.0485 0.67904 0.75407 0.0
H348 H 0.07708 0.62749 0.93085 0.0
H349 H 0.10949 0.58631 0.947 0.0
C350 C 0.89378 0.12394 0.76879 0.0
C351 C 0.93282 0.1394 0.75304 0.0
C352 C 0.93239 0.11032 0.62317 0.0
C353 C 0.89828 0.08792 0.64534 0.0
N354 N 0.83751 0.08436 0.72099 0.0
N355 N 0.97566 0.16657 0.65329 0.0
C356 C 0.87568 0.09879 0.71214 0.0
C357 C 0.94744 0.13919 0.67555 0.0
N358 N 0.87483 0.13231 0.83753 0.0
N359 N 0.95159 0.10205 0.5546 0.0
H360 H 0.98478 0.18918 0.69119 0.0
H361 H 0.98605 0.16958 0.59632 0.0
H362 H 0.93964 0.082 0.51433 0.0
H363 H 0.97947 0.11401 0.5392 0.0
H364 H 0.84919 0.11751 0.85733 0.0
H365 H 0.88393 0.15566 0.87352 0.0
H366 H 0.81812 0.09227 0.76631 0.0
H367 H 0.82432 0.06618 0.67896 0.0
C368 C 0.77848 0.98507 0.87357 0.0
C369 C 0.73682 0.97759 0.86261 0.0
C370 C 0.75259 0.95356 0.72977 0.0
C371 C 0.79327 0.9656 0.73805 0.0
N372 N 0.84115 0.00424 0.81305 0.0
N373 N 0.68337 0.96387 0.7715 0.0
C374 C 0.80514 0.98462 0.80855 0.0
C375 C 0.72357 0.96431 0.78821 0.0
N376 N 0.7934 0.99108 0.94641 0.0
N377 N 0.74177 0.93068 0.66764 0.0
H378 H 0.6612 0.97389 0.81023 0.0
H379 H 0.67239 0.95802 0.71609 0.0
H380 H 0.76249 0.92104 0.62569 0.0
H381 H 0.71335 0.91787 0.66232 0.0
H382 H 0.82419 0.99208 0.95795 0.0
H383 H 0.77562 0.99062 0.99638 0.0
H384 H 0.84908 0.02187 0.86053 0.0
H385 H 0.86093 0.00747 0.76628 0.0
C386 C 0.51954 0.75019 0.75335 0.0
C387 C 0.55496 0.77418 0.74804 0.0
C388 C 0.57903 0.74447 0.87082 0.0
C389 C 0.54436 0.71968 0.87452 0.0
N390 N 0.48809 0.69059 0.80755 0.0
N391 N 0.62285 0.7858 0.79048 0.0
C392 C 0.51666 0.71994 0.81206 0.0
C393 C 0.58614 0.76853 0.80331 0.0
N394 N 0.48732 0.75774 0.70615 0.0
N395 N 0.60412 0.74675 0.93333 0.0
H396 H 0.62916 0.80269 0.74061 0.0
H397 H 0.64802 0.77989 0.8247 0.0
H398 H 0.59963 0.7303 0.98438 0.0
H399 H 0.62732 0.76758 0.93727 0.0
H400 H 0.4592 0.74463 0.71475 0.0
H401 H 0.48699 0.77967 0.66283 0.0
H402 H 0.46995 0.68664 0.759 0.0
H403 H 0.48537 0.66755 0.84863 0.0
C404 C 0.75362 0.58013 0.85758 0.0
C405 C 0.77915 0.54556 0.8603 0.0
C406 C 0.75113 0.52213 0.73689 0.0
C407 C 0.72596 0.55728 0.73286 0.0
N408 N 0.71219 0.62456 0.7782 0.0
N409 N 0.81122 0.49106 0.7905 0.0
C410 C 0.73024 0.58787 0.78972 0.0
C411 C 0.78075 0.51896 0.7961 0.0
N412 N 0.75004 0.60449 0.92118 0.0
N413 N 0.74508 0.49009 0.68872 0.0
H414 H 0.83385 0.48811 0.83201 0.0
H415 H 0.81645 0.47389 0.74077 0.0
H416 H 0.72424 0.48976 0.64407 0.0
H417 H 0.75876 0.46204 0.69731 0.0
H418 H 0.72865 0.62755 0.92571 0.0
H419 H 0.7661 0.59955 0.9723 0.0
H420 H 0.71694 0.64936 0.81385 0.0
H421 H 0.69586 0.63129 0.72804 0.0
C422 C 0.93689 0.78114 0.81885 0.0
C423 C 0.9488 0.76897 0.89495 0.0
C424 C 0.95804 0.69972 0.84776 0.0
C425 C 0.94233 0.71075 0.77322 0.0
N426 N 0.9098 0.76126 0.69379 0.0
N427 N 0.96077 0.71467 0.98537 0.0
C428 C 0.92978 0.75134 0.76044 0.0
C429 C 0.95627 0.72765 0.91036 0.0
N430 N 0.934 0.82125 0.80112 0.0
N431 N 0.97718 0.66344 0.85836 0.0
H432 H 0.95924 0.73404 0.03297 0.0
H433 H 0.9617 0.68427 1.00087 0.0
H434 H 0.98264 0.64288 0.81394 0.0
H435 H 0.99246 0.65583 0.90915 0.0
H436 H 0.92984 0.83206 0.74479 0.0
H437 H 0.9393 0.84391 0.84152 0.0
H438 H 0.89643 0.78936 0.68436 0.0
H439 H 0.90317 0.74019 0.65099 0.0
C440 C 0.25188 0.0749 0.63857 0.0
C441 C 0.22621 0.04089 0.63545 0.0
C442 C 0.25485 0.01584 0.75818 0.0
C443 C 0.27962 0.05075 0.76296 0.0
N444 N 0.29307 0.1182 0.71853 0.0
N445 N 0.19515 0.98553 0.70372 0.0
C446 C 0.27525 0.08179 0.70648 0.0
C447 C 0.2252 0.01339 0.6988 0.0
N448 N 0.25562 0.0996 0.57519 0.0
N449 N 0.26111 0.9836 0.80647 0.0
H450 H 0.17256 0.98303 0.66218 0.0
H451 H 0.19024 0.96774 0.75288 0.0
H452 H 0.28226 0.98299 0.85072 0.0
H453 H 0.2476 0.95572 0.79817 0.0
H454 H 0.27704 0.12228 0.57105 0.0
H455 H 0.23991 0.0951 0.52368 0.0
H456 H 0.28809 0.14333 0.68329 0.0
H457 H 0.30939 0.12439 0.76871 0.0
C458 C 0.45878 0.21621 0.72334 0.0
C459 C 0.46976 0.22911 0.64703 0.0
C460 C 0.4744 0.29858 0.69381 0.0
C461 C 0.45982 0.28657 0.76886 0.0
N462 N 0.43069 0.23462 0.84929 0.0
N463 N 0.47757 0.28387 0.55609 0.0
C464 C 0.44984 0.24552 0.78197 0.0
C465 C 0.47426 0.27069 0.63127 0.0
N466 N 0.45861 0.17601 0.74103 0.0
N467 N 0.49105 0.33576 0.68265 0.0
H468 H 0.4771 0.26443 0.50856 0.0
H469 H 0.47642 0.31427 0.54062 0.0
H470 H 0.49529 0.35654 0.72691 0.0
H471 H 0.50558 0.34415 0.63127 0.0
H472 H 0.45524 0.16499 0.79746 0.0
H473 H 0.46536 0.15364 0.70047 0.0
H474 H 0.4191 0.20595 0.85901 0.0
H475 H 0.42286 0.25532 0.89245 0.0
C476 C 0.24989 0.42753 0.64709 0.0
C477 C 0.27391 0.46277 0.64502 0.0
C478 C 0.24576 0.4834 0.77151 0.0
C479 C 0.22234 0.44746 0.77506 0.0
N480 N 0.211 0.38072 0.72582 0.0
N481 N 0.30397 0.51698 0.71674 0.0
C482 C 0.22731 0.41807 0.71571 0.0
C483 C 0.27472 0.48838 0.71082 0.0
N484 N 0.24715 0.40397 0.5824 0.0
N485 N 0.23865 0.51444 0.82201 0.0
H486 H 0.32616 0.52133 0.6744 0.0
H487 H 0.30883 0.53338 0.76734 0.0
H488 H 0.21771 0.51361 0.86704 0.0
H489 H 0.25111 0.54295 0.81468 0.0
H490 H 0.2267 0.3805 0.57732 0.0
H491 H 0.26303 0.40995 0.53122 0.0
H492 H 0.21646 0.35672 0.68823 0.0
H493 H 0.19548 0.37261 0.77642 0.0
C494 C 0.0533 0.24189 0.63339 0.0
C495 C 0.04155 0.28294 0.63851 0.0
C496 C 0.04278 0.27871 0.78185 0.0
C497 C 0.05474 0.23759 0.77708 0.0
N498 N 0.07618 0.18084 0.69759 0.0
N499 N 0.03112 0.34265 0.71582 0.0
C500 C 0.06196 0.21961 0.70266 0.0
C501 C 0.0383 0.30204 0.71231 0.0
N502 N 0.05471 0.22376 0.56202 0.0
N503 N 0.03475 0.29517 0.85315 0.0
H504 H 0.02574 0.36025 0.66665 0.0
H505 H 0.03283 0.35952 0.76654 0.0
H506 H 0.04026 0.27983 0.90514 0.0
H507 H 0.02114 0.32324 0.86126 0.0
H508 H 0.05793 0.19286 0.55364 0.0
H509 H 0.05023 0.23942 0.51005 0.0
H510 H 0.08745 0.16813 0.64663 0.0
H511 H 0.07876 0.16123 0.74455 0.0
C512 C 0.24725 0.01638 0.25611 0.0
C513 C 0.22466 0.05313 0.26169 0.0
C514 C 0.25581 0.07612 0.13897 0.0
C515 C 0.27973 0.04037 0.13584 0.0
N516 N 0.30627 0.98231 0.2036 0.0
N517 N 0.21567 0.12174 0.21864 0.0
C518 C 0.27793 0.01234 0.19821 0.0
C519 C 0.23163 0.08419 0.20622 0.0
N520 N 0.23792 0.98405 0.30214 0.0
N521 N 0.25445 0.10144 0.07616 0.0
H522 H 0.19884 0.12882 0.2683 0.0
H523 H 0.22265 0.14668 0.18429 0.0
H524 H 0.27082 0.09624 0.02518 0.0
H525 H 0.23428 0.12557 0.07183 0.0
H526 H 0.25003 0.95534 0.2932 0.0
H527 H 0.21545 0.9844 0.34447 0.0
H528 H 0.3091 0.96373 0.25228 0.0
H529 H 0.32966 0.9787 0.16333 0.0
C530 C 0.45145 0.24903 0.28002 0.0
C531 C 0.46534 0.20878 0.26956 0.0
C532 C 0.48181 0.22482 0.13279 0.0
C533 C 0.47273 0.26598 0.14587 0.0
N534 N 0.45555 0.31869 0.2373 0.0
N535 N 0.50404 0.16206 0.18932 0.0
C536 C 0.45919 0.27853 0.22093 0.0
C537 C 0.48326 0.19764 0.19679 0.0
N538 N 0.42982 0.25893 0.34514 0.0
N539 N 0.48796 0.21116 0.05872 0.0
H540 H 0.50859 0.14184 0.23485 0.0
H541 H 0.5214 0.15507 0.14042 0.0
H542 H 0.486 0.2298 0.00988 0.0
H543 H 0.49063 0.18066 0.04521 0.0
H544 H 0.41546 0.28672 0.35245 0.0
H545 H 0.42297 0.23805 0.38864 0.0
H546 H 0.44997 0.32964 0.29305 0.0
H547 H 0.46195 0.34128 0.19692 0.0
C548 C 0.24762 0.44416 0.27829 0.0
C549 C 0.28849 0.45417 0.26294 0.0
C550 C 0.27123 0.46536 0.12519 0.0
C551 C 0.22977 0.46155 0.14317 0.0
N552 N 0.17772 0.45289 0.24053 0.0
N553 N 0.33634 0.48441 0.17225 0.0
C554 C 0.21768 0.45229 0.22074 0.0
C555 C 0.29963 0.46732 0.18642 0.0
N556 N 0.23751 0.42565 0.34663 0.0
N557 N 0.28385 0.46622 0.04937 0.0
H558 H 0.35714 0.49088 0.21525 0.0
H559 H 0.34404 0.49751 0.11909 0.0
H560 H 0.26417 0.46401 1.00257 0.0
H561 H 0.31416 0.46457 0.03316 0.0
H562 H 0.2089 0.41428 0.35812 0.0
H563 H 0.25883 0.41779 0.3884 0.0
H564 H 0.16743 0.45053 0.29771 0.0
H565 H 0.15495 0.45953 0.20088 0.0
C566 C 0.06587 0.24539 0.12799 0.0
C567 C 0.03188 0.21962 0.12856 0.0
C568 C 0.01169 0.24672 0.25667 0.0
C569 C 0.04578 0.2728 0.25627 0.0
N570 N 0.1111 0.28753 0.20227 0.0
N571 N 0.97998 0.18713 0.2037 0.0
C572 C 0.07472 0.26896 0.19521 0.0
C573 C 0.00726 0.21757 0.19628 0.0
N574 N 0.08864 0.249 0.0619 0.0
N575 N 0.9818 0.25132 0.31109 0.0
H576 H 0.97613 0.16519 0.16114 0.0
H577 H 0.96431 0.18115 0.25508 0.0
H578 H 0.98278 0.27181 0.35653 0.0
H579 H 0.95406 0.23699 0.30747 0.0
H580 H 0.11083 0.27073 0.05458 0.0
H581 H 0.08334 0.23223 0.01194 0.0
H582 H 0.13499 0.2832 0.16353 0.0
H583 H 0.11875 0.30388 0.2517 0.0
C584 C 0.71837 0.92285 0.30456 0.0
C585 C 0.72607 0.93852 0.22883 0.0
C586 C 0.78802 0.96971 0.27769 0.0
C587 C 0.77651 0.9598 0.35523 0.0
N588 N 0.72997 0.92783 0.44339 0.0
N589 N 0.77944 0.95587 0.14034 0.0
C590 C 0.74171 0.93617 0.36882 0.0
C591 C 0.76422 0.95609 0.21418 0.0
N592 N 0.69091 0.89273 0.31367 0.0
N593 N 0.82128 0.99286 0.26462 0.0
H594 H 0.76528 0.94034 0.09568 0.0
H595 H 0.80842 0.96527 0.12596 0.0
H596 H 0.84003 0.00252 0.30912 0.0
H597 H 0.82864 0.00493 0.21043 0.0
H598 H 0.68589 0.87766 0.366 0.0
H599 H 0.6773 0.87905 0.26614 0.0
H600 H 0.70245 0.91476 0.45766 0.0
H601 H 0.74636 0.93709 0.49155 0.0
C602 C 0.58237 0.74765 0.36996 0.0
C603 C 0.54921 0.77499 0.37273 0.0
C604 C 0.52315 0.74643 0.25169 0.0
C605 C 0.5571 0.71976 0.24717 0.0
N606 N 0.62408 0.70325 0.2907 0.0
N607 N 0.4956 0.80869 0.3036 0.0
C608 C 0.58837 0.72313 0.3028 0.0
C609 C 0.52204 0.777 0.30953 0.0
N610 N 0.60697 0.74345 0.43293 0.0
N611 N 0.49039 0.74112 0.20511 0.0
H612 H 0.49434 0.83211 0.34388 0.0
H613 H 0.47808 0.81399 0.25447 0.0
H614 H 0.48838 0.71886 0.16304 0.0
H615 H 0.4632 0.75653 0.21347 0.0
H616 H 0.62886 0.72088 0.43753 0.0
H617 H 0.60327 0.76028 0.48358 0.0
H618 H 0.64937 0.70725 0.32532 0.0
H619 H 0.62967 0.68604 0.24103 0.0
C620 C 0.74932 0.57239 0.36233 0.0
C621 C 0.7235 0.53846 0.36433 0.0
C622 C 0.7514 0.51572 0.23891 0.0
C623 C 0.77704 0.55014 0.23617 0.0
N624 N 0.79161 0.61641 0.28428 0.0
N625 N 0.69207 0.48432 0.2951 0.0
C626 C 0.77311 0.58011 0.29457 0.0
C627 C 0.72208 0.51219 0.29959 0.0
N628 N 0.75257 0.59628 0.42652 0.0
N629 N 0.75658 0.48485 0.18722 0.0
H630 H 0.67026 0.48066 0.33847 0.0
H631 H 0.68647 0.46755 0.2453 0.0
H632 H 0.77741 0.48507 0.14189 0.0
H633 H 0.74252 0.45706 0.19337 0.0
H634 H 0.77414 0.61871 0.43182 0.0
H635 H 0.73592 0.59155 0.47734 0.0
H636 H 0.78708 0.64096 0.32097 0.0
H637 H 0.80817 0.62327 0.2342 0.0
C638 C 0.95116 0.79886 0.34668 0.0
C639 C 0.93806 0.78595 0.27167 0.0
C640 C 0.94047 0.7157 0.31864 0.0
C641 C 0.94975 0.72934 0.39487 0.0
N642 N 0.95384 0.78458 0.48473 0.0
N643 N 0.91313 0.73229 0.19159 0.0
C644 C 0.95191 0.77112 0.4098 0.0
C645 C 0.9307 0.74436 0.25913 0.0
N646 N 0.96554 0.83696 0.35733 0.0
N647 N 0.94262 0.67548 0.30201 0.0
H648 H 0.90476 0.75246 0.1478 0.0
H649 H 0.90337 0.70297 0.18212 0.0
H650 H 0.94997 0.65361 0.34335 0.0
H651 H 0.94057 0.6641 0.24583 0.0
H652 H 0.97899 0.84626 0.40874 0.0
H653 H 0.96918 0.85785 0.3127 0.0
H654 H 0.95081 0.81489 0.49961 0.0
H655 H 0.95417 0.76524 0.53269 0.0
C656 C 0.4891 0.04603 0.01011 0.0
C657 C 0.46379 0.01332 0.99015 0.0
C658 C 0.52395 0.96945 0.97387 0.0
C659 C 0.54927 1.0016 0.99643 0.0
N660 N 0.55669 0.07163 0.03065 0.0
N661 N 0.45674 0.94214 0.96493 0.0
C662 C 0.53199 0.04027 0.01274 0.0
C663 C 0.48116 0.97457 0.97559 0.0
N664 N 0.47176 0.08188 0.03203 0.0
N665 N 0.54091 0.93469 0.94541 0.0
H666 H 0.42557 0.94449 0.96173 0.0
H667 H 0.46702 0.9124 0.96478 0.0
H668 H 0.57195 0.92989 0.94143 0.0
H669 H 0.52456 0.91207 0.91852 0.0
H670 H 0.48737 0.10603 0.05487 0.0
H671 H 0.44073 0.08708 0.03214 0.0
H672 H 0.54753 0.10162 0.03386 0.0
H673 H 0.5874 0.06807 0.04006 0.0
C674 C 0.51371 0.47274 0.09028 0.0
C675 C 0.48837 0.45639 0.03213 0.0
C676 C 0.4941 0.51978 0.95863 0.0
C677 C 0.51956 0.53627 0.01655 0.0
N678 N 0.56663 0.51982 0.11882 0.0
N679 N 0.44048 0.47325 0.93195 0.0
C680 C 0.53302 0.51047 0.07749 0.0
C681 C 0.47454 0.48236 0.97208 0.0
N682 N 0.51677 0.45396 0.16079 0.0
N683 N 0.49126 0.53794 0.88747 0.0
H684 H 0.42177 0.44952 0.94801 0.0
H685 H 0.42745 0.49285 0.89163 0.0
H686 H 0.50952 0.56198 0.87102 0.0
H687 H 0.47577 0.52526 0.84118 0.0
H688 H 0.53196 0.4664 0.20769 0.0
H689 H 0.49897 0.42939 0.17614 0.0
H690 H 0.57938 0.50039 0.15976 0.0
H691 H 0.58562 0.54335 0.10324 0.0
C692 C 0.97807 0.49009 0.94186 0.0
C693 C 0.96152 0.51573 1.00047 0.0
C694 C 0.02434 0.50722 0.07443 0.0
C695 C 0.04066 0.48131 0.01613 0.0
N696 N 0.02396 0.43512 0.91335 0.0
N697 N 0.97786 0.56164 0.10398 0.0
C698 C 0.01505 0.46901 0.955 0.0
C699 C 0.98707 0.52796 0.06186 0.0
N700 N 0.9604 0.48847 0.87048 0.0
N701 N 0.04292 0.50965 0.14483 0.0
H702 H 0.95466 0.58139 0.08867 0.0
H703 H 0.99705 0.57365 0.14546 0.0
H704 H 0.06691 0.49078 0.16024 0.0
H705 H 0.03104 0.52587 0.19139 0.0
H706 H 0.97305 0.47282 0.82379 0.0
H707 H 0.93687 0.50776 0.85444 0.0
H708 H 0.00463 0.42331 0.87186 0.0
H709 H 0.04688 0.41516 0.92925 0.0
C710 C 0.96898 0.01892 0.92034 0.0
C711 C 0.98039 0.04238 0.98617 0.0
C712 C 0.95747 0.98668 0.06938 0.0
C713 C 0.95609 0.96008 1.00508 0.0
N714 N 0.95669 0.95294 0.86549 0.0
N715 N 0.99223 0.04312 0.12475 0.0
C716 C 0.96114 0.97679 0.92937 0.0
C717 C 0.97663 0.02467 0.0611 0.0
N718 N 0.96245 0.03711 0.85019 0.0
N719 N 0.9373 0.97786 0.13628 0.0
H720 H 0.00815 0.07005 0.12168 0.0
H721 H 0.99344 0.02876 0.17868 0.0
H722 H 0.91514 0.95587 0.13743 0.0
H723 H 0.93634 0.99743 0.18358 0.0
H724 H 0.95013 0.02246 0.8026 0.0
H725 H 0.96448 0.06795 0.84192 0.0
H726 H 0.96603 0.96152 0.80992 0.0
H727 H 0.94402 0.92431 0.86831 0.0
C728 C 0.01592 0.03737 0.43658 0.0
C729 C 0.04106 0.02305 0.4974 0.0
C730 C 0.98861 0.97425 0.53432 0.0
C731 C 0.96329 0.98842 0.47378 0.0
N732 N 0.96138 0.02208 0.34915 0.0
N733 N 0.04121 0.99142 0.62405 0.0
C734 C 0.9793 0.01687 0.4197 0.0
C735 C 0.02454 0.9953 0.55201 0.0
N736 N 0.02495 0.07257 0.39926 0.0
N737 N 0.9803 0.93874 0.57117 0.0
H738 H 0.06406 0.01028 0.64326 0.0
H739 H 0.02825 0.97415 0.66824 0.0
H740 H 0.95762 0.91954 0.55256 0.0
H741 H 0.99964 0.92556 0.61167 0.0
H742 H 0.00593 0.08629 0.35894 0.0
H743 H 0.0479 0.09142 0.41775 0.0
H744 H 0.97281 0.04092 0.30602 0.0
H745 H 0.9389 0.00302 0.32928 0.0
C746 C 0.54099 0.98398 0.5763 0.0
C747 C 0.52759 0.95911 0.51456 0.0
C748 C 0.48136 0.01354 0.47344 0.0
C749 C 0.49519 0.03885 0.53381 0.0
N750 N 0.52507 0.03997 0.66129 0.0
N751 N 0.49912 0.95978 0.38562 0.0
C752 C 0.52146 0.02185 0.59056 0.0
C753 C 0.50174 0.97657 0.45774 0.0
N754 N 0.57467 0.9735 0.61709 0.0
N755 N 0.4466 0.02277 0.43505 0.0
H756 H 0.51799 0.93626 0.36755 0.0
H757 H 0.48311 0.97326 0.34034 0.0
H758 H 0.4274 0.04609 0.45263 0.0
H759 H 0.43373 0.00352 0.39456 0.0
H760 H 0.58761 0.99217 0.65844 0.0
H761 H 0.59338 0.94956 0.60098 0.0
H762 H 0.54094 0.02709 0.70731 0.0
H763 H 0.50707 0.0644 0.67799 0.0
C764 C 0.51448 0.54452 0.50688 0.0
C765 C 0.5417 0.51184 0.51809 0.0
C766 C 0.484 0.46515 0.52356 0.0
C767 C 0.4567 0.49829 0.51806 0.0
N768 N 0.44665 0.57071 0.51941 0.0
N769 N 0.55168 0.44164 0.55133 0.0
C770 C 0.47215 0.53828 0.51483 0.0
C771 C 0.52626 0.47227 0.52984 0.0
N772 N 0.52877 0.58121 0.48343 0.0
N773 N 0.46962 0.42662 0.52379 0.0
H774 H 0.58258 0.44524 0.55669 0.0
H775 H 0.54191 0.41357 0.57067 0.0
H776 H 0.43907 0.41982 0.52785 0.0
H777 H 0.48792 0.40124 0.51619 0.0
H778 H 0.51018 0.60478 0.46492 0.0
H779 H 0.5593 0.58694 0.47453 0.0
H780 H 0.45667 0.59998 0.52867 0.0
H781 H 0.41546 0.56846 0.51987 0.0
C782 C 0.99529 0.52598 0.43109 0.0
C783 C 0.97806 0.54036 0.50196 0.0
C784 C 0.99603 0.47578 0.56356 0.0
C785 C 0.01281 0.46091 0.49275 0.0
N786 N 0.04202 0.47958 0.36909 0.0
N787 N 0.94614 0.51961 0.62184 0.0
C788 C 0.01619 0.48804 0.42892 0.0
C789 C 0.97398 0.51278 0.56463 0.0
N790 N 0.98862 0.54696 0.36388 0.0
N791 N 0.00359 0.45588 0.6316 0.0
H792 H 0.9239 0.54176 0.61665 0.0
H793 H 0.94041 0.49905 0.66646 0.0
H794 H 0.02339 0.43134 0.63453 0.0
H795 H 0.99519 0.46731 0.68574 0.0
H796 H 0.99642 0.53589 0.30926 0.0
H797 H 0.96992 0.57238 0.36163 0.0
H798 H 0.04807 0.49983 0.3242 0.0
H799 H 0.06255 0.45579 0.37122 0.0
loop_
_geom_bond_atom_site_label_1
_geom_bond_atom_site_label_2
_geom_bond_distance
_geom_bond_site_symmetry_2
_ccdc_geom_bond_type
Co0 O1 2.216 1_544 S
Co0 O2 2.091 1_554 S
Co0 O4 2.004 . S
Co0 O10 2.021 1_545 S
Co0 O12 2.137 1_544 S
Co0 O13 2.244 1_545 S
O1 Co0 2.216 1_566 S
O1 C8 1.247 1_565 S
O2 Co0 2.091 1_556 S
O2 C8 1.261 . S
C3 O12 1.247 1_554 S
C3 O13 1.272 . S
O4 Co0 2.004 . S
O4 C9 1.259 . S
Co5 O6 2.061 1_565 S
Co5 O11 2.052 . S
Co5 O13 2.135 . S
O6 Co5 2.061 1_545 S
O6 C9 1.235 . S
C7 O10 1.238 . S
C7 O11 1.241 . S
C8 O1 1.247 1_545 S
C8 O2 1.261 . S
C9 O4 1.259 . S
C9 O6 1.235 . S
O10 Co0 2.021 1_565 S
O10 C7 1.238 . S
O11 Co5 2.052 . S
O11 C7 1.241 . S
O12 Co0 2.137 1_566 S
O12 C3 1.247 1_556 S
O13 Co0 2.244 1_565 S
O13 C3 1.272 . S
O13 Co5 2.135 . S
Co14 O15 2.216 1_554 S
Co14 O16 2.091 1_554 S
Co14 O18 2.004 . S
Co14 O24 2.021 . S
Co14 O26 2.137 1_554 S
Co14 O27 2.244 . S
O15 Co14 2.216 1_556 S
O15 C22 1.247 . S
O16 Co14 2.091 1_556 S
O16 C22 1.261 . S
C17 O26 1.247 1_554 S
C17 O27 1.272 . S
O18 Co14 2.004 . S
O18 C23 1.259 . S
Co19 O20 2.061 . S
Co19 O25 2.052 . S
Co19 O27 2.135 . S
O20 Co19 2.061 . S
O20 C23 1.235 . S
C21 O24 1.238 . S
C21 O25 1.241 . S
C22 O15 1.247 . S
C22 O16 1.261 . S
C23 O18 1.259 . S
C23 O20 1.235 . S
O24 Co14 2.021 . S
O24 C21 1.238 . S
O25 Co19 2.052 . S
O25 C21 1.241 . S
O26 Co14 2.137 1_556 S
O26 C17 1.247 1_556 S
O27 Co14 2.244 . S
O27 C17 1.272 . S
O27 Co19 2.135 . S
Co28 O29 2.216 1_554 S
Co28 O30 2.091 1_554 S
Co28 O32 2.004 . S
Co28 O38 2.021 . S
Co28 O40 2.137 1_554 S
Co28 O41 2.244 . S
O29 Co28 2.216 1_556 S
O29 C36 1.247 . S
O30 Co28 2.091 1_556 S
O30 C36 1.261 . S
C31 O40 1.247 1_554 S
C31 O41 1.272 . S
O32 Co28 2.004 . S
O32 C37 1.259 . S
Co33 O34 2.061 . S
Co33 O39 2.052 . S
Co33 O41 2.135 . S
O34 Co33 2.061 . S
O34 C37 1.235 . S
C35 O38 1.238 . S
C35 O39 1.241 . S
C36 O29 1.247 . S
C36 O30 1.261 . S
C37 O32 1.259 . S
C37 O34 1.235 . S
O38 Co28 2.021 . S
O38 C35 1.238 . S
O39 Co33 2.052 . S
O39 C35 1.241 . S
O40 Co28 2.137 1_556 S
O40 C31 1.247 1_556 S
O41 Co28 2.244 . S
O41 C31 1.272 . S
O41 Co33 2.135 . S
Co42 O43 2.216 1_454 S
Co42 O44 2.091 1_554 S
Co42 O46 2.004 . S
Co42 O52 2.021 1_455 S
Co42 O54 2.137 1_454 S
Co42 O55 2.244 1_455 S
O43 Co42 2.216 1_656 S
O43 C50 1.247 1_655 S
O44 Co42 2.091 1_556 S
O44 C50 1.261 . S
C45 O54 1.247 1_554 S
C45 O55 1.272 . S
O46 Co42 2.004 . S
O46 C51 1.259 . S
Co47 O48 2.061 1_655 S
Co47 O53 2.052 . S
Co47 O55 2.135 . S
O48 Co47 2.061 1_455 S
O48 C51 1.235 . S
C49 O52 1.238 . S
C49 O53 1.241 . S
C50 O43 1.247 1_455 S
C50 O44 1.261 . S
C51 O46 1.259 . S
C51 O48 1.235 . S
O52 Co42 2.021 1_655 S
O52 C49 1.238 . S
O53 Co47 2.052 . S
O53 C49 1.241 . S
O54 Co42 2.137 1_656 S
O54 C45 1.247 1_556 S
O55 Co42 2.244 1_655 S
O55 C45 1.272 . S
O55 Co47 2.135 . S
Co56 O57 2.216 1_565 S
Co56 O58 2.091 . S
Co56 O60 2.004 . S
Co56 O66 2.021 1_565 S
Co56 O68 2.137 1_565 S
Co56 O69 2.244 1_565 S
O57 Co56 2.216 1_545 S
O57 C64 1.247 1_545 S
O58 Co56 2.091 . S
O58 C64 1.261 . S
C59 O68 1.247 . S
C59 O69 1.272 . S
O60 Co56 2.004 . S
O60 C65 1.259 . S
Co61 O62 2.061 1_545 S
Co61 O67 2.052 . S
Co61 O69 2.135 . S
O62 Co61 2.061 1_565 S
O62 C65 1.235 . S
C63 O66 1.238 . S
C63 O67 1.241 . S
C64 O57 1.247 1_565 S
C64 O58 1.261 . S
C65 O60 1.259 . S
C65 O62 1.235 . S
O66 Co56 2.021 1_545 S
O66 C63 1.238 . S
O67 Co61 2.052 . S
O67 C63 1.241 . S
O68 Co56 2.137 1_545 S
O68 C59 1.247 . S
O69 Co56 2.244 1_545 S
O69 C59 1.272 . S
O69 Co61 2.135 . S
Co70 O71 2.216 . S
Co70 O72 2.091 . S
Co70 O74 2.004 . S
Co70 O80 2.021 . S
Co70 O82 2.137 . S
Co70 O83 2.244 . S
O71 Co70 2.216 . S
O71 C78 1.247 . S
O72 Co70 2.091 . S
O72 C78 1.261 . S
C73 O82 1.247 . S
C73 O83 1.272 . S
O74 Co70 2.004 . S
O74 C79 1.259 . S
Co75 O76 2.061 . S
Co75 O81 2.052 . S
Co75 O83 2.135 . S
O76 Co75 2.061 . S
O76 C79 1.235 . S
C77 O80 1.238 . S
C77 O81 1.241 . S
C78 O71 1.247 . S
C78 O72 1.261 . S
C79 O74 1.259 . S
C79 O76 1.235 . S
O80 Co70 2.021 . S
O80 C77 1.238 . S
O81 Co75 2.052 . S
O81 C77 1.241 . S
O82 Co70 2.137 . S
O82 C73 1.247 . S
O83 Co70 2.244 . S
O83 C73 1.272 . S
O83 Co75 2.135 . S
Co84 O85 2.216 . S
Co84 O86 2.091 . S
Co84 O88 2.004 . S
Co84 O94 2.021 . S
Co84 O96 2.137 . S
Co84 O97 2.244 . S
O85 Co84 2.216 . S
O85 C92 1.247 . S
O86 Co84 2.091 . S
O86 C92 1.261 . S
C87 O96 1.247 . S
C87 O97 1.272 . S
O88 Co84 2.004 . S
O88 C93 1.259 . S
Co89 O90 2.061 . S
Co89 O95 2.052 . S
Co89 O97 2.135 . S
O90 Co89 2.061 . S
O90 C93 1.235 . S
C91 O94 1.238 . S
C91 O95 1.241 . S
C92 O85 1.247 . S
C92 O86 1.261 . S
C93 O88 1.259 . S
C93 O90 1.235 . S
O94 Co84 2.021 . S
O94 C91 1.238 . S
O95 Co89 2.052 . S
O95 C91 1.241 . S
O96 Co84 2.137 . S
O96 C87 1.247 . S
O97 Co84 2.244 . S
O97 C87 1.272 . S
O97 Co89 2.135 . S
Co98 O99 2.216 1_655 S
Co98 O100 2.091 . S
Co98 O102 2.004 . S
Co98 O108 2.021 1_655 S
Co98 O110 2.137 1_655 S
Co98 O111 2.244 1_655 S
O99 Co98 2.216 1_455 S
O99 C106 1.247 1_455 S
O100 Co98 2.091 . S
O100 C106 1.261 . S
C101 O110 1.247 . S
C101 O111 1.272 . S
O102 Co98 2.004 . S
O102 C107 1.259 . S
Co103 O104 2.061 1_455 S
Co103 O109 2.052 . S
Co103 O111 2.135 . S
O104 Co103 2.061 1_655 S
O104 C107 1.235 . S
C105 O108 1.238 . S
C105 O109 1.241 . S
C106 O99 1.247 1_655 S
C106 O100 1.261 . S
C107 O102 1.259 . S
C107 O104 1.235 . S
O108 Co98 2.021 1_455 S
O108 C105 1.238 . S
O109 Co103 2.052 . S
O109 C105 1.241 . S
O110 Co98 2.137 1_455 S
O110 C101 1.247 . S
O111 Co98 2.244 1_455 S
O111 C101 1.272 . S
O111 Co103 2.135 . S
Co112 O113 2.216 1_566 S
Co112 O114 2.091 1_556 S
Co112 O116 2.004 . S
Co112 O122 2.021 1_565 S
Co112 O124 2.137 1_566 S
Co112 O125 2.244 1_565 S
O113 Co112 2.216 1_544 S
O113 C120 1.247 1_545 S
O114 Co112 2.091 1_554 S
O114 C120 1.261 . S
C115 O124 1.247 1_556 S
C115 O125 1.272 . S
O116 Co112 2.004 . S
O116 C121 1.259 . S
Co117 O118 2.061 1_545 S
Co117 O123 2.052 . S
Co117 O125 2.135 . S
O118 Co117 2.061 1_565 S
O118 C121 1.235 . S
C119 O122 1.238 . S
C119 O123 1.241 . S
C120 O113 1.247 1_565 S
C120 O114 1.261 . S
C121 O116 1.259 . S
C121 O118 1.235 . S
O122 Co112 2.021 1_545 S
O122 C119 1.238 . S
O123 Co117 2.052 . S
O123 C119 1.241 . S
O124 Co112 2.137 1_544 S
O124 C115 1.247 1_554 S
O125 Co112 2.244 1_545 S
O125 C115 1.272 . S
O125 Co117 2.135 . S
Co126 O127 2.216 1_556 S
Co126 O128 2.091 1_556 S
Co126 O130 2.004 . S
Co126 O136 2.021 . S
Co126 O138 2.137 1_556 S
Co126 O139 2.244 . S
O127 Co126 2.216 1_554 S
O127 C134 1.247 . S
O128 Co126 2.091 1_554 S
O128 C134 1.261 . S
C129 O138 1.247 1_556 S
C129 O139 1.272 . S
O130 Co126 2.004 . S
O130 C135 1.259 . S
Co131 O132 2.061 . S
Co131 O137 2.052 . S
Co131 O139 2.135 . S
O132 Co131 2.061 . S
O132 C135 1.235 . S
C133 O136 1.238 . S
C133 O137 1.241 . S
C134 O127 1.247 . S
C134 O128 1.261 . S
C135 O130 1.259 . S
C135 O132 1.235 . S
O136 Co126 2.021 . S
O136 C133 1.238 . S
O137 Co131 2.052 . S
O137 C133 1.241 . S
O138 Co126 2.137 1_554 S
O138 C129 1.247 1_554 S
O139 Co126 2.244 . S
O139 C129 1.272 . S
O139 Co131 2.135 . S
Co140 O141 2.216 1_556 S
Co140 O142 2.091 1_556 S
Co140 O144 2.004 . S
Co140 O150 2.021 . S
Co140 O152 2.137 1_556 S
Co140 O153 2.244 . S
O141 Co140 2.216 1_554 S
O141 C148 1.247 . S
O142 Co140 2.091 1_554 S
O142 C148 1.261 . S
C143 O152 1.247 1_556 S
C143 O153 1.272 . S
O144 Co140 2.004 . S
O144 C149 1.259 . S
Co145 O146 2.061 . S
Co145 O151 2.052 . S
Co145 O153 2.135 . S
O146 Co145 2.061 . S
O146 C149 1.235 . S
C147 O150 1.238 . S
C147 O151 1.241 . S
C148 O141 1.247 . S
C148 O142 1.261 . S
C149 O144 1.259 . S
C149 O146 1.235 . S
O150 Co140 2.021 . S
O150 C147 1.238 . S
O151 Co145 2.052 . S
O151 C147 1.241 . S
O152 Co140 2.137 1_554 S
O152 C143 1.247 1_554 S
O153 Co140 2.244 . S
O153 C143 1.272 . S
O153 Co145 2.135 . S
Co154 O155 2.216 1_656 S
Co154 O156 2.091 1_556 S
Co154 O158 2.004 . S
Co154 O164 2.021 1_655 S
Co154 O166 2.137 1_656 S
Co154 O167 2.244 1_655 S
O155 Co154 2.216 1_454 S
O155 C162 1.247 1_455 S
O156 Co154 2.091 1_554 S
O156 C162 1.261 . S
C157 O166 1.247 1_556 S
C157 O167 1.272 . S
O158 Co154 2.004 . S
O158 C163 1.259 . S
Co159 O160 2.061 1_455 S
Co159 O165 2.052 . S
Co159 O167 2.135 . S
O160 Co159 2.061 1_655 S
O160 C163 1.235 . S
C161 O164 1.238 . S
C161 O165 1.241 . S
C162 O155 1.247 1_655 S
C162 O156 1.261 . S
C163 O158 1.259 . S
C163 O160 1.235 . S
O164 Co154 2.021 1_455 S
O164 C161 1.238 . S
O165 Co159 2.052 . S
O165 C161 1.241 . S
O166 Co154 2.137 1_454 S
O166 C157 1.247 1_554 S
O167 Co154 2.244 1_455 S
O167 C157 1.272 . S
O167 Co159 2.135 . S
Co168 O169 2.216 1_545 S
Co168 O170 2.091 . S
Co168 O172 2.004 . S
Co168 O178 2.021 1_545 S
Co168 O180 2.137 1_545 S
Co168 O181 2.244 1_545 S
O169 Co168 2.216 1_565 S
O169 C176 1.247 1_565 S
O170 Co168 2.091 . S
O170 C176 1.261 . S
C171 O180 1.247 . S
C171 O181 1.272 . S
O172 Co168 2.004 . S
O172 C177 1.259 . S
Co173 O174 2.061 1_565 S
Co173 O179 2.052 . S
Co173 O181 2.135 . S
O174 Co173 2.061 1_545 S
O174 C177 1.235 . S
C175 O178 1.238 . S
C175 O179 1.241 . S
C176 O169 1.247 1_545 S
C176 O170 1.261 . S
C177 O172 1.259 . S
C177 O174 1.235 . S
O178 Co168 2.021 1_565 S
O178 C175 1.238 . S
O179 Co173 2.052 . S
O179 C175 1.241 . S
O180 Co168 2.137 1_565 S
O180 C171 1.247 . S
O181 Co168 2.244 1_565 S
O181 C171 1.272 . S
O181 Co173 2.135 . S
Co182 O183 2.216 . S
Co182 O184 2.091 . S
Co182 O186 2.004 . S
Co182 O192 2.021 . S
Co182 O194 2.137 . S
Co182 O195 2.244 . S
O183 Co182 2.216 . S
O183 C190 1.247 . S
O184 Co182 2.091 . S
O184 C190 1.261 . S
C185 O194 1.247 . S
C185 O195 1.272 . S
O186 Co182 2.004 . S
O186 C191 1.259 . S
Co187 O188 2.061 . S
Co187 O193 2.052 . S
Co187 O195 2.135 . S
O188 Co187 2.061 . S
O188 C191 1.235 . S
C189 O192 1.238 . S
C189 O193 1.241 . S
C190 O183 1.247 . S
C190 O184 1.261 . S
C191 O186 1.259 . S
C191 O188 1.235 . S
O192 Co182 2.021 . S
O192 C189 1.238 . S
O193 Co187 2.052 . S
O193 C189 1.241 . S
O194 Co182 2.137 . S
O194 C185 1.247 . S
O195 Co182 2.244 . S
O195 C185 1.272 . S
O195 Co187 2.135 . S
Co196 O197 2.216 . S
Co196 O198 2.091 . S
Co196 O200 2.004 . S
Co196 O206 2.021 . S
Co196 O208 2.137 . S
Co196 O209 2.244 . S
O197 Co196 2.216 . S
O197 C204 1.247 . S
O198 Co196 2.091 . S
O198 C204 1.261 . S
C199 O208 1.247 . S
C199 O209 1.272 . S
O200 Co196 2.004 . S
O200 C205 1.259 . S
Co201 O202 2.061 . S
Co201 O207 2.052 . S
Co201 O209 2.135 . S
O202 Co201 2.061 . S
O202 C205 1.235 . S
C203 O206 1.238 . S
C203 O207 1.241 . S
C204 O197 1.247 . S
C204 O198 1.261 . S
C205 O200 1.259 . S
C205 O202 1.235 . S
O206 Co196 2.021 . S
O206 C203 1.238 . S
O207 Co201 2.052 . S
O207 C203 1.241 . S
O208 Co196 2.137 . S
O208 C199 1.247 . S
O209 Co196 2.244 . S
O209 C199 1.272 . S
O209 Co201 2.135 . S
Co210 O211 2.216 1_455 S
Co210 O212 2.091 . S
Co210 O214 2.004 . S
Co210 O220 2.021 1_455 S
Co210 O222 2.137 1_455 S
Co210 O223 2.244 1_455 S
O211 Co210 2.216 1_655 S
O211 C218 1.247 1_655 S
O212 Co210 2.091 . S
O212 C218 1.261 . S
C213 O222 1.247 . S
C213 O223 1.272 . S
O214 Co210 2.004 . S
O214 C219 1.259 . S
Co215 O216 2.061 1_655 S
Co215 O221 2.052 . S
Co215 O223 2.135 . S
O216 Co215 2.061 1_455 S
O216 C219 1.235 . S
C217 O220 1.238 . S
C217 O221 1.241 . S
C218 O211 1.247 1_455 S
C218 O212 1.261 . S
C219 O214 1.259 . S
C219 O216 1.235 . S
O220 Co210 2.021 1_655 S
O220 C217 1.238 . S
O221 Co215 2.052 . S
O221 C217 1.241 . S
O222 Co210 2.137 1_655 S
O222 C213 1.247 . S
O223 Co210 2.244 1_655 S
O223 C213 1.272 . S
O223 Co215 2.135 . S
C224 C225 1.363 . S
C224 C230 1.379 . S
C224 N232 1.356 . S
C225 C224 1.363 . S
C225 C231 1.363 . S
C226 C227 1.363 . S
C226 C231 1.379 . S
C226 N233 1.356 . S
C227 C226 1.363 . S
C227 C230 1.363 . S
N228 C230 1.356 . S
N228 H240 0.984 . S
N228 H241 0.985 . S
N229 C231 1.356 . S
N229 H234 0.984 . S
N229 H235 0.985 . S
C230 C224 1.379 . S
C230 C227 1.363 . S
C230 N228 1.356 . S
C231 C225 1.363 . S
C231 C226 1.379 . S
C231 N229 1.356 . S
N232 C224 1.356 . S
N232 H238 0.984 . S
N232 H239 0.984 . S
N233 C226 1.356 . S
N233 H236 0.984 . S
N233 H237 0.985 . S
H234 N229 0.984 . S
H235 N229 0.985 . S
H236 N233 0.984 . S
H237 N233 0.985 . S
H238 N232 0.984 . S
H239 N232 0.984 . S
H240 N228 0.984 . S
H241 N228 0.985 . S
C242 C243 1.363 . S
C242 C248 1.379 . S
C242 N250 1.356 . S
C243 C242 1.363 . S
C243 C249 1.363 . S
C244 C245 1.363 . S
C244 C249 1.379 . S
C244 N251 1.356 . S
C245 C244 1.363 . S
C245 C248 1.363 . S
N246 C248 1.356 . S
N246 H258 0.984 . S
N246 H259 0.985 . S
N247 C249 1.356 . S
N247 H252 0.984 . S
N247 H253 0.985 . S
C248 C242 1.379 . S
C248 C245 1.363 . S
C248 N246 1.356 . S
C249 C243 1.363 . S
C249 C244 1.379 . S
C249 N247 1.356 . S
N250 C242 1.356 . S
N250 H256 0.984 . S
N250 H257 0.984 . S
N251 C244 1.356 . S
N251 H254 0.984 . S
N251 H255 0.985 . S
H252 N247 0.984 . S
H253 N247 0.985 . S
H254 N251 0.984 . S
H255 N251 0.985 . S
H256 N250 0.984 . S
H257 N250 0.984 . S
H258 N246 0.984 . S
H259 N246 0.985 . S
C260 C261 1.363 . S
C260 C266 1.379 . S
C260 N268 1.356 . S
C261 C260 1.363 . S
C261 C267 1.363 . S
C262 C263 1.363 . S
C262 C267 1.379 . S
C262 N269 1.356 . S
C263 C262 1.363 . S
C263 C266 1.363 . S
N264 C266 1.356 . S
N264 H276 0.984 . S
N264 H277 0.985 . S
N265 C267 1.356 . S
N265 H270 0.984 . S
N265 H271 0.985 . S
C266 C260 1.379 . S
C266 C263 1.363 . S
C266 N264 1.356 . S
C267 C261 1.363 . S
C267 C262 1.379 . S
C267 N265 1.356 . S
N268 C260 1.356 . S
N268 H274 0.984 . S
N268 H275 0.984 . S
N269 C262 1.356 . S
N269 H272 0.984 . S
N269 H273 0.985 . S
H270 N265 0.984 . S
H271 N265 0.985 . S
H272 N269 0.984 . S
H273 N269 0.985 . S
H274 N268 0.984 . S
H275 N268 0.984 . S
H276 N264 0.984 . S
H277 N264 0.985 . S
C278 C279 1.363 . S
C278 C284 1.379 . S
C278 N286 1.356 . S
C279 C278 1.363 . S
C279 C285 1.363 . S
C280 C281 1.363 . S
C280 C285 1.379 . S
C280 N287 1.356 . S
C281 C280 1.363 . S
C281 C284 1.363 . S
N282 C284 1.356 . S
N282 H294 0.984 . S
N282 H295 0.985 . S
N283 C285 1.356 . S
N283 H288 0.984 . S
N283 H289 0.985 . S
C284 C278 1.379 . S
C284 C281 1.363 . S
C284 N282 1.356 . S
C285 C279 1.363 . S
C285 C280 1.379 . S
C285 N283 1.356 . S
N286 C278 1.356 . S
N286 H292 0.984 . S
N286 H293 0.984 . S
N287 C280 1.356 . S
N287 H290 0.984 . S
N287 H291 0.985 1_565 S
H288 N283 0.984 . S
H289 N283 0.985 . S
H290 N287 0.984 . S
H291 N287 0.985 1_545 S
H292 N286 0.984 . S
H293 N286 0.984 . S
H294 N282 0.984 . S
H295 N282 0.985 . S
C296 C297 1.363 . S
C296 C302 1.379 . S
C296 N304 1.356 . S
C297 C296 1.363 . S
C297 C303 1.363 . S
C298 C299 1.363 . S
C298 C303 1.379 . S
C298 N305 1.356 . S
C299 C298 1.363 . S
C299 C302 1.363 . S
N300 C302 1.356 . S
N300 H312 0.984 . S
N300 H313 0.985 . S
N301 C303 1.356 . S
N301 H306 0.984 . S
N301 H307 0.975 1_565 S
C302 C296 1.379 . S
C302 C299 1.363 . S
C302 N300 1.356 . S
C303 C297 1.363 . S
C303 C298 1.379 . S
C303 N301 1.356 . S
N304 C296 1.356 . S
N304 H310 0.984 . S
N304 H311 0.984 . S
N305 C298 1.356 . S
N305 H308 0.984 . S
N305 H309 0.985 . S
H306 N301 0.984 . S
H307 N301 0.975 1_545 S
H308 N305 0.984 . S
H309 N305 0.985 . S
H310 N304 0.984 . S
H311 N304 0.984 . S
H312 N300 0.984 . S
H313 N300 0.985 . S
C314 C315 1.363 . S
C314 C320 1.379 . S
C314 N322 1.356 . S
C315 C314 1.363 . S
C315 C321 1.363 . S
C316 C317 1.363 . S
C316 C321 1.379 . S
C316 N323 1.356 . S
C317 C316 1.363 . S
C317 C320 1.363 . S
N318 C320 1.356 . S
N318 H330 0.984 . S
N318 H331 0.985 . S
N319 C321 1.356 . S
N319 H324 0.984 . S
N319 H325 0.985 . S
C320 C314 1.379 . S
C320 C317 1.363 . S
C320 N318 1.356 . S
C321 C315 1.363 . S
C321 C316 1.379 . S
C321 N319 1.356 . S
N322 C314 1.356 . S
N322 H328 0.984 . S
N322 H329 0.984 . S
N323 C316 1.356 . S
N323 H326 0.984 . S
N323 H327 0.985 . S
H324 N319 0.984 . S
H325 N319 0.985 . S
H326 N323 0.984 . S
H327 N323 0.985 . S
H328 N322 0.984 . S
H329 N322 0.984 . S
H330 N318 0.984 . S
H331 N318 0.985 . S
C332 C333 1.363 . S
C332 C338 1.379 . S
C332 N340 1.356 . S
C333 C332 1.363 . S
C333 C339 1.363 . S
C334 C335 1.363 . S
C334 C339 1.379 . S
C334 N341 1.356 . S
C335 C334 1.363 . S
C335 C338 1.363 . S
N336 C338 1.356 . S
N336 H348 0.984 . S
N336 H349 0.985 . S
N337 C339 1.356 . S
N337 H342 0.984 . S
N337 H343 0.985 . S
C338 C332 1.379 . S
C338 C335 1.363 . S
C338 N336 1.356 . S
C339 C333 1.363 . S
C339 C334 1.379 . S
C339 N337 1.356 . S
N340 C332 1.356 . S
N340 H346 0.984 . S
N340 H347 0.984 . S
N341 C334 1.356 . S
N341 H344 0.984 . S
N341 H345 0.985 . S
H342 N337 0.984 . S
H343 N337 0.985 . S
H344 N341 0.984 . S
H345 N341 0.985 . S
H346 N340 0.984 . S
H347 N340 0.984 . S
H348 N336 0.984 . S
H349 N336 0.985 . S
C350 C351 1.363 . S
C350 C356 1.379 . S
C350 N358 1.356 . S
C351 C350 1.363 . S
C351 C357 1.363 . S
C352 C353 1.363 . S
C352 C357 1.379 . S
C352 N359 1.356 . S
C353 C352 1.363 . S
C353 C356 1.363 . S
N354 C356 1.356 . S
N354 H366 0.984 . S
N354 H367 0.985 . S
N355 C357 1.356 . S
N355 H360 0.984 . S
N355 H361 0.985 1_655 S
C356 C350 1.379 . S
C356 C353 1.363 . S
C356 N354 1.356 . S
C357 C351 1.363 . S
C357 C352 1.379 . S
C357 N355 1.356 . S
N358 C350 1.356 . S
N358 H364 0.984 . S
N358 H365 0.984 . S
N359 C352 1.356 . S
N359 H362 0.984 . S
N359 H363 0.985 . S
H360 N355 0.984 . S
H361 N355 0.985 1_455 S
H362 N359 0.984 . S
H363 N359 0.985 . S
H364 N358 0.984 . S
H365 N358 0.984 . S
H366 N354 0.984 . S
H367 N354 0.985 . S
C368 C369 1.363 . S
C368 C374 1.379 . S
C368 N376 1.356 . S
C369 C368 1.363 . S
C369 C375 1.363 . S
C370 C371 1.363 . S
C370 C375 1.379 . S
C370 N377 1.356 . S
C371 C370 1.363 . S
C371 C374 1.363 . S
N372 C374 1.356 . S
N372 H384 0.984 . S
N372 H385 0.985 . S
N373 C375 1.356 1_545 S
N373 H378 0.984 . S
N373 H379 0.985 . S
C374 C368 1.379 . S
C374 C371 1.363 . S
C374 N372 1.356 . S
C375 C369 1.363 . S
C375 C370 1.379 . S
C375 N373 1.356 1_565 S
N376 C368 1.356 . S
N376 H382 0.984 . S
N376 H383 0.985 . S
N377 C370 1.356 . S
N377 H380 0.984 . S
N377 H381 0.985 . S
H378 N373 0.984 . S
H379 N373 0.985 . S
H380 N377 0.984 . S
H381 N377 0.985 . S
H382 N376 0.984 . S
H383 N376 0.985 . S
H384 N372 0.984 . S
H385 N372 0.985 . S
C386 C387 1.363 . S
C386 C392 1.379 . S
C386 N394 1.356 . S
C387 C386 1.363 . S
C387 C393 1.363 . S
C388 C389 1.363 . S
C388 C393 1.379 . S
C388 N395 1.356 . S
C389 C388 1.363 . S
C389 C392 1.363 . S
N390 C392 1.356 . S
N390 H402 0.984 . S
N390 H403 0.985 . S
N391 C393 1.356 . S
N391 H396 0.984 . S
N391 H397 0.985 . S
C392 C386 1.379 . S
C392 C389 1.363 . S
C392 N390 1.356 . S
C393 C387 1.363 . S
C393 C388 1.379 . S
C393 N391 1.356 . S
N394 C386 1.356 . S
N394 H400 0.984 . S
N394 H401 0.984 . S
N395 C388 1.356 . S
N395 H398 0.984 . S
N395 H399 0.985 . S
H396 N391 0.984 . S
H397 N391 0.985 . S
H398 N395 0.984 . S
H399 N395 0.985 . S
H400 N394 0.984 . S
H401 N394 0.984 . S
H402 N390 0.984 . S
H403 N390 0.985 . S
C404 C405 1.363 . S
C404 C410 1.379 . S
C404 N412 1.356 . S
C405 C404 1.363 . S
C405 C411 1.363 . S
C406 C407 1.363 . S
C406 C411 1.379 . S
C406 N413 1.356 . S
C407 C406 1.363 . S
C407 C410 1.363 . S
N408 C410 1.356 . S
N408 H420 0.984 . S
N408 H421 0.985 . S
N409 C411 1.356 . S
N409 H414 0.984 . S
N409 H415 0.985 . S
C410 C404 1.379 . S
C410 C407 1.363 . S
C410 N408 1.356 . S
C411 C405 1.363 . S
C411 C406 1.379 . S
C411 N409 1.356 . S
N412 C404 1.356 . S
N412 H418 0.984 . S
N412 H419 0.984 . S
N413 C406 1.356 . S
N413 H416 0.984 . S
N413 H417 0.985 . S
H414 N409 0.984 . S
H415 N409 0.985 . S
H416 N413 0.984 . S
H417 N413 0.985 . S
H418 N412 0.984 . S
H419 N412 0.984 . S
H420 N408 0.984 . S
H421 N408 0.985 . S
C422 C423 1.363 . S
C422 C428 1.379 . S
C422 N430 1.356 . S
C423 C422 1.363 . S
C423 C429 1.363 1_655 S
C424 C425 1.363 1_455 S
C424 C429 1.379 . S
C424 N431 1.356 . S
C425 C424 1.363 1_655 S
C425 C428 1.363 . S
N426 C428 1.356 . S
N426 H438 0.984 . S
N426 H439 0.985 . S
N427 C429 1.356 . S
N427 H432 0.984 . S
N427 H433 0.985 . S
C428 C422 1.379 . S
C428 C425 1.363 . S
C428 N426 1.356 . S
C429 C423 1.363 1_455 S
C429 C424 1.379 . S
C429 N427 1.356 . S
N430 C422 1.356 . S
N430 H436 0.984 . S
N430 H437 0.984 . S
N431 C424 1.356 . S
N431 H434 0.984 . S
N431 H435 0.985 . S
H432 N427 0.984 . S
H433 N427 0.985 . S
H434 N431 0.984 . S
H435 N431 0.985 . S
H436 N430 0.984 . S
H437 N430 0.984 . S
H438 N426 0.984 . S
H439 N426 0.985 . S
C440 C441 1.363 . S
C440 C446 1.379 . S
C440 N448 1.356 . S
C441 C440 1.363 . S
C441 C447 1.363 1_545 S
C442 C443 1.363 1_565 S
C442 C447 1.379 . S
C442 N449 1.356 . S
C443 C442 1.363 1_545 S
C443 C446 1.363 . S
N444 C446 1.356 . S
N444 H456 0.984 . S
N444 H457 0.985 . S
N445 C447 1.356 . S
N445 H450 0.984 . S
N445 H451 0.985 . S
C446 C440 1.379 . S
C446 C443 1.363 . S
C446 N444 1.356 . S
C447 C441 1.363 1_565 S
C447 C442 1.379 . S
C447 N445 1.356 . S
N448 C440 1.356 . S
N448 H454 0.984 . S
N448 H455 0.984 . S
N449 C442 1.356 . S
N449 H452 0.984 . S
N449 H453 0.985 . S
H450 N445 0.984 . S
H451 N445 0.985 . S
H452 N449 0.984 . S
H453 N449 0.985 . S
H454 N448 0.984 . S
H455 N448 0.984 . S
H456 N444 0.984 . S
H457 N444 0.985 . S
C458 C459 1.363 . S
C458 C464 1.379 . S
C458 N466 1.356 . S
C459 C458 1.363 . S
C459 C465 1.363 . S
C460 C461 1.363 . S
C460 C465 1.379 . S
C460 N467 1.356 . S
C461 C460 1.363 . S
C461 C464 1.363 . S
N462 C464 1.356 . S
N462 H474 0.984 . S
N462 H475 0.985 . S
N463 C465 1.356 . S
N463 H468 0.984 . S
N463 H469 0.985 . S
C464 C458 1.379 . S
C464 C461 1.363 . S
C464 N462 1.356 . S
C465 C459 1.363 . S
C465 C460 1.379 . S
C465 N463 1.356 . S
N466 C458 1.356 . S
N466 H472 0.984 . S
N466 H473 0.984 . S
N467 C460 1.356 . S
N467 H470 0.984 . S
N467 H471 0.985 . S
H468 N463 0.984 . S
H469 N463 0.985 . S
H470 N467 0.984 . S
H471 N467 0.985 . S
H472 N466 0.984 . S
H473 N466 0.984 . S
H474 N462 0.984 . S
H475 N462 0.985 . S
C476 C477 1.363 . S
C476 C482 1.379 . S
C476 N484 1.356 . S
C477 C476 1.363 . S
C477 C483 1.363 . S
C478 C479 1.363 . S
C478 C483 1.379 . S
C478 N485 1.356 . S
C479 C478 1.363 . S
C479 C482 1.363 . S
N480 C482 1.356 . S
N480 H492 0.984 . S
N480 H493 0.985 . S
N481 C483 1.356 . S
N481 H486 0.984 . S
N481 H487 0.985 . S
C482 C476 1.379 . S
C482 C479 1.363 . S
C482 N480 1.356 . S
C483 C477 1.363 . S
C483 C478 1.379 . S
C483 N481 1.356 . S
N484 C476 1.356 . S
N484 H490 0.984 . S
N484 H491 0.984 . S
N485 C478 1.356 . S
N485 H488 0.984 . S
N485 H489 0.985 . S
H486 N481 0.984 . S
H487 N481 0.985 . S
H488 N485 0.984 . S
H489 N485 0.985 . S
H490 N484 0.984 . S
H491 N484 0.984 . S
H492 N480 0.984 . S
H493 N480 0.985 . S
C494 C495 1.363 1_655 S
C494 C500 1.379 1_655 S
C494 N502 1.356 . S
C495 C494 1.363 1_455 S
C495 C501 1.363 . S
C496 C497 1.363 . S
C496 C501 1.379 . S
C496 N503 1.356 . S
C497 C496 1.363 . S
C497 C500 1.363 . S
N498 C500 1.356 1_655 S
N498 H510 0.984 . S
N498 H511 0.985 1_655 S
N499 C501 1.356 . S
N499 H504 0.984 . S
N499 H505 0.985 . S
C500 C494 1.379 1_455 S
C500 C497 1.363 . S
C500 N498 1.356 1_455 S
C501 C495 1.363 . S
C501 C496 1.379 . S
C501 N499 1.356 . S
N502 C494 1.356 . S
N502 H508 0.984 . S
N502 H509 0.984 . S
N503 C496 1.356 . S
N503 H506 0.984 . S
N503 H507 0.985 . S
H504 N499 0.984 . S
H505 N499 0.985 . S
H506 N503 0.984 . S
H507 N503 0.985 . S
H508 N502 0.984 . S
H509 N502 0.984 . S
H510 N498 0.984 . S
H511 N498 0.985 1_455 S
C512 C513 1.363 1_565 S
C512 C518 1.379 . S
C512 N520 1.356 . S
C513 C512 1.363 1_545 S
C513 C519 1.363 . S
C514 C515 1.363 . S
C514 C519 1.379 . S
C514 N521 1.356 . S
C515 C514 1.363 . S
C515 C518 1.363 1_545 S
N516 C518 1.356 . S
N516 H528 0.984 . S
N516 H529 0.985 . S
N517 C519 1.356 . S
N517 H522 0.984 . S
N517 H523 0.985 . S
C518 C512 1.379 . S
C518 C515 1.363 1_565 S
C518 N516 1.356 . S
C519 C513 1.363 . S
C519 C514 1.379 . S
C519 N517 1.356 . S
N520 C512 1.356 . S
N520 H526 0.984 . S
N520 H527 0.984 . S
N521 C514 1.356 . S
N521 H524 0.984 . S
N521 H525 0.985 . S
H522 N517 0.984 . S
H523 N517 0.985 . S
H524 N521 0.984 . S
H525 N521 0.985 . S
H526 N520 0.984 . S
H527 N520 0.984 . S
H528 N516 0.984 . S
H529 N516 0.985 . S
C530 C531 1.363 . S
C530 C536 1.379 . S
C530 N538 1.356 . S
C531 C530 1.363 . S
C531 C537 1.363 . S
C532 C533 1.363 . S
C532 C537 1.379 . S
C532 N539 1.356 . S
C533 C532 1.363 . S
C533 C536 1.363 . S
N534 C536 1.356 . S
N534 H546 0.984 . S
N534 H547 0.985 . S
N535 C537 1.356 . S
N535 H540 0.984 . S
N535 H541 0.985 . S
C536 C530 1.379 . S
C536 C533 1.363 . S
C536 N534 1.356 . S
C537 C531 1.363 . S
C537 C532 1.379 . S
C537 N535 1.356 . S
N538 C530 1.356 . S
N538 H544 0.984 . S
N538 H545 0.984 . S
N539 C532 1.356 . S
N539 H542 0.984 1_554 S
N539 H543 0.985 . S
H540 N535 0.984 . S
H541 N535 0.985 . S
H542 N539 0.984 1_556 S
H543 N539 0.985 . S
H544 N538 0.984 . S
H545 N538 0.984 . S
H546 N534 0.984 . S
H547 N534 0.985 . S
C548 C549 1.363 . S
C548 C554 1.379 . S
C548 N556 1.356 . S
C549 C548 1.363 . S
C549 C555 1.363 . S
C550 C551 1.363 . S
C550 C555 1.379 . S
C550 N557 1.356 . S
C551 C550 1.363 . S
C551 C554 1.363 . S
N552 C554 1.356 . S
N552 H564 0.984 . S
N552 H565 0.985 . S
N553 C555 1.356 . S
N553 H558 0.984 . S
N553 H559 0.985 . S
C554 C548 1.379 . S
C554 C551 1.363 . S
C554 N552 1.356 . S
C555 C549 1.363 . S
C555 C550 1.379 . S
C555 N553 1.356 . S
N556 C548 1.356 . S
N556 H562 0.984 . S
N556 H563 0.984 . S
N557 C550 1.356 . S
N557 H560 0.984 . S
N557 H561 0.985 . S
H558 N553 0.984 . S
H559 N553 0.985 . S
H560 N557 0.984 . S
H561 N557 0.985 . S
H562 N556 0.984 . S
H563 N556 0.984 . S
H564 N552 0.984 . S
H565 N552 0.985 . S
C566 C567 1.363 . S
C566 C572 1.379 . S
C566 N574 1.356 . S
C567 C566 1.363 . S
C567 C573 1.363 1_455 S
C568 C569 1.363 . S
C568 C573 1.379 1_455 S
C568 N575 1.355 1_455 S
C569 C568 1.363 . S
C569 C572 1.363 . S
N570 C572 1.356 . S
N570 H582 0.984 . S
N570 H583 0.985 . S
N571 C573 1.356 . S
N571 H576 0.984 . S
N571 H577 0.985 . S
C572 C566 1.379 . S
C572 C569 1.363 . S
C572 N570 1.356 . S
C573 C567 1.363 1_655 S
C573 C568 1.379 1_655 S
C573 N571 1.356 . S
N574 C566 1.356 . S
N574 H580 0.984 . S
N574 H581 0.984 1_554 S
N575 C568 1.355 1_655 S
N575 H578 0.980 1_655 S
N575 H579 0.990 . S
H576 N571 0.984 . S
H577 N571 0.985 . S
H578 N575 0.980 1_455 S
H579 N575 0.990 . S
H580 N574 0.984 . S
H581 N574 0.984 1_556 S
H582 N570 0.984 . S
H583 N570 0.985 . S
C584 C585 1.363 . S
C584 C590 1.379 . S
C584 N592 1.356 . S
C585 C584 1.363 . S
C585 C591 1.363 . S
C586 C587 1.363 1_545 S
C586 C591 1.379 1_545 S
C586 N593 1.356 . S
C587 C586 1.363 1_565 S
C587 C590 1.363 . S
N588 C590 1.356 . S
N588 H600 0.984 . S
N588 H601 0.985 . S
N589 C591 1.356 . S
N589 H594 0.984 . S
N589 H595 0.985 1_565 S
C590 C584 1.379 . S
C590 C587 1.363 . S
C590 N588 1.356 . S
C591 C585 1.363 . S
C591 C586 1.379 1_565 S
C591 N589 1.356 . S
N592 C584 1.356 . S
N592 H598 0.984 . S
N592 H599 0.984 . S
N593 C586 1.356 . S
N593 H596 0.984 . S
N593 H597 0.985 . S
H594 N589 0.984 . S
H595 N589 0.985 1_545 S
H596 N593 0.984 . S
H597 N593 0.985 . S
H598 N592 0.984 . S
H599 N592 0.984 . S
H600 N588 0.984 . S
H601 N588 0.985 . S
C602 C603 1.363 . S
C602 C608 1.379 . S
C602 N610 1.356 . S
C603 C602 1.363 . S
C603 C609 1.363 . S
C604 C605 1.363 . S
C604 C609 1.379 . S
C604 N611 1.356 . S
C605 C604 1.363 . S
C605 C608 1.363 . S
N606 C608 1.356 . S
N606 H618 0.984 . S
N606 H619 0.985 . S
N607 C609 1.356 . S
N607 H612 0.984 . S
N607 H613 0.985 . S
C608 C602 1.379 . S
C608 C605 1.363 . S
C608 N606 1.356 . S
C609 C603 1.363 . S
C609 C604 1.379 . S
C609 N607 1.356 . S
N610 C602 1.356 . S
N610 H616 0.984 . S
N610 H617 0.984 . S
N611 C604 1.356 . S
N611 H614 0.984 . S
N611 H615 0.985 . S
H612 N607 0.984 . S
H613 N607 0.985 . S
H614 N611 0.984 . S
H615 N611 0.985 . S
H616 N610 0.984 . S
H617 N610 0.984 . S
H618 N606 0.984 . S
H619 N606 0.985 . S
C620 C621 1.363 . S
C620 C626 1.379 . S
C620 N628 1.356 . S
C621 C620 1.363 . S
C621 C627 1.363 . S
C622 C623 1.363 . S
C622 C627 1.379 . S
C622 N629 1.356 . S
C623 C622 1.363 . S
C623 C626 1.363 . S
N624 C626 1.356 . S
N624 H636 0.984 . S
N624 H637 0.985 . S
N625 C627 1.356 . S
N625 H630 0.984 . S
N625 H631 0.985 . S
C626 C620 1.379 . S
C626 C623 1.363 . S
C626 N624 1.356 . S
C627 C621 1.363 . S
C627 C622 1.379 . S
C627 N625 1.356 . S
N628 C620 1.356 . S
N628 H634 0.984 . S
N628 H635 0.984 . S
N629 C622 1.356 . S
N629 H632 0.984 . S
N629 H633 0.985 . S
H630 N625 0.984 . S
H631 N625 0.985 . S
H632 N629 0.984 . S
H633 N629 0.985 . S
H634 N628 0.984 . S
H635 N628 0.984 . S
H636 N624 0.984 . S
H637 N624 0.985 . S
C638 C639 1.363 . S
C638 C644 1.379 1_655 S
C638 N646 1.356 1_655 S
C639 C638 1.363 . S
C639 C645 1.363 . S
C640 C641 1.363 . S
C640 C645 1.379 . S
C640 N647 1.356 . S
C641 C640 1.363 . S
C641 C644 1.363 1_655 S
N642 C644 1.356 . S
N642 H654 0.984 . S
N642 H655 0.985 . S
N643 C645 1.356 . S
N643 H648 0.984 . S
N643 H649 0.985 . S
C644 C638 1.379 1_455 S
C644 C641 1.363 1_455 S
C644 N642 1.356 . S
C645 C639 1.363 . S
C645 C640 1.379 . S
C645 N643 1.356 . S
N646 C638 1.356 1_455 S
N646 H652 0.984 . S
N646 H653 0.984 1_455 S
N647 C640 1.356 . S
N647 H650 0.984 . S
N647 H651 0.985 . S
H648 N643 0.984 . S
H649 N643 0.985 . S
H650 N647 0.984 . S
H651 N647 0.985 . S
H652 N646 0.984 . S
H653 N646 0.984 1_655 S
H654 N642 0.984 . S
H655 N642 0.985 . S
C656 C657 1.363 1_554 S
C656 C662 1.379 . S
C656 N664 1.356 . S
C657 C656 1.363 1_556 S
C657 C663 1.363 1_545 S
C658 C659 1.363 1_556 S
C658 C663 1.379 . S
C658 N665 1.356 . S
C659 C658 1.363 1_554 S
C659 C662 1.363 1_565 S
N660 C662 1.356 . S
N660 H672 0.984 . S
N660 H673 0.985 1_545 S
N661 C663 1.356 . S
N661 H666 0.984 1_565 S
N661 H667 0.985 . S
C662 C656 1.379 . S
C662 C659 1.363 1_545 S
C662 N660 1.356 . S
C663 C657 1.363 1_565 S
C663 C658 1.379 . S
C663 N661 1.356 . S
N664 C656 1.356 . S
N664 H670 0.984 . S
N664 H671 0.984 . S
N665 C658 1.356 . S
N665 H668 0.984 . S
N665 H669 0.985 . S
H666 N661 0.984 1_545 S
H667 N661 0.985 . S
H668 N665 0.984 . S
H669 N665 0.985 . S
H670 N664 0.984 . S
H671 N664 0.984 . S
H672 N660 0.984 . S
H673 N660 0.985 1_565 S
C674 C675 1.363 1_554 S
C674 C680 1.379 . S
C674 N682 1.356 . S
C675 C674 1.363 1_556 S
C675 C681 1.363 . S
C676 C677 1.363 1_556 S
C676 C681 1.379 . S
C676 N683 1.356 . S
C677 C676 1.363 1_554 S
C677 C680 1.363 . S
N678 C680 1.356 . S
N678 H690 0.984 . S
N678 H691 0.985 . S
N679 C681 1.356 . S
N679 H684 0.984 . S
N679 H685 0.985 . S
C680 C674 1.379 . S
C680 C677 1.363 . S
C680 N678 1.356 . S
C681 C675 1.363 . S
C681 C676 1.379 . S
C681 N679 1.356 . S
N682 C674 1.356 . S
N682 H688 0.984 . S
N682 H689 0.984 . S
N683 C676 1.356 . S
N683 H686 0.984 . S
N683 H687 0.985 . S
H684 N679 0.984 . S
H685 N679 0.985 . S
H686 N683 0.984 . S
H687 N683 0.985 . S
H688 N682 0.984 . S
H689 N682 0.984 . S
H690 N678 0.984 . S
H691 N678 0.985 . S
C692 C693 1.363 1_556 S
C692 C698 1.379 1_655 S
C692 N700 1.356 . S
C693 C692 1.363 1_554 S
C693 C699 1.363 . S
C694 C695 1.363 1_554 S
C694 C699 1.379 1_455 S
C694 N701 1.356 . S
C695 C694 1.363 1_556 S
C695 C698 1.363 . S
N696 C698 1.356 . S
N696 H708 0.984 . S
N696 H709 0.985 . S
N697 C699 1.356 . S
N697 H702 0.984 . S
N697 H703 0.985 . S
C698 C692 1.379 1_455 S
C698 C695 1.363 . S
C698 N696 1.356 . S
C699 C693 1.363 . S
C699 C694 1.379 1_655 S
C699 N697 1.356 . S
N700 C692 1.356 . S
N700 H706 0.984 . S
N700 H707 0.984 . S
N701 C694 1.356 . S
N701 H704 0.984 . S
N701 H705 0.985 . S
H702 N697 0.984 . S
H703 N697 0.985 . S
H704 N701 0.984 . S
H705 N701 0.985 . S
H706 N700 0.984 . S
H707 N700 0.984 . S
H708 N696 0.984 . S
H709 N696 0.985 . S
C710 C711 1.363 1_655 S
C710 C716 1.379 1_545 S
C710 N718 1.356 . S
C711 C710 1.363 1_455 S
C711 C717 1.363 1_556 S
C712 C713 1.363 1_455 S
C712 C717 1.379 1_565 S
C712 N719 1.356 . S
C713 C712 1.363 1_655 S
C713 C716 1.363 1_554 S
N714 C716 1.356 . S
N714 H726 0.984 . S
N714 H727 0.985 . S
N715 C717 1.356 . S
N715 H720 0.984 . S
N715 H721 0.985 . S
C716 C710 1.379 1_565 S
C716 C713 1.363 1_556 S
C716 N714 1.356 . S
C717 C711 1.363 1_554 S
C717 C712 1.379 1_545 S
C717 N715 1.356 . S
N718 C710 1.356 . S
N718 H724 0.984 . S
N718 H725 0.984 1_655 S
N719 C712 1.356 . S
N719 H722 0.984 1_455 S
N719 H723 0.985 . S
H720 N715 0.984 . S
H721 N715 0.985 . S
H722 N719 0.984 1_655 S
H723 N719 0.985 . S
H724 N718 0.984 . S
H725 N718 0.984 1_455 S
H726 N714 0.984 . S
H727 N714 0.985 . S
C728 C729 1.380 . S
C728 C734 1.362 1_455 S
C728 N736 1.362 . S
C729 C728 1.380 . S
C729 C735 1.363 1_545 S
C730 C731 1.380 . S
C730 C735 1.362 1_655 S
C730 N737 1.362 . S
C731 C730 1.380 . S
C731 C734 1.363 1_565 S
N732 C734 1.356 . S
N732 H744 0.984 . S
N732 H745 0.985 1_545 S
N733 C735 1.356 . S
N733 H738 0.984 1_565 S
N733 H739 0.985 . S
C734 C728 1.362 1_655 S
C734 C731 1.363 1_545 S
C734 N732 1.356 . S
C735 C729 1.363 1_565 S
C735 C730 1.362 1_455 S
C735 N733 1.356 . S
N736 C728 1.362 . S
N736 H742 0.984 1_455 S
N736 H743 0.984 . S
N737 C730 1.362 . S
N737 H740 0.984 . S
N737 H741 0.985 1_655 S
H738 N733 0.984 1_545 S
H739 N733 0.985 . S
H740 N737 0.984 . S
H741 N737 0.985 1_455 S
H742 N736 0.984 1_655 S
H743 N736 0.984 . S
H744 N732 0.984 . S
H745 N732 0.985 1_565 S
C746 C747 1.363 . S
C746 C752 1.379 1_565 S
C746 N754 1.356 . S
C747 C746 1.363 . S
C747 C753 1.363 . S
C748 C749 1.363 . S
C748 C753 1.379 1_545 S
C748 N755 1.356 . S
C749 C748 1.363 . S
C749 C752 1.363 . S
N750 C752 1.356 . S
N750 H762 0.984 . S
N750 H763 0.985 . S
N751 C753 1.356 . S
N751 H756 0.984 . S
N751 H757 0.985 . S
C752 C746 1.379 1_545 S
C752 C749 1.363 . S
C752 N750 1.356 . S
C753 C747 1.363 . S
C753 C748 1.379 1_565 S
C753 N751 1.356 . S
N754 C746 1.356 . S
N754 H760 0.984 . S
N754 H761 0.984 . S
N755 C748 1.356 . S
N755 H758 0.984 . S
N755 H759 0.985 . S
H756 N751 0.984 . S
H757 N751 0.985 . S
H758 N755 0.984 . S
H759 N755 0.985 . S
H760 N754 0.984 . S
H761 N754 0.984 . S
H762 N750 0.984 . S
H763 N750 0.985 . S
C764 C765 1.363 . S
C764 C770 1.379 . S
C764 N772 1.356 . S
C765 C764 1.363 . S
C765 C771 1.363 . S
C766 C767 1.363 . S
C766 C771 1.379 . S
C766 N773 1.356 . S
C767 C766 1.363 . S
C767 C770 1.363 . S
N768 C770 1.356 . S
N768 H780 0.984 . S
N768 H781 0.985 . S
N769 C771 1.356 . S
N769 H774 0.984 . S
N769 H775 0.985 . S
C770 C764 1.379 . S
C770 C767 1.363 . S
C770 N768 1.356 . S
C771 C765 1.363 . S
C771 C766 1.379 . S
C771 N769 1.356 . S
N772 C764 1.356 . S
N772 H778 0.984 . S
N772 H779 0.984 . S
N773 C766 1.356 . S
N773 H776 0.984 . S
N773 H777 0.985 . S
H774 N769 0.984 . S
H775 N769 0.985 . S
H776 N773 0.984 . S
H777 N773 0.985 . S
H778 N772 0.984 . S
H779 N772 0.984 . S
H780 N768 0.984 . S
H781 N768 0.985 . S
C782 C783 1.363 . S
C782 C788 1.379 . S
C782 N790 1.356 . S
C783 C782 1.363 . S
C783 C789 1.363 1_655 S
C784 C785 1.363 . S
C784 C789 1.379 . S
C784 N791 1.356 . S
C785 C784 1.363 . S
C785 C788 1.363 1_455 S
N786 C788 1.356 . S
N786 H798 0.984 . S
N786 H799 0.985 1_655 S
N787 C789 1.356 . S
N787 H792 0.984 1_455 S
N787 H793 0.985 . S
C788 C782 1.379 . S
C788 C785 1.363 1_655 S
C788 N786 1.356 . S
C789 C783 1.363 1_455 S
C789 C784 1.379 . S
C789 N787 1.356 . S
N790 C782 1.356 . S
N790 H796 0.984 . S
N790 H797 0.984 . S
N791 C784 1.356 . S
N791 H794 0.984 . S
N791 H795 0.985 . S
H792 N787 0.984 1_655 S
H793 N787 0.985 . S
H794 N791 0.984 . S
H795 N791 0.985 . S
H796 N790 0.984 . S
H797 N790 0.984 . S
H798 N786 0.984 . S
H799 N786 0.985 1_455 S
C225 C79 0.605 . S
C227 C9 0.617 . S
C243 C93 0.632 . S
C245 C23 0.632 . S
C261 C37 0.605 . S
C263 C107 0.617 . S
C279 C51 0.601 . S
C281 C65 0.598 . S
C297 C121 0.620 . S
C299 C191 0.605 . S
C315 C205 0.632 . S
C317 C135 0.632 . S
C333 C219 0.620 . S
C335 C149 0.605 . S
C351 C163 0.601 . S
C353 C177 0.598 . S
C369 C8 1.660 1_565 S
C371 C175 1.559 . S
C387 C189 1.609 . S
C389 C22 1.725 . S
C405 C36 1.707 . S
C407 C203 1.610 . S
C423 C50 1.668 1_655 S
C425 C217 1.575 . S
C441 C64 1.668 1_545 S
C443 C119 1.575 . S
C459 C78 1.707 . S
C461 C133 1.610 . S
C477 C92 1.725 . S
C479 C147 1.609 . S
C495 C106 1.660 1_455 S
C497 C161 1.560 . S
C513 C63 1.559 . S
C515 C120 1.660 1_545 S
C531 C77 1.609 . S
C533 C134 1.725 . S
C549 C91 1.610 . S
C551 C148 1.707 . S
C567 C162 1.668 1_455 S
C569 C105 1.575 . S
C585 C7 1.575 . S
C587 C176 1.668 1_565 S
C603 C190 1.707 . S
C605 C21 1.610 . S
C621 C204 1.725 . S
C623 C35 1.609 . S
C639 C49 1.560 . S
C641 C218 1.660 1_655 S
C657 C115 1.712 . S
C659 C3 1.711 . S
C675 C129 1.778 . S
C677 C17 1.778 . S
C693 C31 1.881 . S
C695 C143 1.881 . S
C711 C157 1.764 . S
C713 C45 1.763 . S
C729 C59 1.764 . S
C731 C171 1.763 . S
C747 C185 1.881 . S
C749 C73 1.881 . S
C765 C199 1.777 . S
C767 C87 1.777 . S
C783 C213 1.713 . S
C785 C101 1.712 . S
