# Generated by pormake.
# Topology ukf, (4)-cn, num edge types: 1
# Building blocks:
#     Node 0, Type 0, BuildingBlock: QUQFOY_clean_sbu_3, # of connection points: 4
#     Node 1, Type 0, BuildingBlock: QUQFOY_clean_sbu_3, # of connection points: 4
#     Node 2, Type 0, BuildingBlock: QUQFOY_clean_sbu_3, # of connection points: 4
#     Node 3, Type 0, BuildingBlock: QUQFOY_clean_sbu_3, # of connection points: 4
#     Node 4, Type 0, BuildingBlock: QUQFOY_clean_sbu_3, # of connection points: 4
#     Node 5, Type 0, BuildingBlock: QUQFOY_clean_sbu_3, # of connection points: 4
#     Node 6, Type 0, BuildingBlock: QUQFOY_clean_sbu_3, # of connection points: 4
#     Node 7, Type 0, BuildingBlock: QUQFOY_clean_sbu_3, # of connection points: 4
#     Node 8, Type 0, BuildingBlock: QUQFOY_clean_sbu_3, # of connection points: 4
#     Node 9, Type 0, BuildingBlock: QUQFOY_clean_sbu_3, # of connection points: 4
#     Node 10, Type 0, BuildingBlock: QUQFOY_clean_sbu_3, # of connection points: 4
#     Node 11, Type 0, BuildingBlock: QUQFOY_clean_sbu_3, # of connection points: 4
#     Edge 12, Type (0, 0), BuildingBlock: TEMPAE_clean_linker_10, # of connection points: 2
#     Edge 13, Type (0, 0), BuildingBlock: TEMPAE_clean_linker_10, # of connection points: 2
#     Edge 14, Type (0, 0), BuildingBlock: TEMPAE_clean_linker_10, # of connection points: 2
#     Edge 15, Type (0, 0), BuildingBlock: TEMPAE_clean_linker_10, # of connection points: 2
#     Edge 16, Type (0, 0), BuildingBlock: TEMPAE_clean_linker_10, # of connection points: 2
#     Edge 17, Type (0, 0), BuildingBlock: TEMPAE_clean_linker_10, # of connection points: 2
#     Edge 18, Type (0, 0), BuildingBlock: TEMPAE_clean_linker_10, # of connection points: 2
#     Edge 19, Type (0, 0), BuildingBlock: TEMPAE_clean_linker_10, # of connection points: 2
#     Edge 20, Type (0, 0), BuildingBlock: TEMPAE_clean_linker_10, # of connection points: 2
#     Edge 21, Type (0, 0), BuildingBlock: TEMPAE_clean_linker_10, # of connection points: 2
#     Edge 22, Type (0, 0), BuildingBlock: TEMPAE_clean_linker_10, # of connection points: 2
#     Edge 23, Type (0, 0), BuildingBlock: TEMPAE_clean_linker_10, # of connection points: 2
#     Edge 24, Type (0, 0), BuildingBlock: TEMPAE_clean_linker_10, # of connection points: 2
#     Edge 25, Type (0, 0), BuildingBlock: TEMPAE_clean_linker_10, # of connection points: 2
#     Edge 26, Type (0, 0), BuildingBlock: TEMPAE_clean_linker_10, # of connection points: 2
#     Edge 27, Type (0, 0), BuildingBlock: TEMPAE_clean_linker_10, # of connection points: 2
#     Edge 28, Type (0, 0), BuildingBlock: TEMPAE_clean_linker_10, # of connection points: 2
#     Edge 29, Type (0, 0), BuildingBlock: TEMPAE_clean_linker_10, # of connection points: 2
#     Edge 30, Type (0, 0), BuildingBlock: TEMPAE_clean_linker_10, # of connection points: 2
#     Edge 31, Type (0, 0), BuildingBlock: TEMPAE_clean_linker_10, # of connection points: 2
#     Edge 32, Type (0, 0), BuildingBlock: TEMPAE_clean_linker_10, # of connection points: 2
#     Edge 33, Type (0, 0), BuildingBlock: TEMPAE_clean_linker_10, # of connection points: 2
#     Edge 34, Type (0, 0), BuildingBlock: TEMPAE_clean_linker_10, # of connection points: 2
#     Edge 35, Type (0, 0), BuildingBlock: TEMPAE_clean_linker_10, # of connection points: 2
# Relax obj value: 0.130
# Max RMSD: 0.097
# Mean RMSD: 0.097
data_MOF--net-ukf--node1-QUQFOY_clean_sbu_3--edge1-TEMPAE_clean_linker_10
_symmetry_space_group_name_H-M    P1
_symmetry_Int_Tables_number       1
_symmetry_cell_setting            triclinic
loop_
_symmetry_equiv_pos_as_xyz
'x, y, z'
_cell_length_a     32.077658
_cell_length_b     32.073946
_cell_length_c     69.095387
_cell_angle_alpha  89.974556
_cell_angle_beta   90.011687
_cell_angle_gamma 119.94557
loop_
_atom_site_label
_atom_site_type_symbol
_atom_site_fract_x
_atom_site_fract_y
_atom_site_fract_z
_atom_type_partial_charge
C0 C 0.26804 0.14504 0.01852 0.0
O1 O 0.28178 0.17714 0.0055 0.0
Cd2 Cd 0.36127 0.24706 0.00704 0.0
O3 O 0.29529 0.15056 0.0328 0.0
Cd4 Cd 0.37236 0.20858 0.04679 0.0
C5 C 0.43525 0.19814 0.01006 0.0
O6 O 0.37523 0.28405 0.03834 0.0
O7 O 0.44092 0.28789 0.04867 0.0
O8 O 0.33314 0.19857 0.07774 0.0
C9 C 0.41853 0.3096 0.04394 0.0
O10 O 0.42107 0.22269 0.00046 0.0
C11 C 0.35965 0.18654 0.087 0.0
O12 O 0.42003 0.18419 0.02721 0.0
O13 O 0.39143 0.18296 0.07733 0.0
C14 C 0.12519 0.28042 0.36616 0.0
O15 O 0.10443 0.29588 0.355 0.0
Cd16 Cd 0.10346 0.36912 0.36104 0.0
O17 O 0.14396 0.30179 0.38202 0.0
Cd18 Cd 0.15329 0.36884 0.40213 0.0
C19 C 0.22534 0.44773 0.36794 0.0
O20 O 0.07877 0.36558 0.39366 0.0
O21 O 0.13031 0.42893 0.40915 0.0
O22 O 0.12721 0.31875 0.43098 0.0
C23 C 0.08916 0.40542 0.40138 0.0
O24 O 0.18719 0.43411 0.358 0.0
C25 C 0.1644 0.34602 0.44085 0.0
O26 O 0.22398 0.42797 0.38413 0.0
O27 O 0.19743 0.38292 0.43235 0.0
C28 C 0.83406 0.12928 0.67352 0.0
O29 O 0.80392 0.12108 0.66011 0.0
Cd30 Cd 0.73204 0.12549 0.66528 0.0
O31 O 0.82917 0.14339 0.69011 0.0
Cd32 Cd 0.77395 0.16262 0.70694 0.0
C33 C 0.78011 0.24554 0.67489 0.0
O34 O 0.69944 0.09227 0.69643 0.0
O35 O 0.69346 0.1478 0.71186 0.0
O36 O 0.78527 0.12805 0.73641 0.0
C37 C 0.67288 0.10605 0.70452 0.0
O38 O 0.75426 0.20987 0.66395 0.0
C39 C 0.79838 0.16521 0.74675 0.0
O40 O 0.79626 0.23945 0.69086 0.0
O41 O 0.80208 0.20214 0.73833 0.0
C42 C 0.6971 0.83069 0.02729 0.0
O43 O 0.6826 0.79526 0.01578 0.0
Cd44 Cd 0.60916 0.72051 0.02035 0.0
O45 O 0.67436 0.82713 0.04288 0.0
Cd46 Cd 0.60518 0.76693 0.06151 0.0
C47 C 0.5286 0.7616 0.02663 0.0
O48 O 0.61008 0.69643 0.05274 0.0
O49 O 0.54478 0.68373 0.06702 0.0
O50 O 0.65082 0.78646 0.09142 0.0
C51 C 0.56955 0.6667 0.0599 0.0
O52 O 0.54351 0.73816 0.01667 0.0
C53 C 0.6227 0.79599 0.1009 0.0
O54 O 0.54699 0.77903 0.04309 0.0
O55 O 0.5876 0.79436 0.0917 0.0
C56 C 0.8889 0.72151 0.34972 0.0
O57 O 0.90484 0.70517 0.33673 0.0
Cd58 Cd 0.89266 0.62471 0.34029 0.0
O59 O 0.86788 0.69615 0.3645 0.0
Cd60 Cd 0.84596 0.61976 0.37968 0.0
C61 C 0.76998 0.55446 0.34408 0.0
O62 O 0.91655 0.61235 0.37188 0.0
O63 O 0.8531 0.54942 0.38302 0.0
O64 O 0.87601 0.6613 0.41022 0.0
C65 C 0.89713 0.56959 0.37836 0.0
O66 O 0.80796 0.56586 0.33437 0.0
C67 C 0.83695 0.63698 0.41944 0.0
O68 O 0.77274 0.57236 0.3608 0.0
O69 O 0.80124 0.60522 0.40995 0.0
C70 C 0.15256 0.87692 0.68923 0.0
O71 O 0.1852 0.8929 0.67637 0.0
Cd72 Cd 0.25535 0.88445 0.67844 0.0
O73 O 0.15672 0.8571 0.70451 0.0
Cd74 Cd 0.21446 0.83977 0.72055 0.0
C75 C 0.20537 0.76194 0.68552 0.0
O76 O 0.28702 0.91095 0.71003 0.0
O77 O 0.29627 0.8554 0.72366 0.0
O78 O 0.20334 0.86952 0.75134 0.0
C79 C 0.31525 0.89717 0.71636 0.0
O80 O 0.22983 0.79878 0.67488 0.0
C81 C 0.19112 0.83087 0.76058 0.0
O82 O 0.19197 0.7663 0.70239 0.0
O83 O 0.18802 0.79569 0.75095 0.0
C84 C 0.83732 0.71613 0.63659 0.0
O85 O 0.80233 0.69974 0.64838 0.0
Cd86 Cd 0.73167 0.62253 0.64407 0.0
O87 O 0.83515 0.69308 0.62127 0.0
Cd88 Cd 0.77909 0.62081 0.60325 0.0
C89 C 0.78111 0.54895 0.63868 0.0
O90 O 0.70671 0.62212 0.61158 0.0
O91 O 0.69639 0.55741 0.59768 0.0
O92 O 0.79962 0.66659 0.5733 0.0
C93 C 0.67798 0.58122 0.60451 0.0
O94 O 0.75533 0.56113 0.64857 0.0
C95 C 0.81013 0.63887 0.56407 0.0
O96 O 0.79722 0.56755 0.62213 0.0
O97 O 0.808 0.60367 0.57337 0.0
C98 C 0.12405 0.81846 0.97721 0.0
O99 O 0.10157 0.78227 0.98823 0.0
Cd100 Cd 0.10653 0.71071 0.98254 0.0
O101 O 0.14598 0.81614 0.96229 0.0
Cd102 Cd 0.15962 0.75991 0.94339 0.0
C103 C 0.22933 0.75623 0.97901 0.0
O104 O 0.08347 0.68711 0.94964 0.0
O105 O 0.13966 0.6783 0.9363 0.0
O106 O 0.13574 0.78586 0.91463 0.0
C107 C 0.09628 0.65952 0.9418 0.0
O108 O 0.19021 0.7309 0.98827 0.0
C109 C 0.1733 0.79612 0.90497 0.0
O110 O 0.22917 0.77411 0.96257 0.0
O111 O 0.2057 0.79123 0.91352 0.0
C112 C 0.30237 0.14436 0.30603 0.0
O113 O 0.31969 0.12676 0.31789 0.0
Cd114 Cd 0.39558 0.13092 0.31322 0.0
O115 O 0.32377 0.16322 0.29017 0.0
Cd116 Cd 0.39416 0.17471 0.27151 0.0
C117 C 0.47046 0.25262 0.3048 0.0
O118 O 0.39118 0.10103 0.28143 0.0
O119 O 0.45535 0.15195 0.26615 0.0
O120 O 0.34547 0.14545 0.24243 0.0
C121 C 0.43092 0.11077 0.27383 0.0
O122 O 0.45839 0.21591 0.31548 0.0
C123 C 0.3729 0.18166 0.23211 0.0
O124 O 0.4505 0.2484 0.28842 0.0
O125 O 0.40929 0.21576 0.24042 0.0
C126 C 0.17098 0.29556 0.66039 0.0
O127 O 0.20352 0.32103 0.67253 0.0
Cd128 Cd 0.27175 0.39731 0.66377 0.0
O129 O 0.1714 0.3109 0.64339 0.0
Cd130 Cd 0.21981 0.38216 0.62359 0.0
C131 C 0.21634 0.46272 0.65434 0.0
O132 O 0.29766 0.39106 0.63184 0.0
O133 O 0.29792 0.44817 0.61505 0.0
O134 O 0.20249 0.33118 0.5952 0.0
C135 C 0.32126 0.42962 0.62222 0.0
O136 O 0.24593 0.45696 0.66469 0.0
C137 C 0.18603 0.35278 0.58511 0.0
O138 O 0.19767 0.43707 0.6393 0.0
O139 O 0.18339 0.38687 0.59326 0.0
C140 C 0.84209 0.14428 0.96633 0.0
O141 O 0.86133 0.1806 0.97745 0.0
Cd142 Cd 0.85793 0.25237 0.97137 0.0
O143 O 0.82244 0.14554 0.95048 0.0
Cd144 Cd 0.81053 0.20241 0.9306 0.0
C145 C 0.73545 0.20464 0.96434 0.0
O146 O 0.88472 0.27438 0.93899 0.0
O147 O 0.83192 0.28533 0.92395 0.0
O148 O 0.83848 0.17983 0.90193 0.0
C149 C 0.87379 0.30326 0.93107 0.0
O150 O 0.77314 0.2304 0.97436 0.0
C151 C 0.802 0.1704 0.89166 0.0
O152 O 0.7381 0.18701 0.94817 0.0
O153 O 0.76823 0.17356 0.89987 0.0
C154 C 0.69003 0.85159 0.31685 0.0
O155 O 0.67746 0.87383 0.32851 0.0
Cd156 Cd 0.59989 0.8677 0.32509 0.0
O157 O 0.66406 0.82931 0.30233 0.0
Cd158 Cd 0.59199 0.8166 0.28522 0.0
C159 C 0.52182 0.74504 0.32106 0.0
O160 O 0.59594 0.89252 0.29287 0.0
O161 O 0.52943 0.83664 0.28041 0.0
O162 O 0.63906 0.84383 0.25583 0.0
C163 C 0.55476 0.87995 0.28589 0.0
O164 O 0.53693 0.78381 0.33073 0.0
C165 C 0.61152 0.80708 0.24582 0.0
O166 O 0.53811 0.74577 0.30418 0.0
O167 O 0.57539 0.7733 0.25443 0.0
C168 C 0.09414 0.86898 0.99303 0.0
C169 C 0.12971 0.86533 0.98264 0.0
C170 C 0.10199 0.91408 -0.00073 0.0
C171 C 0.14698 0.95565 0.99557 0.0
C172 C 0.18229 0.95197 0.98456 0.0
C173 C 0.1728 0.90698 0.97797 0.0
C174 C 0.06249 0.91724 0.00983 0.0
C175 C 0.23134 0.9951 0.98061 0.0
C176 C 0.19551 0.08804 -0.00078 0.0
C177 C 0.22417 0.09777 0.01579 0.0
C178 C 0.16303 0.04038 0.99384 0.0
C179 C 0.16076 0.00226 0.00497 0.0
C180 C 0.18434 0.01214 0.0231 0.0
C181 C 0.21529 0.05994 0.02841 0.0
C182 C 0.1357 0.03098 0.97509 0.0
C183 C 0.18288 0.97266 0.03553 0.0
H184 H 0.06041 0.83669 0.99628 0.0
H185 H 0.20034 0.90414 0.96996 0.0
H186 H 0.07594 0.9372 0.02363 0.0
H187 H 0.05007 0.9376 0.00083 0.0
H188 H 0.03118 0.88117 0.01297 0.0
H189 H 0.25484 0.9856 0.97213 0.0
H190 H 0.22758 0.0228 0.97245 0.0
H191 H 0.24972 0.01153 0.99447 0.0
H192 H 0.20093 0.11721 0.9897 0.0
H193 H 0.23614 0.06719 0.0416 0.0
H194 H 0.10025 -0.00252 0.97599 0.0
H195 H 0.15651 0.02656 0.96325 0.0
H196 H 0.13006 0.06145 0.97126 0.0
H197 H 0.14579 0.94173 0.03665 0.0
H198 H 0.1967 0.9855 0.05036 0.0
H199 H 0.20555 0.95947 0.02878 0.0
C200 C 0.17389 0.24004 0.36684 0.0
C201 C 0.13441 0.2422 0.35937 0.0
C202 C 0.19097 0.21268 0.35769 0.0
C203 C 0.1669 0.18553 0.34105 0.0
C204 C 0.12362 0.18293 0.33487 0.0
C205 C 0.10829 0.21216 0.3439 0.0
C206 C 0.23757 0.21686 0.3647 0.0
C207 C 0.09542 0.15213 0.31791 0.0
C208 C 0.25724 0.18837 0.30572 0.0
C209 C 0.26038 0.1484 0.31178 0.0
C210 C 0.224 0.19895 0.31416 0.0
C211 C 0.19212 0.16776 0.32851 0.0
C212 C 0.19145 0.12441 0.33302 0.0
C213 C 0.22647 0.11571 0.3249 0.0
C214 C 0.22638 0.24594 0.30908 0.0
C215 C 0.15613 0.08893 0.34738 0.0
H216 H 0.194 0.26286 0.3789 0.0
H217 H 0.0771 0.21297 0.33833 0.0
H218 H 0.2332 0.18071 0.367 0.0
H219 H 0.26591 0.23538 0.35356 0.0
H220 H 0.2503 0.23741 0.37844 0.0
H221 H 0.05717 0.14296 0.31858 0.0
H222 H 0.11099 0.17208 0.30426 0.0
H223 H 0.09697 0.11835 0.31738 0.0
H224 H 0.28335 0.21356 0.29551 0.0
H225 H 0.2283 0.08421 0.3293 0.0
H226 H 0.2389 0.27017 0.32184 0.0
H227 H 0.19023 0.23971 0.30515 0.0
H228 H 0.25128 0.26464 0.29684 0.0
H229 H 0.17014 0.1003 0.36227 0.0
H230 H 0.15073 0.05229 0.34503 0.0
H231 H 0.12079 0.08729 0.34642 0.0
C232 C 0.9087 0.16177 0.65462 0.0
C233 C 0.87955 0.13102 0.66924 0.0
C234 C 0.9577 0.17645 0.65394 0.0
C235 C 0.97708 0.15793 0.66773 0.0
C236 C 0.94616 0.1219 0.68089 0.0
C237 C 0.89777 0.10992 0.68191 0.0
C238 C 0.98939 0.21566 0.63985 0.0
C239 C 0.96448 0.09858 0.69486 0.0
C240 C 0.10748 0.21073 0.65524 0.0
C241 C 0.12733 0.25225 0.66669 0.0
C242 C 0.05913 0.17509 0.65744 0.0
C243 C 0.02992 0.18318 0.67047 0.0
C244 C 0.05126 0.22276 0.68341 0.0
C245 C 0.10025 0.25643 0.68159 0.0
C246 C 0.03852 0.13123 0.64461 0.0
C247 C 0.02144 0.23295 0.69751 0.0
H248 H 0.89429 0.17814 0.64495 0.0
H249 H 0.87477 0.08573 0.69314 0.0
H250 H 0.01541 0.24832 0.64792 0.0
H251 H 0.01039 0.204 0.63091 0.0
H252 H 0.96837 0.22561 0.62999 0.0
H253 H 0.93629 0.06078 0.69781 0.0
H254 H -0.00291 0.0989 0.6893 0.0
H255 H 0.97354 0.11816 0.70884 0.0
H256 H 0.1289 0.20747 0.64383 0.0
H257 H 0.11593 0.2888 0.69036 0.0
H258 H 0.02391 0.13818 0.63122 0.0
H259 H 0.00882 0.09954 0.65198 0.0
H260 H 0.06668 0.12251 0.64032 0.0
H261 H -0.00397 0.24053 0.68942 0.0
H262 H 0.04395 0.26424 0.70699 0.0
H263 H -0.00017 0.20116 0.7068 0.0
C264 C 0.76842 0.88272 0.00655 0.0
C265 C 0.73615 0.87835 0.02116 0.0
C266 C 0.79884 0.92747 0.99792 0.0
C267 C 0.79526 0.96794 0.00359 0.0
C268 C 0.76576 0.96441 0.01947 0.0
C269 C 0.73712 0.91971 0.02827 0.0
C270 C 0.832 0.93057 0.9818 0.0
C271 C 0.76053 0.00661 0.0259 0.0
C272 C 0.86758 0.0971 0.98713 0.0
C273 C 0.83676 0.09825 0.97301 0.0
C274 C 0.85737 0.05357 0.99594 0.0
C275 C 0.81443 0.01099 0.991 0.0
C276 C 0.78513 0.01155 0.97578 0.0
C277 C 0.79717 0.05514 0.96675 0.0
C278 C 0.89083 0.05389 0.01136 0.0
C279 C 0.73862 0.96705 0.9702 0.0
H280 H 0.76848 0.8509 0.00129 0.0
H281 H 0.7125 0.9166 0.03967 0.0
H282 H 0.81451 0.92786 0.96765 0.0
H283 H 0.86621 0.96548 0.98217 0.0
H284 H 0.84027 0.90086 0.9827 0.0
H285 H 0.73861 -0.00135 0.03928 0.0
H286 H 0.79631 0.03853 0.02861 0.0
H287 H 0.74296 0.01622 0.01426 0.0
H288 H 0.89877 0.13036 0.99175 0.0
H289 H 0.77336 0.05588 0.95578 0.0
H290 H 0.8922 0.01999 0.0112 0.0
H291 H 0.87775 0.0573 0.0258 0.0
H292 H 0.92787 0.08476 0.00945 0.0
H293 H 0.74509 0.93695 0.96689 0.0
H294 H 0.72135 0.97316 0.95741 0.0
H295 H 0.71301 0.95564 0.98251 0.0
C296 C 0.72939 0.80262 0.31834 0.0
C297 C 0.73263 0.84733 0.32089 0.0
C298 C 0.76783 0.7958 0.32309 0.0
C299 C 0.8114 0.83532 0.32989 0.0
C300 C 0.81572 0.88131 0.33161 0.0
C301 C 0.77572 0.88663 0.3274 0.0
C302 C 0.76087 0.74564 0.32153 0.0
C303 C 0.86246 0.92484 0.33758 0.0
C304 C 0.86623 0.78102 0.36089 0.0
C305 C 0.88666 0.76591 0.34651 0.0
C306 C 0.84698 0.8104 0.35626 0.0
C307 C 0.84956 0.82589 0.33691 0.0
C308 C 0.87833 0.81851 0.32336 0.0
C309 C 0.8961 0.78776 0.32822 0.0
C310 C 0.8174 0.81814 0.37133 0.0
C311 C 0.88496 0.83783 0.30302 0.0
H312 H 0.69588 0.77233 0.31333 0.0
H313 H 0.77825 0.92145 0.32895 0.0
H314 H 0.78687 0.74538 0.31104 0.0
H315 H 0.76757 0.73399 0.33575 0.0
H316 H 0.72401 0.71874 0.31672 0.0
H317 H 0.85744 0.95554 0.34168 0.0
H318 H 0.87943 0.91653 0.34984 0.0
H319 H 0.88797 0.93622 0.32524 0.0
H320 H 0.86054 0.76579 0.37531 0.0
H321 H 0.91341 0.77763 0.3172 0.0
H322 H 0.77862 0.79333 0.36842 0.0
H323 H 0.82377 0.8554 0.37073 0.0
H324 H 0.8255 0.811 0.38619 0.0
H325 H 0.85333 0.81321 0.29413 0.0
H326 H 0.91757 0.84055 0.29618 0.0
H327 H 0.88787 0.87379 0.3029 0.0
C328 C 0.92616 0.76167 0.6353 0.0
C329 C 0.88346 0.75842 0.64198 0.0
C330 C 0.97039 0.79456 0.64343 0.0
C331 C 0.97204 0.82628 0.65808 0.0
C332 C 0.92974 0.82718 0.66313 0.0
C333 C 0.88552 0.79229 0.65533 0.0
C334 C 0.01445 0.79176 0.6377 0.0
C335 C 0.93029 0.86253 0.67765 0.0
C336 C 0.06443 0.83806 0.6939 0.0
C337 C 0.10623 0.87423 0.68509 0.0
C338 C 0.01908 0.82528 0.68649 0.0
C339 C 0.01568 0.85051 0.6703 0.0
C340 C 0.05719 0.89193 0.6634 0.0
C341 C 0.10241 0.90273 0.67058 0.0
C342 C 0.97561 0.78112 0.6945 0.0
C343 C 0.05432 0.92216 0.64731 0.0
H344 H 0.9247 0.73576 0.62485 0.0
H345 H 0.85254 0.79054 0.66018 0.0
H346 H 0.04358 0.82748 0.63289 0.0
H347 H 0.02803 0.78079 0.65037 0.0
H348 H 0.00694 0.76558 0.62583 0.0
H349 H 0.90339 0.87326 0.67368 0.0
H350 H 0.92014 0.84523 0.6921 0.0
H351 H 0.96624 0.89535 0.67876 0.0
H352 H 0.06716 0.81651 0.7054 0.0
H353 H 0.1347 0.93181 0.66415 0.0
H354 H 0.96124 0.75214 0.68344 0.0
H355 H 0.94677 0.78932 0.69802 0.0
H356 H 0.98416 0.76727 0.70776 0.0
H357 H 0.05535 0.9065 0.63313 0.0
H358 H 0.08521 0.95953 0.64786 0.0
H359 H 0.02028 0.92321 0.6481 0.0
C360 C 0.64523 0.16168 0.96285 0.0
C361 C 0.68837 0.19682 0.97131 0.0
C362 C 0.60069 0.15571 0.96883 0.0
C363 C 0.59941 0.18613 0.98337 0.0
C364 C 0.64275 0.22105 0.99219 0.0
C365 C 0.6866 0.22571 0.98616 0.0
C366 C 0.55513 0.11754 0.95933 0.0
C367 C 0.64299 0.25458 0.0076 0.0
C368 C 0.49851 0.21507 0.98528 0.0
C369 C 0.47315 0.18976 0.00183 0.0
C370 C 0.53859 0.21269 0.97867 0.0
C371 C 0.55333 0.18373 0.98869 0.0
C372 C 0.5263 0.15592 0.00474 0.0
C373 C 0.4867 0.15953 0.01122 0.0
C374 C 0.56668 0.24323 0.96159 0.0
C375 C 0.54039 0.12392 0.01556 0.0
H376 H 0.64624 0.13895 0.95147 0.0
H377 H 0.71972 0.25303 0.99276 0.0
H378 H 0.52878 0.09452 0.9705 0.0
H379 H 0.53831 0.13479 0.95094 0.0
H380 H 0.56188 0.09431 0.94941 0.0
H381 H 0.67963 0.27889 0.01338 0.0
H382 H 0.62862 0.27692 0.00153 0.0
H383 H 0.61925 0.23359 0.01978 0.0
H384 H 0.48837 0.23852 0.9779 0.0
H385 H 0.46709 0.13953 0.02393 0.0
H386 H 0.5717 0.22093 0.9506 0.0
H387 H 0.60299 0.27126 0.96644 0.0
H388 H 0.54868 0.26128 0.95461 0.0
H389 H 0.54661 0.10097 0.0053 0.0
H390 H 0.51254 0.1004 0.02619 0.0
H391 H 0.57461 0.14643 0.02343 0.0
C392 C 0.31529 0.49913 0.36948 0.0
C393 C 0.27141 0.48832 0.36084 0.0
C394 C 0.35878 0.53882 0.36331 0.0
C395 C 0.35822 0.56875 0.34836 0.0
C396 C 0.31416 0.55761 0.33942 0.0
C397 C 0.2714 0.51741 0.34567 0.0
C398 C 0.40519 0.54919 0.37298 0.0
C399 C 0.31198 0.58892 0.32356 0.0
C400 C 0.45646 0.6996 0.34523 0.0
C401 C 0.48285 0.69918 0.32911 0.0
C402 C 0.41664 0.65713 0.35199 0.0
C403 C 0.40321 0.61302 0.34256 0.0
C404 C 0.43089 0.61197 0.32681 0.0
C405 C 0.47019 0.65513 0.32018 0.0
C406 C 0.38777 0.65983 0.36872 0.0
C407 C 0.4181 0.56549 0.3166 0.0
H408 H 0.31568 0.47667 0.38112 0.0
H409 H 0.2377 0.50948 0.33894 0.0
H410 H 0.43179 0.55244 0.36195 0.0
H411 H 0.42092 0.58408 0.38074 0.0
H412 H 0.3999 0.52075 0.3835 0.0
H413 H 0.27498 0.57469 0.3178 0.0
H414 H 0.32493 0.6258 0.32917 0.0
H415 H 0.33599 0.59192 0.31144 0.0
H416 H 0.46588 0.73343 0.35222 0.0
H417 H 0.49061 0.65441 0.30781 0.0
H418 H 0.38407 0.63409 0.38023 0.0
H419 H 0.35096 0.64945 0.36372 0.0
H420 H 0.40439 0.69647 0.37509 0.0
H421 H 0.41386 0.53772 0.32724 0.0
H422 H 0.44573 0.57007 0.3058 0.0
H423 H 0.38315 0.5517 0.30904 0.0
C424 C 0.82004 0.33496 0.68006 0.0
C425 C 0.78838 0.29385 0.66946 0.0
C426 C 0.82502 0.3801 0.67575 0.0
C427 C 0.79716 0.38395 0.6607 0.0
C428 C 0.76606 0.34282 0.64967 0.0
C429 C 0.76232 0.29845 0.65409 0.0
C430 C 0.85918 0.42338 0.68758 0.0
C431 C 0.7354 0.34528 0.6336 0.0
C432 C 0.76151 0.48021 0.66103 0.0
C433 C 0.78963 0.51032 0.64591 0.0
C434 C 0.76514 0.44006 0.66658 0.0
C435 C 0.7982 0.43014 0.65696 0.0
C436 C 0.82865 0.46192 0.64245 0.0
C437 C 0.82374 0.50144 0.63698 0.0
C438 C 0.73168 0.40679 0.68199 0.0
C439 C 0.86494 0.45303 0.63211 0.0
H440 H 0.84051 0.33182 0.69188 0.0
H441 H 0.7377 0.26697 0.64581 0.0
H442 H 0.88359 0.45337 0.67793 0.0
H443 H 0.83853 0.43611 0.6962 0.0
H444 H 0.88124 0.41527 0.69763 0.0
H445 H 0.71399 0.31025 0.62607 0.0
H446 H 0.71029 0.35635 0.63959 0.0
H447 H 0.75838 0.37275 0.62278 0.0
H448 H 0.73508 0.48677 0.66803 0.0
H449 H 0.846 0.52482 0.62542 0.0
H450 H 0.75231 0.40011 0.69325 0.0
H451 H 0.70614 0.37153 0.67542 0.0
H452 H 0.71065 0.42148 0.68908 0.0
H453 H 0.88637 0.44548 0.64269 0.0
H454 H 0.88988 0.48411 0.62299 0.0
H455 H 0.84591 0.42092 0.62268 0.0
C456 C 0.27464 0.73443 0.00254 0.0
C457 C 0.27514 0.76297 0.98705 0.0
C458 C 0.31733 0.73761 0.00936 0.0
C459 C 0.3617 0.77056 0.00064 0.0
C460 C 0.36271 0.80079 0.98549 0.0
C461 C 0.31937 0.79641 0.97879 0.0
C462 C 0.31472 0.70444 0.02542 0.0
C463 C 0.40943 0.83684 0.97603 0.0
C464 C 0.47473 0.79741 0.02842 0.0
C465 C 0.48784 0.76654 0.01929 0.0
C466 C 0.43453 0.80022 0.02215 0.0
C467 C 0.40649 0.77103 0.00657 0.0
C468 C 0.42004 0.74049 0.99709 0.0
C469 C 0.46067 0.73884 0.00349 0.0
C470 C 0.42154 0.83372 0.03242 0.0
C471 C 0.39083 0.70849 0.98052 0.0
H472 H 0.24067 0.70844 0.00901 0.0
H473 H 0.32014 0.81888 0.96691 0.0
H474 H 0.32704 0.67986 0.01996 0.0
H475 H 0.33903 0.72553 0.03745 0.0
H476 H 0.27769 0.68239 0.03125 0.0
H477 H 0.40453 0.86037 0.96557 0.0
H478 H 0.43589 0.85979 0.98717 0.0
H479 H 0.42509 0.81766 0.96823 0.0
H480 H 0.49567 0.81916 0.04056 0.0
H481 H 0.47039 0.7148 0.99636 0.0
H482 H 0.38624 0.81253 0.03972 0.0
H483 H 0.41788 0.85768 0.0218 0.0
H484 H 0.44878 0.8563 0.04342 0.0
H485 H 0.35387 0.68274 0.98557 0.0
H486 H 0.40694 0.68773 0.97438 0.0
H487 H 0.3876 0.73038 0.96882 0.0
C488 C 0.54054 0.3035 0.32622 0.0
C489 C 0.50996 0.30029 0.31108 0.0
C490 C 0.58049 0.34771 0.33136 0.0
C491 C 0.58977 0.38996 0.32131 0.0
C492 C 0.55798 0.38737 0.30654 0.0
C493 C 0.51864 0.34248 0.30148 0.0
C494 C 0.61382 0.34887 0.34708 0.0
C495 C 0.56623 0.43181 0.29575 0.0
C496 C 0.67991 0.50607 0.34613 0.0
C497 C 0.72277 0.51651 0.33666 0.0
C498 C 0.63573 0.46636 0.34061 0.0
C499 C 0.63457 0.43604 0.32548 0.0
C500 C 0.67733 0.4476 0.31534 0.0
C501 C 0.72081 0.48787 0.32095 0.0
C502 C 0.59068 0.45571 0.3515 0.0
C503 C 0.6777 0.41597 0.29922 0.0
H504 H 0.5342 0.27113 0.3337 0.0
H505 H 0.49495 0.34038 0.28986 0.0
H506 H 0.65 0.36085 0.34089 0.0
H507 H 0.6181 0.37513 0.35844 0.0
H508 H 0.60056 0.31314 0.35397 0.0
H509 H 0.53581 0.42444 0.28597 0.0
H510 H 0.57146 0.46046 0.3061 0.0
H511 H 0.5995 0.44599 0.28696 0.0
H512 H 0.68101 0.52823 0.35817 0.0
H513 H 0.75367 0.49559 0.31353 0.0
H514 H 0.57851 0.42285 0.36042 0.0
H515 H 0.56121 0.44856 0.34126 0.0
H516 H 0.59654 0.48578 0.36121 0.0
H517 H 0.66841 0.38019 0.30514 0.0
H518 H 0.71331 0.43159 0.29198 0.0
H519 H 0.65018 0.41012 0.28819 0.0
C520 C 0.17051 0.5066 0.64941 0.0
C521 C 0.20624 0.50185 0.65923 0.0
C522 C 0.16342 0.54574 0.65308 0.0
C523 C 0.19323 0.58122 0.66667 0.0
C524 C 0.22849 0.57595 0.67695 0.0
C525 C 0.23433 0.53624 0.6732 0.0
C526 C 0.12489 0.54977 0.6421 0.0
C527 C 0.26129 0.61316 0.69146 0.0
C528 C 0.22154 0.71061 0.66301 0.0
C529 C 0.19636 0.71413 0.67894 0.0
C530 C 0.2189 0.66684 0.65825 0.0
C531 C 0.18986 0.62541 0.66953 0.0
C532 C 0.16186 0.62797 0.68482 0.0
C533 C 0.1657 0.67239 0.68944 0.0
C534 C 0.24957 0.66572 0.6419 0.0
C535 C 0.12977 0.58436 0.69694 0.0
H536 H 0.14844 0.48006 0.63867 0.0
H537 H 0.26206 0.533 0.68087 0.0
H538 H 0.10167 0.55581 0.65228 0.0
H539 H 0.14181 0.58123 0.63224 0.0
H540 H 0.10192 0.51709 0.63338 0.0
H541 H 0.28599 0.60303 0.69862 0.0
H542 H 0.28324 0.64832 0.68411 0.0
H543 H 0.23973 0.61827 0.70277 0.0
H544 H 0.24523 0.74258 0.65477 0.0
H545 H 0.14569 0.67464 0.70165 0.0
H546 H 0.22762 0.63558 0.63189 0.0
H547 H 0.2782 0.65959 0.64786 0.0
H548 H 0.26688 0.69981 0.63349 0.0
H549 H 0.10763 0.55282 0.68756 0.0
H550 H 0.10547 0.59061 0.70643 0.0
H551 H 0.15225 0.57511 0.7062 0.0
C552 C 0.38467 0.16639 0.11828 0.0
C553 C 0.35575 0.18047 0.10823 0.0
C554 C 0.38429 0.16474 0.13857 0.0
C555 C 0.35455 0.17783 0.149 0.0
C556 C 0.3243 0.19076 0.13893 0.0
C557 C 0.32513 0.19175 0.11865 0.0
C558 C 0.41666 0.15025 0.14885 0.0
C559 C 0.29225 0.20509 0.14957 0.0
C560 C 0.32998 0.14058 0.20172 0.0
C561 C 0.36504 0.18224 0.21107 0.0
C562 C 0.32554 0.13884 0.18151 0.0
C563 C 0.35666 0.17988 0.17045 0.0
C564 C 0.39095 0.22259 0.17985 0.0
C565 C 0.39485 0.2232 0.20007 0.0
C566 C 0.28865 0.09265 0.17196 0.0
C567 C 0.42436 0.26726 0.16851 0.0
H568 H 0.40829 0.15751 0.1103 0.0
H569 H 0.3027 0.20272 0.11097 0.0
H570 H 0.44401 0.18102 0.15743 0.0
H571 H 0.39541 0.12046 0.15913 0.0
H572 H 0.43555 0.13855 0.13863 0.0
H573 H 0.2691 0.21185 0.13959 0.0
H574 H 0.26886 0.17654 0.15996 0.0
H575 H 0.31466 0.23826 0.15808 0.0
H576 H 0.3069 0.10874 0.21015 0.0
H577 H 0.42192 0.25553 0.20722 0.0
H578 H 0.3071 0.07825 0.16287 0.0
H579 H 0.26519 0.09953 0.16226 0.0
H580 H 0.26568 0.06471 0.18268 0.0
H581 H 0.44805 0.2599 0.15915 0.0
H582 H 0.44731 0.29823 0.17806 0.0
H583 H 0.40331 0.27758 0.15888 0.0
C584 C 0.12677 0.3018 0.4715 0.0
C585 C 0.16711 0.33773 0.46173 0.0
C586 C 0.12655 0.29789 0.49173 0.0
C587 C 0.16773 0.33056 0.50236 0.0
C588 C 0.20942 0.36524 0.4925 0.0
C589 C 0.20857 0.36847 0.47229 0.0
C590 C 0.0815 0.2604 0.50176 0.0
C591 C 0.25423 0.40039 0.50335 0.0
C592 C 0.15722 0.36661 0.5535 0.0
C593 C 0.17492 0.34185 0.56435 0.0
C594 C 0.15267 0.36153 0.53334 0.0
C595 C 0.16636 0.33111 0.52383 0.0
C596 C 0.182 0.3042 0.53478 0.0
C597 C 0.186 0.30982 0.55495 0.0
C598 C 0.13533 0.39044 0.52215 0.0
C599 C 0.19677 0.27133 0.52513 0.0
H600 H 0.0946 0.27787 0.46342 0.0
H601 H 0.23995 0.39613 0.46481 0.0
H602 H 0.09024 0.2399 0.51236 0.0
H603 H 0.0651 0.27836 0.50994 0.0
H604 H 0.05442 0.23469 0.49138 0.0
H605 H 0.28471 0.42266 0.49347 0.0
H606 H 0.2466 0.42473 0.51216 0.0
H607 H 0.26544 0.3809 0.51345 0.0
H608 H 0.14834 0.39121 0.5607 0.0
H609 H 0.19963 0.29049 0.56325 0.0
H610 H 0.10557 0.36668 0.51229 0.0
H611 H 0.16504 0.41757 0.51307 0.0
H612 H 0.12257 0.40946 0.53181 0.0
H613 H 0.16869 0.24692 0.51479 0.0
H614 H 0.20333 0.24926 0.53577 0.0
H615 H 0.23026 0.29316 0.51671 0.0
C616 C 0.84252 0.1668 0.86136 0.0
C617 C 0.8011 0.16107 0.87068 0.0
C618 C 0.84456 0.1648 0.84113 0.0
C619 C 0.80412 0.15657 0.83001 0.0
C620 C 0.7614 0.14833 0.83938 0.0
C621 C 0.76046 0.15083 0.85962 0.0
C622 C 0.89071 0.17374 0.83164 0.0
C623 C 0.71733 0.13885 0.82799 0.0
C624 C 0.82004 0.20575 0.779 0.0
C625 C 0.80506 0.16415 0.76787 0.0
C626 C 0.82145 0.20403 0.79925 0.0
C627 C 0.80725 0.15958 0.80857 0.0
C628 C 0.79377 0.1178 0.7974 0.0
C629 C 0.79298 0.12062 0.77715 0.0
C630 C 0.83657 0.24948 0.81071 0.0
C631 C 0.77836 0.06979 0.80683 0.0
H632 H 0.87409 0.17474 0.86983 0.0
H633 H 0.72829 0.14617 0.86674 0.0
H634 H 0.88337 0.14497 0.821 0.0
H635 H 0.90692 0.20826 0.82357 0.0
H636 H 0.9174 0.1755 0.84233 0.0
H637 H 0.68594 0.12965 0.83748 0.0
H638 H 0.72525 0.17125 0.81941 0.0
H639 H 0.70739 0.10893 0.81762 0.0
H640 H 0.8296 0.23952 0.77191 0.0
H641 H 0.78134 0.08829 0.76863 0.0
H642 H 0.86569 0.25572 0.82099 0.0
H643 H 0.80572 0.24562 0.81938 0.0
H644 H 0.84941 0.28163 0.80126 0.0
H645 H 0.80591 0.07302 0.81738 0.0
H646 H 0.77234 0.04154 0.7961 0.0
H647 H 0.74448 0.05792 0.815 0.0
C648 C 0.59845 0.81744 0.132 0.0
C649 C 0.62795 0.80403 0.12201 0.0
C650 C 0.59921 0.81981 0.15227 0.0
C651 C 0.62982 0.80798 0.16276 0.0
C652 C 0.66078 0.79589 0.15274 0.0
C653 C 0.65966 0.79431 0.13246 0.0
C654 C 0.56621 0.8336 0.16247 0.0
C655 C 0.69373 0.78284 0.16345 0.0
C656 C 0.65394 0.84718 0.21524 0.0
C657 C 0.61928 0.80564 0.22482 0.0
C658 C 0.65849 0.8482 0.19505 0.0
C659 C 0.62797 0.80652 0.18422 0.0
C660 C 0.59419 0.76391 0.19385 0.0
C661 C 0.59007 0.76405 0.21406 0.0
C662 C 0.69473 0.89436 0.18527 0.0
C663 C 0.56148 0.71856 0.18276 0.0
H664 H 0.574 0.82512 0.12399 0.0
H665 H 0.68244 0.78374 0.12482 0.0
H666 H 0.53928 0.8027 0.17113 0.0
H667 H 0.58707 0.8637 0.17266 0.0
H668 H 0.54679 0.84456 0.15219 0.0
H669 H 0.71742 0.77681 0.15351 0.0
H670 H 0.71658 0.81172 0.17381 0.0
H671 H 0.67195 0.74956 0.172 0.0
H672 H 0.67658 0.87951 0.22348 0.0
H673 H 0.56335 0.73182 0.22139 0.0
H674 H 0.67569 0.90796 0.17608 0.0
H675 H 0.71845 0.88774 0.17562 0.0
H676 H 0.71749 0.92281 0.19584 0.0
H677 H 0.53707 0.72479 0.17336 0.0
H678 H 0.53927 0.6877 0.19248 0.0
H679 H 0.58301 0.70873 0.17319 0.0
C680 C 0.81542 0.67972 0.53264 0.0
C681 C 0.82059 0.64508 0.54311 0.0
C682 C 0.81995 0.68249 0.51243 0.0
C683 C 0.83014 0.65001 0.50252 0.0
C684 C 0.83729 0.61626 0.51308 0.0
C685 C 0.83231 0.61412 0.53326 0.0
C686 C 0.81211 0.71895 0.50163 0.0
C687 C 0.84869 0.58135 0.50299 0.0
C688 C 0.79072 0.61641 0.45042 0.0
C689 C 0.83423 0.64343 0.44047 0.0
C690 C 0.78866 0.61927 0.47061 0.0
C691 C 0.83117 0.6497 0.48106 0.0
C692 C 0.87491 0.67811 0.47106 0.0
C693 C 0.87589 0.67472 0.45085 0.0
C694 C 0.74125 0.58873 0.48081 0.0
C695 C 0.92094 0.7109 0.48174 0.0
H696 H 0.80634 0.70377 0.54017 0.0
H697 H 0.83652 0.5874 0.54129 0.0
H698 H 0.84295 0.74076 0.49188 0.0
H699 H 0.77954 0.70007 0.49242 0.0
H700 H 0.80746 0.74358 0.51155 0.0
H701 H 0.85592 0.55926 0.51338 0.0
H702 H 0.81802 0.55685 0.49364 0.0
H703 H 0.88054 0.60108 0.49348 0.0
H704 H 0.75839 0.59229 0.44246 0.0
H705 H 0.90966 0.69574 0.44325 0.0
H706 H 0.73274 0.61156 0.49019 0.0
H707 H 0.74381 0.56219 0.49031 0.0
H708 H 0.71106 0.56894 0.47051 0.0
H709 H 0.91574 0.73566 0.49133 0.0
H710 H 0.95131 0.73264 0.47174 0.0
H711 H 0.93097 0.68915 0.49109 0.0
C712 C 0.1375 0.80665 0.8746 0.0
C713 C 0.17714 0.80915 0.88429 0.0
C714 C 0.13831 0.81309 0.85451 0.0
C715 C 0.17987 0.82259 0.84392 0.0
C716 C 0.22082 0.82743 0.85373 0.0
C717 C 0.2189 0.82047 0.87382 0.0
C718 C 0.09395 0.80759 0.84452 0.0
C719 C 0.266 0.83811 0.84292 0.0
C720 C 0.16781 0.78421 0.79143 0.0
C721 C 0.18419 0.82807 0.78176 0.0
C722 C 0.16512 0.7818 0.81168 0.0
C723 C 0.17953 0.82436 0.82247 0.0
C724 C 0.19492 0.86854 0.81279 0.0
C725 C 0.19688 0.86984 0.79251 0.0
C726 C 0.14796 0.73389 0.82153 0.0
C727 C 0.2107 0.91463 0.82386 0.0
H728 H 0.1051 0.79795 0.88261 0.0
H729 H 0.2497 0.82267 0.88125 0.0
H730 H 0.1034 0.83903 0.83507 0.0
H731 H 0.07837 0.77523 0.83513 0.0
H732 H 0.06597 0.80385 0.85498 0.0
H733 H 0.29586 0.8444 0.85283 0.0
H734 H 0.25845 0.80745 0.83329 0.0
H735 H 0.27801 0.8703 0.8336 0.0
H736 H 0.1578 0.7518 0.78319 0.0
H737 H 0.2097 0.90389 0.7851 0.0
H738 H 0.11768 0.72595 0.83144 0.0
H739 H 0.17743 0.73529 0.83043 0.0
H740 H 0.13593 0.70385 0.81101 0.0
H741 H 0.18207 0.91026 0.83405 0.0
H742 H 0.21943 0.94554 0.81414 0.0
H743 H 0.24301 0.92329 0.83263 0.0
C744 C 0.51077 0.58277 0.06944 0.0
C745 C 0.5492 0.61456 0.05772 0.0
C746 C 0.48984 0.53296 0.0671 0.0
C747 C 0.50726 0.51486 0.05244 0.0
C748 C 0.54601 0.54682 0.04052 0.0
C749 C 0.56692 0.59646 0.04345 0.0
C750 C 0.44918 0.49975 0.08032 0.0
C751 C 0.56491 0.52859 0.02456 0.0
C752 C 0.48249 0.38718 0.0573 0.0
C753 C 0.44167 0.36216 0.0456 0.0
C754 C 0.50426 0.43702 0.05964 0.0
C755 C 0.48519 0.46234 0.04973 0.0
C756 C 0.44454 0.43742 0.03758 0.0
C757 C 0.42287 0.38736 0.03581 0.0
C758 C 0.54707 0.46242 0.07299 0.0
C759 C 0.42389 0.46362 0.02654 0.0
H760 H 0.49726 0.59685 0.08052 0.0
H761 H 0.59641 0.62113 0.03426 0.0
H762 H 0.41632 0.47703 0.0717 0.0
H763 H 0.4587 0.4752 0.08795 0.0
H764 H 0.44065 0.51972 0.09128 0.0
H765 H 0.59474 0.55833 0.01636 0.0
H766 H 0.57806 0.50531 0.0307 0.0
H767 H 0.53547 0.50624 0.01431 0.0
H768 H 0.49688 0.36765 0.06498 0.0
H769 H 0.39146 0.36798 0.02667 0.0
H770 H 0.53878 0.4807 0.08475 0.0
H771 H 0.57843 0.49058 0.06493 0.0
H772 H 0.55743 0.43733 0.07961 0.0
H773 H 0.41109 0.48137 0.03682 0.0
H774 H 0.39339 0.43913 0.01709 0.0
H775 H 0.45221 0.49229 0.01745 0.0
C776 C 0.90635 0.50437 0.39341 0.0
C777 C 0.92469 0.54472 0.38127 0.0
C778 C 0.93237 0.48082 0.3969 0.0
C779 C 0.97735 0.49762 0.38773 0.0
C780 C -0.00423 0.5379 0.37521 0.0
C781 C 0.96931 0.56135 0.37225 0.0
C782 C 0.91205 0.43841 0.41059 0.0
C783 C 0.04336 0.55619 0.36498 0.0
C784 C 0.06621 0.46656 0.40989 0.0
C785 C 0.05887 0.42733 0.39852 0.0
C786 C 0.0395 0.48954 0.40665 0.0
C787 C 0.00536 0.47328 0.39147 0.0
C788 C -0.00235 0.43354 0.37999 0.0
C789 C 0.02426 0.41068 0.38379 0.0
C790 C 0.04788 0.53126 0.41941 0.0
C791 C 0.96188 0.41569 0.36353 0.0
H792 H 0.87195 0.49164 0.40051 0.0
H793 H 0.98337 0.59242 0.36279 0.0
H794 H 0.90776 0.40603 0.403 0.0
H795 H 0.93738 0.44589 0.42277 0.0
H796 H 0.87661 0.43009 0.41661 0.0
H797 H 0.05184 0.58701 0.35524 0.0
H798 H 0.07272 0.56776 0.37575 0.0
H799 H 0.04292 0.52688 0.35629 0.0
H800 H 0.09288 0.47929 0.42134 0.0
H801 H 0.01886 0.38056 0.37488 0.0
H802 H 0.01364 0.52372 0.42638 0.0
H803 H 0.06042 0.56422 0.41053 0.0
H804 H 0.07495 0.53864 0.43089 0.0
H805 H 0.92537 0.40467 0.36907 0.0
H806 H 0.96062 0.38465 0.35586 0.0
H807 H 0.97139 0.44514 0.35295 0.0
C808 C 0.59383 0.08588 0.7186 0.0
C809 C 0.6204 0.07496 0.70555 0.0
C810 C 0.54398 0.05628 0.72015 0.0
C811 C 0.52028 0.01532 0.70811 0.0
C812 C 0.54681 0.00437 0.69473 0.0
C813 C 0.59682 0.03423 0.69371 0.0
C814 C 0.51676 0.06858 0.73477 0.0
C815 C 0.52236 0.96127 0.68149 0.0
C816 C 0.39837 0.91608 0.72452 0.0
C817 C 0.3676 0.92685 0.714 0.0
C818 C 0.44833 0.94444 0.72261 0.0
C819 C 0.46763 0.98387 0.70967 0.0
C820 C 0.4367 0.99436 0.69874 0.0
C821 C 0.3869 0.96587 0.70116 0.0
C822 C 0.48044 0.93278 0.7347 0.0
C823 C 0.45623 0.03583 0.68461 0.0
H824 H 0.6121 0.11723 0.72786 0.0
H825 H 0.61739 0.02593 0.68355 0.0
H826 H 0.48935 0.07426 0.72734 0.0
H827 H 0.49739 0.0382 0.74501 0.0
H828 H 0.54081 0.10146 0.74319 0.0
H829 H 0.54816 0.95842 0.67162 0.0
H830 H 0.50361 0.9278 0.69019 0.0
H831 H 0.49468 0.96352 0.67265 0.0
H832 H 0.3834 0.88595 0.73449 0.0
H833 H 0.36307 0.97395 0.6929 0.0
H834 H 0.50343 0.96368 0.74424 0.0
H835 H 0.50478 0.92668 0.72521 0.0
H836 H 0.4596 0.90036 0.74386 0.0
H837 H 0.47793 0.07026 0.69245 0.0
H838 H 0.4272 0.03766 0.67656 0.0
H839 H 0.48041 0.03248 0.67403 0.0
C840 C 0.59453 0.51814 0.59611 0.0
C841 C 0.62563 0.56001 0.60634 0.0
C842 C 0.54461 0.49673 0.59822 0.0
C843 C 0.52571 0.51748 0.61105 0.0
C844 C 0.55693 0.55988 0.62135 0.0
C845 C 0.60665 0.58089 0.61876 0.0
C846 C 0.51215 0.45186 0.58681 0.0
C847 C 0.53786 0.58262 0.63531 0.0
C848 C 0.39658 0.48773 0.60533 0.0
C849 C 0.3735 0.45202 0.61944 0.0
C850 C 0.44618 0.50902 0.60229 0.0
C851 C 0.47317 0.49463 0.61384 0.0
C852 C 0.45013 0.45879 0.62819 0.0
C853 C 0.40034 0.43759 0.63073 0.0
C854 C 0.46965 0.54676 0.58669 0.0
C855 C 0.47811 0.44312 0.64092 0.0
H856 H 0.60924 0.50211 0.58642 0.0
H857 H 0.63067 0.61314 0.62675 0.0
H858 H 0.49047 0.42162 0.59683 0.0
H859 H 0.48659 0.4577 0.57799 0.0
H860 H 0.53265 0.44112 0.57703 0.0
H861 H 0.56709 0.6156 0.64219 0.0
H862 H 0.51335 0.59215 0.62767 0.0
H863 H 0.51661 0.55653 0.64685 0.0
H864 H 0.37579 0.49869 0.59649 0.0
H865 H 0.38251 0.41008 0.6417 0.0
H866 H 0.48839 0.53559 0.57619 0.0
H867 H 0.4972 0.58126 0.59318 0.0
H868 H 0.44326 0.55311 0.5787 0.0
H869 H 0.49669 0.42879 0.63189 0.0
H870 H 0.45472 0.41503 0.65151 0.0
H871 H 0.50625 0.4745 0.64899 0.0
C872 C 0.01991 0.58518 0.95029 0.0
C873 C 0.0627 0.60768 0.9396 0.0
C874 C 0.98831 0.53557 0.94867 0.0
C875 C -0.00041 0.50829 0.93582 0.0
C876 C 0.04227 0.53102 0.9247 0.0
C877 C 0.0736 0.5805 0.92686 0.0
C878 C 0.94337 0.51224 0.96096 0.0
C879 C 0.05499 0.50303 0.91064 0.0
C880 C 0.94508 0.37489 0.94494 0.0
C881 C 0.90631 0.3556 0.93198 0.0
C882 C 0.97555 0.42467 0.94643 0.0
C883 C 0.96742 0.45564 0.93443 0.0
C884 C 0.92872 0.43637 0.92113 0.0
C885 C 0.89829 0.38642 0.92017 0.0
C886 C 0.01616 0.44414 0.96096 0.0
C887 C 0.9196 0.46847 0.9079 0.0
H888 H 0.01155 0.60618 0.9602 0.0
H889 H 0.10653 0.59797 0.91846 0.0
H890 H 0.91108 0.49341 0.95161 0.0
H891 H 0.94396 0.48476 0.97054 0.0
H892 H 0.93966 0.53871 0.97008 0.0
H893 H 0.0885 0.52657 0.90247 0.0
H894 H 0.05983 0.47565 0.91855 0.0
H895 H 0.02521 0.48354 0.90017 0.0
H896 H 0.95114 0.35111 0.95417 0.0
H897 H 0.86841 0.37146 0.91007 0.0
H898 H 0.01245 0.46879 0.97117 0.0
H899 H 0.05115 0.46533 0.95344 0.0
H900 H 0.01704 0.41512 0.96942 0.0
H901 H 0.91261 0.4934 0.9166 0.0
H902 H 0.88848 0.44765 0.89811 0.0
H903 H 0.95198 0.49086 0.89896 0.0
C904 C 0.49849 0.90391 0.27181 0.0
C905 C 0.53713 0.91417 0.28413 0.0
C906 C 0.48175 0.93646 0.26972 0.0
C907 C 0.50373 0.97973 0.28048 0.0
C908 C 0.54257 0.99016 0.29304 0.0
C909 C 0.55914 0.95733 0.29459 0.0
C910 C 0.44067 0.9246 0.25598 0.0
C911 C 0.56625 0.03568 0.30496 0.0
C912 C 0.48772 0.0832 0.26366 0.0
C913 C 0.4497 0.07745 0.27545 0.0
C914 C 0.50562 0.05143 0.26507 0.0
C915 C 0.48544 0.01373 0.27883 0.0
C916 C 0.44741 0.00811 0.29092 0.0
C917 C 0.42967 0.03985 0.28896 0.0
C918 C 0.54576 0.05787 0.25176 0.0
C919 C 0.42557 0.96868 0.30594 0.0
H920 H 0.48169 0.87067 0.2636 0.0
H921 H 0.58892 0.96517 0.30419 0.0
H922 H 0.40966 0.92221 0.26405 0.0
H923 H 0.45171 0.95373 0.24511 0.0
H924 H 0.42856 0.89006 0.24824 0.0
H925 H 0.59593 0.03823 0.3141 0.0
H926 H 0.58094 0.06761 0.29534 0.0
H927 H 0.5392 0.0372 0.31449 0.0
H928 H 0.50307 0.1122 0.25315 0.0
H929 H 0.40048 0.03559 0.29819 0.0
H930 H 0.53398 0.02477 0.24305 0.0
H931 H 0.57737 0.06361 0.26037 0.0
H932 H 0.55718 0.08881 0.24174 0.0
H933 H 0.40978 0.93299 0.29883 0.0
H934 H 0.39703 0.9701 0.31454 0.0
H935 H 0.4539 0.97158 0.31599 0.0
loop_
_geom_bond_atom_site_label_1
_geom_bond_atom_site_label_2
_geom_bond_distance
_geom_bond_site_symmetry_2
_ccdc_geom_bond_type
C0 O1 1.306 . S
C0 O3 1.160 . S
O1 C0 1.306 . S
O1 Cd2 2.228 . S
Cd2 O1 2.228 . S
Cd2 O6 2.273 . S
Cd2 O10 2.277 . S
O3 C0 1.160 . S
O3 Cd4 2.203 . S
Cd4 O3 2.203 . S
Cd4 O6 2.411 . S
Cd4 O7 2.333 . S
Cd4 O8 2.352 . S
Cd4 O12 2.277 . S
Cd4 O13 2.356 . S
C5 O10 1.209 . S
C5 O12 1.226 . S
O6 Cd2 2.273 . S
O6 Cd4 2.411 . S
O6 C9 1.320 . S
O7 Cd4 2.333 . S
O7 C9 1.214 . S
O8 Cd4 2.352 . S
O8 C11 1.258 . S
C9 O6 1.320 . S
C9 O7 1.214 . S
O10 Cd2 2.277 . S
O10 C5 1.209 . S
C11 O8 1.258 . S
C11 O13 1.282 . S
O12 Cd4 2.277 . S
O12 C5 1.226 . S
O13 Cd4 2.356 . S
O13 C11 1.282 . S
C14 O15 1.306 . S
C14 O17 1.160 . S
O15 C14 1.306 . S
O15 Cd16 2.228 . S
Cd16 O15 2.228 . S
Cd16 O20 2.273 . S
Cd16 O24 2.277 . S
O17 C14 1.160 . S
O17 Cd18 2.203 . S
Cd18 O17 2.203 . S
Cd18 O20 2.411 . S
Cd18 O21 2.333 . S
Cd18 O22 2.352 . S
Cd18 O26 2.277 . S
Cd18 O27 2.356 . S
C19 O24 1.209 . S
C19 O26 1.226 . S
O20 Cd16 2.273 . S
O20 Cd18 2.411 . S
O20 C23 1.320 . S
O21 Cd18 2.333 . S
O21 C23 1.214 . S
O22 Cd18 2.352 . S
O22 C25 1.258 . S
C23 O20 1.320 . S
C23 O21 1.214 . S
O24 Cd16 2.277 . S
O24 C19 1.209 . S
C25 O22 1.258 . S
C25 O27 1.282 . S
O26 Cd18 2.277 . S
O26 C19 1.226 . S
O27 Cd18 2.356 . S
O27 C25 1.282 . S
C28 O29 1.306 . S
C28 O31 1.160 . S
O29 C28 1.306 . S
O29 Cd30 2.228 . S
Cd30 O29 2.228 . S
Cd30 O34 2.273 . S
Cd30 O38 2.277 . S
O31 C28 1.160 . S
O31 Cd32 2.203 . S
Cd32 O31 2.203 . S
Cd32 O34 2.411 . S
Cd32 O35 2.333 . S
Cd32 O36 2.352 . S
Cd32 O40 2.277 . S
Cd32 O41 2.356 . S
C33 O38 1.209 . S
C33 O40 1.226 . S
O34 Cd30 2.273 . S
O34 Cd32 2.411 . S
O34 C37 1.320 . S
O35 Cd32 2.333 . S
O35 C37 1.214 . S
O36 Cd32 2.352 . S
O36 C39 1.258 . S
C37 O34 1.320 . S
C37 O35 1.214 . S
O38 Cd30 2.277 . S
O38 C33 1.209 . S
C39 O36 1.258 . S
C39 O41 1.282 . S
O40 Cd32 2.277 . S
O40 C33 1.226 . S
O41 Cd32 2.356 . S
O41 C39 1.282 . S
C42 O43 1.306 . S
C42 O45 1.160 . S
O43 C42 1.306 . S
O43 Cd44 2.228 . S
Cd44 O43 2.228 . S
Cd44 O48 2.273 . S
Cd44 O52 2.277 . S
O45 C42 1.160 . S
O45 Cd46 2.203 . S
Cd46 O45 2.203 . S
Cd46 O48 2.411 . S
Cd46 O49 2.333 . S
Cd46 O50 2.352 . S
Cd46 O54 2.277 . S
Cd46 O55 2.356 . S
C47 O52 1.209 . S
C47 O54 1.226 . S
O48 Cd44 2.273 . S
O48 Cd46 2.411 . S
O48 C51 1.320 . S
O49 Cd46 2.333 . S
O49 C51 1.214 . S
O50 Cd46 2.352 . S
O50 C53 1.258 . S
C51 O48 1.320 . S
C51 O49 1.214 . S
O52 Cd44 2.277 . S
O52 C47 1.209 . S
C53 O50 1.258 . S
C53 O55 1.282 . S
O54 Cd46 2.277 . S
O54 C47 1.226 . S
O55 Cd46 2.356 . S
O55 C53 1.282 . S
C56 O57 1.306 . S
C56 O59 1.160 . S
O57 C56 1.306 . S
O57 Cd58 2.228 . S
Cd58 O57 2.228 . S
Cd58 O62 2.273 . S
Cd58 O66 2.277 . S
O59 C56 1.160 . S
O59 Cd60 2.203 . S
Cd60 O59 2.203 . S
Cd60 O62 2.411 . S
Cd60 O63 2.333 . S
Cd60 O64 2.352 . S
Cd60 O68 2.277 . S
Cd60 O69 2.356 . S
C61 O66 1.209 . S
C61 O68 1.226 . S
O62 Cd58 2.273 . S
O62 Cd60 2.411 . S
O62 C65 1.320 . S
O63 Cd60 2.333 . S
O63 C65 1.214 . S
O64 Cd60 2.352 . S
O64 C67 1.258 . S
C65 O62 1.320 . S
C65 O63 1.214 . S
O66 Cd58 2.277 . S
O66 C61 1.209 . S
C67 O64 1.258 . S
C67 O69 1.282 . S
O68 Cd60 2.277 . S
O68 C61 1.226 . S
O69 Cd60 2.356 . S
O69 C67 1.282 . S
C70 O71 1.306 . S
C70 O73 1.160 . S
O71 C70 1.306 . S
O71 Cd72 2.228 . S
Cd72 O71 2.228 . S
Cd72 O76 2.273 . S
Cd72 O80 2.277 . S
O73 C70 1.160 . S
O73 Cd74 2.203 . S
Cd74 O73 2.203 . S
Cd74 O76 2.411 . S
Cd74 O77 2.333 . S
Cd74 O78 2.352 . S
Cd74 O82 2.277 . S
Cd74 O83 2.356 . S
C75 O80 1.209 . S
C75 O82 1.226 . S
O76 Cd72 2.273 . S
O76 Cd74 2.411 . S
O76 C79 1.320 . S
O77 Cd74 2.333 . S
O77 C79 1.214 . S
O78 Cd74 2.352 . S
O78 C81 1.258 . S
C79 O76 1.320 . S
C79 O77 1.214 . S
O80 Cd72 2.277 . S
O80 C75 1.209 . S
C81 O78 1.258 . S
C81 O83 1.282 . S
O82 Cd74 2.277 . S
O82 C75 1.226 . S
O83 Cd74 2.356 . S
O83 C81 1.282 . S
C84 O85 1.306 . S
C84 O87 1.160 . S
O85 C84 1.306 . S
O85 Cd86 2.228 . S
Cd86 O85 2.228 . S
Cd86 O90 2.273 . S
Cd86 O94 2.277 . S
O87 C84 1.160 . S
O87 Cd88 2.203 . S
Cd88 O87 2.203 . S
Cd88 O90 2.411 . S
Cd88 O91 2.333 . S
Cd88 O92 2.352 . S
Cd88 O96 2.277 . S
Cd88 O97 2.356 . S
C89 O94 1.209 . S
C89 O96 1.226 . S
O90 Cd86 2.273 . S
O90 Cd88 2.411 . S
O90 C93 1.320 . S
O91 Cd88 2.333 . S
O91 C93 1.214 . S
O92 Cd88 2.352 . S
O92 C95 1.258 . S
C93 O90 1.320 . S
C93 O91 1.214 . S
O94 Cd86 2.277 . S
O94 C89 1.209 . S
C95 O92 1.258 . S
C95 O97 1.282 . S
O96 Cd88 2.277 . S
O96 C89 1.226 . S
O97 Cd88 2.356 . S
O97 C95 1.282 . S
C98 O99 1.306 . S
C98 O101 1.160 . S
O99 C98 1.306 . S
O99 Cd100 2.228 . S
Cd100 O99 2.228 . S
Cd100 O104 2.273 . S
Cd100 O108 2.277 . S
O101 C98 1.160 . S
O101 Cd102 2.203 . S
Cd102 O101 2.203 . S
Cd102 O104 2.411 . S
Cd102 O105 2.333 . S
Cd102 O106 2.352 . S
Cd102 O110 2.277 . S
Cd102 O111 2.356 . S
C103 O108 1.209 . S
C103 O110 1.226 . S
O104 Cd100 2.273 . S
O104 Cd102 2.411 . S
O104 C107 1.320 . S
O105 Cd102 2.333 . S
O105 C107 1.214 . S
O106 Cd102 2.352 . S
O106 C109 1.258 . S
C107 O104 1.320 . S
C107 O105 1.214 . S
O108 Cd100 2.277 . S
O108 C103 1.209 . S
C109 O106 1.258 . S
C109 O111 1.282 . S
O110 Cd102 2.277 . S
O110 C103 1.226 . S
O111 Cd102 2.356 . S
O111 C109 1.282 . S
C112 O113 1.306 . S
C112 O115 1.160 . S
O113 C112 1.306 . S
O113 Cd114 2.228 . S
Cd114 O113 2.228 . S
Cd114 O118 2.273 . S
Cd114 O122 2.277 . S
O115 C112 1.160 . S
O115 Cd116 2.203 . S
Cd116 O115 2.203 . S
Cd116 O118 2.411 . S
Cd116 O119 2.333 . S
Cd116 O120 2.352 . S
Cd116 O124 2.277 . S
Cd116 O125 2.356 . S
C117 O122 1.209 . S
C117 O124 1.226 . S
O118 Cd114 2.273 . S
O118 Cd116 2.411 . S
O118 C121 1.320 . S
O119 Cd116 2.333 . S
O119 C121 1.214 . S
O120 Cd116 2.352 . S
O120 C123 1.258 . S
C121 O118 1.320 . S
C121 O119 1.214 . S
O122 Cd114 2.277 . S
O122 C117 1.209 . S
C123 O120 1.258 . S
C123 O125 1.282 . S
O124 Cd116 2.277 . S
O124 C117 1.226 . S
O125 Cd116 2.356 . S
O125 C123 1.282 . S
C126 O127 1.306 . S
C126 O129 1.160 . S
O127 C126 1.306 . S
O127 Cd128 2.228 . S
Cd128 O127 2.228 . S
Cd128 O132 2.273 . S
Cd128 O136 2.277 . S
O129 C126 1.160 . S
O129 Cd130 2.203 . S
Cd130 O129 2.203 . S
Cd130 O132 2.411 . S
Cd130 O133 2.333 . S
Cd130 O134 2.352 . S
Cd130 O138 2.277 . S
Cd130 O139 2.356 . S
C131 O136 1.209 . S
C131 O138 1.226 . S
O132 Cd128 2.273 . S
O132 Cd130 2.411 . S
O132 C135 1.320 . S
O133 Cd130 2.333 . S
O133 C135 1.214 . S
O134 Cd130 2.352 . S
O134 C137 1.258 . S
C135 O132 1.320 . S
C135 O133 1.214 . S
O136 Cd128 2.277 . S
O136 C131 1.209 . S
C137 O134 1.258 . S
C137 O139 1.282 . S
O138 Cd130 2.277 . S
O138 C131 1.226 . S
O139 Cd130 2.356 . S
O139 C137 1.282 . S
C140 O141 1.306 . S
C140 O143 1.160 . S
O141 C140 1.306 . S
O141 Cd142 2.228 . S
Cd142 O141 2.228 . S
Cd142 O146 2.273 . S
Cd142 O150 2.277 . S
O143 C140 1.160 . S
O143 Cd144 2.203 . S
Cd144 O143 2.203 . S
Cd144 O146 2.411 . S
Cd144 O147 2.333 . S
Cd144 O148 2.352 . S
Cd144 O152 2.277 . S
Cd144 O153 2.356 . S
C145 O150 1.209 . S
C145 O152 1.226 . S
O146 Cd142 2.273 . S
O146 Cd144 2.411 . S
O146 C149 1.320 . S
O147 Cd144 2.333 . S
O147 C149 1.214 . S
O148 Cd144 2.352 . S
O148 C151 1.258 . S
C149 O146 1.320 . S
C149 O147 1.214 . S
O150 Cd142 2.277 . S
O150 C145 1.209 . S
C151 O148 1.258 . S
C151 O153 1.282 . S
O152 Cd144 2.277 . S
O152 C145 1.226 . S
O153 Cd144 2.356 . S
O153 C151 1.282 . S
C154 O155 1.306 . S
C154 O157 1.160 . S
O155 C154 1.306 . S
O155 Cd156 2.228 . S
Cd156 O155 2.228 . S
Cd156 O160 2.273 . S
Cd156 O164 2.277 . S
O157 C154 1.160 . S
O157 Cd158 2.203 . S
Cd158 O157 2.203 . S
Cd158 O160 2.411 . S
Cd158 O161 2.333 . S
Cd158 O162 2.352 . S
Cd158 O166 2.277 . S
Cd158 O167 2.356 . S
C159 O164 1.209 . S
C159 O166 1.226 . S
O160 Cd156 2.273 . S
O160 Cd158 2.411 . S
O160 C163 1.320 . S
O161 Cd158 2.333 . S
O161 C163 1.214 . S
O162 Cd158 2.352 . S
O162 C165 1.258 . S
C163 O160 1.320 . S
C163 O161 1.214 . S
O164 Cd156 2.277 . S
O164 C159 1.209 . S
C165 O162 1.258 . S
C165 O167 1.282 . S
O166 Cd158 2.277 . S
O166 C159 1.226 . S
O167 Cd158 2.356 . S
O167 C165 1.282 . S
C168 C169 1.391 . S
C168 C170 1.394 . S
C168 H184 0.931 . S
C169 C168 1.391 . S
C169 C173 1.376 . S
C170 C168 1.394 . S
C170 C171 1.369 . S
C170 C174 1.531 . S
C171 C170 1.369 . S
C171 C172 1.410 . S
C171 C179 1.503 1_566 S
C172 C171 1.410 . S
C172 C173 1.392 . S
C172 C175 1.511 1_556 S
C173 C169 1.376 . S
C173 C172 1.392 . S
C173 H185 0.929 . S
C174 C170 1.531 . S
C174 H186 0.961 1_566 S
C174 H187 0.962 1_565 S
C174 H188 0.960 . S
C175 C172 1.511 1_554 S
C175 H189 0.986 . S
C175 H190 0.961 . S
C175 H191 0.961 . S
C176 C177 1.370 . S
C176 C178 1.363 1_554 S
C176 H192 0.931 1_554 S
C177 C176 1.370 . S
C177 C181 1.408 . S
C178 C176 1.363 1_556 S
C178 C179 1.370 1_556 S
C178 C182 1.524 . S
C179 C171 1.503 1_544 S
C179 C178 1.370 1_554 S
C179 C180 1.403 . S
C180 C179 1.403 . S
C180 C181 1.404 . S
C180 C183 1.539 1_545 S
C181 C177 1.408 . S
C181 C180 1.404 . S
C181 H193 0.930 . S
C182 C178 1.524 . S
C182 H194 0.956 . S
C182 H195 0.961 . S
C182 H196 0.961 . S
C183 C180 1.539 1_565 S
C183 H197 0.958 . S
C183 H198 0.961 . S
C183 H199 0.960 . S
H184 C168 0.931 . S
H185 C173 0.929 . S
H186 C174 0.961 1_544 S
H187 C174 0.962 1_545 S
H188 C174 0.960 . S
H189 C175 0.986 . S
H190 C175 0.961 . S
H191 C175 0.961 . S
H192 C176 0.931 1_556 S
H193 C181 0.930 . S
H194 C182 0.956 . S
H195 C182 0.961 . S
H196 C182 0.961 . S
H197 C183 0.958 . S
H198 C183 0.961 . S
H199 C183 0.960 . S
C200 C201 1.391 . S
C200 C202 1.394 . S
C200 H216 0.931 . S
C201 C200 1.391 . S
C201 C205 1.376 . S
C202 C200 1.394 . S
C202 C203 1.369 . S
C202 C206 1.531 . S
C203 C202 1.369 . S
C203 C204 1.410 . S
C203 C211 1.503 . S
C204 C203 1.410 . S
C204 C205 1.392 . S
C204 C207 1.511 . S
C205 C201 1.376 . S
C205 C204 1.392 . S
C205 H217 0.929 . S
C206 C202 1.531 . S
C206 H218 0.960 . S
C206 H219 0.962 . S
C206 H220 0.960 . S
C207 C204 1.511 . S
C207 H221 0.961 . S
C207 H222 0.961 . S
C207 H223 0.961 . S
C208 C209 1.370 . S
C208 C210 1.363 . S
C208 H224 0.931 . S
C209 C208 1.370 . S
C209 C213 1.408 . S
C210 C208 1.363 . S
C210 C211 1.370 . S
C210 C214 1.524 . S
C211 C203 1.503 . S
C211 C210 1.370 . S
C211 C212 1.403 . S
C212 C211 1.403 . S
C212 C213 1.404 . S
C212 C215 1.539 . S
C213 C209 1.408 . S
C213 C212 1.404 . S
C213 H225 0.930 . S
C214 C210 1.524 . S
C214 H226 0.956 . S
C214 H227 0.961 . S
C214 H228 0.961 . S
C215 C212 1.539 . S
C215 H229 0.958 . S
C215 H230 0.961 . S
C215 H231 0.960 . S
H216 C200 0.931 . S
H217 C205 0.929 . S
H218 C206 0.960 . S
H219 C206 0.962 . S
H220 C206 0.960 . S
H221 C207 0.961 . S
H222 C207 0.961 . S
H223 C207 0.961 . S
H224 C208 0.931 . S
H225 C213 0.930 . S
H226 C214 0.956 . S
H227 C214 0.961 . S
H228 C214 0.961 . S
H229 C215 0.958 . S
H230 C215 0.961 . S
H231 C215 0.960 . S
C232 C233 1.391 . S
C232 C234 1.394 . S
C232 H248 0.931 . S
C233 C232 1.391 . S
C233 C237 1.376 . S
C234 C232 1.394 . S
C234 C235 1.369 . S
C234 C238 1.531 . S
C235 C234 1.369 . S
C235 C236 1.410 . S
C235 C243 1.503 1_655 S
C236 C235 1.410 . S
C236 C237 1.392 . S
C236 C239 1.511 1_655 S
C237 C233 1.376 . S
C237 C236 1.392 . S
C237 H249 0.929 . S
C238 C234 1.531 . S
C238 H250 0.960 . S
C238 H251 0.962 . S
C238 H252 0.960 . S
C239 C236 1.511 1_455 S
C239 H253 0.961 1_455 S
C239 H254 0.961 . S
C239 H255 0.961 . S
C240 C241 1.370 . S
C240 C242 1.363 . S
C240 H256 0.931 . S
C241 C240 1.370 . S
C241 C245 1.408 . S
C242 C240 1.363 . S
C242 C243 1.370 . S
C242 C246 1.524 1_455 S
C243 C235 1.503 1_455 S
C243 C242 1.370 . S
C243 C244 1.403 . S
C244 C243 1.403 . S
C244 C245 1.404 . S
C244 C247 1.539 . S
C245 C241 1.408 . S
C245 C244 1.404 . S
C245 H257 0.930 . S
C246 C242 1.524 1_655 S
C246 H258 0.956 . S
C246 H259 0.961 . S
C246 H260 0.961 . S
C247 C244 1.539 . S
C247 H261 0.958 . S
C247 H262 0.961 . S
C247 H263 0.960 . S
H248 C232 0.931 . S
H249 C237 0.929 . S
H250 C238 0.960 . S
H251 C238 0.962 . S
H252 C238 0.960 . S
H253 C239 0.961 1_655 S
H254 C239 0.961 . S
H255 C239 0.961 . S
H256 C240 0.931 . S
H257 C245 0.930 . S
H258 C246 0.956 . S
H259 C246 0.961 . S
H260 C246 0.961 . S
H261 C247 0.958 . S
H262 C247 0.961 . S
H263 C247 0.960 . S
C264 C265 1.391 . S
C264 C266 1.394 1_554 S
C264 H280 0.931 . S
C265 C264 1.391 . S
C265 C269 1.376 . S
C266 C264 1.394 1_556 S
C266 C267 1.369 1_556 S
C266 C270 1.531 . S
C267 C266 1.369 1_554 S
C267 C268 1.410 . S
C267 C275 1.503 1_564 S
C268 C267 1.410 . S
C268 C269 1.392 . S
C268 C271 1.511 1_565 S
C269 C265 1.376 . S
C269 C268 1.392 . S
C269 H281 0.929 . S
C270 C266 1.531 . S
C270 H282 0.960 . S
C270 H283 0.962 . S
C270 H284 0.960 . S
C271 C268 1.511 1_545 S
C271 H285 0.961 1_545 S
C271 H286 0.961 . S
C271 H287 0.961 1_545 S
C272 C273 1.370 . S
C272 C274 1.370 . S
C272 H288 0.931 . S
C273 C272 1.370 . S
C273 C277 1.408 . S
C274 C272 1.370 . S
C274 C275 1.376 . S
C274 C278 1.512 1_556 S
C275 C267 1.503 1_546 S
C275 C274 1.376 . S
C275 C276 1.403 . S
C276 C275 1.403 . S
C276 C277 1.404 . S
C276 C279 1.539 1_545 S
C277 C273 1.408 . S
C277 C276 1.404 . S
C277 H289 0.930 . S
C278 C274 1.512 1_554 S
C278 H290 0.956 . S
C278 H291 0.961 . S
C278 H292 0.961 . S
C279 C276 1.539 1_565 S
C279 H293 0.958 . S
C279 H294 0.961 1_565 S
C279 H295 0.960 . S
H280 C264 0.931 . S
H281 C269 0.929 . S
H282 C270 0.960 . S
H283 C270 0.962 . S
H284 C270 0.960 . S
H285 C271 0.961 1_565 S
H286 C271 0.961 . S
H287 C271 0.961 1_565 S
H288 C272 0.931 . S
H289 C277 0.930 . S
H290 C278 0.956 . S
H291 C278 0.961 . S
H292 C278 0.961 . S
H293 C279 0.958 . S
H294 C279 0.961 1_545 S
H295 C279 0.960 . S
C296 C297 1.391 . S
C296 C298 1.394 . S
C296 H312 0.931 . S
C297 C296 1.391 . S
C297 C301 1.376 . S
C298 C296 1.394 . S
C298 C299 1.369 . S
C298 C302 1.531 . S
C299 C298 1.369 . S
C299 C300 1.410 . S
C299 C307 1.503 . S
C300 C299 1.410 . S
C300 C301 1.392 . S
C300 C303 1.511 . S
C301 C297 1.376 . S
C301 C300 1.392 . S
C301 H313 0.929 . S
C302 C298 1.531 . S
C302 H314 0.960 . S
C302 H315 0.962 . S
C302 H316 0.960 . S
C303 C300 1.511 . S
C303 H317 0.961 . S
C303 H318 0.961 . S
C303 H319 0.961 . S
C304 C305 1.370 . S
C304 C306 1.363 . S
C304 H320 0.931 . S
C305 C304 1.370 . S
C305 C309 1.408 . S
C306 C304 1.363 . S
C306 C307 1.370 . S
C306 C310 1.524 . S
C307 C299 1.503 . S
C307 C306 1.370 . S
C307 C308 1.403 . S
C308 C307 1.403 . S
C308 C309 1.404 . S
C308 C311 1.539 . S
C309 C305 1.408 . S
C309 C308 1.404 . S
C309 H321 0.930 . S
C310 C306 1.524 . S
C310 H322 0.956 . S
C310 H323 0.961 . S
C310 H324 0.961 . S
C311 C308 1.539 . S
C311 H325 0.958 . S
C311 H326 0.961 . S
C311 H327 0.960 . S
H312 C296 0.931 . S
H313 C301 0.929 . S
H314 C302 0.960 . S
H315 C302 0.962 . S
H316 C302 0.960 . S
H317 C303 0.961 . S
H318 C303 0.961 . S
H319 C303 0.961 . S
H320 C304 0.931 . S
H321 C309 0.930 . S
H322 C310 0.956 . S
H323 C310 0.961 . S
H324 C310 0.961 . S
H325 C311 0.958 . S
H326 C311 0.961 . S
H327 C311 0.960 . S
C328 C329 1.391 . S
C328 C330 1.394 . S
C328 H344 0.931 . S
C329 C328 1.391 . S
C329 C333 1.376 . S
C330 C328 1.394 . S
C330 C331 1.369 . S
C330 C334 1.531 . S
C331 C330 1.369 . S
C331 C332 1.410 . S
C331 C339 1.503 1_655 S
C332 C331 1.410 . S
C332 C333 1.392 . S
C332 C335 1.511 . S
C333 C329 1.376 . S
C333 C332 1.392 . S
C333 H345 0.929 . S
C334 C330 1.531 . S
C334 H346 0.960 1_655 S
C334 H347 0.962 . S
C334 H348 0.960 . S
C335 C332 1.511 . S
C335 H349 0.961 . S
C335 H350 0.961 1_655 S
C335 H351 0.961 1_655 S
C336 C337 1.370 . S
C336 C338 1.363 . S
C336 H352 0.931 . S
C337 C336 1.370 . S
C337 C341 1.408 . S
C338 C336 1.363 . S
C338 C339 1.370 . S
C338 C342 1.524 1_455 S
C339 C331 1.503 1_455 S
C339 C338 1.370 . S
C339 C340 1.403 . S
C340 C339 1.403 . S
C340 C341 1.404 . S
C340 C343 1.539 . S
C341 C337 1.408 . S
C341 C340 1.404 . S
C341 H353 0.930 . S
C342 C338 1.524 1_655 S
C342 H354 0.956 . S
C342 H355 0.961 . S
C342 H356 0.961 . S
C343 C340 1.539 . S
C343 H357 0.958 . S
C343 H358 0.961 . S
C343 H359 0.960 . S
H344 C328 0.931 . S
H345 C333 0.929 . S
H346 C334 0.960 1_455 S
H347 C334 0.962 . S
H348 C334 0.960 . S
H349 C335 0.961 . S
H350 C335 0.961 1_455 S
H351 C335 0.961 1_455 S
H352 C336 0.931 . S
H353 C341 0.930 . S
H354 C342 0.956 . S
H355 C342 0.961 . S
H356 C342 0.961 . S
H357 C343 0.958 . S
H358 C343 0.961 . S
H359 C343 0.960 . S
C360 C361 1.391 . S
C360 C362 1.394 . S
C360 H376 0.931 . S
C361 C360 1.391 . S
C361 C365 1.376 . S
C362 C360 1.394 . S
C362 C363 1.391 . S
C362 C366 1.531 . S
C363 C362 1.391 . S
C363 C364 1.401 1_556 S
C363 C371 1.493 1_556 S
C364 C363 1.401 1_554 S
C364 C365 1.392 1_554 S
C364 C367 1.511 . S
C365 C361 1.376 . S
C365 C364 1.392 1_556 S
C365 H377 0.931 . S
C366 C362 1.531 . S
C366 H378 0.960 . S
C366 H379 0.962 . S
C366 H380 0.960 . S
C367 C364 1.511 . S
C367 H381 0.961 . S
C367 H382 0.961 . S
C367 H383 0.961 . S
C368 C369 1.370 . S
C368 C370 1.363 1_554 S
C368 H384 0.931 1_554 S
C369 C368 1.370 . S
C369 C373 1.408 . S
C370 C368 1.363 1_556 S
C370 C371 1.370 1_556 S
C370 C374 1.524 . S
C371 C363 1.493 1_554 S
C371 C370 1.370 1_554 S
C371 C372 1.403 . S
C372 C371 1.403 . S
C372 C373 1.404 . S
C372 C375 1.539 . S
C373 C369 1.408 . S
C373 C372 1.404 . S
C373 H385 0.930 . S
C374 C370 1.524 . S
C374 H386 0.956 . S
C374 H387 0.961 . S
C374 H388 0.961 . S
C375 C372 1.539 . S
C375 H389 0.958 . S
C375 H390 0.961 . S
C375 H391 0.960 . S
H376 C360 0.931 . S
H377 C365 0.931 . S
H378 C366 0.960 . S
H379 C366 0.962 . S
H380 C366 0.960 . S
H381 C367 0.961 . S
H382 C367 0.961 . S
H383 C367 0.961 . S
H384 C368 0.931 1_556 S
H385 C373 0.930 . S
H386 C374 0.956 . S
H387 C374 0.961 . S
H388 C374 0.961 . S
H389 C375 0.958 . S
H390 C375 0.961 . S
H391 C375 0.960 . S
C392 C393 1.391 . S
C392 C394 1.394 . S
C392 H408 0.931 . S
C393 C392 1.391 . S
C393 C397 1.376 . S
C394 C392 1.394 . S
C394 C395 1.369 . S
C394 C398 1.531 . S
C395 C394 1.369 . S
C395 C396 1.410 . S
C395 C403 1.503 . S
C396 C395 1.410 . S
C396 C397 1.392 . S
C396 C399 1.511 . S
C397 C393 1.376 . S
C397 C396 1.392 . S
C397 H409 0.929 . S
C398 C394 1.531 . S
C398 H410 0.960 . S
C398 H411 0.962 . S
C398 H412 0.960 . S
C399 C396 1.511 . S
C399 H413 0.961 . S
C399 H414 0.961 . S
C399 H415 0.961 . S
C400 C401 1.370 . S
C400 C402 1.363 . S
C400 H416 0.931 . S
C401 C400 1.370 . S
C401 C405 1.408 . S
C402 C400 1.363 . S
C402 C403 1.370 . S
C402 C406 1.524 . S
C403 C395 1.503 . S
C403 C402 1.370 . S
C403 C404 1.403 . S
C404 C403 1.403 . S
C404 C405 1.404 . S
C404 C407 1.539 . S
C405 C401 1.408 . S
C405 C404 1.404 . S
C405 H417 0.930 . S
C406 C402 1.524 . S
C406 H418 0.956 . S
C406 H419 0.961 . S
C406 H420 0.961 . S
C407 C404 1.539 . S
C407 H421 0.958 . S
C407 H422 0.961 . S
C407 H423 0.960 . S
H408 C392 0.931 . S
H409 C397 0.929 . S
H410 C398 0.960 . S
H411 C398 0.962 . S
H412 C398 0.960 . S
H413 C399 0.961 . S
H414 C399 0.961 . S
H415 C399 0.961 . S
H416 C400 0.931 . S
H417 C405 0.930 . S
H418 C406 0.956 . S
H419 C406 0.961 . S
H420 C406 0.961 . S
H421 C407 0.958 . S
H422 C407 0.961 . S
H423 C407 0.960 . S
C424 C425 1.391 . S
C424 C426 1.394 . S
C424 H440 0.931 . S
C425 C424 1.391 . S
C425 C429 1.376 . S
C426 C424 1.394 . S
C426 C427 1.369 . S
C426 C430 1.531 . S
C427 C426 1.369 . S
C427 C428 1.410 . S
C427 C435 1.503 . S
C428 C427 1.410 . S
C428 C429 1.392 . S
C428 C431 1.511 . S
C429 C425 1.376 . S
C429 C428 1.392 . S
C429 H441 0.929 . S
C430 C426 1.531 . S
C430 H442 0.960 . S
C430 H443 0.962 . S
C430 H444 0.960 . S
C431 C428 1.511 . S
C431 H445 0.961 . S
C431 H446 0.961 . S
C431 H447 0.961 . S
C432 C433 1.370 . S
C432 C434 1.363 . S
C432 H448 0.931 . S
C433 C432 1.370 . S
C433 C437 1.408 . S
C434 C432 1.363 . S
C434 C435 1.370 . S
C434 C438 1.524 . S
C435 C427 1.503 . S
C435 C434 1.370 . S
C435 C436 1.403 . S
C436 C435 1.403 . S
C436 C437 1.404 . S
C436 C439 1.539 . S
C437 C433 1.408 . S
C437 C436 1.404 . S
C437 H449 0.930 . S
C438 C434 1.524 . S
C438 H450 0.956 . S
C438 H451 0.961 . S
C438 H452 0.961 . S
C439 C436 1.539 . S
C439 H453 0.958 . S
C439 H454 0.961 . S
C439 H455 0.960 . S
H440 C424 0.931 . S
H441 C429 0.929 . S
H442 C430 0.960 . S
H443 C430 0.962 . S
H444 C430 0.960 . S
H445 C431 0.961 . S
H446 C431 0.961 . S
H447 C431 0.961 . S
H448 C432 0.931 . S
H449 C437 0.930 . S
H450 C438 0.956 . S
H451 C438 0.961 . S
H452 C438 0.961 . S
H453 C439 0.958 . S
H454 C439 0.961 . S
H455 C439 0.960 . S
C456 C457 1.391 . S
C456 C458 1.409 . S
C456 H472 0.931 . S
C457 C456 1.391 . S
C457 C461 1.376 . S
C458 C456 1.409 . S
C458 C459 1.385 . S
C458 C462 1.500 1_556 S
C459 C458 1.385 . S
C459 C460 1.410 . S
C459 C467 1.503 1_556 S
C460 C459 1.410 . S
C460 C461 1.392 . S
C460 C463 1.511 . S
C461 C457 1.376 . S
C461 C460 1.392 . S
C461 H473 0.929 . S
C462 C458 1.500 1_554 S
C462 H474 0.960 . S
C462 H475 0.962 . S
C462 H476 0.960 . S
C463 C460 1.511 . S
C463 H477 0.961 . S
C463 H478 0.961 . S
C463 H479 0.961 . S
C464 C465 1.370 . S
C464 C466 1.363 . S
C464 H480 0.931 . S
C465 C464 1.370 . S
C465 C469 1.408 . S
C466 C464 1.363 . S
C466 C467 1.370 . S
C466 C470 1.524 . S
C467 C459 1.503 1_554 S
C467 C466 1.370 . S
C467 C468 1.403 1_554 S
C468 C467 1.403 1_556 S
C468 C469 1.404 1_556 S
C468 C471 1.539 . S
C469 C465 1.408 . S
C469 C468 1.404 1_554 S
C469 H481 0.930 1_554 S
C470 C466 1.524 . S
C470 H482 0.956 . S
C470 H483 0.961 . S
C470 H484 0.961 . S
C471 C468 1.539 . S
C471 H485 0.958 . S
C471 H486 0.961 . S
C471 H487 0.960 . S
H472 C456 0.931 . S
H473 C461 0.929 . S
H474 C462 0.960 . S
H475 C462 0.962 . S
H476 C462 0.960 . S
H477 C463 0.961 . S
H478 C463 0.961 . S
H479 C463 0.961 . S
H480 C464 0.931 . S
H481 C469 0.930 1_556 S
H482 C470 0.956 . S
H483 C470 0.961 . S
H484 C470 0.961 . S
H485 C471 0.958 . S
H486 C471 0.961 . S
H487 C471 0.960 . S
C488 C489 1.391 . S
C488 C490 1.394 . S
C488 H504 0.931 . S
C489 C488 1.391 . S
C489 C493 1.376 . S
C490 C488 1.394 . S
C490 C491 1.369 . S
C490 C494 1.531 . S
C491 C490 1.369 . S
C491 C492 1.410 . S
C491 C499 1.503 . S
C492 C491 1.410 . S
C492 C493 1.392 . S
C492 C495 1.511 . S
C493 C489 1.376 . S
C493 C492 1.392 . S
C493 H505 0.929 . S
C494 C490 1.531 . S
C494 H506 0.960 . S
C494 H507 0.962 . S
C494 H508 0.960 . S
C495 C492 1.511 . S
C495 H509 0.961 . S
C495 H510 0.961 . S
C495 H511 0.961 . S
C496 C497 1.370 . S
C496 C498 1.363 . S
C496 H512 0.931 . S
C497 C496 1.370 . S
C497 C501 1.408 . S
C498 C496 1.363 . S
C498 C499 1.370 . S
C498 C502 1.524 . S
C499 C491 1.503 . S
C499 C498 1.370 . S
C499 C500 1.403 . S
C500 C499 1.403 . S
C500 C501 1.404 . S
C500 C503 1.539 . S
C501 C497 1.408 . S
C501 C500 1.404 . S
C501 H513 0.930 . S
C502 C498 1.524 . S
C502 H514 0.956 . S
C502 H515 0.961 . S
C502 H516 0.961 . S
C503 C500 1.539 . S
C503 H517 0.958 . S
C503 H518 0.961 . S
C503 H519 0.960 . S
H504 C488 0.931 . S
H505 C493 0.929 . S
H506 C494 0.960 . S
H507 C494 0.962 . S
H508 C494 0.960 . S
H509 C495 0.961 . S
H510 C495 0.961 . S
H511 C495 0.961 . S
H512 C496 0.931 . S
H513 C501 0.930 . S
H514 C502 0.956 . S
H515 C502 0.961 . S
H516 C502 0.961 . S
H517 C503 0.958 . S
H518 C503 0.961 . S
H519 C503 0.960 . S
C520 C521 1.391 . S
C520 C522 1.394 . S
C520 H536 0.931 . S
C521 C520 1.391 . S
C521 C525 1.376 . S
C522 C520 1.394 . S
C522 C523 1.369 . S
C522 C526 1.531 . S
C523 C522 1.369 . S
C523 C524 1.410 . S
C523 C531 1.503 . S
C524 C523 1.410 . S
C524 C525 1.392 . S
C524 C527 1.511 . S
C525 C521 1.376 . S
C525 C524 1.392 . S
C525 H537 0.929 . S
C526 C522 1.531 . S
C526 H538 0.960 . S
C526 H539 0.962 . S
C526 H540 0.960 . S
C527 C524 1.511 . S
C527 H541 0.961 . S
C527 H542 0.961 . S
C527 H543 0.961 . S
C528 C529 1.370 . S
C528 C530 1.363 . S
C528 H544 0.931 . S
C529 C528 1.370 . S
C529 C533 1.408 . S
C530 C528 1.363 . S
C530 C531 1.370 . S
C530 C534 1.524 . S
C531 C523 1.503 . S
C531 C530 1.370 . S
C531 C532 1.403 . S
C532 C531 1.403 . S
C532 C533 1.404 . S
C532 C535 1.539 . S
C533 C529 1.408 . S
C533 C532 1.404 . S
C533 H545 0.930 . S
C534 C530 1.524 . S
C534 H546 0.956 . S
C534 H547 0.961 . S
C534 H548 0.961 . S
C535 C532 1.539 . S
C535 H549 0.958 . S
C535 H550 0.961 . S
C535 H551 0.960 . S
H536 C520 0.931 . S
H537 C525 0.929 . S
H538 C526 0.960 . S
H539 C526 0.962 . S
H540 C526 0.960 . S
H541 C527 0.961 . S
H542 C527 0.961 . S
H543 C527 0.961 . S
H544 C528 0.931 . S
H545 C533 0.930 . S
H546 C534 0.956 . S
H547 C534 0.961 . S
H548 C534 0.961 . S
H549 C535 0.958 . S
H550 C535 0.961 . S
H551 C535 0.960 . S
C552 C553 1.391 . S
C552 C554 1.394 . S
C552 H568 0.931 . S
C553 C552 1.391 . S
C553 C557 1.376 . S
C554 C552 1.394 . S
C554 C555 1.369 . S
C554 C558 1.531 . S
C555 C554 1.369 . S
C555 C556 1.410 . S
C555 C563 1.503 . S
C556 C555 1.410 . S
C556 C557 1.392 . S
C556 C559 1.511 . S
C557 C553 1.376 . S
C557 C556 1.392 . S
C557 H569 0.929 . S
C558 C554 1.531 . S
C558 H570 0.960 . S
C558 H571 0.962 . S
C558 H572 0.960 . S
C559 C556 1.511 . S
C559 H573 0.961 . S
C559 H574 0.961 . S
C559 H575 0.961 . S
C560 C561 1.370 . S
C560 C562 1.363 . S
C560 H576 0.931 . S
C561 C560 1.370 . S
C561 C565 1.408 . S
C562 C560 1.363 . S
C562 C563 1.370 . S
C562 C566 1.524 . S
C563 C555 1.503 . S
C563 C562 1.370 . S
C563 C564 1.403 . S
C564 C563 1.403 . S
C564 C565 1.404 . S
C564 C567 1.539 . S
C565 C561 1.408 . S
C565 C564 1.404 . S
C565 H577 0.930 . S
C566 C562 1.524 . S
C566 H578 0.956 . S
C566 H579 0.961 . S
C566 H580 0.961 . S
C567 C564 1.539 . S
C567 H581 0.958 . S
C567 H582 0.961 . S
C567 H583 0.960 . S
H568 C552 0.931 . S
H569 C557 0.929 . S
H570 C558 0.960 . S
H571 C558 0.962 . S
H572 C558 0.960 . S
H573 C559 0.961 . S
H574 C559 0.961 . S
H575 C559 0.961 . S
H576 C560 0.931 . S
H577 C565 0.930 . S
H578 C566 0.956 . S
H579 C566 0.961 . S
H580 C566 0.961 . S
H581 C567 0.958 . S
H582 C567 0.961 . S
H583 C567 0.960 . S
C584 C585 1.391 . S
C584 C586 1.394 . S
C584 H600 0.931 . S
C585 C584 1.391 . S
C585 C589 1.376 . S
C586 C584 1.394 . S
C586 C587 1.369 . S
C586 C590 1.531 . S
C587 C586 1.369 . S
C587 C588 1.410 . S
C587 C595 1.503 . S
C588 C587 1.410 . S
C588 C589 1.392 . S
C588 C591 1.511 . S
C589 C585 1.376 . S
C589 C588 1.392 . S
C589 H601 0.929 . S
C590 C586 1.531 . S
C590 H602 0.960 . S
C590 H603 0.962 . S
C590 H604 0.960 . S
C591 C588 1.511 . S
C591 H605 0.961 . S
C591 H606 0.961 . S
C591 H607 0.961 . S
C592 C593 1.370 . S
C592 C594 1.363 . S
C592 H608 0.931 . S
C593 C592 1.370 . S
C593 C597 1.408 . S
C594 C592 1.363 . S
C594 C595 1.370 . S
C594 C598 1.524 . S
C595 C587 1.503 . S
C595 C594 1.370 . S
C595 C596 1.403 . S
C596 C595 1.403 . S
C596 C597 1.404 . S
C596 C599 1.539 . S
C597 C593 1.408 . S
C597 C596 1.404 . S
C597 H609 0.930 . S
C598 C594 1.524 . S
C598 H610 0.956 . S
C598 H611 0.961 . S
C598 H612 0.961 . S
C599 C596 1.539 . S
C599 H613 0.958 . S
C599 H614 0.961 . S
C599 H615 0.960 . S
H600 C584 0.931 . S
H601 C589 0.929 . S
H602 C590 0.960 . S
H603 C590 0.962 . S
H604 C590 0.960 . S
H605 C591 0.961 . S
H606 C591 0.961 . S
H607 C591 0.961 . S
H608 C592 0.931 . S
H609 C597 0.930 . S
H610 C598 0.956 . S
H611 C598 0.961 . S
H612 C598 0.961 . S
H613 C599 0.958 . S
H614 C599 0.961 . S
H615 C599 0.960 . S
C616 C617 1.391 . S
C616 C618 1.394 . S
C616 H632 0.931 . S
C617 C616 1.391 . S
C617 C621 1.376 . S
C618 C616 1.394 . S
C618 C619 1.369 . S
C618 C622 1.531 . S
C619 C618 1.369 . S
C619 C620 1.410 . S
C619 C627 1.503 . S
C620 C619 1.410 . S
C620 C621 1.392 . S
C620 C623 1.511 . S
C621 C617 1.376 . S
C621 C620 1.392 . S
C621 H633 0.929 . S
C622 C618 1.531 . S
C622 H634 0.960 . S
C622 H635 0.962 . S
C622 H636 0.960 . S
C623 C620 1.511 . S
C623 H637 0.961 . S
C623 H638 0.961 . S
C623 H639 0.961 . S
C624 C625 1.370 . S
C624 C626 1.363 . S
C624 H640 0.931 . S
C625 C624 1.370 . S
C625 C629 1.408 . S
C626 C624 1.363 . S
C626 C627 1.370 . S
C626 C630 1.524 . S
C627 C619 1.503 . S
C627 C626 1.370 . S
C627 C628 1.403 . S
C628 C627 1.403 . S
C628 C629 1.404 . S
C628 C631 1.539 . S
C629 C625 1.408 . S
C629 C628 1.404 . S
C629 H641 0.930 . S
C630 C626 1.524 . S
C630 H642 0.956 . S
C630 H643 0.961 . S
C630 H644 0.961 . S
C631 C628 1.539 . S
C631 H645 0.958 . S
C631 H646 0.961 . S
C631 H647 0.960 . S
H632 C616 0.931 . S
H633 C621 0.929 . S
H634 C622 0.960 . S
H635 C622 0.962 . S
H636 C622 0.960 . S
H637 C623 0.961 . S
H638 C623 0.961 . S
H639 C623 0.961 . S
H640 C624 0.931 . S
H641 C629 0.930 . S
H642 C630 0.956 . S
H643 C630 0.961 . S
H644 C630 0.961 . S
H645 C631 0.958 . S
H646 C631 0.961 . S
H647 C631 0.960 . S
C648 C649 1.391 . S
C648 C650 1.394 . S
C648 H664 0.931 . S
C649 C648 1.391 . S
C649 C653 1.376 . S
C650 C648 1.394 . S
C650 C651 1.369 . S
C650 C654 1.531 . S
C651 C650 1.369 . S
C651 C652 1.410 . S
C651 C659 1.503 . S
C652 C651 1.410 . S
C652 C653 1.392 . S
C652 C655 1.511 . S
C653 C649 1.376 . S
C653 C652 1.392 . S
C653 H665 0.929 . S
C654 C650 1.531 . S
C654 H666 0.960 . S
C654 H667 0.962 . S
C654 H668 0.960 . S
C655 C652 1.511 . S
C655 H669 0.961 . S
C655 H670 0.961 . S
C655 H671 0.961 . S
C656 C657 1.370 . S
C656 C658 1.363 . S
C656 H672 0.931 . S
C657 C656 1.370 . S
C657 C661 1.408 . S
C658 C656 1.363 . S
C658 C659 1.370 . S
C658 C662 1.524 . S
C659 C651 1.503 . S
C659 C658 1.370 . S
C659 C660 1.403 . S
C660 C659 1.403 . S
C660 C661 1.404 . S
C660 C663 1.539 . S
C661 C657 1.408 . S
C661 C660 1.404 . S
C661 H673 0.930 . S
C662 C658 1.524 . S
C662 H674 0.956 . S
C662 H675 0.961 . S
C662 H676 0.961 . S
C663 C660 1.539 . S
C663 H677 0.958 . S
C663 H678 0.961 . S
C663 H679 0.960 . S
H664 C648 0.931 . S
H665 C653 0.929 . S
H666 C654 0.960 . S
H667 C654 0.962 . S
H668 C654 0.960 . S
H669 C655 0.961 . S
H670 C655 0.961 . S
H671 C655 0.961 . S
H672 C656 0.931 . S
H673 C661 0.930 . S
H674 C662 0.956 . S
H675 C662 0.961 . S
H676 C662 0.961 . S
H677 C663 0.958 . S
H678 C663 0.961 . S
H679 C663 0.960 . S
C680 C681 1.391 . S
C680 C682 1.394 . S
C680 H696 0.931 . S
C681 C680 1.391 . S
C681 C685 1.376 . S
C682 C680 1.394 . S
C682 C683 1.369 . S
C682 C686 1.531 . S
C683 C682 1.369 . S
C683 C684 1.410 . S
C683 C691 1.503 . S
C684 C683 1.410 . S
C684 C685 1.392 . S
C684 C687 1.511 . S
C685 C681 1.376 . S
C685 C684 1.392 . S
C685 H697 0.929 . S
C686 C682 1.531 . S
C686 H698 0.960 . S
C686 H699 0.962 . S
C686 H700 0.960 . S
C687 C684 1.511 . S
C687 H701 0.961 . S
C687 H702 0.961 . S
C687 H703 0.961 . S
C688 C689 1.370 . S
C688 C690 1.363 . S
C688 H704 0.931 . S
C689 C688 1.370 . S
C689 C693 1.408 . S
C690 C688 1.363 . S
C690 C691 1.370 . S
C690 C694 1.524 . S
C691 C683 1.503 . S
C691 C690 1.370 . S
C691 C692 1.403 . S
C692 C691 1.403 . S
C692 C693 1.404 . S
C692 C695 1.539 . S
C693 C689 1.408 . S
C693 C692 1.404 . S
C693 H705 0.930 . S
C694 C690 1.524 . S
C694 H706 0.956 . S
C694 H707 0.961 . S
C694 H708 0.961 . S
C695 C692 1.539 . S
C695 H709 0.958 . S
C695 H710 0.961 . S
C695 H711 0.960 . S
H696 C680 0.931 . S
H697 C685 0.929 . S
H698 C686 0.960 . S
H699 C686 0.962 . S
H700 C686 0.960 . S
H701 C687 0.961 . S
H702 C687 0.961 . S
H703 C687 0.961 . S
H704 C688 0.931 . S
H705 C693 0.930 . S
H706 C694 0.956 . S
H707 C694 0.961 . S
H708 C694 0.961 . S
H709 C695 0.958 . S
H710 C695 0.961 . S
H711 C695 0.960 . S
C712 C713 1.391 . S
C712 C714 1.394 . S
C712 H728 0.931 . S
C713 C712 1.391 . S
C713 C717 1.376 . S
C714 C712 1.394 . S
C714 C715 1.369 . S
C714 C718 1.531 . S
C715 C714 1.369 . S
C715 C716 1.410 . S
C715 C723 1.503 . S
C716 C715 1.410 . S
C716 C717 1.392 . S
C716 C719 1.511 . S
C717 C713 1.376 . S
C717 C716 1.392 . S
C717 H729 0.929 . S
C718 C714 1.531 . S
C718 H730 0.960 . S
C718 H731 0.962 . S
C718 H732 0.960 . S
C719 C716 1.511 . S
C719 H733 0.961 . S
C719 H734 0.961 . S
C719 H735 0.961 . S
C720 C721 1.370 . S
C720 C722 1.363 . S
C720 H736 0.931 . S
C721 C720 1.370 . S
C721 C725 1.408 . S
C722 C720 1.363 . S
C722 C723 1.370 . S
C722 C726 1.524 . S
C723 C715 1.503 . S
C723 C722 1.370 . S
C723 C724 1.403 . S
C724 C723 1.403 . S
C724 C725 1.404 . S
C724 C727 1.539 . S
C725 C721 1.408 . S
C725 C724 1.404 . S
C725 H737 0.930 . S
C726 C722 1.524 . S
C726 H738 0.956 . S
C726 H739 0.961 . S
C726 H740 0.961 . S
C727 C724 1.539 . S
C727 H741 0.958 . S
C727 H742 0.961 . S
C727 H743 0.960 . S
H728 C712 0.931 . S
H729 C717 0.929 . S
H730 C718 0.960 . S
H731 C718 0.962 . S
H732 C718 0.960 . S
H733 C719 0.961 . S
H734 C719 0.961 . S
H735 C719 0.961 . S
H736 C720 0.931 . S
H737 C725 0.930 . S
H738 C726 0.956 . S
H739 C726 0.961 . S
H740 C726 0.961 . S
H741 C727 0.958 . S
H742 C727 0.961 . S
H743 C727 0.960 . S
C744 C745 1.391 . S
C744 C746 1.394 . S
C744 H760 0.931 . S
C745 C744 1.391 . S
C745 C749 1.376 . S
C746 C744 1.394 . S
C746 C747 1.369 . S
C746 C750 1.531 . S
C747 C746 1.369 . S
C747 C748 1.410 . S
C747 C755 1.503 . S
C748 C747 1.410 . S
C748 C749 1.392 . S
C748 C751 1.511 . S
C749 C745 1.376 . S
C749 C748 1.392 . S
C749 H761 0.929 . S
C750 C746 1.531 . S
C750 H762 0.960 . S
C750 H763 0.962 . S
C750 H764 0.960 . S
C751 C748 1.511 . S
C751 H765 0.961 . S
C751 H766 0.961 . S
C751 H767 0.961 . S
C752 C753 1.370 . S
C752 C754 1.363 . S
C752 H768 0.931 . S
C753 C752 1.370 . S
C753 C757 1.408 . S
C754 C752 1.363 . S
C754 C755 1.370 . S
C754 C758 1.524 . S
C755 C747 1.503 . S
C755 C754 1.370 . S
C755 C756 1.403 . S
C756 C755 1.403 . S
C756 C757 1.404 . S
C756 C759 1.539 . S
C757 C753 1.408 . S
C757 C756 1.404 . S
C757 H769 0.930 . S
C758 C754 1.524 . S
C758 H770 0.956 . S
C758 H771 0.961 . S
C758 H772 0.961 . S
C759 C756 1.539 . S
C759 H773 0.958 . S
C759 H774 0.961 . S
C759 H775 0.960 . S
H760 C744 0.931 . S
H761 C749 0.929 . S
H762 C750 0.960 . S
H763 C750 0.962 . S
H764 C750 0.960 . S
H765 C751 0.961 . S
H766 C751 0.961 . S
H767 C751 0.961 . S
H768 C752 0.931 . S
H769 C757 0.930 . S
H770 C758 0.956 . S
H771 C758 0.961 . S
H772 C758 0.961 . S
H773 C759 0.958 . S
H774 C759 0.961 . S
H775 C759 0.960 . S
C776 C777 1.391 . S
C776 C778 1.394 . S
C776 H792 0.931 . S
C777 C776 1.391 . S
C777 C781 1.376 . S
C778 C776 1.394 . S
C778 C779 1.369 . S
C778 C782 1.531 1_655 S
C779 C778 1.369 . S
C779 C780 1.410 . S
C779 C787 1.503 1_655 S
C780 C779 1.410 . S
C780 C781 1.392 . S
C780 C783 1.511 . S
C781 C777 1.376 . S
C781 C780 1.392 . S
C781 H793 0.929 . S
C782 C778 1.531 1_455 S
C782 H794 0.960 . S
C782 H795 0.962 . S
C782 H796 0.960 . S
C783 C780 1.511 . S
C783 H797 0.961 . S
C783 H798 0.961 . S
C783 H799 0.961 . S
C784 C785 1.370 . S
C784 C786 1.363 . S
C784 H800 0.931 . S
C785 C784 1.370 . S
C785 C789 1.408 . S
C786 C784 1.363 . S
C786 C787 1.370 . S
C786 C790 1.524 . S
C787 C779 1.503 1_455 S
C787 C786 1.370 . S
C787 C788 1.403 1_455 S
C788 C787 1.403 1_655 S
C788 C789 1.404 1_655 S
C788 C791 1.539 . S
C789 C785 1.408 . S
C789 C788 1.404 1_455 S
C789 H801 0.930 . S
C790 C786 1.524 . S
C790 H802 0.956 . S
C790 H803 0.961 . S
C790 H804 0.961 . S
C791 C788 1.539 . S
C791 H805 0.958 . S
C791 H806 0.961 . S
C791 H807 0.960 . S
H792 C776 0.931 . S
H793 C781 0.929 . S
H794 C782 0.960 . S
H795 C782 0.962 . S
H796 C782 0.960 . S
H797 C783 0.961 . S
H798 C783 0.961 . S
H799 C783 0.961 . S
H800 C784 0.931 . S
H801 C789 0.930 . S
H802 C790 0.956 . S
H803 C790 0.961 . S
H804 C790 0.961 . S
H805 C791 0.958 . S
H806 C791 0.961 . S
H807 C791 0.960 . S
C808 C809 1.391 . S
C808 C810 1.394 . S
C808 H824 0.931 . S
C809 C808 1.391 . S
C809 C813 1.376 . S
C810 C808 1.394 . S
C810 C811 1.369 . S
C810 C814 1.531 . S
C811 C810 1.369 . S
C811 C812 1.410 . S
C811 C819 1.503 1_545 S
C812 C811 1.410 . S
C812 C813 1.392 . S
C812 C815 1.511 1_545 S
C813 C809 1.376 . S
C813 C812 1.392 . S
C813 H825 0.929 . S
C814 C810 1.531 . S
C814 H826 0.960 . S
C814 H827 0.962 . S
C814 H828 0.960 . S
C815 C812 1.511 1_565 S
C815 H829 0.961 . S
C815 H830 0.961 . S
C815 H831 0.953 1_565 S
C816 C817 1.370 . S
C816 C818 1.363 . S
C816 H832 0.931 . S
C817 C816 1.370 . S
C817 C821 1.408 . S
C818 C816 1.363 . S
C818 C819 1.370 . S
C818 C822 1.524 . S
C819 C811 1.503 1_565 S
C819 C818 1.370 . S
C819 C820 1.403 1_565 S
C820 C819 1.403 1_545 S
C820 C821 1.404 1_545 S
C820 C823 1.539 . S
C821 C817 1.408 . S
C821 C820 1.404 1_565 S
C821 H833 0.930 . S
C822 C818 1.524 . S
C822 H834 0.956 . S
C822 H835 0.961 . S
C822 H836 0.961 . S
C823 C820 1.539 . S
C823 H837 0.958 . S
C823 H838 0.961 . S
C823 H839 0.960 . S
H824 C808 0.931 . S
H825 C813 0.929 . S
H826 C814 0.960 . S
H827 C814 0.962 . S
H828 C814 0.960 . S
H829 C815 0.961 . S
H830 C815 0.961 . S
H831 C815 0.953 1_545 S
H832 C816 0.931 . S
H833 C821 0.930 . S
H834 C822 0.956 . S
H835 C822 0.961 . S
H836 C822 0.961 . S
H837 C823 0.958 . S
H838 C823 0.961 . S
H839 C823 0.960 . S
C840 C841 1.391 . S
C840 C842 1.394 . S
C840 H856 0.931 . S
C841 C840 1.391 . S
C841 C845 1.376 . S
C842 C840 1.394 . S
C842 C843 1.369 . S
C842 C846 1.531 . S
C843 C842 1.369 . S
C843 C844 1.410 . S
C843 C851 1.503 . S
C844 C843 1.410 . S
C844 C845 1.392 . S
C844 C847 1.511 . S
C845 C841 1.376 . S
C845 C844 1.392 . S
C845 H857 0.929 . S
C846 C842 1.531 . S
C846 H858 0.960 . S
C846 H859 0.962 . S
C846 H860 0.960 . S
C847 C844 1.511 . S
C847 H861 0.961 . S
C847 H862 0.961 . S
C847 H863 0.961 . S
C848 C849 1.370 . S
C848 C850 1.363 . S
C848 H864 0.931 . S
C849 C848 1.370 . S
C849 C853 1.408 . S
C850 C848 1.363 . S
C850 C851 1.370 . S
C850 C854 1.524 . S
C851 C843 1.503 . S
C851 C850 1.370 . S
C851 C852 1.403 . S
C852 C851 1.403 . S
C852 C853 1.404 . S
C852 C855 1.539 . S
C853 C849 1.408 . S
C853 C852 1.404 . S
C853 H865 0.930 . S
C854 C850 1.524 . S
C854 H866 0.956 . S
C854 H867 0.961 . S
C854 H868 0.961 . S
C855 C852 1.539 . S
C855 H869 0.958 . S
C855 H870 0.961 . S
C855 H871 0.960 . S
H856 C840 0.931 . S
H857 C845 0.929 . S
H858 C846 0.960 . S
H859 C846 0.962 . S
H860 C846 0.960 . S
H861 C847 0.961 . S
H862 C847 0.961 . S
H863 C847 0.961 . S
H864 C848 0.931 . S
H865 C853 0.930 . S
H866 C854 0.956 . S
H867 C854 0.961 . S
H868 C854 0.961 . S
H869 C855 0.958 . S
H870 C855 0.961 . S
H871 C855 0.960 . S
C872 C873 1.391 . S
C872 C874 1.394 1_455 S
C872 H888 0.942 . S
C873 C872 1.391 . S
C873 C877 1.376 . S
C874 C872 1.394 1_655 S
C874 C875 1.369 1_655 S
C874 C878 1.531 . S
C875 C874 1.369 1_455 S
C875 C876 1.410 . S
C875 C883 1.503 1_455 S
C876 C875 1.410 . S
C876 C877 1.392 . S
C876 C879 1.511 . S
C877 C873 1.376 . S
C877 C876 1.392 . S
C877 H889 0.929 . S
C878 C874 1.531 . S
C878 H890 0.960 . S
C878 H891 0.962 . S
C878 H892 0.960 . S
C879 C876 1.511 . S
C879 H893 0.961 . S
C879 H894 0.961 . S
C879 H895 0.961 . S
C880 C881 1.370 . S
C880 C882 1.363 . S
C880 H896 0.931 . S
C881 C880 1.370 . S
C881 C885 1.408 . S
C882 C880 1.363 . S
C882 C883 1.370 . S
C882 C886 1.524 . S
C883 C875 1.503 1_655 S
C883 C882 1.370 . S
C883 C884 1.403 . S
C884 C883 1.403 . S
C884 C885 1.404 . S
C884 C887 1.539 1_655 S
C885 C881 1.408 . S
C885 C884 1.404 . S
C885 H897 0.930 . S
C886 C882 1.524 . S
C886 H898 0.956 . S
C886 H899 0.961 . S
C886 H900 0.961 . S
C887 C884 1.539 1_455 S
C887 H901 0.943 1_455 S
C887 H902 0.961 . S
C887 H903 0.960 . S
H888 C872 0.942 . S
H889 C877 0.929 . S
H890 C878 0.960 . S
H891 C878 0.962 . S
H892 C878 0.960 . S
H893 C879 0.961 . S
H894 C879 0.961 . S
H895 C879 0.961 . S
H896 C880 0.931 . S
H897 C885 0.930 . S
H898 C886 0.956 . S
H899 C886 0.961 . S
H900 C886 0.961 . S
H901 C887 0.943 1_655 S
H902 C887 0.961 . S
H903 C887 0.960 . S
C904 C905 1.391 . S
C904 C906 1.394 . S
C904 H920 0.931 . S
C905 C904 1.391 . S
C905 C909 1.376 . S
C906 C904 1.394 . S
C906 C907 1.369 . S
C906 C910 1.531 1_565 S
C907 C906 1.369 . S
C907 C908 1.410 . S
C907 C915 1.503 1_565 S
C908 C907 1.410 . S
C908 C909 1.392 . S
C908 C911 1.511 . S
C909 C905 1.376 . S
C909 C908 1.392 . S
C909 H921 0.929 . S
C910 C906 1.531 1_545 S
C910 H922 0.960 . S
C910 H923 0.962 . S
C910 H924 0.960 1_545 S
C911 C908 1.511 . S
C911 H925 0.961 . S
C911 H926 0.961 . S
C911 H927 0.961 . S
C912 C913 1.370 . S
C912 C914 1.363 . S
C912 H928 0.931 . S
C913 C912 1.370 . S
C913 C917 1.408 . S
C914 C912 1.363 . S
C914 C915 1.370 . S
C914 C918 1.524 . S
C915 C907 1.503 1_545 S
C915 C914 1.370 . S
C915 C916 1.403 1_545 S
C916 C915 1.403 1_565 S
C916 C917 1.404 1_565 S
C916 C919 1.539 . S
C917 C913 1.408 . S
C917 C916 1.404 1_545 S
C917 H929 0.930 1_545 S
C918 C914 1.524 . S
C918 H930 0.956 . S
C918 H931 0.961 . S
C918 H932 0.961 . S
C919 C916 1.539 . S
C919 H933 0.958 . S
C919 H934 0.961 . S
C919 H935 0.960 . S
H920 C904 0.931 . S
H921 C909 0.929 . S
H922 C910 0.960 . S
H923 C910 0.962 . S
H924 C910 0.960 1_565 S
H925 C911 0.961 . S
H926 C911 0.961 . S
H927 C911 0.961 . S
H928 C912 0.931 . S
H929 C917 0.930 1_565 S
H930 C918 0.956 . S
H931 C918 0.961 . S
H932 C918 0.961 . S
H933 C919 0.958 . S
H934 C919 0.961 . S
H935 C919 0.960 . S
C169 C98 1.331 . S
C177 C0 1.349 . S
C201 C14 1.362 . S
C209 C112 1.353 . S
C233 C28 1.340 . S
C241 C126 1.334 . S
C265 C42 1.313 . S
C273 C140 1.338 . S
C297 C154 1.350 . S
C305 C56 1.337 . S
C329 C84 1.354 . S
C337 C70 1.339 . S
C361 C145 1.418 . S
C369 C5 1.412 . S
C393 C19 1.423 . S
C401 C159 1.413 . S
C425 C33 1.402 . S
C433 C89 1.417 . S
C457 C103 1.409 . S
C465 C47 1.422 . S
C489 C117 1.418 . S
C497 C61 1.421 . S
C521 C131 1.425 . S
C529 C75 1.416 . S
C553 C11 1.715 . S
C561 C123 1.712 . S
C585 C25 1.720 . S
C593 C137 1.720 . S
C617 C151 1.698 . S
C625 C39 1.712 . S
C649 C53 1.724 . S
C657 C165 1.716 . S
C681 C95 1.712 . S
C689 C67 1.718 . S
C713 C109 1.700 . S
C721 C81 1.713 . S
C745 C51 1.317 . S
C753 C9 1.363 . S
C777 C65 1.318 . S
C785 C23 1.359 . S
C809 C37 1.333 . S
C817 C79 1.366 . S
C841 C93 1.317 . S
C849 C135 1.361 . S
C873 C107 1.325 . S
C881 C149 1.354 . S
C905 C163 1.318 . S
C913 C121 1.363 . S
