# Generated by pormake.
# Topology smu, (6)-cn, num edge types: 1
# Building blocks:
#     Node 0, Type 0, BuildingBlock: CUKXOW_clean_sbu_0, # of connection points: 6
#     Node 1, Type 0, BuildingBlock: CUKXOW_clean_sbu_0, # of connection points: 6
#     Node 2, Type 0, BuildingBlock: CUKXOW_clean_sbu_0, # of connection points: 6
#     Node 3, Type 0, BuildingBlock: CUKXOW_clean_sbu_0, # of connection points: 6
#     Node 4, Type 0, BuildingBlock: CUKXOW_clean_sbu_0, # of connection points: 6
#     Node 5, Type 0, BuildingBlock: CUKXOW_clean_sbu_0, # of connection points: 6
#     Edge 6, Type (0, 0), BuildingBlock: XIVTED_clean_linker_0, # of connection points: 2
#     Edge 7, Type (0, 0), BuildingBlock: XIVTED_clean_linker_0, # of connection points: 2
#     Edge 8, Type (0, 0), BuildingBlock: XIVTED_clean_linker_0, # of connection points: 2
#     Edge 9, Type (0, 0), BuildingBlock: XIVTED_clean_linker_0, # of connection points: 2
#     Edge 10, Type (0, 0), BuildingBlock: XIVTED_clean_linker_0, # of connection points: 2
#     Edge 11, Type (0, 0), BuildingBlock: XIVTED_clean_linker_0, # of connection points: 2
#     Edge 12, Type (0, 0), BuildingBlock: XIVTED_clean_linker_0, # of connection points: 2
#     Edge 13, Type (0, 0), BuildingBlock: XIVTED_clean_linker_0, # of connection points: 2
#     Edge 14, Type (0, 0), BuildingBlock: XIVTED_clean_linker_0, # of connection points: 2
#     Edge 15, Type (0, 0), BuildingBlock: XIVTED_clean_linker_0, # of connection points: 2
#     Edge 16, Type (0, 0), BuildingBlock: XIVTED_clean_linker_0, # of connection points: 2
#     Edge 17, Type (0, 0), BuildingBlock: XIVTED_clean_linker_0, # of connection points: 2
#     Edge 18, Type (0, 0), BuildingBlock: XIVTED_clean_linker_0, # of connection points: 2
#     Edge 19, Type (0, 0), BuildingBlock: XIVTED_clean_linker_0, # of connection points: 2
#     Edge 20, Type (0, 0), BuildingBlock: XIVTED_clean_linker_0, # of connection points: 2
#     Edge 21, Type (0, 0), BuildingBlock: XIVTED_clean_linker_0, # of connection points: 2
#     Edge 22, Type (0, 0), BuildingBlock: XIVTED_clean_linker_0, # of connection points: 2
#     Edge 23, Type (0, 0), BuildingBlock: XIVTED_clean_linker_0, # of connection points: 2
# Relax obj value: 0.192
# Max RMSD: 0.297
# Mean RMSD: 0.276
data_MOF--net-smu--node1-CUKXOW_clean_sbu_0--edge1-XIVTED_clean_linker_0
_symmetry_space_group_name_H-M    P1
_symmetry_Int_Tables_number       1
_symmetry_cell_setting            triclinic
loop_
_symmetry_equiv_pos_as_xyz
'x, y, z'
_cell_length_a     30.657958
_cell_length_b     30.662547
_cell_length_c     28.512475
_cell_angle_alpha  93.956719
_cell_angle_beta   92.422484
_cell_angle_gamma 120.06542
loop_
_atom_site_label
_atom_site_type_symbol
_atom_site_fract_x
_atom_site_fract_y
_atom_site_fract_z
_atom_type_partial_charge
Tb0 Tb 0.40772 0.16261 0.31611 0.0
C1 C 0.35658 0.09263 0.39513 0.0
Tb2 Tb 0.31942 0.05791 0.28828 0.0
O3 O 0.35787 0.18708 0.3439 0.0
O4 O 0.33172 0.13272 0.28659 0.0
O5 O 0.40172 0.12608 0.38187 0.0
C6 C 0.22443 0.98053 0.27744 0.0
O7 O 0.31651 0.06951 0.36399 0.0
C8 C 0.41053 0.06793 0.28869 0.0
C9 C 0.37344 0.11667 0.20639 0.0
O10 O 0.26333 0.97815 0.29399 0.0
O11 O 0.2394 0.0258 0.26628 0.0
O12 O 0.37198 0.03447 0.26013 0.0
O13 O 0.39514 0.08934 0.31669 0.0
O14 O 0.33031 0.07999 0.21845 0.0
O15 O 0.41049 0.15069 0.23812 0.0
C16 C 0.48998 0.256 0.32768 0.0
O17 O 0.4808 0.22075 0.29424 0.0
O18 O 0.4543 0.23741 0.35569 0.0
C19 C 0.31882 0.15601 0.31573 0.0
Tb20 Tb 0.76047 0.71717 0.27753 0.0
C21 C 0.76904 0.66769 0.3647 0.0
Tb22 Tb 0.78232 0.63121 0.26311 0.0
O23 O 0.68531 0.66306 0.30148 0.0
O24 O 0.71917 0.6395 0.25305 0.0
O25 O 0.78169 0.71132 0.34856 0.0
C26 C 0.79965 0.55482 0.24449 0.0
O27 O 0.7587 0.62679 0.33606 0.0
C28 C 0.86155 0.72066 0.29295 0.0
C29 C 0.76207 0.67863 0.17355 0.0
O30 O 0.76633 0.55402 0.2718 0.0
O31 O 0.82079 0.59743 0.22589 0.0
O32 O 0.85435 0.67794 0.30495 0.0
O33 O 0.82554 0.71169 0.26349 0.0
O34 O 0.76203 0.63828 0.18899 0.0
O35 O 0.76677 0.71658 0.20255 0.0
C36 C 0.77335 0.80988 0.28561 0.0
O37 O 0.73557 0.77051 0.26125 0.0
O38 O 0.80276 0.79653 0.3061 0.0
C39 C 0.68185 0.62395 0.2767 0.0
Tb40 Tb 0.87508 0.25149 0.24702 0.0
C41 C 0.92864 0.26654 0.35069 0.0
Tb42 Tb 0.98005 0.27061 0.26128 0.0
O43 O 0.84904 0.17481 0.21668 0.0
O44 O 0.90731 0.20765 0.26975 0.0
O45 O 0.89632 0.27451 0.32487 0.0
C46 C 0.05886 0.25615 0.25945 0.0
O47 O 0.95741 0.25167 0.3304 0.0
C48 C 0.97071 0.35213 0.26534 0.0
C49 C 0.93643 0.26561 0.15826 0.0
O50 O 0.05858 0.29339 0.2839 0.0
O51 O 1.01534 0.22801 0.23567 0.0
O52 O 1.00679 0.35059 0.28936 0.0
O53 O 0.94641 0.31224 0.23862 0.0
O54 O 0.96642 0.25605 0.1848 0.0
O55 O 0.90312 0.27583 0.17751 0.0
C56 C 0.78125 0.23805 0.24403 0.0
O57 O 0.79827 0.21864 0.21341 0.0
O58 O 0.81807 0.26736 0.27587 0.0
C59 C 0.88177 0.16891 0.24079 0.0
Tb60 Tb 0.05238 0.31065 0.75795 0.0
C61 C 0.10268 0.35769 0.66963 0.0
Tb62 Tb 0.16363 0.39254 0.77342 0.0
O63 O 0.03227 0.36767 0.73759 0.0
O64 O 0.09452 0.38723 0.78439 0.0
O65 O 0.06572 0.31733 0.68542 0.0
C66 C 0.26248 0.46059 0.77668 0.0
O67 O 0.14214 0.39431 0.69772 0.0
C68 C 0.14322 0.29962 0.77836 0.0
C69 C 0.10433 0.35086 0.86196 0.0
O70 O 0.22744 0.47176 0.78481 0.0
O71 O 0.24146 0.41231 0.76578 0.0
O72 O 0.17779 0.33836 0.80524 0.0
O73 O 0.12255 0.31403 0.74884 0.0
O74 O 0.1416 0.39228 0.84629 0.0
O75 O 0.07046 0.31158 0.83283 0.0
C76 C 0.97302 0.21732 0.7548 0.0
O77 O 0.97487 0.25788 0.77456 0.0
O78 O 1.01481 0.22994 0.73584 0.0
C79 C 0.07233 0.405 0.76183 0.0
Tb80 Tb 0.29026 0.98655 0.77253 0.0
C81 C 0.2704 0.91762 0.68501 0.0
Tb82 Tb 0.26651 0.88063 0.78618 0.0
O83 O 0.36577 1.00605 0.74799 0.0
O84 O 0.33116 0.95257 0.79444 0.0
O85 O 0.25499 0.947 0.70455 0.0
C86 C 0.23913 0.78278 0.77276 0.0
O87 O 0.28597 0.89337 0.71192 0.0
C88 C 0.19231 0.89832 0.79777 0.0
C89 C 0.29764 0.95804 0.87699 0.0
O90 O 0.21681 0.80396 0.75305 0.0
O91 O 0.27819 0.81709 0.80037 0.0
O92 O 0.20132 0.86922 0.8221 0.0
O93 O 0.22298 0.91416 0.76642 0.0
O94 O 0.29479 0.91477 0.86003 0.0
O95 O 0.29326 0.98876 0.84908 0.0
C96 C 0.27484 0.06467 0.7773 0.0
O97 O 0.26212 0.03145 0.80727 0.0
O98 O 0.29838 0.05525 0.74472 0.0
C99 C 0.36795 0.97135 0.77027 0.0
Tb100 Tb 0.73053 0.75737 0.77941 0.0
C101 C 0.6966 0.76357 0.67698 0.0
Tb102 Tb 0.64399 0.77883 0.76671 0.0
O103 O 0.67615 0.67864 0.7954 0.0
O104 O 0.65422 0.71707 0.75272 0.0
O105 O 0.73458 0.76989 0.70597 0.0
C106 C 0.57197 0.8 0.74221 0.0
O107 O 0.65442 0.75998 0.69258 0.0
C108 C 0.73247 0.85727 0.80069 0.0
C109 C 0.67323 0.75717 0.86584 0.0
O110 O 0.6176 0.82224 0.72934 0.0
O111 O 0.56606 0.76417 0.76793 0.0
O112 O 0.68915 0.84871 0.81326 0.0
O113 O 0.72434 0.82238 0.76946 0.0
O114 O 0.63404 0.74925 0.83682 0.0
O115 O 0.71833 0.77241 0.85107 0.0
C116 C 0.82461 0.77515 0.79106 0.0
O117 O 0.80588 0.79768 0.81608 0.0
O118 O 0.78972 0.74097 0.75994 0.0
C119 C 0.63781 0.67742 0.77241 0.0
H120 H 0.36469 0.95534 0.94382 0.0
H121 H 0.32238 0.13182 0.13616 0.0
H122 H 0.25804 1.00664 0.92477 0.0
H123 H 0.43289 0.08707 0.16206 0.0
H124 H 0.3054 0.09242 0.05517 0.0
H125 H 0.39298 1.00381 1.02283 0.0
C126 C 0.34649 0.97575 0.95667 0.0
C127 C 0.30879 0.97677 0.92786 0.0
C128 C 0.33425 0.09197 0.07803 0.0
C129 C 0.34184 0.03336 1.01695 0.0
C130 C 0.34471 0.11555 0.12404 0.0
C131 C 0.37981 0.11359 0.15556 0.0
C132 C 0.35822 0.06503 0.06349 0.0
C133 C 0.40627 0.09023 0.13855 0.0
C134 C 0.36316 1.00406 1.00134 0.0
C135 C 0.28723 1.00477 0.94576 0.0
N136 N 0.39441 0.06609 0.09387 0.0
N137 N 0.30411 0.03191 0.98877 0.0
H138 H 0.62443 0.68833 0.61196 0.0
H139 H 0.83674 0.72648 0.4374 0.0
H140 H 0.77962 0.81011 0.62952 0.0
H141 H 0.6807 0.61065 0.40502 0.0
H142 H 0.8161 0.7501 0.51301 0.0
H143 H 0.64184 0.6562 0.53754 0.0
C144 C 0.6616 0.70922 0.59934 0.0
C145 C 0.70056 0.75222 0.62662 0.0
C146 C 0.78624 0.71883 0.48994 0.0
C147 C 0.72129 0.71466 0.54315 0.0
C148 C 0.79834 0.70463 0.44716 0.0
C149 C 0.76046 0.66618 0.41517 0.0
C150 C 0.73557 0.69498 0.50075 0.0
C151 C 0.71104 0.64004 0.42899 0.0
C152 C 0.67179 0.69036 0.55742 0.0
C153 C 0.74843 0.777 0.60943 0.0
N154 N 0.69973 0.6554 0.47051 0.0
N155 N 0.75747 0.75771 0.56921 0.0
H156 H 0.95187 0.20586 0.0962 0.0
H157 H 0.09132 0.41789 0.91988 0.0
H158 H 0.95716 0.34917 0.11258 0.0
H159 H 0.08718 0.27514 0.91435 0.0
H160 H 0.04514 0.39702 0.99136 0.0
H161 H 0.99873 0.23112 0.02679 0.0
C162 C 0.9617 0.24219 0.08414 0.0
C163 C 0.95006 0.27517 0.10961 0.0
C164 C 0.05529 0.37079 0.975 0.0
C165 C 1.00608 0.30573 0.03117 0.0
C166 C 0.0825 0.38317 0.93487 0.0
C167 C 0.09363 0.34844 0.91182 0.0
C168 C 0.03912 0.32333 0.99166 0.0
C169 C 0.07982 0.30316 0.9315 0.0
C170 C 0.98922 0.25704 0.04493 0.0
C171 C 0.96458 0.32229 0.0932 0.0
N172 N 0.05302 0.29179 0.96991 0.0
N173 N 0.9924 0.33649 0.05516 0.0
H174 H 0.42571 0.08439 0.45439 0.0
H175 H 0.20583 0.90555 0.61152 0.0
H176 H 0.271 0.05067 0.43981 0.0
H177 H 0.36181 0.95238 0.64831 0.0
H178 H 0.22975 0.94875 0.54035 0.0
H179 H 0.40537 0.0325 0.5215 0.0
C180 C 0.38791 0.06713 0.46594 0.0
C181 C 0.35002 0.07198 0.44153 0.0
C182 C 0.25891 0.94896 0.56333 0.0
C183 C 0.32613 1.01137 0.51668 0.0
C184 C 0.24498 0.92331 0.60351 0.0
C185 C 0.28177 0.92481 0.63546 0.0
C186 C 0.31031 0.97733 0.55523 0.0
C187 C 0.33223 0.9496 0.62405 0.0
C188 C 0.37613 0.03693 0.50371 0.0
C189 C 0.30142 0.04794 0.4574 0.0
N190 N 0.34526 0.97569 0.58519 0.0
N191 N 0.29092 0.01862 0.49351 0.0
H192 H 0.61629 0.66389 0.89752 0.0
H193 H 0.81443 0.75884 0.12527 0.0
H194 H 0.72589 0.81965 0.94385 0.0
H195 H 0.68366 0.60863 0.10939 0.0
H196 H 0.78487 0.77673 0.05255 0.0
H197 H 0.63784 0.6391 0.97167 0.0
C198 C 0.64308 0.69306 0.92424 0.0
C199 C 0.66866 0.74405 0.91497 0.0
C200 C 0.76268 0.73952 0.06437 0.0
C201 C 0.69555 0.71587 0.9983 0.0
C202 C 0.78011 0.729 0.10553 0.0
C203 C 0.75188 0.68198 0.12309 0.0
C204 C 0.71618 0.70293 0.0402 0.0
C205 C 0.7071 0.64503 0.09651 0.0
C206 C 0.65614 0.67881 0.9661 0.0
C207 C 0.7046 0.78008 0.94995 0.0
N208 N 0.69033 0.65638 0.05645 0.0
N209 N 0.71736 0.76529 0.98955 0.0
H210 H 0.93371 0.20737 0.41352 0.0
H211 H 0.07887 0.42212 0.62846 0.0
H212 H 0.95499 0.35622 0.40399 0.0
H213 H 0.0999 0.29482 0.59757 0.0
H214 H 0.02932 0.40081 0.55134 0.0
H215 H 0.98337 0.23708 0.48983 0.0
C216 C 0.94722 0.24593 0.42843 0.0
C217 C 0.93958 0.27913 0.40249 0.0
C218 C 0.04604 0.37848 0.56096 0.0
C219 C 0.99891 0.31442 0.48933 0.0
C220 C 0.07525 0.39129 0.60446 0.0
C221 C 0.09456 0.36086 0.6189 0.0
C222 C 0.03529 0.33431 0.53251 0.0
C223 C 0.08668 0.31991 0.58738 0.0
C224 C 0.97658 0.26324 0.47157 0.0
C225 C 0.95908 0.32909 0.42313 0.0
N226 N 0.05713 0.30742 0.54622 0.0
N227 N 0.98836 0.34548 0.46521 0.0
H228 H 0.4547 0.04193 0.21774 0.0
H229 H 0.73626 0.2628 0.31405 0.0
H230 H 0.49022 0.14355 0.34408 0.0
H231 H 0.70224 0.16772 0.18339 0.0
H232 H 0.64557 0.22042 0.32459 0.0
H233 H 0.54512 0.0864 0.20435 0.0
C234 C 0.48149 0.07338 0.24268 0.0
C235 C 0.46486 0.08948 0.28166 0.0
C236 C 0.65787 0.20904 0.29339 0.0
C237 C 0.56801 0.14045 0.26685 0.0
C238 C 0.70962 0.23355 0.28726 0.0
C239 C 0.72673 0.2188 0.24781 0.0
C240 C 0.62301 0.16926 0.25997 0.0
C241 C 0.69061 0.18033 0.21432 0.0
C242 C 0.53301 0.09889 0.23501 0.0
C243 C 0.50123 0.13008 0.31327 0.0
N244 N 0.64056 0.15667 0.2213 0.0
N245 N 0.55086 0.1542 0.30509 0.0
H246 H 0.67752 0.5449 0.22467 0.0
H247 H 0.49893 0.33417 0.38736 0.0
H248 H 0.61339 0.57919 0.34344 0.0
H249 H 0.55691 0.30267 0.26229 0.0
H250 H 0.5441 0.42436 0.37559 0.0
H251 H 0.6348 0.45652 0.23981 0.0
C252 C 0.65415 0.5337 0.25399 0.0
C253 C 0.64978 0.56968 0.28344 0.0
C254 C 0.54733 0.39782 0.35097 0.0
C255 C 0.60046 0.46777 0.30118 0.0
C256 C 0.52196 0.34639 0.35789 0.0
C257 C 0.52429 0.31091 0.32575 0.0
C258 C 0.57525 0.41391 0.31159 0.0
C259 C 0.55424 0.32873 0.288 0.0
C260 C 0.62984 0.48309 0.26271 0.0
C261 C 0.61841 0.55279 0.3204 0.0
N262 N 0.57829 0.37888 0.28185 0.0
N263 N 0.59515 0.50298 0.32849 0.0
H264 H 0.97166 0.40515 0.19357 0.0
H265 H 0.78541 0.48543 0.30661 0.0
H266 H 0.93478 0.38506 0.33734 0.0
H267 H 0.86497 0.54987 0.18557 0.0
H268 H 0.83294 0.44098 0.31472 0.0
H269 H 0.92899 0.45423 0.18745 0.0
C270 C 0.95599 0.41266 0.22438 0.0
C271 C 0.95808 0.39255 0.26652 0.0
C272 C 0.83975 0.46465 0.28626 0.0
C273 C 0.90669 0.44611 0.25911 0.0
C274 C 0.81217 0.48943 0.28122 0.0
C275 C 0.82111 0.52109 0.24518 0.0
C276 C 0.87606 0.47117 0.25467 0.0
C277 C 0.85677 0.5256 0.2137 0.0
C278 C 0.93111 0.44009 0.22073 0.0
C279 C 0.93544 0.40145 0.30485 0.0
N280 N 0.88286 0.50091 0.21912 0.0
N281 N 0.91012 0.42712 0.30012 0.0
H282 H 0.04684 0.45708 0.70089 0.0
H283 H 0.27087 0.72789 0.8213 0.0
H284 H 0.14656 0.47841 0.82258 0.0
H285 H 0.15965 0.71205 0.71326 0.0
H286 H 0.22952 0.63528 0.81685 0.0
H287 H 0.08977 0.54999 0.70059 0.0
C288 C 0.07741 0.48124 0.72759 0.0
C289 C 0.09336 0.46012 0.76161 0.0
C290 C 0.21424 0.65206 0.79395 0.0
C291 C 0.14284 0.56559 0.76128 0.0
C292 C 0.23808 0.70489 0.79637 0.0
C293 C 0.21851 0.72749 0.7678 0.0
C294 C 0.1706 0.62174 0.76267 0.0
C295 C 0.17581 0.696 0.73608 0.0
C296 C 0.10208 0.5341 0.72733 0.0
C297 C 0.13333 0.49299 0.79536 0.0
N298 N 0.15316 0.64476 0.73447 0.0
N299 N 0.1567 0.54383 0.79423 0.0
H300 H 0.37115 0.90279 0.82168 0.0
H301 H 0.58355 0.87758 0.69239 0.0
H302 H 0.43938 0.98897 0.70544 0.0
H303 H 0.48362 0.7706 0.78301 0.0
H304 H 0.53407 0.92041 0.69589 0.0
H305 H 0.41651 0.85786 0.80935 0.0
C306 C 0.3958 0.9123 0.79334 0.0
C307 C 0.40084 0.94923 0.76407 0.0
C308 C 0.52261 0.88719 0.71446 0.0
C309 C 0.45381 0.89762 0.74986 0.0
C310 C 0.55066 0.86259 0.71238 0.0
C311 C 0.53766 0.82054 0.73761 0.0
C312 C 0.48168 0.8699 0.74244 0.0
C313 C 0.49494 0.80283 0.76304 0.0
C314 C 0.42168 0.88637 0.78625 0.0
C315 C 0.43419 0.96053 0.7286 0.0
N316 N 0.46885 0.8279 0.76518 0.0
N317 N 0.45955 0.93473 0.72242 0.0
H318 H 0.31677 0.56369 0.77148 0.0
H319 H 0.58985 0.59459 0.82381 0.0
H320 H 0.33387 0.43504 0.79305 0.0
H321 H 0.56111 0.68157 0.72745 0.0
H322 H 0.49769 0.54272 0.82979 0.0
H323 H 0.40962 0.6169 0.77391 0.0
C324 C 0.34007 0.54689 0.77723 0.0
C325 C 0.31787 0.495 0.78157 0.0
C326 C 0.51196 0.57347 0.80761 0.0
C327 C 0.42325 0.55519 0.7852 0.0
C328 C 0.5643 0.60277 0.80408 0.0
C329 C 0.5831 0.64274 0.77557 0.0
C330 C 0.4788 0.5851 0.78315 0.0
C331 C 0.54837 0.65176 0.75059 0.0
C332 C 0.39282 0.57703 0.77846 0.0
C333 C 0.34965 0.47489 0.78902 0.0
N334 N 0.49811 0.62361 0.7553 0.0
N335 N 0.40073 0.505 0.79073 0.0
H336 H 0.29343 0.21025 0.37509 0.0
H337 H 0.06415 0.18155 0.20688 0.0
H338 H 0.24766 0.12206 0.23907 0.0
H339 H 0.14274 0.29922 0.3221 0.0
H340 H 0.12545 0.15349 0.21995 0.0
H341 H 0.23066 0.23506 0.35966 0.0
C342 C 0.26972 0.19572 0.34204 0.0
C343 C 0.27591 0.16441 0.30811 0.0
C344 C 0.12946 0.18566 0.24209 0.0
C345 C 0.20412 0.19307 0.29001 0.0
C346 C 0.09467 0.20177 0.23461 0.0
C347 C 0.0986 0.24275 0.26351 0.0
C348 C 0.16789 0.21035 0.27914 0.0
C349 C 0.13855 0.26758 0.29898 0.0
C350 C 0.23412 0.2102 0.33314 0.0
C351 C 0.24398 0.14632 0.26609 0.0
N352 N 0.17145 0.25072 0.30604 0.0
N353 N 0.20941 0.16113 0.25806 0.0
H354 H 0.89638 0.8041 0.24333 0.0
H355 H 0.18553 0.89113 0.31682 0.0
H356 H 0.94383 0.73678 0.34708 0.0
H357 H 0.14206 0.98177 0.24 0.0
H358 H 0.09603 0.83075 0.3235 0.0
H359 H 0.98551 0.8688 0.2391 0.0
C360 C 0.92549 0.80347 0.26569 0.0
C361 C 0.91299 0.76493 0.29525 0.0
C362 C 0.10604 0.8638 0.30508 0.0
C363 C 1.01439 0.83764 0.28998 0.0
C364 C 0.15705 0.89794 0.30095 0.0
C365 C 0.17095 0.94123 0.27778 0.0
C366 C 0.06878 0.87296 0.28562 0.0
C367 C 0.13271 0.94866 0.25811 0.0
C368 C 0.97625 0.84009 0.26309 0.0
C369 C 0.95197 0.76564 0.32348 0.0
N370 N 0.08328 0.91482 0.26243 0.0
N371 N 1.0009 0.80103 0.31979 0.0
H372 H 0.92139 0.13863 0.31175 0.0
H373 H 0.72629 0.84545 0.22984 0.0
H374 H 0.82029 0.08303 0.18429 0.0
H375 H 0.85152 0.89439 0.33493 0.0
H376 H 0.75566 0.93405 0.219 0.0
H377 H 0.89428 0.05052 0.3254 0.0
C378 C 0.89407 0.10795 0.28642 0.0
C379 C 0.87268 0.11786 0.24707 0.0
C380 C 0.77664 0.92548 0.24462 0.0
C381 C 0.84098 0.01781 0.26276 0.0
C382 C 0.75958 0.87495 0.25107 0.0
C383 C 0.78658 0.86282 0.28324 0.0
C384 C 0.82088 0.96408 0.27072 0.0
C385 C 0.8297 0.90238 0.30972 0.0
C386 C 0.8784 0.05782 0.29432 0.0
C387 C 0.83737 0.07695 0.21531 0.0
N388 N 0.84567 0.95138 0.30282 0.0
N389 N 0.82233 0.02878 0.22406 0.0
H390 H 0.15007 0.25076 0.69736 0.0
H391 H 0.23394 0.09019 0.84814 0.0
H392 H 0.14531 0.2462 0.84783 0.0
H393 H 0.26919 0.11629 0.70423 0.0
H394 H 0.19095 0.13849 0.84499 0.0
H395 H 0.18006 0.18969 0.69473 0.0
C396 C 0.15355 0.23536 0.72946 0.0
C397 C 0.14516 0.25292 0.77288 0.0
C398 C 0.20824 0.13403 0.81406 0.0
C399 C 0.18041 0.18501 0.77047 0.0
C400 C 0.23313 0.10676 0.81598 0.0
C401 C 0.25549 0.0998 0.77652 0.0
C402 C 0.20542 0.15448 0.77228 0.0
C403 C 0.25292 0.12153 0.73558 0.0
C404 C 0.17141 0.20131 0.72811 0.0
C405 C 0.15127 0.23314 0.81372 0.0
N406 N 0.22811 0.14797 0.73442 0.0
N407 N 0.16889 0.20052 0.81159 0.0
H408 H 0.13135 0.88472 0.71852 0.0
H409 H 0.89538 0.83256 0.86302 0.0
H410 H 0.13836 0.89588 0.87049 0.0
H411 H 0.87727 0.76025 0.72263 0.0
H412 H 0.98704 0.87037 0.86325 0.0
H413 H 0.04032 0.85562 0.71591 0.0
C414 C 0.11394 0.88243 0.75125 0.0
C415 C 0.1419 0.8927 0.79483 0.0
C416 C 0.96302 0.84604 0.83248 0.0
C417 C 0.03884 0.85919 0.79214 0.0
C418 C 0.91081 0.82428 0.83242 0.0
C419 C 0.87898 0.79287 0.79297 0.0
C420 C 0.98357 0.83705 0.79244 0.0
C421 C 0.90072 0.78374 0.75398 0.0
C422 C 0.0621 0.86521 0.74975 0.0
C423 C 0.11778 0.88833 0.83628 0.0
N424 N 0.95192 0.80607 0.75452 0.0
N425 N 0.06755 0.8718 0.83395 0.0
H426 H 0.89374 0.18265 0.81042 0.0
H427 H 0.81559 0.89189 0.75039 0.0
H428 H 0.96844 0.13247 0.7143 0.0
H429 H 0.74465 0.94167 0.85146 0.0
H430 H 0.87522 0.98048 0.74001 0.0
H431 H 0.83892 0.09458 0.82674 0.0
C432 C 0.89805 0.15297 0.79232 0.0
C433 C 0.93531 0.16458 0.76083 0.0
C434 C 0.84692 0.97207 0.76482 0.0
C435 C 0.87383 0.06435 0.77983 0.0
C436 C 0.81321 0.92154 0.77101 0.0
C437 C 0.7749 0.90959 0.8014 0.0
C438 C 0.84206 1.01075 0.7891 0.0
C439 C 0.77343 0.94936 0.82735 0.0
C440 C 0.8672 0.10286 0.80194 0.0
C441 C 0.93995 0.12499 0.7387 0.0
N442 N 0.80614 0.99818 0.82021 0.0
N443 N 0.90965 0.07667 0.74867 0.0
loop_
_geom_bond_atom_site_label_1
_geom_bond_atom_site_label_2
_geom_bond_distance
_geom_bond_site_symmetry_2
_ccdc_geom_bond_type
Tb0 O3 2.453 . S
Tb0 O4 2.596 . S
Tb0 O5 2.374 . S
Tb0 O13 2.343 . S
Tb0 O15 2.353 . S
Tb0 O17 2.427 . S
Tb0 O18 2.513 . S
C1 O5 1.251 . S
C1 O7 1.263 . S
Tb2 O4 2.343 . S
Tb2 O7 2.353 . S
Tb2 O10 2.427 1_545 S
Tb2 O11 2.513 1_545 S
Tb2 O12 2.453 . S
Tb2 O13 2.596 . S
Tb2 O14 2.374 . S
O3 Tb0 2.453 . S
O3 C19 1.245 . S
O4 Tb0 2.596 . S
O4 Tb2 2.343 . S
O4 C19 1.259 . S
O5 Tb0 2.374 . S
O5 C1 1.251 . S
C6 O10 1.275 . S
C6 O11 1.246 . S
O7 C1 1.263 . S
O7 Tb2 2.353 . S
C8 O12 1.245 . S
C8 O13 1.259 . S
C9 O14 1.250 . S
C9 O15 1.263 . S
O10 Tb2 2.427 1_565 S
O10 C6 1.275 . S
O11 Tb2 2.513 1_565 S
O11 C6 1.246 . S
O12 Tb2 2.453 . S
O12 C8 1.245 . S
O13 Tb0 2.343 . S
O13 Tb2 2.596 . S
O13 C8 1.259 . S
O14 Tb2 2.374 . S
O14 C9 1.250 . S
O15 Tb0 2.353 . S
O15 C9 1.263 . S
C16 O17 1.275 . S
C16 O18 1.246 . S
O17 Tb0 2.427 . S
O17 C16 1.275 . S
O18 Tb0 2.513 . S
O18 C16 1.246 . S
C19 O3 1.245 . S
C19 O4 1.259 . S
Tb20 O23 2.453 . S
Tb20 O24 2.596 . S
Tb20 O25 2.374 . S
Tb20 O33 2.343 . S
Tb20 O35 2.353 . S
Tb20 O37 2.427 . S
Tb20 O38 2.513 . S
C21 O25 1.251 . S
C21 O27 1.263 . S
Tb22 O24 2.343 . S
Tb22 O27 2.353 . S
Tb22 O30 2.427 . S
Tb22 O31 2.513 . S
Tb22 O32 2.453 . S
Tb22 O33 2.596 . S
Tb22 O34 2.374 . S
O23 Tb20 2.453 . S
O23 C39 1.245 . S
O24 Tb20 2.596 . S
O24 Tb22 2.343 . S
O24 C39 1.259 . S
O25 Tb20 2.374 . S
O25 C21 1.251 . S
C26 O30 1.275 . S
C26 O31 1.246 . S
O27 C21 1.263 . S
O27 Tb22 2.353 . S
C28 O32 1.245 . S
C28 O33 1.259 . S
C29 O34 1.250 . S
C29 O35 1.263 . S
O30 Tb22 2.427 . S
O30 C26 1.275 . S
O31 Tb22 2.513 . S
O31 C26 1.246 . S
O32 Tb22 2.453 . S
O32 C28 1.245 . S
O33 Tb20 2.343 . S
O33 Tb22 2.596 . S
O33 C28 1.259 . S
O34 Tb22 2.374 . S
O34 C29 1.250 . S
O35 Tb20 2.353 . S
O35 C29 1.263 . S
C36 O37 1.275 . S
C36 O38 1.246 . S
O37 Tb20 2.427 . S
O37 C36 1.275 . S
O38 Tb20 2.513 . S
O38 C36 1.246 . S
C39 O23 1.245 . S
C39 O24 1.259 . S
Tb40 O43 2.453 . S
Tb40 O44 2.596 . S
Tb40 O45 2.374 . S
Tb40 O53 2.343 . S
Tb40 O55 2.353 . S
Tb40 O57 2.427 . S
Tb40 O58 2.513 . S
C41 O45 1.251 . S
C41 O47 1.263 . S
Tb42 O44 2.343 . S
Tb42 O47 2.353 . S
Tb42 O50 2.427 1_655 S
Tb42 O51 2.513 1_655 S
Tb42 O52 2.453 . S
Tb42 O53 2.596 . S
Tb42 O54 2.374 . S
O43 Tb40 2.453 . S
O43 C59 1.245 . S
O44 Tb40 2.596 . S
O44 Tb42 2.343 . S
O44 C59 1.259 . S
O45 Tb40 2.374 . S
O45 C41 1.251 . S
C46 O50 1.275 . S
C46 O51 1.246 . S
O47 C41 1.263 . S
O47 Tb42 2.353 . S
C48 O52 1.245 . S
C48 O53 1.259 . S
C49 O54 1.250 . S
C49 O55 1.263 . S
O50 Tb42 2.427 1_455 S
O50 C46 1.275 . S
O51 Tb42 2.513 1_455 S
O51 C46 1.246 . S
O52 Tb42 2.453 . S
O52 C48 1.245 . S
O53 Tb40 2.343 . S
O53 Tb42 2.596 . S
O53 C48 1.259 . S
O54 Tb42 2.374 . S
O54 C49 1.250 . S
O55 Tb40 2.353 . S
O55 C49 1.263 . S
C56 O57 1.275 . S
C56 O58 1.246 . S
O57 Tb40 2.427 . S
O57 C56 1.275 . S
O58 Tb40 2.513 . S
O58 C56 1.246 . S
C59 O43 1.245 . S
C59 O44 1.259 . S
Tb60 O63 2.453 . S
Tb60 O64 2.596 . S
Tb60 O65 2.374 . S
Tb60 O73 2.343 . S
Tb60 O75 2.353 . S
Tb60 O77 2.427 1_455 S
Tb60 O78 2.513 1_455 S
C61 O65 1.251 . S
C61 O67 1.263 . S
Tb62 O64 2.343 . S
Tb62 O67 2.353 . S
Tb62 O70 2.427 . S
Tb62 O71 2.513 . S
Tb62 O72 2.453 . S
Tb62 O73 2.596 . S
Tb62 O74 2.374 . S
O63 Tb60 2.453 . S
O63 C79 1.245 . S
O64 Tb60 2.596 . S
O64 Tb62 2.343 . S
O64 C79 1.259 . S
O65 Tb60 2.374 . S
O65 C61 1.251 . S
C66 O70 1.275 . S
C66 O71 1.246 . S
O67 C61 1.263 . S
O67 Tb62 2.353 . S
C68 O72 1.245 . S
C68 O73 1.259 . S
C69 O74 1.250 . S
C69 O75 1.263 . S
O70 Tb62 2.427 . S
O70 C66 1.275 . S
O71 Tb62 2.513 . S
O71 C66 1.246 . S
O72 Tb62 2.453 . S
O72 C68 1.245 . S
O73 Tb60 2.343 . S
O73 Tb62 2.596 . S
O73 C68 1.259 . S
O74 Tb62 2.374 . S
O74 C69 1.250 . S
O75 Tb60 2.353 . S
O75 C69 1.263 . S
C76 O77 1.275 . S
C76 O78 1.246 . S
O77 Tb60 2.427 1_655 S
O77 C76 1.275 . S
O78 Tb60 2.513 1_655 S
O78 C76 1.246 . S
C79 O63 1.245 . S
C79 O64 1.259 . S
Tb80 O83 2.453 . S
Tb80 O84 2.596 . S
Tb80 O85 2.374 . S
Tb80 O93 2.343 . S
Tb80 O95 2.353 . S
Tb80 O97 2.427 1_565 S
Tb80 O98 2.513 1_565 S
C81 O85 1.251 . S
C81 O87 1.263 . S
Tb82 O84 2.343 . S
Tb82 O87 2.353 . S
Tb82 O90 2.427 . S
Tb82 O91 2.513 . S
Tb82 O92 2.453 . S
Tb82 O93 2.596 . S
Tb82 O94 2.374 . S
O83 Tb80 2.453 . S
O83 C99 1.245 . S
O84 Tb80 2.596 . S
O84 Tb82 2.343 . S
O84 C99 1.259 . S
O85 Tb80 2.374 . S
O85 C81 1.251 . S
C86 O90 1.275 . S
C86 O91 1.246 . S
O87 C81 1.263 . S
O87 Tb82 2.353 . S
C88 O92 1.245 . S
C88 O93 1.259 . S
C89 O94 1.250 . S
C89 O95 1.263 . S
O90 Tb82 2.427 . S
O90 C86 1.275 . S
O91 Tb82 2.513 . S
O91 C86 1.246 . S
O92 Tb82 2.453 . S
O92 C88 1.245 . S
O93 Tb80 2.343 . S
O93 Tb82 2.596 . S
O93 C88 1.259 . S
O94 Tb82 2.374 . S
O94 C89 1.250 . S
O95 Tb80 2.353 . S
O95 C89 1.263 . S
C96 O97 1.275 . S
C96 O98 1.246 . S
O97 Tb80 2.427 1_545 S
O97 C96 1.275 . S
O98 Tb80 2.513 1_545 S
O98 C96 1.246 . S
C99 O83 1.245 . S
C99 O84 1.259 . S
Tb100 O103 2.453 . S
Tb100 O104 2.596 . S
Tb100 O105 2.374 . S
Tb100 O113 2.343 . S
Tb100 O115 2.353 . S
Tb100 O117 2.427 . S
Tb100 O118 2.513 . S
C101 O105 1.251 . S
C101 O107 1.263 . S
Tb102 O104 2.343 . S
Tb102 O107 2.353 . S
Tb102 O110 2.427 . S
Tb102 O111 2.513 . S
Tb102 O112 2.453 . S
Tb102 O113 2.596 . S
Tb102 O114 2.374 . S
O103 Tb100 2.453 . S
O103 C119 1.245 . S
O104 Tb100 2.596 . S
O104 Tb102 2.343 . S
O104 C119 1.259 . S
O105 Tb100 2.374 . S
O105 C101 1.251 . S
C106 O110 1.275 . S
C106 O111 1.246 . S
O107 C101 1.263 . S
O107 Tb102 2.353 . S
C108 O112 1.245 . S
C108 O113 1.259 . S
C109 O114 1.250 . S
C109 O115 1.263 . S
O110 Tb102 2.427 . S
O110 C106 1.275 . S
O111 Tb102 2.513 . S
O111 C106 1.246 . S
O112 Tb102 2.453 . S
O112 C108 1.245 . S
O113 Tb100 2.343 . S
O113 Tb102 2.596 . S
O113 C108 1.259 . S
O114 Tb102 2.374 . S
O114 C109 1.250 . S
O115 Tb100 2.353 . S
O115 C109 1.263 . S
C116 O117 1.275 . S
C116 O118 1.246 . S
O117 Tb100 2.427 . S
O117 C116 1.275 . S
O118 Tb100 2.513 . S
O118 C116 1.246 . S
C119 O103 1.245 . S
C119 O104 1.259 . S
H120 C126 0.930 . S
H121 C130 0.930 . S
H122 C135 0.929 . S
H123 C133 0.929 . S
H124 C128 0.929 1_556 S
H125 C134 0.929 1_554 S
C126 H120 0.930 . S
C126 C127 1.367 . S
C126 C134 1.378 . S
C127 C126 1.367 . S
C127 C135 1.433 . S
C128 H124 0.929 1_554 S
C128 C130 1.378 . S
C128 C132 1.350 . S
C129 C132 1.463 1_566 S
C129 C134 1.350 . S
C129 N137 1.427 1_565 S
C130 H121 0.930 . S
C130 C128 1.378 . S
C130 C131 1.367 . S
C131 C130 1.367 . S
C131 C133 1.433 . S
C132 C128 1.350 . S
C132 C129 1.463 1_544 S
C132 N136 1.427 1_545 S
C133 H123 0.929 . S
C133 C131 1.433 . S
C133 N136 1.384 1_545 S
C134 H125 0.929 1_556 S
C134 C126 1.378 . S
C134 C129 1.350 . S
C135 H122 0.929 . S
C135 C127 1.433 . S
C135 N137 1.384 1_565 S
N136 C132 1.427 1_565 S
N136 C133 1.384 1_565 S
N137 C129 1.427 1_545 S
N137 C135 1.384 1_545 S
H138 C144 0.930 . S
H139 C148 0.930 . S
H140 C153 0.929 . S
H141 C151 0.929 . S
H142 C146 0.929 . S
H143 C152 0.929 . S
C144 H138 0.930 . S
C144 C145 1.367 . S
C144 C152 1.378 . S
C145 C144 1.367 . S
C145 C153 1.433 . S
C146 H142 0.929 . S
C146 C148 1.378 . S
C146 C150 1.350 . S
C147 C150 1.463 . S
C147 C152 1.350 . S
C147 N155 1.427 . S
C148 H139 0.930 . S
C148 C146 1.378 . S
C148 C149 1.367 . S
C149 C148 1.367 . S
C149 C151 1.433 . S
C150 C146 1.350 . S
C150 C147 1.463 . S
C150 N154 1.427 . S
C151 H141 0.929 . S
C151 C149 1.433 . S
C151 N154 1.384 . S
C152 H143 0.929 . S
C152 C144 1.378 . S
C152 C147 1.350 . S
C153 H140 0.929 . S
C153 C145 1.433 . S
C153 N155 1.384 . S
N154 C150 1.427 . S
N154 C151 1.384 . S
N155 C147 1.427 . S
N155 C153 1.384 . S
H156 C162 0.930 . S
H157 C166 0.930 . S
H158 C171 0.929 . S
H159 C169 0.929 . S
H160 C164 0.929 1_655 S
H161 C170 0.929 1_455 S
C162 H156 0.930 . S
C162 C163 1.367 . S
C162 C170 1.378 . S
C163 C162 1.367 . S
C163 C171 1.433 . S
C164 H160 0.929 1_455 S
C164 C166 1.378 . S
C164 C168 1.350 . S
C165 C168 1.463 1_654 S
C165 C170 1.350 . S
C165 N173 1.427 . S
C166 H157 0.930 . S
C166 C164 1.378 . S
C166 C167 1.367 . S
C167 C166 1.367 . S
C167 C169 1.433 . S
C168 C164 1.350 . S
C168 C165 1.463 1_456 S
C168 N172 1.427 . S
C169 H159 0.929 . S
C169 C167 1.433 . S
C169 N172 1.384 . S
C170 H161 0.929 1_655 S
C170 C162 1.378 . S
C170 C165 1.350 . S
C171 H158 0.929 . S
C171 C163 1.433 . S
C171 N173 1.384 . S
N172 C168 1.427 . S
N172 C169 1.384 . S
N173 C165 1.427 . S
N173 C171 1.384 . S
H174 C180 0.930 . S
H175 C184 0.930 . S
H176 C189 0.929 . S
H177 C187 0.929 . S
H178 C182 0.929 . S
H179 C188 0.929 . S
C180 H174 0.930 . S
C180 C181 1.367 . S
C180 C188 1.378 1_545 S
C181 C180 1.367 . S
C181 C189 1.433 . S
C182 H178 0.929 . S
C182 C184 1.378 1_545 S
C182 C186 1.350 1_545 S
C183 C186 1.463 1_545 S
C183 C188 1.350 1_545 S
C183 N191 1.427 . S
C184 H175 0.930 . S
C184 C182 1.378 1_565 S
C184 C185 1.367 . S
C185 C184 1.367 . S
C185 C187 1.433 . S
C186 C182 1.350 1_565 S
C186 C183 1.463 1_565 S
C186 N190 1.427 . S
C187 H177 0.929 . S
C187 C185 1.433 . S
C187 N190 1.384 . S
C188 H179 0.929 . S
C188 C180 1.378 1_565 S
C188 C183 1.350 1_565 S
C189 H176 0.929 . S
C189 C181 1.433 . S
C189 N191 1.384 . S
N190 C186 1.427 . S
N190 C187 1.384 . S
N191 C183 1.427 . S
N191 C189 1.384 . S
H192 C198 0.930 . S
H193 C202 0.930 . S
H194 C207 0.929 . S
H195 C205 0.929 . S
H196 C200 0.929 . S
H197 C206 0.929 . S
C198 H192 0.930 . S
C198 C199 1.367 . S
C198 C206 1.378 . S
C199 C198 1.367 . S
C199 C207 1.433 . S
C200 H196 0.929 . S
C200 C202 1.378 . S
C200 C204 1.350 . S
C201 C204 1.463 1_556 S
C201 C206 1.350 . S
C201 N209 1.427 . S
C202 H193 0.930 . S
C202 C200 1.378 . S
C202 C203 1.367 . S
C203 C202 1.367 . S
C203 C205 1.433 . S
C204 C200 1.350 . S
C204 C201 1.463 1_554 S
C204 N208 1.427 . S
C205 H195 0.929 . S
C205 C203 1.433 . S
C205 N208 1.384 . S
C206 H197 0.929 . S
C206 C198 1.378 . S
C206 C201 1.350 . S
C207 H194 0.929 . S
C207 C199 1.433 . S
C207 N209 1.384 . S
N208 C204 1.427 . S
N208 C205 1.384 . S
N209 C201 1.427 . S
N209 C207 1.384 . S
H210 C216 0.930 . S
H211 C220 0.930 . S
H212 C225 0.929 . S
H213 C223 0.929 . S
H214 C218 0.929 1_655 S
H215 C224 0.929 1_455 S
C216 H210 0.930 . S
C216 C217 1.367 . S
C216 C224 1.378 . S
C217 C216 1.367 . S
C217 C225 1.433 . S
C218 H214 0.929 1_455 S
C218 C220 1.378 . S
C218 C222 1.350 . S
C219 C222 1.463 1_655 S
C219 C224 1.350 . S
C219 N227 1.427 . S
C220 H211 0.930 . S
C220 C218 1.378 . S
C220 C221 1.367 . S
C221 C220 1.367 . S
C221 C223 1.433 . S
C222 C218 1.350 . S
C222 C219 1.463 1_455 S
C222 N226 1.427 . S
C223 H213 0.929 . S
C223 C221 1.433 . S
C223 N226 1.384 . S
C224 H215 0.929 1_655 S
C224 C216 1.378 . S
C224 C219 1.350 . S
C225 H212 0.929 . S
C225 C217 1.433 . S
C225 N227 1.384 . S
N226 C222 1.427 . S
N226 C223 1.384 . S
N227 C219 1.427 . S
N227 C225 1.384 . S
H228 C234 0.930 . S
H229 C238 0.930 . S
H230 C243 0.929 . S
H231 C241 0.929 . S
H232 C236 0.929 . S
H233 C242 0.929 . S
C234 H228 0.930 . S
C234 C235 1.367 . S
C234 C242 1.378 . S
C235 C234 1.367 . S
C235 C243 1.433 . S
C236 H232 0.929 . S
C236 C238 1.378 . S
C236 C240 1.350 . S
C237 C240 1.463 . S
C237 C242 1.350 . S
C237 N245 1.427 . S
C238 H229 0.930 . S
C238 C236 1.378 . S
C238 C239 1.367 . S
C239 C238 1.367 . S
C239 C241 1.433 . S
C240 C236 1.350 . S
C240 C237 1.463 . S
C240 N244 1.427 . S
C241 H231 0.929 . S
C241 C239 1.433 . S
C241 N244 1.384 . S
C242 H233 0.929 . S
C242 C234 1.378 . S
C242 C237 1.350 . S
C243 H230 0.929 . S
C243 C235 1.433 . S
C243 N245 1.384 . S
N244 C240 1.427 . S
N244 C241 1.384 . S
N245 C237 1.427 . S
N245 C243 1.384 . S
H246 C252 0.930 . S
H247 C256 0.930 . S
H248 C261 0.929 . S
H249 C259 0.929 . S
H250 C254 0.929 . S
H251 C260 0.929 . S
C252 H246 0.930 . S
C252 C253 1.367 . S
C252 C260 1.378 . S
C253 C252 1.367 . S
C253 C261 1.433 . S
C254 H250 0.929 . S
C254 C256 1.378 . S
C254 C258 1.350 . S
C255 C258 1.463 . S
C255 C260 1.350 . S
C255 N263 1.427 . S
C256 H247 0.930 . S
C256 C254 1.378 . S
C256 C257 1.367 . S
C257 C256 1.367 . S
C257 C259 1.433 . S
C258 C254 1.350 . S
C258 C255 1.463 . S
C258 N262 1.427 . S
C259 H249 0.929 . S
C259 C257 1.433 . S
C259 N262 1.384 . S
C260 H251 0.929 . S
C260 C252 1.378 . S
C260 C255 1.350 . S
C261 H248 0.929 . S
C261 C253 1.433 . S
C261 N263 1.384 . S
N262 C258 1.427 . S
N262 C259 1.384 . S
N263 C255 1.427 . S
N263 C261 1.384 . S
H264 C270 0.930 . S
H265 C274 0.930 . S
H266 C279 0.929 . S
H267 C277 0.929 . S
H268 C272 0.929 . S
H269 C278 0.929 . S
C270 H264 0.930 . S
C270 C271 1.367 . S
C270 C278 1.378 . S
C271 C270 1.367 . S
C271 C279 1.433 . S
C272 H268 0.929 . S
C272 C274 1.378 . S
C272 C276 1.350 . S
C273 C276 1.463 . S
C273 C278 1.350 . S
C273 N281 1.427 . S
C274 H265 0.930 . S
C274 C272 1.378 . S
C274 C275 1.367 . S
C275 C274 1.367 . S
C275 C277 1.433 . S
C276 C272 1.350 . S
C276 C273 1.463 . S
C276 N280 1.427 . S
C277 H267 0.929 . S
C277 C275 1.433 . S
C277 N280 1.384 . S
C278 H269 0.929 . S
C278 C270 1.378 . S
C278 C273 1.350 . S
C279 H266 0.929 . S
C279 C271 1.433 . S
C279 N281 1.384 . S
N280 C276 1.427 . S
N280 C277 1.384 . S
N281 C273 1.427 . S
N281 C279 1.384 . S
H282 C288 0.930 . S
H283 C292 0.930 . S
H284 C297 0.929 . S
H285 C295 0.929 . S
H286 C290 0.929 . S
H287 C296 0.929 . S
C288 H282 0.930 . S
C288 C289 1.367 . S
C288 C296 1.378 . S
C289 C288 1.367 . S
C289 C297 1.433 . S
C290 H286 0.929 . S
C290 C292 1.378 . S
C290 C294 1.350 . S
C291 C294 1.463 . S
C291 C296 1.350 . S
C291 N299 1.427 . S
C292 H283 0.930 . S
C292 C290 1.378 . S
C292 C293 1.367 . S
C293 C292 1.367 . S
C293 C295 1.433 . S
C294 C290 1.350 . S
C294 C291 1.463 . S
C294 N298 1.427 . S
C295 H285 0.929 . S
C295 C293 1.433 . S
C295 N298 1.384 . S
C296 H287 0.929 . S
C296 C288 1.378 . S
C296 C291 1.350 . S
C297 H284 0.929 . S
C297 C289 1.433 . S
C297 N299 1.384 . S
N298 C294 1.427 . S
N298 C295 1.384 . S
N299 C291 1.427 . S
N299 C297 1.384 . S
H300 C306 0.930 . S
H301 C310 0.930 . S
H302 C315 0.929 . S
H303 C313 0.929 . S
H304 C308 0.929 . S
H305 C314 0.929 . S
C306 H300 0.930 . S
C306 C307 1.367 . S
C306 C314 1.378 . S
C307 C306 1.367 . S
C307 C315 1.433 . S
C308 H304 0.929 . S
C308 C310 1.378 . S
C308 C312 1.350 . S
C309 C312 1.463 . S
C309 C314 1.350 . S
C309 N317 1.427 . S
C310 H301 0.930 . S
C310 C308 1.378 . S
C310 C311 1.367 . S
C311 C310 1.367 . S
C311 C313 1.433 . S
C312 C308 1.350 . S
C312 C309 1.463 . S
C312 N316 1.427 . S
C313 H303 0.929 . S
C313 C311 1.433 . S
C313 N316 1.384 . S
C314 H305 0.929 . S
C314 C306 1.378 . S
C314 C309 1.350 . S
C315 H302 0.929 . S
C315 C307 1.433 . S
C315 N317 1.384 . S
N316 C312 1.427 . S
N316 C313 1.384 . S
N317 C309 1.427 . S
N317 C315 1.384 . S
H318 C324 0.930 . S
H319 C328 0.930 . S
H320 C333 0.929 . S
H321 C331 0.929 . S
H322 C326 0.929 . S
H323 C332 0.929 . S
C324 H318 0.930 . S
C324 C325 1.367 . S
C324 C332 1.378 . S
C325 C324 1.367 . S
C325 C333 1.433 . S
C326 H322 0.929 . S
C326 C328 1.378 . S
C326 C330 1.350 . S
C327 C330 1.463 . S
C327 C332 1.350 . S
C327 N335 1.427 . S
C328 H319 0.930 . S
C328 C326 1.378 . S
C328 C329 1.367 . S
C329 C328 1.367 . S
C329 C331 1.433 . S
C330 C326 1.350 . S
C330 C327 1.463 . S
C330 N334 1.427 . S
C331 H321 0.929 . S
C331 C329 1.433 . S
C331 N334 1.384 . S
C332 H323 0.929 . S
C332 C324 1.378 . S
C332 C327 1.350 . S
C333 H320 0.929 . S
C333 C325 1.433 . S
C333 N335 1.384 . S
N334 C330 1.427 . S
N334 C331 1.384 . S
N335 C327 1.427 . S
N335 C333 1.384 . S
H336 C342 0.930 . S
H337 C346 0.930 . S
H338 C351 0.929 . S
H339 C349 0.929 . S
H340 C344 0.929 . S
H341 C350 0.929 . S
C342 H336 0.930 . S
C342 C343 1.367 . S
C342 C350 1.378 . S
C343 C342 1.367 . S
C343 C351 1.433 . S
C344 H340 0.929 . S
C344 C346 1.378 . S
C344 C348 1.350 . S
C345 C348 1.463 . S
C345 C350 1.350 . S
C345 N353 1.427 . S
C346 H337 0.930 . S
C346 C344 1.378 . S
C346 C347 1.367 . S
C347 C346 1.367 . S
C347 C349 1.433 . S
C348 C344 1.350 . S
C348 C345 1.463 . S
C348 N352 1.427 . S
C349 H339 0.929 . S
C349 C347 1.433 . S
C349 N352 1.384 . S
C350 H341 0.929 . S
C350 C342 1.378 . S
C350 C345 1.350 . S
C351 H338 0.929 . S
C351 C343 1.433 . S
C351 N353 1.384 . S
N352 C348 1.427 . S
N352 C349 1.384 . S
N353 C345 1.427 . S
N353 C351 1.384 . S
H354 C360 0.930 . S
H355 C364 0.930 . S
H356 C369 0.929 . S
H357 C367 0.947 . S
H358 C362 0.929 . S
H359 C368 0.929 . S
C360 H354 0.930 . S
C360 C361 1.367 . S
C360 C368 1.378 . S
C361 C360 1.367 . S
C361 C369 1.433 . S
C362 H358 0.929 . S
C362 C364 1.378 . S
C362 C366 1.350 . S
C363 C366 1.463 1_655 S
C363 C368 1.350 . S
C363 N371 1.427 . S
C364 H355 0.930 . S
C364 C362 1.378 . S
C364 C365 1.367 . S
C365 C364 1.367 . S
C365 C367 1.433 . S
C366 C362 1.350 . S
C366 C363 1.463 1_455 S
C366 N370 1.427 . S
C367 H357 0.947 . S
C367 C365 1.433 . S
C367 N370 1.384 . S
C368 H359 0.929 . S
C368 C360 1.378 . S
C368 C363 1.350 . S
C369 H356 0.929 . S
C369 C361 1.433 . S
C369 N371 1.384 . S
N370 C366 1.427 . S
N370 C367 1.384 . S
N371 C363 1.427 . S
N371 C369 1.384 . S
H372 C378 0.930 . S
H373 C382 0.930 . S
H374 C387 0.929 . S
H375 C385 0.929 . S
H376 C380 0.929 . S
H377 C386 0.929 . S
C378 H372 0.930 . S
C378 C379 1.367 . S
C378 C386 1.378 . S
C379 C378 1.367 . S
C379 C387 1.433 . S
C380 H376 0.929 . S
C380 C382 1.378 . S
C380 C384 1.350 . S
C381 C384 1.463 1_545 S
C381 C386 1.350 . S
C381 N389 1.427 . S
C382 H373 0.930 . S
C382 C380 1.378 . S
C382 C383 1.367 . S
C383 C382 1.367 . S
C383 C385 1.433 . S
C384 C380 1.350 . S
C384 C381 1.463 1_565 S
C384 N388 1.427 . S
C385 H375 0.929 . S
C385 C383 1.433 . S
C385 N388 1.384 . S
C386 H377 0.929 . S
C386 C378 1.378 . S
C386 C381 1.350 . S
C387 H374 0.929 . S
C387 C379 1.433 . S
C387 N389 1.384 . S
N388 C384 1.427 . S
N388 C385 1.384 . S
N389 C381 1.427 . S
N389 C387 1.384 . S
H390 C396 0.930 . S
H391 C400 0.930 . S
H392 C405 0.929 . S
H393 C403 0.929 . S
H394 C398 0.929 . S
H395 C404 0.929 . S
C396 H390 0.930 . S
C396 C397 1.367 . S
C396 C404 1.378 . S
C397 C396 1.367 . S
C397 C405 1.433 . S
C398 H394 0.929 . S
C398 C400 1.378 . S
C398 C402 1.350 . S
C399 C402 1.463 . S
C399 C404 1.350 . S
C399 N407 1.427 . S
C400 H391 0.930 . S
C400 C398 1.378 . S
C400 C401 1.367 . S
C401 C400 1.367 . S
C401 C403 1.433 . S
C402 C398 1.350 . S
C402 C399 1.463 . S
C402 N406 1.427 . S
C403 H393 0.929 . S
C403 C401 1.433 . S
C403 N406 1.384 . S
C404 H395 0.929 . S
C404 C396 1.378 . S
C404 C399 1.350 . S
C405 H392 0.929 . S
C405 C397 1.433 . S
C405 N407 1.384 . S
N406 C402 1.427 . S
N406 C403 1.384 . S
N407 C399 1.427 . S
N407 C405 1.384 . S
H408 C414 0.930 . S
H409 C418 0.930 . S
H410 C423 0.929 . S
H411 C421 0.929 . S
H412 C416 0.929 . S
H413 C422 0.929 . S
C414 H408 0.930 . S
C414 C415 1.367 . S
C414 C422 1.378 . S
C415 C414 1.367 . S
C415 C423 1.433 . S
C416 H412 0.929 . S
C416 C418 1.378 . S
C416 C420 1.350 . S
C417 C420 1.463 1_455 S
C417 C422 1.350 . S
C417 N425 1.427 . S
C418 H409 0.930 . S
C418 C416 1.378 . S
C418 C419 1.367 . S
C419 C418 1.367 . S
C419 C421 1.433 . S
C420 C416 1.350 . S
C420 C417 1.463 1_655 S
C420 N424 1.427 . S
C421 H411 0.929 . S
C421 C419 1.433 . S
C421 N424 1.384 . S
C422 H413 0.929 . S
C422 C414 1.378 . S
C422 C417 1.350 . S
C423 H410 0.929 . S
C423 C415 1.433 . S
C423 N425 1.384 . S
N424 C420 1.427 . S
N424 C421 1.384 . S
N425 C417 1.427 . S
N425 C423 1.384 . S
H426 C432 0.930 . S
H427 C436 0.930 . S
H428 C441 0.929 . S
H429 C439 0.929 . S
H430 C434 0.929 . S
H431 C440 0.929 . S
C432 H426 0.930 . S
C432 C433 1.367 . S
C432 C440 1.378 . S
C433 C432 1.367 . S
C433 C441 1.433 . S
C434 H430 0.929 . S
C434 C436 1.378 . S
C434 C438 1.350 . S
C435 C438 1.463 1_545 S
C435 C440 1.350 . S
C435 N443 1.427 . S
C436 H427 0.930 . S
C436 C434 1.378 . S
C436 C437 1.367 . S
C437 C436 1.367 . S
C437 C439 1.433 . S
C438 C434 1.350 . S
C438 C435 1.463 1_565 S
C438 N442 1.427 . S
C439 H429 0.929 . S
C439 C437 1.433 . S
C439 N442 1.384 . S
C440 H431 0.929 . S
C440 C432 1.378 . S
C440 C435 1.350 . S
C441 H428 0.929 . S
C441 C433 1.433 . S
C441 N443 1.384 . S
N442 C438 1.427 . S
N442 C439 1.384 . S
N443 C435 1.427 . S
N443 C441 1.384 . S
C127 C89 1.889 . S
C131 C9 1.865 . S
C145 C101 2.032 . S
C149 C21 2.065 . S
C163 C49 2.237 . S
C167 C69 2.275 . S
C181 C1 2.345 . S
C185 C81 2.301 . S
C199 C109 2.157 . S
C203 C29 2.190 . S
C217 C41 1.939 . S
C221 C61 1.913 . S
C235 C8 1.778 . S
C239 C56 1.671 . S
C253 C39 1.773 . S
C257 C16 1.657 . S
C271 C48 1.778 . S
C275 C26 1.664 . S
C289 C79 1.783 . S
C293 C86 1.668 . S
C307 C99 1.772 . S
C311 C106 1.669 . S
C325 C66 1.701 . S
C329 C119 1.777 . S
C343 C19 1.033 . S
C347 C46 1.153 . S
C361 C28 1.036 . S
C365 C6 1.144 . S
C379 C59 1.013 . S
C383 C36 1.139 . S
C397 C68 1.007 . S
C401 C96 1.146 . S
C415 C88 1.002 . S
C419 C116 1.139 . S
C433 C76 1.170 . S
C437 C108 1.032 . S
