# Generated by pormake.
# Topology unp, (4)-cn, num edge types: 1
# Building blocks:
#     Node 0, Type 0, BuildingBlock: GALJAG_clean_sbu_0, # of connection points: 4
#     Node 1, Type 0, BuildingBlock: GALJAG_clean_sbu_0, # of connection points: 4
#     Node 2, Type 0, BuildingBlock: GALJAG_clean_sbu_0, # of connection points: 4
#     Node 3, Type 0, BuildingBlock: GALJAG_clean_sbu_0, # of connection points: 4
#     Node 4, Type 0, BuildingBlock: GALJAG_clean_sbu_0, # of connection points: 4
#     Node 5, Type 0, BuildingBlock: GALJAG_clean_sbu_0, # of connection points: 4
#     Node 6, Type 0, BuildingBlock: GALJAG_clean_sbu_0, # of connection points: 4
#     Node 7, Type 0, BuildingBlock: GALJAG_clean_sbu_0, # of connection points: 4
#     Node 8, Type 0, BuildingBlock: GALJAG_clean_sbu_0, # of connection points: 4
#     Node 9, Type 0, BuildingBlock: GALJAG_clean_sbu_0, # of connection points: 4
#     Node 10, Type 0, BuildingBlock: GALJAG_clean_sbu_0, # of connection points: 4
#     Node 11, Type 0, BuildingBlock: GALJAG_clean_sbu_0, # of connection points: 4
#     Node 12, Type 0, BuildingBlock: GALJAG_clean_sbu_0, # of connection points: 4
#     Node 13, Type 0, BuildingBlock: GALJAG_clean_sbu_0, # of connection points: 4
#     Node 14, Type 0, BuildingBlock: GALJAG_clean_sbu_0, # of connection points: 4
#     Node 15, Type 0, BuildingBlock: GALJAG_clean_sbu_0, # of connection points: 4
#     Node 16, Type 0, BuildingBlock: GALJAG_clean_sbu_0, # of connection points: 4
#     Node 17, Type 0, BuildingBlock: GALJAG_clean_sbu_0, # of connection points: 4
#     Edge 18, Type (0, 0), BuildingBlock: TEMPAE_clean_linker_10, # of connection points: 2
#     Edge 19, Type (0, 0), BuildingBlock: TEMPAE_clean_linker_10, # of connection points: 2
#     Edge 20, Type (0, 0), BuildingBlock: TEMPAE_clean_linker_10, # of connection points: 2
#     Edge 21, Type (0, 0), BuildingBlock: TEMPAE_clean_linker_10, # of connection points: 2
#     Edge 22, Type (0, 0), BuildingBlock: TEMPAE_clean_linker_10, # of connection points: 2
#     Edge 23, Type (0, 0), BuildingBlock: TEMPAE_clean_linker_10, # of connection points: 2
#     Edge 24, Type (0, 0), BuildingBlock: TEMPAE_clean_linker_10, # of connection points: 2
#     Edge 25, Type (0, 0), BuildingBlock: TEMPAE_clean_linker_10, # of connection points: 2
#     Edge 26, Type (0, 0), BuildingBlock: TEMPAE_clean_linker_10, # of connection points: 2
#     Edge 27, Type (0, 0), BuildingBlock: TEMPAE_clean_linker_10, # of connection points: 2
#     Edge 28, Type (0, 0), BuildingBlock: TEMPAE_clean_linker_10, # of connection points: 2
#     Edge 29, Type (0, 0), BuildingBlock: TEMPAE_clean_linker_10, # of connection points: 2
#     Edge 30, Type (0, 0), BuildingBlock: TEMPAE_clean_linker_10, # of connection points: 2
#     Edge 31, Type (0, 0), BuildingBlock: TEMPAE_clean_linker_10, # of connection points: 2
#     Edge 32, Type (0, 0), BuildingBlock: TEMPAE_clean_linker_10, # of connection points: 2
#     Edge 33, Type (0, 0), BuildingBlock: TEMPAE_clean_linker_10, # of connection points: 2
#     Edge 34, Type (0, 0), BuildingBlock: TEMPAE_clean_linker_10, # of connection points: 2
#     Edge 35, Type (0, 0), BuildingBlock: TEMPAE_clean_linker_10, # of connection points: 2
#     Edge 36, Type (0, 0), BuildingBlock: TEMPAE_clean_linker_10, # of connection points: 2
#     Edge 37, Type (0, 0), BuildingBlock: TEMPAE_clean_linker_10, # of connection points: 2
#     Edge 38, Type (0, 0), BuildingBlock: TEMPAE_clean_linker_10, # of connection points: 2
#     Edge 39, Type (0, 0), BuildingBlock: TEMPAE_clean_linker_10, # of connection points: 2
#     Edge 40, Type (0, 0), BuildingBlock: TEMPAE_clean_linker_10, # of connection points: 2
#     Edge 41, Type (0, 0), BuildingBlock: TEMPAE_clean_linker_10, # of connection points: 2
#     Edge 42, Type (0, 0), BuildingBlock: TEMPAE_clean_linker_10, # of connection points: 2
#     Edge 43, Type (0, 0), BuildingBlock: TEMPAE_clean_linker_10, # of connection points: 2
#     Edge 44, Type (0, 0), BuildingBlock: TEMPAE_clean_linker_10, # of connection points: 2
#     Edge 45, Type (0, 0), BuildingBlock: TEMPAE_clean_linker_10, # of connection points: 2
#     Edge 46, Type (0, 0), BuildingBlock: TEMPAE_clean_linker_10, # of connection points: 2
#     Edge 47, Type (0, 0), BuildingBlock: TEMPAE_clean_linker_10, # of connection points: 2
#     Edge 48, Type (0, 0), BuildingBlock: TEMPAE_clean_linker_10, # of connection points: 2
#     Edge 49, Type (0, 0), BuildingBlock: TEMPAE_clean_linker_10, # of connection points: 2
#     Edge 50, Type (0, 0), BuildingBlock: TEMPAE_clean_linker_10, # of connection points: 2
#     Edge 51, Type (0, 0), BuildingBlock: TEMPAE_clean_linker_10, # of connection points: 2
#     Edge 52, Type (0, 0), BuildingBlock: TEMPAE_clean_linker_10, # of connection points: 2
#     Edge 53, Type (0, 0), BuildingBlock: TEMPAE_clean_linker_10, # of connection points: 2
# Relax obj value: 0.397
# Max RMSD: 0.139
# Mean RMSD: 0.139
data_MOF--net-unp--node1-GALJAG_clean_sbu_0--edge1-TEMPAE_clean_linker_10
_symmetry_space_group_name_H-M    P1
_symmetry_Int_Tables_number       1
_symmetry_cell_setting            triclinic
loop_
_symmetry_equiv_pos_as_xyz
'x, y, z'
_cell_length_a     50.048502
_cell_length_b     50.056558
_cell_length_c     42.979518
_cell_angle_alpha  90.021867
_cell_angle_beta   89.978727
_cell_angle_gamma 119.98685
loop_
_atom_site_label
_atom_site_type_symbol
_atom_site_fract_x
_atom_site_fract_y
_atom_site_fract_z
_atom_type_partial_charge
In0 In 0.17018 0.16539 0.1783 0.0
O1 O 0.20573 0.21684 0.17534 0.0
O2 O 0.21945 0.18753 0.19682 0.0
C3 C 0.1252 0.1708 0.20769 0.0
C4 C 0.16738 0.16113 0.11573 0.0
C5 C 0.15618 0.1073 0.19271 0.0
O6 O 0.1387 0.15794 0.22001 0.0
O7 O 0.13628 0.18322 0.18182 0.0
O8 O 0.14541 0.11395 0.16934 0.0
O9 O 0.17468 0.13018 0.20895 0.0
C10 C 0.22729 0.21431 0.18742 0.0
O11 O 0.19021 0.164 0.131 0.0
O12 O 0.14588 0.15995 0.13206 0.0
In13 In 0.84237 0.00568 0.18206 0.0
O14 O 0.79109 0.99054 0.1801 0.0
O15 O 0.82127 0.03352 0.20127 0.0
C16 C 0.83653 0.95562 0.2125 0.0
C17 C 0.84493 0.00562 0.11939 0.0
C18 C 0.90106 0.04982 0.19434 0.0
O19 O 0.85032 0.98233 0.22404 0.0
O20 O 0.82352 0.9539 0.18691 0.0
O21 O 0.89365 0.03114 0.17198 0.0
O22 O 0.87865 0.04666 0.21067 0.0
C23 C 0.79421 0.01481 0.19237 0.0
O24 O 0.84718 0.98607 0.13599 0.0
O25 O 0.84178 0.02554 0.13442 0.0
In26 In 0.00213 0.84075 0.17985 0.0
O27 O 0.97981 0.82218 0.13265 0.0
O28 O 0.02135 0.86551 0.13386 0.0
C29 C 0.95771 0.85424 0.19434 0.0
C30 C 0.99442 0.78356 0.18592 0.0
C31 C 0.05231 0.88452 0.21057 0.0
O32 O 0.9768 0.86708 0.17254 0.0
O33 O 0.96063 0.83396 0.209 0.0
O34 O 0.02576 0.87098 0.22247 0.0
O35 O 0.05387 0.87406 0.18442 0.0
C36 C 0.00034 0.84469 0.11747 0.0
O37 O 0.01706 0.80511 0.17198 0.0
O38 O 0.97689 0.79147 0.19903 0.0
In39 In 0.1662 0.16504 0.819 0.0
O40 O 0.21786 0.19941 0.82158 0.0
O41 O 0.18921 0.21465 0.80136 0.0
C42 C 0.17074 0.1203 0.78813 0.0
C43 C 0.16306 0.16238 0.88161 0.0
C44 C 0.10813 0.15206 0.80603 0.0
O45 O 0.15793 0.13419 0.77655 0.0
O46 O 0.18339 0.13078 0.81405 0.0
O47 O 0.11488 0.14031 0.82847 0.0
O48 O 0.13093 0.17104 0.78995 0.0
C49 C 0.21589 0.22161 0.81039 0.0
O50 O 0.16057 0.14039 0.86513 0.0
O51 O 0.16658 0.18552 0.86648 0.0
In52 In 0.84106 0.00051 0.82262 0.0
O53 O 0.82083 0.97912 0.86983 0.0
O54 O 0.86504 0.01956 0.86901 0.0
C55 C 0.85504 0.95618 0.80929 0.0
C56 C 0.78392 0.99211 0.81352 0.0
C57 C 0.88515 0.05059 0.79207 0.0
O58 O 0.83478 0.95881 0.79428 0.0
O59 O 0.86769 0.97554 0.8309 0.0
O60 O 0.87175 0.02399 0.78028 0.0
O61 O 0.87444 0.05225 0.81805 0.0
C62 C 0.84345 0.99919 0.88523 0.0
O63 O 0.80501 0.01557 0.82694 0.0
O64 O 0.7923 0.97403 0.80273 0.0
In65 In 0.00637 0.8396 0.821 0.0
O66 O 0.98831 0.84737 0.86668 0.0
O67 O 0.02616 0.83934 0.86878 0.0
C68 C 0.05079 0.89753 0.80641 0.0
C69 C 0.01587 0.79154 0.81167 0.0
C70 C 0.95537 0.8332 0.7921 0.0
O71 O 0.03417 0.89094 0.83039 0.0
O72 O 0.04547 0.87467 0.78963 0.0
O73 O 0.98173 0.84689 0.77981 0.0
O74 O 0.95438 0.82041 0.81762 0.0
C75 C 0.00727 0.84434 0.88352 0.0
O76 O 0.99182 0.78846 0.82442 0.0
O77 O 0.03407 0.81837 0.80186 0.0
In78 In 0.83497 0.49944 0.50336 0.0
O79 O 0.87008 0.55038 0.51144 0.0
O80 O 0.88489 0.51782 0.51801 0.0
C81 C 0.7838 0.50032 0.52211 0.0
C82 C 0.84237 0.50212 0.44114 0.0
C83 C 0.81836 0.44206 0.52258 0.0
O84 O 0.8029 0.50044 0.54138 0.0
O85 O 0.79153 0.50141 0.4941 0.0
O86 O 0.81004 0.44782 0.49691 0.0
O87 O 0.83564 0.46553 0.53885 0.0
C88 C 0.8922 0.54581 0.51697 0.0
O89 O 0.84262 0.48127 0.45742 0.0
O90 O 0.83845 0.52147 0.45625 0.0
In91 In 0.49931 0.33115 0.51142 0.0
O92 O 0.44973 0.31966 0.5029 0.0
O93 O 0.47606 0.3551 0.53534 0.0
C94 C 0.49104 0.28061 0.5426 0.0
C95 C 0.50508 0.33393 0.44896 0.0
C96 C 0.55856 0.37298 0.52458 0.0
O97 O 0.50343 0.30702 0.55487 0.0
O98 O 0.48021 0.27938 0.51585 0.0
O99 O 0.53645 0.37642 0.53368 0.0
O100 O 0.55062 0.34887 0.50892 0.0
C101 C 0.45104 0.34036 0.52057 0.0
O102 O 0.50602 0.3556 0.46482 0.0
O103 O 0.50143 0.31105 0.46462 0.0
In104 In 0.66511 0.17499 0.51692 0.0
O105 O 0.68138 0.13983 0.51304 0.0
O106 O 0.63941 0.12618 0.53678 0.0
C107 C 0.71412 0.22001 0.548 0.0
C108 C 0.66526 0.17829 0.45427 0.0
C109 C 0.61885 0.18637 0.52951 0.0
O110 O 0.68712 0.20689 0.5588 0.0
O111 O 0.7167 0.20858 0.52286 0.0
O112 O 0.6378 0.19909 0.50758 0.0
O113 O 0.62284 0.16729 0.54518 0.0
C114 C 0.65806 0.1184 0.52631 0.0
O115 O 0.68429 0.20027 0.47107 0.0
O116 O 0.64575 0.15483 0.4691 0.0
In117 In 0.83541 0.50157 0.1448 0.0
O118 O 0.81571 0.49918 0.19322 0.0
O119 O 0.86126 0.50663 0.1901 0.0
C120 C 0.77668 0.48381 0.1298 0.0
C121 C 0.87761 0.56108 0.13308 0.0
C122 C 0.83889 0.45375 0.11974 0.0
O123 O 0.78413 0.47372 0.15322 0.0
O124 O 0.79912 0.50334 0.11361 0.0
O125 O 0.83251 0.47083 0.10354 0.0
O126 O 0.84542 0.46216 0.1476 0.0
C127 C 0.83948 0.50325 0.20744 0.0
O128 O 0.88443 0.54001 0.13318 0.0
O129 O 0.84935 0.55182 0.13666 0.0
In130 In 0.50711 0.33426 0.15213 0.0
O131 O 0.53107 0.35247 0.19875 0.0
O132 O 0.48521 0.31453 0.19924 0.0
C133 C 0.51966 0.28863 0.14039 0.0
C134 C 0.45066 0.3272 0.14181 0.0
C135 C 0.5524 0.38329 0.12138 0.0
O136 O 0.53208 0.30794 0.16208 0.0
O137 O 0.50027 0.29193 0.1245 0.0
O138 O 0.53795 0.3567 0.10965 0.0
O139 O 0.54217 0.38559 0.14741 0.0
C140 C 0.50839 0.33344 0.21481 0.0
O141 O 0.47202 0.35074 0.1549 0.0
O142 O 0.4585 0.30839 0.13192 0.0
In143 In 0.6707 0.17341 0.15774 0.0
O144 O 0.69306 0.17692 0.20505 0.0
O145 O 0.65225 0.18001 0.20375 0.0
C146 C 0.71383 0.23124 0.14127 0.0
C147 C 0.67987 0.12494 0.15011 0.0
C148 C 0.61957 0.16562 0.12797 0.0
O149 O 0.69571 0.2253 0.16393 0.0
O150 O 0.71066 0.20782 0.12688 0.0
O151 O 0.64585 0.17859 0.11547 0.0
O152 O 0.61874 0.15425 0.15431 0.0
C153 C 0.67304 0.17983 0.22017 0.0
O154 O 0.65624 0.1225 0.16324 0.0
O155 O 0.69782 0.15131 0.1391 0.0
In156 In 0.50179 0.83173 0.84873 0.0
O157 O 0.53877 0.88239 0.84447 0.0
O158 O 0.55066 0.85283 0.86845 0.0
C159 C 0.46002 0.83737 0.88403 0.0
C160 C 0.49706 0.83035 0.78619 0.0
C161 C 0.48603 0.77225 0.85758 0.0
O162 O 0.47247 0.82208 0.8926 0.0
O163 O 0.47063 0.85191 0.85898 0.0
O164 O 0.47123 0.78053 0.84012 0.0
O165 O 0.50936 0.79415 0.87059 0.0
C166 C 0.55956 0.87944 0.85778 0.0
O167 O 0.51882 0.82951 0.80011 0.0
O168 O 0.47752 0.8315 0.80384 0.0
In169 In 0.18599 0.6835 0.83645 0.0
O170 O 0.13378 0.66394 0.83707 0.0
O171 O 0.16202 0.70726 0.85862 0.0
C172 C 0.19503 0.63714 0.85519 0.0
C173 C 0.18078 0.68186 0.77406 0.0
C174 C 0.24008 0.73085 0.85621 0.0
O175 O 0.1754 0.64208 0.86862 0.0
O176 O 0.20899 0.65506 0.83296 0.0
O177 O 0.23361 0.72412 0.82789 0.0
O178 O 0.2186 0.71441 0.87496 0.0
C179 C 0.13524 0.68709 0.85035 0.0
O180 O 0.19032 0.70651 0.7894 0.0
O181 O 0.17371 0.65822 0.79023 0.0
In182 In 0.32925 0.49593 0.85257 0.0
O183 O 0.3489 0.4634 0.85161 0.0
O184 O 0.30642 0.4481 0.87484 0.0
C185 C 0.3832 0.54596 0.86924 0.0
C186 C 0.32331 0.49966 0.79061 0.0
C187 C 0.28248 0.50278 0.87497 0.0
O188 O 0.36174 0.53099 0.88845 0.0
O189 O 0.3782 0.53433 0.84239 0.0
O190 O 0.28122 0.49035 0.84909 0.0
O191 O 0.30687 0.51067 0.89016 0.0
C192 C 0.32626 0.44155 0.86525 0.0
O193 O 0.33239 0.52267 0.80839 0.0
O194 O 0.3166 0.47476 0.80419 0.0
In195 In 0.49422 0.83951 0.48988 0.0
O196 O 0.54607 0.87396 0.4908 0.0
O197 O 0.51668 0.88877 0.47154 0.0
C198 C 0.49845 0.79276 0.4631 0.0
C199 C 0.48992 0.83692 0.55246 0.0
C200 C 0.43732 0.82823 0.47396 0.0
O201 O 0.48538 0.8057 0.45005 0.0
O202 O 0.51166 0.80521 0.48828 0.0
O203 O 0.44332 0.81991 0.49945 0.0
O204 O 0.46035 0.84309 0.45636 0.0
C205 C 0.54368 0.89591 0.47951 0.0
O206 O 0.48425 0.81385 0.53592 0.0
O207 O 0.4972 0.86126 0.53739 0.0
In208 In 0.17109 0.67089 0.47749 0.0
O209 O 0.19641 0.68918 0.52349 0.0
O210 O 0.14894 0.65484 0.52522 0.0
C211 C 0.18371 0.62503 0.46743 0.0
C212 C 0.11415 0.66218 0.46679 0.0
C213 C 0.21582 0.7203 0.4467 0.0
O214 O 0.19407 0.64328 0.49021 0.0
O215 O 0.16621 0.62941 0.44956 0.0
O216 O 0.20341 0.69328 0.43602 0.0
O217 O 0.20391 0.72263 0.47161 0.0
C218 C 0.17309 0.67269 0.54015 0.0
O219 O 0.13556 0.68667 0.47841 0.0
O220 O 0.12213 0.64305 0.45831 0.0
In221 In 0.33526 0.50906 0.49439 0.0
O222 O 0.35647 0.51415 0.54259 0.0
O223 O 0.31134 0.50799 0.53978 0.0
C224 C 0.37829 0.56808 0.48208 0.0
C225 C 0.34595 0.4616 0.48541 0.0
C226 C 0.28662 0.50393 0.46162 0.0
O227 O 0.35879 0.5605 0.50373 0.0
O228 O 0.37641 0.54574 0.46659 0.0
O229 O 0.31367 0.51704 0.45092 0.0
O230 O 0.28379 0.49118 0.4876 0.0
C231 C 0.33326 0.51148 0.55698 0.0
O232 O 0.32096 0.45785 0.49634 0.0
O233 O 0.36466 0.48886 0.47724 0.0
C234 C 0.40885 0.33392 0.16549 0.0
C235 C 0.41796 0.31902 0.14384 0.0
C236 C 0.37761 0.32181 0.17317 0.0
C237 C 0.35505 0.2944 0.15856 0.0
C238 C 0.36397 0.28078 0.13482 0.0
C239 C 0.39536 0.29316 0.12789 0.0
C240 C 0.36906 0.33702 0.19855 0.0
C241 C 0.34057 0.25187 0.11822 0.0
C242 C 0.28282 0.23513 0.20006 0.0
C243 C 0.25999 0.23878 0.18511 0.0
C244 C 0.31412 0.2545 0.19305 0.0
C245 C 0.32273 0.27784 0.17024 0.0
C246 C 0.29994 0.28295 0.1566 0.0
C247 C 0.26878 0.26342 0.16434 0.0
C248 C 0.33779 0.24868 0.20861 0.0
C249 C 0.30816 0.30755 0.13222 0.0
H250 H 0.42624 0.35388 0.17799 0.0
H251 H 0.4023 0.28166 0.11103 0.0
H252 H 0.34851 0.33862 0.19186 0.0
H253 H 0.36309 0.32282 0.21999 0.0
H254 H 0.38829 0.36052 0.20406 0.0
H255 H 0.35077 0.2462 0.09808 0.0
H256 H 0.33108 0.23214 0.13467 0.0
H257 H 0.32102 0.25444 0.10983 0.0
H258 H 0.27613 0.21621 0.21624 0.0
H259 H 0.25121 0.26629 0.15262 0.0
H260 H 0.35715 0.27055 0.21774 0.0
H261 H 0.34752 0.23941 0.1913 0.0
H262 H 0.32777 0.23193 0.22808 0.0
H263 H 0.3285 0.3296 0.13956 0.0
H264 H 0.2887 0.31165 0.12738 0.0
H265 H 0.31438 0.30031 0.11027 0.0
C266 C 0.74469 0.00754 0.17086 0.0
C267 C 0.76994 0.02337 0.19093 0.0
C268 C 0.72513 0.01934 0.16394 0.0
C269 C 0.73085 0.04739 0.17772 0.0
C270 C 0.75487 0.06213 0.19985 0.0
C271 C 0.77425 0.05003 0.20604 0.0
C272 C 0.69981 0.00296 0.14023 0.0
C273 C 0.76136 0.09179 0.21553 0.0
C274 C 0.7144 0.10426 0.1361 0.0
C275 C 0.68881 0.10101 0.15261 0.0
C276 C 0.72712 0.0855 0.14276 0.0
C277 C 0.71414 0.06324 0.16679 0.0
C278 C 0.68711 0.05852 0.18217 0.0
C279 C 0.67463 0.07739 0.17475 0.0
C280 C 0.75561 0.09085 0.12537 0.0
C281 C 0.67262 0.03508 0.20793 0.0
H282 H 0.7413 0.98694 0.15902 0.0
H283 H 0.79365 0.06224 0.22169 0.0
H284 H 0.67802 0.00136 0.14837 0.0
H285 H 0.70645 0.01635 0.11823 0.0
H286 H 0.69548 0.97935 0.13515 0.0
H287 H 0.7786 0.09849 0.23452 0.0
H288 H 0.77031 0.11068 0.19813 0.0
H289 H 0.73982 0.08954 0.22533 0.0
H290 H 0.72533 0.1224 0.11886 0.0
H291 H 0.65489 0.07485 0.18767 0.0
H292 H 0.75274 0.06867 0.11677 0.0
H293 H 0.77571 0.10104 0.14135 0.0
H294 H 0.76088 0.10667 0.10527 0.0
H295 H 0.6705 0.01275 0.20103 0.0
H296 H 0.64943 0.03114 0.2144 0.0
H297 H 0.68763 0.04337 0.22882 0.0
C298 C 0.89323 0.61638 0.12674 0.0
C299 C 0.90096 0.59408 0.13516 0.0
C300 C 0.9127 0.64754 0.13423 0.0
C301 C 0.94005 0.65638 0.15139 0.0
C302 C 0.94862 0.63412 0.15874 0.0
C303 C 0.92911 0.60321 0.15016 0.0
C304 C 0.9032 0.67073 0.12509 0.0
C305 C 0.97724 0.6425 0.17751 0.0
C306 C 0.99607 0.74248 0.15483 0.0
C307 C 0.98535 0.75089 0.18114 0.0
C308 C 0.98251 0.71153 0.14553 0.0
C309 C 0.95821 0.68846 0.16344 0.0
C310 C 0.9491 0.69663 0.19145 0.0
C311 C 0.9625 0.72784 0.19974 0.0
C312 C 0.99253 0.70389 0.11527 0.0
C313 C 0.9239 0.67258 0.2117 0.0
H314 H 0.87144 0.60928 0.11516 0.0
H315 H 0.93488 0.58589 0.15709 0.0
H316 H 0.89688 0.6791 0.14621 0.0
H317 H 0.9227 0.69103 0.11374 0.0
H318 H 0.88316 0.66076 0.10897 0.0
H319 H 0.98251 0.62342 0.17824 0.0
H320 H 0.99747 0.66334 0.16784 0.0
H321 H 0.97391 0.64802 0.20171 0.0
H322 H 0.01357 0.76026 0.1402 0.0
H323 H 0.95425 0.7343 0.22013 0.0
H324 H 0.97413 0.69745 0.09761 0.0
H325 H 0.99605 0.68385 0.11816 0.0
H326 H 0.01417 0.72369 0.10618 0.0
H327 H 0.90136 0.66336 0.19971 0.0
H328 H 0.92239 0.68212 0.23455 0.0
H329 H 0.92788 0.65295 0.21577 0.0
C330 C 0.29379 0.38583 0.87829 0.0
C331 C 0.31956 0.40932 0.86301 0.0
C332 C 0.28206 0.35482 0.87011 0.0
C333 C 0.29627 0.34724 0.84582 0.0
C334 C 0.32384 0.37062 0.83222 0.0
C335 C 0.3353 0.40144 0.84114 0.0
C336 C 0.253 0.33046 0.88575 0.0
C337 C 0.33976 0.3635 0.80637 0.0
C338 C 0.26505 0.26145 0.83479 0.0
C339 C 0.24075 0.254 0.81392 0.0
C340 C 0.28463 0.29207 0.84422 0.0
C341 C 0.2799 0.3157 0.8322 0.0
C342 C 0.25704 0.30856 0.80917 0.0
C343 C 0.2376 0.27774 0.80045 0.0
C344 C 0.30874 0.29872 0.86875 0.0
C345 C 0.25168 0.3332 0.79526 0.0
H346 H 0.28167 0.39181 0.89535 0.0
H347 H 0.35525 0.41951 0.8292 0.0
H348 H 0.23345 0.32189 0.86913 0.0
H349 H 0.25552 0.3105 0.89272 0.0
H350 H 0.24709 0.3395 0.90667 0.0
H351 H 0.3635 0.38292 0.80219 0.0
H352 H 0.34093 0.34243 0.81168 0.0
H353 H 0.32631 0.3591 0.78457 0.0
H354 H 0.26755 0.24316 0.84537 0.0
H355 H 0.21895 0.27209 0.7842 0.0
H356 H 0.30084 0.30306 0.89133 0.0
H357 H 0.33083 0.31971 0.86281 0.0
H358 H 0.31302 0.27913 0.87178 0.0
H359 H 0.24216 0.34199 0.8133 0.0
H360 H 0.23531 0.3244 0.77539 0.0
H361 H 0.27378 0.35297 0.78713 0.0
C362 C 0.72867 0.95747 0.79973 0.0
C363 C 0.75107 0.98329 0.8159 0.0
C364 C 0.69724 0.94477 0.80661 0.0
C365 C 0.68807 0.95802 0.83049 0.0
C366 C 0.71043 0.98528 0.84548 0.0
C367 C 0.74171 0.99772 0.83785 0.0
C368 C 0.67402 0.91604 0.78962 0.0
C369 C 0.7016 6e-05 0.87108 0.0
C370 C 0.60199 0.92813 0.8351 0.0
C371 C 0.59252 0.90323 0.85568 0.0
C372 C 0.63328 0.94727 0.82775 0.0
C373 C 0.65556 0.94153 0.84158 0.0
C374 C 0.6463 0.91785 0.86411 0.0
C375 C 0.61484 0.89886 0.87076 0.0
C376 C 0.6422 0.97223 0.80362 0.0
C377 C 0.66945 0.91137 0.87985 0.0
H378 H 0.73581 0.94633 0.78266 0.0
H379 H 0.75896 0.01764 0.85052 0.0
H380 H 0.66422 0.89616 0.80587 0.0
H381 H 0.65464 0.91878 0.78098 0.0
H382 H 0.68446 0.91052 0.76959 0.0
H383 H 0.72089 0.02329 0.87733 0.0
H384 H 0.68139 0.00217 0.86412 0.0
H385 H 0.69491 0.98526 0.89212 0.0
H386 H 0.58481 0.93159 0.82331 0.0
H387 H 0.60764 0.87973 0.88677 0.0
H388 H 0.64899 0.96529 0.78182 0.0
H389 H 0.66237 0.99413 0.81153 0.0
H390 H 0.62294 0.9765 0.79826 0.0
H391 H 0.67923 0.90215 0.86253 0.0
H392 H 0.65895 0.89435 0.89903 0.0
H393 H 0.68885 0.93296 0.8894 0.0
C394 C 0.0844 0.6771 0.82983 0.0
C395 C 0.10934 0.69334 0.85018 0.0
C396 C 0.06372 0.68767 0.82347 0.0
C397 C 0.068 0.71488 0.83807 0.0
C398 C 0.09147 0.7297 0.86072 0.0
C399 C 0.11198 0.71883 0.86637 0.0
C400 C 0.03894 0.67116 0.79928 0.0
C401 C 0.09644 0.75843 0.87731 0.0
C402 C 0.05108 0.77179 0.79734 0.0
C403 C 0.02499 0.76769 0.81349 0.0
C404 C 0.06408 0.75324 0.80372 0.0
C405 C 0.05085 0.73027 0.82708 0.0
C406 C 0.02326 0.72461 0.84193 0.0
C407 C 0.01053 0.74334 0.83483 0.0
C408 C 0.0932 0.75964 0.78689 0.0
C409 C 0.00843 0.70035 0.86691 0.0
H410 H 0.08227 0.65738 0.81719 0.0
H411 H 0.13111 0.73133 0.88226 0.0
H412 H 0.01678 0.66897 0.80697 0.0
H413 H 0.0458 0.68477 0.77742 0.0
H414 H 0.03524 0.6478 0.79411 0.0
H415 H 0.11315 0.76496 0.89679 0.0
H416 H 0.10539 0.77791 0.86059 0.0
H417 H 0.0743 0.75509 0.88663 0.0
H418 H 0.06221 0.79048 0.7807 0.0
H419 H 0.99039 0.74013 0.84747 0.0
H420 H 0.09101 0.73789 0.77779 0.0
H421 H 0.11289 0.76972 0.80338 0.0
H422 H 0.09867 0.77595 0.7672 0.0
H423 H 0.00746 0.67859 0.85975 0.0
H424 H 0.98471 0.6954 0.87248 0.0
H425 H 0.02253 0.7085 0.88842 0.0
C426 C 0.9329 0.59634 0.49625 0.0
C427 C 0.92472 0.57053 0.51514 0.0
C428 C 0.96377 0.61612 0.48773 0.0
C429 C 0.9869 0.61025 0.49901 0.0
C430 C 0.97896 0.58571 0.52021 0.0
C431 C 0.94786 0.56587 0.52767 0.0
C432 C 0.9712 0.64172 0.46478 0.0
C433 C 0.00308 0.57924 0.53352 0.0
C434 C 0.05868 0.62796 0.45357 0.0
C435 C 0.08141 0.65347 0.4698 0.0
C436 C 0.02742 0.61506 0.46138 0.0
C437 C 0.01886 0.62754 0.48653 0.0
C438 C 0.04153 0.65452 0.50164 0.0
C439 C 0.07257 0.66739 0.49284 0.0
C440 C 0.00379 0.58681 0.44406 0.0
C441 C 0.03345 0.66833 0.52877 0.0
H442 H 0.91497 0.59978 0.48622 0.0
H443 H 0.94153 0.54593 0.5423 0.0
H444 H 0.99182 0.66345 0.47228 0.0
H445 H 0.97662 0.63537 0.44184 0.0
H446 H 0.95163 0.64603 0.46174 0.0
H447 H 0.99368 0.56177 0.55241 0.0
H448 H 0.0121 0.57058 0.51484 0.0
H449 H 0.02282 0.60073 0.54283 0.0
H450 H 0.06547 0.61724 0.43569 0.0
H451 H 0.09011 0.687 0.50564 0.0
H452 H 0.98375 0.58935 0.43742 0.0
H453 H 0.99512 0.56631 0.4594 0.0
H454 H 0.01354 0.58244 0.42271 0.0
H455 H 0.0126 0.66996 0.52362 0.0
H456 H 0.05267 0.69164 0.53491 0.0
H457 H 0.02815 0.65313 0.54937 0.0
C458 C 0.33778 0.41108 0.50516 0.0
C459 C 0.35481 0.43753 0.48688 0.0
C460 C 0.34899 0.3909 0.51142 0.0
C461 C 0.37773 0.39726 0.49888 0.0
C462 C 0.39406 0.42292 0.47888 0.0
C463 C 0.38246 0.44282 0.47325 0.0
C464 C 0.33094 0.36381 0.53285 0.0
C465 C 0.42457 0.43024 0.46462 0.0
C466 C 0.43085 0.37434 0.53864 0.0
C467 C 0.42785 0.35042 0.51937 0.0
C468 C 0.41308 0.38848 0.53346 0.0
C469 C 0.39208 0.37863 0.5082 0.0
C470 C 0.38747 0.3531 0.49001 0.0
C471 C 0.40533 0.33919 0.49592 0.0
C472 C 0.41828 0.41529 0.55376 0.0
C473 C 0.36534 0.3419 0.4629 0.0
H474 H 0.31644 0.40696 0.51588 0.0
H475 H 0.39565 0.46318 0.45904 0.0
H476 H 0.3288 0.34245 0.52269 0.0
H477 H 0.34343 0.368 0.55525 0.0
H478 H 0.30747 0.35996 0.5377 0.0
H479 H 0.4331 0.44956 0.44769 0.0
H480 H 0.4421 0.43662 0.48322 0.0
H481 H 0.42242 0.40965 0.45257 0.0
H482 H 0.44811 0.38301 0.55689 0.0
H483 H 0.40289 0.32069 0.48091 0.0
H484 H 0.39592 0.41242 0.56176 0.0
H485 H 0.43007 0.43696 0.54007 0.0
H486 H 0.43265 0.41779 0.57445 0.0
H487 H 0.34288 0.33957 0.46966 0.0
H488 H 0.36126 0.31937 0.45385 0.0
H489 H 0.37493 0.35906 0.44378 0.0
C490 C 0.62426 0.06301 0.53998 0.0
C491 C 0.64994 0.08575 0.52393 0.0
C492 C 0.61188 0.0317 0.53276 0.0
C493 C 0.62532 0.023 0.50864 0.0
C494 C 0.65262 0.04569 0.49397 0.0
C495 C 0.66473 0.07685 0.50194 0.0
C496 C 0.58311 0.00813 0.54944 0.0
C497 C 0.66766 0.03739 0.46819 0.0
C498 C 0.5936 0.93673 0.50178 0.0
C499 C 0.5687 0.92837 0.48148 0.0
C500 C 0.61354 0.96778 0.50961 0.0
C501 C 0.60856 0.99087 0.49653 0.0
C502 C 0.58503 0.98269 0.47403 0.0
C503 C 0.56525 0.9515 0.46693 0.0
C504 C 0.63837 0.97554 0.53362 0.0
C505 C 0.57935 0.00668 0.45903 0.0
H506 H 0.61287 0.06979 0.55712 0.0
H507 H 0.68458 0.09436 0.48939 0.0
H508 H 0.56323 0.99885 0.53319 0.0
H509 H 0.58572 0.98847 0.55736 0.0
H510 H 0.57766 0.01813 0.56991 0.0
H511 H 0.69121 0.05659 0.46283 0.0
H512 H 0.66908 0.01662 0.47437 0.0
H513 H 0.65343 0.03188 0.44681 0.0
H514 H 0.59631 0.91891 0.51318 0.0
H515 H 0.54613 0.94513 0.45109 0.0
H516 H 0.63128 0.98126 0.55597 0.0
H517 H 0.66035 0.99605 0.52643 0.0
H518 H 0.64253 0.956 0.53769 0.0
H519 H 0.57028 0.01631 0.47668 0.0
H520 H 0.56248 0.99699 0.43963 0.0
H521 H 0.60124 0.02605 0.44994 0.0
C522 C 0.07771 0.14063 0.23943 0.0
C523 C 0.0942 0.16416 0.21774 0.0
C524 C 0.04544 0.12618 0.24119 0.0
C525 C 0.0295 0.13583 0.22104 0.0
C526 C 0.04642 0.16235 0.2023 0.0
C527 C 0.07866 0.17617 0.20077 0.0
C528 C 0.02838 0.09816 0.26173 0.0
C529 C 0.03041 0.17389 0.18101 0.0
C530 C 0.95703 0.07158 0.1843 0.0
C531 C 0.93363 0.07262 0.20118 0.0
C532 C 0.98817 0.09208 0.19065 0.0
C533 C 0.99625 0.11452 0.21435 0.0
C534 C 0.97277 0.11603 0.23128 0.0
C535 C 0.94162 0.09488 0.22461 0.0
C536 C 0.01243 0.08945 0.17209 0.0
C537 C 0.98054 0.13983 0.25645 0.0
H538 H 0.0896 0.1314 0.25286 0.0
H539 H 0.09133 0.19466 0.18426 0.0
H540 H 0.00807 0.09758 0.27277 0.0
H541 H 0.01986 0.07705 0.2473 0.0
H542 H 0.04351 0.09746 0.28023 0.0
H543 H 0.04621 0.19799 0.1734 0.0
H544 H 0.02213 0.15904 0.16 0.0
H545 H 0.01005 0.17276 0.19257 0.0
H546 H 0.95103 0.05439 0.16623 0.0
H547 H 0.92356 0.09578 0.23769 0.0
H548 H 0.02738 0.08515 0.18794 0.0
H549 H 0.02741 0.11141 0.15969 0.0
H550 H 0.00222 0.07054 0.15467 0.0
H551 H 0.99344 0.13622 0.2754 0.0
H552 H 0.95962 0.13885 0.26651 0.0
H553 H 0.99575 0.1633 0.247 0.0
C554 C 0.86653 0.9381 0.2442 0.0
C555 C 0.84277 0.93108 0.22281 0.0
C556 C 0.88084 0.92013 0.2457 0.0
C557 C 0.87085 0.8945 0.22552 0.0
C558 C 0.84395 0.8848 0.20737 0.0
C559 C 0.83022 0.90331 0.20616 0.0
C560 C 0.90914 0.93106 0.26578 0.0
C561 C 0.83199 0.85715 0.18616 0.0
C562 C 0.93492 0.88782 0.1862 0.0
C563 C 0.93464 0.86338 0.20233 0.0
C564 C 0.91419 0.89791 0.19362 0.0
C565 C 0.89235 0.88305 0.21772 0.0
C566 C 0.89158 0.85803 0.23389 0.0
C567 C 0.91292 0.84856 0.2261 0.0
C568 C 0.91594 0.92475 0.17572 0.0
C569 C 0.86855 0.84157 0.25958 0.0
H570 H 0.87609 0.95933 0.25749 0.0
H571 H 0.81149 0.89746 0.18996 0.0
H572 H 0.90995 0.91132 0.27646 0.0
H573 H 0.93006 0.94381 0.25111 0.0
H574 H 0.91001 0.94676 0.28453 0.0
H575 H 0.80768 0.84871 0.17921 0.0
H576 H 0.84632 0.86367 0.16477 0.0
H577 H 0.83351 0.83804 0.19748 0.0
H578 H 0.95166 0.89941 0.16784 0.0
H579 H 0.91266 0.82965 0.23866 0.0
H580 H 0.92044 0.94382 0.19193 0.0
H581 H 0.89359 0.91758 0.16404 0.0
H582 H 0.93437 0.93377 0.15777 0.0
H583 H 0.87406 0.85724 0.2798 0.0
H584 H 0.86862 0.82046 0.26741 0.0
H585 H 0.84493 0.83508 0.25178 0.0
C586 C 0.16001 0.06777 0.22555 0.0
C587 C 0.1465 0.07499 0.20075 0.0
C588 C 0.14998 0.03686 0.2334 0.0
C589 C 0.12565 0.01284 0.21628 0.0
C590 C 0.11209 0.02016 0.19118 0.0
C591 C 0.1228 0.05106 0.18365 0.0
C592 C 0.16515 0.02993 0.26008 0.0
C593 C 0.08596 0.99532 0.17233 0.0
C594 C 0.10498 0.93025 0.20552 0.0
C595 C 0.07668 0.9152 0.22129 0.0
C596 C 0.12368 0.96244 0.20693 0.0
C597 C 0.11355 0.97982 0.22419 0.0
C598 C 0.08716 0.96435 0.24345 0.0
C599 C 0.06911 0.93209 0.24194 0.0
C600 C 0.15217 0.97795 0.18681 0.0
C601 C 0.07562 0.9819 0.26243 0.0
H602 H 0.17836 0.08624 0.23882 0.0
H603 H 0.1122 0.05647 0.16452 0.0
H604 H 0.14844 0.01924 0.27943 0.0
H605 H 0.17223 0.01311 0.25278 0.0
H606 H 0.18571 0.05102 0.26898 0.0
H607 H 0.07779 0.00497 0.15378 0.0
H608 H 0.09349 0.98015 0.16127 0.0
H609 H 0.06619 0.98069 0.18777 0.0
H610 H 0.11121 0.91723 0.18989 0.0
H611 H 0.04741 0.92058 0.25447 0.0
H612 H 0.17093 0.99848 0.19862 0.0
H613 H 0.14662 0.98586 0.16489 0.0
H614 H 0.16067 0.96192 0.18072 0.0
H615 H 0.09499 0.00238 0.27363 0.0
H616 H 0.0591 0.96717 0.28071 0.0
H617 H 0.0636 0.99019 0.24684 0.0
C618 C 0.09351 0.93687 0.77283 0.0
C619 C 0.0735 0.92977 0.79828 0.0
C620 C 0.11441 0.96774 0.76486 0.0
C621 C 0.11481 0.99184 0.78249 0.0
C622 C 0.09469 0.98465 0.80828 0.0
C623 C 0.0745 0.95378 0.81592 0.0
C624 C 0.13572 0.97452 0.73747 0.0
C625 C 0.09417 0.00959 0.82769 0.0
C626 C 0.17733 0.0743 0.79236 0.0
C627 C 0.16381 0.08946 0.77731 0.0
C628 C 0.16363 0.04209 0.79091 0.0
C629 C 0.13563 0.02482 0.7744 0.0
C630 C 0.12431 0.04037 0.75583 0.0
C631 C 0.13874 0.07265 0.75732 0.0
C632 C 0.17705 0.02647 0.81021 0.0
C633 C 0.09465 0.02293 0.73769 0.0
H634 H 0.0928 0.91834 0.75914 0.0
H635 H 0.05905 0.94847 0.83556 0.0
H636 H 0.12888 0.98477 0.71836 0.0
H637 H 0.15978 0.99162 0.74397 0.0
H638 H 0.13515 0.95342 0.72853 0.0
H639 H 0.07687 1.00003 0.84674 0.0
H640 H 0.1172 0.0246 0.83816 0.0
H641 H 0.08875 0.02435 0.81277 0.0
H642 H 0.19704 0.08727 0.80746 0.0
H643 H 0.12834 0.08426 0.74536 0.0
H644 H 0.17485 0.00591 0.79806 0.0
H645 H 0.1642 0.01859 0.83248 0.0
H646 H 0.20176 0.04241 0.81567 0.0
H647 H 0.09317 0.00246 0.72606 0.0
H648 H 0.09237 0.03773 0.71985 0.0
H649 H 0.07483 0.01464 0.75394 0.0
C650 C 0.06842 0.15735 0.77496 0.0
C651 C 0.0758 0.14299 0.79881 0.0
C652 C 0.03746 0.14787 0.76789 0.0
C653 C 0.01353 0.12324 0.7848 0.0
C654 C 0.02101 0.10886 0.80898 0.0
C655 C 0.05196 0.11902 0.81575 0.0
C656 C 0.03038 0.16391 0.74217 0.0
C657 C 0.99628 0.08241 0.8276 0.0
C658 C 0.93129 0.10295 0.79769 0.0
C659 C 0.91582 0.075 0.78135 0.0
C660 C 0.96349 0.12149 0.79589 0.0
C661 C 0.98043 0.11159 0.77757 0.0
C662 C 0.96451 0.08569 0.75779 0.0
C663 C 0.93227 0.06774 0.75978 0.0
C664 C 0.97949 0.1495 0.8166 0.0
C665 C 0.9816 0.07448 0.73761 0.0
H666 H 0.0868 0.17591 0.76181 0.0
H667 H 0.05748 0.10778 0.83416 0.0
H668 H 0.02022 0.14803 0.7221 0.0
H669 H 0.01313 0.1702 0.75004 0.0
H670 H 0.05136 0.18508 0.73408 0.0
H671 H 0.00605 0.07367 0.84546 0.0
H672 H 0.98142 0.08986 0.83949 0.0
H673 H 0.98132 0.06306 0.81186 0.0
H674 H 0.91862 0.10897 0.81402 0.0
H675 H 0.92042 0.04636 0.74677 0.0
H676 H 0.99987 0.16844 0.8048 0.0
H677 H 0.98771 0.14337 0.83795 0.0
H678 H 0.96368 0.15798 0.82369 0.0
H679 H 0.00185 0.09407 0.72636 0.0
H680 H 0.96647 0.05835 0.71929 0.0
H681 H 0.99019 0.06215 0.75233 0.0
C682 C 0.90388 0.82827 0.80086 0.0
C683 C 0.93065 0.83955 0.7827 0.0
C684 C 0.88571 0.84239 0.79998 0.0
C685 C 0.89468 0.86835 0.78056 0.0
C686 C 0.91919 0.87702 0.75916 0.0
C687 C 0.93685 0.86237 0.76039 0.0
C688 C 0.85933 0.83192 0.82268 0.0
C689 C 0.92934 0.90432 0.73777 0.0
C690 C 0.84852 0.91015 0.77934 0.0
C691 C 0.86425 0.93307 0.80185 0.0
C692 C 0.85785 0.88858 0.77214 0.0
C693 C 0.8836 0.89028 0.78767 0.0
C694 C 0.89948 0.91342 0.81041 0.0
C695 C 0.88953 0.93438 0.81727 0.0
C696 C 0.84025 0.86406 0.74801 0.0
C697 C 0.92721 0.91626 0.82745 0.0
H698 H 0.89867 0.81031 0.81784 0.0
H699 H 0.9573 0.87096 0.74599 0.0
H700 H 0.86719 0.84743 0.84323 0.0
H701 H 0.83972 0.83305 0.81209 0.0
H702 H 0.85109 0.808 0.83088 0.0
H703 H 0.94394 0.90401 0.71844 0.0
H704 H 0.90921 0.9049 0.72779 0.0
H705 H 0.94304 0.9259 0.75124 0.0
H706 H 0.82892 0.90904 0.76739 0.0
H707 H 0.90185 0.95209 0.83462 0.0
H708 H 0.83115 0.84085 0.75846 0.0
H709 H 0.85589 0.86596 0.72878 0.0
H710 H 0.82067 0.8658 0.73812 0.0
H711 H 0.9207 0.89464 0.84032 0.0
H712 H 0.93706 0.93571 0.84428 0.0
H713 H 0.94547 0.91983 0.81055 0.0
C714 C 0.73324 0.4946 0.5075 0.0
C715 C 0.75223 0.493 0.53051 0.0
C716 C 0.70117 0.4795 0.51129 0.0
C717 C 0.68783 0.46247 0.53881 0.0
C718 C 0.70715 0.46379 0.56356 0.0
C719 C 0.73927 0.47908 0.5591 0.0
C720 C 0.68151 0.47898 0.48438 0.0
C721 C 0.69385 0.44649 0.59352 0.0
C722 C 0.60037 0.42426 0.54427 0.0
C723 C 0.59133 0.39536 0.53101 0.0
C724 C 0.63179 0.44614 0.54832 0.0
C725 C 0.65448 0.4388 0.53883 0.0
C726 C 0.6453 0.40916 0.52661 0.0
C727 C 0.6139 0.38788 0.52283 0.0
C728 C 0.64069 0.47738 0.56164 0.0
C729 C 0.66869 0.40023 0.51636 0.0
H730 H 0.74322 0.50571 0.48549 0.0
H731 H 0.75388 0.47793 0.57705 0.0
H732 H 0.67103 0.45613 0.47278 0.0
H733 H 0.66243 0.48236 0.49266 0.0
H734 H 0.69519 0.49701 0.46684 0.0
H735 H 0.71124 0.45511 0.61251 0.0
H736 H 0.67364 0.44837 0.60101 0.0
H737 H 0.68587 0.42168 0.58984 0.0
H738 H 0.58295 0.43007 0.55076 0.0
H739 H 0.60705 0.36545 0.5129 0.0
H740 H 0.6501 0.49491 0.54286 0.0
H741 H 0.65903 0.48426 0.57944 0.0
H742 H 0.62068 0.47781 0.57231 0.0
H743 H 0.68242 0.41504 0.49664 0.0
H744 H 0.6577 0.37574 0.50888 0.0
H745 H 0.68495 0.40392 0.5356 0.0
C746 C 0.52048 0.26375 0.57604 0.0
C747 C 0.49749 0.25641 0.55361 0.0
C748 C 0.53584 0.24681 0.57809 0.0
C749 C 0.52765 0.22182 0.55745 0.0
C750 C 0.50136 0.21157 0.5382 0.0
C751 C 0.48658 0.22908 0.53644 0.0
C752 C 0.56346 0.25834 0.59928 0.0
C753 C 0.4913 0.18456 0.51642 0.0
C754 C 0.59473 0.21868 0.52059 0.0
C755 C 0.5948 0.19439 0.53668 0.0
C756 C 0.57298 0.22765 0.5273 0.0
C757 C 0.55041 0.21174 0.55054 0.0
C758 C 0.55005 0.18691 0.56669 0.0
C759 C 0.57243 0.1786 0.55968 0.0
C760 C 0.5744 0.25442 0.50956 0.0
C761 C 0.5262 0.1693 0.59139 0.0
H762 H 0.5288 0.28464 0.5897 0.0
H763 H 0.46845 0.22297 0.51941 0.0
H764 H 0.56503 0.23892 0.60971 0.0
H765 H 0.58478 0.27239 0.58553 0.0
H766 H 0.56269 0.27301 0.61827 0.0
H767 H 0.46709 0.17531 0.50859 0.0
H768 H 0.5064 0.19216 0.49556 0.0
H769 H 0.4934 0.16574 0.52763 0.0
H770 H 0.612 0.23104 0.50287 0.0
H771 H 0.57242 0.15979 0.57216 0.0
H772 H 0.57749 0.27286 0.52598 0.0
H773 H 0.55242 0.24676 0.49692 0.0
H774 H 0.59359 0.26445 0.49243 0.0
H775 H 0.52878 0.18496 0.61086 0.0
H776 H 0.52819 0.1497 0.60079 0.0
H777 H 0.50268 0.16028 0.58175 0.0
C778 C 0.82049 0.40372 0.55881 0.0
C779 C 0.8078 0.41007 0.53267 0.0
C780 C 0.81015 0.3731 0.56809 0.0
C781 C 0.78643 0.3485 0.55097 0.0
C782 C 0.77351 0.35495 0.52468 0.0
C783 C 0.78448 0.38558 0.5158 0.0
C784 C 0.82474 0.36706 0.59592 0.0
C785 C 0.74791 0.32948 0.50588 0.0
C786 C 0.76674 0.26591 0.54335 0.0
C787 C 0.73803 0.25105 0.55836 0.0
C788 C 0.78521 0.29816 0.54413 0.0
C789 C 0.77442 0.31575 0.55996 0.0
C790 C 0.74755 0.30056 0.5786 0.0
C791 C 0.72974 0.26826 0.57776 0.0
C792 C 0.81421 0.31338 0.52473 0.0
C793 C 0.73528 0.31835 0.59606 0.0
H794 H 0.83863 0.42264 0.57183 0.0
H795 H 0.77448 0.39034 0.49567 0.0
H796 H 0.80678 0.35223 0.61299 0.0
H797 H 0.83659 0.35441 0.58846 0.0
H798 H 0.84178 0.38871 0.60769 0.0
H799 H 0.74001 0.33851 0.48648 0.0
H800 H 0.75589 0.31422 0.49593 0.0
H801 H 0.72785 0.3151 0.5211 0.0
H802 H 0.77353 0.25266 0.52872 0.0
H803 H 0.70773 0.25689 0.58974 0.0
H804 H 0.83253 0.33431 0.53641 0.0
H805 H 0.80913 0.32059 0.50211 0.0
H806 H 0.82309 0.2974 0.51997 0.0
H807 H 0.75425 0.33928 0.60708 0.0
H808 H 0.71847 0.30399 0.61431 0.0
H809 H 0.7234 0.32592 0.57947 0.0
C810 C 0.73528 0.28772 0.14691 0.0
C811 C 0.73619 0.26327 0.13208 0.0
C812 C 0.75587 0.31837 0.13878 0.0
C813 C 0.77823 0.32488 0.11535 0.0
C814 C 0.77925 0.30032 0.1001 0.0
C815 C 0.75808 0.26969 0.10861 0.0
C816 C 0.75375 0.34382 0.15554 0.0
C817 C 0.80286 0.30641 0.07517 0.0
C818 C 0.80814 0.40643 0.08802 0.0
C819 C 0.83138 0.42245 0.1101 0.0
C820 C 0.79252 0.37406 0.08685 0.0
C821 C 0.80074 0.35765 0.10798 0.0
C822 C 0.82705 0.37401 0.12713 0.0
C823 C 0.84196 0.4063 0.1281 0.0
C824 C 0.76479 0.35757 0.06585 0.0
C825 C 0.8371 0.35749 0.1495 0.0
H826 H 0.7183 0.28292 0.16493 0.0
H827 H 0.75882 0.25082 0.09706 0.0
H828 H 0.77558 0.35873 0.16819 0.0
H829 H 0.75042 0.35856 0.13851 0.0
H830 H 0.73445 0.33476 0.17253 0.0
H831 H 0.79944 0.28479 0.06428 0.0
H832 H 0.80182 0.3214 0.05677 0.0
H833 H 0.82636 0.31891 0.08535 0.0
H834 H 0.79992 0.41884 0.07397 0.0
H835 H 0.86021 0.4187 0.14493 0.0
H836 H 0.74355 0.35064 0.07961 0.0
H837 H 0.76314 0.33632 0.05597 0.0
H838 H 0.76552 0.3726 0.04647 0.0
H839 H 0.82164 0.3499 0.17008 0.0
H840 H 0.86113 0.3727 0.15768 0.0
H841 H 0.83549 0.33665 0.13859 0.0
C842 C 0.73584 0.4874 0.09906 0.0
C843 C 0.74403 0.47319 0.12235 0.0
C844 C 0.70463 0.47743 0.09272 0.0
C845 C 0.68129 0.45262 0.10997 0.0
C846 C 0.68959 0.43802 0.1332 0.0
C847 C 0.72078 0.44856 0.13915 0.0
C848 C 0.69664 0.49364 0.06796 0.0
C849 C 0.6655 0.41127 0.15202 0.0
C850 C 0.60018 0.43445 0.1269 0.0
C851 C 0.58336 0.40681 0.11032 0.0
C852 C 0.63239 0.45204 0.12417 0.0
C853 C 0.648 0.44155 0.10455 0.0
C854 C 0.63073 0.41591 0.0848 0.0
C855 C 0.5985 0.39888 0.08783 0.0
C856 C 0.64984 0.47964 0.14514 0.0
C857 C 0.64637 0.40412 0.06328 0.0
H858 H 0.75378 0.50651 0.08607 0.0
H859 H 0.72694 0.43736 0.15706 0.0
H860 H 0.68036 0.47671 0.05089 0.0
H861 H 0.68487 0.50513 0.07875 0.0
H862 H 0.71738 0.51128 0.05535 0.0
H863 H 0.67585 0.40213 0.16877 0.0
H864 H 0.65122 0.41863 0.16523 0.0
H865 H 0.64984 0.39225 0.1363 0.0
H866 H 0.58855 0.44096 0.14401 0.0
H867 H 0.58561 0.37771 0.07467 0.0
H868 H 0.6699 0.49849 0.13286 0.0
H869 H 0.65876 0.4729 0.16552 0.0
H870 H 0.63484 0.48855 0.1538 0.0
H871 H 0.66665 0.42343 0.05175 0.0
H872 H 0.63031 0.38856 0.04514 0.0
H873 H 0.65471 0.39097 0.07703 0.0
C874 C 0.51305 0.24231 0.11093 0.0
C875 C 0.5284 0.26504 0.1337 0.0
C876 C 0.52215 0.22045 0.1043 0.0
C877 C 0.54737 0.22176 0.12058 0.0
C878 C 0.56278 0.24465 0.14366 0.0
C879 C 0.553 0.26583 0.15001 0.0
C880 C 0.50502 0.19621 0.0798 0.0
C881 C 0.58993 0.24706 0.16154 0.0
C882 C 0.56757 0.15995 0.13494 0.0
C883 C 0.59482 0.17149 0.11753 0.0
C884 C 0.54918 0.17379 0.13321 0.0
C885 C 0.55852 0.19983 0.11381 0.0
C886 C 0.58357 0.20872 0.09307 0.0
C887 C 0.60136 0.19425 0.09505 0.0
C888 C 0.52213 0.163 0.15508 0.0
C889 C 0.59419 0.23616 0.07177 0.0
H890 H 0.49398 0.24162 0.09829 0.0
H891 H 0.56502 0.28338 0.16758 0.0
H892 H 0.52062 0.19965 0.05998 0.0
H893 H 0.49736 0.1729 0.08937 0.0
H894 H 0.48455 0.19692 0.07087 0.0
H895 H 0.59946 0.26637 0.17855 0.0
H896 H 0.58288 0.22529 0.17435 0.0
H897 H 0.60859 0.25062 0.1452 0.0
H898 H 0.56209 0.142 0.15202 0.0
H899 H 0.6222 0.20305 0.08121 0.0
H900 H 0.50283 0.16425 0.14387 0.0
H901 H 0.52935 0.17822 0.17585 0.0
H902 H 0.51368 0.13897 0.16305 0.0
H903 H 0.5743 0.23675 0.0612 0.0
H904 H 0.6093 0.23603 0.05289 0.0
H905 H 0.6075 0.25765 0.08549 0.0
C906 C 0.27776 0.76601 0.89637 0.0
C907 C 0.27169 0.75328 0.86638 0.0
C908 C 0.30829 0.7852 0.90658 0.0
C909 C 0.33309 0.79051 0.88674 0.0
C910 C 0.32688 0.77806 0.85623 0.0
C911 C 0.29632 0.76012 0.84631 0.0
C912 C 0.31372 0.79884 0.93883 0.0
C913 C 0.35249 0.7825 0.83437 0.0
C914 C 0.4174 0.84942 0.88694 0.0
C915 C 0.42978 0.83098 0.89614 0.0
C916 C 0.38545 0.838 0.88819 0.0
C917 C 0.36565 0.80715 0.89769 0.0
C918 C 0.37842 0.79008 0.91083 0.0
C919 C 0.41049 0.80246 0.91035 0.0
C920 C 0.37274 0.85765 0.87598 0.0
C921 C 0.35822 0.75717 0.92144 0.0
H922 H 0.2587 0.76082 0.91191 0.0
H923 H 0.29172 0.75016 0.82317 0.0
H924 H 0.31566 0.783 0.9555 0.0
H925 H 0.3353 0.82151 0.94006 0.0
H926 H 0.29414 0.80181 0.94646 0.0
H927 H 0.34359 0.77046 0.8118 0.0
H928 H 0.36794 0.80739 0.82962 0.0
H929 H 0.36663 0.77364 0.84529 0.0
H930 H 0.43232 0.87175 0.87646 0.0
H931 H 0.41998 0.7882 0.91779 0.0
H932 H 0.35226 0.85374 0.88965 0.0
H933 H 0.36537 0.85131 0.85146 0.0
H934 H 0.39034 0.88257 0.87673 0.0
H935 H 0.33911 0.75506 0.93622 0.0
H936 H 0.37142 0.74855 0.93471 0.0
H937 H 0.3478 0.74213 0.9008 0.0
C938 C 0.23315 0.5026 0.86625 0.0
C939 C 0.26018 0.51267 0.88368 0.0
C940 C 0.21627 0.51802 0.86805 0.0
C941 C 0.22707 0.54437 0.88732 0.0
C942 C 0.25208 0.55215 0.90779 0.0
C943 C 0.2683 0.53605 0.90582 0.0
C944 C 0.18919 0.50839 0.84647 0.0
C945 C 0.26424 0.57991 0.92887 0.0
C946 C 0.22643 0.61189 0.84896 0.0
C947 C 0.20228 0.61298 0.86431 0.0
C948 C 0.23457 0.58978 0.85651 0.0
C949 C 0.21803 0.56782 0.88 0.0
C950 C 0.19346 0.56856 0.89564 0.0
C951 C 0.18594 0.59135 0.88771 0.0
C952 C 0.26101 0.59002 0.83916 0.0
C953 C 0.17533 0.54549 0.92076 0.0
H954 H 0.22644 0.48411 0.8495 0.0
H955 H 0.28899 0.54371 0.91965 0.0
H956 H 0.17065 0.5108 0.85795 0.0
H957 H 0.19684 0.52356 0.82567 0.0
H958 H 0.17954 0.48416 0.83853 0.0
H959 H 0.27904 0.57903 0.94764 0.0
H960 H 0.2783 0.60111 0.91496 0.0
H961 H 0.24509 0.58179 0.93957 0.0
H962 H 0.23925 0.62856 0.8309 0.0
H963 H 0.16729 0.59216 0.89967 0.0
H964 H 0.25272 0.56784 0.8267 0.0
H965 H 0.27909 0.59256 0.85579 0.0
H966 H 0.27175 0.60903 0.82189 0.0
H967 H 0.1678 0.5217 0.91271 0.0
H968 H 0.1547 0.5468 0.92799 0.0
H969 H 0.19023 0.54988 0.94143 0.0
C970 C 0.4942 0.73035 0.87956 0.0
C971 C 0.47595 0.73934 0.86277 0.0
C972 C 0.48431 0.69894 0.8844 0.0
C973 C 0.45544 0.6762 0.87239 0.0
C974 C 0.43692 0.68528 0.85563 0.0
C975 C 0.44746 0.71667 0.85093 0.0
C976 C 0.50473 0.69008 0.90214 0.0
C977 C 0.40585 0.66182 0.84259 0.0
C978 C 0.43056 0.59371 0.85217 0.0
C979 C 0.40823 0.57788 0.87514 0.0
C980 C 0.44869 0.62598 0.85273 0.0
C981 C 0.44415 0.64272 0.87669 0.0
C982 C 0.42404 0.62663 0.9017 0.0
C983 C 0.40638 0.5943 0.90069 0.0
C984 C 0.47028 0.64219 0.8259 0.0
C985 C 0.41861 0.64354 0.9278 0.0
H986 H 0.51626 0.74784 0.88874 0.0
H987 H 0.43318 0.72346 0.83807 0.0
H988 H 0.49219 0.67579 0.92261 0.0
H989 H 0.51083 0.67587 0.88717 0.0
H990 H 0.52634 0.71055 0.91029 0.0
H991 H 0.39408 0.67276 0.83062 0.0
H992 H 0.40868 0.64662 0.82573 0.0
H993 H 0.39066 0.64696 0.86156 0.0
H994 H 0.43233 0.5811 0.83252 0.0
H995 H 0.38925 0.58219 0.91861 0.0
H996 H 0.49218 0.66208 0.83422 0.0
H997 H 0.45935 0.65123 0.80978 0.0
H998 H 0.47562 0.62637 0.81263 0.0
H999 H 0.44062 0.6636 0.93566 0.0
H1000 H 0.40712 0.62824 0.94805 0.0
H1001 H 0.4036 0.65245 0.91931 0.0
C1002 C 0.50329 0.74627 0.47276 0.0
C1003 C 0.49139 0.76124 0.45469 0.0
C1004 C 0.48939 0.714 0.47249 0.0
C1005 C 0.46291 0.69646 0.45386 0.0
C1006 C 0.45323 0.71169 0.43281 0.0
C1007 C 0.46774 0.744 0.43335 0.0
C1008 C 0.50091 0.69872 0.49477 0.0
C1009 C 0.42525 0.69392 0.41237 0.0
C1010 C 0.42333 0.60868 0.45196 0.0
C1011 C 0.4007 0.6007 0.47499 0.0
C1012 C 0.44413 0.6398 0.44489 0.0
C1013 C 0.44194 0.66327 0.46106 0.0
C1014 C 0.41916 0.65522 0.4844 0.0
C1015 C 0.39896 0.62409 0.49113 0.0
C1016 C 0.46826 0.64755 0.42008 0.0
C1017 C 0.41588 0.67951 0.50215 0.0
H1018 H 0.52184 0.75951 0.48904 0.0
H1019 H 0.45858 0.75543 0.41911 0.0
H1020 H 0.48578 0.69075 0.5156 0.0
H1021 H 0.50017 0.67823 0.48397 0.0
H1022 H 0.52487 0.71486 0.50256 0.0
H1023 H 0.42432 0.7085 0.3934 0.0
H1024 H 0.42498 0.67352 0.40193 0.0
H1025 H 0.4041 0.68545 0.42672 0.0
H1026 H 0.42477 0.59064 0.43944 0.0
H1027 H 0.38149 0.61807 0.5089 0.0
H1028 H 0.49158 0.66308 0.42971 0.0
H1029 H 0.46466 0.66008 0.40075 0.0
H1030 H 0.46768 0.62665 0.4105 0.0
H1031 H 0.43767 0.69503 0.51456 0.0
H1032 H 0.39686 0.66933 0.51947 0.0
H1033 H 0.41133 0.69389 0.48575 0.0
C1034 C 0.26004 0.77408 0.45021 0.0
C1035 C 0.24667 0.74475 0.43656 0.0
C1036 C 0.29215 0.79375 0.4499 0.0
C1037 C 0.31111 0.78342 0.43622 0.0
C1038 C 0.29742 0.75566 0.41886 0.0
C1039 C 0.26522 0.73674 0.41897 0.0
C1040 C 0.30582 0.82386 0.46742 0.0
C1041 C 0.31673 0.74385 0.4037 0.0
C1042 C 0.39901 0.83033 0.4377 0.0
C1043 C 0.40538 0.819 0.46487 0.0
C1044 C 0.36838 0.81992 0.42841 0.0
C1045 C 0.34378 0.79715 0.44635 0.0
C1046 C 0.35024 0.78609 0.47406 0.0
C1047 C 0.38089 0.79737 0.48308 0.0
C1048 C 0.36248 0.83273 0.3991 0.0
C1049 C 0.32479 0.76165 0.49388 0.0
H1050 H 0.24572 0.78063 0.46339 0.0
H1051 H 0.255 0.71422 0.40805 0.0
H1052 H 0.31313 0.82076 0.49088 0.0
H1053 H 0.3265 0.84206 0.45527 0.0
H1054 H 0.28884 0.8318 0.47033 0.0
H1055 H 0.30313 0.72502 0.38685 0.0
H1056 H 0.33679 0.76269 0.39145 0.0
H1057 H 0.32577 0.73474 0.42193 0.0
H1058 H 0.41792 0.84714 0.42359 0.0
H1059 H 0.38565 0.78849 0.50408 0.0
H1060 H 0.34272 0.83671 0.40215 0.0
H1061 H 0.35659 0.81587 0.37991 0.0
H1062 H 0.38308 0.85472 0.39196 0.0
H1063 H 0.30911 0.76988 0.50201 0.0
H1064 H 0.33381 0.75541 0.51458 0.0
H1065 H 0.31084 0.74048 0.4799 0.0
C1066 C 0.23403 0.49766 0.46446 0.0
C1067 C 0.26286 0.51064 0.44974 0.0
C1068 C 0.21549 0.51125 0.46157 0.0
C1069 C 0.22632 0.53861 0.44389 0.0
C1070 C 0.25344 0.54934 0.4258 0.0
C1071 C 0.27132 0.53504 0.42878 0.0
C1072 C 0.18622 0.49846 0.48045 0.0
C1073 C 0.26576 0.57828 0.40646 0.0
C1074 C 0.18038 0.58044 0.43714 0.0
C1075 C 0.19299 0.60166 0.46169 0.0
C1076 C 0.19039 0.55914 0.43125 0.0
C1077 C 0.21382 0.55954 0.45008 0.0
C1078 C 0.22631 0.58078 0.47505 0.0
C1079 C 0.21562 0.60136 0.48062 0.0
C1080 C 0.17629 0.53662 0.40469 0.0
C1081 C 0.25144 0.58217 0.4957 0.0
H1082 H 0.22712 0.47848 0.48034 0.0
H1083 H 0.29344 0.54502 0.41707 0.0
H1084 H 0.19086 0.51216 0.50211 0.0
H1085 H 0.16794 0.50006 0.46742 0.0
H1086 H 0.1775 0.47401 0.48704 0.0
H1087 H 0.2833 0.58014 0.38939 0.0
H1088 H 0.24689 0.57906 0.39376 0.0
H1089 H 0.27675 0.59869 0.42203 0.0
H1090 H 0.16285 0.58057 0.42246 0.0
H1091 H 0.22549 0.61771 0.4996 0.0
H1092 H 0.16954 0.51293 0.41243 0.0
H1093 H 0.19355 0.54284 0.38585 0.0
H1094 H 0.15569 0.53653 0.39494 0.0
H1095 H 0.24332 0.55956 0.50719 0.0
H1096 H 0.25872 0.60015 0.51402 0.0
H1097 H 0.27193 0.58715 0.48148 0.0
C1098 C 0.13895 0.15363 0.0659 0.0
C1099 C 0.16606 0.15978 0.08144 0.0
C1100 C 0.13758 0.15315 0.03331 0.0
C1101 C 0.16405 0.15924 0.01592 0.0
C1102 C 0.19143 0.16524 0.03149 0.0
C1103 C 0.19206 0.16531 0.06412 0.0
C1104 C 0.10791 0.14641 0.01749 0.0
C1105 C 0.22016 0.17202 0.01369 0.0
C1106 C 0.15475 0.13383 0.93153 0.0
C1107 C 0.16254 0.16136 0.91591 0.0
C1108 C 0.15486 0.13272 0.96413 0.0
C1109 C 0.16327 0.15987 0.98142 0.0
C1110 C 0.1711 0.18771 0.96575 0.0
C1111 C 0.17048 0.18808 0.93314 0.0
C1112 C 0.14608 0.10255 0.98008 0.0
C1113 C 0.18042 0.21718 0.98342 0.0
H1114 H 0.11876 0.14925 0.07923 0.0
H1115 H 0.21309 0.17015 0.07607 0.0
H1116 H 0.1118 0.16649 0.00319 0.0
H1117 H 0.10015 0.12647 0.00152 0.0
H1118 H 0.08913 0.14124 0.03439 0.0
H1119 H 0.23946 0.17588 0.02931 0.0
H1120 H 0.21517 0.15259 0.99781 0.0
H1121 H 0.22776 0.19285 -0.00095 0.0
H1122 H 0.14852 0.11311 0.91826 0.0
H1123 H 0.17664 0.20943 0.92112 0.0
H1124 H 0.12641 0.0962 0.99611 0.0
H1125 H 0.16565 0.10502 0.99435 0.0
H1126 H 0.13954 0.08341 0.96326 0.0
H1127 H 0.16158 0.21393 -0.00067 0.0
H1128 H 0.18591 0.23689 0.96771 0.0
H1129 H 0.20096 0.22316 0.99799 0.0
C1130 C 0.81794 0.97924 0.93659 0.0
C1131 C 0.8443 0.99936 0.91955 0.0
C1132 C 0.81807 0.98003 0.96922 0.0
C1133 C 0.84531 0.00125 0.98508 0.0
C1134 C 0.87214 0.0213 0.96797 0.0
C1135 C 0.87126 0.02021 0.93536 0.0
C1136 C 0.78896 0.95844 0.9867 0.0
C1137 C 0.90169 0.04402 0.98411 0.0
C1138 C 0.83821 0.02399 0.06759 0.0
C1139 C 0.8456 0.00497 0.08509 0.0
C1140 C 0.83797 0.02298 0.03497 0.0
C1141 C 0.84564 0.00269 0.01959 0.0
C1142 C 0.85346 0.98368 0.03717 0.0
C1143 C 0.85319 0.98493 0.06975 0.0
C1144 C 0.82926 0.04341 0.01697 0.0
C1145 C 0.86205 0.96198 0.02155 0.0
H1146 H 0.79702 0.96316 0.92442 0.0
H1147 H 0.89172 0.03576 0.92224 0.0
H1148 H 0.79342 0.94378 0.00279 0.0
H1149 H 0.78149 0.97195 0.00108 0.0
H1150 H 0.76977 0.94323 0.97087 0.0
H1151 H 0.92073 0.05745 0.96742 0.0
H1152 H 0.89782 0.06036 0.9982 0.0
H1153 H 0.90904 0.03168 0.00033 0.0
H1154 H 0.83221 0.03943 0.07939 0.0
H1155 H 0.85901 0.97025 0.08323 0.0
H1156 H 0.80887 0.02907 0.00213 0.0
H1157 H 0.84842 0.05884 0.00127 0.0
H1158 H 0.82381 0.05782 0.03246 0.0
H1159 H 0.84257 0.94507 0.00705 0.0
H1160 H 0.86809 0.94916 0.03859 0.0
H1161 H 0.882 0.97508 0.00579 0.0
C1162 C 0.98843 0.85587 0.93263 0.0
C1163 C 0.00697 0.84606 0.91776 0.0
C1164 C 0.98724 0.85683 0.96518 0.0
C1165 C 0.00474 0.84743 0.98321 0.0
C1166 C 0.02366 0.83768 0.9683 0.0
C1167 C 0.02468 0.83728 0.9357 0.0
C1168 C 0.96707 0.86767 0.98029 0.0
C1169 C 0.04245 0.82725 0.98679 0.0
C1170 C 0.02263 0.87243 0.06757 0.0
C1171 C 0.0005 0.84598 0.08318 0.0
C1172 C 0.02399 0.87341 0.03496 0.0
C1173 C 0.00286 0.84722 0.01768 0.0
C1174 C 0.98023 0.82058 0.03334 0.0
C1175 C 0.97925 0.82033 0.06594 0.0
C1176 C 0.04825 0.90232 0.01903 0.0
C1177 C 0.95742 0.79215 0.01566 0.0
H1178 H 0.9748 0.86279 0.9188 0.0
H1179 H 0.03896 0.82959 0.92426 0.0
H1180 H 0.94899 0.84883 0.99454 0.0
H1181 H 0.98104 0.88723 0.9962 0.0
H1182 H 0.95568 0.87513 0.96294 0.0
H1183 H 0.05619 0.82063 0.97164 0.0
H1184 H 0.0584 0.84593 0.00266 0.0
H1185 H 0.02696 0.80716 0.00147 0.0
H1186 H 0.03907 0.89233 0.08084 0.0
H1187 H 0.96217 0.7998 0.07795 0.0
H1188 H 0.0372 0.91079 0.00241 0.0
H1189 H 0.06395 0.89713 0.00541 0.0
H1190 H 0.06225 0.92105 0.03582 0.0
H1191 H 0.94407 0.79802 -0.00079 0.0
H1192 H 0.94101 0.77349 0.03134 0.0
H1193 H 0.96993 0.78324 0.00167 0.0
C1194 C 0.81477 0.49346 0.25965 0.0
C1195 C 0.84144 0.50351 0.24165 0.0
C1196 C 0.81613 0.49316 0.2922 0.0
C1197 C 0.84493 0.50358 0.30703 0.0
C1198 C 0.87198 0.51391 0.28896 0.0
C1199 C 0.86987 0.51356 0.2564 0.0
C1200 C 0.78674 0.48165 0.31073 0.0
C1201 C 0.90312 0.52557 0.30402 0.0
C1202 C 0.84921 0.52922 0.39068 0.0
C1203 C 0.84519 0.50322 0.40697 0.0
C1204 C 0.85017 0.53002 0.3581 0.0
C1205 C 0.84663 0.50404 0.34149 0.0
C1206 C 0.84324 0.47797 0.35784 0.0
C1207 C 0.84274 0.47795 0.39047 0.0
C1208 C 0.85426 0.5584 0.34144 0.0
C1209 C 0.83918 0.44975 0.34086 0.0
H1210 H 0.79274 0.48553 0.24828 0.0
H1211 H 0.89054 0.52143 0.24249 0.0
H1212 H 0.7833 0.46232 0.326 0.0
H1213 H 0.78844 0.50031 0.32601 0.0
H1214 H 0.76613 0.47361 0.2956 0.0
H1215 H 0.92192 0.53281 0.28663 0.0
H1216 H 0.90847 0.54551 0.31928 0.0
H1217 H 0.90279 0.50733 0.31895 0.0
H1218 H 0.85133 0.54889 0.40341 0.0
H1219 H 0.83961 0.45781 0.40304 0.0
H1220 H 0.8332 0.55254 0.32783 0.0
H1221 H 0.87373 0.56684 0.32475 0.0
H1222 H 0.85872 0.57738 0.35779 0.0
H1223 H 0.81754 0.43946 0.32708 0.0
H1224 H 0.83816 0.43194 0.35701 0.0
H1225 H 0.85844 0.45623 0.32428 0.0
C1226 C 0.48121 0.31696 0.26581 0.0
C1227 C 0.50878 0.33358 0.24912 0.0
C1228 C 0.48109 0.31749 0.29842 0.0
C1229 C 0.50928 0.33466 0.31465 0.0
C1230 C 0.53724 0.35121 0.2979 0.0
C1231 C 0.53662 0.35067 0.26527 0.0
C1232 C 0.45077 0.29987 0.31551 0.0
C1233 C 0.56778 0.36942 0.31445 0.0
C1234 C 0.50577 0.35802 0.39791 0.0
C1235 C 0.50735 0.33487 0.41471 0.0
C1236 C 0.5066 0.35837 0.36528 0.0
C1237 C 0.50944 0.33523 0.34919 0.0
C1238 C 0.51169 0.31217 0.36609 0.0
C1239 C 0.51042 0.31216 0.39868 0.0
C1240 C 0.50386 0.38317 0.348 0.0
C1241 C 0.51512 0.28734 0.34974 0.0
H1242 H 0.45963 0.30388 0.25335 0.0
H1243 H 0.55799 0.36345 0.25239 0.0
H1244 H 0.45121 0.28234 0.33094 0.0
H1245 H 0.44713 0.31581 0.33051 0.0
H1246 H 0.43085 0.28804 0.29939 0.0
H1247 H 0.58748 0.38062 0.29799 0.0
H1248 H 0.56756 0.38751 0.32918 0.0
H1249 H 0.57159 0.35402 0.33012 0.0
H1250 H 0.50332 0.37557 0.41025 0.0
H1251 H 0.5118 0.2943 0.41163 0.0
H1252 H 0.48305 0.37246 0.33298 0.0
H1253 H 0.52409 0.39612 0.33256 0.0
H1254 H 0.50224 0.39974 0.36399 0.0
H1255 H 0.49456 0.2732 0.33504 0.0
H1256 H 0.51783 0.27184 0.36633 0.0
H1257 H 0.53547 0.29794 0.33408 0.0
C1258 C 0.64798 0.15305 0.40239 0.0
C1259 C 0.66625 0.17967 0.41996 0.0
C1260 C 0.64949 0.15374 0.3698 0.0
C1261 C 0.66952 0.1818 0.35447 0.0
C1262 C 0.68775 0.20884 0.37209 0.0
C1263 C 0.686 0.20741 0.40468 0.0
C1264 C 0.62987 0.12438 0.35178 0.0
C1265 C 0.70914 0.23923 0.35652 0.0
C1266 C 0.69388 0.17681 0.27201 0.0
C1267 C 0.67325 0.18187 0.25444 0.0
C1268 C 0.69316 0.17705 0.30464 0.0
C1269 C 0.67144 0.18275 0.31996 0.0
C1270 C 0.65101 0.18854 0.30231 0.0
C1271 C 0.65207 0.1879 0.26973 0.0
C1272 C 0.71518 0.17059 0.32271 0.0
C1273 C 0.62774 0.19499 0.31785 0.0
H1274 H 0.63277 0.13153 0.41414 0.0
H1275 H 0.70013 0.22806 0.41821 0.0
H1276 H 0.61437 0.12755 0.33567 0.0
H1277 H 0.64481 0.11875 0.33738 0.0
H1278 H 0.61557 0.10446 0.36724 0.0
H1279 H 0.72132 0.25825 0.37357 0.0
H1280 H 0.7266 0.23711 0.34249 0.0
H1281 H 0.69593 0.24553 0.34032 0.0
H1282 H 0.71024 0.17207 0.26026 0.0
H1283 H 0.63614 0.19193 0.25621 0.0
H1284 H 0.702 0.14952 0.33704 0.0
H1285 H 0.7291 0.18991 0.3389 0.0
H1286 H 0.7311 0.16726 0.30729 0.0
H1287 H 0.61137 0.17471 0.3318 0.0
H1288 H 0.61438 0.20029 0.30077 0.0
H1289 H 0.63958 0.21475 0.3341 0.0
C1290 C 0.47692 0.80723 0.60209 0.0
C1291 C 0.48895 0.83564 0.58675 0.0
C1292 C 0.47703 0.80572 0.63466 0.0
C1293 C 0.4898 0.83332 0.6522 0.0
C1294 C 0.50168 0.86206 0.63684 0.0
C1295 C 0.50096 0.86286 0.60424 0.0
C1296 C 0.46386 0.77463 0.65027 0.0
C1297 C 0.5157 0.89198 0.6548 0.0
C1298 C 0.46915 0.82933 0.73769 0.0
C1299 C 0.49491 0.83052 0.75197 0.0
C1300 C 0.46707 0.83003 0.70519 0.0
C1301 C 0.49144 0.83218 0.68663 0.0
C1302 C 0.51746 0.83332 0.70093 0.0
C1303 C 0.51884 0.83237 0.73347 0.0
C1304 C 0.43887 0.82854 0.69071 0.0
C1305 C 0.54396 0.83577 0.68186 0.0
H1306 H 0.46752 0.78613 0.58861 0.0
H1307 H 0.51038 0.88487 0.59242 0.0
H1308 H 0.48223 0.77338 0.66351 0.0
H1309 H 0.44575 0.77147 0.66718 0.0
H1310 H 0.45371 0.7553 0.63331 0.0
H1311 H 0.52341 0.91233 0.63936 0.0
H1312 H 0.49872 0.89155 0.67168 0.0
H1313 H 0.53583 0.89484 0.66836 0.0
H1314 H 0.45058 0.82785 0.75194 0.0
H1315 H 0.53882 0.83337 0.74443 0.0
H1316 H 0.4276 0.80853 0.67469 0.0
H1317 H 0.44571 0.84959 0.67668 0.0
H1318 H 0.42175 0.82645 0.70842 0.0
H1319 H 0.53555 0.81581 0.66581 0.0
H1320 H 0.56255 0.8365 0.69659 0.0
H1321 H 0.55392 0.85692 0.66735 0.0
C1322 C 0.20218 0.68802 0.59016 0.0
C1323 C 0.17391 0.67433 0.57439 0.0
C1324 C 0.20326 0.68959 0.62275 0.0
C1325 C 0.17542 0.67771 0.63982 0.0
C1326 C 0.14683 0.66429 0.62394 0.0
C1327 C 0.14641 0.66248 0.59137 0.0
C1328 C 0.23414 0.70357 0.63892 0.0
C1329 C 0.11672 0.65187 0.64136 0.0
C1330 C 0.17511 0.65468 0.72387 0.0
C1331 C 0.17877 0.68073 0.73982 0.0
C1332 C 0.17405 0.65345 0.6913 0.0
C1333 C 0.17619 0.67867 0.67434 0.0
C1334 C 0.17939 0.70485 0.69034 0.0
C1335 C 0.18092 0.70568 0.72296 0.0
C1336 C 0.17106 0.62532 0.67502 0.0
C1337 C 0.18123 0.73195 0.67301 0.0
H1338 H 0.22346 0.69712 0.57703 0.0
H1339 H 0.12453 0.65212 0.57916 0.0
H1340 H 0.23765 0.72335 0.65351 0.0
H1341 H 0.23472 0.6863 0.65466 0.0
H1342 H 0.25363 0.7117 0.62223 0.0
H1343 H 0.09658 0.64326 0.62545 0.0
H1344 H 0.1134 0.63272 0.65683 0.0
H1345 H 0.11722 0.67016 0.65637 0.0
H1346 H 0.17358 0.63541 0.73686 0.0
H1347 H 0.1836 0.72578 0.73528 0.0
H1348 H 0.19103 0.63217 0.65929 0.0
H1349 H 0.14997 0.61455 0.66041 0.0
H1350 H 0.16989 0.60778 0.69164 0.0
H1351 H 0.20176 0.7423 0.6576 0.0
H1352 H 0.1827 0.75011 0.68896 0.0
H1353 H 0.16064 0.7241 0.65793 0.0
C1354 C 0.3566 0.51591 0.6094 0.0
C1355 C 0.33153 0.5117 0.59126 0.0
C1356 C 0.35478 0.51495 0.64198 0.0
C1357 C 0.3272 0.50957 0.65668 0.0
C1358 C 0.30198 0.50579 0.63848 0.0
C1359 C 0.30447 0.50693 0.60595 0.0
C1360 C 0.38219 0.51918 0.66065 0.0
C1361 C 0.2722 0.49996 0.65337 0.0
C1362 C 0.31288 0.4757 0.73792 0.0
C1363 C 0.32229 0.50196 0.75644 0.0
C1364 C 0.31382 0.47779 0.70538 0.0
C1365 C 0.32444 0.50684 0.69107 0.0
C1366 C 0.33328 0.53333 0.70965 0.0
C1367 C 0.33209 0.53056 0.74218 0.0
C1368 C 0.30409 0.44901 0.68632 0.0
C1369 C 0.34466 0.56467 0.69518 0.0
H1370 H 0.37758 0.51966 0.59812 0.0
H1371 H 0.28502 0.50368 0.592 0.0
H1372 H 0.38924 0.53833 0.67753 0.0
H1373 H 0.37579 0.49798 0.67425 0.0
H1374 H 0.40229 0.52424 0.6457 0.0
H1375 H 0.25518 0.49864 0.63596 0.0
H1376 H 0.26176 0.47798 0.66656 0.0
H1377 H 0.27679 0.51857 0.67022 0.0
H1378 H 0.30526 0.45353 0.74886 0.0
H1379 H 0.33938 0.55092 0.75644 0.0
H1380 H 0.32398 0.45149 0.67257 0.0
H1381 H 0.28582 0.44567 0.66956 0.0
H1382 H 0.29529 0.42802 0.70101 0.0
H1383 H 0.36616 0.57154 0.68192 0.0
H1384 H 0.3494 0.58272 0.71284 0.0
H1385 H 0.32736 0.56379 0.67845 0.0
loop_
_geom_bond_atom_site_label_1
_geom_bond_atom_site_label_2
_geom_bond_distance
_geom_bond_site_symmetry_2
_ccdc_geom_bond_type
In0 O1 2.294 . S
In0 O2 2.326 . S
In0 O6 2.266 . S
In0 O7 2.326 . S
In0 O8 2.266 . S
In0 O9 2.326 . S
In0 O11 2.294 . S
In0 O12 2.326 . S
O1 In0 2.294 . S
O1 C10 1.240 . S
O2 In0 2.326 . S
O2 C10 1.252 . S
C3 O6 1.252 . S
C3 O7 1.260 . S
C4 O11 1.240 . S
C4 O12 1.252 . S
C5 O8 1.252 . S
C5 O9 1.260 . S
O6 In0 2.266 . S
O6 C3 1.252 . S
O7 In0 2.326 . S
O7 C3 1.260 . S
O8 In0 2.266 . S
O8 C5 1.252 . S
O9 In0 2.326 . S
O9 C5 1.260 . S
C10 O1 1.240 . S
C10 O2 1.252 . S
O11 In0 2.294 . S
O11 C4 1.240 . S
O12 In0 2.326 . S
O12 C4 1.252 . S
In13 O14 2.294 . S
In13 O15 2.326 . S
In13 O19 2.266 1_545 S
In13 O20 2.326 1_545 S
In13 O21 2.266 . S
In13 O22 2.326 . S
In13 O24 2.294 . S
In13 O25 2.326 1_545 S
O14 In13 2.294 . S
O14 C23 1.240 . S
O15 In13 2.326 . S
O15 C23 1.252 . S
C16 O19 1.252 . S
C16 O20 1.260 . S
C17 O24 1.252 . S
C17 O25 1.242 1_545 S
C18 O21 1.252 . S
C18 O22 1.260 . S
O19 In13 2.266 1_565 S
O19 C16 1.252 . S
O20 In13 2.326 1_565 S
O20 C16 1.260 . S
O21 In13 2.266 . S
O21 C18 1.252 . S
O22 In13 2.326 . S
O22 C18 1.260 . S
C23 O14 1.240 . S
C23 O15 1.252 . S
O24 In13 2.294 . S
O24 C17 1.252 . S
O25 In13 2.326 1_565 S
O25 C17 1.242 1_565 S
In26 O27 2.294 . S
In26 O28 2.326 1_655 S
In26 O32 2.266 . S
In26 O33 2.326 . S
In26 O34 2.266 1_655 S
In26 O35 2.326 1_655 S
In26 O37 2.294 . S
In26 O38 2.326 . S
O27 In26 2.294 . S
O27 C36 1.240 1_655 S
O28 In26 2.326 1_455 S
O28 C36 1.252 . S
C29 O32 1.252 . S
C29 O33 1.260 . S
C30 O37 1.240 . S
C30 O38 1.252 . S
C31 O34 1.252 . S
C31 O35 1.260 . S
O32 In26 2.266 . S
O32 C29 1.252 . S
O33 In26 2.326 . S
O33 C29 1.260 . S
O34 In26 2.266 1_455 S
O34 C31 1.252 . S
O35 In26 2.326 1_455 S
O35 C31 1.260 . S
C36 O27 1.240 1_455 S
C36 O28 1.252 . S
O37 In26 2.294 . S
O37 C30 1.240 . S
O38 In26 2.326 . S
O38 C30 1.252 . S
In39 O40 2.294 . S
In39 O41 2.326 . S
In39 O45 2.266 . S
In39 O46 2.326 . S
In39 O47 2.266 . S
In39 O48 2.326 . S
In39 O50 2.294 . S
In39 O51 2.326 . S
O40 In39 2.294 . S
O40 C49 1.240 . S
O41 In39 2.326 . S
O41 C49 1.252 . S
C42 O45 1.252 . S
C42 O46 1.260 . S
C43 O50 1.240 . S
C43 O51 1.252 . S
C44 O47 1.252 . S
C44 O48 1.260 . S
O45 In39 2.266 . S
O45 C42 1.252 . S
O46 In39 2.326 . S
O46 C42 1.260 . S
O47 In39 2.266 . S
O47 C44 1.252 . S
O48 In39 2.326 . S
O48 C44 1.260 . S
C49 O40 1.240 . S
C49 O41 1.252 . S
O50 In39 2.294 . S
O50 C43 1.240 . S
O51 In39 2.326 . S
O51 C43 1.252 . S
In52 O53 2.294 . S
In52 O54 2.326 1_565 S
In52 O58 2.266 . S
In52 O59 2.326 . S
In52 O60 2.266 1_565 S
In52 O61 2.326 1_565 S
In52 O63 2.294 . S
In52 O64 2.326 . S
O53 In52 2.294 . S
O53 C62 1.240 1_565 S
O54 In52 2.326 1_545 S
O54 C62 1.252 . S
C55 O58 1.252 . S
C55 O59 1.260 . S
C56 O63 1.240 . S
C56 O64 1.252 . S
C57 O60 1.252 . S
C57 O61 1.260 . S
O58 In52 2.266 . S
O58 C55 1.252 . S
O59 In52 2.326 . S
O59 C55 1.260 . S
O60 In52 2.266 1_545 S
O60 C57 1.252 . S
O61 In52 2.326 1_545 S
O61 C57 1.260 . S
C62 O53 1.240 1_545 S
C62 O54 1.252 . S
O63 In52 2.294 . S
O63 C56 1.240 . S
O64 In52 2.326 . S
O64 C56 1.252 . S
In65 O66 2.294 . S
In65 O67 2.326 1_455 S
In65 O71 2.266 . S
In65 O72 2.326 . S
In65 O73 2.266 1_455 S
In65 O74 2.326 1_455 S
In65 O76 2.294 . S
In65 O77 2.326 . S
O66 In65 2.294 . S
O66 C75 1.251 . S
O67 In65 2.326 1_655 S
O67 C75 1.243 1_655 S
C68 O71 1.252 . S
C68 O72 1.260 . S
C69 O76 1.240 . S
C69 O77 1.252 . S
C70 O73 1.252 . S
C70 O74 1.260 . S
O71 In65 2.266 . S
O71 C68 1.252 . S
O72 In65 2.326 . S
O72 C68 1.260 . S
O73 In65 2.266 1_655 S
O73 C70 1.252 . S
O74 In65 2.326 1_655 S
O74 C70 1.260 . S
C75 O66 1.251 . S
C75 O67 1.243 1_455 S
O76 In65 2.294 . S
O76 C69 1.240 . S
O77 In65 2.326 . S
O77 C69 1.252 . S
In78 O79 2.294 . S
In78 O80 2.326 . S
In78 O84 2.266 . S
In78 O85 2.326 . S
In78 O86 2.266 . S
In78 O87 2.326 . S
In78 O89 2.294 . S
In78 O90 2.326 . S
O79 In78 2.294 . S
O79 C88 1.240 . S
O80 In78 2.326 . S
O80 C88 1.252 . S
C81 O84 1.252 . S
C81 O85 1.260 . S
C82 O89 1.240 . S
C82 O90 1.252 . S
C83 O86 1.252 . S
C83 O87 1.260 . S
O84 In78 2.266 . S
O84 C81 1.252 . S
O85 In78 2.326 . S
O85 C81 1.260 . S
O86 In78 2.266 . S
O86 C83 1.252 . S
O87 In78 2.326 . S
O87 C83 1.260 . S
C88 O79 1.240 . S
C88 O80 1.252 . S
O89 In78 2.294 . S
O89 C82 1.240 . S
O90 In78 2.326 . S
O90 C82 1.252 . S
In91 O92 2.294 . S
In91 O93 2.326 . S
In91 O97 2.266 . S
In91 O98 2.326 . S
In91 O99 2.266 . S
In91 O100 2.326 . S
In91 O102 2.294 . S
In91 O103 2.326 . S
O92 In91 2.294 . S
O92 C101 1.240 . S
O93 In91 2.326 . S
O93 C101 1.252 . S
C94 O97 1.252 . S
C94 O98 1.260 . S
C95 O102 1.240 . S
C95 O103 1.252 . S
C96 O99 1.252 . S
C96 O100 1.260 . S
O97 In91 2.266 . S
O97 C94 1.252 . S
O98 In91 2.326 . S
O98 C94 1.260 . S
O99 In91 2.266 . S
O99 C96 1.252 . S
O100 In91 2.326 . S
O100 C96 1.260 . S
C101 O92 1.240 . S
C101 O93 1.252 . S
O102 In91 2.294 . S
O102 C95 1.240 . S
O103 In91 2.326 . S
O103 C95 1.252 . S
In104 O105 2.294 . S
In104 O106 2.326 . S
In104 O110 2.266 . S
In104 O111 2.326 . S
In104 O112 2.266 . S
In104 O113 2.326 . S
In104 O115 2.294 . S
In104 O116 2.326 . S
O105 In104 2.294 . S
O105 C114 1.240 . S
O106 In104 2.326 . S
O106 C114 1.252 . S
C107 O110 1.252 . S
C107 O111 1.260 . S
C108 O115 1.240 . S
C108 O116 1.252 . S
C109 O112 1.252 . S
C109 O113 1.260 . S
O110 In104 2.266 . S
O110 C107 1.252 . S
O111 In104 2.326 . S
O111 C107 1.260 . S
O112 In104 2.266 . S
O112 C109 1.252 . S
O113 In104 2.326 . S
O113 C109 1.260 . S
C114 O105 1.240 . S
C114 O106 1.252 . S
O115 In104 2.294 . S
O115 C108 1.240 . S
O116 In104 2.326 . S
O116 C108 1.252 . S
In117 O118 2.294 . S
In117 O119 2.326 . S
In117 O123 2.266 . S
In117 O124 2.326 . S
In117 O125 2.266 . S
In117 O126 2.326 . S
In117 O128 2.294 . S
In117 O129 2.326 . S
O118 In117 2.294 . S
O118 C127 1.240 . S
O119 In117 2.326 . S
O119 C127 1.252 . S
C120 O123 1.252 . S
C120 O124 1.260 . S
C121 O128 1.240 . S
C121 O129 1.252 . S
C122 O125 1.252 . S
C122 O126 1.260 . S
O123 In117 2.266 . S
O123 C120 1.252 . S
O124 In117 2.326 . S
O124 C120 1.260 . S
O125 In117 2.266 . S
O125 C122 1.252 . S
O126 In117 2.326 . S
O126 C122 1.260 . S
C127 O118 1.240 . S
C127 O119 1.252 . S
O128 In117 2.294 . S
O128 C121 1.240 . S
O129 In117 2.326 . S
O129 C121 1.252 . S
In130 O131 2.294 . S
In130 O132 2.326 . S
In130 O136 2.266 . S
In130 O137 2.326 . S
In130 O138 2.266 . S
In130 O139 2.326 . S
In130 O141 2.294 . S
In130 O142 2.326 . S
O131 In130 2.294 . S
O131 C140 1.240 . S
O132 In130 2.326 . S
O132 C140 1.252 . S
C133 O136 1.252 . S
C133 O137 1.260 . S
C134 O141 1.240 . S
C134 O142 1.252 . S
C135 O138 1.252 . S
C135 O139 1.260 . S
O136 In130 2.266 . S
O136 C133 1.252 . S
O137 In130 2.326 . S
O137 C133 1.260 . S
O138 In130 2.266 . S
O138 C135 1.252 . S
O139 In130 2.326 . S
O139 C135 1.260 . S
C140 O131 1.240 . S
C140 O132 1.252 . S
O141 In130 2.294 . S
O141 C134 1.240 . S
O142 In130 2.326 . S
O142 C134 1.252 . S
In143 O144 2.294 . S
In143 O145 2.326 . S
In143 O149 2.266 . S
In143 O150 2.326 . S
In143 O151 2.266 . S
In143 O152 2.326 . S
In143 O154 2.294 . S
In143 O155 2.326 . S
O144 In143 2.294 . S
O144 C153 1.240 . S
O145 In143 2.326 . S
O145 C153 1.252 . S
C146 O149 1.252 . S
C146 O150 1.260 . S
C147 O154 1.240 . S
C147 O155 1.252 . S
C148 O151 1.252 . S
C148 O152 1.260 . S
O149 In143 2.266 . S
O149 C146 1.252 . S
O150 In143 2.326 . S
O150 C146 1.260 . S
O151 In143 2.266 . S
O151 C148 1.252 . S
O152 In143 2.326 . S
O152 C148 1.260 . S
C153 O144 1.240 . S
C153 O145 1.252 . S
O154 In143 2.294 . S
O154 C147 1.240 . S
O155 In143 2.326 . S
O155 C147 1.252 . S
In156 O157 2.294 . S
In156 O158 2.326 . S
In156 O162 2.266 . S
In156 O163 2.326 . S
In156 O164 2.266 . S
In156 O165 2.326 . S
In156 O167 2.294 . S
In156 O168 2.326 . S
O157 In156 2.294 . S
O157 C166 1.240 . S
O158 In156 2.326 . S
O158 C166 1.252 . S
C159 O162 1.252 . S
C159 O163 1.260 . S
C160 O167 1.240 . S
C160 O168 1.252 . S
C161 O164 1.252 . S
C161 O165 1.260 . S
O162 In156 2.266 . S
O162 C159 1.252 . S
O163 In156 2.326 . S
O163 C159 1.260 . S
O164 In156 2.266 . S
O164 C161 1.252 . S
O165 In156 2.326 . S
O165 C161 1.260 . S
C166 O157 1.240 . S
C166 O158 1.252 . S
O167 In156 2.294 . S
O167 C160 1.240 . S
O168 In156 2.326 . S
O168 C160 1.252 . S
In169 O170 2.294 . S
In169 O171 2.326 . S
In169 O175 2.266 . S
In169 O176 2.326 . S
In169 O177 2.266 . S
In169 O178 2.326 . S
In169 O180 2.294 . S
In169 O181 2.326 . S
O170 In169 2.294 . S
O170 C179 1.240 . S
O171 In169 2.326 . S
O171 C179 1.252 . S
C172 O175 1.252 . S
C172 O176 1.260 . S
C173 O180 1.240 . S
C173 O181 1.252 . S
C174 O177 1.252 . S
C174 O178 1.260 . S
O175 In169 2.266 . S
O175 C172 1.252 . S
O176 In169 2.326 . S
O176 C172 1.260 . S
O177 In169 2.266 . S
O177 C174 1.252 . S
O178 In169 2.326 . S
O178 C174 1.260 . S
C179 O170 1.240 . S
C179 O171 1.252 . S
O180 In169 2.294 . S
O180 C173 1.240 . S
O181 In169 2.326 . S
O181 C173 1.252 . S
In182 O183 2.294 . S
In182 O184 2.326 . S
In182 O188 2.266 . S
In182 O189 2.326 . S
In182 O190 2.266 . S
In182 O191 2.326 . S
In182 O193 2.294 . S
In182 O194 2.326 . S
O183 In182 2.294 . S
O183 C192 1.240 . S
O184 In182 2.326 . S
O184 C192 1.252 . S
C185 O188 1.252 . S
C185 O189 1.260 . S
C186 O193 1.240 . S
C186 O194 1.252 . S
C187 O190 1.252 . S
C187 O191 1.260 . S
O188 In182 2.266 . S
O188 C185 1.252 . S
O189 In182 2.326 . S
O189 C185 1.260 . S
O190 In182 2.266 . S
O190 C187 1.252 . S
O191 In182 2.326 . S
O191 C187 1.260 . S
C192 O183 1.240 . S
C192 O184 1.252 . S
O193 In182 2.294 . S
O193 C186 1.240 . S
O194 In182 2.326 . S
O194 C186 1.252 . S
In195 O196 2.294 . S
In195 O197 2.326 . S
In195 O201 2.266 . S
In195 O202 2.326 . S
In195 O203 2.266 . S
In195 O204 2.326 . S
In195 O206 2.294 . S
In195 O207 2.326 . S
O196 In195 2.294 . S
O196 C205 1.240 . S
O197 In195 2.326 . S
O197 C205 1.252 . S
C198 O201 1.252 . S
C198 O202 1.260 . S
C199 O206 1.240 . S
C199 O207 1.252 . S
C200 O203 1.252 . S
C200 O204 1.260 . S
O201 In195 2.266 . S
O201 C198 1.252 . S
O202 In195 2.326 . S
O202 C198 1.260 . S
O203 In195 2.266 . S
O203 C200 1.252 . S
O204 In195 2.326 . S
O204 C200 1.260 . S
C205 O196 1.240 . S
C205 O197 1.252 . S
O206 In195 2.294 . S
O206 C199 1.240 . S
O207 In195 2.326 . S
O207 C199 1.252 . S
In208 O209 2.294 . S
In208 O210 2.326 . S
In208 O214 2.266 . S
In208 O215 2.326 . S
In208 O216 2.266 . S
In208 O217 2.326 . S
In208 O219 2.294 . S
In208 O220 2.326 . S
O209 In208 2.294 . S
O209 C218 1.240 . S
O210 In208 2.326 . S
O210 C218 1.252 . S
C211 O214 1.252 . S
C211 O215 1.260 . S
C212 O219 1.240 . S
C212 O220 1.252 . S
C213 O216 1.252 . S
C213 O217 1.260 . S
O214 In208 2.266 . S
O214 C211 1.252 . S
O215 In208 2.326 . S
O215 C211 1.260 . S
O216 In208 2.266 . S
O216 C213 1.252 . S
O217 In208 2.326 . S
O217 C213 1.260 . S
C218 O209 1.240 . S
C218 O210 1.252 . S
O219 In208 2.294 . S
O219 C212 1.240 . S
O220 In208 2.326 . S
O220 C212 1.252 . S
In221 O222 2.294 . S
In221 O223 2.326 . S
In221 O227 2.266 . S
In221 O228 2.326 . S
In221 O229 2.266 . S
In221 O230 2.326 . S
In221 O232 2.294 . S
In221 O233 2.326 . S
O222 In221 2.294 . S
O222 C231 1.240 . S
O223 In221 2.326 . S
O223 C231 1.252 . S
C224 O227 1.252 . S
C224 O228 1.260 . S
C225 O232 1.240 . S
C225 O233 1.252 . S
C226 O229 1.252 . S
C226 O230 1.260 . S
O227 In221 2.266 . S
O227 C224 1.252 . S
O228 In221 2.326 . S
O228 C224 1.260 . S
O229 In221 2.266 . S
O229 C226 1.252 . S
O230 In221 2.326 . S
O230 C226 1.260 . S
C231 O222 1.240 . S
C231 O223 1.252 . S
O232 In221 2.294 . S
O232 C225 1.240 . S
O233 In221 2.326 . S
O233 C225 1.252 . S
C234 C235 1.391 . S
C234 C236 1.394 . S
C234 H250 0.931 . S
C235 C234 1.391 . S
C235 C239 1.376 . S
C236 C234 1.394 . S
C236 C237 1.369 . S
C236 C240 1.531 . S
C237 C236 1.369 . S
C237 C238 1.410 . S
C237 C245 1.503 . S
C238 C237 1.410 . S
C238 C239 1.392 . S
C238 C241 1.511 . S
C239 C235 1.376 . S
C239 C238 1.392 . S
C239 H251 0.929 . S
C240 C236 1.531 . S
C240 H252 0.960 . S
C240 H253 0.962 . S
C240 H254 0.960 . S
C241 C238 1.511 . S
C241 H255 0.961 . S
C241 H256 0.961 . S
C241 H257 0.961 . S
C242 C243 1.370 . S
C242 C244 1.363 . S
C242 H258 0.931 . S
C243 C242 1.370 . S
C243 C247 1.408 . S
C244 C242 1.363 . S
C244 C245 1.370 . S
C244 C248 1.524 . S
C245 C237 1.503 . S
C245 C244 1.370 . S
C245 C246 1.403 . S
C246 C245 1.403 . S
C246 C247 1.404 . S
C246 C249 1.539 . S
C247 C243 1.408 . S
C247 C246 1.404 . S
C247 H259 0.930 . S
C248 C244 1.524 . S
C248 H260 0.956 . S
C248 H261 0.961 . S
C248 H262 0.961 . S
C249 C246 1.539 . S
C249 H263 0.958 . S
C249 H264 0.961 . S
C249 H265 0.960 . S
H250 C234 0.931 . S
H251 C239 0.929 . S
H252 C240 0.960 . S
H253 C240 0.962 . S
H254 C240 0.960 . S
H255 C241 0.961 . S
H256 C241 0.961 . S
H257 C241 0.961 . S
H258 C242 0.931 . S
H259 C247 0.930 . S
H260 C248 0.956 . S
H261 C248 0.961 . S
H262 C248 0.961 . S
H263 C249 0.958 . S
H264 C249 0.961 . S
H265 C249 0.960 . S
C266 C267 1.391 . S
C266 C268 1.394 . S
C266 H282 0.931 . S
C267 C266 1.391 . S
C267 C271 1.376 . S
C268 C266 1.394 . S
C268 C269 1.369 . S
C268 C272 1.531 . S
C269 C268 1.369 . S
C269 C270 1.410 . S
C269 C277 1.503 . S
C270 C269 1.410 . S
C270 C271 1.392 . S
C270 C273 1.511 . S
C271 C267 1.376 . S
C271 C270 1.392 . S
C271 H283 0.929 . S
C272 C268 1.531 . S
C272 H284 0.960 . S
C272 H285 0.962 . S
C272 H286 0.960 . S
C273 C270 1.511 . S
C273 H287 0.961 . S
C273 H288 0.961 . S
C273 H289 0.961 . S
C274 C275 1.370 . S
C274 C276 1.363 . S
C274 H290 0.931 . S
C275 C274 1.370 . S
C275 C279 1.408 . S
C276 C274 1.363 . S
C276 C277 1.370 . S
C276 C280 1.524 . S
C277 C269 1.503 . S
C277 C276 1.370 . S
C277 C278 1.403 . S
C278 C277 1.403 . S
C278 C279 1.404 . S
C278 C281 1.539 . S
C279 C275 1.408 . S
C279 C278 1.404 . S
C279 H291 0.930 . S
C280 C276 1.524 . S
C280 H292 0.956 . S
C280 H293 0.961 . S
C280 H294 0.961 . S
C281 C278 1.539 . S
C281 H295 0.958 . S
C281 H296 0.961 . S
C281 H297 0.960 . S
H282 C266 0.931 . S
H283 C271 0.929 . S
H284 C272 0.960 . S
H285 C272 0.962 . S
H286 C272 0.960 . S
H287 C273 0.961 . S
H288 C273 0.961 . S
H289 C273 0.961 . S
H290 C274 0.931 . S
H291 C279 0.930 . S
H292 C280 0.956 . S
H293 C280 0.961 . S
H294 C280 0.961 . S
H295 C281 0.958 . S
H296 C281 0.961 . S
H297 C281 0.960 . S
C298 C299 1.391 . S
C298 C300 1.394 . S
C298 H314 0.931 . S
C299 C298 1.391 . S
C299 C303 1.376 . S
C300 C298 1.394 . S
C300 C301 1.369 . S
C300 C304 1.531 . S
C301 C300 1.369 . S
C301 C302 1.410 . S
C301 C309 1.503 . S
C302 C301 1.410 . S
C302 C303 1.392 . S
C302 C305 1.511 . S
C303 C299 1.376 . S
C303 C302 1.392 . S
C303 H315 0.929 . S
C304 C300 1.531 . S
C304 H316 0.960 . S
C304 H317 0.962 . S
C304 H318 0.960 . S
C305 C302 1.511 . S
C305 H319 0.961 . S
C305 H320 0.961 . S
C305 H321 0.961 . S
C306 C307 1.370 . S
C306 C308 1.363 . S
C306 H322 0.931 . S
C307 C306 1.370 . S
C307 C311 1.408 . S
C308 C306 1.363 . S
C308 C309 1.370 . S
C308 C312 1.524 . S
C309 C301 1.503 . S
C309 C308 1.370 . S
C309 C310 1.403 . S
C310 C309 1.403 . S
C310 C311 1.404 . S
C310 C313 1.539 . S
C311 C307 1.408 . S
C311 C310 1.404 . S
C311 H323 0.930 . S
C312 C308 1.524 . S
C312 H324 0.956 . S
C312 H325 0.961 . S
C312 H326 0.961 . S
C313 C310 1.539 . S
C313 H327 0.958 . S
C313 H328 0.961 . S
C313 H329 0.960 . S
H314 C298 0.931 . S
H315 C303 0.929 . S
H316 C304 0.960 . S
H317 C304 0.962 . S
H318 C304 0.960 . S
H319 C305 0.961 . S
H320 C305 0.961 . S
H321 C305 0.961 . S
H322 C306 0.931 . S
H323 C311 0.930 . S
H324 C312 0.956 . S
H325 C312 0.961 . S
H326 C312 0.961 . S
H327 C313 0.958 . S
H328 C313 0.961 . S
H329 C313 0.960 . S
C330 C331 1.391 . S
C330 C332 1.394 . S
C330 H346 0.931 . S
C331 C330 1.391 . S
C331 C335 1.376 . S
C332 C330 1.394 . S
C332 C333 1.369 . S
C332 C336 1.531 . S
C333 C332 1.369 . S
C333 C334 1.410 . S
C333 C341 1.503 . S
C334 C333 1.410 . S
C334 C335 1.392 . S
C334 C337 1.511 . S
C335 C331 1.376 . S
C335 C334 1.392 . S
C335 H347 0.929 . S
C336 C332 1.531 . S
C336 H348 0.960 . S
C336 H349 0.962 . S
C336 H350 0.960 . S
C337 C334 1.511 . S
C337 H351 0.961 . S
C337 H352 0.961 . S
C337 H353 0.961 . S
C338 C339 1.370 . S
C338 C340 1.363 . S
C338 H354 0.931 . S
C339 C338 1.370 . S
C339 C343 1.408 . S
C340 C338 1.363 . S
C340 C341 1.370 . S
C340 C344 1.524 . S
C341 C333 1.503 . S
C341 C340 1.370 . S
C341 C342 1.403 . S
C342 C341 1.403 . S
C342 C343 1.404 . S
C342 C345 1.539 . S
C343 C339 1.408 . S
C343 C342 1.404 . S
C343 H355 0.930 . S
C344 C340 1.524 . S
C344 H356 0.956 . S
C344 H357 0.961 . S
C344 H358 0.961 . S
C345 C342 1.539 . S
C345 H359 0.958 . S
C345 H360 0.961 . S
C345 H361 0.960 . S
H346 C330 0.931 . S
H347 C335 0.929 . S
H348 C336 0.960 . S
H349 C336 0.962 . S
H350 C336 0.960 . S
H351 C337 0.961 . S
H352 C337 0.961 . S
H353 C337 0.961 . S
H354 C338 0.931 . S
H355 C343 0.930 . S
H356 C344 0.956 . S
H357 C344 0.961 . S
H358 C344 0.961 . S
H359 C345 0.958 . S
H360 C345 0.961 . S
H361 C345 0.960 . S
C362 C363 1.391 . S
C362 C364 1.394 . S
C362 H378 0.931 . S
C363 C362 1.391 . S
C363 C367 1.376 . S
C364 C362 1.394 . S
C364 C365 1.369 . S
C364 C368 1.531 . S
C365 C364 1.369 . S
C365 C366 1.410 . S
C365 C373 1.503 . S
C366 C365 1.410 . S
C366 C367 1.392 . S
C366 C369 1.511 . S
C367 C363 1.376 . S
C367 C366 1.392 . S
C367 H379 0.929 . S
C368 C364 1.531 . S
C368 H380 0.960 . S
C368 H381 0.962 . S
C368 H382 0.960 . S
C369 C366 1.511 . S
C369 H383 0.961 . S
C369 H384 0.961 . S
C369 H385 0.961 . S
C370 C371 1.370 . S
C370 C372 1.363 . S
C370 H386 0.931 . S
C371 C370 1.370 . S
C371 C375 1.408 . S
C372 C370 1.363 . S
C372 C373 1.370 . S
C372 C376 1.524 . S
C373 C365 1.503 . S
C373 C372 1.370 . S
C373 C374 1.403 . S
C374 C373 1.403 . S
C374 C375 1.404 . S
C374 C377 1.539 . S
C375 C371 1.408 . S
C375 C374 1.404 . S
C375 H387 0.930 . S
C376 C372 1.524 . S
C376 H388 0.956 . S
C376 H389 0.961 . S
C376 H390 0.961 . S
C377 C374 1.539 . S
C377 H391 0.958 . S
C377 H392 0.961 . S
C377 H393 0.960 . S
H378 C362 0.931 . S
H379 C367 0.929 . S
H380 C368 0.960 . S
H381 C368 0.962 . S
H382 C368 0.960 . S
H383 C369 0.961 . S
H384 C369 0.961 . S
H385 C369 0.961 . S
H386 C370 0.931 . S
H387 C375 0.930 . S
H388 C376 0.956 . S
H389 C376 0.961 . S
H390 C376 0.961 . S
H391 C377 0.958 . S
H392 C377 0.961 . S
H393 C377 0.960 . S
C394 C395 1.391 . S
C394 C396 1.394 . S
C394 H410 0.931 . S
C395 C394 1.391 . S
C395 C399 1.376 . S
C396 C394 1.394 . S
C396 C397 1.369 . S
C396 C400 1.531 . S
C397 C396 1.369 . S
C397 C398 1.410 . S
C397 C405 1.503 . S
C398 C397 1.410 . S
C398 C399 1.392 . S
C398 C401 1.511 . S
C399 C395 1.376 . S
C399 C398 1.392 . S
C399 H411 0.929 . S
C400 C396 1.531 . S
C400 H412 0.960 . S
C400 H413 0.962 . S
C400 H414 0.960 . S
C401 C398 1.511 . S
C401 H415 0.961 . S
C401 H416 0.961 . S
C401 H417 0.961 . S
C402 C403 1.370 . S
C402 C404 1.363 . S
C402 H418 0.931 . S
C403 C402 1.370 . S
C403 C407 1.408 . S
C404 C402 1.363 . S
C404 C405 1.370 . S
C404 C408 1.524 . S
C405 C397 1.503 . S
C405 C404 1.370 . S
C405 C406 1.403 . S
C406 C405 1.403 . S
C406 C407 1.404 . S
C406 C409 1.539 . S
C407 C403 1.408 . S
C407 C406 1.404 . S
C407 H419 0.930 . S
C408 C404 1.524 . S
C408 H420 0.956 . S
C408 H421 0.961 . S
C408 H422 0.961 . S
C409 C406 1.539 . S
C409 H423 0.958 . S
C409 H424 0.961 . S
C409 H425 0.960 . S
H410 C394 0.931 . S
H411 C399 0.929 . S
H412 C400 0.960 . S
H413 C400 0.962 . S
H414 C400 0.960 . S
H415 C401 0.961 . S
H416 C401 0.961 . S
H417 C401 0.961 . S
H418 C402 0.931 . S
H419 C407 0.930 . S
H420 C408 0.956 . S
H421 C408 0.961 . S
H422 C408 0.961 . S
H423 C409 0.958 . S
H424 C409 0.961 . S
H425 C409 0.960 . S
C426 C427 1.391 . S
C426 C428 1.394 . S
C426 H442 0.931 . S
C427 C426 1.391 . S
C427 C431 1.376 . S
C428 C426 1.394 . S
C428 C429 1.369 . S
C428 C432 1.531 . S
C429 C428 1.369 . S
C429 C430 1.410 . S
C429 C437 1.503 1_655 S
C430 C429 1.410 . S
C430 C431 1.392 . S
C430 C433 1.511 1_655 S
C431 C427 1.376 . S
C431 C430 1.392 . S
C431 H443 0.929 . S
C432 C428 1.531 . S
C432 H444 0.960 . S
C432 H445 0.962 . S
C432 H446 0.960 . S
C433 C430 1.511 1_455 S
C433 H447 0.961 1_455 S
C433 H448 0.961 . S
C433 H449 0.961 . S
C434 C435 1.370 . S
C434 C436 1.363 . S
C434 H450 0.931 . S
C435 C434 1.370 . S
C435 C439 1.408 . S
C436 C434 1.363 . S
C436 C437 1.370 . S
C436 C440 1.524 . S
C437 C429 1.503 1_455 S
C437 C436 1.370 . S
C437 C438 1.403 . S
C438 C437 1.403 . S
C438 C439 1.404 . S
C438 C441 1.539 . S
C439 C435 1.408 . S
C439 C438 1.404 . S
C439 H451 0.930 . S
C440 C436 1.524 . S
C440 H452 0.956 . S
C440 H453 0.961 . S
C440 H454 0.961 . S
C441 C438 1.539 . S
C441 H455 0.958 . S
C441 H456 0.961 . S
C441 H457 0.960 . S
H442 C426 0.931 . S
H443 C431 0.929 . S
H444 C432 0.960 . S
H445 C432 0.962 . S
H446 C432 0.960 . S
H447 C433 0.961 1_655 S
H448 C433 0.961 . S
H449 C433 0.961 . S
H450 C434 0.931 . S
H451 C439 0.930 . S
H452 C440 0.956 . S
H453 C440 0.961 . S
H454 C440 0.961 . S
H455 C441 0.958 . S
H456 C441 0.961 . S
H457 C441 0.960 . S
C458 C459 1.391 . S
C458 C460 1.394 . S
C458 H474 0.931 . S
C459 C458 1.391 . S
C459 C463 1.376 . S
C460 C458 1.394 . S
C460 C461 1.369 . S
C460 C464 1.531 . S
C461 C460 1.369 . S
C461 C462 1.410 . S
C461 C469 1.503 . S
C462 C461 1.410 . S
C462 C463 1.392 . S
C462 C465 1.511 . S
C463 C459 1.376 . S
C463 C462 1.392 . S
C463 H475 0.929 . S
C464 C460 1.531 . S
C464 H476 0.960 . S
C464 H477 0.962 . S
C464 H478 0.960 . S
C465 C462 1.511 . S
C465 H479 0.961 . S
C465 H480 0.961 . S
C465 H481 0.961 . S
C466 C467 1.370 . S
C466 C468 1.363 . S
C466 H482 0.931 . S
C467 C466 1.370 . S
C467 C471 1.408 . S
C468 C466 1.363 . S
C468 C469 1.370 . S
C468 C472 1.524 . S
C469 C461 1.503 . S
C469 C468 1.370 . S
C469 C470 1.403 . S
C470 C469 1.403 . S
C470 C471 1.404 . S
C470 C473 1.539 . S
C471 C467 1.408 . S
C471 C470 1.404 . S
C471 H483 0.930 . S
C472 C468 1.524 . S
C472 H484 0.956 . S
C472 H485 0.961 . S
C472 H486 0.961 . S
C473 C470 1.539 . S
C473 H487 0.958 . S
C473 H488 0.961 . S
C473 H489 0.960 . S
H474 C458 0.931 . S
H475 C463 0.929 . S
H476 C464 0.960 . S
H477 C464 0.962 . S
H478 C464 0.960 . S
H479 C465 0.961 . S
H480 C465 0.961 . S
H481 C465 0.961 . S
H482 C466 0.931 . S
H483 C471 0.930 . S
H484 C472 0.956 . S
H485 C472 0.961 . S
H486 C472 0.961 . S
H487 C473 0.958 . S
H488 C473 0.961 . S
H489 C473 0.960 . S
C490 C491 1.391 . S
C490 C492 1.394 . S
C490 H506 0.931 . S
C491 C490 1.391 . S
C491 C495 1.376 . S
C492 C490 1.394 . S
C492 C493 1.369 . S
C492 C496 1.531 . S
C493 C492 1.369 . S
C493 C494 1.410 . S
C493 C501 1.503 1_545 S
C494 C493 1.410 . S
C494 C495 1.392 . S
C494 C497 1.511 . S
C495 C491 1.376 . S
C495 C494 1.392 . S
C495 H507 0.929 . S
C496 C492 1.531 . S
C496 H508 0.967 . S
C496 H509 0.962 . S
C496 H510 0.960 . S
C497 C494 1.511 . S
C497 H511 0.961 . S
C497 H512 0.961 . S
C497 H513 0.961 . S
C498 C499 1.370 . S
C498 C500 1.363 . S
C498 H514 0.931 . S
C499 C498 1.370 . S
C499 C503 1.408 . S
C500 C498 1.363 . S
C500 C501 1.370 . S
C500 C504 1.524 . S
C501 C493 1.503 1_565 S
C501 C500 1.370 . S
C501 C502 1.403 . S
C502 C501 1.403 . S
C502 C503 1.404 . S
C502 C505 1.539 1_565 S
C503 C499 1.408 . S
C503 C502 1.404 . S
C503 H515 0.930 . S
C504 C500 1.524 . S
C504 H516 0.956 . S
C504 H517 0.961 . S
C504 H518 0.961 . S
C505 C502 1.539 1_545 S
C505 H519 0.958 . S
C505 H520 0.961 1_545 S
C505 H521 0.960 . S
H506 C490 0.931 . S
H507 C495 0.929 . S
H508 C496 0.967 . S
H509 C496 0.962 . S
H510 C496 0.960 . S
H511 C497 0.961 . S
H512 C497 0.961 . S
H513 C497 0.961 . S
H514 C498 0.931 . S
H515 C503 0.930 . S
H516 C504 0.956 . S
H517 C504 0.961 . S
H518 C504 0.961 . S
H519 C505 0.958 . S
H520 C505 0.961 1_565 S
H521 C505 0.960 . S
C522 C523 1.391 . S
C522 C524 1.394 . S
C522 H538 0.931 . S
C523 C522 1.391 . S
C523 C527 1.376 . S
C524 C522 1.394 . S
C524 C525 1.369 . S
C524 C528 1.531 . S
C525 C524 1.369 . S
C525 C526 1.410 . S
C525 C533 1.503 1_455 S
C526 C525 1.410 . S
C526 C527 1.392 . S
C526 C529 1.511 . S
C527 C523 1.376 . S
C527 C526 1.392 . S
C527 H539 0.929 . S
C528 C524 1.531 . S
C528 H540 0.960 . S
C528 H541 0.962 . S
C528 H542 0.960 . S
C529 C526 1.511 . S
C529 H543 0.961 . S
C529 H544 0.961 . S
C529 H545 0.961 . S
C530 C531 1.370 . S
C530 C532 1.363 . S
C530 H546 0.931 . S
C531 C530 1.370 . S
C531 C535 1.408 . S
C532 C530 1.363 . S
C532 C533 1.370 . S
C532 C536 1.524 . S
C533 C525 1.503 1_655 S
C533 C532 1.370 . S
C533 C534 1.403 . S
C534 C533 1.403 . S
C534 C535 1.404 . S
C534 C537 1.539 . S
C535 C531 1.408 . S
C535 C534 1.404 . S
C535 H547 0.930 . S
C536 C532 1.524 . S
C536 H548 0.956 1_655 S
C536 H549 0.961 1_655 S
C536 H550 0.961 . S
C537 C534 1.539 . S
C537 H551 0.958 . S
C537 H552 0.961 . S
C537 H553 0.960 1_655 S
H538 C522 0.931 . S
H539 C527 0.929 . S
H540 C528 0.960 . S
H541 C528 0.962 . S
H542 C528 0.960 . S
H543 C529 0.961 . S
H544 C529 0.961 . S
H545 C529 0.961 . S
H546 C530 0.931 . S
H547 C535 0.930 . S
H548 C536 0.956 1_455 S
H549 C536 0.961 1_455 S
H550 C536 0.961 . S
H551 C537 0.958 . S
H552 C537 0.961 . S
H553 C537 0.960 1_455 S
C554 C555 1.391 . S
C554 C556 1.394 . S
C554 H570 0.931 . S
C555 C554 1.391 . S
C555 C559 1.376 . S
C556 C554 1.394 . S
C556 C557 1.369 . S
C556 C560 1.531 . S
C557 C556 1.369 . S
C557 C558 1.410 . S
C557 C565 1.503 . S
C558 C557 1.410 . S
C558 C559 1.392 . S
C558 C561 1.511 . S
C559 C555 1.376 . S
C559 C558 1.392 . S
C559 H571 0.929 . S
C560 C556 1.531 . S
C560 H572 0.960 . S
C560 H573 0.962 . S
C560 H574 0.960 . S
C561 C558 1.511 . S
C561 H575 0.961 . S
C561 H576 0.961 . S
C561 H577 0.961 . S
C562 C563 1.370 . S
C562 C564 1.363 . S
C562 H578 0.931 . S
C563 C562 1.370 . S
C563 C567 1.408 . S
C564 C562 1.363 . S
C564 C565 1.370 . S
C564 C568 1.524 . S
C565 C557 1.503 . S
C565 C564 1.370 . S
C565 C566 1.403 . S
C566 C565 1.403 . S
C566 C567 1.404 . S
C566 C569 1.539 . S
C567 C563 1.408 . S
C567 C566 1.404 . S
C567 H579 0.930 . S
C568 C564 1.524 . S
C568 H580 0.956 . S
C568 H581 0.961 . S
C568 H582 0.961 . S
C569 C566 1.539 . S
C569 H583 0.958 . S
C569 H584 0.961 . S
C569 H585 0.960 . S
H570 C554 0.931 . S
H571 C559 0.929 . S
H572 C560 0.960 . S
H573 C560 0.962 . S
H574 C560 0.960 . S
H575 C561 0.961 . S
H576 C561 0.961 . S
H577 C561 0.961 . S
H578 C562 0.931 . S
H579 C567 0.930 . S
H580 C568 0.956 . S
H581 C568 0.961 . S
H582 C568 0.961 . S
H583 C569 0.958 . S
H584 C569 0.961 . S
H585 C569 0.960 . S
C586 C587 1.391 . S
C586 C588 1.394 . S
C586 H602 0.931 . S
C587 C586 1.391 . S
C587 C591 1.376 . S
C588 C586 1.394 . S
C588 C589 1.369 . S
C588 C592 1.531 . S
C589 C588 1.369 . S
C589 C590 1.410 . S
C589 C597 1.503 1_545 S
C590 C589 1.410 . S
C590 C591 1.392 . S
C590 C593 1.511 . S
C591 C587 1.376 . S
C591 C590 1.392 . S
C591 H603 0.929 . S
C592 C588 1.531 . S
C592 H604 0.960 1_545 S
C592 H605 0.962 . S
C592 H606 0.960 . S
C593 C590 1.511 . S
C593 H607 0.961 . S
C593 H608 0.961 1_545 S
C593 H609 0.961 . S
C594 C595 1.370 . S
C594 C596 1.363 . S
C594 H610 0.931 . S
C595 C594 1.370 . S
C595 C599 1.408 . S
C596 C594 1.363 . S
C596 C597 1.370 . S
C596 C600 1.524 . S
C597 C589 1.503 1_565 S
C597 C596 1.370 . S
C597 C598 1.403 . S
C598 C597 1.403 . S
C598 C599 1.404 . S
C598 C601 1.539 . S
C599 C595 1.408 . S
C599 C598 1.404 . S
C599 H611 0.930 . S
C600 C596 1.524 . S
C600 H612 0.956 . S
C600 H613 0.961 1_565 S
C600 H614 0.961 . S
C601 C598 1.539 . S
C601 H615 0.958 . S
C601 H616 0.961 . S
C601 H617 0.960 . S
H602 C586 0.931 . S
H603 C591 0.929 . S
H604 C592 0.960 1_565 S
H605 C592 0.962 . S
H606 C592 0.960 . S
H607 C593 0.961 . S
H608 C593 0.961 1_565 S
H609 C593 0.961 . S
H610 C594 0.931 . S
H611 C599 0.930 . S
H612 C600 0.956 . S
H613 C600 0.961 1_545 S
H614 C600 0.961 . S
H615 C601 0.958 . S
H616 C601 0.961 . S
H617 C601 0.960 . S
C618 C619 1.391 . S
C618 C620 1.394 . S
C618 H634 0.931 . S
C619 C618 1.391 . S
C619 C623 1.376 . S
C620 C618 1.394 . S
C620 C621 1.369 . S
C620 C624 1.531 . S
C621 C620 1.369 . S
C621 C622 1.410 . S
C621 C629 1.503 1_565 S
C622 C621 1.410 . S
C622 C623 1.392 . S
C622 C625 1.511 . S
C623 C619 1.376 . S
C623 C622 1.392 . S
C623 H635 0.929 . S
C624 C620 1.531 . S
C624 H636 0.960 1_565 S
C624 H637 0.954 . S
C624 H638 0.960 . S
C625 C622 1.511 . S
C625 H639 0.961 . S
C625 H640 0.961 1_565 S
C625 H641 0.961 . S
C626 C627 1.370 . S
C626 C628 1.363 . S
C626 H642 0.931 . S
C627 C626 1.370 . S
C627 C631 1.408 . S
C628 C626 1.363 . S
C628 C629 1.370 . S
C628 C632 1.524 . S
C629 C621 1.503 1_545 S
C629 C628 1.370 . S
C629 C630 1.403 . S
C630 C629 1.403 . S
C630 C631 1.404 . S
C630 C633 1.539 . S
C631 C627 1.408 . S
C631 C630 1.404 . S
C631 H643 0.930 . S
C632 C628 1.524 . S
C632 H644 0.956 . S
C632 H645 0.961 . S
C632 H646 0.961 . S
C633 C630 1.539 . S
C633 H647 0.958 . S
C633 H648 0.961 . S
C633 H649 0.960 . S
H634 C618 0.931 . S
H635 C623 0.929 . S
H636 C624 0.960 1_545 S
H637 C624 0.954 . S
H638 C624 0.960 . S
H639 C625 0.961 . S
H640 C625 0.961 1_545 S
H641 C625 0.961 . S
H642 C626 0.931 . S
H643 C631 0.930 . S
H644 C632 0.956 . S
H645 C632 0.961 . S
H646 C632 0.961 . S
H647 C633 0.958 . S
H648 C633 0.961 . S
H649 C633 0.960 . S
C650 C651 1.391 . S
C650 C652 1.394 . S
C650 H666 0.931 . S
C651 C650 1.391 . S
C651 C655 1.376 . S
C652 C650 1.394 . S
C652 C653 1.369 . S
C652 C656 1.531 . S
C653 C652 1.369 . S
C653 C654 1.410 . S
C653 C661 1.503 1_455 S
C654 C653 1.410 . S
C654 C655 1.392 . S
C654 C657 1.511 . S
C655 C651 1.376 . S
C655 C654 1.392 . S
C655 H667 0.929 . S
C656 C652 1.531 . S
C656 H668 0.960 1_455 S
C656 H669 0.962 . S
C656 H670 0.960 . S
C657 C654 1.511 . S
C657 H671 0.961 . S
C657 H672 0.961 1_455 S
C657 H673 0.961 . S
C658 C659 1.370 . S
C658 C660 1.363 . S
C658 H674 0.931 . S
C659 C658 1.370 . S
C659 C663 1.408 . S
C660 C658 1.363 . S
C660 C661 1.370 . S
C660 C664 1.524 . S
C661 C653 1.503 1_655 S
C661 C660 1.370 . S
C661 C662 1.403 . S
C662 C661 1.403 . S
C662 C663 1.404 . S
C662 C665 1.539 . S
C663 C659 1.408 . S
C663 C662 1.404 . S
C663 H675 0.930 . S
C664 C660 1.524 . S
C664 H676 0.958 . S
C664 H677 0.961 1_655 S
C664 H678 0.961 . S
C665 C662 1.539 . S
C665 H679 0.958 . S
C665 H680 0.961 . S
C665 H681 0.960 . S
H666 C650 0.931 . S
H667 C655 0.929 . S
H668 C656 0.960 1_655 S
H669 C656 0.962 . S
H670 C656 0.960 . S
H671 C657 0.961 . S
H672 C657 0.961 1_655 S
H673 C657 0.961 . S
H674 C658 0.931 . S
H675 C663 0.930 . S
H676 C664 0.958 . S
H677 C664 0.961 1_455 S
H678 C664 0.961 . S
H679 C665 0.958 . S
H680 C665 0.961 . S
H681 C665 0.960 . S
C682 C683 1.391 . S
C682 C684 1.394 . S
C682 H698 0.931 . S
C683 C682 1.391 . S
C683 C687 1.376 . S
C684 C682 1.394 . S
C684 C685 1.369 . S
C684 C688 1.531 . S
C685 C684 1.369 . S
C685 C686 1.410 . S
C685 C693 1.503 . S
C686 C685 1.410 . S
C686 C687 1.392 . S
C686 C689 1.511 . S
C687 C683 1.376 . S
C687 C686 1.392 . S
C687 H699 0.929 . S
C688 C684 1.531 . S
C688 H700 0.960 . S
C688 H701 0.962 . S
C688 H702 0.960 . S
C689 C686 1.511 . S
C689 H703 0.961 . S
C689 H704 0.961 . S
C689 H705 0.961 . S
C690 C691 1.370 . S
C690 C692 1.363 . S
C690 H706 0.931 . S
C691 C690 1.370 . S
C691 C695 1.408 . S
C692 C690 1.363 . S
C692 C693 1.370 . S
C692 C696 1.524 . S
C693 C685 1.503 . S
C693 C692 1.370 . S
C693 C694 1.403 . S
C694 C693 1.403 . S
C694 C695 1.404 . S
C694 C697 1.539 . S
C695 C691 1.408 . S
C695 C694 1.404 . S
C695 H707 0.930 . S
C696 C692 1.524 . S
C696 H708 0.956 . S
C696 H709 0.961 . S
C696 H710 0.961 . S
C697 C694 1.539 . S
C697 H711 0.958 . S
C697 H712 0.961 . S
C697 H713 0.960 . S
H698 C682 0.931 . S
H699 C687 0.929 . S
H700 C688 0.960 . S
H701 C688 0.962 . S
H702 C688 0.960 . S
H703 C689 0.961 . S
H704 C689 0.961 . S
H705 C689 0.961 . S
H706 C690 0.931 . S
H707 C695 0.930 . S
H708 C696 0.956 . S
H709 C696 0.961 . S
H710 C696 0.961 . S
H711 C697 0.958 . S
H712 C697 0.961 . S
H713 C697 0.960 . S
C714 C715 1.391 . S
C714 C716 1.394 . S
C714 H730 0.931 . S
C715 C714 1.391 . S
C715 C719 1.376 . S
C716 C714 1.394 . S
C716 C717 1.369 . S
C716 C720 1.531 . S
C717 C716 1.369 . S
C717 C718 1.410 . S
C717 C725 1.503 . S
C718 C717 1.410 . S
C718 C719 1.392 . S
C718 C721 1.511 . S
C719 C715 1.376 . S
C719 C718 1.392 . S
C719 H731 0.929 . S
C720 C716 1.531 . S
C720 H732 0.960 . S
C720 H733 0.962 . S
C720 H734 0.960 . S
C721 C718 1.511 . S
C721 H735 0.961 . S
C721 H736 0.961 . S
C721 H737 0.961 . S
C722 C723 1.370 . S
C722 C724 1.363 . S
C722 H738 0.931 . S
C723 C722 1.370 . S
C723 C727 1.408 . S
C724 C722 1.363 . S
C724 C725 1.370 . S
C724 C728 1.524 . S
C725 C717 1.503 . S
C725 C724 1.370 . S
C725 C726 1.403 . S
C726 C725 1.403 . S
C726 C727 1.404 . S
C726 C729 1.539 . S
C727 C723 1.408 . S
C727 C726 1.404 . S
C727 H739 0.930 . S
C728 C724 1.524 . S
C728 H740 0.956 . S
C728 H741 0.961 . S
C728 H742 0.961 . S
C729 C726 1.539 . S
C729 H743 0.958 . S
C729 H744 0.961 . S
C729 H745 0.960 . S
H730 C714 0.931 . S
H731 C719 0.929 . S
H732 C720 0.960 . S
H733 C720 0.962 . S
H734 C720 0.960 . S
H735 C721 0.961 . S
H736 C721 0.961 . S
H737 C721 0.961 . S
H738 C722 0.931 . S
H739 C727 0.930 . S
H740 C728 0.956 . S
H741 C728 0.961 . S
H742 C728 0.961 . S
H743 C729 0.958 . S
H744 C729 0.961 . S
H745 C729 0.960 . S
C746 C747 1.391 . S
C746 C748 1.394 . S
C746 H762 0.931 . S
C747 C746 1.391 . S
C747 C751 1.376 . S
C748 C746 1.394 . S
C748 C749 1.369 . S
C748 C752 1.531 . S
C749 C748 1.369 . S
C749 C750 1.410 . S
C749 C757 1.503 . S
C750 C749 1.410 . S
C750 C751 1.392 . S
C750 C753 1.511 . S
C751 C747 1.376 . S
C751 C750 1.392 . S
C751 H763 0.929 . S
C752 C748 1.531 . S
C752 H764 0.960 . S
C752 H765 0.962 . S
C752 H766 0.960 . S
C753 C750 1.511 . S
C753 H767 0.961 . S
C753 H768 0.961 . S
C753 H769 0.961 . S
C754 C755 1.370 . S
C754 C756 1.363 . S
C754 H770 0.931 . S
C755 C754 1.370 . S
C755 C759 1.408 . S
C756 C754 1.363 . S
C756 C757 1.370 . S
C756 C760 1.524 . S
C757 C749 1.503 . S
C757 C756 1.370 . S
C757 C758 1.403 . S
C758 C757 1.403 . S
C758 C759 1.404 . S
C758 C761 1.539 . S
C759 C755 1.408 . S
C759 C758 1.404 . S
C759 H771 0.930 . S
C760 C756 1.524 . S
C760 H772 0.956 . S
C760 H773 0.961 . S
C760 H774 0.961 . S
C761 C758 1.539 . S
C761 H775 0.958 . S
C761 H776 0.961 . S
C761 H777 0.960 . S
H762 C746 0.931 . S
H763 C751 0.929 . S
H764 C752 0.960 . S
H765 C752 0.962 . S
H766 C752 0.960 . S
H767 C753 0.961 . S
H768 C753 0.961 . S
H769 C753 0.961 . S
H770 C754 0.931 . S
H771 C759 0.930 . S
H772 C760 0.956 . S
H773 C760 0.961 . S
H774 C760 0.961 . S
H775 C761 0.958 . S
H776 C761 0.961 . S
H777 C761 0.960 . S
C778 C779 1.391 . S
C778 C780 1.394 . S
C778 H794 0.931 . S
C779 C778 1.391 . S
C779 C783 1.376 . S
C780 C778 1.394 . S
C780 C781 1.369 . S
C780 C784 1.531 . S
C781 C780 1.369 . S
C781 C782 1.410 . S
C781 C789 1.503 . S
C782 C781 1.410 . S
C782 C783 1.392 . S
C782 C785 1.511 . S
C783 C779 1.376 . S
C783 C782 1.392 . S
C783 H795 0.929 . S
C784 C780 1.531 . S
C784 H796 0.960 . S
C784 H797 0.962 . S
C784 H798 0.960 . S
C785 C782 1.511 . S
C785 H799 0.961 . S
C785 H800 0.961 . S
C785 H801 0.961 . S
C786 C787 1.370 . S
C786 C788 1.363 . S
C786 H802 0.931 . S
C787 C786 1.370 . S
C787 C791 1.408 . S
C788 C786 1.363 . S
C788 C789 1.370 . S
C788 C792 1.524 . S
C789 C781 1.503 . S
C789 C788 1.370 . S
C789 C790 1.403 . S
C790 C789 1.403 . S
C790 C791 1.404 . S
C790 C793 1.539 . S
C791 C787 1.408 . S
C791 C790 1.404 . S
C791 H803 0.930 . S
C792 C788 1.524 . S
C792 H804 0.956 . S
C792 H805 0.961 . S
C792 H806 0.961 . S
C793 C790 1.539 . S
C793 H807 0.958 . S
C793 H808 0.961 . S
C793 H809 0.960 . S
H794 C778 0.931 . S
H795 C783 0.929 . S
H796 C784 0.960 . S
H797 C784 0.962 . S
H798 C784 0.960 . S
H799 C785 0.961 . S
H800 C785 0.961 . S
H801 C785 0.961 . S
H802 C786 0.931 . S
H803 C791 0.930 . S
H804 C792 0.956 . S
H805 C792 0.961 . S
H806 C792 0.961 . S
H807 C793 0.958 . S
H808 C793 0.961 . S
H809 C793 0.960 . S
C810 C811 1.391 . S
C810 C812 1.394 . S
C810 H826 0.931 . S
C811 C810 1.391 . S
C811 C815 1.376 . S
C812 C810 1.394 . S
C812 C813 1.369 . S
C812 C816 1.531 . S
C813 C812 1.369 . S
C813 C814 1.410 . S
C813 C821 1.503 . S
C814 C813 1.410 . S
C814 C815 1.392 . S
C814 C817 1.511 . S
C815 C811 1.376 . S
C815 C814 1.392 . S
C815 H827 0.929 . S
C816 C812 1.531 . S
C816 H828 0.960 . S
C816 H829 0.962 . S
C816 H830 0.960 . S
C817 C814 1.511 . S
C817 H831 0.961 . S
C817 H832 0.961 . S
C817 H833 0.961 . S
C818 C819 1.370 . S
C818 C820 1.363 . S
C818 H834 0.931 . S
C819 C818 1.370 . S
C819 C823 1.408 . S
C820 C818 1.363 . S
C820 C821 1.370 . S
C820 C824 1.524 . S
C821 C813 1.503 . S
C821 C820 1.370 . S
C821 C822 1.403 . S
C822 C821 1.403 . S
C822 C823 1.404 . S
C822 C825 1.539 . S
C823 C819 1.408 . S
C823 C822 1.404 . S
C823 H835 0.930 . S
C824 C820 1.524 . S
C824 H836 0.956 . S
C824 H837 0.961 . S
C824 H838 0.961 . S
C825 C822 1.539 . S
C825 H839 0.958 . S
C825 H840 0.961 . S
C825 H841 0.960 . S
H826 C810 0.931 . S
H827 C815 0.929 . S
H828 C816 0.960 . S
H829 C816 0.962 . S
H830 C816 0.960 . S
H831 C817 0.961 . S
H832 C817 0.961 . S
H833 C817 0.961 . S
H834 C818 0.931 . S
H835 C823 0.930 . S
H836 C824 0.956 . S
H837 C824 0.961 . S
H838 C824 0.961 . S
H839 C825 0.958 . S
H840 C825 0.961 . S
H841 C825 0.960 . S
C842 C843 1.391 . S
C842 C844 1.394 . S
C842 H858 0.931 . S
C843 C842 1.391 . S
C843 C847 1.376 . S
C844 C842 1.394 . S
C844 C845 1.369 . S
C844 C848 1.531 . S
C845 C844 1.369 . S
C845 C846 1.410 . S
C845 C853 1.503 . S
C846 C845 1.410 . S
C846 C847 1.392 . S
C846 C849 1.511 . S
C847 C843 1.376 . S
C847 C846 1.392 . S
C847 H859 0.929 . S
C848 C844 1.531 . S
C848 H860 0.960 . S
C848 H861 0.962 . S
C848 H862 0.960 . S
C849 C846 1.511 . S
C849 H863 0.961 . S
C849 H864 0.961 . S
C849 H865 0.961 . S
C850 C851 1.370 . S
C850 C852 1.363 . S
C850 H866 0.931 . S
C851 C850 1.370 . S
C851 C855 1.408 . S
C852 C850 1.363 . S
C852 C853 1.370 . S
C852 C856 1.524 . S
C853 C845 1.503 . S
C853 C852 1.370 . S
C853 C854 1.403 . S
C854 C853 1.403 . S
C854 C855 1.404 . S
C854 C857 1.539 . S
C855 C851 1.408 . S
C855 C854 1.404 . S
C855 H867 0.930 . S
C856 C852 1.524 . S
C856 H868 0.956 . S
C856 H869 0.961 . S
C856 H870 0.961 . S
C857 C854 1.539 . S
C857 H871 0.958 . S
C857 H872 0.961 . S
C857 H873 0.960 . S
H858 C842 0.931 . S
H859 C847 0.929 . S
H860 C848 0.960 . S
H861 C848 0.962 . S
H862 C848 0.960 . S
H863 C849 0.961 . S
H864 C849 0.961 . S
H865 C849 0.961 . S
H866 C850 0.931 . S
H867 C855 0.930 . S
H868 C856 0.956 . S
H869 C856 0.961 . S
H870 C856 0.961 . S
H871 C857 0.958 . S
H872 C857 0.961 . S
H873 C857 0.960 . S
C874 C875 1.391 . S
C874 C876 1.394 . S
C874 H890 0.931 . S
C875 C874 1.391 . S
C875 C879 1.376 . S
C876 C874 1.394 . S
C876 C877 1.369 . S
C876 C880 1.531 . S
C877 C876 1.369 . S
C877 C878 1.410 . S
C877 C885 1.503 . S
C878 C877 1.410 . S
C878 C879 1.392 . S
C878 C881 1.511 . S
C879 C875 1.376 . S
C879 C878 1.392 . S
C879 H891 0.929 . S
C880 C876 1.531 . S
C880 H892 0.960 . S
C880 H893 0.962 . S
C880 H894 0.960 . S
C881 C878 1.511 . S
C881 H895 0.961 . S
C881 H896 0.961 . S
C881 H897 0.961 . S
C882 C883 1.370 . S
C882 C884 1.363 . S
C882 H898 0.931 . S
C883 C882 1.370 . S
C883 C887 1.408 . S
C884 C882 1.363 . S
C884 C885 1.370 . S
C884 C888 1.524 . S
C885 C877 1.503 . S
C885 C884 1.370 . S
C885 C886 1.403 . S
C886 C885 1.403 . S
C886 C887 1.404 . S
C886 C889 1.539 . S
C887 C883 1.408 . S
C887 C886 1.404 . S
C887 H899 0.930 . S
C888 C884 1.524 . S
C888 H900 0.956 . S
C888 H901 0.961 . S
C888 H902 0.961 . S
C889 C886 1.539 . S
C889 H903 0.958 . S
C889 H904 0.961 . S
C889 H905 0.960 . S
H890 C874 0.931 . S
H891 C879 0.929 . S
H892 C880 0.960 . S
H893 C880 0.962 . S
H894 C880 0.960 . S
H895 C881 0.961 . S
H896 C881 0.961 . S
H897 C881 0.961 . S
H898 C882 0.931 . S
H899 C887 0.930 . S
H900 C888 0.956 . S
H901 C888 0.961 . S
H902 C888 0.961 . S
H903 C889 0.958 . S
H904 C889 0.961 . S
H905 C889 0.960 . S
C906 C907 1.391 . S
C906 C908 1.394 . S
C906 H922 0.931 . S
C907 C906 1.391 . S
C907 C911 1.376 . S
C908 C906 1.394 . S
C908 C909 1.369 . S
C908 C912 1.531 . S
C909 C908 1.369 . S
C909 C910 1.410 . S
C909 C917 1.503 . S
C910 C909 1.410 . S
C910 C911 1.392 . S
C910 C913 1.511 . S
C911 C907 1.376 . S
C911 C910 1.392 . S
C911 H923 0.929 . S
C912 C908 1.531 . S
C912 H924 0.960 . S
C912 H925 0.962 . S
C912 H926 0.960 . S
C913 C910 1.511 . S
C913 H927 0.961 . S
C913 H928 0.961 . S
C913 H929 0.961 . S
C914 C915 1.370 . S
C914 C916 1.363 . S
C914 H930 0.931 . S
C915 C914 1.370 . S
C915 C919 1.408 . S
C916 C914 1.363 . S
C916 C917 1.370 . S
C916 C920 1.524 . S
C917 C909 1.503 . S
C917 C916 1.370 . S
C917 C918 1.403 . S
C918 C917 1.403 . S
C918 C919 1.404 . S
C918 C921 1.539 . S
C919 C915 1.408 . S
C919 C918 1.404 . S
C919 H931 0.930 . S
C920 C916 1.524 . S
C920 H932 0.956 . S
C920 H933 0.961 . S
C920 H934 0.961 . S
C921 C918 1.539 . S
C921 H935 0.958 . S
C921 H936 0.961 . S
C921 H937 0.960 . S
H922 C906 0.931 . S
H923 C911 0.929 . S
H924 C912 0.960 . S
H925 C912 0.962 . S
H926 C912 0.960 . S
H927 C913 0.961 . S
H928 C913 0.961 . S
H929 C913 0.961 . S
H930 C914 0.931 . S
H931 C919 0.930 . S
H932 C920 0.956 . S
H933 C920 0.961 . S
H934 C920 0.961 . S
H935 C921 0.958 . S
H936 C921 0.961 . S
H937 C921 0.960 . S
C938 C939 1.391 . S
C938 C940 1.394 . S
C938 H954 0.931 . S
C939 C938 1.391 . S
C939 C943 1.376 . S
C940 C938 1.394 . S
C940 C941 1.369 . S
C940 C944 1.531 . S
C941 C940 1.369 . S
C941 C942 1.410 . S
C941 C949 1.503 . S
C942 C941 1.410 . S
C942 C943 1.392 . S
C942 C945 1.511 . S
C943 C939 1.376 . S
C943 C942 1.392 . S
C943 H955 0.929 . S
C944 C940 1.531 . S
C944 H956 0.960 . S
C944 H957 0.962 . S
C944 H958 0.960 . S
C945 C942 1.511 . S
C945 H959 0.961 . S
C945 H960 0.961 . S
C945 H961 0.961 . S
C946 C947 1.370 . S
C946 C948 1.363 . S
C946 H962 0.931 . S
C947 C946 1.370 . S
C947 C951 1.408 . S
C948 C946 1.363 . S
C948 C949 1.370 . S
C948 C952 1.524 . S
C949 C941 1.503 . S
C949 C948 1.370 . S
C949 C950 1.403 . S
C950 C949 1.403 . S
C950 C951 1.404 . S
C950 C953 1.539 . S
C951 C947 1.408 . S
C951 C950 1.404 . S
C951 H963 0.930 . S
C952 C948 1.524 . S
C952 H964 0.956 . S
C952 H965 0.961 . S
C952 H966 0.961 . S
C953 C950 1.539 . S
C953 H967 0.958 . S
C953 H968 0.961 . S
C953 H969 0.960 . S
H954 C938 0.931 . S
H955 C943 0.929 . S
H956 C944 0.960 . S
H957 C944 0.962 . S
H958 C944 0.960 . S
H959 C945 0.961 . S
H960 C945 0.961 . S
H961 C945 0.961 . S
H962 C946 0.931 . S
H963 C951 0.930 . S
H964 C952 0.956 . S
H965 C952 0.961 . S
H966 C952 0.961 . S
H967 C953 0.958 . S
H968 C953 0.961 . S
H969 C953 0.960 . S
C970 C971 1.391 . S
C970 C972 1.394 . S
C970 H986 0.931 . S
C971 C970 1.391 . S
C971 C975 1.376 . S
C972 C970 1.394 . S
C972 C973 1.369 . S
C972 C976 1.531 . S
C973 C972 1.369 . S
C973 C974 1.410 . S
C973 C981 1.503 . S
C974 C973 1.410 . S
C974 C975 1.392 . S
C974 C977 1.511 . S
C975 C971 1.376 . S
C975 C974 1.392 . S
C975 H987 0.929 . S
C976 C972 1.531 . S
C976 H988 0.960 . S
C976 H989 0.962 . S
C976 H990 0.960 . S
C977 C974 1.511 . S
C977 H991 0.961 . S
C977 H992 0.961 . S
C977 H993 0.961 . S
C978 C979 1.370 . S
C978 C980 1.363 . S
C978 H994 0.931 . S
C979 C978 1.370 . S
C979 C983 1.408 . S
C980 C978 1.363 . S
C980 C981 1.370 . S
C980 C984 1.524 . S
C981 C973 1.503 . S
C981 C980 1.370 . S
C981 C982 1.403 . S
C982 C981 1.403 . S
C982 C983 1.404 . S
C982 C985 1.539 . S
C983 C979 1.408 . S
C983 C982 1.404 . S
C983 H995 0.930 . S
C984 C980 1.524 . S
C984 H996 0.956 . S
C984 H997 0.961 . S
C984 H998 0.961 . S
C985 C982 1.539 . S
C985 H999 0.958 . S
C985 H1000 0.961 . S
C985 H1001 0.960 . S
H986 C970 0.931 . S
H987 C975 0.929 . S
H988 C976 0.960 . S
H989 C976 0.962 . S
H990 C976 0.960 . S
H991 C977 0.961 . S
H992 C977 0.961 . S
H993 C977 0.961 . S
H994 C978 0.931 . S
H995 C983 0.930 . S
H996 C984 0.956 . S
H997 C984 0.961 . S
H998 C984 0.961 . S
H999 C985 0.958 . S
H1000 C985 0.961 . S
H1001 C985 0.960 . S
C1002 C1003 1.391 . S
C1002 C1004 1.394 . S
C1002 H1018 0.931 . S
C1003 C1002 1.391 . S
C1003 C1007 1.376 . S
C1004 C1002 1.394 . S
C1004 C1005 1.369 . S
C1004 C1008 1.531 . S
C1005 C1004 1.369 . S
C1005 C1006 1.410 . S
C1005 C1013 1.503 . S
C1006 C1005 1.410 . S
C1006 C1007 1.392 . S
C1006 C1009 1.511 . S
C1007 C1003 1.376 . S
C1007 C1006 1.392 . S
C1007 H1019 0.929 . S
C1008 C1004 1.531 . S
C1008 H1020 0.960 . S
C1008 H1021 0.962 . S
C1008 H1022 0.960 . S
C1009 C1006 1.511 . S
C1009 H1023 0.961 . S
C1009 H1024 0.961 . S
C1009 H1025 0.961 . S
C1010 C1011 1.370 . S
C1010 C1012 1.363 . S
C1010 H1026 0.931 . S
C1011 C1010 1.370 . S
C1011 C1015 1.408 . S
C1012 C1010 1.363 . S
C1012 C1013 1.370 . S
C1012 C1016 1.524 . S
C1013 C1005 1.503 . S
C1013 C1012 1.370 . S
C1013 C1014 1.403 . S
C1014 C1013 1.403 . S
C1014 C1015 1.404 . S
C1014 C1017 1.539 . S
C1015 C1011 1.408 . S
C1015 C1014 1.404 . S
C1015 H1027 0.930 . S
C1016 C1012 1.524 . S
C1016 H1028 0.956 . S
C1016 H1029 0.961 . S
C1016 H1030 0.961 . S
C1017 C1014 1.539 . S
C1017 H1031 0.958 . S
C1017 H1032 0.961 . S
C1017 H1033 0.960 . S
H1018 C1002 0.931 . S
H1019 C1007 0.929 . S
H1020 C1008 0.960 . S
H1021 C1008 0.962 . S
H1022 C1008 0.960 . S
H1023 C1009 0.961 . S
H1024 C1009 0.961 . S
H1025 C1009 0.961 . S
H1026 C1010 0.931 . S
H1027 C1015 0.930 . S
H1028 C1016 0.956 . S
H1029 C1016 0.961 . S
H1030 C1016 0.961 . S
H1031 C1017 0.958 . S
H1032 C1017 0.961 . S
H1033 C1017 0.960 . S
C1034 C1035 1.391 . S
C1034 C1036 1.394 . S
C1034 H1050 0.931 . S
C1035 C1034 1.391 . S
C1035 C1039 1.376 . S
C1036 C1034 1.394 . S
C1036 C1037 1.369 . S
C1036 C1040 1.531 . S
C1037 C1036 1.369 . S
C1037 C1038 1.410 . S
C1037 C1045 1.503 . S
C1038 C1037 1.410 . S
C1038 C1039 1.392 . S
C1038 C1041 1.511 . S
C1039 C1035 1.376 . S
C1039 C1038 1.392 . S
C1039 H1051 0.929 . S
C1040 C1036 1.531 . S
C1040 H1052 0.960 . S
C1040 H1053 0.962 . S
C1040 H1054 0.960 . S
C1041 C1038 1.511 . S
C1041 H1055 0.961 . S
C1041 H1056 0.961 . S
C1041 H1057 0.961 . S
C1042 C1043 1.370 . S
C1042 C1044 1.363 . S
C1042 H1058 0.931 . S
C1043 C1042 1.370 . S
C1043 C1047 1.408 . S
C1044 C1042 1.363 . S
C1044 C1045 1.370 . S
C1044 C1048 1.524 . S
C1045 C1037 1.503 . S
C1045 C1044 1.370 . S
C1045 C1046 1.403 . S
C1046 C1045 1.403 . S
C1046 C1047 1.404 . S
C1046 C1049 1.539 . S
C1047 C1043 1.408 . S
C1047 C1046 1.404 . S
C1047 H1059 0.930 . S
C1048 C1044 1.524 . S
C1048 H1060 0.956 . S
C1048 H1061 0.961 . S
C1048 H1062 0.961 . S
C1049 C1046 1.539 . S
C1049 H1063 0.958 . S
C1049 H1064 0.961 . S
C1049 H1065 0.960 . S
H1050 C1034 0.931 . S
H1051 C1039 0.929 . S
H1052 C1040 0.960 . S
H1053 C1040 0.962 . S
H1054 C1040 0.960 . S
H1055 C1041 0.961 . S
H1056 C1041 0.961 . S
H1057 C1041 0.961 . S
H1058 C1042 0.931 . S
H1059 C1047 0.930 . S
H1060 C1048 0.956 . S
H1061 C1048 0.961 . S
H1062 C1048 0.961 . S
H1063 C1049 0.958 . S
H1064 C1049 0.961 . S
H1065 C1049 0.960 . S
C1066 C1067 1.391 . S
C1066 C1068 1.394 . S
C1066 H1082 0.931 . S
C1067 C1066 1.391 . S
C1067 C1071 1.376 . S
C1068 C1066 1.394 . S
C1068 C1069 1.369 . S
C1068 C1072 1.531 . S
C1069 C1068 1.369 . S
C1069 C1070 1.410 . S
C1069 C1077 1.503 . S
C1070 C1069 1.410 . S
C1070 C1071 1.392 . S
C1070 C1073 1.511 . S
C1071 C1067 1.376 . S
C1071 C1070 1.392 . S
C1071 H1083 0.929 . S
C1072 C1068 1.531 . S
C1072 H1084 0.960 . S
C1072 H1085 0.962 . S
C1072 H1086 0.960 . S
C1073 C1070 1.511 . S
C1073 H1087 0.961 . S
C1073 H1088 0.961 . S
C1073 H1089 0.961 . S
C1074 C1075 1.370 . S
C1074 C1076 1.363 . S
C1074 H1090 0.931 . S
C1075 C1074 1.370 . S
C1075 C1079 1.408 . S
C1076 C1074 1.363 . S
C1076 C1077 1.370 . S
C1076 C1080 1.524 . S
C1077 C1069 1.503 . S
C1077 C1076 1.370 . S
C1077 C1078 1.403 . S
C1078 C1077 1.403 . S
C1078 C1079 1.404 . S
C1078 C1081 1.539 . S
C1079 C1075 1.408 . S
C1079 C1078 1.404 . S
C1079 H1091 0.930 . S
C1080 C1076 1.524 . S
C1080 H1092 0.956 . S
C1080 H1093 0.961 . S
C1080 H1094 0.961 . S
C1081 C1078 1.539 . S
C1081 H1095 0.958 . S
C1081 H1096 0.961 . S
C1081 H1097 0.960 . S
H1082 C1066 0.931 . S
H1083 C1071 0.929 . S
H1084 C1072 0.960 . S
H1085 C1072 0.962 . S
H1086 C1072 0.960 . S
H1087 C1073 0.961 . S
H1088 C1073 0.961 . S
H1089 C1073 0.961 . S
H1090 C1074 0.931 . S
H1091 C1079 0.930 . S
H1092 C1080 0.956 . S
H1093 C1080 0.961 . S
H1094 C1080 0.961 . S
H1095 C1081 0.958 . S
H1096 C1081 0.961 . S
H1097 C1081 0.960 . S
C1098 C1099 1.391 . S
C1098 C1100 1.394 . S
C1098 H1114 0.931 . S
C1099 C1098 1.391 . S
C1099 C1103 1.376 . S
C1100 C1098 1.394 . S
C1100 C1101 1.369 . S
C1100 C1104 1.531 . S
C1101 C1100 1.369 . S
C1101 C1102 1.410 . S
C1101 C1109 1.503 1_554 S
C1102 C1101 1.410 . S
C1102 C1103 1.392 . S
C1102 C1105 1.511 . S
C1103 C1099 1.376 . S
C1103 C1102 1.392 . S
C1103 H1115 0.929 . S
C1104 C1100 1.531 . S
C1104 H1116 0.960 1_554 S
C1104 H1117 0.962 . S
C1104 H1118 0.960 . S
C1105 C1102 1.511 . S
C1105 H1119 0.961 . S
C1105 H1120 0.954 1_554 S
C1105 H1121 0.961 . S
C1106 C1107 1.370 . S
C1106 C1108 1.363 . S
C1106 H1122 0.931 . S
C1107 C1106 1.370 . S
C1107 C1111 1.408 . S
C1108 C1106 1.363 . S
C1108 C1109 1.370 . S
C1108 C1112 1.524 . S
C1109 C1101 1.503 1_556 S
C1109 C1108 1.370 . S
C1109 C1110 1.403 . S
C1110 C1109 1.403 . S
C1110 C1111 1.404 . S
C1110 C1113 1.539 . S
C1111 C1107 1.408 . S
C1111 C1110 1.404 . S
C1111 H1123 0.930 . S
C1112 C1108 1.524 . S
C1112 H1124 0.964 . S
C1112 H1125 0.961 1_556 S
C1112 H1126 0.961 . S
C1113 C1110 1.539 . S
C1113 H1127 0.958 . S
C1113 H1128 0.961 . S
C1113 H1129 0.960 . S
H1114 C1098 0.931 . S
H1115 C1103 0.929 . S
H1116 C1104 0.960 1_556 S
H1117 C1104 0.962 . S
H1118 C1104 0.960 . S
H1119 C1105 0.961 . S
H1120 C1105 0.954 1_556 S
H1121 C1105 0.961 . S
H1122 C1106 0.931 . S
H1123 C1111 0.930 . S
H1124 C1112 0.964 . S
H1125 C1112 0.961 1_554 S
H1126 C1112 0.961 . S
H1127 C1113 0.958 . S
H1128 C1113 0.961 . S
H1129 C1113 0.960 . S
C1130 C1131 1.391 1_565 S
C1130 C1132 1.394 . S
C1130 H1146 0.931 . S
C1131 C1130 1.391 1_545 S
C1131 C1135 1.376 . S
C1132 C1130 1.394 . S
C1132 C1133 1.374 . S
C1132 C1136 1.531 . S
C1133 C1132 1.374 . S
C1133 C1134 1.402 1_565 S
C1133 C1141 1.504 1_556 S
C1134 C1133 1.402 1_545 S
C1134 C1135 1.392 . S
C1134 C1137 1.511 . S
C1135 C1131 1.376 . S
C1135 C1134 1.392 . S
C1135 H1147 0.929 . S
C1136 C1132 1.531 . S
C1136 H1148 0.978 . S
C1136 H1149 0.962 . S
C1136 H1150 0.960 . S
C1137 C1134 1.511 . S
C1137 H1151 0.961 . S
C1137 H1152 0.961 1_556 S
C1137 H1153 0.961 . S
C1138 C1139 1.370 1_545 S
C1138 C1140 1.363 . S
C1138 H1154 0.931 . S
C1139 C1138 1.370 1_565 S
C1139 C1143 1.408 . S
C1140 C1138 1.363 . S
C1140 C1141 1.370 1_545 S
C1140 C1144 1.524 . S
C1141 C1133 1.504 1_554 S
C1141 C1140 1.370 1_565 S
C1141 C1142 1.403 . S
C1142 C1141 1.403 . S
C1142 C1143 1.404 . S
C1142 C1145 1.539 . S
C1143 C1139 1.408 . S
C1143 C1142 1.404 . S
C1143 H1155 0.930 . S
C1144 C1140 1.524 . S
C1144 H1156 0.956 . S
C1144 H1157 0.961 . S
C1144 H1158 0.961 . S
C1145 C1142 1.539 . S
C1145 H1159 0.958 . S
C1145 H1160 0.961 . S
C1145 H1161 0.960 1_554 S
H1146 C1130 0.931 . S
H1147 C1135 0.929 . S
H1148 C1136 0.978 . S
H1149 C1136 0.962 . S
H1150 C1136 0.960 . S
H1151 C1137 0.961 . S
H1152 C1137 0.961 1_554 S
H1153 C1137 0.961 . S
H1154 C1138 0.931 . S
H1155 C1143 0.930 . S
H1156 C1144 0.956 . S
H1157 C1144 0.961 . S
H1158 C1144 0.961 . S
H1159 C1145 0.958 . S
H1160 C1145 0.961 . S
H1161 C1145 0.960 1_556 S
C1162 C1163 1.391 . S
C1162 C1164 1.394 . S
C1162 H1178 0.931 . S
C1163 C1162 1.391 . S
C1163 C1167 1.376 1_655 S
C1164 C1162 1.394 . S
C1164 C1165 1.369 . S
C1164 C1168 1.531 . S
C1165 C1164 1.369 . S
C1165 C1166 1.410 1_655 S
C1165 C1173 1.505 1_556 S
C1166 C1165 1.410 1_455 S
C1166 C1167 1.392 . S
C1166 C1169 1.511 . S
C1167 C1163 1.376 1_455 S
C1167 C1166 1.392 . S
C1167 H1179 0.929 . S
C1168 C1164 1.531 . S
C1168 H1180 0.960 1_556 S
C1168 H1181 0.962 . S
C1168 H1182 0.960 . S
C1169 C1166 1.511 . S
C1169 H1183 0.961 . S
C1169 H1184 0.961 1_556 S
C1169 H1185 0.961 1_455 S
C1170 C1171 1.370 . S
C1170 C1172 1.363 . S
C1170 H1186 0.931 . S
C1171 C1170 1.370 . S
C1171 C1175 1.408 1_455 S
C1172 C1170 1.363 . S
C1172 C1173 1.362 1_455 S
C1172 C1176 1.524 . S
C1173 C1165 1.505 1_554 S
C1173 C1172 1.362 1_655 S
C1173 C1174 1.410 . S
C1174 C1173 1.410 . S
C1174 C1175 1.404 . S
C1174 C1177 1.539 . S
C1175 C1171 1.408 1_655 S
C1175 C1174 1.404 . S
C1175 H1187 0.930 . S
C1176 C1172 1.524 . S
C1176 H1188 0.956 1_554 S
C1176 H1189 0.961 1_554 S
C1176 H1190 0.961 . S
C1177 C1174 1.539 . S
C1177 H1191 0.958 . S
C1177 H1192 0.961 . S
C1177 H1193 0.960 . S
H1178 C1162 0.931 . S
H1179 C1167 0.929 . S
H1180 C1168 0.960 1_554 S
H1181 C1168 0.962 . S
H1182 C1168 0.960 . S
H1183 C1169 0.961 . S
H1184 C1169 0.961 1_554 S
H1185 C1169 0.961 1_655 S
H1186 C1170 0.931 . S
H1187 C1175 0.930 . S
H1188 C1176 0.956 1_556 S
H1189 C1176 0.961 1_556 S
H1190 C1176 0.961 . S
H1191 C1177 0.958 . S
H1192 C1177 0.961 . S
H1193 C1177 0.960 . S
C1194 C1195 1.391 . S
C1194 C1196 1.394 . S
C1194 H1210 0.931 . S
C1195 C1194 1.391 . S
C1195 C1199 1.376 . S
C1196 C1194 1.394 . S
C1196 C1197 1.369 . S
C1196 C1200 1.531 . S
C1197 C1196 1.369 . S
C1197 C1198 1.410 . S
C1197 C1205 1.503 . S
C1198 C1197 1.410 . S
C1198 C1199 1.392 . S
C1198 C1201 1.511 . S
C1199 C1195 1.376 . S
C1199 C1198 1.392 . S
C1199 H1211 0.929 . S
C1200 C1196 1.531 . S
C1200 H1212 0.960 . S
C1200 H1213 0.962 . S
C1200 H1214 0.960 . S
C1201 C1198 1.511 . S
C1201 H1215 0.961 . S
C1201 H1216 0.961 . S
C1201 H1217 0.961 . S
C1202 C1203 1.370 . S
C1202 C1204 1.363 . S
C1202 H1218 0.931 . S
C1203 C1202 1.370 . S
C1203 C1207 1.408 . S
C1204 C1202 1.363 . S
C1204 C1205 1.370 . S
C1204 C1208 1.524 . S
C1205 C1197 1.503 . S
C1205 C1204 1.370 . S
C1205 C1206 1.403 . S
C1206 C1205 1.403 . S
C1206 C1207 1.404 . S
C1206 C1209 1.539 . S
C1207 C1203 1.408 . S
C1207 C1206 1.404 . S
C1207 H1219 0.930 . S
C1208 C1204 1.524 . S
C1208 H1220 0.956 . S
C1208 H1221 0.961 . S
C1208 H1222 0.961 . S
C1209 C1206 1.539 . S
C1209 H1223 0.958 . S
C1209 H1224 0.961 . S
C1209 H1225 0.960 . S
H1210 C1194 0.931 . S
H1211 C1199 0.929 . S
H1212 C1200 0.960 . S
H1213 C1200 0.962 . S
H1214 C1200 0.960 . S
H1215 C1201 0.961 . S
H1216 C1201 0.961 . S
H1217 C1201 0.961 . S
H1218 C1202 0.931 . S
H1219 C1207 0.930 . S
H1220 C1208 0.956 . S
H1221 C1208 0.961 . S
H1222 C1208 0.961 . S
H1223 C1209 0.958 . S
H1224 C1209 0.961 . S
H1225 C1209 0.960 . S
C1226 C1227 1.391 . S
C1226 C1228 1.394 . S
C1226 H1242 0.931 . S
C1227 C1226 1.391 . S
C1227 C1231 1.376 . S
C1228 C1226 1.394 . S
C1228 C1229 1.369 . S
C1228 C1232 1.531 . S
C1229 C1228 1.369 . S
C1229 C1230 1.410 . S
C1229 C1237 1.503 . S
C1230 C1229 1.410 . S
C1230 C1231 1.392 . S
C1230 C1233 1.511 . S
C1231 C1227 1.376 . S
C1231 C1230 1.392 . S
C1231 H1243 0.929 . S
C1232 C1228 1.531 . S
C1232 H1244 0.960 . S
C1232 H1245 0.962 . S
C1232 H1246 0.960 . S
C1233 C1230 1.511 . S
C1233 H1247 0.961 . S
C1233 H1248 0.961 . S
C1233 H1249 0.961 . S
C1234 C1235 1.370 . S
C1234 C1236 1.363 . S
C1234 H1250 0.931 . S
C1235 C1234 1.370 . S
C1235 C1239 1.408 . S
C1236 C1234 1.363 . S
C1236 C1237 1.370 . S
C1236 C1240 1.524 . S
C1237 C1229 1.503 . S
C1237 C1236 1.370 . S
C1237 C1238 1.403 . S
C1238 C1237 1.403 . S
C1238 C1239 1.404 . S
C1238 C1241 1.539 . S
C1239 C1235 1.408 . S
C1239 C1238 1.404 . S
C1239 H1251 0.930 . S
C1240 C1236 1.524 . S
C1240 H1252 0.956 . S
C1240 H1253 0.961 . S
C1240 H1254 0.961 . S
C1241 C1238 1.539 . S
C1241 H1255 0.958 . S
C1241 H1256 0.961 . S
C1241 H1257 0.960 . S
H1242 C1226 0.931 . S
H1243 C1231 0.929 . S
H1244 C1232 0.960 . S
H1245 C1232 0.962 . S
H1246 C1232 0.960 . S
H1247 C1233 0.961 . S
H1248 C1233 0.961 . S
H1249 C1233 0.961 . S
H1250 C1234 0.931 . S
H1251 C1239 0.930 . S
H1252 C1240 0.956 . S
H1253 C1240 0.961 . S
H1254 C1240 0.961 . S
H1255 C1241 0.958 . S
H1256 C1241 0.961 . S
H1257 C1241 0.960 . S
C1258 C1259 1.391 . S
C1258 C1260 1.394 . S
C1258 H1274 0.931 . S
C1259 C1258 1.391 . S
C1259 C1263 1.376 . S
C1260 C1258 1.394 . S
C1260 C1261 1.369 . S
C1260 C1264 1.531 . S
C1261 C1260 1.369 . S
C1261 C1262 1.410 . S
C1261 C1269 1.503 . S
C1262 C1261 1.410 . S
C1262 C1263 1.392 . S
C1262 C1265 1.511 . S
C1263 C1259 1.376 . S
C1263 C1262 1.392 . S
C1263 H1275 0.929 . S
C1264 C1260 1.531 . S
C1264 H1276 0.960 . S
C1264 H1277 0.962 . S
C1264 H1278 0.960 . S
C1265 C1262 1.511 . S
C1265 H1279 0.961 . S
C1265 H1280 0.961 . S
C1265 H1281 0.961 . S
C1266 C1267 1.370 . S
C1266 C1268 1.363 . S
C1266 H1282 0.931 . S
C1267 C1266 1.370 . S
C1267 C1271 1.408 . S
C1268 C1266 1.363 . S
C1268 C1269 1.370 . S
C1268 C1272 1.524 . S
C1269 C1261 1.503 . S
C1269 C1268 1.370 . S
C1269 C1270 1.403 . S
C1270 C1269 1.403 . S
C1270 C1271 1.404 . S
C1270 C1273 1.539 . S
C1271 C1267 1.408 . S
C1271 C1270 1.404 . S
C1271 H1283 0.930 . S
C1272 C1268 1.524 . S
C1272 H1284 0.956 . S
C1272 H1285 0.961 . S
C1272 H1286 0.961 . S
C1273 C1270 1.539 . S
C1273 H1287 0.958 . S
C1273 H1288 0.961 . S
C1273 H1289 0.960 . S
H1274 C1258 0.931 . S
H1275 C1263 0.929 . S
H1276 C1264 0.960 . S
H1277 C1264 0.962 . S
H1278 C1264 0.960 . S
H1279 C1265 0.961 . S
H1280 C1265 0.961 . S
H1281 C1265 0.961 . S
H1282 C1266 0.931 . S
H1283 C1271 0.930 . S
H1284 C1272 0.956 . S
H1285 C1272 0.961 . S
H1286 C1272 0.961 . S
H1287 C1273 0.958 . S
H1288 C1273 0.961 . S
H1289 C1273 0.960 . S
C1290 C1291 1.391 . S
C1290 C1292 1.394 . S
C1290 H1306 0.931 . S
C1291 C1290 1.391 . S
C1291 C1295 1.376 . S
C1292 C1290 1.394 . S
C1292 C1293 1.369 . S
C1292 C1296 1.531 . S
C1293 C1292 1.369 . S
C1293 C1294 1.410 . S
C1293 C1301 1.503 . S
C1294 C1293 1.410 . S
C1294 C1295 1.392 . S
C1294 C1297 1.511 . S
C1295 C1291 1.376 . S
C1295 C1294 1.392 . S
C1295 H1307 0.929 . S
C1296 C1292 1.531 . S
C1296 H1308 0.960 . S
C1296 H1309 0.962 . S
C1296 H1310 0.960 . S
C1297 C1294 1.511 . S
C1297 H1311 0.961 . S
C1297 H1312 0.961 . S
C1297 H1313 0.961 . S
C1298 C1299 1.370 . S
C1298 C1300 1.363 . S
C1298 H1314 0.931 . S
C1299 C1298 1.370 . S
C1299 C1303 1.408 . S
C1300 C1298 1.363 . S
C1300 C1301 1.370 . S
C1300 C1304 1.524 . S
C1301 C1293 1.503 . S
C1301 C1300 1.370 . S
C1301 C1302 1.403 . S
C1302 C1301 1.403 . S
C1302 C1303 1.404 . S
C1302 C1305 1.539 . S
C1303 C1299 1.408 . S
C1303 C1302 1.404 . S
C1303 H1315 0.930 . S
C1304 C1300 1.524 . S
C1304 H1316 0.956 . S
C1304 H1317 0.961 . S
C1304 H1318 0.961 . S
C1305 C1302 1.539 . S
C1305 H1319 0.958 . S
C1305 H1320 0.961 . S
C1305 H1321 0.960 . S
H1306 C1290 0.931 . S
H1307 C1295 0.929 . S
H1308 C1296 0.960 . S
H1309 C1296 0.962 . S
H1310 C1296 0.960 . S
H1311 C1297 0.961 . S
H1312 C1297 0.961 . S
H1313 C1297 0.961 . S
H1314 C1298 0.931 . S
H1315 C1303 0.930 . S
H1316 C1304 0.956 . S
H1317 C1304 0.961 . S
H1318 C1304 0.961 . S
H1319 C1305 0.958 . S
H1320 C1305 0.961 . S
H1321 C1305 0.960 . S
C1322 C1323 1.391 . S
C1322 C1324 1.394 . S
C1322 H1338 0.931 . S
C1323 C1322 1.391 . S
C1323 C1327 1.376 . S
C1324 C1322 1.394 . S
C1324 C1325 1.369 . S
C1324 C1328 1.531 . S
C1325 C1324 1.369 . S
C1325 C1326 1.410 . S
C1325 C1333 1.503 . S
C1326 C1325 1.410 . S
C1326 C1327 1.392 . S
C1326 C1329 1.511 . S
C1327 C1323 1.376 . S
C1327 C1326 1.392 . S
C1327 H1339 0.929 . S
C1328 C1324 1.531 . S
C1328 H1340 0.960 . S
C1328 H1341 0.962 . S
C1328 H1342 0.960 . S
C1329 C1326 1.511 . S
C1329 H1343 0.961 . S
C1329 H1344 0.961 . S
C1329 H1345 0.961 . S
C1330 C1331 1.370 . S
C1330 C1332 1.363 . S
C1330 H1346 0.931 . S
C1331 C1330 1.370 . S
C1331 C1335 1.408 . S
C1332 C1330 1.363 . S
C1332 C1333 1.370 . S
C1332 C1336 1.524 . S
C1333 C1325 1.503 . S
C1333 C1332 1.370 . S
C1333 C1334 1.403 . S
C1334 C1333 1.403 . S
C1334 C1335 1.404 . S
C1334 C1337 1.539 . S
C1335 C1331 1.408 . S
C1335 C1334 1.404 . S
C1335 H1347 0.930 . S
C1336 C1332 1.524 . S
C1336 H1348 0.956 . S
C1336 H1349 0.961 . S
C1336 H1350 0.961 . S
C1337 C1334 1.539 . S
C1337 H1351 0.958 . S
C1337 H1352 0.961 . S
C1337 H1353 0.960 . S
H1338 C1322 0.931 . S
H1339 C1327 0.929 . S
H1340 C1328 0.960 . S
H1341 C1328 0.962 . S
H1342 C1328 0.960 . S
H1343 C1329 0.961 . S
H1344 C1329 0.961 . S
H1345 C1329 0.961 . S
H1346 C1330 0.931 . S
H1347 C1335 0.930 . S
H1348 C1336 0.956 . S
H1349 C1336 0.961 . S
H1350 C1336 0.961 . S
H1351 C1337 0.958 . S
H1352 C1337 0.961 . S
H1353 C1337 0.960 . S
C1354 C1355 1.391 . S
C1354 C1356 1.394 . S
C1354 H1370 0.931 . S
C1355 C1354 1.391 . S
C1355 C1359 1.376 . S
C1356 C1354 1.394 . S
C1356 C1357 1.369 . S
C1356 C1360 1.531 . S
C1357 C1356 1.369 . S
C1357 C1358 1.410 . S
C1357 C1365 1.503 . S
C1358 C1357 1.410 . S
C1358 C1359 1.392 . S
C1358 C1361 1.511 . S
C1359 C1355 1.376 . S
C1359 C1358 1.392 . S
C1359 H1371 0.929 . S
C1360 C1356 1.531 . S
C1360 H1372 0.960 . S
C1360 H1373 0.962 . S
C1360 H1374 0.960 . S
C1361 C1358 1.511 . S
C1361 H1375 0.961 . S
C1361 H1376 0.961 . S
C1361 H1377 0.961 . S
C1362 C1363 1.370 . S
C1362 C1364 1.363 . S
C1362 H1378 0.931 . S
C1363 C1362 1.370 . S
C1363 C1367 1.408 . S
C1364 C1362 1.363 . S
C1364 C1365 1.370 . S
C1364 C1368 1.524 . S
C1365 C1357 1.503 . S
C1365 C1364 1.370 . S
C1365 C1366 1.403 . S
C1366 C1365 1.403 . S
C1366 C1367 1.404 . S
C1366 C1369 1.539 . S
C1367 C1363 1.408 . S
C1367 C1366 1.404 . S
C1367 H1379 0.930 . S
C1368 C1364 1.524 . S
C1368 H1380 0.956 . S
C1368 H1381 0.961 . S
C1368 H1382 0.961 . S
C1369 C1366 1.539 . S
C1369 H1383 0.958 . S
C1369 H1384 0.961 . S
C1369 H1385 0.960 . S
H1370 C1354 0.931 . S
H1371 C1359 0.929 . S
H1372 C1360 0.960 . S
H1373 C1360 0.962 . S
H1374 C1360 0.960 . S
H1375 C1361 0.961 . S
H1376 C1361 0.961 . S
H1377 C1361 0.961 . S
H1378 C1362 0.931 . S
H1379 C1367 0.930 . S
H1380 C1368 0.956 . S
H1381 C1368 0.961 . S
H1382 C1368 0.961 . S
H1383 C1369 0.958 . S
H1384 C1369 0.961 . S
H1385 C1369 0.960 . S
C235 C134 1.306 . S
C243 C10 1.298 . S
C267 C23 1.328 . S
C275 C147 1.283 . S
C299 C121 1.262 . S
C307 C30 1.314 . S
C331 C192 1.285 . S
C339 C49 1.299 . S
C363 C56 1.262 . S
C371 C166 1.310 . S
C395 C179 1.299 . S
C403 C69 1.300 . S
C427 C88 1.294 . S
C435 C212 1.302 . S
C459 C225 1.327 . S
C467 C101 1.283 . S
C491 C114 1.257 . S
C499 C205 1.313 . S
C523 C3 1.281 . S
C531 C18 1.269 . S
C555 C16 1.285 . S
C563 C29 1.275 . S
C587 C5 1.240 . S
C595 C31 1.235 . S
C619 C68 1.266 . S
C627 C42 1.242 . S
C651 C44 1.281 . S
C659 C57 1.249 . S
C683 C70 1.228 . S
C691 C55 1.267 . S
C715 C81 1.237 . S
C723 C96 1.270 . S
C747 C94 1.280 . S
C755 C109 1.277 . S
C779 C83 1.269 . S
C787 C107 1.243 . S
C811 C146 1.281 . S
C819 C122 1.267 . S
C843 C120 1.287 . S
C851 C135 1.254 . S
C875 C133 1.283 . S
C883 C148 1.251 . S
C907 C174 1.259 . S
C915 C159 1.239 . S
C939 C187 1.293 . S
C947 C172 1.260 . S
C971 C161 1.276 . S
C979 C185 1.247 . S
C1003 C198 1.210 . S
C1011 C224 1.254 . S
C1035 C213 1.245 . S
C1043 C200 1.254 . S
C1067 C226 1.221 . S
C1075 C211 1.251 . S
C1099 C4 1.741 . S
C1107 C43 1.728 . S
C1131 C62 1.701 . S
C1139 C17 1.724 1_565 S
C1163 C75 1.738 1_655 S
C1171 C36 1.723 . S
C1195 C127 1.719 . S
C1203 C82 1.717 . S
C1227 C140 1.704 . S
C1235 C95 1.729 . S
C1259 C108 1.706 . S
C1267 C153 1.729 . S
C1291 C199 1.728 . S
C1299 C160 1.718 . S
C1323 C218 1.741 . S
C1331 C173 1.725 . S
C1355 C231 1.702 . S
C1363 C186 1.721 . S
