# Generated by pormake.
# Topology snz, (6)-cn, num edge types: 1
# Building blocks:
#     Node 0, Type 0, BuildingBlock: BETDEL_clean_sbu_0, # of connection points: 6
#     Node 1, Type 0, BuildingBlock: BETDEL_clean_sbu_0, # of connection points: 6
#     Node 2, Type 0, BuildingBlock: BETDEL_clean_sbu_0, # of connection points: 6
#     Node 3, Type 0, BuildingBlock: BETDEL_clean_sbu_0, # of connection points: 6
#     Node 4, Type 0, BuildingBlock: BETDEL_clean_sbu_0, # of connection points: 6
#     Node 5, Type 0, BuildingBlock: BETDEL_clean_sbu_0, # of connection points: 6
#     Node 6, Type 0, BuildingBlock: BETDEL_clean_sbu_0, # of connection points: 6
#     Node 7, Type 0, BuildingBlock: BETDEL_clean_sbu_0, # of connection points: 6
#     Node 8, Type 0, BuildingBlock: BETDEL_clean_sbu_0, # of connection points: 6
#     Edge 9, Type (0, 0), BuildingBlock: EZIPEK_clean_linker_0, # of connection points: 2
#     Edge 10, Type (0, 0), BuildingBlock: EZIPEK_clean_linker_0, # of connection points: 2
#     Edge 11, Type (0, 0), BuildingBlock: EZIPEK_clean_linker_0, # of connection points: 2
#     Edge 12, Type (0, 0), BuildingBlock: EZIPEK_clean_linker_0, # of connection points: 2
#     Edge 13, Type (0, 0), BuildingBlock: EZIPEK_clean_linker_0, # of connection points: 2
#     Edge 14, Type (0, 0), BuildingBlock: EZIPEK_clean_linker_0, # of connection points: 2
#     Edge 15, Type (0, 0), BuildingBlock: EZIPEK_clean_linker_0, # of connection points: 2
#     Edge 16, Type (0, 0), BuildingBlock: EZIPEK_clean_linker_0, # of connection points: 2
#     Edge 17, Type (0, 0), BuildingBlock: EZIPEK_clean_linker_0, # of connection points: 2
#     Edge 18, Type (0, 0), BuildingBlock: EZIPEK_clean_linker_0, # of connection points: 2
#     Edge 19, Type (0, 0), BuildingBlock: EZIPEK_clean_linker_0, # of connection points: 2
#     Edge 20, Type (0, 0), BuildingBlock: EZIPEK_clean_linker_0, # of connection points: 2
#     Edge 21, Type (0, 0), BuildingBlock: EZIPEK_clean_linker_0, # of connection points: 2
#     Edge 22, Type (0, 0), BuildingBlock: EZIPEK_clean_linker_0, # of connection points: 2
#     Edge 23, Type (0, 0), BuildingBlock: EZIPEK_clean_linker_0, # of connection points: 2
#     Edge 24, Type (0, 0), BuildingBlock: EZIPEK_clean_linker_0, # of connection points: 2
#     Edge 25, Type (0, 0), BuildingBlock: EZIPEK_clean_linker_0, # of connection points: 2
#     Edge 26, Type (0, 0), BuildingBlock: EZIPEK_clean_linker_0, # of connection points: 2
#     Edge 27, Type (0, 0), BuildingBlock: EZIPEK_clean_linker_0, # of connection points: 2
#     Edge 28, Type (0, 0), BuildingBlock: EZIPEK_clean_linker_0, # of connection points: 2
#     Edge 29, Type (0, 0), BuildingBlock: EZIPEK_clean_linker_0, # of connection points: 2
#     Edge 30, Type (0, 0), BuildingBlock: EZIPEK_clean_linker_0, # of connection points: 2
#     Edge 31, Type (0, 0), BuildingBlock: EZIPEK_clean_linker_0, # of connection points: 2
#     Edge 32, Type (0, 0), BuildingBlock: EZIPEK_clean_linker_0, # of connection points: 2
#     Edge 33, Type (0, 0), BuildingBlock: EZIPEK_clean_linker_0, # of connection points: 2
#     Edge 34, Type (0, 0), BuildingBlock: EZIPEK_clean_linker_0, # of connection points: 2
#     Edge 35, Type (0, 0), BuildingBlock: EZIPEK_clean_linker_0, # of connection points: 2
# Relax obj value: 0.212
# Max RMSD: 0.232
# Mean RMSD: 0.174
data_MOF--net-snz--node1-BETDEL_clean_sbu_0--edge1-EZIPEK_clean_linker_0
_symmetry_space_group_name_H-M    P1
_symmetry_Int_Tables_number       1
_symmetry_cell_setting            triclinic
loop_
_symmetry_equiv_pos_as_xyz
'x, y, z'
_cell_length_a     39.364098
_cell_length_b     40.11285
_cell_length_c     10.811154
_cell_angle_alpha  91.979045
_cell_angle_beta   92.246356
_cell_angle_gamma 120.27442
loop_
_atom_site_label
_atom_site_type_symbol
_atom_site_fract_x
_atom_site_fract_y
_atom_site_fract_z
_atom_type_partial_charge
Dy0 Dy 0.10323 0.46833 0.04692 0.0
C1 C 0.98922 0.51697 0.92975 0.0
C2 C 0.15296 0.44598 0.14104 0.0
Dy3 Dy 0.03218 0.48644 0.0251 0.0
O4 O 0.16358 0.4756 0.07395 0.0
O5 O 0.11543 0.4287 0.15638 0.0
O6 O 0.11365 0.46954 0.83958 0.0
O7 O 0.07246 0.48157 0.90412 0.0
C8 C 0.08665 0.47764 0.8049 0.0
C9 C 0.04661 0.47652 0.2674 0.0
O10 O 0.99909 0.42216 0.97573 0.0
O11 O 0.05082 0.40951 1.00731 0.0
O12 O 0.01284 0.53047 0.02884 0.0
O13 O 0.98777 0.48575 0.88443 0.0
O14 O 0.01748 0.48097 0.22759 0.0
O15 O 0.06364 0.47457 0.17162 0.0
O16 O 0.13365 0.52948 0.12032 0.0
O17 O 0.08785 0.54451 0.03666 0.0
C18 C 0.01348 0.39831 0.97541 0.0
C19 C 0.12227 0.55446 0.09468 0.0
Dy20 Dy 0.61704 0.54963 0.06864 0.0
C21 C 0.5784 0.39246 0.94888 0.0
C22 C 0.63962 0.6219 0.16097 0.0
Dy23 Dy 0.61045 0.46616 0.04959 0.0
O24 O 0.60748 0.60028 0.09109 0.0
O25 O 0.65907 0.60414 0.17952 0.0
O26 O 0.60911 0.55432 0.86087 0.0
O27 O 0.60845 0.50658 0.92424 0.0
C28 C 0.60659 0.52174 0.82487 0.0
C29 C 0.62253 0.49449 0.29299 0.0
O30 O 0.67249 0.50489 0.9916 0.0
O31 O 0.67959 0.56511 0.04923 0.0
O32 O 0.61186 0.41088 1.01584 0.0
O33 O 0.56388 0.41487 0.93386 0.0
O34 O 0.62032 0.462 0.25654 0.0
O35 O 0.61952 0.50933 0.19406 0.0
O36 O 0.55618 0.51284 0.13063 0.0
O37 O 0.54897 0.45182 0.08913 0.0
C38 C 0.69363 0.54341 1.00591 0.0
C39 C 0.53539 0.47455 0.12628 0.0
Dy40 Dy 0.54067 0.98474 0.10149 0.0
C41 C 0.69509 0.09654 0.02777 0.0
C42 C 0.46737 0.93465 0.1722 0.0
Dy43 Dy 0.62024 0.05408 0.10555 0.0
O44 O 0.48316 0.92794 0.0781 0.0
O45 O 0.49115 0.96858 0.22505 0.0
O46 O 0.54459 0.96782 0.9026 0.0
O47 O 0.57309 0.02578 0.9597 0.0
C48 C 0.56905 0.00257 0.87034 0.0
C49 C 0.59484 0.03598 0.33925 0.0
O50 O 0.58382 0.08122 0.05246 0.0
O51 O 0.52475 0.03108 0.11006 0.0
O52 O 0.67941 0.11017 0.10383 0.0
O53 O 0.66981 0.06081 0.99528 0.0
O54 O 0.6193 0.07075 0.30728 0.0
O55 O 0.58874 0.01275 0.24729 0.0
O56 O 0.57546 0.9571 0.15562 0.0
O57 O 0.63164 0.0047 0.07672 0.0
C58 C 0.54579 0.06616 0.07077 0.0
C59 C 0.61175 0.97038 0.12209 0.0
Dy60 Dy 0.8139 0.85406 0.41109 0.0
C61 C 0.69196 0.89143 0.28864 0.0
C62 C 0.85467 0.82178 0.51128 0.0
Dy63 Dy 0.73879 0.86671 0.3898 0.0
O64 O 0.81751 0.80946 0.52124 0.0
O65 O 0.87033 0.85294 0.44889 0.0
O66 O 0.82595 0.85854 0.20546 0.0
O67 O 0.77958 0.86271 0.26775 0.0
C68 C 0.79642 0.86297 0.16958 0.0
C69 C 0.75662 0.85787 0.6313 0.0
O70 O 0.70982 0.80478 0.32284 0.0
O71 O 0.76255 0.7942 0.36279 0.0
O72 O 0.67943 0.86168 0.35641 0.0
O73 O 0.7296 0.90744 0.27762 0.0
O74 O 0.72758 0.86308 0.59622 0.0
O75 O 0.77306 0.85776 0.53276 0.0
O76 O 0.84201 0.91748 0.47586 0.0
O77 O 0.78908 0.927 0.42442 0.0
C78 C 0.72534 0.78224 0.3263 0.0
C79 C 0.82609 0.93989 0.46478 0.0
Dy80 Dy 0.23119 0.86561 0.34332 0.0
C81 C 0.19874 0.71467 0.25881 0.0
C82 C 0.2615 0.94186 0.42127 0.0
Dy83 Dy 0.22117 0.78903 0.33002 0.0
O84 O 0.25771 0.92901 0.30682 0.0
O85 O 0.24681 0.91288 0.49145 0.0
O86 O 0.20271 0.857 0.15062 0.0
O87 O 0.23703 0.83179 0.1876 0.0
C88 C 0.21519 0.83496 0.10456 0.0
C89 C 0.23491 0.81923 0.56959 0.0
O90 O 0.28193 0.82175 0.2659 0.0
O91 O 0.29332 0.877 0.37157 0.0
O92 O 0.22942 0.73744 0.33229 0.0
O93 O 0.18061 0.73256 0.22419 0.0
O94 O 0.24679 0.7964 0.52702 0.0
O95 O 0.21416 0.8224 0.4835 0.0
O96 O 0.16635 0.83404 0.37107 0.0
O97 O 0.15781 0.77317 0.33173 0.0
C98 C 0.30661 0.85716 0.31163 0.0
C99 C 0.1434 0.79585 0.35892 0.0
Dy100 Dy 0.22194 0.28659 0.35098 0.0
C101 C 0.37805 0.3977 0.29792 0.0
C102 C 0.14522 0.24568 0.41271 0.0
Dy103 Dy 0.30315 0.35146 0.3655 0.0
O104 O 0.16061 0.23312 0.33218 0.0
O105 O 0.17155 0.27977 0.45795 0.0
O106 O 0.22562 0.26768 0.1545 0.0
O107 O 0.25767 0.32606 0.21134 0.0
C108 C 0.25186 0.30184 0.12268 0.0
C109 C 0.27243 0.33758 0.59314 0.0
O110 O 0.27606 0.38688 0.31972 0.0
O111 O 0.21226 0.33729 0.3392 0.0
O112 O 0.36631 0.39912 0.40773 0.0
O113 O 0.34918 0.37132 0.22644 0.0
O114 O 0.29734 0.37164 0.55703 0.0
O115 O 0.26714 0.31243 0.50754 0.0
O116 O 0.25156 0.25357 0.40868 0.0
O117 O 0.31391 0.30155 0.36546 0.0
C118 C 0.23789 0.37378 0.32001 0.0
C119 C 0.28925 0.2658 0.39409 0.0
Dy120 Dy 0.44312 0.17134 0.61805 0.0
C121 C 0.37 0.15891 0.03058 0.0
C122 C 0.47605 0.17734 0.39778 0.0
Dy123 Dy 0.39489 0.15834 0.8011 0.0
O124 O 0.45419 0.14558 0.45117 0.0
O125 O 0.48411 0.20561 0.47712 0.0
O126 O 0.49602 0.21322 0.73824 0.0
O127 O 0.44347 0.21405 0.75169 0.0
C128 C 0.47927 0.23007 0.79122 0.0
C129 C 0.35671 0.10054 0.62684 0.0
O130 O 0.37041 0.18805 0.69523 0.0
O131 O 0.40168 0.18792 0.52176 0.0
O132 O 0.38606 0.18811 0.96184 0.0
O133 O 0.35977 0.12833 0.95872 0.0
O134 O 0.34049 0.11665 0.68744 0.0
O135 O 0.39281 0.11555 0.664 0.0
O136 O 0.46607 0.13914 0.71817 0.0
O137 O 0.43903 0.14463 0.89513 0.0
C138 C 0.37664 0.19522 0.57826 0.0
C139 C 0.4622 0.13505 0.83719 0.0
Dy140 Dy 0.93316 0.16225 0.81439 0.0
C141 C 0.87139 0.17404 0.37719 0.0
C142 C 0.96359 0.15817 0.04113 0.0
Dy143 Dy 0.90548 0.17912 0.60517 0.0
O144 O 0.94034 0.12924 0.96466 0.0
O145 O 0.97668 0.18852 0.9772 0.0
O146 O 0.89109 0.09964 0.7861 0.0
O147 O 0.91568 0.13067 0.63031 0.0
C148 C 0.89173 0.09762 0.66684 0.0
C149 C 0.9466 0.24373 0.75231 0.0
O150 O 0.85047 0.15849 0.70272 0.0
O151 O 0.87714 0.15501 0.88997 0.0
O152 O 0.89299 0.20565 0.44608 0.0
O153 O 0.86065 0.14591 0.45031 0.0
O154 O 0.94744 0.24213 0.63278 0.0
O155 O 0.92285 0.21063 0.78951 0.0
O156 O 0.98934 0.18763 0.71636 0.0
O157 O 0.96037 0.18612 0.5267 0.0
C158 C 0.84688 0.15155 0.82067 0.0
C159 C 0.99142 0.19204 0.59612 0.0
Dy160 Dy 0.89709 0.64316 0.57521 0.0
C161 C 0.97266 0.69382 0.03037 0.0
C162 C 0.8618 0.61574 0.34421 0.0
Dy163 Dy 0.94292 0.68497 0.79429 0.0
O164 O 0.87609 0.59992 0.41547 0.0
O165 O 0.86313 0.64443 0.40839 0.0
O166 O 0.88732 0.58756 0.64552 0.0
O167 O 0.94168 0.6379 0.68575 0.0
C168 C 0.92155 0.60221 0.70415 0.0
C169 C 0.91942 0.72698 0.67059 0.0
O170 O 0.99355 0.70898 0.67568 0.0
O171 O 0.95429 0.68665 0.49357 0.0
O172 O 0.96622 0.71857 0.97512 0.0
O173 O 0.97328 0.67132 0.94291 0.0
O174 O 0.95241 0.74155 0.73745 0.0
O175 O 0.89844 0.6909 0.68364 0.0
O176 O 0.84574 0.62431 0.68873 0.0
O177 O 0.88358 0.64562 0.87312 0.0
C178 C 0.98941 0.70797 0.55399 0.0
C179 C 0.84869 0.62611 0.81062 0.0
C180 C 0.06594 0.4447 0.58646 0.0
C181 C 0.07265 0.47614 0.66981 0.0
C182 C 0.06089 0.50694 0.49034 0.0
C183 C 0.05804 0.47727 0.40519 0.0
N184 N 0.06159 0.41944 0.37493 0.0
N185 N 0.08012 0.53925 0.69723 0.0
C186 C 0.06201 0.44683 0.45436 0.0
C187 C 0.07058 0.50754 0.62064 0.0
N188 N 0.06071 0.41142 0.63425 0.0
N189 N 0.05482 0.53525 0.44684 0.0
H190 H 0.08597 0.54032 0.7924 0.0
H191 H 0.08482 0.56542 0.66607 0.0
H192 H 0.05362 0.53992 0.353 0.0
H193 H 0.05002 0.55373 0.50389 0.0
H194 H 0.05171 0.38591 0.58084 0.0
H195 H 0.06103 0.40784 0.72929 0.0
H196 H 0.0693 0.39936 0.40224 0.0
H197 H 0.05615 0.41853 0.27965 0.0
C198 C 0.59089 0.52327 0.59511 0.0
C199 C 0.60716 0.51014 0.68854 0.0
C200 C 0.63888 0.49314 0.52306 0.0
C201 C 0.62259 0.50634 0.42974 0.0
N202 N 0.59427 0.54623 0.38929 0.0
N203 N 0.63666 0.47139 0.73073 0.0
C204 C 0.60172 0.52484 0.46922 0.0
C205 C 0.62845 0.492 0.64955 0.0
N206 N 0.56249 0.53168 0.62491 0.0
N207 N 0.66693 0.48433 0.49242 0.0
H208 H 0.62539 0.4659 0.81751 0.0
H209 H 0.64914 0.45478 0.70619 0.0
H210 H 0.67775 0.48796 0.40434 0.0
H211 H 0.68325 0.47852 0.55718 0.0
H212 H 0.54618 0.53727 0.55938 0.0
H213 H 0.55142 0.52789 0.71265 0.0
H214 H 0.58231 0.5632 0.41521 0.0
H215 H 0.60552 0.55175 0.30257 0.0
C216 C 0.58267 0.98609 0.65242 0.0
C217 C 0.57994 0.01272 0.73661 0.0
C218 C 0.58168 0.05034 0.55767 0.0
C219 C 0.58775 0.02588 0.47452 0.0
N220 N 0.60492 0.97595 0.45712 0.0
N221 N 0.59618 0.07935 0.76568 0.0
C222 C 0.59077 0.99493 0.52543 0.0
C223 C 0.58486 0.04747 0.68853 0.0
N224 N 0.57972 0.95304 0.6942 0.0
N225 N 0.57249 0.07641 0.51257 0.0
H226 H 0.60826 0.08172 0.85473 0.0
H227 H 0.60159 0.10576 0.73417 0.0
H228 H 0.56852 0.07873 0.41794 0.0
H229 H 0.56443 0.09246 0.5695 0.0
H230 H 0.57468 0.92972 0.6349 0.0
H231 H 0.58189 0.94862 0.78784 0.0
H232 H 0.61183 0.95611 0.49249 0.0
H233 H 0.61469 0.98361 0.36976 0.0
C234 C 0.73716 0.83873 0.85083 0.0
C235 C 0.76775 0.85576 0.76722 0.0
C236 C 0.81618 0.88225 0.94979 0.0
C237 C 0.78553 0.8652 0.03339 0.0
N238 N 0.71605 0.83766 0.05875 0.0
N239 N 0.83731 0.88451 0.7409 0.0
C240 C 0.7458 0.84638 0.98255 0.0
C241 C 0.80754 0.87489 0.81783 0.0
N242 N 0.69973 0.81263 0.80438 0.0
N243 N 0.85361 0.90824 0.99659 0.0
H244 H 0.83208 0.8762 0.64714 0.0
H245 H 0.8666 0.89544 0.77175 0.0
H246 H 0.86049 0.91687 0.09069 0.0
H247 H 0.8767 0.92507 0.94186 0.0
H248 H 0.67679 0.79575 0.85963 0.0
H249 H 0.69274 0.80401 0.71028 0.0
H250 H 0.68692 0.82717 0.02693 0.0
H251 H 0.72129 0.84622 0.15224 0.0
C252 C 0.19714 0.79271 0.76402 0.0
C253 C 0.22925 0.8231 0.70624 0.0
C254 C 0.24844 0.86282 0.90427 0.0
C255 C 0.21925 0.83108 0.96618 0.0
N256 N 0.16698 0.76462 0.95505 0.0
N257 N 0.28973 0.88433 0.72938 0.0
C258 C 0.19398 0.79566 0.89575 0.0
C259 C 0.25607 0.85732 0.7789 0.0
N260 N 0.16906 0.76132 0.69247 0.0
N261 N 0.26795 0.89886 0.96311 0.0
H262 H 0.29634 0.8812 0.63876 0.0
H263 H 0.31265 0.9078 0.78153 0.0
H264 H 0.26227 0.90453 0.05222 0.0
H265 H 0.28663 0.92376 0.919 0.0
H266 H 0.14267 0.74017 0.72501 0.0
H267 H 0.17082 0.75771 0.59739 0.0
H268 H 0.15061 0.73673 0.91361 0.0
H269 H 0.16257 0.76638 0.04893 0.0
C270 C 0.2984 0.33011 0.80589 0.0
C271 C 0.26757 0.32957 0.73032 0.0
C272 C 0.22838 0.3157 0.91657 0.0
C273 C 0.25746 0.31201 0.98782 0.0
N274 N 0.31797 0.31082 0.99435 0.0
N275 N 0.20346 0.32315 0.71552 0.0
C276 C 0.29191 0.31805 0.93072 0.0
C277 C 0.23263 0.32269 0.78663 0.0
N278 N 0.33448 0.34309 0.75952 0.0
N279 N 0.19718 0.31372 0.97438 0.0
H280 H 0.2073 0.33203 0.62522 0.0
H281 H 0.1752 0.3137 0.74356 0.0
H282 H 0.19276 0.30808 0.06761 0.0
H283 H 0.17708 0.32028 0.93345 0.0
H284 H 0.35951 0.34881 0.81374 0.0
H285 H 0.34009 0.35041 0.66796 0.0
H286 H 0.34138 0.31037 0.9543 0.0
H287 H 0.31432 0.30209 0.08505 0.0
C288 C 0.45689 0.21004 0.2492 0.0
C289 C 0.46354 0.17905 0.26986 0.0
C290 C 0.40004 0.13308 0.17095 0.0
C291 C 0.39279 0.16344 0.14725 0.0
N292 N 0.40965 0.22951 0.1886 0.0
N293 N 0.44999 0.11566 0.20516 0.0
C294 C 0.41994 0.20175 0.19481 0.0
C295 C 0.4384 0.14242 0.21022 0.0
N296 N 0.48591 0.24691 0.28475 0.0
N297 N 0.36988 0.0956 0.15956 0.0
H298 H 0.47799 0.1225 0.24071 0.0
H299 H 0.43332 0.08869 0.15729 0.0
H300 H 0.34077 0.08871 0.13989 0.0
H301 H 0.37328 0.07242 0.18314 0.0
H302 H 0.48398 0.27143 0.27069 0.0
H303 H 0.51365 0.25278 0.31964 0.0
H304 H 0.42682 0.25768 0.22701 0.0
H305 H 0.38187 0.22304 0.15229 0.0
C306 C 0.88065 0.13241 0.2261 0.0
C307 C 0.8886 0.17001 0.26258 0.0
C308 C 0.95598 0.19745 0.20236 0.0
C309 C 0.94781 0.16029 0.16098 0.0
N310 N 0.90813 0.09174 0.17559 0.0
N311 N 0.92798 0.23821 0.23699 0.0
C312 C 0.91188 0.12741 0.18784 0.0
C313 C 0.92451 0.20261 0.23426 0.0
N314 N 0.84307 0.10196 0.22748 0.0
N315 N 0.99376 0.22768 0.20692 0.0
H316 H 0.90413 0.24185 0.25505 0.0
H317 H 0.95268 0.26272 0.20895 0.0
H318 H 0.01703 0.22352 0.18479 0.0
H319 H 1.00197 0.25532 0.24296 0.0
H320 H 0.81992 0.1061 0.25126 0.0
H321 H 0.83447 0.07393 0.19465 0.0
H322 H 0.9318 0.08851 0.15128 0.0
H323 H 0.88351 0.06653 0.20031 0.0
C324 C 0.8797 0.65641 0.17429 0.0
C325 C 0.8731 0.62115 0.21577 0.0
C326 C 0.9365 0.63423 0.14525 0.0
C327 C 0.94613 0.67313 0.12866 0.0
N328 N 0.93048 0.72317 0.17291 0.0
N329 N 0.88622 0.56935 0.19465 0.0
C330 C 0.91878 0.68491 0.15798 0.0
C331 C 0.89853 0.60749 0.18319 0.0
N332 N 0.84953 0.6638 0.16735 0.0
N333 N 0.96396 0.62358 0.12678 0.0
H334 H 0.85816 0.55047 0.22372 0.0
H335 H 0.90202 0.55611 0.16905 0.0
H336 H 0.99265 0.64348 0.10572 0.0
H337 H 0.9595 0.5961 0.13931 0.0
H338 H 0.85256 0.68909 0.13309 0.0
H339 H 0.82099 0.64259 0.18608 0.0
H340 H 0.96016 0.74465 0.17339 0.0
H341 H 0.91144 0.73282 0.19785 0.0
C342 C 0.2011 0.40835 0.36251 0.0
C343 C 0.22211 0.39845 0.27956 0.0
C344 C 0.19931 0.42154 0.10601 0.0
C345 C 0.17918 0.43242 0.1895 0.0
N346 N 0.16675 0.44348 0.39919 0.0
N347 N 0.24792 0.4025 0.07743 0.0
C348 C 0.18175 0.42792 0.31855 0.0
C349 C 0.22367 0.40761 0.15325 0.0
N350 N 0.19939 0.39867 0.48303 0.0
N351 N 0.19285 0.4217 0.98075 0.0
H352 H 0.26469 0.39032 0.10468 0.0
H353 H 0.25375 0.41301 0.98935 0.0
H354 H 0.17476 0.43107 0.94144 0.0
H355 H 0.2025 0.40929 0.91504 0.0
H356 H 0.18049 0.40034 0.54438 0.0
H357 H 0.21598 0.38736 0.52062 0.0
H358 H 0.17068 0.44433 0.49524 0.0
H359 H 0.15311 0.45868 0.37024 0.0
C360 C 0.64416 0.67642 0.29343 0.0
C361 C 0.65691 0.66353 0.19132 0.0
C362 C 0.70984 0.7296 0.16548 0.0
C363 C 0.70049 0.7417 0.27758 0.0
N364 N 0.66068 0.72709 0.45385 0.0
N365 N 0.70191 0.67647 0.03007 0.0
C366 C 0.66782 0.71535 0.34252 0.0
C367 C 0.68965 0.68979 0.12686 0.0
N368 N 0.60958 0.65136 0.34317 0.0
N369 N 0.7371 0.75639 0.09371 0.0
H370 H 0.68611 0.64801 0.9923 0.0
H371 H 0.7287 0.69308 0.99063 0.0
H372 H 0.75265 0.78582 0.11932 0.0
H373 H 0.74199 0.75007 1.00426 0.0
H374 H 0.59668 0.65963 0.41073 0.0
H375 H 0.59195 0.62264 0.30914 0.0
H376 H 0.63997 0.7084 0.51231 0.0
H377 H 0.67747 0.75538 0.49253 0.0
C378 C 0.39962 0.9238 0.15222 0.0
C379 C 0.42557 0.91184 0.19891 0.0
C380 C 0.37308 0.86243 0.31488 0.0
C381 C 0.3481 0.87678 0.27708 0.0
N382 N 0.33889 0.92406 0.17032 0.0
N383 N 0.43947 0.87247 0.3305 0.0
C384 C 0.36177 0.90836 0.199 0.0
C385 C 0.41293 0.88169 0.28131 0.0
N386 N 0.41086 0.94921 0.06011 0.0
N387 N 0.35873 0.83056 0.3833 0.0
H388 H 0.46841 0.88513 0.3041 0.0
H389 H 0.43367 0.8539 0.40177 0.0
H390 H 0.33074 0.81746 0.41742 0.0
H391 H 0.37373 0.8159 0.40172 0.0
H392 H 0.39179 0.9557 1.01144 0.0
H393 H 0.43853 0.96133 0.02388 0.0
H394 H 0.34927 0.95018 0.1286 0.0
H395 H 0.31005 0.91252 0.19505 0.0
C396 C 0.53285 0.12159 0.05623 0.0
C397 C 0.52385 0.08391 1.01557 0.0
C398 C 0.47185 0.07869 0.86844 0.0
C399 C 0.48277 0.11741 0.90265 0.0
N400 N 0.53075 0.17875 1.00397 0.0
N401 N 0.49038 0.02985 0.86236 0.0
C402 C 0.51511 0.13972 0.99032 0.0
C403 C 0.49469 0.06321 0.91661 0.0
N404 N 0.55782 0.13985 0.15882 0.0
N405 N 0.43949 0.05646 0.78926 0.0
H406 H 0.50636 0.01713 0.89195 0.0
H407 H 0.4735 0.01648 0.77993 0.0
H408 H 0.42392 0.06747 0.74342 0.0
H409 H 0.42661 0.02658 0.77506 0.0
H410 H 0.56225 0.16566 0.20049 0.0
H411 H 0.57138 0.12739 0.20862 0.0
H412 H 0.55624 0.19718 0.05923 0.0
H413 H 0.52091 0.19298 0.94731 0.0
C414 C 0.94382 0.30491 0.7778 0.0
C415 C 0.95782 0.28083 0.82232 0.0
C416 C 0.99472 0.32917 0.99244 0.0
C417 C 0.98803 0.35657 0.93276 0.0
N418 N 0.96091 0.37084 0.7498 0.0
N419 N 0.00459 0.27509 0.95665 0.0
C420 C 0.96338 0.34457 0.82099 0.0
C421 C 0.98517 0.29408 0.92649 0.0
N422 N 0.91192 0.29007 0.69441 0.0
N423 N 0.0106 0.33686 0.11162 0.0
H424 H 1.00134 0.25177 0.90145 0.0
H425 H 0.02752 0.28572 0.02544 0.0
H426 H 0.01504 0.36101 0.16516 0.0
H427 H 0.01494 0.31726 0.16061 0.0
H428 H 0.89873 0.3058 0.66697 0.0
H429 H 0.89609 0.26088 0.66395 0.0
H430 H 0.94651 0.36338 0.66161 0.0
H431 H 0.97644 0.40052 0.77135 0.0
C432 C 0.80199 0.57751 0.95584 0.0
C433 C 0.81123 0.60786 0.87551 0.0
C434 C 0.74267 0.59291 0.87195 0.0
C435 C 0.73406 0.56458 0.96005 0.0
N436 N 0.75801 0.53554 0.10465 0.0
N437 N 0.79238 0.65033 0.78199 0.0
C438 C 0.76441 0.5584 1.00731 0.0
C439 C 0.78216 0.61739 0.84169 0.0
N440 N 0.82834 0.56563 0.9789 0.0
N441 N 0.71285 0.59512 0.81114 0.0
H442 H 0.82102 0.66903 0.75797 0.0
H443 H 0.77342 0.66106 0.76759 0.0
H444 H 0.68333 0.57678 0.82595 0.0
H445 H 0.71704 0.61222 0.73638 0.0
H446 H 0.82089 0.53987 1.01975 0.0
H447 H 0.85705 0.58063 0.95119 0.0
H448 H 0.7804 0.53344 0.15174 0.0
H449 H 0.73105 0.52138 0.14535 0.0
C450 C 0.97839 0.59034 0.74338 0.0
C451 C 0.93791 0.57824 0.75425 0.0
C452 C 0.93005 0.52158 0.86193 0.0
C453 C 0.97137 0.53753 0.86812 0.0
N454 N 0.03598 0.58974 0.82677 0.0
N455 N 0.875 0.53172 0.83146 0.0
C456 C 0.99587 0.5729 0.81364 0.0
C457 C 0.91357 0.5435 0.81465 0.0
N458 N 0.99947 0.61595 0.65765 0.0
N459 N 0.90635 0.48526 0.90074 0.0
H460 H 0.86002 0.54436 0.7931 0.0
H461 H 0.85806 0.51047 0.89099 0.0
H462 H 0.91734 0.46917 0.94178 0.0
H463 H 0.87583 0.46984 0.88388 0.0
H464 H 0.02806 0.62317 0.63878 0.0
H465 H 0.98679 0.62556 0.59224 0.0
H466 H 0.05512 0.61776 0.80181 0.0
H467 H 0.05024 0.57699 0.87046 0.0
C468 C 0.54694 0.32198 0.99371 0.0
C469 C 0.55639 0.35071 0.90685 0.0
C470 C 0.51138 0.30061 0.74781 0.0
C471 C 0.50333 0.27173 0.83324 0.0
N472 N 0.51649 0.25407 0.03152 0.0
N473 N 0.55382 0.36701 0.69568 0.0
C474 C 0.52229 0.28226 0.95392 0.0
C475 C 0.54017 0.33989 0.78239 0.0
N476 N 0.55895 0.33251 0.11639 0.0
N477 N 0.49152 0.29063 0.63356 0.0
H478 H 0.57569 0.39569 0.71693 0.0
H479 H 0.54649 0.3606 0.60091 0.0
H480 H 0.47206 0.26218 0.6009 0.0
H481 H 0.49222 0.31067 0.57352 0.0
H482 H 0.54986 0.31299 0.18574 0.0
H483 H 0.57583 0.36108 0.15166 0.0
H484 H 0.53574 0.25878 0.10775 0.0
H485 H 0.49335 0.22563 1.01563 0.0
C486 C 0.77218 0.11567 0.8027 0.0
C487 C 0.80823 0.14042 0.87411 0.0
C488 C 0.7699 0.13985 0.04971 0.0
C489 C 0.73438 0.11743 0.97471 0.0
N490 N 0.70358 0.09654 0.76777 0.0
N491 N 0.83974 0.18613 0.05144 0.0
C492 C 0.7362 0.10945 0.84734 0.0
C493 C 0.80671 0.15549 0.99376 0.0
N494 N 0.77142 0.09625 0.69519 0.0
N495 N 0.76891 0.14509 0.17464 0.0
H496 H 0.86666 0.20024 1.01071 0.0
H497 H 0.83908 0.20036 0.13299 0.0
H498 H 0.74275 0.13421 0.21934 0.0
H499 H 0.79419 0.15768 0.23467 0.0
H500 H 0.74526 0.07486 0.64879 0.0
H501 H 0.7962 0.09795 0.65856 0.0
H502 H 0.70427 0.09355 0.67185 0.0
H503 H 0.67716 0.09346 0.79604 0.0
C504 C 0.66693 0.96943 0.24374 0.0
C505 C 0.63296 0.95012 0.15911 0.0
C506 C 0.63718 0.891 0.15967 0.0
C507 C 0.66925 0.90976 0.24998 0.0
N508 N 0.70858 0.96293 0.39977 0.0
N509 N 0.58406 0.89212 0.04134 0.0
C510 C 0.6826 0.94795 0.2974 0.0
C511 C 0.61745 0.91065 0.11902 0.0
N512 N 0.68421 0.00817 0.27545 0.0
N513 N 0.62673 0.8551 0.10939 0.0
H514 H 0.5709 0.90637 1.00055 0.0
H515 H 0.56843 0.86238 1.02067 0.0
H516 H 0.63985 0.83959 0.1399 0.0
H517 H 0.60671 0.84145 0.03318 0.0
H518 H 0.71237 0.02439 0.31909 0.0
H519 H 0.67172 0.02498 0.25521 0.0
H520 H 0.71586 0.98883 0.4481 0.0
H521 H 0.71976 0.94763 0.44523 0.0
C522 C 0.17697 0.64623 0.30639 0.0
C523 C 0.18595 0.6743 0.21752 0.0
C524 C 0.16258 0.62386 0.04827 0.0
C525 C 0.14842 0.59552 0.13708 0.0
N526 N 0.14128 0.57855 0.35055 0.0
N527 N 0.18982 0.69119 1.00428 0.0
C528 C 0.15612 0.60636 0.26618 0.0
C529 C 0.17958 0.66348 0.0884 0.0
N530 N 0.18755 0.65751 0.42943 0.0
N531 N 0.16106 0.61275 0.92615 0.0
H532 H 0.20631 0.72075 0.02918 0.0
H533 H 0.18117 0.68512 0.91016 0.0
H534 H 0.15022 0.584 0.89548 0.0
H535 H 0.17361 0.6319 0.85682 0.0
H536 H 0.1866 0.6391 0.49644 0.0
H537 H 0.19973 0.68593 0.4651 0.0
H538 H 0.1412 0.58432 0.44506 0.0
H539 H 0.12662 0.54905 0.32597 0.0
C540 C 0.4875 0.43509 0.28159 0.0
C541 C 0.49528 0.45588 0.17234 0.0
C542 C 0.42749 0.44341 0.15828 0.0
C543 C 0.41896 0.41982 0.26068 0.0
N544 N 0.43864 0.38761 0.40703 0.0
N545 N 0.47171 0.47553 0.99625 0.0
C546 C 0.4484 0.41433 0.31958 0.0
C547 C 0.46503 0.45904 0.10799 0.0
N548 N 0.51765 0.43592 0.3512 0.0
N549 N 0.39998 0.45167 0.11133 0.0
H550 H 0.49881 0.48716 0.95646 0.0
H551 H 0.44967 0.4749 0.93805 0.0
H552 H 0.37227 0.4409 0.14648 0.0
H553 H 0.40567 0.47177 0.04506 0.0
H554 H 0.51478 0.42587 0.43994 0.0
H555 H 0.54639 0.44936 0.32438 0.0
H556 H 0.45778 0.37889 0.44188 0.0
H557 H 0.41032 0.37152 0.4376 0.0
C558 C 0.88121 0.76065 0.71221 0.0
C559 C 0.9034 0.75179 0.63077 0.0
C560 C 0.89514 0.79008 0.47236 0.0
C561 C 0.87427 0.80036 0.55515 0.0
N562 N 0.85401 0.80161 0.76212 0.0
N563 N 0.93994 0.76606 0.44715 0.0
C564 C 0.86901 0.78722 0.6774 0.0
C565 C 0.91303 0.76906 0.51533 0.0
N566 N 0.87208 0.74393 0.82342 0.0
N567 N 0.89578 0.79802 0.35018 0.0
H568 H 0.95238 0.74952 0.47202 0.0
H569 H 0.95246 0.78275 0.37212 0.0
H570 H 0.88184 0.81188 0.31228 0.0
H571 H 0.90702 0.78761 0.28327 0.0
H572 H 0.85197 0.74518 0.88028 0.0
H573 H 0.88272 0.72651 0.856 0.0
H574 H 0.85294 0.79642 0.85593 0.0
H575 H 0.84584 0.82185 0.74121 0.0
C576 C 0.30527 0.05153 0.46755 0.0
C577 C 0.33194 0.06007 0.57258 0.0
C578 C 0.31546 0.99264 0.56641 0.0
C579 C 0.2864 0.98303 0.46833 0.0
N580 N 0.2498 0.00248 0.33508 0.0
N581 N 0.34924 0.03483 0.74824 0.0
C582 C 0.2804 0.01232 0.42054 0.0
C583 C 0.33337 0.02957 0.62969 0.0
N584 N 0.30345 0.08088 0.41367 0.0
N585 N 0.3277 0.96736 0.59554 0.0
H586 H 0.36039 0.06079 0.80165 0.0
H587 H 0.34739 0.01212 0.79749 0.0
H588 H 0.31802 0.94135 0.5441 0.0
H589 H 0.35114 0.97461 0.66011 0.0
H590 H 0.28883 0.07776 0.32793 0.0
H591 H 0.31801 0.10893 0.4539 0.0
H592 H 0.24125 0.02176 0.30576 0.0
H593 H 0.23084 0.97413 0.29991 0.0
C594 C 0.04601 0.17934 0.54451 0.0
C595 C 0.02913 0.20339 0.53806 0.0
C596 C 0.08354 0.24841 0.41791 0.0
C597 C 0.10307 0.22742 0.43966 0.0
N598 N 0.10467 0.17418 0.53008 0.0
N599 N 0.0349 0.26388 0.48405 0.0
C600 C 0.08461 0.19292 0.50344 0.0
C601 C 0.04852 0.23859 0.47785 0.0
N602 N 0.02486 0.14324 0.58755 0.0
N603 N 0.09821 0.27744 0.33777 0.0
H604 H 0.00967 0.25818 0.52815 0.0
H605 H 0.05042 0.2919 0.45468 0.0
H606 H 0.12342 0.28486 0.29029 0.0
H607 H 0.08324 0.29131 0.30843 0.0
H608 H 0.03365 0.12274 0.582 0.0
H609 H 0.99685 0.13251 0.62 0.0
H610 H 0.09491 0.15164 0.5893 0.0
H611 H 0.13246 0.18276 0.49871 0.0
C612 C 0.33654 0.20254 0.3981 0.0
C613 C 0.35678 0.21458 0.518 0.0
C614 C 0.32286 0.25016 0.56116 0.0
C615 C 0.3071 0.24298 0.43736 0.0
N616 N 0.30236 0.21573 0.23136 0.0
N617 N 0.3786 0.26139 0.69335 0.0
C618 C 0.31506 0.22024 0.35339 0.0
C619 C 0.3528 0.24193 0.59326 0.0
N620 N 0.33631 0.17342 0.32888 0.0
N621 N 0.30849 0.26378 0.64978 0.0
H622 H 0.40324 0.25877 0.71423 0.0
H623 H 0.37819 0.28357 0.74534 0.0
H624 H 0.28487 0.26806 0.63067 0.0
H625 H 0.31672 0.26583 0.74388 0.0
H626 H 0.31795 0.1602 0.24884 0.0
H627 H 0.35328 0.16134 0.35436 0.0
H628 H 0.3105 0.20262 0.16311 0.0
H629 H 0.28533 0.22711 0.19775 0.0
C630 C 0.87763 0.01093 0.4549 0.0
C631 C 0.84748 0.98063 0.51756 0.0
C632 C 0.84071 0.02803 0.64567 0.0
C633 C 0.87456 0.05891 0.59727 0.0
N634 N 0.9272 0.07891 0.45637 0.0
N635 N 0.8077 0.9612 0.69362 0.0
C636 C 0.89361 0.0503 0.50141 0.0
C637 C 0.83136 0.98956 0.61923 0.0
N638 N 0.89012 0.0022 0.34898 0.0
N639 N 0.8165 0.03521 0.71488 0.0
H640 H 0.80185 0.93299 0.6802 0.0
H641 H 0.79812 0.9667 0.77635 0.0
H642 H 0.82122 0.06288 0.73391 0.0
H643 H 0.78936 0.0134 0.74131 0.0
H644 H 0.90877 0.02293 0.29072 0.0
H645 H 0.87979 0.97378 0.31542 0.0
H646 H 0.94514 0.07345 0.40101 0.0
H647 H 0.93818 0.10817 0.47631 0.0
C648 C 0.03713 0.71688 0.38897 0.0
C649 C 0.0255 0.73261 0.48679 0.0
C650 C 0.09156 0.7902 0.50273 0.0
C651 C 0.1017 0.77669 0.39496 0.0
N652 N 0.07861 0.73099 0.21651 0.0
N653 N 0.0386 0.79044 0.6057 0.0
C654 C 0.07267 0.74128 0.33178 0.0
C655 C 0.05167 0.77133 0.53314 0.0
N656 N 0.01626 0.67825 0.3562 0.0
N657 N 0.1198 0.81863 0.58311 0.0
H658 H 0.00906 0.77847 0.62274 0.0
H659 H 0.0561 0.81968 0.63405 0.0
H660 H 0.14993 0.8307 0.57484 0.0
H661 H 0.11322 0.82648 0.66792 0.0
H662 H 0.02752 0.66504 0.29964 0.0
H663 H 0.99019 0.65902 0.39532 0.0
H664 H 0.05697 0.70666 0.16384 0.0
H665 H 0.10319 0.74909 0.16865 0.0
loop_
_geom_bond_atom_site_label_1
_geom_bond_atom_site_label_2
_geom_bond_distance
_geom_bond_site_symmetry_2
_ccdc_geom_bond_type
Dy0 O4 2.398 1_554 S
Dy0 O5 2.491 . S
Dy0 O6 2.403 1_554 S
Dy0 O7 2.664 1_554 S
Dy0 O11 2.326 1_554 S
Dy0 O15 2.310 . S
Dy0 O16 2.351 . S
C1 O12 1.185 1_556 S
C1 O13 1.355 . S
C2 O4 1.185 1_554 S
C2 O5 1.355 . S
Dy3 O7 2.310 1_655 S
Dy3 O10 2.351 . S
Dy3 O12 2.398 1_556 S
Dy3 O13 2.491 . S
Dy3 O14 2.403 1_556 S
Dy3 O15 2.664 1_656 S
Dy3 O17 2.326 1_656 S
O4 Dy0 2.398 1_556 S
O4 C2 1.185 1_556 S
O5 Dy0 2.491 . S
O5 C2 1.355 . S
O6 Dy0 2.403 1_556 S
O6 C8 1.254 . S
O7 Dy0 2.664 1_556 S
O7 Dy3 2.310 1_455 S
O7 C8 1.268 . S
C8 O6 1.254 . S
C8 O7 1.268 . S
C9 O14 1.254 1_455 S
C9 O15 1.268 . S
O10 Dy3 2.351 . S
O10 C18 1.230 1_655 S
O11 Dy0 2.326 1_556 S
O11 C18 1.285 . S
O12 C1 1.185 1_554 S
O12 Dy3 2.398 1_554 S
O13 C1 1.355 . S
O13 Dy3 2.491 . S
O14 Dy3 2.403 1_554 S
O14 C9 1.254 1_655 S
O15 Dy0 2.310 . S
O15 Dy3 2.664 1_454 S
O15 C9 1.268 . S
O16 Dy0 2.351 . S
O16 C19 1.249 . S
O17 Dy3 2.326 1_454 S
O17 C19 1.267 . S
C18 O10 1.230 1_455 S
C18 O11 1.285 . S
C19 O16 1.249 . S
C19 O17 1.267 . S
Dy20 O24 2.398 . S
Dy20 O25 2.491 . S
Dy20 O26 2.403 1_554 S
Dy20 O27 2.664 1_554 S
Dy20 O31 2.326 . S
Dy20 O35 2.310 . S
Dy20 O36 2.351 . S
C21 O32 1.185 . S
C21 O33 1.355 1_554 S
C22 O24 1.185 . S
C22 O25 1.355 . S
Dy23 O27 2.310 1_554 S
Dy23 O30 2.351 . S
Dy23 O32 2.398 . S
Dy23 O33 2.491 1_554 S
Dy23 O34 2.403 . S
Dy23 O35 2.664 . S
Dy23 O37 2.326 . S
O24 Dy20 2.398 . S
O24 C22 1.185 . S
O25 Dy20 2.491 . S
O25 C22 1.355 . S
O26 Dy20 2.403 1_556 S
O26 C28 1.254 . S
O27 Dy20 2.664 1_556 S
O27 Dy23 2.310 1_556 S
O27 C28 1.268 . S
C28 O26 1.254 . S
C28 O27 1.268 . S
C29 O34 1.254 . S
C29 O35 1.268 . S
O30 Dy23 2.351 . S
O30 C38 1.249 . S
O31 Dy20 2.326 . S
O31 C38 1.267 . S
O32 C21 1.185 . S
O32 Dy23 2.398 . S
O33 C21 1.355 1_556 S
O33 Dy23 2.491 1_556 S
O34 Dy23 2.403 . S
O34 C29 1.254 . S
O35 Dy20 2.310 . S
O35 Dy23 2.664 . S
O35 C29 1.268 . S
O36 Dy20 2.351 . S
O36 C39 1.249 . S
O37 Dy23 2.326 . S
O37 C39 1.267 . S
C38 O30 1.249 . S
C38 O31 1.267 . S
C39 O36 1.249 . S
C39 O37 1.267 . S
Dy40 O44 2.398 1_545 S
Dy40 O45 2.491 . S
Dy40 O46 2.403 1_554 S
Dy40 O47 2.664 . S
Dy40 O51 2.326 . S
Dy40 O55 2.310 . S
Dy40 O56 2.351 1_545 S
C41 O52 1.185 . S
C41 O53 1.355 . S
C42 O44 1.185 . S
C42 O45 1.355 1_565 S
Dy43 O47 2.310 . S
Dy43 O50 2.351 . S
Dy43 O52 2.398 . S
Dy43 O53 2.491 . S
Dy43 O54 2.403 . S
Dy43 O55 2.664 . S
Dy43 O57 2.326 . S
O44 Dy40 2.398 1_565 S
O44 C42 1.185 . S
O45 Dy40 2.491 . S
O45 C42 1.355 1_545 S
O46 Dy40 2.403 1_556 S
O46 C48 1.254 . S
O47 Dy40 2.664 . S
O47 Dy43 2.310 . S
O47 C48 1.268 1_554 S
C48 O46 1.254 . S
C48 O47 1.268 1_556 S
C49 O54 1.254 . S
C49 O55 1.268 . S
O50 Dy43 2.351 . S
O50 C58 1.249 . S
O51 Dy40 2.326 . S
O51 C58 1.267 . S
O52 C41 1.185 . S
O52 Dy43 2.398 . S
O53 C41 1.355 . S
O53 Dy43 2.491 . S
O54 Dy43 2.403 . S
O54 C49 1.254 . S
O55 Dy40 2.310 . S
O55 Dy43 2.664 . S
O55 C49 1.268 . S
O56 Dy40 2.351 1_565 S
O56 C59 1.249 1_565 S
O57 Dy43 2.326 . S
O57 C59 1.267 . S
C58 O50 1.249 . S
C58 O51 1.267 . S
C59 O56 1.249 1_545 S
C59 O57 1.267 . S
Dy60 O64 2.398 . S
Dy60 O65 2.491 . S
Dy60 O66 2.403 . S
Dy60 O67 2.664 . S
Dy60 O71 2.326 . S
Dy60 O75 2.310 . S
Dy60 O76 2.351 . S
C61 O72 1.185 . S
C61 O73 1.355 . S
C62 O64 1.185 . S
C62 O65 1.355 . S
Dy63 O67 2.310 . S
Dy63 O70 2.351 . S
Dy63 O72 2.398 . S
Dy63 O73 2.491 . S
Dy63 O74 2.403 . S
Dy63 O75 2.664 . S
Dy63 O77 2.326 . S
O64 Dy60 2.398 . S
O64 C62 1.185 . S
O65 Dy60 2.491 . S
O65 C62 1.355 . S
O66 Dy60 2.403 . S
O66 C68 1.254 . S
O67 Dy60 2.664 . S
O67 Dy63 2.310 . S
O67 C68 1.268 . S
C68 O66 1.254 . S
C68 O67 1.268 . S
C69 O74 1.254 . S
C69 O75 1.268 . S
O70 Dy63 2.351 . S
O70 C78 1.249 . S
O71 Dy60 2.326 . S
O71 C78 1.267 . S
O72 C61 1.185 . S
O72 Dy63 2.398 . S
O73 C61 1.355 . S
O73 Dy63 2.491 . S
O74 Dy63 2.403 . S
O74 C69 1.254 . S
O75 Dy60 2.310 . S
O75 Dy63 2.664 . S
O75 C69 1.268 . S
O76 Dy60 2.351 . S
O76 C79 1.249 . S
O77 Dy63 2.326 . S
O77 C79 1.267 . S
C78 O70 1.249 . S
C78 O71 1.267 . S
C79 O76 1.249 . S
C79 O77 1.267 . S
Dy80 O84 2.398 . S
Dy80 O85 2.491 . S
Dy80 O86 2.403 . S
Dy80 O87 2.664 . S
Dy80 O91 2.326 . S
Dy80 O95 2.310 . S
Dy80 O96 2.351 . S
C81 O92 1.185 . S
C81 O93 1.355 . S
C82 O84 1.185 . S
C82 O85 1.355 . S
Dy83 O87 2.310 . S
Dy83 O90 2.351 . S
Dy83 O92 2.398 . S
Dy83 O93 2.491 . S
Dy83 O94 2.403 . S
Dy83 O95 2.664 . S
Dy83 O97 2.326 . S
O84 Dy80 2.398 . S
O84 C82 1.185 . S
O85 Dy80 2.491 . S
O85 C82 1.355 . S
O86 Dy80 2.403 . S
O86 C88 1.254 . S
O87 Dy80 2.664 . S
O87 Dy83 2.310 . S
O87 C88 1.268 . S
C88 O86 1.254 . S
C88 O87 1.268 . S
C89 O94 1.254 . S
C89 O95 1.268 . S
O90 Dy83 2.351 . S
O90 C98 1.249 . S
O91 Dy80 2.326 . S
O91 C98 1.267 . S
O92 C81 1.185 . S
O92 Dy83 2.398 . S
O93 C81 1.355 . S
O93 Dy83 2.491 . S
O94 Dy83 2.403 . S
O94 C89 1.254 . S
O95 Dy80 2.310 . S
O95 Dy83 2.664 . S
O95 C89 1.268 . S
O96 Dy80 2.351 . S
O96 C99 1.249 . S
O97 Dy83 2.326 . S
O97 C99 1.267 . S
C98 O90 1.249 . S
C98 O91 1.267 . S
C99 O96 1.249 . S
C99 O97 1.267 . S
Dy100 O104 2.398 . S
Dy100 O105 2.491 . S
Dy100 O106 2.403 1_554 S
Dy100 O107 2.664 . S
Dy100 O111 2.326 . S
Dy100 O115 2.310 . S
Dy100 O116 2.351 . S
C101 O112 1.185 . S
C101 O113 1.355 . S
C102 O104 1.185 . S
C102 O105 1.355 . S
Dy103 O107 2.310 . S
Dy103 O110 2.351 . S
Dy103 O112 2.398 . S
Dy103 O113 2.491 . S
Dy103 O114 2.403 . S
Dy103 O115 2.664 . S
Dy103 O117 2.326 . S
O104 Dy100 2.398 . S
O104 C102 1.185 . S
O105 Dy100 2.491 . S
O105 C102 1.355 . S
O106 Dy100 2.403 1_556 S
O106 C108 1.254 . S
O107 Dy100 2.664 . S
O107 Dy103 2.310 . S
O107 C108 1.268 1_554 S
C108 O106 1.254 . S
C108 O107 1.268 1_556 S
C109 O114 1.254 . S
C109 O115 1.268 . S
O110 Dy103 2.351 . S
O110 C118 1.249 . S
O111 Dy100 2.326 . S
O111 C118 1.267 . S
O112 C101 1.185 . S
O112 Dy103 2.398 . S
O113 C101 1.355 . S
O113 Dy103 2.491 . S
O114 Dy103 2.403 . S
O114 C109 1.254 . S
O115 Dy100 2.310 . S
O115 Dy103 2.664 . S
O115 C109 1.268 . S
O116 Dy100 2.351 . S
O116 C119 1.249 . S
O117 Dy103 2.326 . S
O117 C119 1.267 . S
C118 O110 1.249 . S
C118 O111 1.267 . S
C119 O116 1.249 . S
C119 O117 1.267 . S
Dy120 O124 2.398 . S
Dy120 O125 2.491 . S
Dy120 O126 2.403 . S
Dy120 O127 2.664 . S
Dy120 O131 2.326 . S
Dy120 O135 2.310 . S
Dy120 O136 2.351 . S
C121 O132 1.185 . S
C121 O133 1.355 . S
C122 O124 1.185 . S
C122 O125 1.355 . S
Dy123 O127 2.310 . S
Dy123 O130 2.351 . S
Dy123 O132 2.398 1_556 S
Dy123 O133 2.491 1_556 S
Dy123 O134 2.403 . S
Dy123 O135 2.664 . S
Dy123 O137 2.326 . S
O124 Dy120 2.398 . S
O124 C122 1.185 . S
O125 Dy120 2.491 . S
O125 C122 1.355 . S
O126 Dy120 2.403 . S
O126 C128 1.254 . S
O127 Dy120 2.664 . S
O127 Dy123 2.310 . S
O127 C128 1.268 . S
C128 O126 1.254 . S
C128 O127 1.268 . S
C129 O134 1.254 . S
C129 O135 1.268 . S
O130 Dy123 2.351 . S
O130 C138 1.249 . S
O131 Dy120 2.326 . S
O131 C138 1.267 . S
O132 C121 1.185 . S
O132 Dy123 2.398 1_554 S
O133 C121 1.355 . S
O133 Dy123 2.491 1_554 S
O134 Dy123 2.403 . S
O134 C129 1.254 . S
O135 Dy120 2.310 . S
O135 Dy123 2.664 . S
O135 C129 1.268 . S
O136 Dy120 2.351 . S
O136 C139 1.249 . S
O137 Dy123 2.326 . S
O137 C139 1.267 . S
C138 O130 1.249 . S
C138 O131 1.267 . S
C139 O136 1.249 . S
C139 O137 1.267 . S
Dy140 O144 2.398 1_556 S
Dy140 O145 2.491 1_556 S
Dy140 O146 2.403 . S
Dy140 O147 2.664 . S
Dy140 O151 2.326 . S
Dy140 O155 2.310 . S
Dy140 O156 2.351 . S
C141 O152 1.185 . S
C141 O153 1.355 . S
C142 O144 1.185 . S
C142 O145 1.355 . S
Dy143 O147 2.310 . S
Dy143 O150 2.351 . S
Dy143 O152 2.398 . S
Dy143 O153 2.491 . S
Dy143 O154 2.403 . S
Dy143 O155 2.664 . S
Dy143 O157 2.326 . S
O144 Dy140 2.398 1_554 S
O144 C142 1.185 . S
O145 Dy140 2.491 1_554 S
O145 C142 1.355 . S
O146 Dy140 2.403 . S
O146 C148 1.254 . S
O147 Dy140 2.664 . S
O147 Dy143 2.310 . S
O147 C148 1.268 . S
C148 O146 1.254 . S
C148 O147 1.268 . S
C149 O154 1.254 . S
C149 O155 1.268 . S
O150 Dy143 2.351 . S
O150 C158 1.249 . S
O151 Dy140 2.326 . S
O151 C158 1.267 . S
O152 C141 1.185 . S
O152 Dy143 2.398 . S
O153 C141 1.355 . S
O153 Dy143 2.491 . S
O154 Dy143 2.403 . S
O154 C149 1.254 . S
O155 Dy140 2.310 . S
O155 Dy143 2.664 . S
O155 C149 1.268 . S
O156 Dy140 2.351 . S
O156 C159 1.249 . S
O157 Dy143 2.326 . S
O157 C159 1.267 . S
C158 O150 1.249 . S
C158 O151 1.267 . S
C159 O156 1.249 . S
C159 O157 1.267 . S
Dy160 O164 2.398 . S
Dy160 O165 2.491 . S
Dy160 O166 2.403 . S
Dy160 O167 2.664 . S
Dy160 O171 2.326 . S
Dy160 O175 2.310 . S
Dy160 O176 2.351 . S
C161 O172 1.185 . S
C161 O173 1.355 . S
C162 O164 1.185 . S
C162 O165 1.355 . S
Dy163 O167 2.310 . S
Dy163 O170 2.351 . S
Dy163 O172 2.398 1_556 S
Dy163 O173 2.491 1_556 S
Dy163 O174 2.403 . S
Dy163 O175 2.664 . S
Dy163 O177 2.326 . S
O164 Dy160 2.398 . S
O164 C162 1.185 . S
O165 Dy160 2.491 . S
O165 C162 1.355 . S
O166 Dy160 2.403 . S
O166 C168 1.254 . S
O167 Dy160 2.664 . S
O167 Dy163 2.310 . S
O167 C168 1.268 . S
C168 O166 1.254 . S
C168 O167 1.268 . S
C169 O174 1.254 . S
C169 O175 1.268 . S
O170 Dy163 2.351 . S
O170 C178 1.249 . S
O171 Dy160 2.326 . S
O171 C178 1.267 . S
O172 C161 1.185 . S
O172 Dy163 2.398 1_554 S
O173 C161 1.355 . S
O173 Dy163 2.491 1_554 S
O174 Dy163 2.403 . S
O174 C169 1.254 . S
O175 Dy160 2.310 . S
O175 Dy163 2.664 . S
O175 C169 1.268 . S
O176 Dy160 2.351 . S
O176 C179 1.249 . S
O177 Dy163 2.326 . S
O177 C179 1.267 . S
C178 O170 1.249 . S
C178 O171 1.267 . S
C179 O176 1.249 . S
C179 O177 1.267 . S
C180 C181 1.363 . S
C180 C186 1.379 . S
C180 N188 1.356 . S
C181 C180 1.363 . S
C181 C187 1.363 . S
C182 C183 1.363 . S
C182 C187 1.379 . S
C182 N189 1.356 . S
C183 C182 1.363 . S
C183 C186 1.363 . S
N184 C186 1.356 . S
N184 H196 0.984 . S
N184 H197 0.985 . S
N185 C187 1.356 . S
N185 H190 0.984 . S
N185 H191 0.985 . S
C186 C180 1.379 . S
C186 C183 1.363 . S
C186 N184 1.356 . S
C187 C181 1.363 . S
C187 C182 1.379 . S
C187 N185 1.356 . S
N188 C180 1.356 . S
N188 H194 0.984 . S
N188 H195 0.984 . S
N189 C182 1.356 . S
N189 H192 0.984 . S
N189 H193 0.985 . S
H190 N185 0.984 . S
H191 N185 0.985 . S
H192 N189 0.984 . S
H193 N189 0.985 . S
H194 N188 0.984 . S
H195 N188 0.984 . S
H196 N184 0.984 . S
H197 N184 0.985 . S
C198 C199 1.363 . S
C198 C204 1.379 . S
C198 N206 1.356 . S
C199 C198 1.363 . S
C199 C205 1.363 . S
C200 C201 1.363 . S
C200 C205 1.379 . S
C200 N207 1.356 . S
C201 C200 1.363 . S
C201 C204 1.363 . S
N202 C204 1.356 . S
N202 H214 0.984 . S
N202 H215 0.985 . S
N203 C205 1.356 . S
N203 H208 0.984 . S
N203 H209 0.985 . S
C204 C198 1.379 . S
C204 C201 1.363 . S
C204 N202 1.356 . S
C205 C199 1.363 . S
C205 C200 1.379 . S
C205 N203 1.356 . S
N206 C198 1.356 . S
N206 H212 0.984 . S
N206 H213 0.984 . S
N207 C200 1.356 . S
N207 H210 0.984 . S
N207 H211 0.985 . S
H208 N203 0.984 . S
H209 N203 0.985 . S
H210 N207 0.984 . S
H211 N207 0.985 . S
H212 N206 0.984 . S
H213 N206 0.984 . S
H214 N202 0.984 . S
H215 N202 0.985 . S
C216 C217 1.363 . S
C216 C222 1.379 . S
C216 N224 1.356 1_545 S
C217 C216 1.363 . S
C217 C223 1.363 . S
C218 C219 1.363 . S
C218 C223 1.379 . S
C218 N225 1.356 . S
C219 C218 1.363 . S
C219 C222 1.363 . S
N220 C222 1.356 . S
N220 H232 0.984 1_545 S
N220 H233 0.985 . S
N221 C223 1.356 . S
N221 H226 0.984 . S
N221 H227 0.985 . S
C222 C216 1.379 . S
C222 C219 1.363 . S
C222 N220 1.356 . S
C223 C217 1.363 . S
C223 C218 1.379 . S
C223 N221 1.356 . S
N224 C216 1.356 1_565 S
N224 H230 0.984 . S
N224 H231 0.984 . S
N225 C218 1.356 . S
N225 H228 0.984 . S
N225 H229 0.985 . S
H226 N221 0.984 . S
H227 N221 0.985 . S
H228 N225 0.984 . S
H229 N225 0.985 . S
H230 N224 0.984 . S
H231 N224 0.984 . S
H232 N220 0.984 1_565 S
H233 N220 0.985 . S
C234 C235 1.363 . S
C234 C240 1.379 . S
C234 N242 1.356 . S
C235 C234 1.363 . S
C235 C241 1.363 . S
C236 C237 1.363 . S
C236 C241 1.379 . S
C236 N243 1.356 . S
C237 C236 1.363 . S
C237 C240 1.363 . S
N238 C240 1.356 1_554 S
N238 H250 0.984 . S
N238 H251 0.985 . S
N239 C241 1.356 . S
N239 H244 0.984 . S
N239 H245 0.985 . S
C240 C234 1.379 . S
C240 C237 1.363 . S
C240 N238 1.356 1_556 S
C241 C235 1.363 . S
C241 C236 1.379 . S
C241 N239 1.356 . S
N242 C234 1.356 . S
N242 H248 0.984 . S
N242 H249 0.984 . S
N243 C236 1.356 . S
N243 H246 0.984 1_556 S
N243 H247 0.985 . S
H244 N239 0.984 . S
H245 N239 0.985 . S
H246 N243 0.984 1_554 S
H247 N243 0.985 . S
H248 N242 0.984 . S
H249 N242 0.984 . S
H250 N238 0.984 . S
H251 N238 0.985 . S
C252 C253 1.363 . S
C252 C258 1.379 . S
C252 N260 1.356 . S
C253 C252 1.363 . S
C253 C259 1.363 . S
C254 C255 1.363 . S
C254 C259 1.379 . S
C254 N261 1.356 . S
C255 C254 1.363 . S
C255 C258 1.363 . S
N256 C258 1.356 . S
N256 H268 0.984 . S
N256 H269 0.985 . S
N257 C259 1.356 . S
N257 H262 0.984 . S
N257 H263 0.985 . S
C258 C252 1.379 . S
C258 C255 1.363 . S
C258 N256 1.356 . S
C259 C253 1.363 . S
C259 C254 1.379 . S
C259 N257 1.356 . S
N260 C252 1.356 . S
N260 H266 0.984 . S
N260 H267 0.984 . S
N261 C254 1.356 . S
N261 H264 0.984 1_556 S
N261 H265 0.985 . S
H262 N257 0.984 . S
H263 N257 0.985 . S
H264 N261 0.984 1_554 S
H265 N261 0.985 . S
H266 N260 0.984 . S
H267 N260 0.984 . S
H268 N256 0.984 . S
H269 N256 0.985 . S
C270 C271 1.363 . S
C270 C276 1.379 . S
C270 N278 1.356 . S
C271 C270 1.363 . S
C271 C277 1.363 . S
C272 C273 1.363 . S
C272 C277 1.379 . S
C272 N279 1.356 . S
C273 C272 1.363 . S
C273 C276 1.363 . S
N274 C276 1.356 . S
N274 H286 0.984 . S
N274 H287 0.985 . S
N275 C277 1.356 . S
N275 H280 0.984 . S
N275 H281 0.985 . S
C276 C270 1.379 . S
C276 C273 1.363 . S
C276 N274 1.356 . S
C277 C271 1.363 . S
C277 C272 1.379 . S
C277 N275 1.356 . S
N278 C270 1.356 . S
N278 H284 0.984 . S
N278 H285 0.984 . S
N279 C272 1.356 . S
N279 H282 0.984 . S
N279 H283 0.985 . S
H280 N275 0.984 . S
H281 N275 0.985 . S
H282 N279 0.984 . S
H283 N279 0.985 . S
H284 N278 0.984 . S
H285 N278 0.984 . S
H286 N274 0.984 . S
H287 N274 0.985 . S
C288 C289 1.363 . S
C288 C294 1.379 . S
C288 N296 1.356 . S
C289 C288 1.363 . S
C289 C295 1.363 . S
C290 C291 1.363 . S
C290 C295 1.379 . S
C290 N297 1.356 . S
C291 C290 1.363 . S
C291 C294 1.363 . S
N292 C294 1.356 1_556 S
N292 H304 0.984 . S
N292 H305 0.985 . S
N293 C295 1.356 . S
N293 H298 0.984 . S
N293 H299 0.985 . S
C294 C288 1.379 . S
C294 C291 1.363 . S
C294 N292 1.356 1_554 S
C295 C289 1.363 . S
C295 C290 1.379 . S
C295 N293 1.356 . S
N296 C288 1.356 . S
N296 H302 0.984 . S
N296 H303 0.984 . S
N297 C290 1.356 . S
N297 H300 0.984 . S
N297 H301 0.985 . S
H298 N293 0.984 . S
H299 N293 0.985 . S
H300 N297 0.984 . S
H301 N297 0.985 . S
H302 N296 0.984 . S
H303 N296 0.984 . S
H304 N292 0.984 . S
H305 N292 0.985 . S
C306 C307 1.363 . S
C306 C312 1.379 . S
C306 N314 1.356 . S
C307 C306 1.363 . S
C307 C313 1.363 . S
C308 C309 1.363 . S
C308 C313 1.379 . S
C308 N315 1.356 1_554 S
C309 C308 1.363 . S
C309 C312 1.363 . S
N310 C312 1.356 . S
N310 H322 0.984 . S
N310 H323 0.985 . S
N311 C313 1.356 . S
N311 H316 0.984 . S
N311 H317 0.985 . S
C312 C306 1.379 . S
C312 C309 1.363 . S
C312 N310 1.356 . S
C313 C307 1.363 . S
C313 C308 1.379 . S
C313 N311 1.356 . S
N314 C306 1.356 . S
N314 H320 0.984 . S
N314 H321 0.984 . S
N315 C308 1.356 1_556 S
N315 H318 0.984 . S
N315 H319 0.985 . S
H316 N311 0.984 . S
H317 N311 0.985 . S
H318 N315 0.984 . S
H319 N315 0.985 . S
H320 N314 0.984 . S
H321 N314 0.984 . S
H322 N310 0.984 . S
H323 N310 0.985 . S
C324 C325 1.363 . S
C324 C330 1.379 . S
C324 N332 1.356 . S
C325 C324 1.363 . S
C325 C331 1.363 . S
C326 C327 1.363 . S
C326 C331 1.379 . S
C326 N333 1.356 1_554 S
C327 C326 1.363 . S
C327 C330 1.363 . S
N328 C330 1.356 . S
N328 H340 0.984 . S
N328 H341 0.985 . S
N329 C331 1.356 . S
N329 H334 0.984 . S
N329 H335 0.985 . S
C330 C324 1.379 . S
C330 C327 1.363 . S
C330 N328 1.356 . S
C331 C325 1.363 . S
C331 C326 1.379 . S
C331 N329 1.356 . S
N332 C324 1.356 . S
N332 H338 0.984 . S
N332 H339 0.984 . S
N333 C326 1.356 1_556 S
N333 H336 0.984 . S
N333 H337 0.985 . S
H334 N329 0.984 . S
H335 N329 0.985 . S
H336 N333 0.984 . S
H337 N333 0.985 . S
H338 N332 0.984 . S
H339 N332 0.984 . S
H340 N328 0.984 . S
H341 N328 0.985 . S
C342 C343 1.363 . S
C342 C348 1.379 . S
C342 N350 1.356 . S
C343 C342 1.363 . S
C343 C349 1.363 . S
C344 C345 1.363 . S
C344 C349 1.379 . S
C344 N351 1.356 1_554 S
C345 C344 1.363 . S
C345 C348 1.363 . S
N346 C348 1.356 . S
N346 H358 0.984 . S
N346 H359 0.985 . S
N347 C349 1.356 1_556 S
N347 H352 0.984 1_556 S
N347 H353 0.985 . S
C348 C342 1.379 . S
C348 C345 1.363 . S
C348 N346 1.356 . S
C349 C343 1.363 . S
C349 C344 1.379 . S
C349 N347 1.356 1_554 S
N350 C342 1.356 . S
N350 H356 0.984 . S
N350 H357 0.984 . S
N351 C344 1.356 1_556 S
N351 H354 0.984 . S
N351 H355 0.985 . S
H352 N347 0.984 1_554 S
H353 N347 0.985 . S
H354 N351 0.984 . S
H355 N351 0.985 . S
H356 N350 0.984 . S
H357 N350 0.984 . S
H358 N346 0.984 . S
H359 N346 0.985 . S
C360 C361 1.363 . S
C360 C366 1.379 . S
C360 N368 1.356 . S
C361 C360 1.363 . S
C361 C367 1.363 . S
C362 C363 1.363 . S
C362 C367 1.379 . S
C362 N369 1.356 . S
C363 C362 1.363 . S
C363 C366 1.363 . S
N364 C366 1.356 . S
N364 H376 0.984 . S
N364 H377 0.985 . S
N365 C367 1.356 . S
N365 H370 0.984 . S
N365 H371 0.985 . S
C366 C360 1.379 . S
C366 C363 1.363 . S
C366 N364 1.356 . S
C367 C361 1.363 . S
C367 C362 1.379 . S
C367 N365 1.356 . S
N368 C360 1.356 . S
N368 H374 0.984 . S
N368 H375 0.984 . S
N369 C362 1.356 . S
N369 H372 0.984 . S
N369 H373 0.985 . S
H370 N365 0.984 . S
H371 N365 0.985 . S
H372 N369 0.984 . S
H373 N369 0.985 . S
H374 N368 0.984 . S
H375 N368 0.984 . S
H376 N364 0.984 . S
H377 N364 0.985 . S
C378 C379 1.363 . S
C378 C384 1.379 . S
C378 N386 1.356 . S
C379 C378 1.363 . S
C379 C385 1.363 . S
C380 C381 1.363 . S
C380 C385 1.379 . S
C380 N387 1.356 . S
C381 C380 1.363 . S
C381 C384 1.363 . S
N382 C384 1.356 . S
N382 H394 0.984 . S
N382 H395 0.985 . S
N383 C385 1.356 . S
N383 H388 0.984 . S
N383 H389 0.985 . S
C384 C378 1.379 . S
C384 C381 1.363 . S
C384 N382 1.356 . S
C385 C379 1.363 . S
C385 C380 1.379 . S
C385 N383 1.356 . S
N386 C378 1.356 . S
N386 H392 0.984 1_565 S
N386 H393 0.984 1_565 S
N387 C380 1.356 . S
N387 H390 0.984 . S
N387 H391 0.985 . S
H388 N383 0.984 . S
H389 N383 0.985 . S
H390 N387 0.984 . S
H391 N387 0.985 . S
H392 N386 0.984 1_545 S
H393 N386 0.984 1_545 S
H394 N382 0.984 . S
H395 N382 0.985 . S
C396 C397 1.363 . S
C396 C402 1.379 . S
C396 N404 1.356 . S
C397 C396 1.363 . S
C397 C403 1.363 1_554 S
C398 C399 1.363 . S
C398 C403 1.379 . S
C398 N405 1.356 . S
C399 C398 1.363 . S
C399 C402 1.363 1_556 S
N400 C402 1.357 . S
N400 H412 0.988 . S
N400 H413 0.980 1_554 S
N401 C403 1.356 . S
N401 H406 0.984 1_556 S
N401 H407 0.985 . S
C402 C396 1.379 . S
C402 C399 1.363 1_554 S
C402 N400 1.357 . S
C403 C397 1.363 1_556 S
C403 C398 1.379 . S
C403 N401 1.356 . S
N404 C396 1.356 . S
N404 H410 0.984 . S
N404 H411 0.984 . S
N405 C398 1.356 . S
N405 H408 0.984 . S
N405 H409 0.985 . S
H406 N401 0.984 1_554 S
H407 N401 0.985 . S
H408 N405 0.984 . S
H409 N405 0.985 . S
H410 N404 0.984 . S
H411 N404 0.984 . S
H412 N400 0.988 . S
H413 N400 0.980 1_556 S
C414 C415 1.363 . S
C414 C420 1.379 . S
C414 N422 1.356 . S
C415 C414 1.363 . S
C415 C421 1.363 . S
C416 C417 1.363 1_455 S
C416 C421 1.379 1_455 S
C416 N423 1.356 1_556 S
C417 C416 1.363 1_655 S
C417 C420 1.363 . S
N418 C420 1.356 . S
N418 H430 0.984 . S
N418 H431 0.985 . S
N419 C421 1.356 1_455 S
N419 H424 0.984 1_455 S
N419 H425 0.985 . S
C420 C414 1.379 . S
C420 C417 1.363 . S
C420 N418 1.356 . S
C421 C415 1.363 . S
C421 C416 1.379 1_655 S
C421 N419 1.356 1_655 S
N422 C414 1.356 . S
N422 H428 0.984 . S
N422 H429 0.984 . S
N423 C416 1.356 1_554 S
N423 H426 0.984 . S
N423 H427 0.985 . S
H424 N419 0.984 1_655 S
H425 N419 0.985 . S
H426 N423 0.984 . S
H427 N423 0.985 . S
H428 N422 0.984 . S
H429 N422 0.984 . S
H430 N418 0.984 . S
H431 N418 0.985 . S
C432 C433 1.363 . S
C432 C438 1.379 1_556 S
C432 N440 1.356 1_556 S
C433 C432 1.363 . S
C433 C439 1.363 . S
C434 C435 1.363 1_556 S
C434 C439 1.379 . S
C434 N441 1.356 . S
C435 C434 1.363 1_554 S
C435 C438 1.363 . S
N436 C438 1.356 . S
N436 H448 0.984 . S
N436 H449 0.985 . S
N437 C439 1.356 . S
N437 H442 0.984 . S
N437 H443 0.985 . S
C438 C432 1.379 1_554 S
C438 C435 1.363 . S
C438 N436 1.356 . S
C439 C433 1.363 . S
C439 C434 1.379 . S
C439 N437 1.356 . S
N440 C432 1.356 1_554 S
N440 H446 0.984 . S
N440 H447 0.984 1_554 S
N441 C434 1.356 . S
N441 H444 0.984 . S
N441 H445 0.985 . S
H442 N437 0.984 . S
H443 N437 0.985 . S
H444 N441 0.984 . S
H445 N441 0.985 . S
H446 N440 0.984 . S
H447 N440 0.984 1_556 S
H448 N436 0.984 . S
H449 N436 0.985 . S
C450 C451 1.363 . S
C450 C456 1.379 . S
C450 N458 1.356 . S
C451 C450 1.363 . S
C451 C457 1.363 . S
C452 C453 1.363 . S
C452 C457 1.379 . S
C452 N459 1.356 1_556 S
C453 C452 1.363 . S
C453 C456 1.363 . S
N454 C456 1.356 . S
N454 H466 0.984 1_655 S
N454 H467 0.985 . S
N455 C457 1.356 . S
N455 H460 0.984 . S
N455 H461 0.985 . S
C456 C450 1.379 . S
C456 C453 1.363 . S
C456 N454 1.356 . S
C457 C451 1.363 . S
C457 C452 1.379 . S
C457 N455 1.356 . S
N458 C450 1.356 . S
N458 H464 0.984 1_655 S
N458 H465 0.984 . S
N459 C452 1.356 1_554 S
N459 H462 0.984 . S
N459 H463 0.985 . S
H460 N455 0.984 . S
H461 N455 0.985 . S
H462 N459 0.984 . S
H463 N459 0.985 . S
H464 N458 0.984 1_455 S
H465 N458 0.984 . S
H466 N454 0.984 1_455 S
H467 N454 0.985 . S
C468 C469 1.363 1_554 S
C468 C474 1.379 1_554 S
C468 N476 1.356 . S
C469 C468 1.363 1_556 S
C469 C475 1.363 . S
C470 C471 1.363 . S
C470 C475 1.379 . S
C470 N477 1.356 . S
C471 C470 1.363 . S
C471 C474 1.363 . S
N472 C474 1.356 . S
N472 H484 0.984 1_556 S
N472 H485 0.985 . S
N473 C475 1.356 . S
N473 H478 0.984 . S
N473 H479 0.985 . S
C474 C468 1.379 1_556 S
C474 C471 1.363 . S
C474 N472 1.356 . S
C475 C469 1.363 . S
C475 C470 1.379 . S
C475 N473 1.356 . S
N476 C468 1.356 . S
N476 H482 0.984 . S
N476 H483 0.984 . S
N477 C470 1.356 . S
N477 H480 0.984 . S
N477 H481 0.985 . S
H478 N473 0.984 . S
H479 N473 0.985 . S
H480 N477 0.984 . S
H481 N477 0.985 . S
H482 N476 0.984 . S
H483 N476 0.984 . S
H484 N472 0.984 1_554 S
H485 N472 0.985 . S
C486 C487 1.363 . S
C486 C492 1.379 . S
C486 N494 1.356 . S
C487 C486 1.363 . S
C487 C493 1.363 1_556 S
C488 C489 1.363 . S
C488 C493 1.379 . S
C488 N495 1.356 . S
C489 C488 1.363 . S
C489 C492 1.363 1_554 S
N490 C492 1.356 . S
N490 H502 0.984 . S
N490 H503 0.985 1_556 S
N491 C493 1.356 . S
N491 H496 0.984 1_554 S
N491 H497 0.985 . S
C492 C486 1.379 . S
C492 C489 1.363 1_556 S
C492 N490 1.356 . S
C493 C487 1.363 1_554 S
C493 C488 1.379 . S
C493 N491 1.356 . S
N494 C486 1.356 . S
N494 H500 0.984 . S
N494 H501 0.984 . S
N495 C488 1.356 . S
N495 H498 0.984 . S
N495 H499 0.985 . S
H496 N491 0.984 1_556 S
H497 N491 0.985 . S
H498 N495 0.984 . S
H499 N495 0.985 . S
H500 N494 0.984 . S
H501 N494 0.984 . S
H502 N490 0.984 . S
H503 N490 0.985 1_554 S
C504 C505 1.363 1_545 S
C504 C510 1.379 1_545 S
C504 N512 1.356 . S
C505 C504 1.363 1_565 S
C505 C511 1.363 . S
C506 C507 1.363 . S
C506 C511 1.379 . S
C506 N513 1.356 . S
C507 C506 1.363 . S
C507 C510 1.363 . S
N508 C510 1.356 . S
N508 H520 0.984 1_565 S
N508 H521 0.985 . S
N509 C511 1.356 . S
N509 H514 0.984 . S
N509 H515 0.984 1_554 S
C510 C504 1.379 1_565 S
C510 C507 1.363 . S
C510 N508 1.356 . S
C511 C505 1.363 . S
C511 C506 1.379 . S
C511 N509 1.356 . S
N512 C504 1.356 . S
N512 H518 0.984 . S
N512 H519 0.984 . S
N513 C506 1.356 . S
N513 H516 0.984 . S
N513 H517 0.985 . S
H514 N509 0.984 . S
H515 N509 0.984 1_556 S
H516 N513 0.984 . S
H517 N513 0.985 . S
H518 N512 0.984 . S
H519 N512 0.984 . S
H520 N508 0.984 1_545 S
H521 N508 0.985 . S
C522 C523 1.363 . S
C522 C528 1.379 . S
C522 N530 1.356 . S
C523 C522 1.363 . S
C523 C529 1.363 . S
C524 C525 1.363 . S
C524 C529 1.379 . S
C524 N531 1.356 1_554 S
C525 C524 1.363 . S
C525 C528 1.363 . S
N526 C528 1.356 . S
N526 H538 0.984 . S
N526 H539 0.985 . S
N527 C529 1.356 . S
N527 H532 0.984 . S
N527 H533 0.985 1_554 S
C528 C522 1.379 . S
C528 C525 1.363 . S
C528 N526 1.356 . S
C529 C523 1.363 . S
C529 C524 1.379 . S
C529 N527 1.356 . S
N530 C522 1.356 . S
N530 H536 0.984 . S
N530 H537 0.984 . S
N531 C524 1.356 1_556 S
N531 H534 0.984 . S
N531 H535 0.985 . S
H532 N527 0.984 . S
H533 N527 0.985 1_556 S
H534 N531 0.984 . S
H535 N531 0.985 . S
H536 N530 0.984 . S
H537 N530 0.984 . S
H538 N526 0.984 . S
H539 N526 0.985 . S
C540 C541 1.363 . S
C540 C546 1.379 . S
C540 N548 1.356 . S
C541 C540 1.363 . S
C541 C547 1.363 . S
C542 C543 1.363 . S
C542 C547 1.379 . S
C542 N549 1.356 1_554 S
C543 C542 1.363 . S
C543 C546 1.363 . S
N544 C546 1.356 . S
N544 H556 0.984 . S
N544 H557 0.985 . S
N545 C547 1.356 1_556 S
N545 H550 0.984 . S
N545 H551 0.985 . S
C546 C540 1.379 . S
C546 C543 1.363 . S
C546 N544 1.356 . S
C547 C541 1.363 . S
C547 C542 1.379 . S
C547 N545 1.356 1_554 S
N548 C540 1.356 . S
N548 H554 0.984 . S
N548 H555 0.984 . S
N549 C542 1.356 1_556 S
N549 H552 0.984 1_556 S
N549 H553 0.985 . S
H550 N545 0.984 . S
H551 N545 0.985 . S
H552 N549 0.984 1_554 S
H553 N549 0.985 . S
H554 N548 0.984 . S
H555 N548 0.984 . S
H556 N544 0.984 . S
H557 N544 0.985 . S
C558 C559 1.363 . S
C558 C564 1.379 . S
C558 N566 1.356 . S
C559 C558 1.363 . S
C559 C565 1.363 . S
C560 C561 1.363 . S
C560 C565 1.379 . S
C560 N567 1.356 . S
C561 C560 1.363 . S
C561 C564 1.363 . S
N562 C564 1.356 . S
N562 H574 0.984 . S
N562 H575 0.985 . S
N563 C565 1.356 . S
N563 H568 0.984 . S
N563 H569 0.985 . S
C564 C558 1.379 . S
C564 C561 1.363 . S
C564 N562 1.356 . S
C565 C559 1.363 . S
C565 C560 1.379 . S
C565 N563 1.356 . S
N566 C558 1.356 . S
N566 H572 0.984 . S
N566 H573 0.984 . S
N567 C560 1.356 . S
N567 H570 0.984 . S
N567 H571 0.985 . S
H568 N563 0.984 . S
H569 N563 0.985 . S
H570 N567 0.984 . S
H571 N567 0.985 . S
H572 N566 0.984 . S
H573 N566 0.984 . S
H574 N562 0.984 . S
H575 N562 0.985 . S
C576 C577 1.363 . S
C576 C582 1.379 . S
C576 N584 1.356 . S
C577 C576 1.363 . S
C577 C583 1.363 . S
C578 C579 1.353 1_565 S
C578 C583 1.378 1_565 S
C578 N585 1.358 . S
C579 C578 1.353 1_545 S
C579 C582 1.384 . S
N580 C582 1.356 . S
N580 H592 0.984 . S
N580 H593 0.961 1_545 S
N581 C583 1.356 . S
N581 H586 0.984 . S
N581 H587 0.985 . S
C582 C576 1.379 . S
C582 C579 1.384 . S
C582 N580 1.356 . S
C583 C577 1.363 . S
C583 C578 1.378 1_545 S
C583 N581 1.356 . S
N584 C576 1.356 . S
N584 H590 0.984 . S
N584 H591 0.984 . S
N585 C578 1.358 . S
N585 H588 0.984 . S
N585 H589 0.985 . S
H586 N581 0.984 . S
H587 N581 0.985 . S
H588 N585 0.984 . S
H589 N585 0.985 . S
H590 N584 0.984 . S
H591 N584 0.984 . S
H592 N580 0.984 . S
H593 N580 0.961 1_565 S
C594 C595 1.363 . S
C594 C600 1.379 . S
C594 N602 1.356 . S
C595 C594 1.363 . S
C595 C601 1.363 . S
C596 C597 1.363 . S
C596 C601 1.379 . S
C596 N603 1.356 . S
C597 C596 1.363 . S
C597 C600 1.363 . S
N598 C600 1.356 . S
N598 H610 0.984 . S
N598 H611 0.985 . S
N599 C601 1.356 . S
N599 H604 0.984 . S
N599 H605 0.985 . S
C600 C594 1.379 . S
C600 C597 1.363 . S
C600 N598 1.356 . S
C601 C595 1.363 . S
C601 C596 1.379 . S
C601 N599 1.356 . S
N602 C594 1.356 . S
N602 H608 0.984 . S
N602 H609 0.984 1_455 S
N603 C596 1.356 . S
N603 H606 0.984 . S
N603 H607 0.985 . S
H604 N599 0.984 . S
H605 N599 0.985 . S
H606 N603 0.984 . S
H607 N603 0.985 . S
H608 N602 0.984 . S
H609 N602 0.984 1_655 S
H610 N598 0.984 . S
H611 N598 0.985 . S
C612 C613 1.363 . S
C612 C618 1.379 . S
C612 N620 1.356 . S
C613 C612 1.363 . S
C613 C619 1.363 . S
C614 C615 1.363 . S
C614 C619 1.379 . S
C614 N621 1.356 . S
C615 C614 1.363 . S
C615 C618 1.363 . S
N616 C618 1.356 . S
N616 H628 0.984 . S
N616 H629 0.985 . S
N617 C619 1.356 . S
N617 H622 0.984 . S
N617 H623 0.985 . S
C618 C612 1.379 . S
C618 C615 1.363 . S
C618 N616 1.356 . S
C619 C613 1.363 . S
C619 C614 1.379 . S
C619 N617 1.356 . S
N620 C612 1.356 . S
N620 H626 0.984 . S
N620 H627 0.984 . S
N621 C614 1.356 . S
N621 H624 0.984 . S
N621 H625 0.985 . S
H622 N617 0.984 . S
H623 N617 0.985 . S
H624 N621 0.984 . S
H625 N621 0.985 . S
H626 N620 0.984 . S
H627 N620 0.984 . S
H628 N616 0.984 . S
H629 N616 0.985 . S
C630 C631 1.363 1_545 S
C630 C636 1.379 . S
C630 N638 1.356 . S
C631 C630 1.363 1_565 S
C631 C637 1.363 . S
C632 C633 1.363 . S
C632 C637 1.379 1_545 S
C632 N639 1.356 . S
C633 C632 1.363 . S
C633 C636 1.363 . S
N634 C636 1.356 . S
N634 H646 0.984 . S
N634 H647 0.985 . S
N635 C637 1.356 . S
N635 H640 0.984 . S
N635 H641 0.985 . S
C636 C630 1.379 . S
C636 C633 1.363 . S
C636 N634 1.356 . S
C637 C631 1.363 . S
C637 C632 1.379 1_565 S
C637 N635 1.356 . S
N638 C630 1.356 . S
N638 H644 0.984 . S
N638 H645 0.984 1_545 S
N639 C632 1.356 . S
N639 H642 0.984 . S
N639 H643 0.985 . S
H640 N635 0.984 . S
H641 N635 0.985 . S
H642 N639 0.984 . S
H643 N639 0.985 . S
H644 N638 0.984 . S
H645 N638 0.984 1_565 S
H646 N634 0.984 . S
H647 N634 0.985 . S
C648 C649 1.363 . S
C648 C654 1.379 . S
C648 N656 1.356 1_455 S
C649 C648 1.363 . S
C649 C655 1.363 . S
C650 C651 1.363 . S
C650 C655 1.379 . S
C650 N657 1.356 . S
C651 C650 1.363 . S
C651 C654 1.363 . S
N652 C654 1.356 . S
N652 H664 0.984 . S
N652 H665 0.985 . S
N653 C655 1.356 . S
N653 H658 0.984 . S
N653 H659 0.985 . S
C654 C648 1.379 . S
C654 C651 1.363 . S
C654 N652 1.356 . S
C655 C649 1.363 . S
C655 C650 1.379 . S
C655 N653 1.356 . S
N656 C648 1.356 1_655 S
N656 H662 0.984 . S
N656 H663 0.984 . S
N657 C650 1.356 . S
N657 H660 0.984 . S
N657 H661 0.985 . S
H658 N653 0.984 . S
H659 N653 0.985 . S
H660 N657 0.984 . S
H661 N657 0.985 . S
H662 N656 0.984 . S
H663 N656 0.984 . S
H664 N652 0.984 . S
H665 N652 0.985 . S
C181 C8 1.849 . S
C183 C9 1.849 . S
C199 C28 1.893 . S
C201 C29 1.893 . S
C217 C48 1.926 . S
C219 C49 1.926 . S
C235 C69 1.849 . S
C237 C68 1.849 1_556 S
C253 C89 1.893 . S
C255 C88 1.893 1_556 S
C271 C109 1.926 . S
C273 C108 1.926 . S
C289 C122 0.667 . S
C291 C121 0.667 . S
C307 C141 0.647 . S
C309 C142 0.647 . S
C325 C162 0.659 . S
C327 C161 0.659 . S
C343 C118 1.690 . S
C345 C2 1.690 . S
C361 C22 1.695 . S
C363 C78 1.703 . S
C379 C42 1.736 . S
C381 C98 1.764 . S
C397 C58 1.667 . S
C399 C139 1.823 . S
C415 C149 1.435 . S
C417 C18 1.356 1_655 S
C433 C179 1.783 . S
C435 C38 1.634 . S
C451 C168 1.443 . S
C453 C1 1.422 . S
C469 C21 1.446 1_556 S
C471 C128 1.476 . S
C487 C158 1.867 . S
C489 C41 1.774 . S
C505 C59 1.690 1_565 S
C507 C61 1.690 . S
C523 C81 1.695 . S
C525 C19 1.703 . S
C541 C39 1.764 . S
C543 C101 1.736 . S
C559 C169 1.443 . S
C561 C62 1.422 . S
C577 C129 1.476 . S
C579 C82 1.433 1_545 S
C595 C159 1.867 1_455 S
C597 C102 1.774 . S
C613 C138 1.823 . S
C615 C119 1.667 . S
C631 C79 1.354 . S
C633 C148 1.435 . S
C649 C178 1.783 1_455 S
C651 C99 1.634 . S
