# Generated by pormake.
# Topology ukj, (4)-cn, num edge types: 1
# Building blocks:
#     Node 0, Type 0, BuildingBlock: ICAMEG_clean_sbu_1, # of connection points: 4
#     Node 1, Type 0, BuildingBlock: ICAMEG_clean_sbu_1, # of connection points: 4
#     Node 2, Type 0, BuildingBlock: ICAMEG_clean_sbu_1, # of connection points: 4
#     Node 3, Type 0, BuildingBlock: ICAMEG_clean_sbu_1, # of connection points: 4
#     Node 4, Type 0, BuildingBlock: ICAMEG_clean_sbu_1, # of connection points: 4
#     Node 5, Type 0, BuildingBlock: ICAMEG_clean_sbu_1, # of connection points: 4
#     Node 6, Type 0, BuildingBlock: ICAMEG_clean_sbu_1, # of connection points: 4
#     Node 7, Type 0, BuildingBlock: ICAMEG_clean_sbu_1, # of connection points: 4
#     Node 8, Type 0, BuildingBlock: ICAMEG_clean_sbu_1, # of connection points: 4
#     Node 9, Type 0, BuildingBlock: ICAMEG_clean_sbu_1, # of connection points: 4
#     Node 10, Type 0, BuildingBlock: ICAMEG_clean_sbu_1, # of connection points: 4
#     Node 11, Type 0, BuildingBlock: ICAMEG_clean_sbu_1, # of connection points: 4
#     Node 12, Type 0, BuildingBlock: ICAMEG_clean_sbu_1, # of connection points: 4
#     Node 13, Type 0, BuildingBlock: ICAMEG_clean_sbu_1, # of connection points: 4
#     Node 14, Type 0, BuildingBlock: ICAMEG_clean_sbu_1, # of connection points: 4
#     Node 15, Type 0, BuildingBlock: ICAMEG_clean_sbu_1, # of connection points: 4
#     Node 16, Type 0, BuildingBlock: ICAMEG_clean_sbu_1, # of connection points: 4
#     Node 17, Type 0, BuildingBlock: ICAMEG_clean_sbu_1, # of connection points: 4
#     Node 18, Type 0, BuildingBlock: ICAMEG_clean_sbu_1, # of connection points: 4
#     Node 19, Type 0, BuildingBlock: ICAMEG_clean_sbu_1, # of connection points: 4
#     Node 20, Type 0, BuildingBlock: ICAMEG_clean_sbu_1, # of connection points: 4
#     Node 21, Type 0, BuildingBlock: ICAMEG_clean_sbu_1, # of connection points: 4
#     Node 22, Type 0, BuildingBlock: ICAMEG_clean_sbu_1, # of connection points: 4
#     Node 23, Type 0, BuildingBlock: ICAMEG_clean_sbu_1, # of connection points: 4
#     Node 24, Type 0, BuildingBlock: ICAMEG_clean_sbu_1, # of connection points: 4
#     Node 25, Type 0, BuildingBlock: ICAMEG_clean_sbu_1, # of connection points: 4
#     Node 26, Type 0, BuildingBlock: ICAMEG_clean_sbu_1, # of connection points: 4
#     Node 27, Type 0, BuildingBlock: ICAMEG_clean_sbu_1, # of connection points: 4
#     Node 28, Type 0, BuildingBlock: ICAMEG_clean_sbu_1, # of connection points: 4
#     Node 29, Type 0, BuildingBlock: ICAMEG_clean_sbu_1, # of connection points: 4
#     Node 30, Type 0, BuildingBlock: ICAMEG_clean_sbu_1, # of connection points: 4
#     Node 31, Type 0, BuildingBlock: ICAMEG_clean_sbu_1, # of connection points: 4
#     Edge 32, Type (0, 0), BuildingBlock: KIFKEQ_clean_linker_1, # of connection points: 2
#     Edge 33, Type (0, 0), BuildingBlock: KIFKEQ_clean_linker_1, # of connection points: 2
#     Edge 34, Type (0, 0), BuildingBlock: KIFKEQ_clean_linker_1, # of connection points: 2
#     Edge 35, Type (0, 0), BuildingBlock: KIFKEQ_clean_linker_1, # of connection points: 2
#     Edge 36, Type (0, 0), BuildingBlock: KIFKEQ_clean_linker_1, # of connection points: 2
#     Edge 37, Type (0, 0), BuildingBlock: KIFKEQ_clean_linker_1, # of connection points: 2
#     Edge 38, Type (0, 0), BuildingBlock: KIFKEQ_clean_linker_1, # of connection points: 2
#     Edge 39, Type (0, 0), BuildingBlock: KIFKEQ_clean_linker_1, # of connection points: 2
#     Edge 40, Type (0, 0), BuildingBlock: KIFKEQ_clean_linker_1, # of connection points: 2
#     Edge 41, Type (0, 0), BuildingBlock: KIFKEQ_clean_linker_1, # of connection points: 2
#     Edge 42, Type (0, 0), BuildingBlock: KIFKEQ_clean_linker_1, # of connection points: 2
#     Edge 43, Type (0, 0), BuildingBlock: KIFKEQ_clean_linker_1, # of connection points: 2
#     Edge 44, Type (0, 0), BuildingBlock: KIFKEQ_clean_linker_1, # of connection points: 2
#     Edge 45, Type (0, 0), BuildingBlock: KIFKEQ_clean_linker_1, # of connection points: 2
#     Edge 46, Type (0, 0), BuildingBlock: KIFKEQ_clean_linker_1, # of connection points: 2
#     Edge 47, Type (0, 0), BuildingBlock: KIFKEQ_clean_linker_1, # of connection points: 2
#     Edge 48, Type (0, 0), BuildingBlock: KIFKEQ_clean_linker_1, # of connection points: 2
#     Edge 49, Type (0, 0), BuildingBlock: KIFKEQ_clean_linker_1, # of connection points: 2
#     Edge 50, Type (0, 0), BuildingBlock: KIFKEQ_clean_linker_1, # of connection points: 2
#     Edge 51, Type (0, 0), BuildingBlock: KIFKEQ_clean_linker_1, # of connection points: 2
#     Edge 52, Type (0, 0), BuildingBlock: KIFKEQ_clean_linker_1, # of connection points: 2
#     Edge 53, Type (0, 0), BuildingBlock: KIFKEQ_clean_linker_1, # of connection points: 2
#     Edge 54, Type (0, 0), BuildingBlock: KIFKEQ_clean_linker_1, # of connection points: 2
#     Edge 55, Type (0, 0), BuildingBlock: KIFKEQ_clean_linker_1, # of connection points: 2
#     Edge 56, Type (0, 0), BuildingBlock: KIFKEQ_clean_linker_1, # of connection points: 2
#     Edge 57, Type (0, 0), BuildingBlock: KIFKEQ_clean_linker_1, # of connection points: 2
#     Edge 58, Type (0, 0), BuildingBlock: KIFKEQ_clean_linker_1, # of connection points: 2
#     Edge 59, Type (0, 0), BuildingBlock: KIFKEQ_clean_linker_1, # of connection points: 2
#     Edge 60, Type (0, 0), BuildingBlock: KIFKEQ_clean_linker_1, # of connection points: 2
#     Edge 61, Type (0, 0), BuildingBlock: KIFKEQ_clean_linker_1, # of connection points: 2
#     Edge 62, Type (0, 0), BuildingBlock: KIFKEQ_clean_linker_1, # of connection points: 2
#     Edge 63, Type (0, 0), BuildingBlock: KIFKEQ_clean_linker_1, # of connection points: 2
#     Edge 64, Type (0, 0), BuildingBlock: KIFKEQ_clean_linker_1, # of connection points: 2
#     Edge 65, Type (0, 0), BuildingBlock: KIFKEQ_clean_linker_1, # of connection points: 2
#     Edge 66, Type (0, 0), BuildingBlock: KIFKEQ_clean_linker_1, # of connection points: 2
#     Edge 67, Type (0, 0), BuildingBlock: KIFKEQ_clean_linker_1, # of connection points: 2
#     Edge 68, Type (0, 0), BuildingBlock: KIFKEQ_clean_linker_1, # of connection points: 2
#     Edge 69, Type (0, 0), BuildingBlock: KIFKEQ_clean_linker_1, # of connection points: 2
#     Edge 70, Type (0, 0), BuildingBlock: KIFKEQ_clean_linker_1, # of connection points: 2
#     Edge 71, Type (0, 0), BuildingBlock: KIFKEQ_clean_linker_1, # of connection points: 2
#     Edge 72, Type (0, 0), BuildingBlock: KIFKEQ_clean_linker_1, # of connection points: 2
#     Edge 73, Type (0, 0), BuildingBlock: KIFKEQ_clean_linker_1, # of connection points: 2
#     Edge 74, Type (0, 0), BuildingBlock: KIFKEQ_clean_linker_1, # of connection points: 2
#     Edge 75, Type (0, 0), BuildingBlock: KIFKEQ_clean_linker_1, # of connection points: 2
#     Edge 76, Type (0, 0), BuildingBlock: KIFKEQ_clean_linker_1, # of connection points: 2
#     Edge 77, Type (0, 0), BuildingBlock: KIFKEQ_clean_linker_1, # of connection points: 2
#     Edge 78, Type (0, 0), BuildingBlock: KIFKEQ_clean_linker_1, # of connection points: 2
#     Edge 79, Type (0, 0), BuildingBlock: KIFKEQ_clean_linker_1, # of connection points: 2
#     Edge 80, Type (0, 0), BuildingBlock: KIFKEQ_clean_linker_1, # of connection points: 2
#     Edge 81, Type (0, 0), BuildingBlock: KIFKEQ_clean_linker_1, # of connection points: 2
#     Edge 82, Type (0, 0), BuildingBlock: KIFKEQ_clean_linker_1, # of connection points: 2
#     Edge 83, Type (0, 0), BuildingBlock: KIFKEQ_clean_linker_1, # of connection points: 2
#     Edge 84, Type (0, 0), BuildingBlock: KIFKEQ_clean_linker_1, # of connection points: 2
#     Edge 85, Type (0, 0), BuildingBlock: KIFKEQ_clean_linker_1, # of connection points: 2
#     Edge 86, Type (0, 0), BuildingBlock: KIFKEQ_clean_linker_1, # of connection points: 2
#     Edge 87, Type (0, 0), BuildingBlock: KIFKEQ_clean_linker_1, # of connection points: 2
#     Edge 88, Type (0, 0), BuildingBlock: KIFKEQ_clean_linker_1, # of connection points: 2
#     Edge 89, Type (0, 0), BuildingBlock: KIFKEQ_clean_linker_1, # of connection points: 2
#     Edge 90, Type (0, 0), BuildingBlock: KIFKEQ_clean_linker_1, # of connection points: 2
#     Edge 91, Type (0, 0), BuildingBlock: KIFKEQ_clean_linker_1, # of connection points: 2
#     Edge 92, Type (0, 0), BuildingBlock: KIFKEQ_clean_linker_1, # of connection points: 2
#     Edge 93, Type (0, 0), BuildingBlock: KIFKEQ_clean_linker_1, # of connection points: 2
#     Edge 94, Type (0, 0), BuildingBlock: KIFKEQ_clean_linker_1, # of connection points: 2
#     Edge 95, Type (0, 0), BuildingBlock: KIFKEQ_clean_linker_1, # of connection points: 2
# Relax obj value: 0.068
# Max RMSD: 0.116
# Mean RMSD: 0.116
data_MOF--net-ukj--node1-ICAMEG_clean_sbu_1--edge1-KIFKEQ_clean_linker_1
_symmetry_space_group_name_H-M    P1
_symmetry_Int_Tables_number       1
_symmetry_cell_setting            triclinic
loop_
_symmetry_equiv_pos_as_xyz
'x, y, z'
_cell_length_a     32.705515
_cell_length_b     71.584242
_cell_length_c     61.745122
_cell_angle_alpha  90.001001
_cell_angle_beta   89.99697
_cell_angle_gamma 90.041341
loop_
_atom_site_label
_atom_site_type_symbol
_atom_site_fract_x
_atom_site_fract_y
_atom_site_fract_z
_atom_type_partial_charge
Co0 Co 0.14109 0.36009 0.25294 0.0
Co1 Co 0.17772 0.31868 0.27298 0.0
O2 O 0.1447 0.33299 0.25263 0.0
C3 C 0.16374 0.35338 0.20686 0.0
O4 O 0.19886 0.3465 0.21334 0.0
C5 C 0.09583 0.30165 0.27428 0.0
O6 O 0.0814 0.31858 0.27709 0.0
O7 O 0.15182 0.33161 0.29801 0.0
O8 O 0.14332 0.36082 0.28545 0.0
H9 H 0.26797 0.30951 0.33796 0.0
H10 H 0.07911 0.33784 0.2291 0.0
O11 O 0.13785 0.35963 0.22046 0.0
H12 H 0.00107 0.37474 0.28236 0.0
H13 H 0.08852 0.42219 0.22673 0.0
H14 H 0.18259 0.39045 0.27712 0.0
H15 H 0.07605 0.37773 0.27999 0.0
H16 H 0.09278 0.38779 0.22754 0.0
O17 O 0.13426 0.29897 0.27339 0.0
H18 H 0.22723 0.32774 0.31183 0.0
H19 H 0.19642 0.27815 0.27776 0.0
H20 H 0.17906 0.42487 0.27699 0.0
H21 H 0.00411 0.33463 0.23068 0.0
H22 H 0.13175 0.44096 0.25165 0.0
H23 H 0.96458 0.3531 0.25753 0.0
O24 O 0.20183 0.36213 0.25183 0.0
H25 H 0.17884 0.28617 0.20083 0.0
H26 H 0.26392 0.3102 0.26061 0.0
H27 H 0.29707 0.29547 0.22908 0.0
H28 H 0.25444 0.2833 0.19891 0.0
H29 H 0.14695 0.30111 0.2326 0.0
H30 H 0.2366 0.25935 0.30361 0.0
H31 H 0.27285 0.27505 0.33393 0.0
O32 O 0.22193 0.33798 0.27257 0.0
C33 C 0.1443 0.34894 0.3009 0.0
C34 C 0.25243 0.30251 0.32478 0.0
C35 C 0.23476 0.27436 0.30552 0.0
N36 N 0.20975 0.30403 0.2932 0.0
C37 C 0.22941 0.31277 0.3099 0.0
C38 C 0.21199 0.28506 0.29096 0.0
C39 C 0.25511 0.28318 0.32252 0.0
C40 C 0.06209 0.34612 0.24063 0.0
N41 N 0.08196 0.35804 0.25435 0.0
C42 C 0.01963 0.34416 0.24153 0.0
C43 C 0.99749 0.3545 0.25663 0.0
C44 C 0.01795 0.36662 0.27058 0.0
C45 C 0.06044 0.36821 0.26922 0.0
C46 C 0.1092 0.41534 0.23787 0.0
C47 C 0.16176 0.39735 0.26614 0.0
C48 C 0.11182 0.39587 0.23836 0.0
N49 N 0.13768 0.38713 0.25248 0.0
C50 C 0.15998 0.41685 0.2661 0.0
C51 C 0.13345 0.42586 0.25186 0.0
C52 C 0.22912 0.35308 0.26224 0.0
C53 C 0.19774 0.29135 0.21391 0.0
C54 C 0.24514 0.30495 0.24755 0.0
C55 C 0.2641 0.2966 0.22975 0.0
C56 C 0.24016 0.28977 0.21283 0.0
N57 N 0.20351 0.30639 0.24853 0.0
C58 C 0.17985 0.29976 0.23198 0.0
Co59 Co 0.10968 0.88862 0.25284 0.0
Co60 Co 0.07307 0.93007 0.27246 0.0
O61 O 0.10668 0.91576 0.25239 0.0
C62 C 0.09082 0.89737 0.2071 0.0
O63 O 0.05938 0.90699 0.2142 0.0
C64 C 0.15429 0.94822 0.27428 0.0
O65 O 0.17015 0.93179 0.27863 0.0
O66 O 0.0993 0.91748 0.29764 0.0
O67 O 0.1062 0.8881 0.28535 0.0
H68 H 0.98266 0.93941 0.33735 0.0
H69 H 0.17287 0.91049 0.2295 0.0
O70 O 0.11382 0.88874 0.22041 0.0
H71 H 0.24822 0.87378 0.284 0.0
H72 H 0.16205 0.82616 0.22774 0.0
H73 H 0.06655 0.8586 0.27676 0.0
H74 H 0.17334 0.87089 0.28072 0.0
H75 H 0.15849 0.86058 0.22824 0.0
O76 O 0.11576 0.95006 0.27246 0.0
H77 H 0.02391 0.92115 0.31149 0.0
H78 H 0.05307 0.97055 0.27663 0.0
H79 H 0.06935 0.82416 0.27693 0.0
H80 H 0.2478 0.91368 0.2321 0.0
H81 H 0.11739 0.80772 0.25228 0.0
H82 H 0.28597 0.89528 0.25955 0.0
O83 O 0.04897 0.88685 0.25091 0.0
H84 H 0.07116 0.96224 0.20009 0.0
H85 H 0.98661 0.93782 0.25987 0.0
H86 H 0.95312 0.95213 0.22818 0.0
H87 H 0.99548 0.96449 0.19802 0.0
H88 H 0.10339 0.94767 0.23197 0.0
H89 H 0.01235 0.98937 0.30221 0.0
H90 H 0.97666 0.97378 0.33279 0.0
O91 O 0.02932 0.91056 0.27237 0.0
C92 C 0.1058 0.90009 0.30071 0.0
C93 C 0.99795 0.94636 0.32405 0.0
C94 C 0.01466 0.9744 0.30435 0.0
N95 N 0.04061 0.94475 0.29248 0.0
C96 C 0.02126 0.93609 0.30932 0.0
C97 C 0.03775 0.96368 0.28994 0.0
C98 C 0.99464 0.96564 0.3215 0.0
C99 C 0.1893 0.90231 0.24136 0.0
N100 N 0.16875 0.89047 0.25489 0.0
C101 C 0.23171 0.90423 0.24281 0.0
C102 C 0.2531 0.89392 0.25823 0.0
C103 C 0.23193 0.88187 0.27197 0.0
C104 C 0.18951 0.88033 0.27008 0.0
C105 C 0.14105 0.83316 0.23858 0.0
C106 C 0.08769 0.85154 0.26608 0.0
C107 C 0.13884 0.85264 0.23889 0.0
N108 N 0.11256 0.86158 0.25264 0.0
C109 C 0.08906 0.83204 0.26621 0.0
C110 C 0.11599 0.82282 0.25236 0.0
C111 C 0.02183 0.89574 0.2616 0.0
C112 C 0.05237 0.95697 0.21317 0.0
C113 C 0.00527 0.94313 0.2468 0.0
C114 C 0.98612 0.95125 0.22891 0.0
C115 C 0.00991 0.9582 0.212 0.0
N116 N 0.04695 0.942 0.24785 0.0
C117 C 0.07046 0.94877 0.23132 0.0
Co118 Co 0.14008 0.88961 1.00181 0.0
Co119 Co 0.17885 0.93144 0.98377 0.0
O120 O 0.14407 0.91673 1.00289 0.0
C121 C 0.15989 0.89758 0.04761 0.0
O122 O 0.19132 0.90722 0.04053 0.0
C123 C 0.0974 0.94918 0.9807 0.0
O124 O 0.08194 0.93269 0.97621 0.0
O125 O 0.15513 0.91897 0.95771 0.0
O126 O 0.14293 0.88973 0.96937 0.0
H127 H 0.2749 0.94178 0.9214 0.0
H128 H 0.07835 0.91161 0.02604 0.0
O129 O 0.13659 0.88916 0.03424 0.0
H130 H 0.00028 0.87655 0.9711 0.0
H131 H 0.08555 0.82713 0.02566 0.0
H132 H 0.18142 0.85969 0.97688 0.0
H133 H 0.07506 0.87293 0.97392 0.0
H134 H 0.09053 0.86152 0.02597 0.0
O135 O 0.13581 0.95117 0.98292 0.0
H136 H 0.23184 0.92309 0.94604 0.0
H137 H 0.198 0.97209 0.98042 0.0
H138 H 0.1772 0.82529 0.97591 0.0
H139 H 0.00355 0.91553 0.02392 0.0
H140 H 0.12898 0.80879 1.00043 0.0
H141 H 0.96401 0.89797 0.99625 0.0
O142 O 0.20076 0.88716 0.00329 0.0
H143 H 0.17311 0.96259 0.05667 0.0
H144 H 0.26377 0.94014 0.99844 0.0
H145 H 0.29386 0.95432 0.03115 0.0
H146 H 0.2484 0.96569 0.06056 0.0
H147 H 0.14434 0.94815 0.02379 0.0
H148 H 0.24047 0.99133 0.95606 0.0
H149 H 0.27942 0.97615 0.92634 0.0
O150 O 0.22296 0.91225 0.98484 0.0
C151 C 0.14608 0.90185 0.95427 0.0
C152 C 0.25817 0.94854 0.93432 0.0
C153 C 0.2388 0.97636 0.95376 0.0
N154 N 0.21266 0.94647 0.96473 0.0
C155 C 0.23382 0.93803 0.94836 0.0
C156 C 0.21472 0.9654 0.96746 0.0
C157 C 0.26066 0.96783 0.93709 0.0
C158 C 0.06132 0.90379 0.01408 0.0
N159 N 0.08106 0.89201 1.00015 0.0
C160 C 0.01899 0.90612 0.01291 0.0
C161 C 0.99683 0.89629 0.99736 0.0
C162 C 0.01716 0.88428 0.98323 0.0
C163 C 0.05954 0.88233 0.98485 0.0
C164 C 0.10662 0.83416 0.01487 0.0
C165 C 0.16019 0.85261 0.98751 0.0
C166 C 0.10964 0.85362 0.01501 0.0
N167 N 0.13601 0.86259 1.00133 0.0
C168 C 0.15802 0.83313 0.98693 0.0
C169 C 0.13099 0.82388 1.0007 0.0
C170 C 0.22911 0.89663 0.99422 0.0
C171 C 0.19324 0.95773 0.04395 0.0
C172 C 0.2438 0.94498 0.01118 0.0
C173 C 0.26101 0.95305 0.02965 0.0
C174 C 0.23549 0.95944 0.04613 0.0
N175 N 0.20233 0.94334 0.00915 0.0
C176 C 0.17712 0.9496 0.02524 0.0
Co177 Co 0.10715 0.36004 1.00174 0.0
Co178 Co 0.07081 0.31816 0.98316 0.0
O179 O 0.10464 0.33293 1.00261 0.0
C180 C 0.08798 0.35319 0.04805 0.0
O181 O 0.05352 0.34541 0.04192 0.0
C182 C 0.15257 0.30066 0.98071 0.0
O183 O 0.16787 0.31713 0.97601 0.0
O184 O 0.09561 0.33076 0.95748 0.0
O185 O 0.10242 0.3603 0.96935 0.0
H186 H 0.97766 0.30762 0.91963 0.0
H187 H 0.17162 0.33857 0.02462 0.0
O188 O 0.11258 0.36003 0.03414 0.0
H189 H 0.24417 0.37517 0.96892 0.0
H190 H 0.15955 0.42285 0.02575 0.0
H191 H 0.06232 0.38978 0.97822 0.0
H192 H 0.16935 0.37771 0.97293 0.0
H193 H 0.15661 0.3884 0.02548 0.0
O194 O 0.11416 0.29858 0.98283 0.0
H195 H 0.01939 0.3264 0.94481 0.0
H196 H 0.05246 0.27745 0.9795 0.0
H197 H 0.06444 0.42422 0.97784 0.0
H198 H 0.24649 0.33573 0.02129 0.0
H199 H 0.11335 0.44098 1.00173 0.0
H200 H 0.28326 0.35409 0.99324 0.0
O201 O 0.04652 0.36165 0.00392 0.0
H202 H 0.07396 0.28741 0.05633 0.0
H203 H 0.98549 0.30879 0.99665 0.0
H204 H 0.95428 0.29451 0.029 0.0
H205 H 0.99864 0.28367 0.05913 0.0
H206 H 0.10385 0.30192 0.02376 0.0
H207 H 0.01134 0.25812 0.9546 0.0
H208 H 0.97344 0.27322 0.92445 0.0
O209 O 0.02618 0.33722 0.98379 0.0
C210 C 0.1018 0.34816 0.95417 0.0
C211 C 0.99393 0.30088 0.93274 0.0
C212 C 0.01289 0.2731 0.95235 0.0
N213 N 0.03807 0.30304 0.9637 0.0
C214 C 0.01752 0.31145 0.94708 0.0
C215 C 0.0362 0.28411 0.96636 0.0
C216 C 0.99161 0.28158 0.93544 0.0
C217 C 0.18744 0.34676 0.01254 0.0
N218 N 0.16616 0.3584 0.99911 0.0
C219 C 0.22983 0.34503 0.01066 0.0
C220 C 0.25043 0.35531 0.99489 0.0
C221 C 0.22851 0.36713 0.98123 0.0
C222 C 0.18613 0.36848 0.98355 0.0
C223 C 0.13819 0.41571 0.01522 0.0
C224 C 0.08388 0.39697 0.98854 0.0
C225 C 0.13634 0.39621 0.01503 0.0
N226 N 0.10961 0.3871 1.00168 0.0
C227 C 0.08485 0.41648 0.98831 0.0
C228 C 0.11226 0.42587 1.00174 0.0
C229 C 0.01892 0.35231 0.99408 0.0
C230 C 0.05431 0.29205 0.04329 0.0
C231 C 0.00498 0.30419 0.00971 0.0
C232 C 0.98714 0.29606 0.02797 0.0
C233 C 0.01205 0.28997 0.04487 0.0
N234 N 0.04645 0.30617 0.00826 0.0
C235 C 0.07106 0.30023 0.02477 0.0
Co236 Co 0.85906 0.63773 0.75303 0.0
Co237 Co 0.82525 0.67936 0.73299 0.0
O238 O 0.85752 0.6649 0.75349 0.0
C239 C 0.84063 0.64676 0.79865 0.0
O240 O 0.80973 0.65668 0.79146 0.0
C241 C 0.90686 0.69726 0.73236 0.0
O242 O 0.92269 0.68083 0.72802 0.0
O243 O 0.85298 0.6667 0.70831 0.0
O244 O 0.85527 0.63717 0.72054 0.0
H245 H 0.73903 0.68902 0.66659 0.0
H246 H 0.92373 0.65871 0.77634 0.0
O247 O 0.86329 0.63786 0.78541 0.0
H248 H 0.99636 0.62127 0.72146 0.0
H249 H 0.90821 0.57471 0.77809 0.0
H250 H 0.81359 0.60818 0.72952 0.0
H251 H 0.92134 0.61936 0.72486 0.0
H252 H 0.90666 0.60917 0.77747 0.0
O253 O 0.86828 0.6992 0.73375 0.0
H254 H 0.77846 0.67062 0.69312 0.0
H255 H 0.80615 0.7199 0.72853 0.0
H256 H 0.81435 0.57372 0.72949 0.0
H257 H 0.99881 0.66093 0.77361 0.0
H258 H 0.86194 0.55676 0.7539 0.0
H259 H 0.03561 0.64215 0.74597 0.0
O260 O 0.79841 0.63677 0.755 0.0
H261 H 0.81958 0.7115 0.8053 0.0
H262 H 0.7382 0.68747 0.74409 0.0
H263 H 0.70311 0.70193 0.7752 0.0
H264 H 0.74387 0.7141 0.80608 0.0
H265 H 0.85343 0.69678 0.77398 0.0
H266 H 0.76726 0.73886 0.70229 0.0
H267 H 0.73323 0.7234 0.6711 0.0
O268 O 0.78095 0.65997 0.73234 0.0
C269 C 0.85745 0.64918 0.70526 0.0
C270 C 0.75361 0.69591 0.68015 0.0
C271 C 0.7695 0.72389 0.70017 0.0
N272 N 0.79428 0.69416 0.71244 0.0
C273 C 0.77588 0.68556 0.69525 0.0
C274 C 0.79154 0.71309 0.71495 0.0
C275 C 0.7504 0.71521 0.68268 0.0
C276 C 0.93956 0.65036 0.76441 0.0
N277 N 0.91819 0.63885 0.75086 0.0
C278 C 0.98206 0.65173 0.76288 0.0
C279 C 0.00268 0.64122 0.74735 0.0
C280 C 0.98068 0.62951 0.73358 0.0
C281 C 0.93819 0.62852 0.73555 0.0
C282 C 0.88741 0.58194 0.76734 0.0
C283 C 0.83457 0.60089 0.74008 0.0
C284 C 0.88635 0.60145 0.76694 0.0
N285 N 0.86035 0.61066 0.75331 0.0
C286 C 0.83478 0.58138 0.74004 0.0
C287 C 0.86145 0.57188 0.75376 0.0
C288 C 0.77216 0.64559 0.74366 0.0
C289 C 0.80149 0.70631 0.79191 0.0
C290 C 0.75617 0.69269 0.75749 0.0
C291 C 0.73612 0.7009 0.77504 0.0
C292 C 0.75901 0.70773 0.79235 0.0
N293 N 0.79787 0.69137 0.75715 0.0
C294 C 0.8205 0.69803 0.77408 0.0
Co295 Co 0.89035 0.11328 0.75286 0.0
Co296 Co 0.92368 0.07078 0.73424 0.0
O297 O 0.89099 0.08605 0.7538 0.0
C298 C 0.908 0.10388 0.7983 0.0
O299 O 0.93606 0.09251 0.79078 0.0
C300 C 0.84075 0.05397 0.73245 0.0
O301 O 0.82572 0.07056 0.72815 0.0
O302 O 0.89917 0.0836 0.70867 0.0
O303 O 0.89367 0.11323 0.72042 0.0
H304 H 0.01506 0.05905 0.67028 0.0
H305 H 0.82564 0.09306 0.77701 0.0
O306 O 0.88699 0.11381 0.7853 0.0
H307 H 0.75292 0.12977 0.7215 0.0
H308 H 0.84318 0.17695 0.77675 0.0
H309 H 0.93622 0.14222 0.72853 0.0
H310 H 0.82804 0.1314 0.72452 0.0
H311 H 0.84377 0.14248 0.77682 0.0
O312 O 0.87918 0.05166 0.7341 0.0
H313 H 0.97481 0.07834 0.69559 0.0
H314 H 0.9397 0.02986 0.73064 0.0
H315 H 0.93642 0.17667 0.7278 0.0
H316 H 0.75046 0.09113 0.77466 0.0
H317 H 0.88963 0.19427 0.75204 0.0
H318 H 0.71362 0.10954 0.74671 0.0
O319 O 0.95098 0.11414 0.75452 0.0
H320 H 0.91956 0.03905 0.80684 0.0
H321 H 0.00873 0.06088 0.74763 0.0
H322 H 0.03949 0.04598 0.77972 0.0
H323 H 0.99477 0.0349 0.8096 0.0
H324 H 0.89016 0.05427 0.77461 0.0
H325 H 0.97932 0.01003 0.70561 0.0
H326 H 0.0175 0.02463 0.67522 0.0
O327 O 0.96958 0.08934 0.73456 0.0
C328 C 0.89358 0.10103 0.70531 0.0
C329 C 0.99866 0.05253 0.6835 0.0
C330 C 0.97855 0.02501 0.70331 0.0
N331 N 0.9552 0.05525 0.71466 0.0
C332 C 0.9759 0.06339 0.69791 0.0
C333 C 0.9561 0.03631 0.7174 0.0
C334 C -2e-05 0.03322 0.68627 0.0
C335 C 0.80979 0.10126 0.76494 0.0
N336 N 0.83117 0.11241 0.75101 0.0
C337 C 0.76723 0.10004 0.76363 0.0
C338 C 0.74659 0.11035 0.74792 0.0
C339 C 0.76862 0.1217 0.73376 0.0
C340 C 0.81116 0.12253 0.73552 0.0
C341 C 0.86362 0.16944 0.76607 0.0
C342 C 0.91556 0.14978 0.739 0.0
C343 C 0.86413 0.14993 0.76606 0.0
N344 N 0.88969 0.14036 0.75252 0.0
C345 C 0.91591 0.16929 0.73857 0.0
C346 C 0.88968 0.17915 0.75219 0.0
C347 C 0.97782 0.10451 0.74453 0.0
C348 C 0.93937 0.04377 0.7939 0.0
C349 C 0.9891 0.05623 0.76062 0.0
C350 C 0.00667 0.04772 0.77871 0.0
C351 C 0.98157 0.04148 0.79546 0.0
N352 N 0.94768 0.05846 0.75921 0.0
C353 C 0.92287 0.05233 0.77555 0.0
Co354 Co 0.85951 0.11351 1.00287 0.0
Co355 Co 0.82758 0.07064 0.02162 0.0
O356 O 0.85958 0.08625 1.00199 0.0
C357 C 0.84079 0.10383 0.9576 0.0
O358 O 0.81364 0.0921 0.96537 0.0
C359 C 0.91152 0.05558 0.0232 0.0
O360 O 0.92468 0.0728 0.02538 0.0
O361 O 0.85072 0.08393 0.04719 0.0
O362 O 0.85735 0.11349 0.03535 0.0
H363 H 0.73554 0.05823 0.08516 0.0
H364 H 0.92393 0.09395 0.97781 0.0
O365 O 0.86164 0.11403 0.97041 0.0
H366 H 0.99762 0.13084 0.03284 0.0
H367 H 0.90405 0.17745 0.97842 0.0
H368 H 0.81376 0.14217 0.02764 0.0
H369 H 0.92235 0.13189 0.03069 0.0
H370 H 0.90441 0.14298 0.9784 0.0
O371 O 0.87336 0.05219 0.02251 0.0
H372 H 0.77512 0.07785 0.05985 0.0
H373 H 0.81406 0.02956 0.02563 0.0
H374 H 0.81263 0.17663 0.02833 0.0
H375 H 0.99923 0.09263 0.97924 0.0
H376 H 0.85804 0.1945 0.00359 0.0
H377 H 0.03657 0.11112 0.00696 0.0
O378 O 0.79886 0.11401 1.00179 0.0
H379 H 0.83537 0.03839 0.94943 0.0
H380 H 0.74348 0.05956 0.00777 0.0
H381 H 0.7144 0.04403 0.97563 0.0
H382 H 0.76049 0.03329 0.94618 0.0
H383 H 0.86308 0.05419 0.98173 0.0
H384 H 0.77517 0.00941 0.05067 0.0
H385 H 0.73541 0.02375 0.08064 0.0
O386 O 0.78061 0.08856 0.02077 0.0
C387 C 0.85695 0.10131 0.05048 0.0
C388 C 0.75264 0.05182 0.07212 0.0
C389 C 0.77493 0.02442 0.05278 0.0
N390 N 0.79659 0.05487 0.04119 0.0
C391 C 0.77501 0.06286 0.05771 0.0
C392 C 0.79696 0.0359 0.03869 0.0
C393 C 0.75261 0.03247 0.06959 0.0
C394 C 0.93998 0.1022 0.98975 0.0
N395 N 0.91877 0.11305 0.00408 0.0
C396 C 0.98261 0.10133 0.99055 0.0
C397 C 0.00353 0.11168 0.00614 0.0
C398 C 0.98169 0.12273 0.02068 0.0
C399 C 0.93907 0.12323 0.01942 0.0
C400 C 0.88422 0.16982 0.98932 0.0
C401 C 0.83382 0.14986 0.01695 0.0
C402 C 0.88425 0.15031 0.98936 0.0
N403 N 0.85945 0.1406 0.00317 0.0
C404 C 0.83295 0.16936 0.01735 0.0
C405 C 0.8584 0.17938 0.00345 0.0
C406 C 0.77217 0.10393 0.01128 0.0
C407 C 0.81498 0.04295 0.96218 0.0
C408 C 0.76371 0.05503 0.99498 0.0
C409 C 0.74708 0.04618 0.97685 0.0
C410 C 0.77296 0.04013 0.96035 0.0
N411 N 0.80495 0.05778 0.99666 0.0
C412 C 0.83051 0.05184 0.98057 0.0
Co413 Co 0.88621 0.63789 0.0038 0.0
Co414 Co 0.92542 0.67917 0.02272 0.0
O415 O 0.89125 0.66494 1.00284 0.0
C416 C 0.90726 0.64583 0.95823 0.0
O417 O 0.93904 0.65511 0.96553 0.0
C418 C 0.84504 0.69778 0.02411 0.0
O419 O 0.82896 0.68148 0.02887 0.0
O420 O 0.89849 0.66719 0.04809 0.0
O421 O 0.88857 0.63783 0.03629 0.0
H422 H 0.01604 0.68851 0.08754 0.0
H423 H 0.82552 0.66036 0.97944 0.0
O424 O 0.88325 0.63761 0.97139 0.0
H425 H 0.74559 0.62564 0.03391 0.0
H426 H 0.83008 0.57587 0.97937 0.0
H427 H 0.92618 0.6076 0.02875 0.0
H428 H 0.82029 0.62154 0.03137 0.0
H429 H 0.83619 0.61023 0.97926 0.0
O430 O 0.88361 0.6995 0.02228 0.0
H431 H 0.97403 0.6703 0.06195 0.0
H432 H 0.94723 0.71949 0.02623 0.0
H433 H 0.92081 0.57323 0.02953 0.0
H434 H 0.75083 0.66477 0.98128 0.0
H435 H 0.87247 0.55715 0.00471 0.0
H436 H 0.71036 0.64737 0.00871 0.0
O437 O 0.94676 0.63517 1.00251 0.0
H438 H 0.92935 0.71037 0.94981 0.0
H439 H 0.0123 0.68585 0.01013 0.0
H440 H 0.04669 0.6994 0.97825 0.0
H441 H 0.00514 0.71181 0.94781 0.0
H442 H 0.8962 0.69655 0.98189 0.0
H443 H 0.98873 0.73827 0.05152 0.0
H444 H 0.02361 0.72276 0.0824 0.0
O445 O 0.96812 0.65921 0.02306 0.0
C446 C 0.89011 0.65 0.05142 0.0
C447 C 0.00111 0.69543 0.07411 0.0
C448 C 0.98573 0.72336 0.05391 0.0
N449 N 0.95848 0.6938 0.04253 0.0
C450 C 0.97738 0.68518 0.05953 0.0
C451 C 0.9622 0.71266 0.03967 0.0
C452 C 0.0053 0.71464 0.07123 0.0
C453 C 0.80808 0.65261 0.99129 0.0
N454 N 0.82725 0.64066 0.00524 0.0
C455 C 0.76581 0.65522 0.99231 0.0
C456 C 0.74313 0.64548 0.00773 0.0
C457 C 0.76289 0.6333 0.02188 0.0
C458 C 0.80522 0.63107 0.02041 0.0
C459 C 0.8512 0.58272 0.99029 0.0
C460 C 0.90491 0.6007 0.01799 0.0
C461 C 0.85485 0.60216 0.99026 0.0
N462 N 0.88129 0.6109 0.0041 0.0
C463 C 0.90208 0.58124 0.01847 0.0
C464 C 0.87498 0.57222 0.00452 0.0
C465 C 0.97446 0.64394 0.01293 0.0
C466 C 0.94779 0.70507 0.963 0.0
C467 C 0.99399 0.69119 0.99694 0.0
C468 C 0.01364 0.69888 0.97894 0.0
C469 C 0.99031 0.70585 0.96188 0.0
N470 N 0.95226 0.69051 0.99795 0.0
C471 C 0.92918 0.69731 0.98127 0.0
Co472 Co 0.13924 0.86315 0.75268 0.0
Co473 Co 0.17313 0.82133 0.77294 0.0
O474 O 0.14059 0.83595 0.75263 0.0
C475 C 0.15821 0.85361 0.70717 0.0
O476 O 0.18888 0.84363 0.71454 0.0
C477 C 0.09032 0.80501 0.7744 0.0
O478 O 0.07626 0.82207 0.77664 0.0
O479 O 0.14831 0.83472 0.79793 0.0
O480 O 0.1423 0.864 0.7852 0.0
H481 H 0.26358 0.81149 0.83771 0.0
H482 H 0.07498 0.84219 0.729 0.0
O483 O 0.13565 0.86273 0.72026 0.0
H484 H 0.00119 0.88001 0.78308 0.0
H485 H 0.09106 0.92598 0.72648 0.0
H486 H 0.18387 0.89287 0.77634 0.0
H487 H 0.0763 0.88176 0.78026 0.0
H488 H 0.09252 0.89153 0.72748 0.0
O489 O 0.12868 0.80211 0.77374 0.0
H490 H 0.22356 0.83002 0.81157 0.0
H491 H 0.18975 0.7806 0.77796 0.0
H492 H 0.18317 0.92733 0.776 0.0
H493 H -0.00018 0.84019 0.73109 0.0
H494 H 0.1365 0.94411 0.75094 0.0
H495 H 0.96243 0.85914 0.75834 0.0
O496 O 0.2 0.86414 0.75101 0.0
H497 H 0.17115 0.78799 0.7013 0.0
H498 H 0.25866 0.81183 0.7602 0.0
H499 H 0.2904 0.79643 0.72869 0.0
H500 H 0.24654 0.78436 0.69897 0.0
H501 H 0.14069 0.80363 0.73301 0.0
H502 H 0.22918 0.76151 0.80384 0.0
H503 H 0.26657 0.77697 0.83393 0.0
O504 O 0.21854 0.84007 0.77222 0.0
C505 C 0.14248 0.85219 0.80074 0.0
C506 C 0.24753 0.80459 0.82463 0.0
C507 C 0.22817 0.77654 0.80563 0.0
N508 N 0.20461 0.80642 0.79317 0.0
C509 C 0.22491 0.81502 0.80974 0.0
C510 C 0.20583 0.78742 0.79106 0.0
C511 C 0.24916 0.78522 0.82251 0.0
C512 C 0.05891 0.85064 0.74074 0.0
N513 N 0.08003 0.86211 0.75446 0.0
C514 C 0.01635 0.84938 0.74192 0.0
C515 C 0.9954 0.85999 0.75724 0.0
C516 C 0.01714 0.87169 0.77114 0.0
C517 C 0.05969 0.87256 0.76952 0.0
C518 C 0.11147 0.91883 0.7375 0.0
C519 C 0.16332 0.90008 0.76548 0.0
C520 C 0.11249 0.89933 0.73811 0.0
N521 N 0.13802 0.89022 0.75208 0.0
C522 C 0.16313 0.91959 0.76532 0.0
C523 C 0.13696 0.929 0.75124 0.0
C524 C 0.22673 0.85486 0.76153 0.0
C525 C 0.19058 0.79313 0.71418 0.0
C526 C 0.23935 0.80664 0.74732 0.0
C527 C 0.25751 0.7979 0.72953 0.0
C528 C 0.23288 0.79112 0.71287 0.0
N529 N 0.19782 0.80853 0.74851 0.0
C530 C 0.17349 0.80192 0.73223 0.0
Co531 Co 0.10907 0.38681 0.75212 0.0
Co532 Co 0.07874 0.42848 0.77375 0.0
O533 O 0.10983 0.41401 0.75269 0.0
C534 C 0.09172 0.39739 0.70678 0.0
O535 O 0.06158 0.40765 0.71423 0.0
C536 C 0.16193 0.44452 0.7742 0.0
O537 O 0.17594 0.42741 0.7759 0.0
O538 O 0.105 0.41457 0.79792 0.0
O539 O 0.10503 0.38537 0.78461 0.0
H540 H 0.99258 0.43762 0.84028 0.0
H541 H 0.17569 0.4069 0.72927 0.0
O542 O 0.11347 0.38776 0.71975 0.0
H543 H 0.24474 0.36707 0.78317 0.0
H544 H 0.15293 0.32368 0.72476 0.0
H545 H 0.06096 0.35745 0.77446 0.0
H546 H 0.1696 0.36675 0.77983 0.0
H547 H 0.15433 0.3581 0.72667 0.0
O548 O 0.12359 0.44751 0.7742 0.0
H549 H 0.03066 0.41936 0.81307 0.0
H550 H 0.06322 0.46919 0.77992 0.0
H551 H 0.05876 0.32302 0.77322 0.0
H552 H 0.25091 0.40748 0.73189 0.0
H553 H 0.10501 0.30591 0.74823 0.0
H554 H 0.28592 0.38751 0.75905 0.0
O555 O 0.04845 0.38699 0.75007 0.0
H556 H 0.07718 0.46296 0.70285 0.0
H557 H 0.9927 0.43866 0.76272 0.0
H558 H 0.95946 0.45475 0.73213 0.0
H559 H 0.00179 0.46706 0.70192 0.0
H560 H 0.10914 0.44663 0.73365 0.0
H561 H 0.02573 0.48801 0.80686 0.0
H562 H 0.98994 0.4722 0.83726 0.0
O563 O 0.03266 0.40997 0.77338 0.0
C564 C 0.10796 0.39691 0.80035 0.0
C565 C 0.00794 0.44466 0.82707 0.0
C566 C 0.02659 0.47294 0.80833 0.0
N567 N 0.04884 0.44319 0.79484 0.0
C568 C 0.02946 0.4344 0.81158 0.0
C569 C 0.04784 0.46222 0.79315 0.0
C570 C 0.0065 0.46407 0.82538 0.0
C571 C 0.19071 0.39801 0.74096 0.0
N572 N 0.16826 0.38676 0.75433 0.0
C573 C 0.23331 0.39846 0.74244 0.0
C574 C 0.25293 0.38729 0.75771 0.0
C575 C 0.22984 0.37583 0.77127 0.0
C576 C 0.18728 0.37576 0.76935 0.0
C577 C 0.13271 0.33097 0.73576 0.0
C578 C 0.08136 0.35009 0.76366 0.0
C579 C 0.13331 0.35046 0.73688 0.0
N580 N 0.10804 0.35975 0.75083 0.0
C581 C 0.07989 0.3306 0.76297 0.0
C582 C 0.10582 0.32101 0.74893 0.0
C583 C 0.02282 0.39601 0.76158 0.0
C584 C 0.05842 0.45772 0.71595 0.0
C585 C 0.01134 0.44394 0.74963 0.0
C586 C 0.99235 0.45307 0.73236 0.0
C587 C 0.01612 0.45999 0.71543 0.0
N588 N 0.05287 0.44179 0.75005 0.0
C589 C 0.07637 0.44853 0.73349 0.0
Co590 Co 0.13924 0.38849 0.50179 0.0
Co591 Co 0.17388 0.43031 0.48173 0.0
O592 O 0.14126 0.41567 0.50202 0.0
C593 C 0.15924 0.39773 0.54725 0.0
O594 O 0.19003 0.40762 0.53983 0.0
C595 C 0.09123 0.44667 0.48045 0.0
O596 O 0.07716 0.42962 0.47802 0.0
O597 O 0.14878 0.41708 0.45667 0.0
O598 O 0.14159 0.38781 0.46928 0.0
H599 H 0.26426 0.44025 0.41693 0.0
H600 H 0.07602 0.40967 0.52594 0.0
O601 O 0.1363 0.38876 0.53422 0.0
H602 H 0.00013 0.37233 0.47218 0.0
H603 H 0.09012 0.32573 0.52786 0.0
H604 H 0.18264 0.3587 0.47767 0.0
H605 H 0.07525 0.37024 0.47454 0.0
H606 H 0.09236 0.36018 0.52708 0.0
O607 O 0.1296 0.44959 0.48111 0.0
H608 H 0.2241 0.42168 0.44301 0.0
H609 H 0.19087 0.47102 0.47689 0.0
H610 H 0.18115 0.32424 0.47778 0.0
H611 H 0.00087 0.41201 0.52432 0.0
H612 H 0.13462 0.30753 0.50302 0.0
H613 H 0.96242 0.39331 0.49723 0.0
O614 O 0.2 0.38722 0.50313 0.0
H615 H 0.17263 0.46332 0.55357 0.0
H616 H 0.25957 0.43958 0.49441 0.0
H617 H 0.29165 0.45477 0.52597 0.0
H618 H 0.24808 0.46679 0.55583 0.0
H619 H 0.14183 0.4479 0.52181 0.0
H620 H 0.23044 0.49015 0.45109 0.0
H621 H 0.2676 0.47475 0.42089 0.0
O622 O 0.21905 0.41147 0.48229 0.0
C623 C 0.14211 0.39968 0.45381 0.0
C624 C 0.24831 0.44712 0.43006 0.0
C625 C 0.22927 0.47513 0.44921 0.0
N626 N 0.20544 0.44524 0.46154 0.0
C627 C 0.22562 0.43667 0.44492 0.0
C628 C 0.20685 0.46423 0.46375 0.0
C629 C 0.25013 0.46648 0.43228 0.0
C630 C 0.05949 0.40133 0.51426 0.0
N631 N 0.08002 0.3898 0.50038 0.0
C632 C 0.01694 0.40278 0.51336 0.0
C633 C 0.9954 0.39231 0.49812 0.0
C634 C 0.01654 0.38056 0.48405 0.0
C635 C 0.0591 0.37948 0.4854 0.0
C636 C 0.11047 0.33285 0.51677 0.0
C637 C 0.16215 0.35152 0.4886 0.0
C638 C 0.11193 0.35235 0.51628 0.0
N639 N 0.13737 0.36142 0.50221 0.0
C640 C 0.16152 0.33201 0.48864 0.0
C641 C 0.13543 0.32265 0.50281 0.0
C642 C 0.22691 0.39652 0.49274 0.0
C643 C 0.19193 0.45821 0.54063 0.0
C644 C 0.24039 0.44475 0.50734 0.0
C645 C 0.25873 0.45337 0.52516 0.0
C646 C 0.23427 0.46012 0.5419 0.0
N647 N 0.19883 0.44295 0.50619 0.0
C648 C 0.17465 0.44953 0.52255 0.0
Co649 Co 0.11086 0.86199 0.50195 0.0
Co650 Co 0.07556 0.81959 0.48329 0.0
O651 O 0.10906 0.83478 0.50262 0.0
C652 C 0.09102 0.85312 0.54753 0.0
O653 O 0.06061 0.84295 0.54019 0.0
C654 C 0.15904 0.80409 0.48028 0.0
O655 O 0.17243 0.82126 0.47799 0.0
O656 O 0.09724 0.83302 0.4574 0.0
O657 O 0.10857 0.8622 0.46951 0.0
H658 H 0.97911 0.80826 0.42134 0.0
H659 H 0.17402 0.84112 0.52654 0.0
O660 O 0.11369 0.86215 0.5344 0.0
H661 H 0.25005 0.8777 0.47214 0.0
H662 H 0.15983 0.92509 0.52697 0.0
H663 H 0.06752 0.89146 0.47727 0.0
H664 H 0.17493 0.87985 0.47443 0.0
H665 H 0.15767 0.89063 0.52676 0.0
O666 O 0.12083 0.80088 0.48145 0.0
H667 H 0.0207 0.82743 0.44618 0.0
H668 H 0.06085 0.77863 0.47899 0.0
H669 H 0.06892 0.92591 0.47682 0.0
H670 H 0.24916 0.83873 0.52498 0.0
H671 H 0.11534 0.94295 0.5018 0.0
H672 H 0.28768 0.85705 0.49758 0.0
O673 O 0.05006 0.8634 0.50314 0.0
H674 H 0.08666 0.78729 0.55533 0.0
H675 H 0.99211 0.8087 0.49832 0.0
H676 H 0.96448 0.79324 0.53087 0.0
H677 H 0.01191 0.7824 0.55966 0.0
H678 H 0.11294 0.80295 0.5226 0.0
H679 H 0.01993 0.75891 0.4544 0.0
H680 H 0.97856 0.77373 0.42538 0.0
O681 O 0.02936 0.83776 0.48521 0.0
C682 C 0.10556 0.85025 0.45422 0.0
C683 C 0.99691 0.80164 0.43396 0.0
C684 C 0.01988 0.77394 0.4525 0.0
N685 N 0.04294 0.80417 0.4641 0.0
C686 C 0.02044 0.81243 0.44811 0.0
C687 C 0.04306 0.78517 0.46634 0.0
C688 C 0.99665 0.78226 0.43622 0.0
C689 C 0.19058 0.8493 0.51472 0.0
N690 N 0.17008 0.86065 0.50062 0.0
C691 C 0.23312 0.84782 0.51385 0.0
C692 C 0.25471 0.85807 0.49844 0.0
C693 C 0.23361 0.86964 0.48415 0.0
C694 C 0.19105 0.87075 0.48547 0.0
C695 C 0.13954 0.91782 0.51598 0.0
C696 C 0.08797 0.89878 0.48809 0.0
C697 C 0.13812 0.89832 0.51582 0.0
N698 N 0.11273 0.88906 0.50189 0.0
C699 C 0.08855 0.91828 0.48781 0.0
C700 C 0.11458 0.92784 0.50185 0.0
C701 C 0.02225 0.85338 0.49441 0.0
C702 C 0.06569 0.79191 0.54287 0.0
C703 C 0.01293 0.80408 0.51079 0.0
C704 C 0.99712 0.79529 0.52917 0.0
C705 C 0.02374 0.78919 0.54531 0.0
N706 N 0.05411 0.80669 0.50851 0.0
C707 C 0.0804 0.80072 0.52426 0.0
Co708 Co 0.8584 0.13593 0.25331 0.0
Co709 Co 0.82745 0.17794 0.23266 0.0
O710 O 0.85883 0.16319 0.25336 0.0
C711 C 0.84188 0.14693 0.29835 0.0
O712 O 0.81574 0.15902 0.29045 0.0
C713 C 0.91027 0.19473 0.23194 0.0
O714 O 0.92529 0.17807 0.228 0.0
O715 O 0.85432 0.16466 0.20824 0.0
O716 O 0.85526 0.13519 0.22075 0.0
H717 H 0.74187 0.18805 0.16611 0.0
H718 H 0.92395 0.15613 0.27677 0.0
O719 O 0.86156 0.13607 0.28578 0.0
H720 H 0.99511 0.11725 0.22271 0.0
H721 H 0.9023 0.07236 0.27921 0.0
H722 H 0.81126 0.10695 0.22979 0.0
H723 H 0.91993 0.11642 0.2257 0.0
H724 H 0.90339 0.10681 0.27826 0.0
O725 O 0.87179 0.19715 0.23306 0.0
H726 H 0.78008 0.16941 0.19292 0.0
H727 H 0.81111 0.21869 0.22755 0.0
H728 H 0.80941 0.0725 0.23007 0.0
H729 H 0.99921 0.15728 0.27444 0.0
H730 H 0.85518 0.05497 0.25492 0.0
H731 H 0.03527 0.13776 0.24722 0.0
O732 O 0.79786 0.1359 0.25511 0.0
H733 H 0.82438 0.21227 0.30368 0.0
H734 H 0.74093 0.18709 0.24389 0.0
H735 H 0.70702 0.20286 0.27449 0.0
H736 H 0.74882 0.21564 0.30464 0.0
H737 H 0.85702 0.19613 0.27297 0.0
H738 H 0.77347 0.23788 0.20104 0.0
H739 H 0.73839 0.22254 0.17009 0.0
O740 O 0.78175 0.15917 0.23229 0.0
C741 C 0.85809 0.14709 0.20537 0.0
C742 C 0.75692 0.19489 0.17957 0.0
C743 C 0.7747 0.22286 0.19915 0.0
N744 N 0.79748 0.19293 0.21188 0.0
C745 C 0.7785 0.1844 0.19483 0.0
C746 C 0.79602 0.21192 0.21409 0.0
C747 C 0.75501 0.21424 0.1818 0.0
C748 C 0.93946 0.14747 0.26503 0.0
N749 N 0.9176 0.13615 0.25148 0.0
C750 C 0.98206 0.14823 0.26372 0.0
C751 C 0.00227 0.1373 0.24842 0.0
C752 C 0.97975 0.1258 0.23465 0.0
C753 C 0.93718 0.12542 0.2364 0.0
C754 C 0.88229 0.07983 0.26827 0.0
C755 C 0.83147 0.09941 0.24053 0.0
C756 C 0.88272 0.09934 0.26769 0.0
N757 N 0.8577 0.10886 0.25382 0.0
C758 C 0.83019 0.07991 0.24067 0.0
C759 C 0.85585 0.07009 0.25464 0.0
C760 C 0.77216 0.14494 0.24369 0.0
C761 C 0.80584 0.20682 0.29061 0.0
C762 C 0.75935 0.19249 0.25701 0.0
C763 C 0.73997 0.20148 0.27426 0.0
C764 C 0.76344 0.20867 0.29116 0.0
N765 N 0.80096 0.19071 0.25659 0.0
C766 C 0.82417 0.19776 0.27309 0.0
Co767 Co 0.88798 0.61296 0.25277 0.0
Co768 Co 0.92376 0.57117 0.2332 0.0
O769 O 0.89094 0.58581 0.25337 0.0
C770 C 0.90893 0.60427 0.2982 0.0
O771 O 0.93982 0.59448 0.29076 0.0
C772 C 0.84149 0.55441 0.23215 0.0
O773 O 0.82723 0.57139 0.22944 0.0
O774 O 0.89814 0.58399 0.20803 0.0
O775 O 0.8898 0.61331 0.22027 0.0
H776 H 0.01388 0.56112 0.16834 0.0
H777 H 0.8259 0.59153 0.2775 0.0
O778 O 0.88559 0.61302 0.28518 0.0
H779 H 0.74787 0.62763 0.22351 0.0
H780 H 0.83704 0.67559 0.27814 0.0
H781 H 0.92996 0.64283 0.22802 0.0
H782 H 0.82292 0.63039 0.22554 0.0
H783 H 0.8405 0.64116 0.27785 0.0
O784 O 0.8799 0.55164 0.23293 0.0
H785 H 0.97345 0.57972 0.19426 0.0
H786 H 0.94173 0.53052 0.22886 0.0
H787 H 0.92722 0.67727 0.22764 0.0
H788 H 0.75084 0.58852 0.2762 0.0
H789 H 0.88049 0.69387 0.25283 0.0
H790 H 0.71131 0.6066 0.249 0.0
O791 O 0.94869 0.61473 0.2538 0.0
H792 H 0.92393 0.53881 0.30544 0.0
H793 H 0.00978 0.56258 0.24582 0.0
H794 H 0.0425 0.54788 0.2775 0.0
H795 H 0.99948 0.53585 0.30759 0.0
H796 H 0.89247 0.55374 0.27355 0.0
H797 H 0.98158 0.51137 0.20322 0.0
H798 H 0.01814 0.52669 0.17275 0.0
O799 O 0.96844 0.59031 0.23341 0.0
C800 C 0.89068 0.60129 0.20497 0.0
C801 C 0.99821 0.55429 0.18159 0.0
C802 C 0.98002 0.52636 0.20115 0.0
N803 N 0.95554 0.55623 0.21314 0.0
C804 C 0.97537 0.56476 0.19635 0.0
C805 C 0.95744 0.53728 0.21559 0.0
C806 C 0.00054 0.53497 0.18406 0.0
C807 C 0.8089 0.5996 0.26577 0.0
N808 N 0.8288 0.61116 0.25164 0.0
C809 C 0.7664 0.59778 0.26505 0.0
C810 C 0.74425 0.60789 0.24976 0.0
C811 C 0.76475 0.61968 0.23543 0.0
C812 C 0.80728 0.62113 0.2366 0.0
C813 C 0.85746 0.66852 0.26706 0.0
C814 C 0.90938 0.64996 0.23894 0.0
C815 C 0.85962 0.64903 0.26685 0.0
N816 N 0.88517 0.64001 0.25281 0.0
C817 C 0.90804 0.66946 0.23869 0.0
C818 C 0.88184 0.67877 0.25285 0.0
C819 C 0.97582 0.60551 0.2435 0.0
C820 C 0.94299 0.54393 0.2924 0.0
C821 C 0.99084 0.5574 0.25886 0.0
C822 C 0.00955 0.54906 0.27674 0.0
C823 C 0.98539 0.5423 0.29361 0.0
N824 N 0.94922 0.55892 0.25777 0.0
C825 C 0.92534 0.55233 0.27425 0.0
Co826 Co 0.85968 0.61311 0.50326 0.0
Co827 Co 0.82584 0.5715 0.52338 0.0
O828 O 0.85816 0.58595 0.50287 0.0
C829 C 0.84148 0.60391 0.45767 0.0
O830 O 0.81047 0.59404 0.46486 0.0
C831 C 0.90748 0.55371 0.52405 0.0
O832 O 0.92323 0.57016 0.52841 0.0
O833 O 0.85348 0.58423 0.54804 0.0
O834 O 0.85576 0.61375 0.53574 0.0
H835 H 0.73942 0.56185 0.58972 0.0
H836 H 0.92446 0.59212 0.48009 0.0
O837 O 0.86406 0.61289 0.47088 0.0
H838 H 0.99685 0.62976 0.53492 0.0
H839 H 0.90885 0.6761 0.47802 0.0
H840 H 0.81412 0.64268 0.52663 0.0
H841 H 0.92184 0.6316 0.53143 0.0
H842 H 0.90734 0.64164 0.47877 0.0
O843 O 0.8689 0.5517 0.52268 0.0
H844 H 0.77891 0.58025 0.56319 0.0
H845 H 0.8068 0.53095 0.52791 0.0
H846 H 0.81484 0.67715 0.52654 0.0
H847 H 0.99953 0.58998 0.4829 0.0
H848 H 0.86248 0.69408 0.50211 0.0
H849 H 0.03622 0.60886 0.51051 0.0
O850 O 0.79904 0.61402 0.50123 0.0
H851 H 0.82042 0.53923 0.45113 0.0
H852 H 0.73884 0.56328 0.51223 0.0
H853 H 0.70385 0.54874 0.48113 0.0
H854 H 0.74471 0.53656 0.4503 0.0
H855 H 0.85416 0.55404 0.48243 0.0
H856 H 0.76786 0.51199 0.55415 0.0
H857 H 0.7337 0.52746 0.58528 0.0
O858 O 0.78153 0.59085 0.52395 0.0
C859 C 0.85791 0.60176 0.55106 0.0
C860 C 0.75406 0.55496 0.57619 0.0
C861 C 0.77007 0.52697 0.55624 0.0
N862 N 0.79483 0.5567 0.54393 0.0
C863 C 0.77636 0.56531 0.56108 0.0
C864 C 0.79214 0.53777 0.54146 0.0
C865 C 0.75089 0.53566 0.5737 0.0
C866 C 0.94024 0.60052 0.492 0.0
N867 N 0.91881 0.61204 0.5055 0.0
C868 C 0.98274 0.59919 0.49358 0.0
C869 C 0.00329 0.60976 0.5091 0.0
C870 C 0.98122 0.62148 0.52281 0.0
C871 C 0.93874 0.62243 0.52079 0.0
C872 C 0.88803 0.66888 0.48878 0.0
C873 C 0.83513 0.64996 0.51607 0.0
C874 C 0.88699 0.64938 0.48925 0.0
N875 N 0.86096 0.64018 0.50289 0.0
C876 C 0.83531 0.66947 0.51604 0.0
C877 C 0.86201 0.67896 0.5023 0.0
C878 C 0.77276 0.60521 0.51258 0.0
C879 C 0.80228 0.54442 0.46449 0.0
C880 C 0.75685 0.55806 0.49886 0.0
C881 C 0.73686 0.5498 0.48131 0.0
C882 C 0.7598 0.54296 0.46403 0.0
N883 N 0.79855 0.55943 0.49922 0.0
C884 C 0.82124 0.55275 0.48232 0.0
Co885 Co 0.89081 0.13671 0.50281 0.0
Co886 Co 0.92003 0.17959 0.52286 0.0
O887 O 0.88907 0.16401 0.50269 0.0
C888 C 0.90892 0.14769 0.45792 0.0
O889 O 0.93394 0.16021 0.46597 0.0
C890 C 0.83522 0.19405 0.52412 0.0
O891 O 0.82228 0.17672 0.5253 0.0
O892 O 0.89724 0.16551 0.54794 0.0
O893 O 0.8927 0.13611 0.53529 0.0
H894 H 0.01058 0.1916 0.58709 0.0
H895 H 0.82548 0.15588 0.47802 0.0
O896 O 0.88912 0.13673 0.47033 0.0
H897 H 0.75351 0.1171 0.53193 0.0
H898 H 0.85033 0.07269 0.47671 0.0
H899 H 0.93821 0.1082 0.52691 0.0
H900 H 0.82884 0.11705 0.53001 0.0
H901 H 0.84786 0.10713 0.47753 0.0
O902 O 0.87334 0.19758 0.52412 0.0
H903 H 0.97234 0.17213 0.56106 0.0
H904 H 0.93144 0.22072 0.52809 0.0
H905 H 0.94146 0.07377 0.52675 0.0
H906 H 0.75011 0.15619 0.47923 0.0
H907 H 0.89728 0.05579 0.50152 0.0
H908 H 0.71364 0.13675 0.50638 0.0
O909 O 0.95141 0.13703 0.50184 0.0
H910 H 0.91118 0.21358 0.45178 0.0
H911 H 0.00366 0.19192 0.50961 0.0
H912 H 0.03217 0.20865 0.47814 0.0
H913 H 0.98578 0.21966 0.44896 0.0
H914 H 0.88406 0.19657 0.48338 0.0
H915 H 0.96897 0.24072 0.55385 0.0
H916 H 0.00904 0.22616 0.58356 0.0
O917 O 0.96807 0.16222 0.52165 0.0
C918 C 0.89214 0.14799 0.55075 0.0
C919 C 0.99334 0.19811 0.57417 0.0
C920 C 0.96994 0.22568 0.55554 0.0
N921 N 0.94996 0.19527 0.54299 0.0
C922 C 0.97172 0.18715 0.55936 0.0
C923 C 0.94867 0.21428 0.54103 0.0
C924 C 0.99243 0.2175 0.57219 0.0
C925 C 0.80982 0.14721 0.48971 0.0
N926 N 0.83153 0.1364 0.50386 0.0
C927 C 0.76714 0.14752 0.49039 0.0
C928 C 0.7467 0.13663 0.50566 0.0
C929 C 0.76906 0.12562 0.52002 0.0
C930 C 0.81171 0.1257 0.5189 0.0
C931 C 0.86965 0.08037 0.48783 0.0
C932 C 0.91867 0.10046 0.51601 0.0
C933 C 0.86841 0.09987 0.48834 0.0
N934 N 0.89255 0.10964 0.50242 0.0
C935 C 0.92075 0.08097 0.51593 0.0
C936 C 0.89599 0.07089 0.50175 0.0
C937 C 0.97746 0.14718 0.51171 0.0
C938 C 0.9317 0.2089 0.46442 0.0
C939 C 0.98332 0.19653 0.49692 0.0
C940 C -0.00039 0.20608 0.47917 0.0
C941 C 0.97356 0.21227 0.46282 0.0
N942 N 0.94224 0.19326 0.49836 0.0
C943 C 0.9165 0.19934 0.48242 0.0
Co944 Co 0.64017 0.36282 0.75244 0.0
Co945 Co 0.67645 0.32142 0.77259 0.0
O946 O 0.64295 0.33562 0.75229 0.0
C947 C 0.65809 0.3528 0.70706 0.0
O948 O 0.6867 0.34176 0.71469 0.0
C949 C 0.59519 0.3032 0.77418 0.0
O950 O 0.57908 0.31966 0.77808 0.0
O951 O 0.64998 0.3342 0.79754 0.0
O952 O 0.64318 0.36351 0.78499 0.0
H953 H 0.76627 0.31266 0.83782 0.0
H954 H 0.57719 0.34096 0.72899 0.0
O955 O 0.63677 0.36269 0.71997 0.0
H956 H 0.50132 0.37801 0.783 0.0
H957 H 0.58873 0.42528 0.72677 0.0
H958 H 0.68331 0.39287 0.77631 0.0
H959 H 0.57627 0.38078 0.77998 0.0
H960 H 0.5919 0.39085 0.72752 0.0
O961 O 0.63379 0.30141 0.77274 0.0
H962 H 0.72523 0.33068 0.81164 0.0
H963 H 0.69648 0.28098 0.77727 0.0
H964 H 0.68088 0.42732 0.77624 0.0
H965 H 0.5022 0.33788 0.73133 0.0
H966 H 0.63332 0.44374 0.75133 0.0
H967 H 0.46377 0.35645 0.75852 0.0
O968 O 0.70082 0.36447 0.75064 0.0
H969 H 0.67884 0.28788 0.70105 0.0
H970 H 0.76304 0.31378 0.76013 0.0
H971 H 0.79673 0.29894 0.72883 0.0
H972 H 0.75455 0.28582 0.69902 0.0
H973 H 0.6464 0.30304 0.73249 0.0
H974 H 0.737 0.2624 0.80316 0.0
H975 H 0.77237 0.27826 0.83366 0.0
O976 O 0.72027 0.34095 0.7724 0.0
C977 C 0.64346 0.35162 0.80045 0.0
C978 C 0.75112 0.30559 0.82456 0.0
C979 C 0.73464 0.27738 0.80512 0.0
N980 N 0.70874 0.30692 0.79285 0.0
C981 C 0.72792 0.31573 0.80965 0.0
C982 C 0.71167 0.28797 0.79054 0.0
C983 C 0.75449 0.28629 0.82223 0.0
C984 C 0.56064 0.34922 0.74073 0.0
N985 N 0.58107 0.36109 0.75427 0.0
C986 C 0.5182 0.34736 0.74204 0.0
C987 C 0.49666 0.35776 0.75732 0.0
C988 C 0.51772 0.36985 0.77107 0.0
C989 C 0.56017 0.37132 0.76933 0.0
C990 C 0.60952 0.41828 0.73772 0.0
C991 C 0.66237 0.39992 0.76553 0.0
C992 C 0.61152 0.3988 0.73818 0.0
N993 N 0.63754 0.38988 0.75207 0.0
C994 C 0.66121 0.41943 0.76551 0.0
C995 C 0.63454 0.42863 0.75151 0.0
C996 C 0.72784 0.35571 0.76152 0.0
C997 C 0.69755 0.29348 0.71398 0.0
C998 C 0.74445 0.30818 0.74719 0.0
C999 C 0.76371 0.29974 0.72953 0.0
C1000 C 0.74003 0.29236 0.71283 0.0
N1001 N 0.70276 0.30922 0.7482 0.0
C1002 C 0.67934 0.302 0.73189 0.0
Co1003 Co 0.60899 0.88805 0.7529 0.0
Co1004 Co 0.57375 0.92974 0.77284 0.0
O1005 O 0.60679 0.91523 0.75265 0.0
C1006 C 0.59013 0.89724 0.70726 0.0
O1007 O 0.55909 0.90706 0.71447 0.0
C1008 C 0.656 0.94655 0.77419 0.0
O1009 O 0.6704 0.92957 0.77672 0.0
O1010 O 0.599 0.91667 0.79795 0.0
O1011 O 0.6058 0.88736 0.78542 0.0
H1012 H 0.4829 0.93934 0.83752 0.0
H1013 H 0.67273 0.90931 0.72918 0.0
O1014 O 0.61279 0.88831 0.72047 0.0
H1015 H 0.74738 0.87219 0.78358 0.0
H1016 H 0.65922 0.82538 0.72724 0.0
H1017 H 0.56514 0.85818 0.77671 0.0
H1018 H 0.67235 0.86997 0.78067 0.0
H1019 H 0.65671 0.85982 0.72798 0.0
O1020 O 0.61758 0.94927 0.77347 0.0
H1021 H 0.52358 0.92093 0.81153 0.0
H1022 H 0.5558 0.97037 0.77755 0.0
H1023 H 0.56689 0.82372 0.77664 0.0
H1024 H 0.74781 0.91178 0.73135 0.0
H1025 H 0.6142 0.8071 0.75177 0.0
H1026 H 0.78564 0.89319 0.75876 0.0
O1027 O 0.54826 0.88668 0.75114 0.0
H1028 H 0.57461 0.96264 0.70092 0.0
H1029 H 0.48792 0.93856 0.76003 0.0
H1030 H 0.45566 0.95353 0.72839 0.0
H1031 H 0.4991 0.96572 0.69856 0.0
H1032 H 0.6056 0.94743 0.73276 0.0
H1033 H 0.51571 0.98935 0.80325 0.0
H1034 H 0.47878 0.97381 0.83345 0.0
O1035 O 0.52899 0.91068 0.77227 0.0
C1036 C 0.60531 0.89925 0.80088 0.0
C1037 C 0.49874 0.94626 0.82438 0.0
C1038 C 0.51721 0.97433 0.80517 0.0
N1039 N 0.54177 0.94455 0.79295 0.0
C1040 C 0.52173 0.93591 0.80958 0.0
C1041 C 0.53993 0.96352 0.79069 0.0
C1042 C 0.49648 0.96561 0.82211 0.0
C1043 C 0.68899 0.90101 0.74099 0.0
N1044 N 0.66815 0.88947 0.75475 0.0
C1045 C 0.7315 0.90254 0.74221 0.0
C1046 C 0.7527 0.89213 0.75762 0.0
C1047 C 0.73125 0.88037 0.77157 0.0
C1048 C 0.68873 0.87922 0.7699 0.0
C1049 C 0.63853 0.83246 0.73818 0.0
C1050 C 0.58597 0.85104 0.76594 0.0
C1051 C 0.63691 0.85195 0.73863 0.0
N1052 N 0.61103 0.86098 0.7525 0.0
C1053 C 0.58675 0.83153 0.76593 0.0
C1054 C 0.61327 0.82221 0.75195 0.0
C1055 C 0.52126 0.89581 0.76163 0.0
C1056 C 0.55536 0.95745 0.71385 0.0
C1057 C 0.50705 0.9438 0.74711 0.0
C1058 C 0.4886 0.9523 0.72925 0.0
C1059 C 0.51299 0.95914 0.71252 0.0
N1060 N 0.54864 0.94222 0.74831 0.0
C1061 C 0.57275 0.94889 0.73197 0.0
Co1062 Co 0.64031 0.88924 0.5022 0.0
Co1063 Co 0.67622 0.93153 0.48358 0.0
O1064 O 0.64255 0.91644 0.50295 0.0
C1065 C 0.65996 0.8979 0.54789 0.0
O1066 O 0.69063 0.90799 0.5407 0.0
C1067 C 0.59315 0.94749 0.48094 0.0
O1068 O 0.57934 0.93039 0.47855 0.0
O1069 O 0.65389 0.9183 0.4577 0.0
O1070 O 0.64271 0.8891 0.46976 0.0
H1071 H 0.77222 0.94257 0.42136 0.0
H1072 H 0.57739 0.91027 0.52677 0.0
O1073 O 0.63731 0.889 0.53464 0.0
H1074 H 0.50098 0.87402 0.47223 0.0
H1075 H 0.59026 0.82624 0.52694 0.0
H1076 H 0.68333 0.8597 0.47748 0.0
H1077 H 0.57606 0.87163 0.47459 0.0
H1078 H 0.59295 0.86068 0.52686 0.0
O1079 O 0.63143 0.9505 0.482 0.0
H1080 H 0.73043 0.92353 0.44625 0.0
H1081 H 0.69196 0.97243 0.47943 0.0
H1082 H 0.6814 0.82525 0.47691 0.0
H1083 H 0.5023 0.9129 0.52516 0.0
H1084 H 0.63459 0.80829 0.50177 0.0
H1085 H 0.46358 0.89474 0.49768 0.0
O1086 O 0.7011 0.88764 0.50346 0.0
H1087 H 0.66683 0.96362 0.55582 0.0
H1088 H 0.76013 0.94193 0.49838 0.0
H1089 H 0.78854 0.95712 0.53091 0.0
H1090 H 0.74174 0.9681 0.55991 0.0
H1091 H 0.63975 0.94821 0.52311 0.0
H1092 H 0.73309 0.99201 0.4548 0.0
H1093 H 0.77373 0.97707 0.42557 0.0
O1094 O 0.72198 0.91311 0.48525 0.0
C1095 C 0.64555 0.90107 0.45449 0.0
C1096 C 0.75474 0.94924 0.43408 0.0
C1097 C 0.73273 0.97699 0.45283 0.0
N1098 N 0.70901 0.94684 0.46435 0.0
C1099 C 0.73111 0.93852 0.44825 0.0
C1100 C 0.70942 0.96583 0.46669 0.0
C1101 C 0.75554 0.9686 0.43643 0.0
C1102 C 0.56075 0.90217 0.51492 0.0
N1103 N 0.58112 0.89078 0.50081 0.0
C1104 C 0.51823 0.90378 0.51403 0.0
C1105 C 0.49654 0.89362 0.49857 0.0
C1106 C 0.51751 0.882 0.48427 0.0
C1107 C 0.56005 0.88076 0.48562 0.0
C1108 C 0.61072 0.83347 0.516 0.0
C1109 C 0.66271 0.85242 0.48825 0.0
C1110 C 0.61244 0.85296 0.51592 0.0
N1111 N 0.63803 0.86218 0.50205 0.0
C1112 C 0.66183 0.83291 0.4879 0.0
C1113 C 0.63559 0.82341 0.50187 0.0
C1114 C 0.72896 0.89752 0.49455 0.0
C1115 C 0.68752 0.95894 0.54327 0.0
C1116 C 0.73958 0.94661 0.51095 0.0
C1117 C 0.75584 0.95525 0.52931 0.0
C1118 C 0.72956 0.96142 0.54557 0.0
N1119 N 0.69831 0.94422 0.50879 0.0
C1120 C 0.67236 0.95027 0.52466 0.0
Co1121 Co 0.60823 0.36142 0.50227 0.0
Co1122 Co 0.57159 0.31992 0.48244 0.0
O1123 O 0.60512 0.33421 0.50268 0.0
C1124 C 0.58985 0.35179 0.54774 0.0
O1125 O 0.56129 0.34066 0.54022 0.0
C1126 C 0.65273 0.30166 0.48114 0.0
O1127 O 0.66892 0.3181 0.47718 0.0
O1128 O 0.59825 0.33251 0.45739 0.0
O1129 O 0.60561 0.36186 0.46972 0.0
H1130 H 0.48185 0.31083 0.41723 0.0
H1131 H 0.67067 0.33958 0.52608 0.0
O1132 O 0.61131 0.36154 0.53475 0.0
H1133 H 0.74762 0.37618 0.47206 0.0
H1134 H 0.6601 0.42399 0.52746 0.0
H1135 H 0.56567 0.39135 0.47798 0.0
H1136 H 0.67268 0.37912 0.47482 0.0
H1137 H 0.65657 0.38956 0.52705 0.0
O1138 O 0.61411 0.29987 0.4825 0.0
H1139 H 0.52296 0.32898 0.44329 0.0
H1140 H 0.55131 0.27947 0.47807 0.0
H1141 H 0.56846 0.42579 0.47771 0.0
H1142 H 0.74565 0.33632 0.52401 0.0
H1143 H 0.61595 0.44233 0.50259 0.0
H1144 H 0.78462 0.35468 0.4968 0.0
O1145 O 0.54757 0.36317 0.50391 0.0
H1146 H 0.56871 0.28686 0.55428 0.0
H1147 H 0.4849 0.31243 0.49488 0.0
H1148 H 0.45099 0.29785 0.52628 0.0
H1149 H 0.49297 0.2849 0.55625 0.0
H1150 H 0.60137 0.30177 0.52272 0.0
H1151 H 0.51072 0.26076 0.45231 0.0
H1152 H 0.47552 0.27646 0.42166 0.0
O1153 O 0.52791 0.33948 0.48242 0.0
C1154 C 0.60521 0.34988 0.45435 0.0
C1155 C 0.49693 0.30383 0.43056 0.0
C1156 C 0.51319 0.27573 0.45022 0.0
N1157 N 0.53926 0.30531 0.46227 0.0
C1158 C 0.52017 0.31404 0.4454 0.0
C1159 C 0.5362 0.28639 0.46473 0.0
C1160 C 0.49343 0.28455 0.43304 0.0
C1161 C 0.68746 0.34773 0.51434 0.0
N1162 N 0.66733 0.35957 0.50064 0.0
C1163 C 0.72989 0.34578 0.51318 0.0
C1164 C 0.75173 0.35606 0.49789 0.0
C1165 C 0.73098 0.36811 0.48399 0.0
C1166 C 0.68853 0.36968 0.48558 0.0
C1167 C 0.63934 0.41694 0.51652 0.0
C1168 C 0.58658 0.39845 0.48876 0.0
C1169 C 0.63714 0.39745 0.51625 0.0
N1170 N 0.61116 0.38847 0.50238 0.0
C1171 C 0.58795 0.41795 0.48858 0.0
C1172 C 0.61457 0.42722 0.50255 0.0
C1173 C 0.52047 0.35433 0.49315 0.0
C1174 C 0.55008 0.29239 0.54128 0.0
C1175 C 0.50341 0.3069 0.50789 0.0
C1176 C 0.48402 0.29861 0.5256 0.0
C1177 C 0.50759 0.29133 0.5424 0.0
N1178 N 0.54511 0.3079 0.5069 0.0
C1179 C 0.56842 0.30076 0.52331 0.0
Co1180 Co 0.35661 0.63799 0.25285 0.0
Co1181 Co 0.32522 0.68003 0.23253 0.0
O1182 O 0.35659 0.66518 0.25313 0.0
C1183 C 0.33855 0.64749 0.29841 0.0
O1184 O 0.30821 0.65775 0.2912 0.0
C1185 C 0.40825 0.69612 0.23231 0.0
O1186 O 0.42211 0.67904 0.22993 0.0
O1187 O 0.35152 0.66677 0.20789 0.0
O1188 O 0.35304 0.63729 0.22035 0.0
H1189 H 0.23863 0.69046 0.16643 0.0
H1190 H 0.42236 0.65797 0.27653 0.0
O1191 O 0.36059 0.63822 0.28523 0.0
H1192 H 0.49322 0.61979 0.22169 0.0
H1193 H 0.40197 0.57452 0.2784 0.0
H1194 H 0.30966 0.60888 0.22942 0.0
H1195 H 0.41806 0.61894 0.22476 0.0
H1196 H 0.40237 0.60898 0.27757 0.0
O1197 O 0.36992 0.69915 0.23261 0.0
H1198 H 0.27704 0.67168 0.19303 0.0
H1199 H 0.30924 0.72082 0.22762 0.0
H1200 H 0.30847 0.57442 0.22959 0.0
H1201 H 0.49759 0.65906 0.27419 0.0
H1202 H 0.35489 0.55701 0.25421 0.0
H1203 H 0.53351 0.63992 0.24656 0.0
O1204 O 0.29597 0.63775 0.25471 0.0
H1205 H 0.32358 0.71289 0.30446 0.0
H1206 H 0.23911 0.68968 0.24401 0.0
H1207 H 0.20581 0.70496 0.27514 0.0
H1208 H 0.24814 0.71672 0.30564 0.0
H1209 H 0.35561 0.69737 0.27311 0.0
H1210 H 0.27144 0.74015 0.20131 0.0
H1211 H 0.23565 0.72495 0.1705 0.0
O1212 O 0.27939 0.66136 0.2324 0.0
C1213 C 0.35543 0.64921 0.20497 0.0
C1214 C 0.25398 0.69724 0.17983 0.0
C1215 C 0.27244 0.72513 0.19939 0.0
N1216 N 0.29505 0.69513 0.21195 0.0
C1217 C 0.27567 0.68667 0.19497 0.0
C1218 C 0.29386 0.71411 0.21421 0.0
C1219 C 0.25236 0.71659 0.18211 0.0
C1220 C 0.43778 0.64943 0.26463 0.0
N1221 N 0.41583 0.63835 0.25086 0.0
C1222 C 0.48038 0.65018 0.26331 0.0
C1223 C 0.50051 0.63947 0.24778 0.0
C1224 C 0.47791 0.62818 0.2338 0.0
C1225 C 0.43535 0.62781 0.23557 0.0
C1226 C 0.38168 0.58194 0.26756 0.0
C1227 C 0.33013 0.60139 0.24007 0.0
C1228 C 0.38172 0.60145 0.26705 0.0
N1229 N 0.35635 0.61091 0.2533 0.0
C1230 C 0.32923 0.58188 0.24014 0.0
C1231 C 0.35526 0.57213 0.25398 0.0
C1232 C 0.27005 0.64697 0.24359 0.0
C1233 C 0.30482 0.70789 0.29124 0.0
C1234 C 0.25775 0.69473 0.25723 0.0
C1235 C 0.23872 0.7034 0.2748 0.0
C1236 C 0.26248 0.71 0.2919 0.0
N1237 N 0.29931 0.69272 0.25668 0.0
C1238 C 0.3228 0.69916 0.27339 0.0
Co1239 Co 0.39071 0.1143 0.25383 0.0
Co1240 Co 0.42107 0.07212 0.2332 0.0
O1241 O 0.39009 0.08704 0.25397 0.0
C1242 C 0.4082 0.10378 0.29902 0.0
O1243 O 0.43528 0.09205 0.29122 0.0
C1244 C 0.33778 0.05619 0.23317 0.0
O1245 O 0.32387 0.07331 0.23127 0.0
O1246 O 0.39475 0.08556 0.20874 0.0
O1247 O 0.39359 0.11501 0.22128 0.0
H1248 H 0.50689 0.06171 0.16681 0.0
H1249 H 0.32515 0.09458 0.27788 0.0
O1250 O 0.38778 0.11419 0.28627 0.0
H1251 H 0.25381 0.13308 0.22352 0.0
H1252 H 0.34739 0.17797 0.27971 0.0
H1253 H 0.43789 0.14319 0.23018 0.0
H1254 H 0.32904 0.13366 0.22615 0.0
H1255 H 0.34609 0.14351 0.27882 0.0
O1256 O 0.3761 0.05315 0.2332 0.0
H1257 H 0.46898 0.08049 0.19361 0.0
H1258 H 0.43643 0.0313 0.22801 0.0
H1259 H 0.43996 0.17765 0.2304 0.0
H1260 H 0.24985 0.09373 0.27596 0.0
H1261 H 0.39445 0.19526 0.2553 0.0
H1262 H 0.21369 0.11303 0.24857 0.0
O1263 O 0.45129 0.11426 0.25541 0.0
H1264 H 0.42249 0.03823 0.3045 0.0
H1265 H 0.50716 0.06232 0.24458 0.0
H1266 H 0.54035 0.04656 0.27542 0.0
H1267 H 0.49792 0.03435 0.30565 0.0
H1268 H 0.39059 0.05428 0.27348 0.0
H1269 H 0.47374 0.01197 0.2015 0.0
H1270 H 0.50944 0.02719 0.17067 0.0
O1271 O 0.46726 0.09062 0.23304 0.0
C1272 C 0.39095 0.10313 0.20589 0.0
C1273 C 0.49157 0.05492 0.18021 0.0
C1274 C 0.47292 0.027 0.19966 0.0
N1275 N 0.45082 0.05701 0.21245 0.0
C1276 C 0.47015 0.06548 0.19546 0.0
C1277 C 0.45178 0.03801 0.2146 0.0
C1278 C 0.49296 0.03555 0.18238 0.0
C1279 C 0.30962 0.10318 0.26609 0.0
N1280 N 0.33147 0.11421 0.25221 0.0
C1281 C 0.26698 0.10257 0.265 0.0
C1282 C 0.24672 0.11338 0.24961 0.0
C1283 C 0.26921 0.12461 0.23553 0.0
C1284 C 0.31182 0.12484 0.23706 0.0
C1285 C 0.36728 0.17045 0.26875 0.0
C1286 C 0.4178 0.15077 0.24094 0.0
C1287 C 0.36673 0.15095 0.2682 0.0
N1288 N 0.39159 0.14138 0.2543 0.0
C1289 C 0.4192 0.17027 0.24105 0.0
C1290 C 0.39369 0.18015 0.25504 0.0
C1291 C 0.47692 0.105 0.24417 0.0
C1292 C 0.4413 0.04343 0.29139 0.0
C1293 C 0.48848 0.05712 0.2577 0.0
C1294 C 0.50745 0.04815 0.2751 0.0
C1295 C 0.48362 0.04129 0.29204 0.0
N1296 N 0.44694 0.05917 0.25718 0.0
C1297 C 0.42338 0.05244 0.27372 0.0
Co1298 Co 0.35937 0.11374 0.50371 0.0
Co1299 Co 0.32582 0.07137 0.52264 0.0
O1300 O 0.35843 0.08651 0.50289 0.0
C1301 C 0.34131 0.10421 0.45835 0.0
O1302 O 0.31314 0.09292 0.46598 0.0
C1303 C 0.4085 0.05438 0.52405 0.0
O1304 O 0.42378 0.07097 0.52823 0.0
O1305 O 0.35091 0.08421 0.54805 0.0
O1306 O 0.35627 0.11381 0.53616 0.0
H1307 H 0.23525 0.06006 0.58704 0.0
H1308 H 0.42371 0.09335 0.47952 0.0
O1309 O 0.36251 0.11415 0.47127 0.0
H1310 H 0.4972 0.13012 0.53472 0.0
H1311 H 0.40706 0.17725 0.47943 0.0
H1312 H 0.31397 0.14283 0.52799 0.0
H1313 H 0.42208 0.13186 0.53184 0.0
H1314 H 0.40611 0.14278 0.47952 0.0
O1315 O 0.37002 0.05213 0.52264 0.0
H1316 H 0.27542 0.07918 0.56149 0.0
H1317 H 0.30921 0.03051 0.52647 0.0
H1318 H 0.31413 0.17729 0.52855 0.0
H1319 H 0.49888 0.09131 0.48172 0.0
H1320 H 0.36095 0.19473 0.50414 0.0
H1321 H 0.53611 0.10975 0.50951 0.0
O1322 O 0.29875 0.11468 0.50218 0.0
H1323 H 0.32826 0.03942 0.45015 0.0
H1324 H 0.2404 0.06167 0.50966 0.0
H1325 H 0.20889 0.04675 0.47778 0.0
H1326 H 0.25294 0.03546 0.44774 0.0
H1327 H 0.35843 0.05466 0.48218 0.0
H1328 H 0.26966 0.01085 0.55174 0.0
H1329 H 0.23219 0.02564 0.58224 0.0
O1330 O 0.28022 0.09005 0.52246 0.0
C1331 C 0.35652 0.10166 0.55132 0.0
C1332 C 0.25134 0.05346 0.57378 0.0
C1333 C 0.27071 0.02584 0.55398 0.0
N1334 N 0.29437 0.05599 0.54242 0.0
C1335 C 0.27405 0.06422 0.55923 0.0
C1336 C 0.29313 0.03704 0.53976 0.0
C1337 C 0.24967 0.03415 0.57108 0.0
C1338 C 0.43973 0.10156 0.49151 0.0
N1339 N 0.41856 0.11279 0.50545 0.0
C1340 C 0.48228 0.10028 0.49274 0.0
C1341 C 0.50314 0.11061 0.50837 0.0
C1342 C 0.48133 0.12203 0.52253 0.0
C1343 C 0.43879 0.12293 0.52085 0.0
C1344 C 0.38662 0.16981 0.49018 0.0
C1345 C 0.33464 0.15033 0.51744 0.0
C1346 C 0.3859 0.1503 0.49029 0.0
N1347 N 0.36033 0.14082 0.50392 0.0
C1348 C 0.3345 0.16984 0.51778 0.0
C1349 C 0.36074 0.17961 0.50406 0.0
C1350 C 0.27198 0.10517 0.51239 0.0
C1351 C 0.30874 0.04424 0.46315 0.0
C1352 C 0.25975 0.05693 0.49661 0.0
C1353 C 0.24175 0.04841 0.47863 0.0
C1354 C 0.26648 0.04206 0.4618 0.0
N1355 N 0.30122 0.05905 0.49782 0.0
C1356 C 0.32567 0.0528 0.48139 0.0
Co1357 Co 0.39097 0.63795 0.50311 0.0
Co1358 Co 0.42511 0.67946 0.52332 0.0
O1359 O 0.39272 0.6651 0.50276 0.0
C1360 C 0.40918 0.64709 0.45748 0.0
O1361 O 0.44042 0.65685 0.46461 0.0
C1362 C 0.34367 0.69742 0.52388 0.0
O1363 O 0.32779 0.68098 0.52821 0.0
O1364 O 0.39723 0.66677 0.54794 0.0
O1365 O 0.39492 0.63727 0.53559 0.0
H1366 H 0.51137 0.68885 0.58977 0.0
H1367 H 0.32632 0.65907 0.48 0.0
O1368 O 0.38652 0.63821 0.47074 0.0
H1369 H 0.2537 0.6215 0.53481 0.0
H1370 H 0.34121 0.57506 0.47783 0.0
H1371 H 0.43632 0.60827 0.52642 0.0
H1372 H 0.32869 0.61953 0.53129 0.0
H1373 H 0.34302 0.60952 0.47861 0.0
O1374 O 0.38227 0.69937 0.52259 0.0
H1375 H 0.47179 0.67056 0.56317 0.0
H1376 H 0.44457 0.71997 0.52793 0.0
H1377 H 0.4353 0.57381 0.52631 0.0
H1378 H 0.25128 0.66134 0.48285 0.0
H1379 H 0.38746 0.55698 0.50188 0.0
H1380 H 0.21448 0.6425 0.51045 0.0
O1381 O 0.4516 0.63695 0.50106 0.0
H1382 H 0.43123 0.71174 0.45109 0.0
H1383 H 0.51225 0.6875 0.51229 0.0
H1384 H 0.54754 0.70197 0.48124 0.0
H1385 H 0.50696 0.71425 0.45037 0.0
H1386 H 0.39717 0.697 0.48235 0.0
H1387 H 0.48362 0.73881 0.55424 0.0
H1388 H 0.51748 0.72323 0.58538 0.0
O1389 O 0.4692 0.66 0.52391 0.0
C1390 C 0.39275 0.64923 0.55093 0.0
C1391 C 0.49686 0.69579 0.57623 0.0
C1392 C 0.48124 0.72384 0.5563 0.0
N1393 N 0.4562 0.69417 0.54393 0.0
C1394 C 0.47451 0.6855 0.56108 0.0
C1395 C 0.45911 0.7131 0.54148 0.0
C1396 C 0.50025 0.71508 0.57377 0.0
C1397 C 0.31049 0.65069 0.49191 0.0
N1398 N 0.33185 0.63911 0.50538 0.0
C1399 C 0.26801 0.65209 0.4935 0.0
C1400 C 0.24739 0.64154 0.50902 0.0
C1401 C 0.26938 0.62977 0.5227 0.0
C1402 C 0.31185 0.62874 0.52066 0.0
C1403 C 0.36211 0.58223 0.48859 0.0
C1404 C 0.41524 0.60104 0.51586 0.0
C1405 C 0.36333 0.60174 0.48907 0.0
N1406 N 0.38947 0.61088 0.50271 0.0
C1407 C 0.41488 0.58153 0.51581 0.0
C1408 C 0.38806 0.5721 0.50209 0.0
C1409 C 0.4779 0.64567 0.51248 0.0
C1410 C 0.44924 0.7065 0.46448 0.0
C1411 C 0.49435 0.69277 0.4989 0.0
C1412 C 0.51452 0.70098 0.48138 0.0
C1413 C 0.49173 0.70788 0.46407 0.0
N1414 N 0.45265 0.69149 0.4992 0.0
C1415 C 0.43011 0.69821 0.48228 0.0
Co1416 Co 0.63957 0.8622 0.25311 0.0
Co1417 Co 0.67546 0.8207 0.27296 0.0
O1418 O 0.64211 0.83506 0.25284 0.0
C1419 C 0.65844 0.85315 0.20747 0.0
O1420 O 0.68977 0.84353 0.21468 0.0
C1421 C 0.59383 0.80294 0.27487 0.0
O1422 O 0.57836 0.81945 0.27922 0.0
O1423 O 0.64957 0.83352 0.29808 0.0
O1424 O 0.64306 0.86287 0.28563 0.0
H1425 H 0.76589 0.81126 0.33782 0.0
H1426 H 0.57601 0.84045 0.22991 0.0
O1427 O 0.63546 0.86191 0.22068 0.0
H1428 H 0.5013 0.87767 0.2842 0.0
H1429 H 0.58828 0.92472 0.22757 0.0
H1430 H 0.68318 0.8922 0.27684 0.0
H1431 H 0.57622 0.88028 0.28089 0.0
H1432 H 0.59126 0.89028 0.22831 0.0
O1433 O 0.63233 0.80091 0.27309 0.0
H1434 H 0.72495 0.82958 0.31188 0.0
H1435 H 0.69456 0.78016 0.27737 0.0
H1436 H 0.68096 0.92665 0.27676 0.0
H1437 H 0.50104 0.83753 0.23253 0.0
H1438 H 0.63323 0.94313 0.25199 0.0
H1439 H 0.46318 0.8562 0.25988 0.0
O1440 O 0.70031 0.86375 0.25119 0.0
H1441 H 0.67653 0.78822 0.20077 0.0
H1442 H 0.76172 0.8125 0.26037 0.0
H1443 H 0.79483 0.7979 0.22875 0.0
H1444 H 0.75215 0.78561 0.19867 0.0
H1445 H 0.64467 0.80308 0.23258 0.0
H1446 H 0.73497 0.76127 0.30303 0.0
H1447 H 0.77111 0.77684 0.33347 0.0
O1448 O 0.71962 0.84003 0.27272 0.0
C1449 C 0.64337 0.85096 0.30107 0.0
C1450 C 0.7504 0.80432 0.32458 0.0
C1451 C 0.73299 0.77626 0.30507 0.0
N1452 N 0.70766 0.80597 0.29304 0.0
C1453 C 0.72726 0.81463 0.30981 0.0
C1454 C 0.71009 0.78702 0.29062 0.0
C1455 C 0.75327 0.78501 0.32214 0.0
C1456 C 0.55972 0.84875 0.24171 0.0
N1457 N 0.58047 0.86057 0.25518 0.0
C1458 C 0.51728 0.84698 0.24318 0.0
C1459 C 0.49607 0.85743 0.25855 0.0
C1460 C 0.51744 0.86947 0.27222 0.0
C1461 C 0.55989 0.87085 0.27031 0.0
C1462 C 0.60915 0.9177 0.23846 0.0
C1463 C 0.66218 0.89927 0.26611 0.0
C1464 C 0.61104 0.89821 0.23891 0.0
N1465 N 0.63715 0.88926 0.25273 0.0
C1466 C 0.66113 0.91878 0.26609 0.0
C1467 C 0.63437 0.92802 0.25218 0.0
C1468 C 0.72733 0.85479 0.26188 0.0
C1469 C 0.69545 0.79346 0.21381 0.0
C1470 C 0.74291 0.80722 0.24734 0.0
C1471 C 0.76185 0.79893 0.22949 0.0
C1472 C 0.73788 0.79203 0.21263 0.0
N1473 N 0.70126 0.80855 0.2484 0.0
C1474 C 0.67757 0.80182 0.23192 0.0
Co1475 Co 0.61076 0.38787 0.25298 0.0
Co1476 Co 0.57448 0.42949 0.27238 0.0
O1477 O 0.60781 0.41499 0.25238 0.0
C1478 C 0.59099 0.39643 0.2073 0.0
O1479 O 0.55972 0.40608 0.21455 0.0
C1480 C 0.65606 0.4473 0.27406 0.0
O1481 O 0.67154 0.43085 0.27864 0.0
O1482 O 0.60052 0.41693 0.29765 0.0
O1483 O 0.60789 0.38751 0.28552 0.0
H1484 H 0.48421 0.43944 0.33721 0.0
H1485 H 0.67352 0.40963 0.2292 0.0
O1486 O 0.61427 0.38784 0.22052 0.0
H1487 H 0.74986 0.37312 0.2835 0.0
H1488 H 0.66248 0.32526 0.22797 0.0
H1489 H 0.56805 0.35798 0.27734 0.0
H1490 H 0.67492 0.37023 0.28061 0.0
H1491 H 0.65902 0.35969 0.22829 0.0
O1492 O 0.61756 0.44931 0.27222 0.0
H1493 H 0.52511 0.42091 0.31144 0.0
H1494 H 0.55527 0.47005 0.27634 0.0
H1495 H 0.57076 0.32354 0.27769 0.0
H1496 H 0.74849 0.41283 0.2314 0.0
H1497 H 0.61825 0.30696 0.25288 0.0
H1498 H 0.78716 0.39453 0.25875 0.0
O1499 O 0.55002 0.3861 0.25139 0.0
H1500 H 0.57294 0.46133 0.19982 0.0
H1501 H 0.48813 0.43747 0.2598 0.0
H1502 H 0.4548 0.45175 0.22805 0.0
H1503 H 0.49729 0.46384 0.19778 0.0
H1504 H 0.60501 0.44679 0.23176 0.0
H1505 H 0.51491 0.48913 0.30182 0.0
H1506 H 0.4789 0.47381 0.33247 0.0
O1507 O 0.53041 0.4101 0.27243 0.0
C1508 C 0.60732 0.39957 0.30081 0.0
C1509 C 0.49964 0.44627 0.32388 0.0
C1510 C 0.51693 0.47417 0.30403 0.0
N1511 N 0.5423 0.44437 0.29232 0.0
C1512 C 0.52276 0.43584 0.3092 0.0
C1513 C 0.53981 0.46329 0.28969 0.0
C1514 C 0.49672 0.46556 0.32122 0.0
C1515 C 0.69016 0.40149 0.24101 0.0
N1516 N 0.66986 0.38971 0.25471 0.0
C1517 C 0.7326 0.40342 0.24224 0.0
C1518 C 0.75427 0.39317 0.25761 0.0
C1519 C 0.73335 0.38117 0.27151 0.0
C1520 C 0.6909 0.37962 0.26984 0.0
C1521 C 0.64172 0.33233 0.23889 0.0
C1522 C 0.58896 0.35086 0.26659 0.0
C1523 C 0.63956 0.35181 0.2391 0.0
N1524 N 0.61358 0.36082 0.25294 0.0
C1525 C 0.59028 0.33136 0.26682 0.0
C1526 C 0.6169 0.32206 0.25287 0.0
C1527 C 0.52291 0.39513 0.26193 0.0
C1528 C 0.5541 0.45618 0.21294 0.0
C1529 C 0.50685 0.44266 0.24668 0.0
C1530 C 0.48779 0.45077 0.22876 0.0
C1531 C 0.51165 0.45755 0.21179 0.0
N1532 N 0.54851 0.44139 0.24771 0.0
C1533 C 0.57209 0.448 0.23112 0.0
Co1534 Co 0.63729 0.3889 1.00167 0.0
Co1535 Co 0.67484 0.431 0.98365 0.0
O1536 O 0.6404 0.41605 1.0027 0.0
C1537 C 0.65709 0.39703 0.04743 0.0
O1538 O 0.68815 0.40687 0.04026 0.0
C1539 C 0.59275 0.44818 0.9804 0.0
O1540 O 0.57765 0.4316 0.97603 0.0
O1541 O 0.65192 0.41829 0.95755 0.0
O1542 O 0.64011 0.38901 0.96923 0.0
H1543 H 0.77125 0.44195 0.92158 0.0
H1544 H 0.57489 0.41047 0.02594 0.0
O1545 O 0.63392 0.38846 0.03412 0.0
H1546 H 0.49789 0.37491 0.97101 0.0
H1547 H 0.58482 0.32609 0.02566 0.0
H1548 H 0.67951 0.35923 0.97676 0.0
H1549 H 0.5728 0.3718 0.97379 0.0
H1550 H 0.5887 0.36052 0.0259 0.0
O1551 O 0.63111 0.45038 0.98258 0.0
H1552 H 0.72862 0.42298 0.94614 0.0
H1553 H 0.69246 0.47179 0.98022 0.0
H1554 H 0.67641 0.3248 0.97585 0.0
H1555 H 0.49997 0.41388 0.02386 0.0
H1556 H 0.62878 0.30801 1.00043 0.0
H1557 H 0.46097 0.39605 0.9962 0.0
O1558 O 0.69803 0.38683 0.0031 0.0
H1559 H 0.66688 0.46214 0.05649 0.0
H1560 H 0.75918 0.44059 0.99855 0.0
H1561 H 0.78826 0.45508 0.03133 0.0
H1562 H 0.74196 0.466 0.06059 0.0
H1563 H 0.63915 0.4474 0.02354 0.0
H1564 H 0.73447 0.49131 0.95593 0.0
H1565 H 0.77436 0.47637 0.92641 0.0
O1566 O 0.71967 0.41218 0.98494 0.0
C1567 C 0.64324 0.40112 0.95411 0.0
C1568 C 0.7541 0.44861 0.93442 0.0
C1569 C 0.7334 0.47632 0.95368 0.0
N1570 N 0.7083 0.44626 0.96468 0.0
C1571 C 0.72999 0.43794 0.94841 0.0
C1572 C 0.70959 0.4652 0.96735 0.0
C1573 C 0.7558 0.46793 0.93713 0.0
C1574 C 0.55811 0.40254 0.01398 0.0
N1575 N 0.5782 0.39091 1.00004 0.0
C1576 C 0.5157 0.40458 0.01283 0.0
C1577 C 0.49384 0.3946 0.99729 0.0
C1578 C 0.51454 0.38275 0.98314 0.0
C1579 C 0.55698 0.38109 0.98474 0.0
C1580 C 0.60564 0.33325 0.01484 0.0
C1581 C 0.65854 0.35202 0.9874 0.0
C1582 C 0.60803 0.35273 0.01494 0.0
N1583 N 0.63407 0.36186 1.00123 0.0
C1584 C 0.657 0.33253 0.98686 0.0
C1585 C 0.6303 0.32311 1.00068 0.0
C1586 C 0.72618 0.39654 0.99421 0.0
C1587 C 0.68737 0.45748 0.04384 0.0
C1588 C 0.73886 0.44521 0.01123 0.0
C1589 C 0.75548 0.45347 0.02974 0.0
C1590 C 0.7295 0.45961 0.04614 0.0
N1591 N 0.69751 0.44315 0.00908 0.0
C1592 C 0.67184 0.44917 0.02509 0.0
Co1593 Co 0.61045 0.86113 1.00218 0.0
Co1594 Co 0.5756 0.81861 0.98361 0.0
O1595 O 0.60911 0.83393 1.00281 0.0
C1596 C 0.591 0.85219 0.04781 0.0
O1597 O 0.56081 0.84185 0.04051 0.0
C1598 C 0.65937 0.80365 0.97995 0.0
O1599 O 0.6722 0.82092 0.97765 0.0
O1600 O 0.59635 0.83221 0.95763 0.0
O1601 O 0.60801 0.86136 0.96973 0.0
H1602 H 0.47808 0.80691 0.92222 0.0
H1603 H 0.67404 0.84044 0.02663 0.0
O1604 O 0.61343 0.86129 0.03463 0.0
H1605 H 0.74924 0.87734 0.97219 0.0
H1606 H 0.65849 0.92439 0.02718 0.0
H1607 H 0.56648 0.89046 0.97758 0.0
H1608 H 0.6741 0.87925 0.9746 0.0
H1609 H 0.65691 0.88993 0.02694 0.0
O1610 O 0.62131 0.8002 0.98139 0.0
H1611 H 0.51971 0.82625 0.94688 0.0
H1612 H 0.56192 0.77758 0.97922 0.0
H1613 H 0.56729 0.92492 0.97717 0.0
H1614 H 0.74921 0.83829 0.02496 0.0
H1615 H 0.61356 0.94211 1.0021 0.0
H1616 H 0.78731 0.85677 0.99753 0.0
O1617 O 0.54963 0.86234 0.00347 0.0
H1618 H 0.58919 0.78616 0.05544 0.0
H1619 H 0.4928 0.80717 0.99911 0.0
H1620 H 0.46632 0.79147 0.03176 0.0
H1621 H 0.51468 0.78082 0.06021 0.0
H1622 H 0.6143 0.80207 0.02262 0.0
H1623 H 0.52099 0.7577 0.95482 0.0
H1624 H 0.47856 0.77237 0.92612 0.0
O1625 O 0.52902 0.83649 0.98589 0.0
C1626 C 0.60471 0.84943 0.95444 0.0
C1627 C 0.49635 0.80035 0.9347 0.0
C1628 C 0.52048 0.77273 0.95298 0.0
N1629 N 0.54298 0.80306 0.96455 0.0
C1630 C 0.51989 0.81123 0.94874 0.0
C1631 C 0.54367 0.78406 0.96671 0.0
C1632 C 0.49666 0.78097 0.93688 0.0
C1633 C 0.69042 0.84869 0.0148 0.0
N1634 N 0.66968 0.86 1.00076 0.0
C1635 C 0.73298 0.84734 0.01387 0.0
C1636 C 0.75433 0.85769 0.99845 0.0
C1637 C 0.73298 0.86922 0.98421 0.0
C1638 C 0.69041 0.87019 0.9856 0.0
C1639 C 0.63826 0.91706 0.01621 0.0
C1640 C 0.58687 0.89785 0.98838 0.0
C1641 C 0.63717 0.89755 0.01604 0.0
N1642 N 0.61186 0.88821 1.00214 0.0
C1643 C 0.58711 0.91736 0.98812 0.0
C1644 C 0.61305 0.92699 1.00213 0.0
C1645 C 0.52184 0.85214 0.99501 0.0
C1646 C 0.56782 0.7907 0.04313 0.0
C1647 C 0.51402 0.80265 0.01143 0.0
C1648 C 0.49886 0.79371 0.02987 0.0
C1649 C 0.52601 0.78773 0.04582 0.0
N1650 N 0.55506 0.80551 0.0089 0.0
C1651 C 0.58187 0.79965 0.02447 0.0
Co1652 Co 0.35924 0.13711 0.75367 0.0
Co1653 Co 0.32851 0.17985 0.73413 0.0
O1654 O 0.36017 0.16439 0.75406 0.0
C1655 C 0.34164 0.1474 0.79891 0.0
O1656 O 0.31473 0.15923 0.79115 0.0
C1657 C 0.41275 0.19497 0.7327 0.0
O1658 O 0.42616 0.17775 0.73112 0.0
O1659 O 0.35168 0.16616 0.70884 0.0
O1660 O 0.35651 0.13669 0.72122 0.0
H1661 H 0.23711 0.19165 0.6702 0.0
H1662 H 0.42471 0.15656 0.77812 0.0
O1663 O 0.36193 0.13698 0.78611 0.0
H1664 H 0.49627 0.11856 0.72336 0.0
H1665 H 0.40225 0.07323 0.779 0.0
H1666 H 0.31209 0.1084 0.72968 0.0
H1667 H 0.42102 0.11802 0.72585 0.0
H1668 H 0.40369 0.10769 0.77842 0.0
O1669 O 0.37453 0.19825 0.73301 0.0
H1670 H 0.27625 0.17228 0.69592 0.0
H1671 H 0.31553 0.22091 0.7294 0.0
H1672 H 0.30986 0.07396 0.7296 0.0
H1673 H 0.50002 0.15737 0.77635 0.0
H1674 H 0.35519 0.05614 0.75439 0.0
H1675 H 0.53629 0.13832 0.74876 0.0
O1676 O 0.29861 0.13701 0.75505 0.0
H1677 H 0.33635 0.21292 0.80582 0.0
H1678 H 0.24452 0.19142 0.7476 0.0
H1679 H 0.2155 0.20743 0.77942 0.0
H1680 H 0.26156 0.21833 0.80881 0.0
H1681 H 0.364 0.19664 0.77384 0.0
H1682 H 0.27708 0.24082 0.70395 0.0
H1683 H 0.23737 0.22618 0.67414 0.0
O1684 O 0.28117 0.16207 0.73521 0.0
C1685 C 0.35687 0.14866 0.70586 0.0
C1686 C 0.25419 0.19819 0.68316 0.0
C1687 C 0.27668 0.22579 0.70208 0.0
N1688 N 0.29788 0.19544 0.71423 0.0
C1689 C 0.27632 0.18729 0.6978 0.0
C1690 C 0.29847 0.21445 0.71642 0.0
C1691 C 0.25439 0.21756 0.68537 0.0
C1692 C 0.44029 0.14806 0.76624 0.0
N1693 N 0.41849 0.1372 0.75217 0.0
C1694 C 0.48293 0.14865 0.76524 0.0
C1695 C 0.50326 0.13799 0.74973 0.0
C1696 C 0.48082 0.12692 0.73546 0.0
C1697 C 0.4382 0.12671 0.7369 0.0
C1698 C 0.38244 0.08084 0.76807 0.0
C1699 C 0.33212 0.10074 0.74039 0.0
C1700 C 0.38308 0.10034 0.7677 0.0
N1701 N 0.35831 0.11003 0.75385 0.0
C1702 C 0.33063 0.08124 0.74033 0.0
C1703 C 0.35603 0.07125 0.75426 0.0
C1704 C 0.27222 0.14698 0.74519 0.0
C1705 C 0.31597 0.20828 0.7931 0.0
C1706 C 0.26473 0.19601 0.76036 0.0
C1707 C 0.24814 0.20514 0.77832 0.0
C1708 C 0.274 0.21128 0.79479 0.0
N1709 N 0.30592 0.19308 0.75883 0.0
C1710 C 0.33148 0.19912 0.77489 0.0
Co1711 Co 0.39034 0.61242 0.75276 0.0
Co1712 Co 0.42476 0.57102 0.73246 0.0
O1713 O 0.39218 0.58526 0.75303 0.0
C1714 C 0.40827 0.60323 0.79841 0.0
O1715 O 0.43959 0.59352 0.79134 0.0
C1716 C 0.34348 0.55281 0.73172 0.0
O1717 O 0.32735 0.56921 0.72753 0.0
O1718 O 0.39688 0.5837 0.70786 0.0
O1719 O 0.39451 0.61318 0.72028 0.0
H1720 H 0.51131 0.56199 0.66605 0.0
H1721 H 0.3256 0.59117 0.77569 0.0
O1722 O 0.38567 0.61209 0.78512 0.0
H1723 H 0.25324 0.6288 0.72088 0.0
H1724 H 0.34027 0.67519 0.77814 0.0
H1725 H 0.43576 0.6422 0.72961 0.0
H1726 H 0.32821 0.63083 0.72453 0.0
H1727 H 0.34217 0.64074 0.77726 0.0
O1728 O 0.3821 0.55101 0.73306 0.0
H1729 H 0.4715 0.58012 0.69268 0.0
H1730 H 0.4446 0.53057 0.72775 0.0
H1731 H 0.43466 0.67666 0.72984 0.0
H1732 H 0.25057 0.58884 0.77271 0.0
H1733 H 0.38663 0.69338 0.75423 0.0
H1734 H 0.21391 0.60771 0.74511 0.0
O1735 O 0.45096 0.6135 0.75493 0.0
H1736 H 0.4308 0.53857 0.80458 0.0
H1737 H 0.51192 0.56315 0.74357 0.0
H1738 H 0.54718 0.54867 0.77461 0.0
H1739 H 0.50655 0.53623 0.80539 0.0
H1740 H 0.39678 0.55332 0.77333 0.0
H1741 H 0.48388 0.51188 0.70142 0.0
H1742 H 0.5177 0.52761 0.67035 0.0
O1743 O 0.46872 0.59057 0.73197 0.0
C1744 C 0.39239 0.60124 0.70492 0.0
C1745 C 0.49682 0.55498 0.67956 0.0
C1746 C 0.48138 0.52685 0.6994 0.0
N1747 N 0.45605 0.55643 0.71184 0.0
C1748 C 0.47434 0.56518 0.69472 0.0
C1749 C 0.45911 0.5375 0.71423 0.0
C1750 C 0.50036 0.53569 0.68197 0.0
C1751 C 0.30983 0.59956 0.76378 0.0
N1752 N 0.33125 0.61119 0.75038 0.0
C1753 C 0.26736 0.59812 0.76211 0.0
C1754 C 0.24681 0.60869 0.7466 0.0
C1755 C 0.26887 0.62052 0.73298 0.0
C1756 C 0.31132 0.62158 0.73509 0.0
C1757 C 0.36126 0.66807 0.7674 0.0
C1758 C 0.41459 0.64938 0.74016 0.0
C1759 C 0.36252 0.64857 0.76686 0.0
N1760 N 0.38876 0.63949 0.75323 0.0
C1761 C 0.4142 0.66889 0.74027 0.0
C1762 C 0.38727 0.67827 0.75398 0.0
C1763 C 0.47733 0.60486 0.74348 0.0
C1764 C 0.44883 0.54388 0.79124 0.0
C1765 C 0.494 0.5578 0.75692 0.0
C1766 C 0.51415 0.54959 0.77443 0.0
C1767 C 0.49134 0.5426 0.79169 0.0
N1768 N 0.45229 0.55899 0.75657 0.0
C1769 C 0.42972 0.55217 0.77344 0.0
Co1770 Co 0.35504 0.6126 0.00298 0.0
Co1771 Co 0.32434 0.57053 0.02351 0.0
O1772 O 0.35539 0.5854 1.00278 0.0
C1773 C 0.33704 0.60296 0.95743 0.0
O1774 O 0.30681 0.59261 0.96467 0.0
C1775 C 0.40735 0.55461 0.0235 0.0
O1776 O 0.42116 0.57172 0.02578 0.0
O1777 O 0.35085 0.5839 0.04801 0.0
O1778 O 0.35158 0.61335 0.0355 0.0
H1779 H 0.23858 0.56009 0.08993 0.0
H1780 H 0.42101 0.5928 0.97931 0.0
O1781 O 0.35896 0.61231 0.9706 0.0
H1782 H 0.49148 0.63138 0.03396 0.0
H1783 H 0.39944 0.67618 0.97723 0.0
H1784 H 0.30776 0.64159 0.02637 0.0
H1785 H 0.4163 0.63194 0.03096 0.0
H1786 H 0.40032 0.64172 0.97813 0.0
O1787 O 0.36905 0.55151 0.02335 0.0
H1788 H 0.2766 0.57888 0.06316 0.0
H1789 H 0.3086 0.52972 0.02859 0.0
H1790 H 0.30609 0.67604 0.02613 0.0
H1791 H 0.49626 0.59199 0.98158 0.0
H1792 H 0.3522 0.69356 1.00142 0.0
H1793 H 0.53198 0.61133 0.00912 0.0
O1794 O 0.29439 0.6126 1.00117 0.0
H1795 H 0.32204 0.53754 0.95166 0.0
H1796 H 0.23815 0.56067 0.01236 0.0
H1797 H 0.20458 0.54527 0.98138 0.0
H1798 H 0.24661 0.53356 0.95075 0.0
H1799 H 0.35434 0.55318 0.98287 0.0
H1800 H 0.27118 0.51038 0.05507 0.0
H1801 H 0.2357 0.52558 0.08597 0.0
O1802 O 0.27846 0.58908 0.02374 0.0
C1803 C 0.35445 0.60147 0.05089 0.0
C1804 C 0.2538 0.55331 0.0765 0.0
C1805 C 0.27214 0.52541 0.05695 0.0
N1806 N 0.29448 0.55542 0.04424 0.0
C1807 C 0.27528 0.56388 0.06126 0.0
C1808 C 0.29335 0.53643 0.04203 0.0
C1809 C 0.25223 0.53395 0.07428 0.0
C1810 C 0.43635 0.60142 0.99117 0.0
N1811 N 0.41427 0.61246 0.00493 0.0
C1812 C 0.47896 0.60084 0.99245 0.0
C1813 C 0.49898 0.61166 0.00793 0.0
C1814 C 0.47626 0.62289 0.02189 0.0
C1815 C 0.43369 0.62311 0.02016 0.0
C1816 C 0.37928 0.6687 0.9881 0.0
C1817 C 0.32809 0.64912 0.01569 0.0
C1818 C 0.37959 0.6492 0.98866 0.0
N1819 N 0.3544 0.63967 1.00246 0.0
C1820 C 0.32692 0.66863 0.01557 0.0
C1821 C 0.35277 0.67845 1.00169 0.0
C1822 C 0.26873 0.60332 0.01242 0.0
C1823 C 0.30341 0.54253 0.96495 0.0
C1824 C 0.25666 0.55564 0.99908 0.0
C1825 C 0.23748 0.5469 0.9816 0.0
C1826 C 0.26108 0.54032 0.96443 0.0
N1827 N 0.29821 0.55773 0.99949 0.0
C1828 C 0.32154 0.55132 0.98271 0.0
Co1829 Co 0.39061 0.13702 0.00347 0.0
Co1830 Co 0.42294 0.17979 0.02232 0.0
O1831 O 0.39072 0.16428 1.0027 0.0
C1832 C 0.409 0.14686 0.9582 0.0
O1833 O 0.43636 0.15849 0.96596 0.0
C1834 C 0.33909 0.19485 0.02421 0.0
O1835 O 0.32602 0.17762 0.02648 0.0
O1836 O 0.39991 0.16646 0.04787 0.0
O1837 O 0.39297 0.13694 0.03594 0.0
H1838 H 0.51551 0.19193 0.08571 0.0
H1839 H 0.32614 0.15678 0.97864 0.0
O1840 O 0.38822 0.13662 0.97101 0.0
H1841 H 0.25259 0.1198 0.03363 0.0
H1842 H 0.34544 0.07323 0.97883 0.0
H1843 H 0.43631 0.10821 0.02802 0.0
H1844 H 0.32783 0.11863 0.03132 0.0
H1845 H 0.34534 0.1077 0.97895 0.0
O1846 O 0.37723 0.19826 0.02337 0.0
H1847 H 0.47565 0.17242 0.0604 0.0
H1848 H 0.43664 0.22085 0.02648 0.0
H1849 H 0.43718 0.07376 0.02856 0.0
H1850 H 0.25087 0.15821 0.98024 0.0
H1851 H 0.39148 0.05604 0.00383 0.0
H1852 H 0.2136 0.13967 0.00793 0.0
O1853 O 0.45125 0.13645 1.00227 0.0
H1854 H 0.41479 0.21227 0.95028 0.0
H1855 H 0.50699 0.19082 0.00834 0.0
H1856 H 0.53591 0.20642 0.9762 0.0
H1857 H 0.48967 0.2173 0.94689 0.0
H1858 H 0.38722 0.19641 0.98257 0.0
H1859 H 0.47581 0.24089 0.05151 0.0
H1860 H 0.51574 0.22642 0.08133 0.0
O1861 O 0.46979 0.16183 0.0213 0.0
C1862 C 0.39353 0.14908 0.05111 0.0
C1863 C 0.49834 0.19839 0.07274 0.0
C1864 C 0.47601 0.22587 0.05356 0.0
N1865 N 0.45413 0.19548 0.04189 0.0
C1866 C 0.47581 0.18742 0.05833 0.0
C1867 C 0.45382 0.21446 0.03947 0.0
C1868 C 0.49842 0.21775 0.07028 0.0
C1869 C 0.31012 0.14851 0.99057 0.0
N1870 N 0.33135 0.13757 0.0048 0.0
C1871 C 0.2675 0.14944 0.99147 0.0
C1872 C 0.24662 0.13907 0.00704 0.0
C1873 C 0.26848 0.12793 0.02148 0.0
C1874 C 0.31109 0.12737 0.02013 0.0
C1875 C 0.3654 0.08079 0.98972 0.0
C1876 C 0.41612 0.10059 0.01733 0.0
C1877 C 0.36552 0.10031 0.98984 0.0
N1878 N 0.39048 0.10994 0.00364 0.0
C1879 C 0.41685 0.08109 0.01766 0.0
C1880 C 0.39124 0.07115 0.00376 0.0
C1881 C 0.47808 0.14647 0.01174 0.0
C1882 C 0.43525 0.20765 0.96297 0.0
C1883 C 0.48669 0.19541 0.99562 0.0
C1884 C 0.50323 0.20431 0.97748 0.0
C1885 C 0.47726 0.21043 0.96106 0.0
N1886 N 0.44545 0.19271 0.99737 0.0
C1887 C 0.4198 0.19872 0.98135 0.0
H1888 H 0.21358 0.36122 0.17271 0.0
H1889 H 0.09011 0.34545 0.1889 0.0
H1890 H 0.19529 0.36232 0.13451 0.0
H1891 H 0.07227 0.34468 0.15078 0.0
H1892 H 0.03791 0.35931 0.08248 0.0
H1893 H 0.05648 0.36045 0.12059 0.0
H1894 H 0.18162 0.34696 0.10364 0.0
H1895 H 0.16318 0.34771 0.06555 0.0
C1896 C 0.18264 0.35768 0.16796 0.0
C1897 C 0.15321 0.35334 0.18366 0.0
C1898 C 0.17206 0.35812 0.14599 0.0
C1899 C 0.13208 0.35356 0.13915 0.0
C1900 C 0.103 0.34883 0.15511 0.0
C1901 C 0.11327 0.34905 0.17707 0.0
C1902 C 0.06938 0.35672 0.08705 0.0
C1903 C 0.09913 0.35349 0.07117 0.0
C1904 C 0.08015 0.35716 0.10896 0.0
C1905 C 0.12075 0.35368 0.11561 0.0
C1906 C 0.1503 0.35019 0.09947 0.0
C1907 C 0.13973 0.35042 0.07753 0.0
H1908 H 0.08983 0.88502 0.06686 0.0
H1909 H 0.20779 0.90925 0.08137 0.0
H1910 H 0.07308 0.88489 0.10538 0.0
H1911 H 0.19094 0.909 0.11995 0.0
H1912 H 0.16097 0.88494 0.18787 0.0
H1913 H 0.17782 0.88488 0.14936 0.0
H1914 H 0.06007 0.90902 0.13477 0.0
H1915 H 0.04313 0.9092 0.17334 0.0
C1916 C 0.11227 0.89025 0.07826 0.0
C1917 C 0.15022 0.89711 0.07104 0.0
C1918 C 0.10253 0.89028 0.10031 0.0
C1919 C 0.13067 0.89695 0.11566 0.0
C1920 C 0.16877 0.90364 0.10849 0.0
C1921 C 0.17834 0.90384 0.0864 0.0
C1922 C 0.13859 0.8902 0.17647 0.0
C1923 C 0.10064 0.89704 0.18368 0.0
C1924 C 0.14838 0.89026 0.15442 0.0
C1925 C 0.12028 0.89695 0.13907 0.0
C1926 C 0.0822 0.90364 0.14624 0.0
C1927 C 0.07258 0.90381 0.16832 0.0
H1928 H 0.90991 0.63359 0.81804 0.0
H1929 H 0.79324 0.65916 0.8322 0.0
H1930 H 0.92628 0.63331 0.85661 0.0
H1931 H 0.8097 0.65877 0.87081 0.0
H1932 H 0.83702 0.63405 0.93859 0.0
H1933 H 0.82096 0.63426 0.90001 0.0
H1934 H 0.94015 0.65729 0.88616 0.0
H1935 H 0.95635 0.65719 0.92482 0.0
C1936 C 0.8877 0.63909 0.82937 0.0
C1937 C 0.8502 0.64636 0.82206 0.0
C1938 C 0.89722 0.63903 0.85144 0.0
C1939 C 0.86927 0.64602 0.86668 0.0
C1940 C 0.83167 0.65316 0.85941 0.0
C1941 C 0.82234 0.65344 0.83731 0.0
C1942 C 0.8599 0.63911 0.92734 0.0
C1943 C 0.89803 0.64557 0.93477 0.0
C1944 C 0.85055 0.63934 0.90526 0.0
C1945 C 0.87928 0.64581 0.89011 0.0
C1946 C 0.91756 0.65209 0.89749 0.0
C1947 C 0.92675 0.65209 0.91961 0.0
H1948 H 0.87796 0.13169 0.93466 0.0
H1949 H 0.82302 0.07712 0.9275 0.0
H1950 H 0.89415 0.13203 0.89596 0.0
H1951 H 0.83992 0.07739 0.8889 0.0
H1952 H 0.92667 0.07751 0.82863 0.0
H1953 H 0.90926 0.07776 0.86716 0.0
H1954 H 0.85192 0.13164 0.85953 0.0
H1955 H 0.86863 0.13131 0.82088 0.0
C1956 C 0.86928 0.1198 0.92482 0.0
C1957 C 0.84914 0.10439 0.93408 0.0
C1958 C 0.87844 0.12004 0.9027 0.0
C1959 C 0.86838 0.10472 0.88953 0.0
C1960 C 0.84823 0.08932 0.89876 0.0
C1961 C 0.83835 0.08923 0.9208 0.0
C1962 C 0.91051 0.08945 0.83518 0.0
C1963 C 0.89905 0.10441 0.82176 0.0
C1964 C 0.90034 0.08952 0.85718 0.0
C1965 C 0.87921 0.1047 0.86624 0.0
C1966 C 0.86838 0.11981 0.85292 0.0
C1967 C 0.87784 0.11958 0.83083 0.0
H1968 H 0.08831 0.86594 0.68766 0.0
H1969 H 0.20619 0.84148 0.67369 0.0
H1970 H 0.07186 0.86576 0.64909 0.0
H1971 H 0.18969 0.84148 0.63505 0.0
H1972 H 0.16047 0.86597 0.56708 0.0
H1973 H 0.17678 0.86601 0.60566 0.0
H1974 H 0.05946 0.84115 0.6197 0.0
H1975 H 0.04309 0.84094 0.58104 0.0
C1976 C 0.11079 0.86059 0.67636 0.0
C1977 C 0.14864 0.85376 0.68373 0.0
C1978 C 0.10122 0.86039 0.6543 0.0
C1979 C 0.12948 0.85361 0.63909 0.0
C1980 C 0.16745 0.84692 0.64641 0.0
C1981 C 0.17682 0.84686 0.66853 0.0
C1982 C 0.13806 0.86055 0.57837 0.0
C1983 C 0.1004 0.85349 0.57099 0.0
C1984 C 0.14756 0.86047 0.60045 0.0
C1985 C 0.11942 0.85357 0.61565 0.0
C1986 C 0.08161 0.84667 0.60833 0.0
C1987 C 0.07231 0.8465 0.5862 0.0
H1988 H 0.08919 0.38568 0.56682 0.0
H1989 H 0.20777 0.40953 0.58071 0.0
H1990 H 0.07293 0.38582 0.60539 0.0
H1991 H 0.19143 0.4095 0.61938 0.0
H1992 H 0.16115 0.38454 0.68725 0.0
H1993 H 0.17778 0.38483 0.6487 0.0
H1994 H 0.06135 0.41053 0.63479 0.0
H1995 H 0.04468 0.41042 0.6734 0.0
C1996 C 0.11186 0.39088 0.5781 0.0
C1997 C 0.14985 0.39755 0.57071 0.0
C1998 C 0.1024 0.39107 0.60017 0.0
C1999 C 0.13089 0.39769 0.61535 0.0
C2000 C 0.16901 0.40421 0.60802 0.0
C2001 C 0.17829 0.40428 0.58589 0.0
C2002 C 0.13903 0.39024 0.67599 0.0
C2003 C 0.10151 0.39742 0.68338 0.0
C2004 C 0.14871 0.3905 0.65394 0.0
C2005 C 0.12086 0.3977 0.63878 0.0
C2006 C 0.08326 0.40478 0.64613 0.0
C2007 C 0.0738 0.40477 0.66822 0.0
H2008 H 0.85037 0.11687 0.32485 0.0
H2009 H 0.85438 0.17703 0.32404 0.0
H2010 H 0.86491 0.11691 0.36351 0.0
H2011 H 0.8731 0.17734 0.3621 0.0
H2012 H 0.87262 0.17503 0.43486 0.0
H2013 H 0.8541 0.17457 0.39672 0.0
H2014 H 0.9106 0.12006 0.39034 0.0
H2015 H 0.92504 0.1201 0.42906 0.0
C2016 C 0.85492 0.1301 0.33303 0.0
C2017 C 0.85094 0.14693 0.32168 0.0
C2018 C 0.86379 0.13019 0.3552 0.0
C2019 C 0.87048 0.14714 0.36634 0.0
C2020 C 0.86711 0.16398 0.35458 0.0
C2021 C 0.85671 0.16386 0.33263 0.0
C2022 C 0.88083 0.163 0.42514 0.0
C2023 C 0.90019 0.14763 0.43464 0.0
C2024 C 0.87064 0.16273 0.40316 0.0
C2025 C 0.88088 0.1473 0.38999 0.0
C2026 C 0.90111 0.13204 0.39975 0.0
C2027 C 0.90997 0.13209 0.42191 0.0
H2028 H 0.95739 0.59225 0.33157 0.0
H2029 H 0.83934 0.61667 0.31787 0.0
H2030 H 0.94111 0.5922 0.37025 0.0
H2031 H 0.82318 0.61649 0.35643 0.0
H2032 H 0.79397 0.59168 0.42408 0.0
H2033 H 0.81077 0.59182 0.3855 0.0
H2034 H 0.92815 0.6165 0.39985 0.0
H2035 H 0.91143 0.6165 0.43839 0.0
C2036 C 0.92805 0.59762 0.3368 0.0
C2037 C 0.89972 0.60451 0.32167 0.0
C2038 C 0.91882 0.59765 0.35893 0.0
C2039 C 0.88086 0.60431 0.3663 0.0
C2040 C 0.85252 0.61113 0.35117 0.0
C2041 C 0.86193 0.61133 0.32911 0.0
C2042 C 0.82332 0.59717 0.41901 0.0
C2043 C 0.85129 0.60414 0.43428 0.0
C2044 C 0.83286 0.5973 0.39693 0.0
C2045 C 0.87076 0.60416 0.38972 0.0
C2046 C 0.89885 0.611 0.40499 0.0
C2047 C 0.88912 0.6111 0.42703 0.0
H2048 H 0.62876 0.37937 0.57032 0.0
H2049 H 0.57141 0.32539 0.57815 0.0
H2050 H 0.64525 0.37986 0.60899 0.0
H2051 H 0.58872 0.32578 0.61673 0.0
H2052 H 0.67633 0.32605 0.67707 0.0
H2053 H 0.65881 0.32595 0.63852 0.0
H2054 H 0.6022 0.38005 0.64546 0.0
H2055 H 0.6189 0.38005 0.68412 0.0
C2056 C 0.61967 0.36763 0.5803 0.0
C2057 C 0.5987 0.35236 0.57123 0.0
C2058 C 0.629 0.36795 0.6024 0.0
C2059 C 0.61834 0.35284 0.61577 0.0
C2060 C 0.59748 0.33755 0.60672 0.0
C2061 C 0.58737 0.3374 0.5847 0.0
C2062 C 0.66029 0.33795 0.67035 0.0
C2063 C 0.64903 0.35307 0.6836 0.0
C2064 C 0.65007 0.33782 0.64835 0.0
C2065 C 0.62913 0.35297 0.63908 0.0
C2066 C 0.61849 0.36823 0.65222 0.0
C2067 C 0.62796 0.3682 0.67432 0.0
H2068 H 0.66049 0.88506 0.68806 0.0
H2069 H 0.54255 0.90921 0.67353 0.0
H2070 H 0.6776 0.88527 0.64958 0.0
H2071 H 0.55973 0.90926 0.63497 0.0
H2072 H 0.59023 0.88502 0.56712 0.0
H2073 H 0.5733 0.88491 0.60561 0.0
H2074 H 0.69037 0.90978 0.62023 0.0
H2075 H 0.70738 0.91004 0.58165 0.0
C2076 C 0.63814 0.89035 0.67666 0.0
C2077 C 0.60008 0.89708 0.68386 0.0
C2078 C 0.64809 0.89057 0.65464 0.0
C2079 C 0.62001 0.89729 0.6393 0.0
C2080 C 0.58184 0.90387 0.64644 0.0
C2081 C 0.57208 0.9039 0.66851 0.0
C2082 C 0.61246 0.89042 0.57852 0.0
C2083 C 0.65024 0.89749 0.57132 0.0
C2084 C 0.60261 0.89046 0.60055 0.0
C2085 C 0.63049 0.89735 0.6159 0.0
C2086 C 0.66841 0.90426 0.60875 0.0
C2087 C 0.67808 0.90446 0.58667 0.0
H2088 H 0.29175 0.66012 0.33211 0.0
H2089 H 0.40804 0.63435 0.31756 0.0
H2090 H 0.30897 0.65996 0.37066 0.0
H2091 H 0.42518 0.63435 0.35602 0.0
H2092 H 0.45679 0.65889 0.42371 0.0
H2093 H 0.43943 0.65892 0.38518 0.0
H2094 H 0.32124 0.63529 0.4 0.0
H2095 H 0.33851 0.63509 0.43847 0.0
C2096 C 0.32092 0.65442 0.33712 0.0
C2097 C 0.34846 0.6472 0.32179 0.0
C2098 C 0.33069 0.65427 0.35918 0.0
C2099 C 0.36843 0.64716 0.36629 0.0
C2100 C 0.39603 0.64005 0.35096 0.0
C2101 C 0.38606 0.63995 0.32896 0.0
C2102 C 0.42715 0.65366 0.41875 0.0
C2103 C 0.3991 0.64694 0.43413 0.0
C2104 C 0.41729 0.65362 0.3967 0.0
C2105 C 0.37898 0.64712 0.38965 0.0
C2106 C 0.35085 0.64051 0.40502 0.0
C2107 C 0.36089 0.6403 0.42702 0.0
H2108 H 0.32205 0.07778 0.42817 0.0
H2109 H 0.3811 0.13142 0.43561 0.0
H2110 H 0.33931 0.07784 0.38962 0.0
H2111 H 0.39767 0.13156 0.39695 0.0
H2112 H 0.37154 0.1317 0.322 0.0
H2113 H 0.35538 0.13206 0.36069 0.0
H2114 H 0.40832 0.07718 0.36766 0.0
H2115 H 0.42517 0.07688 0.32904 0.0
C2116 C 0.3384 0.08964 0.42155 0.0
C2117 C 0.35018 0.10461 0.43489 0.0
C2118 C 0.34849 0.0896 0.39954 0.0
C2119 C 0.36986 0.10469 0.39039 0.0
C2120 C 0.38103 0.1198 0.40363 0.0
C2121 C 0.37164 0.11969 0.42572 0.0
C2122 C 0.37991 0.11975 0.33182 0.0
C2123 C 0.3997 0.10427 0.32252 0.0
C2124 C 0.37078 0.12 0.35393 0.0
C2125 C 0.38053 0.10463 0.36708 0.0
C2126 C 0.40027 0.08915 0.35781 0.0
C2127 C 0.41012 0.08904 0.33577 0.0
H2128 H 0.7068 0.84161 0.17387 0.0
H2129 H 0.5879 0.86491 0.18807 0.0
H2130 H 0.69017 0.84157 0.13526 0.0
H2131 H 0.57133 0.8647 0.1495 0.0
H2132 H 0.54349 0.83973 0.08136 0.0
H2133 H 0.55983 0.84015 0.12002 0.0
H2134 H 0.67622 0.86588 0.10592 0.0
H2135 H 0.65994 0.86563 0.06734 0.0
C2136 C 0.67717 0.84673 0.16877 0.0
C2137 C 0.64874 0.85332 0.18403 0.0
C2138 C 0.66773 0.84677 0.14666 0.0
C2139 C 0.62945 0.85312 0.1394 0.0
C2140 C 0.60094 0.85959 0.15466 0.0
C2141 C 0.61057 0.85981 0.17672 0.0
C2142 C 0.5725 0.84553 0.08651 0.0
C2143 C 0.60034 0.8527 0.07128 0.0
C2144 C 0.58177 0.84583 0.10864 0.0
C2145 C 0.61932 0.85302 0.11595 0.0
C2146 C 0.6472 0.86011 0.10072 0.0
C2147 C 0.63772 0.86007 0.07865 0.0
H2148 H 0.58756 0.38416 0.06697 0.0
H2149 H 0.70531 0.40878 0.08101 0.0
H2150 H 0.57147 0.38385 0.10558 0.0
H2151 H 0.68915 0.40835 0.11967 0.0
H2152 H 0.66086 0.3841 0.18768 0.0
H2153 H 0.67694 0.38407 0.14906 0.0
H2154 H 0.55864 0.40792 0.13514 0.0
H2155 H 0.54247 0.40808 0.1738 0.0
C2156 C 0.61009 0.38943 0.07829 0.0
C2157 C 0.64779 0.39646 0.07091 0.0
C2158 C 0.60074 0.38936 0.10039 0.0
C2159 C 0.62904 0.39608 0.11563 0.0
C2160 C 0.66688 0.40293 0.10829 0.0
C2161 C 0.67605 0.40324 0.08616 0.0
C2162 C 0.63819 0.38929 0.1764 0.0
C2163 C 0.60032 0.39606 0.18382 0.0
C2164 C 0.64754 0.38938 0.1543 0.0
C2165 C 0.61906 0.396 0.1391 0.0
C2166 C 0.58105 0.40259 0.14648 0.0
C2167 C 0.57188 0.40275 0.16862 0.0
H2168 H 0.3245 0.17419 0.82905 0.0
H2169 H 0.37873 0.11951 0.82175 0.0
H2170 H 0.34162 0.17385 0.86763 0.0
H2171 H 0.39521 0.11913 0.8604 0.0
H2172 H 0.37038 0.1194 0.9353 0.0
H2173 H 0.35374 0.11929 0.89666 0.0
H2174 H 0.41019 0.17346 0.88958 0.0
H2175 H 0.42745 0.17352 0.92813 0.0
C2176 C 0.33975 0.16205 0.83571 0.0
C2177 C 0.35024 0.14687 0.8224 0.0
C2178 C 0.34976 0.16192 0.85773 0.0
C2179 C 0.36978 0.14648 0.86692 0.0
C2180 C 0.3796 0.13116 0.85371 0.0
C2181 C 0.37028 0.13142 0.83161 0.0
C2182 C 0.37942 0.13124 0.92547 0.0
C2183 C 0.40032 0.14644 0.93472 0.0
C2184 C 0.37 0.13114 0.90338 0.0
C2185 C 0.38058 0.14639 0.89022 0.0
C2186 C 0.40144 0.1616 0.89944 0.0
C2187 C 0.41155 0.16155 0.92145 0.0
H2188 H 0.45577 0.59153 0.83226 0.0
H2189 H 0.33744 0.6151 0.81733 0.0
H2190 H 0.43825 0.59152 0.87077 0.0
H2191 H 0.32 0.61493 0.85577 0.0
H2192 H 0.2904 0.59017 0.92373 0.0
H2193 H 0.30774 0.59029 0.88518 0.0
H2194 H 0.42378 0.61613 0.89985 0.0
H2195 H 0.40651 0.61618 0.9383 0.0
C2196 C 0.42608 0.59671 0.83718 0.0
C2197 C 0.39806 0.60337 0.82176 0.0
C2198 C 0.41613 0.59676 0.85922 0.0
C2199 C 0.37776 0.60321 0.86622 0.0
C2200 C 0.34966 0.60975 0.8508 0.0
C2201 C 0.35979 0.60995 0.82881 0.0
C2202 C 0.31956 0.59592 0.91872 0.0
C2203 C 0.34701 0.60321 0.93406 0.0
C2204 C 0.3294 0.59604 0.89667 0.0
C2205 C 0.36712 0.60319 0.88957 0.0
C2206 C 0.39464 0.61039 0.9049 0.0
C2207 C 0.38459 0.61052 0.92689 0.0
H2208 H 0.99317 0.1975 0.22578 0.0
H2209 H 0.88909 0.22762 0.25097 0.0
H2210 H 0.03772 0.22342 0.23602 0.0
H2211 H 0.93346 0.25293 0.26218 0.0
H2212 H 0.01633 0.30358 0.26113 0.0
H2213 H 0.97231 0.27798 0.24989 0.0
H2214 H 0.06785 0.23853 0.26579 0.0
H2215 H 0.11252 0.26431 0.27596 0.0
C2216 C 0.97985 0.20962 0.23354 0.0
C2217 C 0.9376 0.21054 0.2374 0.0
C2218 C 0.0054 0.22443 0.23962 0.0
C2219 C 0.98932 0.24036 0.25 0.0
C2220 C 0.94699 0.24115 0.25385 0.0
C2221 C 0.92147 0.22653 0.24749 0.0
C2222 C 0.02779 0.28943 0.26238 0.0
C2223 C 0.06784 0.28596 0.26948 0.0
C2224 C 0.00249 0.27468 0.25598 0.0
C2225 C 0.01639 0.25607 0.25686 0.0
C2226 C 0.05627 0.25265 0.26443 0.0
C2227 C 0.08179 0.26742 0.27051 0.0
H2228 H 0.23709 0.95145 0.28026 0.0
H2229 H 0.13173 0.98144 0.25635 0.0
H2230 H 0.28075 0.97776 0.27036 0.0
H2231 H 0.17529 0.00724 0.24559 0.0
H2232 H 0.25874 0.05811 0.24737 0.0
H2233 H 0.21479 0.03231 0.25834 0.0
H2234 H 0.3091 0.99304 0.24003 0.0
H2235 H 0.35355 0.0189 0.22998 0.0
C2236 C 0.22327 0.96364 0.27289 0.0
C2237 C 0.18094 0.96437 0.26922 0.0
C2238 C 0.24832 0.97867 0.267 0.0
C2239 C 0.23167 0.99468 0.25706 0.0
C2240 C 0.18923 0.99536 0.25353 0.0
C2241 C 0.1642 0.98047 0.25964 0.0
C2242 C 0.2699 0.04395 0.24552 0.0
C2243 C 0.30957 0.04054 0.23779 0.0
C2244 C 0.24468 0.02912 0.25178 0.0
C2245 C 0.25836 0.01051 0.2502 0.0
C2246 C 0.29778 0.00715 0.24196 0.0
C2247 C 0.32315 0.02199 0.23596 0.0
H2248 H 0.01446 0.95199 0.97488 0.0
H2249 H 0.11943 0.98249 0.99855 0.0
H2250 H 0.97031 0.97798 0.98519 0.0
H2251 H 0.07542 0.00795 0.0097 0.0
H2252 H 0.99038 0.05825 0.00889 0.0
H2253 H 0.03495 0.03285 0.99744 0.0
H2254 H 0.94238 0.99275 0.016 0.0
H2255 H 0.89731 0.0182 0.02653 0.0
C2256 C 0.02809 0.96423 0.98226 0.0
C2257 C 0.07044 0.96518 0.98577 0.0
C2258 C 0.00277 0.97907 0.98838 0.0
C2259 C 0.0192 0.9951 0.9984 0.0
C2260 C 0.06166 0.99604 1.00172 0.0
C2261 C 0.08694 0.98134 0.99538 0.0
C2262 C 0.97978 0.04399 0.01073 0.0
C2263 C 0.94039 0.04022 0.01862 0.0
C2264 C 0.00533 0.02939 0.00417 0.0
C2265 C 0.99225 0.01068 0.00563 0.0
C2266 C 0.95319 0.00696 0.01414 0.0
C2267 C 0.92749 0.02155 0.02041 0.0
H2268 H 0.26013 0.19203 0.01014 0.0
H2269 H 0.35319 0.23226 0.02726 0.0
H2270 H 0.21541 0.21732 0.99855 0.0
H2271 H 0.30796 0.25761 0.01659 0.0
H2272 H 0.23553 0.29792 0.97495 0.0
H2273 H 0.27985 0.27209 0.98561 0.0
H2274 H 0.17496 0.24229 0.01066 0.0
H2275 H 0.13079 0.26757 0.99916 0.0
C2276 C 0.27069 0.20631 0.01184 0.0
C2277 C 0.31012 0.21016 0.01962 0.0
C2278 C 0.24505 0.22084 0.00521 0.0
C2279 C 0.25809 0.23958 0.00648 0.0
C2280 C 0.29718 0.24338 0.01488 0.0
C2281 C 0.32297 0.22885 0.02124 0.0
C2282 C 0.22199 0.28575 0.98253 0.0
C2283 C 0.17965 0.28478 0.98608 0.0
C2284 C 0.24741 0.27101 0.98885 0.0
C2285 C 0.23107 0.25507 0.99911 0.0
C2286 C 0.18864 0.25413 1.00249 0.0
C2287 C 0.16326 0.26872 0.99595 0.0
H2288 H 0.98966 0.70058 0.72649 0.0
H2289 H 0.8843 0.73017 0.75104 0.0
H2290 H 0.03329 0.72677 0.73681 0.0
H2291 H 0.92784 0.75585 0.76225 0.0
H2292 H 0.01085 0.80687 0.76093 0.0
H2293 H 0.96692 0.78109 0.74992 0.0
H2294 H 0.06206 0.74185 0.76706 0.0
H2295 H 0.10651 0.76772 0.7771 0.0
C2296 C 0.97584 0.71265 0.73412 0.0
C2297 C 0.93352 0.71332 0.73781 0.0
C2298 C 0.00088 0.72762 0.74024 0.0
C2299 C 0.98422 0.74349 0.75047 0.0
C2300 C 0.94179 0.74408 0.75408 0.0
C2301 C 0.91677 0.72926 0.74772 0.0
C2302 C 0.0222 0.79272 0.76253 0.0
C2303 C 0.06211 0.78933 0.7699 0.0
C2304 C 0.99697 0.7779 0.75624 0.0
C2305 C 0.01088 0.7593 0.75746 0.0
C2306 C 0.05053 0.75595 0.7654 0.0
C2307 C 0.07591 0.77079 0.7714 0.0
H2308 H 0.73545 0.94477 0.76083 0.0
H2309 H 0.63918 0.98385 0.77619 0.0
H2310 H 0.77924 0.97051 0.74968 0.0
H2311 H 0.68356 0.00974 0.76604 0.0
H2312 H 0.75783 0.05106 0.72611 0.0
H2313 H 0.71347 0.025 0.73617 0.0
H2314 H 0.81787 0.9956 0.76231 0.0
H2315 H 0.86203 0.02105 0.75135 0.0
C2316 C 0.72393 0.9589 0.76222 0.0
C2317 C 0.68393 0.96228 0.76946 0.0
C2318 C 0.74907 0.97372 0.75586 0.0
C2319 C 0.73505 0.99231 0.75689 0.0
C2320 C 0.69522 0.99564 0.76457 0.0
C2321 C 0.66988 0.9808 0.77064 0.0
C2322 C 0.77123 0.03893 0.73382 0.0
C2323 C 0.81347 0.03809 0.73776 0.0
C2324 C 0.74579 0.02404 0.73979 0.0
C2325 C 0.76197 0.0081 0.7501 0.0
C2326 C 0.80427 0.00738 0.75402 0.0
C2327 C 0.82967 0.02209 0.74781 0.0
H2328 H 0.73886 0.80652 0.99321 0.0
H2329 H 0.64549 0.76625 0.97676 0.0
H2330 H 0.78386 0.78126 0.00464 0.0
H2331 H 0.69094 0.74094 0.98724 0.0
H2332 H 0.76229 0.70106 0.02969 0.0
H2333 H 0.71862 0.7269 0.01851 0.0
H2334 H 0.82423 0.75595 0.99312 0.0
H2335 H 0.86788 0.73058 0.00516 0.0
C2336 C 0.7283 0.79224 0.9916 0.0
C2337 C 0.68865 0.78837 0.98412 0.0
C2338 C 0.7541 0.77772 0.99814 0.0
C2339 C 0.74097 0.759 0.99708 0.0
C2340 C 0.70177 0.75517 0.98882 0.0
C2341 C 0.67584 0.76968 0.98257 0.0
C2342 C 0.77616 0.71306 0.02191 0.0
C2343 C 0.81854 0.71378 0.01842 0.0
C2344 C 0.7511 0.72781 0.01528 0.0
C2345 C 0.76779 0.74352 0.00474 0.0
C2346 C 0.81029 0.74426 1.00145 0.0
C2347 C 0.83536 0.72963 0.0083 0.0
H2348 H 0.26054 0.5494 0.72651 0.0
H2349 H 0.3669 0.5197 0.74963 0.0
H2350 H 0.21743 0.52305 0.73689 0.0
H2351 H 0.32389 0.49384 0.76087 0.0
H2352 H 0.24081 0.44277 0.75971 0.0
H2353 H 0.28431 0.46866 0.74854 0.0
H2354 H 0.19003 0.50774 0.76742 0.0
H2355 H 0.146 0.48179 0.77767 0.0
C2356 C 0.27469 0.53727 0.73382 0.0
C2357 C 0.31714 0.53663 0.73712 0.0
C2358 C 0.24996 0.5222 0.73998 0.0
C2359 C 0.26706 0.50626 0.74984 0.0
C2360 C 0.3096 0.50567 0.75301 0.0
C2361 C 0.33432 0.5206 0.74663 0.0
C2362 C 0.22957 0.45691 0.76166 0.0
C2363 C 0.19001 0.46023 0.76959 0.0
C2364 C 0.25454 0.47179 0.75528 0.0
C2365 C 0.24071 0.49038 0.75693 0.0
C2366 C 0.20145 0.49365 0.76542 0.0
C2367 C 0.17633 0.47876 0.77154 0.0
H2368 H 0.88503 0.52089 0.50511 0.0
H2369 H 0.99033 0.55051 0.5298 0.0
H2370 H 0.92867 0.49541 0.49354 0.0
H2371 H 0.03407 0.5245 0.51912 0.0
H2372 H 0.10732 0.48401 0.47823 0.0
H2373 H 0.06281 0.50972 0.48869 0.0
H2374 H 0.96793 0.47015 0.50547 0.0
H2375 H 0.01189 0.44457 0.49403 0.0
C2376 C 0.91751 0.52184 0.50839 0.0
C2377 C 0.9342 0.53774 0.51844 0.0
C2378 C 0.94259 0.50713 0.50182 0.0
C2379 C 0.98504 0.50779 0.50536 0.0
C2380 C 0.00165 0.5236 0.51574 0.0
C2381 C 0.97655 0.53847 0.52207 0.0
C2382 C 0.07676 0.48085 0.48394 0.0
C2383 C 0.06303 0.46227 0.4852 0.0
C2384 C 0.05135 0.49558 0.49017 0.0
C2385 C 0.01176 0.49209 0.49813 0.0
C2386 C 0.99794 0.47347 0.49913 0.0
C2387 C 0.02317 0.45875 0.4926 0.0
H2388 H 0.36644 0.73032 0.50519 0.0
H2389 H 0.26075 0.70058 0.52919 0.0
H2390 H 0.32289 0.75579 0.49338 0.0
H2391 H 0.21712 0.72654 0.51828 0.0
H2392 H 0.14416 0.76672 0.47724 0.0
H2393 H 0.1891 0.74116 0.48757 0.0
H2394 H 0.28295 0.78101 0.50502 0.0
H2395 H 0.2385 0.8065 0.49371 0.0
C2396 C 0.3339 0.72934 0.50827 0.0
C2397 C 0.31706 0.7134 0.51818 0.0
C2398 C 0.30887 0.74403 0.50155 0.0
C2399 C 0.26635 0.74331 0.5048 0.0
C2400 C 0.24961 0.72748 0.51509 0.0
C2401 C 0.27464 0.71264 0.52156 0.0
C2402 C 0.1746 0.76999 0.48304 0.0
C2403 C 0.18785 0.78862 0.48459 0.0
C2404 C 0.20026 0.75533 0.48921 0.0
C2405 C 0.23963 0.75894 0.49739 0.0
C2406 C 0.25309 0.77762 0.49854 0.0
C2407 C 0.22759 0.79228 0.49208 0.0
H2408 H 0.76174 0.5564 0.24501 0.0
H2409 H 0.85807 0.51707 0.23062 0.0
H2410 H 0.71749 0.53081 0.25612 0.0
H2411 H 0.81326 0.49133 0.24074 0.0
H2412 H 0.73865 0.45049 0.28085 0.0
H2413 H 0.78297 0.4765 0.27072 0.0
H2414 H 0.67887 0.50554 0.24372 0.0
H2415 H 0.63463 0.48008 0.25476 0.0
C2416 C 0.7732 0.54224 0.24384 0.0
C2417 C 0.81336 0.53876 0.2369 0.0
C2418 C 0.74778 0.52751 0.25017 0.0
C2419 C 0.7617 0.5089 0.24942 0.0
C2420 C 0.80167 0.50545 0.242 0.0
C2421 C 0.82727 0.52021 0.23596 0.0
C2422 C 0.72527 0.46253 0.27293 0.0
C2423 C 0.6831 0.46325 0.26876 0.0
C2424 C 0.75072 0.47739 0.26691 0.0
C2425 C 0.73464 0.4932 0.2563 0.0
C2426 C 0.69237 0.49384 0.2522 0.0
C2427 C 0.66694 0.47914 0.25847 0.0
H2428 H 0.62883 0.26808 0.49775 0.0
H2429 H 0.73595 0.29862 0.47707 0.0
H2430 H 0.67167 0.24224 0.5092 0.0
H2431 H 0.77892 0.27233 0.48769 0.0
H2432 H 0.84876 0.23133 0.52919 0.0
H2433 H 0.8043 0.25701 0.51874 0.0
H2434 H 0.71304 0.21739 0.49724 0.0
H2435 H 0.75704 0.1917 0.50856 0.0
C2436 C 0.66155 0.26917 0.49532 0.0
C2437 C 0.67898 0.28544 0.48646 0.0
C2438 C 0.68617 0.25426 0.50183 0.0
C2439 C 0.72887 0.25513 0.49946 0.0
C2440 C 0.74623 0.27128 0.49017 0.0
C2441 C 0.72159 0.28631 0.48387 0.0
C2442 C 0.81898 0.22811 0.52245 0.0
C2443 C 0.80635 0.20949 0.51976 0.0
C2444 C 0.79363 0.24285 0.51622 0.0
C2445 C 0.75517 0.23935 0.50687 0.0
C2446 C 0.74222 0.22067 0.5046 0.0
C2447 C 0.76744 0.20591 0.51109 0.0
H2448 H 0.39807 0.23222 0.7282 0.0
H2449 H 0.49146 0.19298 0.7475 0.0
H2450 H 0.44242 0.25808 0.73829 0.0
H2451 H 0.53535 0.21882 0.7585 0.0
H2452 H 0.61875 0.26973 0.75723 0.0
H2453 H 0.57576 0.24379 0.7462 0.0
H2454 H 0.46903 0.27356 0.76888 0.0
H2455 H 0.51213 0.29997 0.77905 0.0
C2456 C 0.42818 0.22913 0.73458 0.0
C2457 C 0.44133 0.21056 0.73699 0.0
C2458 C 0.45348 0.24397 0.74061 0.0
C2459 C 0.49241 0.24063 0.74947 0.0
C2460 C 0.50581 0.222 0.7515 0.0
C2461 C 0.48065 0.20714 0.7452 0.0
C2462 C 0.58611 0.27073 0.76 0.0
C2463 C 0.56886 0.28695 0.76906 0.0
C2464 C 0.56141 0.25576 0.75374 0.0
C2465 C 0.51879 0.2565 0.75657 0.0
C2466 C 0.50163 0.2726 0.76604 0.0
C2467 C 0.52635 0.2877 0.77209 0.0
H2468 H 0.38647 0.02138 0.5055 0.0
H2469 H 0.4916 0.05153 0.52953 0.0
H2470 H 0.43028 0.99599 0.494 0.0
H2471 H 0.53561 0.02555 0.51893 0.0
H2472 H 0.60881 0.98483 0.47822 0.0
H2473 H 0.56423 0.01053 0.48861 0.0
H2474 H 0.46981 0.97092 0.50595 0.0
H2475 H 0.51382 0.94534 0.49456 0.0
C2476 C 0.41897 0.02247 0.50866 0.0
C2477 C 0.43554 0.0385 0.51851 0.0
C2478 C 0.44416 0.00779 0.50213 0.0
C2479 C 0.48663 0.00859 0.50551 0.0
C2480 C 0.50316 0.02454 0.51568 0.0
C2481 C 0.47792 0.03938 0.52197 0.0
C2482 C 0.57831 0.98166 0.48401 0.0
C2483 C 0.56473 0.96307 0.48545 0.0
C2484 C 0.55288 0.99639 0.49022 0.0
C2485 C 0.5134 0.99289 0.49833 0.0
C2486 C 0.49972 0.97425 0.49949 0.0
C2487 C 0.52497 0.95952 0.49297 0.0
H2488 H 0.61557 0.76983 0.25643 0.0
H2489 H 0.511 0.8 0.28098 0.0
H2490 H 0.57141 0.74436 0.24533 0.0
H2491 H 0.46672 0.774 0.27077 0.0
H2492 H 0.39274 0.7335 0.23004 0.0
H2493 H 0.43762 0.75911 0.24046 0.0
H2494 H 0.53169 0.71933 0.25762 0.0
H2495 H 0.48735 0.69383 0.24624 0.0
C2496 C 0.58315 0.7709 0.2598 0.0
C2497 C 0.56681 0.78696 0.26965 0.0
C2498 C 0.55776 0.7562 0.25349 0.0
C2499 C 0.51536 0.75702 0.25711 0.0
C2500 C 0.4991 0.77298 0.26734 0.0
C2501 C 0.52451 0.78784 0.2734 0.0
C2502 C 0.42318 0.73026 0.23584 0.0
C2503 C 0.4366 0.71165 0.23721 0.0
C2504 C 0.44881 0.74494 0.24205 0.0
C2505 C 0.48831 0.74137 0.25007 0.0
C2506 C 0.50177 0.72271 0.25122 0.0
C2507 C 0.47632 0.70804 0.24473 0.0
H2508 H 0.61423 0.48147 0.99839 0.0
H2509 H 0.50974 0.45079 0.97442 0.0
H2510 H 0.56998 0.50682 0.00944 0.0
H2511 H 0.46527 0.47674 0.98461 0.0
H2512 H 0.39209 0.51723 0.02601 0.0
H2513 H 0.43674 0.49169 0.01518 0.0
H2514 H 0.52992 0.53163 0.99699 0.0
H2515 H 0.48587 0.55706 0.00878 0.0
C2516 C 0.58179 0.48026 0.99512 0.0
C2517 C 0.56551 0.46409 0.98545 0.0
C2518 C 0.55635 0.49491 1.0014 0.0
C2519 C 0.51395 0.49393 0.99793 0.0
C2520 C 0.4977 0.47787 0.98788 0.0
C2521 C 0.52319 0.46306 0.98183 0.0
C2522 C 0.42231 0.52052 0.0199 0.0
C2523 C 0.4356 0.53914 0.01838 0.0
C2524 C 0.44776 0.50588 0.01345 0.0
C2525 C 0.48694 0.50953 0.00504 0.0
C2526 C 0.50025 0.52821 0.00369 0.0
C2527 C 0.47499 0.54284 0.01044 0.0
H2528 H 0.1562 0.41832 0.41572 0.0
H2529 H 0.1172 0.36485 0.44086 0.0
H2530 H 0.15374 0.40587 0.37911 0.0
H2531 H 0.11298 0.35263 0.40419 0.0
H2532 H 0.15917 0.33046 0.33901 0.0
H2533 H 0.15562 0.34286 0.37563 0.0
H2534 H 0.11192 0.39554 0.35047 0.0
H2535 H 0.11723 0.38341 0.31382 0.0
C2536 C 0.14641 0.404 0.41344 0.0
C2537 C 0.13701 0.39261 0.43133 0.0
C2538 C 0.14477 0.39685 0.39237 0.0
C2539 C 0.13326 0.37817 0.38856 0.0
C2540 C 0.12273 0.36696 0.40644 0.0
C2541 C 0.1248 0.37404 0.42752 0.0
C2542 C 0.14851 0.34465 0.34127 0.0
C2543 C 0.13861 0.35592 0.32338 0.0
C2544 C 0.14625 0.35176 0.36236 0.0
C2545 C 0.13359 0.37028 0.36614 0.0
C2546 C 0.12256 0.38135 0.34825 0.0
C2547 C 0.12526 0.37431 0.32716 0.0
H2548 H 0.12929 0.86515 0.31393 0.0
H2549 H 0.0927 0.91908 0.33871 0.0
H2550 H 0.13324 0.85311 0.35067 0.0
H2551 H 0.09504 0.90681 0.37543 0.0
H2552 H 0.1333 0.88444 0.44064 0.0
H2553 H 0.13751 0.89632 0.40386 0.0
H2554 H 0.09045 0.84389 0.37964 0.0
H2555 H 0.08779 0.83173 0.41642 0.0
C2556 C 0.12216 0.87449 0.3272 0.0
C2557 C 0.11072 0.89313 0.32326 0.0
C2558 C 0.12407 0.8675 0.34834 0.0
C2559 C 0.11422 0.8789 0.36615 0.0
C2560 C 0.10345 0.89764 0.36222 0.0
C2561 C 0.1019 0.90469 0.34108 0.0
C2562 C 0.12423 0.87533 0.42748 0.0
C2563 C 0.11026 0.85707 0.43159 0.0
C2564 C 0.12632 0.88224 0.40632 0.0
C2565 C 0.1141 0.87116 0.38865 0.0
C2566 C 0.10072 0.85279 0.39274 0.0
C2567 C 0.09899 0.84581 0.41391 0.0
H2568 H 0.15462 0.83329 0.83883 0.0
H2569 H 0.12126 0.88754 0.81373 0.0
H2570 H 0.15303 0.8457 0.87544 0.0
H2571 H 0.11808 0.89978 0.85046 0.0
H2572 H 0.16464 0.92046 0.91659 0.0
H2573 H 0.16107 0.90853 0.87968 0.0
H2574 H 0.11075 0.85663 0.9036 0.0
H2575 H 0.11591 0.86822 0.94043 0.0
C2576 C 0.14629 0.84779 0.8411 0.0
C2577 C 0.13811 0.85938 0.82323 0.0
C2578 C 0.14516 0.85493 0.86219 0.0
C2579 C 0.13545 0.87381 0.86604 0.0
C2580 C 0.12636 0.88527 0.84817 0.0
C2581 C 0.12784 0.87818 0.82706 0.0
C2582 C 0.15253 0.90655 0.91397 0.0
C2583 C 0.14068 0.89532 0.93158 0.0
C2584 C 0.15028 0.89971 0.89273 0.0
C2585 C 0.13581 0.88152 0.88854 0.0
C2586 C 0.12286 0.87054 0.90614 0.0
C2587 C 0.12548 0.87729 0.92734 0.0
H2588 H 0.1348 0.41496 0.83681 0.0
H2589 H 0.09024 0.36159 0.81427 0.0
H2590 H 0.13823 0.40279 0.87358 0.0
H2591 H 0.09128 0.34972 0.85108 0.0
H2592 H 0.12175 0.32799 0.9178 0.0
H2593 H 0.12841 0.33945 0.88076 0.0
H2594 H 0.09692 0.39506 0.9025 0.0
H2595 H 0.09266 0.38381 0.93939 0.0
C2596 C 0.12561 0.40064 0.83973 0.0
C2597 C 0.11217 0.38929 0.82259 0.0
C2598 C 0.12723 0.39366 0.86089 0.0
C2599 C 0.11465 0.37525 0.86556 0.0
C2600 C 0.10189 0.36384 0.84826 0.0
C2601 C 0.10101 0.37071 0.82706 0.0
C2602 C 0.11657 0.34269 0.91463 0.0
C2603 C 0.10674 0.35496 0.9316 0.0
C2604 C 0.12011 0.34928 0.89333 0.0
C2605 C 0.11318 0.36825 0.8884 0.0
C2606 C 0.10345 0.38047 0.90551 0.0
C2607 C 0.10065 0.37395 0.92678 0.0
H2608 H 0.84471 0.61374 0.69044 0.0
H2609 H 0.88174 0.6687 0.66923 0.0
H2610 H 0.84805 0.60251 0.65347 0.0
H2611 H 0.88745 0.65722 0.6322 0.0
H2612 H 0.84486 0.63719 0.56582 0.0
H2613 H 0.84797 0.64844 0.6028 0.0
H2614 H 0.88777 0.59384 0.62414 0.0
H2615 H 0.88229 0.58233 0.58711 0.0
C2616 C 0.85431 0.62338 0.67791 0.0
C2617 C 0.86274 0.64217 0.68282 0.0
C2618 C 0.85655 0.61687 0.65661 0.0
C2619 C 0.86799 0.62889 0.63961 0.0
C2620 C 0.87765 0.64759 0.64468 0.0
C2621 C 0.87469 0.65418 0.66598 0.0
C2622 C 0.8545 0.62758 0.57837 0.0
C2623 C 0.8631 0.6088 0.57349 0.0
C2624 C 0.8566 0.6341 0.59967 0.0
C2625 C 0.86807 0.62212 0.61669 0.0
C2626 C 0.87794 0.60344 0.61164 0.0
C2627 C 0.8751 0.59683 0.59035 0.0
H2628 H 0.87154 0.08093 0.66924 0.0
H2629 H 0.90532 0.13641 0.69016 0.0
H2630 H 0.86593 0.09213 0.63207 0.0
H2631 H 0.90221 0.14736 0.65311 0.0
H2632 H 0.90647 0.1126 0.5654 0.0
H2633 H 0.9041 0.10129 0.60241 0.0
H2634 H 0.86247 0.15558 0.62385 0.0
H2635 H 0.86736 0.16715 0.58686 0.0
C2636 C 0.87794 0.0955 0.66589 0.0
C2637 C 0.88883 0.10775 0.68271 0.0
C2638 C 0.87504 0.10194 0.64451 0.0
C2639 C 0.88373 0.12072 0.63934 0.0
C2640 C 0.89437 0.13293 0.6563 0.0
C2641 C 0.8965 0.12658 0.67766 0.0
C2642 C 0.89662 0.12211 0.578 0.0
C2643 C 0.88737 0.14083 0.57316 0.0
C2644 C 0.89495 0.11557 0.59932 0.0
C2645 C 0.88323 0.12746 0.61638 0.0
C2646 C 0.87263 0.14605 0.61135 0.0
C2647 C 0.87509 0.1527 0.59006 0.0
H2648 H 0.88552 0.16617 0.16976 0.0
H2649 H 0.84195 0.11201 0.19022 0.0
H2650 H 0.89058 0.1549 0.13265 0.0
H2651 H 0.84463 0.10101 0.15307 0.0
H2652 H 0.87781 0.08085 0.08638 0.0
H2653 H 0.88352 0.09172 0.12365 0.0
H2654 H 0.85059 0.14747 0.10303 0.0
H2655 H 0.8473 0.1368 0.06582 0.0
C2656 C 0.8769 0.15186 0.16631 0.0
C2657 C 0.86328 0.14002 0.18296 0.0
C2658 C 0.87946 0.1454 0.14496 0.0
C2659 C 0.86769 0.12702 0.13962 0.0
C2660 C 0.85469 0.11513 0.15643 0.0
C2661 C 0.85286 0.12149 0.17782 0.0
C2662 C 0.87216 0.09546 0.08983 0.0
C2663 C 0.86208 0.10793 0.07309 0.0
C2664 C 0.87513 0.1017 0.11127 0.0
C2665 C 0.86732 0.12052 0.11658 0.0
C2666 C 0.85766 0.13298 0.0997 0.0
C2667 C 0.85544 0.12681 0.07826 0.0
H2668 H 0.90568 0.66906 0.08909 0.0
H2669 H 0.86207 0.61592 0.0651 0.0
H2670 H 0.9025 0.65716 0.12596 0.0
H2671 H 0.85729 0.60431 0.10198 0.0
H2672 H 0.90424 0.58229 0.16709 0.0
H2673 H 0.90071 0.59435 0.13033 0.0
H2674 H 0.85977 0.64769 0.1549 0.0
H2675 H 0.8649 0.63587 0.19171 0.0
C2676 C 0.89472 0.65495 0.09167 0.0
C2677 C 0.8843 0.64346 0.07404 0.0
C2678 C 0.89269 0.64813 0.11288 0.0
C2679 C 0.87981 0.6297 0.11705 0.0
C2680 C 0.86812 0.61843 0.09943 0.0
C2681 C 0.87053 0.62518 0.07823 0.0
C2682 C 0.89416 0.59655 0.16467 0.0
C2683 C 0.88496 0.60809 0.18244 0.0
C2684 C 0.89191 0.60346 0.14352 0.0
C2685 C 0.88004 0.62206 0.13954 0.0
C2686 C 0.86974 0.63342 0.1573 0.0
C2687 C 0.87236 0.62657 0.17846 0.0
H2688 H 0.61434 0.36727 0.94017 0.0
H2689 H 0.66169 0.41982 0.91648 0.0
H2690 H 0.61014 0.35562 0.90331 0.0
H2691 H 0.65902 0.40786 0.87957 0.0
H2692 H 0.62075 0.38675 0.8135 0.0
H2693 H 0.61662 0.39887 0.85024 0.0
H2694 H 0.65304 0.34498 0.8752 0.0
H2695 H 0.6556 0.33267 0.83854 0.0
C2696 C 0.6238 0.3764 0.92711 0.0
C2697 C 0.63834 0.39454 0.9314 0.0
C2698 C 0.62172 0.36961 0.9059 0.0
C2699 C 0.63453 0.38068 0.88834 0.0
C2700 C 0.64835 0.39897 0.89259 0.0
C2701 C 0.65007 0.40583 0.91382 0.0
C2702 C 0.62745 0.3774 0.82682 0.0
C2703 C 0.63844 0.35868 0.82296 0.0
C2704 C 0.62543 0.38442 0.84795 0.0
C2705 C 0.63467 0.37299 0.86582 0.0
C2706 C 0.64506 0.35418 0.86195 0.0
C2707 C 0.64673 0.34711 0.84083 0.0
H2708 H 0.58643 0.83092 0.9167 0.0
H2709 H 0.63268 0.88355 0.94076 0.0
H2710 H 0.58912 0.84301 0.87988 0.0
H2711 H 0.63695 0.89534 0.90394 0.0
H2712 H 0.59239 0.91819 0.8389 0.0
H2713 H 0.59454 0.9059 0.87559 0.0
H2714 H 0.63181 0.85208 0.8508 0.0
H2715 H 0.62805 0.86416 0.81404 0.0
C2716 C 0.59779 0.84496 0.91415 0.0
C2717 C 0.60926 0.85623 0.9318 0.0
C2718 C 0.59954 0.8519 0.89295 0.0
C2719 C 0.61315 0.87023 0.88881 0.0
C2720 C 0.62556 0.8813 0.90645 0.0
C2721 C 0.62345 0.87445 0.92763 0.0
C2722 C 0.60134 0.90376 0.84124 0.0
C2723 C 0.60998 0.8922 0.82341 0.0
C2724 C 0.60278 0.89671 0.86237 0.0
C2725 C 0.61328 0.87793 0.86629 0.0
C2726 C 0.62288 0.8665 0.84846 0.0
C2727 C 0.62107 0.8735 0.82733 0.0
H2728 H 0.61732 0.86696 0.44097 0.0
H2729 H 0.66319 0.91956 0.41663 0.0
H2730 H 0.61263 0.85509 0.40422 0.0
H2731 H 0.66009 0.90739 0.37984 0.0
H2732 H 0.62062 0.88604 0.31419 0.0
H2733 H 0.6172 0.89821 0.3509 0.0
H2734 H 0.65466 0.84444 0.37578 0.0
H2735 H 0.65646 0.83206 0.33911 0.0
C2736 C 0.62637 0.87605 0.42779 0.0
C2737 C 0.64058 0.89428 0.43186 0.0
C2738 C 0.62401 0.86914 0.40664 0.0
C2739 C 0.63622 0.88017 0.38893 0.0
C2740 C 0.64983 0.89852 0.39297 0.0
C2741 C 0.65181 0.90551 0.41415 0.0
C2742 C 0.6277 0.87672 0.32748 0.0
C2743 C 0.63876 0.85802 0.3236 0.0
C2744 C 0.6261 0.88378 0.3486 0.0
C2745 C 0.63587 0.8724 0.36644 0.0
C2746 C 0.6463 0.8536 0.36255 0.0
C2747 C 0.64754 0.84649 0.34144 0.0
H2748 H 0.59135 0.33105 0.41633 0.0
H2749 H 0.63093 0.38452 0.44117 0.0
H2750 H 0.5947 0.34324 0.37963 0.0
H2751 H 0.63609 0.39647 0.40442 0.0
H2752 H 0.59251 0.41848 0.33868 0.0
H2753 H 0.59481 0.40633 0.37544 0.0
H2754 H 0.637 0.35311 0.35107 0.0
H2755 H 0.63289 0.36501 0.31427 0.0
C2756 C 0.60145 0.34531 0.41398 0.0
C2757 C 0.61077 0.35677 0.43181 0.0
C2758 C 0.60361 0.35232 0.39284 0.0
C2759 C 0.61558 0.37092 0.3889 0.0
C2760 C 0.62598 0.3822 0.40674 0.0
C2761 C 0.62338 0.37527 0.42789 0.0
C2762 C 0.60258 0.40423 0.34115 0.0
C2763 C 0.6124 0.39275 0.32341 0.0
C2764 C 0.60411 0.39725 0.36232 0.0
C2765 C 0.61596 0.37865 0.36638 0.0
C2766 C 0.62694 0.36737 0.34865 0.0
C2767 C 0.62495 0.37427 0.32748 0.0
H2768 H 0.34258 0.61369 0.19031 0.0
H2769 H 0.3793 0.66862 0.16882 0.0
H2770 H 0.34545 0.60241 0.15332 0.0
H2771 H 0.38444 0.6571 0.1318 0.0
H2772 H 0.3796 0.58224 0.0869 0.0
H2773 H 0.38524 0.59381 0.12387 0.0
H2774 H 0.34429 0.64824 0.10257 0.0
H2775 H 0.34092 0.63692 0.0656 0.0
C2776 C 0.35199 0.62331 0.17772 0.0
C2777 C 0.36048 0.64211 0.18255 0.0
C2778 C 0.35394 0.61678 0.15641 0.0
C2779 C 0.36512 0.62879 0.13935 0.0
C2780 C 0.37485 0.64749 0.14434 0.0
C2781 C 0.37221 0.6541 0.16563 0.0
C2782 C 0.37217 0.59672 0.09012 0.0
C2783 C 0.35975 0.60862 0.07327 0.0
C2784 C 0.3751 0.60336 0.11139 0.0
C2785 C 0.36497 0.622 0.11643 0.0
C2786 C 0.3531 0.63392 0.09943 0.0
C2787 C 0.35086 0.62737 0.07814 0.0
H2788 H 0.36398 0.08405 0.17017 0.0
H2789 H 0.40704 0.13824 0.19084 0.0
H2790 H 0.35931 0.09536 0.13307 0.0
H2791 H 0.40475 0.14927 0.15371 0.0
H2792 H 0.40332 0.11359 0.0664 0.0
H2793 H 0.39965 0.10287 0.10359 0.0
H2794 H 0.36614 0.15855 0.1242 0.0
H2795 H 0.37222 0.16947 0.08696 0.0
C2796 C 0.37257 0.09838 0.16677 0.0
C2797 C 0.38594 0.11022 0.18348 0.0
C2798 C 0.37022 0.10486 0.14543 0.0
C2799 C 0.38197 0.12325 0.14015 0.0
C2800 C 0.39472 0.13515 0.15702 0.0
C2801 C 0.39631 0.12877 0.1784 0.0
C2802 C 0.39498 0.12355 0.07884 0.0
C2803 C 0.38828 0.14243 0.07369 0.0
C2804 C 0.39254 0.11735 0.10027 0.0
C2805 C 0.38259 0.12978 0.11713 0.0
C2806 C 0.37474 0.14859 0.11182 0.0
C2807 C 0.37793 0.15487 0.09041 0.0
H2808 H 0.38116 0.16804 0.66978 0.0
H2809 H 0.34287 0.1133 0.69108 0.0
H2810 H 0.38639 0.15653 0.63276 0.0
H2811 H 0.34557 0.10205 0.65408 0.0
H2812 H 0.3789 0.08175 0.58744 0.0
H2813 H 0.38422 0.09305 0.62459 0.0
H2814 H 0.34721 0.1481 0.60335 0.0
H2815 H 0.34441 0.13705 0.56633 0.0
C2816 C 0.37367 0.15357 0.66653 0.0
C2817 C 0.36156 0.14162 0.6834 0.0
C2818 C 0.37634 0.14695 0.64523 0.0
C2819 C 0.36613 0.12831 0.64017 0.0
C2820 C 0.35447 0.11636 0.6572 0.0
C2821 C 0.3526 0.12288 0.67851 0.0
C2822 C 0.37229 0.0963 0.59075 0.0
C2823 C 0.36127 0.10847 0.57389 0.0
C2824 C 0.37502 0.10279 0.61211 0.0
C2825 C 0.36598 0.12155 0.61722 0.0
C2826 C 0.35529 0.13369 0.60021 0.0
C2827 C 0.35335 0.12729 0.57886 0.0
H2828 H 0.36809 0.58192 0.66875 0.0
H2829 H 0.40543 0.63673 0.69032 0.0
H2830 H 0.3626 0.59357 0.63178 0.0
H2831 H 0.40232 0.64812 0.65341 0.0
H2832 H 0.36854 0.66861 0.58707 0.0
H2833 H 0.36288 0.65699 0.62405 0.0
H2834 H 0.40225 0.60239 0.60248 0.0
H2835 H 0.40553 0.61375 0.56557 0.0
C2836 C 0.37526 0.59644 0.66559 0.0
C2837 C 0.38723 0.60836 0.68251 0.0
C2838 C 0.37242 0.60313 0.64433 0.0
C2839 C 0.38225 0.62183 0.63938 0.0
C2840 C 0.39371 0.63376 0.65646 0.0
C2841 C 0.39581 0.62716 0.67772 0.0
C2842 C 0.37559 0.65409 0.59025 0.0
C2843 C 0.38752 0.64215 0.57334 0.0
C2844 C 0.37266 0.64741 0.61152 0.0
C2845 C 0.38233 0.6287 0.61649 0.0
C2846 C 0.39375 0.61675 0.59942 0.0
C2847 C 0.39596 0.62334 0.57815 0.0
H2848 H 0.28716 0.34723 0.29301 0.0
H2849 H 0.26741 0.37418 0.23126 0.0
H2850 H 0.35849 0.35725 0.29251 0.0
H2851 H 0.33943 0.38389 0.23066 0.0
H2852 H 0.48405 0.37439 0.23084 0.0
H2853 H 0.41196 0.36477 0.2304 0.0
H2854 H 0.39388 0.39093 0.29262 0.0
H2855 H 0.46528 0.40085 0.29295 0.0
C2856 C 0.29806 0.3553 0.27933 0.0
C2857 C 0.27169 0.35998 0.2622 0.0
C2858 C 0.33883 0.36103 0.27909 0.0
C2859 C 0.3543 0.37124 0.26152 0.0
C2860 C 0.32813 0.37591 0.24431 0.0
C2861 C 0.28698 0.3705 0.24476 0.0
C2862 C 0.46468 0.37798 0.24444 0.0
C2863 C 0.48027 0.38832 0.26195 0.0
C2864 C 0.42349 0.37263 0.24409 0.0
C2865 C 0.39758 0.37719 0.26145 0.0
C2866 C 0.41334 0.38724 0.27907 0.0
C2867 C 0.45415 0.39291 0.27923 0.0
H2868 H 0.76623 0.87534 0.23058 0.0
H2869 H 0.78523 0.84887 0.29268 0.0
H2870 H 0.83851 0.88466 0.22989 0.0
H2871 H 0.85679 0.85844 0.29207 0.0
H2872 H 0.96423 0.90131 0.29263 0.0
H2873 H 0.89277 0.8916 0.29215 0.0
H2874 H 0.91071 0.86572 0.22975 0.0
H2875 H 0.98292 0.87518 0.23032 0.0
C2876 C 0.78569 0.87168 0.24413 0.0
C2877 C 0.77009 0.86143 0.26171 0.0
C2878 C 0.82699 0.87685 0.24363 0.0
C2879 C 0.85301 0.87219 0.2609 0.0
C2880 C 0.83725 0.86221 0.27859 0.0
C2881 C 0.79634 0.85674 0.2789 0.0
C2882 C 0.95307 0.89347 0.27883 0.0
C2883 C 0.97919 0.88894 0.26153 0.0
C2884 C 0.91222 0.88792 0.2786 0.0
C2885 C 0.89638 0.87801 0.26089 0.0
C2886 C 0.92229 0.87348 0.24351 0.0
C2887 C 0.96355 0.87873 0.24394 0.0
H2888 H 0.25719 0.86308 0.01007 0.0
H2889 H 0.29793 0.9143 0.97972 0.0
H2890 H 0.32808 0.8522 0.01145 0.0
H2891 H 0.36811 0.90347 0.98134 0.0
H2892 H 0.49248 0.88601 0.00887 0.0
H2893 H 0.42135 0.89637 0.00978 0.0
H2894 H 0.38263 0.84313 0.98412 0.0
H2895 H 0.45335 0.83274 0.98303 0.0
C2896 C 0.2811 0.87203 0.00376 0.0
C2897 C 0.27174 0.88962 0.99491 0.0
C2898 C 0.32164 0.86578 0.00451 0.0
C2899 C 0.35357 0.87708 0.99666 0.0
C2900 C 0.34421 0.89461 0.98784 0.0
C2901 C 0.30383 0.90075 0.98684 0.0
C2902 C 0.46883 0.87648 0.0035 0.0
C2903 C 0.47876 0.85852 0.99592 0.0
C2904 C 0.42813 0.88244 0.00397 0.0
C2905 C 0.39651 0.87051 0.99708 0.0
C2906 C 0.40632 0.85251 0.98979 0.0
C2907 C 0.44697 0.84662 0.98908 0.0
H2908 H 0.98949 0.38529 0.01064 0.0
H2909 H 0.95088 0.33435 0.97892 0.0
H2910 H 0.91834 0.39575 0.01178 0.0
H2911 H 0.88024 0.34473 0.98048 0.0
H2912 H 0.75463 0.36253 0.00837 0.0
H2913 H 0.82569 0.35185 0.00941 0.0
H2914 H 0.86538 0.40459 0.98283 0.0
H2915 H 0.79497 0.4152 0.98138 0.0
C2916 C 0.96597 0.37629 0.00402 0.0
C2917 C 0.97601 0.35893 0.99479 0.0
C2918 C 0.92529 0.38229 0.00466 0.0
C2919 C 0.89387 0.37096 0.99636 0.0
C2920 C 0.90381 0.3536 0.98728 0.0
C2921 C 0.94441 0.34772 0.98634 0.0
C2922 C 0.77849 0.37186 1.00279 0.0
C2923 C 0.76897 0.38977 0.99492 0.0
C2924 C 0.81911 0.36573 0.00335 0.0
C2925 C 0.85094 0.37748 0.99635 0.0
C2926 C 0.84149 0.39537 0.98863 0.0
C2927 C 0.801 0.40139 0.98775 0.0
H2928 H 0.73249 0.62517 0.77471 0.0
H2929 H 0.71473 0.65166 0.71251 0.0
H2930 H 0.66035 0.6158 0.77499 0.0
H2931 H 0.64313 0.642 0.71272 0.0
H2932 H 0.53466 0.59933 0.71215 0.0
H2933 H 0.60617 0.6091 0.71245 0.0
H2934 H 0.58899 0.63448 0.77518 0.0
H2935 H 0.51692 0.62499 0.77482 0.0
C2936 C 0.71331 0.62884 0.76105 0.0
C2937 C 0.72925 0.63911 0.74357 0.0
C2938 C 0.67208 0.62361 0.76131 0.0
C2939 C 0.64637 0.62823 0.74389 0.0
C2940 C 0.66243 0.63823 0.7263 0.0
C2941 C 0.70335 0.64378 0.72623 0.0
C2942 C 0.54602 0.60706 0.72598 0.0
C2943 C 0.52015 0.61146 0.74344 0.0
C2944 C 0.58689 0.61267 0.7261 0.0
C2945 C 0.60294 0.62247 0.74385 0.0
C2946 C 0.57727 0.62683 0.76137 0.0
C2947 C 0.53607 0.62153 0.76108 0.0
H2948 H 0.00802 0.13793 0.75936 0.0
H2949 H 0.04528 0.08597 0.72952 0.0
H2950 H 0.07925 0.14827 0.75973 0.0
H2951 H 0.11616 0.09628 0.73025 0.0
H2952 H 0.24107 0.11356 0.75928 0.0
H2953 H 0.1697 0.10355 0.75928 0.0
H2954 H 0.13395 0.15635 0.73138 0.0
H2955 H 0.20513 0.16637 0.73104 0.0
C2956 C 0.03128 0.12868 0.75295 0.0
C2957 C 0.02084 0.11104 0.74458 0.0
C2958 C 0.07201 0.13465 0.75311 0.0
C2959 C 0.10315 0.12302 0.74514 0.0
C2960 C 0.09279 0.10542 0.73676 0.0
C2961 C 0.0521 0.09956 0.73631 0.0
C2962 C 0.21805 0.12308 0.75317 0.0
C2963 C 0.22893 0.14083 0.74527 0.0
C2964 C 0.17723 0.11729 0.7531 0.0
C2965 C 0.14637 0.12921 0.7454 0.0
C2966 C 0.1571 0.14697 0.73764 0.0
C2967 C 0.19795 0.15267 0.7374 0.0
H2968 H 0.54558 0.16555 0.02589 0.0
H2969 H 0.50839 0.11294 0.99752 0.0
H2970 H 0.6165 0.1553 0.02534 0.0
H2971 H 0.57959 0.10273 0.99718 0.0
H2972 H 0.70482 0.08475 0.02547 0.0
H2973 H 0.63386 0.09496 0.02515 0.0
H2974 H 0.67042 0.14765 0.99717 0.0
H2975 H 0.74164 0.13748 0.99728 0.0
C2976 C 0.55243 0.15183 0.01945 0.0
C2977 C 0.52118 0.14012 0.0116 0.0
C2978 C 0.59315 0.14601 0.01909 0.0
C2979 C 0.60351 0.12827 0.01115 0.0
C2980 C 0.57237 0.11646 0.0035 0.0
C2981 C 0.53164 0.12235 0.00362 0.0
C2982 C 0.69788 0.09848 0.01912 0.0
C2983 C 0.72904 0.11024 0.01126 0.0
C2984 C 0.65714 0.10428 0.01889 0.0
C2985 C 0.64668 0.12205 0.01107 0.0
C2986 C 0.67772 0.1339 0.0034 0.0
C2987 C 0.71846 0.12803 0.00339 0.0
H2988 H 0.21147 0.59619 0.04336 0.0
H2989 H 0.22802 0.62328 0.9814 0.0
H2990 H 0.13944 0.60513 0.04323 0.0
H2991 H 0.15548 0.63191 0.9812 0.0
H2992 H 0.01215 0.62279 0.98189 0.0
H2993 H 0.08388 0.61269 0.98133 0.0
H2994 H 0.10298 0.63838 0.04375 0.0
H2995 H 0.03194 0.64877 0.04419 0.0
C2996 C 0.19971 0.60401 0.02969 0.0
C2997 C 0.22542 0.60912 0.01243 0.0
C2998 C 0.15856 0.60912 0.02966 0.0
C2999 C 0.1421 0.61911 0.01217 0.0
C3000 C 0.16754 0.62408 0.99478 0.0
C3001 C 0.209 0.61928 0.995 0.0
C3002 C 0.03164 0.62612 0.99554 0.0
C3003 C 0.01653 0.63654 0.01308 0.0
C3004 C 0.07261 0.62048 0.99513 0.0
C3005 C 0.09872 0.62482 0.01248 0.0
C3006 C 0.08333 0.63482 0.03023 0.0
C3007 C 0.04276 0.64078 0.03044 0.0
H3008 H 0.4633 0.90171 0.79245 0.0
H3009 H 0.48253 0.87516 0.73042 0.0
H3010 H 0.39188 0.89181 0.79196 0.0
H3011 H 0.41042 0.86558 0.72982 0.0
H3012 H 0.26581 0.87555 0.73047 0.0
H3013 H 0.33804 0.8849 0.72993 0.0
H3014 H 0.35635 0.85804 0.79173 0.0
H3015 H 0.28478 0.84837 0.79216 0.0
C3016 C 0.45225 0.89377 0.7787 0.0
C3017 C 0.47851 0.88915 0.76149 0.0
C3018 C 0.41145 0.8881 0.77847 0.0
C3019 C 0.39583 0.87802 0.76083 0.0
C3020 C 0.42186 0.87345 0.74353 0.0
C3021 C 0.46304 0.87879 0.74397 0.0
C3022 C 0.28527 0.87171 0.74395 0.0
C3023 C 0.26967 0.86127 0.76137 0.0
C3024 C 0.32653 0.87693 0.74355 0.0
C3025 C 0.35252 0.87213 0.76078 0.0
C3026 C 0.33681 0.86192 0.77829 0.0
C3027 C 0.29591 0.85638 0.77849 0.0
H3028 H 0.76636 0.37658 0.73044 0.0
H3029 H 0.78552 0.35027 0.79262 0.0
H3030 H 0.83823 0.38647 0.73001 0.0
H3031 H 0.85673 0.36045 0.79228 0.0
H3032 H 0.96531 0.40267 0.79257 0.0
H3033 H 0.89337 0.39355 0.79223 0.0
H3034 H 0.90979 0.36761 0.72976 0.0
H3035 H 0.98223 0.37643 0.73015 0.0
C3036 C 0.78576 0.37308 0.74407 0.0
C3037 C 0.77036 0.36267 0.76156 0.0
C3038 C 0.82682 0.37862 0.74374 0.0
C3039 C 0.8528 0.37418 0.7611 0.0
C3040 C 0.8372 0.3641 0.77875 0.0
C3041 C 0.79651 0.35825 0.77889 0.0
C3042 C 0.95366 0.395 0.77876 0.0
C3043 C 0.97947 0.39019 0.76142 0.0
C3044 C 0.91255 0.38978 0.77861 0.0
C3045 C 0.8962 0.37996 0.76095 0.0
C3046 C 0.92174 0.3753 0.74348 0.0
C3047 C 0.96315 0.38021 0.74381 0.0
H3048 H 0.28532 0.40315 0.4623 0.0
H3049 H 0.26538 0.37538 0.52356 0.0
H3050 H 0.35673 0.39324 0.46275 0.0
H3051 H 0.33741 0.3658 0.52413 0.0
H3052 H 0.48182 0.37495 0.52437 0.0
H3053 H 0.40999 0.38489 0.52475 0.0
H3054 H 0.39183 0.35938 0.46217 0.0
H3055 H 0.463 0.34912 0.4619 0.0
C3056 C 0.2962 0.39495 0.47588 0.0
C3057 C 0.26973 0.38997 0.49287 0.0
C3058 C 0.337 0.38928 0.47609 0.0
C3059 C 0.35239 0.37885 0.4935 0.0
C3060 C 0.32617 0.37395 0.5106 0.0
C3061 C 0.28501 0.3793 0.51018 0.0
C3062 C 0.46249 0.37157 0.51067 0.0
C3063 C 0.47798 0.36129 0.4931 0.0
C3064 C 0.42146 0.37711 0.51098 0.0
C3065 C 0.3956 0.37283 0.4935 0.0
C3066 C 0.41127 0.36287 0.47579 0.0
C3067 C 0.45192 0.35699 0.47568 0.0
H3068 H 0.99309 0.88716 0.50877 0.0
H3069 H 0.95371 0.83446 0.48151 0.0
H3070 H 0.92203 0.89766 0.50975 0.0
H3071 H 0.8831 0.84497 0.48266 0.0
H3072 H 0.758 0.86381 0.50926 0.0
H3073 H 0.82902 0.85322 0.51018 0.0
H3074 H 0.86798 0.90553 0.48216 0.0
H3075 H 0.79746 0.91613 0.48106 0.0
C3076 C 0.96941 0.87779 0.50307 0.0
C3077 C 0.97925 0.85993 0.49514 0.0
C3078 C 0.92874 0.88383 0.50357 0.0
C3079 C 0.89705 0.87209 0.49637 0.0
C3080 C 0.90682 0.85422 0.4886 0.0
C3081 C 0.94741 0.84825 0.48787 0.0
C3082 C 0.78169 0.87307 0.50334 0.0
C3083 C 0.77189 0.89086 0.49518 0.0
C3084 C 0.82233 0.86698 0.5038 0.0
C3085 C 0.85402 0.8786 0.49634 0.0
C3086 C 0.84427 0.89638 0.48831 0.0
C3087 C 0.80372 0.9024 0.48761 0.0
H3088 H 0.53418 0.09825 0.21302 0.0
H3089 H 0.51717 0.12543 0.27488 0.0
H3090 H 0.60587 0.10798 0.21286 0.0
H3091 H 0.58921 0.13479 0.27482 0.0
H3092 H 0.7321 0.12484 0.27475 0.0
H3093 H 0.66008 0.11545 0.27494 0.0
H3094 H 0.64313 0.14145 0.21254 0.0
H3095 H 0.71479 0.15122 0.21245 0.0
C3096 C 0.54576 0.10626 0.22659 0.0
C3097 C 0.52006 0.11112 0.24395 0.0
C3098 C 0.58667 0.11186 0.22644 0.0
C3099 C 0.60286 0.12207 0.24384 0.0
C3100 C 0.57736 0.12683 0.26128 0.0
C3101 C 0.53618 0.12158 0.26123 0.0
C3102 C 0.71303 0.12851 0.26105 0.0
C3103 C 0.72907 0.13875 0.24358 0.0
C3104 C 0.67187 0.12324 0.26124 0.0
C3105 C 0.64629 0.12777 0.24376 0.0
C3106 C 0.66239 0.13776 0.22616 0.0
C3107 C 0.70329 0.14337 0.22616 0.0
H3108 H 0.03394 0.59936 0.21276 0.0
H3109 H 0.01391 0.62706 0.27404 0.0
H3110 H 0.1051 0.60976 0.21297 0.0
H3111 H 0.08566 0.63711 0.27438 0.0
H3112 H 0.22985 0.62704 0.27481 0.0
H3113 H 0.15765 0.61779 0.27505 0.0
H3114 H 0.14094 0.64368 0.21257 0.0
H3115 H 0.21266 0.6533 0.21244 0.0
C3116 C 0.04474 0.60767 0.22627 0.0
C3117 C 0.01836 0.61245 0.24337 0.0
C3118 C 0.08538 0.61364 0.22633 0.0
C3119 C 0.10067 0.62416 0.2437 0.0
C3120 C 0.07447 0.62892 0.26086 0.0
C3121 C 0.03349 0.62329 0.26058 0.0
C3122 C 0.21076 0.63072 0.26112 0.0
C3123 C 0.22689 0.64085 0.24359 0.0
C3124 C 0.1695 0.62555 0.26135 0.0
C3125 C 0.14397 0.63008 0.24384 0.0
C3126 C 0.16015 0.64001 0.22622 0.0
C3127 C 0.20111 0.64552 0.22619 0.0
H3128 H 0.73314 0.62551 0.48144 0.0
H3129 H 0.7153 0.59919 0.54373 0.0
H3130 H 0.66101 0.63485 0.48111 0.0
H3131 H 0.6437 0.60881 0.54347 0.0
H3132 H 0.53517 0.6514 0.54381 0.0
H3133 H 0.60671 0.6417 0.54359 0.0
H3134 H 0.58967 0.61607 0.48098 0.0
H3135 H 0.51759 0.62548 0.48127 0.0
C3136 C 0.71395 0.62187 0.49511 0.0
C3137 C 0.72986 0.61166 0.51263 0.0
C3138 C 0.67272 0.62707 0.49482 0.0
C3139 C 0.64699 0.62249 0.51225 0.0
C3140 C 0.66302 0.61255 0.52989 0.0
C3141 C 0.70394 0.60703 0.52999 0.0
C3142 C 0.54658 0.64363 0.53002 0.0
C3143 C 0.52074 0.63914 0.51257 0.0
C3144 C 0.58746 0.63806 0.52994 0.0
C3145 C 0.60356 0.62822 0.51225 0.0
C3146 C 0.57791 0.62377 0.49474 0.0
C3147 C 0.53671 0.62902 0.495 0.0
H3148 H 0.00912 0.11381 0.49799 0.0
H3149 H 0.04427 0.16698 0.52564 0.0
H3150 H 0.08056 0.10404 0.49812 0.0
H3151 H 0.11564 0.15718 0.52543 0.0
H3152 H 0.2418 0.13852 0.49734 0.0
H3153 H 0.17059 0.14889 0.4971 0.0
H3154 H 0.13386 0.0972 0.5274 0.0
H3155 H 0.20467 0.08687 0.52801 0.0
C3156 C 0.03198 0.12345 0.504 0.0
C3157 C 0.02086 0.14123 0.5117 0.0
C3158 C 0.07286 0.11781 0.50414 0.0
C3159 C 0.10355 0.12989 0.51174 0.0
C3160 C 0.0926 0.14768 0.51928 0.0
C3161 C 0.05166 0.15325 0.51944 0.0
C3162 C 0.21858 0.12935 0.50397 0.0
C3163 C 0.22903 0.11177 0.51251 0.0
C3164 C 0.17787 0.13534 0.50389 0.0
C3165 C 0.14679 0.12378 0.5121 0.0
C3166 C 0.15719 0.10628 0.52071 0.0
C3167 C 0.19784 0.1004 0.52107 0.0
loop_
_geom_bond_atom_site_label_1
_geom_bond_atom_site_label_2
_geom_bond_distance
_geom_bond_site_symmetry_2
_ccdc_geom_bond_type
Co0 O2 2.143 . S
Co0 O8 2.074 . S
Co0 O11 2.093 . S
Co0 O24 2.097 . S
Co0 N41 2.151 . S
Co0 N49 2.214 . S
Co1 O2 2.160 . S
Co1 O7 2.058 . S
Co1 O17 2.057 . S
Co1 O32 2.037 . S
Co1 N36 2.145 . S
Co1 N57 2.257 . S
O2 Co0 2.143 . S
O2 Co1 2.160 . S
C3 O4 1.278 . S
C3 O11 1.224 . S
O4 C3 1.278 . S
C5 O6 1.245 . S
C5 O17 1.232 . S
O6 C5 1.245 . S
O7 Co1 2.058 . S
O7 C33 1.269 . S
O8 Co0 2.074 . S
O8 C33 1.257 . S
H9 C34 0.930 . S
H10 C40 0.930 . S
O11 Co0 2.093 . S
O11 C3 1.224 . S
H12 C44 0.929 . S
H13 C46 0.930 . S
H14 C47 0.930 . S
H15 C45 0.929 . S
H16 C48 0.928 . S
O17 Co1 2.057 . S
O17 C5 1.232 . S
H18 C37 0.929 . S
H19 C38 0.929 . S
H20 C50 0.931 . S
H21 C42 0.929 1_655 S
H22 C51 0.930 . S
H23 C43 0.931 . S
O24 Co0 2.097 . S
O24 C52 1.214 . S
H25 C53 0.929 . S
H26 C54 0.929 . S
H27 C55 0.930 . S
H28 C56 0.929 . S
H29 C58 0.930 . S
H30 C35 0.930 . S
H31 C39 0.930 . S
O32 Co1 2.037 . S
O32 C52 1.234 . S
C33 O7 1.269 . S
C33 O8 1.257 . S
C34 H9 0.930 . S
C34 C37 1.388 . S
C34 C39 1.418 . S
C35 H30 0.930 . S
C35 C38 1.404 . S
C35 C39 1.353 . S
N36 Co1 2.145 . S
N36 C37 1.397 . S
N36 C38 1.334 . S
C37 H18 0.929 . S
C37 C34 1.388 . S
C37 N36 1.397 . S
C38 H19 0.929 . S
C38 C35 1.404 . S
C38 N36 1.334 . S
C39 H31 0.930 . S
C39 C34 1.418 . S
C39 C35 1.353 . S
C40 H10 0.930 . S
C40 N41 1.330 . S
C40 C42 1.446 . S
N41 Co0 2.151 . S
N41 C40 1.330 . S
N41 C45 1.418 . S
C42 H21 0.929 1_455 S
C42 C40 1.446 . S
C42 C43 1.332 1_455 S
C43 H23 0.931 . S
C43 C42 1.332 1_655 S
C43 C44 1.267 1_655 S
C44 H12 0.929 . S
C44 C43 1.267 1_455 S
C44 C45 1.251 . S
C45 H15 0.929 . S
C45 N41 1.418 . S
C45 C44 1.251 . S
C46 H13 0.930 . S
C46 C48 1.406 . S
C46 C51 1.261 . S
C47 H14 0.930 . S
C47 N49 1.325 . S
C47 C50 1.357 . S
C48 H16 0.928 . S
C48 C46 1.406 . S
C48 N49 1.261 . S
N49 Co0 2.214 . S
N49 C47 1.325 . S
N49 C48 1.261 . S
C50 H20 0.931 . S
C50 C47 1.357 . S
C50 C51 1.312 . S
C51 H22 0.930 . S
C51 C46 1.261 . S
C51 C50 1.312 . S
C52 O24 1.214 . S
C52 O32 1.234 . S
C53 H25 0.929 . S
C53 C56 1.391 . S
C53 C58 1.391 . S
C54 H26 0.929 . S
C54 C55 1.390 . S
C54 N57 1.391 . S
C55 H27 0.930 . S
C55 C54 1.390 . S
C55 C56 1.392 . S
C56 H28 0.929 . S
C56 C53 1.391 . S
C56 C55 1.392 . S
N57 Co1 2.257 . S
N57 C54 1.391 . S
N57 C58 1.388 . S
C58 H29 0.930 . S
C58 C53 1.391 . S
C58 N57 1.388 . S
Co59 O61 2.143 . S
Co59 O67 2.074 . S
Co59 O70 2.093 . S
Co59 O83 2.097 . S
Co59 N100 2.151 . S
Co59 N108 2.214 . S
Co60 O61 2.160 . S
Co60 O66 2.058 . S
Co60 O76 2.057 . S
Co60 O91 2.037 . S
Co60 N95 2.145 . S
Co60 N116 2.257 . S
O61 Co59 2.143 . S
O61 Co60 2.160 . S
C62 O63 1.278 . S
C62 O70 1.224 . S
O63 C62 1.278 . S
C64 O65 1.245 . S
C64 O76 1.232 . S
O65 C64 1.245 . S
O66 Co60 2.058 . S
O66 C92 1.269 . S
O67 Co59 2.074 . S
O67 C92 1.257 . S
H68 C93 0.930 1_655 S
H69 C99 0.930 . S
O70 Co59 2.093 . S
O70 C62 1.224 . S
H71 C103 0.929 . S
H72 C105 0.930 . S
H73 C106 0.930 . S
H74 C104 0.929 . S
H75 C107 0.928 . S
O76 Co60 2.057 . S
O76 C64 1.232 . S
H77 C96 0.929 . S
H78 C97 0.929 . S
H79 C109 0.931 . S
H80 C101 0.929 . S
H81 C110 0.930 . S
H82 C102 0.931 . S
O83 Co59 2.097 . S
O83 C111 1.214 . S
H84 C112 0.929 . S
H85 C113 0.929 . S
H86 C114 0.930 1_655 S
H87 C115 0.929 . S
H88 C117 0.930 . S
H89 C94 0.930 . S
H90 C98 0.922 1_655 S
O91 Co60 2.037 . S
O91 C111 1.234 . S
C92 O66 1.269 . S
C92 O67 1.257 . S
C93 H68 0.930 1_455 S
C93 C96 1.388 . S
C93 C98 1.418 . S
C94 H89 0.930 . S
C94 C97 1.404 . S
C94 C98 1.353 . S
N95 Co60 2.145 . S
N95 C96 1.397 . S
N95 C97 1.334 . S
C96 H77 0.929 . S
C96 C93 1.388 . S
C96 N95 1.397 . S
C97 H78 0.929 . S
C97 C94 1.404 . S
C97 N95 1.334 . S
C98 H90 0.922 1_455 S
C98 C93 1.418 . S
C98 C94 1.353 . S
C99 H69 0.930 . S
C99 N100 1.330 . S
C99 C101 1.446 . S
N100 Co59 2.151 . S
N100 C99 1.330 . S
N100 C104 1.418 . S
C101 H80 0.929 . S
C101 C99 1.446 . S
C101 C102 1.332 . S
C102 H82 0.931 . S
C102 C101 1.332 . S
C102 C103 1.267 . S
C103 H71 0.929 . S
C103 C102 1.267 . S
C103 C104 1.251 . S
C104 H74 0.929 . S
C104 N100 1.418 . S
C104 C103 1.251 . S
C105 H72 0.930 . S
C105 C107 1.406 . S
C105 C110 1.261 . S
C106 H73 0.930 . S
C106 N108 1.325 . S
C106 C109 1.357 . S
C107 H75 0.928 . S
C107 C105 1.406 . S
C107 N108 1.261 . S
N108 Co59 2.214 . S
N108 C106 1.325 . S
N108 C107 1.261 . S
C109 H79 0.931 . S
C109 C106 1.357 . S
C109 C110 1.312 . S
C110 H81 0.930 . S
C110 C105 1.261 . S
C110 C109 1.312 . S
C111 O83 1.214 . S
C111 O91 1.234 . S
C112 H84 0.929 . S
C112 C115 1.391 . S
C112 C117 1.391 . S
C113 H85 0.929 . S
C113 C114 1.390 . S
C113 N116 1.391 . S
C114 H86 0.930 1_455 S
C114 C113 1.390 . S
C114 C115 1.392 . S
C115 H87 0.929 . S
C115 C112 1.391 . S
C115 C114 1.392 . S
N116 Co60 2.257 . S
N116 C113 1.391 . S
N116 C117 1.388 . S
C117 H88 0.930 . S
C117 C112 1.391 . S
C117 N116 1.388 . S
Co118 O120 2.143 . S
Co118 O126 2.074 1_554 S
Co118 O129 2.093 . S
Co118 O142 2.097 . S
Co118 N159 2.151 . S
Co118 N167 2.214 . S
Co119 O120 2.160 1_556 S
Co119 O125 2.058 . S
Co119 O135 2.057 . S
Co119 O150 2.037 . S
Co119 N154 2.145 . S
Co119 N175 2.257 1_556 S
O120 Co118 2.143 . S
O120 Co119 2.160 1_554 S
C121 O122 1.278 . S
C121 O129 1.224 . S
O122 C121 1.278 . S
C123 O124 1.258 . S
C123 O135 1.232 . S
O124 C123 1.258 . S
O125 Co119 2.058 . S
O125 C151 1.269 . S
O126 Co118 2.074 1_556 S
O126 C151 1.257 . S
H127 C152 0.930 . S
H128 C158 0.930 . S
O129 Co118 2.093 . S
O129 C121 1.224 . S
H130 C162 0.929 . S
H131 C164 0.930 . S
H132 C165 0.930 . S
H133 C163 0.929 . S
H134 C166 0.928 . S
O135 Co119 2.057 . S
O135 C123 1.232 . S
H136 C155 0.929 . S
H137 C156 0.929 . S
H138 C168 0.931 . S
H139 C160 0.929 1_655 S
H140 C169 0.933 . S
H141 C161 0.931 . S
O142 Co118 2.097 . S
O142 C170 1.214 1_554 S
H143 C171 0.929 . S
H144 C172 0.900 1_556 S
H145 C173 0.930 . S
H146 C174 0.929 . S
H147 C176 0.930 . S
H148 C153 0.930 . S
H149 C157 0.930 . S
O150 Co119 2.037 . S
O150 C170 1.234 . S
C151 O125 1.269 . S
C151 O126 1.257 . S
C152 H127 0.930 . S
C152 C155 1.388 . S
C152 C157 1.418 . S
C153 H148 0.930 . S
C153 C156 1.404 . S
C153 C157 1.353 . S
N154 Co119 2.145 . S
N154 C155 1.397 . S
N154 C156 1.334 . S
C155 H136 0.929 . S
C155 C152 1.388 . S
C155 N154 1.397 . S
C156 H137 0.929 . S
C156 C153 1.404 . S
C156 N154 1.334 . S
C157 H149 0.930 . S
C157 C152 1.418 . S
C157 C153 1.353 . S
C158 H128 0.930 . S
C158 N159 1.330 . S
C158 C160 1.446 . S
N159 Co118 2.151 . S
N159 C158 1.330 . S
N159 C163 1.418 1_554 S
C160 H139 0.929 1_455 S
C160 C158 1.446 . S
C160 C161 1.332 1_455 S
C161 H141 0.931 . S
C161 C160 1.332 1_655 S
C161 C162 1.267 1_654 S
C162 H130 0.929 . S
C162 C161 1.267 1_456 S
C162 C163 1.251 . S
C163 H133 0.929 . S
C163 N159 1.418 1_556 S
C163 C162 1.251 . S
C164 H131 0.930 . S
C164 C166 1.406 . S
C164 C169 1.247 1_554 S
C165 H132 0.930 . S
C165 N167 1.325 1_556 S
C165 C168 1.357 . S
C166 H134 0.928 . S
C166 C164 1.406 . S
C166 N167 1.261 . S
N167 Co118 2.214 . S
N167 C165 1.325 1_554 S
N167 C166 1.261 . S
C168 H138 0.931 . S
C168 C165 1.357 . S
C168 C169 1.324 . S
C169 H140 0.933 . S
C169 C164 1.247 1_556 S
C169 C168 1.324 . S
C170 O142 1.214 1_556 S
C170 O150 1.234 . S
C171 H143 0.929 . S
C171 C174 1.391 . S
C171 C176 1.391 . S
C172 H144 0.900 1_554 S
C172 C173 1.390 . S
C172 N175 1.391 . S
C173 H145 0.930 . S
C173 C172 1.390 . S
C173 C174 1.392 . S
C174 H146 0.929 . S
C174 C171 1.391 . S
C174 C173 1.392 . S
N175 Co119 2.257 1_554 S
N175 C172 1.391 . S
N175 C176 1.388 . S
C176 H147 0.930 . S
C176 C171 1.391 . S
C176 N175 1.388 . S
Co177 O179 2.143 . S
Co177 O185 2.074 1_554 S
Co177 O188 2.093 . S
Co177 O201 2.097 . S
Co177 N218 2.151 . S
Co177 N226 2.214 . S
Co178 O179 2.160 1_556 S
Co178 O184 2.058 . S
Co178 O194 2.057 . S
Co178 O209 2.037 . S
Co178 N213 2.145 . S
Co178 N234 2.257 1_556 S
O179 Co177 2.143 . S
O179 Co178 2.160 1_554 S
C180 O181 1.278 . S
C180 O188 1.224 . S
O181 C180 1.278 . S
C182 O183 1.258 . S
C182 O194 1.232 . S
O183 C182 1.258 . S
O184 Co178 2.058 . S
O184 C210 1.269 . S
O185 Co177 2.074 1_556 S
O185 C210 1.257 . S
H186 C211 0.930 1_655 S
H187 C217 0.930 . S
O188 Co177 2.093 . S
O188 C180 1.224 . S
H189 C221 0.929 . S
H190 C223 0.930 . S
H191 C224 0.930 . S
H192 C222 0.929 . S
H193 C225 0.928 . S
O194 Co178 2.057 . S
O194 C182 1.232 . S
H195 C214 0.929 . S
H196 C215 0.929 . S
H197 C227 0.931 . S
H198 C219 0.929 . S
H199 C228 0.933 . S
H200 C220 0.931 . S
O201 Co177 2.097 . S
O201 C229 1.214 1_554 S
H202 C230 0.929 . S
H203 C231 0.900 1_556 S
H204 C232 0.930 1_655 S
H205 C233 0.929 . S
H206 C235 0.930 . S
H207 C212 0.930 . S
H208 C216 0.922 1_655 S
O209 Co178 2.037 . S
O209 C229 1.234 . S
C210 O184 1.269 . S
C210 O185 1.257 . S
C211 H186 0.930 1_455 S
C211 C214 1.388 . S
C211 C216 1.418 . S
C212 H207 0.930 . S
C212 C215 1.404 . S
C212 C216 1.353 . S
N213 Co178 2.145 . S
N213 C214 1.397 . S
N213 C215 1.334 . S
C214 H195 0.929 . S
C214 C211 1.388 . S
C214 N213 1.397 . S
C215 H196 0.929 . S
C215 C212 1.404 . S
C215 N213 1.334 . S
C216 H208 0.922 1_455 S
C216 C211 1.418 . S
C216 C212 1.353 . S
C217 H187 0.930 . S
C217 N218 1.330 . S
C217 C219 1.446 . S
N218 Co177 2.151 . S
N218 C217 1.330 . S
N218 C222 1.418 1_554 S
C219 H198 0.929 . S
C219 C217 1.446 . S
C219 C220 1.332 . S
C220 H200 0.931 . S
C220 C219 1.332 . S
C220 C221 1.267 1_554 S
C221 H189 0.929 . S
C221 C220 1.267 1_556 S
C221 C222 1.251 . S
C222 H192 0.929 . S
C222 N218 1.418 1_556 S
C222 C221 1.251 . S
C223 H190 0.930 . S
C223 C225 1.406 . S
C223 C228 1.247 1_554 S
C224 H191 0.930 . S
C224 N226 1.325 1_556 S
C224 C227 1.357 . S
C225 H193 0.928 . S
C225 C223 1.406 . S
C225 N226 1.261 . S
N226 Co177 2.214 . S
N226 C224 1.325 1_554 S
N226 C225 1.261 . S
C227 H197 0.931 . S
C227 C224 1.357 . S
C227 C228 1.324 . S
C228 H199 0.933 . S
C228 C223 1.247 1_556 S
C228 C227 1.324 . S
C229 O201 1.214 1_556 S
C229 O209 1.234 . S
C230 H202 0.929 . S
C230 C233 1.391 . S
C230 C235 1.391 . S
C231 H203 0.900 1_554 S
C231 C232 1.390 . S
C231 N234 1.391 . S
C232 H204 0.930 1_455 S
C232 C231 1.390 . S
C232 C233 1.392 . S
C233 H205 0.929 . S
C233 C230 1.391 . S
C233 C232 1.392 . S
N234 Co178 2.257 1_554 S
N234 C231 1.391 . S
N234 C235 1.388 . S
C235 H206 0.930 . S
C235 C230 1.391 . S
C235 N234 1.388 . S
Co236 O238 2.143 . S
Co236 O244 2.074 . S
Co236 O247 2.093 . S
Co236 O260 2.097 . S
Co236 N277 2.151 . S
Co236 N285 2.214 . S
Co237 O238 2.160 . S
Co237 O243 2.058 . S
Co237 O253 2.057 . S
Co237 O268 2.037 . S
Co237 N272 2.145 . S
Co237 N293 2.257 . S
O238 Co236 2.143 . S
O238 Co237 2.160 . S
C239 O240 1.278 . S
C239 O247 1.224 . S
O240 C239 1.278 . S
C241 O242 1.245 . S
C241 O253 1.232 . S
O242 C241 1.245 . S
O243 Co237 2.058 . S
O243 C269 1.269 . S
O244 Co236 2.074 . S
O244 C269 1.257 . S
H245 C270 0.930 . S
H246 C276 0.930 . S
O247 Co236 2.093 . S
O247 C239 1.224 . S
H248 C280 0.929 . S
H249 C282 0.930 . S
H250 C283 0.930 . S
H251 C281 0.929 . S
H252 C284 0.928 . S
O253 Co237 2.057 . S
O253 C241 1.232 . S
H254 C273 0.929 . S
H255 C274 0.929 . S
H256 C286 0.931 . S
H257 C278 0.929 1_455 S
H258 C287 0.930 . S
H259 C279 0.931 . S
O260 Co236 2.097 . S
O260 C288 1.214 . S
H261 C289 0.929 . S
H262 C290 0.929 . S
H263 C291 0.930 . S
H264 C292 0.929 . S
H265 C294 0.930 . S
H266 C271 0.930 . S
H267 C275 0.930 . S
O268 Co237 2.037 . S
O268 C288 1.234 . S
C269 O243 1.269 . S
C269 O244 1.257 . S
C270 H245 0.930 . S
C270 C273 1.388 . S
C270 C275 1.418 . S
C271 H266 0.930 . S
C271 C274 1.404 . S
C271 C275 1.353 . S
N272 Co237 2.145 . S
N272 C273 1.397 . S
N272 C274 1.334 . S
C273 H254 0.929 . S
C273 C270 1.388 . S
C273 N272 1.397 . S
C274 H255 0.929 . S
C274 C271 1.404 . S
C274 N272 1.334 . S
C275 H267 0.930 . S
C275 C270 1.418 . S
C275 C271 1.353 . S
C276 H246 0.930 . S
C276 N277 1.330 . S
C276 C278 1.446 . S
N277 Co236 2.151 . S
N277 C276 1.330 . S
N277 C281 1.418 . S
C278 H257 0.929 1_655 S
C278 C276 1.446 . S
C278 C279 1.332 1_655 S
C279 H259 0.931 . S
C279 C278 1.332 1_455 S
C279 C280 1.267 1_455 S
C280 H248 0.929 . S
C280 C279 1.267 1_655 S
C280 C281 1.251 . S
C281 H251 0.929 . S
C281 N277 1.418 . S
C281 C280 1.251 . S
C282 H249 0.930 . S
C282 C284 1.406 . S
C282 C287 1.261 . S
C283 H250 0.930 . S
C283 N285 1.325 . S
C283 C286 1.357 . S
C284 H252 0.928 . S
C284 C282 1.406 . S
C284 N285 1.261 . S
N285 Co236 2.214 . S
N285 C283 1.325 . S
N285 C284 1.261 . S
C286 H256 0.931 . S
C286 C283 1.357 . S
C286 C287 1.312 . S
C287 H258 0.930 . S
C287 C282 1.261 . S
C287 C286 1.312 . S
C288 O260 1.214 . S
C288 O268 1.234 . S
C289 H261 0.929 . S
C289 C292 1.391 . S
C289 C294 1.391 . S
C290 H262 0.929 . S
C290 C291 1.390 . S
C290 N293 1.391 . S
C291 H263 0.930 . S
C291 C290 1.390 . S
C291 C292 1.392 . S
C292 H264 0.929 . S
C292 C289 1.391 . S
C292 C291 1.392 . S
N293 Co237 2.257 . S
N293 C290 1.391 . S
N293 C294 1.388 . S
C294 H265 0.930 . S
C294 C289 1.391 . S
C294 N293 1.388 . S
Co295 O297 2.143 . S
Co295 O303 2.074 . S
Co295 O306 2.093 . S
Co295 O319 2.097 . S
Co295 N336 2.151 . S
Co295 N344 2.214 . S
Co296 O297 2.160 . S
Co296 O302 2.058 . S
Co296 O312 2.057 . S
Co296 O327 2.037 . S
Co296 N331 2.145 . S
Co296 N352 2.257 . S
O297 Co295 2.143 . S
O297 Co296 2.160 . S
C298 O299 1.278 . S
C298 O306 1.224 . S
O299 C298 1.278 . S
C300 O301 1.245 . S
C300 O312 1.232 . S
O301 C300 1.245 . S
O302 Co296 2.058 . S
O302 C328 1.269 . S
O303 Co295 2.074 . S
O303 C328 1.257 . S
H304 C329 0.930 1_455 S
H305 C335 0.930 . S
O306 Co295 2.093 . S
O306 C298 1.224 . S
H307 C339 0.929 . S
H308 C341 0.930 . S
H309 C342 0.930 . S
H310 C340 0.929 . S
H311 C343 0.928 . S
O312 Co296 2.057 . S
O312 C300 1.232 . S
H313 C332 0.929 . S
H314 C333 0.929 . S
H315 C345 0.931 . S
H316 C337 0.929 . S
H317 C346 0.930 . S
H318 C338 0.931 . S
O319 Co295 2.097 . S
O319 C347 1.214 . S
H320 C348 0.929 . S
H321 C349 0.929 . S
H322 C350 0.930 1_455 S
H323 C351 0.929 . S
H324 C353 0.930 . S
H325 C330 0.930 . S
H326 C334 0.922 1_455 S
O327 Co296 2.037 . S
O327 C347 1.234 . S
C328 O302 1.269 . S
C328 O303 1.257 . S
C329 H304 0.930 1_655 S
C329 C332 1.388 . S
C329 C334 1.418 . S
C330 H325 0.930 . S
C330 C333 1.404 . S
C330 C334 1.353 . S
N331 Co296 2.145 . S
N331 C332 1.397 . S
N331 C333 1.334 . S
C332 H313 0.929 . S
C332 C329 1.388 . S
C332 N331 1.397 . S
C333 H314 0.929 . S
C333 C330 1.404 . S
C333 N331 1.334 . S
C334 H326 0.922 1_655 S
C334 C329 1.418 . S
C334 C330 1.353 . S
C335 H305 0.930 . S
C335 N336 1.330 . S
C335 C337 1.446 . S
N336 Co295 2.151 . S
N336 C335 1.330 . S
N336 C340 1.418 . S
C337 H316 0.929 . S
C337 C335 1.446 . S
C337 C338 1.332 . S
C338 H318 0.931 . S
C338 C337 1.332 . S
C338 C339 1.267 . S
C339 H307 0.929 . S
C339 C338 1.267 . S
C339 C340 1.251 . S
C340 H310 0.929 . S
C340 N336 1.418 . S
C340 C339 1.251 . S
C341 H308 0.930 . S
C341 C343 1.406 . S
C341 C346 1.261 . S
C342 H309 0.930 . S
C342 N344 1.325 . S
C342 C345 1.357 . S
C343 H311 0.928 . S
C343 C341 1.406 . S
C343 N344 1.261 . S
N344 Co295 2.214 . S
N344 C342 1.325 . S
N344 C343 1.261 . S
C345 H315 0.931 . S
C345 C342 1.357 . S
C345 C346 1.312 . S
C346 H317 0.930 . S
C346 C341 1.261 . S
C346 C345 1.312 . S
C347 O319 1.214 . S
C347 O327 1.234 . S
C348 H320 0.929 . S
C348 C351 1.391 . S
C348 C353 1.391 . S
C349 H321 0.929 . S
C349 C350 1.390 . S
C349 N352 1.391 . S
C350 H322 0.930 1_655 S
C350 C349 1.390 . S
C350 C351 1.392 . S
C351 H323 0.929 . S
C351 C348 1.391 . S
C351 C350 1.392 . S
N352 Co296 2.257 . S
N352 C349 1.391 . S
N352 C353 1.388 . S
C353 H324 0.930 . S
C353 C348 1.391 . S
C353 N352 1.388 . S
Co354 O356 2.143 . S
Co354 O362 2.074 1_556 S
Co354 O365 2.093 . S
Co354 O378 2.097 . S
Co354 N395 2.151 . S
Co354 N403 2.214 . S
Co355 O356 2.160 1_554 S
Co355 O361 2.058 . S
Co355 O371 2.057 . S
Co355 O386 2.037 . S
Co355 N390 2.145 . S
Co355 N411 2.257 1_554 S
O356 Co354 2.143 . S
O356 Co355 2.160 1_556 S
C357 O358 1.278 . S
C357 O365 1.224 . S
O358 C357 1.278 . S
C359 O360 1.258 . S
C359 O371 1.232 . S
O360 C359 1.258 . S
O361 Co355 2.058 . S
O361 C387 1.269 . S
O362 Co354 2.074 1_554 S
O362 C387 1.257 . S
H363 C388 0.930 . S
H364 C394 0.930 . S
O365 Co354 2.093 . S
O365 C357 1.224 . S
H366 C398 0.929 . S
H367 C400 0.930 . S
H368 C401 0.930 . S
H369 C399 0.929 . S
H370 C402 0.928 . S
O371 Co355 2.057 . S
O371 C359 1.232 . S
H372 C391 0.929 . S
H373 C392 0.929 . S
H374 C404 0.931 . S
H375 C396 0.929 1_455 S
H376 C405 0.933 . S
H377 C397 0.931 . S
O378 Co354 2.097 . S
O378 C406 1.214 1_556 S
H379 C407 0.929 . S
H380 C408 0.900 1_554 S
H381 C409 0.930 . S
H382 C410 0.929 . S
H383 C412 0.930 . S
H384 C389 0.930 . S
H385 C393 0.930 . S
O386 Co355 2.037 . S
O386 C406 1.234 . S
C387 O361 1.269 . S
C387 O362 1.257 . S
C388 H363 0.930 . S
C388 C391 1.388 . S
C388 C393 1.418 . S
C389 H384 0.930 . S
C389 C392 1.404 . S
C389 C393 1.353 . S
N390 Co355 2.145 . S
N390 C391 1.397 . S
N390 C392 1.334 . S
C391 H372 0.929 . S
C391 C388 1.388 . S
C391 N390 1.397 . S
C392 H373 0.929 . S
C392 C389 1.404 . S
C392 N390 1.334 . S
C393 H385 0.930 . S
C393 C388 1.418 . S
C393 C389 1.353 . S
C394 H364 0.930 . S
C394 N395 1.330 . S
C394 C396 1.446 . S
N395 Co354 2.151 . S
N395 C394 1.330 . S
N395 C399 1.418 1_556 S
C396 H375 0.929 1_655 S
C396 C394 1.446 . S
C396 C397 1.332 1_655 S
C397 H377 0.931 . S
C397 C396 1.332 1_455 S
C397 C398 1.267 1_456 S
C398 H366 0.929 . S
C398 C397 1.267 1_654 S
C398 C399 1.251 . S
C399 H369 0.929 . S
C399 N395 1.418 1_554 S
C399 C398 1.251 . S
C400 H367 0.930 . S
C400 C402 1.406 . S
C400 C405 1.247 1_556 S
C401 H368 0.930 . S
C401 N403 1.325 1_554 S
C401 C404 1.357 . S
C402 H370 0.928 . S
C402 C400 1.406 . S
C402 N403 1.261 . S
N403 Co354 2.214 . S
N403 C401 1.325 1_556 S
N403 C402 1.261 . S
C404 H374 0.931 . S
C404 C401 1.357 . S
C404 C405 1.324 . S
C405 H376 0.933 . S
C405 C400 1.247 1_554 S
C405 C404 1.324 . S
C406 O378 1.214 1_554 S
C406 O386 1.234 . S
C407 H379 0.929 . S
C407 C410 1.391 . S
C407 C412 1.391 . S
C408 H380 0.900 1_556 S
C408 C409 1.390 . S
C408 N411 1.391 . S
C409 H381 0.930 . S
C409 C408 1.390 . S
C409 C410 1.392 . S
C410 H382 0.929 . S
C410 C407 1.391 . S
C410 C409 1.392 . S
N411 Co355 2.257 1_556 S
N411 C408 1.391 . S
N411 C412 1.388 . S
C412 H383 0.930 . S
C412 C407 1.391 . S
C412 N411 1.388 . S
Co413 O415 2.143 . S
Co413 O421 2.074 1_556 S
Co413 O424 2.093 . S
Co413 O437 2.097 . S
Co413 N454 2.151 . S
Co413 N462 2.214 . S
Co414 O415 2.160 1_554 S
Co414 O420 2.058 . S
Co414 O430 2.057 . S
Co414 O445 2.037 . S
Co414 N449 2.145 . S
Co414 N470 2.257 1_554 S
O415 Co413 2.143 . S
O415 Co414 2.160 1_556 S
C416 O417 1.278 . S
C416 O424 1.224 . S
O417 C416 1.278 . S
C418 O419 1.258 . S
C418 O430 1.232 . S
O419 C418 1.258 . S
O420 Co414 2.058 . S
O420 C446 1.269 . S
O421 Co413 2.074 1_554 S
O421 C446 1.257 . S
H422 C447 0.930 1_455 S
H423 C453 0.930 . S
O424 Co413 2.093 . S
O424 C416 1.224 . S
H425 C457 0.929 . S
H426 C459 0.930 . S
H427 C460 0.930 . S
H428 C458 0.929 . S
H429 C461 0.928 . S
O430 Co414 2.057 . S
O430 C418 1.232 . S
H431 C450 0.929 . S
H432 C451 0.929 . S
H433 C463 0.931 . S
H434 C455 0.929 . S
H435 C464 0.933 . S
H436 C456 0.931 . S
O437 Co413 2.097 . S
O437 C465 1.214 1_556 S
H438 C466 0.929 . S
H439 C467 0.900 1_554 S
H440 C468 0.930 1_455 S
H441 C469 0.929 . S
H442 C471 0.930 . S
H443 C448 0.930 . S
H444 C452 0.922 1_455 S
O445 Co414 2.037 . S
O445 C465 1.234 . S
C446 O420 1.269 . S
C446 O421 1.257 . S
C447 H422 0.930 1_655 S
C447 C450 1.388 . S
C447 C452 1.418 . S
C448 H443 0.930 . S
C448 C451 1.404 . S
C448 C452 1.353 . S
N449 Co414 2.145 . S
N449 C450 1.397 . S
N449 C451 1.334 . S
C450 H431 0.929 . S
C450 C447 1.388 . S
C450 N449 1.397 . S
C451 H432 0.929 . S
C451 C448 1.404 . S
C451 N449 1.334 . S
C452 H444 0.922 1_655 S
C452 C447 1.418 . S
C452 C448 1.353 . S
C453 H423 0.930 . S
C453 N454 1.330 . S
C453 C455 1.446 . S
N454 Co413 2.151 . S
N454 C453 1.330 . S
N454 C458 1.418 1_556 S
C455 H434 0.929 . S
C455 C453 1.446 . S
C455 C456 1.332 . S
C456 H436 0.931 . S
C456 C455 1.332 . S
C456 C457 1.267 1_556 S
C457 H425 0.929 . S
C457 C456 1.267 1_554 S
C457 C458 1.251 . S
C458 H428 0.929 . S
C458 N454 1.418 1_554 S
C458 C457 1.251 . S
C459 H426 0.930 . S
C459 C461 1.406 . S
C459 C464 1.247 1_556 S
C460 H427 0.930 . S
C460 N462 1.325 1_554 S
C460 C463 1.357 . S
C461 H429 0.928 . S
C461 C459 1.406 . S
C461 N462 1.261 . S
N462 Co413 2.214 . S
N462 C460 1.325 1_556 S
N462 C461 1.261 . S
C463 H433 0.931 . S
C463 C460 1.357 . S
C463 C464 1.324 . S
C464 H435 0.933 . S
C464 C459 1.247 1_554 S
C464 C463 1.324 . S
C465 O437 1.214 1_554 S
C465 O445 1.234 . S
C466 H438 0.929 . S
C466 C469 1.391 . S
C466 C471 1.391 . S
C467 H439 0.900 1_556 S
C467 C468 1.390 . S
C467 N470 1.391 . S
C468 H440 0.930 1_655 S
C468 C467 1.390 . S
C468 C469 1.392 . S
C469 H441 0.929 . S
C469 C466 1.391 . S
C469 C468 1.392 . S
N470 Co414 2.257 1_556 S
N470 C467 1.391 . S
N470 C471 1.388 . S
C471 H442 0.930 . S
C471 C466 1.391 . S
C471 N470 1.388 . S
Co472 O474 2.143 . S
Co472 O480 2.074 . S
Co472 O483 2.093 . S
Co472 O496 2.097 . S
Co472 N513 2.151 . S
Co472 N521 2.214 . S
Co473 O474 2.160 . S
Co473 O479 2.058 . S
Co473 O489 2.057 . S
Co473 O504 2.037 . S
Co473 N508 2.145 . S
Co473 N529 2.257 . S
O474 Co472 2.143 . S
O474 Co473 2.160 . S
C475 O476 1.278 . S
C475 O483 1.224 . S
O476 C475 1.278 . S
C477 O478 1.245 . S
C477 O489 1.232 . S
O478 C477 1.245 . S
O479 Co473 2.058 . S
O479 C505 1.269 . S
O480 Co472 2.074 . S
O480 C505 1.257 . S
H481 C506 0.930 . S
H482 C512 0.930 . S
O483 Co472 2.093 . S
O483 C475 1.224 . S
H484 C516 0.929 . S
H485 C518 0.930 . S
H486 C519 0.930 . S
H487 C517 0.929 . S
H488 C520 0.928 . S
O489 Co473 2.057 . S
O489 C477 1.232 . S
H490 C509 0.929 . S
H491 C510 0.929 . S
H492 C522 0.931 . S
H493 C514 0.929 1_655 S
H494 C523 0.930 . S
H495 C515 0.931 . S
O496 Co472 2.097 . S
O496 C524 1.214 . S
H497 C525 0.929 . S
H498 C526 0.929 . S
H499 C527 0.930 . S
H500 C528 0.929 . S
H501 C530 0.930 . S
H502 C507 0.930 . S
H503 C511 0.930 . S
O504 Co473 2.037 . S
O504 C524 1.234 . S
C505 O479 1.269 . S
C505 O480 1.257 . S
C506 H481 0.930 . S
C506 C509 1.388 . S
C506 C511 1.418 . S
C507 H502 0.930 . S
C507 C510 1.404 . S
C507 C511 1.353 . S
N508 Co473 2.145 . S
N508 C509 1.397 . S
N508 C510 1.334 . S
C509 H490 0.929 . S
C509 C506 1.388 . S
C509 N508 1.397 . S
C510 H491 0.929 . S
C510 C507 1.404 . S
C510 N508 1.334 . S
C511 H503 0.930 . S
C511 C506 1.418 . S
C511 C507 1.353 . S
C512 H482 0.930 . S
C512 N513 1.330 . S
C512 C514 1.446 . S
N513 Co472 2.151 . S
N513 C512 1.330 . S
N513 C517 1.418 . S
C514 H493 0.929 1_455 S
C514 C512 1.446 . S
C514 C515 1.332 1_455 S
C515 H495 0.931 . S
C515 C514 1.332 1_655 S
C515 C516 1.267 1_655 S
C516 H484 0.929 . S
C516 C515 1.267 1_455 S
C516 C517 1.251 . S
C517 H487 0.929 . S
C517 N513 1.418 . S
C517 C516 1.251 . S
C518 H485 0.930 . S
C518 C520 1.406 . S
C518 C523 1.261 . S
C519 H486 0.930 . S
C519 N521 1.325 . S
C519 C522 1.357 . S
C520 H488 0.928 . S
C520 C518 1.406 . S
C520 N521 1.261 . S
N521 Co472 2.214 . S
N521 C519 1.325 . S
N521 C520 1.261 . S
C522 H492 0.931 . S
C522 C519 1.357 . S
C522 C523 1.312 . S
C523 H494 0.930 . S
C523 C518 1.261 . S
C523 C522 1.312 . S
C524 O496 1.214 . S
C524 O504 1.234 . S
C525 H497 0.929 . S
C525 C528 1.391 . S
C525 C530 1.391 . S
C526 H498 0.929 . S
C526 C527 1.390 . S
C526 N529 1.391 . S
C527 H499 0.930 . S
C527 C526 1.390 . S
C527 C528 1.392 . S
C528 H500 0.929 . S
C528 C525 1.391 . S
C528 C527 1.392 . S
N529 Co473 2.257 . S
N529 C526 1.391 . S
N529 C530 1.388 . S
C530 H501 0.930 . S
C530 C525 1.391 . S
C530 N529 1.388 . S
Co531 O533 2.143 . S
Co531 O539 2.074 . S
Co531 O542 2.093 . S
Co531 O555 2.097 . S
Co531 N572 2.151 . S
Co531 N580 2.214 . S
Co532 O533 2.160 . S
Co532 O538 2.058 . S
Co532 O548 2.057 . S
Co532 O563 2.037 . S
Co532 N567 2.145 . S
Co532 N588 2.257 . S
O533 Co531 2.143 . S
O533 Co532 2.160 . S
C534 O535 1.278 . S
C534 O542 1.224 . S
O535 C534 1.278 . S
C536 O537 1.245 . S
C536 O548 1.232 . S
O537 C536 1.245 . S
O538 Co532 2.058 . S
O538 C564 1.269 . S
O539 Co531 2.074 . S
O539 C564 1.257 . S
H540 C565 0.930 1_655 S
H541 C571 0.930 . S
O542 Co531 2.093 . S
O542 C534 1.224 . S
H543 C575 0.929 . S
H544 C577 0.930 . S
H545 C578 0.930 . S
H546 C576 0.929 . S
H547 C579 0.928 . S
O548 Co532 2.057 . S
O548 C536 1.232 . S
H549 C568 0.929 . S
H550 C569 0.929 . S
H551 C581 0.931 . S
H552 C573 0.929 . S
H553 C582 0.930 . S
H554 C574 0.931 . S
O555 Co531 2.097 . S
O555 C583 1.214 . S
H556 C584 0.929 . S
H557 C585 0.929 . S
H558 C586 0.930 1_655 S
H559 C587 0.929 . S
H560 C589 0.930 . S
H561 C566 0.930 . S
H562 C570 0.922 1_655 S
O563 Co532 2.037 . S
O563 C583 1.234 . S
C564 O538 1.269 . S
C564 O539 1.257 . S
C565 H540 0.930 1_455 S
C565 C568 1.388 . S
C565 C570 1.418 . S
C566 H561 0.930 . S
C566 C569 1.404 . S
C566 C570 1.353 . S
N567 Co532 2.145 . S
N567 C568 1.397 . S
N567 C569 1.334 . S
C568 H549 0.929 . S
C568 C565 1.388 . S
C568 N567 1.397 . S
C569 H550 0.929 . S
C569 C566 1.404 . S
C569 N567 1.334 . S
C570 H562 0.922 1_455 S
C570 C565 1.418 . S
C570 C566 1.353 . S
C571 H541 0.930 . S
C571 N572 1.330 . S
C571 C573 1.446 . S
N572 Co531 2.151 . S
N572 C571 1.330 . S
N572 C576 1.418 . S
C573 H552 0.929 . S
C573 C571 1.446 . S
C573 C574 1.332 . S
C574 H554 0.931 . S
C574 C573 1.332 . S
C574 C575 1.267 . S
C575 H543 0.929 . S
C575 C574 1.267 . S
C575 C576 1.251 . S
C576 H546 0.929 . S
C576 N572 1.418 . S
C576 C575 1.251 . S
C577 H544 0.930 . S
C577 C579 1.406 . S
C577 C582 1.261 . S
C578 H545 0.930 . S
C578 N580 1.325 . S
C578 C581 1.357 . S
C579 H547 0.928 . S
C579 C577 1.406 . S
C579 N580 1.261 . S
N580 Co531 2.214 . S
N580 C578 1.325 . S
N580 C579 1.261 . S
C581 H551 0.931 . S
C581 C578 1.357 . S
C581 C582 1.312 . S
C582 H553 0.930 . S
C582 C577 1.261 . S
C582 C581 1.312 . S
C583 O555 1.214 . S
C583 O563 1.234 . S
C584 H556 0.929 . S
C584 C587 1.391 . S
C584 C589 1.391 . S
C585 H557 0.929 . S
C585 C586 1.390 . S
C585 N588 1.391 . S
C586 H558 0.930 1_455 S
C586 C585 1.390 . S
C586 C587 1.392 . S
C587 H559 0.929 . S
C587 C584 1.391 . S
C587 C586 1.392 . S
N588 Co532 2.257 . S
N588 C585 1.391 . S
N588 C589 1.388 . S
C589 H560 0.930 . S
C589 C584 1.391 . S
C589 N588 1.388 . S
Co590 O592 2.143 . S
Co590 O598 2.074 . S
Co590 O601 2.093 . S
Co590 O614 2.097 . S
Co590 N631 2.151 . S
Co590 N639 2.214 . S
Co591 O592 2.160 . S
Co591 O597 2.058 . S
Co591 O607 2.057 . S
Co591 O622 2.037 . S
Co591 N626 2.145 . S
Co591 N647 2.257 . S
O592 Co590 2.143 . S
O592 Co591 2.160 . S
C593 O594 1.278 . S
C593 O601 1.224 . S
O594 C593 1.278 . S
C595 O596 1.245 . S
C595 O607 1.232 . S
O596 C595 1.245 . S
O597 Co591 2.058 . S
O597 C623 1.269 . S
O598 Co590 2.074 . S
O598 C623 1.257 . S
H599 C624 0.930 . S
H600 C630 0.930 . S
O601 Co590 2.093 . S
O601 C593 1.224 . S
H602 C634 0.929 . S
H603 C636 0.930 . S
H604 C637 0.930 . S
H605 C635 0.929 . S
H606 C638 0.928 . S
O607 Co591 2.057 . S
O607 C595 1.232 . S
H608 C627 0.929 . S
H609 C628 0.929 . S
H610 C640 0.931 . S
H611 C632 0.929 1_655 S
H612 C641 0.930 . S
H613 C633 0.931 . S
O614 Co590 2.097 . S
O614 C642 1.214 . S
H615 C643 0.929 . S
H616 C644 0.929 . S
H617 C645 0.930 . S
H618 C646 0.929 . S
H619 C648 0.930 . S
H620 C625 0.930 . S
H621 C629 0.930 . S
O622 Co591 2.037 . S
O622 C642 1.234 . S
C623 O597 1.269 . S
C623 O598 1.257 . S
C624 H599 0.930 . S
C624 C627 1.388 . S
C624 C629 1.418 . S
C625 H620 0.930 . S
C625 C628 1.404 . S
C625 C629 1.353 . S
N626 Co591 2.145 . S
N626 C627 1.397 . S
N626 C628 1.334 . S
C627 H608 0.929 . S
C627 C624 1.388 . S
C627 N626 1.397 . S
C628 H609 0.929 . S
C628 C625 1.404 . S
C628 N626 1.334 . S
C629 H621 0.930 . S
C629 C624 1.418 . S
C629 C625 1.353 . S
C630 H600 0.930 . S
C630 N631 1.330 . S
C630 C632 1.446 . S
N631 Co590 2.151 . S
N631 C630 1.330 . S
N631 C635 1.418 . S
C632 H611 0.929 1_455 S
C632 C630 1.446 . S
C632 C633 1.332 1_455 S
C633 H613 0.931 . S
C633 C632 1.332 1_655 S
C633 C634 1.267 1_655 S
C634 H602 0.929 . S
C634 C633 1.267 1_455 S
C634 C635 1.251 . S
C635 H605 0.929 . S
C635 N631 1.418 . S
C635 C634 1.251 . S
C636 H603 0.930 . S
C636 C638 1.406 . S
C636 C641 1.261 . S
C637 H604 0.930 . S
C637 N639 1.325 . S
C637 C640 1.357 . S
C638 H606 0.928 . S
C638 C636 1.406 . S
C638 N639 1.261 . S
N639 Co590 2.214 . S
N639 C637 1.325 . S
N639 C638 1.261 . S
C640 H610 0.931 . S
C640 C637 1.357 . S
C640 C641 1.312 . S
C641 H612 0.930 . S
C641 C636 1.261 . S
C641 C640 1.312 . S
C642 O614 1.214 . S
C642 O622 1.234 . S
C643 H615 0.929 . S
C643 C646 1.391 . S
C643 C648 1.391 . S
C644 H616 0.929 . S
C644 C645 1.390 . S
C644 N647 1.391 . S
C645 H617 0.930 . S
C645 C644 1.390 . S
C645 C646 1.392 . S
C646 H618 0.929 . S
C646 C643 1.391 . S
C646 C645 1.392 . S
N647 Co591 2.257 . S
N647 C644 1.391 . S
N647 C648 1.388 . S
C648 H619 0.930 . S
C648 C643 1.391 . S
C648 N647 1.388 . S
Co649 O651 2.143 . S
Co649 O657 2.074 . S
Co649 O660 2.093 . S
Co649 O673 2.097 . S
Co649 N690 2.151 . S
Co649 N698 2.214 . S
Co650 O651 2.160 . S
Co650 O656 2.058 . S
Co650 O666 2.057 . S
Co650 O681 2.037 . S
Co650 N685 2.145 . S
Co650 N706 2.257 . S
O651 Co649 2.143 . S
O651 Co650 2.160 . S
C652 O653 1.278 . S
C652 O660 1.224 . S
O653 C652 1.278 . S
C654 O655 1.245 . S
C654 O666 1.232 . S
O655 C654 1.245 . S
O656 Co650 2.058 . S
O656 C682 1.269 . S
O657 Co649 2.074 . S
O657 C682 1.257 . S
H658 C683 0.930 1_655 S
H659 C689 0.930 . S
O660 Co649 2.093 . S
O660 C652 1.224 . S
H661 C693 0.929 . S
H662 C695 0.930 . S
H663 C696 0.930 . S
H664 C694 0.929 . S
H665 C697 0.928 . S
O666 Co650 2.057 . S
O666 C654 1.232 . S
H667 C686 0.929 . S
H668 C687 0.929 . S
H669 C699 0.931 . S
H670 C691 0.929 . S
H671 C700 0.930 . S
H672 C692 0.931 . S
O673 Co649 2.097 . S
O673 C701 1.214 . S
H674 C702 0.929 . S
H675 C703 0.929 . S
H676 C704 0.930 1_655 S
H677 C705 0.929 . S
H678 C707 0.930 . S
H679 C684 0.930 . S
H680 C688 0.923 1_655 S
O681 Co650 2.037 . S
O681 C701 1.234 . S
C682 O656 1.269 . S
C682 O657 1.257 . S
C683 H658 0.930 1_455 S
C683 C686 1.388 . S
C683 C688 1.418 . S
C684 H679 0.930 . S
C684 C687 1.404 . S
C684 C688 1.353 . S
N685 Co650 2.145 . S
N685 C686 1.397 . S
N685 C687 1.334 . S
C686 H667 0.929 . S
C686 C683 1.388 . S
C686 N685 1.397 . S
C687 H668 0.929 . S
C687 C684 1.404 . S
C687 N685 1.334 . S
C688 H680 0.923 1_455 S
C688 C683 1.418 . S
C688 C684 1.353 . S
C689 H659 0.930 . S
C689 N690 1.330 . S
C689 C691 1.446 . S
N690 Co649 2.151 . S
N690 C689 1.330 . S
N690 C694 1.418 . S
C691 H670 0.929 . S
C691 C689 1.446 . S
C691 C692 1.332 . S
C692 H672 0.931 . S
C692 C691 1.332 . S
C692 C693 1.267 . S
C693 H661 0.929 . S
C693 C692 1.267 . S
C693 C694 1.251 . S
C694 H664 0.929 . S
C694 N690 1.418 . S
C694 C693 1.251 . S
C695 H662 0.930 . S
C695 C697 1.406 . S
C695 C700 1.261 . S
C696 H663 0.930 . S
C696 N698 1.325 . S
C696 C699 1.357 . S
C697 H665 0.928 . S
C697 C695 1.406 . S
C697 N698 1.261 . S
N698 Co649 2.214 . S
N698 C696 1.325 . S
N698 C697 1.261 . S
C699 H669 0.931 . S
C699 C696 1.357 . S
C699 C700 1.312 . S
C700 H671 0.930 . S
C700 C695 1.261 . S
C700 C699 1.312 . S
C701 O673 1.214 . S
C701 O681 1.234 . S
C702 H674 0.929 . S
C702 C705 1.391 . S
C702 C707 1.391 . S
C703 H675 0.929 . S
C703 C704 1.390 . S
C703 N706 1.391 . S
C704 H676 0.930 1_455 S
C704 C703 1.390 . S
C704 C705 1.392 . S
C705 H677 0.929 . S
C705 C702 1.391 . S
C705 C704 1.392 . S
N706 Co650 2.257 . S
N706 C703 1.391 . S
N706 C707 1.388 . S
C707 H678 0.930 . S
C707 C702 1.391 . S
C707 N706 1.388 . S
Co708 O710 2.143 . S
Co708 O716 2.074 . S
Co708 O719 2.093 . S
Co708 O732 2.097 . S
Co708 N749 2.151 . S
Co708 N757 2.214 . S
Co709 O710 2.160 . S
Co709 O715 2.058 . S
Co709 O725 2.057 . S
Co709 O740 2.037 . S
Co709 N744 2.145 . S
Co709 N765 2.257 . S
O710 Co708 2.143 . S
O710 Co709 2.160 . S
C711 O712 1.278 . S
C711 O719 1.224 . S
O712 C711 1.278 . S
C713 O714 1.245 . S
C713 O725 1.232 . S
O714 C713 1.245 . S
O715 Co709 2.058 . S
O715 C741 1.269 . S
O716 Co708 2.074 . S
O716 C741 1.257 . S
H717 C742 0.930 . S
H718 C748 0.930 . S
O719 Co708 2.093 . S
O719 C711 1.224 . S
H720 C752 0.929 . S
H721 C754 0.930 . S
H722 C755 0.930 . S
H723 C753 0.929 . S
H724 C756 0.928 . S
O725 Co709 2.057 . S
O725 C713 1.232 . S
H726 C745 0.929 . S
H727 C746 0.929 . S
H728 C758 0.931 . S
H729 C750 0.929 1_455 S
H730 C759 0.930 . S
H731 C751 0.931 . S
O732 Co708 2.097 . S
O732 C760 1.214 . S
H733 C761 0.929 . S
H734 C762 0.929 . S
H735 C763 0.930 . S
H736 C764 0.929 . S
H737 C766 0.930 . S
H738 C743 0.930 . S
H739 C747 0.930 . S
O740 Co709 2.037 . S
O740 C760 1.234 . S
C741 O715 1.269 . S
C741 O716 1.257 . S
C742 H717 0.930 . S
C742 C745 1.388 . S
C742 C747 1.418 . S
C743 H738 0.930 . S
C743 C746 1.404 . S
C743 C747 1.353 . S
N744 Co709 2.145 . S
N744 C745 1.397 . S
N744 C746 1.334 . S
C745 H726 0.929 . S
C745 C742 1.388 . S
C745 N744 1.397 . S
C746 H727 0.929 . S
C746 C743 1.404 . S
C746 N744 1.334 . S
C747 H739 0.930 . S
C747 C742 1.418 . S
C747 C743 1.353 . S
C748 H718 0.930 . S
C748 N749 1.330 . S
C748 C750 1.446 . S
N749 Co708 2.151 . S
N749 C748 1.330 . S
N749 C753 1.418 . S
C750 H729 0.929 1_655 S
C750 C748 1.446 . S
C750 C751 1.332 1_655 S
C751 H731 0.931 . S
C751 C750 1.332 1_455 S
C751 C752 1.267 1_455 S
C752 H720 0.929 . S
C752 C751 1.267 1_655 S
C752 C753 1.251 . S
C753 H723 0.929 . S
C753 N749 1.418 . S
C753 C752 1.251 . S
C754 H721 0.930 . S
C754 C756 1.406 . S
C754 C759 1.261 . S
C755 H722 0.930 . S
C755 N757 1.325 . S
C755 C758 1.357 . S
C756 H724 0.928 . S
C756 C754 1.406 . S
C756 N757 1.261 . S
N757 Co708 2.214 . S
N757 C755 1.325 . S
N757 C756 1.261 . S
C758 H728 0.931 . S
C758 C755 1.357 . S
C758 C759 1.312 . S
C759 H730 0.930 . S
C759 C754 1.261 . S
C759 C758 1.312 . S
C760 O732 1.214 . S
C760 O740 1.234 . S
C761 H733 0.929 . S
C761 C764 1.391 . S
C761 C766 1.391 . S
C762 H734 0.929 . S
C762 C763 1.390 . S
C762 N765 1.391 . S
C763 H735 0.930 . S
C763 C762 1.390 . S
C763 C764 1.392 . S
C764 H736 0.929 . S
C764 C761 1.391 . S
C764 C763 1.392 . S
N765 Co709 2.257 . S
N765 C762 1.391 . S
N765 C766 1.388 . S
C766 H737 0.930 . S
C766 C761 1.391 . S
C766 N765 1.388 . S
Co767 O769 2.143 . S
Co767 O775 2.074 . S
Co767 O778 2.093 . S
Co767 O791 2.097 . S
Co767 N808 2.151 . S
Co767 N816 2.214 . S
Co768 O769 2.160 . S
Co768 O774 2.058 . S
Co768 O784 2.057 . S
Co768 O799 2.037 . S
Co768 N803 2.145 . S
Co768 N824 2.257 . S
O769 Co767 2.143 . S
O769 Co768 2.160 . S
C770 O771 1.278 . S
C770 O778 1.224 . S
O771 C770 1.278 . S
C772 O773 1.245 . S
C772 O784 1.232 . S
O773 C772 1.245 . S
O774 Co768 2.058 . S
O774 C800 1.269 . S
O775 Co767 2.074 . S
O775 C800 1.257 . S
H776 C801 0.930 1_455 S
H777 C807 0.930 . S
O778 Co767 2.093 . S
O778 C770 1.224 . S
H779 C811 0.929 . S
H780 C813 0.930 . S
H781 C814 0.930 . S
H782 C812 0.929 . S
H783 C815 0.928 . S
O784 Co768 2.057 . S
O784 C772 1.232 . S
H785 C804 0.929 . S
H786 C805 0.929 . S
H787 C817 0.931 . S
H788 C809 0.929 . S
H789 C818 0.930 . S
H790 C810 0.931 . S
O791 Co767 2.097 . S
O791 C819 1.214 . S
H792 C820 0.929 . S
H793 C821 0.929 . S
H794 C822 0.930 1_455 S
H795 C823 0.929 . S
H796 C825 0.930 . S
H797 C802 0.930 . S
H798 C806 0.922 1_455 S
O799 Co768 2.037 . S
O799 C819 1.234 . S
C800 O774 1.269 . S
C800 O775 1.257 . S
C801 H776 0.930 1_655 S
C801 C804 1.388 . S
C801 C806 1.418 . S
C802 H797 0.930 . S
C802 C805 1.404 . S
C802 C806 1.353 . S
N803 Co768 2.145 . S
N803 C804 1.397 . S
N803 C805 1.334 . S
C804 H785 0.929 . S
C804 C801 1.388 . S
C804 N803 1.397 . S
C805 H786 0.929 . S
C805 C802 1.404 . S
C805 N803 1.334 . S
C806 H798 0.922 1_655 S
C806 C801 1.418 . S
C806 C802 1.353 . S
C807 H777 0.930 . S
C807 N808 1.330 . S
C807 C809 1.446 . S
N808 Co767 2.151 . S
N808 C807 1.330 . S
N808 C812 1.418 . S
C809 H788 0.929 . S
C809 C807 1.446 . S
C809 C810 1.332 . S
C810 H790 0.931 . S
C810 C809 1.332 . S
C810 C811 1.267 . S
C811 H779 0.929 . S
C811 C810 1.267 . S
C811 C812 1.251 . S
C812 H782 0.929 . S
C812 N808 1.418 . S
C812 C811 1.251 . S
C813 H780 0.930 . S
C813 C815 1.406 . S
C813 C818 1.261 . S
C814 H781 0.930 . S
C814 N816 1.325 . S
C814 C817 1.357 . S
C815 H783 0.928 . S
C815 C813 1.406 . S
C815 N816 1.261 . S
N816 Co767 2.214 . S
N816 C814 1.325 . S
N816 C815 1.261 . S
C817 H787 0.931 . S
C817 C814 1.357 . S
C817 C818 1.312 . S
C818 H789 0.930 . S
C818 C813 1.261 . S
C818 C817 1.312 . S
C819 O791 1.214 . S
C819 O799 1.234 . S
C820 H792 0.929 . S
C820 C823 1.391 . S
C820 C825 1.391 . S
C821 H793 0.929 . S
C821 C822 1.390 . S
C821 N824 1.391 . S
C822 H794 0.930 1_655 S
C822 C821 1.390 . S
C822 C823 1.392 . S
C823 H795 0.929 . S
C823 C820 1.391 . S
C823 C822 1.392 . S
N824 Co768 2.257 . S
N824 C821 1.391 . S
N824 C825 1.388 . S
C825 H796 0.930 . S
C825 C820 1.391 . S
C825 N824 1.388 . S
Co826 O828 2.143 . S
Co826 O834 2.074 . S
Co826 O837 2.093 . S
Co826 O850 2.097 . S
Co826 N867 2.151 . S
Co826 N875 2.214 . S
Co827 O828 2.160 . S
Co827 O833 2.058 . S
Co827 O843 2.057 . S
Co827 O858 2.037 . S
Co827 N862 2.145 . S
Co827 N883 2.257 . S
O828 Co826 2.143 . S
O828 Co827 2.160 . S
C829 O830 1.278 . S
C829 O837 1.224 . S
O830 C829 1.278 . S
C831 O832 1.245 . S
C831 O843 1.232 . S
O832 C831 1.245 . S
O833 Co827 2.058 . S
O833 C859 1.269 . S
O834 Co826 2.074 . S
O834 C859 1.257 . S
H835 C860 0.930 . S
H836 C866 0.930 . S
O837 Co826 2.093 . S
O837 C829 1.224 . S
H838 C870 0.929 . S
H839 C872 0.930 . S
H840 C873 0.930 . S
H841 C871 0.929 . S
H842 C874 0.928 . S
O843 Co827 2.057 . S
O843 C831 1.232 . S
H844 C863 0.929 . S
H845 C864 0.929 . S
H846 C876 0.931 . S
H847 C868 0.929 1_455 S
H848 C877 0.930 . S
H849 C869 0.931 . S
O850 Co826 2.097 . S
O850 C878 1.214 . S
H851 C879 0.929 . S
H852 C880 0.929 . S
H853 C881 0.930 . S
H854 C882 0.929 . S
H855 C884 0.930 . S
H856 C861 0.930 . S
H857 C865 0.930 . S
O858 Co827 2.037 . S
O858 C878 1.234 . S
C859 O833 1.269 . S
C859 O834 1.257 . S
C860 H835 0.930 . S
C860 C863 1.388 . S
C860 C865 1.418 . S
C861 H856 0.930 . S
C861 C864 1.404 . S
C861 C865 1.353 . S
N862 Co827 2.145 . S
N862 C863 1.397 . S
N862 C864 1.334 . S
C863 H844 0.929 . S
C863 C860 1.388 . S
C863 N862 1.397 . S
C864 H845 0.929 . S
C864 C861 1.404 . S
C864 N862 1.334 . S
C865 H857 0.930 . S
C865 C860 1.418 . S
C865 C861 1.353 . S
C866 H836 0.930 . S
C866 N867 1.330 . S
C866 C868 1.446 . S
N867 Co826 2.151 . S
N867 C866 1.330 . S
N867 C871 1.418 . S
C868 H847 0.929 1_655 S
C868 C866 1.446 . S
C868 C869 1.332 1_655 S
C869 H849 0.931 . S
C869 C868 1.332 1_455 S
C869 C870 1.267 1_455 S
C870 H838 0.929 . S
C870 C869 1.267 1_655 S
C870 C871 1.251 . S
C871 H841 0.929 . S
C871 N867 1.418 . S
C871 C870 1.251 . S
C872 H839 0.930 . S
C872 C874 1.406 . S
C872 C877 1.261 . S
C873 H840 0.930 . S
C873 N875 1.325 . S
C873 C876 1.357 . S
C874 H842 0.928 . S
C874 C872 1.406 . S
C874 N875 1.261 . S
N875 Co826 2.214 . S
N875 C873 1.325 . S
N875 C874 1.261 . S
C876 H846 0.931 . S
C876 C873 1.357 . S
C876 C877 1.312 . S
C877 H848 0.930 . S
C877 C872 1.261 . S
C877 C876 1.312 . S
C878 O850 1.214 . S
C878 O858 1.234 . S
C879 H851 0.929 . S
C879 C882 1.391 . S
C879 C884 1.391 . S
C880 H852 0.929 . S
C880 C881 1.390 . S
C880 N883 1.391 . S
C881 H853 0.930 . S
C881 C880 1.390 . S
C881 C882 1.392 . S
C882 H854 0.929 . S
C882 C879 1.391 . S
C882 C881 1.392 . S
N883 Co827 2.257 . S
N883 C880 1.391 . S
N883 C884 1.388 . S
C884 H855 0.930 . S
C884 C879 1.391 . S
C884 N883 1.388 . S
Co885 O887 2.143 . S
Co885 O893 2.074 . S
Co885 O896 2.093 . S
Co885 O909 2.097 . S
Co885 N926 2.151 . S
Co885 N934 2.214 . S
Co886 O887 2.160 . S
Co886 O892 2.058 . S
Co886 O902 2.057 . S
Co886 O917 2.037 . S
Co886 N921 2.145 . S
Co886 N942 2.257 . S
O887 Co885 2.143 . S
O887 Co886 2.160 . S
C888 O889 1.278 . S
C888 O896 1.224 . S
O889 C888 1.278 . S
C890 O891 1.245 . S
C890 O902 1.232 . S
O891 C890 1.245 . S
O892 Co886 2.058 . S
O892 C918 1.269 . S
O893 Co885 2.074 . S
O893 C918 1.257 . S
H894 C919 0.930 1_455 S
H895 C925 0.930 . S
O896 Co885 2.093 . S
O896 C888 1.224 . S
H897 C929 0.929 . S
H898 C931 0.930 . S
H899 C932 0.930 . S
H900 C930 0.929 . S
H901 C933 0.928 . S
O902 Co886 2.057 . S
O902 C890 1.232 . S
H903 C922 0.929 . S
H904 C923 0.929 . S
H905 C935 0.931 . S
H906 C927 0.929 . S
H907 C936 0.930 . S
H908 C928 0.931 . S
O909 Co885 2.097 . S
O909 C937 1.214 . S
H910 C938 0.929 . S
H911 C939 0.929 . S
H912 C940 0.930 1_455 S
H913 C941 0.929 . S
H914 C943 0.930 . S
H915 C920 0.930 . S
H916 C924 0.923 1_455 S
O917 Co886 2.037 . S
O917 C937 1.234 . S
C918 O892 1.269 . S
C918 O893 1.257 . S
C919 H894 0.930 1_655 S
C919 C922 1.388 . S
C919 C924 1.418 . S
C920 H915 0.930 . S
C920 C923 1.404 . S
C920 C924 1.353 . S
N921 Co886 2.145 . S
N921 C922 1.397 . S
N921 C923 1.334 . S
C922 H903 0.929 . S
C922 C919 1.388 . S
C922 N921 1.397 . S
C923 H904 0.929 . S
C923 C920 1.404 . S
C923 N921 1.334 . S
C924 H916 0.923 1_655 S
C924 C919 1.418 . S
C924 C920 1.353 . S
C925 H895 0.930 . S
C925 N926 1.330 . S
C925 C927 1.446 . S
N926 Co885 2.151 . S
N926 C925 1.330 . S
N926 C930 1.418 . S
C927 H906 0.929 . S
C927 C925 1.446 . S
C927 C928 1.332 . S
C928 H908 0.931 . S
C928 C927 1.332 . S
C928 C929 1.267 . S
C929 H897 0.929 . S
C929 C928 1.267 . S
C929 C930 1.251 . S
C930 H900 0.929 . S
C930 N926 1.418 . S
C930 C929 1.251 . S
C931 H898 0.930 . S
C931 C933 1.406 . S
C931 C936 1.261 . S
C932 H899 0.930 . S
C932 N934 1.325 . S
C932 C935 1.357 . S
C933 H901 0.928 . S
C933 C931 1.406 . S
C933 N934 1.261 . S
N934 Co885 2.214 . S
N934 C932 1.325 . S
N934 C933 1.261 . S
C935 H905 0.931 . S
C935 C932 1.357 . S
C935 C936 1.312 . S
C936 H907 0.930 . S
C936 C931 1.261 . S
C936 C935 1.312 . S
C937 O909 1.214 . S
C937 O917 1.234 . S
C938 H910 0.929 . S
C938 C941 1.391 . S
C938 C943 1.391 . S
C939 H911 0.929 . S
C939 C940 1.390 . S
C939 N942 1.391 . S
C940 H912 0.930 1_655 S
C940 C939 1.390 . S
C940 C941 1.392 . S
C941 H913 0.929 . S
C941 C938 1.391 . S
C941 C940 1.392 . S
N942 Co886 2.257 . S
N942 C939 1.391 . S
N942 C943 1.388 . S
C943 H914 0.930 . S
C943 C938 1.391 . S
C943 N942 1.388 . S
Co944 O946 2.143 . S
Co944 O952 2.074 . S
Co944 O955 2.093 . S
Co944 O968 2.097 . S
Co944 N985 2.151 . S
Co944 N993 2.214 . S
Co945 O946 2.160 . S
Co945 O951 2.058 . S
Co945 O961 2.057 . S
Co945 O976 2.037 . S
Co945 N980 2.145 . S
Co945 N1001 2.257 . S
O946 Co944 2.143 . S
O946 Co945 2.160 . S
C947 O948 1.278 . S
C947 O955 1.224 . S
O948 C947 1.278 . S
C949 O950 1.245 . S
C949 O961 1.232 . S
O950 C949 1.245 . S
O951 Co945 2.058 . S
O951 C977 1.269 . S
O952 Co944 2.074 . S
O952 C977 1.257 . S
H953 C978 0.930 . S
H954 C984 0.930 . S
O955 Co944 2.093 . S
O955 C947 1.224 . S
H956 C988 0.929 . S
H957 C990 0.930 . S
H958 C991 0.930 . S
H959 C989 0.929 . S
H960 C992 0.928 . S
O961 Co945 2.057 . S
O961 C949 1.232 . S
H962 C981 0.929 . S
H963 C982 0.929 . S
H964 C994 0.931 . S
H965 C986 0.929 . S
H966 C995 0.930 . S
H967 C987 0.931 . S
O968 Co944 2.097 . S
O968 C996 1.214 . S
H969 C997 0.929 . S
H970 C998 0.929 . S
H971 C999 0.930 . S
H972 C1000 0.929 . S
H973 C1002 0.930 . S
H974 C979 0.930 . S
H975 C983 0.930 . S
O976 Co945 2.037 . S
O976 C996 1.234 . S
C977 O951 1.269 . S
C977 O952 1.257 . S
C978 H953 0.930 . S
C978 C981 1.388 . S
C978 C983 1.418 . S
C979 H974 0.930 . S
C979 C982 1.404 . S
C979 C983 1.353 . S
N980 Co945 2.145 . S
N980 C981 1.397 . S
N980 C982 1.334 . S
C981 H962 0.929 . S
C981 C978 1.388 . S
C981 N980 1.397 . S
C982 H963 0.929 . S
C982 C979 1.404 . S
C982 N980 1.334 . S
C983 H975 0.930 . S
C983 C978 1.418 . S
C983 C979 1.353 . S
C984 H954 0.930 . S
C984 N985 1.330 . S
C984 C986 1.446 . S
N985 Co944 2.151 . S
N985 C984 1.330 . S
N985 C989 1.418 . S
C986 H965 0.929 . S
C986 C984 1.446 . S
C986 C987 1.332 . S
C987 H967 0.931 . S
C987 C986 1.332 . S
C987 C988 1.267 . S
C988 H956 0.929 . S
C988 C987 1.267 . S
C988 C989 1.251 . S
C989 H959 0.929 . S
C989 N985 1.418 . S
C989 C988 1.251 . S
C990 H957 0.930 . S
C990 C992 1.406 . S
C990 C995 1.261 . S
C991 H958 0.930 . S
C991 N993 1.325 . S
C991 C994 1.357 . S
C992 H960 0.928 . S
C992 C990 1.406 . S
C992 N993 1.261 . S
N993 Co944 2.214 . S
N993 C991 1.325 . S
N993 C992 1.261 . S
C994 H964 0.931 . S
C994 C991 1.357 . S
C994 C995 1.312 . S
C995 H966 0.930 . S
C995 C990 1.261 . S
C995 C994 1.312 . S
C996 O968 1.214 . S
C996 O976 1.234 . S
C997 H969 0.929 . S
C997 C1000 1.391 . S
C997 C1002 1.391 . S
C998 H970 0.929 . S
C998 C999 1.390 . S
C998 N1001 1.391 . S
C999 H971 0.930 . S
C999 C998 1.390 . S
C999 C1000 1.392 . S
C1000 H972 0.929 . S
C1000 C997 1.391 . S
C1000 C999 1.392 . S
N1001 Co945 2.257 . S
N1001 C998 1.391 . S
N1001 C1002 1.388 . S
C1002 H973 0.930 . S
C1002 C997 1.391 . S
C1002 N1001 1.388 . S
Co1003 O1005 2.143 . S
Co1003 O1011 2.074 . S
Co1003 O1014 2.093 . S
Co1003 O1027 2.097 . S
Co1003 N1044 2.151 . S
Co1003 N1052 2.214 . S
Co1004 O1005 2.160 . S
Co1004 O1010 2.058 . S
Co1004 O1020 2.057 . S
Co1004 O1035 2.037 . S
Co1004 N1039 2.145 . S
Co1004 N1060 2.257 . S
O1005 Co1003 2.143 . S
O1005 Co1004 2.160 . S
C1006 O1007 1.278 . S
C1006 O1014 1.224 . S
O1007 C1006 1.278 . S
C1008 O1009 1.245 . S
C1008 O1020 1.232 . S
O1009 C1008 1.245 . S
O1010 Co1004 2.058 . S
O1010 C1036 1.269 . S
O1011 Co1003 2.074 . S
O1011 C1036 1.257 . S
H1012 C1037 0.930 . S
H1013 C1043 0.930 . S
O1014 Co1003 2.093 . S
O1014 C1006 1.224 . S
H1015 C1047 0.929 . S
H1016 C1049 0.930 . S
H1017 C1050 0.930 . S
H1018 C1048 0.929 . S
H1019 C1051 0.928 . S
O1020 Co1004 2.057 . S
O1020 C1008 1.232 . S
H1021 C1040 0.929 . S
H1022 C1041 0.929 . S
H1023 C1053 0.931 . S
H1024 C1045 0.929 . S
H1025 C1054 0.930 . S
H1026 C1046 0.931 . S
O1027 Co1003 2.097 . S
O1027 C1055 1.214 . S
H1028 C1056 0.929 . S
H1029 C1057 0.929 . S
H1030 C1058 0.930 . S
H1031 C1059 0.929 . S
H1032 C1061 0.930 . S
H1033 C1038 0.930 . S
H1034 C1042 0.930 . S
O1035 Co1004 2.037 . S
O1035 C1055 1.234 . S
C1036 O1010 1.269 . S
C1036 O1011 1.257 . S
C1037 H1012 0.930 . S
C1037 C1040 1.388 . S
C1037 C1042 1.418 . S
C1038 H1033 0.930 . S
C1038 C1041 1.404 . S
C1038 C1042 1.353 . S
N1039 Co1004 2.145 . S
N1039 C1040 1.397 . S
N1039 C1041 1.334 . S
C1040 H1021 0.929 . S
C1040 C1037 1.388 . S
C1040 N1039 1.397 . S
C1041 H1022 0.929 . S
C1041 C1038 1.404 . S
C1041 N1039 1.334 . S
C1042 H1034 0.930 . S
C1042 C1037 1.418 . S
C1042 C1038 1.353 . S
C1043 H1013 0.930 . S
C1043 N1044 1.330 . S
C1043 C1045 1.446 . S
N1044 Co1003 2.151 . S
N1044 C1043 1.330 . S
N1044 C1048 1.418 . S
C1045 H1024 0.929 . S
C1045 C1043 1.446 . S
C1045 C1046 1.332 . S
C1046 H1026 0.931 . S
C1046 C1045 1.332 . S
C1046 C1047 1.267 . S
C1047 H1015 0.929 . S
C1047 C1046 1.267 . S
C1047 C1048 1.251 . S
C1048 H1018 0.929 . S
C1048 N1044 1.418 . S
C1048 C1047 1.251 . S
C1049 H1016 0.930 . S
C1049 C1051 1.406 . S
C1049 C1054 1.261 . S
C1050 H1017 0.930 . S
C1050 N1052 1.325 . S
C1050 C1053 1.357 . S
C1051 H1019 0.928 . S
C1051 C1049 1.406 . S
C1051 N1052 1.261 . S
N1052 Co1003 2.214 . S
N1052 C1050 1.325 . S
N1052 C1051 1.261 . S
C1053 H1023 0.931 . S
C1053 C1050 1.357 . S
C1053 C1054 1.312 . S
C1054 H1025 0.930 . S
C1054 C1049 1.261 . S
C1054 C1053 1.312 . S
C1055 O1027 1.214 . S
C1055 O1035 1.234 . S
C1056 H1028 0.929 . S
C1056 C1059 1.391 . S
C1056 C1061 1.391 . S
C1057 H1029 0.929 . S
C1057 C1058 1.390 . S
C1057 N1060 1.391 . S
C1058 H1030 0.930 . S
C1058 C1057 1.390 . S
C1058 C1059 1.392 . S
C1059 H1031 0.929 . S
C1059 C1056 1.391 . S
C1059 C1058 1.392 . S
N1060 Co1004 2.257 . S
N1060 C1057 1.391 . S
N1060 C1061 1.388 . S
C1061 H1032 0.930 . S
C1061 C1056 1.391 . S
C1061 N1060 1.388 . S
Co1062 O1064 2.143 . S
Co1062 O1070 2.074 . S
Co1062 O1073 2.093 . S
Co1062 O1086 2.097 . S
Co1062 N1103 2.151 . S
Co1062 N1111 2.214 . S
Co1063 O1064 2.160 . S
Co1063 O1069 2.058 . S
Co1063 O1079 2.057 . S
Co1063 O1094 2.037 . S
Co1063 N1098 2.145 . S
Co1063 N1119 2.257 . S
O1064 Co1062 2.143 . S
O1064 Co1063 2.160 . S
C1065 O1066 1.278 . S
C1065 O1073 1.224 . S
O1066 C1065 1.278 . S
C1067 O1068 1.245 . S
C1067 O1079 1.232 . S
O1068 C1067 1.245 . S
O1069 Co1063 2.058 . S
O1069 C1095 1.269 . S
O1070 Co1062 2.074 . S
O1070 C1095 1.257 . S
H1071 C1096 0.930 . S
H1072 C1102 0.930 . S
O1073 Co1062 2.093 . S
O1073 C1065 1.224 . S
H1074 C1106 0.929 . S
H1075 C1108 0.930 . S
H1076 C1109 0.930 . S
H1077 C1107 0.929 . S
H1078 C1110 0.928 . S
O1079 Co1063 2.057 . S
O1079 C1067 1.232 . S
H1080 C1099 0.929 . S
H1081 C1100 0.929 . S
H1082 C1112 0.931 . S
H1083 C1104 0.929 . S
H1084 C1113 0.930 . S
H1085 C1105 0.931 . S
O1086 Co1062 2.097 . S
O1086 C1114 1.214 . S
H1087 C1115 0.929 . S
H1088 C1116 0.929 . S
H1089 C1117 0.930 . S
H1090 C1118 0.929 . S
H1091 C1120 0.930 . S
H1092 C1097 0.930 . S
H1093 C1101 0.930 . S
O1094 Co1063 2.037 . S
O1094 C1114 1.234 . S
C1095 O1069 1.269 . S
C1095 O1070 1.257 . S
C1096 H1071 0.930 . S
C1096 C1099 1.388 . S
C1096 C1101 1.418 . S
C1097 H1092 0.930 . S
C1097 C1100 1.404 . S
C1097 C1101 1.353 . S
N1098 Co1063 2.145 . S
N1098 C1099 1.397 . S
N1098 C1100 1.334 . S
C1099 H1080 0.929 . S
C1099 C1096 1.388 . S
C1099 N1098 1.397 . S
C1100 H1081 0.929 . S
C1100 C1097 1.404 . S
C1100 N1098 1.334 . S
C1101 H1093 0.930 . S
C1101 C1096 1.418 . S
C1101 C1097 1.353 . S
C1102 H1072 0.930 . S
C1102 N1103 1.330 . S
C1102 C1104 1.446 . S
N1103 Co1062 2.151 . S
N1103 C1102 1.330 . S
N1103 C1107 1.418 . S
C1104 H1083 0.929 . S
C1104 C1102 1.446 . S
C1104 C1105 1.332 . S
C1105 H1085 0.931 . S
C1105 C1104 1.332 . S
C1105 C1106 1.267 . S
C1106 H1074 0.929 . S
C1106 C1105 1.267 . S
C1106 C1107 1.251 . S
C1107 H1077 0.929 . S
C1107 N1103 1.418 . S
C1107 C1106 1.251 . S
C1108 H1075 0.930 . S
C1108 C1110 1.406 . S
C1108 C1113 1.261 . S
C1109 H1076 0.930 . S
C1109 N1111 1.325 . S
C1109 C1112 1.357 . S
C1110 H1078 0.928 . S
C1110 C1108 1.406 . S
C1110 N1111 1.261 . S
N1111 Co1062 2.214 . S
N1111 C1109 1.325 . S
N1111 C1110 1.261 . S
C1112 H1082 0.931 . S
C1112 C1109 1.357 . S
C1112 C1113 1.312 . S
C1113 H1084 0.930 . S
C1113 C1108 1.261 . S
C1113 C1112 1.312 . S
C1114 O1086 1.214 . S
C1114 O1094 1.234 . S
C1115 H1087 0.929 . S
C1115 C1118 1.391 . S
C1115 C1120 1.391 . S
C1116 H1088 0.929 . S
C1116 C1117 1.390 . S
C1116 N1119 1.391 . S
C1117 H1089 0.930 . S
C1117 C1116 1.390 . S
C1117 C1118 1.392 . S
C1118 H1090 0.929 . S
C1118 C1115 1.391 . S
C1118 C1117 1.392 . S
N1119 Co1063 2.257 . S
N1119 C1116 1.391 . S
N1119 C1120 1.388 . S
C1120 H1091 0.930 . S
C1120 C1115 1.391 . S
C1120 N1119 1.388 . S
Co1121 O1123 2.143 . S
Co1121 O1129 2.074 . S
Co1121 O1132 2.093 . S
Co1121 O1145 2.097 . S
Co1121 N1162 2.151 . S
Co1121 N1170 2.214 . S
Co1122 O1123 2.160 . S
Co1122 O1128 2.058 . S
Co1122 O1138 2.057 . S
Co1122 O1153 2.037 . S
Co1122 N1157 2.145 . S
Co1122 N1178 2.257 . S
O1123 Co1121 2.143 . S
O1123 Co1122 2.160 . S
C1124 O1125 1.278 . S
C1124 O1132 1.224 . S
O1125 C1124 1.278 . S
C1126 O1127 1.245 . S
C1126 O1138 1.232 . S
O1127 C1126 1.245 . S
O1128 Co1122 2.058 . S
O1128 C1154 1.269 . S
O1129 Co1121 2.074 . S
O1129 C1154 1.257 . S
H1130 C1155 0.930 . S
H1131 C1161 0.930 . S
O1132 Co1121 2.093 . S
O1132 C1124 1.224 . S
H1133 C1165 0.929 . S
H1134 C1167 0.930 . S
H1135 C1168 0.930 . S
H1136 C1166 0.929 . S
H1137 C1169 0.928 . S
O1138 Co1122 2.057 . S
O1138 C1126 1.232 . S
H1139 C1158 0.929 . S
H1140 C1159 0.929 . S
H1141 C1171 0.931 . S
H1142 C1163 0.929 . S
H1143 C1172 0.930 . S
H1144 C1164 0.931 . S
O1145 Co1121 2.097 . S
O1145 C1173 1.214 . S
H1146 C1174 0.929 . S
H1147 C1175 0.929 . S
H1148 C1176 0.930 . S
H1149 C1177 0.929 . S
H1150 C1179 0.930 . S
H1151 C1156 0.930 . S
H1152 C1160 0.930 . S
O1153 Co1122 2.037 . S
O1153 C1173 1.234 . S
C1154 O1128 1.269 . S
C1154 O1129 1.257 . S
C1155 H1130 0.930 . S
C1155 C1158 1.388 . S
C1155 C1160 1.418 . S
C1156 H1151 0.930 . S
C1156 C1159 1.404 . S
C1156 C1160 1.353 . S
N1157 Co1122 2.145 . S
N1157 C1158 1.397 . S
N1157 C1159 1.334 . S
C1158 H1139 0.929 . S
C1158 C1155 1.388 . S
C1158 N1157 1.397 . S
C1159 H1140 0.929 . S
C1159 C1156 1.404 . S
C1159 N1157 1.334 . S
C1160 H1152 0.930 . S
C1160 C1155 1.418 . S
C1160 C1156 1.353 . S
C1161 H1131 0.930 . S
C1161 N1162 1.330 . S
C1161 C1163 1.446 . S
N1162 Co1121 2.151 . S
N1162 C1161 1.330 . S
N1162 C1166 1.418 . S
C1163 H1142 0.929 . S
C1163 C1161 1.446 . S
C1163 C1164 1.332 . S
C1164 H1144 0.931 . S
C1164 C1163 1.332 . S
C1164 C1165 1.267 . S
C1165 H1133 0.929 . S
C1165 C1164 1.267 . S
C1165 C1166 1.251 . S
C1166 H1136 0.929 . S
C1166 N1162 1.418 . S
C1166 C1165 1.251 . S
C1167 H1134 0.930 . S
C1167 C1169 1.406 . S
C1167 C1172 1.261 . S
C1168 H1135 0.930 . S
C1168 N1170 1.325 . S
C1168 C1171 1.357 . S
C1169 H1137 0.928 . S
C1169 C1167 1.406 . S
C1169 N1170 1.261 . S
N1170 Co1121 2.214 . S
N1170 C1168 1.325 . S
N1170 C1169 1.261 . S
C1171 H1141 0.931 . S
C1171 C1168 1.357 . S
C1171 C1172 1.312 . S
C1172 H1143 0.930 . S
C1172 C1167 1.261 . S
C1172 C1171 1.312 . S
C1173 O1145 1.214 . S
C1173 O1153 1.234 . S
C1174 H1146 0.929 . S
C1174 C1177 1.391 . S
C1174 C1179 1.391 . S
C1175 H1147 0.929 . S
C1175 C1176 1.390 . S
C1175 N1178 1.391 . S
C1176 H1148 0.930 . S
C1176 C1175 1.390 . S
C1176 C1177 1.392 . S
C1177 H1149 0.929 . S
C1177 C1174 1.391 . S
C1177 C1176 1.392 . S
N1178 Co1122 2.257 . S
N1178 C1175 1.391 . S
N1178 C1179 1.388 . S
C1179 H1150 0.930 . S
C1179 C1174 1.391 . S
C1179 N1178 1.388 . S
Co1180 O1182 2.143 . S
Co1180 O1188 2.074 . S
Co1180 O1191 2.093 . S
Co1180 O1204 2.097 . S
Co1180 N1221 2.151 . S
Co1180 N1229 2.214 . S
Co1181 O1182 2.160 . S
Co1181 O1187 2.058 . S
Co1181 O1197 2.057 . S
Co1181 O1212 2.037 . S
Co1181 N1216 2.145 . S
Co1181 N1237 2.257 . S
O1182 Co1180 2.143 . S
O1182 Co1181 2.160 . S
C1183 O1184 1.278 . S
C1183 O1191 1.224 . S
O1184 C1183 1.278 . S
C1185 O1186 1.245 . S
C1185 O1197 1.232 . S
O1186 C1185 1.245 . S
O1187 Co1181 2.058 . S
O1187 C1213 1.269 . S
O1188 Co1180 2.074 . S
O1188 C1213 1.257 . S
H1189 C1214 0.930 . S
H1190 C1220 0.930 . S
O1191 Co1180 2.093 . S
O1191 C1183 1.224 . S
H1192 C1224 0.929 . S
H1193 C1226 0.930 . S
H1194 C1227 0.930 . S
H1195 C1225 0.929 . S
H1196 C1228 0.928 . S
O1197 Co1181 2.057 . S
O1197 C1185 1.232 . S
H1198 C1217 0.929 . S
H1199 C1218 0.929 . S
H1200 C1230 0.931 . S
H1201 C1222 0.929 . S
H1202 C1231 0.930 . S
H1203 C1223 0.931 . S
O1204 Co1180 2.097 . S
O1204 C1232 1.214 . S
H1205 C1233 0.929 . S
H1206 C1234 0.929 . S
H1207 C1235 0.930 . S
H1208 C1236 0.929 . S
H1209 C1238 0.930 . S
H1210 C1215 0.930 . S
H1211 C1219 0.930 . S
O1212 Co1181 2.037 . S
O1212 C1232 1.234 . S
C1213 O1187 1.269 . S
C1213 O1188 1.257 . S
C1214 H1189 0.930 . S
C1214 C1217 1.388 . S
C1214 C1219 1.418 . S
C1215 H1210 0.930 . S
C1215 C1218 1.404 . S
C1215 C1219 1.353 . S
N1216 Co1181 2.145 . S
N1216 C1217 1.397 . S
N1216 C1218 1.334 . S
C1217 H1198 0.929 . S
C1217 C1214 1.388 . S
C1217 N1216 1.397 . S
C1218 H1199 0.929 . S
C1218 C1215 1.404 . S
C1218 N1216 1.334 . S
C1219 H1211 0.930 . S
C1219 C1214 1.418 . S
C1219 C1215 1.353 . S
C1220 H1190 0.930 . S
C1220 N1221 1.330 . S
C1220 C1222 1.446 . S
N1221 Co1180 2.151 . S
N1221 C1220 1.330 . S
N1221 C1225 1.418 . S
C1222 H1201 0.929 . S
C1222 C1220 1.446 . S
C1222 C1223 1.332 . S
C1223 H1203 0.931 . S
C1223 C1222 1.332 . S
C1223 C1224 1.267 . S
C1224 H1192 0.929 . S
C1224 C1223 1.267 . S
C1224 C1225 1.251 . S
C1225 H1195 0.929 . S
C1225 N1221 1.418 . S
C1225 C1224 1.251 . S
C1226 H1193 0.930 . S
C1226 C1228 1.406 . S
C1226 C1231 1.261 . S
C1227 H1194 0.930 . S
C1227 N1229 1.325 . S
C1227 C1230 1.357 . S
C1228 H1196 0.928 . S
C1228 C1226 1.406 . S
C1228 N1229 1.261 . S
N1229 Co1180 2.214 . S
N1229 C1227 1.325 . S
N1229 C1228 1.261 . S
C1230 H1200 0.931 . S
C1230 C1227 1.357 . S
C1230 C1231 1.312 . S
C1231 H1202 0.930 . S
C1231 C1226 1.261 . S
C1231 C1230 1.312 . S
C1232 O1204 1.214 . S
C1232 O1212 1.234 . S
C1233 H1205 0.929 . S
C1233 C1236 1.391 . S
C1233 C1238 1.391 . S
C1234 H1206 0.929 . S
C1234 C1235 1.390 . S
C1234 N1237 1.391 . S
C1235 H1207 0.930 . S
C1235 C1234 1.390 . S
C1235 C1236 1.392 . S
C1236 H1208 0.929 . S
C1236 C1233 1.391 . S
C1236 C1235 1.392 . S
N1237 Co1181 2.257 . S
N1237 C1234 1.391 . S
N1237 C1238 1.388 . S
C1238 H1209 0.930 . S
C1238 C1233 1.391 . S
C1238 N1237 1.388 . S
Co1239 O1241 2.143 . S
Co1239 O1247 2.074 . S
Co1239 O1250 2.093 . S
Co1239 O1263 2.097 . S
Co1239 N1280 2.151 . S
Co1239 N1288 2.214 . S
Co1240 O1241 2.160 . S
Co1240 O1246 2.058 . S
Co1240 O1256 2.057 . S
Co1240 O1271 2.037 . S
Co1240 N1275 2.145 . S
Co1240 N1296 2.257 . S
O1241 Co1239 2.143 . S
O1241 Co1240 2.160 . S
C1242 O1243 1.278 . S
C1242 O1250 1.224 . S
O1243 C1242 1.278 . S
C1244 O1245 1.245 . S
C1244 O1256 1.232 . S
O1245 C1244 1.245 . S
O1246 Co1240 2.058 . S
O1246 C1272 1.269 . S
O1247 Co1239 2.074 . S
O1247 C1272 1.257 . S
H1248 C1273 0.930 . S
H1249 C1279 0.930 . S
O1250 Co1239 2.093 . S
O1250 C1242 1.224 . S
H1251 C1283 0.929 . S
H1252 C1285 0.930 . S
H1253 C1286 0.930 . S
H1254 C1284 0.929 . S
H1255 C1287 0.928 . S
O1256 Co1240 2.057 . S
O1256 C1244 1.232 . S
H1257 C1276 0.929 . S
H1258 C1277 0.929 . S
H1259 C1289 0.931 . S
H1260 C1281 0.929 . S
H1261 C1290 0.930 . S
H1262 C1282 0.931 . S
O1263 Co1239 2.097 . S
O1263 C1291 1.214 . S
H1264 C1292 0.929 . S
H1265 C1293 0.929 . S
H1266 C1294 0.930 . S
H1267 C1295 0.929 . S
H1268 C1297 0.930 . S
H1269 C1274 0.930 . S
H1270 C1278 0.930 . S
O1271 Co1240 2.037 . S
O1271 C1291 1.234 . S
C1272 O1246 1.269 . S
C1272 O1247 1.257 . S
C1273 H1248 0.930 . S
C1273 C1276 1.388 . S
C1273 C1278 1.418 . S
C1274 H1269 0.930 . S
C1274 C1277 1.404 . S
C1274 C1278 1.353 . S
N1275 Co1240 2.145 . S
N1275 C1276 1.397 . S
N1275 C1277 1.334 . S
C1276 H1257 0.929 . S
C1276 C1273 1.388 . S
C1276 N1275 1.397 . S
C1277 H1258 0.929 . S
C1277 C1274 1.404 . S
C1277 N1275 1.334 . S
C1278 H1270 0.930 . S
C1278 C1273 1.418 . S
C1278 C1274 1.353 . S
C1279 H1249 0.930 . S
C1279 N1280 1.330 . S
C1279 C1281 1.446 . S
N1280 Co1239 2.151 . S
N1280 C1279 1.330 . S
N1280 C1284 1.418 . S
C1281 H1260 0.929 . S
C1281 C1279 1.446 . S
C1281 C1282 1.332 . S
C1282 H1262 0.931 . S
C1282 C1281 1.332 . S
C1282 C1283 1.267 . S
C1283 H1251 0.929 . S
C1283 C1282 1.267 . S
C1283 C1284 1.251 . S
C1284 H1254 0.929 . S
C1284 N1280 1.418 . S
C1284 C1283 1.251 . S
C1285 H1252 0.930 . S
C1285 C1287 1.406 . S
C1285 C1290 1.261 . S
C1286 H1253 0.930 . S
C1286 N1288 1.325 . S
C1286 C1289 1.357 . S
C1287 H1255 0.928 . S
C1287 C1285 1.406 . S
C1287 N1288 1.261 . S
N1288 Co1239 2.214 . S
N1288 C1286 1.325 . S
N1288 C1287 1.261 . S
C1289 H1259 0.931 . S
C1289 C1286 1.357 . S
C1289 C1290 1.312 . S
C1290 H1261 0.930 . S
C1290 C1285 1.261 . S
C1290 C1289 1.312 . S
C1291 O1263 1.214 . S
C1291 O1271 1.234 . S
C1292 H1264 0.929 . S
C1292 C1295 1.391 . S
C1292 C1297 1.391 . S
C1293 H1265 0.929 . S
C1293 C1294 1.390 . S
C1293 N1296 1.391 . S
C1294 H1266 0.930 . S
C1294 C1293 1.390 . S
C1294 C1295 1.392 . S
C1295 H1267 0.929 . S
C1295 C1292 1.391 . S
C1295 C1294 1.392 . S
N1296 Co1240 2.257 . S
N1296 C1293 1.391 . S
N1296 C1297 1.388 . S
C1297 H1268 0.930 . S
C1297 C1292 1.391 . S
C1297 N1296 1.388 . S
Co1298 O1300 2.143 . S
Co1298 O1306 2.074 . S
Co1298 O1309 2.093 . S
Co1298 O1322 2.097 . S
Co1298 N1339 2.151 . S
Co1298 N1347 2.214 . S
Co1299 O1300 2.160 . S
Co1299 O1305 2.058 . S
Co1299 O1315 2.057 . S
Co1299 O1330 2.037 . S
Co1299 N1334 2.145 . S
Co1299 N1355 2.257 . S
O1300 Co1298 2.143 . S
O1300 Co1299 2.160 . S
C1301 O1302 1.278 . S
C1301 O1309 1.224 . S
O1302 C1301 1.278 . S
C1303 O1304 1.245 . S
C1303 O1315 1.232 . S
O1304 C1303 1.245 . S
O1305 Co1299 2.058 . S
O1305 C1331 1.269 . S
O1306 Co1298 2.074 . S
O1306 C1331 1.257 . S
H1307 C1332 0.930 . S
H1308 C1338 0.930 . S
O1309 Co1298 2.093 . S
O1309 C1301 1.224 . S
H1310 C1342 0.929 . S
H1311 C1344 0.930 . S
H1312 C1345 0.930 . S
H1313 C1343 0.929 . S
H1314 C1346 0.928 . S
O1315 Co1299 2.057 . S
O1315 C1303 1.232 . S
H1316 C1335 0.929 . S
H1317 C1336 0.929 . S
H1318 C1348 0.931 . S
H1319 C1340 0.929 . S
H1320 C1349 0.930 . S
H1321 C1341 0.931 . S
O1322 Co1298 2.097 . S
O1322 C1350 1.214 . S
H1323 C1351 0.929 . S
H1324 C1352 0.929 . S
H1325 C1353 0.930 . S
H1326 C1354 0.929 . S
H1327 C1356 0.930 . S
H1328 C1333 0.930 . S
H1329 C1337 0.930 . S
O1330 Co1299 2.037 . S
O1330 C1350 1.234 . S
C1331 O1305 1.269 . S
C1331 O1306 1.257 . S
C1332 H1307 0.930 . S
C1332 C1335 1.388 . S
C1332 C1337 1.418 . S
C1333 H1328 0.930 . S
C1333 C1336 1.404 . S
C1333 C1337 1.353 . S
N1334 Co1299 2.145 . S
N1334 C1335 1.397 . S
N1334 C1336 1.334 . S
C1335 H1316 0.929 . S
C1335 C1332 1.388 . S
C1335 N1334 1.397 . S
C1336 H1317 0.929 . S
C1336 C1333 1.404 . S
C1336 N1334 1.334 . S
C1337 H1329 0.930 . S
C1337 C1332 1.418 . S
C1337 C1333 1.353 . S
C1338 H1308 0.930 . S
C1338 N1339 1.330 . S
C1338 C1340 1.446 . S
N1339 Co1298 2.151 . S
N1339 C1338 1.330 . S
N1339 C1343 1.418 . S
C1340 H1319 0.929 . S
C1340 C1338 1.446 . S
C1340 C1341 1.332 . S
C1341 H1321 0.931 . S
C1341 C1340 1.332 . S
C1341 C1342 1.267 . S
C1342 H1310 0.929 . S
C1342 C1341 1.267 . S
C1342 C1343 1.251 . S
C1343 H1313 0.929 . S
C1343 N1339 1.418 . S
C1343 C1342 1.251 . S
C1344 H1311 0.930 . S
C1344 C1346 1.406 . S
C1344 C1349 1.261 . S
C1345 H1312 0.930 . S
C1345 N1347 1.325 . S
C1345 C1348 1.357 . S
C1346 H1314 0.928 . S
C1346 C1344 1.406 . S
C1346 N1347 1.261 . S
N1347 Co1298 2.214 . S
N1347 C1345 1.325 . S
N1347 C1346 1.261 . S
C1348 H1318 0.931 . S
C1348 C1345 1.357 . S
C1348 C1349 1.312 . S
C1349 H1320 0.930 . S
C1349 C1344 1.261 . S
C1349 C1348 1.312 . S
C1350 O1322 1.214 . S
C1350 O1330 1.234 . S
C1351 H1323 0.929 . S
C1351 C1354 1.391 . S
C1351 C1356 1.391 . S
C1352 H1324 0.929 . S
C1352 C1353 1.390 . S
C1352 N1355 1.391 . S
C1353 H1325 0.930 . S
C1353 C1352 1.390 . S
C1353 C1354 1.392 . S
C1354 H1326 0.929 . S
C1354 C1351 1.391 . S
C1354 C1353 1.392 . S
N1355 Co1299 2.257 . S
N1355 C1352 1.391 . S
N1355 C1356 1.388 . S
C1356 H1327 0.930 . S
C1356 C1351 1.391 . S
C1356 N1355 1.388 . S
Co1357 O1359 2.143 . S
Co1357 O1365 2.074 . S
Co1357 O1368 2.093 . S
Co1357 O1381 2.097 . S
Co1357 N1398 2.151 . S
Co1357 N1406 2.214 . S
Co1358 O1359 2.160 . S
Co1358 O1364 2.058 . S
Co1358 O1374 2.057 . S
Co1358 O1389 2.037 . S
Co1358 N1393 2.145 . S
Co1358 N1414 2.257 . S
O1359 Co1357 2.143 . S
O1359 Co1358 2.160 . S
C1360 O1361 1.278 . S
C1360 O1368 1.224 . S
O1361 C1360 1.278 . S
C1362 O1363 1.245 . S
C1362 O1374 1.232 . S
O1363 C1362 1.245 . S
O1364 Co1358 2.058 . S
O1364 C1390 1.269 . S
O1365 Co1357 2.074 . S
O1365 C1390 1.257 . S
H1366 C1391 0.930 . S
H1367 C1397 0.930 . S
O1368 Co1357 2.093 . S
O1368 C1360 1.224 . S
H1369 C1401 0.929 . S
H1370 C1403 0.930 . S
H1371 C1404 0.930 . S
H1372 C1402 0.929 . S
H1373 C1405 0.928 . S
O1374 Co1358 2.057 . S
O1374 C1362 1.232 . S
H1375 C1394 0.929 . S
H1376 C1395 0.929 . S
H1377 C1407 0.931 . S
H1378 C1399 0.929 . S
H1379 C1408 0.930 . S
H1380 C1400 0.931 . S
O1381 Co1357 2.097 . S
O1381 C1409 1.214 . S
H1382 C1410 0.929 . S
H1383 C1411 0.929 . S
H1384 C1412 0.930 . S
H1385 C1413 0.929 . S
H1386 C1415 0.930 . S
H1387 C1392 0.930 . S
H1388 C1396 0.930 . S
O1389 Co1358 2.037 . S
O1389 C1409 1.234 . S
C1390 O1364 1.269 . S
C1390 O1365 1.257 . S
C1391 H1366 0.930 . S
C1391 C1394 1.388 . S
C1391 C1396 1.418 . S
C1392 H1387 0.930 . S
C1392 C1395 1.404 . S
C1392 C1396 1.353 . S
N1393 Co1358 2.145 . S
N1393 C1394 1.397 . S
N1393 C1395 1.334 . S
C1394 H1375 0.929 . S
C1394 C1391 1.388 . S
C1394 N1393 1.397 . S
C1395 H1376 0.929 . S
C1395 C1392 1.404 . S
C1395 N1393 1.334 . S
C1396 H1388 0.930 . S
C1396 C1391 1.418 . S
C1396 C1392 1.353 . S
C1397 H1367 0.930 . S
C1397 N1398 1.330 . S
C1397 C1399 1.446 . S
N1398 Co1357 2.151 . S
N1398 C1397 1.330 . S
N1398 C1402 1.418 . S
C1399 H1378 0.929 . S
C1399 C1397 1.446 . S
C1399 C1400 1.332 . S
C1400 H1380 0.931 . S
C1400 C1399 1.332 . S
C1400 C1401 1.267 . S
C1401 H1369 0.929 . S
C1401 C1400 1.267 . S
C1401 C1402 1.251 . S
C1402 H1372 0.929 . S
C1402 N1398 1.418 . S
C1402 C1401 1.251 . S
C1403 H1370 0.930 . S
C1403 C1405 1.406 . S
C1403 C1408 1.261 . S
C1404 H1371 0.930 . S
C1404 N1406 1.325 . S
C1404 C1407 1.357 . S
C1405 H1373 0.928 . S
C1405 C1403 1.406 . S
C1405 N1406 1.261 . S
N1406 Co1357 2.214 . S
N1406 C1404 1.325 . S
N1406 C1405 1.261 . S
C1407 H1377 0.931 . S
C1407 C1404 1.357 . S
C1407 C1408 1.312 . S
C1408 H1379 0.930 . S
C1408 C1403 1.261 . S
C1408 C1407 1.312 . S
C1409 O1381 1.214 . S
C1409 O1389 1.234 . S
C1410 H1382 0.929 . S
C1410 C1413 1.391 . S
C1410 C1415 1.391 . S
C1411 H1383 0.929 . S
C1411 C1412 1.390 . S
C1411 N1414 1.391 . S
C1412 H1384 0.930 . S
C1412 C1411 1.390 . S
C1412 C1413 1.392 . S
C1413 H1385 0.929 . S
C1413 C1410 1.391 . S
C1413 C1412 1.392 . S
N1414 Co1358 2.257 . S
N1414 C1411 1.391 . S
N1414 C1415 1.388 . S
C1415 H1386 0.930 . S
C1415 C1410 1.391 . S
C1415 N1414 1.388 . S
Co1416 O1418 2.143 . S
Co1416 O1424 2.074 . S
Co1416 O1427 2.093 . S
Co1416 O1440 2.097 . S
Co1416 N1457 2.151 . S
Co1416 N1465 2.214 . S
Co1417 O1418 2.160 . S
Co1417 O1423 2.058 . S
Co1417 O1433 2.057 . S
Co1417 O1448 2.037 . S
Co1417 N1452 2.145 . S
Co1417 N1473 2.257 . S
O1418 Co1416 2.143 . S
O1418 Co1417 2.160 . S
C1419 O1420 1.278 . S
C1419 O1427 1.224 . S
O1420 C1419 1.278 . S
C1421 O1422 1.245 . S
C1421 O1433 1.232 . S
O1422 C1421 1.245 . S
O1423 Co1417 2.058 . S
O1423 C1449 1.269 . S
O1424 Co1416 2.074 . S
O1424 C1449 1.257 . S
H1425 C1450 0.930 . S
H1426 C1456 0.930 . S
O1427 Co1416 2.093 . S
O1427 C1419 1.224 . S
H1428 C1460 0.929 . S
H1429 C1462 0.930 . S
H1430 C1463 0.930 . S
H1431 C1461 0.929 . S
H1432 C1464 0.928 . S
O1433 Co1417 2.057 . S
O1433 C1421 1.232 . S
H1434 C1453 0.929 . S
H1435 C1454 0.929 . S
H1436 C1466 0.931 . S
H1437 C1458 0.929 . S
H1438 C1467 0.930 . S
H1439 C1459 0.931 . S
O1440 Co1416 2.097 . S
O1440 C1468 1.214 . S
H1441 C1469 0.929 . S
H1442 C1470 0.929 . S
H1443 C1471 0.930 . S
H1444 C1472 0.929 . S
H1445 C1474 0.930 . S
H1446 C1451 0.930 . S
H1447 C1455 0.930 . S
O1448 Co1417 2.037 . S
O1448 C1468 1.234 . S
C1449 O1423 1.269 . S
C1449 O1424 1.257 . S
C1450 H1425 0.930 . S
C1450 C1453 1.388 . S
C1450 C1455 1.418 . S
C1451 H1446 0.930 . S
C1451 C1454 1.404 . S
C1451 C1455 1.353 . S
N1452 Co1417 2.145 . S
N1452 C1453 1.397 . S
N1452 C1454 1.334 . S
C1453 H1434 0.929 . S
C1453 C1450 1.388 . S
C1453 N1452 1.397 . S
C1454 H1435 0.929 . S
C1454 C1451 1.404 . S
C1454 N1452 1.334 . S
C1455 H1447 0.930 . S
C1455 C1450 1.418 . S
C1455 C1451 1.353 . S
C1456 H1426 0.930 . S
C1456 N1457 1.330 . S
C1456 C1458 1.446 . S
N1457 Co1416 2.151 . S
N1457 C1456 1.330 . S
N1457 C1461 1.418 . S
C1458 H1437 0.929 . S
C1458 C1456 1.446 . S
C1458 C1459 1.332 . S
C1459 H1439 0.931 . S
C1459 C1458 1.332 . S
C1459 C1460 1.267 . S
C1460 H1428 0.929 . S
C1460 C1459 1.267 . S
C1460 C1461 1.251 . S
C1461 H1431 0.929 . S
C1461 N1457 1.418 . S
C1461 C1460 1.251 . S
C1462 H1429 0.930 . S
C1462 C1464 1.406 . S
C1462 C1467 1.261 . S
C1463 H1430 0.930 . S
C1463 N1465 1.325 . S
C1463 C1466 1.357 . S
C1464 H1432 0.928 . S
C1464 C1462 1.406 . S
C1464 N1465 1.261 . S
N1465 Co1416 2.214 . S
N1465 C1463 1.325 . S
N1465 C1464 1.261 . S
C1466 H1436 0.931 . S
C1466 C1463 1.357 . S
C1466 C1467 1.312 . S
C1467 H1438 0.930 . S
C1467 C1462 1.261 . S
C1467 C1466 1.312 . S
C1468 O1440 1.214 . S
C1468 O1448 1.234 . S
C1469 H1441 0.929 . S
C1469 C1472 1.391 . S
C1469 C1474 1.391 . S
C1470 H1442 0.929 . S
C1470 C1471 1.390 . S
C1470 N1473 1.391 . S
C1471 H1443 0.930 . S
C1471 C1470 1.390 . S
C1471 C1472 1.392 . S
C1472 H1444 0.929 . S
C1472 C1469 1.391 . S
C1472 C1471 1.392 . S
N1473 Co1417 2.257 . S
N1473 C1470 1.391 . S
N1473 C1474 1.388 . S
C1474 H1445 0.930 . S
C1474 C1469 1.391 . S
C1474 N1473 1.388 . S
Co1475 O1477 2.143 . S
Co1475 O1483 2.074 . S
Co1475 O1486 2.093 . S
Co1475 O1499 2.097 . S
Co1475 N1516 2.151 . S
Co1475 N1524 2.214 . S
Co1476 O1477 2.160 . S
Co1476 O1482 2.058 . S
Co1476 O1492 2.057 . S
Co1476 O1507 2.037 . S
Co1476 N1511 2.145 . S
Co1476 N1532 2.257 . S
O1477 Co1475 2.143 . S
O1477 Co1476 2.160 . S
C1478 O1479 1.278 . S
C1478 O1486 1.224 . S
O1479 C1478 1.278 . S
C1480 O1481 1.245 . S
C1480 O1492 1.232 . S
O1481 C1480 1.245 . S
O1482 Co1476 2.058 . S
O1482 C1508 1.269 . S
O1483 Co1475 2.074 . S
O1483 C1508 1.257 . S
H1484 C1509 0.930 . S
H1485 C1515 0.930 . S
O1486 Co1475 2.093 . S
O1486 C1478 1.224 . S
H1487 C1519 0.929 . S
H1488 C1521 0.930 . S
H1489 C1522 0.930 . S
H1490 C1520 0.929 . S
H1491 C1523 0.928 . S
O1492 Co1476 2.057 . S
O1492 C1480 1.232 . S
H1493 C1512 0.929 . S
H1494 C1513 0.929 . S
H1495 C1525 0.931 . S
H1496 C1517 0.929 . S
H1497 C1526 0.930 . S
H1498 C1518 0.931 . S
O1499 Co1475 2.097 . S
O1499 C1527 1.214 . S
H1500 C1528 0.929 . S
H1501 C1529 0.929 . S
H1502 C1530 0.930 . S
H1503 C1531 0.929 . S
H1504 C1533 0.930 . S
H1505 C1510 0.930 . S
H1506 C1514 0.930 . S
O1507 Co1476 2.037 . S
O1507 C1527 1.234 . S
C1508 O1482 1.269 . S
C1508 O1483 1.257 . S
C1509 H1484 0.930 . S
C1509 C1512 1.388 . S
C1509 C1514 1.418 . S
C1510 H1505 0.930 . S
C1510 C1513 1.404 . S
C1510 C1514 1.353 . S
N1511 Co1476 2.145 . S
N1511 C1512 1.397 . S
N1511 C1513 1.334 . S
C1512 H1493 0.929 . S
C1512 C1509 1.388 . S
C1512 N1511 1.397 . S
C1513 H1494 0.929 . S
C1513 C1510 1.404 . S
C1513 N1511 1.334 . S
C1514 H1506 0.930 . S
C1514 C1509 1.418 . S
C1514 C1510 1.353 . S
C1515 H1485 0.930 . S
C1515 N1516 1.330 . S
C1515 C1517 1.446 . S
N1516 Co1475 2.151 . S
N1516 C1515 1.330 . S
N1516 C1520 1.418 . S
C1517 H1496 0.929 . S
C1517 C1515 1.446 . S
C1517 C1518 1.332 . S
C1518 H1498 0.931 . S
C1518 C1517 1.332 . S
C1518 C1519 1.267 . S
C1519 H1487 0.929 . S
C1519 C1518 1.267 . S
C1519 C1520 1.251 . S
C1520 H1490 0.929 . S
C1520 N1516 1.418 . S
C1520 C1519 1.251 . S
C1521 H1488 0.930 . S
C1521 C1523 1.406 . S
C1521 C1526 1.261 . S
C1522 H1489 0.930 . S
C1522 N1524 1.325 . S
C1522 C1525 1.357 . S
C1523 H1491 0.928 . S
C1523 C1521 1.406 . S
C1523 N1524 1.261 . S
N1524 Co1475 2.214 . S
N1524 C1522 1.325 . S
N1524 C1523 1.261 . S
C1525 H1495 0.931 . S
C1525 C1522 1.357 . S
C1525 C1526 1.312 . S
C1526 H1497 0.930 . S
C1526 C1521 1.261 . S
C1526 C1525 1.312 . S
C1527 O1499 1.214 . S
C1527 O1507 1.234 . S
C1528 H1500 0.929 . S
C1528 C1531 1.391 . S
C1528 C1533 1.391 . S
C1529 H1501 0.929 . S
C1529 C1530 1.390 . S
C1529 N1532 1.391 . S
C1530 H1502 0.930 . S
C1530 C1529 1.390 . S
C1530 C1531 1.392 . S
C1531 H1503 0.929 . S
C1531 C1528 1.391 . S
C1531 C1530 1.392 . S
N1532 Co1476 2.257 . S
N1532 C1529 1.391 . S
N1532 C1533 1.388 . S
C1533 H1504 0.930 . S
C1533 C1528 1.391 . S
C1533 N1532 1.388 . S
Co1534 O1536 2.143 . S
Co1534 O1542 2.074 1_554 S
Co1534 O1545 2.093 . S
Co1534 O1558 2.097 . S
Co1534 N1575 2.151 . S
Co1534 N1583 2.214 . S
Co1535 O1536 2.160 1_556 S
Co1535 O1541 2.058 . S
Co1535 O1551 2.057 . S
Co1535 O1566 2.037 . S
Co1535 N1570 2.145 . S
Co1535 N1591 2.257 1_556 S
O1536 Co1534 2.143 . S
O1536 Co1535 2.160 1_554 S
C1537 O1538 1.278 . S
C1537 O1545 1.224 . S
O1538 C1537 1.278 . S
C1539 O1540 1.258 . S
C1539 O1551 1.232 . S
O1540 C1539 1.258 . S
O1541 Co1535 2.058 . S
O1541 C1567 1.269 . S
O1542 Co1534 2.074 1_556 S
O1542 C1567 1.257 . S
H1543 C1568 0.930 . S
H1544 C1574 0.930 . S
O1545 Co1534 2.093 . S
O1545 C1537 1.224 . S
H1546 C1578 0.929 . S
H1547 C1580 0.930 . S
H1548 C1581 0.930 . S
H1549 C1579 0.929 . S
H1550 C1582 0.928 . S
O1551 Co1535 2.057 . S
O1551 C1539 1.232 . S
H1552 C1571 0.929 . S
H1553 C1572 0.929 . S
H1554 C1584 0.931 . S
H1555 C1576 0.929 . S
H1556 C1585 0.933 . S
H1557 C1577 0.931 . S
O1558 Co1534 2.097 . S
O1558 C1586 1.214 1_554 S
H1559 C1587 0.929 . S
H1560 C1588 0.900 1_556 S
H1561 C1589 0.930 . S
H1562 C1590 0.929 . S
H1563 C1592 0.930 . S
H1564 C1569 0.930 . S
H1565 C1573 0.930 . S
O1566 Co1535 2.037 . S
O1566 C1586 1.234 . S
C1567 O1541 1.269 . S
C1567 O1542 1.257 . S
C1568 H1543 0.930 . S
C1568 C1571 1.388 . S
C1568 C1573 1.418 . S
C1569 H1564 0.930 . S
C1569 C1572 1.404 . S
C1569 C1573 1.353 . S
N1570 Co1535 2.145 . S
N1570 C1571 1.397 . S
N1570 C1572 1.334 . S
C1571 H1552 0.929 . S
C1571 C1568 1.388 . S
C1571 N1570 1.397 . S
C1572 H1553 0.929 . S
C1572 C1569 1.404 . S
C1572 N1570 1.334 . S
C1573 H1565 0.930 . S
C1573 C1568 1.418 . S
C1573 C1569 1.353 . S
C1574 H1544 0.930 . S
C1574 N1575 1.330 . S
C1574 C1576 1.446 . S
N1575 Co1534 2.151 . S
N1575 C1574 1.330 . S
N1575 C1579 1.418 1_554 S
C1576 H1555 0.929 . S
C1576 C1574 1.446 . S
C1576 C1577 1.332 . S
C1577 H1557 0.931 . S
C1577 C1576 1.332 . S
C1577 C1578 1.267 1_554 S
C1578 H1546 0.929 . S
C1578 C1577 1.267 1_556 S
C1578 C1579 1.251 . S
C1579 H1549 0.929 . S
C1579 N1575 1.418 1_556 S
C1579 C1578 1.251 . S
C1580 H1547 0.930 . S
C1580 C1582 1.406 . S
C1580 C1585 1.247 1_554 S
C1581 H1548 0.930 . S
C1581 N1583 1.325 1_556 S
C1581 C1584 1.357 . S
C1582 H1550 0.928 . S
C1582 C1580 1.406 . S
C1582 N1583 1.261 . S
N1583 Co1534 2.214 . S
N1583 C1581 1.325 1_554 S
N1583 C1582 1.261 . S
C1584 H1554 0.931 . S
C1584 C1581 1.357 . S
C1584 C1585 1.324 . S
C1585 H1556 0.933 . S
C1585 C1580 1.247 1_556 S
C1585 C1584 1.324 . S
C1586 O1558 1.214 1_556 S
C1586 O1566 1.234 . S
C1587 H1559 0.929 . S
C1587 C1590 1.391 . S
C1587 C1592 1.391 . S
C1588 H1560 0.900 1_554 S
C1588 C1589 1.390 . S
C1588 N1591 1.391 . S
C1589 H1561 0.930 . S
C1589 C1588 1.390 . S
C1589 C1590 1.392 . S
C1590 H1562 0.929 . S
C1590 C1587 1.391 . S
C1590 C1589 1.392 . S
N1591 Co1535 2.257 1_554 S
N1591 C1588 1.391 . S
N1591 C1592 1.388 . S
C1592 H1563 0.930 . S
C1592 C1587 1.391 . S
C1592 N1591 1.388 . S
Co1593 O1595 2.143 . S
Co1593 O1601 2.074 1_554 S
Co1593 O1604 2.093 . S
Co1593 O1617 2.097 . S
Co1593 N1634 2.151 . S
Co1593 N1642 2.214 . S
Co1594 O1595 2.160 1_556 S
Co1594 O1600 2.058 . S
Co1594 O1610 2.057 . S
Co1594 O1625 2.037 . S
Co1594 N1629 2.145 . S
Co1594 N1650 2.257 1_556 S
O1595 Co1593 2.143 . S
O1595 Co1594 2.160 1_554 S
C1596 O1597 1.278 . S
C1596 O1604 1.224 . S
O1597 C1596 1.278 . S
C1598 O1599 1.258 . S
C1598 O1610 1.232 . S
O1599 C1598 1.258 . S
O1600 Co1594 2.058 . S
O1600 C1626 1.269 . S
O1601 Co1593 2.074 1_556 S
O1601 C1626 1.257 . S
H1602 C1627 0.930 . S
H1603 C1633 0.930 . S
O1604 Co1593 2.093 . S
O1604 C1596 1.224 . S
H1605 C1637 0.929 . S
H1606 C1639 0.930 . S
H1607 C1640 0.930 . S
H1608 C1638 0.929 . S
H1609 C1641 0.928 . S
O1610 Co1594 2.057 . S
O1610 C1598 1.232 . S
H1611 C1630 0.929 . S
H1612 C1631 0.929 . S
H1613 C1643 0.931 . S
H1614 C1635 0.929 . S
H1615 C1644 0.933 . S
H1616 C1636 0.931 . S
O1617 Co1593 2.097 . S
O1617 C1645 1.214 1_554 S
H1618 C1646 0.929 . S
H1619 C1647 0.900 1_556 S
H1620 C1648 0.930 . S
H1621 C1649 0.929 . S
H1622 C1651 0.930 . S
H1623 C1628 0.930 . S
H1624 C1632 0.930 . S
O1625 Co1594 2.037 . S
O1625 C1645 1.234 . S
C1626 O1600 1.269 . S
C1626 O1601 1.257 . S
C1627 H1602 0.930 . S
C1627 C1630 1.388 . S
C1627 C1632 1.418 . S
C1628 H1623 0.930 . S
C1628 C1631 1.404 . S
C1628 C1632 1.353 . S
N1629 Co1594 2.145 . S
N1629 C1630 1.397 . S
N1629 C1631 1.334 . S
C1630 H1611 0.929 . S
C1630 C1627 1.388 . S
C1630 N1629 1.397 . S
C1631 H1612 0.929 . S
C1631 C1628 1.404 . S
C1631 N1629 1.334 . S
C1632 H1624 0.930 . S
C1632 C1627 1.418 . S
C1632 C1628 1.353 . S
C1633 H1603 0.930 . S
C1633 N1634 1.330 . S
C1633 C1635 1.446 . S
N1634 Co1593 2.151 . S
N1634 C1633 1.330 . S
N1634 C1638 1.418 1_554 S
C1635 H1614 0.929 . S
C1635 C1633 1.446 . S
C1635 C1636 1.332 . S
C1636 H1616 0.931 . S
C1636 C1635 1.332 . S
C1636 C1637 1.267 1_554 S
C1637 H1605 0.929 . S
C1637 C1636 1.267 1_556 S
C1637 C1638 1.251 . S
C1638 H1608 0.929 . S
C1638 N1634 1.418 1_556 S
C1638 C1637 1.251 . S
C1639 H1606 0.930 . S
C1639 C1641 1.406 . S
C1639 C1644 1.247 1_554 S
C1640 H1607 0.930 . S
C1640 N1642 1.325 1_556 S
C1640 C1643 1.357 . S
C1641 H1609 0.928 . S
C1641 C1639 1.406 . S
C1641 N1642 1.261 . S
N1642 Co1593 2.214 . S
N1642 C1640 1.325 1_554 S
N1642 C1641 1.261 . S
C1643 H1613 0.931 . S
C1643 C1640 1.357 . S
C1643 C1644 1.324 . S
C1644 H1615 0.933 . S
C1644 C1639 1.247 1_556 S
C1644 C1643 1.324 . S
C1645 O1617 1.214 1_556 S
C1645 O1625 1.234 . S
C1646 H1618 0.929 . S
C1646 C1649 1.391 . S
C1646 C1651 1.391 . S
C1647 H1619 0.900 1_554 S
C1647 C1648 1.390 . S
C1647 N1650 1.391 . S
C1648 H1620 0.930 . S
C1648 C1647 1.390 . S
C1648 C1649 1.392 . S
C1649 H1621 0.929 . S
C1649 C1646 1.391 . S
C1649 C1648 1.392 . S
N1650 Co1594 2.257 1_554 S
N1650 C1647 1.391 . S
N1650 C1651 1.388 . S
C1651 H1622 0.930 . S
C1651 C1646 1.391 . S
C1651 N1650 1.388 . S
Co1652 O1654 2.143 . S
Co1652 O1660 2.074 . S
Co1652 O1663 2.093 . S
Co1652 O1676 2.097 . S
Co1652 N1693 2.151 . S
Co1652 N1701 2.214 . S
Co1653 O1654 2.160 . S
Co1653 O1659 2.058 . S
Co1653 O1669 2.057 . S
Co1653 O1684 2.037 . S
Co1653 N1688 2.145 . S
Co1653 N1709 2.257 . S
O1654 Co1652 2.143 . S
O1654 Co1653 2.160 . S
C1655 O1656 1.278 . S
C1655 O1663 1.224 . S
O1656 C1655 1.278 . S
C1657 O1658 1.245 . S
C1657 O1669 1.232 . S
O1658 C1657 1.245 . S
O1659 Co1653 2.058 . S
O1659 C1685 1.269 . S
O1660 Co1652 2.074 . S
O1660 C1685 1.257 . S
H1661 C1686 0.930 . S
H1662 C1692 0.930 . S
O1663 Co1652 2.093 . S
O1663 C1655 1.224 . S
H1664 C1696 0.929 . S
H1665 C1698 0.930 . S
H1666 C1699 0.930 . S
H1667 C1697 0.929 . S
H1668 C1700 0.928 . S
O1669 Co1653 2.057 . S
O1669 C1657 1.232 . S
H1670 C1689 0.929 . S
H1671 C1690 0.929 . S
H1672 C1702 0.931 . S
H1673 C1694 0.929 . S
H1674 C1703 0.930 . S
H1675 C1695 0.931 . S
O1676 Co1652 2.097 . S
O1676 C1704 1.214 . S
H1677 C1705 0.929 . S
H1678 C1706 0.929 . S
H1679 C1707 0.930 . S
H1680 C1708 0.929 . S
H1681 C1710 0.930 . S
H1682 C1687 0.930 . S
H1683 C1691 0.930 . S
O1684 Co1653 2.037 . S
O1684 C1704 1.234 . S
C1685 O1659 1.269 . S
C1685 O1660 1.257 . S
C1686 H1661 0.930 . S
C1686 C1689 1.388 . S
C1686 C1691 1.418 . S
C1687 H1682 0.930 . S
C1687 C1690 1.404 . S
C1687 C1691 1.353 . S
N1688 Co1653 2.145 . S
N1688 C1689 1.397 . S
N1688 C1690 1.334 . S
C1689 H1670 0.929 . S
C1689 C1686 1.388 . S
C1689 N1688 1.397 . S
C1690 H1671 0.929 . S
C1690 C1687 1.404 . S
C1690 N1688 1.334 . S
C1691 H1683 0.930 . S
C1691 C1686 1.418 . S
C1691 C1687 1.353 . S
C1692 H1662 0.930 . S
C1692 N1693 1.330 . S
C1692 C1694 1.446 . S
N1693 Co1652 2.151 . S
N1693 C1692 1.330 . S
N1693 C1697 1.418 . S
C1694 H1673 0.929 . S
C1694 C1692 1.446 . S
C1694 C1695 1.332 . S
C1695 H1675 0.931 . S
C1695 C1694 1.332 . S
C1695 C1696 1.267 . S
C1696 H1664 0.929 . S
C1696 C1695 1.267 . S
C1696 C1697 1.251 . S
C1697 H1667 0.929 . S
C1697 N1693 1.418 . S
C1697 C1696 1.251 . S
C1698 H1665 0.930 . S
C1698 C1700 1.406 . S
C1698 C1703 1.261 . S
C1699 H1666 0.930 . S
C1699 N1701 1.325 . S
C1699 C1702 1.357 . S
C1700 H1668 0.928 . S
C1700 C1698 1.406 . S
C1700 N1701 1.261 . S
N1701 Co1652 2.214 . S
N1701 C1699 1.325 . S
N1701 C1700 1.261 . S
C1702 H1672 0.931 . S
C1702 C1699 1.357 . S
C1702 C1703 1.312 . S
C1703 H1674 0.930 . S
C1703 C1698 1.261 . S
C1703 C1702 1.312 . S
C1704 O1676 1.214 . S
C1704 O1684 1.234 . S
C1705 H1677 0.929 . S
C1705 C1708 1.391 . S
C1705 C1710 1.391 . S
C1706 H1678 0.929 . S
C1706 C1707 1.390 . S
C1706 N1709 1.391 . S
C1707 H1679 0.930 . S
C1707 C1706 1.390 . S
C1707 C1708 1.392 . S
C1708 H1680 0.929 . S
C1708 C1705 1.391 . S
C1708 C1707 1.392 . S
N1709 Co1653 2.257 . S
N1709 C1706 1.391 . S
N1709 C1710 1.388 . S
C1710 H1681 0.930 . S
C1710 C1705 1.391 . S
C1710 N1709 1.388 . S
Co1711 O1713 2.143 . S
Co1711 O1719 2.074 . S
Co1711 O1722 2.093 . S
Co1711 O1735 2.097 . S
Co1711 N1752 2.151 . S
Co1711 N1760 2.214 . S
Co1712 O1713 2.160 . S
Co1712 O1718 2.058 . S
Co1712 O1728 2.057 . S
Co1712 O1743 2.037 . S
Co1712 N1747 2.145 . S
Co1712 N1768 2.257 . S
O1713 Co1711 2.143 . S
O1713 Co1712 2.160 . S
C1714 O1715 1.278 . S
C1714 O1722 1.224 . S
O1715 C1714 1.278 . S
C1716 O1717 1.245 . S
C1716 O1728 1.232 . S
O1717 C1716 1.245 . S
O1718 Co1712 2.058 . S
O1718 C1744 1.269 . S
O1719 Co1711 2.074 . S
O1719 C1744 1.257 . S
H1720 C1745 0.930 . S
H1721 C1751 0.930 . S
O1722 Co1711 2.093 . S
O1722 C1714 1.224 . S
H1723 C1755 0.929 . S
H1724 C1757 0.930 . S
H1725 C1758 0.930 . S
H1726 C1756 0.929 . S
H1727 C1759 0.928 . S
O1728 Co1712 2.057 . S
O1728 C1716 1.232 . S
H1729 C1748 0.929 . S
H1730 C1749 0.929 . S
H1731 C1761 0.931 . S
H1732 C1753 0.929 . S
H1733 C1762 0.930 . S
H1734 C1754 0.931 . S
O1735 Co1711 2.097 . S
O1735 C1763 1.214 . S
H1736 C1764 0.929 . S
H1737 C1765 0.929 . S
H1738 C1766 0.930 . S
H1739 C1767 0.929 . S
H1740 C1769 0.930 . S
H1741 C1746 0.930 . S
H1742 C1750 0.930 . S
O1743 Co1712 2.037 . S
O1743 C1763 1.234 . S
C1744 O1718 1.269 . S
C1744 O1719 1.257 . S
C1745 H1720 0.930 . S
C1745 C1748 1.388 . S
C1745 C1750 1.418 . S
C1746 H1741 0.930 . S
C1746 C1749 1.404 . S
C1746 C1750 1.353 . S
N1747 Co1712 2.145 . S
N1747 C1748 1.397 . S
N1747 C1749 1.334 . S
C1748 H1729 0.929 . S
C1748 C1745 1.388 . S
C1748 N1747 1.397 . S
C1749 H1730 0.929 . S
C1749 C1746 1.404 . S
C1749 N1747 1.334 . S
C1750 H1742 0.930 . S
C1750 C1745 1.418 . S
C1750 C1746 1.353 . S
C1751 H1721 0.930 . S
C1751 N1752 1.330 . S
C1751 C1753 1.446 . S
N1752 Co1711 2.151 . S
N1752 C1751 1.330 . S
N1752 C1756 1.418 . S
C1753 H1732 0.929 . S
C1753 C1751 1.446 . S
C1753 C1754 1.332 . S
C1754 H1734 0.931 . S
C1754 C1753 1.332 . S
C1754 C1755 1.267 . S
C1755 H1723 0.929 . S
C1755 C1754 1.267 . S
C1755 C1756 1.251 . S
C1756 H1726 0.929 . S
C1756 N1752 1.418 . S
C1756 C1755 1.251 . S
C1757 H1724 0.930 . S
C1757 C1759 1.406 . S
C1757 C1762 1.261 . S
C1758 H1725 0.930 . S
C1758 N1760 1.325 . S
C1758 C1761 1.357 . S
C1759 H1727 0.928 . S
C1759 C1757 1.406 . S
C1759 N1760 1.261 . S
N1760 Co1711 2.214 . S
N1760 C1758 1.325 . S
N1760 C1759 1.261 . S
C1761 H1731 0.931 . S
C1761 C1758 1.357 . S
C1761 C1762 1.312 . S
C1762 H1733 0.930 . S
C1762 C1757 1.261 . S
C1762 C1761 1.312 . S
C1763 O1735 1.214 . S
C1763 O1743 1.234 . S
C1764 H1736 0.929 . S
C1764 C1767 1.391 . S
C1764 C1769 1.391 . S
C1765 H1737 0.929 . S
C1765 C1766 1.390 . S
C1765 N1768 1.391 . S
C1766 H1738 0.930 . S
C1766 C1765 1.390 . S
C1766 C1767 1.392 . S
C1767 H1739 0.929 . S
C1767 C1764 1.391 . S
C1767 C1766 1.392 . S
N1768 Co1712 2.257 . S
N1768 C1765 1.391 . S
N1768 C1769 1.388 . S
C1769 H1740 0.930 . S
C1769 C1764 1.391 . S
C1769 N1768 1.388 . S
Co1770 O1772 2.143 . S
Co1770 O1778 2.074 1_556 S
Co1770 O1781 2.093 . S
Co1770 O1794 2.097 . S
Co1770 N1811 2.151 . S
Co1770 N1819 2.214 . S
Co1771 O1772 2.160 1_554 S
Co1771 O1777 2.058 . S
Co1771 O1787 2.057 . S
Co1771 O1802 2.037 . S
Co1771 N1806 2.145 . S
Co1771 N1827 2.257 1_554 S
O1772 Co1770 2.143 . S
O1772 Co1771 2.160 1_556 S
C1773 O1774 1.278 . S
C1773 O1781 1.224 . S
O1774 C1773 1.278 . S
C1775 O1776 1.258 . S
C1775 O1787 1.232 . S
O1776 C1775 1.258 . S
O1777 Co1771 2.058 . S
O1777 C1803 1.269 . S
O1778 Co1770 2.074 1_554 S
O1778 C1803 1.257 . S
H1779 C1804 0.930 . S
H1780 C1810 0.930 . S
O1781 Co1770 2.093 . S
O1781 C1773 1.224 . S
H1782 C1814 0.929 . S
H1783 C1816 0.930 . S
H1784 C1817 0.930 . S
H1785 C1815 0.929 . S
H1786 C1818 0.928 . S
O1787 Co1771 2.057 . S
O1787 C1775 1.232 . S
H1788 C1807 0.929 . S
H1789 C1808 0.929 . S
H1790 C1820 0.931 . S
H1791 C1812 0.929 . S
H1792 C1821 0.933 . S
H1793 C1813 0.931 . S
O1794 Co1770 2.097 . S
O1794 C1822 1.214 1_556 S
H1795 C1823 0.929 . S
H1796 C1824 0.900 1_554 S
H1797 C1825 0.930 . S
H1798 C1826 0.929 . S
H1799 C1828 0.930 . S
H1800 C1805 0.930 . S
H1801 C1809 0.930 . S
O1802 Co1771 2.037 . S
O1802 C1822 1.234 . S
C1803 O1777 1.269 . S
C1803 O1778 1.257 . S
C1804 H1779 0.930 . S
C1804 C1807 1.388 . S
C1804 C1809 1.418 . S
C1805 H1800 0.930 . S
C1805 C1808 1.404 . S
C1805 C1809 1.353 . S
N1806 Co1771 2.145 . S
N1806 C1807 1.397 . S
N1806 C1808 1.334 . S
C1807 H1788 0.929 . S
C1807 C1804 1.388 . S
C1807 N1806 1.397 . S
C1808 H1789 0.929 . S
C1808 C1805 1.404 . S
C1808 N1806 1.334 . S
C1809 H1801 0.930 . S
C1809 C1804 1.418 . S
C1809 C1805 1.353 . S
C1810 H1780 0.930 . S
C1810 N1811 1.330 . S
C1810 C1812 1.446 . S
N1811 Co1770 2.151 . S
N1811 C1810 1.330 . S
N1811 C1815 1.418 1_556 S
C1812 H1791 0.929 . S
C1812 C1810 1.446 . S
C1812 C1813 1.332 . S
C1813 H1793 0.931 . S
C1813 C1812 1.332 . S
C1813 C1814 1.267 1_556 S
C1814 H1782 0.929 . S
C1814 C1813 1.267 1_554 S
C1814 C1815 1.251 . S
C1815 H1785 0.929 . S
C1815 N1811 1.418 1_554 S
C1815 C1814 1.251 . S
C1816 H1783 0.930 . S
C1816 C1818 1.406 . S
C1816 C1821 1.247 1_556 S
C1817 H1784 0.930 . S
C1817 N1819 1.325 1_554 S
C1817 C1820 1.357 . S
C1818 H1786 0.928 . S
C1818 C1816 1.406 . S
C1818 N1819 1.261 . S
N1819 Co1770 2.214 . S
N1819 C1817 1.325 1_556 S
N1819 C1818 1.261 . S
C1820 H1790 0.931 . S
C1820 C1817 1.357 . S
C1820 C1821 1.324 . S
C1821 H1792 0.933 . S
C1821 C1816 1.247 1_554 S
C1821 C1820 1.324 . S
C1822 O1794 1.214 1_554 S
C1822 O1802 1.234 . S
C1823 H1795 0.929 . S
C1823 C1826 1.391 . S
C1823 C1828 1.391 . S
C1824 H1796 0.900 1_556 S
C1824 C1825 1.390 . S
C1824 N1827 1.391 . S
C1825 H1797 0.930 . S
C1825 C1824 1.390 . S
C1825 C1826 1.392 . S
C1826 H1798 0.929 . S
C1826 C1823 1.391 . S
C1826 C1825 1.392 . S
N1827 Co1771 2.257 1_556 S
N1827 C1824 1.391 . S
N1827 C1828 1.388 . S
C1828 H1799 0.930 . S
C1828 C1823 1.391 . S
C1828 N1827 1.388 . S
Co1829 O1831 2.143 . S
Co1829 O1837 2.074 1_556 S
Co1829 O1840 2.093 . S
Co1829 O1853 2.097 . S
Co1829 N1870 2.151 . S
Co1829 N1878 2.214 . S
Co1830 O1831 2.160 1_554 S
Co1830 O1836 2.058 . S
Co1830 O1846 2.057 . S
Co1830 O1861 2.037 . S
Co1830 N1865 2.145 . S
Co1830 N1886 2.257 1_554 S
O1831 Co1829 2.143 . S
O1831 Co1830 2.160 1_556 S
C1832 O1833 1.278 . S
C1832 O1840 1.224 . S
O1833 C1832 1.278 . S
C1834 O1835 1.258 . S
C1834 O1846 1.232 . S
O1835 C1834 1.258 . S
O1836 Co1830 2.058 . S
O1836 C1862 1.269 . S
O1837 Co1829 2.074 1_554 S
O1837 C1862 1.257 . S
H1838 C1863 0.930 . S
H1839 C1869 0.930 . S
O1840 Co1829 2.093 . S
O1840 C1832 1.224 . S
H1841 C1873 0.929 . S
H1842 C1875 0.930 . S
H1843 C1876 0.930 . S
H1844 C1874 0.929 . S
H1845 C1877 0.928 . S
O1846 Co1830 2.057 . S
O1846 C1834 1.232 . S
H1847 C1866 0.929 . S
H1848 C1867 0.929 . S
H1849 C1879 0.931 . S
H1850 C1871 0.929 . S
H1851 C1880 0.933 . S
H1852 C1872 0.931 . S
O1853 Co1829 2.097 . S
O1853 C1881 1.214 1_556 S
H1854 C1882 0.929 . S
H1855 C1883 0.900 1_554 S
H1856 C1884 0.930 . S
H1857 C1885 0.929 . S
H1858 C1887 0.930 . S
H1859 C1864 0.930 . S
H1860 C1868 0.930 . S
O1861 Co1830 2.037 . S
O1861 C1881 1.234 . S
C1862 O1836 1.269 . S
C1862 O1837 1.257 . S
C1863 H1838 0.930 . S
C1863 C1866 1.388 . S
C1863 C1868 1.418 . S
C1864 H1859 0.930 . S
C1864 C1867 1.404 . S
C1864 C1868 1.353 . S
N1865 Co1830 2.145 . S
N1865 C1866 1.397 . S
N1865 C1867 1.334 . S
C1866 H1847 0.929 . S
C1866 C1863 1.388 . S
C1866 N1865 1.397 . S
C1867 H1848 0.929 . S
C1867 C1864 1.404 . S
C1867 N1865 1.334 . S
C1868 H1860 0.930 . S
C1868 C1863 1.418 . S
C1868 C1864 1.353 . S
C1869 H1839 0.930 . S
C1869 N1870 1.330 . S
C1869 C1871 1.446 . S
N1870 Co1829 2.151 . S
N1870 C1869 1.330 . S
N1870 C1874 1.418 1_556 S
C1871 H1850 0.929 . S
C1871 C1869 1.446 . S
C1871 C1872 1.332 . S
C1872 H1852 0.931 . S
C1872 C1871 1.332 . S
C1872 C1873 1.267 1_556 S
C1873 H1841 0.929 . S
C1873 C1872 1.267 1_554 S
C1873 C1874 1.251 . S
C1874 H1844 0.929 . S
C1874 N1870 1.418 1_554 S
C1874 C1873 1.251 . S
C1875 H1842 0.930 . S
C1875 C1877 1.406 . S
C1875 C1880 1.247 1_556 S
C1876 H1843 0.930 . S
C1876 N1878 1.325 1_554 S
C1876 C1879 1.357 . S
C1877 H1845 0.928 . S
C1877 C1875 1.406 . S
C1877 N1878 1.261 . S
N1878 Co1829 2.214 . S
N1878 C1876 1.325 1_556 S
N1878 C1877 1.261 . S
C1879 H1849 0.931 . S
C1879 C1876 1.357 . S
C1879 C1880 1.324 . S
C1880 H1851 0.933 . S
C1880 C1875 1.247 1_554 S
C1880 C1879 1.324 . S
C1881 O1853 1.214 1_554 S
C1881 O1861 1.234 . S
C1882 H1854 0.929 . S
C1882 C1885 1.391 . S
C1882 C1887 1.391 . S
C1883 H1855 0.900 1_556 S
C1883 C1884 1.390 . S
C1883 N1886 1.391 . S
C1884 H1856 0.930 . S
C1884 C1883 1.390 . S
C1884 C1885 1.392 . S
C1885 H1857 0.929 . S
C1885 C1882 1.391 . S
C1885 C1884 1.392 . S
N1886 Co1830 2.257 1_556 S
N1886 C1883 1.391 . S
N1886 C1887 1.388 . S
C1887 H1858 0.930 . S
C1887 C1882 1.391 . S
C1887 N1886 1.388 . S
H1888 C1896 0.950 . S
H1889 C1901 0.950 . S
H1890 C1898 0.950 . S
H1891 C1900 0.950 . S
H1892 C1902 0.950 . S
H1893 C1904 0.950 . S
H1894 C1906 0.950 . S
H1895 C1907 0.950 . S
C1896 H1888 0.950 . S
C1896 C1897 1.386 . S
C1896 C1898 1.391 . S
C1897 C1896 1.386 . S
C1897 C1901 1.393 . S
C1898 H1890 0.950 . S
C1898 C1896 1.391 . S
C1898 C1899 1.400 . S
C1899 C1898 1.400 . S
C1899 C1900 1.398 . S
C1899 C1905 1.491 . S
C1900 H1891 0.950 . S
C1900 C1899 1.398 . S
C1900 C1901 1.391 . S
C1901 H1889 0.950 . S
C1901 C1897 1.393 . S
C1901 C1900 1.391 . S
C1902 H1892 0.950 . S
C1902 C1903 1.386 . S
C1902 C1904 1.391 . S
C1903 C1902 1.386 . S
C1903 C1907 1.393 . S
C1904 H1893 0.950 . S
C1904 C1902 1.391 . S
C1904 C1905 1.400 . S
C1905 C1899 1.491 . S
C1905 C1904 1.400 . S
C1905 C1906 1.398 . S
C1906 H1894 0.950 . S
C1906 C1905 1.398 . S
C1906 C1907 1.391 . S
C1907 H1895 0.950 . S
C1907 C1903 1.393 . S
C1907 C1906 1.391 . S
H1908 C1916 0.950 . S
H1909 C1921 0.950 . S
H1910 C1918 0.950 . S
H1911 C1920 0.950 . S
H1912 C1922 0.950 . S
H1913 C1924 0.950 . S
H1914 C1926 0.950 . S
H1915 C1927 0.950 . S
C1916 H1908 0.950 . S
C1916 C1917 1.386 . S
C1916 C1918 1.391 . S
C1917 C1916 1.386 . S
C1917 C1921 1.393 . S
C1918 H1910 0.950 . S
C1918 C1916 1.391 . S
C1918 C1919 1.400 . S
C1919 C1918 1.400 . S
C1919 C1920 1.398 . S
C1919 C1925 1.491 . S
C1920 H1911 0.950 . S
C1920 C1919 1.398 . S
C1920 C1921 1.391 . S
C1921 H1909 0.950 . S
C1921 C1917 1.393 . S
C1921 C1920 1.391 . S
C1922 H1912 0.950 . S
C1922 C1923 1.386 . S
C1922 C1924 1.391 . S
C1923 C1922 1.386 . S
C1923 C1927 1.393 . S
C1924 H1913 0.950 . S
C1924 C1922 1.391 . S
C1924 C1925 1.400 . S
C1925 C1919 1.491 . S
C1925 C1924 1.400 . S
C1925 C1926 1.398 . S
C1926 H1914 0.950 . S
C1926 C1925 1.398 . S
C1926 C1927 1.391 . S
C1927 H1915 0.950 . S
C1927 C1923 1.393 . S
C1927 C1926 1.391 . S
H1928 C1936 0.950 . S
H1929 C1941 0.950 . S
H1930 C1938 0.950 . S
H1931 C1940 0.950 . S
H1932 C1942 0.950 . S
H1933 C1944 0.950 . S
H1934 C1946 0.950 . S
H1935 C1947 0.950 . S
C1936 H1928 0.950 . S
C1936 C1937 1.386 . S
C1936 C1938 1.391 . S
C1937 C1936 1.386 . S
C1937 C1941 1.393 . S
C1938 H1930 0.950 . S
C1938 C1936 1.391 . S
C1938 C1939 1.400 . S
C1939 C1938 1.400 . S
C1939 C1940 1.398 . S
C1939 C1945 1.491 . S
C1940 H1931 0.950 . S
C1940 C1939 1.398 . S
C1940 C1941 1.391 . S
C1941 H1929 0.950 . S
C1941 C1937 1.393 . S
C1941 C1940 1.391 . S
C1942 H1932 0.950 . S
C1942 C1943 1.386 . S
C1942 C1944 1.391 . S
C1943 C1942 1.386 . S
C1943 C1947 1.393 . S
C1944 H1933 0.950 . S
C1944 C1942 1.391 . S
C1944 C1945 1.400 . S
C1945 C1939 1.491 . S
C1945 C1944 1.400 . S
C1945 C1946 1.398 . S
C1946 H1934 0.950 . S
C1946 C1945 1.398 . S
C1946 C1947 1.391 . S
C1947 H1935 0.950 . S
C1947 C1943 1.393 . S
C1947 C1946 1.391 . S
H1948 C1956 0.950 . S
H1949 C1961 0.950 . S
H1950 C1958 0.950 . S
H1951 C1960 0.950 . S
H1952 C1962 0.950 . S
H1953 C1964 0.950 . S
H1954 C1966 0.950 . S
H1955 C1967 0.950 . S
C1956 H1948 0.950 . S
C1956 C1957 1.386 . S
C1956 C1958 1.391 . S
C1957 C1956 1.386 . S
C1957 C1961 1.393 . S
C1958 H1950 0.950 . S
C1958 C1956 1.391 . S
C1958 C1959 1.400 . S
C1959 C1958 1.400 . S
C1959 C1960 1.398 . S
C1959 C1965 1.491 . S
C1960 H1951 0.950 . S
C1960 C1959 1.398 . S
C1960 C1961 1.391 . S
C1961 H1949 0.950 . S
C1961 C1957 1.393 . S
C1961 C1960 1.391 . S
C1962 H1952 0.950 . S
C1962 C1963 1.386 . S
C1962 C1964 1.391 . S
C1963 C1962 1.386 . S
C1963 C1967 1.393 . S
C1964 H1953 0.950 . S
C1964 C1962 1.391 . S
C1964 C1965 1.400 . S
C1965 C1959 1.491 . S
C1965 C1964 1.400 . S
C1965 C1966 1.398 . S
C1966 H1954 0.950 . S
C1966 C1965 1.398 . S
C1966 C1967 1.391 . S
C1967 H1955 0.950 . S
C1967 C1963 1.393 . S
C1967 C1966 1.391 . S
H1968 C1976 0.950 . S
H1969 C1981 0.950 . S
H1970 C1978 0.950 . S
H1971 C1980 0.950 . S
H1972 C1982 0.950 . S
H1973 C1984 0.950 . S
H1974 C1986 0.950 . S
H1975 C1987 0.950 . S
C1976 H1968 0.950 . S
C1976 C1977 1.386 . S
C1976 C1978 1.391 . S
C1977 C1976 1.386 . S
C1977 C1981 1.393 . S
C1978 H1970 0.950 . S
C1978 C1976 1.391 . S
C1978 C1979 1.400 . S
C1979 C1978 1.400 . S
C1979 C1980 1.398 . S
C1979 C1985 1.491 . S
C1980 H1971 0.950 . S
C1980 C1979 1.398 . S
C1980 C1981 1.391 . S
C1981 H1969 0.950 . S
C1981 C1977 1.393 . S
C1981 C1980 1.391 . S
C1982 H1972 0.950 . S
C1982 C1983 1.386 . S
C1982 C1984 1.391 . S
C1983 C1982 1.386 . S
C1983 C1987 1.393 . S
C1984 H1973 0.950 . S
C1984 C1982 1.391 . S
C1984 C1985 1.400 . S
C1985 C1979 1.491 . S
C1985 C1984 1.400 . S
C1985 C1986 1.398 . S
C1986 H1974 0.950 . S
C1986 C1985 1.398 . S
C1986 C1987 1.391 . S
C1987 H1975 0.950 . S
C1987 C1983 1.393 . S
C1987 C1986 1.391 . S
H1988 C1996 0.950 . S
H1989 C2001 0.950 . S
H1990 C1998 0.950 . S
H1991 C2000 0.950 . S
H1992 C2002 0.950 . S
H1993 C2004 0.950 . S
H1994 C2006 0.950 . S
H1995 C2007 0.950 . S
C1996 H1988 0.950 . S
C1996 C1997 1.386 . S
C1996 C1998 1.391 . S
C1997 C1996 1.386 . S
C1997 C2001 1.393 . S
C1998 H1990 0.950 . S
C1998 C1996 1.391 . S
C1998 C1999 1.400 . S
C1999 C1998 1.400 . S
C1999 C2000 1.398 . S
C1999 C2005 1.491 . S
C2000 H1991 0.950 . S
C2000 C1999 1.398 . S
C2000 C2001 1.391 . S
C2001 H1989 0.950 . S
C2001 C1997 1.393 . S
C2001 C2000 1.391 . S
C2002 H1992 0.950 . S
C2002 C2003 1.386 . S
C2002 C2004 1.391 . S
C2003 C2002 1.386 . S
C2003 C2007 1.393 . S
C2004 H1993 0.950 . S
C2004 C2002 1.391 . S
C2004 C2005 1.400 . S
C2005 C1999 1.491 . S
C2005 C2004 1.400 . S
C2005 C2006 1.398 . S
C2006 H1994 0.950 . S
C2006 C2005 1.398 . S
C2006 C2007 1.391 . S
C2007 H1995 0.950 . S
C2007 C2003 1.393 . S
C2007 C2006 1.391 . S
H2008 C2016 0.950 . S
H2009 C2021 0.950 . S
H2010 C2018 0.950 . S
H2011 C2020 0.950 . S
H2012 C2022 0.950 . S
H2013 C2024 0.950 . S
H2014 C2026 0.950 . S
H2015 C2027 0.950 . S
C2016 H2008 0.950 . S
C2016 C2017 1.386 . S
C2016 C2018 1.391 . S
C2017 C2016 1.386 . S
C2017 C2021 1.393 . S
C2018 H2010 0.950 . S
C2018 C2016 1.391 . S
C2018 C2019 1.400 . S
C2019 C2018 1.400 . S
C2019 C2020 1.398 . S
C2019 C2025 1.491 . S
C2020 H2011 0.950 . S
C2020 C2019 1.398 . S
C2020 C2021 1.391 . S
C2021 H2009 0.950 . S
C2021 C2017 1.393 . S
C2021 C2020 1.391 . S
C2022 H2012 0.950 . S
C2022 C2023 1.386 . S
C2022 C2024 1.391 . S
C2023 C2022 1.386 . S
C2023 C2027 1.393 . S
C2024 H2013 0.950 . S
C2024 C2022 1.391 . S
C2024 C2025 1.400 . S
C2025 C2019 1.491 . S
C2025 C2024 1.400 . S
C2025 C2026 1.398 . S
C2026 H2014 0.950 . S
C2026 C2025 1.398 . S
C2026 C2027 1.391 . S
C2027 H2015 0.950 . S
C2027 C2023 1.393 . S
C2027 C2026 1.391 . S
H2028 C2036 0.950 . S
H2029 C2041 0.950 . S
H2030 C2038 0.950 . S
H2031 C2040 0.950 . S
H2032 C2042 0.950 . S
H2033 C2044 0.950 . S
H2034 C2046 0.950 . S
H2035 C2047 0.950 . S
C2036 H2028 0.950 . S
C2036 C2037 1.386 . S
C2036 C2038 1.391 . S
C2037 C2036 1.386 . S
C2037 C2041 1.393 . S
C2038 H2030 0.950 . S
C2038 C2036 1.391 . S
C2038 C2039 1.400 . S
C2039 C2038 1.400 . S
C2039 C2040 1.398 . S
C2039 C2045 1.491 . S
C2040 H2031 0.950 . S
C2040 C2039 1.398 . S
C2040 C2041 1.391 . S
C2041 H2029 0.950 . S
C2041 C2037 1.393 . S
C2041 C2040 1.391 . S
C2042 H2032 0.950 . S
C2042 C2043 1.386 . S
C2042 C2044 1.391 . S
C2043 C2042 1.386 . S
C2043 C2047 1.393 . S
C2044 H2033 0.950 . S
C2044 C2042 1.391 . S
C2044 C2045 1.400 . S
C2045 C2039 1.491 . S
C2045 C2044 1.400 . S
C2045 C2046 1.398 . S
C2046 H2034 0.950 . S
C2046 C2045 1.398 . S
C2046 C2047 1.391 . S
C2047 H2035 0.950 . S
C2047 C2043 1.393 . S
C2047 C2046 1.391 . S
H2048 C2056 0.950 . S
H2049 C2061 0.950 . S
H2050 C2058 0.950 . S
H2051 C2060 0.950 . S
H2052 C2062 0.950 . S
H2053 C2064 0.950 . S
H2054 C2066 0.950 . S
H2055 C2067 0.950 . S
C2056 H2048 0.950 . S
C2056 C2057 1.386 . S
C2056 C2058 1.391 . S
C2057 C2056 1.386 . S
C2057 C2061 1.393 . S
C2058 H2050 0.950 . S
C2058 C2056 1.391 . S
C2058 C2059 1.400 . S
C2059 C2058 1.400 . S
C2059 C2060 1.398 . S
C2059 C2065 1.491 . S
C2060 H2051 0.950 . S
C2060 C2059 1.398 . S
C2060 C2061 1.391 . S
C2061 H2049 0.950 . S
C2061 C2057 1.393 . S
C2061 C2060 1.391 . S
C2062 H2052 0.950 . S
C2062 C2063 1.386 . S
C2062 C2064 1.391 . S
C2063 C2062 1.386 . S
C2063 C2067 1.393 . S
C2064 H2053 0.950 . S
C2064 C2062 1.391 . S
C2064 C2065 1.400 . S
C2065 C2059 1.491 . S
C2065 C2064 1.400 . S
C2065 C2066 1.398 . S
C2066 H2054 0.950 . S
C2066 C2065 1.398 . S
C2066 C2067 1.391 . S
C2067 H2055 0.950 . S
C2067 C2063 1.393 . S
C2067 C2066 1.391 . S
H2068 C2076 0.950 . S
H2069 C2081 0.950 . S
H2070 C2078 0.950 . S
H2071 C2080 0.950 . S
H2072 C2082 0.950 . S
H2073 C2084 0.950 . S
H2074 C2086 0.950 . S
H2075 C2087 0.950 . S
C2076 H2068 0.950 . S
C2076 C2077 1.386 . S
C2076 C2078 1.391 . S
C2077 C2076 1.386 . S
C2077 C2081 1.393 . S
C2078 H2070 0.950 . S
C2078 C2076 1.391 . S
C2078 C2079 1.400 . S
C2079 C2078 1.400 . S
C2079 C2080 1.398 . S
C2079 C2085 1.491 . S
C2080 H2071 0.950 . S
C2080 C2079 1.398 . S
C2080 C2081 1.391 . S
C2081 H2069 0.950 . S
C2081 C2077 1.393 . S
C2081 C2080 1.391 . S
C2082 H2072 0.950 . S
C2082 C2083 1.386 . S
C2082 C2084 1.391 . S
C2083 C2082 1.386 . S
C2083 C2087 1.393 . S
C2084 H2073 0.950 . S
C2084 C2082 1.391 . S
C2084 C2085 1.400 . S
C2085 C2079 1.491 . S
C2085 C2084 1.400 . S
C2085 C2086 1.398 . S
C2086 H2074 0.950 . S
C2086 C2085 1.398 . S
C2086 C2087 1.391 . S
C2087 H2075 0.950 . S
C2087 C2083 1.393 . S
C2087 C2086 1.391 . S
H2088 C2096 0.950 . S
H2089 C2101 0.950 . S
H2090 C2098 0.950 . S
H2091 C2100 0.950 . S
H2092 C2102 0.950 . S
H2093 C2104 0.950 . S
H2094 C2106 0.950 . S
H2095 C2107 0.950 . S
C2096 H2088 0.950 . S
C2096 C2097 1.386 . S
C2096 C2098 1.391 . S
C2097 C2096 1.386 . S
C2097 C2101 1.393 . S
C2098 H2090 0.950 . S
C2098 C2096 1.391 . S
C2098 C2099 1.400 . S
C2099 C2098 1.400 . S
C2099 C2100 1.398 . S
C2099 C2105 1.491 . S
C2100 H2091 0.950 . S
C2100 C2099 1.398 . S
C2100 C2101 1.391 . S
C2101 H2089 0.950 . S
C2101 C2097 1.393 . S
C2101 C2100 1.391 . S
C2102 H2092 0.950 . S
C2102 C2103 1.386 . S
C2102 C2104 1.391 . S
C2103 C2102 1.386 . S
C2103 C2107 1.393 . S
C2104 H2093 0.950 . S
C2104 C2102 1.391 . S
C2104 C2105 1.400 . S
C2105 C2099 1.491 . S
C2105 C2104 1.400 . S
C2105 C2106 1.398 . S
C2106 H2094 0.950 . S
C2106 C2105 1.398 . S
C2106 C2107 1.391 . S
C2107 H2095 0.950 . S
C2107 C2103 1.393 . S
C2107 C2106 1.391 . S
H2108 C2116 0.950 . S
H2109 C2121 0.950 . S
H2110 C2118 0.950 . S
H2111 C2120 0.950 . S
H2112 C2122 0.950 . S
H2113 C2124 0.950 . S
H2114 C2126 0.950 . S
H2115 C2127 0.950 . S
C2116 H2108 0.950 . S
C2116 C2117 1.386 . S
C2116 C2118 1.391 . S
C2117 C2116 1.386 . S
C2117 C2121 1.393 . S
C2118 H2110 0.950 . S
C2118 C2116 1.391 . S
C2118 C2119 1.400 . S
C2119 C2118 1.400 . S
C2119 C2120 1.398 . S
C2119 C2125 1.491 . S
C2120 H2111 0.950 . S
C2120 C2119 1.398 . S
C2120 C2121 1.391 . S
C2121 H2109 0.950 . S
C2121 C2117 1.393 . S
C2121 C2120 1.391 . S
C2122 H2112 0.950 . S
C2122 C2123 1.386 . S
C2122 C2124 1.391 . S
C2123 C2122 1.386 . S
C2123 C2127 1.393 . S
C2124 H2113 0.950 . S
C2124 C2122 1.391 . S
C2124 C2125 1.400 . S
C2125 C2119 1.491 . S
C2125 C2124 1.400 . S
C2125 C2126 1.398 . S
C2126 H2114 0.950 . S
C2126 C2125 1.398 . S
C2126 C2127 1.391 . S
C2127 H2115 0.950 . S
C2127 C2123 1.393 . S
C2127 C2126 1.391 . S
H2128 C2136 0.950 . S
H2129 C2141 0.950 . S
H2130 C2138 0.950 . S
H2131 C2140 0.950 . S
H2132 C2142 0.950 . S
H2133 C2144 0.950 . S
H2134 C2146 0.950 . S
H2135 C2147 0.950 . S
C2136 H2128 0.950 . S
C2136 C2137 1.386 . S
C2136 C2138 1.391 . S
C2137 C2136 1.386 . S
C2137 C2141 1.393 . S
C2138 H2130 0.950 . S
C2138 C2136 1.391 . S
C2138 C2139 1.400 . S
C2139 C2138 1.400 . S
C2139 C2140 1.398 . S
C2139 C2145 1.491 . S
C2140 H2131 0.950 . S
C2140 C2139 1.398 . S
C2140 C2141 1.391 . S
C2141 H2129 0.950 . S
C2141 C2137 1.393 . S
C2141 C2140 1.391 . S
C2142 H2132 0.950 . S
C2142 C2143 1.386 . S
C2142 C2144 1.391 . S
C2143 C2142 1.386 . S
C2143 C2147 1.393 . S
C2144 H2133 0.950 . S
C2144 C2142 1.391 . S
C2144 C2145 1.400 . S
C2145 C2139 1.491 . S
C2145 C2144 1.400 . S
C2145 C2146 1.398 . S
C2146 H2134 0.950 . S
C2146 C2145 1.398 . S
C2146 C2147 1.391 . S
C2147 H2135 0.950 . S
C2147 C2143 1.393 . S
C2147 C2146 1.391 . S
H2148 C2156 0.950 . S
H2149 C2161 0.950 . S
H2150 C2158 0.950 . S
H2151 C2160 0.950 . S
H2152 C2162 0.950 . S
H2153 C2164 0.950 . S
H2154 C2166 0.950 . S
H2155 C2167 0.950 . S
C2156 H2148 0.950 . S
C2156 C2157 1.386 . S
C2156 C2158 1.391 . S
C2157 C2156 1.386 . S
C2157 C2161 1.393 . S
C2158 H2150 0.950 . S
C2158 C2156 1.391 . S
C2158 C2159 1.400 . S
C2159 C2158 1.400 . S
C2159 C2160 1.398 . S
C2159 C2165 1.491 . S
C2160 H2151 0.950 . S
C2160 C2159 1.398 . S
C2160 C2161 1.391 . S
C2161 H2149 0.950 . S
C2161 C2157 1.393 . S
C2161 C2160 1.391 . S
C2162 H2152 0.950 . S
C2162 C2163 1.386 . S
C2162 C2164 1.391 . S
C2163 C2162 1.386 . S
C2163 C2167 1.393 . S
C2164 H2153 0.950 . S
C2164 C2162 1.391 . S
C2164 C2165 1.400 . S
C2165 C2159 1.491 . S
C2165 C2164 1.400 . S
C2165 C2166 1.398 . S
C2166 H2154 0.950 . S
C2166 C2165 1.398 . S
C2166 C2167 1.391 . S
C2167 H2155 0.950 . S
C2167 C2163 1.393 . S
C2167 C2166 1.391 . S
H2168 C2176 0.950 . S
H2169 C2181 0.950 . S
H2170 C2178 0.950 . S
H2171 C2180 0.950 . S
H2172 C2182 0.950 . S
H2173 C2184 0.950 . S
H2174 C2186 0.950 . S
H2175 C2187 0.950 . S
C2176 H2168 0.950 . S
C2176 C2177 1.386 . S
C2176 C2178 1.391 . S
C2177 C2176 1.386 . S
C2177 C2181 1.393 . S
C2178 H2170 0.950 . S
C2178 C2176 1.391 . S
C2178 C2179 1.400 . S
C2179 C2178 1.400 . S
C2179 C2180 1.398 . S
C2179 C2185 1.491 . S
C2180 H2171 0.950 . S
C2180 C2179 1.398 . S
C2180 C2181 1.391 . S
C2181 H2169 0.950 . S
C2181 C2177 1.393 . S
C2181 C2180 1.391 . S
C2182 H2172 0.950 . S
C2182 C2183 1.386 . S
C2182 C2184 1.391 . S
C2183 C2182 1.386 . S
C2183 C2187 1.393 . S
C2184 H2173 0.950 . S
C2184 C2182 1.391 . S
C2184 C2185 1.400 . S
C2185 C2179 1.491 . S
C2185 C2184 1.400 . S
C2185 C2186 1.398 . S
C2186 H2174 0.950 . S
C2186 C2185 1.398 . S
C2186 C2187 1.391 . S
C2187 H2175 0.950 . S
C2187 C2183 1.393 . S
C2187 C2186 1.391 . S
H2188 C2196 0.950 . S
H2189 C2201 0.950 . S
H2190 C2198 0.950 . S
H2191 C2200 0.950 . S
H2192 C2202 0.950 . S
H2193 C2204 0.950 . S
H2194 C2206 0.950 . S
H2195 C2207 0.950 . S
C2196 H2188 0.950 . S
C2196 C2197 1.386 . S
C2196 C2198 1.391 . S
C2197 C2196 1.386 . S
C2197 C2201 1.393 . S
C2198 H2190 0.950 . S
C2198 C2196 1.391 . S
C2198 C2199 1.400 . S
C2199 C2198 1.400 . S
C2199 C2200 1.398 . S
C2199 C2205 1.491 . S
C2200 H2191 0.950 . S
C2200 C2199 1.398 . S
C2200 C2201 1.391 . S
C2201 H2189 0.950 . S
C2201 C2197 1.393 . S
C2201 C2200 1.391 . S
C2202 H2192 0.950 . S
C2202 C2203 1.386 . S
C2202 C2204 1.391 . S
C2203 C2202 1.386 . S
C2203 C2207 1.393 . S
C2204 H2193 0.950 . S
C2204 C2202 1.391 . S
C2204 C2205 1.400 . S
C2205 C2199 1.491 . S
C2205 C2204 1.400 . S
C2205 C2206 1.398 . S
C2206 H2194 0.950 . S
C2206 C2205 1.398 . S
C2206 C2207 1.391 . S
C2207 H2195 0.950 . S
C2207 C2203 1.393 . S
C2207 C2206 1.391 . S
H2208 C2216 0.950 1_455 S
H2209 C2221 0.950 . S
H2210 C2218 0.950 . S
H2211 C2220 0.950 . S
H2212 C2222 0.950 1_655 S
H2213 C2224 0.950 . S
H2214 C2226 0.950 . S
H2215 C2227 0.950 . S
C2216 H2208 0.950 1_655 S
C2216 C2217 1.386 . S
C2216 C2218 1.391 1_655 S
C2217 C2216 1.386 . S
C2217 C2221 1.393 . S
C2218 H2210 0.950 . S
C2218 C2216 1.391 1_455 S
C2218 C2219 1.400 1_455 S
C2219 C2218 1.400 1_655 S
C2219 C2220 1.398 . S
C2219 C2225 1.491 1_655 S
C2220 H2211 0.950 . S
C2220 C2219 1.398 . S
C2220 C2221 1.391 . S
C2221 H2209 0.950 . S
C2221 C2217 1.393 . S
C2221 C2220 1.391 . S
C2222 H2212 0.950 1_455 S
C2222 C2223 1.386 . S
C2222 C2224 1.391 1_455 S
C2223 C2222 1.386 . S
C2223 C2227 1.393 . S
C2224 H2213 0.950 . S
C2224 C2222 1.391 1_655 S
C2224 C2225 1.400 1_655 S
C2225 C2219 1.491 1_455 S
C2225 C2224 1.400 1_455 S
C2225 C2226 1.398 . S
C2226 H2214 0.950 . S
C2226 C2225 1.398 . S
C2226 C2227 1.391 . S
C2227 H2215 0.950 . S
C2227 C2223 1.393 . S
C2227 C2226 1.391 . S
H2228 C2236 0.950 . S
H2229 C2241 0.950 . S
H2230 C2238 0.950 . S
H2231 C2240 0.950 1_545 S
H2232 C2242 0.950 . S
H2233 C2244 0.950 . S
H2234 C2246 0.950 1_565 S
H2235 C2247 0.950 . S
C2236 H2228 0.950 . S
C2236 C2237 1.386 . S
C2236 C2238 1.391 . S
C2237 C2236 1.386 . S
C2237 C2241 1.393 . S
C2238 H2230 0.950 . S
C2238 C2236 1.391 . S
C2238 C2239 1.400 . S
C2239 C2238 1.400 . S
C2239 C2240 1.398 . S
C2239 C2245 1.491 1_565 S
C2240 H2231 0.950 1_565 S
C2240 C2239 1.398 . S
C2240 C2241 1.391 . S
C2241 H2229 0.950 . S
C2241 C2237 1.393 . S
C2241 C2240 1.391 . S
C2242 H2232 0.950 . S
C2242 C2243 1.386 . S
C2242 C2244 1.391 . S
C2243 C2242 1.386 . S
C2243 C2247 1.393 . S
C2244 H2233 0.950 . S
C2244 C2242 1.391 . S
C2244 C2245 1.400 . S
C2245 C2239 1.491 1_545 S
C2245 C2244 1.400 . S
C2245 C2246 1.398 . S
C2246 H2234 0.950 1_545 S
C2246 C2245 1.398 . S
C2246 C2247 1.391 . S
C2247 H2235 0.950 . S
C2247 C2243 1.393 . S
C2247 C2246 1.391 . S
H2248 C2256 0.950 . S
H2249 C2261 0.950 . S
H2250 C2258 0.950 . S
H2251 C2260 0.950 . S
H2252 C2262 0.950 . S
H2253 C2264 0.950 . S
H2254 C2266 0.950 . S
H2255 C2267 0.950 . S
C2256 H2248 0.950 . S
C2256 C2257 1.386 1_554 S
C2256 C2258 1.391 . S
C2257 C2256 1.386 1_556 S
C2257 C2261 1.393 . S
C2258 H2250 0.950 . S
C2258 C2256 1.391 . S
C2258 C2259 1.400 1_554 S
C2259 C2258 1.400 1_556 S
C2259 C2260 1.398 . S
C2259 C2265 1.491 1_466 S
C2260 H2251 0.950 . S
C2260 C2259 1.398 . S
C2260 C2261 1.391 . S
C2261 H2249 0.950 . S
C2261 C2257 1.393 . S
C2261 C2260 1.391 . S
C2262 H2252 0.950 . S
C2262 C2263 1.386 1_556 S
C2262 C2264 1.391 . S
C2263 C2262 1.386 1_554 S
C2263 C2267 1.393 . S
C2264 H2253 0.950 . S
C2264 C2262 1.391 . S
C2264 C2265 1.400 1_556 S
C2265 C2259 1.491 1_644 S
C2265 C2264 1.400 1_554 S
C2265 C2266 1.398 . S
C2266 H2254 0.950 . S
C2266 C2265 1.398 . S
C2266 C2267 1.391 . S
C2267 H2255 0.950 . S
C2267 C2263 1.393 . S
C2267 C2266 1.391 . S
H2268 C2276 0.950 . S
H2269 C2281 0.950 . S
H2270 C2278 0.950 . S
H2271 C2280 0.950 . S
H2272 C2282 0.950 . S
H2273 C2284 0.950 . S
H2274 C2286 0.950 . S
H2275 C2287 0.950 . S
C2276 H2268 0.950 . S
C2276 C2277 1.386 . S
C2276 C2278 1.391 . S
C2277 C2276 1.386 . S
C2277 C2281 1.393 1_554 S
C2278 H2270 0.950 . S
C2278 C2276 1.391 . S
C2278 C2279 1.400 . S
C2279 C2278 1.400 . S
C2279 C2280 1.398 1_554 S
C2279 C2285 1.491 1_554 S
C2280 H2271 0.950 . S
C2280 C2279 1.398 1_556 S
C2280 C2281 1.391 . S
C2281 H2269 0.950 . S
C2281 C2277 1.393 1_556 S
C2281 C2280 1.391 . S
C2282 H2272 0.950 . S
C2282 C2283 1.386 . S
C2282 C2284 1.391 . S
C2283 C2282 1.386 . S
C2283 C2287 1.393 1_556 S
C2284 H2273 0.950 . S
C2284 C2282 1.391 . S
C2284 C2285 1.400 . S
C2285 C2279 1.491 1_556 S
C2285 C2284 1.400 . S
C2285 C2286 1.398 1_556 S
C2286 H2274 0.950 . S
C2286 C2285 1.398 1_554 S
C2286 C2287 1.391 . S
C2287 H2275 0.950 . S
C2287 C2283 1.393 1_554 S
C2287 C2286 1.391 . S
H2288 C2296 0.950 . S
H2289 C2301 0.950 . S
H2290 C2298 0.950 1_455 S
H2291 C2300 0.950 . S
H2292 C2302 0.950 . S
H2293 C2304 0.950 1_655 S
H2294 C2306 0.950 . S
H2295 C2307 0.950 . S
C2296 H2288 0.950 . S
C2296 C2297 1.386 . S
C2296 C2298 1.391 . S
C2297 C2296 1.386 . S
C2297 C2301 1.393 . S
C2298 H2290 0.950 1_655 S
C2298 C2296 1.391 . S
C2298 C2299 1.400 . S
C2299 C2298 1.400 . S
C2299 C2300 1.398 . S
C2299 C2305 1.491 1_655 S
C2300 H2291 0.950 . S
C2300 C2299 1.398 . S
C2300 C2301 1.391 . S
C2301 H2289 0.950 . S
C2301 C2297 1.393 . S
C2301 C2300 1.391 . S
C2302 H2292 0.950 . S
C2302 C2303 1.386 . S
C2302 C2304 1.391 . S
C2303 C2302 1.386 . S
C2303 C2307 1.393 . S
C2304 H2293 0.950 1_455 S
C2304 C2302 1.391 . S
C2304 C2305 1.400 . S
C2305 C2299 1.491 1_455 S
C2305 C2304 1.400 . S
C2305 C2306 1.398 . S
C2306 H2294 0.950 . S
C2306 C2305 1.398 . S
C2306 C2307 1.391 . S
C2307 H2295 0.950 . S
C2307 C2303 1.393 . S
C2307 C2306 1.391 . S
H2308 C2316 0.950 . S
H2309 C2321 0.950 . S
H2310 C2318 0.950 . S
H2311 C2320 0.950 1_545 S
H2312 C2322 0.950 . S
H2313 C2324 0.950 . S
H2314 C2326 0.950 1_565 S
H2315 C2327 0.950 . S
C2316 H2308 0.950 . S
C2316 C2317 1.386 . S
C2316 C2318 1.391 . S
C2317 C2316 1.386 . S
C2317 C2321 1.393 . S
C2318 H2310 0.950 . S
C2318 C2316 1.391 . S
C2318 C2319 1.400 . S
C2319 C2318 1.400 . S
C2319 C2320 1.398 . S
C2319 C2325 1.491 1_565 S
C2320 H2311 0.950 1_565 S
C2320 C2319 1.398 . S
C2320 C2321 1.391 . S
C2321 H2309 0.950 . S
C2321 C2317 1.393 . S
C2321 C2320 1.391 . S
C2322 H2312 0.950 . S
C2322 C2323 1.386 . S
C2322 C2324 1.391 . S
C2323 C2322 1.386 . S
C2323 C2327 1.393 . S
C2324 H2313 0.950 . S
C2324 C2322 1.391 . S
C2324 C2325 1.400 . S
C2325 C2319 1.491 1_545 S
C2325 C2324 1.400 . S
C2325 C2326 1.398 . S
C2326 H2314 0.950 1_545 S
C2326 C2325 1.398 . S
C2326 C2327 1.391 . S
C2327 H2315 0.950 . S
C2327 C2323 1.393 . S
C2327 C2326 1.391 . S
H2328 C2336 0.950 . S
H2329 C2341 0.953 . S
H2330 C2338 0.950 . S
H2331 C2340 0.950 . S
H2332 C2342 0.950 . S
H2333 C2344 0.950 . S
H2334 C2346 0.950 . S
H2335 C2347 0.953 . S
C2336 H2328 0.950 . S
C2336 C2337 1.386 . S
C2336 C2338 1.391 . S
C2337 C2336 1.386 . S
C2337 C2341 1.388 1_556 S
C2338 H2330 0.950 . S
C2338 C2336 1.391 . S
C2338 C2339 1.400 . S
C2339 C2338 1.400 . S
C2339 C2340 1.398 1_556 S
C2339 C2345 1.491 1_556 S
C2340 H2331 0.950 . S
C2340 C2339 1.398 1_554 S
C2340 C2341 1.393 . S
C2341 H2329 0.953 . S
C2341 C2337 1.388 1_554 S
C2341 C2340 1.393 . S
C2342 H2332 0.950 . S
C2342 C2343 1.386 . S
C2342 C2344 1.391 . S
C2343 C2342 1.386 . S
C2343 C2347 1.388 1_554 S
C2344 H2333 0.950 . S
C2344 C2342 1.391 . S
C2344 C2345 1.400 . S
C2345 C2339 1.491 1_554 S
C2345 C2344 1.400 . S
C2345 C2346 1.398 1_554 S
C2346 H2334 0.950 . S
C2346 C2345 1.398 1_556 S
C2346 C2347 1.393 . S
C2347 H2335 0.953 . S
C2347 C2343 1.388 1_556 S
C2347 C2346 1.393 . S
H2348 C2356 0.950 . S
H2349 C2361 0.950 . S
H2350 C2358 0.950 . S
H2351 C2360 0.950 . S
H2352 C2362 0.950 . S
H2353 C2364 0.950 . S
H2354 C2366 0.950 . S
H2355 C2367 0.950 . S
C2356 H2348 0.950 . S
C2356 C2357 1.386 . S
C2356 C2358 1.391 . S
C2357 C2356 1.386 . S
C2357 C2361 1.393 . S
C2358 H2350 0.950 . S
C2358 C2356 1.391 . S
C2358 C2359 1.400 . S
C2359 C2358 1.400 . S
C2359 C2360 1.398 . S
C2359 C2365 1.491 . S
C2360 H2351 0.950 . S
C2360 C2359 1.398 . S
C2360 C2361 1.391 . S
C2361 H2349 0.950 . S
C2361 C2357 1.393 . S
C2361 C2360 1.391 . S
C2362 H2352 0.950 . S
C2362 C2363 1.386 . S
C2362 C2364 1.391 . S
C2363 C2362 1.386 . S
C2363 C2367 1.393 . S
C2364 H2353 0.950 . S
C2364 C2362 1.391 . S
C2364 C2365 1.400 . S
C2365 C2359 1.491 . S
C2365 C2364 1.400 . S
C2365 C2366 1.398 . S
C2366 H2354 0.950 . S
C2366 C2365 1.398 . S
C2366 C2367 1.391 . S
C2367 H2355 0.950 . S
C2367 C2363 1.393 . S
C2367 C2366 1.391 . S
H2368 C2376 0.950 . S
H2369 C2381 0.950 . S
H2370 C2378 0.950 . S
H2371 C2380 0.948 1_455 S
H2372 C2382 0.950 . S
H2373 C2384 0.950 . S
H2374 C2386 0.948 1_655 S
H2375 C2387 0.950 . S
C2376 H2368 0.950 . S
C2376 C2377 1.386 . S
C2376 C2378 1.391 . S
C2377 C2376 1.386 . S
C2377 C2381 1.393 . S
C2378 H2370 0.950 . S
C2378 C2376 1.391 . S
C2378 C2379 1.400 . S
C2379 C2378 1.400 . S
C2379 C2380 1.399 . S
C2379 C2385 1.491 1_655 S
C2380 H2371 0.948 1_655 S
C2380 C2379 1.399 . S
C2380 C2381 1.392 . S
C2381 H2369 0.950 . S
C2381 C2377 1.393 . S
C2381 C2380 1.392 . S
C2382 H2372 0.950 . S
C2382 C2383 1.386 . S
C2382 C2384 1.391 . S
C2383 C2382 1.386 . S
C2383 C2387 1.393 . S
C2384 H2373 0.950 . S
C2384 C2382 1.391 . S
C2384 C2385 1.400 . S
C2385 C2379 1.491 1_455 S
C2385 C2384 1.400 . S
C2385 C2386 1.399 . S
C2386 H2374 0.948 1_455 S
C2386 C2385 1.399 . S
C2386 C2387 1.392 . S
C2387 H2375 0.950 . S
C2387 C2383 1.393 . S
C2387 C2386 1.392 . S
H2388 C2396 0.950 . S
H2389 C2401 0.950 . S
H2390 C2398 0.950 . S
H2391 C2400 0.950 . S
H2392 C2402 0.950 . S
H2393 C2404 0.950 . S
H2394 C2406 0.950 . S
H2395 C2407 0.950 . S
C2396 H2388 0.950 . S
C2396 C2397 1.386 . S
C2396 C2398 1.391 . S
C2397 C2396 1.386 . S
C2397 C2401 1.393 . S
C2398 H2390 0.950 . S
C2398 C2396 1.391 . S
C2398 C2399 1.400 . S
C2399 C2398 1.400 . S
C2399 C2400 1.398 . S
C2399 C2405 1.491 . S
C2400 H2391 0.950 . S
C2400 C2399 1.398 . S
C2400 C2401 1.391 . S
C2401 H2389 0.950 . S
C2401 C2397 1.393 . S
C2401 C2400 1.391 . S
C2402 H2392 0.950 . S
C2402 C2403 1.386 . S
C2402 C2404 1.391 . S
C2403 C2402 1.386 . S
C2403 C2407 1.393 . S
C2404 H2393 0.950 . S
C2404 C2402 1.391 . S
C2404 C2405 1.400 . S
C2405 C2399 1.491 . S
C2405 C2404 1.400 . S
C2405 C2406 1.398 . S
C2406 H2394 0.950 . S
C2406 C2405 1.398 . S
C2406 C2407 1.391 . S
C2407 H2395 0.950 . S
C2407 C2403 1.393 . S
C2407 C2406 1.391 . S
H2408 C2416 0.950 . S
H2409 C2421 0.950 . S
H2410 C2418 0.950 . S
H2411 C2420 0.950 . S
H2412 C2422 0.950 . S
H2413 C2424 0.950 . S
H2414 C2426 0.950 . S
H2415 C2427 0.950 . S
C2416 H2408 0.950 . S
C2416 C2417 1.386 . S
C2416 C2418 1.391 . S
C2417 C2416 1.386 . S
C2417 C2421 1.393 . S
C2418 H2410 0.950 . S
C2418 C2416 1.391 . S
C2418 C2419 1.400 . S
C2419 C2418 1.400 . S
C2419 C2420 1.398 . S
C2419 C2425 1.491 . S
C2420 H2411 0.950 . S
C2420 C2419 1.398 . S
C2420 C2421 1.391 . S
C2421 H2409 0.950 . S
C2421 C2417 1.393 . S
C2421 C2420 1.391 . S
C2422 H2412 0.950 . S
C2422 C2423 1.386 . S
C2422 C2424 1.391 . S
C2423 C2422 1.386 . S
C2423 C2427 1.393 . S
C2424 H2413 0.950 . S
C2424 C2422 1.391 . S
C2424 C2425 1.400 . S
C2425 C2419 1.491 . S
C2425 C2424 1.400 . S
C2425 C2426 1.398 . S
C2426 H2414 0.950 . S
C2426 C2425 1.398 . S
C2426 C2427 1.391 . S
C2427 H2415 0.950 . S
C2427 C2423 1.393 . S
C2427 C2426 1.391 . S
H2428 C2436 0.950 . S
H2429 C2441 0.950 . S
H2430 C2438 0.950 . S
H2431 C2440 0.950 . S
H2432 C2442 0.950 . S
H2433 C2444 0.950 . S
H2434 C2446 0.950 . S
H2435 C2447 0.950 . S
C2436 H2428 0.950 . S
C2436 C2437 1.386 . S
C2436 C2438 1.391 . S
C2437 C2436 1.386 . S
C2437 C2441 1.393 . S
C2438 H2430 0.950 . S
C2438 C2436 1.391 . S
C2438 C2439 1.400 . S
C2439 C2438 1.400 . S
C2439 C2440 1.398 . S
C2439 C2445 1.491 . S
C2440 H2431 0.950 . S
C2440 C2439 1.398 . S
C2440 C2441 1.391 . S
C2441 H2429 0.950 . S
C2441 C2437 1.393 . S
C2441 C2440 1.391 . S
C2442 H2432 0.950 . S
C2442 C2443 1.386 . S
C2442 C2444 1.391 . S
C2443 C2442 1.386 . S
C2443 C2447 1.393 . S
C2444 H2433 0.950 . S
C2444 C2442 1.391 . S
C2444 C2445 1.400 . S
C2445 C2439 1.491 . S
C2445 C2444 1.400 . S
C2445 C2446 1.398 . S
C2446 H2434 0.950 . S
C2446 C2445 1.398 . S
C2446 C2447 1.391 . S
C2447 H2435 0.950 . S
C2447 C2443 1.393 . S
C2447 C2446 1.391 . S
H2448 C2456 0.950 . S
H2449 C2461 0.950 . S
H2450 C2458 0.950 . S
H2451 C2460 0.950 . S
H2452 C2462 0.950 . S
H2453 C2464 0.950 . S
H2454 C2466 0.950 . S
H2455 C2467 0.950 . S
C2456 H2448 0.950 . S
C2456 C2457 1.386 . S
C2456 C2458 1.391 . S
C2457 C2456 1.386 . S
C2457 C2461 1.393 . S
C2458 H2450 0.950 . S
C2458 C2456 1.391 . S
C2458 C2459 1.400 . S
C2459 C2458 1.400 . S
C2459 C2460 1.398 . S
C2459 C2465 1.491 . S
C2460 H2451 0.950 . S
C2460 C2459 1.398 . S
C2460 C2461 1.391 . S
C2461 H2449 0.950 . S
C2461 C2457 1.393 . S
C2461 C2460 1.391 . S
C2462 H2452 0.950 . S
C2462 C2463 1.386 . S
C2462 C2464 1.391 . S
C2463 C2462 1.386 . S
C2463 C2467 1.393 . S
C2464 H2453 0.950 . S
C2464 C2462 1.391 . S
C2464 C2465 1.400 . S
C2465 C2459 1.491 . S
C2465 C2464 1.400 . S
C2465 C2466 1.398 . S
C2466 H2454 0.950 . S
C2466 C2465 1.398 . S
C2466 C2467 1.391 . S
C2467 H2455 0.950 . S
C2467 C2463 1.393 . S
C2467 C2466 1.391 . S
H2468 C2476 0.950 . S
H2469 C2481 0.950 . S
H2470 C2478 0.950 . S
H2471 C2480 0.950 . S
H2472 C2482 0.950 . S
H2473 C2484 0.950 . S
H2474 C2486 0.950 . S
H2475 C2487 0.950 . S
C2476 H2468 0.950 . S
C2476 C2477 1.386 . S
C2476 C2478 1.391 . S
C2477 C2476 1.386 . S
C2477 C2481 1.393 . S
C2478 H2470 0.950 . S
C2478 C2476 1.391 . S
C2478 C2479 1.400 . S
C2479 C2478 1.400 . S
C2479 C2480 1.398 . S
C2479 C2485 1.491 1_545 S
C2480 H2471 0.950 . S
C2480 C2479 1.398 . S
C2480 C2481 1.391 . S
C2481 H2469 0.950 . S
C2481 C2477 1.393 . S
C2481 C2480 1.391 . S
C2482 H2472 0.950 . S
C2482 C2483 1.386 . S
C2482 C2484 1.391 . S
C2483 C2482 1.386 . S
C2483 C2487 1.393 . S
C2484 H2473 0.950 . S
C2484 C2482 1.391 . S
C2484 C2485 1.400 . S
C2485 C2479 1.491 1_565 S
C2485 C2484 1.400 . S
C2485 C2486 1.398 . S
C2486 H2474 0.950 . S
C2486 C2485 1.398 . S
C2486 C2487 1.391 . S
C2487 H2475 0.950 . S
C2487 C2483 1.393 . S
C2487 C2486 1.391 . S
H2488 C2496 0.950 . S
H2489 C2501 0.950 . S
H2490 C2498 0.950 . S
H2491 C2500 0.950 . S
H2492 C2502 0.950 . S
H2493 C2504 0.950 . S
H2494 C2506 0.950 . S
H2495 C2507 0.950 . S
C2496 H2488 0.950 . S
C2496 C2497 1.386 . S
C2496 C2498 1.391 . S
C2497 C2496 1.386 . S
C2497 C2501 1.393 . S
C2498 H2490 0.950 . S
C2498 C2496 1.391 . S
C2498 C2499 1.400 . S
C2499 C2498 1.400 . S
C2499 C2500 1.398 . S
C2499 C2505 1.491 . S
C2500 H2491 0.950 . S
C2500 C2499 1.398 . S
C2500 C2501 1.391 . S
C2501 H2489 0.950 . S
C2501 C2497 1.393 . S
C2501 C2500 1.391 . S
C2502 H2492 0.950 . S
C2502 C2503 1.386 . S
C2502 C2504 1.391 . S
C2503 C2502 1.386 . S
C2503 C2507 1.393 . S
C2504 H2493 0.950 . S
C2504 C2502 1.391 . S
C2504 C2505 1.400 . S
C2505 C2499 1.491 . S
C2505 C2504 1.400 . S
C2505 C2506 1.398 . S
C2506 H2494 0.950 . S
C2506 C2505 1.398 . S
C2506 C2507 1.391 . S
C2507 H2495 0.950 . S
C2507 C2503 1.393 . S
C2507 C2506 1.391 . S
H2508 C2516 0.950 . S
H2509 C2521 0.950 . S
H2510 C2518 0.950 . S
H2511 C2520 0.950 . S
H2512 C2522 0.950 . S
H2513 C2524 0.950 . S
H2514 C2526 0.950 . S
H2515 C2527 0.950 . S
C2516 H2508 0.950 . S
C2516 C2517 1.386 1_554 S
C2516 C2518 1.391 . S
C2517 C2516 1.386 1_556 S
C2517 C2521 1.393 . S
C2518 H2510 0.950 . S
C2518 C2516 1.391 . S
C2518 C2519 1.400 1_554 S
C2519 C2518 1.400 1_556 S
C2519 C2520 1.398 . S
C2519 C2525 1.491 1_556 S
C2520 H2511 0.950 . S
C2520 C2519 1.398 . S
C2520 C2521 1.391 . S
C2521 H2509 0.950 . S
C2521 C2517 1.393 . S
C2521 C2520 1.391 . S
C2522 H2512 0.950 . S
C2522 C2523 1.386 1_556 S
C2522 C2524 1.391 . S
C2523 C2522 1.386 1_554 S
C2523 C2527 1.393 . S
C2524 H2513 0.950 . S
C2524 C2522 1.391 . S
C2524 C2525 1.400 1_556 S
C2525 C2519 1.491 1_554 S
C2525 C2524 1.400 1_554 S
C2525 C2526 1.398 . S
C2526 H2514 0.950 . S
C2526 C2525 1.398 . S
C2526 C2527 1.391 . S
C2527 H2515 0.950 . S
C2527 C2523 1.393 . S
C2527 C2526 1.391 . S
H2528 C2536 0.950 . S
H2529 C2541 0.950 . S
H2530 C2538 0.950 . S
H2531 C2540 0.950 . S
H2532 C2542 0.950 . S
H2533 C2544 0.950 . S
H2534 C2546 0.950 . S
H2535 C2547 0.950 . S
C2536 H2528 0.950 . S
C2536 C2537 1.386 . S
C2536 C2538 1.391 . S
C2537 C2536 1.386 . S
C2537 C2541 1.393 . S
C2538 H2530 0.950 . S
C2538 C2536 1.391 . S
C2538 C2539 1.400 . S
C2539 C2538 1.400 . S
C2539 C2540 1.398 . S
C2539 C2545 1.491 . S
C2540 H2531 0.950 . S
C2540 C2539 1.398 . S
C2540 C2541 1.391 . S
C2541 H2529 0.950 . S
C2541 C2537 1.393 . S
C2541 C2540 1.391 . S
C2542 H2532 0.950 . S
C2542 C2543 1.386 . S
C2542 C2544 1.391 . S
C2543 C2542 1.386 . S
C2543 C2547 1.393 . S
C2544 H2533 0.950 . S
C2544 C2542 1.391 . S
C2544 C2545 1.400 . S
C2545 C2539 1.491 . S
C2545 C2544 1.400 . S
C2545 C2546 1.398 . S
C2546 H2534 0.950 . S
C2546 C2545 1.398 . S
C2546 C2547 1.391 . S
C2547 H2535 0.950 . S
C2547 C2543 1.393 . S
C2547 C2546 1.391 . S
H2548 C2556 0.950 . S
H2549 C2561 0.950 . S
H2550 C2558 0.950 . S
H2551 C2560 0.950 . S
H2552 C2562 0.950 . S
H2553 C2564 0.950 . S
H2554 C2566 0.950 . S
H2555 C2567 0.950 . S
C2556 H2548 0.950 . S
C2556 C2557 1.386 . S
C2556 C2558 1.391 . S
C2557 C2556 1.386 . S
C2557 C2561 1.393 . S
C2558 H2550 0.950 . S
C2558 C2556 1.391 . S
C2558 C2559 1.400 . S
C2559 C2558 1.400 . S
C2559 C2560 1.398 . S
C2559 C2565 1.491 . S
C2560 H2551 0.950 . S
C2560 C2559 1.398 . S
C2560 C2561 1.391 . S
C2561 H2549 0.950 . S
C2561 C2557 1.393 . S
C2561 C2560 1.391 . S
C2562 H2552 0.950 . S
C2562 C2563 1.386 . S
C2562 C2564 1.391 . S
C2563 C2562 1.386 . S
C2563 C2567 1.393 . S
C2564 H2553 0.950 . S
C2564 C2562 1.391 . S
C2564 C2565 1.400 . S
C2565 C2559 1.491 . S
C2565 C2564 1.400 . S
C2565 C2566 1.398 . S
C2566 H2554 0.950 . S
C2566 C2565 1.398 . S
C2566 C2567 1.391 . S
C2567 H2555 0.950 . S
C2567 C2563 1.393 . S
C2567 C2566 1.391 . S
H2568 C2576 0.950 . S
H2569 C2581 0.950 . S
H2570 C2578 0.950 . S
H2571 C2580 0.950 . S
H2572 C2582 0.950 . S
H2573 C2584 0.950 . S
H2574 C2586 0.950 . S
H2575 C2587 0.950 . S
C2576 H2568 0.950 . S
C2576 C2577 1.386 . S
C2576 C2578 1.391 . S
C2577 C2576 1.386 . S
C2577 C2581 1.393 . S
C2578 H2570 0.950 . S
C2578 C2576 1.391 . S
C2578 C2579 1.400 . S
C2579 C2578 1.400 . S
C2579 C2580 1.398 . S
C2579 C2585 1.491 . S
C2580 H2571 0.950 . S
C2580 C2579 1.398 . S
C2580 C2581 1.391 . S
C2581 H2569 0.950 . S
C2581 C2577 1.393 . S
C2581 C2580 1.391 . S
C2582 H2572 0.950 . S
C2582 C2583 1.386 . S
C2582 C2584 1.391 . S
C2583 C2582 1.386 . S
C2583 C2587 1.393 . S
C2584 H2573 0.950 . S
C2584 C2582 1.391 . S
C2584 C2585 1.400 . S
C2585 C2579 1.491 . S
C2585 C2584 1.400 . S
C2585 C2586 1.398 . S
C2586 H2574 0.950 . S
C2586 C2585 1.398 . S
C2586 C2587 1.391 . S
C2587 H2575 0.950 . S
C2587 C2583 1.393 . S
C2587 C2586 1.391 . S
H2588 C2596 0.950 . S
H2589 C2601 0.950 . S
H2590 C2598 0.950 . S
H2591 C2600 0.950 . S
H2592 C2602 0.950 . S
H2593 C2604 0.950 . S
H2594 C2606 0.950 . S
H2595 C2607 0.950 . S
C2596 H2588 0.950 . S
C2596 C2597 1.386 . S
C2596 C2598 1.391 . S
C2597 C2596 1.386 . S
C2597 C2601 1.393 . S
C2598 H2590 0.950 . S
C2598 C2596 1.391 . S
C2598 C2599 1.400 . S
C2599 C2598 1.400 . S
C2599 C2600 1.398 . S
C2599 C2605 1.491 . S
C2600 H2591 0.950 . S
C2600 C2599 1.398 . S
C2600 C2601 1.391 . S
C2601 H2589 0.950 . S
C2601 C2597 1.393 . S
C2601 C2600 1.391 . S
C2602 H2592 0.950 . S
C2602 C2603 1.386 . S
C2602 C2604 1.391 . S
C2603 C2602 1.386 . S
C2603 C2607 1.393 . S
C2604 H2593 0.950 . S
C2604 C2602 1.391 . S
C2604 C2605 1.400 . S
C2605 C2599 1.491 . S
C2605 C2604 1.400 . S
C2605 C2606 1.398 . S
C2606 H2594 0.950 . S
C2606 C2605 1.398 . S
C2606 C2607 1.391 . S
C2607 H2595 0.950 . S
C2607 C2603 1.393 . S
C2607 C2606 1.391 . S
H2608 C2616 0.950 . S
H2609 C2621 0.950 . S
H2610 C2618 0.950 . S
H2611 C2620 0.950 . S
H2612 C2622 0.950 . S
H2613 C2624 0.950 . S
H2614 C2626 0.950 . S
H2615 C2627 0.950 . S
C2616 H2608 0.950 . S
C2616 C2617 1.386 . S
C2616 C2618 1.391 . S
C2617 C2616 1.386 . S
C2617 C2621 1.393 . S
C2618 H2610 0.950 . S
C2618 C2616 1.391 . S
C2618 C2619 1.400 . S
C2619 C2618 1.400 . S
C2619 C2620 1.398 . S
C2619 C2625 1.491 . S
C2620 H2611 0.950 . S
C2620 C2619 1.398 . S
C2620 C2621 1.391 . S
C2621 H2609 0.950 . S
C2621 C2617 1.393 . S
C2621 C2620 1.391 . S
C2622 H2612 0.950 . S
C2622 C2623 1.386 . S
C2622 C2624 1.391 . S
C2623 C2622 1.386 . S
C2623 C2627 1.393 . S
C2624 H2613 0.950 . S
C2624 C2622 1.391 . S
C2624 C2625 1.400 . S
C2625 C2619 1.491 . S
C2625 C2624 1.400 . S
C2625 C2626 1.398 . S
C2626 H2614 0.950 . S
C2626 C2625 1.398 . S
C2626 C2627 1.391 . S
C2627 H2615 0.950 . S
C2627 C2623 1.393 . S
C2627 C2626 1.391 . S
H2628 C2636 0.950 . S
H2629 C2641 0.950 . S
H2630 C2638 0.950 . S
H2631 C2640 0.950 . S
H2632 C2642 0.950 . S
H2633 C2644 0.950 . S
H2634 C2646 0.950 . S
H2635 C2647 0.950 . S
C2636 H2628 0.950 . S
C2636 C2637 1.386 . S
C2636 C2638 1.391 . S
C2637 C2636 1.386 . S
C2637 C2641 1.393 . S
C2638 H2630 0.950 . S
C2638 C2636 1.391 . S
C2638 C2639 1.400 . S
C2639 C2638 1.400 . S
C2639 C2640 1.398 . S
C2639 C2645 1.491 . S
C2640 H2631 0.950 . S
C2640 C2639 1.398 . S
C2640 C2641 1.391 . S
C2641 H2629 0.950 . S
C2641 C2637 1.393 . S
C2641 C2640 1.391 . S
C2642 H2632 0.950 . S
C2642 C2643 1.386 . S
C2642 C2644 1.391 . S
C2643 C2642 1.386 . S
C2643 C2647 1.393 . S
C2644 H2633 0.950 . S
C2644 C2642 1.391 . S
C2644 C2645 1.400 . S
C2645 C2639 1.491 . S
C2645 C2644 1.400 . S
C2645 C2646 1.398 . S
C2646 H2634 0.950 . S
C2646 C2645 1.398 . S
C2646 C2647 1.391 . S
C2647 H2635 0.950 . S
C2647 C2643 1.393 . S
C2647 C2646 1.391 . S
H2648 C2656 0.950 . S
H2649 C2661 0.950 . S
H2650 C2658 0.950 . S
H2651 C2660 0.950 . S
H2652 C2662 0.950 . S
H2653 C2664 0.950 . S
H2654 C2666 0.950 . S
H2655 C2667 0.950 . S
C2656 H2648 0.950 . S
C2656 C2657 1.386 . S
C2656 C2658 1.391 . S
C2657 C2656 1.386 . S
C2657 C2661 1.393 . S
C2658 H2650 0.950 . S
C2658 C2656 1.391 . S
C2658 C2659 1.400 . S
C2659 C2658 1.400 . S
C2659 C2660 1.398 . S
C2659 C2665 1.491 . S
C2660 H2651 0.950 . S
C2660 C2659 1.398 . S
C2660 C2661 1.391 . S
C2661 H2649 0.950 . S
C2661 C2657 1.393 . S
C2661 C2660 1.391 . S
C2662 H2652 0.950 . S
C2662 C2663 1.386 . S
C2662 C2664 1.391 . S
C2663 C2662 1.386 . S
C2663 C2667 1.393 . S
C2664 H2653 0.950 . S
C2664 C2662 1.391 . S
C2664 C2665 1.400 . S
C2665 C2659 1.491 . S
C2665 C2664 1.400 . S
C2665 C2666 1.398 . S
C2666 H2654 0.950 . S
C2666 C2665 1.398 . S
C2666 C2667 1.391 . S
C2667 H2655 0.950 . S
C2667 C2663 1.393 . S
C2667 C2666 1.391 . S
H2668 C2676 0.950 . S
H2669 C2681 0.950 . S
H2670 C2678 0.950 . S
H2671 C2680 0.950 . S
H2672 C2682 0.950 . S
H2673 C2684 0.950 . S
H2674 C2686 0.950 . S
H2675 C2687 0.950 . S
C2676 H2668 0.950 . S
C2676 C2677 1.386 . S
C2676 C2678 1.391 . S
C2677 C2676 1.386 . S
C2677 C2681 1.393 . S
C2678 H2670 0.950 . S
C2678 C2676 1.391 . S
C2678 C2679 1.400 . S
C2679 C2678 1.400 . S
C2679 C2680 1.398 . S
C2679 C2685 1.491 . S
C2680 H2671 0.950 . S
C2680 C2679 1.398 . S
C2680 C2681 1.391 . S
C2681 H2669 0.950 . S
C2681 C2677 1.393 . S
C2681 C2680 1.391 . S
C2682 H2672 0.950 . S
C2682 C2683 1.386 . S
C2682 C2684 1.391 . S
C2683 C2682 1.386 . S
C2683 C2687 1.393 . S
C2684 H2673 0.950 . S
C2684 C2682 1.391 . S
C2684 C2685 1.400 . S
C2685 C2679 1.491 . S
C2685 C2684 1.400 . S
C2685 C2686 1.398 . S
C2686 H2674 0.950 . S
C2686 C2685 1.398 . S
C2686 C2687 1.391 . S
C2687 H2675 0.950 . S
C2687 C2683 1.393 . S
C2687 C2686 1.391 . S
H2688 C2696 0.950 . S
H2689 C2701 0.950 . S
H2690 C2698 0.950 . S
H2691 C2700 0.950 . S
H2692 C2702 0.950 . S
H2693 C2704 0.950 . S
H2694 C2706 0.950 . S
H2695 C2707 0.950 . S
C2696 H2688 0.950 . S
C2696 C2697 1.386 . S
C2696 C2698 1.391 . S
C2697 C2696 1.386 . S
C2697 C2701 1.393 . S
C2698 H2690 0.950 . S
C2698 C2696 1.391 . S
C2698 C2699 1.400 . S
C2699 C2698 1.400 . S
C2699 C2700 1.398 . S
C2699 C2705 1.491 . S
C2700 H2691 0.950 . S
C2700 C2699 1.398 . S
C2700 C2701 1.391 . S
C2701 H2689 0.950 . S
C2701 C2697 1.393 . S
C2701 C2700 1.391 . S
C2702 H2692 0.950 . S
C2702 C2703 1.386 . S
C2702 C2704 1.391 . S
C2703 C2702 1.386 . S
C2703 C2707 1.393 . S
C2704 H2693 0.950 . S
C2704 C2702 1.391 . S
C2704 C2705 1.400 . S
C2705 C2699 1.491 . S
C2705 C2704 1.400 . S
C2705 C2706 1.398 . S
C2706 H2694 0.950 . S
C2706 C2705 1.398 . S
C2706 C2707 1.391 . S
C2707 H2695 0.950 . S
C2707 C2703 1.393 . S
C2707 C2706 1.391 . S
H2708 C2716 0.950 . S
H2709 C2721 0.950 . S
H2710 C2718 0.950 . S
H2711 C2720 0.950 . S
H2712 C2722 0.950 . S
H2713 C2724 0.950 . S
H2714 C2726 0.950 . S
H2715 C2727 0.950 . S
C2716 H2708 0.950 . S
C2716 C2717 1.386 . S
C2716 C2718 1.391 . S
C2717 C2716 1.386 . S
C2717 C2721 1.393 . S
C2718 H2710 0.950 . S
C2718 C2716 1.391 . S
C2718 C2719 1.400 . S
C2719 C2718 1.400 . S
C2719 C2720 1.398 . S
C2719 C2725 1.491 . S
C2720 H2711 0.950 . S
C2720 C2719 1.398 . S
C2720 C2721 1.391 . S
C2721 H2709 0.950 . S
C2721 C2717 1.393 . S
C2721 C2720 1.391 . S
C2722 H2712 0.950 . S
C2722 C2723 1.386 . S
C2722 C2724 1.391 . S
C2723 C2722 1.386 . S
C2723 C2727 1.393 . S
C2724 H2713 0.950 . S
C2724 C2722 1.391 . S
C2724 C2725 1.400 . S
C2725 C2719 1.491 . S
C2725 C2724 1.400 . S
C2725 C2726 1.398 . S
C2726 H2714 0.950 . S
C2726 C2725 1.398 . S
C2726 C2727 1.391 . S
C2727 H2715 0.950 . S
C2727 C2723 1.393 . S
C2727 C2726 1.391 . S
H2728 C2736 0.950 . S
H2729 C2741 0.950 . S
H2730 C2738 0.950 . S
H2731 C2740 0.950 . S
H2732 C2742 0.950 . S
H2733 C2744 0.950 . S
H2734 C2746 0.950 . S
H2735 C2747 0.950 . S
C2736 H2728 0.950 . S
C2736 C2737 1.386 . S
C2736 C2738 1.391 . S
C2737 C2736 1.386 . S
C2737 C2741 1.393 . S
C2738 H2730 0.950 . S
C2738 C2736 1.391 . S
C2738 C2739 1.400 . S
C2739 C2738 1.400 . S
C2739 C2740 1.398 . S
C2739 C2745 1.491 . S
C2740 H2731 0.950 . S
C2740 C2739 1.398 . S
C2740 C2741 1.391 . S
C2741 H2729 0.950 . S
C2741 C2737 1.393 . S
C2741 C2740 1.391 . S
C2742 H2732 0.950 . S
C2742 C2743 1.386 . S
C2742 C2744 1.391 . S
C2743 C2742 1.386 . S
C2743 C2747 1.393 . S
C2744 H2733 0.950 . S
C2744 C2742 1.391 . S
C2744 C2745 1.400 . S
C2745 C2739 1.491 . S
C2745 C2744 1.400 . S
C2745 C2746 1.398 . S
C2746 H2734 0.950 . S
C2746 C2745 1.398 . S
C2746 C2747 1.391 . S
C2747 H2735 0.950 . S
C2747 C2743 1.393 . S
C2747 C2746 1.391 . S
H2748 C2756 0.950 . S
H2749 C2761 0.950 . S
H2750 C2758 0.950 . S
H2751 C2760 0.950 . S
H2752 C2762 0.950 . S
H2753 C2764 0.950 . S
H2754 C2766 0.950 . S
H2755 C2767 0.950 . S
C2756 H2748 0.950 . S
C2756 C2757 1.386 . S
C2756 C2758 1.391 . S
C2757 C2756 1.386 . S
C2757 C2761 1.393 . S
C2758 H2750 0.950 . S
C2758 C2756 1.391 . S
C2758 C2759 1.400 . S
C2759 C2758 1.400 . S
C2759 C2760 1.398 . S
C2759 C2765 1.491 . S
C2760 H2751 0.950 . S
C2760 C2759 1.398 . S
C2760 C2761 1.391 . S
C2761 H2749 0.950 . S
C2761 C2757 1.393 . S
C2761 C2760 1.391 . S
C2762 H2752 0.950 . S
C2762 C2763 1.386 . S
C2762 C2764 1.391 . S
C2763 C2762 1.386 . S
C2763 C2767 1.393 . S
C2764 H2753 0.950 . S
C2764 C2762 1.391 . S
C2764 C2765 1.400 . S
C2765 C2759 1.491 . S
C2765 C2764 1.400 . S
C2765 C2766 1.398 . S
C2766 H2754 0.950 . S
C2766 C2765 1.398 . S
C2766 C2767 1.391 . S
C2767 H2755 0.950 . S
C2767 C2763 1.393 . S
C2767 C2766 1.391 . S
H2768 C2776 0.950 . S
H2769 C2781 0.950 . S
H2770 C2778 0.950 . S
H2771 C2780 0.950 . S
H2772 C2782 0.950 . S
H2773 C2784 0.950 . S
H2774 C2786 0.950 . S
H2775 C2787 0.950 . S
C2776 H2768 0.950 . S
C2776 C2777 1.386 . S
C2776 C2778 1.391 . S
C2777 C2776 1.386 . S
C2777 C2781 1.393 . S
C2778 H2770 0.950 . S
C2778 C2776 1.391 . S
C2778 C2779 1.400 . S
C2779 C2778 1.400 . S
C2779 C2780 1.398 . S
C2779 C2785 1.491 . S
C2780 H2771 0.950 . S
C2780 C2779 1.398 . S
C2780 C2781 1.391 . S
C2781 H2769 0.950 . S
C2781 C2777 1.393 . S
C2781 C2780 1.391 . S
C2782 H2772 0.950 . S
C2782 C2783 1.386 . S
C2782 C2784 1.391 . S
C2783 C2782 1.386 . S
C2783 C2787 1.393 . S
C2784 H2773 0.950 . S
C2784 C2782 1.391 . S
C2784 C2785 1.400 . S
C2785 C2779 1.491 . S
C2785 C2784 1.400 . S
C2785 C2786 1.398 . S
C2786 H2774 0.950 . S
C2786 C2785 1.398 . S
C2786 C2787 1.391 . S
C2787 H2775 0.950 . S
C2787 C2783 1.393 . S
C2787 C2786 1.391 . S
H2788 C2796 0.950 . S
H2789 C2801 0.950 . S
H2790 C2798 0.950 . S
H2791 C2800 0.950 . S
H2792 C2802 0.950 . S
H2793 C2804 0.950 . S
H2794 C2806 0.950 . S
H2795 C2807 0.950 . S
C2796 H2788 0.950 . S
C2796 C2797 1.386 . S
C2796 C2798 1.391 . S
C2797 C2796 1.386 . S
C2797 C2801 1.393 . S
C2798 H2790 0.950 . S
C2798 C2796 1.391 . S
C2798 C2799 1.400 . S
C2799 C2798 1.400 . S
C2799 C2800 1.398 . S
C2799 C2805 1.491 . S
C2800 H2791 0.950 . S
C2800 C2799 1.398 . S
C2800 C2801 1.391 . S
C2801 H2789 0.950 . S
C2801 C2797 1.393 . S
C2801 C2800 1.391 . S
C2802 H2792 0.950 . S
C2802 C2803 1.386 . S
C2802 C2804 1.391 . S
C2803 C2802 1.386 . S
C2803 C2807 1.393 . S
C2804 H2793 0.950 . S
C2804 C2802 1.391 . S
C2804 C2805 1.400 . S
C2805 C2799 1.491 . S
C2805 C2804 1.400 . S
C2805 C2806 1.398 . S
C2806 H2794 0.950 . S
C2806 C2805 1.398 . S
C2806 C2807 1.391 . S
C2807 H2795 0.950 . S
C2807 C2803 1.393 . S
C2807 C2806 1.391 . S
H2808 C2816 0.950 . S
H2809 C2821 0.950 . S
H2810 C2818 0.950 . S
H2811 C2820 0.950 . S
H2812 C2822 0.950 . S
H2813 C2824 0.950 . S
H2814 C2826 0.950 . S
H2815 C2827 0.950 . S
C2816 H2808 0.950 . S
C2816 C2817 1.386 . S
C2816 C2818 1.391 . S
C2817 C2816 1.386 . S
C2817 C2821 1.393 . S
C2818 H2810 0.950 . S
C2818 C2816 1.391 . S
C2818 C2819 1.400 . S
C2819 C2818 1.400 . S
C2819 C2820 1.398 . S
C2819 C2825 1.491 . S
C2820 H2811 0.950 . S
C2820 C2819 1.398 . S
C2820 C2821 1.391 . S
C2821 H2809 0.950 . S
C2821 C2817 1.393 . S
C2821 C2820 1.391 . S
C2822 H2812 0.950 . S
C2822 C2823 1.386 . S
C2822 C2824 1.391 . S
C2823 C2822 1.386 . S
C2823 C2827 1.393 . S
C2824 H2813 0.950 . S
C2824 C2822 1.391 . S
C2824 C2825 1.400 . S
C2825 C2819 1.491 . S
C2825 C2824 1.400 . S
C2825 C2826 1.398 . S
C2826 H2814 0.950 . S
C2826 C2825 1.398 . S
C2826 C2827 1.391 . S
C2827 H2815 0.950 . S
C2827 C2823 1.393 . S
C2827 C2826 1.391 . S
H2828 C2836 0.950 . S
H2829 C2841 0.950 . S
H2830 C2838 0.950 . S
H2831 C2840 0.950 . S
H2832 C2842 0.950 . S
H2833 C2844 0.950 . S
H2834 C2846 0.950 . S
H2835 C2847 0.950 . S
C2836 H2828 0.950 . S
C2836 C2837 1.386 . S
C2836 C2838 1.391 . S
C2837 C2836 1.386 . S
C2837 C2841 1.393 . S
C2838 H2830 0.950 . S
C2838 C2836 1.391 . S
C2838 C2839 1.400 . S
C2839 C2838 1.400 . S
C2839 C2840 1.398 . S
C2839 C2845 1.491 . S
C2840 H2831 0.950 . S
C2840 C2839 1.398 . S
C2840 C2841 1.391 . S
C2841 H2829 0.950 . S
C2841 C2837 1.393 . S
C2841 C2840 1.391 . S
C2842 H2832 0.950 . S
C2842 C2843 1.386 . S
C2842 C2844 1.391 . S
C2843 C2842 1.386 . S
C2843 C2847 1.393 . S
C2844 H2833 0.950 . S
C2844 C2842 1.391 . S
C2844 C2845 1.400 . S
C2845 C2839 1.491 . S
C2845 C2844 1.400 . S
C2845 C2846 1.398 . S
C2846 H2834 0.950 . S
C2846 C2845 1.398 . S
C2846 C2847 1.391 . S
C2847 H2835 0.950 . S
C2847 C2843 1.393 . S
C2847 C2846 1.391 . S
H2848 C2856 0.950 . S
H2849 C2861 0.950 . S
H2850 C2858 0.950 . S
H2851 C2860 0.950 . S
H2852 C2862 0.950 . S
H2853 C2864 0.950 . S
H2854 C2866 0.950 . S
H2855 C2867 0.950 . S
C2856 H2848 0.950 . S
C2856 C2857 1.386 . S
C2856 C2858 1.391 . S
C2857 C2856 1.386 . S
C2857 C2861 1.393 . S
C2858 H2850 0.950 . S
C2858 C2856 1.391 . S
C2858 C2859 1.400 . S
C2859 C2858 1.400 . S
C2859 C2860 1.398 . S
C2859 C2865 1.491 . S
C2860 H2851 0.950 . S
C2860 C2859 1.398 . S
C2860 C2861 1.391 . S
C2861 H2849 0.950 . S
C2861 C2857 1.393 . S
C2861 C2860 1.391 . S
C2862 H2852 0.950 . S
C2862 C2863 1.386 . S
C2862 C2864 1.391 . S
C2863 C2862 1.386 . S
C2863 C2867 1.393 . S
C2864 H2853 0.950 . S
C2864 C2862 1.391 . S
C2864 C2865 1.400 . S
C2865 C2859 1.491 . S
C2865 C2864 1.400 . S
C2865 C2866 1.398 . S
C2866 H2854 0.950 . S
C2866 C2865 1.398 . S
C2866 C2867 1.391 . S
C2867 H2855 0.950 . S
C2867 C2863 1.393 . S
C2867 C2866 1.391 . S
H2868 C2876 0.950 . S
H2869 C2881 0.950 . S
H2870 C2878 0.950 . S
H2871 C2880 0.950 . S
H2872 C2882 0.950 . S
H2873 C2884 0.950 . S
H2874 C2886 0.950 . S
H2875 C2887 0.950 . S
C2876 H2868 0.950 . S
C2876 C2877 1.386 . S
C2876 C2878 1.391 . S
C2877 C2876 1.386 . S
C2877 C2881 1.393 . S
C2878 H2870 0.950 . S
C2878 C2876 1.391 . S
C2878 C2879 1.400 . S
C2879 C2878 1.400 . S
C2879 C2880 1.398 . S
C2879 C2885 1.491 . S
C2880 H2871 0.950 . S
C2880 C2879 1.398 . S
C2880 C2881 1.391 . S
C2881 H2869 0.950 . S
C2881 C2877 1.393 . S
C2881 C2880 1.391 . S
C2882 H2872 0.950 . S
C2882 C2883 1.386 . S
C2882 C2884 1.391 . S
C2883 C2882 1.386 . S
C2883 C2887 1.393 . S
C2884 H2873 0.950 . S
C2884 C2882 1.391 . S
C2884 C2885 1.400 . S
C2885 C2879 1.491 . S
C2885 C2884 1.400 . S
C2885 C2886 1.398 . S
C2886 H2874 0.950 . S
C2886 C2885 1.398 . S
C2886 C2887 1.391 . S
C2887 H2875 0.950 . S
C2887 C2883 1.393 . S
C2887 C2886 1.391 . S
H2888 C2896 0.950 . S
H2889 C2901 0.952 . S
H2890 C2898 0.950 . S
H2891 C2900 0.950 . S
H2892 C2902 0.950 1_554 S
H2893 C2904 0.950 1_554 S
H2894 C2906 0.950 . S
H2895 C2907 0.950 . S
C2896 H2888 0.950 . S
C2896 C2897 1.386 . S
C2896 C2898 1.391 . S
C2897 C2896 1.386 . S
C2897 C2901 1.393 . S
C2898 H2890 0.950 . S
C2898 C2896 1.391 . S
C2898 C2899 1.400 . S
C2899 C2898 1.400 . S
C2899 C2900 1.398 . S
C2899 C2905 1.491 . S
C2900 H2891 0.950 . S
C2900 C2899 1.398 . S
C2900 C2901 1.391 . S
C2901 H2889 0.952 . S
C2901 C2897 1.393 . S
C2901 C2900 1.391 . S
C2902 H2892 0.950 1_556 S
C2902 C2903 1.386 . S
C2902 C2904 1.391 . S
C2903 C2902 1.386 . S
C2903 C2907 1.393 . S
C2904 H2893 0.950 1_556 S
C2904 C2902 1.391 . S
C2904 C2905 1.400 . S
C2905 C2899 1.491 . S
C2905 C2904 1.400 . S
C2905 C2906 1.398 . S
C2906 H2894 0.950 . S
C2906 C2905 1.398 . S
C2906 C2907 1.391 . S
C2907 H2895 0.950 . S
C2907 C2903 1.393 . S
C2907 C2906 1.391 . S
H2908 C2916 0.950 . S
H2909 C2921 0.950 . S
H2910 C2918 0.950 . S
H2911 C2920 0.950 . S
H2912 C2922 0.950 . S
H2913 C2924 0.950 . S
H2914 C2926 0.950 . S
H2915 C2927 0.950 . S
C2916 H2908 0.950 . S
C2916 C2917 1.386 . S
C2916 C2918 1.391 . S
C2917 C2916 1.386 . S
C2917 C2921 1.393 1_556 S
C2918 H2910 0.950 . S
C2918 C2916 1.391 . S
C2918 C2919 1.400 . S
C2919 C2918 1.400 . S
C2919 C2920 1.398 1_556 S
C2919 C2925 1.491 . S
C2920 H2911 0.950 . S
C2920 C2919 1.398 1_554 S
C2920 C2921 1.391 . S
C2921 H2909 0.950 . S
C2921 C2917 1.393 1_554 S
C2921 C2920 1.391 . S
C2922 H2912 0.950 . S
C2922 C2923 1.386 1_554 S
C2922 C2924 1.391 . S
C2923 C2922 1.386 1_556 S
C2923 C2927 1.393 . S
C2924 H2913 0.950 . S
C2924 C2922 1.391 . S
C2924 C2925 1.400 1_554 S
C2925 C2919 1.491 . S
C2925 C2924 1.400 1_556 S
C2925 C2926 1.398 . S
C2926 H2914 0.950 . S
C2926 C2925 1.398 . S
C2926 C2927 1.391 . S
C2927 H2915 0.950 . S
C2927 C2923 1.393 . S
C2927 C2926 1.391 . S
H2928 C2936 0.950 . S
H2929 C2941 0.950 . S
H2930 C2938 0.950 . S
H2931 C2940 0.950 . S
H2932 C2942 0.950 . S
H2933 C2944 0.950 . S
H2934 C2946 0.950 . S
H2935 C2947 0.950 . S
C2936 H2928 0.950 . S
C2936 C2937 1.386 . S
C2936 C2938 1.391 . S
C2937 C2936 1.386 . S
C2937 C2941 1.393 . S
C2938 H2930 0.950 . S
C2938 C2936 1.391 . S
C2938 C2939 1.400 . S
C2939 C2938 1.400 . S
C2939 C2940 1.398 . S
C2939 C2945 1.491 . S
C2940 H2931 0.950 . S
C2940 C2939 1.398 . S
C2940 C2941 1.391 . S
C2941 H2929 0.950 . S
C2941 C2937 1.393 . S
C2941 C2940 1.391 . S
C2942 H2932 0.950 . S
C2942 C2943 1.386 . S
C2942 C2944 1.391 . S
C2943 C2942 1.386 . S
C2943 C2947 1.393 . S
C2944 H2933 0.950 . S
C2944 C2942 1.391 . S
C2944 C2945 1.400 . S
C2945 C2939 1.491 . S
C2945 C2944 1.400 . S
C2945 C2946 1.398 . S
C2946 H2934 0.950 . S
C2946 C2945 1.398 . S
C2946 C2947 1.391 . S
C2947 H2935 0.950 . S
C2947 C2943 1.393 . S
C2947 C2946 1.391 . S
H2948 C2956 0.950 . S
H2949 C2961 0.950 . S
H2950 C2958 0.950 . S
H2951 C2960 0.950 . S
H2952 C2962 0.950 . S
H2953 C2964 0.950 . S
H2954 C2966 0.950 . S
H2955 C2967 0.950 . S
C2956 H2948 0.950 . S
C2956 C2957 1.386 . S
C2956 C2958 1.391 . S
C2957 C2956 1.386 . S
C2957 C2961 1.393 . S
C2958 H2950 0.950 . S
C2958 C2956 1.391 . S
C2958 C2959 1.400 . S
C2959 C2958 1.400 . S
C2959 C2960 1.398 . S
C2959 C2965 1.491 . S
C2960 H2951 0.950 . S
C2960 C2959 1.398 . S
C2960 C2961 1.391 . S
C2961 H2949 0.950 . S
C2961 C2957 1.393 . S
C2961 C2960 1.391 . S
C2962 H2952 0.950 . S
C2962 C2963 1.386 . S
C2962 C2964 1.391 . S
C2963 C2962 1.386 . S
C2963 C2967 1.393 . S
C2964 H2953 0.950 . S
C2964 C2962 1.391 . S
C2964 C2965 1.400 . S
C2965 C2959 1.491 . S
C2965 C2964 1.400 . S
C2965 C2966 1.398 . S
C2966 H2954 0.950 . S
C2966 C2965 1.398 . S
C2966 C2967 1.391 . S
C2967 H2955 0.950 . S
C2967 C2963 1.393 . S
C2967 C2966 1.391 . S
H2968 C2976 0.950 . S
H2969 C2981 0.950 . S
H2970 C2978 0.950 . S
H2971 C2980 0.950 . S
H2972 C2982 0.950 . S
H2973 C2984 0.950 . S
H2974 C2986 0.950 . S
H2975 C2987 0.950 . S
C2976 H2968 0.950 . S
C2976 C2977 1.386 . S
C2976 C2978 1.391 . S
C2977 C2976 1.386 . S
C2977 C2981 1.393 1_554 S
C2978 H2970 0.950 . S
C2978 C2976 1.391 . S
C2978 C2979 1.400 . S
C2979 C2978 1.400 . S
C2979 C2980 1.398 1_554 S
C2979 C2985 1.491 . S
C2980 H2971 0.950 . S
C2980 C2979 1.398 1_556 S
C2980 C2981 1.391 . S
C2981 H2969 0.950 . S
C2981 C2977 1.393 1_556 S
C2981 C2980 1.391 . S
C2982 H2972 0.950 . S
C2982 C2983 1.386 1_556 S
C2982 C2984 1.391 . S
C2983 C2982 1.386 1_554 S
C2983 C2987 1.393 . S
C2984 H2973 0.950 . S
C2984 C2982 1.391 . S
C2984 C2985 1.400 1_556 S
C2985 C2979 1.491 . S
C2985 C2984 1.400 1_554 S
C2985 C2986 1.398 . S
C2986 H2974 0.950 . S
C2986 C2985 1.398 . S
C2986 C2987 1.391 . S
C2987 H2975 0.950 . S
C2987 C2983 1.393 . S
C2987 C2986 1.391 . S
H2988 C2996 0.950 . S
H2989 C3001 0.950 . S
H2990 C2998 0.950 . S
H2991 C3000 0.950 . S
H2992 C3002 0.950 . S
H2993 C3004 0.950 . S
H2994 C3006 0.950 . S
H2995 C3007 0.950 . S
C2996 H2988 0.950 . S
C2996 C2997 1.386 . S
C2996 C2998 1.391 . S
C2997 C2996 1.386 . S
C2997 C3001 1.393 1_554 S
C2998 H2990 0.950 . S
C2998 C2996 1.391 . S
C2998 C2999 1.400 . S
C2999 C2998 1.400 . S
C2999 C3000 1.398 1_554 S
C2999 C3005 1.491 . S
C3000 H2991 0.950 . S
C3000 C2999 1.398 1_556 S
C3000 C3001 1.391 . S
C3001 H2989 0.950 . S
C3001 C2997 1.393 1_556 S
C3001 C3000 1.391 . S
C3002 H2992 0.950 . S
C3002 C3003 1.386 1_556 S
C3002 C3004 1.391 . S
C3003 C3002 1.386 1_554 S
C3003 C3007 1.393 . S
C3004 H2993 0.950 . S
C3004 C3002 1.391 . S
C3004 C3005 1.400 1_556 S
C3005 C2999 1.491 . S
C3005 C3004 1.400 1_554 S
C3005 C3006 1.398 . S
C3006 H2994 0.950 . S
C3006 C3005 1.398 . S
C3006 C3007 1.391 . S
C3007 H2995 0.950 . S
C3007 C3003 1.393 . S
C3007 C3006 1.391 . S
H3008 C3016 0.950 . S
H3009 C3021 0.950 . S
H3010 C3018 0.950 . S
H3011 C3020 0.950 . S
H3012 C3022 0.950 . S
H3013 C3024 0.950 . S
H3014 C3026 0.950 . S
H3015 C3027 0.950 . S
C3016 H3008 0.950 . S
C3016 C3017 1.386 . S
C3016 C3018 1.391 . S
C3017 C3016 1.386 . S
C3017 C3021 1.393 . S
C3018 H3010 0.950 . S
C3018 C3016 1.391 . S
C3018 C3019 1.400 . S
C3019 C3018 1.400 . S
C3019 C3020 1.398 . S
C3019 C3025 1.491 . S
C3020 H3011 0.950 . S
C3020 C3019 1.398 . S
C3020 C3021 1.391 . S
C3021 H3009 0.950 . S
C3021 C3017 1.393 . S
C3021 C3020 1.391 . S
C3022 H3012 0.950 . S
C3022 C3023 1.386 . S
C3022 C3024 1.391 . S
C3023 C3022 1.386 . S
C3023 C3027 1.393 . S
C3024 H3013 0.950 . S
C3024 C3022 1.391 . S
C3024 C3025 1.400 . S
C3025 C3019 1.491 . S
C3025 C3024 1.400 . S
C3025 C3026 1.398 . S
C3026 H3014 0.950 . S
C3026 C3025 1.398 . S
C3026 C3027 1.391 . S
C3027 H3015 0.950 . S
C3027 C3023 1.393 . S
C3027 C3026 1.391 . S
H3028 C3036 0.950 . S
H3029 C3041 0.950 . S
H3030 C3038 0.950 . S
H3031 C3040 0.950 . S
H3032 C3042 0.950 . S
H3033 C3044 0.950 . S
H3034 C3046 0.950 . S
H3035 C3047 0.950 . S
C3036 H3028 0.950 . S
C3036 C3037 1.386 . S
C3036 C3038 1.391 . S
C3037 C3036 1.386 . S
C3037 C3041 1.393 . S
C3038 H3030 0.950 . S
C3038 C3036 1.391 . S
C3038 C3039 1.400 . S
C3039 C3038 1.400 . S
C3039 C3040 1.398 . S
C3039 C3045 1.491 . S
C3040 H3031 0.950 . S
C3040 C3039 1.398 . S
C3040 C3041 1.391 . S
C3041 H3029 0.950 . S
C3041 C3037 1.393 . S
C3041 C3040 1.391 . S
C3042 H3032 0.950 . S
C3042 C3043 1.386 . S
C3042 C3044 1.391 . S
C3043 C3042 1.386 . S
C3043 C3047 1.393 . S
C3044 H3033 0.950 . S
C3044 C3042 1.391 . S
C3044 C3045 1.400 . S
C3045 C3039 1.491 . S
C3045 C3044 1.400 . S
C3045 C3046 1.398 . S
C3046 H3034 0.950 . S
C3046 C3045 1.398 . S
C3046 C3047 1.391 . S
C3047 H3035 0.950 . S
C3047 C3043 1.393 . S
C3047 C3046 1.391 . S
H3048 C3056 0.950 . S
H3049 C3061 0.950 . S
H3050 C3058 0.950 . S
H3051 C3060 0.950 . S
H3052 C3062 0.950 . S
H3053 C3064 0.950 . S
H3054 C3066 0.950 . S
H3055 C3067 0.950 . S
C3056 H3048 0.950 . S
C3056 C3057 1.386 . S
C3056 C3058 1.391 . S
C3057 C3056 1.386 . S
C3057 C3061 1.393 . S
C3058 H3050 0.950 . S
C3058 C3056 1.391 . S
C3058 C3059 1.400 . S
C3059 C3058 1.400 . S
C3059 C3060 1.398 . S
C3059 C3065 1.491 . S
C3060 H3051 0.950 . S
C3060 C3059 1.398 . S
C3060 C3061 1.391 . S
C3061 H3049 0.950 . S
C3061 C3057 1.393 . S
C3061 C3060 1.391 . S
C3062 H3052 0.950 . S
C3062 C3063 1.386 . S
C3062 C3064 1.391 . S
C3063 C3062 1.386 . S
C3063 C3067 1.393 . S
C3064 H3053 0.950 . S
C3064 C3062 1.391 . S
C3064 C3065 1.400 . S
C3065 C3059 1.491 . S
C3065 C3064 1.400 . S
C3065 C3066 1.398 . S
C3066 H3054 0.950 . S
C3066 C3065 1.398 . S
C3066 C3067 1.391 . S
C3067 H3055 0.950 . S
C3067 C3063 1.393 . S
C3067 C3066 1.391 . S
H3068 C3076 0.950 . S
H3069 C3081 0.950 . S
H3070 C3078 0.950 . S
H3071 C3080 0.950 . S
H3072 C3082 0.950 . S
H3073 C3084 0.950 . S
H3074 C3086 0.950 . S
H3075 C3087 0.950 . S
C3076 H3068 0.950 . S
C3076 C3077 1.386 . S
C3076 C3078 1.391 . S
C3077 C3076 1.386 . S
C3077 C3081 1.393 . S
C3078 H3070 0.950 . S
C3078 C3076 1.391 . S
C3078 C3079 1.400 . S
C3079 C3078 1.400 . S
C3079 C3080 1.398 . S
C3079 C3085 1.491 . S
C3080 H3071 0.950 . S
C3080 C3079 1.398 . S
C3080 C3081 1.391 . S
C3081 H3069 0.950 . S
C3081 C3077 1.393 . S
C3081 C3080 1.391 . S
C3082 H3072 0.950 . S
C3082 C3083 1.386 . S
C3082 C3084 1.391 . S
C3083 C3082 1.386 . S
C3083 C3087 1.393 . S
C3084 H3073 0.950 . S
C3084 C3082 1.391 . S
C3084 C3085 1.400 . S
C3085 C3079 1.491 . S
C3085 C3084 1.400 . S
C3085 C3086 1.398 . S
C3086 H3074 0.950 . S
C3086 C3085 1.398 . S
C3086 C3087 1.391 . S
C3087 H3075 0.950 . S
C3087 C3083 1.393 . S
C3087 C3086 1.391 . S
H3088 C3096 0.950 . S
H3089 C3101 0.950 . S
H3090 C3098 0.950 . S
H3091 C3100 0.950 . S
H3092 C3102 0.950 . S
H3093 C3104 0.950 . S
H3094 C3106 0.950 . S
H3095 C3107 0.950 . S
C3096 H3088 0.950 . S
C3096 C3097 1.386 . S
C3096 C3098 1.391 . S
C3097 C3096 1.386 . S
C3097 C3101 1.393 . S
C3098 H3090 0.950 . S
C3098 C3096 1.391 . S
C3098 C3099 1.400 . S
C3099 C3098 1.400 . S
C3099 C3100 1.398 . S
C3099 C3105 1.491 . S
C3100 H3091 0.950 . S
C3100 C3099 1.398 . S
C3100 C3101 1.391 . S
C3101 H3089 0.950 . S
C3101 C3097 1.393 . S
C3101 C3100 1.391 . S
C3102 H3092 0.950 . S
C3102 C3103 1.386 . S
C3102 C3104 1.391 . S
C3103 C3102 1.386 . S
C3103 C3107 1.393 . S
C3104 H3093 0.950 . S
C3104 C3102 1.391 . S
C3104 C3105 1.400 . S
C3105 C3099 1.491 . S
C3105 C3104 1.400 . S
C3105 C3106 1.398 . S
C3106 H3094 0.950 . S
C3106 C3105 1.398 . S
C3106 C3107 1.391 . S
C3107 H3095 0.950 . S
C3107 C3103 1.393 . S
C3107 C3106 1.391 . S
H3108 C3116 0.950 . S
H3109 C3121 0.950 . S
H3110 C3118 0.950 . S
H3111 C3120 0.950 . S
H3112 C3122 0.950 . S
H3113 C3124 0.950 . S
H3114 C3126 0.950 . S
H3115 C3127 0.950 . S
C3116 H3108 0.950 . S
C3116 C3117 1.386 . S
C3116 C3118 1.391 . S
C3117 C3116 1.386 . S
C3117 C3121 1.393 . S
C3118 H3110 0.950 . S
C3118 C3116 1.391 . S
C3118 C3119 1.400 . S
C3119 C3118 1.400 . S
C3119 C3120 1.398 . S
C3119 C3125 1.491 . S
C3120 H3111 0.950 . S
C3120 C3119 1.398 . S
C3120 C3121 1.391 . S
C3121 H3109 0.950 . S
C3121 C3117 1.393 . S
C3121 C3120 1.391 . S
C3122 H3112 0.950 . S
C3122 C3123 1.386 . S
C3122 C3124 1.391 . S
C3123 C3122 1.386 . S
C3123 C3127 1.393 . S
C3124 H3113 0.950 . S
C3124 C3122 1.391 . S
C3124 C3125 1.400 . S
C3125 C3119 1.491 . S
C3125 C3124 1.400 . S
C3125 C3126 1.398 . S
C3126 H3114 0.950 . S
C3126 C3125 1.398 . S
C3126 C3127 1.391 . S
C3127 H3115 0.950 . S
C3127 C3123 1.393 . S
C3127 C3126 1.391 . S
H3128 C3136 0.950 . S
H3129 C3141 0.950 . S
H3130 C3138 0.950 . S
H3131 C3140 0.950 . S
H3132 C3142 0.950 . S
H3133 C3144 0.950 . S
H3134 C3146 0.950 . S
H3135 C3147 0.950 . S
C3136 H3128 0.950 . S
C3136 C3137 1.386 . S
C3136 C3138 1.391 . S
C3137 C3136 1.386 . S
C3137 C3141 1.393 . S
C3138 H3130 0.950 . S
C3138 C3136 1.391 . S
C3138 C3139 1.400 . S
C3139 C3138 1.400 . S
C3139 C3140 1.398 . S
C3139 C3145 1.491 . S
C3140 H3131 0.950 . S
C3140 C3139 1.398 . S
C3140 C3141 1.391 . S
C3141 H3129 0.950 . S
C3141 C3137 1.393 . S
C3141 C3140 1.391 . S
C3142 H3132 0.950 . S
C3142 C3143 1.386 . S
C3142 C3144 1.391 . S
C3143 C3142 1.386 . S
C3143 C3147 1.393 . S
C3144 H3133 0.950 . S
C3144 C3142 1.391 . S
C3144 C3145 1.400 . S
C3145 C3139 1.491 . S
C3145 C3144 1.400 . S
C3145 C3146 1.398 . S
C3146 H3134 0.950 . S
C3146 C3145 1.398 . S
C3146 C3147 1.391 . S
C3147 H3135 0.950 . S
C3147 C3143 1.393 . S
C3147 C3146 1.391 . S
H3148 C3156 0.950 . S
H3149 C3161 0.950 . S
H3150 C3158 0.950 . S
H3151 C3160 0.950 . S
H3152 C3162 0.950 . S
H3153 C3164 0.950 . S
H3154 C3166 0.950 . S
H3155 C3167 0.950 . S
C3156 H3148 0.950 . S
C3156 C3157 1.386 . S
C3156 C3158 1.391 . S
C3157 C3156 1.386 . S
C3157 C3161 1.393 . S
C3158 H3150 0.950 . S
C3158 C3156 1.391 . S
C3158 C3159 1.400 . S
C3159 C3158 1.400 . S
C3159 C3160 1.398 . S
C3159 C3165 1.491 . S
C3160 H3151 0.950 . S
C3160 C3159 1.398 . S
C3160 C3161 1.391 . S
C3161 H3149 0.950 . S
C3161 C3157 1.393 . S
C3161 C3160 1.391 . S
C3162 H3152 0.950 . S
C3162 C3163 1.386 . S
C3162 C3164 1.391 . S
C3163 C3162 1.386 . S
C3163 C3167 1.393 . S
C3164 H3153 0.950 . S
C3164 C3162 1.391 . S
C3164 C3165 1.400 . S
C3165 C3159 1.491 . S
C3165 C3164 1.400 . S
C3165 C3166 1.398 . S
C3166 H3154 0.950 . S
C3166 C3165 1.398 . S
C3166 C3167 1.391 . S
C3167 H3155 0.950 . S
C3167 C3163 1.393 . S
C3167 C3166 1.391 . S
C1897 C3 1.010 . S
C1903 C180 1.020 . S
C1917 C121 1.021 . S
C1923 C62 1.011 . S
C1937 C239 1.013 . S
C1943 C416 1.023 . S
C1957 C357 1.028 . S
C1963 C298 1.020 . S
C1977 C475 1.027 . S
C1983 C652 1.019 . S
C1997 C593 1.023 . S
C2003 C534 1.014 . S
C2017 C711 1.029 . S
C2023 C888 1.031 . S
C2037 C770 1.031 . S
C2043 C829 1.029 . S
C2057 C1124 1.010 . S
C2063 C947 1.003 . S
C2077 C1006 1.030 . S
C2083 C1065 1.026 . S
C2097 C1183 1.031 . S
C2103 C1360 1.027 . S
C2117 C1301 1.001 . S
C2123 C1242 1.002 . S
C2137 C1419 1.015 . S
C2143 C1596 1.024 . S
C2157 C1537 1.017 . S
C2163 C1478 1.008 . S
C2177 C1655 1.017 . S
C2183 C1832 1.008 . S
C2197 C1714 1.024 . S
C2203 C1773 1.015 . S
C2217 C713 1.576 . S
C2223 C5 1.576 . S
C2237 C64 1.569 . S
C2243 C1244 1.569 . S
C2257 C123 1.574 . S
C2263 C359 1.574 . S
C2277 C1834 1.576 . S
C2283 C182 1.576 . S
C2297 C241 1.577 . S
C2303 C477 1.577 . S
C2317 C1008 1.570 . S
C2323 C300 1.570 . S
C2337 C1598 1.570 . S
C2343 C418 1.570 . S
C2357 C1716 1.578 . S
C2363 C536 1.578 . S
C2377 C831 1.570 . S
C2383 C595 1.570 . S
C2397 C1362 1.569 . S
C2403 C654 1.569 . S
C2417 C772 1.577 . S
C2423 C1480 1.577 . S
C2437 C1126 1.577 . S
C2443 C890 1.577 . S
C2457 C1657 1.570 . S
C2463 C949 1.570 . S
C2477 C1303 1.572 . S
C2483 C1067 1.572 . S
C2497 C1421 1.578 . S
C2503 C1185 1.578 . S
C2517 C1539 1.577 . S
C2523 C1775 1.577 . S
C2537 C623 1.640 . S
C2543 C33 1.643 . S
C2557 C92 1.643 . S
C2563 C682 1.640 . S
C2577 C505 1.640 . S
C2583 C151 1.645 . S
C2597 C564 1.649 . S
C2603 C210 1.655 . S
C2617 C269 1.644 . S
C2623 C859 1.652 . S
C2637 C328 1.655 . S
C2643 C918 1.656 . S
C2657 C741 1.654 . S
C2663 C387 1.648 . S
C2677 C446 1.656 . S
C2683 C800 1.654 . S
C2697 C1567 1.656 . S
C2703 C977 1.651 . S
C2717 C1626 1.640 . S
C2723 C1036 1.646 . S
C2737 C1095 1.645 . S
C2743 C1449 1.640 . S
C2757 C1154 1.655 . S
C2763 C1508 1.656 . S
C2777 C1213 1.641 . S
C2783 C1803 1.641 . S
C2797 C1272 1.655 . S
C2803 C1862 1.656 . S
C2817 C1685 1.654 . S
C2823 C1331 1.647 . S
C2837 C1744 1.655 . S
C2843 C1390 1.649 . S
C2857 C52 1.643 . S
C2863 C1527 1.640 . S
C2877 C1468 1.646 . S
C2883 C111 1.648 1_655 S
C2897 C170 1.646 . S
C2903 C1645 1.640 . S
C2917 C229 1.644 1_655 S
C2923 C1586 1.640 . S
C2937 C288 1.644 . S
C2943 C1763 1.640 . S
C2957 C347 1.640 1_455 S
C2963 C1704 1.645 . S
C2977 C1881 1.648 . S
C2983 C406 1.644 . S
C2997 C1822 1.647 . S
C3003 C465 1.646 1_455 S
C3017 C1055 1.641 . S
C3023 C524 1.641 . S
C3037 C996 1.645 . S
C3043 C583 1.648 1_655 S
C3057 C642 1.643 . S
C3063 C1173 1.640 . S
C3077 C701 1.645 1_655 S
C3083 C1114 1.640 . S
C3097 C1291 1.647 . S
C3103 C760 1.646 . S
C3117 C819 1.647 1_455 S
C3123 C1232 1.647 . S
C3137 C878 1.640 . S
C3143 C1409 1.643 . S
C3157 C937 1.643 1_455 S
C3163 C1350 1.648 . S
