# Generated by pormake.
# Topology ukg, (4)-cn, num edge types: 1
# Building blocks:
#     Node 0, Type 0, BuildingBlock: MUDLON_clean_sbu_0, # of connection points: 4
#     Node 1, Type 0, BuildingBlock: MUDLON_clean_sbu_0, # of connection points: 4
#     Node 2, Type 0, BuildingBlock: MUDLON_clean_sbu_0, # of connection points: 4
#     Node 3, Type 0, BuildingBlock: MUDLON_clean_sbu_0, # of connection points: 4
#     Node 4, Type 0, BuildingBlock: MUDLON_clean_sbu_0, # of connection points: 4
#     Node 5, Type 0, BuildingBlock: MUDLON_clean_sbu_0, # of connection points: 4
#     Node 6, Type 0, BuildingBlock: MUDLON_clean_sbu_0, # of connection points: 4
#     Node 7, Type 0, BuildingBlock: MUDLON_clean_sbu_0, # of connection points: 4
#     Edge 8, Type (0, 0), BuildingBlock: FUNLAD_clean_linker_1, # of connection points: 2
#     Edge 9, Type (0, 0), BuildingBlock: FUNLAD_clean_linker_1, # of connection points: 2
#     Edge 10, Type (0, 0), BuildingBlock: FUNLAD_clean_linker_1, # of connection points: 2
#     Edge 11, Type (0, 0), BuildingBlock: FUNLAD_clean_linker_1, # of connection points: 2
#     Edge 12, Type (0, 0), BuildingBlock: FUNLAD_clean_linker_1, # of connection points: 2
#     Edge 13, Type (0, 0), BuildingBlock: FUNLAD_clean_linker_1, # of connection points: 2
#     Edge 14, Type (0, 0), BuildingBlock: FUNLAD_clean_linker_1, # of connection points: 2
#     Edge 15, Type (0, 0), BuildingBlock: FUNLAD_clean_linker_1, # of connection points: 2
#     Edge 16, Type (0, 0), BuildingBlock: FUNLAD_clean_linker_1, # of connection points: 2
#     Edge 17, Type (0, 0), BuildingBlock: FUNLAD_clean_linker_1, # of connection points: 2
#     Edge 18, Type (0, 0), BuildingBlock: FUNLAD_clean_linker_1, # of connection points: 2
#     Edge 19, Type (0, 0), BuildingBlock: FUNLAD_clean_linker_1, # of connection points: 2
#     Edge 20, Type (0, 0), BuildingBlock: FUNLAD_clean_linker_1, # of connection points: 2
#     Edge 21, Type (0, 0), BuildingBlock: FUNLAD_clean_linker_1, # of connection points: 2
#     Edge 22, Type (0, 0), BuildingBlock: FUNLAD_clean_linker_1, # of connection points: 2
#     Edge 23, Type (0, 0), BuildingBlock: FUNLAD_clean_linker_1, # of connection points: 2
# Relax obj value: 0.086
# Max RMSD: 0.240
# Mean RMSD: 0.240
data_MOF--net-ukg--node1-MUDLON_clean_sbu_0--edge1-FUNLAD_clean_linker_1
_symmetry_space_group_name_H-M    P1
_symmetry_Int_Tables_number       1
_symmetry_cell_setting            triclinic
loop_
_symmetry_equiv_pos_as_xyz
'x, y, z'
_cell_length_a     33.583572
_cell_length_b     33.491709
_cell_length_c     38.68027
_cell_angle_alpha  89.68255
_cell_angle_beta   90.126742
_cell_angle_gamma 89.911921
loop_
_atom_site_label
_atom_site_type_symbol
_atom_site_fract_x
_atom_site_fract_y
_atom_site_fract_z
_atom_type_partial_charge
Mg0 Mg 0.06178 0.68878 0.16538 0.0
C1 C 1.00233 0.64464 0.20813 0.0
O2 O 0.9873 0.63967 0.17706 0.0
C3 C 0.14141 0.71696 0.14471 0.0
O4 O 0.11901 0.72889 0.11877 0.0
C5 C 0.05397 0.6186 0.11763 0.0
O6 O 0.07172 0.60129 0.14407 0.0
O7 O 0.04592 0.65566 0.11904 0.0
O8 O 0.0358 0.66184 0.21127 0.0
O9 O 0.03792 0.74884 0.16647 0.0
C10 C 1.00084 0.75582 0.16841 0.0
O11 O 0.97545 0.72632 0.16492 0.0
O12 O 0.12574 0.69677 0.16905 0.0
Mg13 Mg 0.36017 0.56359 0.66813 0.0
C14 C 0.39271 0.49993 0.713 0.0
O15 O 0.37383 0.47995 0.68885 0.0
C16 C 0.32639 0.64391 0.65268 0.0
O17 O 0.32459 0.62691 0.62222 0.0
C18 C 0.43033 0.54915 0.61951 0.0
O19 O 0.44686 0.53519 0.64793 0.0
O20 O 0.39473 0.5621 0.62038 0.0
O21 O 0.39353 0.53783 0.71114 0.0
O22 O 0.30651 0.52747 0.66509 0.0
C23 C 0.27781 0.53716 0.6847 0.0
O24 O 0.28085 0.56962 0.70345 0.0
O25 O 0.34145 0.62468 0.67796 0.0
Mg26 Mg 0.49995 0.85403 0.16529 0.0
C27 C 0.55077 0.91763 0.19602 0.0
O28 O 0.56163 0.91968 0.16351 0.0
C29 C 0.42759 0.81697 0.19728 0.0
O30 O 0.45478 0.80549 0.21966 0.0
C31 C 0.49404 0.91474 0.10821 0.0
O32 O 0.47281 0.93205 0.1324 0.0
O33 O 0.50923 0.88057 0.11423 0.0
O34 O 0.52316 0.89373 0.20478 0.0
O35 O 0.53191 0.79865 0.1745 0.0
C36 C 0.54589 0.77418 0.15266 0.0
O37 O 0.54258 0.7817 0.11944 0.0
O38 O 0.43752 0.83955 0.17221 0.0
Mg39 Mg 0.16346 0.9891 0.67386 0.0
C40 C 0.10028 0.03181 0.71548 0.0
O41 O 0.08012 0.0273 0.68666 0.0
C42 C 0.19357 0.91522 0.71176 0.0
O43 O 0.19567 0.94031 0.73765 0.0
C44 C 0.13411 1.01017 0.60066 0.0
O45 O 0.17051 0.02368 0.59682 0.0
O46 O 0.12395 0.99429 0.62923 0.0
O47 O 0.13484 1.01654 0.71818 0.0
O48 O 0.21839 0.02289 0.66868 0.0
C49 C 0.25221 1.00583 0.66816 0.0
O50 O 0.25417 0.96672 0.66649 0.0
O51 O 0.17963 0.92706 0.68287 0.0
Mg52 Mg 0.99833 0.35092 0.86477 0.0
C53 C 0.05247 0.27645 0.87132 0.0
O54 O 0.07087 0.29673 0.89549 0.0
C55 C 1.00557 0.41142 0.92021 0.0
O56 O 0.99143 0.43271 0.89429 0.0
C57 C 0.91749 0.31339 0.86147 0.0
O58 O 0.93945 0.28213 0.86933 0.0
O59 O 0.93408 0.34724 0.85775 0.0
O60 O 0.02261 0.2917 0.8559 0.0
O61 O 0.02597 0.39199 0.82823 0.0
C62 C 0.05078 0.37987 0.80584 0.0
O63 O 0.05801 0.34146 0.80308 0.0
O64 O 1.01149 0.37425 0.91597 0.0
Mg65 Mg 0.69133 0.50389 0.36143 0.0
C66 C 0.76264 0.56012 0.35556 0.0
O67 O 0.73556 0.58806 0.35959 0.0
C68 C 0.63767 0.53822 0.4185 0.0
O69 O 0.62611 0.56282 0.39388 0.0
C70 C 0.72435 0.42135 0.35742 0.0
O71 O 0.75546 0.44147 0.3683 0.0
O72 O 0.69194 0.43989 0.35156 0.0
O73 O 0.75263 0.52365 0.35747 0.0
O74 O 0.66114 0.53741 0.32085 0.0
C75 C 0.62391 0.5386 0.31503 0.0
O76 O 0.59959 0.51738 0.33424 0.0
O77 O 0.66495 0.51285 0.41243 0.0
Mg78 Mg 0.54311 0.17342 0.8448 0.0
C79 C 0.50345 0.25842 0.84671 0.0
O80 O 0.50311 0.25543 0.88059 0.0
C81 C 0.53432 0.11541 0.90217 0.0
O82 O 0.5541 0.09498 0.8789 0.0
C83 C 0.62303 0.21368 0.84598 0.0
O84 O 0.59957 0.2449 0.84886 0.0
O85 O 0.60772 0.1791 0.84359 0.0
O86 O 0.51739 0.23024 0.82854 0.0
O87 O 0.52129 0.1305 0.80727 0.0
C88 C 0.48539 0.13553 0.7977 0.0
O89 O 0.46493 0.16536 0.81067 0.0
O90 O 0.52488 0.15145 0.8955 0.0
Mg91 Mg 0.85396 0.04271 0.36578 0.0
C92 C 0.77552 1.01733 0.34423 0.0
O93 O 0.79108 0.03551 0.31727 0.0
C94 C 0.88495 1.01689 0.43728 0.0
O95 O 0.84821 1.00452 0.44152 0.0
C96 C 0.81329 0.12286 0.36613 0.0
O97 O 0.78643 0.10153 0.38254 0.0
O98 O 0.84526 0.10621 0.35612 0.0
O99 O 0.79576 1.01535 0.37199 0.0
O100 O 0.87757 1.01371 0.32017 0.0
C101 C 0.89543 0.98053 0.32391 0.0
O102 O 0.90163 0.96643 0.35524 0.0
O103 O 0.89486 0.03358 0.40898 0.0
H104 H 0.02796 0.41234 0.97413 0.0
C105 C 1.01565 0.43064 0.95341 0.0
H106 H 0.99737 0.48846 0.93796 0.0
H107 H 0.97302 0.55532 0.08851 0.0
H108 H 0.90442 0.54473 0.07135 0.0
H109 H 0.88824 0.50921 0.01743 0.0
H110 H 0.94064 0.48377 0.98048 0.0
C111 C 1.01069 0.47012 0.95817 0.0
C112 C 0.02088 0.49011 0.99136 0.0
C113 C 0.98996 0.50545 1.0124 0.0
C114 C 0.99931 0.52654 0.04322 0.0
C115 C 0.96772 0.54015 0.06434 0.0
C116 C 0.92816 0.53402 0.05491 0.0
C117 C 0.91905 0.51398 0.02458 0.0
C118 C 0.94943 0.49966 1.00354 0.0
H119 H 0.02861 0.61102 0.06528 0.0
C120 C 0.04295 0.59541 0.08667 0.0
H121 H 0.06521 0.54021 0.10512 0.0
H122 H 0.08756 0.46648 0.9561 0.0
H123 H 0.15612 0.47676 0.97342 0.0
H124 H 0.1723 0.51263 0.02715 0.0
H125 H 0.11996 0.53867 0.06378 0.0
C126 C 0.04989 0.55594 0.08434 0.0
C127 C 0.03966 0.53299 0.0526 0.0
C128 C 0.07058 0.5171 0.03185 0.0
C129 C 0.06123 0.49594 1.00106 0.0
C130 C 0.09282 0.48191 0.98015 0.0
C131 C 0.13238 0.48781 0.98969 0.0
C132 C 0.14149 0.50803 0.01992 0.0
C133 C 0.11112 0.52272 0.04077 0.0
H134 H 0.43919 0.56595 0.56474 0.0
C135 C 0.45311 0.55144 0.58689 0.0
H136 H 0.50475 0.52304 0.60623 0.0
H137 H 0.52653 0.51483 0.43432 0.0
H138 H 0.46672 0.47438 0.43401 0.0
H139 H 0.4288 0.46273 0.48766 0.0
H140 H 0.45013 0.49182 0.54177 0.0
C141 C 0.49025 0.53669 0.58396 0.0
C142 C 0.51404 0.54151 0.5516 0.0
C143 C 0.5016 0.52342 0.52026 0.0
C144 C 0.5241 0.52923 0.48947 0.0
C145 C 0.51069 0.5113 0.45847 0.0
C146 C 0.47646 0.4879 0.45793 0.0
C147 C 0.45507 0.48141 0.48812 0.0
C148 C 0.46746 0.49866 0.519 0.0
H149 H 0.62873 0.51771 0.47234 0.0
C150 C 0.61706 0.5373 0.45222 0.0
H151 H 0.56991 0.57558 0.43735 0.0
H152 H 0.54699 0.57969 0.60723 0.0
H153 H 0.60791 0.61835 0.60768 0.0
H154 H 0.64726 0.62747 0.55446 0.0
H155 H 0.62588 0.59792 0.50042 0.0
C156 C 0.58306 0.55751 0.45782 0.0
C157 C 0.55973 0.55187 0.49023 0.0
C158 C 0.57266 0.56922 0.52165 0.0
C159 C 0.54985 0.564 0.55235 0.0
C160 C 0.56325 0.58225 0.58322 0.0
C161 C 0.59814 0.60468 0.58383 0.0
C162 C 0.62029 0.60981 0.55387 0.0
C163 C 0.60777 0.59251 0.52305 0.0
H164 H 0.51942 0.92013 0.05561 0.0
C165 C 0.50198 0.93552 0.0751 0.0
H166 H 0.47321 0.98928 0.08882 0.0
H167 H 0.5757 0.09662 0.98766 0.0
H168 H 0.60386 0.11469 0.04309 0.0
H169 H 0.58472 0.07863 0.09626 0.0
H170 H 0.5375 0.024 0.09424 0.0
C171 C 0.48932 0.97307 0.069 0.0
C172 C 0.49991 0.99518 0.03673 0.0
C173 C 0.52681 0.02774 0.0384 0.0
C174 C 0.53738 0.04899 1.00777 0.0
C175 C 0.56572 0.08015 1.01012 0.0
C176 C 0.58235 0.0907 0.0418 0.0
C177 C 0.5716 0.07037 0.07173 0.0
C178 C 0.54434 0.03914 0.0702 0.0
H179 H 0.50622 0.11405 0.954 0.0
C180 C 0.52298 0.09658 0.93541 0.0
H181 H 0.54848 0.04052 0.92397 0.0
H182 H 0.44469 0.93673 0.02478 0.0
H183 H 0.41593 0.91901 0.96943 0.0
H184 H 0.43448 0.95549 0.9163 0.0
H185 H 0.48178 1.01006 0.91824 0.0
C186 C 0.53282 0.05849 0.94291 0.0
C187 C 0.52037 0.03814 0.97554 0.0
C188 C 0.49305 1.00592 0.97397 0.0
C189 C 0.48262 0.98458 1.00458 0.0
C190 C 0.45437 0.95335 1.00228 0.0
C191 C 0.43743 0.94301 0.97068 0.0
C192 C 0.44786 0.96356 0.94077 0.0
C193 C 0.47519 0.99474 0.94225 0.0
H194 H 0.90436 0.9971 0.48926 0.0
C195 C 0.91436 1.01103 0.46537 0.0
H196 H 0.96285 0.03708 0.43888 0.0
H197 H 0.05831 0.08014 0.5748 0.0
H198 H 0.03619 0.14565 0.55607 0.0
H199 H 0.98913 0.15323 0.50742 0.0
H200 H 0.96368 0.09524 0.47738 0.0
C201 C 0.9527 0.02208 0.46223 0.0
C202 C 0.98177 1.01705 0.49118 0.0
C203 C 0.99711 0.05128 0.50801 0.0
C204 C 0.0248 0.04693 0.53573 0.0
C205 C 0.03821 0.08164 0.55297 0.0
C206 C 0.02551 0.11948 0.54264 0.0
C207 C 0.99898 0.12374 0.51528 0.0
C208 C 0.98471 0.09018 0.49818 0.0
H209 H 0.11517 0.02837 0.54812 0.0
C210 C 0.10508 1.01468 0.57209 0.0
H211 H 0.05654 0.98871 0.59858 0.0
H212 H 0.96106 0.94526 0.46262 0.0
H213 H 0.98313 0.87972 0.4814 0.0
H214 H 0.03024 0.87215 0.53001 0.0
H215 H 0.05581 0.93016 0.55998 0.0
C216 C 0.06681 1.00337 0.57511 0.0
C217 C 0.03779 1.00833 0.54612 0.0
C218 C 0.02242 0.97411 0.52931 0.0
C219 C 0.99471 0.97845 0.5016 0.0
C220 C 0.98122 0.94375 0.48442 0.0
C221 C 0.99387 0.9059 0.49478 0.0
C222 C 0.02043 0.90164 0.52213 0.0
C223 C 0.03478 0.93521 0.53917 0.0
H224 H 0.19438 0.74766 0.12453 0.0
C225 C 0.18323 0.73016 0.14619 0.0
H226 H 0.19572 0.70784 0.19622 0.0
H227 H 0.37222 0.75657 0.12615 0.0
H228 H 0.36018 0.70247 0.08611 0.0
H229 H 0.29688 0.66523 0.08725 0.0
H230 H 0.24514 0.68209 0.12831 0.0
C231 C 0.20692 0.72375 0.1737 0.0
C232 C 0.24705 0.74263 0.17561 0.0
C233 C 0.27733 0.73186 0.15189 0.0
C234 C 0.31412 0.75287 0.15167 0.0
C235 C 0.34368 0.74171 0.12747 0.0
C236 C 0.33723 0.7106 0.10438 0.0
C237 C 0.30157 0.68968 0.10499 0.0
C238 C 0.27196 0.69991 0.12851 0.0
H239 H 0.38007 0.78159 0.22199 0.0
C240 C 0.38697 0.80053 0.1999 0.0
H241 H 0.36672 0.82302 0.15188 0.0
H242 H 0.19627 0.76926 0.22587 0.0
H243 H 0.20886 0.82241 0.2667 0.0
H244 H 0.27248 0.8591 0.26604 0.0
H245 H 0.32393 0.84277 0.22459 0.0
C246 C 0.35956 0.80581 0.17494 0.0
C247 C 0.32098 0.78394 0.17571 0.0
C248 C 0.29117 0.79394 0.20011 0.0
C249 C 0.25428 0.77305 0.20022 0.0
C250 C 0.22488 0.78398 0.22464 0.0
C251 C 0.23167 0.81452 0.24821 0.0
C252 C 0.2675 0.83515 0.24786 0.0
C253 C 0.29691 0.82527 0.22405 0.0
H254 H 0.29819 0.69932 0.63399 0.0
C255 C 0.30929 0.68415 0.65701 0.0
H256 H 0.31456 0.68642 0.71142 0.0
H257 H 0.28099 0.87509 0.66 0.0
H258 H 0.34736 0.87213 0.63555 0.0
H259 H 0.38607 0.80946 0.63693 0.0
H260 H 0.35854 0.74934 0.66263 0.0
C261 C 0.30531 0.7018 0.68793 0.0
C262 C 0.28432 0.7409 0.69089 0.0
C263 C 0.30112 0.77595 0.67626 0.0
C264 C 0.27901 0.81221 0.6759 0.0
C265 C 0.29638 0.84669 0.66087 0.0
C266 C 0.33452 0.84546 0.64684 0.0
C267 C 0.3563 0.81017 0.64758 0.0
C268 C 0.34001 0.77578 0.66219 0.0
H269 H 0.22276 0.86604 0.74057 0.0
C270 C 0.2114 0.87508 0.71538 0.0
H271 H 0.20736 0.86067 0.66242 0.0
H272 H 0.24478 0.68003 0.7235 0.0
H273 H 0.17925 0.68353 0.74955 0.0
H274 H 0.14079 0.74635 0.74869 0.0
H275 H 0.16767 0.80609 0.72183 0.0
C276 C 0.21672 0.85105 0.68806 0.0
C277 C 0.24045 0.81358 0.69072 0.0
C278 C 0.22436 0.77901 0.70671 0.0
C279 C 0.24644 0.74268 0.70697 0.0
C280 C 0.2294 0.70843 0.72264 0.0
C281 C 0.19177 0.71 0.73765 0.0
C282 C 0.17013 0.74538 0.73718 0.0
C283 C 0.18599 0.77951 0.7218 0.0
H284 H 0.68522 0.1918 0.84609 0.0
C285 C 0.66673 0.21847 0.84637 0.0
H286 H 0.66565 0.28144 0.84862 0.0
H287 H 0.83344 0.30129 0.91907 0.0
H288 H 0.78921 0.32078 0.96546 0.0
H289 H 0.71652 0.31253 0.95983 0.0
H290 H 0.68763 0.28462 0.90784 0.0
C291 C 0.68395 0.25469 0.84742 0.0
C292 C 0.72792 0.25967 0.85031 0.0
C293 C 0.74431 0.27657 0.88074 0.0
C294 C 0.78623 0.28157 0.88392 0.0
C295 C 0.80181 0.29747 0.91499 0.0
C296 C 0.77676 0.30862 0.94192 0.0
C297 C 0.73584 0.30396 0.93876 0.0
C298 C 0.71965 0.28801 0.90868 0.0
H299 H 0.85636 0.33634 0.85315 0.0
C300 C 0.8739 0.30952 0.85771 0.0
H301 H 0.87287 0.2467 0.86356 0.0
H302 H 0.70624 0.23051 0.78686 0.0
H303 H 0.75062 0.2107 0.74071 0.0
H304 H 0.82341 0.21736 0.74707 0.0
H305 H 0.8522 0.24433 0.79957 0.0
C306 C 0.85562 0.27391 0.8601 0.0
C307 C 0.81168 0.26996 0.85654 0.0
C308 C 0.79534 0.25321 0.82609 0.0
C309 C 0.75339 0.24854 0.82274 0.0
C310 C 0.73788 0.23349 0.79133 0.0
C311 C 0.76303 0.22227 0.76448 0.0
C312 C 0.804 0.22608 0.76804 0.0
C313 C 0.82014 0.2415 0.79835 0.0
H314 H 0.69919 0.36113 0.34861 0.0
C315 C 0.72633 0.37746 0.35437 0.0
H316 H 0.78744 0.37363 0.36689 0.0
H317 H 0.78499 0.2031 0.43333 0.0
H318 H 0.79176 0.24454 0.48421 0.0
H319 H 0.78463 0.31773 0.48008 0.0
H320 H 0.77078 0.34993 0.42507 0.0
C321 C 0.7605 0.35748 0.36014 0.0
C322 C 0.76209 0.31314 0.36237 0.0
C323 C 0.76982 0.29476 0.39483 0.0
C324 C 0.7735 0.25256 0.3973 0.0
C325 C 0.7816 0.23503 0.43001 0.0
C326 C 0.7856 0.25846 0.45944 0.0
C327 C 0.78163 0.29966 0.45711 0.0
C328 C 0.77379 0.31776 0.4253 0.0
H329 H 0.83063 0.18292 0.34759 0.0
C330 C 0.80707 0.16595 0.36006 0.0
H331 H 0.75045 0.16838 0.38375 0.0
H332 H 0.7493 0.33881 0.29586 0.0
H333 H 0.74092 0.29712 0.24529 0.0
H334 H 0.74465 0.22372 0.25007 0.0
H335 H 0.75729 0.19156 0.30543 0.0
C336 C 0.77375 0.1847 0.37033 0.0
C337 C 0.76951 0.22878 0.36733 0.0
C338 C 0.76117 0.24702 0.33494 0.0
C339 C 0.75788 0.28932 0.33237 0.0
C340 C 0.75103 0.30682 0.29949 0.0
C341 C 0.74634 0.28323 0.2702 0.0
C342 C 0.74853 0.2419 0.27288 0.0
C343 C 0.75589 0.22383 0.30479 0.0
H344 H 0.81937 0.54543 0.33063 0.0
C345 C 0.80231 0.56984 0.34168 0.0
H346 H 0.79876 0.63187 0.34941 0.0
H347 H 0.97593 0.57374 0.28079 0.0
H348 H 0.9862 0.53577 0.33357 0.0
H349 H 0.93601 0.53642 0.38005 0.0
H350 H 0.87461 0.57421 0.37345 0.0
C351 C 0.816 0.6074 0.33879 0.0
C352 C 0.85101 0.61646 0.31628 0.0
C353 C 0.88797 0.59665 0.32155 0.0
C354 C 0.91799 0.59831 0.29566 0.0
C355 C 0.95293 0.57515 0.30024 0.0
C356 C 0.95912 0.55299 0.33037 0.0
C357 C 0.9308 0.55322 0.35648 0.0
C358 C 0.89558 0.57472 0.35226 0.0
H359 H 0.98873 0.64705 0.26401 0.0
C360 C 0.97779 0.63698 0.23908 0.0
H361 H 0.9295 0.613 0.21131 0.0
H362 H 0.78568 0.66259 0.29972 0.0
H363 H 0.77877 0.70662 0.25035 0.0
H364 H 0.8331 0.71382 0.20801 0.0
H365 H 0.89446 0.67637 0.21456 0.0
C366 C 0.94098 0.62158 0.23649 0.0
C367 C 0.91209 0.62218 0.26567 0.0
C368 C 0.87692 0.64544 0.26226 0.0
C369 C 0.84611 0.64222 0.2873 0.0
C370 C 0.81051 0.66431 0.28208 0.0
C371 C 0.80604 0.68975 0.25372 0.0
C372 C 0.83656 0.69371 0.22982 0.0
C373 C 0.8716 0.67189 0.23386 0.0
H374 H 0.42713 0.49575 0.76192 0.0
C375 C 0.41179 0.4786 0.74221 0.0
H376 H 0.39334 0.42153 0.72586 0.0
H377 H 0.53885 0.36084 0.82694 0.0
H378 H 0.58351 0.39824 0.78959 0.0
H379 H 0.557 0.44317 0.74429 0.0
H380 H 0.48589 0.45155 0.73644 0.0
C381 C 0.40995 0.43858 0.74486 0.0
C382 C 0.42686 0.41579 0.77462 0.0
C383 C 0.46862 0.41087 0.77834 0.0
C384 C 0.48396 0.38375 0.80353 0.0
C385 C 0.52573 0.38005 0.80741 0.0
C386 C 0.55165 0.40149 0.7863 0.0
C387 C 0.53672 0.42688 0.76087 0.0
C388 C 0.49574 0.43154 0.75673 0.0
H389 H 0.49021 0.29456 0.80058 0.0
C390 C 0.48849 0.29433 0.82866 0.0
H391 H 0.46969 0.32639 0.87271 0.0
H392 H 0.34575 0.42237 0.77743 0.0
H393 H 0.30138 0.38539 0.81529 0.0
H394 H 0.32798 0.33664 0.85751 0.0
H395 H 0.39914 0.32481 0.86233 0.0
C396 C 0.47303 0.3262 0.84478 0.0
C397 C 0.45757 0.36052 0.82396 0.0
C398 C 0.41602 0.36745 0.82186 0.0
C399 C 0.40066 0.39515 0.79719 0.0
C400 C 0.35895 0.40123 0.79537 0.0
C401 C 0.33317 0.38031 0.81702 0.0
C402 C 0.34816 0.3529 0.84082 0.0
C403 C 0.38906 0.34637 0.84329 0.0
H404 H 0.59615 0.96067 0.21223 0.0
C405 C 0.5743 0.93945 0.22191 0.0
H406 H 0.55373 0.9079 0.26584 0.0
H407 H 0.73175 0.92314 0.32307 0.0
H408 H 0.72399 0.85154 0.31786 0.0
H409 H 0.66157 0.82268 0.2955 0.0
H410 H 0.60675 0.86538 0.27773 0.0
C411 C 0.57367 0.9307 0.25586 0.0
C412 C 0.60537 0.94707 0.27872 0.0
C413 C 0.63634 0.92161 0.29059 0.0
C414 C 0.67207 0.93829 0.30409 0.0
C415 C 0.70364 0.91225 0.31338 0.0
C416 C 0.69964 0.871 0.31039 0.0
C417 C 0.66453 0.85474 0.29773 0.0
C418 C 0.63327 0.8796 0.28766 0.0
H419 H 0.72314 0.984 0.3642 0.0
C420 C 0.73579 0.99869 0.34166 0.0
H421 H 0.72816 1.01449 0.28918 0.0
H422 H 0.54788 1.00292 0.26603 0.0
H423 H 0.55373 0.07465 0.27442 0.0
H424 H 0.61549 0.10375 0.29802 0.0
H425 H 0.6717 0.06138 0.31348 0.0
C426 C 0.71592 0.99884 0.31143 0.0
C427 C 0.67611 0.98036 0.30645 0.0
C428 C 0.64336 1.00539 0.29816 0.0
C429 C 0.6079 0.98872 0.28438 0.0
C430 C 0.57573 1.01436 0.27601 0.0
C431 C 0.57864 0.05544 0.28089 0.0
C432 C 0.61341 0.07183 0.2942 0.0
C433 C 0.64549 0.04724 0.3028 0.0
H434 H 0.09485 0.22577 0.87292 0.0
C435 C 0.06816 0.23728 0.86041 0.0
H436 H 0.02418 0.22756 0.82223 0.0
H437 H 0.16572 0.11784 0.75425 0.0
H438 H 0.20239 0.17958 0.74771 0.0
H439 H 0.17792 0.24193 0.77385 0.0
H440 H 0.11686 0.24283 0.80686 0.0
C441 C 0.05145 0.21683 0.83431 0.0
C442 C 0.06845 0.17878 0.82111 0.0
C443 C 0.10437 0.17887 0.80182 0.0
C444 C 0.11814 0.14302 0.78623 0.0
C445 C 0.15382 0.14407 0.76674 0.0
C446 C 0.17519 0.17938 0.76268 0.0
C447 C 0.16144 0.21447 0.77742 0.0
C448 C 0.12638 0.21446 0.79658 0.0
H449 H 0.05667 0.07412 0.73681 0.0
C450 C 0.08523 0.05981 0.74174 0.0
H451 H 0.13667 0.05887 0.7732 0.0
H452 H 0.99988 0.16788 0.85795 0.0
H453 H 0.96361 0.10575 0.86515 0.0
H454 H 0.98788 0.04353 0.83854 0.0
H455 H 0.04846 0.04311 0.80438 0.0
C456 C 0.10733 0.07168 0.76882 0.0
C457 C 0.09551 0.10741 0.78924 0.0
C458 C 0.06052 0.10699 0.80968 0.0
C459 C 0.04684 0.14277 0.8254 0.0
C460 C 1.01152 0.14159 0.84533 0.0
C461 C 0.9905 0.10611 0.84977 0.0
C462 C 1.00414 0.07108 0.83476 0.0
C463 C 0.03879 0.07131 0.81502 0.0
H464 H 0.07049 0.44079 0.79228 0.0
C465 C 0.07496 0.40932 0.7867 0.0
H466 H 0.10941 0.36715 0.75918 0.0
H467 H 0.17244 0.50511 0.65724 0.0
H468 H 0.12215 0.47562 0.62021 0.0
H469 H 0.07652 0.42402 0.64268 0.0
H470 H 0.08072 0.40177 0.70247 0.0
C471 C 0.1045 0.39838 0.76534 0.0
C472 C 0.13302 0.42832 0.75136 0.0
C473 C 0.13073 0.44041 0.71625 0.0
C474 C 0.1575 0.46972 0.70315 0.0
C475 C 0.15353 0.4823 0.66832 0.0
C476 C 0.12464 0.46577 0.64683 0.0
C477 C 0.09892 0.43674 0.65949 0.0
C478 C 0.10167 0.4242 0.69382 0.0
H479 H 0.246 0.47986 0.67842 0.0
C480 C 0.2445 0.50916 0.69032 0.0
H481 H 0.21395 0.5464 0.72518 0.0
H482 H 0.14804 0.40882 0.8191 0.0
H483 H 0.19931 0.43689 0.85575 0.0
H484 H 0.24569 0.48769 0.83317 0.0
H485 H 0.24108 0.51069 0.77383 0.0
C486 C 0.21479 0.51762 0.71235 0.0
C487 C 0.18697 0.48629 0.72511 0.0
C488 C 0.18977 0.47351 0.76008 0.0
C489 C 0.16292 0.44437 0.77316 0.0
C490 C 0.16711 0.43143 0.80794 0.0
C491 C 0.19659 0.44713 0.82926 0.0
C492 C 0.2227 0.47572 0.81654 0.0
C493 C 0.21958 0.48878 0.7824 0.0
H494 H 0.57632 0.57524 0.29135 0.0
C495 C 0.60774 0.56764 0.28979 0.0
H496 H 0.66266 0.57892 0.26539 0.0
H497 H 0.51834 0.67305 0.17397 0.0
H498 H 0.49044 0.60753 0.16365 0.0
H499 H 0.5213 0.54729 0.18915 0.0
H500 H 0.5797 0.55241 0.22588 0.0
C501 C 0.63122 0.58646 0.26672 0.0
C502 C 0.61673 0.62132 0.246 0.0
C503 C 0.58398 0.61756 0.22297 0.0
C504 C 0.5675 0.65211 0.20673 0.0
C505 C 0.53305 0.64778 0.18591 0.0
C506 C 0.5166 0.6103 0.17987 0.0
C507 C 0.53387 0.5764 0.19433 0.0
C508 C 0.56718 0.5798 0.21562 0.0
H509 H 0.57761 0.71662 0.14588 0.0
C510 C 0.56489 0.73678 0.16481 0.0
H511 H 0.55414 0.74762 0.21772 0.0
H512 H 0.68193 0.639 0.28627 0.0
H513 H 0.71329 0.70354 0.29232 0.0
H514 H 0.68712 0.76254 0.26131 0.0
H515 H 0.62883 0.75738 0.22445 0.0
C516 C 0.5659 0.72707 0.19862 0.0
C517 C 0.58519 0.69004 0.21206 0.0
C518 C 0.61971 0.6933 0.23301 0.0
C519 C 0.63536 0.65903 0.2502 0.0
C520 C 0.66909 0.66367 0.27194 0.0
C521 C 0.68741 0.70067 0.27578 0.0
C522 C 0.6726 0.73392 0.25841 0.0
C523 C 0.63907 0.73052 0.23738 0.0
H524 H 0.4827 0.08097 0.76556 0.0
C525 C 0.46626 0.10724 0.7737 0.0
H526 H 0.41234 0.13961 0.77009 0.0
H527 H 0.34624 0.06237 0.63452 0.0
H528 H 0.37425 0.12314 0.61018 0.0
H529 H 0.41766 0.16647 0.64523 0.0
H530 H 0.43362 0.14913 0.70474 0.0
C531 C 0.42855 0.11281 0.76292 0.0
C532 C 0.40728 0.08379 0.74054 0.0
C533 C 0.39808 0.0944 0.70592 0.0
C534 C 0.37253 0.06978 0.68588 0.0
C535 C 0.36457 0.08064 0.65113 0.0
C536 C 0.38069 0.11526 0.63679 0.0
C537 C 0.40516 0.13964 0.65652 0.0
C538 C 0.41395 0.12944 0.69066 0.0
H539 H 0.28381 0.06109 0.68187 0.0
C540 C 0.28793 0.0295 0.67652 0.0
H541 H 0.32775 0.98074 0.67826 0.0
H542 H 0.42014 0.05377 0.80579 0.0
H543 H 0.39356 0.99237 0.8295 0.0
H544 H 0.34948 0.94951 0.79473 0.0
H545 H 0.33164 0.96788 0.73612 0.0
C546 C 0.32368 1.01256 0.68234 0.0
C547 C 0.35557 0.03498 0.70077 0.0
C548 C 0.36673 0.02306 0.73473 0.0
C549 C 0.39241 0.04763 0.75473 0.0
C550 C 0.40142 0.036 0.78915 0.0
C551 C 0.3862 1.00084 0.8032 0.0
C552 C 0.36138 0.97672 0.78363 0.0
C553 C 0.35146 0.98763 0.7499 0.0
H554 H 1.01107 0.81402 0.19265 0.0
C555 C 0.98797 0.7943 0.18291 0.0
H556 H 0.92643 0.7829 0.18004 0.0
H557 H 0.88558 0.86439 0.32167 0.0
H558 H 0.86195 0.79672 0.3297 0.0
H559 H 0.87407 0.74542 0.28553 0.0
H560 H 0.90885 0.76164 0.23266 0.0
C561 C 0.94956 0.80297 0.18905 0.0
C562 C 0.93875 0.83513 0.21392 0.0
C563 C 0.9186 0.82484 0.24494 0.0
C564 C 0.91291 0.85404 0.27104 0.0
C565 C 0.89179 0.84319 0.30137 0.0
C566 C 0.87786 0.80445 0.3063 0.0
C567 C 0.88456 0.7756 0.28136 0.0
C568 C 0.90463 0.78545 0.25103 0.0
H569 H 0.89176 0.96503 0.26855 0.0
C570 C 0.90434 0.956 0.29332 0.0
H571 H 0.93706 0.91251 0.32079 0.0
H572 H 0.97002 0.86705 0.15472 0.0
H573 H 0.99637 0.93406 0.14743 0.0
H574 H 0.99421 0.98231 0.19537 0.0
H575 H 0.96467 0.96435 0.25034 0.0
C576 C 0.92535 0.92193 0.29582 0.0
C577 C 0.92846 0.89315 0.26666 0.0
C578 C 0.94781 0.90368 0.23531 0.0
C579 C 0.95152 0.87504 0.20844 0.0
C580 C 0.96838 0.88706 0.17653 0.0
C581 C 0.98332 0.92548 0.17193 0.0
C582 C 0.98192 0.95269 0.19886 0.0
C583 C 0.96452 0.94207 0.23025 0.0
loop_
_geom_bond_atom_site_label_1
_geom_bond_atom_site_label_2
_geom_bond_distance
_geom_bond_site_symmetry_2
_ccdc_geom_bond_type
Mg0 O7 2.141 . S
Mg0 O8 2.048 1_455 S
Mg0 O9 2.048 . S
Mg0 O12 2.141 . S
C1 O2 1.313 . S
C1 O8 1.195 . S
O2 C1 1.313 . S
C3 O4 1.245 . S
C3 O12 1.289 . S
O4 C3 1.245 . S
C5 O6 1.245 . S
C5 O7 1.289 . S
O6 C5 1.245 . S
O7 Mg0 2.141 . S
O7 C5 1.289 . S
O8 Mg0 2.048 1_655 S
O8 C1 1.195 . S
O9 Mg0 2.048 . S
O9 C10 1.195 . S
C10 O9 1.195 . S
C10 O11 1.313 1_455 S
O11 C10 1.313 1_655 S
O12 Mg0 2.141 . S
O12 C3 1.289 . S
Mg13 O20 2.141 . S
Mg13 O21 2.048 . S
Mg13 O22 2.048 . S
Mg13 O25 2.141 . S
C14 O15 1.313 . S
C14 O21 1.195 . S
O15 C14 1.313 . S
C16 O17 1.245 . S
C16 O25 1.289 . S
O17 C16 1.245 . S
C18 O19 1.245 . S
C18 O20 1.289 . S
O19 C18 1.245 . S
O20 Mg13 2.141 . S
O20 C18 1.289 . S
O21 Mg13 2.048 . S
O21 C14 1.195 . S
O22 Mg13 2.048 . S
O22 C23 1.195 . S
C23 O22 1.195 . S
C23 O24 1.313 . S
O24 C23 1.313 . S
O25 Mg13 2.141 . S
O25 C16 1.289 . S
Mg26 O33 2.141 . S
Mg26 O34 2.048 . S
Mg26 O35 2.048 . S
Mg26 O38 2.141 . S
C27 O28 1.313 . S
C27 O34 1.195 . S
O28 C27 1.313 . S
C29 O30 1.245 . S
C29 O38 1.289 . S
O30 C29 1.245 . S
C31 O32 1.245 . S
C31 O33 1.289 . S
O32 C31 1.245 . S
O33 Mg26 2.141 . S
O33 C31 1.289 . S
O34 Mg26 2.048 . S
O34 C27 1.195 . S
O35 Mg26 2.048 . S
O35 C36 1.195 . S
C36 O35 1.195 . S
C36 O37 1.313 . S
O37 C36 1.313 . S
O38 Mg26 2.141 . S
O38 C29 1.289 . S
Mg39 O46 2.141 . S
Mg39 O47 2.048 1_565 S
Mg39 O48 2.048 . S
Mg39 O51 2.141 . S
C40 O41 1.313 . S
C40 O47 1.195 . S
O41 C40 1.313 . S
C42 O43 1.245 . S
C42 O51 1.289 . S
O43 C42 1.245 . S
C44 O45 1.245 . S
C44 O46 1.289 . S
O45 C44 1.245 . S
O46 Mg39 2.141 . S
O46 C44 1.289 . S
O47 Mg39 2.048 1_545 S
O47 C40 1.195 . S
O48 Mg39 2.048 . S
O48 C49 1.195 . S
C49 O48 1.195 . S
C49 O50 1.313 1_565 S
O50 C49 1.313 1_545 S
O51 Mg39 2.141 . S
O51 C42 1.289 . S
Mg52 O59 2.141 . S
Mg52 O60 2.048 . S
Mg52 O61 2.048 1_655 S
Mg52 O64 2.141 . S
C53 O54 1.313 1_655 S
C53 O60 1.195 . S
O54 C53 1.313 1_455 S
C55 O56 1.245 . S
C55 O64 1.289 . S
O56 C55 1.245 . S
C57 O58 1.245 . S
C57 O59 1.289 . S
O58 C57 1.245 . S
O59 Mg52 2.141 . S
O59 C57 1.289 . S
O60 Mg52 2.048 . S
O60 C53 1.195 . S
O61 Mg52 2.048 1_455 S
O61 C62 1.195 . S
C62 O61 1.195 . S
C62 O63 1.313 . S
O63 C62 1.313 . S
O64 Mg52 2.141 . S
O64 C55 1.289 . S
Mg65 O72 2.141 . S
Mg65 O73 2.048 . S
Mg65 O74 2.048 . S
Mg65 O77 2.141 . S
C66 O67 1.313 . S
C66 O73 1.195 . S
O67 C66 1.313 . S
C68 O69 1.245 . S
C68 O77 1.289 . S
O69 C68 1.245 . S
C70 O71 1.245 . S
C70 O72 1.289 . S
O71 C70 1.245 . S
O72 Mg65 2.141 . S
O72 C70 1.289 . S
O73 Mg65 2.048 . S
O73 C66 1.195 . S
O74 Mg65 2.048 . S
O74 C75 1.195 . S
C75 O74 1.195 . S
C75 O76 1.313 . S
O76 C75 1.313 . S
O77 Mg65 2.141 . S
O77 C68 1.289 . S
Mg78 O85 2.141 . S
Mg78 O86 2.048 . S
Mg78 O87 2.048 . S
Mg78 O90 2.141 . S
C79 O80 1.313 . S
C79 O86 1.195 . S
O80 C79 1.313 . S
C81 O82 1.245 . S
C81 O90 1.289 . S
O82 C81 1.245 . S
C83 O84 1.245 . S
C83 O85 1.289 . S
O84 C83 1.245 . S
O85 Mg78 2.141 . S
O85 C83 1.289 . S
O86 Mg78 2.048 . S
O86 C79 1.195 . S
O87 Mg78 2.048 . S
O87 C88 1.195 . S
C88 O87 1.195 . S
C88 O89 1.313 . S
O89 C88 1.313 . S
O90 Mg78 2.141 . S
O90 C81 1.289 . S
Mg91 O98 2.141 . S
Mg91 O99 2.048 . S
Mg91 O100 2.048 1_545 S
Mg91 O103 2.141 . S
C92 O93 1.313 1_545 S
C92 O99 1.195 . S
O93 C92 1.313 1_565 S
C94 O95 1.245 . S
C94 O103 1.289 . S
O95 C94 1.245 . S
C96 O97 1.245 . S
C96 O98 1.289 . S
O97 C96 1.245 . S
O98 Mg91 2.141 . S
O98 C96 1.289 . S
O99 Mg91 2.048 . S
O99 C92 1.195 . S
O100 Mg91 2.048 1_565 S
O100 C101 1.195 . S
C101 O100 1.195 . S
C101 O102 1.313 . S
O102 C101 1.313 . S
O103 Mg91 2.141 . S
O103 C94 1.289 . S
H104 C105 0.951 . S
C105 H104 0.951 . S
C105 C111 1.265 . S
H106 C111 0.950 1_455 S
H107 C115 0.949 . S
H108 C116 0.950 . S
H109 C117 0.951 . S
H110 C118 0.951 . S
C111 C105 1.265 . S
C111 H106 0.950 1_655 S
C111 C112 1.478 . S
C112 C111 1.478 . S
C112 C113 1.397 . S
C112 C129 1.394 1_655 S
C113 C112 1.397 . S
C113 C114 1.438 1_556 S
C113 C118 1.429 . S
C114 C113 1.438 1_554 S
C114 C115 1.428 . S
C114 C127 1.394 1_655 S
C115 H107 0.949 . S
C115 C114 1.428 . S
C115 C116 1.345 1_554 S
C116 H108 0.950 . S
C116 C115 1.345 1_556 S
C116 C117 1.424 . S
C117 H109 0.951 . S
C117 C116 1.424 . S
C117 C118 1.347 . S
C118 H110 0.951 . S
C118 C113 1.429 . S
C118 C117 1.347 . S
H119 C120 0.951 . S
C120 H119 0.951 . S
C120 C126 1.265 . S
H121 C126 0.950 1_655 S
H122 C130 0.949 . S
H123 C131 0.950 . S
H124 C132 0.951 . S
H125 C133 0.951 . S
C126 C120 1.265 . S
C126 H121 0.950 1_455 S
C126 C127 1.478 . S
C127 C114 1.394 1_455 S
C127 C126 1.478 . S
C127 C128 1.397 . S
C128 C127 1.397 . S
C128 C129 1.438 1_554 S
C128 C133 1.429 . S
C129 C112 1.394 1_455 S
C129 C128 1.438 1_556 S
C129 C130 1.428 . S
C130 H122 0.949 . S
C130 C129 1.428 . S
C130 C131 1.345 1_556 S
C131 H123 0.950 . S
C131 C130 1.345 1_554 S
C131 C132 1.424 . S
C132 H124 0.951 . S
C132 C131 1.424 . S
C132 C133 1.347 . S
C133 H125 0.951 . S
C133 C128 1.429 . S
C133 C132 1.347 . S
H134 C135 0.951 . S
C135 H134 0.951 . S
C135 C141 1.265 . S
H136 C141 0.950 . S
H137 C145 0.949 . S
H138 C146 0.950 . S
H139 C147 0.951 . S
H140 C148 0.951 . S
C141 C135 1.265 . S
C141 H136 0.950 . S
C141 C142 1.478 . S
C142 C141 1.478 . S
C142 C143 1.397 . S
C142 C159 1.394 . S
C143 C142 1.397 . S
C143 C144 1.438 . S
C143 C148 1.429 . S
C144 C143 1.438 . S
C144 C145 1.428 . S
C144 C157 1.394 . S
C145 H137 0.949 . S
C145 C144 1.428 . S
C145 C146 1.345 . S
C146 H138 0.950 . S
C146 C145 1.345 . S
C146 C147 1.424 . S
C147 H139 0.951 . S
C147 C146 1.424 . S
C147 C148 1.347 . S
C148 H140 0.951 . S
C148 C143 1.429 . S
C148 C147 1.347 . S
H149 C150 0.951 . S
C150 H149 0.951 . S
C150 C156 1.265 . S
H151 C156 0.950 . S
H152 C160 0.949 . S
H153 C161 0.950 . S
H154 C162 0.951 . S
H155 C163 0.951 . S
C156 C150 1.265 . S
C156 H151 0.950 . S
C156 C157 1.478 . S
C157 C144 1.394 . S
C157 C156 1.478 . S
C157 C158 1.397 . S
C158 C157 1.397 . S
C158 C159 1.438 . S
C158 C163 1.429 . S
C159 C142 1.394 . S
C159 C158 1.438 . S
C159 C160 1.428 . S
C160 H152 0.949 . S
C160 C159 1.428 . S
C160 C161 1.345 . S
C161 H153 0.950 . S
C161 C160 1.345 . S
C161 C162 1.424 . S
C162 H154 0.951 . S
C162 C161 1.424 . S
C162 C163 1.347 . S
C163 H155 0.951 . S
C163 C158 1.429 . S
C163 C162 1.347 . S
H164 C165 0.951 . S
C165 H164 0.951 . S
C165 C171 1.265 . S
H166 C171 0.950 . S
H167 C175 0.949 . S
H168 C176 0.950 . S
H169 C177 0.951 . S
H170 C178 0.951 . S
C171 C165 1.265 . S
C171 H166 0.950 . S
C171 C172 1.478 . S
C172 C171 1.478 . S
C172 C173 1.397 1_565 S
C172 C189 1.394 . S
C173 C172 1.397 1_545 S
C173 C174 1.438 1_554 S
C173 C178 1.429 . S
C174 C173 1.438 1_556 S
C174 C175 1.428 . S
C174 C187 1.394 . S
C175 H167 0.949 . S
C175 C174 1.428 . S
C175 C176 1.345 1_556 S
C176 H168 0.950 . S
C176 C175 1.345 1_554 S
C176 C177 1.424 . S
C177 H169 0.951 . S
C177 C176 1.424 . S
C177 C178 1.347 . S
C178 H170 0.951 . S
C178 C173 1.429 . S
C178 C177 1.347 . S
H179 C180 0.951 . S
C180 H179 0.951 . S
C180 C186 1.265 . S
H181 C186 0.950 . S
H182 C190 0.949 . S
H183 C191 0.950 . S
H184 C192 0.951 . S
H185 C193 0.951 . S
C186 C180 1.265 . S
C186 H181 0.950 . S
C186 C187 1.478 . S
C187 C174 1.394 . S
C187 C186 1.478 . S
C187 C188 1.397 1_545 S
C188 C187 1.397 1_565 S
C188 C189 1.438 1_556 S
C188 C193 1.429 . S
C189 C172 1.394 . S
C189 C188 1.438 1_554 S
C189 C190 1.428 . S
C190 H182 0.949 . S
C190 C189 1.428 . S
C190 C191 1.345 1_554 S
C191 H183 0.950 . S
C191 C190 1.345 1_556 S
C191 C192 1.424 . S
C192 H184 0.951 . S
C192 C191 1.424 . S
C192 C193 1.347 . S
C193 H185 0.951 . S
C193 C188 1.429 . S
C193 C192 1.347 . S
H194 C195 0.951 . S
C195 H194 0.951 . S
C195 C201 1.265 . S
H196 C201 0.950 . S
H197 C205 0.949 . S
H198 C206 0.950 . S
H199 C207 0.951 . S
H200 C208 0.951 . S
C201 C195 1.265 . S
C201 H196 0.950 . S
C201 C202 1.478 . S
C202 C201 1.478 . S
C202 C203 1.397 1_655 S
C202 C219 1.394 1_545 S
C203 C202 1.397 1_455 S
C203 C204 1.438 . S
C203 C208 1.429 . S
C204 C203 1.438 . S
C204 C205 1.428 . S
C204 C217 1.394 1_545 S
C205 H197 0.949 . S
C205 C204 1.428 . S
C205 C206 1.345 . S
C206 H198 0.950 . S
C206 C205 1.345 . S
C206 C207 1.424 . S
C207 H199 0.951 . S
C207 C206 1.424 . S
C207 C208 1.347 . S
C208 H200 0.951 . S
C208 C203 1.429 . S
C208 C207 1.347 . S
H209 C210 0.951 . S
C210 H209 0.951 . S
C210 C216 1.265 . S
H211 C216 0.950 . S
H212 C220 0.949 . S
H213 C221 0.950 . S
H214 C222 0.951 . S
H215 C223 0.951 . S
C216 C210 1.265 . S
C216 H211 0.950 . S
C216 C217 1.478 . S
C217 C204 1.394 1_565 S
C217 C216 1.478 . S
C217 C218 1.397 1_455 S
C218 C217 1.397 1_655 S
C218 C219 1.438 . S
C218 C223 1.429 . S
C219 C202 1.394 1_565 S
C219 C218 1.438 . S
C219 C220 1.428 . S
C220 H212 0.949 . S
C220 C219 1.428 . S
C220 C221 1.345 . S
C221 H213 0.950 . S
C221 C220 1.345 . S
C221 C222 1.424 . S
C222 H214 0.951 . S
C222 C221 1.424 . S
C222 C223 1.347 . S
C223 H215 0.951 . S
C223 C218 1.429 . S
C223 C222 1.347 . S
H224 C225 0.951 . S
C225 H224 0.951 . S
C225 C231 1.265 . S
H226 C231 0.950 . S
H227 C235 0.949 . S
H228 C236 0.950 . S
H229 C237 0.951 . S
H230 C238 0.951 . S
C231 C225 1.265 . S
C231 H226 0.950 . S
C231 C232 1.478 . S
C232 C231 1.478 . S
C232 C233 1.397 . S
C232 C249 1.394 . S
C233 C232 1.397 . S
C233 C234 1.438 . S
C233 C238 1.429 . S
C234 C233 1.438 . S
C234 C235 1.428 . S
C234 C247 1.394 . S
C235 H227 0.949 . S
C235 C234 1.428 . S
C235 C236 1.345 . S
C236 H228 0.950 . S
C236 C235 1.345 . S
C236 C237 1.424 . S
C237 H229 0.951 . S
C237 C236 1.424 . S
C237 C238 1.347 . S
C238 H230 0.951 . S
C238 C233 1.429 . S
C238 C237 1.347 . S
H239 C240 0.951 . S
C240 H239 0.951 . S
C240 C246 1.265 . S
H241 C246 0.950 . S
H242 C250 0.949 . S
H243 C251 0.950 . S
H244 C252 0.951 . S
H245 C253 0.951 . S
C246 C240 1.265 . S
C246 H241 0.950 . S
C246 C247 1.478 . S
C247 C234 1.394 . S
C247 C246 1.478 . S
C247 C248 1.397 . S
C248 C247 1.397 . S
C248 C249 1.438 . S
C248 C253 1.429 . S
C249 C232 1.394 . S
C249 C248 1.438 . S
C249 C250 1.428 . S
C250 H242 0.949 . S
C250 C249 1.428 . S
C250 C251 1.345 . S
C251 H243 0.950 . S
C251 C250 1.345 . S
C251 C252 1.424 . S
C252 H244 0.951 . S
C252 C251 1.424 . S
C252 C253 1.347 . S
C253 H245 0.951 . S
C253 C248 1.429 . S
C253 C252 1.347 . S
H254 C255 0.951 . S
C255 H254 0.951 . S
C255 C261 1.265 . S
H256 C261 0.950 . S
H257 C265 0.949 . S
H258 C266 0.950 . S
H259 C267 0.951 . S
H260 C268 0.951 . S
C261 C255 1.265 . S
C261 H256 0.950 . S
C261 C262 1.478 . S
C262 C261 1.478 . S
C262 C263 1.397 . S
C262 C279 1.394 . S
C263 C262 1.397 . S
C263 C264 1.438 . S
C263 C268 1.429 . S
C264 C263 1.438 . S
C264 C265 1.428 . S
C264 C277 1.394 . S
C265 H257 0.949 . S
C265 C264 1.428 . S
C265 C266 1.345 . S
C266 H258 0.950 . S
C266 C265 1.345 . S
C266 C267 1.424 . S
C267 H259 0.951 . S
C267 C266 1.424 . S
C267 C268 1.347 . S
C268 H260 0.951 . S
C268 C263 1.429 . S
C268 C267 1.347 . S
H269 C270 0.951 . S
C270 H269 0.951 . S
C270 C276 1.265 . S
H271 C276 0.950 . S
H272 C280 0.949 . S
H273 C281 0.950 . S
H274 C282 0.951 . S
H275 C283 0.951 . S
C276 C270 1.265 . S
C276 H271 0.950 . S
C276 C277 1.478 . S
C277 C264 1.394 . S
C277 C276 1.478 . S
C277 C278 1.397 . S
C278 C277 1.397 . S
C278 C279 1.438 . S
C278 C283 1.429 . S
C279 C262 1.394 . S
C279 C278 1.438 . S
C279 C280 1.428 . S
C280 H272 0.949 . S
C280 C279 1.428 . S
C280 C281 1.345 . S
C281 H273 0.950 . S
C281 C280 1.345 . S
C281 C282 1.424 . S
C282 H274 0.951 . S
C282 C281 1.424 . S
C282 C283 1.347 . S
C283 H275 0.951 . S
C283 C278 1.429 . S
C283 C282 1.347 . S
H284 C285 0.951 . S
C285 H284 0.951 . S
C285 C291 1.265 . S
H286 C291 0.950 . S
H287 C295 0.949 . S
H288 C296 0.950 . S
H289 C297 0.951 . S
H290 C298 0.951 . S
C291 C285 1.265 . S
C291 H286 0.950 . S
C291 C292 1.478 . S
C292 C291 1.478 . S
C292 C293 1.397 . S
C292 C309 1.394 . S
C293 C292 1.397 . S
C293 C294 1.438 . S
C293 C298 1.429 . S
C294 C293 1.438 . S
C294 C295 1.428 . S
C294 C307 1.394 . S
C295 H287 0.949 . S
C295 C294 1.428 . S
C295 C296 1.345 . S
C296 H288 0.950 . S
C296 C295 1.345 . S
C296 C297 1.424 . S
C297 H289 0.951 . S
C297 C296 1.424 . S
C297 C298 1.347 . S
C298 H290 0.951 . S
C298 C293 1.429 . S
C298 C297 1.347 . S
H299 C300 0.951 . S
C300 H299 0.951 . S
C300 C306 1.265 . S
H301 C306 0.950 . S
H302 C310 0.949 . S
H303 C311 0.950 . S
H304 C312 0.951 . S
H305 C313 0.951 . S
C306 C300 1.265 . S
C306 H301 0.950 . S
C306 C307 1.478 . S
C307 C294 1.394 . S
C307 C306 1.478 . S
C307 C308 1.397 . S
C308 C307 1.397 . S
C308 C309 1.438 . S
C308 C313 1.429 . S
C309 C292 1.394 . S
C309 C308 1.438 . S
C309 C310 1.428 . S
C310 H302 0.949 . S
C310 C309 1.428 . S
C310 C311 1.345 . S
C311 H303 0.950 . S
C311 C310 1.345 . S
C311 C312 1.424 . S
C312 H304 0.951 . S
C312 C311 1.424 . S
C312 C313 1.347 . S
C313 H305 0.951 . S
C313 C308 1.429 . S
C313 C312 1.347 . S
H314 C315 0.951 . S
C315 H314 0.951 . S
C315 C321 1.265 . S
H316 C321 0.950 . S
H317 C325 0.949 . S
H318 C326 0.950 . S
H319 C327 0.951 . S
H320 C328 0.951 . S
C321 C315 1.265 . S
C321 H316 0.950 . S
C321 C322 1.478 . S
C322 C321 1.478 . S
C322 C323 1.397 . S
C322 C339 1.394 . S
C323 C322 1.397 . S
C323 C324 1.438 . S
C323 C328 1.429 . S
C324 C323 1.438 . S
C324 C325 1.428 . S
C324 C337 1.394 . S
C325 H317 0.949 . S
C325 C324 1.428 . S
C325 C326 1.345 . S
C326 H318 0.950 . S
C326 C325 1.345 . S
C326 C327 1.424 . S
C327 H319 0.951 . S
C327 C326 1.424 . S
C327 C328 1.347 . S
C328 H320 0.951 . S
C328 C323 1.429 . S
C328 C327 1.347 . S
H329 C330 0.951 . S
C330 H329 0.951 . S
C330 C336 1.265 . S
H331 C336 0.950 . S
H332 C340 0.949 . S
H333 C341 0.950 . S
H334 C342 0.951 . S
H335 C343 0.951 . S
C336 C330 1.265 . S
C336 H331 0.950 . S
C336 C337 1.478 . S
C337 C324 1.394 . S
C337 C336 1.478 . S
C337 C338 1.397 . S
C338 C337 1.397 . S
C338 C339 1.438 . S
C338 C343 1.429 . S
C339 C322 1.394 . S
C339 C338 1.438 . S
C339 C340 1.428 . S
C340 H332 0.949 . S
C340 C339 1.428 . S
C340 C341 1.345 . S
C341 H333 0.950 . S
C341 C340 1.345 . S
C341 C342 1.424 . S
C342 H334 0.951 . S
C342 C341 1.424 . S
C342 C343 1.347 . S
C343 H335 0.951 . S
C343 C338 1.429 . S
C343 C342 1.347 . S
H344 C345 0.951 . S
C345 H344 0.951 . S
C345 C351 1.265 . S
H346 C351 0.950 . S
H347 C355 0.949 . S
H348 C356 0.950 . S
H349 C357 0.951 . S
H350 C358 0.951 . S
C351 C345 1.265 . S
C351 H346 0.950 . S
C351 C352 1.478 . S
C352 C351 1.478 . S
C352 C353 1.397 . S
C352 C369 1.394 . S
C353 C352 1.397 . S
C353 C354 1.438 . S
C353 C358 1.429 . S
C354 C353 1.438 . S
C354 C355 1.428 . S
C354 C367 1.394 . S
C355 H347 0.949 . S
C355 C354 1.428 . S
C355 C356 1.345 . S
C356 H348 0.950 . S
C356 C355 1.345 . S
C356 C357 1.424 . S
C357 H349 0.951 . S
C357 C356 1.424 . S
C357 C358 1.347 . S
C358 H350 0.951 . S
C358 C353 1.429 . S
C358 C357 1.347 . S
H359 C360 0.951 . S
C360 H359 0.951 . S
C360 C366 1.265 . S
H361 C366 0.950 . S
H362 C370 0.949 . S
H363 C371 0.950 . S
H364 C372 0.951 . S
H365 C373 0.951 . S
C366 C360 1.265 . S
C366 H361 0.950 . S
C366 C367 1.478 . S
C367 C354 1.394 . S
C367 C366 1.478 . S
C367 C368 1.397 . S
C368 C367 1.397 . S
C368 C369 1.438 . S
C368 C373 1.429 . S
C369 C352 1.394 . S
C369 C368 1.438 . S
C369 C370 1.428 . S
C370 H362 0.949 . S
C370 C369 1.428 . S
C370 C371 1.345 . S
C371 H363 0.950 . S
C371 C370 1.345 . S
C371 C372 1.424 . S
C372 H364 0.951 . S
C372 C371 1.424 . S
C372 C373 1.347 . S
C373 H365 0.951 . S
C373 C368 1.429 . S
C373 C372 1.347 . S
H374 C375 0.951 . S
C375 H374 0.951 . S
C375 C381 1.265 . S
H376 C381 0.950 . S
H377 C385 0.949 . S
H378 C386 0.950 . S
H379 C387 0.951 . S
H380 C388 0.951 . S
C381 C375 1.265 . S
C381 H376 0.950 . S
C381 C382 1.478 . S
C382 C381 1.478 . S
C382 C383 1.397 . S
C382 C399 1.394 . S
C383 C382 1.397 . S
C383 C384 1.438 . S
C383 C388 1.429 . S
C384 C383 1.438 . S
C384 C385 1.428 . S
C384 C397 1.394 . S
C385 H377 0.949 . S
C385 C384 1.428 . S
C385 C386 1.345 . S
C386 H378 0.950 . S
C386 C385 1.345 . S
C386 C387 1.424 . S
C387 H379 0.951 . S
C387 C386 1.424 . S
C387 C388 1.347 . S
C388 H380 0.951 . S
C388 C383 1.429 . S
C388 C387 1.347 . S
H389 C390 0.951 . S
C390 H389 0.951 . S
C390 C396 1.265 . S
H391 C396 0.950 . S
H392 C400 0.949 . S
H393 C401 0.950 . S
H394 C402 0.951 . S
H395 C403 0.951 . S
C396 C390 1.265 . S
C396 H391 0.950 . S
C396 C397 1.478 . S
C397 C384 1.394 . S
C397 C396 1.478 . S
C397 C398 1.397 . S
C398 C397 1.397 . S
C398 C399 1.438 . S
C398 C403 1.429 . S
C399 C382 1.394 . S
C399 C398 1.438 . S
C399 C400 1.428 . S
C400 H392 0.949 . S
C400 C399 1.428 . S
C400 C401 1.345 . S
C401 H393 0.950 . S
C401 C400 1.345 . S
C401 C402 1.424 . S
C402 H394 0.951 . S
C402 C401 1.424 . S
C402 C403 1.347 . S
C403 H395 0.951 . S
C403 C398 1.429 . S
C403 C402 1.347 . S
H404 C405 0.951 . S
C405 H404 0.951 . S
C405 C411 1.265 . S
H406 C411 0.950 . S
H407 C415 0.949 . S
H408 C416 0.950 . S
H409 C417 0.951 . S
H410 C418 0.951 . S
C411 C405 1.265 . S
C411 H406 0.950 . S
C411 C412 1.478 . S
C412 C411 1.478 . S
C412 C413 1.397 . S
C412 C429 1.394 . S
C413 C412 1.397 . S
C413 C414 1.438 . S
C413 C418 1.429 . S
C414 C413 1.438 . S
C414 C415 1.428 . S
C414 C427 1.394 . S
C415 H407 0.949 . S
C415 C414 1.428 . S
C415 C416 1.345 . S
C416 H408 0.950 . S
C416 C415 1.345 . S
C416 C417 1.424 . S
C417 H409 0.951 . S
C417 C416 1.424 . S
C417 C418 1.347 . S
C418 H410 0.951 . S
C418 C413 1.429 . S
C418 C417 1.347 . S
H419 C420 0.951 1_545 S
C420 H419 0.951 1_565 S
C420 C426 1.265 . S
H421 C426 0.950 . S
H422 C430 0.949 . S
H423 C431 0.950 . S
H424 C432 0.951 . S
H425 C433 0.951 . S
C426 C420 1.265 . S
C426 H421 0.950 . S
C426 C427 1.478 . S
C427 C414 1.394 . S
C427 C426 1.478 . S
C427 C428 1.397 . S
C428 C427 1.397 . S
C428 C429 1.438 . S
C428 C433 1.429 . S
C429 C412 1.394 . S
C429 C428 1.438 . S
C429 C430 1.428 . S
C430 H422 0.949 . S
C430 C429 1.428 . S
C430 C431 1.345 . S
C431 H423 0.950 . S
C431 C430 1.345 . S
C431 C432 1.424 . S
C432 H424 0.951 . S
C432 C431 1.424 . S
C432 C433 1.347 . S
C433 H425 0.951 . S
C433 C428 1.429 . S
C433 C432 1.347 . S
H434 C435 0.951 . S
C435 H434 0.951 . S
C435 C441 1.265 . S
H436 C441 0.950 . S
H437 C445 0.949 . S
H438 C446 0.950 . S
H439 C447 0.951 . S
H440 C448 0.951 . S
C441 C435 1.265 . S
C441 H436 0.950 . S
C441 C442 1.478 . S
C442 C441 1.478 . S
C442 C443 1.397 . S
C442 C459 1.394 . S
C443 C442 1.397 . S
C443 C444 1.438 . S
C443 C448 1.429 . S
C444 C443 1.438 . S
C444 C445 1.428 . S
C444 C457 1.394 . S
C445 H437 0.949 . S
C445 C444 1.428 . S
C445 C446 1.345 . S
C446 H438 0.950 . S
C446 C445 1.345 . S
C446 C447 1.424 . S
C447 H439 0.951 . S
C447 C446 1.424 . S
C447 C448 1.347 . S
C448 H440 0.951 . S
C448 C443 1.429 . S
C448 C447 1.347 . S
H449 C450 0.951 . S
C450 H449 0.951 . S
C450 C456 1.265 . S
H451 C456 0.950 . S
H452 C460 0.949 . S
H453 C461 0.950 . S
H454 C462 0.951 . S
H455 C463 0.951 . S
C456 C450 1.265 . S
C456 H451 0.950 . S
C456 C457 1.478 . S
C457 C444 1.394 . S
C457 C456 1.478 . S
C457 C458 1.397 . S
C458 C457 1.397 . S
C458 C459 1.438 . S
C458 C463 1.429 . S
C459 C442 1.394 . S
C459 C458 1.438 . S
C459 C460 1.428 1_455 S
C460 H452 0.949 . S
C460 C459 1.428 1_655 S
C460 C461 1.345 . S
C461 H453 0.950 . S
C461 C460 1.345 . S
C461 C462 1.424 . S
C462 H454 0.951 . S
C462 C461 1.424 . S
C462 C463 1.347 1_655 S
C463 H455 0.951 . S
C463 C458 1.429 . S
C463 C462 1.347 1_455 S
H464 C465 0.951 . S
C465 H464 0.951 . S
C465 C471 1.265 . S
H466 C471 0.950 . S
H467 C475 0.949 . S
H468 C476 0.950 . S
H469 C477 0.951 . S
H470 C478 0.951 . S
C471 C465 1.265 . S
C471 H466 0.950 . S
C471 C472 1.478 . S
C472 C471 1.478 . S
C472 C473 1.397 . S
C472 C489 1.394 . S
C473 C472 1.397 . S
C473 C474 1.438 . S
C473 C478 1.429 . S
C474 C473 1.438 . S
C474 C475 1.428 . S
C474 C487 1.394 . S
C475 H467 0.949 . S
C475 C474 1.428 . S
C475 C476 1.345 . S
C476 H468 0.950 . S
C476 C475 1.345 . S
C476 C477 1.424 . S
C477 H469 0.951 . S
C477 C476 1.424 . S
C477 C478 1.347 . S
C478 H470 0.951 . S
C478 C473 1.429 . S
C478 C477 1.347 . S
H479 C480 0.951 . S
C480 H479 0.951 . S
C480 C486 1.265 . S
H481 C486 0.950 . S
H482 C490 0.949 . S
H483 C491 0.950 . S
H484 C492 0.951 . S
H485 C493 0.951 . S
C486 C480 1.265 . S
C486 H481 0.950 . S
C486 C487 1.478 . S
C487 C474 1.394 . S
C487 C486 1.478 . S
C487 C488 1.397 . S
C488 C487 1.397 . S
C488 C489 1.438 . S
C488 C493 1.429 . S
C489 C472 1.394 . S
C489 C488 1.438 . S
C489 C490 1.428 . S
C490 H482 0.949 . S
C490 C489 1.428 . S
C490 C491 1.345 . S
C491 H483 0.950 . S
C491 C490 1.345 . S
C491 C492 1.424 . S
C492 H484 0.951 . S
C492 C491 1.424 . S
C492 C493 1.347 . S
C493 H485 0.951 . S
C493 C488 1.429 . S
C493 C492 1.347 . S
H494 C495 0.951 . S
C495 H494 0.951 . S
C495 C501 1.265 . S
H496 C501 0.950 . S
H497 C505 0.949 . S
H498 C506 0.950 . S
H499 C507 0.951 . S
H500 C508 0.951 . S
C501 C495 1.265 . S
C501 H496 0.950 . S
C501 C502 1.478 . S
C502 C501 1.478 . S
C502 C503 1.397 . S
C502 C519 1.394 . S
C503 C502 1.397 . S
C503 C504 1.438 . S
C503 C508 1.429 . S
C504 C503 1.438 . S
C504 C505 1.428 . S
C504 C517 1.394 . S
C505 H497 0.949 . S
C505 C504 1.428 . S
C505 C506 1.345 . S
C506 H498 0.950 . S
C506 C505 1.345 . S
C506 C507 1.424 . S
C507 H499 0.951 . S
C507 C506 1.424 . S
C507 C508 1.347 . S
C508 H500 0.951 . S
C508 C503 1.429 . S
C508 C507 1.347 . S
H509 C510 0.951 . S
C510 H509 0.951 . S
C510 C516 1.265 . S
H511 C516 0.950 . S
H512 C520 0.949 . S
H513 C521 0.950 . S
H514 C522 0.951 . S
H515 C523 0.951 . S
C516 C510 1.265 . S
C516 H511 0.950 . S
C516 C517 1.478 . S
C517 C504 1.394 . S
C517 C516 1.478 . S
C517 C518 1.397 . S
C518 C517 1.397 . S
C518 C519 1.438 . S
C518 C523 1.429 . S
C519 C502 1.394 . S
C519 C518 1.438 . S
C519 C520 1.428 . S
C520 H512 0.949 . S
C520 C519 1.428 . S
C520 C521 1.345 . S
C521 H513 0.950 . S
C521 C520 1.345 . S
C521 C522 1.424 . S
C522 H514 0.951 . S
C522 C521 1.424 . S
C522 C523 1.347 . S
C523 H515 0.951 . S
C523 C518 1.429 . S
C523 C522 1.347 . S
H524 C525 0.951 . S
C525 H524 0.951 . S
C525 C531 1.265 . S
H526 C531 0.950 . S
H527 C535 0.949 . S
H528 C536 0.950 . S
H529 C537 0.951 . S
H530 C538 0.951 . S
C531 C525 1.265 . S
C531 H526 0.950 . S
C531 C532 1.478 . S
C532 C531 1.478 . S
C532 C533 1.397 . S
C532 C549 1.394 . S
C533 C532 1.397 . S
C533 C534 1.438 . S
C533 C538 1.429 . S
C534 C533 1.438 . S
C534 C535 1.428 . S
C534 C547 1.394 . S
C535 H527 0.949 . S
C535 C534 1.428 . S
C535 C536 1.345 . S
C536 H528 0.950 . S
C536 C535 1.345 . S
C536 C537 1.424 . S
C537 H529 0.951 . S
C537 C536 1.424 . S
C537 C538 1.347 . S
C538 H530 0.951 . S
C538 C533 1.429 . S
C538 C537 1.347 . S
H539 C540 0.951 . S
C540 H539 0.951 . S
C540 C546 1.265 . S
H541 C546 0.950 . S
H542 C550 0.949 . S
H543 C551 0.950 . S
H544 C552 0.951 . S
H545 C553 0.951 . S
C546 C540 1.265 . S
C546 H541 0.950 . S
C546 C547 1.478 . S
C547 C534 1.394 . S
C547 C546 1.478 . S
C547 C548 1.397 . S
C548 C547 1.397 . S
C548 C549 1.438 . S
C548 C553 1.429 1_545 S
C549 C532 1.394 . S
C549 C548 1.438 . S
C549 C550 1.428 . S
C550 H542 0.949 . S
C550 C549 1.428 . S
C550 C551 1.345 1_545 S
C551 H543 0.950 . S
C551 C550 1.345 1_565 S
C551 C552 1.424 . S
C552 H544 0.951 . S
C552 C551 1.424 . S
C552 C553 1.347 . S
C553 H545 0.951 . S
C553 C548 1.429 1_565 S
C553 C552 1.347 . S
H554 C555 0.936 1_455 S
C555 H554 0.936 1_655 S
C555 C561 1.283 . S
H556 C561 0.950 . S
H557 C565 0.949 . S
H558 C566 0.950 . S
H559 C567 0.951 . S
H560 C568 0.951 . S
C561 C555 1.283 . S
C561 H556 0.950 . S
C561 C562 1.478 . S
C562 C561 1.478 . S
C562 C563 1.397 . S
C562 C579 1.394 . S
C563 C562 1.397 . S
C563 C564 1.438 . S
C563 C568 1.429 . S
C564 C563 1.438 . S
C564 C565 1.428 . S
C564 C577 1.394 . S
C565 H557 0.949 . S
C565 C564 1.428 . S
C565 C566 1.345 . S
C566 H558 0.950 . S
C566 C565 1.345 . S
C566 C567 1.424 . S
C567 H559 0.951 . S
C567 C566 1.424 . S
C567 C568 1.347 . S
C568 H560 0.951 . S
C568 C563 1.429 . S
C568 C567 1.347 . S
H569 C570 0.951 . S
C570 H569 0.951 . S
C570 C576 1.265 . S
H571 C576 0.950 . S
H572 C580 0.949 1_455 S
H573 C581 0.950 . S
H574 C582 0.951 . S
H575 C583 0.951 . S
C576 C570 1.265 . S
C576 H571 0.950 . S
C576 C577 1.478 . S
C577 C564 1.394 . S
C577 C576 1.478 . S
C577 C578 1.397 . S
C578 C577 1.397 . S
C578 C579 1.438 . S
C578 C583 1.429 . S
C579 C562 1.394 . S
C579 C578 1.438 . S
C579 C580 1.428 . S
C580 H572 0.949 1_655 S
C580 C579 1.428 . S
C580 C581 1.345 1_655 S
C581 H573 0.950 . S
C581 C580 1.345 1_455 S
C581 C582 1.424 . S
C582 H574 0.951 . S
C582 C581 1.424 . S
C582 C583 1.347 1_455 S
C583 H575 0.951 . S
C583 C578 1.429 . S
C583 C582 1.347 1_655 S
C105 C55 1.804 . S
C120 C5 1.804 . S
C135 C18 1.852 . S
C150 C68 1.852 . S
C165 C31 1.779 . S
C180 C81 1.779 . S
C195 C94 1.764 . S
C210 C44 1.764 . S
C225 C3 1.934 . S
C240 C29 1.934 . S
C255 C16 1.934 . S
C270 C42 1.934 . S
C285 C83 1.940 . S
C300 C57 1.940 . S
C315 C70 1.940 . S
C330 C96 1.940 . S
C345 C66 1.477 . S
C360 C1 1.469 . S
C375 C14 1.471 . S
C390 C79 1.479 . S
C405 C27 1.483 . S
C420 C92 1.445 1_565 S
C435 C53 1.397 1_455 S
C450 C40 1.494 . S
C465 C62 1.472 . S
C480 C23 1.458 . S
C495 C75 1.495 . S
C510 C36 1.390 . S
C525 C88 1.471 . S
C540 C49 1.465 1_545 S
C555 C10 1.475 1_655 S
C570 C101 1.472 . S
