# Generated by pormake.
# Topology ukf, (4)-cn, num edge types: 1
# Building blocks:
#     Node 0, Type 0, BuildingBlock: UXUYUI_clean_sbu_0, # of connection points: 4
#     Node 1, Type 0, BuildingBlock: UXUYUI_clean_sbu_0, # of connection points: 4
#     Node 2, Type 0, BuildingBlock: UXUYUI_clean_sbu_0, # of connection points: 4
#     Node 3, Type 0, BuildingBlock: UXUYUI_clean_sbu_0, # of connection points: 4
#     Node 4, Type 0, BuildingBlock: UXUYUI_clean_sbu_0, # of connection points: 4
#     Node 5, Type 0, BuildingBlock: UXUYUI_clean_sbu_0, # of connection points: 4
#     Node 6, Type 0, BuildingBlock: UXUYUI_clean_sbu_0, # of connection points: 4
#     Node 7, Type 0, BuildingBlock: UXUYUI_clean_sbu_0, # of connection points: 4
#     Node 8, Type 0, BuildingBlock: UXUYUI_clean_sbu_0, # of connection points: 4
#     Node 9, Type 0, BuildingBlock: UXUYUI_clean_sbu_0, # of connection points: 4
#     Node 10, Type 0, BuildingBlock: UXUYUI_clean_sbu_0, # of connection points: 4
#     Node 11, Type 0, BuildingBlock: UXUYUI_clean_sbu_0, # of connection points: 4
#     Edge 12, Type (0, 0), None
#     Edge 13, Type (0, 0), None
#     Edge 14, Type (0, 0), None
#     Edge 15, Type (0, 0), None
#     Edge 16, Type (0, 0), None
#     Edge 17, Type (0, 0), None
#     Edge 18, Type (0, 0), None
#     Edge 19, Type (0, 0), None
#     Edge 20, Type (0, 0), None
#     Edge 21, Type (0, 0), None
#     Edge 22, Type (0, 0), None
#     Edge 23, Type (0, 0), None
#     Edge 24, Type (0, 0), None
#     Edge 25, Type (0, 0), None
#     Edge 26, Type (0, 0), None
#     Edge 27, Type (0, 0), None
#     Edge 28, Type (0, 0), None
#     Edge 29, Type (0, 0), None
#     Edge 30, Type (0, 0), None
#     Edge 31, Type (0, 0), None
#     Edge 32, Type (0, 0), None
#     Edge 33, Type (0, 0), None
#     Edge 34, Type (0, 0), None
#     Edge 35, Type (0, 0), None
# Relax obj value: 0.271
# Max RMSD: 0.213
# Mean RMSD: 0.213
data_MOF--net-ukf--node1-UXUYUI_clean_sbu_0--edge1-none
_symmetry_space_group_name_H-M    P1
_symmetry_Int_Tables_number       1
_symmetry_cell_setting            triclinic
loop_
_symmetry_equiv_pos_as_xyz
'x, y, z'
_cell_length_a     29.165834
_cell_length_b     29.165129
_cell_length_c     58.452157
_cell_angle_alpha  90.000018
_cell_angle_beta   89.999975
_cell_angle_gamma 120.00195
loop_
_atom_site_label
_atom_site_type_symbol
_atom_site_fract_x
_atom_site_fract_y
_atom_site_fract_z
_atom_type_partial_charge
Li0 Li 0.39915 0.2242 0.07498 0.0
Li1 Li 0.35576 0.19177 0.03689 0.0
Li2 Li 0.45211 0.23019 0.04076 0.0
Li3 Li 0.41395 0.28943 0.04248 0.0
C4 C 0.40826 0.12803 0.05729 0.0
N5 N 0.43763 0.05152 0.0593 0.0
C6 C 0.3832 0.08315 0.04334 0.0
C7 C 0.44795 0.13376 0.07238 0.0
C8 C 0.39869 0.04497 0.04458 0.0
C9 C 0.46233 0.09472 0.07311 0.0
C10 C 0.29338 0.21918 0.06125 0.0
C11 C 0.21151 0.21057 0.0475 0.0
N12 N 0.18504 0.17582 0.06469 0.0
C13 C 0.26552 0.18382 0.07892 0.0
C14 C 0.26634 0.2331 0.04553 0.0
C15 C 0.21069 0.16215 0.08031 0.0
C16 C 0.40858 0.25622 0.1211 0.0
N17 N 0.39343 0.21384 0.10711 0.0
C18 C 0.37404 0.15636 0.13924 0.0
C19 C 0.37593 0.16447 0.11563 0.0
C20 C 0.39016 0.19948 0.15419 0.0
C21 C 0.40724 0.24991 0.14483 0.0
H22 H 0.42256 0.29506 0.11378 0.0
H23 H 0.36379 0.13144 0.10406 0.0
C24 C 0.3003 0.12244 0.99998 0.0
N25 N 0.29683 0.13154 0.02256 0.0
C26 C 0.26724 0.07239 0.99052 0.0
C27 C 0.22581 0.04233 0.02742 0.0
C28 C 0.2598 0.09294 0.03619 0.0
C29 C 0.23045 0.03084 0.00444 0.0
H30 H 0.33151 0.15259 0.98966 0.0
H31 H 0.25933 0.10001 0.0543 0.0
C32 C 0.5122 0.31543 0.07443 0.0
N33 N 0.60739 0.37695 0.0967 0.0
C34 C 0.54522 0.3682 0.06799 0.0
C35 C 0.52754 0.29405 0.09225 0.0
C36 C 0.59321 0.39862 0.07943 0.0
C37 C 0.57581 0.32577 0.10328 0.0
C38 C 0.41062 0.2603 0.99537 0.0
C39 C 0.45242 0.27418 0.98011 0.0
C40 C 0.36655 0.26375 0.98852 0.0
C41 C 0.44949 0.29158 0.95817 0.0
C42 C 0.36511 0.28129 0.96644 0.0
N43 N 0.40627 0.29475 0.95185 0.0
C44 C 0.50038 0.18381 0.01565 0.0
C45 C 0.56036 0.26851 0.03074 0.0
C46 C 0.54156 0.18151 0.0046 0.0
N47 N 0.5105 0.2266 0.02861 0.0
C48 C 0.60258 0.26828 0.0197 0.0
C49 C 0.59325 0.22447 0.00637 0.0
H50 H 0.46012 0.15221 0.01327 0.0
H51 H 0.56735 0.30288 0.04038 0.0
C52 C 0.43344 0.39004 0.05601 0.0
N53 N 0.43568 0.36289 0.03753 0.0
C54 C 0.45976 0.44545 0.05581 0.0
C55 C 0.48859 0.4442 0.01723 0.0
C56 C 0.46215 0.38881 0.01825 0.0
C57 C 0.48878 0.4734 0.0364 0.0
H58 H 0.41352 0.3687 0.07139 0.0
H59 H 0.46544 0.36697 0.00407 0.0
O60 O 0.39391 0.16605 0.0562 0.0
O61 O 0.34699 0.24063 0.05956 0.0
O62 O 0.46486 0.28519 0.06351 0.0
O63 O 0.41308 0.24353 0.01692 0.0
H64 H 0.3525 0.07801 0.03151 0.0
H65 H 0.46758 0.16805 0.08334 0.0
H66 H 0.37982 0.0102 0.0338 0.0
H67 H 0.49314 0.09877 0.08465 0.0
H68 H 0.19001 0.22082 0.0354 0.0
H69 H 0.28594 0.17287 0.0913 0.0
H70 H 0.2875 0.26116 0.03201 0.0
H71 H 0.18853 0.13443 0.0938 0.0
H72 H 0.35991 0.11672 0.1457 0.0
H73 H 0.42064 0.28436 0.15569 0.0
H74 H 0.27341 0.06547 0.97288 0.0
H75 H 0.19808 0.01181 0.03884 0.0
H76 H 0.53424 0.38542 0.05417 0.0
H77 H 0.50236 0.25354 0.09764 0.0
H78 H 0.6192 0.43944 0.07457 0.0
H79 H 0.58813 0.30972 0.11712 0.0
H80 H 0.48682 0.27171 0.9852 0.0
H81 H 0.3338 0.25278 0.00011 0.0
H82 H 0.48158 0.30258 0.94618 0.0
H83 H 0.33125 0.28417 0.96089 0.0
H84 H 0.53289 0.14747 0.99412 0.0
H85 H 0.64205 0.30215 0.02141 0.0
H86 H 0.45822 0.46622 0.07089 0.0
H87 H 0.51085 0.46399 0.002 0.0
Li88 Li 0.12745 0.41245 0.37581 0.0
Li89 Li 0.22485 0.45063 0.3741 0.0
Li90 Li 0.16694 0.35428 0.37022 0.0
Li91 Li 0.17787 0.39765 0.40832 0.0
C92 C 0.15326 0.40912 0.3287 0.0
N93 N 0.11445 0.40474 0.28518 0.0
C94 C 0.18118 0.45092 0.31343 0.0
C95 C 0.10574 0.36505 0.32186 0.0
C96 C 0.16085 0.44797 0.2915 0.0
C97 C 0.08675 0.36359 0.29977 0.0
C98 C 0.19968 0.5107 0.40777 0.0
C99 C 0.25294 0.5743 0.43663 0.0
N100 N 0.23333 0.60587 0.43004 0.0
C101 C 0.17993 0.54372 0.40133 0.0
C102 C 0.23639 0.52603 0.42559 0.0
C103 C 0.19749 0.5917 0.41278 0.0
C104 C 0.04633 0.43195 0.38934 0.0
N105 N 0.07572 0.43418 0.37086 0.0
C106 C 0.04734 0.48711 0.35056 0.0
C107 C 0.07628 0.46066 0.35157 0.0
C108 C 0.01833 0.4873 0.36972 0.0
C109 C 0.01725 0.45828 0.38914 0.0
H110 H 0.04775 0.41203 0.40471 0.0
H111 H 0.1014 0.46394 0.3374 0.0
C112 C 0.31942 0.49888 0.34894 0.0
N113 N 0.28684 0.50902 0.36195 0.0
C114 C 0.36291 0.54006 0.33789 0.0
C115 C 0.33733 0.60112 0.35309 0.0
C116 C 0.29487 0.55891 0.36413 0.0
C117 C 0.37172 0.59177 0.33972 0.0
H118 H 0.31069 0.4586 0.34654 0.0
H119 H 0.26756 0.56592 0.37381 0.0
C120 C 0.07713 0.29188 0.39457 0.0
N121 N 0.01216 0.18354 0.39802 0.0
C122 C 0.08463 0.26402 0.41224 0.0
C123 C 0.03617 0.26484 0.37885 0.0
C124 C 0.05148 0.20919 0.41364 0.0
C125 C 1.00386 0.21 0.38083 0.0
C126 C 0.28318 0.40683 0.39061 0.0
C127 C 0.30302 0.38181 0.37664 0.0
C128 C 0.31713 0.44651 0.4057 0.0
C129 C 0.35669 0.39734 0.37786 0.0
C130 C 0.37056 0.46093 0.40641 0.0
N131 N 0.38908 0.43628 0.39259 0.0
C132 C 0.18081 0.29881 0.33331 0.0
C133 C 0.16983 0.25834 0.36953 0.0
C134 C 0.19779 0.26575 0.32385 0.0
N135 N 0.16824 0.29535 0.35589 0.0
C136 C 0.18645 0.22435 0.36075 0.0
C137 C 0.20257 0.22898 0.33778 0.0
H138 H 0.18186 0.33002 0.32298 0.0
H139 H 0.16229 0.25787 0.38763 0.0
C140 C 0.15527 0.40707 0.45443 0.0
N141 N 0.18251 0.39193 0.44044 0.0
C142 C 0.16025 0.40573 0.47816 0.0
C143 C 0.2206 0.37254 0.47256 0.0
C144 C 0.21438 0.37443 0.44896 0.0
C145 C 0.1936 0.38866 0.48752 0.0
H146 H 0.13041 0.42105 0.44711 0.0
H147 H 0.23528 0.3623 0.43739 0.0
O148 O 0.17249 0.4116 0.35025 0.0
O149 O 0.18259 0.46337 0.39685 0.0
O150 O 0.10928 0.34549 0.39289 0.0
O151 O 0.2308 0.39243 0.38953 0.0
H152 H 0.21805 0.48532 0.31852 0.0
H153 H 0.08396 0.3323 0.33345 0.0
H154 H 0.18194 0.48005 0.2795 0.0
H155 H 0.05002 0.32972 0.29423 0.0
H156 H 0.2813 0.58661 0.45047 0.0
H157 H 0.15174 0.53274 0.38751 0.0
H158 H 0.25171 0.50085 0.43098 0.0
H159 H 0.18266 0.61769 0.40791 0.0
H160 H 0.04981 0.50936 0.33532 0.0
H161 H 0.99494 0.45674 0.40422 0.0
H162 H 0.38821 0.53137 0.32738 0.0
H163 H 0.343 0.64061 0.35484 0.0
H164 H 0.11602 0.28444 0.42462 0.0
H165 H 0.02926 0.28599 0.36534 0.0
H166 H 0.05705 0.18703 0.42712 0.0
H167 H 0.97211 0.1885 0.36873 0.0
H168 H 0.27746 0.35111 0.36481 0.0
H169 H 0.30246 0.4661 0.41668 0.0
H170 H 0.37261 0.37851 0.36707 0.0
H171 H 0.39731 0.49174 0.41796 0.0
H172 H 0.21088 0.27192 0.30621 0.0
H173 H 0.18924 0.19662 0.37217 0.0
H174 H 0.1392 0.41912 0.48902 0.0
H175 H 0.24612 0.35842 0.47903 0.0
Li176 Li 0.7772 0.2234 0.70742 0.0
Li177 Li 0.71796 0.12599 0.70914 0.0
Li178 Li 0.78318 0.17641 0.74164 0.0
Li179 Li 0.81562 0.16546 0.70355 0.0
C180 C 0.69196 0.19825 0.74109 0.0
N181 N 0.63044 0.23191 0.76335 0.0
C182 C 0.63919 0.17849 0.73465 0.0
C183 C 0.71334 0.23497 0.75891 0.0
C184 C 0.60877 0.19606 0.74609 0.0
C185 C 0.68163 0.25153 0.76994 0.0
C186 C 0.74709 0.15179 0.66203 0.0
C187 C 0.7261 0.0853 0.6331 0.0
N188 N 0.71264 0.113 0.61851 0.0
C189 C 0.73321 0.17972 0.64677 0.0
C190 C 0.74364 0.10428 0.65518 0.0
C191 C 0.71581 0.1594 0.62483 0.0
C192 C 0.8236 0.31808 0.68232 0.0
N193 N 0.78079 0.28538 0.69527 0.0
C194 C 0.73908 0.33574 0.68635 0.0
C195 C 0.73885 0.29329 0.69738 0.0
C196 C 0.78291 0.37026 0.67304 0.0
C197 C 0.82589 0.36157 0.67128 0.0
H198 H 0.85522 0.30945 0.67996 0.0
H199 H 0.70447 0.26588 0.70701 0.0
C200 C 0.61735 0.04487 0.72267 0.0
N201 N 0.6445 0.07426 0.70419 0.0
C202 C 0.56193 0.01578 0.72247 0.0
C203 C 0.56319 0.04587 0.68389 0.0
C204 C 0.61858 0.07482 0.6849 0.0
C205 C 0.53398 0.01686 0.70305 0.0
H206 H 0.63868 0.04629 0.73804 0.0
H207 H 0.64042 0.09994 0.67073 0.0
C208 C 0.87936 0.2817 0.72396 0.0
N209 N 0.95589 0.38758 0.72598 0.0
C210 C 0.92425 0.30153 0.71001 0.0
C211 C 0.87363 0.31566 0.73905 0.0
C212 C 0.96244 0.35519 0.71126 0.0
C213 C 0.91269 0.36907 0.73978 0.0
C214 C 0.7882 0.07567 0.72791 0.0
C215 C 0.82355 0.08315 0.74558 0.0
C216 C 0.77427 0.03471 0.71218 0.0
C217 C 0.84522 0.05 0.74697 0.0
C218 C 0.7968 1.0024 0.71415 0.0
N219 N 0.83155 0.01069 0.73135 0.0
C220 C 0.75116 0.15384 0.78776 0.0
C221 C 0.84291 0.21291 0.78229 0.0
C222 C 0.75747 0.15881 0.81149 0.0
N223 N 0.79354 0.18106 0.77377 0.0
C224 C 0.85103 0.21913 0.80589 0.0
C225 C 0.8079 0.19215 0.82085 0.0
H226 H 0.71232 0.129 0.78044 0.0
H227 H 0.87595 0.23379 0.77072 0.0
C228 C 0.88495 0.17933 0.66664 0.0
N229 N 0.87585 0.16676 0.68922 0.0
C230 C 0.93499 0.19632 0.65718 0.0
C231 C 0.96505 0.18495 0.69408 0.0
C232 C 0.91444 0.16833 0.70286 0.0
C233 C 0.97654 0.20108 0.67111 0.0
H234 H 0.8548 0.1804 0.65632 0.0
H235 H 0.90737 0.16079 0.72096 0.0
O236 O 0.7222 0.18115 0.73017 0.0
O237 O 0.76386 0.17102 0.68358 0.0
O238 O 0.84133 0.22933 0.72285 0.0
O239 O 0.76675 0.10782 0.72622 0.0
H240 H 0.62197 0.15029 0.72083 0.0
H241 H 0.75385 0.2503 0.76429 0.0
H242 H 0.56795 0.18123 0.74123 0.0
H243 H 0.69768 0.2799 0.78377 0.0
H244 H 0.72322 0.04857 0.62754 0.0
H245 H 0.73569 0.21659 0.65186 0.0
H246 H 0.75461 0.08249 0.66677 0.0
H247 H 0.70482 0.18049 0.61284 0.0
H248 H 0.7052 0.34132 0.68805 0.0
H249 H 0.85995 0.38696 0.66081 0.0
H250 H 0.54116 0.99348 0.73755 0.0
H251 H 0.54341 0.04834 0.66865 0.0
H252 H 0.92939 0.27596 0.69818 0.0
H253 H 0.83934 0.30099 0.75001 0.0
H254 H 0.99722 0.37109 0.70048 0.0
H255 H 0.90864 0.39583 0.75133 0.0
H256 H 0.83451 0.11453 0.75796 0.0
H257 H 0.74622 0.02781 0.69866 0.0
H258 H 0.87293 0.05555 0.76046 0.0
H259 H 0.78655 0.97065 0.70205 0.0
H260 H 0.72302 0.13777 0.82235 0.0
H261 H 0.89067 0.24463 0.81236 0.0
H262 H 0.94192 0.20942 0.63954 0.0
H263 H 0.99557 0.18773 0.7055 0.0
Li264 Li 0.6531 0.81415 0.03689 0.0
Li265 Li 0.60971 0.78171 0.07499 0.0
Li266 Li 0.59491 0.71648 0.04248 0.0
Li267 Li 0.55674 0.77572 0.04076 0.0
C268 C 0.71548 0.78674 0.06125 0.0
N269 N 0.82382 0.8301 0.06469 0.0
C270 C 0.74335 0.8221 0.07892 0.0
C271 C 0.74252 0.77281 0.04552 0.0
C272 C 0.79817 0.84377 0.08031 0.0
C273 C 0.79735 0.79535 0.0475 0.0
C274 C 0.60058 0.87787 0.05729 0.0
C275 C 0.54651 0.91117 0.0731 0.0
N276 N 0.5712 0.95437 0.05929 0.0
C277 C 0.62563 0.92275 0.04333 0.0
C278 C 0.56089 0.87214 0.07237 0.0
C279 C 0.61013 0.96092 0.04457 0.0
C280 C 0.70856 0.88347 0.99998 0.0
N281 N 0.71203 0.87437 0.02256 0.0
C282 C 0.78304 0.96358 0.02742 0.0
C283 C 0.74905 0.91297 0.03619 0.0
C284 C 0.7784 0.97507 0.00444 0.0
C285 C 0.74162 0.93352 0.99052 0.0
H286 H 0.67735 0.85332 0.98965 0.0
H287 H 0.74952 0.90591 0.0543 0.0
C288 C 0.60029 0.74969 0.1211 0.0
N289 N 0.61543 0.79207 0.10711 0.0
C290 C 0.60162 0.756 0.14483 0.0
C291 C 0.63483 0.84955 0.13924 0.0
C292 C 0.63293 0.84144 0.11563 0.0
C293 C 0.6187 0.80643 0.15419 0.0
H294 H 0.5863 0.71085 0.11378 0.0
H295 H 0.64507 0.87447 0.10406 0.0
C296 C 0.59824 0.74561 0.99537 0.0
N297 N 0.60259 0.71116 0.95185 0.0
C298 C 0.55644 0.73173 0.98011 0.0
C299 C 0.6423 0.74216 0.98853 0.0
C300 C 0.55937 0.71434 0.95817 0.0
C301 C 0.64375 0.72462 0.96644 0.0
C302 C 0.49666 0.69048 0.07443 0.0
C303 C 0.46364 0.6377 0.06799 0.0
C304 C 0.48132 0.71186 0.09225 0.0
C305 C 0.41565 0.60729 0.07943 0.0
C306 C 0.43305 0.68014 0.10329 0.0
N307 N 0.40148 0.62895 0.0967 0.0
C308 C 0.57542 0.61587 0.05601 0.0
C309 C 0.54671 0.6171 0.01825 0.0
C310 C 0.5491 0.56046 0.05581 0.0
N311 N 0.57318 0.64302 0.03753 0.0
C312 C 0.52027 0.56171 0.01723 0.0
C313 C 0.52008 0.53251 0.0364 0.0
H314 H 0.59534 0.63721 0.07139 0.0
H315 H 0.54343 0.63894 0.00407 0.0
C316 C 0.50849 0.82208 0.01564 0.0
N317 N 0.49836 0.77931 0.02861 0.0
C318 C 0.4673 0.82438 0.00459 0.0
C319 C 0.40628 0.73765 0.01972 0.0
C320 C 0.44849 0.73741 0.03075 0.0
C321 C 0.41561 0.78144 0.00638 0.0
H322 H 0.54875 0.85367 0.01326 0.0
H323 H 0.44149 0.70305 0.0404 0.0
O324 O 0.66188 0.76528 0.05956 0.0
O325 O 0.61494 0.83986 0.0562 0.0
O326 O 0.59578 0.76238 0.01692 0.0
O327 O 0.544 0.72072 0.06352 0.0
H328 H 0.72292 0.83305 0.09129 0.0
H329 H 0.72136 0.74475 0.03201 0.0
H330 H 0.82033 0.87149 0.0938 0.0
H331 H 0.81886 0.7851 0.0354 0.0
H332 H 0.5157 0.90712 0.08464 0.0
H333 H 0.65634 0.92789 0.03151 0.0
H334 H 0.54128 0.83786 0.08335 0.0
H335 H 0.629 0.99569 0.03378 0.0
H336 H 0.81077 0.99411 0.03884 0.0
H337 H 0.73545 0.94044 0.97288 0.0
H338 H 0.58823 0.72155 0.15569 0.0
H339 H 0.64895 0.88919 0.1457 0.0
H340 H 0.52204 0.73421 0.9852 0.0
H341 H 0.67506 0.75313 0.00011 0.0
H342 H 0.52728 0.70334 0.94618 0.0
H343 H 0.67761 0.72175 0.96089 0.0
H344 H 0.47462 0.62049 0.05417 0.0
H345 H 0.5065 0.75236 0.09764 0.0
H346 H 0.38966 0.56646 0.07457 0.0
H347 H 0.42073 0.69619 0.11712 0.0
H348 H 0.55064 0.53969 0.07089 0.0
H349 H 0.49802 0.54193 0.00199 0.0
H350 H 0.47598 0.85842 0.9941 0.0
H351 H 0.3668 0.70379 0.02144 0.0
Li352 Li 0.84192 0.65163 0.37022 0.0
Li353 Li 0.831 0.60826 0.40832 0.0
Li354 Li 0.88141 0.59346 0.37581 0.0
Li355 Li 0.78401 0.55528 0.3741 0.0
C356 C 0.93173 0.71404 0.39457 0.0
N357 N 0.99669 0.82238 0.39801 0.0
C358 C 0.92423 0.7419 0.41224 0.0
C359 C 0.97269 0.74108 0.37885 0.0
C360 C 0.95737 0.79672 0.41363 0.0
C361 C 0.00499 0.79591 0.38082 0.0
C362 C 0.72568 0.59907 0.39061 0.0
C363 C 0.63829 0.54496 0.40641 0.0
N364 N 0.61977 0.56961 0.39258 0.0
C365 C 0.70584 0.62408 0.37664 0.0
C366 C 0.69173 0.55939 0.4057 0.0
C367 C 0.65216 0.60854 0.37785 0.0
C368 C 0.82805 0.7071 0.33331 0.0
N369 N 0.84061 0.71056 0.35589 0.0
C370 C 0.8224 0.78155 0.36075 0.0
C371 C 0.83902 0.74757 0.36953 0.0
C372 C 0.80628 0.77693 0.33778 0.0
C373 C 0.81106 0.74015 0.32385 0.0
H374 H 0.827 0.6759 0.32298 0.0
H375 H 0.84656 0.74803 0.38763 0.0
C376 C 0.85359 0.59885 0.45443 0.0
N377 N 0.82635 0.61399 0.44044 0.0
C378 C 0.84861 0.60018 0.47816 0.0
C379 C 0.78826 0.63338 0.47256 0.0
C380 C 0.79448 0.63148 0.44895 0.0
C381 C 0.81526 0.61726 0.48752 0.0
H382 H 0.87845 0.58487 0.44711 0.0
H383 H 0.77359 0.64361 0.43739 0.0
C384 C 0.85561 0.59679 0.3287 0.0
N385 N 0.89441 0.60117 0.28518 0.0
C386 C 0.82769 0.55499 0.31343 0.0
C387 C 0.90312 0.64086 0.32186 0.0
C388 C 0.84801 0.55794 0.2915 0.0
C389 C 0.9221 0.64232 0.29977 0.0
C390 C 0.80919 0.49522 0.40777 0.0
C391 C 0.82894 0.46219 0.40133 0.0
C392 C 0.77248 0.47988 0.4256 0.0
C393 C 0.81137 0.41421 0.41277 0.0
C394 C 0.75594 0.43161 0.43663 0.0
N395 N 0.77554 0.40004 0.43004 0.0
C396 C 0.96253 0.57396 0.38934 0.0
C397 C 0.93259 0.54526 0.35157 0.0
C398 C 0.99161 0.54763 0.38914 0.0
N399 N 0.93315 0.57173 0.37086 0.0
C400 C 0.96153 0.51881 0.35056 0.0
C401 C 0.99053 0.51861 0.36972 0.0
H402 H 0.96111 0.59388 0.40471 0.0
H403 H 0.90747 0.54198 0.33739 0.0
C404 C 0.68946 0.50704 0.34893 0.0
N405 N 0.72203 0.49689 0.36195 0.0
C406 C 0.64597 0.46586 0.33788 0.0
C407 C 0.67152 0.40478 0.3531 0.0
C408 C 0.71398 0.447 0.36414 0.0
C409 C 0.63714 0.41414 0.33972 0.0
H410 H 0.6982 0.54732 0.34652 0.0
H411 H 0.74127 0.43998 0.37383 0.0
O412 O 0.89958 0.66043 0.39289 0.0
O413 O 0.77807 0.61348 0.38953 0.0
O414 O 0.83638 0.59431 0.35025 0.0
O415 O 0.82627 0.54255 0.39685 0.0
H416 H 0.89284 0.72147 0.42462 0.0
H417 H 0.9796 0.71992 0.36534 0.0
H418 H 0.95181 0.81888 0.42712 0.0
H419 H 0.03675 0.81742 0.36873 0.0
H420 H 0.61155 0.51416 0.41796 0.0
H421 H 0.7314 0.65478 0.36481 0.0
H422 H 0.70641 0.53981 0.41668 0.0
H423 H 0.63624 0.62737 0.36706 0.0
H424 H 0.81961 0.80928 0.37217 0.0
H425 H 0.79798 0.73399 0.30621 0.0
H426 H 0.86966 0.58679 0.48902 0.0
H427 H 0.76274 0.6475 0.47903 0.0
H428 H 0.79082 0.52059 0.31852 0.0
H429 H 0.9249 0.67361 0.33345 0.0
H430 H 0.82692 0.52585 0.2795 0.0
H431 H 0.95883 0.67619 0.29422 0.0
H432 H 0.85713 0.47317 0.3875 0.0
H433 H 0.75716 0.50506 0.43098 0.0
H434 H 0.8262 0.38822 0.40791 0.0
H435 H 0.72758 0.4193 0.45047 0.0
H436 H 0.01391 0.54917 0.40422 0.0
H437 H 0.95906 0.49656 0.33532 0.0
H438 H 0.62068 0.47455 0.32736 0.0
H439 H 0.66583 0.36529 0.35486 0.0
Li440 Li 0.19325 0.84045 0.70355 0.0
Li441 Li 0.22569 0.8295 0.74164 0.0
Li442 Li 0.29091 0.87993 0.70914 0.0
Li443 Li 0.23167 0.78252 0.70742 0.0
C444 C 0.22066 0.93025 0.7279 0.0
N445 N 0.1773 0.99522 0.73134 0.0
C446 C 0.18531 0.92276 0.74557 0.0
C447 C 0.23458 0.97121 0.71218 0.0
C448 C 0.16364 0.95591 0.74697 0.0
C449 C 0.21205 0.00351 0.71415 0.0
C450 C 0.12952 0.72421 0.72395 0.0
C451 C 0.0962 0.63683 0.73977 0.0
N452 N 0.05301 0.61832 0.72596 0.0
C453 C 0.08463 0.70438 0.71 0.0
C454 C 0.13525 0.69025 0.73904 0.0
C455 C 0.04646 0.65071 0.71124 0.0
C456 C 0.12391 0.82657 0.66664 0.0
N457 N 0.13302 0.83915 0.68922 0.0
C458 C 0.04381 0.82095 0.69408 0.0
C459 C 0.09442 0.83757 0.70286 0.0
C460 C 0.03232 0.80482 0.67111 0.0
C461 C 0.07387 0.80958 0.65718 0.0
H462 H 0.15406 0.82552 0.65632 0.0
H463 H 0.10149 0.84511 0.72096 0.0
C464 C 0.2577 0.85209 0.78776 0.0
N465 N 0.21532 0.82486 0.77377 0.0
C466 C 0.2514 0.84712 0.81149 0.0
C467 C 0.15784 0.78678 0.8059 0.0
C468 C 0.16595 0.793 0.78229 0.0
C469 C 0.20096 0.81377 0.82085 0.0
H470 H 0.29654 0.87694 0.78044 0.0
H471 H 0.13292 0.77211 0.77072 0.0
C472 C 0.26177 0.85412 0.66203 0.0
N473 N 0.29622 0.89291 0.61851 0.0
C474 C 0.27565 0.82619 0.64677 0.0
C475 C 0.26522 0.90163 0.65518 0.0
C476 C 0.29304 0.84652 0.62483 0.0
C477 C 0.28276 0.92061 0.6331 0.0
C478 C 0.31691 0.80768 0.74109 0.0
C479 C 0.36968 0.82743 0.73465 0.0
C480 C 0.29553 0.77096 0.75891 0.0
C481 C 0.4001 0.80986 0.74609 0.0
C482 C 0.32725 0.75441 0.76995 0.0
N483 N 0.37843 0.77402 0.76336 0.0
C484 C 0.39152 0.96104 0.72267 0.0
C485 C 0.39029 0.9311 0.6849 0.0
C486 C 0.44693 0.99013 0.72247 0.0
N487 N 0.36437 0.93166 0.70419 0.0
C488 C 0.44567 0.96005 0.68389 0.0
C489 C 0.47488 0.98906 0.70305 0.0
H490 H 0.37018 0.95963 0.73804 0.0
H491 H 0.36844 0.90598 0.67072 0.0
C492 C 0.18529 0.68787 0.68231 0.0
N493 N 0.22808 0.72054 0.69527 0.0
C494 C 0.18299 0.64438 0.67126 0.0
C495 C 0.26975 0.67013 0.68637 0.0
C496 C 0.26999 0.71259 0.69741 0.0
C497 C 0.22595 0.63565 0.67304 0.0
H498 H 0.15369 0.69653 0.67993 0.0
H499 H 0.30435 0.73997 0.70705 0.0
O500 O 0.24212 0.8981 0.72622 0.0
O501 O 0.16754 0.77658 0.72286 0.0
O502 O 0.24501 0.8349 0.68358 0.0
O503 O 0.28667 0.82477 0.73017 0.0
H504 H 0.17435 0.89138 0.75795 0.0
H505 H 0.26264 0.97811 0.69866 0.0
H506 H 0.13592 0.95035 0.76046 0.0
H507 H 0.2223 0.03526 0.70205 0.0
H508 H 0.10026 0.61008 0.75132 0.0
H509 H 0.0795 0.72994 0.69817 0.0
H510 H 0.16953 0.70492 0.75001 0.0
H511 H 0.01169 0.6348 0.70046 0.0
H512 H 0.01329 0.81816 0.7055 0.0
H513 H 0.06695 0.79649 0.63954 0.0
H514 H 0.28585 0.86816 0.82235 0.0
H515 H 0.1182 0.76127 0.81236 0.0
H516 H 0.27318 0.78932 0.65186 0.0
H517 H 0.25425 0.92342 0.66677 0.0
H518 H 0.30404 0.82542 0.61284 0.0
H519 H 0.28563 0.95734 0.62754 0.0
H520 H 0.3869 0.85563 0.72083 0.0
H521 H 0.25502 0.75563 0.7643 0.0
H522 H 0.44092 0.8247 0.74123 0.0
H523 H 0.3112 0.72604 0.78378 0.0
H524 H 0.4677 0.01244 0.73755 0.0
H525 H 0.46546 0.95758 0.66865 0.0
H526 H 0.14896 0.61902 0.66078 0.0
H527 H 0.30362 0.66453 0.68809 0.0
Li528 Li 0.78317 0.60825 0.5919 0.0
Li529 Li 0.81561 0.65163 0.63 0.0
Li530 Li 0.77718 0.55528 0.62612 0.0
Li531 Li 0.71795 0.59345 0.62441 0.0
C532 C 0.87931 0.59909 0.60961 0.0
N533 N 0.95577 0.56965 0.60762 0.0
C534 C 0.92417 0.62411 0.62357 0.0
C535 C 0.87358 0.5594 0.59452 0.0
C536 C 0.96232 0.60859 0.62235 0.0
C537 C 0.9126 0.54499 0.5938 0.0
C538 C 0.78821 0.71403 0.60565 0.0
C539 C 0.79681 0.7959 0.6194 0.0
N540 N 0.83157 0.82236 0.60221 0.0
C541 C 0.82357 0.74189 0.58798 0.0
C542 C 0.77428 0.74106 0.62137 0.0
C543 C 0.84524 0.79672 0.58659 0.0
C544 C 0.75117 0.59883 0.54579 0.0
N545 N 0.79354 0.61398 0.55978 0.0
C546 C 0.85103 0.63339 0.52766 0.0
C547 C 0.84291 0.63149 0.55127 0.0
C548 C 0.80791 0.61726 0.5127 0.0
C549 C 0.75748 0.60017 0.52206 0.0
H550 H 0.71232 0.58484 0.5531 0.0
H551 H 0.87594 0.64363 0.56283 0.0
C552 C 0.88495 0.70709 0.66691 0.0
N553 N 0.87585 0.71056 0.64433 0.0
C554 C 0.935 0.74015 0.67637 0.0
C555 C 0.96505 0.78156 0.63947 0.0
C556 C 0.91444 0.74757 0.63069 0.0
C557 C 0.97654 0.77692 0.66244 0.0
H558 H 0.8548 0.67588 0.67724 0.0
H559 H 0.90737 0.74804 0.61259 0.0
C560 C 0.69194 0.49521 0.59245 0.0
N561 N 0.6304 0.40002 0.57019 0.0
C562 C 0.63916 0.46218 0.59889 0.0
C563 C 0.71331 0.47987 0.57463 0.0
C564 C 0.60874 0.4142 0.58745 0.0
C565 C 0.68159 0.43159 0.56359 0.0
C566 C 0.74709 0.59678 0.67152 0.0
C567 C 0.73321 0.55498 0.68678 0.0
C568 C 0.74365 0.64085 0.67836 0.0
C569 C 0.71582 0.55792 0.70872 0.0
C570 C 0.72612 0.6423 0.70045 0.0
N571 N 0.71266 0.60115 0.71504 0.0
C572 C 0.82351 0.50703 0.65127 0.0
C573 C 0.73891 0.44701 0.6361 0.0
C574 C 0.82581 0.46585 0.66232 0.0
N575 N 0.78077 0.49689 0.63827 0.0
C576 C 0.73915 0.40479 0.64713 0.0
C577 C 0.78291 0.41414 0.66051 0.0
H578 H 0.85506 0.54731 0.65368 0.0
H579 H 0.70458 0.43999 0.62643 0.0
C580 C 0.61734 0.57396 0.61088 0.0
N581 N 0.64449 0.57173 0.62936 0.0
C582 C 0.56193 0.54764 0.61108 0.0
C583 C 0.56318 0.5188 0.64966 0.0
C584 C 0.61857 0.54525 0.64865 0.0
C585 C 0.53398 0.51861 0.6305 0.0
H586 H 0.63868 0.59388 0.59551 0.0
H587 H 0.64042 0.54197 0.66282 0.0
O588 O 0.84132 0.61347 0.61069 0.0
O589 O 0.76675 0.66042 0.60733 0.0
O590 O 0.72218 0.54254 0.60337 0.0
O591 O 0.76384 0.59431 0.64997 0.0
H592 H 0.92931 0.65481 0.6354 0.0
H593 H 0.83931 0.53981 0.58354 0.0
H594 H 0.99708 0.62743 0.63314 0.0
H595 H 0.90854 0.51419 0.58225 0.0
H596 H 0.78656 0.8174 0.6315 0.0
H597 H 0.83452 0.72147 0.5756 0.0
H598 H 0.74622 0.7199 0.63488 0.0
H599 H 0.87296 0.81888 0.5731 0.0
H600 H 0.89067 0.64752 0.52119 0.0
H601 H 0.72303 0.58676 0.5112 0.0
H602 H 0.94192 0.73398 0.69401 0.0
H603 H 0.99557 0.8093 0.62805 0.0
H604 H 0.62195 0.47317 0.61272 0.0
H605 H 0.75381 0.50505 0.56924 0.0
H606 H 0.56792 0.38821 0.59231 0.0
H607 H 0.69763 0.41928 0.54976 0.0
H608 H 0.73567 0.52058 0.68169 0.0
H609 H 0.75462 0.67361 0.66678 0.0
H610 H 0.70482 0.52583 0.72071 0.0
H611 H 0.72325 0.67617 0.706 0.0
H612 H 0.85981 0.47454 0.67283 0.0
H613 H 0.70533 0.3653 0.64539 0.0
H614 H 0.54116 0.54917 0.596 0.0
H615 H 0.5434 0.49655 0.6649 0.0
Li616 Li 0.22487 0.77572 0.95946 0.0
Li617 Li 0.12747 0.71649 0.95774 0.0
Li618 Li 0.17789 0.78171 0.92523 0.0
Li619 Li 0.16695 0.81415 0.96333 0.0
C620 C 0.19972 0.69049 0.92579 0.0
N621 N 0.23337 0.62896 0.90352 0.0
C622 C 0.17996 0.63771 0.93222 0.0
C623 C 0.23643 0.71187 0.90796 0.0
C624 C 0.19753 0.60729 0.92078 0.0
C625 C 0.25299 0.68014 0.89693 0.0
C626 C 0.15327 0.74562 0.00485 0.0
C627 C 0.08677 0.72463 0.03378 0.0
N628 N 0.11447 0.71117 0.04837 0.0
C629 C 0.18119 0.73174 0.02011 0.0
C630 C 0.10576 0.74217 0.01169 0.0
C631 C 0.16087 0.71435 0.04205 0.0
C632 C 0.3195 0.82208 0.98458 0.0
N633 N 0.28685 0.77932 0.97161 0.0
C634 C 0.33727 0.73765 0.9805 0.0
C635 C 0.29482 0.73742 0.96946 0.0
C636 C 0.37173 0.78144 0.99384 0.0
C637 C 0.36298 0.82438 0.99563 0.0
H638 H 0.31082 0.85367 0.98697 0.0
H639 H 0.26746 0.70306 0.95981 0.0
C640 C 0.04635 0.61587 0.94421 0.0
N641 N 0.07574 0.64302 0.96269 0.0
C642 C 0.01726 0.56046 0.94441 0.0
C643 C 0.04735 0.56171 0.98299 0.0
C644 C 0.07629 0.6171 0.98197 0.0
C645 C 0.01833 0.53251 0.96383 0.0
H646 H 0.04777 0.63721 0.92884 0.0
H647 H 0.10142 0.63895 0.99615 0.0
C648 C 0.28319 0.87787 0.94293 0.0
N649 N 0.38908 0.95437 0.94093 0.0
C650 C 0.30302 0.92275 0.95689 0.0
C651 C 0.31715 0.87214 0.92785 0.0
C652 C 0.35669 0.96092 0.95566 0.0
C653 C 0.37057 0.91118 0.92712 0.0
C654 C 0.07715 0.78674 0.93897 0.0
C655 C 0.08465 0.82209 0.9213 0.0
C656 C 0.03619 0.77281 0.95469 0.0
C657 C 0.05149 0.84376 0.91991 0.0
C658 C 1.00388 0.79534 0.95272 0.0
N659 N 0.01218 0.83009 0.93553 0.0
C660 C 0.15531 0.7497 0.87912 0.0
C661 C 0.21441 0.84144 0.88459 0.0
C662 C 0.16028 0.756 0.85539 0.0
N663 N 0.18254 0.79208 0.89311 0.0
C664 C 0.22063 0.84956 0.86098 0.0
C665 C 0.19363 0.80644 0.84603 0.0
H666 H 0.13045 0.71085 0.88644 0.0
H667 H 0.2353 0.87447 0.89616 0.0
C668 C 0.18082 0.88348 0.00024 0.0
N669 N 0.16825 0.87438 0.97766 0.0
C670 C 0.1978 0.93352 0.0097 0.0
C671 C 0.18644 0.96358 0.9728 0.0
C672 C 0.16982 0.91297 0.96403 0.0
C673 C 0.20257 0.97507 0.99578 0.0
H674 H 0.18188 0.85333 0.01057 0.0
H675 H 0.16228 0.9059 0.94592 0.0
O676 O 0.18262 0.72072 0.9367 0.0
O677 O 0.1725 0.76238 0.9833 0.0
O678 O 0.23082 0.83986 0.94402 0.0
O679 O 0.1093 0.76528 0.94066 0.0
H680 H 0.15176 0.62049 0.94605 0.0
H681 H 0.25176 0.75237 0.90258 0.0
H682 H 0.18269 0.56647 0.92564 0.0
H683 H 0.28135 0.6962 0.8831 0.0
H684 H 0.05004 0.72176 0.03933 0.0
H685 H 0.21806 0.73421 0.01503 0.0
H686 H 0.08397 0.75314 1.00011 0.0
H687 H 0.18196 0.70335 0.05404 0.0
H688 H 0.34289 0.7038 0.97878 0.0
H689 H 0.38833 0.85841 0.00612 0.0
H690 H 0.99495 0.53969 0.92933 0.0
H691 H 0.04982 0.54193 0.99823 0.0
H692 H 0.27745 0.92789 0.96872 0.0
H693 H 0.30248 0.83787 0.91687 0.0
H694 H 0.3726 0.99569 0.96644 0.0
H695 H 0.39732 0.90713 0.91558 0.0
H696 H 0.11603 0.83305 0.90892 0.0
H697 H 0.02929 0.74475 0.96821 0.0
H698 H 0.05705 0.87148 0.90642 0.0
H699 H 0.97213 0.78509 0.96482 0.0
H700 H 0.13923 0.72155 0.84453 0.0
H701 H 0.24614 0.8892 0.85452 0.0
H702 H 0.21089 0.94044 0.02734 0.0
H703 H 0.18922 0.9941 0.96138 0.0
Li704 Li 0.41394 0.12599 0.29108 0.0
Li705 Li 0.45211 0.2234 0.2928 0.0
Li706 Li 0.35575 0.16546 0.29667 0.0
Li707 Li 0.39914 0.17642 0.25858 0.0
C708 C 0.41061 0.1518 0.33819 0.0
N709 N 0.40628 0.11301 0.38171 0.0
C710 C 0.45242 0.17972 0.35345 0.0
C711 C 0.36655 0.10429 0.34504 0.0
C712 C 0.4495 0.1594 0.37538 0.0
C713 C 0.36511 0.08531 0.36713 0.0
C714 C 0.5122 0.19826 0.25913 0.0
C715 C 0.57582 0.25154 0.23029 0.0
N716 N 0.60739 0.23193 0.23687 0.0
C717 C 0.54522 0.1785 0.26557 0.0
C718 C 0.52754 0.23498 0.24132 0.0
C719 C 0.5932 0.19608 0.25413 0.0
C720 C 0.43343 0.04488 0.27755 0.0
N721 N 0.43567 0.07426 0.29603 0.0
C722 C 0.48859 0.04587 0.31633 0.0
C723 C 0.46215 0.07482 0.31532 0.0
C724 C 0.48878 0.01686 0.29717 0.0
C725 C 0.45976 0.01579 0.27775 0.0
H726 H 0.41352 0.04629 0.26218 0.0
H727 H 0.46543 0.09994 0.32949 0.0
C728 C 0.50039 0.3181 0.31788 0.0
N729 N 0.51049 0.28538 0.30495 0.0
C730 C 0.54159 0.36159 0.32893 0.0
C731 C 0.60256 0.33572 0.31389 0.0
C732 C 0.56034 0.29327 0.30285 0.0
C733 C 0.59325 0.37026 0.32719 0.0
H734 H 0.46014 0.30949 0.32024 0.0
H735 H 0.56731 0.26584 0.29324 0.0
C736 C 0.29337 0.07567 0.27231 0.0
N737 N 0.18503 0.01068 0.26887 0.0
C738 C 0.26551 0.08315 0.25464 0.0
C739 C 0.26634 0.03471 0.28804 0.0
C740 C 0.21068 0.04999 0.25325 0.0
C741 C 0.2115 1.0024 0.28607 0.0
C742 C 0.40824 0.2817 0.27626 0.0
C743 C 0.38316 0.30152 0.2902 0.0
C744 C 0.44793 0.31565 0.26117 0.0
C745 C 0.39862 0.35518 0.28894 0.0
C746 C 0.46228 0.36907 0.26043 0.0
N747 N 0.43756 0.38757 0.27422 0.0
C748 C 0.30029 0.17934 0.33358 0.0
C749 C 0.25979 0.16833 0.29736 0.0
C750 C 0.26724 0.19633 0.34304 0.0
N751 N 0.29682 0.16676 0.311 0.0
C752 C 0.22581 0.18495 0.30614 0.0
C753 C 0.23046 0.2011 0.32911 0.0
H754 H 0.33151 0.18041 0.3439 0.0
H755 H 0.25931 0.16077 0.27926 0.0
C756 C 0.40859 0.15385 0.21246 0.0
N757 N 0.39343 0.18107 0.22645 0.0
C758 C 0.40726 0.15881 0.18873 0.0
C759 C 0.37402 0.21913 0.19432 0.0
C760 C 0.37591 0.21291 0.21793 0.0
C761 C 0.39016 0.19215 0.17937 0.0
H762 H 0.42259 0.129 0.21978 0.0
H763 H 0.36376 0.23379 0.2295 0.0
O764 O 0.41307 0.17102 0.31664 0.0
O765 O 0.46486 0.18115 0.27005 0.0
O766 O 0.34698 0.10782 0.274 0.0
O767 O 0.39391 0.22933 0.27737 0.0
H768 H 0.48682 0.21659 0.34836 0.0
H769 H 0.33378 0.0825 0.33346 0.0
H770 H 0.4816 0.1805 0.38738 0.0
H771 H 0.33125 0.04858 0.37268 0.0
H772 H 0.58814 0.27991 0.21645 0.0
H773 H 0.53423 0.1503 0.27939 0.0
H774 H 0.50236 0.2503 0.23593 0.0
H775 H 0.61919 0.18124 0.259 0.0
H776 H 0.51084 0.04834 0.33157 0.0
H777 H 0.45822 0.99348 0.26267 0.0
H778 H 0.53293 0.387 0.33938 0.0
H779 H 0.64202 0.34127 0.3122 0.0
H780 H 0.28593 0.11452 0.24226 0.0
H781 H 0.28749 0.02781 0.30156 0.0
H782 H 0.18852 0.05554 0.23976 0.0
H783 H 0.19 0.97066 0.29817 0.0
H784 H 0.35245 0.27596 0.30202 0.0
H785 H 0.46757 0.30099 0.25021 0.0
H786 H 0.37974 0.37108 0.29972 0.0
H787 H 0.49309 0.39582 0.24888 0.0
H788 H 0.27342 0.20944 0.36067 0.0
H789 H 0.19806 0.18773 0.29472 0.0
H790 H 0.42067 0.13777 0.17787 0.0
H791 H 0.35988 0.24463 0.18786 0.0
Li792 Li 0.23168 0.45063 0.62613 0.0
Li793 Li 0.2909 0.41246 0.62441 0.0
Li794 Li 0.22568 0.39766 0.5919 0.0
Li795 Li 0.19324 0.35428 0.63 0.0
C796 C 0.31691 0.51071 0.59246 0.0
N797 N 0.37844 0.6059 0.57019 0.0
C798 C 0.36969 0.54373 0.5989 0.0
C799 C 0.29554 0.52605 0.57463 0.0
C800 C 0.40011 0.59172 0.58746 0.0
C801 C 0.32726 0.57432 0.5636 0.0
C802 C 0.26177 0.40913 0.67152 0.0
C803 C 0.28275 0.36362 0.70045 0.0
N804 N 0.29621 0.40478 0.71504 0.0
C805 C 0.27565 0.45094 0.68678 0.0
C806 C 0.26521 0.36507 0.67837 0.0
C807 C 0.29304 0.44801 0.70872 0.0
C808 C 0.18532 0.49889 0.65126 0.0
N809 N 0.22808 0.50902 0.63828 0.0
C810 C 0.26973 0.60111 0.64716 0.0
C811 C 0.26997 0.55889 0.63612 0.0
C812 C 0.22595 0.59177 0.66051 0.0
C813 C 0.18302 0.54007 0.66231 0.0
H814 H 0.15375 0.45862 0.65365 0.0
H815 H 0.30431 0.5659 0.62646 0.0
C816 C 0.39151 0.43196 0.61088 0.0
N817 N 0.36437 0.43419 0.62936 0.0
C818 C 0.44693 0.45828 0.61108 0.0
C819 C 0.44567 0.48711 0.64966 0.0
C820 C 0.39028 0.46067 0.64865 0.0
C821 C 0.47488 0.48731 0.6305 0.0
H822 H 0.37018 0.41204 0.59551 0.0
H823 H 0.36844 0.46394 0.66282 0.0
C824 C 0.12953 0.4068 0.6096 0.0
N825 N 0.05305 0.43621 0.6076 0.0
C826 C 0.08466 0.38177 0.62356 0.0
C827 C 0.13526 0.44649 0.59451 0.0
C828 C 0.0465 0.39727 0.62233 0.0
C829 C 0.09624 0.46089 0.59379 0.0
C830 C 0.22065 0.29189 0.60565 0.0
C831 C 0.1853 0.26402 0.58798 0.0
C832 C 0.23458 0.26486 0.62137 0.0
C833 C 0.16363 0.20919 0.58658 0.0
C834 C 0.21205 0.21002 0.6194 0.0
N835 N 0.17729 0.18355 0.60221 0.0
C836 C 0.25769 0.40709 0.54579 0.0
C837 C 0.16594 0.37442 0.55127 0.0
C838 C 0.25138 0.40575 0.52206 0.0
N839 N 0.21532 0.39194 0.55978 0.0
C840 C 0.15782 0.37252 0.52766 0.0
C841 C 0.20095 0.38866 0.5127 0.0
H842 H 0.29654 0.42109 0.55311 0.0
H843 H 0.13292 0.36228 0.56283 0.0
C844 C 0.12391 0.29881 0.66691 0.0
N845 N 0.13301 0.29535 0.64433 0.0
C846 C 0.07386 0.26575 0.67637 0.0
C847 C 0.04381 0.22434 0.63947 0.0
C848 C 0.09442 0.25833 0.63069 0.0
C849 C 0.03232 0.22898 0.66244 0.0
H850 H 0.15406 0.33002 0.67724 0.0
H851 H 0.10149 0.25786 0.61259 0.0
O852 O 0.28667 0.46338 0.60337 0.0
O853 O 0.24501 0.4116 0.64997 0.0
O854 O 0.16754 0.39243 0.61069 0.0
O855 O 0.24211 0.3455 0.60733 0.0
H856 H 0.3869 0.53275 0.61272 0.0
H857 H 0.25504 0.50087 0.56925 0.0
H858 H 0.44093 0.61771 0.59232 0.0
H859 H 0.31122 0.58664 0.54976 0.0
H860 H 0.28561 0.32976 0.706 0.0
H861 H 0.27319 0.48534 0.68169 0.0
H862 H 0.25424 0.33231 0.66678 0.0
H863 H 0.30404 0.4801 0.72071 0.0
H864 H 0.30357 0.64059 0.64543 0.0
H865 H 0.149 0.53139 0.6728 0.0
H866 H 0.4677 0.45675 0.596 0.0
H867 H 0.46546 0.50936 0.6649 0.0
H868 H 0.07952 0.35106 0.63539 0.0
H869 H 0.16954 0.46609 0.58354 0.0
H870 H 0.01173 0.37842 0.63312 0.0
H871 H 0.10029 0.49169 0.58224 0.0
H872 H 0.17434 0.28444 0.5756 0.0
H873 H 0.26264 0.28602 0.63489 0.0
H874 H 0.13591 0.18703 0.5731 0.0
H875 H 0.2223 0.18852 0.6315 0.0
H876 H 0.28583 0.41916 0.5112 0.0
H877 H 0.11819 0.35839 0.52119 0.0
H878 H 0.06694 0.27192 0.69401 0.0
H879 H 0.01329 0.1966 0.62805 0.0
Li880 Li 0.88139 0.28943 0.95774 0.0
Li881 Li 0.78399 0.2302 0.95946 0.0
Li882 Li 0.84191 0.19177 0.96333 0.0
Li883 Li 0.83097 0.22421 0.92523 0.0
C884 C 0.85559 0.2603 0.00485 0.0
N885 N 0.8944 0.29473 0.04837 0.0
C886 C 0.82767 0.27417 0.02011 0.0
C887 C 0.9031 0.26374 0.01169 0.0
C888 C 0.848 0.29156 0.04205 0.0
C889 C 0.92209 0.28128 0.03378 0.0
C890 C 0.80915 0.31543 0.92578 0.0
C891 C 0.75589 0.32578 0.89693 0.0
N892 N 0.7755 0.37696 0.90351 0.0
C893 C 0.82891 0.36821 0.93222 0.0
C894 C 0.77244 0.29406 0.90796 0.0
C895 C 0.81134 0.39863 0.92078 0.0
C896 C 0.96251 0.39004 0.94421 0.0
N897 N 0.93313 0.36289 0.96269 0.0
C898 C 0.96152 0.4442 0.98299 0.0
C899 C 0.93257 0.38881 0.98198 0.0
C900 C 0.99053 0.4734 0.96382 0.0
C901 C 0.9916 0.44546 0.94441 0.0
H902 H 0.96109 0.3687 0.92883 0.0
H903 H 0.90745 0.36697 0.99615 0.0
C904 C 0.68939 0.18385 0.98459 0.0
N905 N 0.72201 0.2266 0.97161 0.0
C906 C 0.6459 0.18155 0.99564 0.0
C907 C 0.67157 0.26825 0.98049 0.0
C908 C 0.71402 0.26848 0.96945 0.0
C909 C 0.63713 0.22447 0.99384 0.0
H910 H 0.69808 0.15227 0.98698 0.0
H911 H 0.74136 0.30283 0.95979 0.0
C912 C 0.93171 0.21918 0.93897 0.0
N913 N 0.99668 0.17582 0.93553 0.0
C914 C 0.92421 0.18382 0.9213 0.0
C915 C 0.97267 0.23311 0.95469 0.0
C916 C 0.95736 0.16215 0.91991 0.0
C917 C 0.00498 0.21058 0.95272 0.0
C918 C 0.72567 0.12805 0.94294 0.0
C919 C 0.70583 0.08318 0.9569 0.0
C920 C 0.69171 0.13378 0.92785 0.0
C921 C 0.65216 0.04502 0.95567 0.0
C922 C 0.63828 0.09475 0.92713 0.0
N923 N 0.61977 0.05157 0.94095 0.0
C924 C 0.82804 0.12244 0.00024 0.0
C925 C 0.83903 0.09294 0.96403 0.0
C926 C 0.81105 0.07239 0.0097 0.0
N927 N 0.84061 0.13154 0.97766 0.0
C928 C 0.82242 0.04234 0.9728 0.0
C929 C 0.80628 0.03084 0.99578 0.0
H930 H 0.82698 0.15259 0.01057 0.0
H931 H 0.84658 0.10001 0.94592 0.0
C932 C 0.85356 0.25622 0.87912 0.0
N933 N 0.82632 0.21384 0.89311 0.0
C934 C 0.84859 0.24991 0.85539 0.0
C935 C 0.78823 0.15636 0.86098 0.0
C936 C 0.79445 0.16448 0.88459 0.0
C937 C 0.81524 0.19948 0.84603 0.0
H938 H 0.87843 0.29506 0.88644 0.0
H939 H 0.77355 0.13145 0.89616 0.0
O940 O 0.83636 0.24354 0.9833 0.0
O941 O 0.82624 0.2852 0.9367 0.0
O942 O 0.89956 0.24064 0.94066 0.0
O943 O 0.77805 0.16606 0.94402 0.0
H944 H 0.7908 0.2717 0.01503 0.0
H945 H 0.92489 0.25277 1.0001 0.0
H946 H 0.82691 0.30256 0.05405 0.0
H947 H 0.95882 0.28415 0.03933 0.0
H948 H 0.72752 0.30973 0.88309 0.0
H949 H 0.8571 0.38543 0.94605 0.0
H950 H 0.75711 0.25355 0.90258 0.0
H951 H 0.82617 0.43945 0.92564 0.0
H952 H 0.95905 0.46398 0.99823 0.0
H953 H 0.01391 0.46623 0.92933 0.0
H954 H 0.62057 0.14753 0.00614 0.0
H955 H 0.66593 0.30209 0.97875 0.0
H956 H 0.89283 0.17286 0.90893 0.0
H957 H 0.97958 0.26117 0.96821 0.0
H958 H 0.9518 0.13443 0.90642 0.0
H959 H 0.03673 0.22082 0.96482 0.0
H960 H 0.7314 0.07804 0.96872 0.0
H961 H 0.70638 0.16806 0.91688 0.0
H962 H 0.63625 0.01025 0.96646 0.0
H963 H 0.61153 0.09881 0.91559 0.0
H964 H 0.79796 0.06547 0.02734 0.0
H965 H 0.81963 0.01181 0.96138 0.0
H966 H 0.86965 0.28436 0.84453 0.0
H967 H 0.76271 0.11672 0.85452 0.0
Li968 Li 0.55675 0.78252 0.2928 0.0
Li969 Li 0.59492 0.87992 0.29108 0.0
Li970 Li 0.60972 0.8295 0.25858 0.0
Li971 Li 0.65311 0.84045 0.29667 0.0
C972 C 0.49666 0.80766 0.25913 0.0
N973 N 0.40147 0.774 0.23687 0.0
C974 C 0.46364 0.82742 0.26557 0.0
C975 C 0.48132 0.77094 0.24131 0.0
C976 C 0.41566 0.80984 0.25414 0.0
C977 C 0.43304 0.75439 0.23028 0.0
C978 C 0.59825 0.85412 0.33819 0.0
C979 C 0.64375 0.92061 0.36713 0.0
N980 N 0.60258 0.8929 0.38171 0.0
C981 C 0.55643 0.82619 0.35345 0.0
C982 C 0.64231 0.90162 0.34504 0.0
C983 C 0.55935 0.84651 0.37539 0.0
C984 C 0.50847 0.68783 0.31789 0.0
N985 N 0.49836 0.72054 0.30495 0.0
C986 C 0.40629 0.67018 0.31388 0.0
C987 C 0.44851 0.71263 0.30284 0.0
C988 C 0.41561 0.63565 0.32718 0.0
C989 C 0.46728 0.64434 0.32894 0.0
H990 H 0.54873 0.69646 0.32025 0.0
H991 H 0.44154 0.74004 0.29322 0.0
C992 C 0.57542 0.96104 0.27755 0.0
N993 N 0.57319 0.93166 0.29603 0.0
C994 C 0.5491 0.99013 0.27775 0.0
C995 C 0.52028 0.96005 0.31633 0.0
C996 C 0.54672 0.9311 0.31532 0.0
C997 C 0.52008 0.98905 0.29717 0.0
H998 H 0.59534 0.95962 0.26218 0.0
H999 H 0.54344 0.90599 0.3295 0.0
C1000 C 0.60061 0.72421 0.27626 0.0
N1001 N 0.57127 0.61834 0.27423 0.0
C1002 C 0.62568 0.70439 0.2902 0.0
C1003 C 0.56092 0.69026 0.26117 0.0
C1004 C 0.61021 0.65073 0.28895 0.0
C1005 C 0.54656 0.63684 0.26043 0.0
C1006 C 0.71549 0.93025 0.27232 0.0
C1007 C 0.74335 0.92277 0.25464 0.0
C1008 C 0.74253 0.9712 0.28804 0.0
C1009 C 0.79818 0.95592 0.25325 0.0
C1010 C 0.79736 0.00351 0.28607 0.0
N1011 N 0.82383 0.99523 0.26888 0.0
C1012 C 0.60027 0.85207 0.21246 0.0
C1013 C 0.63295 0.793 0.21793 0.0
C1014 C 0.60161 0.8471 0.18873 0.0
N1015 N 0.61543 0.82485 0.22645 0.0
C1016 C 0.63484 0.78678 0.19432 0.0
C1017 C 0.6187 0.81377 0.17937 0.0
H1018 H 0.58628 0.87692 0.21978 0.0
H1019 H 0.6451 0.77212 0.2295 0.0
C1020 C 0.70856 0.82657 0.33358 0.0
N1021 N 0.71204 0.83915 0.311 0.0
C1022 C 0.74161 0.80957 0.34304 0.0
C1023 C 0.78305 0.82096 0.30614 0.0
C1024 C 0.74906 0.83758 0.29736 0.0
C1025 C 0.7784 0.80481 0.32911 0.0
H1026 H 0.67735 0.8255 0.3439 0.0
H1027 H 0.74954 0.84514 0.27926 0.0
O1028 O 0.544 0.82477 0.27005 0.0
O1029 O 0.59579 0.8349 0.31664 0.0
O1030 O 0.61495 0.77658 0.27736 0.0
O1031 O 0.66188 0.8981 0.274 0.0
H1032 H 0.47463 0.85562 0.2794 0.0
H1033 H 0.5065 0.75562 0.23593 0.0
H1034 H 0.38967 0.82467 0.259 0.0
H1035 H 0.42072 0.72602 0.21645 0.0
H1036 H 0.67761 0.95733 0.37268 0.0
H1037 H 0.52203 0.78932 0.34836 0.0
H1038 H 0.67508 0.92341 0.33346 0.0
H1039 H 0.52725 0.82541 0.38738 0.0
H1040 H 0.36683 0.66461 0.31218 0.0
H1041 H 0.47594 0.61894 0.3394 0.0
H1042 H 0.55063 0.01243 0.26267 0.0
H1043 H 0.49803 0.95758 0.33157 0.0
H1044 H 0.65639 0.72995 0.30203 0.0
H1045 H 0.54129 0.70492 0.25021 0.0
H1046 H 0.62909 0.63482 0.29973 0.0
H1047 H 0.51575 0.61009 0.24889 0.0
H1048 H 0.72293 0.89139 0.24226 0.0
H1049 H 0.72137 0.9781 0.30156 0.0
H1050 H 0.82034 0.95037 0.23976 0.0
H1051 H 0.81886 0.03525 0.29817 0.0
H1052 H 0.5882 0.86814 0.17787 0.0
H1053 H 0.64898 0.76128 0.18786 0.0
H1054 H 0.73544 0.79647 0.36067 0.0
H1055 H 0.81079 0.81818 0.29472 0.0
loop_
_geom_bond_atom_site_label_1
_geom_bond_atom_site_label_2
_geom_bond_distance
_geom_bond_site_symmetry_2
_ccdc_geom_bond_type
Li0 N17 1.990 . S
Li0 O60 1.956 . S
Li0 O61 1.970 . S
Li0 O62 1.961 . S
Li1 N25 1.990 . S
Li1 O60 1.970 . S
Li1 O61 1.956 . S
Li1 O63 1.961 . S
Li2 N47 1.990 . S
Li2 O60 1.961 . S
Li2 O62 1.956 . S
Li2 O63 1.970 . S
Li3 N53 1.990 . S
Li3 O61 1.961 . S
Li3 O62 1.970 . S
Li3 O63 1.956 . S
C4 C6 1.348 . S
C4 C7 1.356 . S
C4 O60 1.325 . S
N5 C8 1.314 . S
N5 C9 1.279 . S
C6 C4 1.348 . S
C6 C8 1.353 . S
C6 H64 0.929 . S
C7 C4 1.356 . S
C7 C9 1.358 . S
C7 H65 0.930 . S
C8 N5 1.314 . S
C8 C6 1.353 . S
C8 H66 0.930 . S
C9 N5 1.279 . S
C9 C7 1.358 . S
C9 H67 0.930 . S
C10 C13 1.348 . S
C10 C14 1.356 . S
C10 O61 1.325 . S
C11 N12 1.279 . S
C11 C14 1.358 . S
C11 H68 0.930 . S
N12 C11 1.279 . S
N12 C15 1.314 . S
C13 C10 1.348 . S
C13 C15 1.353 . S
C13 H69 0.929 . S
C14 C10 1.356 . S
C14 C11 1.358 . S
C14 H70 0.930 . S
C15 N12 1.314 . S
C15 C13 1.353 . S
C15 H71 0.930 . S
C16 N17 1.314 . S
C16 C21 1.353 . S
C16 H22 0.930 . S
N17 Li0 1.990 . S
N17 C16 1.314 . S
N17 C19 1.279 . S
C18 C19 1.358 . S
C18 C20 1.356 . S
C18 H72 0.930 . S
C19 N17 1.279 . S
C19 C18 1.358 . S
C19 H23 0.930 . S
C20 C18 1.356 . S
C20 C21 1.348 . S
C21 C16 1.353 . S
C21 C20 1.348 . S
C21 H73 0.929 . S
H22 C16 0.930 . S
H23 C19 0.930 . S
C24 N25 1.314 1_556 S
C24 C26 1.353 . S
C24 H30 0.930 . S
N25 Li1 1.990 . S
N25 C24 1.314 1_554 S
N25 C28 1.279 . S
C26 C24 1.353 . S
C26 C29 1.348 . S
C26 H74 0.929 . S
C27 C28 1.358 . S
C27 C29 1.356 1_554 S
C27 H75 0.930 . S
C28 N25 1.279 . S
C28 C27 1.358 . S
C28 H31 0.930 . S
C29 C26 1.348 . S
C29 C27 1.356 1_556 S
H30 C24 0.930 . S
H31 C28 0.930 . S
C32 C34 1.348 . S
C32 C35 1.356 . S
C32 O62 1.325 . S
N33 C36 1.314 . S
N33 C37 1.279 . S
C34 C32 1.348 . S
C34 C36 1.353 . S
C34 H76 0.929 . S
C35 C32 1.356 . S
C35 C37 1.358 . S
C35 H77 0.930 . S
C36 N33 1.314 . S
C36 C34 1.353 . S
C36 H78 0.930 . S
C37 N33 1.279 . S
C37 C35 1.358 . S
C37 H79 0.930 . S
C38 C39 1.348 . S
C38 C40 1.356 . S
C38 O63 1.325 1_556 S
C39 C38 1.348 . S
C39 C41 1.353 . S
C39 H80 0.929 . S
C40 C38 1.356 . S
C40 C42 1.358 . S
C40 H81 0.930 . S
C41 C39 1.353 . S
C41 N43 1.314 . S
C41 H82 0.930 . S
C42 C40 1.358 . S
C42 N43 1.279 . S
C42 H83 0.930 . S
N43 C41 1.314 . S
N43 C42 1.279 . S
C44 C46 1.353 . S
C44 N47 1.314 . S
C44 H50 0.930 . S
C45 N47 1.279 . S
C45 C48 1.358 . S
C45 H51 0.930 . S
C46 C44 1.353 . S
C46 C49 1.348 . S
C46 H84 0.929 1_554 S
N47 Li2 1.990 . S
N47 C44 1.314 . S
N47 C45 1.279 . S
C48 C45 1.358 . S
C48 C49 1.356 . S
C48 H85 0.930 . S
C49 C46 1.348 . S
C49 C48 1.356 . S
H50 C44 0.930 . S
H51 C45 0.930 . S
C52 N53 1.314 . S
C52 C54 1.353 . S
C52 H58 0.930 . S
N53 Li3 1.990 . S
N53 C52 1.314 . S
N53 C56 1.279 . S
C54 C52 1.353 . S
C54 C57 1.348 . S
C54 H86 0.929 . S
C55 C56 1.358 . S
C55 C57 1.356 . S
C55 H87 0.930 1_554 S
C56 N53 1.279 . S
C56 C55 1.358 . S
C56 H59 0.894 1_554 S
C57 C54 1.348 . S
C57 C55 1.356 . S
H58 C52 0.930 . S
H59 C56 0.894 1_556 S
O60 Li0 1.956 . S
O60 Li1 1.970 . S
O60 Li2 1.961 . S
O60 C4 1.325 . S
O61 Li0 1.970 . S
O61 Li1 1.956 . S
O61 Li3 1.961 . S
O61 C10 1.325 . S
O62 Li0 1.961 . S
O62 Li2 1.956 . S
O62 Li3 1.970 . S
O62 C32 1.325 . S
O63 Li1 1.961 . S
O63 Li2 1.970 . S
O63 Li3 1.956 . S
O63 C38 1.325 1_554 S
H64 C6 0.929 . S
H65 C7 0.930 . S
H66 C8 0.930 . S
H67 C9 0.930 . S
H68 C11 0.930 . S
H69 C13 0.929 . S
H70 C14 0.930 . S
H71 C15 0.930 . S
H72 C18 0.930 . S
H73 C21 0.929 . S
H74 C26 0.929 . S
H75 C27 0.930 . S
H76 C34 0.929 . S
H77 C35 0.930 . S
H78 C36 0.930 . S
H79 C37 0.930 . S
H80 C39 0.929 . S
H81 C40 0.930 . S
H82 C41 0.930 . S
H83 C42 0.930 . S
H84 C46 0.929 1_556 S
H85 C48 0.930 . S
H86 C54 0.929 . S
H87 C55 0.930 1_556 S
Li88 N105 1.990 . S
Li88 O148 1.956 . S
Li88 O149 1.970 . S
Li88 O150 1.961 . S
Li89 N113 1.990 . S
Li89 O148 1.970 . S
Li89 O149 1.956 . S
Li89 O151 1.961 . S
Li90 N135 1.990 . S
Li90 O148 1.961 . S
Li90 O150 1.956 . S
Li90 O151 1.970 . S
Li91 N141 1.990 . S
Li91 O149 1.961 . S
Li91 O150 1.970 . S
Li91 O151 1.956 . S
C92 C94 1.348 . S
C92 C95 1.356 . S
C92 O148 1.325 . S
N93 C96 1.314 . S
N93 C97 1.279 . S
C94 C92 1.348 . S
C94 C96 1.353 . S
C94 H152 0.929 . S
C95 C92 1.356 . S
C95 C97 1.358 . S
C95 H153 0.930 . S
C96 N93 1.314 . S
C96 C94 1.353 . S
C96 H154 0.930 . S
C97 N93 1.279 . S
C97 C95 1.358 . S
C97 H155 0.930 . S
C98 C101 1.348 . S
C98 C102 1.356 . S
C98 O149 1.325 . S
C99 N100 1.279 . S
C99 C102 1.358 . S
C99 H156 0.930 . S
N100 C99 1.279 . S
N100 C103 1.314 . S
C101 C98 1.348 . S
C101 C103 1.353 . S
C101 H157 0.929 . S
C102 C98 1.356 . S
C102 C99 1.358 . S
C102 H158 0.930 . S
C103 N100 1.314 . S
C103 C101 1.353 . S
C103 H159 0.930 . S
C104 N105 1.314 . S
C104 C109 1.353 1_455 S
C104 H110 0.930 . S
N105 Li88 1.990 . S
N105 C104 1.314 . S
N105 C107 1.279 . S
C106 C107 1.358 1_655 S
C106 C108 1.356 . S
C106 H160 0.930 . S
C107 N105 1.279 . S
C107 C106 1.358 1_455 S
C107 H111 0.930 . S
C108 C106 1.356 . S
C108 C109 1.348 . S
C109 C104 1.353 1_655 S
C109 C108 1.348 . S
C109 H161 0.929 . S
H110 C104 0.930 . S
H111 C107 0.930 . S
C112 N113 1.314 . S
C112 C114 1.353 . S
C112 H118 0.930 . S
N113 Li89 1.990 . S
N113 C112 1.314 . S
N113 C116 1.279 . S
C114 C112 1.353 . S
C114 C117 1.348 . S
C114 H162 0.929 . S
C115 C116 1.358 . S
C115 C117 1.356 . S
C115 H163 0.930 . S
C116 N113 1.279 . S
C116 C115 1.358 . S
C116 H119 0.930 . S
C117 C114 1.348 . S
C117 C115 1.356 . S
H118 C112 0.930 . S
H119 C116 0.930 . S
C120 C122 1.348 . S
C120 C123 1.356 . S
C120 O150 1.325 . S
N121 C124 1.314 1_655 S
N121 C125 1.279 . S
C122 C120 1.348 . S
C122 C124 1.353 . S
C122 H164 0.929 . S
C123 C120 1.356 . S
C123 C125 1.358 1_455 S
C123 H165 0.930 . S
C124 N121 1.314 1_455 S
C124 C122 1.353 . S
C124 H166 0.930 . S
C125 N121 1.279 . S
C125 C123 1.358 1_655 S
C125 H167 0.930 . S
C126 C127 1.348 . S
C126 C128 1.356 . S
C126 O151 1.325 . S
C127 C126 1.348 . S
C127 C129 1.353 . S
C127 H168 0.929 . S
C128 C126 1.356 . S
C128 C130 1.358 . S
C128 H169 0.930 . S
C129 C127 1.353 . S
C129 N131 1.314 . S
C129 H170 0.930 . S
C130 C128 1.358 . S
C130 N131 1.279 . S
C130 H171 0.930 . S
N131 C129 1.314 . S
N131 C130 1.279 . S
C132 C134 1.353 . S
C132 N135 1.314 . S
C132 H138 0.930 . S
C133 N135 1.279 . S
C133 C136 1.358 . S
C133 H139 0.930 . S
C134 C132 1.353 . S
C134 C137 1.348 . S
C134 H172 0.929 . S
N135 Li90 1.990 . S
N135 C132 1.314 . S
N135 C133 1.279 . S
C136 C133 1.358 . S
C136 C137 1.356 . S
C136 H173 0.930 . S
C137 C134 1.348 . S
C137 C136 1.356 . S
H138 C132 0.930 . S
H139 C133 0.930 . S
C140 N141 1.314 . S
C140 C142 1.353 . S
C140 H146 0.930 . S
N141 Li91 1.990 . S
N141 C140 1.314 . S
N141 C144 1.279 . S
C142 C140 1.353 . S
C142 C145 1.348 . S
C142 H174 0.929 . S
C143 C144 1.358 . S
C143 C145 1.356 . S
C143 H175 0.930 . S
C144 N141 1.279 . S
C144 C143 1.358 . S
C144 H147 0.930 . S
C145 C142 1.348 . S
C145 C143 1.356 . S
H146 C140 0.930 . S
H147 C144 0.930 . S
O148 Li88 1.956 . S
O148 Li89 1.970 . S
O148 Li90 1.961 . S
O148 C92 1.325 . S
O149 Li88 1.970 . S
O149 Li89 1.956 . S
O149 Li91 1.961 . S
O149 C98 1.325 . S
O150 Li88 1.961 . S
O150 Li90 1.956 . S
O150 Li91 1.970 . S
O150 C120 1.325 . S
O151 Li89 1.961 . S
O151 Li90 1.970 . S
O151 Li91 1.956 . S
O151 C126 1.325 . S
H152 C94 0.929 . S
H153 C95 0.930 . S
H154 C96 0.930 . S
H155 C97 0.930 . S
H156 C99 0.930 . S
H157 C101 0.929 . S
H158 C102 0.930 . S
H159 C103 0.930 . S
H160 C106 0.930 . S
H161 C109 0.929 . S
H162 C114 0.929 . S
H163 C115 0.930 . S
H164 C122 0.929 . S
H165 C123 0.930 . S
H166 C124 0.930 . S
H167 C125 0.930 . S
H168 C127 0.929 . S
H169 C128 0.930 . S
H170 C129 0.930 . S
H171 C130 0.930 . S
H172 C134 0.929 . S
H173 C136 0.930 . S
H174 C142 0.929 . S
H175 C143 0.930 . S
Li176 N193 1.990 . S
Li176 O236 1.956 . S
Li176 O237 1.970 . S
Li176 O238 1.961 . S
Li177 N201 1.990 . S
Li177 O236 1.970 . S
Li177 O237 1.956 . S
Li177 O239 1.961 . S
Li178 N223 1.990 . S
Li178 O236 1.961 . S
Li178 O238 1.956 . S
Li178 O239 1.970 . S
Li179 N229 1.990 . S
Li179 O237 1.961 . S
Li179 O238 1.970 . S
Li179 O239 1.956 . S
C180 C182 1.348 . S
C180 C183 1.356 . S
C180 O236 1.325 . S
N181 C184 1.314 . S
N181 C185 1.279 . S
C182 C180 1.348 . S
C182 C184 1.353 . S
C182 H240 0.929 . S
C183 C180 1.356 . S
C183 C185 1.358 . S
C183 H241 0.930 . S
C184 N181 1.314 . S
C184 C182 1.353 . S
C184 H242 0.930 . S
C185 N181 1.279 . S
C185 C183 1.358 . S
C185 H243 0.930 . S
C186 C189 1.348 . S
C186 C190 1.356 . S
C186 O237 1.325 . S
C187 N188 1.279 . S
C187 C190 1.358 . S
C187 H244 0.930 . S
N188 C187 1.279 . S
N188 C191 1.314 . S
C189 C186 1.348 . S
C189 C191 1.353 . S
C189 H245 0.929 . S
C190 C186 1.356 . S
C190 C187 1.358 . S
C190 H246 0.930 . S
C191 N188 1.314 . S
C191 C189 1.353 . S
C191 H247 0.930 . S
C192 N193 1.314 . S
C192 C197 1.353 . S
C192 H198 0.930 . S
N193 Li176 1.990 . S
N193 C192 1.314 . S
N193 C195 1.279 . S
C194 C195 1.358 . S
C194 C196 1.356 . S
C194 H248 0.930 . S
C195 N193 1.279 . S
C195 C194 1.358 . S
C195 H199 0.930 . S
C196 C194 1.356 . S
C196 C197 1.348 . S
C197 C192 1.353 . S
C197 C196 1.348 . S
C197 H249 0.929 . S
H198 C192 0.930 . S
H199 C195 0.930 . S
C200 N201 1.314 . S
C200 C202 1.353 1_545 S
C200 H206 0.930 . S
N201 Li177 1.990 . S
N201 C200 1.314 . S
N201 C204 1.279 . S
C202 C200 1.353 1_565 S
C202 C205 1.348 . S
C202 H250 0.929 . S
C203 C204 1.358 1_565 S
C203 C205 1.356 . S
C203 H251 0.930 . S
C204 N201 1.279 . S
C204 C203 1.358 1_545 S
C204 H207 0.930 . S
C205 C202 1.348 . S
C205 C203 1.356 . S
H206 C200 0.930 . S
H207 C204 0.930 . S
C208 C210 1.348 . S
C208 C211 1.356 . S
C208 O238 1.325 . S
N209 C212 1.314 . S
N209 C213 1.279 . S
C210 C208 1.348 . S
C210 C212 1.353 . S
C210 H252 0.929 . S
C211 C208 1.356 . S
C211 C213 1.358 . S
C211 H253 0.930 . S
C212 N209 1.314 . S
C212 C210 1.353 . S
C212 H254 0.930 . S
C213 N209 1.279 . S
C213 C211 1.358 . S
C213 H255 0.930 . S
C214 C215 1.348 . S
C214 C216 1.356 . S
C214 O239 1.325 . S
C215 C214 1.348 . S
C215 C217 1.353 . S
C215 H256 0.929 . S
C216 C214 1.356 . S
C216 C218 1.358 1_545 S
C216 H257 0.930 . S
C217 C215 1.353 . S
C217 N219 1.314 1_545 S
C217 H258 0.930 . S
C218 C216 1.358 1_565 S
C218 N219 1.279 . S
C218 H259 0.930 . S
N219 C217 1.314 1_565 S
N219 C218 1.279 . S
C220 C222 1.353 . S
C220 N223 1.314 . S
C220 H226 0.930 . S
C221 N223 1.279 . S
C221 C224 1.358 . S
C221 H227 0.930 . S
C222 C220 1.353 . S
C222 C225 1.348 . S
C222 H260 0.929 . S
N223 Li178 1.990 . S
N223 C220 1.314 . S
N223 C221 1.279 . S
C224 C221 1.358 . S
C224 C225 1.356 . S
C224 H261 0.930 . S
C225 C222 1.348 . S
C225 C224 1.356 . S
H226 C220 0.930 . S
H227 C221 0.930 . S
C228 N229 1.314 . S
C228 C230 1.353 . S
C228 H234 0.930 . S
N229 Li179 1.990 . S
N229 C228 1.314 . S
N229 C232 1.279 . S
C230 C228 1.353 . S
C230 C233 1.348 . S
C230 H262 0.929 . S
C231 C232 1.358 . S
C231 C233 1.356 . S
C231 H263 0.930 . S
C232 N229 1.279 . S
C232 C231 1.358 . S
C232 H235 0.930 . S
C233 C230 1.348 . S
C233 C231 1.356 . S
H234 C228 0.930 . S
H235 C232 0.930 . S
O236 Li176 1.956 . S
O236 Li177 1.970 . S
O236 Li178 1.961 . S
O236 C180 1.325 . S
O237 Li176 1.970 . S
O237 Li177 1.956 . S
O237 Li179 1.961 . S
O237 C186 1.325 . S
O238 Li176 1.961 . S
O238 Li178 1.956 . S
O238 Li179 1.970 . S
O238 C208 1.325 . S
O239 Li177 1.961 . S
O239 Li178 1.970 . S
O239 Li179 1.956 . S
O239 C214 1.325 . S
H240 C182 0.929 . S
H241 C183 0.930 . S
H242 C184 0.930 . S
H243 C185 0.930 . S
H244 C187 0.930 . S
H245 C189 0.929 . S
H246 C190 0.930 . S
H247 C191 0.930 . S
H248 C194 0.930 . S
H249 C197 0.929 . S
H250 C202 0.929 . S
H251 C203 0.930 . S
H252 C210 0.929 . S
H253 C211 0.930 . S
H254 C212 0.930 . S
H255 C213 0.930 . S
H256 C215 0.929 . S
H257 C216 0.930 . S
H258 C217 0.930 . S
H259 C218 0.930 . S
H260 C222 0.929 . S
H261 C224 0.930 . S
H262 C230 0.929 . S
H263 C231 0.930 . S
Li264 N281 1.990 . S
Li264 O324 1.956 . S
Li264 O325 1.970 . S
Li264 O326 1.961 . S
Li265 N289 1.990 . S
Li265 O324 1.970 . S
Li265 O325 1.956 . S
Li265 O327 1.961 . S
Li266 N311 1.990 . S
Li266 O324 1.961 . S
Li266 O326 1.956 . S
Li266 O327 1.970 . S
Li267 N317 1.990 . S
Li267 O325 1.961 . S
Li267 O326 1.970 . S
Li267 O327 1.956 . S
C268 C270 1.348 . S
C268 C271 1.356 . S
C268 O324 1.325 . S
N269 C272 1.314 . S
N269 C273 1.279 . S
C270 C268 1.348 . S
C270 C272 1.353 . S
C270 H328 0.929 . S
C271 C268 1.356 . S
C271 C273 1.358 . S
C271 H329 0.930 . S
C272 N269 1.314 . S
C272 C270 1.353 . S
C272 H330 0.930 . S
C273 N269 1.279 . S
C273 C271 1.358 . S
C273 H331 0.930 . S
C274 C277 1.348 . S
C274 C278 1.356 . S
C274 O325 1.325 . S
C275 N276 1.279 . S
C275 C278 1.358 . S
C275 H332 0.930 . S
N276 C275 1.279 . S
N276 C279 1.314 . S
C277 C274 1.348 . S
C277 C279 1.353 . S
C277 H333 0.929 . S
C278 C274 1.356 . S
C278 C275 1.358 . S
C278 H334 0.930 . S
C279 N276 1.314 . S
C279 C277 1.353 . S
C279 H335 0.930 . S
C280 N281 1.314 1_556 S
C280 C285 1.353 . S
C280 H286 0.930 . S
N281 Li264 1.990 . S
N281 C280 1.314 1_554 S
N281 C283 1.279 . S
C282 C283 1.358 . S
C282 C284 1.356 1_554 S
C282 H336 0.930 . S
C283 N281 1.279 . S
C283 C282 1.358 . S
C283 H287 0.930 . S
C284 C282 1.356 1_556 S
C284 C285 1.348 . S
C285 C280 1.353 . S
C285 C284 1.348 . S
C285 H337 0.929 . S
H286 C280 0.930 . S
H287 C283 0.930 . S
C288 N289 1.314 . S
C288 C290 1.353 . S
C288 H294 0.930 . S
N289 Li265 1.990 . S
N289 C288 1.314 . S
N289 C292 1.279 . S
C290 C288 1.353 . S
C290 C293 1.348 . S
C290 H338 0.929 . S
C291 C292 1.358 . S
C291 C293 1.356 . S
C291 H339 0.930 . S
C292 N289 1.279 . S
C292 C291 1.358 . S
C292 H295 0.930 . S
C293 C290 1.348 . S
C293 C291 1.356 . S
H294 C288 0.930 . S
H295 C292 0.930 . S
C296 C298 1.348 . S
C296 C299 1.356 . S
C296 O326 1.325 1_556 S
N297 C300 1.314 . S
N297 C301 1.279 . S
C298 C296 1.348 . S
C298 C300 1.353 . S
C298 H340 0.929 . S
C299 C296 1.356 . S
C299 C301 1.358 . S
C299 H341 0.930 . S
C300 N297 1.314 . S
C300 C298 1.353 . S
C300 H342 0.930 . S
C301 N297 1.279 . S
C301 C299 1.358 . S
C301 H343 0.930 . S
C302 C303 1.348 . S
C302 C304 1.356 . S
C302 O327 1.325 . S
C303 C302 1.348 . S
C303 C305 1.353 . S
C303 H344 0.929 . S
C304 C302 1.356 . S
C304 C306 1.358 . S
C304 H345 0.930 . S
C305 C303 1.353 . S
C305 N307 1.314 . S
C305 H346 0.930 . S
C306 C304 1.358 . S
C306 N307 1.279 . S
C306 H347 0.930 . S
N307 C305 1.314 . S
N307 C306 1.279 . S
C308 C310 1.353 . S
C308 N311 1.314 . S
C308 H314 0.930 . S
C309 N311 1.279 . S
C309 C312 1.358 . S
C309 H315 0.894 1_554 S
C310 C308 1.353 . S
C310 C313 1.348 . S
C310 H348 0.929 . S
N311 Li266 1.990 . S
N311 C308 1.314 . S
N311 C309 1.279 . S
C312 C309 1.358 . S
C312 C313 1.356 . S
C312 H349 0.930 1_554 S
C313 C310 1.348 . S
C313 C312 1.356 . S
H314 C308 0.930 . S
H315 C309 0.894 1_556 S
C316 N317 1.314 . S
C316 C318 1.353 . S
C316 H322 0.930 . S
N317 Li267 1.990 . S
N317 C316 1.314 . S
N317 C320 1.279 . S
C318 C316 1.353 . S
C318 C321 1.348 . S
C318 H350 0.929 1_554 S
C319 C320 1.358 . S
C319 C321 1.356 . S
C319 H351 0.930 . S
C320 N317 1.279 . S
C320 C319 1.358 . S
C320 H323 0.930 . S
C321 C318 1.348 . S
C321 C319 1.356 . S
H322 C316 0.930 . S
H323 C320 0.930 . S
O324 Li264 1.956 . S
O324 Li265 1.970 . S
O324 Li266 1.961 . S
O324 C268 1.325 . S
O325 Li264 1.970 . S
O325 Li265 1.956 . S
O325 Li267 1.961 . S
O325 C274 1.325 . S
O326 Li264 1.961 . S
O326 Li266 1.956 . S
O326 Li267 1.970 . S
O326 C296 1.325 1_554 S
O327 Li265 1.961 . S
O327 Li266 1.970 . S
O327 Li267 1.956 . S
O327 C302 1.325 . S
H328 C270 0.929 . S
H329 C271 0.930 . S
H330 C272 0.930 . S
H331 C273 0.930 . S
H332 C275 0.930 . S
H333 C277 0.929 . S
H334 C278 0.930 . S
H335 C279 0.930 . S
H336 C282 0.930 . S
H337 C285 0.929 . S
H338 C290 0.929 . S
H339 C291 0.930 . S
H340 C298 0.929 . S
H341 C299 0.930 . S
H342 C300 0.930 . S
H343 C301 0.930 . S
H344 C303 0.929 . S
H345 C304 0.930 . S
H346 C305 0.930 . S
H347 C306 0.930 . S
H348 C310 0.929 . S
H349 C312 0.930 1_556 S
H350 C318 0.929 1_556 S
H351 C319 0.930 . S
Li352 N369 1.990 . S
Li352 O412 1.956 . S
Li352 O413 1.970 . S
Li352 O414 1.961 . S
Li353 N377 1.990 . S
Li353 O412 1.970 . S
Li353 O413 1.956 . S
Li353 O415 1.961 . S
Li354 N399 1.990 . S
Li354 O412 1.961 . S
Li354 O414 1.956 . S
Li354 O415 1.970 . S
Li355 N405 1.990 . S
Li355 O413 1.961 . S
Li355 O414 1.970 . S
Li355 O415 1.956 . S
C356 C358 1.348 . S
C356 C359 1.356 . S
C356 O412 1.325 . S
N357 C360 1.314 1_455 S
N357 C361 1.279 . S
C358 C356 1.348 . S
C358 C360 1.353 . S
C358 H416 0.929 . S
C359 C356 1.356 . S
C359 C361 1.358 1_655 S
C359 H417 0.930 . S
C360 N357 1.314 1_655 S
C360 C358 1.353 . S
C360 H418 0.930 . S
C361 N357 1.279 . S
C361 C359 1.358 1_455 S
C361 H419 0.930 . S
C362 C365 1.348 . S
C362 C366 1.356 . S
C362 O413 1.325 . S
C363 N364 1.279 . S
C363 C366 1.358 . S
C363 H420 0.930 . S
N364 C363 1.279 . S
N364 C367 1.314 . S
C365 C362 1.348 . S
C365 C367 1.353 . S
C365 H421 0.929 . S
C366 C362 1.356 . S
C366 C363 1.358 . S
C366 H422 0.930 . S
C367 N364 1.314 . S
C367 C365 1.353 . S
C367 H423 0.930 . S
C368 N369 1.314 . S
C368 C373 1.353 . S
C368 H374 0.930 . S
N369 Li352 1.990 . S
N369 C368 1.314 . S
N369 C371 1.279 . S
C370 C371 1.358 . S
C370 C372 1.356 . S
C370 H424 0.930 . S
C371 N369 1.279 . S
C371 C370 1.358 . S
C371 H375 0.930 . S
C372 C370 1.356 . S
C372 C373 1.348 . S
C373 C368 1.353 . S
C373 C372 1.348 . S
C373 H425 0.929 . S
H374 C368 0.930 . S
H375 C371 0.930 . S
C376 N377 1.314 . S
C376 C378 1.353 . S
C376 H382 0.930 . S
N377 Li353 1.990 . S
N377 C376 1.314 . S
N377 C380 1.279 . S
C378 C376 1.353 . S
C378 C381 1.348 . S
C378 H426 0.929 . S
C379 C380 1.358 . S
C379 C381 1.356 . S
C379 H427 0.930 . S
C380 N377 1.279 . S
C380 C379 1.358 . S
C380 H383 0.930 . S
C381 C378 1.348 . S
C381 C379 1.356 . S
H382 C376 0.930 . S
H383 C380 0.930 . S
C384 C386 1.348 . S
C384 C387 1.356 . S
C384 O414 1.325 . S
N385 C388 1.314 . S
N385 C389 1.279 . S
C386 C384 1.348 . S
C386 C388 1.353 . S
C386 H428 0.929 . S
C387 C384 1.356 . S
C387 C389 1.358 . S
C387 H429 0.930 . S
C388 N385 1.314 . S
C388 C386 1.353 . S
C388 H430 0.930 . S
C389 N385 1.279 . S
C389 C387 1.358 . S
C389 H431 0.930 . S
C390 C391 1.348 . S
C390 C392 1.356 . S
C390 O415 1.325 . S
C391 C390 1.348 . S
C391 C393 1.353 . S
C391 H432 0.929 . S
C392 C390 1.356 . S
C392 C394 1.358 . S
C392 H433 0.930 . S
C393 C391 1.353 . S
C393 N395 1.314 . S
C393 H434 0.930 . S
C394 C392 1.358 . S
C394 N395 1.279 . S
C394 H435 0.930 . S
N395 C393 1.314 . S
N395 C394 1.279 . S
C396 C398 1.353 1_655 S
C396 N399 1.314 . S
C396 H402 0.930 . S
C397 N399 1.279 . S
C397 C400 1.358 1_655 S
C397 H403 0.930 . S
C398 C396 1.353 1_455 S
C398 C401 1.348 . S
C398 H436 0.929 . S
N399 Li354 1.990 . S
N399 C396 1.314 . S
N399 C397 1.279 . S
C400 C397 1.358 1_455 S
C400 C401 1.356 . S
C400 H437 0.930 . S
C401 C398 1.348 . S
C401 C400 1.356 . S
H402 C396 0.930 . S
H403 C397 0.930 . S
C404 N405 1.314 . S
C404 C406 1.353 . S
C404 H410 0.930 . S
N405 Li355 1.990 . S
N405 C404 1.314 . S
N405 C408 1.279 . S
C406 C404 1.353 . S
C406 C409 1.348 . S
C406 H438 0.929 . S
C407 C408 1.358 . S
C407 C409 1.356 . S
C407 H439 0.930 . S
C408 N405 1.279 . S
C408 C407 1.358 . S
C408 H411 0.930 . S
C409 C406 1.348 . S
C409 C407 1.356 . S
H410 C404 0.930 . S
H411 C408 0.930 . S
O412 Li352 1.956 . S
O412 Li353 1.970 . S
O412 Li354 1.961 . S
O412 C356 1.325 . S
O413 Li352 1.970 . S
O413 Li353 1.956 . S
O413 Li355 1.961 . S
O413 C362 1.325 . S
O414 Li352 1.961 . S
O414 Li354 1.956 . S
O414 Li355 1.970 . S
O414 C384 1.325 . S
O415 Li353 1.961 . S
O415 Li354 1.970 . S
O415 Li355 1.956 . S
O415 C390 1.325 . S
H416 C358 0.929 . S
H417 C359 0.930 . S
H418 C360 0.930 . S
H419 C361 0.930 . S
H420 C363 0.930 . S
H421 C365 0.929 . S
H422 C366 0.930 . S
H423 C367 0.930 . S
H424 C370 0.930 . S
H425 C373 0.929 . S
H426 C378 0.929 . S
H427 C379 0.930 . S
H428 C386 0.929 . S
H429 C387 0.930 . S
H430 C388 0.930 . S
H431 C389 0.930 . S
H432 C391 0.929 . S
H433 C392 0.930 . S
H434 C393 0.930 . S
H435 C394 0.930 . S
H436 C398 0.929 . S
H437 C400 0.930 . S
H438 C406 0.929 . S
H439 C407 0.930 . S
Li440 N457 1.990 . S
Li440 O500 1.956 . S
Li440 O501 1.970 . S
Li440 O502 1.961 . S
Li441 N465 1.990 . S
Li441 O500 1.970 . S
Li441 O501 1.956 . S
Li441 O503 1.961 . S
Li442 N487 1.990 . S
Li442 O500 1.961 . S
Li442 O502 1.956 . S
Li442 O503 1.970 . S
Li443 N493 1.990 . S
Li443 O501 1.961 . S
Li443 O502 1.970 . S
Li443 O503 1.956 . S
C444 C446 1.348 . S
C444 C447 1.356 . S
C444 O500 1.325 . S
N445 C448 1.314 1_545 S
N445 C449 1.279 . S
C446 C444 1.348 . S
C446 C448 1.353 . S
C446 H504 0.929 . S
C447 C444 1.356 . S
C447 C449 1.358 1_565 S
C447 H505 0.930 . S
C448 N445 1.314 1_565 S
C448 C446 1.353 . S
C448 H506 0.930 . S
C449 N445 1.279 . S
C449 C447 1.358 1_545 S
C449 H507 0.930 . S
C450 C453 1.348 . S
C450 C454 1.356 . S
C450 O501 1.325 . S
C451 N452 1.279 . S
C451 C454 1.358 . S
C451 H508 0.930 . S
N452 C451 1.279 . S
N452 C455 1.314 . S
C453 C450 1.348 . S
C453 C455 1.353 . S
C453 H509 0.929 . S
C454 C450 1.356 . S
C454 C451 1.358 . S
C454 H510 0.930 . S
C455 N452 1.314 . S
C455 C453 1.353 . S
C455 H511 0.930 . S
C456 N457 1.314 . S
C456 C461 1.353 . S
C456 H462 0.930 . S
N457 Li440 1.990 . S
N457 C456 1.314 . S
N457 C459 1.279 . S
C458 C459 1.358 . S
C458 C460 1.356 . S
C458 H512 0.930 . S
C459 N457 1.279 . S
C459 C458 1.358 . S
C459 H463 0.930 . S
C460 C458 1.356 . S
C460 C461 1.348 . S
C461 C456 1.353 . S
C461 C460 1.348 . S
C461 H513 0.929 . S
H462 C456 0.930 . S
H463 C459 0.930 . S
C464 N465 1.314 . S
C464 C466 1.353 . S
C464 H470 0.930 . S
N465 Li441 1.990 . S
N465 C464 1.314 . S
N465 C468 1.279 . S
C466 C464 1.353 . S
C466 C469 1.348 . S
C466 H514 0.929 . S
C467 C468 1.358 . S
C467 C469 1.356 . S
C467 H515 0.930 . S
C468 N465 1.279 . S
C468 C467 1.358 . S
C468 H471 0.930 . S
C469 C466 1.348 . S
C469 C467 1.356 . S
H470 C464 0.930 . S
H471 C468 0.930 . S
C472 C474 1.348 . S
C472 C475 1.356 . S
C472 O502 1.325 . S
N473 C476 1.314 . S
N473 C477 1.279 . S
C474 C472 1.348 . S
C474 C476 1.353 . S
C474 H516 0.929 . S
C475 C472 1.356 . S
C475 C477 1.358 . S
C475 H517 0.930 . S
C476 N473 1.314 . S
C476 C474 1.353 . S
C476 H518 0.930 . S
C477 N473 1.279 . S
C477 C475 1.358 . S
C477 H519 0.930 . S
C478 C479 1.348 . S
C478 C480 1.356 . S
C478 O503 1.325 . S
C479 C478 1.348 . S
C479 C481 1.353 . S
C479 H520 0.929 . S
C480 C478 1.356 . S
C480 C482 1.358 . S
C480 H521 0.930 . S
C481 C479 1.353 . S
C481 N483 1.314 . S
C481 H522 0.930 . S
C482 C480 1.358 . S
C482 N483 1.279 . S
C482 H523 0.930 . S
N483 C481 1.314 . S
N483 C482 1.279 . S
C484 C486 1.353 1_565 S
C484 N487 1.314 . S
C484 H490 0.930 . S
C485 N487 1.279 . S
C485 C488 1.358 1_565 S
C485 H491 0.930 . S
C486 C484 1.353 1_545 S
C486 C489 1.348 . S
C486 H524 0.929 . S
N487 Li442 1.990 . S
N487 C484 1.314 . S
N487 C485 1.279 . S
C488 C485 1.358 1_545 S
C488 C489 1.356 . S
C488 H525 0.930 . S
C489 C486 1.348 . S
C489 C488 1.356 . S
H490 C484 0.930 . S
H491 C485 0.930 . S
C492 N493 1.314 . S
C492 C494 1.353 . S
C492 H498 0.930 . S
N493 Li443 1.990 . S
N493 C492 1.314 . S
N493 C496 1.279 . S
C494 C492 1.353 . S
C494 C497 1.348 . S
C494 H526 0.929 . S
C495 C496 1.358 . S
C495 C497 1.356 . S
C495 H527 0.930 . S
C496 N493 1.279 . S
C496 C495 1.358 . S
C496 H499 0.930 . S
C497 C494 1.348 . S
C497 C495 1.356 . S
H498 C492 0.930 . S
H499 C496 0.930 . S
O500 Li440 1.956 . S
O500 Li441 1.970 . S
O500 Li442 1.961 . S
O500 C444 1.325 . S
O501 Li440 1.970 . S
O501 Li441 1.956 . S
O501 Li443 1.961 . S
O501 C450 1.325 . S
O502 Li440 1.961 . S
O502 Li442 1.956 . S
O502 Li443 1.970 . S
O502 C472 1.325 . S
O503 Li441 1.961 . S
O503 Li442 1.970 . S
O503 Li443 1.956 . S
O503 C478 1.325 . S
H504 C446 0.929 . S
H505 C447 0.930 . S
H506 C448 0.930 . S
H507 C449 0.930 . S
H508 C451 0.930 . S
H509 C453 0.929 . S
H510 C454 0.930 . S
H511 C455 0.930 . S
H512 C458 0.930 . S
H513 C461 0.929 . S
H514 C466 0.929 . S
H515 C467 0.930 . S
H516 C474 0.929 . S
H517 C475 0.930 . S
H518 C476 0.930 . S
H519 C477 0.930 . S
H520 C479 0.929 . S
H521 C480 0.930 . S
H522 C481 0.930 . S
H523 C482 0.930 . S
H524 C486 0.929 . S
H525 C488 0.930 . S
H526 C494 0.929 . S
H527 C495 0.930 . S
Li528 N545 1.990 . S
Li528 O588 1.956 . S
Li528 O589 1.970 . S
Li528 O590 1.961 . S
Li529 N553 1.990 . S
Li529 O588 1.970 . S
Li529 O589 1.956 . S
Li529 O591 1.961 . S
Li530 N575 1.990 . S
Li530 O588 1.961 . S
Li530 O590 1.956 . S
Li530 O591 1.970 . S
Li531 N581 1.990 . S
Li531 O589 1.961 . S
Li531 O590 1.970 . S
Li531 O591 1.956 . S
C532 C534 1.348 . S
C532 C535 1.356 . S
C532 O588 1.325 . S
N533 C536 1.314 . S
N533 C537 1.279 . S
C534 C532 1.348 . S
C534 C536 1.353 . S
C534 H592 0.929 . S
C535 C532 1.356 . S
C535 C537 1.358 . S
C535 H593 0.930 . S
C536 N533 1.314 . S
C536 C534 1.353 . S
C536 H594 0.930 . S
C537 N533 1.279 . S
C537 C535 1.358 . S
C537 H595 0.930 . S
C538 C541 1.348 . S
C538 C542 1.356 . S
C538 O589 1.325 . S
C539 N540 1.279 . S
C539 C542 1.358 . S
C539 H596 0.930 . S
N540 C539 1.279 . S
N540 C543 1.314 . S
C541 C538 1.348 . S
C541 C543 1.353 . S
C541 H597 0.929 . S
C542 C538 1.356 . S
C542 C539 1.358 . S
C542 H598 0.930 . S
C543 N540 1.314 . S
C543 C541 1.353 . S
C543 H599 0.930 . S
C544 N545 1.314 . S
C544 C549 1.353 . S
C544 H550 0.930 . S
N545 Li528 1.990 . S
N545 C544 1.314 . S
N545 C547 1.279 . S
C546 C547 1.358 . S
C546 C548 1.356 . S
C546 H600 0.930 . S
C547 N545 1.279 . S
C547 C546 1.358 . S
C547 H551 0.930 . S
C548 C546 1.356 . S
C548 C549 1.348 . S
C549 C544 1.353 . S
C549 C548 1.348 . S
C549 H601 0.929 . S
H550 C544 0.930 . S
H551 C547 0.930 . S
C552 N553 1.314 . S
C552 C554 1.353 . S
C552 H558 0.930 . S
N553 Li529 1.990 . S
N553 C552 1.314 . S
N553 C556 1.279 . S
C554 C552 1.353 . S
C554 C557 1.348 . S
C554 H602 0.929 . S
C555 C556 1.358 . S
C555 C557 1.356 . S
C555 H603 0.930 . S
C556 N553 1.279 . S
C556 C555 1.358 . S
C556 H559 0.930 . S
C557 C554 1.348 . S
C557 C555 1.356 . S
H558 C552 0.930 . S
H559 C556 0.930 . S
C560 C562 1.348 . S
C560 C563 1.356 . S
C560 O590 1.325 . S
N561 C564 1.314 . S
N561 C565 1.279 . S
C562 C560 1.348 . S
C562 C564 1.353 . S
C562 H604 0.929 . S
C563 C560 1.356 . S
C563 C565 1.358 . S
C563 H605 0.930 . S
C564 N561 1.314 . S
C564 C562 1.353 . S
C564 H606 0.930 . S
C565 N561 1.279 . S
C565 C563 1.358 . S
C565 H607 0.930 . S
C566 C567 1.348 . S
C566 C568 1.356 . S
C566 O591 1.325 . S
C567 C566 1.348 . S
C567 C569 1.353 . S
C567 H608 0.929 . S
C568 C566 1.356 . S
C568 C570 1.358 . S
C568 H609 0.930 . S
C569 C567 1.353 . S
C569 N571 1.314 . S
C569 H610 0.930 . S
C570 C568 1.358 . S
C570 N571 1.279 . S
C570 H611 0.930 . S
N571 C569 1.314 . S
N571 C570 1.279 . S
C572 C574 1.353 . S
C572 N575 1.314 . S
C572 H578 0.930 . S
C573 N575 1.279 . S
C573 C576 1.358 . S
C573 H579 0.930 . S
C574 C572 1.353 . S
C574 C577 1.348 . S
C574 H612 0.929 . S
N575 Li530 1.990 . S
N575 C572 1.314 . S
N575 C573 1.279 . S
C576 C573 1.358 . S
C576 C577 1.356 . S
C576 H613 0.930 . S
C577 C574 1.348 . S
C577 C576 1.356 . S
H578 C572 0.930 . S
H579 C573 0.930 . S
C580 N581 1.314 . S
C580 C582 1.353 . S
C580 H586 0.930 . S
N581 Li531 1.990 . S
N581 C580 1.314 . S
N581 C584 1.279 . S
C582 C580 1.353 . S
C582 C585 1.348 . S
C582 H614 0.929 . S
C583 C584 1.358 . S
C583 C585 1.356 . S
C583 H615 0.930 . S
C584 N581 1.279 . S
C584 C583 1.358 . S
C584 H587 0.930 . S
C585 C582 1.348 . S
C585 C583 1.356 . S
H586 C580 0.930 . S
H587 C584 0.930 . S
O588 Li528 1.956 . S
O588 Li529 1.970 . S
O588 Li530 1.961 . S
O588 C532 1.325 . S
O589 Li528 1.970 . S
O589 Li529 1.956 . S
O589 Li531 1.961 . S
O589 C538 1.325 . S
O590 Li528 1.961 . S
O590 Li530 1.956 . S
O590 Li531 1.970 . S
O590 C560 1.325 . S
O591 Li529 1.961 . S
O591 Li530 1.970 . S
O591 Li531 1.956 . S
O591 C566 1.325 . S
H592 C534 0.929 . S
H593 C535 0.930 . S
H594 C536 0.930 . S
H595 C537 0.930 . S
H596 C539 0.930 . S
H597 C541 0.929 . S
H598 C542 0.930 . S
H599 C543 0.930 . S
H600 C546 0.930 . S
H601 C549 0.929 . S
H602 C554 0.929 . S
H603 C555 0.930 . S
H604 C562 0.929 . S
H605 C563 0.930 . S
H606 C564 0.930 . S
H607 C565 0.930 . S
H608 C567 0.929 . S
H609 C568 0.930 . S
H610 C569 0.930 . S
H611 C570 0.930 . S
H612 C574 0.929 . S
H613 C576 0.930 . S
H614 C582 0.929 . S
H615 C583 0.930 . S
Li616 N633 1.990 . S
Li616 O676 1.956 . S
Li616 O677 1.970 . S
Li616 O678 1.961 . S
Li617 N641 1.990 . S
Li617 O676 1.970 . S
Li617 O677 1.956 . S
Li617 O679 1.961 . S
Li618 N663 1.990 . S
Li618 O676 1.961 . S
Li618 O678 1.956 . S
Li618 O679 1.970 . S
Li619 N669 1.990 . S
Li619 O677 1.961 . S
Li619 O678 1.970 . S
Li619 O679 1.956 . S
C620 C622 1.348 . S
C620 C623 1.356 . S
C620 O676 1.325 . S
N621 C624 1.314 . S
N621 C625 1.279 . S
C622 C620 1.348 . S
C622 C624 1.353 . S
C622 H680 0.929 . S
C623 C620 1.356 . S
C623 C625 1.358 . S
C623 H681 0.930 . S
C624 N621 1.314 . S
C624 C622 1.353 . S
C624 H682 0.930 . S
C625 N621 1.279 . S
C625 C623 1.358 . S
C625 H683 0.930 . S
C626 C629 1.348 . S
C626 C630 1.356 . S
C626 O677 1.325 1_554 S
C627 N628 1.279 . S
C627 C630 1.358 . S
C627 H684 0.930 . S
N628 C627 1.279 . S
N628 C631 1.314 . S
C629 C626 1.348 . S
C629 C631 1.353 . S
C629 H685 0.929 . S
C630 C626 1.356 . S
C630 C627 1.358 . S
C630 H686 0.930 . S
C631 N628 1.314 . S
C631 C629 1.353 . S
C631 H687 0.930 . S
C632 N633 1.314 . S
C632 C637 1.353 . S
C632 H638 0.930 . S
N633 Li616 1.990 . S
N633 C632 1.314 . S
N633 C635 1.279 . S
C634 C635 1.358 . S
C634 C636 1.356 . S
C634 H688 0.930 . S
C635 N633 1.279 . S
C635 C634 1.358 . S
C635 H639 0.930 . S
C636 C634 1.356 . S
C636 C637 1.348 . S
C637 C632 1.353 . S
C637 C636 1.348 . S
C637 H689 0.929 1_556 S
H638 C632 0.930 . S
H639 C635 0.930 . S
C640 N641 1.314 . S
C640 C642 1.353 1_455 S
C640 H646 0.930 . S
N641 Li617 1.990 . S
N641 C640 1.314 . S
N641 C644 1.279 . S
C642 C640 1.353 1_655 S
C642 C645 1.348 . S
C642 H690 0.929 . S
C643 C644 1.358 1_655 S
C643 C645 1.356 . S
C643 H691 0.930 1_556 S
C644 N641 1.279 . S
C644 C643 1.358 1_455 S
C644 H647 0.894 1_556 S
C645 C642 1.348 . S
C645 C643 1.356 . S
H646 C640 0.930 . S
H647 C644 0.894 1_554 S
C648 C650 1.348 . S
C648 C651 1.356 . S
C648 O678 1.325 . S
N649 C652 1.314 . S
N649 C653 1.279 . S
C650 C648 1.348 . S
C650 C652 1.353 . S
C650 H692 0.929 . S
C651 C648 1.356 . S
C651 C653 1.358 . S
C651 H693 0.930 . S
C652 N649 1.314 . S
C652 C650 1.353 . S
C652 H694 0.930 . S
C653 N649 1.279 . S
C653 C651 1.358 . S
C653 H695 0.930 . S
C654 C655 1.348 . S
C654 C656 1.356 . S
C654 O679 1.325 . S
C655 C654 1.348 . S
C655 C657 1.353 . S
C655 H696 0.929 . S
C656 C654 1.356 . S
C656 C658 1.358 1_455 S
C656 H697 0.930 . S
C657 C655 1.353 . S
C657 N659 1.314 1_455 S
C657 H698 0.930 . S
C658 C656 1.358 1_655 S
C658 N659 1.279 . S
C658 H699 0.930 . S
N659 C657 1.314 1_655 S
N659 C658 1.279 . S
C660 C662 1.353 . S
C660 N663 1.314 . S
C660 H666 0.930 . S
C661 N663 1.279 . S
C661 C664 1.358 . S
C661 H667 0.930 . S
C662 C660 1.353 . S
C662 C665 1.348 . S
C662 H700 0.929 . S
N663 Li618 1.990 . S
N663 C660 1.314 . S
N663 C661 1.279 . S
C664 C661 1.358 . S
C664 C665 1.356 . S
C664 H701 0.930 . S
C665 C662 1.348 . S
C665 C664 1.356 . S
H666 C660 0.930 . S
H667 C661 0.930 . S
C668 N669 1.314 1_554 S
C668 C670 1.353 . S
C668 H674 0.930 . S
N669 Li619 1.990 . S
N669 C668 1.314 1_556 S
N669 C672 1.279 . S
C670 C668 1.353 . S
C670 C673 1.348 . S
C670 H702 0.929 . S
C671 C672 1.358 . S
C671 C673 1.356 1_556 S
C671 H703 0.930 . S
C672 N669 1.279 . S
C672 C671 1.358 . S
C672 H675 0.930 . S
C673 C670 1.348 . S
C673 C671 1.356 1_554 S
H674 C668 0.930 . S
H675 C672 0.930 . S
O676 Li616 1.956 . S
O676 Li617 1.970 . S
O676 Li618 1.961 . S
O676 C620 1.325 . S
O677 Li616 1.970 . S
O677 Li617 1.956 . S
O677 Li619 1.961 . S
O677 C626 1.325 1_556 S
O678 Li616 1.961 . S
O678 Li618 1.956 . S
O678 Li619 1.970 . S
O678 C648 1.325 . S
O679 Li617 1.961 . S
O679 Li618 1.970 . S
O679 Li619 1.956 . S
O679 C654 1.325 . S
H680 C622 0.929 . S
H681 C623 0.930 . S
H682 C624 0.930 . S
H683 C625 0.930 . S
H684 C627 0.930 . S
H685 C629 0.929 . S
H686 C630 0.930 . S
H687 C631 0.930 . S
H688 C634 0.930 . S
H689 C637 0.929 1_554 S
H690 C642 0.929 . S
H691 C643 0.930 1_554 S
H692 C650 0.929 . S
H693 C651 0.930 . S
H694 C652 0.930 . S
H695 C653 0.930 . S
H696 C655 0.929 . S
H697 C656 0.930 . S
H698 C657 0.930 . S
H699 C658 0.930 . S
H700 C662 0.929 . S
H701 C664 0.930 . S
H702 C670 0.929 . S
H703 C671 0.930 . S
Li704 N721 1.990 . S
Li704 O764 1.956 . S
Li704 O765 1.970 . S
Li704 O766 1.961 . S
Li705 N729 1.990 . S
Li705 O764 1.970 . S
Li705 O765 1.956 . S
Li705 O767 1.961 . S
Li706 N751 1.990 . S
Li706 O764 1.961 . S
Li706 O766 1.956 . S
Li706 O767 1.970 . S
Li707 N757 1.990 . S
Li707 O765 1.961 . S
Li707 O766 1.970 . S
Li707 O767 1.956 . S
C708 C710 1.348 . S
C708 C711 1.356 . S
C708 O764 1.325 . S
N709 C712 1.314 . S
N709 C713 1.279 . S
C710 C708 1.348 . S
C710 C712 1.353 . S
C710 H768 0.929 . S
C711 C708 1.356 . S
C711 C713 1.358 . S
C711 H769 0.930 . S
C712 N709 1.314 . S
C712 C710 1.353 . S
C712 H770 0.930 . S
C713 N709 1.279 . S
C713 C711 1.358 . S
C713 H771 0.930 . S
C714 C717 1.348 . S
C714 C718 1.356 . S
C714 O765 1.325 . S
C715 N716 1.279 . S
C715 C718 1.358 . S
C715 H772 0.930 . S
N716 C715 1.279 . S
N716 C719 1.314 . S
C717 C714 1.348 . S
C717 C719 1.353 . S
C717 H773 0.929 . S
C718 C714 1.356 . S
C718 C715 1.358 . S
C718 H774 0.930 . S
C719 N716 1.314 . S
C719 C717 1.353 . S
C719 H775 0.930 . S
C720 N721 1.314 . S
C720 C725 1.353 1_545 S
C720 H726 0.930 . S
N721 Li704 1.990 . S
N721 C720 1.314 . S
N721 C723 1.279 . S
C722 C723 1.358 1_565 S
C722 C724 1.356 . S
C722 H776 0.930 . S
C723 N721 1.279 . S
C723 C722 1.358 1_545 S
C723 H727 0.930 . S
C724 C722 1.356 . S
C724 C725 1.348 . S
C725 C720 1.353 1_565 S
C725 C724 1.348 . S
C725 H777 0.929 . S
H726 C720 0.930 . S
H727 C723 0.930 . S
C728 N729 1.314 . S
C728 C730 1.353 . S
C728 H734 0.930 . S
N729 Li705 1.990 . S
N729 C728 1.314 . S
N729 C732 1.279 . S
C730 C728 1.353 . S
C730 C733 1.348 . S
C730 H778 0.929 . S
C731 C732 1.358 . S
C731 C733 1.356 . S
C731 H779 0.930 . S
C732 N729 1.279 . S
C732 C731 1.358 . S
C732 H735 0.930 . S
C733 C730 1.348 . S
C733 C731 1.356 . S
H734 C728 0.930 . S
H735 C732 0.930 . S
C736 C738 1.348 . S
C736 C739 1.356 . S
C736 O766 1.325 . S
N737 C740 1.314 1_565 S
N737 C741 1.279 . S
C738 C736 1.348 . S
C738 C740 1.353 . S
C738 H780 0.929 . S
C739 C736 1.356 . S
C739 C741 1.358 1_545 S
C739 H781 0.930 . S
C740 N737 1.314 1_545 S
C740 C738 1.353 . S
C740 H782 0.930 . S
C741 N737 1.279 . S
C741 C739 1.358 1_565 S
C741 H783 0.930 . S
C742 C743 1.348 . S
C742 C744 1.356 . S
C742 O767 1.325 . S
C743 C742 1.348 . S
C743 C745 1.353 . S
C743 H784 0.929 . S
C744 C742 1.356 . S
C744 C746 1.358 . S
C744 H785 0.930 . S
C745 C743 1.353 . S
C745 N747 1.314 . S
C745 H786 0.930 . S
C746 C744 1.358 . S
C746 N747 1.279 . S
C746 H787 0.930 . S
N747 C745 1.314 . S
N747 C746 1.279 . S
C748 C750 1.353 . S
C748 N751 1.314 . S
C748 H754 0.930 . S
C749 N751 1.279 . S
C749 C752 1.358 . S
C749 H755 0.930 . S
C750 C748 1.353 . S
C750 C753 1.348 . S
C750 H788 0.929 . S
N751 Li706 1.990 . S
N751 C748 1.314 . S
N751 C749 1.279 . S
C752 C749 1.358 . S
C752 C753 1.356 . S
C752 H789 0.930 . S
C753 C750 1.348 . S
C753 C752 1.356 . S
H754 C748 0.930 . S
H755 C749 0.930 . S
C756 N757 1.314 . S
C756 C758 1.353 . S
C756 H762 0.930 . S
N757 Li707 1.990 . S
N757 C756 1.314 . S
N757 C760 1.279 . S
C758 C756 1.353 . S
C758 C761 1.348 . S
C758 H790 0.929 . S
C759 C760 1.358 . S
C759 C761 1.356 . S
C759 H791 0.930 . S
C760 N757 1.279 . S
C760 C759 1.358 . S
C760 H763 0.930 . S
C761 C758 1.348 . S
C761 C759 1.356 . S
H762 C756 0.930 . S
H763 C760 0.930 . S
O764 Li704 1.956 . S
O764 Li705 1.970 . S
O764 Li706 1.961 . S
O764 C708 1.325 . S
O765 Li704 1.970 . S
O765 Li705 1.956 . S
O765 Li707 1.961 . S
O765 C714 1.325 . S
O766 Li704 1.961 . S
O766 Li706 1.956 . S
O766 Li707 1.970 . S
O766 C736 1.325 . S
O767 Li705 1.961 . S
O767 Li706 1.970 . S
O767 Li707 1.956 . S
O767 C742 1.325 . S
H768 C710 0.929 . S
H769 C711 0.930 . S
H770 C712 0.930 . S
H771 C713 0.930 . S
H772 C715 0.930 . S
H773 C717 0.929 . S
H774 C718 0.930 . S
H775 C719 0.930 . S
H776 C722 0.930 . S
H777 C725 0.929 . S
H778 C730 0.929 . S
H779 C731 0.930 . S
H780 C738 0.929 . S
H781 C739 0.930 . S
H782 C740 0.930 . S
H783 C741 0.930 . S
H784 C743 0.929 . S
H785 C744 0.930 . S
H786 C745 0.930 . S
H787 C746 0.930 . S
H788 C750 0.929 . S
H789 C752 0.930 . S
H790 C758 0.929 . S
H791 C759 0.930 . S
Li792 N809 1.990 . S
Li792 O852 1.956 . S
Li792 O853 1.970 . S
Li792 O854 1.961 . S
Li793 N817 1.990 . S
Li793 O852 1.970 . S
Li793 O853 1.956 . S
Li793 O855 1.961 . S
Li794 N839 1.990 . S
Li794 O852 1.961 . S
Li794 O854 1.956 . S
Li794 O855 1.970 . S
Li795 N845 1.990 . S
Li795 O853 1.961 . S
Li795 O854 1.970 . S
Li795 O855 1.956 . S
C796 C798 1.348 . S
C796 C799 1.356 . S
C796 O852 1.325 . S
N797 C800 1.314 . S
N797 C801 1.279 . S
C798 C796 1.348 . S
C798 C800 1.353 . S
C798 H856 0.929 . S
C799 C796 1.356 . S
C799 C801 1.358 . S
C799 H857 0.930 . S
C800 N797 1.314 . S
C800 C798 1.353 . S
C800 H858 0.930 . S
C801 N797 1.279 . S
C801 C799 1.358 . S
C801 H859 0.930 . S
C802 C805 1.348 . S
C802 C806 1.356 . S
C802 O853 1.325 . S
C803 N804 1.279 . S
C803 C806 1.358 . S
C803 H860 0.930 . S
N804 C803 1.279 . S
N804 C807 1.314 . S
C805 C802 1.348 . S
C805 C807 1.353 . S
C805 H861 0.929 . S
C806 C802 1.356 . S
C806 C803 1.358 . S
C806 H862 0.930 . S
C807 N804 1.314 . S
C807 C805 1.353 . S
C807 H863 0.930 . S
C808 N809 1.314 . S
C808 C813 1.353 . S
C808 H814 0.930 . S
N809 Li792 1.990 . S
N809 C808 1.314 . S
N809 C811 1.279 . S
C810 C811 1.358 . S
C810 C812 1.356 . S
C810 H864 0.930 . S
C811 N809 1.279 . S
C811 C810 1.358 . S
C811 H815 0.930 . S
C812 C810 1.356 . S
C812 C813 1.348 . S
C813 C808 1.353 . S
C813 C812 1.348 . S
C813 H865 0.929 . S
H814 C808 0.930 . S
H815 C811 0.930 . S
C816 N817 1.314 . S
C816 C818 1.353 . S
C816 H822 0.930 . S
N817 Li793 1.990 . S
N817 C816 1.314 . S
N817 C820 1.279 . S
C818 C816 1.353 . S
C818 C821 1.348 . S
C818 H866 0.929 . S
C819 C820 1.358 . S
C819 C821 1.356 . S
C819 H867 0.930 . S
C820 N817 1.279 . S
C820 C819 1.358 . S
C820 H823 0.930 . S
C821 C818 1.348 . S
C821 C819 1.356 . S
H822 C816 0.930 . S
H823 C820 0.930 . S
C824 C826 1.348 . S
C824 C827 1.356 . S
C824 O854 1.325 . S
N825 C828 1.314 . S
N825 C829 1.279 . S
C826 C824 1.348 . S
C826 C828 1.353 . S
C826 H868 0.929 . S
C827 C824 1.356 . S
C827 C829 1.358 . S
C827 H869 0.930 . S
C828 N825 1.314 . S
C828 C826 1.353 . S
C828 H870 0.930 . S
C829 N825 1.279 . S
C829 C827 1.358 . S
C829 H871 0.930 . S
C830 C831 1.348 . S
C830 C832 1.356 . S
C830 O855 1.325 . S
C831 C830 1.348 . S
C831 C833 1.353 . S
C831 H872 0.929 . S
C832 C830 1.356 . S
C832 C834 1.358 . S
C832 H873 0.930 . S
C833 C831 1.353 . S
C833 N835 1.314 . S
C833 H874 0.930 . S
C834 C832 1.358 . S
C834 N835 1.279 . S
C834 H875 0.930 . S
N835 C833 1.314 . S
N835 C834 1.279 . S
C836 C838 1.353 . S
C836 N839 1.314 . S
C836 H842 0.930 . S
C837 N839 1.279 . S
C837 C840 1.358 . S
C837 H843 0.930 . S
C838 C836 1.353 . S
C838 C841 1.348 . S
C838 H876 0.929 . S
N839 Li794 1.990 . S
N839 C836 1.314 . S
N839 C837 1.279 . S
C840 C837 1.358 . S
C840 C841 1.356 . S
C840 H877 0.930 . S
C841 C838 1.348 . S
C841 C840 1.356 . S
H842 C836 0.930 . S
H843 C837 0.930 . S
C844 N845 1.314 . S
C844 C846 1.353 . S
C844 H850 0.930 . S
N845 Li795 1.990 . S
N845 C844 1.314 . S
N845 C848 1.279 . S
C846 C844 1.353 . S
C846 C849 1.348 . S
C846 H878 0.929 . S
C847 C848 1.358 . S
C847 C849 1.356 . S
C847 H879 0.930 . S
C848 N845 1.279 . S
C848 C847 1.358 . S
C848 H851 0.930 . S
C849 C846 1.348 . S
C849 C847 1.356 . S
H850 C844 0.930 . S
H851 C848 0.930 . S
O852 Li792 1.956 . S
O852 Li793 1.970 . S
O852 Li794 1.961 . S
O852 C796 1.325 . S
O853 Li792 1.970 . S
O853 Li793 1.956 . S
O853 Li795 1.961 . S
O853 C802 1.325 . S
O854 Li792 1.961 . S
O854 Li794 1.956 . S
O854 Li795 1.970 . S
O854 C824 1.325 . S
O855 Li793 1.961 . S
O855 Li794 1.970 . S
O855 Li795 1.956 . S
O855 C830 1.325 . S
H856 C798 0.929 . S
H857 C799 0.930 . S
H858 C800 0.930 . S
H859 C801 0.930 . S
H860 C803 0.930 . S
H861 C805 0.929 . S
H862 C806 0.930 . S
H863 C807 0.930 . S
H864 C810 0.930 . S
H865 C813 0.929 . S
H866 C818 0.929 . S
H867 C819 0.930 . S
H868 C826 0.929 . S
H869 C827 0.930 . S
H870 C828 0.930 . S
H871 C829 0.930 . S
H872 C831 0.929 . S
H873 C832 0.930 . S
H874 C833 0.930 . S
H875 C834 0.930 . S
H876 C838 0.929 . S
H877 C840 0.930 . S
H878 C846 0.929 . S
H879 C847 0.930 . S
Li880 N897 1.990 . S
Li880 O940 1.956 . S
Li880 O941 1.970 . S
Li880 O942 1.961 . S
Li881 N905 1.990 . S
Li881 O940 1.970 . S
Li881 O941 1.956 . S
Li881 O943 1.961 . S
Li882 N927 1.990 . S
Li882 O940 1.961 . S
Li882 O942 1.956 . S
Li882 O943 1.970 . S
Li883 N933 1.990 . S
Li883 O941 1.961 . S
Li883 O942 1.970 . S
Li883 O943 1.956 . S
C884 C886 1.348 . S
C884 C887 1.356 . S
C884 O940 1.325 1_554 S
N885 C888 1.314 . S
N885 C889 1.279 . S
C886 C884 1.348 . S
C886 C888 1.353 . S
C886 H944 0.929 . S
C887 C884 1.356 . S
C887 C889 1.358 . S
C887 H945 0.930 . S
C888 N885 1.314 . S
C888 C886 1.353 . S
C888 H946 0.930 . S
C889 N885 1.279 . S
C889 C887 1.358 . S
C889 H947 0.930 . S
C890 C893 1.348 . S
C890 C894 1.356 . S
C890 O941 1.325 . S
C891 N892 1.279 . S
C891 C894 1.358 . S
C891 H948 0.930 . S
N892 C891 1.279 . S
N892 C895 1.314 . S
C893 C890 1.348 . S
C893 C895 1.353 . S
C893 H949 0.929 . S
C894 C890 1.356 . S
C894 C891 1.358 . S
C894 H950 0.930 . S
C895 N892 1.314 . S
C895 C893 1.353 . S
C895 H951 0.930 . S
C896 N897 1.314 . S
C896 C901 1.353 1_655 S
C896 H902 0.930 . S
N897 Li880 1.990 . S
N897 C896 1.314 . S
N897 C899 1.279 . S
C898 C899 1.358 1_455 S
C898 C900 1.356 . S
C898 H952 0.930 1_556 S
C899 N897 1.279 . S
C899 C898 1.358 1_655 S
C899 H903 0.894 1_556 S
C900 C898 1.356 . S
C900 C901 1.348 . S
C901 C896 1.353 1_455 S
C901 C900 1.348 . S
C901 H953 0.929 . S
H902 C896 0.930 . S
H903 C899 0.894 1_554 S
C904 N905 1.314 . S
C904 C906 1.353 . S
C904 H910 0.930 . S
N905 Li881 1.990 . S
N905 C904 1.314 . S
N905 C908 1.279 . S
C906 C904 1.353 . S
C906 C909 1.348 . S
C906 H954 0.929 1_556 S
C907 C908 1.358 . S
C907 C909 1.356 . S
C907 H955 0.930 . S
C908 N905 1.279 . S
C908 C907 1.358 . S
C908 H911 0.930 . S
C909 C906 1.348 . S
C909 C907 1.356 . S
H910 C904 0.930 . S
H911 C908 0.930 . S
C912 C914 1.348 . S
C912 C915 1.356 . S
C912 O942 1.325 . S
N913 C916 1.314 1_455 S
N913 C917 1.279 . S
C914 C912 1.348 . S
C914 C916 1.353 . S
C914 H956 0.929 . S
C915 C912 1.356 . S
C915 C917 1.358 1_655 S
C915 H957 0.930 . S
C916 N913 1.314 1_655 S
C916 C914 1.353 . S
C916 H958 0.930 . S
C917 N913 1.279 . S
C917 C915 1.358 1_455 S
C917 H959 0.930 . S
C918 C919 1.348 . S
C918 C920 1.356 . S
C918 O943 1.325 . S
C919 C918 1.348 . S
C919 C921 1.353 . S
C919 H960 0.929 . S
C920 C918 1.356 . S
C920 C922 1.358 . S
C920 H961 0.930 . S
C921 C919 1.353 . S
C921 N923 1.314 . S
C921 H962 0.930 . S
C922 C920 1.358 . S
C922 N923 1.279 . S
C922 H963 0.930 . S
N923 C921 1.314 . S
N923 C922 1.279 . S
C924 C926 1.353 . S
C924 N927 1.314 1_554 S
C924 H930 0.930 . S
C925 N927 1.279 . S
C925 C928 1.358 . S
C925 H931 0.930 . S
C926 C924 1.353 . S
C926 C929 1.348 . S
C926 H964 0.929 . S
N927 Li882 1.990 . S
N927 C924 1.314 1_556 S
N927 C925 1.279 . S
C928 C925 1.358 . S
C928 C929 1.356 1_556 S
C928 H965 0.930 . S
C929 C926 1.348 . S
C929 C928 1.356 1_554 S
H930 C924 0.930 . S
H931 C925 0.930 . S
C932 N933 1.314 . S
C932 C934 1.353 . S
C932 H938 0.930 . S
N933 Li883 1.990 . S
N933 C932 1.314 . S
N933 C936 1.279 . S
C934 C932 1.353 . S
C934 C937 1.348 . S
C934 H966 0.929 . S
C935 C936 1.358 . S
C935 C937 1.356 . S
C935 H967 0.930 . S
C936 N933 1.279 . S
C936 C935 1.358 . S
C936 H939 0.930 . S
C937 C934 1.348 . S
C937 C935 1.356 . S
H938 C932 0.930 . S
H939 C936 0.930 . S
O940 Li880 1.956 . S
O940 Li881 1.970 . S
O940 Li882 1.961 . S
O940 C884 1.325 1_556 S
O941 Li880 1.970 . S
O941 Li881 1.956 . S
O941 Li883 1.961 . S
O941 C890 1.325 . S
O942 Li880 1.961 . S
O942 Li882 1.956 . S
O942 Li883 1.970 . S
O942 C912 1.325 . S
O943 Li881 1.961 . S
O943 Li882 1.970 . S
O943 Li883 1.956 . S
O943 C918 1.325 . S
H944 C886 0.929 . S
H945 C887 0.930 . S
H946 C888 0.930 . S
H947 C889 0.930 . S
H948 C891 0.930 . S
H949 C893 0.929 . S
H950 C894 0.930 . S
H951 C895 0.930 . S
H952 C898 0.930 1_554 S
H953 C901 0.929 . S
H954 C906 0.929 1_554 S
H955 C907 0.930 . S
H956 C914 0.929 . S
H957 C915 0.930 . S
H958 C916 0.930 . S
H959 C917 0.930 . S
H960 C919 0.929 . S
H961 C920 0.930 . S
H962 C921 0.930 . S
H963 C922 0.930 . S
H964 C926 0.929 . S
H965 C928 0.930 . S
H966 C934 0.929 . S
H967 C935 0.930 . S
Li968 N985 1.990 . S
Li968 O1028 1.956 . S
Li968 O1029 1.970 . S
Li968 O1030 1.961 . S
Li969 N993 1.990 . S
Li969 O1028 1.970 . S
Li969 O1029 1.956 . S
Li969 O1031 1.961 . S
Li970 N1015 1.990 . S
Li970 O1028 1.961 . S
Li970 O1030 1.956 . S
Li970 O1031 1.970 . S
Li971 N1021 1.990 . S
Li971 O1029 1.961 . S
Li971 O1030 1.970 . S
Li971 O1031 1.956 . S
C972 C974 1.348 . S
C972 C975 1.356 . S
C972 O1028 1.325 . S
N973 C976 1.314 . S
N973 C977 1.279 . S
C974 C972 1.348 . S
C974 C976 1.353 . S
C974 H1032 0.929 . S
C975 C972 1.356 . S
C975 C977 1.358 . S
C975 H1033 0.930 . S
C976 N973 1.314 . S
C976 C974 1.353 . S
C976 H1034 0.930 . S
C977 N973 1.279 . S
C977 C975 1.358 . S
C977 H1035 0.930 . S
C978 C981 1.348 . S
C978 C982 1.356 . S
C978 O1029 1.325 . S
C979 N980 1.279 . S
C979 C982 1.358 . S
C979 H1036 0.930 . S
N980 C979 1.279 . S
N980 C983 1.314 . S
C981 C978 1.348 . S
C981 C983 1.353 . S
C981 H1037 0.929 . S
C982 C978 1.356 . S
C982 C979 1.358 . S
C982 H1038 0.930 . S
C983 N980 1.314 . S
C983 C981 1.353 . S
C983 H1039 0.930 . S
C984 N985 1.314 . S
C984 C989 1.353 . S
C984 H990 0.930 . S
N985 Li968 1.990 . S
N985 C984 1.314 . S
N985 C987 1.279 . S
C986 C987 1.358 . S
C986 C988 1.356 . S
C986 H1040 0.930 . S
C987 N985 1.279 . S
C987 C986 1.358 . S
C987 H991 0.930 . S
C988 C986 1.356 . S
C988 C989 1.348 . S
C989 C984 1.353 . S
C989 C988 1.348 . S
C989 H1041 0.929 . S
H990 C984 0.930 . S
H991 C987 0.930 . S
C992 N993 1.314 . S
C992 C994 1.353 1_565 S
C992 H998 0.930 . S
N993 Li969 1.990 . S
N993 C992 1.314 . S
N993 C996 1.279 . S
C994 C992 1.353 1_545 S
C994 C997 1.348 . S
C994 H1042 0.929 . S
C995 C996 1.358 1_545 S
C995 C997 1.356 . S
C995 H1043 0.930 . S
C996 N993 1.279 . S
C996 C995 1.358 1_565 S
C996 H999 0.930 . S
C997 C994 1.348 . S
C997 C995 1.356 . S
H998 C992 0.930 . S
H999 C996 0.930 . S
C1000 C1002 1.348 . S
C1000 C1003 1.356 . S
C1000 O1030 1.325 . S
N1001 C1004 1.314 . S
N1001 C1005 1.279 . S
C1002 C1000 1.348 . S
C1002 C1004 1.353 . S
C1002 H1044 0.929 . S
C1003 C1000 1.356 . S
C1003 C1005 1.358 . S
C1003 H1045 0.930 . S
C1004 N1001 1.314 . S
C1004 C1002 1.353 . S
C1004 H1046 0.930 . S
C1005 N1001 1.279 . S
C1005 C1003 1.358 . S
C1005 H1047 0.930 . S
C1006 C1007 1.348 . S
C1006 C1008 1.356 . S
C1006 O1031 1.325 . S
C1007 C1006 1.348 . S
C1007 C1009 1.353 . S
C1007 H1048 0.929 . S
C1008 C1006 1.356 . S
C1008 C1010 1.358 1_565 S
C1008 H1049 0.930 . S
C1009 C1007 1.353 . S
C1009 N1011 1.314 1_565 S
C1009 H1050 0.930 . S
C1010 C1008 1.358 1_545 S
C1010 N1011 1.279 . S
C1010 H1051 0.930 . S
N1011 C1009 1.314 1_545 S
N1011 C1010 1.279 . S
C1012 C1014 1.353 . S
C1012 N1015 1.314 . S
C1012 H1018 0.930 . S
C1013 N1015 1.279 . S
C1013 C1016 1.358 . S
C1013 H1019 0.930 . S
C1014 C1012 1.353 . S
C1014 C1017 1.348 . S
C1014 H1052 0.929 . S
N1015 Li970 1.990 . S
N1015 C1012 1.314 . S
N1015 C1013 1.279 . S
C1016 C1013 1.358 . S
C1016 C1017 1.356 . S
C1016 H1053 0.930 . S
C1017 C1014 1.348 . S
C1017 C1016 1.356 . S
H1018 C1012 0.930 . S
H1019 C1013 0.930 . S
C1020 N1021 1.314 . S
C1020 C1022 1.353 . S
C1020 H1026 0.930 . S
N1021 Li971 1.990 . S
N1021 C1020 1.314 . S
N1021 C1024 1.279 . S
C1022 C1020 1.353 . S
C1022 C1025 1.348 . S
C1022 H1054 0.929 . S
C1023 C1024 1.358 . S
C1023 C1025 1.356 . S
C1023 H1055 0.930 . S
C1024 N1021 1.279 . S
C1024 C1023 1.358 . S
C1024 H1027 0.930 . S
C1025 C1022 1.348 . S
C1025 C1023 1.356 . S
H1026 C1020 0.930 . S
H1027 C1024 0.930 . S
O1028 Li968 1.956 . S
O1028 Li969 1.970 . S
O1028 Li970 1.961 . S
O1028 C972 1.325 . S
O1029 Li968 1.970 . S
O1029 Li969 1.956 . S
O1029 Li971 1.961 . S
O1029 C978 1.325 . S
O1030 Li968 1.961 . S
O1030 Li970 1.956 . S
O1030 Li971 1.970 . S
O1030 C1000 1.325 . S
O1031 Li969 1.961 . S
O1031 Li970 1.970 . S
O1031 Li971 1.956 . S
O1031 C1006 1.325 . S
H1032 C974 0.929 . S
H1033 C975 0.930 . S
H1034 C976 0.930 . S
H1035 C977 0.930 . S
H1036 C979 0.930 . S
H1037 C981 0.929 . S
H1038 C982 0.930 . S
H1039 C983 0.930 . S
H1040 C986 0.930 . S
H1041 C989 0.929 . S
H1042 C994 0.929 . S
H1043 C995 0.930 . S
H1044 C1002 0.929 . S
H1045 C1003 0.930 . S
H1046 C1004 0.930 . S
H1047 C1005 0.930 . S
H1048 C1007 0.929 . S
H1049 C1008 0.930 . S
H1050 C1009 0.930 . S
H1051 C1010 0.930 . S
H1052 C1014 0.929 . S
H1053 C1016 0.930 . S
H1054 C1022 0.929 . S
H1055 C1023 0.930 . S
C673 C29 2.487 1_564 S
C137 C753 2.487 . S
C233 C849 2.487 1_655 S
C284 C929 2.487 1_566 S
C1025 C372 2.487 . S
C557 C460 2.487 1_655 S
C909 C49 0.957 1_556 S
C117 C988 0.957 . S
C196 C577 0.957 . S
C636 C321 0.957 1_556 S
C733 C409 0.957 . S
C812 C497 0.957 . S
C20 C761 1.717 . S
C145 C841 1.717 . S
C937 C225 1.717 . S
C293 C1017 1.717 . S
C548 C381 1.717 . S
C665 C469 1.717 . S
C313 C57 4.875 . S
C401 C108 4.877 1_455 S
C205 C489 4.876 1_565 S
C585 C821 4.876 . S
C645 C900 4.876 1_655 S
C997 C724 4.875 1_545 S
