# Generated by pormake.
# Topology wna, (6)-cn, num edge types: 1
# Building blocks:
#     Node 0, Type 0, BuildingBlock: BETDIP_clean_sbu_0, # of connection points: 6
#     Node 1, Type 0, BuildingBlock: BETDIP_clean_sbu_0, # of connection points: 6
#     Node 2, Type 0, BuildingBlock: BETDIP_clean_sbu_0, # of connection points: 6
#     Node 3, Type 0, BuildingBlock: BETDIP_clean_sbu_0, # of connection points: 6
#     Node 4, Type 0, BuildingBlock: BETDIP_clean_sbu_0, # of connection points: 6
#     Node 5, Type 0, BuildingBlock: BETDIP_clean_sbu_0, # of connection points: 6
#     Node 6, Type 0, BuildingBlock: BETDIP_clean_sbu_0, # of connection points: 6
#     Node 7, Type 0, BuildingBlock: BETDIP_clean_sbu_0, # of connection points: 6
#     Node 8, Type 0, BuildingBlock: BETDIP_clean_sbu_0, # of connection points: 6
#     Node 9, Type 0, BuildingBlock: BETDIP_clean_sbu_0, # of connection points: 6
#     Node 10, Type 0, BuildingBlock: BETDIP_clean_sbu_0, # of connection points: 6
#     Node 11, Type 0, BuildingBlock: BETDIP_clean_sbu_0, # of connection points: 6
#     Node 12, Type 0, BuildingBlock: BETDIP_clean_sbu_0, # of connection points: 6
#     Node 13, Type 0, BuildingBlock: BETDIP_clean_sbu_0, # of connection points: 6
#     Node 14, Type 0, BuildingBlock: BETDIP_clean_sbu_0, # of connection points: 6
#     Node 15, Type 0, BuildingBlock: BETDIP_clean_sbu_0, # of connection points: 6
#     Node 16, Type 0, BuildingBlock: BETDIP_clean_sbu_0, # of connection points: 6
#     Node 17, Type 0, BuildingBlock: BETDIP_clean_sbu_0, # of connection points: 6
#     Node 18, Type 0, BuildingBlock: BETDIP_clean_sbu_0, # of connection points: 6
#     Node 19, Type 0, BuildingBlock: BETDIP_clean_sbu_0, # of connection points: 6
#     Node 20, Type 0, BuildingBlock: BETDIP_clean_sbu_0, # of connection points: 6
#     Node 21, Type 0, BuildingBlock: BETDIP_clean_sbu_0, # of connection points: 6
#     Node 22, Type 0, BuildingBlock: BETDIP_clean_sbu_0, # of connection points: 6
#     Node 23, Type 0, BuildingBlock: BETDIP_clean_sbu_0, # of connection points: 6
#     Node 24, Type 0, BuildingBlock: BETDIP_clean_sbu_0, # of connection points: 6
#     Node 25, Type 0, BuildingBlock: BETDIP_clean_sbu_0, # of connection points: 6
#     Node 26, Type 0, BuildingBlock: BETDIP_clean_sbu_0, # of connection points: 6
#     Node 27, Type 0, BuildingBlock: BETDIP_clean_sbu_0, # of connection points: 6
#     Node 28, Type 0, BuildingBlock: BETDIP_clean_sbu_0, # of connection points: 6
#     Node 29, Type 0, BuildingBlock: BETDIP_clean_sbu_0, # of connection points: 6
#     Node 30, Type 0, BuildingBlock: BETDIP_clean_sbu_0, # of connection points: 6
#     Node 31, Type 0, BuildingBlock: BETDIP_clean_sbu_0, # of connection points: 6
#     Node 32, Type 0, BuildingBlock: BETDIP_clean_sbu_0, # of connection points: 6
#     Node 33, Type 0, BuildingBlock: BETDIP_clean_sbu_0, # of connection points: 6
#     Node 34, Type 0, BuildingBlock: BETDIP_clean_sbu_0, # of connection points: 6
#     Node 35, Type 0, BuildingBlock: BETDIP_clean_sbu_0, # of connection points: 6
#     Edge 36, Type (0, 0), None
#     Edge 37, Type (0, 0), None
#     Edge 38, Type (0, 0), None
#     Edge 39, Type (0, 0), None
#     Edge 40, Type (0, 0), None
#     Edge 41, Type (0, 0), None
#     Edge 42, Type (0, 0), None
#     Edge 43, Type (0, 0), None
#     Edge 44, Type (0, 0), None
#     Edge 45, Type (0, 0), None
#     Edge 46, Type (0, 0), None
#     Edge 47, Type (0, 0), None
#     Edge 48, Type (0, 0), None
#     Edge 49, Type (0, 0), None
#     Edge 50, Type (0, 0), None
#     Edge 51, Type (0, 0), None
#     Edge 52, Type (0, 0), None
#     Edge 53, Type (0, 0), None
#     Edge 54, Type (0, 0), None
#     Edge 55, Type (0, 0), None
#     Edge 56, Type (0, 0), None
#     Edge 57, Type (0, 0), None
#     Edge 58, Type (0, 0), None
#     Edge 59, Type (0, 0), None
#     Edge 60, Type (0, 0), None
#     Edge 61, Type (0, 0), None
#     Edge 62, Type (0, 0), None
#     Edge 63, Type (0, 0), None
#     Edge 64, Type (0, 0), None
#     Edge 65, Type (0, 0), None
#     Edge 66, Type (0, 0), None
#     Edge 67, Type (0, 0), None
#     Edge 68, Type (0, 0), None
#     Edge 69, Type (0, 0), None
#     Edge 70, Type (0, 0), None
#     Edge 71, Type (0, 0), None
#     Edge 72, Type (0, 0), None
#     Edge 73, Type (0, 0), None
#     Edge 74, Type (0, 0), None
#     Edge 75, Type (0, 0), None
#     Edge 76, Type (0, 0), None
#     Edge 77, Type (0, 0), None
#     Edge 78, Type (0, 0), None
#     Edge 79, Type (0, 0), None
#     Edge 80, Type (0, 0), None
#     Edge 81, Type (0, 0), None
#     Edge 82, Type (0, 0), None
#     Edge 83, Type (0, 0), None
#     Edge 84, Type (0, 0), None
#     Edge 85, Type (0, 0), None
#     Edge 86, Type (0, 0), None
#     Edge 87, Type (0, 0), None
#     Edge 88, Type (0, 0), None
#     Edge 89, Type (0, 0), None
#     Edge 90, Type (0, 0), None
#     Edge 91, Type (0, 0), None
#     Edge 92, Type (0, 0), None
#     Edge 93, Type (0, 0), None
#     Edge 94, Type (0, 0), None
#     Edge 95, Type (0, 0), None
#     Edge 96, Type (0, 0), None
#     Edge 97, Type (0, 0), None
#     Edge 98, Type (0, 0), None
#     Edge 99, Type (0, 0), None
#     Edge 100, Type (0, 0), None
#     Edge 101, Type (0, 0), None
#     Edge 102, Type (0, 0), None
#     Edge 103, Type (0, 0), None
#     Edge 104, Type (0, 0), None
#     Edge 105, Type (0, 0), None
#     Edge 106, Type (0, 0), None
#     Edge 107, Type (0, 0), None
#     Edge 108, Type (0, 0), None
#     Edge 109, Type (0, 0), None
#     Edge 110, Type (0, 0), None
#     Edge 111, Type (0, 0), None
#     Edge 112, Type (0, 0), None
#     Edge 113, Type (0, 0), None
#     Edge 114, Type (0, 0), None
#     Edge 115, Type (0, 0), None
#     Edge 116, Type (0, 0), None
#     Edge 117, Type (0, 0), None
#     Edge 118, Type (0, 0), None
#     Edge 119, Type (0, 0), None
#     Edge 120, Type (0, 0), None
#     Edge 121, Type (0, 0), None
#     Edge 122, Type (0, 0), None
#     Edge 123, Type (0, 0), None
#     Edge 124, Type (0, 0), None
#     Edge 125, Type (0, 0), None
#     Edge 126, Type (0, 0), None
#     Edge 127, Type (0, 0), None
#     Edge 128, Type (0, 0), None
#     Edge 129, Type (0, 0), None
#     Edge 130, Type (0, 0), None
#     Edge 131, Type (0, 0), None
#     Edge 132, Type (0, 0), None
#     Edge 133, Type (0, 0), None
#     Edge 134, Type (0, 0), None
#     Edge 135, Type (0, 0), None
#     Edge 136, Type (0, 0), None
#     Edge 137, Type (0, 0), None
#     Edge 138, Type (0, 0), None
#     Edge 139, Type (0, 0), None
#     Edge 140, Type (0, 0), None
#     Edge 141, Type (0, 0), None
#     Edge 142, Type (0, 0), None
#     Edge 143, Type (0, 0), None
# Relax obj value: 0.133
# Max RMSD: 0.244
# Mean RMSD: 0.224
data_MOF--net-wna--node1-BETDIP_clean_sbu_0--edge1-none
_symmetry_space_group_name_H-M    P1
_symmetry_Int_Tables_number       1
_symmetry_cell_setting            triclinic
loop_
_symmetry_equiv_pos_as_xyz
'x, y, z'
_cell_length_a     17.550702
_cell_length_b     17.549957
_cell_length_c     104.71372
_cell_angle_alpha  89.997698
_cell_angle_beta   90.002429
_cell_angle_gamma 119.99851
loop_
_atom_site_label
_atom_site_type_symbol
_atom_site_fract_x
_atom_site_fract_y
_atom_site_fract_z
_atom_type_partial_charge
Tb0 Tb 0.17278 0.3043 0.1717 0.0
Tb1 Tb 0.16385 0.28038 0.20115 0.0
C2 C 0.1691 0.35774 0.14972 0.0
C3 C 0.21597 0.37304 0.1375 0.0
C4 C 0.24263 0.4522 0.13102 0.0
C5 C 0.27044 0.46168 0.11835 0.0
C6 C 0.27106 0.39162 0.11193 0.0
C7 C 0.25139 0.31507 0.11875 0.0
C8 C 0.22444 0.30595 0.13148 0.0
C9 C 0.22381 0.18961 0.17876 0.0
C10 C 0.34776 0.40094 0.18715 0.0
C11 C 0.13536 0.22289 0.224 0.0
C12 C 0.11769 0.23084 0.23788 0.0
C13 C 1.03195 0.17881 0.24277 0.0
C14 C 1.01483 0.17483 0.25596 0.0
C15 C 0.08292 0.22235 0.26483 0.0
C16 C 0.16886 0.27496 0.25993 0.0
C17 C 0.186 0.27895 0.24668 0.0
C18 C 0.13613 0.40834 0.1919 0.0
C19 C 1.00876 0.14562 0.18265 0.0
O20 O 0.21168 0.4113 0.15921 0.0
O21 O 0.12126 0.27546 0.15331 0.0
O22 O 0.19976 0.23275 0.18543 0.0
O23 O 0.22269 0.21325 0.16706 0.0
O24 O 0.30194 0.40806 0.1777 0.0
O25 O 0.30804 0.34717 0.19706 0.0
O26 O 1.07372 0.20736 0.21566 0.0
O27 O 0.21429 0.27159 0.21916 0.0
O28 O 0.11121 0.33368 0.18717 0.0
O29 O 0.17252 0.40969 0.20274 0.0
O30 O 1.05409 0.15538 0.19332 0.0
O31 O 1.03599 0.20838 0.17406 0.0
H32 H 0.23669 0.5047 0.13549 0.0
H33 H 0.28436 0.52112 0.11329 0.0
H34 H 0.25194 0.26043 0.11402 0.0
H35 H 0.20531 0.24446 0.13634 0.0
H36 H 0.97788 0.13849 0.23641 0.0
H37 H 0.94816 0.13176 0.25921 0.0
H38 H 0.22335 0.31293 0.26634 0.0
H39 H 0.25323 0.31817 0.24339 0.0
Tb40 Tb 0.82145 0.89346 0.17142 0.0
Tb41 Tb 0.84467 0.90753 0.20081 0.0
C42 C 0.76832 0.83719 0.14941 0.0
C43 C 0.75305 0.86929 0.13724 0.0
C44 C 0.67388 0.81709 0.13074 0.0
C45 C 0.66449 0.83584 0.11809 0.0
C46 C 0.73466 0.90663 0.11171 0.0
C47 C 0.81116 0.9633 0.11855 0.0
C48 C 0.82018 0.94506 0.13127 0.0
C49 C 0.93598 0.05896 0.17866 0.0
C50 C 0.72443 0.97135 0.18692 0.0
C51 C 0.9032 0.93656 0.22354 0.0
C52 C 0.89536 0.90991 0.2373 0.0
C53 C 0.95326 0.88361 0.24225 0.0
C54 C 0.95698 0.86999 0.25541 0.0
C55 C 0.90302 0.88246 0.26412 0.0
C56 C 0.8439 0.90747 0.25912 0.0
C57 C 0.84043 0.92141 0.24593 0.0
C58 C 0.71672 0.75202 0.19157 0.0
C59 C 0.97993 0.88769 0.18242 0.0
O60 O 0.71462 0.82569 0.1589 0.0
O61 O 0.85058 0.8716 0.15301 0.0
O62 O 0.89249 0.99138 0.1852 0.0
O63 O 0.91279 1.03483 0.16692 0.0
O64 O 0.71768 0.91896 0.17741 0.0
O65 O 0.77808 0.98512 0.19683 0.0
O66 O 0.919 0.89101 0.21514 0.0
O67 O 0.85355 0.96612 0.21884 0.0
O68 O 0.79142 0.80165 0.18682 0.0
O69 O 0.71545 0.78713 0.20241 0.0
O70 O 0.96976 0.92293 0.19308 0.0
O71 O 0.91767 0.85281 0.17374 0.0
H72 H 0.62135 0.75852 0.13518 0.0
H73 H 0.6051 0.79047 0.11301 0.0
H74 H 0.86588 1.01855 0.11385 0.0
H75 H 0.88167 0.98723 0.13614 0.0
H76 H 0.99828 0.87635 0.23597 0.0
H77 H 1.00481 0.85281 0.25876 0.0
H78 H 0.80056 0.91715 0.26543 0.0
H79 H 0.79609 0.94314 0.24254 0.0
Tb80 Tb 0.23243 0.9526 0.17151 0.0
Tb81 Tb 0.21767 0.96106 0.2009 0.0
C82 C 0.28944 0.95631 0.14952 0.0
C83 C 0.25747 0.90924 0.13733 0.0
C84 C 0.30961 0.88224 0.13082 0.0
C85 C 0.29086 0.85419 0.11817 0.0
C86 C 0.22011 0.85368 0.11179 0.0
C87 C 0.16352 0.8736 0.11864 0.0
C88 C 0.18177 0.90078 0.13136 0.0
C89 C 1.06674 0.9014 0.17857 0.0
C90 C 0.15403 0.77727 0.18696 0.0
C91 C 0.18911 0.99011 0.2237 0.0
C92 C 0.21552 1.008 0.23749 0.0
C93 C 0.24229 0.09202 0.24256 0.0
C94 C 0.25553 0.10851 0.25575 0.0
C95 C 0.24216 1.0414 0.2644 0.0
C96 C 0.21679 0.95746 0.25928 0.0
C97 C 0.20326 0.9409 0.24605 0.0
C98 C 0.37329 0.9888 0.19167 0.0
C99 C 0.23746 0.11642 0.18259 0.0
O100 O 0.30049 0.91373 0.159 0.0
O101 O 0.25519 1.00429 0.15313 0.0
O102 O 0.1339 0.92531 0.18523 0.0
O103 O 0.09147 0.90269 0.16685 0.0
O104 O 0.2065 0.82306 0.17746 0.0
O105 O 0.1402 0.81698 0.19688 0.0
O106 O 0.23514 0.05165 0.21534 0.0
O107 O 0.15873 0.91102 0.21891 0.0
O108 O 0.32372 1.01399 0.18695 0.0
O109 O 0.33804 0.95203 0.20248 0.0
O110 O 0.20205 0.07074 0.19322 0.0
O111 O 0.27258 0.08932 0.17391 0.0
H112 H 0.36811 0.88812 0.13526 0.0
H113 H 0.33616 0.84007 0.11309 0.0
H114 H 0.1083 0.87314 0.11394 0.0
H115 H 0.13964 0.92013 0.13623 0.0
H116 H 0.25021 0.14484 0.23635 0.0
H117 H 0.27316 0.17347 0.25917 0.0
H118 H 0.20648 0.90389 0.26551 0.0
H119 H 0.18119 0.87496 0.24259 0.0
Tb120 Tb 0.32777 0.15071 0.37163 0.0
Tb121 Tb 0.3069 0.14039 0.34216 0.0
C122 C 0.37771 0.14619 0.39381 0.0
C123 C 0.39267 0.19206 0.4061 0.0
C124 C 0.47179 0.21834 0.41257 0.0
C125 C 0.48051 0.24362 0.42536 0.0
C126 C 0.40969 0.24192 0.43188 0.0
C127 C 0.33324 0.22293 0.42509 0.0
C128 C 0.32489 0.1986 0.41225 0.0
C129 C 0.21668 0.20505 0.36381 0.0
C130 C 0.42767 0.32429 0.35614 0.0
C131 C 0.25048 0.11183 0.31929 0.0
C132 C 0.25826 0.09253 0.30554 0.0
C133 C 0.19749 1.00966 0.30046 0.0
C134 C 0.19373 0.99269 0.28729 0.0
C135 C 0.25065 0.05815 0.27866 0.0
C136 C 0.31282 0.14078 0.28379 0.0
C137 C 0.31624 0.15787 0.29701 0.0
C138 C 0.4329 0.11179 0.35184 0.0
C139 C 0.17144 0.98482 0.36051 0.0
O140 O 0.43281 0.18853 0.38446 0.0
O141 O 0.29568 0.09995 0.39002 0.0
O142 O 0.25875 0.17798 0.35754 0.0
O143 O 0.23845 0.20423 0.37564 0.0
O144 O 0.43414 0.27805 0.36558 0.0
O145 O 0.374 0.28482 0.34621 0.0
O146 O 0.23237 1.05015 0.32774 0.0
O147 O 0.30128 0.19073 0.32401 0.0
O148 O 0.35805 0.08768 0.35644 0.0
O149 O 0.43557 0.14774 0.3409 0.0
O150 O 0.18175 1.02964 0.34976 0.0
O151 O 0.23278 1.01362 0.36932 0.0
H152 H 0.52473 0.21364 0.40801 0.0
H153 H 0.53986 0.25703 0.4304 0.0
H154 H 0.27801 0.22164 0.42992 0.0
H155 H 0.26334 0.17958 0.40742 0.0
H156 H 0.15033 0.95832 0.30667 0.0
H157 H 0.14362 0.9289 0.28385 0.0
H158 H 0.35859 0.19299 0.27758 0.0
H159 H 0.36297 0.22296 0.30048 0.0
Tb160 Tb 0.98199 0.20552 0.37105 0.0
Tb161 Tb 0.98179 0.19121 0.34276 0.0
C162 C 0.97961 0.25161 0.39365 0.0
C163 C 0.92896 0.21907 0.40558 0.0
C164 C 0.90341 0.27277 0.41199 0.0
C165 C 0.87513 0.25513 0.42465 0.0
C166 C 0.87291 0.18391 0.43115 0.0
C167 C 0.8907 0.12552 0.42436 0.0
C168 C 0.91825 0.14275 0.41165 0.0
C169 C 0.95052 1.0493 0.36294 0.0
C170 C 0.80008 0.12994 0.35723 0.0
C171 C 0.9938 0.15735 0.31935 0.0
C172 C 1.02257 0.18753 0.30583 0.0
C173 C 0.10282 0.19878 0.3011 0.0
C174 C 0.12345 0.21243 0.28797 0.0
C175 C 1.06414 0.21445 0.27906 0.0
C176 C 0.98467 0.20499 0.28386 0.0
C177 C 0.96416 0.19146 0.29697 0.0
C178 C 1.01861 0.35003 0.35185 0.0
C179 C 0.14652 0.22203 0.35945 0.0
O180 O 0.94386 0.27132 0.38416 0.0
O181 O 1.02277 0.21279 0.38989 0.0
O182 O 0.92601 0.09731 0.35761 0.0
O183 O 0.97948 0.08088 0.37418 0.0
O184 O 0.8486 0.17809 0.36685 0.0
O185 O 0.83811 0.11482 0.34725 0.0
O186 O 1.05269 0.17112 0.32806 0.0
O187 O 0.92749 0.16191 0.32417 0.0
O188 O 1.0443 0.30013 0.3562 0.0
O189 O 0.97795 0.31445 0.34132 0.0
O190 O 0.09769 0.18174 0.34927 0.0
O191 O 0.12049 0.26101 0.36761 0.0
H192 H 0.91135 0.33201 0.40751 0.0
H193 H 0.8627 0.30184 0.42966 0.0
H194 H 0.88882 0.06983 0.42914 0.0
H195 H 0.93671 0.09957 0.40689 0.0
H196 H 0.14873 0.194 0.3075 0.0
H197 H 0.18464 0.21793 0.28476 0.0
H198 H 0.93732 0.207 0.27745 0.0
H199 H 0.90092 0.18129 0.30011 0.0
Tb200 Tb 0.91909 0.79796 0.37122 0.0
Tb201 Tb 0.93613 0.81604 0.34174 0.0
C202 C 0.85586 0.74646 0.39298 0.0
C203 C 0.88314 0.73072 0.4055 0.0
C204 C 0.82613 0.65364 0.41213 0.0
C205 C 0.84148 0.64464 0.42496 0.0
C206 C 0.91356 0.71321 0.43136 0.0
C207 C 0.97422 0.78759 0.42447 0.0
C208 C 0.95948 0.79608 0.41158 0.0
C209 C 0.08531 0.91028 0.36429 0.0
C210 C 0.99927 0.69899 0.35659 0.0
C211 C 0.96564 0.87172 0.31888 0.0
C212 C 0.93869 0.86474 0.30515 0.0
C213 C 0.91735 0.92631 0.30017 0.0
C214 C 0.90398 0.93062 0.28702 0.0
C215 C 0.91164 0.87351 0.27833 0.0
C216 C 0.9316 0.81073 0.28336 0.0
C217 C 0.94539 0.80671 0.29655 0.0
C218 C 0.77922 0.69262 0.35117 0.0
C219 C 0.92417 0.95889 0.3593 0.0
O220 O 0.84616 0.692 0.38369 0.0
O221 O 0.89336 0.82876 0.38928 0.0
O222 O 1.01888 0.86548 0.35754 0.0
O223 O 1.05955 0.88886 0.37604 0.0
O224 O 0.94704 0.69436 0.36602 0.0
O225 O 1.01291 0.75002 0.34637 0.0
O226 O 0.92327 0.89172 0.32728 0.0
O227 O 0.99148 0.81911 0.32363 0.0
O228 O 0.82981 0.76796 0.35558 0.0
O229 O 0.81378 0.68792 0.34047 0.0
O230 O 0.95816 0.94421 0.34889 0.0
O231 O 0.88577 0.89883 0.3682 0.0
H232 H 0.76691 0.60266 0.40762 0.0
H233 H 0.79319 0.58705 0.43011 0.0
H234 H 1.03036 0.84105 0.42922 0.0
H235 H 1.00509 0.85594 0.40662 0.0
H236 H 0.91392 0.97367 0.30642 0.0
H237 H 0.89087 0.98128 0.28365 0.0
H238 H 0.9375 0.76494 0.27708 0.0
H239 H 0.96328 0.75948 0.29995 0.0
Tb240 Tb 0.98725 0.81985 0.84265 0.0
Tb241 Tb 0.97779 0.79596 0.872 0.0
C242 C 1.0172 0.87826 0.81989 0.0
C243 C 1.0357 0.87037 0.80611 0.0
C244 C 0.11898 0.9299 0.80102 0.0
C245 C 0.13569 0.93348 0.78784 0.0
C246 C 1.06955 0.87767 0.7792 0.0
C247 C 0.98643 0.81682 0.78434 0.0
C248 C 0.96963 0.81353 0.79757 0.0
C249 C 1.01485 0.69193 0.85185 0.0
C250 C 0.1421 0.95487 0.86115 0.0
C251 C 0.98041 0.74117 0.8939 0.0
C252 C 0.93407 0.72751 0.9061 0.0
C253 C 0.91028 0.65053 0.91301 0.0
C254 C 0.88478 0.64413 0.92575 0.0
C255 C 0.88388 0.71524 0.93178 0.0
C256 C 0.89975 0.78896 0.92452 0.0
C257 C 0.92412 0.79486 0.91171 0.0
C258 C 0.92681 0.91067 0.86495 0.0
C259 C 0.80312 0.6991 0.85647 0.0
O260 O 0.07843 0.89369 0.8283 0.0
O261 O 0.93795 0.82915 0.82461 0.0
O262 O 1.03978 0.76644 0.85663 0.0
O263 O 0.97856 0.69064 0.841 0.0
O264 O 0.0969 0.94485 0.85047 0.0
O265 O 0.11459 0.89243 0.8698 0.0
O266 O 0.93637 0.68829 0.88443 0.0
O267 O 1.03019 0.82323 0.89033 0.0
O268 O 0.95101 0.86765 0.85829 0.0
O269 O 0.92784 0.887 0.87666 0.0
O270 O 0.849 0.69193 0.86591 0.0
O271 O 0.84292 0.75317 0.8466 0.0
H272 H 0.17093 0.97622 0.80722 0.0
H273 H 0.19992 0.98256 0.78439 0.0
H274 H 0.93366 0.77196 0.77813 0.0
H275 H 0.90424 0.76779 0.80104 0.0
H276 H 0.91727 0.59786 0.90882 0.0
H277 H 0.87364 0.58686 0.93117 0.0
H278 H 0.8989 0.84427 0.92897 0.0
H279 H 0.94087 0.85452 0.90649 0.0
Tb280 Tb 0.30626 0.19234 0.84275 0.0
Tb281 Tb 0.33004 0.20733 0.8721 0.0
C282 C 0.24743 0.16279 0.82003 0.0
C283 C 0.25468 0.18899 0.80625 0.0
C284 C 0.19567 0.21377 0.80126 0.0
C285 C 0.19123 0.22651 0.7881 0.0
C286 C 0.24564 0.21474 0.77937 0.0
C287 C 0.30603 0.19148 0.7844 0.0
C288 C 0.31018 0.17835 0.79761 0.0
C289 C 0.43418 0.34809 0.85186 0.0
C290 C 0.17127 0.21273 0.86119 0.0
C291 C 0.38474 0.2649 0.89399 0.0
C292 C 0.39842 0.23213 0.90618 0.0
C293 C 0.47531 0.28532 0.9131 0.0
C294 C 0.4817 0.266 0.92583 0.0
C295 C 0.41067 0.19375 0.93183 0.0
C296 C 0.33708 0.1359 0.92455 0.0
C297 C 0.3312 0.15461 0.91176 0.0
C298 C 0.21526 1.04157 0.86505 0.0
C299 C 0.42689 0.12914 0.85668 0.0
O300 O 0.23135 0.20813 0.82843 0.0
O301 O 0.29749 0.13372 0.82472 0.0
O302 O 0.35972 0.29862 0.85668 0.0
O303 O 0.4353 0.31288 0.84103 0.0
O304 O 0.18134 0.17739 0.85053 0.0
O305 O 0.23364 0.24772 0.86985 0.0
O306 O 0.43767 0.27386 0.88453 0.0
O307 O 0.30267 0.23254 0.89042 0.0
O308 O 0.25854 0.10879 0.85842 0.0
O309 O 0.23876 0.06628 0.87677 0.0
O310 O 0.43405 0.18235 0.86609 0.0
O311 O 0.37282 0.11469 0.8468 0.0
H312 H 0.15034 0.22048 0.80755 0.0
H313 H 0.14252 0.24245 0.78474 0.0
H314 H 0.34981 0.18244 0.7781 0.0
H315 H 0.35543 0.15783 0.80101 0.0
H316 H 0.5279 0.34514 0.90894 0.0
H317 H 0.53887 0.31212 0.93127 0.0
H318 H 0.28183 0.07958 0.92898 0.0
H319 H 0.27162 0.11167 0.90652 0.0
Tb320 Tb 0.93397 0.13967 0.84272 0.0
Tb321 Tb 0.91866 0.14797 0.87208 0.0
C322 C 0.96429 0.11129 0.82 0.0
C323 C 0.93871 0.093 0.8062 0.0
C324 C 0.91799 1.01075 0.80104 0.0
C325 C 0.90555 0.99445 0.78786 0.0
C326 C 0.91342 0.05998 0.77929 0.0
C327 C 0.93271 0.14207 0.7845 0.0
C328 C 0.94563 0.1585 0.79774 0.0
C329 C 0.77801 0.11141 0.85182 0.0
C330 C 0.91338 0.98398 0.8611 0.0
C331 C 0.86096 0.14473 0.89397 0.0
C332 C 0.89373 0.19114 0.90616 0.0
C333 C 0.84057 0.21485 0.91309 0.0
C334 C 0.86 0.24068 0.92582 0.0
C335 C 0.93233 0.242 0.93181 0.0
C336 C 0.99012 0.2262 0.92452 0.0
C337 C 0.9713 0.20149 0.91173 0.0
C338 C 0.08451 0.19916 0.86507 0.0
C339 C 0.99682 0.3232 0.8567 0.0
O340 O 0.91863 1.04947 0.82834 0.0
O341 O 0.99309 0.19022 0.82476 0.0
O342 O 0.82759 0.08655 0.85663 0.0
O343 O 0.81319 0.1478 0.84099 0.0
O344 O 0.94887 1.02957 0.85045 0.0
O345 O 0.8783 1.01122 0.86976 0.0
O346 O 0.8519 0.18873 0.88452 0.0
O347 O 0.89341 0.09514 0.89038 0.0
O348 O 1.01737 0.1753 0.85841 0.0
O349 O 1.05965 0.19775 0.87678 0.0
O350 O 0.9436 0.27703 0.8661 0.0
O351 O 1.0114 0.28376 0.84682 0.0
H352 H 0.91418 0.95937 0.8072 0.0
H353 H 0.89281 0.9311 0.78436 0.0
H354 H 0.93864 0.1943 0.77835 0.0
H355 H 0.96292 0.22315 0.80128 0.0
H356 H 0.78072 0.20758 0.90894 0.0
H357 H 0.81391 0.25175 0.93126 0.0
H358 H 1.0465 0.22736 0.92895 0.0
H359 H 1.01423 0.18486 0.9065 0.0
Tb360 Tb 0.84852 0.96423 0.70165 0.0
Tb361 Tb 0.82371 0.95555 0.67214 0.0
C362 C 0.90787 0.99364 0.72433 0.0
C363 C 0.89907 1.01109 0.73813 0.0
C364 C 0.95533 0.09527 0.74322 0.0
C365 C 0.95848 0.11138 0.75642 0.0
C366 C 0.90541 1.04372 0.76504 0.0
C367 C 0.84765 0.95966 0.75989 0.0
C368 C 0.84488 0.94348 0.74666 0.0
C369 C 0.72048 0.99108 0.69251 0.0
C370 C 0.98184 0.11955 0.68305 0.0
C371 C 0.76794 0.95974 0.65039 0.0
C372 C 0.75313 0.91434 0.63809 0.0
C373 C 0.67693 0.89375 0.63119 0.0
C374 C 0.66988 0.86894 0.61841 0.0
C375 C 0.73958 0.86557 0.61235 0.0
C376 C 0.81249 0.87867 0.61957 0.0
C377 C 0.81899 0.90232 0.63241 0.0
C378 C 0.93844 0.90488 0.67921 0.0
C379 C 0.72887 0.78082 0.68763 0.0
O380 O 0.92249 0.05511 0.71601 0.0
O381 O 0.85948 0.91447 0.71955 0.0
O382 O 0.7948 1.01608 0.68771 0.0
O383 O 0.71935 0.95566 0.70343 0.0
O384 O 0.97255 0.07427 0.69371 0.0
O385 O 0.9192 0.09225 0.67446 0.0
O386 O 0.71543 0.91526 0.65987 0.0
O387 O 0.85037 1.00858 0.65386 0.0
O388 O 0.89553 0.92927 0.68582 0.0
O389 O 0.91491 0.90575 0.66748 0.0
O390 O 0.72077 0.82659 0.67826 0.0
O391 O 0.78269 0.82032 0.69753 0.0
H392 H 0.99949 0.14856 0.73702 0.0
H393 H 1.00518 0.17648 0.75987 0.0
H394 H 0.80487 0.9057 0.76609 0.0
H395 H 0.80174 0.87743 0.74317 0.0
H396 H 0.62552 0.9026 0.63542 0.0
H397 H 0.61336 0.86003 0.613 0.0
H398 H 0.86675 0.87607 0.61507 0.0
H399 H 0.87807 0.91681 0.63762 0.0
Tb400 Tb 0.16671 0.9104 0.7014 0.0
Tb401 Tb 0.17371 0.8971 0.67195 0.0
C402 C 0.13837 0.93872 0.72424 0.0
C403 C 0.11995 0.91222 0.73803 0.0
C404 C 1.03644 0.8876 0.74311 0.0
C405 C 1.01981 0.87458 0.7563 0.0
C406 C 0.08627 0.88596 0.76494 0.0
C407 C 0.16965 0.90912 0.75981 0.0
C408 C 0.18636 0.92249 0.74658 0.0
C409 C 0.13774 0.75524 0.69189 0.0
C410 C 1.01053 0.89013 0.68316 0.0
C411 C 0.16898 0.84023 0.64997 0.0
C412 C 0.2156 0.87197 0.63779 0.0
C413 C 0.23903 0.81796 0.63103 0.0
C414 C 0.26534 0.83644 0.61832 0.0
C415 C 0.26741 0.90864 0.61217 0.0
C416 C 0.25176 0.96721 0.61928 0.0
C417 C 0.22651 0.94931 0.63206 0.0
C418 C 0.22487 0.06242 0.67938 0.0
C419 C 0.34938 0.97389 0.68705 0.0
O420 O 0.0766 0.89383 0.71587 0.0
O421 O 0.2173 0.96792 0.71946 0.0
O422 O 0.11277 0.80528 0.68731 0.0
O423 O 0.17476 0.78936 0.70274 0.0
O424 O 1.05679 0.9261 0.69375 0.0
O425 O 1.03695 0.8542 0.67455 0.0
O426 O 0.2119 0.829 0.65938 0.0
O427 O 0.12154 0.87502 0.65363 0.0
O428 O 0.20138 0.99466 0.68585 0.0
O429 O 0.22307 1.03859 0.66759 0.0
O430 O 0.30239 0.92067 0.67772 0.0
O431 O 0.31079 0.98819 0.69709 0.0
H432 H 0.98421 0.88124 0.7369 0.0
H433 H 0.95536 0.85873 0.75973 0.0
H434 H 0.22269 0.91787 0.76604 0.0
H435 H 0.25195 0.94291 0.74312 0.0
H436 H 0.23119 0.75819 0.6353 0.0
H437 H 0.27618 0.78973 0.613 0.0
H438 H 0.25331 1.02339 0.61472 0.0
H439 H 0.20995 0.99279 0.63716 0.0
Tb440 Tb 0.21404 0.28191 0.70191 0.0
Tb441 Tb 0.23419 0.30761 0.67238 0.0
C442 C 0.1811 0.22164 0.72454 0.0
C443 C 0.208 0.22938 0.7383 0.0
C444 C 0.23141 0.16948 0.74334 0.0
C445 C 0.2454 0.1662 0.7565 0.0
C446 C 0.23627 0.22266 0.76514 0.0
C447 C 0.21427 0.28382 0.76005 0.0
C448 C 0.19993 0.28685 0.74685 0.0
C449 C 0.3702 0.4102 0.69323 0.0
C450 C 0.23854 0.14888 0.68348 0.0
C451 C 0.29656 0.36231 0.65066 0.0
C452 C 0.26718 0.37486 0.63811 0.0
C453 C 0.32285 0.45043 0.63108 0.0
C454 C 0.30613 0.45572 0.61819 0.0
C455 C 0.23403 0.38489 0.61214 0.0
C456 C 0.17446 0.31221 0.61942 0.0
C457 C 0.19053 0.30747 0.63237 0.0
C458 C 1.06816 0.19251 0.67914 0.0
C459 C 0.15278 0.40275 0.68745 0.0
O460 O 0.22555 0.20407 0.71618 0.0
O461 O 0.1539 0.27318 0.7198 0.0
O462 O 0.32128 0.33628 0.68828 0.0
O463 O 0.33502 0.4104 0.7041 0.0
O464 O 0.20104 0.15776 0.69402 0.0
O465 O 0.2755 0.2123 0.67502 0.0
O466 O 0.3018 0.41513 0.65994 0.0
O467 O 0.26413 0.28048 0.65436 0.0
O468 O 0.13476 0.23601 0.68583 0.0
O469 O 0.09356 0.21576 0.66743 0.0
O470 O 0.20813 0.41099 0.67829 0.0
O471 O 0.13669 0.34828 0.69735 0.0
H472 H 0.23622 0.12275 0.73712 0.0
H473 H 0.2603 0.11688 0.75991 0.0
H474 H 0.20724 0.32914 0.76628 0.0
H475 H 0.18057 0.33289 0.74341 0.0
H476 H 0.38228 0.50292 0.63535 0.0
H477 H 0.35356 0.51207 0.61274 0.0
H478 H 0.11834 0.25707 0.61493 0.0
H479 H 0.14598 0.24876 0.63765 0.0
Tb480 Tb 0.84381 0.63417 0.50618 0.0
Tb481 Tb 0.84113 0.61856 0.5357 0.0
C482 C 0.83178 0.68147 0.48413 0.0
C483 C 0.87366 0.69662 0.47152 0.0
C484 C 0.89573 0.77484 0.46505 0.0
C485 C 0.91708 0.78333 0.45211 0.0
C486 C 0.91552 0.71312 0.44543 0.0
C487 C 0.9003 0.63756 0.45213 0.0
C488 C 0.88002 0.6295 0.46513 0.0
C489 C 0.89973 0.52398 0.51372 0.0
C490 C 1.02099 0.73706 0.52083 0.0
C491 C 0.81785 0.56576 0.55873 0.0
C492 C 0.79587 0.57281 0.57237 0.0
C493 C 0.71095 0.51412 0.57702 0.0
C494 C 0.69123 0.50959 0.59009 0.0
C495 C 0.75585 0.56336 0.59906 0.0
C496 C 0.84083 0.62281 0.5944 0.0
C497 C 0.86062 0.62727 0.58126 0.0
C498 C 0.80638 0.74004 0.52584 0.0
C499 C 0.68434 0.47748 0.51828 0.0
O500 O 0.87609 0.73771 0.49327 0.0
O501 O 0.78852 0.59961 0.48807 0.0
O502 O 0.87619 0.56835 0.5202 0.0
O503 O 0.89533 0.54389 0.5019 0.0
O504 O 0.97283 0.74134 0.51148 0.0
O505 O 0.98399 0.68504 0.53098 0.0
O506 O 0.7552 0.54029 0.55022 0.0
O507 O 0.8951 0.6219 0.55396 0.0
O508 O 0.78298 0.66472 0.52156 0.0
O509 O 0.84456 0.74562 0.53668 0.0
O510 O 0.73265 0.49095 0.5287 0.0
O511 O 0.70832 0.53748 0.50933 0.0
H512 H 0.8909 0.82716 0.4698 0.0
H513 H 0.92766 0.84192 0.44712 0.0
H514 H 0.89918 0.58285 0.44716 0.0
H515 H 0.86405 0.56864 0.46993 0.0
H516 H 0.65994 0.46907 0.57058 0.0
H517 H 0.62569 0.46131 0.59321 0.0
H518 H 0.89253 0.66561 0.60092 0.0
H519 H 0.92728 0.67185 0.57813 0.0
Tb520 Tb 0.49568 0.23154 0.50638 0.0
Tb521 Tb 0.50384 0.24656 0.5346 0.0
C522 C 0.45011 0.18223 0.48381 0.0
C523 C 0.43097 0.21199 0.47172 0.0
C524 C 0.35265 0.15549 0.4653 0.0
C525 C 0.34194 0.17078 0.45254 0.0
C526 C 0.41 0.24233 0.44598 0.0
C527 C 0.48496 0.30337 0.45274 0.0
C528 C 0.49527 0.28857 0.46556 0.0
C529 C 0.61845 0.38792 0.51453 0.0
C530 C 0.38587 0.30653 0.51944 0.0
C531 C 0.54538 0.28062 0.55807 0.0
C532 C 0.54606 0.2481 0.5713 0.0
C533 C 0.61815 0.24092 0.57571 0.0
C534 C 0.62614 0.22485 0.58868 0.0
C535 C 0.5627 0.2163 0.59771 0.0
C536 C 0.48964 0.22152 0.59323 0.0
C537 C 0.48166 0.23749 0.58027 0.0
C538 C 0.38621 0.08669 0.52531 0.0
C539 C 0.64399 0.22037 0.51901 0.0
O540 O 0.39353 0.16121 0.49318 0.0
O541 O 0.53183 0.22443 0.4877 0.0
O542 O 0.54488 0.34057 0.51968 0.0
O543 O 0.61776 0.35583 0.50339 0.0
O544 O 0.38925 0.25972 0.50984 0.0
O545 O 0.43676 0.32168 0.52967 0.0
O546 O 0.59621 0.27596 0.54937 0.0
O547 O 0.47123 0.26761 0.55319 0.0
O548 O 0.4625 0.13753 0.52129 0.0
O549 O 0.37791 0.12194 0.53565 0.0
O550 O 0.63091 0.25836 0.52903 0.0
O551 O 0.58182 0.18055 0.51045 0.0
H552 H 0.30242 0.09601 0.46987 0.0
H553 H 0.28382 0.12218 0.44752 0.0
H554 H 0.53799 0.35926 0.44788 0.0
H555 H 0.55613 0.33385 0.47033 0.0
H556 H 0.67033 0.2509 0.56921 0.0
H557 H 0.68413 0.22284 0.5917 0.0
H558 H 0.43883 0.21452 0.59979 0.0
H559 H 0.42618 0.2444 0.57736 0.0
Tb560 Tb 0.89041 0.28371 0.50605 0.0
Tb561 Tb 0.88093 0.28441 0.53424 0.0
C562 C 0.93155 0.28149 0.48316 0.0
C563 C 0.89963 0.2319 0.47113 0.0
C564 C 0.95267 0.20479 0.46488 0.0
C565 C 0.93777 0.17971 0.45208 0.0
C566 C 0.87006 0.18233 0.44527 0.0
C567 C 0.81166 0.20106 0.45186 0.0
C568 C 0.82615 0.22548 0.46472 0.0
C569 C 0.73427 0.24875 0.51494 0.0
C570 C 0.82178 0.10334 0.51982 0.0
C571 C 0.84864 0.29314 0.55778 0.0
C572 C 0.87995 0.32547 0.57111 0.0
C573 C 0.88901 0.40542 0.57557 0.0
C574 C 0.90363 0.42822 0.58862 0.0
C575 C 0.90869 0.37138 0.59768 0.0
C576 C 0.90157 0.29239 0.59314 0.0
C577 C 0.88719 0.26976 0.58012 0.0
C578 C 1.03909 0.32317 0.52468 0.0
C579 C 0.91299 0.45082 0.5178 0.0
O580 O 0.95436 0.24681 0.49243 0.0
O581 O 0.89116 0.32238 0.48724 0.0
O582 O 0.78432 0.2255 0.51986 0.0
O583 O 0.76422 0.27981 0.50371 0.0
O584 O 0.86894 0.15236 0.51018 0.0
O585 O 0.80557 0.14082 0.52975 0.0
O586 O 0.85185 0.34794 0.54905 0.0
O587 O 0.86286 0.23285 0.5529 0.0
O588 O 0.98805 0.34803 0.52051 0.0
O589 O 1.00494 0.28222 0.53524 0.0
O590 O 0.87406 0.40273 0.5281 0.0
O591 O 0.94831 0.42267 0.50935 0.0
H592 H 1.00986 0.20956 0.46961 0.0
H593 H 0.98439 0.16637 0.44723 0.0
H594 H 0.75854 0.20278 0.44684 0.0
H595 H 0.78357 0.24535 0.46932 0.0
H596 H 0.8818 0.44921 0.56904 0.0
H597 H 0.90742 0.48897 0.59166 0.0
H598 H 0.90594 0.247 0.59969 0.0
H599 H 0.87875 0.20682 0.57718 0.0
Tb600 Tb 0.99508 0.4848 0.70472 0.0
Tb601 Tb 0.97376 0.47554 0.67526 0.0
C602 C 1.04568 0.47933 0.7268 0.0
C603 C 1.05964 0.52407 0.73914 0.0
C604 C 0.13757 0.54834 0.74583 0.0
C605 C 0.14451 0.57147 0.75868 0.0
C606 C 1.07301 0.56945 0.76504 0.0
C607 C 0.99809 0.55298 0.75805 0.0
C608 C 0.9916 0.53096 0.74514 0.0
C609 C 0.8839 0.53952 0.6971 0.0
C610 C 0.09499 0.65868 0.68943 0.0
C611 C 0.91807 0.45 0.65234 0.0
C612 C 0.92607 0.43004 0.6386 0.0
C613 C 0.87478 0.34349 0.63396 0.0
C614 C 0.87062 0.32474 0.62085 0.0
C615 C 0.91707 0.39194 0.61181 0.0
C616 C 0.96905 0.47861 0.61645 0.0
C617 C 0.97334 0.49738 0.62963 0.0
C618 C 0.09914 0.44551 0.68484 0.0
C619 C 0.83879 0.31909 0.69358 0.0
O620 O 0.10049 0.52319 0.7175 0.0
O621 O 0.96375 0.43221 0.72301 0.0
O622 O 0.92603 0.51293 0.69073 0.0
O623 O 0.90572 0.53799 0.7089 0.0
O624 O 0.10195 0.61185 0.69873 0.0
O625 O 1.04068 0.61972 0.67955 0.0
O626 O 0.89667 0.38765 0.6608 0.0
O627 O 0.97135 0.52805 0.65712 0.0
O628 O 1.02455 0.42198 0.68945 0.0
O629 O 0.10188 0.48138 0.67389 0.0
O630 O 0.84882 0.36394 0.68284 0.0
O631 O 0.90039 0.34781 0.70235 0.0
H632 H 0.19067 0.5434 0.74137 0.0
H633 H 0.20266 0.58307 0.7639 0.0
H634 H 0.94241 0.55145 0.76278 0.0
H635 H 0.93105 0.51354 0.74013 0.0
H636 H 0.83512 0.29007 0.64046 0.0
H637 H 0.8282 0.25751 0.61776 0.0
H638 H 1.00612 0.53236 0.60989 0.0
H639 H 1.01188 0.56513 0.63273 0.0
Tb640 Tb 0.64885 0.53913 0.70453 0.0
Tb641 Tb 0.64766 0.52511 0.6764 0.0
C642 C 0.64757 0.5856 0.72711 0.0
C643 C 0.59857 0.55298 0.73914 0.0
C644 C 0.5725 0.60601 0.74561 0.0
C645 C 0.54808 0.59001 0.75843 0.0
C646 C 0.55054 0.52134 0.76496 0.0
C647 C 0.56782 0.46285 0.75814 0.0
C648 C 0.5913 0.47827 0.74527 0.0
C649 C 0.61709 0.38286 0.69637 0.0
C650 C 0.46641 0.46395 0.69089 0.0
C651 C 0.65864 0.49129 0.65302 0.0
C652 C 0.68888 0.52352 0.63967 0.0
C653 C 0.77305 0.54356 0.63537 0.0
C654 C 0.79576 0.55933 0.62235 0.0
C655 C 0.73474 0.55455 0.61315 0.0
C656 C 0.65139 0.53668 0.61754 0.0
C657 C 0.6288 0.52115 0.63054 0.0
C658 C 0.6852 0.68415 0.68546 0.0
C659 C 0.81334 0.55622 0.69284 0.0
O660 O 0.60993 0.60379 0.71772 0.0
O661 O 0.69168 0.54798 0.72327 0.0
O662 O 0.59197 0.43064 0.69115 0.0
O663 O 0.64681 0.41457 0.70758 0.0
O664 O 0.51524 0.51191 0.7005 0.0
O665 O 0.50416 0.44868 0.6809 0.0
O666 O 0.71668 0.50263 0.66173 0.0
O667 O 0.59339 0.49771 0.65784 0.0
O668 O 0.71112 0.63435 0.68977 0.0
O669 O 0.64365 0.64827 0.675 0.0
O670 O 0.7642 0.51607 0.68269 0.0
O671 O 0.78735 0.59486 0.70106 0.0
H672 H 0.57775 0.66395 0.74107 0.0
H673 H 0.53572 0.63657 0.7635 0.0
H674 H 0.56951 0.40916 0.76298 0.0
H675 H 0.61012 0.43558 0.74044 0.0
H676 H 0.82061 0.54411 0.64201 0.0
H677 H 0.86013 0.57174 0.61942 0.0
H678 H 0.60266 0.53337 0.61087 0.0
H679 H 0.56283 0.50428 0.63338 0.0
Tb680 Tb 0.58682 0.13223 0.70454 0.0
Tb681 Tb 0.60294 0.14969 0.67507 0.0
C682 C 0.525 0.08122 0.72636 0.0
C683 C 0.55395 0.06688 0.73882 0.0
C684 C 0.49836 0.98995 0.74559 0.0
C685 C 0.51473 0.98253 0.75842 0.0
C686 C 0.58634 0.05257 0.76467 0.0
C687 C 0.64598 0.12659 0.75763 0.0
C688 C 0.63028 0.13348 0.74474 0.0
C689 C 0.75286 0.24455 0.69746 0.0
C690 C 0.66604 1.03269 0.68996 0.0
C691 C 0.633 0.20433 0.65215 0.0
C692 C 0.60469 0.19661 0.63846 0.0
C693 C 0.56752 0.2466 0.634 0.0
C694 C 0.55256 0.25135 0.62092 0.0
C695 C 0.5748 0.20677 0.61178 0.0
C696 C 0.61142 0.15609 0.61624 0.0
C697 C 0.62634 0.15127 0.62937 0.0
C698 C 0.44601 1.02672 0.68459 0.0
C699 C 0.59073 0.29249 0.69268 0.0
O700 O 0.51546 1.02655 0.71711 0.0
O701 O 0.56109 0.16325 0.72258 0.0
O702 O 0.68617 0.19937 0.69078 0.0
O703 O 0.72753 0.22352 0.70923 0.0
O704 O 0.61346 1.02787 0.69933 0.0
O705 O 0.68003 0.08401 0.67976 0.0
O706 O 0.59259 0.22648 0.66059 0.0
O707 O 0.65709 0.15045 0.65693 0.0
O708 O 0.49691 0.10204 0.68898 0.0
O709 O 0.48018 1.0218 0.67387 0.0
O710 O 0.62436 0.27783 0.68222 0.0
O711 O 0.55262 0.23241 0.70158 0.0
H712 H 0.43924 0.93799 0.74118 0.0
H713 H 0.46723 0.92518 0.7637 0.0
H714 H 0.70168 0.18116 0.76229 0.0
H715 H 0.67487 0.1932 0.73966 0.0
H716 H 0.55264 0.28496 0.64059 0.0
H717 H 0.52645 0.29291 0.61795 0.0
H718 H 0.62929 0.12054 0.60956 0.0
H719 H 0.65705 0.11387 0.63236 0.0
Tb720 Tb 0.65448 0.15344 0.17574 0.0
Tb721 Tb 0.64642 0.1291 0.20514 0.0
C722 C 0.68542 0.21219 0.15308 0.0
C723 C 0.6933 0.2008 0.13908 0.0
C724 C 0.65083 0.22869 0.13046 0.0
C725 C 0.66733 0.23269 0.11728 0.0
C726 C 0.7273 0.20923 0.11225 0.0
C727 C 0.76859 0.17947 0.12088 0.0
C728 C 0.7519 0.17535 0.1341 0.0
C729 C 0.6813 1.02519 0.18484 0.0
C730 C 0.80922 0.2889 0.19423 0.0
C731 C 0.65162 0.07353 0.22687 0.0
C732 C 0.60667 0.05921 0.23918 0.0
C733 C 0.58749 0.98396 0.24623 0.0
C734 C 0.56328 0.97783 0.25903 0.0
C735 C 0.55916 1.04754 0.26495 0.0
C736 C 0.57083 0.11938 0.25759 0.0
C737 C 0.5938 0.12491 0.24473 0.0
C738 C 0.59553 0.24379 0.1982 0.0
C739 C 0.47039 1.03243 0.18959 0.0
O740 O 0.74462 0.21295 0.16077 0.0
O741 O 0.60742 0.17724 0.15841 0.0
O742 O 0.70722 0.0999 0.18961 0.0
O743 O 0.64273 1.02287 0.17415 0.0
O744 O 0.76344 0.27868 0.1836 0.0
O745 O 0.78278 0.22629 0.20283 0.0
O746 O 0.60667 1.02091 0.21742 0.0
O747 O 0.70044 0.15586 0.22335 0.0
O748 O 0.62003 0.20107 0.19155 0.0
O749 O 0.59661 0.22015 0.20992 0.0
O750 O 0.51605 1.0268 0.19922 0.0
O751 O 0.50998 0.08411 0.1795 0.0
H752 H 0.60699 0.25072 0.13397 0.0
H753 H 0.63539 0.25751 0.11109 0.0
H754 H 0.81455 0.16004 0.11742 0.0
H755 H 0.78677 0.15456 0.14045 0.0
H756 H 0.59701 0.9327 0.2421 0.0
H757 H 0.55548 0.92216 0.26456 0.0
H758 H 0.56769 0.17364 0.26198 0.0
H759 H 0.6072 0.18323 0.2394 0.0
Tb760 Tb 0.97219 0.52524 0.17575 0.0
Tb761 Tb 0.99584 0.54156 0.20515 0.0
C762 C 0.91369 0.49737 0.15307 0.0
C763 C 0.92495 0.51678 0.13906 0.0
C764 C 0.89712 0.44651 0.13043 0.0
C765 C 0.893 0.45911 0.11726 0.0
C766 C 0.91626 0.54254 0.11225 0.0
C767 C 0.94593 0.61351 0.12089 0.0
C768 C 0.95017 0.60083 0.13411 0.0
C769 C 0.10024 0.68032 0.18486 0.0
C770 C 0.8366 0.54496 0.19415 0.0
C771 C 1.05094 0.60201 0.22689 0.0
C772 C 1.06576 0.57117 0.23915 0.0
C773 C 0.14162 0.62685 0.24611 0.0
C774 C 0.14851 0.60856 0.25887 0.0
C775 C 0.07895 0.53491 0.26485 0.0
C776 C 1.00648 0.47504 0.25756 0.0
C777 C 1.00018 0.49269 0.24474 0.0
C778 C 0.88114 0.37601 0.19818 0.0
C779 C 0.09271 0.46195 0.18974 0.0
O780 O 0.91241 0.55548 0.16077 0.0
O781 O 0.94908 0.45471 0.15839 0.0
O782 O 1.02544 0.63154 0.18961 0.0
O783 O 0.10275 0.6441 0.17418 0.0
O784 O 0.84683 0.50906 0.18355 0.0
O785 O 0.8992 0.58132 0.20274 0.0
O786 O 0.10382 0.61066 0.21743 0.0
O787 O 0.96852 0.56792 0.22339 0.0
O788 O 0.92411 0.44322 0.19154 0.0
O789 O 0.90457 0.40068 0.20991 0.0
O790 O 0.09819 0.51334 0.19934 0.0
O791 O 1.04129 0.44988 0.17961 0.0
H792 H 0.87524 0.38064 0.13392 0.0
H793 H 0.86823 0.40241 0.11105 0.0
H794 H 0.96521 0.67889 0.11745 0.0
H795 H 0.97089 0.65642 0.14047 0.0
H796 H 0.19283 0.68753 0.24195 0.0
H797 H 0.20466 0.65623 0.26434 0.0
H798 H 0.95232 0.41779 0.262 0.0
H799 H 0.9414 0.44802 0.23948 0.0
Tb800 Tb 0.59938 0.4704 0.17575 0.0
Tb801 Tb 0.58416 0.47906 0.20513 0.0
C802 C 0.62658 0.43906 0.15308 0.0
C803 C 0.60751 0.43139 0.13907 0.0
C804 C 0.67806 0.47377 0.13048 0.0
C805 C 0.66572 0.45742 0.1173 0.0
C806 C 0.58231 0.39772 0.11225 0.0
C807 C 0.51108 0.35652 0.12084 0.0
C808 C 0.52348 0.37306 0.13407 0.0
C809 C 0.44464 0.44376 0.18497 0.0
C810 C 0.58051 0.31587 0.19427 0.0
C811 C 0.52443 0.47553 0.22685 0.0
C812 C 0.55608 0.52287 0.23897 0.0
C813 C 0.50049 0.54316 0.24593 0.0
C814 C 0.5198 0.56999 0.25861 0.0
C815 C 0.59441 0.57566 0.2645 0.0
C816 C 0.65423 0.56322 0.25719 0.0
C817 C 0.63552 0.53758 0.24443 0.0
C818 C 0.74949 0.52974 0.1981 0.0
C819 C 0.66322 0.65488 0.18952 0.0
O820 O 0.56782 0.38014 0.16077 0.0
O821 O 0.67019 0.517 0.15841 0.0
O822 O 0.49355 0.41781 0.18969 0.0
O823 O 0.48058 0.4823 0.17426 0.0
O824 O 0.61567 0.3614 0.18361 0.0
O825 O 0.54486 0.34262 0.20291 0.0
O826 O 0.51497 0.51849 0.21728 0.0
O827 O 0.55863 0.42706 0.22347 0.0
O828 O 0.68213 0.50515 0.19148 0.0
O829 O 0.72511 0.52902 0.20983 0.0
O830 O 0.61237 0.60942 0.19919 0.0
O831 O 0.67477 0.61505 0.17941 0.0
H832 H 0.74391 0.51737 0.13401 0.0
H833 H 0.7226 0.48925 0.11113 0.0
H834 H 0.44571 0.31077 0.11736 0.0
H835 H 0.4677 0.33827 0.1404 0.0
H836 H 0.43914 0.53241 0.24184 0.0
H837 H 0.47215 0.57832 0.26411 0.0
H838 H 0.71219 0.56749 0.26156 0.0
H839 H 0.68015 0.5235 0.23916 0.0
Tb840 Tb 0.51372 0.2871 0.0354 0.0
Tb841 Tb 0.48839 0.28035 1.00579 0.0
C842 C 0.57284 0.31274 0.05807 0.0
C843 C 0.56373 0.33491 0.07161 0.0
C844 C 0.6155 0.42197 0.07602 0.0
C845 C 0.61915 0.44246 0.08905 0.0
C846 C 0.5714 0.37657 0.09818 0.0
C847 C 0.51736 0.28975 0.09374 0.0
C848 C 0.51408 0.26911 0.08067 0.0
C849 C 0.38591 0.31449 0.02659 0.0
C850 C 0.64267 0.44623 1.01691 0.0
C851 C 0.43272 0.28399 0.98399 0.0
C852 C 0.419 0.23911 0.97167 0.0
C853 C 0.34239 0.21695 0.96477 0.0
C854 C 0.3359 0.19254 0.95198 0.0
C855 C 0.40657 0.19111 0.9459 0.0
C856 C 0.47992 0.2055 0.95313 0.0
C857 C 0.48592 0.22885 0.96598 0.0
C858 C 0.60469 0.23128 1.01287 0.0
C859 C 0.39184 0.10608 1.021 0.0
O860 O 0.59593 0.37457 0.04948 0.0
O861 O 0.51765 0.23469 0.05345 0.0
O862 O 0.45957 0.33877 1.02165 0.0
O863 O 0.38602 0.28115 0.03762 0.0
O864 O 0.63555 0.40072 0.02748 0.0
O865 O 0.57929 0.41783 1.00842 0.0
O866 O 0.38035 0.23846 0.99343 0.0
O867 O 0.51484 0.33412 0.98754 0.0
O868 O 0.55972 0.25319 1.01941 0.0
O869 O 0.58199 0.23312 1.00111 0.0
O870 O 0.38321 0.15355 1.01199 0.0
O871 O 0.4479 0.14377 0.03074 0.0
H872 H 0.65574 0.4744 0.06942 0.0
H873 H 0.66066 0.5102 0.09198 0.0
H874 H 0.48052 0.23679 0.10043 0.0
H875 H 0.47501 0.20104 0.07773 0.0
H876 H 0.29012 0.22435 0.96902 0.0
H877 H 0.27898 0.18264 0.94658 0.0
H878 H 0.53493 0.20437 0.94862 0.0
H879 H 0.54531 0.24449 0.97119 0.0
Tb880 Tb 0.83858 0.25135 0.03539 0.0
Tb881 Tb 0.84567 0.2332 1.00578 0.0
C882 C 0.81275 0.28455 0.05808 0.0
C883 C 0.79047 0.25329 0.07162 0.0
C884 C 0.70336 0.21791 0.07601 0.0
C885 C 0.68276 0.20115 0.08903 0.0
C886 C 0.74858 0.21943 0.09818 0.0
C887 C 0.83545 0.25227 0.09376 0.0
C888 C 0.85619 0.26957 0.08069 0.0
C889 C 0.81125 0.09626 0.02653 0.0
C890 C 0.67963 0.22144 1.01688 0.0
C891 C 0.84225 0.17416 0.98397 0.0
C892 C 0.88723 0.20536 0.97166 0.0
C893 C 0.90951 0.15094 0.96477 0.0
C894 C 0.93387 0.16877 0.95197 0.0
C895 C 0.93513 0.24073 0.94587 0.0
C896 C 0.92068 0.2997 0.95309 0.0
C897 C 0.89737 0.28244 0.96595 0.0
C898 C 0.89475 0.3985 1.01289 0.0
C899 C 1.01974 0.31066 1.02103 0.0
O900 O 0.751 0.24589 0.04947 0.0
O901 O 0.89082 0.30741 0.05346 0.0
O902 O 0.78702 0.14573 1.0216 0.0
O903 O 0.84452 0.12956 0.03757 0.0
O904 O 0.725 0.25963 0.02747 0.0
O905 O 0.70817 0.1867 1.00837 0.0
O906 O 0.88766 0.16717 0.99341 0.0
O907 O 0.79215 0.20618 0.98751 0.0
O908 O 0.87269 0.33153 1.01943 0.0
O909 O 0.89307 0.3741 1.00114 0.0
O910 O 0.97236 0.25466 1.012 0.0
O911 O 0.98196 0.32892 0.03077 0.0
H912 H 0.65097 0.20561 0.0694 0.0
H913 H 0.61498 0.17484 0.09195 0.0
H914 H 0.88837 0.2685 0.10047 0.0
H915 H 0.9243 0.29864 0.07777 0.0
H916 H 0.90221 0.09134 0.96902 0.0
H917 H 0.94384 0.12175 0.94659 0.0
H918 H 0.92169 0.35576 0.94858 0.0
H919 H 0.88164 0.32617 0.97115 0.0
Tb920 Tb 0.8744 0.61224 0.03539 0.0
Tb921 Tb 0.89276 0.63737 1.00577 0.0
C922 C 0.84098 0.55323 0.05808 0.0
C923 C 0.87221 0.56206 0.07162 0.0
C924 C 0.90765 0.51033 0.07599 0.0
C925 C 0.92439 0.50636 0.08902 0.0
C926 C 0.90601 0.55373 0.09818 0.0
C927 C 0.87308 0.60773 0.09378 0.0
C928 C 0.85582 0.61132 0.08071 0.0
C929 C 1.02953 0.73998 0.02655 0.0
C930 C 0.90465 0.48329 1.01692 0.0
C931 C 0.9519 0.69281 0.98396 0.0
C932 C 0.9208 0.70658 0.97163 0.0
C933 C 0.97529 0.78323 0.96474 0.0
C934 C 0.95745 0.78981 0.95194 0.0
C935 C 0.88539 0.71918 0.94585 0.0
C936 C 0.8264 0.64578 0.95307 0.0
C937 C 0.84369 0.63969 0.96592 0.0
C938 C 0.7275 0.52103 1.01288 0.0
C939 C 0.81511 0.73397 1.02097 0.0
O940 O 0.87941 0.52988 0.04947 0.0
O941 O 0.81846 0.6087 0.05346 0.0
O942 O 0.98009 0.66629 1.02162 0.0
O943 O 0.99619 0.73994 0.03759 0.0
O944 O 0.8663 0.49041 0.02749 0.0
O945 O 0.93948 0.5466 1.00842 0.0
O946 O 0.95892 0.74528 0.99338 0.0
O947 O 0.91976 0.61068 0.98751 0.0
O948 O 0.7944 0.56609 1.01941 0.0
O949 O 0.75189 0.54374 1.00112 0.0
O950 O 0.87119 0.7426 1.01195 0.0
O951 O 0.7968 0.67796 0.03072 0.0
H952 H 0.92002 0.47034 0.06937 0.0
H953 H 0.95077 0.46491 0.09192 0.0
H954 H 0.85676 0.64429 0.1005 0.0
H955 H 0.82669 0.65033 0.0778 0.0
H956 H 1.03493 0.83549 0.96899 0.0
H957 H 1.00448 0.84677 0.94655 0.0
H958 H 0.77027 0.5908 0.94856 0.0
H959 H 0.79991 0.58025 0.97112 0.0
Tb960 Tb 0.50402 0.97042 0.83873 0.0
Tb961 Tb 0.49778 0.94805 0.8682 0.0
C962 C 0.49645 1.02405 0.81697 0.0
C963 C 0.54075 1.03947 0.80457 0.0
C964 C 0.56124 0.11629 0.79784 0.0
C965 C 0.58511 0.1242 0.78501 0.0
C966 C 0.58763 0.05474 0.77873 0.0
C967 C 0.57438 0.98103 0.78575 0.0
C968 C 0.55171 0.97366 0.79864 0.0
C969 C 0.55518 0.85604 0.84579 0.0
C970 C 0.68103 0.06812 0.85398 0.0
C971 C 0.46986 0.8915 0.891 0.0
C972 C 0.46326 0.90422 0.905 0.0
C973 C 0.49349 0.86412 0.91368 0.0
C974 C 0.4756 0.8612 0.92681 0.0
C975 C 0.4268 0.89853 0.93175 0.0
C976 C 0.39957 0.94188 0.92305 0.0
C977 C 0.4171 0.94428 0.90987 0.0
C978 C 0.47018 0.07552 0.85889 0.0
C979 C 0.34182 0.81172 0.84993 0.0
O980 O 0.5409 0.07761 0.82636 0.0
O981 O 0.44969 0.94159 0.82054 0.0
O982 O 0.53113 0.89928 0.85241 0.0
O983 O 0.55348 0.87898 0.83404 0.0
O984 O 0.63493 0.073 0.84436 0.0
O985 O 0.64199 1.0173 0.86418 0.0
O986 O 0.40962 0.88974 0.88343 0.0
O987 O 0.54726 0.92654 0.88549 0.0
O988 O 0.44417 1.00034 0.8543 0.0
O989 O 0.50918 0.07873 0.86958 0.0
O990 O 0.38816 0.82223 0.86052 0.0
O991 O 0.36774 0.87425 0.84134 0.0
H992 H 0.55312 0.16764 0.80226 0.0
H993 H 0.59413 0.18131 0.77975 0.0
H994 H 0.5763 0.92693 0.78107 0.0
H995 H 0.53724 0.91407 0.8037 0.0
H996 H 0.52801 0.83146 0.91022 0.0
H997 H 0.49685 0.82598 0.93299 0.0
H998 H 0.36342 0.9731 0.92637 0.0
H999 H 0.39235 0.97538 0.90346 0.0
Tb1000 Tb 0.15571 0.55916 0.83878 0.0
Tb1001 Tb 0.17801 0.5749 0.86826 0.0
C1002 C 0.10203 0.49928 0.81696 0.0
C1003 C 0.08624 0.5296 0.80471 0.0
C1004 C 1.01009 0.4734 0.79784 0.0
C1005 C 1.00189 0.49166 0.78513 0.0
C1006 C 1.0704 0.56588 0.7791 0.0
C1007 C 0.14329 0.62602 0.78629 0.0
C1008 C 0.15093 0.60834 0.79907 0.0
C1009 C 0.27027 0.7245 0.84592 0.0
C1010 C 1.05797 0.63815 0.85405 0.0
C1011 C 0.23471 0.60346 0.89105 0.0
C1012 C 0.22202 0.58418 0.90505 0.0
C1013 C 0.26232 0.65451 0.91372 0.0
C1014 C 0.2652 0.63951 0.92685 0.0
C1015 C 0.22763 0.55336 0.93179 0.0
C1016 C 0.1841 0.48279 0.9231 0.0
C1017 C 0.18173 0.49794 0.90992 0.0
C1018 C 1.05045 0.42006 0.85892 0.0
C1019 C 0.31389 0.55479 0.84995 0.0
O1020 O 1.04849 0.48892 0.82642 0.0
O1021 O 0.18458 0.53499 0.8205 0.0
O1022 O 0.22686 0.65707 0.8525 0.0
O1023 O 0.24734 0.7002 0.83416 0.0
O1024 O 1.05298 0.58706 0.84444 0.0
O1025 O 0.10886 0.65 0.86424 0.0
O1026 O 0.23626 0.54487 0.88348 0.0
O1027 O 0.19979 0.64597 0.88555 0.0
O1028 O 0.12563 0.46919 0.85433 0.0
O1029 O 1.0473 0.45573 0.86963 0.0
O1030 O 0.30364 0.59083 0.86054 0.0
O1031 O 0.2512 0.51817 0.84138 0.0
H1032 H 0.95957 0.41249 0.80205 0.0
H1033 H 0.94546 0.44374 0.77974 0.0
H1034 H 0.19666 0.68372 0.78181 0.0
H1035 H 0.20993 0.65339 0.80425 0.0
H1036 H 0.29515 0.72168 0.91026 0.0
H1037 H 0.30056 0.69596 0.93303 0.0
H1038 H 0.15272 0.41543 0.92642 0.0
H1039 H 0.15048 0.44211 0.90351 0.0
Tb1040 Tb 0.56611 0.62142 0.83861 0.0
Tb1041 Tb 0.55164 0.62877 0.86809 0.0
C1042 C 0.62428 0.62639 0.8167 0.0
C1043 C 0.59294 0.57916 0.80453 0.0
C1044 C 0.64797 0.55728 0.79773 0.0
C1045 C 0.62876 0.5293 0.78509 0.0
C1046 C 0.5547 0.52389 0.77904 0.0
C1047 C 0.49566 0.53864 0.78618 0.0
C1048 C 0.51434 0.56558 0.7989 0.0
C1049 C 0.40101 0.57051 0.84589 0.0
C1050 C 0.4879 0.44509 0.85399 0.0
C1051 C 0.52395 0.65737 0.89091 0.0
C1052 C 0.54296 0.66371 0.90491 0.0
C1053 C 0.47246 0.63349 0.91356 0.0
C1054 C 0.48717 0.65116 0.9267 0.0
C1055 C 0.57321 0.69974 0.93168 0.0
C1056 C 0.64395 0.72697 0.92301 0.0
C1057 C 0.62909 0.70965 0.90982 0.0
C1058 C 0.70615 0.65572 0.85865 0.0
C1059 C 0.57072 0.78431 0.84975 0.0
O1060 O 0.63585 0.5842 0.82618 0.0
O1061 O 0.58865 0.67326 0.82025 0.0
O1062 O 0.46875 0.59492 0.85241 0.0
O1063 O 0.42484 0.57153 0.83412 0.0
O1064 O 0.53847 0.49094 0.84432 0.0
O1065 O 0.47651 0.4844 0.86419 0.0
O1066 O 0.58296 0.71714 0.88333 0.0
O1067 O 0.48063 0.58004 0.88539 0.0
O1068 O 0.65697 0.68183 0.85407 0.0
O1069 O 0.67056 0.61686 0.86935 0.0
O1070 O 0.53554 0.73841 0.8604 0.0
O1071 O 0.60654 0.7579 0.84109 0.0
H1072 H 0.70876 0.56726 0.80193 0.0
H1073 H 0.67595 0.51934 0.77975 0.0
H1074 H 0.43807 0.53457 0.78171 0.0
H1075 H 0.47011 0.58097 0.80402 0.0
H1076 H 0.40535 0.59918 0.91007 0.0
H1077 H 0.43059 0.62993 0.93285 0.0
H1078 H 0.71125 0.76295 0.92636 0.0
H1079 H 0.68506 0.73439 0.90344 0.0
Tb1080 Tb 0.65303 0.81682 0.03666 0.0
Tb1081 Tb 0.65072 0.82431 1.00849 0.0
C1082 C 0.69197 0.81258 0.05958 0.0
C1083 C 0.71164 0.86136 0.07171 0.0
C1084 C 0.79104 0.8845 0.07792 0.0
C1085 C 0.80224 0.90889 0.09076 0.0
C1086 C 0.73365 0.90944 0.09761 0.0
C1087 C 0.65763 0.89469 0.09107 0.0
C1088 C 0.64673 0.87103 0.07818 0.0
C1089 C 0.53356 0.85295 0.02758 0.0
C1090 C 0.76863 1.0009 0.02386 0.0
C1091 C 0.61521 0.81966 0.9848 0.0
C1092 C 0.61082 0.78223 0.97176 0.0
C1093 C 0.54008 0.69991 0.96805 0.0
C1094 C 0.52938 0.67198 0.95523 0.0
C1095 C 0.58852 0.7258 0.94564 0.0
C1096 C 0.66015 0.8074 0.94946 0.0
C1097 C 0.67093 0.83507 0.96227 0.0
C1098 C 0.76498 0.78004 1.01846 0.0
C1099 C 0.51052 0.65497 0.02362 0.0
O1100 O 0.75086 0.84516 0.05046 0.0
O1101 O 0.61129 0.77709 0.05532 0.0
O1102 O 0.60861 0.87926 0.02297 0.0
O1103 O 0.52985 0.8184 0.03862 0.0
O1104 O 0.76309 0.94973 0.03344 0.0
O1105 O 0.71843 0.96633 1.01355 0.0
O1106 O 0.55847 0.77038 0.9935 0.0
O1107 O 0.69208 0.87312 0.9898 0.0
O1108 O 0.6881 0.75507 0.02212 0.0
O1109 O 0.77624 0.82471 1.00814 0.0
O1110 O 0.52397 0.70617 1.01359 0.0
O1111 O 0.57145 0.67918 0.03242 0.0
H1112 H 0.84178 0.87716 0.07315 0.0
H1113 H 0.86123 0.91913 0.09559 0.0
H1114 H 0.60418 0.89539 0.09614 0.0
H1115 H 0.58495 0.85426 0.0736 0.0
H1116 H 0.49136 0.65782 0.97498 0.0
H1117 H 0.47381 0.60832 0.95285 0.0
H1118 H 0.70635 0.85214 0.94249 0.0
H1119 H 0.72483 0.89983 0.96466 0.0
Tb1120 Tb 0.30901 0.8611 0.03669 0.0
Tb1121 Tb 0.30143 0.85138 1.00852 0.0
C1122 C 0.31334 0.90424 0.05962 0.0
C1123 C 0.26471 0.87528 0.07176 0.0
C1124 C 0.24163 0.93161 0.07797 0.0
C1125 C 0.21751 0.91865 0.09082 0.0
C1126 C 0.21716 0.84968 0.09769 0.0
C1127 C 0.23184 0.78833 0.09116 0.0
C1128 C 0.25524 0.80085 0.07826 0.0
C1129 C 0.27288 0.70555 0.0276 0.0
C1130 C 0.1249 0.79268 0.02389 0.0
C1131 C 0.30596 0.82058 0.98482 0.0
C1132 C 0.34362 0.85361 0.97179 0.0
C1133 C 0.42608 0.86537 0.96812 0.0
C1134 C 0.45423 0.88262 0.95532 0.0
C1135 C 0.4005 0.88779 0.94569 0.0
C1136 C 0.31876 0.87765 0.94948 0.0
C1137 C 0.29088 0.86074 0.96228 0.0
C1138 C 0.34573 1.00988 1.01849 0.0
C1139 C 0.47086 0.88054 0.02362 0.0
O1140 O 0.28077 0.93061 0.0505 0.0
O1141 O 0.34868 0.85893 0.05535 0.0
O1142 O 0.24653 0.75428 0.023 0.0
O1143 O 0.30747 0.73637 0.03863 0.0
O1144 O 0.17606 0.83821 0.03347 0.0
O1145 O 0.15945 0.77709 1.01357 0.0
O1146 O 0.35492 0.81259 0.99352 0.0
O1147 O 0.25287 0.84447 0.98982 0.0
O1148 O 0.37071 0.95795 0.02215 0.0
O1149 O 0.30101 0.97648 1.00818 0.0
O1150 O 0.41969 0.84294 1.01358 0.0
O1151 O 0.44665 0.91706 0.03245 0.0
H1152 H 0.24883 0.98959 0.07317 0.0
H1153 H 0.2073 0.96746 0.09563 0.0
H1154 H 0.23126 0.73428 0.09624 0.0
H1155 H 0.27198 0.75579 0.07369 0.0
H1156 H 0.46812 0.85888 0.97508 0.0
H1157 H 0.51799 0.89085 0.95297 0.0
H1158 H 0.27409 0.87898 0.94248 0.0
H1159 H 0.22603 0.84976 0.96463 0.0
Tb1160 Tb 0.26479 0.47294 0.03673 0.0
Tb1161 Tb 0.27444 0.47493 1.00856 0.0
C1162 C 0.22169 0.43449 0.05968 0.0
C1163 C 0.25035 0.41492 0.07186 0.0
C1164 C 0.19404 0.33542 0.07805 0.0
C1165 C 0.20663 0.32425 0.09091 0.0
C1166 C 0.27524 0.39296 0.09782 0.0
C1167 C 0.33653 0.46918 0.09132 0.0
C1168 C 0.32437 0.48007 0.07841 0.0
C1169 C 0.42032 0.59225 0.02762 0.0
C1170 C 0.3332 0.35717 0.02395 0.0
C1171 C 0.3053 0.5102 0.98487 0.0
C1172 C 0.27233 0.51491 0.97184 0.0
C1173 C 0.26073 0.58571 0.96817 0.0
C1174 C 0.24355 0.59667 0.95536 0.0
C1175 C 0.23831 0.53775 0.94574 0.0
C1176 C 0.24829 0.46605 0.94952 0.0
C1177 C 0.26513 0.45501 0.96232 0.0
C1178 C 0.11597 0.36072 1.01854 0.0
C1179 C 0.24523 0.61523 0.02364 0.0
O1180 O 0.1953 0.37541 0.05058 0.0
O1181 O 0.26714 0.51506 0.05539 0.0
O1182 O 0.37153 0.51715 0.02303 0.0
O1183 O 0.38951 0.59624 0.03865 0.0
O1184 O 0.28779 0.36291 0.03354 0.0
O1185 O 0.3487 0.40722 1.01362 0.0
O1186 O 0.31342 0.56721 0.99356 0.0
O1187 O 0.28122 0.43318 0.98986 0.0
O1188 O 0.16788 0.43765 0.0222 0.0
O1189 O 0.14938 0.34941 1.00823 0.0
O1190 O 0.28284 0.60163 1.01361 0.0
O1191 O 0.20874 0.55452 0.03248 0.0
H1192 H 0.13633 0.2845 0.07322 0.0
H1193 H 0.15787 0.26508 0.09571 0.0
H1194 H 0.39031 0.52274 0.09644 0.0
H1195 H 0.36939 0.54197 0.07386 0.0
H1196 H 0.26728 0.63426 0.97513 0.0
H1197 H 0.23544 0.65228 0.95301 0.0
H1198 H 0.24689 0.42002 0.94252 0.0
H1199 H 0.276 0.40107 0.96468 0.0
Tb1200 Tb 0.31825 0.48964 0.50833 0.0
Tb1201 Tb 0.3102 0.46123 0.5379 0.0
C1202 C 0.34757 0.55126 0.48579 0.0
C1203 C 0.36604 0.54179 0.47208 0.0
C1204 C 0.45041 0.59819 0.46706 0.0
C1205 C 0.46741 0.60052 0.45392 0.0
C1206 C 0.40051 0.54638 0.44527 0.0
C1207 C 0.31635 0.48825 0.45035 0.0
C1208 C 0.29924 0.48634 0.46354 0.0
C1209 C 0.34413 0.36036 0.51692 0.0
C1210 C 0.47496 0.61944 0.5271 0.0
C1211 C 0.3156 0.40381 0.55951 0.0
C1212 C 0.2736 0.39096 0.57206 0.0
C1213 C 0.2536 0.31517 0.57904 0.0
C1214 C 0.2321 0.30978 0.59195 0.0
C1215 C 0.23148 0.38073 0.59807 0.0
C1216 C 0.24448 0.45357 0.59084 0.0
C1217 C 0.26477 0.45841 0.57787 0.0
C1218 C 0.26072 0.57736 0.5312 0.0
C1219 C 0.13563 0.36787 0.52238 0.0
O1220 O 0.40899 0.56686 0.49418 0.0
O1221 O 0.26836 0.50167 0.49051 0.0
O1222 O 0.36896 0.4338 0.52197 0.0
O1223 O 0.31011 0.36096 0.50596 0.0
O1224 O 0.4296 0.612 0.5165 0.0
O1225 O 0.4472 0.5557 0.53552 0.0
O1226 O 0.26765 0.35233 0.55015 0.0
O1227 O 0.36639 0.48577 0.55597 0.0
O1228 O 0.28422 0.53431 0.52449 0.0
O1229 O 0.26169 0.55316 0.54289 0.0
O1230 O 0.18189 0.35853 0.53156 0.0
O1231 O 0.17452 0.42335 0.51262 0.0
H1232 H 0.50313 0.64301 0.47329 0.0
H1233 H 0.53257 0.64744 0.45051 0.0
H1234 H 0.26299 0.44461 0.44413 0.0
H1235 H 0.23311 0.44291 0.46697 0.0
H1236 H 0.26022 0.26264 0.57472 0.0
H1237 H 0.22322 0.25329 0.59737 0.0
H1238 H 0.24397 0.50879 0.59538 0.0
H1239 H 0.27903 0.51728 0.57262 0.0
Tb1240 Tb 0.64051 0.85176 0.50865 0.0
Tb1241 Tb 0.66452 0.8706 0.53819 0.0
C1242 C 0.58074 0.81948 0.48601 0.0
C1243 C 0.58892 0.84749 0.47232 0.0
C1244 C 0.52985 0.87235 0.46739 0.0
C1245 C 0.52643 0.88688 0.45427 0.0
C1246 C 0.58194 0.87687 0.44555 0.0
C1247 C 0.64253 0.85374 0.45053 0.0
C1248 C 0.64568 0.83885 0.4637 0.0
C1249 C 0.76836 1.00731 0.51745 0.0
C1250 C 0.50836 0.87811 0.52699 0.0
C1251 C 0.71844 0.931 0.55999 0.0
C1252 C 0.73148 0.90066 0.57242 0.0
C1253 C 0.8082 0.95511 0.5793 0.0
C1254 C 0.81434 0.93799 0.59215 0.0
C1255 C 0.74321 0.86674 0.59829 0.0
C1256 C 0.66947 0.80796 0.59112 0.0
C1257 C 0.66385 0.82444 0.57822 0.0
C1258 C 0.54888 0.70489 0.53117 0.0
C1259 C 0.76183 0.79181 0.52319 0.0
O1260 O 0.56247 0.86308 0.49443 0.0
O1261 O 0.63255 0.79249 0.49071 0.0
O1262 O 0.69424 0.95843 0.52235 0.0
O1263 O 0.76909 0.97252 0.50657 0.0
O1264 O 0.51674 0.83979 0.51651 0.0
O1265 O 0.57187 0.91496 0.53542 0.0
O1266 O 0.77163 0.93778 0.55068 0.0
O1267 O 0.63653 0.89834 0.5563 0.0
O1268 O 0.59363 0.7718 0.52461 0.0
O1269 O 0.57133 0.72963 0.54292 0.0
O1270 O 0.76928 0.84695 0.53231 0.0
O1271 O 0.70724 0.77486 0.51328 0.0
H1272 H 0.48374 0.87775 0.47367 0.0
H1273 H 0.47763 0.90274 0.45093 0.0
H1274 H 0.68711 0.84606 0.44422 0.0
H1275 H 0.69109 0.81843 0.46706 0.0
H1276 H 0.86096 1.01411 0.57499 0.0
H1277 H 0.87152 0.98484 0.59751 0.0
H1278 H 0.61408 0.75253 0.59568 0.0
H1279 H 0.60429 0.78074 0.57304 0.0
Tb1280 Tb 0.27174 0.80736 0.50893 0.0
Tb1281 Tb 0.25732 0.81535 0.53844 0.0
C1282 C 0.30134 0.77872 0.4862 0.0
C1283 C 0.27431 0.76066 0.47245 0.0
C1284 C 0.24811 0.67684 0.46737 0.0
C1285 C 0.23489 0.66044 0.4542 0.0
C1286 C 0.24737 0.72741 0.44558 0.0
C1287 C 0.27168 0.81103 0.45072 0.0
C1288 C 0.28547 0.82755 0.46394 0.0
C1289 C 0.11704 0.77953 0.51825 0.0
C1290 C 0.24826 0.65085 0.52734 0.0
C1291 C 0.19948 0.81187 0.56031 0.0
C1292 C 0.23074 0.85877 0.57249 0.0
C1293 C 0.17608 0.88153 0.5792 0.0
C1294 C 0.19402 0.90771 0.59193 0.0
C1295 C 0.26633 0.91029 0.59812 0.0
C1296 C 0.32558 0.89547 0.59104 0.0
C1297 C 0.30822 0.87037 0.57825 0.0
C1298 C 0.42229 0.86511 0.53109 0.0
C1299 C 0.33491 0.99003 0.5231 0.0
O1300 O 0.25584 0.71701 0.49455 0.0
O1301 O 0.33099 0.85775 0.49098 0.0
O1302 O 0.16684 0.75483 0.52296 0.0
O1303 O 0.1508 0.81538 0.50733 0.0
O1304 O 0.2849 0.69655 0.51674 0.0
O1305 O 0.21328 0.67829 0.53596 0.0
O1306 O 0.18922 0.85478 0.55081 0.0
O1307 O 0.23398 0.76385 0.55682 0.0
O1308 O 0.35467 0.84178 0.52461 0.0
O1309 O 0.39863 0.86409 0.54287 0.0
O1310 O 0.28143 0.94367 0.53245 0.0
O1311 O 0.34963 0.95119 0.51315 0.0
H1312 H 0.24064 0.62416 0.47357 0.0
H1313 H 0.21801 0.59573 0.45075 0.0
H1314 H 0.28114 0.86442 0.44452 0.0
H1315 H 0.30696 0.89333 0.46742 0.0
H1316 H 0.1162 0.87315 0.5749 0.0
H1317 H 0.14681 0.91792 0.59722 0.0
H1318 H 0.38185 0.89743 0.59564 0.0
H1319 H 0.35217 0.85434 0.57318 0.0
Tb1320 Tb 0.18163 0.62985 0.36808 0.0
Tb1321 Tb 0.15645 0.62155 0.33863 0.0
C1322 C 0.24119 0.65885 0.39073 0.0
C1323 C 0.23274 0.67734 0.40448 0.0
C1324 C 0.29204 0.7606 0.40957 0.0
C1325 C 0.29531 0.77717 0.42274 0.0
C1326 C 0.2392 0.71095 0.43134 0.0
C1327 C 0.17828 0.62795 0.42618 0.0
C1328 C 0.17545 0.61124 0.41297 0.0
C1329 C 1.05365 0.65723 0.35908 0.0
C1330 C 0.31477 0.78551 0.34953 0.0
C1331 C 0.1002 0.62546 0.31691 0.0
C1332 C 0.08655 0.58029 0.30463 0.0
C1333 C 1.00987 0.55766 0.29772 0.0
C1334 C 1.00364 0.53317 0.28493 0.0
C1335 C 1.07466 0.53225 0.27889 0.0
C1336 C 0.14812 0.54717 0.28612 0.0
C1337 C 0.15379 0.57042 0.29897 0.0
C1338 C 0.27138 0.57081 0.34555 0.0
C1339 C 1.06207 0.44664 0.35406 0.0
O1340 O 0.25737 0.72044 0.38236 0.0
O1341 O 0.19123 0.57976 0.38601 0.0
O1342 O 0.12778 0.6821 0.35423 0.0
O1343 O 1.0526 0.62151 0.36996 0.0
O1344 O 0.30555 0.74013 0.36017 0.0
O1345 O 0.25213 0.75823 0.34094 0.0
O1346 O 1.04796 0.58017 0.32637 0.0
O1347 O 0.18237 0.67553 0.32042 0.0
O1348 O 0.22848 0.59491 0.35222 0.0
O1349 O 0.24774 0.57207 0.33383 0.0
O1350 O 1.05353 0.49257 0.34476 0.0
O1351 O 0.11629 0.48607 0.36392 0.0
H1352 H 0.33837 0.81262 0.40339 0.0
H1353 H 0.34439 0.84134 0.4262 0.0
H1354 H 0.13308 0.57518 0.43236 0.0
H1355 H 0.12978 0.54589 0.40947 0.0
H1356 H 0.95737 0.56476 0.30194 0.0
H1357 H 0.94666 0.52282 0.27951 0.0
H1358 H 0.20342 0.54655 0.28162 0.0
H1359 H 0.21326 0.58644 0.30419 0.0
Tb1360 Tb 0.49977 0.57679 0.36772 0.0
Tb1361 Tb 0.50706 0.56242 0.33835 0.0
C1362 C 0.47157 0.60645 0.39047 0.0
C1363 C 0.45226 0.57981 0.40421 0.0
C1364 C 0.36936 0.55794 0.40923 0.0
C1365 C 0.35223 0.54522 0.42238 0.0
C1366 C 0.41753 0.55393 0.43105 0.0
C1367 C 0.50019 0.57401 0.42598 0.0
C1368 C 0.51747 0.58726 0.41277 0.0
C1369 C 0.4706 0.42105 0.35844 0.0
C1370 C 0.3438 0.55639 0.34944 0.0
C1371 C 0.50289 0.50487 0.31644 0.0
C1372 C 0.54872 0.53736 0.30422 0.0
C1373 C 0.57291 0.48439 0.29735 0.0
C1374 C 0.5979 0.50319 0.28459 0.0
C1375 C 0.59775 0.57459 0.27854 0.0
C1376 C 0.5816 0.63234 0.28576 0.0
C1377 C 0.55779 0.61421 0.29858 0.0
C1378 C 0.55822 0.72806 0.3456 0.0
C1379 C 0.68254 0.63986 0.35354 0.0
O1380 O 0.40978 0.56232 0.38206 0.0
O1381 O 0.55046 0.6342 0.38576 0.0
O1382 O 0.44577 0.4709 0.35374 0.0
O1383 O 0.50766 0.45579 0.36926 0.0
O1384 O 0.38983 0.59216 0.36004 0.0
O1385 O 0.37038 0.52067 0.34081 0.0
O1386 O 0.54729 0.49573 0.32583 0.0
O1387 O 0.45366 0.5376 0.3201 0.0
O1388 O 0.53482 0.66056 0.35212 0.0
O1389 O 0.55631 0.70377 0.33383 0.0
O1390 O 0.63575 0.58627 0.34422 0.0
O1391 O 0.64375 0.65466 0.36349 0.0
H1392 H 0.31813 0.55359 0.40298 0.0
H1393 H 0.28843 0.53178 0.42578 0.0
H1394 H 0.55225 0.58054 0.43223 0.0
H1395 H 0.58258 0.60543 0.40933 0.0
H1396 H 0.56652 0.42506 0.30156 0.0
H1397 H 0.60921 0.45715 0.27918 0.0
H1398 H 0.58141 0.68784 0.28126 0.0
H1399 H 0.54066 0.65691 0.30378 0.0
Tb1400 Tb 0.54812 0.94718 0.36832 0.0
Tb1401 Tb 0.56693 0.97399 0.33889 0.0
C1402 C 0.51657 0.88623 0.3909 0.0
C1403 C 0.54435 0.89389 0.40459 0.0
C1404 C 0.56842 0.83417 0.4095 0.0
C1405 C 0.58267 0.83032 0.42262 0.0
C1406 C 0.57319 0.88606 0.43136 0.0
C1407 C 0.55093 0.94734 0.4264 0.0
C1408 C 0.53629 0.9509 0.41323 0.0
C1409 C 0.70393 0.07577 0.3596 0.0
C1410 C 0.57134 0.81439 0.34965 0.0
C1411 C 0.62827 1.03076 0.31722 0.0
C1412 C 0.59702 1.04308 0.30482 0.0
C1413 C 0.651 0.1192 0.2978 0.0
C1414 C 0.6329 0.12423 0.28497 0.0
C1415 C 0.56119 0.05257 0.27899 0.0
C1416 C 0.50286 0.97952 0.28631 0.0
C1417 C 0.52026 0.97505 0.2992 0.0
C1418 C 0.40102 0.85876 0.34565 0.0
C1419 C 0.48637 0.06864 0.3543 0.0
O1420 O 0.56074 0.86912 0.38243 0.0
O1421 O 0.48879 0.93764 0.38629 0.0
O1422 O 0.65501 1.00197 0.35463 0.0
O1423 O 0.66885 0.07587 0.37049 0.0
O1424 O 0.53481 0.82329 0.3603 0.0
O1425 O 0.60732 0.87767 0.34115 0.0
O1426 O 0.63305 0.0826 0.3266 0.0
O1427 O 0.59757 0.94893 0.32079 0.0
O1428 O 0.46772 0.90178 0.35235 0.0
O1429 O 0.42624 0.88263 0.33395 0.0
O1430 O 0.54153 0.07731 0.34509 0.0
O1431 O 0.47036 1.01351 0.3641 0.0
H1432 H 0.57341 0.78792 0.4032 0.0
H1433 H 0.59789 0.78102 0.42594 0.0
H1434 H 0.54372 0.99214 0.43272 0.0
H1435 H 0.51653 0.99684 0.40989 0.0
H1436 H 0.71037 0.17224 0.30199 0.0
H1437 H 0.67937 0.18089 0.27947 0.0
H1438 H 0.44713 0.92373 0.28187 0.0
H1439 H 0.47692 0.91596 0.3045 0.0
loop_
_geom_bond_atom_site_label_1
_geom_bond_atom_site_label_2
_geom_bond_distance
_geom_bond_site_symmetry_2
_ccdc_geom_bond_type
Tb0 C2 2.809 . S
Tb0 O20 2.484 . S
Tb0 O21 2.440 . S
Tb0 O22 2.658 . S
Tb0 O23 2.409 . S
Tb0 O24 2.378 . S
Tb0 O28 2.325 . S
Tb0 O31 2.341 . S
Tb1 C11 2.809 . S
Tb1 O22 2.325 . S
Tb1 O25 2.341 . S
Tb1 O26 2.484 . S
Tb1 O27 2.440 . S
Tb1 O28 2.658 . S
Tb1 O29 2.409 . S
Tb1 O30 2.378 . S
C2 Tb0 2.809 . S
C2 C3 1.514 . S
C2 O20 1.248 . S
C2 O21 1.266 . S
C3 C2 1.514 . S
C3 C4 1.359 . S
C3 C8 1.348 . S
C4 C3 1.359 . S
C4 C5 1.380 . S
C4 H32 0.929 . S
C5 C4 1.380 . S
C5 C6 1.347 . S
C5 H33 0.931 . S
C6 C5 1.347 . S
C6 C7 1.369 . S
C7 C6 1.369 . S
C7 C8 1.408 . S
C7 H34 0.930 . S
C8 C3 1.348 . S
C8 C7 1.408 . S
C8 H35 0.930 . S
C9 O22 1.281 . S
C9 O23 1.254 . S
C10 O24 1.236 . S
C10 O25 1.266 . S
C11 Tb1 2.809 . S
C11 C12 1.514 . S
C11 O26 1.248 . S
C11 O27 1.266 . S
C12 C11 1.514 . S
C12 C13 1.359 . S
C12 C17 1.348 . S
C13 C12 1.359 . S
C13 C14 1.380 . S
C13 H36 0.929 . S
C14 C13 1.380 . S
C14 C15 1.347 1_455 S
C14 H37 0.931 1_455 S
C15 C14 1.347 1_655 S
C15 C16 1.369 . S
C16 C15 1.369 . S
C16 C17 1.408 1_655 S
C16 H38 0.930 . S
C17 C12 1.348 . S
C17 C16 1.408 1_455 S
C17 H39 0.930 . S
C18 O28 1.281 . S
C18 O29 1.254 . S
C19 O30 1.236 . S
C19 O31 1.266 . S
O20 Tb0 2.484 . S
O20 C2 1.248 . S
O21 Tb0 2.440 . S
O21 C2 1.266 . S
O22 Tb0 2.658 . S
O22 Tb1 2.325 . S
O22 C9 1.281 . S
O23 Tb0 2.409 . S
O23 C9 1.254 . S
O24 Tb0 2.378 . S
O24 C10 1.236 . S
O25 Tb1 2.341 . S
O25 C10 1.266 . S
O26 Tb1 2.484 . S
O26 C11 1.248 . S
O27 Tb1 2.440 . S
O27 C11 1.266 . S
O28 Tb0 2.325 . S
O28 Tb1 2.658 . S
O28 C18 1.281 . S
O29 Tb1 2.409 . S
O29 C18 1.254 . S
O30 Tb1 2.378 . S
O30 C19 1.236 . S
O31 Tb0 2.341 . S
O31 C19 1.266 . S
H32 C4 0.929 . S
H33 C5 0.931 . S
H34 C7 0.930 . S
H35 C8 0.930 . S
H36 C13 0.929 . S
H37 C14 0.931 1_655 S
H38 C16 0.930 . S
H39 C17 0.930 . S
Tb40 C42 2.809 . S
Tb40 O60 2.484 . S
Tb40 O61 2.440 . S
Tb40 O62 2.661 . S
Tb40 O63 2.409 1_565 S
Tb40 O64 2.378 . S
Tb40 O68 2.325 . S
Tb40 O71 2.341 . S
Tb41 C51 2.809 . S
Tb41 O62 2.327 . S
Tb41 O65 2.341 . S
Tb41 O66 2.484 . S
Tb41 O67 2.440 . S
Tb41 O68 2.658 . S
Tb41 O69 2.409 . S
Tb41 O70 2.378 . S
C42 Tb40 2.809 . S
C42 C43 1.514 . S
C42 O60 1.248 . S
C42 O61 1.266 . S
C43 C42 1.514 . S
C43 C44 1.359 . S
C43 C48 1.348 1_565 S
C44 C43 1.359 . S
C44 C45 1.380 . S
C44 H72 0.929 . S
C45 C44 1.380 . S
C45 C46 1.347 . S
C45 H73 0.931 . S
C46 C45 1.347 . S
C46 C47 1.369 1_565 S
C47 C46 1.369 1_545 S
C47 C48 1.408 . S
C47 H74 0.930 . S
C48 C43 1.348 1_545 S
C48 C47 1.408 . S
C48 H75 0.930 . S
C49 O62 1.276 1_545 S
C49 O63 1.254 . S
C50 O64 1.236 . S
C50 O65 1.266 . S
C51 Tb41 2.809 . S
C51 C52 1.514 . S
C51 O66 1.248 . S
C51 O67 1.266 . S
C52 C51 1.514 . S
C52 C53 1.359 . S
C52 C57 1.348 . S
C53 C52 1.359 . S
C53 C54 1.380 . S
C53 H76 0.929 . S
C54 C53 1.380 . S
C54 C55 1.347 . S
C54 H77 0.931 . S
C55 C54 1.347 . S
C55 C56 1.369 . S
C56 C55 1.369 . S
C56 C57 1.408 . S
C56 H78 0.930 . S
C57 C52 1.348 . S
C57 C56 1.408 . S
C57 H79 0.930 . S
C58 O68 1.281 . S
C58 O69 1.254 . S
C59 O70 1.236 . S
C59 O71 1.266 . S
O60 Tb40 2.484 . S
O60 C42 1.248 . S
O61 Tb40 2.440 . S
O61 C42 1.266 . S
O62 Tb40 2.661 . S
O62 Tb41 2.327 . S
O62 C49 1.276 1_565 S
O63 Tb40 2.409 1_545 S
O63 C49 1.254 . S
O64 Tb40 2.378 . S
O64 C50 1.236 . S
O65 Tb41 2.341 . S
O65 C50 1.266 . S
O66 Tb41 2.484 . S
O66 C51 1.248 . S
O67 Tb41 2.440 . S
O67 C51 1.266 . S
O68 Tb40 2.325 . S
O68 Tb41 2.658 . S
O68 C58 1.281 . S
O69 Tb41 2.409 . S
O69 C58 1.254 . S
O70 Tb41 2.378 . S
O70 C59 1.236 . S
O71 Tb40 2.341 . S
O71 C59 1.266 . S
H72 C44 0.929 . S
H73 C45 0.931 . S
H74 C47 0.930 . S
H75 C48 0.930 . S
H76 C53 0.929 . S
H77 C54 0.931 . S
H78 C56 0.930 . S
H79 C57 0.930 . S
Tb80 C82 2.809 . S
Tb80 O100 2.484 . S
Tb80 O101 2.440 . S
Tb80 O102 2.658 . S
Tb80 O103 2.409 1_455 S
Tb80 O104 2.378 . S
Tb80 O108 2.325 . S
Tb80 O111 2.341 . S
Tb81 C91 2.809 . S
Tb81 O102 2.324 . S
Tb81 O105 2.341 . S
Tb81 O106 2.484 . S
Tb81 O107 2.440 . S
Tb81 O108 2.658 . S
Tb81 O109 2.409 . S
Tb81 O110 2.378 . S
C82 Tb80 2.809 . S
C82 C83 1.514 . S
C82 O100 1.248 . S
C82 O101 1.266 . S
C83 C82 1.514 . S
C83 C84 1.359 . S
C83 C88 1.348 1_455 S
C84 C83 1.359 . S
C84 C85 1.380 . S
C84 H112 0.929 . S
C85 C84 1.380 . S
C85 C86 1.347 . S
C85 H113 0.931 . S
C86 C85 1.347 . S
C86 C87 1.369 1_455 S
C87 C86 1.369 1_655 S
C87 C88 1.408 . S
C87 H114 0.930 . S
C88 C83 1.348 1_655 S
C88 C87 1.408 . S
C88 H115 0.930 . S
C89 O102 1.281 1_655 S
C89 O103 1.254 . S
C90 O104 1.236 . S
C90 O105 1.266 . S
C91 Tb81 2.809 . S
C91 C92 1.514 . S
C91 O106 1.248 . S
C91 O107 1.266 . S
C92 C91 1.514 . S
C92 C93 1.359 . S
C92 C97 1.348 . S
C93 C92 1.359 . S
C93 C94 1.380 . S
C93 H116 0.929 . S
C94 C93 1.380 . S
C94 C95 1.347 1_565 S
C94 H117 0.931 1_565 S
C95 C94 1.347 1_545 S
C95 C96 1.369 . S
C96 C95 1.369 . S
C96 C97 1.408 1_545 S
C96 H118 0.930 . S
C97 C92 1.348 . S
C97 C96 1.408 1_565 S
C97 H119 0.930 . S
C98 O108 1.281 . S
C98 O109 1.254 . S
C99 O110 1.236 . S
C99 O111 1.266 . S
O100 Tb80 2.484 . S
O100 C82 1.248 . S
O101 Tb80 2.440 . S
O101 C82 1.266 . S
O102 Tb80 2.658 . S
O102 Tb81 2.324 . S
O102 C89 1.281 1_455 S
O103 Tb80 2.409 1_655 S
O103 C89 1.254 . S
O104 Tb80 2.378 . S
O104 C90 1.236 . S
O105 Tb81 2.341 . S
O105 C90 1.266 . S
O106 Tb81 2.484 . S
O106 C91 1.248 . S
O107 Tb81 2.440 . S
O107 C91 1.266 . S
O108 Tb80 2.325 . S
O108 Tb81 2.658 . S
O108 C98 1.281 . S
O109 Tb81 2.409 . S
O109 C98 1.254 . S
O110 Tb81 2.378 . S
O110 C99 1.236 . S
O111 Tb80 2.341 . S
O111 C99 1.266 . S
H112 C84 0.929 . S
H113 C85 0.931 . S
H114 C87 0.930 . S
H115 C88 0.930 . S
H116 C93 0.929 . S
H117 C94 0.931 1_545 S
H118 C96 0.930 . S
H119 C97 0.930 . S
Tb120 C122 2.809 . S
Tb120 O140 2.484 . S
Tb120 O141 2.440 . S
Tb120 O142 2.658 . S
Tb120 O143 2.409 . S
Tb120 O144 2.378 . S
Tb120 O148 2.325 . S
Tb120 O151 2.341 . S
Tb121 C131 2.809 . S
Tb121 O142 2.325 . S
Tb121 O145 2.341 . S
Tb121 O146 2.484 . S
Tb121 O147 2.440 . S
Tb121 O148 2.658 . S
Tb121 O149 2.409 . S
Tb121 O150 2.378 . S
C122 Tb120 2.809 . S
C122 C123 1.514 . S
C122 O140 1.248 . S
C122 O141 1.266 . S
C123 C122 1.514 . S
C123 C124 1.359 . S
C123 C128 1.348 . S
C124 C123 1.359 . S
C124 C125 1.380 . S
C124 H152 0.929 . S
C125 C124 1.380 . S
C125 C126 1.347 . S
C125 H153 0.931 . S
C126 C125 1.347 . S
C126 C127 1.369 . S
C127 C126 1.369 . S
C127 C128 1.408 . S
C127 H154 0.930 . S
C128 C123 1.348 . S
C128 C127 1.408 . S
C128 H155 0.930 . S
C129 O142 1.281 . S
C129 O143 1.254 . S
C130 O144 1.236 . S
C130 O145 1.266 . S
C131 Tb121 2.809 . S
C131 C132 1.514 . S
C131 O146 1.248 . S
C131 O147 1.266 . S
C132 C131 1.514 . S
C132 C133 1.359 . S
C132 C137 1.348 . S
C133 C132 1.359 . S
C133 C134 1.380 . S
C133 H156 0.929 . S
C134 C133 1.380 . S
C134 C135 1.347 1_545 S
C134 H157 0.931 1_545 S
C135 C134 1.347 1_565 S
C135 C136 1.369 . S
C136 C135 1.369 . S
C136 C137 1.408 1_565 S
C136 H158 0.930 . S
C137 C132 1.348 . S
C137 C136 1.408 1_545 S
C137 H159 0.930 . S
C138 O148 1.281 . S
C138 O149 1.254 . S
C139 O150 1.236 . S
C139 O151 1.266 . S
O140 Tb120 2.484 . S
O140 C122 1.248 . S
O141 Tb120 2.440 . S
O141 C122 1.266 . S
O142 Tb120 2.658 . S
O142 Tb121 2.325 . S
O142 C129 1.281 . S
O143 Tb120 2.409 . S
O143 C129 1.254 . S
O144 Tb120 2.378 . S
O144 C130 1.236 . S
O145 Tb121 2.341 . S
O145 C130 1.266 . S
O146 Tb121 2.484 . S
O146 C131 1.248 . S
O147 Tb121 2.440 . S
O147 C131 1.266 . S
O148 Tb120 2.325 . S
O148 Tb121 2.658 . S
O148 C138 1.281 . S
O149 Tb121 2.409 . S
O149 C138 1.254 . S
O150 Tb121 2.378 . S
O150 C139 1.236 . S
O151 Tb120 2.341 . S
O151 C139 1.266 . S
H152 C124 0.929 . S
H153 C125 0.931 . S
H154 C127 0.930 . S
H155 C128 0.930 . S
H156 C133 0.929 . S
H157 C134 0.931 1_565 S
H158 C136 0.930 . S
H159 C137 0.930 . S
Tb160 C162 2.809 . S
Tb160 O180 2.484 . S
Tb160 O181 2.440 . S
Tb160 O182 2.658 . S
Tb160 O183 2.409 1_545 S
Tb160 O184 2.378 . S
Tb160 O188 2.325 . S
Tb160 O191 2.341 . S
Tb161 C171 2.809 . S
Tb161 O182 2.325 . S
Tb161 O185 2.341 . S
Tb161 O186 2.484 . S
Tb161 O187 2.440 . S
Tb161 O188 2.658 . S
Tb161 O189 2.409 . S
Tb161 O190 2.378 . S
C162 Tb160 2.809 . S
C162 C163 1.514 . S
C162 O180 1.248 . S
C162 O181 1.266 . S
C163 C162 1.514 . S
C163 C164 1.359 . S
C163 C168 1.348 1_545 S
C164 C163 1.359 . S
C164 C165 1.380 . S
C164 H192 0.929 . S
C165 C164 1.380 . S
C165 C166 1.347 . S
C165 H193 0.931 . S
C166 C165 1.347 . S
C166 C167 1.369 1_545 S
C167 C166 1.369 1_565 S
C167 C168 1.408 . S
C167 H194 0.930 . S
C168 C163 1.348 1_565 S
C168 C167 1.408 . S
C168 H195 0.930 . S
C169 O182 1.281 1_565 S
C169 O183 1.254 . S
C170 O184 1.236 . S
C170 O185 1.266 . S
C171 Tb161 2.809 . S
C171 C172 1.514 . S
C171 O186 1.248 . S
C171 O187 1.266 . S
C172 C171 1.514 . S
C172 C173 1.359 . S
C172 C177 1.348 . S
C173 C172 1.359 . S
C173 C174 1.380 . S
C173 H196 0.937 . S
C174 C173 1.380 . S
C174 C175 1.347 1_655 S
C174 H197 0.931 1_655 S
C175 C174 1.347 1_455 S
C175 C176 1.369 . S
C176 C175 1.369 . S
C176 C177 1.408 1_455 S
C176 H198 0.930 . S
C177 C172 1.348 . S
C177 C176 1.408 1_655 S
C177 H199 0.930 . S
C178 O188 1.281 . S
C178 O189 1.254 . S
C179 O190 1.236 . S
C179 O191 1.266 . S
O180 Tb160 2.484 . S
O180 C162 1.248 . S
O181 Tb160 2.440 . S
O181 C162 1.266 . S
O182 Tb160 2.658 . S
O182 Tb161 2.325 . S
O182 C169 1.281 1_545 S
O183 Tb160 2.409 1_565 S
O183 C169 1.254 . S
O184 Tb160 2.378 . S
O184 C170 1.236 . S
O185 Tb161 2.341 . S
O185 C170 1.266 . S
O186 Tb161 2.484 . S
O186 C171 1.248 . S
O187 Tb161 2.440 . S
O187 C171 1.266 . S
O188 Tb160 2.325 . S
O188 Tb161 2.658 . S
O188 C178 1.281 . S
O189 Tb161 2.409 . S
O189 C178 1.254 . S
O190 Tb161 2.378 . S
O190 C179 1.236 . S
O191 Tb160 2.341 . S
O191 C179 1.266 . S
H192 C164 0.929 . S
H193 C165 0.931 . S
H194 C167 0.930 . S
H195 C168 0.930 . S
H196 C173 0.937 . S
H197 C174 0.931 1_455 S
H198 C176 0.930 . S
H199 C177 0.930 . S
Tb200 C202 2.809 . S
Tb200 O220 2.484 . S
Tb200 O221 2.440 . S
Tb200 O222 2.658 . S
Tb200 O223 2.409 1_655 S
Tb200 O224 2.378 . S
Tb200 O228 2.325 . S
Tb200 O231 2.341 . S
Tb201 C211 2.809 . S
Tb201 O222 2.325 . S
Tb201 O225 2.341 . S
Tb201 O226 2.484 . S
Tb201 O227 2.440 . S
Tb201 O228 2.658 . S
Tb201 O229 2.409 . S
Tb201 O230 2.378 . S
C202 Tb200 2.809 . S
C202 C203 1.514 . S
C202 O220 1.248 . S
C202 O221 1.266 . S
C203 C202 1.514 . S
C203 C204 1.359 . S
C203 C208 1.348 1_655 S
C204 C203 1.359 . S
C204 C205 1.380 . S
C204 H232 0.929 . S
C205 C204 1.380 . S
C205 C206 1.347 . S
C205 H233 0.931 . S
C206 C205 1.347 . S
C206 C207 1.369 1_655 S
C207 C206 1.369 1_455 S
C207 C208 1.408 . S
C207 H234 0.930 . S
C208 C203 1.348 1_455 S
C208 C207 1.408 . S
C208 H235 0.930 . S
C209 O222 1.281 1_455 S
C209 O223 1.254 . S
C210 O224 1.236 . S
C210 O225 1.266 . S
C211 Tb201 2.809 . S
C211 C212 1.514 . S
C211 O226 1.248 . S
C211 O227 1.266 . S
C212 C211 1.514 . S
C212 C213 1.359 . S
C212 C217 1.348 . S
C213 C212 1.359 . S
C213 C214 1.380 . S
C213 H236 0.929 . S
C214 C213 1.380 . S
C214 C215 1.347 . S
C214 H237 0.931 . S
C215 C214 1.347 . S
C215 C216 1.369 . S
C216 C215 1.369 . S
C216 C217 1.408 . S
C216 H238 0.930 . S
C217 C212 1.348 . S
C217 C216 1.408 . S
C217 H239 0.930 . S
C218 O228 1.281 . S
C218 O229 1.254 . S
C219 O230 1.236 . S
C219 O231 1.266 . S
O220 Tb200 2.484 . S
O220 C202 1.248 . S
O221 Tb200 2.440 . S
O221 C202 1.266 . S
O222 Tb200 2.658 . S
O222 Tb201 2.325 . S
O222 C209 1.281 1_655 S
O223 Tb200 2.409 1_455 S
O223 C209 1.254 . S
O224 Tb200 2.378 . S
O224 C210 1.236 . S
O225 Tb201 2.341 . S
O225 C210 1.266 . S
O226 Tb201 2.484 . S
O226 C211 1.248 . S
O227 Tb201 2.440 . S
O227 C211 1.266 . S
O228 Tb200 2.325 . S
O228 Tb201 2.658 . S
O228 C218 1.281 . S
O229 Tb201 2.409 . S
O229 C218 1.254 . S
O230 Tb201 2.378 . S
O230 C219 1.236 . S
O231 Tb200 2.341 . S
O231 C219 1.266 . S
H232 C204 0.929 . S
H233 C205 0.931 . S
H234 C207 0.930 . S
H235 C208 0.930 . S
H236 C213 0.929 . S
H237 C214 0.931 . S
H238 C216 0.930 . S
H239 C217 0.930 . S
Tb240 C242 2.809 . S
Tb240 O260 2.484 . S
Tb240 O261 2.440 . S
Tb240 O262 2.658 . S
Tb240 O263 2.409 . S
Tb240 O264 2.378 . S
Tb240 O268 2.325 . S
Tb240 O271 2.341 . S
Tb241 C251 2.809 . S
Tb241 O262 2.325 . S
Tb241 O265 2.341 . S
Tb241 O266 2.484 . S
Tb241 O267 2.440 . S
Tb241 O268 2.658 . S
Tb241 O269 2.409 . S
Tb241 O270 2.378 . S
C242 Tb240 2.809 . S
C242 C243 1.514 . S
C242 O260 1.248 . S
C242 O261 1.266 . S
C243 C242 1.514 . S
C243 C244 1.359 . S
C243 C248 1.348 . S
C244 C243 1.359 . S
C244 C245 1.380 . S
C244 H272 0.929 . S
C245 C244 1.380 . S
C245 C246 1.347 1_655 S
C245 H273 0.931 1_655 S
C246 C245 1.347 1_455 S
C246 C247 1.369 . S
C247 C246 1.369 . S
C247 C248 1.408 1_455 S
C247 H274 0.930 . S
C248 C243 1.348 . S
C248 C247 1.408 1_655 S
C248 H275 0.930 . S
C249 O262 1.281 . S
C249 O263 1.254 . S
C250 O264 1.236 . S
C250 O265 1.266 . S
C251 Tb241 2.809 . S
C251 C252 1.514 . S
C251 O266 1.248 . S
C251 O267 1.266 . S
C252 C251 1.514 . S
C252 C253 1.359 . S
C252 C257 1.348 . S
C253 C252 1.359 . S
C253 C254 1.380 . S
C253 H276 0.929 . S
C254 C253 1.380 . S
C254 C255 1.347 . S
C254 H277 0.931 . S
C255 C254 1.347 . S
C255 C256 1.369 . S
C256 C255 1.369 . S
C256 C257 1.408 . S
C256 H278 0.930 . S
C257 C252 1.348 . S
C257 C256 1.408 . S
C257 H279 0.930 . S
C258 O268 1.281 . S
C258 O269 1.254 . S
C259 O270 1.236 . S
C259 O271 1.266 . S
O260 Tb240 2.484 . S
O260 C242 1.248 . S
O261 Tb240 2.440 . S
O261 C242 1.266 . S
O262 Tb240 2.658 . S
O262 Tb241 2.325 . S
O262 C249 1.281 . S
O263 Tb240 2.409 . S
O263 C249 1.254 . S
O264 Tb240 2.378 . S
O264 C250 1.236 . S
O265 Tb241 2.341 . S
O265 C250 1.266 . S
O266 Tb241 2.484 . S
O266 C251 1.248 . S
O267 Tb241 2.440 . S
O267 C251 1.266 . S
O268 Tb240 2.325 . S
O268 Tb241 2.658 . S
O268 C258 1.281 . S
O269 Tb241 2.409 . S
O269 C258 1.254 . S
O270 Tb241 2.378 . S
O270 C259 1.236 . S
O271 Tb240 2.341 . S
O271 C259 1.266 . S
H272 C244 0.929 . S
H273 C245 0.931 1_455 S
H274 C247 0.930 . S
H275 C248 0.930 . S
H276 C253 0.929 . S
H277 C254 0.931 . S
H278 C256 0.930 . S
H279 C257 0.930 . S
Tb280 C282 2.809 . S
Tb280 O300 2.484 . S
Tb280 O301 2.440 . S
Tb280 O302 2.658 . S
Tb280 O303 2.409 . S
Tb280 O304 2.378 . S
Tb280 O308 2.327 . S
Tb280 O311 2.341 . S
Tb281 C291 2.809 . S
Tb281 O302 2.325 . S
Tb281 O305 2.341 . S
Tb281 O306 2.484 . S
Tb281 O307 2.440 . S
Tb281 O308 2.661 . S
Tb281 O309 2.409 1_545 S
Tb281 O310 2.378 . S
C282 Tb280 2.809 . S
C282 C283 1.514 . S
C282 O300 1.248 . S
C282 O301 1.266 . S
C283 C282 1.514 . S
C283 C284 1.359 . S
C283 C288 1.348 . S
C284 C283 1.359 . S
C284 C285 1.380 . S
C284 H312 0.929 . S
C285 C284 1.380 . S
C285 C286 1.347 . S
C285 H313 0.931 . S
C286 C285 1.347 . S
C286 C287 1.369 . S
C287 C286 1.369 . S
C287 C288 1.408 . S
C287 H314 0.930 . S
C288 C283 1.348 . S
C288 C287 1.408 . S
C288 H315 0.930 . S
C289 O302 1.281 . S
C289 O303 1.254 . S
C290 O304 1.236 . S
C290 O305 1.266 . S
C291 Tb281 2.809 . S
C291 C292 1.514 . S
C291 O306 1.248 . S
C291 O307 1.266 . S
C292 C291 1.514 . S
C292 C293 1.359 . S
C292 C297 1.348 1_545 S
C293 C292 1.359 . S
C293 C294 1.380 . S
C293 H316 0.929 . S
C294 C293 1.380 . S
C294 C295 1.347 . S
C294 H317 0.931 . S
C295 C294 1.347 . S
C295 C296 1.369 1_545 S
C296 C295 1.369 1_565 S
C296 C297 1.408 . S
C296 H318 0.930 . S
C297 C292 1.348 1_565 S
C297 C296 1.408 . S
C297 H319 0.930 . S
C298 O308 1.276 1_565 S
C298 O309 1.254 . S
C299 O310 1.236 . S
C299 O311 1.266 . S
O300 Tb280 2.484 . S
O300 C282 1.248 . S
O301 Tb280 2.440 . S
O301 C282 1.266 . S
O302 Tb280 2.658 . S
O302 Tb281 2.325 . S
O302 C289 1.281 . S
O303 Tb280 2.409 . S
O303 C289 1.254 . S
O304 Tb280 2.378 . S
O304 C290 1.236 . S
O305 Tb281 2.341 . S
O305 C290 1.266 . S
O306 Tb281 2.484 . S
O306 C291 1.248 . S
O307 Tb281 2.440 . S
O307 C291 1.266 . S
O308 Tb280 2.327 . S
O308 Tb281 2.661 . S
O308 C298 1.276 1_545 S
O309 Tb281 2.409 1_565 S
O309 C298 1.254 . S
O310 Tb281 2.378 . S
O310 C299 1.236 . S
O311 Tb280 2.341 . S
O311 C299 1.266 . S
H312 C284 0.929 . S
H313 C285 0.931 . S
H314 C287 0.930 . S
H315 C288 0.930 . S
H316 C293 0.929 . S
H317 C294 0.931 . S
H318 C296 0.930 . S
H319 C297 0.930 . S
Tb320 C322 2.809 . S
Tb320 O340 2.484 . S
Tb320 O341 2.440 . S
Tb320 O342 2.658 . S
Tb320 O343 2.409 . S
Tb320 O344 2.378 . S
Tb320 O348 2.325 . S
Tb320 O351 2.341 . S
Tb321 C331 2.809 . S
Tb321 O342 2.325 . S
Tb321 O345 2.341 . S
Tb321 O346 2.484 . S
Tb321 O347 2.440 . S
Tb321 O348 2.658 . S
Tb321 O349 2.409 1_655 S
Tb321 O350 2.378 . S
C322 Tb320 2.809 . S
C322 C323 1.514 . S
C322 O340 1.248 . S
C322 O341 1.266 . S
C323 C322 1.514 . S
C323 C324 1.359 . S
C323 C328 1.348 . S
C324 C323 1.359 . S
C324 C325 1.380 . S
C324 H352 0.929 . S
C325 C324 1.380 . S
C325 C326 1.347 1_545 S
C325 H353 0.931 1_545 S
C326 C325 1.347 1_565 S
C326 C327 1.369 . S
C327 C326 1.369 . S
C327 C328 1.408 1_565 S
C327 H354 0.930 . S
C328 C323 1.348 . S
C328 C327 1.408 1_545 S
C328 H355 0.930 . S
C329 O342 1.281 . S
C329 O343 1.254 . S
C330 O344 1.236 . S
C330 O345 1.266 . S
C331 Tb321 2.809 . S
C331 C332 1.514 . S
C331 O346 1.248 . S
C331 O347 1.266 . S
C332 C331 1.514 . S
C332 C333 1.359 . S
C332 C337 1.348 1_655 S
C333 C332 1.359 . S
C333 C334 1.380 . S
C333 H356 0.929 . S
C334 C333 1.380 . S
C334 C335 1.347 . S
C334 H357 0.931 . S
C335 C334 1.347 . S
C335 C336 1.369 1_655 S
C336 C335 1.369 1_455 S
C336 C337 1.408 . S
C336 H358 0.930 . S
C337 C332 1.348 1_455 S
C337 C336 1.408 . S
C337 H359 0.930 . S
C338 O348 1.281 1_455 S
C338 O349 1.254 . S
C339 O350 1.236 . S
C339 O351 1.266 . S
O340 Tb320 2.484 . S
O340 C322 1.248 . S
O341 Tb320 2.440 . S
O341 C322 1.266 . S
O342 Tb320 2.658 . S
O342 Tb321 2.325 . S
O342 C329 1.281 . S
O343 Tb320 2.409 . S
O343 C329 1.254 . S
O344 Tb320 2.378 . S
O344 C330 1.236 . S
O345 Tb321 2.341 . S
O345 C330 1.266 . S
O346 Tb321 2.484 . S
O346 C331 1.248 . S
O347 Tb321 2.440 . S
O347 C331 1.266 . S
O348 Tb320 2.325 . S
O348 Tb321 2.658 . S
O348 C338 1.281 1_655 S
O349 Tb321 2.409 1_455 S
O349 C338 1.254 . S
O350 Tb321 2.378 . S
O350 C339 1.236 . S
O351 Tb320 2.341 . S
O351 C339 1.266 . S
H352 C324 0.929 . S
H353 C325 0.931 1_565 S
H354 C327 0.930 . S
H355 C328 0.930 . S
H356 C333 0.929 . S
H357 C334 0.931 . S
H358 C336 0.930 . S
H359 C337 0.930 . S
Tb360 C362 2.809 . S
Tb360 O380 2.484 . S
Tb360 O381 2.440 . S
Tb360 O382 2.658 . S
Tb360 O383 2.409 . S
Tb360 O384 2.378 . S
Tb360 O388 2.325 . S
Tb360 O391 2.341 . S
Tb361 C371 2.809 . S
Tb361 O382 2.325 . S
Tb361 O385 2.341 . S
Tb361 O386 2.484 . S
Tb361 O387 2.440 . S
Tb361 O388 2.658 . S
Tb361 O389 2.409 . S
Tb361 O390 2.378 . S
C362 Tb360 2.809 . S
C362 C363 1.514 . S
C362 O380 1.248 . S
C362 O381 1.266 . S
C363 C362 1.514 . S
C363 C364 1.359 . S
C363 C368 1.348 . S
C364 C363 1.359 . S
C364 C365 1.380 . S
C364 H392 0.929 . S
C365 C364 1.380 . S
C365 C366 1.347 1_565 S
C365 H393 0.931 1_565 S
C366 C365 1.347 1_545 S
C366 C367 1.369 . S
C367 C366 1.369 . S
C367 C368 1.408 1_545 S
C367 H394 0.930 . S
C368 C363 1.348 . S
C368 C367 1.408 1_565 S
C368 H395 0.930 . S
C369 O382 1.281 . S
C369 O383 1.254 . S
C370 O384 1.236 . S
C370 O385 1.266 . S
C371 Tb361 2.809 . S
C371 C372 1.514 . S
C371 O386 1.248 . S
C371 O387 1.266 . S
C372 C371 1.514 . S
C372 C373 1.359 . S
C372 C377 1.348 . S
C373 C372 1.359 . S
C373 C374 1.380 . S
C373 H396 0.929 . S
C374 C373 1.380 . S
C374 C375 1.347 . S
C374 H397 0.931 . S
C375 C374 1.347 . S
C375 C376 1.369 . S
C376 C375 1.369 . S
C376 C377 1.408 . S
C376 H398 0.930 . S
C377 C372 1.348 . S
C377 C376 1.408 . S
C377 H399 0.930 . S
C378 O388 1.281 . S
C378 O389 1.254 . S
C379 O390 1.236 . S
C379 O391 1.266 . S
O380 Tb360 2.484 . S
O380 C362 1.248 . S
O381 Tb360 2.440 . S
O381 C362 1.266 . S
O382 Tb360 2.658 . S
O382 Tb361 2.325 . S
O382 C369 1.281 . S
O383 Tb360 2.409 . S
O383 C369 1.254 . S
O384 Tb360 2.378 . S
O384 C370 1.236 . S
O385 Tb361 2.341 . S
O385 C370 1.266 . S
O386 Tb361 2.484 . S
O386 C371 1.248 . S
O387 Tb361 2.440 . S
O387 C371 1.266 . S
O388 Tb360 2.325 . S
O388 Tb361 2.658 . S
O388 C378 1.281 . S
O389 Tb361 2.409 . S
O389 C378 1.254 . S
O390 Tb361 2.378 . S
O390 C379 1.236 . S
O391 Tb360 2.341 . S
O391 C379 1.266 . S
H392 C364 0.929 . S
H393 C365 0.931 1_545 S
H394 C367 0.930 . S
H395 C368 0.930 . S
H396 C373 0.929 . S
H397 C374 0.931 . S
H398 C376 0.930 . S
H399 C377 0.930 . S
Tb400 C402 2.809 . S
Tb400 O420 2.484 . S
Tb400 O421 2.440 . S
Tb400 O422 2.658 . S
Tb400 O423 2.409 . S
Tb400 O424 2.378 . S
Tb400 O428 2.325 . S
Tb400 O431 2.341 . S
Tb401 C411 2.809 . S
Tb401 O422 2.325 . S
Tb401 O425 2.341 . S
Tb401 O426 2.484 . S
Tb401 O427 2.440 . S
Tb401 O428 2.658 . S
Tb401 O429 2.409 1_565 S
Tb401 O430 2.378 . S
C402 Tb400 2.809 . S
C402 C403 1.514 . S
C402 O420 1.248 . S
C402 O421 1.266 . S
C403 C402 1.514 . S
C403 C404 1.359 . S
C403 C408 1.348 . S
C404 C403 1.359 . S
C404 C405 1.380 . S
C404 H432 0.937 . S
C405 C404 1.380 . S
C405 C406 1.347 1_455 S
C405 H433 0.931 1_455 S
C406 C405 1.347 1_655 S
C406 C407 1.369 . S
C407 C406 1.369 . S
C407 C408 1.408 1_655 S
C407 H434 0.930 . S
C408 C403 1.348 . S
C408 C407 1.408 1_455 S
C408 H435 0.930 . S
C409 O422 1.281 . S
C409 O423 1.254 . S
C410 O424 1.236 . S
C410 O425 1.266 . S
C411 Tb401 2.809 . S
C411 C412 1.514 . S
C411 O426 1.248 . S
C411 O427 1.266 . S
C412 C411 1.514 . S
C412 C413 1.359 . S
C412 C417 1.348 1_565 S
C413 C412 1.359 . S
C413 C414 1.380 . S
C413 H436 0.929 . S
C414 C413 1.380 . S
C414 C415 1.347 . S
C414 H437 0.931 . S
C415 C414 1.347 . S
C415 C416 1.369 1_565 S
C416 C415 1.369 1_545 S
C416 C417 1.408 . S
C416 H438 0.930 . S
C417 C412 1.348 1_545 S
C417 C416 1.408 . S
C417 H439 0.930 . S
C418 O428 1.281 1_545 S
C418 O429 1.254 . S
C419 O430 1.236 . S
C419 O431 1.266 . S
O420 Tb400 2.484 . S
O420 C402 1.248 . S
O421 Tb400 2.440 . S
O421 C402 1.266 . S
O422 Tb400 2.658 . S
O422 Tb401 2.325 . S
O422 C409 1.281 . S
O423 Tb400 2.409 . S
O423 C409 1.254 . S
O424 Tb400 2.378 . S
O424 C410 1.236 . S
O425 Tb401 2.341 . S
O425 C410 1.266 . S
O426 Tb401 2.484 . S
O426 C411 1.248 . S
O427 Tb401 2.440 . S
O427 C411 1.266 . S
O428 Tb400 2.325 . S
O428 Tb401 2.658 . S
O428 C418 1.281 1_565 S
O429 Tb401 2.409 1_545 S
O429 C418 1.254 . S
O430 Tb401 2.378 . S
O430 C419 1.236 . S
O431 Tb400 2.341 . S
O431 C419 1.266 . S
H432 C404 0.937 . S
H433 C405 0.931 1_655 S
H434 C407 0.930 . S
H435 C408 0.930 . S
H436 C413 0.929 . S
H437 C414 0.931 . S
H438 C416 0.930 . S
H439 C417 0.930 . S
Tb440 C442 2.809 . S
Tb440 O460 2.484 . S
Tb440 O461 2.440 . S
Tb440 O462 2.658 . S
Tb440 O463 2.409 . S
Tb440 O464 2.378 . S
Tb440 O468 2.325 . S
Tb440 O471 2.341 . S
Tb441 C451 2.809 . S
Tb441 O462 2.325 . S
Tb441 O465 2.341 . S
Tb441 O466 2.484 . S
Tb441 O467 2.440 . S
Tb441 O468 2.658 . S
Tb441 O469 2.409 1_455 S
Tb441 O470 2.378 . S
C442 Tb440 2.809 . S
C442 C443 1.514 . S
C442 O460 1.248 . S
C442 O461 1.266 . S
C443 C442 1.514 . S
C443 C444 1.359 . S
C443 C448 1.348 . S
C444 C443 1.359 . S
C444 C445 1.380 . S
C444 H472 0.929 . S
C445 C444 1.380 . S
C445 C446 1.347 . S
C445 H473 0.931 . S
C446 C445 1.347 . S
C446 C447 1.369 . S
C447 C446 1.369 . S
C447 C448 1.408 . S
C447 H474 0.930 . S
C448 C443 1.348 . S
C448 C447 1.408 . S
C448 H475 0.930 . S
C449 O462 1.281 . S
C449 O463 1.254 . S
C450 O464 1.236 . S
C450 O465 1.266 . S
C451 Tb441 2.809 . S
C451 C452 1.514 . S
C451 O466 1.248 . S
C451 O467 1.266 . S
C452 C451 1.514 . S
C452 C453 1.359 . S
C452 C457 1.348 1_455 S
C453 C452 1.359 . S
C453 C454 1.380 . S
C453 H476 0.929 . S
C454 C453 1.380 . S
C454 C455 1.347 . S
C454 H477 0.931 . S
C455 C454 1.347 . S
C455 C456 1.369 1_455 S
C456 C455 1.369 1_655 S
C456 C457 1.408 . S
C456 H478 0.930 . S
C457 C452 1.348 1_655 S
C457 C456 1.408 . S
C457 H479 0.930 . S
C458 O468 1.281 1_655 S
C458 O469 1.254 . S
C459 O470 1.236 . S
C459 O471 1.266 . S
O460 Tb440 2.484 . S
O460 C442 1.248 . S
O461 Tb440 2.440 . S
O461 C442 1.266 . S
O462 Tb440 2.658 . S
O462 Tb441 2.325 . S
O462 C449 1.281 . S
O463 Tb440 2.409 . S
O463 C449 1.254 . S
O464 Tb440 2.378 . S
O464 C450 1.236 . S
O465 Tb441 2.341 . S
O465 C450 1.266 . S
O466 Tb441 2.484 . S
O466 C451 1.248 . S
O467 Tb441 2.440 . S
O467 C451 1.266 . S
O468 Tb440 2.325 . S
O468 Tb441 2.658 . S
O468 C458 1.281 1_455 S
O469 Tb441 2.409 1_655 S
O469 C458 1.254 . S
O470 Tb441 2.378 . S
O470 C459 1.236 . S
O471 Tb440 2.341 . S
O471 C459 1.266 . S
H472 C444 0.929 . S
H473 C445 0.931 . S
H474 C447 0.930 . S
H475 C448 0.930 . S
H476 C453 0.929 . S
H477 C454 0.931 . S
H478 C456 0.930 . S
H479 C457 0.930 . S
Tb480 C482 2.809 . S
Tb480 O500 2.484 . S
Tb480 O501 2.440 . S
Tb480 O502 2.658 . S
Tb480 O503 2.409 . S
Tb480 O504 2.378 . S
Tb480 O508 2.325 . S
Tb480 O511 2.341 . S
Tb481 C491 2.809 . S
Tb481 O502 2.325 . S
Tb481 O505 2.341 . S
Tb481 O506 2.484 . S
Tb481 O507 2.440 . S
Tb481 O508 2.658 . S
Tb481 O509 2.409 . S
Tb481 O510 2.378 . S
C482 Tb480 2.809 . S
C482 C483 1.514 . S
C482 O500 1.248 . S
C482 O501 1.266 . S
C483 C482 1.514 . S
C483 C484 1.359 . S
C483 C488 1.348 . S
C484 C483 1.359 . S
C484 C485 1.380 . S
C484 H512 0.929 . S
C485 C484 1.380 . S
C485 C486 1.347 1_655 S
C485 H513 0.931 . S
C486 C485 1.347 1_455 S
C486 C487 1.369 1_455 S
C487 C486 1.369 1_655 S
C487 C488 1.408 . S
C487 H514 0.930 1_655 S
C488 C483 1.348 . S
C488 C487 1.408 . S
C488 H515 0.930 . S
C489 O502 1.281 . S
C489 O503 1.254 . S
C490 O504 1.236 . S
C490 O505 1.266 . S
C491 Tb481 2.809 . S
C491 C492 1.514 . S
C491 O506 1.248 . S
C491 O507 1.266 . S
C492 C491 1.514 . S
C492 C493 1.359 . S
C492 C497 1.348 . S
C493 C492 1.359 . S
C493 C494 1.380 . S
C493 H516 0.929 . S
C494 C493 1.380 . S
C494 C495 1.347 . S
C494 H517 0.931 . S
C495 C494 1.347 . S
C495 C496 1.369 . S
C496 C495 1.369 . S
C496 C497 1.408 . S
C496 H518 0.930 . S
C497 C492 1.348 . S
C497 C496 1.408 . S
C497 H519 0.930 . S
C498 O508 1.281 . S
C498 O509 1.254 . S
C499 O510 1.236 . S
C499 O511 1.266 . S
O500 Tb480 2.484 . S
O500 C482 1.248 . S
O501 Tb480 2.440 . S
O501 C482 1.266 . S
O502 Tb480 2.658 . S
O502 Tb481 2.325 . S
O502 C489 1.281 . S
O503 Tb480 2.409 . S
O503 C489 1.254 . S
O504 Tb480 2.378 . S
O504 C490 1.236 . S
O505 Tb481 2.341 . S
O505 C490 1.266 . S
O506 Tb481 2.484 . S
O506 C491 1.248 . S
O507 Tb481 2.440 . S
O507 C491 1.266 . S
O508 Tb480 2.325 . S
O508 Tb481 2.658 . S
O508 C498 1.281 . S
O509 Tb481 2.409 . S
O509 C498 1.254 . S
O510 Tb481 2.378 . S
O510 C499 1.236 . S
O511 Tb480 2.341 . S
O511 C499 1.266 . S
H512 C484 0.929 . S
H513 C485 0.931 . S
H514 C487 0.930 1_455 S
H515 C488 0.930 . S
H516 C493 0.929 . S
H517 C494 0.931 . S
H518 C496 0.930 . S
H519 C497 0.930 . S
Tb520 C522 2.809 . S
Tb520 O540 2.484 . S
Tb520 O541 2.440 . S
Tb520 O542 2.658 . S
Tb520 O543 2.409 . S
Tb520 O544 2.378 . S
Tb520 O548 2.325 . S
Tb520 O551 2.341 . S
Tb521 C531 2.809 . S
Tb521 O542 2.325 . S
Tb521 O545 2.341 . S
Tb521 O546 2.484 . S
Tb521 O547 2.440 . S
Tb521 O548 2.658 . S
Tb521 O549 2.409 . S
Tb521 O550 2.378 . S
C522 Tb520 2.809 . S
C522 C523 1.514 . S
C522 O540 1.248 . S
C522 O541 1.266 . S
C523 C522 1.514 . S
C523 C524 1.359 . S
C523 C528 1.348 . S
C524 C523 1.359 . S
C524 C525 1.380 . S
C524 H552 0.929 . S
C525 C524 1.380 . S
C525 C526 1.347 . S
C525 H553 0.931 . S
C526 C525 1.347 . S
C526 C527 1.369 . S
C527 C526 1.369 . S
C527 C528 1.408 . S
C527 H554 0.930 . S
C528 C523 1.348 . S
C528 C527 1.408 . S
C528 H555 0.930 . S
C529 O542 1.281 . S
C529 O543 1.254 . S
C530 O544 1.236 . S
C530 O545 1.266 . S
C531 Tb521 2.809 . S
C531 C532 1.514 . S
C531 O546 1.248 . S
C531 O547 1.266 . S
C532 C531 1.514 . S
C532 C533 1.359 . S
C532 C537 1.348 . S
C533 C532 1.359 . S
C533 C534 1.380 . S
C533 H556 0.929 . S
C534 C533 1.380 . S
C534 C535 1.347 . S
C534 H557 0.931 . S
C535 C534 1.347 . S
C535 C536 1.369 . S
C536 C535 1.369 . S
C536 C537 1.408 . S
C536 H558 0.930 . S
C537 C532 1.348 . S
C537 C536 1.408 . S
C537 H559 0.930 . S
C538 O548 1.281 . S
C538 O549 1.254 . S
C539 O550 1.236 . S
C539 O551 1.266 . S
O540 Tb520 2.484 . S
O540 C522 1.248 . S
O541 Tb520 2.440 . S
O541 C522 1.266 . S
O542 Tb520 2.658 . S
O542 Tb521 2.325 . S
O542 C529 1.281 . S
O543 Tb520 2.409 . S
O543 C529 1.254 . S
O544 Tb520 2.378 . S
O544 C530 1.236 . S
O545 Tb521 2.341 . S
O545 C530 1.266 . S
O546 Tb521 2.484 . S
O546 C531 1.248 . S
O547 Tb521 2.440 . S
O547 C531 1.266 . S
O548 Tb520 2.325 . S
O548 Tb521 2.658 . S
O548 C538 1.281 . S
O549 Tb521 2.409 . S
O549 C538 1.254 . S
O550 Tb521 2.378 . S
O550 C539 1.236 . S
O551 Tb520 2.341 . S
O551 C539 1.266 . S
H552 C524 0.929 . S
H553 C525 0.931 . S
H554 C527 0.930 . S
H555 C528 0.930 . S
H556 C533 0.929 . S
H557 C534 0.931 . S
H558 C536 0.930 . S
H559 C537 0.930 . S
Tb560 C562 2.809 . S
Tb560 O580 2.484 . S
Tb560 O581 2.440 . S
Tb560 O582 2.658 . S
Tb560 O583 2.409 . S
Tb560 O584 2.378 . S
Tb560 O588 2.325 . S
Tb560 O591 2.341 . S
Tb561 C571 2.809 . S
Tb561 O582 2.325 . S
Tb561 O585 2.341 . S
Tb561 O586 2.484 . S
Tb561 O587 2.440 . S
Tb561 O588 2.658 . S
Tb561 O589 2.409 . S
Tb561 O590 2.378 . S
C562 Tb560 2.809 . S
C562 C563 1.514 . S
C562 O580 1.248 . S
C562 O581 1.266 . S
C563 C562 1.514 . S
C563 C564 1.359 . S
C563 C568 1.348 . S
C564 C563 1.359 . S
C564 C565 1.380 . S
C564 H592 0.929 . S
C565 C564 1.380 . S
C565 C566 1.347 1_545 S
C565 H593 0.931 . S
C566 C565 1.347 1_565 S
C566 C567 1.369 1_565 S
C567 C566 1.369 1_545 S
C567 C568 1.408 . S
C567 H594 0.930 1_545 S
C568 C563 1.348 . S
C568 C567 1.408 . S
C568 H595 0.930 . S
C569 O582 1.281 . S
C569 O583 1.254 . S
C570 O584 1.236 . S
C570 O585 1.266 . S
C571 Tb561 2.809 . S
C571 C572 1.514 . S
C571 O586 1.248 . S
C571 O587 1.266 . S
C572 C571 1.514 . S
C572 C573 1.359 . S
C572 C577 1.348 . S
C573 C572 1.359 . S
C573 C574 1.380 . S
C573 H596 0.929 . S
C574 C573 1.380 . S
C574 C575 1.347 . S
C574 H597 0.931 . S
C575 C574 1.347 . S
C575 C576 1.369 . S
C576 C575 1.369 . S
C576 C577 1.408 . S
C576 H598 0.930 . S
C577 C572 1.348 . S
C577 C576 1.408 . S
C577 H599 0.930 . S
C578 O588 1.281 . S
C578 O589 1.254 . S
C579 O590 1.236 . S
C579 O591 1.266 . S
O580 Tb560 2.484 . S
O580 C562 1.248 . S
O581 Tb560 2.440 . S
O581 C562 1.266 . S
O582 Tb560 2.658 . S
O582 Tb561 2.325 . S
O582 C569 1.281 . S
O583 Tb560 2.409 . S
O583 C569 1.254 . S
O584 Tb560 2.378 . S
O584 C570 1.236 . S
O585 Tb561 2.341 . S
O585 C570 1.266 . S
O586 Tb561 2.484 . S
O586 C571 1.248 . S
O587 Tb561 2.440 . S
O587 C571 1.266 . S
O588 Tb560 2.325 . S
O588 Tb561 2.658 . S
O588 C578 1.281 . S
O589 Tb561 2.409 . S
O589 C578 1.254 . S
O590 Tb561 2.378 . S
O590 C579 1.236 . S
O591 Tb560 2.341 . S
O591 C579 1.266 . S
H592 C564 0.929 . S
H593 C565 0.931 . S
H594 C567 0.930 1_565 S
H595 C568 0.930 . S
H596 C573 0.929 . S
H597 C574 0.931 . S
H598 C576 0.930 . S
H599 C577 0.930 . S
Tb600 C602 2.809 . S
Tb600 O620 2.484 . S
Tb600 O621 2.440 . S
Tb600 O622 2.658 . S
Tb600 O623 2.409 . S
Tb600 O624 2.378 . S
Tb600 O628 2.325 . S
Tb600 O631 2.341 . S
Tb601 C611 2.809 . S
Tb601 O622 2.325 . S
Tb601 O625 2.341 1_655 S
Tb601 O626 2.484 . S
Tb601 O627 2.440 . S
Tb601 O628 2.658 . S
Tb601 O629 2.409 1_655 S
Tb601 O630 2.378 . S
C602 Tb600 2.809 . S
C602 C603 1.514 . S
C602 O620 1.248 . S
C602 O621 1.266 . S
C603 C602 1.514 . S
C603 C604 1.359 1_655 S
C603 C608 1.348 . S
C604 C603 1.359 1_455 S
C604 C605 1.380 . S
C604 H632 0.929 . S
C605 C604 1.380 . S
C605 C606 1.347 . S
C605 H633 0.931 . S
C606 C605 1.347 . S
C606 C607 1.369 1_455 S
C607 C606 1.369 1_655 S
C607 C608 1.408 . S
C607 H634 0.930 . S
C608 C603 1.348 . S
C608 C607 1.408 . S
C608 H635 0.930 . S
C609 O622 1.281 . S
C609 O623 1.254 . S
C610 O624 1.236 1_455 S
C610 O625 1.266 . S
C611 Tb601 2.809 . S
C611 C612 1.514 . S
C611 O626 1.248 . S
C611 O627 1.266 . S
C612 C611 1.514 . S
C612 C613 1.359 . S
C612 C617 1.348 . S
C613 C612 1.359 . S
C613 C614 1.380 . S
C613 H636 0.929 . S
C614 C613 1.380 . S
C614 C615 1.347 . S
C614 H637 0.931 . S
C615 C614 1.347 . S
C615 C616 1.369 . S
C616 C615 1.369 . S
C616 C617 1.408 . S
C616 H638 0.930 . S
C617 C612 1.348 . S
C617 C616 1.408 . S
C617 H639 0.930 . S
C618 O628 1.281 1_455 S
C618 O629 1.254 . S
C619 O630 1.236 . S
C619 O631 1.266 . S
O620 Tb600 2.484 . S
O620 C602 1.248 . S
O621 Tb600 2.440 . S
O621 C602 1.266 . S
O622 Tb600 2.658 . S
O622 Tb601 2.325 . S
O622 C609 1.281 . S
O623 Tb600 2.409 . S
O623 C609 1.254 . S
O624 Tb600 2.378 . S
O624 C610 1.236 1_655 S
O625 Tb601 2.341 1_455 S
O625 C610 1.266 . S
O626 Tb601 2.484 . S
O626 C611 1.248 . S
O627 Tb601 2.440 . S
O627 C611 1.266 . S
O628 Tb600 2.325 . S
O628 Tb601 2.658 . S
O628 C618 1.281 1_655 S
O629 Tb601 2.409 1_455 S
O629 C618 1.254 . S
O630 Tb601 2.378 . S
O630 C619 1.236 . S
O631 Tb600 2.341 . S
O631 C619 1.266 . S
H632 C604 0.929 . S
H633 C605 0.931 . S
H634 C607 0.930 . S
H635 C608 0.930 . S
H636 C613 0.929 . S
H637 C614 0.931 . S
H638 C616 0.930 . S
H639 C617 0.930 . S
Tb640 C642 2.809 . S
Tb640 O660 2.484 . S
Tb640 O661 2.440 . S
Tb640 O662 2.658 . S
Tb640 O663 2.409 . S
Tb640 O664 2.378 . S
Tb640 O668 2.325 . S
Tb640 O671 2.341 . S
Tb641 C651 2.809 . S
Tb641 O662 2.325 . S
Tb641 O665 2.341 . S
Tb641 O666 2.484 . S
Tb641 O667 2.440 . S
Tb641 O668 2.658 . S
Tb641 O669 2.409 . S
Tb641 O670 2.378 . S
C642 Tb640 2.809 . S
C642 C643 1.514 . S
C642 O660 1.248 . S
C642 O661 1.266 . S
C643 C642 1.514 . S
C643 C644 1.359 . S
C643 C648 1.348 . S
C644 C643 1.359 . S
C644 C645 1.380 . S
C644 H672 0.929 . S
C645 C644 1.380 . S
C645 C646 1.347 . S
C645 H673 0.931 . S
C646 C645 1.347 . S
C646 C647 1.369 . S
C647 C646 1.369 . S
C647 C648 1.408 . S
C647 H674 0.930 . S
C648 C643 1.348 . S
C648 C647 1.408 . S
C648 H675 0.930 . S
C649 O662 1.281 . S
C649 O663 1.254 . S
C650 O664 1.236 . S
C650 O665 1.266 . S
C651 Tb641 2.809 . S
C651 C652 1.514 . S
C651 O666 1.248 . S
C651 O667 1.266 . S
C652 C651 1.514 . S
C652 C653 1.359 . S
C652 C657 1.348 . S
C653 C652 1.359 . S
C653 C654 1.380 . S
C653 H676 0.929 . S
C654 C653 1.380 . S
C654 C655 1.347 . S
C654 H677 0.931 . S
C655 C654 1.347 . S
C655 C656 1.369 . S
C656 C655 1.369 . S
C656 C657 1.408 . S
C656 H678 0.930 . S
C657 C652 1.348 . S
C657 C656 1.408 . S
C657 H679 0.930 . S
C658 O668 1.281 . S
C658 O669 1.254 . S
C659 O670 1.236 . S
C659 O671 1.266 . S
O660 Tb640 2.484 . S
O660 C642 1.248 . S
O661 Tb640 2.440 . S
O661 C642 1.266 . S
O662 Tb640 2.658 . S
O662 Tb641 2.325 . S
O662 C649 1.281 . S
O663 Tb640 2.409 . S
O663 C649 1.254 . S
O664 Tb640 2.378 . S
O664 C650 1.236 . S
O665 Tb641 2.341 . S
O665 C650 1.266 . S
O666 Tb641 2.484 . S
O666 C651 1.248 . S
O667 Tb641 2.440 . S
O667 C651 1.266 . S
O668 Tb640 2.325 . S
O668 Tb641 2.658 . S
O668 C658 1.281 . S
O669 Tb641 2.409 . S
O669 C658 1.254 . S
O670 Tb641 2.378 . S
O670 C659 1.236 . S
O671 Tb640 2.341 . S
O671 C659 1.266 . S
H672 C644 0.929 . S
H673 C645 0.931 . S
H674 C647 0.930 . S
H675 C648 0.930 . S
H676 C653 0.929 . S
H677 C654 0.931 . S
H678 C656 0.930 . S
H679 C657 0.930 . S
Tb680 C682 2.809 . S
Tb680 O700 2.484 . S
Tb680 O701 2.440 . S
Tb680 O702 2.658 . S
Tb680 O703 2.409 . S
Tb680 O704 2.378 . S
Tb680 O708 2.325 . S
Tb680 O711 2.341 . S
Tb681 C691 2.809 . S
Tb681 O702 2.325 . S
Tb681 O705 2.341 1_545 S
Tb681 O706 2.484 . S
Tb681 O707 2.440 . S
Tb681 O708 2.658 . S
Tb681 O709 2.409 1_545 S
Tb681 O710 2.378 . S
C682 Tb680 2.809 . S
C682 C683 1.514 . S
C682 O700 1.248 . S
C682 O701 1.266 . S
C683 C682 1.514 . S
C683 C684 1.359 1_545 S
C683 C688 1.348 . S
C684 C683 1.359 1_565 S
C684 C685 1.380 . S
C684 H712 0.929 . S
C685 C684 1.380 . S
C685 C686 1.347 . S
C685 H713 0.931 . S
C686 C685 1.347 . S
C686 C687 1.369 1_565 S
C687 C686 1.369 1_545 S
C687 C688 1.408 . S
C687 H714 0.930 . S
C688 C683 1.348 . S
C688 C687 1.408 . S
C688 H715 0.930 . S
C689 O702 1.281 . S
C689 O703 1.254 . S
C690 O704 1.236 1_565 S
C690 O705 1.266 . S
C691 Tb681 2.809 . S
C691 C692 1.514 . S
C691 O706 1.248 . S
C691 O707 1.266 . S
C692 C691 1.514 . S
C692 C693 1.359 . S
C692 C697 1.348 . S
C693 C692 1.359 . S
C693 C694 1.380 . S
C693 H716 0.929 . S
C694 C693 1.380 . S
C694 C695 1.347 . S
C694 H717 0.931 . S
C695 C694 1.347 . S
C695 C696 1.369 . S
C696 C695 1.369 . S
C696 C697 1.408 . S
C696 H718 0.930 . S
C697 C692 1.348 . S
C697 C696 1.408 . S
C697 H719 0.930 . S
C698 O708 1.281 1_565 S
C698 O709 1.254 . S
C699 O710 1.236 . S
C699 O711 1.266 . S
O700 Tb680 2.484 . S
O700 C682 1.248 . S
O701 Tb680 2.440 . S
O701 C682 1.266 . S
O702 Tb680 2.658 . S
O702 Tb681 2.325 . S
O702 C689 1.281 . S
O703 Tb680 2.409 . S
O703 C689 1.254 . S
O704 Tb680 2.378 . S
O704 C690 1.236 1_545 S
O705 Tb681 2.341 1_565 S
O705 C690 1.266 . S
O706 Tb681 2.484 . S
O706 C691 1.248 . S
O707 Tb681 2.440 . S
O707 C691 1.266 . S
O708 Tb680 2.325 . S
O708 Tb681 2.658 . S
O708 C698 1.281 1_545 S
O709 Tb681 2.409 1_565 S
O709 C698 1.254 . S
O710 Tb681 2.378 . S
O710 C699 1.236 . S
O711 Tb680 2.341 . S
O711 C699 1.266 . S
H712 C684 0.929 . S
H713 C685 0.931 . S
H714 C687 0.930 . S
H715 C688 0.930 . S
H716 C693 0.929 . S
H717 C694 0.931 . S
H718 C696 0.930 . S
H719 C697 0.930 . S
Tb720 C722 2.809 . S
Tb720 O740 2.484 . S
Tb720 O741 2.440 . S
Tb720 O742 2.658 . S
Tb720 O743 2.409 1_545 S
Tb720 O744 2.378 . S
Tb720 O748 2.325 . S
Tb720 O751 2.341 1_545 S
Tb721 C731 2.809 . S
Tb721 O742 2.325 . S
Tb721 O745 2.341 . S
Tb721 O746 2.484 . S
Tb721 O747 2.440 . S
Tb721 O748 2.658 . S
Tb721 O749 2.409 . S
Tb721 O750 2.378 . S
C722 Tb720 2.809 . S
C722 C723 1.514 . S
C722 O740 1.248 . S
C722 O741 1.266 . S
C723 C722 1.514 . S
C723 C724 1.359 . S
C723 C728 1.348 . S
C724 C723 1.359 . S
C724 C725 1.380 . S
C724 H752 0.929 . S
C725 C724 1.380 . S
C725 C726 1.347 . S
C725 H753 0.931 . S
C726 C725 1.347 . S
C726 C727 1.369 . S
C727 C726 1.369 . S
C727 C728 1.408 . S
C727 H754 0.930 . S
C728 C723 1.348 . S
C728 C727 1.408 . S
C728 H755 0.930 . S
C729 O742 1.281 1_565 S
C729 O743 1.254 . S
C730 O744 1.236 . S
C730 O745 1.266 . S
C731 Tb721 2.809 . S
C731 C732 1.514 . S
C731 O746 1.248 . S
C731 O747 1.266 . S
C732 C731 1.514 . S
C732 C733 1.359 1_545 S
C732 C737 1.348 . S
C733 C732 1.359 1_565 S
C733 C734 1.380 . S
C733 H756 0.929 . S
C734 C733 1.380 . S
C734 C735 1.347 . S
C734 H757 0.931 . S
C735 C734 1.347 . S
C735 C736 1.369 1_565 S
C736 C735 1.369 1_545 S
C736 C737 1.408 . S
C736 H758 0.930 . S
C737 C732 1.348 . S
C737 C736 1.408 . S
C737 H759 0.930 . S
C738 O748 1.281 . S
C738 O749 1.254 . S
C739 O750 1.236 1_565 S
C739 O751 1.266 . S
O740 Tb720 2.484 . S
O740 C722 1.248 . S
O741 Tb720 2.440 . S
O741 C722 1.266 . S
O742 Tb720 2.658 . S
O742 Tb721 2.325 . S
O742 C729 1.281 1_545 S
O743 Tb720 2.409 1_565 S
O743 C729 1.254 . S
O744 Tb720 2.378 . S
O744 C730 1.236 . S
O745 Tb721 2.341 . S
O745 C730 1.266 . S
O746 Tb721 2.484 . S
O746 C731 1.248 . S
O747 Tb721 2.440 . S
O747 C731 1.266 . S
O748 Tb720 2.325 . S
O748 Tb721 2.658 . S
O748 C738 1.281 . S
O749 Tb721 2.409 . S
O749 C738 1.254 . S
O750 Tb721 2.378 . S
O750 C739 1.236 1_545 S
O751 Tb720 2.341 1_565 S
O751 C739 1.266 . S
H752 C724 0.929 . S
H753 C725 0.931 . S
H754 C727 0.930 . S
H755 C728 0.930 . S
H756 C733 0.929 . S
H757 C734 0.931 . S
H758 C736 0.930 . S
H759 C737 0.930 . S
Tb760 C762 2.809 . S
Tb760 O780 2.484 . S
Tb760 O781 2.440 . S
Tb760 O782 2.658 . S
Tb760 O783 2.409 1_655 S
Tb760 O784 2.378 . S
Tb760 O788 2.325 . S
Tb760 O791 2.341 1_655 S
Tb761 C771 2.809 . S
Tb761 O782 2.325 . S
Tb761 O785 2.341 . S
Tb761 O786 2.484 . S
Tb761 O787 2.440 . S
Tb761 O788 2.658 . S
Tb761 O789 2.409 . S
Tb761 O790 2.378 . S
C762 Tb760 2.809 . S
C762 C763 1.514 . S
C762 O780 1.248 . S
C762 O781 1.266 . S
C763 C762 1.514 . S
C763 C764 1.359 . S
C763 C768 1.348 . S
C764 C763 1.359 . S
C764 C765 1.380 . S
C764 H792 0.929 . S
C765 C764 1.380 . S
C765 C766 1.347 . S
C765 H793 0.931 . S
C766 C765 1.347 . S
C766 C767 1.369 . S
C767 C766 1.369 . S
C767 C768 1.408 . S
C767 H794 0.930 . S
C768 C763 1.348 . S
C768 C767 1.408 . S
C768 H795 0.930 . S
C769 O782 1.281 1_455 S
C769 O783 1.254 . S
C770 O784 1.236 . S
C770 O785 1.266 . S
C771 Tb761 2.809 . S
C771 C772 1.514 . S
C771 O786 1.248 . S
C771 O787 1.266 . S
C772 C771 1.514 . S
C772 C773 1.359 1_655 S
C772 C777 1.348 . S
C773 C772 1.359 1_455 S
C773 C774 1.380 . S
C773 H796 0.929 . S
C774 C773 1.380 . S
C774 C775 1.347 . S
C774 H797 0.931 . S
C775 C774 1.347 . S
C775 C776 1.369 1_455 S
C776 C775 1.369 1_655 S
C776 C777 1.408 . S
C776 H798 0.930 . S
C777 C772 1.348 . S
C777 C776 1.408 . S
C777 H799 0.930 . S
C778 O788 1.281 . S
C778 O789 1.254 . S
C779 O790 1.236 1_455 S
C779 O791 1.266 . S
O780 Tb760 2.484 . S
O780 C762 1.248 . S
O781 Tb760 2.440 . S
O781 C762 1.266 . S
O782 Tb760 2.658 . S
O782 Tb761 2.325 . S
O782 C769 1.281 1_655 S
O783 Tb760 2.409 1_455 S
O783 C769 1.254 . S
O784 Tb760 2.378 . S
O784 C770 1.236 . S
O785 Tb761 2.341 . S
O785 C770 1.266 . S
O786 Tb761 2.484 . S
O786 C771 1.248 . S
O787 Tb761 2.440 . S
O787 C771 1.266 . S
O788 Tb760 2.325 . S
O788 Tb761 2.658 . S
O788 C778 1.281 . S
O789 Tb761 2.409 . S
O789 C778 1.254 . S
O790 Tb761 2.378 . S
O790 C779 1.236 1_655 S
O791 Tb760 2.341 1_455 S
O791 C779 1.266 . S
H792 C764 0.929 . S
H793 C765 0.931 . S
H794 C767 0.930 . S
H795 C768 0.930 . S
H796 C773 0.929 . S
H797 C774 0.931 . S
H798 C776 0.930 . S
H799 C777 0.930 . S
Tb800 C802 2.809 . S
Tb800 O820 2.484 . S
Tb800 O821 2.440 . S
Tb800 O822 2.658 . S
Tb800 O823 2.409 . S
Tb800 O824 2.378 . S
Tb800 O828 2.325 . S
Tb800 O831 2.341 . S
Tb801 C811 2.809 . S
Tb801 O822 2.325 . S
Tb801 O825 2.341 . S
Tb801 O826 2.484 . S
Tb801 O827 2.440 . S
Tb801 O828 2.658 . S
Tb801 O829 2.409 . S
Tb801 O830 2.378 . S
C802 Tb800 2.809 . S
C802 C803 1.514 . S
C802 O820 1.248 . S
C802 O821 1.266 . S
C803 C802 1.514 . S
C803 C804 1.359 . S
C803 C808 1.348 . S
C804 C803 1.359 . S
C804 C805 1.380 . S
C804 H832 0.929 . S
C805 C804 1.380 . S
C805 C806 1.347 . S
C805 H833 0.931 . S
C806 C805 1.347 . S
C806 C807 1.369 . S
C807 C806 1.369 . S
C807 C808 1.408 . S
C807 H834 0.930 . S
C808 C803 1.348 . S
C808 C807 1.408 . S
C808 H835 0.930 . S
C809 O822 1.281 . S
C809 O823 1.254 . S
C810 O824 1.236 . S
C810 O825 1.266 . S
C811 Tb801 2.809 . S
C811 C812 1.514 . S
C811 O826 1.248 . S
C811 O827 1.266 . S
C812 C811 1.514 . S
C812 C813 1.359 . S
C812 C817 1.348 . S
C813 C812 1.359 . S
C813 C814 1.380 . S
C813 H836 0.929 . S
C814 C813 1.380 . S
C814 C815 1.347 . S
C814 H837 0.931 . S
C815 C814 1.347 . S
C815 C816 1.369 . S
C816 C815 1.369 . S
C816 C817 1.408 . S
C816 H838 0.930 . S
C817 C812 1.348 . S
C817 C816 1.408 . S
C817 H839 0.930 . S
C818 O828 1.281 . S
C818 O829 1.254 . S
C819 O830 1.236 . S
C819 O831 1.266 . S
O820 Tb800 2.484 . S
O820 C802 1.248 . S
O821 Tb800 2.440 . S
O821 C802 1.266 . S
O822 Tb800 2.658 . S
O822 Tb801 2.325 . S
O822 C809 1.281 . S
O823 Tb800 2.409 . S
O823 C809 1.254 . S
O824 Tb800 2.378 . S
O824 C810 1.236 . S
O825 Tb801 2.341 . S
O825 C810 1.266 . S
O826 Tb801 2.484 . S
O826 C811 1.248 . S
O827 Tb801 2.440 . S
O827 C811 1.266 . S
O828 Tb800 2.325 . S
O828 Tb801 2.658 . S
O828 C818 1.281 . S
O829 Tb801 2.409 . S
O829 C818 1.254 . S
O830 Tb801 2.378 . S
O830 C819 1.236 . S
O831 Tb800 2.341 . S
O831 C819 1.266 . S
H832 C804 0.929 . S
H833 C805 0.931 . S
H834 C807 0.930 . S
H835 C808 0.930 . S
H836 C813 0.929 . S
H837 C814 0.931 . S
H838 C816 0.930 . S
H839 C817 0.930 . S
Tb840 C842 2.809 . S
Tb840 O860 2.484 . S
Tb840 O861 2.440 . S
Tb840 O862 2.658 1_554 S
Tb840 O863 2.409 . S
Tb840 O864 2.378 . S
Tb840 O868 2.325 . S
Tb840 O871 2.341 . S
Tb841 C851 2.809 . S
Tb841 O862 2.325 . S
Tb841 O865 2.341 . S
Tb841 O866 2.484 . S
Tb841 O867 2.440 . S
Tb841 O868 2.658 1_556 S
Tb841 O869 2.409 . S
Tb841 O870 2.378 . S
C842 Tb840 2.809 . S
C842 C843 1.514 . S
C842 O860 1.248 . S
C842 O861 1.266 . S
C843 C842 1.514 . S
C843 C844 1.359 . S
C843 C848 1.348 . S
C844 C843 1.359 . S
C844 C845 1.380 . S
C844 H872 0.929 . S
C845 C844 1.380 . S
C845 C846 1.347 . S
C845 H873 0.931 . S
C846 C845 1.347 . S
C846 C847 1.369 . S
C847 C846 1.369 . S
C847 C848 1.408 . S
C847 H874 0.930 . S
C848 C843 1.348 . S
C848 C847 1.408 . S
C848 H875 0.930 . S
C849 O862 1.281 1_554 S
C849 O863 1.254 . S
C850 O864 1.236 . S
C850 O865 1.266 1_554 S
C851 Tb841 2.809 . S
C851 C852 1.514 . S
C851 O866 1.248 . S
C851 O867 1.266 . S
C852 C851 1.514 . S
C852 C853 1.359 . S
C852 C857 1.348 . S
C853 C852 1.359 . S
C853 C854 1.380 . S
C853 H876 0.929 . S
C854 C853 1.380 . S
C854 C855 1.347 1_545 S
C854 H877 0.931 . S
C855 C854 1.347 1_565 S
C855 C856 1.369 1_565 S
C856 C855 1.369 1_545 S
C856 C857 1.408 . S
C856 H878 0.930 1_545 S
C857 C852 1.348 . S
C857 C856 1.408 . S
C857 H879 0.930 . S
C858 O868 1.281 1_556 S
C858 O869 1.254 . S
C859 O870 1.236 . S
C859 O871 1.266 1_556 S
O860 Tb840 2.484 . S
O860 C842 1.248 . S
O861 Tb840 2.440 . S
O861 C842 1.266 . S
O862 Tb840 2.658 1_556 S
O862 Tb841 2.325 . S
O862 C849 1.281 1_556 S
O863 Tb840 2.409 . S
O863 C849 1.254 . S
O864 Tb840 2.378 . S
O864 C850 1.236 . S
O865 Tb841 2.341 . S
O865 C850 1.266 1_556 S
O866 Tb841 2.484 . S
O866 C851 1.248 . S
O867 Tb841 2.440 . S
O867 C851 1.266 . S
O868 Tb840 2.325 . S
O868 Tb841 2.658 1_554 S
O868 C858 1.281 1_554 S
O869 Tb841 2.409 . S
O869 C858 1.254 . S
O870 Tb841 2.378 . S
O870 C859 1.236 . S
O871 Tb840 2.341 . S
O871 C859 1.266 1_554 S
H872 C844 0.929 . S
H873 C845 0.931 . S
H874 C847 0.930 . S
H875 C848 0.930 . S
H876 C853 0.929 . S
H877 C854 0.931 . S
H878 C856 0.930 1_565 S
H879 C857 0.930 . S
Tb880 C882 2.809 . S
Tb880 O900 2.484 . S
Tb880 O901 2.440 . S
Tb880 O902 2.658 1_554 S
Tb880 O903 2.409 . S
Tb880 O904 2.378 . S
Tb880 O908 2.325 . S
Tb880 O911 2.341 . S
Tb881 C891 2.809 . S
Tb881 O902 2.325 . S
Tb881 O905 2.341 . S
Tb881 O906 2.484 . S
Tb881 O907 2.440 . S
Tb881 O908 2.658 1_556 S
Tb881 O909 2.409 . S
Tb881 O910 2.378 . S
C882 Tb880 2.809 . S
C882 C883 1.514 . S
C882 O900 1.248 . S
C882 O901 1.266 . S
C883 C882 1.514 . S
C883 C884 1.359 . S
C883 C888 1.348 . S
C884 C883 1.359 . S
C884 C885 1.380 . S
C884 H912 0.929 . S
C885 C884 1.380 . S
C885 C886 1.347 . S
C885 H913 0.931 . S
C886 C885 1.347 . S
C886 C887 1.369 . S
C887 C886 1.369 . S
C887 C888 1.408 . S
C887 H914 0.930 . S
C888 C883 1.348 . S
C888 C887 1.408 . S
C888 H915 0.930 . S
C889 O902 1.281 1_554 S
C889 O903 1.254 . S
C890 O904 1.236 . S
C890 O905 1.266 1_554 S
C891 Tb881 2.809 . S
C891 C892 1.514 . S
C891 O906 1.248 . S
C891 O907 1.266 . S
C892 C891 1.514 . S
C892 C893 1.359 . S
C892 C897 1.348 . S
C893 C892 1.359 . S
C893 C894 1.380 . S
C893 H916 0.929 . S
C894 C893 1.380 . S
C894 C895 1.347 1_655 S
C894 H917 0.931 . S
C895 C894 1.347 1_455 S
C895 C896 1.369 1_455 S
C896 C895 1.369 1_655 S
C896 C897 1.408 . S
C896 H918 0.930 1_655 S
C897 C892 1.348 . S
C897 C896 1.408 . S
C897 H919 0.930 . S
C898 O908 1.281 1_556 S
C898 O909 1.254 . S
C899 O910 1.236 . S
C899 O911 1.266 1_556 S
O900 Tb880 2.484 . S
O900 C882 1.248 . S
O901 Tb880 2.440 . S
O901 C882 1.266 . S
O902 Tb880 2.658 1_556 S
O902 Tb881 2.325 . S
O902 C889 1.281 1_556 S
O903 Tb880 2.409 . S
O903 C889 1.254 . S
O904 Tb880 2.378 . S
O904 C890 1.236 . S
O905 Tb881 2.341 . S
O905 C890 1.266 1_556 S
O906 Tb881 2.484 . S
O906 C891 1.248 . S
O907 Tb881 2.440 . S
O907 C891 1.266 . S
O908 Tb880 2.325 . S
O908 Tb881 2.658 1_554 S
O908 C898 1.281 1_554 S
O909 Tb881 2.409 . S
O909 C898 1.254 . S
O910 Tb881 2.378 . S
O910 C899 1.236 . S
O911 Tb880 2.341 . S
O911 C899 1.266 1_554 S
H912 C884 0.929 . S
H913 C885 0.931 . S
H914 C887 0.930 . S
H915 C888 0.930 . S
H916 C893 0.929 . S
H917 C894 0.931 . S
H918 C896 0.930 1_455 S
H919 C897 0.930 . S
Tb920 C922 2.809 . S
Tb920 O940 2.484 . S
Tb920 O941 2.440 . S
Tb920 O942 2.658 1_554 S
Tb920 O943 2.409 . S
Tb920 O944 2.378 . S
Tb920 O948 2.325 . S
Tb920 O951 2.341 . S
Tb921 C931 2.809 . S
Tb921 O942 2.325 . S
Tb921 O945 2.341 . S
Tb921 O946 2.484 . S
Tb921 O947 2.440 . S
Tb921 O948 2.658 1_556 S
Tb921 O949 2.409 . S
Tb921 O950 2.378 . S
C922 Tb920 2.809 . S
C922 C923 1.514 . S
C922 O940 1.248 . S
C922 O941 1.266 . S
C923 C922 1.514 . S
C923 C924 1.359 . S
C923 C928 1.348 . S
C924 C923 1.359 . S
C924 C925 1.380 . S
C924 H952 0.929 . S
C925 C924 1.380 . S
C925 C926 1.347 . S
C925 H953 0.931 . S
C926 C925 1.347 . S
C926 C927 1.369 . S
C927 C926 1.369 . S
C927 C928 1.408 . S
C927 H954 0.930 . S
C928 C923 1.348 . S
C928 C927 1.408 . S
C928 H955 0.930 . S
C929 O942 1.281 1_554 S
C929 O943 1.254 . S
C930 O944 1.236 . S
C930 O945 1.266 1_554 S
C931 Tb921 2.809 . S
C931 C932 1.514 . S
C931 O946 1.248 . S
C931 O947 1.266 . S
C932 C931 1.514 . S
C932 C933 1.359 . S
C932 C937 1.348 . S
C933 C932 1.359 . S
C933 C934 1.380 . S
C933 H956 0.929 . S
C934 C933 1.380 . S
C934 C935 1.347 . S
C934 H957 0.931 . S
C935 C934 1.347 . S
C935 C936 1.369 . S
C936 C935 1.369 . S
C936 C937 1.408 . S
C936 H958 0.930 . S
C937 C932 1.348 . S
C937 C936 1.408 . S
C937 H959 0.930 . S
C938 O948 1.281 1_556 S
C938 O949 1.254 . S
C939 O950 1.236 . S
C939 O951 1.266 1_556 S
O940 Tb920 2.484 . S
O940 C922 1.248 . S
O941 Tb920 2.440 . S
O941 C922 1.266 . S
O942 Tb920 2.658 1_556 S
O942 Tb921 2.325 . S
O942 C929 1.281 1_556 S
O943 Tb920 2.409 . S
O943 C929 1.254 . S
O944 Tb920 2.378 . S
O944 C930 1.236 . S
O945 Tb921 2.341 . S
O945 C930 1.266 1_556 S
O946 Tb921 2.484 . S
O946 C931 1.248 . S
O947 Tb921 2.440 . S
O947 C931 1.266 . S
O948 Tb920 2.325 . S
O948 Tb921 2.658 1_554 S
O948 C938 1.281 1_554 S
O949 Tb921 2.409 . S
O949 C938 1.254 . S
O950 Tb921 2.378 . S
O950 C939 1.236 . S
O951 Tb920 2.341 . S
O951 C939 1.266 1_554 S
H952 C924 0.929 . S
H953 C925 0.931 . S
H954 C927 0.930 . S
H955 C928 0.930 . S
H956 C933 0.929 . S
H957 C934 0.931 . S
H958 C936 0.930 . S
H959 C937 0.930 . S
Tb960 C962 2.809 . S
Tb960 O980 2.484 . S
Tb960 O981 2.440 . S
Tb960 O982 2.658 . S
Tb960 O983 2.409 . S
Tb960 O984 2.378 . S
Tb960 O988 2.325 . S
Tb960 O991 2.341 . S
Tb961 C971 2.809 . S
Tb961 O982 2.325 . S
Tb961 O985 2.341 1_565 S
Tb961 O986 2.484 . S
Tb961 O987 2.440 . S
Tb961 O988 2.658 . S
Tb961 O989 2.409 1_565 S
Tb961 O990 2.378 . S
C962 Tb960 2.809 . S
C962 C963 1.514 . S
C962 O980 1.248 . S
C962 O981 1.266 . S
C963 C962 1.514 . S
C963 C964 1.359 1_565 S
C963 C968 1.348 . S
C964 C963 1.359 1_545 S
C964 C965 1.380 . S
C964 H992 0.929 . S
C965 C964 1.380 . S
C965 C966 1.347 . S
C965 H993 0.931 . S
C966 C965 1.347 . S
C966 C967 1.369 1_545 S
C967 C966 1.369 1_565 S
C967 C968 1.408 . S
C967 H994 0.930 . S
C968 C963 1.348 . S
C968 C967 1.408 . S
C968 H995 0.930 . S
C969 O982 1.281 . S
C969 O983 1.254 . S
C970 O984 1.236 1_545 S
C970 O985 1.266 . S
C971 Tb961 2.809 . S
C971 C972 1.514 . S
C971 O986 1.248 . S
C971 O987 1.266 . S
C972 C971 1.514 . S
C972 C973 1.359 . S
C972 C977 1.348 . S
C973 C972 1.359 . S
C973 C974 1.380 . S
C973 H996 0.929 . S
C974 C973 1.380 . S
C974 C975 1.347 . S
C974 H997 0.931 . S
C975 C974 1.347 . S
C975 C976 1.369 . S
C976 C975 1.369 . S
C976 C977 1.408 . S
C976 H998 0.930 . S
C977 C972 1.348 . S
C977 C976 1.408 . S
C977 H999 0.930 . S
C978 O988 1.281 1_545 S
C978 O989 1.254 . S
C979 O990 1.236 . S
C979 O991 1.266 . S
O980 Tb960 2.484 . S
O980 C962 1.248 . S
O981 Tb960 2.440 . S
O981 C962 1.266 . S
O982 Tb960 2.658 . S
O982 Tb961 2.325 . S
O982 C969 1.281 . S
O983 Tb960 2.409 . S
O983 C969 1.254 . S
O984 Tb960 2.378 . S
O984 C970 1.236 1_565 S
O985 Tb961 2.341 1_545 S
O985 C970 1.266 . S
O986 Tb961 2.484 . S
O986 C971 1.248 . S
O987 Tb961 2.440 . S
O987 C971 1.266 . S
O988 Tb960 2.325 . S
O988 Tb961 2.658 . S
O988 C978 1.281 1_565 S
O989 Tb961 2.409 1_545 S
O989 C978 1.254 . S
O990 Tb961 2.378 . S
O990 C979 1.236 . S
O991 Tb960 2.341 . S
O991 C979 1.266 . S
H992 C964 0.929 . S
H993 C965 0.931 . S
H994 C967 0.930 . S
H995 C968 0.930 . S
H996 C973 0.929 . S
H997 C974 0.931 . S
H998 C976 0.930 . S
H999 C977 0.930 . S
Tb1000 C1002 2.809 . S
Tb1000 O1020 2.484 . S
Tb1000 O1021 2.440 . S
Tb1000 O1022 2.658 . S
Tb1000 O1023 2.409 . S
Tb1000 O1024 2.378 . S
Tb1000 O1028 2.325 . S
Tb1000 O1031 2.341 . S
Tb1001 C1011 2.809 . S
Tb1001 O1022 2.325 . S
Tb1001 O1025 2.341 1_455 S
Tb1001 O1026 2.484 . S
Tb1001 O1027 2.440 . S
Tb1001 O1028 2.658 . S
Tb1001 O1029 2.409 1_455 S
Tb1001 O1030 2.378 . S
C1002 Tb1000 2.809 . S
C1002 C1003 1.514 . S
C1002 O1020 1.248 . S
C1002 O1021 1.266 . S
C1003 C1002 1.514 . S
C1003 C1004 1.359 1_455 S
C1003 C1008 1.348 . S
C1004 C1003 1.359 1_655 S
C1004 C1005 1.380 . S
C1004 H1032 0.929 . S
C1005 C1004 1.380 . S
C1005 C1006 1.347 . S
C1005 H1033 0.931 . S
C1006 C1005 1.347 . S
C1006 C1007 1.369 1_655 S
C1007 C1006 1.369 1_455 S
C1007 C1008 1.408 . S
C1007 H1034 0.930 . S
C1008 C1003 1.348 . S
C1008 C1007 1.408 . S
C1008 H1035 0.930 . S
C1009 O1022 1.281 . S
C1009 O1023 1.254 . S
C1010 O1024 1.236 1_655 S
C1010 O1025 1.266 . S
C1011 Tb1001 2.809 . S
C1011 C1012 1.514 . S
C1011 O1026 1.248 . S
C1011 O1027 1.266 . S
C1012 C1011 1.514 . S
C1012 C1013 1.359 . S
C1012 C1017 1.348 . S
C1013 C1012 1.359 . S
C1013 C1014 1.380 . S
C1013 H1036 0.929 . S
C1014 C1013 1.380 . S
C1014 C1015 1.347 . S
C1014 H1037 0.931 . S
C1015 C1014 1.347 . S
C1015 C1016 1.369 . S
C1016 C1015 1.369 . S
C1016 C1017 1.408 . S
C1016 H1038 0.930 . S
C1017 C1012 1.348 . S
C1017 C1016 1.408 . S
C1017 H1039 0.930 . S
C1018 O1028 1.281 1_655 S
C1018 O1029 1.254 . S
C1019 O1030 1.236 . S
C1019 O1031 1.266 . S
O1020 Tb1000 2.484 . S
O1020 C1002 1.248 . S
O1021 Tb1000 2.440 . S
O1021 C1002 1.266 . S
O1022 Tb1000 2.658 . S
O1022 Tb1001 2.325 . S
O1022 C1009 1.281 . S
O1023 Tb1000 2.409 . S
O1023 C1009 1.254 . S
O1024 Tb1000 2.378 . S
O1024 C1010 1.236 1_455 S
O1025 Tb1001 2.341 1_655 S
O1025 C1010 1.266 . S
O1026 Tb1001 2.484 . S
O1026 C1011 1.248 . S
O1027 Tb1001 2.440 . S
O1027 C1011 1.266 . S
O1028 Tb1000 2.325 . S
O1028 Tb1001 2.658 . S
O1028 C1018 1.281 1_455 S
O1029 Tb1001 2.409 1_655 S
O1029 C1018 1.254 . S
O1030 Tb1001 2.378 . S
O1030 C1019 1.236 . S
O1031 Tb1000 2.341 . S
O1031 C1019 1.266 . S
H1032 C1004 0.929 . S
H1033 C1005 0.931 . S
H1034 C1007 0.930 . S
H1035 C1008 0.930 . S
H1036 C1013 0.929 . S
H1037 C1014 0.931 . S
H1038 C1016 0.930 . S
H1039 C1017 0.930 . S
Tb1040 C1042 2.809 . S
Tb1040 O1060 2.484 . S
Tb1040 O1061 2.440 . S
Tb1040 O1062 2.658 . S
Tb1040 O1063 2.409 . S
Tb1040 O1064 2.378 . S
Tb1040 O1068 2.325 . S
Tb1040 O1071 2.341 . S
Tb1041 C1051 2.809 . S
Tb1041 O1062 2.325 . S
Tb1041 O1065 2.341 . S
Tb1041 O1066 2.484 . S
Tb1041 O1067 2.440 . S
Tb1041 O1068 2.658 . S
Tb1041 O1069 2.409 . S
Tb1041 O1070 2.378 . S
C1042 Tb1040 2.809 . S
C1042 C1043 1.514 . S
C1042 O1060 1.248 . S
C1042 O1061 1.266 . S
C1043 C1042 1.514 . S
C1043 C1044 1.359 . S
C1043 C1048 1.348 . S
C1044 C1043 1.359 . S
C1044 C1045 1.380 . S
C1044 H1072 0.929 . S
C1045 C1044 1.380 . S
C1045 C1046 1.347 . S
C1045 H1073 0.931 . S
C1046 C1045 1.347 . S
C1046 C1047 1.369 . S
C1047 C1046 1.369 . S
C1047 C1048 1.408 . S
C1047 H1074 0.930 . S
C1048 C1043 1.348 . S
C1048 C1047 1.408 . S
C1048 H1075 0.930 . S
C1049 O1062 1.281 . S
C1049 O1063 1.254 . S
C1050 O1064 1.236 . S
C1050 O1065 1.266 . S
C1051 Tb1041 2.809 . S
C1051 C1052 1.514 . S
C1051 O1066 1.248 . S
C1051 O1067 1.266 . S
C1052 C1051 1.514 . S
C1052 C1053 1.359 . S
C1052 C1057 1.348 . S
C1053 C1052 1.359 . S
C1053 C1054 1.380 . S
C1053 H1076 0.929 . S
C1054 C1053 1.380 . S
C1054 C1055 1.347 . S
C1054 H1077 0.931 . S
C1055 C1054 1.347 . S
C1055 C1056 1.369 . S
C1056 C1055 1.369 . S
C1056 C1057 1.408 . S
C1056 H1078 0.930 . S
C1057 C1052 1.348 . S
C1057 C1056 1.408 . S
C1057 H1079 0.930 . S
C1058 O1068 1.281 . S
C1058 O1069 1.254 . S
C1059 O1070 1.236 . S
C1059 O1071 1.266 . S
O1060 Tb1040 2.484 . S
O1060 C1042 1.248 . S
O1061 Tb1040 2.440 . S
O1061 C1042 1.266 . S
O1062 Tb1040 2.658 . S
O1062 Tb1041 2.325 . S
O1062 C1049 1.281 . S
O1063 Tb1040 2.409 . S
O1063 C1049 1.254 . S
O1064 Tb1040 2.378 . S
O1064 C1050 1.236 . S
O1065 Tb1041 2.341 . S
O1065 C1050 1.266 . S
O1066 Tb1041 2.484 . S
O1066 C1051 1.248 . S
O1067 Tb1041 2.440 . S
O1067 C1051 1.266 . S
O1068 Tb1040 2.325 . S
O1068 Tb1041 2.658 . S
O1068 C1058 1.281 . S
O1069 Tb1041 2.409 . S
O1069 C1058 1.254 . S
O1070 Tb1041 2.378 . S
O1070 C1059 1.236 . S
O1071 Tb1040 2.341 . S
O1071 C1059 1.266 . S
H1072 C1044 0.929 . S
H1073 C1045 0.931 . S
H1074 C1047 0.930 . S
H1075 C1048 0.930 . S
H1076 C1053 0.929 . S
H1077 C1054 0.931 . S
H1078 C1056 0.930 . S
H1079 C1057 0.930 . S
Tb1080 C1082 2.809 . S
Tb1080 O1100 2.484 . S
Tb1080 O1101 2.440 . S
Tb1080 O1102 2.658 1_554 S
Tb1080 O1103 2.409 . S
Tb1080 O1104 2.378 . S
Tb1080 O1108 2.325 . S
Tb1080 O1111 2.341 . S
Tb1081 C1091 2.809 . S
Tb1081 O1102 2.325 . S
Tb1081 O1105 2.341 . S
Tb1081 O1106 2.484 . S
Tb1081 O1107 2.440 . S
Tb1081 O1108 2.658 1_556 S
Tb1081 O1109 2.409 . S
Tb1081 O1110 2.378 . S
C1082 Tb1080 2.809 . S
C1082 C1083 1.514 . S
C1082 O1100 1.248 . S
C1082 O1101 1.266 . S
C1083 C1082 1.514 . S
C1083 C1084 1.359 . S
C1083 C1088 1.348 . S
C1084 C1083 1.359 . S
C1084 C1085 1.380 . S
C1084 H1112 0.929 . S
C1085 C1084 1.380 . S
C1085 C1086 1.347 1_565 S
C1085 H1113 0.931 . S
C1086 C1085 1.347 1_545 S
C1086 C1087 1.369 1_545 S
C1087 C1086 1.369 1_565 S
C1087 C1088 1.408 . S
C1087 H1114 0.930 1_565 S
C1088 C1083 1.348 . S
C1088 C1087 1.408 . S
C1088 H1115 0.930 . S
C1089 O1102 1.281 1_554 S
C1089 O1103 1.254 . S
C1090 O1104 1.236 . S
C1090 O1105 1.266 1_554 S
C1091 Tb1081 2.809 . S
C1091 C1092 1.514 . S
C1091 O1106 1.248 . S
C1091 O1107 1.266 . S
C1092 C1091 1.514 . S
C1092 C1093 1.359 . S
C1092 C1097 1.348 . S
C1093 C1092 1.359 . S
C1093 C1094 1.380 . S
C1093 H1116 0.929 . S
C1094 C1093 1.380 . S
C1094 C1095 1.347 . S
C1094 H1117 0.931 . S
C1095 C1094 1.347 . S
C1095 C1096 1.369 . S
C1096 C1095 1.369 . S
C1096 C1097 1.408 . S
C1096 H1118 0.930 . S
C1097 C1092 1.348 . S
C1097 C1096 1.408 . S
C1097 H1119 0.930 . S
C1098 O1108 1.281 1_556 S
C1098 O1109 1.254 . S
C1099 O1110 1.236 . S
C1099 O1111 1.266 1_556 S
O1100 Tb1080 2.484 . S
O1100 C1082 1.248 . S
O1101 Tb1080 2.440 . S
O1101 C1082 1.266 . S
O1102 Tb1080 2.658 1_556 S
O1102 Tb1081 2.325 . S
O1102 C1089 1.281 1_556 S
O1103 Tb1080 2.409 . S
O1103 C1089 1.254 . S
O1104 Tb1080 2.378 . S
O1104 C1090 1.236 . S
O1105 Tb1081 2.341 . S
O1105 C1090 1.266 1_556 S
O1106 Tb1081 2.484 . S
O1106 C1091 1.248 . S
O1107 Tb1081 2.440 . S
O1107 C1091 1.266 . S
O1108 Tb1080 2.325 . S
O1108 Tb1081 2.658 1_554 S
O1108 C1098 1.281 1_554 S
O1109 Tb1081 2.409 . S
O1109 C1098 1.254 . S
O1110 Tb1081 2.378 . S
O1110 C1099 1.236 . S
O1111 Tb1080 2.341 . S
O1111 C1099 1.266 1_554 S
H1112 C1084 0.929 . S
H1113 C1085 0.931 . S
H1114 C1087 0.930 1_545 S
H1115 C1088 0.930 . S
H1116 C1093 0.929 . S
H1117 C1094 0.931 . S
H1118 C1096 0.930 . S
H1119 C1097 0.930 . S
Tb1120 C1122 2.809 . S
Tb1120 O1140 2.484 . S
Tb1120 O1141 2.440 . S
Tb1120 O1142 2.658 1_554 S
Tb1120 O1143 2.409 . S
Tb1120 O1144 2.378 . S
Tb1120 O1148 2.325 . S
Tb1120 O1151 2.341 . S
Tb1121 C1131 2.809 . S
Tb1121 O1142 2.325 . S
Tb1121 O1145 2.341 . S
Tb1121 O1146 2.484 . S
Tb1121 O1147 2.440 . S
Tb1121 O1148 2.658 1_556 S
Tb1121 O1149 2.409 . S
Tb1121 O1150 2.378 . S
C1122 Tb1120 2.809 . S
C1122 C1123 1.514 . S
C1122 O1140 1.248 . S
C1122 O1141 1.266 . S
C1123 C1122 1.514 . S
C1123 C1124 1.359 . S
C1123 C1128 1.348 . S
C1124 C1123 1.359 . S
C1124 C1125 1.380 . S
C1124 H1152 0.929 . S
C1125 C1124 1.380 . S
C1125 C1126 1.347 1_455 S
C1125 H1153 0.931 . S
C1126 C1125 1.347 1_655 S
C1126 C1127 1.369 1_655 S
C1127 C1126 1.369 1_455 S
C1127 C1128 1.408 . S
C1127 H1154 0.930 1_455 S
C1128 C1123 1.348 . S
C1128 C1127 1.408 . S
C1128 H1155 0.930 . S
C1129 O1142 1.281 1_554 S
C1129 O1143 1.254 . S
C1130 O1144 1.236 . S
C1130 O1145 1.266 1_554 S
C1131 Tb1121 2.809 . S
C1131 C1132 1.514 . S
C1131 O1146 1.248 . S
C1131 O1147 1.266 . S
C1132 C1131 1.514 . S
C1132 C1133 1.359 . S
C1132 C1137 1.348 . S
C1133 C1132 1.359 . S
C1133 C1134 1.380 . S
C1133 H1156 0.929 . S
C1134 C1133 1.380 . S
C1134 C1135 1.347 . S
C1134 H1157 0.931 . S
C1135 C1134 1.347 . S
C1135 C1136 1.369 . S
C1136 C1135 1.369 . S
C1136 C1137 1.408 . S
C1136 H1158 0.930 . S
C1137 C1132 1.348 . S
C1137 C1136 1.408 . S
C1137 H1159 0.930 . S
C1138 O1148 1.281 1_556 S
C1138 O1149 1.254 . S
C1139 O1150 1.236 . S
C1139 O1151 1.266 1_556 S
O1140 Tb1120 2.484 . S
O1140 C1122 1.248 . S
O1141 Tb1120 2.440 . S
O1141 C1122 1.266 . S
O1142 Tb1120 2.658 1_556 S
O1142 Tb1121 2.325 . S
O1142 C1129 1.281 1_556 S
O1143 Tb1120 2.409 . S
O1143 C1129 1.254 . S
O1144 Tb1120 2.378 . S
O1144 C1130 1.236 . S
O1145 Tb1121 2.341 . S
O1145 C1130 1.266 1_556 S
O1146 Tb1121 2.484 . S
O1146 C1131 1.248 . S
O1147 Tb1121 2.440 . S
O1147 C1131 1.266 . S
O1148 Tb1120 2.325 . S
O1148 Tb1121 2.658 1_554 S
O1148 C1138 1.281 1_554 S
O1149 Tb1121 2.409 . S
O1149 C1138 1.254 . S
O1150 Tb1121 2.378 . S
O1150 C1139 1.236 . S
O1151 Tb1120 2.341 . S
O1151 C1139 1.266 1_554 S
H1152 C1124 0.929 . S
H1153 C1125 0.931 . S
H1154 C1127 0.930 1_655 S
H1155 C1128 0.930 . S
H1156 C1133 0.929 . S
H1157 C1134 0.931 . S
H1158 C1136 0.930 . S
H1159 C1137 0.930 . S
Tb1160 C1162 2.809 . S
Tb1160 O1180 2.484 . S
Tb1160 O1181 2.440 . S
Tb1160 O1182 2.658 1_554 S
Tb1160 O1183 2.409 . S
Tb1160 O1184 2.378 . S
Tb1160 O1188 2.325 . S
Tb1160 O1191 2.341 . S
Tb1161 C1171 2.809 . S
Tb1161 O1182 2.325 . S
Tb1161 O1185 2.341 . S
Tb1161 O1186 2.484 . S
Tb1161 O1187 2.440 . S
Tb1161 O1188 2.658 1_556 S
Tb1161 O1189 2.409 . S
Tb1161 O1190 2.378 . S
C1162 Tb1160 2.809 . S
C1162 C1163 1.514 . S
C1162 O1180 1.248 . S
C1162 O1181 1.266 . S
C1163 C1162 1.514 . S
C1163 C1164 1.359 . S
C1163 C1168 1.348 . S
C1164 C1163 1.359 . S
C1164 C1165 1.380 . S
C1164 H1192 0.929 . S
C1165 C1164 1.380 . S
C1165 C1166 1.347 . S
C1165 H1193 0.931 . S
C1166 C1165 1.347 . S
C1166 C1167 1.369 . S
C1167 C1166 1.369 . S
C1167 C1168 1.408 . S
C1167 H1194 0.930 . S
C1168 C1163 1.348 . S
C1168 C1167 1.408 . S
C1168 H1195 0.930 . S
C1169 O1182 1.281 1_554 S
C1169 O1183 1.254 . S
C1170 O1184 1.236 . S
C1170 O1185 1.266 1_554 S
C1171 Tb1161 2.809 . S
C1171 C1172 1.514 . S
C1171 O1186 1.248 . S
C1171 O1187 1.266 . S
C1172 C1171 1.514 . S
C1172 C1173 1.359 . S
C1172 C1177 1.348 . S
C1173 C1172 1.359 . S
C1173 C1174 1.380 . S
C1173 H1196 0.929 . S
C1174 C1173 1.380 . S
C1174 C1175 1.347 . S
C1174 H1197 0.931 . S
C1175 C1174 1.347 . S
C1175 C1176 1.369 . S
C1176 C1175 1.369 . S
C1176 C1177 1.408 . S
C1176 H1198 0.930 . S
C1177 C1172 1.348 . S
C1177 C1176 1.408 . S
C1177 H1199 0.930 . S
C1178 O1188 1.281 1_556 S
C1178 O1189 1.254 . S
C1179 O1190 1.236 . S
C1179 O1191 1.266 1_556 S
O1180 Tb1160 2.484 . S
O1180 C1162 1.248 . S
O1181 Tb1160 2.440 . S
O1181 C1162 1.266 . S
O1182 Tb1160 2.658 1_556 S
O1182 Tb1161 2.325 . S
O1182 C1169 1.281 1_556 S
O1183 Tb1160 2.409 . S
O1183 C1169 1.254 . S
O1184 Tb1160 2.378 . S
O1184 C1170 1.236 . S
O1185 Tb1161 2.341 . S
O1185 C1170 1.266 1_556 S
O1186 Tb1161 2.484 . S
O1186 C1171 1.248 . S
O1187 Tb1161 2.440 . S
O1187 C1171 1.266 . S
O1188 Tb1160 2.325 . S
O1188 Tb1161 2.658 1_554 S
O1188 C1178 1.281 1_554 S
O1189 Tb1161 2.409 . S
O1189 C1178 1.254 . S
O1190 Tb1161 2.378 . S
O1190 C1179 1.236 . S
O1191 Tb1160 2.341 . S
O1191 C1179 1.266 1_554 S
H1192 C1164 0.929 . S
H1193 C1165 0.931 . S
H1194 C1167 0.930 . S
H1195 C1168 0.930 . S
H1196 C1173 0.929 . S
H1197 C1174 0.931 . S
H1198 C1176 0.930 . S
H1199 C1177 0.930 . S
Tb1200 C1202 2.809 . S
Tb1200 O1220 2.484 . S
Tb1200 O1221 2.440 . S
Tb1200 O1222 2.658 . S
Tb1200 O1223 2.409 . S
Tb1200 O1224 2.378 . S
Tb1200 O1228 2.325 . S
Tb1200 O1231 2.341 . S
Tb1201 C1211 2.809 . S
Tb1201 O1222 2.325 . S
Tb1201 O1225 2.341 . S
Tb1201 O1226 2.484 . S
Tb1201 O1227 2.440 . S
Tb1201 O1228 2.658 . S
Tb1201 O1229 2.409 . S
Tb1201 O1230 2.378 . S
C1202 Tb1200 2.809 . S
C1202 C1203 1.514 . S
C1202 O1220 1.248 . S
C1202 O1221 1.266 . S
C1203 C1202 1.514 . S
C1203 C1204 1.359 . S
C1203 C1208 1.348 . S
C1204 C1203 1.359 . S
C1204 C1205 1.380 . S
C1204 H1232 0.929 . S
C1205 C1204 1.380 . S
C1205 C1206 1.347 . S
C1205 H1233 0.931 . S
C1206 C1205 1.347 . S
C1206 C1207 1.369 . S
C1207 C1206 1.369 . S
C1207 C1208 1.408 . S
C1207 H1234 0.930 . S
C1208 C1203 1.348 . S
C1208 C1207 1.408 . S
C1208 H1235 0.930 . S
C1209 O1222 1.281 . S
C1209 O1223 1.254 . S
C1210 O1224 1.236 . S
C1210 O1225 1.266 . S
C1211 Tb1201 2.809 . S
C1211 C1212 1.514 . S
C1211 O1226 1.248 . S
C1211 O1227 1.266 . S
C1212 C1211 1.514 . S
C1212 C1213 1.359 . S
C1212 C1217 1.348 . S
C1213 C1212 1.359 . S
C1213 C1214 1.380 . S
C1213 H1236 0.929 . S
C1214 C1213 1.380 . S
C1214 C1215 1.347 1_455 S
C1214 H1237 0.931 . S
C1215 C1214 1.347 1_655 S
C1215 C1216 1.369 1_655 S
C1216 C1215 1.369 1_455 S
C1216 C1217 1.408 . S
C1216 H1238 0.930 1_455 S
C1217 C1212 1.348 . S
C1217 C1216 1.408 . S
C1217 H1239 0.930 . S
C1218 O1228 1.281 . S
C1218 O1229 1.254 . S
C1219 O1230 1.236 . S
C1219 O1231 1.266 . S
O1220 Tb1200 2.484 . S
O1220 C1202 1.248 . S
O1221 Tb1200 2.440 . S
O1221 C1202 1.266 . S
O1222 Tb1200 2.658 . S
O1222 Tb1201 2.325 . S
O1222 C1209 1.281 . S
O1223 Tb1200 2.409 . S
O1223 C1209 1.254 . S
O1224 Tb1200 2.378 . S
O1224 C1210 1.236 . S
O1225 Tb1201 2.341 . S
O1225 C1210 1.266 . S
O1226 Tb1201 2.484 . S
O1226 C1211 1.248 . S
O1227 Tb1201 2.440 . S
O1227 C1211 1.266 . S
O1228 Tb1200 2.325 . S
O1228 Tb1201 2.658 . S
O1228 C1218 1.281 . S
O1229 Tb1201 2.409 . S
O1229 C1218 1.254 . S
O1230 Tb1201 2.378 . S
O1230 C1219 1.236 . S
O1231 Tb1200 2.341 . S
O1231 C1219 1.266 . S
H1232 C1204 0.929 . S
H1233 C1205 0.931 . S
H1234 C1207 0.930 . S
H1235 C1208 0.930 . S
H1236 C1213 0.929 . S
H1237 C1214 0.931 . S
H1238 C1216 0.930 1_655 S
H1239 C1217 0.930 . S
Tb1240 C1242 2.809 . S
Tb1240 O1260 2.484 . S
Tb1240 O1261 2.440 . S
Tb1240 O1262 2.658 . S
Tb1240 O1263 2.409 . S
Tb1240 O1264 2.378 . S
Tb1240 O1268 2.325 . S
Tb1240 O1271 2.341 . S
Tb1241 C1251 2.809 . S
Tb1241 O1262 2.325 . S
Tb1241 O1265 2.341 . S
Tb1241 O1266 2.484 . S
Tb1241 O1267 2.440 . S
Tb1241 O1268 2.658 . S
Tb1241 O1269 2.409 . S
Tb1241 O1270 2.378 . S
C1242 Tb1240 2.809 . S
C1242 C1243 1.514 . S
C1242 O1260 1.248 . S
C1242 O1261 1.266 . S
C1243 C1242 1.514 . S
C1243 C1244 1.359 . S
C1243 C1248 1.348 . S
C1244 C1243 1.359 . S
C1244 C1245 1.380 . S
C1244 H1272 0.929 . S
C1245 C1244 1.380 . S
C1245 C1246 1.347 . S
C1245 H1273 0.931 . S
C1246 C1245 1.347 . S
C1246 C1247 1.369 . S
C1247 C1246 1.369 . S
C1247 C1248 1.408 . S
C1247 H1274 0.930 . S
C1248 C1243 1.348 . S
C1248 C1247 1.408 . S
C1248 H1275 0.930 . S
C1249 O1262 1.281 . S
C1249 O1263 1.254 . S
C1250 O1264 1.236 . S
C1250 O1265 1.266 . S
C1251 Tb1241 2.809 . S
C1251 C1252 1.514 . S
C1251 O1266 1.248 . S
C1251 O1267 1.266 . S
C1252 C1251 1.514 . S
C1252 C1253 1.359 . S
C1252 C1257 1.348 . S
C1253 C1252 1.359 . S
C1253 C1254 1.380 . S
C1253 H1276 0.929 . S
C1254 C1253 1.380 . S
C1254 C1255 1.347 . S
C1254 H1277 0.931 . S
C1255 C1254 1.347 . S
C1255 C1256 1.369 . S
C1256 C1255 1.369 . S
C1256 C1257 1.408 . S
C1256 H1278 0.930 . S
C1257 C1252 1.348 . S
C1257 C1256 1.408 . S
C1257 H1279 0.930 . S
C1258 O1268 1.281 . S
C1258 O1269 1.254 . S
C1259 O1270 1.236 . S
C1259 O1271 1.266 . S
O1260 Tb1240 2.484 . S
O1260 C1242 1.248 . S
O1261 Tb1240 2.440 . S
O1261 C1242 1.266 . S
O1262 Tb1240 2.658 . S
O1262 Tb1241 2.325 . S
O1262 C1249 1.281 . S
O1263 Tb1240 2.409 . S
O1263 C1249 1.254 . S
O1264 Tb1240 2.378 . S
O1264 C1250 1.236 . S
O1265 Tb1241 2.341 . S
O1265 C1250 1.266 . S
O1266 Tb1241 2.484 . S
O1266 C1251 1.248 . S
O1267 Tb1241 2.440 . S
O1267 C1251 1.266 . S
O1268 Tb1240 2.325 . S
O1268 Tb1241 2.658 . S
O1268 C1258 1.281 . S
O1269 Tb1241 2.409 . S
O1269 C1258 1.254 . S
O1270 Tb1241 2.378 . S
O1270 C1259 1.236 . S
O1271 Tb1240 2.341 . S
O1271 C1259 1.266 . S
H1272 C1244 0.929 . S
H1273 C1245 0.931 . S
H1274 C1247 0.930 . S
H1275 C1248 0.930 . S
H1276 C1253 0.929 . S
H1277 C1254 0.931 . S
H1278 C1256 0.930 . S
H1279 C1257 0.930 . S
Tb1280 C1282 2.809 . S
Tb1280 O1300 2.484 . S
Tb1280 O1301 2.440 . S
Tb1280 O1302 2.658 . S
Tb1280 O1303 2.409 . S
Tb1280 O1304 2.378 . S
Tb1280 O1308 2.325 . S
Tb1280 O1311 2.341 . S
Tb1281 C1291 2.809 . S
Tb1281 O1302 2.325 . S
Tb1281 O1305 2.341 . S
Tb1281 O1306 2.484 . S
Tb1281 O1307 2.440 . S
Tb1281 O1308 2.658 . S
Tb1281 O1309 2.409 . S
Tb1281 O1310 2.378 . S
C1282 Tb1280 2.809 . S
C1282 C1283 1.514 . S
C1282 O1300 1.248 . S
C1282 O1301 1.266 . S
C1283 C1282 1.514 . S
C1283 C1284 1.359 . S
C1283 C1288 1.348 . S
C1284 C1283 1.359 . S
C1284 C1285 1.380 . S
C1284 H1312 0.929 . S
C1285 C1284 1.380 . S
C1285 C1286 1.347 . S
C1285 H1313 0.931 . S
C1286 C1285 1.347 . S
C1286 C1287 1.369 . S
C1287 C1286 1.369 . S
C1287 C1288 1.408 . S
C1287 H1314 0.930 . S
C1288 C1283 1.348 . S
C1288 C1287 1.408 . S
C1288 H1315 0.930 . S
C1289 O1302 1.281 . S
C1289 O1303 1.254 . S
C1290 O1304 1.236 . S
C1290 O1305 1.266 . S
C1291 Tb1281 2.809 . S
C1291 C1292 1.514 . S
C1291 O1306 1.248 . S
C1291 O1307 1.266 . S
C1292 C1291 1.514 . S
C1292 C1293 1.359 . S
C1292 C1297 1.348 . S
C1293 C1292 1.359 . S
C1293 C1294 1.380 . S
C1293 H1316 0.929 . S
C1294 C1293 1.380 . S
C1294 C1295 1.347 1_565 S
C1294 H1317 0.931 . S
C1295 C1294 1.347 1_545 S
C1295 C1296 1.369 1_545 S
C1296 C1295 1.369 1_565 S
C1296 C1297 1.408 . S
C1296 H1318 0.930 1_565 S
C1297 C1292 1.348 . S
C1297 C1296 1.408 . S
C1297 H1319 0.930 . S
C1298 O1308 1.281 . S
C1298 O1309 1.254 . S
C1299 O1310 1.236 . S
C1299 O1311 1.266 . S
O1300 Tb1280 2.484 . S
O1300 C1282 1.248 . S
O1301 Tb1280 2.440 . S
O1301 C1282 1.266 . S
O1302 Tb1280 2.658 . S
O1302 Tb1281 2.325 . S
O1302 C1289 1.281 . S
O1303 Tb1280 2.409 . S
O1303 C1289 1.254 . S
O1304 Tb1280 2.378 . S
O1304 C1290 1.236 . S
O1305 Tb1281 2.341 . S
O1305 C1290 1.266 . S
O1306 Tb1281 2.484 . S
O1306 C1291 1.248 . S
O1307 Tb1281 2.440 . S
O1307 C1291 1.266 . S
O1308 Tb1280 2.325 . S
O1308 Tb1281 2.658 . S
O1308 C1298 1.281 . S
O1309 Tb1281 2.409 . S
O1309 C1298 1.254 . S
O1310 Tb1281 2.378 . S
O1310 C1299 1.236 . S
O1311 Tb1280 2.341 . S
O1311 C1299 1.266 . S
H1312 C1284 0.929 . S
H1313 C1285 0.931 . S
H1314 C1287 0.930 . S
H1315 C1288 0.930 . S
H1316 C1293 0.929 . S
H1317 C1294 0.931 . S
H1318 C1296 0.930 1_545 S
H1319 C1297 0.930 . S
Tb1320 C1322 2.809 . S
Tb1320 O1340 2.484 . S
Tb1320 O1341 2.440 . S
Tb1320 O1342 2.658 . S
Tb1320 O1343 2.409 1_455 S
Tb1320 O1344 2.378 . S
Tb1320 O1348 2.325 . S
Tb1320 O1351 2.341 1_455 S
Tb1321 C1331 2.809 . S
Tb1321 O1342 2.325 . S
Tb1321 O1345 2.341 . S
Tb1321 O1346 2.484 . S
Tb1321 O1347 2.440 . S
Tb1321 O1348 2.658 . S
Tb1321 O1349 2.409 . S
Tb1321 O1350 2.378 . S
C1322 Tb1320 2.809 . S
C1322 C1323 1.514 . S
C1322 O1340 1.248 . S
C1322 O1341 1.266 . S
C1323 C1322 1.514 . S
C1323 C1324 1.359 . S
C1323 C1328 1.348 . S
C1324 C1323 1.359 . S
C1324 C1325 1.380 . S
C1324 H1352 0.929 . S
C1325 C1324 1.380 . S
C1325 C1326 1.347 . S
C1325 H1353 0.931 . S
C1326 C1325 1.347 . S
C1326 C1327 1.369 . S
C1327 C1326 1.369 . S
C1327 C1328 1.408 . S
C1327 H1354 0.930 . S
C1328 C1323 1.348 . S
C1328 C1327 1.408 . S
C1328 H1355 0.930 . S
C1329 O1342 1.281 1_655 S
C1329 O1343 1.254 . S
C1330 O1344 1.236 . S
C1330 O1345 1.266 . S
C1331 Tb1321 2.809 . S
C1331 C1332 1.514 . S
C1331 O1346 1.248 . S
C1331 O1347 1.266 . S
C1332 C1331 1.514 . S
C1332 C1333 1.359 1_455 S
C1332 C1337 1.348 . S
C1333 C1332 1.359 1_655 S
C1333 C1334 1.380 . S
C1333 H1356 0.929 . S
C1334 C1333 1.380 . S
C1334 C1335 1.347 . S
C1334 H1357 0.931 . S
C1335 C1334 1.347 . S
C1335 C1336 1.369 1_655 S
C1336 C1335 1.369 1_455 S
C1336 C1337 1.408 . S
C1336 H1358 0.930 . S
C1337 C1332 1.348 . S
C1337 C1336 1.408 . S
C1337 H1359 0.930 . S
C1338 O1348 1.281 . S
C1338 O1349 1.254 . S
C1339 O1350 1.236 1_655 S
C1339 O1351 1.266 . S
O1340 Tb1320 2.484 . S
O1340 C1322 1.248 . S
O1341 Tb1320 2.440 . S
O1341 C1322 1.266 . S
O1342 Tb1320 2.658 . S
O1342 Tb1321 2.325 . S
O1342 C1329 1.281 1_455 S
O1343 Tb1320 2.409 1_655 S
O1343 C1329 1.254 . S
O1344 Tb1320 2.378 . S
O1344 C1330 1.236 . S
O1345 Tb1321 2.341 . S
O1345 C1330 1.266 . S
O1346 Tb1321 2.484 . S
O1346 C1331 1.248 . S
O1347 Tb1321 2.440 . S
O1347 C1331 1.266 . S
O1348 Tb1320 2.325 . S
O1348 Tb1321 2.658 . S
O1348 C1338 1.281 . S
O1349 Tb1321 2.409 . S
O1349 C1338 1.254 . S
O1350 Tb1321 2.378 . S
O1350 C1339 1.236 1_455 S
O1351 Tb1320 2.341 1_655 S
O1351 C1339 1.266 . S
H1352 C1324 0.929 . S
H1353 C1325 0.931 . S
H1354 C1327 0.930 . S
H1355 C1328 0.930 . S
H1356 C1333 0.929 . S
H1357 C1334 0.931 . S
H1358 C1336 0.930 . S
H1359 C1337 0.930 . S
Tb1360 C1362 2.809 . S
Tb1360 O1380 2.484 . S
Tb1360 O1381 2.440 . S
Tb1360 O1382 2.658 . S
Tb1360 O1383 2.409 . S
Tb1360 O1384 2.378 . S
Tb1360 O1388 2.325 . S
Tb1360 O1391 2.341 . S
Tb1361 C1371 2.809 . S
Tb1361 O1382 2.325 . S
Tb1361 O1385 2.341 . S
Tb1361 O1386 2.484 . S
Tb1361 O1387 2.440 . S
Tb1361 O1388 2.658 . S
Tb1361 O1389 2.409 . S
Tb1361 O1390 2.378 . S
C1362 Tb1360 2.809 . S
C1362 C1363 1.514 . S
C1362 O1380 1.248 . S
C1362 O1381 1.266 . S
C1363 C1362 1.514 . S
C1363 C1364 1.359 . S
C1363 C1368 1.348 . S
C1364 C1363 1.359 . S
C1364 C1365 1.380 . S
C1364 H1392 0.929 . S
C1365 C1364 1.380 . S
C1365 C1366 1.347 . S
C1365 H1393 0.931 . S
C1366 C1365 1.347 . S
C1366 C1367 1.369 . S
C1367 C1366 1.369 . S
C1367 C1368 1.408 . S
C1367 H1394 0.930 . S
C1368 C1363 1.348 . S
C1368 C1367 1.408 . S
C1368 H1395 0.930 . S
C1369 O1382 1.281 . S
C1369 O1383 1.254 . S
C1370 O1384 1.236 . S
C1370 O1385 1.266 . S
C1371 Tb1361 2.809 . S
C1371 C1372 1.514 . S
C1371 O1386 1.248 . S
C1371 O1387 1.266 . S
C1372 C1371 1.514 . S
C1372 C1373 1.359 . S
C1372 C1377 1.348 . S
C1373 C1372 1.359 . S
C1373 C1374 1.380 . S
C1373 H1396 0.929 . S
C1374 C1373 1.380 . S
C1374 C1375 1.347 . S
C1374 H1397 0.931 . S
C1375 C1374 1.347 . S
C1375 C1376 1.369 . S
C1376 C1375 1.369 . S
C1376 C1377 1.408 . S
C1376 H1398 0.930 . S
C1377 C1372 1.348 . S
C1377 C1376 1.408 . S
C1377 H1399 0.930 . S
C1378 O1388 1.281 . S
C1378 O1389 1.254 . S
C1379 O1390 1.236 . S
C1379 O1391 1.266 . S
O1380 Tb1360 2.484 . S
O1380 C1362 1.248 . S
O1381 Tb1360 2.440 . S
O1381 C1362 1.266 . S
O1382 Tb1360 2.658 . S
O1382 Tb1361 2.325 . S
O1382 C1369 1.281 . S
O1383 Tb1360 2.409 . S
O1383 C1369 1.254 . S
O1384 Tb1360 2.378 . S
O1384 C1370 1.236 . S
O1385 Tb1361 2.341 . S
O1385 C1370 1.266 . S
O1386 Tb1361 2.484 . S
O1386 C1371 1.248 . S
O1387 Tb1361 2.440 . S
O1387 C1371 1.266 . S
O1388 Tb1360 2.325 . S
O1388 Tb1361 2.658 . S
O1388 C1378 1.281 . S
O1389 Tb1361 2.409 . S
O1389 C1378 1.254 . S
O1390 Tb1361 2.378 . S
O1390 C1379 1.236 . S
O1391 Tb1360 2.341 . S
O1391 C1379 1.266 . S
H1392 C1364 0.929 . S
H1393 C1365 0.931 . S
H1394 C1367 0.930 . S
H1395 C1368 0.930 . S
H1396 C1373 0.929 . S
H1397 C1374 0.931 . S
H1398 C1376 0.930 . S
H1399 C1377 0.930 . S
Tb1400 C1402 2.809 . S
Tb1400 O1420 2.484 . S
Tb1400 O1421 2.440 . S
Tb1400 O1422 2.658 . S
Tb1400 O1423 2.409 1_565 S
Tb1400 O1424 2.378 . S
Tb1400 O1428 2.325 . S
Tb1400 O1431 2.341 1_565 S
Tb1401 C1411 2.809 . S
Tb1401 O1422 2.325 . S
Tb1401 O1425 2.341 . S
Tb1401 O1426 2.484 . S
Tb1401 O1427 2.440 . S
Tb1401 O1428 2.658 . S
Tb1401 O1429 2.409 . S
Tb1401 O1430 2.378 . S
C1402 Tb1400 2.809 . S
C1402 C1403 1.514 . S
C1402 O1420 1.248 . S
C1402 O1421 1.266 . S
C1403 C1402 1.514 . S
C1403 C1404 1.359 . S
C1403 C1408 1.348 . S
C1404 C1403 1.359 . S
C1404 C1405 1.380 . S
C1404 H1432 0.929 . S
C1405 C1404 1.380 . S
C1405 C1406 1.347 . S
C1405 H1433 0.931 . S
C1406 C1405 1.347 . S
C1406 C1407 1.369 . S
C1407 C1406 1.369 . S
C1407 C1408 1.408 . S
C1407 H1434 0.930 . S
C1408 C1403 1.348 . S
C1408 C1407 1.408 . S
C1408 H1435 0.930 . S
C1409 O1422 1.281 1_545 S
C1409 O1423 1.254 . S
C1410 O1424 1.236 . S
C1410 O1425 1.266 . S
C1411 Tb1401 2.809 . S
C1411 C1412 1.514 . S
C1411 O1426 1.248 . S
C1411 O1427 1.266 . S
C1412 C1411 1.514 . S
C1412 C1413 1.359 1_565 S
C1412 C1417 1.348 . S
C1413 C1412 1.359 1_545 S
C1413 C1414 1.380 . S
C1413 H1436 0.929 . S
C1414 C1413 1.380 . S
C1414 C1415 1.347 . S
C1414 H1437 0.931 . S
C1415 C1414 1.347 . S
C1415 C1416 1.369 1_545 S
C1416 C1415 1.369 1_565 S
C1416 C1417 1.408 . S
C1416 H1438 0.930 . S
C1417 C1412 1.348 . S
C1417 C1416 1.408 . S
C1417 H1439 0.930 . S
C1418 O1428 1.281 . S
C1418 O1429 1.254 . S
C1419 O1430 1.236 1_545 S
C1419 O1431 1.266 . S
O1420 Tb1400 2.484 . S
O1420 C1402 1.248 . S
O1421 Tb1400 2.440 . S
O1421 C1402 1.266 . S
O1422 Tb1400 2.658 . S
O1422 Tb1401 2.325 . S
O1422 C1409 1.281 1_565 S
O1423 Tb1400 2.409 1_545 S
O1423 C1409 1.254 . S
O1424 Tb1400 2.378 . S
O1424 C1410 1.236 . S
O1425 Tb1401 2.341 . S
O1425 C1410 1.266 . S
O1426 Tb1401 2.484 . S
O1426 C1411 1.248 . S
O1427 Tb1401 2.440 . S
O1427 C1411 1.266 . S
O1428 Tb1400 2.325 . S
O1428 Tb1401 2.658 . S
O1428 C1418 1.281 . S
O1429 Tb1401 2.409 . S
O1429 C1418 1.254 . S
O1430 Tb1401 2.378 . S
O1430 C1419 1.236 1_565 S
O1431 Tb1400 2.341 1_545 S
O1431 C1419 1.266 . S
H1432 C1404 0.929 . S
H1433 C1405 0.931 . S
H1434 C1407 0.930 . S
H1435 C1408 0.930 . S
H1436 C1413 0.929 . S
H1437 C1414 0.931 . S
H1438 C1416 0.930 . S
H1439 C1417 0.930 . S
C9 C99 2.332 1_545 S
C19 C49 2.333 1_455 S
C89 C59 2.335 . S
C129 C179 2.434 1_455 S
C219 C169 2.435 . S
C209 C139 2.434 1_565 S
C258 C330 2.332 1_565 S
C298 C250 2.333 1_455 S
C338 C290 2.335 . S
C378 C410 2.434 1_655 S
C450 C418 2.435 . S
C370 C458 2.434 1_565 S
C579 C489 2.412 . S
C529 C499 2.413 . S
C539 C569 2.412 . S
C609 C659 2.447 . S
C699 C649 2.449 . S
C619 C689 2.448 . S
C738 C810 2.359 . S
C778 C730 2.360 . S
C770 C818 2.360 . S
C890 C858 2.201 1_554 S
C898 C930 2.202 1_556 S
C850 C938 2.204 1_554 S
C969 C1059 2.359 . S
C1009 C979 2.360 . S
C1049 C1019 2.360 . S
C1089 C1139 2.201 1_554 S
C1129 C1179 2.202 1_554 S
C1169 C1099 2.203 1_554 S
C1218 C1290 2.413 . S
C1258 C1210 2.413 . S
C1250 C1298 2.412 . S
C1338 C1370 2.446 . S
C1378 C1410 2.449 . S
C1330 C1418 2.448 . S
C10 C809 2.470 . S
C729 C50 2.470 . S
C90 C769 2.468 . S
C130 C1369 2.348 . S
C1409 C170 2.348 . S
C210 C1329 2.347 . S
C1058 C259 2.470 . S
C299 C978 2.470 . S
C339 C1018 2.468 . S
C658 C379 2.348 . S
C698 C419 2.348 . S
C618 C459 2.347 . S
C490 C1289 2.414 1_655 S
C530 C1209 2.412 . S
C1249 C570 2.411 1_565 S
C409 C610 2.392 . S
C449 C650 2.390 . S
C369 C690 2.389 . S
C98 C739 2.457 . S
C779 C18 2.458 . S
C819 C58 2.457 . S
C1138 C859 2.410 1_565 S
C1178 C899 2.411 1_455 S
C939 C1098 2.409 . S
C329 C970 2.457 . S
C249 C1010 2.458 . S
C289 C1050 2.457 . S
C1090 C889 2.410 1_565 S
C929 C1130 2.411 1_655 S
C1170 C849 2.410 . S
C1219 C578 2.414 1_455 S
C1259 C498 2.412 . S
C1299 C538 2.411 1_565 S
C1339 C178 2.392 . S
C218 C1379 2.390 . S
C138 C1419 2.389 . S
C1166 C6 3.548 . S
C1086 C46 3.550 1_545 S
C86 C1126 3.550 1_455 S
C526 C126 3.651 . S
C166 C566 3.652 1_545 S
C206 C486 3.652 1_655 S
C255 C935 3.548 . S
C295 C855 3.550 1_545 S
C335 C895 3.549 1_655 S
C1255 C375 3.651 . S
C1295 C415 3.652 1_545 S
C1215 C455 3.653 1_655 S
C606 C1006 3.650 1_455 S
C646 C1046 3.649 . S
C686 C966 3.650 1_565 S
C735 C1415 3.651 1_565 S
C1335 C775 3.650 1_655 S
C815 C1375 3.649 . S
C175 C15 1.563 1_455 S
C215 C55 1.562 . S
C135 C95 1.562 1_565 S
C246 C406 1.563 1_455 S
C446 C286 1.562 . S
C326 C366 1.562 1_565 S
C655 C495 1.648 . S
C695 C535 1.647 . S
C615 C575 1.646 . S
C886 C726 2.131 . S
C766 C926 2.132 . S
C806 C846 2.133 . S
C975 C1135 2.131 . S
C1175 C1015 2.131 . S
C1055 C1095 2.132 . S
C1206 C1366 1.648 . S
C1406 C1246 1.647 . S
C1286 C1326 1.646 . S
