# Generated by pormake.
# Topology whp, (6)-cn, num edge types: 1
# Building blocks:
#     Node 0, Type 0, BuildingBlock: VOLQOD_clean_sbu_1, # of connection points: 6
#     Node 1, Type 0, BuildingBlock: VOLQOD_clean_sbu_1, # of connection points: 6
#     Node 2, Type 0, BuildingBlock: VOLQOD_clean_sbu_1, # of connection points: 6
#     Node 3, Type 0, BuildingBlock: VOLQOD_clean_sbu_1, # of connection points: 6
#     Node 4, Type 0, BuildingBlock: VOLQOD_clean_sbu_1, # of connection points: 6
#     Node 5, Type 0, BuildingBlock: VOLQOD_clean_sbu_1, # of connection points: 6
#     Node 6, Type 0, BuildingBlock: VOLQOD_clean_sbu_1, # of connection points: 6
#     Node 7, Type 0, BuildingBlock: VOLQOD_clean_sbu_1, # of connection points: 6
#     Node 8, Type 0, BuildingBlock: VOLQOD_clean_sbu_1, # of connection points: 6
#     Node 9, Type 0, BuildingBlock: VOLQOD_clean_sbu_1, # of connection points: 6
#     Node 10, Type 0, BuildingBlock: VOLQOD_clean_sbu_1, # of connection points: 6
#     Node 11, Type 0, BuildingBlock: VOLQOD_clean_sbu_1, # of connection points: 6
#     Node 12, Type 0, BuildingBlock: VOLQOD_clean_sbu_1, # of connection points: 6
#     Node 13, Type 0, BuildingBlock: VOLQOD_clean_sbu_1, # of connection points: 6
#     Node 14, Type 0, BuildingBlock: VOLQOD_clean_sbu_1, # of connection points: 6
#     Node 15, Type 0, BuildingBlock: VOLQOD_clean_sbu_1, # of connection points: 6
#     Edge 16, Type (0, 0), BuildingBlock: ZUJKAS_clean_linker_0, # of connection points: 2
#     Edge 17, Type (0, 0), BuildingBlock: ZUJKAS_clean_linker_0, # of connection points: 2
#     Edge 18, Type (0, 0), BuildingBlock: ZUJKAS_clean_linker_0, # of connection points: 2
#     Edge 19, Type (0, 0), BuildingBlock: ZUJKAS_clean_linker_0, # of connection points: 2
#     Edge 20, Type (0, 0), BuildingBlock: ZUJKAS_clean_linker_0, # of connection points: 2
#     Edge 21, Type (0, 0), BuildingBlock: ZUJKAS_clean_linker_0, # of connection points: 2
#     Edge 22, Type (0, 0), BuildingBlock: ZUJKAS_clean_linker_0, # of connection points: 2
#     Edge 23, Type (0, 0), BuildingBlock: ZUJKAS_clean_linker_0, # of connection points: 2
#     Edge 24, Type (0, 0), BuildingBlock: ZUJKAS_clean_linker_0, # of connection points: 2
#     Edge 25, Type (0, 0), BuildingBlock: ZUJKAS_clean_linker_0, # of connection points: 2
#     Edge 26, Type (0, 0), BuildingBlock: ZUJKAS_clean_linker_0, # of connection points: 2
#     Edge 27, Type (0, 0), BuildingBlock: ZUJKAS_clean_linker_0, # of connection points: 2
#     Edge 28, Type (0, 0), BuildingBlock: ZUJKAS_clean_linker_0, # of connection points: 2
#     Edge 29, Type (0, 0), BuildingBlock: ZUJKAS_clean_linker_0, # of connection points: 2
#     Edge 30, Type (0, 0), BuildingBlock: ZUJKAS_clean_linker_0, # of connection points: 2
#     Edge 31, Type (0, 0), BuildingBlock: ZUJKAS_clean_linker_0, # of connection points: 2
#     Edge 32, Type (0, 0), BuildingBlock: ZUJKAS_clean_linker_0, # of connection points: 2
#     Edge 33, Type (0, 0), BuildingBlock: ZUJKAS_clean_linker_0, # of connection points: 2
#     Edge 34, Type (0, 0), BuildingBlock: ZUJKAS_clean_linker_0, # of connection points: 2
#     Edge 35, Type (0, 0), BuildingBlock: ZUJKAS_clean_linker_0, # of connection points: 2
#     Edge 36, Type (0, 0), BuildingBlock: ZUJKAS_clean_linker_0, # of connection points: 2
#     Edge 37, Type (0, 0), BuildingBlock: ZUJKAS_clean_linker_0, # of connection points: 2
#     Edge 38, Type (0, 0), BuildingBlock: ZUJKAS_clean_linker_0, # of connection points: 2
#     Edge 39, Type (0, 0), BuildingBlock: ZUJKAS_clean_linker_0, # of connection points: 2
#     Edge 40, Type (0, 0), BuildingBlock: ZUJKAS_clean_linker_0, # of connection points: 2
#     Edge 41, Type (0, 0), BuildingBlock: ZUJKAS_clean_linker_0, # of connection points: 2
#     Edge 42, Type (0, 0), BuildingBlock: ZUJKAS_clean_linker_0, # of connection points: 2
#     Edge 43, Type (0, 0), BuildingBlock: ZUJKAS_clean_linker_0, # of connection points: 2
#     Edge 44, Type (0, 0), BuildingBlock: ZUJKAS_clean_linker_0, # of connection points: 2
#     Edge 45, Type (0, 0), BuildingBlock: ZUJKAS_clean_linker_0, # of connection points: 2
#     Edge 46, Type (0, 0), BuildingBlock: ZUJKAS_clean_linker_0, # of connection points: 2
#     Edge 47, Type (0, 0), BuildingBlock: ZUJKAS_clean_linker_0, # of connection points: 2
#     Edge 48, Type (0, 0), BuildingBlock: ZUJKAS_clean_linker_0, # of connection points: 2
#     Edge 49, Type (0, 0), BuildingBlock: ZUJKAS_clean_linker_0, # of connection points: 2
#     Edge 50, Type (0, 0), BuildingBlock: ZUJKAS_clean_linker_0, # of connection points: 2
#     Edge 51, Type (0, 0), BuildingBlock: ZUJKAS_clean_linker_0, # of connection points: 2
#     Edge 52, Type (0, 0), BuildingBlock: ZUJKAS_clean_linker_0, # of connection points: 2
#     Edge 53, Type (0, 0), BuildingBlock: ZUJKAS_clean_linker_0, # of connection points: 2
#     Edge 54, Type (0, 0), BuildingBlock: ZUJKAS_clean_linker_0, # of connection points: 2
#     Edge 55, Type (0, 0), BuildingBlock: ZUJKAS_clean_linker_0, # of connection points: 2
#     Edge 56, Type (0, 0), BuildingBlock: ZUJKAS_clean_linker_0, # of connection points: 2
#     Edge 57, Type (0, 0), BuildingBlock: ZUJKAS_clean_linker_0, # of connection points: 2
#     Edge 58, Type (0, 0), BuildingBlock: ZUJKAS_clean_linker_0, # of connection points: 2
#     Edge 59, Type (0, 0), BuildingBlock: ZUJKAS_clean_linker_0, # of connection points: 2
#     Edge 60, Type (0, 0), BuildingBlock: ZUJKAS_clean_linker_0, # of connection points: 2
#     Edge 61, Type (0, 0), BuildingBlock: ZUJKAS_clean_linker_0, # of connection points: 2
#     Edge 62, Type (0, 0), BuildingBlock: ZUJKAS_clean_linker_0, # of connection points: 2
#     Edge 63, Type (0, 0), BuildingBlock: ZUJKAS_clean_linker_0, # of connection points: 2
# Relax obj value: 0.402
# Max RMSD: 0.252
# Mean RMSD: 0.249
data_MOF--net-whp--node1-VOLQOD_clean_sbu_1--edge1-ZUJKAS_clean_linker_0
_symmetry_space_group_name_H-M    P1
_symmetry_Int_Tables_number       1
_symmetry_cell_setting            triclinic
loop_
_symmetry_equiv_pos_as_xyz
'x, y, z'
_cell_length_a     64.809011
_cell_length_b     64.849449
_cell_length_c     37.082723
_cell_angle_alpha  89.998562
_cell_angle_beta   90.020079
_cell_angle_gamma 90.011848
loop_
_atom_site_label
_atom_site_type_symbol
_atom_site_fract_x
_atom_site_fract_y
_atom_site_fract_z
_atom_type_partial_charge
O0 O 0.30808 0.56887 0.34717 0.0
Zn1 Zn 0.29273 0.55832 0.30381 0.0
O2 O 0.29488 0.52846 0.29971 0.0
Zn3 Zn 0.26719 0.51613 0.30112 0.0
Zn4 Zn 0.3114 0.51818 0.33939 0.0
Zn5 Zn 0.30919 0.52151 0.25507 0.0
O6 O 0.26155 0.50057 0.25443 0.0
O7 O 0.28967 0.50724 0.22166 0.0
O8 O 0.2633 0.56765 0.30714 0.0
O9 O 0.24551 0.53842 0.30495 0.0
O10 O 0.26355 0.49806 0.34582 0.0
O11 O 0.29407 0.50161 0.37251 0.0
O12 O 0.33381 0.49947 0.32287 0.0
O13 O 0.30643 0.57228 0.26195 0.0
O14 O 0.33243 0.50156 0.26333 0.0
O15 O 0.3212 0.54685 0.23127 0.0
C16 C 0.32071 0.56042 0.36891 0.0
C17 C 0.27189 0.49918 0.22524 0.0
C18 C 0.27585 0.49436 0.37193 0.0
C19 C 0.24619 0.55802 0.30734 0.0
C20 C 0.34037 0.49422 0.29194 0.0
C21 C 0.31803 0.566 0.23652 0.0
O22 O 0.32416 0.54112 0.36794 0.0
O23 O 0.93002 0.3104 0.85263 0.0
Zn24 Zn 0.93792 0.29632 0.80645 0.0
O25 O 0.96706 0.2996 0.79568 0.0
Zn26 Zn 0.98057 0.27253 0.79239 0.0
Zn27 Zn 0.97944 0.31586 0.83369 0.0
Zn28 Zn 0.97 0.3148 0.75086 0.0
O29 O 0.995 0.26931 0.74347 0.0
O30 O 0.98316 0.29681 0.71411 0.0
O31 O 0.93007 0.26659 0.80909 0.0
O32 O 0.95907 0.24985 0.79633 0.0
O33 O -6e-05 0.26819 0.83534 0.0
O34 O -0.00285 0.29806 0.86429 0.0
O35 O 0.99685 0.3386 0.81428 0.0
O36 O 0.92046 0.3102 0.76906 0.0
O37 O 0.98891 0.33908 0.75618 0.0
O38 O 0.9428 0.3254 0.7324 0.0
C39 C 0.93926 0.32384 0.87172 0.0
C40 C 0.99334 0.28002 0.71464 0.0
C41 C 0.00428 0.27984 0.86208 0.0
C42 C 0.93987 0.24984 0.80394 0.0
C43 C -0.00128 0.34637 0.78299 0.0
C44 C 0.92434 0.32182 0.74224 0.0
O45 O 0.95806 0.32844 0.86597 0.0
O46 O 0.18709 0.92654 0.35599 0.0
Zn47 Zn 0.20141 0.93553 0.31056 0.0
O48 O 0.19782 0.96484 0.30133 0.0
Zn49 Zn 0.22477 0.9787 0.29856 0.0
Zn50 Zn 0.1816 0.97646 0.34017 0.0
Zn51 Zn 0.18247 0.9684 0.25671 0.0
O52 O 0.22796 0.99355 0.25009 0.0
O53 O 0.20001 0.98282 0.22066 0.0
O54 O 0.23127 0.92812 0.31363 0.0
O55 O 0.24769 0.9575 0.30234 0.0
O56 O 0.22884 -0.00208 0.34176 0.0
O57 O 0.19911 0.9944 0.37093 0.0
O58 O 0.15811 0.99328 0.32194 0.0
O59 O 0.18801 0.91857 0.2719 0.0
O60 O 0.15765 0.98641 0.26344 0.0
O61 O 0.17245 0.94136 0.23659 0.0
C62 C 0.17403 0.93555 0.37619 0.0
C63 C 0.21694 0.99277 0.2215 0.0
C64 C 0.21719 0.00191 0.36866 0.0
C65 C 0.24792 0.93824 0.3093 0.0
C66 C 0.1501 0.99541 0.29088 0.0
C67 C 0.17635 0.92278 0.24528 0.0
O68 O 0.16974 0.95453 0.37197 0.0
O69 O 0.56517 0.19011 0.85928 0.0
Zn70 Zn 0.55565 0.20421 0.81433 0.0
O71 O 0.52619 0.20078 0.80631 0.0
Zn72 Zn 0.51283 0.22804 0.80292 0.0
Zn73 Zn 0.51495 0.18506 0.8465 0.0
Zn74 Zn 0.52187 0.18504 0.76213 0.0
O75 O 0.49807 0.23123 0.7546 0.0
O76 O 0.50551 0.20166 0.72683 0.0
O77 O 0.56331 0.23389 0.81828 0.0
O78 O 0.53426 0.2508 0.80622 0.0
O79 O 0.49311 0.23237 0.84542 0.0
O80 O 0.49583 0.20265 0.87484 0.0
O81 O 0.49951 0.16011 0.83001 0.0
O82 O 0.57209 0.19094 0.77493 0.0
O83 O 0.50548 0.15942 0.7712 0.0
O84 O 0.5488 0.17583 0.73997 0.0
C85 C 0.55628 0.17863 0.88229 0.0
C86 C 0.49684 0.21926 0.72734 0.0
C87 C 0.48838 0.22072 0.87194 0.0
C88 C 0.55345 0.25064 0.81375 0.0
C89 C 0.49748 0.15159 0.79934 0.0
C90 C 0.56752 0.1796 0.74807 0.0
O91 O 0.53703 0.17501 0.88039 0.0
O92 O 0.80445 0.43328 0.13538 0.0
Zn93 Zn 0.79023 0.43932 0.18201 0.0
O94 O 0.79295 0.46793 0.19638 0.0
Zn95 Zn 0.76546 0.48087 0.19877 0.0
Zn96 Zn 0.81022 0.48167 0.16098 0.0
Zn97 Zn 0.80682 0.46927 0.24291 0.0
O98 O 0.76128 0.49469 0.24813 0.0
O99 O 0.78848 0.48299 0.27858 0.0
O100 O 0.76078 0.43107 0.17771 0.0
O101 O 0.74302 0.4591 0.1925 0.0
O102 O 0.76198 0.50104 0.15664 0.0
O103 O 0.79331 0.50125 0.13219 0.0
O104 O 0.83345 0.49707 0.18385 0.0
O105 O 0.80383 0.42073 0.21777 0.0
O106 O 0.83231 0.48685 0.24083 0.0
O107 O 0.8156 0.44123 0.26097 0.0
C108 C 0.81792 0.4432 0.11751 0.0
C109 C 0.77168 0.49315 0.27734 0.0
C110 C 0.77466 0.50735 0.13266 0.0
C111 C 0.74369 0.44017 0.18314 0.0
C112 C 0.84071 0.49721 0.2157 0.0
C113 C 0.8134 0.42334 0.24736 0.0
O114 O 0.82268 0.46165 0.12572 0.0
O115 O 0.05901 0.8067 0.64377 0.0
Zn116 Zn 0.05112 0.7934 0.69032 0.0
O117 O 0.02233 0.79789 0.70234 0.0
Zn118 Zn 0.00808 0.77115 0.70599 0.0
Zn119 Zn 0.01025 0.81486 0.66468 0.0
Zn120 Zn 0.02053 0.81296 0.74763 0.0
O121 O 0.99375 0.76848 0.75501 0.0
O122 O 0.00624 0.79568 0.78446 0.0
O123 O 0.05778 0.76354 0.68691 0.0
O124 O 0.02874 0.7476 0.70244 0.0
O125 O 0.98831 0.76762 0.66325 0.0
O126 O 0.99044 0.79814 0.63609 0.0
O127 O 0.99534 0.83923 0.68466 0.0
O128 O 0.06964 0.80652 0.72691 0.0
O129 O 0.00349 0.83866 0.74269 0.0
O130 O 0.04855 0.82179 0.76568 0.0
C131 C 0.05013 0.81997 0.6239 0.0
C132 C 0.99556 0.77919 0.7838 0.0
C133 C 0.98321 0.77993 0.63784 0.0
C134 C 0.04768 0.74713 0.69322 0.0
C135 C 0.99434 0.847 0.71609 0.0
C136 C 0.06669 0.81777 0.75454 0.0
O137 O 0.03162 0.82552 0.62992 0.0
O138 O 0.6897 0.06438 0.14662 0.0
Zn139 Zn 0.70513 0.0538 0.18969 0.0
O140 O 0.70002 0.02472 0.19805 0.0
Zn141 Zn 0.72652 0.00976 0.20009 0.0
Zn142 Zn 0.68292 0.01432 0.15917 0.0
Zn143 Zn 0.68452 0.02179 0.24273 0.0
O144 O 0.72953 0.99513 0.24894 0.0
O145 O 0.70179 0.00653 0.27817 0.0
O146 O 0.73499 0.05952 0.18306 0.0
O147 O 0.75055 0.02983 0.1952 0.0
O148 O 0.72907 0.99016 0.15692 0.0
O149 O 0.69909 0.99496 0.1289 0.0
O150 O 0.65839 -0.00095 0.1775 0.0
O151 O 0.69531 0.07094 0.23101 0.0
O152 O 0.65866 0.00505 0.23629 0.0
O153 O 0.67664 0.04935 0.26406 0.0
C154 C 0.6769 0.05611 0.12501 0.0
C155 C 0.71852 0.99626 0.27752 0.0
C156 C 0.71675 0.98649 0.13078 0.0
C157 C 0.75133 0.04893 0.18707 0.0
C158 C 0.65045 0.9969 0.2086 0.0
C159 C 0.68325 0.06743 0.25733 0.0
O160 O 0.67251 0.03703 0.12715 0.0
O161 O 0.43482 0.6918 0.63315 0.0
Zn162 Zn 0.44214 0.70459 0.68053 0.0
O163 O 0.4706 0.69953 0.69413 0.0
Zn164 Zn 0.48561 0.72593 0.69752 0.0
Zn165 Zn 0.48284 0.68177 0.65777 0.0
Zn166 Zn 0.47117 0.68498 0.74001 0.0
O167 O 0.49974 0.72865 0.74687 0.0
O168 O 0.48709 0.70131 0.77575 0.0
O169 O 0.43613 0.73465 0.67814 0.0
O170 O 0.46566 0.74994 0.69253 0.0
O171 O 0.50592 0.72841 0.65548 0.0
O172 O 0.50393 0.69741 0.63003 0.0
O173 O 0.49602 0.65676 0.67922 0.0
O174 O 0.42278 0.69181 0.71604 0.0
O175 O 0.48603 0.65799 0.73631 0.0
O176 O 0.44268 0.67877 0.75899 0.0
C177 C 0.44373 0.67817 0.61408 0.0
C178 C 0.4981 0.71755 0.77523 0.0
C179 C 0.51137 0.71556 0.63117 0.0
C180 C 0.44662 0.75088 0.68394 0.0
C181 C 0.49546 0.64901 0.7107 0.0
C182 C 0.4249 0.68216 0.74567 0.0
O183 O 0.46184 0.67194 0.62165 0.0
O184 O 0.68876 0.43506 0.6381 0.0
Zn185 Zn 0.70162 0.44269 0.68523 0.0
O186 O 0.69679 0.47129 0.69798 0.0
Zn187 Zn 0.7232 0.48623 0.70069 0.0
Zn188 Zn 0.67914 0.48336 0.66135 0.0
Zn189 Zn 0.68238 0.47232 0.74397 0.0
O190 O 0.72598 0.50089 0.7496 0.0
O191 O 0.69963 0.48724 0.77978 0.0
O192 O 0.73165 0.43639 0.68333 0.0
O193 O 0.74704 0.46601 0.69672 0.0
O194 O 0.72605 0.50561 0.65733 0.0
O195 O 0.6949 0.50376 0.63238 0.0
O196 O 0.6543 0.49692 0.68252 0.0
O197 O 0.68837 0.42376 0.72079 0.0
O198 O 0.65591 0.48822 0.74025 0.0
O199 O 0.67491 0.44406 0.76271 0.0
C200 C 0.67517 0.44395 0.61887 0.0
C201 C 0.71566 0.49858 0.77873 0.0
C202 C 0.71322 0.5108 0.63277 0.0
C203 C 0.74792 0.44688 0.68888 0.0
C204 C 0.64683 0.49719 0.71422 0.0
C205 C 0.67821 0.42617 0.74981 0.0
O206 O 0.66915 0.46216 0.62597 0.0
O207 O 0.0587 0.68803 0.14694 0.0
Zn208 Zn 0.05103 0.70247 0.19272 0.0
O209 O 0.02223 0.6984 0.20514 0.0
Zn210 Zn 0.00812 0.72522 0.20751 0.0
Zn211 Zn 0.00974 0.68109 0.16851 0.0
Zn212 Zn 0.02054 0.68396 0.25101 0.0
O213 O 0.99355 0.72854 0.25631 0.0
O214 O 0.0064 0.7019 0.28683 0.0
O215 O 0.05798 0.73228 0.18851 0.0
O216 O 0.02897 0.74849 0.20299 0.0
O217 O 0.98883 0.72854 0.16416 0.0
O218 O 0.99077 0.69775 0.13797 0.0
O219 O 0.99415 0.65753 0.18982 0.0
O220 O 0.06956 0.68995 0.2299 0.0
O221 O 0.00322 0.65835 0.24743 0.0
O222 O 0.04855 0.67537 0.26959 0.0
C223 C 0.04961 0.67413 0.1287 0.0
C224 C 0.99557 0.71827 0.28557 0.0
C225 C 0.98391 0.71612 0.13882 0.0
C226 C 0.04798 0.74884 0.19414 0.0
C227 C 0.99348 0.65002 0.22147 0.0
C228 C 0.06668 0.67923 0.25818 0.0
O229 O 0.03106 0.66902 0.13542 0.0
O230 O 0.80312 0.06828 0.64314 0.0
Zn231 Zn 0.78947 0.05938 0.68897 0.0
O232 O 0.79416 0.03033 0.69893 0.0
Zn233 Zn 0.76763 0.0155 0.70073 0.0
Zn234 Zn 0.81169 0.01904 0.6613 0.0
Zn235 Zn 0.80881 0.02793 0.7445 0.0
O236 O 0.76453 0.0006 0.74929 0.0
O237 O 0.79122 0.0132 0.78001 0.0
O238 O 0.75942 0.0658 0.68609 0.0
O239 O 0.74385 0.03585 0.69638 0.0
O240 O 0.76505 0.99594 0.65751 0.0
O241 O 0.79582 -0.0009 0.63156 0.0
O242 O 0.83637 0.00446 0.68122 0.0
O243 O 0.80245 0.07733 0.7266 0.0
O244 O 0.83453 0.01102 0.73974 0.0
O245 O 0.81764 0.05553 0.76415 0.0
C246 C 0.81641 0.05973 0.62285 0.0
C247 C 0.7749 0.00229 0.7785 0.0
C248 C 0.7778 0.99136 0.63247 0.0
C249 C 0.74306 0.05516 0.6899 0.0
C250 C 0.84356 0.00275 0.71298 0.0
C251 C 0.81369 0.07386 0.75405 0.0
O252 O 0.82185 0.04108 0.62771 0.0
O253 O 0.42521 0.80184 0.15231 0.0
Zn254 Zn 0.43621 0.78848 0.19722 0.0
O255 O 0.46564 0.79328 0.20297 0.0
Zn256 Zn 0.48058 0.76682 0.20398 0.0
Zn257 Zn 0.47522 0.81014 0.16311 0.0
Zn258 Zn 0.47002 0.8087 0.24732 0.0
O259 O 0.49624 0.76371 0.25177 0.0
O260 O 0.48524 0.79113 0.28234 0.0
O261 O 0.42977 0.75841 0.1956 0.0
O262 O 0.46026 0.74301 0.20033 0.0
O263 O 0.49935 0.76409 0.15983 0.0
O264 O 0.49367 0.79372 0.13144 0.0
O265 O 0.49119 0.83468 0.17991 0.0
O266 O 0.42003 0.80162 0.23695 0.0
O267 O 0.48766 0.8337 0.2393 0.0
O268 O 0.44329 0.8185 0.26933 0.0
C269 C 0.43293 0.81476 0.13031 0.0
C270 C 0.49554 0.77443 0.2807 0.0
C271 C 0.50226 0.77612 0.13302 0.0
C272 C 0.44069 0.74213 0.19696 0.0
C273 C 0.49481 0.84213 0.21098 0.0
C274 C 0.42461 0.81382 0.26258 0.0
O275 O 0.4518 0.82005 0.13232 0.0
O276 O 0.1885 0.56516 0.87301 0.0
Zn277 Zn 0.20209 0.56 0.82553 0.0
O278 O 0.19946 0.53145 0.81053 0.0
Zn279 Zn 0.22693 0.51925 0.80506 0.0
Zn280 Zn 0.18378 0.51669 0.84689 0.0
Zn281 Zn 0.18445 0.53011 0.76523 0.0
O282 O 0.22968 0.50503 0.75618 0.0
O283 O 0.2019 0.51688 0.72768 0.0
O284 O 0.23164 0.56877 0.82822 0.0
O285 O 0.24878 0.54149 0.80771 0.0
O286 O 0.2327 0.49971 0.84685 0.0
O287 O 0.20215 0.49749 0.87396 0.0
O288 O 0.16076 0.50047 0.82523 0.0
O289 O 0.1873 0.57866 0.79098 0.0
O290 O 0.15953 0.51194 0.76898 0.0
O291 O 0.17482 0.55802 0.74855 0.0
C292 C 0.17562 0.55471 0.89134 0.0
C293 C 0.21864 0.50662 0.72777 0.0
C294 C 0.22108 0.4925 0.87159 0.0
C295 C 0.24841 0.56006 0.81898 0.0
C296 C 0.15245 0.50068 0.79417 0.0
C297 C 0.17705 0.57592 0.7621 0.0
O298 O 0.17132 0.53615 0.88311 0.0
O299 O 0.9284 0.18954 0.3528 0.0
Zn300 Zn 0.93719 0.20317 0.307 0.0
O301 O 0.96651 0.19963 0.29803 0.0
Zn302 Zn 0.98006 0.22681 0.2939 0.0
Zn303 Zn 0.97821 0.18377 0.33754 0.0
Zn304 Zn 0.97007 0.18371 0.25406 0.0
O305 O 0.9946 0.22956 0.24499 0.0
O306 O 0.98501 0.2005 0.21773 0.0
O307 O 0.92977 0.2329 0.31065 0.0
O308 O 0.95873 0.24971 0.29743 0.0
O309 O -0.00018 0.23122 0.33647 0.0
O310 O -0.00249 0.20127 0.36547 0.0
O311 O 0.99399 0.15931 0.32034 0.0
O312 O 0.92008 0.18951 0.2687 0.0
O313 O 0.98756 0.15867 0.26172 0.0
O314 O 0.94302 0.17388 0.23381 0.0
C315 C 0.93744 0.17769 0.37505 0.0
C316 C 0.99446 0.2177 0.21745 0.0
C317 C 0.00482 0.21939 0.36262 0.0
C318 C 0.93962 0.24962 0.30561 0.0
C319 C 0.99611 0.15104 0.28951 0.0
C320 C 0.92439 0.17774 0.24229 0.0
O321 O 0.95653 0.17351 0.37189 0.0
O322 O 0.30483 0.92584 0.85517 0.0
Zn323 Zn 0.29299 0.936 0.80858 0.0
O324 O 0.29733 0.96547 0.80234 0.0
Zn325 Zn 0.2705 0.97975 0.79877 0.0
Zn326 Zn 0.31314 0.97575 0.84318 0.0
Zn327 Zn 0.31368 0.96981 0.75903 0.0
O328 O 0.26824 0.99508 0.75053 0.0
O329 O 0.29741 0.9858 0.72327 0.0
O330 O 0.26306 0.92895 0.80785 0.0
O331 O 0.24708 0.95895 0.80051 0.0
O332 O 0.26633 -0.00116 0.84221 0.0
O333 O 0.29613 0.99539 0.87137 0.0
O334 O 0.33875 0.99064 0.82809 0.0
O335 O 0.30758 0.91968 0.77047 0.0
O336 O 0.33905 0.98639 0.76885 0.0
O337 O 0.32337 0.94317 0.73699 0.0
C338 C 0.31639 0.93405 0.87887 0.0
C339 C 0.28026 0.99536 0.72321 0.0
C340 C 0.2782 0.00319 0.86864 0.0
C341 C 0.24657 0.93943 0.80456 0.0
C342 C 0.3471 0.99352 0.7975 0.0
C343 C 0.3195 0.92442 0.74451 0.0
O344 O 0.32144 0.95298 0.87699 0.0
O345 O 0.49293 0.2733 0.25161 0.0
Zn346 Zn 0.50138 0.28766 0.29824 0.0
O347 O 0.53134 0.29304 0.29788 0.0
Zn348 Zn 0.54439 0.28211 0.34082 0.0
Zn349 Zn 0.54459 0.28055 0.25619 0.0
Zn350 Zn 0.53596 0.32251 0.29638 0.0
O351 O 0.55934 0.30395 0.36907 0.0
O352 O 0.54981 0.33264 0.34115 0.0
O353 O 0.49273 0.27218 0.34402 0.0
O354 O 0.52281 0.2704 0.37278 0.0
O355 O 0.56406 0.25912 0.32974 0.0
O356 O 0.56164 0.2559 0.27033 0.0
O357 O 0.56357 0.30077 0.23052 0.0
O358 O 0.48543 0.31444 0.2973 0.0
O359 O 0.55479 0.3303 0.25639 0.0
O360 O 0.50987 0.33806 0.29027 0.0
C361 C 0.50326 0.26872 0.2234 0.0
C362 C 0.55921 0.32352 0.36668 0.0
C363 C 0.5687 0.24988 0.3006 0.0
C364 C 0.50349 0.26702 0.37147 0.0
C365 C 0.56519 0.3203 0.23323 0.0
C366 C 0.49095 0.33307 0.29236 0.0
O367 O 0.52274 0.27123 0.22189 0.0
H368 H 0.35294 0.54895 0.41206 0.0
H369 H 0.37354 0.571 0.45165 0.0
H370 H 0.33585 0.62328 0.42327 0.0
H371 H 0.31514 0.60146 0.38333 0.0
H372 H 0.39332 0.61335 0.42396 0.0
H373 H 0.33932 0.61625 0.54091 0.0
H374 H 0.33985 0.59455 0.51033 0.0
H375 H 0.32913 0.61863 0.49584 0.0
C376 C 0.3489 0.5651 0.41438 0.0
C377 C 0.33239 0.57345 0.39451 0.0
C378 C 0.36073 0.57765 0.4369 0.0
C379 C 0.35613 0.59865 0.4402 0.0
C380 C 0.33953 0.60704 0.42097 0.0
H381 H 0.4071 0.69063 0.58481 0.0
H382 H 0.38652 0.67279 0.5393 0.0
C383 C 0.32775 0.59454 0.39822 0.0
C384 C 0.36899 0.61189 0.46333 0.0
H385 H 0.37045 0.63463 0.54608 0.0
C386 C 0.38838 0.6181 0.45064 0.0
C387 C 0.36228 0.61808 0.49783 0.0
C388 C 0.34154 0.61156 0.51236 0.0
C389 C 0.40139 0.63044 0.47182 0.0
C390 C 0.39494 0.63621 0.50684 0.0
C391 C 0.37536 0.63018 0.51923 0.0
C392 C 0.4084 0.64798 0.53165 0.0
C393 C 0.42176 0.6374 0.45629 0.0
C394 C 0.42763 0.64003 0.54215 0.0
C395 C 0.43952 0.65027 0.56794 0.0
C396 C 0.43223 0.66848 0.58411 0.0
C397 C 0.41315 0.67661 0.57297 0.0
C398 C 0.40135 0.66644 0.54698 0.0
H399 H 0.4215 0.63724 0.42633 0.0
H400 H 0.42578 0.65318 0.46553 0.0
H401 H 0.43409 0.6267 0.46528 0.0
H402 H 0.43314 0.62554 0.53129 0.0
H403 H 0.45408 0.64352 0.57611 0.0
H404 H 0.85314 0.45575 0.08321 0.0
H405 H 0.87361 0.43615 0.03956 0.0
H406 H 0.82901 0.38686 0.04283 0.0
H407 H 0.80846 0.40619 0.08649 0.0
H408 H 0.88872 0.39345 0.05564 0.0
H409 H 0.83996 0.39944 0.93253 0.0
H410 H 0.83858 0.41792 0.96892 0.0
H411 H 0.82692 0.39299 0.97386 0.0
C412 C 0.84751 0.44088 0.07425 0.0
C413 C 0.8292 0.43249 0.08839 0.0
C414 C 0.85925 0.42971 0.04942 0.0
C415 C 0.8527 0.41018 0.038 0.0
C416 C 0.83416 0.40203 0.05115 0.0
H417 H 0.9003 0.31583 0.89637 0.0
H418 H 0.88001 0.33642 0.93862 0.0
C419 C 0.8225 0.41308 0.07618 0.0
C420 C 0.86588 0.39767 0.01415 0.0
H421 H 0.86825 0.37645 0.93018 0.0
C422 C 0.88438 0.3898 0.02811 0.0
C423 C 0.85995 0.39286 0.97851 0.0
C424 C 0.84034 0.40131 0.9623 0.0
C425 C 0.89701 0.37683 0.00745 0.0
C426 C 0.89116 0.37209 0.97164 0.0
C427 C 0.87267 0.38008 0.95767 0.0
C428 C 0.90402 0.35898 0.94801 0.0
C429 C 0.91617 0.36788 0.02451 0.0
C430 C 0.92429 0.3648 0.93948 0.0
C431 C 0.936 0.35298 0.91563 0.0
C432 C 0.92754 0.33528 0.89943 0.0
C433 C 0.90729 0.32937 0.90836 0.0
C434 C 0.89565 0.34113 0.93243 0.0
H435 H 0.91523 0.36807 0.05443 0.0
H436 H 0.91879 0.35177 0.01548 0.0
H437 H 0.92974 0.37726 0.01649 0.0
H438 H 0.93088 0.37878 0.95057 0.0
H439 H 0.95148 0.35807 0.90909 0.0
H440 H 0.08785 0.80865 0.59781 0.0
H441 H 0.10919 0.8272 0.55436 0.0
H442 H 0.06139 0.8729 0.54178 0.0
H443 H 0.03968 0.85421 0.58473 0.0
H444 H 0.07942 0.86154 0.47707 0.0
H445 H 0.139 0.88061 0.57949 0.0
H446 H 0.13392 0.85351 0.5752 0.0
H447 H 0.114 0.87044 0.59142 0.0
C448 C 0.08179 0.82257 0.58565 0.0
C449 C 0.06215 0.83008 0.59502 0.0
C450 C 0.09407 0.83321 0.56099 0.0
C451 C 0.08705 0.85166 0.54561 0.0
C452 C 0.06712 0.85875 0.55366 0.0
H453 H 0.14167 0.94829 0.41784 0.0
H454 H 0.12092 0.92743 0.45906 0.0
C455 C 0.05475 0.84804 0.57816 0.0
C456 C 0.10063 0.86379 0.52163 0.0
H457 H 0.14673 0.88929 0.51878 0.0
C458 C 0.09411 0.86764 0.48618 0.0
C459 C 0.11974 0.87181 0.53377 0.0
C460 C 0.12704 0.86908 0.57214 0.0
C461 C 0.10635 0.87914 0.46237 0.0
C462 C 0.12548 0.88693 0.47445 0.0
C463 C 0.13205 0.8831 0.50977 0.0
C464 C 0.13861 0.89958 0.45083 0.0
C465 C 0.0989 0.88291 0.4244 0.0
C466 C 0.15558 0.89076 0.43328 0.0
C467 C 0.16746 0.90258 0.40961 0.0
C468 C 0.16259 0.92343 0.4034 0.0
C469 C 0.14587 0.9323 0.422 0.0
C470 C 0.13395 0.92043 0.44546 0.0
H471 H 0.08463 0.87412 0.41813 0.0
H472 H 0.09571 0.8996 0.42074 0.0
H473 H 0.11109 0.87854 0.40478 0.0
H474 H 0.15936 0.87466 0.43736 0.0
H475 H 0.18025 0.89529 0.39578 0.0
H476 H 0.54317 0.15253 0.93574 0.0
H477 H 0.56459 0.13316 0.97819 0.0
H478 H 0.61921 0.16162 0.93428 0.0
H479 H 0.59805 0.18097 0.89162 0.0
H480 H 0.62061 0.1179 0.93824 0.0
H481 H 0.5968 0.15362 0.06794 0.0
H482 H 0.57596 0.14514 0.03958 0.0
H483 H 0.59235 0.16581 0.02483 0.0
C484 C 0.55971 0.15488 0.93538 0.0
C485 C 0.56888 0.16829 0.91023 0.0
C486 C 0.57191 0.14386 0.95975 0.0
C487 C 0.59343 0.14612 0.95946 0.0
C488 C 0.6026 0.15974 0.93492 0.0
H489 H 0.68059 0.09777 0.11538 0.0
H490 H 0.66115 0.1196 0.07379 0.0
C491 C 0.59045 0.1708 0.91062 0.0
C492 C 0.60651 0.1334 0.9833 0.0
H493 H 0.61751 0.12349 0.07156 0.0
C494 C 0.62002 0.11915 0.96739 0.0
C495 C 0.60577 0.13526 0.02123 0.0
C496 C 0.59208 0.15089 0.03953 0.0
C497 C 0.63263 0.1064 0.98854 0.0
C498 C 0.63147 0.10786 0.0265 0.0
C499 C 0.61822 0.12236 0.0424 0.0
C500 C 0.64386 0.09443 0.05029 0.0
C501 C 0.64721 0.09164 0.97013 0.0
C502 C 0.64056 0.07307 0.05068 0.0
C503 C 0.65163 0.06052 0.07439 0.0
C504 C 0.66615 0.06916 0.09822 0.0
C505 C 0.66957 0.09059 0.09736 0.0
C506 C 0.65846 0.10311 0.07369 0.0
H507 H 0.64983 0.09588 0.94147 0.0
H508 H 0.66233 0.09119 0.98423 0.0
H509 H 0.64052 0.07589 0.97082 0.0
H510 H 0.62911 0.06615 0.03316 0.0
H511 H 0.64855 0.0441 0.07443 0.0
H512 H 0.58559 0.30988 0.41922 0.0
H513 H 0.60576 0.33088 0.46129 0.0
H514 H 0.57936 0.38615 0.41609 0.0
H515 H 0.55913 0.36543 0.37397 0.0
H516 H 0.63468 0.36415 0.43969 0.0
H517 H 0.57046 0.39035 0.52809 0.0
H518 H 0.56852 0.36777 0.49976 0.0
H519 H 0.56642 0.39303 0.48033 0.0
C520 C 0.58394 0.32649 0.4184 0.0
C521 C 0.57074 0.33598 0.39327 0.0
C522 C 0.59551 0.33843 0.44236 0.0
C523 C 0.59386 0.35997 0.44181 0.0
C524 C 0.58061 0.3695 0.41707 0.0
H525 H 0.6472 0.45822 0.56952 0.0
H526 H 0.62873 0.43817 0.52395 0.0
C527 C 0.56914 0.35762 0.39298 0.0
C528 C 0.60645 0.3726 0.46645 0.0
H529 H 0.60319 0.40535 0.53807 0.0
C530 C 0.62787 0.37313 0.46131 0.0
C531 C 0.59738 0.38433 0.49431 0.0
C532 C 0.57445 0.38381 0.50129 0.0
C533 C 0.64054 0.3854 0.48321 0.0
C534 C 0.6315 0.39701 0.51134 0.0
C535 C 0.61004 0.39647 0.51637 0.0
C536 C 0.644 0.4094 0.53664 0.0
C537 C 0.6634 0.38611 0.4756 0.0
C538 C 0.65877 0.39985 0.55863 0.0
C539 C 0.66943 0.41124 0.58453 0.0
C540 C 0.66529 0.43237 0.5892 0.0
C541 C 0.65074 0.44198 0.56664 0.0
C542 C 0.64016 0.43056 0.54062 0.0
H543 H 0.6669 0.38139 0.44745 0.0
H544 H 0.66972 0.40182 0.48016 0.0
H545 H 0.67148 0.37529 0.49398 0.0
H546 H 0.66162 0.38344 0.55651 0.0
H547 H 0.68044 0.40333 0.60159 0.0
H548 H 0.18415 0.59194 0.92225 0.0
H549 H 0.1627 0.61114 0.96462 0.0
H550 H 0.11918 0.56083 0.9675 0.0
H551 H 0.14077 0.54127 0.9257 0.0
H552 H 0.12326 0.62342 0.95037 0.0
H553 H 0.12517 0.57486 0.07362 0.0
H554 H 0.14333 0.57165 0.03714 0.0
H555 H 0.11773 0.56113 0.03364 0.0
C556 C 0.17021 0.58478 0.93239 0.0
C557 C 0.16413 0.5651 0.92054 0.0
C558 C 0.15797 0.59579 0.95655 0.0
C559 C 0.13944 0.58735 0.96933 0.0
C560 C 0.13363 0.56745 0.9585 0.0
H561 H 0.03816 0.63891 0.09335 0.0
H562 H 0.05926 0.61811 0.05248 0.0
C563 C 0.14596 0.55633 0.9345 0.0
C564 C 0.12547 0.60008 0.99159 0.0
H565 H 0.10065 0.60215 0.07263 0.0
C566 C 0.1184 0.61882 0.97718 0.0
C567 C 0.11908 0.59395 0.02643 0.0
C568 C 0.12685 0.5744 0.04381 0.0
C569 C 0.10501 0.63159 0.99667 0.0
C570 C 0.09867 0.62546 0.03145 0.0
C571 C 0.10554 0.60667 0.04579 0.0
C572 C 0.08546 0.63872 0.05398 0.0
C573 C 0.09758 0.65144 0.9799 0.0
C574 C 0.09327 0.65722 0.06794 0.0
C575 C 0.08134 0.66911 0.09134 0.0
C576 C 0.06139 0.66266 0.10114 0.0
C577 C 0.05343 0.64435 0.08624 0.0
C578 C 0.06545 0.63241 0.06302 0.0
H579 H 0.10041 0.65185 0.95036 0.0
H580 H 0.08082 0.65363 0.9849 0.0
H581 H 0.10589 0.6646 0.99238 0.0
H582 H 0.10879 0.66219 0.06144 0.0
H583 H 0.08793 0.68311 0.10232 0.0
H584 H 0.89678 0.18398 0.39099 0.0
H585 H 0.87571 0.16528 0.43463 0.0
H586 H 0.92878 0.12963 0.46677 0.0
H587 H 0.95013 0.14838 0.42343 0.0
H588 H 0.86938 0.12239 0.43392 0.0
H589 H 0.90381 0.14881 0.5632 0.0
H590 H 0.9079 0.16221 0.52109 0.0
H591 H 0.92202 0.13904 0.53093 0.0
C592 C 0.90408 0.17234 0.40761 0.0
C593 C 0.92515 0.16765 0.40367 0.0
C594 C 0.89199 0.16167 0.43249 0.0
C595 C 0.90075 0.14622 0.45401 0.0
C596 C 0.92184 0.14176 0.45077 0.0
H597 H 0.84376 0.04652 0.57155 0.0
H598 H 0.86323 0.0678 0.52898 0.0
C599 C 0.93398 0.15244 0.42589 0.0
C600 C 0.88751 0.13395 0.47826 0.0
H601 H 0.87991 0.12104 0.56644 0.0
C602 C 0.87161 0.12214 0.46291 0.0
C603 C 0.89045 0.13381 0.51602 0.0
C604 C 0.90685 0.14677 0.53393 0.0
C605 C 0.85875 0.10987 0.4844 0.0
C606 C 0.86198 0.10941 0.522 0.0
C607 C 0.87764 0.12143 0.53746 0.0
C608 C 0.84924 0.09649 0.54585 0.0
C609 C 0.8417 0.09756 0.46697 0.0
C610 C 0.8349 0.10569 0.56903 0.0
C611 C 0.82367 0.09362 0.5932 0.0
C612 C 0.82681 0.07217 0.59484 0.0
C613 C 0.84096 0.06298 0.57097 0.0
C614 C 0.85208 0.07508 0.54663 0.0
H615 H 0.83945 0.10178 0.4382 0.0
H616 H 0.8455 0.08089 0.46847 0.0
H617 H 0.82696 0.09996 0.48166 0.0
H618 H 0.8326 0.12224 0.56869 0.0
H619 H 0.81294 0.1012 0.61123 0.0
H620 H 0.31061 0.89269 0.88921 0.0
H621 H 0.32728 0.87064 0.93397 0.0
H622 H 0.35874 0.92347 0.9783 0.0
H623 H 0.34205 0.94575 0.93388 0.0
H624 H 0.37008 0.86574 0.94039 0.0
H625 H 0.33539 0.89409 0.06789 0.0
H626 H 0.32416 0.89925 0.0242 0.0
H627 H 0.34584 0.91409 0.03976 0.0
C628 C 0.32085 0.89971 0.90877 0.0
C629 C 0.32504 0.921 0.9079 0.0
C630 C 0.33036 0.88707 0.93429 0.0
C631 C 0.34406 0.89548 0.95956 0.0
C632 C 0.34792 0.91676 0.95937 0.0
H633 H 0.44427 0.84118 0.07635 0.0
H634 H 0.42172 0.85916 0.03399 0.0
C635 C 0.33845 0.92944 0.93383 0.0
C636 C 0.35549 0.88181 0.98437 0.0
H637 H 0.36521 0.8727 0.07335 0.0
C638 C 0.36889 0.86711 0.96947 0.0
C639 C 0.35371 0.88355 0.02222 0.0
C640 C 0.33886 0.89846 0.03956 0.0
C641 C 0.3811 0.8545 0.99151 0.0
C642 C 0.37999 0.85686 0.02933 0.0
C643 C 0.3661 0.87108 0.04428 0.0
C644 C 0.39361 0.84519 0.05384 0.0
C645 C 0.39512 0.83878 0.97421 0.0
C646 C 0.3852 0.83152 0.07915 0.0
C647 C 0.39803 0.82121 0.10344 0.0
C648 C 0.41948 0.82458 0.10304 0.0
C649 C 0.42784 0.83818 0.07735 0.0
C650 C 0.415 0.84841 0.05301 0.0
H651 H 0.39034 0.83526 0.94609 0.0
H652 H 0.41108 0.84497 0.97342 0.0
H653 H 0.39533 0.82422 0.98997 0.0
H654 H 0.36869 0.82894 0.08023 0.0
H655 H 0.39107 0.81091 0.12296 0.0
H656 H 0.35777 0.47243 0.34697 0.0
H657 H 0.384 0.44566 0.34282 0.0
H658 H 0.38689 0.45393 0.22752 0.0
H659 H 0.36022 0.48058 0.23121 0.0
H660 H 0.38426 0.41305 0.24787 0.0
H661 H 0.4454 0.45325 0.32516 0.0
H662 H 0.42145 0.45176 0.34927 0.0
H663 H 0.42287 0.46639 0.3081 0.0
C664 C 0.36407 0.46872 0.3207 0.0
C665 C 0.35697 0.47871 0.28941 0.0
C666 C 0.37913 0.45347 0.31844 0.0
C667 C 0.38758 0.44811 0.28496 0.0
C668 C 0.38059 0.45799 0.25363 0.0
H669 H 0.49675 0.3721 0.26744 0.0
H670 H 0.47126 0.39953 0.26225 0.0
C671 C 0.3654 0.47322 0.25581 0.0
C672 C 0.40324 0.43166 0.28276 0.0
H673 H 0.45003 0.4171 0.31599 0.0
C674 C 0.39875 0.41396 0.26244 0.0
C675 C 0.42219 0.43308 0.30147 0.0
C676 C 0.42838 0.45223 0.32192 0.0
C677 C 0.41254 0.39733 0.26115 0.0
C678 C 0.43102 0.39835 0.28134 0.0
C679 C 0.43572 0.41628 0.30087 0.0
C680 C 0.44592 0.38114 0.28245 0.0
C681 C 0.40729 0.37895 0.23793 0.0
C682 C 0.44007 0.36168 0.29554 0.0
C683 C 0.4546 0.34585 0.29829 0.0
C684 C 0.47526 0.34939 0.28856 0.0
C685 C 0.48099 0.3689 0.27539 0.0
C686 C 0.46645 0.3846 0.27232 0.0
H687 H 0.39593 0.38301 0.21662 0.0
H688 H 0.42129 0.37252 0.22488 0.0
H689 H 0.40033 0.36675 0.25503 0.0
H690 H 0.42438 0.35886 0.3043 0.0
H691 H 0.44976 0.33102 0.30872 0.0
H692 H 0.00573 0.3684 0.72103 0.0
H693 H 0.03087 0.39624 0.71227 0.0
H694 H 0.04906 0.39141 0.82379 0.0
H695 H 0.02414 0.36378 0.83298 0.0
H696 H 0.03516 0.43578 0.75749 0.0
H697 H 0.10272 0.3831 0.75879 0.0
H698 H 0.07691 0.37449 0.748 0.0
H699 H 0.08426 0.37869 0.79414 0.0
C700 C 0.01503 0.37333 0.74372 0.0
C701 C 0.01305 0.36379 0.77766 0.0
C702 C 0.02931 0.38921 0.73864 0.0
C703 C 0.04184 0.39557 0.76732 0.0
C704 C 0.03958 0.38646 0.80131 0.0
H705 H 0.13368 0.47439 0.84121 0.0
H706 H 0.10595 0.45008 0.82844 0.0
C707 C 0.02531 0.37071 0.80649 0.0
C708 C 0.05767 0.41153 0.76221 0.0
H709 H 0.10955 0.41882 0.76912 0.0
C710 C 0.05147 0.43217 0.75919 0.0
C711 C 0.07883 0.40655 0.76432 0.0
C712 C 0.08616 0.38449 0.76618 0.0
C713 C 0.06602 0.44816 0.7607 0.0
C714 C 0.08708 0.44317 0.76508 0.0
C715 C 0.09331 0.42249 0.76596 0.0
C716 C 0.10272 0.45902 0.77253 0.0
C717 C 0.05881 0.47026 0.75978 0.0
C718 C 0.10984 0.47212 0.74523 0.0
C719 C 0.12576 0.48606 0.75238 0.0
C720 C 0.13475 0.48698 0.78693 0.0
C721 C 0.12716 0.47406 0.81432 0.0
C722 C 0.11133 0.46017 0.80711 0.0
H723 H 0.04172 0.47151 0.75885 0.0
H724 H 0.06455 0.47862 0.78393 0.0
H725 H 0.06528 0.47805 0.73564 0.0
H726 H 0.10342 0.47124 0.7183 0.0
H727 H 0.13127 0.49581 0.7307 0.0
H728 H 0.13006 0.01685 0.3435 0.0
H729 H 0.10169 0.04113 0.33613 0.0
H730 H 0.10095 0.02952 0.22165 0.0
H731 H 0.12941 0.00499 0.2286 0.0
H732 H 0.10522 0.0769 0.28782 0.0
H733 H 0.03894 0.02506 0.2564 0.0
H734 H 0.06167 0.01597 0.27974 0.0
H735 H 0.06278 0.02124 0.23234 0.0
C736 C 0.12379 0.01925 0.31675 0.0
C737 C 0.13207 0.00907 0.28659 0.0
C738 C 0.10757 0.03311 0.31265 0.0
C739 C 0.09926 0.03692 0.27843 0.0
C740 C 0.10708 0.0265 0.24831 0.0
H741 H 0.00573 0.12996 0.22773 0.0
H742 H 0.03033 0.10151 0.22144 0.0
C743 C 0.12338 0.01261 0.25236 0.0
C744 C 0.08346 0.05301 0.27436 0.0
H745 H 0.03203 0.06071 0.26026 0.0
C746 C 0.08924 0.07342 0.28151 0.0
C747 C 0.06276 0.04829 0.26579 0.0
C748 C 0.05599 0.02646 0.25824 0.0
C749 C 0.07467 0.08928 0.28134 0.0
C750 C 0.0538 0.08446 0.27438 0.0
C751 C 0.0481 0.06419 0.26575 0.0
C752 C 0.03764 0.10019 0.27828 0.0
C753 C 0.08161 0.11105 0.28915 0.0
C754 C 0.03337 0.10832 0.31245 0.0
C755 C 0.01943 0.1245 0.3162 0.0
C756 C 0.0095 0.13278 0.28576 0.0
C757 C 0.01322 0.12399 0.25167 0.0
C758 C 0.0272 0.10775 0.24798 0.0
H759 H 0.09851 0.11293 0.2852 0.0
H760 H 0.07341 0.12225 0.27159 0.0
H761 H 0.07798 0.11488 0.31761 0.0
H762 H 0.04119 0.10243 0.33614 0.0
H763 H 0.0168 0.13079 0.34287 0.0
H764 H 0.36704 0.01373 0.85197 0.0
H765 H 0.39665 0.03681 0.84672 0.0
H766 H 0.39991 0.02456 0.73256 0.0
H767 H 0.3701 0.00163 0.7373 0.0
H768 H 0.43749 0.03052 0.81933 0.0
H769 H 0.39223 0.08762 0.73966 0.0
H770 H 0.38016 0.06677 0.76401 0.0
H771 H 0.39303 0.06182 0.72202 0.0
C772 C 0.37412 0.0158 0.82576 0.0
C773 C 0.36605 0.00606 0.79496 0.0
C774 C 0.39106 0.02893 0.82286 0.0
C775 C 0.40019 0.03254 0.7892 0.0
C776 C 0.3928 0.02217 0.75866 0.0
H777 H 0.48887 0.12958 0.7382 0.0
H778 H 0.46779 0.09844 0.73321 0.0
C779 C 0.3758 0.00907 0.76148 0.0
C780 C 0.41668 0.04805 0.78599 0.0
H781 H 0.42651 0.09621 0.75342 0.0
C782 C 0.43522 0.04482 0.80467 0.0
C783 C 0.41357 0.06661 0.76674 0.0
C784 C 0.39364 0.07109 0.74715 0.0
C785 C 0.45067 0.05993 0.80518 0.0
C786 C 0.44724 0.07877 0.787 0.0
C787 C 0.42903 0.08168 0.76725 0.0
C788 C 0.46153 0.09635 0.79038 0.0
C789 C 0.47043 0.0557 0.8254 0.0
C790 C 0.46483 0.10544 0.82418 0.0
C791 C 0.47676 0.12323 0.82717 0.0
C792 C 0.48549 0.13232 0.79631 0.0
C793 C 0.48235 0.12299 0.7625 0.0
C794 C 0.47038 0.10518 0.75956 0.0
H795 H 0.47324 0.03888 0.82829 0.0
H796 H 0.48387 0.06281 0.8116 0.0
H797 H 0.46928 0.0624 0.85286 0.0
H798 H 0.45769 0.09909 0.84815 0.0
H799 H 0.47885 0.13003 0.8536 0.0
H800 H 0.98459 0.63168 0.28629 0.0
H801 H 0.96306 0.60116 0.29655 0.0
H802 H 0.95279 0.59576 0.18203 0.0
H803 H 0.97423 0.62598 0.17142 0.0
H804 H 0.92129 0.59749 0.27606 0.0
H805 H 0.96887 0.53693 0.212 0.0
H806 H 0.97934 0.56153 0.22582 0.0
H807 H 0.96583 0.55913 0.1836 0.0
C808 C 0.97792 0.62386 0.26327 0.0
C809 C 0.98111 0.63126 0.22803 0.0
C810 C 0.96568 0.60644 0.26921 0.0
C811 C 0.95671 0.59606 0.23999 0.0
C812 C 0.96001 0.60331 0.20485 0.0
H813 H 0.86369 0.5195 0.16802 0.0
H814 H 0.89341 0.54128 0.18099 0.0
C815 C 0.97211 0.62071 0.19889 0.0
C816 C 0.94246 0.57865 0.24582 0.0
H817 H 0.93221 0.53005 0.21582 0.0
C818 C 0.92382 0.58252 0.26378 0.0
C819 C 0.94597 0.55918 0.22989 0.0
C820 C 0.96619 0.55386 0.21206 0.0
C821 C 0.90784 0.56795 0.26359 0.0
C822 C 0.91084 0.54905 0.24535 0.0
C823 C 0.92999 0.54464 0.22959 0.0
C824 C 0.89351 0.53491 0.23825 0.0
C825 C 0.88741 0.5734 0.28062 0.0
C826 C 0.88394 0.52398 0.26623 0.0
C827 C 0.86685 0.51151 0.25895 0.0
C828 C 0.85916 0.50982 0.22356 0.0
C829 C 0.86913 0.52052 0.19559 0.0
C830 C 0.88617 0.53291 0.20289 0.0
H831 H 0.88693 0.58965 0.29007 0.0
H832 H 0.87465 0.57094 0.26108 0.0
H833 H 0.88461 0.56318 0.30411 0.0
H834 H 0.88959 0.52523 0.29364 0.0
H835 H 0.85957 0.50339 0.28107 0.0
H836 H 0.98724 0.8675 0.77957 0.0
H837 H 0.96584 0.8982 0.78856 0.0
H838 H 0.95244 0.8999 0.67468 0.0
H839 H 0.97384 0.86948 0.66526 0.0
H840 H 0.96302 0.93918 0.70716 0.0
H841 H 0.90178 0.89613 0.78134 0.0
H842 H 0.92783 0.89402 0.79768 0.0
H843 H 0.92114 0.88313 0.75477 0.0
C844 C 0.97981 0.87446 0.75641 0.0
C845 C 0.98211 0.86594 0.72172 0.0
C846 C 0.96759 0.89195 0.76164 0.0
C847 C 0.95749 0.9011 0.73231 0.0
C848 C 0.96016 0.89298 0.69762 0.0
H849 H 0.86772 0.98422 0.66215 0.0
H850 H 0.89774 0.96236 0.67214 0.0
C851 C 0.97233 0.87555 0.69234 0.0
C852 C 0.94341 0.91869 0.73741 0.0
H853 H 0.89502 0.9306 0.76674 0.0
C854 C 0.94827 0.93746 0.72066 0.0
C855 C 0.92429 0.91635 0.75528 0.0
C856 C 0.91827 0.89632 0.77318 0.0
C857 C 0.93408 0.95374 0.71998 0.0
C858 C 0.91447 0.95094 0.73591 0.0
C859 C 0.91009 0.93262 0.7545 0.0
C860 C 0.89751 0.96576 0.73021 0.0
C861 C 0.93999 0.9736 0.70149 0.0
C862 C 0.88727 0.97463 0.75965 0.0
C863 C 0.86995 0.98704 0.75407 0.0
C864 C 0.86251 0.99057 0.71894 0.0
C865 C 0.87304 0.98185 0.68953 0.0
C866 C 0.89033 0.96951 0.69515 0.0
H867 H 0.95699 0.97584 0.70152 0.0
H868 H 0.93481 0.97304 0.67298 0.0
H869 H 0.93262 0.9871 0.71467 0.0
H870 H 0.8925 0.9717 0.78693 0.0
H871 H 0.86219 0.99352 0.77731 0.0
H872 H 0.51272 0.86402 0.15647 0.0
H873 H 0.53729 0.89235 0.16185 0.0
H874 H 0.53233 0.88995 0.2777 0.0
H875 H 0.50756 0.86156 0.27277 0.0
H876 H 0.53221 0.93161 0.2439 0.0
H877 H 0.59696 0.88109 0.20116 0.0
H878 H 0.57485 0.88048 0.17193 0.0
H879 H 0.57268 0.87102 0.21732 0.0
C880 C 0.51669 0.86957 0.18314 0.0
C881 C 0.50835 0.86037 0.21422 0.0
C882 C 0.53074 0.88574 0.18612 0.0
C883 C 0.53674 0.89295 0.22015 0.0
C884 C 0.52788 0.88446 0.25123 0.0
H885 H 0.63079 0.98554 0.27105 0.0
H886 H 0.60197 0.96135 0.27713 0.0
C887 C 0.51379 0.86823 0.24832 0.0
C888 C 0.55304 0.90868 0.22299 0.0
H889 H 0.60362 0.9171 0.20277 0.0
C890 C 0.5479 0.92848 0.23532 0.0
C891 C 0.57345 0.90434 0.21201 0.0
C892 C 0.57994 0.88304 0.20015 0.0
C893 C 0.56258 0.94441 0.23533 0.0
C894 C 0.58277 0.9402 0.22304 0.0
C895 C 0.58803 0.92023 0.21191 0.0
C896 C 0.59859 0.9564 0.21974 0.0
C897 C 0.55628 0.96575 0.24713 0.0
C898 C 0.60608 0.96157 0.18549 0.0
C899 C 0.62252 0.97522 0.18189 0.0
C900 C 0.63188 0.98389 0.21257 0.0
C901 C 0.62392 0.97914 0.2469 0.0
C902 C 0.60741 0.96542 0.25044 0.0
H903 H 0.53931 0.96715 0.25054 0.0
H904 H 0.56375 0.96938 0.27329 0.0
H905 H 0.56152 0.9774 0.22718 0.0
H906 H 0.59944 0.95466 0.16152 0.0
H907 H 0.62818 0.9786 0.15505 0.0
H908 H 0.49966 0.62881 0.77523 0.0
H909 H 0.51991 0.59769 0.78723 0.0
H910 H 0.53644 0.59417 0.67476 0.0
H911 H 0.51617 0.62502 0.66233 0.0
H912 H 0.52493 0.55529 0.70851 0.0
H913 H 0.58412 0.59996 0.78504 0.0
H914 H 0.55762 0.60207 0.79901 0.0
H915 H 0.56545 0.61246 0.75632 0.0
C916 C 0.50746 0.62132 0.75298 0.0
C917 C 0.50649 0.62951 0.71786 0.0
C918 C 0.51902 0.60358 0.75994 0.0
C919 C 0.52975 0.59385 0.73192 0.0
C920 C 0.52821 0.60153 0.6967 0.0
H921 H 0.62156 0.51493 0.66431 0.0
H922 H 0.59039 0.5349 0.67521 0.0
C923 C 0.5167 0.61921 0.6897 0.0
C924 C 0.54372 0.57641 0.73904 0.0
H925 H 0.59196 0.56576 0.77056 0.0
C926 C 0.53942 0.55739 0.72269 0.0
C927 C 0.56249 0.57925 0.75783 0.0
C928 C 0.56788 0.59952 0.77548 0.0
C929 C 0.55399 0.54144 0.72289 0.0
C930 C 0.57337 0.54484 0.7393 0.0
C931 C 0.57706 0.56329 0.75792 0.0
C932 C 0.59096 0.53086 0.73315 0.0
C933 C 0.54879 0.52138 0.70443 0.0
C934 C 0.60178 0.52228 0.76224 0.0
C935 C 0.61977 0.51094 0.75613 0.0
C936 C 0.6273 0.50827 0.72084 0.0
C937 C 0.61621 0.51669 0.6918 0.0
C938 C 0.59824 0.52792 0.69794 0.0
H939 H 0.53188 0.51853 0.70455 0.0
H940 H 0.55388 0.52213 0.67589 0.0
H941 H 0.55667 0.50816 0.71758 0.0
H942 H 0.59649 0.52464 0.78964 0.0
H943 H 0.62798 0.50465 0.77908 0.0
H944 H 0.25685 0.50087 0.90632 0.0
H945 H 0.26582 0.48989 0.96706 0.0
H946 H 0.21452 0.44735 0.96692 0.0
H947 H 0.20463 0.45963 0.90697 0.0
H948 H 0.21108 0.46853 0.02169 0.0
H949 H 0.29252 0.44598 0.02129 0.0
H950 H 0.29105 0.47081 0.00052 0.0
H951 H 0.27831 0.44901 0.97979 0.0
C952 C 0.24799 0.48859 0.91871 0.0
C953 C 0.23008 0.48107 0.90207 0.0
C954 C 0.25319 0.48219 0.95352 0.0
C955 C 0.241 0.46758 0.9718 0.0
C956 C 0.22417 0.45867 0.95361 0.0
H957 H 0.28228 0.4621 0.19682 0.0
H958 H 0.27193 0.44852 0.13772 0.0
C959 C 0.21859 0.46556 0.91925 0.0
C960 C 0.24365 0.46448 0.01134 0.0
H961 H 0.28047 0.46319 0.07696 0.0
C962 C 0.22625 0.46676 0.03366 0.0
C963 C 0.26322 0.4616 0.02754 0.0
C964 C 0.28223 0.45646 0.00586 0.0
C965 C 0.22811 0.46794 0.07127 0.0
C966 C 0.24799 0.46789 0.08702 0.0
C967 C 0.2652 0.46382 0.06504 0.0
C968 C 0.25153 0.47402 0.12519 0.0
C969 C 0.20868 0.46957 0.09351 0.0
C970 C 0.24318 0.49259 0.13833 0.0
C971 C 0.2486 0.49995 0.17243 0.0
C972 C 0.26285 0.48915 0.19357 0.0
C973 C 0.27094 0.47042 0.18103 0.0
C974 C 0.26515 0.46279 0.14723 0.0
H975 H 0.19593 0.46066 0.08085 0.0
H976 H 0.21099 0.4638 0.1214 0.0
H977 H 0.20369 0.48592 0.09465 0.0
H978 H 0.23332 0.50202 0.12152 0.0
H979 H 0.24266 0.51472 0.18132 0.0
H980 H 0.9929 0.29997 0.65008 0.0
H981 H 0.006 0.28803 0.59252 0.0
H982 H 0.02939 0.23289 0.64309 0.0
H983 H 0.01573 0.24456 0.70143 0.0
H984 H 0.04445 0.2774 0.5668 0.0
H985 H 0.99078 0.21023 0.56618 0.0
H986 H 0.98863 0.23074 0.59877 0.0
H987 H 0.00857 0.21167 0.60325 0.0
C988 C 0.00088 0.2853 0.64928 0.0
C989 C 0.00296 0.27306 0.68044 0.0
C990 C 0.00851 0.27858 0.61622 0.0
C991 C 0.01844 0.25948 0.61337 0.0
C992 C 0.02144 0.24755 0.6446 0.0
H993 H 0.02979 0.19746 0.40712 0.0
H994 H 0.04027 0.20733 0.46795 0.0
C995 C 0.01368 0.25425 0.67791 0.0
C996 C 0.02407 0.25179 0.57701 0.0
H997 H 0.00935 0.21669 0.51359 0.0
C998 C 0.03708 0.26391 0.55527 0.0
C999 C 0.0144 0.23422 0.56201 0.0
C1000 C -0.00031 0.22099 0.58354 0.0
C1001 C 0.04 0.25938 0.51857 0.0
C1002 C 0.02951 0.24243 0.50323 0.0
C1003 C 0.01744 0.22968 0.52543 0.0
C1004 C 0.02888 0.23858 0.4638 0.0
C1005 C 0.05394 0.27302 0.49642 0.0
C1006 C 0.02 0.25323 0.44053 0.0
C1007 C 0.01415 0.24767 0.40549 0.0
C1008 C 0.01681 0.22729 0.39357 0.0
C1009 C 0.02745 0.21326 0.41572 0.0
C1010 C 0.03344 0.21886 0.4505 0.0
H1011 H 0.06583 0.28056 0.51352 0.0
H1012 H 0.06176 0.26415 0.47476 0.0
H1013 H 0.04457 0.28535 0.48366 0.0
H1014 H 0.01598 0.26843 0.45038 0.0
H1015 H 0.00581 0.25873 0.38915 0.0
H1016 H 0.30042 0.02749 0.91391 0.0
H1017 H 0.29074 0.03713 0.97532 0.0
H1018 H 0.2294 0.0136 0.95717 0.0
H1019 H 0.23888 0.00423 0.8953 0.0
H1020 H 0.23267 0.0496 0.00677 0.0
H1021 H 0.28563 0.98449 0.03922 0.0
H1022 H 0.29642 0.00526 0.01329 0.0
H1023 H 0.27658 0.98936 0.99402 0.0
C1024 C 0.28464 0.02508 0.92256 0.0
C1025 C 0.27047 0.01484 0.90006 0.0
C1026 C 0.27917 0.03054 0.95767 0.0
C1027 C 0.25954 0.02561 0.97096 0.0
C1028 C 0.24467 0.01744 0.94737 0.0
H1029 H 0.19439 -0.00102 0.16058 0.0
H1030 H 0.20618 0.01181 0.10271 0.0
C1031 C 0.25007 0.01216 0.91199 0.0
C1032 C 0.25564 0.02572 0.01029 0.0
H1033 H 0.26788 -0.00043 0.08725 0.0
C1034 C 0.24051 0.03885 0.02452 0.0
C1035 C 0.26598 0.01172 0.03336 0.0
C1036 C 0.28196 0.99677 0.01933 0.0
C1037 C 0.23512 0.03802 0.06121 0.0
C1038 C 0.24482 0.02336 0.08391 0.0
C1039 C 0.26055 0.01088 0.06991 0.0
C1040 C 0.23719 0.01868 0.12074 0.0
C1041 C 0.21893 0.05268 0.07519 0.0
C1042 C 0.25075 0.01805 0.15034 0.0
C1043 C 0.24409 0.01041 0.18373 0.0
C1044 C 0.22381 0.00304 0.18785 0.0
C1045 C 0.21015 0.00441 0.15843 0.0
C1046 C 0.21678 0.01204 0.12529 0.0
H1047 H 0.21882 0.06725 0.05943 0.0
H1048 H 0.20349 0.04546 0.07229 0.0
H1049 H 0.22145 0.05641 0.10408 0.0
H1050 H 0.26666 0.02289 0.14728 0.0
H1051 H 0.25499 0.00956 0.20582 0.0
H1052 H 0.52238 0.24465 0.42341 0.0
H1053 H 0.50882 0.23465 0.48169 0.0
H1054 H 0.4491 0.25896 0.45276 0.0
H1055 H 0.46292 0.26961 0.39373 0.0
H1056 H 0.46163 0.27285 0.51833 0.0
H1057 H 0.47216 0.18885 0.5152 0.0
H1058 H 0.49572 0.20087 0.50128 0.0
H1059 H 0.47265 0.20426 0.47463 0.0
C1060 C 0.50624 0.24759 0.42901 0.0
C1061 C 0.49374 0.25799 0.40393 0.0
C1062 C 0.49843 0.24167 0.46235 0.0
C1063 C 0.47784 0.24572 0.47147 0.0
C1064 C 0.465 0.2555 0.44612 0.0
H1065 H 0.46815 0.19798 0.68946 0.0
H1066 H 0.45535 0.20581 0.62893 0.0
C1067 C 0.47286 0.26146 0.41239 0.0
C1068 C 0.47088 0.24139 0.50884 0.0
H1069 H 0.47692 0.20517 0.57436 0.0
C1070 C 0.46437 0.2579 0.53054 0.0
C1071 C 0.47381 0.2218 0.52472 0.0
C1072 C 0.47873 0.20293 0.50253 0.0
C1073 C 0.4627 0.25578 0.56817 0.0
C1074 C 0.46841 0.23687 0.58452 0.0
C1075 C 0.47294 0.21988 0.56232 0.0
C1076 C 0.47196 0.23469 0.62407 0.0
C1077 C 0.45525 0.27398 0.58985 0.0
C1078 C 0.48486 0.24869 0.64242 0.0
C1079 C 0.49157 0.24454 0.67756 0.0
C1080 C 0.48608 0.22599 0.69443 0.0
C1081 C 0.47252 0.21242 0.67689 0.0
C1082 C 0.46528 0.21687 0.64227 0.0
H1083 H 0.44353 0.28288 0.57448 0.0
H1084 H 0.44841 0.26916 0.61596 0.0
H1085 H 0.46841 0.28451 0.59517 0.0
H1086 H 0.49089 0.26217 0.62886 0.0
H1087 H 0.50231 0.25503 0.69039 0.0
H1088 H 0.73353 0.50998 0.29263 0.0
H1089 H 0.72179 0.52378 0.35089 0.0
H1090 H 0.78192 0.51218 0.39636 0.0
H1091 H 0.79375 0.4988 0.33891 0.0
H1092 H 0.72033 0.50146 0.41331 0.0
H1093 H 0.77035 0.56923 0.435 0.0
H1094 H 0.76709 0.55745 0.39121 0.0
H1095 H 0.78522 0.54693 0.42314 0.0
C1096 C 0.74432 0.51074 0.3149 0.0
C1097 C 0.76453 0.50316 0.31109 0.0
C1098 C 0.73761 0.51864 0.34813 0.0
C1099 C 0.7511 0.51938 0.37783 0.0
C1100 C 0.77139 0.51232 0.37368 0.0
H1101 H 0.75208 0.51158 0.60399 0.0
H1102 H 0.76042 0.51906 0.54093 0.0
C1103 C 0.77804 0.50439 0.34077 0.0
C1104 C 0.74364 0.52507 0.41434 0.0
H1105 H 0.75656 0.55315 0.48909 0.0
C1106 C 0.72788 0.51313 0.42962 0.0
C1107 C 0.75361 0.54022 0.43568 0.0
C1108 C 0.76987 0.55432 0.42025 0.0
C1109 C 0.7227 0.51495 0.46621 0.0
C1110 C 0.73335 0.52942 0.48799 0.0
C1111 C 0.74847 0.54205 0.47238 0.0
C1112 C 0.72993 0.53026 0.52749 0.0
C1113 C 0.70673 0.5005 0.48175 0.0
C1114 C 0.71048 0.53543 0.54131 0.0
C1115 C 0.70566 0.53111 0.57723 0.0
C1116 C 0.72029 0.52173 0.59999 0.0
C1117 C 0.7405 0.51886 0.5872 0.0
C1118 C 0.74526 0.52303 0.55109 0.0
H1119 H 0.7028 0.48777 0.4629 0.0
H1120 H 0.71226 0.49368 0.50746 0.0
H1121 H 0.69239 0.50924 0.48751 0.0
H1122 H 0.69856 0.54138 0.52366 0.0
H1123 H 0.69 0.53368 0.58642 0.0
H1124 H 0.9779 0.74158 0.79949 0.0
H1125 H 0.96525 0.72978 0.85838 0.0
H1126 H 0.97902 0.78938 0.90401 0.0
H1127 H 0.99128 0.80132 0.84576 0.0
H1128 H 0.9896 0.72753 0.91805 0.0
H1129 H 0.92318 0.778 0.9482 0.0
H1130 H 0.93351 0.77516 0.90322 0.0
H1131 H 0.94537 0.79263 0.93479 0.0
C1132 C 0.97781 0.75228 0.82191 0.0
C1133 C 0.98574 0.77235 0.81791 0.0
C1134 C 0.97056 0.74553 0.85552 0.0
C1135 C 0.97086 0.7588 0.8855 0.0
C1136 C 0.97811 0.77901 0.88116 0.0
H1137 H 0.98308 0.75546 0.11212 0.0
H1138 H 0.97484 0.76516 0.04993 0.0
C1139 C 0.98538 0.78573 0.84779 0.0
C1140 C 0.96628 0.75101 0.92228 0.0
H1141 H 0.94033 0.76274 0.99988 0.0
C1142 C 0.97848 0.73489 0.93571 0.0
C1143 C 0.95188 0.76076 0.94538 0.0
C1144 C 0.9376 0.77746 0.93202 0.0
C1145 C 0.97756 0.72904 0.97207 0.0
C1146 C 0.96372 0.73932 0.99555 0.0
C1147 C 0.95092 0.75491 0.98186 0.0
C1148 C 0.96365 0.73493 0.03478 0.0
C1149 C 0.99227 0.71267 0.98548 0.0
C1150 C 0.95883 0.71513 0.04742 0.0
C1151 C 0.96365 0.70953 0.08279 0.0
C1152 C 0.97312 0.72372 0.10626 0.0
C1153 C 0.97576 0.7442 0.09474 0.0
C1154 C 0.97113 0.74974 0.05914 0.0
H1155 H 0.00467 0.70931 0.96566 0.0
H1156 H -0.00045 0.71746 0.01127 0.0
H1157 H 0.98362 0.69818 0.9904 0.0
H1158 H 0.95267 0.70361 0.02922 0.0
H1159 H 0.96123 0.69368 0.09102 0.0
H1160 H 0.69704 0.99353 0.34039 0.0
H1161 H 0.70937 0.98199 0.39879 0.0
H1162 H 0.76759 0.96465 0.35138 0.0
H1163 H 0.75551 0.97684 0.29232 0.0
H1164 H 0.72407 0.94591 0.42748 0.0
H1165 H 0.78475 0.00678 0.42655 0.0
H1166 H 0.76455 0.00587 0.39319 0.0
H1167 H 0.78595 0.98831 0.39054 0.0
C1168 C 0.71246 0.98714 0.34208 0.0
C1169 C 0.72544 0.9865 0.31166 0.0
C1170 C 0.71942 0.9804 0.3756 0.0
C1171 C 0.73952 0.9728 0.37964 0.0
C1172 C 0.75215 0.97087 0.34899 0.0
H1173 H 0.80198 0.96919 0.58683 0.0
H1174 H 0.7931 0.95825 0.52581 0.0
C1175 C 0.7452 0.97775 0.31523 0.0
C1176 C 0.74741 0.96876 0.41656 0.0
H1177 H 0.78046 0.98808 0.4797 0.0
C1178 C 0.73663 0.95488 0.43881 0.0
C1179 C 0.76372 0.98055 0.43136 0.0
C1180 C 0.77536 0.99634 0.40938 0.0
C1181 C 0.74129 0.95299 0.47569 0.0
C1182 C 0.75701 0.96541 0.4907 0.0
C1183 C 0.76843 0.97851 0.4681 0.0
C1184 C 0.76091 0.96667 0.53009 0.0
C1185 C 0.72914 0.93799 0.49835 0.0
C1186 C 0.74553 0.97413 0.55343 0.0
C1187 C 0.75055 0.98029 0.58857 0.0
C1188 C 0.77109 0.97937 0.6006 0.0
C1189 C 0.78604 0.97023 0.57822 0.0
C1190 C 0.781 0.96396 0.54331 0.0
H1191 H 0.72267 0.92531 0.48166 0.0
H1192 H 0.73884 0.93123 0.52002 0.0
H1193 H 0.71604 0.94623 0.51115 0.0
H1194 H 0.73 0.97672 0.54364 0.0
H1195 H 0.73874 0.98742 0.60505 0.0
H1196 H 0.51159 0.73631 0.11371 0.0
H1197 H 0.52148 0.72449 0.05341 0.0
H1198 H 0.52657 0.78762 0.01795 0.0
H1199 H 0.51722 0.7995 0.07793 0.0
H1200 H 0.4958 0.73343 0.99834 0.0
H1201 H 0.57373 0.76177 0.96329 0.0
H1202 H 0.56466 0.76034 0.00929 0.0
H1203 H 0.55765 0.78183 0.98111 0.0
C1204 C 0.51562 0.74766 0.09347 0.0
C1205 C 0.51335 0.76884 0.10049 0.0
C1206 C 0.52121 0.74089 0.05897 0.0
C1207 C 0.52484 0.75516 0.03113 0.0
C1208 C 0.52426 0.77629 0.03902 0.0
H1209 H 0.50625 0.75651 0.80081 0.0
H1210 H 0.51636 0.76544 0.86288 0.0
C1211 C 0.51868 0.78306 0.07337 0.0
C1212 C 0.52535 0.74831 0.99296 0.0
H1213 H 0.55128 0.75361 0.91316 0.0
C1214 C 0.50813 0.73751 0.97991 0.0
C1215 C 0.54127 0.75397 0.96875 0.0
C1216 C 0.56045 0.76495 0.98141 0.0
C1217 C 0.50606 0.73276 0.94326 0.0
C1218 C 0.52182 0.73864 0.91895 0.0
C1219 C 0.53922 0.74918 0.9319 0.0
C1220 C 0.52011 0.73377 0.88008 0.0
C1221 C 0.48666 0.72205 0.93063 0.0
C1222 C 0.51982 0.71313 0.86898 0.0
C1223 C 0.51387 0.70804 0.83399 0.0
C1224 C 0.50836 0.72352 0.80924 0.0
C1225 C 0.51042 0.7443 0.81936 0.0
C1226 C 0.51618 0.7494 0.85473 0.0
H1227 H 0.47419 0.72274 0.95114 0.0
H1228 H 0.48088 0.72904 0.90523 0.0
H1229 H 0.49013 0.70558 0.92527 0.0
H1230 H 0.52306 0.70088 0.88804 0.0
H1231 H 0.51269 0.69189 0.82677 0.0
H1232 H 0.75127 0.5207 0.79249 0.0
H1233 H 0.76294 0.53391 0.85118 0.0
H1234 H 0.70695 0.51165 0.90052 0.0
H1235 H 0.69502 0.49905 0.84259 0.0
H1236 H 0.71856 0.54931 0.92777 0.0
H1237 H 0.7844 0.49404 0.92701 0.0
H1238 H 0.78354 0.51227 0.89059 0.0
H1239 H 0.76394 0.49278 0.89416 0.0
C1240 C 0.74136 0.51888 0.81578 0.0
C1241 C 0.72236 0.50851 0.81285 0.0
C1242 C 0.74808 0.52635 0.84932 0.0
C1243 C 0.73596 0.52343 0.88036 0.0
C1244 C 0.71659 0.51405 0.87701 0.0
H1245 H 0.7356 0.5088 0.10458 0.0
H1246 H 0.72653 0.51924 0.04326 0.0
C1247 C 0.70987 0.5067 0.84375 0.0
C1248 C 0.7437 0.52845 0.917 0.0
H1249 H 0.77827 0.51214 0.98022 0.0
C1250 C 0.73184 0.54148 0.93913 0.0
C1251 C 0.76099 0.51818 0.93182 0.0
C1252 C 0.77392 0.50341 0.90988 0.0
C1253 C 0.73633 0.54384 0.97599 0.0
C1254 C 0.75299 0.53276 0.9911 0.0
C1255 C 0.76551 0.52067 0.96856 0.0
C1256 C 0.75672 0.53161 0.03056 0.0
C1257 C 0.72297 0.55783 0.99853 0.0
C1258 C 0.77646 0.53571 0.04429 0.0
C1259 C 0.78171 0.52959 0.0792 0.0
C1260 C 0.76731 0.51921 0.10105 0.0
C1261 C 0.74697 0.51689 0.08854 0.0
C1262 C 0.74176 0.52291 0.05343 0.0
H1263 H 0.71574 0.57007 0.9818 0.0
H1264 H 0.71039 0.54861 0.01089 0.0
H1265 H 0.73198 0.5652 0.0205 0.0
H1266 H 0.78823 0.5424 0.02715 0.0
H1267 H 0.79748 0.53172 0.08816 0.0
H1268 H 0.97358 0.75406 0.29817 0.0
H1269 H 0.95999 0.76617 0.35629 0.0
H1270 H 0.98202 0.71067 0.4075 0.0
H1271 H 0.99507 0.69832 0.35014 0.0
H1272 H 0.94366 0.72243 0.43292 0.0
H1273 H -0.00079 0.78805 0.43321 0.0
H1274 H 0.98152 0.78693 0.39596 0.0
H1275 H 0.0009 0.76733 0.40095 0.0
C1276 C 0.97532 0.74437 0.32176 0.0
C1277 C 0.9857 0.72536 0.3195 0.0
C1278 C 0.9676 0.75133 0.35495 0.0
C1279 C 0.97028 0.73944 0.38632 0.0
C1280 C 0.97978 0.72011 0.3837 0.0
H1281 H 0.98127 0.74062 0.61126 0.0
H1282 H 0.97154 0.73111 0.54978 0.0
C1283 C 0.98739 0.71315 0.35077 0.0
C1284 C 0.9648 0.7474 0.42259 0.0
H1285 H 0.98028 0.78237 0.48571 0.0
C1286 C 0.95138 0.73576 0.44435 0.0
C1287 C 0.97492 0.76475 0.43748 0.0
C1288 C 0.99006 0.77746 0.41591 0.0
C1289 C 0.94842 0.74056 0.48095 0.0
C1290 C 0.95934 0.75728 0.4962 0.0
C1291 C 0.97187 0.76956 0.47396 0.0
C1292 C 0.95987 0.76134 0.5356 0.0
C1293 C 0.93397 0.72745 0.50307 0.0
C1294 C 0.95588 0.78126 0.54855 0.0
C1295 C 0.96162 0.78676 0.58353 0.0
C1296 C 0.97146 0.77243 0.60625 0.0
C1297 C 0.97356 0.75194 0.59453 0.0
C1298 C 0.96796 0.74648 0.55932 0.0
H1299 H 0.92189 0.72027 0.4859 0.0
H1300 H 0.94287 0.71484 0.51601 0.0
H1301 H 0.92637 0.73663 0.52457 0.0
H1302 H 0.94965 0.79296 0.53077 0.0
H1303 H 0.9597 0.80265 0.5919 0.0
H1304 H 0.69304 0.96384 0.08521 0.0
H1305 H 0.70192 0.95391 0.02364 0.0
H1306 H 0.76449 0.97427 0.04128 0.0
H1307 H 0.75577 0.98377 0.10324 0.0
H1308 H 0.71245 0.98444 0.97916 0.0
H1309 H 0.77382 0.9254 0.97547 0.0
H1310 H 0.7581 0.9298 0.01498 0.0
H1311 H 0.78006 0.94601 0.00583 0.0
C1312 C 0.70891 0.9654 0.07641 0.0
C1313 C 0.72369 0.97474 0.09888 0.0
C1314 C 0.71395 0.95974 0.0412 0.0
C1315 C 0.73384 0.96337 0.02774 0.0
C1316 C 0.74913 0.97094 0.05119 0.0
H1317 H 0.79531 0.00076 0.84258 0.0
H1318 H 0.78336 0.98678 0.89952 0.0
C1319 C 0.74413 0.97642 0.08666 0.0
C1320 C 0.73745 0.96317 0.9882 0.0
H1321 H 0.77157 0.94796 0.92338 0.0
C1322 C 0.72506 0.97604 0.96675 0.0
C1323 C 0.75392 0.95227 0.97207 0.0
C1324 C 0.7671 0.93743 0.99327 0.0
C1325 C 0.72955 0.97947 0.93026 0.0
C1326 C 0.74669 0.96942 0.91454 0.0
C1327 C 0.75841 0.95563 0.93546 0.0
C1328 C 0.75443 0.97538 0.87838 0.0
C1329 C 0.71677 0.99496 0.9096 0.0
C1330 C 0.74231 0.97321 0.84714 0.0
C1331 C 0.74904 0.98146 0.8142 0.0
C1332 C 0.76804 0.99189 0.81207 0.0
C1333 C 0.78048 0.99307 0.84314 0.0
C1334 C 0.77375 0.98493 0.87582 0.0
H1335 H 0.70631 0.00389 0.92747 0.0
H1336 H 0.72687 0.00598 0.89496 0.0
H1337 H 0.70715 0.98677 0.88942 0.0
H1338 H 0.72746 0.96558 0.84843 0.0
H1339 H 0.73918 0.98011 0.79074 0.0
H1340 H 0.51726 0.73837 0.29218 0.0
H1341 H 0.53214 0.72634 0.34937 0.0
H1342 H 0.51252 0.78254 0.40122 0.0
H1343 H 0.49823 0.79482 0.3447 0.0
H1344 H 0.55104 0.77007 0.42439 0.0
H1345 H 0.49426 0.70554 0.42892 0.0
H1346 H 0.51124 0.70615 0.39067 0.0
H1347 H 0.49233 0.72613 0.39646 0.0
C1348 C 0.51634 0.74824 0.31568 0.0
C1349 C 0.50626 0.76743 0.31389 0.0
C1350 C 0.52479 0.74132 0.34835 0.0
C1351 C 0.52313 0.75342 0.37969 0.0
C1352 C 0.51397 0.77293 0.37744 0.0
H1353 H 0.51462 0.75454 0.6036 0.0
H1354 H 0.52458 0.76312 0.5419 0.0
C1355 C 0.50565 0.77986 0.345 0.0
C1356 C 0.52922 0.74548 0.41567 0.0
H1357 H 0.51413 0.71125 0.48028 0.0
C1358 C 0.54327 0.75697 0.43648 0.0
C1359 C 0.51905 0.72841 0.43142 0.0
C1360 C 0.50327 0.71588 0.41094 0.0
C1361 C 0.54673 0.75237 0.47302 0.0
C1362 C 0.53572 0.73599 0.48918 0.0
C1363 C 0.52262 0.72378 0.46783 0.0
C1364 C 0.53547 0.73245 0.52873 0.0
C1365 C 0.56177 0.76536 0.49415 0.0
C1366 C 0.53901 0.7126 0.54237 0.0
C1367 C 0.53313 0.70762 0.57752 0.0
C1368 C 0.52358 0.72242 0.59967 0.0
C1369 C 0.52206 0.74285 0.58731 0.0
C1370 C 0.52781 0.74778 0.55196 0.0
H1371 H 0.57381 0.77201 0.47628 0.0
H1372 H 0.55335 0.77835 0.50689 0.0
H1373 H 0.56939 0.75625 0.51573 0.0
H1374 H 0.5449 0.70054 0.52497 0.0
H1375 H 0.53462 0.69177 0.5864 0.0
H1376 H 0.19582 0.50209 0.66671 0.0
H1377 H 0.20693 0.48907 0.60855 0.0
H1378 H 0.26701 0.47532 0.65244 0.0
H1379 H 0.25604 0.48877 0.71129 0.0
H1380 H 0.26868 0.49906 0.59232 0.0
H1381 H 0.21735 0.4329 0.56537 0.0
H1382 H 0.2029 0.45515 0.57895 0.0
H1383 H 0.22081 0.4435 0.61003 0.0
C1384 C 0.21134 0.49606 0.66433 0.0
C1385 C 0.22512 0.49666 0.69366 0.0
C1386 C 0.21757 0.48833 0.63104 0.0
C1387 C 0.23766 0.48084 0.62627 0.0
C1388 C 0.25133 0.4808 0.65571 0.0
H1389 H 0.29862 0.47081 0.41749 0.0
H1390 H 0.28968 0.46169 0.47949 0.0
C1391 C 0.24507 0.48853 0.68926 0.0
C1392 C 0.24493 0.47593 0.5894 0.0
H1393 H 0.23143 0.45015 0.51253 0.0
C1394 C 0.26091 0.48799 0.5751 0.0
C1395 C 0.23464 0.46157 0.56692 0.0
C1396 C 0.21811 0.44741 0.58126 0.0
C1397 C 0.266 0.48708 0.53843 0.0
C1398 C 0.25507 0.4734 0.51558 0.0
C1399 C 0.23971 0.46064 0.53012 0.0
C1400 C 0.25855 0.47351 0.47616 0.0
C1401 C 0.28222 0.50165 0.52406 0.0
C1402 C 0.24345 0.48172 0.45307 0.0
C1403 C 0.24842 0.48669 0.41738 0.0
C1404 C 0.2686 0.48366 0.40465 0.0
C1405 C 0.283 0.47353 0.42681 0.0
C1406 C 0.27796 0.46835 0.46222 0.0
H1407 H 0.28628 0.51386 0.54385 0.0
H1408 H 0.29645 0.49285 0.51779 0.0
H1409 H 0.27686 0.50917 0.49884 0.0
H1410 H 0.22834 0.48573 0.4634 0.0
H1411 H 0.23705 0.49452 0.40091 0.0
H1412 H 0.00254 0.25679 0.19223 0.0
H1413 H 0.01357 0.26597 0.13078 0.0
H1414 H 0.02043 0.20152 0.10497 0.0
H1415 H 0.00933 0.19226 0.16565 0.0
H1416 H 0.0503 0.25244 0.08198 0.0
H1417 H 0.97216 0.22584 0.04026 0.0
H1418 H 0.97828 0.23237 0.08634 0.0
H1419 H 0.98686 0.20832 0.06767 0.0
C1420 C 0.0069 0.24465 0.17369 0.0
C1421 C 0.00472 0.22382 0.18349 0.0
C1422 C 0.01321 0.24989 0.13869 0.0
C1423 C 0.01756 0.23437 0.11338 0.0
C1424 C 0.01697 0.21368 0.12408 0.0
H1425 H 0.01095 0.23929 0.88001 0.0
H1426 H 0.01988 0.22624 0.93997 0.0
C1427 C 0.01053 0.20845 0.15872 0.0
C1428 C 0.02003 0.23942 0.07475 0.0
H1429 H 0.99472 0.23624 0.99436 0.0
C1430 C 0.03822 0.2489 0.06269 0.0
C1431 C 0.00428 0.2346 0.04977 0.0
C1432 C 0.9842 0.22485 0.06151 0.0
C1433 C 0.04103 0.25372 0.02602 0.0
C1434 C 0.02508 0.24923 0.00111 0.0
C1435 C 0.00707 0.23945 0.01331 0.0
C1436 C 0.02542 0.25639 0.96311 0.0
C1437 C 0.06107 0.26347 0.01431 0.0
C1438 C 0.0265 0.27757 0.95577 0.0
C1439 C 0.02152 0.28503 0.92157 0.0
C1440 C 0.0151 0.27148 0.8941 0.0
C1441 C 0.01582 0.25013 0.90053 0.0
C1442 C 0.02086 0.24266 0.93485 0.0
H1443 H 0.0739 0.2591 0.03265 0.0
H1444 H 0.0652 0.25894 0.98636 0.0
H1445 H 0.05948 0.2805 0.01529 0.0
H1446 H 0.02957 0.28852 0.97715 0.0
H1447 H 0.02128 0.30156 0.91747 0.0
H1448 H 0.19529 0.0178 0.42482 0.0
H1449 H 0.20854 0.02693 0.48398 0.0
H1450 H 0.27086 0.01997 0.44505 0.0
H1451 H 0.25763 0.01019 0.38559 0.0
H1452 H 0.2628 0.99496 0.50043 0.0
H1453 H 0.23624 0.07309 0.53739 0.0
H1454 H 0.21538 0.05751 0.52111 0.0
H1455 H 0.23635 0.06401 0.49133 0.0
C1456 C 0.21185 0.01879 0.42842 0.0
C1457 C 0.22541 0.01293 0.4006 0.0
C1458 C 0.21942 0.02426 0.46232 0.0
C1459 C 0.24071 0.02425 0.46902 0.0
C1460 C 0.25435 0.02015 0.44043 0.0
H1461 H 0.30575 0.01101 0.67208 0.0
H1462 H 0.29655 0.02194 0.61122 0.0
C1463 C 0.24677 0.01461 0.40641 0.0
C1464 C 0.24827 0.02461 0.50681 0.0
H1465 H 0.24417 0.05014 0.58721 0.0
C1466 C 0.25908 0.00725 0.51918 0.0
C1467 C 0.24313 0.04049 0.53146 0.0
C1468 C 0.23231 0.0599 0.51953 0.0
C1469 C 0.26425 0.00495 0.55562 0.0
C1470 C 0.25873 0.02058 0.58039 0.0
C1471 C 0.24828 0.03817 0.56811 0.0
C1472 C 0.2637 0.01844 0.61914 0.0
C1473 C 0.27499 0.98544 0.56758 0.0
C1474 C 0.24815 0.0139 0.64429 0.0
C1475 C 0.25335 0.00773 0.67938 0.0
C1476 C 0.27418 0.00589 0.68946 0.0
C1477 C 0.28957 0.01198 0.66493 0.0
C1478 C 0.28437 0.01829 0.63017 0.0
H1479 H 0.27444 0.97323 0.54658 0.0
H1480 H 0.29143 0.9889 0.57337 0.0
H1481 H 0.26789 0.97933 0.59266 0.0
H1482 H 0.23209 0.01394 0.63617 0.0
H1483 H 0.24118 0.00313 0.69772 0.0
H1484 H 0.47288 0.19889 0.92839 0.0
H1485 H 0.46237 0.21235 0.98628 0.0
H1486 H 0.46555 0.2744 0.94449 0.0
H1487 H 0.47722 0.2609 0.88628 0.0
H1488 H 0.48875 0.27187 0.99907 0.0
H1489 H 0.41651 0.23562 0.04195 0.0
H1490 H 0.43301 0.21541 0.02634 0.0
H1491 H 0.42461 0.23523 0.99536 0.0
C1492 C 0.47082 0.2154 0.93102 0.0
C1493 C 0.47636 0.22884 0.90285 0.0
C1494 C 0.46444 0.22311 0.96425 0.0
C1495 C 0.46298 0.24444 0.96999 0.0
C1496 C 0.46653 0.25786 0.94078 0.0
H1497 H 0.46387 0.27841 0.20198 0.0
H1498 H 0.4497 0.27476 0.14075 0.0
C1499 C 0.47318 0.25012 0.90745 0.0
C1500 C 0.46221 0.25234 0.00764 0.0
H1501 H 0.44275 0.24044 0.09078 0.0
C1502 C 0.4782 0.2655 0.01884 0.0
C1503 C 0.44835 0.24444 0.0338 0.0
C1504 C 0.42954 0.23209 0.0235 0.0
C1505 C 0.48195 0.2692 0.05544 0.0
C1506 C 0.46976 0.25907 0.08162 0.0
C1507 C 0.45248 0.24767 0.07062 0.0
C1508 C 0.47629 0.25855 0.11986 0.0
C1509 C 0.49965 0.28313 0.06579 0.0
C1510 C 0.49537 0.24967 0.12865 0.0
C1511 C 0.50348 0.25179 0.16323 0.0
C1512 C 0.49254 0.26258 0.1899 0.0
C1513 C 0.47262 0.26995 0.18196 0.0
C1514 C 0.46455 0.26798 0.14702 0.0
H1515 H 0.50298 0.29454 0.04421 0.0
H1516 H 0.49633 0.29155 0.09123 0.0
H1517 H 0.51373 0.27368 0.06985 0.0
H1518 H 0.50445 0.24192 0.10821 0.0
H1519 H 0.51876 0.24575 0.16865 0.0
H1520 H 0.24171 0.59979 0.31398 0.0
H1521 H 0.20966 0.61948 0.31611 0.0
H1522 H 0.17455 0.56311 0.30958 0.0
H1523 H 0.20657 0.54319 0.30701 0.0
H1524 H 0.1627 0.59236 0.25982 0.0
H1525 H 0.16697 0.62706 0.3962 0.0
H1526 H 0.18991 0.63107 0.36998 0.0
H1527 H 0.18264 0.60533 0.38283 0.0
C1528 C 0.22719 0.59151 0.31332 0.0
C1529 C 0.22673 0.56989 0.31022 0.0
C1530 C 0.20888 0.60281 0.3149 0.0
C1531 C 0.18975 0.59273 0.31365 0.0
C1532 C 0.18919 0.57115 0.31093 0.0
H1533 H 0.06682 0.64912 0.31027 0.0
H1534 H 0.09634 0.628 0.32891 0.0
C1535 C 0.2075 0.55982 0.30937 0.0
C1536 C 0.17044 0.60486 0.31192 0.0
H1537 H 0.14293 0.64253 0.35485 0.0
C1538 C 0.15822 0.60309 0.28084 0.0
C1539 C 0.16459 0.61879 0.33947 0.0
C1540 C 0.1766 0.62057 0.37417 0.0
C1541 C 0.14077 0.61552 0.27591 0.0
C1542 C 0.13551 0.6301 0.30264 0.0
C1543 C 0.1472 0.63139 0.33435 0.0
C1544 C 0.11848 0.64477 0.29668 0.0
C1545 C 0.12831 0.61339 0.24173 0.0
C1546 C 0.12146 0.66153 0.27347 0.0
C1547 C 0.10473 0.6736 0.26277 0.0
C1548 C 0.0847 0.66904 0.27506 0.0
C1549 C 0.08202 0.65303 0.30027 0.0
C1550 C 0.09883 0.64094 0.31096 0.0
H1551 H 0.13264 0.59942 0.22611 0.0
H1552 H 0.11158 0.61266 0.2481 0.0
H1553 H 0.13088 0.62714 0.22446 0.0
H1554 H 0.13658 0.66468 0.26231 0.0
H1555 H 0.1074 0.68589 0.24356 0.0
H1556 H 0.80825 0.11492 0.74071 0.0
H1557 H 0.83109 0.14304 0.75845 0.0
H1558 H 0.86731 0.10096 0.82235 0.0
H1559 H 0.8445 0.07254 0.80482 0.0
H1560 H 0.85936 0.14374 0.85284 0.0
H1561 H 0.89154 0.14126 0.714 0.0
H1562 H 0.86387 0.14265 0.71657 0.0
H1563 H 0.87699 0.1202 0.73323 0.0
C1564 C 0.82079 0.11164 0.75914 0.0
C1565 C 0.82471 0.09139 0.77092 0.0
C1566 C 0.83385 0.12774 0.76916 0.0
C1567 C 0.85102 0.12392 0.79112 0.0
C1568 C 0.85415 0.10411 0.80519 0.0
H1569 H 0.95437 0.21072 0.79121 0.0
H1570 H 0.93473 0.17846 0.79291 0.0
C1571 C 0.84108 0.08792 0.79517 0.0
C1572 C 0.86658 0.14025 0.79652 0.0
H1573 H 0.90109 0.16985 0.75029 0.0
C1574 C 0.86866 0.14937 0.8306 0.0
C1575 C 0.87893 0.1472 0.76755 0.0
C1576 C 0.87792 0.13724 0.7308 0.0
C1577 C 0.88217 0.16602 0.83602 0.0
C1578 C 0.89363 0.17376 0.80647 0.0
C1579 C 0.89221 0.16396 0.77286 0.0
C1580 C 0.90604 0.19286 0.80894 0.0
C1581 C 0.88396 0.17527 0.87321 0.0
C1582 C 0.89639 0.2116 0.81724 0.0
C1583 C 0.9075 0.23001 0.81618 0.0
C1584 C 0.9285 0.23009 0.80653 0.0
C1585 C 0.93823 0.21122 0.79873 0.0
C1586 C 0.92706 0.19277 0.79976 0.0
H1587 H 0.87954 0.16399 0.8944 0.0
H1588 H 0.89991 0.18073 0.87858 0.0
H1589 H 0.87337 0.18866 0.8753 0.0
H1590 H 0.88007 0.21208 0.82351 0.0
H1591 H 0.89947 0.24423 0.82233 0.0
H1592 H 0.28687 0.95334 0.29682 0.0
H1593 H 0.31943 0.93416 0.29855 0.0
H1594 H 0.28663 0.87915 0.32982 0.0
H1595 H 0.25413 0.89806 0.32846 0.0
H1596 H 0.32513 0.88675 0.36851 0.0
H1597 H 0.33217 0.89054 0.21888 0.0
H1598 H 0.32896 0.91466 0.24216 0.0
H1599 H 0.30832 0.8962 0.24197 0.0
C1600 C 0.28659 0.9372 0.30432 0.0
C1601 C 0.26784 0.92719 0.31209 0.0
C1602 C 0.3052 0.92629 0.30529 0.0
C1603 C 0.30533 0.90524 0.31405 0.0
C1604 C 0.2868 0.89541 0.32305 0.0
H1605 H 0.38338 0.80568 0.25867 0.0
H1606 H 0.35527 0.82827 0.27731 0.0
C1607 C 0.26822 0.90624 0.32201 0.0
C1608 C 0.32446 0.89296 0.31146 0.0
H1609 H 0.35772 0.87218 0.25019 0.0
C1610 C 0.33245 0.88372 0.34276 0.0
C1611 C 0.33374 0.88892 0.27771 0.0
C1612 C 0.32536 0.89794 0.24314 0.0
C1613 C 0.34941 0.87026 0.34102 0.0
C1614 C 0.35841 0.86601 0.30719 0.0
C1615 C 0.35069 0.87557 0.27607 0.0
C1616 C 0.37512 0.85079 0.30271 0.0
C1617 C 0.35722 0.8601 0.37493 0.0
C1618 C 0.3955 0.85572 0.31201 0.0
C1619 C 0.4117 0.84282 0.30135 0.0
C1620 C 0.40767 0.82493 0.28099 0.0
C1621 C 0.38706 0.8194 0.27405 0.0
C1622 C 0.37096 0.83227 0.28468 0.0
H1623 H 0.34752 0.86382 0.39875 0.0
H1624 H 0.35761 0.8431 0.37131 0.0
H1625 H 0.37325 0.86528 0.38035 0.0
H1626 H 0.39896 0.87006 0.3257 0.0
H1627 H 0.42739 0.84754 0.30711 0.0
H1628 H 0.54764 0.28589 0.7749 0.0
H1629 H 0.56968 0.3166 0.77487 0.0
H1630 H 0.60616 0.29053 0.86097 0.0
H1631 H 0.58497 0.25935 0.85946 0.0
H1632 H 0.58017 0.34557 0.82081 0.0
H1633 H 0.65005 0.2998 0.78824 0.0
H1634 H 0.62461 0.28864 0.78845 0.0
H1635 H 0.63839 0.29246 0.83013 0.0
C1636 C 0.5603 0.28683 0.79391 0.0
C1637 C 0.56489 0.27018 0.81672 0.0
C1638 C 0.57287 0.30435 0.79395 0.0
C1639 C 0.58995 0.30562 0.81723 0.0
C1640 C 0.59356 0.28959 0.84185 0.0
H1641 H 0.65942 0.42309 0.81611 0.0
H1642 H 0.63932 0.39385 0.83904 0.0
C1643 C 0.58137 0.27186 0.84114 0.0
C1644 C 0.60446 0.32325 0.81439 0.0
H1645 H 0.65483 0.33532 0.79779 0.0
C1646 C 0.59651 0.34337 0.81588 0.0
C1647 C 0.62578 0.32031 0.80769 0.0
C1648 C 0.6352 0.29915 0.80317 0.0
C1649 C 0.60913 0.36061 0.80965 0.0
C1650 C 0.63046 0.35765 0.80315 0.0
C1651 C 0.63852 0.33757 0.80308 0.0
C1652 C 0.64422 0.37476 0.79189 0.0
C1653 C 0.59923 0.38167 0.80816 0.0
C1654 C 0.65462 0.37328 0.75882 0.0
C1655 C 0.6665 0.38963 0.74619 0.0
C1656 C 0.66807 0.408 0.76613 0.0
C1657 C 0.65834 0.40921 0.79998 0.0
C1658 C 0.64669 0.3926 0.81295 0.0
H1659 H 0.58219 0.38068 0.80532 0.0
H1660 H 0.60263 0.39009 0.83352 0.0
H1661 H 0.60539 0.39081 0.78526 0.0
H1662 H 0.65302 0.35966 0.74212 0.0
H1663 H 0.67373 0.38814 0.71999 0.0
H1664 H 0.70403 0.45178 0.20008 0.0
H1665 H 0.67284 0.43041 0.19681 0.0
H1666 H 0.70854 0.38024 0.15302 0.0
H1667 H 0.73968 0.40119 0.15645 0.0
H1668 H 0.65392 0.40803 0.1364 0.0
H1669 H 0.68212 0.35671 0.24612 0.0
H1670 H 0.6933 0.38171 0.23737 0.0
H1671 H 0.69949 0.36019 0.20886 0.0
C1672 C 0.70521 0.43625 0.18954 0.0
C1673 C 0.72441 0.42812 0.17901 0.0
C1674 C 0.68739 0.4241 0.18759 0.0
C1675 C 0.68851 0.40369 0.17513 0.0
C1676 C 0.70745 0.39585 0.16323 0.0
H1677 H 0.59836 0.30457 0.19628 0.0
H1678 H 0.62792 0.32409 0.17315 0.0
C1679 C 0.72523 0.40789 0.16525 0.0
C1680 C 0.67015 0.39018 0.17631 0.0
H1681 H 0.65061 0.34785 0.21885 0.0
C1682 C 0.65317 0.39481 0.15429 0.0
C1683 C 0.66935 0.37289 0.1995 0.0
C1684 C 0.68694 0.36759 0.22455 0.0
C1685 C 0.63525 0.38262 0.15508 0.0
C1686 C 0.63426 0.36563 0.17896 0.0
C1687 C 0.65147 0.36076 0.20029 0.0
C1688 C 0.61494 0.35402 0.18549 0.0
C1689 C 0.61757 0.38805 0.13038 0.0
C1690 C 0.59766 0.3644 0.19914 0.0
C1691 C 0.58083 0.35334 0.21229 0.0
C1692 C 0.581 0.33164 0.21238 0.0
C1693 C 0.59774 0.32126 0.19653 0.0
C1694 C 0.61465 0.33239 0.18339 0.0
H1695 H 0.6231 0.39628 0.10595 0.0
H1696 H 0.60894 0.37408 0.12187 0.0
H1697 H 0.60679 0.39846 0.14481 0.0
H1698 H 0.59769 0.38103 0.20176 0.0
H1699 H 0.56814 0.36183 0.22415 0.0
H1700 H 0.07886 0.73756 0.64749 0.0
H1701 H 0.09993 0.70637 0.64714 0.0
H1702 H 0.06346 0.6815 0.73432 0.0
H1703 H 0.04164 0.7123 0.73336 0.0
H1704 H 0.12401 0.69481 0.69757 0.0
H1705 H 0.06911 0.63111 0.67453 0.0
H1706 H 0.06208 0.65773 0.66749 0.0
H1707 H 0.06098 0.64655 0.71197 0.0
C1708 C 0.07508 0.72522 0.66605 0.0
C1709 C 0.05867 0.7273 0.69052 0.0
C1710 C 0.08712 0.70741 0.66583 0.0
C1711 C 0.08322 0.69145 0.69046 0.0
C1712 C 0.06645 0.69329 0.71433 0.0
H1713 H 0.17174 0.61414 0.79123 0.0
H1714 H 0.15008 0.64191 0.76878 0.0
C1715 C 0.05407 0.71096 0.71399 0.0
C1716 C 0.09803 0.67409 0.69379 0.0
H1717 H 0.10136 0.62186 0.70325 0.0
C1718 C 0.11904 0.67884 0.69817 0.0
C1719 C 0.09174 0.6532 0.69393 0.0
C1720 C 0.06977 0.64685 0.68631 0.0
C1721 C 0.13374 0.66341 0.70428 0.0
C1722 C 0.12718 0.64269 0.70748 0.0
C1723 C 0.10636 0.63779 0.70136 0.0
C1724 C 0.14135 0.62615 0.7196 0.0
C1725 C 0.15615 0.66953 0.70736 0.0
C1726 C 0.14337 0.60782 0.69977 0.0
C1727 C 0.15555 0.59167 0.71289 0.0
C1728 C 0.16592 0.59361 0.74606 0.0
C1729 C 0.16419 0.61218 0.76539 0.0
C1730 C 0.15187 0.62817 0.75247 0.0
H1731 H 0.15941 0.6837 0.69151 0.0
H1732 H 0.1598 0.67294 0.73599 0.0
H1733 H 0.16654 0.65706 0.69785 0.0
H1734 H 0.13529 0.6059 0.67442 0.0
H1735 H 0.15652 0.57754 0.6974 0.0
H1736 H 0.78998 0.03412 0.20363 0.0
H1737 H 0.82247 0.05356 0.20366 0.0
H1738 H 0.79051 0.10713 0.16335 0.0
H1739 H 0.75824 0.08795 0.16272 0.0
H1740 H 0.82996 0.10076 0.13166 0.0
H1741 H 0.83126 0.09819 0.28181 0.0
H1742 H 0.83034 0.07373 0.25906 0.0
H1743 H 0.80877 0.09101 0.25603 0.0
C1744 C 0.78994 0.04995 0.19432 0.0
C1745 C 0.77145 0.05956 0.1837 0.0
C1746 C 0.80848 0.06103 0.19444 0.0
C1747 C 0.80877 0.08184 0.18397 0.0
C1748 C 0.79058 0.09109 0.17159 0.0
H1749 H 0.8829 0.18278 0.25171 0.0
H1750 H 0.85559 0.15935 0.23248 0.0
C1751 C 0.77212 0.0801 0.17148 0.0
C1752 C 0.82743 0.09469 0.18859 0.0
H1753 H 0.85729 0.11725 0.25325 0.0
C1754 C 0.83614 0.10422 0.15816 0.0
C1755 C 0.83518 0.09935 0.22329 0.0
C1756 C 0.82588 0.0902 0.25702 0.0
C1757 C 0.85224 0.1186 0.16164 0.0
C1758 C 0.85978 0.12339 0.19638 0.0
C1759 C 0.85138 0.11352 0.22666 0.0
C1760 C 0.87587 0.13916 0.20251 0.0
C1761 C 0.86054 0.12912 0.12841 0.0
C1762 C 0.89621 0.1359 0.191 0.0
C1763 C 0.91191 0.14933 0.20185 0.0
C1764 C 0.9075 0.16611 0.22468 0.0
C1765 C 0.88688 0.16997 0.23431 0.0
C1766 C 0.87123 0.15658 0.2234 0.0
H1767 H 0.85052 0.12656 0.10451 0.0
H1768 H 0.86209 0.14597 0.13303 0.0
H1769 H 0.87611 0.12294 0.12224 0.0
H1770 H 0.90012 0.1224 0.17522 0.0
H1771 H 0.92763 0.14587 0.19401 0.0
H1772 H 0.35197 0.92831 0.69757 0.0
H1773 H 0.37531 0.90089 0.67776 0.0
H1774 H 0.33716 0.85572 0.73095 0.0
H1775 H 0.31384 0.88288 0.75107 0.0
H1776 H 0.37963 0.85724 0.75335 0.0
H1777 H 0.37073 0.85205 0.60425 0.0
H1778 H 0.3739 0.87735 0.62346 0.0
H1779 H 0.35098 0.86285 0.63296 0.0
C1780 C 0.34824 0.91248 0.70427 0.0
C1781 C 0.33115 0.90781 0.72624 0.0
C1782 C 0.36159 0.89685 0.69286 0.0
C1783 C 0.35793 0.87634 0.70298 0.0
C1784 C 0.34022 0.8715 0.72295 0.0
H1785 H 0.40735 0.75833 0.66102 0.0
H1786 H 0.38855 0.7908 0.66265 0.0
C1787 C 0.32691 0.88706 0.73439 0.0
C1788 C 0.37357 0.86021 0.69652 0.0
H1789 H 0.39566 0.83043 0.63125 0.0
C1790 C 0.38329 0.85146 0.72665 0.0
C1791 C 0.37824 0.85284 0.66164 0.0
C1792 C 0.36788 0.8616 0.62861 0.0
C1793 C 0.39717 0.83504 0.72298 0.0
C1794 C 0.40166 0.82743 0.68813 0.0
C1795 C 0.39231 0.8365 0.65786 0.0
C1796 C 0.4142 0.80861 0.68318 0.0
C1797 C 0.40618 0.82538 0.75652 0.0
C1798 C 0.43505 0.808 0.69339 0.0
C1799 C 0.44591 0.78935 0.69271 0.0
C1800 C 0.43604 0.77107 0.68175 0.0
C1801 C 0.41541 0.77204 0.66997 0.0
C1802 C 0.40463 0.79062 0.67065 0.0
H1803 H 0.39834 0.83079 0.78143 0.0
H1804 H 0.40502 0.80831 0.75525 0.0
H1805 H 0.42276 0.8295 0.75856 0.0
H1806 H 0.44275 0.82183 0.70275 0.0
H1807 H 0.46181 0.78917 0.70168 0.0
H1808 H 0.88309 0.31628 0.75328 0.0
H1809 H 0.85522 0.33925 0.73497 0.0
H1810 H 0.89851 0.37691 0.6762 0.0
H1811 H 0.92663 0.35391 0.69419 0.0
H1812 H 0.85689 0.38202 0.75523 0.0
H1813 H 0.84772 0.37071 0.6072 0.0
H1814 H 0.85959 0.35157 0.6359 0.0
H1815 H 0.8735 0.3745 0.62411 0.0
C1816 C 0.88669 0.32917 0.73581 0.0
C1817 C 0.90714 0.33336 0.72548 0.0
C1818 C 0.87072 0.34229 0.72542 0.0
C1819 C 0.87486 0.35974 0.70434 0.0
C1820 C 0.89502 0.36338 0.69219 0.0
H1821 H 0.78637 0.46254 0.70422 0.0
H1822 H 0.8192 0.44375 0.70461 0.0
C1823 C 0.91105 0.35022 0.70255 0.0
C1824 C 0.85839 0.37512 0.69852 0.0
H1825 H 0.8265 0.39573 0.63481 0.0
C1826 C 0.85033 0.38518 0.72888 0.0
C1827 C 0.84999 0.37912 0.66409 0.0
C1828 C 0.85798 0.36837 0.63086 0.0
C1829 C 0.83361 0.39875 0.72594 0.0
C1830 C 0.82496 0.40256 0.69158 0.0
C1831 C 0.83335 0.39288 0.66103 0.0
C1832 C 0.80585 0.41476 0.68756 0.0
C1833 C 0.82473 0.40815 0.7598 0.0
C1834 C 0.7877 0.40481 0.67678 0.0
C1835 C 0.76901 0.41542 0.6765 0.0
C1836 C 0.76811 0.43627 0.68691 0.0
C1837 C 0.7865 0.44646 0.69633 0.0
C1838 C 0.80525 0.43577 0.69662 0.0
H1839 H 0.83093 0.40079 0.7846 0.0
H1840 H 0.82865 0.4248 0.76069 0.0
H1841 H 0.80766 0.40674 0.76001 0.0
H1842 H 0.78787 0.38859 0.66971 0.0
H1843 H 0.7552 0.4071 0.66878 0.0
H1844 H 0.18247 0.88143 0.25378 0.0
H1845 H 0.15937 0.85373 0.23515 0.0
H1846 H 0.12081 0.89762 0.17962 0.0
H1847 H 0.14393 0.92557 0.19794 0.0
H1848 H 0.11704 0.85541 0.25784 0.0
H1849 H 0.12526 0.84744 0.10902 0.0
H1850 H 0.14507 0.85893 0.13684 0.0
H1851 H 0.12202 0.87309 0.1267 0.0
C1852 C 0.16937 0.8852 0.23688 0.0
C1853 C 0.16494 0.90576 0.22768 0.0
C1854 C 0.15618 0.86933 0.22628 0.0
C1855 C 0.13841 0.87368 0.20612 0.0
C1856 C 0.13459 0.89396 0.19488 0.0
H1857 H 0.03372 0.78767 0.21038 0.0
H1858 H 0.05346 0.81993 0.20985 0.0
C1859 C 0.14782 0.9099 0.20543 0.0
C1860 C 0.12281 0.85735 0.20078 0.0
H1861 H 0.10028 0.82647 0.13751 0.0
C1862 C 0.11324 0.84915 0.23152 0.0
C1863 C 0.11796 0.84934 0.1664 0.0
C1864 C 0.12815 0.85749 0.13275 0.0
C1865 C 0.09928 0.83273 0.22896 0.0
C1866 C 0.09456 0.82452 0.19462 0.0
C1867 C 0.10382 0.83299 0.16373 0.0
C1868 C 0.0817 0.80583 0.19085 0.0
C1869 C 0.09038 0.82373 0.26313 0.0
C1870 C 0.09089 0.78745 0.17924 0.0
C1871 C 0.07972 0.76908 0.17949 0.0
C1872 C 0.05908 0.76873 0.19129 0.0
C1873 C 0.04962 0.78737 0.20142 0.0
C1874 C 0.06086 0.8058 0.20118 0.0
H1875 H 0.09843 0.82947 0.28761 0.0
H1876 H 0.07386 0.82806 0.26524 0.0
H1877 H 0.09134 0.80663 0.26273 0.0
H1878 H 0.10695 0.78718 0.17117 0.0
H1879 H 0.08747 0.75507 0.17118 0.0
H1880 H 0.70447 0.03934 0.70339 0.0
H1881 H 0.67154 0.05794 0.70242 0.0
H1882 H 0.70316 0.11348 0.67024 0.0
H1883 H 0.73591 0.09515 0.67073 0.0
H1884 H 0.66256 0.09142 0.74527 0.0
H1885 H 0.65406 0.1127 0.60152 0.0
H1886 H 0.67153 0.09277 0.61659 0.0
H1887 H 0.67891 0.11949 0.61927 0.0
C1888 C 0.70437 0.05543 0.69561 0.0
C1889 C 0.72286 0.06575 0.68727 0.0
C1890 C 0.68555 0.06601 0.695 0.0
C1891 C 0.68488 0.08699 0.68565 0.0
C1892 C 0.70324 0.09718 0.67665 0.0
H1893 H 0.60904 0.18494 0.75646 0.0
H1894 H 0.63633 0.16164 0.73667 0.0
C1895 C 0.72201 0.08668 0.67734 0.0
C1896 C 0.66548 0.0989 0.68891 0.0
H1897 H 0.63445 0.13297 0.64411 0.0
C1898 C 0.6562 0.1002 0.72299 0.0
C1899 C 0.65714 0.11027 0.65976 0.0
C1900 C 0.6658 0.10859 0.62214 0.0
C1901 C 0.63946 0.1134 0.72915 0.0
C1902 C 0.63197 0.12572 0.70057 0.0
C1903 C 0.64048 0.12367 0.66602 0.0
C1904 C 0.61592 0.14145 0.70701 0.0
C1905 C 0.63019 0.11447 0.76643 0.0
C1906 C 0.5956 0.13827 0.69533 0.0
C1907 C 0.57987 0.15159 0.70657 0.0
C1908 C 0.58433 0.16825 0.72967 0.0
C1909 C 0.60501 0.17218 0.73898 0.0
C1910 C 0.62064 0.15887 0.72776 0.0
H1911 H 0.63469 0.10101 0.78322 0.0
H1912 H 0.63569 0.12867 0.78011 0.0
H1913 H 0.61309 0.11519 0.76495 0.0
H1914 H 0.59174 0.1249 0.67915 0.0
H1915 H 0.56413 0.14814 0.69884 0.0
H1916 H 0.39946 0.73442 0.20175 0.0
H1917 H 0.38187 0.70138 0.19656 0.0
H1918 H 0.44019 0.67098 0.17888 0.0
H1919 H 0.45811 0.7041 0.18501 0.0
H1920 H 0.38009 0.67406 0.14053 0.0
H1921 H 0.4161 0.63763 0.26109 0.0
H1922 H 0.41833 0.66484 0.25189 0.0
H1923 H 0.43374 0.64663 0.22724 0.0
C1924 C 0.40862 0.72073 0.19687 0.0
C1925 C 0.43023 0.72189 0.19406 0.0
C1926 C 0.39851 0.70185 0.19378 0.0
C1927 C 0.40971 0.68369 0.18767 0.0
C1928 C 0.43127 0.68475 0.18428 0.0
H1929 H 0.35451 0.56029 0.20074 0.0
H1930 H 0.37804 0.58729 0.17959 0.0
C1931 C 0.44148 0.70369 0.18772 0.0
C1932 C 0.39854 0.66378 0.18545 0.0
H1933 H 0.39118 0.61834 0.23004 0.0
C1934 C 0.38269 0.66175 0.15982 0.0
C1935 C 0.40201 0.6477 0.21053 0.0
C1936 C 0.41834 0.64927 0.23945 0.0
C1937 C 0.36967 0.64447 0.15958 0.0
C1938 C 0.37256 0.62889 0.18567 0.0
C1939 C 0.3891 0.63033 0.20997 0.0
C1940 C 0.35717 0.61239 0.19152 0.0
C1941 C 0.35256 0.64325 0.13209 0.0
C1942 C 0.3375 0.6176 0.20439 0.0
C1943 C 0.32413 0.60229 0.21674 0.0
C1944 C 0.33018 0.58148 0.21636 0.0
C1945 C 0.34935 0.57617 0.20117 0.0
C1946 C 0.36284 0.59156 0.18919 0.0
H1947 H 0.35597 0.6529 0.10806 0.0
H1948 H 0.34998 0.62709 0.12326 0.0
H1949 H 0.33805 0.64901 0.14438 0.0
H1950 H 0.33296 0.63361 0.20692 0.0
H1951 H 0.30947 0.60686 0.22825 0.0
H1952 H 0.4214 0.66493 0.81312 0.0
H1953 H 0.39173 0.64603 0.83737 0.0
H1954 H 0.3577 0.65846 0.73972 0.0
H1955 H 0.38669 0.67799 0.71614 0.0
H1956 H 0.33339 0.66169 0.79597 0.0
H1957 H 0.37778 0.58857 0.80607 0.0
H1958 H 0.38768 0.6093 0.83307 0.0
H1959 H 0.38811 0.61128 0.78469 0.0
C1960 C 0.40748 0.66384 0.79708 0.0
C1961 C 0.40647 0.67282 0.76258 0.0
C1962 C 0.39061 0.65289 0.81083 0.0
C1963 C 0.37269 0.65038 0.78997 0.0
C1964 C 0.37139 0.66011 0.75626 0.0
H1965 H 0.28298 0.5548 0.77804 0.0
H1966 H 0.31344 0.57703 0.77618 0.0
C1967 C 0.38803 0.67129 0.74279 0.0
C1968 C 0.3554 0.63709 0.80205 0.0
H1969 H 0.34274 0.58728 0.82211 0.0
C1970 C 0.33543 0.64544 0.80197 0.0
C1971 C 0.35811 0.61583 0.80947 0.0
C1972 C 0.37903 0.60562 0.80806 0.0
C1973 C 0.31801 0.63303 0.80757 0.0
C1974 C 0.3207 0.61178 0.81506 0.0
C1975 C 0.34073 0.60358 0.81654 0.0
C1976 C 0.30293 0.59751 0.81853 0.0
C1977 C 0.29692 0.64265 0.80331 0.0
C1978 C 0.28717 0.60128 0.84361 0.0
C1979 C 0.26955 0.58888 0.84411 0.0
C1980 C 0.26769 0.57213 0.82028 0.0
C1981 C 0.284 0.56763 0.79667 0.0
C1982 C 0.30142 0.58031 0.79564 0.0
H1983 H 0.29763 0.65742 0.78815 0.0
H1984 H 0.2862 0.6321 0.78897 0.0
H1985 H 0.29043 0.64601 0.83035 0.0
H1986 H 0.2883 0.61403 0.86236 0.0
H1987 H 0.25734 0.59248 0.86302 0.0
H1988 H 0.81701 0.38466 0.21957 0.0
H1989 H 0.83776 0.35639 0.24233 0.0
H1990 H 0.85442 0.39261 0.33549 0.0
H1991 H 0.8341 0.42156 0.31206 0.0
H1992 H 0.88752 0.37544 0.30678 0.0
H1993 H 0.82817 0.31515 0.31989 0.0
H1994 H 0.82738 0.32569 0.27528 0.0
H1995 H 0.82158 0.34193 0.31346 0.0
C1996 C 0.82475 0.3866 0.24523 0.0
C1997 C 0.82384 0.40541 0.26402 0.0
C1998 C 0.83654 0.37029 0.25837 0.0
C1999 C 0.84733 0.3722 0.29098 0.0
C2000 C 0.84609 0.39076 0.31037 0.0
H2001 H 0.90859 0.2578 0.35241 0.0
H2002 H 0.88789 0.28915 0.35659 0.0
C2003 C 0.83443 0.40725 0.297 0.0
C2004 C 0.86114 0.35529 0.30287 0.0
H2005 H 0.86318 0.30299 0.3101 0.0
C2006 C 0.88215 0.35962 0.30828 0.0
C2007 C 0.85412 0.33471 0.30567 0.0
C2008 C 0.83153 0.32917 0.30367 0.0
C2009 C 0.89651 0.34376 0.31417 0.0
C2010 C 0.88974 0.323 0.31333 0.0
C2011 C 0.86854 0.31883 0.31011 0.0
C2012 C 0.90423 0.30526 0.31413 0.0
C2013 C 0.91872 0.34949 0.32112 0.0
C2014 C 0.92062 0.30394 0.28935 0.0
C2015 C 0.93282 0.28618 0.28757 0.0
C2016 C 0.92837 0.26921 0.30971 0.0
C2017 C 0.91222 0.27064 0.33483 0.0
C2018 C 0.9004 0.28855 0.33725 0.0
H2019 H 0.91985 0.36481 0.33438 0.0
H2020 H 0.92657 0.33791 0.3384 0.0
H2021 H 0.92703 0.35053 0.29502 0.0
H2022 H 0.92351 0.3163 0.2704 0.0
H2023 H 0.94507 0.28535 0.26776 0.0
H2024 H 0.10745 0.81126 0.74014 0.0
H2025 H 0.13641 0.83313 0.75739 0.0
H2026 H 0.09581 0.87085 0.82157 0.0
H2027 H 0.06656 0.84898 0.80456 0.0
H2028 H 0.13498 0.87686 0.73983 0.0
H2029 H 0.14869 0.86136 0.88565 0.0
H2030 H 0.13585 0.84304 0.85656 0.0
H2031 H 0.1225 0.86573 0.87127 0.0
C2032 C 0.10468 0.82392 0.75856 0.0
C2033 C 0.08463 0.82848 0.7707 0.0
C2034 C 0.12126 0.83641 0.76834 0.0
C2035 C 0.11819 0.85358 0.79063 0.0
C2036 C 0.09848 0.85753 0.80458 0.0
H2037 H 0.20777 0.95536 0.79357 0.0
H2038 H 0.17499 0.93646 0.79309 0.0
C2039 C 0.0818 0.84502 0.79479 0.0
C2040 C 0.13524 0.86838 0.79595 0.0
H2041 H 0.16975 0.88643 0.85784 0.0
C2042 C 0.14251 0.87912 0.76567 0.0
C2043 C 0.14491 0.87119 0.8297 0.0
C2044 C 0.13775 0.85969 0.86275 0.0
C2045 C 0.15961 0.89227 0.76803 0.0
C2046 C 0.1695 0.8949 0.80169 0.0
C2047 C 0.16197 0.88448 0.83217 0.0
C2048 C 0.18882 0.90685 0.80485 0.0
C2049 C 0.16749 0.90258 0.73423 0.0
C2050 C 0.20728 0.89649 0.8124 0.0
C2051 C 0.22595 0.90716 0.81263 0.0
C2052 C 0.22653 0.92847 0.80548 0.0
C2053 C 0.20788 0.93895 0.79894 0.0
C2054 C 0.18916 0.92819 0.79863 0.0
H2055 H 0.16022 0.89619 0.70949 0.0
H2056 H 0.164 0.91932 0.73544 0.0
H2057 H 0.18448 0.9008 0.732 0.0
H2058 H 0.2073 0.88001 0.81722 0.0
H2059 H 0.23996 0.8986 0.81804 0.0
H2060 H 0.70275 0.10358 0.27201 0.0
H2061 H 0.68683 0.13552 0.29314 0.0
H2062 H 0.62861 0.10386 0.30493 0.0
H2063 H 0.64479 0.0717 0.28576 0.0
H2064 H 0.65948 0.15424 0.25634 0.0
H2065 H 0.62532 0.14034 0.39026 0.0
H2066 H 0.64391 0.12293 0.37061 0.0
H2067 H 0.61691 0.12088 0.3593 0.0
C2068 C 0.68673 0.10333 0.28036 0.0
C2069 C 0.67495 0.08524 0.27722 0.0
C2070 C 0.67763 0.12158 0.29235 0.0
C2071 C 0.65652 0.12215 0.30079 0.0
C2072 C 0.64503 0.10378 0.29956 0.0
H2073 H 0.57446 0.22068 0.24857 0.0
H2074 H 0.59687 0.19049 0.25119 0.0
C2075 C 0.65426 0.08539 0.28837 0.0
C2076 C 0.64593 0.14228 0.30523 0.0
H2077 H 0.60935 0.16748 0.35459 0.0
C2078 C 0.64883 0.15724 0.27828 0.0
C2079 C 0.63219 0.14643 0.33397 0.0
C2080 C 0.6296 0.13185 0.36534 0.0
C2081 C 0.63776 0.17577 0.27841 0.0
C2082 C 0.62277 0.17913 0.30546 0.0
C2083 C 0.62055 0.16469 0.33342 0.0
C2084 C 0.60883 0.19722 0.30446 0.0
C2085 C 0.64228 0.1915 0.24945 0.0
C2086 C 0.60748 0.21058 0.3341 0.0
C2087 C 0.59437 0.22767 0.33294 0.0
C2088 C 0.58245 0.23172 0.30202 0.0
C2089 C 0.58366 0.21816 0.27256 0.0
C2090 C 0.59655 0.20095 0.27395 0.0
H2091 H 0.6583 0.18992 0.23917 0.0
H2092 H 0.63165 0.18901 0.22639 0.0
H2093 H 0.64015 0.20748 0.25955 0.0
H2094 H 0.61672 0.20791 0.358 0.0
H2095 H 0.59375 0.23782 0.35611 0.0
loop_
_geom_bond_atom_site_label_1
_geom_bond_atom_site_label_2
_geom_bond_distance
_geom_bond_site_symmetry_2
_ccdc_geom_bond_type
O0 Zn1 1.953 . S
O0 C16 1.225 . S
Zn1 O0 1.953 . S
Zn1 O2 1.949 . S
Zn1 O8 1.919 . S
Zn1 O13 1.924 . S
O2 Zn1 1.949 . S
O2 Zn3 1.923 . S
O2 Zn4 1.950 . S
O2 Zn5 1.945 . S
Zn3 O2 1.923 . S
Zn3 O6 1.933 . S
Zn3 O9 1.941 . S
Zn3 O10 1.965 . S
Zn4 O2 1.950 . S
Zn4 O11 1.938 . S
Zn4 O12 1.906 . S
Zn4 O22 1.953 . S
Zn5 O2 1.945 . S
Zn5 O7 1.932 . S
Zn5 O14 1.977 . S
Zn5 O15 1.910 . S
O6 Zn3 1.933 . S
O6 C17 1.226 . S
O7 Zn5 1.932 . S
O7 C17 1.307 . S
O8 Zn1 1.919 . S
O8 C19 1.253 . S
O9 Zn3 1.941 . S
O9 C19 1.283 . S
O10 Zn3 1.965 . S
O10 C18 1.303 . S
O11 Zn4 1.938 . S
O11 C18 1.247 . S
O12 Zn4 1.906 . S
O12 C20 1.304 . S
O13 Zn1 1.924 . S
O13 C21 1.311 . S
O14 Zn5 1.977 . S
O14 C20 1.272 . S
O15 Zn5 1.910 . S
O15 C21 1.231 . S
C16 O0 1.225 . S
C16 O22 1.298 . S
C17 O6 1.226 . S
C17 O7 1.307 . S
C18 O10 1.303 . S
C18 O11 1.247 . S
C19 O8 1.253 . S
C19 O9 1.283 . S
C20 O12 1.304 . S
C20 O14 1.272 . S
C21 O13 1.311 . S
C21 O15 1.231 . S
O22 Zn4 1.953 . S
O22 C16 1.298 . S
O23 Zn24 1.953 . S
O23 C39 1.225 . S
Zn24 O23 1.953 . S
Zn24 O25 1.949 . S
Zn24 O31 1.919 . S
Zn24 O36 1.924 . S
O25 Zn24 1.949 . S
O25 Zn26 1.923 . S
O25 Zn27 1.950 . S
O25 Zn28 1.945 . S
Zn26 O25 1.923 . S
Zn26 O29 1.933 . S
Zn26 O32 1.941 . S
Zn26 O33 1.965 . S
Zn27 O25 1.950 . S
Zn27 O34 1.938 . S
Zn27 O35 1.906 1_655 S
Zn27 O45 1.953 . S
Zn28 O25 1.945 . S
Zn28 O30 1.932 . S
Zn28 O37 1.977 . S
Zn28 O38 1.910 . S
O29 Zn26 1.933 . S
O29 C40 1.226 . S
O30 Zn28 1.932 . S
O30 C40 1.307 . S
O31 Zn24 1.919 . S
O31 C42 1.253 . S
O32 Zn26 1.941 . S
O32 C42 1.283 . S
O33 Zn26 1.965 . S
O33 C41 1.303 . S
O34 Zn27 1.938 . S
O34 C41 1.247 . S
O35 Zn27 1.906 1_455 S
O35 C43 1.304 . S
O36 Zn24 1.924 . S
O36 C44 1.311 . S
O37 Zn28 1.977 . S
O37 C43 1.272 1_655 S
O38 Zn28 1.910 . S
O38 C44 1.231 . S
C39 O23 1.225 . S
C39 O45 1.298 . S
C40 O29 1.226 . S
C40 O30 1.307 . S
C41 O33 1.303 . S
C41 O34 1.247 . S
C42 O31 1.253 . S
C42 O32 1.283 . S
C43 O35 1.304 . S
C43 O37 1.272 1_455 S
C44 O36 1.311 . S
C44 O38 1.231 . S
O45 Zn27 1.953 . S
O45 C39 1.298 . S
O46 Zn47 1.953 . S
O46 C62 1.225 . S
Zn47 O46 1.953 . S
Zn47 O48 1.949 . S
Zn47 O54 1.919 . S
Zn47 O59 1.924 . S
O48 Zn47 1.949 . S
O48 Zn49 1.923 . S
O48 Zn50 1.950 . S
O48 Zn51 1.945 . S
Zn49 O48 1.923 . S
Zn49 O52 1.933 . S
Zn49 O55 1.941 . S
Zn49 O56 1.965 . S
Zn50 O48 1.950 . S
Zn50 O57 1.938 . S
Zn50 O58 1.906 1_565 S
Zn50 O68 1.953 . S
Zn51 O48 1.945 . S
Zn51 O53 1.932 . S
Zn51 O60 1.977 . S
Zn51 O61 1.910 . S
O52 Zn49 1.933 . S
O52 C63 1.226 . S
O53 Zn51 1.932 . S
O53 C63 1.307 . S
O54 Zn47 1.919 . S
O54 C65 1.253 . S
O55 Zn49 1.941 . S
O55 C65 1.283 . S
O56 Zn49 1.965 . S
O56 C64 1.303 . S
O57 Zn50 1.938 . S
O57 C64 1.247 . S
O58 Zn50 1.906 1_545 S
O58 C66 1.304 . S
O59 Zn47 1.924 . S
O59 C67 1.311 . S
O60 Zn51 1.977 . S
O60 C66 1.272 1_565 S
O61 Zn51 1.910 . S
O61 C67 1.231 . S
C62 O46 1.225 . S
C62 O68 1.298 . S
C63 O52 1.226 . S
C63 O53 1.307 . S
C64 O56 1.303 . S
C64 O57 1.247 . S
C65 O54 1.253 . S
C65 O55 1.283 . S
C66 O58 1.304 . S
C66 O60 1.272 1_545 S
C67 O59 1.311 . S
C67 O61 1.231 . S
O68 Zn50 1.953 . S
O68 C62 1.298 . S
O69 Zn70 1.953 . S
O69 C85 1.225 . S
Zn70 O69 1.953 . S
Zn70 O71 1.949 . S
Zn70 O77 1.919 . S
Zn70 O82 1.924 . S
O71 Zn70 1.949 . S
O71 Zn72 1.923 . S
O71 Zn73 1.950 . S
O71 Zn74 1.945 . S
Zn72 O71 1.923 . S
Zn72 O75 1.933 . S
Zn72 O78 1.941 . S
Zn72 O79 1.965 . S
Zn73 O71 1.950 . S
Zn73 O80 1.938 . S
Zn73 O81 1.906 . S
Zn73 O91 1.953 . S
Zn74 O71 1.945 . S
Zn74 O76 1.932 . S
Zn74 O83 1.977 . S
Zn74 O84 1.910 . S
O75 Zn72 1.933 . S
O75 C86 1.226 . S
O76 Zn74 1.932 . S
O76 C86 1.307 . S
O77 Zn70 1.919 . S
O77 C88 1.253 . S
O78 Zn72 1.941 . S
O78 C88 1.283 . S
O79 Zn72 1.965 . S
O79 C87 1.303 . S
O80 Zn73 1.938 . S
O80 C87 1.247 . S
O81 Zn73 1.906 . S
O81 C89 1.304 . S
O82 Zn70 1.924 . S
O82 C90 1.311 . S
O83 Zn74 1.977 . S
O83 C89 1.272 . S
O84 Zn74 1.910 . S
O84 C90 1.231 . S
C85 O69 1.225 . S
C85 O91 1.298 . S
C86 O75 1.226 . S
C86 O76 1.307 . S
C87 O79 1.303 . S
C87 O80 1.247 . S
C88 O77 1.253 . S
C88 O78 1.283 . S
C89 O81 1.304 . S
C89 O83 1.272 . S
C90 O82 1.311 . S
C90 O84 1.231 . S
O91 Zn73 1.953 . S
O91 C85 1.298 . S
O92 Zn93 1.953 . S
O92 C108 1.225 . S
Zn93 O92 1.953 . S
Zn93 O94 1.949 . S
Zn93 O100 1.919 . S
Zn93 O105 1.924 . S
O94 Zn93 1.949 . S
O94 Zn95 1.923 . S
O94 Zn96 1.950 . S
O94 Zn97 1.945 . S
Zn95 O94 1.923 . S
Zn95 O98 1.933 . S
Zn95 O101 1.941 . S
Zn95 O102 1.965 . S
Zn96 O94 1.950 . S
Zn96 O103 1.938 . S
Zn96 O104 1.906 . S
Zn96 O114 1.953 . S
Zn97 O94 1.945 . S
Zn97 O99 1.932 . S
Zn97 O106 1.977 . S
Zn97 O107 1.910 . S
O98 Zn95 1.933 . S
O98 C109 1.226 . S
O99 Zn97 1.932 . S
O99 C109 1.307 . S
O100 Zn93 1.919 . S
O100 C111 1.253 . S
O101 Zn95 1.941 . S
O101 C111 1.283 . S
O102 Zn95 1.965 . S
O102 C110 1.303 . S
O103 Zn96 1.938 . S
O103 C110 1.247 . S
O104 Zn96 1.906 . S
O104 C112 1.304 . S
O105 Zn93 1.924 . S
O105 C113 1.311 . S
O106 Zn97 1.977 . S
O106 C112 1.272 . S
O107 Zn97 1.910 . S
O107 C113 1.231 . S
C108 O92 1.225 . S
C108 O114 1.298 . S
C109 O98 1.226 . S
C109 O99 1.307 . S
C110 O102 1.303 . S
C110 O103 1.247 . S
C111 O100 1.253 . S
C111 O101 1.283 . S
C112 O104 1.304 . S
C112 O106 1.272 . S
C113 O105 1.311 . S
C113 O107 1.231 . S
O114 Zn96 1.953 . S
O114 C108 1.298 . S
O115 Zn116 1.953 . S
O115 C131 1.225 . S
Zn116 O115 1.953 . S
Zn116 O117 1.949 . S
Zn116 O123 1.919 . S
Zn116 O128 1.924 . S
O117 Zn116 1.949 . S
O117 Zn118 1.923 . S
O117 Zn119 1.950 . S
O117 Zn120 1.945 . S
Zn118 O117 1.923 . S
Zn118 O121 1.933 . S
Zn118 O124 1.941 . S
Zn118 O125 1.965 . S
Zn119 O117 1.950 . S
Zn119 O126 1.938 . S
Zn119 O127 1.906 1_455 S
Zn119 O137 1.953 . S
Zn120 O117 1.945 . S
Zn120 O122 1.932 . S
Zn120 O129 1.977 . S
Zn120 O130 1.910 . S
O121 Zn118 1.933 . S
O121 C132 1.226 . S
O122 Zn120 1.932 . S
O122 C132 1.307 . S
O123 Zn116 1.919 . S
O123 C134 1.253 . S
O124 Zn118 1.941 . S
O124 C134 1.283 . S
O125 Zn118 1.965 . S
O125 C133 1.303 . S
O126 Zn119 1.938 . S
O126 C133 1.247 . S
O127 Zn119 1.906 1_655 S
O127 C135 1.304 . S
O128 Zn116 1.924 . S
O128 C136 1.311 . S
O129 Zn120 1.977 . S
O129 C135 1.272 1_455 S
O130 Zn120 1.910 . S
O130 C136 1.231 . S
C131 O115 1.225 . S
C131 O137 1.298 . S
C132 O121 1.226 . S
C132 O122 1.307 . S
C133 O125 1.303 . S
C133 O126 1.247 . S
C134 O123 1.253 . S
C134 O124 1.283 . S
C135 O127 1.304 . S
C135 O129 1.272 1_655 S
C136 O128 1.311 . S
C136 O130 1.231 . S
O137 Zn119 1.953 . S
O137 C131 1.298 . S
O138 Zn139 1.953 . S
O138 C154 1.225 . S
Zn139 O138 1.953 . S
Zn139 O140 1.949 . S
Zn139 O146 1.919 . S
Zn139 O151 1.924 . S
O140 Zn139 1.949 . S
O140 Zn141 1.923 . S
O140 Zn142 1.950 . S
O140 Zn143 1.945 . S
Zn141 O140 1.923 . S
Zn141 O144 1.933 . S
Zn141 O147 1.941 . S
Zn141 O148 1.965 . S
Zn142 O140 1.950 . S
Zn142 O149 1.938 . S
Zn142 O150 1.906 1_545 S
Zn142 O160 1.953 . S
Zn143 O140 1.945 . S
Zn143 O145 1.932 . S
Zn143 O152 1.977 . S
Zn143 O153 1.910 . S
O144 Zn141 1.933 . S
O144 C155 1.226 . S
O145 Zn143 1.932 . S
O145 C155 1.307 . S
O146 Zn139 1.919 . S
O146 C157 1.253 . S
O147 Zn141 1.941 . S
O147 C157 1.283 . S
O148 Zn141 1.965 . S
O148 C156 1.303 . S
O149 Zn142 1.938 . S
O149 C156 1.247 . S
O150 Zn142 1.906 1_565 S
O150 C158 1.304 . S
O151 Zn139 1.924 . S
O151 C159 1.311 . S
O152 Zn143 1.977 . S
O152 C158 1.272 1_545 S
O153 Zn143 1.910 . S
O153 C159 1.231 . S
C154 O138 1.225 . S
C154 O160 1.298 . S
C155 O144 1.226 . S
C155 O145 1.307 . S
C156 O148 1.303 . S
C156 O149 1.247 . S
C157 O146 1.253 . S
C157 O147 1.283 . S
C158 O150 1.304 . S
C158 O152 1.272 1_565 S
C159 O151 1.311 . S
C159 O153 1.231 . S
O160 Zn142 1.953 . S
O160 C154 1.298 . S
O161 Zn162 1.953 . S
O161 C177 1.225 . S
Zn162 O161 1.953 . S
Zn162 O163 1.949 . S
Zn162 O169 1.919 . S
Zn162 O174 1.924 . S
O163 Zn162 1.949 . S
O163 Zn164 1.923 . S
O163 Zn165 1.950 . S
O163 Zn166 1.945 . S
Zn164 O163 1.923 . S
Zn164 O167 1.933 . S
Zn164 O170 1.941 . S
Zn164 O171 1.965 . S
Zn165 O163 1.950 . S
Zn165 O172 1.938 . S
Zn165 O173 1.906 . S
Zn165 O183 1.953 . S
Zn166 O163 1.945 . S
Zn166 O168 1.932 . S
Zn166 O175 1.977 . S
Zn166 O176 1.910 . S
O167 Zn164 1.933 . S
O167 C178 1.226 . S
O168 Zn166 1.932 . S
O168 C178 1.307 . S
O169 Zn162 1.919 . S
O169 C180 1.253 . S
O170 Zn164 1.941 . S
O170 C180 1.283 . S
O171 Zn164 1.965 . S
O171 C179 1.303 . S
O172 Zn165 1.938 . S
O172 C179 1.247 . S
O173 Zn165 1.906 . S
O173 C181 1.304 . S
O174 Zn162 1.924 . S
O174 C182 1.311 . S
O175 Zn166 1.977 . S
O175 C181 1.272 . S
O176 Zn166 1.910 . S
O176 C182 1.231 . S
C177 O161 1.225 . S
C177 O183 1.298 . S
C178 O167 1.226 . S
C178 O168 1.307 . S
C179 O171 1.303 . S
C179 O172 1.247 . S
C180 O169 1.253 . S
C180 O170 1.283 . S
C181 O173 1.304 . S
C181 O175 1.272 . S
C182 O174 1.311 . S
C182 O176 1.231 . S
O183 Zn165 1.953 . S
O183 C177 1.298 . S
O184 Zn185 1.953 . S
O184 C200 1.225 . S
Zn185 O184 1.953 . S
Zn185 O186 1.949 . S
Zn185 O192 1.919 . S
Zn185 O197 1.924 . S
O186 Zn185 1.949 . S
O186 Zn187 1.923 . S
O186 Zn188 1.950 . S
O186 Zn189 1.945 . S
Zn187 O186 1.923 . S
Zn187 O190 1.933 . S
Zn187 O193 1.941 . S
Zn187 O194 1.965 . S
Zn188 O186 1.950 . S
Zn188 O195 1.938 . S
Zn188 O196 1.906 . S
Zn188 O206 1.953 . S
Zn189 O186 1.945 . S
Zn189 O191 1.932 . S
Zn189 O198 1.977 . S
Zn189 O199 1.910 . S
O190 Zn187 1.933 . S
O190 C201 1.226 . S
O191 Zn189 1.932 . S
O191 C201 1.307 . S
O192 Zn185 1.919 . S
O192 C203 1.253 . S
O193 Zn187 1.941 . S
O193 C203 1.283 . S
O194 Zn187 1.965 . S
O194 C202 1.303 . S
O195 Zn188 1.938 . S
O195 C202 1.247 . S
O196 Zn188 1.906 . S
O196 C204 1.304 . S
O197 Zn185 1.924 . S
O197 C205 1.311 . S
O198 Zn189 1.977 . S
O198 C204 1.272 . S
O199 Zn189 1.910 . S
O199 C205 1.231 . S
C200 O184 1.225 . S
C200 O206 1.298 . S
C201 O190 1.226 . S
C201 O191 1.307 . S
C202 O194 1.303 . S
C202 O195 1.247 . S
C203 O192 1.253 . S
C203 O193 1.283 . S
C204 O196 1.304 . S
C204 O198 1.272 . S
C205 O197 1.311 . S
C205 O199 1.231 . S
O206 Zn188 1.953 . S
O206 C200 1.298 . S
O207 Zn208 1.953 . S
O207 C223 1.225 . S
Zn208 O207 1.953 . S
Zn208 O209 1.949 . S
Zn208 O215 1.919 . S
Zn208 O220 1.924 . S
O209 Zn208 1.949 . S
O209 Zn210 1.923 . S
O209 Zn211 1.950 . S
O209 Zn212 1.945 . S
Zn210 O209 1.923 . S
Zn210 O213 1.933 . S
Zn210 O216 1.941 . S
Zn210 O217 1.965 . S
Zn211 O209 1.950 . S
Zn211 O218 1.938 . S
Zn211 O219 1.906 1_455 S
Zn211 O229 1.953 . S
Zn212 O209 1.945 . S
Zn212 O214 1.932 . S
Zn212 O221 1.977 . S
Zn212 O222 1.910 . S
O213 Zn210 1.933 . S
O213 C224 1.226 . S
O214 Zn212 1.932 . S
O214 C224 1.307 . S
O215 Zn208 1.919 . S
O215 C226 1.253 . S
O216 Zn210 1.941 . S
O216 C226 1.283 . S
O217 Zn210 1.965 . S
O217 C225 1.303 . S
O218 Zn211 1.938 . S
O218 C225 1.247 . S
O219 Zn211 1.906 1_655 S
O219 C227 1.304 . S
O220 Zn208 1.924 . S
O220 C228 1.311 . S
O221 Zn212 1.977 . S
O221 C227 1.272 1_455 S
O222 Zn212 1.910 . S
O222 C228 1.231 . S
C223 O207 1.225 . S
C223 O229 1.298 . S
C224 O213 1.226 . S
C224 O214 1.307 . S
C225 O217 1.303 . S
C225 O218 1.247 . S
C226 O215 1.253 . S
C226 O216 1.283 . S
C227 O219 1.304 . S
C227 O221 1.272 1_655 S
C228 O220 1.311 . S
C228 O222 1.231 . S
O229 Zn211 1.953 . S
O229 C223 1.298 . S
O230 Zn231 1.953 . S
O230 C246 1.225 . S
Zn231 O230 1.953 . S
Zn231 O232 1.949 . S
Zn231 O238 1.919 . S
Zn231 O243 1.924 . S
O232 Zn231 1.949 . S
O232 Zn233 1.923 . S
O232 Zn234 1.950 . S
O232 Zn235 1.945 . S
Zn233 O232 1.923 . S
Zn233 O236 1.933 . S
Zn233 O239 1.941 . S
Zn233 O240 1.965 . S
Zn234 O232 1.950 . S
Zn234 O241 1.938 . S
Zn234 O242 1.906 1_545 S
Zn234 O252 1.953 . S
Zn235 O232 1.945 . S
Zn235 O237 1.932 . S
Zn235 O244 1.977 . S
Zn235 O245 1.910 . S
O236 Zn233 1.933 . S
O236 C247 1.226 . S
O237 Zn235 1.932 . S
O237 C247 1.307 . S
O238 Zn231 1.919 . S
O238 C249 1.253 . S
O239 Zn233 1.941 . S
O239 C249 1.283 . S
O240 Zn233 1.965 . S
O240 C248 1.303 . S
O241 Zn234 1.938 . S
O241 C248 1.247 . S
O242 Zn234 1.906 1_565 S
O242 C250 1.304 . S
O243 Zn231 1.924 . S
O243 C251 1.311 . S
O244 Zn235 1.977 . S
O244 C250 1.272 1_545 S
O245 Zn235 1.910 . S
O245 C251 1.231 . S
C246 O230 1.225 . S
C246 O252 1.298 . S
C247 O236 1.226 . S
C247 O237 1.307 . S
C248 O240 1.303 . S
C248 O241 1.247 . S
C249 O238 1.253 . S
C249 O239 1.283 . S
C250 O242 1.304 . S
C250 O244 1.272 1_565 S
C251 O243 1.311 . S
C251 O245 1.231 . S
O252 Zn234 1.953 . S
O252 C246 1.298 . S
O253 Zn254 1.953 . S
O253 C269 1.225 . S
Zn254 O253 1.953 . S
Zn254 O255 1.949 . S
Zn254 O261 1.919 . S
Zn254 O266 1.924 . S
O255 Zn254 1.949 . S
O255 Zn256 1.923 . S
O255 Zn257 1.950 . S
O255 Zn258 1.945 . S
Zn256 O255 1.923 . S
Zn256 O259 1.933 . S
Zn256 O262 1.941 . S
Zn256 O263 1.965 . S
Zn257 O255 1.950 . S
Zn257 O264 1.938 . S
Zn257 O265 1.906 . S
Zn257 O275 1.953 . S
Zn258 O255 1.945 . S
Zn258 O260 1.932 . S
Zn258 O267 1.977 . S
Zn258 O268 1.910 . S
O259 Zn256 1.933 . S
O259 C270 1.226 . S
O260 Zn258 1.932 . S
O260 C270 1.307 . S
O261 Zn254 1.919 . S
O261 C272 1.253 . S
O262 Zn256 1.941 . S
O262 C272 1.283 . S
O263 Zn256 1.965 . S
O263 C271 1.303 . S
O264 Zn257 1.938 . S
O264 C271 1.247 . S
O265 Zn257 1.906 . S
O265 C273 1.304 . S
O266 Zn254 1.924 . S
O266 C274 1.311 . S
O267 Zn258 1.977 . S
O267 C273 1.272 . S
O268 Zn258 1.910 . S
O268 C274 1.231 . S
C269 O253 1.225 . S
C269 O275 1.298 . S
C270 O259 1.226 . S
C270 O260 1.307 . S
C271 O263 1.303 . S
C271 O264 1.247 . S
C272 O261 1.253 . S
C272 O262 1.283 . S
C273 O265 1.304 . S
C273 O267 1.272 . S
C274 O266 1.311 . S
C274 O268 1.231 . S
O275 Zn257 1.953 . S
O275 C269 1.298 . S
O276 Zn277 1.953 . S
O276 C292 1.225 . S
Zn277 O276 1.953 . S
Zn277 O278 1.949 . S
Zn277 O284 1.919 . S
Zn277 O289 1.924 . S
O278 Zn277 1.949 . S
O278 Zn279 1.923 . S
O278 Zn280 1.950 . S
O278 Zn281 1.945 . S
Zn279 O278 1.923 . S
Zn279 O282 1.933 . S
Zn279 O285 1.941 . S
Zn279 O286 1.965 . S
Zn280 O278 1.950 . S
Zn280 O287 1.938 . S
Zn280 O288 1.906 . S
Zn280 O298 1.953 . S
Zn281 O278 1.945 . S
Zn281 O283 1.932 . S
Zn281 O290 1.977 . S
Zn281 O291 1.910 . S
O282 Zn279 1.933 . S
O282 C293 1.226 . S
O283 Zn281 1.932 . S
O283 C293 1.307 . S
O284 Zn277 1.919 . S
O284 C295 1.253 . S
O285 Zn279 1.941 . S
O285 C295 1.283 . S
O286 Zn279 1.965 . S
O286 C294 1.303 . S
O287 Zn280 1.938 . S
O287 C294 1.247 . S
O288 Zn280 1.906 . S
O288 C296 1.304 . S
O289 Zn277 1.924 . S
O289 C297 1.311 . S
O290 Zn281 1.977 . S
O290 C296 1.272 . S
O291 Zn281 1.910 . S
O291 C297 1.231 . S
C292 O276 1.225 . S
C292 O298 1.298 . S
C293 O282 1.226 . S
C293 O283 1.307 . S
C294 O286 1.303 . S
C294 O287 1.247 . S
C295 O284 1.253 . S
C295 O285 1.283 . S
C296 O288 1.304 . S
C296 O290 1.272 . S
C297 O289 1.311 . S
C297 O291 1.231 . S
O298 Zn280 1.953 . S
O298 C292 1.298 . S
O299 Zn300 1.953 . S
O299 C315 1.225 . S
Zn300 O299 1.953 . S
Zn300 O301 1.949 . S
Zn300 O307 1.919 . S
Zn300 O312 1.924 . S
O301 Zn300 1.949 . S
O301 Zn302 1.923 . S
O301 Zn303 1.950 . S
O301 Zn304 1.945 . S
Zn302 O301 1.923 . S
Zn302 O305 1.933 . S
Zn302 O308 1.941 . S
Zn302 O309 1.965 . S
Zn303 O301 1.950 . S
Zn303 O310 1.938 . S
Zn303 O311 1.906 1_655 S
Zn303 O321 1.953 . S
Zn304 O301 1.945 . S
Zn304 O306 1.932 . S
Zn304 O313 1.977 . S
Zn304 O314 1.910 . S
O305 Zn302 1.933 . S
O305 C316 1.226 . S
O306 Zn304 1.932 . S
O306 C316 1.307 . S
O307 Zn300 1.919 . S
O307 C318 1.253 . S
O308 Zn302 1.941 . S
O308 C318 1.283 . S
O309 Zn302 1.965 . S
O309 C317 1.303 . S
O310 Zn303 1.938 . S
O310 C317 1.247 . S
O311 Zn303 1.906 1_455 S
O311 C319 1.304 . S
O312 Zn300 1.924 . S
O312 C320 1.311 . S
O313 Zn304 1.977 . S
O313 C319 1.272 1_655 S
O314 Zn304 1.910 . S
O314 C320 1.231 . S
C315 O299 1.225 . S
C315 O321 1.298 . S
C316 O305 1.226 . S
C316 O306 1.307 . S
C317 O309 1.303 . S
C317 O310 1.247 . S
C318 O307 1.253 . S
C318 O308 1.283 . S
C319 O311 1.304 . S
C319 O313 1.272 1_455 S
C320 O312 1.311 . S
C320 O314 1.231 . S
O321 Zn303 1.953 . S
O321 C315 1.298 . S
O322 Zn323 1.953 . S
O322 C338 1.225 . S
Zn323 O322 1.953 . S
Zn323 O324 1.949 . S
Zn323 O330 1.919 . S
Zn323 O335 1.924 . S
O324 Zn323 1.949 . S
O324 Zn325 1.923 . S
O324 Zn326 1.950 . S
O324 Zn327 1.945 . S
Zn325 O324 1.923 . S
Zn325 O328 1.933 . S
Zn325 O331 1.941 . S
Zn325 O332 1.965 . S
Zn326 O324 1.950 . S
Zn326 O333 1.938 . S
Zn326 O334 1.906 1_565 S
Zn326 O344 1.953 . S
Zn327 O324 1.945 . S
Zn327 O329 1.932 . S
Zn327 O336 1.977 . S
Zn327 O337 1.910 . S
O328 Zn325 1.933 . S
O328 C339 1.226 . S
O329 Zn327 1.932 . S
O329 C339 1.307 . S
O330 Zn323 1.919 . S
O330 C341 1.253 . S
O331 Zn325 1.941 . S
O331 C341 1.283 . S
O332 Zn325 1.965 . S
O332 C340 1.303 . S
O333 Zn326 1.938 . S
O333 C340 1.247 . S
O334 Zn326 1.906 1_545 S
O334 C342 1.304 . S
O335 Zn323 1.924 . S
O335 C343 1.311 . S
O336 Zn327 1.977 . S
O336 C342 1.272 1_565 S
O337 Zn327 1.910 . S
O337 C343 1.231 . S
C338 O322 1.225 . S
C338 O344 1.298 . S
C339 O328 1.226 . S
C339 O329 1.307 . S
C340 O332 1.303 . S
C340 O333 1.247 . S
C341 O330 1.253 . S
C341 O331 1.283 . S
C342 O334 1.304 . S
C342 O336 1.272 1_545 S
C343 O335 1.311 . S
C343 O337 1.231 . S
O344 Zn326 1.953 . S
O344 C338 1.298 . S
O345 Zn346 1.953 . S
O345 C361 1.225 . S
Zn346 O345 1.953 . S
Zn346 O347 1.949 . S
Zn346 O353 1.919 . S
Zn346 O358 1.924 . S
O347 Zn346 1.949 . S
O347 Zn348 1.923 . S
O347 Zn349 1.950 . S
O347 Zn350 1.945 . S
Zn348 O347 1.923 . S
Zn348 O351 1.933 . S
Zn348 O354 1.941 . S
Zn348 O355 1.965 . S
Zn349 O347 1.950 . S
Zn349 O356 1.938 . S
Zn349 O357 1.906 . S
Zn349 O367 1.953 . S
Zn350 O347 1.945 . S
Zn350 O352 1.932 . S
Zn350 O359 1.977 . S
Zn350 O360 1.910 . S
O351 Zn348 1.933 . S
O351 C362 1.226 . S
O352 Zn350 1.932 . S
O352 C362 1.307 . S
O353 Zn346 1.919 . S
O353 C364 1.253 . S
O354 Zn348 1.941 . S
O354 C364 1.283 . S
O355 Zn348 1.965 . S
O355 C363 1.303 . S
O356 Zn349 1.938 . S
O356 C363 1.247 . S
O357 Zn349 1.906 . S
O357 C365 1.304 . S
O358 Zn346 1.924 . S
O358 C366 1.311 . S
O359 Zn350 1.977 . S
O359 C365 1.272 . S
O360 Zn350 1.910 . S
O360 C366 1.231 . S
C361 O345 1.225 . S
C361 O367 1.298 . S
C362 O351 1.226 . S
C362 O352 1.307 . S
C363 O355 1.303 . S
C363 O356 1.247 . S
C364 O353 1.253 . S
C364 O354 1.283 . S
C365 O357 1.304 . S
C365 O359 1.272 . S
C366 O358 1.311 . S
C366 O360 1.231 . S
O367 Zn349 1.953 . S
O367 C361 1.298 . S
H368 C376 0.929 . S
H369 C378 0.930 . S
H370 C380 0.930 . S
H371 C383 0.929 . S
H372 C386 0.930 . S
H373 C388 0.960 . S
H374 C388 0.960 . S
H375 C388 0.960 . S
C376 H368 0.929 . S
C376 C377 1.377 . S
C376 C378 1.384 . S
C377 C376 1.377 . S
C377 C383 1.390 . S
C378 H369 0.930 . S
C378 C376 1.384 . S
C378 C379 1.372 . S
C379 C378 1.372 . S
C379 C380 1.400 . S
C379 C384 1.490 . S
C380 H370 0.930 . S
C380 C379 1.400 . S
C380 C383 1.386 . S
H381 C397 0.930 . S
H382 C398 0.931 . S
C383 H371 0.929 . S
C383 C377 1.390 . S
C383 C380 1.386 . S
C384 C379 1.490 . S
C384 C386 1.395 . S
C384 C387 1.403 . S
H385 C391 0.930 . S
C386 H372 0.930 . S
C386 C384 1.395 . S
C386 C389 1.403 . S
C387 C384 1.403 . S
C387 C388 1.524 . S
C387 C391 1.400 . S
C388 H373 0.960 . S
C388 H374 0.960 . S
C388 H375 0.960 . S
C388 C387 1.524 . S
C389 C386 1.403 . S
C389 C390 1.392 . S
C389 C393 1.495 . S
C390 C389 1.392 . S
C390 C391 1.385 . S
C390 C392 1.478 . S
C391 H385 0.930 . S
C391 C387 1.400 . S
C391 C390 1.385 . S
C392 C390 1.478 . S
C392 C394 1.381 . S
C392 C398 1.383 . S
C393 C389 1.495 . S
C393 H399 0.959 . S
C393 H400 0.961 . S
C393 H401 0.960 . S
C394 C392 1.381 . S
C394 C395 1.394 . S
C394 H402 0.930 . S
C395 C394 1.394 . S
C395 C396 1.383 . S
C395 H403 0.929 . S
C396 C395 1.383 . S
C396 C397 1.377 . S
C397 H381 0.930 . S
C397 C396 1.377 . S
C397 C398 1.379 . S
C398 H382 0.931 . S
C398 C392 1.383 . S
C398 C397 1.379 . S
H399 C393 0.959 . S
H400 C393 0.961 . S
H401 C393 0.960 . S
H402 C394 0.930 . S
H403 C395 0.929 . S
H404 C412 0.929 . S
H405 C414 0.930 . S
H406 C416 0.930 . S
H407 C419 0.929 . S
H408 C422 0.930 . S
H409 C424 0.960 . S
H410 C424 0.960 . S
H411 C424 0.960 1_554 S
C412 H404 0.929 . S
C412 C413 1.377 . S
C412 C414 1.384 . S
C413 C412 1.377 . S
C413 C419 1.390 . S
C414 H405 0.930 . S
C414 C412 1.384 . S
C414 C415 1.372 . S
C415 C414 1.372 . S
C415 C416 1.400 . S
C415 C420 1.490 . S
C416 H406 0.930 . S
C416 C415 1.400 . S
C416 C419 1.386 . S
H417 C433 0.930 . S
H418 C434 0.931 . S
C419 H407 0.929 . S
C419 C413 1.390 . S
C419 C416 1.386 . S
C420 C415 1.490 . S
C420 C422 1.395 . S
C420 C423 1.403 1_554 S
H421 C427 0.930 . S
C422 H408 0.930 . S
C422 C420 1.395 . S
C422 C425 1.403 . S
C423 C420 1.403 1_556 S
C423 C424 1.524 . S
C423 C427 1.400 . S
C424 H409 0.960 . S
C424 H410 0.960 . S
C424 H411 0.960 1_556 S
C424 C423 1.524 . S
C425 C422 1.403 . S
C425 C426 1.392 1_554 S
C425 C429 1.495 . S
C426 C425 1.392 1_556 S
C426 C427 1.385 . S
C426 C428 1.478 . S
C427 H421 0.930 . S
C427 C423 1.400 . S
C427 C426 1.385 . S
C428 C426 1.478 . S
C428 C430 1.381 . S
C428 C434 1.383 . S
C429 C425 1.495 . S
C429 H435 0.959 . S
C429 H436 0.961 . S
C429 H437 0.960 1_554 S
C430 C428 1.381 . S
C430 C431 1.394 . S
C430 H438 0.930 . S
C431 C430 1.394 . S
C431 C432 1.383 . S
C431 H439 0.929 . S
C432 C431 1.383 . S
C432 C433 1.377 . S
C433 H417 0.930 . S
C433 C432 1.377 . S
C433 C434 1.379 . S
C434 H418 0.931 . S
C434 C428 1.383 . S
C434 C433 1.379 . S
H435 C429 0.959 . S
H436 C429 0.961 . S
H437 C429 0.960 1_556 S
H438 C430 0.930 . S
H439 C431 0.929 . S
H440 C448 0.929 . S
H441 C450 0.930 . S
H442 C452 0.930 . S
H443 C455 0.929 . S
H444 C458 0.930 . S
H445 C460 0.960 . S
H446 C460 0.960 . S
H447 C460 0.960 . S
C448 H440 0.929 . S
C448 C449 1.377 . S
C448 C450 1.384 . S
C449 C448 1.377 . S
C449 C455 1.390 . S
C450 H441 0.930 . S
C450 C448 1.384 . S
C450 C451 1.372 . S
C451 C450 1.372 . S
C451 C452 1.400 . S
C451 C456 1.490 . S
C452 H442 0.930 . S
C452 C451 1.400 . S
C452 C455 1.386 . S
H453 C469 0.930 . S
H454 C470 0.931 . S
C455 H443 0.929 . S
C455 C449 1.390 . S
C455 C452 1.386 . S
C456 C451 1.490 . S
C456 C458 1.395 . S
C456 C459 1.403 . S
H457 C463 0.930 . S
C458 H444 0.930 . S
C458 C456 1.395 . S
C458 C461 1.403 . S
C459 C456 1.403 . S
C459 C460 1.524 . S
C459 C463 1.400 . S
C460 H445 0.960 . S
C460 H446 0.960 . S
C460 H447 0.960 . S
C460 C459 1.524 . S
C461 C458 1.403 . S
C461 C462 1.392 . S
C461 C465 1.495 . S
C462 C461 1.392 . S
C462 C463 1.385 . S
C462 C464 1.478 . S
C463 H457 0.930 . S
C463 C459 1.400 . S
C463 C462 1.385 . S
C464 C462 1.478 . S
C464 C466 1.381 . S
C464 C470 1.383 . S
C465 C461 1.495 . S
C465 H471 0.959 . S
C465 H472 0.961 . S
C465 H473 0.960 . S
C466 C464 1.381 . S
C466 C467 1.394 . S
C466 H474 0.930 . S
C467 C466 1.394 . S
C467 C468 1.383 . S
C467 H475 0.929 . S
C468 C467 1.383 . S
C468 C469 1.377 . S
C469 H453 0.930 . S
C469 C468 1.377 . S
C469 C470 1.379 . S
C470 H454 0.931 . S
C470 C464 1.383 . S
C470 C469 1.379 . S
H471 C465 0.959 . S
H472 C465 0.961 . S
H473 C465 0.960 . S
H474 C466 0.930 . S
H475 C467 0.929 . S
H476 C484 0.929 . S
H477 C486 0.930 . S
H478 C488 0.930 . S
H479 C491 0.929 . S
H480 C494 0.930 . S
H481 C496 0.960 . S
H482 C496 0.960 . S
H483 C496 0.960 . S
C484 H476 0.929 . S
C484 C485 1.377 . S
C484 C486 1.384 . S
C485 C484 1.377 . S
C485 C491 1.390 . S
C486 H477 0.930 . S
C486 C484 1.384 . S
C486 C487 1.372 . S
C487 C486 1.372 . S
C487 C488 1.400 . S
C487 C492 1.490 . S
C488 H478 0.930 . S
C488 C487 1.400 . S
C488 C491 1.386 . S
H489 C505 0.930 . S
H490 C506 0.931 . S
C491 H479 0.929 . S
C491 C485 1.390 . S
C491 C488 1.386 . S
C492 C487 1.490 . S
C492 C494 1.395 . S
C492 C495 1.403 . S
H493 C499 0.930 . S
C494 H480 0.930 . S
C494 C492 1.395 . S
C494 C497 1.403 1_556 S
C495 C492 1.403 . S
C495 C496 1.524 . S
C495 C499 1.400 1_556 S
C496 H481 0.960 . S
C496 H482 0.960 . S
C496 H483 0.960 . S
C496 C495 1.524 . S
C497 C494 1.403 1_554 S
C497 C498 1.392 . S
C497 C501 1.495 . S
C498 C497 1.392 . S
C498 C499 1.385 . S
C498 C500 1.478 . S
C499 H493 0.930 . S
C499 C495 1.400 1_554 S
C499 C498 1.385 . S
C500 C498 1.478 . S
C500 C502 1.381 . S
C500 C506 1.383 . S
C501 C497 1.495 . S
C501 H507 0.959 . S
C501 H508 0.961 . S
C501 H509 0.960 . S
C502 C500 1.381 . S
C502 C503 1.394 . S
C502 H510 0.930 . S
C503 C502 1.394 . S
C503 C504 1.383 . S
C503 H511 0.929 . S
C504 C503 1.383 . S
C504 C505 1.377 . S
C505 H489 0.930 . S
C505 C504 1.377 . S
C505 C506 1.379 . S
C506 H490 0.931 . S
C506 C500 1.383 . S
C506 C505 1.379 . S
H507 C501 0.959 . S
H508 C501 0.961 . S
H509 C501 0.960 . S
H510 C502 0.930 . S
H511 C503 0.929 . S
H512 C520 0.929 . S
H513 C522 0.930 . S
H514 C524 0.930 . S
H515 C527 0.929 . S
H516 C530 0.930 . S
H517 C532 0.960 . S
H518 C532 0.960 . S
H519 C532 0.960 . S
C520 H512 0.929 . S
C520 C521 1.377 . S
C520 C522 1.384 . S
C521 C520 1.377 . S
C521 C527 1.390 . S
C522 H513 0.930 . S
C522 C520 1.384 . S
C522 C523 1.372 . S
C523 C522 1.372 . S
C523 C524 1.400 . S
C523 C528 1.490 . S
C524 H514 0.930 . S
C524 C523 1.400 . S
C524 C527 1.386 . S
H525 C541 0.930 . S
H526 C542 0.931 . S
C527 H515 0.929 . S
C527 C521 1.390 . S
C527 C524 1.386 . S
C528 C523 1.490 . S
C528 C530 1.395 . S
C528 C531 1.403 . S
H529 C535 0.930 . S
C530 H516 0.930 . S
C530 C528 1.395 . S
C530 C533 1.403 . S
C531 C528 1.403 . S
C531 C532 1.524 . S
C531 C535 1.400 . S
C532 H517 0.960 . S
C532 H518 0.960 . S
C532 H519 0.960 . S
C532 C531 1.524 . S
C533 C530 1.403 . S
C533 C534 1.392 . S
C533 C537 1.495 . S
C534 C533 1.392 . S
C534 C535 1.385 . S
C534 C536 1.478 . S
C535 H529 0.930 . S
C535 C531 1.400 . S
C535 C534 1.385 . S
C536 C534 1.478 . S
C536 C538 1.381 . S
C536 C542 1.383 . S
C537 C533 1.495 . S
C537 H543 0.959 . S
C537 H544 0.961 . S
C537 H545 0.960 . S
C538 C536 1.381 . S
C538 C539 1.394 . S
C538 H546 0.930 . S
C539 C538 1.394 . S
C539 C540 1.383 . S
C539 H547 0.929 . S
C540 C539 1.383 . S
C540 C541 1.377 . S
C541 H525 0.930 . S
C541 C540 1.377 . S
C541 C542 1.379 . S
C542 H526 0.931 . S
C542 C536 1.383 . S
C542 C541 1.379 . S
H543 C537 0.959 . S
H544 C537 0.961 . S
H545 C537 0.960 . S
H546 C538 0.930 . S
H547 C539 0.929 . S
H548 C556 0.929 . S
H549 C558 0.930 . S
H550 C560 0.930 . S
H551 C563 0.929 . S
H552 C566 0.930 . S
H553 C568 0.960 . S
H554 C568 0.960 . S
H555 C568 0.960 1_556 S
C556 H548 0.929 . S
C556 C557 1.377 . S
C556 C558 1.384 . S
C557 C556 1.377 . S
C557 C563 1.390 . S
C558 H549 0.930 . S
C558 C556 1.384 . S
C558 C559 1.372 . S
C559 C558 1.372 . S
C559 C560 1.400 . S
C559 C564 1.490 . S
C560 H550 0.930 . S
C560 C559 1.400 . S
C560 C563 1.386 . S
H561 C577 0.930 . S
H562 C578 0.931 . S
C563 H551 0.929 . S
C563 C557 1.390 . S
C563 C560 1.386 . S
C564 C559 1.490 . S
C564 C566 1.395 . S
C564 C567 1.403 1_556 S
H565 C571 0.930 . S
C566 H552 0.930 . S
C566 C564 1.395 . S
C566 C569 1.403 . S
C567 C564 1.403 1_554 S
C567 C568 1.524 . S
C567 C571 1.400 . S
C568 H553 0.960 . S
C568 H554 0.960 . S
C568 H555 0.960 1_554 S
C568 C567 1.524 . S
C569 C566 1.403 . S
C569 C570 1.392 1_556 S
C569 C573 1.495 . S
C570 C569 1.392 1_554 S
C570 C571 1.385 . S
C570 C572 1.478 . S
C571 H565 0.930 . S
C571 C567 1.400 . S
C571 C570 1.385 . S
C572 C570 1.478 . S
C572 C574 1.381 . S
C572 C578 1.383 . S
C573 C569 1.495 . S
C573 H579 0.959 . S
C573 H580 0.961 . S
C573 H581 0.960 1_556 S
C574 C572 1.381 . S
C574 C575 1.394 . S
C574 H582 0.930 . S
C575 C574 1.394 . S
C575 C576 1.383 . S
C575 H583 0.929 . S
C576 C575 1.383 . S
C576 C577 1.377 . S
C577 H561 0.930 . S
C577 C576 1.377 . S
C577 C578 1.379 . S
C578 H562 0.931 . S
C578 C572 1.383 . S
C578 C577 1.379 . S
H579 C573 0.959 . S
H580 C573 0.961 . S
H581 C573 0.960 1_554 S
H582 C574 0.930 . S
H583 C575 0.929 . S
H584 C592 0.929 . S
H585 C594 0.930 . S
H586 C596 0.930 . S
H587 C599 0.929 . S
H588 C602 0.930 . S
H589 C604 0.960 . S
H590 C604 0.960 . S
H591 C604 0.960 . S
C592 H584 0.929 . S
C592 C593 1.377 . S
C592 C594 1.384 . S
C593 C592 1.377 . S
C593 C599 1.390 . S
C594 H585 0.930 . S
C594 C592 1.384 . S
C594 C595 1.372 . S
C595 C594 1.372 . S
C595 C596 1.400 . S
C595 C600 1.490 . S
C596 H586 0.930 . S
C596 C595 1.400 . S
C596 C599 1.386 . S
H597 C613 0.930 . S
H598 C614 0.931 . S
C599 H587 0.929 . S
C599 C593 1.390 . S
C599 C596 1.386 . S
C600 C595 1.490 . S
C600 C602 1.395 . S
C600 C603 1.403 . S
H601 C607 0.930 . S
C602 H588 0.930 . S
C602 C600 1.395 . S
C602 C605 1.403 . S
C603 C600 1.403 . S
C603 C604 1.524 . S
C603 C607 1.400 . S
C604 H589 0.960 . S
C604 H590 0.960 . S
C604 H591 0.960 . S
C604 C603 1.524 . S
C605 C602 1.403 . S
C605 C606 1.392 . S
C605 C609 1.495 . S
C606 C605 1.392 . S
C606 C607 1.385 . S
C606 C608 1.478 . S
C607 H601 0.930 . S
C607 C603 1.400 . S
C607 C606 1.385 . S
C608 C606 1.478 . S
C608 C610 1.381 . S
C608 C614 1.383 . S
C609 C605 1.495 . S
C609 H615 0.959 . S
C609 H616 0.961 . S
C609 H617 0.960 . S
C610 C608 1.381 . S
C610 C611 1.394 . S
C610 H618 0.930 . S
C611 C610 1.394 . S
C611 C612 1.383 . S
C611 H619 0.929 . S
C612 C611 1.383 . S
C612 C613 1.377 . S
C613 H597 0.930 . S
C613 C612 1.377 . S
C613 C614 1.379 . S
C614 H598 0.931 . S
C614 C608 1.383 . S
C614 C613 1.379 . S
H615 C609 0.959 . S
H616 C609 0.961 . S
H617 C609 0.960 . S
H618 C610 0.930 . S
H619 C611 0.929 . S
H620 C628 0.929 . S
H621 C630 0.930 . S
H622 C632 0.930 . S
H623 C635 0.929 . S
H624 C638 0.930 . S
H625 C640 0.960 . S
H626 C640 0.960 . S
H627 C640 0.960 1_556 S
C628 H620 0.929 . S
C628 C629 1.377 . S
C628 C630 1.384 . S
C629 C628 1.377 . S
C629 C635 1.390 . S
C630 H621 0.930 . S
C630 C628 1.384 . S
C630 C631 1.372 . S
C631 C630 1.372 . S
C631 C632 1.400 . S
C631 C636 1.490 . S
C632 H622 0.930 . S
C632 C631 1.400 . S
C632 C635 1.386 . S
H633 C649 0.930 . S
H634 C650 0.931 . S
C635 H623 0.929 . S
C635 C629 1.390 . S
C635 C632 1.386 . S
C636 C631 1.490 . S
C636 C638 1.395 . S
C636 C639 1.403 1_556 S
H637 C643 0.930 . S
C638 H624 0.930 . S
C638 C636 1.395 . S
C638 C641 1.403 . S
C639 C636 1.403 1_554 S
C639 C640 1.524 . S
C639 C643 1.400 . S
C640 H625 0.960 . S
C640 H626 0.960 . S
C640 H627 0.960 1_554 S
C640 C639 1.524 . S
C641 C638 1.403 . S
C641 C642 1.392 1_556 S
C641 C645 1.495 . S
C642 C641 1.392 1_554 S
C642 C643 1.385 . S
C642 C644 1.478 . S
C643 H637 0.930 . S
C643 C639 1.400 . S
C643 C642 1.385 . S
C644 C642 1.478 . S
C644 C646 1.381 . S
C644 C650 1.383 . S
C645 C641 1.495 . S
C645 H651 0.959 . S
C645 H652 0.961 . S
C645 H653 0.960 1_556 S
C646 C644 1.381 . S
C646 C647 1.394 . S
C646 H654 0.930 . S
C647 C646 1.394 . S
C647 C648 1.383 . S
C647 H655 0.929 . S
C648 C647 1.383 . S
C648 C649 1.377 . S
C649 H633 0.930 . S
C649 C648 1.377 . S
C649 C650 1.379 . S
C650 H634 0.931 . S
C650 C644 1.383 . S
C650 C649 1.379 . S
H651 C645 0.959 . S
H652 C645 0.961 . S
H653 C645 0.960 1_554 S
H654 C646 0.930 . S
H655 C647 0.929 . S
H656 C664 0.929 . S
H657 C666 0.930 . S
H658 C668 0.930 . S
H659 C671 0.929 . S
H660 C674 0.930 . S
H661 C676 0.960 . S
H662 C676 0.960 . S
H663 C676 0.960 . S
C664 H656 0.929 . S
C664 C665 1.377 . S
C664 C666 1.384 . S
C665 C664 1.377 . S
C665 C671 1.390 . S
C666 H657 0.930 . S
C666 C664 1.384 . S
C666 C667 1.372 . S
C667 C666 1.372 . S
C667 C668 1.400 . S
C667 C672 1.490 . S
C668 H658 0.930 . S
C668 C667 1.400 . S
C668 C671 1.386 . S
H669 C685 0.930 . S
H670 C686 0.931 . S
C671 H659 0.929 . S
C671 C665 1.390 . S
C671 C668 1.386 . S
C672 C667 1.490 . S
C672 C674 1.395 . S
C672 C675 1.403 . S
H673 C679 0.930 . S
C674 H660 0.930 . S
C674 C672 1.395 . S
C674 C677 1.403 . S
C675 C672 1.403 . S
C675 C676 1.524 . S
C675 C679 1.400 . S
C676 H661 0.960 . S
C676 H662 0.960 . S
C676 H663 0.960 . S
C676 C675 1.524 . S
C677 C674 1.403 . S
C677 C678 1.392 . S
C677 C681 1.495 . S
C678 C677 1.392 . S
C678 C679 1.385 . S
C678 C680 1.478 . S
C679 H673 0.930 . S
C679 C675 1.400 . S
C679 C678 1.385 . S
C680 C678 1.478 . S
C680 C682 1.381 . S
C680 C686 1.383 . S
C681 C677 1.495 . S
C681 H687 0.959 . S
C681 H688 0.961 . S
C681 H689 0.960 . S
C682 C680 1.381 . S
C682 C683 1.394 . S
C682 H690 0.930 . S
C683 C682 1.394 . S
C683 C684 1.383 . S
C683 H691 0.929 . S
C684 C683 1.383 . S
C684 C685 1.377 . S
C685 H669 0.930 . S
C685 C684 1.377 . S
C685 C686 1.379 . S
C686 H670 0.931 . S
C686 C680 1.383 . S
C686 C685 1.379 . S
H687 C681 0.959 . S
H688 C681 0.961 . S
H689 C681 0.960 . S
H690 C682 0.930 . S
H691 C683 0.929 . S
H692 C700 0.929 . S
H693 C702 0.930 . S
H694 C704 0.930 . S
H695 C707 0.929 . S
H696 C710 0.930 . S
H697 C712 0.960 . S
H698 C712 0.960 . S
H699 C712 0.960 . S
C700 H692 0.929 . S
C700 C701 1.377 . S
C700 C702 1.384 . S
C701 C700 1.377 . S
C701 C707 1.390 . S
C702 H693 0.930 . S
C702 C700 1.384 . S
C702 C703 1.372 . S
C703 C702 1.372 . S
C703 C704 1.400 . S
C703 C708 1.490 . S
C704 H694 0.930 . S
C704 C703 1.400 . S
C704 C707 1.386 . S
H705 C721 0.930 . S
H706 C722 0.931 . S
C707 H695 0.929 . S
C707 C701 1.390 . S
C707 C704 1.386 . S
C708 C703 1.490 . S
C708 C710 1.395 . S
C708 C711 1.403 . S
H709 C715 0.930 . S
C710 H696 0.930 . S
C710 C708 1.395 . S
C710 C713 1.403 . S
C711 C708 1.403 . S
C711 C712 1.524 . S
C711 C715 1.400 . S
C712 H697 0.960 . S
C712 H698 0.960 . S
C712 H699 0.960 . S
C712 C711 1.524 . S
C713 C710 1.403 . S
C713 C714 1.392 . S
C713 C717 1.495 . S
C714 C713 1.392 . S
C714 C715 1.385 . S
C714 C716 1.478 . S
C715 H709 0.930 . S
C715 C711 1.400 . S
C715 C714 1.385 . S
C716 C714 1.478 . S
C716 C718 1.381 . S
C716 C722 1.383 . S
C717 C713 1.495 . S
C717 H723 0.959 . S
C717 H724 0.961 . S
C717 H725 0.960 . S
C718 C716 1.381 . S
C718 C719 1.394 . S
C718 H726 0.930 . S
C719 C718 1.394 . S
C719 C720 1.383 . S
C719 H727 0.929 . S
C720 C719 1.383 . S
C720 C721 1.377 . S
C721 H705 0.930 . S
C721 C720 1.377 . S
C721 C722 1.379 . S
C722 H706 0.931 . S
C722 C716 1.383 . S
C722 C721 1.379 . S
H723 C717 0.959 . S
H724 C717 0.961 . S
H725 C717 0.960 . S
H726 C718 0.930 . S
H727 C719 0.929 . S
H728 C736 0.929 . S
H729 C738 0.930 . S
H730 C740 0.930 . S
H731 C743 0.929 . S
H732 C746 0.930 . S
H733 C748 0.960 . S
H734 C748 0.960 . S
H735 C748 0.960 . S
C736 H728 0.929 . S
C736 C737 1.377 . S
C736 C738 1.384 . S
C737 C736 1.377 . S
C737 C743 1.390 . S
C738 H729 0.930 . S
C738 C736 1.384 . S
C738 C739 1.372 . S
C739 C738 1.372 . S
C739 C740 1.400 . S
C739 C744 1.490 . S
C740 H730 0.930 . S
C740 C739 1.400 . S
C740 C743 1.386 . S
H741 C757 0.930 . S
H742 C758 0.931 . S
C743 H731 0.929 . S
C743 C737 1.390 . S
C743 C740 1.386 . S
C744 C739 1.490 . S
C744 C746 1.395 . S
C744 C747 1.403 . S
H745 C751 0.930 . S
C746 H732 0.930 . S
C746 C744 1.395 . S
C746 C749 1.403 . S
C747 C744 1.403 . S
C747 C748 1.524 . S
C747 C751 1.400 . S
C748 H733 0.960 . S
C748 H734 0.960 . S
C748 H735 0.960 . S
C748 C747 1.524 . S
C749 C746 1.403 . S
C749 C750 1.392 . S
C749 C753 1.495 . S
C750 C749 1.392 . S
C750 C751 1.385 . S
C750 C752 1.478 . S
C751 H745 0.930 . S
C751 C747 1.400 . S
C751 C750 1.385 . S
C752 C750 1.478 . S
C752 C754 1.381 . S
C752 C758 1.383 . S
C753 C749 1.495 . S
C753 H759 0.959 . S
C753 H760 0.961 . S
C753 H761 0.960 . S
C754 C752 1.381 . S
C754 C755 1.394 . S
C754 H762 0.930 . S
C755 C754 1.394 . S
C755 C756 1.383 . S
C755 H763 0.929 . S
C756 C755 1.383 . S
C756 C757 1.377 . S
C757 H741 0.930 . S
C757 C756 1.377 . S
C757 C758 1.379 . S
C758 H742 0.931 . S
C758 C752 1.383 . S
C758 C757 1.379 . S
H759 C753 0.959 . S
H760 C753 0.961 . S
H761 C753 0.960 . S
H762 C754 0.930 . S
H763 C755 0.929 . S
H764 C772 0.929 . S
H765 C774 0.930 . S
H766 C776 0.930 . S
H767 C779 0.929 . S
H768 C782 0.930 . S
H769 C784 0.960 . S
H770 C784 0.960 . S
H771 C784 0.960 . S
C772 H764 0.929 . S
C772 C773 1.377 . S
C772 C774 1.384 . S
C773 C772 1.377 . S
C773 C779 1.390 . S
C774 H765 0.930 . S
C774 C772 1.384 . S
C774 C775 1.372 . S
C775 C774 1.372 . S
C775 C776 1.400 . S
C775 C780 1.490 . S
C776 H766 0.930 . S
C776 C775 1.400 . S
C776 C779 1.386 . S
H777 C793 0.930 . S
H778 C794 0.931 . S
C779 H767 0.929 . S
C779 C773 1.390 . S
C779 C776 1.386 . S
C780 C775 1.490 . S
C780 C782 1.395 . S
C780 C783 1.403 . S
H781 C787 0.930 . S
C782 H768 0.930 . S
C782 C780 1.395 . S
C782 C785 1.403 . S
C783 C780 1.403 . S
C783 C784 1.524 . S
C783 C787 1.400 . S
C784 H769 0.960 . S
C784 H770 0.960 . S
C784 H771 0.960 . S
C784 C783 1.524 . S
C785 C782 1.403 . S
C785 C786 1.392 . S
C785 C789 1.495 . S
C786 C785 1.392 . S
C786 C787 1.385 . S
C786 C788 1.478 . S
C787 H781 0.930 . S
C787 C783 1.400 . S
C787 C786 1.385 . S
C788 C786 1.478 . S
C788 C790 1.381 . S
C788 C794 1.383 . S
C789 C785 1.495 . S
C789 H795 0.959 . S
C789 H796 0.961 . S
C789 H797 0.960 . S
C790 C788 1.381 . S
C790 C791 1.394 . S
C790 H798 0.930 . S
C791 C790 1.394 . S
C791 C792 1.383 . S
C791 H799 0.929 . S
C792 C791 1.383 . S
C792 C793 1.377 . S
C793 H777 0.930 . S
C793 C792 1.377 . S
C793 C794 1.379 . S
C794 H778 0.931 . S
C794 C788 1.383 . S
C794 C793 1.379 . S
H795 C789 0.959 . S
H796 C789 0.961 . S
H797 C789 0.960 . S
H798 C790 0.930 . S
H799 C791 0.929 . S
H800 C808 0.929 . S
H801 C810 0.930 . S
H802 C812 0.930 . S
H803 C815 0.929 . S
H804 C818 0.930 . S
H805 C820 0.960 . S
H806 C820 0.960 . S
H807 C820 0.960 . S
C808 H800 0.929 . S
C808 C809 1.377 . S
C808 C810 1.384 . S
C809 C808 1.377 . S
C809 C815 1.390 . S
C810 H801 0.930 . S
C810 C808 1.384 . S
C810 C811 1.372 . S
C811 C810 1.372 . S
C811 C812 1.400 . S
C811 C816 1.490 . S
C812 H802 0.930 . S
C812 C811 1.400 . S
C812 C815 1.386 . S
H813 C829 0.930 . S
H814 C830 0.931 . S
C815 H803 0.929 . S
C815 C809 1.390 . S
C815 C812 1.386 . S
C816 C811 1.490 . S
C816 C818 1.395 . S
C816 C819 1.403 . S
H817 C823 0.930 . S
C818 H804 0.930 . S
C818 C816 1.395 . S
C818 C821 1.403 . S
C819 C816 1.403 . S
C819 C820 1.524 . S
C819 C823 1.400 . S
C820 H805 0.960 . S
C820 H806 0.960 . S
C820 H807 0.960 . S
C820 C819 1.524 . S
C821 C818 1.403 . S
C821 C822 1.392 . S
C821 C825 1.495 . S
C822 C821 1.392 . S
C822 C823 1.385 . S
C822 C824 1.478 . S
C823 H817 0.930 . S
C823 C819 1.400 . S
C823 C822 1.385 . S
C824 C822 1.478 . S
C824 C826 1.381 . S
C824 C830 1.383 . S
C825 C821 1.495 . S
C825 H831 0.959 . S
C825 H832 0.961 . S
C825 H833 0.960 . S
C826 C824 1.381 . S
C826 C827 1.394 . S
C826 H834 0.930 . S
C827 C826 1.394 . S
C827 C828 1.383 . S
C827 H835 0.929 . S
C828 C827 1.383 . S
C828 C829 1.377 . S
C829 H813 0.930 . S
C829 C828 1.377 . S
C829 C830 1.379 . S
C830 H814 0.931 . S
C830 C824 1.383 . S
C830 C829 1.379 . S
H831 C825 0.959 . S
H832 C825 0.961 . S
H833 C825 0.960 . S
H834 C826 0.930 . S
H835 C827 0.929 . S
H836 C844 0.974 . S
H837 C846 0.930 . S
H838 C848 0.930 . S
H839 C851 0.929 . S
H840 C854 0.930 . S
H841 C856 0.960 . S
H842 C856 0.960 . S
H843 C856 0.960 . S
C844 H836 0.974 . S
C844 C845 1.377 . S
C844 C846 1.384 . S
C845 C844 1.377 . S
C845 C851 1.390 . S
C846 H837 0.930 . S
C846 C844 1.384 . S
C846 C847 1.372 . S
C847 C846 1.372 . S
C847 C848 1.400 . S
C847 C852 1.490 . S
C848 H838 0.930 . S
C848 C847 1.400 . S
C848 C851 1.386 . S
H849 C865 0.930 . S
H850 C866 0.931 . S
C851 H839 0.929 . S
C851 C845 1.390 . S
C851 C848 1.386 . S
C852 C847 1.490 . S
C852 C854 1.395 . S
C852 C855 1.403 . S
H853 C859 0.930 . S
C854 H840 0.930 . S
C854 C852 1.395 . S
C854 C857 1.403 . S
C855 C852 1.403 . S
C855 C856 1.524 . S
C855 C859 1.400 . S
C856 H841 0.960 . S
C856 H842 0.960 . S
C856 H843 0.960 . S
C856 C855 1.524 . S
C857 C854 1.403 . S
C857 C858 1.392 . S
C857 C861 1.495 . S
C858 C857 1.392 . S
C858 C859 1.385 . S
C858 C860 1.478 . S
C859 H853 0.930 . S
C859 C855 1.400 . S
C859 C858 1.385 . S
C860 C858 1.478 . S
C860 C862 1.381 . S
C860 C866 1.383 . S
C861 C857 1.495 . S
C861 H867 0.959 . S
C861 H868 0.961 . S
C861 H869 0.960 . S
C862 C860 1.381 . S
C862 C863 1.394 . S
C862 H870 0.930 . S
C863 C862 1.394 . S
C863 C864 1.383 . S
C863 H871 0.916 1_565 S
C864 C863 1.383 . S
C864 C865 1.377 . S
C865 H849 0.930 . S
C865 C864 1.377 . S
C865 C866 1.379 . S
C866 H850 0.931 . S
C866 C860 1.383 . S
C866 C865 1.379 . S
H867 C861 0.959 . S
H868 C861 0.961 . S
H869 C861 0.960 . S
H870 C862 0.930 . S
H871 C863 0.916 1_545 S
H872 C880 0.929 . S
H873 C882 0.930 . S
H874 C884 0.930 . S
H875 C887 0.929 . S
H876 C890 0.930 . S
H877 C892 0.960 . S
H878 C892 0.960 . S
H879 C892 0.960 . S
C880 H872 0.929 . S
C880 C881 1.377 . S
C880 C882 1.384 . S
C881 C880 1.377 . S
C881 C887 1.390 . S
C882 H873 0.930 . S
C882 C880 1.384 . S
C882 C883 1.372 . S
C883 C882 1.372 . S
C883 C884 1.400 . S
C883 C888 1.490 . S
C884 H874 0.930 . S
C884 C883 1.400 . S
C884 C887 1.386 . S
H885 C901 0.930 . S
H886 C902 0.931 . S
C887 H875 0.929 . S
C887 C881 1.390 . S
C887 C884 1.386 . S
C888 C883 1.490 . S
C888 C890 1.395 . S
C888 C891 1.403 . S
H889 C895 0.930 . S
C890 H876 0.930 . S
C890 C888 1.395 . S
C890 C893 1.403 . S
C891 C888 1.403 . S
C891 C892 1.524 . S
C891 C895 1.400 . S
C892 H877 0.960 . S
C892 H878 0.960 . S
C892 H879 0.960 . S
C892 C891 1.524 . S
C893 C890 1.403 . S
C893 C894 1.392 . S
C893 C897 1.495 . S
C894 C893 1.392 . S
C894 C895 1.385 . S
C894 C896 1.478 . S
C895 H889 0.930 . S
C895 C891 1.400 . S
C895 C894 1.385 . S
C896 C894 1.478 . S
C896 C898 1.381 . S
C896 C902 1.383 . S
C897 C893 1.495 . S
C897 H903 0.959 . S
C897 H904 0.961 . S
C897 H905 0.960 . S
C898 C896 1.381 . S
C898 C899 1.394 . S
C898 H906 0.930 . S
C899 C898 1.394 . S
C899 C900 1.383 . S
C899 H907 0.929 . S
C900 C899 1.383 . S
C900 C901 1.377 . S
C901 H885 0.930 . S
C901 C900 1.377 . S
C901 C902 1.379 . S
C902 H886 0.931 . S
C902 C896 1.383 . S
C902 C901 1.379 . S
H903 C897 0.959 . S
H904 C897 0.961 . S
H905 C897 0.960 . S
H906 C898 0.930 . S
H907 C899 0.929 . S
H908 C916 0.929 . S
H909 C918 0.930 . S
H910 C920 0.930 . S
H911 C923 0.929 . S
H912 C926 0.930 . S
H913 C928 0.960 . S
H914 C928 0.960 . S
H915 C928 0.960 . S
C916 H908 0.929 . S
C916 C917 1.377 . S
C916 C918 1.384 . S
C917 C916 1.377 . S
C917 C923 1.390 . S
C918 H909 0.930 . S
C918 C916 1.384 . S
C918 C919 1.372 . S
C919 C918 1.372 . S
C919 C920 1.400 . S
C919 C924 1.490 . S
C920 H910 0.930 . S
C920 C919 1.400 . S
C920 C923 1.386 . S
H921 C937 0.930 . S
H922 C938 0.931 . S
C923 H911 0.929 . S
C923 C917 1.390 . S
C923 C920 1.386 . S
C924 C919 1.490 . S
C924 C926 1.395 . S
C924 C927 1.403 . S
H925 C931 0.930 . S
C926 H912 0.930 . S
C926 C924 1.395 . S
C926 C929 1.403 . S
C927 C924 1.403 . S
C927 C928 1.524 . S
C927 C931 1.400 . S
C928 H913 0.960 . S
C928 H914 0.960 . S
C928 H915 0.960 . S
C928 C927 1.524 . S
C929 C926 1.403 . S
C929 C930 1.392 . S
C929 C933 1.495 . S
C930 C929 1.392 . S
C930 C931 1.385 . S
C930 C932 1.478 . S
C931 H925 0.930 . S
C931 C927 1.400 . S
C931 C930 1.385 . S
C932 C930 1.478 . S
C932 C934 1.381 . S
C932 C938 1.383 . S
C933 C929 1.495 . S
C933 H939 0.959 . S
C933 H940 0.961 . S
C933 H941 0.960 . S
C934 C932 1.381 . S
C934 C935 1.394 . S
C934 H942 0.930 . S
C935 C934 1.394 . S
C935 C936 1.383 . S
C935 H943 0.929 . S
C936 C935 1.383 . S
C936 C937 1.377 . S
C937 H921 0.930 . S
C937 C936 1.377 . S
C937 C938 1.379 . S
C938 H922 0.931 . S
C938 C932 1.383 . S
C938 C937 1.379 . S
H939 C933 0.959 . S
H940 C933 0.961 . S
H941 C933 0.960 . S
H942 C934 0.930 . S
H943 C935 0.929 . S
H944 C952 0.929 . S
H945 C954 0.930 . S
H946 C956 0.930 . S
H947 C959 0.929 . S
H948 C962 0.930 . S
H949 C964 0.960 . S
H950 C964 0.960 1_556 S
H951 C964 0.960 1_556 S
C952 H944 0.929 . S
C952 C953 1.377 . S
C952 C954 1.384 . S
C953 C952 1.377 . S
C953 C959 1.390 . S
C954 H945 0.930 . S
C954 C952 1.384 . S
C954 C955 1.372 . S
C955 C954 1.372 . S
C955 C956 1.400 . S
C955 C960 1.490 1_556 S
C956 H946 0.930 . S
C956 C955 1.400 . S
C956 C959 1.386 . S
H957 C973 0.930 . S
H958 C974 0.931 . S
C959 H947 0.929 . S
C959 C953 1.390 . S
C959 C956 1.386 . S
C960 C955 1.490 1_554 S
C960 C962 1.395 . S
C960 C963 1.403 . S
H961 C967 0.930 . S
C962 H948 0.930 . S
C962 C960 1.395 . S
C962 C965 1.403 . S
C963 C960 1.403 . S
C963 C964 1.524 . S
C963 C967 1.400 . S
C964 H949 0.960 . S
C964 H950 0.960 1_554 S
C964 H951 0.960 1_554 S
C964 C963 1.524 . S
C965 C962 1.403 . S
C965 C966 1.392 . S
C965 C969 1.495 . S
C966 C965 1.392 . S
C966 C967 1.385 . S
C966 C968 1.478 . S
C967 H961 0.930 . S
C967 C963 1.400 . S
C967 C966 1.385 . S
C968 C966 1.478 . S
C968 C970 1.381 . S
C968 C974 1.383 . S
C969 C965 1.495 . S
C969 H975 0.959 . S
C969 H976 0.961 . S
C969 H977 0.960 . S
C970 C968 1.381 . S
C970 C971 1.394 . S
C970 H978 0.930 . S
C971 C970 1.394 . S
C971 C972 1.383 . S
C971 H979 0.929 . S
C972 C971 1.383 . S
C972 C973 1.377 . S
C973 H957 0.930 . S
C973 C972 1.377 . S
C973 C974 1.379 . S
C974 H958 0.931 . S
C974 C968 1.383 . S
C974 C973 1.379 . S
H975 C969 0.959 . S
H976 C969 0.961 . S
H977 C969 0.960 . S
H978 C970 0.930 . S
H979 C971 0.929 . S
H980 C988 0.929 . S
H981 C990 0.930 . S
H982 C992 0.930 . S
H983 C995 0.929 . S
H984 C998 0.935 . S
H985 C1000 0.960 . S
H986 C1000 0.960 . S
H987 C1000 0.954 1_455 S
C988 H980 0.929 . S
C988 C989 1.377 . S
C988 C990 1.384 . S
C989 C988 1.377 . S
C989 C995 1.390 1_655 S
C990 H981 0.930 . S
C990 C988 1.384 . S
C990 C991 1.372 . S
C991 C990 1.372 . S
C991 C992 1.400 1_655 S
C991 C996 1.490 . S
C992 H982 0.930 . S
C992 C991 1.400 1_455 S
C992 C995 1.386 . S
H993 C1009 0.930 . S
H994 C1010 0.931 . S
C995 H983 0.929 . S
C995 C989 1.390 1_455 S
C995 C992 1.386 . S
C996 C991 1.490 . S
C996 C998 1.395 . S
C996 C999 1.403 . S
H997 C1003 0.930 . S
C998 H984 0.935 . S
C998 C996 1.395 . S
C998 C1001 1.403 . S
C999 C996 1.403 . S
C999 C1000 1.524 . S
C999 C1003 1.400 . S
C1000 H985 0.960 . S
C1000 H986 0.960 . S
C1000 H987 0.954 1_655 S
C1000 C999 1.524 . S
C1001 C998 1.403 . S
C1001 C1002 1.392 . S
C1001 C1005 1.495 1_655 S
C1002 C1001 1.392 . S
C1002 C1003 1.385 . S
C1002 C1004 1.478 . S
C1003 H997 0.930 . S
C1003 C999 1.400 . S
C1003 C1002 1.385 . S
C1004 C1002 1.478 . S
C1004 C1006 1.381 . S
C1004 C1010 1.383 1_655 S
C1005 C1001 1.495 1_455 S
C1005 H1011 0.959 . S
C1005 H1012 0.961 . S
C1005 H1013 0.960 1_455 S
C1006 C1004 1.381 . S
C1006 C1007 1.394 . S
C1006 H1014 0.930 . S
C1007 C1006 1.394 . S
C1007 C1008 1.383 . S
C1007 H1015 0.929 . S
C1008 C1007 1.383 . S
C1008 C1009 1.377 1_655 S
C1009 H993 0.930 . S
C1009 C1008 1.377 1_455 S
C1009 C1010 1.379 . S
C1010 H994 0.931 . S
C1010 C1004 1.383 1_455 S
C1010 C1009 1.379 . S
H1011 C1005 0.959 . S
H1012 C1005 0.961 . S
H1013 C1005 0.960 1_655 S
H1014 C1006 0.930 . S
H1015 C1007 0.929 . S
H1016 C1024 0.929 . S
H1017 C1026 0.930 . S
H1018 C1028 0.930 . S
H1019 C1031 0.929 . S
H1020 C1034 0.930 . S
H1021 C1036 0.960 . S
H1022 C1036 0.960 . S
H1023 C1036 0.960 . S
C1024 H1016 0.929 . S
C1024 C1025 1.377 1_545 S
C1024 C1026 1.384 . S
C1025 C1024 1.377 1_565 S
C1025 C1031 1.390 . S
C1026 H1017 0.930 . S
C1026 C1024 1.384 . S
C1026 C1027 1.372 1_545 S
C1027 C1026 1.372 1_565 S
C1027 C1028 1.400 . S
C1027 C1032 1.490 1_556 S
C1028 H1018 0.930 . S
C1028 C1027 1.400 . S
C1028 C1031 1.386 . S
H1029 C1045 0.930 . S
H1030 C1046 0.931 . S
C1031 H1019 0.929 . S
C1031 C1025 1.390 . S
C1031 C1028 1.386 . S
C1032 C1027 1.490 1_554 S
C1032 C1034 1.395 1_565 S
C1032 C1035 1.403 . S
H1033 C1039 0.930 . S
C1034 H1020 0.930 . S
C1034 C1032 1.395 1_545 S
C1034 C1037 1.403 . S
C1035 C1032 1.403 . S
C1035 C1036 1.524 . S
C1035 C1039 1.400 . S
C1036 H1021 0.960 . S
C1036 H1022 0.960 . S
C1036 H1023 0.960 . S
C1036 C1035 1.524 . S
C1037 C1034 1.403 . S
C1037 C1038 1.425 . S
C1037 C1041 1.495 . S
C1038 C1037 1.425 . S
C1038 C1039 1.351 1_545 S
C1038 C1040 1.477 . S
C1039 H1033 0.930 . S
C1039 C1035 1.400 . S
C1039 C1038 1.351 1_565 S
C1040 C1038 1.477 . S
C1040 C1042 1.395 . S
C1040 C1046 1.368 1_545 S
C1041 C1037 1.495 . S
C1041 H1047 0.959 . S
C1041 H1048 0.961 . S
C1041 H1049 0.960 . S
C1042 C1040 1.395 . S
C1042 C1043 1.394 . S
C1042 H1050 0.930 . S
C1043 C1042 1.394 . S
C1043 C1044 1.383 1_545 S
C1043 H1051 0.929 . S
C1044 C1043 1.383 1_565 S
C1044 C1045 1.377 . S
C1045 H1029 0.930 . S
C1045 C1044 1.377 . S
C1045 C1046 1.379 . S
C1046 H1030 0.931 . S
C1046 C1040 1.368 1_565 S
C1046 C1045 1.379 . S
H1047 C1041 0.959 . S
H1048 C1041 0.961 . S
H1049 C1041 0.960 . S
H1050 C1042 0.930 . S
H1051 C1043 0.929 . S
H1052 C1060 0.929 . S
H1053 C1062 0.930 . S
H1054 C1064 0.930 . S
H1055 C1067 0.929 . S
H1056 C1070 0.930 . S
H1057 C1072 0.960 . S
H1058 C1072 0.960 . S
H1059 C1072 0.960 . S
C1060 H1052 0.929 . S
C1060 C1061 1.377 . S
C1060 C1062 1.384 . S
C1061 C1060 1.377 . S
C1061 C1067 1.390 . S
C1062 H1053 0.930 . S
C1062 C1060 1.384 . S
C1062 C1063 1.372 . S
C1063 C1062 1.372 . S
C1063 C1064 1.400 . S
C1063 C1068 1.490 . S
C1064 H1054 0.930 . S
C1064 C1063 1.400 . S
C1064 C1067 1.386 . S
H1065 C1081 0.930 . S
H1066 C1082 0.931 . S
C1067 H1055 0.929 . S
C1067 C1061 1.390 . S
C1067 C1064 1.386 . S
C1068 C1063 1.490 . S
C1068 C1070 1.395 . S
C1068 C1071 1.403 . S
H1069 C1075 0.930 . S
C1070 H1056 0.930 . S
C1070 C1068 1.395 . S
C1070 C1073 1.403 . S
C1071 C1068 1.403 . S
C1071 C1072 1.524 . S
C1071 C1075 1.400 . S
C1072 H1057 0.960 . S
C1072 H1058 0.960 . S
C1072 H1059 0.960 . S
C1072 C1071 1.524 . S
C1073 C1070 1.403 . S
C1073 C1074 1.392 . S
C1073 C1077 1.495 . S
C1074 C1073 1.392 . S
C1074 C1075 1.385 . S
C1074 C1076 1.478 . S
C1075 H1069 0.930 . S
C1075 C1071 1.400 . S
C1075 C1074 1.385 . S
C1076 C1074 1.478 . S
C1076 C1078 1.381 . S
C1076 C1082 1.383 . S
C1077 C1073 1.495 . S
C1077 H1083 0.959 . S
C1077 H1084 0.961 . S
C1077 H1085 0.960 . S
C1078 C1076 1.381 . S
C1078 C1079 1.394 . S
C1078 H1086 0.930 . S
C1079 C1078 1.394 . S
C1079 C1080 1.383 . S
C1079 H1087 0.929 . S
C1080 C1079 1.383 . S
C1080 C1081 1.377 . S
C1081 H1065 0.930 . S
C1081 C1080 1.377 . S
C1081 C1082 1.379 . S
C1082 H1066 0.931 . S
C1082 C1076 1.383 . S
C1082 C1081 1.379 . S
H1083 C1077 0.959 . S
H1084 C1077 0.961 . S
H1085 C1077 0.960 . S
H1086 C1078 0.930 . S
H1087 C1079 0.929 . S
H1088 C1096 0.929 . S
H1089 C1098 0.930 . S
H1090 C1100 0.930 . S
H1091 C1103 0.929 . S
H1092 C1106 0.930 . S
H1093 C1108 0.960 . S
H1094 C1108 0.960 . S
H1095 C1108 0.960 . S
C1096 H1088 0.929 . S
C1096 C1097 1.377 . S
C1096 C1098 1.384 . S
C1097 C1096 1.377 . S
C1097 C1103 1.390 . S
C1098 H1089 0.930 . S
C1098 C1096 1.384 . S
C1098 C1099 1.372 . S
C1099 C1098 1.372 . S
C1099 C1100 1.400 . S
C1099 C1104 1.490 . S
C1100 H1090 0.930 . S
C1100 C1099 1.400 . S
C1100 C1103 1.386 . S
H1101 C1117 0.930 . S
H1102 C1118 0.931 . S
C1103 H1091 0.929 . S
C1103 C1097 1.390 . S
C1103 C1100 1.386 . S
C1104 C1099 1.490 . S
C1104 C1106 1.395 . S
C1104 C1107 1.403 . S
H1105 C1111 0.930 . S
C1106 H1092 0.930 . S
C1106 C1104 1.395 . S
C1106 C1109 1.403 . S
C1107 C1104 1.403 . S
C1107 C1108 1.524 . S
C1107 C1111 1.400 . S
C1108 H1093 0.960 . S
C1108 H1094 0.960 . S
C1108 H1095 0.960 . S
C1108 C1107 1.524 . S
C1109 C1106 1.403 . S
C1109 C1110 1.392 . S
C1109 C1113 1.495 . S
C1110 C1109 1.392 . S
C1110 C1111 1.385 . S
C1110 C1112 1.478 . S
C1111 H1105 0.930 . S
C1111 C1107 1.400 . S
C1111 C1110 1.385 . S
C1112 C1110 1.478 . S
C1112 C1114 1.381 . S
C1112 C1118 1.383 . S
C1113 C1109 1.495 . S
C1113 H1119 0.959 . S
C1113 H1120 0.961 . S
C1113 H1121 0.960 . S
C1114 C1112 1.381 . S
C1114 C1115 1.394 . S
C1114 H1122 0.930 . S
C1115 C1114 1.394 . S
C1115 C1116 1.383 . S
C1115 H1123 0.929 . S
C1116 C1115 1.383 . S
C1116 C1117 1.377 . S
C1117 H1101 0.930 . S
C1117 C1116 1.377 . S
C1117 C1118 1.379 . S
C1118 H1102 0.931 . S
C1118 C1112 1.383 . S
C1118 C1117 1.379 . S
H1119 C1113 0.959 . S
H1120 C1113 0.961 . S
H1121 C1113 0.960 . S
H1122 C1114 0.930 . S
H1123 C1115 0.929 . S
H1124 C1132 0.929 . S
H1125 C1134 0.930 . S
H1126 C1136 0.930 . S
H1127 C1139 0.929 . S
H1128 C1142 0.930 . S
H1129 C1144 0.960 . S
H1130 C1144 0.960 . S
H1131 C1144 0.960 . S
C1132 H1124 0.929 . S
C1132 C1133 1.377 1_655 S
C1132 C1134 1.384 . S
C1133 C1132 1.377 1_455 S
C1133 C1139 1.390 . S
C1134 H1125 0.930 . S
C1134 C1132 1.384 . S
C1134 C1135 1.372 1_655 S
C1135 C1134 1.372 1_455 S
C1135 C1136 1.400 . S
C1135 C1140 1.490 . S
C1136 H1126 0.930 . S
C1136 C1135 1.400 . S
C1136 C1139 1.386 . S
H1137 C1153 0.930 . S
H1138 C1154 0.931 . S
C1139 H1127 0.929 . S
C1139 C1133 1.390 . S
C1139 C1136 1.386 . S
C1140 C1135 1.490 . S
C1140 C1142 1.395 . S
C1140 C1143 1.403 1_455 S
H1141 C1147 0.930 . S
C1142 H1128 0.930 . S
C1142 C1140 1.395 . S
C1142 C1145 1.403 . S
C1143 C1140 1.403 1_655 S
C1143 C1144 1.524 . S
C1143 C1147 1.400 . S
C1144 H1129 0.960 . S
C1144 H1130 0.960 . S
C1144 H1131 0.960 . S
C1144 C1143 1.524 . S
C1145 C1142 1.403 . S
C1145 C1146 1.392 . S
C1145 C1149 1.495 . S
C1146 C1145 1.392 . S
C1146 C1147 1.385 1_455 S
C1146 C1148 1.478 1_556 S
C1147 H1141 0.930 . S
C1147 C1143 1.400 . S
C1147 C1146 1.385 1_655 S
C1148 C1146 1.478 1_554 S
C1148 C1150 1.381 1_455 S
C1148 C1154 1.383 . S
C1149 C1145 1.495 . S
C1149 H1155 0.959 . S
C1149 H1156 0.961 . S
C1149 H1157 0.960 . S
C1150 C1148 1.381 1_655 S
C1150 C1151 1.394 . S
C1150 H1158 0.930 . S
C1151 C1150 1.394 . S
C1151 C1152 1.383 1_655 S
C1151 H1159 0.929 . S
C1152 C1151 1.383 1_455 S
C1152 C1153 1.377 . S
C1153 H1137 0.930 . S
C1153 C1152 1.377 . S
C1153 C1154 1.379 . S
C1154 H1138 0.931 . S
C1154 C1148 1.383 . S
C1154 C1153 1.379 . S
H1155 C1149 0.959 . S
H1156 C1149 0.961 . S
H1157 C1149 0.960 . S
H1158 C1150 0.930 . S
H1159 C1151 0.929 . S
H1160 C1168 0.929 . S
H1161 C1170 0.930 . S
H1162 C1172 0.930 . S
H1163 C1175 0.929 . S
H1164 C1178 0.930 . S
H1165 C1180 0.960 . S
H1166 C1180 0.960 1_545 S
H1167 C1180 0.960 . S
C1168 H1160 0.929 . S
C1168 C1169 1.377 . S
C1168 C1170 1.384 . S
C1169 C1168 1.377 . S
C1169 C1175 1.390 1_545 S
C1170 H1161 0.930 . S
C1170 C1168 1.384 . S
C1170 C1171 1.372 . S
C1171 C1170 1.372 . S
C1171 C1172 1.400 1_545 S
C1171 C1176 1.490 . S
C1172 H1162 0.930 . S
C1172 C1171 1.400 1_565 S
C1172 C1175 1.386 . S
H1173 C1189 0.930 . S
H1174 C1190 0.931 . S
C1175 H1163 0.929 . S
C1175 C1169 1.390 1_565 S
C1175 C1172 1.386 . S
C1176 C1171 1.490 . S
C1176 C1178 1.395 . S
C1176 C1179 1.403 . S
H1177 C1183 0.923 1_565 S
C1178 H1164 0.930 . S
C1178 C1176 1.395 . S
C1178 C1181 1.403 . S
C1179 C1176 1.403 . S
C1179 C1180 1.524 1_545 S
C1179 C1183 1.400 . S
C1180 H1165 0.960 . S
C1180 H1166 0.960 1_565 S
C1180 H1167 0.960 . S
C1180 C1179 1.524 1_565 S
C1181 C1178 1.403 . S
C1181 C1182 1.392 . S
C1181 C1185 1.495 . S
C1182 C1181 1.392 . S
C1182 C1183 1.385 . S
C1182 C1184 1.478 . S
C1183 H1177 0.923 1_545 S
C1183 C1179 1.400 . S
C1183 C1182 1.385 . S
C1184 C1182 1.478 . S
C1184 C1186 1.381 . S
C1184 C1190 1.383 1_545 S
C1185 C1181 1.495 . S
C1185 H1191 0.959 . S
C1185 H1192 0.961 1_545 S
C1185 H1193 0.960 . S
C1186 C1184 1.381 . S
C1186 C1187 1.394 . S
C1186 H1194 0.930 . S
C1187 C1186 1.394 . S
C1187 C1188 1.383 . S
C1187 H1195 0.929 . S
C1188 C1187 1.383 . S
C1188 C1189 1.377 1_545 S
C1189 H1173 0.930 . S
C1189 C1188 1.377 1_565 S
C1189 C1190 1.379 . S
C1190 H1174 0.931 . S
C1190 C1184 1.383 1_565 S
C1190 C1189 1.379 . S
H1191 C1185 0.959 . S
H1192 C1185 0.961 1_565 S
H1193 C1185 0.960 . S
H1194 C1186 0.930 . S
H1195 C1187 0.929 . S
H1196 C1204 0.929 . S
H1197 C1206 0.930 . S
H1198 C1208 0.930 . S
H1199 C1211 0.929 . S
H1200 C1214 0.930 . S
H1201 C1216 0.960 . S
H1202 C1216 0.960 . S
H1203 C1216 0.960 . S
C1204 H1196 0.929 . S
C1204 C1205 1.377 . S
C1204 C1206 1.384 . S
C1205 C1204 1.377 . S
C1205 C1211 1.390 . S
C1206 H1197 0.930 . S
C1206 C1204 1.384 . S
C1206 C1207 1.372 . S
C1207 C1206 1.372 . S
C1207 C1208 1.400 . S
C1207 C1212 1.490 1_554 S
C1208 H1198 0.930 . S
C1208 C1207 1.400 . S
C1208 C1211 1.386 . S
H1209 C1225 0.930 . S
H1210 C1226 0.931 . S
C1211 H1199 0.929 . S
C1211 C1205 1.390 . S
C1211 C1208 1.386 . S
C1212 C1207 1.490 1_556 S
C1212 C1214 1.395 . S
C1212 C1215 1.403 . S
H1213 C1219 0.930 . S
C1214 H1200 0.930 . S
C1214 C1212 1.395 . S
C1214 C1217 1.403 . S
C1215 C1212 1.403 . S
C1215 C1216 1.524 . S
C1215 C1219 1.400 . S
C1216 H1201 0.960 . S
C1216 H1202 0.960 . S
C1216 H1203 0.960 . S
C1216 C1215 1.524 . S
C1217 C1214 1.403 . S
C1217 C1218 1.392 . S
C1217 C1221 1.495 . S
C1218 C1217 1.392 . S
C1218 C1219 1.385 . S
C1218 C1220 1.478 . S
C1219 H1213 0.930 . S
C1219 C1215 1.400 . S
C1219 C1218 1.385 . S
C1220 C1218 1.478 . S
C1220 C1222 1.381 . S
C1220 C1226 1.383 . S
C1221 C1217 1.495 . S
C1221 H1227 0.959 . S
C1221 H1228 0.961 . S
C1221 H1229 0.960 . S
C1222 C1220 1.381 . S
C1222 C1223 1.394 . S
C1222 H1230 0.930 . S
C1223 C1222 1.394 . S
C1223 C1224 1.383 . S
C1223 H1231 0.929 . S
C1224 C1223 1.383 . S
C1224 C1225 1.377 . S
C1225 H1209 0.930 . S
C1225 C1224 1.377 . S
C1225 C1226 1.379 . S
C1226 H1210 0.931 . S
C1226 C1220 1.383 . S
C1226 C1225 1.379 . S
H1227 C1221 0.959 . S
H1228 C1221 0.961 . S
H1229 C1221 0.960 . S
H1230 C1222 0.930 . S
H1231 C1223 0.929 . S
H1232 C1240 0.929 . S
H1233 C1242 0.930 . S
H1234 C1244 0.930 . S
H1235 C1247 0.929 . S
H1236 C1250 0.930 . S
H1237 C1252 0.960 . S
H1238 C1252 0.960 . S
H1239 C1252 0.960 . S
C1240 H1232 0.929 . S
C1240 C1241 1.377 . S
C1240 C1242 1.384 . S
C1241 C1240 1.377 . S
C1241 C1247 1.390 . S
C1242 H1233 0.930 . S
C1242 C1240 1.384 . S
C1242 C1243 1.372 . S
C1243 C1242 1.372 . S
C1243 C1244 1.400 . S
C1243 C1248 1.490 . S
C1244 H1234 0.930 . S
C1244 C1243 1.400 . S
C1244 C1247 1.386 . S
H1245 C1261 0.930 . S
H1246 C1262 0.931 . S
C1247 H1235 0.929 . S
C1247 C1241 1.390 . S
C1247 C1244 1.386 . S
C1248 C1243 1.490 . S
C1248 C1250 1.395 . S
C1248 C1251 1.403 . S
H1249 C1255 0.930 . S
C1250 H1236 0.930 . S
C1250 C1248 1.395 . S
C1250 C1253 1.403 . S
C1251 C1248 1.403 . S
C1251 C1252 1.524 . S
C1251 C1255 1.400 . S
C1252 H1237 0.960 . S
C1252 H1238 0.960 . S
C1252 H1239 0.960 . S
C1252 C1251 1.524 . S
C1253 C1250 1.403 . S
C1253 C1254 1.392 . S
C1253 C1257 1.495 . S
C1254 C1253 1.392 . S
C1254 C1255 1.385 . S
C1254 C1256 1.478 1_556 S
C1255 H1249 0.930 . S
C1255 C1251 1.400 . S
C1255 C1254 1.385 . S
C1256 C1254 1.478 1_554 S
C1256 C1258 1.381 . S
C1256 C1262 1.383 . S
C1257 C1253 1.495 . S
C1257 H1263 0.959 . S
C1257 H1264 0.961 1_556 S
C1257 H1265 0.960 1_556 S
C1258 C1256 1.381 . S
C1258 C1259 1.394 . S
C1258 H1266 0.930 . S
C1259 C1258 1.394 . S
C1259 C1260 1.383 . S
C1259 H1267 0.929 . S
C1260 C1259 1.383 . S
C1260 C1261 1.377 . S
C1261 H1245 0.930 . S
C1261 C1260 1.377 . S
C1261 C1262 1.379 . S
C1262 H1246 0.931 . S
C1262 C1256 1.383 . S
C1262 C1261 1.379 . S
H1263 C1257 0.959 . S
H1264 C1257 0.961 1_554 S
H1265 C1257 0.960 1_554 S
H1266 C1258 0.930 . S
H1267 C1259 0.929 . S
H1268 C1276 0.929 . S
H1269 C1278 0.930 . S
H1270 C1280 0.930 . S
H1271 C1283 0.929 . S
H1272 C1286 0.932 . S
H1273 C1288 0.960 . S
H1274 C1288 0.960 1_655 S
H1275 C1288 0.960 . S
C1276 H1268 0.929 . S
C1276 C1277 1.377 1_655 S
C1276 C1278 1.384 . S
C1277 C1276 1.377 1_455 S
C1277 C1283 1.390 . S
C1278 H1269 0.930 . S
C1278 C1276 1.384 . S
C1278 C1279 1.372 1_655 S
C1279 C1278 1.372 1_455 S
C1279 C1280 1.400 . S
C1279 C1284 1.490 . S
C1280 H1270 0.930 . S
C1280 C1279 1.400 . S
C1280 C1283 1.386 . S
H1281 C1297 0.930 . S
H1282 C1298 0.931 . S
C1283 H1271 0.929 . S
C1283 C1277 1.390 . S
C1283 C1280 1.386 . S
C1284 C1279 1.490 . S
C1284 C1286 1.393 1_455 S
C1284 C1287 1.403 . S
H1285 C1291 0.930 . S
C1286 H1272 0.932 . S
C1286 C1284 1.393 1_655 S
C1286 C1289 1.403 . S
C1287 C1284 1.403 . S
C1287 C1288 1.524 . S
C1287 C1291 1.400 . S
C1288 H1273 0.960 . S
C1288 H1274 0.960 1_455 S
C1288 H1275 0.960 . S
C1288 C1287 1.524 . S
C1289 C1286 1.403 . S
C1289 C1290 1.390 1_655 S
C1289 C1293 1.498 . S
C1290 C1289 1.390 1_455 S
C1290 C1291 1.385 . S
C1290 C1292 1.478 . S
C1291 H1285 0.930 . S
C1291 C1287 1.400 . S
C1291 C1290 1.385 . S
C1292 C1290 1.478 . S
C1292 C1294 1.381 1_455 S
C1292 C1298 1.383 . S
C1293 C1289 1.498 . S
C1293 H1299 0.959 . S
C1293 H1300 0.961 1_655 S
C1293 H1301 0.960 . S
C1294 C1292 1.381 1_655 S
C1294 C1295 1.394 . S
C1294 H1302 0.930 . S
C1295 C1294 1.394 . S
C1295 C1296 1.383 1_655 S
C1295 H1303 0.929 . S
C1296 C1295 1.383 1_455 S
C1296 C1297 1.377 . S
C1297 H1281 0.930 . S
C1297 C1296 1.377 . S
C1297 C1298 1.379 . S
C1298 H1282 0.931 . S
C1298 C1292 1.383 . S
C1298 C1297 1.379 . S
H1299 C1293 0.959 . S
H1300 C1293 0.961 1_455 S
H1301 C1293 0.960 . S
H1302 C1294 0.930 . S
H1303 C1295 0.929 . S
H1304 C1312 0.929 . S
H1305 C1314 0.930 . S
H1306 C1316 0.930 . S
H1307 C1319 0.929 . S
H1308 C1322 0.930 . S
H1309 C1324 0.960 . S
H1310 C1324 0.960 1_554 S
H1311 C1324 0.960 1_554 S
C1312 H1304 0.929 . S
C1312 C1313 1.377 1_565 S
C1312 C1314 1.384 . S
C1313 C1312 1.377 1_545 S
C1313 C1319 1.390 . S
C1314 H1305 0.930 . S
C1314 C1312 1.384 . S
C1314 C1315 1.372 1_565 S
C1315 C1314 1.372 1_545 S
C1315 C1316 1.400 . S
C1315 C1320 1.490 1_554 S
C1316 H1306 0.930 . S
C1316 C1315 1.400 . S
C1316 C1319 1.386 . S
H1317 C1333 0.930 . S
H1318 C1334 0.931 . S
C1319 H1307 0.929 . S
C1319 C1313 1.390 . S
C1319 C1316 1.386 . S
C1320 C1315 1.490 1_556 S
C1320 C1322 1.395 . S
C1320 C1323 1.403 1_545 S
H1321 C1327 0.930 . S
C1322 H1308 0.930 . S
C1322 C1320 1.395 . S
C1322 C1325 1.403 . S
C1323 C1320 1.403 1_565 S
C1323 C1324 1.524 . S
C1323 C1327 1.400 . S
C1324 H1309 0.960 . S
C1324 H1310 0.960 1_556 S
C1324 H1311 0.960 1_556 S
C1324 C1323 1.524 . S
C1325 C1322 1.403 . S
C1325 C1326 1.392 . S
C1325 C1329 1.495 . S
C1326 C1325 1.392 . S
C1326 C1327 1.385 1_545 S
C1326 C1328 1.478 . S
C1327 H1321 0.930 . S
C1327 C1323 1.400 . S
C1327 C1326 1.385 1_565 S
C1328 C1326 1.478 . S
C1328 C1330 1.381 1_545 S
C1328 C1334 1.383 . S
C1329 C1325 1.495 . S
C1329 H1335 0.959 . S
C1329 H1336 0.961 . S
C1329 H1337 0.960 . S
C1330 C1328 1.381 1_565 S
C1330 C1331 1.394 . S
C1330 H1338 0.930 . S
C1331 C1330 1.394 . S
C1331 C1332 1.383 1_565 S
C1331 H1339 0.929 . S
C1332 C1331 1.383 1_545 S
C1332 C1333 1.377 . S
C1333 H1317 0.930 . S
C1333 C1332 1.377 . S
C1333 C1334 1.379 . S
C1334 H1318 0.931 . S
C1334 C1328 1.383 . S
C1334 C1333 1.379 . S
H1335 C1329 0.959 . S
H1336 C1329 0.961 . S
H1337 C1329 0.960 . S
H1338 C1330 0.930 . S
H1339 C1331 0.929 . S
H1340 C1348 0.929 . S
H1341 C1350 0.930 . S
H1342 C1352 0.930 . S
H1343 C1355 0.929 . S
H1344 C1358 0.930 . S
H1345 C1360 0.960 . S
H1346 C1360 0.960 . S
H1347 C1360 0.960 . S
C1348 H1340 0.929 . S
C1348 C1349 1.377 . S
C1348 C1350 1.384 . S
C1349 C1348 1.377 . S
C1349 C1355 1.390 . S
C1350 H1341 0.930 . S
C1350 C1348 1.384 . S
C1350 C1351 1.372 . S
C1351 C1350 1.372 . S
C1351 C1352 1.400 . S
C1351 C1356 1.490 . S
C1352 H1342 0.930 . S
C1352 C1351 1.400 . S
C1352 C1355 1.386 . S
H1353 C1369 0.930 . S
H1354 C1370 0.931 . S
C1355 H1343 0.929 . S
C1355 C1349 1.390 . S
C1355 C1352 1.386 . S
C1356 C1351 1.490 . S
C1356 C1358 1.395 . S
C1356 C1359 1.403 . S
H1357 C1363 0.930 . S
C1358 H1344 0.930 . S
C1358 C1356 1.395 . S
C1358 C1361 1.403 . S
C1359 C1356 1.403 . S
C1359 C1360 1.524 . S
C1359 C1363 1.400 . S
C1360 H1345 0.960 . S
C1360 H1346 0.960 . S
C1360 H1347 0.960 . S
C1360 C1359 1.524 . S
C1361 C1358 1.403 . S
C1361 C1362 1.392 . S
C1361 C1365 1.495 . S
C1362 C1361 1.392 . S
C1362 C1363 1.385 . S
C1362 C1364 1.478 . S
C1363 H1357 0.930 . S
C1363 C1359 1.400 . S
C1363 C1362 1.385 . S
C1364 C1362 1.478 . S
C1364 C1366 1.381 . S
C1364 C1370 1.383 . S
C1365 C1361 1.495 . S
C1365 H1371 0.959 . S
C1365 H1372 0.961 . S
C1365 H1373 0.960 . S
C1366 C1364 1.381 . S
C1366 C1367 1.394 . S
C1366 H1374 0.930 . S
C1367 C1366 1.394 . S
C1367 C1368 1.383 . S
C1367 H1375 0.929 . S
C1368 C1367 1.383 . S
C1368 C1369 1.377 . S
C1369 H1353 0.930 . S
C1369 C1368 1.377 . S
C1369 C1370 1.379 . S
C1370 H1354 0.931 . S
C1370 C1364 1.383 . S
C1370 C1369 1.379 . S
H1371 C1365 0.959 . S
H1372 C1365 0.961 . S
H1373 C1365 0.960 . S
H1374 C1366 0.930 . S
H1375 C1367 0.929 . S
H1376 C1384 0.929 . S
H1377 C1386 0.930 . S
H1378 C1388 0.930 . S
H1379 C1391 0.929 . S
H1380 C1394 0.930 . S
H1381 C1396 0.960 . S
H1382 C1396 0.960 . S
H1383 C1396 0.960 . S
C1384 H1376 0.929 . S
C1384 C1385 1.377 . S
C1384 C1386 1.384 . S
C1385 C1384 1.377 . S
C1385 C1391 1.390 . S
C1386 H1377 0.930 . S
C1386 C1384 1.384 . S
C1386 C1387 1.372 . S
C1387 C1386 1.372 . S
C1387 C1388 1.400 . S
C1387 C1392 1.490 . S
C1388 H1378 0.930 . S
C1388 C1387 1.400 . S
C1388 C1391 1.386 . S
H1389 C1405 0.930 . S
H1390 C1406 0.931 . S
C1391 H1379 0.929 . S
C1391 C1385 1.390 . S
C1391 C1388 1.386 . S
C1392 C1387 1.490 . S
C1392 C1394 1.395 . S
C1392 C1395 1.403 . S
H1393 C1399 0.930 . S
C1394 H1380 0.930 . S
C1394 C1392 1.395 . S
C1394 C1397 1.403 . S
C1395 C1392 1.403 . S
C1395 C1396 1.524 . S
C1395 C1399 1.400 . S
C1396 H1381 0.960 . S
C1396 H1382 0.960 . S
C1396 H1383 0.960 . S
C1396 C1395 1.524 . S
C1397 C1394 1.403 . S
C1397 C1398 1.392 . S
C1397 C1401 1.495 . S
C1398 C1397 1.392 . S
C1398 C1399 1.385 . S
C1398 C1400 1.478 . S
C1399 H1393 0.930 . S
C1399 C1395 1.400 . S
C1399 C1398 1.385 . S
C1400 C1398 1.478 . S
C1400 C1402 1.381 . S
C1400 C1406 1.383 . S
C1401 C1397 1.495 . S
C1401 H1407 0.959 . S
C1401 H1408 0.961 . S
C1401 H1409 0.960 . S
C1402 C1400 1.381 . S
C1402 C1403 1.394 . S
C1402 H1410 0.930 . S
C1403 C1402 1.394 . S
C1403 C1404 1.383 . S
C1403 H1411 0.929 . S
C1404 C1403 1.383 . S
C1404 C1405 1.377 . S
C1405 H1389 0.930 . S
C1405 C1404 1.377 . S
C1405 C1406 1.379 . S
C1406 H1390 0.931 . S
C1406 C1400 1.383 . S
C1406 C1405 1.379 . S
H1407 C1401 0.959 . S
H1408 C1401 0.961 . S
H1409 C1401 0.960 . S
H1410 C1402 0.930 . S
H1411 C1403 0.929 . S
H1412 C1420 0.929 . S
H1413 C1422 0.930 . S
H1414 C1424 0.930 . S
H1415 C1427 0.929 . S
H1416 C1430 0.930 . S
H1417 C1432 0.960 . S
H1418 C1432 0.960 . S
H1419 C1432 0.960 . S
C1420 H1412 0.929 . S
C1420 C1421 1.377 . S
C1420 C1422 1.384 . S
C1421 C1420 1.377 . S
C1421 C1427 1.390 1_655 S
C1422 H1413 0.930 . S
C1422 C1420 1.384 . S
C1422 C1423 1.372 . S
C1423 C1422 1.372 . S
C1423 C1424 1.400 1_655 S
C1423 C1428 1.490 . S
C1424 H1414 0.930 . S
C1424 C1423 1.400 1_455 S
C1424 C1427 1.386 . S
H1425 C1441 0.930 . S
H1426 C1442 0.931 . S
C1427 H1415 0.929 . S
C1427 C1421 1.390 1_455 S
C1427 C1424 1.386 . S
C1428 C1423 1.490 . S
C1428 C1430 1.395 1_655 S
C1428 C1431 1.403 . S
H1429 C1435 0.930 . S
C1430 H1416 0.930 . S
C1430 C1428 1.395 1_455 S
C1430 C1433 1.403 . S
C1431 C1428 1.403 . S
C1431 C1432 1.524 . S
C1431 C1435 1.400 . S
C1432 H1417 0.960 . S
C1432 H1418 0.960 . S
C1432 H1419 0.960 . S
C1432 C1431 1.524 . S
C1433 C1430 1.403 . S
C1433 C1434 1.392 1_455 S
C1433 C1437 1.495 . S
C1434 C1433 1.392 1_655 S
C1434 C1435 1.385 . S
C1434 C1436 1.479 1_554 S
C1435 H1429 0.930 . S
C1435 C1431 1.400 . S
C1435 C1434 1.385 . S
C1436 C1434 1.479 1_556 S
C1436 C1438 1.394 . S
C1436 C1442 1.371 1_655 S
C1437 C1433 1.495 . S
C1437 H1443 0.959 . S
C1437 H1444 0.961 . S
C1437 H1445 0.960 . S
C1438 C1436 1.394 . S
C1438 C1439 1.394 . S
C1438 H1446 0.930 . S
C1439 C1438 1.394 . S
C1439 C1440 1.383 . S
C1439 H1447 0.929 . S
C1440 C1439 1.383 . S
C1440 C1441 1.377 1_655 S
C1441 H1425 0.930 . S
C1441 C1440 1.377 1_455 S
C1441 C1442 1.379 . S
C1442 H1426 0.931 . S
C1442 C1436 1.371 1_455 S
C1442 C1441 1.379 . S
H1443 C1437 0.959 . S
H1444 C1437 0.961 . S
H1445 C1437 0.960 . S
H1446 C1438 0.930 . S
H1447 C1439 0.929 . S
H1448 C1456 0.929 . S
H1449 C1458 0.930 . S
H1450 C1460 0.930 . S
H1451 C1463 0.929 . S
H1452 C1466 0.930 . S
H1453 C1468 0.960 . S
H1454 C1468 0.960 . S
H1455 C1468 0.960 . S
C1456 H1448 0.929 . S
C1456 C1457 1.377 . S
C1456 C1458 1.384 . S
C1457 C1456 1.377 . S
C1457 C1463 1.390 1_565 S
C1458 H1449 0.930 . S
C1458 C1456 1.384 . S
C1458 C1459 1.372 . S
C1459 C1458 1.372 . S
C1459 C1460 1.400 1_565 S
C1459 C1464 1.490 . S
C1460 H1450 0.930 . S
C1460 C1459 1.400 1_545 S
C1460 C1463 1.386 . S
H1461 C1477 0.930 . S
H1462 C1478 0.931 . S
C1463 H1451 0.929 . S
C1463 C1457 1.390 1_545 S
C1463 C1460 1.386 . S
C1464 C1459 1.490 . S
C1464 C1466 1.395 . S
C1464 C1467 1.403 1_565 S
H1465 C1471 0.930 . S
C1466 H1452 0.930 . S
C1466 C1464 1.395 . S
C1466 C1469 1.403 . S
C1467 C1464 1.403 1_545 S
C1467 C1468 1.524 . S
C1467 C1471 1.400 . S
C1468 H1453 0.960 . S
C1468 H1454 0.960 . S
C1468 H1455 0.960 . S
C1468 C1467 1.524 . S
C1469 C1466 1.403 . S
C1469 C1470 1.392 . S
C1469 C1473 1.495 . S
C1470 C1469 1.392 . S
C1470 C1471 1.385 1_565 S
C1470 C1472 1.478 . S
C1471 H1465 0.930 . S
C1471 C1467 1.400 . S
C1471 C1470 1.385 1_545 S
C1472 C1470 1.478 . S
C1472 C1474 1.381 . S
C1472 C1478 1.383 1_565 S
C1473 C1469 1.495 . S
C1473 H1479 0.959 . S
C1473 H1480 0.961 . S
C1473 H1481 0.960 . S
C1474 C1472 1.381 . S
C1474 C1475 1.394 . S
C1474 H1482 0.930 . S
C1475 C1474 1.394 . S
C1475 C1476 1.383 . S
C1475 H1483 0.929 . S
C1476 C1475 1.383 . S
C1476 C1477 1.377 1_565 S
C1477 H1461 0.930 . S
C1477 C1476 1.377 1_545 S
C1477 C1478 1.379 . S
C1478 H1462 0.931 . S
C1478 C1472 1.383 1_545 S
C1478 C1477 1.379 . S
H1479 C1473 0.959 . S
H1480 C1473 0.961 . S
H1481 C1473 0.960 . S
H1482 C1474 0.930 . S
H1483 C1475 0.929 . S
H1484 C1492 0.929 . S
H1485 C1494 0.930 . S
H1486 C1496 0.930 . S
H1487 C1499 0.929 . S
H1488 C1502 0.930 . S
H1489 C1504 0.960 . S
H1490 C1504 0.960 . S
H1491 C1504 0.960 . S
C1492 H1484 0.929 . S
C1492 C1493 1.377 . S
C1492 C1494 1.384 . S
C1493 C1492 1.377 . S
C1493 C1499 1.390 . S
C1494 H1485 0.930 . S
C1494 C1492 1.384 . S
C1494 C1495 1.372 . S
C1495 C1494 1.372 . S
C1495 C1496 1.400 . S
C1495 C1500 1.490 1_556 S
C1496 H1486 0.930 . S
C1496 C1495 1.400 . S
C1496 C1499 1.386 . S
H1497 C1513 0.930 . S
H1498 C1514 0.931 . S
C1499 H1487 0.929 . S
C1499 C1493 1.390 . S
C1499 C1496 1.386 . S
C1500 C1495 1.490 1_554 S
C1500 C1502 1.395 . S
C1500 C1503 1.403 . S
H1501 C1507 0.930 . S
C1502 H1488 0.930 . S
C1502 C1500 1.395 . S
C1502 C1505 1.403 . S
C1503 C1500 1.403 . S
C1503 C1504 1.524 . S
C1503 C1507 1.400 . S
C1504 H1489 0.960 . S
C1504 H1490 0.960 . S
C1504 H1491 0.960 . S
C1504 C1503 1.524 . S
C1505 C1502 1.403 . S
C1505 C1506 1.392 . S
C1505 C1509 1.495 . S
C1506 C1505 1.392 . S
C1506 C1507 1.385 . S
C1506 C1508 1.478 . S
C1507 H1501 0.930 . S
C1507 C1503 1.400 . S
C1507 C1506 1.385 . S
C1508 C1506 1.478 . S
C1508 C1510 1.381 . S
C1508 C1514 1.383 . S
C1509 C1505 1.495 . S
C1509 H1515 0.959 . S
C1509 H1516 0.961 . S
C1509 H1517 0.960 . S
C1510 C1508 1.381 . S
C1510 C1511 1.394 . S
C1510 H1518 0.930 . S
C1511 C1510 1.394 . S
C1511 C1512 1.383 . S
C1511 H1519 0.929 . S
C1512 C1511 1.383 . S
C1512 C1513 1.377 . S
C1513 H1497 0.930 . S
C1513 C1512 1.377 . S
C1513 C1514 1.379 . S
C1514 H1498 0.931 . S
C1514 C1508 1.383 . S
C1514 C1513 1.379 . S
H1515 C1509 0.959 . S
H1516 C1509 0.961 . S
H1517 C1509 0.960 . S
H1518 C1510 0.930 . S
H1519 C1511 0.929 . S
H1520 C1528 0.929 . S
H1521 C1530 0.930 . S
H1522 C1532 0.930 . S
H1523 C1535 0.929 . S
H1524 C1538 0.930 . S
H1525 C1540 0.960 . S
H1526 C1540 0.960 . S
H1527 C1540 0.960 . S
C1528 H1520 0.929 . S
C1528 C1529 1.377 . S
C1528 C1530 1.384 . S
C1529 C1528 1.377 . S
C1529 C1535 1.390 . S
C1530 H1521 0.930 . S
C1530 C1528 1.384 . S
C1530 C1531 1.372 . S
C1531 C1530 1.372 . S
C1531 C1532 1.400 . S
C1531 C1536 1.490 . S
C1532 H1522 0.930 . S
C1532 C1531 1.400 . S
C1532 C1535 1.386 . S
H1533 C1549 0.930 . S
H1534 C1550 0.931 . S
C1535 H1523 0.929 . S
C1535 C1529 1.390 . S
C1535 C1532 1.386 . S
C1536 C1531 1.490 . S
C1536 C1538 1.395 . S
C1536 C1539 1.403 . S
H1537 C1543 0.930 . S
C1538 H1524 0.930 . S
C1538 C1536 1.395 . S
C1538 C1541 1.403 . S
C1539 C1536 1.403 . S
C1539 C1540 1.524 . S
C1539 C1543 1.400 . S
C1540 H1525 0.960 . S
C1540 H1526 0.960 . S
C1540 H1527 0.960 . S
C1540 C1539 1.524 . S
C1541 C1538 1.403 . S
C1541 C1542 1.392 . S
C1541 C1545 1.495 . S
C1542 C1541 1.392 . S
C1542 C1543 1.385 . S
C1542 C1544 1.478 . S
C1543 H1537 0.930 . S
C1543 C1539 1.400 . S
C1543 C1542 1.385 . S
C1544 C1542 1.478 . S
C1544 C1546 1.381 . S
C1544 C1550 1.383 . S
C1545 C1541 1.495 . S
C1545 H1551 0.959 . S
C1545 H1552 0.961 . S
C1545 H1553 0.960 . S
C1546 C1544 1.381 . S
C1546 C1547 1.394 . S
C1546 H1554 0.930 . S
C1547 C1546 1.394 . S
C1547 C1548 1.383 . S
C1547 H1555 0.929 . S
C1548 C1547 1.383 . S
C1548 C1549 1.377 . S
C1549 H1533 0.930 . S
C1549 C1548 1.377 . S
C1549 C1550 1.379 . S
C1550 H1534 0.931 . S
C1550 C1544 1.383 . S
C1550 C1549 1.379 . S
H1551 C1545 0.959 . S
H1552 C1545 0.961 . S
H1553 C1545 0.960 . S
H1554 C1546 0.930 . S
H1555 C1547 0.929 . S
H1556 C1564 0.929 . S
H1557 C1566 0.930 . S
H1558 C1568 0.930 . S
H1559 C1571 0.929 . S
H1560 C1574 0.930 . S
H1561 C1576 0.960 . S
H1562 C1576 0.960 . S
H1563 C1576 0.960 . S
C1564 H1556 0.929 . S
C1564 C1565 1.377 . S
C1564 C1566 1.384 . S
C1565 C1564 1.377 . S
C1565 C1571 1.390 . S
C1566 H1557 0.930 . S
C1566 C1564 1.384 . S
C1566 C1567 1.372 . S
C1567 C1566 1.372 . S
C1567 C1568 1.400 . S
C1567 C1572 1.490 . S
C1568 H1558 0.930 . S
C1568 C1567 1.400 . S
C1568 C1571 1.386 . S
H1569 C1585 0.930 . S
H1570 C1586 0.931 . S
C1571 H1559 0.929 . S
C1571 C1565 1.390 . S
C1571 C1568 1.386 . S
C1572 C1567 1.490 . S
C1572 C1574 1.395 . S
C1572 C1575 1.403 . S
H1573 C1579 0.930 . S
C1574 H1560 0.930 . S
C1574 C1572 1.395 . S
C1574 C1577 1.403 . S
C1575 C1572 1.403 . S
C1575 C1576 1.524 . S
C1575 C1579 1.400 . S
C1576 H1561 0.960 . S
C1576 H1562 0.960 . S
C1576 H1563 0.960 . S
C1576 C1575 1.524 . S
C1577 C1574 1.403 . S
C1577 C1578 1.392 . S
C1577 C1581 1.495 . S
C1578 C1577 1.392 . S
C1578 C1579 1.385 . S
C1578 C1580 1.478 . S
C1579 H1573 0.930 . S
C1579 C1575 1.400 . S
C1579 C1578 1.385 . S
C1580 C1578 1.478 . S
C1580 C1582 1.381 . S
C1580 C1586 1.383 . S
C1581 C1577 1.495 . S
C1581 H1587 0.959 . S
C1581 H1588 0.961 . S
C1581 H1589 0.960 . S
C1582 C1580 1.381 . S
C1582 C1583 1.394 . S
C1582 H1590 0.930 . S
C1583 C1582 1.394 . S
C1583 C1584 1.383 . S
C1583 H1591 0.929 . S
C1584 C1583 1.383 . S
C1584 C1585 1.377 . S
C1585 H1569 0.930 . S
C1585 C1584 1.377 . S
C1585 C1586 1.379 . S
C1586 H1570 0.931 . S
C1586 C1580 1.383 . S
C1586 C1585 1.379 . S
H1587 C1581 0.959 . S
H1588 C1581 0.961 . S
H1589 C1581 0.960 . S
H1590 C1582 0.930 . S
H1591 C1583 0.929 . S
H1592 C1600 0.929 . S
H1593 C1602 0.930 . S
H1594 C1604 0.930 . S
H1595 C1607 0.929 . S
H1596 C1610 0.930 . S
H1597 C1612 0.960 . S
H1598 C1612 0.960 . S
H1599 C1612 0.960 . S
C1600 H1592 0.929 . S
C1600 C1601 1.377 . S
C1600 C1602 1.384 . S
C1601 C1600 1.377 . S
C1601 C1607 1.390 . S
C1602 H1593 0.930 . S
C1602 C1600 1.384 . S
C1602 C1603 1.372 . S
C1603 C1602 1.372 . S
C1603 C1604 1.400 . S
C1603 C1608 1.490 . S
C1604 H1594 0.930 . S
C1604 C1603 1.400 . S
C1604 C1607 1.386 . S
H1605 C1621 0.930 . S
H1606 C1622 0.931 . S
C1607 H1595 0.929 . S
C1607 C1601 1.390 . S
C1607 C1604 1.386 . S
C1608 C1603 1.490 . S
C1608 C1610 1.395 . S
C1608 C1611 1.403 . S
H1609 C1615 0.930 . S
C1610 H1596 0.930 . S
C1610 C1608 1.395 . S
C1610 C1613 1.403 . S
C1611 C1608 1.403 . S
C1611 C1612 1.524 . S
C1611 C1615 1.400 . S
C1612 H1597 0.960 . S
C1612 H1598 0.960 . S
C1612 H1599 0.960 . S
C1612 C1611 1.524 . S
C1613 C1610 1.403 . S
C1613 C1614 1.392 . S
C1613 C1617 1.495 . S
C1614 C1613 1.392 . S
C1614 C1615 1.385 . S
C1614 C1616 1.478 . S
C1615 H1609 0.930 . S
C1615 C1611 1.400 . S
C1615 C1614 1.385 . S
C1616 C1614 1.478 . S
C1616 C1618 1.381 . S
C1616 C1622 1.383 . S
C1617 C1613 1.495 . S
C1617 H1623 0.959 . S
C1617 H1624 0.961 . S
C1617 H1625 0.960 . S
C1618 C1616 1.381 . S
C1618 C1619 1.394 . S
C1618 H1626 0.930 . S
C1619 C1618 1.394 . S
C1619 C1620 1.383 . S
C1619 H1627 0.929 . S
C1620 C1619 1.383 . S
C1620 C1621 1.377 . S
C1621 H1605 0.930 . S
C1621 C1620 1.377 . S
C1621 C1622 1.379 . S
C1622 H1606 0.931 . S
C1622 C1616 1.383 . S
C1622 C1621 1.379 . S
H1623 C1617 0.959 . S
H1624 C1617 0.961 . S
H1625 C1617 0.960 . S
H1626 C1618 0.930 . S
H1627 C1619 0.929 . S
H1628 C1636 0.929 . S
H1629 C1638 0.930 . S
H1630 C1640 0.930 . S
H1631 C1643 0.929 . S
H1632 C1646 0.930 . S
H1633 C1648 0.960 . S
H1634 C1648 0.960 . S
H1635 C1648 0.960 . S
C1636 H1628 0.929 . S
C1636 C1637 1.377 . S
C1636 C1638 1.384 . S
C1637 C1636 1.377 . S
C1637 C1643 1.390 . S
C1638 H1629 0.930 . S
C1638 C1636 1.384 . S
C1638 C1639 1.372 . S
C1639 C1638 1.372 . S
C1639 C1640 1.400 . S
C1639 C1644 1.490 . S
C1640 H1630 0.930 . S
C1640 C1639 1.400 . S
C1640 C1643 1.386 . S
H1641 C1657 0.930 . S
H1642 C1658 0.931 . S
C1643 H1631 0.929 . S
C1643 C1637 1.390 . S
C1643 C1640 1.386 . S
C1644 C1639 1.490 . S
C1644 C1646 1.395 . S
C1644 C1647 1.403 . S
H1645 C1651 0.930 . S
C1646 H1632 0.930 . S
C1646 C1644 1.395 . S
C1646 C1649 1.403 . S
C1647 C1644 1.403 . S
C1647 C1648 1.524 . S
C1647 C1651 1.400 . S
C1648 H1633 0.960 . S
C1648 H1634 0.960 . S
C1648 H1635 0.960 . S
C1648 C1647 1.524 . S
C1649 C1646 1.403 . S
C1649 C1650 1.392 . S
C1649 C1653 1.495 . S
C1650 C1649 1.392 . S
C1650 C1651 1.385 . S
C1650 C1652 1.478 . S
C1651 H1645 0.930 . S
C1651 C1647 1.400 . S
C1651 C1650 1.385 . S
C1652 C1650 1.478 . S
C1652 C1654 1.381 . S
C1652 C1658 1.383 . S
C1653 C1649 1.495 . S
C1653 H1659 0.959 . S
C1653 H1660 0.961 . S
C1653 H1661 0.960 . S
C1654 C1652 1.381 . S
C1654 C1655 1.394 . S
C1654 H1662 0.930 . S
C1655 C1654 1.394 . S
C1655 C1656 1.383 . S
C1655 H1663 0.929 . S
C1656 C1655 1.383 . S
C1656 C1657 1.377 . S
C1657 H1641 0.930 . S
C1657 C1656 1.377 . S
C1657 C1658 1.379 . S
C1658 H1642 0.931 . S
C1658 C1652 1.383 . S
C1658 C1657 1.379 . S
H1659 C1653 0.959 . S
H1660 C1653 0.961 . S
H1661 C1653 0.960 . S
H1662 C1654 0.930 . S
H1663 C1655 0.929 . S
H1664 C1672 0.929 . S
H1665 C1674 0.930 . S
H1666 C1676 0.930 . S
H1667 C1679 0.929 . S
H1668 C1682 0.930 . S
H1669 C1684 0.960 . S
H1670 C1684 0.960 . S
H1671 C1684 0.960 . S
C1672 H1664 0.929 . S
C1672 C1673 1.377 . S
C1672 C1674 1.384 . S
C1673 C1672 1.377 . S
C1673 C1679 1.390 . S
C1674 H1665 0.930 . S
C1674 C1672 1.384 . S
C1674 C1675 1.372 . S
C1675 C1674 1.372 . S
C1675 C1676 1.400 . S
C1675 C1680 1.490 . S
C1676 H1666 0.930 . S
C1676 C1675 1.400 . S
C1676 C1679 1.386 . S
H1677 C1693 0.930 . S
H1678 C1694 0.931 . S
C1679 H1667 0.929 . S
C1679 C1673 1.390 . S
C1679 C1676 1.386 . S
C1680 C1675 1.490 . S
C1680 C1682 1.395 . S
C1680 C1683 1.403 . S
H1681 C1687 0.930 . S
C1682 H1668 0.930 . S
C1682 C1680 1.395 . S
C1682 C1685 1.403 . S
C1683 C1680 1.403 . S
C1683 C1684 1.524 . S
C1683 C1687 1.400 . S
C1684 H1669 0.960 . S
C1684 H1670 0.960 . S
C1684 H1671 0.960 . S
C1684 C1683 1.524 . S
C1685 C1682 1.403 . S
C1685 C1686 1.392 . S
C1685 C1689 1.495 . S
C1686 C1685 1.392 . S
C1686 C1687 1.385 . S
C1686 C1688 1.478 . S
C1687 H1681 0.930 . S
C1687 C1683 1.400 . S
C1687 C1686 1.385 . S
C1688 C1686 1.478 . S
C1688 C1690 1.381 . S
C1688 C1694 1.383 . S
C1689 C1685 1.495 . S
C1689 H1695 0.959 . S
C1689 H1696 0.961 . S
C1689 H1697 0.960 . S
C1690 C1688 1.381 . S
C1690 C1691 1.394 . S
C1690 H1698 0.930 . S
C1691 C1690 1.394 . S
C1691 C1692 1.383 . S
C1691 H1699 0.929 . S
C1692 C1691 1.383 . S
C1692 C1693 1.377 . S
C1693 H1677 0.930 . S
C1693 C1692 1.377 . S
C1693 C1694 1.379 . S
C1694 H1678 0.931 . S
C1694 C1688 1.383 . S
C1694 C1693 1.379 . S
H1695 C1689 0.959 . S
H1696 C1689 0.961 . S
H1697 C1689 0.960 . S
H1698 C1690 0.930 . S
H1699 C1691 0.929 . S
H1700 C1708 0.929 . S
H1701 C1710 0.930 . S
H1702 C1712 0.930 . S
H1703 C1715 0.929 . S
H1704 C1718 0.930 . S
H1705 C1720 0.960 . S
H1706 C1720 0.960 . S
H1707 C1720 0.960 . S
C1708 H1700 0.929 . S
C1708 C1709 1.377 . S
C1708 C1710 1.384 . S
C1709 C1708 1.377 . S
C1709 C1715 1.390 . S
C1710 H1701 0.930 . S
C1710 C1708 1.384 . S
C1710 C1711 1.372 . S
C1711 C1710 1.372 . S
C1711 C1712 1.400 . S
C1711 C1716 1.490 . S
C1712 H1702 0.930 . S
C1712 C1711 1.400 . S
C1712 C1715 1.386 . S
H1713 C1729 0.930 . S
H1714 C1730 0.931 . S
C1715 H1703 0.929 . S
C1715 C1709 1.390 . S
C1715 C1712 1.386 . S
C1716 C1711 1.490 . S
C1716 C1718 1.395 . S
C1716 C1719 1.403 . S
H1717 C1723 0.930 . S
C1718 H1704 0.930 . S
C1718 C1716 1.395 . S
C1718 C1721 1.403 . S
C1719 C1716 1.403 . S
C1719 C1720 1.524 . S
C1719 C1723 1.400 . S
C1720 H1705 0.960 . S
C1720 H1706 0.960 . S
C1720 H1707 0.960 . S
C1720 C1719 1.524 . S
C1721 C1718 1.403 . S
C1721 C1722 1.392 . S
C1721 C1725 1.495 . S
C1722 C1721 1.392 . S
C1722 C1723 1.385 . S
C1722 C1724 1.478 . S
C1723 H1717 0.930 . S
C1723 C1719 1.400 . S
C1723 C1722 1.385 . S
C1724 C1722 1.478 . S
C1724 C1726 1.381 . S
C1724 C1730 1.383 . S
C1725 C1721 1.495 . S
C1725 H1731 0.959 . S
C1725 H1732 0.961 . S
C1725 H1733 0.960 . S
C1726 C1724 1.381 . S
C1726 C1727 1.394 . S
C1726 H1734 0.930 . S
C1727 C1726 1.394 . S
C1727 C1728 1.383 . S
C1727 H1735 0.929 . S
C1728 C1727 1.383 . S
C1728 C1729 1.377 . S
C1729 H1713 0.930 . S
C1729 C1728 1.377 . S
C1729 C1730 1.379 . S
C1730 H1714 0.931 . S
C1730 C1724 1.383 . S
C1730 C1729 1.379 . S
H1731 C1725 0.959 . S
H1732 C1725 0.961 . S
H1733 C1725 0.960 . S
H1734 C1726 0.930 . S
H1735 C1727 0.929 . S
H1736 C1744 0.929 . S
H1737 C1746 0.930 . S
H1738 C1748 0.930 . S
H1739 C1751 0.929 . S
H1740 C1754 0.930 . S
H1741 C1756 0.960 . S
H1742 C1756 0.960 . S
H1743 C1756 0.960 . S
C1744 H1736 0.929 . S
C1744 C1745 1.377 . S
C1744 C1746 1.384 . S
C1745 C1744 1.377 . S
C1745 C1751 1.390 . S
C1746 H1737 0.930 . S
C1746 C1744 1.384 . S
C1746 C1747 1.372 . S
C1747 C1746 1.372 . S
C1747 C1748 1.400 . S
C1747 C1752 1.490 . S
C1748 H1738 0.930 . S
C1748 C1747 1.400 . S
C1748 C1751 1.386 . S
H1749 C1765 0.930 . S
H1750 C1766 0.931 . S
C1751 H1739 0.929 . S
C1751 C1745 1.390 . S
C1751 C1748 1.386 . S
C1752 C1747 1.490 . S
C1752 C1754 1.395 . S
C1752 C1755 1.403 . S
H1753 C1759 0.930 . S
C1754 H1740 0.930 . S
C1754 C1752 1.395 . S
C1754 C1757 1.403 . S
C1755 C1752 1.403 . S
C1755 C1756 1.524 . S
C1755 C1759 1.400 . S
C1756 H1741 0.960 . S
C1756 H1742 0.960 . S
C1756 H1743 0.960 . S
C1756 C1755 1.524 . S
C1757 C1754 1.403 . S
C1757 C1758 1.392 . S
C1757 C1761 1.495 . S
C1758 C1757 1.392 . S
C1758 C1759 1.385 . S
C1758 C1760 1.478 . S
C1759 H1753 0.930 . S
C1759 C1755 1.400 . S
C1759 C1758 1.385 . S
C1760 C1758 1.478 . S
C1760 C1762 1.381 . S
C1760 C1766 1.383 . S
C1761 C1757 1.495 . S
C1761 H1767 0.959 . S
C1761 H1768 0.961 . S
C1761 H1769 0.960 . S
C1762 C1760 1.381 . S
C1762 C1763 1.394 . S
C1762 H1770 0.930 . S
C1763 C1762 1.394 . S
C1763 C1764 1.383 . S
C1763 H1771 0.929 . S
C1764 C1763 1.383 . S
C1764 C1765 1.377 . S
C1765 H1749 0.930 . S
C1765 C1764 1.377 . S
C1765 C1766 1.379 . S
C1766 H1750 0.931 . S
C1766 C1760 1.383 . S
C1766 C1765 1.379 . S
H1767 C1761 0.959 . S
H1768 C1761 0.961 . S
H1769 C1761 0.960 . S
H1770 C1762 0.930 . S
H1771 C1763 0.929 . S
H1772 C1780 0.929 . S
H1773 C1782 0.930 . S
H1774 C1784 0.930 . S
H1775 C1787 0.929 . S
H1776 C1790 0.930 . S
H1777 C1792 0.960 . S
H1778 C1792 0.960 . S
H1779 C1792 0.960 . S
C1780 H1772 0.929 . S
C1780 C1781 1.377 . S
C1780 C1782 1.384 . S
C1781 C1780 1.377 . S
C1781 C1787 1.390 . S
C1782 H1773 0.930 . S
C1782 C1780 1.384 . S
C1782 C1783 1.372 . S
C1783 C1782 1.372 . S
C1783 C1784 1.400 . S
C1783 C1788 1.490 . S
C1784 H1774 0.930 . S
C1784 C1783 1.400 . S
C1784 C1787 1.386 . S
H1785 C1801 0.930 . S
H1786 C1802 0.931 . S
C1787 H1775 0.929 . S
C1787 C1781 1.390 . S
C1787 C1784 1.386 . S
C1788 C1783 1.490 . S
C1788 C1790 1.395 . S
C1788 C1791 1.403 . S
H1789 C1795 0.930 . S
C1790 H1776 0.930 . S
C1790 C1788 1.395 . S
C1790 C1793 1.403 . S
C1791 C1788 1.403 . S
C1791 C1792 1.524 . S
C1791 C1795 1.400 . S
C1792 H1777 0.960 . S
C1792 H1778 0.960 . S
C1792 H1779 0.960 . S
C1792 C1791 1.524 . S
C1793 C1790 1.403 . S
C1793 C1794 1.392 . S
C1793 C1797 1.495 . S
C1794 C1793 1.392 . S
C1794 C1795 1.385 . S
C1794 C1796 1.478 . S
C1795 H1789 0.930 . S
C1795 C1791 1.400 . S
C1795 C1794 1.385 . S
C1796 C1794 1.478 . S
C1796 C1798 1.381 . S
C1796 C1802 1.383 . S
C1797 C1793 1.495 . S
C1797 H1803 0.959 . S
C1797 H1804 0.961 . S
C1797 H1805 0.960 . S
C1798 C1796 1.381 . S
C1798 C1799 1.394 . S
C1798 H1806 0.930 . S
C1799 C1798 1.394 . S
C1799 C1800 1.383 . S
C1799 H1807 0.929 . S
C1800 C1799 1.383 . S
C1800 C1801 1.377 . S
C1801 H1785 0.930 . S
C1801 C1800 1.377 . S
C1801 C1802 1.379 . S
C1802 H1786 0.931 . S
C1802 C1796 1.383 . S
C1802 C1801 1.379 . S
H1803 C1797 0.959 . S
H1804 C1797 0.961 . S
H1805 C1797 0.960 . S
H1806 C1798 0.930 . S
H1807 C1799 0.929 . S
H1808 C1816 0.929 . S
H1809 C1818 0.930 . S
H1810 C1820 0.930 . S
H1811 C1823 0.929 . S
H1812 C1826 0.930 . S
H1813 C1828 0.960 . S
H1814 C1828 0.960 . S
H1815 C1828 0.960 . S
C1816 H1808 0.929 . S
C1816 C1817 1.377 . S
C1816 C1818 1.384 . S
C1817 C1816 1.377 . S
C1817 C1823 1.390 . S
C1818 H1809 0.930 . S
C1818 C1816 1.384 . S
C1818 C1819 1.372 . S
C1819 C1818 1.372 . S
C1819 C1820 1.400 . S
C1819 C1824 1.490 . S
C1820 H1810 0.930 . S
C1820 C1819 1.400 . S
C1820 C1823 1.386 . S
H1821 C1837 0.930 . S
H1822 C1838 0.931 . S
C1823 H1811 0.929 . S
C1823 C1817 1.390 . S
C1823 C1820 1.386 . S
C1824 C1819 1.490 . S
C1824 C1826 1.395 . S
C1824 C1827 1.403 . S
H1825 C1831 0.930 . S
C1826 H1812 0.930 . S
C1826 C1824 1.395 . S
C1826 C1829 1.403 . S
C1827 C1824 1.403 . S
C1827 C1828 1.524 . S
C1827 C1831 1.400 . S
C1828 H1813 0.960 . S
C1828 H1814 0.960 . S
C1828 H1815 0.960 . S
C1828 C1827 1.524 . S
C1829 C1826 1.403 . S
C1829 C1830 1.392 . S
C1829 C1833 1.495 . S
C1830 C1829 1.392 . S
C1830 C1831 1.385 . S
C1830 C1832 1.478 . S
C1831 H1825 0.930 . S
C1831 C1827 1.400 . S
C1831 C1830 1.385 . S
C1832 C1830 1.478 . S
C1832 C1834 1.381 . S
C1832 C1838 1.383 . S
C1833 C1829 1.495 . S
C1833 H1839 0.959 . S
C1833 H1840 0.961 . S
C1833 H1841 0.960 . S
C1834 C1832 1.381 . S
C1834 C1835 1.394 . S
C1834 H1842 0.930 . S
C1835 C1834 1.394 . S
C1835 C1836 1.383 . S
C1835 H1843 0.929 . S
C1836 C1835 1.383 . S
C1836 C1837 1.377 . S
C1837 H1821 0.930 . S
C1837 C1836 1.377 . S
C1837 C1838 1.379 . S
C1838 H1822 0.931 . S
C1838 C1832 1.383 . S
C1838 C1837 1.379 . S
H1839 C1833 0.959 . S
H1840 C1833 0.961 . S
H1841 C1833 0.960 . S
H1842 C1834 0.930 . S
H1843 C1835 0.929 . S
H1844 C1852 0.929 . S
H1845 C1854 0.930 . S
H1846 C1856 0.930 . S
H1847 C1859 0.929 . S
H1848 C1862 0.930 . S
H1849 C1864 0.960 . S
H1850 C1864 0.960 . S
H1851 C1864 0.960 . S
C1852 H1844 0.929 . S
C1852 C1853 1.377 . S
C1852 C1854 1.384 . S
C1853 C1852 1.377 . S
C1853 C1859 1.390 . S
C1854 H1845 0.930 . S
C1854 C1852 1.384 . S
C1854 C1855 1.372 . S
C1855 C1854 1.372 . S
C1855 C1856 1.400 . S
C1855 C1860 1.490 . S
C1856 H1846 0.930 . S
C1856 C1855 1.400 . S
C1856 C1859 1.386 . S
H1857 C1873 0.930 . S
H1858 C1874 0.931 . S
C1859 H1847 0.929 . S
C1859 C1853 1.390 . S
C1859 C1856 1.386 . S
C1860 C1855 1.490 . S
C1860 C1862 1.395 . S
C1860 C1863 1.403 . S
H1861 C1867 0.930 . S
C1862 H1848 0.930 . S
C1862 C1860 1.395 . S
C1862 C1865 1.403 . S
C1863 C1860 1.403 . S
C1863 C1864 1.524 . S
C1863 C1867 1.400 . S
C1864 H1849 0.960 . S
C1864 H1850 0.960 . S
C1864 H1851 0.960 . S
C1864 C1863 1.524 . S
C1865 C1862 1.403 . S
C1865 C1866 1.392 . S
C1865 C1869 1.495 . S
C1866 C1865 1.392 . S
C1866 C1867 1.385 . S
C1866 C1868 1.478 . S
C1867 H1861 0.930 . S
C1867 C1863 1.400 . S
C1867 C1866 1.385 . S
C1868 C1866 1.478 . S
C1868 C1870 1.381 . S
C1868 C1874 1.383 . S
C1869 C1865 1.495 . S
C1869 H1875 0.959 . S
C1869 H1876 0.961 . S
C1869 H1877 0.960 . S
C1870 C1868 1.381 . S
C1870 C1871 1.394 . S
C1870 H1878 0.930 . S
C1871 C1870 1.394 . S
C1871 C1872 1.383 . S
C1871 H1879 0.929 . S
C1872 C1871 1.383 . S
C1872 C1873 1.377 . S
C1873 H1857 0.930 . S
C1873 C1872 1.377 . S
C1873 C1874 1.379 . S
C1874 H1858 0.931 . S
C1874 C1868 1.383 . S
C1874 C1873 1.379 . S
H1875 C1869 0.959 . S
H1876 C1869 0.961 . S
H1877 C1869 0.960 . S
H1878 C1870 0.930 . S
H1879 C1871 0.929 . S
H1880 C1888 0.929 . S
H1881 C1890 0.930 . S
H1882 C1892 0.930 . S
H1883 C1895 0.929 . S
H1884 C1898 0.930 . S
H1885 C1900 0.960 . S
H1886 C1900 0.960 . S
H1887 C1900 0.960 . S
C1888 H1880 0.929 . S
C1888 C1889 1.377 . S
C1888 C1890 1.384 . S
C1889 C1888 1.377 . S
C1889 C1895 1.390 . S
C1890 H1881 0.930 . S
C1890 C1888 1.384 . S
C1890 C1891 1.372 . S
C1891 C1890 1.372 . S
C1891 C1892 1.400 . S
C1891 C1896 1.490 . S
C1892 H1882 0.930 . S
C1892 C1891 1.400 . S
C1892 C1895 1.386 . S
H1893 C1909 0.930 . S
H1894 C1910 0.931 . S
C1895 H1883 0.929 . S
C1895 C1889 1.390 . S
C1895 C1892 1.386 . S
C1896 C1891 1.490 . S
C1896 C1898 1.395 . S
C1896 C1899 1.403 . S
H1897 C1903 0.930 . S
C1898 H1884 0.930 . S
C1898 C1896 1.395 . S
C1898 C1901 1.403 . S
C1899 C1896 1.403 . S
C1899 C1900 1.524 . S
C1899 C1903 1.400 . S
C1900 H1885 0.960 . S
C1900 H1886 0.960 . S
C1900 H1887 0.960 . S
C1900 C1899 1.524 . S
C1901 C1898 1.403 . S
C1901 C1902 1.392 . S
C1901 C1905 1.495 . S
C1902 C1901 1.392 . S
C1902 C1903 1.385 . S
C1902 C1904 1.478 . S
C1903 H1897 0.930 . S
C1903 C1899 1.400 . S
C1903 C1902 1.385 . S
C1904 C1902 1.478 . S
C1904 C1906 1.381 . S
C1904 C1910 1.383 . S
C1905 C1901 1.495 . S
C1905 H1911 0.959 . S
C1905 H1912 0.961 . S
C1905 H1913 0.960 . S
C1906 C1904 1.381 . S
C1906 C1907 1.394 . S
C1906 H1914 0.930 . S
C1907 C1906 1.394 . S
C1907 C1908 1.383 . S
C1907 H1915 0.929 . S
C1908 C1907 1.383 . S
C1908 C1909 1.377 . S
C1909 H1893 0.930 . S
C1909 C1908 1.377 . S
C1909 C1910 1.379 . S
C1910 H1894 0.931 . S
C1910 C1904 1.383 . S
C1910 C1909 1.379 . S
H1911 C1905 0.959 . S
H1912 C1905 0.961 . S
H1913 C1905 0.960 . S
H1914 C1906 0.930 . S
H1915 C1907 0.929 . S
H1916 C1924 0.929 . S
H1917 C1926 0.930 . S
H1918 C1928 0.930 . S
H1919 C1931 0.929 . S
H1920 C1934 0.930 . S
H1921 C1936 0.960 . S
H1922 C1936 0.960 . S
H1923 C1936 0.960 . S
C1924 H1916 0.929 . S
C1924 C1925 1.377 . S
C1924 C1926 1.384 . S
C1925 C1924 1.377 . S
C1925 C1931 1.390 . S
C1926 H1917 0.930 . S
C1926 C1924 1.384 . S
C1926 C1927 1.372 . S
C1927 C1926 1.372 . S
C1927 C1928 1.400 . S
C1927 C1932 1.490 . S
C1928 H1918 0.930 . S
C1928 C1927 1.400 . S
C1928 C1931 1.386 . S
H1929 C1945 0.930 . S
H1930 C1946 0.931 . S
C1931 H1919 0.929 . S
C1931 C1925 1.390 . S
C1931 C1928 1.386 . S
C1932 C1927 1.490 . S
C1932 C1934 1.395 . S
C1932 C1935 1.403 . S
H1933 C1939 0.930 . S
C1934 H1920 0.930 . S
C1934 C1932 1.395 . S
C1934 C1937 1.403 . S
C1935 C1932 1.403 . S
C1935 C1936 1.524 . S
C1935 C1939 1.400 . S
C1936 H1921 0.960 . S
C1936 H1922 0.960 . S
C1936 H1923 0.960 . S
C1936 C1935 1.524 . S
C1937 C1934 1.403 . S
C1937 C1938 1.392 . S
C1937 C1941 1.495 . S
C1938 C1937 1.392 . S
C1938 C1939 1.385 . S
C1938 C1940 1.478 . S
C1939 H1933 0.930 . S
C1939 C1935 1.400 . S
C1939 C1938 1.385 . S
C1940 C1938 1.478 . S
C1940 C1942 1.381 . S
C1940 C1946 1.383 . S
C1941 C1937 1.495 . S
C1941 H1947 0.959 . S
C1941 H1948 0.961 . S
C1941 H1949 0.960 . S
C1942 C1940 1.381 . S
C1942 C1943 1.394 . S
C1942 H1950 0.930 . S
C1943 C1942 1.394 . S
C1943 C1944 1.383 . S
C1943 H1951 0.929 . S
C1944 C1943 1.383 . S
C1944 C1945 1.377 . S
C1945 H1929 0.930 . S
C1945 C1944 1.377 . S
C1945 C1946 1.379 . S
C1946 H1930 0.931 . S
C1946 C1940 1.383 . S
C1946 C1945 1.379 . S
H1947 C1941 0.959 . S
H1948 C1941 0.961 . S
H1949 C1941 0.960 . S
H1950 C1942 0.930 . S
H1951 C1943 0.929 . S
H1952 C1960 0.929 . S
H1953 C1962 0.930 . S
H1954 C1964 0.930 . S
H1955 C1967 0.929 . S
H1956 C1970 0.930 . S
H1957 C1972 0.960 . S
H1958 C1972 0.960 . S
H1959 C1972 0.960 . S
C1960 H1952 0.929 . S
C1960 C1961 1.377 . S
C1960 C1962 1.384 . S
C1961 C1960 1.377 . S
C1961 C1967 1.390 . S
C1962 H1953 0.930 . S
C1962 C1960 1.384 . S
C1962 C1963 1.372 . S
C1963 C1962 1.372 . S
C1963 C1964 1.400 . S
C1963 C1968 1.490 . S
C1964 H1954 0.930 . S
C1964 C1963 1.400 . S
C1964 C1967 1.386 . S
H1965 C1981 0.930 . S
H1966 C1982 0.931 . S
C1967 H1955 0.929 . S
C1967 C1961 1.390 . S
C1967 C1964 1.386 . S
C1968 C1963 1.490 . S
C1968 C1970 1.395 . S
C1968 C1971 1.403 . S
H1969 C1975 0.930 . S
C1970 H1956 0.930 . S
C1970 C1968 1.395 . S
C1970 C1973 1.403 . S
C1971 C1968 1.403 . S
C1971 C1972 1.524 . S
C1971 C1975 1.400 . S
C1972 H1957 0.960 . S
C1972 H1958 0.960 . S
C1972 H1959 0.960 . S
C1972 C1971 1.524 . S
C1973 C1970 1.403 . S
C1973 C1974 1.392 . S
C1973 C1977 1.495 . S
C1974 C1973 1.392 . S
C1974 C1975 1.385 . S
C1974 C1976 1.478 . S
C1975 H1969 0.930 . S
C1975 C1971 1.400 . S
C1975 C1974 1.385 . S
C1976 C1974 1.478 . S
C1976 C1978 1.381 . S
C1976 C1982 1.383 . S
C1977 C1973 1.495 . S
C1977 H1983 0.959 . S
C1977 H1984 0.961 . S
C1977 H1985 0.960 . S
C1978 C1976 1.381 . S
C1978 C1979 1.394 . S
C1978 H1986 0.930 . S
C1979 C1978 1.394 . S
C1979 C1980 1.383 . S
C1979 H1987 0.929 . S
C1980 C1979 1.383 . S
C1980 C1981 1.377 . S
C1981 H1965 0.930 . S
C1981 C1980 1.377 . S
C1981 C1982 1.379 . S
C1982 H1966 0.931 . S
C1982 C1976 1.383 . S
C1982 C1981 1.379 . S
H1983 C1977 0.959 . S
H1984 C1977 0.961 . S
H1985 C1977 0.960 . S
H1986 C1978 0.930 . S
H1987 C1979 0.929 . S
H1988 C1996 0.929 . S
H1989 C1998 0.930 . S
H1990 C2000 0.930 . S
H1991 C2003 0.929 . S
H1992 C2006 0.930 . S
H1993 C2008 0.960 . S
H1994 C2008 0.960 . S
H1995 C2008 0.960 . S
C1996 H1988 0.929 . S
C1996 C1997 1.377 . S
C1996 C1998 1.384 . S
C1997 C1996 1.377 . S
C1997 C2003 1.390 . S
C1998 H1989 0.930 . S
C1998 C1996 1.384 . S
C1998 C1999 1.372 . S
C1999 C1998 1.372 . S
C1999 C2000 1.400 . S
C1999 C2004 1.490 . S
C2000 H1990 0.930 . S
C2000 C1999 1.400 . S
C2000 C2003 1.386 . S
H2001 C2017 0.930 . S
H2002 C2018 0.931 . S
C2003 H1991 0.929 . S
C2003 C1997 1.390 . S
C2003 C2000 1.386 . S
C2004 C1999 1.490 . S
C2004 C2006 1.395 . S
C2004 C2007 1.403 . S
H2005 C2011 0.930 . S
C2006 H1992 0.930 . S
C2006 C2004 1.395 . S
C2006 C2009 1.403 . S
C2007 C2004 1.403 . S
C2007 C2008 1.524 . S
C2007 C2011 1.400 . S
C2008 H1993 0.960 . S
C2008 H1994 0.960 . S
C2008 H1995 0.960 . S
C2008 C2007 1.524 . S
C2009 C2006 1.403 . S
C2009 C2010 1.392 . S
C2009 C2013 1.495 . S
C2010 C2009 1.392 . S
C2010 C2011 1.385 . S
C2010 C2012 1.478 . S
C2011 H2005 0.930 . S
C2011 C2007 1.400 . S
C2011 C2010 1.385 . S
C2012 C2010 1.478 . S
C2012 C2014 1.381 . S
C2012 C2018 1.383 . S
C2013 C2009 1.495 . S
C2013 H2019 0.959 . S
C2013 H2020 0.961 . S
C2013 H2021 0.960 . S
C2014 C2012 1.381 . S
C2014 C2015 1.394 . S
C2014 H2022 0.930 . S
C2015 C2014 1.394 . S
C2015 C2016 1.383 . S
C2015 H2023 0.929 . S
C2016 C2015 1.383 . S
C2016 C2017 1.377 . S
C2017 H2001 0.930 . S
C2017 C2016 1.377 . S
C2017 C2018 1.379 . S
C2018 H2002 0.931 . S
C2018 C2012 1.383 . S
C2018 C2017 1.379 . S
H2019 C2013 0.959 . S
H2020 C2013 0.961 . S
H2021 C2013 0.960 . S
H2022 C2014 0.930 . S
H2023 C2015 0.929 . S
H2024 C2032 0.929 . S
H2025 C2034 0.930 . S
H2026 C2036 0.930 . S
H2027 C2039 0.929 . S
H2028 C2042 0.930 . S
H2029 C2044 0.960 . S
H2030 C2044 0.960 . S
H2031 C2044 0.960 . S
C2032 H2024 0.929 . S
C2032 C2033 1.377 . S
C2032 C2034 1.384 . S
C2033 C2032 1.377 . S
C2033 C2039 1.390 . S
C2034 H2025 0.930 . S
C2034 C2032 1.384 . S
C2034 C2035 1.372 . S
C2035 C2034 1.372 . S
C2035 C2036 1.400 . S
C2035 C2040 1.490 . S
C2036 H2026 0.930 . S
C2036 C2035 1.400 . S
C2036 C2039 1.386 . S
H2037 C2053 0.930 . S
H2038 C2054 0.931 . S
C2039 H2027 0.929 . S
C2039 C2033 1.390 . S
C2039 C2036 1.386 . S
C2040 C2035 1.490 . S
C2040 C2042 1.395 . S
C2040 C2043 1.403 . S
H2041 C2047 0.930 . S
C2042 H2028 0.930 . S
C2042 C2040 1.395 . S
C2042 C2045 1.403 . S
C2043 C2040 1.403 . S
C2043 C2044 1.524 . S
C2043 C2047 1.400 . S
C2044 H2029 0.960 . S
C2044 H2030 0.960 . S
C2044 H2031 0.960 . S
C2044 C2043 1.524 . S
C2045 C2042 1.403 . S
C2045 C2046 1.392 . S
C2045 C2049 1.495 . S
C2046 C2045 1.392 . S
C2046 C2047 1.385 . S
C2046 C2048 1.478 . S
C2047 H2041 0.930 . S
C2047 C2043 1.400 . S
C2047 C2046 1.385 . S
C2048 C2046 1.478 . S
C2048 C2050 1.381 . S
C2048 C2054 1.383 . S
C2049 C2045 1.495 . S
C2049 H2055 0.959 . S
C2049 H2056 0.961 . S
C2049 H2057 0.960 . S
C2050 C2048 1.381 . S
C2050 C2051 1.394 . S
C2050 H2058 0.930 . S
C2051 C2050 1.394 . S
C2051 C2052 1.383 . S
C2051 H2059 0.929 . S
C2052 C2051 1.383 . S
C2052 C2053 1.377 . S
C2053 H2037 0.930 . S
C2053 C2052 1.377 . S
C2053 C2054 1.379 . S
C2054 H2038 0.931 . S
C2054 C2048 1.383 . S
C2054 C2053 1.379 . S
H2055 C2049 0.959 . S
H2056 C2049 0.961 . S
H2057 C2049 0.960 . S
H2058 C2050 0.930 . S
H2059 C2051 0.929 . S
H2060 C2068 0.929 . S
H2061 C2070 0.930 . S
H2062 C2072 0.930 . S
H2063 C2075 0.929 . S
H2064 C2078 0.930 . S
H2065 C2080 0.960 . S
H2066 C2080 0.960 . S
H2067 C2080 0.960 . S
C2068 H2060 0.929 . S
C2068 C2069 1.377 . S
C2068 C2070 1.384 . S
C2069 C2068 1.377 . S
C2069 C2075 1.390 . S
C2070 H2061 0.930 . S
C2070 C2068 1.384 . S
C2070 C2071 1.372 . S
C2071 C2070 1.372 . S
C2071 C2072 1.400 . S
C2071 C2076 1.490 . S
C2072 H2062 0.930 . S
C2072 C2071 1.400 . S
C2072 C2075 1.386 . S
H2073 C2089 0.930 . S
H2074 C2090 0.931 . S
C2075 H2063 0.929 . S
C2075 C2069 1.390 . S
C2075 C2072 1.386 . S
C2076 C2071 1.490 . S
C2076 C2078 1.395 . S
C2076 C2079 1.403 . S
H2077 C2083 0.930 . S
C2078 H2064 0.930 . S
C2078 C2076 1.395 . S
C2078 C2081 1.403 . S
C2079 C2076 1.403 . S
C2079 C2080 1.524 . S
C2079 C2083 1.400 . S
C2080 H2065 0.960 . S
C2080 H2066 0.960 . S
C2080 H2067 0.960 . S
C2080 C2079 1.524 . S
C2081 C2078 1.403 . S
C2081 C2082 1.392 . S
C2081 C2085 1.495 . S
C2082 C2081 1.392 . S
C2082 C2083 1.385 . S
C2082 C2084 1.478 . S
C2083 H2077 0.930 . S
C2083 C2079 1.400 . S
C2083 C2082 1.385 . S
C2084 C2082 1.478 . S
C2084 C2086 1.381 . S
C2084 C2090 1.383 . S
C2085 C2081 1.495 . S
C2085 H2091 0.959 . S
C2085 H2092 0.961 . S
C2085 H2093 0.960 . S
C2086 C2084 1.381 . S
C2086 C2087 1.394 . S
C2086 H2094 0.930 . S
C2087 C2086 1.394 . S
C2087 C2088 1.383 . S
C2087 H2095 0.929 . S
C2088 C2087 1.383 . S
C2088 C2089 1.377 . S
C2089 H2073 0.930 . S
C2089 C2088 1.377 . S
C2089 C2090 1.379 . S
C2090 H2074 0.931 . S
C2090 C2084 1.383 . S
C2090 C2089 1.379 . S
H2091 C2085 0.959 . S
H2092 C2085 0.961 . S
H2093 C2085 0.960 . S
H2094 C2086 0.930 . S
H2095 C2087 0.929 . S
C377 C16 0.921 . S
C396 C177 0.927 . S
C413 C108 0.918 . S
C432 C39 0.929 . S
C449 C131 0.920 . S
C468 C62 0.908 . S
C485 C85 0.913 . S
C504 C154 0.906 . S
C521 C362 0.903 . S
C540 C200 0.917 . S
C557 C292 0.920 . S
C576 C223 0.928 . S
C593 C315 0.921 . S
C612 C246 0.932 . S
C629 C338 0.922 . S
C648 C269 0.931 . S
C665 C20 1.116 . S
C684 C366 1.134 . S
C701 C43 1.109 . S
C720 C296 1.081 . S
C737 C66 1.093 . S
C756 C319 1.117 . S
C773 C342 1.089 . S
C792 C89 1.070 . S
C809 C227 1.097 . S
C828 C112 1.121 . S
C845 C135 1.100 . S
C864 C250 1.077 . S
C881 C273 1.094 . S
C900 C158 1.079 . S
C917 C181 1.082 . S
C936 C204 1.072 . S
C953 C294 1.316 . S
C972 C17 1.317 . S
C989 C40 1.305 . S
C1008 C317 1.334 . S
C1025 C340 1.309 . S
C1044 C63 1.317 . S
C1061 C364 1.315 . S
C1080 C86 1.333 . S
C1097 C109 1.323 . S
C1116 C202 1.308 . S
C1133 C132 1.311 . S
C1152 C225 1.295 . S
C1169 C155 1.309 . S
C1188 C248 1.335 . S
C1205 C271 1.315 . S
C1224 C178 1.284 . S
C1241 C201 1.311 . S
C1260 C110 1.325 . S
C1277 C224 1.311 . S
C1296 C133 1.330 . S
C1313 C156 1.309 . S
C1332 C247 1.291 . S
C1349 C270 1.312 . S
C1368 C179 1.332 . S
C1385 C293 1.309 . S
C1404 C18 1.301 . S
C1421 C316 1.302 . S
C1440 C41 1.307 . S
C1457 C64 1.312 . S
C1476 C339 1.280 . S
C1493 C87 1.366 . S
C1512 C361 1.327 . S
C1529 C19 1.496 . S
C1548 C228 1.480 . S
C1565 C251 1.475 . S
C1584 C42 1.484 . S
C1601 C65 1.492 . S
C1620 C274 1.486 . S
C1637 C88 1.517 . S
C1656 C205 1.510 . S
C1673 C111 1.470 . S
C1692 C365 1.485 . S
C1709 C134 1.488 . S
C1728 C297 1.448 . S
C1745 C157 1.498 . S
C1764 C320 1.491 . S
C1781 C343 1.473 . S
C1800 C180 1.495 . S
C1817 C44 1.477 . S
C1836 C203 1.506 . S
C1853 C67 1.468 . S
C1872 C226 1.503 . S
C1889 C249 1.492 . S
C1908 C90 1.476 . S
C1925 C272 1.491 . S
C1944 C21 1.445 . S
C1961 C182 1.473 . S
C1980 C295 1.491 . S
C1997 C113 1.465 . S
C2016 C318 1.486 . S
C2033 C136 1.466 . S
C2052 C341 1.493 . S
C2069 C159 1.472 . S
C2088 C363 1.493 . S
