# Generated by pormake.
# Topology vmh, (6)-cn, num edge types: 1
# Building blocks:
#     Node 0, Type 0, BuildingBlock: OJICUG_clean_sbu_0, # of connection points: 6
#     Node 1, Type 0, BuildingBlock: OJICUG_clean_sbu_0, # of connection points: 6
#     Node 2, Type 0, BuildingBlock: OJICUG_clean_sbu_0, # of connection points: 6
#     Node 3, Type 0, BuildingBlock: OJICUG_clean_sbu_0, # of connection points: 6
#     Node 4, Type 0, BuildingBlock: OJICUG_clean_sbu_0, # of connection points: 6
#     Node 5, Type 0, BuildingBlock: OJICUG_clean_sbu_0, # of connection points: 6
#     Node 6, Type 0, BuildingBlock: OJICUG_clean_sbu_0, # of connection points: 6
#     Node 7, Type 0, BuildingBlock: OJICUG_clean_sbu_0, # of connection points: 6
#     Edge 8, Type (0, 0), BuildingBlock: MIFKUJ_clean_linker_0, # of connection points: 2
#     Edge 9, Type (0, 0), BuildingBlock: MIFKUJ_clean_linker_0, # of connection points: 2
#     Edge 10, Type (0, 0), BuildingBlock: MIFKUJ_clean_linker_0, # of connection points: 2
#     Edge 11, Type (0, 0), BuildingBlock: MIFKUJ_clean_linker_0, # of connection points: 2
#     Edge 12, Type (0, 0), BuildingBlock: MIFKUJ_clean_linker_0, # of connection points: 2
#     Edge 13, Type (0, 0), BuildingBlock: MIFKUJ_clean_linker_0, # of connection points: 2
#     Edge 14, Type (0, 0), BuildingBlock: MIFKUJ_clean_linker_0, # of connection points: 2
#     Edge 15, Type (0, 0), BuildingBlock: MIFKUJ_clean_linker_0, # of connection points: 2
#     Edge 16, Type (0, 0), BuildingBlock: MIFKUJ_clean_linker_0, # of connection points: 2
#     Edge 17, Type (0, 0), BuildingBlock: MIFKUJ_clean_linker_0, # of connection points: 2
#     Edge 18, Type (0, 0), BuildingBlock: MIFKUJ_clean_linker_0, # of connection points: 2
#     Edge 19, Type (0, 0), BuildingBlock: MIFKUJ_clean_linker_0, # of connection points: 2
#     Edge 20, Type (0, 0), BuildingBlock: MIFKUJ_clean_linker_0, # of connection points: 2
#     Edge 21, Type (0, 0), BuildingBlock: MIFKUJ_clean_linker_0, # of connection points: 2
#     Edge 22, Type (0, 0), BuildingBlock: MIFKUJ_clean_linker_0, # of connection points: 2
#     Edge 23, Type (0, 0), BuildingBlock: MIFKUJ_clean_linker_0, # of connection points: 2
#     Edge 24, Type (0, 0), BuildingBlock: MIFKUJ_clean_linker_0, # of connection points: 2
#     Edge 25, Type (0, 0), BuildingBlock: MIFKUJ_clean_linker_0, # of connection points: 2
#     Edge 26, Type (0, 0), BuildingBlock: MIFKUJ_clean_linker_0, # of connection points: 2
#     Edge 27, Type (0, 0), BuildingBlock: MIFKUJ_clean_linker_0, # of connection points: 2
#     Edge 28, Type (0, 0), BuildingBlock: MIFKUJ_clean_linker_0, # of connection points: 2
#     Edge 29, Type (0, 0), BuildingBlock: MIFKUJ_clean_linker_0, # of connection points: 2
#     Edge 30, Type (0, 0), BuildingBlock: MIFKUJ_clean_linker_0, # of connection points: 2
#     Edge 31, Type (0, 0), BuildingBlock: MIFKUJ_clean_linker_0, # of connection points: 2
# Relax obj value: 0.243
# Max RMSD: 0.270
# Mean RMSD: 0.270
data_MOF--net-vmh--node1-OJICUG_clean_sbu_0--edge1-MIFKUJ_clean_linker_0
_symmetry_space_group_name_H-M    P1
_symmetry_Int_Tables_number       1
_symmetry_cell_setting            triclinic
loop_
_symmetry_equiv_pos_as_xyz
'x, y, z'
_cell_length_a     36.350421
_cell_length_b     54.92547
_cell_length_c     38.031893
_cell_angle_alpha  90.131651
_cell_angle_beta   98.58454
_cell_angle_gamma 89.77633
loop_
_atom_site_label
_atom_site_type_symbol
_atom_site_fract_x
_atom_site_fract_y
_atom_site_fract_z
_atom_type_partial_charge
Sc0 Sc 0.23096 0.08273 0.1 0.0
Sc1 Sc 0.24224 0.03278 0.04413 0.0
Sc2 Sc 0.29314 0.08596 0.03841 0.0
O3 O 0.25516 0.06724 0.06073 0.0
C4 C 0.23517 0.12742 0.04677 0.0
C5 C 0.16325 0.05353 0.05786 0.0
C6 C 0.24558 0.05928 0.97173 0.0
C7 C 0.24728 0.02787 0.12678 0.0
C8 C 0.31568 0.09938 0.1206 0.0
C9 C 0.32884 0.03404 0.0405 0.0
O10 O 0.22504 0.11844 0.07467 0.0
O11 O 0.18468 0.03716 0.04884 0.0
O12 O 0.27079 0.07381 0.98573 0.0
O13 O 0.23506 0.0494 0.12997 0.0
O14 O 0.32052 0.10017 0.08823 0.0
O15 O 0.29778 0.0232 0.03587 0.0
O16 O 0.28517 0.09229 0.13001 0.0
O17 O 0.25446 0.01923 0.0975 0.0
O18 O 0.33222 0.05674 0.04573 0.0
O19 O 0.17501 0.07313 0.07382 0.0
O20 O 0.25755 0.11676 0.02927 0.0
O21 O 0.22954 0.04424 0.98976 0.0
Sc22 Sc 0.75108 0.08607 0.38008 0.0
Sc23 Sc 0.74952 0.03379 0.43483 0.0
Sc24 Sc 0.68791 0.08204 0.44123 0.0
O25 O 0.72978 0.06734 0.41867 0.0
C26 C 0.73602 0.12932 0.43191 0.0
C27 C 0.82383 0.06214 0.42678 0.0
C28 C 0.73708 0.05899 0.50818 0.0
C29 C 0.75135 0.03155 0.3514 0.0
C30 C 0.66223 0.0942 0.35975 0.0
C31 C 0.66384 0.0263 0.43405 0.0
O32 O 0.75481 0.1203 0.40931 0.0
O33 O 0.80537 0.04632 0.44088 0.0
O34 O 0.71574 0.07571 0.49399 0.0
O35 O 0.74955 0.05445 0.34679 0.0
O36 O 0.65619 0.08936 0.39092 0.0
O37 O 0.69532 0.01745 0.43045 0.0
O38 O 0.69513 0.09526 0.35156 0.0
O39 O 0.75252 0.02154 0.38161 0.0
O40 O 0.65857 0.04862 0.44004 0.0
O41 O 0.80895 0.07751 0.40355 0.0
O42 O 0.71113 0.11748 0.4444 0.0
O43 O 0.74959 0.04209 0.49028 0.0
Sc44 Sc 0.75079 0.91481 0.88046 0.0
Sc45 Sc 0.75395 0.96747 0.93523 0.0
Sc46 Sc 0.69243 0.92015 0.94603 0.0
O47 O 0.73256 0.93411 0.92048 0.0
C48 C 0.6611 0.90843 0.86518 0.0
C49 C 0.75029 0.96942 0.85139 0.0
C50 C 0.67027 0.97636 0.94278 0.0
C51 C 0.82622 0.93764 0.92234 0.0
C52 C 0.73627 0.87162 0.93227 0.0
C53 C 0.74842 0.94195 0.00981 0.0
O54 O 0.69307 0.90774 0.85472 0.0
O55 O 0.75043 0.97976 0.8813 0.0
O56 O 0.66424 0.95409 0.94793 0.0
O57 O 0.80971 0.92118 0.90197 0.0
O58 O 0.71384 0.88413 0.94732 0.0
O59 O 0.76004 0.95858 0.99101 0.0
O60 O 0.75358 0.88023 0.90842 0.0
O61 O 0.8093 0.95481 0.93548 0.0
O62 O 0.72471 0.9261 -0.00289 0.0
O63 O 0.7507 0.94645 0.84745 0.0
O64 O 0.65723 0.91303 0.89716 0.0
O65 O 0.70111 0.98455 0.93663 0.0
Sc66 Sc 0.23206 0.91689 0.59641 0.0
Sc67 Sc 0.25363 0.96749 0.54567 0.0
Sc68 Sc 0.30052 0.91189 0.54125 0.0
O69 O 0.26174 0.93215 0.56091 0.0
C70 C 0.31529 0.89908 0.62401 0.0
C71 C 0.24086 0.97144 0.62585 0.0
C72 C 0.34153 0.96281 0.55527 0.0
C73 C 0.17075 0.94693 0.5445 0.0
C74 C 0.23968 0.87189 0.54417 0.0
C75 C 0.26728 0.94229 0.47305 0.0
O76 O 0.28367 0.9064 0.63091 0.0
O77 O 0.25161 0.98071 0.59864 0.0
O78 O 0.34096 0.93987 0.55144 0.0
O79 O 0.17929 0.92858 0.56497 0.0
O80 O 0.26417 0.88195 0.52884 0.0
O81 O 0.25459 0.95935 0.49045 0.0
O82 O 0.22732 0.88136 0.57066 0.0
O83 O 0.19449 0.96215 0.53649 0.0
O84 O 0.28412 0.9239 0.48781 0.0
O85 O 0.23218 0.94921 0.62755 0.0
O86 O 0.3226 0.8977 0.59245 0.0
O87 O 0.31228 0.97582 0.55325 0.0
Sc88 Sc 0.75656 0.58155 0.10778 0.0
Sc89 Sc 0.75586 0.52887 0.05332 0.0
Sc90 Sc 0.81651 0.57702 0.04371 0.0
O91 O 0.77612 0.56251 0.0683 0.0
C92 C 0.77119 0.62508 0.05665 0.0
C93 C 0.68244 0.55781 0.06559 0.0
C94 C 0.76086 0.5553 0.97935 0.0
C95 C 0.75939 0.52674 0.13688 0.0
C96 C 0.8459 0.5882 0.12519 0.0
C97 C 0.84016 0.52113 0.04643 0.0
O98 O 0.75369 0.61628 0.08022 0.0
O99 O 0.70004 0.54046 0.05367 0.0
O100 O 0.78493 0.57088 0.99228 0.0
O101 O 0.75697 0.54969 0.14021 0.0
O102 O 0.85057 0.58414 0.09325 0.0
O103 O 0.80909 0.51247 0.05106 0.0
O104 O 0.81359 0.58874 0.13486 0.0
O105 O 0.76053 0.51628 0.10724 0.0
O106 O 0.84588 0.54355 0.04239 0.0
O107 O 0.69822 0.57498 0.08497 0.0
O108 O 0.7942 0.61279 0.04203 0.0
O109 O 0.74903 0.53851 -0.00223 0.0
Sc110 Sc 0.27362 0.57997 0.39625 0.0
Sc111 Sc 0.24497 0.53026 0.44237 0.0
Sc112 Sc 0.20216 0.58666 0.4456 0.0
O113 O 0.24087 0.56541 0.42871 0.0
C114 C 0.26473 0.62354 0.45067 0.0
C115 C 0.32991 0.54893 0.44929 0.0
C116 C 0.22671 0.55338 0.51332 0.0
C117 C 0.26398 0.52593 0.36554 0.0
C118 C 0.19437 0.5991 0.36561 0.0
C119 C 0.15714 0.53928 0.42437 0.0
O120 O 0.27332 0.61603 0.42113 0.0
O121 O 0.30482 0.53305 0.45172 0.0
O122 O 0.20625 0.56979 0.49701 0.0
O123 O 0.2786 0.54692 0.36729 0.0
O124 O 0.1928 0.60705 0.39671 0.0
O125 O 0.18505 0.52543 0.43427 0.0
O126 O 0.22324 0.58785 0.35874 0.0
O127 O 0.24524 0.51812 0.38872 0.0
O128 O 0.15936 0.56234 0.42362 0.0
O129 O 0.32346 0.56915 0.43254 0.0
O130 O 0.24401 0.61138 0.46803 0.0
O131 O 0.24579 0.53871 0.49753 0.0
Sc132 Sc 0.27533 0.41441 0.88878 0.0
Sc133 Sc 0.27032 0.4656 0.94517 0.0
Sc134 Sc 0.21991 0.4127 0.95675 0.0
O135 O 0.25546 0.43089 0.9303 0.0
C136 C 0.18905 0.39961 0.87586 0.0
C137 C 0.26122 0.46924 0.86129 0.0
C138 C 0.18498 0.46573 0.95302 0.0
C139 C 0.34674 0.44248 0.92853 0.0
C140 C 0.27459 0.37001 0.94299 0.0
C141 C 0.27085 0.43984 0.02004 0.0
O142 O 0.21916 0.40432 0.86368 0.0
O143 O 0.25999 0.47876 0.89153 0.0
O144 O 0.18268 0.44279 0.95477 0.0
O145 O 0.33291 0.42439 0.90987 0.0
O146 O 0.25312 0.38067 0.96142 0.0
O147 O 0.2821 0.45621 0.00062 0.0
O148 O 0.28395 0.37918 0.91492 0.0
O149 O 0.32726 0.45848 0.94135 0.0
O150 O 0.24818 0.42332 0.00778 0.0
O151 O 0.26813 0.44682 0.85698 0.0
O152 O 0.18687 0.40046 0.90882 0.0
O153 O 0.21492 0.477 0.95098 0.0
Sc154 Sc 0.75545 0.41803 0.61241 0.0
Sc155 Sc 0.76162 0.47006 0.55824 0.0
Sc156 Sc 0.82332 0.4214 0.55547 0.0
O157 O 0.77998 0.43649 0.57547 0.0
C158 C 0.84317 0.40811 0.63749 0.0
C159 C 0.75441 0.47295 0.64038 0.0
C160 C 0.84807 0.47708 0.56145 0.0
C161 C 0.68545 0.44227 0.56302 0.0
C162 C 0.77329 0.37464 0.56151 0.0
C163 C 0.77776 0.44486 0.48634 0.0
O164 O 0.80972 0.40916 0.64429 0.0
O165 O 0.75828 0.48279 0.61098 0.0
O166 O 0.85418 0.45446 0.55891 0.0
O167 O 0.69886 0.42594 0.58531 0.0
O168 O 0.7985 0.3865 0.54958 0.0
O169 O 0.7626 0.46111 0.5033 0.0
O170 O 0.75426 0.38351 0.58404 0.0
O171 O 0.70525 0.45853 0.55153 0.0
O172 O 0.79964 0.42877 0.50158 0.0
O173 O 0.7532 0.45003 0.64469 0.0
O174 O 0.85134 0.41238 0.60686 0.0
O175 O 0.81595 0.48591 0.56223 0.0
H176 H 0.20555 0.02482 0.9308 0.0
H177 H 0.2026 0.019 0.86688 0.0
H178 H 0.26398 0.08535 0.85981 0.0
H179 H 0.26739 0.09142 0.92397 0.0
H180 H 0.19962 0.07177 0.79824 0.0
H181 H 0.31678 0.04451 0.86543 0.0
H182 H 0.35578 0.02332 0.9145 0.0
H183 H 0.29969 0.95611 0.88408 0.0
H184 H 0.25996 0.97708 0.83499 0.0
H185 H 0.26044 0.01963 0.6368 0.0
H186 H 0.25884 0.04348 0.69136 0.0
H187 H 0.21332 0.98171 0.73964 0.0
H188 H 0.2147 0.95796 0.68613 0.0
H189 H 0.2787 0.00066 0.77826 0.0
H190 H 0.15811 0.02629 0.71734 0.0
H191 H 0.11554 0.04527 0.66859 0.0
H192 H 0.17447 0.11288 0.68626 0.0
H193 H 0.21763 0.09414 0.73514 0.0
C194 C 0.21766 0.03853 0.91565 0.0
C195 C 0.23735 0.05832 0.93257 0.0
C196 C 0.21583 0.0352 0.87914 0.0
C197 C 0.23338 0.05167 0.85901 0.0
C198 C 0.2503 0.07253 0.87512 0.0
C199 C 0.25241 0.07582 0.91177 0.0
C200 C 0.2386 0.04493 0.82268 0.0
C201 C 0.21748 0.05659 0.79363 0.0
C202 C 0.26168 0.02501 0.81704 0.0
C203 C 0.28521 0.01242 0.84678 0.0
C204 C 0.3125 0.02528 0.86945 0.0
C205 C 0.33481 0.01326 0.89722 0.0
C206 C 0.33019 0.98834 0.90249 0.0
C207 C 0.30322 0.97541 0.87999 0.0
C208 C 0.28083 0.98734 0.85217 0.0
C209 C 0.24984 0.01125 0.65898 0.0
C210 C 0.23824 0.98678 0.6573 0.0
C211 C 0.24879 0.02491 0.68994 0.0
C212 C 0.23613 0.0142 0.71933 0.0
C213 C 0.22336 0.99017 0.71718 0.0
C214 C 0.22432 0.97662 0.68653 0.0
C215 C 0.23871 0.02685 0.75372 0.0
C216 C 0.26156 0.0163 0.78258 0.0
C217 C 0.21694 0.04752 0.759 0.0
C218 C 0.19137 0.05874 0.72949 0.0
C219 C 0.16223 0.04513 0.71057 0.0
C220 C 0.13791 0.05587 0.68299 0.0
C221 C 0.14236 0.08026 0.67418 0.0
C222 C 0.1711 0.09397 0.69305 0.0
C223 C 0.19547 0.08331 0.72073 0.0
H224 H 0.12348 0.08854 0.65281 0.0
H225 H 0.3475 0.97899 0.92392 0.0
H226 H 0.72574 0.01637 0.84073 0.0
H227 H 0.7275 0.04139 0.78756 0.0
H228 H 0.77949 0.98214 0.73861 0.0
H229 H 0.7773 0.95698 0.79102 0.0
H230 H 0.81341 0.0297 0.73401 0.0
H231 H 0.69381 0.98798 0.7148 0.0
H232 H 0.63223 0.97722 0.72987 0.0
H233 H 0.60137 0.0528 0.72802 0.0
H234 H 0.66306 0.06402 0.71341 0.0
H235 H 0.78175 0.02653 0.54905 0.0
H236 H 0.78949 0.02229 0.61338 0.0
H237 H 0.72042 0.08562 0.62068 0.0
H238 H 0.71201 0.0899 0.55609 0.0
H239 H 0.69603 0.04743 0.65346 0.0
H240 H 0.81158 0.08728 0.6569 0.0
H241 H 0.87251 0.09665 0.63925 0.0
H242 H 0.91142 0.02465 0.66918 0.0
H243 H 0.85056 0.01469 0.68652 0.0
C244 C 0.73761 0.00876 0.81862 0.0
C245 C 0.75117 0.98471 0.81983 0.0
C246 C 0.73862 0.02304 0.78843 0.0
C247 C 0.75378 0.01353 0.75949 0.0
C248 C 0.76791 0.98975 0.76091 0.0
C249 C 0.76632 0.97536 0.79069 0.0
C250 C 0.75363 0.02773 0.72674 0.0
C251 C 0.78786 0.03375 0.71632 0.0
C252 C 0.72012 0.03357 0.70451 0.0
C253 C 0.68325 0.02687 0.71367 0.0
C254 C 0.67407 0.00233 0.71807 0.0
C255 C 0.63912 0.99614 0.72642 0.0
C256 C 0.61301 0.01433 0.73015 0.0
C257 C 0.62172 0.03874 0.72533 0.0
C258 C 0.65666 0.04503 0.71702 0.0
C259 C 0.76866 0.03982 0.56428 0.0
C260 C 0.74587 0.05835 0.54735 0.0
C261 C 0.7734 0.0375 0.60113 0.0
C262 C 0.75573 0.05377 0.62176 0.0
C263 C 0.73435 0.07295 0.60516 0.0
C264 C 0.72958 0.07531 0.56825 0.0
C265 C 0.75598 0.0487 0.65989 0.0
C266 C 0.72171 0.04431 0.67146 0.0
C267 C 0.7895 0.04431 0.6831 0.0
C268 C 0.82636 0.05022 0.67292 0.0
C269 C 0.83303 0.07338 0.65952 0.0
C270 C 0.86759 0.07881 0.64959 0.0
C271 C 0.89581 0.06126 0.65307 0.0
C272 C 0.88955 0.03824 0.66654 0.0
C273 C 0.85503 0.03271 0.67649 0.0
H274 H 0.92254 0.06549 0.64534 0.0
H275 H 0.58596 0.0095 0.73659 0.0
H276 H 0.78088 0.98573 0.34945 0.0
H277 H 0.78578 0.96113 0.29634 0.0
H278 H 0.72997 0.01785 0.23014 0.0
H279 H 0.72513 0.04244 0.28267 0.0
H280 H 0.70328 0.97195 0.21116 0.0
H281 H 0.81977 0.01474 0.24158 0.0
H282 H 0.87828 0.02581 0.27964 0.0
H283 H 0.91443 0.95126 0.28072 0.0
H284 H 0.85561 0.93963 0.2435 0.0
H285 H 0.79205 0.97576 0.04891 0.0
H286 H 0.80081 0.9806 0.11329 0.0
H287 H 0.74162 0.91366 0.12325 0.0
H288 H 0.73228 0.90869 0.05877 0.0
H289 H 0.82722 0.95618 0.17565 0.0
H290 H 0.67634 0.92706 0.17562 0.0
H291 H 0.61827 0.92157 0.13353 0.0
H292 H 0.65182 0.97757 0.06646 0.0
H293 H 0.70979 0.98356 0.10838 0.0
C294 C 0.76933 0.99278 0.32355 0.0
C295 C 0.7527 0.016 0.32007 0.0
C296 C 0.77226 0.97878 0.29336 0.0
C297 C 0.75822 0.98776 0.25951 0.0
C298 C 0.7408 0.01062 0.25614 0.0
C299 C 0.73828 0.02469 0.28612 0.0
C300 C 0.7626 0.97407 0.22705 0.0
C301 C 0.73037 0.96802 0.20371 0.0
C302 C 0.798 0.96931 0.21729 0.0
C303 C 0.83301 0.97624 0.24026 0.0
C304 C 0.83993 0.00064 0.2504 0.0
C305 C 0.87318 0.00703 0.27177 0.0
C306 C 0.89999 0.98924 0.28272 0.0
C307 C 0.89357 0.96501 0.27237 0.0
C308 C 0.86023 0.9585 0.25122 0.0
C309 C 0.78162 0.96174 0.06475 0.0
C310 C 0.76049 0.94223 0.04864 0.0
C311 C 0.78696 0.96443 0.10161 0.0
C312 C 0.7713 0.94769 0.1228 0.0
C313 C 0.75352 0.92689 0.10716 0.0
C314 C 0.74804 0.9242 0.07029 0.0
C315 C 0.7679 0.95436 0.15974 0.0
C316 C 0.80019 0.95916 0.1838 0.0
C317 C 0.73256 0.95866 0.16991 0.0
C318 C 0.69752 0.9555 0.14487 0.0
C319 C 0.67123 0.93821 0.15193 0.0
C320 C 0.63836 0.93502 0.12811 0.0
C321 C 0.63144 0.94914 0.09728 0.0
C322 C 0.65728 0.96658 0.09028 0.0
C323 C 0.69013 0.96986 0.11404 0.0
H324 H 0.60601 0.94662 0.07886 0.0
H325 H 0.9258 0.99425 0.29912 0.0
H326 H 0.24887 0.04313 0.19495 0.0
H327 H 0.26238 0.01928 0.24888 0.0
H328 H 0.27701 0.95493 0.18714 0.0
H329 H 0.2633 0.97888 0.13219 0.0
H330 H 0.23147 0.94803 0.23994 0.0
H331 H 0.3518 0.97667 0.2329 0.0
H332 H 0.40036 0.0058 0.22229 0.0
H333 H 0.37638 0.0498 0.30954 0.0
H334 H 0.32719 0.02123 0.32033 0.0
H335 H 0.2791 0.90711 0.42478 0.0
H336 H 0.28342 0.9129 0.36165 0.0
H337 H 0.25698 0.98903 0.37096 0.0
H338 H 0.25228 0.98351 0.43372 0.0
H339 H 0.32368 0.97799 0.34 0.0
H340 H 0.19261 0.9542 0.33328 0.0
H341 H 0.14324 0.92538 0.34293 0.0
H342 H 0.19019 0.8713 0.28084 0.0
H343 H 0.24016 0.89976 0.27123 0.0
C344 C 0.25489 0.02391 0.19258 0.0
C345 C 0.25491 0.01289 0.15921 0.0
C346 C 0.26296 0.01036 0.22352 0.0
C347 C 0.27132 0.9855 0.2219 0.0
C348 C 0.27098 0.9742 0.18877 0.0
C349 C 0.26312 0.98787 0.15753 0.0
C350 C 0.27837 0.97165 0.25535 0.0
C351 C 0.2524 0.95396 0.26161 0.0
C352 C 0.30576 0.97946 0.28345 0.0
C353 C 0.33564 0.99674 0.27738 0.0
C354 C 0.35669 0.99263 0.24972 0.0
C355 C 0.38436 0.00905 0.24367 0.0
C356 C 0.39144 0.02964 0.26521 0.0
C357 C 0.37089 0.03383 0.2929 0.0
C358 C 0.34314 0.01748 0.29903 0.0
C359 C 0.27381 0.92503 0.41327 0.0
C360 C 0.26549 0.9449 0.43425 0.0
C361 C 0.27636 0.92826 0.37731 0.0
C362 C 0.2709 0.95141 0.36204 0.0
C363 C 0.26158 0.97107 0.38258 0.0
C364 C 0.25862 0.96784 0.41833 0.0
C365 C 0.2754 0.95566 0.32476 0.0
C366 C 0.30373 0.97141 0.31798 0.0
C367 C 0.25042 0.94596 0.29622 0.0
C368 C 0.22037 0.92895 0.30197 0.0
C369 C 0.1926 0.93608 0.32199 0.0
C370 C 0.16447 0.91984 0.32738 0.0
C371 C 0.16366 0.89649 0.31262 0.0
C372 C 0.19091 0.88937 0.29233 0.0
C373 C 0.21913 0.90554 0.2869 0.0
H374 H 0.14185 0.88393 0.31681 0.0
H375 H 0.41284 0.04235 0.26046 0.0
H376 H 0.72884 0.46004 0.70144 0.0
H377 H 0.71852 0.48636 0.75061 0.0
H378 H 0.7569 0.54828 0.69692 0.0
H379 H 0.76731 0.52201 0.64713 0.0
H380 H 0.79061 0.54284 0.76741 0.0
H381 H 0.66934 0.54758 0.70357 0.0
H382 H 0.61166 0.53238 0.66816 0.0
H383 H 0.58924 0.4894 0.75665 0.0
H384 H 0.64719 0.5039 0.7924 0.0
H385 H 0.7683 0.59242 0.93308 0.0
H386 H 0.75412 0.59115 0.86826 0.0
H387 H 0.7095 0.51879 0.87376 0.0
H388 H 0.7227 0.52009 0.9384 0.0
H389 H 0.67238 0.54387 0.81799 0.0
H390 H 0.80231 0.5274 0.86967 0.0
H391 H 0.86207 0.53892 0.90542 0.0
H392 H 0.86839 0.60158 0.83926 0.0
H393 H 0.80841 0.59052 0.80337 0.0
C394 C 0.73512 0.47924 0.69996 0.0
C395 C 0.74907 0.48891 0.67046 0.0
C396 C 0.72878 0.4943 0.7279 0.0
C397 C 0.73634 0.51927 0.72696 0.0
C398 C 0.75052 0.52906 0.69778 0.0
C399 C 0.75655 0.51402 0.66952 0.0
C400 C 0.73216 0.53439 0.75816 0.0
C401 C 0.76451 0.54387 0.77797 0.0
C402 C 0.6981 0.53541 0.77187 0.0
C403 C 0.66277 0.52684 0.7507 0.0
C404 C 0.65225 0.53478 0.71545 0.0
C405 C 0.61948 0.52628 0.6953 0.0
C406 C 0.5968 0.50994 0.71015 0.0
C407 C 0.60682 0.50208 0.7452 0.0
C408 C 0.63963 0.51047 0.76545 0.0
C409 C 0.75488 0.5764 0.92051 0.0
C410 C 0.74747 0.55608 0.9408 0.0
C411 C 0.74662 0.57579 0.8835 0.0
C412 C 0.73141 0.55472 0.8663 0.0
C413 C 0.72127 0.53523 0.88657 0.0
C414 C 0.72914 0.53592 0.92354 0.0
C415 C 0.73118 0.55115 0.82779 0.0
C416 C 0.69806 0.54384 0.80669 0.0
C417 C 0.7646 0.55185 0.8129 0.0
C418 C 0.80078 0.55832 0.83416 0.0
C419 C 0.8164 0.54369 0.86289 0.0
C420 C 0.85028 0.55013 0.88315 0.0
C421 C 0.86896 0.57101 0.87468 0.0
C422 C 0.85385 0.58544 0.84584 0.0
C423 C 0.81993 0.57911 0.82553 0.0
H424 H 0.89518 0.57597 0.8904 0.0
H425 H 0.57145 0.50337 0.6945 0.0
H426 H 0.18533 0.57848 0.55602 0.0
H427 H 0.18834 0.57501 0.62046 0.0
H428 H 0.27489 0.52079 0.62306 0.0
H429 H 0.27241 0.52422 0.5589 0.0
H430 H 0.17434 0.53525 0.65779 0.0
H431 H 0.3349 0.52576 0.69821 0.0
H432 H 0.39199 0.5425 0.68 0.0
H433 H 0.33183 0.60618 0.63859 0.0
H434 H 0.27449 0.59002 0.65702 0.0
H435 H 0.23649 0.45441 0.79378 0.0
H436 H 0.2246 0.4794 0.74044 0.0
H437 H 0.25596 0.54376 0.80281 0.0
H438 H 0.26772 0.51877 0.85681 0.0
H439 H 0.29204 0.53828 0.74267 0.0
H440 H 0.16928 0.54016 0.76998 0.0
H441 H 0.11127 0.52436 0.78749 0.0
H442 H 0.09476 0.47872 0.69474 0.0
H443 H 0.15291 0.49397 0.67687 0.0
C444 C 0.20521 0.56591 0.57032 0.0
C445 C 0.22858 0.55154 0.55228 0.0
C446 C 0.20685 0.56401 0.6071 0.0
C447 C 0.23216 0.54792 0.62645 0.0
C448 C 0.25565 0.53368 0.60861 0.0
C449 C 0.25396 0.53548 0.57188 0.0
C450 C 0.23249 0.54457 0.66498 0.0
C451 C 0.19991 0.53623 0.67653 0.0
C452 C 0.2657 0.54652 0.68945 0.0
C453 C 0.30031 0.55661 0.67891 0.0
C454 C 0.33388 0.54342 0.68548 0.0
C455 C 0.36629 0.55279 0.67504 0.0
C456 C 0.36553 0.57537 0.65811 0.0
C457 C 0.33237 0.58866 0.65164 0.0
C458 C 0.29989 0.57939 0.66204 0.0
C459 C 0.24077 0.47389 0.79625 0.0
C460 C 0.25329 0.48464 0.8294 0.0
C461 C 0.23362 0.48815 0.76582 0.0
C462 C 0.23905 0.51339 0.7679 0.0
C463 C 0.25137 0.5243 0.80089 0.0
C464 C 0.25806 0.51003 0.83158 0.0
C465 C 0.23441 0.52771 0.73482 0.0
C466 C 0.26621 0.53802 0.72423 0.0
C467 C 0.20043 0.52773 0.71129 0.0
C468 C 0.16557 0.51822 0.7221 0.0
C469 C 0.15345 0.52662 0.75343 0.0
C470 C 0.12049 0.51779 0.76339 0.0
C471 C 0.09931 0.50059 0.74219 0.0
C472 C 0.11114 0.4921 0.71107 0.0
C473 C 0.14406 0.50087 0.70098 0.0
H474 H 0.07371 0.49387 0.74982 0.0
H475 H 0.39063 0.58257 0.65001 0.0
H476 H 0.31035 0.53419 0.31716 0.0
H477 H 0.31462 0.51149 0.2631 0.0
H478 H 0.23414 0.45987 0.28974 0.0
H479 H 0.22937 0.48267 0.34458 0.0
H480 H 0.30199 0.44098 0.25621 0.0
H481 H 0.19665 0.49503 0.23832 0.0
H482 H 0.16433 0.53395 0.24507 0.0
H483 H 0.24123 0.57097 0.18852 0.0
H484 H 0.27444 0.53233 0.182 0.0
H485 H 0.25171 0.40876 0.07039 0.0
H486 H 0.25645 0.4166 0.134 0.0
H487 H 0.31726 0.48257 0.12184 0.0
H488 H 0.31236 0.47513 0.05807 0.0
H489 H 0.25307 0.49012 0.14994 0.0
H490 H 0.35861 0.43552 0.16848 0.0
H491 H 0.39138 0.39661 0.16312 0.0
H492 H 0.31279 0.35982 0.21796 0.0
H493 H 0.27922 0.39848 0.22322 0.0
C494 C 0.29371 0.51791 0.3119 0.0
C495 C 0.26892 0.5105 0.33482 0.0
C496 C 0.29647 0.50487 0.28112 0.0
C497 C 0.27451 0.48423 0.27259 0.0
C498 C 0.25133 0.47579 0.29621 0.0
C499 C 0.24848 0.48892 0.32727 0.0
C500 C 0.27302 0.47368 0.23691 0.0
C501 C 0.29066 0.45135 0.23282 0.0
C502 C 0.2586 0.48757 0.20677 0.0
C503 C 0.23822 0.5108 0.20993 0.0
C504 C 0.20685 0.5115 0.22756 0.0
C505 C 0.18834 0.5335 0.23132 0.0
C506 C 0.20077 0.55493 0.2173 0.0
C507 C 0.23165 0.55436 0.19939 0.0
C508 C 0.2503 0.53241 0.19562 0.0
C509 C 0.26685 0.42468 0.08129 0.0
C510 C 0.28097 0.44163 0.05901 0.0
C511 C 0.26968 0.42902 0.11771 0.0
C512 C 0.28691 0.45024 0.13239 0.0
C513 C 0.30365 0.46615 0.11078 0.0
C514 C 0.30084 0.46185 0.07436 0.0
C515 C 0.28304 0.45761 0.16893 0.0
C516 C 0.26408 0.47945 0.17316 0.0
C517 C 0.29591 0.44308 0.19895 0.0
C518 C 0.31616 0.41986 0.1959 0.0
C519 C 0.3481 0.4191 0.1791 0.0
C520 C 0.36687 0.3971 0.17615 0.0
C521 C 0.35411 0.37574 0.1901 0.0
C522 C 0.32261 0.37637 0.20712 0.0
C523 C 0.30373 0.39832 0.21013 0.0
H524 H 0.36868 0.35873 0.18778 0.0
H525 H 0.18643 0.57195 0.22027 0.0
H526 H 0.7489 0.542 0.20267 0.0
H527 H 0.75676 0.51868 0.25734 0.0
H528 H 0.7834 0.45451 0.20043 0.0
H529 H 0.77532 0.47785 0.14477 0.0
H530 H 0.73449 0.44617 0.25158 0.0
H531 H 0.85278 0.48015 0.24675 0.0
H532 H 0.89744 0.51182 0.23559 0.0
H533 H 0.86405 0.556 0.31863 0.0
H534 H 0.81865 0.52481 0.32992 0.0
H535 H 0.79552 0.4102 0.43961 0.0
H536 H 0.79516 0.41512 0.37548 0.0
H537 H 0.74928 0.48729 0.3809 0.0
H538 H 0.74901 0.4826 0.44454 0.0
H539 H 0.82156 0.48107 0.35185 0.0
H540 H 0.69415 0.44975 0.34505 0.0
H541 H 0.64896 0.41804 0.35489 0.0
H542 H 0.70315 0.36733 0.29323 0.0
H543 H 0.74901 0.3987 0.28346 0.0
C544 C 0.75635 0.52293 0.20151 0.0
C545 C 0.76192 0.51186 0.16938 0.0
C546 C 0.76087 0.50964 0.23285 0.0
C547 C 0.77134 0.48507 0.23285 0.0
C548 C 0.77558 0.47355 0.20079 0.0
C549 C 0.77098 0.48691 0.16915 0.0
C550 C 0.77832 0.47211 0.26703 0.0
C551 C 0.75425 0.45326 0.27337 0.0
C552 C 0.8043 0.48138 0.29522 0.0
C553 C 0.83217 0.50009 0.28913 0.0
C554 C 0.8548 0.49666 0.26254 0.0
C555 C 0.88027 0.51454 0.25618 0.0
C556 C 0.88357 0.53592 0.27636 0.0
C557 C 0.86148 0.53942 0.30303 0.0
C558 C 0.83591 0.52161 0.30948 0.0
C559 C 0.78479 0.42697 0.42702 0.0
C560 C 0.7726 0.44612 0.44719 0.0
C561 C 0.7846 0.42969 0.39048 0.0
C562 C 0.7725 0.45161 0.37389 0.0
C563 C 0.75885 0.47029 0.39356 0.0
C564 C 0.75859 0.46751 0.42986 0.0
C565 C 0.77637 0.45617 0.3366 0.0
C566 C 0.80274 0.47339 0.32982 0.0
C567 C 0.75288 0.4452 0.3081 0.0
C568 C 0.72531 0.42644 0.31398 0.0
C569 C 0.69668 0.43176 0.33394 0.0
C570 C 0.67088 0.41387 0.33941 0.0
C571 C 0.67327 0.39065 0.32481 0.0
C572 C 0.70139 0.3853 0.3046 0.0
C573 C 0.72728 0.40313 0.29908 0.0
H574 H 0.65327 0.37683 0.32907 0.0
H575 H 0.90326 0.54975 0.27134 0.0
H576 H 0.33706 0.01062 0.98007 0.0
H577 H 0.39661 0.0014 0.96027 0.0
H578 H 0.45427 0.01923 0.06444 0.0
H579 H 0.39463 0.03021 0.08353 0.0
H580 H 0.47928 0.04551 0.01631 0.0
H581 H 0.45265 0.95944 0.0261 0.0
H582 H 0.4134 0.9229 0.01466 0.0
H583 H 0.40957 0.93254 0.90216 0.0
H584 H 0.44856 0.96925 0.91293 0.0
H585 H 0.6593 0.00133 0.00103 0.0
H586 H 0.59879 0.01559 0.01328 0.0
H587 H 0.55139 0.00108 0.90424 0.0
H588 H 0.61195 0.98611 0.89243 0.0
H589 H 0.51857 0.97528 0.94875 0.0
H590 H 0.54962 0.05934 0.93982 0.0
H591 H 0.58796 0.09628 0.95104 0.0
H592 H 0.58378 0.09045 0.06295 0.0
H593 H 0.54595 0.05326 0.05247 0.0
C594 C 0.36242 0.01168 -0.00098 0.0
C595 C 0.36185 0.02105 0.03322 0.0
C596 C 0.39631 0.00645 0.98771 0.0
C597 C 0.42973 0.00985 0.01082 0.0
C598 C 0.42871 0.01692 0.04613 0.0
C599 C 0.39492 0.02288 0.05713 0.0
C600 C 0.46555 0.00924 -0.00298 0.0
C601 C 0.48835 0.02991 0.00234 0.0
C602 C 0.47613 0.98952 0.97677 0.0
C603 C 0.45335 0.96715 0.97034 0.0
C604 C 0.44333 0.95381 -0.00107 0.0
C605 C 0.42115 0.93306 0.99256 0.0
C606 C 0.40896 0.92542 0.95771 0.0
C607 C 0.41906 0.93846 0.92914 0.0
C608 C 0.44127 0.9592 0.93537 0.0
C609 C 0.63633 0.00245 0.97935 0.0
C610 C 0.63984 0.99303 0.94579 0.0
C611 C 0.60179 0.01053 0.9863 0.0
C612 C 0.57065 0.00935 0.95961 0.0
C613 C 0.57516 0.00213 0.92509 0.0
C614 C 0.60964 0.99382 0.91827 0.0
C615 C 0.53306 0.01117 0.96947 0.0
C616 C 0.50969 0.99083 0.96306 0.0
C617 C 0.52208 0.03112 0.98895 0.0
C618 C 0.545 0.05346 -0.00466 0.0
C619 C 0.55709 0.06584 0.96685 0.0
C620 C 0.57871 0.08684 0.97308 0.0
C621 C 0.58831 0.0957 0.00769 0.0
C622 C 0.57629 0.08359 0.03615 0.0
C623 C 0.55469 0.06257 0.03007 0.0
H624 H 0.60504 0.11197 0.01245 0.0
H625 H 0.39173 0.90939 0.95283 0.0
H626 H 0.40862 0.94416 0.58325 0.0
H627 H 0.46793 0.95556 0.56551 0.0
H628 H 0.41615 0.01829 0.51059 0.0
H629 H 0.3564 0.00693 0.52807 0.0
H630 H 0.4433 0.9806 0.46791 0.0
H631 H 0.48071 0.02838 0.57071 0.0
H632 H 0.49532 0.03912 0.63408 0.0
H633 H 0.58313 0.98598 0.64797 0.0
H634 H 0.56824 0.97421 0.58486 0.0
H635 H 0.59373 0.03477 0.4028 0.0
H636 H 0.5385 0.01855 0.42297 0.0
H637 H 0.60626 0.96634 0.48858 0.0
H638 H 0.66211 0.98314 0.46877 0.0
H639 H 0.5718 0.99654 0.5272 0.0
H640 H 0.53322 0.94848 0.42364 0.0
H641 H 0.51894 0.93914 0.35964 0.0
H642 H 0.43436 0.99455 0.34701 0.0
H643 H 0.44852 0.00452 0.41082 0.0
C644 C 0.41021 0.96095 0.56864 0.0
C645 C 0.37793 0.97447 0.55642 0.0
C646 C 0.44413 0.96748 0.55873 0.0
C647 C 0.44612 0.98762 0.53669 0.0
C648 C 0.41489 0.0027 0.52776 0.0
C649 C 0.3809 0.99628 0.53792 0.0
C650 C 0.47792 0.98966 0.5172 0.0
C651 C 0.47142 0.98446 0.48067 0.0
C652 C 0.51453 0.99358 0.53455 0.0
C653 C 0.52284 8e-05 0.57295 0.0
C654 C 0.50264 0.01858 0.58732 0.0
C655 C 0.5111 0.02495 0.62322 0.0
C656 C 0.54004 0.01319 0.64505 0.0
C657 C 0.56067 0.99505 0.63101 0.0
C658 C 0.55215 0.98848 0.59517 0.0
C659 C 0.5966 0.01907 0.42024 0.0
C660 C 0.63191 0.01034 0.43474 0.0
C661 C 0.565 0.00972 0.43166 0.0
C662 C 0.56835 0.99138 0.45752 0.0
C663 C 0.60325 0.98058 0.46868 0.0
C664 C 0.63503 0.98999 0.45717 0.0
C665 C 0.53729 0.98748 0.47775 0.0
C666 C 0.54381 0.99233 0.51447 0.0
C667 C 0.50064 0.98325 0.46062 0.0
C668 C 0.49213 0.97735 0.42209 0.0
C669 C 0.5118 0.95883 0.4072 0.0
C670 C 0.50368 0.95339 0.37093 0.0
C671 C 0.47581 0.96627 0.34927 0.0
C672 C 0.45596 0.98459 0.36383 0.0
C673 C 0.46399 0.99012 0.40006 0.0
H674 H 0.46956 0.96202 0.32121 0.0
H675 H 0.5465 0.01817 0.67281 0.0
H676 H 0.90101 0.51391 0.09507 0.0
H677 H 0.9615 0.50068 0.08089 0.0
H678 H 0.91019 0.48206 0.97452 0.0
H679 H 0.84954 0.49441 0.98919 0.0
H680 H 0.96999 0.45399 -0.00513 0.0
H681 H 0.94004 0.54011 -0.00499 0.0
H682 H 0.92308 0.57916 0.02064 0.0
H683 H 0.01926 0.57444 0.10102 0.0
H684 H 0.03666 0.53529 0.07597 0.0
H685 H 0.12124 0.46809 0.90679 0.0
H686 H 0.06023 0.47856 0.92268 0.0
H687 H 0.11272 0.50083 0.027 0.0
H688 H 0.1738 0.49172 0.0104 0.0
H689 H 0.05247 0.52635 0.00836 0.0
H690 H 0.08279 0.44011 0.00744 0.0
H691 H 0.10139 0.40245 0.9791 0.0
H692 H 0.00526 0.40805 0.89882 0.0
H693 H 0.98622 0.44582 0.92657 0.0
C694 C 0.90252 0.50568 0.06938 0.0
C695 C 0.8711 0.50491 0.04315 0.0
C696 C 0.93698 0.49841 0.06119 0.0
C697 C 0.94027 0.49113 0.02641 0.0
C698 C 0.90814 0.48777 0.00146 0.0
C699 C 0.87356 0.49466 0.00985 0.0
C700 C 0.97697 0.49075 0.01445 0.0
C701 C 0.98798 0.46981 -0.00233 0.0
C702 C 1.00042 0.51144 0.0183 0.0
C703 C 0.98948 0.5347 0.0338 0.0
C704 C 0.9574 0.54731 0.01831 0.0
C705 C 0.94778 0.56949 0.03267 0.0
C706 C 0.9702 0.57932 0.06231 0.0
C707 C 1.00203 0.56685 0.07796 0.0
C708 C 0.01179 0.54469 0.06369 0.0
C709 C 0.11964 0.47639 0.93241 0.0
C710 C 0.15168 0.47934 0.95745 0.0
C711 C 0.08495 0.48202 0.94159 0.0
C712 C 0.08204 0.4896 0.97631 0.0
C713 C 0.11441 0.49478 0.00015 0.0
C714 C 0.14921 0.48975 0.99065 0.0
C715 C 0.04568 0.48954 0.98903 0.0
C716 C 0.03465 0.51044 0.00583 0.0
C717 C 0.02225 0.46883 0.98517 0.0
C718 C 0.03314 0.44578 0.96904 0.0
C719 C 0.06564 0.43328 0.98375 0.0
C720 C 0.07625 0.41194 0.96779 0.0
C721 C 0.05445 0.40284 0.93725 0.0
C722 C 0.02202 0.41507 0.92256 0.0
C723 C 0.01126 0.43641 0.93844 0.0
H724 H 0.06265 0.38627 0.92501 0.0
H725 H 0.96303 0.59666 0.07307 0.0
H726 H 0.13513 0.49688 0.45148 0.0
H727 H 0.07231 0.48798 0.46182 0.0
H728 H 0.03072 0.54958 0.39728 0.0
H729 H 0.09399 0.55895 0.38748 0.0
H730 H 0.01641 0.55538 0.46159 0.0
H731 H 0.99506 0.49156 0.37829 0.0
H732 H 0.00802 0.45488 0.3447 0.0
H733 H 0.02072 0.41266 0.44064 0.0
H734 H 0.00838 0.44913 0.47495 0.0
H735 H 0.84242 0.51948 0.52422 0.0
H736 H 0.89121 0.53515 0.49264 0.0
H737 H 0.9704 0.48604 0.5514 0.0
H738 H 0.92184 0.4702 0.58283 0.0
H739 H 0.95343 0.47707 0.47666 0.0
H740 H 0.98488 0.54411 0.55966 0.0
H741 H 0.97078 0.58129 0.59166 0.0
H742 H 0.93611 0.61759 0.49229 0.0
H743 H 0.94955 0.58048 0.45968 0.0
C744 C 0.11248 0.5079 0.43819 0.0
C745 C 0.11947 0.52896 0.41954 0.0
C746 C 0.07641 0.50275 0.444 0.0
C747 C 0.04687 0.51832 0.43065 0.0
C748 C 0.05322 0.53751 0.40811 0.0
C749 C 0.08935 0.54281 0.40255 0.0
C750 C 0.01209 0.51744 0.44628 0.0
C751 C 1.00191 0.53837 0.46401 0.0
C752 C 0.99343 0.49528 0.44972 0.0
C753 C 1.00086 0.47317 0.42924 0.0
C754 C 1.00085 0.4745 0.3923 0.0
C755 C 0.00805 0.45372 0.37311 0.0
C756 C 0.01521 0.43146 0.39053 0.0
C757 C 0.01513 0.42992 0.42717 0.0
C758 C 0.00794 0.45064 0.4465 0.0
C759 C 0.87066 0.51297 0.53176 0.0
C760 C 0.87839 0.49332 0.55536 0.0
C761 C 0.8984 0.52181 0.51349 0.0
C762 C 0.93393 0.51124 0.51923 0.0
C763 C 0.94285 0.49409 0.5464 0.0
C764 C 0.91522 0.4852 0.56448 0.0
C765 C 0.95962 0.51455 0.49324 0.0
C766 C 0.96754 0.49411 0.47342 0.0
C767 C 0.97586 0.53718 0.4876 0.0
C768 C 0.96774 0.55942 0.50725 0.0
C769 C 0.97387 0.55993 0.54464 0.0
C770 C 0.96609 0.58101 0.56288 0.0
C771 C 0.95243 0.60176 0.54402 0.0
C772 C 0.94662 0.60149 0.50687 0.0
C773 C 0.95433 0.58044 0.48849 0.0
H774 H 0.94644 0.61807 0.5582 0.0
H775 H 0.02079 0.4154 0.37562 0.0
H776 H 0.12002 0.06376 -0.00462 0.0
H777 H 0.06222 0.04294 0.97132 0.0
H778 H 0.06068 0.00826 0.07276 0.0
H779 H 0.11886 0.02891 0.09654 0.0
H780 H 0.05411 0.97522 0.02167 0.0
H781 H 0.99378 0.05092 0.03842 0.0
H782 H 0.98277 0.09519 0.03355 0.0
H783 H 0.96363 0.08946 0.91967 0.0
H784 H 0.97502 0.04518 0.92384 0.0
H785 H 0.86954 0.92619 0.98421 0.0
H786 H 0.92977 0.94476 0.00591 0.0
H787 H 0.93323 0.97484 0.90182 0.0
H788 H 0.87294 0.95606 0.88013 0.0
H789 H 0.93934 0.00993 0.95295 0.0
H790 H 0.99817 0.93364 0.9369 0.0
H791 H 0.00842 0.88934 0.94259 0.0
H792 H 0.02941 0.89619 0.0563 0.0
H793 H 0.01876 0.94051 0.05133 0.0
C794 C 0.10628 0.05263 0.01297 0.0
C795 C 0.12318 0.04856 0.04814 0.0
C796 C 0.07341 0.04051 -0.00088 0.0
C797 C 0.05685 0.02396 0.02016 0.0
C798 C 0.07278 0.02089 0.05593 0.0
C799 C 0.10567 0.03303 0.06974 0.0
C800 C 0.0251 0.00832 0.00406 0.0
C801 C 0.02877 0.98287 0.00713 0.0
C802 C 0.99242 0.01812 0.98407 0.0
C803 C 0.98563 0.04476 0.98145 0.0
C804 C 0.98755 0.05912 0.01233 0.0
C805 C 0.98117 0.08422 0.00969 0.0
C806 C 0.97261 0.09514 0.97632 0.0
C807 C 0.97031 0.08098 0.9455 0.0
C808 C 0.97669 0.05588 0.94799 0.0
C809 C 0.88424 0.93555 0.96548 0.0
C810 C 0.86711 0.93906 0.93022 0.0
C811 C 0.91849 0.94646 0.97801 0.0
C812 C 0.9361 0.96135 0.95558 0.0
C813 C 0.92025 0.96345 0.91965 0.0
C814 C 0.88613 0.95232 0.90706 0.0
C815 C 0.96834 0.97687 0.97065 0.0
C816 C 0.96474 0.0023 0.96742 0.0
C817 C 1.00098 0.96705 0.99062 0.0
C818 C 0.00731 0.94039 0.99374 0.0
C819 C 0.00463 0.92568 0.96314 0.0
C820 C 0.01059 0.90057 0.96623 0.0
C821 C 0.01947 0.88995 -0.00022 0.0
C822 C 0.02249 0.90444 0.03032 0.0
C823 C 0.01654 0.92956 0.02738 0.0
H824 H 0.02409 0.8705 0.00212 0.0
H825 H 0.96767 0.11457 0.97434 0.0
H826 H 0.87595 0.0553 0.38266 0.0
H827 H 0.93776 0.03696 0.40028 0.0
H828 H 0.92382 0.04314 0.51061 0.0
H829 H 0.86256 0.06146 0.49307 0.0
H830 H 0.99523 0.04942 0.50384 0.0
H831 H 0.89764 0.99338 0.46081 0.0
H832 H 0.84807 0.97572 0.41699 0.0
H833 H 0.92792 0.95896 0.34788 0.0
H834 H 0.9776 0.97766 0.39036 0.0
H835 H 0.11316 0.95452 0.58191 0.0
H836 H 0.05417 0.97535 0.5599 0.0
H837 H 0.08213 0.9746 0.45365 0.0
H838 H 0.14127 0.9544 0.47571 0.0
H839 H 0.00502 0.96576 0.45648 0.0
H840 H 0.10225 0.02192 0.4997 0.0
H841 H 0.15168 0.03951 0.54371 0.0
H842 H 0.07193 0.05486 0.61355 0.0
H843 H 0.02224 0.0366 0.57047 0.0
C844 C 0.88693 0.05382 0.41066 0.0
C845 C 0.86466 0.06005 0.43652 0.0
C846 C 0.922 0.04296 0.42074 0.0
C847 C 0.93518 0.03813 0.45681 0.0
C848 C 0.91435 0.04652 0.48266 0.0
C849 C 0.87939 0.05718 0.47262 0.0
C850 C 0.96852 0.02236 0.46781 0.0
C851 C 0.99717 0.03108 0.49361 0.0
C852 C 0.97139 0.99841 0.45432 0.0
C853 C 0.9413 0.98735 0.42856 0.0
C854 C 0.90454 0.98633 0.43598 0.0
C855 C 0.87637 0.97618 0.41131 0.0
C856 C 0.88473 0.96647 0.37944 0.0
C857 C 0.92131 0.96682 0.37227 0.0
C858 C 0.94948 0.97729 0.39658 0.0
C859 C 0.10599 0.958 0.55369 0.0
C860 C 0.13149 0.95256 0.53041 0.0
C861 C 0.07253 0.97014 0.54118 0.0
C862 C 0.06388 0.97676 0.50514 0.0
C863 C 0.08812 0.96968 0.48149 0.0
C864 C 0.12181 0.95802 0.49408 0.0
C865 C 0.03143 0.99283 0.49255 0.0
C866 C 1.00302 0.98415 0.46653 0.0
C867 C 0.02863 0.01676 0.50593 0.0
C868 C 0.0586 0.02754 0.53205 0.0
C869 C 0.09534 0.02869 0.52467 0.0
C870 C 0.12343 0.0388 0.54946 0.0
C871 C 0.11503 0.04815 0.58152 0.0
C872 C 0.0785 0.04744 0.58884 0.0
C873 C 0.05036 0.03717 0.56427 0.0
H874 H 0.13681 0.05605 0.60058 0.0
H875 H 0.86292 0.95854 0.3604 0.0
H876 H 0.39017 0.46661 0.88839 0.0
H877 H 0.44853 0.48717 0.91138 0.0
H878 H 0.45067 0.45047 0.01185 0.0
H879 H 0.39195 0.43031 0.9889 0.0
H880 H 0.45559 0.498 0.02171 0.0
H881 H 0.51743 0.43994 0.95601 0.0
H882 H 0.52899 0.41672 0.90315 0.0
H883 H 0.54795 0.48328 0.84974 0.0
H884 H 0.53598 0.50694 0.9021 0.0
H885 H 0.63534 0.53655 0.10462 0.0
H886 H 0.57611 0.51786 0.0801 0.0
H887 H 0.58011 0.5537 0.97989 0.0
H888 H 0.64004 0.57177 0.00435 0.0
H889 H 0.57129 0.50748 0.9688 0.0
H890 H 0.51036 0.56569 0.03397 0.0
H891 H 0.49839 0.58937 0.08627 0.0
H892 H 0.47696 0.52338 0.1399 0.0
H893 H 0.48931 0.49926 0.08811 0.0
C894 C 0.40422 0.46197 0.91469 0.0
C895 C 0.3872 0.44632 0.93652 0.0
C896 C 0.43741 0.47394 0.92802 0.0
C897 C 0.45415 0.47047 0.96348 0.0
C898 C 0.43838 0.45351 0.98447 0.0
C899 C 0.40517 0.44164 0.97116 0.0
C900 C 0.48549 0.48631 0.97978 0.0
C901 C 0.48116 0.49976 0.01044 0.0
C902 C 0.51831 0.48943 0.96442 0.0
C903 C 0.52543 0.47523 0.93287 0.0
C904 C 0.52373 0.44965 0.93288 0.0
C905 C 0.53043 0.4364 0.90303 0.0
C906 C 0.53909 0.44852 0.87307 0.0
C907 C 0.54117 0.47392 0.87294 0.0
C908 C 0.53447 0.48725 0.90271 0.0
C909 C 0.62249 0.54151 0.07803 0.0
C910 C 0.6417 0.55619 0.05671 0.0
C911 C 0.58873 0.5306 0.06381 0.0
C912 C 0.57339 0.53427 0.02799 0.0
C913 C 0.59126 0.55049 0.00753 0.0
C914 C 0.62517 0.56123 0.02171 0.0
C915 C 0.54151 0.51912 0.01089 0.0
C916 C 0.5457 0.50579 0.98007 0.0
C917 C 0.50848 0.5162 0.02601 0.0
C918 C 0.5011 0.53065 0.05725 0.0
C919 C 0.5034 0.55621 0.05702 0.0
C920 C 0.49649 0.56971 0.08656 0.0
C921 C 0.48701 0.55788 0.11642 0.0
C922 C 0.48435 0.53252 0.11677 0.0
C923 C 0.49126 0.51892 0.08731 0.0
H924 H 0.48166 0.56837 0.13926 0.0
H925 H 0.54428 0.43823 0.85 0.0
H926 H 0.65188 0.4562 0.49803 0.0
H927 H 0.58926 0.47278 0.48292 0.0
H928 H 0.56424 0.45214 0.58599 0.0
H929 H 0.6278 0.4357 0.60172 0.0
H930 H 0.50272 0.44677 0.51911 0.0
H931 H 0.58462 0.50421 0.58714 0.0
H932 H 0.64401 0.52607 0.60224 0.0
H933 H 0.63057 0.55709 0.49753 0.0
H934 H 0.57131 0.53509 0.48164 0.0
H935 H 0.34868 0.52458 0.51112 0.0
H936 H 0.40836 0.50581 0.53385 0.0
H937 H 0.45691 0.538 0.44826 0.0
H938 H 0.39683 0.55737 0.42561 0.0
H939 H 0.50644 0.53693 0.5101 0.0
H940 H 0.42523 0.47983 0.44176 0.0
H941 H 0.36679 0.45717 0.42501 0.0
H942 H 0.37932 0.42472 0.52875 0.0
H943 H 0.43759 0.44749 0.5463 0.0
C944 C 0.63276 0.45449 0.51719 0.0
C945 C 0.64486 0.44474 0.55117 0.0
C946 C 0.597 0.46407 0.50851 0.0
C947 C 0.57235 0.46404 0.5335 0.0
C948 C 0.58297 0.45236 0.56636 0.0
C949 C 0.61914 0.44279 0.57522 0.0
C950 C 0.53744 0.47852 0.52611 0.0
C951 C 0.50334 0.46649 0.51785 0.0
C952 C 0.53848 0.50422 0.52348 0.0
C953 C 0.57372 0.51783 0.5331 0.0
C954 C 0.59448 0.51554 0.56724 0.0
C955 C 0.62809 0.52798 0.57597 0.0
C956 C 0.64111 0.54291 0.55083 0.0
C957 C 0.62046 0.5455 0.51696 0.0
C958 C 0.58684 0.53307 0.50809 0.0
C959 C 0.37225 0.52809 0.49748 0.0
C960 C 0.368 0.5423 0.46638 0.0
C961 C 0.40632 0.51721 0.51042 0.0
C962 C 0.43692 0.5199 0.49226 0.0
C963 C 0.43359 0.53549 0.46257 0.0
C964 C 0.39934 0.54666 0.44973 0.0
C965 C 0.47138 0.50525 0.50315 0.0
C966 C 0.50556 0.51724 0.51179 0.0
C967 C 0.47036 0.47948 0.50607 0.0
C968 C 0.43558 0.46554 0.49544 0.0
C969 C 0.41539 0.46798 0.46107 0.0
C970 C 0.38231 0.45511 0.45143 0.0
C971 C 0.3693 0.43956 0.47583 0.0
C972 C 0.38941 0.4368 0.5099 0.0
C973 C 0.42247 0.44967 0.5197 0.0
H974 H 0.34368 0.42961 0.46832 0.0
H975 H 0.66715 0.55251 0.55761 0.0
H976 H 0.37643 0.12648 0.112 0.0
H977 H 0.43493 0.13012 0.15227 0.0
H978 H 0.38994 0.08727 0.23055 0.0
H979 H 0.33065 0.08388 0.19033 0.0
H980 H 0.43308 0.12311 0.26243 0.0
H981 H 0.45156 0.05974 0.17866 0.0
H982 H 0.45088 0.0412 0.11969 0.0
H983 H 0.51913 0.09902 0.08987 0.0
H984 H 0.52099 0.11763 0.14934 0.0
H985 H 0.59339 0.07668 0.36326 0.0
H986 H 0.53628 0.08281 0.32268 0.0
H987 H 0.59527 0.12509 0.2538 0.0
H988 H 0.65387 0.11855 0.29477 0.0
H989 H 0.5465 0.09464 0.21613 0.0
H990 H 0.53735 0.15287 0.3075 0.0
H991 H 0.5403 0.16771 0.36909 0.0
H992 H 0.45369 0.11811 0.38617 0.0
H993 H 0.45056 0.10272 0.32483 0.0
C994 C 0.37866 0.11807 0.13797 0.0
C995 C 0.34871 0.10478 0.14777 0.0
C996 C 0.41237 0.12003 0.16094 0.0
C997 C 0.41738 0.1085 0.19422 0.0
C998 C 0.38695 0.09625 0.20495 0.0
C999 C 0.35294 0.09441 0.18197 0.0
C1000 C 0.45471 0.10856 0.21707 0.0
C1001 C 0.4578 0.11671 0.25239 0.0
C1002 C 0.4874 0.10092 0.20392 0.0
C1003 C 0.48598 0.09018 0.1681 0.0
C1004 C 0.46619 0.06857 0.1594 0.0
C1005 C 0.46567 0.05804 0.12592 0.0
C1006 C 0.48454 0.06908 0.1008 0.0
C1007 C 0.50441 0.09055 0.10931 0.0
C1008 C 0.50539 0.10102 0.14297 0.0
C1009 C 0.59455 0.08746 0.33963 0.0
C1010 C 0.6284 0.09747 0.33267 0.0
C1011 C 0.56155 0.09105 0.31644 0.0
C1012 C 0.56098 0.10507 0.28564 0.0
C1013 C 0.59486 0.11448 0.27771 0.0
C1014 C 0.62836 0.1107 0.30104 0.0
C1015 C 0.52491 0.10893 0.26168 0.0
C1016 C 0.52197 0.10148 0.22611 0.0
C1017 C 0.4924 0.11715 0.27477 0.0
C1018 C 0.49386 0.12656 0.31158 0.0
C1019 C 0.51906 0.14503 0.32444 0.0
C1020 C 0.52076 0.15355 0.35931 0.0
C1021 C 0.49723 0.14384 0.38154 0.0
C1022 C 0.4719 0.12562 0.36892 0.0
C1023 C 0.4701 0.11703 0.33407 0.0
H1024 H 0.4986 0.15045 0.40854 0.0
H1025 H 0.48392 0.06096 0.07485 0.0
H1026 H 0.59131 0.90272 0.8819 0.0
H1027 H 0.53283 0.89881 0.8426 0.0
H1028 H 0.59066 0.90067 0.75159 0.0
H1029 H 0.65033 0.9052 0.79131 0.0
H1030 H 0.52983 0.92977 0.74182 0.0
H1031 H 0.553 0.84716 0.77919 0.0
H1032 H 0.56846 0.81388 0.82235 0.0
H1033 H 0.47166 0.83078 0.87023 0.0
H1034 H 0.45588 0.86438 0.82765 0.0
H1035 H 0.38429 0.88189 0.61686 0.0
H1036 H 0.44039 0.88242 0.66034 0.0
H1037 H 0.3773 0.90727 0.74082 0.0
H1038 H 0.32022 0.90769 0.69669 0.0
H1039 H 0.43908 0.86469 0.75681 0.0
H1040 H 0.41757 0.9483 0.72193 0.0
H1041 H 0.40313 0.9826 0.68035 0.0
H1042 H 0.49659 0.96367 0.62883 0.0
H1043 H 0.51145 0.92921 0.66985 0.0
C1044 C 0.59204 0.90219 0.85355 0.0
C1045 C 0.62597 0.90427 0.83994 0.0
C1046 C 0.55826 0.89977 0.83101 0.0
C1047 C 0.5571 0.89906 0.79404 0.0
C1048 C 0.59079 0.90103 0.78008 0.0
C1049 C 0.62494 0.90349 0.8028 0.0
C1050 C 0.52042 0.89714 0.7704 0.0
C1051 C 0.51031 0.91531 0.74484 0.0
C1052 C 0.49416 0.87874 0.77494 0.0
C1053 C 0.50343 0.85841 0.80039 0.0
C1054 C 0.53514 0.84388 0.79907 0.0
C1055 C 0.54394 0.82495 0.82341 0.0
C1056 C 0.5211 0.82025 0.84906 0.0
C1057 C 0.48934 0.83444 0.85036 0.0
C1058 C 0.48043 0.85342 0.8261 0.0
C1059 C 0.38181 0.88723 0.64384 0.0
C1060 C 0.34735 0.89492 0.653 0.0
C1061 C 0.41419 0.88755 0.6687 0.0
C1062 C 0.41317 0.89513 0.70367 0.0
C1063 C 0.37868 0.90142 0.71383 0.0
C1064 C 0.34603 0.90152 0.68863 0.0
C1065 C 0.44876 0.89733 0.72854 0.0
C1066 C 0.45869 0.87915 0.75406 0.0
C1067 C 0.47482 0.91574 0.72414 0.0
C1068 C 0.46537 0.93602 0.69872 0.0
C1069 C 0.43478 0.95129 0.70144 0.0
C1070 C 0.42666 0.97087 0.6781 0.0
C1071 C 0.44909 0.97543 0.65208 0.0
C1072 C 0.47945 0.96029 0.64916 0.0
C1073 C 0.48773 0.94072 0.67242 0.0
H1074 H 0.44288 0.99065 0.63412 0.0
H1075 H 0.52797 0.80559 0.86789 0.0
H1076 H 0.91706 0.58925 0.11129 0.0
H1077 H 0.97462 0.59184 0.15238 0.0
H1078 H 0.9127 0.59656 0.24039 0.0
H1079 H 0.85393 0.59394 0.19877 0.0
H1080 H 0.97319 0.63042 0.24352 0.0
H1081 H 0.95304 0.54433 0.22531 0.0
H1082 H 0.93948 0.50747 0.18852 0.0
H1083 H 0.0375 0.51928 0.14049 0.0
H1084 H 0.05127 0.5565 0.17639 0.0
H1085 H 0.12506 0.61197 0.37779 0.0
H1086 H 0.06701 0.61059 0.33744 0.0
H1087 H 0.12573 0.58868 0.25193 0.0
H1088 H 0.1846 0.58873 0.29329 0.0
H1089 H 0.06598 0.56361 0.24698 0.0
H1090 H 0.08679 0.6488 0.26018 0.0
H1091 H 0.10118 0.68773 0.29155 0.0
H1092 H 0.00415 0.68045 0.34265 0.0
H1093 H 0.98943 0.6413 0.31193 0.0
C1094 C 0.91529 0.59094 0.1393 0.0
C1095 C 0.8805 0.59136 0.1515 0.0
C1096 C 0.9485 0.59232 0.16287 0.0
C1097 C 0.94816 0.59407 0.19955 0.0
C1098 C 0.91364 0.59513 0.21213 0.0
C1099 C 0.88005 0.59365 0.18833 0.0
C1100 C 0.98416 0.59472 0.22422 0.0
C1101 C 0.99323 0.61563 0.24486 0.0
C1102 C 0.01103 0.5759 0.22469 0.0
C1103 C 1.00309 0.55329 0.20346 0.0
C1104 C 0.97158 0.53916 0.20674 0.0
C1105 C 0.96385 0.51822 0.18604 0.0
C1106 C 0.98759 0.51107 0.16219 0.0
C1107 C 0.01912 0.52486 0.15896 0.0
C1108 C 0.02692 0.54587 0.1795 0.0
C1109 C 0.12605 0.60723 0.35029 0.0
C1110 C 0.15995 0.60087 0.33881 0.0
C1111 C 0.0925 0.60652 0.32705 0.0
C1112 C 0.09164 0.60016 0.29117 0.0
C1113 C 0.12545 0.59387 0.27938 0.0
C1114 C 0.15923 0.5941 0.30298 0.0
C1115 C 0.05522 0.59936 0.26671 0.0
C1116 C 0.04604 0.57843 0.24593 0.0
C1117 C 0.0285 0.61843 0.26549 0.0
C1118 C 0.03719 0.642 0.28397 0.0
C1119 C 0.06866 0.65541 0.27829 0.0
C1120 C 0.07685 0.67753 0.29593 0.0
C1121 C 0.05364 0.68653 0.31914 0.0
C1122 C 0.02213 0.67345 0.32469 0.0
C1123 C 0.01382 0.6513 0.30714 0.0
H1124 H 0.06004 0.70365 0.33278 0.0
H1125 H 0.98163 0.49478 0.14633 0.0
H1126 H 0.91148 0.39228 0.62712 0.0
H1127 H 0.96691 0.38717 0.67023 0.0
H1128 H 0.90469 0.40477 0.75505 0.0
H1129 H 0.84823 0.41078 0.71113 0.0
H1130 H 0.96882 0.429 0.7633 0.0
H1131 H 0.93695 0.34593 0.74274 0.0
H1132 H 0.91808 0.30894 0.7079 0.0
H1133 H 0.018 0.31196 0.66049 0.0
H1134 H 0.03722 0.3492 0.69459 0.0
H1135 H 0.11963 0.39491 0.894 0.0
H1136 H 0.06025 0.39305 0.85522 0.0
H1137 H 0.11664 0.39316 0.76333 0.0
H1138 H 0.17709 0.39555 0.80225 0.0
H1139 H 0.05385 0.35814 0.76234 0.0
H1140 H 0.08336 0.44274 0.78207 0.0
H1141 H 0.10147 0.4793 0.81809 0.0
H1142 H 0.00412 0.47252 0.86877 0.0
H1143 H 0.98611 0.43533 0.83405 0.0
C1144 C 0.90915 0.39493 0.65493 0.0
C1145 C 0.87514 0.40209 0.66552 0.0
C1146 C 0.94109 0.39175 0.67972 0.0
C1147 C 0.94016 0.39522 0.71608 0.0
C1148 C 0.90613 0.40186 0.72711 0.0
C1149 C 0.8738 0.40512 0.70205 0.0
C1150 C 0.97547 0.39324 0.74171 0.0
C1151 C 0.98698 0.41326 0.7636 0.0
C1152 C 0.99981 0.37295 0.74162 0.0
C1153 C 0.98842 0.35048 0.7211 0.0
C1154 C 0.95479 0.33882 0.7247 0.0
C1155 C 0.94404 0.31779 0.7051 0.0
C1156 C 0.96681 0.30813 0.68198 0.0
C1157 C 1.00039 0.31947 0.67842 0.0
C1158 C 0.01125 0.34052 0.69791 0.0
C1159 C 0.11982 0.39427 0.86557 0.0
C1160 C 0.15351 0.39543 0.85137 0.0
C1161 C 0.08561 0.39327 0.84344 0.0
C1162 C 0.08395 0.39316 0.80644 0.0
C1163 C 0.11735 0.39325 0.7919 0.0
C1164 C 0.15187 0.3946 0.81416 0.0
C1165 C 0.0471 0.39396 0.78337 0.0
C1166 C 0.03541 0.37374 0.76212 0.0
C1167 C 0.02246 0.41393 0.7843 0.0
C1168 C 0.03353 0.43609 0.80564 0.0
C1169 C 0.06606 0.44882 0.80124 0.0
C1170 C 0.07627 0.46969 0.82137 0.0
C1171 C 0.05383 0.47832 0.84548 0.0
C1172 C 0.02139 0.46588 0.84994 0.0
C1173 C 0.01123 0.44484 0.83014 0.0
H1174 H 0.06161 0.49465 0.86071 0.0
H1175 H 0.9585 0.29182 0.66689 0.0
H1176 H 0.219 0.14434 0.97954 0.0
H1177 H 0.22344 0.18662 0.96106 0.0
H1178 H 0.2363 0.20964 0.07071 0.0
H1179 H 0.23129 0.16717 0.08938 0.0
H1180 H 0.19813 0.24386 0.0231 0.0
H1181 H 0.31146 0.19683 0.03696 0.0
H1182 H 0.3499 0.16118 0.02663 0.0
H1183 H 0.33322 0.17622 0.91461 0.0
H1184 H 0.29412 0.21175 0.92422 0.0
H1185 H 0.29109 0.35203 0.0096 0.0
H1186 H 0.28581 0.30955 0.02675 0.0
H1187 H 0.27171 0.28815 0.91638 0.0
H1188 H 0.2774 0.33084 0.89901 0.0
H1189 H 0.31006 0.2531 0.96358 0.0
H1190 H 0.19721 0.30037 0.94976 0.0
H1191 H 0.15888 0.33607 0.9601 0.0
H1192 H 0.17468 0.32062 0.07199 0.0
H1193 H 0.21367 0.28504 0.06237 0.0
C1194 C 0.22133 0.15852 -0.0004 0.0
C1195 C 0.22516 0.15257 0.03588 0.0
C1196 C 0.2241 0.18262 0.98903 0.0
C1197 C 0.23126 0.20109 0.0146 0.0
C1198 C 0.23106 0.19555 0.05063 0.0
C1199 C 0.22795 0.17134 0.06125 0.0
C1200 C 0.24355 0.2253 0.00406 0.0
C1201 C 0.22278 0.24593 0.01045 0.0
C1202 C 0.27547 0.22787 0.98704 0.0
C1203 C 0.29958 0.20681 0.98127 0.0
C1204 C 0.3158 0.19245 0.0101 0.0
C1205 C 0.33772 0.17227 0.00438 0.0
C1206 C 0.34393 0.16641 0.96998 0.0
C1207 C 0.32834 0.18077 0.94124 0.0
C1208 C 0.30631 0.20093 0.94681 0.0
C1209 C 0.28829 0.33816 0.98907 0.0
C1210 C 0.28426 0.34466 0.95298 0.0
C1211 C 0.28506 0.31395 -0.00112 0.0
C1212 C 0.27734 0.2959 0.97275 0.0
C1213 C 0.27738 0.30193 0.93688 0.0
C1214 C 0.28088 0.32626 0.927 0.0
C1215 C 0.26468 0.27165 0.98268 0.0
C1216 C 0.28538 0.25102 0.97618 0.0
C1217 C 0.2327 0.26907 -0.0004 0.0
C1218 C 0.20864 0.29017 0.00538 0.0
C1219 C 0.19271 0.30468 0.9766 0.0
C1220 C 0.17086 0.32488 0.98233 0.0
C1221 C 0.16441 0.33064 0.01669 0.0
C1222 C 0.17973 0.31615 0.04539 0.0
C1223 C 0.2017 0.29595 0.03981 0.0
H1224 H 0.1475 0.3463 0.02108 0.0
H1225 H 0.3609 0.15077 0.96559 0.0
H1226 H 0.69217 0.15537 0.47016 0.0
H1227 H 0.69951 0.19706 0.49056 0.0
H1228 H 0.79904 0.20366 0.44226 0.0
H1229 H 0.79204 0.16122 0.42136 0.0
H1230 H 0.80522 0.2219 0.51319 0.0
H1231 H 0.72442 0.23022 0.40252 0.0
H1232 H 0.67032 0.22048 0.35757 0.0
H1233 H 0.59644 0.24012 0.43124 0.0
H1234 H 0.65013 0.24964 0.47685 0.0
H1235 H 0.81709 0.3489 0.5228 0.0
H1236 H 0.80984 0.30729 0.50198 0.0
H1237 H 0.71028 0.30031 0.55016 0.0
H1238 H 0.71722 0.34264 0.57151 0.0
H1239 H 0.70422 0.2823 0.47914 0.0
H1240 H 0.78473 0.27388 0.58982 0.0
H1241 H 0.83867 0.28356 0.635 0.0
H1242 H 0.91292 0.264 0.56164 0.0
H1243 H 0.85939 0.25457 0.51579 0.0
C1244 C 0.7158 0.16549 0.46374 0.0
C1245 C 0.7416 0.15486 0.44402 0.0
C1246 C 0.71976 0.18944 0.47536 0.0
C1247 C 0.7495 0.20346 0.46756 0.0
C1248 C 0.77576 0.19303 0.44834 0.0
C1249 C 0.77169 0.16888 0.43637 0.0
C1250 C 0.75282 0.2289 0.4802 0.0
C1251 C 0.78353 0.23528 0.50529 0.0
C1252 C 0.72376 0.24597 0.4707 0.0
C1253 C 0.69134 0.24045 0.44323 0.0
C1254 C 0.69665 0.23228 0.40925 0.0
C1255 C 0.66605 0.22683 0.38362 0.0
C1256 C 0.62996 0.22962 0.39157 0.0
C1257 C 0.62441 0.23794 0.42513 0.0
C1258 C 0.65492 0.2434 0.45087 0.0
C1259 C 0.79347 0.33872 0.5291 0.0
C1260 C 0.76767 0.3492 0.54895 0.0
C1261 C 0.78956 0.31481 0.51724 0.0
C1262 C 0.75984 0.30071 0.5249 0.0
C1263 C 0.73354 0.31101 0.54419 0.0
C1264 C 0.73757 0.3351 0.55641 0.0
C1265 C 0.75662 0.2753 0.51212 0.0
C1266 C 0.72593 0.26893 0.48702 0.0
C1267 C 0.78568 0.25823 0.52164 0.0
C1268 C 0.818 0.26372 0.54924 0.0
C1269 C 0.81255 0.27183 0.5832 0.0
C1270 C 0.84305 0.27724 0.60896 0.0
C1271 C 0.87919 0.27445 0.60117 0.0
C1272 C 0.8849 0.26617 0.56763 0.0
C1273 C 0.85448 0.26077 0.54175 0.0
H1274 H 0.90276 0.27865 0.62114 0.0
H1275 H 0.6063 0.22538 0.3717 0.0
H1276 H 0.68677 0.84446 0.96139 0.0
H1277 H 0.69294 0.80259 0.98152 0.0
H1278 H 0.80063 0.79773 0.9472 0.0
H1279 H 0.79427 0.84008 0.92595 0.0
H1280 H 0.75881 0.75671 0.93088 0.0
H1281 H 0.7941 0.80622 0.0344 0.0
H1282 H 0.78638 0.83961 0.07617 0.0
H1283 H 0.68628 0.80667 0.10052 0.0
H1284 H 0.69308 0.77327 0.05847 0.0
H1285 H 0.81991 0.65257 0.02697 0.0
H1286 H 0.81262 0.69422 0.00614 0.0
H1287 H 0.70499 0.69824 0.04072 0.0
H1288 H 0.71245 0.65608 0.06263 0.0
H1289 H 0.74615 0.73958 0.05668 0.0
H1290 H 0.71128 0.68977 0.95361 0.0
H1291 H 0.71929 0.65627 0.9121 0.0
H1292 H 0.81871 0.68969 0.88698 0.0
H1293 H 0.81164 0.72321 0.92878 0.0
C1294 C 0.71192 0.8346 0.9581 0.0
C1295 C 0.74039 0.84573 0.94259 0.0
C1296 C 0.71535 0.81063 0.96969 0.0
C1297 C 0.74759 0.79727 0.96666 0.0
C1298 C 0.77564 0.80789 0.95004 0.0
C1299 C 0.77203 0.83201 0.93797 0.0
C1300 C 0.75169 0.77234 0.9814 0.0
C1301 C 0.75664 0.75297 0.9585 0.0
C1302 C 0.74774 0.76749 0.01723 0.0
C1303 C 0.74397 0.78733 0.04307 0.0
C1304 C 0.77033 0.80616 0.04851 0.0
C1305 C 0.76612 0.82509 0.07225 0.0
C1306 C 0.73582 0.82529 0.09093 0.0
C1307 C 0.70972 0.80651 0.08601 0.0
C1308 C 0.71377 0.78755 0.06226 0.0
C1309 C 0.79454 0.66218 0.03017 0.0
C1310 C 0.76642 0.65088 0.04597 0.0
C1311 C 0.79045 0.68603 0.01816 0.0
C1312 C 0.75792 0.69909 0.02108 0.0
C1313 C 0.73019 0.6883 0.03795 0.0
C1314 C 0.73444 0.66429 0.05041 0.0
C1315 C 0.75331 0.72396 0.00618 0.0
C1316 C 0.74827 0.74332 0.02905 0.0
C1317 C 0.75719 0.7288 0.97032 0.0
C1318 C 0.76106 0.70893 0.94454 0.0
C1319 C 0.73496 0.68992 0.93938 0.0
C1320 C 0.73933 0.67093 0.91579 0.0
C1321 C 0.76953 0.67083 0.89697 0.0
C1322 C 0.79534 0.68978 0.90159 0.0
C1323 C 0.79114 0.7088 0.9252 0.0
H1324 H 0.77289 0.65609 0.87877 0.0
H1325 H 0.73259 0.83998 0.10926 0.0
H1326 H 0.2762 0.66283 0.40967 0.0
H1327 H 0.27257 0.70564 0.42671 0.0
H1328 H 0.26601 0.68431 0.53473 0.0
H1329 H 0.26897 0.64156 0.51776 0.0
H1330 H 0.20969 0.71339 0.50995 0.0
H1331 H 0.34201 0.71444 0.51299 0.0
H1332 H 0.40114 0.70783 0.4899 0.0
H1333 H 0.36574 0.75677 0.40347 0.0
H1334 H 0.30614 0.76342 0.42577 0.0
H1335 H 0.22563 0.8336 0.58585 0.0
H1336 H 0.22764 0.79049 0.56953 0.0
H1337 H 0.23458 0.8106 0.46108 0.0
H1338 H 0.23337 0.85355 0.47743 0.0
H1339 H 0.29091 0.782 0.48682 0.0
H1340 H 0.15846 0.78082 0.4836 0.0
H1341 H 0.09932 0.78742 0.50668 0.0
H1342 H 0.13499 0.73882 0.59346 0.0
H1343 H 0.19459 0.73217 0.57116 0.0
C1344 C 0.27521 0.6673 0.43727 0.0
C1345 C 0.27257 0.64888 0.46232 0.0
C1346 C 0.27299 0.69177 0.44697 0.0
C1347 C 0.26871 0.69813 0.48196 0.0
C1348 C 0.26891 0.67978 0.50753 0.0
C1349 C 0.27083 0.65538 0.49782 0.0
C1350 C 0.2606 0.72362 0.49118 0.0
C1351 C 0.22775 0.72838 0.50541 0.0
C1352 C 0.28359 0.74318 0.48431 0.0
C1353 C 0.31945 0.73925 0.47088 0.0
C1354 C 0.3467 0.72364 0.4889 0.0
C1355 C 0.38033 0.71992 0.47598 0.0
C1356 C 0.38715 0.73182 0.44519 0.0
C1357 C 0.36039 0.74754 0.4273 0.0
C1358 C 0.3267 0.75131 0.44009 0.0
C1359 C 0.22617 0.82877 0.5583 0.0
C1360 C 0.22959 0.84682 0.53293 0.0
C1361 C 0.2275 0.80415 0.54901 0.0
C1362 C 0.23165 0.79736 0.51414 0.0
C1363 C 0.2318 0.81544 0.4882 0.0
C1364 C 0.23085 0.83995 0.49752 0.0
C1365 C 0.23992 0.77181 0.50544 0.0
C1366 C 0.27283 0.76702 0.49136 0.0
C1367 C 0.21699 0.75224 0.51245 0.0
C1368 C 0.18115 0.75618 0.52589 0.0
C1369 C 0.15383 0.7717 0.50777 0.0
C1370 C 0.1202 0.77542 0.52068 0.0
C1371 C 0.11345 0.7636 0.55157 0.0
C1372 C 0.14028 0.74798 0.56956 0.0
C1373 C 0.17398 0.74421 0.55678 0.0
H1374 H 0.08739 0.7665 0.56152 0.0
H1375 H 0.41321 0.72892 0.43524 0.0
loop_
_geom_bond_atom_site_label_1
_geom_bond_atom_site_label_2
_geom_bond_distance
_geom_bond_site_symmetry_2
_ccdc_geom_bond_type
Sc0 O3 2.025 . S
Sc0 O10 2.105 . S
Sc0 O13 2.105 . S
Sc0 O16 2.105 . S
Sc0 O19 2.105 . S
Sc1 O3 2.025 . S
Sc1 O11 2.105 . S
Sc1 O15 2.105 . S
Sc1 O17 2.105 . S
Sc1 O21 2.105 1_554 S
Sc2 O3 2.025 . S
Sc2 O12 2.105 1_554 S
Sc2 O14 2.105 . S
Sc2 O18 2.105 . S
Sc2 O20 2.105 . S
O3 Sc0 2.025 . S
O3 Sc1 2.025 . S
O3 Sc2 2.025 . S
C4 O10 1.268 . S
C4 O20 1.268 . S
C5 O11 1.268 . S
C5 O19 1.268 . S
C6 O12 1.268 . S
C6 O21 1.268 . S
C7 O13 1.268 . S
C7 O17 1.268 . S
C8 O14 1.268 . S
C8 O16 1.268 . S
C9 O15 1.268 . S
C9 O18 1.268 . S
O10 Sc0 2.105 . S
O10 C4 1.268 . S
O11 Sc1 2.105 . S
O11 C5 1.268 . S
O12 Sc2 2.105 1_556 S
O12 C6 1.268 . S
O13 Sc0 2.105 . S
O13 C7 1.268 . S
O14 Sc2 2.105 . S
O14 C8 1.268 . S
O15 Sc1 2.105 . S
O15 C9 1.268 . S
O16 Sc0 2.105 . S
O16 C8 1.268 . S
O17 Sc1 2.105 . S
O17 C7 1.268 . S
O18 Sc2 2.105 . S
O18 C9 1.268 . S
O19 Sc0 2.105 . S
O19 C5 1.268 . S
O20 Sc2 2.105 . S
O20 C4 1.268 . S
O21 Sc1 2.105 1_556 S
O21 C6 1.268 . S
Sc22 O25 2.025 . S
Sc22 O32 2.105 . S
Sc22 O35 2.105 . S
Sc22 O38 2.105 . S
Sc22 O41 2.105 . S
Sc23 O25 2.025 . S
Sc23 O33 2.105 . S
Sc23 O37 2.105 . S
Sc23 O39 2.105 . S
Sc23 O43 2.105 . S
Sc24 O25 2.025 . S
Sc24 O34 2.105 . S
Sc24 O36 2.105 . S
Sc24 O40 2.105 . S
Sc24 O42 2.105 . S
O25 Sc22 2.025 . S
O25 Sc23 2.025 . S
O25 Sc24 2.025 . S
C26 O32 1.268 . S
C26 O42 1.268 . S
C27 O33 1.268 . S
C27 O41 1.268 . S
C28 O34 1.268 . S
C28 O43 1.268 . S
C29 O35 1.268 . S
C29 O39 1.268 . S
C30 O36 1.268 . S
C30 O38 1.268 . S
C31 O37 1.268 . S
C31 O40 1.268 . S
O32 Sc22 2.105 . S
O32 C26 1.268 . S
O33 Sc23 2.105 . S
O33 C27 1.268 . S
O34 Sc24 2.105 . S
O34 C28 1.268 . S
O35 Sc22 2.105 . S
O35 C29 1.268 . S
O36 Sc24 2.105 . S
O36 C30 1.268 . S
O37 Sc23 2.105 . S
O37 C31 1.268 . S
O38 Sc22 2.105 . S
O38 C30 1.268 . S
O39 Sc23 2.105 . S
O39 C29 1.268 . S
O40 Sc24 2.105 . S
O40 C31 1.268 . S
O41 Sc22 2.105 . S
O41 C27 1.268 . S
O42 Sc24 2.105 . S
O42 C26 1.268 . S
O43 Sc23 2.105 . S
O43 C28 1.268 . S
Sc44 O47 2.025 . S
Sc44 O54 2.105 . S
Sc44 O57 2.105 . S
Sc44 O60 2.105 . S
Sc44 O63 2.105 . S
Sc45 O47 2.025 . S
Sc45 O55 2.105 . S
Sc45 O59 2.105 1_556 S
Sc45 O61 2.105 . S
Sc45 O65 2.105 . S
Sc46 O47 2.025 . S
Sc46 O56 2.105 . S
Sc46 O58 2.105 . S
Sc46 O62 2.105 1_556 S
Sc46 O64 2.105 . S
O47 Sc44 2.025 . S
O47 Sc45 2.025 . S
O47 Sc46 2.025 . S
C48 O54 1.268 . S
C48 O64 1.268 . S
C49 O55 1.268 . S
C49 O63 1.268 . S
C50 O56 1.268 . S
C50 O65 1.268 . S
C51 O57 1.268 . S
C51 O61 1.268 . S
C52 O58 1.268 . S
C52 O60 1.268 . S
C53 O59 1.268 . S
C53 O62 1.268 . S
O54 Sc44 2.105 . S
O54 C48 1.268 . S
O55 Sc45 2.105 . S
O55 C49 1.268 . S
O56 Sc46 2.105 . S
O56 C50 1.268 . S
O57 Sc44 2.105 . S
O57 C51 1.268 . S
O58 Sc46 2.105 . S
O58 C52 1.268 . S
O59 Sc45 2.105 1_554 S
O59 C53 1.268 . S
O60 Sc44 2.105 . S
O60 C52 1.268 . S
O61 Sc45 2.105 . S
O61 C51 1.268 . S
O62 Sc46 2.105 1_554 S
O62 C53 1.268 . S
O63 Sc44 2.105 . S
O63 C49 1.268 . S
O64 Sc46 2.105 . S
O64 C48 1.268 . S
O65 Sc45 2.105 . S
O65 C50 1.268 . S
Sc66 O69 2.025 . S
Sc66 O76 2.105 . S
Sc66 O79 2.105 . S
Sc66 O82 2.105 . S
Sc66 O85 2.105 . S
Sc67 O69 2.025 . S
Sc67 O77 2.105 . S
Sc67 O81 2.105 . S
Sc67 O83 2.105 . S
Sc67 O87 2.105 . S
Sc68 O69 2.025 . S
Sc68 O78 2.105 . S
Sc68 O80 2.105 . S
Sc68 O84 2.105 . S
Sc68 O86 2.105 . S
O69 Sc66 2.025 . S
O69 Sc67 2.025 . S
O69 Sc68 2.025 . S
C70 O76 1.268 . S
C70 O86 1.268 . S
C71 O77 1.268 . S
C71 O85 1.268 . S
C72 O78 1.268 . S
C72 O87 1.268 . S
C73 O79 1.268 . S
C73 O83 1.268 . S
C74 O80 1.268 . S
C74 O82 1.268 . S
C75 O81 1.268 . S
C75 O84 1.268 . S
O76 Sc66 2.105 . S
O76 C70 1.268 . S
O77 Sc67 2.105 . S
O77 C71 1.268 . S
O78 Sc68 2.105 . S
O78 C72 1.268 . S
O79 Sc66 2.105 . S
O79 C73 1.268 . S
O80 Sc68 2.105 . S
O80 C74 1.268 . S
O81 Sc67 2.105 . S
O81 C75 1.268 . S
O82 Sc66 2.105 . S
O82 C74 1.268 . S
O83 Sc67 2.105 . S
O83 C73 1.268 . S
O84 Sc68 2.105 . S
O84 C75 1.268 . S
O85 Sc66 2.105 . S
O85 C71 1.268 . S
O86 Sc68 2.105 . S
O86 C70 1.268 . S
O87 Sc67 2.105 . S
O87 C72 1.268 . S
Sc88 O91 2.025 . S
Sc88 O98 2.105 . S
Sc88 O101 2.105 . S
Sc88 O104 2.105 . S
Sc88 O107 2.105 . S
Sc89 O91 2.025 . S
Sc89 O99 2.105 . S
Sc89 O103 2.105 . S
Sc89 O105 2.105 . S
Sc89 O109 2.105 1_554 S
Sc90 O91 2.025 . S
Sc90 O100 2.105 1_554 S
Sc90 O102 2.105 . S
Sc90 O106 2.105 . S
Sc90 O108 2.105 . S
O91 Sc88 2.025 . S
O91 Sc89 2.025 . S
O91 Sc90 2.025 . S
C92 O98 1.268 . S
C92 O108 1.268 . S
C93 O99 1.268 . S
C93 O107 1.268 . S
C94 O100 1.268 . S
C94 O109 1.268 . S
C95 O101 1.268 . S
C95 O105 1.268 . S
C96 O102 1.268 . S
C96 O104 1.268 . S
C97 O103 1.268 . S
C97 O106 1.268 . S
O98 Sc88 2.105 . S
O98 C92 1.268 . S
O99 Sc89 2.105 . S
O99 C93 1.268 . S
O100 Sc90 2.105 1_556 S
O100 C94 1.268 . S
O101 Sc88 2.105 . S
O101 C95 1.268 . S
O102 Sc90 2.105 . S
O102 C96 1.268 . S
O103 Sc89 2.105 . S
O103 C97 1.268 . S
O104 Sc88 2.105 . S
O104 C96 1.268 . S
O105 Sc89 2.105 . S
O105 C95 1.268 . S
O106 Sc90 2.105 . S
O106 C97 1.268 . S
O107 Sc88 2.105 . S
O107 C93 1.268 . S
O108 Sc90 2.105 . S
O108 C92 1.268 . S
O109 Sc89 2.105 1_556 S
O109 C94 1.268 . S
Sc110 O113 2.025 . S
Sc110 O120 2.105 . S
Sc110 O123 2.105 . S
Sc110 O126 2.105 . S
Sc110 O129 2.105 . S
Sc111 O113 2.025 . S
Sc111 O121 2.105 . S
Sc111 O125 2.105 . S
Sc111 O127 2.105 . S
Sc111 O131 2.105 . S
Sc112 O113 2.025 . S
Sc112 O122 2.105 . S
Sc112 O124 2.105 . S
Sc112 O128 2.105 . S
Sc112 O130 2.105 . S
O113 Sc110 2.025 . S
O113 Sc111 2.025 . S
O113 Sc112 2.025 . S
C114 O120 1.268 . S
C114 O130 1.268 . S
C115 O121 1.268 . S
C115 O129 1.268 . S
C116 O122 1.268 . S
C116 O131 1.268 . S
C117 O123 1.268 . S
C117 O127 1.268 . S
C118 O124 1.268 . S
C118 O126 1.268 . S
C119 O125 1.268 . S
C119 O128 1.268 . S
O120 Sc110 2.105 . S
O120 C114 1.268 . S
O121 Sc111 2.105 . S
O121 C115 1.268 . S
O122 Sc112 2.105 . S
O122 C116 1.268 . S
O123 Sc110 2.105 . S
O123 C117 1.268 . S
O124 Sc112 2.105 . S
O124 C118 1.268 . S
O125 Sc111 2.105 . S
O125 C119 1.268 . S
O126 Sc110 2.105 . S
O126 C118 1.268 . S
O127 Sc111 2.105 . S
O127 C117 1.268 . S
O128 Sc112 2.105 . S
O128 C119 1.268 . S
O129 Sc110 2.105 . S
O129 C115 1.268 . S
O130 Sc112 2.105 . S
O130 C114 1.268 . S
O131 Sc111 2.105 . S
O131 C116 1.268 . S
Sc132 O135 2.025 . S
Sc132 O142 2.105 . S
Sc132 O145 2.105 . S
Sc132 O148 2.105 . S
Sc132 O151 2.105 . S
Sc133 O135 2.025 . S
Sc133 O143 2.105 . S
Sc133 O147 2.105 1_556 S
Sc133 O149 2.105 . S
Sc133 O153 2.105 . S
Sc134 O135 2.025 . S
Sc134 O144 2.105 . S
Sc134 O146 2.105 . S
Sc134 O150 2.105 1_556 S
Sc134 O152 2.105 . S
O135 Sc132 2.025 . S
O135 Sc133 2.025 . S
O135 Sc134 2.025 . S
C136 O142 1.268 . S
C136 O152 1.268 . S
C137 O143 1.268 . S
C137 O151 1.268 . S
C138 O144 1.268 . S
C138 O153 1.268 . S
C139 O145 1.268 . S
C139 O149 1.268 . S
C140 O146 1.268 . S
C140 O148 1.268 . S
C141 O147 1.268 . S
C141 O150 1.268 . S
O142 Sc132 2.105 . S
O142 C136 1.268 . S
O143 Sc133 2.105 . S
O143 C137 1.268 . S
O144 Sc134 2.105 . S
O144 C138 1.268 . S
O145 Sc132 2.105 . S
O145 C139 1.268 . S
O146 Sc134 2.105 . S
O146 C140 1.268 . S
O147 Sc133 2.105 1_554 S
O147 C141 1.268 . S
O148 Sc132 2.105 . S
O148 C140 1.268 . S
O149 Sc133 2.105 . S
O149 C139 1.268 . S
O150 Sc134 2.105 1_554 S
O150 C141 1.268 . S
O151 Sc132 2.105 . S
O151 C137 1.268 . S
O152 Sc134 2.105 . S
O152 C136 1.268 . S
O153 Sc133 2.105 . S
O153 C138 1.268 . S
Sc154 O157 2.025 . S
Sc154 O164 2.105 . S
Sc154 O167 2.105 . S
Sc154 O170 2.105 . S
Sc154 O173 2.105 . S
Sc155 O157 2.025 . S
Sc155 O165 2.105 . S
Sc155 O169 2.105 . S
Sc155 O171 2.105 . S
Sc155 O175 2.105 . S
Sc156 O157 2.025 . S
Sc156 O166 2.105 . S
Sc156 O168 2.105 . S
Sc156 O172 2.105 . S
Sc156 O174 2.105 . S
O157 Sc154 2.025 . S
O157 Sc155 2.025 . S
O157 Sc156 2.025 . S
C158 O164 1.268 . S
C158 O174 1.268 . S
C159 O165 1.268 . S
C159 O173 1.268 . S
C160 O166 1.268 . S
C160 O175 1.268 . S
C161 O167 1.268 . S
C161 O171 1.268 . S
C162 O168 1.268 . S
C162 O170 1.268 . S
C163 O169 1.268 . S
C163 O172 1.268 . S
O164 Sc154 2.105 . S
O164 C158 1.268 . S
O165 Sc155 2.105 . S
O165 C159 1.268 . S
O166 Sc156 2.105 . S
O166 C160 1.268 . S
O167 Sc154 2.105 . S
O167 C161 1.268 . S
O168 Sc156 2.105 . S
O168 C162 1.268 . S
O169 Sc155 2.105 . S
O169 C163 1.268 . S
O170 Sc154 2.105 . S
O170 C162 1.268 . S
O171 Sc155 2.105 . S
O171 C161 1.268 . S
O172 Sc156 2.105 . S
O172 C163 1.268 . S
O173 Sc154 2.105 . S
O173 C159 1.268 . S
O174 Sc156 2.105 . S
O174 C158 1.268 . S
O175 Sc155 2.105 . S
O175 C160 1.268 . S
H176 C194 0.951 . S
H177 C196 0.951 . S
H178 C198 0.950 . S
H179 C199 0.950 . S
H180 C201 0.950 . S
H181 C204 0.950 . S
H182 C205 0.946 1_545 S
H183 C207 0.950 . S
H184 C208 0.950 . S
H185 C209 0.951 . S
H186 C211 0.951 . S
H187 C213 0.950 . S
H188 C214 0.950 . S
H189 C216 0.950 . S
H190 C219 0.950 . S
H191 C220 0.950 . S
H192 C222 0.950 . S
H193 C223 0.950 . S
C194 H176 0.951 . S
C194 C195 1.366 . S
C194 C196 1.388 . S
C195 C194 1.366 . S
C195 C199 1.385 . S
C196 H177 0.951 . S
C196 C194 1.388 . S
C196 C197 1.366 . S
C197 C196 1.366 . S
C197 C198 1.414 . S
C197 C200 1.499 . S
C198 H178 0.950 . S
C198 C197 1.414 . S
C198 C199 1.374 . S
C199 H179 0.950 . S
C199 C195 1.385 . S
C199 C198 1.374 . S
C200 C197 1.499 . S
C200 C201 1.373 . S
C200 C202 1.389 . S
C201 H180 0.950 . S
C201 C200 1.373 . S
C201 C217 1.377 . S
C202 C200 1.389 . S
C202 C203 1.524 1_545 S
C202 C216 1.377 1_545 S
C203 C202 1.524 1_565 S
C203 C204 1.397 1_565 S
C203 C208 1.363 . S
C204 H181 0.950 . S
C204 C203 1.397 1_545 S
C204 C205 1.334 1_545 S
C205 H182 0.946 1_565 S
C205 C204 1.334 1_565 S
C205 C206 1.287 . S
C206 C205 1.287 . S
C206 C207 1.524 . S
C206 H225 0.913 . S
C207 H183 0.950 . S
C207 C206 1.524 . S
C207 C208 1.415 . S
C208 H184 0.950 . S
C208 C203 1.363 . S
C208 C207 1.415 . S
C209 H185 0.951 . S
C209 C210 1.366 1_545 S
C209 C211 1.388 . S
C210 C209 1.366 1_565 S
C210 C214 1.385 . S
C211 H186 0.951 . S
C211 C209 1.388 . S
C211 C212 1.366 1_545 S
C212 C211 1.366 1_565 S
C212 C213 1.414 . S
C212 C215 1.499 1_565 S
C213 H187 0.950 . S
C213 C212 1.414 . S
C213 C214 1.374 . S
C214 H188 0.950 . S
C214 C210 1.385 . S
C214 C213 1.374 . S
C215 C212 1.499 1_545 S
C215 C216 1.373 1_545 S
C215 C217 1.389 . S
C216 H189 0.950 . S
C216 C202 1.377 1_565 S
C216 C215 1.373 1_565 S
C217 C201 1.377 . S
C217 C215 1.389 . S
C217 C218 1.524 . S
C218 C217 1.524 . S
C218 C219 1.397 . S
C218 C223 1.363 . S
C219 H190 0.950 . S
C219 C218 1.397 . S
C219 C220 1.334 . S
C220 H191 0.950 . S
C220 C219 1.334 . S
C220 C221 1.287 . S
C221 C220 1.287 . S
C221 C222 1.524 . S
C221 H224 0.999 . S
C222 H192 0.950 . S
C222 C221 1.524 . S
C222 C223 1.415 . S
C223 H193 0.950 . S
C223 C218 1.363 . S
C223 C222 1.415 . S
H224 C221 0.999 . S
H225 C206 0.913 . S
H226 C244 0.951 1_545 S
H227 C246 0.951 . S
H228 C248 0.950 . S
H229 C249 0.950 . S
H230 C251 0.950 . S
H231 C254 0.950 . S
H232 C255 0.950 . S
H233 C257 0.950 . S
H234 C258 0.950 . S
H235 C259 0.951 . S
H236 C261 0.951 . S
H237 C263 0.950 . S
H238 C264 0.950 . S
H239 C266 0.950 . S
H240 C269 0.950 . S
H241 C270 0.950 . S
H242 C272 0.950 . S
H243 C273 0.950 1_565 S
C244 H226 0.951 1_565 S
C244 C245 1.366 . S
C244 C246 1.388 1_565 S
C245 C244 1.366 . S
C245 C249 1.385 . S
C246 H227 0.951 . S
C246 C244 1.388 1_545 S
C246 C247 1.366 1_545 S
C247 C246 1.366 1_565 S
C247 C248 1.414 . S
C247 C250 1.499 1_565 S
C248 H228 0.950 . S
C248 C247 1.414 . S
C248 C249 1.374 . S
C249 H229 0.950 . S
C249 C245 1.385 . S
C249 C248 1.374 . S
C250 C247 1.499 1_545 S
C250 C251 1.373 . S
C250 C252 1.389 . S
C251 H230 0.950 . S
C251 C250 1.373 . S
C251 C267 1.377 . S
C252 C250 1.389 . S
C252 C253 1.524 . S
C252 C266 1.377 . S
C253 C252 1.524 . S
C253 C254 1.397 1_545 S
C253 C258 1.363 . S
C254 H231 0.950 . S
C254 C253 1.397 1_565 S
C254 C255 1.334 . S
C255 H232 0.950 . S
C255 C254 1.334 . S
C255 C256 1.287 . S
C256 C255 1.287 . S
C256 C257 1.524 1_565 S
C256 H275 0.913 . S
C257 H233 0.950 . S
C257 C256 1.524 1_545 S
C257 C258 1.415 . S
C258 H234 0.950 . S
C258 C253 1.363 . S
C258 C257 1.415 . S
C259 H235 0.951 . S
C259 C260 1.366 . S
C259 C261 1.388 . S
C260 C259 1.366 . S
C260 C264 1.385 . S
C261 H236 0.951 . S
C261 C259 1.388 . S
C261 C262 1.366 . S
C262 C261 1.366 . S
C262 C263 1.414 . S
C262 C265 1.499 . S
C263 H237 0.950 . S
C263 C262 1.414 . S
C263 C264 1.374 . S
C264 H238 0.950 . S
C264 C260 1.385 . S
C264 C263 1.374 . S
C265 C262 1.499 . S
C265 C266 1.373 . S
C265 C267 1.389 . S
C266 H239 0.950 . S
C266 C252 1.377 . S
C266 C265 1.373 . S
C267 C251 1.377 . S
C267 C265 1.389 . S
C267 C268 1.524 . S
C268 C267 1.524 . S
C268 C269 1.397 . S
C268 C273 1.363 . S
C269 H240 0.950 . S
C269 C268 1.397 . S
C269 C270 1.334 . S
C270 H241 0.950 . S
C270 C269 1.334 . S
C270 C271 1.287 . S
C271 C270 1.287 . S
C271 C272 1.524 . S
C271 H274 0.999 . S
C272 H242 0.950 . S
C272 C271 1.524 . S
C272 C273 1.415 . S
C273 H243 0.950 1_545 S
C273 C268 1.363 . S
C273 C272 1.415 . S
H274 C271 0.999 . S
H275 C256 0.913 . S
H276 C294 0.964 . S
H277 C296 0.951 . S
H278 C298 0.950 . S
H279 C299 0.950 . S
H280 C301 0.950 . S
H281 C304 0.950 . S
H282 C305 0.950 . S
H283 C307 0.950 . S
H284 C308 0.950 . S
H285 C309 0.951 . S
H286 C311 0.951 . S
H287 C313 0.950 . S
H288 C314 0.950 . S
H289 C316 0.950 . S
H290 C319 0.950 . S
H291 C320 0.950 . S
H292 C322 0.950 . S
H293 C323 0.950 . S
C294 H276 0.964 . S
C294 C295 1.366 . S
C294 C296 1.388 1_545 S
C295 C294 1.366 . S
C295 C299 1.385 . S
C296 H277 0.951 . S
C296 C294 1.388 1_565 S
C296 C297 1.366 1_565 S
C297 C296 1.366 1_545 S
C297 C298 1.414 . S
C297 C300 1.499 1_545 S
C298 H278 0.950 . S
C298 C297 1.414 . S
C298 C299 1.374 . S
C299 H279 0.950 . S
C299 C295 1.385 . S
C299 C298 1.374 . S
C300 C297 1.499 1_565 S
C300 C301 1.373 . S
C300 C302 1.389 . S
C301 H280 0.950 . S
C301 C300 1.373 . S
C301 C317 1.377 . S
C302 C300 1.389 . S
C302 C303 1.524 1_565 S
C302 C316 1.377 . S
C303 C302 1.524 1_545 S
C303 C304 1.397 . S
C303 C308 1.363 1_545 S
C304 H281 0.950 . S
C304 C303 1.397 . S
C304 C305 1.334 . S
C305 H282 0.950 . S
C305 C304 1.334 . S
C305 C306 1.287 . S
C306 C305 1.287 . S
C306 C307 1.524 . S
C306 H325 0.913 . S
C307 H283 0.950 . S
C307 C306 1.524 . S
C307 C308 1.415 1_545 S
C308 H284 0.950 . S
C308 C303 1.363 1_565 S
C308 C307 1.415 1_565 S
C309 H285 0.951 . S
C309 C310 1.366 . S
C309 C311 1.388 . S
C310 C309 1.366 . S
C310 C314 1.385 . S
C311 H286 0.951 . S
C311 C309 1.388 . S
C311 C312 1.366 . S
C312 C311 1.366 . S
C312 C313 1.414 . S
C312 C315 1.499 . S
C313 H287 0.950 . S
C313 C312 1.414 . S
C313 C314 1.374 . S
C314 H288 0.950 . S
C314 C310 1.385 . S
C314 C313 1.374 . S
C315 C312 1.499 . S
C315 C316 1.373 . S
C315 C317 1.389 . S
C316 H289 0.950 . S
C316 C302 1.377 . S
C316 C315 1.373 . S
C317 C301 1.377 . S
C317 C315 1.389 . S
C317 C318 1.524 . S
C318 C317 1.524 . S
C318 C319 1.397 . S
C318 C323 1.363 . S
C319 H290 0.950 . S
C319 C318 1.397 . S
C319 C320 1.334 . S
C320 H291 0.950 . S
C320 C319 1.334 . S
C320 C321 1.287 . S
C321 C320 1.287 . S
C321 C322 1.524 . S
C321 H324 0.999 . S
C322 H292 0.950 . S
C322 C321 1.524 . S
C322 C323 1.415 . S
C323 H293 0.950 . S
C323 C318 1.363 . S
C323 C322 1.415 . S
H324 C321 0.999 . S
H325 C306 0.913 . S
H326 C344 0.951 . S
H327 C346 0.951 . S
H328 C348 0.950 . S
H329 C349 0.950 . S
H330 C351 0.950 . S
H331 C354 0.950 . S
H332 C355 0.950 . S
H333 C357 0.950 . S
H334 C358 0.950 . S
H335 C359 0.951 . S
H336 C361 0.951 . S
H337 C363 0.950 . S
H338 C364 0.950 . S
H339 C366 0.939 1_545 S
H340 C369 0.950 . S
H341 C370 0.950 . S
H342 C372 0.950 . S
H343 C373 0.950 . S
C344 H326 0.951 . S
C344 C345 1.366 . S
C344 C346 1.388 . S
C345 C344 1.366 . S
C345 C349 1.385 1_545 S
C346 H327 0.951 . S
C346 C344 1.388 . S
C346 C347 1.366 . S
C347 C346 1.366 . S
C347 C348 1.414 1_545 S
C347 C350 1.499 1_545 S
C348 H328 0.950 . S
C348 C347 1.414 1_565 S
C348 C349 1.374 . S
C349 H329 0.950 . S
C349 C345 1.385 1_565 S
C349 C348 1.374 . S
C350 C347 1.499 1_565 S
C350 C351 1.373 . S
C350 C352 1.389 1_565 S
C351 H330 0.950 . S
C351 C350 1.373 . S
C351 C367 1.377 . S
C352 C350 1.389 1_545 S
C352 C353 1.524 . S
C352 C366 1.377 1_545 S
C353 C352 1.524 . S
C353 C354 1.397 . S
C353 C358 1.363 . S
C354 H331 0.950 . S
C354 C353 1.397 . S
C354 C355 1.334 . S
C355 H332 0.950 . S
C355 C354 1.334 . S
C355 C356 1.287 . S
C356 C355 1.287 . S
C356 C357 1.524 . S
C356 H375 0.913 . S
C357 H333 0.950 . S
C357 C356 1.524 . S
C357 C358 1.415 . S
C358 H334 0.950 . S
C358 C353 1.363 . S
C358 C357 1.415 . S
C359 H335 0.951 . S
C359 C360 1.366 . S
C359 C361 1.388 . S
C360 C359 1.366 . S
C360 C364 1.385 . S
C361 H336 0.951 . S
C361 C359 1.388 . S
C361 C362 1.366 . S
C362 C361 1.366 . S
C362 C363 1.414 . S
C362 C365 1.499 . S
C363 H337 0.950 . S
C363 C362 1.414 . S
C363 C364 1.374 . S
C364 H338 0.950 . S
C364 C360 1.385 . S
C364 C363 1.374 . S
C365 C362 1.499 . S
C365 C366 1.373 . S
C365 C367 1.389 . S
C366 H339 0.939 1_565 S
C366 C352 1.377 1_565 S
C366 C365 1.373 . S
C367 C351 1.377 . S
C367 C365 1.389 . S
C367 C368 1.524 . S
C368 C367 1.524 . S
C368 C369 1.397 . S
C368 C373 1.363 . S
C369 H340 0.950 . S
C369 C368 1.397 . S
C369 C370 1.334 . S
C370 H341 0.950 . S
C370 C369 1.334 . S
C370 C371 1.287 . S
C371 C370 1.287 . S
C371 C372 1.524 . S
C371 H374 0.999 . S
C372 H342 0.950 . S
C372 C371 1.524 . S
C372 C373 1.415 . S
C373 H343 0.950 . S
C373 C368 1.363 . S
C373 C372 1.415 . S
H374 C371 0.999 . S
H375 C356 0.913 . S
H376 C394 0.951 . S
H377 C396 0.951 . S
H378 C398 0.950 . S
H379 C399 0.950 . S
H380 C401 0.950 . S
H381 C404 0.950 . S
H382 C405 0.950 . S
H383 C407 0.950 . S
H384 C408 0.950 . S
H385 C409 0.951 . S
H386 C411 0.951 . S
H387 C413 0.950 . S
H388 C414 0.950 . S
H389 C416 0.950 . S
H390 C419 0.950 . S
H391 C420 0.950 . S
H392 C422 0.950 . S
H393 C423 0.950 . S
C394 H376 0.951 . S
C394 C395 1.366 . S
C394 C396 1.388 . S
C395 C394 1.366 . S
C395 C399 1.385 . S
C396 H377 0.951 . S
C396 C394 1.388 . S
C396 C397 1.366 . S
C397 C396 1.366 . S
C397 C398 1.414 . S
C397 C400 1.499 . S
C398 H378 0.950 . S
C398 C397 1.414 . S
C398 C399 1.374 . S
C399 H379 0.950 . S
C399 C395 1.385 . S
C399 C398 1.374 . S
C400 C397 1.499 . S
C400 C401 1.373 . S
C400 C402 1.389 . S
C401 H380 0.950 . S
C401 C400 1.373 . S
C401 C417 1.377 . S
C402 C400 1.389 . S
C402 C403 1.524 . S
C402 C416 1.377 . S
C403 C402 1.524 . S
C403 C404 1.397 . S
C403 C408 1.363 . S
C404 H381 0.950 . S
C404 C403 1.397 . S
C404 C405 1.334 . S
C405 H382 0.950 . S
C405 C404 1.334 . S
C405 C406 1.287 . S
C406 C405 1.287 . S
C406 C407 1.524 . S
C406 H425 0.913 . S
C407 H383 0.950 . S
C407 C406 1.524 . S
C407 C408 1.415 . S
C408 H384 0.950 . S
C408 C403 1.363 . S
C408 C407 1.415 . S
C409 H385 0.951 . S
C409 C410 1.366 . S
C409 C411 1.388 . S
C410 C409 1.366 . S
C410 C414 1.385 . S
C411 H386 0.951 . S
C411 C409 1.388 . S
C411 C412 1.366 . S
C412 C411 1.366 . S
C412 C413 1.414 . S
C412 C415 1.499 . S
C413 H387 0.950 . S
C413 C412 1.414 . S
C413 C414 1.374 . S
C414 H388 0.950 . S
C414 C410 1.385 . S
C414 C413 1.374 . S
C415 C412 1.499 . S
C415 C416 1.373 . S
C415 C417 1.389 . S
C416 H389 0.950 . S
C416 C402 1.377 . S
C416 C415 1.373 . S
C417 C401 1.377 . S
C417 C415 1.389 . S
C417 C418 1.524 . S
C418 C417 1.524 . S
C418 C419 1.397 . S
C418 C423 1.363 . S
C419 H390 0.950 . S
C419 C418 1.397 . S
C419 C420 1.334 . S
C420 H391 0.950 . S
C420 C419 1.334 . S
C420 C421 1.287 . S
C421 C420 1.287 . S
C421 C422 1.524 . S
C421 H424 0.999 . S
C422 H392 0.950 . S
C422 C421 1.524 . S
C422 C423 1.415 . S
C423 H393 0.950 . S
C423 C418 1.363 . S
C423 C422 1.415 . S
H424 C421 0.999 . S
H425 C406 0.913 . S
H426 C444 0.951 . S
H427 C446 0.951 . S
H428 C448 0.950 . S
H429 C449 0.950 . S
H430 C451 0.950 . S
H431 C454 0.950 . S
H432 C455 0.950 . S
H433 C457 0.950 . S
H434 C458 0.950 . S
H435 C459 0.951 . S
H436 C461 0.951 . S
H437 C463 0.950 . S
H438 C464 0.950 . S
H439 C466 0.950 . S
H440 C469 0.950 . S
H441 C470 0.950 . S
H442 C472 0.950 . S
H443 C473 0.950 . S
C444 H426 0.951 . S
C444 C445 1.366 . S
C444 C446 1.388 . S
C445 C444 1.366 . S
C445 C449 1.385 . S
C446 H427 0.951 . S
C446 C444 1.388 . S
C446 C447 1.366 . S
C447 C446 1.366 . S
C447 C448 1.414 . S
C447 C450 1.499 . S
C448 H428 0.950 . S
C448 C447 1.414 . S
C448 C449 1.374 . S
C449 H429 0.950 . S
C449 C445 1.385 . S
C449 C448 1.374 . S
C450 C447 1.499 . S
C450 C451 1.373 . S
C450 C452 1.389 . S
C451 H430 0.950 . S
C451 C450 1.373 . S
C451 C467 1.377 . S
C452 C450 1.389 . S
C452 C453 1.524 . S
C452 C466 1.377 . S
C453 C452 1.524 . S
C453 C454 1.397 . S
C453 C458 1.363 . S
C454 H431 0.950 . S
C454 C453 1.397 . S
C454 C455 1.334 . S
C455 H432 0.950 . S
C455 C454 1.334 . S
C455 C456 1.287 . S
C456 C455 1.287 . S
C456 C457 1.524 . S
C456 H475 0.913 . S
C457 H433 0.950 . S
C457 C456 1.524 . S
C457 C458 1.415 . S
C458 H434 0.950 . S
C458 C453 1.363 . S
C458 C457 1.415 . S
C459 H435 0.951 . S
C459 C460 1.366 . S
C459 C461 1.388 . S
C460 C459 1.366 . S
C460 C464 1.385 . S
C461 H436 0.951 . S
C461 C459 1.388 . S
C461 C462 1.366 . S
C462 C461 1.366 . S
C462 C463 1.414 . S
C462 C465 1.499 . S
C463 H437 0.950 . S
C463 C462 1.414 . S
C463 C464 1.374 . S
C464 H438 0.950 . S
C464 C460 1.385 . S
C464 C463 1.374 . S
C465 C462 1.499 . S
C465 C466 1.373 . S
C465 C467 1.389 . S
C466 H439 0.950 . S
C466 C452 1.377 . S
C466 C465 1.373 . S
C467 C451 1.377 . S
C467 C465 1.389 . S
C467 C468 1.524 . S
C468 C467 1.524 . S
C468 C469 1.397 . S
C468 C473 1.363 . S
C469 H440 0.950 . S
C469 C468 1.397 . S
C469 C470 1.334 . S
C470 H441 0.950 . S
C470 C469 1.334 . S
C470 C471 1.287 . S
C471 C470 1.287 . S
C471 C472 1.524 . S
C471 H474 0.999 . S
C472 H442 0.950 . S
C472 C471 1.524 . S
C472 C473 1.415 . S
C473 H443 0.950 . S
C473 C468 1.363 . S
C473 C472 1.415 . S
H474 C471 0.999 . S
H475 C456 0.913 . S
H476 C494 0.951 . S
H477 C496 0.951 . S
H478 C498 0.950 . S
H479 C499 0.950 . S
H480 C501 0.950 . S
H481 C504 0.950 . S
H482 C505 0.950 . S
H483 C507 0.950 . S
H484 C508 0.950 . S
H485 C509 0.951 . S
H486 C511 0.951 . S
H487 C513 0.950 . S
H488 C514 0.950 . S
H489 C516 0.950 . S
H490 C519 0.950 . S
H491 C520 0.950 . S
H492 C522 0.950 . S
H493 C523 0.950 . S
C494 H476 0.951 . S
C494 C495 1.366 . S
C494 C496 1.388 . S
C495 C494 1.366 . S
C495 C499 1.385 . S
C496 H477 0.951 . S
C496 C494 1.388 . S
C496 C497 1.366 . S
C497 C496 1.366 . S
C497 C498 1.414 . S
C497 C500 1.499 . S
C498 H478 0.950 . S
C498 C497 1.414 . S
C498 C499 1.374 . S
C499 H479 0.950 . S
C499 C495 1.385 . S
C499 C498 1.374 . S
C500 C497 1.499 . S
C500 C501 1.373 . S
C500 C502 1.389 . S
C501 H480 0.950 . S
C501 C500 1.373 . S
C501 C517 1.377 . S
C502 C500 1.389 . S
C502 C503 1.524 . S
C502 C516 1.377 . S
C503 C502 1.524 . S
C503 C504 1.397 . S
C503 C508 1.363 . S
C504 H481 0.950 . S
C504 C503 1.397 . S
C504 C505 1.334 . S
C505 H482 0.950 . S
C505 C504 1.334 . S
C505 C506 1.287 . S
C506 C505 1.287 . S
C506 C507 1.524 . S
C506 H525 0.913 . S
C507 H483 0.950 . S
C507 C506 1.524 . S
C507 C508 1.415 . S
C508 H484 0.950 . S
C508 C503 1.363 . S
C508 C507 1.415 . S
C509 H485 0.951 . S
C509 C510 1.366 . S
C509 C511 1.388 . S
C510 C509 1.366 . S
C510 C514 1.385 . S
C511 H486 0.951 . S
C511 C509 1.388 . S
C511 C512 1.366 . S
C512 C511 1.366 . S
C512 C513 1.414 . S
C512 C515 1.499 . S
C513 H487 0.950 . S
C513 C512 1.414 . S
C513 C514 1.374 . S
C514 H488 0.950 . S
C514 C510 1.385 . S
C514 C513 1.374 . S
C515 C512 1.499 . S
C515 C516 1.373 . S
C515 C517 1.389 . S
C516 H489 0.950 . S
C516 C502 1.377 . S
C516 C515 1.373 . S
C517 C501 1.377 . S
C517 C515 1.389 . S
C517 C518 1.524 . S
C518 C517 1.524 . S
C518 C519 1.397 . S
C518 C523 1.363 . S
C519 H490 0.950 . S
C519 C518 1.397 . S
C519 C520 1.334 . S
C520 H491 0.950 . S
C520 C519 1.334 . S
C520 C521 1.287 . S
C521 C520 1.287 . S
C521 C522 1.524 . S
C521 H524 0.999 . S
C522 H492 0.950 . S
C522 C521 1.524 . S
C522 C523 1.415 . S
C523 H493 0.950 . S
C523 C518 1.363 . S
C523 C522 1.415 . S
H524 C521 0.999 . S
H525 C506 0.913 . S
H526 C544 0.951 . S
H527 C546 0.951 . S
H528 C548 0.950 . S
H529 C549 0.950 . S
H530 C551 0.950 . S
H531 C554 0.950 . S
H532 C555 0.950 . S
H533 C557 0.950 . S
H534 C558 0.950 . S
H535 C559 0.951 . S
H536 C561 0.951 . S
H537 C563 0.950 . S
H538 C564 0.950 . S
H539 C566 0.950 . S
H540 C569 0.950 . S
H541 C570 0.950 . S
H542 C572 0.950 . S
H543 C573 0.950 . S
C544 H526 0.951 . S
C544 C545 1.366 . S
C544 C546 1.388 . S
C545 C544 1.366 . S
C545 C549 1.385 . S
C546 H527 0.951 . S
C546 C544 1.388 . S
C546 C547 1.366 . S
C547 C546 1.366 . S
C547 C548 1.414 . S
C547 C550 1.499 . S
C548 H528 0.950 . S
C548 C547 1.414 . S
C548 C549 1.374 . S
C549 H529 0.950 . S
C549 C545 1.385 . S
C549 C548 1.374 . S
C550 C547 1.499 . S
C550 C551 1.373 . S
C550 C552 1.389 . S
C551 H530 0.950 . S
C551 C550 1.373 . S
C551 C567 1.377 . S
C552 C550 1.389 . S
C552 C553 1.524 . S
C552 C566 1.377 . S
C553 C552 1.524 . S
C553 C554 1.397 . S
C553 C558 1.363 . S
C554 H531 0.950 . S
C554 C553 1.397 . S
C554 C555 1.334 . S
C555 H532 0.950 . S
C555 C554 1.334 . S
C555 C556 1.287 . S
C556 C555 1.287 . S
C556 C557 1.524 . S
C556 H575 0.913 . S
C557 H533 0.950 . S
C557 C556 1.524 . S
C557 C558 1.415 . S
C558 H534 0.950 . S
C558 C553 1.363 . S
C558 C557 1.415 . S
C559 H535 0.951 . S
C559 C560 1.366 . S
C559 C561 1.388 . S
C560 C559 1.366 . S
C560 C564 1.385 . S
C561 H536 0.951 . S
C561 C559 1.388 . S
C561 C562 1.366 . S
C562 C561 1.366 . S
C562 C563 1.414 . S
C562 C565 1.499 . S
C563 H537 0.950 . S
C563 C562 1.414 . S
C563 C564 1.374 . S
C564 H538 0.950 . S
C564 C560 1.385 . S
C564 C563 1.374 . S
C565 C562 1.499 . S
C565 C566 1.373 . S
C565 C567 1.389 . S
C566 H539 0.950 . S
C566 C552 1.377 . S
C566 C565 1.373 . S
C567 C551 1.377 . S
C567 C565 1.389 . S
C567 C568 1.524 . S
C568 C567 1.524 . S
C568 C569 1.397 . S
C568 C573 1.363 . S
C569 H540 0.950 . S
C569 C568 1.397 . S
C569 C570 1.334 . S
C570 H541 0.950 . S
C570 C569 1.334 . S
C570 C571 1.287 . S
C571 C570 1.287 . S
C571 C572 1.524 . S
C571 H574 0.999 . S
C572 H542 0.950 . S
C572 C571 1.524 . S
C572 C573 1.415 . S
C573 H543 0.950 . S
C573 C568 1.363 . S
C573 C572 1.415 . S
H574 C571 0.999 . S
H575 C556 0.913 . S
H576 C594 0.951 1_556 S
H577 C596 0.951 1_556 S
H578 C598 0.950 . S
H579 C599 0.950 . S
H580 C601 0.950 . S
H581 C604 0.950 . S
H582 C605 0.950 . S
H583 C607 0.950 . S
H584 C608 0.950 . S
H585 C609 0.951 1_554 S
H586 C611 0.951 1_554 S
H587 C613 0.950 . S
H588 C614 0.950 . S
H589 C616 0.950 . S
H590 C619 0.950 . S
H591 C620 0.950 . S
H592 C622 0.950 . S
H593 C623 0.950 . S
C594 H576 0.951 1_554 S
C594 C595 1.366 . S
C594 C596 1.388 . S
C595 C594 1.366 . S
C595 C599 1.385 . S
C596 H577 0.951 1_554 S
C596 C594 1.388 . S
C596 C597 1.366 . S
C597 C596 1.366 . S
C597 C598 1.414 . S
C597 C600 1.499 . S
C598 H578 0.950 . S
C598 C597 1.414 . S
C598 C599 1.374 . S
C599 H579 0.950 . S
C599 C595 1.385 . S
C599 C598 1.374 . S
C600 C597 1.499 . S
C600 C601 1.373 . S
C600 C602 1.389 1_544 S
C601 H580 0.950 . S
C601 C600 1.373 . S
C601 C617 1.377 . S
C602 C600 1.389 1_566 S
C602 C603 1.524 . S
C602 C616 1.377 . S
C603 C602 1.524 . S
C603 C604 1.397 1_556 S
C603 C608 1.363 . S
C604 H581 0.950 . S
C604 C603 1.397 1_554 S
C604 C605 1.334 . S
C605 H582 0.950 . S
C605 C604 1.334 . S
C605 C606 1.287 1_554 S
C606 C605 1.287 1_556 S
C606 C607 1.524 . S
C606 H625 0.913 . S
C607 H583 0.950 . S
C607 C606 1.524 . S
C607 C608 1.415 . S
C608 H584 0.950 . S
C608 C603 1.363 . S
C608 C607 1.415 . S
C609 H585 0.951 1_556 S
C609 C610 1.366 . S
C609 C611 1.388 . S
C610 C609 1.366 . S
C610 C614 1.385 . S
C611 H586 0.951 1_556 S
C611 C609 1.388 . S
C611 C612 1.366 . S
C612 C611 1.366 . S
C612 C613 1.414 . S
C612 C615 1.499 . S
C613 H587 0.950 . S
C613 C612 1.414 . S
C613 C614 1.374 . S
C614 H588 0.950 . S
C614 C610 1.385 . S
C614 C613 1.374 . S
C615 C612 1.499 . S
C615 C616 1.373 . S
C615 C617 1.389 1_566 S
C616 H589 0.950 . S
C616 C602 1.377 . S
C616 C615 1.373 . S
C617 C601 1.377 . S
C617 C615 1.389 1_544 S
C617 C618 1.524 . S
C618 C617 1.524 . S
C618 C619 1.397 1_554 S
C618 C623 1.363 . S
C619 H590 0.950 . S
C619 C618 1.397 1_556 S
C619 C620 1.334 . S
C620 H591 0.950 . S
C620 C619 1.334 . S
C620 C621 1.287 1_556 S
C621 C620 1.287 1_554 S
C621 C622 1.524 . S
C621 H624 0.999 . S
C622 H592 0.950 . S
C622 C621 1.524 . S
C622 C623 1.415 . S
C623 H593 0.950 . S
C623 C618 1.363 . S
C623 C622 1.415 . S
H624 C621 0.999 . S
H625 C606 0.913 . S
H626 C644 0.951 . S
H627 C646 0.951 1_545 S
H628 C648 0.950 . S
H629 C649 0.950 . S
H630 C651 0.950 . S
H631 C654 0.950 . S
H632 C655 0.950 . S
H633 C657 0.950 . S
H634 C658 0.950 . S
H635 C659 0.951 . S
H636 C661 0.951 1_565 S
H637 C663 0.950 . S
H638 C664 0.950 . S
H639 C666 0.950 . S
H640 C669 0.950 . S
H641 C670 0.950 . S
H642 C672 0.950 . S
H643 C673 0.950 . S
C644 H626 0.951 . S
C644 C645 1.366 . S
C644 C646 1.388 . S
C645 C644 1.366 . S
C645 C649 1.385 . S
C646 H627 0.951 1_565 S
C646 C644 1.388 . S
C646 C647 1.366 . S
C647 C646 1.366 . S
C647 C648 1.414 . S
C647 C650 1.499 . S
C648 H628 0.950 . S
C648 C647 1.414 . S
C648 C649 1.374 . S
C649 H629 0.950 . S
C649 C645 1.385 . S
C649 C648 1.374 . S
C650 C647 1.499 . S
C650 C651 1.373 . S
C650 C652 1.389 1_565 S
C651 H630 0.950 . S
C651 C650 1.373 . S
C651 C667 1.377 . S
C652 C650 1.389 1_545 S
C652 C653 1.524 . S
C652 C666 1.377 . S
C653 C652 1.524 . S
C653 C654 1.397 . S
C653 C658 1.363 . S
C654 H631 0.950 . S
C654 C653 1.397 . S
C654 C655 1.334 . S
C655 H632 0.950 . S
C655 C654 1.334 . S
C655 C656 1.287 . S
C656 C655 1.287 . S
C656 C657 1.524 . S
C656 H675 0.913 . S
C657 H633 0.950 . S
C657 C656 1.524 . S
C657 C658 1.415 . S
C658 H634 0.950 . S
C658 C653 1.363 . S
C658 C657 1.415 . S
C659 H635 0.951 . S
C659 C660 1.366 . S
C659 C661 1.388 . S
C660 C659 1.366 . S
C660 C664 1.385 . S
C661 H636 0.951 1_545 S
C661 C659 1.388 . S
C661 C662 1.366 . S
C662 C661 1.366 . S
C662 C663 1.414 . S
C662 C665 1.499 . S
C663 H637 0.950 . S
C663 C662 1.414 . S
C663 C664 1.374 . S
C664 H638 0.950 . S
C664 C660 1.385 . S
C664 C663 1.374 . S
C665 C662 1.499 . S
C665 C666 1.373 . S
C665 C667 1.389 1_545 S
C666 H639 0.950 . S
C666 C652 1.377 . S
C666 C665 1.373 . S
C667 C651 1.377 . S
C667 C665 1.389 1_565 S
C667 C668 1.524 . S
C668 C667 1.524 . S
C668 C669 1.397 . S
C668 C673 1.363 . S
C669 H640 0.950 . S
C669 C668 1.397 . S
C669 C670 1.334 . S
C670 H641 0.950 . S
C670 C669 1.334 . S
C670 C671 1.287 . S
C671 C670 1.287 . S
C671 C672 1.524 . S
C671 H674 0.999 . S
C672 H642 0.950 . S
C672 C671 1.524 . S
C672 C673 1.415 . S
C673 H643 0.950 . S
C673 C668 1.363 . S
C673 C672 1.415 . S
H674 C671 0.999 . S
H675 C656 0.913 . S
H676 C694 0.951 . S
H677 C696 0.951 . S
H678 C698 0.950 1_556 S
H679 C699 0.950 . S
H680 C701 0.950 . S
H681 C704 0.950 . S
H682 C705 0.950 . S
H683 C707 0.950 . S
H684 C708 0.950 . S
H685 C709 0.951 . S
H686 C711 0.951 . S
H687 C713 0.950 1_554 S
H688 C714 0.950 . S
H689 C716 0.950 . S
H690 C719 0.950 . S
H691 C720 0.950 . S
H692 C722 0.950 . S
H693 C723 0.950 . S
C694 H676 0.951 . S
C694 C695 1.366 . S
C694 C696 1.388 . S
C695 C694 1.366 . S
C695 C699 1.385 . S
C696 H677 0.951 . S
C696 C694 1.388 . S
C696 C697 1.366 . S
C697 C696 1.366 . S
C697 C698 1.414 . S
C697 C700 1.499 . S
C698 H678 0.950 1_554 S
C698 C697 1.414 . S
C698 C699 1.374 . S
C699 H679 0.950 . S
C699 C695 1.385 . S
C699 C698 1.374 . S
C700 C697 1.499 . S
C700 C701 1.373 1_554 S
C700 C702 1.390 . S
C701 H680 0.950 . S
C701 C700 1.373 1_556 S
C701 C717 1.376 1_655 S
C702 C700 1.390 . S
C702 C703 1.524 1_655 S
C702 C716 1.376 1_655 S
C703 C702 1.524 1_455 S
C703 C704 1.397 1_455 S
C703 C708 1.363 . S
C704 H681 0.950 . S
C704 C703 1.397 1_655 S
C704 C705 1.334 . S
C705 H682 0.950 . S
C705 C704 1.334 . S
C705 C706 1.287 1_655 S
C706 C705 1.287 1_455 S
C706 C707 1.524 . S
C706 H725 0.913 . S
C707 H683 0.950 . S
C707 C706 1.524 . S
C707 C708 1.415 . S
C708 H684 0.950 . S
C708 C703 1.363 . S
C708 C707 1.415 . S
C709 H685 0.951 . S
C709 C710 1.366 . S
C709 C711 1.388 . S
C710 C709 1.366 . S
C710 C714 1.385 . S
C711 H686 0.951 . S
C711 C709 1.388 . S
C711 C712 1.366 . S
C712 C711 1.366 . S
C712 C713 1.414 . S
C712 C715 1.499 . S
C713 H687 0.950 1_556 S
C713 C712 1.414 . S
C713 C714 1.374 . S
C714 H688 0.950 . S
C714 C710 1.385 . S
C714 C713 1.374 . S
C715 C712 1.499 . S
C715 C716 1.373 1_556 S
C715 C717 1.390 . S
C716 H689 0.950 . S
C716 C702 1.376 1_455 S
C716 C715 1.373 1_554 S
C717 C701 1.376 1_455 S
C717 C715 1.390 . S
C717 C718 1.524 1_455 S
C718 C717 1.524 1_655 S
C718 C719 1.397 1_655 S
C718 C723 1.363 . S
C719 H690 0.950 . S
C719 C718 1.397 1_455 S
C719 C720 1.334 . S
C720 H691 0.950 . S
C720 C719 1.334 . S
C720 C721 1.287 1_455 S
C721 C720 1.287 1_655 S
C721 C722 1.524 . S
C721 H724 0.999 . S
C722 H692 0.950 . S
C722 C721 1.524 . S
C722 C723 1.415 . S
C723 H693 0.950 . S
C723 C718 1.363 . S
C723 C722 1.415 . S
H724 C721 0.999 . S
H725 C706 0.913 . S
H726 C744 0.951 . S
H727 C746 0.951 . S
H728 C748 0.950 . S
H729 C749 0.950 . S
H730 C751 0.950 . S
H731 C754 0.950 . S
H732 C755 0.950 . S
H733 C757 0.950 . S
H734 C758 0.950 . S
H735 C759 0.951 . S
H736 C761 0.951 . S
H737 C763 0.950 . S
H738 C764 0.950 . S
H739 C766 0.950 . S
H740 C769 0.950 . S
H741 C770 0.950 . S
H742 C772 0.950 . S
H743 C773 0.950 . S
C744 H726 0.951 . S
C744 C745 1.366 . S
C744 C746 1.388 . S
C745 C744 1.366 . S
C745 C749 1.385 . S
C746 H727 0.951 . S
C746 C744 1.388 . S
C746 C747 1.366 . S
C747 C746 1.366 . S
C747 C748 1.414 . S
C747 C750 1.499 . S
C748 H728 0.950 . S
C748 C747 1.414 . S
C748 C749 1.374 . S
C749 H729 0.950 . S
C749 C745 1.385 . S
C749 C748 1.374 . S
C750 C747 1.499 . S
C750 C751 1.373 . S
C750 C752 1.389 . S
C751 H730 0.950 . S
C751 C750 1.373 . S
C751 C767 1.377 1_455 S
C752 C750 1.389 . S
C752 C753 1.524 . S
C752 C766 1.377 1_455 S
C753 C752 1.524 . S
C753 C754 1.397 . S
C753 C758 1.363 . S
C754 H731 0.950 . S
C754 C753 1.397 . S
C754 C755 1.334 . S
C755 H732 0.950 . S
C755 C754 1.334 . S
C755 C756 1.287 . S
C756 C755 1.287 . S
C756 C757 1.524 . S
C756 H775 0.913 . S
C757 H733 0.950 . S
C757 C756 1.524 . S
C757 C758 1.415 . S
C758 H734 0.950 . S
C758 C753 1.363 . S
C758 C757 1.415 . S
C759 H735 0.951 . S
C759 C760 1.366 . S
C759 C761 1.388 . S
C760 C759 1.366 . S
C760 C764 1.385 . S
C761 H736 0.951 . S
C761 C759 1.388 . S
C761 C762 1.366 . S
C762 C761 1.366 . S
C762 C763 1.414 . S
C762 C765 1.499 . S
C763 H737 0.950 . S
C763 C762 1.414 . S
C763 C764 1.374 . S
C764 H738 0.950 . S
C764 C760 1.385 . S
C764 C763 1.374 . S
C765 C762 1.499 . S
C765 C766 1.373 . S
C765 C767 1.389 . S
C766 H739 0.950 . S
C766 C752 1.377 1_655 S
C766 C765 1.373 . S
C767 C751 1.377 1_655 S
C767 C765 1.389 . S
C767 C768 1.524 . S
C768 C767 1.524 . S
C768 C769 1.397 . S
C768 C773 1.363 . S
C769 H740 0.950 . S
C769 C768 1.397 . S
C769 C770 1.334 . S
C770 H741 0.950 . S
C770 C769 1.334 . S
C770 C771 1.287 . S
C771 C770 1.287 . S
C771 C772 1.524 . S
C771 H774 0.999 . S
C772 H742 0.950 . S
C772 C771 1.524 . S
C772 C773 1.415 . S
C773 H743 0.950 . S
C773 C768 1.363 . S
C773 C772 1.415 . S
H774 C771 0.999 . S
H775 C756 0.913 . S
H776 C794 0.951 . S
H777 C796 0.951 . S
H778 C798 0.950 1_565 S
H779 C799 0.950 . S
H780 C801 0.950 . S
H781 C804 0.950 . S
H782 C805 0.950 . S
H783 C807 0.950 . S
H784 C808 0.950 . S
H785 C809 0.951 . S
H786 C811 0.951 . S
H787 C813 0.950 1_545 S
H788 C814 0.950 . S
H789 C816 0.950 . S
H790 C819 0.950 . S
H791 C820 0.950 . S
H792 C822 0.950 . S
H793 C823 0.950 . S
C794 H776 0.951 . S
C794 C795 1.366 . S
C794 C796 1.388 . S
C795 C794 1.366 . S
C795 C799 1.385 . S
C796 H777 0.951 . S
C796 C794 1.388 . S
C796 C797 1.366 . S
C797 C796 1.366 . S
C797 C798 1.414 . S
C797 C800 1.499 . S
C798 H778 0.950 1_545 S
C798 C797 1.414 . S
C798 C799 1.374 . S
C799 H779 0.950 . S
C799 C795 1.385 . S
C799 C798 1.374 . S
C800 C797 1.499 . S
C800 C801 1.373 1_544 S
C800 C802 1.389 . S
C801 H780 0.950 . S
C801 C800 1.373 1_566 S
C801 C817 1.377 1_455 S
C802 C800 1.389 . S
C802 C803 1.524 . S
C802 C816 1.377 1_455 S
C803 C802 1.524 . S
C803 C804 1.397 . S
C803 C808 1.363 1_455 S
C804 H781 0.950 . S
C804 C803 1.397 . S
C804 C805 1.334 . S
C805 H782 0.950 . S
C805 C804 1.334 . S
C805 C806 1.287 . S
C806 C805 1.287 . S
C806 C807 1.524 1_455 S
C806 H825 0.913 . S
C807 H783 0.950 . S
C807 C806 1.524 1_655 S
C807 C808 1.415 . S
C808 H784 0.950 . S
C808 C803 1.363 1_655 S
C808 C807 1.415 . S
C809 H785 0.951 . S
C809 C810 1.366 . S
C809 C811 1.388 . S
C810 C809 1.366 . S
C810 C814 1.385 . S
C811 H786 0.951 . S
C811 C809 1.388 . S
C811 C812 1.366 . S
C812 C811 1.366 . S
C812 C813 1.414 . S
C812 C815 1.499 . S
C813 H787 0.950 1_565 S
C813 C812 1.414 . S
C813 C814 1.374 . S
C814 H788 0.950 . S
C814 C810 1.385 . S
C814 C813 1.374 . S
C815 C812 1.499 . S
C815 C816 1.373 1_566 S
C815 C817 1.389 . S
C816 H789 0.950 . S
C816 C802 1.377 1_655 S
C816 C815 1.373 1_544 S
C817 C801 1.377 1_655 S
C817 C815 1.389 . S
C817 C818 1.524 . S
C818 C817 1.524 . S
C818 C819 1.397 . S
C818 C823 1.363 1_655 S
C819 H790 0.950 . S
C819 C818 1.397 . S
C819 C820 1.334 . S
C820 H791 0.950 . S
C820 C819 1.334 . S
C820 C821 1.287 . S
C821 C820 1.287 . S
C821 C822 1.524 1_655 S
C821 H824 0.999 . S
C822 H792 0.950 . S
C822 C821 1.524 1_455 S
C822 C823 1.415 . S
C823 H793 0.950 . S
C823 C818 1.363 1_455 S
C823 C822 1.415 . S
H824 C821 0.999 . S
H825 C806 0.913 . S
H826 C844 0.951 . S
H827 C846 0.951 . S
H828 C848 0.950 1_565 S
H829 C849 0.950 . S
H830 C851 0.950 . S
H831 C854 0.950 1_565 S
H832 C855 0.950 . S
H833 C857 0.961 . S
H834 C858 0.950 . S
H835 C859 0.951 . S
H836 C861 0.951 . S
H837 C863 0.950 1_545 S
H838 C864 0.950 . S
H839 C866 0.950 . S
H840 C869 0.950 1_545 S
H841 C870 0.950 . S
H842 C872 0.961 . S
H843 C873 0.950 . S
C844 H826 0.951 . S
C844 C845 1.366 . S
C844 C846 1.388 . S
C845 C844 1.366 . S
C845 C849 1.385 . S
C846 H827 0.951 . S
C846 C844 1.388 . S
C846 C847 1.366 . S
C847 C846 1.366 . S
C847 C848 1.414 . S
C847 C850 1.499 . S
C848 H828 0.950 1_545 S
C848 C847 1.414 . S
C848 C849 1.374 . S
C849 H829 0.950 . S
C849 C845 1.385 . S
C849 C848 1.374 . S
C850 C847 1.499 . S
C850 C851 1.368 1_545 S
C850 C852 1.389 . S
C851 H830 0.950 . S
C851 C850 1.368 1_565 S
C851 C867 1.382 1_655 S
C852 C850 1.389 . S
C852 C853 1.524 . S
C852 C866 1.382 1_655 S
C853 C852 1.524 . S
C853 C854 1.397 . S
C853 C858 1.363 1_655 S
C854 H831 0.950 1_545 S
C854 C853 1.397 . S
C854 C855 1.334 . S
C855 H832 0.950 . S
C855 C854 1.334 . S
C855 C856 1.287 . S
C856 C855 1.287 . S
C856 C857 1.510 1_655 S
C856 H875 0.913 . S
C857 H833 0.961 . S
C857 C856 1.510 1_455 S
C857 C858 1.416 . S
C858 H834 0.950 . S
C858 C853 1.363 1_455 S
C858 C857 1.416 . S
C859 H835 0.951 . S
C859 C860 1.366 . S
C859 C861 1.388 . S
C860 C859 1.366 . S
C860 C864 1.385 . S
C861 H836 0.951 . S
C861 C859 1.388 . S
C861 C862 1.366 . S
C862 C861 1.366 . S
C862 C863 1.414 . S
C862 C865 1.499 . S
C863 H837 0.950 1_565 S
C863 C862 1.414 . S
C863 C864 1.374 . S
C864 H838 0.950 . S
C864 C860 1.385 . S
C864 C863 1.374 . S
C865 C862 1.499 . S
C865 C866 1.368 1_565 S
C865 C867 1.389 . S
C866 H839 0.950 . S
C866 C852 1.382 1_455 S
C866 C865 1.368 1_545 S
C867 C851 1.382 1_455 S
C867 C865 1.389 . S
C867 C868 1.524 . S
C868 C867 1.524 . S
C868 C869 1.397 . S
C868 C873 1.363 1_455 S
C869 H840 0.950 1_565 S
C869 C868 1.397 . S
C869 C870 1.334 . S
C870 H841 0.950 . S
C870 C869 1.334 . S
C870 C871 1.287 . S
C871 C870 1.287 . S
C871 C872 1.510 1_455 S
C871 H874 0.999 . S
C872 H842 0.961 . S
C872 C871 1.510 1_655 S
C872 C873 1.416 . S
C873 H843 0.950 . S
C873 C868 1.363 1_655 S
C873 C872 1.416 . S
H874 C871 0.999 . S
H875 C856 0.913 . S
H876 C894 0.951 . S
H877 C896 0.951 . S
H878 C898 0.958 . S
H879 C899 0.950 1_554 S
H880 C901 0.950 . S
H881 C904 0.950 . S
H882 C905 0.950 . S
H883 C907 0.950 . S
H884 C908 0.950 . S
H885 C909 0.951 . S
H886 C911 0.951 . S
H887 C913 0.958 . S
H888 C914 0.950 1_556 S
H889 C916 0.950 . S
H890 C919 0.950 . S
H891 C920 0.950 . S
H892 C922 0.950 . S
H893 C923 0.950 . S
C894 H876 0.951 . S
C894 C895 1.366 . S
C894 C896 1.388 . S
C895 C894 1.366 . S
C895 C899 1.385 . S
C896 H877 0.951 . S
C896 C894 1.388 . S
C896 C897 1.366 . S
C897 C896 1.366 . S
C897 C898 1.407 1_556 S
C897 C900 1.499 . S
C898 H878 0.958 . S
C898 C897 1.407 1_554 S
C898 C899 1.373 1_554 S
C899 H879 0.950 1_556 S
C899 C895 1.385 . S
C899 C898 1.373 1_556 S
C900 C897 1.499 . S
C900 C901 1.373 1_556 S
C900 C902 1.389 . S
C901 H880 0.950 . S
C901 C900 1.373 1_554 S
C901 C917 1.377 . S
C902 C900 1.389 . S
C902 C903 1.524 . S
C902 C916 1.377 . S
C903 C902 1.524 . S
C903 C904 1.397 . S
C903 C908 1.363 . S
C904 H881 0.950 . S
C904 C903 1.397 . S
C904 C905 1.334 . S
C905 H882 0.950 . S
C905 C904 1.334 . S
C905 C906 1.287 . S
C906 C905 1.287 . S
C906 C907 1.524 . S
C906 H925 0.913 . S
C907 H883 0.950 . S
C907 C906 1.524 . S
C907 C908 1.415 . S
C908 H884 0.950 . S
C908 C903 1.363 . S
C908 C907 1.415 . S
C909 H885 0.951 . S
C909 C910 1.366 . S
C909 C911 1.388 . S
C910 C909 1.366 . S
C910 C914 1.385 . S
C911 H886 0.951 . S
C911 C909 1.388 . S
C911 C912 1.366 . S
C912 C911 1.366 . S
C912 C913 1.407 1_554 S
C912 C915 1.499 . S
C913 H887 0.958 . S
C913 C912 1.407 1_556 S
C913 C914 1.373 1_556 S
C914 H888 0.950 1_554 S
C914 C910 1.385 . S
C914 C913 1.373 1_554 S
C915 C912 1.499 . S
C915 C916 1.373 1_554 S
C915 C917 1.389 . S
C916 H889 0.950 . S
C916 C902 1.377 . S
C916 C915 1.373 1_556 S
C917 C901 1.377 . S
C917 C915 1.389 . S
C917 C918 1.524 . S
C918 C917 1.524 . S
C918 C919 1.397 . S
C918 C923 1.363 . S
C919 H890 0.950 . S
C919 C918 1.397 . S
C919 C920 1.334 . S
C920 H891 0.950 . S
C920 C919 1.334 . S
C920 C921 1.287 . S
C921 C920 1.287 . S
C921 C922 1.524 . S
C921 H924 0.999 . S
C922 H892 0.950 . S
C922 C921 1.524 . S
C922 C923 1.415 . S
C923 H893 0.950 . S
C923 C918 1.363 . S
C923 C922 1.415 . S
H924 C921 0.999 . S
H925 C906 0.913 . S
H926 C944 0.951 . S
H927 C946 0.951 . S
H928 C948 0.950 . S
H929 C949 0.950 . S
H930 C951 0.950 . S
H931 C954 0.950 . S
H932 C955 0.950 . S
H933 C957 0.950 . S
H934 C958 0.950 . S
H935 C959 0.951 . S
H936 C961 0.951 . S
H937 C963 0.950 . S
H938 C964 0.950 . S
H939 C966 0.950 . S
H940 C969 0.950 . S
H941 C970 0.950 . S
H942 C972 0.950 . S
H943 C973 0.950 . S
C944 H926 0.951 . S
C944 C945 1.366 . S
C944 C946 1.388 . S
C945 C944 1.366 . S
C945 C949 1.385 . S
C946 H927 0.951 . S
C946 C944 1.388 . S
C946 C947 1.366 . S
C947 C946 1.366 . S
C947 C948 1.414 . S
C947 C950 1.499 . S
C948 H928 0.950 . S
C948 C947 1.414 . S
C948 C949 1.374 . S
C949 H929 0.950 . S
C949 C945 1.385 . S
C949 C948 1.374 . S
C950 C947 1.499 . S
C950 C951 1.373 . S
C950 C952 1.389 . S
C951 H930 0.950 . S
C951 C950 1.373 . S
C951 C967 1.377 . S
C952 C950 1.389 . S
C952 C953 1.524 . S
C952 C966 1.377 . S
C953 C952 1.524 . S
C953 C954 1.397 . S
C953 C958 1.363 . S
C954 H931 0.950 . S
C954 C953 1.397 . S
C954 C955 1.334 . S
C955 H932 0.950 . S
C955 C954 1.334 . S
C955 C956 1.287 . S
C956 C955 1.287 . S
C956 C957 1.524 . S
C956 H975 0.913 . S
C957 H933 0.950 . S
C957 C956 1.524 . S
C957 C958 1.415 . S
C958 H934 0.950 . S
C958 C953 1.363 . S
C958 C957 1.415 . S
C959 H935 0.951 . S
C959 C960 1.366 . S
C959 C961 1.388 . S
C960 C959 1.366 . S
C960 C964 1.385 . S
C961 H936 0.951 . S
C961 C959 1.388 . S
C961 C962 1.366 . S
C962 C961 1.366 . S
C962 C963 1.414 . S
C962 C965 1.499 . S
C963 H937 0.950 . S
C963 C962 1.414 . S
C963 C964 1.374 . S
C964 H938 0.950 . S
C964 C960 1.385 . S
C964 C963 1.374 . S
C965 C962 1.499 . S
C965 C966 1.373 . S
C965 C967 1.389 . S
C966 H939 0.950 . S
C966 C952 1.377 . S
C966 C965 1.373 . S
C967 C951 1.377 . S
C967 C965 1.389 . S
C967 C968 1.524 . S
C968 C967 1.524 . S
C968 C969 1.397 . S
C968 C973 1.363 . S
C969 H940 0.950 . S
C969 C968 1.397 . S
C969 C970 1.334 . S
C970 H941 0.950 . S
C970 C969 1.334 . S
C970 C971 1.287 . S
C971 C970 1.287 . S
C971 C972 1.524 . S
C971 H974 0.999 . S
C972 H942 0.950 . S
C972 C971 1.524 . S
C972 C973 1.415 . S
C973 H943 0.950 . S
C973 C968 1.363 . S
C973 C972 1.415 . S
H974 C971 0.999 . S
H975 C956 0.913 . S
H976 C994 0.951 . S
H977 C996 0.951 . S
H978 C998 0.950 . S
H979 C999 0.950 . S
H980 C1001 0.950 . S
H981 C1004 0.950 . S
H982 C1005 0.950 . S
H983 C1007 0.950 . S
H984 C1008 0.950 . S
H985 C1009 0.951 . S
H986 C1011 0.951 . S
H987 C1013 0.950 . S
H988 C1014 0.950 . S
H989 C1016 0.950 . S
H990 C1019 0.950 . S
H991 C1020 0.950 . S
H992 C1022 0.950 . S
H993 C1023 0.950 . S
C994 H976 0.951 . S
C994 C995 1.366 . S
C994 C996 1.388 . S
C995 C994 1.366 . S
C995 C999 1.385 . S
C996 H977 0.951 . S
C996 C994 1.388 . S
C996 C997 1.366 . S
C997 C996 1.366 . S
C997 C998 1.414 . S
C997 C1000 1.499 . S
C998 H978 0.950 . S
C998 C997 1.414 . S
C998 C999 1.374 . S
C999 H979 0.950 . S
C999 C995 1.385 . S
C999 C998 1.374 . S
C1000 C997 1.499 . S
C1000 C1001 1.373 . S
C1000 C1002 1.389 . S
C1001 H980 0.950 . S
C1001 C1000 1.373 . S
C1001 C1017 1.377 . S
C1002 C1000 1.389 . S
C1002 C1003 1.524 . S
C1002 C1016 1.377 . S
C1003 C1002 1.524 . S
C1003 C1004 1.397 . S
C1003 C1008 1.363 . S
C1004 H981 0.950 . S
C1004 C1003 1.397 . S
C1004 C1005 1.334 . S
C1005 H982 0.950 . S
C1005 C1004 1.334 . S
C1005 C1006 1.287 . S
C1006 C1005 1.287 . S
C1006 C1007 1.524 . S
C1006 H1025 0.913 . S
C1007 H983 0.950 . S
C1007 C1006 1.524 . S
C1007 C1008 1.415 . S
C1008 H984 0.950 . S
C1008 C1003 1.363 . S
C1008 C1007 1.415 . S
C1009 H985 0.951 . S
C1009 C1010 1.366 . S
C1009 C1011 1.388 . S
C1010 C1009 1.366 . S
C1010 C1014 1.385 . S
C1011 H986 0.951 . S
C1011 C1009 1.388 . S
C1011 C1012 1.366 . S
C1012 C1011 1.366 . S
C1012 C1013 1.414 . S
C1012 C1015 1.499 . S
C1013 H987 0.950 . S
C1013 C1012 1.414 . S
C1013 C1014 1.374 . S
C1014 H988 0.950 . S
C1014 C1010 1.385 . S
C1014 C1013 1.374 . S
C1015 C1012 1.499 . S
C1015 C1016 1.373 . S
C1015 C1017 1.389 . S
C1016 H989 0.950 . S
C1016 C1002 1.377 . S
C1016 C1015 1.373 . S
C1017 C1001 1.377 . S
C1017 C1015 1.389 . S
C1017 C1018 1.524 . S
C1018 C1017 1.524 . S
C1018 C1019 1.397 . S
C1018 C1023 1.363 . S
C1019 H990 0.950 . S
C1019 C1018 1.397 . S
C1019 C1020 1.334 . S
C1020 H991 0.950 . S
C1020 C1019 1.334 . S
C1020 C1021 1.287 . S
C1021 C1020 1.287 . S
C1021 C1022 1.524 . S
C1021 H1024 0.999 . S
C1022 H992 0.950 . S
C1022 C1021 1.524 . S
C1022 C1023 1.415 . S
C1023 H993 0.950 . S
C1023 C1018 1.363 . S
C1023 C1022 1.415 . S
H1024 C1021 0.999 . S
H1025 C1006 0.913 . S
H1026 C1044 0.951 . S
H1027 C1046 0.951 . S
H1028 C1048 0.950 . S
H1029 C1049 0.950 . S
H1030 C1051 0.950 . S
H1031 C1054 0.950 . S
H1032 C1055 0.950 . S
H1033 C1057 0.950 . S
H1034 C1058 0.950 . S
H1035 C1059 0.951 . S
H1036 C1061 0.951 . S
H1037 C1063 0.950 . S
H1038 C1064 0.950 . S
H1039 C1066 0.950 . S
H1040 C1069 0.950 . S
H1041 C1070 0.950 . S
H1042 C1072 0.950 . S
H1043 C1073 0.950 . S
C1044 H1026 0.951 . S
C1044 C1045 1.366 . S
C1044 C1046 1.388 . S
C1045 C1044 1.366 . S
C1045 C1049 1.385 . S
C1046 H1027 0.951 . S
C1046 C1044 1.388 . S
C1046 C1047 1.366 . S
C1047 C1046 1.366 . S
C1047 C1048 1.414 . S
C1047 C1050 1.499 . S
C1048 H1028 0.950 . S
C1048 C1047 1.414 . S
C1048 C1049 1.374 . S
C1049 H1029 0.950 . S
C1049 C1045 1.385 . S
C1049 C1048 1.374 . S
C1050 C1047 1.499 . S
C1050 C1051 1.373 . S
C1050 C1052 1.389 . S
C1051 H1030 0.950 . S
C1051 C1050 1.373 . S
C1051 C1067 1.377 . S
C1052 C1050 1.389 . S
C1052 C1053 1.524 . S
C1052 C1066 1.377 . S
C1053 C1052 1.524 . S
C1053 C1054 1.397 . S
C1053 C1058 1.363 . S
C1054 H1031 0.950 . S
C1054 C1053 1.397 . S
C1054 C1055 1.334 . S
C1055 H1032 0.950 . S
C1055 C1054 1.334 . S
C1055 C1056 1.287 . S
C1056 C1055 1.287 . S
C1056 C1057 1.524 . S
C1056 H1075 0.913 . S
C1057 H1033 0.950 . S
C1057 C1056 1.524 . S
C1057 C1058 1.415 . S
C1058 H1034 0.950 . S
C1058 C1053 1.363 . S
C1058 C1057 1.415 . S
C1059 H1035 0.951 . S
C1059 C1060 1.366 . S
C1059 C1061 1.388 . S
C1060 C1059 1.366 . S
C1060 C1064 1.385 . S
C1061 H1036 0.951 . S
C1061 C1059 1.388 . S
C1061 C1062 1.366 . S
C1062 C1061 1.366 . S
C1062 C1063 1.414 . S
C1062 C1065 1.499 . S
C1063 H1037 0.950 . S
C1063 C1062 1.414 . S
C1063 C1064 1.374 . S
C1064 H1038 0.950 . S
C1064 C1060 1.385 . S
C1064 C1063 1.374 . S
C1065 C1062 1.499 . S
C1065 C1066 1.373 . S
C1065 C1067 1.389 . S
C1066 H1039 0.950 . S
C1066 C1052 1.377 . S
C1066 C1065 1.373 . S
C1067 C1051 1.377 . S
C1067 C1065 1.389 . S
C1067 C1068 1.524 . S
C1068 C1067 1.524 . S
C1068 C1069 1.397 . S
C1068 C1073 1.363 . S
C1069 H1040 0.950 . S
C1069 C1068 1.397 . S
C1069 C1070 1.334 . S
C1070 H1041 0.950 . S
C1070 C1069 1.334 . S
C1070 C1071 1.287 . S
C1071 C1070 1.287 . S
C1071 C1072 1.524 . S
C1071 H1074 0.999 . S
C1072 H1042 0.950 . S
C1072 C1071 1.524 . S
C1072 C1073 1.415 . S
C1073 H1043 0.950 . S
C1073 C1068 1.363 . S
C1073 C1072 1.415 . S
H1074 C1071 0.999 . S
H1075 C1056 0.913 . S
H1076 C1094 0.951 . S
H1077 C1096 0.951 . S
H1078 C1098 0.950 . S
H1079 C1099 0.950 . S
H1080 C1101 0.950 . S
H1081 C1104 0.950 . S
H1082 C1105 0.950 . S
H1083 C1107 0.950 . S
H1084 C1108 0.950 . S
H1085 C1109 0.951 . S
H1086 C1111 0.951 . S
H1087 C1113 0.950 . S
H1088 C1114 0.950 . S
H1089 C1116 0.950 . S
H1090 C1119 0.950 . S
H1091 C1120 0.950 . S
H1092 C1122 0.950 . S
H1093 C1123 0.950 . S
C1094 H1076 0.951 . S
C1094 C1095 1.366 . S
C1094 C1096 1.388 . S
C1095 C1094 1.366 . S
C1095 C1099 1.385 . S
C1096 H1077 0.951 . S
C1096 C1094 1.388 . S
C1096 C1097 1.366 . S
C1097 C1096 1.366 . S
C1097 C1098 1.414 . S
C1097 C1100 1.499 . S
C1098 H1078 0.950 . S
C1098 C1097 1.414 . S
C1098 C1099 1.374 . S
C1099 H1079 0.950 . S
C1099 C1095 1.385 . S
C1099 C1098 1.374 . S
C1100 C1097 1.499 . S
C1100 C1101 1.373 . S
C1100 C1102 1.389 1_655 S
C1101 H1080 0.950 . S
C1101 C1100 1.373 . S
C1101 C1117 1.377 . S
C1102 C1100 1.389 1_455 S
C1102 C1103 1.524 . S
C1102 C1116 1.377 . S
C1103 C1102 1.524 . S
C1103 C1104 1.397 1_455 S
C1103 C1108 1.363 . S
C1104 H1081 0.950 . S
C1104 C1103 1.397 1_655 S
C1104 C1105 1.334 . S
C1105 H1082 0.950 . S
C1105 C1104 1.334 . S
C1105 C1106 1.287 1_655 S
C1106 C1105 1.287 1_455 S
C1106 C1107 1.524 . S
C1106 H1125 0.913 . S
C1107 H1083 0.950 . S
C1107 C1106 1.524 . S
C1107 C1108 1.415 . S
C1108 H1084 0.950 . S
C1108 C1103 1.363 . S
C1108 C1107 1.415 . S
C1109 H1085 0.951 . S
C1109 C1110 1.366 . S
C1109 C1111 1.388 . S
C1110 C1109 1.366 . S
C1110 C1114 1.385 . S
C1111 H1086 0.951 . S
C1111 C1109 1.388 . S
C1111 C1112 1.366 . S
C1112 C1111 1.366 . S
C1112 C1113 1.414 . S
C1112 C1115 1.499 . S
C1113 H1087 0.950 . S
C1113 C1112 1.414 . S
C1113 C1114 1.374 . S
C1114 H1088 0.950 . S
C1114 C1110 1.385 . S
C1114 C1113 1.374 . S
C1115 C1112 1.499 . S
C1115 C1116 1.373 . S
C1115 C1117 1.389 1_455 S
C1116 H1089 0.950 . S
C1116 C1102 1.377 . S
C1116 C1115 1.373 . S
C1117 C1101 1.377 . S
C1117 C1115 1.389 1_655 S
C1117 C1118 1.524 . S
C1118 C1117 1.524 . S
C1118 C1119 1.397 1_655 S
C1118 C1123 1.363 . S
C1119 H1090 0.950 . S
C1119 C1118 1.397 1_455 S
C1119 C1120 1.334 . S
C1120 H1091 0.950 . S
C1120 C1119 1.334 . S
C1120 C1121 1.287 1_455 S
C1121 C1120 1.287 1_655 S
C1121 C1122 1.524 . S
C1121 H1124 0.999 . S
C1122 H1092 0.950 . S
C1122 C1121 1.524 . S
C1122 C1123 1.415 . S
C1123 H1093 0.950 . S
C1123 C1118 1.363 . S
C1123 C1122 1.415 . S
H1124 C1121 0.999 . S
H1125 C1106 0.913 . S
H1126 C1144 0.951 . S
H1127 C1146 0.951 . S
H1128 C1148 0.950 . S
H1129 C1149 0.950 . S
H1130 C1151 0.950 . S
H1131 C1154 0.950 . S
H1132 C1155 0.950 . S
H1133 C1157 0.950 . S
H1134 C1158 0.950 . S
H1135 C1159 0.951 . S
H1136 C1161 0.951 . S
H1137 C1163 0.950 . S
H1138 C1164 0.950 . S
H1139 C1166 0.950 . S
H1140 C1169 0.950 . S
H1141 C1170 0.950 . S
H1142 C1172 0.950 . S
H1143 C1173 0.950 . S
C1144 H1126 0.951 . S
C1144 C1145 1.366 . S
C1144 C1146 1.388 . S
C1145 C1144 1.366 . S
C1145 C1149 1.385 . S
C1146 H1127 0.951 . S
C1146 C1144 1.388 . S
C1146 C1147 1.366 . S
C1147 C1146 1.366 . S
C1147 C1148 1.414 . S
C1147 C1150 1.499 . S
C1148 H1128 0.950 . S
C1148 C1147 1.414 . S
C1148 C1149 1.374 . S
C1149 H1129 0.950 . S
C1149 C1145 1.385 . S
C1149 C1148 1.374 . S
C1150 C1147 1.499 . S
C1150 C1151 1.373 . S
C1150 C1152 1.389 1_655 S
C1151 H1130 0.950 . S
C1151 C1150 1.373 . S
C1151 C1167 1.377 . S
C1152 C1150 1.389 1_455 S
C1152 C1153 1.524 . S
C1152 C1166 1.377 . S
C1153 C1152 1.524 . S
C1153 C1154 1.397 1_455 S
C1153 C1158 1.363 . S
C1154 H1131 0.950 . S
C1154 C1153 1.397 1_655 S
C1154 C1155 1.334 . S
C1155 H1132 0.950 . S
C1155 C1154 1.334 . S
C1155 C1156 1.287 1_655 S
C1156 C1155 1.287 1_455 S
C1156 C1157 1.524 . S
C1156 H1175 0.913 . S
C1157 H1133 0.950 . S
C1157 C1156 1.524 . S
C1157 C1158 1.415 . S
C1158 H1134 0.950 . S
C1158 C1153 1.363 . S
C1158 C1157 1.415 . S
C1159 H1135 0.951 . S
C1159 C1160 1.366 . S
C1159 C1161 1.388 . S
C1160 C1159 1.366 . S
C1160 C1164 1.385 . S
C1161 H1136 0.951 . S
C1161 C1159 1.388 . S
C1161 C1162 1.366 . S
C1162 C1161 1.366 . S
C1162 C1163 1.414 . S
C1162 C1165 1.499 . S
C1163 H1137 0.950 . S
C1163 C1162 1.414 . S
C1163 C1164 1.374 . S
C1164 H1138 0.950 . S
C1164 C1160 1.385 . S
C1164 C1163 1.374 . S
C1165 C1162 1.499 . S
C1165 C1166 1.373 . S
C1165 C1167 1.389 1_455 S
C1166 H1139 0.950 . S
C1166 C1152 1.377 . S
C1166 C1165 1.373 . S
C1167 C1151 1.377 . S
C1167 C1165 1.389 1_655 S
C1167 C1168 1.524 . S
C1168 C1167 1.524 . S
C1168 C1169 1.397 1_655 S
C1168 C1173 1.363 . S
C1169 H1140 0.950 . S
C1169 C1168 1.397 1_455 S
C1169 C1170 1.334 . S
C1170 H1141 0.950 . S
C1170 C1169 1.334 . S
C1170 C1171 1.287 1_455 S
C1171 C1170 1.287 1_655 S
C1171 C1172 1.524 . S
C1171 H1174 0.999 . S
C1172 H1142 0.950 . S
C1172 C1171 1.524 . S
C1172 C1173 1.415 . S
C1173 H1143 0.950 . S
C1173 C1168 1.363 . S
C1173 C1172 1.415 . S
H1174 C1171 0.999 . S
H1175 C1156 0.913 . S
H1176 C1194 0.951 . S
H1177 C1196 0.951 . S
H1178 C1198 0.950 . S
H1179 C1199 0.950 . S
H1180 C1201 0.950 . S
H1181 C1204 0.950 . S
H1182 C1205 0.950 . S
H1183 C1207 0.950 . S
H1184 C1208 0.950 . S
H1185 C1209 0.951 . S
H1186 C1211 0.951 . S
H1187 C1213 0.950 . S
H1188 C1214 0.950 . S
H1189 C1216 0.950 . S
H1190 C1219 0.950 . S
H1191 C1220 0.950 . S
H1192 C1222 0.950 . S
H1193 C1223 0.950 . S
C1194 H1176 0.951 . S
C1194 C1195 1.366 1_556 S
C1194 C1196 1.388 . S
C1195 C1194 1.366 1_554 S
C1195 C1199 1.385 . S
C1196 H1177 0.951 . S
C1196 C1194 1.388 . S
C1196 C1197 1.366 1_556 S
C1197 C1196 1.366 1_554 S
C1197 C1198 1.414 . S
C1197 C1200 1.499 . S
C1198 H1178 0.950 . S
C1198 C1197 1.414 . S
C1198 C1199 1.374 . S
C1199 H1179 0.950 . S
C1199 C1195 1.385 . S
C1199 C1198 1.374 . S
C1200 C1197 1.499 . S
C1200 C1201 1.373 . S
C1200 C1202 1.389 1_554 S
C1201 H1180 0.950 . S
C1201 C1200 1.373 . S
C1201 C1217 1.377 . S
C1202 C1200 1.389 1_556 S
C1202 C1203 1.524 . S
C1202 C1216 1.377 . S
C1203 C1202 1.524 . S
C1203 C1204 1.397 1_556 S
C1203 C1208 1.363 . S
C1204 H1181 0.950 . S
C1204 C1203 1.397 1_554 S
C1204 C1205 1.334 . S
C1205 H1182 0.950 . S
C1205 C1204 1.334 . S
C1205 C1206 1.287 1_554 S
C1206 C1205 1.287 1_556 S
C1206 C1207 1.524 . S
C1206 H1225 0.913 . S
C1207 H1183 0.950 . S
C1207 C1206 1.524 . S
C1207 C1208 1.415 . S
C1208 H1184 0.950 . S
C1208 C1203 1.363 . S
C1208 C1207 1.415 . S
C1209 H1185 0.951 . S
C1209 C1210 1.366 1_554 S
C1209 C1211 1.388 . S
C1210 C1209 1.366 1_556 S
C1210 C1214 1.385 . S
C1211 H1186 0.951 . S
C1211 C1209 1.388 . S
C1211 C1212 1.366 1_554 S
C1212 C1211 1.366 1_556 S
C1212 C1213 1.414 . S
C1212 C1215 1.499 . S
C1213 H1187 0.950 . S
C1213 C1212 1.414 . S
C1213 C1214 1.374 . S
C1214 H1188 0.950 . S
C1214 C1210 1.385 . S
C1214 C1213 1.374 . S
C1215 C1212 1.499 . S
C1215 C1216 1.373 . S
C1215 C1217 1.389 1_556 S
C1216 H1189 0.950 . S
C1216 C1202 1.377 . S
C1216 C1215 1.373 . S
C1217 C1201 1.377 . S
C1217 C1215 1.389 1_554 S
C1217 C1218 1.524 . S
C1218 C1217 1.524 . S
C1218 C1219 1.397 1_554 S
C1218 C1223 1.363 . S
C1219 H1190 0.950 . S
C1219 C1218 1.397 1_556 S
C1219 C1220 1.334 . S
C1220 H1191 0.950 . S
C1220 C1219 1.334 . S
C1220 C1221 1.287 1_556 S
C1221 C1220 1.287 1_554 S
C1221 C1222 1.524 . S
C1221 H1224 0.999 . S
C1222 H1192 0.950 . S
C1222 C1221 1.524 . S
C1222 C1223 1.415 . S
C1223 H1193 0.950 . S
C1223 C1218 1.363 . S
C1223 C1222 1.415 . S
H1224 C1221 0.999 . S
H1225 C1206 0.913 . S
H1226 C1244 0.951 . S
H1227 C1246 0.951 . S
H1228 C1248 0.950 . S
H1229 C1249 0.950 . S
H1230 C1251 0.950 . S
H1231 C1254 0.950 . S
H1232 C1255 0.950 . S
H1233 C1257 0.950 . S
H1234 C1258 0.950 . S
H1235 C1259 0.951 . S
H1236 C1261 0.951 . S
H1237 C1263 0.950 . S
H1238 C1264 0.950 . S
H1239 C1266 0.950 . S
H1240 C1269 0.950 . S
H1241 C1270 0.950 . S
H1242 C1272 0.950 . S
H1243 C1273 0.950 . S
C1244 H1226 0.951 . S
C1244 C1245 1.366 . S
C1244 C1246 1.388 . S
C1245 C1244 1.366 . S
C1245 C1249 1.385 . S
C1246 H1227 0.951 . S
C1246 C1244 1.388 . S
C1246 C1247 1.366 . S
C1247 C1246 1.366 . S
C1247 C1248 1.414 . S
C1247 C1250 1.499 . S
C1248 H1228 0.950 . S
C1248 C1247 1.414 . S
C1248 C1249 1.374 . S
C1249 H1229 0.950 . S
C1249 C1245 1.385 . S
C1249 C1248 1.374 . S
C1250 C1247 1.499 . S
C1250 C1251 1.373 . S
C1250 C1252 1.389 . S
C1251 H1230 0.950 . S
C1251 C1250 1.373 . S
C1251 C1267 1.377 . S
C1252 C1250 1.389 . S
C1252 C1253 1.524 . S
C1252 C1266 1.377 . S
C1253 C1252 1.524 . S
C1253 C1254 1.397 . S
C1253 C1258 1.363 . S
C1254 H1231 0.950 . S
C1254 C1253 1.397 . S
C1254 C1255 1.334 . S
C1255 H1232 0.950 . S
C1255 C1254 1.334 . S
C1255 C1256 1.287 . S
C1256 C1255 1.287 . S
C1256 C1257 1.524 . S
C1256 H1275 0.913 . S
C1257 H1233 0.950 . S
C1257 C1256 1.524 . S
C1257 C1258 1.415 . S
C1258 H1234 0.950 . S
C1258 C1253 1.363 . S
C1258 C1257 1.415 . S
C1259 H1235 0.951 . S
C1259 C1260 1.366 . S
C1259 C1261 1.388 . S
C1260 C1259 1.366 . S
C1260 C1264 1.385 . S
C1261 H1236 0.951 . S
C1261 C1259 1.388 . S
C1261 C1262 1.366 . S
C1262 C1261 1.366 . S
C1262 C1263 1.414 . S
C1262 C1265 1.499 . S
C1263 H1237 0.950 . S
C1263 C1262 1.414 . S
C1263 C1264 1.374 . S
C1264 H1238 0.950 . S
C1264 C1260 1.385 . S
C1264 C1263 1.374 . S
C1265 C1262 1.499 . S
C1265 C1266 1.373 . S
C1265 C1267 1.389 . S
C1266 H1239 0.950 . S
C1266 C1252 1.377 . S
C1266 C1265 1.373 . S
C1267 C1251 1.377 . S
C1267 C1265 1.389 . S
C1267 C1268 1.524 . S
C1268 C1267 1.524 . S
C1268 C1269 1.397 . S
C1268 C1273 1.363 . S
C1269 H1240 0.950 . S
C1269 C1268 1.397 . S
C1269 C1270 1.334 . S
C1270 H1241 0.950 . S
C1270 C1269 1.334 . S
C1270 C1271 1.287 . S
C1271 C1270 1.287 . S
C1271 C1272 1.524 . S
C1271 H1274 0.999 . S
C1272 H1242 0.950 . S
C1272 C1271 1.524 . S
C1272 C1273 1.415 . S
C1273 H1243 0.950 . S
C1273 C1268 1.363 . S
C1273 C1272 1.415 . S
H1274 C1271 0.999 . S
H1275 C1256 0.913 . S
H1276 C1294 0.951 . S
H1277 C1296 0.951 . S
H1278 C1298 0.950 . S
H1279 C1299 0.950 1_554 S
H1280 C1301 0.950 . S
H1281 C1304 0.950 . S
H1282 C1305 0.950 . S
H1283 C1307 0.950 . S
H1284 C1308 0.950 1_556 S
H1285 C1309 0.951 . S
H1286 C1311 0.951 . S
H1287 C1313 0.950 . S
H1288 C1314 0.950 1_556 S
H1289 C1316 0.950 . S
H1290 C1319 0.950 . S
H1291 C1320 0.950 . S
H1292 C1322 0.950 . S
H1293 C1323 0.950 1_554 S
C1294 H1276 0.951 . S
C1294 C1295 1.366 . S
C1294 C1296 1.388 . S
C1295 C1294 1.366 . S
C1295 C1299 1.385 . S
C1296 H1277 0.951 . S
C1296 C1294 1.388 . S
C1296 C1297 1.366 . S
C1297 C1296 1.366 . S
C1297 C1298 1.414 1_556 S
C1297 C1300 1.499 . S
C1298 H1278 0.950 . S
C1298 C1297 1.414 1_554 S
C1298 C1299 1.374 1_554 S
C1299 H1279 0.950 1_556 S
C1299 C1295 1.385 . S
C1299 C1298 1.374 1_556 S
C1300 C1297 1.499 . S
C1300 C1301 1.373 . S
C1300 C1302 1.389 1_556 S
C1301 H1280 0.950 . S
C1301 C1300 1.373 . S
C1301 C1317 1.377 . S
C1302 C1300 1.389 1_554 S
C1302 C1303 1.524 . S
C1302 C1316 1.377 . S
C1303 C1302 1.524 . S
C1303 C1304 1.397 . S
C1303 C1308 1.363 . S
C1304 H1281 0.950 . S
C1304 C1303 1.397 . S
C1304 C1305 1.334 . S
C1305 H1282 0.950 . S
C1305 C1304 1.334 . S
C1305 C1306 1.287 . S
C1306 C1305 1.287 . S
C1306 C1307 1.524 . S
C1306 H1325 0.913 . S
C1307 H1283 0.950 . S
C1307 C1306 1.524 . S
C1307 C1308 1.415 . S
C1308 H1284 0.950 1_554 S
C1308 C1303 1.363 . S
C1308 C1307 1.415 . S
C1309 H1285 0.951 . S
C1309 C1310 1.366 . S
C1309 C1311 1.388 . S
C1310 C1309 1.366 . S
C1310 C1314 1.385 . S
C1311 H1286 0.951 . S
C1311 C1309 1.388 . S
C1311 C1312 1.366 . S
C1312 C1311 1.366 . S
C1312 C1313 1.414 1_554 S
C1312 C1315 1.499 . S
C1313 H1287 0.950 . S
C1313 C1312 1.414 1_556 S
C1313 C1314 1.374 1_556 S
C1314 H1288 0.950 1_554 S
C1314 C1310 1.385 . S
C1314 C1313 1.374 1_554 S
C1315 C1312 1.499 . S
C1315 C1316 1.373 . S
C1315 C1317 1.389 1_554 S
C1316 H1289 0.950 . S
C1316 C1302 1.377 . S
C1316 C1315 1.373 . S
C1317 C1301 1.377 . S
C1317 C1315 1.389 1_556 S
C1317 C1318 1.524 . S
C1318 C1317 1.524 . S
C1318 C1319 1.397 . S
C1318 C1323 1.363 . S
C1319 H1290 0.950 . S
C1319 C1318 1.397 . S
C1319 C1320 1.334 . S
C1320 H1291 0.950 . S
C1320 C1319 1.334 . S
C1320 C1321 1.287 . S
C1321 C1320 1.287 . S
C1321 C1322 1.524 . S
C1321 H1324 0.999 . S
C1322 H1292 0.950 . S
C1322 C1321 1.524 . S
C1322 C1323 1.415 . S
C1323 H1293 0.950 1_556 S
C1323 C1318 1.363 . S
C1323 C1322 1.415 . S
H1324 C1321 0.999 . S
H1325 C1306 0.913 . S
H1326 C1344 0.951 . S
H1327 C1346 0.951 . S
H1328 C1348 0.950 . S
H1329 C1349 0.950 . S
H1330 C1351 0.950 . S
H1331 C1354 0.950 . S
H1332 C1355 0.950 . S
H1333 C1357 0.950 . S
H1334 C1358 0.950 . S
H1335 C1359 0.951 . S
H1336 C1361 0.951 . S
H1337 C1363 0.950 . S
H1338 C1364 0.950 . S
H1339 C1366 0.950 . S
H1340 C1369 0.950 . S
H1341 C1370 0.950 . S
H1342 C1372 0.950 . S
H1343 C1373 0.950 . S
C1344 H1326 0.951 . S
C1344 C1345 1.366 . S
C1344 C1346 1.388 . S
C1345 C1344 1.366 . S
C1345 C1349 1.385 . S
C1346 H1327 0.951 . S
C1346 C1344 1.388 . S
C1346 C1347 1.366 . S
C1347 C1346 1.366 . S
C1347 C1348 1.414 . S
C1347 C1350 1.499 . S
C1348 H1328 0.950 . S
C1348 C1347 1.414 . S
C1348 C1349 1.374 . S
C1349 H1329 0.950 . S
C1349 C1345 1.385 . S
C1349 C1348 1.374 . S
C1350 C1347 1.499 . S
C1350 C1351 1.373 . S
C1350 C1352 1.389 . S
C1351 H1330 0.950 . S
C1351 C1350 1.373 . S
C1351 C1367 1.377 . S
C1352 C1350 1.389 . S
C1352 C1353 1.524 . S
C1352 C1366 1.377 . S
C1353 C1352 1.524 . S
C1353 C1354 1.397 . S
C1353 C1358 1.363 . S
C1354 H1331 0.950 . S
C1354 C1353 1.397 . S
C1354 C1355 1.334 . S
C1355 H1332 0.950 . S
C1355 C1354 1.334 . S
C1355 C1356 1.287 . S
C1356 C1355 1.287 . S
C1356 C1357 1.524 . S
C1356 H1375 0.913 . S
C1357 H1333 0.950 . S
C1357 C1356 1.524 . S
C1357 C1358 1.415 . S
C1358 H1334 0.950 . S
C1358 C1353 1.363 . S
C1358 C1357 1.415 . S
C1359 H1335 0.951 . S
C1359 C1360 1.366 . S
C1359 C1361 1.388 . S
C1360 C1359 1.366 . S
C1360 C1364 1.385 . S
C1361 H1336 0.951 . S
C1361 C1359 1.388 . S
C1361 C1362 1.366 . S
C1362 C1361 1.366 . S
C1362 C1363 1.414 . S
C1362 C1365 1.499 . S
C1363 H1337 0.950 . S
C1363 C1362 1.414 . S
C1363 C1364 1.374 . S
C1364 H1338 0.950 . S
C1364 C1360 1.385 . S
C1364 C1363 1.374 . S
C1365 C1362 1.499 . S
C1365 C1366 1.373 . S
C1365 C1367 1.389 . S
C1366 H1339 0.950 . S
C1366 C1352 1.377 . S
C1366 C1365 1.373 . S
C1367 C1351 1.377 . S
C1367 C1365 1.389 . S
C1367 C1368 1.524 . S
C1368 C1367 1.524 . S
C1368 C1369 1.397 . S
C1368 C1373 1.363 . S
C1369 H1340 0.950 . S
C1369 C1368 1.397 . S
C1369 C1370 1.334 . S
C1370 H1341 0.950 . S
C1370 C1369 1.334 . S
C1370 C1371 1.287 . S
C1371 C1370 1.287 . S
C1371 C1372 1.524 . S
C1371 H1374 0.999 . S
C1372 H1342 0.950 . S
C1372 C1371 1.524 . S
C1372 C1373 1.415 . S
C1373 H1343 0.950 . S
C1373 C1368 1.363 . S
C1373 C1372 1.415 . S
H1374 C1371 0.999 . S
H1375 C1356 0.913 . S
C195 C6 1.198 . S
C210 C71 1.234 . S
C245 C49 1.234 . S
C260 C28 1.196 . S
C295 C29 1.235 . S
C310 C53 1.197 . S
C345 C7 1.234 . S
C360 C75 1.196 . S
C395 C159 1.235 . S
C410 C94 1.198 . S
C445 C116 1.197 . S
C460 C137 1.234 . S
C495 C117 1.234 . S
C510 C141 1.196 . S
C545 C95 1.234 . S
C560 C163 1.196 . S
C595 C9 0.481 . S
C610 C50 0.481 . S
C645 C72 0.481 . S
C660 C31 0.481 . S
C695 C97 0.481 . S
C710 C138 0.481 . S
C745 C119 0.481 . S
C760 C160 0.481 . S
C795 C5 2.253 . S
C810 C51 2.253 . S
C845 C27 2.253 . S
C860 C73 2.253 . S
C895 C139 2.253 . S
C910 C93 2.253 . S
C945 C161 2.253 . S
C960 C115 2.253 . S
C995 C8 1.632 . S
C1010 C30 1.632 . S
C1045 C48 1.632 . S
C1060 C70 1.632 . S
C1095 C96 1.632 . S
C1110 C118 1.632 . S
C1145 C158 1.632 . S
C1160 C136 1.632 . S
C1195 C4 1.390 . S
C1210 C140 1.390 . S
C1245 C26 1.390 . S
C1260 C162 1.390 . S
C1295 C52 1.390 . S
C1310 C92 1.390 . S
C1345 C114 1.389 . S
C1360 C74 1.389 . S
