# Generated by pormake.
# Topology whh, (6)-cn, num edge types: 1
# Building blocks:
#     Node 0, Type 0, BuildingBlock: VOLQOD_clean_sbu_1, # of connection points: 6
#     Node 1, Type 0, BuildingBlock: VOLQOD_clean_sbu_1, # of connection points: 6
#     Node 2, Type 0, BuildingBlock: VOLQOD_clean_sbu_1, # of connection points: 6
#     Node 3, Type 0, BuildingBlock: VOLQOD_clean_sbu_1, # of connection points: 6
#     Node 4, Type 0, BuildingBlock: VOLQOD_clean_sbu_1, # of connection points: 6
#     Node 5, Type 0, BuildingBlock: VOLQOD_clean_sbu_1, # of connection points: 6
#     Node 6, Type 0, BuildingBlock: VOLQOD_clean_sbu_1, # of connection points: 6
#     Node 7, Type 0, BuildingBlock: VOLQOD_clean_sbu_1, # of connection points: 6
#     Node 8, Type 0, BuildingBlock: VOLQOD_clean_sbu_1, # of connection points: 6
#     Node 9, Type 0, BuildingBlock: VOLQOD_clean_sbu_1, # of connection points: 6
#     Node 10, Type 0, BuildingBlock: VOLQOD_clean_sbu_1, # of connection points: 6
#     Node 11, Type 0, BuildingBlock: VOLQOD_clean_sbu_1, # of connection points: 6
#     Node 12, Type 0, BuildingBlock: VOLQOD_clean_sbu_1, # of connection points: 6
#     Node 13, Type 0, BuildingBlock: VOLQOD_clean_sbu_1, # of connection points: 6
#     Node 14, Type 0, BuildingBlock: VOLQOD_clean_sbu_1, # of connection points: 6
#     Node 15, Type 0, BuildingBlock: VOLQOD_clean_sbu_1, # of connection points: 6
#     Edge 16, Type (0, 0), BuildingBlock: ZUJKAS_clean_linker_0, # of connection points: 2
#     Edge 17, Type (0, 0), BuildingBlock: ZUJKAS_clean_linker_0, # of connection points: 2
#     Edge 18, Type (0, 0), BuildingBlock: ZUJKAS_clean_linker_0, # of connection points: 2
#     Edge 19, Type (0, 0), BuildingBlock: ZUJKAS_clean_linker_0, # of connection points: 2
#     Edge 20, Type (0, 0), BuildingBlock: ZUJKAS_clean_linker_0, # of connection points: 2
#     Edge 21, Type (0, 0), BuildingBlock: ZUJKAS_clean_linker_0, # of connection points: 2
#     Edge 22, Type (0, 0), BuildingBlock: ZUJKAS_clean_linker_0, # of connection points: 2
#     Edge 23, Type (0, 0), BuildingBlock: ZUJKAS_clean_linker_0, # of connection points: 2
#     Edge 24, Type (0, 0), BuildingBlock: ZUJKAS_clean_linker_0, # of connection points: 2
#     Edge 25, Type (0, 0), BuildingBlock: ZUJKAS_clean_linker_0, # of connection points: 2
#     Edge 26, Type (0, 0), BuildingBlock: ZUJKAS_clean_linker_0, # of connection points: 2
#     Edge 27, Type (0, 0), BuildingBlock: ZUJKAS_clean_linker_0, # of connection points: 2
#     Edge 28, Type (0, 0), BuildingBlock: ZUJKAS_clean_linker_0, # of connection points: 2
#     Edge 29, Type (0, 0), BuildingBlock: ZUJKAS_clean_linker_0, # of connection points: 2
#     Edge 30, Type (0, 0), BuildingBlock: ZUJKAS_clean_linker_0, # of connection points: 2
#     Edge 31, Type (0, 0), BuildingBlock: ZUJKAS_clean_linker_0, # of connection points: 2
#     Edge 32, Type (0, 0), BuildingBlock: ZUJKAS_clean_linker_0, # of connection points: 2
#     Edge 33, Type (0, 0), BuildingBlock: ZUJKAS_clean_linker_0, # of connection points: 2
#     Edge 34, Type (0, 0), BuildingBlock: ZUJKAS_clean_linker_0, # of connection points: 2
#     Edge 35, Type (0, 0), BuildingBlock: ZUJKAS_clean_linker_0, # of connection points: 2
#     Edge 36, Type (0, 0), BuildingBlock: ZUJKAS_clean_linker_0, # of connection points: 2
#     Edge 37, Type (0, 0), BuildingBlock: ZUJKAS_clean_linker_0, # of connection points: 2
#     Edge 38, Type (0, 0), BuildingBlock: ZUJKAS_clean_linker_0, # of connection points: 2
#     Edge 39, Type (0, 0), BuildingBlock: ZUJKAS_clean_linker_0, # of connection points: 2
#     Edge 40, Type (0, 0), BuildingBlock: ZUJKAS_clean_linker_0, # of connection points: 2
#     Edge 41, Type (0, 0), BuildingBlock: ZUJKAS_clean_linker_0, # of connection points: 2
#     Edge 42, Type (0, 0), BuildingBlock: ZUJKAS_clean_linker_0, # of connection points: 2
#     Edge 43, Type (0, 0), BuildingBlock: ZUJKAS_clean_linker_0, # of connection points: 2
#     Edge 44, Type (0, 0), BuildingBlock: ZUJKAS_clean_linker_0, # of connection points: 2
#     Edge 45, Type (0, 0), BuildingBlock: ZUJKAS_clean_linker_0, # of connection points: 2
#     Edge 46, Type (0, 0), BuildingBlock: ZUJKAS_clean_linker_0, # of connection points: 2
#     Edge 47, Type (0, 0), BuildingBlock: ZUJKAS_clean_linker_0, # of connection points: 2
#     Edge 48, Type (0, 0), BuildingBlock: ZUJKAS_clean_linker_0, # of connection points: 2
#     Edge 49, Type (0, 0), BuildingBlock: ZUJKAS_clean_linker_0, # of connection points: 2
#     Edge 50, Type (0, 0), BuildingBlock: ZUJKAS_clean_linker_0, # of connection points: 2
#     Edge 51, Type (0, 0), BuildingBlock: ZUJKAS_clean_linker_0, # of connection points: 2
#     Edge 52, Type (0, 0), BuildingBlock: ZUJKAS_clean_linker_0, # of connection points: 2
#     Edge 53, Type (0, 0), BuildingBlock: ZUJKAS_clean_linker_0, # of connection points: 2
#     Edge 54, Type (0, 0), BuildingBlock: ZUJKAS_clean_linker_0, # of connection points: 2
#     Edge 55, Type (0, 0), BuildingBlock: ZUJKAS_clean_linker_0, # of connection points: 2
#     Edge 56, Type (0, 0), BuildingBlock: ZUJKAS_clean_linker_0, # of connection points: 2
#     Edge 57, Type (0, 0), BuildingBlock: ZUJKAS_clean_linker_0, # of connection points: 2
#     Edge 58, Type (0, 0), BuildingBlock: ZUJKAS_clean_linker_0, # of connection points: 2
#     Edge 59, Type (0, 0), BuildingBlock: ZUJKAS_clean_linker_0, # of connection points: 2
#     Edge 60, Type (0, 0), BuildingBlock: ZUJKAS_clean_linker_0, # of connection points: 2
#     Edge 61, Type (0, 0), BuildingBlock: ZUJKAS_clean_linker_0, # of connection points: 2
#     Edge 62, Type (0, 0), BuildingBlock: ZUJKAS_clean_linker_0, # of connection points: 2
#     Edge 63, Type (0, 0), BuildingBlock: ZUJKAS_clean_linker_0, # of connection points: 2
# Relax obj value: 0.572
# Max RMSD: 0.276
# Mean RMSD: 0.276
data_MOF--net-whh--node1-VOLQOD_clean_sbu_1--edge1-ZUJKAS_clean_linker_0
_symmetry_space_group_name_H-M    P1
_symmetry_Int_Tables_number       1
_symmetry_cell_setting            triclinic
loop_
_symmetry_equiv_pos_as_xyz
'x, y, z'
_cell_length_a     43.111896
_cell_length_b     43.107609
_cell_length_c     67.264561
_cell_angle_alpha  89.999855
_cell_angle_beta   90.025579
_cell_angle_gamma 89.956728
loop_
_atom_site_label
_atom_site_type_symbol
_atom_site_fract_x
_atom_site_fract_y
_atom_site_fract_z
_atom_type_partial_charge
O0 O 0.06903 0.56843 0.10079 0.0
Zn1 Zn 0.07295 0.59522 0.12613 0.0
O2 O 0.04116 0.62731 0.124 0.0
Zn3 Zn 0.00467 0.61681 0.13915 0.0
Zn4 Zn 0.03121 0.63077 0.096 0.0
Zn5 Zn 0.05586 0.66651 0.1332 0.0
O6 O 0.99238 0.65053 0.15856 0.0
O7 O 0.03432 0.68025 0.15794 0.0
O8 O 0.06381 0.56807 0.15077 0.0
O9 O 0.01395 0.5794 0.15574 0.0
O10 O 0.96926 0.60687 0.12106 0.0
O11 O 0.98945 0.61175 0.09075 0.0
O12 O 0.03034 0.67486 0.08648 0.0
O13 O 0.11589 0.61667 0.12846 0.0
O14 O 0.04838 0.69968 0.11291 0.0
O15 O 0.10098 0.6641 0.13775 0.0
C16 C 0.06658 0.57834 0.08293 0.0
C17 C 0.00813 0.67315 0.16537 0.0
C18 C 0.96711 0.60469 0.10225 0.0
C19 C 0.03808 0.56356 0.15981 0.0
C20 C 0.03823 0.69986 0.09514 0.0
C21 C 0.12212 0.64419 0.13445 0.0
O22 O 0.06126 0.60685 0.07958 0.0
O23 O 0.93724 0.07851 0.1039 0.0
Zn24 Zn 0.91065 0.08216 0.12932 0.0
O25 O 0.88077 0.04846 0.12735 0.0
Zn26 Zn 0.89511 0.01241 0.14156 0.0
Zn27 Zn 0.87649 0.03988 0.09926 0.0
Zn28 Zn 0.84123 0.06031 0.13723 0.0
O29 O 0.86225 0.99606 0.16073 0.0
O30 O 0.83092 0.03698 0.16181 0.0
O31 O 0.93815 0.07532 0.15422 0.0
O32 O 0.93088 0.02465 0.15875 0.0
O33 O 0.9103 0.98023 0.12219 0.0
O34 O 0.89833 0.00021 0.09265 0.0
O35 O 0.83237 0.03591 0.09042 0.0
O36 O 0.88601 0.1234 0.13098 0.0
O37 O 0.80749 0.05042 0.11766 0.0
O38 O 0.84036 0.10568 0.14181 0.0
C39 C 0.92635 0.0767 0.08625 0.0
C40 C 0.83936 0.0106 0.16838 0.0
C41 C 0.91052 0.97898 0.10323 0.0
C42 C 0.94453 0.04989 0.16317 0.0
C43 C 0.80725 0.04105 0.09972 0.0
C44 C 0.85848 0.12798 0.13755 0.0
O45 O 0.89741 0.07307 0.08367 0.0
O46 O 0.42631 0.92929 0.10263 0.0
Zn47 Zn 0.4233 0.90234 0.12787 0.0
O48 O 0.45771 0.87306 0.12604 0.0
Zn49 Zn 0.49286 0.88782 0.14106 0.0
Zn50 Zn 0.46803 0.86925 0.0981 0.0
Zn51 Zn 0.44612 0.8331 0.13561 0.0
O52 O 0.50904 0.85522 0.16036 0.0
O53 O 0.46994 0.82173 0.1599 0.0
O54 O 0.42909 0.93018 0.15266 0.0
O55 O 0.47968 0.92356 0.15793 0.0
O56 O 0.52593 0.90314 0.12256 0.0
O57 O 0.50862 0.89035 0.09251 0.0
O58 O 0.47108 0.82522 0.08883 0.0
O59 O 0.38237 0.87727 0.12965 0.0
O60 O 0.45483 0.79986 0.11549 0.0
O61 O 0.401 0.83219 0.14077 0.0
C62 C 0.42988 0.91948 0.08484 0.0
C63 C 0.4955 0.83115 0.16718 0.0
C64 C 0.52885 0.9029 0.10371 0.0
C65 C 0.45413 0.937 0.1619 0.0
C66 C 0.4646 0.79996 0.09764 0.0
C67 C 0.37829 0.84985 0.13653 0.0
O68 O 0.43651 0.89121 0.08161 0.0
O69 O 0.557 0.41742 0.10242 0.0
Zn70 Zn 0.58381 0.41295 0.12771 0.0
O71 O 0.61573 0.44466 0.12536 0.0
Zn72 Zn 0.60462 0.48157 0.13978 0.0
Zn73 Zn 0.6192 0.45366 0.09731 0.0
Zn74 Zn 0.65489 0.4301 0.13478 0.0
O75 O 0.63883 0.49514 0.15851 0.0
O76 O 0.66835 0.45293 0.15918 0.0
O77 O 0.5573 0.42205 0.15271 0.0
O78 O 0.56826 0.47209 0.15711 0.0
O79 O 0.59294 0.51585 0.12104 0.0
O80 O 0.59952 0.49476 0.09118 0.0
O81 O 0.6633 0.45588 0.08821 0.0
O82 O 0.6057 0.37017 0.12958 0.0
O83 O 0.68818 0.43726 0.11449 0.0
O84 O 0.65286 0.38493 0.13955 0.0
C85 C 0.56738 0.41868 0.08463 0.0
C86 C 0.66139 0.47973 0.16579 0.0
C87 C 0.59115 0.51731 0.10216 0.0
C88 C 0.55288 0.4479 0.16167 0.0
C89 C 0.68828 0.44789 0.09685 0.0
C90 C 0.6331 0.36386 0.13578 0.0
O91 O 0.59626 0.42198 0.08158 0.0
O92 O 0.07834 0.93357 0.40763 0.0
Zn93 Zn 0.07887 0.90758 0.38175 0.0
O94 O 0.04507 0.87749 0.38399 0.0
Zn95 Zn 0.00891 0.89066 0.36926 0.0
Zn96 Zn 0.03534 0.87375 0.41193 0.0
Zn97 Zn 0.05707 0.83746 0.3745 0.0
O98 O 0.99407 0.85803 0.34968 0.0
O99 O 0.03416 0.82578 0.34995 0.0
O100 O 0.07063 0.93596 0.35739 0.0
O101 O 0.02027 0.92722 0.35259 0.0
O102 O 0.97473 0.90307 0.3878 0.0
O103 O 0.99459 0.89439 0.4178 0.0
O104 O 0.0321 0.8297 0.42109 0.0
O105 O 0.12023 0.88332 0.37852 0.0
O106 O 0.04818 0.80412 0.39448 0.0
O107 O 0.10203 0.83701 0.3694 0.0
C108 C 0.07556 0.9231 0.42535 0.0
C109 C 0.00839 0.83459 0.34266 0.0
C110 C 0.97274 0.9041 0.40669 0.0
C111 C 0.04508 0.94183 0.3484 0.0
C112 C 0.03832 0.80435 0.4123 0.0
C113 C 0.1245 0.85548 0.3724 0.0
O114 O 0.06696 0.89532 0.42837 0.0
O115 O 0.56436 0.07465 0.40608 0.0
Zn116 Zn 0.59022 0.07923 0.38016 0.0
O117 O 0.62327 0.04808 0.3819 0.0
Zn118 Zn 0.61345 0.01115 0.36739 0.0
Zn119 Zn 0.62653 0.0389 0.40976 0.0
Zn120 Zn 0.66246 0.06305 0.37306 0.0
O121 O 0.64846 0.9979 0.3491 0.0
O122 O 0.67623 0.04125 0.34834 0.0
O123 O 0.56309 0.06939 0.35553 0.0
O124 O 0.5773 0.02047 0.34978 0.0
O125 O 0.60093 0.97726 0.38612 0.0
O126 O 0.6039 -0.0006 0.41596 0.0
O127 O 0.67031 0.03513 0.41903 0.0
O128 O 0.61135 0.12219 0.3778 0.0
O129 O 0.69576 0.055 0.39343 0.0
O130 O 0.65939 0.10839 0.36887 0.0
C131 C 0.5769 0.07367 0.4233 0.0
C132 C 0.67036 0.01417 0.34178 0.0
C133 C 0.59667 0.97662 0.40486 0.0
C134 C 0.56029 0.04389 0.3459 0.0
C135 C 0.69554 0.04336 0.41083 0.0
C136 C 0.63889 0.12901 0.37211 0.0
O137 O 0.60621 0.07279 0.42464 0.0
O138 O 0.42435 0.56593 0.40635 0.0
Zn139 Zn 0.42005 0.59214 0.3808 0.0
O140 O 0.4518 0.62423 0.38257 0.0
Zn141 Zn 0.4885 0.61257 0.36793 0.0
Zn142 Zn 0.46151 0.62909 0.41046 0.0
Zn143 Zn 0.43664 0.66296 0.37264 0.0
O144 O 0.5022 0.64653 0.34903 0.0
O145 O 0.46097 0.67739 0.3491 0.0
O146 O 0.42892 0.56459 0.35628 0.0
O147 O 0.47873 0.57565 0.35103 0.0
O148 O 0.52312 0.60143 0.38655 0.0
O149 O 0.50364 0.61183 0.41638 0.0
O150 O 0.46105 0.67329 0.4193 0.0
O151 O 0.3772 0.61374 0.37838 0.0
O152 O 0.44001 0.69665 0.39319 0.0
O153 O 0.39222 0.65937 0.36604 0.0
C154 C 0.42714 0.57628 0.42409 0.0
C155 C 0.48746 0.66991 0.34225 0.0
C156 C 0.52558 0.60199 0.40543 0.0
C157 C 0.45448 0.55996 0.34706 0.0
C158 C 0.45066 0.69748 0.41081 0.0
C159 C 0.37101 0.64017 0.37059 0.0
O160 O 0.43202 0.60496 0.4271 0.0
O161 O 0.92998 0.42638 0.40426 0.0
Zn162 Zn 0.90233 0.42338 0.37925 0.0
O163 O 0.87071 0.4555 0.38205 0.0
Zn164 Zn 0.8817 0.49218 0.36724 0.0
Zn165 Zn 0.86842 0.46454 0.4101 0.0
Zn166 Zn 0.8307 0.44163 0.37362 0.0
O167 O 0.84742 0.50529 0.34832 0.0
O168 O 0.81694 0.46381 0.34913 0.0
O169 O 0.92863 0.4323 0.3542 0.0
O170 O 0.91796 0.48239 0.34982 0.0
O171 O 0.89374 0.52677 0.38571 0.0
O172 O 0.88817 0.50568 0.41566 0.0
O173 O 0.82501 0.46663 0.42028 0.0
O174 O 0.88003 0.38102 0.37716 0.0
O175 O 0.79813 0.44999 0.39435 0.0
O176 O 0.83208 0.3963 0.36914 0.0
C177 C 0.92026 0.42798 0.42219 0.0
C178 C 0.82433 0.48995 0.34171 0.0
C179 C 0.89615 0.52823 0.40458 0.0
C180 C 0.93316 0.45809 0.34522 0.0
C181 C 0.79928 0.45991 0.41216 0.0
C182 C 0.85208 0.37505 0.37193 0.0
O183 O 0.89179 0.43312 0.42571 0.0
O184 O 0.92605 0.42801 0.90284 0.0
Zn185 Zn 0.92232 0.40064 0.87782 0.0
O186 O 0.95324 0.36773 0.8806 0.0
Zn187 Zn 0.98996 0.37733 0.86548 0.0
Zn188 Zn 0.96382 0.36439 0.90853 0.0
Zn189 Zn 0.93712 0.32861 0.87166 0.0
O190 O 0.00302 0.34188 0.84784 0.0
O191 O 0.96144 0.31162 0.84863 0.0
O192 O 0.93218 0.42712 0.85291 0.0
O193 O 0.98089 0.41262 0.84726 0.0
O194 O 0.02501 0.3895 0.88332 0.0
O195 O 0.00689 0.38038 0.91363 0.0
O196 O 0.96133 0.32086 0.91869 0.0
O197 O 0.87903 0.38008 0.87527 0.0
O198 O 0.93879 0.29661 0.89341 0.0
O199 O 0.89285 0.33308 0.8645 0.0
C200 C 0.92942 0.41911 0.92086 0.0
C201 C 0.98809 0.31829 0.84168 0.0
C202 C 0.02839 0.38961 0.90212 0.0
C203 C 0.95755 0.42954 0.84313 0.0
C204 C 0.94952 0.29665 0.91103 0.0
C205 C 0.87219 0.35334 0.8682 0.0
O206 O 0.93614 0.3911 0.92489 0.0
O207 O 0.06371 0.92052 0.9073 0.0
Zn208 Zn 0.09041 0.91875 0.88173 0.0
O209 O 0.11923 0.95364 0.88406 0.0
Zn210 Zn 0.10508 0.98899 0.86933 0.0
Zn211 Zn 0.12072 0.96325 0.91206 0.0
Zn212 Zn 0.16013 0.94371 0.87561 0.0
O213 O 0.13736 0.00532 0.85015 0.0
O214 O 0.17136 0.96661 0.85084 0.0
O215 O 0.06232 0.92528 0.85697 0.0
O216 O 0.07039 0.9756 0.8519 0.0
O217 O 0.08871 0.0216 0.88778 0.0
O218 O 0.09377 0.00027 0.91775 0.0
O219 O 0.16373 0.97219 0.92174 0.0
O220 O 0.11665 0.87845 0.87931 0.0
O221 O 0.19158 0.95584 0.89613 0.0
O222 O 0.16281 0.89845 0.87131 0.0
C223 C 0.07477 0.92253 0.9249 0.0
C224 C 0.16145 0.99185 0.84334 0.0
C225 C 0.08409 0.02197 0.9065 0.0
C226 C 0.05642 0.95048 0.8476 0.0
C227 C 0.18983 0.96722 0.91355 0.0
C228 C 0.14506 0.87526 0.874 0.0
O229 O 0.1035 0.92769 0.92725 0.0
O230 O 0.56833 0.07038 0.90504 0.0
Zn231 Zn 0.57075 0.09795 0.88 0.0
O232 O 0.54015 0.13098 0.88355 0.0
Zn233 Zn 0.5025 0.12177 0.86921 0.0
Zn234 Zn 0.53179 0.13432 0.9118 0.0
Zn235 Zn 0.55543 0.17012 0.87428 0.0
O236 O 0.48922 0.15694 0.8512 0.0
O237 O 0.53218 0.1852 0.85045 0.0
O238 O 0.55933 0.0718 0.85519 0.0
O239 O 0.51012 0.08593 0.85106 0.0
O240 O 0.46829 0.11078 0.88803 0.0
O241 O 0.48878 0.11893 0.91788 0.0
O242 O 0.535 0.17786 0.92196 0.0
O243 O 0.61399 0.11841 0.87684 0.0
O244 O 0.55104 0.20307 0.89519 0.0
O245 O 0.60016 0.16653 0.86829 0.0
C246 C 0.56638 0.07923 0.92316 0.0
C247 C 0.50505 0.17924 0.84403 0.0
C248 C 0.46623 0.11051 0.90692 0.0
C249 C 0.53326 0.06919 0.84621 0.0
C250 C 0.54299 0.20289 0.91339 0.0
C251 C 0.62077 0.14585 0.87095 0.0
O252 O 0.56023 0.1073 0.9274 0.0
O253 O 0.43604 0.57485 0.90395 0.0
Zn254 Zn 0.40984 0.5776 0.87833 0.0
O255 O 0.38015 0.54381 0.88063 0.0
Zn256 Zn 0.39437 0.50716 0.86713 0.0
Zn257 Zn 0.37623 0.53651 0.90882 0.0
Zn258 Zn 0.34058 0.55496 0.87055 0.0
O259 O 0.3621 0.49073 0.84768 0.0
O260 O 0.33088 0.53163 0.84579 0.0
O261 O 0.43767 0.56959 0.85381 0.0
O262 O 0.43094 0.51859 0.85037 0.0
O263 O 0.40779 0.47495 0.887 0.0
O264 O 0.39965 0.49803 0.91615 0.0
O265 O 0.33217 0.53093 0.91744 0.0
O266 O 0.38505 0.61872 0.87595 0.0
O267 O 0.30703 0.54431 0.89002 0.0
O268 O 0.33923 0.60025 0.86601 0.0
C269 C 0.42461 0.57421 0.92148 0.0
C270 C 0.33955 0.50514 0.83954 0.0
C271 C 0.40979 0.47535 0.90592 0.0
C272 C 0.44452 0.54372 0.84553 0.0
C273 C 0.30697 0.53509 0.90799 0.0
C274 C 0.35725 0.62288 0.8697 0.0
O275 O 0.39551 0.57147 0.92365 0.0
O276 O 0.92565 0.0592 0.60459 0.0
Zn277 Zn 0.923 0.087 0.62944 0.0
O278 O 0.95606 0.11752 0.6258 0.0
Zn279 Zn 0.99306 0.10531 0.63952 0.0
Zn280 Zn 0.96307 0.11906 0.59746 0.0
Zn281 Zn 0.94441 0.1578 0.63437 0.0
O282 O 0.01023 0.13987 0.65679 0.0
O283 O 0.96895 0.17068 0.6581 0.0
O284 O 0.93213 0.06067 0.65451 0.0
O285 O 0.98204 0.07181 0.65873 0.0
O286 O 0.02411 0.08838 0.62001 0.0
O287 O 0.00108 0.09439 0.59064 0.0
O288 O 0.96811 0.16234 0.58714 0.0
O289 O 0.8815 0.11106 0.63202 0.0
O290 O 0.95278 0.18964 0.61326 0.0
O291 O 0.89946 0.15803 0.64011 0.0
C292 C 0.92604 0.06961 0.58681 0.0
C293 C 0.99587 0.16303 0.66419 0.0
C294 C 0.0235 0.08448 0.6012 0.0
C295 C 0.9578 0.05693 0.66382 0.0
C296 C 0.96242 0.18826 0.59539 0.0
C297 C 0.8771 0.13917 0.63761 0.0
O298 O 0.92746 0.09868 0.58404 0.0
O299 O 0.42564 0.93011 0.60524 0.0
Zn300 Zn 0.39541 0.92562 0.62865 0.0
O301 O 0.36307 0.95628 0.62335 0.0
Zn302 Zn 0.37178 0.99407 0.63766 0.0
Zn303 Zn 0.36359 0.96345 0.59486 0.0
Zn304 Zn 0.32289 0.94117 0.63028 0.0
O305 O 0.33508 0.00782 0.65416 0.0
O306 O 0.30377 0.96704 0.65176 0.0
O307 O 0.41903 0.93688 0.65438 0.0
O308 O 0.4056 0.9864 0.65749 0.0
O309 O 0.38579 0.02736 0.61872 0.0
O310 O 0.38274 0.00475 0.58906 0.0
O311 O 0.32121 0.96275 0.58256 0.0
O312 O 0.37458 0.88243 0.63118 0.0
O313 O 0.29357 0.94216 0.60704 0.0
O314 O 0.32635 0.89738 0.63869 0.0
C315 C 0.41853 0.93033 0.58681 0.0
C316 C 0.3104 0.99347 0.65906 0.0
C317 C 0.38974 0.02787 0.59993 0.0
C318 C 0.42131 0.96304 0.66325 0.0
C319 C 0.29586 0.95206 0.58929 0.0
C320 C 0.34688 0.87636 0.63692 0.0
O321 O 0.39026 0.93162 0.58164 0.0
O322 O 0.57711 0.42868 0.60168 0.0
Zn323 Zn 0.5792 0.40192 0.6271 0.0
O324 O 0.5452 0.37236 0.62456 0.0
Zn325 Zn 0.50899 0.38725 0.63831 0.0
Zn326 Zn 0.53717 0.36821 0.5964 0.0
Zn327 Zn 0.55611 0.33258 0.63469 0.0
O328 O 0.49166 0.35506 0.65734 0.0
O329 O 0.53145 0.32239 0.65884 0.0
O330 O 0.57178 0.42956 0.65181 0.0
O331 O 0.52095 0.42288 0.65561 0.0
O332 O 0.47719 0.40206 0.61874 0.0
O333 O 0.49717 0.38938 0.58936 0.0
O334 O 0.53428 0.32412 0.58744 0.0
O335 O 0.62008 0.37694 0.62982 0.0
O336 O 0.54758 0.29881 0.6148 0.0
O337 O 0.60108 0.33171 0.64045 0.0
C338 C 0.5751 0.41822 0.58394 0.0
C339 C 0.50523 0.33174 0.66516 0.0
C340 C 0.47585 0.4017 0.59981 0.0
C341 C 0.54617 0.43625 0.66044 0.0
C342 C 0.53923 0.29885 0.59664 0.0
C343 C 0.6239 0.34947 0.63672 0.0
O344 O 0.57035 0.3895 0.58105 0.0
O345 O 0.07135 0.56506 0.6024 0.0
Zn346 Zn 0.09882 0.56693 0.62752 0.0
O347 O 0.13064 0.53489 0.62438 0.0
Zn348 Zn 0.12012 0.49782 0.63904 0.0
Zn349 Zn 0.1332 0.52614 0.59624 0.0
Zn350 Zn 0.17053 0.54881 0.63306 0.0
O351 O 0.15498 0.48365 0.65718 0.0
O352 O 0.18532 0.52517 0.65673 0.0
O353 O 0.07189 0.55684 0.65209 0.0
O354 O 0.08458 0.50743 0.65712 0.0
O355 O 0.10748 0.46372 0.62035 0.0
O356 O 0.11457 0.48452 0.59045 0.0
O357 O 0.1766 0.52593 0.58588 0.0
O358 O 0.12086 0.60942 0.63085 0.0
O359 O 0.20293 0.54315 0.61189 0.0
O360 O 0.1684 0.59351 0.63923 0.0
C361 C 0.08072 0.56307 0.58441 0.0
C362 C 0.1783 0.49867 0.66374 0.0
C363 C 0.10593 0.46211 0.60145 0.0
C364 C 0.06844 0.53124 0.6615 0.0
C365 C 0.20205 0.53377 0.59396 0.0
C366 C 0.14856 0.61501 0.63679 0.0
O367 O 0.10888 0.55681 0.58063 0.0
H368 H 0.74387 0.41937 0.10309 0.0
H369 H 0.79492 0.44076 0.09514 0.0
H370 H 0.75143 0.51571 0.06304 0.0
H371 H 0.70044 0.49374 0.07016 0.0
H372 H 0.81061 0.50075 0.04823 0.0
H373 H 0.80958 0.5165 0.1303 0.0
H374 H 0.80758 0.47681 0.12239 0.0
H375 H 0.7762 0.50293 0.11676 0.0
C376 C 0.74529 0.43979 0.09374 0.0
C377 C 0.7183 0.45535 0.08762 0.0
C378 C 0.7744 0.45197 0.08923 0.0
C379 C 0.77676 0.4803 0.07907 0.0
C380 C 0.75002 0.49394 0.07103 0.0
H381 H 0.90789 0.6201 0.11106 0.0
H382 H 0.86107 0.59172 0.10153 0.0
C383 C 0.72089 0.48139 0.07516 0.0
C384 C 0.80571 0.49849 0.08006 0.0
H385 H 0.85322 0.53462 0.11321 0.0
C386 C 0.8201 0.50814 0.06239 0.0
C387 C 0.81748 0.50864 0.09859 0.0
C388 C 0.8018 0.50098 0.11809 0.0
C389 C 0.84614 0.52775 0.06281 0.0
C390 C 0.85814 0.53737 0.08139 0.0
C391 C 0.84386 0.52736 0.09898 0.0
C392 C 0.88536 0.55799 0.0834 0.0
C393 C 0.85995 0.53858 0.04341 0.0
C394 C 0.91434 0.54909 0.0758 0.0
C395 C 0.94095 0.56586 0.0808 0.0
C396 C 0.93889 0.59111 0.09389 0.0
C397 C 0.90984 0.60071 0.10089 0.0
C398 C 0.88322 0.58451 0.09546 0.0
H399 H 0.8429 0.53705 0.03106 0.0
H400 H 0.86833 0.56286 0.04451 0.0
H401 H 0.87996 0.52352 0.03958 0.0
H402 H 0.91664 0.52817 0.06704 0.0
H403 H 0.96334 0.5578 0.07564 0.0
H404 H 0.04984 0.75746 0.10999 0.0
H405 H 0.0332 0.80685 0.09631 0.0
H406 H -0.0008 0.76067 0.04374 0.0
H407 H 0.01505 0.71056 0.05767 0.0
H408 H 0.04267 0.84138 0.06201 0.0
H409 H 0.92078 0.79815 0.06712 0.0
H410 H 0.9526 0.77656 0.07764 0.0
H411 H 0.94734 0.77785 0.05116 0.0
C412 C 0.03924 0.75769 0.09539 0.0
C413 C 0.0331 0.72997 0.08514 0.0
C414 C 0.02992 0.78604 0.08751 0.0
C415 C 0.01444 0.78734 0.06918 0.0
C416 C 0.01055 0.76005 0.0581 0.0
H417 H 0.90369 0.95916 0.06478 0.0
H418 H 0.93049 0.91559 0.04865 0.0
C419 C 0.01969 0.73149 0.06607 0.0
C420 C -0.00077 0.81677 0.06348 0.0
H421 H 0.92829 0.85153 0.06656 0.0
C422 C 0.01761 0.84359 0.06231 0.0
C423 C 0.96648 0.81958 0.06369 0.0
C424 C 0.9455 0.79162 0.06504 0.0
C425 C 0.00422 0.87315 0.06358 0.0
C426 C 0.97184 0.87571 0.06606 0.0
C427 C 0.95319 0.84922 0.06476 0.0
C428 C 0.95784 0.90392 0.07454 0.0
C429 C 0.02488 0.90134 0.06389 0.0
C430 C 0.96417 0.91126 0.09444 0.0
C431 C 0.94861 0.93552 0.10376 0.0
C432 C 0.92656 0.95306 0.09328 0.0
C433 C 0.9206 0.94601 0.0732 0.0
C434 C 0.93593 0.92132 0.06394 0.0
H435 H 0.0472 0.8968 0.05616 0.0
H436 H 0.01323 0.92149 0.05679 0.0
H437 H 0.03014 0.90754 0.07955 0.0
H438 H 0.98062 0.89761 0.10293 0.0
H439 H 0.95391 0.94055 0.11917 0.0
H440 H 0.56506 0.94692 0.12082 0.0
H441 H 0.60886 0.97422 0.10615 0.0
H442 H 0.59707 0.92311 0.05157 0.0
H443 H 0.5524 0.89584 0.06607 0.0
H444 H 0.65967 0.92325 0.0712 0.0
H445 H 0.611 0.04071 0.05978 0.0
H446 H 0.59938 0.02318 0.08285 0.0
H447 H 0.58748 0.00597 0.05973 0.0
C448 C 0.57162 0.9415 0.10567 0.0
C449 C 0.55544 0.91908 0.09464 0.0
C450 C 0.59641 0.95737 0.09724 0.0
C451 C 0.6057 0.951 0.0777 0.0
C452 C 0.58982 0.92857 0.06659 0.0
H453 H 0.79711 0.01694 0.06248 0.0
H454 H 0.74782 0.99797 0.04902 0.0
C455 C 0.56451 0.91297 0.07492 0.0
C456 C 0.63401 0.96597 0.07011 0.0
H457 H 0.66609 0.03795 0.06696 0.0
C458 C 0.6612 0.94822 0.06947 0.0
C459 C 0.6356 -0.00154 0.06777 0.0
C460 C 0.60674 0.01821 0.06736 0.0
C461 C 0.6904 0.96252 0.06905 0.0
C462 C 0.69207 0.99533 0.06888 0.0
C463 C 0.66472 0.01283 0.06722 0.0
C464 C 0.72084 0.01154 0.0747 0.0
C465 C 0.71905 0.94255 0.07091 0.0
C466 C 0.72159 0.02682 0.0931 0.0
C467 C 0.7495 0.03781 0.10077 0.0
C468 C 0.77727 0.03366 0.09017 0.0
C469 C 0.77616 0.02018 0.07111 0.0
C470 C 0.74807 0.00925 0.0634 0.0
H471 H 0.71335 0.91761 0.07287 0.0
H472 H 0.73335 0.94494 0.05729 0.0
H473 H 0.73329 0.95019 0.08376 0.0
H474 H 0.70078 0.02883 0.10205 0.0
H475 H 0.74942 0.04835 0.11539 0.0
H476 H 0.49218 0.7902 0.06142 0.0
H477 H 0.50888 0.74046 0.04751 0.0
H478 H 0.46796 0.69283 0.09744 0.0
H479 H 0.45082 0.742 0.11119 0.0
H480 H 0.55018 0.70558 0.06623 0.0
H481 H 0.44701 0.63349 0.0535 0.0
H482 H 0.44465 0.67524 0.05563 0.0
H483 H 0.444 0.65108 0.07754 0.0
C484 C 0.48603 0.76905 0.06916 0.0
C485 C 0.47052 0.77007 0.08756 0.0
C486 C 0.49549 0.74066 0.06113 0.0
C487 C 0.4893 0.71289 0.07127 0.0
C488 C 0.47228 0.71383 0.08904 0.0
H489 H 0.58598 0.57444 0.11891 0.0
H490 H 0.5636 0.62101 0.10422 0.0
C491 C 0.46285 0.74208 0.09705 0.0
C492 C 0.50515 0.68374 0.06565 0.0
H493 H 0.49336 0.60557 0.06635 0.0
C494 C 0.53772 0.68376 0.0655 0.0
C495 C 0.48906 0.65524 0.06425 0.0
C496 C 0.45422 0.65386 0.06251 0.0
C497 C 0.55443 0.65596 0.06656 0.0
C498 C 0.5381 0.62769 0.06804 0.0
C499 C 0.50579 0.62741 0.06563 0.0
C500 C 0.55331 0.59959 0.07586 0.0
C501 C 0.58935 0.6572 0.06759 0.0
C502 C 0.55442 0.57202 0.06483 0.0
C503 C 0.56733 0.54526 0.07322 0.0
C504 C 0.57871 0.54568 0.09285 0.0
C505 C 0.57742 0.57338 0.10378 0.0
C506 C 0.56488 0.60006 0.09535 0.0
H507 H 0.59847 0.67791 0.0597 0.0
H508 H 0.59663 0.65885 0.08339 0.0
H509 H 0.59993 0.63603 0.06106 0.0
H510 H 0.54518 0.57119 0.04986 0.0
H511 H 0.56775 0.52411 0.06456 0.0
H512 H 0.9655 0.9257 0.44476 0.0
H513 H 0.91924 0.95054 0.45897 0.0
H514 H 0.87093 0.9377 0.40342 0.0
H515 H 0.91669 0.91318 0.38913 0.0
H516 H 0.88875 0.0055 0.44204 0.0
H517 H 0.81052 0.90428 0.44694 0.0
H518 H 0.85231 0.90062 0.44639 0.0
H519 H 0.83083 0.90568 0.42366 0.0
C520 C 0.94485 0.92785 0.43568 0.0
C521 C 0.94466 0.91749 0.41583 0.0
C522 C 0.91856 0.94204 0.44382 0.0
C523 C 0.89168 0.94544 0.4323 0.0
C524 C 0.89136 0.93474 0.41262 0.0
H525 H 0.75394 0.05589 0.3974 0.0
H526 H 0.80251 0.03657 0.41093 0.0
C527 C 0.91759 0.92094 0.40444 0.0
C528 C 0.86427 0.96206 0.43989 0.0
H529 H 0.78584 0.95417 0.44111 0.0
C530 C 0.86625 0.99427 0.44251 0.0
C531 C 0.83514 0.94725 0.44099 0.0
C532 C 0.83206 0.91248 0.43956 0.0
C533 C 0.83935 0.01246 0.44387 0.0
C534 C 0.81006 0.99794 0.44225 0.0
C535 C 0.80829 0.96542 0.44206 0.0
C536 C 0.78173 0.01546 0.43695 0.0
C537 C 0.84258 0.04714 0.44588 0.0
C538 C 0.75383 0.01029 0.44714 0.0
C539 C 0.72582 0.02098 0.43924 0.0
C540 C 0.72528 0.03679 0.42093 0.0
C541 C 0.75349 0.04368 0.41147 0.0
C542 C 0.78141 0.03297 0.41935 0.0
H543 H 0.86335 0.05311 0.45488 0.0
H544 H 0.84577 0.0575 0.43092 0.0
H545 H 0.82177 0.05768 0.45289 0.0
H546 H 0.75356 0.9966 0.46065 0.0
H547 H 0.7045 0.01545 0.44698 0.0
H548 H 0.55557 0.97607 0.43574 0.0
H549 H 0.52183 0.93279 0.44543 0.0
H550 H 0.56849 0.87365 0.40313 0.0
H551 H 0.60112 0.91694 0.39286 0.0
H552 H 0.50644 0.87687 0.39725 0.0
H553 H 0.53192 0.85222 0.47684 0.0
H554 H 0.52229 0.89158 0.47045 0.0
H555 H 0.5577 0.87482 0.46144 0.0
C556 C 0.55902 0.95357 0.4289 0.0
C557 C 0.58067 0.94973 0.41345 0.0
C558 C 0.53983 0.9289 0.43449 0.0
C559 C 0.54269 0.90006 0.42499 0.0
C560 C 0.56582 0.89581 0.41056 0.0
H561 H 0.49887 0.71555 0.43385 0.0
H562 H 0.513 0.76882 0.44191 0.0
C563 C 0.58444 0.92048 0.4047 0.0
C564 C 0.51975 0.87508 0.42803 0.0
H565 H 0.4955 0.81997 0.4609 0.0
C566 C 0.50371 0.86456 0.41121 0.0
C567 C 0.51608 0.85952 0.44635 0.0
C568 C 0.53299 0.86987 0.46483 0.0
C569 C 0.4863 0.83727 0.41165 0.0
C570 C 0.48346 0.82083 0.42982 0.0
C571 C 0.49758 0.83271 0.44706 0.0
C572 C 0.47069 0.78896 0.43021 0.0
C573 C 0.4735 0.82513 0.39221 0.0
C574 C 0.44134 0.78237 0.4222 0.0
C575 C 0.43376 0.752 0.41686 0.0
C576 C 0.45485 0.7278 0.4204 0.0
C577 C 0.48231 0.7339 0.43088 0.0
C578 C 0.49033 0.76434 0.43558 0.0
H579 H 0.48328 0.83751 0.37915 0.0
H580 H 0.47861 0.80003 0.39045 0.0
H581 H 0.44798 0.8284 0.39191 0.0
H582 H 0.42536 0.80094 0.41862 0.0
H583 H 0.41216 0.74765 0.4091 0.0
H584 H 0.53553 0.58918 0.44485 0.0
H585 H 0.58189 0.56561 0.45973 0.0
H586 H 0.62578 0.56356 0.40217 0.0
H587 H 0.57994 0.58697 0.38718 0.0
H588 H 0.60834 0.50453 0.44494 0.0
H589 H 0.69033 0.60326 0.44251 0.0
H590 H 0.64868 0.6083 0.44339 0.0
H591 H 0.66758 0.59935 0.42026 0.0
C592 C 0.55521 0.58402 0.43541 0.0
C593 C 0.55406 0.58984 0.41481 0.0
C594 C 0.58155 0.57052 0.44394 0.0
C595 C 0.6071 0.5631 0.43202 0.0
C596 C 0.60629 0.5695 0.4116 0.0
H597 H 0.74021 0.44673 0.40024 0.0
H598 H 0.69251 0.46782 0.41399 0.0
C599 C 0.58002 0.58273 0.40305 0.0
C600 C 0.63418 0.54665 0.44019 0.0
H601 H 0.71282 0.55199 0.44004 0.0
C602 C 0.63121 0.51499 0.44456 0.0
C603 C 0.66377 0.56055 0.44008 0.0
C604 C 0.66785 0.59484 0.4365 0.0
C605 C 0.65755 0.49612 0.44655 0.0
C606 C 0.68723 0.50939 0.44386 0.0
C607 C 0.69005 0.5417 0.44188 0.0
C608 C 0.71472 0.49035 0.43901 0.0
C609 C 0.6533 0.46191 0.45028 0.0
C610 C 0.74306 0.49552 0.44869 0.0
C611 C 0.77055 0.4837 0.44071 0.0
C612 C 0.77009 0.46686 0.42278 0.0
C613 C 0.74141 0.45979 0.41398 0.0
C614 C 0.714 0.47152 0.42199 0.0
H615 H 0.63246 0.45766 0.4596 0.0
H616 H 0.64968 0.44988 0.43588 0.0
H617 H 0.67389 0.45165 0.45773 0.0
H618 H 0.74412 0.51021 0.46175 0.0
H619 H 0.79226 0.48942 0.44794 0.0
H620 H 0.00909 0.7952 0.44801 0.0
H621 H 0.98908 0.74611 0.46095 0.0
H622 H 0.03065 0.69754 0.4116 0.0
H623 H 0.05107 0.74608 0.39881 0.0
H624 H 0.94712 0.71485 0.44011 0.0
H625 H 0.04425 0.63558 0.45537 0.0
H626 H 0.04944 0.67714 0.4539 0.0
H627 H 0.05015 0.65365 0.4317 0.0
C628 C 0.01475 0.77393 0.44024 0.0
C629 C 0.03127 0.77458 0.4222 0.0
C630 C 0.00337 0.74591 0.44771 0.0
C631 C 0.00863 0.71812 0.43738 0.0
C632 C 0.02693 0.71853 0.42013 0.0
H633 H 0.90545 0.5845 0.38714 0.0
H634 H 0.92998 0.63009 0.40169 0.0
C635 C 0.03826 0.74644 0.41266 0.0
C636 C 0.99048 0.68996 0.44204 0.0
H637 H 0.99704 0.61116 0.4413 0.0
C638 C 0.95802 0.69221 0.4411 0.0
C639 C 0.00453 0.66042 0.44369 0.0
C640 C 0.03903 0.65664 0.44645 0.0
C641 C 0.93957 0.66564 0.43938 0.0
C642 C 0.95406 0.63632 0.43837 0.0
C643 C 0.98608 0.63382 0.44168 0.0
C644 C 0.93737 0.6091 0.43055 0.0
C645 C 0.90493 0.66928 0.4373 0.0
C646 C 0.93378 0.58215 0.44195 0.0
C647 C 0.91961 0.556 0.43366 0.0
C648 C 0.90942 0.55633 0.41377 0.0
C649 C 0.91302 0.58349 0.40248 0.0
C650 C 0.92684 0.60961 0.41082 0.0
H651 H 0.89668 0.69078 0.44473 0.0
H652 H 0.8989 0.67098 0.42129 0.0
H653 H 0.89248 0.64907 0.4437 0.0
H654 H 0.94211 0.58129 0.45714 0.0
H655 H 0.91728 0.53533 0.44266 0.0
H656 H 0.04111 0.40285 0.94124 0.0
H657 H 0.08826 0.42715 0.95457 0.0
H658 H 0.12763 0.4293 0.8957 0.0
H659 H 0.08118 0.40498 0.88227 0.0
H660 H 0.1677 0.4066 0.92925 0.0
H661 H 0.11097 0.52164 0.94039 0.0
H662 H 0.09376 0.48731 0.95093 0.0
H663 H 0.09389 0.49251 0.9245 0.0
C664 C 0.05995 0.40824 0.93118 0.0
C665 C 0.05736 0.40213 0.91066 0.0
C666 C 0.08671 0.42222 0.93882 0.0
C667 C 0.1111 0.43015 0.92605 0.0
C668 C 0.10892 0.42328 0.90574 0.0
H669 H 0.24888 0.54241 0.89269 0.0
H670 H 0.20118 0.51896 0.90475 0.0
C671 C 0.08232 0.40946 0.8981 0.0
C672 C 0.13878 0.44673 0.93323 0.0
H673 H 0.16538 0.52037 0.9402 0.0
C674 C 0.16734 0.43131 0.93231 0.0
C675 C 0.13788 0.4789 0.93714 0.0
C676 C 0.10757 0.49631 0.93829 0.0
C677 C 0.19531 0.44773 0.93342 0.0
C678 C 0.19443 0.48036 0.93577 0.0
C679 C 0.16585 0.49536 0.93846 0.0
C680 C 0.22194 0.49946 0.93126 0.0
C681 C 0.22537 0.43046 0.93017 0.0
C682 C 0.2491 0.49738 0.94265 0.0
C683 C 0.27663 0.51061 0.93569 0.0
C684 C 0.27723 0.52613 0.91727 0.0
C685 C 0.24934 0.53028 0.90679 0.0
C686 C 0.22197 0.51704 0.91373 0.0
H687 H 0.22157 0.40562 0.92651 0.0
H688 H 0.23879 0.44128 0.91791 0.0
H689 H 0.23966 0.43166 0.94387 0.0
H690 H 0.24934 0.48427 0.95639 0.0
H691 H 0.29767 0.5073 0.94423 0.0
H692 H 0.90592 0.25105 0.91253 0.0
H693 H 0.91306 0.19837 0.92531 0.0
H694 H 0.00551 0.22284 0.94459 0.0
H695 H 0.99722 0.27577 0.93345 0.0
H696 H 0.94789 0.16242 0.90904 0.0
H697 H 0.99023 0.16126 0.98547 0.0
H698 H 0.97136 0.1952 0.97537 0.0
H699 H 0.0129 0.19013 0.97315 0.0
C700 C 0.92723 0.24529 0.92024 0.0
C701 C 0.95115 0.26717 0.92192 0.0
C702 C 0.93132 0.21525 0.92758 0.0
C703 C 0.95982 0.20635 0.93605 0.0
C704 C 0.98291 0.229 0.93881 0.0
H705 H 0.07689 0.07991 0.89162 0.0
H706 H 0.04114 0.11988 0.90304 0.0
C707 C 0.97836 0.25929 0.93214 0.0
C708 C 0.96819 0.17298 0.93768 0.0
H709 H 0.01904 0.12541 0.96191 0.0
C710 C 0.96241 0.15405 0.92107 0.0
C711 C 0.98652 0.16111 0.95345 0.0
C712 C 0.99018 0.17803 0.97292 0.0
C713 C 0.97759 0.12567 0.91868 0.0
C714 C -9e-05 0.11651 0.93287 0.0
C715 C 0.00273 0.13316 0.95068 0.0
C716 C 0.0235 0.09303 0.92777 0.0
C717 C 0.97119 0.1068 0.90023 0.0
C718 C 0.02655 0.0654 0.9386 0.0
C719 C 0.04736 0.04254 0.93219 0.0
C720 C 0.06525 0.04722 0.91494 0.0
C721 C 0.06313 0.07555 0.9048 0.0
C722 C 0.04266 0.09832 0.91127 0.0
H723 H 0.94696 0.11025 0.89503 0.0
H724 H 0.98689 0.11453 0.88813 0.0
H725 H 0.9751 0.08167 0.90288 0.0
H726 H 0.01212 0.06108 0.95149 0.0
H727 H 0.04843 0.02075 0.94016 0.0
H728 H 0.19571 0.99821 0.94905 0.0
H729 H 0.24288 0.02222 0.96232 0.0
H730 H 0.29565 0.98368 0.91375 0.0
H731 H 0.24918 0.95918 0.90069 0.0
H732 H 0.32831 0.98476 0.9499 0.0
H733 H 0.27348 0.09882 0.9321 0.0
H734 H 0.25444 0.07383 0.94966 0.0
H735 H 0.25649 0.0628 0.92395 0.0
C736 C 0.2175 0.99433 0.94144 0.0
C737 C 0.2186 0.97733 0.92357 0.0
C738 C 0.24437 0.00812 0.94903 0.0
C739 C 0.27255 0.00518 0.93879 0.0
C740 C 0.27408 0.98628 0.92185 0.0
H741 H 0.41188 0.09659 0.8884 0.0
H742 H 0.36545 0.07414 0.90301 0.0
C743 C 0.2474 0.97245 0.91432 0.0
C744 C 0.29973 0.02454 0.94371 0.0
H745 H 0.32721 0.09756 0.93543 0.0
C746 C 0.3281 0.00962 0.94739 0.0
C747 C 0.29917 0.05697 0.94046 0.0
C748 C 0.26937 0.07421 0.93624 0.0
C749 C 0.35625 0.02571 0.94586 0.0
C750 C 0.35574 0.05754 0.94085 0.0
C751 C 0.3273 0.0731 0.93925 0.0
C752 C 0.38357 0.07318 0.93301 0.0
C753 C 0.38632 0.00809 0.94792 0.0
C754 C 0.40896 0.0804 0.94516 0.0
C755 C 0.43576 0.09327 0.93681 0.0
C756 C 0.4374 0.09898 0.91621 0.0
C757 C 0.4115 0.09238 0.90428 0.0
C758 C 0.38487 0.07965 0.91261 0.0
H759 H 0.38258 0.98277 0.94988 0.0
H760 H 0.40118 0.01179 0.93466 0.0
H761 H 0.39905 0.01689 0.96107 0.0
H762 H 0.40815 0.07577 0.96097 0.0
H763 H 0.45534 0.09814 0.94641 0.0
H764 H 0.55705 0.26067 0.89961 0.0
H765 H 0.54188 0.30985 0.91413 0.0
H766 H 0.50707 0.26246 0.96603 0.0
H767 H 0.52159 0.21268 0.95129 0.0
H768 H 0.46336 0.29515 0.94964 0.0
H769 H 0.5641 0.37208 0.95546 0.0
H770 H 0.56551 0.35396 0.93154 0.0
H771 H 0.56835 0.33043 0.95369 0.0
C772 C 0.54695 0.26064 0.91435 0.0
C773 C 0.53998 0.23269 0.9241 0.0
C774 C 0.53867 0.28894 0.92281 0.0
C775 C 0.52362 0.28997 0.94131 0.0
C776 C 0.51885 0.26223 0.95181 0.0
H777 H 0.43759 0.47538 0.94242 0.0
H778 H 0.46377 0.43172 0.95893 0.0
C779 C 0.52705 0.2338 0.9433 0.0
C780 C 0.50734 0.3188 0.94718 0.0
H781 H 0.51539 0.39715 0.94278 0.0
C782 C 0.47491 0.31748 0.94896 0.0
C783 C 0.5222 0.34804 0.94681 0.0
C784 C 0.55703 0.3511 0.94701 0.0
C785 C 0.45687 0.34437 0.94753 0.0
C786 C 0.47166 0.37302 0.94396 0.0
C787 C 0.50409 0.37494 0.945 0.0
C788 C 0.45443 0.3992 0.93517 0.0
C789 C 0.42201 0.34157 0.94816 0.0
C790 C 0.44103 0.39533 0.91632 0.0
C791 C 0.42633 0.42004 0.9069 0.0
C792 C 0.42468 0.4491 0.9162 0.0
C793 C 0.43806 0.453 0.93514 0.0
C794 C 0.45309 0.42823 0.94452 0.0
H795 H 0.41477 0.3217 0.9576 0.0
H796 H 0.41114 0.36312 0.95395 0.0
H797 H 0.41317 0.33734 0.9329 0.0
H798 H 0.44248 0.37323 0.90869 0.0
H799 H 0.41632 0.41639 0.89231 0.0
H800 H 0.02291 0.05616 0.56463 0.0
H801 H 0.06255 0.02112 0.55099 0.0
H802 H 0.11983 0.0375 0.60254 0.0
H803 H 0.08043 0.07164 0.61639 0.0
H804 H 0.126 0.02835 0.54177 0.0
H805 H 0.11023 0.94319 0.60175 0.0
H806 H 0.082 0.97313 0.59658 0.0
H807 H 0.11495 0.98105 0.61232 0.0
C808 C 0.04409 0.0524 0.57296 0.0
C809 C 0.04843 0.06627 0.59173 0.0
C810 C 0.0666 0.03238 0.56515 0.0
C811 C 0.09364 0.02615 0.57604 0.0
C812 C 0.09866 0.04134 0.5942 0.0
H813 H 0.27592 0.00244 0.56918 0.0
H814 H 0.22332 0.01193 0.55778 0.0
C815 C 0.0762 0.06097 0.60206 0.0
C816 C 0.11703 0.00365 0.56902 0.0
H817 H 0.16287 0.94734 0.58847 0.0
C818 C 0.13374 0.00996 0.5516 0.0
C819 C 0.12612 0.97861 0.58123 0.0
C820 C 0.10707 0.96838 0.59887 0.0
C821 C 0.16173 0.99447 0.54759 0.0
C822 C 0.17364 0.97325 0.56178 0.0
C823 C 0.15458 0.96412 0.5777 0.0
C824 C 0.2071 0.96491 0.56291 0.0
C825 C 0.17865 0.00192 0.52858 0.0
C826 C 0.21617 0.93522 0.56942 0.0
C827 C 0.24595 0.93032 0.57699 0.0
C828 C 0.26749 0.95466 0.57735 0.0
C829 C 0.25969 0.98326 0.56883 0.0
C830 C 0.22958 0.98854 0.56202 0.0
H831 H 0.1619 0.00409 0.51609 0.0
H832 H 0.19044 0.02468 0.5301 0.0
H833 H 0.19606 0.9839 0.52474 0.0
H834 H 0.19947 0.91649 0.57018 0.0
H835 H 0.25167 0.90801 0.58344 0.0
H836 H 0.54789 0.24049 0.61137 0.0
H837 H 0.528 0.19228 0.59769 0.0
H838 H 0.49546 0.241 0.54567 0.0
H839 H 0.51495 0.28972 0.55944 0.0
H840 H 0.44967 0.2115 0.564 0.0
H841 H 0.54599 0.12893 0.55533 0.0
H842 H 0.54903 0.14737 0.57912 0.0
H843 H 0.55227 0.17034 0.55679 0.0
C844 C 0.53722 0.24093 0.59679 0.0
C845 C 0.53256 0.26905 0.58665 0.0
C846 C 0.5262 0.21319 0.58884 0.0
C847 C 0.51056 0.21295 0.57053 0.0
C848 C 0.5077 0.24065 0.55974 0.0
H849 H 0.41465 0.03278 0.56258 0.0
H850 H 0.44239 0.07735 0.54855 0.0
C851 C 0.51875 0.26848 0.56769 0.0
C852 C 0.4923 0.18525 0.56495 0.0
H853 H 0.4962 0.10633 0.56678 0.0
C854 C 0.45994 0.18852 0.56387 0.0
C855 C 0.50558 0.15526 0.56438 0.0
C856 C 0.54018 0.15035 0.56374 0.0
C857 C 0.44049 0.16259 0.56471 0.0
C858 C 0.45381 0.13288 0.5669 0.0
C859 C 0.48607 0.12929 0.56551 0.0
C860 C 0.43529 0.10657 0.57429 0.0
C861 C 0.40583 0.16734 0.56471 0.0
C862 C 0.42246 0.10835 0.59341 0.0
C863 C 0.40707 0.08298 0.60155 0.0
C864 C 0.40415 0.05535 0.59068 0.0
C865 C 0.41648 0.05381 0.57131 0.0
C866 C 0.43228 0.07918 0.56325 0.0
H867 H 0.39935 0.18877 0.55651 0.0
H868 H 0.39368 0.14726 0.5579 0.0
H869 H 0.39764 0.16987 0.58027 0.0
H870 H 0.42509 0.12917 0.60227 0.0
H871 H 0.39786 0.08492 0.61648 0.0
H872 H 0.26039 0.54926 0.60606 0.0
H873 H 0.30901 0.53313 0.59111 0.0
H874 H 0.25935 0.49217 0.54198 0.0
H875 H 0.2102 0.50783 0.55711 0.0
H876 H 0.29458 0.45092 0.56023 0.0
H877 H 0.36718 0.55322 0.54656 0.0
H878 H 0.35025 0.55688 0.57074 0.0
H879 H 0.32551 0.55605 0.54908 0.0
C880 C 0.25973 0.53753 0.59182 0.0
C881 C 0.23139 0.52937 0.58296 0.0
C882 C 0.28767 0.52869 0.58311 0.0
C883 C 0.28789 0.51178 0.56526 0.0
C884 C 0.25971 0.50545 0.55566 0.0
H885 H 0.45722 0.39567 0.56098 0.0
H886 H 0.41342 0.422 0.54474 0.0
C887 C 0.23165 0.51431 0.56439 0.0
C888 C 0.31675 0.49573 0.55927 0.0
H889 H 0.39493 0.50703 0.56035 0.0
C890 C 0.31652 0.46315 0.55935 0.0
C891 C 0.34533 0.51161 0.55783 0.0
C892 C 0.34697 0.54639 0.55582 0.0
C893 C 0.34419 0.44626 0.56087 0.0
C894 C 0.3725 0.46249 0.56224 0.0
C895 C 0.373 0.49475 0.55959 0.0
C896 C 0.39997 0.44755 0.57102 0.0
C897 C 0.34281 0.41149 0.56324 0.0
C898 C 0.40657 0.45328 0.59108 0.0
C899 C 0.43104 0.43812 0.60042 0.0
C900 C 0.44961 0.41712 0.58979 0.0
C901 C 0.44321 0.41167 0.56955 0.0
C902 C 0.41834 0.42666 0.56025 0.0
H903 H 0.31897 0.40227 0.56114 0.0
H904 H 0.35841 0.40024 0.55228 0.0
H905 H 0.35102 0.40494 0.57832 0.0
H906 H 0.39237 0.4692 0.59962 0.0
H907 H 0.4355 0.44304 0.61595 0.0
H908 H 0.09565 0.40605 0.6189 0.0
H909 H 0.07146 0.36048 0.60414 0.0
H910 H 0.06184 0.40877 0.54831 0.0
H911 H 0.08638 0.45474 0.563 0.0
H912 H 0.00614 0.37945 0.56329 0.0
H913 H 0.10583 0.29892 0.56203 0.0
H914 H 0.103 0.31908 0.58531 0.0
H915 H 0.11038 0.34061 0.56287 0.0
C916 C 0.08871 0.40696 0.60343 0.0
C917 C 0.09292 0.43399 0.59211 0.0
C918 C 0.07509 0.38083 0.59498 0.0
C919 C 0.06536 0.38119 0.57508 0.0
C920 C 0.06957 0.40801 0.56363 0.0
H921 H 0.99258 0.1952 0.55977 0.0
H922 H 0.01333 0.24341 0.54595 0.0
C923 C 0.08355 0.43417 0.57205 0.0
C924 C 0.04877 0.35399 0.56713 0.0
H925 H 0.055 0.27537 0.56643 0.0
C926 C 0.01689 0.35669 0.56332 0.0
C927 C 0.06299 0.3245 0.56663 0.0
C928 C 0.09753 0.32061 0.56922 0.0
C929 C 0.99826 0.3302 0.56139 0.0
C930 C 0.01194 0.30058 0.56365 0.0
C931 C 0.04435 0.29806 0.565 0.0
C932 C 0.99337 0.27283 0.56866 0.0
C933 C 0.9639 0.33423 0.55811 0.0
C934 C 0.9746 0.27349 0.5857 0.0
C935 C 0.96285 0.24609 0.59366 0.0
C936 C 0.96988 0.2174 0.58484 0.0
C937 C 0.98687 0.21693 0.56698 0.0
C938 C -0.00133 0.24445 0.55902 0.0
H939 H 0.95923 0.3549 0.5487 0.0
H940 H 0.95347 0.3135 0.55093 0.0
H941 H 0.95235 0.33809 0.57264 0.0
H942 H 0.97082 0.29496 0.59372 0.0
H943 H 0.94969 0.24732 0.60736 0.0
H944 H 0.03849 0.7186 0.18562 0.0
H945 H 0.02112 0.74662 0.2149 0.0
H946 H 0.93379 0.6979 0.21321 0.0
H947 H 0.9514 0.66887 0.18393 0.0
H948 H 0.97131 0.78515 0.22151 0.0
H949 H 0.9651 0.67942 0.26909 0.0
H950 H 0.98306 0.67887 0.24489 0.0
H951 H 0.94157 0.68009 0.24703 0.0
C952 C 0.01552 0.7138 0.19135 0.0
C953 C 0.99646 0.69123 0.18252 0.0
C954 C 0.00556 0.72999 0.20808 0.0
C955 C 0.97629 0.72414 0.21635 0.0
C956 C 0.95668 0.70238 0.20725 0.0
H957 H 0.95464 0.84612 0.32167 0.0
H958 H 0.93657 0.81923 0.29163 0.0
C959 C 0.96675 0.6859 0.1905 0.0
C960 C 0.96771 0.74009 0.23506 0.0
H961 H 0.96213 0.72745 0.28499 0.0
C962 C 0.96856 0.77264 0.23539 0.0
C963 C 0.96406 0.72358 0.25308 0.0
C964 C 0.96353 0.68857 0.25368 0.0
C965 C 0.96862 0.78907 0.2534 0.0
C966 C 0.96701 0.77242 0.27148 0.0
C967 C 0.96335 0.74007 0.27105 0.0
C968 C 0.97517 0.78712 0.29068 0.0
C969 C 0.97306 0.82381 0.25294 0.0
C970 C 0.00219 0.77729 0.30041 0.0
C971 C 0.01236 0.79228 0.31752 0.0
C972 C 0.99579 0.81761 0.32531 0.0
C973 C 0.96807 0.82685 0.31595 0.0
C974 C 0.95776 0.81161 0.29876 0.0
H975 H 0.97792 0.83255 0.23772 0.0
H976 H 0.95172 0.83535 0.25843 0.0
H977 H 0.99253 0.83069 0.26281 0.0
H978 H 0.01602 0.75849 0.29441 0.0
H979 H 0.0337 0.78436 0.32435 0.0
H980 H 0.71501 0.04469 0.32091 0.0
H981 H 0.7449 0.02594 0.29277 0.0
H982 H 0.69972 0.93693 0.29689 0.0
H983 H 0.66884 0.95585 0.32504 0.0
H984 H 0.78579 0.97697 0.28893 0.0
H985 H 0.68301 0.96232 0.23947 0.0
H986 H 0.68047 0.98258 0.26287 0.0
H987 H 0.68345 0.94104 0.26246 0.0
C988 C 0.71135 0.02107 0.31595 0.0
C989 C 0.68928 0.00187 0.32516 0.0
C990 C 0.72862 0.01033 0.29987 0.0
C991 C 0.72438 0.98013 0.29262 0.0
C992 C 0.70301 0.96048 0.30206 0.0
H993 H 0.85236 0.95777 0.19014 0.0
H994 H 0.82498 0.93934 0.21996 0.0
C995 C 0.68546 0.97132 0.31816 0.0
C996 C 0.74165 0.97052 0.2746 0.0
H997 H 0.73192 0.96061 0.22467 0.0
C998 C 0.77415 0.97261 0.27491 0.0
C999 C 0.72629 0.9647 0.25639 0.0
C1000 C 0.69139 0.96265 0.25509 0.0
C1001 C 0.79152 0.97193 0.25727 0.0
C1002 C 0.77592 0.96838 0.23891 0.0
C1003 C 0.74374 0.96333 0.2388 0.0
C1004 C 0.79112 0.97646 0.21986 0.0
C1005 C 0.826 0.97779 0.25829 0.0
C1006 C 0.78056 0.00273 0.20962 0.0
C1007 C 0.79586 0.0131 0.19269 0.0
C1008 C 0.82224 0.99749 0.18553 0.0
C1009 C 0.83224 0.97042 0.19535 0.0
C1010 C 0.81672 0.95994 0.21241 0.0
H1011 H 0.83389 0.98343 0.2736 0.0
H1012 H 0.83864 0.95679 0.25325 0.0
H1013 H 0.83249 0.99725 0.24831 0.0
H1014 H 0.76091 0.01588 0.2151 0.0
H1015 H 0.78724 0.03386 0.18548 0.0
H1016 H 0.546 0.84651 0.19036 0.0
H1017 H 0.56431 0.81942 0.22028 0.0
H1018 H 0.4924 0.75089 0.21271 0.0
H1019 H 0.4746 0.777 0.18295 0.0
H1020 H 0.53262 0.81115 0.25386 0.0
H1021 H 0.56424 0.69579 0.22571 0.0
H1022 H 0.55957 0.72873 0.20937 0.0
H1023 H 0.52652 0.70558 0.21648 0.0
C1024 C 0.53453 0.82531 0.19489 0.0
C1025 C 0.50879 0.81398 0.18426 0.0
C1026 C 0.54503 0.80987 0.21196 0.0
C1027 C 0.53016 0.78273 0.21851 0.0
C1028 C 0.50492 0.77117 0.20765 0.0
H1029 H 0.46071 0.71886 0.3232 0.0
H1030 H 0.48069 0.74793 0.29512 0.0
C1031 C 0.49449 0.78645 0.19069 0.0
C1032 C 0.53802 0.76816 0.23783 0.0
H1033 H 0.54184 0.69678 0.25951 0.0
C1034 C 0.53561 0.78624 0.25511 0.0
C1035 C 0.54286 0.7358 0.23959 0.0
C1036 C 0.54881 0.7155 0.22174 0.0
C1037 C 0.53439 0.77237 0.27396 0.0
C1038 C 0.53475 0.73962 0.27544 0.0
C1039 C 0.54075 0.72186 0.25838 0.0
C1040 C 0.52448 0.72336 0.29372 0.0
C1041 C 0.53136 0.79293 0.292 0.0
C1042 C 0.54204 0.69915 0.30202 0.0
C1043 C 0.53036 0.68196 0.31803 0.0
C1044 C 0.50084 0.68863 0.3259 0.0
C1045 C 0.48358 0.71314 0.31764 0.0
C1046 C 0.49517 0.73011 0.30167 0.0
H1047 H 0.54389 0.81517 0.28973 0.0
H1048 H 0.50653 0.7986 0.2944 0.0
H1049 H 0.54056 0.7815 0.30557 0.0
H1050 H 0.56455 0.69328 0.29594 0.0
H1051 H 0.54424 0.66322 0.32403 0.0
H1052 H 0.65349 0.53554 0.18499 0.0
H1053 H 0.68277 0.55508 0.21364 0.0
H1054 H 0.73907 0.47233 0.21315 0.0
H1055 H 0.71067 0.45303 0.18455 0.0
H1056 H 0.68642 0.52957 0.24985 0.0
H1057 H 0.80467 0.5377 0.21956 0.0
H1058 H 0.77096 0.53447 0.20373 0.0
H1059 H 0.78892 0.50024 0.21403 0.0
C1060 C 0.67241 0.52173 0.19083 0.0
C1061 C 0.67972 0.4927 0.18245 0.0
C1062 C 0.68914 0.53297 0.20716 0.0
C1063 C 0.71356 0.51549 0.21526 0.0
C1064 C 0.721 0.4867 0.20679 0.0
H1065 H 0.77192 0.46492 0.32585 0.0
H1066 H 0.74433 0.48111 0.29617 0.0
C1067 C 0.70443 0.47552 0.19052 0.0
C1068 C 0.72945 0.5253 0.23375 0.0
H1069 H 0.80113 0.52565 0.25517 0.0
C1070 C 0.71152 0.5296 0.25094 0.0
C1071 C 0.76218 0.52627 0.23517 0.0
C1072 C 0.78272 0.52479 0.21705 0.0
C1073 C 0.72547 0.53156 0.26974 0.0
C1074 C 0.75804 0.52838 0.27135 0.0
C1075 C 0.77609 0.52743 0.254 0.0
C1076 C 0.77325 0.52122 0.29057 0.0
C1077 C 0.70503 0.53566 0.28775 0.0
C1078 C 0.79918 0.53803 0.29716 0.0
C1079 C 0.81542 0.52853 0.31415 0.0
C1080 C 0.80612 0.50188 0.32467 0.0
C1081 C 0.77976 0.48557 0.31818 0.0
C1082 C 0.76366 0.49503 0.30129 0.0
H1083 H 0.6842 0.54971 0.28403 0.0
H1084 H 0.69686 0.51259 0.29285 0.0
H1085 H 0.71765 0.54708 0.30014 0.0
H1086 H 0.80719 0.55809 0.28895 0.0
H1087 H 0.83567 0.54157 0.31873 0.0
H1088 H 0.97489 0.21716 0.68003 0.0
H1089 H 0.99219 0.24247 0.71025 0.0
H1090 H 0.06484 0.17441 0.71705 0.0
H1091 H 0.0471 0.14822 0.68671 0.0
H1092 H 0.03145 0.18009 0.75031 0.0
H1093 H 0.06324 0.29735 0.72553 0.0
H1094 H 0.02588 0.28773 0.71567 0.0
H1095 H 0.05938 0.26538 0.70834 0.0
C1096 C 0.9949 0.20775 0.68769 0.0
C1097 C 0.00949 0.18052 0.68099 0.0
C1098 C 0.00503 0.22254 0.70491 0.0
C1099 C 0.03019 0.2107 0.71574 0.0
C1100 C 0.04558 0.18411 0.70878 0.0
H1101 H 0.04513 0.32357 0.82386 0.0
H1102 H 0.06459 0.29426 0.79528 0.0
C1103 C 0.03542 0.16921 0.69145 0.0
C1104 C 0.03728 0.22409 0.73552 0.0
H1105 H 0.04089 0.29392 0.75914 0.0
C1106 C 0.03444 0.20489 0.75227 0.0
C1107 C 0.04201 0.25628 0.73817 0.0
C1108 C 0.04816 0.27774 0.72091 0.0
C1109 C 0.03296 0.21747 0.77148 0.0
C1110 C 0.03356 0.25007 0.77386 0.0
C1111 C 0.0397 0.26895 0.75731 0.0
C1112 C 0.02388 0.26521 0.79265 0.0
C1113 C 0.02957 0.19574 0.78891 0.0
C1114 C 0.99457 0.2586 0.80068 0.0
C1115 C 0.98345 0.27515 0.817 0.0
C1116 C 0.00121 0.29907 0.82548 0.0
C1117 C 0.03084 0.30531 0.81767 0.0
C1118 C 0.04204 0.28856 0.80136 0.0
H1119 H 0.04167 0.17342 0.78602 0.0
H1120 H 0.03899 0.20605 0.80278 0.0
H1121 H 0.00463 0.19044 0.79118 0.0
H1122 H 0.97969 0.2414 0.79385 0.0
H1123 H 0.96048 0.26981 0.82253 0.0
H1124 H 0.24881 0.98286 0.66459 0.0
H1125 H 0.21812 0.99536 0.69403 0.0
H1126 H 0.29678 0.04285 0.71948 0.0
H1127 H 0.32713 0.03153 0.68968 0.0
H1128 H 0.23251 0.97146 0.72818 0.0
H1129 H 0.22832 0.09873 0.73783 0.0
H1130 H 0.23953 0.08079 0.71465 0.0
H1131 H 0.26731 0.08525 0.73446 0.0
C1132 C 0.25924 0.99676 0.67622 0.0
C1133 C 0.29039 0.00604 0.67493 0.0
C1134 C 0.24168 0.00394 0.69301 0.0
C1135 C 0.25505 0.02016 0.70897 0.0
C1136 C 0.28566 0.03098 0.70721 0.0
H1137 H 0.22006 0.97944 0.83065 0.0
H1138 H 0.2422 0.99114 0.79813 0.0
C1139 C 0.30309 0.0243 0.69021 0.0
C1140 C 0.23891 0.02108 0.72843 0.0
H1141 H 0.21922 0.068 0.76743 0.0
C1142 C 0.22918 0.99271 0.73656 0.0
C1143 C 0.23442 0.04875 0.73941 0.0
C1144 C 0.24267 0.08012 0.73103 0.0
C1145 C 0.21607 0.99106 0.75553 0.0
C1146 C 0.21334 0.01841 0.76698 0.0
C1147 C 0.22188 0.04702 0.75869 0.0
C1148 C 0.20234 0.01701 0.78776 0.0
C1149 C 0.20548 0.95991 0.76324 0.0
C1150 C 0.17332 0.02922 0.79302 0.0
C1151 C 0.16064 0.02278 0.81173 0.0
C1152 C 0.17682 0.00389 0.82529 0.0
C1153 C 0.20684 0.99368 0.82042 0.0
C1154 C 0.21955 0.00035 0.80187 0.0
H1155 H 0.20161 0.9431 0.75096 0.0
H1156 H 0.22359 0.9502 0.77318 0.0
H1157 H 0.18367 0.96215 0.7719 0.0
H1158 H 0.15978 0.0422 0.7823 0.0
H1159 H 0.13748 0.031 0.81509 0.0
H1160 H 0.44676 0.17677 0.8274 0.0
H1161 H 0.42804 0.20551 0.79829 0.0
H1162 H 0.51654 0.25161 0.79372 0.0
H1163 H 0.53501 0.22395 0.82287 0.0
H1164 H 0.46796 0.29114 0.78696 0.0
H1165 H 0.45538 0.18277 0.74243 0.0
H1166 H 0.43293 0.18577 0.76485 0.0
H1167 H 0.47444 0.18302 0.76629 0.0
C1168 C 0.4621 0.19325 0.82027 0.0
C1169 C 0.4925 0.19782 0.82735 0.0
C1170 C 0.4514 0.20955 0.80361 0.0
C1171 C 0.47106 0.23035 0.79367 0.0
C1172 C 0.50094 0.2357 0.80117 0.0
H1173 H 0.52739 0.28057 0.68406 0.0
H1174 H 0.5086 0.25722 0.71455 0.0
C1175 C 0.51153 0.21971 0.81783 0.0
C1176 C 0.46198 0.24541 0.77475 0.0
H1177 H 0.45363 0.22976 0.72532 0.0
C1178 C 0.46407 0.27786 0.77349 0.0
C1179 C 0.4568 0.22791 0.75726 0.0
C1180 C 0.45489 0.19294 0.75761 0.0
C1181 C 0.46403 0.29307 0.75505 0.0
C1182 C 0.46102 0.27532 0.73747 0.0
C1183 C 0.45595 0.24322 0.73887 0.0
C1184 C 0.46943 0.28825 0.71781 0.0
C1185 C 0.46997 0.32758 0.75448 0.0
C1186 C 0.45323 0.31314 0.7092 0.0
C1187 C 0.4642 0.32693 0.69169 0.0
C1188 C 0.49139 0.31583 0.68252 0.0
C1189 C 0.50655 0.28995 0.69075 0.0
C1190 C 0.49572 0.2764 0.70818 0.0
H1191 H 0.4756 0.33714 0.76939 0.0
H1192 H 0.48945 0.33292 0.74425 0.0
H1193 H 0.449 0.33966 0.74886 0.0
H1194 H 0.43258 0.3223 0.71624 0.0
H1195 H 0.45186 0.34668 0.68564 0.0
H1196 H 0.17214 0.44248 0.6829 0.0
H1197 H 0.20141 0.42428 0.71196 0.0
H1198 H 0.25531 0.50854 0.71127 0.0
H1199 H 0.22713 0.52639 0.68221 0.0
H1200 H 0.29098 0.45733 0.71929 0.0
H1201 H 0.18515 0.4598 0.76693 0.0
H1202 H 0.18471 0.43479 0.74556 0.0
H1203 H 0.18537 0.47612 0.74226 0.0
C1204 C 0.19045 0.45696 0.68885 0.0
C1205 C 0.19704 0.48606 0.68034 0.0
C1206 C 0.20706 0.44656 0.70549 0.0
C1207 C 0.23024 0.46525 0.71394 0.0
C1208 C 0.23756 0.49369 0.70499 0.0
H1209 H 0.29166 0.53065 0.81892 0.0
H1210 H 0.26611 0.51072 0.78948 0.0
C1211 C 0.22124 0.50395 0.68838 0.0
C1212 C 0.2458 0.45702 0.73287 0.0
H1213 H 0.23301 0.4567 0.78291 0.0
C1214 C 0.27837 0.45638 0.73323 0.0
C1215 C 0.22919 0.45568 0.75099 0.0
C1216 C 0.19419 0.45678 0.75159 0.0
C1217 C 0.29481 0.45745 0.75124 0.0
C1218 C 0.27812 0.45844 0.76932 0.0
C1219 C 0.24565 0.45599 0.76898 0.0
C1220 C 0.29303 0.46838 0.78811 0.0
C1221 C 0.32969 0.4603 0.7507 0.0
C1222 C 0.31658 0.451 0.79731 0.0
C1223 C 0.33164 0.46258 0.81425 0.0
C1224 C 0.32317 0.49158 0.82223 0.0
C1225 C 0.29896 0.50831 0.81321 0.0
C1226 C 0.28415 0.49687 0.79637 0.0
H1227 H 0.33872 0.46268 0.7353 0.0
H1228 H 0.33733 0.48073 0.75948 0.0
H1229 H 0.34027 0.43932 0.75744 0.0
H1230 H 0.32349 0.42874 0.79131 0.0
H1231 H 0.35006 0.44902 0.82092 0.0
H1232 H 0.14665 0.67527 0.16538 0.0
H1233 H 0.19161 0.70967 0.16422 0.0
H1234 H 0.21347 0.67649 0.10539 0.0
H1235 H 0.16836 0.64149 0.10663 0.0
H1236 H 0.26685 0.68964 0.13104 0.0
H1237 H 0.18277 0.78688 0.12736 0.0
H1238 H 0.17663 0.76125 0.14805 0.0
H1239 H 0.17177 0.747 0.12312 0.0
C1240 C 0.16175 0.67442 0.15251 0.0
C1241 C 0.15419 0.65567 0.13613 0.0
C1242 C 0.18717 0.69437 0.15176 0.0
C1243 C 0.20528 0.69625 0.13451 0.0
C1244 C 0.19953 0.67555 0.11878 0.0
H1245 H 0.33021 0.85363 0.10984 0.0
H1246 H 0.28618 0.81736 0.10781 0.0
C1247 C 0.17405 0.65531 0.11958 0.0
C1248 C 0.22849 0.72147 0.13257 0.0
H1249 H 0.23556 0.80048 0.13377 0.0
C1250 C 0.26004 0.71385 0.13144 0.0
C1251 C 0.21949 0.7531 0.13267 0.0
C1252 C 0.18581 0.76265 0.13266 0.0
C1253 C 0.28291 0.73706 0.13143 0.0
C1254 C 0.27396 0.76864 0.13287 0.0
C1255 C 0.24237 0.77629 0.13296 0.0
C1256 C 0.29725 0.7937 0.1353 0.0
C1257 C 0.31654 0.72757 0.13004 0.0
C1258 C 0.31671 0.79362 0.15199 0.0
C1259 C 0.34152 0.81424 0.1532 0.0
C1260 C 0.34721 0.83564 0.13786 0.0
C1261 C 0.32611 0.83764 0.12198 0.0
C1262 C 0.30122 0.81672 0.12071 0.0
H1263 H 0.31913 0.70408 0.12345 0.0
H1264 H 0.33 0.74434 0.12097 0.0
H1265 H 0.32672 0.72701 0.14519 0.0
H1266 H 0.31357 0.77659 0.16367 0.0
H1267 H 0.35741 0.81224 0.16563 0.0
H1268 H 0.85141 0.16878 0.10701 0.0
H1269 H 0.81272 0.21075 0.10574 0.0
H1270 H 0.79324 0.19735 0.16799 0.0
H1271 H 0.83123 0.15514 0.16918 0.0
H1272 H 0.74598 0.19398 0.11957 0.0
H1273 H 0.7991 0.29558 0.15752 0.0
H1274 H 0.822 0.26674 0.14464 0.0
H1275 H 0.80551 0.25798 0.16846 0.0
C1276 C 0.83989 0.17584 0.12059 0.0
C1277 C 0.84463 0.15919 0.13829 0.0
C1278 C 0.81753 0.19948 0.1198 0.0
C1279 C 0.80014 0.20707 0.13678 0.0
C1280 C 0.80659 0.19201 0.15478 0.0
H1281 H 0.65282 0.33247 0.16812 0.0
H1282 H 0.69064 0.29013 0.16786 0.0
C1283 C 0.82847 0.16812 0.1555 0.0
C1284 C 0.77291 0.22797 0.13541 0.0
H1285 H 0.74529 0.2979 0.15114 0.0
C1286 C 0.7458 0.21686 0.12628 0.0
C1287 C 0.77272 0.25749 0.14444 0.0
C1288 C 0.80138 0.27042 0.15426 0.0
C1289 C 0.71816 0.23426 0.1264 0.0
C1290 C 0.71789 0.26389 0.13548 0.0
C1291 C 0.74529 0.2751 0.14431 0.0
C1292 C 0.68981 0.28409 0.13591 0.0
C1293 C 0.68934 0.22021 0.11742 0.0
C1294 C 0.67533 0.29364 0.11818 0.0
C1295 C 0.65291 0.31721 0.11844 0.0
C1296 C 0.64504 0.33192 0.13637 0.0
C1297 C 0.65791 0.32092 0.15419 0.0
C1298 C 0.67989 0.29706 0.15399 0.0
H1299 H 0.69079 0.19448 0.11693 0.0
H1300 H 0.66828 0.2269 0.12589 0.0
H1301 H 0.68674 0.22862 0.10192 0.0
H1302 H 0.68298 0.28461 0.10399 0.0
H1303 H 0.64414 0.32605 0.10444 0.0
H1304 H 0.3456 0.67 0.33936 0.0
H1305 H 0.30231 0.70652 0.34095 0.0
H1306 H 0.28261 0.67703 0.40086 0.0
H1307 H 0.32606 0.64005 0.39926 0.0
H1308 H 0.22805 0.69238 0.37492 0.0
H1309 H 0.31837 0.784 0.37785 0.0
H1310 H 0.32243 0.75718 0.35755 0.0
H1311 H 0.32667 0.74361 0.38266 0.0
C1312 C 0.33121 0.67035 0.35257 0.0
C1313 C 0.33906 0.65215 0.36916 0.0
C1314 C 0.30676 0.69149 0.35355 0.0
C1315 C 0.28986 0.69502 0.37119 0.0
C1316 C 0.29561 0.67478 0.38716 0.0
H1317 H 0.17233 0.8565 0.39922 0.0
H1318 H 0.21528 0.81878 0.40023 0.0
C1319 C 0.32013 0.65338 0.38615 0.0
C1320 C 0.26833 0.72166 0.37333 0.0
H1321 H 0.26635 0.801 0.37266 0.0
C1322 C 0.23639 0.71611 0.37462 0.0
C1323 C 0.27936 0.75262 0.3733 0.0
C1324 C 0.3136 0.75985 0.37296 0.0
C1325 C 0.21507 0.74078 0.37492 0.0
C1326 C 0.22603 0.77172 0.37368 0.0
C1327 C 0.25803 0.77729 0.37336 0.0
C1328 C 0.20431 0.79824 0.37173 0.0
C1329 C 0.1809 0.73357 0.37634 0.0
C1330 C 0.18539 0.80043 0.35484 0.0
C1331 C 0.16124 0.82193 0.35419 0.0
C1332 C 0.15572 0.84188 0.37033 0.0
C1333 C 0.17645 0.84175 0.38645 0.0
C1334 C 0.20069 0.81998 0.38714 0.0
H1335 H 0.17676 0.70986 0.38224 0.0
H1336 H 0.16885 0.75059 0.38604 0.0
H1337 H 0.17041 0.73494 0.36129 0.0
H1338 H 0.18819 0.78426 0.34264 0.0
H1339 H 0.14544 0.82144 0.34166 0.0
H1340 H 0.84393 0.33521 0.4026 0.0
H1341 H 0.80655 0.29248 0.40308 0.0
H1342 H 0.79379 0.30196 0.33974 0.0
H1343 H 0.8301 0.34554 0.3395 0.0
H1344 H 0.74019 0.30602 0.35826 0.0
H1345 H 0.80211 0.20311 0.38768 0.0
H1346 H 0.80572 0.23631 0.40357 0.0
H1347 H 0.82234 0.23715 0.37903 0.0
C1348 C 0.83429 0.32706 0.38867 0.0
C1349 C 0.84031 0.34312 0.37094 0.0
C1350 C 0.81275 0.30274 0.38895 0.0
C1351 C 0.79733 0.29382 0.37142 0.0
C1352 C 0.80531 0.30838 0.35345 0.0
H1353 H 0.66123 0.15862 0.33984 0.0
H1354 H 0.69634 0.20326 0.34038 0.0
C1355 C 0.8264 0.33296 0.35325 0.0
C1356 C 0.77032 0.27235 0.3721 0.0
H1357 H 0.74686 0.20021 0.38682 0.0
C1358 C 0.74178 0.28282 0.36441 0.0
C1359 C 0.77218 0.24215 0.38028 0.0
C1360 C 0.80231 0.22888 0.38793 0.0
C1361 C 0.71526 0.26393 0.3646 0.0
C1362 C 0.71718 0.23391 0.37281 0.0
C1363 C 0.74545 0.22349 0.38075 0.0
C1364 C 0.69089 0.21189 0.37185 0.0
C1365 C 0.68528 0.27603 0.35602 0.0
C1366 C 0.67516 0.20294 0.3892 0.0
C1367 C 0.65444 0.17791 0.38879 0.0
C1368 C 0.6497 0.16129 0.3711 0.0
C1369 C 0.66394 0.17159 0.35353 0.0
C1370 C 0.6842 0.19686 0.35387 0.0
H1371 H 0.68628 0.30134 0.35297 0.0
H1372 H 0.68029 0.26377 0.34187 0.0
H1373 H 0.66576 0.27131 0.36636 0.0
H1374 H 0.68024 0.21417 0.40324 0.0
H1375 H 0.64444 0.16979 0.40262 0.0
H1376 H 0.64896 0.16739 0.83793 0.0
H1377 H 0.69352 0.20247 0.8373 0.0
H1378 H 0.70675 0.18816 0.90022 0.0
H1379 H 0.66292 0.15203 0.9006 0.0
H1380 H 0.69214 0.25591 0.85646 0.0
H1381 H 0.79521 0.19039 0.88232 0.0
H1382 H 0.76006 0.17133 0.87438 0.0
H1383 H 0.76294 0.18736 0.89902 0.0
C1384 C 0.66251 0.17045 0.85136 0.0
C1385 C 0.65306 0.15648 0.86921 0.0
C1386 C 0.68767 0.19085 0.85108 0.0
C1387 C 0.70359 0.19809 0.86871 0.0
C1388 C 0.69539 0.18253 0.88633 0.0
H1389 H 0.82831 0.35225 0.8973 0.0
H1390 H 0.78331 0.31715 0.89802 0.0
C1391 C 0.67045 0.16168 0.88653 0.0
C1392 C 0.72587 0.2245 0.869 0.0
H1393 H 0.79977 0.24551 0.88156 0.0
C1394 C 0.71571 0.25351 0.86188 0.0
C1395 C 0.7566 0.22157 0.8762 0.0
C1396 C 0.76948 0.19092 0.88323 0.0
C1397 C 0.73541 0.27945 0.86167 0.0
C1398 C 0.76594 0.27646 0.86891 0.0
C1399 C 0.77611 0.24771 0.87625 0.0
C1400 C 0.78858 0.30217 0.86753 0.0
C1401 C 0.72376 0.30992 0.85359 0.0
C1402 C 0.80543 0.30623 0.84991 0.0
C1403 C 0.83098 0.32612 0.84949 0.0
C1404 C 0.83987 0.34256 0.86661 0.0
C1405 C 0.82142 0.34047 0.88377 0.0
C1406 C 0.79603 0.32015 0.88427 0.0
H1407 H 0.69859 0.30924 0.85006 0.0
H1408 H 0.7281 0.32872 0.86453 0.0
H1409 H 0.73673 0.31579 0.83984 0.0
H1410 H 0.80008 0.29245 0.83688 0.0
H1411 H 0.8452 0.32689 0.83622 0.0
H1412 H 0.36035 0.67027 0.89682 0.0
H1413 H 0.32371 0.714 0.89903 0.0
H1414 H 0.28458 0.68815 0.8424 0.0
H1415 H 0.32051 0.64445 0.84034 0.0
H1416 H 0.30693 0.76525 0.87474 0.0
H1417 H 0.21088 0.68055 0.88083 0.0
H1418 H 0.25111 0.66959 0.88335 0.0
H1419 H 0.23429 0.67471 0.85909 0.0
C1420 C 0.34466 0.67467 0.88456 0.0
C1421 C 0.34318 0.65404 0.86842 0.0
C1422 C 0.32351 0.69939 0.88592 0.0
C1423 C 0.30079 0.70367 0.87116 0.0
C1424 C 0.30132 0.68475 0.85422 0.0
H1425 H 0.18232 0.8565 0.84423 0.0
H1426 H 0.21853 0.81295 0.84485 0.0
C1427 C 0.32213 0.66005 0.85293 0.0
C1428 C 0.2754 0.72664 0.87371 0.0
H1429 H 0.1963 0.73318 0.87432 0.0
C1430 C 0.28277 0.75824 0.87484 0.0
C1431 C 0.24384 0.71743 0.87431 0.0
C1432 C 0.2345 0.6837 0.87455 0.0
C1433 C 0.2594 0.78096 0.87552 0.0
C1434 C 0.22783 0.77182 0.8747 0.0
C1435 C 0.22046 0.74017 0.87462 0.0
C1436 C 0.20243 0.79498 0.87303 0.0
C1437 C 0.26874 0.81461 0.87703 0.0
C1438 C 0.17972 0.79794 0.88793 0.0
C1439 C 0.15841 0.82261 0.88739 0.0
C1440 C 0.15971 0.84449 0.87194 0.0
C1441 C 0.18084 0.83992 0.85631 0.0
C1442 C 0.2018 0.81529 0.85677 0.0
H1443 H 0.2924 0.81717 0.88338 0.0
H1444 H 0.26888 0.82501 0.86194 0.0
H1445 H 0.25218 0.82789 0.88638 0.0
H1446 H 0.1796 0.78225 0.90051 0.0
H1447 H 0.14265 0.8259 0.89975 0.0
H1448 H 0.82862 0.13579 0.61138 0.0
H1449 H 0.78448 0.17205 0.61021 0.0
H1450 H 0.81223 0.21015 0.66676 0.0
H1451 H 0.85633 0.17459 0.66778 0.0
H1452 H 0.734 0.18838 0.63575 0.0
H1453 H 0.8187 0.28428 0.62825 0.0
H1454 H 0.82935 0.24403 0.62531 0.0
H1455 H 0.82541 0.26052 0.64975 0.0
C1456 C 0.82451 0.15111 0.62387 0.0
C1457 C 0.84576 0.15245 0.63968 0.0
C1458 C 0.79956 0.17204 0.6231 0.0
C1459 C 0.79571 0.1944 0.63812 0.0
C1460 C 0.81526 0.19365 0.65477 0.0
H1461 H 0.64408 0.31366 0.66694 0.0
H1462 H 0.68781 0.27767 0.66617 0.0
C1463 C 0.84018 0.17305 0.65547 0.0
C1464 C 0.7727 0.21983 0.63605 0.0
H1465 H 0.76636 0.29894 0.63538 0.0
C1466 C 0.74105 0.21253 0.6355 0.0
C1467 C 0.78198 0.25136 0.63526 0.0
C1468 C 0.81572 0.26058 0.63446 0.0
C1469 C 0.71838 0.23596 0.63516 0.0
C1470 C 0.72766 0.2675 0.63573 0.0
C1471 C 0.75931 0.27479 0.63529 0.0
C1472 C 0.70464 0.29298 0.63752 0.0
C1473 C 0.68465 0.22672 0.63426 0.0
C1474 C 0.70107 0.31521 0.62238 0.0
C1475 C 0.67631 0.33637 0.62299 0.0
C1476 C 0.65494 0.3354 0.63874 0.0
C1477 C 0.66024 0.31487 0.65462 0.0
C1478 C 0.68496 0.29404 0.65408 0.0
H1479 H 0.68174 0.20292 0.62819 0.0
H1480 H 0.67481 0.22702 0.64949 0.0
H1481 H 0.67111 0.24313 0.62493 0.0
H1482 H 0.71628 0.31498 0.60957 0.0
H1483 H 0.67247 0.35167 0.61045 0.0
H1484 H 0.35213 0.82741 0.61127 0.0
H1485 H 0.31787 0.78175 0.61098 0.0
H1486 H 0.28062 0.80888 0.66786 0.0
H1487 H 0.31424 0.85449 0.66803 0.0
H1488 H 0.30402 0.73096 0.6373 0.0
H1489 H 0.20535 0.81269 0.62978 0.0
H1490 H 0.24518 0.8244 0.62632 0.0
H1491 H 0.22952 0.8204 0.65096 0.0
C1492 C 0.33757 0.82282 0.62406 0.0
C1493 C 0.33584 0.84432 0.63971 0.0
C1494 C 0.31774 0.797 0.62377 0.0
C1495 C 0.29608 0.79251 0.63913 0.0
C1496 C 0.29661 0.81234 0.65564 0.0
H1497 H 0.18153 0.63676 0.6678 0.0
H1498 H 0.21547 0.68212 0.66765 0.0
C1499 C 0.31614 0.83812 0.65586 0.0
C1500 C 0.27137 0.76869 0.63743 0.0
H1501 H 0.19249 0.75995 0.63676 0.0
C1502 C 0.27966 0.73727 0.63704 0.0
C1503 C 0.23956 0.77701 0.63665 0.0
C1504 C 0.22929 0.81046 0.63574 0.0
C1505 C 0.25696 0.7139 0.63678 0.0
C1506 C 0.22514 0.72222 0.63724 0.0
C1507 C 0.21685 0.75364 0.63673 0.0
C1508 C 0.20039 0.69841 0.63881 0.0
C1509 C 0.26725 0.68045 0.63601 0.0
C1510 C 0.17886 0.69394 0.62335 0.0
C1511 C 0.15885 0.66825 0.62362 0.0
C1512 C 0.16028 0.64687 0.63935 0.0
C1513 C 0.17991 0.65302 0.65555 0.0
C1514 C 0.1996 0.67866 0.65535 0.0
H1515 H 0.29128 0.67821 0.63021 0.0
H1516 H 0.26683 0.6706 0.65125 0.0
H1517 H 0.2515 0.66644 0.62652 0.0
H1518 H 0.17891 0.70915 0.61053 0.0
H1519 H 0.14431 0.66372 0.61081 0.0
H1520 H 0.95415 0.47736 0.91839 0.0
H1521 H 0.97741 0.50633 0.94602 0.0
H1522 H 0.94039 0.4399 0.9876 0.0
H1523 H 0.91721 0.41086 0.96014 0.0
H1524 H 0.93974 0.50358 1.00121 0.0
H1525 H 0.05428 0.46419 0.9732 0.0
H1526 H 0.03147 0.48581 0.95558 0.0
H1527 H 0.01822 0.44859 0.96404 0.0
C1528 C 0.94989 0.46965 0.93347 0.0
C1529 C 0.9339 0.4418 0.93711 0.0
C1530 C 0.96358 0.48597 0.94922 0.0
C1531 C 0.9612 0.47481 0.96879 0.0
C1532 C 0.94272 0.44874 0.9726 0.0
H1533 H 0.04099 0.52027 0.08431 0.0
H1534 H 0.01731 0.49265 0.05626 0.0
C1535 C 0.92932 0.43229 0.9569 0.0
C1536 C 0.98004 0.48842 0.98507 0.0
H1537 H 0.05472 0.49697 1.00137 0.0
C1538 C 0.96486 0.50217 1.00126 0.0
C1539 C 0.01282 0.48619 0.98518 0.0
C1540 C 0.03025 0.47018 0.96866 0.0
C1541 C 0.98164 0.51429 0.0174 0.0
C1542 C 0.01442 0.51208 0.01753 0.0
C1543 C 0.02961 0.49842 1.0013 0.0
C1544 C 0.0332 0.52523 0.03401 0.0
C1545 C 0.96424 0.52994 0.03404 0.0
C1546 C 0.05156 0.55151 0.03062 0.0
C1547 C 0.06523 0.56719 0.04656 0.0
C1548 C 0.06103 0.5567 0.0662 0.0
C1549 C 0.04496 0.52876 0.06937 0.0
C1550 C 0.03104 0.5132 0.05338 0.0
H1551 H 0.9397 0.53474 0.03003 0.0
H1552 H 0.96447 0.51463 0.04729 0.0
H1553 H 0.97561 0.55215 0.03815 0.0
H1554 H 0.05373 0.56103 0.01578 0.0
H1555 H 0.07741 0.58869 0.04366 0.0
H1556 H 0.01675 0.9488 0.9245 0.0
H1557 H 0.99147 0.97487 0.95258 0.0
H1558 H 0.06254 0.94075 0.99202 0.0
H1559 H 0.08801 0.91487 0.9641 0.0
H1560 H 0.97007 0.95546 0.99176 0.0
H1561 H 0.06976 0.03682 0.99496 0.0
H1562 H 0.06399 0.01032 0.97454 0.0
H1563 H 0.08003 0.99661 0.99756 0.0
C1564 C 0.02636 0.94588 0.93926 0.0
C1565 C 0.05445 0.92981 0.94206 0.0
C1566 C 0.01205 0.96107 0.95527 0.0
C1567 C 0.02559 0.96038 0.97427 0.0
C1568 C 0.05209 0.94213 0.97739 0.0
H1569 H 0.98447 0.05059 0.08716 0.0
H1570 H 0.01014 0.02377 0.05952 0.0
C1571 C 0.06642 0.92708 0.96145 0.0
C1572 C 0.01331 0.98023 0.99053 0.0
H1573 H 0.03189 0.04175 0.02039 0.0
C1574 C 0.98351 0.97439 0.99797 0.0
C1575 C 0.03098 0.00488 0.99867 0.0
C1576 C 0.06286 0.01279 0.99094 0.0
C1577 C 0.97108 0.99223 0.01355 0.0
C1578 C 0.98862 0.01706 0.02156 0.0
C1579 C 0.01847 0.02281 0.01418 0.0
C1580 C 0.97606 0.03728 0.03754 0.0
C1581 C 0.93947 0.98398 0.02158 0.0
C1582 C 0.94947 0.05523 0.03409 0.0
C1583 C 0.93491 0.07071 0.04977 0.0
C1584 C 0.94673 0.06868 0.06924 0.0
C1585 C 0.97491 0.0529 0.07234 0.0
C1586 C 0.98945 0.03729 0.05659 0.0
H1587 H 0.93277 0.95985 0.01767 0.0
H1588 H 0.93878 0.98651 0.038 0.0
H1589 H 0.92193 -8e-05 0.01512 0.0
H1590 H 0.93914 0.05609 0.01941 0.0
H1591 H 0.9133 0.08274 0.04687 0.0
H1592 H 0.54161 0.02094 0.92126 0.0
H1593 H 0.51949 0.99227 0.94937 0.0
H1594 H 0.55876 0.0587 0.99011 0.0
H1595 H 0.58083 0.08744 0.96216 0.0
H1596 H 0.55834 0.99569 0.00457 0.0
H1597 H 0.44475 0.03743 0.97702 0.0
H1598 H 0.46482 0.01347 0.9593 0.0
H1599 H 0.48093 0.05025 0.96654 0.0
C1600 C 0.54666 0.02868 0.93624 0.0
C1601 C 0.56284 0.05653 0.9395 0.0
C1602 C 0.53367 0.01251 0.95227 0.0
C1603 C 0.53693 0.02379 0.97177 0.0
C1604 C 0.55577 0.04973 0.97518 0.0
H1605 H 0.45437 0.97794 0.08688 0.0
H1606 H 0.4789 0.00613 0.05938 0.0
C1607 C 0.5685 0.06604 0.95919 0.0
C1608 C 0.51813 0.01082 0.98828 0.0
H1609 H 0.44337 0.00246 0.00437 0.0
C1610 C 0.53323 0.99719 0.00457 0.0
C1611 C 0.48537 0.01334 0.98839 0.0
C1612 C 0.46799 0.02967 0.97196 0.0
C1613 C 0.51633 0.98516 0.02071 0.0
C1614 C 0.48354 0.98718 0.02062 0.0
C1615 C 0.46849 0.00101 0.00441 0.0
C1616 C 0.46454 0.97346 0.03677 0.0
C1617 C 0.53359 0.96964 0.03751 0.0
C1618 C 0.44676 0.9469 0.03295 0.0
C1619 C 0.43262 0.93089 0.04857 0.0
C1620 C 0.43572 0.94134 0.06829 0.0
C1621 C 0.45122 0.9695 0.07185 0.0
C1622 C 0.46564 0.98537 0.05619 0.0
H1623 H 0.55842 0.96577 0.03386 0.0
H1624 H 0.53235 0.98445 0.05098 0.0
H1625 H 0.52278 0.94697 0.04118 0.0
H1626 H 0.4454 0.93749 0.01804 0.0
H1627 H 0.42095 0.90921 0.04537 0.0
H1628 H 0.57754 0.40733 0.04539 0.0
H1629 H 0.55207 0.43301 0.01738 0.0
H1630 H 0.48639 0.47496 0.05754 0.0
H1631 H 0.51144 0.44882 0.08566 0.0
H1632 H 0.46012 0.45769 0.02099 0.0
H1633 H 0.5677 0.52599 0.01025 0.0
H1634 H 0.57359 0.48491 0.00799 0.0
H1635 H 0.56188 0.50108 0.03145 0.0
C1636 C 0.55705 0.42124 0.04819 0.0
C1637 C 0.54657 0.42611 0.06775 0.0
C1638 C 0.54276 0.43621 0.03219 0.0
C1639 C 0.51796 0.45667 0.03545 0.0
C1640 C 0.50572 0.45951 0.05472 0.0
H1641 H 0.41203 0.58345 0.96067 0.0
H1642 H 0.43584 0.55658 0.98884 0.0
C1643 C 0.51987 0.44429 0.07077 0.0
C1644 C 0.50619 0.47652 0.019 0.0
H1645 H 0.52835 0.53239 0.98581 0.0
C1646 C 0.47499 0.47408 0.01333 0.0
C1647 C 0.5256 0.49807 0.00909 0.0
C1648 C 0.55897 0.50296 0.0151 0.0
C1649 C 0.46281 0.49206 0.99772 0.0
C1650 C 0.48228 0.51349 0.98772 0.0
C1651 C 0.51347 0.51596 0.99344 0.0
C1652 C 0.47074 0.53331 0.97118 0.0
C1653 C 0.42928 0.48748 0.99198 0.0
C1654 C 0.4839 0.53102 0.95212 0.0
C1655 C 0.47073 0.54693 0.93602 0.0
C1656 C 0.4441 0.56533 0.93873 0.0
C1657 C 0.43251 0.56942 0.95811 0.0
C1658 C 0.44582 0.55374 0.97418 0.0
H1659 H 0.42075 0.46417 0.99641 0.0
H1660 H 0.41488 0.50507 0.99973 0.0
H1661 H 0.42576 0.49029 0.97575 0.0
H1662 H 0.50333 0.51561 0.94949 0.0
H1663 H 0.47999 0.54294 0.92127 0.0
H1664 H 0.92323 0.08232 0.54724 0.0
H1665 H 0.9526 0.05704 0.52076 0.0
H1666 H 0.9844 0.98768 0.5622 0.0
H1667 H 0.955 0.01285 0.58888 0.0
H1668 H 0.01909 0.04965 0.52313 0.0
H1669 H 0.95735 0.93766 0.51212 0.0
H1670 H 0.93927 0.97069 0.5239 0.0
H1671 H 0.96689 0.94765 0.53736 0.0
C1672 C 0.93573 0.06116 0.55064 0.0
C1673 C 0.93666 0.04959 0.5702 0.0
C1674 C 0.95271 0.04689 0.5355 0.0
C1675 C 0.97076 0.02058 0.53952 0.0
C1676 C 0.97034 0.00779 0.55873 0.0
H1677 H 0.08875 0.90909 0.46377 0.0
H1678 H 0.06829 0.93583 0.49296 0.0
C1679 C 0.95333 0.02211 0.57395 0.0
C1680 C 0.99156 0.00798 0.5239 0.0
H1681 H 0.0037 0.94504 0.49415 0.0
C1682 C 0.01577 0.02677 0.51677 0.0
C1683 C 0.98729 0.97809 0.51576 0.0
C1684 C 0.96119 0.95732 0.52251 0.0
C1685 C 0.03585 0.01641 0.50169 0.0
C1686 C 0.03124 0.98672 0.49331 0.0
C1687 C 0.00727 0.9678 0.50064 0.0
C1688 C 0.05013 0.97487 0.47647 0.0
C1689 C 0.06203 0.03708 0.495 0.0
C1690 C 0.04823 0.98879 0.45761 0.0
C1691 C 0.06021 0.97362 0.44083 0.0
C1692 C 0.07392 0.94416 0.4427 0.0
C1693 C 0.07834 0.93178 0.46186 0.0
C1694 C 0.06647 0.94693 0.47856 0.0
H1695 H 0.06715 0.05546 0.5061 0.0
H1696 H 0.08344 0.02335 0.49234 0.0
H1697 H 0.05547 0.04849 0.48082 0.0
H1698 H 0.0354 0.01018 0.45562 0.0
H1699 H 0.05601 0.98353 0.42628 0.0
H1700 H 0.45176 0.98306 0.58969 0.0
H1701 H 0.47648 0.01108 0.56249 0.0
H1702 H 0.46083 0.93287 0.52363 0.0
H1703 H 0.43341 0.90604 0.55054 0.0
H1704 H 0.52175 0.00869 0.54096 0.0
H1705 H 0.42309 0.9954 0.48956 0.0
H1706 H 0.42112 0.98262 0.51501 0.0
H1707 H 0.43776 0.95793 0.4961 0.0
C1708 C 0.45428 0.97158 0.57544 0.0
C1709 C 0.44104 0.94226 0.57223 0.0
C1710 C 0.46818 0.98775 0.55979 0.0
C1711 C 0.46968 0.9747 0.54064 0.0
C1712 C 0.45873 0.94421 0.53791 0.0
H1713 H 0.59763 0.03612 0.45252 0.0
H1714 H 0.56961 0.01516 0.48053 0.0
C1715 C 0.44377 0.92849 0.55342 0.0
C1716 C 0.48256 0.99312 0.5237 0.0
H1717 H 0.47124 0.01156 0.47474 0.0
C1718 C 0.51035 0.00953 0.52659 0.0
C1719 C 0.46739 0.99551 0.505 0.0
C1720 C 0.43551 0.98224 0.50133 0.0
C1721 C 0.5239 0.02701 0.51129 0.0
C1722 C 0.51049 0.02659 0.49204 0.0
C1723 C 0.48202 0.0114 0.48931 0.0
C1724 C 0.52686 0.03973 0.4744 0.0
C1725 C 0.55226 0.04611 0.51616 0.0
C1726 C 0.51176 0.05926 0.46062 0.0
C1727 C 0.52767 0.07067 0.44388 0.0
C1728 C 0.55904 0.06312 0.4409 0.0
C1729 C 0.57376 0.0433 0.45461 0.0
C1730 C 0.55777 0.03135 0.47084 0.0
H1731 H 0.55154 0.05431 0.53182 0.0
H1732 H 0.5733 0.03149 0.51453 0.0
H1733 H 0.55437 0.06664 0.50629 0.0
H1734 H 0.48772 0.06572 0.46283 0.0
H1735 H 0.51563 0.08551 0.43342 0.0
H1736 H 0.55541 0.47892 0.58497 0.0
H1737 H 0.53052 0.50714 0.55762 0.0
H1738 H 0.55262 0.43226 0.51754 0.0
H1739 H 0.57823 0.40448 0.54451 0.0
H1740 H 0.55716 0.48791 0.49928 0.0
H1741 H 0.44502 0.48045 0.5396 0.0
H1742 H 0.47492 0.50084 0.55273 0.0
H1743 H 0.47931 0.46008 0.54783 0.0
C1744 C 0.55591 0.46896 0.5702 0.0
C1745 C 0.56854 0.43927 0.56699 0.0
C1746 C 0.54118 0.48487 0.55464 0.0
C1747 C 0.53871 0.47129 0.53569 0.0
C1748 C 0.5538 0.44302 0.53208 0.0
H1749 H 0.4464 0.51546 0.42297 0.0
H1750 H 0.47106 0.48701 0.45031 0.0
C1751 C 0.56857 0.4272 0.54754 0.0
C1752 C 0.51905 0.48529 0.51985 0.0
H1753 H 0.44448 0.50614 0.50869 0.0
C1754 C 0.53252 0.49188 0.50133 0.0
C1755 C 0.4868 0.49024 0.52247 0.0
C1756 C 0.47052 0.48229 0.54166 0.0
C1757 C 0.51485 0.50381 0.4855 0.0
C1758 C 0.4826 0.50874 0.48812 0.0
C1759 C 0.46912 0.50215 0.50664 0.0
C1760 C 0.46296 0.52281 0.4723 0.0
C1761 C 0.53114 0.51183 0.46632 0.0
C1762 C 0.44795 0.55111 0.47593 0.0
C1763 C 0.43332 0.56705 0.46048 0.0
C1764 C 0.4334 0.55508 0.441 0.0
C1765 C 0.44588 0.52534 0.43776 0.0
C1766 C 0.46048 0.5093 0.45332 0.0
H1767 H 0.55665 0.51358 0.46834 0.0
H1768 H 0.52663 0.49338 0.4552 0.0
H1769 H 0.52241 0.53411 0.46023 0.0
H1770 H 0.44913 0.56182 0.49049 0.0
H1771 H 0.42376 0.58981 0.46353 0.0
H1772 H 0.02158 0.53994 0.58578 0.0
H1773 H 0.99345 0.5172 0.55762 0.0
H1774 H 0.06264 0.55257 0.51734 0.0
H1775 H 0.09089 0.57515 0.54531 0.0
H1776 H 0.97031 0.53931 0.5191 0.0
H1777 H 0.06814 0.45602 0.51286 0.0
H1778 H 0.06298 0.4811 0.53408 0.0
H1779 H 0.07924 0.49615 0.51148 0.0
C1780 C 0.03011 0.54396 0.57086 0.0
C1781 C 0.05857 0.55916 0.56778 0.0
C1782 C 0.01419 0.53067 0.5548 0.0
C1783 C 0.02648 0.5325 0.53549 0.0
C1784 C 0.05315 0.55034 0.53218 0.0
H1785 H 0.97906 0.45214 0.42103 0.0
H1786 H 0.00667 0.4755 0.44921 0.0
C1787 C 0.06908 0.5635 0.54817 0.0
C1788 C 0.01313 0.5137 0.51911 0.0
H1789 H 0.02956 0.45347 0.4877 0.0
C1790 C 0.98318 0.52048 0.51228 0.0
C1791 C 0.02999 0.48906 0.51028 0.0
C1792 C 0.06178 0.47987 0.51762 0.0
C1793 C 0.96987 0.50369 0.49653 0.0
C1794 C 0.98676 0.4791 0.48766 0.0
C1795 C 0.0167 0.4723 0.49451 0.0
C1796 C 0.97346 0.46031 0.47126 0.0
C1797 C 0.93801 0.51277 0.48928 0.0
C1798 C 0.94682 0.44241 0.47453 0.0
C1799 C 0.93119 0.4289 0.45854 0.0
C1800 C 0.94197 0.43293 0.43896 0.0
C1801 C 0.97032 0.44835 0.43593 0.0
C1802 C 0.98594 0.46199 0.452 0.0
H1803 H 0.93171 0.5367 0.49391 0.0
H1804 H 0.93659 0.51126 0.47284 0.0
H1805 H 0.92062 0.4966 0.49563 0.0
H1806 H 0.93719 0.44028 0.48934 0.0
H1807 H 0.90947 0.41706 0.46137 0.0
H1808 H 0.9669 0.50819 0.33422 0.0
H1809 H 0.99257 0.51701 0.3024 0.0
H1810 H 0.97227 0.4231 0.2847 0.0
H1811 H 0.94678 0.41385 0.31694 0.0
H1812 H 0.03378 0.44966 0.27091 0.0
H1813 H 0.9311 0.52303 0.25432 0.0
H1814 H 0.95057 0.53272 0.2771 0.0
H1815 H 0.9318 0.49569 0.27462 0.0
C1816 C 0.96855 0.48911 0.32378 0.0
C1817 C 0.95452 0.46041 0.328 0.0
C1818 C 0.98324 0.49422 0.30559 0.0
C1819 C 0.98387 0.47091 0.29106 0.0
C1820 C 0.972 0.44142 0.29572 0.0
H1821 H 0.98991 0.5253 0.16752 0.0
H1822 H 0.97968 0.49685 0.19817 0.0
C1823 C 0.9575 0.43614 0.31414 0.0
C1824 C 0.99332 0.47893 0.27042 0.0
H1825 H 0.97311 0.52617 0.23184 0.0
C1826 C 0.02045 0.46617 0.26224 0.0
C1827 C 0.97569 0.50016 0.25904 0.0
C1828 C 0.94551 0.51353 0.26659 0.0
C1829 C 0.03082 0.47481 0.24311 0.0
C1830 C 0.01378 0.49707 0.23208 0.0
C1831 C 0.98632 0.50919 0.24022 0.0
C1832 C 0.02343 0.50855 0.21207 0.0
C1833 C 0.05966 0.45981 0.23485 0.0
C1834 C 0.05207 0.52359 0.20919 0.0
C1835 C 0.05824 0.53945 0.19135 0.0
C1836 C 0.03558 0.54102 0.17635 0.0
C1837 C 0.00778 0.52451 0.17885 0.0
C1838 C 0.00188 0.50829 0.1964 0.0
H1839 H 0.06447 0.43721 0.24218 0.0
H1840 H 0.05761 0.45601 0.21858 0.0
H1841 H 0.0798 0.47524 0.23759 0.0
H1842 H 0.06886 0.52476 0.22113 0.0
H1843 H 0.07967 0.55234 0.18993 0.0
H1844 H 0.99554 0.97628 0.33708 0.0
H1845 H 0.98796 0.00303 0.30549 0.0
H1846 H 0.08256 0.98333 0.28911 0.0
H1847 H 0.0905 0.95647 0.32106 0.0
H1848 H 0.05219 0.04813 0.27688 0.0
H1849 H 0.98888 0.94085 0.25552 0.0
H1850 H 0.9782 0.95755 0.27904 0.0
H1851 H 0.01642 0.9418 0.27574 0.0
C1852 C 0.01505 0.97829 0.32701 0.0
C1853 C 0.04356 0.96398 0.33151 0.0
C1854 C 0.01066 0.99366 0.30896 0.0
C1855 C 0.03457 0.99491 0.29488 0.0
C1856 C 0.06383 0.98269 0.29983 0.0
H1857 H 0.98779 0.00585 0.17013 0.0
H1858 H 0.01546 0.99603 0.20115 0.0
C1859 C 0.06836 0.96741 0.31809 0.0
C1860 C 0.02729 0.00508 0.27428 0.0
H1861 H 0.98467 0.98359 0.23382 0.0
C1862 C 0.0377 0.03398 0.26732 0.0
C1863 C 0.00857 0.98648 0.26181 0.0
C1864 C 0.99749 0.95482 0.26826 0.0
C1865 C 0.02921 0.04502 0.24831 0.0
C1866 C 0.0095 0.02682 0.23612 0.0
C1867 C -0.00026 0.99766 0.24306 0.0
C1868 C 0.99827 0.037 0.21614 0.0
C1869 C 0.04161 0.07588 0.24142 0.0
C1870 C 0.98037 0.06411 0.21378 0.0
C1871 C 0.96493 0.07011 0.19576 0.0
C1872 C 0.9667 0.04878 0.18 0.0
C1873 C 0.98605 0.02272 0.18202 0.0
C1874 C 0.0018 0.01703 0.1998 0.0
H1875 H 0.06307 0.08237 0.24956 0.0
H1876 H 0.04666 0.07558 0.22523 0.0
H1877 H 0.02396 0.09409 0.24428 0.0
H1878 H 0.97667 0.0796 0.22622 0.0
H1879 H 0.94976 0.09009 0.19471 0.0
H1880 H 0.5308 0.99173 0.3339 0.0
H1881 H 0.50405 0.98288 0.30246 0.0
H1882 H 0.51443 0.07948 0.28737 0.0
H1883 H 0.54118 0.0887 0.31924 0.0
H1884 H 0.45318 0.04565 0.27504 0.0
H1885 H 0.56335 0.98908 0.25215 0.0
H1886 H 0.54783 0.97599 0.27548 0.0
H1887 H 0.56105 0.01531 0.27302 0.0
C1888 C 0.52679 0.01132 0.32414 0.0
C1889 C 0.53842 0.04086 0.32896 0.0
C1890 C 0.51143 0.0062 0.30617 0.0
C1891 C 0.50759 0.0304 0.29248 0.0
C1892 C 0.51714 0.06048 0.29777 0.0
H1893 H 0.49603 0.98251 0.16793 0.0
H1894 H 0.50515 0.01137 0.19859 0.0
C1895 C 0.53237 0.06573 0.31597 0.0
C1896 C 0.4974 0.02298 0.27191 0.0
H1897 H 0.52007 0.98186 0.23111 0.0
C1898 C 0.46784 0.03201 0.26528 0.0
C1899 C 0.51668 0.00542 0.25916 0.0
C1900 C 0.54911 0.99605 0.26517 0.0
C1901 C 0.45677 0.02312 0.24636 0.0
C1902 C 0.47564 0.0044 0.23394 0.0
C1903 C 0.50547 0.99615 0.24052 0.0
C1904 C 0.46545 0.99253 0.21413 0.0
C1905 C 0.42515 0.03401 0.23981 0.0
C1906 C 0.43921 0.97331 0.21219 0.0
C1907 C 0.43356 0.95722 0.19437 0.0
C1908 C 0.45444 0.95967 0.17841 0.0
C1909 C 0.47953 0.98029 0.17999 0.0
C1910 C 0.48481 0.99671 0.19756 0.0
H1911 H 0.41794 0.05526 0.24795 0.0
H1912 H 0.42467 0.03889 0.2236 0.0
H1913 H 0.40789 0.0156 0.24301 0.0
H1914 H 0.42424 0.9691 0.22482 0.0
H1915 H 0.41437 0.94106 0.19365 0.0
H1916 H 0.41142 0.54712 0.31802 0.0
H1917 H 0.42093 0.51881 0.28689 0.0
H1918 H 0.51225 0.49386 0.30774 0.0
H1919 H 0.50327 0.52294 0.3383 0.0
H1920 H 0.51561 0.52208 0.27333 0.0
H1921 H 0.42623 0.43023 0.26741 0.0
H1922 H 0.41035 0.46812 0.27181 0.0
H1923 H 0.43435 0.4502 0.29044 0.0
C1924 C 0.43311 0.53477 0.31615 0.0
C1925 C 0.45666 0.53734 0.33052 0.0
C1926 C 0.43853 0.51849 0.29837 0.0
C1927 C 0.46733 0.50402 0.2949 0.0
C1928 C 0.4899 0.50484 0.30995 0.0
H1929 H 0.54132 0.40505 0.19111 0.0
H1930 H 0.51667 0.41573 0.22344 0.0
C1931 C 0.48472 0.52145 0.32746 0.0
C1932 C 0.4759 0.49185 0.27486 0.0
H1933 H 0.45504 0.44152 0.23777 0.0
C1934 C 0.50242 0.50425 0.26571 0.0
C1935 C 0.45887 0.46849 0.26482 0.0
C1936 C 0.43103 0.45324 0.27418 0.0
C1937 C 0.51218 0.49436 0.24687 0.0
C1938 C 0.49457 0.4719 0.23649 0.0
C1939 C 0.46834 0.45895 0.24567 0.0
C1940 C 0.5032 0.46265 0.21592 0.0
C1941 C 0.54146 0.50807 0.23823 0.0
C1942 C 0.50243 0.48489 0.20071 0.0
C1943 C 0.51664 0.47897 0.18246 0.0
C1944 C 0.53153 0.45048 0.17886 0.0
C1945 C 0.52985 0.42711 0.19342 0.0
C1946 C 0.51585 0.43323 0.2119 0.0
H1947 H 0.55622 0.51888 0.24987 0.0
H1948 H 0.5553 0.49009 0.2304 0.0
H1949 H 0.53519 0.52632 0.22731 0.0
H1950 H 0.49249 0.5076 0.2034 0.0
H1951 H 0.51739 0.49736 0.17149 0.0
H1952 H 0.05101 0.47851 0.68069 0.0
H1953 H 0.01992 0.47339 0.71049 0.0
H1954 H 0.00454 0.57223 0.71137 0.0
H1955 H 0.03665 0.57777 0.68133 0.0
H1956 H 0.02208 0.55157 0.74728 0.0
H1957 H 0.9286 0.47525 0.72092 0.0
H1958 H 0.96526 0.45874 0.71422 0.0
H1959 H 0.95381 0.4957 0.70396 0.0
C1960 C 0.04078 0.49928 0.68695 0.0
C1961 C 0.04649 0.52863 0.67852 0.0
C1962 C 0.0226 0.49621 0.70398 0.0
C1963 C 0.00922 0.52228 0.71304 0.0
C1964 C 0.01431 0.55168 0.70453 0.0
H1965 H 0.91137 0.45868 0.82134 0.0
H1966 H 0.91808 0.48921 0.79067 0.0
C1967 C 0.03263 0.55482 0.68734 0.0
C1968 C 0.99271 0.51849 0.73237 0.0
H1969 H 0.9426 0.46957 0.75613 0.0
C1970 C 0.0041 0.53422 0.74913 0.0
C1971 C 0.96862 0.4965 0.73492 0.0
C1972 C 0.95315 0.4809 0.71747 0.0
C1973 C 0.99424 0.52638 0.76842 0.0
C1974 C 0.973 0.50165 0.77108 0.0
C1975 C 0.95935 0.48809 0.75423 0.0
C1976 C 0.96824 0.48661 0.79081 0.0
C1977 C 0.00756 0.54403 0.78579 0.0
C1978 C 0.99406 0.47505 0.80112 0.0
C1979 C 0.99031 0.45778 0.81847 0.0
C1980 C 0.96057 0.4512 0.826 0.0
C1981 C 0.93459 0.46346 0.81603 0.0
C1982 C 0.9384 0.48083 0.79848 0.0
H1983 H 0.01246 0.56848 0.78162 0.0
H1984 H 0.99162 0.54387 0.79875 0.0
H1985 H 0.02989 0.53326 0.79027 0.0
H1986 H 0.01726 0.47831 0.79532 0.0
H1987 H 0.01092 0.44882 0.82569 0.0
H1988 H 0.9128 0.0193 0.68092 0.0
H1989 H 0.91799 0.98761 0.7112 0.0
H1990 H 0.01304 0.0173 0.71723 0.0
H1991 H 0.00849 0.04774 0.68717 0.0
H1992 H 0.00786 0.95653 0.72461 0.0
H1993 H 0.91805 0.02124 0.7673 0.0
H1994 H 0.90564 0.00269 0.74474 0.0
H1995 H 0.93218 0.03475 0.74361 0.0
C1996 C 0.93482 0.01885 0.68866 0.0
C1997 C 0.96012 0.03629 0.68156 0.0
C1998 C 0.93771 0.00088 0.70605 0.0
C1999 C 0.96584 0.00031 0.71672 0.0
C2000 C 0.99112 0.01718 0.70933 0.0
H2001 H 0.03081 0.0017 0.8309 0.0
H2002 H 0.003 0.00586 0.79976 0.0
C2003 C 0.98837 0.03479 0.69206 0.0
C2004 C 0.96963 0.98332 0.73591 0.0
H2005 H 0.94919 0.98649 0.78496 0.0
C2006 C 0.99466 0.96258 0.73778 0.0
C2007 C 0.95236 0.99117 0.75309 0.0
C2008 C 0.92566 0.0138 0.75226 0.0
C2009 C 0.00452 0.95159 0.75644 0.0
C2010 C 0.98826 0.96078 0.77377 0.0
C2011 C 0.96164 0.97942 0.7717 0.0
C2012 C 0.00165 0.95647 0.79407 0.0
C2013 C 0.03375 0.93236 0.75751 0.0
C2014 C 0.00945 0.92711 0.80184 0.0
C2015 C 0.02595 0.9246 0.81985 0.0
C2016 C 0.03471 0.95143 0.83038 0.0
C2017 C 0.02494 0.98049 0.82313 0.0
C2018 C 0.00876 0.98295 0.80527 0.0
H2019 H 0.04619 0.93155 0.74305 0.0
H2020 H 0.0498 0.94177 0.76892 0.0
H2021 H 0.02774 0.90823 0.76174 0.0
H2022 H 0.00358 0.90623 0.79374 0.0
H2023 H 0.03294 0.90187 0.82505 0.0
H2024 H 0.43409 0.01673 0.68297 0.0
H2025 H 0.46371 0.02389 0.71326 0.0
H2026 H 0.48451 0.92608 0.71487 0.0
H2027 H 0.45403 0.91845 0.68431 0.0
H2028 H 0.46516 0.94711 0.75084 0.0
H2029 H 0.55559 0.02635 0.72333 0.0
H2030 H 0.51802 0.04068 0.71658 0.0
H2031 H 0.53132 0.00411 0.70673 0.0
C2032 C 0.44515 0.99662 0.68953 0.0
C2033 C 0.44158 0.96694 0.68106 0.0
C2034 C 0.46243 0.00087 0.70685 0.0
C2035 C 0.47701 0.9757 0.71621 0.0
C2036 C 0.47378 0.94596 0.70781 0.0
H2037 H 0.57814 0.04059 0.8231 0.0
H2038 H 0.56974 0.01067 0.79237 0.0
C2039 C 0.45638 0.94163 0.69032 0.0
C2040 C 0.49334 0.9807 0.73551 0.0
H2041 H 0.54293 0.03101 0.75857 0.0
C2042 C 0.4827 0.96495 0.75246 0.0
C2043 C 0.51684 0.00342 0.73773 0.0
C2044 C 0.53133 0.01932 0.72006 0.0
C2045 C 0.49293 0.97317 0.77162 0.0
C2046 C 0.51383 0.99828 0.77397 0.0
C2047 C 0.52651 0.01214 0.75691 0.0
C2048 C 0.51961 0.01305 0.79369 0.0
C2049 C 0.48052 0.95537 0.7892 0.0
C2050 C 0.49438 0.02427 0.80471 0.0
C2051 C 0.49909 0.04121 0.82212 0.0
C2052 C 0.52924 0.04776 0.82901 0.0
C2053 C 0.55463 0.03581 0.81831 0.0
C2054 C 0.54985 0.0188 0.80071 0.0
H2055 H 0.4755 0.93091 0.78509 0.0
H2056 H 0.49709 0.95553 0.80184 0.0
H2057 H 0.4584 0.96606 0.79414 0.0
H2058 H 0.47087 0.021 0.79944 0.0
H2059 H 0.4789 0.04996 0.8299 0.0
H2060 H 0.48651 0.49833 0.83875 0.0
H2061 H 0.51469 0.48809 0.808 0.0
H2062 H 0.47916 0.57315 0.78298 0.0
H2063 H 0.4517 0.58402 0.81422 0.0
H2064 H 0.48439 0.47715 0.77485 0.0
H2065 H 0.56637 0.57361 0.76084 0.0
H2066 H 0.54905 0.5669 0.78491 0.0
H2067 H 0.52752 0.58651 0.76575 0.0
C2068 C 0.48556 0.51539 0.82693 0.0
C2069 C 0.46694 0.54199 0.82888 0.0
C2070 C 0.50163 0.50948 0.80932 0.0
C2071 C 0.49917 0.52978 0.79307 0.0
C2072 C 0.48202 0.55738 0.79537 0.0
H2073 H 0.49753 0.47203 0.67166 0.0
H2074 H 0.49011 0.49819 0.70346 0.0
C2075 C 0.46626 0.56359 0.81323 0.0
C2076 C 0.51066 0.51959 0.77317 0.0
H2077 H 0.55507 0.54031 0.73309 0.0
C2078 C 0.50016 0.4909 0.7659 0.0
C2079 C 0.53127 0.53738 0.76137 0.0
C2080 C 0.54447 0.56768 0.76867 0.0
C2081 C 0.5091 0.47981 0.74716 0.0
C2082 C 0.52872 0.49805 0.73506 0.0
C2083 C 0.53989 0.52645 0.74237 0.0
C2084 C 0.53613 0.48813 0.71445 0.0
C2085 C 0.49716 0.44866 0.74031 0.0
C2086 C 0.56506 0.47501 0.70969 0.0
C2087 C 0.5695 0.46006 0.69132 0.0
C2088 C 0.54494 0.45788 0.67761 0.0
C2089 C 0.51684 0.47307 0.68195 0.0
C2090 C 0.51254 0.48809 0.70012 0.0
H2091 H 0.48778 0.43472 0.75282 0.0
H2092 H 0.47826 0.45226 0.72934 0.0
H2093 H 0.51585 0.43519 0.73291 0.0
H2094 H 0.58353 0.47472 0.72061 0.0
H2095 H 0.59133 0.44844 0.68845 0.0
loop_
_geom_bond_atom_site_label_1
_geom_bond_atom_site_label_2
_geom_bond_distance
_geom_bond_site_symmetry_2
_ccdc_geom_bond_type
O0 Zn1 1.953 . S
O0 C16 1.225 . S
Zn1 O0 1.953 . S
Zn1 O2 1.949 . S
Zn1 O8 1.919 . S
Zn1 O13 1.924 . S
O2 Zn1 1.949 . S
O2 Zn3 1.923 . S
O2 Zn4 1.950 . S
O2 Zn5 1.945 . S
Zn3 O2 1.923 . S
Zn3 O6 1.933 . S
Zn3 O9 1.941 . S
Zn3 O10 1.965 1_455 S
Zn4 O2 1.950 . S
Zn4 O11 1.938 1_455 S
Zn4 O12 1.906 . S
Zn4 O22 1.953 . S
Zn5 O2 1.945 . S
Zn5 O7 1.932 . S
Zn5 O14 1.977 . S
Zn5 O15 1.910 . S
O6 Zn3 1.933 . S
O6 C17 1.226 . S
O7 Zn5 1.932 . S
O7 C17 1.307 . S
O8 Zn1 1.919 . S
O8 C19 1.253 . S
O9 Zn3 1.941 . S
O9 C19 1.283 . S
O10 Zn3 1.965 1_655 S
O10 C18 1.303 . S
O11 Zn4 1.938 1_655 S
O11 C18 1.247 . S
O12 Zn4 1.906 . S
O12 C20 1.304 . S
O13 Zn1 1.924 . S
O13 C21 1.311 . S
O14 Zn5 1.977 . S
O14 C20 1.272 . S
O15 Zn5 1.910 . S
O15 C21 1.231 . S
C16 O0 1.225 . S
C16 O22 1.298 . S
C17 O6 1.226 . S
C17 O7 1.307 . S
C18 O10 1.303 . S
C18 O11 1.247 . S
C19 O8 1.253 . S
C19 O9 1.283 . S
C20 O12 1.304 . S
C20 O14 1.272 . S
C21 O13 1.311 . S
C21 O15 1.231 . S
O22 Zn4 1.953 . S
O22 C16 1.298 . S
O23 Zn24 1.953 . S
O23 C39 1.225 . S
Zn24 O23 1.953 . S
Zn24 O25 1.949 . S
Zn24 O31 1.919 . S
Zn24 O36 1.924 . S
O25 Zn24 1.949 . S
O25 Zn26 1.923 . S
O25 Zn27 1.950 . S
O25 Zn28 1.945 . S
Zn26 O25 1.923 . S
Zn26 O29 1.933 . S
Zn26 O32 1.941 . S
Zn26 O33 1.965 1_545 S
Zn27 O25 1.950 . S
Zn27 O34 1.938 1_545 S
Zn27 O35 1.906 . S
Zn27 O45 1.953 . S
Zn28 O25 1.945 . S
Zn28 O30 1.932 . S
Zn28 O37 1.977 . S
Zn28 O38 1.910 . S
O29 Zn26 1.933 . S
O29 C40 1.226 . S
O30 Zn28 1.932 . S
O30 C40 1.307 . S
O31 Zn24 1.919 . S
O31 C42 1.253 . S
O32 Zn26 1.941 . S
O32 C42 1.283 . S
O33 Zn26 1.965 1_565 S
O33 C41 1.303 . S
O34 Zn27 1.938 1_565 S
O34 C41 1.247 . S
O35 Zn27 1.906 . S
O35 C43 1.304 . S
O36 Zn24 1.924 . S
O36 C44 1.311 . S
O37 Zn28 1.977 . S
O37 C43 1.272 . S
O38 Zn28 1.910 . S
O38 C44 1.231 . S
C39 O23 1.225 . S
C39 O45 1.298 . S
C40 O29 1.226 . S
C40 O30 1.307 . S
C41 O33 1.303 . S
C41 O34 1.247 . S
C42 O31 1.253 . S
C42 O32 1.283 . S
C43 O35 1.304 . S
C43 O37 1.272 . S
C44 O36 1.311 . S
C44 O38 1.231 . S
O45 Zn27 1.953 . S
O45 C39 1.298 . S
O46 Zn47 1.953 . S
O46 C62 1.225 . S
Zn47 O46 1.953 . S
Zn47 O48 1.949 . S
Zn47 O54 1.919 . S
Zn47 O59 1.924 . S
O48 Zn47 1.949 . S
O48 Zn49 1.923 . S
O48 Zn50 1.950 . S
O48 Zn51 1.945 . S
Zn49 O48 1.923 . S
Zn49 O52 1.933 . S
Zn49 O55 1.941 . S
Zn49 O56 1.965 . S
Zn50 O48 1.950 . S
Zn50 O57 1.938 . S
Zn50 O58 1.906 . S
Zn50 O68 1.953 . S
Zn51 O48 1.945 . S
Zn51 O53 1.932 . S
Zn51 O60 1.977 . S
Zn51 O61 1.910 . S
O52 Zn49 1.933 . S
O52 C63 1.226 . S
O53 Zn51 1.932 . S
O53 C63 1.307 . S
O54 Zn47 1.919 . S
O54 C65 1.253 . S
O55 Zn49 1.941 . S
O55 C65 1.283 . S
O56 Zn49 1.965 . S
O56 C64 1.303 . S
O57 Zn50 1.938 . S
O57 C64 1.247 . S
O58 Zn50 1.906 . S
O58 C66 1.304 . S
O59 Zn47 1.924 . S
O59 C67 1.311 . S
O60 Zn51 1.977 . S
O60 C66 1.272 . S
O61 Zn51 1.910 . S
O61 C67 1.231 . S
C62 O46 1.225 . S
C62 O68 1.298 . S
C63 O52 1.226 . S
C63 O53 1.307 . S
C64 O56 1.303 . S
C64 O57 1.247 . S
C65 O54 1.253 . S
C65 O55 1.283 . S
C66 O58 1.304 . S
C66 O60 1.272 . S
C67 O59 1.311 . S
C67 O61 1.231 . S
O68 Zn50 1.953 . S
O68 C62 1.298 . S
O69 Zn70 1.953 . S
O69 C85 1.225 . S
Zn70 O69 1.953 . S
Zn70 O71 1.949 . S
Zn70 O77 1.919 . S
Zn70 O82 1.924 . S
O71 Zn70 1.949 . S
O71 Zn72 1.923 . S
O71 Zn73 1.950 . S
O71 Zn74 1.945 . S
Zn72 O71 1.923 . S
Zn72 O75 1.933 . S
Zn72 O78 1.941 . S
Zn72 O79 1.965 . S
Zn73 O71 1.950 . S
Zn73 O80 1.938 . S
Zn73 O81 1.906 . S
Zn73 O91 1.953 . S
Zn74 O71 1.945 . S
Zn74 O76 1.932 . S
Zn74 O83 1.977 . S
Zn74 O84 1.910 . S
O75 Zn72 1.933 . S
O75 C86 1.226 . S
O76 Zn74 1.932 . S
O76 C86 1.307 . S
O77 Zn70 1.919 . S
O77 C88 1.253 . S
O78 Zn72 1.941 . S
O78 C88 1.283 . S
O79 Zn72 1.965 . S
O79 C87 1.303 . S
O80 Zn73 1.938 . S
O80 C87 1.247 . S
O81 Zn73 1.906 . S
O81 C89 1.304 . S
O82 Zn70 1.924 . S
O82 C90 1.311 . S
O83 Zn74 1.977 . S
O83 C89 1.272 . S
O84 Zn74 1.910 . S
O84 C90 1.231 . S
C85 O69 1.225 . S
C85 O91 1.298 . S
C86 O75 1.226 . S
C86 O76 1.307 . S
C87 O79 1.303 . S
C87 O80 1.247 . S
C88 O77 1.253 . S
C88 O78 1.283 . S
C89 O81 1.304 . S
C89 O83 1.272 . S
C90 O82 1.311 . S
C90 O84 1.231 . S
O91 Zn73 1.953 . S
O91 C85 1.298 . S
O92 Zn93 1.953 . S
O92 C108 1.225 . S
Zn93 O92 1.953 . S
Zn93 O94 1.949 . S
Zn93 O100 1.919 . S
Zn93 O105 1.924 . S
O94 Zn93 1.949 . S
O94 Zn95 1.923 . S
O94 Zn96 1.950 . S
O94 Zn97 1.945 . S
Zn95 O94 1.923 . S
Zn95 O98 1.933 . S
Zn95 O101 1.941 . S
Zn95 O102 1.965 1_455 S
Zn96 O94 1.950 . S
Zn96 O103 1.938 1_455 S
Zn96 O104 1.906 . S
Zn96 O114 1.953 . S
Zn97 O94 1.945 . S
Zn97 O99 1.932 . S
Zn97 O106 1.977 . S
Zn97 O107 1.910 . S
O98 Zn95 1.933 . S
O98 C109 1.226 . S
O99 Zn97 1.932 . S
O99 C109 1.307 . S
O100 Zn93 1.919 . S
O100 C111 1.253 . S
O101 Zn95 1.941 . S
O101 C111 1.283 . S
O102 Zn95 1.965 1_655 S
O102 C110 1.303 . S
O103 Zn96 1.938 1_655 S
O103 C110 1.247 . S
O104 Zn96 1.906 . S
O104 C112 1.304 . S
O105 Zn93 1.924 . S
O105 C113 1.311 . S
O106 Zn97 1.977 . S
O106 C112 1.272 . S
O107 Zn97 1.910 . S
O107 C113 1.231 . S
C108 O92 1.225 . S
C108 O114 1.298 . S
C109 O98 1.226 . S
C109 O99 1.307 . S
C110 O102 1.303 . S
C110 O103 1.247 . S
C111 O100 1.253 . S
C111 O101 1.283 . S
C112 O104 1.304 . S
C112 O106 1.272 . S
C113 O105 1.311 . S
C113 O107 1.231 . S
O114 Zn96 1.953 . S
O114 C108 1.298 . S
O115 Zn116 1.953 . S
O115 C131 1.225 . S
Zn116 O115 1.953 . S
Zn116 O117 1.949 . S
Zn116 O123 1.919 . S
Zn116 O128 1.924 . S
O117 Zn116 1.949 . S
O117 Zn118 1.923 . S
O117 Zn119 1.950 . S
O117 Zn120 1.945 . S
Zn118 O117 1.923 . S
Zn118 O121 1.933 . S
Zn118 O124 1.941 . S
Zn118 O125 1.965 1_545 S
Zn119 O117 1.950 . S
Zn119 O126 1.938 1_545 S
Zn119 O127 1.906 . S
Zn119 O137 1.953 . S
Zn120 O117 1.945 . S
Zn120 O122 1.932 . S
Zn120 O129 1.977 . S
Zn120 O130 1.910 . S
O121 Zn118 1.933 . S
O121 C132 1.226 . S
O122 Zn120 1.932 . S
O122 C132 1.307 . S
O123 Zn116 1.919 . S
O123 C134 1.253 . S
O124 Zn118 1.941 . S
O124 C134 1.283 . S
O125 Zn118 1.965 1_565 S
O125 C133 1.303 . S
O126 Zn119 1.938 1_565 S
O126 C133 1.247 . S
O127 Zn119 1.906 . S
O127 C135 1.304 . S
O128 Zn116 1.924 . S
O128 C136 1.311 . S
O129 Zn120 1.977 . S
O129 C135 1.272 . S
O130 Zn120 1.910 . S
O130 C136 1.231 . S
C131 O115 1.225 . S
C131 O137 1.298 . S
C132 O121 1.226 . S
C132 O122 1.307 . S
C133 O125 1.303 . S
C133 O126 1.247 . S
C134 O123 1.253 . S
C134 O124 1.283 . S
C135 O127 1.304 . S
C135 O129 1.272 . S
C136 O128 1.311 . S
C136 O130 1.231 . S
O137 Zn119 1.953 . S
O137 C131 1.298 . S
O138 Zn139 1.953 . S
O138 C154 1.225 . S
Zn139 O138 1.953 . S
Zn139 O140 1.949 . S
Zn139 O146 1.919 . S
Zn139 O151 1.924 . S
O140 Zn139 1.949 . S
O140 Zn141 1.923 . S
O140 Zn142 1.950 . S
O140 Zn143 1.945 . S
Zn141 O140 1.923 . S
Zn141 O144 1.933 . S
Zn141 O147 1.941 . S
Zn141 O148 1.965 . S
Zn142 O140 1.950 . S
Zn142 O149 1.938 . S
Zn142 O150 1.906 . S
Zn142 O160 1.953 . S
Zn143 O140 1.945 . S
Zn143 O145 1.932 . S
Zn143 O152 1.977 . S
Zn143 O153 1.910 . S
O144 Zn141 1.933 . S
O144 C155 1.226 . S
O145 Zn143 1.932 . S
O145 C155 1.307 . S
O146 Zn139 1.919 . S
O146 C157 1.253 . S
O147 Zn141 1.941 . S
O147 C157 1.283 . S
O148 Zn141 1.965 . S
O148 C156 1.303 . S
O149 Zn142 1.938 . S
O149 C156 1.247 . S
O150 Zn142 1.906 . S
O150 C158 1.304 . S
O151 Zn139 1.924 . S
O151 C159 1.311 . S
O152 Zn143 1.977 . S
O152 C158 1.272 . S
O153 Zn143 1.910 . S
O153 C159 1.231 . S
C154 O138 1.225 . S
C154 O160 1.298 . S
C155 O144 1.226 . S
C155 O145 1.307 . S
C156 O148 1.303 . S
C156 O149 1.247 . S
C157 O146 1.253 . S
C157 O147 1.283 . S
C158 O150 1.304 . S
C158 O152 1.272 . S
C159 O151 1.311 . S
C159 O153 1.231 . S
O160 Zn142 1.953 . S
O160 C154 1.298 . S
O161 Zn162 1.953 . S
O161 C177 1.225 . S
Zn162 O161 1.953 . S
Zn162 O163 1.949 . S
Zn162 O169 1.919 . S
Zn162 O174 1.924 . S
O163 Zn162 1.949 . S
O163 Zn164 1.923 . S
O163 Zn165 1.950 . S
O163 Zn166 1.945 . S
Zn164 O163 1.923 . S
Zn164 O167 1.933 . S
Zn164 O170 1.941 . S
Zn164 O171 1.965 . S
Zn165 O163 1.950 . S
Zn165 O172 1.938 . S
Zn165 O173 1.906 . S
Zn165 O183 1.953 . S
Zn166 O163 1.945 . S
Zn166 O168 1.932 . S
Zn166 O175 1.977 . S
Zn166 O176 1.910 . S
O167 Zn164 1.933 . S
O167 C178 1.226 . S
O168 Zn166 1.932 . S
O168 C178 1.307 . S
O169 Zn162 1.919 . S
O169 C180 1.253 . S
O170 Zn164 1.941 . S
O170 C180 1.283 . S
O171 Zn164 1.965 . S
O171 C179 1.303 . S
O172 Zn165 1.938 . S
O172 C179 1.247 . S
O173 Zn165 1.906 . S
O173 C181 1.304 . S
O174 Zn162 1.924 . S
O174 C182 1.311 . S
O175 Zn166 1.977 . S
O175 C181 1.272 . S
O176 Zn166 1.910 . S
O176 C182 1.231 . S
C177 O161 1.225 . S
C177 O183 1.298 . S
C178 O167 1.226 . S
C178 O168 1.307 . S
C179 O171 1.303 . S
C179 O172 1.247 . S
C180 O169 1.253 . S
C180 O170 1.283 . S
C181 O173 1.304 . S
C181 O175 1.272 . S
C182 O174 1.311 . S
C182 O176 1.231 . S
O183 Zn165 1.953 . S
O183 C177 1.298 . S
O184 Zn185 1.953 . S
O184 C200 1.225 . S
Zn185 O184 1.953 . S
Zn185 O186 1.949 . S
Zn185 O192 1.919 . S
Zn185 O197 1.924 . S
O186 Zn185 1.949 . S
O186 Zn187 1.923 . S
O186 Zn188 1.950 . S
O186 Zn189 1.945 . S
Zn187 O186 1.923 . S
Zn187 O190 1.933 . S
Zn187 O193 1.941 . S
Zn187 O194 1.965 1_655 S
Zn188 O186 1.950 . S
Zn188 O195 1.938 1_655 S
Zn188 O196 1.906 . S
Zn188 O206 1.953 . S
Zn189 O186 1.945 . S
Zn189 O191 1.932 . S
Zn189 O198 1.977 . S
Zn189 O199 1.910 . S
O190 Zn187 1.933 . S
O190 C201 1.226 . S
O191 Zn189 1.932 . S
O191 C201 1.307 . S
O192 Zn185 1.919 . S
O192 C203 1.253 . S
O193 Zn187 1.941 . S
O193 C203 1.283 . S
O194 Zn187 1.965 1_455 S
O194 C202 1.303 . S
O195 Zn188 1.938 1_455 S
O195 C202 1.247 . S
O196 Zn188 1.906 . S
O196 C204 1.304 . S
O197 Zn185 1.924 . S
O197 C205 1.311 . S
O198 Zn189 1.977 . S
O198 C204 1.272 . S
O199 Zn189 1.910 . S
O199 C205 1.231 . S
C200 O184 1.225 . S
C200 O206 1.298 . S
C201 O190 1.226 . S
C201 O191 1.307 . S
C202 O194 1.303 . S
C202 O195 1.247 . S
C203 O192 1.253 . S
C203 O193 1.283 . S
C204 O196 1.304 . S
C204 O198 1.272 . S
C205 O197 1.311 . S
C205 O199 1.231 . S
O206 Zn188 1.953 . S
O206 C200 1.298 . S
O207 Zn208 1.953 . S
O207 C223 1.225 . S
Zn208 O207 1.953 . S
Zn208 O209 1.949 . S
Zn208 O215 1.919 . S
Zn208 O220 1.924 . S
O209 Zn208 1.949 . S
O209 Zn210 1.923 . S
O209 Zn211 1.950 . S
O209 Zn212 1.945 . S
Zn210 O209 1.923 . S
Zn210 O213 1.933 . S
Zn210 O216 1.941 . S
Zn210 O217 1.965 1_565 S
Zn211 O209 1.950 . S
Zn211 O218 1.938 1_565 S
Zn211 O219 1.906 . S
Zn211 O229 1.953 . S
Zn212 O209 1.945 . S
Zn212 O214 1.932 . S
Zn212 O221 1.977 . S
Zn212 O222 1.910 . S
O213 Zn210 1.933 . S
O213 C224 1.226 . S
O214 Zn212 1.932 . S
O214 C224 1.307 . S
O215 Zn208 1.919 . S
O215 C226 1.253 . S
O216 Zn210 1.941 . S
O216 C226 1.283 . S
O217 Zn210 1.965 1_545 S
O217 C225 1.303 . S
O218 Zn211 1.938 1_545 S
O218 C225 1.247 . S
O219 Zn211 1.906 . S
O219 C227 1.304 . S
O220 Zn208 1.924 . S
O220 C228 1.311 . S
O221 Zn212 1.977 . S
O221 C227 1.272 . S
O222 Zn212 1.910 . S
O222 C228 1.231 . S
C223 O207 1.225 . S
C223 O229 1.298 . S
C224 O213 1.226 . S
C224 O214 1.307 . S
C225 O217 1.303 . S
C225 O218 1.247 . S
C226 O215 1.253 . S
C226 O216 1.283 . S
C227 O219 1.304 . S
C227 O221 1.272 . S
C228 O220 1.311 . S
C228 O222 1.231 . S
O229 Zn211 1.953 . S
O229 C223 1.298 . S
O230 Zn231 1.953 . S
O230 C246 1.225 . S
Zn231 O230 1.953 . S
Zn231 O232 1.949 . S
Zn231 O238 1.919 . S
Zn231 O243 1.924 . S
O232 Zn231 1.949 . S
O232 Zn233 1.923 . S
O232 Zn234 1.950 . S
O232 Zn235 1.945 . S
Zn233 O232 1.923 . S
Zn233 O236 1.933 . S
Zn233 O239 1.941 . S
Zn233 O240 1.965 . S
Zn234 O232 1.950 . S
Zn234 O241 1.938 . S
Zn234 O242 1.906 . S
Zn234 O252 1.953 . S
Zn235 O232 1.945 . S
Zn235 O237 1.932 . S
Zn235 O244 1.977 . S
Zn235 O245 1.910 . S
O236 Zn233 1.933 . S
O236 C247 1.226 . S
O237 Zn235 1.932 . S
O237 C247 1.307 . S
O238 Zn231 1.919 . S
O238 C249 1.253 . S
O239 Zn233 1.941 . S
O239 C249 1.283 . S
O240 Zn233 1.965 . S
O240 C248 1.303 . S
O241 Zn234 1.938 . S
O241 C248 1.247 . S
O242 Zn234 1.906 . S
O242 C250 1.304 . S
O243 Zn231 1.924 . S
O243 C251 1.311 . S
O244 Zn235 1.977 . S
O244 C250 1.272 . S
O245 Zn235 1.910 . S
O245 C251 1.231 . S
C246 O230 1.225 . S
C246 O252 1.298 . S
C247 O236 1.226 . S
C247 O237 1.307 . S
C248 O240 1.303 . S
C248 O241 1.247 . S
C249 O238 1.253 . S
C249 O239 1.283 . S
C250 O242 1.304 . S
C250 O244 1.272 . S
C251 O243 1.311 . S
C251 O245 1.231 . S
O252 Zn234 1.953 . S
O252 C246 1.298 . S
O253 Zn254 1.953 . S
O253 C269 1.225 . S
Zn254 O253 1.953 . S
Zn254 O255 1.949 . S
Zn254 O261 1.919 . S
Zn254 O266 1.924 . S
O255 Zn254 1.949 . S
O255 Zn256 1.923 . S
O255 Zn257 1.950 . S
O255 Zn258 1.945 . S
Zn256 O255 1.923 . S
Zn256 O259 1.933 . S
Zn256 O262 1.941 . S
Zn256 O263 1.965 . S
Zn257 O255 1.950 . S
Zn257 O264 1.938 . S
Zn257 O265 1.906 . S
Zn257 O275 1.953 . S
Zn258 O255 1.945 . S
Zn258 O260 1.932 . S
Zn258 O267 1.977 . S
Zn258 O268 1.910 . S
O259 Zn256 1.933 . S
O259 C270 1.226 . S
O260 Zn258 1.932 . S
O260 C270 1.307 . S
O261 Zn254 1.919 . S
O261 C272 1.253 . S
O262 Zn256 1.941 . S
O262 C272 1.283 . S
O263 Zn256 1.965 . S
O263 C271 1.303 . S
O264 Zn257 1.938 . S
O264 C271 1.247 . S
O265 Zn257 1.906 . S
O265 C273 1.304 . S
O266 Zn254 1.924 . S
O266 C274 1.311 . S
O267 Zn258 1.977 . S
O267 C273 1.272 . S
O268 Zn258 1.910 . S
O268 C274 1.231 . S
C269 O253 1.225 . S
C269 O275 1.298 . S
C270 O259 1.226 . S
C270 O260 1.307 . S
C271 O263 1.303 . S
C271 O264 1.247 . S
C272 O261 1.253 . S
C272 O262 1.283 . S
C273 O265 1.304 . S
C273 O267 1.272 . S
C274 O266 1.311 . S
C274 O268 1.231 . S
O275 Zn257 1.953 . S
O275 C269 1.298 . S
O276 Zn277 1.953 . S
O276 C292 1.225 . S
Zn277 O276 1.953 . S
Zn277 O278 1.949 . S
Zn277 O284 1.919 . S
Zn277 O289 1.924 . S
O278 Zn277 1.949 . S
O278 Zn279 1.923 . S
O278 Zn280 1.950 . S
O278 Zn281 1.945 . S
Zn279 O278 1.923 . S
Zn279 O282 1.933 . S
Zn279 O285 1.941 . S
Zn279 O286 1.965 1_655 S
Zn280 O278 1.950 . S
Zn280 O287 1.938 1_655 S
Zn280 O288 1.906 . S
Zn280 O298 1.953 . S
Zn281 O278 1.945 . S
Zn281 O283 1.932 . S
Zn281 O290 1.977 . S
Zn281 O291 1.910 . S
O282 Zn279 1.933 . S
O282 C293 1.226 . S
O283 Zn281 1.932 . S
O283 C293 1.307 . S
O284 Zn277 1.919 . S
O284 C295 1.253 . S
O285 Zn279 1.941 . S
O285 C295 1.283 . S
O286 Zn279 1.965 1_455 S
O286 C294 1.303 . S
O287 Zn280 1.938 1_455 S
O287 C294 1.247 . S
O288 Zn280 1.906 . S
O288 C296 1.304 . S
O289 Zn277 1.924 . S
O289 C297 1.311 . S
O290 Zn281 1.977 . S
O290 C296 1.272 . S
O291 Zn281 1.910 . S
O291 C297 1.231 . S
C292 O276 1.225 . S
C292 O298 1.298 . S
C293 O282 1.226 . S
C293 O283 1.307 . S
C294 O286 1.303 . S
C294 O287 1.247 . S
C295 O284 1.253 . S
C295 O285 1.283 . S
C296 O288 1.304 . S
C296 O290 1.272 . S
C297 O289 1.311 . S
C297 O291 1.231 . S
O298 Zn280 1.953 . S
O298 C292 1.298 . S
O299 Zn300 1.953 . S
O299 C315 1.225 . S
Zn300 O299 1.953 . S
Zn300 O301 1.949 . S
Zn300 O307 1.919 . S
Zn300 O312 1.924 . S
O301 Zn300 1.949 . S
O301 Zn302 1.923 . S
O301 Zn303 1.950 . S
O301 Zn304 1.945 . S
Zn302 O301 1.923 . S
Zn302 O305 1.933 . S
Zn302 O308 1.941 . S
Zn302 O309 1.965 1_565 S
Zn303 O301 1.950 . S
Zn303 O310 1.938 1_565 S
Zn303 O311 1.906 . S
Zn303 O321 1.953 . S
Zn304 O301 1.945 . S
Zn304 O306 1.932 . S
Zn304 O313 1.977 . S
Zn304 O314 1.910 . S
O305 Zn302 1.933 . S
O305 C316 1.226 . S
O306 Zn304 1.932 . S
O306 C316 1.307 . S
O307 Zn300 1.919 . S
O307 C318 1.253 . S
O308 Zn302 1.941 . S
O308 C318 1.283 . S
O309 Zn302 1.965 1_545 S
O309 C317 1.303 . S
O310 Zn303 1.938 1_545 S
O310 C317 1.247 . S
O311 Zn303 1.906 . S
O311 C319 1.304 . S
O312 Zn300 1.924 . S
O312 C320 1.311 . S
O313 Zn304 1.977 . S
O313 C319 1.272 . S
O314 Zn304 1.910 . S
O314 C320 1.231 . S
C315 O299 1.225 . S
C315 O321 1.298 . S
C316 O305 1.226 . S
C316 O306 1.307 . S
C317 O309 1.303 . S
C317 O310 1.247 . S
C318 O307 1.253 . S
C318 O308 1.283 . S
C319 O311 1.304 . S
C319 O313 1.272 . S
C320 O312 1.311 . S
C320 O314 1.231 . S
O321 Zn303 1.953 . S
O321 C315 1.298 . S
O322 Zn323 1.953 . S
O322 C338 1.225 . S
Zn323 O322 1.953 . S
Zn323 O324 1.949 . S
Zn323 O330 1.919 . S
Zn323 O335 1.924 . S
O324 Zn323 1.949 . S
O324 Zn325 1.923 . S
O324 Zn326 1.950 . S
O324 Zn327 1.945 . S
Zn325 O324 1.923 . S
Zn325 O328 1.933 . S
Zn325 O331 1.941 . S
Zn325 O332 1.965 . S
Zn326 O324 1.950 . S
Zn326 O333 1.938 . S
Zn326 O334 1.906 . S
Zn326 O344 1.953 . S
Zn327 O324 1.945 . S
Zn327 O329 1.932 . S
Zn327 O336 1.977 . S
Zn327 O337 1.910 . S
O328 Zn325 1.933 . S
O328 C339 1.226 . S
O329 Zn327 1.932 . S
O329 C339 1.307 . S
O330 Zn323 1.919 . S
O330 C341 1.253 . S
O331 Zn325 1.941 . S
O331 C341 1.283 . S
O332 Zn325 1.965 . S
O332 C340 1.303 . S
O333 Zn326 1.938 . S
O333 C340 1.247 . S
O334 Zn326 1.906 . S
O334 C342 1.304 . S
O335 Zn323 1.924 . S
O335 C343 1.311 . S
O336 Zn327 1.977 . S
O336 C342 1.272 . S
O337 Zn327 1.910 . S
O337 C343 1.231 . S
C338 O322 1.225 . S
C338 O344 1.298 . S
C339 O328 1.226 . S
C339 O329 1.307 . S
C340 O332 1.303 . S
C340 O333 1.247 . S
C341 O330 1.253 . S
C341 O331 1.283 . S
C342 O334 1.304 . S
C342 O336 1.272 . S
C343 O335 1.311 . S
C343 O337 1.231 . S
O344 Zn326 1.953 . S
O344 C338 1.298 . S
O345 Zn346 1.953 . S
O345 C361 1.225 . S
Zn346 O345 1.953 . S
Zn346 O347 1.949 . S
Zn346 O353 1.919 . S
Zn346 O358 1.924 . S
O347 Zn346 1.949 . S
O347 Zn348 1.923 . S
O347 Zn349 1.950 . S
O347 Zn350 1.945 . S
Zn348 O347 1.923 . S
Zn348 O351 1.933 . S
Zn348 O354 1.941 . S
Zn348 O355 1.965 . S
Zn349 O347 1.950 . S
Zn349 O356 1.938 . S
Zn349 O357 1.906 . S
Zn349 O367 1.953 . S
Zn350 O347 1.945 . S
Zn350 O352 1.932 . S
Zn350 O359 1.977 . S
Zn350 O360 1.910 . S
O351 Zn348 1.933 . S
O351 C362 1.226 . S
O352 Zn350 1.932 . S
O352 C362 1.307 . S
O353 Zn346 1.919 . S
O353 C364 1.253 . S
O354 Zn348 1.941 . S
O354 C364 1.283 . S
O355 Zn348 1.965 . S
O355 C363 1.303 . S
O356 Zn349 1.938 . S
O356 C363 1.247 . S
O357 Zn349 1.906 . S
O357 C365 1.304 . S
O358 Zn346 1.924 . S
O358 C366 1.311 . S
O359 Zn350 1.977 . S
O359 C365 1.272 . S
O360 Zn350 1.910 . S
O360 C366 1.231 . S
C361 O345 1.225 . S
C361 O367 1.298 . S
C362 O351 1.226 . S
C362 O352 1.307 . S
C363 O355 1.303 . S
C363 O356 1.247 . S
C364 O353 1.253 . S
C364 O354 1.283 . S
C365 O357 1.304 . S
C365 O359 1.272 . S
C366 O358 1.311 . S
C366 O360 1.231 . S
O367 Zn349 1.953 . S
O367 C361 1.298 . S
H368 C376 0.929 . S
H369 C378 0.930 . S
H370 C380 0.930 . S
H371 C383 0.929 . S
H372 C386 0.930 . S
H373 C388 0.960 . S
H374 C388 0.960 . S
H375 C388 0.960 . S
C376 H368 0.929 . S
C376 C377 1.377 . S
C376 C378 1.384 . S
C377 C376 1.377 . S
C377 C383 1.390 . S
C378 H369 0.930 . S
C378 C376 1.384 . S
C378 C379 1.372 . S
C379 C378 1.372 . S
C379 C380 1.400 . S
C379 C384 1.490 . S
C380 H370 0.930 . S
C380 C379 1.400 . S
C380 C383 1.386 . S
H381 C397 0.930 . S
H382 C398 0.931 . S
C383 H371 0.929 . S
C383 C377 1.390 . S
C383 C380 1.386 . S
C384 C379 1.490 . S
C384 C386 1.395 . S
C384 C387 1.403 . S
H385 C391 0.930 . S
C386 H372 0.930 . S
C386 C384 1.395 . S
C386 C389 1.403 . S
C387 C384 1.403 . S
C387 C388 1.524 . S
C387 C391 1.400 . S
C388 H373 0.960 . S
C388 H374 0.960 . S
C388 H375 0.960 . S
C388 C387 1.524 . S
C389 C386 1.403 . S
C389 C390 1.392 . S
C389 C393 1.495 . S
C390 C389 1.392 . S
C390 C391 1.385 . S
C390 C392 1.478 . S
C391 H385 0.930 . S
C391 C387 1.400 . S
C391 C390 1.385 . S
C392 C390 1.478 . S
C392 C394 1.381 . S
C392 C398 1.383 . S
C393 C389 1.495 . S
C393 H399 0.959 . S
C393 H400 0.961 . S
C393 H401 0.960 . S
C394 C392 1.381 . S
C394 C395 1.394 . S
C394 H402 0.930 . S
C395 C394 1.394 . S
C395 C396 1.383 . S
C395 H403 0.929 . S
C396 C395 1.383 . S
C396 C397 1.377 . S
C397 H381 0.930 . S
C397 C396 1.377 . S
C397 C398 1.379 . S
C398 H382 0.931 . S
C398 C392 1.383 . S
C398 C397 1.379 . S
H399 C393 0.959 . S
H400 C393 0.961 . S
H401 C393 0.960 . S
H402 C394 0.930 . S
H403 C395 0.929 . S
H404 C412 0.929 . S
H405 C414 0.930 . S
H406 C416 0.930 . S
H407 C419 0.929 . S
H408 C422 0.905 1_455 S
H409 C424 0.960 . S
H410 C424 0.960 . S
H411 C424 0.960 . S
C412 H404 0.929 . S
C412 C413 1.377 . S
C412 C414 1.384 1_455 S
C413 C412 1.377 . S
C413 C419 1.390 . S
C414 H405 0.930 . S
C414 C412 1.384 1_655 S
C414 C415 1.372 . S
C415 C414 1.372 . S
C415 C416 1.400 . S
C415 C420 1.490 . S
C416 H406 0.930 . S
C416 C415 1.400 . S
C416 C419 1.386 1_655 S
H417 C433 0.930 . S
H418 C434 0.931 . S
C419 H407 0.929 . S
C419 C413 1.390 . S
C419 C416 1.386 1_455 S
C420 C415 1.490 . S
C420 C422 1.395 . S
C420 C423 1.403 . S
H421 C427 0.930 . S
C422 H408 0.905 1_655 S
C422 C420 1.395 . S
C422 C425 1.403 . S
C423 C420 1.403 . S
C423 C424 1.524 . S
C423 C427 1.400 . S
C424 H409 0.960 . S
C424 H410 0.960 . S
C424 H411 0.960 . S
C424 C423 1.524 . S
C425 C422 1.403 . S
C425 C426 1.392 . S
C425 C429 1.495 . S
C426 C425 1.392 . S
C426 C427 1.385 . S
C426 C428 1.478 . S
C427 H421 0.930 . S
C427 C423 1.400 . S
C427 C426 1.385 . S
C428 C426 1.478 . S
C428 C430 1.381 . S
C428 C434 1.383 . S
C429 C425 1.495 . S
C429 H435 0.959 1_655 S
C429 H436 0.961 . S
C429 H437 0.960 . S
C430 C428 1.381 . S
C430 C431 1.394 . S
C430 H438 0.930 . S
C431 C430 1.394 . S
C431 C432 1.383 . S
C431 H439 0.929 . S
C432 C431 1.383 . S
C432 C433 1.377 . S
C433 H417 0.930 . S
C433 C432 1.377 . S
C433 C434 1.379 . S
C434 H418 0.931 . S
C434 C428 1.383 . S
C434 C433 1.379 . S
H435 C429 0.959 1_455 S
H436 C429 0.961 . S
H437 C429 0.960 . S
H438 C430 0.930 . S
H439 C431 0.929 . S
H440 C448 0.929 . S
H441 C450 0.930 . S
H442 C452 0.930 . S
H443 C455 0.929 . S
H444 C458 0.930 . S
H445 C460 0.960 1_545 S
H446 C460 0.960 . S
H447 C460 0.960 . S
C448 H440 0.929 . S
C448 C449 1.377 . S
C448 C450 1.384 . S
C449 C448 1.377 . S
C449 C455 1.390 . S
C450 H441 0.930 . S
C450 C448 1.384 . S
C450 C451 1.372 . S
C451 C450 1.372 . S
C451 C452 1.400 . S
C451 C456 1.490 . S
C452 H442 0.930 . S
C452 C451 1.400 . S
C452 C455 1.386 . S
H453 C469 0.930 . S
H454 C470 0.931 . S
C455 H443 0.929 . S
C455 C449 1.390 . S
C455 C452 1.386 . S
C456 C451 1.490 . S
C456 C458 1.395 . S
C456 C459 1.403 . S
H457 C463 0.930 1_545 S
C458 H444 0.930 . S
C458 C456 1.395 . S
C458 C461 1.403 . S
C459 C456 1.403 . S
C459 C460 1.524 . S
C459 C463 1.400 . S
C460 H445 0.960 1_565 S
C460 H446 0.960 . S
C460 H447 0.960 . S
C460 C459 1.524 . S
C461 C458 1.403 . S
C461 C462 1.392 . S
C461 C465 1.495 . S
C462 C461 1.392 . S
C462 C463 1.385 . S
C462 C464 1.478 . S
C463 H457 0.930 1_565 S
C463 C459 1.400 . S
C463 C462 1.385 . S
C464 C462 1.478 . S
C464 C466 1.381 . S
C464 C470 1.383 . S
C465 C461 1.495 . S
C465 H471 0.959 . S
C465 H472 0.961 . S
C465 H473 0.960 . S
C466 C464 1.381 . S
C466 C467 1.394 1_565 S
C466 H474 0.930 . S
C467 C466 1.394 1_545 S
C467 C468 1.383 . S
C467 H475 0.929 . S
C468 C467 1.383 . S
C468 C469 1.377 . S
C469 H453 0.930 . S
C469 C468 1.377 . S
C469 C470 1.379 1_545 S
C470 H454 0.931 . S
C470 C464 1.383 . S
C470 C469 1.379 1_565 S
H471 C465 0.959 . S
H472 C465 0.961 . S
H473 C465 0.960 . S
H474 C466 0.930 . S
H475 C467 0.929 . S
H476 C484 0.929 . S
H477 C486 0.930 . S
H478 C488 0.930 . S
H479 C491 0.929 . S
H480 C494 0.930 . S
H481 C496 0.960 . S
H482 C496 0.960 . S
H483 C496 0.960 . S
C484 H476 0.929 . S
C484 C485 1.377 . S
C484 C486 1.384 . S
C485 C484 1.377 . S
C485 C491 1.390 . S
C486 H477 0.930 . S
C486 C484 1.384 . S
C486 C487 1.372 . S
C487 C486 1.372 . S
C487 C488 1.400 . S
C487 C492 1.490 . S
C488 H478 0.930 . S
C488 C487 1.400 . S
C488 C491 1.386 . S
H489 C505 0.930 . S
H490 C506 0.931 . S
C491 H479 0.929 . S
C491 C485 1.390 . S
C491 C488 1.386 . S
C492 C487 1.490 . S
C492 C494 1.395 . S
C492 C495 1.403 . S
H493 C499 0.930 . S
C494 H480 0.930 . S
C494 C492 1.395 . S
C494 C497 1.403 . S
C495 C492 1.403 . S
C495 C496 1.524 . S
C495 C499 1.400 . S
C496 H481 0.960 . S
C496 H482 0.960 . S
C496 H483 0.960 . S
C496 C495 1.524 . S
C497 C494 1.403 . S
C497 C498 1.392 . S
C497 C501 1.495 . S
C498 C497 1.392 . S
C498 C499 1.385 . S
C498 C500 1.478 . S
C499 H493 0.930 . S
C499 C495 1.400 . S
C499 C498 1.385 . S
C500 C498 1.478 . S
C500 C502 1.381 . S
C500 C506 1.383 . S
C501 C497 1.495 . S
C501 H507 0.959 . S
C501 H508 0.961 . S
C501 H509 0.960 . S
C502 C500 1.381 . S
C502 C503 1.394 . S
C502 H510 0.930 . S
C503 C502 1.394 . S
C503 C504 1.383 . S
C503 H511 0.929 . S
C504 C503 1.383 . S
C504 C505 1.377 . S
C505 H489 0.930 . S
C505 C504 1.377 . S
C505 C506 1.379 . S
C506 H490 0.931 . S
C506 C500 1.383 . S
C506 C505 1.379 . S
H507 C501 0.959 . S
H508 C501 0.961 . S
H509 C501 0.960 . S
H510 C502 0.930 . S
H511 C503 0.929 . S
H512 C520 0.929 . S
H513 C522 0.930 . S
H514 C524 0.930 . S
H515 C527 0.929 . S
H516 C530 0.930 . S
H517 C532 0.960 . S
H518 C532 0.960 . S
H519 C532 0.960 . S
C520 H512 0.929 . S
C520 C521 1.377 . S
C520 C522 1.384 . S
C521 C520 1.377 . S
C521 C527 1.390 . S
C522 H513 0.930 . S
C522 C520 1.384 . S
C522 C523 1.372 . S
C523 C522 1.372 . S
C523 C524 1.400 . S
C523 C528 1.490 . S
C524 H514 0.930 . S
C524 C523 1.400 . S
C524 C527 1.386 . S
H525 C541 0.930 . S
H526 C542 0.931 . S
C527 H515 0.929 . S
C527 C521 1.390 . S
C527 C524 1.386 . S
C528 C523 1.490 . S
C528 C530 1.395 . S
C528 C531 1.403 . S
H529 C535 0.930 . S
C530 H516 0.930 . S
C530 C528 1.395 . S
C530 C533 1.403 . S
C531 C528 1.403 . S
C531 C532 1.524 . S
C531 C535 1.400 . S
C532 H517 0.960 . S
C532 H518 0.960 . S
C532 H519 0.960 . S
C532 C531 1.524 . S
C533 C530 1.403 . S
C533 C534 1.392 . S
C533 C537 1.495 . S
C534 C533 1.392 . S
C534 C535 1.385 . S
C534 C536 1.478 . S
C535 H529 0.930 . S
C535 C531 1.400 . S
C535 C534 1.385 . S
C536 C534 1.478 . S
C536 C538 1.381 . S
C536 C542 1.383 1_565 S
C537 C533 1.495 . S
C537 H543 0.959 . S
C537 H544 0.961 1_565 S
C537 H545 0.960 . S
C538 C536 1.381 . S
C538 C539 1.394 . S
C538 H546 0.930 . S
C539 C538 1.394 . S
C539 C540 1.383 1_565 S
C539 H547 0.929 . S
C540 C539 1.383 1_545 S
C540 C541 1.377 . S
C541 H525 0.930 . S
C541 C540 1.377 . S
C541 C542 1.379 . S
C542 H526 0.931 . S
C542 C536 1.383 1_545 S
C542 C541 1.379 . S
H543 C537 0.959 . S
H544 C537 0.961 1_545 S
H545 C537 0.960 . S
H546 C538 0.930 . S
H547 C539 0.929 . S
H548 C556 0.929 . S
H549 C558 0.930 . S
H550 C560 0.930 . S
H551 C563 0.929 . S
H552 C566 0.930 . S
H553 C568 0.960 . S
H554 C568 0.960 . S
H555 C568 0.960 . S
C556 H548 0.929 . S
C556 C557 1.377 . S
C556 C558 1.384 . S
C557 C556 1.377 . S
C557 C563 1.390 . S
C558 H549 0.930 . S
C558 C556 1.384 . S
C558 C559 1.372 . S
C559 C558 1.372 . S
C559 C560 1.400 . S
C559 C564 1.490 . S
C560 H550 0.930 . S
C560 C559 1.400 . S
C560 C563 1.386 . S
H561 C577 0.930 . S
H562 C578 0.931 . S
C563 H551 0.929 . S
C563 C557 1.390 . S
C563 C560 1.386 . S
C564 C559 1.490 . S
C564 C566 1.395 . S
C564 C567 1.403 . S
H565 C571 0.930 . S
C566 H552 0.930 . S
C566 C564 1.395 . S
C566 C569 1.403 . S
C567 C564 1.403 . S
C567 C568 1.524 . S
C567 C571 1.400 . S
C568 H553 0.960 . S
C568 H554 0.960 . S
C568 H555 0.960 . S
C568 C567 1.524 . S
C569 C566 1.403 . S
C569 C570 1.392 . S
C569 C573 1.495 . S
C570 C569 1.392 . S
C570 C571 1.385 . S
C570 C572 1.478 . S
C571 H565 0.930 . S
C571 C567 1.400 . S
C571 C570 1.385 . S
C572 C570 1.478 . S
C572 C574 1.381 . S
C572 C578 1.383 . S
C573 C569 1.495 . S
C573 H579 0.959 . S
C573 H580 0.961 . S
C573 H581 0.960 . S
C574 C572 1.381 . S
C574 C575 1.394 . S
C574 H582 0.930 . S
C575 C574 1.394 . S
C575 C576 1.383 . S
C575 H583 0.929 . S
C576 C575 1.383 . S
C576 C577 1.377 . S
C577 H561 0.930 . S
C577 C576 1.377 . S
C577 C578 1.379 . S
C578 H562 0.931 . S
C578 C572 1.383 . S
C578 C577 1.379 . S
H579 C573 0.959 . S
H580 C573 0.961 . S
H581 C573 0.960 . S
H582 C574 0.930 . S
H583 C575 0.929 . S
H584 C592 0.929 . S
H585 C594 0.930 . S
H586 C596 0.930 . S
H587 C599 0.929 . S
H588 C602 0.930 . S
H589 C604 0.960 . S
H590 C604 0.960 . S
H591 C604 0.960 . S
C592 H584 0.929 . S
C592 C593 1.377 . S
C592 C594 1.384 . S
C593 C592 1.377 . S
C593 C599 1.390 . S
C594 H585 0.930 . S
C594 C592 1.384 . S
C594 C595 1.372 . S
C595 C594 1.372 . S
C595 C596 1.400 . S
C595 C600 1.490 . S
C596 H586 0.930 . S
C596 C595 1.400 . S
C596 C599 1.386 . S
H597 C613 0.930 . S
H598 C614 0.931 . S
C599 H587 0.929 . S
C599 C593 1.390 . S
C599 C596 1.386 . S
C600 C595 1.490 . S
C600 C602 1.395 . S
C600 C603 1.403 . S
H601 C607 0.930 . S
C602 H588 0.930 . S
C602 C600 1.395 . S
C602 C605 1.403 . S
C603 C600 1.403 . S
C603 C604 1.524 . S
C603 C607 1.400 . S
C604 H589 0.960 . S
C604 H590 0.960 . S
C604 H591 0.960 . S
C604 C603 1.524 . S
C605 C602 1.403 . S
C605 C606 1.392 . S
C605 C609 1.495 . S
C606 C605 1.392 . S
C606 C607 1.385 . S
C606 C608 1.478 . S
C607 H601 0.930 . S
C607 C603 1.400 . S
C607 C606 1.385 . S
C608 C606 1.478 . S
C608 C610 1.381 . S
C608 C614 1.383 . S
C609 C605 1.495 . S
C609 H615 0.959 . S
C609 H616 0.961 . S
C609 H617 0.960 . S
C610 C608 1.381 . S
C610 C611 1.394 . S
C610 H618 0.930 . S
C611 C610 1.394 . S
C611 C612 1.383 . S
C611 H619 0.929 . S
C612 C611 1.383 . S
C612 C613 1.377 . S
C613 H597 0.930 . S
C613 C612 1.377 . S
C613 C614 1.379 . S
C614 H598 0.931 . S
C614 C608 1.383 . S
C614 C613 1.379 . S
H615 C609 0.959 . S
H616 C609 0.961 . S
H617 C609 0.960 . S
H618 C610 0.930 . S
H619 C611 0.929 . S
H620 C628 0.929 . S
H621 C630 0.930 . S
H622 C632 0.930 . S
H623 C635 0.929 . S
H624 C638 0.930 . S
H625 C640 0.960 . S
H626 C640 0.960 . S
H627 C640 0.960 1_455 S
C628 H620 0.929 . S
C628 C629 1.377 1_655 S
C628 C630 1.384 . S
C629 C628 1.377 1_455 S
C629 C635 1.390 . S
C630 H621 0.930 . S
C630 C628 1.384 . S
C630 C631 1.372 . S
C631 C630 1.372 . S
C631 C632 1.400 1_655 S
C631 C636 1.490 . S
C632 H622 0.930 . S
C632 C631 1.400 1_455 S
C632 C635 1.386 . S
H633 C649 0.930 . S
H634 C650 0.931 . S
C635 H623 0.929 . S
C635 C629 1.390 . S
C635 C632 1.386 . S
C636 C631 1.490 . S
C636 C638 1.395 . S
C636 C639 1.403 . S
H637 C643 0.930 . S
C638 H624 0.930 . S
C638 C636 1.395 . S
C638 C641 1.403 . S
C639 C636 1.403 . S
C639 C640 1.524 . S
C639 C643 1.400 . S
C640 H625 0.960 . S
C640 H626 0.960 . S
C640 H627 0.960 1_655 S
C640 C639 1.524 . S
C641 C638 1.403 . S
C641 C642 1.392 . S
C641 C645 1.495 . S
C642 C641 1.392 . S
C642 C643 1.385 . S
C642 C644 1.478 . S
C643 H637 0.930 . S
C643 C639 1.400 . S
C643 C642 1.385 . S
C644 C642 1.478 . S
C644 C646 1.381 . S
C644 C650 1.383 . S
C645 C641 1.495 . S
C645 H651 0.959 . S
C645 H652 0.961 . S
C645 H653 0.960 . S
C646 C644 1.381 . S
C646 C647 1.394 . S
C646 H654 0.930 . S
C647 C646 1.394 . S
C647 C648 1.383 . S
C647 H655 0.929 . S
C648 C647 1.383 . S
C648 C649 1.377 . S
C649 H633 0.930 . S
C649 C648 1.377 . S
C649 C650 1.379 . S
C650 H634 0.931 . S
C650 C644 1.383 . S
C650 C649 1.379 . S
H651 C645 0.959 . S
H652 C645 0.961 . S
H653 C645 0.960 . S
H654 C646 0.930 . S
H655 C647 0.929 . S
H656 C664 0.929 . S
H657 C666 0.930 . S
H658 C668 0.930 . S
H659 C671 0.929 . S
H660 C674 0.930 . S
H661 C676 0.960 . S
H662 C676 0.960 . S
H663 C676 0.960 . S
C664 H656 0.929 . S
C664 C665 1.377 . S
C664 C666 1.384 . S
C665 C664 1.377 . S
C665 C671 1.390 . S
C666 H657 0.930 . S
C666 C664 1.384 . S
C666 C667 1.372 . S
C667 C666 1.372 . S
C667 C668 1.400 . S
C667 C672 1.490 . S
C668 H658 0.930 . S
C668 C667 1.400 . S
C668 C671 1.386 . S
H669 C685 0.930 . S
H670 C686 0.931 . S
C671 H659 0.929 . S
C671 C665 1.390 . S
C671 C668 1.386 . S
C672 C667 1.490 . S
C672 C674 1.395 . S
C672 C675 1.403 . S
H673 C679 0.930 . S
C674 H660 0.930 . S
C674 C672 1.395 . S
C674 C677 1.403 . S
C675 C672 1.403 . S
C675 C676 1.524 . S
C675 C679 1.400 . S
C676 H661 0.960 . S
C676 H662 0.960 . S
C676 H663 0.960 . S
C676 C675 1.524 . S
C677 C674 1.403 . S
C677 C678 1.392 . S
C677 C681 1.495 . S
C678 C677 1.392 . S
C678 C679 1.385 . S
C678 C680 1.478 . S
C679 H673 0.930 . S
C679 C675 1.400 . S
C679 C678 1.385 . S
C680 C678 1.478 . S
C680 C682 1.381 . S
C680 C686 1.383 . S
C681 C677 1.495 . S
C681 H687 0.959 . S
C681 H688 0.961 . S
C681 H689 0.960 . S
C682 C680 1.381 . S
C682 C683 1.394 . S
C682 H690 0.930 . S
C683 C682 1.394 . S
C683 C684 1.383 . S
C683 H691 0.929 . S
C684 C683 1.383 . S
C684 C685 1.377 . S
C685 H669 0.930 . S
C685 C684 1.377 . S
C685 C686 1.379 . S
C686 H670 0.931 . S
C686 C680 1.383 . S
C686 C685 1.379 . S
H687 C681 0.959 . S
H688 C681 0.961 . S
H689 C681 0.960 . S
H690 C682 0.930 . S
H691 C683 0.929 . S
H692 C700 0.929 . S
H693 C702 0.930 . S
H694 C704 0.930 . S
H695 C707 0.929 . S
H696 C710 0.930 1_655 S
H697 C712 0.960 . S
H698 C712 0.960 . S
H699 C712 0.960 . S
C700 H692 0.929 . S
C700 C701 1.377 . S
C700 C702 1.384 . S
C701 C700 1.377 . S
C701 C707 1.390 1_655 S
C702 H693 0.930 . S
C702 C700 1.384 . S
C702 C703 1.372 1_655 S
C703 C702 1.372 1_455 S
C703 C704 1.400 . S
C703 C708 1.490 . S
C704 H694 0.930 . S
C704 C703 1.400 . S
C704 C707 1.386 . S
H705 C721 0.930 . S
H706 C722 0.931 . S
C707 H695 0.929 . S
C707 C701 1.390 1_455 S
C707 C704 1.386 . S
C708 C703 1.490 . S
C708 C710 1.395 . S
C708 C711 1.403 . S
H709 C715 0.930 . S
C710 H696 0.930 1_455 S
C710 C708 1.395 . S
C710 C713 1.403 . S
C711 C708 1.403 . S
C711 C712 1.524 . S
C711 C715 1.400 . S
C712 H697 0.960 . S
C712 H698 0.960 . S
C712 H699 0.960 . S
C712 C711 1.524 . S
C713 C710 1.403 . S
C713 C714 1.392 . S
C713 C717 1.507 . S
C714 C713 1.392 . S
C714 C715 1.385 . S
C714 C716 1.478 . S
C715 H709 0.930 . S
C715 C711 1.400 . S
C715 C714 1.385 . S
C716 C714 1.478 . S
C716 C718 1.381 . S
C716 C722 1.383 . S
C717 C713 1.507 . S
C717 H723 0.941 1_455 S
C717 H724 0.966 . S
C717 H725 0.962 . S
C718 C716 1.381 . S
C718 C719 1.394 . S
C718 H726 0.930 . S
C719 C718 1.394 . S
C719 C720 1.383 . S
C719 H727 0.929 . S
C720 C719 1.383 . S
C720 C721 1.377 . S
C721 H705 0.930 . S
C721 C720 1.377 . S
C721 C722 1.379 . S
C722 H706 0.931 . S
C722 C716 1.383 . S
C722 C721 1.379 . S
H723 C717 0.941 1_655 S
H724 C717 0.966 . S
H725 C717 0.962 . S
H726 C718 0.930 . S
H727 C719 0.929 . S
H728 C736 0.929 . S
H729 C738 0.930 . S
H730 C740 0.930 . S
H731 C743 0.929 . S
H732 C746 0.930 1_565 S
H733 C748 0.960 . S
H734 C748 0.960 . S
H735 C748 0.960 . S
C736 H728 0.929 . S
C736 C737 1.377 . S
C736 C738 1.384 . S
C737 C736 1.377 . S
C737 C743 1.390 1_565 S
C738 H729 0.930 . S
C738 C736 1.384 . S
C738 C739 1.372 1_565 S
C739 C738 1.372 1_545 S
C739 C740 1.400 . S
C739 C744 1.490 . S
C740 H730 0.930 . S
C740 C739 1.400 . S
C740 C743 1.386 . S
H741 C757 0.930 . S
H742 C758 0.931 . S
C743 H731 0.929 . S
C743 C737 1.390 1_545 S
C743 C740 1.386 . S
C744 C739 1.490 . S
C744 C746 1.395 . S
C744 C747 1.403 . S
H745 C751 0.930 . S
C746 H732 0.930 1_545 S
C746 C744 1.395 . S
C746 C749 1.403 . S
C747 C744 1.403 . S
C747 C748 1.524 . S
C747 C751 1.400 . S
C748 H733 0.960 . S
C748 H734 0.960 . S
C748 H735 0.960 . S
C748 C747 1.524 . S
C749 C746 1.403 . S
C749 C750 1.392 . S
C749 C753 1.507 . S
C750 C749 1.392 . S
C750 C751 1.385 . S
C750 C752 1.478 . S
C751 H745 0.930 . S
C751 C747 1.400 . S
C751 C750 1.385 . S
C752 C750 1.478 . S
C752 C754 1.381 . S
C752 C758 1.383 . S
C753 C749 1.507 . S
C753 H759 0.941 1_545 S
C753 H760 0.963 . S
C753 H761 0.964 . S
C754 C752 1.381 . S
C754 C755 1.394 . S
C754 H762 0.930 . S
C755 C754 1.394 . S
C755 C756 1.383 . S
C755 H763 0.929 . S
C756 C755 1.383 . S
C756 C757 1.377 . S
C757 H741 0.930 . S
C757 C756 1.377 . S
C757 C758 1.379 . S
C758 H742 0.931 . S
C758 C752 1.383 . S
C758 C757 1.379 . S
H759 C753 0.941 1_565 S
H760 C753 0.963 . S
H761 C753 0.964 . S
H762 C754 0.930 . S
H763 C755 0.929 . S
H764 C772 0.929 . S
H765 C774 0.930 . S
H766 C776 0.930 . S
H767 C779 0.929 . S
H768 C782 0.930 . S
H769 C784 0.960 . S
H770 C784 0.960 . S
H771 C784 0.960 . S
C772 H764 0.929 . S
C772 C773 1.377 . S
C772 C774 1.384 . S
C773 C772 1.377 . S
C773 C779 1.390 . S
C774 H765 0.930 . S
C774 C772 1.384 . S
C774 C775 1.372 . S
C775 C774 1.372 . S
C775 C776 1.400 . S
C775 C780 1.490 . S
C776 H766 0.930 . S
C776 C775 1.400 . S
C776 C779 1.386 . S
H777 C793 0.930 . S
H778 C794 0.931 . S
C779 H767 0.929 . S
C779 C773 1.390 . S
C779 C776 1.386 . S
C780 C775 1.490 . S
C780 C782 1.395 . S
C780 C783 1.403 . S
H781 C787 0.930 . S
C782 H768 0.930 . S
C782 C780 1.395 . S
C782 C785 1.403 . S
C783 C780 1.403 . S
C783 C784 1.524 . S
C783 C787 1.400 . S
C784 H769 0.960 . S
C784 H770 0.960 . S
C784 H771 0.960 . S
C784 C783 1.524 . S
C785 C782 1.403 . S
C785 C786 1.392 . S
C785 C789 1.495 . S
C786 C785 1.392 . S
C786 C787 1.385 . S
C786 C788 1.478 . S
C787 H781 0.930 . S
C787 C783 1.400 . S
C787 C786 1.385 . S
C788 C786 1.478 . S
C788 C790 1.381 . S
C788 C794 1.383 . S
C789 C785 1.495 . S
C789 H795 0.959 . S
C789 H796 0.961 . S
C789 H797 0.960 . S
C790 C788 1.381 . S
C790 C791 1.394 . S
C790 H798 0.930 . S
C791 C790 1.394 . S
C791 C792 1.383 . S
C791 H799 0.929 . S
C792 C791 1.383 . S
C792 C793 1.377 . S
C793 H777 0.930 . S
C793 C792 1.377 . S
C793 C794 1.379 . S
C794 H778 0.931 . S
C794 C788 1.383 . S
C794 C793 1.379 . S
H795 C789 0.959 . S
H796 C789 0.961 . S
H797 C789 0.960 . S
H798 C790 0.930 . S
H799 C791 0.929 . S
H800 C808 0.929 . S
H801 C810 0.930 . S
H802 C812 0.930 . S
H803 C815 0.929 . S
H804 C818 0.930 . S
H805 C820 0.960 . S
H806 C820 0.960 . S
H807 C820 0.960 . S
C808 H800 0.929 . S
C808 C809 1.377 . S
C808 C810 1.384 . S
C809 C808 1.377 . S
C809 C815 1.390 . S
C810 H801 0.930 . S
C810 C808 1.384 . S
C810 C811 1.372 . S
C811 C810 1.372 . S
C811 C812 1.400 . S
C811 C816 1.490 . S
C812 H802 0.930 . S
C812 C811 1.400 . S
C812 C815 1.386 . S
H813 C829 0.930 . S
H814 C830 0.931 . S
C815 H803 0.929 . S
C815 C809 1.390 . S
C815 C812 1.386 . S
C816 C811 1.490 . S
C816 C818 1.395 . S
C816 C819 1.403 . S
H817 C823 0.930 . S
C818 H804 0.930 . S
C818 C816 1.395 . S
C818 C821 1.403 . S
C819 C816 1.403 . S
C819 C820 1.524 . S
C819 C823 1.400 . S
C820 H805 0.960 . S
C820 H806 0.960 . S
C820 H807 0.960 . S
C820 C819 1.524 . S
C821 C818 1.403 . S
C821 C822 1.392 . S
C821 C825 1.495 . S
C822 C821 1.392 . S
C822 C823 1.385 . S
C822 C824 1.478 . S
C823 H817 0.930 . S
C823 C819 1.400 . S
C823 C822 1.385 . S
C824 C822 1.478 . S
C824 C826 1.381 1_545 S
C824 C830 1.383 . S
C825 C821 1.495 . S
C825 H831 0.959 . S
C825 H832 0.961 . S
C825 H833 0.960 1_545 S
C826 C824 1.381 1_565 S
C826 C827 1.394 . S
C826 H834 0.930 . S
C827 C826 1.394 . S
C827 C828 1.383 . S
C827 H835 0.929 . S
C828 C827 1.383 . S
C828 C829 1.377 1_565 S
C829 H813 0.930 . S
C829 C828 1.377 1_545 S
C829 C830 1.379 . S
C830 H814 0.931 . S
C830 C824 1.383 . S
C830 C829 1.379 . S
H831 C825 0.959 . S
H832 C825 0.961 . S
H833 C825 0.960 1_565 S
H834 C826 0.930 . S
H835 C827 0.929 . S
H836 C844 0.929 . S
H837 C846 0.930 . S
H838 C848 0.930 . S
H839 C851 0.929 . S
H840 C854 0.930 . S
H841 C856 0.960 . S
H842 C856 0.960 . S
H843 C856 0.960 . S
C844 H836 0.929 . S
C844 C845 1.377 . S
C844 C846 1.384 . S
C845 C844 1.377 . S
C845 C851 1.390 . S
C846 H837 0.930 . S
C846 C844 1.384 . S
C846 C847 1.372 . S
C847 C846 1.372 . S
C847 C848 1.400 . S
C847 C852 1.490 . S
C848 H838 0.930 . S
C848 C847 1.400 . S
C848 C851 1.386 . S
H849 C865 0.930 . S
H850 C866 0.931 . S
C851 H839 0.929 . S
C851 C845 1.390 . S
C851 C848 1.386 . S
C852 C847 1.490 . S
C852 C854 1.395 . S
C852 C855 1.403 . S
H853 C859 0.930 . S
C854 H840 0.930 . S
C854 C852 1.395 . S
C854 C857 1.403 . S
C855 C852 1.403 . S
C855 C856 1.524 . S
C855 C859 1.400 . S
C856 H841 0.960 . S
C856 H842 0.960 . S
C856 H843 0.960 . S
C856 C855 1.524 . S
C857 C854 1.403 . S
C857 C858 1.392 . S
C857 C861 1.495 . S
C858 C857 1.392 . S
C858 C859 1.385 . S
C858 C860 1.478 . S
C859 H853 0.930 . S
C859 C855 1.400 . S
C859 C858 1.385 . S
C860 C858 1.478 . S
C860 C862 1.381 . S
C860 C866 1.383 . S
C861 C857 1.495 . S
C861 H867 0.959 . S
C861 H868 0.961 . S
C861 H869 0.960 . S
C862 C860 1.381 . S
C862 C863 1.394 . S
C862 H870 0.930 . S
C863 C862 1.394 . S
C863 C864 1.383 . S
C863 H871 0.929 . S
C864 C863 1.383 . S
C864 C865 1.377 . S
C865 H849 0.930 . S
C865 C864 1.377 . S
C865 C866 1.379 . S
C866 H850 0.931 . S
C866 C860 1.383 . S
C866 C865 1.379 . S
H867 C861 0.959 . S
H868 C861 0.961 . S
H869 C861 0.960 . S
H870 C862 0.930 . S
H871 C863 0.929 . S
H872 C880 0.929 . S
H873 C882 0.930 . S
H874 C884 0.930 . S
H875 C887 0.929 . S
H876 C890 0.930 . S
H877 C892 0.960 . S
H878 C892 0.960 . S
H879 C892 0.960 . S
C880 H872 0.929 . S
C880 C881 1.377 . S
C880 C882 1.384 . S
C881 C880 1.377 . S
C881 C887 1.390 . S
C882 H873 0.930 . S
C882 C880 1.384 . S
C882 C883 1.372 . S
C883 C882 1.372 . S
C883 C884 1.400 . S
C883 C888 1.490 . S
C884 H874 0.930 . S
C884 C883 1.400 . S
C884 C887 1.386 . S
H885 C901 0.930 . S
H886 C902 0.931 . S
C887 H875 0.929 . S
C887 C881 1.390 . S
C887 C884 1.386 . S
C888 C883 1.490 . S
C888 C890 1.395 . S
C888 C891 1.403 . S
H889 C895 0.930 . S
C890 H876 0.930 . S
C890 C888 1.395 . S
C890 C893 1.403 . S
C891 C888 1.403 . S
C891 C892 1.524 . S
C891 C895 1.400 . S
C892 H877 0.960 . S
C892 H878 0.960 . S
C892 H879 0.960 . S
C892 C891 1.524 . S
C893 C890 1.403 . S
C893 C894 1.392 . S
C893 C897 1.495 . S
C894 C893 1.392 . S
C894 C895 1.385 . S
C894 C896 1.478 . S
C895 H889 0.930 . S
C895 C891 1.400 . S
C895 C894 1.385 . S
C896 C894 1.478 . S
C896 C898 1.381 . S
C896 C902 1.383 . S
C897 C893 1.495 . S
C897 H903 0.959 . S
C897 H904 0.961 . S
C897 H905 0.960 . S
C898 C896 1.381 . S
C898 C899 1.394 . S
C898 H906 0.930 . S
C899 C898 1.394 . S
C899 C900 1.383 . S
C899 H907 0.929 . S
C900 C899 1.383 . S
C900 C901 1.377 . S
C901 H885 0.930 . S
C901 C900 1.377 . S
C901 C902 1.379 . S
C902 H886 0.931 . S
C902 C896 1.383 . S
C902 C901 1.379 . S
H903 C897 0.959 . S
H904 C897 0.961 . S
H905 C897 0.960 . S
H906 C898 0.930 . S
H907 C899 0.929 . S
H908 C916 0.929 . S
H909 C918 0.930 . S
H910 C920 0.930 . S
H911 C923 0.929 . S
H912 C926 0.930 . S
H913 C928 0.960 . S
H914 C928 0.960 . S
H915 C928 0.960 . S
C916 H908 0.929 . S
C916 C917 1.377 . S
C916 C918 1.384 . S
C917 C916 1.377 . S
C917 C923 1.390 . S
C918 H909 0.930 . S
C918 C916 1.384 . S
C918 C919 1.372 . S
C919 C918 1.372 . S
C919 C920 1.400 . S
C919 C924 1.490 . S
C920 H910 0.930 . S
C920 C919 1.400 . S
C920 C923 1.386 . S
H921 C937 0.930 . S
H922 C938 0.931 . S
C923 H911 0.929 . S
C923 C917 1.390 . S
C923 C920 1.386 . S
C924 C919 1.490 . S
C924 C926 1.395 . S
C924 C927 1.403 . S
H925 C931 0.930 . S
C926 H912 0.930 . S
C926 C924 1.395 . S
C926 C929 1.403 . S
C927 C924 1.403 . S
C927 C928 1.524 . S
C927 C931 1.400 . S
C928 H913 0.960 . S
C928 H914 0.960 . S
C928 H915 0.960 . S
C928 C927 1.524 . S
C929 C926 1.403 . S
C929 C930 1.392 . S
C929 C933 1.495 1_455 S
C930 C929 1.392 . S
C930 C931 1.385 . S
C930 C932 1.478 . S
C931 H925 0.930 . S
C931 C927 1.400 . S
C931 C930 1.385 . S
C932 C930 1.478 . S
C932 C934 1.381 1_455 S
C932 C938 1.383 . S
C933 C929 1.495 1_655 S
C933 H939 0.959 . S
C933 H940 0.961 . S
C933 H941 0.960 . S
C934 C932 1.381 1_655 S
C934 C935 1.394 . S
C934 H942 0.930 . S
C935 C934 1.394 . S
C935 C936 1.383 . S
C935 H943 0.929 . S
C936 C935 1.383 . S
C936 C937 1.377 . S
C937 H921 0.930 . S
C937 C936 1.377 . S
C937 C938 1.379 1_655 S
C938 H922 0.931 . S
C938 C932 1.383 . S
C938 C937 1.379 1_455 S
H939 C933 0.959 . S
H940 C933 0.961 . S
H941 C933 0.960 . S
H942 C934 0.930 . S
H943 C935 0.929 . S
H944 C952 0.929 . S
H945 C954 0.930 . S
H946 C956 0.934 . S
H947 C959 0.962 . S
H948 C962 0.930 . S
H949 C964 0.960 . S
H950 C964 0.960 . S
H951 C964 0.960 1_655 S
C952 H944 0.929 . S
C952 C953 1.377 . S
C952 C954 1.384 . S
C953 C952 1.377 . S
C953 C959 1.358 1_455 S
C954 H945 0.930 . S
C954 C952 1.384 . S
C954 C955 1.372 . S
C955 C954 1.372 . S
C955 C956 1.396 1_455 S
C955 C960 1.490 . S
C956 H946 0.934 . S
C956 C955 1.396 1_655 S
C956 C959 1.385 . S
H957 C973 0.930 . S
H958 C974 0.961 . S
C959 H947 0.962 . S
C959 C953 1.358 1_655 S
C959 C956 1.385 . S
C960 C955 1.490 . S
C960 C962 1.395 . S
C960 C963 1.403 . S
H961 C967 0.930 . S
C962 H948 0.930 . S
C962 C960 1.395 . S
C962 C965 1.403 . S
C963 C960 1.403 . S
C963 C964 1.524 . S
C963 C967 1.400 . S
C964 H949 0.960 . S
C964 H950 0.960 . S
C964 H951 0.960 1_455 S
C964 C963 1.524 . S
C965 C962 1.403 . S
C965 C966 1.392 . S
C965 C969 1.495 . S
C966 C965 1.392 . S
C966 C967 1.385 . S
C966 C968 1.478 . S
C967 H961 0.930 . S
C967 C963 1.400 . S
C967 C966 1.385 . S
C968 C966 1.478 . S
C968 C970 1.381 . S
C968 C974 1.352 1_455 S
C969 C965 1.495 . S
C969 H975 0.959 . S
C969 H976 0.961 . S
C969 H977 0.960 . S
C970 C968 1.381 . S
C970 C971 1.394 . S
C970 H978 0.930 . S
C971 C970 1.394 . S
C971 C972 1.383 . S
C971 H979 0.929 . S
C972 C971 1.383 . S
C972 C973 1.377 1_455 S
C973 H957 0.930 . S
C973 C972 1.377 1_655 S
C973 C974 1.381 . S
C974 H958 0.961 . S
C974 C968 1.352 1_655 S
C974 C973 1.381 . S
H975 C969 0.959 . S
H976 C969 0.961 . S
H977 C969 0.960 . S
H978 C970 0.930 . S
H979 C971 0.929 . S
H980 C988 0.929 . S
H981 C990 0.930 . S
H982 C992 0.930 . S
H983 C995 0.929 . S
H984 C998 0.930 . S
H985 C1000 0.971 . S
H986 C1000 0.940 1_545 S
H987 C1000 0.982 . S
C988 H980 0.929 . S
C988 C989 1.377 . S
C988 C990 1.384 . S
C989 C988 1.377 . S
C989 C995 1.390 1_545 S
C990 H981 0.930 . S
C990 C988 1.384 . S
C990 C991 1.372 . S
C991 C990 1.372 . S
C991 C992 1.400 1_545 S
C991 C996 1.490 . S
C992 H982 0.930 . S
C992 C991 1.400 1_565 S
C992 C995 1.386 . S
H993 C1009 0.956 . S
H994 C1010 0.923 1_565 S
C995 H983 0.929 . S
C995 C989 1.390 1_565 S
C995 C992 1.386 . S
C996 C991 1.490 . S
C996 C998 1.395 . S
C996 C999 1.403 . S
H997 C1003 0.930 . S
C998 H984 0.930 . S
C998 C996 1.395 . S
C998 C1001 1.403 . S
C999 C996 1.403 . S
C999 C1000 1.512 1_545 S
C999 C1003 1.400 . S
C1000 H985 0.971 . S
C1000 H986 0.940 1_565 S
C1000 H987 0.982 . S
C1000 C999 1.512 1_565 S
C1001 C998 1.403 . S
C1001 C1002 1.392 . S
C1001 C1005 1.495 . S
C1002 C1001 1.392 . S
C1002 C1003 1.385 . S
C1002 C1004 1.478 . S
C1003 H997 0.930 . S
C1003 C999 1.400 . S
C1003 C1002 1.385 . S
C1004 C1002 1.478 . S
C1004 C1006 1.381 . S
C1004 C1010 1.390 . S
C1005 C1001 1.495 . S
C1005 H1011 0.959 . S
C1005 H1012 0.961 . S
C1005 H1013 0.960 . S
C1006 C1004 1.381 . S
C1006 C1007 1.394 . S
C1006 H1014 0.930 . S
C1007 C1006 1.394 . S
C1007 C1008 1.383 . S
C1007 H1015 0.929 . S
C1008 C1007 1.383 . S
C1008 C1009 1.352 1_545 S
C1009 H993 0.956 . S
C1009 C1008 1.352 1_565 S
C1009 C1010 1.379 1_565 S
C1010 H994 0.923 1_545 S
C1010 C1004 1.390 . S
C1010 C1009 1.379 1_545 S
H1011 C1005 0.959 . S
H1012 C1005 0.961 . S
H1013 C1005 0.960 . S
H1014 C1006 0.930 . S
H1015 C1007 0.929 . S
H1016 C1024 0.929 . S
H1017 C1026 0.930 . S
H1018 C1028 0.930 . S
H1019 C1031 0.929 . S
H1020 C1034 0.930 . S
H1021 C1036 0.960 . S
H1022 C1036 0.960 . S
H1023 C1036 0.960 . S
C1024 H1016 0.929 . S
C1024 C1025 1.377 . S
C1024 C1026 1.384 . S
C1025 C1024 1.377 . S
C1025 C1031 1.390 . S
C1026 H1017 0.930 . S
C1026 C1024 1.384 . S
C1026 C1027 1.372 . S
C1027 C1026 1.372 . S
C1027 C1028 1.400 . S
C1027 C1032 1.490 . S
C1028 H1018 0.930 . S
C1028 C1027 1.400 . S
C1028 C1031 1.386 . S
H1029 C1045 0.930 . S
H1030 C1046 0.931 . S
C1031 H1019 0.929 . S
C1031 C1025 1.390 . S
C1031 C1028 1.386 . S
C1032 C1027 1.490 . S
C1032 C1034 1.395 . S
C1032 C1035 1.403 . S
H1033 C1039 0.930 . S
C1034 H1020 0.930 . S
C1034 C1032 1.395 . S
C1034 C1037 1.403 . S
C1035 C1032 1.403 . S
C1035 C1036 1.524 . S
C1035 C1039 1.400 . S
C1036 H1021 0.960 . S
C1036 H1022 0.960 . S
C1036 H1023 0.960 . S
C1036 C1035 1.524 . S
C1037 C1034 1.403 . S
C1037 C1038 1.392 . S
C1037 C1041 1.495 . S
C1038 C1037 1.392 . S
C1038 C1039 1.385 . S
C1038 C1040 1.478 . S
C1039 H1033 0.930 . S
C1039 C1035 1.400 . S
C1039 C1038 1.385 . S
C1040 C1038 1.478 . S
C1040 C1042 1.381 . S
C1040 C1046 1.383 . S
C1041 C1037 1.495 . S
C1041 H1047 0.959 . S
C1041 H1048 0.961 . S
C1041 H1049 0.960 . S
C1042 C1040 1.381 . S
C1042 C1043 1.394 . S
C1042 H1050 0.930 . S
C1043 C1042 1.394 . S
C1043 C1044 1.383 . S
C1043 H1051 0.929 . S
C1044 C1043 1.383 . S
C1044 C1045 1.377 . S
C1045 H1029 0.930 . S
C1045 C1044 1.377 . S
C1045 C1046 1.379 . S
C1046 H1030 0.931 . S
C1046 C1040 1.383 . S
C1046 C1045 1.379 . S
H1047 C1041 0.959 . S
H1048 C1041 0.961 . S
H1049 C1041 0.960 . S
H1050 C1042 0.930 . S
H1051 C1043 0.929 . S
H1052 C1060 0.929 . S
H1053 C1062 0.930 . S
H1054 C1064 0.930 . S
H1055 C1067 0.929 . S
H1056 C1070 0.930 . S
H1057 C1072 0.960 . S
H1058 C1072 0.960 . S
H1059 C1072 0.960 . S
C1060 H1052 0.929 . S
C1060 C1061 1.377 . S
C1060 C1062 1.384 . S
C1061 C1060 1.377 . S
C1061 C1067 1.390 . S
C1062 H1053 0.930 . S
C1062 C1060 1.384 . S
C1062 C1063 1.372 . S
C1063 C1062 1.372 . S
C1063 C1064 1.400 . S
C1063 C1068 1.490 . S
C1064 H1054 0.930 . S
C1064 C1063 1.400 . S
C1064 C1067 1.386 . S
H1065 C1081 0.930 . S
H1066 C1082 0.931 . S
C1067 H1055 0.929 . S
C1067 C1061 1.390 . S
C1067 C1064 1.386 . S
C1068 C1063 1.490 . S
C1068 C1070 1.395 . S
C1068 C1071 1.403 . S
H1069 C1075 0.930 . S
C1070 H1056 0.930 . S
C1070 C1068 1.395 . S
C1070 C1073 1.403 . S
C1071 C1068 1.403 . S
C1071 C1072 1.524 . S
C1071 C1075 1.400 . S
C1072 H1057 0.960 . S
C1072 H1058 0.960 . S
C1072 H1059 0.960 . S
C1072 C1071 1.524 . S
C1073 C1070 1.403 . S
C1073 C1074 1.392 . S
C1073 C1077 1.495 . S
C1074 C1073 1.392 . S
C1074 C1075 1.385 . S
C1074 C1076 1.478 . S
C1075 H1069 0.930 . S
C1075 C1071 1.400 . S
C1075 C1074 1.385 . S
C1076 C1074 1.478 . S
C1076 C1078 1.381 . S
C1076 C1082 1.383 . S
C1077 C1073 1.495 . S
C1077 H1083 0.959 . S
C1077 H1084 0.961 . S
C1077 H1085 0.960 . S
C1078 C1076 1.381 . S
C1078 C1079 1.394 . S
C1078 H1086 0.930 . S
C1079 C1078 1.394 . S
C1079 C1080 1.383 . S
C1079 H1087 0.929 . S
C1080 C1079 1.383 . S
C1080 C1081 1.377 . S
C1081 H1065 0.930 . S
C1081 C1080 1.377 . S
C1081 C1082 1.379 . S
C1082 H1066 0.931 . S
C1082 C1076 1.383 . S
C1082 C1081 1.379 . S
H1083 C1077 0.959 . S
H1084 C1077 0.961 . S
H1085 C1077 0.960 . S
H1086 C1078 0.930 . S
H1087 C1079 0.929 . S
H1088 C1096 0.929 . S
H1089 C1098 0.930 . S
H1090 C1100 0.952 . S
H1091 C1103 0.929 . S
H1092 C1106 0.930 . S
H1093 C1108 0.960 . S
H1094 C1108 0.960 . S
H1095 C1108 0.960 . S
C1096 H1088 0.929 . S
C1096 C1097 1.377 . S
C1096 C1098 1.384 . S
C1097 C1096 1.377 . S
C1097 C1103 1.390 1_655 S
C1098 H1089 0.930 . S
C1098 C1096 1.384 . S
C1098 C1099 1.372 . S
C1099 C1098 1.372 . S
C1099 C1100 1.378 1_655 S
C1099 C1104 1.490 . S
C1100 H1090 0.952 . S
C1100 C1099 1.378 1_455 S
C1100 C1103 1.386 . S
H1101 C1117 0.930 1_455 S
H1102 C1118 0.931 1_455 S
C1103 H1091 0.929 . S
C1103 C1097 1.390 1_455 S
C1103 C1100 1.386 . S
C1104 C1099 1.490 . S
C1104 C1106 1.395 . S
C1104 C1107 1.403 . S
H1105 C1111 0.930 1_455 S
C1106 H1092 0.930 . S
C1106 C1104 1.395 . S
C1106 C1109 1.403 . S
C1107 C1104 1.403 . S
C1107 C1108 1.524 1_655 S
C1107 C1111 1.400 . S
C1108 H1093 0.960 . S
C1108 H1094 0.960 . S
C1108 H1095 0.960 . S
C1108 C1107 1.524 1_455 S
C1109 C1106 1.403 . S
C1109 C1110 1.392 . S
C1109 C1113 1.495 . S
C1110 C1109 1.392 . S
C1110 C1111 1.385 . S
C1110 C1112 1.478 . S
C1111 H1105 0.930 1_655 S
C1111 C1107 1.400 . S
C1111 C1110 1.385 . S
C1112 C1110 1.478 . S
C1112 C1114 1.381 . S
C1112 C1118 1.383 . S
C1113 C1109 1.495 . S
C1113 H1119 0.959 . S
C1113 H1120 0.961 . S
C1113 H1121 0.960 . S
C1114 C1112 1.381 . S
C1114 C1115 1.394 . S
C1114 H1122 0.930 . S
C1115 C1114 1.394 . S
C1115 C1116 1.383 . S
C1115 H1123 0.929 . S
C1116 C1115 1.383 . S
C1116 C1117 1.377 . S
C1117 H1101 0.930 1_655 S
C1117 C1116 1.377 . S
C1117 C1118 1.379 . S
C1118 H1102 0.931 1_655 S
C1118 C1112 1.383 . S
C1118 C1117 1.379 . S
H1119 C1113 0.959 . S
H1120 C1113 0.961 . S
H1121 C1113 0.960 . S
H1122 C1114 0.930 . S
H1123 C1115 0.929 . S
H1124 C1132 0.929 . S
H1125 C1134 0.930 . S
H1126 C1136 0.930 . S
H1127 C1139 0.929 . S
H1128 C1142 0.930 . S
H1129 C1144 0.960 . S
H1130 C1144 0.960 . S
H1131 C1144 0.960 1_565 S
C1132 H1124 0.929 . S
C1132 C1133 1.377 . S
C1132 C1134 1.384 . S
C1133 C1132 1.377 . S
C1133 C1139 1.390 . S
C1134 H1125 0.930 . S
C1134 C1132 1.384 . S
C1134 C1135 1.372 . S
C1135 C1134 1.372 . S
C1135 C1136 1.400 . S
C1135 C1140 1.490 . S
C1136 H1126 0.930 . S
C1136 C1135 1.400 . S
C1136 C1139 1.386 . S
H1137 C1153 0.930 . S
H1138 C1154 0.931 . S
C1139 H1127 0.929 . S
C1139 C1133 1.390 . S
C1139 C1136 1.386 . S
C1140 C1135 1.490 . S
C1140 C1142 1.395 . S
C1140 C1143 1.403 . S
H1141 C1147 0.930 . S
C1142 H1128 0.930 . S
C1142 C1140 1.395 . S
C1142 C1145 1.403 . S
C1143 C1140 1.403 . S
C1143 C1144 1.524 1_565 S
C1143 C1147 1.400 . S
C1144 H1129 0.960 . S
C1144 H1130 0.960 . S
C1144 H1131 0.960 1_545 S
C1144 C1143 1.524 1_545 S
C1145 C1142 1.403 . S
C1145 C1146 1.392 . S
C1145 C1149 1.495 . S
C1146 C1145 1.392 . S
C1146 C1147 1.385 . S
C1146 C1148 1.478 . S
C1147 H1141 0.930 . S
C1147 C1143 1.400 . S
C1147 C1146 1.385 . S
C1148 C1146 1.478 . S
C1148 C1150 1.381 . S
C1148 C1154 1.383 . S
C1149 C1145 1.495 . S
C1149 H1155 0.959 . S
C1149 H1156 0.961 . S
C1149 H1157 0.960 . S
C1150 C1148 1.381 . S
C1150 C1151 1.394 . S
C1150 H1158 0.930 . S
C1151 C1150 1.394 . S
C1151 C1152 1.383 . S
C1151 H1159 0.929 . S
C1152 C1151 1.383 . S
C1152 C1153 1.377 . S
C1153 H1137 0.930 . S
C1153 C1152 1.377 . S
C1153 C1154 1.379 . S
C1154 H1138 0.931 . S
C1154 C1148 1.383 . S
C1154 C1153 1.379 . S
H1155 C1149 0.959 . S
H1156 C1149 0.961 . S
H1157 C1149 0.960 . S
H1158 C1150 0.930 . S
H1159 C1151 0.929 . S
H1160 C1168 0.929 . S
H1161 C1170 0.930 . S
H1162 C1172 0.930 . S
H1163 C1175 0.929 . S
H1164 C1178 0.930 . S
H1165 C1180 0.960 . S
H1166 C1180 0.960 . S
H1167 C1180 0.960 . S
C1168 H1160 0.929 . S
C1168 C1169 1.377 . S
C1168 C1170 1.384 . S
C1169 C1168 1.377 . S
C1169 C1175 1.390 . S
C1170 H1161 0.930 . S
C1170 C1168 1.384 . S
C1170 C1171 1.372 . S
C1171 C1170 1.372 . S
C1171 C1172 1.400 . S
C1171 C1176 1.490 . S
C1172 H1162 0.930 . S
C1172 C1171 1.400 . S
C1172 C1175 1.386 . S
H1173 C1189 0.930 . S
H1174 C1190 0.931 . S
C1175 H1163 0.929 . S
C1175 C1169 1.390 . S
C1175 C1172 1.386 . S
C1176 C1171 1.490 . S
C1176 C1178 1.395 . S
C1176 C1179 1.403 . S
H1177 C1183 0.930 . S
C1178 H1164 0.930 . S
C1178 C1176 1.395 . S
C1178 C1181 1.403 . S
C1179 C1176 1.403 . S
C1179 C1180 1.524 . S
C1179 C1183 1.400 . S
C1180 H1165 0.960 . S
C1180 H1166 0.960 . S
C1180 H1167 0.960 . S
C1180 C1179 1.524 . S
C1181 C1178 1.403 . S
C1181 C1182 1.392 . S
C1181 C1185 1.495 . S
C1182 C1181 1.392 . S
C1182 C1183 1.385 . S
C1182 C1184 1.478 . S
C1183 H1177 0.930 . S
C1183 C1179 1.400 . S
C1183 C1182 1.385 . S
C1184 C1182 1.478 . S
C1184 C1186 1.381 . S
C1184 C1190 1.383 . S
C1185 C1181 1.495 . S
C1185 H1191 0.959 . S
C1185 H1192 0.961 . S
C1185 H1193 0.960 . S
C1186 C1184 1.381 . S
C1186 C1187 1.394 . S
C1186 H1194 0.930 . S
C1187 C1186 1.394 . S
C1187 C1188 1.383 . S
C1187 H1195 0.929 . S
C1188 C1187 1.383 . S
C1188 C1189 1.377 . S
C1189 H1173 0.930 . S
C1189 C1188 1.377 . S
C1189 C1190 1.379 . S
C1190 H1174 0.931 . S
C1190 C1184 1.383 . S
C1190 C1189 1.379 . S
H1191 C1185 0.959 . S
H1192 C1185 0.961 . S
H1193 C1185 0.960 . S
H1194 C1186 0.930 . S
H1195 C1187 0.929 . S
H1196 C1204 0.929 . S
H1197 C1206 0.930 . S
H1198 C1208 0.930 . S
H1199 C1211 0.929 . S
H1200 C1214 0.930 . S
H1201 C1216 0.960 . S
H1202 C1216 0.960 . S
H1203 C1216 0.960 . S
C1204 H1196 0.929 . S
C1204 C1205 1.377 . S
C1204 C1206 1.384 . S
C1205 C1204 1.377 . S
C1205 C1211 1.390 . S
C1206 H1197 0.930 . S
C1206 C1204 1.384 . S
C1206 C1207 1.372 . S
C1207 C1206 1.372 . S
C1207 C1208 1.400 . S
C1207 C1212 1.490 . S
C1208 H1198 0.930 . S
C1208 C1207 1.400 . S
C1208 C1211 1.386 . S
H1209 C1225 0.930 . S
H1210 C1226 0.931 . S
C1211 H1199 0.929 . S
C1211 C1205 1.390 . S
C1211 C1208 1.386 . S
C1212 C1207 1.490 . S
C1212 C1214 1.395 . S
C1212 C1215 1.403 . S
H1213 C1219 0.930 . S
C1214 H1200 0.930 . S
C1214 C1212 1.395 . S
C1214 C1217 1.403 . S
C1215 C1212 1.403 . S
C1215 C1216 1.524 . S
C1215 C1219 1.400 . S
C1216 H1201 0.960 . S
C1216 H1202 0.960 . S
C1216 H1203 0.960 . S
C1216 C1215 1.524 . S
C1217 C1214 1.403 . S
C1217 C1218 1.392 . S
C1217 C1221 1.495 . S
C1218 C1217 1.392 . S
C1218 C1219 1.385 . S
C1218 C1220 1.478 . S
C1219 H1213 0.930 . S
C1219 C1215 1.400 . S
C1219 C1218 1.385 . S
C1220 C1218 1.478 . S
C1220 C1222 1.381 . S
C1220 C1226 1.383 . S
C1221 C1217 1.495 . S
C1221 H1227 0.959 . S
C1221 H1228 0.961 . S
C1221 H1229 0.960 . S
C1222 C1220 1.381 . S
C1222 C1223 1.394 . S
C1222 H1230 0.930 . S
C1223 C1222 1.394 . S
C1223 C1224 1.383 . S
C1223 H1231 0.929 . S
C1224 C1223 1.383 . S
C1224 C1225 1.377 . S
C1225 H1209 0.930 . S
C1225 C1224 1.377 . S
C1225 C1226 1.379 . S
C1226 H1210 0.931 . S
C1226 C1220 1.383 . S
C1226 C1225 1.379 . S
H1227 C1221 0.959 . S
H1228 C1221 0.961 . S
H1229 C1221 0.960 . S
H1230 C1222 0.930 . S
H1231 C1223 0.929 . S
H1232 C1240 0.929 . S
H1233 C1242 0.930 . S
H1234 C1244 0.930 . S
H1235 C1247 0.929 . S
H1236 C1250 0.930 . S
H1237 C1252 0.960 . S
H1238 C1252 0.960 . S
H1239 C1252 0.960 . S
C1240 H1232 0.929 . S
C1240 C1241 1.377 . S
C1240 C1242 1.384 . S
C1241 C1240 1.377 . S
C1241 C1247 1.390 . S
C1242 H1233 0.930 . S
C1242 C1240 1.384 . S
C1242 C1243 1.372 . S
C1243 C1242 1.372 . S
C1243 C1244 1.400 . S
C1243 C1248 1.490 . S
C1244 H1234 0.930 . S
C1244 C1243 1.400 . S
C1244 C1247 1.386 . S
H1245 C1261 0.930 . S
H1246 C1262 0.931 . S
C1247 H1235 0.929 . S
C1247 C1241 1.390 . S
C1247 C1244 1.386 . S
C1248 C1243 1.490 . S
C1248 C1250 1.395 . S
C1248 C1251 1.403 . S
H1249 C1255 0.930 . S
C1250 H1236 0.930 . S
C1250 C1248 1.395 . S
C1250 C1253 1.403 . S
C1251 C1248 1.403 . S
C1251 C1252 1.524 . S
C1251 C1255 1.400 . S
C1252 H1237 0.960 . S
C1252 H1238 0.960 . S
C1252 H1239 0.960 . S
C1252 C1251 1.524 . S
C1253 C1250 1.403 . S
C1253 C1254 1.392 . S
C1253 C1257 1.495 . S
C1254 C1253 1.392 . S
C1254 C1255 1.385 . S
C1254 C1256 1.478 . S
C1255 H1249 0.930 . S
C1255 C1251 1.400 . S
C1255 C1254 1.385 . S
C1256 C1254 1.478 . S
C1256 C1258 1.381 . S
C1256 C1262 1.383 . S
C1257 C1253 1.495 . S
C1257 H1263 0.959 . S
C1257 H1264 0.961 . S
C1257 H1265 0.960 . S
C1258 C1256 1.381 . S
C1258 C1259 1.394 . S
C1258 H1266 0.930 . S
C1259 C1258 1.394 . S
C1259 C1260 1.383 . S
C1259 H1267 0.929 . S
C1260 C1259 1.383 . S
C1260 C1261 1.377 . S
C1261 H1245 0.930 . S
C1261 C1260 1.377 . S
C1261 C1262 1.379 . S
C1262 H1246 0.931 . S
C1262 C1256 1.383 . S
C1262 C1261 1.379 . S
H1263 C1257 0.959 . S
H1264 C1257 0.961 . S
H1265 C1257 0.960 . S
H1266 C1258 0.930 . S
H1267 C1259 0.929 . S
H1268 C1276 0.929 . S
H1269 C1278 0.930 . S
H1270 C1280 0.930 . S
H1271 C1283 0.929 . S
H1272 C1286 0.930 . S
H1273 C1288 0.960 . S
H1274 C1288 0.960 . S
H1275 C1288 0.960 . S
C1276 H1268 0.929 . S
C1276 C1277 1.377 . S
C1276 C1278 1.384 . S
C1277 C1276 1.377 . S
C1277 C1283 1.390 . S
C1278 H1269 0.930 . S
C1278 C1276 1.384 . S
C1278 C1279 1.372 . S
C1279 C1278 1.372 . S
C1279 C1280 1.400 . S
C1279 C1284 1.490 . S
C1280 H1270 0.930 . S
C1280 C1279 1.400 . S
C1280 C1283 1.386 . S
H1281 C1297 0.930 . S
H1282 C1298 0.931 . S
C1283 H1271 0.929 . S
C1283 C1277 1.390 . S
C1283 C1280 1.386 . S
C1284 C1279 1.490 . S
C1284 C1286 1.395 . S
C1284 C1287 1.403 . S
H1285 C1291 0.930 . S
C1286 H1272 0.930 . S
C1286 C1284 1.395 . S
C1286 C1289 1.403 . S
C1287 C1284 1.403 . S
C1287 C1288 1.524 . S
C1287 C1291 1.400 . S
C1288 H1273 0.960 . S
C1288 H1274 0.960 . S
C1288 H1275 0.960 . S
C1288 C1287 1.524 . S
C1289 C1286 1.403 . S
C1289 C1290 1.392 . S
C1289 C1293 1.495 . S
C1290 C1289 1.392 . S
C1290 C1291 1.385 . S
C1290 C1292 1.478 . S
C1291 H1285 0.930 . S
C1291 C1287 1.400 . S
C1291 C1290 1.385 . S
C1292 C1290 1.478 . S
C1292 C1294 1.381 . S
C1292 C1298 1.383 . S
C1293 C1289 1.495 . S
C1293 H1299 0.959 . S
C1293 H1300 0.961 . S
C1293 H1301 0.960 . S
C1294 C1292 1.381 . S
C1294 C1295 1.394 . S
C1294 H1302 0.930 . S
C1295 C1294 1.394 . S
C1295 C1296 1.383 . S
C1295 H1303 0.929 . S
C1296 C1295 1.383 . S
C1296 C1297 1.377 . S
C1297 H1281 0.930 . S
C1297 C1296 1.377 . S
C1297 C1298 1.379 . S
C1298 H1282 0.931 . S
C1298 C1292 1.383 . S
C1298 C1297 1.379 . S
H1299 C1293 0.959 . S
H1300 C1293 0.961 . S
H1301 C1293 0.960 . S
H1302 C1294 0.930 . S
H1303 C1295 0.929 . S
H1304 C1312 0.929 . S
H1305 C1314 0.930 . S
H1306 C1316 0.930 . S
H1307 C1319 0.929 . S
H1308 C1322 0.930 . S
H1309 C1324 0.960 . S
H1310 C1324 0.960 . S
H1311 C1324 0.960 . S
C1312 H1304 0.929 . S
C1312 C1313 1.377 . S
C1312 C1314 1.384 . S
C1313 C1312 1.377 . S
C1313 C1319 1.390 . S
C1314 H1305 0.930 . S
C1314 C1312 1.384 . S
C1314 C1315 1.372 . S
C1315 C1314 1.372 . S
C1315 C1316 1.400 . S
C1315 C1320 1.490 . S
C1316 H1306 0.930 . S
C1316 C1315 1.400 . S
C1316 C1319 1.386 . S
H1317 C1333 0.930 . S
H1318 C1334 0.931 . S
C1319 H1307 0.929 . S
C1319 C1313 1.390 . S
C1319 C1316 1.386 . S
C1320 C1315 1.490 . S
C1320 C1322 1.395 . S
C1320 C1323 1.403 . S
H1321 C1327 0.930 . S
C1322 H1308 0.930 . S
C1322 C1320 1.395 . S
C1322 C1325 1.403 . S
C1323 C1320 1.403 . S
C1323 C1324 1.524 . S
C1323 C1327 1.400 . S
C1324 H1309 0.960 . S
C1324 H1310 0.960 . S
C1324 H1311 0.960 . S
C1324 C1323 1.524 . S
C1325 C1322 1.403 . S
C1325 C1326 1.392 . S
C1325 C1329 1.495 . S
C1326 C1325 1.392 . S
C1326 C1327 1.385 . S
C1326 C1328 1.478 . S
C1327 H1321 0.930 . S
C1327 C1323 1.400 . S
C1327 C1326 1.385 . S
C1328 C1326 1.478 . S
C1328 C1330 1.381 . S
C1328 C1334 1.383 . S
C1329 C1325 1.495 . S
C1329 H1335 0.959 . S
C1329 H1336 0.961 . S
C1329 H1337 0.960 . S
C1330 C1328 1.381 . S
C1330 C1331 1.394 . S
C1330 H1338 0.930 . S
C1331 C1330 1.394 . S
C1331 C1332 1.383 . S
C1331 H1339 0.929 . S
C1332 C1331 1.383 . S
C1332 C1333 1.377 . S
C1333 H1317 0.930 . S
C1333 C1332 1.377 . S
C1333 C1334 1.379 . S
C1334 H1318 0.931 . S
C1334 C1328 1.383 . S
C1334 C1333 1.379 . S
H1335 C1329 0.959 . S
H1336 C1329 0.961 . S
H1337 C1329 0.960 . S
H1338 C1330 0.930 . S
H1339 C1331 0.929 . S
H1340 C1348 0.929 . S
H1341 C1350 0.930 . S
H1342 C1352 0.930 . S
H1343 C1355 0.929 . S
H1344 C1358 0.930 . S
H1345 C1360 0.960 . S
H1346 C1360 0.960 . S
H1347 C1360 0.960 . S
C1348 H1340 0.929 . S
C1348 C1349 1.377 . S
C1348 C1350 1.384 . S
C1349 C1348 1.377 . S
C1349 C1355 1.390 . S
C1350 H1341 0.930 . S
C1350 C1348 1.384 . S
C1350 C1351 1.372 . S
C1351 C1350 1.372 . S
C1351 C1352 1.400 . S
C1351 C1356 1.490 . S
C1352 H1342 0.930 . S
C1352 C1351 1.400 . S
C1352 C1355 1.386 . S
H1353 C1369 0.930 . S
H1354 C1370 0.931 . S
C1355 H1343 0.929 . S
C1355 C1349 1.390 . S
C1355 C1352 1.386 . S
C1356 C1351 1.490 . S
C1356 C1358 1.395 . S
C1356 C1359 1.403 . S
H1357 C1363 0.930 . S
C1358 H1344 0.930 . S
C1358 C1356 1.395 . S
C1358 C1361 1.403 . S
C1359 C1356 1.403 . S
C1359 C1360 1.524 . S
C1359 C1363 1.400 . S
C1360 H1345 0.960 . S
C1360 H1346 0.960 . S
C1360 H1347 0.960 . S
C1360 C1359 1.524 . S
C1361 C1358 1.403 . S
C1361 C1362 1.392 . S
C1361 C1365 1.495 . S
C1362 C1361 1.392 . S
C1362 C1363 1.385 . S
C1362 C1364 1.478 . S
C1363 H1357 0.930 . S
C1363 C1359 1.400 . S
C1363 C1362 1.385 . S
C1364 C1362 1.478 . S
C1364 C1366 1.381 . S
C1364 C1370 1.383 . S
C1365 C1361 1.495 . S
C1365 H1371 0.959 . S
C1365 H1372 0.961 . S
C1365 H1373 0.960 . S
C1366 C1364 1.381 . S
C1366 C1367 1.394 . S
C1366 H1374 0.930 . S
C1367 C1366 1.394 . S
C1367 C1368 1.383 . S
C1367 H1375 0.929 . S
C1368 C1367 1.383 . S
C1368 C1369 1.377 . S
C1369 H1353 0.930 . S
C1369 C1368 1.377 . S
C1369 C1370 1.379 . S
C1370 H1354 0.931 . S
C1370 C1364 1.383 . S
C1370 C1369 1.379 . S
H1371 C1365 0.959 . S
H1372 C1365 0.961 . S
H1373 C1365 0.960 . S
H1374 C1366 0.930 . S
H1375 C1367 0.929 . S
H1376 C1384 0.929 . S
H1377 C1386 0.930 . S
H1378 C1388 0.930 . S
H1379 C1391 0.929 . S
H1380 C1394 0.930 . S
H1381 C1396 0.960 . S
H1382 C1396 0.960 . S
H1383 C1396 0.960 . S
C1384 H1376 0.929 . S
C1384 C1385 1.377 . S
C1384 C1386 1.384 . S
C1385 C1384 1.377 . S
C1385 C1391 1.390 . S
C1386 H1377 0.930 . S
C1386 C1384 1.384 . S
C1386 C1387 1.372 . S
C1387 C1386 1.372 . S
C1387 C1388 1.400 . S
C1387 C1392 1.490 . S
C1388 H1378 0.930 . S
C1388 C1387 1.400 . S
C1388 C1391 1.386 . S
H1389 C1405 0.930 . S
H1390 C1406 0.931 . S
C1391 H1379 0.929 . S
C1391 C1385 1.390 . S
C1391 C1388 1.386 . S
C1392 C1387 1.490 . S
C1392 C1394 1.395 . S
C1392 C1395 1.403 . S
H1393 C1399 0.930 . S
C1394 H1380 0.930 . S
C1394 C1392 1.395 . S
C1394 C1397 1.403 . S
C1395 C1392 1.403 . S
C1395 C1396 1.524 . S
C1395 C1399 1.400 . S
C1396 H1381 0.960 . S
C1396 H1382 0.960 . S
C1396 H1383 0.960 . S
C1396 C1395 1.524 . S
C1397 C1394 1.403 . S
C1397 C1398 1.392 . S
C1397 C1401 1.495 . S
C1398 C1397 1.392 . S
C1398 C1399 1.385 . S
C1398 C1400 1.478 . S
C1399 H1393 0.930 . S
C1399 C1395 1.400 . S
C1399 C1398 1.385 . S
C1400 C1398 1.478 . S
C1400 C1402 1.381 . S
C1400 C1406 1.383 . S
C1401 C1397 1.495 . S
C1401 H1407 0.959 . S
C1401 H1408 0.961 . S
C1401 H1409 0.960 . S
C1402 C1400 1.381 . S
C1402 C1403 1.394 . S
C1402 H1410 0.930 . S
C1403 C1402 1.394 . S
C1403 C1404 1.383 . S
C1403 H1411 0.929 . S
C1404 C1403 1.383 . S
C1404 C1405 1.377 . S
C1405 H1389 0.930 . S
C1405 C1404 1.377 . S
C1405 C1406 1.379 . S
C1406 H1390 0.931 . S
C1406 C1400 1.383 . S
C1406 C1405 1.379 . S
H1407 C1401 0.959 . S
H1408 C1401 0.961 . S
H1409 C1401 0.960 . S
H1410 C1402 0.930 . S
H1411 C1403 0.929 . S
H1412 C1420 0.929 . S
H1413 C1422 0.930 . S
H1414 C1424 0.930 . S
H1415 C1427 0.929 . S
H1416 C1430 0.930 . S
H1417 C1432 0.960 . S
H1418 C1432 0.960 . S
H1419 C1432 0.960 . S
C1420 H1412 0.929 . S
C1420 C1421 1.377 . S
C1420 C1422 1.384 . S
C1421 C1420 1.377 . S
C1421 C1427 1.390 . S
C1422 H1413 0.930 . S
C1422 C1420 1.384 . S
C1422 C1423 1.372 . S
C1423 C1422 1.372 . S
C1423 C1424 1.400 . S
C1423 C1428 1.490 . S
C1424 H1414 0.930 . S
C1424 C1423 1.400 . S
C1424 C1427 1.386 . S
H1425 C1441 0.930 . S
H1426 C1442 0.931 . S
C1427 H1415 0.929 . S
C1427 C1421 1.390 . S
C1427 C1424 1.386 . S
C1428 C1423 1.490 . S
C1428 C1430 1.395 . S
C1428 C1431 1.403 . S
H1429 C1435 0.930 . S
C1430 H1416 0.930 . S
C1430 C1428 1.395 . S
C1430 C1433 1.403 . S
C1431 C1428 1.403 . S
C1431 C1432 1.524 . S
C1431 C1435 1.400 . S
C1432 H1417 0.960 . S
C1432 H1418 0.960 . S
C1432 H1419 0.960 . S
C1432 C1431 1.524 . S
C1433 C1430 1.403 . S
C1433 C1434 1.392 . S
C1433 C1437 1.495 . S
C1434 C1433 1.392 . S
C1434 C1435 1.385 . S
C1434 C1436 1.478 . S
C1435 H1429 0.930 . S
C1435 C1431 1.400 . S
C1435 C1434 1.385 . S
C1436 C1434 1.478 . S
C1436 C1438 1.381 . S
C1436 C1442 1.383 . S
C1437 C1433 1.495 . S
C1437 H1443 0.959 . S
C1437 H1444 0.961 . S
C1437 H1445 0.960 . S
C1438 C1436 1.381 . S
C1438 C1439 1.394 . S
C1438 H1446 0.930 . S
C1439 C1438 1.394 . S
C1439 C1440 1.383 . S
C1439 H1447 0.929 . S
C1440 C1439 1.383 . S
C1440 C1441 1.377 . S
C1441 H1425 0.930 . S
C1441 C1440 1.377 . S
C1441 C1442 1.379 . S
C1442 H1426 0.931 . S
C1442 C1436 1.383 . S
C1442 C1441 1.379 . S
H1443 C1437 0.959 . S
H1444 C1437 0.961 . S
H1445 C1437 0.960 . S
H1446 C1438 0.930 . S
H1447 C1439 0.929 . S
H1448 C1456 0.929 . S
H1449 C1458 0.930 . S
H1450 C1460 0.930 . S
H1451 C1463 0.929 . S
H1452 C1466 0.930 . S
H1453 C1468 0.960 . S
H1454 C1468 0.960 . S
H1455 C1468 0.960 . S
C1456 H1448 0.929 . S
C1456 C1457 1.377 . S
C1456 C1458 1.384 . S
C1457 C1456 1.377 . S
C1457 C1463 1.390 . S
C1458 H1449 0.930 . S
C1458 C1456 1.384 . S
C1458 C1459 1.372 . S
C1459 C1458 1.372 . S
C1459 C1460 1.400 . S
C1459 C1464 1.490 . S
C1460 H1450 0.930 . S
C1460 C1459 1.400 . S
C1460 C1463 1.386 . S
H1461 C1477 0.930 . S
H1462 C1478 0.931 . S
C1463 H1451 0.929 . S
C1463 C1457 1.390 . S
C1463 C1460 1.386 . S
C1464 C1459 1.490 . S
C1464 C1466 1.395 . S
C1464 C1467 1.403 . S
H1465 C1471 0.930 . S
C1466 H1452 0.930 . S
C1466 C1464 1.395 . S
C1466 C1469 1.403 . S
C1467 C1464 1.403 . S
C1467 C1468 1.524 . S
C1467 C1471 1.400 . S
C1468 H1453 0.960 . S
C1468 H1454 0.960 . S
C1468 H1455 0.960 . S
C1468 C1467 1.524 . S
C1469 C1466 1.403 . S
C1469 C1470 1.392 . S
C1469 C1473 1.495 . S
C1470 C1469 1.392 . S
C1470 C1471 1.385 . S
C1470 C1472 1.478 . S
C1471 H1465 0.930 . S
C1471 C1467 1.400 . S
C1471 C1470 1.385 . S
C1472 C1470 1.478 . S
C1472 C1474 1.381 . S
C1472 C1478 1.383 . S
C1473 C1469 1.495 . S
C1473 H1479 0.959 . S
C1473 H1480 0.961 . S
C1473 H1481 0.960 . S
C1474 C1472 1.381 . S
C1474 C1475 1.394 . S
C1474 H1482 0.930 . S
C1475 C1474 1.394 . S
C1475 C1476 1.383 . S
C1475 H1483 0.929 . S
C1476 C1475 1.383 . S
C1476 C1477 1.377 . S
C1477 H1461 0.930 . S
C1477 C1476 1.377 . S
C1477 C1478 1.379 . S
C1478 H1462 0.931 . S
C1478 C1472 1.383 . S
C1478 C1477 1.379 . S
H1479 C1473 0.959 . S
H1480 C1473 0.961 . S
H1481 C1473 0.960 . S
H1482 C1474 0.930 . S
H1483 C1475 0.929 . S
H1484 C1492 0.929 . S
H1485 C1494 0.930 . S
H1486 C1496 0.930 . S
H1487 C1499 0.929 . S
H1488 C1502 0.930 . S
H1489 C1504 0.960 . S
H1490 C1504 0.960 . S
H1491 C1504 0.960 . S
C1492 H1484 0.929 . S
C1492 C1493 1.377 . S
C1492 C1494 1.384 . S
C1493 C1492 1.377 . S
C1493 C1499 1.390 . S
C1494 H1485 0.930 . S
C1494 C1492 1.384 . S
C1494 C1495 1.372 . S
C1495 C1494 1.372 . S
C1495 C1496 1.400 . S
C1495 C1500 1.490 . S
C1496 H1486 0.930 . S
C1496 C1495 1.400 . S
C1496 C1499 1.386 . S
H1497 C1513 0.930 . S
H1498 C1514 0.931 . S
C1499 H1487 0.929 . S
C1499 C1493 1.390 . S
C1499 C1496 1.386 . S
C1500 C1495 1.490 . S
C1500 C1502 1.395 . S
C1500 C1503 1.403 . S
H1501 C1507 0.930 . S
C1502 H1488 0.930 . S
C1502 C1500 1.395 . S
C1502 C1505 1.403 . S
C1503 C1500 1.403 . S
C1503 C1504 1.524 . S
C1503 C1507 1.400 . S
C1504 H1489 0.960 . S
C1504 H1490 0.960 . S
C1504 H1491 0.960 . S
C1504 C1503 1.524 . S
C1505 C1502 1.403 . S
C1505 C1506 1.392 . S
C1505 C1509 1.495 . S
C1506 C1505 1.392 . S
C1506 C1507 1.385 . S
C1506 C1508 1.478 . S
C1507 H1501 0.930 . S
C1507 C1503 1.400 . S
C1507 C1506 1.385 . S
C1508 C1506 1.478 . S
C1508 C1510 1.381 . S
C1508 C1514 1.383 . S
C1509 C1505 1.495 . S
C1509 H1515 0.959 . S
C1509 H1516 0.961 . S
C1509 H1517 0.960 . S
C1510 C1508 1.381 . S
C1510 C1511 1.394 . S
C1510 H1518 0.930 . S
C1511 C1510 1.394 . S
C1511 C1512 1.383 . S
C1511 H1519 0.929 . S
C1512 C1511 1.383 . S
C1512 C1513 1.377 . S
C1513 H1497 0.930 . S
C1513 C1512 1.377 . S
C1513 C1514 1.379 . S
C1514 H1498 0.931 . S
C1514 C1508 1.383 . S
C1514 C1513 1.379 . S
H1515 C1509 0.959 . S
H1516 C1509 0.961 . S
H1517 C1509 0.960 . S
H1518 C1510 0.930 . S
H1519 C1511 0.929 . S
H1520 C1528 0.929 . S
H1521 C1530 0.930 . S
H1522 C1532 0.930 . S
H1523 C1535 0.929 . S
H1524 C1538 0.930 . S
H1525 C1540 0.960 . S
H1526 C1540 0.960 . S
H1527 C1540 0.960 . S
C1528 H1520 0.929 . S
C1528 C1529 1.377 . S
C1528 C1530 1.384 . S
C1529 C1528 1.377 . S
C1529 C1535 1.390 . S
C1530 H1521 0.930 . S
C1530 C1528 1.384 . S
C1530 C1531 1.372 . S
C1531 C1530 1.372 . S
C1531 C1532 1.400 . S
C1531 C1536 1.490 . S
C1532 H1522 0.930 . S
C1532 C1531 1.400 . S
C1532 C1535 1.386 . S
H1533 C1549 0.930 . S
H1534 C1550 0.931 . S
C1535 H1523 0.929 . S
C1535 C1529 1.390 . S
C1535 C1532 1.386 . S
C1536 C1531 1.490 . S
C1536 C1538 1.395 . S
C1536 C1539 1.403 1_655 S
H1537 C1543 0.930 . S
C1538 H1524 0.930 . S
C1538 C1536 1.395 . S
C1538 C1541 1.403 1_556 S
C1539 C1536 1.403 1_455 S
C1539 C1540 1.524 . S
C1539 C1543 1.400 1_556 S
C1540 H1525 0.960 . S
C1540 H1526 0.960 . S
C1540 H1527 0.960 . S
C1540 C1539 1.524 . S
C1541 C1538 1.403 1_554 S
C1541 C1542 1.392 1_655 S
C1541 C1545 1.495 . S
C1542 C1541 1.392 1_455 S
C1542 C1543 1.385 . S
C1542 C1544 1.478 . S
C1543 H1537 0.930 . S
C1543 C1539 1.400 1_554 S
C1543 C1542 1.385 . S
C1544 C1542 1.478 . S
C1544 C1546 1.381 . S
C1544 C1550 1.383 . S
C1545 C1541 1.495 . S
C1545 H1551 0.959 . S
C1545 H1552 0.961 . S
C1545 H1553 0.960 . S
C1546 C1544 1.381 . S
C1546 C1547 1.394 . S
C1546 H1554 0.930 . S
C1547 C1546 1.394 . S
C1547 C1548 1.383 . S
C1547 H1555 0.929 . S
C1548 C1547 1.383 . S
C1548 C1549 1.377 . S
C1549 H1533 0.930 . S
C1549 C1548 1.377 . S
C1549 C1550 1.379 . S
C1550 H1534 0.931 . S
C1550 C1544 1.383 . S
C1550 C1549 1.379 . S
H1551 C1545 0.959 . S
H1552 C1545 0.961 . S
H1553 C1545 0.960 . S
H1554 C1546 0.930 . S
H1555 C1547 0.929 . S
H1556 C1564 0.929 . S
H1557 C1566 0.930 . S
H1558 C1568 0.930 . S
H1559 C1571 0.929 . S
H1560 C1574 0.930 . S
H1561 C1576 0.960 . S
H1562 C1576 0.960 . S
H1563 C1576 0.960 . S
C1564 H1556 0.929 . S
C1564 C1565 1.377 . S
C1564 C1566 1.384 . S
C1565 C1564 1.377 . S
C1565 C1571 1.390 . S
C1566 H1557 0.930 . S
C1566 C1564 1.384 . S
C1566 C1567 1.372 . S
C1567 C1566 1.372 . S
C1567 C1568 1.400 . S
C1567 C1572 1.490 . S
C1568 H1558 0.930 . S
C1568 C1567 1.400 . S
C1568 C1571 1.386 . S
H1569 C1585 0.930 . S
H1570 C1586 0.931 . S
C1571 H1559 0.929 . S
C1571 C1565 1.390 . S
C1571 C1568 1.386 . S
C1572 C1567 1.490 . S
C1572 C1574 1.395 1_455 S
C1572 C1575 1.403 1_565 S
H1573 C1579 0.930 . S
C1574 H1560 0.930 . S
C1574 C1572 1.395 1_655 S
C1574 C1577 1.403 1_556 S
C1575 C1572 1.403 1_545 S
C1575 C1576 1.524 . S
C1575 C1579 1.400 1_556 S
C1576 H1561 0.960 . S
C1576 H1562 0.960 . S
C1576 H1563 0.960 . S
C1576 C1575 1.524 . S
C1577 C1574 1.403 1_554 S
C1577 C1578 1.392 1_565 S
C1577 C1581 1.495 . S
C1578 C1577 1.392 1_545 S
C1578 C1579 1.385 1_655 S
C1578 C1580 1.478 . S
C1579 H1573 0.930 . S
C1579 C1575 1.400 1_554 S
C1579 C1578 1.385 1_455 S
C1580 C1578 1.478 . S
C1580 C1582 1.381 . S
C1580 C1586 1.383 . S
C1581 C1577 1.495 . S
C1581 H1587 0.953 1_554 S
C1581 H1588 0.961 . S
C1581 H1589 0.960 . S
C1582 C1580 1.381 . S
C1582 C1583 1.394 . S
C1582 H1590 0.930 . S
C1583 C1582 1.394 . S
C1583 C1584 1.383 . S
C1583 H1591 0.929 . S
C1584 C1583 1.383 . S
C1584 C1585 1.377 . S
C1585 H1569 0.930 . S
C1585 C1584 1.377 . S
C1585 C1586 1.379 . S
C1586 H1570 0.931 . S
C1586 C1580 1.383 . S
C1586 C1585 1.379 . S
H1587 C1581 0.953 1_556 S
H1588 C1581 0.961 . S
H1589 C1581 0.960 . S
H1590 C1582 0.930 . S
H1591 C1583 0.929 . S
H1592 C1600 0.929 . S
H1593 C1602 0.930 . S
H1594 C1604 0.930 . S
H1595 C1607 0.929 . S
H1596 C1610 0.930 . S
H1597 C1612 0.960 . S
H1598 C1612 0.960 1_556 S
H1599 C1612 0.960 . S
C1600 H1592 0.929 . S
C1600 C1601 1.377 . S
C1600 C1602 1.384 . S
C1601 C1600 1.377 . S
C1601 C1607 1.390 . S
C1602 H1593 0.930 . S
C1602 C1600 1.384 . S
C1602 C1603 1.372 . S
C1603 C1602 1.372 . S
C1603 C1604 1.400 . S
C1603 C1608 1.490 . S
C1604 H1594 0.930 . S
C1604 C1603 1.400 . S
C1604 C1607 1.386 . S
H1605 C1621 0.930 . S
H1606 C1622 0.931 . S
C1607 H1595 0.929 . S
C1607 C1601 1.390 . S
C1607 C1604 1.386 . S
C1608 C1603 1.490 . S
C1608 C1610 1.395 1_545 S
C1608 C1611 1.403 1_556 S
H1609 C1615 0.930 . S
C1610 H1596 0.930 . S
C1610 C1608 1.395 1_565 S
C1610 C1613 1.403 . S
C1611 C1608 1.403 1_554 S
C1611 C1612 1.524 . S
C1611 C1615 1.400 . S
C1612 H1597 0.960 . S
C1612 H1598 0.960 1_554 S
C1612 H1599 0.960 . S
C1612 C1611 1.524 . S
C1613 C1610 1.403 . S
C1613 C1614 1.392 1_556 S
C1613 C1617 1.495 . S
C1614 C1613 1.392 1_554 S
C1614 C1615 1.385 1_565 S
C1614 C1616 1.478 . S
C1615 H1609 0.930 . S
C1615 C1611 1.400 . S
C1615 C1614 1.385 1_545 S
C1616 C1614 1.478 . S
C1616 C1618 1.381 . S
C1616 C1622 1.383 . S
C1617 C1613 1.495 . S
C1617 H1623 0.959 . S
C1617 H1624 0.961 1_556 S
C1617 H1625 0.960 . S
C1618 C1616 1.381 . S
C1618 C1619 1.394 . S
C1618 H1626 0.930 . S
C1619 C1618 1.394 . S
C1619 C1620 1.383 . S
C1619 H1627 0.929 . S
C1620 C1619 1.383 . S
C1620 C1621 1.377 . S
C1621 H1605 0.930 . S
C1621 C1620 1.377 . S
C1621 C1622 1.379 . S
C1622 H1606 0.931 . S
C1622 C1616 1.383 . S
C1622 C1621 1.379 . S
H1623 C1617 0.959 . S
H1624 C1617 0.961 1_554 S
H1625 C1617 0.960 . S
H1626 C1618 0.930 . S
H1627 C1619 0.929 . S
H1628 C1636 0.929 . S
H1629 C1638 0.930 . S
H1630 C1640 0.930 . S
H1631 C1643 0.929 . S
H1632 C1646 0.930 . S
H1633 C1648 0.960 . S
H1634 C1648 0.960 . S
H1635 C1648 0.960 1_554 S
C1636 H1628 0.929 . S
C1636 C1637 1.377 . S
C1636 C1638 1.384 . S
C1637 C1636 1.377 . S
C1637 C1643 1.390 . S
C1638 H1629 0.930 . S
C1638 C1636 1.384 . S
C1638 C1639 1.372 . S
C1639 C1638 1.372 . S
C1639 C1640 1.400 . S
C1639 C1644 1.490 . S
C1640 H1630 0.930 . S
C1640 C1639 1.400 . S
C1640 C1643 1.386 . S
H1641 C1657 0.930 . S
H1642 C1658 0.931 . S
C1643 H1631 0.929 . S
C1643 C1637 1.390 . S
C1643 C1640 1.386 . S
C1644 C1639 1.490 . S
C1644 C1646 1.395 . S
C1644 C1647 1.403 1_554 S
H1645 C1651 0.930 . S
C1646 H1632 0.930 . S
C1646 C1644 1.395 . S
C1646 C1649 1.403 . S
C1647 C1644 1.403 1_556 S
C1647 C1648 1.524 . S
C1647 C1651 1.400 . S
C1648 H1633 0.960 . S
C1648 H1634 0.960 . S
C1648 H1635 0.960 1_556 S
C1648 C1647 1.524 . S
C1649 C1646 1.403 . S
C1649 C1650 1.392 1_554 S
C1649 C1653 1.495 . S
C1650 C1649 1.392 1_556 S
C1650 C1651 1.385 . S
C1650 C1652 1.478 . S
C1651 H1645 0.930 . S
C1651 C1647 1.400 . S
C1651 C1650 1.385 . S
C1652 C1650 1.478 . S
C1652 C1654 1.381 . S
C1652 C1658 1.383 . S
C1653 C1649 1.495 . S
C1653 H1659 0.959 . S
C1653 H1660 0.961 . S
C1653 H1661 0.960 1_554 S
C1654 C1652 1.381 . S
C1654 C1655 1.394 . S
C1654 H1662 0.930 . S
C1655 C1654 1.394 . S
C1655 C1656 1.383 . S
C1655 H1663 0.929 . S
C1656 C1655 1.383 . S
C1656 C1657 1.377 . S
C1657 H1641 0.930 . S
C1657 C1656 1.377 . S
C1657 C1658 1.379 . S
C1658 H1642 0.931 . S
C1658 C1652 1.383 . S
C1658 C1657 1.379 . S
H1659 C1653 0.959 . S
H1660 C1653 0.961 . S
H1661 C1653 0.960 1_556 S
H1662 C1654 0.930 . S
H1663 C1655 0.929 . S
H1664 C1672 0.929 . S
H1665 C1674 0.930 . S
H1666 C1676 0.930 . S
H1667 C1679 0.929 . S
H1668 C1682 0.930 . S
H1669 C1684 0.960 . S
H1670 C1684 0.960 1_545 S
H1671 C1684 0.960 . S
C1672 H1664 0.929 . S
C1672 C1673 1.377 . S
C1672 C1674 1.384 . S
C1673 C1672 1.377 . S
C1673 C1679 1.390 . S
C1674 H1665 0.930 . S
C1674 C1672 1.384 . S
C1674 C1675 1.372 . S
C1675 C1674 1.372 . S
C1675 C1676 1.400 . S
C1675 C1680 1.490 . S
C1676 H1666 0.930 . S
C1676 C1675 1.400 . S
C1676 C1679 1.386 . S
H1677 C1693 0.930 . S
H1678 C1694 0.931 . S
C1679 H1667 0.929 . S
C1679 C1673 1.390 . S
C1679 C1676 1.386 . S
C1680 C1675 1.490 . S
C1680 C1682 1.395 1_655 S
C1680 C1683 1.403 1_545 S
H1681 C1687 0.930 . S
C1682 H1668 0.930 . S
C1682 C1680 1.395 1_455 S
C1682 C1685 1.403 . S
C1683 C1680 1.403 1_565 S
C1683 C1684 1.524 . S
C1683 C1687 1.400 . S
C1684 H1669 0.960 . S
C1684 H1670 0.960 1_565 S
C1684 H1671 0.960 . S
C1684 C1683 1.524 . S
C1685 C1682 1.403 . S
C1685 C1686 1.392 1_545 S
C1685 C1689 1.495 . S
C1686 C1685 1.392 1_565 S
C1686 C1687 1.385 1_455 S
C1686 C1688 1.478 . S
C1687 H1681 0.930 . S
C1687 C1683 1.400 . S
C1687 C1686 1.385 1_655 S
C1688 C1686 1.478 . S
C1688 C1690 1.381 . S
C1688 C1694 1.383 . S
C1689 C1685 1.495 . S
C1689 H1695 0.959 . S
C1689 H1696 0.961 1_545 S
C1689 H1697 0.960 . S
C1690 C1688 1.381 . S
C1690 C1691 1.394 . S
C1690 H1698 0.920 1_565 S
C1691 C1690 1.394 . S
C1691 C1692 1.383 . S
C1691 H1699 0.929 . S
C1692 C1691 1.383 . S
C1692 C1693 1.377 . S
C1693 H1677 0.930 . S
C1693 C1692 1.377 . S
C1693 C1694 1.379 . S
C1694 H1678 0.931 . S
C1694 C1688 1.383 . S
C1694 C1693 1.379 . S
H1695 C1689 0.959 . S
H1696 C1689 0.961 1_565 S
H1697 C1689 0.960 . S
H1698 C1690 0.920 1_545 S
H1699 C1691 0.929 . S
H1700 C1708 0.929 1_545 S
H1701 C1710 0.930 . S
H1702 C1712 0.930 . S
H1703 C1715 0.929 . S
H1704 C1718 0.930 . S
H1705 C1720 0.960 . S
H1706 C1720 0.960 . S
H1707 C1720 0.960 . S
C1708 H1700 0.929 1_565 S
C1708 C1709 1.377 . S
C1708 C1710 1.384 1_565 S
C1709 C1708 1.377 . S
C1709 C1715 1.390 . S
C1710 H1701 0.930 . S
C1710 C1708 1.384 1_545 S
C1710 C1711 1.372 1_545 S
C1711 C1710 1.372 1_565 S
C1711 C1712 1.400 . S
C1711 C1716 1.490 . S
C1712 H1702 0.930 . S
C1712 C1711 1.400 . S
C1712 C1715 1.386 . S
H1713 C1729 0.930 1_565 S
H1714 C1730 0.931 1_565 S
C1715 H1703 0.929 . S
C1715 C1709 1.390 . S
C1715 C1712 1.386 . S
C1716 C1711 1.490 . S
C1716 C1718 1.395 1_565 S
C1716 C1719 1.403 . S
H1717 C1723 0.930 . S
C1718 H1704 0.930 . S
C1718 C1716 1.395 1_545 S
C1718 C1721 1.403 . S
C1719 C1716 1.403 . S
C1719 C1720 1.524 . S
C1719 C1723 1.400 . S
C1720 H1705 0.960 . S
C1720 H1706 0.960 . S
C1720 H1707 0.960 . S
C1720 C1719 1.524 . S
C1721 C1718 1.403 . S
C1721 C1722 1.392 . S
C1721 C1725 1.495 . S
C1722 C1721 1.392 . S
C1722 C1723 1.385 1_545 S
C1722 C1724 1.478 . S
C1723 H1717 0.930 . S
C1723 C1719 1.400 . S
C1723 C1722 1.385 1_565 S
C1724 C1722 1.478 . S
C1724 C1726 1.381 . S
C1724 C1730 1.383 . S
C1725 C1721 1.495 . S
C1725 H1731 0.959 . S
C1725 H1732 0.961 . S
C1725 H1733 0.960 . S
C1726 C1724 1.381 . S
C1726 C1727 1.394 . S
C1726 H1734 0.930 . S
C1727 C1726 1.394 . S
C1727 C1728 1.383 . S
C1727 H1735 0.929 . S
C1728 C1727 1.383 . S
C1728 C1729 1.377 . S
C1729 H1713 0.930 1_545 S
C1729 C1728 1.377 . S
C1729 C1730 1.379 . S
C1730 H1714 0.931 1_545 S
C1730 C1724 1.383 . S
C1730 C1729 1.379 . S
H1731 C1725 0.959 . S
H1732 C1725 0.961 . S
H1733 C1725 0.960 . S
H1734 C1726 0.930 . S
H1735 C1727 0.929 . S
H1736 C1744 0.929 . S
H1737 C1746 0.930 . S
H1738 C1748 0.930 . S
H1739 C1751 0.929 . S
H1740 C1754 0.930 . S
H1741 C1756 0.960 . S
H1742 C1756 0.960 . S
H1743 C1756 0.960 . S
C1744 H1736 0.929 . S
C1744 C1745 1.377 . S
C1744 C1746 1.384 . S
C1745 C1744 1.377 . S
C1745 C1751 1.390 . S
C1746 H1737 0.930 . S
C1746 C1744 1.384 . S
C1746 C1747 1.372 . S
C1747 C1746 1.372 . S
C1747 C1748 1.400 . S
C1747 C1752 1.490 . S
C1748 H1738 0.930 . S
C1748 C1747 1.400 . S
C1748 C1751 1.386 . S
H1749 C1765 0.930 . S
H1750 C1766 0.931 . S
C1751 H1739 0.929 . S
C1751 C1745 1.390 . S
C1751 C1748 1.386 . S
C1752 C1747 1.490 . S
C1752 C1754 1.395 . S
C1752 C1755 1.403 . S
H1753 C1759 0.930 . S
C1754 H1740 0.930 . S
C1754 C1752 1.395 . S
C1754 C1757 1.403 . S
C1755 C1752 1.403 . S
C1755 C1756 1.524 . S
C1755 C1759 1.400 . S
C1756 H1741 0.960 . S
C1756 H1742 0.960 . S
C1756 H1743 0.960 . S
C1756 C1755 1.524 . S
C1757 C1754 1.403 . S
C1757 C1758 1.392 . S
C1757 C1761 1.495 . S
C1758 C1757 1.392 . S
C1758 C1759 1.385 . S
C1758 C1760 1.478 . S
C1759 H1753 0.930 . S
C1759 C1755 1.400 . S
C1759 C1758 1.385 . S
C1760 C1758 1.478 . S
C1760 C1762 1.381 . S
C1760 C1766 1.383 . S
C1761 C1757 1.495 . S
C1761 H1767 0.959 . S
C1761 H1768 0.961 . S
C1761 H1769 0.960 . S
C1762 C1760 1.381 . S
C1762 C1763 1.394 . S
C1762 H1770 0.930 . S
C1763 C1762 1.394 . S
C1763 C1764 1.383 . S
C1763 H1771 0.929 . S
C1764 C1763 1.383 . S
C1764 C1765 1.377 . S
C1765 H1749 0.930 . S
C1765 C1764 1.377 . S
C1765 C1766 1.379 . S
C1766 H1750 0.931 . S
C1766 C1760 1.383 . S
C1766 C1765 1.379 . S
H1767 C1761 0.959 . S
H1768 C1761 0.961 . S
H1769 C1761 0.960 . S
H1770 C1762 0.930 . S
H1771 C1763 0.929 . S
H1772 C1780 0.929 . S
H1773 C1782 0.930 . S
H1774 C1784 0.930 . S
H1775 C1787 0.929 . S
H1776 C1790 0.930 . S
H1777 C1792 0.960 . S
H1778 C1792 0.960 . S
H1779 C1792 0.960 . S
C1780 H1772 0.929 . S
C1780 C1781 1.377 . S
C1780 C1782 1.384 . S
C1781 C1780 1.377 . S
C1781 C1787 1.390 . S
C1782 H1773 0.930 . S
C1782 C1780 1.384 . S
C1782 C1783 1.372 . S
C1783 C1782 1.372 . S
C1783 C1784 1.400 . S
C1783 C1788 1.490 . S
C1784 H1774 0.930 . S
C1784 C1783 1.400 . S
C1784 C1787 1.386 . S
H1785 C1801 0.930 . S
H1786 C1802 0.931 . S
C1787 H1775 0.929 . S
C1787 C1781 1.390 . S
C1787 C1784 1.386 . S
C1788 C1783 1.490 . S
C1788 C1790 1.395 1_455 S
C1788 C1791 1.403 . S
H1789 C1795 0.930 . S
C1790 H1776 0.930 . S
C1790 C1788 1.395 1_655 S
C1790 C1793 1.403 . S
C1791 C1788 1.403 . S
C1791 C1792 1.524 . S
C1791 C1795 1.400 . S
C1792 H1777 0.960 . S
C1792 H1778 0.960 . S
C1792 H1779 0.960 . S
C1792 C1791 1.524 . S
C1793 C1790 1.403 . S
C1793 C1794 1.392 . S
C1793 C1797 1.495 . S
C1794 C1793 1.392 . S
C1794 C1795 1.385 1_655 S
C1794 C1796 1.478 . S
C1795 H1789 0.930 . S
C1795 C1791 1.400 . S
C1795 C1794 1.385 1_455 S
C1796 C1794 1.478 . S
C1796 C1798 1.381 . S
C1796 C1802 1.383 . S
C1797 C1793 1.495 . S
C1797 H1803 0.959 . S
C1797 H1804 0.961 . S
C1797 H1805 0.960 . S
C1798 C1796 1.381 . S
C1798 C1799 1.394 . S
C1798 H1806 0.930 . S
C1799 C1798 1.394 . S
C1799 C1800 1.383 . S
C1799 H1807 0.929 . S
C1800 C1799 1.383 . S
C1800 C1801 1.377 . S
C1801 H1785 0.930 . S
C1801 C1800 1.377 . S
C1801 C1802 1.379 . S
C1802 H1786 0.931 . S
C1802 C1796 1.383 . S
C1802 C1801 1.379 . S
H1803 C1797 0.959 . S
H1804 C1797 0.961 . S
H1805 C1797 0.960 . S
H1806 C1798 0.930 . S
H1807 C1799 0.929 . S
H1808 C1816 0.929 . S
H1809 C1818 0.930 1_455 S
H1810 C1820 0.930 . S
H1811 C1823 0.929 . S
H1812 C1826 0.930 . S
H1813 C1828 0.960 . S
H1814 C1828 0.960 . S
H1815 C1828 0.960 . S
C1816 H1808 0.929 . S
C1816 C1817 1.377 . S
C1816 C1818 1.384 . S
C1817 C1816 1.377 . S
C1817 C1823 1.390 . S
C1818 H1809 0.930 1_655 S
C1818 C1816 1.384 . S
C1818 C1819 1.372 . S
C1819 C1818 1.372 . S
C1819 C1820 1.400 . S
C1819 C1824 1.490 . S
C1820 H1810 0.930 . S
C1820 C1819 1.400 . S
C1820 C1823 1.386 . S
H1821 C1837 0.930 . S
H1822 C1838 0.931 1_655 S
C1823 H1811 0.929 . S
C1823 C1817 1.390 . S
C1823 C1820 1.386 . S
C1824 C1819 1.490 . S
C1824 C1826 1.395 1_655 S
C1824 C1827 1.403 . S
H1825 C1831 0.930 . S
C1826 H1812 0.930 . S
C1826 C1824 1.395 1_455 S
C1826 C1829 1.403 . S
C1827 C1824 1.403 . S
C1827 C1828 1.524 . S
C1827 C1831 1.400 . S
C1828 H1813 0.960 . S
C1828 H1814 0.960 . S
C1828 H1815 0.960 . S
C1828 C1827 1.524 . S
C1829 C1826 1.403 . S
C1829 C1830 1.392 . S
C1829 C1833 1.495 . S
C1830 C1829 1.392 . S
C1830 C1831 1.385 1_455 S
C1830 C1832 1.478 . S
C1831 H1825 0.930 . S
C1831 C1827 1.400 . S
C1831 C1830 1.385 1_655 S
C1832 C1830 1.478 . S
C1832 C1834 1.381 . S
C1832 C1838 1.383 . S
C1833 C1829 1.495 . S
C1833 H1839 0.959 . S
C1833 H1840 0.961 . S
C1833 H1841 0.960 . S
C1834 C1832 1.381 . S
C1834 C1835 1.394 . S
C1834 H1842 0.930 . S
C1835 C1834 1.394 . S
C1835 C1836 1.383 . S
C1835 H1843 0.929 . S
C1836 C1835 1.383 . S
C1836 C1837 1.377 . S
C1837 H1821 0.930 . S
C1837 C1836 1.377 . S
C1837 C1838 1.379 . S
C1838 H1822 0.931 1_455 S
C1838 C1832 1.383 . S
C1838 C1837 1.379 . S
H1839 C1833 0.959 . S
H1840 C1833 0.961 . S
H1841 C1833 0.960 . S
H1842 C1834 0.930 . S
H1843 C1835 0.929 . S
H1844 C1852 0.929 . S
H1845 C1854 0.930 1_655 S
H1846 C1856 0.930 . S
H1847 C1859 0.929 . S
H1848 C1862 0.933 . S
H1849 C1864 0.960 . S
H1850 C1864 0.960 . S
H1851 C1864 0.960 1_455 S
C1852 H1844 0.929 . S
C1852 C1853 1.377 . S
C1852 C1854 1.384 . S
C1853 C1852 1.377 . S
C1853 C1859 1.390 . S
C1854 H1845 0.930 1_455 S
C1854 C1852 1.384 . S
C1854 C1855 1.372 . S
C1855 C1854 1.372 . S
C1855 C1856 1.400 . S
C1855 C1860 1.490 . S
C1856 H1846 0.930 . S
C1856 C1855 1.400 . S
C1856 C1859 1.386 . S
H1857 C1873 0.930 . S
H1858 C1874 0.931 1_455 S
C1859 H1847 0.929 . S
C1859 C1853 1.390 . S
C1859 C1856 1.386 . S
C1860 C1855 1.490 . S
C1860 C1862 1.396 1_565 S
C1860 C1863 1.403 1_455 S
H1861 C1867 0.930 . S
C1862 H1848 0.933 . S
C1862 C1860 1.396 1_545 S
C1862 C1865 1.399 1_455 S
C1863 C1860 1.403 1_655 S
C1863 C1864 1.524 . S
C1863 C1867 1.400 . S
C1864 H1849 0.960 . S
C1864 H1850 0.960 . S
C1864 H1851 0.960 1_655 S
C1864 C1863 1.524 . S
C1865 C1862 1.399 1_655 S
C1865 C1866 1.392 . S
C1865 C1869 1.495 . S
C1866 C1865 1.392 . S
C1866 C1867 1.385 1_545 S
C1866 C1868 1.478 . S
C1867 H1861 0.930 . S
C1867 C1863 1.400 . S
C1867 C1866 1.385 1_565 S
C1868 C1866 1.478 . S
C1868 C1870 1.381 . S
C1868 C1874 1.383 . S
C1869 C1865 1.495 . S
C1869 H1875 0.959 . S
C1869 H1876 0.956 1_655 S
C1869 H1877 0.960 . S
C1870 C1868 1.381 . S
C1870 C1871 1.394 . S
C1870 H1878 0.930 . S
C1871 C1870 1.394 . S
C1871 C1872 1.383 . S
C1871 H1879 0.929 . S
C1872 C1871 1.383 . S
C1872 C1873 1.377 . S
C1873 H1857 0.930 . S
C1873 C1872 1.377 . S
C1873 C1874 1.379 . S
C1874 H1858 0.931 1_655 S
C1874 C1868 1.383 . S
C1874 C1873 1.379 . S
H1875 C1869 0.959 . S
H1876 C1869 0.956 1_455 S
H1877 C1869 0.960 . S
H1878 C1870 0.930 . S
H1879 C1871 0.929 . S
H1880 C1888 0.929 . S
H1881 C1890 0.930 1_565 S
H1882 C1892 0.930 . S
H1883 C1895 0.929 . S
H1884 C1898 0.930 . S
H1885 C1900 0.960 . S
H1886 C1900 0.960 . S
H1887 C1900 0.968 . S
C1888 H1880 0.929 . S
C1888 C1889 1.377 . S
C1888 C1890 1.384 . S
C1889 C1888 1.377 . S
C1889 C1895 1.390 . S
C1890 H1881 0.930 1_545 S
C1890 C1888 1.384 . S
C1890 C1891 1.372 . S
C1891 C1890 1.372 . S
C1891 C1892 1.400 . S
C1891 C1896 1.490 . S
C1892 H1882 0.930 . S
C1892 C1891 1.400 . S
C1892 C1895 1.386 . S
H1893 C1909 0.930 . S
H1894 C1910 0.961 . S
C1895 H1883 0.929 . S
C1895 C1889 1.390 . S
C1895 C1892 1.386 . S
C1896 C1891 1.490 . S
C1896 C1898 1.395 . S
C1896 C1899 1.403 1_545 S
H1897 C1903 0.930 . S
C1898 H1884 0.930 . S
C1898 C1896 1.395 . S
C1898 C1901 1.403 1_545 S
C1899 C1896 1.403 1_565 S
C1899 C1900 1.524 . S
C1899 C1903 1.400 . S
C1900 H1885 0.960 . S
C1900 H1886 0.960 . S
C1900 H1887 0.968 . S
C1900 C1899 1.524 . S
C1901 C1898 1.403 1_565 S
C1901 C1902 1.392 . S
C1901 C1905 1.495 1_565 S
C1902 C1901 1.392 . S
C1902 C1903 1.385 . S
C1902 C1904 1.478 . S
C1903 H1897 0.930 . S
C1903 C1899 1.400 . S
C1903 C1902 1.385 . S
C1904 C1902 1.478 . S
C1904 C1906 1.381 . S
C1904 C1910 1.383 . S
C1905 C1901 1.495 1_545 S
C1905 H1911 0.959 . S
C1905 H1912 0.961 . S
C1905 H1913 0.960 1_545 S
C1906 C1904 1.381 . S
C1906 C1907 1.394 . S
C1906 H1914 0.930 . S
C1907 C1906 1.394 . S
C1907 C1908 1.383 . S
C1907 H1915 0.929 . S
C1908 C1907 1.383 . S
C1908 C1909 1.377 . S
C1909 H1893 0.930 . S
C1909 C1908 1.377 . S
C1909 C1910 1.379 . S
C1910 H1894 0.961 . S
C1910 C1904 1.383 . S
C1910 C1909 1.379 . S
H1911 C1905 0.959 . S
H1912 C1905 0.961 . S
H1913 C1905 0.960 1_565 S
H1914 C1906 0.930 . S
H1915 C1907 0.929 . S
H1916 C1924 0.929 . S
H1917 C1926 0.930 . S
H1918 C1928 0.930 . S
H1919 C1931 0.929 . S
H1920 C1934 0.930 . S
H1921 C1936 0.960 . S
H1922 C1936 0.960 . S
H1923 C1936 0.960 . S
C1924 H1916 0.929 . S
C1924 C1925 1.377 . S
C1924 C1926 1.384 . S
C1925 C1924 1.377 . S
C1925 C1931 1.390 . S
C1926 H1917 0.930 . S
C1926 C1924 1.384 . S
C1926 C1927 1.372 . S
C1927 C1926 1.372 . S
C1927 C1928 1.400 . S
C1927 C1932 1.490 . S
C1928 H1918 0.930 . S
C1928 C1927 1.400 . S
C1928 C1931 1.386 . S
H1929 C1945 0.930 . S
H1930 C1946 0.931 . S
C1931 H1919 0.929 . S
C1931 C1925 1.390 . S
C1931 C1928 1.386 . S
C1932 C1927 1.490 . S
C1932 C1934 1.395 . S
C1932 C1935 1.403 . S
H1933 C1939 0.930 . S
C1934 H1920 0.930 . S
C1934 C1932 1.395 . S
C1934 C1937 1.403 . S
C1935 C1932 1.403 . S
C1935 C1936 1.524 . S
C1935 C1939 1.400 . S
C1936 H1921 0.960 . S
C1936 H1922 0.960 . S
C1936 H1923 0.960 . S
C1936 C1935 1.524 . S
C1937 C1934 1.403 . S
C1937 C1938 1.392 . S
C1937 C1941 1.495 . S
C1938 C1937 1.392 . S
C1938 C1939 1.385 . S
C1938 C1940 1.478 . S
C1939 H1933 0.930 . S
C1939 C1935 1.400 . S
C1939 C1938 1.385 . S
C1940 C1938 1.478 . S
C1940 C1942 1.381 . S
C1940 C1946 1.383 . S
C1941 C1937 1.495 . S
C1941 H1947 0.959 . S
C1941 H1948 0.961 . S
C1941 H1949 0.960 . S
C1942 C1940 1.381 . S
C1942 C1943 1.394 . S
C1942 H1950 0.930 . S
C1943 C1942 1.394 . S
C1943 C1944 1.383 . S
C1943 H1951 0.929 . S
C1944 C1943 1.383 . S
C1944 C1945 1.377 . S
C1945 H1929 0.930 . S
C1945 C1944 1.377 . S
C1945 C1946 1.379 . S
C1946 H1930 0.931 . S
C1946 C1940 1.383 . S
C1946 C1945 1.379 . S
H1947 C1941 0.959 . S
H1948 C1941 0.961 . S
H1949 C1941 0.960 . S
H1950 C1942 0.930 . S
H1951 C1943 0.929 . S
H1952 C1960 0.929 . S
H1953 C1962 0.930 . S
H1954 C1964 0.930 . S
H1955 C1967 0.929 . S
H1956 C1970 0.930 . S
H1957 C1972 0.960 . S
H1958 C1972 0.960 . S
H1959 C1972 0.960 . S
C1960 H1952 0.929 . S
C1960 C1961 1.377 . S
C1960 C1962 1.384 . S
C1961 C1960 1.377 . S
C1961 C1967 1.390 . S
C1962 H1953 0.930 . S
C1962 C1960 1.384 . S
C1962 C1963 1.372 . S
C1963 C1962 1.372 . S
C1963 C1964 1.400 . S
C1963 C1968 1.490 . S
C1964 H1954 0.930 . S
C1964 C1963 1.400 . S
C1964 C1967 1.386 . S
H1965 C1981 0.930 . S
H1966 C1982 0.931 . S
C1967 H1955 0.929 . S
C1967 C1961 1.390 . S
C1967 C1964 1.386 . S
C1968 C1963 1.490 . S
C1968 C1970 1.395 . S
C1968 C1971 1.403 1_455 S
H1969 C1975 0.930 . S
C1970 H1956 0.930 . S
C1970 C1968 1.395 . S
C1970 C1973 1.403 . S
C1971 C1968 1.403 1_655 S
C1971 C1972 1.524 . S
C1971 C1975 1.400 . S
C1972 H1957 0.960 . S
C1972 H1958 0.960 . S
C1972 H1959 0.960 . S
C1972 C1971 1.524 . S
C1973 C1970 1.403 . S
C1973 C1974 1.385 1_455 S
C1973 C1977 1.495 . S
C1974 C1973 1.385 1_655 S
C1974 C1975 1.389 . S
C1974 C1976 1.480 . S
C1975 H1969 0.930 . S
C1975 C1971 1.400 . S
C1975 C1974 1.389 . S
C1976 C1974 1.480 . S
C1976 C1978 1.381 . S
C1976 C1982 1.383 . S
C1977 C1973 1.495 . S
C1977 H1983 0.959 . S
C1977 H1984 0.961 . S
C1977 H1985 0.960 . S
C1978 C1976 1.381 . S
C1978 C1979 1.394 . S
C1978 H1986 0.930 . S
C1979 C1978 1.394 . S
C1979 C1980 1.383 . S
C1979 H1987 0.929 . S
C1980 C1979 1.383 . S
C1980 C1981 1.377 . S
C1981 H1965 0.930 . S
C1981 C1980 1.377 . S
C1981 C1982 1.379 . S
C1982 H1966 0.931 . S
C1982 C1976 1.383 . S
C1982 C1981 1.379 . S
H1983 C1977 0.959 . S
H1984 C1977 0.961 . S
H1985 C1977 0.960 . S
H1986 C1978 0.930 . S
H1987 C1979 0.929 . S
H1988 C1996 0.929 . S
H1989 C1998 0.930 1_565 S
H1990 C2000 0.930 . S
H1991 C2003 0.929 . S
H1992 C2006 0.930 . S
H1993 C2008 0.960 . S
H1994 C2008 0.960 . S
H1995 C2008 0.960 . S
C1996 H1988 0.929 . S
C1996 C1997 1.377 . S
C1996 C1998 1.384 . S
C1997 C1996 1.377 . S
C1997 C2003 1.390 . S
C1998 H1989 0.930 1_545 S
C1998 C1996 1.384 . S
C1998 C1999 1.372 . S
C1999 C1998 1.372 . S
C1999 C2000 1.400 . S
C1999 C2004 1.490 . S
C2000 H1990 0.930 . S
C2000 C1999 1.400 . S
C2000 C2003 1.386 . S
H2001 C2017 0.930 1_545 S
H2002 C2018 0.963 . S
C2003 H1991 0.929 . S
C2003 C1997 1.390 . S
C2003 C2000 1.386 . S
C2004 C1999 1.490 . S
C2004 C2006 1.395 1_655 S
C2004 C2007 1.403 . S
H2005 C2011 0.930 . S
C2006 H1992 0.930 . S
C2006 C2004 1.395 1_455 S
C2006 C2009 1.403 1_545 S
C2007 C2004 1.403 . S
C2007 C2008 1.524 . S
C2007 C2011 1.400 . S
C2008 H1993 0.960 . S
C2008 H1994 0.960 . S
C2008 H1995 0.960 . S
C2008 C2007 1.524 . S
C2009 C2006 1.403 1_565 S
C2009 C2010 1.392 . S
C2009 C2013 1.495 . S
C2010 C2009 1.392 . S
C2010 C2011 1.385 1_465 S
C2010 C2012 1.478 . S
C2011 H2005 0.930 . S
C2011 C2007 1.400 . S
C2011 C2010 1.385 1_645 S
C2012 C2010 1.478 . S
C2012 C2014 1.381 . S
C2012 C2018 1.363 1_565 S
C2013 C2009 1.495 . S
C2013 H2019 0.959 . S
C2013 H2020 0.961 . S
C2013 H2021 0.960 . S
C2014 C2012 1.381 . S
C2014 C2015 1.394 . S
C2014 H2022 0.930 . S
C2015 C2014 1.394 . S
C2015 C2016 1.383 . S
C2015 H2023 0.929 . S
C2016 C2015 1.383 . S
C2016 C2017 1.377 . S
C2017 H2001 0.930 1_565 S
C2017 C2016 1.377 . S
C2017 C2018 1.369 1_565 S
C2018 H2002 0.963 . S
C2018 C2012 1.363 1_545 S
C2018 C2017 1.369 1_545 S
H2019 C2013 0.959 . S
H2020 C2013 0.961 . S
H2021 C2013 0.960 . S
H2022 C2014 0.930 . S
H2023 C2015 0.929 . S
H2024 C2032 0.929 . S
H2025 C2034 0.930 1_545 S
H2026 C2036 0.930 . S
H2027 C2039 0.929 . S
H2028 C2042 0.930 . S
H2029 C2044 0.960 . S
H2030 C2044 0.960 . S
H2031 C2044 0.960 1_565 S
C2032 H2024 0.929 . S
C2032 C2033 1.377 . S
C2032 C2034 1.384 . S
C2033 C2032 1.377 . S
C2033 C2039 1.390 . S
C2034 H2025 0.930 1_565 S
C2034 C2032 1.384 . S
C2034 C2035 1.372 . S
C2035 C2034 1.372 . S
C2035 C2036 1.400 . S
C2035 C2040 1.490 . S
C2036 H2026 0.930 . S
C2036 C2035 1.400 . S
C2036 C2039 1.386 . S
H2037 C2053 0.930 . S
H2038 C2054 0.931 1_565 S
C2039 H2027 0.929 . S
C2039 C2033 1.390 . S
C2039 C2036 1.386 . S
C2040 C2035 1.490 . S
C2040 C2042 1.395 . S
C2040 C2043 1.403 1_565 S
H2041 C2047 0.930 . S
C2042 H2028 0.930 . S
C2042 C2040 1.395 . S
C2042 C2045 1.403 1_565 S
C2043 C2040 1.403 1_545 S
C2043 C2044 1.524 . S
C2043 C2047 1.400 . S
C2044 H2029 0.960 . S
C2044 H2030 0.960 . S
C2044 H2031 0.960 1_545 S
C2044 C2043 1.524 . S
C2045 C2042 1.403 1_545 S
C2045 C2046 1.392 . S
C2045 C2049 1.495 . S
C2046 C2045 1.392 . S
C2046 C2047 1.385 . S
C2046 C2048 1.478 . S
C2047 H2041 0.930 . S
C2047 C2043 1.400 . S
C2047 C2046 1.385 . S
C2048 C2046 1.478 . S
C2048 C2050 1.381 . S
C2048 C2054 1.383 . S
C2049 C2045 1.495 . S
C2049 H2055 0.959 1_545 S
C2049 H2056 0.961 1_545 S
C2049 H2057 0.960 . S
C2050 C2048 1.381 . S
C2050 C2051 1.394 . S
C2050 H2058 0.930 . S
C2051 C2050 1.394 . S
C2051 C2052 1.383 . S
C2051 H2059 0.929 . S
C2052 C2051 1.383 . S
C2052 C2053 1.377 . S
C2053 H2037 0.930 . S
C2053 C2052 1.377 . S
C2053 C2054 1.379 . S
C2054 H2038 0.931 1_545 S
C2054 C2048 1.383 . S
C2054 C2053 1.379 . S
H2055 C2049 0.959 1_565 S
H2056 C2049 0.961 1_565 S
H2057 C2049 0.960 . S
H2058 C2050 0.930 . S
H2059 C2051 0.929 . S
H2060 C2068 0.929 . S
H2061 C2070 0.930 . S
H2062 C2072 0.930 . S
H2063 C2075 0.929 . S
H2064 C2078 0.930 . S
H2065 C2080 0.960 . S
H2066 C2080 0.960 . S
H2067 C2080 0.960 . S
C2068 H2060 0.929 . S
C2068 C2069 1.377 . S
C2068 C2070 1.384 . S
C2069 C2068 1.377 . S
C2069 C2075 1.390 . S
C2070 H2061 0.930 . S
C2070 C2068 1.384 . S
C2070 C2071 1.372 . S
C2071 C2070 1.372 . S
C2071 C2072 1.400 . S
C2071 C2076 1.490 . S
C2072 H2062 0.930 . S
C2072 C2071 1.400 . S
C2072 C2075 1.386 . S
H2073 C2089 0.930 . S
H2074 C2090 0.931 . S
C2075 H2063 0.929 . S
C2075 C2069 1.390 . S
C2075 C2072 1.386 . S
C2076 C2071 1.490 . S
C2076 C2078 1.395 . S
C2076 C2079 1.403 . S
H2077 C2083 0.930 . S
C2078 H2064 0.930 . S
C2078 C2076 1.395 . S
C2078 C2081 1.403 . S
C2079 C2076 1.403 . S
C2079 C2080 1.524 . S
C2079 C2083 1.400 . S
C2080 H2065 0.960 . S
C2080 H2066 0.960 . S
C2080 H2067 0.960 . S
C2080 C2079 1.524 . S
C2081 C2078 1.403 . S
C2081 C2082 1.392 . S
C2081 C2085 1.495 . S
C2082 C2081 1.392 . S
C2082 C2083 1.385 . S
C2082 C2084 1.478 . S
C2083 H2077 0.930 . S
C2083 C2079 1.400 . S
C2083 C2082 1.385 . S
C2084 C2082 1.478 . S
C2084 C2086 1.381 . S
C2084 C2090 1.383 . S
C2085 C2081 1.495 . S
C2085 H2091 0.959 . S
C2085 H2092 0.961 . S
C2085 H2093 0.960 . S
C2086 C2084 1.381 . S
C2086 C2087 1.394 . S
C2086 H2094 0.930 . S
C2087 C2086 1.394 . S
C2087 C2088 1.383 . S
C2087 H2095 0.929 . S
C2088 C2087 1.383 . S
C2088 C2089 1.377 . S
C2089 H2073 0.930 . S
C2089 C2088 1.377 . S
C2089 C2090 1.379 . S
C2090 H2074 0.931 . S
C2090 C2084 1.383 . S
C2090 C2089 1.379 . S
H2091 C2085 0.959 . S
H2092 C2085 0.961 . S
H2093 C2085 0.960 . S
H2094 C2086 0.930 . S
H2095 C2087 0.929 . S
C377 C89 0.431 . S
C396 C18 0.447 . S
C413 C20 0.431 . S
C432 C41 0.461 . S
C449 C64 0.430 . S
C468 C43 0.432 . S
C485 C66 0.448 . S
C504 C87 0.393 . S
C521 C110 0.418 . S
C540 C135 0.489 . S
C557 C133 0.430 . S
C576 C158 0.414 . S
C593 C156 0.423 . S
C612 C181 0.459 . S
C629 C112 0.443 . S
C648 C179 0.418 . S
C665 C202 0.430 . S
C684 C273 0.422 . S
C701 C204 0.447 . S
C720 C225 0.469 . S
C737 C227 0.446 . S
C756 C248 0.471 . S
C773 C250 0.433 . S
C792 C271 0.394 . S
C809 C294 0.433 . S
C828 C319 0.490 . S
C845 C342 0.434 . S
C864 C317 0.394 . S
C881 C365 0.433 . S
C900 C340 0.393 . S
C917 C363 0.422 . S
C936 C296 0.450 . S
C953 C17 0.471 . S
C972 C109 0.475 . S
C989 C132 0.471 . S
C1008 C40 0.473 . S
C1025 C63 0.473 . S
C1044 C155 0.473 . S
C1061 C86 0.472 . S
C1080 C178 0.478 . S
C1097 C293 0.471 . S
C1116 C201 0.471 . S
C1133 C316 0.472 . S
C1152 C224 0.472 . S
C1169 C247 0.473 . S
C1188 C339 0.475 . S
C1205 C362 0.473 . S
C1224 C270 0.473 . S
C1241 C21 1.715 . S
C1260 C67 1.697 . S
C1277 C44 1.726 . S
C1296 C90 1.739 . S
C1313 C159 1.716 . S
C1332 C113 1.709 . S
C1349 C182 1.723 . S
C1368 C136 1.721 . S
C1385 C251 1.723 . S
C1404 C205 1.719 . S
C1421 C274 1.720 . S
C1440 C228 1.699 . S
C1457 C297 1.719 . S
C1476 C343 1.704 . S
C1493 C320 1.725 . S
C1512 C366 1.688 . S
C1529 C200 1.410 . S
C1548 C16 1.392 . S
C1565 C223 1.410 . S
C1584 C39 1.396 . S
C1601 C246 1.410 . S
C1620 C62 1.411 . S
C1637 C85 1.418 . S
C1656 C269 1.415 . S
C1673 C292 1.418 . S
C1692 C108 1.428 . S
C1709 C315 1.413 . S
C1728 C131 1.426 . S
C1745 C338 1.412 . S
C1764 C154 1.390 . S
C1781 C361 1.409 . S
C1800 C177 1.401 . S
C1817 C180 1.512 . S
C1836 C19 1.538 . S
C1853 C111 1.511 . S
C1872 C42 1.544 . S
C1889 C134 1.511 . S
C1908 C65 1.544 . S
C1925 C157 1.523 . S
C1944 C88 1.484 . S
C1961 C364 1.516 . S
C1980 C203 1.485 . S
C1997 C295 1.522 . S
C2016 C226 1.516 . S
C2033 C318 1.511 . S
C2052 C249 1.490 . S
C2069 C272 1.522 . S
C2088 C341 1.511 . S
