# Generated by pormake.
# Topology uow, (4)-cn, num edge types: 1
# Building blocks:
#     Node 0, Type 0, BuildingBlock: CEKHIL_clean_sbu_0, # of connection points: 4
#     Node 1, Type 0, BuildingBlock: CEKHIL_clean_sbu_0, # of connection points: 4
#     Node 2, Type 0, BuildingBlock: CEKHIL_clean_sbu_0, # of connection points: 4
#     Node 3, Type 0, BuildingBlock: CEKHIL_clean_sbu_0, # of connection points: 4
#     Node 4, Type 0, BuildingBlock: CEKHIL_clean_sbu_0, # of connection points: 4
#     Node 5, Type 0, BuildingBlock: CEKHIL_clean_sbu_0, # of connection points: 4
#     Node 6, Type 0, BuildingBlock: CEKHIL_clean_sbu_0, # of connection points: 4
#     Node 7, Type 0, BuildingBlock: CEKHIL_clean_sbu_0, # of connection points: 4
#     Node 8, Type 0, BuildingBlock: CEKHIL_clean_sbu_0, # of connection points: 4
#     Node 9, Type 0, BuildingBlock: CEKHIL_clean_sbu_0, # of connection points: 4
#     Node 10, Type 0, BuildingBlock: CEKHIL_clean_sbu_0, # of connection points: 4
#     Node 11, Type 0, BuildingBlock: CEKHIL_clean_sbu_0, # of connection points: 4
#     Node 12, Type 0, BuildingBlock: CEKHIL_clean_sbu_0, # of connection points: 4
#     Node 13, Type 0, BuildingBlock: CEKHIL_clean_sbu_0, # of connection points: 4
#     Node 14, Type 0, BuildingBlock: CEKHIL_clean_sbu_0, # of connection points: 4
#     Node 15, Type 0, BuildingBlock: CEKHIL_clean_sbu_0, # of connection points: 4
#     Node 16, Type 0, BuildingBlock: CEKHIL_clean_sbu_0, # of connection points: 4
#     Node 17, Type 0, BuildingBlock: CEKHIL_clean_sbu_0, # of connection points: 4
#     Node 18, Type 0, BuildingBlock: CEKHIL_clean_sbu_0, # of connection points: 4
#     Node 19, Type 0, BuildingBlock: CEKHIL_clean_sbu_0, # of connection points: 4
#     Node 20, Type 0, BuildingBlock: CEKHIL_clean_sbu_0, # of connection points: 4
#     Node 21, Type 0, BuildingBlock: CEKHIL_clean_sbu_0, # of connection points: 4
#     Node 22, Type 0, BuildingBlock: CEKHIL_clean_sbu_0, # of connection points: 4
#     Node 23, Type 0, BuildingBlock: CEKHIL_clean_sbu_0, # of connection points: 4
#     Node 24, Type 0, BuildingBlock: CEKHIL_clean_sbu_0, # of connection points: 4
#     Node 25, Type 0, BuildingBlock: CEKHIL_clean_sbu_0, # of connection points: 4
#     Node 26, Type 0, BuildingBlock: CEKHIL_clean_sbu_0, # of connection points: 4
#     Node 27, Type 0, BuildingBlock: CEKHIL_clean_sbu_0, # of connection points: 4
#     Node 28, Type 0, BuildingBlock: CEKHIL_clean_sbu_0, # of connection points: 4
#     Node 29, Type 0, BuildingBlock: CEKHIL_clean_sbu_0, # of connection points: 4
#     Node 30, Type 0, BuildingBlock: CEKHIL_clean_sbu_0, # of connection points: 4
#     Node 31, Type 0, BuildingBlock: CEKHIL_clean_sbu_0, # of connection points: 4
#     Edge 32, Type (0, 0), BuildingBlock: OJICUG_clean_linker_0, # of connection points: 2
#     Edge 33, Type (0, 0), BuildingBlock: OJICUG_clean_linker_0, # of connection points: 2
#     Edge 34, Type (0, 0), BuildingBlock: OJICUG_clean_linker_0, # of connection points: 2
#     Edge 35, Type (0, 0), BuildingBlock: OJICUG_clean_linker_0, # of connection points: 2
#     Edge 36, Type (0, 0), BuildingBlock: OJICUG_clean_linker_0, # of connection points: 2
#     Edge 37, Type (0, 0), BuildingBlock: OJICUG_clean_linker_0, # of connection points: 2
#     Edge 38, Type (0, 0), BuildingBlock: OJICUG_clean_linker_0, # of connection points: 2
#     Edge 39, Type (0, 0), BuildingBlock: OJICUG_clean_linker_0, # of connection points: 2
#     Edge 40, Type (0, 0), BuildingBlock: OJICUG_clean_linker_0, # of connection points: 2
#     Edge 41, Type (0, 0), BuildingBlock: OJICUG_clean_linker_0, # of connection points: 2
#     Edge 42, Type (0, 0), BuildingBlock: OJICUG_clean_linker_0, # of connection points: 2
#     Edge 43, Type (0, 0), BuildingBlock: OJICUG_clean_linker_0, # of connection points: 2
#     Edge 44, Type (0, 0), BuildingBlock: OJICUG_clean_linker_0, # of connection points: 2
#     Edge 45, Type (0, 0), BuildingBlock: OJICUG_clean_linker_0, # of connection points: 2
#     Edge 46, Type (0, 0), BuildingBlock: OJICUG_clean_linker_0, # of connection points: 2
#     Edge 47, Type (0, 0), BuildingBlock: OJICUG_clean_linker_0, # of connection points: 2
#     Edge 48, Type (0, 0), BuildingBlock: OJICUG_clean_linker_0, # of connection points: 2
#     Edge 49, Type (0, 0), BuildingBlock: OJICUG_clean_linker_0, # of connection points: 2
#     Edge 50, Type (0, 0), BuildingBlock: OJICUG_clean_linker_0, # of connection points: 2
#     Edge 51, Type (0, 0), BuildingBlock: OJICUG_clean_linker_0, # of connection points: 2
#     Edge 52, Type (0, 0), BuildingBlock: OJICUG_clean_linker_0, # of connection points: 2
#     Edge 53, Type (0, 0), BuildingBlock: OJICUG_clean_linker_0, # of connection points: 2
#     Edge 54, Type (0, 0), BuildingBlock: OJICUG_clean_linker_0, # of connection points: 2
#     Edge 55, Type (0, 0), BuildingBlock: OJICUG_clean_linker_0, # of connection points: 2
#     Edge 56, Type (0, 0), BuildingBlock: OJICUG_clean_linker_0, # of connection points: 2
#     Edge 57, Type (0, 0), BuildingBlock: OJICUG_clean_linker_0, # of connection points: 2
#     Edge 58, Type (0, 0), BuildingBlock: OJICUG_clean_linker_0, # of connection points: 2
#     Edge 59, Type (0, 0), BuildingBlock: OJICUG_clean_linker_0, # of connection points: 2
#     Edge 60, Type (0, 0), BuildingBlock: OJICUG_clean_linker_0, # of connection points: 2
#     Edge 61, Type (0, 0), BuildingBlock: OJICUG_clean_linker_0, # of connection points: 2
#     Edge 62, Type (0, 0), BuildingBlock: OJICUG_clean_linker_0, # of connection points: 2
#     Edge 63, Type (0, 0), BuildingBlock: OJICUG_clean_linker_0, # of connection points: 2
#     Edge 64, Type (0, 0), BuildingBlock: OJICUG_clean_linker_0, # of connection points: 2
#     Edge 65, Type (0, 0), BuildingBlock: OJICUG_clean_linker_0, # of connection points: 2
#     Edge 66, Type (0, 0), BuildingBlock: OJICUG_clean_linker_0, # of connection points: 2
#     Edge 67, Type (0, 0), BuildingBlock: OJICUG_clean_linker_0, # of connection points: 2
#     Edge 68, Type (0, 0), BuildingBlock: OJICUG_clean_linker_0, # of connection points: 2
#     Edge 69, Type (0, 0), BuildingBlock: OJICUG_clean_linker_0, # of connection points: 2
#     Edge 70, Type (0, 0), BuildingBlock: OJICUG_clean_linker_0, # of connection points: 2
#     Edge 71, Type (0, 0), BuildingBlock: OJICUG_clean_linker_0, # of connection points: 2
#     Edge 72, Type (0, 0), BuildingBlock: OJICUG_clean_linker_0, # of connection points: 2
#     Edge 73, Type (0, 0), BuildingBlock: OJICUG_clean_linker_0, # of connection points: 2
#     Edge 74, Type (0, 0), BuildingBlock: OJICUG_clean_linker_0, # of connection points: 2
#     Edge 75, Type (0, 0), BuildingBlock: OJICUG_clean_linker_0, # of connection points: 2
#     Edge 76, Type (0, 0), BuildingBlock: OJICUG_clean_linker_0, # of connection points: 2
#     Edge 77, Type (0, 0), BuildingBlock: OJICUG_clean_linker_0, # of connection points: 2
#     Edge 78, Type (0, 0), BuildingBlock: OJICUG_clean_linker_0, # of connection points: 2
#     Edge 79, Type (0, 0), BuildingBlock: OJICUG_clean_linker_0, # of connection points: 2
#     Edge 80, Type (0, 0), BuildingBlock: OJICUG_clean_linker_0, # of connection points: 2
#     Edge 81, Type (0, 0), BuildingBlock: OJICUG_clean_linker_0, # of connection points: 2
#     Edge 82, Type (0, 0), BuildingBlock: OJICUG_clean_linker_0, # of connection points: 2
#     Edge 83, Type (0, 0), BuildingBlock: OJICUG_clean_linker_0, # of connection points: 2
#     Edge 84, Type (0, 0), BuildingBlock: OJICUG_clean_linker_0, # of connection points: 2
#     Edge 85, Type (0, 0), BuildingBlock: OJICUG_clean_linker_0, # of connection points: 2
#     Edge 86, Type (0, 0), BuildingBlock: OJICUG_clean_linker_0, # of connection points: 2
#     Edge 87, Type (0, 0), BuildingBlock: OJICUG_clean_linker_0, # of connection points: 2
#     Edge 88, Type (0, 0), BuildingBlock: OJICUG_clean_linker_0, # of connection points: 2
#     Edge 89, Type (0, 0), BuildingBlock: OJICUG_clean_linker_0, # of connection points: 2
#     Edge 90, Type (0, 0), BuildingBlock: OJICUG_clean_linker_0, # of connection points: 2
#     Edge 91, Type (0, 0), BuildingBlock: OJICUG_clean_linker_0, # of connection points: 2
#     Edge 92, Type (0, 0), BuildingBlock: OJICUG_clean_linker_0, # of connection points: 2
#     Edge 93, Type (0, 0), BuildingBlock: OJICUG_clean_linker_0, # of connection points: 2
#     Edge 94, Type (0, 0), BuildingBlock: OJICUG_clean_linker_0, # of connection points: 2
#     Edge 95, Type (0, 0), BuildingBlock: OJICUG_clean_linker_0, # of connection points: 2
# Relax obj value: 0.097
# Max RMSD: 0.128
# Mean RMSD: 0.128
data_MOF--net-uow--node1-CEKHIL_clean_sbu_0--edge1-OJICUG_clean_linker_0
_symmetry_space_group_name_H-M    P1
_symmetry_Int_Tables_number       1
_symmetry_cell_setting            triclinic
loop_
_symmetry_equiv_pos_as_xyz
'x, y, z'
_cell_length_a     45.188544
_cell_length_b     45.229973
_cell_length_c     29.233133
_cell_angle_alpha  90.049425
_cell_angle_beta   90.047312
_cell_angle_gamma 90.013944
loop_
_atom_site_label
_atom_site_type_symbol
_atom_site_fract_x
_atom_site_fract_y
_atom_site_fract_z
_atom_type_partial_charge
Co0 Co 0.03403 0.38973 0.27315 0.0
O1 O 0.01853 0.41996 0.23405 0.0
O2 O 0.06198 0.42237 0.26864 0.0
C3 C 0.99187 0.38372 0.31384 0.0
O4 O 0.05669 0.36291 0.31706 0.0
Co5 Co 0.00463 0.32704 0.27612 0.0
O6 O 0.02775 0.32374 0.33343 0.0
C7 C 0.04993 0.34165 0.20542 0.0
C8 C 0.04218 0.43512 0.24297 0.0
C9 C 0.05067 0.33953 0.34035 0.0
O10 O 0.05293 0.36844 0.21984 0.0
O11 O 0.03124 0.32325 0.22195 0.0
O12 O 0.01032 0.40464 0.32445 0.0
O13 O 0.99826 0.36896 0.27756 0.0
Co14 Co 0.87171 0.78421 0.52183 0.0
O15 O 0.83829 0.7654 0.49384 0.0
O16 O 0.83799 0.81101 0.52132 0.0
C17 C 0.8844 0.74563 0.5666 0.0
O18 O 0.90195 0.81 0.555 0.0
Co19 Co 0.93468 0.7568 0.50765 0.0
O20 O 0.94691 0.78828 0.55089 0.0
C21 C 0.90574 0.78994 0.43341 0.0
C22 C 0.82353 0.78937 0.50214 0.0
C23 C 0.92975 0.80881 0.56461 0.0
O24 O 0.88561 0.7996 0.46068 0.0
O25 O 0.92464 0.77011 0.44438 0.0
O26 O 0.86374 0.76376 0.57962 0.0
O27 O 0.89437 0.74974 0.5259 0.0
Co28 Co 0.46414 0.61534 0.7662 0.0
O29 O 0.47914 0.58524 0.72616 0.0
O30 O 0.4374 0.58163 0.76517 0.0
C31 C 0.50755 0.62358 0.80301 0.0
O32 O 0.44245 0.64165 0.81204 0.0
Co33 Co 0.49052 0.67925 0.76462 0.0
O34 O 0.47106 0.68157 0.82513 0.0
C35 C 0.44172 0.66234 0.70098 0.0
C36 C 0.45659 0.56928 0.738 0.0
C37 C 0.44903 0.66516 0.83474 0.0
O38 O 0.44178 0.63526 0.71472 0.0
O39 O 0.45975 0.68205 0.71561 0.0
O40 O 0.49057 0.60177 0.81501 0.0
O41 O 0.49922 0.63771 0.76697 0.0
Co42 Co 0.64041 0.21846 0.01958 0.0
O43 O 0.67253 0.23519 0.98576 0.0
O44 O 0.67249 0.18996 0.01452 0.0
C45 C 0.63352 0.2585 0.06457 0.0
O46 O 0.6114 0.19439 0.05789 0.0
Co47 Co 0.5783 0.24908 0.01855 0.0
O48 O 0.57161 0.22305 0.07209 0.0
C49 C 0.59846 0.21298 0.9397 0.0
C50 C 0.68665 0.21066 0.99264 0.0
C51 C 0.58701 0.19987 0.07895 0.0
O52 O 0.62136 0.20357 0.96152 0.0
O53 O 0.58081 0.23278 0.95509 0.0
O54 O 0.65352 0.23905 0.07523 0.0
O55 O 0.62021 0.25421 0.02627 0.0
Co56 Co 0.0323 0.60965 0.20192 0.0
O57 O 0.01489 0.57288 0.22013 0.0
O58 O 0.06089 0.57775 0.19503 0.0
C59 C 0.99379 0.62564 0.15928 0.0
O60 O 0.05682 0.64418 0.17819 0.0
Co61 Co 0.00196 0.66853 0.23265 0.0
O62 O 0.03385 0.68705 0.19586 0.0
C63 C 0.03709 0.63405 0.29824 0.0
C64 C 0.03983 0.56051 0.20958 0.0
C65 C 0.05498 0.67262 0.17748 0.0
O66 O 0.04702 0.61746 0.26601 0.0
O67 O 0.01627 0.65287 0.2927 0.0
O68 O 0.01281 0.60711 0.14226 0.0
O69 O 0.99676 0.63104 0.20231 0.0
Co70 Co 0.64723 0.78203 0.47269 0.0
O71 O 0.68289 0.76673 0.49898 0.0
O72 O 0.68072 0.80669 0.45534 0.0
C73 C 0.62945 0.73821 0.44709 0.0
O74 O 0.61379 0.80326 0.43903 0.0
Co75 Co 0.58724 0.76051 0.51488 0.0
O76 O 0.57024 0.78706 0.4677 0.0
C77 C 0.6228 0.80511 0.5626 0.0
C78 C 0.6967 0.78818 0.47887 0.0
C79 C 0.58526 0.80341 0.44078 0.0
O80 O 0.63977 0.80801 0.52766 0.0
O81 O 0.60341 0.78468 0.56648 0.0
O82 O 0.64924 0.75245 0.4236 0.0
O83 O 0.62401 0.74907 0.48694 0.0
Co84 Co 0.4688 0.39396 0.70837 0.0
O85 O 0.48297 0.43072 0.73274 0.0
O86 O 0.44253 0.42599 0.6904 0.0
C87 C 0.51288 0.37726 0.68224 0.0
O88 O 0.44846 0.35935 0.67634 0.0
Co89 Co 0.49273 0.33531 0.75175 0.0
O90 O 0.46619 0.3167 0.70588 0.0
C91 C 0.44821 0.37034 0.80003 0.0
C92 C 0.46063 0.44316 0.71268 0.0
C93 C 0.44921 0.33088 0.67879 0.0
O94 O 0.44381 0.38631 0.76434 0.0
O95 O 0.46966 0.3521 0.80395 0.0
O96 O 0.49775 0.39627 0.6585 0.0
O97 O 0.50272 0.37208 0.72258 0.0
Co98 Co 0.8618 0.21789 0.96346 0.0
O99 O 0.82537 0.23189 0.98869 0.0
O100 O 0.82951 0.19216 0.94461 0.0
C101 C 0.87831 0.26234 0.9388 0.0
O102 O 0.89623 0.19792 0.9306 0.0
Co103 Co 0.92068 0.24123 0.00738 0.0
O104 O 0.93899 0.21545 0.96033 0.0
C105 C 0.88661 0.19453 0.05303 0.0
C106 C 0.81263 0.21011 0.96766 0.0
C107 C 0.92472 0.19868 0.93298 0.0
O108 O 0.86948 0.19188 0.01821 0.0
O109 O 0.90572 0.21519 0.05755 0.0
O110 O 0.85926 0.24748 0.91471 0.0
O111 O 0.88379 0.2516 0.97873 0.0
Co112 Co 0.97056 0.60761 0.7159 0.0
O113 O 0.98385 0.57072 0.74078 0.0
O114 O 0.9443 0.57599 0.69652 0.0
C115 C 0.01515 0.6239 0.69129 0.0
O116 O 0.95128 0.64229 0.68302 0.0
Co117 Co 0.99411 0.66599 0.76061 0.0
O118 O 0.96832 0.68483 0.71399 0.0
C119 C 0.94744 0.63208 0.80593 0.0
C120 C 0.9618 0.55861 0.71944 0.0
C121 C 0.95197 0.67073 0.68587 0.0
O122 O 0.9444 0.61555 0.77048 0.0
O123 O 0.96865 0.65049 0.81109 0.0
O124 O 1.00024 0.60484 0.6673 0.0
O125 O 0.00454 0.62926 0.73139 0.0
Co126 Co 0.13474 0.21808 0.4724 0.0
O127 O 0.16569 0.23096 0.51295 0.0
O128 O 0.16942 0.19333 0.46482 0.0
C129 C 0.12293 0.26406 0.44742 0.0
O130 O 0.10819 0.1988 0.42435 0.0
Co131 Co 0.06929 0.2395 0.48072 0.0
O132 O 0.06638 0.22522 0.41687 0.0
C133 C 0.09114 0.18809 0.53539 0.0
C134 C 0.18197 0.21035 0.49503 0.0
C135 C 0.08388 0.20497 0.40345 0.0
O136 O 0.11778 0.19051 0.52007 0.0
O137 O 0.07004 0.20571 0.52476 0.0
O138 O 0.14511 0.24987 0.42955 0.0
O139 O 0.11024 0.25101 0.48124 0.0
Co140 Co 0.53741 0.39362 0.20416 0.0
O141 O 0.51875 0.42936 0.224 0.0
O142 O 0.56473 0.42668 0.198 0.0
C143 C 0.4992 0.37676 0.16169 0.0
O144 O 0.563 0.36029 0.179 0.0
Co145 Co 0.50935 0.33345 0.23397 0.0
O146 O 0.54191 0.31649 0.19679 0.0
C147 C 0.54374 0.36856 0.29963 0.0
C148 C 0.54314 0.44284 0.21369 0.0
C149 C 0.56232 0.3318 0.17818 0.0
O150 O 0.55293 0.38564 0.2676 0.0
O151 O 0.52344 0.34915 0.29414 0.0
O152 O 0.51741 0.39617 0.14492 0.0
O153 O 0.50269 0.37096 0.20449 0.0
Co154 Co 0.37168 0.78627 0.9769 0.0
O155 O 0.34126 0.7733 0.01822 0.0
O156 O 0.33736 0.81176 0.97183 0.0
C157 C 0.38191 0.74047 0.9494 0.0
O158 O 0.39752 0.80581 0.92833 0.0
Co159 Co 0.43678 0.76343 0.98087 0.0
O160 O 0.43852 0.77864 0.91746 0.0
C161 C 0.41721 0.814 0.03944 0.0
C162 C 0.32498 0.79436 0.0016 0.0
C163 C 0.42112 0.79942 0.90577 0.0
O164 O 0.39025 0.81263 0.025 0.0
O165 O 0.43763 0.79608 0.02699 0.0
O166 O 0.35971 0.75547 0.93325 0.0
O167 O 0.39565 0.75267 0.98308 0.0
Co168 Co 0.96839 0.38645 0.76698 0.0
O169 O 0.98183 0.41686 0.72631 0.0
O170 O 0.94131 0.41976 0.76853 0.0
C171 C 0.01305 0.37849 0.79981 0.0
O172 O 0.94822 0.35981 0.81384 0.0
Co173 Co 0.99482 0.32267 0.76464 0.0
O174 O 0.9774 0.32041 0.82669 0.0
C175 C 0.94496 0.33952 0.70273 0.0
C176 C 0.95947 0.43245 0.7401 0.0
C177 C 0.95527 0.33655 0.83678 0.0
O178 O 0.94485 0.36653 0.71685 0.0
O179 O 0.96342 0.31995 0.71654 0.0
O180 O 0.99637 0.40006 0.81378 0.0
O181 O 0.00337 0.36427 0.76467 0.0
Co182 Co 0.35806 0.21792 0.52549 0.0
O183 O 0.32191 0.23637 0.50622 0.0
O184 O 0.32526 0.19048 0.53223 0.0
C185 C 0.37481 0.25624 0.56789 0.0
O186 O 0.39135 0.19232 0.55052 0.0
Co187 Co 0.41853 0.24574 0.49673 0.0
O188 O 0.43544 0.21309 0.53377 0.0
C189 C 0.38368 0.21161 0.43021 0.0
C190 C 0.30871 0.21194 0.51725 0.0
C191 C 0.41984 0.19273 0.55188 0.0
O192 O 0.3661 0.20253 0.46178 0.0
O193 O 0.40321 0.23171 0.43633 0.0
O194 O 0.3556 0.23788 0.58479 0.0
O195 O 0.38068 0.25272 0.52512 0.0
Co196 Co 0.53314 0.61314 0.28262 0.0
O197 O 0.51794 0.58244 0.24402 0.0
O198 O 0.56114 0.5805 0.27952 0.0
C199 C 0.49063 0.61983 0.32193 0.0
O200 O 0.55547 0.64058 0.32614 0.0
Co201 Co 0.50432 0.67601 0.28349 0.0
O202 O 0.52653 0.67986 0.34159 0.0
C203 C 0.55017 0.66019 0.2142 0.0
C204 C 0.54164 0.56753 0.25349 0.0
C205 C 0.54943 0.66417 0.34904 0.0
O206 O 0.55257 0.63351 0.2291 0.0
O207 O 0.53177 0.67912 0.23014 0.0
O208 O 0.50888 0.59901 0.33374 0.0
O209 O 0.49749 0.63414 0.28545 0.0
Co210 Co 0.14899 0.78475 0.03099 0.0
O211 O 0.18533 0.76674 0.01168 0.0
O212 O 0.18131 0.81289 0.03641 0.0
C213 C 0.13358 0.74652 0.07454 0.0
O214 O 0.11553 0.81012 0.05586 0.0
Co215 Co 0.08859 0.7553 0.00535 0.0
O216 O 0.07153 0.78855 0.04096 0.0
C217 C 0.12201 0.78869 0.93634 0.0
C218 C 0.19817 0.79149 0.02202 0.0
C219 C 0.08709 0.80942 0.0578 0.0
O220 O 0.13987 0.79889 0.96686 0.0
O221 O 0.10319 0.76817 0.94408 0.0
O222 O 0.1523 0.7656 0.09096 0.0
O223 O 0.12718 0.74958 0.03192 0.0
Co224 Co 0.53416 0.89459 0.77222 0.0
O225 O 0.51984 0.93004 0.74412 0.0
O226 O 0.55892 0.92786 0.7899 0.0
C227 C 0.48977 0.87765 0.79677 0.0
O228 O 0.55423 0.86165 0.80823 0.0
Co229 Co 0.51266 0.83402 0.73163 0.0
O230 O 0.53812 0.81771 0.78076 0.0
C231 C 0.56013 0.86712 0.68604 0.0
C232 C 0.54098 0.94378 0.76528 0.0
C233 C 0.554 0.83316 0.80779 0.0
O234 O 0.56132 0.88588 0.71902 0.0
O235 O 0.54019 0.84721 0.68231 0.0
O236 O 0.5038 0.89786 0.81973 0.0
O237 O 0.50107 0.87139 0.75746 0.0
Co238 Co 0.36479 0.2814 0.01561 0.0
O239 O 0.32902 0.26705 0.98852 0.0
O240 O 0.33182 0.30656 0.03327 0.0
C241 C 0.3814 0.23703 0.04053 0.0
O242 O 0.39836 0.30167 0.05029 0.0
Co243 Co 0.42474 0.25914 0.97408 0.0
O244 O 0.44185 0.28483 0.0223 0.0
C245 C 0.39117 0.30617 0.92798 0.0
C246 C 0.31559 0.28855 0.00919 0.0
C247 C 0.42689 0.30125 0.0492 0.0
O248 O 0.37295 0.30783 0.96155 0.0
O249 O 0.41112 0.28626 0.92432 0.0
O250 O 0.36173 0.25154 0.06385 0.0
O251 O 0.38751 0.24802 0.00098 0.0
Co252 Co 0.96963 0.10926 0.27051 0.0
O253 O 0.9845 0.07293 0.24584 0.0
O254 O 0.94409 0.07663 0.28844 0.0
C255 C 0.01338 0.12675 0.29675 0.0
O256 O 0.94874 0.14342 0.30269 0.0
Co257 Co 0.99236 0.16831 0.22681 0.0
O258 O 0.96541 0.18634 0.27257 0.0
C259 C 0.94754 0.1329 0.17947 0.0
C260 C 0.96252 0.05995 0.26597 0.0
C261 C 0.94885 0.17189 0.2999 0.0
O262 O 0.9442 0.11644 0.21485 0.0
O263 O 0.96832 0.15189 0.17526 0.0
O264 O 0.99866 0.10734 0.32026 0.0
O265 O 0.00312 0.13187 0.25638 0.0
Co266 Co 0.134 0.71503 0.5121 0.0
O267 O 0.16413 0.72795 0.47027 0.0
O268 O 0.16854 0.68978 0.51711 0.0
C269 C 0.12381 0.76096 0.53884 0.0
O270 O 0.10839 0.69561 0.56119 0.0
Co271 Co 0.06881 0.73769 0.50883 0.0
O272 O 0.06749 0.72286 0.57246 0.0
C273 C 0.08829 0.68697 0.45039 0.0
C274 C 0.18067 0.70714 0.48703 0.0
C275 C 0.0849 0.70207 0.58403 0.0
O276 O 0.11531 0.6884 0.46452 0.0
O277 O 0.06791 0.7049 0.46295 0.0
O278 O 0.14606 0.74612 0.55515 0.0
O279 O 0.10989 0.74846 0.50562 0.0
Co280 Co 0.53184 0.11538 0.71084 0.0
O281 O 0.51573 0.08442 0.74791 0.0
O282 O 0.56038 0.08347 0.71689 0.0
C283 C 0.49086 0.12068 0.66711 0.0
O284 O 0.5554 0.14285 0.66932 0.0
Co285 Co 0.50134 0.17745 0.70578 0.0
O286 O 0.52659 0.1817 0.65083 0.0
C287 C 0.54363 0.16308 0.78111 0.0
C288 C 0.53998 0.06992 0.7403 0.0
C289 C 0.54992 0.16623 0.64579 0.0
O290 O 0.54837 0.13671 0.76599 0.0
O291 O 0.52485 0.18094 0.76336 0.0
O292 O 0.51015 0.10035 0.65742 0.0
O293 O 0.49586 0.13542 0.70393 0.0
Co294 Co 0.14144 0.28509 0.96392 0.0
O295 O 0.17425 0.26652 -0.00641 0.0
O296 O 0.17486 0.31217 0.96633 0.0
C297 C 0.13048 0.24626 0.9185 0.0
O298 O 0.11182 0.31071 0.9295 0.0
Co299 Co 0.0784 0.25685 0.97314 0.0
O300 O 0.06811 0.28654 0.92592 0.0
C301 C 0.10449 0.2909 0.04947 0.0
C302 C 0.18904 0.29056 0.98601 0.0
C303 C 0.08495 0.30809 0.91544 0.0
O304 O 0.12589 0.30019 0.02428 0.0
O305 O 0.08574 0.27131 0.03676 0.0
O306 O 0.15096 0.26483 0.90638 0.0
O307 O 0.11937 0.25035 0.95848 0.0
Co308 Co 0.97253 0.88893 0.20776 0.0
O309 O 0.98731 0.91961 0.24689 0.0
O310 O 0.94404 0.92108 0.21158 0.0
C311 C 0.01506 0.88342 0.16803 0.0
O312 O 0.95052 0.86166 0.16363 0.0
Co313 Co 0.00231 0.82658 0.20464 0.0
O314 O 0.97995 0.82305 0.1466 0.0
C315 C 0.95677 0.84085 0.27529 0.0
C316 C 0.96345 0.93429 0.23744 0.0
C317 C 0.95682 0.83852 0.13984 0.0
O318 O 0.95363 0.86761 0.26093 0.0
O319 O 0.97553 0.82253 0.25864 0.0
O320 O 0.9964 0.90401 0.15684 0.0
O321 O 0.00853 0.86857 0.20413 0.0
Co322 Co 0.35654 0.71914 0.45759 0.0
O323 O 0.31997 0.73661 0.47715 0.0
O324 O 0.32453 0.69072 0.45149 0.0
C325 C 0.37176 0.75789 0.41482 0.0
O326 O 0.39023 0.69426 0.43234 0.0
Co327 Co 0.41668 0.74882 0.48404 0.0
O328 O 0.43408 0.71591 0.44804 0.0
C329 C 0.38365 0.71424 0.55213 0.0
C330 C 0.30742 0.71178 0.46633 0.0
C331 C 0.41867 0.69511 0.43068 0.0
O332 O 0.36572 0.70443 0.52141 0.0
O333 O 0.40241 0.7349 0.54494 0.0
O334 O 0.35316 0.73882 0.39803 0.0
O335 O 0.3781 0.75453 0.45742 0.0
Co336 Co 0.46967 0.11596 0.21991 0.0
O337 O 0.48308 0.08621 0.26201 0.0
O338 O 0.44493 0.08091 0.21527 0.0
C339 C 0.51524 0.12728 0.1925 0.0
O340 O 0.45002 0.14141 0.17078 0.0
Co341 Co 0.49142 0.18147 0.2251 0.0
O342 O 0.47728 0.18251 0.16102 0.0
C343 C 0.44031 0.16106 0.28154 0.0
C344 C 0.46235 0.06932 0.24585 0.0
C345 C 0.45674 0.16503 0.14847 0.0
O346 O 0.44254 0.13414 0.26736 0.0
O347 O 0.45796 0.18185 0.26971 0.0
O348 O 0.50093 0.10455 0.17662 0.0
O349 O 0.50275 0.14056 0.22632 0.0
Co350 Co 0.63462 0.71829 0.96828 0.0
O351 O 0.66788 0.73677 -0.00276 0.0
O352 O 0.66861 0.6919 0.96699 0.0
C353 C 0.62141 0.75792 0.92602 0.0
O354 O 0.60462 0.69293 0.93369 0.0
Co355 Co 0.57126 0.74442 0.98418 0.0
O356 O 0.55931 0.71377 0.93937 0.0
C357 C 0.60113 0.71033 0.05652 0.0
C358 C 0.68288 0.71321 0.98734 0.0
C359 C 0.57676 0.69388 0.92435 0.0
O360 O 0.62108 0.70125 0.0285 0.0
O361 O 0.58199 0.7302 0.04673 0.0
O362 O 0.6423 0.74039 0.91193 0.0
O363 O 0.61146 0.75252 0.96638 0.0
Co364 Co 0.0429 0.88716 0.72086 0.0
O365 O 0.02845 0.91728 0.76113 0.0
O366 O 0.0701 0.92046 0.72172 0.0
C367 C 0.99932 0.8796 0.68433 0.0
O368 O 0.06412 0.86067 0.67487 0.0
Co369 Co 0.0157 0.82363 0.72238 0.0
O370 O 0.03492 0.8212 0.66169 0.0
C371 C 0.06472 0.83987 0.78602 0.0
C372 C 0.05116 0.93297 0.74917 0.0
C373 C 0.05715 0.83733 0.65206 0.0
O374 O 0.06508 0.8669 0.77214 0.0
O375 O 0.04638 0.8204 0.77147 0.0
O376 O 0.01658 0.90116 0.67225 0.0
O377 O 0.00753 0.86528 0.72027 0.0
Co378 Co 0.86084 0.28436 0.4573 0.0
O379 O 0.82513 0.26584 0.47824 0.0
O380 O 0.82797 0.31194 0.45307 0.0
C381 C 0.87621 0.24626 0.4133 0.0
O382 O 0.89351 0.31018 0.43083 0.0
Co383 Co 0.92208 0.25611 0.48112 0.0
O384 O 0.93803 0.28931 0.44431 0.0
C385 C 0.88886 0.28892 0.55107 0.0
C386 C 0.81172 0.29036 0.46841 0.0
C387 C 0.92193 0.30984 0.42776 0.0
O388 O 0.87065 0.29889 0.52095 0.0
O389 O 0.90798 0.26875 0.54286 0.0
O390 O 0.85678 0.2649 0.39772 0.0
O391 O 0.88328 0.24955 0.45566 0.0
Co392 Co 0.47372 0.89432 0.28609 0.0
O393 O 0.49118 0.93091 0.26674 0.0
O394 O 0.44527 0.92641 0.29231 0.0
C395 C 0.51241 0.87873 0.32883 0.0
O396 O 0.44912 0.86011 0.31097 0.0
Co397 Co 0.50382 0.83496 0.25695 0.0
O398 O 0.47184 0.81697 0.29416 0.0
C399 C 0.46838 0.86856 0.19061 0.0
C400 C 0.4663 0.94347 0.27715 0.0
C401 C 0.45081 0.83167 0.31228 0.0
O402 O 0.45874 0.88576 0.2223 0.0
O403 O 0.48911 0.8497 0.1966 0.0
O404 O 0.49347 0.89747 0.34555 0.0
O405 O 0.50922 0.87283 0.28601 0.0
Co406 Co 0.85917 0.72176 0.01482 0.0
O407 O 0.82344 0.73644 0.98791 0.0
O408 O 0.8259 0.69698 0.03264 0.0
C409 C 0.87654 0.76594 0.03963 0.0
O410 O 0.89268 0.70121 0.04919 0.0
Co411 Co 0.91906 0.74346 0.9724 0.0
O412 O 0.93613 0.71761 0.02042 0.0
C413 C 0.88478 0.697 0.92653 0.0
C414 C 0.8098 0.7151 0.00859 0.0
C415 C 0.92122 0.70134 0.04759 0.0
O416 O 0.86708 0.69511 0.96076 0.0
O417 O 0.90432 0.71726 0.9222 0.0
O418 O 0.85672 0.75178 0.06315 0.0
O419 O 0.88216 0.75483 -2e-05 0.0
Co420 Co 0.03788 0.10782 0.78163 0.0
O421 O 0.02145 0.07054 0.7637 0.0
O422 O 0.06718 0.07675 0.78954 0.0
C423 C 0.99887 0.12322 0.82347 0.0
O424 O 0.06146 0.14293 0.80547 0.0
Co425 Co 0.00661 0.16597 0.75008 0.0
O426 O 0.03768 0.1853 0.78769 0.0
C427 C 0.04244 0.13172 0.68517 0.0
C428 C 0.0466 0.05889 0.77511 0.0
C429 C 0.05898 0.1713 0.80639 0.0
O430 O 0.05276 0.11561 0.71767 0.0
O431 O 0.02115 0.15005 0.69036 0.0
O432 O 0.01818 0.10519 0.841 0.0
O433 O 0.00191 0.12844 0.78042 0.0
Co434 Co 0.63747 0.28471 0.51329 0.0
O435 O 0.66876 0.27131 0.47393 0.0
O436 O 0.67213 0.3096 0.52086 0.0
C437 C 0.62545 0.23907 0.53948 0.0
O438 O 0.61036 0.3046 0.55988 0.0
Co439 Co 0.57214 0.26256 0.50399 0.0
O440 O 0.56847 0.27819 0.56698 0.0
C441 C 0.59417 0.31375 0.44895 0.0
C442 C 0.68492 0.29214 0.49153 0.0
C443 C 0.58575 0.29874 0.58009 0.0
O444 O 0.62081 0.3116 0.46446 0.0
O445 O 0.57314 0.29607 0.4596 0.0
O446 O 0.64743 0.25352 0.5575 0.0
O447 O 0.61317 0.25162 0.50487 0.0
C448 C 0.07459 0.29951 0.16711 0.0
C449 C 0.0695 0.33015 0.16915 0.0
H450 H 0.09063 0.26318 0.12767 0.0
C451 C 0.08171 0.34846 0.13523 0.0
H452 H 0.06629 0.28485 0.19344 0.0
C453 C 0.09623 0.33583 0.09754 0.0
C454 C 0.09862 0.30492 0.09379 0.0
H455 H 0.0784 0.37216 0.13633 0.0
H456 H 0.10336 0.34998 0.06977 0.0
C457 C 0.08888 0.28705 0.12979 0.0
C458 C 0.92632 0.84765 0.3468 0.0
C459 C 0.93756 0.82939 0.312 0.0
H460 H 0.90645 0.84907 0.41358 0.0
C461 C 0.93222 0.79879 0.3139 0.0
H462 H 0.92986 0.87132 0.34585 0.0
C463 C 0.9188 0.78628 0.35193 0.0
C464 C 0.91023 0.80407 0.38879 0.0
H465 H 0.93981 0.78421 0.28692 0.0
H466 H 0.91696 0.76241 0.35389 0.0
C467 C 0.91269 0.83498 0.3852 0.0
C468 C 0.41025 0.65495 0.63067 0.0
C469 C 0.41934 0.6725 0.66775 0.0
H470 H 0.39036 0.65481 0.56389 0.0
C471 C 0.40923 0.70183 0.67078 0.0
H472 H 0.41753 0.63221 0.62782 0.0
C473 C 0.39351 0.71452 0.63492 0.0
C474 C 0.38753 0.69813 0.59533 0.0
H475 H 0.41523 0.71565 0.69965 0.0
H476 H 0.38849 0.73794 0.63632 0.0
C477 C 0.39439 0.66778 0.59445 0.0
C478 C 0.57648 0.1566 0.85051 0.0
C479 C 0.56146 0.17494 0.81935 0.0
H480 H 0.60075 0.15454 0.91384 0.0
C481 C 0.56303 0.20578 0.82502 0.0
H482 H 0.57598 0.13279 0.84661 0.0
C483 C 0.5772 0.218 0.86262 0.0
C484 C 0.59033 0.19978 0.89552 0.0
H485 H 0.55257 0.22071 0.80097 0.0
H486 H 0.57676 0.24179 0.867 0.0
C487 C 0.59087 0.16901 0.88857 0.0
C488 C 0.08366 0.64307 0.34127 0.0
C489 C 0.05331 0.63605 0.34164 0.0
H490 H 0.11911 0.66521 0.37653 0.0
C491 C 0.03715 0.63956 0.38209 0.0
H492 H 0.09644 0.6408 0.31012 0.0
C493 C 0.05002 0.65333 0.41971 0.0
C494 C 0.07915 0.66415 0.41729 0.0
H495 H 0.01377 0.63427 0.38311 0.0
H496 H 0.0363 0.65791 0.44928 0.0
C497 C 0.09659 0.65718 0.37908 0.0
C498 C 0.62327 0.82528 0.64109 0.0
C499 C 0.6193 0.82997 0.59417 0.0
H500 H 0.60794 0.8357 0.70839 0.0
C501 C 0.60189 0.85387 0.57931 0.0
H502 H 0.6361 0.80659 0.65312 0.0
C503 C 0.58493 0.86984 0.61075 0.0
C504 C 0.58619 0.86265 0.65727 0.0
H505 H 0.59808 0.85739 0.5431 0.0
H506 H 0.56847 0.88527 0.59825 0.0
C507 C 0.60713 0.84194 0.6726 0.0
C508 C 0.41442 0.35386 0.91178 0.0
C509 C 0.39463 0.33168 0.8978 0.0
H510 H 0.44757 0.38471 0.89016 0.0
C511 C 0.38669 0.32946 0.85164 0.0
H512 H 0.42118 0.35546 0.9473 0.0
C513 C 0.401 0.34704 0.81917 0.0
C514 C 0.42408 0.366 0.83261 0.0
H515 H 0.37191 0.31208 0.84022 0.0
H516 H 0.39702 0.34264 0.78322 0.0
C517 C 0.42944 0.37069 0.87922 0.0
C518 C 0.91049 0.14719 0.06904 0.0
C519 C 0.89068 0.16923 0.08345 0.0
H520 H 0.94498 0.11749 0.08968 0.0
C521 C 0.88401 0.17204 0.13 0.0
H522 H 0.91633 0.14518 0.0332 0.0
C523 C 0.89961 0.15534 0.16215 0.0
C524 C 0.9227 0.13667 0.14794 0.0
H525 H 0.86928 0.18935 0.14173 0.0
H526 H 0.89653 0.16021 0.19816 0.0
C527 C 0.92688 0.13131 0.10123 0.0
C528 C 0.89959 0.65574 0.81965 0.0
C529 C 0.92196 0.63687 0.83587 0.0
H530 H 0.86948 0.69066 0.837 0.0
C531 C 0.92493 0.63225 0.88299 0.0
H532 H 0.89744 0.66005 0.78332 0.0
C533 C 0.9081 0.64895 0.91361 0.0
C534 C 0.88905 0.67112 0.89725 0.0
H535 H 0.94248 0.6183 0.89611 0.0
H536 H 0.91306 0.64743 0.94983 0.0
C537 C 0.88357 0.67327 0.85024 0.0
C538 C 0.05483 0.15188 0.56427 0.0
C539 C 0.0833 0.16424 0.56737 0.0
H540 H 0.01951 0.13062 0.6 0.0
C541 C 0.10099 0.15778 0.60553 0.0
H542 H 0.04097 0.15611 0.53471 0.0
C543 C 0.08872 0.14265 0.64283 0.0
C544 C 0.05877 0.13413 0.64198 0.0
H545 H 0.12303 0.16703 0.60854 0.0
H546 H 0.10148 0.14087 0.67411 0.0
C547 C 0.04261 0.13704 0.60137 0.0
C548 C 0.60329 0.34361 0.37825 0.0
C549 C 0.58609 0.33749 0.417 0.0
H550 H 0.60283 0.35981 0.30928 0.0
C551 C 0.55761 0.34977 0.42061 0.0
H552 H 0.62529 0.33438 0.37484 0.0
C553 C 0.54481 0.36404 0.38344 0.0
C554 C 0.56049 0.36662 0.34242 0.0
H555 H 0.54413 0.34577 0.45064 0.0
H556 H 0.52168 0.3703 0.38521 0.0
C557 C 0.59047 0.35828 0.34095 0.0
C558 C 0.42177 0.85857 0.14811 0.0
C559 C 0.45202 0.86599 0.14737 0.0
H560 H 0.38646 0.83577 0.11345 0.0
C561 C 0.46811 0.86228 0.1069 0.0
H562 H 0.40906 0.86095 0.1793 0.0
C563 C 0.45531 0.84802 0.06964 0.0
C564 C 0.42629 0.83695 0.07241 0.0
H565 H 0.49144 0.86782 0.10562 0.0
H566 H 0.469 0.84338 0.04006 0.0
C567 C 0.4089 0.84401 0.11063 0.0
C568 C 0.91328 0.34739 0.63294 0.0
C569 C 0.92275 0.32939 0.66921 0.0
H570 H 0.89374 0.34825 0.56594 0.0
C571 C 0.9136 0.2997 0.67063 0.0
H572 H 0.91984 0.3704 0.63132 0.0
C573 C 0.89859 0.28722 0.63386 0.0
C574 C 0.89231 0.30422 0.59506 0.0
H575 H 0.91992 0.2855 0.69884 0.0
H576 H 0.89433 0.26363 0.63397 0.0
C577 C 0.89808 0.33479 0.59585 0.0
C578 C 0.40946 0.1523 0.35164 0.0
C579 C 0.41659 0.16966 0.31346 0.0
H580 H 0.39187 0.15244 0.41985 0.0
C581 C 0.40479 0.19833 0.30993 0.0
H582 H 0.41825 0.13012 0.35502 0.0
C583 C 0.38981 0.21097 0.3466 0.0
C584 C 0.38612 0.19505 0.38721 0.0
H585 H 0.40948 0.21197 0.28033 0.0
H586 H 0.38383 0.23415 0.34492 0.0
C587 C 0.39418 0.165 0.38851 0.0
C588 C 0.57748 0.70096 0.17708 0.0
C589 C 0.56994 0.67083 0.17774 0.0
H590 H 0.59434 0.73699 0.13783 0.0
C591 C 0.57914 0.65251 0.14163 0.0
H592 H 0.57142 0.71546 0.20508 0.0
C593 C 0.59278 0.66496 0.1031 0.0
C594 C 0.59729 0.69569 0.10079 0.0
H595 H 0.5738 0.62916 0.14164 0.0
H596 H 0.59728 0.65109 0.07369 0.0
C597 C 0.59093 0.71328 0.13891 0.0
C598 C 0.09653 0.84741 0.85588 0.0
C599 C 0.08683 0.82953 0.81955 0.0
H600 H 0.11671 0.84809 0.92244 0.0
C601 C 0.09614 0.79991 0.81752 0.0
H602 H 0.0899 0.87039 0.85793 0.0
C603 C 0.11168 0.78739 0.8537 0.0
C604 C 0.11826 0.80423 0.89262 0.0
H605 H 0.08969 0.78581 0.78922 0.0
H606 H 0.11612 0.76384 0.8531 0.0
C607 C 0.1122 0.83475 0.89243 0.0
C608 C 0.06343 0.31849 0.41578 0.0
C609 C 0.07262 0.32754 0.37229 0.0
H610 H 0.07289 0.29228 0.47453 0.0
C611 C 0.10074 0.31925 0.35635 0.0
H612 H 0.04173 0.32454 0.4285 0.0
C613 C 0.11835 0.29989 0.38205 0.0
C614 C 0.1081 0.28901 0.42417 0.0
H615 H 0.108 0.32571 0.32248 0.0
H616 H 0.13903 0.29211 0.36775 0.0
C617 C 0.08122 0.2998 0.44182 0.0
C618 C 0.93661 0.83246 0.64055 0.0
C619 C 0.94293 0.83175 0.59365 0.0
H620 H 0.94997 0.84844 0.70651 0.0
C621 C 0.96547 0.84979 0.57609 0.0
H622 H 0.91959 0.81829 0.65472 0.0
C623 C 0.98232 0.86753 0.60537 0.0
C624 C 0.97743 0.86668 0.65276 0.0
H625 H 0.97089 0.84916 0.53999 0.0
H626 H 1.00054 0.88015 0.59129 0.0
C627 C 0.95399 0.84958 0.67002 0.0
C628 C 0.38363 0.70527 0.88287 0.0
C629 C 0.39549 0.71551 0.92441 0.0
H630 H 0.39145 0.67994 0.82188 0.0
C631 C 0.42269 0.704 0.93969 0.0
H632 H 0.36266 0.71361 0.87039 0.0
C633 C 0.43918 0.68521 0.91182 0.0
C634 C 0.42835 0.6768 0.86888 0.0
H635 H 0.43225 0.71103 0.97188 0.0
H636 H 0.46118 0.67866 0.92261 0.0
C637 C 0.39993 0.68583 0.85535 0.0
C638 C 0.56778 0.18709 0.15542 0.0
C639 C 0.57491 0.17808 0.11099 0.0
H640 H 0.54444 0.17727 0.21686 0.0
C641 C 0.56591 0.15007 0.09556 0.0
H642 H 0.5745 0.20866 0.16784 0.0
C643 C 0.54787 0.13227 0.12318 0.0
C644 C 0.53904 0.14223 0.16665 0.0
H645 H 0.57101 0.14293 0.06107 0.0
H646 H 0.53951 0.11162 0.10953 0.0
C647 C 0.55042 0.16913 0.18327 0.0
C648 C 0.08821 0.71649 0.17209 0.0
C649 C 0.07793 0.68971 0.1535 0.0
H650 H 0.11488 0.75519 0.16198 0.0
C651 C 0.08814 0.68061 0.11045 0.0
H652 H 0.08063 0.7239 0.20534 0.0
C653 C 0.10707 0.69882 0.08529 0.0
C654 C 0.11682 0.7259 0.10346 0.0
H655 H 0.08034 0.66015 0.09536 0.0
H656 H 0.11364 0.69204 0.05122 0.0
C657 C 0.10789 0.73425 0.14753 0.0
C658 C 0.55758 0.8473 0.33905 0.0
C659 C 0.53279 0.8616 0.35801 0.0
H660 H 0.59431 0.81801 0.35086 0.0
C661 C 0.52655 0.85786 0.40461 0.0
H662 H 0.56284 0.84987 0.30313 0.0
C663 C 0.544 0.8392 0.43136 0.0
C664 C 0.56848 0.82448 0.41235 0.0
H665 H 0.50753 0.86848 0.42005 0.0
H666 H 0.53822 0.83609 0.46701 0.0
C667 C 0.57558 0.82918 0.36623 0.0
C668 C 0.39638 0.27046 0.64323 0.0
C669 C 0.39203 0.27673 0.59676 0.0
H670 H 0.41838 0.28262 0.70533 0.0
C671 C 0.40559 0.30183 0.57762 0.0
H672 H 0.38633 0.25117 0.65875 0.0
C673 C 0.42343 0.32026 0.60457 0.0
C674 C 0.42866 0.31327 0.65062 0.0
H675 H 0.40253 0.3071 0.54178 0.0
H676 H 0.43393 0.33932 0.5891 0.0
C677 C 0.41484 0.28834 0.66975 0.0
C678 C 0.98513 0.1458 0.89814 0.0
C679 C 0.97842 0.14062 0.85201 0.0
H680 H 0.97346 0.1687 0.95956 0.0
C681 C 0.95307 0.15375 0.8328 0.0
H682 H 0.00462 0.13613 0.9137 0.0
C683 C 0.93484 0.17199 0.85937 0.0
C684 C 0.94228 0.17802 0.90503 0.0
H685 H 0.94749 0.15007 0.7972 0.0
H686 H 0.91556 0.18211 0.84388 0.0
C687 C 0.96743 0.1646 0.92423 0.0
C688 C 0.92901 0.68085 0.60971 0.0
C689 C 0.9326 0.68831 0.65594 0.0
H690 H 0.91109 0.69375 0.54478 0.0
C691 C 0.91848 0.71364 0.67329 0.0
H692 H 0.93978 0.66147 0.59562 0.0
C693 C 0.90146 0.73157 0.64466 0.0
C694 C 0.89899 0.72486 0.598 0.0
H695 H 0.92082 0.71969 0.70898 0.0
H696 H 0.89131 0.75131 0.6586 0.0
C697 C 0.9127 0.69928 0.58077 0.0
C698 C 0.05264 0.13477 0.35547 0.0
C699 C 0.03625 0.14546 0.3182 0.0
H700 H 0.08192 0.14543 0.41077 0.0
C701 C 0.03967 0.1751 0.3048 0.0
H702 H 0.05047 0.11197 0.36632 0.0
C703 C 0.05703 0.19437 0.33086 0.0
C704 C 0.07214 0.184 0.36958 0.0
H705 H 0.02742 0.18395 0.27615 0.0
H706 H 0.05755 0.21763 0.32207 0.0
C707 C 0.07082 0.15381 0.38058 0.0
C708 C 0.6141 0.27071 0.14184 0.0
C709 C 0.62136 0.27979 0.09744 0.0
H710 H 0.58899 0.28019 0.20228 0.0
C711 C 0.61202 0.30764 0.0819 0.0
H712 H 0.62066 0.24908 0.15413 0.0
C713 C 0.59452 0.3257 0.10967 0.0
C714 C 0.58531 0.31565 0.15272 0.0
H715 H 0.61717 0.31485 0.04748 0.0
H716 H 0.58653 0.34654 0.09624 0.0
C717 C 0.59582 0.28835 0.16909 0.0
C718 C 0.44655 0.8101 0.8321 0.0
C719 C 0.43222 0.82044 0.87151 0.0
H720 H 0.47505 0.82051 0.77616 0.0
C721 C 0.43357 0.85065 0.88239 0.0
H722 H 0.4459 0.78683 0.82327 0.0
C723 C 0.45118 0.86973 0.85649 0.0
C724 C 0.467 0.85904 0.81862 0.0
H725 H 0.42299 0.85904 0.91303 0.0
H726 H 0.45347 0.89254 0.8673 0.0
C727 C 0.46335 0.82939 0.80533 0.0
C728 C 0.88555 0.30188 0.88042 0.0
C729 C 0.89619 0.2862 0.91846 0.0
H730 H 0.89601 0.33146 0.82554 0.0
C731 C 0.92518 0.29143 0.93386 0.0
H732 H 0.8632 0.29838 0.86807 0.0
C733 C 0.94409 0.30983 0.90903 0.0
C734 C 0.93395 0.32407 0.8694 0.0
H735 H 0.93397 0.27982 0.9632 0.0
H736 H 0.96704 0.31174 0.91942 0.0
C737 C 0.90419 0.32101 0.85641 0.0
C738 C 0.47985 0.14001 0.58946 0.0
C739 C 0.46995 0.13248 0.63336 0.0
H740 H 0.4717 0.16583 0.52927 0.0
C741 C 0.44192 0.14195 0.64795 0.0
H742 H 0.50166 0.13342 0.57795 0.0
C743 C 0.42454 0.1599 0.61986 0.0
C744 C 0.43546 0.16946 0.57749 0.0
H745 H 0.43413 0.13667 0.68203 0.0
H746 H 0.40353 0.16797 0.63264 0.0
C747 C 0.46289 0.15878 0.56195 0.0
C748 C 0.62023 0.70007 0.3867 0.0
C749 C 0.61098 0.71476 0.42656 0.0
H750 H 0.60793 0.67124 0.33156 0.0
C751 C 0.58276 0.70868 0.44442 0.0
H752 H 0.64194 0.70421 0.37239 0.0
C753 C 0.56321 0.69032 0.42069 0.0
C754 C 0.5719 0.67696 0.37954 0.0
H755 H 0.57505 0.71944 0.47523 0.0
H756 H 0.54083 0.68763 0.43334 0.0
C757 C 0.60092 0.681 0.36363 0.0
C758 C 0.0449 0.84462 0.06485 0.0
C759 C 0.0715 0.83314 0.08232 0.0
H760 H 0.00655 0.87121 0.07809 0.0
C761 C 0.08154 0.84242 0.12539 0.0
H762 H 0.03683 0.83776 0.03158 0.0
C763 C 0.06394 0.86092 0.15228 0.0
C764 C 0.03666 0.87122 0.13573 0.0
H765 H 0.10191 0.8337 0.13957 0.0
H766 H 0.0709 0.86597 0.1869 0.0
C767 C 0.02781 0.86397 0.09113 0.0
C768 C 0.58811 0.80136 0.91455 0.0
C769 C 0.60686 0.77961 0.89594 0.0
H770 H 0.55695 0.83615 0.90075 0.0
C771 C 0.6099 0.77752 0.84832 0.0
H772 H 0.58543 0.80342 0.95123 0.0
C773 C 0.59325 0.7958 0.81974 0.0
C774 C 0.57392 0.8169 0.83834 0.0
H775 H 0.62412 0.76094 0.8331 0.0
H776 H 0.59501 0.79305 0.783 0.0
C777 C 0.57196 0.82013 0.88587 0.0
C778 C 0.48546 0.35561 0.08599 0.0
C779 C 0.47914 0.35923 0.13259 0.0
H780 H 0.4739 0.33396 0.0234 0.0
C781 C 0.45452 0.34464 0.1515 0.0
H782 H 0.50437 0.36645 0.07062 0.0
C783 C 0.43663 0.32649 0.12417 0.0
C784 C 0.44374 0.32203 0.07798 0.0
H785 H 0.44924 0.34713 0.18744 0.0
H786 H 0.41795 0.31518 0.1394 0.0
C787 C 0.46814 0.3369 0.0591 0.0
C788 C 0.90616 0.20041 0.40204 0.0
C789 C 0.89248 0.22564 0.38349 0.0
H790 H 0.93431 0.16297 0.3896 0.0
C791 C 0.89615 0.23201 0.33693 0.0
H792 H 0.90361 0.19507 0.43794 0.0
C793 C 0.91422 0.21415 0.30978 0.0
C794 C 0.92831 0.1892 0.32842 0.0
H795 H 0.886 0.2514 0.32189 0.0
H796 H 0.91738 0.21999 0.27417 0.0
C797 C 0.9236 0.18204 0.37451 0.0
C798 C 0.07218 0.65082 0.60693 0.0
C799 C 0.07372 0.68097 0.61816 0.0
H800 H 0.05176 0.60904 0.62121 0.0
C801 C 0.05923 0.69123 0.65751 0.0
H802 H 0.08282 0.64249 0.57632 0.0
C803 C 0.0421 0.67194 0.68383 0.0
C804 C 0.03828 0.6424 0.67011 0.0
H805 H 0.05997 0.71446 0.66657 0.0
H806 H 0.03024 0.68077 0.71288 0.0
C807 C 0.05422 0.63176 0.63234 0.0
C808 C 0.58364 0.20349 0.54442 0.0
C809 C 0.60996 0.21481 0.56336 0.0
H810 H 0.5437 0.17919 0.55635 0.0
C811 C 0.61874 0.20539 0.6071 0.0
H812 H 0.57646 0.20988 0.51049 0.0
C813 C 0.60022 0.18692 0.63279 0.0
C814 C 0.57266 0.17811 0.61519 0.0
H815 H 0.63894 0.21365 0.62246 0.0
H816 H 0.60636 0.18146 0.66762 0.0
C817 C 0.56492 0.18574 0.57041 0.0
C818 C 0.0552 0.34379 0.8098 0.0
C819 C 0.03652 0.36551 0.82852 0.0
H820 H 0.08578 0.30861 0.82336 0.0
C821 C 0.03763 0.37117 0.87575 0.0
H822 H 0.0548 0.33901 0.77348 0.0
C823 C 0.05538 0.35369 0.90417 0.0
C824 C 0.07246 0.33077 0.88553 0.0
H825 H 0.0233 0.3876 0.89111 0.0
H826 H 0.05442 0.35691 0.94087 0.0
C827 C 0.073 0.32649 0.83814 0.0
C828 C 0.88575 0.80397 0.10013 0.0
C829 C 0.89514 0.7892 0.06042 0.0
H830 H 0.89798 0.83239 0.15579 0.0
C831 C 0.92365 0.79479 0.0433 0.0
H832 H 0.86381 0.80021 0.11386 0.0
C833 C 0.94331 0.81266 0.06772 0.0
C834 C 0.93446 0.82602 0.10879 0.0
H835 H 0.93148 0.78398 0.01262 0.0
H836 H 0.96586 0.81498 0.05561 0.0
C837 C 0.90517 0.82257 0.12386 0.0
C838 C 0.46087 0.65987 0.42411 0.0
C839 C 0.43443 0.67146 0.40624 0.0
H840 H 0.49899 0.6328 0.41165 0.0
C841 C 0.42453 0.66208 0.36315 0.0
H842 H 0.46883 0.66679 0.45742 0.0
C843 C 0.44206 0.64326 0.33671 0.0
C844 C 0.46912 0.63272 0.35372 0.0
H845 H 0.40427 0.67087 0.34869 0.0
H846 H 0.43518 0.63804 0.3021 0.0
C847 C 0.47789 0.6402 0.39828 0.0
C848 C 0.40596 0.17838 0.12388 0.0
C849 C 0.43623 0.17639 0.11363 0.0
H850 H 0.36479 0.19983 0.10887 0.0
C851 C 0.44732 0.19112 0.07505 0.0
H852 H 0.39702 0.16757 0.15392 0.0
C853 C 0.42877 0.20905 0.04873 0.0
C854 C 0.39914 0.21333 0.06166 0.0
H855 H 0.47067 0.19008 0.06681 0.0
H856 H 0.43824 0.22118 0.02043 0.0
C857 C 0.38762 0.19705 0.09844 0.0
C858 C 0.55191 0.65507 0.81744 0.0
C859 C 0.52938 0.63671 0.83455 0.0
H860 H 0.58549 0.68714 0.83326 0.0
C861 C 0.52538 0.63451 0.88205 0.0
H862 H 0.55528 0.65724 0.7809 0.0
C863 C 0.54217 0.65205 0.91172 0.0
C864 C 0.56378 0.6713 0.89439 0.0
H865 H 0.5079 0.62087 0.89609 0.0
H866 H 0.53743 0.65154 0.94804 0.0
C867 C 0.56922 0.67203 0.84724 0.0
C868 C 0.10619 0.81658 0.63155 0.0
C869 C 0.07771 0.82543 0.61803 0.0
H870 H 0.1434 0.78865 0.61693 0.0
C871 C 0.06676 0.81666 0.57535 0.0
H872 H 0.11477 0.82281 0.66482 0.0
C873 C 0.08317 0.79761 0.54782 0.0
C874 C 0.11039 0.78622 0.56322 0.0
H875 H 0.04473 0.82311 0.56456 0.0
H876 H 0.07351 0.79026 0.51586 0.0
C877 C 0.1224 0.79688 0.60439 0.0
C878 C 0.96347 0.34563 0.41871 0.0
C879 C 0.93689 0.33351 0.40219 0.0
H880 H 1.00132 0.37259 0.40387 0.0
C881 C 0.92642 0.34195 0.35897 0.0
H882 H 0.97192 0.33939 0.45203 0.0
C883 C 0.94356 0.36029 0.33111 0.0
C884 C 0.97079 0.37128 0.3468 0.0
H885 H 0.90608 0.3327 0.34548 0.0
H886 H 0.93624 0.36473 0.29648 0.0
C887 C 0.98009 0.36482 0.39146 0.0
C888 C 0.41803 0.82356 0.37982 0.0
C889 C 0.42768 0.81482 0.33629 0.0
H890 H 0.39289 0.81181 0.4393 0.0
C891 C 0.41674 0.78846 0.31716 0.0
H892 H 0.42634 0.84369 0.39532 0.0
C893 C 0.39699 0.77072 0.34165 0.0
C894 C 0.38863 0.77865 0.38618 0.0
H895 H 0.42389 0.78133 0.28355 0.0
H896 H 0.38951 0.7501 0.32671 0.0
C897 C 0.39902 0.80534 0.4049 0.0
C898 C 0.94876 0.65729 0.14924 0.0
C899 C 0.97359 0.64307 0.13028 0.0
H900 H 0.91202 0.68657 0.13744 0.0
C901 C 0.98004 0.6471 0.08381 0.0
H902 H 0.94335 0.6545 0.18507 0.0
C903 C 0.96267 0.66587 0.05715 0.0
C904 C 0.9381 0.68044 0.07612 0.0
H905 H 0.9991 0.63655 0.06838 0.0
H906 H 0.96855 0.66911 0.02157 0.0
C907 C 0.93084 0.67553 0.12213 0.0
C908 C 0.10787 0.19739 0.90262 0.0
C909 C 0.11671 0.22528 0.88668 0.0
H910 H 0.08324 0.15787 0.88872 0.0
C911 C 0.10868 0.23427 0.84252 0.0
H912 H 0.11369 0.19022 0.93683 0.0
C913 C 0.09049 0.21624 0.81565 0.0
C914 C 0.08094 0.18865 0.83213 0.0
H915 H 0.11492 0.25591 0.82993 0.0
H916 H 0.08332 0.22412 0.78245 0.0
C917 C 0.09053 0.17895 0.8752 0.0
C918 C 0.5705 0.34993 0.59886 0.0
C919 C 0.57341 0.32029 0.61242 0.0
H920 H 0.54834 0.39123 0.61011 0.0
C921 C 0.55915 0.31058 0.65221 0.0
H922 H 0.58091 0.35772 0.56773 0.0
C923 C 0.54115 0.3299 0.677 0.0
C924 C 0.53618 0.35885 0.66129 0.0
H925 H 0.56086 0.28771 0.66289 0.0
H926 H 0.52969 0.32146 0.70668 0.0
C927 C 0.55167 0.36897 0.62277 0.0
C928 C 0.0694 0.4839 0.23713 0.0
C929 C 0.04407 0.46655 0.2289 0.0
H930 H 0.08828 0.52768 0.23644 0.0
C931 C 0.01878 0.48016 0.21047 0.0
H932 H 0.08921 0.47401 0.25131 0.0
C933 C 0.0181 0.51054 0.20304 0.0
C934 C 0.04287 0.52809 0.21278 0.0
H935 H 0.99887 0.46758 0.20356 0.0
H936 H 0.99783 0.52043 0.19044 0.0
C937 C 0.06891 0.51451 0.22858 0.0
C938 C 0.77545 0.81705 0.49047 0.0
C939 C 0.79129 0.79032 0.49338 0.0
H940 H 0.73268 0.83751 0.4822 0.0
C941 C 0.77585 0.76351 0.48927 0.0
H942 H 0.78685 0.83804 0.49345 0.0
C943 C 0.74525 0.76324 0.48393 0.0
C944 C 0.72928 0.78975 0.48144 0.0
H945 H 0.7873 0.74252 0.49149 0.0
H946 H 0.73402 0.7421 0.48192 0.0
C947 C 0.74461 0.81677 0.48385 0.0
C948 C 0.43081 0.4895 0.7251 0.0
C949 C 0.4576 0.47559 0.71361 0.0
H950 H 0.4094 0.53048 0.74278 0.0
C951 C 0.4829 0.49288 0.70654 0.0
H952 H 0.41106 0.47647 0.73098 0.0
C953 C 0.48182 0.52346 0.71197 0.0
C954 C 0.45558 0.53747 0.72598 0.0
H955 H 0.50378 0.48263 0.69755 0.0
H956 H 0.50205 0.53594 0.70723 0.0
C957 C 0.4299 0.52027 0.73193 0.0
C958 C 0.7639 0.23402 0.96111 0.0
C959 C 0.78017 0.20804 0.96775 0.0
H960 H 0.72173 0.25489 0.96241 0.0
C961 C 0.76525 0.1817 0.97854 0.0
H962 H 0.77496 0.25455 0.95257 0.0
C963 C 0.73444 0.18195 0.98532 0.0
C964 C 0.71833 0.20839 0.98031 0.0
H965 H 0.77753 0.16145 0.98404 0.0
H966 H 0.72343 0.16177 -0.00429 0.0
C967 C 0.73335 0.23413 0.96673 0.0
C968 C 0.93234 0.48124 0.73887 0.0
C969 C 0.95763 0.46429 0.7288 0.0
H970 H 0.91348 0.52495 0.74255 0.0
C971 C 0.98291 0.4786 0.71169 0.0
H972 H 0.91257 0.47079 0.75218 0.0
C973 C 0.98361 0.50925 0.70743 0.0
C974 C 0.95881 0.52626 0.71883 0.0
H975 H 0.00282 0.46629 0.7037 0.0
H976 H 0.00387 0.51979 0.69612 0.0
C977 C 0.9328 0.51209 0.73332 0.0
C978 C 0.25927 0.23507 0.52484 0.0
C979 C 0.27618 0.20988 0.51486 0.0
H980 H 0.21629 0.25455 0.5277 0.0
C981 C 0.26176 0.18383 0.50107 0.0
H982 H 0.26985 0.25537 0.53585 0.0
C983 C 0.23089 0.18353 0.49527 0.0
C984 C 0.21408 0.209 0.50466 0.0
H985 H 0.27442 0.16415 0.49311 0.0
H986 H 0.22026 0.16358 0.483 0.0
C987 C 0.22856 0.23452 0.52043 0.0
C988 C 0.51917 0.5222 0.22037 0.0
C989 C 0.54423 0.53631 0.23866 0.0
H990 H 0.49941 0.4817 0.19853 0.0
C991 C 0.57027 0.51973 0.24515 0.0
H992 H 0.49873 0.5342 0.21482 0.0
C993 C 0.57077 0.48936 0.23476 0.0
C994 C 0.54504 0.47522 0.21883 0.0
H995 H 0.58992 0.53004 0.25914 0.0
H996 H 0.59071 0.47674 0.24118 0.0
C997 C 0.51949 0.49203 0.21108 0.0
C998 C 0.24494 0.82018 0.00699 0.0
C999 C 0.2307 0.79391 0.02008 0.0
H1000 H 0.28637 0.84093 0.99002 0.0
C1001 C 0.24782 0.76888 0.03021 0.0
H1002 H 0.23215 0.83976 -0.00098 0.0
C1003 C 0.27854 0.76978 0.02649 0.0
C1004 C 0.29288 0.7955 0.01131 0.0
H1005 H 0.23739 0.74842 0.04078 0.0
H1006 H 0.29095 0.74983 0.03372 0.0
C1007 C 0.27586 0.82083 0.0019 0.0
C1008 C 0.56903 0.99168 0.75757 0.0
C1009 C 0.54233 0.97629 0.7638 0.0
H1010 H 0.58937 0.03389 0.74431 0.0
C1011 C 0.51572 0.99211 0.76595 0.0
H1012 H 0.5898 0.97981 0.75569 0.0
C1013 C 0.51552 0.02268 0.76084 0.0
C1014 C 0.54186 0.03818 0.75214 0.0
H1015 H 0.49487 0.98073 0.77102 0.0
H1016 H 0.49439 0.03398 0.76171 0.0
C1017 C 0.56875 0.02249 0.75105 0.0
C1018 C 0.26685 0.2641 0.00636 0.0
C1019 C 0.28309 0.29048 0.00714 0.0
H1020 H 0.22462 0.24366 0.00015 0.0
C1021 C 0.26811 0.3176 0.00344 0.0
H1022 H 0.27787 0.24291 0.00944 0.0
C1023 C 0.23726 0.31807 -0.00301 0.0
C1024 C 0.22116 0.29145 -0.00446 0.0
H1025 H 0.2803 0.33822 0.0038 0.0
H1026 H 0.22611 0.33909 0.99276 0.0
C1027 C 0.23628 0.26458 0.0012 0.0
C1028 C 0.9861 0.01102 0.27339 0.0
C1029 C 0.96042 0.02748 0.26507 0.0
H1030 H 0.0068 0.96873 0.27265 0.0
C1031 C 0.93441 0.0128 0.25171 0.0
H1032 H 0.00638 0.0219 0.28383 0.0
C1033 C 0.93475 0.98209 0.24409 0.0
C1034 C 0.96092 0.96577 0.25089 0.0
H1035 H 0.9144 0.02521 0.24481 0.0
H1036 H 0.9149 0.97132 0.23166 0.0
C1037 C 0.98625 0.98051 0.26703 0.0
C1038 C 0.26108 0.68246 0.48165 0.0
C1039 C 0.27493 0.70889 0.4683 0.0
H1040 H 0.21999 0.66116 0.49893 0.0
C1041 C 0.25743 0.73362 0.45798 0.0
H1042 H 0.27418 0.66311 0.48979 0.0
C1043 C 0.22673 0.73227 0.46175 0.0
C1044 C 0.21278 0.70639 0.47721 0.0
H1045 H 0.26756 0.75419 0.44721 0.0
H1046 H 0.21403 0.75201 0.45436 0.0
C1047 C 0.23018 0.68136 0.48683 0.0
C1048 C 0.48675 0.02416 0.27633 0.0
C1049 C 0.46132 0.03754 0.25802 0.0
H1050 H 0.50814 0.98397 0.29599 0.0
C1051 C 0.43637 0.01984 0.24882 0.0
H1052 H 0.5064 0.03706 0.28365 0.0
C1053 C 0.43719 0.98922 0.25705 0.0
C1054 C 0.46325 0.97588 0.27325 0.0
H1055 H 0.41647 0.02958 0.23467 0.0
H1056 H 0.41799 0.97586 0.24893 0.0
C1057 C 0.48783 0.99369 0.28324 0.0
C1058 C 0.76209 0.68625 0.00378 0.0
C1059 C 0.77724 0.71335 0.00636 0.0
H1060 H 0.71993 0.66476 -0.00545 0.0
C1061 C 0.76109 0.73978 0.00452 0.0
H1062 H 0.77417 0.66558 0.00493 0.0
C1063 C 0.73046 0.73934 -0.00024 0.0
C1064 C 0.71518 0.71244 -0.00449 0.0
H1065 H 0.77221 0.76097 0.00666 0.0
H1066 H 0.71883 0.76025 -0.00194 0.0
C1067 C 0.7312 0.6858 -0.00234 0.0
C1068 C 0.02615 0.00874 0.78579 0.0
C1069 C 0.05027 0.02654 0.77365 0.0
H1070 H 0.008 0.96536 0.78902 0.0
C1071 C 0.07629 0.01315 0.75745 0.0
H1072 H 0.00594 0.01854 0.79875 0.0
C1073 C 0.07734 0.98237 0.75083 0.0
C1074 C 0.05263 0.9647 0.76149 0.0
H1075 H 0.09514 0.02655 0.74781 0.0
H1076 H 0.09704 0.97256 0.73622 0.0
C1077 C 0.02743 0.9782 0.78035 0.0
C1078 C 0.73157 0.26752 0.46777 0.0
C1079 C 0.7171 0.2933 0.48243 0.0
H1080 H 0.77277 0.24647 0.45281 0.0
C1081 C 0.73394 0.31892 0.49083 0.0
H1082 H 0.7193 0.24737 0.46129 0.0
C1083 C 0.7648 0.31855 0.48487 0.0
C1084 C 0.77919 0.29231 0.47193 0.0
H1085 H 0.72331 0.33907 0.50224 0.0
H1086 H 0.77745 0.3384 0.49181 0.0
C1087 C 0.76225 0.26693 0.4632 0.0
loop_
_geom_bond_atom_site_label_1
_geom_bond_atom_site_label_2
_geom_bond_distance
_geom_bond_site_symmetry_2
_ccdc_geom_bond_type
Co0 O1 2.216 . S
Co0 O2 2.091 . S
Co0 O4 2.004 . S
Co0 O10 2.021 . S
Co0 O12 2.137 . S
Co0 O13 2.244 . S
O1 Co0 2.216 . S
O1 C8 1.247 . S
O2 Co0 2.091 . S
O2 C8 1.261 . S
C3 O12 1.247 . S
C3 O13 1.272 . S
O4 Co0 2.004 . S
O4 C9 1.259 . S
Co5 O6 2.061 . S
Co5 O11 2.052 . S
Co5 O13 2.135 . S
O6 Co5 2.061 . S
O6 C9 1.235 . S
C7 O10 1.238 . S
C7 O11 1.241 . S
C8 O1 1.247 . S
C8 O2 1.261 . S
C9 O4 1.259 . S
C9 O6 1.235 . S
O10 Co0 2.021 . S
O10 C7 1.238 . S
O11 Co5 2.052 . S
O11 C7 1.241 . S
O12 Co0 2.137 . S
O12 C3 1.247 . S
O13 Co0 2.244 . S
O13 C3 1.272 . S
O13 Co5 2.135 . S
Co14 O15 2.216 . S
Co14 O16 2.091 . S
Co14 O18 2.004 . S
Co14 O24 2.021 . S
Co14 O26 2.137 . S
Co14 O27 2.244 . S
O15 Co14 2.216 . S
O15 C22 1.247 . S
O16 Co14 2.091 . S
O16 C22 1.261 . S
C17 O26 1.247 . S
C17 O27 1.272 . S
O18 Co14 2.004 . S
O18 C23 1.259 . S
Co19 O20 2.061 . S
Co19 O25 2.052 . S
Co19 O27 2.135 . S
O20 Co19 2.061 . S
O20 C23 1.235 . S
C21 O24 1.238 . S
C21 O25 1.241 . S
C22 O15 1.247 . S
C22 O16 1.261 . S
C23 O18 1.259 . S
C23 O20 1.235 . S
O24 Co14 2.021 . S
O24 C21 1.238 . S
O25 Co19 2.052 . S
O25 C21 1.241 . S
O26 Co14 2.137 . S
O26 C17 1.247 . S
O27 Co14 2.244 . S
O27 C17 1.272 . S
O27 Co19 2.135 . S
Co28 O29 2.216 . S
Co28 O30 2.091 . S
Co28 O32 2.004 . S
Co28 O38 2.021 . S
Co28 O40 2.137 . S
Co28 O41 2.244 . S
O29 Co28 2.216 . S
O29 C36 1.247 . S
O30 Co28 2.091 . S
O30 C36 1.261 . S
C31 O40 1.247 . S
C31 O41 1.272 . S
O32 Co28 2.004 . S
O32 C37 1.259 . S
Co33 O34 2.061 . S
Co33 O39 2.052 . S
Co33 O41 2.135 . S
O34 Co33 2.061 . S
O34 C37 1.235 . S
C35 O38 1.238 . S
C35 O39 1.241 . S
C36 O29 1.247 . S
C36 O30 1.261 . S
C37 O32 1.259 . S
C37 O34 1.235 . S
O38 Co28 2.021 . S
O38 C35 1.238 . S
O39 Co33 2.052 . S
O39 C35 1.241 . S
O40 Co28 2.137 . S
O40 C31 1.247 . S
O41 Co28 2.244 . S
O41 C31 1.272 . S
O41 Co33 2.135 . S
Co42 O43 2.216 . S
Co42 O44 2.091 . S
Co42 O46 2.004 . S
Co42 O52 2.021 1_554 S
Co42 O54 2.137 . S
Co42 O55 2.244 . S
O43 Co42 2.216 . S
O43 C50 1.247 . S
O44 Co42 2.091 . S
O44 C50 1.261 . S
C45 O54 1.247 . S
C45 O55 1.272 . S
O46 Co42 2.004 . S
O46 C51 1.259 . S
Co47 O48 2.061 . S
Co47 O53 2.052 1_554 S
Co47 O55 2.135 . S
O48 Co47 2.061 . S
O48 C51 1.235 . S
C49 O52 1.238 . S
C49 O53 1.241 . S
C50 O43 1.247 . S
C50 O44 1.261 . S
C51 O46 1.259 . S
C51 O48 1.235 . S
O52 Co42 2.021 1_556 S
O52 C49 1.238 . S
O53 Co47 2.052 1_556 S
O53 C49 1.241 . S
O54 Co42 2.137 . S
O54 C45 1.247 . S
O55 Co42 2.244 . S
O55 C45 1.272 . S
O55 Co47 2.135 . S
Co56 O57 2.216 . S
Co56 O58 2.091 . S
Co56 O60 2.004 . S
Co56 O66 2.021 . S
Co56 O68 2.137 . S
Co56 O69 2.244 . S
O57 Co56 2.216 . S
O57 C64 1.247 . S
O58 Co56 2.091 . S
O58 C64 1.261 . S
C59 O68 1.247 . S
C59 O69 1.272 . S
O60 Co56 2.004 . S
O60 C65 1.259 . S
Co61 O62 2.061 . S
Co61 O67 2.052 . S
Co61 O69 2.135 . S
O62 Co61 2.061 . S
O62 C65 1.235 . S
C63 O66 1.238 . S
C63 O67 1.241 . S
C64 O57 1.247 . S
C64 O58 1.261 . S
C65 O60 1.259 . S
C65 O62 1.235 . S
O66 Co56 2.021 . S
O66 C63 1.238 . S
O67 Co61 2.052 . S
O67 C63 1.241 . S
O68 Co56 2.137 . S
O68 C59 1.247 . S
O69 Co56 2.244 . S
O69 C59 1.272 . S
O69 Co61 2.135 . S
Co70 O71 2.216 . S
Co70 O72 2.091 . S
Co70 O74 2.004 . S
Co70 O80 2.021 . S
Co70 O82 2.137 . S
Co70 O83 2.244 . S
O71 Co70 2.216 . S
O71 C78 1.247 . S
O72 Co70 2.091 . S
O72 C78 1.261 . S
C73 O82 1.247 . S
C73 O83 1.272 . S
O74 Co70 2.004 . S
O74 C79 1.259 . S
Co75 O76 2.061 . S
Co75 O81 2.052 . S
Co75 O83 2.135 . S
O76 Co75 2.061 . S
O76 C79 1.235 . S
C77 O80 1.238 . S
C77 O81 1.241 . S
C78 O71 1.247 . S
C78 O72 1.261 . S
C79 O74 1.259 . S
C79 O76 1.235 . S
O80 Co70 2.021 . S
O80 C77 1.238 . S
O81 Co75 2.052 . S
O81 C77 1.241 . S
O82 Co70 2.137 . S
O82 C73 1.247 . S
O83 Co70 2.244 . S
O83 C73 1.272 . S
O83 Co75 2.135 . S
Co84 O85 2.216 . S
Co84 O86 2.091 . S
Co84 O88 2.004 . S
Co84 O94 2.021 . S
Co84 O96 2.137 . S
Co84 O97 2.244 . S
O85 Co84 2.216 . S
O85 C92 1.247 . S
O86 Co84 2.091 . S
O86 C92 1.261 . S
C87 O96 1.247 . S
C87 O97 1.272 . S
O88 Co84 2.004 . S
O88 C93 1.259 . S
Co89 O90 2.061 . S
Co89 O95 2.052 . S
Co89 O97 2.135 . S
O90 Co89 2.061 . S
O90 C93 1.235 . S
C91 O94 1.238 . S
C91 O95 1.241 . S
C92 O85 1.247 . S
C92 O86 1.261 . S
C93 O88 1.259 . S
C93 O90 1.235 . S
O94 Co84 2.021 . S
O94 C91 1.238 . S
O95 Co89 2.052 . S
O95 C91 1.241 . S
O96 Co84 2.137 . S
O96 C87 1.247 . S
O97 Co84 2.244 . S
O97 C87 1.272 . S
O97 Co89 2.135 . S
Co98 O99 2.216 . S
Co98 O100 2.091 . S
Co98 O102 2.004 . S
Co98 O108 2.021 1_556 S
Co98 O110 2.137 . S
Co98 O111 2.244 . S
O99 Co98 2.216 . S
O99 C106 1.247 . S
O100 Co98 2.091 . S
O100 C106 1.261 . S
C101 O110 1.247 . S
C101 O111 1.272 . S
O102 Co98 2.004 . S
O102 C107 1.259 . S
Co103 O104 2.061 . S
Co103 O109 2.052 1_556 S
Co103 O111 2.135 . S
O104 Co103 2.061 . S
O104 C107 1.235 . S
C105 O108 1.238 . S
C105 O109 1.241 . S
C106 O99 1.247 . S
C106 O100 1.261 . S
C107 O102 1.259 . S
C107 O104 1.235 . S
O108 Co98 2.021 1_554 S
O108 C105 1.238 . S
O109 Co103 2.052 1_554 S
O109 C105 1.241 . S
O110 Co98 2.137 . S
O110 C101 1.247 . S
O111 Co98 2.244 . S
O111 C101 1.272 . S
O111 Co103 2.135 . S
Co112 O113 2.216 . S
Co112 O114 2.091 . S
Co112 O116 2.004 . S
Co112 O122 2.021 . S
Co112 O124 2.137 . S
Co112 O125 2.244 . S
O113 Co112 2.216 . S
O113 C120 1.247 . S
O114 Co112 2.091 . S
O114 C120 1.261 . S
C115 O124 1.247 . S
C115 O125 1.272 . S
O116 Co112 2.004 . S
O116 C121 1.259 . S
Co117 O118 2.061 . S
Co117 O123 2.052 . S
Co117 O125 2.135 . S
O118 Co117 2.061 . S
O118 C121 1.235 . S
C119 O122 1.238 . S
C119 O123 1.241 . S
C120 O113 1.247 . S
C120 O114 1.261 . S
C121 O116 1.259 . S
C121 O118 1.235 . S
O122 Co112 2.021 . S
O122 C119 1.238 . S
O123 Co117 2.052 . S
O123 C119 1.241 . S
O124 Co112 2.137 . S
O124 C115 1.247 . S
O125 Co112 2.244 . S
O125 C115 1.272 . S
O125 Co117 2.135 . S
Co126 O127 2.216 . S
Co126 O128 2.091 . S
Co126 O130 2.004 . S
Co126 O136 2.021 . S
Co126 O138 2.137 . S
Co126 O139 2.244 . S
O127 Co126 2.216 . S
O127 C134 1.247 . S
O128 Co126 2.091 . S
O128 C134 1.261 . S
C129 O138 1.247 . S
C129 O139 1.272 . S
O130 Co126 2.004 . S
O130 C135 1.259 . S
Co131 O132 2.061 . S
Co131 O137 2.052 . S
Co131 O139 2.135 . S
O132 Co131 2.061 . S
O132 C135 1.235 . S
C133 O136 1.238 . S
C133 O137 1.241 . S
C134 O127 1.247 . S
C134 O128 1.261 . S
C135 O130 1.259 . S
C135 O132 1.235 . S
O136 Co126 2.021 . S
O136 C133 1.238 . S
O137 Co131 2.052 . S
O137 C133 1.241 . S
O138 Co126 2.137 . S
O138 C129 1.247 . S
O139 Co126 2.244 . S
O139 C129 1.272 . S
O139 Co131 2.135 . S
Co140 O141 2.216 . S
Co140 O142 2.091 . S
Co140 O144 2.004 . S
Co140 O150 2.021 . S
Co140 O152 2.137 . S
Co140 O153 2.244 . S
O141 Co140 2.216 . S
O141 C148 1.247 . S
O142 Co140 2.091 . S
O142 C148 1.261 . S
C143 O152 1.247 . S
C143 O153 1.272 . S
O144 Co140 2.004 . S
O144 C149 1.259 . S
Co145 O146 2.061 . S
Co145 O151 2.052 . S
Co145 O153 2.135 . S
O146 Co145 2.061 . S
O146 C149 1.235 . S
C147 O150 1.238 . S
C147 O151 1.241 . S
C148 O141 1.247 . S
C148 O142 1.261 . S
C149 O144 1.259 . S
C149 O146 1.235 . S
O150 Co140 2.021 . S
O150 C147 1.238 . S
O151 Co145 2.052 . S
O151 C147 1.241 . S
O152 Co140 2.137 . S
O152 C143 1.247 . S
O153 Co140 2.244 . S
O153 C143 1.272 . S
O153 Co145 2.135 . S
Co154 O155 2.216 . S
Co154 O156 2.091 . S
Co154 O158 2.004 . S
Co154 O164 2.021 1_556 S
Co154 O166 2.137 . S
Co154 O167 2.244 . S
O155 Co154 2.216 . S
O155 C162 1.247 . S
O156 Co154 2.091 . S
O156 C162 1.261 . S
C157 O166 1.247 . S
C157 O167 1.272 . S
O158 Co154 2.004 . S
O158 C163 1.259 . S
Co159 O160 2.061 . S
Co159 O165 2.052 1_556 S
Co159 O167 2.135 . S
O160 Co159 2.061 . S
O160 C163 1.235 . S
C161 O164 1.238 . S
C161 O165 1.241 . S
C162 O155 1.247 . S
C162 O156 1.261 . S
C163 O158 1.259 . S
C163 O160 1.235 . S
O164 Co154 2.021 1_554 S
O164 C161 1.238 . S
O165 Co159 2.052 1_554 S
O165 C161 1.241 . S
O166 Co154 2.137 . S
O166 C157 1.247 . S
O167 Co154 2.244 . S
O167 C157 1.272 . S
O167 Co159 2.135 . S
Co168 O169 2.216 . S
Co168 O170 2.091 . S
Co168 O172 2.004 . S
Co168 O178 2.021 . S
Co168 O180 2.137 . S
Co168 O181 2.244 . S
O169 Co168 2.216 . S
O169 C176 1.247 . S
O170 Co168 2.091 . S
O170 C176 1.261 . S
C171 O180 1.247 . S
C171 O181 1.272 . S
O172 Co168 2.004 . S
O172 C177 1.259 . S
Co173 O174 2.061 . S
Co173 O179 2.052 . S
Co173 O181 2.135 . S
O174 Co173 2.061 . S
O174 C177 1.235 . S
C175 O178 1.238 . S
C175 O179 1.241 . S
C176 O169 1.247 . S
C176 O170 1.261 . S
C177 O172 1.259 . S
C177 O174 1.235 . S
O178 Co168 2.021 . S
O178 C175 1.238 . S
O179 Co173 2.052 . S
O179 C175 1.241 . S
O180 Co168 2.137 . S
O180 C171 1.247 . S
O181 Co168 2.244 . S
O181 C171 1.272 . S
O181 Co173 2.135 . S
Co182 O183 2.216 . S
Co182 O184 2.091 . S
Co182 O186 2.004 . S
Co182 O192 2.021 . S
Co182 O194 2.137 . S
Co182 O195 2.244 . S
O183 Co182 2.216 . S
O183 C190 1.247 . S
O184 Co182 2.091 . S
O184 C190 1.261 . S
C185 O194 1.247 . S
C185 O195 1.272 . S
O186 Co182 2.004 . S
O186 C191 1.259 . S
Co187 O188 2.061 . S
Co187 O193 2.052 . S
Co187 O195 2.135 . S
O188 Co187 2.061 . S
O188 C191 1.235 . S
C189 O192 1.238 . S
C189 O193 1.241 . S
C190 O183 1.247 . S
C190 O184 1.261 . S
C191 O186 1.259 . S
C191 O188 1.235 . S
O192 Co182 2.021 . S
O192 C189 1.238 . S
O193 Co187 2.052 . S
O193 C189 1.241 . S
O194 Co182 2.137 . S
O194 C185 1.247 . S
O195 Co182 2.244 . S
O195 C185 1.272 . S
O195 Co187 2.135 . S
Co196 O197 2.216 . S
Co196 O198 2.091 . S
Co196 O200 2.004 . S
Co196 O206 2.021 . S
Co196 O208 2.137 . S
Co196 O209 2.244 . S
O197 Co196 2.216 . S
O197 C204 1.247 . S
O198 Co196 2.091 . S
O198 C204 1.261 . S
C199 O208 1.247 . S
C199 O209 1.272 . S
O200 Co196 2.004 . S
O200 C205 1.259 . S
Co201 O202 2.061 . S
Co201 O207 2.052 . S
Co201 O209 2.135 . S
O202 Co201 2.061 . S
O202 C205 1.235 . S
C203 O206 1.238 . S
C203 O207 1.241 . S
C204 O197 1.247 . S
C204 O198 1.261 . S
C205 O200 1.259 . S
C205 O202 1.235 . S
O206 Co196 2.021 . S
O206 C203 1.238 . S
O207 Co201 2.052 . S
O207 C203 1.241 . S
O208 Co196 2.137 . S
O208 C199 1.247 . S
O209 Co196 2.244 . S
O209 C199 1.272 . S
O209 Co201 2.135 . S
Co210 O211 2.216 . S
Co210 O212 2.091 . S
Co210 O214 2.004 . S
Co210 O220 2.021 1_554 S
Co210 O222 2.137 . S
Co210 O223 2.244 . S
O211 Co210 2.216 . S
O211 C218 1.247 . S
O212 Co210 2.091 . S
O212 C218 1.261 . S
C213 O222 1.247 . S
C213 O223 1.272 . S
O214 Co210 2.004 . S
O214 C219 1.259 . S
Co215 O216 2.061 . S
Co215 O221 2.052 1_554 S
Co215 O223 2.135 . S
O216 Co215 2.061 . S
O216 C219 1.235 . S
C217 O220 1.238 . S
C217 O221 1.241 . S
C218 O211 1.247 . S
C218 O212 1.261 . S
C219 O214 1.259 . S
C219 O216 1.235 . S
O220 Co210 2.021 1_556 S
O220 C217 1.238 . S
O221 Co215 2.052 1_556 S
O221 C217 1.241 . S
O222 Co210 2.137 . S
O222 C213 1.247 . S
O223 Co210 2.244 . S
O223 C213 1.272 . S
O223 Co215 2.135 . S
Co224 O225 2.216 . S
Co224 O226 2.091 . S
Co224 O228 2.004 . S
Co224 O234 2.021 . S
Co224 O236 2.137 . S
Co224 O237 2.244 . S
O225 Co224 2.216 . S
O225 C232 1.247 . S
O226 Co224 2.091 . S
O226 C232 1.261 . S
C227 O236 1.247 . S
C227 O237 1.272 . S
O228 Co224 2.004 . S
O228 C233 1.259 . S
Co229 O230 2.061 . S
Co229 O235 2.052 . S
Co229 O237 2.135 . S
O230 Co229 2.061 . S
O230 C233 1.235 . S
C231 O234 1.238 . S
C231 O235 1.241 . S
C232 O225 1.247 . S
C232 O226 1.261 . S
C233 O228 1.259 . S
C233 O230 1.235 . S
O234 Co224 2.021 . S
O234 C231 1.238 . S
O235 Co229 2.052 . S
O235 C231 1.241 . S
O236 Co224 2.137 . S
O236 C227 1.247 . S
O237 Co224 2.244 . S
O237 C227 1.272 . S
O237 Co229 2.135 . S
Co238 O239 2.216 . S
Co238 O240 2.091 . S
Co238 O242 2.004 . S
Co238 O248 2.021 1_554 S
Co238 O250 2.137 . S
Co238 O251 2.244 . S
O239 Co238 2.216 . S
O239 C246 1.247 . S
O240 Co238 2.091 . S
O240 C246 1.261 . S
C241 O250 1.247 . S
C241 O251 1.272 . S
O242 Co238 2.004 . S
O242 C247 1.259 . S
Co243 O244 2.061 . S
Co243 O249 2.052 1_554 S
Co243 O251 2.135 . S
O244 Co243 2.061 . S
O244 C247 1.235 . S
C245 O248 1.238 . S
C245 O249 1.241 . S
C246 O239 1.247 . S
C246 O240 1.261 . S
C247 O242 1.259 . S
C247 O244 1.235 . S
O248 Co238 2.021 1_556 S
O248 C245 1.238 . S
O249 Co243 2.052 1_556 S
O249 C245 1.241 . S
O250 Co238 2.137 . S
O250 C241 1.247 . S
O251 Co238 2.244 . S
O251 C241 1.272 . S
O251 Co243 2.135 . S
Co252 O253 2.216 . S
Co252 O254 2.091 . S
Co252 O256 2.004 . S
Co252 O262 2.021 . S
Co252 O264 2.137 . S
Co252 O265 2.244 . S
O253 Co252 2.216 . S
O253 C260 1.247 . S
O254 Co252 2.091 . S
O254 C260 1.261 . S
C255 O264 1.247 . S
C255 O265 1.272 . S
O256 Co252 2.004 . S
O256 C261 1.259 . S
Co257 O258 2.061 . S
Co257 O263 2.052 . S
Co257 O265 2.135 . S
O258 Co257 2.061 . S
O258 C261 1.235 . S
C259 O262 1.238 . S
C259 O263 1.241 . S
C260 O253 1.247 . S
C260 O254 1.261 . S
C261 O256 1.259 . S
C261 O258 1.235 . S
O262 Co252 2.021 . S
O262 C259 1.238 . S
O263 Co257 2.052 . S
O263 C259 1.241 . S
O264 Co252 2.137 . S
O264 C255 1.247 . S
O265 Co252 2.244 . S
O265 C255 1.272 . S
O265 Co257 2.135 . S
Co266 O267 2.216 . S
Co266 O268 2.091 . S
Co266 O270 2.004 . S
Co266 O276 2.021 . S
Co266 O278 2.137 . S
Co266 O279 2.244 . S
O267 Co266 2.216 . S
O267 C274 1.247 . S
O268 Co266 2.091 . S
O268 C274 1.261 . S
C269 O278 1.247 . S
C269 O279 1.272 . S
O270 Co266 2.004 . S
O270 C275 1.259 . S
Co271 O272 2.061 . S
Co271 O277 2.052 . S
Co271 O279 2.135 . S
O272 Co271 2.061 . S
O272 C275 1.235 . S
C273 O276 1.238 . S
C273 O277 1.241 . S
C274 O267 1.247 . S
C274 O268 1.261 . S
C275 O270 1.259 . S
C275 O272 1.235 . S
O276 Co266 2.021 . S
O276 C273 1.238 . S
O277 Co271 2.052 . S
O277 C273 1.241 . S
O278 Co266 2.137 . S
O278 C269 1.247 . S
O279 Co266 2.244 . S
O279 C269 1.272 . S
O279 Co271 2.135 . S
Co280 O281 2.216 . S
Co280 O282 2.091 . S
Co280 O284 2.004 . S
Co280 O290 2.021 . S
Co280 O292 2.137 . S
Co280 O293 2.244 . S
O281 Co280 2.216 . S
O281 C288 1.247 . S
O282 Co280 2.091 . S
O282 C288 1.261 . S
C283 O292 1.247 . S
C283 O293 1.272 . S
O284 Co280 2.004 . S
O284 C289 1.259 . S
Co285 O286 2.061 . S
Co285 O291 2.052 . S
Co285 O293 2.135 . S
O286 Co285 2.061 . S
O286 C289 1.235 . S
C287 O290 1.238 . S
C287 O291 1.241 . S
C288 O281 1.247 . S
C288 O282 1.261 . S
C289 O284 1.259 . S
C289 O286 1.235 . S
O290 Co280 2.021 . S
O290 C287 1.238 . S
O291 Co285 2.052 . S
O291 C287 1.241 . S
O292 Co280 2.137 . S
O292 C283 1.247 . S
O293 Co280 2.244 . S
O293 C283 1.272 . S
O293 Co285 2.135 . S
Co294 O295 2.216 . S
Co294 O296 2.091 . S
Co294 O298 2.004 . S
Co294 O304 2.021 1_556 S
Co294 O306 2.137 . S
Co294 O307 2.244 . S
O295 Co294 2.216 . S
O295 C302 1.247 . S
O296 Co294 2.091 . S
O296 C302 1.261 . S
C297 O306 1.247 . S
C297 O307 1.272 . S
O298 Co294 2.004 . S
O298 C303 1.259 . S
Co299 O300 2.061 . S
Co299 O305 2.052 1_556 S
Co299 O307 2.135 . S
O300 Co299 2.061 . S
O300 C303 1.235 . S
C301 O304 1.238 . S
C301 O305 1.241 . S
C302 O295 1.247 . S
C302 O296 1.261 . S
C303 O298 1.259 . S
C303 O300 1.235 . S
O304 Co294 2.021 1_554 S
O304 C301 1.238 . S
O305 Co299 2.052 1_554 S
O305 C301 1.241 . S
O306 Co294 2.137 . S
O306 C297 1.247 . S
O307 Co294 2.244 . S
O307 C297 1.272 . S
O307 Co299 2.135 . S
Co308 O309 2.216 . S
Co308 O310 2.091 . S
Co308 O312 2.004 . S
Co308 O318 2.021 . S
Co308 O320 2.137 . S
Co308 O321 2.244 . S
O309 Co308 2.216 . S
O309 C316 1.247 . S
O310 Co308 2.091 . S
O310 C316 1.261 . S
C311 O320 1.247 . S
C311 O321 1.272 . S
O312 Co308 2.004 . S
O312 C317 1.259 . S
Co313 O314 2.061 . S
Co313 O319 2.052 . S
Co313 O321 2.135 . S
O314 Co313 2.061 . S
O314 C317 1.235 . S
C315 O318 1.238 . S
C315 O319 1.241 . S
C316 O309 1.247 . S
C316 O310 1.261 . S
C317 O312 1.259 . S
C317 O314 1.235 . S
O318 Co308 2.021 . S
O318 C315 1.238 . S
O319 Co313 2.052 . S
O319 C315 1.241 . S
O320 Co308 2.137 . S
O320 C311 1.247 . S
O321 Co308 2.244 . S
O321 C311 1.272 . S
O321 Co313 2.135 . S
Co322 O323 2.216 . S
Co322 O324 2.091 . S
Co322 O326 2.004 . S
Co322 O332 2.021 . S
Co322 O334 2.137 . S
Co322 O335 2.244 . S
O323 Co322 2.216 . S
O323 C330 1.247 . S
O324 Co322 2.091 . S
O324 C330 1.261 . S
C325 O334 1.247 . S
C325 O335 1.272 . S
O326 Co322 2.004 . S
O326 C331 1.259 . S
Co327 O328 2.061 . S
Co327 O333 2.052 . S
Co327 O335 2.135 . S
O328 Co327 2.061 . S
O328 C331 1.235 . S
C329 O332 1.238 . S
C329 O333 1.241 . S
C330 O323 1.247 . S
C330 O324 1.261 . S
C331 O326 1.259 . S
C331 O328 1.235 . S
O332 Co322 2.021 . S
O332 C329 1.238 . S
O333 Co327 2.052 . S
O333 C329 1.241 . S
O334 Co322 2.137 . S
O334 C325 1.247 . S
O335 Co322 2.244 . S
O335 C325 1.272 . S
O335 Co327 2.135 . S
Co336 O337 2.216 . S
Co336 O338 2.091 . S
Co336 O340 2.004 . S
Co336 O346 2.021 . S
Co336 O348 2.137 . S
Co336 O349 2.244 . S
O337 Co336 2.216 . S
O337 C344 1.247 . S
O338 Co336 2.091 . S
O338 C344 1.261 . S
C339 O348 1.247 . S
C339 O349 1.272 . S
O340 Co336 2.004 . S
O340 C345 1.259 . S
Co341 O342 2.061 . S
Co341 O347 2.052 . S
Co341 O349 2.135 . S
O342 Co341 2.061 . S
O342 C345 1.235 . S
C343 O346 1.238 . S
C343 O347 1.241 . S
C344 O337 1.247 . S
C344 O338 1.261 . S
C345 O340 1.259 . S
C345 O342 1.235 . S
O346 Co336 2.021 . S
O346 C343 1.238 . S
O347 Co341 2.052 . S
O347 C343 1.241 . S
O348 Co336 2.137 . S
O348 C339 1.247 . S
O349 Co336 2.244 . S
O349 C339 1.272 . S
O349 Co341 2.135 . S
Co350 O351 2.216 . S
Co350 O352 2.091 . S
Co350 O354 2.004 . S
Co350 O360 2.021 1_556 S
Co350 O362 2.137 . S
Co350 O363 2.244 . S
O351 Co350 2.216 . S
O351 C358 1.247 . S
O352 Co350 2.091 . S
O352 C358 1.261 . S
C353 O362 1.247 . S
C353 O363 1.272 . S
O354 Co350 2.004 . S
O354 C359 1.259 . S
Co355 O356 2.061 . S
Co355 O361 2.052 1_556 S
Co355 O363 2.135 . S
O356 Co355 2.061 . S
O356 C359 1.235 . S
C357 O360 1.238 . S
C357 O361 1.241 . S
C358 O351 1.247 . S
C358 O352 1.261 . S
C359 O354 1.259 . S
C359 O356 1.235 . S
O360 Co350 2.021 1_554 S
O360 C357 1.238 . S
O361 Co355 2.052 1_554 S
O361 C357 1.241 . S
O362 Co350 2.137 . S
O362 C353 1.247 . S
O363 Co350 2.244 . S
O363 C353 1.272 . S
O363 Co355 2.135 . S
Co364 O365 2.216 . S
Co364 O366 2.091 . S
Co364 O368 2.004 . S
Co364 O374 2.021 . S
Co364 O376 2.137 . S
Co364 O377 2.244 . S
O365 Co364 2.216 . S
O365 C372 1.247 . S
O366 Co364 2.091 . S
O366 C372 1.261 . S
C367 O376 1.247 . S
C367 O377 1.272 . S
O368 Co364 2.004 . S
O368 C373 1.259 . S
Co369 O370 2.061 . S
Co369 O375 2.052 . S
Co369 O377 2.135 . S
O370 Co369 2.061 . S
O370 C373 1.235 . S
C371 O374 1.238 . S
C371 O375 1.241 . S
C372 O365 1.247 . S
C372 O366 1.261 . S
C373 O368 1.259 . S
C373 O370 1.235 . S
O374 Co364 2.021 . S
O374 C371 1.238 . S
O375 Co369 2.052 . S
O375 C371 1.241 . S
O376 Co364 2.137 . S
O376 C367 1.247 . S
O377 Co364 2.244 . S
O377 C367 1.272 . S
O377 Co369 2.135 . S
Co378 O379 2.216 . S
Co378 O380 2.091 . S
Co378 O382 2.004 . S
Co378 O388 2.021 . S
Co378 O390 2.137 . S
Co378 O391 2.244 . S
O379 Co378 2.216 . S
O379 C386 1.247 . S
O380 Co378 2.091 . S
O380 C386 1.261 . S
C381 O390 1.247 . S
C381 O391 1.272 . S
O382 Co378 2.004 . S
O382 C387 1.259 . S
Co383 O384 2.061 . S
Co383 O389 2.052 . S
Co383 O391 2.135 . S
O384 Co383 2.061 . S
O384 C387 1.235 . S
C385 O388 1.238 . S
C385 O389 1.241 . S
C386 O379 1.247 . S
C386 O380 1.261 . S
C387 O382 1.259 . S
C387 O384 1.235 . S
O388 Co378 2.021 . S
O388 C385 1.238 . S
O389 Co383 2.052 . S
O389 C385 1.241 . S
O390 Co378 2.137 . S
O390 C381 1.247 . S
O391 Co378 2.244 . S
O391 C381 1.272 . S
O391 Co383 2.135 . S
Co392 O393 2.216 . S
Co392 O394 2.091 . S
Co392 O396 2.004 . S
Co392 O402 2.021 . S
Co392 O404 2.137 . S
Co392 O405 2.244 . S
O393 Co392 2.216 . S
O393 C400 1.247 . S
O394 Co392 2.091 . S
O394 C400 1.261 . S
C395 O404 1.247 . S
C395 O405 1.272 . S
O396 Co392 2.004 . S
O396 C401 1.259 . S
Co397 O398 2.061 . S
Co397 O403 2.052 . S
Co397 O405 2.135 . S
O398 Co397 2.061 . S
O398 C401 1.235 . S
C399 O402 1.238 . S
C399 O403 1.241 . S
C400 O393 1.247 . S
C400 O394 1.261 . S
C401 O396 1.259 . S
C401 O398 1.235 . S
O402 Co392 2.021 . S
O402 C399 1.238 . S
O403 Co397 2.052 . S
O403 C399 1.241 . S
O404 Co392 2.137 . S
O404 C395 1.247 . S
O405 Co392 2.244 . S
O405 C395 1.272 . S
O405 Co397 2.135 . S
Co406 O407 2.216 . S
Co406 O408 2.091 . S
Co406 O410 2.004 . S
Co406 O416 2.021 1_554 S
Co406 O418 2.137 . S
Co406 O419 2.244 . S
O407 Co406 2.216 . S
O407 C414 1.247 . S
O408 Co406 2.091 . S
O408 C414 1.261 . S
C409 O418 1.247 . S
C409 O419 1.272 . S
O410 Co406 2.004 . S
O410 C415 1.259 . S
Co411 O412 2.061 . S
Co411 O417 2.052 1_554 S
Co411 O419 2.135 . S
O412 Co411 2.061 . S
O412 C415 1.235 . S
C413 O416 1.238 . S
C413 O417 1.241 . S
C414 O407 1.247 . S
C414 O408 1.261 . S
C415 O410 1.259 . S
C415 O412 1.235 . S
O416 Co406 2.021 1_556 S
O416 C413 1.238 . S
O417 Co411 2.052 1_556 S
O417 C413 1.241 . S
O418 Co406 2.137 . S
O418 C409 1.247 . S
O419 Co406 2.244 . S
O419 C409 1.272 . S
O419 Co411 2.135 . S
Co420 O421 2.216 . S
Co420 O422 2.091 . S
Co420 O424 2.004 . S
Co420 O430 2.021 . S
Co420 O432 2.137 . S
Co420 O433 2.244 . S
O421 Co420 2.216 . S
O421 C428 1.247 . S
O422 Co420 2.091 . S
O422 C428 1.261 . S
C423 O432 1.247 . S
C423 O433 1.272 . S
O424 Co420 2.004 . S
O424 C429 1.259 . S
Co425 O426 2.061 . S
Co425 O431 2.052 . S
Co425 O433 2.135 . S
O426 Co425 2.061 . S
O426 C429 1.235 . S
C427 O430 1.238 . S
C427 O431 1.241 . S
C428 O421 1.247 . S
C428 O422 1.261 . S
C429 O424 1.259 . S
C429 O426 1.235 . S
O430 Co420 2.021 . S
O430 C427 1.238 . S
O431 Co425 2.052 . S
O431 C427 1.241 . S
O432 Co420 2.137 . S
O432 C423 1.247 . S
O433 Co420 2.244 . S
O433 C423 1.272 . S
O433 Co425 2.135 . S
Co434 O435 2.216 . S
Co434 O436 2.091 . S
Co434 O438 2.004 . S
Co434 O444 2.021 . S
Co434 O446 2.137 . S
Co434 O447 2.244 . S
O435 Co434 2.216 . S
O435 C442 1.247 . S
O436 Co434 2.091 . S
O436 C442 1.261 . S
C437 O446 1.247 . S
C437 O447 1.272 . S
O438 Co434 2.004 . S
O438 C443 1.259 . S
Co439 O440 2.061 . S
Co439 O445 2.052 . S
Co439 O447 2.135 . S
O440 Co439 2.061 . S
O440 C443 1.235 . S
C441 O444 1.238 . S
C441 O445 1.241 . S
C442 O435 1.247 . S
C442 O436 1.261 . S
C443 O438 1.259 . S
C443 O440 1.235 . S
O444 Co434 2.021 . S
O444 C441 1.238 . S
O445 Co439 2.052 . S
O445 C441 1.241 . S
O446 Co434 2.137 . S
O446 C437 1.247 . S
O447 Co434 2.244 . S
O447 C437 1.272 . S
O447 Co439 2.135 . S
C448 C449 1.387 . S
C448 H452 0.950 . S
C448 C457 1.390 . S
C449 C448 1.387 . S
C449 C451 1.387 . S
H450 C457 0.950 . S
C451 C449 1.387 . S
C451 C453 1.390 . S
C451 H455 0.950 . S
H452 C448 0.950 . S
C453 C451 1.390 . S
C453 C454 1.387 . S
C453 H456 0.950 . S
C454 C453 1.387 . S
C454 C457 1.387 . S
H455 C451 0.950 . S
H456 C453 0.950 . S
C457 C448 1.390 . S
C457 H450 0.950 . S
C457 C454 1.387 . S
C458 C459 1.387 . S
C458 H462 0.950 . S
C458 C467 1.390 . S
C459 C458 1.387 . S
C459 C461 1.387 . S
H460 C467 0.950 . S
C461 C459 1.387 . S
C461 C463 1.390 . S
C461 H465 0.950 . S
H462 C458 0.950 . S
C463 C461 1.390 . S
C463 C464 1.387 . S
C463 H466 0.950 . S
C464 C463 1.387 . S
C464 C467 1.387 . S
H465 C461 0.950 . S
H466 C463 0.950 . S
C467 C458 1.390 . S
C467 H460 0.950 . S
C467 C464 1.387 . S
C468 C469 1.387 . S
C468 H472 0.950 . S
C468 C477 1.390 . S
C469 C468 1.387 . S
C469 C471 1.387 . S
H470 C477 0.950 . S
C471 C469 1.387 . S
C471 C473 1.390 . S
C471 H475 0.950 . S
H472 C468 0.950 . S
C473 C471 1.390 . S
C473 C474 1.387 . S
C473 H476 0.950 . S
C474 C473 1.387 . S
C474 C477 1.387 . S
H475 C471 0.950 . S
H476 C473 0.950 . S
C477 C468 1.390 . S
C477 H470 0.950 . S
C477 C474 1.387 . S
C478 C479 1.387 . S
C478 H482 0.950 . S
C478 C487 1.390 . S
C479 C478 1.387 . S
C479 C481 1.387 . S
H480 C487 0.950 . S
C481 C479 1.387 . S
C481 C483 1.390 . S
C481 H485 0.950 . S
H482 C478 0.950 . S
C483 C481 1.390 . S
C483 C484 1.387 . S
C483 H486 0.950 . S
C484 C483 1.387 . S
C484 C487 1.387 . S
H485 C481 0.950 . S
H486 C483 0.950 . S
C487 C478 1.390 . S
C487 H480 0.950 . S
C487 C484 1.387 . S
C488 C489 1.387 . S
C488 H492 0.950 . S
C488 C497 1.390 . S
C489 C488 1.387 . S
C489 C491 1.387 . S
H490 C497 0.950 . S
C491 C489 1.387 . S
C491 C493 1.390 . S
C491 H495 0.950 . S
H492 C488 0.950 . S
C493 C491 1.390 . S
C493 C494 1.387 . S
C493 H496 0.950 . S
C494 C493 1.387 . S
C494 C497 1.387 . S
H495 C491 0.950 . S
H496 C493 0.950 . S
C497 C488 1.390 . S
C497 H490 0.950 . S
C497 C494 1.387 . S
C498 C499 1.387 . S
C498 H502 0.950 . S
C498 C507 1.390 . S
C499 C498 1.387 . S
C499 C501 1.387 . S
H500 C507 0.950 . S
C501 C499 1.387 . S
C501 C503 1.390 . S
C501 H505 0.950 . S
H502 C498 0.950 . S
C503 C501 1.390 . S
C503 C504 1.387 . S
C503 H506 0.950 . S
C504 C503 1.387 . S
C504 C507 1.387 . S
H505 C501 0.950 . S
H506 C503 0.950 . S
C507 C498 1.390 . S
C507 H500 0.950 . S
C507 C504 1.387 . S
C508 C509 1.387 . S
C508 H512 0.950 . S
C508 C517 1.390 . S
C509 C508 1.387 . S
C509 C511 1.387 . S
H510 C517 0.950 . S
C511 C509 1.387 . S
C511 C513 1.390 . S
C511 H515 0.950 . S
H512 C508 0.950 . S
C513 C511 1.390 . S
C513 C514 1.387 . S
C513 H516 0.950 . S
C514 C513 1.387 . S
C514 C517 1.387 . S
H515 C511 0.950 . S
H516 C513 0.950 . S
C517 C508 1.390 . S
C517 H510 0.950 . S
C517 C514 1.387 . S
C518 C519 1.387 . S
C518 H522 0.950 . S
C518 C527 1.390 . S
C519 C518 1.387 . S
C519 C521 1.387 . S
H520 C527 0.950 . S
C521 C519 1.387 . S
C521 C523 1.390 . S
C521 H525 0.950 . S
H522 C518 0.950 . S
C523 C521 1.390 . S
C523 C524 1.387 . S
C523 H526 0.950 . S
C524 C523 1.387 . S
C524 C527 1.387 . S
H525 C521 0.950 . S
H526 C523 0.950 . S
C527 C518 1.390 . S
C527 H520 0.950 . S
C527 C524 1.387 . S
C528 C529 1.387 . S
C528 H532 0.950 . S
C528 C537 1.390 . S
C529 C528 1.387 . S
C529 C531 1.387 . S
H530 C537 0.950 . S
C531 C529 1.387 . S
C531 C533 1.390 . S
C531 H535 0.950 . S
H532 C528 0.950 . S
C533 C531 1.390 . S
C533 C534 1.387 . S
C533 H536 0.950 . S
C534 C533 1.387 . S
C534 C537 1.387 . S
H535 C531 0.950 . S
H536 C533 0.950 . S
C537 C528 1.390 . S
C537 H530 0.950 . S
C537 C534 1.387 . S
C538 C539 1.387 . S
C538 H542 0.950 . S
C538 C547 1.390 . S
C539 C538 1.387 . S
C539 C541 1.387 . S
H540 C547 0.950 . S
C541 C539 1.387 . S
C541 C543 1.390 . S
C541 H545 0.950 . S
H542 C538 0.950 . S
C543 C541 1.390 . S
C543 C544 1.387 . S
C543 H546 0.950 . S
C544 C543 1.387 . S
C544 C547 1.387 . S
H545 C541 0.950 . S
H546 C543 0.950 . S
C547 C538 1.390 . S
C547 H540 0.950 . S
C547 C544 1.387 . S
C548 C549 1.387 . S
C548 H552 0.950 . S
C548 C557 1.390 . S
C549 C548 1.387 . S
C549 C551 1.387 . S
H550 C557 0.950 . S
C551 C549 1.387 . S
C551 C553 1.390 . S
C551 H555 0.950 . S
H552 C548 0.950 . S
C553 C551 1.390 . S
C553 C554 1.387 . S
C553 H556 0.950 . S
C554 C553 1.387 . S
C554 C557 1.387 . S
H555 C551 0.950 . S
H556 C553 0.950 . S
C557 C548 1.390 . S
C557 H550 0.950 . S
C557 C554 1.387 . S
C558 C559 1.387 . S
C558 H562 0.950 . S
C558 C567 1.390 . S
C559 C558 1.387 . S
C559 C561 1.387 . S
H560 C567 0.950 . S
C561 C559 1.387 . S
C561 C563 1.390 . S
C561 H565 0.950 . S
H562 C558 0.950 . S
C563 C561 1.390 . S
C563 C564 1.387 . S
C563 H566 0.950 . S
C564 C563 1.387 . S
C564 C567 1.387 . S
H565 C561 0.950 . S
H566 C563 0.950 . S
C567 C558 1.390 . S
C567 H560 0.950 . S
C567 C564 1.387 . S
C568 C569 1.387 . S
C568 H572 0.950 . S
C568 C577 1.390 . S
C569 C568 1.387 . S
C569 C571 1.387 . S
H570 C577 0.950 . S
C571 C569 1.387 . S
C571 C573 1.390 . S
C571 H575 0.950 . S
H572 C568 0.950 . S
C573 C571 1.390 . S
C573 C574 1.387 . S
C573 H576 0.950 . S
C574 C573 1.387 . S
C574 C577 1.387 . S
H575 C571 0.950 . S
H576 C573 0.950 . S
C577 C568 1.390 . S
C577 H570 0.950 . S
C577 C574 1.387 . S
C578 C579 1.387 . S
C578 H582 0.950 . S
C578 C587 1.390 . S
C579 C578 1.387 . S
C579 C581 1.387 . S
H580 C587 0.950 . S
C581 C579 1.387 . S
C581 C583 1.390 . S
C581 H585 0.950 . S
H582 C578 0.950 . S
C583 C581 1.390 . S
C583 C584 1.387 . S
C583 H586 0.950 . S
C584 C583 1.387 . S
C584 C587 1.387 . S
H585 C581 0.950 . S
H586 C583 0.950 . S
C587 C578 1.390 . S
C587 H580 0.950 . S
C587 C584 1.387 . S
C588 C589 1.387 . S
C588 H592 0.950 . S
C588 C597 1.390 . S
C589 C588 1.387 . S
C589 C591 1.387 . S
H590 C597 0.950 . S
C591 C589 1.387 . S
C591 C593 1.390 . S
C591 H595 0.950 . S
H592 C588 0.950 . S
C593 C591 1.390 . S
C593 C594 1.387 . S
C593 H596 0.950 . S
C594 C593 1.387 . S
C594 C597 1.387 . S
H595 C591 0.950 . S
H596 C593 0.950 . S
C597 C588 1.390 . S
C597 H590 0.950 . S
C597 C594 1.387 . S
C598 C599 1.387 . S
C598 H602 0.950 . S
C598 C607 1.390 . S
C599 C598 1.387 . S
C599 C601 1.387 . S
H600 C607 0.950 . S
C601 C599 1.387 . S
C601 C603 1.390 . S
C601 H605 0.950 . S
H602 C598 0.950 . S
C603 C601 1.390 . S
C603 C604 1.387 . S
C603 H606 0.950 . S
C604 C603 1.387 . S
C604 C607 1.387 . S
H605 C601 0.950 . S
H606 C603 0.950 . S
C607 C598 1.390 . S
C607 H600 0.950 . S
C607 C604 1.387 . S
C608 C609 1.387 . S
C608 H612 0.950 . S
C608 C617 1.390 . S
C609 C608 1.387 . S
C609 C611 1.387 . S
H610 C617 0.950 . S
C611 C609 1.387 . S
C611 C613 1.390 . S
C611 H615 0.950 . S
H612 C608 0.950 . S
C613 C611 1.390 . S
C613 C614 1.387 . S
C613 H616 0.950 . S
C614 C613 1.387 . S
C614 C617 1.387 . S
H615 C611 0.950 . S
H616 C613 0.950 . S
C617 C608 1.390 . S
C617 H610 0.950 . S
C617 C614 1.387 . S
C618 C619 1.387 . S
C618 H622 0.950 . S
C618 C627 1.390 . S
C619 C618 1.387 . S
C619 C621 1.387 . S
H620 C627 0.950 . S
C621 C619 1.387 . S
C621 C623 1.390 . S
C621 H625 0.950 . S
H622 C618 0.950 . S
C623 C621 1.390 . S
C623 C624 1.387 . S
C623 H626 0.950 . S
C624 C623 1.387 . S
C624 C627 1.387 . S
H625 C621 0.950 . S
H626 C623 0.950 . S
C627 C618 1.390 . S
C627 H620 0.950 . S
C627 C624 1.387 . S
C628 C629 1.387 . S
C628 H632 0.950 . S
C628 C637 1.390 . S
C629 C628 1.387 . S
C629 C631 1.387 . S
H630 C637 0.950 . S
C631 C629 1.387 . S
C631 C633 1.390 . S
C631 H635 0.950 . S
H632 C628 0.950 . S
C633 C631 1.390 . S
C633 C634 1.387 . S
C633 H636 0.950 . S
C634 C633 1.387 . S
C634 C637 1.387 . S
H635 C631 0.950 . S
H636 C633 0.950 . S
C637 C628 1.390 . S
C637 H630 0.950 . S
C637 C634 1.387 . S
C638 C639 1.387 . S
C638 H642 0.950 . S
C638 C647 1.390 . S
C639 C638 1.387 . S
C639 C641 1.387 . S
H640 C647 0.950 . S
C641 C639 1.387 . S
C641 C643 1.390 . S
C641 H645 0.950 . S
H642 C638 0.950 . S
C643 C641 1.390 . S
C643 C644 1.387 . S
C643 H646 0.950 . S
C644 C643 1.387 . S
C644 C647 1.387 . S
H645 C641 0.950 . S
H646 C643 0.950 . S
C647 C638 1.390 . S
C647 H640 0.950 . S
C647 C644 1.387 . S
C648 C649 1.387 . S
C648 H652 0.950 . S
C648 C657 1.390 . S
C649 C648 1.387 . S
C649 C651 1.387 . S
H650 C657 0.950 . S
C651 C649 1.387 . S
C651 C653 1.390 . S
C651 H655 0.950 . S
H652 C648 0.950 . S
C653 C651 1.390 . S
C653 C654 1.387 . S
C653 H656 0.950 . S
C654 C653 1.387 . S
C654 C657 1.387 . S
H655 C651 0.950 . S
H656 C653 0.950 . S
C657 C648 1.390 . S
C657 H650 0.950 . S
C657 C654 1.387 . S
C658 C659 1.387 . S
C658 H662 0.950 . S
C658 C667 1.390 . S
C659 C658 1.387 . S
C659 C661 1.387 . S
H660 C667 0.950 . S
C661 C659 1.387 . S
C661 C663 1.390 . S
C661 H665 0.950 . S
H662 C658 0.950 . S
C663 C661 1.390 . S
C663 C664 1.387 . S
C663 H666 0.950 . S
C664 C663 1.387 . S
C664 C667 1.387 . S
H665 C661 0.950 . S
H666 C663 0.950 . S
C667 C658 1.390 . S
C667 H660 0.950 . S
C667 C664 1.387 . S
C668 C669 1.387 . S
C668 H672 0.950 . S
C668 C677 1.390 . S
C669 C668 1.387 . S
C669 C671 1.387 . S
H670 C677 0.950 . S
C671 C669 1.387 . S
C671 C673 1.390 . S
C671 H675 0.950 . S
H672 C668 0.950 . S
C673 C671 1.390 . S
C673 C674 1.387 . S
C673 H676 0.950 . S
C674 C673 1.387 . S
C674 C677 1.387 . S
H675 C671 0.950 . S
H676 C673 0.950 . S
C677 C668 1.390 . S
C677 H670 0.950 . S
C677 C674 1.387 . S
C678 C679 1.387 . S
C678 H682 0.950 . S
C678 C687 1.390 . S
C679 C678 1.387 . S
C679 C681 1.387 . S
H680 C687 0.950 . S
C681 C679 1.387 . S
C681 C683 1.390 . S
C681 H685 0.950 . S
H682 C678 0.950 . S
C683 C681 1.390 . S
C683 C684 1.387 . S
C683 H686 0.950 . S
C684 C683 1.387 . S
C684 C687 1.387 . S
H685 C681 0.950 . S
H686 C683 0.950 . S
C687 C678 1.390 . S
C687 H680 0.950 . S
C687 C684 1.387 . S
C688 C689 1.387 . S
C688 H692 0.950 . S
C688 C697 1.390 . S
C689 C688 1.387 . S
C689 C691 1.387 . S
H690 C697 0.950 . S
C691 C689 1.387 . S
C691 C693 1.390 . S
C691 H695 0.950 . S
H692 C688 0.950 . S
C693 C691 1.390 . S
C693 C694 1.387 . S
C693 H696 0.950 . S
C694 C693 1.387 . S
C694 C697 1.387 . S
H695 C691 0.950 . S
H696 C693 0.950 . S
C697 C688 1.390 . S
C697 H690 0.950 . S
C697 C694 1.387 . S
C698 C699 1.387 . S
C698 H702 0.950 . S
C698 C707 1.390 . S
C699 C698 1.387 . S
C699 C701 1.387 . S
H700 C707 0.950 . S
C701 C699 1.387 . S
C701 C703 1.390 . S
C701 H705 0.950 . S
H702 C698 0.950 . S
C703 C701 1.390 . S
C703 C704 1.387 . S
C703 H706 0.950 . S
C704 C703 1.387 . S
C704 C707 1.387 . S
H705 C701 0.950 . S
H706 C703 0.950 . S
C707 C698 1.390 . S
C707 H700 0.950 . S
C707 C704 1.387 . S
C708 C709 1.387 . S
C708 H712 0.950 . S
C708 C717 1.390 . S
C709 C708 1.387 . S
C709 C711 1.387 . S
H710 C717 0.950 . S
C711 C709 1.387 . S
C711 C713 1.390 . S
C711 H715 0.950 . S
H712 C708 0.950 . S
C713 C711 1.390 . S
C713 C714 1.387 . S
C713 H716 0.950 . S
C714 C713 1.387 . S
C714 C717 1.387 . S
H715 C711 0.950 . S
H716 C713 0.950 . S
C717 C708 1.390 . S
C717 H710 0.950 . S
C717 C714 1.387 . S
C718 C719 1.387 . S
C718 H722 0.950 . S
C718 C727 1.390 . S
C719 C718 1.387 . S
C719 C721 1.387 . S
H720 C727 0.950 . S
C721 C719 1.387 . S
C721 C723 1.390 . S
C721 H725 0.950 . S
H722 C718 0.950 . S
C723 C721 1.390 . S
C723 C724 1.387 . S
C723 H726 0.950 . S
C724 C723 1.387 . S
C724 C727 1.387 . S
H725 C721 0.950 . S
H726 C723 0.950 . S
C727 C718 1.390 . S
C727 H720 0.950 . S
C727 C724 1.387 . S
C728 C729 1.387 . S
C728 H732 0.950 . S
C728 C737 1.390 . S
C729 C728 1.387 . S
C729 C731 1.387 . S
H730 C737 0.950 . S
C731 C729 1.387 . S
C731 C733 1.390 . S
C731 H735 0.950 . S
H732 C728 0.950 . S
C733 C731 1.390 . S
C733 C734 1.387 . S
C733 H736 0.950 . S
C734 C733 1.387 . S
C734 C737 1.387 . S
H735 C731 0.950 . S
H736 C733 0.950 . S
C737 C728 1.390 . S
C737 H730 0.950 . S
C737 C734 1.387 . S
C738 C739 1.387 . S
C738 H742 0.950 . S
C738 C747 1.390 . S
C739 C738 1.387 . S
C739 C741 1.387 . S
H740 C747 0.950 . S
C741 C739 1.387 . S
C741 C743 1.390 . S
C741 H745 0.950 . S
H742 C738 0.950 . S
C743 C741 1.390 . S
C743 C744 1.387 . S
C743 H746 0.950 . S
C744 C743 1.387 . S
C744 C747 1.387 . S
H745 C741 0.950 . S
H746 C743 0.950 . S
C747 C738 1.390 . S
C747 H740 0.950 . S
C747 C744 1.387 . S
C748 C749 1.387 . S
C748 H752 0.950 . S
C748 C757 1.390 . S
C749 C748 1.387 . S
C749 C751 1.387 . S
H750 C757 0.950 . S
C751 C749 1.387 . S
C751 C753 1.390 . S
C751 H755 0.950 . S
H752 C748 0.950 . S
C753 C751 1.390 . S
C753 C754 1.387 . S
C753 H756 0.950 . S
C754 C753 1.387 . S
C754 C757 1.387 . S
H755 C751 0.950 . S
H756 C753 0.950 . S
C757 C748 1.390 . S
C757 H750 0.950 . S
C757 C754 1.387 . S
C758 C759 1.387 . S
C758 H762 0.950 . S
C758 C767 1.390 . S
C759 C758 1.387 . S
C759 C761 1.387 . S
H760 C767 0.950 . S
C761 C759 1.387 . S
C761 C763 1.390 . S
C761 H765 0.950 . S
H762 C758 0.950 . S
C763 C761 1.390 . S
C763 C764 1.387 . S
C763 H766 0.950 . S
C764 C763 1.387 . S
C764 C767 1.387 . S
H765 C761 0.950 . S
H766 C763 0.950 . S
C767 C758 1.390 . S
C767 H760 0.950 . S
C767 C764 1.387 . S
C768 C769 1.387 . S
C768 H772 0.950 . S
C768 C777 1.390 . S
C769 C768 1.387 . S
C769 C771 1.387 . S
H770 C777 0.950 . S
C771 C769 1.387 . S
C771 C773 1.390 . S
C771 H775 0.950 . S
H772 C768 0.950 . S
C773 C771 1.390 . S
C773 C774 1.387 . S
C773 H776 0.950 . S
C774 C773 1.387 . S
C774 C777 1.387 . S
H775 C771 0.950 . S
H776 C773 0.950 . S
C777 C768 1.390 . S
C777 H770 0.950 . S
C777 C774 1.387 . S
C778 C779 1.387 . S
C778 H782 0.950 . S
C778 C787 1.390 . S
C779 C778 1.387 . S
C779 C781 1.387 . S
H780 C787 0.950 . S
C781 C779 1.387 . S
C781 C783 1.390 . S
C781 H785 0.950 . S
H782 C778 0.950 . S
C783 C781 1.390 . S
C783 C784 1.387 . S
C783 H786 0.950 . S
C784 C783 1.387 . S
C784 C787 1.387 . S
H785 C781 0.950 . S
H786 C783 0.950 . S
C787 C778 1.390 . S
C787 H780 0.950 . S
C787 C784 1.387 . S
C788 C789 1.387 . S
C788 H792 0.950 . S
C788 C797 1.390 . S
C789 C788 1.387 . S
C789 C791 1.387 . S
H790 C797 0.950 . S
C791 C789 1.387 . S
C791 C793 1.390 . S
C791 H795 0.950 . S
H792 C788 0.950 . S
C793 C791 1.390 . S
C793 C794 1.387 . S
C793 H796 0.950 . S
C794 C793 1.387 . S
C794 C797 1.387 . S
H795 C791 0.950 . S
H796 C793 0.950 . S
C797 C788 1.390 . S
C797 H790 0.950 . S
C797 C794 1.387 . S
C798 C799 1.387 . S
C798 H802 0.950 . S
C798 C807 1.390 . S
C799 C798 1.387 . S
C799 C801 1.387 . S
H800 C807 0.950 . S
C801 C799 1.387 . S
C801 C803 1.390 . S
C801 H805 0.950 . S
H802 C798 0.950 . S
C803 C801 1.390 . S
C803 C804 1.387 . S
C803 H806 0.950 . S
C804 C803 1.387 . S
C804 C807 1.387 . S
H805 C801 0.950 . S
H806 C803 0.950 . S
C807 C798 1.390 . S
C807 H800 0.950 . S
C807 C804 1.387 . S
C808 C809 1.387 . S
C808 H812 0.950 . S
C808 C817 1.390 . S
C809 C808 1.387 . S
C809 C811 1.387 . S
H810 C817 0.950 . S
C811 C809 1.387 . S
C811 C813 1.390 . S
C811 H815 0.950 . S
H812 C808 0.950 . S
C813 C811 1.390 . S
C813 C814 1.387 . S
C813 H816 0.950 . S
C814 C813 1.387 . S
C814 C817 1.387 . S
H815 C811 0.950 . S
H816 C813 0.950 . S
C817 C808 1.390 . S
C817 H810 0.950 . S
C817 C814 1.387 . S
C818 C819 1.387 . S
C818 H822 0.950 . S
C818 C827 1.390 . S
C819 C818 1.387 . S
C819 C821 1.387 . S
H820 C827 0.950 . S
C821 C819 1.387 . S
C821 C823 1.390 . S
C821 H825 0.950 . S
H822 C818 0.950 . S
C823 C821 1.390 . S
C823 C824 1.387 . S
C823 H826 0.950 . S
C824 C823 1.387 . S
C824 C827 1.387 . S
H825 C821 0.950 . S
H826 C823 0.950 . S
C827 C818 1.390 . S
C827 H820 0.950 . S
C827 C824 1.387 . S
C828 C829 1.387 . S
C828 H832 0.950 . S
C828 C837 1.390 . S
C829 C828 1.387 . S
C829 C831 1.387 . S
H830 C837 0.950 . S
C831 C829 1.387 . S
C831 C833 1.390 . S
C831 H835 0.950 . S
H832 C828 0.950 . S
C833 C831 1.390 . S
C833 C834 1.387 . S
C833 H836 0.950 . S
C834 C833 1.387 . S
C834 C837 1.387 . S
H835 C831 0.950 . S
H836 C833 0.950 . S
C837 C828 1.390 . S
C837 H830 0.950 . S
C837 C834 1.387 . S
C838 C839 1.387 . S
C838 H842 0.950 . S
C838 C847 1.390 . S
C839 C838 1.387 . S
C839 C841 1.387 . S
H840 C847 0.950 . S
C841 C839 1.387 . S
C841 C843 1.390 . S
C841 H845 0.950 . S
H842 C838 0.950 . S
C843 C841 1.390 . S
C843 C844 1.387 . S
C843 H846 0.950 . S
C844 C843 1.387 . S
C844 C847 1.387 . S
H845 C841 0.950 . S
H846 C843 0.950 . S
C847 C838 1.390 . S
C847 H840 0.950 . S
C847 C844 1.387 . S
C848 C849 1.387 . S
C848 H852 0.950 . S
C848 C857 1.390 . S
C849 C848 1.387 . S
C849 C851 1.387 . S
H850 C857 0.950 . S
C851 C849 1.387 . S
C851 C853 1.390 . S
C851 H855 0.950 . S
H852 C848 0.950 . S
C853 C851 1.390 . S
C853 C854 1.387 . S
C853 H856 0.950 . S
C854 C853 1.387 . S
C854 C857 1.387 . S
H855 C851 0.950 . S
H856 C853 0.950 . S
C857 C848 1.390 . S
C857 H850 0.950 . S
C857 C854 1.387 . S
C858 C859 1.387 . S
C858 H862 0.950 . S
C858 C867 1.390 . S
C859 C858 1.387 . S
C859 C861 1.387 . S
H860 C867 0.950 . S
C861 C859 1.387 . S
C861 C863 1.390 . S
C861 H865 0.950 . S
H862 C858 0.950 . S
C863 C861 1.390 . S
C863 C864 1.387 . S
C863 H866 0.950 . S
C864 C863 1.387 . S
C864 C867 1.387 . S
H865 C861 0.950 . S
H866 C863 0.950 . S
C867 C858 1.390 . S
C867 H860 0.950 . S
C867 C864 1.387 . S
C868 C869 1.387 . S
C868 H872 0.950 . S
C868 C877 1.390 . S
C869 C868 1.387 . S
C869 C871 1.387 . S
H870 C877 0.950 . S
C871 C869 1.387 . S
C871 C873 1.390 . S
C871 H875 0.950 . S
H872 C868 0.950 . S
C873 C871 1.390 . S
C873 C874 1.387 . S
C873 H876 0.950 . S
C874 C873 1.387 . S
C874 C877 1.387 . S
H875 C871 0.950 . S
H876 C873 0.950 . S
C877 C868 1.390 . S
C877 H870 0.950 . S
C877 C874 1.387 . S
C878 C879 1.387 . S
C878 H882 0.950 . S
C878 C887 1.390 . S
C879 C878 1.387 . S
C879 C881 1.387 . S
H880 C887 0.950 1_455 S
C881 C879 1.387 . S
C881 C883 1.390 . S
C881 H885 0.950 . S
H882 C878 0.950 . S
C883 C881 1.390 . S
C883 C884 1.387 . S
C883 H886 0.950 . S
C884 C883 1.387 . S
C884 C887 1.387 . S
H885 C881 0.950 . S
H886 C883 0.950 . S
C887 C878 1.390 . S
C887 H880 0.950 1_655 S
C887 C884 1.387 . S
C888 C889 1.387 . S
C888 H892 0.950 . S
C888 C897 1.390 . S
C889 C888 1.387 . S
C889 C891 1.387 . S
H890 C897 0.950 . S
C891 C889 1.387 . S
C891 C893 1.390 . S
C891 H895 0.950 . S
H892 C888 0.950 . S
C893 C891 1.390 . S
C893 C894 1.387 . S
C893 H896 0.950 . S
C894 C893 1.387 . S
C894 C897 1.387 . S
H895 C891 0.950 . S
H896 C893 0.950 . S
C897 C888 1.390 . S
C897 H890 0.950 . S
C897 C894 1.387 . S
C898 C899 1.387 . S
C898 H902 0.950 . S
C898 C907 1.390 . S
C899 C898 1.387 . S
C899 C901 1.387 . S
H900 C907 0.950 . S
C901 C899 1.387 . S
C901 C903 1.390 . S
C901 H905 0.950 . S
H902 C898 0.950 . S
C903 C901 1.390 . S
C903 C904 1.387 . S
C903 H906 0.950 . S
C904 C903 1.387 . S
C904 C907 1.387 . S
H905 C901 0.950 . S
H906 C903 0.950 . S
C907 C898 1.390 . S
C907 H900 0.950 . S
C907 C904 1.387 . S
C908 C909 1.387 . S
C908 H912 0.950 . S
C908 C917 1.390 . S
C909 C908 1.387 . S
C909 C911 1.387 . S
H910 C917 0.950 . S
C911 C909 1.387 . S
C911 C913 1.390 . S
C911 H915 0.950 . S
H912 C908 0.950 . S
C913 C911 1.390 . S
C913 C914 1.387 . S
C913 H916 0.950 . S
C914 C913 1.387 . S
C914 C917 1.387 . S
H915 C911 0.950 . S
H916 C913 0.950 . S
C917 C908 1.390 . S
C917 H910 0.950 . S
C917 C914 1.387 . S
C918 C919 1.387 . S
C918 H922 0.950 . S
C918 C927 1.390 . S
C919 C918 1.387 . S
C919 C921 1.387 . S
H920 C927 0.950 . S
C921 C919 1.387 . S
C921 C923 1.390 . S
C921 H925 0.950 . S
H922 C918 0.950 . S
C923 C921 1.390 . S
C923 C924 1.387 . S
C923 H926 0.950 . S
C924 C923 1.387 . S
C924 C927 1.387 . S
H925 C921 0.950 . S
H926 C923 0.950 . S
C927 C918 1.390 . S
C927 H920 0.950 . S
C927 C924 1.387 . S
C928 C929 1.387 . S
C928 H932 0.950 . S
C928 C937 1.390 . S
C929 C928 1.387 . S
C929 C931 1.387 . S
H930 C937 0.950 . S
C931 C929 1.387 . S
C931 C933 1.390 . S
C931 H935 0.950 . S
H932 C928 0.950 . S
C933 C931 1.390 . S
C933 C934 1.387 . S
C933 H936 0.950 . S
C934 C933 1.387 . S
C934 C937 1.387 . S
H935 C931 0.950 . S
H936 C933 0.950 . S
C937 C928 1.390 . S
C937 H930 0.950 . S
C937 C934 1.387 . S
C938 C939 1.387 . S
C938 H942 0.950 . S
C938 C947 1.390 . S
C939 C938 1.387 . S
C939 C941 1.387 . S
H940 C947 0.950 . S
C941 C939 1.387 . S
C941 C943 1.390 . S
C941 H945 0.950 . S
H942 C938 0.950 . S
C943 C941 1.390 . S
C943 C944 1.387 . S
C943 H946 0.950 . S
C944 C943 1.387 . S
C944 C947 1.387 . S
H945 C941 0.950 . S
H946 C943 0.950 . S
C947 C938 1.390 . S
C947 H940 0.950 . S
C947 C944 1.387 . S
C948 C949 1.387 . S
C948 H952 0.950 . S
C948 C957 1.390 . S
C949 C948 1.387 . S
C949 C951 1.387 . S
H950 C957 0.950 . S
C951 C949 1.387 . S
C951 C953 1.390 . S
C951 H955 0.950 . S
H952 C948 0.950 . S
C953 C951 1.390 . S
C953 C954 1.387 . S
C953 H956 0.950 . S
C954 C953 1.387 . S
C954 C957 1.387 . S
H955 C951 0.950 . S
H956 C953 0.950 . S
C957 C948 1.390 . S
C957 H950 0.950 . S
C957 C954 1.387 . S
C958 C959 1.387 . S
C958 H962 0.950 . S
C958 C967 1.390 1_556 S
C959 C958 1.387 . S
C959 C961 1.387 . S
H960 C967 0.950 . S
C961 C959 1.387 . S
C961 C963 1.390 1_556 S
C961 H965 0.950 . S
H962 C958 0.950 . S
C963 C961 1.390 1_554 S
C963 C964 1.387 . S
C963 H966 0.950 . S
C964 C963 1.387 . S
C964 C967 1.387 . S
H965 C961 0.950 . S
H966 C963 0.950 . S
C967 C958 1.390 1_554 S
C967 H960 0.950 . S
C967 C964 1.387 . S
C968 C969 1.387 . S
C968 H972 0.950 . S
C968 C977 1.390 . S
C969 C968 1.387 . S
C969 C971 1.387 . S
H970 C977 0.950 . S
C971 C969 1.387 . S
C971 C973 1.390 . S
C971 H975 0.950 . S
H972 C968 0.950 . S
C973 C971 1.390 . S
C973 C974 1.387 . S
C973 H976 0.950 . S
C974 C973 1.387 . S
C974 C977 1.387 . S
H975 C971 0.950 . S
H976 C973 0.950 . S
C977 C968 1.390 . S
C977 H970 0.950 . S
C977 C974 1.387 . S
C978 C979 1.387 . S
C978 H982 0.950 . S
C978 C987 1.390 . S
C979 C978 1.387 . S
C979 C981 1.387 . S
H980 C987 0.950 . S
C981 C979 1.387 . S
C981 C983 1.390 . S
C981 H985 0.950 . S
H982 C978 0.950 . S
C983 C981 1.390 . S
C983 C984 1.387 . S
C983 H986 0.950 . S
C984 C983 1.387 . S
C984 C987 1.387 . S
H985 C981 0.950 . S
H986 C983 0.950 . S
C987 C978 1.390 . S
C987 H980 0.950 . S
C987 C984 1.387 . S
C988 C989 1.387 . S
C988 H992 0.950 . S
C988 C997 1.390 . S
C989 C988 1.387 . S
C989 C991 1.387 . S
H990 C997 0.950 . S
C991 C989 1.387 . S
C991 C993 1.390 . S
C991 H995 0.950 . S
H992 C988 0.950 . S
C993 C991 1.390 . S
C993 C994 1.387 . S
C993 H996 0.950 . S
C994 C993 1.387 . S
C994 C997 1.387 . S
H995 C991 0.950 . S
H996 C993 0.950 . S
C997 C988 1.390 . S
C997 H990 0.950 . S
C997 C994 1.387 . S
C998 C999 1.387 . S
C998 H1002 0.950 . S
C998 C1007 1.390 1_554 S
C999 C998 1.387 . S
C999 C1001 1.387 . S
H1000 C1007 0.950 . S
C1001 C999 1.387 . S
C1001 C1003 1.390 1_554 S
C1001 H1005 0.950 . S
H1002 C998 0.950 . S
C1003 C1001 1.390 1_556 S
C1003 C1004 1.387 . S
C1003 H1006 0.950 . S
C1004 C1003 1.387 . S
C1004 C1007 1.387 . S
H1005 C1001 0.950 . S
H1006 C1003 0.950 . S
C1007 C998 1.390 1_556 S
C1007 H1000 0.950 . S
C1007 C1004 1.387 . S
C1008 C1009 1.387 . S
C1008 H1012 0.950 . S
C1008 C1017 1.390 1_565 S
C1009 C1008 1.387 . S
C1009 C1011 1.387 . S
H1010 C1017 0.950 . S
C1011 C1009 1.387 . S
C1011 C1013 1.390 1_565 S
C1011 H1015 0.950 . S
H1012 C1008 0.950 . S
C1013 C1011 1.390 1_545 S
C1013 C1014 1.387 . S
C1013 H1016 0.950 . S
C1014 C1013 1.387 . S
C1014 C1017 1.387 . S
H1015 C1011 0.950 . S
H1016 C1013 0.950 . S
C1017 C1008 1.390 1_545 S
C1017 H1010 0.950 . S
C1017 C1014 1.387 . S
C1018 C1019 1.387 . S
C1018 H1022 0.950 . S
C1018 C1027 1.390 1_554 S
C1019 C1018 1.387 . S
C1019 C1021 1.387 . S
H1020 C1027 0.950 . S
C1021 C1019 1.387 . S
C1021 C1023 1.390 1_554 S
C1021 H1025 0.950 . S
H1022 C1018 0.950 . S
C1023 C1021 1.390 1_556 S
C1023 C1024 1.387 . S
C1023 H1026 0.950 . S
C1024 C1023 1.387 . S
C1024 C1027 1.387 . S
H1025 C1021 0.950 . S
H1026 C1023 0.950 . S
C1027 C1018 1.390 1_556 S
C1027 H1020 0.950 . S
C1027 C1024 1.387 . S
C1028 C1029 1.387 . S
C1028 H1032 0.950 . S
C1028 C1037 1.390 1_545 S
C1029 C1028 1.387 . S
C1029 C1031 1.387 . S
H1030 C1037 0.950 . S
C1031 C1029 1.387 . S
C1031 C1033 1.390 1_545 S
C1031 H1035 0.950 . S
H1032 C1028 0.950 . S
C1033 C1031 1.390 1_565 S
C1033 C1034 1.387 . S
C1033 H1036 0.950 . S
C1034 C1033 1.387 . S
C1034 C1037 1.387 . S
H1035 C1031 0.950 . S
H1036 C1033 0.950 . S
C1037 C1028 1.390 1_565 S
C1037 H1030 0.950 . S
C1037 C1034 1.387 . S
C1038 C1039 1.387 . S
C1038 H1042 0.950 . S
C1038 C1047 1.390 . S
C1039 C1038 1.387 . S
C1039 C1041 1.387 . S
H1040 C1047 0.950 . S
C1041 C1039 1.387 . S
C1041 C1043 1.390 . S
C1041 H1045 0.950 . S
H1042 C1038 0.950 . S
C1043 C1041 1.390 . S
C1043 C1044 1.387 . S
C1043 H1046 0.950 . S
C1044 C1043 1.387 . S
C1044 C1047 1.387 . S
H1045 C1041 0.950 . S
H1046 C1043 0.950 . S
C1047 C1038 1.390 . S
C1047 H1040 0.950 . S
C1047 C1044 1.387 . S
C1048 C1049 1.387 . S
C1048 H1052 0.950 . S
C1048 C1057 1.390 1_545 S
C1049 C1048 1.387 . S
C1049 C1051 1.387 . S
H1050 C1057 0.950 . S
C1051 C1049 1.387 . S
C1051 C1053 1.390 1_545 S
C1051 H1055 0.950 . S
H1052 C1048 0.950 . S
C1053 C1051 1.390 1_565 S
C1053 C1054 1.387 . S
C1053 H1056 0.950 . S
C1054 C1053 1.387 . S
C1054 C1057 1.387 . S
H1055 C1051 0.950 . S
H1056 C1053 0.950 . S
C1057 C1048 1.390 1_565 S
C1057 H1050 0.950 . S
C1057 C1054 1.387 . S
C1058 C1059 1.387 . S
C1058 H1062 0.950 . S
C1058 C1067 1.390 1_554 S
C1059 C1058 1.387 . S
C1059 C1061 1.387 . S
H1060 C1067 0.950 . S
C1061 C1059 1.387 . S
C1061 C1063 1.390 1_554 S
C1061 H1065 0.950 . S
H1062 C1058 0.950 . S
C1063 C1061 1.390 1_556 S
C1063 C1064 1.387 . S
C1063 H1066 0.950 . S
C1064 C1063 1.387 . S
C1064 C1067 1.387 . S
H1065 C1061 0.950 . S
H1066 C1063 0.950 . S
C1067 C1058 1.390 1_556 S
C1067 H1060 0.950 . S
C1067 C1064 1.387 . S
C1068 C1069 1.387 . S
C1068 H1072 0.950 . S
C1068 C1077 1.390 1_545 S
C1069 C1068 1.387 . S
C1069 C1071 1.387 . S
H1070 C1077 0.950 . S
C1071 C1069 1.387 . S
C1071 C1073 1.390 1_545 S
C1071 H1075 0.950 . S
H1072 C1068 0.950 . S
C1073 C1071 1.390 1_565 S
C1073 C1074 1.387 . S
C1073 H1076 0.950 . S
C1074 C1073 1.387 . S
C1074 C1077 1.387 . S
H1075 C1071 0.950 . S
H1076 C1073 0.950 . S
C1077 C1068 1.390 1_565 S
C1077 H1070 0.950 . S
C1077 C1074 1.387 . S
C1078 C1079 1.387 . S
C1078 H1082 0.950 . S
C1078 C1087 1.390 . S
C1079 C1078 1.387 . S
C1079 C1081 1.387 . S
H1080 C1087 0.950 . S
C1081 C1079 1.387 . S
C1081 C1083 1.390 . S
C1081 H1085 0.950 . S
H1082 C1078 0.950 . S
C1083 C1081 1.390 . S
C1083 C1084 1.387 . S
C1083 H1086 0.950 . S
C1084 C1083 1.387 . S
C1084 C1087 1.387 . S
H1085 C1081 0.950 . S
H1086 C1083 0.950 . S
C1087 C1078 1.390 . S
C1087 H1080 0.950 . S
C1087 C1084 1.387 . S
C449 C7 1.379 . S
C454 C301 1.377 . S
C459 C315 1.377 . S
C464 C21 1.380 . S
C469 C35 1.379 . S
C474 C329 1.379 . S
C479 C287 1.379 . S
C484 C49 1.379 . S
C489 C63 1.380 . S
C494 C273 1.377 . S
C499 C77 1.377 . S
C504 C231 1.379 . S
C509 C245 1.380 . S
C514 C91 1.377 . S
C519 C105 1.379 . S
C524 C259 1.378 . S
C529 C119 1.378 . S
C534 C413 1.380 . S
C539 C133 1.378 . S
C544 C427 1.378 . S
C549 C441 1.380 . S
C554 C147 1.378 . S
C559 C399 1.379 . S
C564 C161 1.379 . S
C569 C175 1.379 . S
C574 C385 1.377 . S
C579 C343 1.379 . S
C584 C189 1.377 . S
C589 C203 1.379 . S
C594 C357 1.379 . S
C599 C371 1.378 . S
C604 C217 1.378 . S
C609 C9 1.366 . S
C614 C129 1.444 . S
C619 C23 1.366 . S
C624 C367 1.444 1_655 S
C629 C157 1.445 . S
C634 C37 1.362 . S
C639 C51 1.366 . S
C644 C339 1.444 . S
C649 C65 1.362 . S
C654 C213 1.445 . S
C659 C395 1.444 . S
C664 C79 1.366 . S
C669 C185 1.445 . S
C674 C93 1.362 . S
C679 C423 1.445 1_655 S
C684 C107 1.363 . S
C689 C121 1.363 . S
C694 C17 1.445 . S
C699 C255 1.444 1_455 S
C704 C135 1.366 . S
C709 C45 1.445 . S
C714 C149 1.365 . S
C719 C163 1.362 . S
C724 C227 1.445 . S
C729 C101 1.444 . S
C734 C177 1.365 . S
C739 C283 1.444 . S
C744 C191 1.366 . S
C749 C73 1.444 . S
C754 C205 1.366 . S
C759 C219 1.366 . S
C764 C311 1.444 1_455 S
C769 C353 1.444 . S
C774 C233 1.366 . S
C779 C143 1.445 . S
C784 C247 1.362 . S
C789 C381 1.445 . S
C794 C261 1.365 . S
C799 C275 1.362 . S
C804 C115 1.445 1_455 S
C809 C437 1.444 . S
C814 C289 1.365 . S
C819 C171 1.444 1_455 S
C824 C303 1.366 . S
C829 C409 1.445 . S
C834 C317 1.362 . S
C839 C331 1.362 . S
C844 C199 1.445 . S
C849 C345 1.366 . S
C854 C241 1.444 . S
C859 C31 1.445 . S
C864 C359 1.363 . S
C869 C373 1.366 . S
C874 C269 1.444 . S
C879 C387 1.366 . S
C884 C3 1.444 1_655 S
C889 C401 1.362 . S
C894 C325 1.445 . S
C899 C59 1.445 1_655 S
C904 C415 1.362 . S
C909 C297 1.445 . S
C914 C429 1.364 . S
C919 C443 1.366 . S
C924 C87 1.444 . S
C929 C8 1.415 . S
C934 C64 1.415 . S
C939 C22 1.415 . S
C944 C78 1.415 . S
C949 C92 1.415 . S
C954 C36 1.415 . S
C959 C106 1.413 . S
C964 C50 1.413 . S
C969 C176 1.413 . S
C974 C120 1.413 . S
C979 C190 1.415 . S
C984 C134 1.415 . S
C989 C204 1.415 . S
C994 C148 1.415 . S
C999 C218 1.413 . S
C1004 C162 1.413 . S
C1009 C232 1.415 . S
C1014 C288 1.415 . S
C1019 C246 1.413 . S
C1024 C302 1.413 . S
C1029 C260 1.412 . S
C1034 C316 1.412 . S
C1039 C330 1.415 . S
C1044 C274 1.415 . S
C1049 C344 1.415 . S
C1054 C400 1.415 . S
C1059 C414 1.413 . S
C1064 C358 1.413 . S
C1069 C428 1.415 . S
C1074 C372 1.415 . S
C1079 C442 1.415 . S
C1084 C386 1.415 . S
