# Generated by pormake.
# Topology snp, (6)-cn, num edge types: 1
# Building blocks:
#     Node 0, Type 0, BuildingBlock: GEDQOX_clean_sbu_0, # of connection points: 6
#     Node 1, Type 0, BuildingBlock: GEDQOX_clean_sbu_0, # of connection points: 6
#     Node 2, Type 0, BuildingBlock: GEDQOX_clean_sbu_0, # of connection points: 6
#     Node 3, Type 0, BuildingBlock: GEDQOX_clean_sbu_0, # of connection points: 6
#     Edge 4, Type (0, 0), BuildingBlock: AJUNOK_clean_linker_0, # of connection points: 2
#     Edge 5, Type (0, 0), BuildingBlock: AJUNOK_clean_linker_0, # of connection points: 2
#     Edge 6, Type (0, 0), BuildingBlock: AJUNOK_clean_linker_0, # of connection points: 2
#     Edge 7, Type (0, 0), BuildingBlock: AJUNOK_clean_linker_0, # of connection points: 2
#     Edge 8, Type (0, 0), BuildingBlock: AJUNOK_clean_linker_0, # of connection points: 2
#     Edge 9, Type (0, 0), BuildingBlock: AJUNOK_clean_linker_0, # of connection points: 2
#     Edge 10, Type (0, 0), BuildingBlock: AJUNOK_clean_linker_0, # of connection points: 2
#     Edge 11, Type (0, 0), BuildingBlock: AJUNOK_clean_linker_0, # of connection points: 2
#     Edge 12, Type (0, 0), BuildingBlock: AJUNOK_clean_linker_0, # of connection points: 2
#     Edge 13, Type (0, 0), BuildingBlock: AJUNOK_clean_linker_0, # of connection points: 2
#     Edge 14, Type (0, 0), BuildingBlock: AJUNOK_clean_linker_0, # of connection points: 2
#     Edge 15, Type (0, 0), BuildingBlock: AJUNOK_clean_linker_0, # of connection points: 2
# Relax obj value: 0.229
# Max RMSD: 0.251
# Mean RMSD: 0.235
data_MOF--net-snp--node1-GEDQOX_clean_sbu_0--edge1-AJUNOK_clean_linker_0
_symmetry_space_group_name_H-M    P1
_symmetry_Int_Tables_number       1
_symmetry_cell_setting            triclinic
loop_
_symmetry_equiv_pos_as_xyz
'x, y, z'
_cell_length_a     19.6384
_cell_length_b     19.026665
_cell_length_c     28.675841
_cell_angle_alpha  81.034896
_cell_angle_beta   107.42775
_cell_angle_gamma 99.103126
loop_
_atom_site_label
_atom_site_type_symbol
_atom_site_fract_x
_atom_site_fract_y
_atom_site_fract_z
_atom_type_partial_charge
Nd0 Nd 0.27477 0.96 0.1161 0.0
Nd1 Nd 0.28889 0.10401 0.15995 0.0
C2 C 0.29712 0.85949 0.07028 0.0
C3 C 0.27735 0.84093 1.01932 0.0
C4 C 0.30771 0.88207 0.98363 0.0
C5 C 0.28535 0.8656 0.93505 0.0
C6 C 0.23209 0.80818 0.92138 0.0
C7 C 0.2035 0.76576 0.95723 0.0
C8 C 0.22615 0.78176 1.00579 0.0
C9 C 0.15196 -0.01477 0.13175 0.0
C10 C 0.2445 0.11391 1.04105 0.0
C11 C 0.28631 0.20639 0.21261 0.0
C12 C 0.27525 0.21273 0.26052 0.0
C13 C 0.2523 0.27555 0.26733 0.0
C14 C 0.24334 0.2838 0.31275 0.0
C15 C 0.25744 0.22942 0.35248 0.0
C16 C 0.27912 0.16575 0.34526 0.0
C17 C 0.28793 0.1575 0.2997 0.0
C18 C 0.41303 0.06231 0.15226 0.0
C19 C 0.29 0.9519 0.23144 0.0
O20 O 0.34295 0.91686 0.08086 0.0
O21 O 0.24455 0.85246 0.09064 0.0
O22 O 0.16753 0.92108 0.1324 0.0
O23 O 0.1962 0.03263 0.11683 0.0
O24 O 0.25734 0.04598 0.04679 0.0
O25 O 0.24917 0.14816 0.07886 0.0
O26 O 0.23042 0.18145 0.17898 0.0
O27 O 0.34504 0.18126 0.21371 0.0
O28 O 0.39877 0.12845 0.14212 0.0
O29 O 0.36369 0.0231 0.16614 0.0
O30 O 0.2715 0.0174 0.22155 0.0
O31 O 0.30596 0.91976 0.19893 0.0
H32 H 0.34765 0.92775 0.99288 0.0
H33 H 0.30788 0.89907 0.90782 0.0
H34 H 0.1629 0.72074 0.94743 0.0
H35 H 0.20254 0.7486 1.0326 0.0
H36 H 0.24195 0.31869 0.23756 0.0
H37 H 0.2267 0.33344 0.31711 0.0
H38 H 0.28897 0.1222 0.37475 0.0
H39 H 0.30498 0.10822 0.29517 0.0
Nd40 Nd 0.1046 0.27075 0.7234 0.0
Nd41 Nd 0.96351 0.22834 0.74766 0.0
C42 C 0.20549 0.32305 0.67898 0.0
C43 C 0.21256 0.31115 0.63098 0.0
C44 C 0.27403 0.34073 0.61632 0.0
C45 C 0.28168 0.32674 0.57163 0.0
C46 C 0.22784 0.28303 0.54075 0.0
C47 C 0.16586 0.25435 0.5553 0.0
C48 C 0.15863 0.26773 0.60015 0.0
C49 C 0.06245 0.12549 0.72784 0.0
C50 C 0.95329 0.25337 0.63342 0.0
C51 C 0.8537 0.17456 0.78258 0.0
C52 C 0.83756 0.18006 0.8285 0.0
C53 C 0.78618 0.12986 0.844 0.0
C54 C 0.77821 0.12862 0.89094 0.0
C55 C 0.82143 0.1777 0.92266 0.0
C56 C 0.86948 0.23085 0.90591 0.0
C57 C 0.87766 0.23198 0.85905 0.0
C58 C 0.9979 0.37302 0.72877 0.0
C59 C 0.11637 0.23236 0.83832 0.0
O60 O 0.15259 0.35812 0.67747 0.0
O61 O 0.21091 0.26718 0.71208 0.0
O62 O 0.12725 0.1545 0.74641 0.0
O63 O 0.02178 0.17351 0.70972 0.0
O64 O 0.01823 0.28828 0.64845 0.0
O65 O 0.92342 0.21334 0.66569 0.0
O66 O 0.9078 0.13912 0.7872 0.0
O67 O 0.85438 0.23387 0.75278 0.0
O68 O 0.93319 0.34049 0.71778 0.0
O69 O 0.04173 0.33008 0.75415 0.0
O70 O 0.04721 0.20879 0.8233 0.0
O71 O 0.15136 0.26817 0.80737 0.0
H72 H 0.31633 0.37419 0.63958 0.0
H73 H 0.32953 0.35051 0.56105 0.0
H74 H 0.12354 0.22046 0.53238 0.0
H75 H 0.11114 0.24348 0.61099 0.0
H76 H 0.75504 0.08936 0.82089 0.0
H77 H 0.74214 0.08613 0.90383 0.0
H78 H 0.90401 0.26825 0.93026 0.0
H79 H 0.91781 0.27102 0.84762 0.0
Nd80 Nd 0.82019 0.91561 0.19078 0.0
Nd81 Nd 0.82223 0.05643 0.23564 0.0
C82 C 0.8388 0.81683 0.14115 0.0
C83 C 0.83755 0.80599 0.09059 0.0
C84 C 0.89634 0.8329 0.0718 0.0
C85 C 0.89695 0.81748 1.02572 0.0
C86 C 0.83902 0.77461 0.9974 0.0
C87 C 0.77963 0.74916 1.01561 0.0
C88 C 0.77911 0.76426 0.06178 0.0
C89 C 0.68875 0.95862 0.1834 0.0
C90 C 0.83093 0.07106 0.12348 0.0
C91 C 0.78682 0.15096 0.27982 0.0
C92 C 0.80798 0.17011 0.33055 0.0
C93 C 0.75573 0.18404 0.35114 0.0
C94 C 0.77543 0.20181 0.39941 0.0
C95 C 0.84783 0.20668 0.4275 0.0
C96 C 0.8999 0.19202 0.40696 0.0
C97 C 0.88018 0.17363 0.35904 0.0
C98 C 0.95376 0.03268 0.23433 0.0
C99 C 0.84557 0.89949 0.3082 0.0
O100 O 0.89123 0.86092 0.16479 0.0
O101 O 0.77754 0.82086 0.14936 0.0
O102 O 0.701 0.89193 0.19336 0.0
O103 O 0.74355 -0.00237 0.17731 0.0
O104 O 0.84507 0.00406 0.13299 0.0
O105 O 0.8085 0.10156 0.15391 0.0
O106 O 0.74896 0.08832 0.27248 0.0
O107 O 0.83638 0.16579 0.25649 0.0
O108 O 0.93791 0.09594 0.23587 0.0
O109 O 0.90461 -0.01547 0.24215 0.0
O110 O 0.82956 0.96633 0.30244 0.0
O111 O 0.85026 0.86883 0.27122 0.0
H112 H 0.94245 0.86508 0.09293 0.0
H113 H 0.94292 0.83895 1.01227 0.0
H114 H 0.73429 0.71592 0.99465 0.0
H115 H 0.73337 0.74212 0.07533 0.0
H116 H 0.69971 0.18109 0.32991 0.0
H117 H 0.73432 0.21248 0.41461 0.0
H118 H 0.95586 0.19391 0.42825 0.0
H119 H 0.92147 0.162 0.34436 0.0
Nd120 Nd 0.11204 0.78359 0.60244 0.0
Nd121 Nd 0.96611 0.73497 0.62411 0.0
C122 C 0.2177 0.84849 0.56646 0.0
C123 C 0.2338 0.85631 0.5187 0.0
C124 C 0.2534 0.92481 0.4971 0.0
C125 C 0.26796 0.93367 0.45161 0.0
C126 C 0.26436 0.87398 0.42711 0.0
C127 C 0.24379 0.8054 0.4485 0.0
C128 C 0.2285 0.7966 0.49383 0.0
C129 C 0.07872 0.63866 0.61834 0.0
C130 C 0.96017 0.77685 0.5105 0.0
C131 C 0.86583 0.67276 0.66627 0.0
C132 C 0.85297 0.682 0.71344 0.0
C133 C 0.8666 0.62831 0.75362 0.0
C134 C 0.86135 0.63946 0.79958 0.0
C135 C 0.84229 0.7046 0.80643 0.0
C136 C 0.82595 0.75713 0.76575 0.0
C137 C 0.83148 0.74616 0.71993 0.0
C138 C 0.00599 0.88065 0.62051 0.0
C139 C 0.11623 0.7588 0.71647 0.0
O140 O 0.16442 0.88113 0.56767 0.0
O141 O 0.21893 0.78473 0.59142 0.0
O142 O 0.14361 0.67107 0.63105 0.0
O143 O 0.03497 0.68213 0.59379 0.0
O144 O 0.02892 0.80108 0.5268 0.0
O145 O 0.92339 0.74014 0.54004 0.0
O146 O 0.92329 0.64321 0.66978 0.0
O147 O 0.85581 0.72661 0.63143 0.0
O148 O 0.94032 0.85135 0.6045 0.0
O149 O 0.04647 0.83247 0.63808 0.0
O150 O 0.04952 0.72739 0.70117 0.0
O151 O 0.1513 0.79251 0.68514 0.0
H152 H 0.25683 0.97167 0.51525 0.0
H153 H 0.28104 -0.01249 0.43531 0.0
H154 H 0.2399 0.75853 0.4303 0.0
H155 H 0.21246 0.74313 0.50931 0.0
H156 H 0.88281 0.57817 0.74976 0.0
H157 H 0.87267 0.59722 0.82985 0.0
H158 H 0.81137 0.80796 0.76979 0.0
H159 H 0.82062 0.78892 0.68998 0.0
C160 C 0.02985 0.95513 0.21465 0.0
C161 C 0.00729 0.02277 0.21008 0.0
C162 C 0.07602 0.94343 0.1885 0.0
C163 C 0.10134 -0.00092 0.1571 0.0
H164 H 0.01134 0.91089 0.23829 0.0
H165 H 0.09216 0.89032 0.19316 0.0
S166 S 0.05374 0.18473 0.12948 0.0
N167 N 0.01181 0.1459 0.1705 0.0
N168 N 0.09731 0.12282 0.12068 0.0
C169 C 0.07906 0.06687 0.15208 0.0
C170 C 0.03246 0.07905 0.1789 0.0
C171 C 0.96518 -0.01985 0.6483 0.0
C172 C 0.02168 0.94747 0.64344 0.0
C173 C 0.97898 0.0355 0.67789 0.0
C174 C 0.04963 0.05996 0.7037 0.0
H175 H 0.90977 0.96175 0.63022 0.0
H176 H 0.93394 0.05979 0.68021 0.0
S177 S 0.21657 -0.00578 0.70099 0.0
N178 N 0.1509 0.94578 0.66457 0.0
N179 N 0.17698 0.04821 0.72153 0.0
C180 C 0.10667 0.02799 0.69886 0.0
C181 C 0.09262 0.9725 0.6681 0.0
C182 C 0.55886 0.93931 0.18194 0.0
C183 C 0.61857 -0.01419 0.1744 0.0
C184 C 0.49233 0.96451 0.17373 0.0
C185 C 0.4829 0.03721 0.15749 0.0
H186 H 0.56357 0.88308 0.19464 0.0
H187 H 0.44815 0.92672 0.18067 0.0
S188 S 0.6216 0.18068 0.13055 0.0
N189 N 0.66327 0.10815 0.14856 0.0
N190 N 0.53837 0.15484 0.13304 0.0
C191 C 0.54173 0.08401 0.14906 0.0
C192 C 0.60955 0.05854 0.15758 0.0
C193 C 0.08776 0.47587 0.71363 0.0
C194 C 0.01761 0.44061 0.70019 0.0
C195 C 0.1076 0.53896 0.68596 0.0
C196 C 0.05793 0.5689 0.64392 0.0
H197 H 0.12747 0.45481 0.74584 0.0
H198 H 0.16198 0.56512 0.69826 0.0
S199 S 0.86909 0.49441 0.5909 0.0
N200 N 0.89909 0.43847 0.64044 0.0
N201 N 0.93716 0.55669 0.58859 0.0
C202 C 0.98824 0.53328 0.62937 0.0
C203 C 0.9678 0.46932 0.65757 0.0
C204 C 0.18089 0.27842 0.4493 0.0
C205 C 0.23598 0.26737 0.4934 0.0
C206 C 0.18803 0.26556 0.40411 0.0
C207 C 0.25008 0.24005 0.40123 0.0
H208 H 0.13232 0.29834 0.44962 0.0
H209 H 0.14445 0.27547 0.37112 0.0
S210 S 0.40858 0.19963 0.50631 0.0
N211 N 0.35368 0.2273 0.53153 0.0
N212 N 0.36722 0.20337 0.4468 0.0
C213 C 0.30497 0.22756 0.4452 0.0
C214 C 0.29797 0.24129 0.49114 0.0
C215 C 0.78633 0.18454 0.99925 0.0
C216 C 0.8304 0.16065 0.97581 0.0
C217 C 0.78988 0.15932 0.04871 0.0
C218 C 0.83649 0.10856 0.0753 0.0
H219 H 0.74749 0.22078 0.97884 0.0
H220 H 0.75321 0.17642 0.06518 0.0
S221 S 0.96518 0.03328 1.02971 0.0
N222 N 0.92451 0.08809 0.98278 0.0
N223 N 0.92991 0.03852 0.07436 0.0
C224 C 0.88255 0.08686 0.05218 0.0
C225 C 0.87974 0.11343 1.00268 0.0
C226 C 0.86092 0.83037 0.44314 0.0
C227 C 0.92435 0.79698 0.45768 0.0
C228 C 0.83472 0.86302 0.39455 0.0
C229 C 0.87001 0.86152 0.35864 0.0
H230 H 0.83357 0.83468 0.47007 0.0
H231 H 0.78716 0.89028 0.38518 0.0
S232 S 0.03736 0.77957 0.37805 0.0
N233 N 0.02125 0.76419 0.43226 0.0
N234 N 0.97119 0.82278 0.34118 0.0
C235 C 0.93204 0.82606 0.37252 0.0
C236 C 0.9594 0.79451 0.42195 0.0
C237 C 0.2191 0.76793 0.793 0.0
C238 C 0.14541 0.76903 0.76898 0.0
C239 C 0.24729 0.78057 0.84254 0.0
C240 C 0.2026 0.79518 0.86923 0.0
H241 H 0.25497 0.75689 0.77347 0.0
H242 H 0.30416 0.77854 0.86016 0.0
S243 S 0.00901 0.81676 0.82063 0.0
N244 N 0.03014 0.79364 0.77405 0.0
N245 N 0.08332 0.81768 0.86678 0.0
C246 C 0.12949 0.79879 0.84511 0.0
C247 C 0.1008 0.78564 0.79502 0.0
C248 C 0.7826 0.76626 0.90698 0.0
C249 C 0.84068 0.75549 0.94927 0.0
C250 C 0.78328 0.7491 0.86119 0.0
C251 C 0.84152 0.71935 0.85595 0.0
H252 H 0.73668 0.78916 0.90915 0.0
H253 H 0.73761 0.75899 0.82962 0.0
S254 S 0.00601 0.67865 0.95579 0.0
N255 N 0.95741 0.71193 0.98321 0.0
N256 N 0.95865 0.67935 0.89749 0.0
C257 C 0.89946 0.70729 0.89819 0.0
C258 C 0.89913 0.72559 0.94465 0.0
C259 C 0.23904 0.86715 0.29096 0.0
C260 C 0.29515 0.91757 0.28162 0.0
C261 C 0.23138 0.85038 0.33875 0.0
C262 C 0.27942 0.88396 0.3785 0.0
H263 H 0.19822 0.84425 0.26077 0.0
H264 H 0.18516 0.81418 0.344 0.0
S265 S 0.44016 0.01353 0.37316 0.0
N266 N 0.40242 -0.00343 0.3157 0.0
N267 N 0.3896 0.964 0.40567 0.0
C268 C 0.33842 0.93093 0.36977 0.0
C269 C 0.34584 0.94803 0.32125 0.0
C270 C 0.21481 0.17298 0.90305 0.0
C271 C 0.15518 0.21182 0.89082 0.0
C272 C 0.24419 0.14191 0.95171 0.0
C273 C 0.21643 0.1504 0.99023 0.0
H274 H 0.23668 0.16355 0.87439 0.0
H275 H 0.28849 0.1105 0.95914 0.0
S276 S 0.06171 0.24846 0.97773 0.0
N277 N 0.06963 0.25679 0.92132 0.0
N278 N 0.12642 0.20167 1.01254 0.0
C279 C 0.15831 0.19107 0.97859 0.0
C280 C 0.12727 0.22083 0.92901 0.0
C281 C 0.83754 0.18483 0.5137 0.0
C282 C 0.86945 0.22523 0.47868 0.0
C283 C 0.86271 0.19653 0.56344 0.0
C284 C 0.9204 0.24942 0.57989 0.0
H285 H 0.79482 0.14186 0.50293 0.0
H286 H 0.8385 0.16189 0.58937 0.0
S287 S 0.01535 0.37625 0.501 0.0
N288 N 0.95689 0.32435 0.46266 0.0
N289 N 0.00347 0.34762 0.5557 0.0
C290 C 0.94984 0.29298 0.54451 0.0
C291 C 0.92464 0.28048 0.49405 0.0
loop_
_geom_bond_atom_site_label_1
_geom_bond_atom_site_label_2
_geom_bond_distance
_geom_bond_site_symmetry_2
_ccdc_geom_bond_type
Nd0 C2 2.836 1_554 S
Nd0 O20 2.500 . S
Nd0 O21 2.492 1_554 S
Nd0 O22 2.487 . S
Nd0 O23 2.682 1_565 S
Nd0 O24 2.410 1_565 S
Nd0 O29 2.414 1_565 S
Nd0 O31 2.424 . S
Nd1 C11 2.836 . S
Nd1 O23 2.414 . S
Nd1 O25 2.424 . S
Nd1 O26 2.500 . S
Nd1 O27 2.492 . S
Nd1 O28 2.487 . S
Nd1 O29 2.682 . S
Nd1 O30 2.410 . S
C2 Nd0 2.836 1_556 S
C2 C3 1.498 . S
C2 O20 1.258 1_556 S
C2 O21 1.239 . S
C3 C2 1.498 . S
C3 C4 1.366 . S
C3 C8 1.407 . S
C4 C3 1.366 . S
C4 C5 1.392 . S
C4 H32 0.930 . S
C5 C4 1.392 . S
C5 C6 1.398 . S
C5 H33 0.929 . S
C6 C5 1.398 . S
C6 C7 1.352 . S
C7 C6 1.352 . S
C7 C8 1.384 . S
C7 H34 0.930 . S
C8 C3 1.407 . S
C8 C7 1.384 . S
C8 H35 0.929 . S
C9 O22 1.241 1_545 S
C9 O23 1.273 . S
C10 O24 1.251 . S
C10 O25 1.268 . S
C11 Nd1 2.836 . S
C11 C12 1.498 . S
C11 O26 1.258 . S
C11 O27 1.239 . S
C12 C11 1.498 . S
C12 C13 1.366 . S
C12 C17 1.407 . S
C13 C12 1.366 . S
C13 C14 1.392 . S
C13 H36 0.930 . S
C14 C13 1.392 . S
C14 C15 1.398 . S
C14 H37 0.929 . S
C15 C14 1.398 . S
C15 C16 1.352 . S
C16 C15 1.352 . S
C16 C17 1.384 . S
C16 H38 0.930 . S
C17 C12 1.407 . S
C17 C16 1.384 . S
C17 H39 0.929 . S
C18 O28 1.241 . S
C18 O29 1.273 . S
C19 O30 1.251 1_565 S
C19 O31 1.268 . S
O20 Nd0 2.500 . S
O20 C2 1.258 1_554 S
O21 Nd0 2.492 1_556 S
O21 C2 1.239 . S
O22 Nd0 2.487 . S
O22 C9 1.241 1_565 S
O23 Nd0 2.682 1_545 S
O23 Nd1 2.414 . S
O23 C9 1.273 . S
O24 Nd0 2.410 1_545 S
O24 C10 1.251 . S
O25 Nd1 2.424 . S
O25 C10 1.268 . S
O26 Nd1 2.500 . S
O26 C11 1.258 . S
O27 Nd1 2.492 . S
O27 C11 1.239 . S
O28 Nd1 2.487 . S
O28 C18 1.241 . S
O29 Nd0 2.414 1_545 S
O29 Nd1 2.682 . S
O29 C18 1.273 . S
O30 Nd1 2.410 . S
O30 C19 1.251 1_545 S
O31 Nd0 2.424 . S
O31 C19 1.268 . S
H32 C4 0.930 . S
H33 C5 0.929 . S
H34 C7 0.930 . S
H35 C8 0.929 . S
H36 C13 0.930 . S
H37 C14 0.929 . S
H38 C16 0.930 . S
H39 C17 0.929 . S
Nd40 C42 2.836 . S
Nd40 O60 2.500 . S
Nd40 O61 2.492 . S
Nd40 O62 2.487 . S
Nd40 O63 2.682 . S
Nd40 O64 2.410 . S
Nd40 O69 2.414 . S
Nd40 O71 2.424 . S
Nd41 C51 2.836 . S
Nd41 O63 2.414 1_655 S
Nd41 O65 2.424 . S
Nd41 O66 2.500 . S
Nd41 O67 2.492 . S
Nd41 O68 2.487 1_655 S
Nd41 O69 2.682 1_655 S
Nd41 O70 2.410 1_655 S
C42 Nd40 2.836 . S
C42 C43 1.498 . S
C42 O60 1.258 . S
C42 O61 1.239 . S
C43 C42 1.498 . S
C43 C44 1.366 . S
C43 C48 1.407 . S
C44 C43 1.366 . S
C44 C45 1.392 . S
C44 H72 0.930 . S
C45 C44 1.392 . S
C45 C46 1.398 . S
C45 H73 0.929 . S
C46 C45 1.398 . S
C46 C47 1.352 . S
C47 C46 1.352 . S
C47 C48 1.384 . S
C47 H74 0.930 . S
C48 C43 1.407 . S
C48 C47 1.384 . S
C48 H75 0.929 . S
C49 O62 1.241 . S
C49 O63 1.273 . S
C50 O64 1.251 . S
C50 O65 1.268 1_455 S
C51 Nd41 2.836 . S
C51 C52 1.498 . S
C51 O66 1.258 . S
C51 O67 1.239 . S
C52 C51 1.498 . S
C52 C53 1.366 . S
C52 C57 1.407 . S
C53 C52 1.366 . S
C53 C54 1.392 . S
C53 H76 0.930 . S
C54 C53 1.392 . S
C54 C55 1.398 . S
C54 H77 0.929 . S
C55 C54 1.398 . S
C55 C56 1.352 . S
C56 C55 1.352 . S
C56 C57 1.384 . S
C56 H78 0.930 . S
C57 C52 1.407 . S
C57 C56 1.384 . S
C57 H79 0.929 . S
C58 O68 1.241 . S
C58 O69 1.273 . S
C59 O70 1.251 . S
C59 O71 1.268 . S
O60 Nd40 2.500 . S
O60 C42 1.258 . S
O61 Nd40 2.492 . S
O61 C42 1.239 . S
O62 Nd40 2.487 . S
O62 C49 1.241 . S
O63 Nd40 2.682 . S
O63 Nd41 2.414 1_455 S
O63 C49 1.273 . S
O64 Nd40 2.410 . S
O64 C50 1.251 . S
O65 Nd41 2.424 . S
O65 C50 1.268 1_655 S
O66 Nd41 2.500 . S
O66 C51 1.258 . S
O67 Nd41 2.492 . S
O67 C51 1.239 . S
O68 Nd41 2.487 1_455 S
O68 C58 1.241 . S
O69 Nd40 2.414 . S
O69 Nd41 2.682 1_455 S
O69 C58 1.273 . S
O70 Nd41 2.410 1_455 S
O70 C59 1.251 . S
O71 Nd40 2.424 . S
O71 C59 1.268 . S
H72 C44 0.930 . S
H73 C45 0.929 . S
H74 C47 0.930 . S
H75 C48 0.929 . S
H76 C53 0.930 . S
H77 C54 0.929 . S
H78 C56 0.930 . S
H79 C57 0.929 . S
Nd80 C82 2.836 . S
Nd80 O100 2.500 . S
Nd80 O101 2.492 . S
Nd80 O102 2.487 . S
Nd80 O103 2.682 1_565 S
Nd80 O104 2.410 1_565 S
Nd80 O109 2.414 . S
Nd80 O111 2.424 . S
Nd81 C91 2.836 . S
Nd81 O103 2.414 . S
Nd81 O105 2.424 . S
Nd81 O106 2.500 . S
Nd81 O107 2.492 . S
Nd81 O108 2.487 . S
Nd81 O109 2.682 1_545 S
Nd81 O110 2.410 1_545 S
C82 Nd80 2.836 . S
C82 C83 1.498 . S
C82 O100 1.258 . S
C82 O101 1.239 . S
C83 C82 1.498 . S
C83 C84 1.366 1_554 S
C83 C88 1.407 1_554 S
C84 C83 1.366 1_556 S
C84 C85 1.392 . S
C84 H112 0.930 1_556 S
C85 C84 1.392 . S
C85 C86 1.398 . S
C85 H113 0.929 . S
C86 C85 1.398 . S
C86 C87 1.352 . S
C87 C86 1.352 . S
C87 C88 1.384 . S
C87 H114 0.930 . S
C88 C83 1.407 1_556 S
C88 C87 1.384 . S
C88 H115 0.929 . S
C89 O102 1.241 . S
C89 O103 1.273 1_565 S
C90 O104 1.251 . S
C90 O105 1.268 . S
C91 Nd81 2.836 . S
C91 C92 1.498 . S
C91 O106 1.258 . S
C91 O107 1.239 . S
C92 C91 1.498 . S
C92 C93 1.366 . S
C92 C97 1.407 . S
C93 C92 1.366 . S
C93 C94 1.392 . S
C93 H116 0.930 . S
C94 C93 1.392 . S
C94 C95 1.398 . S
C94 H117 0.929 . S
C95 C94 1.398 . S
C95 C96 1.352 . S
C96 C95 1.352 . S
C96 C97 1.384 . S
C96 H118 0.930 . S
C97 C92 1.407 . S
C97 C96 1.384 . S
C97 H119 0.929 . S
C98 O108 1.241 . S
C98 O109 1.273 1_545 S
C99 O110 1.251 . S
C99 O111 1.268 . S
O100 Nd80 2.500 . S
O100 C82 1.258 . S
O101 Nd80 2.492 . S
O101 C82 1.239 . S
O102 Nd80 2.487 . S
O102 C89 1.241 . S
O103 Nd80 2.682 1_545 S
O103 Nd81 2.414 . S
O103 C89 1.273 1_545 S
O104 Nd80 2.410 1_545 S
O104 C90 1.251 . S
O105 Nd81 2.424 . S
O105 C90 1.268 . S
O106 Nd81 2.500 . S
O106 C91 1.258 . S
O107 Nd81 2.492 . S
O107 C91 1.239 . S
O108 Nd81 2.487 . S
O108 C98 1.241 . S
O109 Nd80 2.414 . S
O109 Nd81 2.682 1_565 S
O109 C98 1.273 1_565 S
O110 Nd81 2.410 1_565 S
O110 C99 1.251 . S
O111 Nd80 2.424 . S
O111 C99 1.268 . S
H112 C84 0.930 1_554 S
H113 C85 0.929 . S
H114 C87 0.930 . S
H115 C88 0.929 . S
H116 C93 0.930 . S
H117 C94 0.929 . S
H118 C96 0.930 . S
H119 C97 0.929 . S
Nd120 C122 2.836 . S
Nd120 O140 2.500 . S
Nd120 O141 2.492 . S
Nd120 O142 2.487 . S
Nd120 O143 2.682 1_455 S
Nd120 O144 2.410 1_455 S
Nd120 O149 2.414 . S
Nd120 O151 2.424 . S
Nd121 C131 2.836 . S
Nd121 O143 2.414 . S
Nd121 O145 2.424 . S
Nd121 O146 2.500 . S
Nd121 O147 2.492 . S
Nd121 O148 2.487 . S
Nd121 O149 2.682 1_655 S
Nd121 O150 2.410 1_655 S
C122 Nd120 2.836 . S
C122 C123 1.498 . S
C122 O140 1.258 . S
C122 O141 1.239 . S
C123 C122 1.498 . S
C123 C124 1.366 . S
C123 C128 1.407 . S
C124 C123 1.366 . S
C124 C125 1.392 . S
C124 H152 0.930 . S
C125 C124 1.392 . S
C125 C126 1.398 . S
C125 H153 0.929 . S
C126 C125 1.398 . S
C126 C127 1.352 . S
C127 C126 1.352 . S
C127 C128 1.384 . S
C127 H154 0.930 . S
C128 C123 1.407 . S
C128 C127 1.384 . S
C128 H155 0.929 . S
C129 O142 1.241 . S
C129 O143 1.273 1_455 S
C130 O144 1.251 . S
C130 O145 1.268 . S
C131 Nd121 2.836 . S
C131 C132 1.498 . S
C131 O146 1.258 . S
C131 O147 1.239 . S
C132 C131 1.498 . S
C132 C133 1.366 . S
C132 C137 1.407 . S
C133 C132 1.366 . S
C133 C134 1.392 . S
C133 H156 0.930 . S
C134 C133 1.392 . S
C134 C135 1.398 . S
C134 H157 0.929 . S
C135 C134 1.398 . S
C135 C136 1.352 . S
C136 C135 1.352 . S
C136 C137 1.384 . S
C136 H158 0.930 . S
C137 C132 1.407 . S
C137 C136 1.384 . S
C137 H159 0.929 . S
C138 O148 1.241 . S
C138 O149 1.273 1_655 S
C139 O150 1.251 . S
C139 O151 1.268 . S
O140 Nd120 2.500 . S
O140 C122 1.258 . S
O141 Nd120 2.492 . S
O141 C122 1.239 . S
O142 Nd120 2.487 . S
O142 C129 1.241 . S
O143 Nd120 2.682 1_655 S
O143 Nd121 2.414 . S
O143 C129 1.273 1_655 S
O144 Nd120 2.410 1_655 S
O144 C130 1.251 . S
O145 Nd121 2.424 . S
O145 C130 1.268 . S
O146 Nd121 2.500 . S
O146 C131 1.258 . S
O147 Nd121 2.492 . S
O147 C131 1.239 . S
O148 Nd121 2.487 . S
O148 C138 1.241 . S
O149 Nd120 2.414 . S
O149 Nd121 2.682 1_455 S
O149 C138 1.273 1_455 S
O150 Nd121 2.410 1_455 S
O150 C139 1.251 . S
O151 Nd120 2.424 . S
O151 C139 1.268 . S
H152 C124 0.930 . S
H153 C125 0.929 . S
H154 C127 0.930 . S
H155 C128 0.929 . S
H156 C133 0.930 . S
H157 C134 0.929 . S
H158 C136 0.930 . S
H159 C137 0.929 . S
C160 C161 1.369 1_655 S
C160 C162 1.419 1_655 S
C160 H164 0.930 1_545 S
C161 C160 1.369 1_455 S
C161 C170 1.429 . S
C162 C160 1.419 1_455 S
C162 C163 1.363 . S
C162 H165 0.929 1_455 S
C163 C162 1.363 . S
C163 C169 1.428 . S
H164 C160 0.930 1_565 S
H165 C162 0.929 1_655 S
S166 N167 1.613 . S
S166 N168 1.610 . S
N167 S166 1.613 . S
N167 C170 1.350 . S
N168 S166 1.610 . S
N168 C169 1.351 . S
C169 C163 1.428 . S
C169 N168 1.351 . S
C169 C170 1.434 . S
C170 C161 1.429 . S
C170 N167 1.350 . S
C170 C169 1.434 . S
C171 C172 1.371 1_655 S
C171 C173 1.419 1_655 S
C171 H175 0.930 . S
C172 C171 1.371 1_455 S
C172 C181 1.428 1_545 S
C173 C171 1.419 1_455 S
C173 C174 1.363 . S
C173 H176 0.929 1_455 S
C174 C173 1.363 . S
C174 C180 1.428 . S
H175 C171 0.930 . S
H176 C173 0.929 1_655 S
S177 N178 1.613 . S
S177 N179 1.610 . S
N178 S177 1.613 . S
N178 C181 1.350 . S
N179 S177 1.610 . S
N179 C180 1.351 1_565 S
C180 C174 1.428 . S
C180 N179 1.351 1_545 S
C180 C181 1.434 1_545 S
C181 C172 1.428 1_565 S
C181 N178 1.350 . S
C181 C180 1.434 1_565 S
C182 C183 1.369 . S
C182 C184 1.419 . S
C182 H186 0.930 . S
C183 C182 1.369 . S
C183 C192 1.429 1_545 S
C184 C182 1.419 . S
C184 C185 1.363 . S
C184 H187 0.929 . S
C185 C184 1.363 . S
C185 C191 1.428 . S
H186 C182 0.930 . S
H187 C184 0.929 . S
S188 N189 1.613 . S
S188 N190 1.610 . S
N189 S188 1.613 . S
N189 C192 1.350 . S
N190 S188 1.610 . S
N190 C191 1.351 1_565 S
C191 C185 1.428 . S
C191 N190 1.351 1_545 S
C191 C192 1.434 1_545 S
C192 C183 1.429 1_565 S
C192 N189 1.350 . S
C192 C191 1.434 1_565 S
C193 C194 1.369 . S
C193 C195 1.419 . S
C193 H197 0.930 . S
C194 C193 1.369 . S
C194 C203 1.429 . S
C195 C193 1.419 . S
C195 C196 1.363 . S
C195 H198 0.929 . S
C196 C195 1.363 . S
C196 C202 1.428 . S
H197 C193 0.930 . S
H198 C195 0.929 . S
S199 N200 1.613 . S
S199 N201 1.610 1_455 S
N200 S199 1.613 . S
N200 C203 1.350 . S
N201 S199 1.610 1_655 S
N201 C202 1.351 1_655 S
C202 C196 1.428 . S
C202 N201 1.351 1_455 S
C202 C203 1.434 . S
C203 C194 1.429 . S
C203 N200 1.350 . S
C203 C202 1.434 . S
C204 C205 1.369 . S
C204 C206 1.419 . S
C204 H208 0.930 . S
C205 C204 1.369 . S
C205 C214 1.429 . S
C206 C204 1.419 . S
C206 C207 1.363 . S
C206 H209 0.929 . S
C207 C206 1.363 . S
C207 C213 1.428 . S
H208 C204 0.930 . S
H209 C206 0.929 . S
S210 N211 1.613 . S
S210 N212 1.610 . S
N211 S210 1.613 . S
N211 C214 1.350 . S
N212 S210 1.610 . S
N212 C213 1.351 . S
C213 C207 1.428 . S
C213 N212 1.351 . S
C213 C214 1.434 . S
C214 C205 1.429 . S
C214 N211 1.350 . S
C214 C213 1.434 . S
C215 C216 1.369 . S
C215 C217 1.419 1_556 S
C215 H219 0.930 . S
C216 C215 1.369 . S
C216 C225 1.429 . S
C217 C215 1.419 1_554 S
C217 C218 1.363 . S
C217 H220 0.929 . S
C218 C217 1.363 . S
C218 C224 1.428 . S
H219 C215 0.930 . S
H220 C217 0.929 . S
S221 N222 1.613 1_554 S
S221 N223 1.610 . S
N222 S221 1.613 1_556 S
N222 C225 1.350 . S
N223 S221 1.610 . S
N223 C224 1.351 . S
C224 C218 1.428 . S
C224 N223 1.351 . S
C224 C225 1.434 1_554 S
C225 C216 1.429 . S
C225 N222 1.350 . S
C225 C224 1.434 1_556 S
C226 C227 1.369 . S
C226 C228 1.419 . S
C226 H230 0.930 . S
C227 C226 1.369 . S
C227 C236 1.429 . S
C228 C226 1.419 . S
C228 C229 1.363 . S
C228 H231 0.929 . S
C229 C228 1.363 . S
C229 C235 1.428 . S
H230 C226 0.930 . S
H231 C228 0.929 . S
S232 N233 1.610 1_455 S
S232 N234 1.606 1_455 S
N233 S232 1.610 1_655 S
N233 C236 1.350 . S
N234 S232 1.606 1_655 S
N234 C235 1.351 . S
C235 C229 1.428 . S
C235 N234 1.351 . S
C235 C236 1.434 . S
C236 C227 1.429 . S
C236 N233 1.350 . S
C236 C235 1.434 . S
C237 C238 1.369 . S
C237 C239 1.419 . S
C237 H241 0.930 . S
C238 C237 1.369 . S
C238 C247 1.429 . S
C239 C237 1.419 . S
C239 C240 1.363 . S
C239 H242 0.929 . S
C240 C239 1.363 . S
C240 C246 1.428 . S
H241 C237 0.930 . S
H242 C239 0.929 . S
S243 N244 1.613 . S
S243 N245 1.610 . S
N244 S243 1.613 . S
N244 C247 1.350 . S
N245 S243 1.610 . S
N245 C246 1.351 . S
C246 C240 1.428 . S
C246 N245 1.351 . S
C246 C247 1.434 . S
C247 C238 1.429 . S
C247 N244 1.350 . S
C247 C246 1.434 . S
C248 C249 1.369 . S
C248 C250 1.419 . S
C248 H252 0.930 . S
C249 C248 1.369 . S
C249 C258 1.429 . S
C250 C248 1.419 . S
C250 C251 1.363 . S
C250 H253 0.929 . S
C251 C250 1.363 . S
C251 C257 1.428 . S
H252 C248 0.930 . S
H253 C250 0.929 . S
S254 N255 1.613 . S
S254 N256 1.610 . S
N255 S254 1.613 . S
N255 C258 1.350 . S
N256 S254 1.610 . S
N256 C257 1.351 . S
C257 C251 1.428 . S
C257 N256 1.351 . S
C257 C258 1.434 . S
C258 C249 1.429 . S
C258 N255 1.350 . S
C258 C257 1.434 . S
C259 C260 1.369 . S
C259 C261 1.419 . S
C259 H263 0.930 . S
C260 C259 1.369 . S
C260 C269 1.429 . S
C261 C259 1.419 . S
C261 C262 1.363 . S
C261 H264 0.929 . S
C262 C261 1.363 . S
C262 C268 1.428 . S
H263 C259 0.930 . S
H264 C261 0.929 . S
S265 N266 1.613 . S
S265 N267 1.610 1_545 S
N266 S265 1.613 . S
N266 C269 1.350 1_545 S
N267 S265 1.610 1_565 S
N267 C268 1.351 . S
C268 C262 1.428 . S
C268 N267 1.351 . S
C268 C269 1.434 . S
C269 C260 1.429 . S
C269 N266 1.350 1_565 S
C269 C268 1.434 . S
C270 C271 1.369 . S
C270 C272 1.419 . S
C270 H274 0.930 . S
C271 C270 1.369 . S
C271 C280 1.429 . S
C272 C270 1.419 . S
C272 C273 1.363 . S
C272 H275 0.929 . S
C273 C272 1.363 . S
C273 C279 1.428 . S
H274 C270 0.930 . S
H275 C272 0.929 . S
S276 N277 1.613 . S
S276 N278 1.610 . S
N277 S276 1.613 . S
N277 C280 1.350 . S
N278 S276 1.610 . S
N278 C279 1.351 . S
C279 C273 1.428 . S
C279 N278 1.351 . S
C279 C280 1.434 . S
C280 C271 1.429 . S
C280 N277 1.350 . S
C280 C279 1.434 . S
C281 C282 1.369 . S
C281 C283 1.419 . S
C281 H285 0.930 . S
C282 C281 1.369 . S
C282 C291 1.429 . S
C283 C281 1.419 . S
C283 C284 1.363 . S
C283 H286 0.929 . S
C284 C283 1.363 . S
C284 C290 1.428 1_655 S
H285 C281 0.930 . S
H286 C283 0.929 . S
S287 N288 1.613 . S
S287 N289 1.610 . S
N288 S287 1.613 . S
N288 C291 1.350 1_455 S
N289 S287 1.610 . S
N289 C290 1.351 . S
C290 C284 1.428 1_455 S
C290 N289 1.351 . S
C290 C291 1.434 1_455 S
C291 C282 1.429 . S
C291 N288 1.350 1_655 S
C291 C290 1.434 1_655 S
C161 C98 1.208 1_455 S
C163 C9 1.207 . S
C172 C138 1.311 1_445 S
C174 C49 1.325 . S
C183 C89 1.120 1_545 S
C185 C18 1.131 . S
C194 C58 1.250 . S
C196 C129 1.249 . S
C205 C46 1.123 . S
C207 C15 1.136 . S
C216 C55 1.661 . S
C218 C90 1.671 . S
C227 C130 2.141 . S
C229 C99 2.090 . S
C238 C139 1.371 . S
C240 C6 1.386 . S
C249 C86 1.133 . S
C251 C135 1.120 . S
C260 C19 1.671 . S
C262 C126 1.661 . S
C271 C59 2.142 . S
C273 C10 2.092 1_556 S
C282 C95 1.386 . S
C284 C50 1.376 1_655 S
