# Generated by pormake.
# Topology wjg, (4)-cn, num edge types: 1
# Building blocks:
#     Node 0, Type 0, BuildingBlock: CEKHIL_clean_sbu_0, # of connection points: 4
#     Node 1, Type 0, BuildingBlock: CEKHIL_clean_sbu_0, # of connection points: 4
#     Node 2, Type 0, BuildingBlock: CEKHIL_clean_sbu_0, # of connection points: 4
#     Node 3, Type 0, BuildingBlock: CEKHIL_clean_sbu_0, # of connection points: 4
#     Node 4, Type 0, BuildingBlock: CEKHIL_clean_sbu_0, # of connection points: 4
#     Node 5, Type 0, BuildingBlock: CEKHIL_clean_sbu_0, # of connection points: 4
#     Node 6, Type 0, BuildingBlock: CEKHIL_clean_sbu_0, # of connection points: 4
#     Node 7, Type 0, BuildingBlock: CEKHIL_clean_sbu_0, # of connection points: 4
#     Node 8, Type 0, BuildingBlock: CEKHIL_clean_sbu_0, # of connection points: 4
#     Node 9, Type 0, BuildingBlock: CEKHIL_clean_sbu_0, # of connection points: 4
#     Node 10, Type 0, BuildingBlock: CEKHIL_clean_sbu_0, # of connection points: 4
#     Node 11, Type 0, BuildingBlock: CEKHIL_clean_sbu_0, # of connection points: 4
#     Edge 12, Type (0, 0), BuildingBlock: UVAHIK_clean_linker_0, # of connection points: 2
#     Edge 13, Type (0, 0), BuildingBlock: UVAHIK_clean_linker_0, # of connection points: 2
#     Edge 14, Type (0, 0), BuildingBlock: UVAHIK_clean_linker_0, # of connection points: 2
#     Edge 15, Type (0, 0), BuildingBlock: UVAHIK_clean_linker_0, # of connection points: 2
#     Edge 16, Type (0, 0), BuildingBlock: UVAHIK_clean_linker_0, # of connection points: 2
#     Edge 17, Type (0, 0), BuildingBlock: UVAHIK_clean_linker_0, # of connection points: 2
#     Edge 18, Type (0, 0), BuildingBlock: UVAHIK_clean_linker_0, # of connection points: 2
#     Edge 19, Type (0, 0), BuildingBlock: UVAHIK_clean_linker_0, # of connection points: 2
#     Edge 20, Type (0, 0), BuildingBlock: UVAHIK_clean_linker_0, # of connection points: 2
#     Edge 21, Type (0, 0), BuildingBlock: UVAHIK_clean_linker_0, # of connection points: 2
#     Edge 22, Type (0, 0), BuildingBlock: UVAHIK_clean_linker_0, # of connection points: 2
#     Edge 23, Type (0, 0), BuildingBlock: UVAHIK_clean_linker_0, # of connection points: 2
#     Edge 24, Type (0, 0), BuildingBlock: UVAHIK_clean_linker_0, # of connection points: 2
#     Edge 25, Type (0, 0), BuildingBlock: UVAHIK_clean_linker_0, # of connection points: 2
#     Edge 26, Type (0, 0), BuildingBlock: UVAHIK_clean_linker_0, # of connection points: 2
#     Edge 27, Type (0, 0), BuildingBlock: UVAHIK_clean_linker_0, # of connection points: 2
#     Edge 28, Type (0, 0), BuildingBlock: UVAHIK_clean_linker_0, # of connection points: 2
#     Edge 29, Type (0, 0), BuildingBlock: UVAHIK_clean_linker_0, # of connection points: 2
#     Edge 30, Type (0, 0), BuildingBlock: UVAHIK_clean_linker_0, # of connection points: 2
#     Edge 31, Type (0, 0), BuildingBlock: UVAHIK_clean_linker_0, # of connection points: 2
#     Edge 32, Type (0, 0), BuildingBlock: UVAHIK_clean_linker_0, # of connection points: 2
#     Edge 33, Type (0, 0), BuildingBlock: UVAHIK_clean_linker_0, # of connection points: 2
#     Edge 34, Type (0, 0), BuildingBlock: UVAHIK_clean_linker_0, # of connection points: 2
#     Edge 35, Type (0, 0), BuildingBlock: UVAHIK_clean_linker_0, # of connection points: 2
# Relax obj value: 0.339
# Max RMSD: 0.121
# Mean RMSD: 0.111
data_MOF--net-wjg--node1-CEKHIL_clean_sbu_0--edge1-UVAHIK_clean_linker_0
_symmetry_space_group_name_H-M    P1
_symmetry_Int_Tables_number       1
_symmetry_cell_setting            triclinic
loop_
_symmetry_equiv_pos_as_xyz
'x, y, z'
_cell_length_a     39.542893
_cell_length_b     39.333269
_cell_length_c     51.938574
_cell_angle_alpha  90.012304
_cell_angle_beta   89.985183
_cell_angle_gamma 120.13446
loop_
_atom_site_label
_atom_site_type_symbol
_atom_site_fract_x
_atom_site_fract_y
_atom_site_fract_z
_atom_type_partial_charge
Co0 Co 0.13071 0.41015 0.318 0.0
O1 O 0.11927 0.40338 0.28207 0.0
O2 O 0.07492 0.37465 0.31294 0.0
C3 C 0.16931 0.47602 0.31676 0.0
O4 O 0.13429 0.41197 0.35733 0.0
Co5 Co 0.21836 0.4438 0.33321 0.0
O6 O 0.19843 0.44978 0.36701 0.0
C7 C 0.17072 0.36155 0.31641 0.0
C8 C 0.08328 0.37986 0.28845 0.0
C9 C 0.16245 0.43095 0.37348 0.0
O10 O 0.1397 0.36419 0.31756 0.0
O11 O 0.2053 0.39089 0.31938 0.0
O12 O 0.13157 0.4605 0.31793 0.0
O13 O 0.18146 0.45143 0.31355 0.0
Co14 Co 0.74443 0.16018 0.64826 0.0
O15 O 0.74986 0.15885 0.61175 0.0
O16 O 0.73023 0.10724 0.63719 0.0
C17 C 0.7122 0.19395 0.64726 0.0
O18 O 0.73579 0.15256 0.68731 0.0
Co19 Co 0.78418 0.24257 0.67513 0.0
O20 O 0.74885 0.21115 0.70353 0.0
C21 C 0.83046 0.20409 0.66318 0.0
C22 C 0.73803 0.12179 0.61395 0.0
C23 C 0.73602 0.17443 0.70596 0.0
O24 O 0.8004 0.17398 0.6535 0.0
O25 O 0.83017 0.23473 0.67126 0.0
O26 O 0.69321 0.15612 0.64399 0.0
O27 O 0.74969 0.20998 0.64836 0.0
Co28 Co 0.58387 0.72947 0.97684 0.0
O29 O 0.59134 0.7142 0.94352 0.0
O30 O 0.62175 0.71154 0.97872 0.0
C31 C 0.51825 0.69803 0.97409 0.0
O32 O 0.58104 0.74303 0.01462 0.0
Co33 Co 0.54598 0.7824 0.97851 0.0
O34 O 0.54089 0.76832 0.01559 0.0
C35 C 0.62956 0.81755 0.96597 0.0
C36 C 0.61589 0.70587 0.95399 0.0
C37 C 0.56102 0.7556 0.0269 0.0
O38 O 0.62762 0.78462 0.97081 0.0
O39 O 0.59958 0.82195 0.96572 0.0
O40 O 0.53564 0.67899 0.9812 0.0
O41 O 0.54105 0.73373 0.96665 0.0
Co42 Co 0.86324 0.58155 0.319 0.0
O43 O 0.87898 0.59112 0.28389 0.0
O44 O 0.91934 0.61883 0.31686 0.0
C45 C 0.82656 0.51583 0.31468 0.0
O46 O 0.85442 0.57681 0.35799 0.0
Co47 Co 0.77362 0.54443 0.32902 0.0
O48 O 0.78939 0.53744 0.36402 0.0
C49 C 0.82132 0.62814 0.31532 0.0
C50 C 0.91384 0.6153 0.292 0.0
C51 C 0.82433 0.55666 0.37257 0.0
O52 O 0.85265 0.6264 0.31819 0.0
O53 O 0.78689 0.59799 0.31623 0.0
O54 O 0.86394 0.53196 0.31865 0.0
O55 O 0.81393 0.53997 0.31128 0.0
Co56 Co 0.25392 0.83787 0.64812 0.0
O57 O 0.25229 0.83946 0.61139 0.0
O58 O 0.2673 0.8904 0.63661 0.0
C59 C 0.28813 0.80618 0.64996 0.0
O60 O 0.25807 0.84493 0.68741 0.0
Co61 Co 0.21253 0.75466 0.67388 0.0
O62 O 0.24267 0.78584 0.70411 0.0
C63 C 0.16598 0.79079 0.65759 0.0
C64 C 0.26227 0.8761 0.61335 0.0
C65 C 0.25526 0.82253 0.70648 0.0
O66 O 0.19706 0.82213 0.65026 0.0
O67 O 0.16594 0.76006 0.66578 0.0
O68 O 0.3063 0.84401 0.64677 0.0
O69 O 0.25051 0.78891 0.64915 0.0
Co70 Co 0.41228 0.2667 0.97482 0.0
O71 O 0.40439 0.27041 0.93911 0.0
O72 O 0.37112 0.27986 0.96991 0.0
C73 C 0.47782 0.30175 0.97301 0.0
O74 O 0.41471 0.26405 0.01413 0.0
Co75 Co 0.45595 0.22121 0.98789 0.0
O76 O 0.45825 0.24416 0.02235 0.0
C77 C 0.37259 0.17729 0.97421 0.0
C78 C 0.37692 0.27745 0.94539 0.0
C79 C 0.43582 0.25689 0.02975 0.0
O80 O 0.37183 0.2095 0.97413 0.0
O81 O 0.404 0.1758 0.97701 0.0
O82 O 0.45802 0.31979 0.9752 0.0
O83 O 0.4574 0.26433 0.9694 0.0
Co84 Co 0.58237 0.84757 0.35088 0.0
O85 O 0.59026 0.85396 0.38722 0.0
O86 O 0.62033 0.90225 0.35913 0.0
C87 C 0.51665 0.81201 0.35378 0.0
O88 O 0.57997 0.8498 0.31145 0.0
Co89 Co 0.54121 0.7623 0.32863 0.0
O90 O 0.53528 0.78896 0.29808 0.0
C91 C 0.62621 0.80403 0.34033 0.0
C92 C 0.61483 0.89071 0.38309 0.0
C93 C 0.55832 0.8254 0.29379 0.0
O94 O 0.62553 0.83489 0.34768 0.0
O95 O 0.59571 0.77206 0.3334 0.0
O96 O 0.53423 0.85014 0.35394 0.0
O97 O 0.53919 0.79715 0.3537 0.0
Co98 Co 0.71327 0.58199 0.6884 0.0
O99 O 0.69894 0.58936 0.722 0.0
O100 O 0.69421 0.61914 0.68703 0.0
C101 C 0.68373 0.51611 0.69156 0.0
O102 O 0.72566 0.57901 0.65046 0.0
Co103 Co 0.76762 0.54573 0.68573 0.0
O104 O 0.75127 0.53901 0.64905 0.0
C105 C 0.80063 0.62923 0.69916 0.0
C106 C 0.68977 0.61359 0.71185 0.0
C107 C 0.73771 0.55864 0.63801 0.0
O108 O 0.76789 0.62698 0.69376 0.0
O109 O 0.80552 0.59941 0.69951 0.0
O110 O 0.66355 0.53244 0.68476 0.0
O111 O 0.71929 0.54004 0.69835 0.0
Co112 Co 0.14224 0.72277 0.02287 0.0
O113 O 0.12271 0.70785 0.05698 0.0
O114 O 0.08698 0.70715 0.02383 0.0
C115 C 0.17525 0.6901 0.02221 0.0
O116 O 0.15534 0.73679 0.98472 0.0
Co117 Co 0.23295 0.77426 0.01829 0.0
O118 O 0.22048 0.76135 0.98126 0.0
C119 C 0.18741 0.81045 0.03526 0.0
C120 C 0.08956 0.70198 0.04841 0.0
C121 C 0.18687 0.7493 0.97123 0.0
O122 O 0.1558 0.77822 0.03028 0.0
O123 O 0.22141 0.81405 0.034 0.0
O124 O 0.13816 0.67165 0.01671 0.0
O125 O 0.18941 0.72562 0.03034 0.0
Co126 Co 0.41413 0.15056 0.35029 0.0
O127 O 0.40853 0.1431 0.38666 0.0
O128 O 0.37564 0.09596 0.35824 0.0
C129 C 0.48007 0.18465 0.35031 0.0
O130 O 0.41421 0.15008 0.3107 0.0
Co131 Co 0.45448 0.23752 0.33072 0.0
O132 O 0.45807 0.21214 0.29872 0.0
C133 C 0.37064 0.19588 0.3446 0.0
C134 C 0.38275 0.10677 0.38231 0.0
C135 C 0.43517 0.17594 0.2935 0.0
O136 O 0.37154 0.16437 0.34966 0.0
O137 O 0.40093 0.22845 0.33833 0.0
O138 O 0.46162 0.14649 0.35081 0.0
O139 O 0.45832 0.20025 0.35262 0.0
Co140 Co 0.2838 0.41872 0.68543 0.0
O141 O 0.30234 0.41039 0.71724 0.0
O142 O 0.29957 0.3795 0.68081 0.0
C143 C 0.31579 0.48465 0.68859 0.0
O144 O 0.26625 0.42198 0.64894 0.0
Co145 Co 0.23186 0.45751 0.68853 0.0
O146 O 0.24132 0.46248 0.65078 0.0
C147 C 0.19807 0.37382 0.70139 0.0
C148 C 0.30754 0.38451 0.70536 0.0
C149 C 0.25257 0.44212 0.63812 0.0
O150 O 0.22955 0.3752 0.69367 0.0
O151 O 0.19428 0.40424 0.7031 0.0
O152 O 0.33379 0.46719 0.67951 0.0
O153 O 0.28115 0.46171 0.69741 0.0
Co154 Co 0.8438 0.26763 0.02315 0.0
O155 O 0.86426 0.28355 0.05693 0.0
O156 O 0.89971 0.28557 0.02324 0.0
C157 C 0.80985 0.29944 0.02356 0.0
O158 O 0.82987 0.25354 0.9851 0.0
Co159 Co 0.75328 0.21488 0.01916 0.0
O160 O 0.76475 0.22931 0.98227 0.0
C161 C 0.80068 0.17931 0.03368 0.0
C162 C 0.89792 0.29209 0.0477 0.0
C163 C 0.79815 0.24145 0.9719 0.0
O164 O 0.83195 0.21254 0.03014 0.0
O165 O 0.76627 0.1747 0.0323 0.0
O166 O 0.84666 0.3181 0.01745 0.0
O167 O 0.79619 0.2638 0.03147 0.0
C168 C 0.23696 0.53157 0.32307 0.0
C169 C 0.19674 0.51809 0.32152 0.0
C170 C 0.26328 0.57075 0.32872 0.0
C171 C 0.29667 0.6664 0.32025 0.0
H172 H 0.3436 0.68401 0.38809 0.0
C173 C 0.44908 0.80041 0.34532 0.0
C174 C 0.47385 0.78662 0.35366 0.0
C175 C 0.40853 0.77479 0.34424 0.0
C176 C 0.33031 0.67994 0.36925 0.0
H177 H 0.15253 0.53521 0.32411 0.0
H178 H 0.19943 0.60473 0.3338 0.0
H179 H 0.28166 0.62387 0.3795 0.0
H180 H 0.47594 0.73602 0.36817 0.0
H181 H 0.40574 0.69186 0.36668 0.0
H182 H 0.3472 0.72077 0.30931 0.0
C183 C 0.21002 0.58444 0.33073 0.0
C184 C 0.29489 0.64574 0.36442 0.0
C185 C 0.18341 0.54487 0.32524 0.0
C186 C 0.45754 0.74741 0.36158 0.0
C187 C 0.4173 0.72222 0.36099 0.0
C188 C 0.33221 0.70076 0.32509 0.0
C189 C 0.25002 0.59732 0.33271 0.0
C190 C 0.27886 0.63797 0.33961 0.0
C191 C 0.3924 0.73548 0.35212 0.0
C192 C 0.35029 0.70666 0.34925 0.0
H193 H 0.24821 0.51179 0.32024 0.0
H194 H 0.29415 0.58035 0.33017 0.0
H195 H 0.28489 0.6605 0.30089 0.0
H196 H 0.46108 0.83056 0.33903 0.0
H197 H 0.38984 0.78552 0.33714 0.0
C198 C 0.65181 0.19972 0.65037 0.0
C199 C 0.69259 0.21663 0.65277 0.0
C200 C 0.63388 0.22178 0.65626 0.0
C201 C 0.64082 0.29719 0.69694 0.0
H202 H 0.62457 0.35298 0.64116 0.0
C203 C 0.68903 0.45776 0.70285 0.0
C204 C 0.66821 0.4734 0.69069 0.0
C205 C 0.67638 0.41787 0.70103 0.0
C206 C 0.62762 0.33686 0.65704 0.0
H207 H 0.74645 0.26976 0.66299 0.0
H208 H 0.71509 0.30744 0.67383 0.0
H209 H 0.62996 0.29492 0.63177 0.0
H210 H 0.61719 0.45961 0.66764 0.0
H211 H 0.59528 0.38924 0.66397 0.0
H212 H 0.64144 0.34057 0.72207 0.0
C213 C 0.69713 0.27734 0.66734 0.0
C214 C 0.63066 0.30368 0.65163 0.0
C215 C 0.71501 0.25574 0.66108 0.0
C216 C 0.63375 0.44818 0.67719 0.0
C217 C 0.62125 0.40806 0.6751 0.0
C218 C 0.63752 0.33011 0.70239 0.0
C219 C 0.65656 0.26057 0.66503 0.0
C220 C 0.63935 0.28503 0.67141 0.0
C221 C 0.64271 0.39264 0.68685 0.0
C222 C 0.63335 0.35167 0.68229 0.0
H223 H 0.63389 0.16964 0.64392 0.0
H224 H 0.6025 0.20859 0.65424 0.0
H225 H 0.64775 0.28321 0.71241 0.0
H226 H 0.71563 0.4765 0.71345 0.0
H227 H 0.69406 0.40712 0.70985 0.0
C228 C 0.45212 0.64562 0.98879 0.0
C229 C 0.47559 0.68092 0.97549 0.0
C230 C 0.41199 0.63117 0.99153 0.0
C231 C 0.32966 0.64188 0.9673 0.0
H232 H 0.29749 0.62908 0.03884 0.0
C233 C 0.23643 0.68942 0.03098 0.0
C234 C 0.20049 0.67311 0.01808 0.0
C235 C 0.26232 0.67606 0.02588 0.0
C236 C 0.30574 0.63179 0.01873 0.0
H237 H 0.47552 0.72781 0.95359 0.0
H238 H 0.40574 0.70272 0.95837 0.0
H239 H 0.35859 0.63177 0.02733 0.0
H240 H 0.16278 0.62954 0.99017 0.0
H241 H 0.20908 0.60677 0.98058 0.0
H242 H 0.27805 0.64464 0.959 0.0
C243 C 0.41809 0.68601 0.96655 0.0
C244 C 0.34056 0.6331 0.01211 0.0
C245 C 0.45813 0.70062 0.96406 0.0
C246 C 0.19033 0.64242 1.00042 0.0
C247 C 0.2167 0.62947 0.99493 0.0
C248 C 0.29466 0.64029 0.97391 0.0
C249 C 0.39474 0.65156 0.98071 0.0
C250 C 0.35374 0.64008 0.9865 0.0
C251 C 0.25306 0.64649 0.0075 0.0
C252 C 0.28345 0.63716 0.99984 0.0
H253 H 0.4649 0.62981 0.99772 0.0
H254 H 0.3946 0.60455 0.00255 0.0
H255 H 0.33902 0.64684 0.94737 0.0
H256 H 0.24491 0.71307 0.04471 0.0
H257 H 0.29043 0.69018 0.03551 0.0
C258 C 0.54646 0.19202 0.34392 0.0
C259 C 0.52216 0.20863 0.34456 0.0
C260 C 0.58629 0.21543 0.33799 0.0
C261 C 0.65329 0.29693 0.30101 0.0
H262 H 0.7261 0.34592 0.35751 0.0
C263 C 0.76237 0.45836 0.30349 0.0
C264 C 0.79976 0.47304 0.31409 0.0
C265 C 0.73576 0.41823 0.30357 0.0
C266 C 0.70672 0.33175 0.34135 0.0
H267 H 0.52047 0.26257 0.33963 0.0
H268 H 0.58927 0.30273 0.32872 0.0
H269 H 0.66337 0.28597 0.36515 0.0
H270 H 0.83912 0.45739 0.33269 0.0
H271 H 0.79161 0.38643 0.33347 0.0
H272 H 0.69498 0.34417 0.27761 0.0
C273 C 0.57758 0.27181 0.33291 0.0
C274 C 0.67091 0.29749 0.34575 0.0
C275 C 0.53825 0.2488 0.33919 0.0
C276 C 0.8104 0.4467 0.32438 0.0
C277 C 0.78336 0.40626 0.32481 0.0
C278 C 0.68904 0.33094 0.29658 0.0
C279 C 0.60181 0.25535 0.33224 0.0
C280 C 0.64327 0.28121 0.32589 0.0
C281 C 0.74573 0.39175 0.31446 0.0
C282 C 0.71499 0.34999 0.31708 0.0
H283 H 0.53476 0.16112 0.34806 0.0
H284 H 0.6048 0.20242 0.33767 0.0
H285 H 0.63213 0.28482 0.28552 0.0
H286 H 0.7534 0.47797 0.29535 0.0
H287 H 0.70672 0.40808 0.29595 0.0
C288 C 0.34868 0.8007 0.65115 0.0
C289 C 0.30859 0.78466 0.65634 0.0
C290 C 0.36725 0.77914 0.65669 0.0
C291 C 0.36426 0.70495 0.69823 0.0
H292 H 0.37489 0.649 0.64017 0.0
C293 C 0.31424 0.54412 0.70242 0.0
C294 C 0.33257 0.52758 0.68823 0.0
C295 C 0.32779 0.58423 0.70117 0.0
C296 C 0.37349 0.66515 0.65663 0.0
H297 H 0.25679 0.73405 0.67181 0.0
H298 H 0.28938 0.69739 0.68221 0.0
H299 H 0.36952 0.70747 0.63271 0.0
H300 H 0.38028 0.54006 0.66219 0.0
H301 H 0.40382 0.61087 0.6596 0.0
H302 H 0.36553 0.66137 0.72213 0.0
C303 C 0.3063 0.72634 0.67369 0.0
C304 C 0.37042 0.69859 0.65232 0.0
C305 C 0.28766 0.74729 0.66762 0.0
C306 C 0.36561 0.55217 0.6733 0.0
C307 C 0.37905 0.59256 0.67182 0.0
C308 C 0.36774 0.67186 0.70257 0.0
C309 C 0.34606 0.74193 0.66813 0.0
C310 C 0.36352 0.71722 0.67301 0.0
C311 C 0.35994 0.60887 0.68557 0.0
C312 C 0.36974 0.65015 0.6817 0.0
H313 H 0.36541 0.82944 0.64235 0.0
H314 H 0.3979 0.79137 0.65207 0.0
H315 H 0.3589 0.71899 0.71442 0.0
H316 H 0.2888 0.52593 0.71417 0.0
H317 H 0.31182 0.59561 0.71156 0.0
C318 C 0.74738 0.29843 0.03168 0.0
C319 C 0.78505 0.31728 0.02103 0.0
C320 C 0.72305 0.31423 0.02845 0.0
C321 C 0.70188 0.36808 0.98189 0.0
H322 H 0.62746 0.35923 0.03392 0.0
C323 C 0.54104 0.30572 0.9638 0.0
C324 C 0.52045 0.32171 0.97581 0.0
C325 C 0.58088 0.32177 0.9682 0.0
C326 C 0.64861 0.36299 0.01929 0.0
H327 H 0.82742 0.36795 0.99926 0.0
H328 H 0.78422 0.39515 0.99302 0.0
H329 H 0.68571 0.35687 0.04666 0.0
H330 H 0.52502 0.36759 1.00117 0.0
H331 H 0.59514 0.39494 0.0098 0.0
H332 H 0.6632 0.37109 0.95434 0.0
C333 C 0.77382 0.36839 0.00409 0.0
C334 C 0.6817 0.36128 0.02655 0.0
C335 C 0.79841 0.35279 0.00762 0.0
C336 C 0.54051 0.35494 0.99164 0.0
C337 C 0.58042 0.37053 0.99655 0.0
C338 C 0.66863 0.36944 0.97462 0.0
C339 C 0.73579 0.349 0.01428 0.0
C340 C 0.70751 0.36177 0.00776 0.0
C341 C 0.60073 0.35366 0.9851 0.0
C342 C 0.64077 0.36486 0.99314 0.0
H343 H 0.73642 0.2711 0.0422 0.0
H344 H 0.69361 0.29826 0.0361 0.0
H345 H 0.72127 0.36845 0.96701 0.0
H346 H 0.52614 0.28017 0.95145 0.0
H347 H 0.59568 0.30777 0.95948 0.0
C348 C 0.19419 0.31805 0.29952 0.0
C349 C 0.16644 0.32241 0.31363 0.0
C350 C 0.19427 0.28272 0.30024 0.0
C351 C 0.18231 0.21321 0.34689 0.0
H352 H 0.21997 0.17697 0.2903 0.0
C353 C 0.29883 0.16327 0.35518 0.0
C354 C 0.33224 0.19348 0.34293 0.0
C355 C 0.26219 0.16012 0.35163 0.0
C356 C 0.20832 0.18552 0.30633 0.0
H357 H 0.11569 0.29301 0.33849 0.0
H358 H 0.11702 0.2313 0.34072 0.0
H359 H 0.17916 0.20588 0.2814 0.0
H360 H 0.35327 0.24354 0.31714 0.0
H361 H 0.28986 0.23766 0.31083 0.0
H362 H 0.21538 0.19698 0.37153 0.0
C363 C 0.13798 0.25495 0.32862 0.0
C364 C 0.18508 0.20211 0.30125 0.0
C365 C 0.13729 0.29014 0.32734 0.0
C366 C 0.32831 0.2202 0.32709 0.0
C367 C 0.29191 0.21652 0.32315 0.0
C368 C 0.20562 0.19657 0.35198 0.0
C369 C 0.16712 0.25136 0.31556 0.0
C370 C 0.1747 0.21902 0.32131 0.0
C371 C 0.25856 0.18641 0.33519 0.0
C372 C 0.22127 0.18562 0.33151 0.0
H373 H 0.21683 0.34251 0.28876 0.0
H374 H 0.21751 0.28105 0.29033 0.0
H375 H 0.17465 0.22602 0.36271 0.0
H376 H 0.30104 0.14221 0.36745 0.0
H377 H 0.23679 0.13709 0.3614 0.0
C378 C 0.87451 0.17619 0.65439 0.0
C379 C 0.86614 0.20199 0.66807 0.0
C380 C 0.90809 0.17415 0.66026 0.0
C381 C 0.9824 0.19982 0.71126 0.0
H382 H 0.05904 0.2391 0.65635 0.0
C383 C 0.1316 0.33113 0.71995 0.0
C384 C 0.1631 0.33483 0.70534 0.0
C385 C 0.09569 0.29626 0.71936 0.0
C386 C 0.03791 0.22683 0.67184 0.0
H387 H 0.88548 0.2446 0.69921 0.0
H388 H 0.94316 0.24091 0.7093 0.0
H389 H 0.98984 0.20935 0.64593 0.0
H390 H 0.18278 0.30391 0.68036 0.0
H391 H 0.11935 0.24329 0.67871 0.0
H392 H 0.03076 0.22113 0.73731 0.0
C393 C 0.92404 0.2222 0.69415 0.0
C394 C -0.00177 0.20975 0.66584 0.0
C395 C 0.89128 0.22482 0.68801 0.0
C396 C 0.15893 0.30194 0.69178 0.0
C397 C 0.12271 0.26724 0.6908 0.0
C398 C 0.02201 0.21703 0.71727 0.0
C399 C 0.93293 0.19701 0.68036 0.0
C400 C 0.97056 0.19894 0.68564 0.0
C401 C 0.09043 0.26465 0.70385 0.0
C402 C 0.05018 0.23328 0.69769 0.0
H403 H 0.85547 0.15807 0.63903 0.0
H404 H 0.91471 0.1549 0.64915 0.0
H405 H 0.96141 0.19103 0.72683 0.0
H406 H 0.13408 0.35586 0.73073 0.0
H407 H 0.07121 0.2953 0.72941 0.0
C408 C 0.83728 0.14429 0.02426 0.0
C409 C 0.80437 0.14379 0.03508 0.0
C410 C 0.83658 0.10912 0.01896 0.0
C411 C 0.80048 0.03393 0.98651 0.0
H412 H 0.75039 0.93872 0.02743 0.0
C413 C 0.67308 0.88845 0.95514 0.0
C414 C 0.66861 0.85323 0.96504 0.0
C415 C 0.70672 0.92415 0.96058 0.0
C416 C 0.76542 0.96506 0.0158 0.0
H417 H 0.74697 0.10649 0.05162 0.0
H418 H 0.74611 0.0452 0.04289 0.0
H419 H 0.7791 0.00257 0.04873 0.0
H420 H 0.69763 0.82729 0.98601 0.0
H421 H 0.75588 0.88993 0.99612 0.0
H422 H 0.78334 0.9963 0.95343 0.0
C423 C 0.77224 0.07271 0.03823 0.0
C424 C 0.78161 0.00153 0.02801 0.0
C425 C 0.7726 0.10779 0.04309 0.0
C426 C 0.70011 0.85398 0.97819 0.0
C427 C 0.73346 0.88979 0.98404 0.0
C428 C 0.78375 0.99743 0.97427 0.0
C429 C 0.80337 0.07302 0.02495 0.0
C430 C 0.79752 0.03614 0.01337 0.0
C431 C 0.73615 0.92524 0.97633 0.0
C432 C 0.76437 0.96271 0.98877 0.0
H433 H 0.86229 0.17156 0.01789 0.0
H434 H 0.86093 0.11004 0.00878 0.0
H435 H 0.81238 0.0602 0.97476 0.0
H436 H 0.64946 0.88872 0.94474 0.0
H437 H 0.70795 0.95109 0.9545 0.0
C438 C 0.69704 0.83202 0.35222 0.0
C439 C 0.66436 0.80633 0.33731 0.0
C440 C 0.73293 0.83352 0.34867 0.0
C441 C 0.7865 0.80672 0.3023 0.0
H442 H 0.81374 0.76357 0.36049 0.0
C443 C 0.79767 0.67139 0.29805 0.0
C444 C 0.8249 0.66705 0.3128 0.0
C445 C 0.79741 0.70664 0.29851 0.0
C446 C 0.80776 0.77694 0.34419 0.0
H447 H 0.64401 0.76361 0.30627 0.0
H448 H 0.70604 0.76647 0.30002 0.0
H449 H 0.77522 0.79551 0.36741 0.0
H450 H 0.87445 0.69643 0.33865 0.0
H451 H 0.87275 0.75794 0.34036 0.0
H452 H 0.81522 0.78417 0.27878 0.0
C453 C 0.70421 0.78541 0.31444 0.0
C454 C 0.78571 0.79526 0.34818 0.0
C455 C 0.66846 0.78327 0.31833 0.0
C456 C 0.85323 0.69922 0.32703 0.0
C457 C 0.85234 0.73431 0.32801 0.0
C458 C 0.80834 0.78828 0.29832 0.0
C459 C 0.73672 0.81027 0.32963 0.0
C460 C 0.7724 0.80744 0.32701 0.0
C461 C 0.82385 0.73794 0.31415 0.0
C462 C 0.81651 0.77065 0.31903 0.0
H463 H 0.69462 0.85024 0.36691 0.0
H464 H 0.75754 0.85251 0.36082 0.0
H465 H 0.777 0.81647 0.28573 0.0
H466 H 0.77569 0.64705 0.28686 0.0
H467 H 0.7747 0.70843 0.28797 0.0
C468 C 0.12475 0.82174 0.64834 0.0
C469 C 0.12919 0.79176 0.65982 0.0
C470 C 0.09125 0.8244 0.65317 0.0
C471 C 0.01687 0.80022 0.70163 0.0
H472 H 0.9366 0.75988 0.64902 0.0
C473 C 0.86767 0.67313 0.71612 0.0
C474 C 0.83553 0.6685 0.7019 0.0
C475 C 0.90362 0.70772 0.71419 0.0
C476 C 0.95881 0.77263 0.66384 0.0
H477 H 0.10171 0.74098 0.68516 0.0
H478 H 0.04417 0.74597 0.69366 0.0
H479 H 0.00485 0.78637 0.63675 0.0
H480 H 0.81468 0.69745 0.67614 0.0
H481 H 0.87823 0.7577 0.67211 0.0
H482 H 0.97059 0.78278 0.72898 0.0
C483 C 0.06655 0.76742 0.68101 0.0
C484 C -0.00211 0.78778 0.65676 0.0
C485 C 0.09933 0.76428 0.67586 0.0
C486 C 0.83909 0.7003 0.68734 0.0
C487 C 0.87537 0.73473 0.68499 0.0
C488 C 0.97791 0.78519 0.70871 0.0
C489 C 0.06245 0.79768 0.67005 0.0
C490 C 0.02662 0.79886 0.67581 0.0
C491 C 0.90828 0.7381 0.69765 0.0
C492 C 0.94831 0.76841 0.69003 0.0
H493 H 0.14733 0.84339 0.63589 0.0
H494 H 0.08816 0.84756 0.64424 0.0
H495 H 0.03878 0.80886 0.71659 0.0
H496 H 0.86561 0.64916 0.72761 0.0
H497 H 0.92852 0.70918 0.72396 0.0
C498 C 0.30175 0.13957 0.98531 0.0
C499 C 0.33486 0.14021 0.97472 0.0
C500 C 0.2683 0.10388 0.99112 0.0
C501 C 0.23251 0.02791 0.02392 0.0
H502 H 0.18531 0.9347 0.981 0.0
C503 C 0.21672 0.88091 0.04801 0.0
C504 C 0.18477 0.84632 0.0384 0.0
C505 C 0.21847 0.91694 0.04464 0.0
C506 C 0.19719 0.96049 0.99321 0.0
H507 H 0.35766 0.10433 0.95966 0.0
H508 H 0.29869 0.04187 0.96915 0.0
H509 H 0.22 -0.00046 0.96093 0.0
H510 H 0.12761 0.8217 0.02033 0.0
H511 H 0.13165 0.88502 0.01368 0.0
H512 H 0.21349 0.9887 0.05623 0.0
C513 C 0.29887 0.069 0.97318 0.0
C514 C 0.21715 0.99748 0.98171 0.0
C515 C 0.33266 0.10465 0.96792 0.0
C516 C 0.15283 0.84794 0.02782 0.0
C517 C 0.15496 0.88407 0.02399 0.0
C518 C 0.21319 0.99086 0.03544 0.0
C519 C 0.26712 0.0684 0.98576 0.0
C520 C 0.2365 0.03127 0.99701 0.0
C521 C 0.18864 0.91896 0.03127 0.0
C522 C 0.19708 0.9569 0.02015 0.0
H523 H 0.30263 0.16657 0.99084 0.0
H524 H 0.24416 0.10395 1.00093 0.0
H525 H 0.24751 0.05367 0.03607 0.0
H526 H 0.24149 0.88049 0.05649 0.0
H527 H 0.24492 0.94353 0.05029 0.0
C528 C 0.93679 0.33982 0.08112 0.0
C529 C 0.93143 0.30862 0.06531 0.0
C530 C 0.95798 0.34799 0.10391 0.0
C531 C 0.98122 0.29548 0.15285 0.0
H532 H 0.03468 0.39849 0.18478 0.0
C533 C 0.05867 0.33247 0.25262 0.0
C534 C 0.05465 0.35959 0.26797 0.0
C535 C 0.04165 0.32251 0.22819 0.0
C536 C 0.01942 0.36948 0.17619 0.0
H537 H 0.94574 0.26279 0.05989 0.0
H538 H 0.98422 0.27776 0.09969 0.0
H539 H 0.01748 0.3926 0.13936 0.0
H540 H 0.02886 0.39662 0.27059 0.0
H541 H -0.00135 0.37904 0.22779 0.0
H542 H 0.98394 0.27265 0.18985 0.0
C543 C 0.97156 0.29567 0.09458 0.0
C544 C 0.00972 0.36609 0.15011 0.0
C545 C 0.95024 0.28755 0.07157 0.0
C546 C 0.03145 0.37488 0.25928 0.0
C547 C 0.01476 0.36529 0.23469 0.0
C548 C 0.99141 0.29897 0.17893 0.0
C549 C 0.97424 0.32495 0.11154 0.0
C550 C 0.98977 0.32899 0.13819 0.0
C551 C 0.02103 0.34021 0.21855 0.0
C552 C 0.00991 0.33595 0.19096 0.0
H553 H 0.92188 0.35597 0.07686 0.0
H554 H 0.95887 0.3704 0.11646 0.0
H555 H 0.96533 0.26637 0.14448 0.0
H556 H 0.07733 0.32116 0.25878 0.0
H557 H 0.04715 0.30332 0.21614 0.0
C558 C 0.71243 0.05681 0.59107 0.0
C559 C 0.7325 0.09808 0.59052 0.0
C560 C 0.70449 0.03535 0.56807 0.0
C561 C 0.69293 0.04565 0.4984 0.0
H562 H 0.69945 0.95096 0.49223 0.0
C563 C 0.65805 0.95796 0.40257 0.0
C564 C 0.63463 0.91702 0.40526 0.0
C565 C 0.67458 0.98181 0.42439 0.0
C566 C 0.69728 0.97726 0.49367 0.0
H567 H 0.76161 0.14916 0.56558 0.0
H568 H 0.74819 0.112 0.52593 0.0
H569 H 0.71856 0.98796 0.53249 0.0
H570 H 0.6109 0.86904 0.43289 0.0
H571 H 0.63896 0.91014 0.47035 0.0
H572 H 0.67087 0.03458 0.45982 0.0
C573 C 0.7378 0.09607 0.54389 0.0
C574 C 0.70816 -0.00162 0.51678 0.0
C575 C 0.74567 0.11736 0.56672 0.0
C576 C 0.62877 0.90047 0.43001 0.0
C577 C 0.64521 0.92408 0.45161 0.0
C578 C 0.68192 0.02446 0.47532 0.0
C579 C 0.71649 0.05485 0.54418 0.0
C580 C 0.70582 0.03266 0.51949 0.0
C581 C 0.66814 0.96505 0.44919 0.0
C582 C 0.6835 0.98973 0.47277 0.0
H583 H 0.70187 0.04115 0.60911 0.0
H584 H 0.68785 0.00356 0.56892 0.0
H585 H 0.69031 0.07169 0.49994 0.0
H586 H 0.66311 0.97154 0.38376 0.0
H587 H 0.69235 0.01332 0.42185 0.0
C588 C 0.61319 0.65554 0.92492 0.0
C589 C 0.63601 0.6918 0.9372 0.0
C590 C 0.62432 0.64824 0.90099 0.0
C591 C 0.6775 0.70536 0.84406 0.0
H592 H 0.64789 0.60243 0.81677 0.0
C593 C 0.70609 0.67057 0.73958 0.0
C594 C 0.67736 0.63457 0.72922 0.0
C595 C 0.70145 0.68187 0.76432 0.0
C596 C 0.65588 0.63132 0.82407 0.0
H597 H 0.68959 0.74787 0.93526 0.0
H598 H 0.7101 0.73471 0.89373 0.0
H599 H 0.64569 0.61102 0.86303 0.0
H600 H 0.62004 0.58392 0.73525 0.0
H601 H 0.61117 0.60419 0.77794 0.0
H602 H 0.68793 0.72552 0.80487 0.0
C603 C 0.68328 0.71203 0.90238 0.0
C604 C 0.65486 0.63628 0.85061 0.0
C605 C 0.67205 0.71926 0.92642 0.0
C606 C 0.64221 0.61222 0.74265 0.0
C607 C 0.63753 0.62344 0.76728 0.0
C608 C 0.67886 0.70043 0.81744 0.0
C609 C 0.65844 0.67729 0.88877 0.0
C610 C 0.66495 0.67319 0.86096 0.0
C611 C 0.6681 0.65709 0.77897 0.0
C612 C 0.66726 0.66316 0.80714 0.0
H613 H 0.58473 0.63443 0.93257 0.0
H614 H 0.60424 0.62129 0.89112 0.0
H615 H 0.68487 0.73411 0.85126 0.0
H616 H 0.73393 0.68766 0.72987 0.0
H617 H 0.72549 0.70798 0.77282 0.0
C618 C 0.06759 0.72936 0.08246 0.0
C619 C 0.0599 0.6967 0.06738 0.0
C620 C 0.05101 0.72437 0.10688 0.0
C621 C 0.01114 0.64899 0.15852 0.0
H622 H 0.99548 0.72731 0.19309 0.0
C623 C 0.97394 0.63316 0.26645 0.0
C624 C 0.94338 0.63987 0.27289 0.0
C625 C 0.99305 0.64614 0.24266 0.0
C626 C -0.00051 0.70496 0.18377 0.0
H627 H 0.0273 0.63331 0.06506 0.0
H628 H 0.99577 0.62426 0.10706 0.0
H629 H 0.01017 0.73393 0.14741 0.0
H630 H 0.91014 0.667 0.26074 0.0
H631 H 0.94277 0.68933 0.21962 0.0
H632 H -0.0018 0.61882 0.19455 0.0
C633 C 0.01563 0.65387 0.10047 0.0
C634 C 0.00833 0.70897 0.15749 0.0
C635 C 0.03283 0.65896 0.07613 0.0
C636 C 0.9342 0.66216 0.2563 0.0
C637 C 0.95298 0.67491 0.23263 0.0
C638 C 0.00163 0.64462 0.18471 0.0
C639 C 0.02608 0.68645 0.11672 0.0
C640 C 0.01427 0.68103 0.14443 0.0
C641 C 0.98149 0.66562 0.22495 0.0
C642 C 0.99552 0.67246 0.19771 0.0
H643 H 0.08937 0.75871 0.07637 0.0
H644 H 0.0603 0.75024 0.11869 0.0
H645 H 0.01643 0.62731 0.14946 0.0
H646 H 0.98093 0.61533 0.27879 0.0
H647 H 0.01546 0.63917 0.23765 0.0
C648 C 0.34042 0.03925 0.40161 0.0
C649 C 0.36298 0.08025 0.40437 0.0
C650 C 0.32417 0.01522 0.42338 0.0
C651 C 0.29975 0.01844 0.49235 0.0
H652 H 0.31281 0.92766 0.49944 0.0
C653 C 0.2859 0.94063 0.59023 0.0
C654 C 0.26813 0.89948 0.58972 0.0
C655 C 0.29365 0.96188 0.56716 0.0
C656 C 0.30845 0.95263 0.49767 0.0
H657 H 0.38515 0.12819 0.43199 0.0
H658 H 0.35735 0.08677 0.4694 0.0
H659 H 0.33112 0.96454 0.45923 0.0
H660 H 0.24301 0.8483 0.56469 0.0
H661 H 0.25597 0.88503 0.52495 0.0
H662 H 0.27769 0.00687 0.53098 0.0
C663 C 0.35177 0.07292 0.45065 0.0
C664 C 0.31883 0.97367 0.47455 0.0
C665 C 0.36805 0.09669 0.4291 0.0
C666 C 0.25718 0.88003 0.56583 0.0
C667 C 0.2648 0.90111 0.54294 0.0
C668 C 0.2894 0.9974 0.51549 0.0
C669 C 0.3299 0.0319 0.44817 0.0
C670 C 0.31506 0.00712 0.47171 0.0
C671 C 0.28372 0.9423 0.54322 0.0
C672 C 0.29392 0.96443 0.5185 0.0
H673 H 0.33599 0.02577 0.3828 0.0
H674 H 0.30723 0.98366 0.42085 0.0
H675 H 0.29599 0.04379 0.49067 0.0
H676 H 0.29469 0.9564 0.60833 0.0
H677 H 0.30847 0.99366 0.56802 0.0
C678 C 0.34782 0.3116 0.92096 0.0
C679 C 0.35241 0.27887 0.92466 0.0
C680 C 0.33516 0.31755 0.89699 0.0
C681 C 0.29851 0.27095 0.8319 0.0
H682 H 0.36171 0.37833 0.80831 0.0
C683 C 0.28324 0.32448 0.73098 0.0
C684 C 0.31547 0.35845 0.72104 0.0
C685 C 0.2859 0.3094 0.75479 0.0
C686 C 0.34433 0.34801 0.81439 0.0
H687 H 0.34442 0.22513 0.90757 0.0
H688 H 0.32303 0.23538 0.86622 0.0
H689 H 0.36391 0.36306 0.8532 0.0
H690 H 0.37656 0.40113 0.72658 0.0
H691 H 0.38237 0.37308 0.76708 0.0
H692 H 0.28062 0.25562 0.79272 0.0
C693 C 0.32851 0.25647 0.88135 0.0
C694 C 0.3448 0.3394 0.84042 0.0
C695 C 0.34097 0.2506 0.9051 0.0
C696 C 0.35154 0.37442 0.73368 0.0
C697 C 0.35448 0.35892 0.75722 0.0
C698 C 0.29847 0.27947 0.80576 0.0
C699 C 0.32712 0.29088 0.87651 0.0
C700 C 0.32226 0.30068 0.84953 0.0
C701 C 0.32104 0.3279 0.7689 0.0
C702 C 0.32173 0.31808 0.79658 0.0
H703 H 0.35685 0.33394 0.93573 0.0
H704 H 0.33362 0.344 0.89411 0.0
H705 H 0.2803 0.24084 0.83821 0.0
H706 H 0.25482 0.31242 0.72189 0.0
H707 H 0.25946 0.28557 0.76305 0.0
C708 C 0.13724 0.39089 0.41337 0.0
C709 C 0.15462 0.42781 0.40131 0.0
C710 C 0.1408 0.38826 0.44004 0.0
C711 C 0.16639 0.44347 0.50108 0.0
H712 H 0.21923 0.38588 0.51833 0.0
C713 C 0.24749 0.47124 0.59679 0.0
C714 C 0.24566 0.43925 0.61003 0.0
C715 C 0.23425 0.46708 0.57147 0.0
C716 C 0.20391 0.40156 0.51404 0.0
H717 H 0.18688 0.4907 0.40748 0.0
H718 H 0.19153 0.4862 0.45412 0.0
H719 H 0.19372 0.38147 0.4749 0.0
H720 H 0.22982 0.37812 0.60689 0.0
H721 H 0.20575 0.37041 0.56266 0.0
H722 H 0.1762 0.46351 0.54003 0.0
C723 C 0.17553 0.45932 0.4431 0.0
C724 C 0.18923 0.39895 0.48914 0.0
C725 C 0.17276 0.46193 0.41646 0.0
C726 C 0.23196 0.40339 0.59702 0.0
C727 C 0.21805 0.399 0.57169 0.0
C728 C 0.18056 0.44567 0.52603 0.0
C729 C 0.16105 0.42251 0.45501 0.0
C730 C 0.17109 0.42057 0.48228 0.0
C731 C 0.21807 0.43057 0.55883 0.0
C732 C 0.20045 0.42559 0.5327 0.0
H733 H 0.12381 0.36421 0.40197 0.0
H734 H 0.12924 0.35954 0.4488 0.0
H735 H 0.15225 0.46018 0.49636 0.0
H736 H 0.25824 0.49934 0.6063 0.0
H737 H 0.23607 0.49245 0.56197 0.0
C738 C 0.8207 0.2233 0.93156 0.0
C739 C 0.79827 0.23738 0.94357 0.0
C740 C 0.81347 0.21074 0.90578 0.0
C741 C 0.7327 0.17404 0.85821 0.0
H742 H 0.81219 0.19332 0.80745 0.0
C743 C 0.70862 0.17163 0.74931 0.0
C744 C 0.72882 0.15985 0.73268 0.0
C745 C 0.71326 0.17134 0.77594 0.0
C746 C 0.78958 0.18696 0.82155 0.0
H747 H 0.7531 0.25239 0.93758 0.0
H748 H 0.74149 0.23193 0.89277 0.0
H749 H 0.83151 0.21638 0.85166 0.0
H750 H 0.76782 0.13626 0.7308 0.0
H751 H 0.77595 0.13563 0.77758 0.0
H752 H 0.69088 0.14576 0.82802 0.0
C753 C 0.76361 0.22911 0.90328 0.0
C754 C 0.8007 0.20035 0.84687 0.0
C755 C 0.77059 0.2413 0.9289 0.0
C756 C 0.75128 0.14473 0.74323 0.0
C757 C 0.75646 0.14503 0.76997 0.0
C758 C 0.72164 0.1608 0.83298 0.0
C759 C 0.78381 0.21222 0.89166 0.0
C760 C 0.77242 0.19501 0.86532 0.0
C761 C 0.73874 0.15986 0.78653 0.0
C762 C 0.74996 0.16793 0.81417 0.0
H763 H 0.84194 0.21959 0.9425 0.0
H764 H 0.82967 0.19802 0.89738 0.0
H765 H 0.71003 0.16836 0.87211 0.0
H766 H 0.69168 0.18403 0.74161 0.0
H767 H 0.69935 0.18318 0.78807 0.0
C768 C 0.60232 0.85285 0.25576 0.0
C769 C 0.5647 0.83689 0.26641 0.0
C770 C 0.6071 0.85123 0.2291 0.0
C771 C 0.55677 0.83273 0.1661 0.0
H772 H 0.6135 0.77925 0.14819 0.0
C773 C 0.59904 0.77279 0.06835 0.0
C774 C 0.56344 0.75943 0.0553 0.0
C775 C 0.60285 0.78481 0.09419 0.0
C776 C 0.59804 0.79471 0.15274 0.0
H777 H 0.50301 0.80937 0.25762 0.0
H778 H 0.51134 0.80808 0.21118 0.0
H779 H 0.61565 0.80182 0.19237 0.0
H780 H 0.50324 0.74525 0.0595 0.0
H781 H 0.5093 0.76447 0.10447 0.0
H782 H 0.53886 0.82557 0.12673 0.0
C783 C 0.53716 0.82152 0.22325 0.0
C784 C 0.59937 0.80777 0.17806 0.0
C785 C 0.53235 0.82243 0.24984 0.0
C786 C 0.53115 0.75577 0.069 0.0
C787 C 0.5348 0.7673 0.09472 0.0
C788 C 0.55566 0.81999 0.14083 0.0
C789 C 0.57438 0.83431 0.21267 0.0
C790 C 0.57797 0.82608 0.18514 0.0
C791 C 0.57103 0.7834 0.10742 0.0
C792 C 0.57535 0.79981 0.13394 0.0
H793 H 0.62765 0.86338 0.26817 0.0
H794 H 0.63615 0.86159 0.22146 0.0
H795 H 0.54039 0.84718 0.17087 0.0
H796 H 0.62452 0.77632 0.05817 0.0
H797 H 0.63118 0.79697 0.10335 0.0
C798 C 0.84831 0.59563 0.41318 0.0
C799 C 0.82846 0.55894 0.40082 0.0
C800 C 0.843 0.59863 0.43962 0.0
C801 C 0.8078 0.542 0.49996 0.0
H802 H 0.76996 0.61308 0.51716 0.0
C803 C 0.73115 0.52596 0.59598 0.0
C804 C 0.74006 0.56022 0.60965 0.0
C805 C 0.74203 0.52798 0.57023 0.0
C806 C 0.78096 0.59346 0.51283 0.0
H807 H 0.78963 0.49653 0.40643 0.0
H808 H 0.78164 0.50147 0.45261 0.0
H809 H 0.79474 0.61404 0.47386 0.0
H810 H 0.76571 0.62332 0.60692 0.0
H811 H 0.7856 0.62718 0.56185 0.0
H812 H 0.79452 0.52147 0.53871 0.0
C813 C 0.80093 0.52796 0.442 0.0
C814 C 0.79526 0.5941 0.48803 0.0
C815 C 0.80559 0.52508 0.41559 0.0
C816 C 0.75801 0.59641 0.59666 0.0
C817 C 0.76956 0.59856 0.57087 0.0
C818 C 0.79396 0.54163 0.52476 0.0
C819 C 0.81841 0.56487 0.45412 0.0
C820 C 0.80814 0.56784 0.48122 0.0
C821 C 0.76295 0.56446 0.55762 0.0
C822 C 0.77949 0.5667 0.53141 0.0
H823 H 0.86555 0.62223 0.40211 0.0
H824 H 0.85701 0.6274 0.44854 0.0
H825 H 0.81793 0.52173 0.49534 0.0
H826 H 0.7172 0.49767 0.60558 0.0
H827 H 0.73517 0.50093 0.56046 0.0
C828 C 0.16338 0.76765 0.93133 0.0
C829 C 0.18626 0.75374 0.94293 0.0
C830 C 0.17028 0.78072 0.90563 0.0
C831 C 0.18349 0.79189 0.84636 0.0
H832 H 0.29385 0.85112 0.8291 0.0
C833 C 0.23522 0.84932 0.74307 0.0
C834 C 0.26019 0.83671 0.73323 0.0
C835 C 0.22848 0.84827 0.76967 0.0
C836 C 0.26293 0.83475 0.83358 0.0
H837 H 0.23177 0.73944 0.93621 0.0
H838 H 0.24301 0.76104 0.89162 0.0
H839 H 0.2739 0.82718 0.87286 0.0
H840 H 0.29972 0.81589 0.74331 0.0
H841 H 0.28929 0.81542 0.78951 0.0
H842 H 0.17266 0.79865 0.80674 0.0
C843 C 0.2207 0.7632 0.90239 0.0
C844 C 0.25144 0.82083 0.85864 0.0
C845 C 0.21397 0.75041 0.92788 0.0
C846 C 0.28095 0.8265 0.75047 0.0
C847 C 0.27471 0.82602 0.77696 0.0
C848 C 0.19503 0.80586 0.82117 0.0
C849 C 0.20012 0.78 0.89123 0.0
C850 C 0.2116 0.79818 0.86517 0.0
C851 C 0.24705 0.83512 0.78682 0.0
C852 C 0.23491 0.8265 0.81433 0.0
H853 H 0.14205 0.77087 0.94255 0.0
H854 H 0.15377 0.79329 0.89753 0.0
H855 H 0.1526 0.77462 0.85077 0.0
H856 H 0.21818 0.85643 0.73012 0.0
H857 H 0.20729 0.85583 0.77669 0.0
C858 C 0.3917 0.15285 0.25501 0.0
C859 C 0.42897 0.16673 0.26579 0.0
C860 C 0.38784 0.15944 0.22886 0.0
C861 C 0.44588 0.2348 0.18126 0.0
H862 H 0.36973 0.16738 0.13058 0.0
C863 C 0.46428 0.27022 0.07363 0.0
C864 C 0.43135 0.25822 0.0579 0.0
C865 C 0.46005 0.26144 0.09986 0.0
C866 C 0.39068 0.18681 0.1447 0.0
H867 H 0.4908 0.19446 0.25739 0.0
H868 H 0.48407 0.20468 0.21184 0.0
H869 H 0.3695 0.14155 0.17361 0.0
H870 H 0.36815 0.22939 0.05747 0.0
H871 H 0.3606 0.21425 0.10372 0.0
H872 H 0.4672 0.28002 0.15271 0.0
C873 C 0.4579 0.1897 0.22353 0.0
C874 C 0.39071 0.17188 0.16925 0.0
C875 C 0.46173 0.18328 0.24951 0.0
C876 C 0.39406 0.23952 0.06926 0.0
C877 C 0.38974 0.23029 0.09562 0.0
C878 C 0.4457 0.24973 0.15692 0.0
C879 C 0.42124 0.17998 0.21327 0.0
C880 C 0.41903 0.19547 0.18755 0.0
C881 C 0.4227 0.2401 0.11105 0.0
C882 C 0.41878 0.22572 0.13808 0.0
H883 H 0.36606 0.1407 0.26725 0.0
H884 H 0.35919 0.15146 0.22146 0.0
H885 H 0.46733 0.25413 0.19519 0.0
H886 H 0.49334 0.28433 0.06531 0.0
H887 H 0.48611 0.26919 0.11099 0.0
loop_
_geom_bond_atom_site_label_1
_geom_bond_atom_site_label_2
_geom_bond_distance
_geom_bond_site_symmetry_2
_ccdc_geom_bond_type
Co0 O1 2.216 . S
Co0 O2 2.091 . S
Co0 O4 2.004 . S
Co0 O10 2.021 . S
Co0 O12 2.137 . S
Co0 O13 2.244 . S
O1 Co0 2.216 . S
O1 C8 1.247 . S
O2 Co0 2.091 . S
O2 C8 1.261 . S
C3 O12 1.247 . S
C3 O13 1.272 . S
O4 Co0 2.004 . S
O4 C9 1.259 . S
Co5 O6 2.061 . S
Co5 O11 2.052 . S
Co5 O13 2.135 . S
O6 Co5 2.061 . S
O6 C9 1.235 . S
C7 O10 1.238 . S
C7 O11 1.241 . S
C8 O1 1.247 . S
C8 O2 1.261 . S
C9 O4 1.259 . S
C9 O6 1.235 . S
O10 Co0 2.021 . S
O10 C7 1.238 . S
O11 Co5 2.052 . S
O11 C7 1.241 . S
O12 Co0 2.137 . S
O12 C3 1.247 . S
O13 Co0 2.244 . S
O13 C3 1.272 . S
O13 Co5 2.135 . S
Co14 O15 2.216 . S
Co14 O16 2.091 . S
Co14 O18 2.004 . S
Co14 O24 2.021 . S
Co14 O26 2.137 . S
Co14 O27 2.244 . S
O15 Co14 2.216 . S
O15 C22 1.247 . S
O16 Co14 2.091 . S
O16 C22 1.261 . S
C17 O26 1.247 . S
C17 O27 1.272 . S
O18 Co14 2.004 . S
O18 C23 1.259 . S
Co19 O20 2.061 . S
Co19 O25 2.052 . S
Co19 O27 2.135 . S
O20 Co19 2.061 . S
O20 C23 1.235 . S
C21 O24 1.238 . S
C21 O25 1.241 . S
C22 O15 1.247 . S
C22 O16 1.261 . S
C23 O18 1.259 . S
C23 O20 1.235 . S
O24 Co14 2.021 . S
O24 C21 1.238 . S
O25 Co19 2.052 . S
O25 C21 1.241 . S
O26 Co14 2.137 . S
O26 C17 1.247 . S
O27 Co14 2.244 . S
O27 C17 1.272 . S
O27 Co19 2.135 . S
Co28 O29 2.216 . S
Co28 O30 2.091 . S
Co28 O32 2.004 1_556 S
Co28 O38 2.021 . S
Co28 O40 2.137 . S
Co28 O41 2.244 . S
O29 Co28 2.216 . S
O29 C36 1.247 . S
O30 Co28 2.091 . S
O30 C36 1.261 . S
C31 O40 1.247 . S
C31 O41 1.272 . S
O32 Co28 2.004 1_554 S
O32 C37 1.259 . S
Co33 O34 2.061 . S
Co33 O39 2.052 . S
Co33 O41 2.134 1_554 S
O34 Co33 2.061 . S
O34 C37 1.235 . S
C35 O38 1.238 . S
C35 O39 1.241 1_556 S
C36 O29 1.247 . S
C36 O30 1.261 . S
C37 O32 1.259 . S
C37 O34 1.235 . S
O38 Co28 2.021 . S
O38 C35 1.238 . S
O39 Co33 2.052 . S
O39 C35 1.241 1_554 S
O40 Co28 2.137 . S
O40 C31 1.247 . S
O41 Co28 2.244 . S
O41 C31 1.272 . S
O41 Co33 2.134 1_556 S
Co42 O43 2.216 . S
Co42 O44 2.091 . S
Co42 O46 2.004 . S
Co42 O52 2.021 . S
Co42 O54 2.137 . S
Co42 O55 2.244 . S
O43 Co42 2.216 . S
O43 C50 1.247 . S
O44 Co42 2.091 . S
O44 C50 1.261 . S
C45 O54 1.247 . S
C45 O55 1.272 . S
O46 Co42 2.004 . S
O46 C51 1.259 . S
Co47 O48 2.061 . S
Co47 O53 2.052 . S
Co47 O55 2.135 . S
O48 Co47 2.061 . S
O48 C51 1.235 . S
C49 O52 1.238 . S
C49 O53 1.241 . S
C50 O43 1.247 . S
C50 O44 1.261 . S
C51 O46 1.259 . S
C51 O48 1.235 . S
O52 Co42 2.021 . S
O52 C49 1.238 . S
O53 Co47 2.052 . S
O53 C49 1.241 . S
O54 Co42 2.137 . S
O54 C45 1.247 . S
O55 Co42 2.244 . S
O55 C45 1.272 . S
O55 Co47 2.135 . S
Co56 O57 2.216 . S
Co56 O58 2.091 . S
Co56 O60 2.004 . S
Co56 O66 2.021 . S
Co56 O68 2.137 . S
Co56 O69 2.244 . S
O57 Co56 2.216 . S
O57 C64 1.247 . S
O58 Co56 2.091 . S
O58 C64 1.261 . S
C59 O68 1.247 . S
C59 O69 1.272 . S
O60 Co56 2.004 . S
O60 C65 1.259 . S
Co61 O62 2.061 . S
Co61 O67 2.052 . S
Co61 O69 2.135 . S
O62 Co61 2.061 . S
O62 C65 1.235 . S
C63 O66 1.238 . S
C63 O67 1.241 . S
C64 O57 1.247 . S
C64 O58 1.261 . S
C65 O60 1.259 . S
C65 O62 1.235 . S
O66 Co56 2.021 . S
O66 C63 1.238 . S
O67 Co61 2.052 . S
O67 C63 1.241 . S
O68 Co56 2.137 . S
O68 C59 1.247 . S
O69 Co56 2.244 . S
O69 C59 1.272 . S
O69 Co61 2.135 . S
Co70 O71 2.216 . S
Co70 O72 2.091 . S
Co70 O74 2.004 1_556 S
Co70 O80 2.021 . S
Co70 O82 2.137 . S
Co70 O83 2.244 . S
O71 Co70 2.216 . S
O71 C78 1.247 . S
O72 Co70 2.091 . S
O72 C78 1.261 . S
C73 O82 1.247 . S
C73 O83 1.272 . S
O74 Co70 2.004 1_554 S
O74 C79 1.259 . S
Co75 O76 2.061 . S
Co75 O81 2.052 . S
Co75 O83 2.134 1_554 S
O76 Co75 2.061 . S
O76 C79 1.235 . S
C77 O80 1.238 . S
C77 O81 1.241 1_556 S
C78 O71 1.247 . S
C78 O72 1.261 . S
C79 O74 1.259 . S
C79 O76 1.235 . S
O80 Co70 2.021 . S
O80 C77 1.238 . S
O81 Co75 2.052 . S
O81 C77 1.241 1_554 S
O82 Co70 2.137 . S
O82 C73 1.247 . S
O83 Co70 2.244 . S
O83 C73 1.272 . S
O83 Co75 2.134 1_556 S
Co84 O85 2.216 . S
Co84 O86 2.091 . S
Co84 O88 2.004 . S
Co84 O94 2.021 . S
Co84 O96 2.137 . S
Co84 O97 2.244 . S
O85 Co84 2.216 . S
O85 C92 1.247 . S
O86 Co84 2.091 . S
O86 C92 1.261 . S
C87 O96 1.247 . S
C87 O97 1.272 . S
O88 Co84 2.004 . S
O88 C93 1.259 . S
Co89 O90 2.061 . S
Co89 O95 2.052 . S
Co89 O97 2.135 . S
O90 Co89 2.061 . S
O90 C93 1.235 . S
C91 O94 1.238 . S
C91 O95 1.241 . S
C92 O85 1.247 . S
C92 O86 1.261 . S
C93 O88 1.259 . S
C93 O90 1.235 . S
O94 Co84 2.021 . S
O94 C91 1.238 . S
O95 Co89 2.052 . S
O95 C91 1.241 . S
O96 Co84 2.137 . S
O96 C87 1.247 . S
O97 Co84 2.244 . S
O97 C87 1.272 . S
O97 Co89 2.135 . S
Co98 O99 2.216 . S
Co98 O100 2.091 . S
Co98 O102 2.004 . S
Co98 O108 2.021 . S
Co98 O110 2.137 . S
Co98 O111 2.244 . S
O99 Co98 2.216 . S
O99 C106 1.247 . S
O100 Co98 2.091 . S
O100 C106 1.261 . S
C101 O110 1.247 . S
C101 O111 1.272 . S
O102 Co98 2.004 . S
O102 C107 1.259 . S
Co103 O104 2.061 . S
Co103 O109 2.052 . S
Co103 O111 2.135 . S
O104 Co103 2.061 . S
O104 C107 1.235 . S
C105 O108 1.238 . S
C105 O109 1.241 . S
C106 O99 1.247 . S
C106 O100 1.261 . S
C107 O102 1.259 . S
C107 O104 1.235 . S
O108 Co98 2.021 . S
O108 C105 1.238 . S
O109 Co103 2.052 . S
O109 C105 1.241 . S
O110 Co98 2.137 . S
O110 C101 1.247 . S
O111 Co98 2.244 . S
O111 C101 1.272 . S
O111 Co103 2.135 . S
Co112 O113 2.216 . S
Co112 O114 2.091 . S
Co112 O116 2.004 1_554 S
Co112 O122 2.021 . S
Co112 O124 2.137 . S
Co112 O125 2.244 . S
O113 Co112 2.216 . S
O113 C120 1.247 . S
O114 Co112 2.091 . S
O114 C120 1.261 . S
C115 O124 1.247 . S
C115 O125 1.272 . S
O116 Co112 2.004 1_556 S
O116 C121 1.259 . S
Co117 O118 2.061 . S
Co117 O123 2.052 . S
Co117 O125 2.134 1_556 S
O118 Co117 2.061 . S
O118 C121 1.235 . S
C119 O122 1.238 . S
C119 O123 1.241 1_554 S
C120 O113 1.247 . S
C120 O114 1.261 . S
C121 O116 1.259 . S
C121 O118 1.235 . S
O122 Co112 2.021 . S
O122 C119 1.238 . S
O123 Co117 2.052 . S
O123 C119 1.241 1_556 S
O124 Co112 2.137 . S
O124 C115 1.247 . S
O125 Co112 2.244 . S
O125 C115 1.272 . S
O125 Co117 2.134 1_554 S
Co126 O127 2.216 . S
Co126 O128 2.091 . S
Co126 O130 2.004 . S
Co126 O136 2.021 . S
Co126 O138 2.137 . S
Co126 O139 2.244 . S
O127 Co126 2.216 . S
O127 C134 1.247 . S
O128 Co126 2.091 . S
O128 C134 1.261 . S
C129 O138 1.247 . S
C129 O139 1.272 . S
O130 Co126 2.004 . S
O130 C135 1.259 . S
Co131 O132 2.061 . S
Co131 O137 2.052 . S
Co131 O139 2.135 . S
O132 Co131 2.061 . S
O132 C135 1.235 . S
C133 O136 1.238 . S
C133 O137 1.241 . S
C134 O127 1.247 . S
C134 O128 1.261 . S
C135 O130 1.259 . S
C135 O132 1.235 . S
O136 Co126 2.021 . S
O136 C133 1.238 . S
O137 Co131 2.052 . S
O137 C133 1.241 . S
O138 Co126 2.137 . S
O138 C129 1.247 . S
O139 Co126 2.244 . S
O139 C129 1.272 . S
O139 Co131 2.135 . S
Co140 O141 2.216 . S
Co140 O142 2.091 . S
Co140 O144 2.004 . S
Co140 O150 2.021 . S
Co140 O152 2.137 . S
Co140 O153 2.244 . S
O141 Co140 2.216 . S
O141 C148 1.247 . S
O142 Co140 2.091 . S
O142 C148 1.261 . S
C143 O152 1.247 . S
C143 O153 1.272 . S
O144 Co140 2.004 . S
O144 C149 1.259 . S
Co145 O146 2.061 . S
Co145 O151 2.052 . S
Co145 O153 2.135 . S
O146 Co145 2.061 . S
O146 C149 1.235 . S
C147 O150 1.238 . S
C147 O151 1.241 . S
C148 O141 1.247 . S
C148 O142 1.261 . S
C149 O144 1.259 . S
C149 O146 1.235 . S
O150 Co140 2.021 . S
O150 C147 1.238 . S
O151 Co145 2.052 . S
O151 C147 1.241 . S
O152 Co140 2.137 . S
O152 C143 1.247 . S
O153 Co140 2.244 . S
O153 C143 1.272 . S
O153 Co145 2.135 . S
Co154 O155 2.216 . S
Co154 O156 2.091 . S
Co154 O158 2.004 1_554 S
Co154 O164 2.021 . S
Co154 O166 2.137 . S
Co154 O167 2.244 . S
O155 Co154 2.216 . S
O155 C162 1.247 . S
O156 Co154 2.091 . S
O156 C162 1.261 . S
C157 O166 1.247 . S
C157 O167 1.272 . S
O158 Co154 2.004 1_556 S
O158 C163 1.259 . S
Co159 O160 2.061 . S
Co159 O165 2.052 . S
Co159 O167 2.134 1_556 S
O160 Co159 2.061 . S
O160 C163 1.235 . S
C161 O164 1.238 . S
C161 O165 1.241 1_554 S
C162 O155 1.247 . S
C162 O156 1.261 . S
C163 O158 1.259 . S
C163 O160 1.235 . S
O164 Co154 2.021 . S
O164 C161 1.238 . S
O165 Co159 2.052 . S
O165 C161 1.241 1_556 S
O166 Co154 2.137 . S
O166 C157 1.247 . S
O167 Co154 2.244 . S
O167 C157 1.272 . S
O167 Co159 2.134 1_554 S
C168 C169 1.349 . S
C168 C170 1.327 . S
C168 H193 0.950 . S
C169 C168 1.349 . S
C169 C185 1.349 . S
C170 C168 1.327 . S
C170 C189 1.429 . S
C170 H194 0.950 . S
C171 C188 1.574 . S
C171 C190 1.368 . S
C171 H195 0.949 . S
H172 C176 0.949 . S
C173 C174 1.349 . S
C173 C175 1.327 . S
C173 H196 0.950 . S
C174 C173 1.349 . S
C174 C186 1.349 . S
C175 C173 1.327 . S
C175 C191 1.429 . S
C175 H197 0.950 . S
C176 H172 0.949 . S
C176 C184 1.574 . S
C176 C192 1.368 . S
H177 C185 0.950 . S
H178 C183 0.950 . S
H179 C184 0.949 . S
H180 C186 0.950 . S
H181 C187 0.950 . S
H182 C188 0.949 . S
C183 H178 0.950 . S
C183 C185 1.327 . S
C183 C189 1.429 . S
C184 C176 1.574 . S
C184 H179 0.949 . S
C184 C190 1.368 . S
C185 C169 1.349 . S
C185 H177 0.950 . S
C185 C183 1.327 . S
C186 C174 1.349 . S
C186 H180 0.950 . S
C186 C187 1.327 . S
C187 H181 0.950 . S
C187 C186 1.327 . S
C187 C191 1.429 . S
C188 C171 1.574 . S
C188 H182 0.949 . S
C188 C192 1.368 . S
C189 C170 1.429 . S
C189 C183 1.429 . S
C189 C190 1.523 . S
C190 C171 1.368 . S
C190 C184 1.368 . S
C190 C189 1.523 . S
C191 C175 1.429 . S
C191 C187 1.429 . S
C191 C192 1.523 . S
C192 C176 1.368 . S
C192 C188 1.368 . S
C192 C191 1.523 . S
H193 C168 0.950 . S
H194 C170 0.950 . S
H195 C171 0.949 . S
H196 C173 0.950 . S
H197 C175 0.950 . S
C198 C199 1.349 . S
C198 C200 1.327 . S
C198 H223 0.950 . S
C199 C198 1.349 . S
C199 C215 1.349 . S
C200 C198 1.327 . S
C200 C219 1.429 . S
C200 H224 0.950 . S
C201 C218 1.574 . S
C201 C220 1.368 . S
C201 H225 0.949 . S
H202 C206 0.949 . S
C203 C204 1.349 . S
C203 C205 1.327 . S
C203 H226 0.950 . S
C204 C203 1.349 . S
C204 C216 1.349 . S
C205 C203 1.327 . S
C205 C221 1.429 . S
C205 H227 0.950 . S
C206 H202 0.949 . S
C206 C214 1.574 . S
C206 C222 1.368 . S
H207 C215 0.950 . S
H208 C213 0.950 . S
H209 C214 0.949 . S
H210 C216 0.950 . S
H211 C217 0.950 . S
H212 C218 0.949 . S
C213 H208 0.950 . S
C213 C215 1.327 . S
C213 C219 1.429 . S
C214 C206 1.574 . S
C214 H209 0.949 . S
C214 C220 1.368 . S
C215 C199 1.349 . S
C215 H207 0.950 . S
C215 C213 1.327 . S
C216 C204 1.349 . S
C216 H210 0.950 . S
C216 C217 1.327 . S
C217 H211 0.950 . S
C217 C216 1.327 . S
C217 C221 1.429 . S
C218 C201 1.574 . S
C218 H212 0.949 . S
C218 C222 1.368 . S
C219 C200 1.429 . S
C219 C213 1.429 . S
C219 C220 1.523 . S
C220 C201 1.368 . S
C220 C214 1.368 . S
C220 C219 1.523 . S
C221 C205 1.429 . S
C221 C217 1.429 . S
C221 C222 1.523 . S
C222 C206 1.368 . S
C222 C218 1.368 . S
C222 C221 1.523 . S
H223 C198 0.950 . S
H224 C200 0.950 . S
H225 C201 0.949 . S
H226 C203 0.950 . S
H227 C205 0.950 . S
C228 C229 1.349 1_554 S
C228 C230 1.327 . S
C228 H253 0.950 . S
C229 C228 1.349 1_556 S
C229 C245 1.349 . S
C230 C228 1.327 . S
C230 C249 1.429 1_554 S
C230 H254 0.950 . S
C231 C248 1.574 . S
C231 C250 1.368 . S
C231 H255 0.949 . S
H232 C236 0.949 . S
C233 C234 1.349 1_556 S
C233 C235 1.327 . S
C233 H256 0.950 . S
C234 C233 1.349 1_554 S
C234 C246 1.349 . S
C235 C233 1.327 . S
C235 C251 1.429 1_556 S
C235 H257 0.950 . S
C236 H232 0.949 . S
C236 C244 1.574 . S
C236 C252 1.392 . S
H237 C245 0.950 . S
H238 C243 0.950 . S
H239 C244 0.949 . S
H240 C246 0.950 . S
H241 C247 0.950 . S
H242 C248 0.949 . S
C243 H238 0.950 . S
C243 C245 1.327 . S
C243 C249 1.429 . S
C244 C236 1.574 . S
C244 H239 0.949 . S
C244 C250 1.368 1_554 S
C245 C229 1.349 . S
C245 H237 0.950 . S
C245 C243 1.327 . S
C246 C234 1.349 . S
C246 H240 0.950 . S
C246 C247 1.327 . S
C247 H241 0.950 . S
C247 C246 1.327 . S
C247 C251 1.429 . S
C248 C231 1.574 . S
C248 H242 0.949 . S
C248 C252 1.344 1_556 S
C249 C230 1.429 1_556 S
C249 C243 1.429 . S
C249 C250 1.523 . S
C250 C231 1.368 . S
C250 C244 1.368 1_556 S
C250 C249 1.523 . S
C251 C235 1.429 1_554 S
C251 C247 1.429 . S
C251 C252 1.526 . S
C252 C236 1.392 . S
C252 C248 1.344 1_554 S
C252 C251 1.526 . S
H253 C228 0.950 . S
H254 C230 0.950 . S
H255 C231 0.949 . S
H256 C233 0.950 . S
H257 C235 0.950 . S
C258 C259 1.349 . S
C258 C260 1.327 . S
C258 H283 0.950 . S
C259 C258 1.349 . S
C259 C275 1.349 . S
C260 C258 1.327 . S
C260 C279 1.429 . S
C260 H284 0.950 . S
C261 C278 1.574 . S
C261 C280 1.368 . S
C261 H285 0.949 . S
H262 C266 0.949 . S
C263 C264 1.349 . S
C263 C265 1.327 . S
C263 H286 0.950 . S
C264 C263 1.349 . S
C264 C276 1.349 . S
C265 C263 1.327 . S
C265 C281 1.429 . S
C265 H287 0.950 . S
C266 H262 0.949 . S
C266 C274 1.574 . S
C266 C282 1.368 . S
H267 C275 0.950 . S
H268 C273 0.950 . S
H269 C274 0.949 . S
H270 C276 0.950 . S
H271 C277 0.950 . S
H272 C278 0.949 . S
C273 H268 0.950 . S
C273 C275 1.327 . S
C273 C279 1.429 . S
C274 C266 1.574 . S
C274 H269 0.949 . S
C274 C280 1.368 . S
C275 C259 1.349 . S
C275 H267 0.950 . S
C275 C273 1.327 . S
C276 C264 1.349 . S
C276 H270 0.950 . S
C276 C277 1.327 . S
C277 H271 0.950 . S
C277 C276 1.327 . S
C277 C281 1.429 . S
C278 C261 1.574 . S
C278 H272 0.949 . S
C278 C282 1.368 . S
C279 C260 1.429 . S
C279 C273 1.429 . S
C279 C280 1.523 . S
C280 C261 1.368 . S
C280 C274 1.368 . S
C280 C279 1.523 . S
C281 C265 1.429 . S
C281 C277 1.429 . S
C281 C282 1.523 . S
C282 C266 1.368 . S
C282 C278 1.368 . S
C282 C281 1.523 . S
H283 C258 0.950 . S
H284 C260 0.950 . S
H285 C261 0.949 . S
H286 C263 0.950 . S
H287 C265 0.950 . S
C288 C289 1.349 . S
C288 C290 1.327 . S
C288 H313 0.950 . S
C289 C288 1.349 . S
C289 C305 1.349 . S
C290 C288 1.327 . S
C290 C309 1.429 . S
C290 H314 0.950 . S
C291 C308 1.574 . S
C291 C310 1.368 . S
C291 H315 0.949 . S
H292 C296 0.949 . S
C293 C294 1.349 . S
C293 C295 1.327 . S
C293 H316 0.950 . S
C294 C293 1.349 . S
C294 C306 1.349 . S
C295 C293 1.327 . S
C295 C311 1.429 . S
C295 H317 0.950 . S
C296 H292 0.949 . S
C296 C304 1.574 . S
C296 C312 1.368 . S
H297 C305 0.950 . S
H298 C303 0.950 . S
H299 C304 0.949 . S
H300 C306 0.950 . S
H301 C307 0.950 . S
H302 C308 0.949 . S
C303 H298 0.950 . S
C303 C305 1.327 . S
C303 C309 1.429 . S
C304 C296 1.574 . S
C304 H299 0.949 . S
C304 C310 1.368 . S
C305 C289 1.349 . S
C305 H297 0.950 . S
C305 C303 1.327 . S
C306 C294 1.349 . S
C306 H300 0.950 . S
C306 C307 1.327 . S
C307 H301 0.950 . S
C307 C306 1.327 . S
C307 C311 1.429 . S
C308 C291 1.574 . S
C308 H302 0.949 . S
C308 C312 1.368 . S
C309 C290 1.429 . S
C309 C303 1.429 . S
C309 C310 1.523 . S
C310 C291 1.368 . S
C310 C304 1.368 . S
C310 C309 1.523 . S
C311 C295 1.429 . S
C311 C307 1.429 . S
C311 C312 1.523 . S
C312 C296 1.368 . S
C312 C308 1.368 . S
C312 C311 1.523 . S
H313 C288 0.950 . S
H314 C290 0.950 . S
H315 C291 0.949 . S
H316 C293 0.950 . S
H317 C295 0.950 . S
C318 C319 1.349 . S
C318 C320 1.327 . S
C318 H343 0.950 . S
C319 C318 1.349 . S
C319 C335 1.349 1_554 S
C320 C318 1.327 . S
C320 C339 1.429 . S
C320 H344 0.950 . S
C321 C338 1.574 . S
C321 C340 1.368 1_556 S
C321 H345 0.949 . S
H322 C326 0.949 . S
C323 C324 1.349 . S
C323 C325 1.327 . S
C323 H346 0.950 . S
C324 C323 1.349 . S
C324 C336 1.349 1_556 S
C325 C323 1.327 . S
C325 C341 1.429 . S
C325 H347 0.950 . S
C326 H322 0.949 . S
C326 C334 1.574 . S
C326 C342 1.344 1_554 S
H327 C335 0.950 . S
H328 C333 0.950 . S
H329 C334 0.949 . S
H330 C336 0.950 . S
H331 C337 0.950 . S
H332 C338 0.949 . S
C333 H328 0.950 . S
C333 C335 1.327 . S
C333 C339 1.429 1_556 S
C334 C326 1.574 . S
C334 H329 0.949 . S
C334 C340 1.368 . S
C335 C319 1.349 1_556 S
C335 H327 0.950 . S
C335 C333 1.327 . S
C336 C324 1.349 1_554 S
C336 H330 0.950 . S
C336 C337 1.327 . S
C337 H331 0.950 . S
C337 C336 1.327 . S
C337 C341 1.429 1_554 S
C338 C321 1.574 . S
C338 H332 0.949 . S
C338 C342 1.392 . S
C339 C320 1.429 . S
C339 C333 1.429 1_554 S
C339 C340 1.523 . S
C340 C321 1.368 1_554 S
C340 C334 1.368 . S
C340 C339 1.523 . S
C341 C325 1.429 . S
C341 C337 1.429 1_556 S
C341 C342 1.526 . S
C342 C326 1.344 1_556 S
C342 C338 1.392 . S
C342 C341 1.526 . S
H343 C318 0.950 . S
H344 C320 0.950 . S
H345 C321 0.949 . S
H346 C323 0.950 . S
H347 C325 0.950 . S
C348 C349 1.349 . S
C348 C350 1.327 . S
C348 H373 0.950 . S
C349 C348 1.349 . S
C349 C365 1.349 . S
C350 C348 1.327 . S
C350 C369 1.429 . S
C350 H374 0.950 . S
C351 C368 1.574 . S
C351 C370 1.368 . S
C351 H375 0.949 . S
H352 C356 0.949 . S
C353 C354 1.349 . S
C353 C355 1.327 . S
C353 H376 0.950 . S
C354 C353 1.349 . S
C354 C366 1.349 . S
C355 C353 1.327 . S
C355 C371 1.429 . S
C355 H377 0.950 . S
C356 H352 0.949 . S
C356 C364 1.574 . S
C356 C372 1.368 . S
H357 C365 0.950 . S
H358 C363 0.950 . S
H359 C364 0.949 . S
H360 C366 0.950 . S
H361 C367 0.950 . S
H362 C368 0.949 . S
C363 H358 0.950 . S
C363 C365 1.327 . S
C363 C369 1.429 . S
C364 C356 1.574 . S
C364 H359 0.949 . S
C364 C370 1.368 . S
C365 C349 1.349 . S
C365 H357 0.950 . S
C365 C363 1.327 . S
C366 C354 1.349 . S
C366 H360 0.950 . S
C366 C367 1.327 . S
C367 H361 0.950 . S
C367 C366 1.327 . S
C367 C371 1.429 . S
C368 C351 1.574 . S
C368 H362 0.949 . S
C368 C372 1.368 . S
C369 C350 1.429 . S
C369 C363 1.429 . S
C369 C370 1.523 . S
C370 C351 1.368 . S
C370 C364 1.368 . S
C370 C369 1.523 . S
C371 C355 1.429 . S
C371 C367 1.429 . S
C371 C372 1.523 . S
C372 C356 1.368 . S
C372 C368 1.368 . S
C372 C371 1.523 . S
H373 C348 0.950 . S
H374 C350 0.950 . S
H375 C351 0.949 . S
H376 C353 0.950 . S
H377 C355 0.950 . S
C378 C379 1.349 . S
C378 C380 1.327 . S
C378 H403 0.950 . S
C379 C378 1.349 . S
C379 C395 1.349 . S
C380 C378 1.327 . S
C380 C399 1.429 . S
C380 H404 0.950 . S
C381 C398 1.574 1_655 S
C381 C400 1.368 . S
C381 H405 0.949 . S
H382 C386 0.949 . S
C383 C384 1.349 . S
C383 C385 1.327 . S
C383 H406 0.950 . S
C384 C383 1.349 . S
C384 C396 1.349 . S
C385 C383 1.327 . S
C385 C401 1.429 . S
C385 H407 0.950 . S
C386 H382 0.949 . S
C386 C394 1.574 1_455 S
C386 C402 1.368 . S
H387 C395 0.950 . S
H388 C393 0.950 . S
H389 C394 0.949 . S
H390 C396 0.950 . S
H391 C397 0.950 . S
H392 C398 0.949 . S
C393 H388 0.950 . S
C393 C395 1.327 . S
C393 C399 1.429 . S
C394 C386 1.574 1_655 S
C394 H389 0.949 . S
C394 C400 1.368 . S
C395 C379 1.349 . S
C395 H387 0.950 . S
C395 C393 1.327 . S
C396 C384 1.349 . S
C396 H390 0.950 . S
C396 C397 1.327 . S
C397 H391 0.950 . S
C397 C396 1.327 . S
C397 C401 1.429 . S
C398 C381 1.574 1_455 S
C398 H392 0.949 . S
C398 C402 1.368 . S
C399 C380 1.429 . S
C399 C393 1.429 . S
C399 C400 1.523 . S
C400 C381 1.368 . S
C400 C394 1.368 . S
C400 C399 1.523 . S
C401 C385 1.429 . S
C401 C397 1.429 . S
C401 C402 1.523 . S
C402 C386 1.368 . S
C402 C398 1.368 . S
C402 C401 1.523 . S
H403 C378 0.950 . S
H404 C380 0.950 . S
H405 C381 0.949 . S
H406 C383 0.950 . S
H407 C385 0.950 . S
C408 C409 1.349 . S
C408 C410 1.327 . S
C408 H433 0.950 . S
C409 C408 1.349 . S
C409 C425 1.349 1_554 S
C410 C408 1.327 . S
C410 C429 1.429 . S
C410 H434 0.950 . S
C411 C428 1.574 1_545 S
C411 C430 1.368 1_556 S
C411 H435 0.949 . S
H412 C416 0.949 . S
C413 C414 1.349 . S
C413 C415 1.327 . S
C413 H436 0.950 . S
C414 C413 1.349 . S
C414 C426 1.349 1_556 S
C415 C413 1.327 . S
C415 C431 1.429 . S
C415 H437 0.950 . S
C416 H412 0.949 . S
C416 C424 1.574 1_565 S
C416 C432 1.368 1_554 S
H417 C425 0.950 . S
H418 C423 0.950 . S
H419 C424 0.949 . S
H420 C426 0.950 . S
H421 C427 0.950 . S
H422 C428 0.949 . S
C423 H418 0.950 . S
C423 C425 1.327 . S
C423 C429 1.429 1_556 S
C424 C416 1.574 1_545 S
C424 H419 0.949 . S
C424 C430 1.368 . S
C425 C409 1.349 1_556 S
C425 H417 0.950 . S
C425 C423 1.327 . S
C426 C414 1.349 1_554 S
C426 H420 0.950 . S
C426 C427 1.327 . S
C427 H421 0.950 . S
C427 C426 1.327 . S
C427 C431 1.429 1_554 S
C428 C411 1.574 1_565 S
C428 H422 0.949 . S
C428 C432 1.368 . S
C429 C410 1.429 . S
C429 C423 1.429 1_554 S
C429 C430 1.523 . S
C430 C411 1.368 1_554 S
C430 C424 1.368 . S
C430 C429 1.523 . S
C431 C415 1.429 . S
C431 C427 1.429 1_556 S
C431 C432 1.523 . S
C432 C416 1.368 1_556 S
C432 C428 1.368 . S
C432 C431 1.523 . S
H433 C408 0.950 . S
H434 C410 0.950 . S
H435 C411 0.949 . S
H436 C413 0.950 . S
H437 C415 0.950 . S
C438 C439 1.349 . S
C438 C440 1.327 . S
C438 H463 0.950 . S
C439 C438 1.349 . S
C439 C455 1.349 . S
C440 C438 1.327 . S
C440 C459 1.429 . S
C440 H464 0.950 . S
C441 C458 1.574 . S
C441 C460 1.368 . S
C441 H465 0.949 . S
H442 C446 0.949 . S
C443 C444 1.349 . S
C443 C445 1.327 . S
C443 H466 0.950 . S
C444 C443 1.349 . S
C444 C456 1.349 . S
C445 C443 1.327 . S
C445 C461 1.429 . S
C445 H467 0.950 . S
C446 H442 0.949 . S
C446 C454 1.574 . S
C446 C462 1.368 . S
H447 C455 0.950 . S
H448 C453 0.950 . S
H449 C454 0.949 . S
H450 C456 0.950 . S
H451 C457 0.950 . S
H452 C458 0.949 . S
C453 H448 0.950 . S
C453 C455 1.327 . S
C453 C459 1.429 . S
C454 C446 1.574 . S
C454 H449 0.949 . S
C454 C460 1.368 . S
C455 C439 1.349 . S
C455 H447 0.950 . S
C455 C453 1.327 . S
C456 C444 1.349 . S
C456 H450 0.950 . S
C456 C457 1.327 . S
C457 H451 0.950 . S
C457 C456 1.327 . S
C457 C461 1.429 . S
C458 C441 1.574 . S
C458 H452 0.949 . S
C458 C462 1.368 . S
C459 C440 1.429 . S
C459 C453 1.429 . S
C459 C460 1.523 . S
C460 C441 1.368 . S
C460 C454 1.368 . S
C460 C459 1.523 . S
C461 C445 1.429 . S
C461 C457 1.429 . S
C461 C462 1.523 . S
C462 C446 1.368 . S
C462 C458 1.368 . S
C462 C461 1.523 . S
H463 C438 0.950 . S
H464 C440 0.950 . S
H465 C441 0.949 . S
H466 C443 0.950 . S
H467 C445 0.950 . S
C468 C469 1.349 . S
C468 C470 1.327 . S
C468 H493 0.950 . S
C469 C468 1.349 . S
C469 C485 1.349 . S
C470 C468 1.327 . S
C470 C489 1.429 . S
C470 H494 0.950 . S
C471 C488 1.574 1_455 S
C471 C490 1.368 . S
C471 H495 0.949 . S
H472 C476 0.949 . S
C473 C474 1.349 . S
C473 C475 1.327 . S
C473 H496 0.950 . S
C474 C473 1.349 . S
C474 C486 1.349 . S
C475 C473 1.327 . S
C475 C491 1.429 . S
C475 H497 0.950 . S
C476 H472 0.949 . S
C476 C484 1.574 1_655 S
C476 C492 1.368 . S
H477 C485 0.950 . S
H478 C483 0.950 . S
H479 C484 0.949 . S
H480 C486 0.950 . S
H481 C487 0.950 . S
H482 C488 0.949 . S
C483 H478 0.950 . S
C483 C485 1.327 . S
C483 C489 1.429 . S
C484 C476 1.574 1_455 S
C484 H479 0.949 . S
C484 C490 1.368 . S
C485 C469 1.349 . S
C485 H477 0.950 . S
C485 C483 1.327 . S
C486 C474 1.349 . S
C486 H480 0.950 . S
C486 C487 1.327 . S
C487 H481 0.950 . S
C487 C486 1.327 . S
C487 C491 1.429 . S
C488 C471 1.574 1_655 S
C488 H482 0.949 . S
C488 C492 1.368 . S
C489 C470 1.429 . S
C489 C483 1.429 . S
C489 C490 1.523 . S
C490 C471 1.368 . S
C490 C484 1.368 . S
C490 C489 1.523 . S
C491 C475 1.429 . S
C491 C487 1.429 . S
C491 C492 1.523 . S
C492 C476 1.368 . S
C492 C488 1.368 . S
C492 C491 1.523 . S
H493 C468 0.950 . S
H494 C470 0.950 . S
H495 C471 0.949 . S
H496 C473 0.950 . S
H497 C475 0.950 . S
C498 C499 1.349 . S
C498 C500 1.327 . S
C498 H523 0.950 . S
C499 C498 1.349 . S
C499 C515 1.349 1_556 S
C500 C498 1.327 . S
C500 C519 1.429 . S
C500 H524 0.950 . S
C501 C518 1.574 1_545 S
C501 C520 1.368 1_554 S
C501 H525 0.949 . S
H502 C506 0.949 . S
C503 C504 1.349 . S
C503 C505 1.327 . S
C503 H526 0.950 . S
C504 C503 1.349 . S
C504 C516 1.349 1_554 S
C505 C503 1.327 . S
C505 C521 1.429 . S
C505 H527 0.950 . S
C506 H502 0.949 . S
C506 C514 1.574 1_565 S
C506 C522 1.368 1_556 S
H507 C515 0.950 . S
H508 C513 0.950 . S
H509 C514 0.949 . S
H510 C516 0.950 . S
H511 C517 0.950 . S
H512 C518 0.949 . S
C513 H508 0.950 . S
C513 C515 1.327 . S
C513 C519 1.429 1_554 S
C514 C506 1.574 1_545 S
C514 H509 0.949 . S
C514 C520 1.368 . S
C515 C499 1.349 1_554 S
C515 H507 0.950 . S
C515 C513 1.327 . S
C516 C504 1.349 1_556 S
C516 H510 0.950 . S
C516 C517 1.327 . S
C517 H511 0.950 . S
C517 C516 1.327 . S
C517 C521 1.429 1_556 S
C518 C501 1.574 1_565 S
C518 H512 0.949 . S
C518 C522 1.368 . S
C519 C500 1.429 . S
C519 C513 1.429 1_556 S
C519 C520 1.523 . S
C520 C501 1.368 1_556 S
C520 C514 1.368 . S
C520 C519 1.523 . S
C521 C505 1.429 . S
C521 C517 1.429 1_554 S
C521 C522 1.523 . S
C522 C506 1.368 1_554 S
C522 C518 1.368 . S
C522 C521 1.523 . S
H523 C498 0.950 . S
H524 C500 0.950 . S
H525 C501 0.949 . S
H526 C503 0.950 . S
H527 C505 0.950 . S
C528 C529 1.349 . S
C528 C530 1.327 . S
C528 H553 0.950 . S
C529 C528 1.349 . S
C529 C545 1.349 . S
C530 C528 1.327 . S
C530 C549 1.429 . S
C530 H554 0.950 . S
C531 C548 1.574 1_655 S
C531 C550 1.368 . S
C531 H555 0.949 . S
H532 C536 0.949 . S
C533 C534 1.349 . S
C533 C535 1.327 . S
C533 H556 0.950 . S
C534 C533 1.349 . S
C534 C546 1.349 . S
C535 C533 1.327 . S
C535 C551 1.429 . S
C535 H557 0.950 . S
C536 H532 0.949 . S
C536 C544 1.574 . S
C536 C552 1.368 1_655 S
H537 C545 0.950 . S
H538 C543 0.950 . S
H539 C544 0.949 . S
H540 C546 0.950 . S
H541 C547 0.950 . S
H542 C548 0.949 . S
C543 H538 0.950 . S
C543 C545 1.327 . S
C543 C549 1.429 . S
C544 C536 1.574 . S
C544 H539 0.949 . S
C544 C550 1.368 . S
C545 C529 1.349 . S
C545 H537 0.950 . S
C545 C543 1.327 . S
C546 C534 1.349 . S
C546 H540 0.950 . S
C546 C547 1.327 . S
C547 H541 0.950 . S
C547 C546 1.327 . S
C547 C551 1.429 . S
C548 C531 1.574 1_455 S
C548 H542 0.949 . S
C548 C552 1.368 . S
C549 C530 1.429 . S
C549 C543 1.429 . S
C549 C550 1.523 . S
C550 C531 1.368 . S
C550 C544 1.368 . S
C550 C549 1.523 . S
C551 C535 1.429 . S
C551 C547 1.429 . S
C551 C552 1.523 . S
C552 C536 1.368 1_455 S
C552 C548 1.368 . S
C552 C551 1.523 . S
H553 C528 0.950 . S
H554 C530 0.950 . S
H555 C531 0.949 . S
H556 C533 0.950 . S
H557 C535 0.950 . S
C558 C559 1.349 . S
C558 C560 1.327 . S
C558 H583 0.956 . S
C559 C558 1.349 . S
C559 C575 1.349 . S
C560 C558 1.327 . S
C560 C579 1.429 . S
C560 H584 0.950 1_545 S
C561 C578 1.574 . S
C561 C580 1.368 . S
C561 H585 0.949 . S
H562 C566 0.949 . S
C563 C564 1.349 . S
C563 C565 1.327 . S
C563 H586 0.956 . S
C564 C563 1.349 . S
C564 C576 1.349 . S
C565 C563 1.327 . S
C565 C581 1.429 . S
C565 H587 0.950 1_565 S
C566 H562 0.949 . S
C566 C574 1.574 . S
C566 C582 1.368 . S
H567 C575 0.950 . S
H568 C573 0.950 . S
H569 C574 0.949 . S
H570 C576 0.950 . S
H571 C577 0.950 . S
H572 C578 0.949 . S
C573 H568 0.950 . S
C573 C575 1.327 . S
C573 C579 1.429 . S
C574 C566 1.574 . S
C574 H569 0.949 . S
C574 C580 1.368 1_565 S
C575 C559 1.349 . S
C575 H567 0.950 . S
C575 C573 1.327 . S
C576 C564 1.349 . S
C576 H570 0.950 . S
C576 C577 1.327 . S
C577 H571 0.950 . S
C577 C576 1.327 . S
C577 C581 1.429 . S
C578 C561 1.574 . S
C578 H572 0.949 . S
C578 C582 1.368 1_545 S
C579 C560 1.429 . S
C579 C573 1.429 . S
C579 C580 1.523 . S
C580 C561 1.368 . S
C580 C574 1.368 1_545 S
C580 C579 1.523 . S
C581 C565 1.429 . S
C581 C577 1.429 . S
C581 C582 1.523 . S
C582 C566 1.368 . S
C582 C578 1.368 1_565 S
C582 C581 1.523 . S
H583 C558 0.956 . S
H584 C560 0.950 1_565 S
H585 C561 0.949 . S
H586 C563 0.956 . S
H587 C565 0.950 1_545 S
C588 C589 1.349 . S
C588 C590 1.327 . S
C588 H613 0.950 . S
C589 C588 1.349 . S
C589 C605 1.349 . S
C590 C588 1.327 . S
C590 C609 1.429 . S
C590 H614 0.950 . S
C591 C608 1.574 . S
C591 C610 1.368 . S
C591 H615 0.949 . S
H592 C596 0.949 . S
C593 C594 1.349 . S
C593 C595 1.327 . S
C593 H616 0.950 . S
C594 C593 1.349 . S
C594 C606 1.349 . S
C595 C593 1.327 . S
C595 C611 1.429 . S
C595 H617 0.950 . S
C596 H592 0.949 . S
C596 C604 1.574 . S
C596 C612 1.368 . S
H597 C605 0.950 . S
H598 C603 0.950 . S
H599 C604 0.949 . S
H600 C606 0.950 . S
H601 C607 0.950 . S
H602 C608 0.949 . S
C603 H598 0.950 . S
C603 C605 1.327 . S
C603 C609 1.429 . S
C604 C596 1.574 . S
C604 H599 0.949 . S
C604 C610 1.368 . S
C605 C589 1.349 . S
C605 H597 0.950 . S
C605 C603 1.327 . S
C606 C594 1.349 . S
C606 H600 0.950 . S
C606 C607 1.327 . S
C607 H601 0.950 . S
C607 C606 1.327 . S
C607 C611 1.429 . S
C608 C591 1.574 . S
C608 H602 0.949 . S
C608 C612 1.368 . S
C609 C590 1.429 . S
C609 C603 1.429 . S
C609 C610 1.523 . S
C610 C591 1.368 . S
C610 C604 1.368 . S
C610 C609 1.523 . S
C611 C595 1.429 . S
C611 C607 1.429 . S
C611 C612 1.523 . S
C612 C596 1.368 . S
C612 C608 1.368 . S
C612 C611 1.523 . S
H613 C588 0.950 . S
H614 C590 0.950 . S
H615 C591 0.949 . S
H616 C593 0.950 . S
H617 C595 0.950 . S
C618 C619 1.349 . S
C618 C620 1.327 . S
C618 H643 0.950 . S
C619 C618 1.349 . S
C619 C635 1.349 . S
C620 C618 1.327 . S
C620 C639 1.429 . S
C620 H644 0.950 . S
C621 C638 1.574 1_455 S
C621 C640 1.368 . S
C621 H645 0.949 . S
H622 C626 0.949 . S
C623 C624 1.349 . S
C623 C625 1.327 . S
C623 H646 0.950 . S
C624 C623 1.349 . S
C624 C636 1.349 . S
C625 C623 1.327 . S
C625 C641 1.429 . S
C625 H647 0.950 . S
C626 H622 0.949 . S
C626 C634 1.574 1_655 S
C626 C642 1.368 . S
H627 C635 0.950 . S
H628 C633 0.950 . S
H629 C634 0.949 . S
H630 C636 0.950 . S
H631 C637 0.950 . S
H632 C638 0.949 . S
C633 H628 0.950 . S
C633 C635 1.327 . S
C633 C639 1.429 . S
C634 C626 1.574 1_455 S
C634 H629 0.949 . S
C634 C640 1.368 . S
C635 C619 1.349 . S
C635 H627 0.950 . S
C635 C633 1.327 . S
C636 C624 1.349 . S
C636 H630 0.950 . S
C636 C637 1.327 . S
C637 H631 0.950 . S
C637 C636 1.327 . S
C637 C641 1.429 . S
C638 C621 1.574 1_655 S
C638 H632 0.949 . S
C638 C642 1.368 . S
C639 C620 1.429 . S
C639 C633 1.429 . S
C639 C640 1.523 . S
C640 C621 1.368 . S
C640 C634 1.368 . S
C640 C639 1.523 . S
C641 C625 1.429 . S
C641 C637 1.429 . S
C641 C642 1.523 . S
C642 C626 1.368 . S
C642 C638 1.368 . S
C642 C641 1.523 . S
H643 C618 0.950 . S
H644 C620 0.950 . S
H645 C621 0.949 . S
H646 C623 0.950 . S
H647 C625 0.950 . S
C648 C649 1.349 . S
C648 C650 1.327 . S
C648 H673 0.950 1_545 S
C649 C648 1.349 . S
C649 C665 1.349 . S
C650 C648 1.327 . S
C650 C669 1.429 . S
C650 H674 0.950 1_545 S
C651 C668 1.574 . S
C651 C670 1.368 . S
C651 H675 0.949 . S
H652 C656 0.949 . S
C653 C654 1.349 . S
C653 C655 1.327 . S
C653 H676 0.950 1_565 S
C654 C653 1.349 . S
C654 C666 1.349 . S
C655 C653 1.327 . S
C655 C671 1.429 . S
C655 H677 0.950 1_565 S
C656 H652 0.949 . S
C656 C664 1.574 . S
C656 C672 1.368 . S
H657 C665 0.950 . S
H658 C663 0.950 . S
H659 C664 0.949 . S
H660 C666 0.950 . S
H661 C667 0.950 . S
H662 C668 0.949 . S
C663 H658 0.950 . S
C663 C665 1.327 . S
C663 C669 1.429 . S
C664 C656 1.574 . S
C664 H659 0.949 . S
C664 C670 1.368 1_565 S
C665 C649 1.349 . S
C665 H657 0.950 . S
C665 C663 1.327 . S
C666 C654 1.349 . S
C666 H660 0.950 . S
C666 C667 1.327 . S
C667 H661 0.950 . S
C667 C666 1.327 . S
C667 C671 1.429 . S
C668 C651 1.574 . S
C668 H662 0.949 . S
C668 C672 1.368 1_545 S
C669 C650 1.429 . S
C669 C663 1.429 . S
C669 C670 1.523 . S
C670 C651 1.368 . S
C670 C664 1.368 1_545 S
C670 C669 1.523 . S
C671 C655 1.429 . S
C671 C667 1.429 . S
C671 C672 1.523 . S
C672 C656 1.368 . S
C672 C668 1.368 1_565 S
C672 C671 1.523 . S
H673 C648 0.950 1_565 S
H674 C650 0.950 1_565 S
H675 C651 0.949 . S
H676 C653 0.950 1_545 S
H677 C655 0.950 1_545 S
C678 C679 1.349 . S
C678 C680 1.327 . S
C678 H703 0.950 . S
C679 C678 1.349 . S
C679 C695 1.349 . S
C680 C678 1.327 . S
C680 C699 1.429 . S
C680 H704 0.950 . S
C681 C698 1.574 . S
C681 C700 1.368 . S
C681 H705 0.949 . S
H682 C686 0.949 . S
C683 C684 1.349 . S
C683 C685 1.327 . S
C683 H706 0.950 . S
C684 C683 1.349 . S
C684 C696 1.349 . S
C685 C683 1.327 . S
C685 C701 1.429 . S
C685 H707 0.950 . S
C686 H682 0.949 . S
C686 C694 1.574 . S
C686 C702 1.368 . S
H687 C695 0.950 . S
H688 C693 0.950 . S
H689 C694 0.949 . S
H690 C696 0.950 . S
H691 C697 0.950 . S
H692 C698 0.949 . S
C693 H688 0.950 . S
C693 C695 1.327 . S
C693 C699 1.429 . S
C694 C686 1.574 . S
C694 H689 0.949 . S
C694 C700 1.368 . S
C695 C679 1.349 . S
C695 H687 0.950 . S
C695 C693 1.327 . S
C696 C684 1.349 . S
C696 H690 0.950 . S
C696 C697 1.327 . S
C697 H691 0.950 . S
C697 C696 1.327 . S
C697 C701 1.429 . S
C698 C681 1.574 . S
C698 H692 0.949 . S
C698 C702 1.368 . S
C699 C680 1.429 . S
C699 C693 1.429 . S
C699 C700 1.523 . S
C700 C681 1.368 . S
C700 C694 1.368 . S
C700 C699 1.523 . S
C701 C685 1.429 . S
C701 C697 1.429 . S
C701 C702 1.523 . S
C702 C686 1.368 . S
C702 C698 1.368 . S
C702 C701 1.523 . S
H703 C678 0.950 . S
H704 C680 0.950 . S
H705 C681 0.949 . S
H706 C683 0.950 . S
H707 C685 0.950 . S
C708 C709 1.349 . S
C708 C710 1.327 . S
C708 H733 0.950 . S
C709 C708 1.349 . S
C709 C725 1.349 . S
C710 C708 1.327 . S
C710 C729 1.429 . S
C710 H734 0.950 . S
C711 C728 1.574 . S
C711 C730 1.368 . S
C711 H735 0.949 . S
H712 C716 0.949 . S
C713 C714 1.349 . S
C713 C715 1.327 . S
C713 H736 0.950 . S
C714 C713 1.349 . S
C714 C726 1.349 . S
C715 C713 1.327 . S
C715 C731 1.429 . S
C715 H737 0.950 . S
C716 H712 0.949 . S
C716 C724 1.574 . S
C716 C732 1.368 . S
H717 C725 0.950 . S
H718 C723 0.950 . S
H719 C724 0.949 . S
H720 C726 0.950 . S
H721 C727 0.950 . S
H722 C728 0.949 . S
C723 H718 0.950 . S
C723 C725 1.327 . S
C723 C729 1.429 . S
C724 C716 1.574 . S
C724 H719 0.949 . S
C724 C730 1.368 . S
C725 C709 1.349 . S
C725 H717 0.950 . S
C725 C723 1.327 . S
C726 C714 1.349 . S
C726 H720 0.950 . S
C726 C727 1.327 . S
C727 H721 0.950 . S
C727 C726 1.327 . S
C727 C731 1.429 . S
C728 C711 1.574 . S
C728 H722 0.949 . S
C728 C732 1.368 . S
C729 C710 1.429 . S
C729 C723 1.429 . S
C729 C730 1.523 . S
C730 C711 1.368 . S
C730 C724 1.368 . S
C730 C729 1.523 . S
C731 C715 1.429 . S
C731 C727 1.429 . S
C731 C732 1.523 . S
C732 C716 1.368 . S
C732 C728 1.368 . S
C732 C731 1.523 . S
H733 C708 0.950 . S
H734 C710 0.950 . S
H735 C711 0.949 . S
H736 C713 0.950 . S
H737 C715 0.950 . S
C738 C739 1.349 . S
C738 C740 1.327 . S
C738 H763 0.950 . S
C739 C738 1.349 . S
C739 C755 1.349 . S
C740 C738 1.327 . S
C740 C759 1.429 . S
C740 H764 0.950 . S
C741 C758 1.574 . S
C741 C760 1.368 . S
C741 H765 0.949 . S
H742 C746 0.949 . S
C743 C744 1.349 . S
C743 C745 1.327 . S
C743 H766 0.950 . S
C744 C743 1.349 . S
C744 C756 1.349 . S
C745 C743 1.327 . S
C745 C761 1.429 . S
C745 H767 0.950 . S
C746 H742 0.949 . S
C746 C754 1.574 . S
C746 C762 1.368 . S
H747 C755 0.950 . S
H748 C753 0.950 . S
H749 C754 0.949 . S
H750 C756 0.950 . S
H751 C757 0.950 . S
H752 C758 0.949 . S
C753 H748 0.950 . S
C753 C755 1.327 . S
C753 C759 1.429 . S
C754 C746 1.574 . S
C754 H749 0.949 . S
C754 C760 1.368 . S
C755 C739 1.349 . S
C755 H747 0.950 . S
C755 C753 1.327 . S
C756 C744 1.349 . S
C756 H750 0.950 . S
C756 C757 1.327 . S
C757 H751 0.950 . S
C757 C756 1.327 . S
C757 C761 1.429 . S
C758 C741 1.574 . S
C758 H752 0.949 . S
C758 C762 1.368 . S
C759 C740 1.429 . S
C759 C753 1.429 . S
C759 C760 1.523 . S
C760 C741 1.368 . S
C760 C754 1.368 . S
C760 C759 1.523 . S
C761 C745 1.429 . S
C761 C757 1.429 . S
C761 C762 1.523 . S
C762 C746 1.368 . S
C762 C758 1.368 . S
C762 C761 1.523 . S
H763 C738 0.950 . S
H764 C740 0.950 . S
H765 C741 0.949 . S
H766 C743 0.950 . S
H767 C745 0.950 . S
C768 C769 1.349 . S
C768 C770 1.327 . S
C768 H793 0.950 . S
C769 C768 1.349 . S
C769 C785 1.349 . S
C770 C768 1.327 . S
C770 C789 1.429 . S
C770 H794 0.950 . S
C771 C788 1.574 . S
C771 C790 1.368 . S
C771 H795 0.949 . S
H772 C776 0.949 . S
C773 C774 1.349 . S
C773 C775 1.327 . S
C773 H796 0.950 . S
C774 C773 1.349 . S
C774 C786 1.349 . S
C775 C773 1.327 . S
C775 C791 1.429 . S
C775 H797 0.950 . S
C776 H772 0.949 . S
C776 C784 1.574 . S
C776 C792 1.368 . S
H777 C785 0.950 . S
H778 C783 0.950 . S
H779 C784 0.949 . S
H780 C786 0.950 . S
H781 C787 0.950 . S
H782 C788 0.949 . S
C783 H778 0.950 . S
C783 C785 1.327 . S
C783 C789 1.429 . S
C784 C776 1.574 . S
C784 H779 0.949 . S
C784 C790 1.368 . S
C785 C769 1.349 . S
C785 H777 0.950 . S
C785 C783 1.327 . S
C786 C774 1.349 . S
C786 H780 0.950 . S
C786 C787 1.327 . S
C787 H781 0.950 . S
C787 C786 1.327 . S
C787 C791 1.429 . S
C788 C771 1.574 . S
C788 H782 0.949 . S
C788 C792 1.368 . S
C789 C770 1.429 . S
C789 C783 1.429 . S
C789 C790 1.523 . S
C790 C771 1.368 . S
C790 C784 1.368 . S
C790 C789 1.523 . S
C791 C775 1.429 . S
C791 C787 1.429 . S
C791 C792 1.523 . S
C792 C776 1.368 . S
C792 C788 1.368 . S
C792 C791 1.523 . S
H793 C768 0.950 . S
H794 C770 0.950 . S
H795 C771 0.949 . S
H796 C773 0.950 . S
H797 C775 0.950 . S
C798 C799 1.349 . S
C798 C800 1.327 . S
C798 H823 0.950 . S
C799 C798 1.349 . S
C799 C815 1.349 . S
C800 C798 1.327 . S
C800 C819 1.429 . S
C800 H824 0.950 . S
C801 C818 1.574 . S
C801 C820 1.368 . S
C801 H825 0.949 . S
H802 C806 0.949 . S
C803 C804 1.349 . S
C803 C805 1.327 . S
C803 H826 0.950 . S
C804 C803 1.349 . S
C804 C816 1.349 . S
C805 C803 1.327 . S
C805 C821 1.429 . S
C805 H827 0.950 . S
C806 H802 0.949 . S
C806 C814 1.574 . S
C806 C822 1.368 . S
H807 C815 0.950 . S
H808 C813 0.950 . S
H809 C814 0.949 . S
H810 C816 0.950 . S
H811 C817 0.950 . S
H812 C818 0.949 . S
C813 H808 0.950 . S
C813 C815 1.327 . S
C813 C819 1.429 . S
C814 C806 1.574 . S
C814 H809 0.949 . S
C814 C820 1.368 . S
C815 C799 1.349 . S
C815 H807 0.950 . S
C815 C813 1.327 . S
C816 C804 1.349 . S
C816 H810 0.950 . S
C816 C817 1.327 . S
C817 H811 0.950 . S
C817 C816 1.327 . S
C817 C821 1.429 . S
C818 C801 1.574 . S
C818 H812 0.949 . S
C818 C822 1.368 . S
C819 C800 1.429 . S
C819 C813 1.429 . S
C819 C820 1.523 . S
C820 C801 1.368 . S
C820 C814 1.368 . S
C820 C819 1.523 . S
C821 C805 1.429 . S
C821 C817 1.429 . S
C821 C822 1.523 . S
C822 C806 1.368 . S
C822 C818 1.368 . S
C822 C821 1.523 . S
H823 C798 0.950 . S
H824 C800 0.950 . S
H825 C801 0.949 . S
H826 C803 0.950 . S
H827 C805 0.950 . S
C828 C829 1.349 . S
C828 C830 1.327 . S
C828 H853 0.950 . S
C829 C828 1.349 . S
C829 C845 1.349 . S
C830 C828 1.327 . S
C830 C849 1.429 . S
C830 H854 0.950 . S
C831 C848 1.574 . S
C831 C850 1.368 . S
C831 H855 0.949 . S
H832 C836 0.949 . S
C833 C834 1.349 . S
C833 C835 1.327 . S
C833 H856 0.950 . S
C834 C833 1.349 . S
C834 C846 1.349 . S
C835 C833 1.327 . S
C835 C851 1.429 . S
C835 H857 0.950 . S
C836 H832 0.949 . S
C836 C844 1.574 . S
C836 C852 1.368 . S
H837 C845 0.950 . S
H838 C843 0.950 . S
H839 C844 0.949 . S
H840 C846 0.950 . S
H841 C847 0.950 . S
H842 C848 0.949 . S
C843 H838 0.950 . S
C843 C845 1.327 . S
C843 C849 1.429 . S
C844 C836 1.574 . S
C844 H839 0.949 . S
C844 C850 1.368 . S
C845 C829 1.349 . S
C845 H837 0.950 . S
C845 C843 1.327 . S
C846 C834 1.349 . S
C846 H840 0.950 . S
C846 C847 1.327 . S
C847 H841 0.950 . S
C847 C846 1.327 . S
C847 C851 1.429 . S
C848 C831 1.574 . S
C848 H842 0.949 . S
C848 C852 1.368 . S
C849 C830 1.429 . S
C849 C843 1.429 . S
C849 C850 1.523 . S
C850 C831 1.368 . S
C850 C844 1.368 . S
C850 C849 1.523 . S
C851 C835 1.429 . S
C851 C847 1.429 . S
C851 C852 1.523 . S
C852 C836 1.368 . S
C852 C848 1.368 . S
C852 C851 1.523 . S
H853 C828 0.950 . S
H854 C830 0.950 . S
H855 C831 0.949 . S
H856 C833 0.950 . S
H857 C835 0.950 . S
C858 C859 1.349 . S
C858 C860 1.327 . S
C858 H883 0.950 . S
C859 C858 1.349 . S
C859 C875 1.349 . S
C860 C858 1.327 . S
C860 C879 1.429 . S
C860 H884 0.950 . S
C861 C878 1.574 . S
C861 C880 1.368 . S
C861 H885 0.949 . S
H862 C866 0.949 . S
C863 C864 1.349 . S
C863 C865 1.327 . S
C863 H886 0.950 . S
C864 C863 1.349 . S
C864 C876 1.349 . S
C865 C863 1.327 . S
C865 C881 1.429 . S
C865 H887 0.950 . S
C866 H862 0.949 . S
C866 C874 1.574 . S
C866 C882 1.368 . S
H867 C875 0.950 . S
H868 C873 0.950 . S
H869 C874 0.949 . S
H870 C876 0.950 . S
H871 C877 0.950 . S
H872 C878 0.949 . S
C873 H868 0.950 . S
C873 C875 1.327 . S
C873 C879 1.429 . S
C874 C866 1.574 . S
C874 H869 0.949 . S
C874 C880 1.368 . S
C875 C859 1.349 . S
C875 H867 0.950 . S
C875 C873 1.327 . S
C876 C864 1.349 . S
C876 H870 0.950 . S
C876 C877 1.327 . S
C877 H871 0.950 . S
C877 C876 1.327 . S
C877 C881 1.429 . S
C878 C861 1.574 . S
C878 H872 0.949 . S
C878 C882 1.368 . S
C879 C860 1.429 . S
C879 C873 1.429 . S
C879 C880 1.523 . S
C880 C861 1.368 . S
C880 C874 1.368 . S
C880 C879 1.523 . S
C881 C865 1.429 . S
C881 C877 1.429 . S
C881 C882 1.523 . S
C882 C866 1.368 . S
C882 C878 1.368 . S
C882 C881 1.523 . S
H883 C858 0.950 . S
H884 C860 0.950 . S
H885 C861 0.949 . S
H886 C863 0.950 . S
H887 C865 0.950 . S
C169 C3 1.544 . S
C174 C87 1.548 . S
C199 C17 1.547 . S
C204 C101 1.544 . S
C229 C31 1.432 . S
C234 C115 1.432 . S
C259 C129 1.548 . S
C264 C45 1.544 . S
C289 C59 1.547 . S
C294 C143 1.544 . S
C319 C157 1.432 . S
C324 C73 1.432 . S
C349 C7 0.891 . S
C354 C133 0.893 . S
C379 C21 0.893 . S
C384 C147 0.891 . S
C409 C161 0.832 . S
C414 C35 0.829 . S
C439 C91 0.893 . S
C444 C49 0.892 . S
C469 C63 0.893 . S
C474 C105 0.891 . S
C499 C77 0.832 . S
C504 C119 0.829 . S
C529 C162 1.748 . S
C534 C8 1.739 . S
C559 C22 1.964 . S
C564 C92 1.964 . S
C589 C36 1.747 . S
C594 C106 1.739 . S
C619 C120 1.747 . S
C624 C50 1.739 . S
C649 C134 1.964 . S
C654 C64 1.964 . S
C679 C78 1.747 . S
C684 C148 1.739 . S
C709 C9 0.713 . S
C714 C149 0.713 . S
C739 C163 0.847 . S
C744 C23 0.853 . S
C769 C93 0.848 . S
C774 C37 0.852 . S
C799 C51 0.713 . S
C804 C107 0.713 . S
C829 C121 0.847 . S
C834 C65 0.853 . S
C859 C135 0.848 . S
C864 C79 0.852 . S
