# Generated by pormake.
# Topology rkf, (6)-cn, num edge types: 1
# Building blocks:
#     Node 0, Type 0, BuildingBlock: PAMTOO_clean_sbu_0, # of connection points: 6
#     Node 1, Type 0, BuildingBlock: PAMTOO_clean_sbu_0, # of connection points: 6
#     Node 2, Type 0, BuildingBlock: PAMTOO_clean_sbu_0, # of connection points: 6
#     Node 3, Type 0, BuildingBlock: PAMTOO_clean_sbu_0, # of connection points: 6
#     Node 4, Type 0, BuildingBlock: PAMTOO_clean_sbu_0, # of connection points: 6
#     Node 5, Type 0, BuildingBlock: PAMTOO_clean_sbu_0, # of connection points: 6
#     Edge 6, Type (0, 0), BuildingBlock: ZUJKAS_clean_linker_0, # of connection points: 2
#     Edge 7, Type (0, 0), BuildingBlock: ZUJKAS_clean_linker_0, # of connection points: 2
#     Edge 8, Type (0, 0), BuildingBlock: ZUJKAS_clean_linker_0, # of connection points: 2
#     Edge 9, Type (0, 0), BuildingBlock: ZUJKAS_clean_linker_0, # of connection points: 2
#     Edge 10, Type (0, 0), BuildingBlock: ZUJKAS_clean_linker_0, # of connection points: 2
#     Edge 11, Type (0, 0), BuildingBlock: ZUJKAS_clean_linker_0, # of connection points: 2
#     Edge 12, Type (0, 0), BuildingBlock: ZUJKAS_clean_linker_0, # of connection points: 2
#     Edge 13, Type (0, 0), BuildingBlock: ZUJKAS_clean_linker_0, # of connection points: 2
#     Edge 14, Type (0, 0), BuildingBlock: ZUJKAS_clean_linker_0, # of connection points: 2
#     Edge 15, Type (0, 0), BuildingBlock: ZUJKAS_clean_linker_0, # of connection points: 2
#     Edge 16, Type (0, 0), BuildingBlock: ZUJKAS_clean_linker_0, # of connection points: 2
#     Edge 17, Type (0, 0), BuildingBlock: ZUJKAS_clean_linker_0, # of connection points: 2
#     Edge 18, Type (0, 0), BuildingBlock: ZUJKAS_clean_linker_0, # of connection points: 2
#     Edge 19, Type (0, 0), BuildingBlock: ZUJKAS_clean_linker_0, # of connection points: 2
#     Edge 20, Type (0, 0), BuildingBlock: ZUJKAS_clean_linker_0, # of connection points: 2
#     Edge 21, Type (0, 0), BuildingBlock: ZUJKAS_clean_linker_0, # of connection points: 2
#     Edge 22, Type (0, 0), BuildingBlock: ZUJKAS_clean_linker_0, # of connection points: 2
#     Edge 23, Type (0, 0), BuildingBlock: ZUJKAS_clean_linker_0, # of connection points: 2
# Relax obj value: 0.615
# Max RMSD: 0.272
# Mean RMSD: 0.272
data_MOF--net-rkf--node1-PAMTOO_clean_sbu_0--edge1-ZUJKAS_clean_linker_0
_symmetry_space_group_name_H-M    P1
_symmetry_Int_Tables_number       1
_symmetry_cell_setting            triclinic
loop_
_symmetry_equiv_pos_as_xyz
'x, y, z'
_cell_length_a     32.391503
_cell_length_b     32.240255
_cell_length_c     58.8016
_cell_angle_alpha  90.14331
_cell_angle_beta   89.87015
_cell_angle_gamma 119.87207
loop_
_atom_site_label
_atom_site_type_symbol
_atom_site_fract_x
_atom_site_fract_y
_atom_site_fract_z
_atom_type_partial_charge
Dy0 Dy 0.1574 0.94355 0.08925 0.0
Dy1 Dy 0.18933 0.05382 1.07654 0.0
C2 C 0.09326 0.98708 0.1055 0.0
O3 O 0.14674 0.9426 1.05055 0.0
O4 O 0.14592 0.01259 1.04549 0.0
O5 O 0.10575 0.86795 0.08827 0.0
O6 O 0.17656 0.89219 0.10119 0.0
O7 O 0.24796 0.0426 1.06313 0.0
O8 O 0.23636 0.98186 0.08681 0.0
O9 O 0.2078 0.05778 0.11435 0.0
O10 O 0.16879 0.97846 0.12466 0.0
O11 O 0.24381 0.12798 1.0777 0.0
O12 O 0.17489 0.10755 1.06293 0.0
C13 C 0.13769 0.97071 1.03755 0.0
O14 O 0.09426 0.94836 0.0998 0.0
O15 O 0.12604 0.02988 0.0989 0.0
C16 C 0.11325 0.82715 0.11948 0.0
C17 C 0.07358 0.77236 0.15895 0.0
C18 C 0.09396 0.82238 0.15954 0.0
C19 C 0.11344 0.84947 0.13998 0.0
C20 C 0.09292 0.77729 0.11868 0.0
C21 C 0.07295 0.74994 0.13831 0.0
C22 C 0.13353 0.85613 0.09899 0.0
C23 C 0.26334 0.0162 1.07277 0.0
C24 C 0.19171 0.02449 0.13039 0.0
C25 C 0.24149 0.17832 1.04957 0.0
C26 C 0.28824 0.24945 1.01639 0.0
C27 C 0.28491 0.20443 1.01397 0.0
C28 C 0.26161 0.16902 1.03047 0.0
C29 C 0.24515 0.22318 1.05216 0.0
C30 C 0.26832 0.25849 1.03572 0.0
C31 C 0.21771 0.14246 1.06736 0.0
H32 H 0.09392 0.84055 0.17506 0.0
H33 H 0.12842 0.88788 0.14084 0.0
H34 H 0.0923 0.75957 0.1029 0.0
H35 H 0.05727 0.71144 0.13741 0.0
H36 H 0.29942 0.19625 0.99912 0.0
H37 H 0.25916 0.13448 1.02832 0.0
H38 H 0.23012 0.23096 1.06695 0.0
H39 H 0.27079 0.29296 1.03819 0.0
Dy40 Dy 0.2078 0.24999 0.41142 0.0
Dy41 Dy 0.27944 0.20787 0.42432 0.0
C42 C 0.17149 0.15231 0.43384 0.0
O43 O 0.21663 0.26177 0.44963 0.0
O44 O 0.26555 0.23174 0.4593 0.0
O45 O 0.14259 0.24692 0.42172 0.0
O46 O 0.18103 0.28848 0.39208 0.0
O47 O 0.32802 0.28321 0.4132 0.0
O48 O 0.27924 0.31616 0.41175 0.0
O49 O 0.25687 0.18368 0.38722 0.0
O50 O 0.21768 0.22408 0.37677 0.0
O51 O 0.34936 0.22199 0.4339 0.0
O52 O 0.29342 0.14908 0.4275 0.0
C53 C 0.23909 0.2511 0.46525 0.0
O54 O 0.17314 0.1709 0.41394 0.0
O55 O 0.21203 0.1622 0.44279 0.0
C56 C 0.09773 0.25648 0.39322 0.0
C57 C 0.01267 0.22894 0.36959 0.0
C58 C 0.03592 0.20203 0.36755 0.0
C59 C 0.07826 0.21574 0.37932 0.0
C60 C 0.07358 0.28196 0.39617 0.0
C61 C 0.03138 0.26836 0.38446 0.0
C62 C 0.14312 0.27326 0.40484 0.0
C63 C 0.32167 0.32023 0.41122 0.0
C64 C 0.23557 0.19614 0.37146 0.0
C65 C 0.34307 0.16464 0.45979 0.0
C66 C 0.35254 0.16655 0.50736 0.0
C67 C 0.39271 0.19324 0.49359 0.0
C68 C 0.38798 0.19217 0.46993 0.0
C69 C 0.30405 0.13411 0.47347 0.0
C70 C 0.30886 0.13488 0.49702 0.0
C71 C 0.3352 0.1767 0.43665 0.0
H72 H 0.02208 0.17123 0.35638 0.0
H73 H 0.09632 0.19531 0.37721 0.0
H74 H 0.08808 0.31323 0.40708 0.0
H75 H 0.01482 0.29026 0.38616 0.0
H76 H 0.42685 0.21781 0.50109 0.0
H77 H 0.41853 0.21611 0.45972 0.0
H78 H 0.26893 0.11237 0.46622 0.0
H79 H 0.27756 0.11292 0.50724 0.0
Dy80 Dy 0.12109 0.34042 0.75582 0.0
Dy81 Dy 0.02369 0.24303 0.74559 0.0
C82 C 0.11628 0.24267 0.76672 0.0
O83 O 0.1331 0.31543 0.72086 0.0
O84 O 0.05571 0.26649 0.71031 0.0
O85 O 0.19607 0.38732 0.75053 0.0
O86 O 0.1561 0.41111 0.77105 0.0
O87 O 0.00604 0.30276 0.74722 0.0
O88 O 0.07768 0.36143 0.73503 0.0
O89 O 0.02737 0.24005 0.78375 0.0
O90 O 0.07928 0.31941 0.79025 0.0
O91 O 0.94867 0.1983 0.75245 0.0
O92 O 0.98313 0.17629 0.7275 0.0
C93 C 0.10139 0.28994 0.70495 0.0
O94 O 0.13535 0.28777 0.772 0.0
O95 O 0.07748 0.22032 0.75416 0.0
C96 C 0.23486 0.43519 0.7826 0.0
C97 C 0.29885 0.46021 0.8193 0.0
C98 C 0.29096 0.42251 0.80462 0.0
C99 C 0.25925 0.41003 0.78653 0.0
C100 C 0.24416 0.47418 0.79663 0.0
C101 C 0.27575 0.48649 0.81491 0.0
C102 C 0.19827 0.41959 0.76468 0.0
C103 C 0.03281 0.34598 0.73902 0.0
C104 C 0.04727 0.27622 0.79806 0.0
C105 C 0.9032 0.15493 0.7211 0.0
C106 C 0.82607 0.13035 0.69159 0.0
C107 C 0.82119 0.10119 0.71033 0.0
C108 C 0.8595 0.11342 0.72495 0.0
C109 C 0.90816 0.18466 0.70271 0.0
C110 C 0.86992 0.17241 0.68802 0.0
C111 C 0.94289 0.16743 0.73671 0.0
H112 H 0.3074 0.40091 0.80779 0.0
H113 H 0.2528 0.37963 0.77611 0.0
H114 H 0.22592 0.49421 0.79385 0.0
H115 H 0.28121 0.51574 0.82595 0.0
H116 H 0.78775 0.06891 0.7137 0.0
H117 H 0.85503 0.09042 0.73926 0.0
H118 H 0.94169 0.21709 0.69962 0.0
H119 H 0.87509 0.19528 0.67358 0.0
Dy120 Dy 0.81799 0.06303 1.07636 0.0
Dy121 Dy 0.84726 0.17201 0.08912 0.0
C122 C 0.91013 0.12833 0.10549 0.0
O123 O 0.8121 0.05848 0.1149 0.0
O124 O 0.81738 0.1308 0.12309 0.0
O125 O 0.8311 0.01478 1.05592 0.0
O126 O 0.77608 0.98698 0.08165 0.0
O127 O 0.77863 0.14252 1.07015 0.0
O128 O 0.74891 0.06282 1.07615 0.0
O129 O 0.88359 0.17783 1.05474 0.0
O130 O 0.83443 0.10172 1.04207 0.0
O131 O 0.82303 0.22103 0.09831 0.0
O132 O 0.89825 0.24745 0.09229 0.0
C133 C 0.80997 0.08806 0.12985 0.0
O134 O 0.89429 0.10117 0.08729 0.0
O135 O 0.89547 0.15839 0.1103 0.0
C136 C 0.76152 0.94083 1.04815 0.0
C137 C 0.69922 0.87358 1.01618 0.0
C138 C 0.74882 0.89492 1.01353 0.0
C139 C 0.77963 0.92805 1.0294 0.0
C140 C 0.71183 0.91887 1.05105 0.0
C141 C 0.68097 0.8854 1.03523 0.0
C142 C 0.79482 0.97677 1.06446 0.0
C143 C 0.74263 0.09876 1.07095 0.0
C144 C 0.86756 0.14649 1.03777 0.0
C145 C 0.87611 0.28029 0.12302 0.0
C146 C 0.87819 0.3032 0.16936 0.0
C147 C 0.84691 0.30777 0.15443 0.0
C148 C 0.8461 0.29664 0.13139 0.0
C149 C 0.90958 0.27886 0.13765 0.0
C150 C 0.91075 0.29044 0.16057 0.0
C151 C 0.86629 0.25688 0.1006 0.0
H152 H 0.76386 0.88581 0.99919 0.0
H153 H 0.81769 0.94395 1.02693 0.0
H154 H 0.69668 0.92775 1.06541 0.0
H155 H 0.6429 0.86956 1.03762 0.0
H156 H 0.82162 0.31772 0.16078 0.0
H157 H 0.81985 0.29776 0.1204 0.0
H158 H 0.93281 0.26584 0.13179 0.0
H159 H 0.9348 0.28589 0.1717 0.0
Dy160 Dy 0.7186 0.89699 0.42375 0.0
Dy161 Dy 0.81586 0.89585 0.41335 0.0
C162 C 0.81721 0.98848 0.43546 0.0
O163 O 0.74077 0.93228 0.38841 0.0
O164 O 0.79369 0.90776 0.37832 0.0
O165 O 0.67492 0.93029 0.42468 0.0
O166 O 0.64524 0.8558 0.43429 0.0
O167 O 0.75632 0.81906 0.41393 0.0
O168 O 0.69901 0.83408 0.40171 0.0
O169 O 0.81683 0.89822 0.4517 0.0
O170 O 0.73818 0.87426 0.45783 0.0
O171 O 0.86389 0.87024 0.4219 0.0
O172 O 0.87849 0.91599 0.39267 0.0
C173 C 0.76814 0.9279 0.3728 0.0
O174 O 0.77226 0.9626 0.44068 0.0
O175 O 0.83933 0.97231 0.42245 0.0
C176 C 0.62242 0.90297 0.45566 0.0
C177 C 0.60056 0.93319 0.49666 0.0
C178 C 0.62726 0.90964 0.49676 0.0
C179 C 0.63821 0.89486 0.47648 0.0
C180 C 0.5943 0.92484 0.45545 0.0
C181 C 0.58347 0.93994 0.47582 0.0
C182 C 0.63937 0.89309 0.43424 0.0
C183 C 0.71372 0.80378 0.40548 0.0
C184 C 0.78035 0.88284 0.46569 0.0
C185 C 0.89769 0.85465 0.38985 0.0
C186 C 0.91189 0.79232 0.3614 0.0
C187 C 0.94587 0.84143 0.36238 0.0
C188 C 0.93886 0.87221 0.37653 0.0
C189 C 0.86389 0.80561 0.38919 0.0
C190 C 0.87108 0.7747 0.37519 0.0
C191 C 0.88969 0.88801 0.40371 0.0
H192 H 0.64199 0.90487 0.5124 0.0
H193 H 0.66059 0.87873 0.47706 0.0
H194 H 0.58214 0.9317 0.43949 0.0
H195 H 0.56284 0.95797 0.47524 0.0
H196 H 0.97721 0.85652 0.35165 0.0
H197 H 0.96515 0.90997 0.37672 0.0
H198 H 0.83164 0.79122 0.39927 0.0
H199 H 0.84442 0.73709 0.37501 0.0
Dy200 Dy 0.98175 0.85406 0.74612 0.0
Dy201 Dy 0.86842 0.78042 0.75921 0.0
C202 C 0.91846 0.88899 0.7684 0.0
O203 O 0.984 0.8452 0.78428 0.0
O204 O 0.90546 0.79644 0.79442 0.0
O205 O 0.04283 0.91978 0.75671 0.0
O206 O 0.04791 0.8811 0.72742 0.0
O207 O 0.89595 0.73149 0.74986 0.0
O208 O 0.97656 0.78205 0.74495 0.0
O209 O 0.86807 0.80092 0.72152 0.0
O210 O 0.94725 0.84809 0.71168 0.0
O211 O 0.81203 0.71185 0.77048 0.0
O212 O 0.79576 0.76589 0.75874 0.0
C213 C 0.95124 0.82334 0.80012 0.0
O214 O 0.93654 0.88794 0.74867 0.0
O215 O 0.88813 0.84808 0.77731 0.0
C216 C 0.10338 0.96433 0.73003 0.0
C217 C 0.17117 0.05214 0.71088 0.0
C218 C 0.1238 0.0416 0.71403 0.0
C219 C 0.09006 -0.00207 0.72362 0.0
C220 C 0.15058 0.97512 0.72732 0.0
C221 C 0.18416 0.01851 0.71783 0.0
C222 C 0.06989 0.91862 0.74057 0.0
C223 C 0.93911 0.73887 0.74619 0.0
C224 C 0.90152 0.82625 0.70614 0.0
C225 C 0.74851 0.71444 0.78801 0.0
C226 C 0.69077 0.69323 0.82688 0.0
C227 C 0.67314 0.66499 0.80719 0.0
C228 C 0.70195 0.6755 0.78788 0.0
C229 C 0.76603 0.74308 0.80746 0.0
C230 C 0.73737 0.73267 0.82671 0.0
C231 C 0.77935 0.72394 0.7682 0.0
H232 H 0.11277 0.06683 0.70885 0.0
H233 H 0.05373 0.99026 0.72587 0.0
H234 H 0.16146 0.94967 0.73237 0.0
H235 H 0.21995 0.02486 0.71518 0.0
H236 H 0.63751 0.63433 0.80686 0.0
H237 H 0.68811 0.65295 0.77295 0.0
H238 H 0.80198 0.77328 0.8078 0.0
H239 H 0.75166 0.75574 0.84144 0.0
H240 H 0.91902 0.15488 0.15045 0.0
H241 H 0.92661 0.11091 0.18259 0.0
H242 H 0.94948 0.02127 0.13559 0.0
H243 H 0.94104 0.06389 0.10365 0.0
H244 H -0.00108 0.09348 0.19676 0.0
H245 H 0.84531 0.9216 0.17684 0.0
H246 H 0.87076 0.94602 0.14968 0.0
H247 H 0.84897 0.97682 0.16743 0.0
C248 C 0.92659 0.12632 0.14698 0.0
C249 C 0.92876 0.11235 0.1244 0.0
C250 C 0.93014 0.10087 0.1654 0.0
C251 C 0.93616 0.0614 0.16146 0.0
C252 C 0.94251 0.05026 0.13903 0.0
H253 H 0.04309 0.91192 0.13481 0.0
H254 H 0.00412 0.9137 0.17033 0.0
C255 C 0.93871 0.0753 0.12071 0.0
C256 C 0.94006 0.03315 0.18021 0.0
H257 H 0.9274 0.92289 0.17556 0.0
C258 C 0.98176 0.0554 0.19333 0.0
C259 C 0.91599 0.98274 0.1781 0.0
C260 C 0.86735 0.95554 0.16748 0.0
C261 C 0.00705 0.03112 0.1971 0.0
C262 C 0.99113 0.98719 0.18563 0.0
C263 C 0.94208 0.95935 0.18162 0.0
C264 C 0.02066 0.98708 0.16633 0.0
C265 C 0.05652 0.05789 0.20682 0.0
C266 C 0.041 0.02693 0.15167 0.0
C267 C 0.06156 0.02551 0.1312 0.0
C268 C 0.06275 0.98433 0.12473 0.0
C269 C 0.04195 0.94402 0.13912 0.0
C270 C 0.02077 0.94531 0.15971 0.0
H271 H 0.0563 0.07604 0.22286 0.0
H272 H 0.07087 0.03354 0.21017 0.0
H273 H 0.08055 0.08601 0.19471 0.0
H274 H 0.03978 0.05913 0.15556 0.0
H275 H 0.07732 0.05721 0.12062 0.0
H276 H 0.89935 0.06609 0.4211 0.0
H277 H 0.9518 0.13584 0.44363 0.0
H278 H 0.84982 0.08514 0.49865 0.0
H279 H 0.79628 0.0158 0.47569 0.0
H280 H 0.92834 0.08472 0.51044 0.0
H281 H -0.0077 0.26151 0.47476 0.0
H282 H 0.93095 0.21434 0.47148 0.0
H283 H 0.97564 0.22205 0.45081 0.0
C284 C 0.88746 0.07067 0.43767 0.0
C285 C 0.8445 0.03511 0.44686 0.0
C286 C 0.91711 0.11104 0.45051 0.0
C287 C 0.9049 0.11585 0.47301 0.0
C288 C 0.85981 0.08254 0.48133 0.0
H289 H 0.08452 0.13873 0.4226 0.0
H290 H 0.03053 0.14906 0.44747 0.0
C291 C 0.82957 0.04264 0.46824 0.0
C292 C 0.94416 0.14501 0.48894 0.0
H293 H 0.05506 0.23308 0.47535 0.0
C294 C 0.95614 0.1186 0.50382 0.0
C295 C 0.98021 0.19095 0.48229 0.0
C296 C 0.96875 0.22397 0.46918 0.0
C297 C 0.00352 0.12898 0.50532 0.0
C298 C 0.03809 0.16708 0.49219 0.0
C299 C 0.0277 0.20193 0.48417 0.0
C300 C 0.07128 0.15882 0.47823 0.0
C301 C 0.01448 0.09413 0.51708 0.0
C302 C 0.11024 0.15724 0.4875 0.0
C303 C 0.14035 0.14937 0.47325 0.0
C304 C 0.13282 0.14492 0.44953 0.0
C305 C 0.09175 0.14282 0.4407 0.0
C306 C 0.06134 0.14964 0.4549 0.0
H307 H 0.98522 0.06994 0.52868 0.0
H308 H 0.01975 0.07194 0.5042 0.0
H309 H 0.04777 0.11378 0.5271 0.0
H310 H 0.1182 0.16346 0.50547 0.0
H311 H 0.17128 0.15011 0.48065 0.0
H312 H 0.91564 0.88912 0.81523 0.0
H313 H 0.98122 0.94378 0.83998 0.0
H314 H 0.05229 0.03303 0.78201 0.0
H315 H 0.98872 0.97789 0.7572 0.0
H316 H 0.10943 0.00042 0.81015 0.0
H317 H 0.02674 0.08433 0.86142 0.0
H318 H 0.00144 0.02024 0.8591 0.0
H319 H -0.00581 0.05311 0.83631 0.0
C320 C 0.94501 0.92086 0.80784 0.0
C321 C 0.948 0.92847 0.78411 0.0
C322 C 0.98248 0.95179 0.82203 0.0
C323 C 0.02232 0.99134 0.81266 0.0
C324 C 0.02255 0.00168 0.78944 0.0
H325 H 0.10896 0.15836 0.75297 0.0
H326 H 0.12447 0.10537 0.77609 0.0
C327 C 0.98583 0.97056 0.77528 0.0
C328 C 0.06449 0.02365 0.82623 0.0
H329 H 0.09967 0.13725 0.84211 0.0
C330 C 0.10825 0.03003 0.81832 0.0
C331 C 0.06397 0.06109 0.83839 0.0
C332 C 0.01919 0.05447 0.84957 0.0
C333 C 0.147 0.07635 0.81571 0.0
C334 C 0.14071 0.11534 0.82145 0.0
C335 C 0.1032 0.10725 0.83622 0.0
C336 C 0.15363 0.15418 0.80477 0.0
C337 C 0.19014 0.08346 0.80272 0.0
C338 C 0.16809 0.20068 0.81232 0.0
C339 C 0.1596 0.23125 0.79887 0.0
C340 C 0.13573 0.2153 0.7779 0.0
C341 C 0.12641 0.17104 0.76925 0.0
C342 C 0.13603 0.14102 0.78244 0.0
H343 H 0.20155 0.05826 0.80899 0.0
H344 H 0.18096 0.07533 0.78445 0.0
H345 H 0.22013 0.12074 0.80436 0.0
H346 H 0.18138 0.21152 0.82946 0.0
H347 H 0.16776 0.26562 0.80587 0.0
H348 H 0.25525 0.30567 0.99903 0.0
H349 H 0.28846 0.36262 0.96781 0.0
H350 H 0.40444 0.33366 0.96159 0.0
H351 H 0.37119 0.27618 0.99301 0.0
H352 H 0.37905 0.44585 0.95999 0.0
H353 H 0.33937 0.29754 0.89909 0.0
H354 H 0.31563 0.28611 0.9276 0.0
H355 H 0.37728 0.30498 0.92286 0.0
C356 C 0.28827 0.31196 0.99132 0.0
C357 C 0.31045 0.28621 0.99837 0.0
C358 C 0.30723 0.34456 0.97348 0.0
C359 C 0.34868 0.35206 0.96232 0.0
C360 C 0.37206 0.32787 0.96984 0.0
H361 H 0.38349 0.46147 0.82474 0.0
H362 H 0.41544 0.45078 0.86055 0.0
C363 C 0.35295 0.29497 0.98768 0.0
C364 C 0.36415 0.38196 0.94161 0.0
H365 H 0.35914 0.37166 0.8839 0.0
C366 C 0.37581 0.43005 0.94331 0.0
C367 C 0.36037 0.36135 0.91992 0.0
C368 C 0.34726 0.30963 0.91707 0.0
C369 C 0.38061 0.45713 0.92382 0.0
C370 C 0.37271 0.43518 0.90222 0.0
C371 C 0.36515 0.38845 0.9005 0.0
C372 C 0.36339 0.45582 0.88172 0.0
C373 C 0.39218 0.50831 0.92659 0.0
C374 C 0.32482 0.46425 0.88183 0.0
C375 C 0.30646 0.47018 0.86144 0.0
C376 C 0.32606 0.4673 0.84057 0.0
C377 C 0.36732 0.46321 0.84059 0.0
C378 C 0.38577 0.45739 0.86102 0.0
H379 H 0.4151 0.52497 0.94172 0.0
H380 H 0.41049 0.53003 0.91134 0.0
H381 H 0.35869 0.50916 0.92928 0.0
H382 H 0.30617 0.462 0.8975 0.0
H383 H 0.27436 0.47271 0.862 0.0
H384 H 0.00614 0.2087 0.32444 0.0
H385 H 0.95198 0.21271 0.29726 0.0
H386 H 0.87631 0.23565 0.35184 0.0
H387 H 0.931 0.23174 0.37945 0.0
H388 H 0.85493 0.16796 0.28988 0.0
H389 H 0.92912 0.35907 0.315 0.0
H390 H 0.95491 0.32421 0.32503 0.0
H391 H 0.89898 0.31383 0.33629 0.0
C392 C 0.97711 0.213 0.33083 0.0
C393 C 0.97325 0.22054 0.35408 0.0
C394 C 0.9462 0.21549 0.31523 0.0
C395 C 0.91081 0.22551 0.32252 0.0
C396 C 0.90411 0.22895 0.34587 0.0
H397 H 0.7958 0.26059 0.19399 0.0
H398 H 0.78866 0.24486 0.23493 0.0
C399 C 0.93528 0.22665 0.36157 0.0
C400 C 0.88566 0.2377 0.30515 0.0
H401 H 0.89156 0.33563 0.27977 0.0
C402 C 0.86152 0.20421 0.2879 0.0
C403 C 0.89454 0.28515 0.30274 0.0
C404 C 0.92095 0.32288 0.32063 0.0
C405 C 0.85072 0.21808 0.26721 0.0
C406 C 0.86271 0.26637 0.26415 0.0
C407 C 0.88233 0.29868 0.28229 0.0
C408 C 0.86446 0.28563 0.24117 0.0
C409 C 0.83123 0.18211 0.24806 0.0
C410 C 0.90913 0.31648 0.23152 0.0
C411 C 0.91329 0.3259 0.20826 0.0
C412 C 0.87283 0.3046 0.1943 0.0
C413 C 0.82762 0.27764 0.20436 0.0
C414 C 0.82346 0.26828 0.22771 0.0
H415 H 0.83213 0.14897 0.25215 0.0
H416 H 0.79375 0.1723 0.2447 0.0
H417 H 0.85203 0.19741 0.23223 0.0
H418 H 0.94122 0.33038 0.24166 0.0
H419 H 0.94846 0.34729 0.20097 0.0
H420 H 0.76664 0.04066 0.67515 0.0
H421 H 0.70757 0.01769 0.64502 0.0
H422 H 0.73731 0.16343 0.64003 0.0
H423 H 0.79633 0.18684 0.67053 0.0
H424 H 0.62402 0.03045 0.63789 0.0
H425 H 0.7741 0.13048 0.57715 0.0
H426 H 0.78388 0.11568 0.60545 0.0
H427 H 0.76958 0.16222 0.60135 0.0
C428 C 0.75987 0.0677 0.66809 0.0
C429 C 0.78654 0.11569 0.67509 0.0
C430 C 0.72608 0.05448 0.65086 0.0
C431 C 0.71843 0.08895 0.64025 0.0
C432 C 0.7431 0.13644 0.64793 0.0
H433 H 0.612 0.02251 0.50236 0.0
H434 H 0.62553 0.06559 0.53827 0.0
C435 C 0.77697 0.14975 0.66521 0.0
C436 C 0.68878 0.07558 0.61954 0.0
H437 H 0.69932 0.07984 0.56187 0.0
C438 C 0.64009 0.04195 0.62122 0.0
C439 C 0.70987 0.09104 0.59788 0.0
C440 C 0.76224 0.12666 0.59515 0.0
C441 C 0.61244 0.02132 0.60168 0.0
C442 C 0.63448 0.03391 0.58006 0.0
C443 C 0.68233 0.07018 0.57843 0.0
C444 C 0.61198 0.00514 0.55935 0.0
C445 C 0.56032 0.98526 0.60447 0.0
C446 C 0.59745 0.9562 0.55931 0.0
C447 C 0.58909 0.93136 0.53883 0.0
C448 C 0.59595 0.95521 0.518 0.0
C449 C 0.60619 0.00303 0.51812 0.0
C450 C 0.61416 0.02779 0.53865 0.0
H451 H 0.54517 0.9943 0.61939 0.0
H452 H 0.53954 0.98326 0.5891 0.0
H453 H 0.5562 0.94946 0.60761 0.0
H454 H 0.59643 0.93803 0.57494 0.0
H455 H 0.58054 0.89433 0.53927 0.0
H456 H 0.70715 0.8848 0.97043 0.0
H457 H 0.66096 0.82628 0.94142 0.0
H458 H 0.57152 0.72739 0.99321 0.0
H459 H 0.61916 0.78609 1.02265 0.0
H460 H 0.60265 0.68505 0.96548 0.0
H461 H 0.53485 0.77492 0.91128 0.0
H462 H 0.59593 0.81765 0.91671 0.0
H463 H 0.55416 0.79462 0.9401 0.0
C464 C 0.67731 0.85083 0.97566 0.0
C465 C 0.66705 0.83976 0.99877 0.0
C466 C 0.65027 0.81763 0.95903 0.0
C467 C 0.61194 0.77273 0.96506 0.0
C468 C 0.60045 0.76207 0.98815 0.0
H469 H 0.59629 0.66733 0.83008 0.0
H470 H 0.55191 0.66172 0.86486 0.0
C471 C 0.62764 0.79555 1.00491 0.0
C472 C 0.58989 0.73556 0.94719 0.0
H473 H 0.57149 0.73269 0.89021 0.0
C474 C 0.59386 0.69431 0.94918 0.0
C475 C 0.57581 0.74567 0.92615 0.0
C476 C 0.56438 0.78539 0.92361 0.0
C477 C 0.59254 0.66818 0.92982 0.0
C478 C 0.58897 0.68502 0.90813 0.0
C479 C 0.57627 0.72072 0.9067 0.0
C480 C 0.60991 0.67568 0.88762 0.0
C481 C 0.59885 0.62522 0.9327 0.0
C482 C 0.65681 0.68414 0.8888 0.0
C483 C 0.6819 0.68693 0.86909 0.0
C484 C 0.6611 0.68231 0.84765 0.0
C485 C 0.61323 0.67098 0.84639 0.0
C486 C 0.58785 0.6678 0.86625 0.0
H487 H 0.57777 0.60361 0.94749 0.0
H488 H 0.58767 0.60216 0.9173 0.0
H489 H 0.63679 0.63731 0.93635 0.0
H490 H 0.67545 0.69192 0.90487 0.0
H491 H 0.71844 0.69484 0.87063 0.0
H492 H 0.84281 0.72061 0.33549 0.0
H493 H 0.85432 0.67857 0.30377 0.0
H494 H 0.00548 0.75307 0.31676 0.0
H495 H -0.00607 0.79286 0.34932 0.0
H496 H 0.90052 0.72663 0.26843 0.0
H497 H 0.9887 0.62771 0.29658 0.0
H498 H 0.95854 0.6468 0.31628 0.0
H499 H 0.01963 0.68684 0.30827 0.0
C500 C 0.87828 0.72658 0.33223 0.0
C501 C 0.91759 0.7607 0.34478 0.0
C502 C 0.88479 0.70255 0.314 0.0
C503 C 0.93069 0.71228 0.30791 0.0
C504 C 0.96955 0.74396 0.32136 0.0
H505 H 0.11042 0.79022 0.20169 0.0
H506 H 0.06715 0.75638 0.23703 0.0
C507 C 0.96301 0.76755 0.33973 0.0
C508 C 0.93941 0.69754 0.28533 0.0
H509 H 0.01169 0.66417 0.25832 0.0
C510 C 0.92343 0.71132 0.26616 0.0
C511 C 0.96916 0.67742 0.28233 0.0
C512 C 0.98448 0.65841 0.30203 0.0
C513 C 0.94032 0.7103 0.24435 0.0
C514 C 0.97359 0.69435 0.24163 0.0
C515 C 0.98634 0.67657 0.26049 0.0
C516 C 0.00182 0.70481 0.2205 0.0
C517 C 0.92584 0.73054 0.22476 0.0
C518 C 0.98012 0.68529 0.19953 0.0
C519 C 0.00471 0.70504 0.17923 0.0
C520 C 0.05125 0.74436 0.17978 0.0
C521 C 0.07426 0.76054 0.20082 0.0
C522 C 0.04973 0.74093 0.22101 0.0
H523 H 0.9039 0.7464 0.23036 0.0
H524 H 0.95781 0.75857 0.21582 0.0
H525 H 0.90468 0.70165 0.21238 0.0
H526 H 0.94328 0.65701 0.19884 0.0
H527 H 0.9862 0.69181 0.16322 0.0
H528 H 0.15526 0.08918 0.6724 0.0
H529 H 0.21548 0.14255 0.64545 0.0
H530 H 0.32638 0.16384 0.69241 0.0
H531 H 0.26612 0.11111 0.71986 0.0
H532 H 0.30864 0.23967 0.64454 0.0
H533 H 0.3258 0.0759 0.63846 0.0
H534 H 0.27573 0.07433 0.65275 0.0
H535 H 0.33365 0.105 0.66554 0.0
C536 C 0.19228 0.10687 0.6775 0.0
C537 C 0.20601 0.09495 0.69801 0.0
C538 C 0.22673 0.13741 0.66204 0.0
C539 C 0.27523 0.15629 0.66685 0.0
C540 C 0.28904 0.14917 0.68838 0.0
H541 H 0.42096 0.17733 0.53828 0.0
H542 H 0.42099 0.19108 0.57946 0.0
C543 C 0.25459 0.11877 0.70392 0.0
C544 C 0.30924 0.17346 0.64771 0.0
H545 H 0.35218 0.12809 0.60768 0.0
C546 C 0.31946 0.21607 0.63672 0.0
C547 C 0.32413 0.14297 0.63784 0.0
C548 C 0.31436 0.09689 0.64911 0.0
C549 C 0.34061 0.22685 0.61508 0.0
C550 C 0.34999 0.19335 0.60408 0.0
C551 C 0.34451 0.15346 0.6161 0.0
C552 C 0.3552 0.19312 0.57911 0.0
C553 C 0.35099 0.27289 0.60366 0.0
C554 C 0.31804 0.18921 0.56543 0.0
C555 C 0.31774 0.18101 0.54221 0.0
C556 C 0.35435 0.17598 0.5321 0.0
C557 C 0.39229 0.18102 0.54566 0.0
C558 C 0.39248 0.18912 0.56908 0.0
H559 H 0.35547 0.30044 0.61633 0.0
H560 H 0.38365 0.28703 0.59305 0.0
H561 H 0.32096 0.26631 0.59237 0.0
H562 H 0.28803 0.19048 0.57285 0.0
H563 H 0.28843 0.17813 0.53218 0.0
H564 H 0.33873 0.09529 1.05309 0.0
H565 H 0.42093 0.1114 1.04863 0.0
H566 H 0.38133 0.97478 0.07872 0.0
H567 H 0.29975 0.95845 0.08327 0.0
H568 H 0.48163 0.11207 0.0857 0.0
H569 H 0.45277 0.97758 1.01934 0.0
H570 H 0.4112 -0.00142 1.02438 0.0
H571 H 0.41224 0.95497 1.04297 0.0
C572 C 0.34743 0.06848 1.05851 0.0
C573 C 0.31255 0.02556 1.06852 0.0
C574 C 0.39443 0.07778 1.05601 0.0
C575 C 0.40713 0.04404 1.06311 0.0
C576 C 0.37223 0.00101 1.07279 0.0
H577 H 0.65751 0.01568 1.07687 0.0
H578 H 0.57725 0.00449 1.07378 0.0
C579 C 0.32557 0.99189 1.07549 0.0
C580 C 0.45722 0.05434 1.0616 0.0
H581 H 0.52712 0.0131 1.03868 0.0
C582 C 0.49181 0.0909 1.0752 0.0
C583 C 0.47025 0.0263 1.04809 0.0
C584 C 0.43483 0.98738 1.0327 0.0
C585 C 0.53871 0.09915 1.07626 0.0
C586 C 0.55176 0.07086 1.06285 0.0
C587 C 0.51725 0.0348 1.04895 0.0
C588 C 0.60065 0.07731 1.0635 0.0
C589 C 0.57322 0.13676 0.09249 0.0
C590 C 0.64063 0.12158 1.05813 0.0
C591 C 0.68661 0.12818 1.06002 0.0
C592 C 0.6937 0.09045 1.06702 0.0
C593 C 0.6535 0.04557 1.07146 0.0
C594 C 0.6075 0.0391 1.06972 0.0
H595 H 0.5545 0.1457 0.1058 0.0
H596 H 0.59606 0.12476 0.10095 0.0
H597 H 0.59656 0.16995 0.08288 0.0
H598 H 0.63632 0.15126 1.05269 0.0
H599 H 0.71663 0.16313 1.05625 0.0
H600 H 0.32547 0.40519 0.40069 0.0
H601 H 0.3963 0.48464 0.39757 0.0
H602 H 0.4857 0.4247 0.41328 0.0
H603 H 0.41534 0.34519 0.41637 0.0
H604 H 0.5045 0.50982 0.4392 0.0
H605 H 0.49922 0.53345 0.34592 0.0
H606 H 0.44421 0.51495 0.36082 0.0
H607 H 0.46833 0.4755 0.35943 0.0
C608 C 0.36016 0.40876 0.40337 0.0
C609 C 0.36452 0.36856 0.40868 0.0
C610 C 0.40067 0.45424 0.40148 0.0
C611 C 0.44635 0.46054 0.40497 0.0
C612 C 0.45084 0.42064 0.4104 0.0
H613 H 0.7252 0.72654 0.41576 0.0
H614 H 0.664 0.64149 0.41461 0.0
C615 C 0.41046 0.37513 0.41209 0.0
C616 C 0.48932 0.50895 0.40356 0.0
H617 H 0.5541 0.60137 0.36705 0.0
C618 C 0.51568 0.52977 0.42341 0.0
C619 C 0.50382 0.53483 0.38294 0.0
C620 C 0.47776 0.51356 0.36098 0.0
C621 C 0.55503 0.57653 0.42339 0.0
C622 C 0.56927 0.60278 0.40278 0.0
C623 C 0.54343 0.58136 0.38283 0.0
C624 C 0.60827 0.65372 0.40187 0.0
C625 C 0.57958 0.59808 0.44564 0.0
C626 C 0.59819 0.6888 0.39407 0.0
C627 C 0.63312 0.73711 0.39439 0.0
C628 C 0.67924 0.75183 0.40256 0.0
C629 C 0.69004 0.71655 0.40949 0.0
C630 C 0.65491 0.66792 0.40905 0.0
H631 H 0.55745 0.57786 0.46048 0.0
H632 H 0.61342 0.59733 0.44646 0.0
H633 H 0.58809 0.63586 0.44715 0.0
H634 H 0.5627 0.67893 0.38831 0.0
H635 H 0.62335 0.76306 0.3888 0.0
H636 H 0.94709 0.33692 0.75312 0.0
H637 H 0.92367 0.39874 0.7521 0.0
H638 H 0.05624 0.49537 0.71905 0.0
H639 H 0.07914 0.43422 0.7195 0.0
H640 H 0.96752 0.48629 0.77244 0.0
H641 H 0.96492 0.51257 0.67977 0.0
H642 H 0.9662 0.46169 0.69168 0.0
H643 H 0.02039 0.51821 0.68865 0.0
C644 C 0.97073 0.37099 0.7452 0.0
C645 C 0.01493 0.38034 0.73632 0.0
C646 C 0.95744 0.40644 0.74473 0.0
C647 C 0.98784 0.4517 0.73518 0.0
C648 C 0.0315 0.46057 0.72599 0.0
H649 H 0.0195 0.73548 0.7336 0.0
H650 H 0.02912 0.66475 0.73096 0.0
C651 C 0.04471 0.4254 0.72642 0.0
C652 C 0.97599 0.49098 0.73605 0.0
H653 H 0.97116 0.57639 0.70347 0.0
C654 C 0.96763 0.5055 0.75731 0.0
C655 C 0.97621 0.51638 0.71634 0.0
C656 C 0.98192 0.50109 0.69281 0.0
C657 C 0.96125 0.54549 0.75946 0.0
C658 C 0.96297 0.57165 0.73983 0.0
C659 C 0.97038 0.55667 0.71854 0.0
C660 C 0.95688 0.61451 0.7411 0.0
C661 C 0.95412 0.56042 0.7828 0.0
C662 C 0.91292 0.60978 0.74735 0.0
C663 C 0.90718 0.65001 0.74872 0.0
C664 C 0.94536 0.69614 0.74393 0.0
C665 C 0.98933 0.7007 0.73746 0.0
C666 C -0.0051 0.66026 0.73592 0.0
H667 H 0.96269 0.54229 0.79652 0.0
H668 H 0.97662 0.59973 0.78501 0.0
H669 H 0.91638 0.55107 0.78477 0.0
H670 H 0.88291 0.57484 0.75115 0.0
H671 H 0.87276 0.64485 0.75377 0.0
H672 H 0.14322 0.97181 0.16909 0.0
H673 H 0.14827 -0.0009 0.20864 0.0
H674 H 0.25749 0.14034 0.18907 0.0
H675 H 0.25101 0.11374 0.1496 0.0
H676 H 0.20616 0.02916 0.24204 0.0
H677 H 0.18337 0.18367 0.22387 0.0
H678 H 0.17584 0.14098 0.20216 0.0
H679 H 0.2344 0.18967 0.20904 0.0
C680 C 0.16847 0.00876 0.17311 0.0
C681 C 0.19668 0.04015 0.15552 0.0
C682 C 0.17136 0.02464 0.19605 0.0
C683 C 0.20261 0.07273 0.20267 0.0
C684 C 0.23158 0.10362 0.18512 0.0
H685 H 0.17821 0.19621 0.33608 0.0
H686 H 0.16926 0.16535 0.29718 0.0
C687 C 0.22828 0.08797 0.1622 0.0
C688 C 0.20564 0.09012 0.22762 0.0
H689 H 0.21325 0.18238 0.26081 0.0
C690 C 0.20751 0.06269 0.24593 0.0
C691 C 0.20621 0.13332 0.23379 0.0
C692 C 0.19928 0.1633 0.21621 0.0
C693 C 0.211 0.07712 0.26924 0.0
C694 C 0.21467 0.12185 0.2753 0.0
C695 C 0.21158 0.14867 0.257 0.0
C696 C 0.22032 0.14083 0.30014 0.0
C697 C 0.20874 0.04265 0.28715 0.0
C698 C 0.25244 0.13895 0.31593 0.0
C699 C 0.257 0.15609 0.33869 0.0
C700 C 0.23064 0.17732 0.34685 0.0
C701 C 0.19942 0.18035 0.33096 0.0
C702 C 0.19432 0.16251 0.30831 0.0
H703 H 0.18938 0.00516 0.28085 0.0
H704 H 0.24543 0.0511 0.2915 0.0
H705 H 0.19071 0.04481 0.30281 0.0
H706 H 0.27495 0.12475 0.31066 0.0
H707 H 0.28198 0.15325 0.34988 0.0
H708 H 0.25518 0.21253 0.50487 0.0
H709 H 0.23196 0.21668 0.54436 0.0
H710 H 0.1794 0.3095 0.52292 0.0
H711 H 0.19998 0.30315 0.48366 0.0
H712 H 0.24977 0.27149 0.57742 0.0
H713 H 0.06697 0.22818 0.55798 0.0
H714 H 0.10503 0.22503 0.53656 0.0
H715 H 0.10735 0.28108 0.54279 0.0
C716 C 0.23879 0.23399 0.50852 0.0
C717 C 0.22976 0.25734 0.49044 0.0
C718 C 0.22513 0.23631 0.53141 0.0
C719 C 0.20191 0.26228 0.53748 0.0
C720 C 0.19487 0.28717 0.51945 0.0
H721 H 0.04802 0.22901 0.66969 0.0
H722 H 0.07219 0.22124 0.63116 0.0
C723 C 0.20768 0.28417 0.49662 0.0
C724 C 0.18603 0.26417 0.56228 0.0
H725 H 0.09632 0.26369 0.59449 0.0
C726 C 0.216 0.26958 0.5809 0.0
C727 C 0.14119 0.26005 0.56803 0.0
C728 C 0.10312 0.24766 0.55032 0.0
C729 C 0.20359 0.27222 0.60406 0.0
C730 C 0.16055 0.27214 0.6096 0.0
C731 C 0.12998 0.26534 0.59104 0.0
C732 C 0.14581 0.27731 0.6342 0.0
C733 C 0.23628 0.27263 0.62237 0.0
C734 C 0.17791 0.31177 0.64992 0.0
C735 C 0.16403 0.31579 0.67251 0.0
C736 C 0.11695 0.28634 0.68051 0.0
C737 C 0.0846 0.25269 0.66468 0.0
C738 C 0.09862 0.24825 0.64223 0.0
H739 H 0.25442 0.2529 0.61675 0.0
H740 H 0.26411 0.3101 0.62595 0.0
H741 H 0.2168 0.25582 0.63832 0.0
H742 H 0.21411 0.33633 0.64473 0.0
H743 H 0.19039 0.34258 0.68369 0.0
H744 H 0.07585 0.33779 0.83651 0.0
H745 H 0.04866 0.31834 0.87636 0.0
H746 H 0.95418 0.17201 0.85711 0.0
H747 H 0.98158 0.19077 0.81794 0.0
H748 H 0.9674 0.28773 0.89963 0.0
H749 H 0.00965 0.14315 0.91013 0.0
H750 H 0.02925 0.18179 0.88563 0.0
H751 H 0.96979 0.13106 0.88679 0.0
C752 C 0.04955 0.30132 0.8407 0.0
C753 C 0.03174 0.26616 0.8233 0.0
C754 C 0.03367 0.29002 0.8638 0.0
C755 C -0.00043 0.24294 0.87074 0.0
C756 C 0.98144 0.20826 0.85322 0.0
H757 H 0.84526 0.09183 0.99794 0.0
H758 H 0.87668 0.11589 0.95922 0.0
C759 C -0.00283 0.21942 0.83032 0.0
C760 C 0.9821 0.23002 0.89574 0.0
H761 H 0.95927 0.14767 0.93849 0.0
C762 C 0.96622 0.25727 0.90803 0.0
C763 C 0.97963 0.19014 0.90757 0.0
C764 C -0.00157 0.16016 0.89696 0.0
C765 C 0.94728 0.24542 0.93066 0.0
C766 C 0.9444 0.20527 0.9424 0.0
C767 C 0.96062 0.17826 0.93015 0.0
C768 C 0.92464 0.19052 0.96698 0.0
C769 C 0.92872 0.27546 0.94138 0.0
C770 C 0.94052 0.22327 0.98543 0.0
C771 C 0.92226 0.20934 1.00794 0.0
C772 C 0.88724 0.16175 1.01336 0.0
C773 C 0.87178 0.12885 0.99498 0.0
C774 C 0.89012 0.14279 0.97249 0.0
H775 H 0.91925 0.29418 0.92833 0.0
H776 H 0.89681 0.25339 0.95201 0.0
H777 H 0.95684 0.30314 0.95233 0.0
H778 H 0.96791 0.25999 0.9826 0.0
H779 H 0.936 0.23621 1.02121 0.0
H780 H 0.8273 0.14375 0.16949 0.0
H781 H 0.82115 0.11937 0.20956 0.0
H782 H 0.76891 0.97374 0.18844 0.0
H783 H 0.77735 -0.00174 0.14871 0.0
H784 H 0.76065 0.06974 0.23993 0.0
H785 H 0.86103 0.97473 0.23069 0.0
H786 H 0.857 0.00997 0.20806 0.0
H787 H 0.8105 0.94866 0.21217 0.0
C788 C 0.81443 0.10643 0.17328 0.0
C789 C 0.80299 0.07339 0.15518 0.0
C790 C 0.81091 0.09226 0.19656 0.0
C791 C 0.79562 0.04431 0.20303 0.0
C792 C 0.78271 0.01124 0.18485 0.0
H793 H 0.8397 0.95289 0.34069 0.0
H794 H 0.84642 0.98293 0.30195 0.0
C795 C 0.78695 0.02544 0.16168 0.0
C796 C 0.79257 0.02884 0.22834 0.0
H797 H 0.81486 0.95801 0.26455 0.0
C798 C 0.77305 0.04561 0.24517 0.0
C799 C 0.8093 -0.00199 0.23635 0.0
C800 C 0.83612 0.98223 0.22094 0.0
C801 C 0.7694 0.03258 0.2687 0.0
C802 C 0.78308 -0.00099 0.27639 0.0
C803 C 0.80317 0.98284 0.25956 0.0
C804 C 0.77874 0.9814 0.30145 0.0
C805 C 0.75272 0.05715 0.28513 0.0
C806 C 0.73854 0.96942 0.31551 0.0
C807 C 0.73531 0.95323 0.33839 0.0
C808 C 0.77129 0.94641 0.34829 0.0
C809 C 0.81085 0.95723 0.33415 0.0
C810 C 0.81464 0.97454 0.31154 0.0
H811 H 0.76006 0.09245 0.27854 0.0
H812 H 0.71363 0.03491 0.28742 0.0
H813 H 0.77035 0.06288 0.30192 0.0
H814 H 0.70869 0.9716 0.30876 0.0
H815 H 0.7038 0.94496 0.34819 0.0
H816 H 0.73836 0.89213 0.50615 0.0
H817 H 0.75802 0.88459 0.54587 0.0
H818 H 0.85824 0.84326 0.52205 0.0
H819 H 0.84147 0.85449 0.48289 0.0
H820 H 0.75262 0.82804 0.57523 0.0
H821 H 0.94676 0.93044 0.56538 0.0
H822 H 0.90782 0.9267 0.54276 0.0
H823 H 0.92348 0.88051 0.54638 0.0
C824 C 0.76486 0.88172 0.50934 0.0
C825 C 0.78846 0.87459 0.49073 0.0
C826 C 0.77635 0.87731 0.53239 0.0
C827 C 0.81151 0.86486 0.53804 0.0
C828 C 0.83309 0.85548 0.51923 0.0
H829 H 0.9498 0.89974 0.67481 0.0
H830 H 0.92667 0.90935 0.63642 0.0
C831 C 0.82269 0.86122 0.49637 0.0
C832 C 0.8248 0.8607 0.56309 0.0
H833 H 0.91842 0.88104 0.59834 0.0
C834 C 0.78914 0.84017 0.58009 0.0
C835 C 0.87244 0.87723 0.57075 0.0
C836 C 0.91477 0.90544 0.55542 0.0
C837 C 0.79905 0.83505 0.60336 0.0
C838 C 0.84626 0.84829 0.6106 0.0
C839 C 0.88195 0.86958 0.59366 0.0
C840 C 0.85991 0.84214 0.63534 0.0
C841 C 0.7583 0.81732 0.62001 0.0
C842 C 0.83147 0.80112 0.64888 0.0
C843 C 0.84422 0.79637 0.67156 0.0
C844 C 0.88718 0.83139 0.68172 0.0
C845 C 0.91644 0.87161 0.66803 0.0
C846 C 0.90301 0.87705 0.64564 0.0
H847 H 0.73069 0.82569 0.61411 0.0
H848 H 0.74108 0.77784 0.62142 0.0
H849 H 0.77051 0.83354 0.63708 0.0
H850 H 0.79929 0.77179 0.64192 0.0
H851 H 0.82063 0.76436 0.681 0.0
H852 H 0.04303 0.87449 0.8172 0.0
H853 H 0.071 0.89662 0.85622 0.0
H854 H 0.92606 0.82291 0.88008 0.0
H855 H 0.89785 0.79941 0.84081 0.0
H856 H 0.06866 0.94971 0.88722 0.0
H857 H 0.97417 0.77092 0.92668 0.0
H858 H 0.97521 0.77887 0.89632 0.0
H859 H 0.93385 0.78678 0.91381 0.0
C860 C 0.01667 0.86198 0.83065 0.0
C861 C 0.96765 0.83388 0.82518 0.0
C862 C 0.03303 0.87522 0.85335 0.0
C863 C 0.00148 0.86118 0.8721 0.0
C864 C 0.95229 0.83347 0.86668 0.0
H865 H 0.12178 0.88985 1.0126 0.0
H866 H 0.09041 0.86537 0.9739 0.0
C867 C 0.93582 0.81997 0.84385 0.0
C868 C 0.02043 0.87674 0.89673 0.0
H869 H 0.01235 0.83679 0.952 0.0
C870 C 0.05605 0.92457 0.90124 0.0
C871 C 0.00568 0.845 0.91575 0.0
C872 C 0.97053 0.79246 0.91293 0.0
C873 C 0.0763 0.94111 0.9233 0.0
C874 C 0.0603 0.90981 0.9425 0.0
C875 C 0.02507 0.86183 0.93796 0.0
C876 C 0.08008 0.92553 0.96701 0.0
C877 C 0.11627 0.99211 0.92541 0.0
C878 C 0.08506 0.96759 0.97733 0.0
C879 C 0.10371 0.98206 0.9997 0.0
C880 C 0.11778 0.95494 1.01325 0.0
C881 C 0.11192 0.91237 1.00315 0.0
C882 C 0.09355 0.89807 0.98069 0.0
H883 H 0.13487 0.00591 0.90891 0.0
H884 H 0.10141 0.01513 0.93063 0.0
H885 H 0.14289 0.99552 0.93823 0.0
H886 H 0.07387 0.9894 0.96822 0.0
H887 H 0.10668 0.0147 1.00647 0.0
loop_
_geom_bond_atom_site_label_1
_geom_bond_atom_site_label_2
_geom_bond_distance
_geom_bond_site_symmetry_2
_ccdc_geom_bond_type
Dy0 O3 2.332 . S
Dy0 O5 2.395 . S
Dy0 O6 2.379 . S
Dy0 O8 2.339 . S
Dy0 O10 2.298 1_565 S
Dy0 O14 2.275 . S
Dy0 C22 2.738 . S
Dy1 O4 2.298 1_554 S
Dy1 O7 2.275 . S
Dy1 O9 2.307 . S
Dy1 O11 2.395 1_554 S
Dy1 O12 2.379 1_554 S
Dy1 O15 2.339 . S
Dy1 C31 2.738 1_554 S
C2 O14 1.254 1_545 S
C2 O15 1.257 . S
O3 Dy0 2.332 . S
O3 C13 1.245 1_554 S
O4 Dy1 2.298 1_556 S
O4 C13 1.236 1_545 S
O5 Dy0 2.395 . S
O5 C22 1.255 . S
O6 Dy0 2.379 . S
O6 C22 1.249 . S
O7 Dy1 2.275 . S
O7 C23 1.254 . S
O8 Dy0 2.339 . S
O8 C23 1.257 1_565 S
O9 Dy1 2.307 . S
O9 C24 1.266 . S
O10 Dy0 2.298 1_545 S
O10 C24 1.236 . S
O11 Dy1 2.395 1_556 S
O11 C31 1.255 . S
O12 Dy1 2.379 1_556 S
O12 C31 1.249 . S
C13 O3 1.245 1_556 S
C13 O4 1.236 1_565 S
O14 Dy0 2.275 . S
O14 C2 1.254 1_565 S
O15 Dy1 2.339 . S
O15 C2 1.257 . S
C16 C19 1.344 . S
C16 C20 1.328 . S
C16 C22 1.516 . S
C17 C18 1.304 . S
C17 C21 1.323 . S
C18 C17 1.304 . S
C18 C19 1.371 . S
C18 H32 0.930 . S
C19 C16 1.344 . S
C19 C18 1.371 . S
C19 H33 0.931 . S
C20 C16 1.328 . S
C20 C21 1.433 . S
C20 H34 0.931 . S
C21 C17 1.323 . S
C21 C20 1.433 . S
C21 H35 0.933 . S
C22 Dy0 2.738 . S
C22 O5 1.255 . S
C22 O6 1.249 . S
C22 C16 1.516 . S
C23 O7 1.254 . S
C23 O8 1.257 1_545 S
C24 O9 1.266 . S
C24 O10 1.236 . S
C25 C28 1.344 . S
C25 C29 1.328 . S
C25 C31 1.516 . S
C26 C27 1.304 . S
C26 C30 1.323 . S
C27 C26 1.304 . S
C27 C28 1.371 . S
C27 H36 0.930 . S
C28 C25 1.344 . S
C28 C27 1.371 . S
C28 H37 0.931 . S
C29 C25 1.328 . S
C29 C30 1.433 . S
C29 H38 0.931 . S
C30 C26 1.323 . S
C30 C29 1.433 . S
C30 H39 0.933 . S
C31 Dy1 2.738 1_556 S
C31 O11 1.255 . S
C31 O12 1.249 . S
C31 C25 1.516 . S
H32 C18 0.930 . S
H33 C19 0.931 . S
H34 C20 0.931 . S
H35 C21 0.933 . S
H36 C27 0.930 . S
H37 C28 0.931 . S
H38 C29 0.931 . S
H39 C30 0.933 . S
Dy40 O43 2.307 . S
Dy40 O45 2.395 . S
Dy40 O46 2.379 . S
Dy40 O48 2.339 . S
Dy40 O50 2.298 . S
Dy40 O54 2.275 . S
Dy40 C62 2.738 . S
Dy41 O44 2.298 . S
Dy41 O47 2.275 . S
Dy41 O49 2.307 . S
Dy41 O51 2.395 . S
Dy41 O52 2.379 . S
Dy41 O55 2.339 . S
Dy41 C71 2.738 . S
C42 O54 1.254 . S
C42 O55 1.257 . S
O43 Dy40 2.307 . S
O43 C53 1.266 . S
O44 Dy41 2.298 . S
O44 C53 1.236 . S
O45 Dy40 2.395 . S
O45 C62 1.255 . S
O46 Dy40 2.379 . S
O46 C62 1.249 . S
O47 Dy41 2.275 . S
O47 C63 1.254 . S
O48 Dy40 2.339 . S
O48 C63 1.257 . S
O49 Dy41 2.307 . S
O49 C64 1.266 . S
O50 Dy40 2.298 . S
O50 C64 1.236 . S
O51 Dy41 2.395 . S
O51 C71 1.255 . S
O52 Dy41 2.379 . S
O52 C71 1.249 . S
C53 O43 1.266 . S
C53 O44 1.236 . S
O54 Dy40 2.275 . S
O54 C42 1.254 . S
O55 Dy41 2.339 . S
O55 C42 1.257 . S
C56 C59 1.344 . S
C56 C60 1.328 . S
C56 C62 1.516 . S
C57 C58 1.304 . S
C57 C61 1.323 . S
C58 C57 1.304 . S
C58 C59 1.371 . S
C58 H72 0.930 . S
C59 C56 1.344 . S
C59 C58 1.371 . S
C59 H73 0.931 . S
C60 C56 1.328 . S
C60 C61 1.433 . S
C60 H74 0.931 . S
C61 C57 1.323 . S
C61 C60 1.433 . S
C61 H75 0.933 . S
C62 Dy40 2.738 . S
C62 O45 1.255 . S
C62 O46 1.249 . S
C62 C56 1.516 . S
C63 O47 1.254 . S
C63 O48 1.257 . S
C64 O49 1.266 . S
C64 O50 1.236 . S
C65 C68 1.344 . S
C65 C69 1.328 . S
C65 C71 1.516 . S
C66 C67 1.304 . S
C66 C70 1.323 . S
C67 C66 1.304 . S
C67 C68 1.371 . S
C67 H76 0.930 . S
C68 C65 1.344 . S
C68 C67 1.371 . S
C68 H77 0.931 . S
C69 C65 1.328 . S
C69 C70 1.433 . S
C69 H78 0.931 . S
C70 C66 1.323 . S
C70 C69 1.433 . S
C70 H79 0.933 . S
C71 Dy41 2.738 . S
C71 O51 1.255 . S
C71 O52 1.249 . S
C71 C65 1.516 . S
H72 C58 0.930 . S
H73 C59 0.931 . S
H74 C60 0.931 . S
H75 C61 0.933 . S
H76 C67 0.930 . S
H77 C68 0.931 . S
H78 C69 0.931 . S
H79 C70 0.933 . S
Dy80 O83 2.307 . S
Dy80 O85 2.395 . S
Dy80 O86 2.379 . S
Dy80 O88 2.339 . S
Dy80 O90 2.298 . S
Dy80 O94 2.275 . S
Dy80 C102 2.738 . S
Dy81 O84 2.298 1_655 S
Dy81 O87 2.275 1_655 S
Dy81 O89 2.307 . S
Dy81 O91 2.395 . S
Dy81 O92 2.379 . S
Dy81 O95 2.339 1_655 S
Dy81 C111 2.738 . S
C82 O94 1.254 . S
C82 O95 1.257 . S
O83 Dy80 2.307 . S
O83 C93 1.266 . S
O84 Dy81 2.298 1_455 S
O84 C93 1.236 . S
O85 Dy80 2.395 . S
O85 C102 1.255 . S
O86 Dy80 2.379 . S
O86 C102 1.249 . S
O87 Dy81 2.275 1_455 S
O87 C103 1.254 . S
O88 Dy80 2.339 . S
O88 C103 1.257 . S
O89 Dy81 2.307 . S
O89 C104 1.266 1_655 S
O90 Dy80 2.298 . S
O90 C104 1.236 . S
O91 Dy81 2.395 . S
O91 C111 1.255 . S
O92 Dy81 2.379 . S
O92 C111 1.249 . S
C93 O83 1.266 . S
C93 O84 1.236 . S
O94 Dy80 2.275 . S
O94 C82 1.254 . S
O95 Dy81 2.339 1_455 S
O95 C82 1.257 . S
C96 C99 1.344 . S
C96 C100 1.328 . S
C96 C102 1.516 . S
C97 C98 1.304 . S
C97 C101 1.323 . S
C98 C97 1.304 . S
C98 C99 1.371 . S
C98 H112 0.930 . S
C99 C96 1.344 . S
C99 C98 1.371 . S
C99 H113 0.931 . S
C100 C96 1.328 . S
C100 C101 1.433 . S
C100 H114 0.931 . S
C101 C97 1.323 . S
C101 C100 1.433 . S
C101 H115 0.933 . S
C102 Dy80 2.738 . S
C102 O85 1.255 . S
C102 O86 1.249 . S
C102 C96 1.516 . S
C103 O87 1.254 . S
C103 O88 1.257 . S
C104 O89 1.266 1_455 S
C104 O90 1.236 . S
C105 C108 1.344 . S
C105 C109 1.328 . S
C105 C111 1.516 . S
C106 C107 1.304 . S
C106 C110 1.323 . S
C107 C106 1.304 . S
C107 C108 1.371 . S
C107 H116 0.930 . S
C108 C105 1.344 . S
C108 C107 1.371 . S
C108 H117 0.931 . S
C109 C105 1.328 . S
C109 C110 1.433 . S
C109 H118 0.931 . S
C110 C106 1.323 . S
C110 C109 1.433 . S
C110 H119 0.933 . S
C111 Dy81 2.738 . S
C111 O91 1.255 . S
C111 O92 1.249 . S
C111 C105 1.516 . S
H112 C98 0.930 . S
H113 C99 0.931 . S
H114 C100 0.931 . S
H115 C101 0.933 . S
H116 C107 0.930 . S
H117 C108 0.931 . S
H118 C109 0.931 . S
H119 C110 0.933 . S
Dy120 O123 2.307 . S
Dy120 O125 2.395 1_554 S
Dy120 O126 2.379 1_554 S
Dy120 O128 2.339 . S
Dy120 O130 2.298 1_564 S
Dy120 O134 2.275 . S
Dy120 C142 2.738 1_554 S
Dy121 O124 2.298 . S
Dy121 O127 2.275 . S
Dy121 O129 2.307 1_554 S
Dy121 O131 2.395 . S
Dy121 O132 2.379 . S
Dy121 O135 2.339 . S
Dy121 C151 2.738 . S
C122 O134 1.254 1_545 S
C122 O135 1.257 . S
O123 Dy120 2.307 . S
O123 C133 1.266 . S
O124 Dy121 2.298 . S
O124 C133 1.236 1_545 S
O125 Dy120 2.395 1_556 S
O125 C142 1.255 . S
O126 Dy120 2.379 1_556 S
O126 C142 1.249 . S
O127 Dy121 2.275 . S
O127 C143 1.254 . S
O128 Dy120 2.339 . S
O128 C143 1.257 1_565 S
O129 Dy121 2.307 1_556 S
O129 C144 1.266 . S
O130 Dy120 2.298 1_546 S
O130 C144 1.236 . S
O131 Dy121 2.395 . S
O131 C151 1.255 . S
O132 Dy121 2.379 . S
O132 C151 1.249 . S
C133 O123 1.266 . S
C133 O124 1.236 1_565 S
O134 Dy120 2.275 . S
O134 C122 1.254 1_565 S
O135 Dy121 2.339 . S
O135 C122 1.257 . S
C136 C139 1.344 . S
C136 C140 1.328 . S
C136 C142 1.516 . S
C137 C138 1.304 . S
C137 C141 1.323 . S
C138 C137 1.304 . S
C138 C139 1.371 . S
C138 H152 0.930 . S
C139 C136 1.344 . S
C139 C138 1.371 . S
C139 H153 0.931 . S
C140 C136 1.328 . S
C140 C141 1.433 . S
C140 H154 0.931 . S
C141 C137 1.323 . S
C141 C140 1.433 . S
C141 H155 0.933 . S
C142 Dy120 2.738 1_556 S
C142 O125 1.255 . S
C142 O126 1.249 . S
C142 C136 1.516 . S
C143 O127 1.254 . S
C143 O128 1.257 1_545 S
C144 O129 1.266 . S
C144 O130 1.236 . S
C145 C148 1.344 . S
C145 C149 1.328 . S
C145 C151 1.516 . S
C146 C147 1.304 . S
C146 C150 1.323 . S
C147 C146 1.304 . S
C147 C148 1.371 . S
C147 H156 0.930 . S
C148 C145 1.344 . S
C148 C147 1.371 . S
C148 H157 0.931 . S
C149 C145 1.328 . S
C149 C150 1.433 . S
C149 H158 0.931 . S
C150 C146 1.323 . S
C150 C149 1.433 . S
C150 H159 0.933 . S
C151 Dy121 2.738 . S
C151 O131 1.255 . S
C151 O132 1.249 . S
C151 C145 1.516 . S
H152 C138 0.930 . S
H153 C139 0.931 . S
H154 C140 0.931 . S
H155 C141 0.933 . S
H156 C147 0.930 . S
H157 C148 0.931 . S
H158 C149 0.931 . S
H159 C150 0.933 . S
Dy160 O163 2.307 . S
Dy160 O165 2.395 . S
Dy160 O166 2.379 . S
Dy160 O168 2.339 . S
Dy160 O170 2.298 . S
Dy160 O174 2.275 . S
Dy160 C182 2.738 . S
Dy161 O164 2.298 . S
Dy161 O167 2.275 . S
Dy161 O169 2.307 . S
Dy161 O171 2.395 . S
Dy161 O172 2.379 . S
Dy161 O175 2.339 . S
Dy161 C191 2.738 . S
C162 O174 1.254 . S
C162 O175 1.257 . S
O163 Dy160 2.307 . S
O163 C173 1.266 . S
O164 Dy161 2.298 . S
O164 C173 1.236 . S
O165 Dy160 2.395 . S
O165 C182 1.255 . S
O166 Dy160 2.379 . S
O166 C182 1.249 . S
O167 Dy161 2.275 . S
O167 C183 1.254 . S
O168 Dy160 2.339 . S
O168 C183 1.257 . S
O169 Dy161 2.307 . S
O169 C184 1.266 . S
O170 Dy160 2.298 . S
O170 C184 1.236 . S
O171 Dy161 2.395 . S
O171 C191 1.255 . S
O172 Dy161 2.379 . S
O172 C191 1.249 . S
C173 O163 1.266 . S
C173 O164 1.236 . S
O174 Dy160 2.275 . S
O174 C162 1.254 . S
O175 Dy161 2.339 . S
O175 C162 1.257 . S
C176 C179 1.344 . S
C176 C180 1.328 . S
C176 C182 1.516 . S
C177 C178 1.304 . S
C177 C181 1.323 . S
C178 C177 1.304 . S
C178 C179 1.371 . S
C178 H192 0.930 . S
C179 C176 1.344 . S
C179 C178 1.371 . S
C179 H193 0.931 . S
C180 C176 1.328 . S
C180 C181 1.433 . S
C180 H194 0.931 . S
C181 C177 1.323 . S
C181 C180 1.433 . S
C181 H195 0.933 . S
C182 Dy160 2.738 . S
C182 O165 1.255 . S
C182 O166 1.249 . S
C182 C176 1.516 . S
C183 O167 1.254 . S
C183 O168 1.257 . S
C184 O169 1.266 . S
C184 O170 1.236 . S
C185 C188 1.344 . S
C185 C189 1.328 . S
C185 C191 1.516 . S
C186 C187 1.304 . S
C186 C190 1.323 . S
C187 C186 1.304 . S
C187 C188 1.371 . S
C187 H196 0.930 . S
C188 C185 1.344 . S
C188 C187 1.371 . S
C188 H197 0.931 . S
C189 C185 1.328 . S
C189 C190 1.433 . S
C189 H198 0.931 . S
C190 C186 1.323 . S
C190 C189 1.433 . S
C190 H199 0.933 . S
C191 Dy161 2.738 . S
C191 O171 1.255 . S
C191 O172 1.249 . S
C191 C185 1.516 . S
H192 C178 0.930 . S
H193 C179 0.931 . S
H194 C180 0.931 . S
H195 C181 0.933 . S
H196 C187 0.930 . S
H197 C188 0.931 . S
H198 C189 0.931 . S
H199 C190 0.933 . S
Dy200 O203 2.307 . S
Dy200 O205 2.395 . S
Dy200 O206 2.379 . S
Dy200 O208 2.339 . S
Dy200 O210 2.298 . S
Dy200 O214 2.275 . S
Dy200 C222 2.738 . S
Dy201 O204 2.298 1_655 S
Dy201 O207 2.275 1_655 S
Dy201 O209 2.307 . S
Dy201 O211 2.395 . S
Dy201 O212 2.379 . S
Dy201 O215 2.339 1_655 S
Dy201 C231 2.738 . S
C202 O214 1.254 . S
C202 O215 1.257 . S
O203 Dy200 2.307 . S
O203 C213 1.266 . S
O204 Dy201 2.298 1_455 S
O204 C213 1.236 . S
O205 Dy200 2.395 . S
O205 C222 1.255 . S
O206 Dy200 2.379 . S
O206 C222 1.249 . S
O207 Dy201 2.275 1_455 S
O207 C223 1.254 . S
O208 Dy200 2.339 . S
O208 C223 1.257 . S
O209 Dy201 2.307 . S
O209 C224 1.266 1_655 S
O210 Dy200 2.298 . S
O210 C224 1.236 . S
O211 Dy201 2.395 . S
O211 C231 1.255 . S
O212 Dy201 2.379 . S
O212 C231 1.249 . S
C213 O203 1.266 . S
C213 O204 1.236 . S
O214 Dy200 2.275 . S
O214 C202 1.254 . S
O215 Dy201 2.339 1_455 S
O215 C202 1.257 . S
C216 C219 1.344 . S
C216 C220 1.328 . S
C216 C222 1.516 . S
C217 C218 1.304 . S
C217 C221 1.323 . S
C218 C217 1.304 . S
C218 C219 1.371 . S
C218 H232 0.930 . S
C219 C216 1.344 . S
C219 C218 1.371 . S
C219 H233 0.931 . S
C220 C216 1.328 . S
C220 C221 1.433 . S
C220 H234 0.931 . S
C221 C217 1.323 . S
C221 C220 1.433 . S
C221 H235 0.933 . S
C222 Dy200 2.738 . S
C222 O205 1.255 . S
C222 O206 1.249 . S
C222 C216 1.516 . S
C223 O207 1.254 . S
C223 O208 1.257 . S
C224 O209 1.266 1_455 S
C224 O210 1.236 . S
C225 C228 1.344 . S
C225 C229 1.328 . S
C225 C231 1.516 . S
C226 C227 1.304 . S
C226 C230 1.323 . S
C227 C226 1.304 . S
C227 C228 1.371 . S
C227 H236 0.930 . S
C228 C225 1.344 . S
C228 C227 1.371 . S
C228 H237 0.931 . S
C229 C225 1.328 . S
C229 C230 1.433 . S
C229 H238 0.931 . S
C230 C226 1.323 . S
C230 C229 1.433 . S
C230 H239 0.933 . S
C231 Dy201 2.738 . S
C231 O211 1.255 . S
C231 O212 1.249 . S
C231 C225 1.516 . S
H232 C218 0.930 . S
H233 C219 0.931 . S
H234 C220 0.931 . S
H235 C221 0.933 . S
H236 C227 0.930 . S
H237 C228 0.931 . S
H238 C229 0.931 . S
H239 C230 0.933 . S
H240 C248 0.929 . S
H241 C250 0.930 . S
H242 C252 0.930 . S
H243 C255 0.929 . S
H244 C258 0.930 . S
H245 C260 0.960 . S
H246 C260 0.960 . S
H247 C260 0.960 . S
C248 H240 0.929 . S
C248 C249 1.377 . S
C248 C250 1.384 . S
C249 C248 1.377 . S
C249 C255 1.390 1_545 S
C250 H241 0.930 . S
C250 C248 1.384 . S
C250 C251 1.372 . S
C251 C250 1.372 . S
C251 C252 1.400 1_545 S
C251 C256 1.490 . S
C252 H242 0.930 . S
C252 C251 1.400 1_565 S
C252 C255 1.386 . S
H253 C269 0.930 . S
H254 C270 0.931 . S
C255 H243 0.929 . S
C255 C249 1.390 1_565 S
C255 C252 1.386 . S
C256 C251 1.490 . S
C256 C258 1.395 . S
C256 C259 1.403 1_545 S
H257 C263 0.932 . S
C258 H244 0.930 . S
C258 C256 1.395 . S
C258 C261 1.403 1_655 S
C259 C256 1.403 1_565 S
C259 C260 1.524 1_554 S
C259 C263 1.400 . S
C260 H245 0.960 . S
C260 H246 0.960 . S
C260 H247 0.960 . S
C260 C259 1.524 1_556 S
C261 C258 1.403 1_455 S
C261 C262 1.392 . S
C261 C265 1.495 . S
C262 C261 1.392 . S
C262 C263 1.385 1_445 S
C262 C264 1.478 . S
C263 H257 0.932 . S
C263 C259 1.400 . S
C263 C262 1.385 1_665 S
C264 C262 1.478 . S
C264 C266 1.381 . S
C264 C270 1.383 1_545 S
C265 C261 1.495 . S
C265 H271 0.959 . S
C265 H272 0.961 . S
C265 H273 0.960 . S
C266 C264 1.381 . S
C266 C267 1.394 . S
C266 H274 0.930 . S
C267 C266 1.394 . S
C267 C268 1.383 . S
C267 H275 0.929 . S
C268 C267 1.383 . S
C268 C269 1.377 1_545 S
C269 H253 0.930 . S
C269 C268 1.377 1_565 S
C269 C270 1.379 . S
C270 H254 0.931 . S
C270 C264 1.383 1_565 S
C270 C269 1.379 . S
H271 C265 0.959 . S
H272 C265 0.961 . S
H273 C265 0.960 . S
H274 C266 0.930 . S
H275 C267 0.929 . S
H276 C284 0.929 . S
H277 C286 0.930 1_545 S
H278 C288 0.930 . S
H279 C291 0.929 . S
H280 C294 0.930 . S
H281 C296 0.960 1_455 S
H282 C296 0.960 1_565 S
H283 C296 0.960 1_565 S
C284 H276 0.929 . S
C284 C285 1.377 . S
C284 C286 1.384 . S
C285 C284 1.377 . S
C285 C291 1.390 . S
C286 H277 0.930 1_565 S
C286 C284 1.384 . S
C286 C287 1.373 1_565 S
C287 C286 1.373 1_545 S
C287 C288 1.396 1_545 S
C287 C292 1.493 . S
C288 H278 0.930 . S
C288 C287 1.396 1_565 S
C288 C291 1.386 . S
H289 C305 0.930 . S
H290 C306 0.931 . S
C291 H279 0.929 . S
C291 C285 1.390 . S
C291 C288 1.386 . S
C292 C287 1.493 . S
C292 C294 1.395 . S
C292 C295 1.403 . S
H293 C299 0.930 . S
C294 H280 0.930 . S
C294 C292 1.395 . S
C294 C297 1.403 . S
C295 C292 1.403 . S
C295 C296 1.524 . S
C295 C299 1.400 1_655 S
C296 H281 0.960 1_655 S
C296 H282 0.960 1_545 S
C296 H283 0.960 1_545 S
C296 C295 1.524 . S
C297 C294 1.403 . S
C297 C298 1.392 1_655 S
C297 C301 1.495 . S
C298 C297 1.392 1_455 S
C298 C299 1.385 . S
C298 C300 1.478 . S
C299 H293 0.930 . S
C299 C295 1.400 1_455 S
C299 C298 1.385 . S
C300 C298 1.478 . S
C300 C302 1.381 . S
C300 C306 1.383 . S
C301 C297 1.495 . S
C301 H307 0.959 . S
C301 H308 0.961 . S
C301 H309 0.960 . S
C302 C300 1.381 . S
C302 C303 1.394 . S
C302 H310 0.930 . S
C303 C302 1.394 . S
C303 C304 1.383 . S
C303 H311 0.929 . S
C304 C303 1.383 . S
C304 C305 1.377 . S
C305 H289 0.930 . S
C305 C304 1.377 . S
C305 C306 1.379 . S
C306 H290 0.931 . S
C306 C300 1.383 . S
C306 C305 1.379 . S
H307 C301 0.959 . S
H308 C301 0.961 . S
H309 C301 0.960 . S
H310 C302 0.930 . S
H311 C303 0.929 . S
H312 C320 0.929 . S
H313 C322 0.930 . S
H314 C324 0.930 1_545 S
H315 C327 0.929 . S
H316 C330 0.930 . S
H317 C332 0.960 . S
H318 C332 0.960 1_565 S
H319 C332 0.960 1_455 S
C320 H312 0.929 . S
C320 C321 1.377 . S
C320 C322 1.384 . S
C321 C320 1.377 . S
C321 C327 1.390 . S
C322 H313 0.930 . S
C322 C320 1.384 . S
C322 C323 1.372 . S
C323 C322 1.372 . S
C323 C324 1.400 . S
C323 C328 1.490 1_565 S
C324 H314 0.930 1_565 S
C324 C323 1.400 . S
C324 C327 1.386 . S
H325 C341 0.930 . S
H326 C342 0.931 . S
C327 H315 0.929 . S
C327 C321 1.390 . S
C327 C324 1.386 . S
C328 C323 1.490 1_545 S
C328 C330 1.395 . S
C328 C331 1.403 . S
H329 C335 0.930 . S
C330 H316 0.930 . S
C330 C328 1.395 . S
C330 C333 1.403 . S
C331 C328 1.403 . S
C331 C332 1.524 1_455 S
C331 C335 1.400 . S
C332 H317 0.960 . S
C332 H318 0.960 1_545 S
C332 H319 0.960 1_655 S
C332 C331 1.524 1_655 S
C333 C330 1.403 . S
C333 C334 1.392 . S
C333 C337 1.495 . S
C334 C333 1.392 . S
C334 C335 1.385 . S
C334 C336 1.478 . S
C335 H329 0.930 . S
C335 C331 1.400 . S
C335 C334 1.385 . S
C336 C334 1.478 . S
C336 C338 1.381 . S
C336 C342 1.383 . S
C337 C333 1.495 . S
C337 H343 0.959 . S
C337 H344 0.961 . S
C337 H345 0.960 . S
C338 C336 1.381 . S
C338 C339 1.394 . S
C338 H346 0.930 . S
C339 C338 1.394 . S
C339 C340 1.383 . S
C339 H347 0.929 . S
C340 C339 1.383 . S
C340 C341 1.377 . S
C341 H325 0.930 . S
C341 C340 1.377 . S
C341 C342 1.379 . S
C342 H326 0.931 . S
C342 C336 1.383 . S
C342 C341 1.379 . S
H343 C337 0.959 . S
H344 C337 0.961 . S
H345 C337 0.960 . S
H346 C338 0.930 . S
H347 C339 0.929 . S
H348 C356 0.929 . S
H349 C358 0.930 . S
H350 C360 0.930 . S
H351 C363 0.929 . S
H352 C366 0.930 . S
H353 C368 0.960 . S
H354 C368 0.960 . S
H355 C368 0.960 . S
C356 H348 0.929 . S
C356 C357 1.377 . S
C356 C358 1.384 . S
C357 C356 1.377 . S
C357 C363 1.390 . S
C358 H349 0.930 . S
C358 C356 1.384 . S
C358 C359 1.372 . S
C359 C358 1.372 . S
C359 C360 1.400 . S
C359 C364 1.490 . S
C360 H350 0.930 . S
C360 C359 1.400 . S
C360 C363 1.386 . S
H361 C377 0.930 . S
H362 C378 0.931 . S
C363 H351 0.929 . S
C363 C357 1.390 . S
C363 C360 1.386 . S
C364 C359 1.490 . S
C364 C366 1.395 . S
C364 C367 1.403 . S
H365 C371 0.930 . S
C366 H352 0.930 . S
C366 C364 1.395 . S
C366 C369 1.403 . S
C367 C364 1.403 . S
C367 C368 1.524 . S
C367 C371 1.400 . S
C368 H353 0.960 . S
C368 H354 0.960 . S
C368 H355 0.960 . S
C368 C367 1.524 . S
C369 C366 1.403 . S
C369 C370 1.392 . S
C369 C373 1.495 . S
C370 C369 1.392 . S
C370 C371 1.385 . S
C370 C372 1.478 . S
C371 H365 0.930 . S
C371 C367 1.400 . S
C371 C370 1.385 . S
C372 C370 1.478 . S
C372 C374 1.381 . S
C372 C378 1.383 . S
C373 C369 1.495 . S
C373 H379 0.959 . S
C373 H380 0.961 . S
C373 H381 0.960 . S
C374 C372 1.381 . S
C374 C375 1.394 . S
C374 H382 0.930 . S
C375 C374 1.394 . S
C375 C376 1.383 . S
C375 H383 0.929 . S
C376 C375 1.383 . S
C376 C377 1.377 . S
C377 H361 0.930 . S
C377 C376 1.377 . S
C377 C378 1.379 . S
C378 H362 0.931 . S
C378 C372 1.383 . S
C378 C377 1.379 . S
H379 C373 0.959 . S
H380 C373 0.961 . S
H381 C373 0.960 . S
H382 C374 0.930 . S
H383 C375 0.929 . S
H384 C392 0.929 . S
H385 C394 0.930 . S
H386 C396 0.930 1_655 S
H387 C399 0.929 . S
H388 C402 0.930 1_455 S
H389 C404 0.960 . S
H390 C404 0.960 1_455 S
H391 C404 0.960 . S
C392 H384 0.929 . S
C392 C393 1.377 . S
C392 C394 1.384 . S
C393 C392 1.377 . S
C393 C399 1.390 . S
C394 H385 0.930 . S
C394 C392 1.384 . S
C394 C395 1.372 . S
C395 C394 1.372 . S
C395 C396 1.400 . S
C395 C400 1.490 1_455 S
C396 H386 0.930 1_455 S
C396 C395 1.400 . S
C396 C399 1.386 . S
H397 C413 0.930 . S
H398 C414 0.931 . S
C399 H387 0.929 . S
C399 C393 1.390 . S
C399 C396 1.386 . S
C400 C395 1.490 1_655 S
C400 C402 1.395 . S
C400 C403 1.403 . S
H401 C407 0.930 . S
C402 H388 0.930 1_655 S
C402 C400 1.395 . S
C402 C405 1.403 . S
C403 C400 1.403 . S
C403 C404 1.524 . S
C403 C407 1.400 . S
C404 H389 0.960 . S
C404 H390 0.960 1_655 S
C404 H391 0.960 . S
C404 C403 1.524 . S
C405 C402 1.403 . S
C405 C406 1.392 . S
C405 C409 1.495 . S
C406 C405 1.392 . S
C406 C407 1.385 . S
C406 C408 1.478 . S
C407 H401 0.930 . S
C407 C403 1.400 . S
C407 C406 1.385 . S
C408 C406 1.478 . S
C408 C410 1.381 . S
C408 C414 1.383 . S
C409 C405 1.495 . S
C409 H415 0.959 . S
C409 H416 0.961 . S
C409 H417 0.960 . S
C410 C408 1.381 . S
C410 C411 1.394 . S
C410 H418 0.930 . S
C411 C410 1.394 . S
C411 C412 1.383 . S
C411 H419 0.929 . S
C412 C411 1.383 . S
C412 C413 1.377 . S
C413 H397 0.930 . S
C413 C412 1.377 . S
C413 C414 1.379 . S
C414 H398 0.931 . S
C414 C408 1.383 . S
C414 C413 1.379 . S
H415 C409 0.959 . S
H416 C409 0.961 . S
H417 C409 0.960 . S
H418 C410 0.930 . S
H419 C411 0.929 . S
H420 C428 0.929 . S
H421 C430 0.930 . S
H422 C432 0.930 . S
H423 C435 0.929 . S
H424 C438 0.930 . S
H425 C440 0.960 . S
H426 C440 0.960 . S
H427 C440 0.960 . S
C428 H420 0.929 . S
C428 C429 1.377 . S
C428 C430 1.384 . S
C429 C428 1.377 . S
C429 C435 1.390 . S
C430 H421 0.930 . S
C430 C428 1.384 . S
C430 C431 1.372 . S
C431 C430 1.372 . S
C431 C432 1.400 . S
C431 C436 1.490 . S
C432 H422 0.930 . S
C432 C431 1.400 . S
C432 C435 1.386 . S
H433 C449 0.933 . S
H434 C450 0.931 . S
C435 H423 0.929 . S
C435 C429 1.390 . S
C435 C432 1.386 . S
C436 C431 1.490 . S
C436 C438 1.395 . S
C436 C439 1.403 . S
H437 C443 0.930 . S
C438 H424 0.930 . S
C438 C436 1.395 . S
C438 C441 1.403 . S
C439 C436 1.403 . S
C439 C440 1.524 . S
C439 C443 1.400 . S
C440 H425 0.960 . S
C440 H426 0.960 . S
C440 H427 0.960 . S
C440 C439 1.524 . S
C441 C438 1.403 . S
C441 C442 1.392 . S
C441 C445 1.495 . S
C442 C441 1.392 . S
C442 C443 1.385 . S
C442 C444 1.478 . S
C443 H437 0.930 . S
C443 C439 1.400 . S
C443 C442 1.385 . S
C444 C442 1.478 . S
C444 C446 1.381 1_545 S
C444 C450 1.383 . S
C445 C441 1.495 . S
C445 H451 0.959 . S
C445 H452 0.961 . S
C445 H453 0.960 . S
C446 C444 1.381 1_565 S
C446 C447 1.394 . S
C446 H454 0.930 . S
C447 C446 1.394 . S
C447 C448 1.383 . S
C447 H455 0.929 . S
C448 C447 1.383 . S
C448 C449 1.363 1_565 S
C449 H433 0.933 . S
C449 C448 1.363 1_545 S
C449 C450 1.390 . S
C450 H434 0.931 . S
C450 C444 1.383 . S
C450 C449 1.390 . S
H451 C445 0.959 . S
H452 C445 0.961 . S
H453 C445 0.960 . S
H454 C446 0.930 . S
H455 C447 0.929 . S
H456 C464 0.929 . S
H457 C466 0.930 . S
H458 C468 0.930 . S
H459 C471 0.929 . S
H460 C474 0.930 . S
H461 C476 0.960 . S
H462 C476 0.960 . S
H463 C476 0.960 . S
C464 H456 0.929 . S
C464 C465 1.377 . S
C464 C466 1.384 . S
C465 C464 1.377 . S
C465 C471 1.390 . S
C466 H457 0.930 . S
C466 C464 1.384 . S
C466 C467 1.372 . S
C467 C466 1.372 . S
C467 C468 1.400 . S
C467 C472 1.490 . S
C468 H458 0.930 . S
C468 C467 1.400 . S
C468 C471 1.386 . S
H469 C485 0.930 . S
H470 C486 0.931 . S
C471 H459 0.929 . S
C471 C465 1.390 . S
C471 C468 1.386 . S
C472 C467 1.490 . S
C472 C474 1.395 . S
C472 C475 1.403 . S
H473 C479 0.930 . S
C474 H460 0.930 . S
C474 C472 1.395 . S
C474 C477 1.403 . S
C475 C472 1.403 . S
C475 C476 1.524 . S
C475 C479 1.400 . S
C476 H461 0.960 . S
C476 H462 0.960 . S
C476 H463 0.960 . S
C476 C475 1.524 . S
C477 C474 1.403 . S
C477 C478 1.392 . S
C477 C481 1.495 . S
C478 C477 1.392 . S
C478 C479 1.385 . S
C478 C480 1.478 . S
C479 H473 0.930 . S
C479 C475 1.400 . S
C479 C478 1.385 . S
C480 C478 1.478 . S
C480 C482 1.381 . S
C480 C486 1.383 . S
C481 C477 1.495 . S
C481 H487 0.959 . S
C481 H488 0.961 . S
C481 H489 0.960 . S
C482 C480 1.381 . S
C482 C483 1.394 . S
C482 H490 0.930 . S
C483 C482 1.394 . S
C483 C484 1.383 . S
C483 H491 0.929 . S
C484 C483 1.383 . S
C484 C485 1.377 . S
C485 H469 0.930 . S
C485 C484 1.377 . S
C485 C486 1.379 . S
C486 H470 0.931 . S
C486 C480 1.383 . S
C486 C485 1.379 . S
H487 C481 0.959 . S
H488 C481 0.961 . S
H489 C481 0.960 . S
H490 C482 0.930 . S
H491 C483 0.929 . S
H492 C500 0.929 . S
H493 C502 0.930 . S
H494 C504 0.930 . S
H495 C507 0.929 . S
H496 C510 0.930 . S
H497 C512 0.960 1_455 S
H498 C512 0.960 . S
H499 C512 0.960 . S
C500 H492 0.929 . S
C500 C501 1.377 . S
C500 C502 1.384 . S
C501 C500 1.377 . S
C501 C507 1.390 . S
C502 H493 0.930 . S
C502 C500 1.384 . S
C502 C503 1.372 . S
C503 C502 1.372 . S
C503 C504 1.400 . S
C503 C508 1.490 . S
C504 H494 0.930 . S
C504 C503 1.400 . S
C504 C507 1.386 . S
H505 C521 0.930 . S
H506 C522 0.931 . S
C507 H495 0.929 . S
C507 C501 1.390 . S
C507 C504 1.386 . S
C508 C503 1.490 . S
C508 C510 1.395 . S
C508 C511 1.403 . S
H509 C515 0.930 1_455 S
C510 H496 0.930 . S
C510 C508 1.395 . S
C510 C513 1.403 . S
C511 C508 1.403 . S
C511 C512 1.524 . S
C511 C515 1.400 . S
C512 H497 0.960 1_655 S
C512 H498 0.960 . S
C512 H499 0.960 . S
C512 C511 1.524 . S
C513 C510 1.403 . S
C513 C514 1.392 . S
C513 C517 1.495 . S
C514 C513 1.392 . S
C514 C515 1.385 . S
C514 C516 1.478 1_655 S
C515 H509 0.930 1_655 S
C515 C511 1.400 . S
C515 C514 1.385 . S
C516 C514 1.478 1_455 S
C516 C518 1.381 . S
C516 C522 1.383 . S
C517 C513 1.495 . S
C517 H523 0.959 . S
C517 H524 0.961 . S
C517 H525 0.960 . S
C518 C516 1.381 . S
C518 C519 1.394 . S
C518 H526 0.930 . S
C519 C518 1.394 . S
C519 C520 1.383 . S
C519 H527 0.929 . S
C520 C519 1.383 . S
C520 C521 1.377 . S
C521 H505 0.930 . S
C521 C520 1.377 . S
C521 C522 1.379 . S
C522 H506 0.931 . S
C522 C516 1.383 . S
C522 C521 1.379 . S
H523 C517 0.959 . S
H524 C517 0.961 . S
H525 C517 0.960 . S
H526 C518 0.930 . S
H527 C519 0.929 . S
H528 C536 0.929 . S
H529 C538 0.930 . S
H530 C540 0.930 . S
H531 C543 0.929 . S
H532 C546 0.930 . S
H533 C548 0.960 . S
H534 C548 0.969 . S
H535 C548 0.960 . S
C536 H528 0.929 . S
C536 C537 1.377 . S
C536 C538 1.384 1_565 S
C537 C536 1.377 . S
C537 C543 1.390 . S
C538 H529 0.930 . S
C538 C536 1.384 1_545 S
C538 C539 1.372 . S
C539 C538 1.372 . S
C539 C540 1.400 . S
C539 C544 1.490 . S
C540 H530 0.930 . S
C540 C539 1.400 . S
C540 C543 1.386 1_545 S
H541 C557 0.930 . S
H542 C558 0.931 . S
C543 H531 0.929 . S
C543 C537 1.390 . S
C543 C540 1.386 1_565 S
C544 C539 1.490 . S
C544 C546 1.395 . S
C544 C547 1.403 . S
H545 C551 0.930 . S
C546 H532 0.930 . S
C546 C544 1.395 . S
C546 C549 1.403 . S
C547 C544 1.403 . S
C547 C548 1.524 . S
C547 C551 1.400 . S
C548 H533 0.960 . S
C548 H534 0.969 . S
C548 H535 0.960 . S
C548 C547 1.524 . S
C549 C546 1.403 . S
C549 C550 1.392 . S
C549 C553 1.495 . S
C550 C549 1.392 . S
C550 C551 1.385 . S
C550 C552 1.478 . S
C551 H545 0.930 . S
C551 C547 1.400 . S
C551 C550 1.385 . S
C552 C550 1.478 . S
C552 C554 1.381 . S
C552 C558 1.383 . S
C553 C549 1.495 . S
C553 H559 0.959 . S
C553 H560 0.961 . S
C553 H561 0.960 . S
C554 C552 1.381 . S
C554 C555 1.394 . S
C554 H562 0.930 . S
C555 C554 1.394 . S
C555 C556 1.383 . S
C555 H563 0.929 . S
C556 C555 1.383 . S
C556 C557 1.377 . S
C557 H541 0.930 . S
C557 C556 1.377 . S
C557 C558 1.379 . S
C558 H542 0.931 . S
C558 C552 1.383 . S
C558 C557 1.379 . S
H559 C553 0.959 . S
H560 C553 0.961 . S
H561 C553 0.960 . S
H562 C554 0.930 . S
H563 C555 0.929 . S
H564 C572 0.929 . S
H565 C574 0.930 . S
H566 C576 0.930 . S
H567 C579 0.929 . S
H568 C582 0.930 . S
H569 C584 0.960 1_565 S
H570 C584 0.960 . S
H571 C584 0.960 1_565 S
C572 H564 0.929 . S
C572 C573 1.377 . S
C572 C574 1.384 . S
C573 C572 1.377 . S
C573 C579 1.390 1_545 S
C574 H565 0.930 . S
C574 C572 1.384 . S
C574 C575 1.372 . S
C575 C574 1.372 . S
C575 C576 1.400 1_545 S
C575 C580 1.490 . S
C576 H566 0.930 . S
C576 C575 1.400 1_565 S
C576 C579 1.386 . S
H577 C593 0.930 . S
H578 C594 0.931 . S
C579 H567 0.929 . S
C579 C573 1.390 1_565 S
C579 C576 1.386 . S
C580 C575 1.490 . S
C580 C582 1.395 . S
C580 C583 1.439 . S
H581 C587 0.930 1_556 S
C582 H568 0.930 . S
C582 C580 1.395 . S
C582 C585 1.403 . S
C583 C580 1.439 . S
C583 C584 1.483 1_554 S
C583 C587 1.406 . S
C584 H569 0.960 1_545 S
C584 H570 0.960 . S
C584 H571 0.960 1_545 S
C584 C583 1.483 1_556 S
C585 C582 1.403 . S
C585 C586 1.392 . S
C585 C589 1.495 . S
C586 C585 1.392 . S
C586 C587 1.385 . S
C586 C588 1.478 . S
C587 H581 0.930 1_554 S
C587 C583 1.406 . S
C587 C586 1.385 . S
C588 C586 1.478 . S
C588 C590 1.381 . S
C588 C594 1.383 1_545 S
C589 C585 1.495 . S
C589 H595 0.959 . S
C589 H596 0.961 . S
C589 H597 0.960 . S
C590 C588 1.381 . S
C590 C591 1.394 . S
C590 H598 0.930 . S
C591 C590 1.394 . S
C591 C592 1.383 . S
C591 H599 0.929 . S
C592 C591 1.383 . S
C592 C593 1.377 1_545 S
C593 H577 0.930 . S
C593 C592 1.377 1_565 S
C593 C594 1.379 . S
C594 H578 0.931 . S
C594 C588 1.383 1_565 S
C594 C593 1.379 . S
H595 C589 0.959 . S
H596 C589 0.961 . S
H597 C589 0.960 . S
H598 C590 0.930 . S
H599 C591 0.929 . S
H600 C608 0.929 . S
H601 C610 0.930 . S
H602 C612 0.930 . S
H603 C615 0.929 . S
H604 C618 0.930 . S
H605 C620 0.960 . S
H606 C620 0.960 . S
H607 C620 0.960 . S
C608 H600 0.929 . S
C608 C609 1.377 . S
C608 C610 1.384 . S
C609 C608 1.377 . S
C609 C615 1.390 . S
C610 H601 0.930 . S
C610 C608 1.384 . S
C610 C611 1.372 . S
C611 C610 1.372 . S
C611 C612 1.400 . S
C611 C616 1.490 . S
C612 H602 0.930 . S
C612 C611 1.400 . S
C612 C615 1.386 . S
H613 C629 0.930 . S
H614 C630 0.931 . S
C615 H603 0.929 . S
C615 C609 1.390 . S
C615 C612 1.386 . S
C616 C611 1.490 . S
C616 C618 1.395 . S
C616 C619 1.403 . S
H617 C623 0.930 . S
C618 H604 0.930 . S
C618 C616 1.395 . S
C618 C621 1.403 . S
C619 C616 1.403 . S
C619 C620 1.524 . S
C619 C623 1.400 . S
C620 H605 0.960 . S
C620 H606 0.960 . S
C620 H607 0.960 . S
C620 C619 1.524 . S
C621 C618 1.403 . S
C621 C622 1.392 . S
C621 C625 1.495 . S
C622 C621 1.392 . S
C622 C623 1.385 . S
C622 C624 1.478 . S
C623 H617 0.930 . S
C623 C619 1.400 . S
C623 C622 1.385 . S
C624 C622 1.478 . S
C624 C626 1.381 . S
C624 C630 1.383 . S
C625 C621 1.495 . S
C625 H631 0.959 . S
C625 H632 0.961 . S
C625 H633 0.960 . S
C626 C624 1.381 . S
C626 C627 1.394 . S
C626 H634 0.930 . S
C627 C626 1.394 . S
C627 C628 1.383 . S
C627 H635 0.929 . S
C628 C627 1.383 . S
C628 C629 1.377 . S
C629 H613 0.930 . S
C629 C628 1.377 . S
C629 C630 1.379 . S
C630 H614 0.931 . S
C630 C624 1.383 . S
C630 C629 1.379 . S
H631 C625 0.959 . S
H632 C625 0.961 . S
H633 C625 0.960 . S
H634 C626 0.930 . S
H635 C627 0.929 . S
H636 C644 0.929 . S
H637 C646 0.930 . S
H638 C648 0.930 . S
H639 C651 0.929 . S
H640 C654 0.930 1_655 S
H641 C656 0.960 . S
H642 C656 0.960 . S
H643 C656 0.960 . S
C644 H636 0.929 . S
C644 C645 1.377 . S
C644 C646 1.384 . S
C645 C644 1.377 . S
C645 C651 1.390 . S
C646 H637 0.930 . S
C646 C644 1.384 . S
C646 C647 1.372 . S
C647 C646 1.372 . S
C647 C648 1.400 . S
C647 C652 1.490 . S
C648 H638 0.930 . S
C648 C647 1.400 . S
C648 C651 1.386 . S
H649 C665 0.930 . S
H650 C666 0.931 . S
C651 H639 0.929 . S
C651 C645 1.390 . S
C651 C648 1.386 . S
C652 C647 1.490 . S
C652 C654 1.395 . S
C652 C655 1.403 . S
H653 C659 0.930 . S
C654 H640 0.930 1_455 S
C654 C652 1.395 . S
C654 C657 1.403 1_455 S
C655 C652 1.403 . S
C655 C656 1.524 . S
C655 C659 1.400 . S
C656 H641 0.960 . S
C656 H642 0.960 . S
C656 H643 0.960 . S
C656 C655 1.524 . S
C657 C654 1.403 1_655 S
C657 C658 1.392 1_655 S
C657 C661 1.495 . S
C658 C657 1.392 1_455 S
C658 C659 1.385 . S
C658 C660 1.478 . S
C659 H653 0.930 . S
C659 C655 1.400 . S
C659 C658 1.385 . S
C660 C658 1.478 . S
C660 C662 1.381 . S
C660 C666 1.383 . S
C661 C657 1.495 . S
C661 H667 0.959 . S
C661 H668 0.961 . S
C661 H669 0.960 . S
C662 C660 1.381 . S
C662 C663 1.394 . S
C662 H670 0.927 1_455 S
C663 C662 1.394 . S
C663 C664 1.383 . S
C663 H671 0.929 . S
C664 C663 1.383 . S
C664 C665 1.377 . S
C665 H649 0.930 . S
C665 C664 1.377 . S
C665 C666 1.379 . S
C666 H650 0.931 . S
C666 C660 1.383 . S
C666 C665 1.379 . S
H667 C661 0.959 . S
H668 C661 0.961 . S
H669 C661 0.960 . S
H670 C662 0.927 1_655 S
H671 C663 0.929 . S
H672 C680 0.929 . S
H673 C682 0.930 . S
H674 C684 0.930 . S
H675 C687 0.929 . S
H676 C690 0.930 . S
H677 C692 0.960 . S
H678 C692 0.960 . S
H679 C692 0.960 . S
C680 H672 0.929 . S
C680 C681 1.377 . S
C680 C682 1.384 . S
C681 C680 1.377 . S
C681 C687 1.390 . S
C682 H673 0.930 . S
C682 C680 1.384 . S
C682 C683 1.372 . S
C683 C682 1.372 . S
C683 C684 1.400 . S
C683 C688 1.490 . S
C684 H674 0.930 . S
C684 C683 1.400 . S
C684 C687 1.386 . S
H685 C701 0.930 . S
H686 C702 0.931 . S
C687 H675 0.929 . S
C687 C681 1.390 . S
C687 C684 1.386 . S
C688 C683 1.490 . S
C688 C690 1.395 . S
C688 C691 1.403 . S
H689 C695 0.930 . S
C690 H676 0.930 . S
C690 C688 1.395 . S
C690 C693 1.403 . S
C691 C688 1.403 . S
C691 C692 1.524 . S
C691 C695 1.400 . S
C692 H677 0.960 . S
C692 H678 0.960 . S
C692 H679 0.960 . S
C692 C691 1.524 . S
C693 C690 1.403 . S
C693 C694 1.392 . S
C693 C697 1.495 . S
C694 C693 1.392 . S
C694 C695 1.385 . S
C694 C696 1.478 . S
C695 H689 0.930 . S
C695 C691 1.400 . S
C695 C694 1.385 . S
C696 C694 1.478 . S
C696 C698 1.381 . S
C696 C702 1.383 . S
C697 C693 1.495 . S
C697 H703 0.959 . S
C697 H704 0.961 . S
C697 H705 0.960 . S
C698 C696 1.381 . S
C698 C699 1.394 . S
C698 H706 0.930 . S
C699 C698 1.394 . S
C699 C700 1.383 . S
C699 H707 0.929 . S
C700 C699 1.383 . S
C700 C701 1.377 . S
C701 H685 0.930 . S
C701 C700 1.377 . S
C701 C702 1.379 . S
C702 H686 0.931 . S
C702 C696 1.383 . S
C702 C701 1.379 . S
H703 C697 0.959 . S
H704 C697 0.961 . S
H705 C697 0.960 . S
H706 C698 0.930 . S
H707 C699 0.929 . S
H708 C716 0.929 . S
H709 C718 0.930 . S
H710 C720 0.930 . S
H711 C723 0.929 . S
H712 C726 0.930 . S
H713 C728 0.960 . S
H714 C728 0.960 . S
H715 C728 0.960 . S
C716 H708 0.929 . S
C716 C717 1.377 . S
C716 C718 1.384 . S
C717 C716 1.377 . S
C717 C723 1.390 . S
C718 H709 0.930 . S
C718 C716 1.384 . S
C718 C719 1.372 . S
C719 C718 1.372 . S
C719 C720 1.400 . S
C719 C724 1.490 . S
C720 H710 0.930 . S
C720 C719 1.400 . S
C720 C723 1.386 . S
H721 C737 0.930 . S
H722 C738 0.931 . S
C723 H711 0.929 . S
C723 C717 1.390 . S
C723 C720 1.386 . S
C724 C719 1.490 . S
C724 C726 1.395 . S
C724 C727 1.403 . S
H725 C731 0.930 . S
C726 H712 0.930 . S
C726 C724 1.395 . S
C726 C729 1.403 . S
C727 C724 1.403 . S
C727 C728 1.524 . S
C727 C731 1.400 . S
C728 H713 0.960 . S
C728 H714 0.960 . S
C728 H715 0.960 . S
C728 C727 1.524 . S
C729 C726 1.403 . S
C729 C730 1.392 . S
C729 C733 1.495 . S
C730 C729 1.392 . S
C730 C731 1.385 . S
C730 C732 1.478 . S
C731 H725 0.930 . S
C731 C727 1.400 . S
C731 C730 1.385 . S
C732 C730 1.478 . S
C732 C734 1.381 . S
C732 C738 1.383 . S
C733 C729 1.495 . S
C733 H739 0.959 . S
C733 H740 0.961 . S
C733 H741 0.960 . S
C734 C732 1.381 . S
C734 C735 1.394 . S
C734 H742 0.930 . S
C735 C734 1.394 . S
C735 C736 1.383 . S
C735 H743 0.929 . S
C736 C735 1.383 . S
C736 C737 1.377 . S
C737 H721 0.930 . S
C737 C736 1.377 . S
C737 C738 1.379 . S
C738 H722 0.931 . S
C738 C732 1.383 . S
C738 C737 1.379 . S
H739 C733 0.959 . S
H740 C733 0.961 . S
H741 C733 0.960 . S
H742 C734 0.930 . S
H743 C735 0.929 . S
H744 C752 0.929 1_455 S
H745 C754 0.930 . S
H746 C756 0.930 . S
H747 C759 0.929 . S
H748 C762 0.930 . S
H749 C764 0.960 . S
H750 C764 0.960 . S
H751 C764 0.960 . S
C752 H744 0.929 1_655 S
C752 C753 1.377 . S
C752 C754 1.384 . S
C753 C752 1.377 . S
C753 C759 1.390 . S
C754 H745 0.930 . S
C754 C752 1.384 . S
C754 C755 1.372 . S
C755 C754 1.372 . S
C755 C756 1.400 . S
C755 C760 1.490 . S
C756 H746 0.930 . S
C756 C755 1.400 . S
C756 C759 1.386 . S
H757 C773 0.930 . S
H758 C774 0.931 . S
C759 H747 0.929 . S
C759 C753 1.390 . S
C759 C756 1.386 . S
C760 C755 1.490 . S
C760 C762 1.395 . S
C760 C763 1.403 . S
H761 C767 0.930 . S
C762 H748 0.930 . S
C762 C760 1.395 . S
C762 C765 1.403 . S
C763 C760 1.403 . S
C763 C764 1.524 . S
C763 C767 1.400 . S
C764 H749 0.960 . S
C764 H750 0.960 . S
C764 H751 0.960 . S
C764 C763 1.524 . S
C765 C762 1.403 . S
C765 C766 1.392 . S
C765 C769 1.495 . S
C766 C765 1.392 . S
C766 C767 1.385 . S
C766 C768 1.478 . S
C767 H761 0.930 . S
C767 C763 1.400 . S
C767 C766 1.385 . S
C768 C766 1.478 . S
C768 C770 1.381 . S
C768 C774 1.383 . S
C769 C765 1.495 . S
C769 H775 0.959 . S
C769 H776 0.961 . S
C769 H777 0.960 . S
C770 C768 1.381 . S
C770 C771 1.394 . S
C770 H778 0.930 . S
C771 C770 1.394 . S
C771 C772 1.383 . S
C771 H779 0.929 . S
C772 C771 1.383 . S
C772 C773 1.377 . S
C773 H757 0.930 . S
C773 C772 1.377 . S
C773 C774 1.379 . S
C774 H758 0.931 . S
C774 C768 1.383 . S
C774 C773 1.379 . S
H775 C769 0.959 . S
H776 C769 0.961 . S
H777 C769 0.960 . S
H778 C770 0.930 . S
H779 C771 0.929 . S
H780 C788 0.929 . S
H781 C790 0.930 . S
H782 C792 0.930 . S
H783 C795 0.929 . S
H784 C798 0.930 . S
H785 C800 0.960 . S
H786 C800 0.960 1_545 S
H787 C800 0.960 . S
C788 H780 0.929 . S
C788 C789 1.377 . S
C788 C790 1.384 . S
C789 C788 1.377 . S
C789 C795 1.390 . S
C790 H781 0.930 . S
C790 C788 1.384 . S
C790 C791 1.372 . S
C791 C790 1.372 . S
C791 C792 1.400 . S
C791 C796 1.490 . S
C792 H782 0.930 . S
C792 C791 1.400 . S
C792 C795 1.386 . S
H793 C809 0.930 . S
H794 C810 0.931 . S
C795 H783 0.929 . S
C795 C789 1.390 . S
C795 C792 1.386 . S
C796 C791 1.490 . S
C796 C798 1.395 . S
C796 C799 1.403 . S
H797 C803 0.930 . S
C798 H784 0.930 . S
C798 C796 1.395 . S
C798 C801 1.403 . S
C799 C796 1.403 . S
C799 C800 1.524 . S
C799 C803 1.400 . S
C800 H785 0.960 . S
C800 H786 0.960 1_565 S
C800 H787 0.960 . S
C800 C799 1.524 . S
C801 C798 1.403 . S
C801 C802 1.392 . S
C801 C805 1.495 . S
C802 C801 1.392 . S
C802 C803 1.385 . S
C802 C804 1.478 . S
C803 H797 0.930 . S
C803 C799 1.400 . S
C803 C802 1.385 . S
C804 C802 1.478 . S
C804 C806 1.381 . S
C804 C810 1.383 . S
C805 C801 1.495 . S
C805 H811 0.959 . S
C805 H812 0.961 . S
C805 H813 0.960 . S
C806 C804 1.381 . S
C806 C807 1.394 . S
C806 H814 0.930 . S
C807 C806 1.394 . S
C807 C808 1.383 . S
C807 H815 0.929 . S
C808 C807 1.383 . S
C808 C809 1.377 . S
C809 H793 0.930 . S
C809 C808 1.377 . S
C809 C810 1.379 . S
C810 H794 0.931 . S
C810 C804 1.383 . S
C810 C809 1.379 . S
H811 C805 0.959 . S
H812 C805 0.961 . S
H813 C805 0.960 . S
H814 C806 0.930 . S
H815 C807 0.929 . S
H816 C824 0.929 . S
H817 C826 0.930 . S
H818 C828 0.930 . S
H819 C831 0.929 . S
H820 C834 0.930 . S
H821 C836 0.960 . S
H822 C836 0.960 . S
H823 C836 0.960 . S
C824 H816 0.929 . S
C824 C825 1.377 . S
C824 C826 1.384 . S
C825 C824 1.377 . S
C825 C831 1.390 . S
C826 H817 0.930 . S
C826 C824 1.384 . S
C826 C827 1.372 . S
C827 C826 1.372 . S
C827 C828 1.400 . S
C827 C832 1.490 . S
C828 H818 0.930 . S
C828 C827 1.400 . S
C828 C831 1.386 . S
H829 C845 0.930 1_455 S
H830 C846 0.931 . S
C831 H819 0.929 . S
C831 C825 1.390 . S
C831 C828 1.386 . S
C832 C827 1.490 . S
C832 C834 1.395 . S
C832 C835 1.403 . S
H833 C839 0.930 . S
C834 H820 0.930 . S
C834 C832 1.395 . S
C834 C837 1.403 . S
C835 C832 1.403 . S
C835 C836 1.524 . S
C835 C839 1.400 . S
C836 H821 0.960 . S
C836 H822 0.960 . S
C836 H823 0.960 . S
C836 C835 1.524 . S
C837 C834 1.403 . S
C837 C838 1.392 . S
C837 C841 1.495 . S
C838 C837 1.392 . S
C838 C839 1.385 . S
C838 C840 1.478 . S
C839 H833 0.930 . S
C839 C835 1.400 . S
C839 C838 1.385 . S
C840 C838 1.478 . S
C840 C842 1.381 . S
C840 C846 1.383 . S
C841 C837 1.495 . S
C841 H847 0.959 . S
C841 H848 0.961 . S
C841 H849 0.960 . S
C842 C840 1.381 . S
C842 C843 1.394 . S
C842 H850 0.930 . S
C843 C842 1.394 . S
C843 C844 1.383 . S
C843 H851 0.929 . S
C844 C843 1.383 . S
C844 C845 1.377 . S
C845 H829 0.930 1_655 S
C845 C844 1.377 . S
C845 C846 1.379 . S
C846 H830 0.931 . S
C846 C840 1.383 . S
C846 C845 1.379 . S
H847 C841 0.959 . S
H848 C841 0.961 . S
H849 C841 0.960 . S
H850 C842 0.930 . S
H851 C843 0.929 . S
H852 C860 0.929 . S
H853 C862 0.930 . S
H854 C864 0.930 . S
H855 C867 0.929 . S
H856 C870 0.930 . S
H857 C872 0.960 . S
H858 C872 0.960 . S
H859 C872 0.960 . S
C860 H852 0.929 . S
C860 C861 1.377 . S
C860 C862 1.384 . S
C861 C860 1.377 . S
C861 C867 1.390 . S
C862 H853 0.930 . S
C862 C860 1.384 . S
C862 C863 1.372 . S
C863 C862 1.372 . S
C863 C864 1.400 . S
C863 C868 1.490 . S
C864 H854 0.930 . S
C864 C863 1.400 . S
C864 C867 1.386 . S
H865 C881 0.930 . S
H866 C882 0.931 . S
C867 H855 0.929 . S
C867 C861 1.390 . S
C867 C864 1.386 . S
C868 C863 1.490 . S
C868 C870 1.395 . S
C868 C871 1.403 . S
H869 C875 0.930 . S
C870 H856 0.930 . S
C870 C868 1.395 . S
C870 C873 1.403 . S
C871 C868 1.403 . S
C871 C872 1.524 . S
C871 C875 1.400 . S
C872 H857 0.960 . S
C872 H858 0.960 . S
C872 H859 0.960 . S
C872 C871 1.524 . S
C873 C870 1.403 . S
C873 C874 1.392 . S
C873 C877 1.495 1_565 S
C874 C873 1.392 . S
C874 C875 1.385 . S
C874 C876 1.478 . S
C875 H869 0.930 . S
C875 C871 1.400 . S
C875 C874 1.385 . S
C876 C874 1.478 . S
C876 C878 1.381 . S
C876 C882 1.383 . S
C877 C873 1.495 1_545 S
C877 H883 0.959 . S
C877 H884 0.961 . S
C877 H885 0.960 . S
C878 C876 1.381 . S
C878 C879 1.394 . S
C878 H886 0.930 . S
C879 C878 1.394 . S
C879 C880 1.383 . S
C879 H887 0.929 . S
C880 C879 1.383 . S
C880 C881 1.377 . S
C881 H865 0.930 . S
C881 C880 1.377 . S
C881 C882 1.379 . S
C882 H866 0.931 . S
C882 C876 1.383 . S
C882 C881 1.379 . S
H883 C877 0.959 . S
H884 C877 0.961 . S
H885 C877 0.960 . S
H886 C878 0.930 . S
H887 C879 0.929 . S
C249 C122 0.917 . S
C268 C2 0.934 . S
C285 C162 0.904 . S
C304 C42 0.930 . S
C321 C202 0.904 . S
C340 C82 0.964 . S
C357 C26 0.492 . S
C376 C97 0.579 . S
C393 C57 0.594 . S
C412 C146 0.434 . S
C429 C106 0.462 . S
C448 C177 0.670 . S
C465 C137 0.568 . S
C484 C226 0.555 . S
C501 C186 0.485 . S
C520 C17 0.513 . S
C537 C217 0.573 . S
C556 C66 0.539 . S
C573 C23 0.505 . S
C592 C143 0.555 . S
C609 C63 0.496 . S
C628 C183 0.541 . S
C645 C103 0.500 . S
C664 C223 0.554 . S
C681 C24 4.000 . S
C700 C64 3.996 . S
C717 C53 3.598 . S
C736 C93 3.603 . S
C753 C104 4.000 1_655 S
C772 C144 3.997 . S
C789 C133 3.598 . S
C808 C173 3.601 . S
C825 C184 4.001 . S
C844 C224 3.997 1_655 S
C861 C213 3.602 . S
C880 C13 3.585 . S
