# Generated by pormake.
# Topology ung, (4)-cn, num edge types: 1
# Building blocks:
#     Node 0, Type 0, BuildingBlock: ICAMEG_clean_sbu_1, # of connection points: 4
#     Node 1, Type 0, BuildingBlock: ICAMEG_clean_sbu_1, # of connection points: 4
#     Node 2, Type 0, BuildingBlock: ICAMEG_clean_sbu_1, # of connection points: 4
#     Node 3, Type 0, BuildingBlock: ICAMEG_clean_sbu_1, # of connection points: 4
#     Node 4, Type 0, BuildingBlock: ICAMEG_clean_sbu_1, # of connection points: 4
#     Node 5, Type 0, BuildingBlock: ICAMEG_clean_sbu_1, # of connection points: 4
#     Node 6, Type 0, BuildingBlock: ICAMEG_clean_sbu_1, # of connection points: 4
#     Node 7, Type 0, BuildingBlock: ICAMEG_clean_sbu_1, # of connection points: 4
#     Node 8, Type 0, BuildingBlock: ICAMEG_clean_sbu_1, # of connection points: 4
#     Node 9, Type 0, BuildingBlock: ICAMEG_clean_sbu_1, # of connection points: 4
#     Node 10, Type 0, BuildingBlock: ICAMEG_clean_sbu_1, # of connection points: 4
#     Node 11, Type 0, BuildingBlock: ICAMEG_clean_sbu_1, # of connection points: 4
#     Node 12, Type 0, BuildingBlock: ICAMEG_clean_sbu_1, # of connection points: 4
#     Node 13, Type 0, BuildingBlock: ICAMEG_clean_sbu_1, # of connection points: 4
#     Node 14, Type 0, BuildingBlock: ICAMEG_clean_sbu_1, # of connection points: 4
#     Node 15, Type 0, BuildingBlock: ICAMEG_clean_sbu_1, # of connection points: 4
#     Node 16, Type 0, BuildingBlock: ICAMEG_clean_sbu_1, # of connection points: 4
#     Node 17, Type 0, BuildingBlock: ICAMEG_clean_sbu_1, # of connection points: 4
#     Edge 18, Type (0, 0), BuildingBlock: KIFKEQ_clean_linker_1, # of connection points: 2
#     Edge 19, Type (0, 0), BuildingBlock: KIFKEQ_clean_linker_1, # of connection points: 2
#     Edge 20, Type (0, 0), BuildingBlock: KIFKEQ_clean_linker_1, # of connection points: 2
#     Edge 21, Type (0, 0), BuildingBlock: KIFKEQ_clean_linker_1, # of connection points: 2
#     Edge 22, Type (0, 0), BuildingBlock: KIFKEQ_clean_linker_1, # of connection points: 2
#     Edge 23, Type (0, 0), BuildingBlock: KIFKEQ_clean_linker_1, # of connection points: 2
#     Edge 24, Type (0, 0), BuildingBlock: KIFKEQ_clean_linker_1, # of connection points: 2
#     Edge 25, Type (0, 0), BuildingBlock: KIFKEQ_clean_linker_1, # of connection points: 2
#     Edge 26, Type (0, 0), BuildingBlock: KIFKEQ_clean_linker_1, # of connection points: 2
#     Edge 27, Type (0, 0), BuildingBlock: KIFKEQ_clean_linker_1, # of connection points: 2
#     Edge 28, Type (0, 0), BuildingBlock: KIFKEQ_clean_linker_1, # of connection points: 2
#     Edge 29, Type (0, 0), BuildingBlock: KIFKEQ_clean_linker_1, # of connection points: 2
#     Edge 30, Type (0, 0), BuildingBlock: KIFKEQ_clean_linker_1, # of connection points: 2
#     Edge 31, Type (0, 0), BuildingBlock: KIFKEQ_clean_linker_1, # of connection points: 2
#     Edge 32, Type (0, 0), BuildingBlock: KIFKEQ_clean_linker_1, # of connection points: 2
#     Edge 33, Type (0, 0), BuildingBlock: KIFKEQ_clean_linker_1, # of connection points: 2
#     Edge 34, Type (0, 0), BuildingBlock: KIFKEQ_clean_linker_1, # of connection points: 2
#     Edge 35, Type (0, 0), BuildingBlock: KIFKEQ_clean_linker_1, # of connection points: 2
#     Edge 36, Type (0, 0), BuildingBlock: KIFKEQ_clean_linker_1, # of connection points: 2
#     Edge 37, Type (0, 0), BuildingBlock: KIFKEQ_clean_linker_1, # of connection points: 2
#     Edge 38, Type (0, 0), BuildingBlock: KIFKEQ_clean_linker_1, # of connection points: 2
#     Edge 39, Type (0, 0), BuildingBlock: KIFKEQ_clean_linker_1, # of connection points: 2
#     Edge 40, Type (0, 0), BuildingBlock: KIFKEQ_clean_linker_1, # of connection points: 2
#     Edge 41, Type (0, 0), BuildingBlock: KIFKEQ_clean_linker_1, # of connection points: 2
#     Edge 42, Type (0, 0), BuildingBlock: KIFKEQ_clean_linker_1, # of connection points: 2
#     Edge 43, Type (0, 0), BuildingBlock: KIFKEQ_clean_linker_1, # of connection points: 2
#     Edge 44, Type (0, 0), BuildingBlock: KIFKEQ_clean_linker_1, # of connection points: 2
#     Edge 45, Type (0, 0), BuildingBlock: KIFKEQ_clean_linker_1, # of connection points: 2
#     Edge 46, Type (0, 0), BuildingBlock: KIFKEQ_clean_linker_1, # of connection points: 2
#     Edge 47, Type (0, 0), BuildingBlock: KIFKEQ_clean_linker_1, # of connection points: 2
#     Edge 48, Type (0, 0), BuildingBlock: KIFKEQ_clean_linker_1, # of connection points: 2
#     Edge 49, Type (0, 0), BuildingBlock: KIFKEQ_clean_linker_1, # of connection points: 2
#     Edge 50, Type (0, 0), BuildingBlock: KIFKEQ_clean_linker_1, # of connection points: 2
#     Edge 51, Type (0, 0), BuildingBlock: KIFKEQ_clean_linker_1, # of connection points: 2
#     Edge 52, Type (0, 0), BuildingBlock: KIFKEQ_clean_linker_1, # of connection points: 2
#     Edge 53, Type (0, 0), BuildingBlock: KIFKEQ_clean_linker_1, # of connection points: 2
# Relax obj value: 0.020
# Max RMSD: 0.108
# Mean RMSD: 0.108
data_MOF--net-ung--node1-ICAMEG_clean_sbu_1--edge1-KIFKEQ_clean_linker_1
_symmetry_space_group_name_H-M    P1
_symmetry_Int_Tables_number       1
_symmetry_cell_setting            triclinic
loop_
_symmetry_equiv_pos_as_xyz
'x, y, z'
_cell_length_a     77.802774
_cell_length_b     77.910422
_cell_length_c     24.911266
_cell_angle_alpha  90.027253
_cell_angle_beta   90.047736
_cell_angle_gamma 120.00662
loop_
_atom_site_label
_atom_site_type_symbol
_atom_site_fract_x
_atom_site_fract_y
_atom_site_fract_z
_atom_type_partial_charge
Co0 Co 0.08518 0.64808 0.20876 0.0
Co1 Co 0.04622 0.62873 0.2982 0.0
O2 O 0.06565 0.6266 0.25341 0.0
C3 C 0.06472 0.6139 0.13551 0.0
O4 O 0.048 0.61134 0.15559 0.0
C5 C 0.06652 0.61472 0.37106 0.0
O6 O 0.08326 0.62883 0.35104 0.0
O7 O 0.06739 0.65356 0.33146 0.0
O8 O 0.0896 0.66829 0.26519 0.0
H9 H 0.01394 0.66391 0.38362 0.0
H10 H 0.0897 0.61311 0.23031 0.0
O11 O 0.08122 0.62829 0.15152 0.0
H12 H 0.15053 0.67039 0.30154 0.0
H13 H 0.14242 0.67903 0.07929 0.0
H14 H 0.0936 0.6886 0.18156 0.0
H15 H 0.12473 0.67508 0.25781 0.0
H16 H 0.118 0.65251 0.13785 0.0
O17 O 0.05005 0.61275 0.35523 0.0
H18 H 0.03808 0.661 0.32575 0.0
H19 H 0.01332 0.60047 0.36904 0.0
H20 H 0.11784 0.71557 0.12381 0.0
H21 H 0.11521 0.60777 0.27333 0.0
H22 H 0.14248 0.71086 0.07217 0.0
H23 H 0.14586 0.63653 0.30948 0.0
O24 O 0.06413 0.65198 0.17565 0.0
H25 H 0.0157 0.55841 0.23308 0.0
H26 H 0.00673 0.61654 0.24926 0.0
H27 H 0.98076 0.58619 0.2054 0.0
H28 H 0.98516 0.55684 0.19712 0.0
H29 H 0.04137 0.58911 0.27625 0.0
H30 H 0.98901 0.60275 0.42771 0.0
H31 H 0.98918 0.63464 0.43511 0.0
O32 O 0.04195 0.64466 0.24194 0.0
C33 C 0.08276 0.6684 0.31173 0.0
C34 C 0.01367 0.64992 0.38059 0.0
C35 C 0.99969 0.6156 0.40539 0.0
N36 N 0.02698 0.63055 0.34366 0.0
C37 C 0.02726 0.64817 0.34776 0.0
C38 C 0.01352 0.61441 0.37218 0.0
C39 C 0.99979 0.63349 0.40951 0.0
C40 C 0.1031 0.62572 0.24539 0.0
N41 N 0.10576 0.64439 0.24131 0.0
C42 C 0.11745 0.6226 0.26994 0.0
C43 C 0.13463 0.63874 0.2903 0.0
C44 C 0.13725 0.65774 0.28591 0.0
C45 C 0.12257 0.6603 0.26121 0.0
C46 C 0.13179 0.68128 0.10169 0.0
C47 C 0.10436 0.6865 0.15948 0.0
C48 C 0.11791 0.66631 0.13483 0.0
N49 N 0.10452 0.66909 0.16343 0.0
C50 C 0.11801 0.7018 0.12673 0.0
C51 C 0.13182 0.69914 0.09772 0.0
C52 C 0.04882 0.65159 0.19542 0.0
C53 C 0.01358 0.57108 0.23662 0.0
C54 C 0.00878 0.60385 0.24572 0.0
C55 C 0.994 0.58669 0.22095 0.0
C56 C 0.99647 0.57022 0.21636 0.0
N57 N 0.02552 0.60457 0.26552 0.0
C58 C 0.02803 0.58847 0.26125 0.0
Co59 Co 0.50145 0.48178 0.2971 0.0
Co60 Co 0.48134 0.50089 0.20869 0.0
O61 O 0.50307 0.50319 0.25295 0.0
C62 C 0.51483 0.5153 0.37288 0.0
O63 O 0.49954 0.51684 0.35719 0.0
C64 C 0.51543 0.51508 0.13511 0.0
O65 O 0.51808 0.50093 0.15467 0.0
O66 O 0.47772 0.47613 0.17504 0.0
O67 O 0.48541 0.4615 0.24113 0.0
H68 H 0.41357 0.46534 0.12446 0.0
H69 H 0.54081 0.51689 0.27445 0.0
O70 O 0.51763 0.50175 0.3536 0.0
H71 H 0.54424 0.45977 0.20204 0.0
H72 H 0.52878 0.45127 0.42476 0.0
H73 H 0.46963 0.44119 0.32508 0.0
H74 H 0.5139 0.45493 0.24696 0.0
H75 H 0.53037 0.47767 0.36667 0.0
O76 O 0.50098 0.51703 0.15145 0.0
H77 H 0.44088 0.46842 0.18169 0.0
H78 H 0.47628 0.52902 0.13844 0.0
H79 H 0.46741 0.41434 0.3824 0.0
H80 H 0.57151 0.52237 0.23028 0.0
H81 H 0.49714 0.4193 0.43272 0.0
H82 H 0.57333 0.49369 0.19353 0.0
O83 O 0.47654 0.47768 0.33111 0.0
H84 H 0.521 0.57103 0.2752 0.0
H85 H 0.45392 0.51277 0.25814 0.0
H86 H 0.45821 0.54294 0.30272 0.0
H87 H 0.49195 0.57236 0.31142 0.0
H88 H 0.51605 0.54051 0.23126 0.0
H89 H 0.44942 0.52655 0.08041 0.0
H90 H 0.41776 0.49455 0.07332 0.0
O91 O 0.46135 0.48482 0.26522 0.0
C92 C 0.47831 0.46132 0.19473 0.0
C93 C 0.42727 0.47938 0.12736 0.0
C94 C 0.4474 0.51373 0.10258 0.0
N95 N 0.46007 0.49892 0.16375 0.0
C96 C 0.44276 0.48123 0.15982 0.0
C97 C 0.46257 0.51503 0.13542 0.0
C98 C 0.42964 0.49577 0.09864 0.0
C99 C 0.54157 0.50431 0.25911 0.0
N100 N 0.52561 0.48561 0.26351 0.0
C101 C 0.55896 0.50751 0.23391 0.0
C102 C 0.55995 0.49142 0.21321 0.0
C103 C 0.54363 0.47238 0.21793 0.0
C104 C 0.52647 0.46974 0.24329 0.0
C105 C 0.51574 0.44891 0.40294 0.0
C106 C 0.48266 0.4434 0.34659 0.0
C107 C 0.51654 0.46382 0.37006 0.0
N108 N 0.50016 0.46089 0.34216 0.0
C109 C 0.4813 0.42817 0.37911 0.0
C110 C 0.49798 0.43098 0.40737 0.0
C111 C 0.46148 0.47794 0.31169 0.0
C112 C 0.50622 0.55833 0.2715 0.0
C113 C 0.46865 0.5255 0.26183 0.0
C114 C 0.47098 0.54255 0.28704 0.0
C115 C 0.48991 0.55906 0.29188 0.0
N116 N 0.48471 0.52492 0.24184 0.0
C117 C 0.50332 0.54104 0.24645 0.0
Co118 Co 0.62788 0.04501 0.21283 0.0
Co119 Co 0.64826 0.08523 0.29862 0.0
O120 O 0.62642 0.06508 0.25615 0.0
C121 C 0.61463 0.06546 0.13815 0.0
O122 O 0.62894 0.08216 0.15782 0.0
C123 C 0.61543 0.0651 0.37639 0.0
O124 O 0.61384 0.04829 0.36045 0.0
O125 O 0.65334 0.06495 0.33203 0.0
O126 O 0.64326 0.04059 0.27048 0.0
H127 H 0.717 0.12035 0.37706 0.0
H128 H 0.58913 0.04219 0.23531 0.0
O129 O 0.61232 0.04897 0.15474 0.0
H130 H 0.58322 0.98038 0.30618 0.0
H131 H 0.6006 0.98701 0.0856 0.0
H132 H 0.65928 0.03524 0.1883 0.0
H133 H 0.61395 0.0052 0.2614 0.0
H134 H 0.59909 0.01217 0.14244 0.0
O135 O 0.62888 0.08145 0.35681 0.0
H136 H 0.6896 0.09512 0.32211 0.0
H137 H 0.65265 0.11825 0.36853 0.0
H138 H 0.66141 0.01024 0.13231 0.0
H139 H 0.55805 0.0177 0.27936 0.0
H140 H 0.63191 0.9859 0.08045 0.0
H141 H 0.55498 0.98656 0.31534 0.0
O142 O 0.65315 0.06537 0.17893 0.0
H143 H 0.60593 0.11325 0.23548 0.0
H144 H 0.67405 0.12436 0.24647 0.0
H145 H 0.66818 0.14927 0.20214 0.0
H146 H 0.63391 0.14379 0.19647 0.0
H147 H 0.61244 0.08865 0.27905 0.0
H148 H 0.67961 0.14365 0.4243 0.0
H149 H 0.71209 0.14485 0.42866 0.0
O150 O 0.66783 0.08941 0.24097 0.0
C151 C 0.65166 0.04873 0.31484 0.0
C152 C 0.70294 0.12002 0.37537 0.0
C153 C 0.68194 0.13308 0.40195 0.0
N154 N 0.6696 0.1053 0.34185 0.0
C155 C 0.68739 0.1058 0.34423 0.0
C156 C 0.66672 0.11863 0.3704 0.0
C157 C 0.70016 0.13375 0.40435 0.0
C158 C 0.58785 0.02861 0.25052 0.0
N159 N 0.60335 0.02514 0.24585 0.0
C160 C 0.57024 0.01483 0.27557 0.0
C161 C 0.56854 0.99737 0.29581 0.0
C162 C 0.58438 0.9939 0.29074 0.0
C163 C 0.60178 0.00804 0.26554 0.0
C164 C 0.61354 0.99751 0.10809 0.0
C165 C 0.64635 0.02461 0.16613 0.0
C166 C 0.61279 0.01182 0.14024 0.0
N167 N 0.62904 0.02505 0.16896 0.0
C168 C 0.64766 0.01053 0.13437 0.0
C169 C 0.63111 0.99689 0.10524 0.0
C170 C 0.66788 0.08146 0.1962 0.0
C171 C 0.62094 0.11584 0.23787 0.0
C172 C 0.6591 0.12185 0.2441 0.0
C173 C 0.65587 0.13603 0.21904 0.0
C174 C 0.63664 0.13295 0.21591 0.0
N175 N 0.64362 0.10511 0.26558 0.0
C176 C 0.62473 0.10201 0.26273 0.0
Co177 Co 0.04487 0.48213 0.7945 0.0
Co178 Co 0.08561 0.50205 0.71079 0.0
O179 O 0.06532 0.50372 0.75237 0.0
C180 C 0.06492 0.51493 0.87254 0.0
O181 O 0.08175 0.51639 0.85728 0.0
C182 C 0.06592 0.51491 0.63207 0.0
O183 O 0.04903 0.49969 0.64749 0.0
O184 O 0.06541 0.4768 0.67644 0.0
O185 O 0.04067 0.46244 0.73683 0.0
H186 H 0.12097 0.46848 0.63413 0.0
H187 H 0.04247 0.51823 0.77155 0.0
O188 O 0.04859 0.50163 0.85231 0.0
H189 H 0.98083 0.46273 0.69771 0.0
H190 H 0.98597 0.45144 0.91864 0.0
H191 H 0.03462 0.44085 0.81883 0.0
H192 H 0.00527 0.45656 0.74395 0.0
H193 H 0.01167 0.47815 0.86308 0.0
O194 O 0.0822 0.51782 0.65239 0.0
H195 H 0.09549 0.4706 0.68793 0.0
H196 H 0.11908 0.53077 0.64229 0.0
H197 H 0.00909 0.41368 0.87356 0.0
H198 H 0.01836 0.52508 0.72609 0.0
H199 H 0.98453 0.4189 0.92394 0.0
H200 H 0.98732 0.49722 0.68859 0.0
O201 O 0.06494 0.47696 0.82952 0.0
H202 H 0.11344 0.57206 0.77608 0.0
H203 H 0.12454 0.51515 0.76434 0.0
H204 H 0.1493 0.54573 0.80999 0.0
H205 H 0.14383 0.57446 0.81603 0.0
H206 H 0.08899 0.54116 0.73113 0.0
H207 H 0.14474 0.52927 0.58767 0.0
H208 H 0.14583 0.49797 0.58351 0.0
O209 O 0.08938 0.48649 0.76867 0.0
C210 C 0.04904 0.46226 0.69287 0.0
C211 C 0.12068 0.48222 0.63573 0.0
C212 C 0.134 0.51633 0.6096 0.0
N213 N 0.10588 0.50081 0.66849 0.0
C214 C 0.10632 0.48352 0.66623 0.0
C215 C 0.11941 0.51707 0.64048 0.0
C216 C 0.13461 0.49876 0.6073 0.0
C217 C 0.02893 0.50601 0.75568 0.0
N218 N 0.02529 0.48701 0.7603 0.0
C219 C 0.01536 0.50999 0.72983 0.0
C220 C 0.99796 0.49435 0.70875 0.0
C221 C 0.99432 0.475 0.71379 0.0
C222 C 0.00825 0.47159 0.73981 0.0
C223 C 0.99657 0.44897 0.89678 0.0
C224 C 0.0239 0.44318 0.84037 0.0
C225 C 0.01117 0.46405 0.86537 0.0
N226 N 0.02452 0.46099 0.83742 0.0
C227 C 0.00952 0.42777 0.87141 0.0
C228 C 0.99576 0.43072 0.89972 0.0
C229 C 0.08115 0.47837 0.81305 0.0
C230 C 0.11602 0.55966 0.77355 0.0
C231 C 0.12204 0.52758 0.76685 0.0
C232 C 0.13613 0.54487 0.79267 0.0
C233 C 0.13306 0.56099 0.79603 0.0
N234 N 0.10539 0.52641 0.7448 0.0
C235 C 0.10227 0.54216 0.74795 0.0
Co236 Co 0.62859 0.64814 0.70956 0.0
Co237 Co 0.64803 0.62829 0.79775 0.0
O238 O 0.62646 0.62653 0.75383 0.0
C239 C 0.61437 0.61405 0.63603 0.0
O240 O 0.62858 0.61145 0.65554 0.0
C241 C 0.61457 0.61492 0.87379 0.0
O242 O 0.61296 0.63015 0.85817 0.0
O243 O 0.65216 0.6532 0.83172 0.0
O244 O 0.64475 0.66819 0.7659 0.0
H245 H 0.71577 0.66254 0.88229 0.0
H246 H 0.58902 0.61343 0.73247 0.0
O247 O 0.61236 0.62844 0.65247 0.0
H248 H 0.58652 0.67117 0.80402 0.0
H249 H 0.60247 0.67969 0.58154 0.0
H250 H 0.66096 0.68853 0.68224 0.0
H251 H 0.61668 0.67549 0.75916 0.0
H252 H 0.60021 0.65299 0.63962 0.0
O253 O 0.62817 0.61217 0.85446 0.0
H254 H 0.68873 0.66016 0.82525 0.0
H255 H 0.65238 0.59957 0.86733 0.0
H256 H 0.66385 0.71568 0.62497 0.0
H257 H 0.5585 0.60845 0.7767 0.0
H258 H 0.63446 0.71134 0.57413 0.0
H259 H 0.55715 0.63745 0.81296 0.0
O260 O 0.65332 0.65177 0.67568 0.0
H261 H 0.60737 0.55821 0.73137 0.0
H262 H 0.67488 0.61586 0.74737 0.0
H263 H 0.67001 0.58552 0.70253 0.0
H264 H 0.63606 0.55641 0.69435 0.0
H265 H 0.61288 0.5889 0.77546 0.0
H266 H 0.67897 0.60132 0.92515 0.0
H267 H 0.71097 0.63296 0.93273 0.0
O268 O 0.66821 0.64426 0.7415 0.0
C269 C 0.65179 0.66817 0.81226 0.0
C270 C 0.70192 0.64865 0.87917 0.0
C271 C 0.68126 0.6143 0.90328 0.0
N272 N 0.66908 0.62971 0.8426 0.0
C273 C 0.68658 0.6472 0.84681 0.0
C274 C 0.66624 0.61341 0.87056 0.0
C275 C 0.69921 0.63205 0.9075 0.0
C276 C 0.58847 0.62614 0.74769 0.0
N277 N 0.60457 0.64473 0.74295 0.0
C278 C 0.57118 0.62322 0.77289 0.0
C279 C 0.57044 0.63949 0.7933 0.0
C280 C 0.58692 0.65842 0.78832 0.0
C281 C 0.60397 0.66077 0.76296 0.0
C282 C 0.61537 0.68178 0.60359 0.0
C283 C 0.64808 0.68659 0.6605 0.0
C284 C 0.61419 0.6667 0.63645 0.0
N285 N 0.63039 0.66928 0.66462 0.0
C286 C 0.64982 0.70199 0.62802 0.0
C287 C 0.63332 0.69953 0.59946 0.0
C288 C 0.66823 0.65125 0.6951 0.0
C289 C 0.62224 0.57077 0.73485 0.0
C290 C 0.66005 0.60328 0.74385 0.0
C291 C 0.65739 0.58612 0.71853 0.0
C292 C 0.63834 0.56978 0.714 0.0
N293 N 0.64419 0.60413 0.76422 0.0
C294 C 0.62547 0.58816 0.76 0.0
Co295 Co 0.50332 0.08569 0.796 0.0
Co296 Co 0.48262 0.04435 0.71367 0.0
O297 O 0.50448 0.06495 0.75516 0.0
C298 C 0.51521 0.06542 0.87582 0.0
O299 O 0.50003 0.04862 0.85961 0.0
C300 C 0.51555 0.0649 0.63675 0.0
O301 O 0.51796 0.08157 0.65658 0.0
O302 O 0.4766 0.06403 0.68014 0.0
O303 O 0.48864 0.09006 0.73667 0.0
H304 H 0.41322 0.0075 0.63992 0.0
H305 H 0.54186 0.08744 0.7778 0.0
O306 O 0.51833 0.08176 0.85566 0.0
H307 H 0.54964 0.14906 0.69961 0.0
H308 H 0.53118 0.14473 0.91966 0.0
H309 H 0.47263 0.09689 0.81584 0.0
H310 H 0.51837 0.1251 0.74386 0.0
H311 H 0.53221 0.11866 0.86589 0.0
O312 O 0.50158 0.04838 0.65393 0.0
H313 H 0.44076 0.03327 0.69338 0.0
H314 H 0.4785 0.01148 0.64349 0.0
H315 H 0.471 0.1228 0.86876 0.0
H316 H 0.57346 0.11107 0.73441 0.0
H317 H 0.50043 0.14695 0.92117 0.0
H318 H 0.57747 0.1421 0.69471 0.0
O319 O 0.47753 0.06606 0.82937 0.0
H320 H 0.52711 0.01886 0.77669 0.0
H321 H 0.458 0.00481 0.76486 0.0
H322 H 0.4651 0.98075 0.8093 0.0
H323 H 0.49988 0.98771 0.81538 0.0
H324 H 0.51934 0.04258 0.73302 0.0
H325 H 0.45142 0.98556 0.58915 0.0
H326 H 0.41848 0.98342 0.58729 0.0
O327 O 0.46352 0.03998 0.77288 0.0
C328 C 0.47924 0.08094 0.69434 0.0
C329 C 0.42749 0.00824 0.64052 0.0
C330 C 0.44894 0.99595 0.61196 0.0
N331 N 0.46117 0.0238 0.67179 0.0
C332 C 0.44312 0.02277 0.67083 0.0
C333 C 0.46423 0.01069 0.64268 0.0
C334 C 0.43046 0.99475 0.61096 0.0
C335 C 0.54355 0.10099 0.76106 0.0
N336 N 0.52827 0.10488 0.76335 0.0
C337 C 0.56146 0.11428 0.73637 0.0
C338 C 0.56368 0.13168 0.71403 0.0
C339 C 0.54807 0.13558 0.7167 0.0
C340 C 0.53037 0.12193 0.74162 0.0
C341 C 0.51827 0.13431 0.89694 0.0
C342 C 0.48553 0.10741 0.83831 0.0
C343 C 0.51875 0.11948 0.86653 0.0
N344 N 0.50253 0.10634 0.83753 0.0
C345 C 0.48451 0.12202 0.8683 0.0
C346 C 0.50102 0.13555 0.89774 0.0
C347 C 0.46324 0.04914 0.8151 0.0
C348 C 0.51189 0.01565 0.77423 0.0
C349 C 0.47316 0.00798 0.7676 0.0
C350 C 0.4771 0.99427 0.79264 0.0
C351 C 0.49661 0.99818 0.79599 0.0
N352 N 0.48823 0.02508 0.74639 0.0
C353 C 0.50739 0.02899 0.7494 0.0
Co354 Co 0.7111 0.96082 0.62971 0.0
Co355 Co 0.7514 0.98134 0.54425 0.0
O356 O 0.7314 0.95953 0.58699 0.0
C357 C 0.73148 0.94828 0.70743 0.0
O358 O 0.74828 0.96356 0.69169 0.0
C359 C 0.73122 0.94786 0.46879 0.0
O360 O 0.71445 0.94534 0.48834 0.0
O361 O 0.73096 0.98614 0.51062 0.0
O362 O 0.70662 0.97613 0.57211 0.0
H363 H 0.78601 0.0499 0.46566 0.0
H364 H 0.7084 0.92207 0.60826 0.0
O365 O 0.7151 0.94525 0.68758 0.0
H366 H 0.64672 0.91598 0.53475 0.0
H367 H 0.65277 0.93311 0.75576 0.0
H368 H 0.701 0.99196 0.65421 0.0
H369 H 0.67143 0.94678 0.57958 0.0
H370 H 0.67819 0.93186 0.69943 0.0
O371 O 0.74769 0.96205 0.48573 0.0
H372 H 0.76096 0.02251 0.52074 0.0
H373 H 0.78451 0.98593 0.47438 0.0
H374 H 0.67573 0.99382 0.70972 0.0
H375 H 0.684 0.89092 0.56427 0.0
H376 H 0.65139 0.96424 0.76098 0.0
H377 H 0.65294 0.88776 0.52693 0.0
O378 O 0.73133 0.98615 0.66377 0.0
H379 H 0.77981 0.93956 0.60872 0.0
H380 H 0.79061 0.00742 0.59606 0.0
H381 H 0.81569 0.00186 0.6408 0.0
H382 H 0.81037 0.96772 0.6473 0.0
H383 H 0.75504 0.94577 0.56462 0.0
H384 H 0.80974 0.01288 0.41846 0.0
H385 H 0.81063 0.04517 0.414 0.0
O386 O 0.75542 1.00086 0.6019 0.0
C387 C 0.71473 0.98449 0.52776 0.0
C388 C 0.78581 0.03592 0.46738 0.0
C389 C 0.79911 0.01513 0.44083 0.0
N390 N 0.77136 0.00269 0.50101 0.0
C391 C 0.77169 0.02038 0.49861 0.0
C392 C 0.78477 0.99991 0.47246 0.0
C393 C 0.79961 0.03325 0.43837 0.0
C394 C 0.69483 0.92075 0.59255 0.0
N395 N 0.69135 0.93625 0.59643 0.0
C396 C 0.68111 0.9031 0.56751 0.0
C397 C 0.6637 0.90135 0.54648 0.0
C398 C 0.66021 0.91718 0.55079 0.0
C399 C 0.67429 0.93462 0.57601 0.0
C400 C 0.66327 0.94608 0.73352 0.0
C401 C 0.69037 0.97899 0.67613 0.0
C402 C 0.67772 0.94548 0.70165 0.0
N403 N 0.69095 0.96178 0.67324 0.0
C404 C 0.67614 0.98015 0.70761 0.0
C405 C 0.6625 0.96355 0.73642 0.0
C406 C 0.74739 1.00091 0.64653 0.0
C407 C 0.78233 0.95451 0.60597 0.0
C408 C 0.78818 0.99252 0.59875 0.0
C409 C 0.80245 0.98947 0.62407 0.0
C410 C 0.79946 0.97031 0.62768 0.0
N411 N 0.77143 0.97695 0.57744 0.0
C412 C 0.76839 0.95813 0.58085 0.0
Co413 Co 0.16917 0.81539 0.63138 0.0
Co414 Co 0.14944 0.83482 0.54284 0.0
O415 O 0.17102 0.83696 0.58752 0.0
C416 C 0.18251 0.84877 0.70768 0.0
O417 O 0.16725 0.85036 0.69195 0.0
C418 C 0.18381 0.84935 0.47006 0.0
O419 O 0.18645 0.83517 0.48943 0.0
O420 O 0.14599 0.81021 0.50868 0.0
O421 O 0.15323 0.79527 0.57491 0.0
H422 H 0.08203 0.79952 0.45659 0.0
H423 H 0.20868 0.85045 0.60969 0.0
O424 O 0.18528 0.8352 0.68832 0.0
H425 H 0.21203 0.79333 0.53692 0.0
H426 H 0.19592 0.78436 0.75921 0.0
H427 H 0.13717 0.77477 0.65838 0.0
H428 H 0.1816 0.78853 0.5812 0.0
H429 H 0.1978 0.81096 0.70141 0.0
O430 O 0.16928 0.8512 0.48625 0.0
H431 H 0.10912 0.80243 0.51443 0.0
H432 H 0.1446 0.8632 0.4731 0.0
H433 H 0.13466 0.74773 0.71539 0.0
H434 H 0.23947 0.85589 0.56618 0.0
H435 H 0.16418 0.75245 0.7663 0.0
H436 H 0.24125 0.8272 0.52925 0.0
O437 O 0.14421 0.81131 0.665 0.0
H438 H 0.1888 0.90469 0.61153 0.0
H439 H 0.12181 0.84648 0.592 0.0
H440 H 0.12591 0.87646 0.63729 0.0
H441 H 0.1596 0.90585 0.64725 0.0
H442 H 0.18404 0.87435 0.56684 0.0
H443 H 0.11796 0.86092 0.41447 0.0
H444 H 0.08637 0.82892 0.40611 0.0
O445 O 0.12923 0.81852 0.59869 0.0
C446 C 0.1464 0.79529 0.52826 0.0
C447 C 0.09569 0.81356 0.46005 0.0
C448 C 0.11587 0.84802 0.43635 0.0
N449 N 0.12833 0.833 0.49748 0.0
C450 C 0.11106 0.81531 0.49285 0.0
C451 C 0.13092 0.84921 0.46952 0.0
C452 C 0.09815 0.83006 0.43169 0.0
C453 C 0.20941 0.83787 0.59426 0.0
N454 N 0.19339 0.81919 0.59821 0.0
C455 C 0.22686 0.84105 0.56944 0.0
C456 C 0.22784 0.82495 0.54864 0.0
C457 C 0.21144 0.80594 0.55288 0.0
C458 C 0.19423 0.80332 0.57788 0.0
C459 C 0.18296 0.78211 0.73713 0.0
C460 C 0.15011 0.77688 0.68015 0.0
C461 C 0.18393 0.79713 0.70442 0.0
N462 N 0.16766 0.79434 0.6762 0.0
C463 C 0.14859 0.76154 0.71248 0.0
C464 C 0.16515 0.76421 0.74108 0.0
C465 C 0.12921 0.81157 0.64518 0.0
C466 C 0.17404 0.892 0.60728 0.0
C467 C 0.13652 0.8592 0.59623 0.0
C468 C 0.13875 0.87614 0.62184 0.0
C469 C 0.15765 0.89263 0.62738 0.0
N470 N 0.15267 0.85871 0.57652 0.0
C471 C 0.17125 0.87482 0.58181 0.0
Co472 Co 0.31508 0.41764 0.63334 0.0
Co473 Co 0.29538 0.37841 0.54495 0.0
O474 O 0.2934 0.39793 0.58952 0.0
C475 C 0.28173 0.39769 0.70975 0.0
O476 O 0.28002 0.38083 0.69389 0.0
C477 C 0.28102 0.39832 0.47185 0.0
O478 O 0.29523 0.41513 0.49136 0.0
O479 O 0.32007 0.39945 0.51084 0.0
O480 O 0.33515 0.42175 0.5768 0.0
H481 H 0.33035 0.34598 0.45911 0.0
H482 H 0.28002 0.42215 0.61174 0.0
O483 O 0.29533 0.414 0.69037 0.0
H484 H 0.33725 0.48249 0.53877 0.0
H485 H 0.34645 0.47543 0.7611 0.0
H486 H 0.35574 0.42619 0.66023 0.0
H487 H 0.34201 0.45686 0.58306 0.0
H488 H 0.31971 0.45074 0.70334 0.0
O489 O 0.27906 0.38194 0.48819 0.0
H490 H 0.32764 0.37027 0.5168 0.0
H491 H 0.2668 0.34523 0.4752 0.0
H492 H 0.38293 0.4507 0.7172 0.0
H493 H 0.27463 0.44749 0.5682 0.0
H494 H 0.37836 0.47555 0.76812 0.0
H495 H 0.30336 0.47789 0.53117 0.0
O496 O 0.31912 0.39676 0.66697 0.0
H497 H 0.22545 0.34826 0.61321 0.0
H498 H 0.28348 0.33914 0.59428 0.0
H499 H 0.25338 0.31339 0.63947 0.0
H500 H 0.22408 0.31786 0.64912 0.0
H501 H 0.2559 0.3737 0.56864 0.0
H502 H 0.26889 0.32077 0.41672 0.0
H503 H 0.30083 0.32101 0.40857 0.0
O504 O 0.31163 0.37444 0.60092 0.0
C505 C 0.33506 0.4148 0.53026 0.0
C506 C 0.31634 0.34568 0.46248 0.0
C507 C 0.28185 0.33155 0.43863 0.0
N508 N 0.29704 0.35904 0.49972 0.0
C509 C 0.3147 0.35936 0.4952 0.0
C510 C 0.28076 0.34546 0.47172 0.0
C511 C 0.29977 0.33169 0.43409 0.0
C512 C 0.29263 0.43543 0.59626 0.0
N513 N 0.31132 0.43805 0.60016 0.0
C514 C 0.28947 0.44969 0.57143 0.0
C515 C 0.3056 0.46673 0.55057 0.0
C516 C 0.32461 0.46931 0.55477 0.0
C517 C 0.32721 0.45472 0.57978 0.0
C518 C 0.34863 0.46471 0.73901 0.0
C519 C 0.3537 0.43704 0.68201 0.0
C520 C 0.33354 0.45067 0.70632 0.0
N521 N 0.33624 0.43716 0.6781 0.0
C522 C 0.36912 0.45084 0.71431 0.0
C523 C 0.36654 0.46477 0.74292 0.0
C524 C 0.31872 0.38144 0.64729 0.0
C525 C 0.2381 0.34611 0.60909 0.0
C526 C 0.2708 0.3412 0.59838 0.0
C527 C 0.25379 0.32656 0.62393 0.0
C528 C 0.23735 0.32907 0.6293 0.0
N529 N 0.2714 0.35785 0.57857 0.0
C530 C 0.25535 0.36042 0.5837 0.0
Co531 Co 0.71195 0.81518 0.13159 0.0
Co532 Co 0.75116 0.83475 0.04326 0.0
O533 O 0.73163 0.83677 0.08771 0.0
C534 C 0.7319 0.84863 0.2077 0.0
O535 O 0.74878 0.8503 0.19206 0.0
C536 C 0.73118 0.84903 0.97016 0.0
O537 O 0.71437 0.83479 0.98948 0.0
O538 O 0.73007 0.81006 0.00915 0.0
O539 O 0.70788 0.79505 0.0753 0.0
H540 H 0.78359 0.79975 0.95763 0.0
H541 H 0.7073 0.85007 0.1095 0.0
O542 O 0.71556 0.83499 0.18836 0.0
H543 H 0.64694 0.79267 0.03665 0.0
H544 H 0.65413 0.78397 0.25918 0.0
H545 H 0.70351 0.77466 0.15896 0.0
H546 H 0.67268 0.7881 0.08126 0.0
H547 H 0.67879 0.81059 0.20132 0.0
O548 O 0.7476 0.85101 0.9865 0.0
H549 H 0.7593 0.80251 0.01521 0.0
H550 H 0.78435 0.86323 0.97359 0.0
H551 H 0.67904 0.74759 0.21604 0.0
H552 H 0.68184 0.85528 0.06564 0.0
H553 H 0.65412 0.75217 0.26664 0.0
H554 H 0.65143 0.82645 0.02867 0.0
O555 O 0.73291 0.81127 0.16544 0.0
H556 H 0.78139 0.90464 0.11153 0.0
H557 H 0.7905 0.84667 0.09273 0.0
H558 H 0.81631 0.87675 0.13797 0.0
H559 H 0.81184 0.90602 0.14755 0.0
H560 H 0.75589 0.8742 0.0669 0.0
H561 H 0.80882 0.86109 0.91522 0.0
H562 H 0.80858 0.82919 0.90714 0.0
O563 O 0.75514 0.81856 0.09927 0.0
C564 C 0.71478 0.79508 0.02875 0.0
C565 C 0.78389 0.81375 0.96097 0.0
C566 C 0.79804 0.84817 0.93711 0.0
N567 N 0.77053 0.83305 0.99811 0.0
C568 C 0.77021 0.81541 0.99363 0.0
C569 C 0.78413 0.84928 0.97014 0.0
C570 C 0.7979 0.83027 0.93261 0.0
C571 C 0.69401 0.83742 0.09406 0.0
N572 N 0.69145 0.81879 0.09817 0.0
C573 C 0.67969 0.84048 0.06904 0.0
C574 C 0.66265 0.8243 0.04821 0.0
C575 C 0.66013 0.80535 0.05263 0.0
C576 C 0.67478 0.80286 0.07782 0.0
C577 C 0.66489 0.78178 0.23723 0.0
C578 C 0.69263 0.77671 0.18059 0.0
C579 C 0.6789 0.79681 0.20449 0.0
N580 N 0.69245 0.7941 0.17643 0.0
C581 C 0.67885 0.76135 0.21297 0.0
C582 C 0.66489 0.76394 0.24139 0.0
C583 C 0.74821 0.81159 0.14571 0.0
C584 C 0.78354 0.89201 0.10744 0.0
C585 C 0.78844 0.85933 0.0968 0.0
C586 C 0.80312 0.87634 0.12238 0.0
C587 C 0.80061 0.89276 0.12771 0.0
N588 N 0.77176 0.85872 0.07692 0.0
C589 C 0.76919 0.87476 0.08201 0.0
Co590 Co 0.31569 0.96142 0.12991 0.0
Co591 Co 0.29612 0.98187 0.04358 0.0
O592 O 0.29416 0.9601 0.0868 0.0
C593 C 0.28265 0.94877 0.20729 0.0
O594 O 0.28116 0.96407 0.19162 0.0
C595 C 0.28253 0.94821 0.96875 0.0
O596 O 0.29679 0.94571 0.98832 0.0
O597 O 0.32126 0.98639 0.01004 0.0
O598 O 0.33562 0.97683 0.07266 0.0
H599 H 0.33052 0.05017 0.96331 0.0
H600 H 0.27971 0.9226 0.10819 0.0
O601 O 0.29603 0.94578 0.1875 0.0
H602 H 0.33551 0.91682 0.03534 0.0
H603 H 0.3462 0.93377 0.25662 0.0
H604 H 0.3569 0.99264 0.15509 0.0
H605 H 0.34148 0.94758 0.08002 0.0
H606 H 0.31959 0.93248 0.1998 0.0
O607 O 0.28033 0.96246 0.98545 0.0
H608 H 0.328 0.02285 0.01906 0.0
H609 H 0.26765 0.98653 0.97356 0.0
H610 H 0.38397 0.99455 0.2111 0.0
H611 H 0.27308 0.89149 0.06433 0.0
H612 H 0.37869 0.96496 0.26236 0.0
H613 H 0.30109 0.88848 0.02732 0.0
O614 O 0.3207 0.98671 0.16381 0.0
H615 H 0.22589 0.94071 0.10859 0.0
H616 H 0.28341 0.00833 0.09476 0.0
H617 H 0.2529 0.00314 0.13946 0.0
H618 H 0.22386 0.96913 0.14654 0.0
H619 H 0.25674 0.94655 0.06453 0.0
H620 H 0.26955 0.01341 0.91696 0.0
H621 H 0.30115 0.04553 0.91174 0.0
O622 O 0.31186 0.00153 0.10084 0.0
C623 C 0.33589 0.98498 0.02791 0.0
C624 C 0.31665 0.03627 0.96538 0.0
C625 C 0.28244 0.01562 0.93931 0.0
N626 N 0.29766 0.00318 0.99983 0.0
C627 C 0.31512 0.02077 0.99699 0.0
C628 C 0.28147 1.00045 0.97132 0.0
C629 C 0.30017 0.03365 0.93641 0.0
C630 C 0.292 0.92134 0.09265 0.0
N631 N 0.31097 0.9369 0.09666 0.0
C632 C 0.28814 0.90371 0.06767 0.0
C633 C 0.30387 0.90205 0.04683 0.0
C634 C 0.32318 0.91795 0.05125 0.0
C635 C 0.32647 0.93536 0.0764 0.0
C636 C 0.34869 0.94675 0.23438 0.0
C637 C 0.35455 0.97967 0.17701 0.0
C638 C 0.33367 0.94612 0.20224 0.0
N639 N 0.33676 0.96243 0.17383 0.0
C640 C 0.3699 0.98085 0.20878 0.0
C641 C 0.36692 0.96425 0.23757 0.0
C642 C 0.31973 0.00156 0.14586 0.0
C643 C 0.23842 0.95561 0.10558 0.0
C644 C 0.27084 0.99348 0.09772 0.0
C645 C 0.25359 0.99064 0.123 0.0
C646 C 0.2373 0.97155 0.12694 0.0
N647 N 0.2718 0.97777 0.07675 0.0
C648 C 0.2559 0.95902 0.08048 0.0
Co649 Co 0.16739 0.4173 0.13378 0.0
Co650 Co 0.14796 0.37915 0.04264 0.0
O651 O 0.16948 0.39805 0.08845 0.0
C652 C 0.18136 0.3973 0.20835 0.0
O653 O 0.16619 0.38043 0.19244 0.0
C654 C 0.18275 0.39881 0.97129 0.0
O655 O 0.18549 0.41564 0.99091 0.0
O656 O 0.14535 0.40084 0.00924 0.0
O657 O 0.15094 0.42147 0.0785 0.0
H658 H 0.08129 0.349 0.95259 0.0
H659 H 0.20717 0.4227 0.11024 0.0
O660 O 0.18392 0.41363 0.18952 0.0
H661 H 0.209 0.48299 0.04197 0.0
H662 H 0.19353 0.4742 0.26443 0.0
H663 H 0.13493 0.42498 0.16331 0.0
H664 H 0.17891 0.4567 0.08586 0.0
H665 H 0.1958 0.45015 0.20468 0.0
O666 O 0.16804 0.38248 0.98689 0.0
H667 H 0.10816 0.37236 0.01234 0.0
H668 H 0.14286 0.34606 0.97187 0.0
H669 H 0.13203 0.44885 0.22226 0.0
H670 H 0.23763 0.44872 0.0671 0.0
H671 H 0.16148 0.47369 0.27332 0.0
H672 H 0.23865 0.4791 0.03244 0.0
O673 O 0.14279 0.39586 0.16717 0.0
H674 H 0.18556 0.34677 0.11159 0.0
H675 H 0.11937 0.33985 0.08986 0.0
H676 H 0.12245 0.31327 0.13451 0.0
H677 H 0.15573 0.31663 0.14555 0.0
H678 H 0.18182 0.37307 0.06755 0.0
H679 H 0.11643 0.3225 0.91137 0.0
H680 H 0.08534 0.32384 0.90159 0.0
O681 O 0.12744 0.37542 0.09749 0.0
C682 C 0.14489 0.41547 0.03072 0.0
C683 C 0.09473 0.34822 0.95667 0.0
C684 C 0.11447 0.33336 0.93348 0.0
N685 N 0.12697 0.36045 0.99594 0.0
C686 C 0.10997 0.36136 0.99056 0.0
C687 C 0.12939 0.34676 0.96771 0.0
C688 C 0.09703 0.33412 0.92802 0.0
C689 C 0.20757 0.43597 0.0958 0.0
N690 N 0.1913 0.4382 0.10076 0.0
C691 C 0.22483 0.45061 0.07118 0.0
C692 C 0.22538 0.46764 0.05165 0.0
C693 C 0.20874 0.46982 0.05693 0.0
C694 C 0.19173 0.45486 0.08169 0.0
C695 C 0.1806 0.46348 0.24229 0.0
C696 C 0.14784 0.43583 0.18514 0.0
C697 C 0.18179 0.4498 0.20849 0.0
N698 N 0.16556 0.4363 0.1802 0.0
C699 C 0.14609 0.44927 0.21857 0.0
C700 C 0.16262 0.46319 0.24725 0.0
C701 C 0.12762 0.38141 0.14534 0.0
C702 C 0.17097 0.3451 0.10685 0.0
C703 C 0.13391 0.34144 0.09459 0.0
C704 C 0.13556 0.32632 0.11982 0.0
C705 C 0.15423 0.32821 0.12597 0.0
N706 N 0.15039 0.35795 0.07585 0.0
C707 C 0.16875 0.35991 0.08175 0.0
Co708 Co 0.41773 0.31354 0.87831 0.0
Co709 Co 0.37846 0.29425 0.96646 0.0
O710 O 0.39796 0.29206 0.92232 0.0
C711 C 0.39772 0.27998 0.80257 0.0
O712 O 0.38085 0.27839 0.81798 0.0
C713 C 0.39833 0.28002 0.04011 0.0
O714 O 0.41515 0.29423 0.02078 0.0
O715 O 0.39959 0.31898 1.00038 0.0
O716 O 0.42185 0.33377 0.93426 0.0
H717 H 0.34614 0.32957 0.05078 0.0
H718 H 0.42216 0.27856 0.90114 0.0
O719 O 0.41406 0.29361 0.82188 0.0
H720 H 0.4826 0.3359 0.97383 0.0
H721 H 0.47565 0.34432 0.75102 0.0
H722 H 0.42637 0.35407 0.85028 0.0
H723 H 0.457 0.34055 0.9287 0.0
H724 H 0.45088 0.31785 0.80901 0.0
O725 O 0.38192 0.27804 0.0236 0.0
H726 H 0.37044 0.32663 0.99371 0.0
H727 H 0.34519 0.26597 0.03623 0.0
H728 H 0.45096 0.38099 0.79305 0.0
H729 H 0.44747 0.27326 0.94552 0.0
H730 H 0.47584 0.37619 0.74293 0.0
H731 H 0.47792 0.30206 0.98241 0.0
O732 O 0.39686 0.31751 0.8441 0.0
H733 H 0.34805 0.22422 0.89916 0.0
H734 H 0.33919 0.28238 0.91663 0.0
H735 H 0.31334 0.25226 0.87159 0.0
H736 H 0.31769 0.2229 0.86268 0.0
H737 H 0.37359 0.2547 0.94356 0.0
H738 H 0.32071 0.26829 0.09411 0.0
H739 H 0.32104 0.30025 0.10147 0.0
O740 O 0.37459 0.3104 0.91005 0.0
C741 C 0.41494 0.33387 0.9807 0.0
C742 C 0.34579 0.31555 0.04775 0.0
C743 C 0.33154 0.28116 0.07213 0.0
N744 N 0.35911 0.29611 0.01129 0.0
C745 C 0.35948 0.31378 0.01538 0.0
C746 C 0.34546 0.27994 0.03938 0.0
C747 C 0.33173 0.2991 0.07623 0.0
C748 C 0.43547 0.29119 0.91654 0.0
N749 N 0.43813 0.30985 0.9121 0.0
C750 C 0.44971 0.28809 0.94186 0.0
C751 C 0.46678 0.30425 0.96264 0.0
C752 C 0.4694 0.32323 0.95788 0.0
C753 C 0.45483 0.32577 0.9324 0.0
C754 C 0.46492 0.34661 0.77275 0.0
C755 C 0.43723 0.35193 0.82886 0.0
C756 C 0.45084 0.33166 0.80557 0.0
N757 N 0.43732 0.33449 0.83335 0.0
C758 C 0.45108 0.3672 0.7964 0.0
C759 C 0.46502 0.36449 0.76825 0.0
C760 C 0.38159 0.31729 0.86359 0.0
C761 C 0.34596 0.2369 0.90296 0.0
C762 C 0.3412 0.26967 0.91285 0.0
C763 C 0.3265 0.25265 0.88739 0.0
C764 C 0.32894 0.23617 0.88243 0.0
N765 N 0.35783 0.27025 0.93298 0.0
C766 C 0.36033 0.25416 0.92826 0.0
Co767 Co 0.83428 0.14784 0.96583 0.0
Co768 Co 0.81513 0.16772 0.877 0.0
O769 O 0.83659 0.16945 0.9213 0.0
C770 C 0.84877 0.18205 0.03905 0.0
O771 O 0.8346 0.18472 0.01955 0.0
C772 C 0.84875 0.18115 0.80146 0.0
O773 O 0.85026 0.16585 0.81699 0.0
O774 O 0.8111 0.14284 0.84313 0.0
O775 O 0.81795 0.12772 0.90974 0.0
H776 H 0.74763 0.13349 0.79102 0.0
H777 H 0.874 0.18229 0.94265 0.0
O778 O 0.85065 0.16758 0.02273 0.0
H779 H 0.87588 0.12413 0.87186 0.0
H780 H 0.86004 0.1161 0.09438 0.0
H781 H 0.80168 0.10762 0.99371 0.0
H782 H 0.84584 0.12015 0.91664 0.0
H783 H 0.86252 0.1428 0.03592 0.0
O784 O 0.83514 0.18391 0.82063 0.0
H785 H 0.77452 0.13584 0.84869 0.0
H786 H 0.81093 0.19649 0.80724 0.0
H787 H 0.79857 0.08047 0.05136 0.0
H788 H 0.90439 0.18692 0.89849 0.0
H789 H 0.8279 0.08463 0.1022 0.0
H790 H 0.90544 0.15771 0.86262 0.0
O791 O 0.80964 0.14447 0.99954 0.0
H792 H 0.85556 0.23778 0.94377 0.0
H793 H 0.78812 0.18006 0.92681 0.0
H794 H 0.79284 0.21037 0.97153 0.0
H795 H 0.82675 0.23951 0.98019 0.0
H796 H 0.8502 0.20712 0.89979 0.0
H797 H 0.78449 0.19476 0.74879 0.0
H798 H 0.75254 0.1631 0.74058 0.0
O799 O 0.79479 0.15166 0.93286 0.0
C800 C 0.81111 0.12777 0.86312 0.0
C801 C 0.76146 0.14739 0.79443 0.0
C802 C 0.78215 0.18177 0.77067 0.0
N803 N 0.79419 0.16633 0.83171 0.0
C804 C 0.77671 0.14882 0.82714 0.0
C805 C 0.79708 0.18265 0.80374 0.0
C806 C 0.76423 0.164 0.76609 0.0
C807 C 0.87441 0.16949 0.92761 0.0
N808 N 0.85821 0.15097 0.93252 0.0
C809 C 0.89163 0.17221 0.90244 0.0
C810 C 0.8922 0.15582 0.88225 0.0
C811 C 0.87562 0.13697 0.8874 0.0
C812 C 0.85864 0.13482 0.91271 0.0
C813 C 0.84717 0.11409 0.07234 0.0
C814 C 0.81454 0.10948 0.01544 0.0
C815 C 0.84847 0.12917 0.03926 0.0
N816 N 0.8323 0.12668 0.01109 0.0
C817 C 0.81267 0.09408 0.04814 0.0
C818 C 0.82913 0.09644 0.07669 0.0
C819 C 0.7947 0.14481 0.97951 0.0
C820 C 0.8407 0.2252 0.94008 0.0
C821 C 0.80294 0.19266 0.93054 0.0
C822 C 0.80551 0.2098 0.9558 0.0
C823 C 0.82454 0.22615 0.96059 0.0
N824 N 0.81886 0.19184 0.9105 0.0
C825 C 0.83756 0.20783 0.91499 0.0
Co826 Co 0.96236 0.71161 0.87485 0.0
Co827 Co 0.98162 0.75093 0.96297 0.0
O828 O 0.96014 0.7311 0.91891 0.0
C829 C 0.94817 0.73142 0.80099 0.0
O830 O 0.96235 0.74824 0.82054 0.0
C831 C 0.94809 0.73082 0.03876 0.0
O832 O 0.94656 0.71401 0.02312 0.0
O833 O 0.98576 0.73019 0.99715 0.0
O834 O 0.97845 0.70776 0.93149 0.0
H835 H 0.04924 0.7845 0.04818 0.0
H836 H 0.92274 0.70676 0.8972 0.0
O837 O 0.9462 0.71505 0.81748 0.0
H838 H 0.92021 0.6466 0.96921 0.0
H839 H 0.93649 0.65392 0.74694 0.0
H840 H 0.9948 0.70358 0.84813 0.0
H841 H 0.95042 0.6724 0.9246 0.0
H842 H 0.93411 0.67837 0.80475 0.0
O843 O 0.96166 0.74717 0.01947 0.0
H844 H 0.02231 0.75981 0.99094 0.0
H845 H 0.98579 0.78398 0.03238 0.0
H846 H 0.99781 0.67931 0.79114 0.0
H847 H 0.89217 0.68126 0.94119 0.0
H848 H 0.96851 0.65425 0.74005 0.0
H849 H 0.8908 0.65094 0.97768 0.0
O850 O 0.98714 0.73269 0.84116 0.0
H851 H 0.94091 0.78023 0.8959 0.0
H852 H 0.00847 0.79017 0.91264 0.0
H853 H 0.00358 0.81559 0.86758 0.0
H854 H 0.96961 0.81071 0.85903 0.0
H855 H 0.94644 0.7551 0.94023 0.0
H856 H 0.01228 0.80885 0.09039 0.0
H857 H 0.04431 0.80925 0.09839 0.0
O858 O 1.00189 0.75514 0.90696 0.0
C859 C 0.98542 0.71484 0.97788 0.0
C860 C 0.03538 0.78452 0.04487 0.0
C861 C 0.01463 0.79817 0.06862 0.0
N862 N 0.00258 0.77058 0.00796 0.0
C863 C 0.0201 0.77061 0.01241 0.0
C864 C 0.99967 0.78404 0.03579 0.0
C865 C 0.0326 0.79839 0.07308 0.0
C866 C 0.92218 0.69352 0.91252 0.0
N867 N 0.9383 0.69102 0.90804 0.0
C868 C 0.90486 0.67917 0.93758 0.0
C869 C 0.90411 0.66217 0.95812 0.0
C870 C 0.92061 0.65973 0.95341 0.0
C871 C 0.93769 0.67441 0.92819 0.0
C872 C 0.94935 0.66473 0.7691 0.0
C873 C 0.98196 0.69263 0.82628 0.0
C874 C 0.9481 0.67863 0.8018 0.0
N875 N 0.96426 0.69227 0.83011 0.0
C876 C 0.98376 0.67897 0.79396 0.0
C877 C 0.96732 0.66493 0.76526 0.0
C878 C 0.00201 0.74813 0.86066 0.0
C879 C 0.9558 0.78256 0.89955 0.0
C880 C 0.99363 0.78791 0.90896 0.0
C881 C 0.99096 0.80238 0.88352 0.0
C882 C 0.9719 0.79964 0.87878 0.0
N883 N 0.97776 0.7712 0.92925 0.0
C884 C 0.95903 0.76842 0.92483 0.0
Co885 Co 0.37855 0.14739 0.46615 0.0
Co886 Co 0.41873 0.16837 0.38038 0.0
O887 O 0.39837 0.16936 0.4235 0.0
C888 C 0.39858 0.18074 0.54193 0.0
O889 O 0.41537 0.18335 0.52226 0.0
C890 C 0.39816 0.18091 0.30324 0.0
O891 O 0.38141 0.16551 0.31872 0.0
O892 O 0.39861 0.14305 0.34603 0.0
O893 O 0.37469 0.12802 0.40823 0.0
H894 H 0.45452 0.13605 0.29879 0.0
H895 H 0.37446 0.18275 0.44659 0.0
O896 O 0.38213 0.16654 0.52494 0.0
H897 H 0.31405 0.12643 0.37018 0.0
H898 H 0.3203 0.11518 0.59209 0.0
H899 H 0.36943 0.10632 0.48913 0.0
H900 H 0.33939 0.1211 0.41436 0.0
H901 H 0.34535 0.14236 0.53639 0.0
O902 O 0.41457 0.184 0.32302 0.0
H903 H 0.42912 0.13751 0.35472 0.0
H904 H 0.45152 0.19768 0.31103 0.0
H905 H 0.34455 0.0787 0.54396 0.0
H906 H 0.34944 0.18872 0.40309 0.0
H907 H 0.31975 0.08305 0.59596 0.0
H908 H 0.319 0.16043 0.36438 0.0
O909 O 0.39918 0.14278 0.49933 0.0
H910 H 0.44539 0.23802 0.44735 0.0
H911 H 0.45844 0.18251 0.43045 0.0
H912 H 0.483 0.21326 0.47581 0.0
H913 H 0.47654 0.2413 0.48445 0.0
H914 H 0.42115 0.20693 0.40281 0.0
H915 H 0.47707 0.19684 0.2543 0.0
H916 H 0.47872 0.16588 0.24809 0.0
O917 O 0.42338 0.15297 0.4374 0.0
C918 C 0.3827 0.12814 0.36341 0.0
C919 C 0.454 0.14965 0.30132 0.0
C920 C 0.46663 0.18376 0.27628 0.0
N921 N 0.43896 0.1677 0.33648 0.0
C922 C 0.43969 0.15058 0.33305 0.0
C923 C 0.45211 0.18414 0.30838 0.0
C924 C 0.46755 0.16639 0.27284 0.0
C925 C 0.36116 0.17034 0.43032 0.0
N926 N 0.35833 0.15159 0.43335 0.0
C927 C 0.34708 0.17382 0.40553 0.0
C928 C 0.33002 0.15795 0.38375 0.0
C929 C 0.32724 0.13887 0.38697 0.0
C930 C 0.34165 0.13595 0.41196 0.0
C931 C 0.33101 0.1131 0.56956 0.0
C932 C 0.35861 0.10828 0.5114 0.0
C933 C 0.34525 0.12844 0.53806 0.0
N934 N 0.35875 0.12587 0.5093 0.0
C935 C 0.3446 0.09261 0.54249 0.0
C936 C 0.3307 0.09507 0.57169 0.0
C937 C 0.41539 0.14452 0.48175 0.0
C938 C 0.44839 0.22592 0.44375 0.0
C939 C 0.45548 0.19459 0.43434 0.0
C940 C 0.46947 0.212 0.45987 0.0
C941 C 0.46585 0.22774 0.46464 0.0
N942 N 0.43837 0.1929 0.41405 0.0
C943 C 0.43476 0.2083 0.41839 0.0
Co944 Co 0.961 0.31388 0.3798 0.0
Co945 Co 0.98205 0.29513 0.4666 0.0
O946 O 0.96001 0.29269 0.42346 0.0
C947 C 0.94804 0.28054 0.30336 0.0
O948 O 0.96349 0.27922 0.31864 0.0
C949 C 0.94841 0.28123 0.54153 0.0
O950 O 0.94581 0.29543 0.52218 0.0
O951 O 0.98613 0.32007 0.50006 0.0
O952 O 0.97678 0.33419 0.43622 0.0
H953 H 0.05051 0.33048 0.54692 0.0
H954 H 0.92231 0.27808 0.40353 0.0
O955 O 0.94502 0.29389 0.32314 0.0
H956 H 0.91683 0.33421 0.47478 0.0
H957 H 0.93249 0.34354 0.25307 0.0
H958 H 0.99207 0.35489 0.35283 0.0
H959 H 0.94737 0.33993 0.42916 0.0
H960 H 0.93159 0.3173 0.31047 0.0
O961 O 0.96274 0.27916 0.52471 0.0
H962 H 0.02289 0.32745 0.49122 0.0
H963 H 0.98735 0.26711 0.5366 0.0
H964 H 0.99359 0.3816 0.29624 0.0
H965 H 0.89141 0.27169 0.44832 0.0
H966 H 0.96364 0.37599 0.24586 0.0
H967 H 0.88856 0.29987 0.48453 0.0
O968 O 0.98606 0.31858 0.34503 0.0
H969 H 0.94181 0.22481 0.40167 0.0
H970 H 0.00902 0.28309 0.41523 0.0
H971 H 0.00436 0.2528 0.37046 0.0
H972 H 0.97055 0.22338 0.36352 0.0
H973 H 0.94713 0.25545 0.44576 0.0
H974 H 0.01452 0.26952 0.59315 0.0
H975 H 0.0464 0.30137 0.59841 0.0
O976 O 1.00164 0.31113 0.40939 0.0
C977 C 0.9848 0.33463 0.48141 0.0
C978 C 0.03671 0.31651 0.54483 0.0
C979 C 0.0165 0.2823 0.57084 0.0
N980 N 0.00359 0.29709 0.51038 0.0
C981 C 0.02105 0.31469 0.51322 0.0
C982 C 1.00115 0.28104 0.53886 0.0
C983 C 0.03439 0.30017 0.57375 0.0
C984 C 0.92112 0.29044 0.41873 0.0
N985 N 0.93665 0.30937 0.41379 0.0
C986 C 0.90361 0.28672 0.44424 0.0
C987 C 0.90204 0.30253 0.46463 0.0
C988 C 0.9179 0.3218 0.45924 0.0
C989 C 0.9352 0.32495 0.43358 0.0
C990 C 0.94563 0.34617 0.2749 0.0
C991 C 0.97894 0.3524 0.3313 0.0
C992 C 0.94522 0.33136 0.30737 0.0
N993 N 0.96172 0.33464 0.33529 0.0
C994 C 0.97991 0.36755 0.2992 0.0
C995 C 0.96311 0.36438 0.2709 0.0
C996 C 1.00119 0.31824 0.36358 0.0
C997 C 0.95662 0.23751 0.40461 0.0
C998 C 0.99426 0.27035 0.41233 0.0
C999 C 0.99172 0.25324 0.387 0.0
C1000 C 0.97275 0.23673 0.38314 0.0
N1001 N 0.97838 0.27099 0.43339 0.0
C1002 C 0.95973 0.25487 0.42974 0.0
Co1003 Co 0.83476 0.7504 0.46284 0.0
Co1004 Co 0.81477 0.71121 0.37434 0.0
O1005 O 0.83647 0.73066 0.41866 0.0
C1006 C 0.84825 0.73034 0.53857 0.0
O1007 O 0.83299 0.7135 0.52289 0.0
C1008 C 0.84887 0.73116 0.30081 0.0
O1009 O 0.85146 0.74793 0.32043 0.0
O1010 O 0.81109 0.7323 0.34073 0.0
O1011 O 0.81868 0.7546 0.40686 0.0
H1012 H 0.74704 0.67892 0.28992 0.0
H1013 H 0.87418 0.75475 0.4402 0.0
O1014 O 0.85098 0.74667 0.51933 0.0
H1015 H 0.87741 0.81521 0.368 0.0
H1016 H 0.86188 0.80818 0.59071 0.0
H1017 H 0.80284 0.75908 0.49081 0.0
H1018 H 0.84709 0.78967 0.41282 0.0
H1019 H 0.86359 0.78344 0.53252 0.0
O1020 O 0.83445 0.71475 0.31712 0.0
H1021 H 0.77429 0.70314 0.34726 0.0
H1022 H 0.80984 0.67807 0.30402 0.0
H1023 H 0.80051 0.78364 0.54822 0.0
H1024 H 0.90485 0.78 0.39612 0.0
H1025 H 0.83018 0.80842 0.59866 0.0
H1026 H 0.90657 0.81046 0.35947 0.0
O1027 O 0.80988 0.72957 0.4968 0.0
H1028 H 0.85457 0.68084 0.44082 0.0
H1029 H 0.78743 0.67192 0.42367 0.0
H1030 H 0.79179 0.64608 0.46818 0.0
H1031 H 0.82556 0.65046 0.47693 0.0
H1032 H 0.84955 0.70638 0.39694 0.0
H1033 H 0.78304 0.65367 0.24587 0.0
H1034 H 0.75134 0.65395 0.23873 0.0
O1035 O 0.79474 0.70725 0.43083 0.0
C1036 C 0.81161 0.74768 0.36043 0.0
C1037 C 0.76076 0.6786 0.29285 0.0
C1038 C 0.78097 0.66444 0.26807 0.0
N1039 N 0.79355 0.6919 0.32933 0.0
C1040 C 0.77621 0.69224 0.32537 0.0
C1041 C 0.79611 0.67832 0.30097 0.0
C1042 C 0.76319 0.66461 0.26409 0.0
C1043 C 0.87489 0.76806 0.4249 0.0
N1044 N 0.85889 0.77076 0.42931 0.0
C1045 C 0.89227 0.78227 0.39976 0.0
C1046 C 0.89321 0.79934 0.37911 0.0
C1047 C 0.87684 0.802 0.38384 0.0
C1048 C 0.8597 0.78746 0.40915 0.0
C1049 C 0.84886 0.79749 0.56883 0.0
C1050 C 0.81585 0.7699 0.51237 0.0
C1051 C 0.84973 0.78343 0.53591 0.0
N1052 N 0.83338 0.76996 0.50795 0.0
C1053 C 0.81442 0.78373 0.54494 0.0
C1054 C 0.83107 0.79762 0.57327 0.0
C1055 C 0.79485 0.71425 0.47732 0.0
C1056 C 0.83978 0.67874 0.43709 0.0
C1057 C 0.80217 0.67395 0.42739 0.0
C1058 C 0.80455 0.65925 0.45255 0.0
C1059 C 0.8235 0.66171 0.45742 0.0
N1060 N 0.81821 0.69059 0.40745 0.0
C1061 C 0.83684 0.69311 0.41209 0.0
H1062 H 0.09545 0.54119 0.93645 0.0
H1063 H 0.03423 0.52114 0.89661 0.0
H1064 H 0.09523 0.56476 1.00037 0.0
H1065 H 0.03421 0.54525 0.95857 0.0
H1066 H 0.03411 0.57688 0.11179 0.0
H1067 H 0.03425 0.55278 0.04981 0.0
H1068 H 0.09496 0.59473 0.00691 0.0
H1069 H 0.09501 0.61845 0.07067 0.0
C1070 C 0.08197 0.54189 0.94114 0.0
C1071 C 0.06484 0.52922 0.91164 0.0
C1072 C 0.08187 0.55553 0.97753 0.0
C1073 C 0.0647 0.55702 0.9848 0.0
C1074 C 0.0476 0.54434 0.95496 0.0
C1075 C 0.04764 0.53056 0.91911 0.0
C1076 C 0.04745 0.58096 0.08896 0.0
C1077 C 0.06454 0.59957 0.09611 0.0
C1078 C 0.04753 0.56716 0.05317 0.0
C1079 C 0.06462 0.57172 0.02311 0.0
C1080 C 0.08164 0.59048 0.02998 0.0
C1081 C 0.08163 0.60418 0.06627 0.0
H1082 H 0.588 0.61887 0.93706 0.0
H1083 H 0.60839 0.57804 0.89743 0.0
H1084 H 0.56434 0.59494 1.0005 0.0
H1085 H 0.58418 0.55376 0.95883 0.0
H1086 H 0.55254 0.52176 0.1114 0.0
H1087 H 0.5766 0.54614 0.04974 0.0
H1088 H 0.53443 0.56467 0.00725 0.0
H1089 H 0.51075 0.54087 0.0708 0.0
C1090 C 0.58734 0.60473 0.94167 0.0
C1091 C 0.60015 0.60042 0.91241 0.0
C1092 C 0.57365 0.59091 0.97778 0.0
C1093 C 0.57225 0.57231 0.985 0.0
C1094 C 0.58503 0.56802 0.95531 0.0
C1095 C 0.59887 0.58193 0.91977 0.0
C1096 C 0.5484 0.53101 0.08874 0.0
C1097 C 0.52973 0.52936 0.09595 0.0
C1098 C 0.56218 0.54496 0.0531 0.0
C1099 C 0.55754 0.55746 0.0232 0.0
C1100 C 0.53873 0.55562 0.03016 0.0
C1101 C 0.52506 0.54184 0.06634 0.0
H1102 H 0.60827 0.09608 0.11468 0.0
H1103 H 0.58868 0.03517 0.07351 0.0
H1104 H 0.58385 0.09594 0.05327 0.0
H1105 H 0.56485 0.03523 0.01021 0.0
H1106 H 0.51083 0.0349 0.93976 0.0
H1107 H 0.53464 0.03506 0.00371 0.0
H1108 H 0.57619 0.09598 0.96239 0.0
H1109 H 0.55206 0.09603 0.90053 0.0
C1110 C 0.59892 0.08273 0.09193 0.0
C1111 C 0.60043 0.06565 0.0989 0.0
C1112 C 0.58493 0.08266 0.05646 0.0
C1113 C 0.57229 0.06557 0.02651 0.0
C1114 C 0.57402 0.04855 0.0332 0.0
C1115 C 0.58782 0.04856 0.06921 0.0
C1116 C 0.52501 0.04835 0.94463 0.0
C1117 C 0.52949 0.06547 0.91528 0.0
C1118 C 0.53877 0.04841 0.98101 0.0
C1119 C 0.55745 0.06553 0.98838 0.0
C1120 C 0.56187 0.08263 0.95874 0.0
C1121 C 0.54804 0.08263 0.92294 0.0
H1122 H 0.60902 0.09566 0.39988 0.0
H1123 H 0.58902 0.03458 0.43979 0.0
H1124 H 0.58459 0.09558 0.46075 0.0
H1125 H 0.56513 0.03471 0.50278 0.0
H1126 H 0.51117 0.03466 0.57195 0.0
H1127 H 0.53507 0.0348 0.50864 0.0
H1128 H 0.5767 0.0956 0.55136 0.0
H1129 H 0.55241 0.09566 0.61272 0.0
C1130 C 0.59956 0.08226 0.42221 0.0
C1131 C 0.60099 0.06513 0.41506 0.0
C1132 C 0.58558 0.08224 0.45745 0.0
C1133 C 0.57282 0.06515 0.48702 0.0
C1134 C 0.57441 0.04805 0.4801 0.0
C1135 C 0.58824 0.048 0.44427 0.0
C1136 C 0.52539 0.04809 0.56751 0.0
C1137 C 0.52986 0.06518 0.59714 0.0
C1138 C 0.5392 0.04813 0.53151 0.0
C1139 C 0.55794 0.06519 0.52479 0.0
C1140 C 0.56234 0.08229 0.55457 0.0
C1141 C 0.54842 0.08232 0.59001 0.0
H1142 H 0.03622 0.58898 0.43579 0.0
H1143 H 0.09703 0.60804 0.39401 0.0
H1144 H 0.03619 0.56512 0.49892 0.0
H1145 H 0.0968 0.5836 0.45533 0.0
H1146 H 0.09678 0.55168 0.60792 0.0
H1147 H 0.09689 0.57593 0.54635 0.0
H1148 H 0.03577 0.53481 0.50477 0.0
H1149 H 0.03545 0.51089 0.56832 0.0
C1150 C 0.04956 0.58799 0.43991 0.0
C1151 C 0.06665 0.60046 0.41008 0.0
C1152 C 0.04951 0.57418 0.47584 0.0
C1153 C 0.06647 0.5723 0.48233 0.0
C1154 C 0.08356 0.5848 0.45227 0.0
C1155 C 0.08368 0.59879 0.41685 0.0
C1156 C 0.08337 0.54779 0.58553 0.0
C1157 C 0.0661 0.52933 0.59298 0.0
C1158 C 0.08346 0.56169 0.5499 0.0
C1159 C 0.06635 0.55741 0.52029 0.0
C1160 C 0.04913 0.53882 0.52747 0.0
C1161 C 0.04898 0.525 0.56363 0.0
H1162 H 0.60772 0.57701 0.61205 0.0
H1163 H 0.58861 0.61877 0.57153 0.0
H1164 H 0.5834 0.55305 0.54988 0.0
H1165 H 0.56488 0.59519 0.50749 0.0
H1166 H 0.51072 0.54172 0.43632 0.0
H1167 H 0.53458 0.56529 0.50026 0.0
H1168 H 0.57598 0.54568 0.45867 0.0
H1169 H 0.55178 0.52157 0.39676 0.0
C1170 C 0.59849 0.58116 0.58931 0.0
C1171 C 0.60011 0.59979 0.59667 0.0
C1172 C 0.58457 0.56744 0.55339 0.0
C1173 C 0.5721 0.5721 0.52337 0.0
C1174 C 0.57392 0.59087 0.53049 0.0
C1175 C 0.58765 0.60449 0.56695 0.0
C1176 C 0.5249 0.54241 0.44104 0.0
C1177 C 0.5293 0.5297 0.41167 0.0
C1178 C 0.53868 0.55605 0.47745 0.0
C1179 C 0.55731 0.55748 0.48484 0.0
C1180 C 0.56169 0.5448 0.45502 0.0
C1181 C 0.54783 0.53101 0.41917 0.0
H1182 H 0.70109 0.85473 0.23114 0.0
H1183 H 0.76239 0.87524 0.27104 0.0
H1184 H 0.70096 0.87898 0.29233 0.0
H1185 H 0.76206 0.89893 0.33427 0.0
H1186 H 0.76159 0.9525 0.40415 0.0
H1187 H 0.76165 0.92878 0.34057 0.0
H1188 H 0.70092 0.88677 0.38311 0.0
H1189 H 0.70066 0.91087 0.44477 0.0
C1190 C 0.7145 0.86428 0.25349 0.0
C1191 C 0.73175 0.86303 0.24626 0.0
C1192 C 0.71439 0.87815 0.28892 0.0
C1193 C 0.73148 0.89098 0.31858 0.0
C1194 C 0.74871 0.88959 0.31153 0.0
C1195 C 0.74888 0.87588 0.27554 0.0
C1196 C 0.74823 0.93822 0.39966 0.0
C1197 C 0.73109 0.9336 0.42931 0.0
C1198 C 0.7483 0.92452 0.36348 0.0
C1199 C 0.73132 0.90574 0.35659 0.0
C1200 C 0.71418 0.90117 0.38644 0.0
C1201 C 0.71403 0.91497 0.42207 0.0
H1202 H 0.22097 0.85612 0.44648 0.0
H1203 H 0.17916 0.87524 0.40604 0.0
H1204 H 0.24501 0.8805 0.38477 0.0
H1205 H 0.20283 0.89904 0.34244 0.0
H1206 H 0.25631 0.95302 0.27091 0.0
H1207 H 0.23278 0.92928 0.33501 0.0
H1208 H 0.25238 0.8879 0.29371 0.0
H1209 H 0.27644 0.91195 0.23166 0.0
C1210 C 0.21682 0.86538 0.42387 0.0
C1211 C 0.19814 0.86372 0.43109 0.0
C1212 C 0.23059 0.87933 0.3882 0.0
C1213 C 0.22594 0.89181 0.35827 0.0
C1214 C 0.20714 0.88999 0.36535 0.0
C1215 C 0.19347 0.87621 0.40155 0.0
C1216 C 0.25563 0.93888 0.27576 0.0
C1217 C 0.26833 0.93443 0.24639 0.0
C1218 C 0.24201 0.92517 0.31226 0.0
C1219 C 0.24058 0.90657 0.31977 0.0
C1220 C 0.25326 0.90216 0.28999 0.0
C1221 C 0.26702 0.91594 0.25405 0.0
H1222 H 0.25539 0.3679 0.40704 0.0
H1223 H 0.27424 0.42866 0.44806 0.0
H1224 H 0.23169 0.36774 0.34288 0.0
H1225 H 0.24993 0.42829 0.38577 0.0
H1226 H 0.21818 0.42813 0.23272 0.0
H1227 H 0.24243 0.42831 0.29472 0.0
H1228 H 0.20137 0.36719 0.33536 0.0
H1229 H 0.17749 0.36681 0.27136 0.0
C1230 C 0.25438 0.3812 0.40256 0.0
C1231 C 0.26675 0.39831 0.43246 0.0
C1232 C 0.24065 0.38107 0.36602 0.0
C1233 C 0.23876 0.39798 0.35899 0.0
C1234 C 0.25115 0.41509 0.38919 0.0
C1235 C 0.26506 0.41529 0.4252 0.0
C1236 C 0.21433 0.41472 0.25494 0.0
C1237 C 0.19589 0.39745 0.24712 0.0
C1238 C 0.22821 0.41486 0.29084 0.0
C1239 C 0.22394 0.39778 0.32042 0.0
C1240 C 0.20539 0.38053 0.31273 0.0
C1241 C 0.1916 0.38033 0.27627 0.0
H1242 H 0.178 0.36837 0.9067 0.0
H1243 H 0.22012 0.42898 0.9488 0.0
H1244 H 0.20172 0.36815 0.84337 0.0
H1245 H 0.2442 0.42856 0.88734 0.0
H1246 H 0.2759 0.42855 0.73452 0.0
H1247 H 0.25183 0.42871 0.79633 0.0
H1248 H 0.23151 0.36751 0.83649 0.0
H1249 H 0.25505 0.36716 0.77267 0.0
C1250 C 0.1924 0.38162 0.90265 0.0
C1251 C 0.19714 0.39872 0.93257 0.0
C1252 C 0.20609 0.38146 0.86659 0.0
C1253 C 0.22499 0.39832 0.86006 0.0
C1254 C 0.22971 0.4154 0.89037 0.0
C1255 C 0.21592 0.41563 0.9259 0.0
C1256 C 0.26631 0.41512 0.75661 0.0
C1257 C 0.26742 0.39784 0.7487 0.0
C1258 C 0.25255 0.41524 0.7924 0.0
C1259 C 0.23966 0.39814 0.82177 0.0
C1260 C 0.2409 0.38088 0.81403 0.0
C1261 C 0.25452 0.3807 0.77769 0.0
H1262 H 0.70068 0.85562 0.94647 0.0
H1263 H 0.76167 0.87497 0.90614 0.0
H1264 H 0.70093 0.87996 0.88477 0.0
H1265 H 0.76172 0.89872 0.84254 0.0
H1266 H 0.7621 0.95262 0.77123 0.0
H1267 H 0.76194 0.92891 0.83531 0.0
H1268 H 0.70093 0.88738 0.79371 0.0
H1269 H 0.70088 0.91142 0.73169 0.0
C1270 C 0.71408 0.86492 0.92388 0.0
C1271 C 0.73114 0.86334 0.93113 0.0
C1272 C 0.71422 0.87884 0.88822 0.0
C1273 C 0.73134 0.89138 0.85835 0.0
C1274 C 0.74836 0.88963 0.86543 0.0
C1275 C 0.7483 0.87588 0.90163 0.0
C1276 C 0.74864 0.93845 0.77601 0.0
C1277 C 0.73148 0.93396 0.74657 0.0
C1278 C 0.74857 0.92476 0.8125 0.0
C1279 C 0.73142 0.90613 0.8199 0.0
C1280 C 0.71431 0.90167 0.79006 0.0
C1281 C 0.7143 0.91544 0.75415 0.0
H1282 H 0.25661 0.9527 0.9043 0.0
H1283 H 0.27606 0.91122 0.94498 0.0
H1284 H 0.23276 0.92891 0.84085 0.0
H1285 H 0.25162 0.88704 0.88344 0.0
H1286 H 0.21947 0.85502 0.73128 0.0
H1287 H 0.24383 0.8793 0.79261 0.0
H1288 H 0.20252 0.89898 0.83447 0.0
H1289 H 0.1785 0.87525 0.77109 0.0
C1290 C 0.25571 0.93844 0.89985 0.0
C1291 C 0.26829 0.93388 0.92946 0.0
C1292 C 0.2419 0.9247 0.86375 0.0
C1293 C 0.24013 0.90594 0.85689 0.0
C1294 C 0.25275 0.90143 0.88674 0.0
C1295 C 0.26674 0.91527 0.9223 0.0
C1296 C 0.21557 0.86452 0.75365 0.0
C1297 C 0.19703 0.86319 0.74634 0.0
C1298 C 0.22953 0.8784 0.78915 0.0
C1299 C 0.22522 0.89116 0.81883 0.0
C1300 C 0.20656 0.88969 0.81172 0.0
C1301 C 0.19269 0.87596 0.77565 0.0
H1302 H 0.42847 0.27374 0.77976 0.0
H1303 H 0.36725 0.25334 0.73918 0.0
H1304 H 0.42862 0.24944 0.71882 0.0
H1305 H 0.36761 0.22959 0.67619 0.0
H1306 H 0.36813 0.17603 0.60641 0.0
H1307 H 0.368 0.1997 0.67004 0.0
H1308 H 0.42877 0.24176 0.62798 0.0
H1309 H 0.42911 0.2177 0.56627 0.0
C1310 C 0.41509 0.2642 0.75732 0.0
C1311 C 0.39785 0.2655 0.76426 0.0
C1312 C 0.4152 0.2503 0.72204 0.0
C1313 C 0.39815 0.23749 0.69223 0.0
C1314 C 0.38093 0.23892 0.69904 0.0
C1315 C 0.38075 0.25266 0.73489 0.0
C1316 C 0.38149 0.19031 0.61103 0.0
C1317 C 0.39865 0.19496 0.58149 0.0
C1318 C 0.38138 0.20398 0.64723 0.0
C1319 C 0.39835 0.22276 0.65425 0.0
C1320 C 0.41552 0.22735 0.62454 0.0
C1321 C 0.41571 0.21358 0.58888 0.0
H1322 H 0.87535 0.17719 0.73833 0.0
H1323 H 0.85517 0.21815 0.7784 0.0
H1324 H 0.89919 0.20121 0.67535 0.0
H1325 H 0.87955 0.2425 0.7175 0.0
H1326 H 0.91139 0.27471 0.56547 0.0
H1327 H 0.88724 0.25029 0.62682 0.0
H1328 H 0.92917 0.23139 0.66881 0.0
H1329 H 0.95295 0.25524 0.60546 0.0
C1330 C 0.87609 0.19138 0.73393 0.0
C1331 C 0.86329 0.1957 0.76316 0.0
C1332 C 0.88989 0.20525 0.69808 0.0
C1333 C 0.8914 0.2239 0.69111 0.0
C1334 C 0.87862 0.22821 0.72081 0.0
C1335 C 0.86468 0.21425 0.75607 0.0
C1336 C 0.91547 0.26538 0.58796 0.0
C1337 C 0.9341 0.26694 0.58066 0.0
C1338 C 0.90164 0.2514 0.62343 0.0
C1339 C 0.90617 0.23879 0.65311 0.0
C1340 C 0.92494 0.24054 0.64607 0.0
C1341 C 0.93868 0.25435 0.61003 0.0
H1342 H 0.94142 0.76175 0.77708 0.0
H1343 H 0.92245 0.70093 0.7365 0.0
H1344 H 0.91701 0.76133 0.7151 0.0
H1345 H 0.89863 0.70071 0.67263 0.0
H1346 H 0.84431 0.69987 0.60188 0.0
H1347 H 0.86828 0.70024 0.66559 0.0
H1348 H 0.90947 0.76123 0.62402 0.0
H1349 H 0.88516 0.76107 0.56234 0.0
C1350 C 0.9322 0.74836 0.75436 0.0
C1351 C 0.93388 0.73139 0.76165 0.0
C1352 C 0.91823 0.74813 0.71854 0.0
C1353 C 0.90577 0.73098 0.68856 0.0
C1354 C 0.90765 0.71407 0.69561 0.0
C1355 C 0.92144 0.71423 0.73196 0.0
C1356 C 0.85847 0.71337 0.60655 0.0
C1357 C 0.86278 0.73046 0.57726 0.0
C1358 C 0.87231 0.71356 0.64283 0.0
C1359 C 0.89091 0.73077 0.65016 0.0
C1360 C 0.89521 0.74781 0.62041 0.0
C1361 C 0.88128 0.74769 0.58471 0.0
H1362 H 0.88592 0.76165 0.27703 0.0
H1363 H 0.84428 0.70074 0.23635 0.0
H1364 H 0.90999 0.76142 0.21516 0.0
H1365 H 0.86798 0.70072 0.17258 0.0
H1366 H 0.92163 0.70028 0.10198 0.0
H1367 H 0.89795 0.70047 0.16559 0.0
H1368 H 0.91754 0.76141 0.12417 0.0
H1369 H 0.94177 0.76143 0.06259 0.0
C1370 C 0.88181 0.74828 0.25431 0.0
C1371 C 0.86318 0.73122 0.26155 0.0
C1372 C 0.8956 0.74816 0.21855 0.0
C1373 C 0.89101 0.73105 0.18856 0.0
C1374 C 0.87224 0.71406 0.19556 0.0
C1375 C 0.85856 0.7141 0.23186 0.0
C1376 C 0.92091 0.71373 0.10667 0.0
C1377 C 0.93365 0.73086 0.07743 0.0
C1378 C 0.9072 0.71381 0.14288 0.0
C1379 C 0.90572 0.73096 0.15023 0.0
C1380 C 0.91844 0.74804 0.12056 0.0
C1381 C 0.9323 0.74803 0.0849 0.0
H1382 H 0.36753 0.17646 0.23927 0.0
H1383 H 0.4286 0.21792 0.27955 0.0
H1384 H 0.36762 0.20016 0.17523 0.0
H1385 H 0.42848 0.24193 0.21758 0.0
H1386 H 0.42887 0.27358 0.06452 0.0
H1387 H 0.42861 0.24932 0.12646 0.0
H1388 H 0.36767 0.23027 0.16761 0.0
H1389 H 0.36774 0.25397 0.10376 0.0
C1390 C 0.38094 0.19068 0.23467 0.0
C1391 C 0.39808 0.19524 0.26428 0.0
C1392 C 0.38096 0.20437 0.19821 0.0
C1393 C 0.39806 0.22305 0.19098 0.0
C1394 C 0.41515 0.22759 0.22106 0.0
C1395 C 0.41519 0.21383 0.25695 0.0
C1396 C 0.41543 0.26424 0.08692 0.0
C1397 C 0.39834 0.26573 0.07929 0.0
C1398 C 0.4153 0.25035 0.12273 0.0
C1399 C 0.39813 0.23776 0.15239 0.0
C1400 C 0.38107 0.23941 0.14492 0.0
C1401 C 0.38114 0.25313 0.10857 0.0
H1402 H 0.95238 0.25437 0.23938 0.0
H1403 H 0.91102 0.27407 0.27951 0.0
H1404 H 0.92864 0.23088 0.17503 0.0
H1405 H 0.88696 0.25006 0.21717 0.0
H1406 H 0.8554 0.21906 0.06344 0.0
H1407 H 0.87969 0.24296 0.12577 0.0
H1408 H 0.89839 0.20088 0.16726 0.0
H1409 H 0.87466 0.17735 0.10308 0.0
C1410 C 0.93817 0.25359 0.2347 0.0
C1411 C 0.93365 0.26616 0.26436 0.0
C1412 C 0.92446 0.24001 0.19805 0.0
C1413 C 0.90579 0.23848 0.19067 0.0
C1414 C 0.90128 0.25101 0.2208 0.0
C1415 C 0.91507 0.26474 0.25689 0.0
C1416 C 0.86467 0.2149 0.08599 0.0
C1417 C 0.86308 0.1963 0.07838 0.0
C1418 C 0.87857 0.22859 0.12202 0.0
C1419 C 0.89107 0.22392 0.15188 0.0
C1420 C 0.88932 0.20519 0.14441 0.0
C1421 C 0.87559 0.19161 0.10787 0.0
H1422 H 0.0759 0.67401 0.41649 0.0
H1423 H 0.11276 0.70486 0.27991 0.0
H1424 H 0.09199 0.7047 0.46823 0.0
H1425 H 0.1288 0.73549 0.33192 0.0
H1426 H 0.13392 0.78981 0.4234 0.0
H1427 H 0.11925 0.75916 0.37141 0.0
H1428 H 0.12529 0.72826 0.50745 0.0
H1429 H 0.13994 0.75882 0.55965 0.0
C1430 C 0.08747 0.68728 0.3975 0.0
C1431 C 0.09299 0.68691 0.34392 0.0
C1432 C 0.09676 0.70485 0.4273 0.0
C1433 C 0.11164 0.72251 0.40412 0.0
C1434 C 0.11724 0.72215 0.3507 0.0
C1435 C 0.1081 0.70455 0.32103 0.0
C1436 C 0.13221 0.77652 0.44226 0.0
C1437 C 0.13811 0.77684 0.49583 0.0
C1438 C 0.12389 0.75897 0.41232 0.0
C1439 C 0.12108 0.74129 0.43538 0.0
C1440 C 0.12708 0.7416 0.48876 0.0
C1441 C 0.13557 0.75918 0.51856 0.0
H1442 H 0.45629 0.46551 0.41648 0.0
H1443 H 0.4248 0.47118 0.28068 0.0
H1444 H 0.42573 0.45088 0.4689 0.0
H1445 H 0.39434 0.45657 0.33333 0.0
H1446 H 0.34027 0.40762 0.42545 0.0
H1447 H 0.37084 0.42347 0.37312 0.0
H1448 H 0.40221 0.46053 0.50873 0.0
H1449 H 0.37172 0.44475 0.56132 0.0
C1450 C 0.4429 0.46372 0.3978 0.0
C1451 C 0.44305 0.46953 0.34424 0.0
C1452 C 0.42541 0.45541 0.42798 0.0
C1453 C 0.40763 0.45255 0.40521 0.0
C1454 C 0.40777 0.45841 0.35181 0.0
C1455 C 0.42528 0.46688 0.32176 0.0
C1456 C 0.35365 0.4192 0.44416 0.0
C1457 C 0.35348 0.42486 0.49771 0.0
C1458 C 0.37115 0.42834 0.41402 0.0
C1459 C 0.38893 0.44322 0.43684 0.0
C1460 C 0.38878 0.44897 0.49023 0.0
C1461 C 0.37125 0.43997 0.52023 0.0
H1462 H 0.73193 0.01408 0.45314 0.0
H1463 H 0.67577 0.97507 0.52951 0.0
H1464 H 0.71635 0.02972 0.403 0.0
H1465 H 0.66019 0.99034 0.47783 0.0
H1466 H 0.64133 0.00959 0.3147 0.0
H1467 H 0.65624 0.99376 0.36674 0.0
H1468 H 0.69708 0.05002 0.43888 0.0
H1469 H 0.68179 0.06588 0.38831 0.0
C1470 C 0.71625 0.0087 0.45889 0.0
C1471 C 0.70509 0.99328 0.49533 0.0
C1472 C 0.7074 0.01773 0.43039 0.0
C1473 C 0.68714 0.0112 0.43677 0.0
C1474 C 0.67585 0.99557 0.47224 0.0
C1475 C 0.68479 0.98686 0.50176 0.0
C1476 C 0.65337 0.01859 0.34191 0.0
C1477 C 0.66031 0.039 0.34745 0.0
C1478 C 0.66186 0.0095 0.37167 0.0
C1479 C 0.67779 0.02073 0.40651 0.0
C1480 C 0.68483 0.04111 0.41202 0.0
C1481 C 0.67602 0.05012 0.38327 0.0
H1482 H 0.6734 0.07275 0.09298 0.0
H1483 H 0.70407 0.11263 0.22489 0.0
H1484 H 0.704 0.0886 0.04043 0.0
H1485 H 0.73449 0.1283 0.17233 0.0
H1486 H 0.78934 0.13339 0.08505 0.0
H1487 H 0.75855 0.11847 0.13642 0.0
H1488 H 0.72708 0.12182 0.9977 0.0
H1489 H 0.75783 0.13679 0.94608 0.0
C1490 C 0.6866 0.0849 0.11076 0.0
C1491 C 0.68622 0.09135 0.16328 0.0
C1492 C 0.7041 0.09403 0.08053 0.0
C1493 C 0.72165 0.10965 0.10235 0.0
C1494 C 0.72126 0.11616 0.15466 0.0
C1495 C 0.70375 0.10721 0.18465 0.0
C1496 C 0.7759 0.13103 0.06545 0.0
C1497 C 0.77612 0.13632 0.01136 0.0
C1498 C 0.75827 0.12255 0.095 0.0
C1499 C 0.74041 0.11896 0.07105 0.0
C1500 C 0.74059 0.12424 0.01706 0.0
C1501 C 0.75826 0.13294 0.98764 0.0
H1502 H 0.99187 0.68476 0.94713 0.0
H1503 H 0.99815 0.72226 0.08252 0.0
H1504 H 0.0065 0.66893 0.99973 0.0
H1505 H 0.01283 0.70635 0.13493 0.0
H1506 H 0.01907 0.65848 0.2273 0.0
H1507 H 0.00319 0.67321 0.17513 0.0
H1508 H 0.03977 0.67863 0.03874 0.0
H1509 H 0.0557 0.6639 0.09061 0.0
C1510 C 0.9963 0.68962 0.98812 0.0
C1511 C 0.99384 0.70484 0.01049 0.0
C1512 C 0.00479 0.68059 0.01814 0.0
C1513 C 0.01085 0.68642 0.0714 0.0
C1514 C 0.00814 0.70142 0.09411 0.0
C1515 C 0.99982 0.7106 0.06394 0.0
C1516 C 0.02372 0.66274 0.18614 0.0
C1517 C 0.03871 0.65999 0.16324 0.0
C1518 C 0.01467 0.67128 0.15637 0.0
C1519 C 0.02025 0.6771 0.10288 0.0
C1520 C 0.03503 0.67413 0.07973 0.0
C1521 C 0.04422 0.66576 0.1096 0.0
H1522 H 0.44476 0.37034 0.94851 0.0
H1523 H 0.40797 0.3396 0.0853 0.0
H1524 H 0.4606 0.40107 1.0 0.0
H1525 H 0.4239 0.37043 0.13658 0.0
H1526 H 0.472 0.42498 0.22691 0.0
H1527 H 0.45729 0.39426 0.17543 0.0
H1528 H 0.45075 0.42464 0.03891 0.0
H1529 H 0.46547 0.45546 0.09019 0.0
C1530 C 0.44007 0.37008 0.98957 0.0
C1531 C 0.42504 0.35244 0.01268 0.0
C1532 C 0.4491 0.38775 0.01894 0.0
C1533 C 0.44347 0.38818 0.07227 0.0
C1534 C 0.42867 0.37052 0.09569 0.0
C1535 C 0.41949 0.35287 0.06618 0.0
C1536 C 0.46751 0.42519 0.18586 0.0
C1537 C 0.46993 0.44276 0.16278 0.0
C1538 C 0.45897 0.40752 0.1565 0.0
C1539 C 0.45283 0.40702 0.10318 0.0
C1540 C 0.4555 0.42461 0.07978 0.0
C1541 C 0.46386 0.44225 0.1093 0.0
H1542 H 0.97647 0.36486 0.47484 0.0
H1543 H 0.01349 0.34684 0.55896 0.0
H1544 H 0.99178 0.39592 0.52562 0.0
H1545 H 0.02921 0.37826 0.60802 0.0
H1546 H 0.06644 0.44919 0.62063 0.0
H1547 H 0.05063 0.4181 0.56975 0.0
H1548 H 0.99397 0.40308 0.63849 0.0
H1549 H 0.00974 0.43374 0.69087 0.0
C1550 C 0.98783 0.36747 0.50406 0.0
C1551 C 0.99366 0.35327 0.51298 0.0
C1552 C 0.99657 0.38525 0.53302 0.0
C1553 C 0.01167 0.3894 0.57037 0.0
C1554 C 0.01764 0.37537 0.57915 0.0
C1555 C 0.00856 0.35737 0.55123 0.0
C1556 C 0.05061 0.43931 0.62481 0.0
C1557 C 0.03935 0.44398 0.65984 0.0
C1558 C 0.04162 0.42152 0.59587 0.0
C1559 C 0.02114 0.40832 0.60038 0.0
C1560 C 0.00979 0.41311 0.63433 0.0
C1561 C 0.01884 0.43065 0.6643 0.0
H1562 H 0.7048 0.65769 0.7263 0.0
H1563 H 0.67362 0.6638 0.59046 0.0
H1564 H 0.73534 0.67229 0.67392 0.0
H1565 H 0.70423 0.67842 0.53834 0.0
H1566 H 0.75816 0.68446 0.44602 0.0
H1567 H 0.72765 0.66866 0.4985 0.0
H1568 H 0.75902 0.70549 0.63447 0.0
H1569 H 0.78961 0.72136 0.58222 0.0
C1570 C 0.7044 0.66207 0.68527 0.0
C1571 C 0.68669 0.65956 0.66269 0.0
C1572 C 0.72196 0.67055 0.65538 0.0
C1573 C 0.7222 0.67653 0.60206 0.0
C1574 C 0.70447 0.67379 0.57919 0.0
C1575 C 0.68695 0.66549 0.6092 0.0
C1576 C 0.75862 0.68918 0.48715 0.0
C1577 C 0.7764 0.70424 0.5098 0.0
C1578 C 0.74109 0.68018 0.5171 0.0
C1579 C 0.74092 0.68585 0.57056 0.0
C1580 C 0.75872 0.70068 0.59351 0.0
C1581 C 0.77623 0.70983 0.56342 0.0
H1582 H 0.45422 0.15356 0.4776 0.0
H1583 H 0.39859 0.11519 0.55727 0.0
H1584 H 0.46998 0.13826 0.52821 0.0
H1585 H 0.41434 0.09956 0.60651 0.0
H1586 H 0.44743 0.0629 0.6262 0.0
H1587 H 0.43198 0.07848 0.57498 0.0
H1588 H 0.47603 0.13584 0.63475 0.0
H1589 H 0.4912 0.12037 0.68708 0.0
C1590 C 0.44535 0.14191 0.50586 0.0
C1591 C 0.42515 0.13569 0.51354 0.0
C1592 C 0.45439 0.13317 0.53477 0.0
C1593 C 0.44332 0.11771 0.57095 0.0
C1594 C 0.42314 0.11138 0.57852 0.0
C1595 C 0.41419 0.12042 0.55056 0.0
C1596 C 0.45388 0.07884 0.62823 0.0
C1597 C 0.47056 0.09039 0.66075 0.0
C1598 C 0.44498 0.0877 0.59918 0.0
C1599 C 0.45284 0.10832 0.60111 0.0
C1600 C 0.46975 0.11992 0.63251 0.0
C1601 C 0.47839 0.11104 0.66251 0.0
H1602 H 0.36634 0.97696 0.03414 0.0
H1603 H 0.34772 0.01344 0.95003 0.0
H1604 H 0.39737 0.99242 0.98342 0.0
H1605 H 0.37907 0.02925 0.90068 0.0
H1606 H 0.44887 0.06718 0.88092 0.0
H1607 H 0.41784 0.05146 0.93214 0.0
H1608 H 0.40578 0.994 0.87692 0.0
H1609 H 0.43643 0.00962 0.82461 0.0
C1610 C 0.36881 0.98822 0.00487 0.0
C1611 C 0.35446 0.99386 0.99599 0.0
C1612 C 0.38658 0.99706 0.97591 0.0
C1613 C 0.39057 0.01205 0.93846 0.0
C1614 C 0.37635 0.0178 0.92967 0.0
C1615 C 0.35837 0.00865 0.9577 0.0
C1616 C 0.43965 0.0512 0.8799 0.0
C1617 C 0.44511 0.03965 0.84866 0.0
C1618 C 0.42188 0.04224 0.90893 0.0
C1619 C 0.40949 0.02156 0.90827 0.0
C1620 C 0.41514 0.00997 0.87814 0.0
C1621 C 0.43265 0.01894 0.84814 0.0
H1622 H 0.11319 0.47453 0.78671 0.0
H1623 H 0.07148 0.46314 0.91524 0.0
H1624 H 0.12893 0.46006 0.83999 0.0
H1625 H 0.0874 0.4486 0.96857 0.0
H1626 H 0.13535 0.44306 0.06584 0.0
H1627 H 0.12017 0.45873 0.01439 0.0
H1628 H 0.11958 0.42626 0.87325 0.0
H1629 H 0.13472 0.41058 0.9243 0.0
C1630 C 0.10737 0.469 0.82636 0.0
C1631 C 0.09098 0.46998 0.84653 0.0
C1632 C 0.11637 0.46061 0.85679 0.0
C1633 C 0.10936 0.45313 0.90836 0.0
C1634 C 0.09321 0.45438 0.92907 0.0
C1635 C 0.08404 0.46262 0.89838 0.0
C1636 C 0.13206 0.4393 0.02378 0.0
C1637 C 0.1363 0.42556 0.99925 0.0
C1638 C 0.12325 0.4482 0.99445 0.0
C1639 C 0.11868 0.44372 0.93981 0.0
C1640 C 0.1231 0.43015 0.91517 0.0
C1641 C 0.13171 0.42111 0.94455 0.0
H1642 H 0.65828 0.70464 0.78086 0.0
H1643 H 0.66458 0.67372 0.91687 0.0
H1644 H 0.67291 0.73519 0.83303 0.0
H1645 H 0.67924 0.70439 0.96885 0.0
H1646 H 0.68506 0.75847 0.06042 0.0
H1647 H 0.66939 0.72784 0.00841 0.0
H1648 H 0.70613 0.75893 0.87228 0.0
H1649 H 0.72187 0.78963 0.92405 0.0
C1650 C 0.66272 0.7043 0.82189 0.0
C1651 C 0.66025 0.68666 0.84458 0.0
C1652 C 0.67121 0.72187 0.85166 0.0
C1653 C 0.67725 0.72221 0.90498 0.0
C1654 C 0.67456 0.70455 0.92797 0.0
C1655 C 0.66624 0.687 0.89805 0.0
C1656 C 0.68979 0.75884 0.01935 0.0
C1657 C 0.70477 0.77658 0.9965 0.0
C1658 C 0.68086 0.74124 0.98967 0.0
C1659 C 0.68655 0.74097 0.93631 0.0
C1660 C 0.70131 0.75871 0.91318 0.0
C1661 C 0.71039 0.77629 0.94298 0.0
H1662 H 0.7386 0.0065 0.7496 0.0
H1663 H 0.77839 0.03711 0.6177 0.0
H1664 H 0.75434 0.03713 0.80203 0.0
H1665 H 0.79396 0.06757 0.67013 0.0
H1666 H 0.79936 0.12242 0.7577 0.0
H1667 H 0.78418 0.09163 0.70624 0.0
H1668 H 0.7876 0.06016 0.84468 0.0
H1669 H 0.80281 0.09088 0.89636 0.0
C1670 C 0.7507 0.01969 0.73179 0.0
C1671 C 0.75718 0.01929 0.67934 0.0
C1672 C 0.75977 0.03721 0.76194 0.0
C1673 C 0.77534 0.05475 0.74009 0.0
C1674 C 0.78185 0.05434 0.68781 0.0
C1675 C 0.77297 0.03682 0.65791 0.0
C1676 C 0.79695 0.10897 0.77722 0.0
C1677 C 0.80234 0.10918 0.83123 0.0
C1678 C 0.78832 0.09134 0.74763 0.0
C1679 C 0.78469 0.07349 0.77147 0.0
C1680 C 0.79005 0.07366 0.8254 0.0
C1681 C 0.79888 0.09131 0.85486 0.0
H1682 H 0.12369 0.7992 0.75006 0.0
H1683 H 0.09256 0.80458 0.61298 0.0
H1684 H 0.09295 0.78448 0.80171 0.0
H1685 H 0.06191 0.78988 0.66484 0.0
H1686 H 0.00763 0.74087 0.75625 0.0
H1687 H 0.03837 0.75676 0.70465 0.0
H1688 H 0.06918 0.79406 0.8404 0.0
H1689 H 0.03851 0.77824 0.89225 0.0
C1690 C 0.11035 0.79732 0.73093 0.0
C1691 C 0.11066 0.80308 0.67725 0.0
C1692 C 0.09275 0.78897 0.76067 0.0
C1693 C 0.07501 0.786 0.73732 0.0
C1694 C 0.07531 0.7918 0.68378 0.0
C1695 C 0.09292 0.80033 0.65417 0.0
C1696 C 0.02092 0.75251 0.77514 0.0
C1697 C 0.02054 0.75823 0.82852 0.0
C1698 C 0.03852 0.76167 0.74543 0.0
C1699 C 0.0562 0.77664 0.7685 0.0
C1700 C 0.05584 0.78243 0.82171 0.0
C1701 C 0.03821 0.77342 0.85129 0.0
H1702 H 0.32538 0.35159 0.61537 0.0
H1703 H 0.33139 0.38848 0.75197 0.0
H1704 H 0.34002 0.33561 0.66734 0.0
H1705 H 0.34606 0.37244 0.80372 0.0
H1706 H 0.35181 0.32419 0.89494 0.0
H1707 H 0.33619 0.33916 0.84282 0.0
H1708 H 0.37317 0.34494 0.70707 0.0
H1709 H 0.38886 0.32994 0.75898 0.0
C1710 C 0.32976 0.35628 0.65648 0.0
C1711 C 0.32719 0.37137 0.6794 0.0
C1712 C 0.33826 0.34718 0.68614 0.0
C1713 C 0.34422 0.35278 0.73958 0.0
C1714 C 0.34145 0.36768 0.76276 0.0
C1715 C 0.33312 0.37693 0.73297 0.0
C1716 C 0.35661 0.32857 0.85393 0.0
C1717 C 0.37165 0.32585 0.83125 0.0
C1718 C 0.34771 0.33726 0.82419 0.0
C1719 C 0.35347 0.34326 0.7709 0.0
C1720 C 0.36829 0.34031 0.74791 0.0
C1721 C 0.37734 0.33179 0.77779 0.0
H1722 H 0.03905 0.34073 0.39877 0.0
H1723 H 0.00441 0.31547 0.25529 0.0
H1724 H 0.06928 0.35607 0.34601 0.0
H1725 H 0.03472 0.32927 0.20225 0.0
H1726 H 0.09056 0.37108 0.1112 0.0
H1727 H 0.06007 0.35618 0.1634 0.0
H1728 H 0.09244 0.35276 0.30077 0.0
H1729 H 0.12307 0.36937 0.24929 0.0
C1730 C 0.038 0.33821 0.35582 0.0
C1731 C 0.01945 0.32697 0.33102 0.0
C1732 C 0.0554 0.34685 0.32536 0.0
C1733 C 0.05476 0.34395 0.26935 0.0
C1734 C 0.03603 0.33236 0.24486 0.0
C1735 C 0.01858 0.32425 0.27525 0.0
C1736 C 0.09102 0.36713 0.15267 0.0
C1737 C 0.10907 0.37142 0.17647 0.0
C1738 C 0.07349 0.35839 0.18269 0.0
C1739 C 0.07349 0.35313 0.23688 0.0
C1740 C 0.09168 0.35702 0.25991 0.0
C1741 C 0.1093 0.36638 0.23032 0.0
H1742 H 0.79874 0.74058 0.25593 0.0
H1743 H 0.80527 0.77772 0.3924 0.0
H1744 H 0.78398 0.75661 0.20451 0.0
H1745 H 0.79052 0.79367 0.34075 0.0
H1746 H 0.74126 0.79904 0.25042 0.0
H1747 H 0.75717 0.78417 0.30189 0.0
H1748 H 0.79376 0.78987 0.16526 0.0
H1749 H 0.77792 0.80472 0.11358 0.0
C1750 C 0.79712 0.75219 0.27496 0.0
C1751 C 0.8032 0.75782 0.32841 0.0
C1752 C 0.78874 0.76143 0.24536 0.0
C1753 C 0.78606 0.77637 0.26863 0.0
C1754 C 0.79221 0.78207 0.32192 0.0
C1755 C 0.80076 0.77297 0.35138 0.0
C1756 C 0.75274 0.79721 0.23132 0.0
C1757 C 0.75826 0.80309 0.17775 0.0
C1758 C 0.76192 0.78876 0.26095 0.0
C1759 C 0.77669 0.78583 0.23758 0.0
C1760 C 0.78228 0.79177 0.18418 0.0
C1761 C 0.77325 0.80038 0.15469 0.0
H1762 H 0.32686 0.03822 0.11462 0.0
H1763 H 0.33272 0.00689 0.25027 0.0
H1764 H 0.34204 0.0688 0.16671 0.0
H1765 H 0.34785 0.0376 0.30233 0.0
H1766 H 0.35254 0.09158 0.39308 0.0
H1767 H 0.33735 0.06109 0.34071 0.0
H1768 H 0.37577 0.09223 0.20735 0.0
H1769 H 0.39117 0.12288 0.25973 0.0
C1770 C 0.33132 0.0378 0.15557 0.0
C1771 C 0.32854 0.02003 0.17822 0.0
C1772 C 0.34014 0.05538 0.18525 0.0
C1773 C 0.34616 0.05559 0.23849 0.0
C1774 C 0.34322 0.03784 0.26144 0.0
C1775 C 0.33462 0.02027 0.23154 0.0
C1776 C 0.35778 0.09202 0.35257 0.0
C1777 C 0.37312 0.10975 0.33068 0.0
C1778 C 0.34912 0.07448 0.32273 0.0
C1779 C 0.35541 0.07427 0.27006 0.0
C1780 C 0.37055 0.09199 0.24778 0.0
C1781 C 0.3794 0.10953 0.27787 0.0
loop_
_geom_bond_atom_site_label_1
_geom_bond_atom_site_label_2
_geom_bond_distance
_geom_bond_site_symmetry_2
_ccdc_geom_bond_type
Co0 O2 2.143 . S
Co0 O8 2.074 . S
Co0 O11 2.093 . S
Co0 O24 2.097 . S
Co0 N41 2.151 . S
Co0 N49 2.214 . S
Co1 O2 2.160 . S
Co1 O7 2.058 . S
Co1 O17 2.057 . S
Co1 O32 2.037 . S
Co1 N36 2.145 . S
Co1 N57 2.257 . S
O2 Co0 2.143 . S
O2 Co1 2.160 . S
C3 O4 1.278 . S
C3 O11 1.224 . S
O4 C3 1.278 . S
C5 O6 1.245 . S
C5 O17 1.232 . S
O6 C5 1.245 . S
O7 Co1 2.058 . S
O7 C33 1.269 . S
O8 Co0 2.074 . S
O8 C33 1.257 . S
H9 C34 0.930 . S
H10 C40 0.930 . S
O11 Co0 2.093 . S
O11 C3 1.224 . S
H12 C44 0.929 . S
H13 C46 0.930 . S
H14 C47 0.930 . S
H15 C45 0.929 . S
H16 C48 0.928 . S
O17 Co1 2.057 . S
O17 C5 1.232 . S
H18 C37 0.929 . S
H19 C38 0.929 . S
H20 C50 0.931 . S
H21 C42 0.929 . S
H22 C51 0.930 . S
H23 C43 0.931 . S
O24 Co0 2.097 . S
O24 C52 1.214 . S
H25 C53 0.929 . S
H26 C54 0.929 . S
H27 C55 0.930 . S
H28 C56 0.929 . S
H29 C58 0.930 . S
H30 C35 0.930 . S
H31 C39 0.963 . S
O32 Co1 2.037 . S
O32 C52 1.234 . S
C33 O7 1.269 . S
C33 O8 1.257 . S
C34 H9 0.930 . S
C34 C37 1.388 . S
C34 C39 1.413 1_455 S
C35 H30 0.930 . S
C35 C38 1.404 . S
C35 C39 1.326 1_455 S
N36 Co1 2.145 . S
N36 C37 1.397 . S
N36 C38 1.334 . S
C37 H18 0.929 . S
C37 C34 1.388 . S
C37 N36 1.397 . S
C38 H19 0.929 . S
C38 C35 1.404 . S
C38 N36 1.334 . S
C39 H31 0.963 . S
C39 C34 1.413 1_655 S
C39 C35 1.326 1_655 S
C40 H10 0.930 . S
C40 N41 1.330 . S
C40 C42 1.446 . S
N41 Co0 2.151 . S
N41 C40 1.330 . S
N41 C45 1.418 . S
C42 H21 0.929 . S
C42 C40 1.446 . S
C42 C43 1.332 . S
C43 H23 0.931 . S
C43 C42 1.332 . S
C43 C44 1.267 . S
C44 H12 0.929 . S
C44 C43 1.267 . S
C44 C45 1.251 . S
C45 H15 0.929 . S
C45 N41 1.418 . S
C45 C44 1.251 . S
C46 H13 0.930 . S
C46 C48 1.406 . S
C46 C51 1.261 . S
C47 H14 0.930 . S
C47 N49 1.325 . S
C47 C50 1.357 . S
C48 H16 0.928 . S
C48 C46 1.406 . S
C48 N49 1.261 . S
N49 Co0 2.214 . S
N49 C47 1.325 . S
N49 C48 1.261 . S
C50 H20 0.931 . S
C50 C47 1.357 . S
C50 C51 1.312 . S
C51 H22 0.930 . S
C51 C46 1.261 . S
C51 C50 1.312 . S
C52 O24 1.214 . S
C52 O32 1.234 . S
C53 H25 0.929 . S
C53 C56 1.391 1_455 S
C53 C58 1.391 . S
C54 H26 0.929 . S
C54 C55 1.390 1_455 S
C54 N57 1.391 . S
C55 H27 0.930 . S
C55 C54 1.390 1_655 S
C55 C56 1.392 . S
C56 H28 0.929 . S
C56 C53 1.391 1_655 S
C56 C55 1.392 . S
N57 Co1 2.257 . S
N57 C54 1.391 . S
N57 C58 1.388 . S
C58 H29 0.930 . S
C58 C53 1.391 . S
C58 N57 1.388 . S
Co59 O61 2.143 . S
Co59 O67 2.074 . S
Co59 O70 2.093 . S
Co59 O83 2.097 . S
Co59 N100 2.151 . S
Co59 N108 2.214 . S
Co60 O61 2.160 . S
Co60 O66 2.058 . S
Co60 O76 2.057 . S
Co60 O91 2.037 . S
Co60 N95 2.145 . S
Co60 N116 2.257 . S
O61 Co59 2.143 . S
O61 Co60 2.160 . S
C62 O63 1.278 . S
C62 O70 1.224 . S
O63 C62 1.278 . S
C64 O65 1.245 . S
C64 O76 1.232 . S
O65 C64 1.245 . S
O66 Co60 2.058 . S
O66 C92 1.269 . S
O67 Co59 2.074 . S
O67 C92 1.257 . S
H68 C93 0.930 . S
H69 C99 0.930 . S
O70 Co59 2.093 . S
O70 C62 1.224 . S
H71 C103 0.929 . S
H72 C105 0.930 . S
H73 C106 0.930 . S
H74 C104 0.929 . S
H75 C107 0.928 . S
O76 Co60 2.057 . S
O76 C64 1.232 . S
H77 C96 0.929 . S
H78 C97 0.929 . S
H79 C109 0.931 . S
H80 C101 0.929 . S
H81 C110 0.930 . S
H82 C102 0.931 . S
O83 Co59 2.097 . S
O83 C111 1.214 . S
H84 C112 0.929 . S
H85 C113 0.929 . S
H86 C114 0.930 . S
H87 C115 0.929 . S
H88 C117 0.930 . S
H89 C94 0.930 . S
H90 C98 0.930 . S
O91 Co60 2.037 . S
O91 C111 1.234 . S
C92 O66 1.269 . S
C92 O67 1.257 . S
C93 H68 0.930 . S
C93 C96 1.388 . S
C93 C98 1.418 . S
C94 H89 0.930 . S
C94 C97 1.404 . S
C94 C98 1.353 . S
N95 Co60 2.145 . S
N95 C96 1.397 . S
N95 C97 1.334 . S
C96 H77 0.929 . S
C96 C93 1.388 . S
C96 N95 1.397 . S
C97 H78 0.929 . S
C97 C94 1.404 . S
C97 N95 1.334 . S
C98 H90 0.930 . S
C98 C93 1.418 . S
C98 C94 1.353 . S
C99 H69 0.930 . S
C99 N100 1.330 . S
C99 C101 1.446 . S
N100 Co59 2.151 . S
N100 C99 1.330 . S
N100 C104 1.418 . S
C101 H80 0.929 . S
C101 C99 1.446 . S
C101 C102 1.332 . S
C102 H82 0.931 . S
C102 C101 1.332 . S
C102 C103 1.267 . S
C103 H71 0.929 . S
C103 C102 1.267 . S
C103 C104 1.251 . S
C104 H74 0.929 . S
C104 N100 1.418 . S
C104 C103 1.251 . S
C105 H72 0.930 . S
C105 C107 1.406 . S
C105 C110 1.261 . S
C106 H73 0.930 . S
C106 N108 1.325 . S
C106 C109 1.357 . S
C107 H75 0.928 . S
C107 C105 1.406 . S
C107 N108 1.261 . S
N108 Co59 2.214 . S
N108 C106 1.325 . S
N108 C107 1.261 . S
C109 H79 0.931 . S
C109 C106 1.357 . S
C109 C110 1.312 . S
C110 H81 0.930 . S
C110 C105 1.261 . S
C110 C109 1.312 . S
C111 O83 1.214 . S
C111 O91 1.234 . S
C112 H84 0.929 . S
C112 C115 1.391 . S
C112 C117 1.391 . S
C113 H85 0.929 . S
C113 C114 1.390 . S
C113 N116 1.391 . S
C114 H86 0.930 . S
C114 C113 1.390 . S
C114 C115 1.392 . S
C115 H87 0.929 . S
C115 C112 1.391 . S
C115 C114 1.392 . S
N116 Co60 2.257 . S
N116 C113 1.391 . S
N116 C117 1.388 . S
C117 H88 0.930 . S
C117 C112 1.391 . S
C117 N116 1.388 . S
Co118 O120 2.143 . S
Co118 O126 2.074 . S
Co118 O129 2.093 . S
Co118 O142 2.097 . S
Co118 N159 2.151 . S
Co118 N167 2.214 . S
Co119 O120 2.160 . S
Co119 O125 2.058 . S
Co119 O135 2.057 . S
Co119 O150 2.037 . S
Co119 N154 2.145 . S
Co119 N175 2.257 . S
O120 Co118 2.143 . S
O120 Co119 2.160 . S
C121 O122 1.278 . S
C121 O129 1.224 . S
O122 C121 1.278 . S
C123 O124 1.245 . S
C123 O135 1.232 . S
O124 C123 1.245 . S
O125 Co119 2.058 . S
O125 C151 1.269 . S
O126 Co118 2.074 . S
O126 C151 1.257 . S
H127 C152 0.930 . S
H128 C158 0.930 . S
O129 Co118 2.093 . S
O129 C121 1.224 . S
H130 C162 0.929 . S
H131 C164 0.930 1_565 S
H132 C165 0.930 . S
H133 C163 0.945 1_545 S
H134 C166 0.928 . S
O135 Co119 2.057 . S
O135 C123 1.232 . S
H136 C155 0.929 . S
H137 C156 0.929 . S
H138 C168 0.931 . S
H139 C160 0.929 . S
H140 C169 0.930 . S
H141 C161 0.931 . S
O142 Co118 2.097 . S
O142 C170 1.214 . S
H143 C171 0.929 . S
H144 C172 0.929 . S
H145 C173 0.930 . S
H146 C174 0.929 . S
H147 C176 0.930 . S
H148 C153 0.930 . S
H149 C157 0.930 . S
O150 Co119 2.037 . S
O150 C170 1.234 . S
C151 O125 1.269 . S
C151 O126 1.257 . S
C152 H127 0.930 . S
C152 C155 1.388 . S
C152 C157 1.418 . S
C153 H148 0.930 . S
C153 C156 1.404 . S
C153 C157 1.353 . S
N154 Co119 2.145 . S
N154 C155 1.397 . S
N154 C156 1.334 . S
C155 H136 0.929 . S
C155 C152 1.388 . S
C155 N154 1.397 . S
C156 H137 0.929 . S
C156 C153 1.404 . S
C156 N154 1.334 . S
C157 H149 0.930 . S
C157 C152 1.418 . S
C157 C153 1.353 . S
C158 H128 0.930 . S
C158 N159 1.330 . S
C158 C160 1.446 1_545 S
N159 Co118 2.151 . S
N159 C158 1.330 . S
N159 C163 1.413 1_545 S
C160 H139 0.929 . S
C160 C158 1.446 1_565 S
C160 C161 1.332 . S
C161 H141 0.931 . S
C161 C160 1.332 . S
C161 C162 1.267 . S
C162 H130 0.929 . S
C162 C161 1.267 . S
C162 C163 1.254 . S
C163 H133 0.945 1_565 S
C163 N159 1.413 1_565 S
C163 C162 1.254 . S
C164 H131 0.930 1_545 S
C164 C166 1.406 . S
C164 C169 1.261 . S
C165 H132 0.930 . S
C165 N167 1.325 . S
C165 C168 1.357 . S
C166 H134 0.928 . S
C166 C164 1.406 . S
C166 N167 1.261 . S
N167 Co118 2.214 . S
N167 C165 1.325 . S
N167 C166 1.261 . S
C168 H138 0.931 . S
C168 C165 1.357 . S
C168 C169 1.312 . S
C169 H140 0.930 . S
C169 C164 1.261 . S
C169 C168 1.312 . S
C170 O142 1.214 . S
C170 O150 1.234 . S
C171 H143 0.929 . S
C171 C174 1.391 . S
C171 C176 1.391 . S
C172 H144 0.929 . S
C172 C173 1.390 . S
C172 N175 1.391 . S
C173 H145 0.930 . S
C173 C172 1.390 . S
C173 C174 1.392 . S
C174 H146 0.929 . S
C174 C171 1.391 . S
C174 C173 1.392 . S
N175 Co119 2.257 . S
N175 C172 1.391 . S
N175 C176 1.388 . S
C176 H147 0.930 . S
C176 C171 1.391 . S
C176 N175 1.388 . S
Co177 O179 2.143 . S
Co177 O185 2.074 . S
Co177 O188 2.093 . S
Co177 O201 2.097 . S
Co177 N218 2.151 . S
Co177 N226 2.214 . S
Co178 O179 2.160 . S
Co178 O184 2.058 . S
Co178 O194 2.057 . S
Co178 O209 2.037 . S
Co178 N213 2.145 . S
Co178 N234 2.257 . S
O179 Co177 2.143 . S
O179 Co178 2.160 . S
C180 O181 1.278 . S
C180 O188 1.224 . S
O181 C180 1.278 . S
C182 O183 1.245 . S
C182 O194 1.232 . S
O183 C182 1.245 . S
O184 Co178 2.058 . S
O184 C210 1.269 . S
O185 Co177 2.074 . S
O185 C210 1.257 . S
H186 C211 0.930 . S
H187 C217 0.930 . S
O188 Co177 2.093 . S
O188 C180 1.224 . S
H189 C221 0.929 . S
H190 C223 0.930 1_655 S
H191 C224 0.930 . S
H192 C222 0.903 . S
H193 C225 0.928 . S
O194 Co178 2.057 . S
O194 C182 1.232 . S
H195 C214 0.929 . S
H196 C215 0.929 . S
H197 C227 0.931 . S
H198 C219 0.929 . S
H199 C228 0.930 . S
H200 C220 0.931 . S
O201 Co177 2.097 . S
O201 C229 1.214 . S
H202 C230 0.929 . S
H203 C231 0.929 . S
H204 C232 0.930 . S
H205 C233 0.929 . S
H206 C235 0.930 . S
H207 C212 0.930 . S
H208 C216 0.930 . S
O209 Co178 2.037 . S
O209 C229 1.234 . S
C210 O184 1.269 . S
C210 O185 1.257 . S
C211 H186 0.930 . S
C211 C214 1.388 . S
C211 C216 1.418 . S
C212 H207 0.930 . S
C212 C215 1.404 . S
C212 C216 1.353 . S
N213 Co178 2.145 . S
N213 C214 1.397 . S
N213 C215 1.334 . S
C214 H195 0.929 . S
C214 C211 1.388 . S
C214 N213 1.397 . S
C215 H196 0.929 . S
C215 C212 1.404 . S
C215 N213 1.334 . S
C216 H208 0.930 . S
C216 C211 1.418 . S
C216 C212 1.353 . S
C217 H187 0.930 . S
C217 N218 1.330 . S
C217 C219 1.446 1_455 S
N218 Co177 2.151 . S
N218 C217 1.330 . S
N218 C222 1.398 1_455 S
C219 H198 0.929 . S
C219 C217 1.446 1_655 S
C219 C220 1.332 . S
C220 H200 0.931 . S
C220 C219 1.332 . S
C220 C221 1.267 . S
C221 H189 0.929 . S
C221 C220 1.267 . S
C221 C222 1.293 . S
C222 H192 0.903 . S
C222 N218 1.398 1_655 S
C222 C221 1.293 . S
C223 H190 0.930 1_455 S
C223 C225 1.406 . S
C223 C228 1.261 . S
C224 H191 0.930 . S
C224 N226 1.325 . S
C224 C227 1.357 . S
C225 H193 0.928 . S
C225 C223 1.406 . S
C225 N226 1.261 . S
N226 Co177 2.214 . S
N226 C224 1.325 . S
N226 C225 1.261 . S
C227 H197 0.931 . S
C227 C224 1.357 . S
C227 C228 1.312 . S
C228 H199 0.930 . S
C228 C223 1.261 . S
C228 C227 1.312 . S
C229 O201 1.214 . S
C229 O209 1.234 . S
C230 H202 0.929 . S
C230 C233 1.391 . S
C230 C235 1.391 . S
C231 H203 0.929 . S
C231 C232 1.390 . S
C231 N234 1.391 . S
C232 H204 0.930 . S
C232 C231 1.390 . S
C232 C233 1.392 . S
C233 H205 0.929 . S
C233 C230 1.391 . S
C233 C232 1.392 . S
N234 Co178 2.257 . S
N234 C231 1.391 . S
N234 C235 1.388 . S
C235 H206 0.930 . S
C235 C230 1.391 . S
C235 N234 1.388 . S
Co236 O238 2.143 . S
Co236 O244 2.074 . S
Co236 O247 2.093 . S
Co236 O260 2.097 . S
Co236 N277 2.151 . S
Co236 N285 2.214 . S
Co237 O238 2.160 . S
Co237 O243 2.058 . S
Co237 O253 2.057 . S
Co237 O268 2.037 . S
Co237 N272 2.145 . S
Co237 N293 2.257 . S
O238 Co236 2.143 . S
O238 Co237 2.160 . S
C239 O240 1.278 . S
C239 O247 1.224 . S
O240 C239 1.278 . S
C241 O242 1.245 . S
C241 O253 1.232 . S
O242 C241 1.245 . S
O243 Co237 2.058 . S
O243 C269 1.269 . S
O244 Co236 2.074 . S
O244 C269 1.257 . S
H245 C270 0.930 . S
H246 C276 0.930 . S
O247 Co236 2.093 . S
O247 C239 1.224 . S
H248 C280 0.929 . S
H249 C282 0.930 . S
H250 C283 0.930 . S
H251 C281 0.929 . S
H252 C284 0.928 . S
O253 Co237 2.057 . S
O253 C241 1.232 . S
H254 C273 0.929 . S
H255 C274 0.929 . S
H256 C286 0.931 . S
H257 C278 0.929 . S
H258 C287 0.930 . S
H259 C279 0.931 . S
O260 Co236 2.097 . S
O260 C288 1.214 . S
H261 C289 0.929 . S
H262 C290 0.929 . S
H263 C291 0.930 . S
H264 C292 0.929 . S
H265 C294 0.930 . S
H266 C271 0.930 . S
H267 C275 0.930 . S
O268 Co237 2.037 . S
O268 C288 1.234 . S
C269 O243 1.269 . S
C269 O244 1.257 . S
C270 H245 0.930 . S
C270 C273 1.388 . S
C270 C275 1.418 . S
C271 H266 0.930 . S
C271 C274 1.404 . S
C271 C275 1.353 . S
N272 Co237 2.145 . S
N272 C273 1.397 . S
N272 C274 1.334 . S
C273 H254 0.929 . S
C273 C270 1.388 . S
C273 N272 1.397 . S
C274 H255 0.929 . S
C274 C271 1.404 . S
C274 N272 1.334 . S
C275 H267 0.930 . S
C275 C270 1.418 . S
C275 C271 1.353 . S
C276 H246 0.930 . S
C276 N277 1.330 . S
C276 C278 1.446 . S
N277 Co236 2.151 . S
N277 C276 1.330 . S
N277 C281 1.418 . S
C278 H257 0.929 . S
C278 C276 1.446 . S
C278 C279 1.332 . S
C279 H259 0.931 . S
C279 C278 1.332 . S
C279 C280 1.267 . S
C280 H248 0.929 . S
C280 C279 1.267 . S
C280 C281 1.251 . S
C281 H251 0.929 . S
C281 N277 1.418 . S
C281 C280 1.251 . S
C282 H249 0.930 . S
C282 C284 1.406 . S
C282 C287 1.261 . S
C283 H250 0.930 . S
C283 N285 1.325 . S
C283 C286 1.357 . S
C284 H252 0.928 . S
C284 C282 1.406 . S
C284 N285 1.261 . S
N285 Co236 2.214 . S
N285 C283 1.325 . S
N285 C284 1.261 . S
C286 H256 0.931 . S
C286 C283 1.357 . S
C286 C287 1.312 . S
C287 H258 0.930 . S
C287 C282 1.261 . S
C287 C286 1.312 . S
C288 O260 1.214 . S
C288 O268 1.234 . S
C289 H261 0.929 . S
C289 C292 1.391 . S
C289 C294 1.391 . S
C290 H262 0.929 . S
C290 C291 1.390 . S
C290 N293 1.391 . S
C291 H263 0.930 . S
C291 C290 1.390 . S
C291 C292 1.392 . S
C292 H264 0.929 . S
C292 C289 1.391 . S
C292 C291 1.392 . S
N293 Co237 2.257 . S
N293 C290 1.391 . S
N293 C294 1.388 . S
C294 H265 0.930 . S
C294 C289 1.391 . S
C294 N293 1.388 . S
Co295 O297 2.143 . S
Co295 O303 2.074 . S
Co295 O306 2.093 . S
Co295 O319 2.097 . S
Co295 N336 2.151 . S
Co295 N344 2.214 . S
Co296 O297 2.160 . S
Co296 O302 2.058 . S
Co296 O312 2.057 . S
Co296 O327 2.037 . S
Co296 N331 2.145 . S
Co296 N352 2.257 . S
O297 Co295 2.143 . S
O297 Co296 2.160 . S
C298 O299 1.278 . S
C298 O306 1.224 . S
O299 C298 1.278 . S
C300 O301 1.245 . S
C300 O312 1.232 . S
O301 C300 1.245 . S
O302 Co296 2.058 . S
O302 C328 1.269 . S
O303 Co295 2.074 . S
O303 C328 1.257 . S
H304 C329 0.930 . S
H305 C335 0.930 . S
O306 Co295 2.093 . S
O306 C298 1.224 . S
H307 C339 0.929 . S
H308 C341 0.930 . S
H309 C342 0.930 . S
H310 C340 0.929 . S
H311 C343 0.928 . S
O312 Co296 2.057 . S
O312 C300 1.232 . S
H313 C332 0.929 . S
H314 C333 0.929 . S
H315 C345 0.931 . S
H316 C337 0.929 . S
H317 C346 0.930 . S
H318 C338 0.931 . S
O319 Co295 2.097 . S
O319 C347 1.214 . S
H320 C348 0.929 . S
H321 C349 0.929 . S
H322 C350 0.930 . S
H323 C351 0.929 . S
H324 C353 0.930 . S
H325 C330 0.930 . S
H326 C334 0.930 . S
O327 Co296 2.037 . S
O327 C347 1.234 . S
C328 O302 1.269 . S
C328 O303 1.257 . S
C329 H304 0.930 . S
C329 C332 1.388 . S
C329 C334 1.418 1_545 S
C330 H325 0.930 . S
C330 C333 1.404 . S
C330 C334 1.353 1_545 S
N331 Co296 2.145 . S
N331 C332 1.397 . S
N331 C333 1.334 . S
C332 H313 0.929 . S
C332 C329 1.388 . S
C332 N331 1.397 . S
C333 H314 0.929 . S
C333 C330 1.404 . S
C333 N331 1.334 . S
C334 H326 0.930 . S
C334 C329 1.418 1_565 S
C334 C330 1.353 1_565 S
C335 H305 0.930 . S
C335 N336 1.330 . S
C335 C337 1.446 . S
N336 Co295 2.151 . S
N336 C335 1.330 . S
N336 C340 1.418 . S
C337 H316 0.929 . S
C337 C335 1.446 . S
C337 C338 1.332 . S
C338 H318 0.931 . S
C338 C337 1.332 . S
C338 C339 1.267 . S
C339 H307 0.929 . S
C339 C338 1.267 . S
C339 C340 1.251 . S
C340 H310 0.929 . S
C340 N336 1.418 . S
C340 C339 1.251 . S
C341 H308 0.930 . S
C341 C343 1.406 . S
C341 C346 1.261 . S
C342 H309 0.930 . S
C342 N344 1.325 . S
C342 C345 1.357 . S
C343 H311 0.928 . S
C343 C341 1.406 . S
C343 N344 1.261 . S
N344 Co295 2.214 . S
N344 C342 1.325 . S
N344 C343 1.261 . S
C345 H315 0.931 . S
C345 C342 1.357 . S
C345 C346 1.312 . S
C346 H317 0.930 . S
C346 C341 1.261 . S
C346 C345 1.312 . S
C347 O319 1.214 . S
C347 O327 1.234 . S
C348 H320 0.929 . S
C348 C351 1.391 1_545 S
C348 C353 1.391 . S
C349 H321 0.929 . S
C349 C350 1.390 1_545 S
C349 N352 1.391 . S
C350 H322 0.930 . S
C350 C349 1.390 1_565 S
C350 C351 1.392 . S
C351 H323 0.929 . S
C351 C348 1.391 1_565 S
C351 C350 1.392 . S
N352 Co296 2.257 . S
N352 C349 1.391 . S
N352 C353 1.388 . S
C353 H324 0.930 . S
C353 C348 1.391 . S
C353 N352 1.388 . S
Co354 O356 2.143 . S
Co354 O362 2.074 . S
Co354 O365 2.093 . S
Co354 O378 2.097 . S
Co354 N395 2.151 . S
Co354 N403 2.214 . S
Co355 O356 2.160 . S
Co355 O361 2.058 . S
Co355 O371 2.057 . S
Co355 O386 2.003 1_565 S
Co355 N390 2.145 1_565 S
Co355 N411 2.257 . S
O356 Co354 2.143 . S
O356 Co355 2.160 . S
C357 O358 1.278 . S
C357 O365 1.224 . S
O358 C357 1.278 . S
C359 O360 1.245 . S
C359 O371 1.232 . S
O360 C359 1.245 . S
O361 Co355 2.058 . S
O361 C387 1.269 . S
O362 Co354 2.074 . S
O362 C387 1.257 . S
H363 C388 0.930 . S
H364 C394 0.930 . S
O365 Co354 2.093 . S
O365 C357 1.224 . S
H366 C398 0.929 . S
H367 C400 0.930 . S
H368 C401 0.930 . S
H369 C399 0.929 . S
H370 C402 0.928 . S
O371 Co355 2.057 . S
O371 C359 1.232 . S
H372 C391 0.929 . S
H373 C392 0.929 . S
H374 C404 0.931 1_545 S
H375 C396 0.929 . S
H376 C405 0.930 . S
H377 C397 0.931 . S
O378 Co354 2.097 . S
O378 C406 1.214 1_565 S
H379 C407 0.929 . S
H380 C408 0.929 1_545 S
H381 C409 0.930 1_545 S
H382 C410 0.929 . S
H383 C412 0.930 . S
H384 C389 0.930 . S
H385 C393 0.930 . S
O386 Co355 2.003 1_545 S
O386 C406 1.245 . S
C387 O361 1.269 . S
C387 O362 1.257 . S
C388 H363 0.930 . S
C388 C391 1.388 . S
C388 C393 1.418 . S
C389 H384 0.930 . S
C389 C392 1.404 1_545 S
C389 C393 1.353 . S
N390 Co355 2.145 1_545 S
N390 C391 1.397 . S
N390 C392 1.334 1_545 S
C391 H372 0.929 . S
C391 C388 1.388 . S
C391 N390 1.397 . S
C392 H373 0.929 . S
C392 C389 1.404 1_565 S
C392 N390 1.334 1_565 S
C393 H385 0.930 . S
C393 C388 1.418 . S
C393 C389 1.353 . S
C394 H364 0.930 . S
C394 N395 1.330 . S
C394 C396 1.446 . S
N395 Co354 2.151 . S
N395 C394 1.330 . S
N395 C399 1.418 . S
C396 H375 0.929 . S
C396 C394 1.446 . S
C396 C397 1.332 . S
C397 H377 0.931 . S
C397 C396 1.332 . S
C397 C398 1.267 . S
C398 H366 0.929 . S
C398 C397 1.267 . S
C398 C399 1.251 . S
C399 H369 0.929 . S
C399 N395 1.418 . S
C399 C398 1.251 . S
C400 H367 0.930 . S
C400 C402 1.406 . S
C400 C405 1.261 . S
C401 H368 0.930 . S
C401 N403 1.325 . S
C401 C404 1.357 . S
C402 H370 0.928 . S
C402 C400 1.406 . S
C402 N403 1.261 . S
N403 Co354 2.214 . S
N403 C401 1.325 . S
N403 C402 1.261 . S
C404 H374 0.931 1_565 S
C404 C401 1.357 . S
C404 C405 1.312 . S
C405 H376 0.930 . S
C405 C400 1.261 . S
C405 C404 1.312 . S
C406 O378 1.214 1_545 S
C406 O386 1.245 . S
C407 H379 0.929 . S
C407 C410 1.391 . S
C407 C412 1.391 . S
C408 H380 0.929 1_565 S
C408 C409 1.390 . S
C408 N411 1.391 . S
C409 H381 0.930 1_565 S
C409 C408 1.390 . S
C409 C410 1.392 . S
C410 H382 0.929 . S
C410 C407 1.391 . S
C410 C409 1.392 . S
N411 Co355 2.257 . S
N411 C408 1.391 . S
N411 C412 1.388 . S
C412 H383 0.930 . S
C412 C407 1.391 . S
C412 N411 1.388 . S
Co413 O415 2.143 . S
Co413 O421 2.074 . S
Co413 O424 2.093 . S
Co413 O437 2.097 . S
Co413 N454 2.151 . S
Co413 N462 2.214 . S
Co414 O415 2.160 . S
Co414 O420 2.058 . S
Co414 O430 2.057 . S
Co414 O445 2.037 . S
Co414 N449 2.145 . S
Co414 N470 2.257 . S
O415 Co413 2.143 . S
O415 Co414 2.160 . S
C416 O417 1.278 . S
C416 O424 1.224 . S
O417 C416 1.278 . S
C418 O419 1.245 . S
C418 O430 1.232 . S
O419 C418 1.245 . S
O420 Co414 2.058 . S
O420 C446 1.269 . S
O421 Co413 2.074 . S
O421 C446 1.257 . S
H422 C447 0.930 . S
H423 C453 0.930 . S
O424 Co413 2.093 . S
O424 C416 1.224 . S
H425 C457 0.929 . S
H426 C459 0.930 . S
H427 C460 0.930 . S
H428 C458 0.929 . S
H429 C461 0.928 . S
O430 Co414 2.057 . S
O430 C418 1.232 . S
H431 C450 0.929 . S
H432 C451 0.929 . S
H433 C463 0.931 . S
H434 C455 0.929 . S
H435 C464 0.930 . S
H436 C456 0.931 . S
O437 Co413 2.097 . S
O437 C465 1.214 . S
H438 C466 0.929 . S
H439 C467 0.929 . S
H440 C468 0.930 . S
H441 C469 0.929 . S
H442 C471 0.930 . S
H443 C448 0.930 . S
H444 C452 0.930 . S
O445 Co414 2.037 . S
O445 C465 1.234 . S
C446 O420 1.269 . S
C446 O421 1.257 . S
C447 H422 0.930 . S
C447 C450 1.388 . S
C447 C452 1.418 . S
C448 H443 0.930 . S
C448 C451 1.404 . S
C448 C452 1.353 . S
N449 Co414 2.145 . S
N449 C450 1.397 . S
N449 C451 1.334 . S
C450 H431 0.929 . S
C450 C447 1.388 . S
C450 N449 1.397 . S
C451 H432 0.929 . S
C451 C448 1.404 . S
C451 N449 1.334 . S
C452 H444 0.930 . S
C452 C447 1.418 . S
C452 C448 1.353 . S
C453 H423 0.930 . S
C453 N454 1.330 . S
C453 C455 1.446 . S
N454 Co413 2.151 . S
N454 C453 1.330 . S
N454 C458 1.418 . S
C455 H434 0.929 . S
C455 C453 1.446 . S
C455 C456 1.332 . S
C456 H436 0.931 . S
C456 C455 1.332 . S
C456 C457 1.267 . S
C457 H425 0.929 . S
C457 C456 1.267 . S
C457 C458 1.251 . S
C458 H428 0.929 . S
C458 N454 1.418 . S
C458 C457 1.251 . S
C459 H426 0.930 . S
C459 C461 1.406 . S
C459 C464 1.261 . S
C460 H427 0.930 . S
C460 N462 1.325 . S
C460 C463 1.357 . S
C461 H429 0.928 . S
C461 C459 1.406 . S
C461 N462 1.261 . S
N462 Co413 2.214 . S
N462 C460 1.325 . S
N462 C461 1.261 . S
C463 H433 0.931 . S
C463 C460 1.357 . S
C463 C464 1.312 . S
C464 H435 0.930 . S
C464 C459 1.261 . S
C464 C463 1.312 . S
C465 O437 1.214 . S
C465 O445 1.234 . S
C466 H438 0.929 . S
C466 C469 1.391 . S
C466 C471 1.391 . S
C467 H439 0.929 . S
C467 C468 1.390 . S
C467 N470 1.391 . S
C468 H440 0.930 . S
C468 C467 1.390 . S
C468 C469 1.392 . S
C469 H441 0.929 . S
C469 C466 1.391 . S
C469 C468 1.392 . S
N470 Co414 2.257 . S
N470 C467 1.391 . S
N470 C471 1.388 . S
C471 H442 0.930 . S
C471 C466 1.391 . S
C471 N470 1.388 . S
Co472 O474 2.143 . S
Co472 O480 2.074 . S
Co472 O483 2.093 . S
Co472 O496 2.097 . S
Co472 N513 2.151 . S
Co472 N521 2.214 . S
Co473 O474 2.160 . S
Co473 O479 2.058 . S
Co473 O489 2.057 . S
Co473 O504 2.037 . S
Co473 N508 2.145 . S
Co473 N529 2.257 . S
O474 Co472 2.143 . S
O474 Co473 2.160 . S
C475 O476 1.278 . S
C475 O483 1.224 . S
O476 C475 1.278 . S
C477 O478 1.245 . S
C477 O489 1.232 . S
O478 C477 1.245 . S
O479 Co473 2.058 . S
O479 C505 1.269 . S
O480 Co472 2.074 . S
O480 C505 1.257 . S
H481 C506 0.930 . S
H482 C512 0.930 . S
O483 Co472 2.093 . S
O483 C475 1.224 . S
H484 C516 0.929 . S
H485 C518 0.930 . S
H486 C519 0.930 . S
H487 C517 0.929 . S
H488 C520 0.928 . S
O489 Co473 2.057 . S
O489 C477 1.232 . S
H490 C509 0.929 . S
H491 C510 0.929 . S
H492 C522 0.931 . S
H493 C514 0.929 . S
H494 C523 0.930 . S
H495 C515 0.931 . S
O496 Co472 2.097 . S
O496 C524 1.214 . S
H497 C525 0.929 . S
H498 C526 0.929 . S
H499 C527 0.930 . S
H500 C528 0.929 . S
H501 C530 0.930 . S
H502 C507 0.930 . S
H503 C511 0.930 . S
O504 Co473 2.037 . S
O504 C524 1.234 . S
C505 O479 1.269 . S
C505 O480 1.257 . S
C506 H481 0.930 . S
C506 C509 1.388 . S
C506 C511 1.418 . S
C507 H502 0.930 . S
C507 C510 1.404 . S
C507 C511 1.353 . S
N508 Co473 2.145 . S
N508 C509 1.397 . S
N508 C510 1.334 . S
C509 H490 0.929 . S
C509 C506 1.388 . S
C509 N508 1.397 . S
C510 H491 0.929 . S
C510 C507 1.404 . S
C510 N508 1.334 . S
C511 H503 0.930 . S
C511 C506 1.418 . S
C511 C507 1.353 . S
C512 H482 0.930 . S
C512 N513 1.330 . S
C512 C514 1.446 . S
N513 Co472 2.151 . S
N513 C512 1.330 . S
N513 C517 1.418 . S
C514 H493 0.929 . S
C514 C512 1.446 . S
C514 C515 1.332 . S
C515 H495 0.931 . S
C515 C514 1.332 . S
C515 C516 1.267 . S
C516 H484 0.929 . S
C516 C515 1.267 . S
C516 C517 1.251 . S
C517 H487 0.929 . S
C517 N513 1.418 . S
C517 C516 1.251 . S
C518 H485 0.930 . S
C518 C520 1.406 . S
C518 C523 1.261 . S
C519 H486 0.930 . S
C519 N521 1.325 . S
C519 C522 1.357 . S
C520 H488 0.928 . S
C520 C518 1.406 . S
C520 N521 1.261 . S
N521 Co472 2.214 . S
N521 C519 1.325 . S
N521 C520 1.261 . S
C522 H492 0.931 . S
C522 C519 1.357 . S
C522 C523 1.312 . S
C523 H494 0.930 . S
C523 C518 1.261 . S
C523 C522 1.312 . S
C524 O496 1.214 . S
C524 O504 1.234 . S
C525 H497 0.929 . S
C525 C528 1.391 . S
C525 C530 1.391 . S
C526 H498 0.929 . S
C526 C527 1.390 . S
C526 N529 1.391 . S
C527 H499 0.930 . S
C527 C526 1.390 . S
C527 C528 1.392 . S
C528 H500 0.929 . S
C528 C525 1.391 . S
C528 C527 1.392 . S
N529 Co473 2.257 . S
N529 C526 1.391 . S
N529 C530 1.388 . S
C530 H501 0.930 . S
C530 C525 1.391 . S
C530 N529 1.388 . S
Co531 O533 2.143 . S
Co531 O539 2.074 . S
Co531 O542 2.093 . S
Co531 O555 2.097 . S
Co531 N572 2.151 . S
Co531 N580 2.214 . S
Co532 O533 2.160 . S
Co532 O538 2.058 . S
Co532 O548 2.057 1_554 S
Co532 O563 2.037 . S
Co532 N567 2.145 1_554 S
Co532 N588 2.257 . S
O533 Co531 2.143 . S
O533 Co532 2.160 . S
C534 O535 1.278 . S
C534 O542 1.224 . S
O535 C534 1.278 . S
C536 O537 1.245 1_556 S
C536 O548 1.232 . S
O537 C536 1.245 1_554 S
O538 Co532 2.058 . S
O538 C564 1.269 . S
O539 Co531 2.074 . S
O539 C564 1.257 . S
H540 C565 0.930 . S
H541 C571 0.930 . S
O542 Co531 2.093 . S
O542 C534 1.224 . S
H543 C575 0.929 . S
H544 C577 0.930 . S
H545 C578 0.930 . S
H546 C576 0.929 . S
H547 C579 0.928 . S
O548 Co532 2.057 1_556 S
O548 C536 1.232 . S
H549 C568 0.929 1_554 S
H550 C569 0.929 . S
H551 C581 0.931 . S
H552 C573 0.929 . S
H553 C582 0.930 . S
H554 C574 0.931 . S
O555 Co531 2.097 . S
O555 C583 1.214 . S
H556 C584 0.929 . S
H557 C585 0.929 . S
H558 C586 0.930 . S
H559 C587 0.929 . S
H560 C589 0.930 . S
H561 C566 0.930 . S
H562 C570 0.930 . S
O563 Co532 2.037 . S
O563 C583 1.234 . S
C564 O538 1.269 . S
C564 O539 1.257 . S
C565 H540 0.930 . S
C565 C568 1.388 . S
C565 C570 1.418 . S
C566 H561 0.930 . S
C566 C569 1.404 . S
C566 C570 1.353 . S
N567 Co532 2.145 1_556 S
N567 C568 1.397 . S
N567 C569 1.334 . S
C568 H549 0.929 1_556 S
C568 C565 1.388 . S
C568 N567 1.397 . S
C569 H550 0.929 . S
C569 C566 1.404 . S
C569 N567 1.334 . S
C570 H562 0.930 . S
C570 C565 1.418 . S
C570 C566 1.353 . S
C571 H541 0.930 . S
C571 N572 1.330 . S
C571 C573 1.446 . S
N572 Co531 2.151 . S
N572 C571 1.330 . S
N572 C576 1.418 . S
C573 H552 0.929 . S
C573 C571 1.446 . S
C573 C574 1.332 . S
C574 H554 0.931 . S
C574 C573 1.332 . S
C574 C575 1.267 . S
C575 H543 0.929 . S
C575 C574 1.267 . S
C575 C576 1.251 . S
C576 H546 0.929 . S
C576 N572 1.418 . S
C576 C575 1.251 . S
C577 H544 0.930 . S
C577 C579 1.406 . S
C577 C582 1.261 . S
C578 H545 0.930 . S
C578 N580 1.325 . S
C578 C581 1.357 . S
C579 H547 0.928 . S
C579 C577 1.406 . S
C579 N580 1.261 . S
N580 Co531 2.214 . S
N580 C578 1.325 . S
N580 C579 1.261 . S
C581 H551 0.931 . S
C581 C578 1.357 . S
C581 C582 1.312 . S
C582 H553 0.930 . S
C582 C577 1.261 . S
C582 C581 1.312 . S
C583 O555 1.214 . S
C583 O563 1.234 . S
C584 H556 0.929 . S
C584 C587 1.391 . S
C584 C589 1.391 . S
C585 H557 0.929 . S
C585 C586 1.390 . S
C585 N588 1.391 . S
C586 H558 0.930 . S
C586 C585 1.390 . S
C586 C587 1.392 . S
C587 H559 0.929 . S
C587 C584 1.391 . S
C587 C586 1.392 . S
N588 Co532 2.257 . S
N588 C585 1.391 . S
N588 C589 1.388 . S
C589 H560 0.930 . S
C589 C584 1.391 . S
C589 N588 1.388 . S
Co590 O592 2.143 . S
Co590 O598 2.074 . S
Co590 O601 2.093 . S
Co590 O614 2.097 . S
Co590 N631 2.151 . S
Co590 N639 2.214 . S
Co591 O592 2.160 . S
Co591 O597 2.058 . S
Co591 O607 2.057 1_554 S
Co591 O622 2.007 1_565 S
Co591 N626 2.145 1_564 S
Co591 N647 2.257 . S
O592 Co590 2.143 . S
O592 Co591 2.160 . S
C593 O594 1.278 . S
C593 O601 1.224 . S
O594 C593 1.278 . S
C595 O596 1.245 1_556 S
C595 O607 1.232 . S
O596 C595 1.245 1_554 S
O597 Co591 2.058 . S
O597 C623 1.269 . S
O598 Co590 2.074 . S
O598 C623 1.257 . S
H599 C624 0.930 . S
H600 C630 0.930 . S
O601 Co590 2.093 . S
O601 C593 1.224 . S
H602 C634 0.929 . S
H603 C636 0.930 . S
H604 C637 0.976 . S
H605 C635 0.929 . S
H606 C638 0.928 . S
O607 Co591 2.057 1_556 S
O607 C595 1.232 . S
H608 C627 0.929 1_554 S
H609 C628 0.929 . S
H610 C640 0.931 1_545 S
H611 C632 0.929 . S
H612 C641 0.930 . S
H613 C633 0.931 . S
O614 Co590 2.097 . S
O614 C642 1.214 1_565 S
H615 C643 0.929 . S
H616 C644 0.929 1_545 S
H617 C645 0.930 1_545 S
H618 C646 0.929 . S
H619 C648 0.930 . S
H620 C625 0.930 . S
H621 C629 0.930 . S
O622 Co591 2.007 1_545 S
O622 C642 1.228 . S
C623 O597 1.269 . S
C623 O598 1.257 . S
C624 H599 0.930 . S
C624 C627 1.388 . S
C624 C629 1.418 . S
C625 H620 0.930 . S
C625 C628 1.404 1_545 S
C625 C629 1.353 . S
N626 Co591 2.145 1_546 S
N626 C627 1.397 . S
N626 C628 1.334 1_545 S
C627 H608 0.929 1_556 S
C627 C624 1.388 . S
C627 N626 1.397 . S
C628 H609 0.929 . S
C628 C625 1.404 1_565 S
C628 N626 1.334 1_565 S
C629 H621 0.930 . S
C629 C624 1.418 . S
C629 C625 1.353 . S
C630 H600 0.930 . S
C630 N631 1.330 . S
C630 C632 1.446 . S
N631 Co590 2.151 . S
N631 C630 1.330 . S
N631 C635 1.418 . S
C632 H611 0.929 . S
C632 C630 1.446 . S
C632 C633 1.332 . S
C633 H613 0.931 . S
C633 C632 1.332 . S
C633 C634 1.267 . S
C634 H602 0.929 . S
C634 C633 1.267 . S
C634 C635 1.251 . S
C635 H605 0.929 . S
C635 N631 1.418 . S
C635 C634 1.251 . S
C636 H603 0.930 . S
C636 C638 1.406 . S
C636 C641 1.261 . S
C637 H604 0.976 . S
C637 N639 1.325 . S
C637 C640 1.357 . S
C638 H606 0.928 . S
C638 C636 1.406 . S
C638 N639 1.261 . S
N639 Co590 2.214 . S
N639 C637 1.325 . S
N639 C638 1.261 . S
C640 H610 0.931 1_565 S
C640 C637 1.357 . S
C640 C641 1.312 . S
C641 H612 0.930 . S
C641 C636 1.261 . S
C641 C640 1.312 . S
C642 O614 1.214 1_545 S
C642 O622 1.228 . S
C643 H615 0.929 . S
C643 C646 1.391 . S
C643 C648 1.391 . S
C644 H616 0.929 1_565 S
C644 C645 1.390 . S
C644 N647 1.391 . S
C645 H617 0.930 1_565 S
C645 C644 1.390 . S
C645 C646 1.392 . S
C646 H618 0.929 . S
C646 C643 1.391 . S
C646 C645 1.392 . S
N647 Co591 2.257 . S
N647 C644 1.391 . S
N647 C648 1.388 . S
C648 H619 0.930 . S
C648 C643 1.391 . S
C648 N647 1.388 . S
Co649 O651 2.143 . S
Co649 O657 2.074 . S
Co649 O660 2.093 . S
Co649 O673 2.097 . S
Co649 N690 2.151 . S
Co649 N698 2.214 . S
Co650 O651 2.160 . S
Co650 O656 2.058 . S
Co650 O666 2.057 1_554 S
Co650 O681 2.037 . S
Co650 N685 2.145 1_554 S
Co650 N706 2.257 . S
O651 Co649 2.143 . S
O651 Co650 2.160 . S
C652 O653 1.278 . S
C652 O660 1.224 . S
O653 C652 1.278 . S
C654 O655 1.245 1_556 S
C654 O666 1.232 . S
O655 C654 1.245 1_554 S
O656 Co650 2.058 . S
O656 C682 1.269 . S
O657 Co649 2.074 . S
O657 C682 1.257 . S
H658 C683 0.930 . S
H659 C689 0.930 . S
O660 Co649 2.093 . S
O660 C652 1.224 . S
H661 C693 0.929 . S
H662 C695 0.930 . S
H663 C696 0.930 . S
H664 C694 0.929 . S
H665 C697 0.928 . S
O666 Co650 2.057 1_556 S
O666 C654 1.232 . S
H667 C686 0.929 1_554 S
H668 C687 0.929 . S
H669 C699 0.931 . S
H670 C691 0.929 . S
H671 C700 0.930 . S
H672 C692 0.931 . S
O673 Co649 2.097 . S
O673 C701 1.214 . S
H674 C702 0.929 . S
H675 C703 0.929 . S
H676 C704 0.930 . S
H677 C705 0.929 . S
H678 C707 0.930 . S
H679 C684 0.930 . S
H680 C688 0.930 . S
O681 Co650 2.037 . S
O681 C701 1.234 . S
C682 O656 1.269 . S
C682 O657 1.257 . S
C683 H658 0.930 . S
C683 C686 1.388 . S
C683 C688 1.418 . S
C684 H679 0.930 . S
C684 C687 1.404 . S
C684 C688 1.353 . S
N685 Co650 2.145 1_556 S
N685 C686 1.397 . S
N685 C687 1.334 . S
C686 H667 0.929 1_556 S
C686 C683 1.388 . S
C686 N685 1.397 . S
C687 H668 0.929 . S
C687 C684 1.404 . S
C687 N685 1.334 . S
C688 H680 0.930 . S
C688 C683 1.418 . S
C688 C684 1.353 . S
C689 H659 0.930 . S
C689 N690 1.330 . S
C689 C691 1.446 . S
N690 Co649 2.151 . S
N690 C689 1.330 . S
N690 C694 1.418 . S
C691 H670 0.929 . S
C691 C689 1.446 . S
C691 C692 1.332 . S
C692 H672 0.931 . S
C692 C691 1.332 . S
C692 C693 1.267 . S
C693 H661 0.929 . S
C693 C692 1.267 . S
C693 C694 1.251 . S
C694 H664 0.929 . S
C694 N690 1.418 . S
C694 C693 1.251 . S
C695 H662 0.930 . S
C695 C697 1.406 . S
C695 C700 1.261 . S
C696 H663 0.930 . S
C696 N698 1.325 . S
C696 C699 1.357 . S
C697 H665 0.928 . S
C697 C695 1.406 . S
C697 N698 1.261 . S
N698 Co649 2.214 . S
N698 C696 1.325 . S
N698 C697 1.261 . S
C699 H669 0.931 . S
C699 C696 1.357 . S
C699 C700 1.312 . S
C700 H671 0.930 . S
C700 C695 1.261 . S
C700 C699 1.312 . S
C701 O673 1.214 . S
C701 O681 1.234 . S
C702 H674 0.929 . S
C702 C705 1.391 . S
C702 C707 1.391 . S
C703 H675 0.929 . S
C703 C704 1.390 . S
C703 N706 1.391 . S
C704 H676 0.930 . S
C704 C703 1.390 . S
C704 C705 1.392 . S
C705 H677 0.929 . S
C705 C702 1.391 . S
C705 C704 1.392 . S
N706 Co650 2.257 . S
N706 C703 1.391 . S
N706 C707 1.388 . S
C707 H678 0.930 . S
C707 C702 1.391 . S
C707 N706 1.388 . S
Co708 O710 2.143 . S
Co708 O716 2.074 . S
Co708 O719 2.093 . S
Co708 O732 2.097 . S
Co708 N749 2.151 . S
Co708 N757 2.214 . S
Co709 O710 2.160 . S
Co709 O715 2.058 . S
Co709 O725 2.057 1_556 S
Co709 O740 2.037 . S
Co709 N744 2.145 1_556 S
Co709 N765 2.257 . S
O710 Co708 2.143 . S
O710 Co709 2.160 . S
C711 O712 1.278 . S
C711 O719 1.224 . S
O712 C711 1.278 . S
C713 O714 1.245 1_554 S
C713 O725 1.232 . S
O714 C713 1.245 1_556 S
O715 Co709 2.058 . S
O715 C741 1.269 . S
O716 Co708 2.074 . S
O716 C741 1.257 . S
H717 C742 0.930 . S
H718 C748 0.930 . S
O719 Co708 2.093 . S
O719 C711 1.224 . S
H720 C752 0.929 . S
H721 C754 0.930 . S
H722 C755 0.930 . S
H723 C753 0.929 . S
H724 C756 0.928 . S
O725 Co709 2.057 1_554 S
O725 C713 1.232 . S
H726 C745 0.929 1_556 S
H727 C746 0.929 . S
H728 C758 0.931 . S
H729 C750 0.929 . S
H730 C759 0.930 . S
H731 C751 0.931 . S
O732 Co708 2.097 . S
O732 C760 1.214 . S
H733 C761 0.929 . S
H734 C762 0.929 . S
H735 C763 0.930 . S
H736 C764 0.929 . S
H737 C766 0.930 . S
H738 C743 0.930 . S
H739 C747 0.930 . S
O740 Co709 2.037 . S
O740 C760 1.234 . S
C741 O715 1.269 . S
C741 O716 1.257 . S
C742 H717 0.930 . S
C742 C745 1.388 . S
C742 C747 1.418 . S
C743 H738 0.930 . S
C743 C746 1.404 . S
C743 C747 1.353 . S
N744 Co709 2.145 1_554 S
N744 C745 1.397 . S
N744 C746 1.334 . S
C745 H726 0.929 1_554 S
C745 C742 1.388 . S
C745 N744 1.397 . S
C746 H727 0.929 . S
C746 C743 1.404 . S
C746 N744 1.334 . S
C747 H739 0.930 . S
C747 C742 1.418 . S
C747 C743 1.353 . S
C748 H718 0.930 . S
C748 N749 1.330 . S
C748 C750 1.446 . S
N749 Co708 2.151 . S
N749 C748 1.330 . S
N749 C753 1.418 . S
C750 H729 0.929 . S
C750 C748 1.446 . S
C750 C751 1.332 . S
C751 H731 0.931 . S
C751 C750 1.332 . S
C751 C752 1.267 . S
C752 H720 0.929 . S
C752 C751 1.267 . S
C752 C753 1.251 . S
C753 H723 0.929 . S
C753 N749 1.418 . S
C753 C752 1.251 . S
C754 H721 0.930 . S
C754 C756 1.406 . S
C754 C759 1.261 . S
C755 H722 0.930 . S
C755 N757 1.325 . S
C755 C758 1.357 . S
C756 H724 0.928 . S
C756 C754 1.406 . S
C756 N757 1.261 . S
N757 Co708 2.214 . S
N757 C755 1.325 . S
N757 C756 1.261 . S
C758 H728 0.931 . S
C758 C755 1.357 . S
C758 C759 1.312 . S
C759 H730 0.930 . S
C759 C754 1.261 . S
C759 C758 1.312 . S
C760 O732 1.214 . S
C760 O740 1.234 . S
C761 H733 0.929 . S
C761 C764 1.391 . S
C761 C766 1.391 . S
C762 H734 0.929 . S
C762 C763 1.390 . S
C762 N765 1.391 . S
C763 H735 0.930 . S
C763 C762 1.390 . S
C763 C764 1.392 . S
C764 H736 0.929 . S
C764 C761 1.391 . S
C764 C763 1.392 . S
N765 Co709 2.257 . S
N765 C762 1.391 . S
N765 C766 1.388 . S
C766 H737 0.930 . S
C766 C761 1.391 . S
C766 N765 1.388 . S
Co767 O769 2.143 . S
Co767 O775 2.074 . S
Co767 O778 2.093 1_556 S
Co767 O791 2.097 . S
Co767 N808 2.151 . S
Co767 N816 2.214 1_556 S
Co768 O769 2.160 . S
Co768 O774 2.058 . S
Co768 O784 2.057 . S
Co768 O799 2.037 . S
Co768 N803 2.145 . S
Co768 N824 2.257 . S
O769 Co767 2.143 . S
O769 Co768 2.160 . S
C770 O771 1.278 1_554 S
C770 O778 1.224 . S
O771 C770 1.278 1_556 S
C772 O773 1.245 . S
C772 O784 1.232 . S
O773 C772 1.245 . S
O774 Co768 2.058 . S
O774 C800 1.269 . S
O775 Co767 2.074 . S
O775 C800 1.257 . S
H776 C801 0.930 . S
H777 C807 0.930 . S
O778 Co767 2.093 1_554 S
O778 C770 1.224 . S
H779 C811 0.929 . S
H780 C813 0.930 . S
H781 C814 0.930 . S
H782 C812 0.929 . S
H783 C815 0.928 . S
O784 Co768 2.057 . S
O784 C772 1.232 . S
H785 C804 0.929 . S
H786 C805 0.929 . S
H787 C817 0.931 . S
H788 C809 0.929 . S
H789 C818 0.930 . S
H790 C810 0.931 . S
O791 Co767 2.097 . S
O791 C819 1.214 . S
H792 C820 0.929 . S
H793 C821 0.929 . S
H794 C822 0.930 . S
H795 C823 0.929 . S
H796 C825 0.930 . S
H797 C802 0.930 . S
H798 C806 0.930 . S
O799 Co768 2.037 . S
O799 C819 1.234 . S
C800 O774 1.269 . S
C800 O775 1.257 . S
C801 H776 0.930 . S
C801 C804 1.388 . S
C801 C806 1.418 . S
C802 H797 0.930 . S
C802 C805 1.404 . S
C802 C806 1.353 . S
N803 Co768 2.145 . S
N803 C804 1.397 . S
N803 C805 1.334 . S
C804 H785 0.929 . S
C804 C801 1.388 . S
C804 N803 1.397 . S
C805 H786 0.929 . S
C805 C802 1.404 . S
C805 N803 1.334 . S
C806 H798 0.930 . S
C806 C801 1.418 . S
C806 C802 1.353 . S
C807 H777 0.930 . S
C807 N808 1.330 . S
C807 C809 1.446 . S
N808 Co767 2.151 . S
N808 C807 1.330 . S
N808 C812 1.418 . S
C809 H788 0.929 . S
C809 C807 1.446 . S
C809 C810 1.332 . S
C810 H790 0.931 . S
C810 C809 1.332 . S
C810 C811 1.267 . S
C811 H779 0.929 . S
C811 C810 1.267 . S
C811 C812 1.251 . S
C812 H782 0.929 . S
C812 N808 1.418 . S
C812 C811 1.251 . S
C813 H780 0.930 . S
C813 C815 1.406 . S
C813 C818 1.261 . S
C814 H781 0.930 . S
C814 N816 1.325 . S
C814 C817 1.357 . S
C815 H783 0.928 . S
C815 C813 1.406 . S
C815 N816 1.261 . S
N816 Co767 2.214 1_554 S
N816 C814 1.325 . S
N816 C815 1.261 . S
C817 H787 0.931 . S
C817 C814 1.357 . S
C817 C818 1.312 . S
C818 H789 0.930 . S
C818 C813 1.261 . S
C818 C817 1.312 . S
C819 O791 1.214 . S
C819 O799 1.234 . S
C820 H792 0.929 . S
C820 C823 1.391 . S
C820 C825 1.391 . S
C821 H793 0.929 . S
C821 C822 1.390 . S
C821 N824 1.391 . S
C822 H794 0.930 . S
C822 C821 1.390 . S
C822 C823 1.392 . S
C823 H795 0.929 . S
C823 C820 1.391 . S
C823 C822 1.392 . S
N824 Co768 2.257 . S
N824 C821 1.391 . S
N824 C825 1.388 . S
C825 H796 0.930 . S
C825 C820 1.391 . S
C825 N824 1.388 . S
Co826 O828 2.143 . S
Co826 O834 2.074 . S
Co826 O837 2.093 . S
Co826 O850 2.097 . S
Co826 N867 2.151 . S
Co826 N875 2.214 . S
Co827 O828 2.160 . S
Co827 O833 2.058 . S
Co827 O843 2.057 1_556 S
Co827 O858 2.016 1_655 S
Co827 N862 2.145 1_656 S
Co827 N883 2.257 . S
O828 Co826 2.143 . S
O828 Co827 2.160 . S
C829 O830 1.278 . S
C829 O837 1.224 . S
O830 C829 1.278 . S
C831 O832 1.245 1_554 S
C831 O843 1.232 . S
O832 C831 1.245 1_556 S
O833 Co827 2.058 . S
O833 C859 1.269 . S
O834 Co826 2.074 . S
O834 C859 1.257 . S
H835 C860 0.930 . S
H836 C866 0.930 . S
O837 Co826 2.093 . S
O837 C829 1.224 . S
H838 C870 0.929 . S
H839 C872 0.930 . S
H840 C873 0.930 . S
H841 C871 0.929 . S
H842 C874 0.928 . S
O843 Co827 2.057 1_554 S
O843 C831 1.232 . S
H844 C863 0.929 1_556 S
H845 C864 0.929 . S
H846 C876 0.931 1_455 S
H847 C868 0.929 . S
H848 C877 0.930 . S
H849 C869 0.931 . S
O850 Co826 2.097 . S
O850 C878 1.214 1_655 S
H851 C879 0.929 . S
H852 C880 0.929 1_455 S
H853 C881 0.930 1_455 S
H854 C882 0.929 . S
H855 C884 0.930 . S
H856 C861 0.930 . S
H857 C865 0.930 . S
O858 Co827 2.016 1_455 S
O858 C878 1.240 . S
C859 O833 1.269 . S
C859 O834 1.257 . S
C860 H835 0.930 . S
C860 C863 1.388 . S
C860 C865 1.418 . S
C861 H856 0.930 . S
C861 C864 1.404 1_455 S
C861 C865 1.353 . S
N862 Co827 2.145 1_454 S
N862 C863 1.397 . S
N862 C864 1.334 1_455 S
C863 H844 0.929 1_554 S
C863 C860 1.388 . S
C863 N862 1.397 . S
C864 H845 0.929 . S
C864 C861 1.404 1_655 S
C864 N862 1.334 1_655 S
C865 H857 0.930 . S
C865 C860 1.418 . S
C865 C861 1.353 . S
C866 H836 0.930 . S
C866 N867 1.330 . S
C866 C868 1.446 . S
N867 Co826 2.151 . S
N867 C866 1.330 . S
N867 C871 1.418 . S
C868 H847 0.929 . S
C868 C866 1.446 . S
C868 C869 1.332 . S
C869 H849 0.931 . S
C869 C868 1.332 . S
C869 C870 1.267 . S
C870 H838 0.929 . S
C870 C869 1.267 . S
C870 C871 1.251 . S
C871 H841 0.929 . S
C871 N867 1.418 . S
C871 C870 1.251 . S
C872 H839 0.930 . S
C872 C874 1.406 . S
C872 C877 1.261 . S
C873 H840 0.930 . S
C873 N875 1.325 . S
C873 C876 1.357 . S
C874 H842 0.928 . S
C874 C872 1.406 . S
C874 N875 1.261 . S
N875 Co826 2.214 . S
N875 C873 1.325 . S
N875 C874 1.261 . S
C876 H846 0.931 1_655 S
C876 C873 1.357 . S
C876 C877 1.312 . S
C877 H848 0.930 . S
C877 C872 1.261 . S
C877 C876 1.312 . S
C878 O850 1.214 1_455 S
C878 O858 1.240 . S
C879 H851 0.929 . S
C879 C882 1.391 . S
C879 C884 1.391 . S
C880 H852 0.929 1_655 S
C880 C881 1.390 . S
C880 N883 1.391 . S
C881 H853 0.930 1_655 S
C881 C880 1.390 . S
C881 C882 1.392 . S
C882 H854 0.929 . S
C882 C879 1.391 . S
C882 C881 1.392 . S
N883 Co827 2.257 . S
N883 C880 1.391 . S
N883 C884 1.388 . S
C884 H855 0.930 . S
C884 C879 1.391 . S
C884 N883 1.388 . S
Co885 O887 2.143 . S
Co885 O893 2.074 . S
Co885 O896 2.093 . S
Co885 O909 2.097 . S
Co885 N926 2.151 . S
Co885 N934 2.214 . S
Co886 O887 2.160 . S
Co886 O892 2.058 . S
Co886 O902 2.057 . S
Co886 O917 2.037 . S
Co886 N921 2.145 . S
Co886 N942 2.257 . S
O887 Co885 2.143 . S
O887 Co886 2.160 . S
C888 O889 1.278 . S
C888 O896 1.224 . S
O889 C888 1.278 . S
C890 O891 1.245 . S
C890 O902 1.232 . S
O891 C890 1.245 . S
O892 Co886 2.058 . S
O892 C918 1.269 . S
O893 Co885 2.074 . S
O893 C918 1.257 . S
H894 C919 0.930 . S
H895 C925 0.930 . S
O896 Co885 2.093 . S
O896 C888 1.224 . S
H897 C929 0.929 . S
H898 C931 0.930 . S
H899 C932 0.930 . S
H900 C930 0.929 . S
H901 C933 0.928 . S
O902 Co886 2.057 . S
O902 C890 1.232 . S
H903 C922 0.929 . S
H904 C923 0.929 . S
H905 C935 0.931 . S
H906 C927 0.929 . S
H907 C936 0.930 . S
H908 C928 0.931 . S
O909 Co885 2.097 . S
O909 C937 1.214 . S
H910 C938 0.929 . S
H911 C939 0.929 . S
H912 C940 0.930 . S
H913 C941 0.929 . S
H914 C943 0.930 . S
H915 C920 0.930 . S
H916 C924 0.930 . S
O917 Co886 2.037 . S
O917 C937 1.234 . S
C918 O892 1.269 . S
C918 O893 1.257 . S
C919 H894 0.930 . S
C919 C922 1.388 . S
C919 C924 1.418 . S
C920 H915 0.930 . S
C920 C923 1.404 . S
C920 C924 1.353 . S
N921 Co886 2.145 . S
N921 C922 1.397 . S
N921 C923 1.334 . S
C922 H903 0.929 . S
C922 C919 1.388 . S
C922 N921 1.397 . S
C923 H904 0.929 . S
C923 C920 1.404 . S
C923 N921 1.334 . S
C924 H916 0.930 . S
C924 C919 1.418 . S
C924 C920 1.353 . S
C925 H895 0.930 . S
C925 N926 1.330 . S
C925 C927 1.446 . S
N926 Co885 2.151 . S
N926 C925 1.330 . S
N926 C930 1.418 . S
C927 H906 0.929 . S
C927 C925 1.446 . S
C927 C928 1.332 . S
C928 H908 0.931 . S
C928 C927 1.332 . S
C928 C929 1.267 . S
C929 H897 0.929 . S
C929 C928 1.267 . S
C929 C930 1.251 . S
C930 H900 0.929 . S
C930 N926 1.418 . S
C930 C929 1.251 . S
C931 H898 0.930 . S
C931 C933 1.406 . S
C931 C936 1.261 . S
C932 H899 0.930 . S
C932 N934 1.325 . S
C932 C935 1.357 . S
C933 H901 0.928 . S
C933 C931 1.406 . S
C933 N934 1.261 . S
N934 Co885 2.214 . S
N934 C932 1.325 . S
N934 C933 1.261 . S
C935 H905 0.931 . S
C935 C932 1.357 . S
C935 C936 1.312 . S
C936 H907 0.930 . S
C936 C931 1.261 . S
C936 C935 1.312 . S
C937 O909 1.214 . S
C937 O917 1.234 . S
C938 H910 0.929 . S
C938 C941 1.391 . S
C938 C943 1.391 . S
C939 H911 0.929 . S
C939 C940 1.390 . S
C939 N942 1.391 . S
C940 H912 0.930 . S
C940 C939 1.390 . S
C940 C941 1.392 . S
C941 H913 0.929 . S
C941 C938 1.391 . S
C941 C940 1.392 . S
N942 Co886 2.257 . S
N942 C939 1.391 . S
N942 C943 1.388 . S
C943 H914 0.930 . S
C943 C938 1.391 . S
C943 N942 1.388 . S
Co944 O946 2.143 . S
Co944 O952 2.074 . S
Co944 O955 2.093 . S
Co944 O968 2.097 . S
Co944 N985 2.151 . S
Co944 N993 2.214 . S
Co945 O946 2.160 . S
Co945 O951 2.058 . S
Co945 O961 2.057 . S
Co945 O976 2.019 1_655 S
Co945 N980 2.145 1_655 S
Co945 N1001 2.257 . S
O946 Co944 2.143 . S
O946 Co945 2.160 . S
C947 O948 1.278 . S
C947 O955 1.224 . S
O948 C947 1.278 . S
C949 O950 1.245 . S
C949 O961 1.232 . S
O950 C949 1.245 . S
O951 Co945 2.058 . S
O951 C977 1.269 . S
O952 Co944 2.074 . S
O952 C977 1.257 . S
H953 C978 0.930 . S
H954 C984 0.930 . S
O955 Co944 2.093 . S
O955 C947 1.224 . S
H956 C988 0.929 . S
H957 C990 0.930 . S
H958 C991 0.930 . S
H959 C989 0.929 . S
H960 C992 0.928 . S
O961 Co945 2.057 . S
O961 C949 1.232 . S
H962 C981 0.929 . S
H963 C982 0.929 . S
H964 C994 0.931 1_455 S
H965 C986 0.929 . S
H966 C995 0.930 . S
H967 C987 0.931 . S
O968 Co944 2.097 . S
O968 C996 1.214 1_655 S
H969 C997 0.929 . S
H970 C998 0.929 1_455 S
H971 C999 0.930 1_455 S
H972 C1000 0.929 . S
H973 C1002 0.930 . S
H974 C979 0.930 . S
H975 C983 0.930 . S
O976 Co945 2.019 1_455 S
O976 C996 1.230 . S
C977 O951 1.269 . S
C977 O952 1.257 . S
C978 H953 0.930 . S
C978 C981 1.388 . S
C978 C983 1.418 . S
C979 H974 0.930 . S
C979 C982 1.404 1_455 S
C979 C983 1.353 . S
N980 Co945 2.145 1_455 S
N980 C981 1.397 . S
N980 C982 1.334 1_455 S
C981 H962 0.929 . S
C981 C978 1.388 . S
C981 N980 1.397 . S
C982 H963 0.929 . S
C982 C979 1.404 1_655 S
C982 N980 1.334 1_655 S
C983 H975 0.930 . S
C983 C978 1.418 . S
C983 C979 1.353 . S
C984 H954 0.930 . S
C984 N985 1.330 . S
C984 C986 1.446 . S
N985 Co944 2.151 . S
N985 C984 1.330 . S
N985 C989 1.418 . S
C986 H965 0.929 . S
C986 C984 1.446 . S
C986 C987 1.332 . S
C987 H967 0.931 . S
C987 C986 1.332 . S
C987 C988 1.267 . S
C988 H956 0.929 . S
C988 C987 1.267 . S
C988 C989 1.251 . S
C989 H959 0.929 . S
C989 N985 1.418 . S
C989 C988 1.251 . S
C990 H957 0.930 . S
C990 C992 1.406 . S
C990 C995 1.261 . S
C991 H958 0.930 . S
C991 N993 1.325 . S
C991 C994 1.357 . S
C992 H960 0.928 . S
C992 C990 1.406 . S
C992 N993 1.261 . S
N993 Co944 2.214 . S
N993 C991 1.325 . S
N993 C992 1.261 . S
C994 H964 0.931 1_655 S
C994 C991 1.357 . S
C994 C995 1.312 . S
C995 H966 0.930 . S
C995 C990 1.261 . S
C995 C994 1.312 . S
C996 O968 1.214 1_455 S
C996 O976 1.230 . S
C997 H969 0.929 . S
C997 C1000 1.391 . S
C997 C1002 1.391 . S
C998 H970 0.929 1_655 S
C998 C999 1.390 . S
C998 N1001 1.391 . S
C999 H971 0.930 1_655 S
C999 C998 1.390 . S
C999 C1000 1.392 . S
C1000 H972 0.929 . S
C1000 C997 1.391 . S
C1000 C999 1.392 . S
N1001 Co945 2.257 . S
N1001 C998 1.391 . S
N1001 C1002 1.388 . S
C1002 H973 0.930 . S
C1002 C997 1.391 . S
C1002 N1001 1.388 . S
Co1003 O1005 2.143 . S
Co1003 O1011 2.074 . S
Co1003 O1014 2.093 . S
Co1003 O1027 2.097 . S
Co1003 N1044 2.151 . S
Co1003 N1052 2.214 . S
Co1004 O1005 2.160 . S
Co1004 O1010 2.058 . S
Co1004 O1020 2.057 . S
Co1004 O1035 2.037 . S
Co1004 N1039 2.145 . S
Co1004 N1060 2.257 . S
O1005 Co1003 2.143 . S
O1005 Co1004 2.160 . S
C1006 O1007 1.278 . S
C1006 O1014 1.224 . S
O1007 C1006 1.278 . S
C1008 O1009 1.245 . S
C1008 O1020 1.232 . S
O1009 C1008 1.245 . S
O1010 Co1004 2.058 . S
O1010 C1036 1.269 . S
O1011 Co1003 2.074 . S
O1011 C1036 1.257 . S
H1012 C1037 0.930 . S
H1013 C1043 0.930 . S
O1014 Co1003 2.093 . S
O1014 C1006 1.224 . S
H1015 C1047 0.929 . S
H1016 C1049 0.930 . S
H1017 C1050 0.930 . S
H1018 C1048 0.929 . S
H1019 C1051 0.928 . S
O1020 Co1004 2.057 . S
O1020 C1008 1.232 . S
H1021 C1040 0.929 . S
H1022 C1041 0.929 . S
H1023 C1053 0.931 . S
H1024 C1045 0.929 . S
H1025 C1054 0.930 . S
H1026 C1046 0.931 . S
O1027 Co1003 2.097 . S
O1027 C1055 1.214 . S
H1028 C1056 0.929 . S
H1029 C1057 0.929 . S
H1030 C1058 0.930 . S
H1031 C1059 0.929 . S
H1032 C1061 0.930 . S
H1033 C1038 0.930 . S
H1034 C1042 0.930 . S
O1035 Co1004 2.037 . S
O1035 C1055 1.234 . S
C1036 O1010 1.269 . S
C1036 O1011 1.257 . S
C1037 H1012 0.930 . S
C1037 C1040 1.388 . S
C1037 C1042 1.418 . S
C1038 H1033 0.930 . S
C1038 C1041 1.404 . S
C1038 C1042 1.353 . S
N1039 Co1004 2.145 . S
N1039 C1040 1.397 . S
N1039 C1041 1.334 . S
C1040 H1021 0.929 . S
C1040 C1037 1.388 . S
C1040 N1039 1.397 . S
C1041 H1022 0.929 . S
C1041 C1038 1.404 . S
C1041 N1039 1.334 . S
C1042 H1034 0.930 . S
C1042 C1037 1.418 . S
C1042 C1038 1.353 . S
C1043 H1013 0.930 . S
C1043 N1044 1.330 . S
C1043 C1045 1.446 . S
N1044 Co1003 2.151 . S
N1044 C1043 1.330 . S
N1044 C1048 1.418 . S
C1045 H1024 0.929 . S
C1045 C1043 1.446 . S
C1045 C1046 1.332 . S
C1046 H1026 0.931 . S
C1046 C1045 1.332 . S
C1046 C1047 1.267 . S
C1047 H1015 0.929 . S
C1047 C1046 1.267 . S
C1047 C1048 1.251 . S
C1048 H1018 0.929 . S
C1048 N1044 1.418 . S
C1048 C1047 1.251 . S
C1049 H1016 0.930 . S
C1049 C1051 1.406 . S
C1049 C1054 1.261 . S
C1050 H1017 0.930 . S
C1050 N1052 1.325 . S
C1050 C1053 1.357 . S
C1051 H1019 0.928 . S
C1051 C1049 1.406 . S
C1051 N1052 1.261 . S
N1052 Co1003 2.214 . S
N1052 C1050 1.325 . S
N1052 C1051 1.261 . S
C1053 H1023 0.931 . S
C1053 C1050 1.357 . S
C1053 C1054 1.312 . S
C1054 H1025 0.930 . S
C1054 C1049 1.261 . S
C1054 C1053 1.312 . S
C1055 O1027 1.214 . S
C1055 O1035 1.234 . S
C1056 H1028 0.929 . S
C1056 C1059 1.391 . S
C1056 C1061 1.391 . S
C1057 H1029 0.929 . S
C1057 C1058 1.390 . S
C1057 N1060 1.391 . S
C1058 H1030 0.930 . S
C1058 C1057 1.390 . S
C1058 C1059 1.392 . S
C1059 H1031 0.929 . S
C1059 C1056 1.391 . S
C1059 C1058 1.392 . S
N1060 Co1004 2.257 . S
N1060 C1057 1.391 . S
N1060 C1061 1.388 . S
C1061 H1032 0.930 . S
C1061 C1056 1.391 . S
C1061 N1060 1.388 . S
H1062 C1070 0.950 . S
H1063 C1075 0.950 . S
H1064 C1072 0.950 . S
H1065 C1074 0.950 . S
H1066 C1076 0.950 . S
H1067 C1078 0.950 . S
H1068 C1080 0.950 . S
H1069 C1081 0.950 . S
C1070 H1062 0.950 . S
C1070 C1071 1.386 . S
C1070 C1072 1.391 . S
C1071 C1070 1.386 . S
C1071 C1075 1.393 . S
C1072 H1064 0.950 . S
C1072 C1070 1.391 . S
C1072 C1073 1.400 . S
C1073 C1072 1.400 . S
C1073 C1074 1.398 . S
C1073 C1079 1.491 1_556 S
C1074 H1065 0.950 . S
C1074 C1073 1.398 . S
C1074 C1075 1.391 . S
C1075 H1063 0.950 . S
C1075 C1071 1.393 . S
C1075 C1074 1.391 . S
C1076 H1066 0.950 . S
C1076 C1077 1.386 . S
C1076 C1078 1.391 . S
C1077 C1076 1.386 . S
C1077 C1081 1.393 . S
C1078 H1067 0.950 . S
C1078 C1076 1.391 . S
C1078 C1079 1.400 . S
C1079 C1073 1.491 1_554 S
C1079 C1078 1.400 . S
C1079 C1080 1.398 . S
C1080 H1068 0.950 . S
C1080 C1079 1.398 . S
C1080 C1081 1.391 . S
C1081 H1069 0.950 . S
C1081 C1077 1.393 . S
C1081 C1080 1.391 . S
H1082 C1090 0.950 . S
H1083 C1095 0.950 . S
H1084 C1092 0.950 . S
H1085 C1094 0.950 . S
H1086 C1096 0.950 . S
H1087 C1098 0.950 . S
H1088 C1100 0.950 . S
H1089 C1101 0.950 . S
C1090 H1082 0.950 . S
C1090 C1091 1.386 . S
C1090 C1092 1.391 . S
C1091 C1090 1.386 . S
C1091 C1095 1.393 . S
C1092 H1084 0.950 . S
C1092 C1090 1.391 . S
C1092 C1093 1.400 . S
C1093 C1092 1.400 . S
C1093 C1094 1.398 . S
C1093 C1099 1.491 1_556 S
C1094 H1085 0.950 . S
C1094 C1093 1.398 . S
C1094 C1095 1.391 . S
C1095 H1083 0.950 . S
C1095 C1091 1.393 . S
C1095 C1094 1.391 . S
C1096 H1086 0.950 . S
C1096 C1097 1.386 . S
C1096 C1098 1.391 . S
C1097 C1096 1.386 . S
C1097 C1101 1.393 . S
C1098 H1087 0.950 . S
C1098 C1096 1.391 . S
C1098 C1099 1.400 . S
C1099 C1093 1.491 1_554 S
C1099 C1098 1.400 . S
C1099 C1100 1.398 . S
C1100 H1088 0.950 . S
C1100 C1099 1.398 . S
C1100 C1101 1.391 . S
C1101 H1089 0.950 . S
C1101 C1097 1.393 . S
C1101 C1100 1.391 . S
H1102 C1110 0.950 . S
H1103 C1115 0.950 . S
H1104 C1112 0.950 . S
H1105 C1114 0.950 1_556 S
H1106 C1116 0.950 . S
H1107 C1118 0.950 . S
H1108 C1120 0.950 1_554 S
H1109 C1121 0.950 . S
C1110 H1102 0.950 . S
C1110 C1111 1.386 . S
C1110 C1112 1.391 . S
C1111 C1110 1.386 . S
C1111 C1115 1.393 . S
C1112 H1104 0.950 . S
C1112 C1110 1.391 . S
C1112 C1113 1.400 . S
C1113 C1112 1.400 . S
C1113 C1114 1.398 . S
C1113 C1119 1.491 1_554 S
C1114 H1105 0.950 1_554 S
C1114 C1113 1.398 . S
C1114 C1115 1.391 . S
C1115 H1103 0.950 . S
C1115 C1111 1.393 . S
C1115 C1114 1.391 . S
C1116 H1106 0.950 . S
C1116 C1117 1.386 . S
C1116 C1118 1.391 . S
C1117 C1116 1.386 . S
C1117 C1121 1.393 . S
C1118 H1107 0.950 . S
C1118 C1116 1.391 . S
C1118 C1119 1.400 . S
C1119 C1113 1.491 1_556 S
C1119 C1118 1.400 . S
C1119 C1120 1.398 . S
C1120 H1108 0.950 1_556 S
C1120 C1119 1.398 . S
C1120 C1121 1.391 . S
C1121 H1109 0.950 . S
C1121 C1117 1.393 . S
C1121 C1120 1.391 . S
H1122 C1130 0.950 . S
H1123 C1135 0.950 . S
H1124 C1132 0.950 . S
H1125 C1134 0.950 . S
H1126 C1136 0.950 . S
H1127 C1138 0.950 . S
H1128 C1140 0.950 . S
H1129 C1141 0.950 . S
C1130 H1122 0.950 . S
C1130 C1131 1.386 . S
C1130 C1132 1.391 . S
C1131 C1130 1.386 . S
C1131 C1135 1.393 . S
C1132 H1124 0.950 . S
C1132 C1130 1.391 . S
C1132 C1133 1.400 . S
C1133 C1132 1.400 . S
C1133 C1134 1.398 . S
C1133 C1139 1.491 . S
C1134 H1125 0.950 . S
C1134 C1133 1.398 . S
C1134 C1135 1.391 . S
C1135 H1123 0.950 . S
C1135 C1131 1.393 . S
C1135 C1134 1.391 . S
C1136 H1126 0.950 . S
C1136 C1137 1.386 . S
C1136 C1138 1.391 . S
C1137 C1136 1.386 . S
C1137 C1141 1.393 . S
C1138 H1127 0.950 . S
C1138 C1136 1.391 . S
C1138 C1139 1.400 . S
C1139 C1133 1.491 . S
C1139 C1138 1.400 . S
C1139 C1140 1.398 . S
C1140 H1128 0.950 . S
C1140 C1139 1.398 . S
C1140 C1141 1.391 . S
C1141 H1129 0.950 . S
C1141 C1137 1.393 . S
C1141 C1140 1.391 . S
H1142 C1150 0.950 . S
H1143 C1155 0.950 . S
H1144 C1152 0.950 . S
H1145 C1154 0.950 . S
H1146 C1156 0.950 . S
H1147 C1158 0.950 . S
H1148 C1160 0.950 . S
H1149 C1161 0.950 . S
C1150 H1142 0.950 . S
C1150 C1151 1.386 . S
C1150 C1152 1.391 . S
C1151 C1150 1.386 . S
C1151 C1155 1.393 . S
C1152 H1144 0.950 . S
C1152 C1150 1.391 . S
C1152 C1153 1.400 . S
C1153 C1152 1.400 . S
C1153 C1154 1.398 . S
C1153 C1159 1.491 . S
C1154 H1145 0.950 . S
C1154 C1153 1.398 . S
C1154 C1155 1.391 . S
C1155 H1143 0.950 . S
C1155 C1151 1.393 . S
C1155 C1154 1.391 . S
C1156 H1146 0.950 . S
C1156 C1157 1.386 . S
C1156 C1158 1.391 . S
C1157 C1156 1.386 . S
C1157 C1161 1.393 . S
C1158 H1147 0.950 . S
C1158 C1156 1.391 . S
C1158 C1159 1.400 . S
C1159 C1153 1.491 . S
C1159 C1158 1.400 . S
C1159 C1160 1.398 . S
C1160 H1148 0.950 . S
C1160 C1159 1.398 . S
C1160 C1161 1.391 . S
C1161 H1149 0.950 . S
C1161 C1157 1.393 . S
C1161 C1160 1.391 . S
H1162 C1170 0.950 . S
H1163 C1175 0.950 . S
H1164 C1172 0.950 . S
H1165 C1174 0.950 . S
H1166 C1176 0.950 . S
H1167 C1178 0.950 . S
H1168 C1180 0.950 . S
H1169 C1181 0.950 . S
C1170 H1162 0.950 . S
C1170 C1171 1.386 . S
C1170 C1172 1.391 . S
C1171 C1170 1.386 . S
C1171 C1175 1.393 . S
C1172 H1164 0.950 . S
C1172 C1170 1.391 . S
C1172 C1173 1.400 . S
C1173 C1172 1.400 . S
C1173 C1174 1.398 . S
C1173 C1179 1.491 . S
C1174 H1165 0.950 . S
C1174 C1173 1.398 . S
C1174 C1175 1.391 . S
C1175 H1163 0.950 . S
C1175 C1171 1.393 . S
C1175 C1174 1.391 . S
C1176 H1166 0.950 . S
C1176 C1177 1.386 . S
C1176 C1178 1.391 . S
C1177 C1176 1.386 . S
C1177 C1181 1.393 . S
C1178 H1167 0.950 . S
C1178 C1176 1.391 . S
C1178 C1179 1.400 . S
C1179 C1173 1.491 . S
C1179 C1178 1.400 . S
C1179 C1180 1.398 . S
C1180 H1168 0.950 . S
C1180 C1179 1.398 . S
C1180 C1181 1.391 . S
C1181 H1169 0.950 . S
C1181 C1177 1.393 . S
C1181 C1180 1.391 . S
H1182 C1190 0.950 . S
H1183 C1195 0.950 . S
H1184 C1192 0.950 . S
H1185 C1194 0.950 . S
H1186 C1196 0.950 . S
H1187 C1198 0.950 . S
H1188 C1200 0.950 . S
H1189 C1201 0.950 . S
C1190 H1182 0.950 . S
C1190 C1191 1.386 . S
C1190 C1192 1.391 . S
C1191 C1190 1.386 . S
C1191 C1195 1.393 . S
C1192 H1184 0.950 . S
C1192 C1190 1.391 . S
C1192 C1193 1.400 . S
C1193 C1192 1.400 . S
C1193 C1194 1.398 . S
C1193 C1199 1.491 . S
C1194 H1185 0.950 . S
C1194 C1193 1.398 . S
C1194 C1195 1.391 . S
C1195 H1183 0.950 . S
C1195 C1191 1.393 . S
C1195 C1194 1.391 . S
C1196 H1186 0.950 . S
C1196 C1197 1.386 . S
C1196 C1198 1.391 . S
C1197 C1196 1.386 . S
C1197 C1201 1.393 . S
C1198 H1187 0.950 . S
C1198 C1196 1.391 . S
C1198 C1199 1.400 . S
C1199 C1193 1.491 . S
C1199 C1198 1.400 . S
C1199 C1200 1.398 . S
C1200 H1188 0.950 . S
C1200 C1199 1.398 . S
C1200 C1201 1.391 . S
C1201 H1189 0.950 . S
C1201 C1197 1.393 . S
C1201 C1200 1.391 . S
H1202 C1210 0.950 . S
H1203 C1215 0.950 . S
H1204 C1212 0.950 . S
H1205 C1214 0.950 . S
H1206 C1216 0.950 . S
H1207 C1218 0.950 . S
H1208 C1220 0.950 . S
H1209 C1221 0.950 . S
C1210 H1202 0.950 . S
C1210 C1211 1.386 . S
C1210 C1212 1.391 . S
C1211 C1210 1.386 . S
C1211 C1215 1.393 . S
C1212 H1204 0.950 . S
C1212 C1210 1.391 . S
C1212 C1213 1.400 . S
C1213 C1212 1.400 . S
C1213 C1214 1.398 . S
C1213 C1219 1.491 . S
C1214 H1205 0.950 . S
C1214 C1213 1.398 . S
C1214 C1215 1.391 . S
C1215 H1203 0.950 . S
C1215 C1211 1.393 . S
C1215 C1214 1.391 . S
C1216 H1206 0.950 . S
C1216 C1217 1.386 . S
C1216 C1218 1.391 . S
C1217 C1216 1.386 . S
C1217 C1221 1.393 . S
C1218 H1207 0.950 . S
C1218 C1216 1.391 . S
C1218 C1219 1.400 . S
C1219 C1213 1.491 . S
C1219 C1218 1.400 . S
C1219 C1220 1.398 . S
C1220 H1208 0.950 . S
C1220 C1219 1.398 . S
C1220 C1221 1.391 . S
C1221 H1209 0.950 . S
C1221 C1217 1.393 . S
C1221 C1220 1.391 . S
H1222 C1230 0.950 . S
H1223 C1235 0.950 . S
H1224 C1232 0.950 . S
H1225 C1234 0.950 . S
H1226 C1236 0.950 . S
H1227 C1238 0.950 . S
H1228 C1240 0.950 . S
H1229 C1241 0.950 . S
C1230 H1222 0.950 . S
C1230 C1231 1.386 . S
C1230 C1232 1.391 . S
C1231 C1230 1.386 . S
C1231 C1235 1.393 . S
C1232 H1224 0.950 . S
C1232 C1230 1.391 . S
C1232 C1233 1.400 . S
C1233 C1232 1.400 . S
C1233 C1234 1.398 . S
C1233 C1239 1.491 . S
C1234 H1225 0.950 . S
C1234 C1233 1.398 . S
C1234 C1235 1.391 . S
C1235 H1223 0.950 . S
C1235 C1231 1.393 . S
C1235 C1234 1.391 . S
C1236 H1226 0.950 . S
C1236 C1237 1.386 . S
C1236 C1238 1.391 . S
C1237 C1236 1.386 . S
C1237 C1241 1.393 . S
C1238 H1227 0.950 . S
C1238 C1236 1.391 . S
C1238 C1239 1.400 . S
C1239 C1233 1.491 . S
C1239 C1238 1.400 . S
C1239 C1240 1.398 . S
C1240 H1228 0.950 . S
C1240 C1239 1.398 . S
C1240 C1241 1.391 . S
C1241 H1229 0.950 . S
C1241 C1237 1.393 . S
C1241 C1240 1.391 . S
H1242 C1250 0.950 . S
H1243 C1255 0.950 . S
H1244 C1252 0.950 . S
H1245 C1254 0.950 . S
H1246 C1256 0.950 . S
H1247 C1258 0.950 . S
H1248 C1260 0.950 . S
H1249 C1261 0.950 . S
C1250 H1242 0.950 . S
C1250 C1251 1.386 . S
C1250 C1252 1.391 . S
C1251 C1250 1.386 . S
C1251 C1255 1.393 . S
C1252 H1244 0.950 . S
C1252 C1250 1.391 . S
C1252 C1253 1.400 . S
C1253 C1252 1.400 . S
C1253 C1254 1.398 . S
C1253 C1259 1.491 . S
C1254 H1245 0.950 . S
C1254 C1253 1.398 . S
C1254 C1255 1.391 . S
C1255 H1243 0.950 . S
C1255 C1251 1.393 . S
C1255 C1254 1.391 . S
C1256 H1246 0.950 . S
C1256 C1257 1.386 . S
C1256 C1258 1.391 . S
C1257 C1256 1.386 . S
C1257 C1261 1.393 . S
C1258 H1247 0.950 . S
C1258 C1256 1.391 . S
C1258 C1259 1.400 . S
C1259 C1253 1.491 . S
C1259 C1258 1.400 . S
C1259 C1260 1.398 . S
C1260 H1248 0.950 . S
C1260 C1259 1.398 . S
C1260 C1261 1.391 . S
C1261 H1249 0.950 . S
C1261 C1257 1.393 . S
C1261 C1260 1.391 . S
H1262 C1270 0.950 . S
H1263 C1275 0.950 . S
H1264 C1272 0.950 . S
H1265 C1274 0.950 . S
H1266 C1276 0.950 . S
H1267 C1278 0.950 . S
H1268 C1280 0.950 . S
H1269 C1281 0.950 . S
C1270 H1262 0.950 . S
C1270 C1271 1.386 . S
C1270 C1272 1.391 . S
C1271 C1270 1.386 . S
C1271 C1275 1.393 . S
C1272 H1264 0.950 . S
C1272 C1270 1.391 . S
C1272 C1273 1.400 . S
C1273 C1272 1.400 . S
C1273 C1274 1.398 . S
C1273 C1279 1.491 . S
C1274 H1265 0.950 . S
C1274 C1273 1.398 . S
C1274 C1275 1.391 . S
C1275 H1263 0.950 . S
C1275 C1271 1.393 . S
C1275 C1274 1.391 . S
C1276 H1266 0.950 . S
C1276 C1277 1.386 . S
C1276 C1278 1.391 . S
C1277 C1276 1.386 . S
C1277 C1281 1.393 . S
C1278 H1267 0.950 . S
C1278 C1276 1.391 . S
C1278 C1279 1.400 . S
C1279 C1273 1.491 . S
C1279 C1278 1.400 . S
C1279 C1280 1.398 . S
C1280 H1268 0.950 . S
C1280 C1279 1.398 . S
C1280 C1281 1.391 . S
C1281 H1269 0.950 . S
C1281 C1277 1.393 . S
C1281 C1280 1.391 . S
H1282 C1290 0.950 . S
H1283 C1295 0.950 . S
H1284 C1292 0.950 . S
H1285 C1294 0.950 . S
H1286 C1296 0.950 . S
H1287 C1298 0.950 . S
H1288 C1300 0.950 . S
H1289 C1301 0.950 . S
C1290 H1282 0.950 . S
C1290 C1291 1.386 . S
C1290 C1292 1.391 . S
C1291 C1290 1.386 . S
C1291 C1295 1.393 . S
C1292 H1284 0.950 . S
C1292 C1290 1.391 . S
C1292 C1293 1.400 . S
C1293 C1292 1.400 . S
C1293 C1294 1.398 . S
C1293 C1299 1.491 . S
C1294 H1285 0.950 . S
C1294 C1293 1.398 . S
C1294 C1295 1.391 . S
C1295 H1283 0.950 . S
C1295 C1291 1.393 . S
C1295 C1294 1.391 . S
C1296 H1286 0.950 . S
C1296 C1297 1.386 . S
C1296 C1298 1.391 . S
C1297 C1296 1.386 . S
C1297 C1301 1.393 . S
C1298 H1287 0.950 . S
C1298 C1296 1.391 . S
C1298 C1299 1.400 . S
C1299 C1293 1.491 . S
C1299 C1298 1.400 . S
C1299 C1300 1.398 . S
C1300 H1288 0.950 . S
C1300 C1299 1.398 . S
C1300 C1301 1.391 . S
C1301 H1289 0.950 . S
C1301 C1297 1.393 . S
C1301 C1300 1.391 . S
H1302 C1310 0.950 . S
H1303 C1315 0.950 . S
H1304 C1312 0.950 . S
H1305 C1314 0.950 . S
H1306 C1316 0.950 . S
H1307 C1318 0.950 . S
H1308 C1320 0.950 . S
H1309 C1321 0.950 . S
C1310 H1302 0.950 . S
C1310 C1311 1.386 . S
C1310 C1312 1.391 . S
C1311 C1310 1.386 . S
C1311 C1315 1.393 . S
C1312 H1304 0.950 . S
C1312 C1310 1.391 . S
C1312 C1313 1.400 . S
C1313 C1312 1.400 . S
C1313 C1314 1.398 . S
C1313 C1319 1.491 . S
C1314 H1305 0.950 . S
C1314 C1313 1.398 . S
C1314 C1315 1.391 . S
C1315 H1303 0.950 . S
C1315 C1311 1.393 . S
C1315 C1314 1.391 . S
C1316 H1306 0.950 . S
C1316 C1317 1.386 . S
C1316 C1318 1.391 . S
C1317 C1316 1.386 . S
C1317 C1321 1.393 . S
C1318 H1307 0.950 . S
C1318 C1316 1.391 . S
C1318 C1319 1.400 . S
C1319 C1313 1.491 . S
C1319 C1318 1.400 . S
C1319 C1320 1.398 . S
C1320 H1308 0.950 . S
C1320 C1319 1.398 . S
C1320 C1321 1.391 . S
C1321 H1309 0.950 . S
C1321 C1317 1.393 . S
C1321 C1320 1.391 . S
H1322 C1330 0.950 . S
H1323 C1335 0.950 . S
H1324 C1332 0.950 . S
H1325 C1334 0.950 . S
H1326 C1336 0.950 . S
H1327 C1338 0.950 . S
H1328 C1340 0.950 . S
H1329 C1341 0.950 . S
C1330 H1322 0.950 . S
C1330 C1331 1.386 . S
C1330 C1332 1.391 . S
C1331 C1330 1.386 . S
C1331 C1335 1.393 . S
C1332 H1324 0.950 . S
C1332 C1330 1.391 . S
C1332 C1333 1.400 . S
C1333 C1332 1.400 . S
C1333 C1334 1.398 . S
C1333 C1339 1.491 . S
C1334 H1325 0.950 . S
C1334 C1333 1.398 . S
C1334 C1335 1.391 . S
C1335 H1323 0.950 . S
C1335 C1331 1.393 . S
C1335 C1334 1.391 . S
C1336 H1326 0.950 . S
C1336 C1337 1.386 . S
C1336 C1338 1.391 . S
C1337 C1336 1.386 . S
C1337 C1341 1.393 . S
C1338 H1327 0.950 . S
C1338 C1336 1.391 . S
C1338 C1339 1.400 . S
C1339 C1333 1.491 . S
C1339 C1338 1.400 . S
C1339 C1340 1.398 . S
C1340 H1328 0.950 . S
C1340 C1339 1.398 . S
C1340 C1341 1.391 . S
C1341 H1329 0.950 . S
C1341 C1337 1.393 . S
C1341 C1340 1.391 . S
H1342 C1350 0.950 . S
H1343 C1355 0.950 . S
H1344 C1352 0.950 . S
H1345 C1354 0.950 . S
H1346 C1356 0.950 . S
H1347 C1358 0.950 . S
H1348 C1360 0.950 . S
H1349 C1361 0.950 . S
C1350 H1342 0.950 . S
C1350 C1351 1.386 . S
C1350 C1352 1.391 . S
C1351 C1350 1.386 . S
C1351 C1355 1.393 . S
C1352 H1344 0.950 . S
C1352 C1350 1.391 . S
C1352 C1353 1.400 . S
C1353 C1352 1.400 . S
C1353 C1354 1.398 . S
C1353 C1359 1.491 . S
C1354 H1345 0.950 . S
C1354 C1353 1.398 . S
C1354 C1355 1.391 . S
C1355 H1343 0.950 . S
C1355 C1351 1.393 . S
C1355 C1354 1.391 . S
C1356 H1346 0.950 . S
C1356 C1357 1.386 . S
C1356 C1358 1.391 . S
C1357 C1356 1.386 . S
C1357 C1361 1.393 . S
C1358 H1347 0.950 . S
C1358 C1356 1.391 . S
C1358 C1359 1.400 . S
C1359 C1353 1.491 . S
C1359 C1358 1.400 . S
C1359 C1360 1.398 . S
C1360 H1348 0.950 . S
C1360 C1359 1.398 . S
C1360 C1361 1.391 . S
C1361 H1349 0.950 . S
C1361 C1357 1.393 . S
C1361 C1360 1.391 . S
H1362 C1370 0.950 . S
H1363 C1375 0.950 . S
H1364 C1372 0.950 . S
H1365 C1374 0.950 . S
H1366 C1376 0.950 . S
H1367 C1378 0.950 . S
H1368 C1380 0.950 . S
H1369 C1381 0.950 . S
C1370 H1362 0.950 . S
C1370 C1371 1.386 . S
C1370 C1372 1.391 . S
C1371 C1370 1.386 . S
C1371 C1375 1.393 . S
C1372 H1364 0.950 . S
C1372 C1370 1.391 . S
C1372 C1373 1.400 . S
C1373 C1372 1.400 . S
C1373 C1374 1.398 . S
C1373 C1379 1.491 . S
C1374 H1365 0.950 . S
C1374 C1373 1.398 . S
C1374 C1375 1.391 . S
C1375 H1363 0.950 . S
C1375 C1371 1.393 . S
C1375 C1374 1.391 . S
C1376 H1366 0.950 . S
C1376 C1377 1.386 . S
C1376 C1378 1.391 . S
C1377 C1376 1.386 . S
C1377 C1381 1.393 . S
C1378 H1367 0.950 . S
C1378 C1376 1.391 . S
C1378 C1379 1.400 . S
C1379 C1373 1.491 . S
C1379 C1378 1.400 . S
C1379 C1380 1.398 . S
C1380 H1368 0.950 . S
C1380 C1379 1.398 . S
C1380 C1381 1.391 . S
C1381 H1369 0.950 . S
C1381 C1377 1.393 . S
C1381 C1380 1.391 . S
H1382 C1390 0.950 . S
H1383 C1395 0.950 . S
H1384 C1392 0.950 . S
H1385 C1394 0.950 . S
H1386 C1396 0.950 . S
H1387 C1398 0.950 . S
H1388 C1400 0.950 . S
H1389 C1401 0.950 . S
C1390 H1382 0.950 . S
C1390 C1391 1.386 . S
C1390 C1392 1.391 . S
C1391 C1390 1.386 . S
C1391 C1395 1.393 . S
C1392 H1384 0.950 . S
C1392 C1390 1.391 . S
C1392 C1393 1.400 . S
C1393 C1392 1.400 . S
C1393 C1394 1.398 . S
C1393 C1399 1.491 . S
C1394 H1385 0.950 . S
C1394 C1393 1.398 . S
C1394 C1395 1.391 . S
C1395 H1383 0.950 . S
C1395 C1391 1.393 . S
C1395 C1394 1.391 . S
C1396 H1386 0.950 . S
C1396 C1397 1.386 . S
C1396 C1398 1.391 . S
C1397 C1396 1.386 . S
C1397 C1401 1.393 . S
C1398 H1387 0.950 . S
C1398 C1396 1.391 . S
C1398 C1399 1.400 . S
C1399 C1393 1.491 . S
C1399 C1398 1.400 . S
C1399 C1400 1.398 . S
C1400 H1388 0.950 . S
C1400 C1399 1.398 . S
C1400 C1401 1.391 . S
C1401 H1389 0.950 . S
C1401 C1397 1.393 . S
C1401 C1400 1.391 . S
H1402 C1410 0.950 . S
H1403 C1415 0.950 . S
H1404 C1412 0.950 . S
H1405 C1414 0.950 . S
H1406 C1416 0.950 . S
H1407 C1418 0.950 . S
H1408 C1420 0.950 . S
H1409 C1421 0.950 . S
C1410 H1402 0.950 . S
C1410 C1411 1.386 . S
C1410 C1412 1.391 . S
C1411 C1410 1.386 . S
C1411 C1415 1.393 . S
C1412 H1404 0.950 . S
C1412 C1410 1.391 . S
C1412 C1413 1.400 . S
C1413 C1412 1.400 . S
C1413 C1414 1.398 . S
C1413 C1419 1.491 . S
C1414 H1405 0.950 . S
C1414 C1413 1.398 . S
C1414 C1415 1.391 . S
C1415 H1403 0.950 . S
C1415 C1411 1.393 . S
C1415 C1414 1.391 . S
C1416 H1406 0.950 . S
C1416 C1417 1.386 . S
C1416 C1418 1.391 . S
C1417 C1416 1.386 . S
C1417 C1421 1.393 . S
C1418 H1407 0.950 . S
C1418 C1416 1.391 . S
C1418 C1419 1.400 . S
C1419 C1413 1.491 . S
C1419 C1418 1.400 . S
C1419 C1420 1.398 . S
C1420 H1408 0.950 . S
C1420 C1419 1.398 . S
C1420 C1421 1.391 . S
C1421 H1409 0.950 . S
C1421 C1417 1.393 . S
C1421 C1420 1.391 . S
H1422 C1430 0.950 . S
H1423 C1435 0.950 . S
H1424 C1432 0.950 . S
H1425 C1434 0.950 . S
H1426 C1436 0.950 . S
H1427 C1438 0.950 . S
H1428 C1440 0.950 . S
H1429 C1441 0.950 . S
C1430 H1422 0.950 . S
C1430 C1431 1.386 . S
C1430 C1432 1.391 . S
C1431 C1430 1.386 . S
C1431 C1435 1.393 . S
C1432 H1424 0.950 . S
C1432 C1430 1.391 . S
C1432 C1433 1.400 . S
C1433 C1432 1.400 . S
C1433 C1434 1.398 . S
C1433 C1439 1.491 . S
C1434 H1425 0.950 . S
C1434 C1433 1.398 . S
C1434 C1435 1.391 . S
C1435 H1423 0.950 . S
C1435 C1431 1.393 . S
C1435 C1434 1.391 . S
C1436 H1426 0.950 . S
C1436 C1437 1.386 . S
C1436 C1438 1.391 . S
C1437 C1436 1.386 . S
C1437 C1441 1.393 . S
C1438 H1427 0.950 . S
C1438 C1436 1.391 . S
C1438 C1439 1.400 . S
C1439 C1433 1.491 . S
C1439 C1438 1.400 . S
C1439 C1440 1.398 . S
C1440 H1428 0.950 . S
C1440 C1439 1.398 . S
C1440 C1441 1.391 . S
C1441 H1429 0.950 . S
C1441 C1437 1.393 . S
C1441 C1440 1.391 . S
H1442 C1450 0.950 . S
H1443 C1455 0.950 . S
H1444 C1452 0.950 . S
H1445 C1454 0.950 . S
H1446 C1456 0.950 . S
H1447 C1458 0.950 . S
H1448 C1460 0.950 . S
H1449 C1461 0.950 . S
C1450 H1442 0.950 . S
C1450 C1451 1.386 . S
C1450 C1452 1.391 . S
C1451 C1450 1.386 . S
C1451 C1455 1.393 . S
C1452 H1444 0.950 . S
C1452 C1450 1.391 . S
C1452 C1453 1.400 . S
C1453 C1452 1.400 . S
C1453 C1454 1.398 . S
C1453 C1459 1.491 . S
C1454 H1445 0.950 . S
C1454 C1453 1.398 . S
C1454 C1455 1.391 . S
C1455 H1443 0.950 . S
C1455 C1451 1.393 . S
C1455 C1454 1.391 . S
C1456 H1446 0.950 . S
C1456 C1457 1.386 . S
C1456 C1458 1.391 . S
C1457 C1456 1.386 . S
C1457 C1461 1.393 . S
C1458 H1447 0.950 . S
C1458 C1456 1.391 . S
C1458 C1459 1.400 . S
C1459 C1453 1.491 . S
C1459 C1458 1.400 . S
C1459 C1460 1.398 . S
C1460 H1448 0.950 . S
C1460 C1459 1.398 . S
C1460 C1461 1.391 . S
C1461 H1449 0.950 . S
C1461 C1457 1.393 . S
C1461 C1460 1.391 . S
H1462 C1470 0.950 . S
H1463 C1475 0.950 . S
H1464 C1472 0.950 . S
H1465 C1474 0.950 . S
H1466 C1476 0.950 . S
H1467 C1478 0.950 1_565 S
H1468 C1480 0.950 . S
H1469 C1481 0.950 . S
C1470 H1462 0.950 . S
C1470 C1471 1.386 1_545 S
C1470 C1472 1.391 . S
C1471 C1470 1.386 1_565 S
C1471 C1475 1.393 . S
C1472 H1464 0.950 . S
C1472 C1470 1.391 . S
C1472 C1473 1.400 . S
C1473 C1472 1.400 . S
C1473 C1474 1.398 1_545 S
C1473 C1479 1.491 . S
C1474 H1465 0.950 . S
C1474 C1473 1.398 1_565 S
C1474 C1475 1.391 . S
C1475 H1463 0.950 . S
C1475 C1471 1.393 . S
C1475 C1474 1.391 . S
C1476 H1466 0.950 . S
C1476 C1477 1.386 . S
C1476 C1478 1.391 . S
C1477 C1476 1.386 . S
C1477 C1481 1.393 . S
C1478 H1467 0.950 1_545 S
C1478 C1476 1.391 . S
C1478 C1479 1.400 . S
C1479 C1473 1.491 . S
C1479 C1478 1.400 . S
C1479 C1480 1.398 . S
C1480 H1468 0.950 . S
C1480 C1479 1.398 . S
C1480 C1481 1.391 . S
C1481 H1469 0.950 . S
C1481 C1477 1.393 . S
C1481 C1480 1.391 . S
H1482 C1490 0.950 . S
H1483 C1495 0.950 . S
H1484 C1492 0.950 . S
H1485 C1494 0.950 . S
H1486 C1496 0.950 . S
H1487 C1498 0.950 . S
H1488 C1500 0.950 1_556 S
H1489 C1501 0.950 . S
C1490 H1482 0.950 . S
C1490 C1491 1.386 . S
C1490 C1492 1.391 . S
C1491 C1490 1.386 . S
C1491 C1495 1.393 . S
C1492 H1484 0.950 . S
C1492 C1490 1.391 . S
C1492 C1493 1.400 . S
C1493 C1492 1.400 . S
C1493 C1494 1.398 . S
C1493 C1499 1.491 . S
C1494 H1485 0.950 . S
C1494 C1493 1.398 . S
C1494 C1495 1.391 . S
C1495 H1483 0.950 . S
C1495 C1491 1.393 . S
C1495 C1494 1.391 . S
C1496 H1486 0.950 . S
C1496 C1497 1.386 1_554 S
C1496 C1498 1.391 . S
C1497 C1496 1.386 1_556 S
C1497 C1501 1.393 . S
C1498 H1487 0.950 . S
C1498 C1496 1.391 . S
C1498 C1499 1.400 . S
C1499 C1493 1.491 . S
C1499 C1498 1.400 . S
C1499 C1500 1.398 . S
C1500 H1488 0.950 1_554 S
C1500 C1499 1.398 . S
C1500 C1501 1.391 1_554 S
C1501 H1489 0.950 . S
C1501 C1497 1.393 . S
C1501 C1500 1.391 1_556 S
H1502 C1510 0.946 1_556 S
H1503 C1515 0.950 . S
H1504 C1512 0.950 . S
H1505 C1514 0.950 . S
H1506 C1516 0.950 . S
H1507 C1518 0.950 . S
H1508 C1520 0.950 1_655 S
H1509 C1521 0.950 . S
C1510 H1502 0.946 1_554 S
C1510 C1511 1.385 1_554 S
C1510 C1512 1.395 . S
C1511 C1510 1.385 1_556 S
C1511 C1515 1.393 1_656 S
C1512 H1504 0.950 . S
C1512 C1510 1.395 . S
C1512 C1513 1.400 1_655 S
C1513 C1512 1.400 1_455 S
C1513 C1514 1.398 . S
C1513 C1519 1.491 . S
C1514 H1505 0.950 . S
C1514 C1513 1.398 . S
C1514 C1515 1.391 . S
C1515 H1503 0.950 . S
C1515 C1511 1.393 1_454 S
C1515 C1514 1.391 . S
C1516 H1506 0.950 . S
C1516 C1517 1.386 . S
C1516 C1518 1.391 . S
C1517 C1516 1.386 . S
C1517 C1521 1.393 . S
C1518 H1507 0.950 . S
C1518 C1516 1.391 . S
C1518 C1519 1.400 . S
C1519 C1513 1.491 . S
C1519 C1518 1.400 . S
C1519 C1520 1.398 . S
C1520 H1508 0.950 1_455 S
C1520 C1519 1.398 . S
C1520 C1521 1.391 . S
C1521 H1509 0.950 . S
C1521 C1517 1.393 . S
C1521 C1520 1.391 . S
H1522 C1530 0.950 . S
H1523 C1535 0.950 . S
H1524 C1532 0.950 . S
H1525 C1534 0.950 . S
H1526 C1536 0.950 . S
H1527 C1538 0.950 . S
H1528 C1540 0.950 . S
H1529 C1541 0.950 . S
C1530 H1522 0.950 . S
C1530 C1531 1.382 1_556 S
C1530 C1532 1.391 1_556 S
C1531 C1530 1.382 1_554 S
C1531 C1535 1.404 . S
C1532 H1524 0.950 . S
C1532 C1530 1.391 1_554 S
C1532 C1533 1.400 . S
C1533 C1532 1.400 . S
C1533 C1534 1.398 . S
C1533 C1539 1.491 . S
C1534 H1525 0.950 . S
C1534 C1533 1.398 . S
C1534 C1535 1.391 . S
C1535 H1523 0.950 . S
C1535 C1531 1.404 . S
C1535 C1534 1.391 . S
C1536 H1526 0.950 . S
C1536 C1537 1.386 . S
C1536 C1538 1.391 . S
C1537 C1536 1.386 . S
C1537 C1541 1.393 . S
C1538 H1527 0.950 . S
C1538 C1536 1.391 . S
C1538 C1539 1.400 . S
C1539 C1533 1.491 . S
C1539 C1538 1.400 . S
C1539 C1540 1.398 . S
C1540 H1528 0.950 . S
C1540 C1539 1.398 . S
C1540 C1541 1.391 . S
C1541 H1529 0.950 . S
C1541 C1537 1.393 . S
C1541 C1540 1.391 . S
H1542 C1550 0.950 . S
H1543 C1555 0.950 . S
H1544 C1552 0.950 . S
H1545 C1554 0.950 . S
H1546 C1556 0.950 . S
H1547 C1558 0.950 . S
H1548 C1560 0.950 1_655 S
H1549 C1561 0.950 . S
C1550 H1542 0.950 . S
C1550 C1551 1.386 . S
C1550 C1552 1.391 . S
C1551 C1550 1.386 . S
C1551 C1555 1.393 1_655 S
C1552 H1544 0.950 . S
C1552 C1550 1.391 . S
C1552 C1553 1.400 1_655 S
C1553 C1552 1.400 1_455 S
C1553 C1554 1.398 . S
C1553 C1559 1.491 . S
C1554 H1545 0.950 . S
C1554 C1553 1.398 . S
C1554 C1555 1.391 . S
C1555 H1543 0.950 . S
C1555 C1551 1.393 1_455 S
C1555 C1554 1.391 . S
C1556 H1546 0.950 . S
C1556 C1557 1.386 . S
C1556 C1558 1.391 . S
C1557 C1556 1.386 . S
C1557 C1561 1.393 . S
C1558 H1547 0.950 . S
C1558 C1556 1.391 . S
C1558 C1559 1.400 . S
C1559 C1553 1.491 . S
C1559 C1558 1.400 . S
C1559 C1560 1.398 . S
C1560 H1548 0.950 1_455 S
C1560 C1559 1.398 . S
C1560 C1561 1.391 . S
C1561 H1549 0.950 . S
C1561 C1557 1.393 . S
C1561 C1560 1.391 . S
H1562 C1570 0.950 . S
H1563 C1575 0.950 . S
H1564 C1572 0.950 . S
H1565 C1574 0.950 . S
H1566 C1576 0.950 . S
H1567 C1578 0.950 . S
H1568 C1580 0.950 . S
H1569 C1581 0.950 . S
C1570 H1562 0.950 . S
C1570 C1571 1.386 . S
C1570 C1572 1.391 . S
C1571 C1570 1.386 . S
C1571 C1575 1.393 . S
C1572 H1564 0.950 . S
C1572 C1570 1.391 . S
C1572 C1573 1.400 . S
C1573 C1572 1.400 . S
C1573 C1574 1.398 . S
C1573 C1579 1.491 . S
C1574 H1565 0.950 . S
C1574 C1573 1.398 . S
C1574 C1575 1.391 . S
C1575 H1563 0.950 . S
C1575 C1571 1.393 . S
C1575 C1574 1.391 . S
C1576 H1566 0.950 . S
C1576 C1577 1.386 . S
C1576 C1578 1.391 . S
C1577 C1576 1.386 . S
C1577 C1581 1.393 . S
C1578 H1567 0.950 . S
C1578 C1576 1.391 . S
C1578 C1579 1.400 . S
C1579 C1573 1.491 . S
C1579 C1578 1.400 . S
C1579 C1580 1.398 . S
C1580 H1568 0.950 . S
C1580 C1579 1.398 . S
C1580 C1581 1.391 . S
C1581 H1569 0.950 . S
C1581 C1577 1.393 . S
C1581 C1580 1.391 . S
H1582 C1590 0.950 . S
H1583 C1595 0.950 . S
H1584 C1592 0.950 . S
H1585 C1594 0.950 . S
H1586 C1596 0.950 . S
H1587 C1598 0.950 . S
H1588 C1600 0.950 . S
H1589 C1601 0.950 . S
C1590 H1582 0.950 . S
C1590 C1591 1.386 . S
C1590 C1592 1.391 . S
C1591 C1590 1.386 . S
C1591 C1595 1.393 . S
C1592 H1584 0.950 . S
C1592 C1590 1.391 . S
C1592 C1593 1.400 . S
C1593 C1592 1.400 . S
C1593 C1594 1.398 . S
C1593 C1599 1.491 . S
C1594 H1585 0.950 . S
C1594 C1593 1.398 . S
C1594 C1595 1.391 . S
C1595 H1583 0.950 . S
C1595 C1591 1.393 . S
C1595 C1594 1.391 . S
C1596 H1586 0.950 . S
C1596 C1597 1.386 . S
C1596 C1598 1.391 . S
C1597 C1596 1.386 . S
C1597 C1601 1.393 . S
C1598 H1587 0.950 . S
C1598 C1596 1.391 . S
C1598 C1599 1.400 . S
C1599 C1593 1.491 . S
C1599 C1598 1.400 . S
C1599 C1600 1.398 . S
C1600 H1588 0.950 . S
C1600 C1599 1.398 . S
C1600 C1601 1.391 . S
C1601 H1589 0.950 . S
C1601 C1597 1.393 . S
C1601 C1600 1.391 . S
H1602 C1610 0.950 . S
H1603 C1615 0.950 . S
H1604 C1612 0.950 . S
H1605 C1614 0.950 . S
H1606 C1616 0.950 . S
H1607 C1618 0.950 . S
H1608 C1620 0.986 . S
H1609 C1621 0.950 . S
C1610 H1602 0.950 . S
C1610 C1611 1.386 1_554 S
C1610 C1612 1.391 1_554 S
C1611 C1610 1.386 1_556 S
C1611 C1615 1.393 1_565 S
C1612 H1604 0.950 . S
C1612 C1610 1.391 1_556 S
C1612 C1613 1.400 1_565 S
C1613 C1612 1.400 1_545 S
C1613 C1614 1.398 . S
C1613 C1619 1.491 . S
C1614 H1605 0.950 . S
C1614 C1613 1.398 . S
C1614 C1615 1.391 . S
C1615 H1603 0.950 . S
C1615 C1611 1.393 1_545 S
C1615 C1614 1.391 . S
C1616 H1606 0.950 . S
C1616 C1617 1.386 . S
C1616 C1618 1.391 . S
C1617 C1616 1.386 . S
C1617 C1621 1.393 . S
C1618 H1607 0.950 . S
C1618 C1616 1.391 . S
C1618 C1619 1.400 . S
C1619 C1613 1.491 . S
C1619 C1618 1.400 . S
C1619 C1620 1.398 . S
C1620 H1608 0.986 . S
C1620 C1619 1.398 . S
C1620 C1621 1.391 . S
C1621 H1609 0.950 . S
C1621 C1617 1.393 . S
C1621 C1620 1.391 . S
H1622 C1630 0.950 . S
H1623 C1635 0.950 . S
H1624 C1632 0.950 . S
H1625 C1634 0.950 . S
H1626 C1636 0.950 . S
H1627 C1638 0.942 1_554 S
H1628 C1640 0.950 . S
H1629 C1641 0.950 . S
C1630 H1622 0.950 . S
C1630 C1631 1.386 . S
C1630 C1632 1.391 . S
C1631 C1630 1.386 . S
C1631 C1635 1.393 . S
C1632 H1624 0.950 . S
C1632 C1630 1.391 . S
C1632 C1633 1.400 . S
C1633 C1632 1.400 . S
C1633 C1634 1.398 . S
C1633 C1639 1.491 . S
C1634 H1625 0.950 . S
C1634 C1633 1.398 . S
C1634 C1635 1.391 . S
C1635 H1623 0.950 . S
C1635 C1631 1.393 . S
C1635 C1634 1.391 . S
C1636 H1626 0.950 . S
C1636 C1637 1.386 1_554 S
C1636 C1638 1.391 1_554 S
C1637 C1636 1.386 1_556 S
C1637 C1641 1.393 . S
C1638 H1627 0.942 1_556 S
C1638 C1636 1.391 1_556 S
C1638 C1639 1.400 . S
C1639 C1633 1.491 . S
C1639 C1638 1.400 . S
C1639 C1640 1.398 . S
C1640 H1628 0.950 . S
C1640 C1639 1.398 . S
C1640 C1641 1.391 . S
C1641 H1629 0.950 . S
C1641 C1637 1.393 . S
C1641 C1640 1.391 . S
H1642 C1650 0.950 . S
H1643 C1655 0.950 . S
H1644 C1652 0.950 . S
H1645 C1654 0.950 . S
H1646 C1656 0.950 . S
H1647 C1658 0.950 1_554 S
H1648 C1660 0.950 . S
H1649 C1661 0.950 . S
C1650 H1642 0.950 . S
C1650 C1651 1.386 . S
C1650 C1652 1.391 . S
C1651 C1650 1.386 . S
C1651 C1655 1.393 . S
C1652 H1644 0.950 . S
C1652 C1650 1.391 . S
C1652 C1653 1.400 . S
C1653 C1652 1.400 . S
C1653 C1654 1.398 . S
C1653 C1659 1.491 . S
C1654 H1645 0.950 . S
C1654 C1653 1.398 . S
C1654 C1655 1.391 . S
C1655 H1643 0.950 . S
C1655 C1651 1.393 . S
C1655 C1654 1.391 . S
C1656 H1646 0.950 . S
C1656 C1657 1.390 . S
C1656 C1658 1.391 1_554 S
C1657 C1656 1.390 . S
C1657 C1661 1.382 1_554 S
C1658 H1647 0.950 1_556 S
C1658 C1656 1.391 1_556 S
C1658 C1659 1.400 . S
C1659 C1653 1.491 . S
C1659 C1658 1.400 . S
C1659 C1660 1.398 . S
C1660 H1648 0.950 . S
C1660 C1659 1.398 . S
C1660 C1661 1.391 . S
C1661 H1649 0.950 . S
C1661 C1657 1.382 1_556 S
C1661 C1660 1.391 . S
H1662 C1670 0.950 . S
H1663 C1675 0.950 . S
H1664 C1672 0.950 . S
H1665 C1674 0.950 . S
H1666 C1676 0.950 . S
H1667 C1678 0.950 . S
H1668 C1680 0.950 . S
H1669 C1681 0.950 . S
C1670 H1662 0.950 . S
C1670 C1671 1.386 . S
C1670 C1672 1.391 . S
C1671 C1670 1.386 . S
C1671 C1675 1.393 . S
C1672 H1664 0.950 . S
C1672 C1670 1.391 . S
C1672 C1673 1.400 . S
C1673 C1672 1.400 . S
C1673 C1674 1.398 . S
C1673 C1679 1.491 . S
C1674 H1665 0.950 . S
C1674 C1673 1.398 . S
C1674 C1675 1.391 . S
C1675 H1663 0.950 . S
C1675 C1671 1.393 . S
C1675 C1674 1.391 . S
C1676 H1666 0.950 . S
C1676 C1677 1.386 . S
C1676 C1678 1.391 . S
C1677 C1676 1.386 . S
C1677 C1681 1.393 . S
C1678 H1667 0.950 . S
C1678 C1676 1.391 . S
C1678 C1679 1.400 . S
C1679 C1673 1.491 . S
C1679 C1678 1.400 . S
C1679 C1680 1.398 . S
C1680 H1668 0.950 . S
C1680 C1679 1.398 . S
C1680 C1681 1.391 . S
C1681 H1669 0.950 . S
C1681 C1677 1.393 . S
C1681 C1680 1.391 . S
H1682 C1690 0.950 . S
H1683 C1695 0.950 . S
H1684 C1692 0.950 . S
H1685 C1694 0.950 . S
H1686 C1696 0.950 . S
H1687 C1698 0.950 . S
H1688 C1700 0.950 . S
H1689 C1701 0.950 . S
C1690 H1682 0.950 . S
C1690 C1691 1.386 . S
C1690 C1692 1.391 . S
C1691 C1690 1.386 . S
C1691 C1695 1.393 . S
C1692 H1684 0.950 . S
C1692 C1690 1.391 . S
C1692 C1693 1.400 . S
C1693 C1692 1.400 . S
C1693 C1694 1.398 . S
C1693 C1699 1.491 . S
C1694 H1685 0.950 . S
C1694 C1693 1.398 . S
C1694 C1695 1.391 . S
C1695 H1683 0.950 . S
C1695 C1691 1.393 . S
C1695 C1694 1.391 . S
C1696 H1686 0.950 . S
C1696 C1697 1.386 . S
C1696 C1698 1.391 . S
C1697 C1696 1.386 . S
C1697 C1701 1.393 . S
C1698 H1687 0.950 . S
C1698 C1696 1.391 . S
C1698 C1699 1.400 . S
C1699 C1693 1.491 . S
C1699 C1698 1.400 . S
C1699 C1700 1.398 . S
C1700 H1688 0.950 . S
C1700 C1699 1.398 . S
C1700 C1701 1.391 . S
C1701 H1689 0.950 . S
C1701 C1697 1.393 . S
C1701 C1700 1.391 . S
H1702 C1710 0.950 . S
H1703 C1715 0.950 . S
H1704 C1712 0.950 . S
H1705 C1714 0.950 . S
H1706 C1716 0.950 . S
H1707 C1718 0.950 . S
H1708 C1720 0.950 . S
H1709 C1721 0.950 . S
C1710 H1702 0.950 . S
C1710 C1711 1.386 . S
C1710 C1712 1.391 . S
C1711 C1710 1.386 . S
C1711 C1715 1.393 . S
C1712 H1704 0.950 . S
C1712 C1710 1.391 . S
C1712 C1713 1.400 . S
C1713 C1712 1.400 . S
C1713 C1714 1.398 . S
C1713 C1719 1.491 . S
C1714 H1705 0.950 . S
C1714 C1713 1.398 . S
C1714 C1715 1.391 . S
C1715 H1703 0.950 . S
C1715 C1711 1.393 . S
C1715 C1714 1.391 . S
C1716 H1706 0.950 . S
C1716 C1717 1.386 . S
C1716 C1718 1.391 . S
C1717 C1716 1.386 . S
C1717 C1721 1.393 . S
C1718 H1707 0.950 . S
C1718 C1716 1.391 . S
C1718 C1719 1.400 . S
C1719 C1713 1.491 . S
C1719 C1718 1.400 . S
C1719 C1720 1.398 . S
C1720 H1708 0.950 . S
C1720 C1719 1.398 . S
C1720 C1721 1.391 . S
C1721 H1709 0.950 . S
C1721 C1717 1.393 . S
C1721 C1720 1.391 . S
H1722 C1730 0.950 . S
H1723 C1735 0.950 . S
H1724 C1732 0.950 . S
H1725 C1734 0.950 . S
H1726 C1736 0.950 . S
H1727 C1738 0.950 . S
H1728 C1740 0.950 . S
H1729 C1741 0.950 . S
C1730 H1722 0.950 . S
C1730 C1731 1.386 . S
C1730 C1732 1.391 . S
C1731 C1730 1.386 . S
C1731 C1735 1.393 . S
C1732 H1724 0.950 . S
C1732 C1730 1.391 . S
C1732 C1733 1.400 . S
C1733 C1732 1.400 . S
C1733 C1734 1.398 . S
C1733 C1739 1.491 . S
C1734 H1725 0.950 . S
C1734 C1733 1.398 . S
C1734 C1735 1.391 . S
C1735 H1723 0.950 . S
C1735 C1731 1.393 . S
C1735 C1734 1.391 . S
C1736 H1726 0.950 . S
C1736 C1737 1.386 . S
C1736 C1738 1.391 . S
C1737 C1736 1.386 . S
C1737 C1741 1.393 . S
C1738 H1727 0.950 . S
C1738 C1736 1.391 . S
C1738 C1739 1.400 . S
C1739 C1733 1.491 . S
C1739 C1738 1.400 . S
C1739 C1740 1.398 . S
C1740 H1728 0.950 . S
C1740 C1739 1.398 . S
C1740 C1741 1.391 . S
C1741 H1729 0.950 . S
C1741 C1737 1.393 . S
C1741 C1740 1.391 . S
H1742 C1750 0.950 . S
H1743 C1755 0.950 . S
H1744 C1752 0.950 . S
H1745 C1754 0.950 . S
H1746 C1756 0.950 . S
H1747 C1758 0.950 . S
H1748 C1760 0.950 . S
H1749 C1761 0.950 . S
C1750 H1742 0.950 . S
C1750 C1751 1.386 . S
C1750 C1752 1.391 . S
C1751 C1750 1.386 . S
C1751 C1755 1.393 . S
C1752 H1744 0.950 . S
C1752 C1750 1.391 . S
C1752 C1753 1.400 . S
C1753 C1752 1.400 . S
C1753 C1754 1.398 . S
C1753 C1759 1.491 . S
C1754 H1745 0.950 . S
C1754 C1753 1.398 . S
C1754 C1755 1.391 . S
C1755 H1743 0.950 . S
C1755 C1751 1.393 . S
C1755 C1754 1.391 . S
C1756 H1746 0.950 . S
C1756 C1757 1.386 . S
C1756 C1758 1.391 . S
C1757 C1756 1.386 . S
C1757 C1761 1.393 . S
C1758 H1747 0.950 . S
C1758 C1756 1.391 . S
C1758 C1759 1.400 . S
C1759 C1753 1.491 . S
C1759 C1758 1.400 . S
C1759 C1760 1.398 . S
C1760 H1748 0.950 . S
C1760 C1759 1.398 . S
C1760 C1761 1.391 . S
C1761 H1749 0.950 . S
C1761 C1757 1.393 . S
C1761 C1760 1.391 . S
H1762 C1770 0.950 . S
H1763 C1775 0.950 . S
H1764 C1772 0.950 . S
H1765 C1774 0.950 . S
H1766 C1776 0.950 . S
H1767 C1778 0.950 . S
H1768 C1780 0.950 . S
H1769 C1781 0.950 . S
C1770 H1762 0.950 . S
C1770 C1771 1.386 . S
C1770 C1772 1.391 . S
C1771 C1770 1.386 . S
C1771 C1775 1.393 . S
C1772 H1764 0.950 . S
C1772 C1770 1.391 . S
C1772 C1773 1.400 . S
C1773 C1772 1.400 . S
C1773 C1774 1.398 . S
C1773 C1779 1.491 . S
C1774 H1765 0.950 . S
C1774 C1773 1.398 . S
C1774 C1775 1.391 . S
C1775 H1763 0.950 . S
C1775 C1771 1.393 . S
C1775 C1774 1.391 . S
C1776 H1766 0.950 . S
C1776 C1777 1.386 . S
C1776 C1778 1.391 . S
C1777 C1776 1.386 . S
C1777 C1781 1.393 . S
C1778 H1767 0.950 . S
C1778 C1776 1.391 . S
C1778 C1779 1.400 . S
C1779 C1773 1.491 . S
C1779 C1778 1.400 . S
C1779 C1780 1.398 . S
C1780 H1768 0.950 . S
C1780 C1779 1.398 . S
C1780 C1781 1.391 . S
C1781 H1769 0.950 . S
C1781 C1777 1.393 . S
C1781 C1780 1.391 . S
C1071 C180 1.302 . S
C1077 C3 1.302 . S
C1091 C241 1.302 . S
C1097 C64 1.302 . S
C1111 C121 1.286 . S
C1117 C298 1.286 . S
C1131 C123 1.301 . S
C1137 C300 1.302 . S
C1151 C5 1.302 . S
C1157 C182 1.302 . S
C1171 C239 1.301 . S
C1177 C62 1.301 . S
C1191 C534 1.285 . S
C1197 C359 1.290 . S
C1211 C418 1.291 . S
C1217 C593 1.285 . S
C1231 C477 1.299 . S
C1237 C652 1.298 . S
C1251 C654 1.296 . S
C1257 C475 1.288 . S
C1271 C536 1.305 . S
C1277 C357 1.303 . S
C1291 C595 1.305 . S
C1297 C416 1.296 . S
C1311 C711 1.303 . S
C1317 C888 1.302 . S
C1331 C772 1.294 . S
C1337 C949 1.294 . S
C1351 C829 1.287 . S
C1357 C1006 1.287 . S
C1371 C1008 1.295 . S
C1377 C831 1.295 . S
C1391 C890 1.294 . S
C1397 C713 1.294 . S
C1411 C947 1.302 . S
C1417 C770 1.302 . S
C1431 C33 1.511 . S
C1437 C446 1.507 . S
C1451 C111 1.515 . S
C1457 C505 1.510 . S
C1471 C387 1.509 . S
C1477 C151 1.506 . S
C1491 C170 1.518 . S
C1497 C819 1.517 . S
C1511 C859 1.514 . S
C1517 C52 1.517 . S
C1531 C741 1.499 1_554 S
C1537 C92 1.510 . S
C1551 C977 1.507 . S
C1557 C210 1.506 . S
C1571 C288 1.512 . S
C1577 C1055 1.511 . S
C1591 C937 1.509 . S
C1597 C328 1.511 . S
C1611 C623 1.510 1_556 S
C1617 C347 1.507 . S
C1631 C229 1.511 . S
C1637 C682 1.507 1_556 S
C1651 C269 1.513 . S
C1657 C564 1.512 . S
C1671 C406 1.516 . S
C1677 C800 1.512 . S
C1691 C465 1.514 . S
C1697 C878 1.512 . S
C1711 C524 1.510 . S
C1717 C760 1.512 . S
C1731 C996 1.512 . S
C1737 C701 1.511 . S
C1751 C1036 1.514 . S
C1757 C583 1.518 . S
C1771 C642 1.518 . S
C1777 C918 1.515 . S
