# Generated by pormake.
# Topology zfy, (5)-cn, num edge types: 1
# Building blocks:
#     Node 0, Type 0, BuildingBlock: XOMCOT_clean_sbu_0, # of connection points: 5
#     Node 1, Type 0, BuildingBlock: XOMCOT_clean_sbu_0, # of connection points: 5
#     Node 2, Type 0, BuildingBlock: XOMCOT_clean_sbu_0, # of connection points: 5
#     Node 3, Type 0, BuildingBlock: XOMCOT_clean_sbu_0, # of connection points: 5
#     Node 4, Type 0, BuildingBlock: XOMCOT_clean_sbu_0, # of connection points: 5
#     Node 5, Type 0, BuildingBlock: XOMCOT_clean_sbu_0, # of connection points: 5
#     Node 6, Type 0, BuildingBlock: XOMCOT_clean_sbu_0, # of connection points: 5
#     Node 7, Type 0, BuildingBlock: XOMCOT_clean_sbu_0, # of connection points: 5
#     Node 8, Type 0, BuildingBlock: XOMCOT_clean_sbu_0, # of connection points: 5
#     Node 9, Type 0, BuildingBlock: XOMCOT_clean_sbu_0, # of connection points: 5
#     Node 10, Type 0, BuildingBlock: XOMCOT_clean_sbu_0, # of connection points: 5
#     Node 11, Type 0, BuildingBlock: XOMCOT_clean_sbu_0, # of connection points: 5
#     Node 12, Type 0, BuildingBlock: XOMCOT_clean_sbu_0, # of connection points: 5
#     Node 13, Type 0, BuildingBlock: XOMCOT_clean_sbu_0, # of connection points: 5
#     Node 14, Type 0, BuildingBlock: XOMCOT_clean_sbu_0, # of connection points: 5
#     Node 15, Type 0, BuildingBlock: XOMCOT_clean_sbu_0, # of connection points: 5
#     Edge 16, Type (0, 0), BuildingBlock: OJICUG_clean_linker_0, # of connection points: 2
#     Edge 17, Type (0, 0), BuildingBlock: OJICUG_clean_linker_0, # of connection points: 2
#     Edge 18, Type (0, 0), BuildingBlock: OJICUG_clean_linker_0, # of connection points: 2
#     Edge 19, Type (0, 0), BuildingBlock: OJICUG_clean_linker_0, # of connection points: 2
#     Edge 20, Type (0, 0), BuildingBlock: OJICUG_clean_linker_0, # of connection points: 2
#     Edge 21, Type (0, 0), BuildingBlock: OJICUG_clean_linker_0, # of connection points: 2
#     Edge 22, Type (0, 0), BuildingBlock: OJICUG_clean_linker_0, # of connection points: 2
#     Edge 23, Type (0, 0), BuildingBlock: OJICUG_clean_linker_0, # of connection points: 2
#     Edge 24, Type (0, 0), BuildingBlock: OJICUG_clean_linker_0, # of connection points: 2
#     Edge 25, Type (0, 0), BuildingBlock: OJICUG_clean_linker_0, # of connection points: 2
#     Edge 26, Type (0, 0), BuildingBlock: OJICUG_clean_linker_0, # of connection points: 2
#     Edge 27, Type (0, 0), BuildingBlock: OJICUG_clean_linker_0, # of connection points: 2
#     Edge 28, Type (0, 0), BuildingBlock: OJICUG_clean_linker_0, # of connection points: 2
#     Edge 29, Type (0, 0), BuildingBlock: OJICUG_clean_linker_0, # of connection points: 2
#     Edge 30, Type (0, 0), BuildingBlock: OJICUG_clean_linker_0, # of connection points: 2
#     Edge 31, Type (0, 0), BuildingBlock: OJICUG_clean_linker_0, # of connection points: 2
#     Edge 32, Type (0, 0), BuildingBlock: OJICUG_clean_linker_0, # of connection points: 2
#     Edge 33, Type (0, 0), BuildingBlock: OJICUG_clean_linker_0, # of connection points: 2
#     Edge 34, Type (0, 0), BuildingBlock: OJICUG_clean_linker_0, # of connection points: 2
#     Edge 35, Type (0, 0), BuildingBlock: OJICUG_clean_linker_0, # of connection points: 2
#     Edge 36, Type (0, 0), BuildingBlock: OJICUG_clean_linker_0, # of connection points: 2
#     Edge 37, Type (0, 0), BuildingBlock: OJICUG_clean_linker_0, # of connection points: 2
#     Edge 38, Type (0, 0), BuildingBlock: OJICUG_clean_linker_0, # of connection points: 2
#     Edge 39, Type (0, 0), BuildingBlock: OJICUG_clean_linker_0, # of connection points: 2
#     Edge 40, Type (0, 0), BuildingBlock: OJICUG_clean_linker_0, # of connection points: 2
#     Edge 41, Type (0, 0), BuildingBlock: OJICUG_clean_linker_0, # of connection points: 2
#     Edge 42, Type (0, 0), BuildingBlock: OJICUG_clean_linker_0, # of connection points: 2
#     Edge 43, Type (0, 0), BuildingBlock: OJICUG_clean_linker_0, # of connection points: 2
#     Edge 44, Type (0, 0), BuildingBlock: OJICUG_clean_linker_0, # of connection points: 2
#     Edge 45, Type (0, 0), BuildingBlock: OJICUG_clean_linker_0, # of connection points: 2
#     Edge 46, Type (0, 0), BuildingBlock: OJICUG_clean_linker_0, # of connection points: 2
#     Edge 47, Type (0, 0), BuildingBlock: OJICUG_clean_linker_0, # of connection points: 2
#     Edge 48, Type (0, 0), BuildingBlock: OJICUG_clean_linker_0, # of connection points: 2
#     Edge 49, Type (0, 0), BuildingBlock: OJICUG_clean_linker_0, # of connection points: 2
#     Edge 50, Type (0, 0), BuildingBlock: OJICUG_clean_linker_0, # of connection points: 2
#     Edge 51, Type (0, 0), BuildingBlock: OJICUG_clean_linker_0, # of connection points: 2
#     Edge 52, Type (0, 0), BuildingBlock: OJICUG_clean_linker_0, # of connection points: 2
#     Edge 53, Type (0, 0), BuildingBlock: OJICUG_clean_linker_0, # of connection points: 2
#     Edge 54, Type (0, 0), BuildingBlock: OJICUG_clean_linker_0, # of connection points: 2
#     Edge 55, Type (0, 0), BuildingBlock: OJICUG_clean_linker_0, # of connection points: 2
# Relax obj value: 0.183
# Max RMSD: 0.238
# Mean RMSD: 0.233
data_MOF--net-zfy--node1-XOMCOT_clean_sbu_0--edge1-OJICUG_clean_linker_0
_symmetry_space_group_name_H-M    P1
_symmetry_Int_Tables_number       1
_symmetry_cell_setting            triclinic
loop_
_symmetry_equiv_pos_as_xyz
'x, y, z'
_cell_length_a     39.647037
_cell_length_b     39.956459
_cell_length_c     23.027782
_cell_angle_alpha  90.521079
_cell_angle_beta   89.693477
_cell_angle_gamma 90.086415
loop_
_atom_site_label
_atom_site_type_symbol
_atom_site_fract_x
_atom_site_fract_y
_atom_site_fract_z
_atom_type_partial_charge
Co0 Co 0.33456 0.21439 1.00911 0.0
C1 C 0.28692 0.24305 0.10244 0.0
C2 C 0.33957 0.25144 0.11721 0.0
C3 C 0.32191 0.26653 0.1613 0.0
N4 N 0.31795 0.23711 0.07925 0.0
N5 N 0.28886 0.26137 0.15218 0.0
H6 H 0.26349 0.23377 0.08501 0.0
H7 H 0.36675 0.25047 0.11394 0.0
C8 C 0.3396 0.16275 0.10044 0.0
O9 O 0.30916 0.17123 0.11778 0.0
N10 N 0.35415 0.19233 0.94188 0.0
C11 C 0.34235 0.18798 0.88761 0.0
C12 C 0.36686 0.17163 0.85489 0.0
C13 C 0.38535 0.17906 0.94135 0.0
N14 N 0.39388 0.16596 0.88905 0.0
C15 C 0.26486 0.20776 0.98094 0.0
C16 C 0.26577 0.13928 0.96321 0.0
C17 C 0.23738 0.15749 0.94596 0.0
C18 C 0.23673 0.192 0.95679 0.0
C19 C 0.29322 0.15596 0.98805 0.0
N20 N 0.29271 0.1899 0.99634 0.0
H21 H 0.26495 0.23474 0.98414 0.0
H22 H 0.3159 0.14184 0.99602 0.0
H23 H 0.3179 0.19622 0.87283 0.0
H24 H 0.40186 0.18005 0.97855 0.0
O25 O 0.32382 0.25293 0.96385 0.0
O26 O 0.37264 0.24496 1.0083 0.0
O27 O 0.35366 0.17802 0.05834 0.0
C28 C 0.35365 0.26403 0.9766 0.0
H29 H 0.33265 0.27906 0.1988 0.0
H30 H 0.36483 0.16449 0.80961 0.0
H31 H 0.26741 0.1126 0.95498 0.0
H32 H 0.21566 0.20712 0.94285 0.0
Co33 Co 0.57604 0.59563 0.28019 0.0
C34 C 0.54169 0.55053 0.36546 0.0
C35 C 0.55531 0.59896 0.39946 0.0
C36 C 0.53888 0.5818 0.44218 0.0
N37 N 0.5571 0.57953 0.35155 0.0
N38 N 0.53021 0.55146 0.42094 0.0
H39 H 0.53862 0.52959 0.3358 0.0
H40 H 0.56515 0.62416 0.40281 0.0
C41 C 0.6472 0.61004 0.31334 0.0
O42 O 0.65647 0.59713 0.26305 0.0
N43 N 0.5955 0.61534 0.21057 0.0
C44 C 0.60012 0.60429 0.15549 0.0
C45 C 0.61434 0.62971 0.12325 0.0
C46 C 0.60648 0.64732 0.21032 0.0
N47 N 0.6184 0.65679 0.15798 0.0
C48 C 0.58426 0.53463 0.21782 0.0
C49 C 0.63279 0.50537 0.28593 0.0
C50 C 0.62208 0.48863 0.23526 0.0
C51 C 0.59713 0.50366 0.20175 0.0
C52 C 0.61905 0.5368 0.30053 0.0
N53 N 0.59649 0.55196 0.2645 0.0
H54 H 0.5644 0.54474 0.19158 0.0
H55 H 0.62642 0.54868 0.34082 0.0
H56 H 0.59365 0.57998 0.13848 0.0
H57 H 0.60514 0.6635 0.24817 0.0
O58 O 0.53439 0.58686 0.2415 0.0
O59 O 0.54634 0.63467 0.28624 0.0
O60 O 0.61595 0.61202 0.3265 0.0
C61 C 0.52484 0.61651 0.25692 0.0
H62 H 0.53429 0.59072 0.48604 0.0
H63 H 0.62123 0.62817 0.07779 0.0
H64 H 0.65123 0.49417 0.31427 0.0
H65 H 0.58782 0.49196 0.16236 0.0
Co66 Co 0.19746 0.81379 0.52535 0.0
C67 C 0.24107 0.78267 0.61924 0.0
C68 C 0.18843 0.78709 0.63947 0.0
C69 C 0.20399 0.77239 0.68541 0.0
N70 N 0.21141 0.79368 0.59775 0.0
N71 N 0.23706 0.76944 0.67283 0.0
H72 H 0.26502 0.78419 0.59715 0.0
H73 H 0.16191 0.79318 0.63692 0.0
C74 C 0.19035 0.86756 0.61591 0.0
O75 O 0.21915 0.85789 0.63806 0.0
N76 N 0.18001 0.83351 0.45569 0.0
C77 C 0.19018 0.83105 0.39992 0.0
C78 C 0.16477 0.84363 0.3651 0.0
C79 C 0.14912 0.84722 0.45414 0.0
N80 N 0.13882 0.85337 0.39963 0.0
C81 C 0.2673 0.81705 0.49737 0.0
C82 C 0.26989 0.88494 0.4759 0.0
C83 C 0.29667 0.86459 0.45706 0.0
C84 C 0.29567 0.83053 0.47034 0.0
C85 C 0.24174 0.87037 0.50313 0.0
N86 N 0.2404 0.83661 0.51263 0.0
H87 H 0.266 0.79022 0.50137 0.0
H88 H 0.21992 0.88585 0.51151 0.0
H89 H 0.21335 0.81932 0.38547 0.0
H90 H 0.1338 0.85104 0.49258 0.0
O91 O 0.2082 0.77319 0.48395 0.0
O92 O 0.15865 0.78347 0.52492 0.0
O93 O 0.17832 0.8529 0.57094 0.0
C94 C 0.17793 0.76298 0.49539 0.0
H95 H 0.19192 0.76538 0.72578 0.0
H96 H 0.16464 0.84372 0.31811 0.0
H97 H 0.26941 0.91129 0.46533 0.0
H98 H 0.31573 0.81391 0.4562 0.0
Co99 Co 0.95438 0.43268 0.77514 0.0
C100 C 0.98784 0.47544 0.8688 0.0
C101 C 0.96566 0.42963 0.89829 0.0
C102 C 0.9812 0.44476 0.94442 0.0
N103 N 0.96934 0.44875 0.85071 0.0
N104 N 0.9953 0.47348 0.92616 0.0
H105 H 0.99672 0.49519 0.84095 0.0
H106 H 0.95327 0.40552 0.89917 0.0
C107 C 0.88555 0.4001 0.80101 0.0
O108 O 0.87771 0.39784 0.74587 0.0
N109 N 0.93984 0.41339 0.70149 0.0
C110 C 0.92788 0.42751 0.65277 0.0
C111 C 0.9158 0.4023 0.61657 0.0
C112 C 0.9364 0.3801 0.69289 0.0
N113 N 0.92061 0.37255 0.64268 0.0
C114 C 0.95256 0.50154 0.74434 0.0
C115 C 0.88426 0.50693 0.72486 0.0
C116 C 0.90563 0.53279 0.70654 0.0
C117 C 0.93998 0.5304 0.71882 0.0
C118 C 0.89785 0.47863 0.75161 0.0
N119 N 0.93195 0.47534 0.75862 0.0
H120 H 0.97948 0.49978 0.74901 0.0
H121 H 0.88077 0.45905 0.76316 0.0
H122 H 0.92626 0.45412 0.64515 0.0
H123 H 0.94258 0.36187 0.72557 0.0
O124 O 0.99697 0.44368 0.74045 0.0
O125 O 0.98602 0.39524 0.78216 0.0
O126 O 0.91319 0.41383 0.81727 0.0
C127 C 1.00739 0.41426 0.75441 0.0
H128 H 0.98192 0.4353 0.98829 0.0
H129 H 0.90238 0.40583 0.57629 0.0
H130 H 0.85738 0.50807 0.71685 0.0
H131 H 0.95746 0.5497 0.70522 0.0
Co132 Co 0.6862 0.83946 1.00759 0.0
C133 C 0.72018 0.81657 0.89684 0.0
C134 C 0.67658 0.78772 0.91974 0.0
C135 C 0.68904 0.77566 0.86791 0.0
N136 N 0.6962 0.81313 0.93839 0.0
N137 N 0.71648 0.79376 0.85327 0.0
H138 H 0.73948 0.83561 0.89763 0.0
H139 H 0.65431 0.77878 0.94206 0.0
C140 C 0.66835 0.78805 0.10031 0.0
O141 O 0.67465 0.80951 0.14242 0.0
N142 N 0.67417 0.86559 0.07598 0.0
C143 C 0.69242 0.88911 0.10411 0.0
C144 C 0.67209 0.90431 0.14551 0.0
C145 C 0.64304 0.86717 0.10002 0.0
N146 N 0.64117 0.89023 0.14305 0.0
C147 C 0.75494 0.86079 1.00612 0.0
C148 C 0.77785 0.82639 0.10131 0.0
C149 C 0.79802 0.85204 0.07836 0.0
C150 C 0.78677 0.86796 0.02828 0.0
C151 C 0.74596 0.8196 0.07711 0.0
N152 N 0.73389 0.83811 0.03194 0.0
H153 H 0.7469 0.87518 0.96946 0.0
H154 H 0.73114 0.80022 0.09648 0.0
H155 H 0.71823 0.89569 0.09408 0.0
H156 H 0.62186 0.85234 0.08507 0.0
O157 O 0.68878 0.88002 0.96391 0.0
O158 O 0.64213 0.8504 0.97441 0.0
O159 O 0.67359 0.79596 0.04727 0.0
C160 C 0.65706 0.87656 0.95262 0.0
H161 H 0.67892 0.75468 0.84358 0.0
H162 H 0.67929 0.9246 0.17438 0.0
H163 H 0.78577 0.81287 0.13942 0.0
H164 H 0.80189 0.88711 1.00757 0.0
Co165 Co 0.44352 0.42607 0.73602 0.0
C166 C 0.46433 0.45707 0.62541 0.0
C167 C 0.49363 0.41364 0.64551 0.0
C168 C 0.50515 0.42644 0.59386 0.0
N169 N 0.46835 0.43308 0.66536 0.0
N170 N 0.48676 0.45383 0.58121 0.0
H171 H 0.44545 0.47646 0.62885 0.0
H172 H 0.5033 0.39188 0.66748 0.0
C173 C 0.49588 0.41464 0.82919 0.0
O174 O 0.47528 0.42792 0.86784 0.0
N175 N 0.41851 0.41766 0.8064 0.0
C176 C 0.39396 0.43609 0.83183 0.0
C177 C 0.3793 0.41741 0.87523 0.0
C178 C 0.41821 0.38816 0.8341 0.0
N179 N 0.3948 0.38743 0.87652 0.0
C180 C 0.42106 0.49398 0.73992 0.0
C181 C 0.46822 0.51937 0.81628 0.0
C182 C 0.43855 0.53753 0.80674 0.0
C183 C 0.41622 0.52552 0.76458 0.0
C184 C 0.47249 0.48788 0.78928 0.0
N185 N 0.44727 0.47404 0.75635 0.0
H186 H 0.40197 0.48496 0.71066 0.0
H187 H 0.49563 0.47472 0.79677 0.0
H188 H 0.38578 0.46049 0.81813 0.0
H189 H 0.43358 0.36697 0.82116 0.0
O190 O 0.40126 0.42771 0.69481 0.0
O191 O 0.43052 0.38146 0.70726 0.0
O192 O 0.48762 0.41363 0.77543 0.0
C193 C 0.40346 0.39567 0.68732 0.0
H194 H 0.52632 0.41694 0.5689 0.0
H195 H 0.35799 0.42473 0.90203 0.0
H196 H 0.48695 0.52841 0.84669 0.0
H197 H 0.39372 0.53944 0.75363 0.0
Co198 Co 0.84619 0.18836 0.49898 0.0
C199 C 0.81126 0.20892 0.38976 0.0
C200 C 0.85753 0.2352 0.40566 0.0
C201 C 0.84371 0.24723 0.35555 0.0
N202 N 0.83713 0.21142 0.42742 0.0
N203 N 0.81453 0.23079 0.34533 0.0
H204 H 0.79056 0.19162 0.3947 0.0
H205 H 0.88075 0.2436 0.42552 0.0
C206 C 0.86273 0.24345 0.58703 0.0
O207 O 0.85454 0.22369 0.63015 0.0
N208 N 0.85689 0.1655 0.57016 0.0
C209 C 0.83759 0.14429 0.60127 0.0
C210 C 0.85691 0.13114 0.64512 0.0
C211 C 0.88761 0.16459 0.59491 0.0
N212 N 0.88821 0.14419 0.64111 0.0
C213 C 0.77762 0.1656 0.50077 0.0
C214 C 0.75324 0.20707 0.58755 0.0
C215 C 0.73319 0.17999 0.56917 0.0
C216 C 0.74537 0.16003 0.5235 0.0
C217 C 0.78531 0.21224 0.56267 0.0
N218 N 0.79811 0.19046 0.52196 0.0
H219 H 0.78649 0.14853 0.46765 0.0
H220 H 0.79963 0.23332 0.57775 0.0
H221 H 0.81172 0.13784 0.59196 0.0
H222 H 0.90937 0.17791 0.57834 0.0
O223 O 0.8453 0.14534 0.4599 0.0
O224 O 0.89091 0.17667 0.46834 0.0
O225 O 0.85827 0.23382 0.53439 0.0
C226 C 0.87732 0.14882 0.45018 0.0
H227 H 0.85402 0.26738 0.3299 0.0
H228 H 0.84879 0.11285 0.67667 0.0
H229 H 0.74449 0.22379 0.62169 0.0
H230 H 0.73097 0.13884 0.50754 0.0
Co231 Co 0.09398 0.59617 0.24567 0.0
C232 C 0.06968 0.56101 0.13705 0.0
C233 C 0.04699 0.60894 0.15273 0.0
C234 C 0.03403 0.59593 0.10218 0.0
N235 N 0.06922 0.58711 0.17488 0.0
N236 N 0.04824 0.56577 0.09211 0.0
H237 H 0.08529 0.53913 0.1418 0.0
H238 H 0.04048 0.63276 0.17239 0.0
C239 C 0.04027 0.61415 0.3362 0.0
O240 O 0.06057 0.6056 0.37841 0.0
N241 N 0.11838 0.60737 0.31567 0.0
C242 C 0.14034 0.58883 0.34613 0.0
C243 C 0.15389 0.60869 0.38959 0.0
C244 C 0.11926 0.63813 0.34023 0.0
N245 N 0.14029 0.63955 0.38591 0.0
C246 C 0.11441 0.52766 0.24545 0.0
C247 C 0.07657 0.50531 0.33808 0.0
C248 C 0.10331 0.48528 0.31764 0.0
C249 C 0.12093 0.49623 0.26857 0.0
C250 C 0.07047 0.53678 0.31286 0.0
N251 N 0.09081 0.54872 0.26937 0.0
H252 H 0.12986 0.53535 0.20939 0.0
H253 H 0.04998 0.55134 0.32994 0.0
H254 H 0.14682 0.56308 0.33674 0.0
H255 H 0.10521 0.65929 0.32411 0.0
O256 O 0.13626 0.59281 0.20482 0.0
O257 O 0.10773 0.63978 0.21359 0.0
O258 O 0.04924 0.60994 0.28304 0.0
C259 C 0.13456 0.62445 0.1941 0.0
H260 H 1.0148 0.60746 0.07591 0.0
H261 H 0.17262 0.60118 0.4209 0.0
H262 H 0.06154 0.49756 0.375 0.0
H263 H 0.14082 0.48116 0.24932 0.0
Co264 Co 0.85109 0.71109 0.52794 0.0
C265 C 0.80658 0.74239 0.621 0.0
C266 C 0.85561 0.72667 0.64915 0.0
C267 C 0.83952 0.74153 0.6952 0.0
N268 N 0.83525 0.72714 0.6026 0.0
N269 N 0.8088 0.7516 0.67783 0.0
H270 H 0.78507 0.74715 0.59355 0.0
H271 H 0.88087 0.71649 0.64926 0.0
C272 C 0.86643 0.63903 0.55162 0.0
O273 O 0.85396 0.63135 0.50043 0.0
N274 N 0.87068 0.69446 0.45534 0.0
C275 C 0.8597 0.69319 0.39994 0.0
C276 C 0.88473 0.6792 0.36535 0.0
C277 C 0.90235 0.68214 0.4529 0.0
N278 N 0.91151 0.67204 0.39897 0.0
C279 C 0.78956 0.70558 0.4661 0.0
C280 C 0.76401 0.64887 0.51778 0.0
C281 C 0.74885 0.66109 0.46733 0.0
C282 C 0.76093 0.69062 0.44333 0.0
C283 C 0.79282 0.66514 0.53986 0.0
N284 N 0.80699 0.69135 0.51054 0.0
H285 H 0.79862 0.7278 0.44501 0.0
H286 H 0.80421 0.65586 0.57901 0.0
H287 H 0.8357 0.70189 0.38454 0.0
H288 H 0.91847 0.68089 0.49056 0.0
O289 O 0.84235 0.75378 0.49458 0.0
O290 O 0.89074 0.74029 0.53544 0.0
O291 O 0.86765 0.66957 0.56856 0.0
C292 C 0.87255 0.76251 0.50865 0.0
H293 H 0.84955 0.74429 0.73862 0.0
H294 H 0.88306 0.67445 0.31913 0.0
H295 H 0.75448 0.62654 0.53854 0.0
H296 H 0.74919 0.70126 0.40531 0.0
Co297 Co 0.06354 0.0835 0.76635 0.0
C298 C 0.03542 0.03556 0.85469 0.0
C299 C 0.03755 0.08693 0.88304 0.0
C300 C 0.0226 0.06863 0.92599 0.0
N301 N 0.0453 0.06648 0.83812 0.0
N302 N 0.02118 0.03648 0.9083 0.0
H303 H 0.03834 0.01313 0.82847 0.0
H304 H 0.04241 0.11357 0.88432 0.0
C305 C 0.1342 0.10275 0.79573 0.0
O306 O 0.14333 0.09045 0.74491 0.0
N307 N 0.08162 0.10387 0.69638 0.0
C308 C 0.08739 0.09267 0.64175 0.0
C309 C 0.10043 0.11876 0.60933 0.0
C310 C 0.09052 0.13643 0.69572 0.0
N311 N 0.10254 0.14625 0.64369 0.0
C312 C 0.0733 0.02195 0.70507 0.0
C313 C 0.12888 0.99911 0.76421 0.0
C314 C 0.11826 0.98143 0.71432 0.0
C315 C 0.0889 0.9925 0.68685 0.0
C316 C 0.11161 0.0281 0.7823 0.0
N317 N 0.08585 0.04069 0.74986 0.0
H318 H 0.05146 0.03007 0.68142 0.0
H319 H 0.11948 0.04058 0.82171 0.0
H320 H 0.08264 0.06771 0.62568 0.0
H321 H 0.08796 0.15263 0.73334 0.0
O322 O 0.02169 0.07379 0.7282 0.0
O323 O 0.03303 0.12169 0.77304 0.0
O324 O 0.10325 0.10171 0.8116 0.0
C325 C 1.01179 0.10344 0.74353 0.0
H326 H 1.01433 0.07799 0.96799 0.0
H327 H 0.10808 0.11735 0.5642 0.0
H328 H 0.15073 0.99127 0.78848 0.0
H329 H 0.07801 0.97886 0.65072 0.0
Co330 Co 0.67862 0.31963 0.03331 0.0
C331 C 0.7211 0.28433 0.12454 0.0
C332 C 0.6686 0.28926 0.1451 0.0
C333 C 0.68403 0.27361 0.19034 0.0
N334 N 0.69156 0.296 0.10341 0.0
N335 N 0.71707 0.27038 0.17763 0.0
H336 H 0.74512 0.28644 0.10292 0.0
H337 H 0.64229 0.29627 0.14351 0.0
C338 C 0.68054 0.37161 0.12617 0.0
O339 O 0.71088 0.36086 0.13899 0.0
N340 N 0.66284 0.343 0.9656 0.0
C341 C 0.67584 0.3431 0.91146 0.0
C342 C 0.65276 0.35789 0.87496 0.0
C343 C 0.63226 0.3574 0.96138 0.0
N344 N 0.62526 0.36674 0.90648 0.0
C345 C 0.74792 0.31559 1.00255 0.0
C346 C 0.7582 0.38318 0.9852 0.0
C347 C 0.78228 0.36027 0.96456 0.0
C348 C 0.7774 0.32627 0.97539 0.0
C349 C 0.72874 0.37137 1.01221 0.0
N350 N 0.72367 0.3378 0.02005 0.0
H351 H 0.74358 0.289 1.00543 0.0
H352 H 0.70885 0.38901 0.022 0.0
H353 H 0.69965 0.33193 0.89894 0.0
H354 H 0.61464 0.3589 0.99734 0.0
O355 O 0.68415 0.27975 0.98745 0.0
O356 O 0.6367 0.29405 0.03284 0.0
O357 O 0.66433 0.35863 0.08366 0.0
C358 C 0.65302 0.27299 0.99958 0.0
H359 H 0.67191 0.2665 0.23059 0.0
H360 H 0.65572 0.36103 0.8286 0.0
H361 H 0.76079 0.40963 0.9763 0.0
H362 H 0.7953 0.3078 0.95956 0.0
Co363 Co 0.46041 0.94719 0.25483 0.0
C364 C 0.50061 0.98156 0.34894 0.0
C365 C 0.44792 0.99404 0.34947 0.0
C366 C 0.46351 0.01274 0.39157 0.0
N367 N 0.47107 0.97484 0.32191 0.0
N368 N 0.4965 1.00501 0.39107 0.0
H369 H 0.52448 0.96991 0.33829 0.0
H370 H 0.42133 0.99462 0.33926 0.0
C371 C 0.39494 0.91102 0.28866 0.0
O372 O 0.38869 0.90316 0.23436 0.0
N373 N 0.44954 0.91963 0.18774 0.0
C374 C 0.44018 0.9294 0.13436 0.0
C375 C 0.43172 0.90136 0.10219 0.0
C376 C 0.44844 0.88589 0.18626 0.0
N377 N 0.43633 0.87403 0.13531 0.0
C378 C 0.4528 0.01305 0.21388 0.0
C379 C 0.38397 0.01327 0.19666 0.0
C380 C 0.40253 0.04241 0.18531 0.0
C381 C 0.43737 0.04202 0.19435 0.0
C382 C 0.40049 0.98465 0.2164 0.0
N383 N 0.43459 0.98474 0.2248 0.0
H384 H 0.47958 0.01376 0.22197 0.0
H385 H 0.3856 0.96282 0.22431 0.0
H386 H 0.43826 0.95507 0.12035 0.0
H387 H 0.45397 0.87057 0.22351 0.0
O388 O 0.50276 0.95797 0.21803 0.0
O389 O 0.49481 0.91448 0.27542 0.0
O390 O 0.42071 0.92886 0.30215 0.0
C391 C 0.51503 0.93131 0.24153 0.0
H392 H 0.45143 0.02999 0.42165 0.0
H393 H 0.42096 0.90138 0.0591 0.0
H394 H 0.35698 1.01243 0.18968 0.0
H395 H 0.45264 0.06413 0.18739 0.0
Co396 Co 0.17657 0.32997 0.50215 0.0
C397 C 0.19854 0.30995 0.3814 0.0
C398 C 0.193 0.26807 0.43821 0.0
C399 C 0.20297 0.25636 0.38473 0.0
N400 N 0.18979 0.30169 0.43642 0.0
N401 N 0.20652 0.28259 0.34895 0.0
H402 H 0.19988 0.33535 0.36569 0.0
H403 H 0.18973 0.25275 0.4762 0.0
C404 C 0.14839 0.27979 0.59184 0.0
O405 O 0.14933 0.30146 0.63493 0.0
N406 N 0.16258 0.3578 0.56724 0.0
C407 C 0.1812 0.37944 0.59892 0.0
C408 C 0.16079 0.39367 0.64109 0.0
C409 C 0.13093 0.36041 0.58859 0.0
N410 N 0.12934 0.3812 0.63498 0.0
C411 C 0.24831 0.33544 0.50176 0.0
C412 C 0.25904 0.3206 0.61701 0.0
C413 C 0.2857 0.33407 0.58454 0.0
C414 C 0.28046 0.34013 0.52551 0.0
C415 C 0.22748 0.31561 0.59125 0.0
N416 N 0.22183 0.32459 0.53499 0.0
H417 H 0.24422 0.3427 0.4573 0.0
H418 H 0.20737 0.30712 0.61839 0.0
H419 H 0.20774 0.38443 0.59219 0.0
H420 H 0.10968 0.3465 0.57147 0.0
O421 O 0.18545 0.37025 0.45907 0.0
O422 O 0.13616 0.34435 0.46072 0.0
O423 O 0.15811 0.28785 0.54066 0.0
C424 C 0.15411 0.36972 0.44292 0.0
H425 H 0.20909 0.23064 0.37397 0.0
H426 H 0.16864 0.41133 0.67431 0.0
H427 H 0.26209 0.31556 0.66283 0.0
H428 H 0.30031 0.35081 0.49897 0.0
Co429 Co 0.95489 0.92965 0.25754 0.0
C430 C 0.97319 0.9484 0.13527 0.0
C431 C 1.01557 0.94902 0.19276 0.0
C432 C 0.02667 0.95736 0.13829 0.0
N433 N 0.98212 0.94286 0.19106 0.0
N434 N 1.0001 0.95698 0.10215 0.0
H435 H 0.94761 0.94705 0.11932 0.0
H436 H 0.03089 0.94895 0.23136 0.0
C437 C 1.00622 0.90226 0.3451 0.0
O438 O 0.98463 0.904 0.38835 0.0
N439 N 0.92783 0.91576 0.32341 0.0
C440 C 0.90693 0.93437 0.35685 0.0
C441 C 0.89357 0.91428 0.39958 0.0
C442 C 0.92537 0.88436 0.3441 0.0
N443 N 0.90569 0.88299 0.39198 0.0
C444 C 0.94712 1.00038 0.25786 0.0
C445 C 0.96289 1.01206 0.3729 0.0
C446 C 0.94693 0.03735 0.34159 0.0
C447 C 0.94055 0.03184 0.28261 0.0
C448 C 0.96977 0.98118 0.34607 0.0
N449 N 0.95989 0.97487 0.29024 0.0
H450 H 0.93952 0.99577 0.21351 0.0
H451 H 0.98023 0.96188 0.37222 0.0
H452 H 0.9019 0.96071 0.35108 0.0
H453 H 0.93884 0.86322 0.32565 0.0
O454 O 0.91362 0.93727 0.21591 0.0
O455 O 0.94075 0.88893 0.21667 0.0
O456 O 0.99821 0.9123 0.29431 0.0
C457 C 0.91461 0.90604 0.19981 0.0
H458 H 0.05199 0.96518 0.12687 0.0
H459 H 0.87681 0.9223 0.43423 0.0
H460 H 0.9682 0.01547 0.41868 0.0
H461 H 0.92808 0.05074 0.25704 0.0
Co462 Co 0.36117 0.68924 0.99965 0.0
C463 C 0.32844 0.71022 0.88869 0.0
C464 C 0.37294 0.7382 0.90945 0.0
C465 C 0.36024 0.75008 0.85833 0.0
N466 N 0.35277 0.71359 0.92906 0.0
N467 N 0.33216 0.73253 0.84515 0.0
H468 H 0.30876 0.69169 0.89047 0.0
H469 H 0.39553 0.74695 0.93089 0.0
C470 C 0.38178 0.74291 0.08828 0.0
O471 O 0.37357 0.72372 0.13215 0.0
N472 N 0.37163 0.66537 0.0697 0.0
C473 C 0.35158 0.64685 0.10435 0.0
C474 C 0.37055 0.63576 0.15049 0.0
C475 C 0.4024 0.66457 0.0941 0.0
N476 N 0.4023 0.64747 0.14416 0.0
C477 C 0.29146 0.67202 0.99921 0.0
C478 C 0.27049 0.70788 0.09562 0.0
C479 C 0.24939 0.68266 0.07329 0.0
C480 C 0.25952 0.66637 0.02222 0.0
C481 C 0.3024 0.71352 0.06995 0.0
N482 N 0.31356 0.69403 0.02443 0.0
H483 H 0.29879 0.6566 0.96282 0.0
H484 H 0.31809 0.73249 0.0888 0.0
H485 H 0.32512 0.64189 0.09712 0.0
H486 H 0.4243 0.67701 0.07607 0.0
O487 O 0.35626 0.6472 0.95976 0.0
O488 O 0.4045 0.67432 0.96588 0.0
O489 O 0.37627 0.73337 0.03591 0.0
C490 C 0.38803 0.64811 0.94713 0.0
H491 H 0.37063 0.77063 0.83376 0.0
H492 H 0.3616 0.62069 0.18624 0.0
H493 H 0.26338 0.72168 0.13448 0.0
H494 H 0.24368 0.64744 1.00216 0.0
Co495 Co 0.58232 0.09503 0.74887 0.0
C496 C 0.56742 0.07075 0.62768 0.0
C497 C 0.53071 0.05591 0.6915 0.0
C498 C 0.523 0.04038 0.64003 0.0
N499 N 0.5586 0.07483 0.6842 0.0
N500 N 0.54607 0.04957 0.60029 0.0
H501 H 0.58942 0.08178 0.6075 0.0
H502 H 0.51768 0.05235 0.73236 0.0
C503 C 0.52672 0.11576 0.83515 0.0
O504 O 0.54827 0.11706 0.87816 0.0
N505 N 0.60592 0.11477 0.81396 0.0
C506 C 0.62773 0.09984 0.85015 0.0
C507 C 0.63805 0.12297 0.89106 0.0
C508 C 0.60445 0.147 0.8316 0.0
N509 N 0.62311 0.15249 0.87958 0.0
C510 C 0.60189 0.02722 0.75207 0.0
C511 C 0.57793 1.01069 0.86089 0.0
C512 C 0.59811 0.98757 0.83048 0.0
C513 C 0.60885 0.99574 0.77436 0.0
C514 C 0.5711 0.042 0.83647 0.0
N515 N 0.58432 0.05052 0.78362 0.0
H516 H 0.61149 0.03322 0.70945 0.0
H517 H 0.55651 0.05935 0.86159 0.0
H518 H 0.63568 0.07401 0.8472 0.0
H519 H 0.58866 0.16558 0.81134 0.0
O520 O 0.62513 0.09341 0.70794 0.0
O521 O 0.58978 0.13619 0.70536 0.0
O522 O 0.53621 0.10655 0.7841 0.0
C523 C 0.61878 0.12345 0.69009 0.0
H524 H 0.50213 0.02343 0.63223 0.0
H525 H 0.65548 0.11847 0.92613 0.0
H526 H 0.56898 1.0054 0.90438 0.0
H527 H 0.6237 0.97837 0.74849 0.0
C528 C 0.47908 0.12592 0.90442 0.0
C529 C 0.49117 0.12551 0.84698 0.0
H530 H 0.43872 0.13769 0.96246 0.0
C531 C 0.46968 0.13636 0.80255 0.0
H532 H 0.49471 0.11724 0.93967 0.0
C533 C 0.43738 0.14888 0.81586 0.0
C534 C 0.42585 0.15052 0.87384 0.0
H535 H 0.47826 0.13636 0.75782 0.0
H536 H 0.42201 0.15828 0.78096 0.0
C537 C 0.44688 0.13796 0.91758 0.0
C538 C 0.644 0.71115 0.18644 0.0
C539 C 0.632 0.68923 0.14295 0.0
H540 H 0.66472 0.7592 0.20728 0.0
C541 C 0.63308 0.69989 0.08489 0.0
H542 H 0.64438 0.70374 0.23148 0.0
C543 C 0.6453 0.73174 0.07089 0.0
C544 C 0.65659 0.7538 0.11462 0.0
H545 H 0.62386 0.68396 0.05021 0.0
H546 H 0.64535 0.73924 0.02583 0.0
C547 C 0.65595 0.74302 0.1725 0.0
C548 C 0.07801 0.85926 0.42124 0.0
C549 C 0.10548 0.86438 0.38336 0.0
H550 H 0.02582 0.86709 0.439 0.0
C551 C 0.09967 0.88083 0.33059 0.0
H552 H 0.08093 0.84567 0.46128 0.0
C553 C 0.06734 0.89277 0.31713 0.0
C554 C 0.04034 0.88869 0.35645 0.0
H555 H 0.12019 0.88509 0.30036 0.0
H556 H 0.0637 0.90568 0.27656 0.0
C557 C 0.04609 0.87141 0.40821 0.0
C558 C 0.9004 0.33094 0.56946 0.0
C559 C 0.90574 0.34052 0.62764 0.0
H560 H 0.88277 0.29274 0.51062 0.0
C561 C 0.89567 0.31838 0.67169 0.0
H562 H 0.90776 0.34744 0.53457 0.0
C563 C 0.8814 0.28734 0.6582 0.0
C564 C 0.8766 0.27734 0.60018 0.0
H565 H 0.89837 0.32513 0.71703 0.0
H566 H 0.87427 0.27109 0.69362 0.0
C567 C 0.8861 0.2996 0.55583 0.0
C568 C 0.60482 0.93396 0.18655 0.0
C569 C 0.61127 0.90003 0.17481 0.0
H570 H 0.56908 0.97036 0.21697 0.0
C571 C 0.58708 0.87605 0.19131 0.0
H572 H 0.62286 0.95295 0.17399 0.0
C573 C 0.55653 0.88595 0.21722 0.0
C574 C 0.54939 0.92005 0.22575 0.0
H575 H 0.59158 0.8497 0.18307 0.0
H576 H 0.53778 0.86712 0.22745 0.0
C577 C 0.57404 0.94388 0.21108 0.0
C578 C 0.39908 0.30481 0.95103 0.0
C579 C 0.36471 0.297 0.95621 0.0
H580 H 0.43566 0.34037 0.92097 0.0
C581 C 0.3405 0.3206 0.93944 0.0
H582 H 0.41818 0.28701 0.96381 0.0
C583 C 0.35044 0.3511 0.91603 0.0
C584 C 0.38475 0.35829 0.90811 0.0
H585 H 0.31379 0.31527 0.9435 0.0
H586 H 0.33129 0.36838 0.90157 0.0
C587 C 0.40903 0.33516 0.92656 0.0
C588 C 0.95255 0.092 0.71569 0.0
C589 C 0.97841 0.11539 0.72556 0.0
H590 H 0.90326 0.08303 0.68157 0.0
C591 C 0.97301 0.14912 0.71213 0.0
H592 H 0.95613 0.06581 0.72584 0.0
C593 C 0.94284 0.15886 0.68589 0.0
C594 C 0.91749 0.13512 0.67392 0.0
H595 H 0.99269 0.16754 0.71907 0.0
H596 H 0.93954 0.18476 0.67375 0.0
C597 C 0.92225 0.10182 0.69064 0.0
C598 C 0.12413 0.69358 0.43154 0.0
C599 C 0.14867 0.66899 0.4194 0.0
H600 H 0.11396 0.74264 0.46664 0.0
C601 C 0.18198 0.67458 0.43716 0.0
H602 H 0.09818 0.6897 0.41871 0.0
C603 C 0.19099 0.7048 0.46373 0.0
C604 C 0.16677 0.72984 0.47416 0.0
H605 H 0.20139 0.65622 0.42806 0.0
H606 H 0.21719 0.70887 0.47499 0.0
C607 C 0.13305 0.72368 0.45928 0.0
C608 C 0.95454 0.65666 0.32401 0.0
C609 C 0.94316 0.65651 0.38209 0.0
H610 H 0.99397 0.6434 0.26374 0.0
C611 C 0.96354 0.64107 0.42393 0.0
H612 H 0.93974 0.66838 0.29055 0.0
C613 C 0.99467 0.6271 0.40868 0.0
C614 C 1.00634 0.62776 0.35097 0.0
H615 H 0.9555 0.63954 0.46877 0.0
H616 H 1.00963 0.61578 0.44245 0.0
C617 C 0.98574 0.64239 0.30862 0.0
C618 C 0.12527 0.20141 0.67406 0.0
C619 C 0.11518 0.17923 0.62954 0.0
H620 H 0.14328 0.25007 0.69716 0.0
C621 C 0.11719 0.19021 0.57167 0.0
H622 H 0.12517 0.19385 0.719 0.0
C623 C 0.12834 0.22272 0.55898 0.0
C624 C 0.13745 0.245 0.60392 0.0
H625 H 0.10957 0.17398 0.53623 0.0
H626 H 0.12923 0.23058 0.5141 0.0
C627 C 0.13595 0.23382 0.66148 0.0
C628 C 0.5521 0.3873 0.80886 0.0
C629 C 0.5298 0.40326 0.84788 0.0
H630 H 0.59974 0.36293 0.79674 0.0
C631 C 0.54007 0.40805 0.90572 0.0
H632 H 0.54503 0.38319 0.76398 0.0
C633 C 0.57152 0.39676 0.92435 0.0
C634 C 0.59363 0.38014 0.88584 0.0
H635 H 0.52375 0.42049 0.93697 0.0
H636 H 0.57847 0.40113 0.96915 0.0
C637 C 0.58363 0.37585 0.82762 0.0
C638 C 0.41466 0.8193 0.16888 0.0
C639 C 0.42436 0.84051 0.12324 0.0
H640 H 0.39362 0.77228 0.19374 0.0
C641 C 0.4202 0.82911 0.06575 0.0
H642 H 0.41671 0.82732 0.2137 0.0
C643 C 0.40638 0.79748 0.05423 0.0
C644 C 0.39643 0.77648 0.09995 0.0
H645 H 0.42758 0.84465 0.02959 0.0
H646 H 0.40345 0.78958 1.00946 0.0
C647 C 0.40097 0.78772 0.15738 0.0
C648 C 0.07539 0.36333 0.68015 0.0
C649 C 0.10028 0.388 0.67103 0.0
H650 H 0.02646 0.35199 0.71581 0.0
C651 C 0.09591 0.41974 0.69637 0.0
H652 H 0.07841 0.33844 0.66195 0.0
C653 C 0.06641 0.42736 0.72702 0.0
C654 C 0.04088 0.40326 0.7339 0.0
H655 H 0.11456 0.43921 0.69009 0.0
H656 H 0.06297 0.45264 0.74346 0.0
C657 C 0.04598 0.37084 0.71175 0.0
C658 C 0.86891 0.85114 0.45808 0.0
C659 C 0.8996 0.8543 0.42809 0.0
H660 H 0.8368 0.81951 0.50836 0.0
C661 C 0.92374 0.82856 0.43264 0.0
H662 H 0.84983 0.8704 0.4555 0.0
C663 C 0.91642 0.79941 0.4638 0.0
C664 C 0.88476 0.79556 0.4903 0.0
H665 H 0.94794 0.83063 0.411 0.0
H666 H 0.93452 0.77913 0.46389 0.0
C667 C 0.86152 0.82203 0.48852 0.0
C668 C 0.46484 0.60428 0.2378 0.0
C669 C 0.49115 0.62787 0.23977 0.0
H670 H 0.41566 0.59222 0.20599 0.0
C671 C 0.48625 0.6596 0.21598 0.0
H672 H 0.46815 0.57957 0.25593 0.0
C673 C 0.45629 0.66664 0.18654 0.0
C674 C 0.43079 0.64217 0.18134 0.0
H675 H 0.50633 0.67802 0.21658 0.0
H676 H 0.45349 0.69077 0.16615 0.0
C677 C 0.43481 0.61146 0.20931 0.0
C678 C 0.62267 0.21426 0.88441 0.0
C679 C 0.62608 0.18326 0.91217 0.0
H680 H 0.62811 0.26755 0.89168 0.0
C681 C 0.63359 0.18282 0.97183 0.0
H682 H 0.61721 0.21545 0.83849 0.0
C683 C 0.6394 0.21267 1.00227 0.0
C684 C 0.63756 0.24333 0.97356 0.0
H685 H 0.63584 0.15937 0.99463 0.0
H686 H 0.64714 0.21172 0.04729 0.0
C687 C 0.62863 0.24405 0.91482 0.0
C688 C 0.26508 0.30013 0.22534 0.0
C689 C 0.26262 0.27019 0.19294 0.0
H690 H 0.24876 0.32779 0.30047 0.0
C691 C 0.23739 0.24705 0.20737 0.0
H692 H 0.28417 0.31851 0.21464 0.0
C693 C 0.21716 0.25235 0.2566 0.0
C694 C 0.22162 0.28098 0.29191 0.0
H695 H 0.23503 0.22378 0.18328 0.0
H696 H 0.1992 0.2332 0.26886 0.0
C697 C 0.24468 0.30556 0.27421 0.0
C698 C 0.48165 0.5103 0.53942 0.0
C699 C 0.49302 0.47709 0.53478 0.0
H700 H 0.4839 0.55978 0.50554 0.0
C701 C 0.51295 0.46787 0.48633 0.0
H702 H 0.46623 0.51857 0.57561 0.0
C703 C 0.5235 0.4919 0.4463 0.0
C704 C 0.51422 0.5255 0.45398 0.0
H705 H 0.52145 0.44236 0.48035 0.0
H706 H 0.54047 0.48458 0.41147 0.0
C707 C 0.49205 0.53413 0.49941 0.0
C708 C 0.29588 0.76812 0.70828 0.0
C709 C 0.26241 0.7568 0.71148 0.0
H710 H 0.34456 0.76869 0.74719 0.0
C711 C 0.25331 0.73464 0.756 0.0
H712 H 0.30379 0.78512 0.67451 0.0
C713 C 0.27639 0.72582 0.79859 0.0
C714 C 0.30944 0.73857 0.7975 0.0
H715 H 0.22797 0.72468 0.75891 0.0
H716 H 0.26767 0.70999 0.83338 0.0
C717 C 0.31917 0.75899 0.75066 0.0
C718 C 0.03059 0.48548 1.01203 0.0
C719 C 1.01336 0.49689 0.96269 0.0
H720 H 0.05496 0.49815 0.09179 0.0
C721 C 1.01133 0.53147 0.95336 0.0
H722 H 0.03326 0.45895 0.01988 0.0
C723 C 0.02419 0.55409 0.99453 0.0
C724 C 0.0394 0.54263 0.04593 0.0
H725 H 0.99832 0.54103 0.91579 0.0
H726 H 0.02137 0.5806 0.98675 0.0
C727 C 0.0434 0.50801 0.05311 0.0
C728 C 0.79483 0.78787 0.76169 0.0
C729 C 0.78412 0.76728 0.71539 0.0
H730 H 0.78211 0.81217 0.84175 0.0
C731 C 0.7498 0.7591 0.71134 0.0
H732 H 0.82105 0.79512 0.76538 0.0
C733 C 0.72721 0.7692 0.75517 0.0
C734 C 0.73848 0.7877 0.80391 0.0
H735 H 0.74083 0.74335 0.67616 0.0
H736 H 0.70111 0.76158 0.75163 0.0
C737 C 0.77237 0.7979 0.80538 0.0
C738 C 0.7765 0.26691 0.2102 0.0
C739 C 0.74255 0.25737 0.21597 0.0
H740 H 0.82607 0.26526 0.24534 0.0
C741 C 0.73344 0.23634 0.26223 0.0
H742 H 0.78461 0.28297 0.17525 0.0
C743 C 0.75711 0.2268 0.30356 0.0
C744 C 0.79076 0.23767 0.29948 0.0
H745 H 0.70776 0.22765 0.26738 0.0
H746 H 0.74856 0.21181 0.3396 0.0
C747 C 0.8003 0.25704 0.2512 0.0
C748 C 0.02875 0.9646 1.00793 0.0
C749 C 1.0005 0.96997 0.04409 0.0
H750 H 0.05708 0.98152 0.934 0.0
C751 C 0.97574 0.99277 0.02678 0.0
H752 H 0.04807 0.94695 0.02029 0.0
C753 C 0.98105 0.01257 0.97785 0.0
C754 C 1.01087 1.00946 0.94497 0.0
H755 H 0.95387 0.99754 0.05397 0.0
H756 H 0.96318 0.03219 0.96821 0.0
C757 C 0.03379 0.98406 0.9584 0.0
C758 C 0.53352 0.99367 0.47326 0.0
C759 C 0.52003 0.01649 0.43385 0.0
H760 H 0.55279 0.98697 0.55927 0.0
C761 C 0.52279 0.05097 0.44547 0.0
H762 H 0.53107 0.96702 0.46542 0.0
C763 C 0.53578 0.06236 0.4984 0.0
C764 C 0.54546 0.03934 0.54061 0.0
H765 H 0.51213 0.06886 0.41569 0.0
H766 H 0.5348 0.08882 0.50886 0.0
C767 C 0.54581 1.00504 0.5267 0.0
C768 C 0.15133 0.13529 0.88471 0.0
C769 C 0.16024 0.11574 0.83592 0.0
H770 H 0.16883 0.16383 0.95805 0.0
C771 C 0.19448 0.10875 0.8255 0.0
H772 H 0.12515 0.14106 0.89393 0.0
C773 C 0.21931 0.12135 0.86253 0.0
C774 C 0.21053 0.14155 0.9105 0.0
H775 H 0.20219 0.09363 0.78849 0.0
H776 H 0.24552 0.11614 0.8525 0.0
C777 C 0.17628 0.14831 0.92138 0.0
C778 C 0.67179 0.45052 0.21789 0.0
C779 C 0.63684 0.45623 0.21531 0.0
H780 H 0.71311 0.41916 0.19157 0.0
C781 C 0.61634 0.43221 0.18753 0.0
H782 H 0.68833 0.46856 0.23861 0.0
C783 C 0.63055 0.40454 0.15938 0.0
C784 C 0.66557 0.39971 0.15949 0.0
H785 H 0.58921 0.43524 0.18606 0.0
H786 H 0.61409 0.38711 0.13691 0.0
C787 C 0.686 0.42239 0.1905 0.0
C788 C 0.34213 0.90575 0.42727 0.0
C789 C 0.32262 0.87704 0.4157 0.0
H790 H 0.38117 0.93882 0.39655 0.0
C791 C 0.32753 0.85979 0.36293 0.0
H792 H 0.33877 0.91951 0.46763 0.0
C793 C 0.35114 0.87092 0.32243 0.0
C794 C 0.37089 0.89942 0.33373 0.0
H795 H 0.3126 0.83783 0.35247 0.0
H796 H 0.354 0.857 0.28209 0.0
C797 C 0.36643 0.91664 0.38684 0.0
C798 C 0.86531 0.57891 0.58185 0.0
C799 C 0.87576 0.61206 0.59225 0.0
H800 H 0.866 0.52804 0.61056 0.0
C801 C 0.89451 0.61926 0.64251 0.0
H802 H 0.85057 0.57256 0.54384 0.0
C803 C 0.90339 0.5937 0.68065 0.0
C804 C 0.89323 0.56051 0.66987 0.0
H805 H 0.90279 0.64457 0.65194 0.0
H806 H 0.91845 0.59983 0.7184 0.0
C807 C 0.87375 0.55346 0.62044 0.0
C808 C 0.85295 0.84325 0.13287 0.0
C809 C 0.82886 0.86478 0.10849 0.0
H810 H 0.89954 0.83928 0.18006 0.0
C811 C 0.83401 0.89954 0.11342 0.0
H812 H 0.84977 0.81637 0.12978 0.0
C813 C 0.8622 0.91249 0.14181 0.0
C814 C 0.88629 0.89119 0.16626 0.0
H815 H 0.81577 0.91696 0.09627 0.0
H816 H 0.86488 0.93943 0.14509 0.0
C817 C 0.88156 0.85635 0.16118 0.0
C818 C 0.44907 0.59314 0.85896 0.0
C819 C 0.42785 0.56596 0.84486 0.0
H820 H 0.4532 0.64114 0.90232 0.0
C821 C 0.39486 0.56567 0.86724 0.0
H822 H 0.47472 0.59389 0.84263 0.0
C823 C 0.38278 0.59217 0.90073 0.0
C824 C 0.40323 0.62 0.91346 0.0
H825 H 0.37811 0.54476 0.85868 0.0
H826 H 0.35699 0.59076 0.91633 0.0
C827 C 0.43677 0.62013 0.89293 0.0
C828 C 0.70032 0.16955 0.66117 0.0
C829 C 0.70131 0.17049 0.6001 0.0
H830 H 0.67323 0.15369 0.73723 0.0
C831 C 0.67297 0.15873 0.56918 0.0
H832 H 0.72178 0.17789 0.68639 0.0
C833 C 0.64506 0.1451 0.59849 0.0
C834 C 0.64501 0.14279 0.65921 0.0
H835 H 0.6728 0.1592 0.52216 0.0
H836 H 0.62418 0.13509 0.5736 0.0
C837 C 0.6726 0.15558 0.69032 0.0
C838 C 0.15005 0.44944 0.35551 0.0
C839 C 0.11519 0.45479 0.34901 0.0
H840 H 0.18927 0.41873 0.38905 0.0
C841 C 0.09277 0.43115 0.37292 0.0
H842 H 0.16818 0.46731 0.3389 0.0
C843 C 0.10509 0.40282 0.40214 0.0
C844 C 0.14004 0.39785 0.40861 0.0
H845 H 0.06579 0.43441 0.36871 0.0
H846 H 0.0873 0.3852 0.42052 0.0
C847 C 0.16222 0.42152 0.38472 0.0
C848 C 0.66378 0.63523 0.4097 0.0
C849 C 0.67305 0.62029 0.35627 0.0
H850 H 0.68093 0.6595 0.488 0.0
C851 C 0.70744 0.61536 0.34397 0.0
H852 H 0.63749 0.63921 0.42067 0.0
C853 C 0.73201 0.62643 0.38287 0.0
C854 C 0.72277 0.64252 0.43495 0.0
H855 H 0.7155 0.60373 0.30357 0.0
H856 H 0.75839 0.62381 0.37107 0.0
C857 C 0.68851 0.64643 0.44863 0.0
C858 C 0.15653 0.93093 0.72533 0.0
C859 C 0.13742 0.95219 0.68977 0.0
H860 H 0.18854 0.88769 0.72973 0.0
C861 C 0.13673 0.94531 0.62953 0.0
H862 H 0.15756 0.93491 0.77182 0.0
C863 C 0.15347 0.91761 0.60598 0.0
C864 C 0.17241 0.89657 0.64153 0.0
H865 H 0.12353 0.96151 0.59993 0.0
H866 H 0.15216 0.91305 0.55958 0.0
C867 C 0.17415 0.90366 0.70132 0.0
C868 C 0.83319 0.39528 0.93951 0.0
C869 C 0.80947 0.37064 0.92419 0.0
H870 H 0.87672 0.42348 0.91276 0.0
C871 C 0.81145 0.35553 0.86897 0.0
H872 H 0.83212 0.40724 0.98188 0.0
C873 C 0.83637 0.36503 0.82947 0.0
C874 C 0.86026 0.38951 0.84455 0.0
H875 H 0.79328 0.33665 0.85596 0.0
H876 H 0.83696 0.3531 0.78703 0.0
C877 C 0.85872 0.40436 0.90018 0.0
C878 C 0.35511 0.08412 0.18723 0.0
C879 C 0.38605 0.07318 0.16387 0.0
H880 H 0.31629 0.12134 0.18612 0.0
C881 C 0.40174 0.09225 0.12043 0.0
H882 H 0.34263 0.07014 0.22123 0.0
C883 C 0.38693 0.12162 0.10082 0.0
C884 C 0.35596 0.13261 0.12399 0.0
H885 H 0.42535 0.08425 0.10096 0.0
H886 H 0.39965 0.13547 0.06689 0.0
C887 C 0.34021 0.11359 0.1675 0.0
C888 C 0.34922 0.33766 0.59463 0.0
C889 C 0.31665 0.34666 0.61382 0.0
H890 H 0.40279 0.3454 0.6043 0.0
C891 C 0.31339 0.37022 0.65909 0.0
H892 H 0.35237 0.31967 0.55956 0.0
C893 C 0.34186 0.38539 0.68323 0.0
C894 C 0.37437 0.37681 0.66381 0.0
H895 H 0.28866 0.37793 0.6743 0.0
H896 H 0.33842 0.40423 0.71691 0.0
C897 C 0.37796 0.35224 0.6202 0.0
C898 C 0.92471 0.12668 0.38697 0.0
C899 C 0.8971 0.121 0.42421 0.0
H900 H 0.96197 0.10437 0.33013 0.0
C901 C 0.88747 0.08789 0.43598 0.0
H902 H 0.93255 0.15199 0.3771 0.0
C903 C 0.90477 0.06097 0.41081 0.0
C904 C 0.93161 0.06649 0.37212 0.0
H905 H 0.86644 0.08276 0.46483 0.0
H906 H 0.89647 0.03572 0.42018 0.0
C907 C 0.94149 0.09956 0.36024 0.0
C908 C 0.16604 0.67603 0.1582 0.0
C909 C 0.16289 0.64103 0.16294 0.0
H910 H 0.19623 0.71713 0.12645 0.0
C911 C 0.18846 0.62072 0.13925 0.0
H912 H 0.14691 0.69236 0.17656 0.0
C913 C 0.21624 0.63464 0.11139 0.0
C914 C 0.21955 0.66947 0.10568 0.0
H915 H 0.18722 0.5937 0.14228 0.0
H916 H 0.23545 0.61789 0.09443 0.0
C917 C 0.19433 0.69019 0.13001 0.0
C918 C 0.64563 0.94887 0.85153 0.0
C919 C 0.61141 0.957 0.85883 0.0
H920 H 0.68634 0.917 0.87465 0.0
C921 C 0.59127 0.93677 0.89499 0.0
H922 H 0.66209 0.96414 0.82497 0.0
C923 C 0.6054 0.90928 0.92381 0.0
C924 C 0.63993 0.9021 0.91749 0.0
H925 H 0.56479 0.94237 0.90134 0.0
H926 H 0.58974 0.89453 0.95257 0.0
C927 C 0.65964 0.92189 0.88043 0.0
loop_
_geom_bond_atom_site_label_1
_geom_bond_atom_site_label_2
_geom_bond_distance
_geom_bond_site_symmetry_2
_ccdc_geom_bond_type
Co0 N4 2.148 . S
Co0 N10 2.128 1_554 S
Co0 N20 2.194 1_554 S
Co0 O25 2.351 1_554 S
Co0 O26 2.155 . S
Co0 O27 2.096 . S
C1 N4 1.301 . S
C1 N5 1.328 . S
C1 H6 0.930 . S
C2 C3 1.333 . S
C2 N4 1.317 . S
C2 H7 0.930 . S
C3 C2 1.333 . S
C3 N5 1.350 . S
C3 H29 0.931 . S
N4 Co0 2.148 . S
N4 C1 1.301 . S
N4 C2 1.317 . S
N5 C1 1.328 . S
N5 C3 1.350 . S
H6 C1 0.930 . S
H7 C2 0.930 . S
C8 O9 1.224 . S
C8 O27 1.247 . S
O9 C8 1.224 . S
N10 Co0 2.128 1_556 S
N10 C11 1.355 . S
N10 C13 1.311 . S
C11 N10 1.355 . S
C11 C12 1.363 . S
C11 H23 0.929 . S
C12 C11 1.363 . S
C12 N14 1.375 . S
C12 H30 0.931 . S
C13 N10 1.311 . S
C13 N14 1.347 . S
C13 H24 0.929 . S
N14 C12 1.375 . S
N14 C13 1.347 . S
C15 C18 1.365 . S
C15 N20 1.328 . S
C15 H21 0.929 . S
C16 C17 1.362 . S
C16 C19 1.378 . S
C16 H31 0.929 . S
C17 C16 1.362 . S
C17 C18 1.366 . S
C18 C15 1.365 . S
C18 C17 1.366 . S
C18 H32 0.930 . S
C19 C16 1.378 . S
C19 N20 1.315 . S
C19 H22 0.930 1_556 S
N20 Co0 2.194 1_556 S
N20 C15 1.328 . S
N20 C19 1.315 . S
H21 C15 0.929 . S
H22 C19 0.930 1_554 S
H23 C11 0.929 . S
H24 C13 0.929 . S
O25 Co0 2.351 1_556 S
O25 C28 1.244 . S
O26 Co0 2.155 . S
O26 C28 1.240 1_554 S
O27 Co0 2.096 . S
O27 C8 1.247 . S
C28 O25 1.244 . S
C28 O26 1.240 1_556 S
H29 C3 0.931 . S
H30 C12 0.931 . S
H31 C16 0.929 . S
H32 C18 0.930 . S
Co33 N37 2.148 . S
Co33 N43 2.128 . S
Co33 N53 2.194 . S
Co33 O58 2.351 . S
Co33 O59 2.155 . S
Co33 O60 2.096 . S
C34 N37 1.301 . S
C34 N38 1.328 . S
C34 H39 0.930 . S
C35 C36 1.333 . S
C35 N37 1.317 . S
C35 H40 0.930 . S
C36 C35 1.333 . S
C36 N38 1.350 . S
C36 H62 0.931 . S
N37 Co33 2.148 . S
N37 C34 1.301 . S
N37 C35 1.317 . S
N38 C34 1.328 . S
N38 C36 1.350 . S
H39 C34 0.930 . S
H40 C35 0.930 . S
C41 O42 1.224 . S
C41 O60 1.247 . S
O42 C41 1.224 . S
N43 Co33 2.128 . S
N43 C44 1.355 . S
N43 C46 1.311 . S
C44 N43 1.355 . S
C44 C45 1.363 . S
C44 H56 0.929 . S
C45 C44 1.363 . S
C45 N47 1.375 . S
C45 H63 0.931 . S
C46 N43 1.311 . S
C46 N47 1.347 . S
C46 H57 0.929 . S
N47 C45 1.375 . S
N47 C46 1.347 . S
C48 C51 1.365 . S
C48 N53 1.328 . S
C48 H54 0.929 . S
C49 C50 1.362 . S
C49 C52 1.378 . S
C49 H64 0.929 . S
C50 C49 1.362 . S
C50 C51 1.366 . S
C51 C48 1.365 . S
C51 C50 1.366 . S
C51 H65 0.930 . S
C52 C49 1.378 . S
C52 N53 1.315 . S
C52 H55 0.930 . S
N53 Co33 2.194 . S
N53 C48 1.328 . S
N53 C52 1.315 . S
H54 C48 0.929 . S
H55 C52 0.930 . S
H56 C44 0.929 . S
H57 C46 0.929 . S
O58 Co33 2.351 . S
O58 C61 1.244 . S
O59 Co33 2.155 . S
O59 C61 1.240 . S
O60 Co33 2.096 . S
O60 C41 1.247 . S
C61 O58 1.244 . S
C61 O59 1.240 . S
H62 C36 0.931 . S
H63 C45 0.931 . S
H64 C49 0.929 . S
H65 C51 0.930 . S
Co66 N70 2.148 . S
Co66 N76 2.128 . S
Co66 N86 2.194 . S
Co66 O91 2.351 . S
Co66 O92 2.155 . S
Co66 O93 2.096 . S
C67 N70 1.301 . S
C67 N71 1.328 . S
C67 H72 0.930 . S
C68 C69 1.333 . S
C68 N70 1.317 . S
C68 H73 0.930 . S
C69 C68 1.333 . S
C69 N71 1.350 . S
C69 H95 0.931 . S
N70 Co66 2.148 . S
N70 C67 1.301 . S
N70 C68 1.317 . S
N71 C67 1.328 . S
N71 C69 1.350 . S
H72 C67 0.930 . S
H73 C68 0.930 . S
C74 O75 1.224 . S
C74 O93 1.247 . S
O75 C74 1.224 . S
N76 Co66 2.128 . S
N76 C77 1.355 . S
N76 C79 1.311 . S
C77 N76 1.355 . S
C77 C78 1.363 . S
C77 H89 0.929 . S
C78 C77 1.363 . S
C78 N80 1.375 . S
C78 H96 0.931 . S
C79 N76 1.311 . S
C79 N80 1.347 . S
C79 H90 0.929 . S
N80 C78 1.375 . S
N80 C79 1.347 . S
C81 C84 1.365 . S
C81 N86 1.328 . S
C81 H87 0.929 . S
C82 C83 1.362 . S
C82 C85 1.378 . S
C82 H97 0.929 . S
C83 C82 1.362 . S
C83 C84 1.366 . S
C84 C81 1.365 . S
C84 C83 1.366 . S
C84 H98 0.930 . S
C85 C82 1.378 . S
C85 N86 1.315 . S
C85 H88 0.930 . S
N86 Co66 2.194 . S
N86 C81 1.328 . S
N86 C85 1.315 . S
H87 C81 0.929 . S
H88 C85 0.930 . S
H89 C77 0.929 . S
H90 C79 0.929 . S
O91 Co66 2.351 . S
O91 C94 1.244 . S
O92 Co66 2.155 . S
O92 C94 1.240 . S
O93 Co66 2.096 . S
O93 C74 1.247 . S
C94 O91 1.244 . S
C94 O92 1.240 . S
H95 C69 0.931 . S
H96 C78 0.931 . S
H97 C82 0.929 . S
H98 C84 0.930 . S
Co99 N103 2.148 . S
Co99 N109 2.128 . S
Co99 N119 2.194 . S
Co99 O124 2.351 . S
Co99 O125 2.155 . S
Co99 O126 2.096 . S
C100 N103 1.301 . S
C100 N104 1.328 . S
C100 H105 0.930 . S
C101 C102 1.333 . S
C101 N103 1.317 . S
C101 H106 0.930 . S
C102 C101 1.333 . S
C102 N104 1.350 . S
C102 H128 0.931 . S
N103 Co99 2.148 . S
N103 C100 1.301 . S
N103 C101 1.317 . S
N104 C100 1.328 . S
N104 C102 1.350 . S
H105 C100 0.930 . S
H106 C101 0.930 . S
C107 O108 1.224 . S
C107 O126 1.247 . S
O108 C107 1.224 . S
N109 Co99 2.128 . S
N109 C110 1.355 . S
N109 C112 1.311 . S
C110 N109 1.355 . S
C110 C111 1.363 . S
C110 H122 0.929 . S
C111 C110 1.363 . S
C111 N113 1.375 . S
C111 H129 0.931 . S
C112 N109 1.311 . S
C112 N113 1.347 . S
C112 H123 0.929 . S
N113 C111 1.375 . S
N113 C112 1.347 . S
C114 C117 1.365 . S
C114 N119 1.328 . S
C114 H120 0.929 . S
C115 C116 1.362 . S
C115 C118 1.378 . S
C115 H130 0.929 . S
C116 C115 1.362 . S
C116 C117 1.366 . S
C117 C114 1.365 . S
C117 C116 1.366 . S
C117 H131 0.930 . S
C118 C115 1.378 . S
C118 N119 1.315 . S
C118 H121 0.930 . S
N119 Co99 2.194 . S
N119 C114 1.328 . S
N119 C118 1.315 . S
H120 C114 0.929 . S
H121 C118 0.930 . S
H122 C110 0.929 . S
H123 C112 0.929 . S
O124 Co99 2.351 . S
O124 C127 1.244 1_655 S
O125 Co99 2.155 . S
O125 C127 1.240 1_655 S
O126 Co99 2.096 . S
O126 C107 1.247 . S
C127 O124 1.244 1_455 S
C127 O125 1.240 1_455 S
H128 C102 0.931 . S
H129 C111 0.931 . S
H130 C115 0.929 . S
H131 C117 0.930 . S
Co132 N136 2.148 . S
Co132 N142 2.128 1_556 S
Co132 N152 2.194 1_556 S
Co132 O157 2.351 . S
Co132 O158 2.155 . S
Co132 O159 2.096 . S
C133 N136 1.301 . S
C133 N137 1.328 . S
C133 H138 0.930 . S
C134 C135 1.333 . S
C134 N136 1.317 . S
C134 H139 0.930 . S
C135 C134 1.333 . S
C135 N137 1.350 . S
C135 H161 0.931 . S
N136 Co132 2.148 . S
N136 C133 1.301 . S
N136 C134 1.317 . S
N137 C133 1.328 . S
N137 C135 1.350 . S
H138 C133 0.930 . S
H139 C134 0.930 . S
C140 O141 1.224 . S
C140 O159 1.247 1_554 S
O141 C140 1.224 . S
N142 Co132 2.128 1_554 S
N142 C143 1.355 . S
N142 C145 1.311 . S
C143 N142 1.355 . S
C143 C144 1.363 . S
C143 H155 0.929 . S
C144 C143 1.363 . S
C144 N146 1.375 . S
C144 H162 0.931 . S
C145 N142 1.311 . S
C145 N146 1.347 . S
C145 H156 0.929 . S
N146 C144 1.375 . S
N146 C145 1.347 . S
C147 C150 1.365 . S
C147 N152 1.328 . S
C147 H153 0.929 1_554 S
C148 C149 1.362 . S
C148 C151 1.378 . S
C148 H163 0.929 . S
C149 C148 1.362 . S
C149 C150 1.366 . S
C150 C147 1.365 . S
C150 C149 1.366 . S
C150 H164 0.930 . S
C151 C148 1.378 . S
C151 N152 1.315 . S
C151 H154 0.930 . S
N152 Co132 2.194 1_554 S
N152 C147 1.328 . S
N152 C151 1.315 . S
H153 C147 0.929 1_556 S
H154 C151 0.930 . S
H155 C143 0.929 . S
H156 C145 0.929 . S
O157 Co132 2.351 . S
O157 C160 1.244 . S
O158 Co132 2.155 . S
O158 C160 1.240 . S
O159 Co132 2.096 . S
O159 C140 1.247 1_556 S
C160 O157 1.244 . S
C160 O158 1.240 . S
H161 C135 0.931 . S
H162 C144 0.931 . S
H163 C148 0.929 . S
H164 C150 0.930 . S
Co165 N169 2.148 . S
Co165 N175 2.128 . S
Co165 N185 2.194 . S
Co165 O190 2.351 . S
Co165 O191 2.155 . S
Co165 O192 2.096 . S
C166 N169 1.301 . S
C166 N170 1.328 . S
C166 H171 0.930 . S
C167 C168 1.333 . S
C167 N169 1.317 . S
C167 H172 0.930 . S
C168 C167 1.333 . S
C168 N170 1.350 . S
C168 H194 0.931 . S
N169 Co165 2.148 . S
N169 C166 1.301 . S
N169 C167 1.317 . S
N170 C166 1.328 . S
N170 C168 1.350 . S
H171 C166 0.930 . S
H172 C167 0.930 . S
C173 O174 1.224 . S
C173 O192 1.247 . S
O174 C173 1.224 . S
N175 Co165 2.128 . S
N175 C176 1.355 . S
N175 C178 1.311 . S
C176 N175 1.355 . S
C176 C177 1.363 . S
C176 H188 0.929 . S
C177 C176 1.363 . S
C177 N179 1.375 . S
C177 H195 0.931 . S
C178 N175 1.311 . S
C178 N179 1.347 . S
C178 H189 0.929 . S
N179 C177 1.375 . S
N179 C178 1.347 . S
C180 C183 1.365 . S
C180 N185 1.328 . S
C180 H186 0.929 . S
C181 C182 1.362 . S
C181 C184 1.378 . S
C181 H196 0.929 . S
C182 C181 1.362 . S
C182 C183 1.366 . S
C183 C180 1.365 . S
C183 C182 1.366 . S
C183 H197 0.930 . S
C184 C181 1.378 . S
C184 N185 1.315 . S
C184 H187 0.930 . S
N185 Co165 2.194 . S
N185 C180 1.328 . S
N185 C184 1.315 . S
H186 C180 0.929 . S
H187 C184 0.930 . S
H188 C176 0.929 . S
H189 C178 0.929 . S
O190 Co165 2.351 . S
O190 C193 1.244 . S
O191 Co165 2.155 . S
O191 C193 1.240 . S
O192 Co165 2.096 . S
O192 C173 1.247 . S
C193 O190 1.244 . S
C193 O191 1.240 . S
H194 C168 0.931 . S
H195 C177 0.931 . S
H196 C181 0.929 . S
H197 C183 0.930 . S
Co198 N202 2.148 . S
Co198 N208 2.128 . S
Co198 N218 2.194 . S
Co198 O223 2.351 . S
Co198 O224 2.155 . S
Co198 O225 2.096 . S
C199 N202 1.301 . S
C199 N203 1.328 . S
C199 H204 0.930 . S
C200 C201 1.333 . S
C200 N202 1.317 . S
C200 H205 0.930 . S
C201 C200 1.333 . S
C201 N203 1.350 . S
C201 H227 0.931 . S
N202 Co198 2.148 . S
N202 C199 1.301 . S
N202 C200 1.317 . S
N203 C199 1.328 . S
N203 C201 1.350 . S
H204 C199 0.930 . S
H205 C200 0.930 . S
C206 O207 1.224 . S
C206 O225 1.247 . S
O207 C206 1.224 . S
N208 Co198 2.128 . S
N208 C209 1.355 . S
N208 C211 1.311 . S
C209 N208 1.355 . S
C209 C210 1.363 . S
C209 H221 0.929 . S
C210 C209 1.363 . S
C210 N212 1.375 . S
C210 H228 0.931 . S
C211 N208 1.311 . S
C211 N212 1.347 . S
C211 H222 0.929 . S
N212 C210 1.375 . S
N212 C211 1.347 . S
C213 C216 1.365 . S
C213 N218 1.328 . S
C213 H219 0.929 . S
C214 C215 1.362 . S
C214 C217 1.378 . S
C214 H229 0.929 . S
C215 C214 1.362 . S
C215 C216 1.366 . S
C216 C213 1.365 . S
C216 C215 1.366 . S
C216 H230 0.930 . S
C217 C214 1.378 . S
C217 N218 1.315 . S
C217 H220 0.930 . S
N218 Co198 2.194 . S
N218 C213 1.328 . S
N218 C217 1.315 . S
H219 C213 0.929 . S
H220 C217 0.930 . S
H221 C209 0.929 . S
H222 C211 0.929 . S
O223 Co198 2.351 . S
O223 C226 1.244 . S
O224 Co198 2.155 . S
O224 C226 1.240 . S
O225 Co198 2.096 . S
O225 C206 1.247 . S
C226 O223 1.244 . S
C226 O224 1.240 . S
H227 C201 0.931 . S
H228 C210 0.931 . S
H229 C214 0.929 . S
H230 C216 0.930 . S
Co231 N235 2.148 . S
Co231 N241 2.128 . S
Co231 N251 2.194 . S
Co231 O256 2.351 . S
Co231 O257 2.155 . S
Co231 O258 2.096 . S
C232 N235 1.301 . S
C232 N236 1.328 . S
C232 H237 0.930 . S
C233 C234 1.333 . S
C233 N235 1.317 . S
C233 H238 0.930 . S
C234 C233 1.333 . S
C234 N236 1.350 . S
C234 H260 0.931 1_455 S
N235 Co231 2.148 . S
N235 C232 1.301 . S
N235 C233 1.317 . S
N236 C232 1.328 . S
N236 C234 1.350 . S
H237 C232 0.930 . S
H238 C233 0.930 . S
C239 O240 1.224 . S
C239 O258 1.247 . S
O240 C239 1.224 . S
N241 Co231 2.128 . S
N241 C242 1.355 . S
N241 C244 1.311 . S
C242 N241 1.355 . S
C242 C243 1.363 . S
C242 H254 0.929 . S
C243 C242 1.363 . S
C243 N245 1.375 . S
C243 H261 0.931 . S
C244 N241 1.311 . S
C244 N245 1.347 . S
C244 H255 0.929 . S
N245 C243 1.375 . S
N245 C244 1.347 . S
C246 C249 1.365 . S
C246 N251 1.328 . S
C246 H252 0.929 . S
C247 C248 1.362 . S
C247 C250 1.378 . S
C247 H262 0.929 . S
C248 C247 1.362 . S
C248 C249 1.366 . S
C249 C246 1.365 . S
C249 C248 1.366 . S
C249 H263 0.930 . S
C250 C247 1.378 . S
C250 N251 1.315 . S
C250 H253 0.930 . S
N251 Co231 2.194 . S
N251 C246 1.328 . S
N251 C250 1.315 . S
H252 C246 0.929 . S
H253 C250 0.930 . S
H254 C242 0.929 . S
H255 C244 0.929 . S
O256 Co231 2.351 . S
O256 C259 1.244 . S
O257 Co231 2.155 . S
O257 C259 1.240 . S
O258 Co231 2.096 . S
O258 C239 1.247 . S
C259 O256 1.244 . S
C259 O257 1.240 . S
H260 C234 0.931 1_655 S
H261 C243 0.931 . S
H262 C247 0.929 . S
H263 C249 0.930 . S
Co264 N268 2.148 . S
Co264 N274 2.128 . S
Co264 N284 2.194 . S
Co264 O289 2.351 . S
Co264 O290 2.155 . S
Co264 O291 2.096 . S
C265 N268 1.301 . S
C265 N269 1.328 . S
C265 H270 0.930 . S
C266 C267 1.333 . S
C266 N268 1.317 . S
C266 H271 0.930 . S
C267 C266 1.333 . S
C267 N269 1.350 . S
C267 H293 0.931 . S
N268 Co264 2.148 . S
N268 C265 1.301 . S
N268 C266 1.317 . S
N269 C265 1.328 . S
N269 C267 1.350 . S
H270 C265 0.930 . S
H271 C266 0.930 . S
C272 O273 1.224 . S
C272 O291 1.247 . S
O273 C272 1.224 . S
N274 Co264 2.128 . S
N274 C275 1.355 . S
N274 C277 1.311 . S
C275 N274 1.355 . S
C275 C276 1.363 . S
C275 H287 0.929 . S
C276 C275 1.363 . S
C276 N278 1.375 . S
C276 H294 0.931 . S
C277 N274 1.311 . S
C277 N278 1.347 . S
C277 H288 0.929 . S
N278 C276 1.375 . S
N278 C277 1.347 . S
C279 C282 1.365 . S
C279 N284 1.328 . S
C279 H285 0.929 . S
C280 C281 1.362 . S
C280 C283 1.378 . S
C280 H295 0.929 . S
C281 C280 1.362 . S
C281 C282 1.366 . S
C282 C279 1.365 . S
C282 C281 1.366 . S
C282 H296 0.930 . S
C283 C280 1.378 . S
C283 N284 1.315 . S
C283 H286 0.930 . S
N284 Co264 2.194 . S
N284 C279 1.328 . S
N284 C283 1.315 . S
H285 C279 0.929 . S
H286 C283 0.930 . S
H287 C275 0.929 . S
H288 C277 0.929 . S
O289 Co264 2.351 . S
O289 C292 1.244 . S
O290 Co264 2.155 . S
O290 C292 1.240 . S
O291 Co264 2.096 . S
O291 C272 1.247 . S
C292 O289 1.244 . S
C292 O290 1.240 . S
H293 C267 0.931 . S
H294 C276 0.931 . S
H295 C280 0.929 . S
H296 C282 0.930 . S
Co297 N301 2.148 . S
Co297 N307 2.128 . S
Co297 N317 2.194 . S
Co297 O322 2.351 . S
Co297 O323 2.155 . S
Co297 O324 2.096 . S
C298 N301 1.301 . S
C298 N302 1.328 . S
C298 H303 0.930 . S
C299 C300 1.333 . S
C299 N301 1.317 . S
C299 H304 0.930 . S
C300 C299 1.333 . S
C300 N302 1.350 . S
C300 H326 0.931 . S
N301 Co297 2.148 . S
N301 C298 1.301 . S
N301 C299 1.317 . S
N302 C298 1.328 . S
N302 C300 1.350 . S
H303 C298 0.930 . S
H304 C299 0.930 . S
C305 O306 1.224 . S
C305 O324 1.247 . S
O306 C305 1.224 . S
N307 Co297 2.128 . S
N307 C308 1.355 . S
N307 C310 1.311 . S
C308 N307 1.355 . S
C308 C309 1.363 . S
C308 H320 0.929 . S
C309 C308 1.363 . S
C309 N311 1.375 . S
C309 H327 0.931 . S
C310 N307 1.311 . S
C310 N311 1.347 . S
C310 H321 0.929 . S
N311 C309 1.375 . S
N311 C310 1.347 . S
C312 C315 1.342 1_545 S
C312 N317 1.328 . S
C312 H318 0.929 . S
C313 C314 1.362 1_545 S
C313 C316 1.378 . S
C313 H328 0.929 . S
C314 C313 1.362 1_565 S
C314 C315 1.375 . S
C315 C312 1.342 1_565 S
C315 C314 1.375 . S
C315 H329 0.946 . S
C316 C313 1.378 . S
C316 N317 1.315 . S
C316 H319 0.930 . S
N317 Co297 2.194 . S
N317 C312 1.328 . S
N317 C316 1.315 . S
H318 C312 0.929 . S
H319 C316 0.930 . S
H320 C308 0.929 . S
H321 C310 0.929 . S
O322 Co297 2.351 . S
O322 C325 1.244 1_455 S
O323 Co297 2.155 . S
O323 C325 1.240 1_455 S
O324 Co297 2.096 . S
O324 C305 1.247 . S
C325 O322 1.244 1_655 S
C325 O323 1.240 1_655 S
H326 C300 0.931 . S
H327 C309 0.931 . S
H328 C313 0.929 . S
H329 C315 0.946 . S
Co330 N334 2.148 . S
Co330 N340 2.128 1_554 S
Co330 N350 2.194 1_554 S
Co330 O355 2.351 1_554 S
Co330 O356 2.155 . S
Co330 O357 2.096 . S
C331 N334 1.301 . S
C331 N335 1.328 . S
C331 H336 0.930 . S
C332 C333 1.333 . S
C332 N334 1.317 . S
C332 H337 0.930 . S
C333 C332 1.333 . S
C333 N335 1.350 . S
C333 H359 0.931 . S
N334 Co330 2.148 . S
N334 C331 1.301 . S
N334 C332 1.317 . S
N335 C331 1.328 . S
N335 C333 1.350 . S
H336 C331 0.930 . S
H337 C332 0.930 . S
C338 O339 1.224 . S
C338 O357 1.247 . S
O339 C338 1.224 . S
N340 Co330 2.128 1_556 S
N340 C341 1.355 . S
N340 C343 1.311 . S
C341 N340 1.355 . S
C341 C342 1.363 . S
C341 H353 0.929 . S
C342 C341 1.363 . S
C342 N344 1.375 . S
C342 H360 0.931 . S
C343 N340 1.311 . S
C343 N344 1.347 . S
C343 H354 0.929 . S
N344 C342 1.375 . S
N344 C343 1.347 . S
C345 C348 1.365 . S
C345 N350 1.328 . S
C345 H351 0.929 . S
C346 C347 1.362 . S
C346 C349 1.378 . S
C346 H361 0.929 . S
C347 C346 1.362 . S
C347 C348 1.366 . S
C348 C345 1.365 . S
C348 C347 1.366 . S
C348 H362 0.930 . S
C349 C346 1.378 . S
C349 N350 1.315 . S
C349 H352 0.930 1_556 S
N350 Co330 2.194 1_556 S
N350 C345 1.328 . S
N350 C349 1.315 . S
H351 C345 0.929 . S
H352 C349 0.930 1_554 S
H353 C341 0.929 . S
H354 C343 0.929 . S
O355 Co330 2.351 1_556 S
O355 C358 1.244 . S
O356 Co330 2.155 . S
O356 C358 1.240 1_554 S
O357 Co330 2.096 . S
O357 C338 1.247 . S
C358 O355 1.244 . S
C358 O356 1.240 1_556 S
H359 C333 0.931 . S
H360 C342 0.931 . S
H361 C346 0.929 . S
H362 C348 0.930 . S
Co363 N367 2.148 . S
Co363 N373 2.128 . S
Co363 N383 2.194 . S
Co363 O388 2.351 . S
Co363 O389 2.155 . S
Co363 O390 2.096 . S
C364 N367 1.301 . S
C364 N368 1.328 . S
C364 H369 0.930 . S
C365 C366 1.333 . S
C365 N367 1.317 . S
C365 H370 0.930 . S
C366 C365 1.333 . S
C366 N368 1.350 . S
C366 H392 0.931 . S
N367 Co363 2.148 . S
N367 C364 1.301 . S
N367 C365 1.317 . S
N368 C364 1.328 . S
N368 C366 1.350 . S
H369 C364 0.930 . S
H370 C365 0.930 . S
C371 O372 1.224 . S
C371 O390 1.247 . S
O372 C371 1.224 . S
N373 Co363 2.128 . S
N373 C374 1.355 . S
N373 C376 1.311 . S
C374 N373 1.355 . S
C374 C375 1.363 . S
C374 H386 0.929 . S
C375 C374 1.363 . S
C375 N377 1.375 . S
C375 H393 0.931 . S
C376 N373 1.311 . S
C376 N377 1.347 . S
C376 H387 0.929 . S
N377 C375 1.375 . S
N377 C376 1.347 . S
C378 C381 1.365 1_565 S
C378 N383 1.328 . S
C378 H384 0.929 . S
C379 C380 1.362 1_565 S
C379 C382 1.378 . S
C379 H394 0.929 . S
C380 C379 1.362 1_545 S
C380 C381 1.366 . S
C381 C378 1.365 1_545 S
C381 C380 1.366 . S
C381 H395 0.930 . S
C382 C379 1.378 . S
C382 N383 1.315 . S
C382 H385 0.930 . S
N383 Co363 2.194 . S
N383 C378 1.328 . S
N383 C382 1.315 . S
H384 C378 0.929 . S
H385 C382 0.930 . S
H386 C374 0.929 . S
H387 C376 0.929 . S
O388 Co363 2.351 . S
O388 C391 1.244 . S
O389 Co363 2.155 . S
O389 C391 1.240 . S
O390 Co363 2.096 . S
O390 C371 1.247 . S
C391 O388 1.244 . S
C391 O389 1.240 . S
H392 C366 0.931 . S
H393 C375 0.931 . S
H394 C379 0.929 . S
H395 C381 0.930 . S
Co396 N400 2.148 . S
Co396 N406 2.128 . S
Co396 N416 2.194 . S
Co396 O421 2.351 . S
Co396 O422 2.155 . S
Co396 O423 2.096 . S
C397 N400 1.301 . S
C397 N401 1.328 . S
C397 H402 0.930 . S
C398 C399 1.333 . S
C398 N400 1.317 . S
C398 H403 0.930 . S
C399 C398 1.333 . S
C399 N401 1.350 . S
C399 H425 0.931 . S
N400 Co396 2.148 . S
N400 C397 1.301 . S
N400 C398 1.317 . S
N401 C397 1.328 . S
N401 C399 1.350 . S
H402 C397 0.930 . S
H403 C398 0.930 . S
C404 O405 1.224 . S
C404 O423 1.247 . S
O405 C404 1.224 . S
N406 Co396 2.128 . S
N406 C407 1.355 . S
N406 C409 1.311 . S
C407 N406 1.355 . S
C407 C408 1.363 . S
C407 H419 0.929 . S
C408 C407 1.363 . S
C408 N410 1.375 . S
C408 H426 0.931 . S
C409 N406 1.311 . S
C409 N410 1.347 . S
C409 H420 0.929 . S
N410 C408 1.375 . S
N410 C409 1.347 . S
C411 C414 1.365 . S
C411 N416 1.328 . S
C411 H417 0.929 . S
C412 C413 1.362 . S
C412 C415 1.378 . S
C412 H427 0.929 . S
C413 C412 1.362 . S
C413 C414 1.366 . S
C414 C411 1.365 . S
C414 C413 1.366 . S
C414 H428 0.930 . S
C415 C412 1.378 . S
C415 N416 1.315 . S
C415 H418 0.930 . S
N416 Co396 2.194 . S
N416 C411 1.328 . S
N416 C415 1.315 . S
H417 C411 0.929 . S
H418 C415 0.930 . S
H419 C407 0.929 . S
H420 C409 0.929 . S
O421 Co396 2.351 . S
O421 C424 1.244 . S
O422 Co396 2.155 . S
O422 C424 1.240 . S
O423 Co396 2.096 . S
O423 C404 1.247 . S
C424 O421 1.244 . S
C424 O422 1.240 . S
H425 C399 0.931 . S
H426 C408 0.931 . S
H427 C412 0.929 . S
H428 C414 0.930 . S
Co429 N433 2.148 . S
Co429 N439 2.128 . S
Co429 N449 2.194 . S
Co429 O454 2.351 . S
Co429 O455 2.155 . S
Co429 O456 2.096 . S
C430 N433 1.301 . S
C430 N434 1.328 . S
C430 H435 0.930 . S
C431 C432 1.333 . S
C431 N433 1.317 . S
C431 H436 0.930 . S
C432 C431 1.333 . S
C432 N434 1.350 . S
C432 H458 0.931 1_655 S
N433 Co429 2.148 . S
N433 C430 1.301 . S
N433 C431 1.317 . S
N434 C430 1.328 . S
N434 C432 1.350 . S
H435 C430 0.930 . S
H436 C431 0.930 . S
C437 O438 1.224 . S
C437 O456 1.247 . S
O438 C437 1.224 . S
N439 Co429 2.128 . S
N439 C440 1.355 . S
N439 C442 1.311 . S
C440 N439 1.355 . S
C440 C441 1.363 . S
C440 H452 0.929 . S
C441 C440 1.363 . S
C441 N443 1.375 . S
C441 H459 0.931 . S
C442 N439 1.311 . S
C442 N443 1.347 . S
C442 H453 0.929 . S
N443 C441 1.375 . S
N443 C442 1.347 . S
C444 C447 1.365 1_565 S
C444 N449 1.328 . S
C444 H450 0.929 . S
C445 C446 1.362 . S
C445 C448 1.378 1_545 S
C445 H460 0.929 . S
C446 C445 1.362 . S
C446 C447 1.366 . S
C447 C444 1.365 1_545 S
C447 C446 1.366 . S
C447 H461 0.930 . S
C448 C445 1.378 1_565 S
C448 N449 1.315 . S
C448 H451 0.930 . S
N449 Co429 2.194 . S
N449 C444 1.328 . S
N449 C448 1.315 . S
H450 C444 0.929 . S
H451 C448 0.930 . S
H452 C440 0.929 . S
H453 C442 0.929 . S
O454 Co429 2.351 . S
O454 C457 1.244 . S
O455 Co429 2.155 . S
O455 C457 1.240 . S
O456 Co429 2.096 . S
O456 C437 1.247 . S
C457 O454 1.244 . S
C457 O455 1.240 . S
H458 C432 0.931 1_455 S
H459 C441 0.931 . S
H460 C445 0.929 . S
H461 C447 0.930 . S
Co462 N466 2.148 . S
Co462 N472 2.128 1_556 S
Co462 N482 2.194 1_556 S
Co462 O487 2.351 . S
Co462 O488 2.155 . S
Co462 O489 2.096 . S
C463 N466 1.301 . S
C463 N467 1.328 . S
C463 H468 0.930 . S
C464 C465 1.333 . S
C464 N466 1.317 . S
C464 H469 0.930 . S
C465 C464 1.333 . S
C465 N467 1.350 . S
C465 H491 0.931 . S
N466 Co462 2.148 . S
N466 C463 1.301 . S
N466 C464 1.317 . S
N467 C463 1.328 . S
N467 C465 1.350 . S
H468 C463 0.930 . S
H469 C464 0.930 . S
C470 O471 1.224 . S
C470 O489 1.247 1_554 S
O471 C470 1.224 . S
N472 Co462 2.128 1_554 S
N472 C473 1.355 . S
N472 C475 1.311 . S
C473 N472 1.355 . S
C473 C474 1.363 . S
C473 H485 0.929 . S
C474 C473 1.363 . S
C474 N476 1.375 . S
C474 H492 0.931 . S
C475 N472 1.311 . S
C475 N476 1.347 . S
C475 H486 0.929 . S
N476 C474 1.375 . S
N476 C475 1.347 . S
C477 C480 1.365 . S
C477 N482 1.328 . S
C477 H483 0.929 1_554 S
C478 C479 1.362 . S
C478 C481 1.378 . S
C478 H493 0.929 . S
C479 C478 1.362 . S
C479 C480 1.366 . S
C480 C477 1.365 . S
C480 C479 1.366 . S
C480 H494 0.930 . S
C481 C478 1.378 . S
C481 N482 1.315 . S
C481 H484 0.930 . S
N482 Co462 2.194 1_554 S
N482 C477 1.328 . S
N482 C481 1.315 . S
H483 C477 0.929 1_556 S
H484 C481 0.930 . S
H485 C473 0.929 . S
H486 C475 0.929 . S
O487 Co462 2.351 . S
O487 C490 1.244 . S
O488 Co462 2.155 . S
O488 C490 1.240 . S
O489 Co462 2.096 . S
O489 C470 1.247 1_556 S
C490 O487 1.244 . S
C490 O488 1.240 . S
H491 C465 0.931 . S
H492 C474 0.931 . S
H493 C478 0.929 . S
H494 C480 0.930 . S
Co495 N499 2.148 . S
Co495 N505 2.128 . S
Co495 N515 2.194 . S
Co495 O520 2.351 . S
Co495 O521 2.155 . S
Co495 O522 2.096 . S
C496 N499 1.301 . S
C496 N500 1.328 . S
C496 H501 0.930 . S
C497 C498 1.333 . S
C497 N499 1.317 . S
C497 H502 0.930 . S
C498 C497 1.333 . S
C498 N500 1.350 . S
C498 H524 0.931 . S
N499 Co495 2.148 . S
N499 C496 1.301 . S
N499 C497 1.317 . S
N500 C496 1.328 . S
N500 C498 1.350 . S
H501 C496 0.930 . S
H502 C497 0.930 . S
C503 O504 1.224 . S
C503 O522 1.247 . S
O504 C503 1.224 . S
N505 Co495 2.128 . S
N505 C506 1.355 . S
N505 C508 1.311 . S
C506 N505 1.355 . S
C506 C507 1.363 . S
C506 H518 0.929 . S
C507 C506 1.363 . S
C507 N509 1.375 . S
C507 H525 0.931 . S
C508 N505 1.311 . S
C508 N509 1.347 . S
C508 H519 0.929 . S
N509 C507 1.375 . S
N509 C508 1.347 . S
C510 C513 1.365 1_545 S
C510 N515 1.328 . S
C510 H516 0.929 . S
C511 C512 1.362 . S
C511 C514 1.378 1_565 S
C511 H526 0.929 . S
C512 C511 1.362 . S
C512 C513 1.366 . S
C513 C510 1.365 1_565 S
C513 C512 1.366 . S
C513 H527 0.930 . S
C514 C511 1.378 1_545 S
C514 N515 1.315 . S
C514 H517 0.930 . S
N515 Co495 2.194 . S
N515 C510 1.328 . S
N515 C514 1.315 . S
H516 C510 0.929 . S
H517 C514 0.930 . S
H518 C506 0.929 . S
H519 C508 0.929 . S
O520 Co495 2.351 . S
O520 C523 1.244 . S
O521 Co495 2.155 . S
O521 C523 1.240 . S
O522 Co495 2.096 . S
O522 C503 1.247 . S
C523 O520 1.244 . S
C523 O521 1.240 . S
H524 C498 0.931 . S
H525 C507 0.931 . S
H526 C511 0.929 . S
H527 C513 0.930 . S
C528 C529 1.387 . S
C528 H532 0.950 . S
C528 C537 1.390 . S
C529 C528 1.387 . S
C529 C531 1.387 . S
H530 C537 0.950 . S
C531 C529 1.387 . S
C531 C533 1.390 . S
C531 H535 0.950 . S
H532 C528 0.950 . S
C533 C531 1.390 . S
C533 C534 1.387 . S
C533 H536 0.950 . S
C534 C533 1.387 . S
C534 C537 1.387 . S
H535 C531 0.950 . S
H536 C533 0.950 . S
C537 C528 1.390 . S
C537 H530 0.950 . S
C537 C534 1.387 . S
C538 C539 1.387 . S
C538 H542 0.950 . S
C538 C547 1.390 . S
C539 C538 1.387 . S
C539 C541 1.387 . S
H540 C547 0.950 . S
C541 C539 1.387 . S
C541 C543 1.390 . S
C541 H545 0.950 . S
H542 C538 0.950 . S
C543 C541 1.390 . S
C543 C544 1.387 . S
C543 H546 0.950 1_554 S
C544 C543 1.387 . S
C544 C547 1.387 . S
H545 C541 0.950 . S
H546 C543 0.950 1_556 S
C547 C538 1.390 . S
C547 H540 0.950 . S
C547 C544 1.387 . S
C548 C549 1.387 . S
C548 H552 0.950 . S
C548 C557 1.390 . S
C549 C548 1.387 . S
C549 C551 1.387 . S
H550 C557 0.950 1_655 S
C551 C549 1.387 . S
C551 C553 1.390 . S
C551 H555 0.950 . S
H552 C548 0.950 . S
C553 C551 1.390 . S
C553 C554 1.387 . S
C553 H556 0.950 . S
C554 C553 1.387 . S
C554 C557 1.387 . S
H555 C551 0.950 . S
H556 C553 0.950 . S
C557 C548 1.390 . S
C557 H550 0.950 1_455 S
C557 C554 1.387 . S
C558 C559 1.387 . S
C558 H562 0.950 . S
C558 C567 1.390 . S
C559 C558 1.387 . S
C559 C561 1.387 . S
H560 C567 0.950 . S
C561 C559 1.387 . S
C561 C563 1.390 . S
C561 H565 0.950 . S
H562 C558 0.950 . S
C563 C561 1.390 . S
C563 C564 1.387 . S
C563 H566 0.950 . S
C564 C563 1.387 . S
C564 C567 1.387 . S
H565 C561 0.950 . S
H566 C563 0.950 . S
C567 C558 1.390 . S
C567 H560 0.950 . S
C567 C564 1.387 . S
C568 C569 1.387 . S
C568 H572 0.950 . S
C568 C577 1.390 . S
C569 C568 1.387 . S
C569 C571 1.387 . S
H570 C577 0.950 . S
C571 C569 1.387 . S
C571 C573 1.390 . S
C571 H575 0.950 . S
H572 C568 0.950 . S
C573 C571 1.390 . S
C573 C574 1.387 . S
C573 H576 0.950 . S
C574 C573 1.387 . S
C574 C577 1.387 . S
H575 C571 0.950 . S
H576 C573 0.950 . S
C577 C568 1.390 . S
C577 H570 0.950 . S
C577 C574 1.387 . S
C578 C579 1.387 . S
C578 H582 0.950 . S
C578 C587 1.390 . S
C579 C578 1.387 . S
C579 C581 1.387 . S
H580 C587 0.950 . S
C581 C579 1.387 . S
C581 C583 1.390 . S
C581 H585 0.950 . S
H582 C578 0.950 . S
C583 C581 1.390 . S
C583 C584 1.387 . S
C583 H586 0.950 . S
C584 C583 1.387 . S
C584 C587 1.387 . S
H585 C581 0.950 . S
H586 C583 0.950 . S
C587 C578 1.390 . S
C587 H580 0.950 . S
C587 C584 1.387 . S
C588 C589 1.387 . S
C588 H592 0.950 . S
C588 C597 1.390 . S
C589 C588 1.387 . S
C589 C591 1.387 . S
H590 C597 0.950 . S
C591 C589 1.387 . S
C591 C593 1.390 . S
C591 H595 0.950 . S
H592 C588 0.950 . S
C593 C591 1.390 . S
C593 C594 1.387 . S
C593 H596 0.950 . S
C594 C593 1.387 . S
C594 C597 1.387 . S
H595 C591 0.950 . S
H596 C593 0.950 . S
C597 C588 1.390 . S
C597 H590 0.950 . S
C597 C594 1.387 . S
C598 C599 1.387 . S
C598 H602 0.950 . S
C598 C607 1.390 . S
C599 C598 1.387 . S
C599 C601 1.387 . S
H600 C607 0.950 . S
C601 C599 1.387 . S
C601 C603 1.390 . S
C601 H605 0.950 . S
H602 C598 0.950 . S
C603 C601 1.390 . S
C603 C604 1.387 . S
C603 H606 0.950 . S
C604 C603 1.387 . S
C604 C607 1.387 . S
H605 C601 0.950 . S
H606 C603 0.950 . S
C607 C598 1.390 . S
C607 H600 0.950 . S
C607 C604 1.387 . S
C608 C609 1.387 . S
C608 H612 0.950 . S
C608 C617 1.390 . S
C609 C608 1.387 . S
C609 C611 1.387 . S
H610 C617 0.950 . S
C611 C609 1.387 . S
C611 C613 1.390 . S
C611 H615 0.950 . S
H612 C608 0.950 . S
C613 C611 1.390 . S
C613 C614 1.387 . S
C613 H616 0.950 . S
C614 C613 1.387 . S
C614 C617 1.387 . S
H615 C611 0.950 . S
H616 C613 0.950 . S
C617 C608 1.390 . S
C617 H610 0.950 . S
C617 C614 1.387 . S
C618 C619 1.387 . S
C618 H622 0.950 . S
C618 C627 1.390 . S
C619 C618 1.387 . S
C619 C621 1.387 . S
H620 C627 0.950 . S
C621 C619 1.387 . S
C621 C623 1.390 . S
C621 H625 0.950 . S
H622 C618 0.950 . S
C623 C621 1.390 . S
C623 C624 1.387 . S
C623 H626 0.950 . S
C624 C623 1.387 . S
C624 C627 1.387 . S
H625 C621 0.950 . S
H626 C623 0.950 . S
C627 C618 1.390 . S
C627 H620 0.950 . S
C627 C624 1.387 . S
C628 C629 1.387 . S
C628 H632 0.950 . S
C628 C637 1.390 . S
C629 C628 1.387 . S
C629 C631 1.387 . S
H630 C637 0.950 . S
C631 C629 1.387 . S
C631 C633 1.390 . S
C631 H635 0.950 . S
H632 C628 0.950 . S
C633 C631 1.390 . S
C633 C634 1.387 . S
C633 H636 0.950 . S
C634 C633 1.387 . S
C634 C637 1.387 . S
H635 C631 0.950 . S
H636 C633 0.950 . S
C637 C628 1.390 . S
C637 H630 0.950 . S
C637 C634 1.387 . S
C638 C639 1.387 . S
C638 H642 0.950 . S
C638 C647 1.390 . S
C639 C638 1.387 . S
C639 C641 1.387 . S
H640 C647 0.950 . S
C641 C639 1.387 . S
C641 C643 1.390 . S
C641 H645 0.950 . S
H642 C638 0.950 . S
C643 C641 1.390 . S
C643 C644 1.387 . S
C643 H646 0.950 . S
C644 C643 1.387 . S
C644 C647 1.387 . S
H645 C641 0.950 . S
H646 C643 0.950 . S
C647 C638 1.390 . S
C647 H640 0.950 . S
C647 C644 1.387 . S
C648 C649 1.387 . S
C648 H652 0.950 . S
C648 C657 1.390 . S
C649 C648 1.387 . S
C649 C651 1.387 . S
H650 C657 0.950 . S
C651 C649 1.387 . S
C651 C653 1.390 . S
C651 H655 0.950 . S
H652 C648 0.950 . S
C653 C651 1.390 . S
C653 C654 1.387 . S
C653 H656 0.950 . S
C654 C653 1.387 . S
C654 C657 1.387 . S
H655 C651 0.950 . S
H656 C653 0.950 . S
C657 C648 1.390 . S
C657 H650 0.950 . S
C657 C654 1.387 . S
C658 C659 1.387 . S
C658 H662 0.950 . S
C658 C667 1.390 . S
C659 C658 1.387 . S
C659 C661 1.387 . S
H660 C667 0.950 . S
C661 C659 1.387 . S
C661 C663 1.390 . S
C661 H665 0.950 . S
H662 C658 0.950 . S
C663 C661 1.390 . S
C663 C664 1.387 . S
C663 H666 0.950 . S
C664 C663 1.387 . S
C664 C667 1.387 . S
H665 C661 0.950 . S
H666 C663 0.950 . S
C667 C658 1.390 . S
C667 H660 0.950 . S
C667 C664 1.387 . S
C668 C669 1.387 . S
C668 H672 0.950 . S
C668 C677 1.390 . S
C669 C668 1.387 . S
C669 C671 1.387 . S
H670 C677 0.950 . S
C671 C669 1.387 . S
C671 C673 1.390 . S
C671 H675 0.950 . S
H672 C668 0.950 . S
C673 C671 1.390 . S
C673 C674 1.387 . S
C673 H676 0.950 . S
C674 C673 1.387 . S
C674 C677 1.387 . S
H675 C671 0.950 . S
H676 C673 0.950 . S
C677 C668 1.390 . S
C677 H670 0.950 . S
C677 C674 1.387 . S
C678 C679 1.387 . S
C678 H682 0.950 . S
C678 C687 1.390 . S
C679 C678 1.387 . S
C679 C681 1.387 . S
H680 C687 0.950 . S
C681 C679 1.387 . S
C681 C683 1.390 . S
C681 H685 0.950 . S
H682 C678 0.950 . S
C683 C681 1.390 . S
C683 C684 1.387 . S
C683 H686 0.950 1_556 S
C684 C683 1.387 . S
C684 C687 1.387 . S
H685 C681 0.950 . S
H686 C683 0.950 1_554 S
C687 C678 1.390 . S
C687 H680 0.950 . S
C687 C684 1.387 . S
C688 C689 1.387 . S
C688 H692 0.950 . S
C688 C697 1.390 . S
C689 C688 1.387 . S
C689 C691 1.387 . S
H690 C697 0.950 . S
C691 C689 1.387 . S
C691 C693 1.390 . S
C691 H695 0.950 . S
H692 C688 0.950 . S
C693 C691 1.390 . S
C693 C694 1.387 . S
C693 H696 0.950 . S
C694 C693 1.387 . S
C694 C697 1.387 . S
H695 C691 0.950 . S
H696 C693 0.950 . S
C697 C688 1.390 . S
C697 H690 0.950 . S
C697 C694 1.387 . S
C698 C699 1.387 . S
C698 H702 0.950 . S
C698 C707 1.390 . S
C699 C698 1.387 . S
C699 C701 1.387 . S
H700 C707 0.950 . S
C701 C699 1.387 . S
C701 C703 1.390 . S
C701 H705 0.950 . S
H702 C698 0.950 . S
C703 C701 1.390 . S
C703 C704 1.387 . S
C703 H706 0.950 . S
C704 C703 1.387 . S
C704 C707 1.387 . S
H705 C701 0.950 . S
H706 C703 0.950 . S
C707 C698 1.390 . S
C707 H700 0.950 . S
C707 C704 1.387 . S
C708 C709 1.387 . S
C708 H712 0.950 . S
C708 C717 1.390 . S
C709 C708 1.387 . S
C709 C711 1.387 . S
H710 C717 0.950 . S
C711 C709 1.387 . S
C711 C713 1.390 . S
C711 H715 0.950 . S
H712 C708 0.950 . S
C713 C711 1.390 . S
C713 C714 1.387 . S
C713 H716 0.950 . S
C714 C713 1.387 . S
C714 C717 1.387 . S
H715 C711 0.950 . S
H716 C713 0.950 . S
C717 C708 1.390 . S
C717 H710 0.950 . S
C717 C714 1.387 . S
C718 C719 1.387 . S
C718 H722 0.950 . S
C718 C727 1.393 . S
C719 C718 1.387 . S
C719 C721 1.387 1_455 S
H720 C727 0.949 1_554 S
C721 C719 1.387 1_655 S
C721 C723 1.390 1_556 S
C721 H725 0.950 . S
H722 C718 0.950 . S
C723 C721 1.390 1_554 S
C723 C724 1.387 1_655 S
C723 H726 0.950 . S
C724 C723 1.387 1_455 S
C724 C727 1.385 1_554 S
H725 C721 0.950 . S
H726 C723 0.950 . S
C727 C718 1.393 . S
C727 H720 0.949 1_556 S
C727 C724 1.385 1_556 S
C728 C729 1.387 . S
C728 H732 0.950 . S
C728 C737 1.390 . S
C729 C728 1.387 . S
C729 C731 1.387 . S
H730 C737 0.950 . S
C731 C729 1.387 . S
C731 C733 1.390 . S
C731 H735 0.950 . S
H732 C728 0.950 . S
C733 C731 1.390 . S
C733 C734 1.387 . S
C733 H736 0.950 . S
C734 C733 1.387 . S
C734 C737 1.387 . S
H735 C731 0.950 . S
H736 C733 0.950 . S
C737 C728 1.390 . S
C737 H730 0.950 . S
C737 C734 1.387 . S
C738 C739 1.387 . S
C738 H742 0.950 . S
C738 C747 1.390 . S
C739 C738 1.387 . S
C739 C741 1.387 . S
H740 C747 0.950 . S
C741 C739 1.387 . S
C741 C743 1.390 . S
C741 H745 0.950 . S
H742 C738 0.950 . S
C743 C741 1.390 . S
C743 C744 1.387 . S
C743 H746 0.950 . S
C744 C743 1.387 . S
C744 C747 1.387 . S
H745 C741 0.950 . S
H746 C743 0.950 . S
C747 C738 1.390 . S
C747 H740 0.950 . S
C747 C744 1.387 . S
C748 C749 1.387 1_565 S
C748 H752 0.950 . S
C748 C757 1.390 1_654 S
C749 C748 1.387 1_545 S
C749 C751 1.387 . S
H750 C757 0.950 . S
C751 C749 1.387 . S
C751 C753 1.390 1_554 S
C751 H755 0.950 . S
H752 C748 0.950 . S
C753 C751 1.390 1_556 S
C753 C754 1.387 . S
C753 H756 0.950 . S
C754 C753 1.387 . S
C754 C757 1.387 1_645 S
H755 C751 0.950 . S
H756 C753 0.950 . S
C757 C748 1.390 1_456 S
C757 H750 0.950 . S
C757 C754 1.387 1_465 S
C758 C759 1.387 . S
C758 H762 0.950 . S
C758 C767 1.390 . S
C759 C758 1.387 . S
C759 C761 1.387 1_565 S
H760 C767 0.950 . S
C761 C759 1.387 1_545 S
C761 C763 1.390 . S
C761 H765 0.950 . S
H762 C758 0.950 . S
C763 C761 1.390 . S
C763 C764 1.387 1_545 S
C763 H766 0.950 . S
C764 C763 1.387 1_565 S
C764 C767 1.387 . S
H765 C761 0.950 . S
H766 C763 0.950 . S
C767 C758 1.390 . S
C767 H760 0.950 . S
C767 C764 1.387 . S
C768 C769 1.387 . S
C768 H772 0.950 . S
C768 C777 1.390 . S
C769 C768 1.387 . S
C769 C771 1.387 . S
H770 C777 0.950 . S
C771 C769 1.387 . S
C771 C773 1.390 . S
C771 H775 0.950 . S
H772 C768 0.950 . S
C773 C771 1.390 . S
C773 C774 1.387 . S
C773 H776 0.950 . S
C774 C773 1.387 . S
C774 C777 1.387 . S
H775 C771 0.950 . S
H776 C773 0.950 . S
C777 C768 1.390 . S
C777 H770 0.950 . S
C777 C774 1.387 . S
C778 C779 1.387 . S
C778 H782 0.950 . S
C778 C787 1.390 . S
C779 C778 1.387 . S
C779 C781 1.387 . S
H780 C787 0.950 . S
C781 C779 1.387 . S
C781 C783 1.390 . S
C781 H785 0.950 . S
H782 C778 0.950 . S
C783 C781 1.390 . S
C783 C784 1.387 . S
C783 H786 0.950 . S
C784 C783 1.387 . S
C784 C787 1.387 . S
H785 C781 0.950 . S
H786 C783 0.950 . S
C787 C778 1.390 . S
C787 H780 0.950 . S
C787 C784 1.387 . S
C788 C789 1.387 . S
C788 H792 0.950 . S
C788 C797 1.390 . S
C789 C788 1.387 . S
C789 C791 1.387 . S
H790 C797 0.950 . S
C791 C789 1.387 . S
C791 C793 1.390 . S
C791 H795 0.950 . S
H792 C788 0.950 . S
C793 C791 1.390 . S
C793 C794 1.387 . S
C793 H796 0.950 . S
C794 C793 1.387 . S
C794 C797 1.387 . S
H795 C791 0.950 . S
H796 C793 0.950 . S
C797 C788 1.390 . S
C797 H790 0.950 . S
C797 C794 1.387 . S
C798 C799 1.387 . S
C798 H802 0.950 . S
C798 C807 1.390 . S
C799 C798 1.387 . S
C799 C801 1.387 . S
H800 C807 0.950 . S
C801 C799 1.387 . S
C801 C803 1.390 . S
C801 H805 0.950 . S
H802 C798 0.950 . S
C803 C801 1.390 . S
C803 C804 1.387 . S
C803 H806 0.950 . S
C804 C803 1.387 . S
C804 C807 1.387 . S
H805 C801 0.950 . S
H806 C803 0.950 . S
C807 C798 1.390 . S
C807 H800 0.950 . S
C807 C804 1.387 . S
C808 C809 1.387 . S
C808 H812 0.950 . S
C808 C817 1.390 . S
C809 C808 1.387 . S
C809 C811 1.387 . S
H810 C817 0.950 . S
C811 C809 1.387 . S
C811 C813 1.390 . S
C811 H815 0.950 . S
H812 C808 0.950 . S
C813 C811 1.390 . S
C813 C814 1.387 . S
C813 H816 0.950 . S
C814 C813 1.387 . S
C814 C817 1.387 . S
H815 C811 0.950 . S
H816 C813 0.950 . S
C817 C808 1.390 . S
C817 H810 0.950 . S
C817 C814 1.387 . S
C818 C819 1.387 . S
C818 H822 0.950 . S
C818 C827 1.390 . S
C819 C818 1.387 . S
C819 C821 1.387 . S
H820 C827 0.950 . S
C821 C819 1.387 . S
C821 C823 1.390 . S
C821 H825 0.950 . S
H822 C818 0.950 . S
C823 C821 1.390 . S
C823 C824 1.387 . S
C823 H826 0.950 . S
C824 C823 1.387 . S
C824 C827 1.387 . S
H825 C821 0.950 . S
H826 C823 0.950 . S
C827 C818 1.390 . S
C827 H820 0.950 . S
C827 C824 1.387 . S
C828 C829 1.387 . S
C828 H832 0.950 . S
C828 C837 1.390 . S
C829 C828 1.387 . S
C829 C831 1.387 . S
H830 C837 0.950 . S
C831 C829 1.387 . S
C831 C833 1.390 . S
C831 H835 0.950 . S
H832 C828 0.950 . S
C833 C831 1.390 . S
C833 C834 1.387 . S
C833 H836 0.950 . S
C834 C833 1.387 . S
C834 C837 1.387 . S
H835 C831 0.950 . S
H836 C833 0.950 . S
C837 C828 1.390 . S
C837 H830 0.950 . S
C837 C834 1.387 . S
C838 C839 1.387 . S
C838 H842 0.950 . S
C838 C847 1.390 . S
C839 C838 1.387 . S
C839 C841 1.387 . S
H840 C847 0.950 . S
C841 C839 1.387 . S
C841 C843 1.390 . S
C841 H845 0.950 . S
H842 C838 0.950 . S
C843 C841 1.390 . S
C843 C844 1.387 . S
C843 H846 0.950 . S
C844 C843 1.387 . S
C844 C847 1.387 . S
H845 C841 0.950 . S
H846 C843 0.950 . S
C847 C838 1.390 . S
C847 H840 0.950 . S
C847 C844 1.387 . S
C848 C849 1.387 . S
C848 H852 0.950 . S
C848 C857 1.390 . S
C849 C848 1.387 . S
C849 C851 1.387 . S
H850 C857 0.950 . S
C851 C849 1.387 . S
C851 C853 1.390 . S
C851 H855 0.950 . S
H852 C848 0.950 . S
C853 C851 1.390 . S
C853 C854 1.387 . S
C853 H856 0.950 . S
C854 C853 1.387 . S
C854 C857 1.387 . S
H855 C851 0.950 . S
H856 C853 0.950 . S
C857 C848 1.390 . S
C857 H850 0.950 . S
C857 C854 1.387 . S
C858 C859 1.387 . S
C858 H862 0.950 . S
C858 C867 1.390 . S
C859 C858 1.387 . S
C859 C861 1.387 . S
H860 C867 0.950 . S
C861 C859 1.387 . S
C861 C863 1.390 . S
C861 H865 0.950 . S
H862 C858 0.950 . S
C863 C861 1.390 . S
C863 C864 1.387 . S
C863 H866 0.950 . S
C864 C863 1.387 . S
C864 C867 1.387 . S
H865 C861 0.950 . S
H866 C863 0.950 . S
C867 C858 1.390 . S
C867 H860 0.950 . S
C867 C864 1.387 . S
C868 C869 1.387 . S
C868 H872 0.950 . S
C868 C877 1.390 . S
C869 C868 1.387 . S
C869 C871 1.387 . S
H870 C877 0.950 . S
C871 C869 1.387 . S
C871 C873 1.390 . S
C871 H875 0.950 . S
H872 C868 0.950 . S
C873 C871 1.390 . S
C873 C874 1.387 . S
C873 H876 0.950 . S
C874 C873 1.387 . S
C874 C877 1.387 . S
H875 C871 0.950 . S
H876 C873 0.950 . S
C877 C868 1.390 . S
C877 H870 0.950 . S
C877 C874 1.387 . S
C878 C879 1.387 . S
C878 H882 0.950 . S
C878 C887 1.390 . S
C879 C878 1.387 . S
C879 C881 1.387 . S
H880 C887 0.950 . S
C881 C879 1.387 . S
C881 C883 1.390 . S
C881 H885 0.950 . S
H882 C878 0.950 . S
C883 C881 1.390 . S
C883 C884 1.387 . S
C883 H886 0.950 . S
C884 C883 1.387 . S
C884 C887 1.387 . S
H885 C881 0.950 . S
H886 C883 0.950 . S
C887 C878 1.390 . S
C887 H880 0.950 . S
C887 C884 1.387 . S
C888 C889 1.387 . S
C888 H892 0.950 . S
C888 C897 1.390 . S
C889 C888 1.387 . S
C889 C891 1.387 . S
H890 C897 0.950 . S
C891 C889 1.387 . S
C891 C893 1.390 . S
C891 H895 0.950 . S
H892 C888 0.950 . S
C893 C891 1.390 . S
C893 C894 1.387 . S
C893 H896 0.950 . S
C894 C893 1.387 . S
C894 C897 1.387 . S
H895 C891 0.950 . S
H896 C893 0.950 . S
C897 C888 1.390 . S
C897 H890 0.950 . S
C897 C894 1.387 . S
C898 C899 1.387 . S
C898 H902 0.950 . S
C898 C907 1.390 . S
C899 C898 1.387 . S
C899 C901 1.387 . S
H900 C907 0.950 . S
C901 C899 1.387 . S
C901 C903 1.390 . S
C901 H905 0.950 . S
H902 C898 0.950 . S
C903 C901 1.390 . S
C903 C904 1.387 . S
C903 H906 0.950 . S
C904 C903 1.387 . S
C904 C907 1.387 . S
H905 C901 0.950 . S
H906 C903 0.950 . S
C907 C898 1.390 . S
C907 H900 0.950 . S
C907 C904 1.387 . S
C908 C909 1.387 . S
C908 H912 0.950 . S
C908 C917 1.390 . S
C909 C908 1.387 . S
C909 C911 1.387 . S
H910 C917 0.950 . S
C911 C909 1.387 . S
C911 C913 1.390 . S
C911 H915 0.950 . S
H912 C908 0.950 . S
C913 C911 1.390 . S
C913 C914 1.387 . S
C913 H916 0.950 . S
C914 C913 1.387 . S
C914 C917 1.387 . S
H915 C911 0.950 . S
H916 C913 0.950 . S
C917 C908 1.390 . S
C917 H910 0.950 . S
C917 C914 1.387 . S
C918 C919 1.387 . S
C918 H922 0.950 . S
C918 C927 1.390 . S
C919 C918 1.387 . S
C919 C921 1.387 . S
H920 C927 0.950 . S
C921 C919 1.387 . S
C921 C923 1.390 . S
C921 H925 0.950 . S
H922 C918 0.950 . S
C923 C921 1.390 . S
C923 C924 1.387 . S
C923 H926 0.950 . S
C924 C923 1.387 . S
C924 C927 1.387 . S
H925 C921 0.950 . S
H926 C923 0.950 . S
C927 C918 1.390 . S
C927 H920 0.950 . S
C927 C924 1.387 . S
C529 C503 1.617 . S
C534 N14 1.586 . S
C539 N47 1.591 . S
C544 C140 1.624 . S
C549 N80 1.578 . S
C554 C437 1.609 1_455 S
C559 N113 1.574 . S
C564 C206 1.605 . S
C569 N146 1.513 . S
C574 C391 1.532 . S
C579 C28 1.540 . S
C584 N179 1.519 . S
C589 C325 1.524 . S
C594 N212 1.503 . S
C599 N245 1.496 . S
C604 C94 1.520 . S
C609 N278 1.579 . S
C614 C239 1.610 1_655 S
C619 N311 1.572 . S
C624 C404 1.603 . S
C629 C173 1.617 . S
C634 N344 1.588 . S
C639 N377 1.592 . S
C644 C470 1.625 . S
C649 N410 1.502 . S
C654 C127 1.526 . S
C659 N443 1.498 . S
C664 C292 1.520 . S
C669 C61 1.531 . S
C674 N476 1.513 . S
C679 N509 1.518 . S
C684 C358 1.540 . S
C689 N5 1.584 . S
C694 N401 1.653 . S
C699 N170 1.686 . S
C704 N38 1.610 . S
C709 N71 1.588 . S
C714 N467 1.654 . S
C719 N104 1.594 1_455 S
C724 N236 1.664 . S
C729 N269 1.583 . S
C734 N137 1.654 . S
C739 N335 1.586 . S
C744 N203 1.652 . S
C749 N434 1.665 1_545 S
C754 N302 1.596 1_655 S
C759 N368 1.610 . S
C764 N500 1.686 1_565 S
C769 C305 1.604 . S
C774 C17 1.644 . S
C779 C50 1.614 . S
C784 C338 1.572 . S
C789 C83 1.630 . S
C794 C371 1.590 . S
C799 C272 1.599 . S
C804 C116 1.640 . S
C809 C149 1.165 . S
C814 C457 1.128 . S
C819 C182 1.141 . S
C824 C490 1.098 . S
C829 C215 1.152 . S
C834 C523 1.113 . S
C839 C248 1.162 . S
C844 C424 1.122 . S
C849 C41 1.590 . S
C854 C281 1.630 . S
C859 C314 1.641 . S
C864 C74 1.602 . S
C869 C347 1.643 . S
C874 C107 1.605 . S
C879 C380 1.613 . S
C884 C8 1.572 . S
C889 C413 1.152 . S
C894 C193 1.111 . S
C899 C226 1.123 . S
C904 C446 1.163 . S
C909 C259 1.127 . S
C914 C479 1.167 . S
C919 C512 1.139 . S
C924 C160 1.096 . S
