# Generated by pormake.
# Topology yft, (5)-cn, num edge types: 1
# Building blocks:
#     Node 0, Type 0, BuildingBlock: XOMCOT_clean_sbu_1, # of connection points: 5
#     Node 1, Type 0, BuildingBlock: XOMCOT_clean_sbu_1, # of connection points: 5
#     Node 2, Type 0, BuildingBlock: XOMCOT_clean_sbu_1, # of connection points: 5
#     Node 3, Type 0, BuildingBlock: XOMCOT_clean_sbu_1, # of connection points: 5
#     Node 4, Type 0, BuildingBlock: XOMCOT_clean_sbu_1, # of connection points: 5
#     Node 5, Type 0, BuildingBlock: XOMCOT_clean_sbu_1, # of connection points: 5
#     Node 6, Type 0, BuildingBlock: XOMCOT_clean_sbu_1, # of connection points: 5
#     Node 7, Type 0, BuildingBlock: XOMCOT_clean_sbu_1, # of connection points: 5
#     Node 8, Type 0, BuildingBlock: XOMCOT_clean_sbu_1, # of connection points: 5
#     Node 9, Type 0, BuildingBlock: XOMCOT_clean_sbu_1, # of connection points: 5
#     Node 10, Type 0, BuildingBlock: XOMCOT_clean_sbu_1, # of connection points: 5
#     Node 11, Type 0, BuildingBlock: XOMCOT_clean_sbu_1, # of connection points: 5
#     Node 12, Type 0, BuildingBlock: XOMCOT_clean_sbu_1, # of connection points: 5
#     Node 13, Type 0, BuildingBlock: XOMCOT_clean_sbu_1, # of connection points: 5
#     Node 14, Type 0, BuildingBlock: XOMCOT_clean_sbu_1, # of connection points: 5
#     Node 15, Type 0, BuildingBlock: XOMCOT_clean_sbu_1, # of connection points: 5
#     Node 16, Type 0, BuildingBlock: XOMCOT_clean_sbu_1, # of connection points: 5
#     Node 17, Type 0, BuildingBlock: XOMCOT_clean_sbu_1, # of connection points: 5
#     Node 18, Type 0, BuildingBlock: XOMCOT_clean_sbu_1, # of connection points: 5
#     Node 19, Type 0, BuildingBlock: XOMCOT_clean_sbu_1, # of connection points: 5
#     Node 20, Type 0, BuildingBlock: XOMCOT_clean_sbu_1, # of connection points: 5
#     Node 21, Type 0, BuildingBlock: XOMCOT_clean_sbu_1, # of connection points: 5
#     Node 22, Type 0, BuildingBlock: XOMCOT_clean_sbu_1, # of connection points: 5
#     Node 23, Type 0, BuildingBlock: XOMCOT_clean_sbu_1, # of connection points: 5
#     Node 24, Type 0, BuildingBlock: XOMCOT_clean_sbu_1, # of connection points: 5
#     Node 25, Type 0, BuildingBlock: XOMCOT_clean_sbu_1, # of connection points: 5
#     Node 26, Type 0, BuildingBlock: XOMCOT_clean_sbu_1, # of connection points: 5
#     Node 27, Type 0, BuildingBlock: XOMCOT_clean_sbu_1, # of connection points: 5
#     Node 28, Type 0, BuildingBlock: XOMCOT_clean_sbu_1, # of connection points: 5
#     Node 29, Type 0, BuildingBlock: XOMCOT_clean_sbu_1, # of connection points: 5
#     Node 30, Type 0, BuildingBlock: XOMCOT_clean_sbu_1, # of connection points: 5
#     Node 31, Type 0, BuildingBlock: XOMCOT_clean_sbu_1, # of connection points: 5
#     Edge 32, Type (0, 0), BuildingBlock: KIFKEQ_clean_linker_1, # of connection points: 2
#     Edge 33, Type (0, 0), BuildingBlock: KIFKEQ_clean_linker_1, # of connection points: 2
#     Edge 34, Type (0, 0), BuildingBlock: KIFKEQ_clean_linker_1, # of connection points: 2
#     Edge 35, Type (0, 0), BuildingBlock: KIFKEQ_clean_linker_1, # of connection points: 2
#     Edge 36, Type (0, 0), BuildingBlock: KIFKEQ_clean_linker_1, # of connection points: 2
#     Edge 37, Type (0, 0), BuildingBlock: KIFKEQ_clean_linker_1, # of connection points: 2
#     Edge 38, Type (0, 0), BuildingBlock: KIFKEQ_clean_linker_1, # of connection points: 2
#     Edge 39, Type (0, 0), BuildingBlock: KIFKEQ_clean_linker_1, # of connection points: 2
#     Edge 40, Type (0, 0), BuildingBlock: KIFKEQ_clean_linker_1, # of connection points: 2
#     Edge 41, Type (0, 0), BuildingBlock: KIFKEQ_clean_linker_1, # of connection points: 2
#     Edge 42, Type (0, 0), BuildingBlock: KIFKEQ_clean_linker_1, # of connection points: 2
#     Edge 43, Type (0, 0), BuildingBlock: KIFKEQ_clean_linker_1, # of connection points: 2
#     Edge 44, Type (0, 0), BuildingBlock: KIFKEQ_clean_linker_1, # of connection points: 2
#     Edge 45, Type (0, 0), BuildingBlock: KIFKEQ_clean_linker_1, # of connection points: 2
#     Edge 46, Type (0, 0), BuildingBlock: KIFKEQ_clean_linker_1, # of connection points: 2
#     Edge 47, Type (0, 0), BuildingBlock: KIFKEQ_clean_linker_1, # of connection points: 2
#     Edge 48, Type (0, 0), BuildingBlock: KIFKEQ_clean_linker_1, # of connection points: 2
#     Edge 49, Type (0, 0), BuildingBlock: KIFKEQ_clean_linker_1, # of connection points: 2
#     Edge 50, Type (0, 0), BuildingBlock: KIFKEQ_clean_linker_1, # of connection points: 2
#     Edge 51, Type (0, 0), BuildingBlock: KIFKEQ_clean_linker_1, # of connection points: 2
#     Edge 52, Type (0, 0), BuildingBlock: KIFKEQ_clean_linker_1, # of connection points: 2
#     Edge 53, Type (0, 0), BuildingBlock: KIFKEQ_clean_linker_1, # of connection points: 2
#     Edge 54, Type (0, 0), BuildingBlock: KIFKEQ_clean_linker_1, # of connection points: 2
#     Edge 55, Type (0, 0), BuildingBlock: KIFKEQ_clean_linker_1, # of connection points: 2
#     Edge 56, Type (0, 0), BuildingBlock: KIFKEQ_clean_linker_1, # of connection points: 2
#     Edge 57, Type (0, 0), BuildingBlock: KIFKEQ_clean_linker_1, # of connection points: 2
#     Edge 58, Type (0, 0), BuildingBlock: KIFKEQ_clean_linker_1, # of connection points: 2
#     Edge 59, Type (0, 0), BuildingBlock: KIFKEQ_clean_linker_1, # of connection points: 2
#     Edge 60, Type (0, 0), BuildingBlock: KIFKEQ_clean_linker_1, # of connection points: 2
#     Edge 61, Type (0, 0), BuildingBlock: KIFKEQ_clean_linker_1, # of connection points: 2
#     Edge 62, Type (0, 0), BuildingBlock: KIFKEQ_clean_linker_1, # of connection points: 2
#     Edge 63, Type (0, 0), BuildingBlock: KIFKEQ_clean_linker_1, # of connection points: 2
#     Edge 64, Type (0, 0), BuildingBlock: KIFKEQ_clean_linker_1, # of connection points: 2
#     Edge 65, Type (0, 0), BuildingBlock: KIFKEQ_clean_linker_1, # of connection points: 2
#     Edge 66, Type (0, 0), BuildingBlock: KIFKEQ_clean_linker_1, # of connection points: 2
#     Edge 67, Type (0, 0), BuildingBlock: KIFKEQ_clean_linker_1, # of connection points: 2
#     Edge 68, Type (0, 0), BuildingBlock: KIFKEQ_clean_linker_1, # of connection points: 2
#     Edge 69, Type (0, 0), BuildingBlock: KIFKEQ_clean_linker_1, # of connection points: 2
#     Edge 70, Type (0, 0), BuildingBlock: KIFKEQ_clean_linker_1, # of connection points: 2
#     Edge 71, Type (0, 0), BuildingBlock: KIFKEQ_clean_linker_1, # of connection points: 2
#     Edge 72, Type (0, 0), BuildingBlock: KIFKEQ_clean_linker_1, # of connection points: 2
#     Edge 73, Type (0, 0), BuildingBlock: KIFKEQ_clean_linker_1, # of connection points: 2
#     Edge 74, Type (0, 0), BuildingBlock: KIFKEQ_clean_linker_1, # of connection points: 2
#     Edge 75, Type (0, 0), BuildingBlock: KIFKEQ_clean_linker_1, # of connection points: 2
#     Edge 76, Type (0, 0), BuildingBlock: KIFKEQ_clean_linker_1, # of connection points: 2
#     Edge 77, Type (0, 0), BuildingBlock: KIFKEQ_clean_linker_1, # of connection points: 2
#     Edge 78, Type (0, 0), BuildingBlock: KIFKEQ_clean_linker_1, # of connection points: 2
#     Edge 79, Type (0, 0), BuildingBlock: KIFKEQ_clean_linker_1, # of connection points: 2
#     Edge 80, Type (0, 0), BuildingBlock: KIFKEQ_clean_linker_1, # of connection points: 2
#     Edge 81, Type (0, 0), BuildingBlock: KIFKEQ_clean_linker_1, # of connection points: 2
#     Edge 82, Type (0, 0), BuildingBlock: KIFKEQ_clean_linker_1, # of connection points: 2
#     Edge 83, Type (0, 0), BuildingBlock: KIFKEQ_clean_linker_1, # of connection points: 2
#     Edge 84, Type (0, 0), BuildingBlock: KIFKEQ_clean_linker_1, # of connection points: 2
#     Edge 85, Type (0, 0), BuildingBlock: KIFKEQ_clean_linker_1, # of connection points: 2
#     Edge 86, Type (0, 0), BuildingBlock: KIFKEQ_clean_linker_1, # of connection points: 2
#     Edge 87, Type (0, 0), BuildingBlock: KIFKEQ_clean_linker_1, # of connection points: 2
#     Edge 88, Type (0, 0), BuildingBlock: KIFKEQ_clean_linker_1, # of connection points: 2
#     Edge 89, Type (0, 0), BuildingBlock: KIFKEQ_clean_linker_1, # of connection points: 2
#     Edge 90, Type (0, 0), BuildingBlock: KIFKEQ_clean_linker_1, # of connection points: 2
#     Edge 91, Type (0, 0), BuildingBlock: KIFKEQ_clean_linker_1, # of connection points: 2
#     Edge 92, Type (0, 0), BuildingBlock: KIFKEQ_clean_linker_1, # of connection points: 2
#     Edge 93, Type (0, 0), BuildingBlock: KIFKEQ_clean_linker_1, # of connection points: 2
#     Edge 94, Type (0, 0), BuildingBlock: KIFKEQ_clean_linker_1, # of connection points: 2
#     Edge 95, Type (0, 0), BuildingBlock: KIFKEQ_clean_linker_1, # of connection points: 2
#     Edge 96, Type (0, 0), BuildingBlock: KIFKEQ_clean_linker_1, # of connection points: 2
#     Edge 97, Type (0, 0), BuildingBlock: KIFKEQ_clean_linker_1, # of connection points: 2
#     Edge 98, Type (0, 0), BuildingBlock: KIFKEQ_clean_linker_1, # of connection points: 2
#     Edge 99, Type (0, 0), BuildingBlock: KIFKEQ_clean_linker_1, # of connection points: 2
#     Edge 100, Type (0, 0), BuildingBlock: KIFKEQ_clean_linker_1, # of connection points: 2
#     Edge 101, Type (0, 0), BuildingBlock: KIFKEQ_clean_linker_1, # of connection points: 2
#     Edge 102, Type (0, 0), BuildingBlock: KIFKEQ_clean_linker_1, # of connection points: 2
#     Edge 103, Type (0, 0), BuildingBlock: KIFKEQ_clean_linker_1, # of connection points: 2
#     Edge 104, Type (0, 0), BuildingBlock: KIFKEQ_clean_linker_1, # of connection points: 2
#     Edge 105, Type (0, 0), BuildingBlock: KIFKEQ_clean_linker_1, # of connection points: 2
#     Edge 106, Type (0, 0), BuildingBlock: KIFKEQ_clean_linker_1, # of connection points: 2
#     Edge 107, Type (0, 0), BuildingBlock: KIFKEQ_clean_linker_1, # of connection points: 2
#     Edge 108, Type (0, 0), BuildingBlock: KIFKEQ_clean_linker_1, # of connection points: 2
#     Edge 109, Type (0, 0), BuildingBlock: KIFKEQ_clean_linker_1, # of connection points: 2
#     Edge 110, Type (0, 0), BuildingBlock: KIFKEQ_clean_linker_1, # of connection points: 2
#     Edge 111, Type (0, 0), BuildingBlock: KIFKEQ_clean_linker_1, # of connection points: 2
# Relax obj value: 0.664
# Max RMSD: 0.298
# Mean RMSD: 0.298
data_MOF--net-yft--node1-XOMCOT_clean_sbu_1--edge1-KIFKEQ_clean_linker_1
_symmetry_space_group_name_H-M    P1
_symmetry_Int_Tables_number       1
_symmetry_cell_setting            triclinic
loop_
_symmetry_equiv_pos_as_xyz
'x, y, z'
_cell_length_a     41.148929
_cell_length_b     41.152092
_cell_length_c     93.30561
_cell_angle_alpha  89.990924
_cell_angle_beta   90.003744
_cell_angle_gamma 90.011999
loop_
_atom_site_label
_atom_site_type_symbol
_atom_site_fract_x
_atom_site_fract_y
_atom_site_fract_z
_atom_type_partial_charge
C0 C 0.22206 0.22191 0.17058 0.0
C1 C 0.19692 0.20354 0.16521 0.0
N2 N 0.20941 0.1799 0.15683 0.0
N3 N 0.25045 0.20998 0.16572 0.0
C4 C 0.242 0.18421 0.15749 0.0
H5 H 0.21968 0.24372 0.17695 0.0
Co6 Co 0.29038 0.23101 0.16775 0.0
C7 C 0.33894 0.18122 0.15979 0.0
O8 O 0.35492 0.20234 0.15193 0.0
N9 N 0.33099 0.2535 0.17003 0.0
C10 C 0.36864 0.29235 0.16888 0.0
C11 C 0.3367 0.2847 0.16633 0.0
C12 C 0.35981 0.24352 0.17568 0.0
N13 N 0.38363 0.26619 0.1745 0.0
O14 O 0.28818 0.22548 0.18795 0.0
H15 H 0.31892 0.30134 0.16208 0.0
H16 H 0.36351 0.21962 0.18015 0.0
O17 O 0.31279 0.18927 0.16621 0.0
C18 C 0.28002 0.25137 0.1945 0.0
O19 O 0.27532 0.27799 0.187 0.0
N20 N 0.29011 0.23892 0.14792 0.0
C21 C 0.29094 0.26376 0.12019 0.0
C22 C 0.29783 0.23081 0.1227 0.0
C23 C 0.29672 0.21866 0.13668 0.0
C24 C 0.27823 0.26919 0.14533 0.0
C25 C 0.27914 0.28246 0.13163 0.0
H26 H 0.30176 0.19326 0.13832 0.0
H27 H 0.26954 0.28379 0.15417 0.0
H28 H 0.25937 0.16964 0.15166 0.0
H29 H 0.17133 0.20863 0.16665 0.0
H30 H 0.37982 0.31559 0.16664 0.0
H31 H 0.30533 0.21493 0.11406 0.0
H32 H 0.27283 0.30781 0.13032 0.0
C33 C 0.0475 0.97421 0.42267 0.0
C34 C 0.06675 0.94938 0.41766 0.0
N35 N 0.08596 0.96104 0.40713 0.0
N36 N 0.05451 1.00171 0.41547 0.0
C37 C 0.07833 0.993 0.4062 0.0
H38 H 0.02859 0.97194 0.43064 0.0
Co39 Co 0.03058 0.04034 0.41694 0.0
C40 C 0.07668 0.09244 0.40884 0.0
O41 O 0.05429 0.1068 0.40106 0.0
N42 N 0.00534 0.07938 0.41871 0.0
C43 C 0.96516 0.11533 0.41652 0.0
C44 C 0.9745 0.08376 0.41416 0.0
C45 C 0.01322 0.10848 0.4247 0.0
N46 N 0.98982 0.13132 0.42288 0.0
O47 O 0.03589 0.03983 0.43723 0.0
H48 H 0.95931 0.06538 0.40939 0.0
H49 H 0.03638 0.11319 0.42972 0.0
O50 O 0.07077 0.06559 0.41519 0.0
C51 C 0.01013 0.03119 0.44378 0.0
O52 O 0.98398 0.0247 0.43621 0.0
N53 N 0.02276 0.03849 0.3971 0.0
C54 C 0.99578 0.03904 0.36976 0.0
C55 C 0.02825 0.04851 0.37192 0.0
C56 C 0.04148 0.04773 0.38572 0.0
C57 C 0.99363 0.02384 0.39475 0.0
C58 C 0.97924 0.02454 0.38127 0.0
H59 H 0.06632 0.05533 0.38712 0.0
H60 H 0.98028 0.01385 0.40372 0.0
H61 H 0.08868 0.00934 0.39838 0.0
H62 H 0.06583 0.92441 0.42127 0.0
H63 H 0.94192 0.12565 0.41358 0.0
H64 H 0.04277 0.05801 0.36319 0.0
H65 H 0.9544 0.01621 0.38029 0.0
C66 C 0.28712 0.78022 0.66912 0.0
C67 C 0.31249 0.79744 0.66323 0.0
N68 N 0.30012 0.82205 0.65542 0.0
N69 N 0.25882 0.79379 0.66503 0.0
C70 C 0.26753 0.81952 0.65682 0.0
H71 H 0.28915 0.75796 0.67521 0.0
Co72 Co 0.2185 0.77375 0.66731 0.0
C73 C 0.17075 0.82382 0.65908 0.0
O74 O 0.15443 0.80237 0.65154 0.0
N75 N 0.17743 0.75242 0.66982 0.0
C76 C 0.13716 0.71624 0.66854 0.0
C77 C 0.1692 0.72228 0.66536 0.0
C78 C 0.15005 0.76338 0.67639 0.0
N79 N 0.12482 0.74231 0.67533 0.0
O80 O 0.22113 0.77989 0.68747 0.0
H81 H 0.18509 0.70546 0.65996 0.0
H82 H 0.14842 0.78684 0.68155 0.0
O83 O 0.19694 0.81588 0.6655 0.0
C84 C 0.22931 0.754 0.69403 0.0
O85 O 0.23341 0.72725 0.68655 0.0
N86 N 0.21854 0.76505 0.64758 0.0
C87 C 0.22079 0.73891 0.62005 0.0
C88 C 0.21274 0.77177 0.62216 0.0
C89 C 0.21239 0.78461 0.63605 0.0
C90 C 0.2307 0.7347 0.64549 0.0
C91 C 0.23136 0.72085 0.63192 0.0
H92 H 0.20702 0.81005 0.63737 0.0
H93 H 0.23853 0.72054 0.65462 0.0
H94 H 0.25039 0.83456 0.65105 0.0
H95 H 0.33802 0.79141 0.66407 0.0
H96 H 0.12369 0.69474 0.66549 0.0
H97 H 0.20595 0.78715 0.61323 0.0
H98 H 0.23818 0.69554 0.63099 0.0
C99 C 0.46619 0.03166 0.92209 0.0
C100 C 0.44563 0.05514 0.91671 0.0
N101 N 0.42528 0.04098 0.90727 0.0
N102 N 0.45871 1.00275 0.91615 0.0
C103 C 0.43348 0.0092 0.9073 0.0
H104 H 0.48634 0.03573 0.9293 0.0
Co105 Co 0.48269 0.96439 0.91788 0.0
C106 C 0.43593 0.91268 0.90986 0.0
O107 O 0.45791 0.89773 0.90207 0.0
N108 N 0.50781 0.92539 0.91983 0.0
C109 C 0.54793 0.88939 0.91764 0.0
C110 C 0.53879 0.9211 0.91546 0.0
C111 C 0.49959 0.8961 0.92552 0.0
N112 N 0.52296 0.87324 0.92369 0.0
O113 O 0.47738 0.96556 0.93812 0.0
H114 H 0.5541 0.9396 0.91084 0.0
H115 H 0.47618 0.89121 0.93029 0.0
O116 O 0.44252 0.93933 0.91621 0.0
C117 C 0.50297 0.97537 0.94447 0.0
O118 O 0.52881 0.98211 0.93674 0.0
N119 N 0.49051 0.96587 0.89806 0.0
C120 C 0.51647 0.96921 0.87052 0.0
C121 C 0.48444 0.95837 0.87271 0.0
C122 C 0.47172 0.9572 0.8866 0.0
C123 C 0.51942 0.98104 0.89585 0.0
C124 C 0.53325 0.9823 0.88228 0.0
H125 H 0.44706 0.94903 0.88796 0.0
H126 H 0.53276 0.99055 0.90491 0.0
H127 H 0.42192 0.99114 0.90061 0.0
H128 H 0.44691 0.08094 0.91891 0.0
H129 H 0.57118 0.87907 0.91473 0.0
H130 H 0.46975 0.94969 0.86387 0.0
H131 H 0.55784 0.99138 0.88135 0.0
C132 C 0.22386 0.79065 0.31954 0.0
C133 C 0.20037 0.8104 0.32535 0.0
N134 N 0.21344 0.82696 0.33642 0.0
N135 N 0.25188 0.79468 0.32679 0.0
C136 C 0.24487 0.8172 0.33693 0.0
H137 H 0.22037 0.7736 0.31087 0.0
Co138 Co 0.28925 0.76958 0.32388 0.0
C139 C 0.34331 0.8054 0.33692 0.0
O140 O 0.35246 0.77787 0.34283 0.0
N141 N 0.32751 0.74397 0.32054 0.0
C142 C 0.36647 0.70626 0.32073 0.0
C143 C 0.33454 0.71296 0.32417 0.0
C144 C 0.35525 0.75488 0.31427 0.0
N145 N 0.37965 0.73293 0.31473 0.0
O146 O 0.29053 0.7829 0.30428 0.0
H147 H 0.31817 0.69637 0.32947 0.0
H148 H 0.3581 0.77934 0.3102 0.0
O149 O 0.31709 0.80643 0.32952 0.0
C150 C 0.28045 0.75877 0.29692 0.0
O151 O 0.272 0.73208 0.30371 0.0
N152 N 0.28467 0.75337 0.34258 0.0
C153 C 0.27856 0.71598 0.36729 0.0
C154 C 0.29046 0.74802 0.368 0.0
C155 C 0.2922 0.76679 0.35555 0.0
C156 C 0.2684 0.72461 0.34209 0.0
C157 C 0.26495 0.7055 0.3543 0.0
H158 H 0.30095 0.7914 0.35639 0.0
H159 H 0.25966 0.71558 0.33191 0.0
H160 H 0.26205 0.82517 0.34495 0.0
H161 H 0.17538 0.81186 0.32182 0.0
H162 H 0.37951 0.68416 0.32328 0.0
H163 H 0.30031 0.75801 0.37781 0.0
H164 H 0.25355 0.6819 0.35332 0.0
C165 C 0.47339 0.97342 0.57403 0.0
C166 C 0.45645 0.9477 0.57973 0.0
N167 N 0.43182 0.95951 0.58768 0.0
N168 N 0.45963 1.00148 0.57834 0.0
C169 C 0.43399 0.99218 0.5865 0.0
H170 H 0.49576 0.9717 0.56801 0.0
Co171 Co 0.47998 0.04193 0.57665 0.0
C172 C 0.42906 0.08915 0.58474 0.0
O173 O 0.44964 0.10504 0.59291 0.0
N174 N 0.50185 0.0829 0.57476 0.0
C175 C 0.54034 0.12084 0.5762 0.0
C176 C 0.53297 0.08874 0.57851 0.0
C177 C 0.49159 0.11186 0.56936 0.0
N178 N 0.51404 0.13587 0.5707 0.0
O179 O 0.47522 0.04039 0.55641 0.0
H180 H 0.54976 0.07092 0.58261 0.0
H181 H 0.46771 0.11541 0.56485 0.0
O182 O 0.43782 0.06356 0.57807 0.0
C183 C 0.50106 0.03035 0.55034 0.0
O184 O 0.52657 0.02403 0.55835 0.0
N185 N 0.48738 0.04104 0.5965 0.0
C186 C 0.51201 0.03986 0.62427 0.0
C187 C 0.47912 0.04712 0.6218 0.0
C188 C 0.46704 0.04691 0.60779 0.0
C189 C 0.51766 0.02905 0.59898 0.0
C190 C 0.53078 0.02889 0.6127 0.0
H191 H 0.44162 0.05193 0.60618 0.0
H192 H 0.53234 0.02096 0.59005 0.0
H193 H 0.4189 0.00891 0.59247 0.0
H194 H 0.46286 0.92227 0.57878 0.0
H195 H 0.56352 0.13201 0.57853 0.0
H196 H 0.46324 0.05413 0.63052 0.0
H197 H 0.55611 0.02241 0.61395 0.0
C198 C 0.28846 0.21793 0.82436 0.0
C199 C 0.31149 0.19717 0.82991 0.0
N200 N 0.29629 0.17497 0.83813 0.0
N201 N 0.25876 0.20879 0.82894 0.0
C202 C 0.26434 0.18231 0.8372 0.0
H203 H 0.29333 0.2393 0.81799 0.0
Co204 Co 0.22057 0.23273 0.82618 0.0
C205 C 0.1677 0.18756 0.83396 0.0
O206 O 0.1535 0.21059 0.84144 0.0
N207 N 0.18193 0.25791 0.82303 0.0
C208 C 0.14553 0.29801 0.82334 0.0
C209 C 0.17696 0.28937 0.82651 0.0
C210 C 0.15349 0.24893 0.81675 0.0
N211 N 0.1303 0.27228 0.81747 0.0
O212 O 0.22387 0.22659 0.80605 0.0
H213 H 0.19477 0.30547 0.83112 0.0
H214 H 0.14945 0.22509 0.81226 0.0
O215 O 0.19478 0.19276 0.82769 0.0
C216 C 0.23663 0.2512 0.79997 0.0
O217 O 0.24489 0.27623 0.80793 0.0
N218 N 0.21967 0.2412 0.84602 0.0
C219 C 0.21478 0.26664 0.87363 0.0
C220 C 0.20935 0.23336 0.87108 0.0
C221 C 0.21193 0.22108 0.85716 0.0
C222 C 0.23141 0.27139 0.84883 0.0
C223 C 0.22822 0.28506 0.86239 0.0
H224 H 0.20666 0.19574 0.85545 0.0
H225 H 0.24146 0.28577 0.8402 0.0
H226 H 0.24552 0.16912 0.8428 0.0
H227 H 0.33755 0.1995 0.82872 0.0
H228 H 0.13478 0.32152 0.82543 0.0
H229 H 0.20155 0.21714 0.87953 0.0
H230 H 0.23411 0.31051 0.86354 0.0
C231 C 0.02616 0.04129 0.07551 0.0
C232 C 0.04475 0.06641 0.08075 0.0
N233 N 0.06993 0.05377 0.08812 0.0
N234 N 0.03945 0.01278 0.07949 0.0
C235 C 0.06648 0.02119 0.08693 0.0
H236 H 1.00321 0.04375 0.06999 0.0
Co237 Co 0.01796 0.97276 0.0781 0.0
C238 C 0.06413 0.92612 0.09027 0.0
O239 O 0.04071 0.91434 0.09832 0.0
N240 N 0.99546 0.93189 0.07639 0.0
C241 C 0.95691 0.89376 0.07688 0.0
C242 C 0.96363 0.92614 0.0789 0.0
C243 C 0.00694 0.90248 0.07198 0.0
N244 N 0.98431 0.87858 0.07273 0.0
O245 O 0.02606 0.97181 0.05804 0.0
H246 H 0.94583 0.94411 0.08185 0.0
H247 H 0.03177 0.89843 0.06866 0.0
O248 O 0.05868 0.94976 0.08173 0.0
C249 C 1.00105 0.98283 0.05161 0.0
O250 O 0.97545 0.99048 0.05933 0.0
N251 N 0.00725 0.97666 0.09769 0.0
C252 C 0.98068 0.98211 0.12513 0.0
C253 C 0.01443 0.97862 0.12321 0.0
C254 C 0.02727 0.97615 0.10939 0.0
C255 C 0.9759 0.98636 0.09932 0.0
C256 C 0.96178 0.98813 0.11284 0.0
H257 H 0.05313 0.97305 0.10827 0.0
H258 H 0.9614 0.99181 0.08998 0.0
H259 H 0.08198 1.00389 0.09234 0.0
H260 H 0.03916 0.09202 0.0798 0.0
H261 H 0.93343 0.88238 0.07833 0.0
H262 H 0.03077 0.97644 0.13224 0.0
H263 H 0.93587 0.99222 0.11335 0.0
C264 C 0.78386 0.79311 0.82322 0.0
C265 C 0.809 0.81155 0.82857 0.0
N266 N 0.7972 0.83153 0.8388 0.0
N267 N 0.75611 0.80139 0.82992 0.0
C268 C 0.76494 0.82505 0.83923 0.0
H269 H 0.78596 0.77404 0.81531 0.0
Co270 Co 0.71611 0.78014 0.82798 0.0
C271 C 0.66753 0.82971 0.83616 0.0
O272 O 0.65105 0.8083 0.84366 0.0
N273 N 0.67538 0.75796 0.82584 0.0
C274 C 0.63556 0.72146 0.82786 0.0
C275 C 0.66766 0.72804 0.83075 0.0
C276 C 0.64766 0.76819 0.81932 0.0
N277 N 0.62269 0.74696 0.82083 0.0
O278 O 0.71771 0.78625 0.80776 0.0
H279 H 0.68393 0.71182 0.8363 0.0
H280 H 0.64557 0.79135 0.81392 0.0
O281 O 0.69389 0.82181 0.82988 0.0
C282 C 0.72525 0.76022 0.80115 0.0
O283 O 0.72964 0.73352 0.80864 0.0
N284 N 0.71696 0.77128 0.84772 0.0
C285 C 0.7179 0.7425 0.87474 0.0
C286 C 0.70829 0.77508 0.87308 0.0
C287 C 0.70847 0.78928 0.85944 0.0
C288 C 0.73087 0.7416 0.84949 0.0
C289 C 0.73102 0.72644 0.86279 0.0
H290 H 0.70139 0.81437 0.85847 0.0
H291 H 0.73984 0.72861 0.84022 0.0
H292 H 0.74823 0.83623 0.84667 0.0
H293 H 0.83416 0.80969 0.82531 0.0
H294 H 0.62242 0.70006 0.8313 0.0
H295 H 0.69954 0.78907 0.88212 0.0
H296 H 0.73907 0.70144 0.86333 0.0
C297 C 0.96695 0.035 0.57327 0.0
C298 C 0.94567 0.05747 0.57888 0.0
N299 N 0.92548 0.04208 0.58799 0.0
N300 N 0.96013 0.00541 0.5787 0.0
C301 C 0.93458 0.01052 0.58758 0.0
H302 H 0.98704 0.04029 0.5662 0.0
Co303 Co 0.98528 0.96795 0.57603 0.0
C304 C 0.94198 0.91362 0.58401 0.0
O305 O 0.96564 0.89976 0.59122 0.0
N306 N 0.01152 0.93003 0.57302 0.0
C307 C 0.05202 0.89419 0.57406 0.0
C308 C 0.04269 0.9255 0.57708 0.0
C309 C 1.00345 0.90148 0.56659 0.0
N310 N 0.02702 0.87862 0.56776 0.0
O311 O 0.97857 0.97045 0.55588 0.0
H312 H 0.05798 0.94345 0.5821 0.0
H313 H 0.97989 0.89697 0.56188 0.0
O314 O 0.9462 0.94108 0.57791 0.0
C315 C 1.00295 0.98374 0.54984 0.0
O316 O 0.02769 0.99258 0.55786 0.0
N317 N 0.99447 0.96806 0.59576 0.0
C318 C 0.02188 0.96824 0.62308 0.0
C319 C 0.98956 0.95813 0.621 0.0
C320 C 0.97613 0.95854 0.60723 0.0
C321 C 0.02356 0.98286 0.598 0.0
C322 C 0.03817 0.98246 0.61143 0.0
H323 H 0.95135 0.95064 0.60593 0.0
H324 H 0.03649 0.99326 0.58901 0.0
H325 H 0.92333 0.99165 0.59392 0.0
H326 H 0.94627 0.08342 0.57701 0.0
H327 H 0.07538 0.88365 0.57664 0.0
H328 H 0.97517 0.94878 0.6298 0.0
H329 H 0.06288 0.9912 0.61228 0.0
C330 C 0.72372 0.21804 0.32258 0.0
C331 C 0.6987 0.19985 0.32817 0.0
N332 N 0.71125 0.17824 0.33752 0.0
N333 N 0.75205 0.20801 0.3283 0.0
C334 C 0.74371 0.18339 0.33722 0.0
H335 H 0.72116 0.2386 0.31546 0.0
Co336 Co 0.79108 0.23088 0.3266 0.0
C337 C 0.84203 0.18388 0.33504 0.0
O338 O 0.85657 0.20614 0.34283 0.0
N339 N 0.83059 0.25525 0.32465 0.0
C340 C 0.86701 0.29508 0.32654 0.0
C341 C 0.83528 0.28627 0.32888 0.0
C342 C 0.8597 0.24664 0.31889 0.0
N343 N 0.8828 0.26987 0.32052 0.0
O344 O 0.79009 0.22512 0.30635 0.0
H345 H 0.81701 0.30194 0.33342 0.0
H346 H 0.8642 0.22317 0.31412 0.0
O347 O 0.81553 0.19022 0.32849 0.0
C348 C 0.78131 0.25075 0.29974 0.0
O349 O 0.77539 0.27716 0.30722 0.0
N350 N 0.78948 0.23909 0.3464 0.0
C351 C 0.78722 0.26544 0.37388 0.0
C352 C 0.79682 0.233 0.37176 0.0
C353 C 0.79735 0.22007 0.3579 0.0
C354 C 0.77521 0.26846 0.34857 0.0
C355 C 0.77453 0.2825 0.36211 0.0
H356 H 0.80453 0.19509 0.35657 0.0
H357 H 0.76604 0.28198 0.33948 0.0
H358 H 0.76076 0.17103 0.34414 0.0
H359 H 0.6731 0.20328 0.32599 0.0
H360 H 0.87756 0.31836 0.32925 0.0
H361 H 0.80507 0.21816 0.38062 0.0
H362 H 0.76628 0.30738 0.363 0.0
C363 C 0.53731 0.97248 0.07474 0.0
C364 C 0.55653 0.94858 0.08055 0.0
N365 N 0.57931 0.9627 0.08884 0.0
N366 N 0.54779 1.00175 0.07926 0.0
C367 C 0.57383 0.99503 0.08768 0.0
H368 H 0.51581 0.96853 0.06833 0.0
Co369 Co 0.52384 0.04002 0.07657 0.0
C370 C 0.56376 0.09328 0.08726 0.0
O371 O 0.53797 0.103 0.0944 0.0
N372 N 0.49892 0.07902 0.07341 0.0
C373 C 0.4622 0.11885 0.07435 0.0
C374 C 0.4686 0.08693 0.07775 0.0
C375 C 0.50947 0.10631 0.06662 0.0
N376 N 0.48821 0.13137 0.06754 0.0
O377 O 0.53313 0.03883 0.05659 0.0
H378 H 0.4521 0.07124 0.08344 0.0
H379 H 0.53321 0.10821 0.06171 0.0
O380 O 0.56266 0.06679 0.08007 0.0
C381 C 0.50878 0.02623 0.05023 0.0
O382 O 0.48322 0.01831 0.05793 0.0
N383 N 0.51206 0.03808 0.09603 0.0
C384 C 0.48369 0.03478 0.12308 0.0
C385 C 0.51689 0.04202 0.12159 0.0
C386 C 0.5308 0.04302 0.10794 0.0
C387 C 0.4816 0.02571 0.09752 0.0
C388 C 0.46655 0.0247 0.11086 0.0
H389 H 0.55626 0.04884 0.10705 0.0
H390 H 0.46821 0.01829 0.08809 0.0
H391 H 0.58711 0.01321 0.09364 0.0
H392 H 0.55303 0.92267 0.07928 0.0
H393 H 0.44066 0.13221 0.07743 0.0
H394 H 0.53166 0.04822 0.1308 0.0
H395 H 0.44109 0.01821 0.11131 0.0
C396 C 0.78155 0.21236 0.67153 0.0
C397 C 0.80493 0.1918 0.66611 0.0
N398 N 0.79063 0.17137 0.65674 0.0
N399 N 0.75253 0.20486 0.66571 0.0
C400 C 0.75883 0.17961 0.65683 0.0
H401 H 0.78573 0.23247 0.67875 0.0
Co402 Co 0.71436 0.22893 0.66796 0.0
C403 C 0.66163 0.18355 0.66002 0.0
O404 O 0.64706 0.20634 0.65254 0.0
N405 N 0.67556 0.25418 0.67052 0.0
C406 C 0.63905 0.29402 0.66912 0.0
C407 C 0.67055 0.28512 0.66626 0.0
C408 C 0.64699 0.24575 0.67683 0.0
N409 N 0.62374 0.26892 0.6755 0.0
O410 O 0.71644 0.22262 0.68809 0.0
H411 H 0.68838 0.30063 0.66127 0.0
H412 H 0.64293 0.22231 0.68171 0.0
O413 O 0.68876 0.18906 0.66619 0.0
C414 C 0.72613 0.24803 0.69461 0.0
O415 O 0.73204 0.2744 0.6871 0.0
N416 N 0.71495 0.23761 0.64822 0.0
C417 C 0.71609 0.26445 0.62082 0.0
C418 C 0.70619 0.23208 0.62294 0.0
C419 C 0.70608 0.21894 0.63676 0.0
C420 C 0.72952 0.26683 0.64601 0.0
C421 C 0.72962 0.28113 0.63251 0.0
H422 H 0.6984 0.19411 0.6381 0.0
H423 H 0.73933 0.28006 0.65504 0.0
H424 H 0.74062 0.16798 0.65025 0.0
H425 H 0.83074 0.19305 0.66827 0.0
H426 H 0.62831 0.31721 0.66644 0.0
H427 H 0.69735 0.21743 0.61412 0.0
H428 H 0.73812 0.30592 0.63162 0.0
C429 C 0.53338 0.03577 0.41947 0.0
C430 C 0.55199 0.06069 0.41403 0.0
N431 N 0.57722 0.0478 0.40674 0.0
N432 N 0.54672 0.00716 0.41572 0.0
C433 C 0.57357 0.01524 0.40811 0.0
H434 H 0.51055 0.03832 0.42509 0.0
Co435 Co 0.52646 0.96695 0.41804 0.0
C436 C 0.57684 0.92015 0.40895 0.0
O437 O 0.55577 0.90462 0.40089 0.0
N438 N 0.50489 0.92584 0.42063 0.0
C439 C 0.46651 0.88757 0.42054 0.0
C440 C 0.47317 0.91976 0.41805 0.0
C441 C 0.51631 0.89689 0.42558 0.0
N442 N 0.49386 0.87275 0.42503 0.0
O443 O 0.53307 0.96943 0.43815 0.0
H444 H 0.45545 0.93747 0.41469 0.0
H445 H 0.5409 0.8934 0.42924 0.0
O446 O 0.56838 0.9452 0.41606 0.0
C447 C 0.50738 0.9779 0.44478 0.0
O448 O 0.48063 0.98263 0.43737 0.0
N449 N 0.51734 0.96703 0.3983 0.0
C450 C 0.49095 0.96502 0.37079 0.0
C451 C 0.52462 0.96136 0.37291 0.0
C452 C 0.53745 0.96285 0.38679 0.0
C453 C 0.48614 0.97663 0.39611 0.0
C454 C 0.47211 0.97488 0.38258 0.0
H455 H 0.56328 0.95989 0.38815 0.0
H456 H 0.47156 0.98435 0.40512 0.0
H457 H 0.58941 0.99755 0.40319 0.0
H458 H 0.54607 0.08626 0.41467 0.0
H459 H 0.44306 0.87615 0.41911 0.0
H460 H 0.54078 0.95602 0.36407 0.0
H461 H 0.44625 0.97907 0.38177 0.0
C462 C 0.72606 0.78789 0.16932 0.0
C463 C 0.702 0.80801 0.16428 0.0
N464 N 0.71584 0.83216 0.15663 0.0
N465 N 0.75518 0.79916 0.165 0.0
C466 C 0.7482 0.82631 0.15736 0.0
H467 H 0.72237 0.7655 0.17515 0.0
Co468 Co 0.7941 0.77621 0.16739 0.0
C469 C 0.84516 0.81888 0.15651 0.0
O470 O 0.85591 0.79392 0.14909 0.0
N471 N 0.83388 0.75234 0.17023 0.0
C472 C 0.87298 0.71468 0.17019 0.0
C473 C 0.84097 0.72113 0.16693 0.0
C474 C 0.86185 0.76357 0.17623 0.0
N475 N 0.8863 0.74163 0.17584 0.0
O476 O 0.79297 0.78464 0.18745 0.0
H477 H 0.82441 0.70386 0.16223 0.0
H478 H 0.86466 0.78794 0.18042 0.0
O479 O 0.81937 0.81595 0.16406 0.0
C480 C 0.7809 0.75967 0.19354 0.0
O481 O 0.77352 0.73441 0.18556 0.0
N482 N 0.79209 0.76507 0.14789 0.0
C483 C 0.78758 0.73741 0.12073 0.0
C484 C 0.79425 0.7707 0.1223 0.0
C485 C 0.79566 0.78429 0.13603 0.0
C486 C 0.78067 0.73426 0.14639 0.0
C487 C 0.77901 0.71962 0.13299 0.0
H488 H 0.80046 0.80995 0.137 0.0
H489 H 0.77392 0.7205 0.1558 0.0
H490 H 0.7664 0.8409 0.15203 0.0
H491 H 0.67616 0.80393 0.16545 0.0
H492 H 0.88586 0.69232 0.16794 0.0
H493 H 0.79945 0.78583 0.11309 0.0
H494 H 0.77304 0.69404 0.13247 0.0
C495 C 0.9687 0.97958 0.9232 0.0
C496 C 0.95104 0.954 0.91776 0.0
N497 N 0.92971 0.96557 0.90802 0.0
N498 N 0.95858 0.00739 0.91706 0.0
C499 C 0.9346 0.99813 0.90798 0.0
H500 H 0.9885 0.97782 0.93077 0.0
Co501 Co 0.97846 0.04799 0.91936 0.0
C502 C 0.92755 0.09518 0.91126 0.0
O503 O 0.94856 0.11209 0.90373 0.0
N504 N 0.9994 0.08931 0.92192 0.0
C505 C 0.03578 0.12954 0.9211 0.0
C506 C 0.02998 0.09737 0.91798 0.0
C507 C 0.98788 0.11692 0.92812 0.0
N508 N 0.00905 0.14203 0.92728 0.0
O509 O 0.97222 0.04526 0.93951 0.0
H510 H 0.04724 0.08122 0.91301 0.0
H511 H 0.96406 0.11889 0.9329 0.0
O512 O 0.93609 0.06903 0.91756 0.0
C513 C 0.99819 0.03804 0.94623 0.0
O514 O 0.02531 0.03481 0.93893 0.0
N515 N 0.98741 0.0483 0.89962 0.0
C516 C 0.01462 0.0485 0.8723 0.0
C517 C 0.98166 0.05618 0.87428 0.0
C518 C 0.96829 0.05537 0.88805 0.0
C519 C 0.0179 0.03642 0.89757 0.0
C520 C 0.03227 0.03689 0.88409 0.0
H521 H 0.94284 0.06077 0.88925 0.0
H522 H 0.03182 0.0281 0.9067 0.0
H523 H 0.92199 0.01482 0.901 0.0
H524 H 0.95438 0.92874 0.9206 0.0
H525 H 0.05755 0.14306 0.91845 0.0
H526 H 0.96665 0.0638 0.86535 0.0
H527 H 0.05765 0.0303 0.88321 0.0
C528 C 0.72618 0.71596 0.67218 0.0
C529 C 0.70316 0.69505 0.66676 0.0
N530 N 0.71816 0.67335 0.65821 0.0
N531 N 0.75573 0.70748 0.66721 0.0
C532 C 0.75006 0.68121 0.65882 0.0
H533 H 0.72133 0.7371 0.67871 0.0
Co534 Co 0.79344 0.73244 0.66948 0.0
C535 C 0.84759 0.68846 0.66202 0.0
O536 O 0.86113 0.71163 0.65439 0.0
N537 N 0.83152 0.75878 0.67209 0.0
C538 C 0.86712 0.79944 0.6705 0.0
C539 C 0.83574 0.78983 0.6678 0.0
C540 C 0.86034 0.75113 0.67838 0.0
N541 N 0.88304 0.77475 0.67686 0.0
O542 O 0.79091 0.72729 0.68972 0.0
H543 H 0.8175 0.80489 0.66285 0.0
H544 H 0.86516 0.72782 0.68327 0.0
O545 O 0.82022 0.69301 0.66818 0.0
C546 C 0.77806 0.75215 0.69557 0.0
O547 O 0.76963 0.77669 0.68736 0.0
N548 N 0.79343 0.73993 0.64957 0.0
C549 C 0.79561 0.76411 0.62175 0.0
C550 C 0.80404 0.73166 0.62458 0.0
C551 C 0.8024 0.71986 0.63859 0.0
C552 C 0.77969 0.7692 0.64655 0.0
C553 C 0.78129 0.78223 0.63281 0.0
H554 H 0.80927 0.69499 0.64049 0.0
H555 H 0.76926 0.78346 0.65513 0.0
H556 H 0.76876 0.66867 0.65287 0.0
H557 H 0.67715 0.69704 0.66826 0.0
H558 H 0.87746 0.82274 0.66767 0.0
H559 H 0.81341 0.71603 0.6162 0.0
H560 H 0.77361 0.80713 0.63124 0.0
C561 C 0.5388 0.46965 0.91874 0.0
C562 C 0.55797 0.44461 0.91387 0.0
N563 N 0.58054 0.45682 0.90485 0.0
N564 N 0.54918 0.49779 0.91299 0.0
C565 C 0.57489 0.48925 0.90473 0.0
H566 H 0.51775 0.46717 0.92558 0.0
Co567 Co 0.52758 0.53773 0.9145 0.0
C568 C 0.5771 0.58643 0.90668 0.0
O569 O 0.55597 0.60159 0.89851 0.0
N570 N 0.50494 0.57829 0.91632 0.0
C571 C 0.46811 0.61784 0.91436 0.0
C572 C 0.47493 0.58581 0.91145 0.0
C573 C 0.51493 0.60605 0.92288 0.0
N574 N 0.49351 0.63085 0.92141 0.0
O575 O 0.53173 0.5362 0.93479 0.0
H576 H 0.45869 0.56943 0.90598 0.0
H577 H 0.53793 0.60823 0.92839 0.0
O578 O 0.56924 0.56048 0.91331 0.0
C579 C 0.50577 0.52595 0.94069 0.0
O580 O 0.48057 0.51945 0.93251 0.0
N581 N 0.52076 0.53683 0.89457 0.0
C582 C 0.49636 0.53757 0.86665 0.0
C583 C 0.52953 0.54354 0.86932 0.0
C584 C 0.5413 0.54299 0.88339 0.0
C585 C 0.49052 0.52507 0.89188 0.0
C586 C 0.47744 0.5261 0.87815 0.0
H587 H 0.56664 0.54822 0.88513 0.0
H588 H 0.47557 0.51693 0.90072 0.0
H589 H 0.5882 0.50632 0.89822 0.0
H590 H 0.55464 0.41925 0.91651 0.0
H591 H 0.44654 0.6308 0.91099 0.0
H592 H 0.54608 0.55004 0.86078 0.0
H593 H 0.45199 0.52022 0.87703 0.0
C594 C 0.78387 0.28917 0.17046 0.0
C595 C 0.8071 0.31004 0.16516 0.0
N596 N 0.7924 0.33162 0.15646 0.0
N597 N 0.75449 0.29759 0.16526 0.0
C598 C 0.76049 0.32379 0.15685 0.0
H599 H 0.78845 0.26818 0.17712 0.0
Co600 Co 0.71643 0.273 0.16756 0.0
C601 C 0.66265 0.31516 0.15853 0.0
O602 O 0.65043 0.29054 0.15134 0.0
N603 N 0.67777 0.2474 0.17028 0.0
C604 C 0.63916 0.20956 0.16859 0.0
C605 C 0.67081 0.21733 0.16533 0.0
C606 C 0.65023 0.25632 0.17731 0.0
N607 N 0.62581 0.23437 0.17594 0.0
O608 O 0.71788 0.28015 0.18772 0.0
H609 H 0.68705 0.20191 0.15936 0.0
H610 H 0.64769 0.27942 0.18271 0.0
O611 O 0.68986 0.31219 0.16503 0.0
C612 C 0.73055 0.25561 0.1939 0.0
O613 O 0.739 0.23056 0.18599 0.0
N614 N 0.71778 0.26355 0.14785 0.0
C615 C 0.72054 0.23806 0.12009 0.0
C616 C 0.7127 0.27098 0.12245 0.0
C617 C 0.71129 0.2832 0.13641 0.0
C618 C 0.73121 0.23385 0.14559 0.0
C619 C 0.73188 0.22018 0.13196 0.0
H620 H 0.70448 0.30826 0.13786 0.0
H621 H 0.73966 0.21978 0.15466 0.0
H622 H 0.74204 0.33641 0.15079 0.0
H623 H 0.83305 0.30819 0.16687 0.0
H624 H 0.62658 0.18792 0.16505 0.0
H625 H 0.70644 0.28718 0.11376 0.0
H626 H 0.7394 0.19513 0.13119 0.0
C627 C 0.96276 0.53386 0.42023 0.0
C628 C 0.94274 0.55769 0.41476 0.0
N629 N 0.92257 0.54396 0.40512 0.0
N630 N 0.95515 0.50513 0.41417 0.0
C631 C 0.93043 0.51206 0.40509 0.0
H632 H 0.9825 0.53753 0.42771 0.0
Co633 Co 0.97796 0.46611 0.41638 0.0
C634 C 0.92997 0.41533 0.40883 0.0
O635 O 0.95176 0.39927 0.40138 0.0
N636 N 1.00176 0.42636 0.41879 0.0
C637 C 0.03977 0.38793 0.41697 0.0
C638 C 0.03201 0.41971 0.41398 0.0
C639 C 0.99256 0.3984 0.42542 0.0
N640 N 0.01471 0.37421 0.42399 0.0
O641 O 0.97225 0.46844 0.4366 0.0
H642 H 0.04763 0.43648 0.40838 0.0
H643 H 0.96945 0.3955 0.43078 0.0
O644 O 0.93709 0.44224 0.41484 0.0
C645 C 0.99816 0.47713 0.44302 0.0
O646 O 0.0245 0.48224 0.43538 0.0
N647 N 0.98628 0.46635 0.3966 0.0
C648 C 0.01355 0.46725 0.36927 0.0
C649 C 0.98128 0.457 0.37132 0.0
C650 C 0.96786 0.45714 0.3851 0.0
C651 C 0.01556 0.48085 0.39444 0.0
C652 C 0.03001 0.48094 0.38098 0.0
H653 H 0.94301 0.44948 0.38637 0.0
H654 H 0.02878 0.49049 0.40352 0.0
H655 H 0.91883 0.4942 0.39832 0.0
H656 H 0.94411 0.5834 0.41714 0.0
H657 H 0.06163 0.37553 0.41356 0.0
H658 H 0.96691 0.44784 0.36247 0.0
H659 H 0.05479 0.48953 0.38014 0.0
C660 C 0.73021 0.28837 0.8204 0.0
C661 C 0.70524 0.30719 0.82556 0.0
N662 N 0.71705 0.32711 0.8358 0.0
N663 N 0.75798 0.29637 0.82718 0.0
C664 C 0.74924 0.32034 0.83637 0.0
H665 H 0.7278 0.26907 0.81263 0.0
Co666 Co 0.79739 0.27371 0.82552 0.0
C667 C 0.84891 0.32063 0.83294 0.0
O668 O 0.8645 0.29788 0.84005 0.0
N669 N 0.83717 0.25 0.82354 0.0
C670 C 0.87725 0.21417 0.82638 0.0
C671 C 0.84549 0.22142 0.82964 0.0
C672 C 0.86402 0.25854 0.81594 0.0
N673 N 0.88924 0.23784 0.81792 0.0
O674 O 0.79621 0.2789 0.8053 0.0
H675 H 0.83007 0.20687 0.83643 0.0
H676 H 0.86551 0.28063 0.80968 0.0
O677 O 0.82122 0.31465 0.82732 0.0
C678 C 0.78576 0.25309 0.79933 0.0
O679 O 0.77896 0.22789 0.80746 0.0
N680 N 0.7961 0.26603 0.84531 0.0
C681 C 0.79153 0.2418 0.87314 0.0
C682 C 0.80271 0.27359 0.87063 0.0
C683 C 0.80466 0.28537 0.8566 0.0
C684 C 0.78116 0.23708 0.84773 0.0
C685 C 0.77925 0.22413 0.86146 0.0
H686 H 0.81303 0.30989 0.85501 0.0
H687 H 0.77243 0.223 0.83872 0.0
H688 H 0.76587 0.33143 0.84386 0.0
H689 H 0.68012 0.30544 0.82224 0.0
H690 H 0.89091 0.19389 0.83064 0.0
H691 H 0.81092 0.28887 0.87935 0.0
H692 H 0.77022 0.19958 0.86262 0.0
C693 C 0.96767 0.4749 0.07415 0.0
C694 C 0.94745 0.45109 0.07953 0.0
N695 N 0.92643 0.46505 0.08874 0.0
N696 N 0.95931 0.50382 0.07983 0.0
C697 C 0.93394 0.49701 0.08858 0.0
H698 H 0.98806 0.47109 0.06704 0.0
Co699 Co 0.98181 0.54314 0.07787 0.0
C700 C 0.93269 0.59297 0.08525 0.0
O701 O 0.95379 0.60925 0.093 0.0
N702 N 0.00515 0.58329 0.07575 0.0
C703 C 0.04225 0.6224 0.07826 0.0
C704 C 0.03507 0.59029 0.08084 0.0
C705 C 0.99562 0.61141 0.06934 0.0
N706 N 0.01716 0.63602 0.07121 0.0
O707 O 0.97698 0.54101 0.05764 0.0
H708 H 0.05078 0.57357 0.08642 0.0
H709 H 0.97262 0.61413 0.06387 0.0
O710 O 0.94061 0.5664 0.07916 0.0
C711 C 1.00289 0.5313 0.05151 0.0
O712 O 0.02859 0.52531 0.05944 0.0
N713 N 0.98936 0.54265 0.09769 0.0
C714 C 0.01531 0.54055 0.12525 0.0
C715 C 0.98303 0.55057 0.123 0.0
C716 C 0.97031 0.5511 0.10909 0.0
C717 C 0.01871 0.5284 0.09998 0.0
C718 C 0.0325 0.52772 0.11356 0.0
H719 H 0.94544 0.55854 0.10767 0.0
H720 H 0.03243 0.51931 0.09094 0.0
H721 H 0.92167 0.51502 0.09503 0.0
H722 H 0.9493 0.42529 0.07744 0.0
H723 H 0.0637 0.63504 0.082 0.0
H724 H 0.96814 0.55908 0.1318 0.0
H725 H 0.05732 0.51935 0.11455 0.0
C726 C 0.78021 0.71948 0.32257 0.0
C727 C 0.80384 0.69937 0.32811 0.0
N728 N 0.78959 0.67822 0.33717 0.0
N729 N 0.75108 0.71099 0.328 0.0
C730 C 0.75758 0.68559 0.33678 0.0
H731 H 0.78424 0.73989 0.31549 0.0
Co732 Co 0.71243 0.73416 0.32524 0.0
C733 C 0.65998 0.69082 0.33463 0.0
O734 O 0.64702 0.71546 0.34155 0.0
N735 N 0.67299 0.75819 0.32205 0.0
C736 C 0.63332 0.79514 0.3226 0.0
C737 C 0.66502 0.78854 0.32634 0.0
C738 C 0.64597 0.74774 0.31503 0.0
N739 N 0.62107 0.7692 0.31568 0.0
O740 O 0.71478 0.72593 0.30519 0.0
H741 H 0.68064 0.80493 0.33214 0.0
H742 H 0.6441 0.72403 0.31008 0.0
O743 O 0.6871 0.69432 0.32811 0.0
C744 C 0.72463 0.75139 0.29872 0.0
O745 O 0.73034 0.77768 0.30632 0.0
N746 N 0.71306 0.74498 0.34477 0.0
C747 C 0.71699 0.77267 0.37197 0.0
C748 C 0.708 0.73995 0.3703 0.0
C749 C 0.70657 0.72638 0.35658 0.0
C750 C 0.72621 0.77505 0.34642 0.0
C751 C 0.72766 0.78972 0.35982 0.0
H752 H 0.69988 0.70117 0.3556 0.0
H753 H 0.73421 0.78839 0.33707 0.0
H754 H 0.73935 0.67313 0.34305 0.0
H755 H 0.82972 0.70134 0.32621 0.0
H756 H 0.61983 0.81674 0.3255 0.0
H757 H 0.70113 0.72523 0.37943 0.0
H758 H 0.73518 0.81489 0.36038 0.0
C759 C 0.55022 0.53332 0.57176 0.0
C760 C 0.57135 0.55583 0.5775 0.0
N761 N 0.58739 0.54187 0.5885 0.0
N762 N 0.55304 0.50516 0.57902 0.0
C763 C 0.57596 0.51109 0.58909 0.0
H764 H 0.53302 0.53765 0.56321 0.0
Co765 Co 0.52748 0.46784 0.57706 0.0
C766 C 0.57265 0.41281 0.58354 0.0
O767 O 0.54971 0.39505 0.5894 0.0
N768 N 0.50111 0.42986 0.57502 0.0
C769 C 0.46357 0.39198 0.57907 0.0
C770 C 0.47314 0.42331 0.582 0.0
C771 C 0.50691 0.40253 0.56727 0.0
N772 N 0.48518 0.37847 0.56999 0.0
O773 O 0.53393 0.4686 0.55691 0.0
H774 H 0.46108 0.43958 0.58935 0.0
H775 H 0.52817 0.39962 0.56057 0.0
O776 O 0.56688 0.44158 0.57912 0.0
C777 C 0.50872 0.47868 0.55035 0.0
O778 O 0.48266 0.48578 0.55787 0.0
N779 N 0.51843 0.46987 0.59668 0.0
C780 C 0.4869 0.47338 0.62299 0.0
C781 C 0.51487 0.45403 0.62128 0.0
C782 C 0.53078 0.45317 0.60806 0.0
C783 C 0.49424 0.49198 0.59868 0.0
C784 C 0.47838 0.49447 0.6118 0.0
H785 H 0.55207 0.43828 0.60705 0.0
H786 H 0.48576 0.50623 0.58969 0.0
H787 H 0.58348 0.49333 0.59697 0.0
H788 H 0.57351 0.581 0.57426 0.0
H789 H 0.44345 0.37949 0.58412 0.0
H790 H 0.52314 0.43781 0.62965 0.0
H791 H 0.45804 0.51101 0.61276 0.0
C792 C 0.28533 0.29368 0.32173 0.0
C793 C 0.31022 0.31269 0.32687 0.0
N794 N 0.29804 0.33345 0.33669 0.0
N795 N 0.25731 0.30238 0.32813 0.0
C796 C 0.26578 0.32694 0.33706 0.0
H797 H 0.28791 0.27378 0.31427 0.0
Co798 Co 0.21783 0.27984 0.32655 0.0
C799 C 0.16762 0.32814 0.33425 0.0
O800 O 0.15215 0.3065 0.34203 0.0
N801 N 0.17788 0.2562 0.32472 0.0
C802 C 0.13929 0.21848 0.32703 0.0
C803 C 0.17118 0.2262 0.32981 0.0
C804 C 0.14983 0.26524 0.31813 0.0
N805 N 0.12556 0.24329 0.31984 0.0
O806 O 0.21896 0.28458 0.30628 0.0
H807 H 0.188 0.21069 0.33543 0.0
H808 H 0.14698 0.2881 0.31256 0.0
O809 O 0.19424 0.32098 0.328 0.0
C810 C 0.22942 0.25887 0.30024 0.0
O811 O 0.2367 0.23373 0.30832 0.0
N812 N 0.21905 0.27243 0.34641 0.0
C813 C 0.2191 0.24647 0.37395 0.0
C814 C 0.21001 0.27898 0.37163 0.0
C815 C 0.21057 0.29171 0.35773 0.0
C816 C 0.23295 0.24297 0.34885 0.0
C817 C 0.2326 0.22915 0.36245 0.0
H818 H 0.20356 0.31668 0.35623 0.0
H819 H 0.24218 0.22905 0.3399 0.0
H820 H 0.24895 0.33864 0.34428 0.0
H821 H 0.33552 0.31054 0.32388 0.0
H822 H 0.12686 0.1968 0.33064 0.0
H823 H 0.2011 0.29395 0.38032 0.0
H824 H 0.24045 0.20418 0.36356 0.0
C825 C 0.46096 0.52852 0.06672 0.0
C826 C 0.44126 0.55265 0.07207 0.0
N827 N 0.42492 0.54083 0.08347 0.0
N828 N 0.45707 0.50139 0.07461 0.0
C829 C 0.43475 0.50955 0.08466 0.0
H830 H 0.47799 0.53107 0.05797 0.0
Co831 Co 0.48206 0.46357 0.07305 0.0
C832 C 0.43803 0.40967 0.08169 0.0
O833 O 0.4616 0.39434 0.08836 0.0
N834 N 0.50801 0.42521 0.0713 0.0
C835 C 0.547 0.3886 0.07474 0.0
C836 C 0.53765 0.42023 0.07705 0.0
C837 C 0.50089 0.39655 0.06477 0.0
N838 N 0.52346 0.3732 0.06731 0.0
O839 O 0.47457 0.4627 0.0529 0.0
H840 H 0.55148 0.43806 0.08295 0.0
H841 H 0.47822 0.3923 0.05921 0.0
O842 O 0.44277 0.43747 0.07598 0.0
C843 C 0.49985 0.47141 0.046 0.0
O844 O 0.52638 0.47834 0.05323 0.0
N845 N 0.49225 0.46717 0.09256 0.0
C846 C 0.52489 0.47126 0.11861 0.0
C847 C 0.49507 0.45462 0.11756 0.0
C848 C 0.47857 0.45367 0.10447 0.0
C849 C 0.51827 0.48736 0.0939 0.0
C850 C 0.53482 0.49006 0.10685 0.0
H851 H 0.45557 0.44135 0.10403 0.0
H852 H 0.52759 0.4997 0.08452 0.0
H853 H 0.42724 0.49339 0.09318 0.0
H854 H 0.43979 0.57728 0.06805 0.0
H855 H 0.56918 0.37774 0.0787 0.0
H856 H 0.48546 0.44056 0.1264 0.0
H857 H 0.55652 0.5049 0.10728 0.0
C858 C 0.22522 0.71328 0.82323 0.0
C859 C 0.20284 0.69118 0.82822 0.0
N860 N 0.21837 0.66939 0.83654 0.0
N861 N 0.25492 0.70553 0.82826 0.0
C862 C 0.25001 0.6784 0.83621 0.0
H863 H 0.21979 0.73473 0.81699 0.0
Co864 Co 0.29143 0.73247 0.82641 0.0
C865 C 0.34683 0.69468 0.83689 0.0
O866 O 0.35476 0.7201 0.84469 0.0
N867 N 0.32857 0.76055 0.8241 0.0
C868 C 0.3638 0.8016 0.82559 0.0
C869 C 0.33234 0.79187 0.82812 0.0
C870 C 0.35781 0.75282 0.8182 0.0
N871 N 0.38022 0.77673 0.81963 0.0
O872 O 0.29182 0.72513 0.80626 0.0
H873 H 0.31383 0.80706 0.83277 0.0
H874 H 0.36313 0.72919 0.81371 0.0
O875 O 0.32077 0.69526 0.82939 0.0
C876 C 0.27811 0.74903 0.80003 0.0
O877 O 0.26777 0.77336 0.80794 0.0
N878 N 0.28804 0.74205 0.84612 0.0
C879 C 0.28577 0.76791 0.87364 0.0
C880 C 0.29351 0.73501 0.87151 0.0
C881 C 0.2941 0.72238 0.85763 0.0
C882 C 0.27432 0.77171 0.8483 0.0
C883 C 0.27387 0.78562 0.8619 0.0
H884 H 0.30102 0.69734 0.85623 0.0
H885 H 0.26552 0.78551 0.83923 0.0
H886 H 0.269 0.66608 0.84207 0.0
H887 H 0.17681 0.69243 0.82664 0.0
H888 H 0.37383 0.82513 0.82825 0.0
H889 H 0.30088 0.71966 0.88036 0.0
H890 H 0.2666 0.81079 0.86286 0.0
C891 C 0.04324 0.47601 0.57045 0.0
C892 C 0.06176 0.45102 0.57583 0.0
N893 N 0.08249 0.46318 0.58567 0.0
N894 N 0.05222 0.50411 0.57669 0.0
C895 C 0.07644 0.49555 0.5858 0.0
H896 H 0.02354 0.47346 0.56288 0.0
Co897 Co 0.03057 0.54402 0.57459 0.0
C898 C 0.08029 0.59375 0.58121 0.0
O899 O 0.05915 0.61059 0.5887 0.0
N900 N 0.00781 0.58435 0.57224 0.0
C901 C 0.97096 0.62383 0.57427 0.0
C902 C 0.97804 0.59194 0.57735 0.0
C903 C 0.0173 0.61183 0.56531 0.0
N904 N 0.99594 0.63666 0.56688 0.0
O905 O 0.03489 0.54127 0.55431 0.0
H906 H 0.9623 0.57575 0.58321 0.0
H907 H 0.04016 0.61395 0.55967 0.0
O908 O 0.07239 0.56662 0.57558 0.0
C909 C 0.00887 0.53099 0.54845 0.0
O910 O 0.98368 0.52474 0.55667 0.0
N911 N 0.02357 0.54455 0.59451 0.0
C912 C 0.99875 0.54707 0.62224 0.0
C913 C 0.03124 0.55558 0.61951 0.0
C914 C 0.04339 0.55373 0.60554 0.0
C915 C 0.99392 0.53146 0.59738 0.0
C916 C 0.98068 0.53309 0.61108 0.0
H917 H 0.06841 0.56019 0.60376 0.0
H918 H 0.97948 0.52175 0.58869 0.0
H919 H 0.08831 0.5125 0.5929 0.0
H920 H 0.05931 0.4257 0.57293 0.0
H921 H 0.94967 0.63693 0.57788 0.0
H922 H 0.04671 0.5649 0.62796 0.0
H923 H 0.95566 0.52569 0.61256 0.0
C924 C 0.28388 0.70763 0.17138 0.0
C925 C 0.30767 0.68792 0.16576 0.0
N926 N 0.29534 0.672 0.15435 0.0
N927 N 0.25642 0.70417 0.16365 0.0
C928 C 0.2641 0.68208 0.15342 0.0
H929 H 0.287 0.72435 0.18019 0.0
Co930 Co 0.21826 0.72897 0.16539 0.0
C931 C 0.16424 0.68156 0.15992 0.0
O932 O 0.145 0.70358 0.15431 0.0
N933 N 0.17979 0.75442 0.1673 0.0
C934 C 0.14132 0.79164 0.16365 0.0
C935 C 0.17267 0.78236 0.16039 0.0
C936 C 0.15288 0.74825 0.17528 0.0
N937 N 0.12864 0.76977 0.17281 0.0
O938 O 0.21943 0.72419 0.18567 0.0
H939 H 0.18863 0.79453 0.15292 0.0
H940 H 0.15022 0.7269 0.18196 0.0
O941 O 0.19307 0.68865 0.16389 0.0
C942 C 0.23088 0.74997 0.19134 0.0
O943 O 0.23909 0.77416 0.18287 0.0
N944 N 0.21975 0.73709 0.14563 0.0
C945 C 0.22071 0.77205 0.12009 0.0
C946 C 0.19943 0.74549 0.1219 0.0
C947 C 0.19996 0.72768 0.13467 0.0
C948 C 0.24358 0.7594 0.14325 0.0
C949 C 0.2452 0.7764 0.13039 0.0
H950 H 0.18332 0.70784 0.1358 0.0
H951 H 0.26002 0.7658 0.15184 0.0
H952 H 0.24759 0.67499 0.14495 0.0
H953 H 0.33242 0.68615 0.1696 0.0
H954 H 0.12813 0.81162 0.15885 0.0
H955 H 0.18065 0.73997 0.11417 0.0
H956 H 0.26372 0.79487 0.12921 0.0
C957 C 0.04419 0.53738 0.92166 0.0
C958 C 0.06659 0.55823 0.91572 0.0
N959 N 0.08365 0.54194 0.90571 0.0
N960 N 0.04712 0.50785 0.91554 0.0
C961 C 0.07146 0.5114 0.90588 0.0
H962 H 0.0261 0.54381 0.92955 0.0
Co963 Co 0.01955 0.47232 0.91884 0.0
C964 C 0.05305 0.41536 0.90691 0.0
O965 O 0.02541 0.40693 0.90089 0.0
N966 N 0.99154 0.43597 0.92251 0.0
C967 C 0.95231 0.39859 0.92173 0.0
C968 C 0.96061 0.43018 0.91836 0.0
C969 C 1.00065 0.40795 0.92909 0.0
N970 N 0.97784 0.38436 0.92821 0.0
O971 O 0.0319 0.47175 0.93855 0.0
H972 H 0.94532 0.44701 0.91261 0.0
H973 H 0.02466 0.40417 0.93352 0.0
O974 O 0.05489 0.442 0.91397 0.0
C975 C 0.00946 0.48687 0.94522 0.0
O976 O 0.98463 0.49783 0.93779 0.0
N977 N 0.00456 0.47636 0.89992 0.0
C978 C 0.96959 0.48328 0.87455 0.0
C979 C 1.00089 0.46945 0.87449 0.0
C980 C 0.0185 0.46729 0.88725 0.0
C981 C 0.97677 0.49429 0.89978 0.0
C982 C 0.95887 0.49814 0.88723 0.0
H983 H 0.04262 0.45715 0.88688 0.0
H984 H 0.96749 0.50418 0.9097 0.0
H985 H 0.0797 0.49215 0.89889 0.0
H986 H 0.069 0.58386 0.91811 0.0
H987 H 0.93004 0.38641 0.91868 0.0
H988 H 0.01108 0.45851 0.86496 0.0
H989 H 0.93593 0.51095 0.88772 0.0
C990 C 0.2251 0.29187 0.67158 0.0
C991 C 0.20076 0.31141 0.66633 0.0
N992 N 0.21323 0.33075 0.65602 0.0
N993 N 0.25309 0.29879 0.66477 0.0
C994 C 0.24519 0.32288 0.65548 0.0
H995 H 0.22221 0.27287 0.67948 0.0
Co996 Co 0.29141 0.27458 0.66681 0.0
C997 C 0.345 0.31713 0.65792 0.0
O998 O 0.35758 0.29266 0.65075 0.0
N999 N 0.33032 0.24937 0.66926 0.0
C1000 C 0.36962 0.21239 0.66721 0.0
C1001 C 0.338 0.21996 0.66379 0.0
C1002 C 0.3574 0.25812 0.67666 0.0
N1003 N 0.38218 0.23669 0.67514 0.0
O1004 O 0.29062 0.28192 0.68696 0.0
H1005 H 0.3223 0.20498 0.65733 0.0
H1006 H 0.35936 0.28081 0.68245 0.0
O1007 O 0.31752 0.314 0.66417 0.0
C1008 C 0.28166 0.25655 0.69373 0.0
O1009 O 0.27512 0.2301 0.68638 0.0
N1010 N 0.28957 0.26491 0.64715 0.0
C1011 C 0.28654 0.23775 0.61984 0.0
C1012 C 0.29651 0.27014 0.62174 0.0
C1013 C 0.29764 0.28341 0.63552 0.0
C1014 C 0.27501 0.23558 0.64523 0.0
C1015 C 0.27397 0.22112 0.63176 0.0
H1016 H 0.30557 0.30822 0.63669 0.0
H1017 H 0.26625 0.22228 0.65445 0.0
H1018 H 0.26219 0.33336 0.64798 0.0
H1019 H 0.1756 0.31062 0.66966 0.0
H1020 H 0.38278 0.19135 0.66338 0.0
H1021 H 0.30471 0.2847 0.61277 0.0
H1022 H 0.26559 0.19626 0.63104 0.0
C1023 C 0.46341 0.47619 0.42465 0.0
C1024 C 0.44336 0.45259 0.4191 0.0
N1025 N 0.42804 0.46474 0.4075 0.0
N1026 N 0.46074 0.5034 0.4167 0.0
C1027 C 0.43878 0.49574 0.4064 0.0
H1028 H 0.47979 0.47307 0.43358 0.0
Co1029 Co 0.48624 0.54111 0.41834 0.0
C1030 C 0.44143 0.59616 0.41139 0.0
O1031 O 0.46494 0.61361 0.40577 0.0
N1032 N 0.51245 0.57916 0.42012 0.0
C1033 C 0.54882 0.61795 0.41573 0.0
C1034 C 0.53978 0.58644 0.41281 0.0
C1035 C 0.50658 0.60618 0.42808 0.0
N1036 N 0.5275 0.63077 0.42514 0.0
O1037 O 0.47976 0.54142 0.43851 0.0
H1038 H 0.55159 0.57064 0.40518 0.0
H1039 H 0.48559 0.60857 0.43498 0.0
O1040 O 0.44684 0.56724 0.41579 0.0
C1041 C 0.50463 0.52932 0.44465 0.0
O1042 O 0.52921 0.52004 0.43664 0.0
N1043 N 0.49545 0.53815 0.39876 0.0
C1044 C 0.52581 0.53285 0.37222 0.0
C1045 C 0.49795 0.55234 0.37394 0.0
C1046 C 0.48269 0.55417 0.38728 0.0
C1047 C 0.51978 0.51613 0.39687 0.0
C1048 C 0.5351 0.51279 0.38366 0.0
H1049 H 0.46147 0.56917 0.38826 0.0
H1050 H 0.52864 0.50248 0.40598 0.0
H1051 H 0.43219 0.51207 0.3978 0.0
H1052 H 0.44097 0.42808 0.42316 0.0
H1053 H 0.5682 0.63108 0.41044 0.0
H1054 H 0.48923 0.56793 0.36542 0.0
H1055 H 0.55549 0.49631 0.38275 0.0
H1056 H 0.59361 0.29129 0.18103 0.0
H1057 H 0.57896 0.18759 0.17778 0.0
H1058 H 0.53525 0.29918 0.18276 0.0
H1059 H 0.52049 0.19565 0.17899 0.0
H1060 H 0.41479 0.21908 0.1901 0.0
H1061 H 0.47335 0.21145 0.19273 0.0
H1062 H 0.49034 0.29639 0.16662 0.0
H1063 H 0.43254 0.30402 0.16398 0.0
C1064 C 0.57816 0.27006 0.18081 0.0
C1065 C 0.59143 0.23879 0.17898 0.0
C1066 C 0.54444 0.27465 0.18167 0.0
C1067 C 0.52287 0.24812 0.18077 0.0
C1068 C 0.53616 0.21672 0.17974 0.0
C1069 C 0.56989 0.21213 0.17888 0.0
C1070 C 0.43092 0.23622 0.18495 0.0
C1071 C 0.41837 0.26233 0.17689 0.0
C1072 C 0.46465 0.2318 0.18645 0.0
C1073 C 0.48683 0.2534 0.17996 0.0
C1074 C 0.47424 0.27963 0.17207 0.0
C1075 C 0.44071 0.284 0.17055 0.0
H1076 H 0.95364 0.17858 0.41014 0.0
H1077 H 0.032 0.16426 0.44033 0.0
H1078 H 0.95921 0.2367 0.41253 0.0
H1079 H 0.03756 0.22315 0.44273 0.0
H1080 H 0.95801 0.34053 0.42592 0.0
H1081 H 0.95121 0.28203 0.42787 0.0
H1082 H 0.05545 0.27025 0.42949 0.0
H1083 H 0.06208 0.32905 0.42826 0.0
C1084 C 0.97169 0.18763 0.41755 0.0
C1085 C 0.99219 0.1662 0.42511 0.0
C1086 C 0.97489 0.22131 0.41892 0.0
C1087 C 0.99871 0.23493 0.4279 0.0
C1088 C 0.01911 0.21364 0.4356 0.0
C1089 C 0.01589 0.17975 0.43423 0.0
C1090 C 0.97946 0.32567 0.42709 0.0
C1091 C 0.01058 0.3398 0.42688 0.0
C1092 C 0.97561 0.29189 0.42799 0.0
C1093 C 1.00279 0.27111 0.42864 0.0
C1094 C 0.0339 0.28531 0.42908 0.0
C1095 C 0.03772 0.31914 0.42821 0.0
H1096 H 0.09354 0.8004 0.67717 0.0
H1097 H 0.07813 0.69698 0.68053 0.0
H1098 H 0.03548 0.80956 0.67989 0.0
H1099 H 0.01982 0.70592 0.68249 0.0
H1100 H 0.91581 0.73271 0.69437 0.0
H1101 H 0.97463 0.72572 0.69618 0.0
H1102 H 0.9885 0.80306 0.66549 0.0
H1103 H 0.93037 0.81009 0.66373 0.0
C1104 C 0.07792 0.7796 0.67871 0.0
C1105 C 0.09079 0.74795 0.67857 0.0
C1106 C 0.04439 0.78481 0.68005 0.0
C1107 C 0.02263 0.75849 0.68123 0.0
C1108 C 0.03564 0.72687 0.6817 0.0
C1109 C 0.0692 0.7217 0.68041 0.0
C1110 C 0.93138 0.74833 0.68806 0.0
C1111 C 0.91793 0.77208 0.67895 0.0
C1112 C 0.96522 0.74427 0.68908 0.0
C1113 C 0.98658 0.76387 0.68101 0.0
C1114 C 0.97308 0.78794 0.67213 0.0
C1115 C 0.93942 0.79199 0.67112 0.0
H1116 H 0.44704 0.67687 0.92577 0.0
H1117 H 0.55092 0.66312 0.92401 0.0
H1118 H 0.45493 0.73534 0.92782 0.0
H1119 H 0.55894 0.72133 0.92679 0.0
H1120 H 0.4797 0.83971 0.94037 0.0
H1121 H 0.47314 0.7808 0.94189 0.0
H1122 H 0.55269 0.7682 0.91222 0.0
H1123 H 0.55929 0.82638 0.91073 0.0
C1124 C 0.47161 0.6862 0.92601 0.0
C1125 C 0.49833 0.66502 0.9246 0.0
C1126 C 0.47617 0.71985 0.92735 0.0
C1127 C 0.5076 0.73335 0.92735 0.0
C1128 C 0.53433 0.71202 0.92658 0.0
C1129 C 0.52976 0.67841 0.9252 0.0
C1130 C 0.49588 0.82442 0.93421 0.0
C1131 C 0.52017 0.83826 0.92549 0.0
C1132 C 0.49208 0.79052 0.93506 0.0
C1133 C 0.51246 0.76948 0.92723 0.0
C1134 C 0.53695 0.78336 0.91869 0.0
C1135 C 0.54075 0.81708 0.91783 0.0
H1136 H 0.41273 0.7885 0.31997 0.0
H1137 H 0.42442 0.6906 0.30449 0.0
H1138 H 0.471 0.79695 0.31863 0.0
H1139 H 0.48287 0.69933 0.30219 0.0
H1140 H 0.58899 0.71155 0.3159 0.0
H1141 H 0.53072 0.70307 0.31446 0.0
H1142 H 0.51734 0.80549 0.30578 0.0
H1143 H 0.57562 0.81393 0.30826 0.0
C1144 C 0.42777 0.769 0.31592 0.0
C1145 C 0.4139 0.73887 0.31234 0.0
C1146 C 0.46142 0.77385 0.31506 0.0
C1147 C 0.48231 0.74888 0.31029 0.0
C1148 C 0.46808 0.71904 0.30624 0.0
C1149 C 0.43444 0.71401 0.30741 0.0
C1150 C 0.57363 0.7322 0.31362 0.0
C1151 C 0.58707 0.7635 0.31248 0.0
C1152 C 0.53996 0.72735 0.31267 0.0
C1153 C 0.51863 0.75361 0.31017 0.0
C1154 C 0.53245 0.78467 0.30818 0.0
C1155 C 0.56607 0.78957 0.30946 0.0
H1156 H 0.43738 0.3325 0.57056 0.0
H1157 H 0.53978 0.34525 0.56233 0.0
H1158 H 0.44416 0.27375 0.56914 0.0
H1159 H 0.54638 0.28679 0.56043 0.0
H1160 H 0.46409 0.16748 0.55698 0.0
H1161 H 0.4564 0.22602 0.55463 0.0
H1162 H 0.54658 0.24249 0.57709 0.0
H1163 H 0.55437 0.18475 0.5795 0.0
C1164 C 0.46132 0.32294 0.56829 0.0
C1165 C 0.48815 0.34401 0.56682 0.0
C1166 C 0.46514 0.2891 0.56733 0.0
C1167 C 0.49593 0.27528 0.56487 0.0
C1168 C 0.52239 0.29639 0.56263 0.0
C1169 C 0.51854 0.33017 0.56357 0.0
C1170 C 0.48241 0.18342 0.5614 0.0
C1171 C 0.51 0.17067 0.5684 0.0
C1172 C 0.47791 0.21718 0.56006 0.0
C1173 C 0.50094 0.23921 0.56559 0.0
C1174 C 0.52861 0.22647 0.5724 0.0
C1175 C 0.53305 0.19292 0.57379 0.0
H1176 H 0.08157 0.31038 0.82791 0.0
H1177 H 0.0992 0.22604 0.80142 0.0
H1178 H 0.02368 0.30236 0.82551 0.0
H1179 H 0.04066 0.21785 0.79915 0.0
H1180 H 0.93668 0.19197 0.81594 0.0
H1181 H 0.99496 0.20115 0.81392 0.0
H1182 H 0.97788 0.30419 0.8095 0.0
H1183 H 0.91971 0.29513 0.81199 0.0
C1184 C 0.07333 0.29043 0.82132 0.0
C1185 C 0.09562 0.26889 0.81488 0.0
C1186 C 0.0398 0.28582 0.81994 0.0
C1187 C 0.02725 0.25946 0.81212 0.0
C1188 C 0.04937 0.23822 0.80541 0.0
C1189 C 0.08307 0.24293 0.80673 0.0
C1190 C 0.94526 0.2166 0.81448 0.0
C1191 C 0.92324 0.24282 0.81439 0.0
C1192 C 0.9788 0.22184 0.81316 0.0
C1193 C 0.99134 0.25347 0.81171 0.0
C1194 C 0.96923 0.27953 0.81086 0.0
C1195 C 0.93568 0.27428 0.81215 0.0
H1196 H 0.03097 0.84717 0.05714 0.0
H1197 H 0.94819 0.83031 0.08458 0.0
H1198 H 0.0387 0.78848 0.05484 0.0
H1199 H 0.95599 0.77224 0.08243 0.0
H1200 H 0.95977 0.66845 0.06855 0.0
H1201 H 0.95165 0.72684 0.06708 0.0
H1202 H 0.05561 0.74137 0.06781 0.0
H1203 H 0.06365 0.68278 0.0685 0.0
C1204 C 0.01443 0.83108 0.06269 0.0
C1205 C 0.98875 0.8438 0.07095 0.0
C1206 C 0.01888 0.79731 0.06139 0.0
C1207 C 0.99785 0.7753 0.06836 0.0
C1208 C 0.97225 0.78814 0.07659 0.0
C1209 C 0.96777 0.82173 0.07784 0.0
C1210 C 0.98094 0.68391 0.06803 0.0
C1211 C 0.01237 0.67055 0.06872 0.0
C1212 C 0.97629 0.71765 0.06742 0.0
C1213 C 1.00294 0.73919 0.06754 0.0
C1214 C 0.03442 0.72578 0.06762 0.0
C1215 C 0.03905 0.69201 0.06818 0.0
H1216 H 0.5907 0.80464 0.81866 0.0
H1217 H 0.57628 0.70091 0.81651 0.0
H1218 H 0.53242 0.81305 0.81624 0.0
H1219 H 0.51783 0.70913 0.81481 0.0
H1220 H 0.41359 0.73392 0.80274 0.0
H1221 H 0.47244 0.72755 0.80101 0.0
H1222 H 0.48539 0.80699 0.83071 0.0
H1223 H 0.4271 0.81346 0.83236 0.0
C1224 C 0.57524 0.78361 0.81746 0.0
C1225 C 0.58846 0.75209 0.81783 0.0
C1226 C 0.54159 0.78839 0.81629 0.0
C1227 C 0.52008 0.76179 0.81549 0.0
C1228 C 0.53343 0.73029 0.81529 0.0
C1229 C 0.56709 0.72554 0.81643 0.0
C1230 C 0.42894 0.75013 0.80886 0.0
C1231 C 0.41517 0.77431 0.81765 0.0
C1232 C 0.46282 0.74642 0.80789 0.0
C1233 C 0.48395 0.76677 0.8157 0.0
C1234 C 0.47015 0.79125 0.82428 0.0
C1235 C 0.43641 0.79497 0.82523 0.0
H1236 H 0.05348 0.66858 0.56427 0.0
H1237 H 0.94972 0.68318 0.563 0.0
H1238 H 0.06195 0.72684 0.56214 0.0
H1239 H 0.95806 0.74174 0.56159 0.0
H1240 H 0.98375 0.84682 0.55046 0.0
H1241 H 0.97667 0.78811 0.54806 0.0
H1242 H 0.05616 0.77254 0.57748 0.0
H1243 H 0.06321 0.83054 0.57987 0.0
C1244 C 0.03244 0.68408 0.56329 0.0
C1245 C 1.00093 0.6709 0.56385 0.0
C1246 C 0.03727 0.71772 0.56229 0.0
C1247 C 0.01071 0.73929 0.56188 0.0
C1248 C 0.97916 0.72604 0.5618 0.0
C1249 C 0.97436 0.69235 0.56276 0.0
C1250 C 0.99981 0.83091 0.55637 0.0
C1251 C 0.02417 0.84386 0.56532 0.0
C1252 C 0.9957 0.79713 0.55501 0.0
C1253 C 0.0159 0.77534 0.56253 0.0
C1254 C 0.04054 0.78834 0.57126 0.0
C1255 C 0.04461 0.82193 0.57263 0.0
H1256 H 0.9155 0.22635 0.30364 0.0
H1257 H 0.93027 0.30626 0.33297 0.0
H1258 H 0.97437 0.22018 0.30139 0.0
H1259 H 0.98836 0.3001 0.33073 0.0
H1260 H 0.09217 0.30002 0.31729 0.0
H1261 H 0.03371 0.30699 0.31527 0.0
H1262 H 0.02133 0.20276 0.3149 0.0
H1263 H 0.0801 0.1959 0.3162 0.0
C1264 C 0.93109 0.24267 0.30958 0.0
C1265 C 0.91768 0.267 0.31841 0.0
C1266 C 0.96496 0.2391 0.3083 0.0
C1267 C 0.98635 0.25978 0.31579 0.0
C1268 C 0.97288 0.28418 0.3245 0.0
C1269 C 0.93922 0.28773 0.32578 0.0
C1270 C 0.07719 0.27858 0.31639 0.0
C1271 C 0.09114 0.24741 0.31697 0.0
C1272 C 0.04343 0.28255 0.31545 0.0
C1273 C 0.02251 0.25545 0.31512 0.0
C1274 C 0.03652 0.22425 0.31506 0.0
C1275 C 0.07033 0.2203 0.31596 0.0
H1276 H 0.44322 0.17891 0.06324 0.0
H1277 H 0.54671 0.16215 0.06526 0.0
H1278 H 0.45283 0.2372 0.06164 0.0
H1279 H 0.55635 0.22025 0.06316 0.0
H1280 H 0.55843 0.32485 0.08017 0.0
H1281 H 0.55061 0.26694 0.07816 0.0
H1282 H 0.47312 0.28244 0.04773 0.0
H1283 H 0.48096 0.34104 0.04968 0.0
C1284 C 0.46806 0.18753 0.06319 0.0
C1285 C 0.49411 0.16552 0.06457 0.0
C1286 C 0.4736 0.22109 0.06212 0.0
C1287 C 0.50539 0.23371 0.06239 0.0
C1288 C 0.53149 0.21161 0.06315 0.0
C1289 C 0.52594 0.17806 0.0642 0.0
C1290 C 0.54007 0.31633 0.0728 0.0
C1291 C 0.52039 0.3383 0.06509 0.0
C1292 C 0.53558 0.28271 0.07165 0.0
C1293 C 0.51123 0.2697 0.06277 0.0
C1294 C 0.49188 0.29148 0.05483 0.0
C1295 C 0.49643 0.32526 0.05594 0.0
H1296 H 0.57521 0.307 0.66473 0.0
H1297 H 0.59213 0.22338 0.69179 0.0
H1298 H 0.51732 0.29946 0.66713 0.0
H1299 H 0.53352 0.21567 0.69402 0.0
H1300 H 0.42925 0.19033 0.67727 0.0
H1301 H 0.48761 0.19895 0.67923 0.0
H1302 H 0.47163 0.30223 0.68326 0.0
H1303 H 0.41341 0.29377 0.6809 0.0
C1304 C 0.56686 0.28729 0.67143 0.0
C1305 C 0.58899 0.2658 0.67803 0.0
C1306 C 0.53329 0.28297 0.67281 0.0
C1307 C 0.52051 0.25696 0.68078 0.0
C1308 C 0.54244 0.23578 0.68765 0.0
C1309 C 0.57619 0.24021 0.68635 0.0
C1310 C 0.43805 0.21491 0.67861 0.0
C1311 C 0.41629 0.24136 0.6786 0.0
C1312 C 0.47166 0.21982 0.6799 0.0
C1313 C 0.48454 0.25134 0.68122 0.0
C1314 C 0.46271 0.27764 0.68198 0.0
C1315 C 0.42911 0.27272 0.68075 0.0
H1316 H 0.57422 0.67762 0.42476 0.0
H1317 H 0.47183 0.66267 0.43249 0.0
H1318 H 0.56623 0.73622 0.42625 0.0
H1319 H 0.46411 0.72104 0.43453 0.0
H1320 H 0.45447 0.82354 0.41599 0.0
H1321 H 0.46317 0.76579 0.41822 0.0
H1322 H 0.55316 0.7834 0.44069 0.0
H1323 H 0.54447 0.84188 0.4385 0.0
C1324 C 0.55006 0.68672 0.42697 0.0
C1325 C 0.52366 0.66511 0.42832 0.0
C1326 C 0.54553 0.72045 0.42796 0.0
C1327 C 0.51443 0.73362 0.43034 0.0
C1328 C 0.48833 0.71194 0.43241 0.0
C1329 C 0.49286 0.67824 0.43143 0.0
C1330 C 0.47589 0.81552 0.42168 0.0
C1331 C 0.49859 0.83802 0.42714 0.0
C1332 C 0.48088 0.78202 0.42296 0.0
C1333 C 0.50878 0.76962 0.42972 0.0
C1334 C 0.53149 0.79195 0.4353 0.0
C1335 C 0.52645 0.82565 0.43405 0.0
H1336 H 0.08562 0.81705 0.17972 0.0
H1337 H 0.09388 0.71407 0.17261 0.0
H1338 H 0.02696 0.81132 0.18292 0.0
H1339 H 0.0355 0.70808 0.17491 0.0
H1340 H 0.93043 0.69903 0.18635 0.0
H1341 H 0.98906 0.70649 0.1881 0.0
H1342 H 0.97874 0.80393 0.17125 0.0
H1343 H 0.92012 0.79674 0.1705 0.0
C1344 C 0.07482 0.79313 0.17892 0.0
C1345 C 0.09447 0.76597 0.17609 0.0
C1346 C 0.04105 0.78977 0.18059 0.0
C1347 C 0.02581 0.75918 0.17912 0.0
C1348 C 0.04584 0.73199 0.1765 0.0
C1349 C 0.07959 0.73533 0.17514 0.0
C1350 C 0.9408 0.72216 0.18323 0.0
C1351 C 0.9206 0.74726 0.17826 0.0
C1352 C 0.97458 0.72644 0.18407 0.0
C1353 C 0.98934 0.75573 0.17963 0.0
C1354 C 0.96879 0.78114 0.17501 0.0
C1355 C 0.93495 0.77705 0.1745 0.0
H1356 H 0.9322 0.34002 0.9359 0.0
H1357 H 0.0336 0.3499 0.92515 0.0
H1358 H 0.93885 0.28117 0.93769 0.0
H1359 H 0.0402 0.29138 0.92627 0.0
H1360 H 0.05169 0.18616 0.93764 0.0
H1361 H 0.04376 0.24467 0.93988 0.0
H1362 H 0.94536 0.23399 0.92428 0.0
H1363 H 0.95326 0.17538 0.92266 0.0
C1364 C 0.95594 0.3296 0.93394 0.0
C1365 C 0.98236 0.3498 0.93047 0.0
C1366 C 0.95978 0.29574 0.93485 0.0
C1367 C 0.9901 0.281 0.93209 0.0
C1368 C 0.01659 0.30144 0.92881 0.0
C1369 C 0.01283 0.33526 0.92812 0.0
C1370 C 0.02826 0.19639 0.93488 0.0
C1371 C 1.00307 0.1761 0.93005 0.0
C1372 C 0.02371 0.23006 0.93603 0.0
C1373 C 0.99397 0.24461 0.93212 0.0
C1374 C 0.96848 0.22402 0.92763 0.0
C1375 C 0.97293 0.19025 0.9267 0.0
H1376 H 0.43006 0.00435 0.13491 0.0
H1377 H 0.49579 0.08507 0.14141 0.0
H1378 H 0.39034 0.03064 0.15049 0.0
H1379 H 0.45702 0.11028 0.15714 0.0
H1380 H 0.32585 0.12757 0.14422 0.0
H1381 H 0.36091 0.08002 0.14219 0.0
H1382 H 0.41957 0.11564 0.17728 0.0
H1383 H 0.38462 0.1635 0.17901 0.0
C1384 C 0.43654 0.0271 0.13998 0.0
C1385 C 0.46565 0.04318 0.1364 0.0
C1386 C 0.41385 0.042 0.14899 0.0
C1387 C 0.4202 0.07289 0.15474 0.0
C1388 C 0.45126 0.08646 0.15291 0.0
C1389 C 0.47371 0.07183 0.1438 0.0
C1390 C 0.3454 0.12435 0.15187 0.0
C1391 C 0.35285 0.1489 0.16169 0.0
C1392 C 0.36541 0.09707 0.15081 0.0
C1393 C 0.39329 0.09428 0.15948 0.0
C1394 C 0.39846 0.1173 0.17038 0.0
C1395 C 0.37849 0.14461 0.17139 0.0
H1396 H 0.16421 0.25599 0.38981 0.0
H1397 H 0.25041 0.19601 0.38784 0.0
H1398 H 0.13838 0.21655 0.40503 0.0
H1399 H 0.22368 0.15557 0.40293 0.0
H1400 H 0.13419 0.08194 0.39557 0.0
H1401 H 0.17876 0.12096 0.39397 0.0
H1402 H 0.13156 0.18141 0.42563 0.0
H1403 H 0.0867 0.14272 0.4268 0.0
C1404 C 0.17836 0.23511 0.39311 0.0
C1405 C 0.20906 0.22876 0.38713 0.0
C1406 C 0.16337 0.21225 0.40191 0.0
C1407 C 0.17866 0.18246 0.40488 0.0
C1408 C 0.21103 0.178 0.40053 0.0
C1409 C 0.22624 0.20113 0.39183 0.0
C1410 C 0.1342 0.10292 0.40258 0.0
C1411 C 0.10727 0.10962 0.41124 0.0
C1412 C 0.15974 0.12522 0.40176 0.0
C1413 C 0.15846 0.15454 0.40955 0.0
C1414 C 0.13303 0.15927 0.41938 0.0
C1415 C 0.10743 0.13712 0.42009 0.0
H1416 H 0.17943 0.87472 0.64128 0.0
H1417 H 0.13014 0.84488 0.67984 0.0
H1418 H 0.14337 0.92169 0.63934 0.0
H1419 H 0.09304 0.8912 0.67767 0.0
H1420 H 0.01285 0.91494 0.64027 0.0
H1421 H 0.053 0.8905 0.65569 0.0
H1422 H 0.11506 0.97418 0.65059 0.0
H1423 H 0.07364 1.00024 0.63582 0.0
C1424 C 0.16174 0.87912 0.64966 0.0
C1425 C 0.15715 0.8564 0.66062 0.0
C1426 C 0.14118 0.90599 0.64862 0.0
C1427 C 0.11533 0.9099 0.65834 0.0
C1428 C 0.11282 0.88872 0.67009 0.0
C1429 C 0.13384 0.86221 0.67127 0.0
C1430 C 0.03405 0.92923 0.64298 0.0
C1431 C 0.04039 0.95916 0.63623 0.0
C1432 C 0.05724 0.91502 0.65188 0.0
C1433 C 0.08739 0.93019 0.65403 0.0
C1434 C 0.09212 0.96185 0.64889 0.0
C1435 C 0.06851 0.9765 0.64027 0.0
H1436 H 0.25717 0.82098 0.88687 0.0
H1437 H 0.3385 0.75483 0.89044 0.0
H1438 H 0.28555 0.85955 0.90231 0.0
H1439 H 0.36585 0.79241 0.90592 0.0
H1440 H 0.42233 0.86261 0.92749 0.0
H1441 H 0.37479 0.82718 0.9261 0.0
H1442 H 0.33275 0.89096 0.89425 0.0
H1443 H 0.3798 0.9268 0.89618 0.0
C1444 C 0.28056 0.81415 0.89125 0.0
C1445 C 0.296 0.78523 0.88691 0.0
C1446 C 0.29671 0.83621 0.90016 0.0
C1447 C 0.32831 0.82946 0.90503 0.0
C1448 C 0.34153 0.79854 0.9024 0.0
C1449 C 0.32562 0.77673 0.89343 0.0
C1450 C 0.40218 0.8696 0.92067 0.0
C1451 C 0.40441 0.89707 0.91187 0.0
C1452 C 0.37506 0.84935 0.91984 0.0
C1453 C 0.35024 0.85589 0.90988 0.0
C1454 C 0.35122 0.88528 0.90213 0.0
C1455 C 0.37822 0.90573 0.90312 0.0
H1456 H 0.43235 0.98457 0.35869 0.0
H1457 H 0.51206 0.91748 0.35221 0.0
H1458 H 0.39667 0.94822 0.34554 0.0
H1459 H 0.47728 0.88348 0.33785 0.0
H1460 H 0.4014 0.80719 0.35034 0.0
H1461 H 0.43955 0.8512 0.35169 0.0
H1462 H 0.37548 0.91177 0.3265 0.0
H1463 H 0.33625 0.86671 0.32517 0.0
C1464 C 0.44268 0.96274 0.3541 0.0
C1465 C 0.4746 0.95289 0.35753 0.0
C1466 C 0.42223 0.94218 0.34629 0.0
C1467 C 0.43385 0.91215 0.34136 0.0
C1468 C 0.46736 0.90588 0.34211 0.0
C1469 C 0.48751 0.9258 0.35029 0.0
C1470 C 0.39522 0.82972 0.34499 0.0
C1471 C 0.36561 0.83345 0.33772 0.0
C1472 C 0.41752 0.85493 0.34556 0.0
C1473 C 0.41097 0.88484 0.33891 0.0
C1474 C 0.38131 0.88886 0.33161 0.0
C1475 C 0.35883 0.86322 0.33093 0.0
H1476 H 0.41136 0.13216 0.56432 0.0
H1477 H 0.37559 0.07884 0.60082 0.0
H1478 H 0.36443 0.16849 0.56558 0.0
H1479 H 0.32862 0.11491 0.60215 0.0
H1480 H 0.33822 0.24739 0.60185 0.0
H1481 H 0.36196 0.20746 0.58624 0.0
H1482 H 0.27891 0.14486 0.59229 0.0
H1483 H 0.25375 0.18601 0.6075 0.0
C1484 C 0.39262 0.12738 0.57219 0.0
C1485 C 0.3968 0.10302 0.58253 0.0
C1486 C 0.36581 0.1481 0.57291 0.0
C1487 C 0.34304 0.14472 0.58403 0.0
C1488 C 0.34552 0.11792 0.59335 0.0
C1489 C 0.37245 0.09736 0.59268 0.0
C1490 C 0.32389 0.2261 0.59933 0.0
C1491 C 0.29454 0.2195 0.6065 0.0
C1492 C 0.33769 0.20298 0.59029 0.0
C1493 C 0.32266 0.17265 0.58837 0.0
C1494 C 0.29126 0.16784 0.59384 0.0
C1495 C 0.27709 0.19132 0.60268 0.0
H1496 H 0.06504 0.01642 0.85889 0.0
H1497 H 0.00453 0.10197 0.85569 0.0
H1498 H 0.10469 0.04164 0.8429 0.0
H1499 H 0.04337 0.12658 0.83973 0.0
H1500 H 0.11611 0.17687 0.81682 0.0
H1501 H 0.07736 0.13228 0.81901 0.0
H1502 H 0.14009 0.08646 0.85023 0.0
H1503 H 0.17921 0.13061 0.84751 0.0
C1504 C 0.05968 0.04013 0.85444 0.0
C1505 C 0.03211 0.05761 0.85896 0.0
C1506 C 0.08236 0.0545 0.84525 0.0
C1507 C 0.07762 0.08641 0.84033 0.0
C1508 C 0.0479 0.10192 0.84327 0.0
C1509 C 0.02541 0.0877 0.85249 0.0
C1510 C 0.12216 0.15645 0.82363 0.0
C1511 C 0.15036 0.1569 0.83204 0.0
C1512 C 0.09996 0.13101 0.82494 0.0
C1513 C 0.1053 0.10613 0.83499 0.0
C1514 C 0.13527 0.10505 0.8423 0.0
C1515 C 0.15766 0.13037 0.84083 0.0
H1516 H 0.23459 0.83734 0.12264 0.0
H1517 H 0.18849 0.76859 0.09388 0.0
H1518 H 0.20644 0.88111 0.1111 0.0
H1519 H 0.15831 0.81323 0.08305 0.0
H1520 H 0.10327 0.90508 0.06852 0.0
H1521 H 0.15278 0.87181 0.07114 0.0
H1522 H 0.14571 0.88131 0.11716 0.0
H1523 H 0.0965 0.91338 0.11451 0.0
C1524 C 0.21957 0.83122 0.11353 0.0
C1525 C 0.21294 0.79868 0.10972 0.0
C1526 C 0.20317 0.85672 0.10695 0.0
C1527 C 0.17943 0.85038 0.09658 0.0
C1528 C 0.17625 0.81869 0.09119 0.0
C1529 C 0.19316 0.79302 0.09763 0.0
C1530 C 0.11304 0.9006 0.07912 0.0
C1531 C 0.09646 0.91159 0.09135 0.0
C1532 C 0.14111 0.88159 0.08061 0.0
C1533 C 0.15318 0.87433 0.09432 0.0
C1534 C 0.13734 0.88703 0.10644 0.0
C1535 C 0.1091 0.90519 0.10496 0.0
H1536 H 0.56651 1.00371 0.85778 0.0
H1537 H 0.5079 0.91715 0.8526 0.0
H1538 H 0.60865 0.97932 0.84287 0.0
H1539 H 0.54877 0.89427 0.83709 0.0
H1540 H 0.62802 0.84907 0.81469 0.0
H1541 H 0.59022 0.89498 0.81586 0.0
H1542 H 0.63741 0.92807 0.85455 0.0
H1543 H 0.67421 0.88157 0.85358 0.0
C1544 C 0.56196 0.98009 0.85309 0.0
C1545 C 0.53444 0.96176 0.85704 0.0
C1546 C 0.58598 0.96639 0.84439 0.0
C1547 C 0.5822 0.9347 0.83913 0.0
C1548 C 0.55234 0.91879 0.84103 0.0
C1549 C 0.52873 0.93208 0.84999 0.0
C1550 C 0.63092 0.8669 0.82311 0.0
C1551 C 0.65351 0.86196 0.83415 0.0
C1552 C 0.6095 0.89319 0.82373 0.0
C1553 C 0.61088 0.91495 0.8353 0.0
C1554 C 0.63609 0.91192 0.8454 0.0
C1555 C 0.65706 0.8853 0.84492 0.0
H1556 H 0.93398 0.85896 0.56861 0.0
H1557 H 0.88309 0.927 0.59559 0.0
H1558 H 0.88874 0.82088 0.57042 0.0
H1559 H 0.83838 0.88839 0.59816 0.0
H1560 H 0.76646 0.81414 0.60665 0.0
H1561 H 0.79469 0.85218 0.59087 0.0
H1562 H 0.87913 0.78975 0.59137 0.0
H1563 H 0.8517 0.75265 0.60707 0.0
C1564 C 0.91254 0.86605 0.57457 0.0
C1565 C 0.91177 0.89553 0.58206 0.0
C1566 C 0.88672 0.84427 0.57567 0.0
C1567 C 0.86026 0.85122 0.5847 0.0
C1568 C 0.85822 0.88226 0.59104 0.0
C1569 C 0.88386 0.90435 0.58968 0.0
C1570 C 0.79079 0.8082 0.60309 0.0
C1571 C 0.80711 0.78078 0.60854 0.0
C1572 C 0.80689 0.82997 0.59401 0.0
C1573 C 0.83942 0.82445 0.59012 0.0
C1574 C 0.85405 0.79488 0.59405 0.0
C1575 C 0.83812 0.77334 0.60314 0.0
H1576 H 0.83131 0.12744 0.34915 0.0
H1577 H 0.89141 0.17195 0.31681 0.0
H1578 H 0.86971 0.08234 0.35096 0.0
H1579 H 0.92955 0.12667 0.31829 0.0
H1580 H 0.00481 0.09435 0.35405 0.0
H1581 H 0.96508 0.12065 0.33915 0.0
H1582 H 0.90324 0.03605 0.34163 0.0
H1583 H 0.94407 0.00865 0.35628 0.0
C1584 C 0.85197 0.12666 0.34196 0.0
C1585 C 0.85866 0.1529 0.33289 0.0
C1586 C 0.87391 0.10083 0.34291 0.0
C1587 C 0.90289 0.10116 0.33486 0.0
C1588 C 0.90762 0.12592 0.3247 0.0
C1589 C 0.88578 0.15176 0.32382 0.0
C1590 C 0.98368 0.08041 0.3509 0.0
C1591 C 0.97732 0.04965 0.35684 0.0
C1592 C 0.96064 0.0957 0.34229 0.0
C1593 C 0.93062 0.08072 0.3395 0.0
C1594 C 0.92591 0.04841 0.34388 0.0
C1595 C 0.94925 0.03285 0.35235 0.0
H1596 H 0.67995 0.2595 0.09804 0.0
H1597 H 0.74084 0.17752 0.10949 0.0
H1598 H 0.64857 0.22493 0.08275 0.0
H1599 H 0.70603 0.1423 0.09565 0.0
H1600 H 0.62576 0.08059 0.07736 0.0
H1601 H 0.67214 0.1183 0.07739 0.0
H1602 H 0.61011 0.19303 0.09517 0.0
H1603 H 0.56491 0.15638 0.0949 0.0
C1604 C 0.68739 0.23441 0.09733 0.0
C1605 C 0.71139 0.22107 0.1064 0.0
C1606 C 0.6689 0.21436 0.08848 0.0
C1607 C 0.67312 0.18052 0.08893 0.0
C1608 C 0.70112 0.16814 0.09554 0.0
C1609 C 0.72062 0.18848 0.10391 0.0
C1610 C 0.62225 0.10527 0.08108 0.0
C1611 C 0.59191 0.11535 0.08639 0.0
C1612 C 0.64869 0.12685 0.08106 0.0
C1613 C 0.64492 0.15886 0.08615 0.0
C1614 C 0.61405 0.16896 0.09082 0.0
C1615 C 0.58805 0.14757 0.09095 0.0
H1616 H 0.67335 0.12575 0.64721 0.0
H1617 H 0.61049 0.17362 0.6775 0.0
H1618 H 0.63515 0.08051 0.64568 0.0
H1619 H 0.57274 0.12796 0.67656 0.0
H1620 H 0.49966 0.09301 0.64075 0.0
H1621 H 0.53788 0.11929 0.65643 0.0
H1622 H 0.60121 0.03569 0.65408 0.0
H1623 H 0.56217 0.00877 0.63835 0.0
C1624 C 0.65204 0.12573 0.65403 0.0
C1625 C 0.64447 0.15295 0.66235 0.0
C1626 C 0.63021 0.09978 0.65328 0.0
C1627 C 0.60057 0.10086 0.66085 0.0
C1628 C 0.59506 0.12664 0.67043 0.0
C1629 C 0.61666 0.15272 0.67101 0.0
C1630 C 0.52082 0.07934 0.6441 0.0
C1631 C 0.52838 0.04924 0.63784 0.0
C1632 C 0.54298 0.09455 0.65317 0.0
C1633 C 0.57316 0.07999 0.65615 0.0
C1634 C 0.57854 0.04787 0.65164 0.0
C1635 C 0.5562 0.03251 0.64261 0.0
H1636 H 0.75068 0.82433 0.38376 0.0
H1637 H 0.66732 0.7623 0.39091 0.0
H1638 H 0.7267 0.86528 0.39944 0.0
H1639 H 0.64469 0.80213 0.40696 0.0
H1640 H 0.59675 0.87804 0.42939 0.0
H1641 H 0.64379 0.84196 0.42758 0.0
H1642 H 0.67569 0.8941 0.38992 0.0
H1643 H 0.62853 0.92977 0.39174 0.0
C1644 C 0.72788 0.81885 0.38903 0.0
C1645 C 0.71023 0.79061 0.3855 0.0
C1646 C 0.7144 0.84219 0.39813 0.0
C1647 C 0.68352 0.83719 0.40411 0.0
C1648 C 0.66855 0.80674 0.40249 0.0
C1649 C 0.68167 0.78372 0.39321 0.0
C1650 C 0.61464 0.88254 0.42112 0.0
C1651 C 0.60927 0.90633 0.41063 0.0
C1652 C 0.64154 0.86199 0.42011 0.0
C1653 C 0.66324 0.86508 0.40857 0.0
C1654 C 0.65963 0.89136 0.39904 0.0
C1655 C 0.63258 0.91167 0.39999 0.0
H1656 H 0.90619 0.82572 0.14642 0.0
H1657 H 0.83033 0.87844 0.16848 0.0
H1658 H 0.94038 0.87294 0.14697 0.0
H1659 H 0.86533 0.92698 0.16895 0.0
H1660 H 0.91991 1.0006 0.13563 0.0
H1661 H 0.88617 0.96418 0.14964 0.0
H1662 H 0.97128 0.9102 0.16227 0.0
H1663 H 0.00452 0.9436 0.14708 0.0
C1664 C 0.89684 0.84743 0.15153 0.0
C1665 C 0.86541 0.84838 0.15731 0.0
C1666 C 0.91679 0.87451 0.15208 0.0
C1667 C 0.90588 0.90363 0.15829 0.0
C1668 C 0.87449 0.90473 0.16425 0.0
C1669 C 0.85446 0.87712 0.16389 0.0
C1670 C 0.93167 0.98113 0.14145 0.0
C1671 C 0.96459 0.9733 0.13899 0.0
C1672 C 0.91225 0.9607 0.14981 0.0
C1673 C 0.92596 0.93316 0.15628 0.0
C1674 C 0.95994 0.93046 0.15679 0.0
C1675 C 0.97914 0.95 0.14802 0.0
H1676 H 0.87456 0.08444 0.89491 0.0
H1677 H 0.90885 0.1377 0.9317 0.0
H1678 H 0.82795 0.12084 0.89309 0.0
H1679 H 0.86246 0.17453 0.92985 0.0
H1680 H 0.84207 0.2517 0.89173 0.0
H1681 H 0.8631 0.21254 0.90846 0.0
H1682 H 0.77811 0.1526 0.90246 0.0
H1683 H 0.75561 0.19313 0.88615 0.0
C1684 C 0.87113 0.10298 0.90302 0.0
C1685 C 0.89509 0.10865 0.91334 0.0
C1686 C 0.84441 0.12375 0.90206 0.0
C1687 C 0.84182 0.15075 0.91126 0.0
C1688 C 0.86395 0.15398 0.92262 0.0
C1689 C 0.8905 0.13301 0.92364 0.0
C1690 C 0.82672 0.23128 0.89449 0.0
C1691 C 0.7977 0.22499 0.88702 0.0
C1692 C 0.83894 0.20862 0.90418 0.0
C1693 C 0.82263 0.17908 0.90643 0.0
C1694 C 0.79141 0.17495 0.90067 0.0
C1695 C 0.7788 0.19803 0.89119 0.0
H1696 H 0.00909 0.60296 0.6372 0.0
H1697 H 0.94966 0.51629 0.63723 0.0
H1698 H 0.97175 0.62881 0.65339 0.0
H1699 H 0.91145 0.54281 0.65349 0.0
H1700 H 0.83457 0.62986 0.65013 0.0
H1701 H 0.87399 0.58617 0.64685 0.0
H1702 H 0.94121 0.63615 0.67485 0.0
H1703 H 0.90218 0.68036 0.67749 0.0
C1704 C 0.98881 0.58876 0.64114 0.0
C1705 C 0.982 0.5578 0.63555 0.0
C1706 C 0.96716 0.60373 0.65051 0.0
C1707 C 0.93812 0.58815 0.65451 0.0
C1708 C 0.93325 0.55571 0.65033 0.0
C1709 C 0.95511 0.54059 0.64098 0.0
C1710 C 0.85727 0.63066 0.65602 0.0
C1711 C 0.86567 0.65824 0.66396 0.0
C1712 C 0.87987 0.60562 0.65422 0.0
C1713 C 0.91106 0.60797 0.66039 0.0
C1714 C 0.91768 0.63392 0.66974 0.0
C1715 C 0.89532 0.65912 0.67133 0.0
H1716 H 0.59536 0.62583 0.92844 0.0
H1717 H 0.62905 0.58205 0.88921 0.0
H1718 H 0.64026 0.66495 0.92752 0.0
H1719 H 0.67465 0.62001 0.88854 0.0
H1720 H 0.66437 0.74972 0.89185 0.0
H1721 H 0.64014 0.70766 0.90644 0.0
H1722 H 0.72551 0.64809 0.90107 0.0
H1723 H 0.75103 0.69121 0.88706 0.0
C1724 C 0.61326 0.62374 0.91999 0.0
C1725 C 0.60894 0.60136 0.90882 0.0
C1726 C 0.63894 0.64594 0.9195 0.0
C1727 C 0.66085 0.64547 0.90797 0.0
C1728 C 0.65839 0.62062 0.89767 0.0
C1729 C 0.63231 0.59897 0.89799 0.0
C1730 C 0.67897 0.72862 0.89439 0.0
C1731 C 0.70922 0.7234 0.88775 0.0
C1732 C 0.66493 0.70435 0.9028 0.0
C1733 C 0.6807 0.67437 0.90456 0.0
C1734 C 0.71273 0.67088 0.89966 0.0
C1735 C 0.72711 0.69548 0.89152 0.0
H1736 H 0.59752 0.32128 0.15759 0.0
H1737 H 0.68588 0.37745 0.16067 0.0
H1738 H 0.56626 0.37066 0.1545 0.0
H1739 H 0.65432 0.42756 0.15721 0.0
H1740 H 0.59146 0.46912 0.11737 0.0
H1741 H 0.627 0.44094 0.13354 0.0
H1742 H 0.5475 0.42622 0.16298 0.0
H1743 H 0.51144 0.45621 0.14697 0.0
C1744 C 0.61014 0.34437 0.15795 0.0
C1745 C 0.64409 0.34564 0.15912 0.0
C1746 C 0.59217 0.37275 0.15637 0.0
C1747 C 0.60785 0.40301 0.15562 0.0
C1748 C 0.64167 0.40451 0.15781 0.0
C1749 C 0.65968 0.37595 0.15971 0.0
C1750 C 0.5815 0.46165 0.12758 0.0
C1751 C 0.54798 0.46411 0.13054 0.0
C1752 C 0.6022 0.44534 0.13693 0.0
C1753 C 0.58984 0.4307 0.14935 0.0
C1754 C 0.55747 0.43684 0.15331 0.0
C1755 C 0.53675 0.45367 0.14403 0.0
H1756 H 0.75452 0.31651 0.38669 0.0
H1757 H 0.83963 0.25569 0.39143 0.0
H1758 H 0.78025 0.35785 0.40162 0.0
H1759 H 0.86396 0.29587 0.40687 0.0
H1760 H 0.91142 0.37353 0.4296 0.0
H1761 H 0.86531 0.33599 0.42809 0.0
H1762 H 0.83094 0.38681 0.39052 0.0
H1763 H 0.87754 0.42346 0.39186 0.0
C1764 C 0.77813 0.31135 0.39128 0.0
C1765 C 0.7956 0.28334 0.38725 0.0
C1766 C 0.79262 0.33492 0.39996 0.0
C1767 C 0.82432 0.33032 0.4051 0.0
C1768 C 0.83946 0.30011 0.40304 0.0
C1769 C 0.82534 0.27689 0.39413 0.0
C1770 C 0.89333 0.37716 0.42133 0.0
C1771 C 0.89788 0.40082 0.41072 0.0
C1772 C 0.86692 0.35591 0.42053 0.0
C1773 C 0.84469 0.35843 0.40917 0.0
C1774 C 0.84746 0.38455 0.39951 0.0
C1775 C 0.87413 0.40544 0.4002 0.0
H1776 H 0.91274 0.33501 0.83203 0.0
H1777 H 0.81768 0.37937 0.83215 0.0
H1778 H 0.93774 0.38774 0.83544 0.0
H1779 H 0.84289 0.4328 0.83588 0.0
H1780 H 0.90362 0.47466 0.87627 0.0
H1781 H 0.87017 0.44621 0.85937 0.0
H1782 H 0.94863 0.44631 0.82869 0.0
H1783 H 0.98241 0.47662 0.84551 0.0
C1784 C 0.89726 0.35629 0.8324 0.0
C1785 C 0.86334 0.35321 0.83211 0.0
C1786 C 0.9116 0.38663 0.83415 0.0
C1787 C 0.89225 0.41444 0.83598 0.0
C1788 C 0.85832 0.41172 0.83448 0.0
C1789 C 0.84394 0.38124 0.83242 0.0
C1790 C 0.91358 0.47047 0.8657 0.0
C1791 C 0.94646 0.47692 0.86257 0.0
C1792 C 0.89407 0.454 0.85591 0.0
C1793 C 0.9071 0.44322 0.84287 0.0
C1794 C 0.93825 0.45381 0.83883 0.0
C1795 C 0.95771 0.4708 0.84857 0.0
H1796 H 0.91303 0.63459 0.06459 0.0
H1797 H 0.88044 0.58276 0.10206 0.0
H1798 H 0.8653 0.67004 0.06595 0.0
H1799 H 0.83254 0.61753 0.10338 0.0
H1800 H 0.75584 0.68466 0.10897 0.0
H1801 H 0.78161 0.64442 0.09349 0.0
H1802 H 0.86133 0.71052 0.08607 0.0
H1803 H 0.83663 0.74989 0.10181 0.0
C1804 C 0.89492 0.6301 0.07277 0.0
C1805 C 0.90021 0.60651 0.08335 0.0
C1806 C 0.86761 0.65019 0.07351 0.0
C1807 C 0.84534 0.64672 0.08482 0.0
C1808 C 0.84903 0.62059 0.09443 0.0
C1809 C 0.87649 0.60079 0.09377 0.0
C1810 C 0.77841 0.69097 0.10369 0.0
C1811 C 0.79489 0.71992 0.10717 0.0
C1812 C 0.79298 0.668 0.09474 0.0
C1813 C 0.82385 0.67401 0.08891 0.0
C1814 C 0.83754 0.7051 0.09043 0.0
C1815 C 0.82325 0.72783 0.09953 0.0
H1816 H 0.51093 0.54856 0.34415 0.0
H1817 H 0.59239 0.5308 0.37244 0.0
H1818 H 0.54677 0.57887 0.32817 0.0
H1819 H 0.62771 0.55957 0.35628 0.0
H1820 H 0.68379 0.62932 0.32996 0.0
H1821 H 0.65334 0.5781 0.33225 0.0
H1822 H 0.5653 0.6327 0.33974 0.0
H1823 H 0.59542 0.68292 0.33808 0.0
C1824 C 0.53654 0.54995 0.34673 0.0
C1825 C 0.5483 0.53852 0.35996 0.0
C1826 C 0.55712 0.56693 0.33746 0.0
C1827 C 0.58975 0.57227 0.34123 0.0
C1828 C 0.60263 0.55593 0.35312 0.0
C1829 C 0.58208 0.53936 0.36246 0.0
C1830 C 0.65781 0.63015 0.33179 0.0
C1831 C 0.64197 0.65997 0.33401 0.0
C1832 C 0.64042 0.60098 0.33298 0.0
C1833 C 0.60692 0.60146 0.33598 0.0
C1834 C 0.59092 0.63147 0.3371 0.0
C1835 C 0.60831 0.66032 0.33633 0.0
H1836 H 0.74819 0.31603 0.608 0.0
H1837 H 0.66324 0.2548 0.60352 0.0
H1838 H 0.72244 0.35684 0.59279 0.0
H1839 H 0.63895 0.29434 0.58784 0.0
H1840 H 0.59109 0.36822 0.56405 0.0
H1841 H 0.63751 0.3315 0.56635 0.0
H1842 H 0.67243 0.38801 0.60221 0.0
H1843 H 0.62576 0.4244 0.59988 0.0
C1844 C 0.72457 0.3107 0.60347 0.0
C1845 C 0.70727 0.28261 0.60756 0.0
C1846 C 0.71006 0.33398 0.59463 0.0
C1847 C 0.67849 0.32903 0.58939 0.0
C1848 C 0.66338 0.29888 0.5917 0.0
C1849 C 0.6775 0.27598 0.60075 0.0
C1850 C 0.60936 0.37326 0.57208 0.0
C1851 C 0.60492 0.39851 0.58195 0.0
C1852 C 0.63595 0.35246 0.57334 0.0
C1853 C 0.65831 0.35667 0.58455 0.0
C1854 C 0.65575 0.38432 0.59337 0.0
C1855 C 0.62903 0.40508 0.59212 0.0
H1856 H 0.00583 0.41375 0.35217 0.0
H1857 H 0.06383 0.50095 0.35637 0.0
H1858 H 0.04681 0.39033 0.33681 0.0
H1859 H 0.10599 0.47619 0.34157 0.0
H1860 H 0.17448 0.38049 0.35137 0.0
H1861 H 0.13644 0.42591 0.3529 0.0
H1862 H 0.08682 0.39096 0.31513 0.0
H1863 H 0.12587 0.34616 0.31338 0.0
C1864 C 0.02656 0.42864 0.34937 0.0
C1865 C 0.03199 0.45882 0.35604 0.0
C1866 C 0.05023 0.41505 0.34052 0.0
C1867 C 0.07988 0.43118 0.33831 0.0
C1868 C 0.08349 0.46311 0.34332 0.0
C1869 C 0.05945 0.47705 0.35192 0.0
C1870 C 0.15647 0.3836 0.34301 0.0
C1871 C 0.15269 0.36003 0.33234 0.0
C1872 C 0.13475 0.40958 0.34382 0.0
C1873 C 0.10858 0.41176 0.33416 0.0
C1874 C 0.1068 0.38979 0.32267 0.0
C1875 C 0.12894 0.36416 0.32172 0.0
H1876 H 0.42726 0.35654 0.06565 0.0
H1877 H 0.38034 0.42417 0.09419 0.0
H1878 H 0.38103 0.31966 0.06761 0.0
H1879 H 0.33466 0.38678 0.09685 0.0
H1880 H 0.26165 0.31467 0.10582 0.0
H1881 H 0.28947 0.35236 0.08976 0.0
H1882 H 0.37197 0.28744 0.08832 0.0
H1883 H 0.34482 0.25058 0.1043 0.0
C1884 C 0.40645 0.36384 0.07199 0.0
C1885 C 0.4071 0.39279 0.07988 0.0
C1886 C 0.38007 0.34275 0.07317 0.0
C1887 C 0.35447 0.34988 0.08264 0.0
C1888 C 0.3538 0.38054 0.08938 0.0
C1889 C 0.38 0.40193 0.08797 0.0
C1890 C 0.28539 0.3081 0.10174 0.0
C1891 C 0.30142 0.28009 0.10676 0.0
C1892 C 0.30126 0.32967 0.09251 0.0
C1893 C 0.33326 0.32338 0.08805 0.0
C1894 C 0.34731 0.29321 0.09148 0.0
C1895 C 0.33159 0.27182 0.10072 0.0
H1896 H 0.40908 0.69518 0.84591 0.0
H1897 H 0.33839 0.63399 0.82479 0.0
H1898 H 0.44788 0.65177 0.84557 0.0
H1899 H 0.37837 0.58965 0.8241 0.0
H1900 H 0.43794 0.51732 0.85433 0.0
H1901 H 0.40222 0.55353 0.84134 0.0
H1902 H 0.48307 0.61748 0.83278 0.0
H1903 H 0.51775 0.58413 0.84734 0.0
C1904 C 0.40188 0.6724 0.84103 0.0
C1905 C 0.37039 0.66782 0.83565 0.0
C1906 C 0.42453 0.64748 0.84056 0.0
C1907 C 0.41654 0.61709 0.83464 0.0
C1908 C 0.38532 0.61274 0.82874 0.0
C1909 C 0.36243 0.63802 0.82918 0.0
C1910 C 0.44831 0.53912 0.84975 0.0
C1911 C 0.4802 0.54909 0.85318 0.0
C1912 C 0.42779 0.55959 0.84193 0.0
C1913 C 0.43938 0.58954 0.83685 0.0
C1914 C 0.473 0.59544 0.83732 0.0
C1915 C 0.49315 0.57579 0.84564 0.0
H1916 H 0.17008 0.75024 0.60181 0.0
H1917 H 0.25415 0.6884 0.60729 0.0
H1918 H 0.14699 0.71138 0.58531 0.0
H1919 H 0.22991 0.64854 0.59113 0.0
H1920 H 0.13258 0.58207 0.59785 0.0
H1921 H 0.17932 0.61813 0.6003 0.0
H1922 H 0.14652 0.67351 0.56372 0.0
H1923 H 0.10016 0.63662 0.56113 0.0
C1924 C 0.18443 0.7291 0.59904 0.0
C1925 C 0.21343 0.72192 0.60635 0.0
C1926 C 0.17108 0.70667 0.58952 0.0
C1927 C 0.18631 0.67655 0.58724 0.0
C1928 C 0.21744 0.67136 0.59293 0.0
C1929 C 0.23111 0.69409 0.60228 0.0
C1930 C 0.13642 0.60092 0.58991 0.0
C1931 C 0.11292 0.60706 0.57943 0.0
C1932 C 0.16317 0.62155 0.59126 0.0
C1933 C 0.1663 0.64888 0.58228 0.0
C1934 C 0.14456 0.65274 0.5708 0.0
C1935 C 0.11804 0.63182 0.56937 0.0
H1936 H 0.17576 0.62635 0.14498 0.0
H1937 H 0.12103 0.66542 0.18037 0.0
H1938 H 0.13892 0.57988 0.14386 0.0
H1939 H 0.08394 0.61907 0.17933 0.0
H1940 H 0.00609 0.59314 0.14269 0.0
H1941 H 0.0461 0.61667 0.15837 0.0
H1942 H 0.10667 0.5317 0.15364 0.0
H1943 H 0.06543 0.50691 0.13834 0.0
C1944 C 0.15678 0.62404 0.15296 0.0
C1945 C 0.15068 0.64933 0.1626 0.0
C1946 C 0.13571 0.59743 0.1524 0.0
C1947 C 0.10822 0.59616 0.16138 0.0
C1948 C 0.10472 0.61961 0.1722 0.0
C1949 C 0.1258 0.64613 0.17276 0.0
C1950 C 0.02692 0.57844 0.14553 0.0
C1951 C 0.03302 0.54859 0.13871 0.0
C1952 C 0.05009 0.59209 0.1546 0.0
C1953 C 0.07994 0.57637 0.15691 0.0
C1954 C 0.08411 0.54459 0.15178 0.0
C1955 C 0.06057 0.5306 0.14291 0.0
H1956 H 0.05367 0.35676 0.89388 0.0
H1957 H 0.11442 0.42169 0.91857 0.0
H1958 H 0.09746 0.31839 0.89226 0.0
H1959 H 0.15906 0.38216 0.91714 0.0
H1960 H 0.23291 0.32543 0.88622 0.0
H1961 H 0.19555 0.36097 0.89877 0.0
H1962 H 0.12991 0.28046 0.90514 0.0
H1963 H 0.1647 0.24597 0.89119 0.0
C1964 C 0.0764 0.36279 0.8991 0.0
C1965 C 0.08061 0.39247 0.90625 0.0
C1966 C 0.10151 0.34038 0.89838 0.0
C1967 C 0.1317 0.34682 0.90482 0.0
C1968 C 0.13603 0.37643 0.91213 0.0
C1969 C 0.11058 0.39907 0.91289 0.0
C1970 C 0.21053 0.3151 0.89024 0.0
C1971 C 0.20094 0.28325 0.88655 0.0
C1972 C 0.18938 0.33549 0.89777 0.0
C1973 C 0.15893 0.3239 0.90223 0.0
C1974 C 0.15257 0.29046 0.90119 0.0
C1975 C 0.17304 0.27042 0.89325 0.0
H1976 H 0.42043 0.47584 0.62187 0.0
H1977 H 0.49966 0.45477 0.65095 0.0
H1978 H 0.38351 0.44705 0.63724 0.0
H1979 H 0.46212 0.42453 0.66619 0.0
H1980 H 0.41019 0.32243 0.65712 0.0
H1981 H 0.44233 0.37153 0.65583 0.0
H1982 H 0.35524 0.42946 0.65997 0.0
H1983 H 0.3227 0.37946 0.66161 0.0
C1984 C 0.42994 0.46648 0.63187 0.0
C1985 C 0.46353 0.46666 0.63483 0.0
C1986 C 0.40844 0.44986 0.64076 0.0
C1987 C 0.42011 0.43274 0.65268 0.0
C1988 C 0.45266 0.43701 0.65685 0.0
C1989 C 0.47421 0.45402 0.64802 0.0
C1990 C 0.39791 0.3456 0.65813 0.0
C1991 C 0.36396 0.34726 0.6592 0.0
C1992 C 0.41642 0.37381 0.65761 0.0
C1993 C 0.40132 0.4044 0.65783 0.0
C1994 C 0.36746 0.40615 0.65984 0.0
C1995 C 0.34889 0.37766 0.66069 0.0
H1996 H 0.28294 0.72659 0.39659 0.0
H1997 H 0.29128 0.65091 0.36456 0.0
H1998 H 0.31304 0.69257 0.4134 0.0
H1999 H 0.31957 0.61715 0.38139 0.0
H2000 H 0.42502 0.65942 0.4136 0.0
H2001 H 0.3724 0.68355 0.40879 0.0
H2002 H 0.33036 0.58782 0.40432 0.0
H2003 H 0.38361 0.5635 0.40928 0.0
C2004 C 0.29019 0.7025 0.39321 0.0
C2005 C 0.28568 0.69223 0.37896 0.0
C2006 C 0.30709 0.68288 0.40293 0.0
C2007 C 0.31927 0.65252 0.3986 0.0
C2008 C 0.31048 0.64038 0.3851 0.0
C2009 C 0.29408 0.66005 0.37536 0.0
C2010 C 0.40436 0.6435 0.41199 0.0
C2011 C 0.40839 0.60969 0.41146 0.0
C2012 C 0.37404 0.65731 0.40944 0.0
C2013 C 0.34725 0.63757 0.40608 0.0
C2014 C 0.35066 0.60358 0.40684 0.0
C2015 C 0.38107 0.58969 0.40963 0.0
H2016 H 0.05787 0.11018 0.10213 0.0
H2017 H 0.13119 0.03646 0.09601 0.0
H2018 H 0.09314 0.13833 0.11893 0.0
H2019 H 0.16663 0.06467 0.11313 0.0
H2020 H 0.23032 0.15002 0.13235 0.0
H2021 H 0.1978 0.11767 0.11575 0.0
H2022 H 0.11451 0.12828 0.14344 0.0
H2023 H 0.14694 0.16 0.16016 0.0
C2024 C 0.08168 0.10011 0.10423 0.0
C2025 C 0.09171 0.07108 0.09762 0.0
C2026 C 0.10178 0.11607 0.11404 0.0
C2027 C 0.13262 0.10364 0.11748 0.0
C2028 C 0.14304 0.07493 0.11069 0.0
C2029 C 0.12269 0.05868 0.10095 0.0
C2030 C 0.20527 0.14501 0.13508 0.0
C2031 C 0.19128 0.15809 0.14761 0.0
C2032 C 0.1866 0.12647 0.12551 0.0
C2033 C 0.15345 0.12076 0.12817 0.0
C2034 C 0.13981 0.1328 0.14092 0.0
C2035 C 0.15846 0.15107 0.15052 0.0
H2036 H 0.14883 0.82662 0.34235 0.0
H2037 H 0.2388 0.87434 0.35358 0.0
H2038 H 0.11985 0.86023 0.35938 0.0
H2039 H 0.2096 0.90755 0.37116 0.0
H2040 H 0.13628 0.98293 0.39065 0.0
H2041 H 0.16839 0.9515 0.37346 0.0
H2042 H 0.11515 0.865 0.38504 0.0
H2043 H 0.08256 0.89622 0.40167 0.0
C2044 C 0.16253 0.84441 0.34836 0.0
C2045 C 0.19631 0.84765 0.34648 0.0
C2046 C 0.14586 0.86349 0.35832 0.0
C2047 C 0.16236 0.88645 0.36678 0.0
C2048 C 0.19608 0.89019 0.3648 0.0
C2049 C 0.21288 0.87093 0.3548 0.0
C2050 C 0.13135 0.95724 0.3895 0.0
C2051 C 0.10659 0.94232 0.3976 0.0
C2052 C 0.15 0.93914 0.37973 0.0
C2053 C 0.1442 0.90573 0.37775 0.0
C2054 C 0.11998 0.89076 0.38609 0.0
C2055 C 0.10148 0.90873 0.39582 0.0
H2056 H 0.35063 0.80464 0.63876 0.0
H2057 H 0.28909 0.88568 0.64959 0.0
H2058 H 0.38082 0.83846 0.62215 0.0
H2059 H 0.32049 0.92066 0.63343 0.0
H2060 H 0.36786 0.96804 0.59365 0.0
H2061 H 0.33436 0.93522 0.60989 0.0
H2062 H 0.41922 0.87867 0.62118 0.0
H2063 H 0.45157 0.9102 0.60448 0.0
C2064 C 0.34396 0.82998 0.63774 0.0
C2065 C 0.3178 0.84263 0.64561 0.0
C2066 C 0.36139 0.84958 0.62824 0.0
C2067 C 0.35371 0.88272 0.62652 0.0
C2068 C 0.32712 0.89529 0.6343 0.0
C2069 C 0.3092 0.87537 0.64364 0.0
C2070 C 0.37907 0.94845 0.59962 0.0
C2071 C 0.41211 0.94124 0.59761 0.0
C2072 C 0.36 0.92972 0.609 0.0
C2073 C 0.37377 0.90374 0.6168 0.0
C2074 C 0.40722 0.89755 0.61508 0.0
C2075 C 0.42596 0.91576 0.60553 0.0
H2076 H 0.27567 0.15619 0.86447 0.0
H2077 H 0.35217 0.14208 0.83347 0.0
H2078 H 0.30442 0.12106 0.88141 0.0
H2079 H 0.38105 0.10713 0.85041 0.0
H2080 H 0.41049 0.02369 0.87999 0.0
H2081 H 0.3764 0.05346 0.86305 0.0
H2082 H 0.35656 0.12557 0.89549 0.0
H2083 H 0.39049 0.09557 0.91249 0.0
C2084 C 0.29835 0.14516 0.86119 0.0
C2085 C 0.31166 0.1519 0.84762 0.0
C2086 C 0.31498 0.12532 0.87094 0.0
C2087 C 0.34507 0.11139 0.86728 0.0
C2088 C 0.35782 0.11728 0.85354 0.0
C2089 C 0.34141 0.13746 0.84386 0.0
C2090 C 0.39842 0.04558 0.88359 0.0
C2091 C 0.40319 0.05726 0.89761 0.0
C2092 C 0.37914 0.06281 0.87384 0.0
C2093 C 0.36384 0.09192 0.8779 0.0
C2094 C 0.36781 0.10309 0.89205 0.0
C2095 C 0.38742 0.08607 0.90175 0.0
H2096 H 0.87799 0.98704 0.89222 0.0
H2097 H 0.93403 0.90092 0.90189 0.0
H2098 H 0.84572 0.95592 0.87514 0.0
H2099 H 0.90091 0.86981 0.88547 0.0
H2100 H 0.86239 0.82987 0.844 0.0
H2101 H 0.89309 0.86335 0.86044 0.0
H2102 H 0.80528 0.9137 0.87261 0.0
H2103 H 0.77449 0.88112 0.85554 0.0
C2104 C 0.88347 0.96154 0.89081 0.0
C2105 C 0.909 0.9468 0.89851 0.0
C2106 C 0.86465 0.94355 0.88108 0.0
C2107 C 0.87078 0.91031 0.87878 0.0
C2108 C 0.89579 0.89546 0.8867 0.0
C2109 C 0.91462 0.91338 0.89636 0.0
C2110 C 0.84944 0.8483 0.84996 0.0
C2111 C 0.81567 0.85246 0.84833 0.0
C2112 C 0.86715 0.86733 0.85961 0.0
C2113 C 0.85173 0.89108 0.86805 0.0
C2114 C 0.81808 0.89578 0.86627 0.0
C2115 C 0.80031 0.87675 0.85654 0.0
H2116 H 0.88984 0.09611 0.58291 0.0
H2117 H 0.90908 0.0228 0.61487 0.0
H2118 H 0.85468 0.12477 0.59978 0.0
H2119 H 0.87352 0.05121 0.63172 0.0
H2120 H 0.8458 0.1375 0.66199 0.0
H2121 H 0.87595 0.10342 0.64517 0.0
H2122 H 0.80248 0.12022 0.61297 0.0
H2123 H 0.77264 0.15469 0.62973 0.0
C2124 C 0.88633 0.08598 0.5935 0.0
C2125 C 0.90233 0.05721 0.59754 0.0
C2126 C 0.86597 0.10225 0.60314 0.0
C2127 C 0.86133 0.09034 0.61713 0.0
C2128 C 0.87678 0.06118 0.62107 0.0
C2129 C 0.89689 0.0447 0.61137 0.0
C2130 C 0.83603 0.13378 0.65135 0.0
C2131 C 0.80685 0.1489 0.64722 0.0
C2132 C 0.85315 0.11402 0.64174 0.0
C2133 C 0.84168 0.10915 0.6277 0.0
C2134 C 0.81212 0.12369 0.62366 0.0
C2135 C 0.79483 0.14318 0.63332 0.0
H2136 H 0.61285 0.02394 0.38434 0.0
H2137 H 0.59396 0.11161 0.40847 0.0
H2138 H 0.6474 0.05466 0.368 0.0
H2139 H 0.62786 0.14222 0.39191 0.0
H2140 H 0.65208 0.19084 0.34893 0.0
H2141 H 0.62214 0.15817 0.36618 0.0
H2142 H 0.69977 0.08765 0.36657 0.0
H2143 H 0.72987 0.1205 0.34905 0.0
C2144 C 0.6163 0.04958 0.38635 0.0
C2145 C 0.60011 0.06521 0.39774 0.0
C2146 C 0.63614 0.06722 0.37691 0.0
C2147 C 0.64007 0.10095 0.37855 0.0
C2148 C 0.62484 0.11636 0.39019 0.0
C2149 C 0.60529 0.09874 0.39968 0.0
C2150 C 0.6627 0.16822 0.35253 0.0
C2151 C 0.69333 0.1582 0.34751 0.0
C2152 C 0.64567 0.14967 0.36258 0.0
C2153 C 0.65863 0.12039 0.36782 0.0
C2154 C 0.68909 0.11005 0.3627 0.0
C2155 C 0.70639 0.12891 0.35274 0.0
H2156 H 0.65488 0.85525 0.16083 0.0
H2157 H 0.73782 0.86345 0.13268 0.0
H2158 H 0.62335 0.88938 0.14471 0.0
H2159 H 0.7062 0.89837 0.11666 0.0
H2160 H 0.6395 0.98165 0.09763 0.0
H2161 H 0.675 0.95332 0.11482 0.0
H2162 H 0.60225 0.87862 0.11985 0.0
H2163 H 0.5672 0.90664 0.10292 0.0
C2164 C 0.66651 0.8644 0.15125 0.0
C2165 C 0.69883 0.85599 0.148 0.0
C2166 C 0.64841 0.88409 0.14202 0.0
C2167 C 0.66213 0.89624 0.12931 0.0
C2168 C 0.69497 0.88946 0.1264 0.0
C2169 C 0.71311 0.86945 0.13561 0.0
C2170 C 0.63122 0.9592 0.10245 0.0
C2171 C 0.60064 0.94629 0.09882 0.0
C2172 C 0.65155 0.94292 0.11222 0.0
C2173 C 0.64134 0.91381 0.11875 0.0
C2174 C 0.61072 0.90114 0.11513 0.0
C2175 C 0.59075 0.91704 0.10528 0.0
H2176 H 0.59766 0.52651 0.61648 0.0
H2177 H 0.62672 0.59341 0.58321 0.0
H2178 H 0.6322 0.55515 0.63356 0.0
H2179 H 0.66062 0.62258 0.60038 0.0
H2180 H 0.73899 0.65311 0.63204 0.0
H2181 H 0.7098 0.6183 0.61519 0.0
H2182 H 0.63173 0.60775 0.64577 0.0
H2183 H 0.66128 0.64189 0.66271 0.0
C2184 C 0.61167 0.54709 0.61274 0.0
C2185 C 0.60931 0.55765 0.59843 0.0
C2186 C 0.63124 0.56375 0.62259 0.0
C2187 C 0.64913 0.59128 0.61838 0.0
C2188 C 0.64743 0.60132 0.60399 0.0
C2189 C 0.62771 0.58479 0.59416 0.0
C2190 C 0.71591 0.64285 0.63528 0.0
C2191 C 0.70246 0.65036 0.64874 0.0
C2192 C 0.69898 0.62319 0.62554 0.0
C2193 C 0.6683 0.61034 0.62907 0.0
C2194 C 0.65539 0.61699 0.64272 0.0
C2195 C 0.6722 0.63681 0.6524 0.0
H2196 H 0.73936 0.37635 0.85287 0.0
H2197 H 0.65187 0.32488 0.84087 0.0
H2198 H 0.70815 0.40806 0.87018 0.0
H2199 H 0.62087 0.35737 0.8575 0.0
H2200 H 0.57908 0.39189 0.89894 0.0
H2201 H 0.61363 0.36202 0.88272 0.0
H2202 H 0.66653 0.44982 0.87285 0.0
H2203 H 0.63276 0.47984 0.88974 0.0
C2204 C 0.71357 0.37178 0.85381 0.0
C2205 C 0.69842 0.34769 0.8454 0.0
C2206 C 0.69558 0.39025 0.86367 0.0
C2207 C 0.66198 0.3851 0.86539 0.0
C2208 C 0.64679 0.36163 0.85673 0.0
C2209 C 0.66468 0.34319 0.84695 0.0
C2210 C 0.59826 0.40505 0.89358 0.0
C2211 C 0.60265 0.43864 0.89574 0.0
C2212 C 0.61795 0.38781 0.88404 0.0
C2213 C 0.64261 0.40352 0.87624 0.0
C2214 C 0.6478 0.43686 0.87867 0.0
C2215 C 0.62811 0.45419 0.88829 0.0
H2216 H 0.893 0.40965 0.08333 0.0
H2217 H 0.90905 0.48285 0.11567 0.0
H2218 H 0.85787 0.37976 0.09989 0.0
H2219 H 0.87376 0.45318 0.13217 0.0
H2220 H 0.84726 0.3656 0.16195 0.0
H2221 H 0.87744 0.40023 0.14533 0.0
H2222 H 0.8044 0.38383 0.11291 0.0
H2223 H 0.77432 0.34902 0.12955 0.0
C2224 C 0.88885 0.41945 0.09393 0.0
C2225 C 0.90385 0.44862 0.09816 0.0
C2226 C 0.86853 0.40248 0.10339 0.0
C2227 C 0.86304 0.41405 0.11737 0.0
C2228 C 0.87765 0.44349 0.12152 0.0
C2229 C 0.89763 0.46066 0.112 0.0
C2230 C 0.83755 0.36961 0.15132 0.0
C2231 C 0.80841 0.35456 0.14709 0.0
C2232 C 0.85471 0.38961 0.14182 0.0
C2233 C 0.84339 0.39473 0.12777 0.0
C2234 C 0.8139 0.38019 0.12362 0.0
C2235 C 0.79649 0.36052 0.1332 0.0
H2236 H 0.84516 0.64515 0.33187 0.0
H2237 H 0.77146 0.66056 0.36405 0.0
H2238 H 0.87529 0.61052 0.34849 0.0
H2239 H 0.80142 0.62566 0.38066 0.0
H2240 H 0.8885 0.59888 0.41066 0.0
H2241 H 0.85404 0.62926 0.39404 0.0
H2242 H 0.8719 0.55734 0.3613 0.0
H2243 H 0.90661 0.5272 0.37787 0.0
C2244 C 0.83529 0.64095 0.34246 0.0
C2245 C 0.80592 0.65565 0.34662 0.0
C2246 C 0.85242 0.62091 0.35196 0.0
C2247 C 0.84081 0.61536 0.36593 0.0
C2248 C 0.81116 0.62963 0.37002 0.0
C2249 C 0.79381 0.64936 0.36045 0.0
C2250 C 0.88497 0.58951 0.39994 0.0
C2251 C 0.90036 0.56062 0.39562 0.0
C2252 C 0.86501 0.60677 0.39044 0.0
C2253 C 0.86025 0.59578 0.37632 0.0
C2254 C 0.87524 0.56661 0.37206 0.0
C2255 C 0.89489 0.54915 0.38161 0.0
H2256 H 0.27594 0.38614 0.35156 0.0
H2257 H 0.36202 0.3287 0.34371 0.0
H2258 H 0.30633 0.41908 0.3688 0.0
H2259 H 0.3923 0.3621 0.36037 0.0
H2260 H 0.42694 0.39951 0.40307 0.0
H2261 H 0.39435 0.36956 0.38597 0.0
H2262 H 0.35108 0.45913 0.37126 0.0
H2263 H 0.38315 0.48935 0.3889 0.0
C2264 C 0.30128 0.38056 0.35342 0.0
C2265 C 0.31632 0.35452 0.3462 0.0
C2266 C 0.3188 0.39968 0.36321 0.0
C2267 C 0.35173 0.3931 0.36609 0.0
C2268 C 0.36686 0.36758 0.35862 0.0
C2269 C 0.34947 0.34859 0.34886 0.0
C2270 C 0.41022 0.41298 0.3964 0.0
C2271 C 0.4078 0.44701 0.39747 0.0
C2272 C 0.39176 0.39573 0.38639 0.0
C2273 C 0.37028 0.41189 0.37709 0.0
C2274 C 0.3673 0.44587 0.37828 0.0
C2275 C 0.38593 0.46324 0.38832 0.0
H2276 H 0.37687 0.51747 0.10073 0.0
H2277 H 0.42681 0.60567 0.08869 0.0
H2278 H 0.34434 0.54827 0.11804 0.0
H2279 H 0.394 0.63626 0.10557 0.0
H2280 H 0.35994 0.67388 0.14862 0.0
H2281 H 0.3899 0.64091 0.13158 0.0
H2282 H 0.30136 0.59149 0.1197 0.0
H2283 H 0.2712 0.62422 0.13717 0.0
C2284 C 0.38088 0.54337 0.10172 0.0
C2285 C 0.40456 0.55898 0.09328 0.0
C2286 C 0.36203 0.56107 0.11155 0.0
C2287 C 0.36667 0.59473 0.11327 0.0
C2288 C 0.39003 0.61032 0.10468 0.0
C2289 C 0.40865 0.59275 0.09484 0.0
C2290 C 0.34677 0.65575 0.14256 0.0
C2291 C 0.31305 0.65174 0.14435 0.0
C2292 C 0.36397 0.63705 0.13262 0.0
C2293 C 0.34805 0.61367 0.12417 0.0
C2294 C 0.31441 0.60918 0.12608 0.0
C2295 C 0.29707 0.62813 0.136 0.0
H2296 H 0.16262 0.63635 0.83151 0.0
H2297 H 0.239 0.64893 0.86271 0.0
H2298 H 0.13296 0.60186 0.84828 0.0
H2299 H 0.20973 0.61379 0.8794 0.0
H2300 H 0.12449 0.59221 0.9108 0.0
H2301 H 0.16012 0.61922 0.89366 0.0
H2302 H 0.1323 0.54987 0.86116 0.0
H2303 H 0.09602 0.52327 0.87829 0.0
C2304 C 0.17328 0.6314 0.84188 0.0
C2305 C 0.20311 0.6456 0.84576 0.0
C2306 C 0.15641 0.61138 0.85147 0.0
C2307 C 0.16883 0.60515 0.86525 0.0
C2308 C 0.19927 0.61836 0.86894 0.0
C2309 C 0.21625 0.63823 0.8593 0.0
C2310 C 0.12606 0.58264 0.90002 0.0
C2311 C 0.1072 0.55569 0.89592 0.0
C2312 C 0.14677 0.59793 0.89021 0.0
C2313 C 0.14907 0.58682 0.87599 0.0
C2314 C 0.13091 0.55927 0.87199 0.0
C2315 C 0.11034 0.5438 0.88185 0.0
H2316 H 0.23709 0.37946 0.63906 0.0
H2317 H 0.14811 0.33027 0.65074 0.0
H2318 H 0.20697 0.41215 0.62169 0.0
H2319 H 0.11822 0.36366 0.63402 0.0
H2320 H 0.07885 0.39866 0.59201 0.0
H2321 H 0.11189 0.36827 0.6087 0.0
H2322 H 0.16611 0.45508 0.61886 0.0
H2323 H 0.13373 0.48561 0.60152 0.0
C2324 C 0.2112 0.37561 0.63803 0.0
C2325 C 0.1953 0.35187 0.64637 0.0
C2326 C 0.19384 0.39464 0.62814 0.0
C2327 C 0.16014 0.39039 0.62631 0.0
C2328 C 0.14421 0.36726 0.63489 0.0
C2329 C 0.16147 0.34829 0.64471 0.0
C2330 C 0.09804 0.41145 0.59755 0.0
C2331 C 0.10332 0.44487 0.5953 0.0
C2332 C 0.11682 0.39394 0.60735 0.0
C2333 C 0.14147 0.40921 0.61533 0.0
C2334 C 0.1474 0.44245 0.6129 0.0
C2335 C 0.12855 0.46007 0.60303 0.0
H2336 H 0.27686 0.30418 0.21188 0.0
H2337 H 0.26912 0.19952 0.21224 0.0
H2338 H 0.26438 0.30577 0.23732 0.0
H2339 H 0.2552 0.20108 0.23766 0.0
H2340 H 0.2641 0.21306 0.28594 0.0
H2341 H 0.27695 0.21108 0.26059 0.0
H2342 H 0.22129 0.29888 0.2538 0.0
H2343 H 0.20959 0.30155 0.27943 0.0
C2344 C 0.27235 0.28147 0.21741 0.0
C2345 C 0.274 0.2517 0.21009 0.0
C2346 C 0.26487 0.28241 0.23199 0.0
C2347 C 0.25847 0.25361 0.23957 0.0
C2348 C 0.2604 0.22374 0.23223 0.0
C2349 C 0.2683 0.22279 0.21765 0.0
C2350 C 0.2545 0.23193 0.27904 0.0
C2351 C 0.23585 0.25752 0.28468 0.0
C2352 C 0.26172 0.23067 0.26445 0.0
C2353 C 0.25017 0.25477 0.25509 0.0
C2354 C 0.23109 0.28018 0.26072 0.0
C2355 C 0.22417 0.28165 0.27539 0.0
H2356 H 0.96186 0.96097 0.52895 0.0
H2357 H 0.04566 0.02238 0.53566 0.0
H2358 H 0.96423 0.97251 0.50328 0.0
H2359 H 0.04732 0.03487 0.51027 0.0
H2360 H 0.06182 0.02481 0.46206 0.0
H2361 H 0.06002 0.01235 0.48763 0.0
H2362 H 0.955 0.01468 0.48638 0.0
H2363 H 0.9569 0.02586 0.46082 0.0
C2364 C 0.98061 0.97708 0.52495 0.0
C2365 C 1.0036 0.99066 0.53431 0.0
C2366 C 0.98191 0.98387 0.51026 0.0
C2367 C 0.00602 0.00464 0.50467 0.0
C2368 C 0.02882 0.0183 0.51411 0.0
C2369 C 0.02772 0.01127 0.52872 0.0
C2370 C 0.03841 0.02284 0.4673 0.0
C2371 C 0.00954 0.02622 0.45945 0.0
C2372 C 0.03732 0.01577 0.48196 0.0
C2373 C 0.00732 0.01231 0.48909 0.0
C2374 C 0.9785 0.01643 0.48122 0.0
C2375 C 0.97961 0.02314 0.46657 0.0
H2376 H 0.24039 0.79166 0.78538 0.0
H2377 H 0.30193 0.7077 0.77939 0.0
H2378 H 0.22869 0.79284 0.75996 0.0
H2379 H 0.29112 0.70957 0.75362 0.0
H2380 H 0.23618 0.70114 0.71125 0.0
H2381 H 0.2488 0.6999 0.73669 0.0
H2382 H 0.25159 0.80493 0.73733 0.0
H2383 H 0.23773 0.80609 0.71191 0.0
C2384 C 0.25174 0.77359 0.77859 0.0
C2385 C 0.27211 0.74954 0.78441 0.0
C2386 C 0.24517 0.77443 0.76395 0.0
C2387 C 0.25904 0.75143 0.75468 0.0
C2388 C 0.27966 0.72743 0.76048 0.0
C2389 C 0.28603 0.72642 0.77522 0.0
C2390 C 0.23936 0.72399 0.71683 0.0
C2391 C 0.23585 0.75374 0.70959 0.0
C2392 C 0.24691 0.72326 0.73141 0.0
C2393 C 0.25141 0.75227 0.73909 0.0
C2394 C 0.24785 0.78208 0.73182 0.0
C2395 C 0.23997 0.78281 0.71724 0.0
H2396 H 0.45143 0.9816 0.9628 0.0
H2397 H 0.55633 0.98282 0.9613 0.0
H2398 H 0.45325 0.99511 0.98824 0.0
H2399 H 0.5583 0.99498 0.98679 0.0
H2400 H 0.55031 0.04898 0.02943 0.0
H2401 H 0.54855 0.03684 0.00376 0.0
H2402 H 0.46641 0.97323 0.0108 0.0
H2403 H 0.46741 0.98635 0.03609 0.0
C2404 C 0.47486 0.98429 0.96797 0.0
C2405 C 0.5037 0.98117 0.96008 0.0
C2406 C 0.47597 0.99197 0.98256 0.0
C2407 C 0.50597 0.99624 0.98961 0.0
C2408 C 0.53478 0.99254 0.98169 0.0
C2409 C 0.53364 0.98527 0.9671 0.0
C2410 C 0.53192 0.03247 0.02543 0.0
C2411 C 0.50891 0.01881 0.03474 0.0
C2412 C 0.53096 0.02535 0.01075 0.0
C2413 C 0.5072 0.00413 0.00517 0.0
C2414 C 0.48456 0.99022 0.01461 0.0
C2415 C 0.48529 0.99762 0.02917 0.0
H2416 H 0.26921 0.81164 0.27961 0.0
H2417 H 0.28311 0.70767 0.27893 0.0
H2418 H 0.25595 0.81051 0.254 0.0
H2419 H 0.27114 0.70654 0.25348 0.0
H2420 H 0.21293 0.70766 0.21261 0.0
H2421 H 0.22545 0.71169 0.23811 0.0
H2422 H 0.27716 0.80149 0.23045 0.0
H2423 H 0.26365 0.79805 0.20516 0.0
C2424 C 0.27005 0.78872 0.27392 0.0
C2425 C 0.27691 0.75975 0.28122 0.0
C2426 C 0.26243 0.78799 0.25927 0.0
C2427 C 0.26191 0.7583 0.25172 0.0
C2428 C 0.27029 0.72966 0.25901 0.0
C2429 C 0.27749 0.73037 0.27358 0.0
C2430 C 0.22681 0.7283 0.21641 0.0
C2431 C 0.23737 0.75242 0.20687 0.0
C2432 C 0.2342 0.73056 0.231 0.0
C2433 C 0.25259 0.75682 0.23634 0.0
C2434 C 0.26267 0.78116 0.22678 0.0
C2435 C 0.25506 0.77903 0.21224 0.0
H2436 H 0.54708 0.99589 0.53607 0.0
H2437 H 0.45788 0.04924 0.52957 0.0
H2438 H 0.54885 0.98248 0.51077 0.0
H2439 H 0.46034 0.03702 0.50399 0.0
H2440 H 0.4549 0.98078 0.46233 0.0
H2441 H 0.45363 0.99361 0.48774 0.0
H2442 H 0.55827 1.00365 0.4877 0.0
H2443 H 0.5595 0.98935 0.46231 0.0
C2444 C 0.52801 0.00512 0.52918 0.0
C2445 C 0.50228 0.02359 0.53481 0.0
C2446 C 0.52915 0.99757 0.51462 0.0
C2447 C 0.50478 0.00864 0.50527 0.0
C2448 C 0.47924 0.02757 0.5109 0.0
C2449 C 0.47789 0.03478 0.52554 0.0
C2450 C 0.47766 0.98556 0.46777 0.0
C2451 C 0.50732 0.98405 0.46035 0.0
C2452 C 0.47691 0.99322 0.48233 0.0
C2453 C 0.50579 1.00001 0.48979 0.0
C2454 C 0.53555 0.99818 0.48236 0.0
C2455 C 0.53632 0.99006 0.4678 0.0
H2456 H 0.27521 0.30882 0.7117 0.0
H2457 H 0.27734 0.2039 0.7111 0.0
H2458 H 0.2634 0.30768 0.73736 0.0
H2459 H 0.26686 0.20266 0.73671 0.0
H2460 H 0.21396 0.20967 0.77929 0.0
H2461 H 0.22487 0.21184 0.75359 0.0
H2462 H 0.28628 0.29585 0.76006 0.0
H2463 H 0.27435 0.29438 0.78553 0.0
C2464 C 0.27361 0.28557 0.7171 0.0
C2465 C 0.27706 0.25649 0.70941 0.0
C2466 C 0.26691 0.28485 0.7318 0.0
C2467 C 0.26393 0.25503 0.73912 0.0
C2468 C 0.2682 0.22603 0.7314 0.0
C2469 C 0.2745 0.22676 0.71673 0.0
C2470 C 0.22974 0.22857 0.77518 0.0
C2471 C 0.24324 0.25184 0.78442 0.0
C2472 C 0.23616 0.22977 0.76047 0.0
C2473 C 0.25652 0.25404 0.75472 0.0
C2474 C 0.27005 0.27719 0.76403 0.0
C2475 C 0.26336 0.27619 0.77868 0.0
H2476 H 0.04561 0.96423 0.03122 0.0
H2477 H 0.95575 0.017 0.03686 0.0
H2478 H 0.04435 0.97673 0.00559 0.0
H2479 H 0.95514 0.03053 0.01163 0.0
H2480 H 0.94594 0.02451 0.96335 0.0
H2481 H 0.94672 0.00897 0.98858 0.0
H2482 H 0.05116 0.02067 0.98933 0.0
H2483 H 0.05037 0.03487 0.96403 0.0
C2484 C 0.0257 0.97854 0.027 0.0
C2485 C 1.00077 0.98951 0.03605 0.0
C2486 C 0.02503 0.98591 0.01234 0.0
C2487 C 0.99959 0.00465 0.0065 0.0
C2488 C 0.97475 0.01552 0.01563 0.0
C2489 C 0.97524 0.0079 0.03017 0.0
C2490 C 0.96899 0.02392 0.96896 0.0
C2491 C 0.99806 0.03093 0.96174 0.0
C2492 C 0.9695 0.01505 0.98342 0.0
C2493 C 0.99906 0.01345 0.99102 0.0
C2494 C 0.02804 0.02096 0.98378 0.0
C2495 C 0.02755 0.02943 0.9693 0.0
H2496 H 0.7984 0.71028 0.71665 0.0
H2497 H 0.74143 0.79698 0.70955 0.0
H2498 H 0.7859 0.71307 0.74222 0.0
H2499 H 0.72798 0.79912 0.73484 0.0
H2500 H 0.72922 0.70726 0.7839 0.0
H2501 H 0.74215 0.70545 0.7585 0.0
H2502 H 0.74962 0.81025 0.75784 0.0
H2503 H 0.73545 0.81202 0.78324 0.0
C2504 C 0.78311 0.72981 0.72054 0.0
C2505 C 0.77097 0.7534 0.71109 0.0
C2506 C 0.77575 0.73135 0.73517 0.0
C2507 C 0.75585 0.75634 0.74062 0.0
C2508 C 0.74381 0.77988 0.73111 0.0
C2509 C 0.75139 0.77851 0.71655 0.0
C2510 C 0.73345 0.72995 0.77831 0.0
C2511 C 0.73129 0.7598 0.78556 0.0
C2512 C 0.74117 0.72888 0.76376 0.0
C2513 C 0.74725 0.75765 0.75611 0.0
C2514 C 0.74473 0.7876 0.76335 0.0
C2515 C 0.73666 0.78867 0.77791 0.0
H2516 H 0.7684 0.21246 0.20821 0.0
H2517 H 0.70883 0.29765 0.21467 0.0
H2518 H 0.78146 0.21134 0.23354 0.0
H2519 H 0.72089 0.29581 0.24031 0.0
H2520 H 0.7758 0.30353 0.28243 0.0
H2521 H 0.76349 0.30482 0.25696 0.0
H2522 H 0.75978 0.19981 0.25637 0.0
H2523 H 0.77341 0.19862 0.28182 0.0
C2524 C 0.75778 0.23082 0.21509 0.0
C2525 C 0.73755 0.25518 0.20943 0.0
C2526 C 0.76513 0.23002 0.22967 0.0
C2527 C 0.75218 0.25337 0.23904 0.0
C2528 C 0.73172 0.2777 0.23339 0.0
C2529 C 0.72462 0.27869 0.21871 0.0
C2530 C 0.77253 0.2807 0.27684 0.0
C2531 C 0.77562 0.25095 0.28411 0.0
C2532 C 0.76517 0.28145 0.26225 0.0
C2533 C 0.76035 0.25246 0.25458 0.0
C2534 C 0.76373 0.22264 0.26187 0.0
C2535 C 0.77149 0.22189 0.27646 0.0
H2536 H 0.73766 0.19567 0.71192 0.0
H2537 H 0.73061 0.30036 0.71215 0.0
H2538 H 0.75381 0.19654 0.73708 0.0
H2539 H 0.74526 0.30131 0.73738 0.0
H2540 H 0.80406 0.29596 0.77834 0.0
H2541 H 0.78991 0.29384 0.75293 0.0
H2542 H 0.73453 0.20612 0.76043 0.0
H2543 H 0.74985 0.20752 0.7855 0.0
C2544 C 0.73904 0.2188 0.71743 0.0
C2545 C 0.73296 0.24792 0.7101 0.0
C2546 C 0.74825 0.21936 0.73186 0.0
C2547 C 0.75108 0.24905 0.73927 0.0
C2548 C 0.74413 0.27807 0.73195 0.0
C2549 C 0.7354 0.27752 0.71752 0.0
C2550 C 0.78904 0.27618 0.77449 0.0
C2551 C 0.77814 0.25191 0.78389 0.0
C2552 C 0.78071 0.27503 0.75996 0.0
C2553 C 0.76095 0.24982 0.7546 0.0
C2554 C 0.75023 0.22555 0.76407 0.0
C2555 C 0.75889 0.22648 0.77851 0.0
H2556 H 0.80081 0.80176 0.21469 0.0
H2557 H 0.74348 0.71539 0.20731 0.0
H2558 H 0.78767 0.79892 0.24023 0.0
H2559 H 0.72935 0.71327 0.23248 0.0
H2560 H 0.73466 0.69965 0.28076 0.0
H2561 H 0.74996 0.70165 0.25548 0.0
H2562 H 0.74398 0.80655 0.25642 0.0
H2563 H 0.73006 0.80447 0.28169 0.0
C2564 C 0.7853 0.78233 0.21851 0.0
C2565 C 0.7733 0.75879 0.20901 0.0
C2566 C 0.77759 0.78074 0.23311 0.0
C2567 C 0.75744 0.75579 0.23845 0.0
C2568 C 0.74544 0.73242 0.22886 0.0
C2569 C 0.7534 0.7338 0.21437 0.0
C2570 C 0.73644 0.72305 0.2755 0.0
C2571 C 0.73123 0.75186 0.28318 0.0
C2572 C 0.74517 0.72427 0.26101 0.0
C2573 C 0.74842 0.75432 0.25389 0.0
C2574 C 0.74248 0.78304 0.26159 0.0
C2575 C 0.73418 0.78181 0.27606 0.0
H2576 H 0.44733 0.48253 0.02864 0.0
H2577 H 0.55175 0.47231 0.02817 0.0
H2578 H 0.44826 0.49694 0.00324 0.0
H2579 H 0.55271 0.48528 0.00277 0.0
H2580 H 0.54901 0.54341 0.96167 0.0
H2581 H 0.54643 0.52987 0.98711 0.0
H2582 H 0.45713 0.47696 0.97984 0.0
H2583 H 0.45904 0.49166 0.95467 0.0
C2584 C 0.47038 0.48277 0.02303 0.0
C2585 C 0.49946 0.47645 0.03036 0.0
C2586 C 0.47098 0.49101 0.00847 0.0
C2587 C 0.50064 0.49264 0.00095 0.0
C2588 C 0.52953 0.48514 0.00827 0.0
C2589 C 0.52895 0.47737 0.02281 0.0
C2590 C 0.52879 0.52905 0.96556 0.0
C2591 C 0.50426 0.51865 0.95618 0.0
C2592 C 0.52738 0.52105 0.98011 0.0
C2593 C 0.50162 0.50212 0.98556 0.0
C2594 C 0.47704 0.49196 0.97613 0.0
C2595 C 0.47826 0.50027 0.96164 0.0
H2596 H 0.96243 0.496 0.53467 0.0
H2597 H 0.05128 0.54936 0.52727 0.0
H2598 H 0.95965 0.48211 0.50943 0.0
H2599 H 0.0478 0.53664 0.50175 0.0
H2600 H 0.05139 0.4802 0.46012 0.0
H2601 H 0.0538 0.49318 0.4855 0.0
H2602 H 0.94916 0.50283 0.48638 0.0
H2603 H 0.9468 0.48838 0.46103 0.0
C2604 C 0.98123 0.50511 0.5276 0.0
C2605 C 0.00714 0.52375 0.53296 0.0
C2606 C 0.9795 0.49729 0.51307 0.0
C2607 C 1.00344 0.50823 0.50349 0.0
C2608 C 0.02921 0.52727 0.50885 0.0
C2609 C 0.03114 0.53478 0.52345 0.0
C2610 C 0.02887 0.48491 0.46577 0.0
C2611 C 0.99889 0.48326 0.45861 0.0
C2612 C 0.03028 0.49267 0.4803 0.0
C2613 C 1.00174 0.4994 0.48802 0.0
C2614 C 0.97164 0.4974 0.48085 0.0
C2615 C 0.97022 0.48919 0.46631 0.0
H2616 H 0.97362 0.53095 0.95972 0.0
H2617 H 0.0477 0.45786 0.96583 0.0
H2618 H 0.97275 0.54159 0.98521 0.0
H2619 H 0.04611 0.46787 0.99174 0.0
H2620 H 0.05655 0.51868 0.03538 0.0
H2621 H 0.05927 0.50755 0.0098 0.0
H2622 H 0.95488 0.51742 0.00691 0.0
H2623 H 0.95234 0.52964 0.03245 0.0
C2624 C 0.98964 0.51693 0.96655 0.0
C2625 C 0.01063 0.49339 0.96077 0.0
C2626 C 0.98894 0.52292 0.98122 0.0
C2627 C 0.009 0.50532 0.99058 0.0
C2628 C 0.03047 0.48203 0.98481 0.0
C2629 C 0.03136 0.4762 0.97 0.0
C2630 C 0.03416 0.51858 0.02927 0.0
C2631 C 0.00421 0.52522 0.03591 0.0
C2632 C 0.03573 0.51191 0.01461 0.0
C2633 C 0.00734 0.51156 0.00627 0.0
C2634 C 0.97732 0.51802 0.01296 0.0
C2635 C 0.9758 0.52495 0.02761 0.0
H2636 H 0.46323 0.55207 0.46541 0.0
H2637 H 0.54785 0.49166 0.459 0.0
H2638 H 0.46503 0.54023 0.49106 0.0
H2639 H 0.54888 0.47875 0.48433 0.0
H2640 H 0.56113 0.48607 0.53261 0.0
H2641 H 0.56041 0.50006 0.5072 0.0
H2642 H 0.45532 0.49758 0.50756 0.0
H2643 H 0.45619 0.485 0.53301 0.0
C2644 C 0.48208 0.53618 0.46947 0.0
C2645 C 0.5054 0.52288 0.46021 0.0
C2646 C 0.48304 0.52919 0.48415 0.0
C2647 C 0.50712 0.50846 0.4898 0.0
C2648 C 0.53038 0.49527 0.48045 0.0
C2649 C 0.52964 0.50254 0.46587 0.0
C2650 C 0.53795 0.48833 0.5272 0.0
C2651 C 0.50874 0.4845 0.53476 0.0
C2652 C 0.53747 0.4963 0.51263 0.0
C2653 C 0.50776 0.50014 0.50531 0.0
C2654 C 0.47862 0.49558 0.51289 0.0
C2655 C 0.47911 0.48805 0.52746 0.0
loop_
_geom_bond_atom_site_label_1
_geom_bond_atom_site_label_2
_geom_bond_distance
_geom_bond_site_symmetry_2
_ccdc_geom_bond_type
C0 C1 1.351 . S
C0 N3 1.368 . S
C0 H5 0.931 . S
C1 C0 1.351 . S
C1 N2 1.373 . S
C1 H29 0.930 . S
N2 C1 1.373 . S
N2 C4 1.340 . S
N3 C0 1.368 . S
N3 C4 1.321 . S
N3 Co6 2.135 . S
C4 N2 1.340 . S
C4 N3 1.321 . S
C4 H28 0.930 . S
H5 C0 0.931 . S
Co6 N3 2.135 . S
Co6 N9 2.121 . S
Co6 O14 2.055 . S
Co6 O17 2.039 . S
Co6 N20 2.140 . S
C7 O8 1.227 . S
C7 O17 1.265 . S
O8 C7 1.227 . S
N9 Co6 2.121 . S
N9 C11 1.375 . S
N9 C12 1.313 . S
C10 C11 1.338 . S
C10 N13 1.377 . S
C10 H30 0.930 . S
C11 N9 1.375 . S
C11 C10 1.338 . S
C11 H15 0.931 . S
C12 N9 1.313 . S
C12 N13 1.344 . S
C12 H16 0.930 . S
N13 C10 1.377 . S
N13 C12 1.344 . S
O14 Co6 2.055 . S
O14 C18 1.253 . S
H15 C11 0.931 . S
H16 C12 0.930 . S
O17 Co6 2.039 . S
O17 C7 1.265 . S
C18 O14 1.253 . S
C18 O19 1.227 . S
O19 C18 1.227 . S
N20 Co6 2.140 . S
N20 C23 1.346 . S
N20 C24 1.345 . S
C21 C22 1.387 . S
C21 C25 1.391 . S
C22 C21 1.387 . S
C22 C23 1.369 . S
C22 H31 0.929 . S
C23 N20 1.346 . S
C23 C22 1.369 . S
C23 H26 0.928 . S
C24 N20 1.345 . S
C24 C25 1.371 . S
C24 H27 0.931 . S
C25 C21 1.391 . S
C25 C24 1.371 . S
C25 H32 0.930 . S
H26 C23 0.928 . S
H27 C24 0.931 . S
H28 C4 0.930 . S
H29 C1 0.930 . S
H30 C10 0.930 . S
H31 C22 0.929 . S
H32 C25 0.930 . S
C33 C34 1.351 . S
C33 N36 1.368 1_565 S
C33 H38 0.931 . S
C34 C33 1.351 . S
C34 N35 1.373 . S
C34 H62 0.930 . S
N35 C34 1.373 . S
N35 C37 1.340 . S
N36 C33 1.368 1_545 S
N36 C37 1.321 1_545 S
N36 Co39 2.135 . S
C37 N35 1.340 . S
C37 N36 1.321 1_565 S
C37 H61 0.930 1_565 S
H38 C33 0.931 . S
Co39 N36 2.135 . S
Co39 N42 2.121 . S
Co39 O47 2.055 . S
Co39 O50 2.039 . S
Co39 N53 2.140 1_455 S
C40 O41 1.227 . S
C40 O50 1.265 . S
O41 C40 1.227 . S
N42 Co39 2.121 . S
N42 C44 1.375 . S
N42 C45 1.313 . S
C43 C44 1.338 . S
C43 N46 1.377 . S
C43 H63 0.930 . S
C44 N42 1.375 . S
C44 C43 1.338 . S
C44 H48 0.931 . S
C45 N42 1.313 . S
C45 N46 1.344 . S
C45 H49 0.930 . S
N46 C43 1.377 . S
N46 C45 1.344 . S
O47 Co39 2.055 . S
O47 C51 1.253 . S
H48 C44 0.931 . S
H49 C45 0.930 . S
O50 Co39 2.039 . S
O50 C40 1.265 . S
C51 O47 1.253 . S
C51 O52 1.207 1_455 S
O52 C51 1.207 1_655 S
N53 Co39 2.140 1_655 S
N53 C56 1.346 . S
N53 C57 1.345 . S
C54 C55 1.387 . S
C54 C58 1.391 . S
C55 C54 1.387 . S
C55 C56 1.369 . S
C55 H64 0.929 . S
C56 N53 1.346 . S
C56 C55 1.369 . S
C56 H59 0.928 1_655 S
C57 N53 1.345 . S
C57 C58 1.371 . S
C57 H60 0.931 . S
C58 C54 1.391 . S
C58 C57 1.371 . S
C58 H65 0.930 . S
H59 C56 0.928 1_455 S
H60 C57 0.931 . S
H61 C37 0.930 1_545 S
H62 C34 0.930 . S
H63 C43 0.930 . S
H64 C55 0.929 . S
H65 C58 0.930 . S
C66 C67 1.351 . S
C66 N69 1.368 . S
C66 H71 0.931 . S
C67 C66 1.351 . S
C67 N68 1.373 . S
C67 H95 0.930 . S
N68 C67 1.373 . S
N68 C70 1.340 . S
N69 C66 1.368 . S
N69 C70 1.321 . S
N69 Co72 2.135 . S
C70 N68 1.340 . S
C70 N69 1.321 . S
C70 H94 0.930 . S
H71 C66 0.931 . S
Co72 N69 2.135 . S
Co72 N75 2.121 . S
Co72 O80 2.055 . S
Co72 O83 2.039 . S
Co72 N86 2.140 . S
C73 O74 1.227 . S
C73 O83 1.265 . S
O74 C73 1.227 . S
N75 Co72 2.121 . S
N75 C77 1.375 . S
N75 C78 1.313 . S
C76 C77 1.338 . S
C76 N79 1.377 . S
C76 H96 0.930 . S
C77 N75 1.375 . S
C77 C76 1.338 . S
C77 H81 0.931 . S
C78 N75 1.313 . S
C78 N79 1.344 . S
C78 H82 0.930 . S
N79 C76 1.377 . S
N79 C78 1.344 . S
O80 Co72 2.055 . S
O80 C84 1.253 . S
H81 C77 0.931 . S
H82 C78 0.930 . S
O83 Co72 2.039 . S
O83 C73 1.265 . S
C84 O80 1.253 . S
C84 O85 1.227 . S
O85 C84 1.227 . S
N86 Co72 2.140 . S
N86 C89 1.346 . S
N86 C90 1.345 . S
C87 C88 1.387 . S
C87 C91 1.391 . S
C88 C87 1.387 . S
C88 C89 1.369 . S
C88 H97 0.929 . S
C89 N86 1.346 . S
C89 C88 1.369 . S
C89 H92 0.928 . S
C90 N86 1.345 . S
C90 C91 1.371 . S
C90 H93 0.931 . S
C91 C87 1.391 . S
C91 C90 1.371 . S
C91 H98 0.930 . S
H92 C89 0.928 . S
H93 C90 0.931 . S
H94 C70 0.930 . S
H95 C67 0.930 . S
H96 C76 0.930 . S
H97 C88 0.929 . S
H98 C91 0.930 . S
C99 C100 1.351 . S
C99 N102 1.368 1_545 S
C99 H104 0.931 . S
C100 C99 1.351 . S
C100 N101 1.373 . S
C100 H128 0.930 . S
N101 C100 1.373 . S
N101 C103 1.340 . S
N102 C99 1.368 1_565 S
N102 C103 1.321 1_565 S
N102 Co105 2.135 . S
C103 N101 1.340 . S
C103 N102 1.321 1_545 S
C103 H127 0.930 1_545 S
H104 C99 0.931 . S
Co105 N102 2.135 . S
Co105 N108 2.121 . S
Co105 O113 2.055 . S
Co105 O116 2.039 . S
Co105 N119 2.140 . S
C106 O107 1.227 . S
C106 O116 1.265 . S
O107 C106 1.227 . S
N108 Co105 2.121 . S
N108 C110 1.375 . S
N108 C111 1.313 . S
C109 C110 1.338 . S
C109 N112 1.377 . S
C109 H129 0.930 . S
C110 N108 1.375 . S
C110 C109 1.338 . S
C110 H114 0.931 . S
C111 N108 1.313 . S
C111 N112 1.344 . S
C111 H115 0.930 . S
N112 C109 1.377 . S
N112 C111 1.344 . S
O113 Co105 2.055 . S
O113 C117 1.253 . S
H114 C110 0.931 . S
H115 C111 0.930 . S
O116 Co105 2.039 . S
O116 C106 1.265 . S
C117 O113 1.253 . S
C117 O118 1.227 . S
O118 C117 1.227 . S
N119 Co105 2.140 . S
N119 C122 1.346 . S
N119 C123 1.345 . S
C120 C121 1.387 . S
C120 C124 1.391 . S
C121 C120 1.387 . S
C121 C122 1.369 . S
C121 H130 0.929 . S
C122 N119 1.346 . S
C122 C121 1.369 . S
C122 H125 0.928 . S
C123 N119 1.345 . S
C123 C124 1.371 . S
C123 H126 0.931 . S
C124 C120 1.391 . S
C124 C123 1.371 . S
C124 H131 0.930 . S
H125 C122 0.928 . S
H126 C123 0.931 . S
H127 C103 0.930 1_565 S
H128 C100 0.930 . S
H129 C109 0.930 . S
H130 C121 0.929 . S
H131 C124 0.930 . S
C132 C133 1.351 . S
C132 N135 1.368 . S
C132 H137 0.931 . S
C133 C132 1.351 . S
C133 N134 1.373 . S
C133 H161 0.930 . S
N134 C133 1.373 . S
N134 C136 1.340 . S
N135 C132 1.368 . S
N135 C136 1.321 . S
N135 Co138 2.135 . S
C136 N134 1.340 . S
C136 N135 1.321 . S
C136 H160 0.930 . S
H137 C132 0.931 . S
Co138 N135 2.135 . S
Co138 N141 2.121 . S
Co138 O146 2.055 . S
Co138 O149 2.039 . S
Co138 N152 2.140 . S
C139 O140 1.227 . S
C139 O149 1.265 . S
O140 C139 1.227 . S
N141 Co138 2.121 . S
N141 C143 1.375 . S
N141 C144 1.313 . S
C142 C143 1.338 . S
C142 N145 1.377 . S
C142 H162 0.930 . S
C143 N141 1.375 . S
C143 C142 1.338 . S
C143 H147 0.931 . S
C144 N141 1.313 . S
C144 N145 1.344 . S
C144 H148 0.930 . S
N145 C142 1.377 . S
N145 C144 1.344 . S
O146 Co138 2.055 . S
O146 C150 1.253 . S
H147 C143 0.931 . S
H148 C144 0.930 . S
O149 Co138 2.039 . S
O149 C139 1.265 . S
C150 O146 1.253 . S
C150 O151 1.227 . S
O151 C150 1.227 . S
N152 Co138 2.140 . S
N152 C155 1.346 . S
N152 C156 1.345 . S
C153 C154 1.387 . S
C153 C157 1.391 . S
C154 C153 1.387 . S
C154 C155 1.369 . S
C154 H163 0.929 . S
C155 N152 1.346 . S
C155 C154 1.369 . S
C155 H158 0.928 . S
C156 N152 1.345 . S
C156 C157 1.371 . S
C156 H159 0.931 . S
C157 C153 1.391 . S
C157 C156 1.371 . S
C157 H164 0.930 . S
H158 C155 0.928 . S
H159 C156 0.931 . S
H160 C136 0.930 . S
H161 C133 0.930 . S
H162 C142 0.930 . S
H163 C154 0.929 . S
H164 C157 0.930 . S
C165 C166 1.351 . S
C165 N168 1.368 1_565 S
C165 H170 0.931 . S
C166 C165 1.351 . S
C166 N167 1.373 . S
C166 H194 0.930 . S
N167 C166 1.373 . S
N167 C169 1.340 . S
N168 C165 1.368 1_545 S
N168 C169 1.321 1_545 S
N168 Co171 2.135 . S
C169 N167 1.340 . S
C169 N168 1.321 1_565 S
C169 H193 0.930 1_565 S
H170 C165 0.931 . S
Co171 N168 2.135 . S
Co171 N174 2.121 . S
Co171 O179 2.055 . S
Co171 O182 2.039 . S
Co171 N185 2.140 . S
C172 O173 1.227 . S
C172 O182 1.265 . S
O173 C172 1.227 . S
N174 Co171 2.121 . S
N174 C176 1.375 . S
N174 C177 1.313 . S
C175 C176 1.338 . S
C175 N178 1.377 . S
C175 H195 0.930 . S
C176 N174 1.375 . S
C176 C175 1.338 . S
C176 H180 0.931 . S
C177 N174 1.313 . S
C177 N178 1.344 . S
C177 H181 0.930 . S
N178 C175 1.377 . S
N178 C177 1.344 . S
O179 Co171 2.055 . S
O179 C183 1.253 . S
H180 C176 0.931 . S
H181 C177 0.930 . S
O182 Co171 2.039 . S
O182 C172 1.265 . S
C183 O179 1.253 . S
C183 O184 1.227 . S
O184 C183 1.227 . S
N185 Co171 2.140 . S
N185 C188 1.346 . S
N185 C189 1.345 . S
C186 C187 1.387 . S
C186 C190 1.391 . S
C187 C186 1.387 . S
C187 C188 1.369 . S
C187 H196 0.929 . S
C188 N185 1.346 . S
C188 C187 1.369 . S
C188 H191 0.928 . S
C189 N185 1.345 . S
C189 C190 1.371 . S
C189 H192 0.931 . S
C190 C186 1.391 . S
C190 C189 1.371 . S
C190 H197 0.930 . S
H191 C188 0.928 . S
H192 C189 0.931 . S
H193 C169 0.930 1_545 S
H194 C166 0.930 . S
H195 C175 0.930 . S
H196 C187 0.929 . S
H197 C190 0.930 . S
C198 C199 1.351 . S
C198 N201 1.368 . S
C198 H203 0.931 . S
C199 C198 1.351 . S
C199 N200 1.373 . S
C199 H227 0.930 . S
N200 C199 1.373 . S
N200 C202 1.340 . S
N201 C198 1.368 . S
N201 C202 1.321 . S
N201 Co204 2.135 . S
C202 N200 1.340 . S
C202 N201 1.321 . S
C202 H226 0.930 . S
H203 C198 0.931 . S
Co204 N201 2.135 . S
Co204 N207 2.121 . S
Co204 O212 2.055 . S
Co204 O215 2.039 . S
Co204 N218 2.140 . S
C205 O206 1.227 . S
C205 O215 1.265 . S
O206 C205 1.227 . S
N207 Co204 2.121 . S
N207 C209 1.375 . S
N207 C210 1.313 . S
C208 C209 1.338 . S
C208 N211 1.377 . S
C208 H228 0.930 . S
C209 N207 1.375 . S
C209 C208 1.338 . S
C209 H213 0.931 . S
C210 N207 1.313 . S
C210 N211 1.344 . S
C210 H214 0.930 . S
N211 C208 1.377 . S
N211 C210 1.344 . S
O212 Co204 2.055 . S
O212 C216 1.253 . S
H213 C209 0.931 . S
H214 C210 0.930 . S
O215 Co204 2.039 . S
O215 C205 1.265 . S
C216 O212 1.253 . S
C216 O217 1.227 . S
O217 C216 1.227 . S
N218 Co204 2.140 . S
N218 C221 1.346 . S
N218 C222 1.345 . S
C219 C220 1.387 . S
C219 C223 1.391 . S
C220 C219 1.387 . S
C220 C221 1.369 . S
C220 H229 0.929 . S
C221 N218 1.346 . S
C221 C220 1.369 . S
C221 H224 0.928 . S
C222 N218 1.345 . S
C222 C223 1.371 . S
C222 H225 0.931 . S
C223 C219 1.391 . S
C223 C222 1.371 . S
C223 H230 0.930 . S
H224 C221 0.928 . S
H225 C222 0.931 . S
H226 C202 0.930 . S
H227 C199 0.930 . S
H228 C208 0.930 . S
H229 C220 0.929 . S
H230 C223 0.930 . S
C231 C232 1.351 . S
C231 N234 1.368 1_545 S
C231 H236 0.931 . S
C232 C231 1.351 . S
C232 N233 1.373 . S
C232 H260 0.930 . S
N233 C232 1.373 . S
N233 C235 1.340 . S
N234 C231 1.368 1_565 S
N234 C235 1.321 1_565 S
N234 Co237 2.135 . S
C235 N233 1.340 . S
C235 N234 1.321 1_545 S
C235 H259 0.930 1_545 S
H236 C231 0.931 . S
Co237 N234 2.135 . S
Co237 N240 2.121 . S
Co237 O245 2.055 . S
Co237 O248 2.039 . S
Co237 N251 2.140 1_455 S
C238 O239 1.227 . S
C238 O248 1.265 . S
O239 C238 1.227 . S
N240 Co237 2.121 . S
N240 C242 1.375 . S
N240 C243 1.313 . S
C241 C242 1.338 . S
C241 N244 1.377 . S
C241 H261 0.930 . S
C242 N240 1.375 . S
C242 C241 1.338 . S
C242 H246 0.931 . S
C243 N240 1.313 . S
C243 N244 1.344 . S
C243 H247 0.930 . S
N244 C241 1.377 . S
N244 C243 1.344 . S
O245 Co237 2.055 . S
O245 C249 1.253 . S
H246 C242 0.931 . S
H247 C243 0.930 . S
O248 Co237 2.039 . S
O248 C238 1.265 . S
C249 O245 1.253 . S
C249 O250 1.207 1_455 S
O250 C249 1.207 1_655 S
N251 Co237 2.140 1_655 S
N251 C254 1.346 . S
N251 C255 1.345 . S
C252 C253 1.387 . S
C252 C256 1.391 . S
C253 C252 1.387 . S
C253 C254 1.369 . S
C253 H262 0.929 . S
C254 N251 1.346 . S
C254 C253 1.369 . S
C254 H257 0.928 1_655 S
C255 N251 1.345 . S
C255 C256 1.371 . S
C255 H258 0.931 . S
C256 C252 1.391 . S
C256 C255 1.371 . S
C256 H263 0.930 . S
H257 C254 0.928 1_455 S
H258 C255 0.931 . S
H259 C235 0.930 1_565 S
H260 C232 0.930 . S
H261 C241 0.930 . S
H262 C253 0.929 . S
H263 C256 0.930 . S
C264 C265 1.351 . S
C264 N267 1.368 . S
C264 H269 0.931 . S
C265 C264 1.351 . S
C265 N266 1.373 . S
C265 H293 0.930 . S
N266 C265 1.373 . S
N266 C268 1.340 . S
N267 C264 1.368 . S
N267 C268 1.321 . S
N267 Co270 2.135 . S
C268 N266 1.340 . S
C268 N267 1.321 . S
C268 H292 0.930 . S
H269 C264 0.931 . S
Co270 N267 2.135 . S
Co270 N273 2.121 . S
Co270 O278 2.055 . S
Co270 O281 2.039 . S
Co270 N284 2.140 . S
C271 O272 1.227 . S
C271 O281 1.265 . S
O272 C271 1.227 . S
N273 Co270 2.121 . S
N273 C275 1.375 . S
N273 C276 1.313 . S
C274 C275 1.338 . S
C274 N277 1.377 . S
C274 H294 0.930 . S
C275 N273 1.375 . S
C275 C274 1.338 . S
C275 H279 0.931 . S
C276 N273 1.313 . S
C276 N277 1.344 . S
C276 H280 0.930 . S
N277 C274 1.377 . S
N277 C276 1.344 . S
O278 Co270 2.055 . S
O278 C282 1.253 . S
H279 C275 0.931 . S
H280 C276 0.930 . S
O281 Co270 2.039 . S
O281 C271 1.265 . S
C282 O278 1.253 . S
C282 O283 1.227 . S
O283 C282 1.227 . S
N284 Co270 2.140 . S
N284 C287 1.346 . S
N284 C288 1.345 . S
C285 C286 1.387 . S
C285 C289 1.391 . S
C286 C285 1.387 . S
C286 C287 1.369 . S
C286 H295 0.929 . S
C287 N284 1.346 . S
C287 C286 1.369 . S
C287 H290 0.928 . S
C288 N284 1.345 . S
C288 C289 1.371 . S
C288 H291 0.931 . S
C289 C285 1.391 . S
C289 C288 1.371 . S
C289 H296 0.930 . S
H290 C287 0.928 . S
H291 C288 0.931 . S
H292 C268 0.930 . S
H293 C265 0.930 . S
H294 C274 0.930 . S
H295 C286 0.929 . S
H296 C289 0.930 . S
C297 C298 1.351 . S
C297 N300 1.368 1_545 S
C297 H302 0.931 . S
C298 C297 1.351 . S
C298 N299 1.373 . S
C298 H326 0.930 . S
N299 C298 1.373 . S
N299 C301 1.340 . S
N300 C297 1.368 1_565 S
N300 C301 1.321 1_565 S
N300 Co303 2.135 . S
C301 N299 1.340 . S
C301 N300 1.321 1_545 S
C301 H325 0.930 1_545 S
H302 C297 0.931 . S
Co303 N300 2.135 . S
Co303 N306 2.121 . S
Co303 O311 2.055 . S
Co303 O314 2.039 . S
Co303 N317 2.140 1_655 S
C304 O305 1.227 . S
C304 O314 1.265 . S
O305 C304 1.227 . S
N306 Co303 2.121 . S
N306 C308 1.375 . S
N306 C309 1.313 . S
C307 C308 1.338 . S
C307 N310 1.377 . S
C307 H327 0.930 . S
C308 N306 1.375 . S
C308 C307 1.338 . S
C308 H312 0.931 . S
C309 N306 1.313 . S
C309 N310 1.344 . S
C309 H313 0.930 . S
N310 C307 1.377 . S
N310 C309 1.344 . S
O311 Co303 2.055 . S
O311 C315 1.253 . S
H312 C308 0.931 . S
H313 C309 0.930 . S
O314 Co303 2.039 . S
O314 C304 1.265 . S
C315 O311 1.253 . S
C315 O316 1.207 1_655 S
O316 C315 1.207 1_455 S
N317 Co303 2.140 1_455 S
N317 C320 1.346 . S
N317 C321 1.345 . S
C318 C319 1.387 . S
C318 C322 1.391 . S
C319 C318 1.387 . S
C319 C320 1.369 . S
C319 H328 0.929 . S
C320 N317 1.346 . S
C320 C319 1.369 . S
C320 H323 0.928 1_455 S
C321 N317 1.345 . S
C321 C322 1.371 . S
C321 H324 0.931 . S
C322 C318 1.391 . S
C322 C321 1.371 . S
C322 H329 0.930 . S
H323 C320 0.928 1_655 S
H324 C321 0.931 . S
H325 C301 0.930 1_565 S
H326 C298 0.930 . S
H327 C307 0.930 . S
H328 C319 0.929 . S
H329 C322 0.930 . S
C330 C331 1.351 . S
C330 N333 1.368 . S
C330 H335 0.931 . S
C331 C330 1.351 . S
C331 N332 1.373 . S
C331 H359 0.930 . S
N332 C331 1.373 . S
N332 C334 1.340 . S
N333 C330 1.368 . S
N333 C334 1.321 . S
N333 Co336 2.135 . S
C334 N332 1.340 . S
C334 N333 1.321 . S
C334 H358 0.930 . S
H335 C330 0.931 . S
Co336 N333 2.135 . S
Co336 N339 2.121 . S
Co336 O344 2.055 . S
Co336 O347 2.039 . S
Co336 N350 2.140 . S
C337 O338 1.227 . S
C337 O347 1.265 . S
O338 C337 1.227 . S
N339 Co336 2.121 . S
N339 C341 1.375 . S
N339 C342 1.313 . S
C340 C341 1.338 . S
C340 N343 1.377 . S
C340 H360 0.930 . S
C341 N339 1.375 . S
C341 C340 1.338 . S
C341 H345 0.931 . S
C342 N339 1.313 . S
C342 N343 1.344 . S
C342 H346 0.930 . S
N343 C340 1.377 . S
N343 C342 1.344 . S
O344 Co336 2.055 . S
O344 C348 1.253 . S
H345 C341 0.931 . S
H346 C342 0.930 . S
O347 Co336 2.039 . S
O347 C337 1.265 . S
C348 O344 1.253 . S
C348 O349 1.227 . S
O349 C348 1.227 . S
N350 Co336 2.140 . S
N350 C353 1.346 . S
N350 C354 1.345 . S
C351 C352 1.387 . S
C351 C355 1.391 . S
C352 C351 1.387 . S
C352 C353 1.369 . S
C352 H361 0.929 . S
C353 N350 1.346 . S
C353 C352 1.369 . S
C353 H356 0.928 . S
C354 N350 1.345 . S
C354 C355 1.371 . S
C354 H357 0.931 . S
C355 C351 1.391 . S
C355 C354 1.371 . S
C355 H362 0.930 . S
H356 C353 0.928 . S
H357 C354 0.931 . S
H358 C334 0.930 . S
H359 C331 0.930 . S
H360 C340 0.930 . S
H361 C352 0.929 . S
H362 C355 0.930 . S
C363 C364 1.351 . S
C363 N366 1.368 1_565 S
C363 H368 0.931 . S
C364 C363 1.351 . S
C364 N365 1.373 . S
C364 H392 0.930 . S
N365 C364 1.373 . S
N365 C367 1.340 . S
N366 C363 1.368 1_545 S
N366 C367 1.321 1_545 S
N366 Co369 2.135 . S
C367 N365 1.340 . S
C367 N366 1.321 1_565 S
C367 H391 0.930 1_565 S
H368 C363 0.931 . S
Co369 N366 2.135 . S
Co369 N372 2.121 . S
Co369 O377 2.055 . S
Co369 O380 2.039 . S
Co369 N383 2.140 . S
C370 O371 1.227 . S
C370 O380 1.265 . S
O371 C370 1.227 . S
N372 Co369 2.121 . S
N372 C374 1.375 . S
N372 C375 1.313 . S
C373 C374 1.338 . S
C373 N376 1.377 . S
C373 H393 0.930 . S
C374 N372 1.375 . S
C374 C373 1.338 . S
C374 H378 0.931 . S
C375 N372 1.313 . S
C375 N376 1.344 . S
C375 H379 0.930 . S
N376 C373 1.377 . S
N376 C375 1.344 . S
O377 Co369 2.055 . S
O377 C381 1.253 . S
H378 C374 0.931 . S
H379 C375 0.930 . S
O380 Co369 2.039 . S
O380 C370 1.265 . S
C381 O377 1.253 . S
C381 O382 1.227 . S
O382 C381 1.227 . S
N383 Co369 2.140 . S
N383 C386 1.346 . S
N383 C387 1.345 . S
C384 C385 1.387 . S
C384 C388 1.391 . S
C385 C384 1.387 . S
C385 C386 1.369 . S
C385 H394 0.929 . S
C386 N383 1.346 . S
C386 C385 1.369 . S
C386 H389 0.928 . S
C387 N383 1.345 . S
C387 C388 1.371 . S
C387 H390 0.931 . S
C388 C384 1.391 . S
C388 C387 1.371 . S
C388 H395 0.930 . S
H389 C386 0.928 . S
H390 C387 0.931 . S
H391 C367 0.930 1_545 S
H392 C364 0.930 . S
H393 C373 0.930 . S
H394 C385 0.929 . S
H395 C388 0.930 . S
C396 C397 1.351 . S
C396 N399 1.368 . S
C396 H401 0.931 . S
C397 C396 1.351 . S
C397 N398 1.373 . S
C397 H425 0.930 . S
N398 C397 1.373 . S
N398 C400 1.340 . S
N399 C396 1.368 . S
N399 C400 1.321 . S
N399 Co402 2.135 . S
C400 N398 1.340 . S
C400 N399 1.321 . S
C400 H424 0.930 . S
H401 C396 0.931 . S
Co402 N399 2.135 . S
Co402 N405 2.121 . S
Co402 O410 2.055 . S
Co402 O413 2.039 . S
Co402 N416 2.140 . S
C403 O404 1.227 . S
C403 O413 1.265 . S
O404 C403 1.227 . S
N405 Co402 2.121 . S
N405 C407 1.375 . S
N405 C408 1.313 . S
C406 C407 1.338 . S
C406 N409 1.377 . S
C406 H426 0.930 . S
C407 N405 1.375 . S
C407 C406 1.338 . S
C407 H411 0.931 . S
C408 N405 1.313 . S
C408 N409 1.344 . S
C408 H412 0.930 . S
N409 C406 1.377 . S
N409 C408 1.344 . S
O410 Co402 2.055 . S
O410 C414 1.253 . S
H411 C407 0.931 . S
H412 C408 0.930 . S
O413 Co402 2.039 . S
O413 C403 1.265 . S
C414 O410 1.253 . S
C414 O415 1.227 . S
O415 C414 1.227 . S
N416 Co402 2.140 . S
N416 C419 1.346 . S
N416 C420 1.345 . S
C417 C418 1.387 . S
C417 C421 1.391 . S
C418 C417 1.387 . S
C418 C419 1.369 . S
C418 H427 0.929 . S
C419 N416 1.346 . S
C419 C418 1.369 . S
C419 H422 0.928 . S
C420 N416 1.345 . S
C420 C421 1.371 . S
C420 H423 0.931 . S
C421 C417 1.391 . S
C421 C420 1.371 . S
C421 H428 0.930 . S
H422 C419 0.928 . S
H423 C420 0.931 . S
H424 C400 0.930 . S
H425 C397 0.930 . S
H426 C406 0.930 . S
H427 C418 0.929 . S
H428 C421 0.930 . S
C429 C430 1.351 . S
C429 N432 1.368 1_545 S
C429 H434 0.931 . S
C430 C429 1.351 . S
C430 N431 1.373 . S
C430 H458 0.930 . S
N431 C430 1.373 . S
N431 C433 1.340 . S
N432 C429 1.368 1_565 S
N432 C433 1.321 1_565 S
N432 Co435 2.135 . S
C433 N431 1.340 . S
C433 N432 1.321 1_545 S
C433 H457 0.930 1_545 S
H434 C429 0.931 . S
Co435 N432 2.135 . S
Co435 N438 2.121 . S
Co435 O443 2.055 . S
Co435 O446 2.039 . S
Co435 N449 2.140 . S
C436 O437 1.227 . S
C436 O446 1.265 . S
O437 C436 1.227 . S
N438 Co435 2.121 . S
N438 C440 1.375 . S
N438 C441 1.313 . S
C439 C440 1.338 . S
C439 N442 1.377 . S
C439 H459 0.930 . S
C440 N438 1.375 . S
C440 C439 1.338 . S
C440 H444 0.931 . S
C441 N438 1.313 . S
C441 N442 1.344 . S
C441 H445 0.930 . S
N442 C439 1.377 . S
N442 C441 1.344 . S
O443 Co435 2.055 . S
O443 C447 1.253 . S
H444 C440 0.931 . S
H445 C441 0.930 . S
O446 Co435 2.039 . S
O446 C436 1.265 . S
C447 O443 1.253 . S
C447 O448 1.227 . S
O448 C447 1.227 . S
N449 Co435 2.140 . S
N449 C452 1.346 . S
N449 C453 1.345 . S
C450 C451 1.387 . S
C450 C454 1.391 . S
C451 C450 1.387 . S
C451 C452 1.369 . S
C451 H460 0.929 . S
C452 N449 1.346 . S
C452 C451 1.369 . S
C452 H455 0.928 . S
C453 N449 1.345 . S
C453 C454 1.371 . S
C453 H456 0.931 . S
C454 C450 1.391 . S
C454 C453 1.371 . S
C454 H461 0.930 . S
H455 C452 0.928 . S
H456 C453 0.931 . S
H457 C433 0.930 1_565 S
H458 C430 0.930 . S
H459 C439 0.930 . S
H460 C451 0.929 . S
H461 C454 0.930 . S
C462 C463 1.351 . S
C462 N465 1.368 . S
C462 H467 0.931 . S
C463 C462 1.351 . S
C463 N464 1.373 . S
C463 H491 0.930 . S
N464 C463 1.373 . S
N464 C466 1.340 . S
N465 C462 1.368 . S
N465 C466 1.321 . S
N465 Co468 2.135 . S
C466 N464 1.340 . S
C466 N465 1.321 . S
C466 H490 0.930 . S
H467 C462 0.931 . S
Co468 N465 2.135 . S
Co468 N471 2.121 . S
Co468 O476 2.055 . S
Co468 O479 2.039 . S
Co468 N482 2.140 . S
C469 O470 1.227 . S
C469 O479 1.265 . S
O470 C469 1.227 . S
N471 Co468 2.121 . S
N471 C473 1.375 . S
N471 C474 1.313 . S
C472 C473 1.338 . S
C472 N475 1.377 . S
C472 H492 0.930 . S
C473 N471 1.375 . S
C473 C472 1.338 . S
C473 H477 0.931 . S
C474 N471 1.313 . S
C474 N475 1.344 . S
C474 H478 0.930 . S
N475 C472 1.377 . S
N475 C474 1.344 . S
O476 Co468 2.055 . S
O476 C480 1.253 . S
H477 C473 0.931 . S
H478 C474 0.930 . S
O479 Co468 2.039 . S
O479 C469 1.265 . S
C480 O476 1.253 . S
C480 O481 1.227 . S
O481 C480 1.227 . S
N482 Co468 2.140 . S
N482 C485 1.346 . S
N482 C486 1.345 . S
C483 C484 1.387 . S
C483 C487 1.391 . S
C484 C483 1.387 . S
C484 C485 1.369 . S
C484 H493 0.929 . S
C485 N482 1.346 . S
C485 C484 1.369 . S
C485 H488 0.928 . S
C486 N482 1.345 . S
C486 C487 1.371 . S
C486 H489 0.931 . S
C487 C483 1.391 . S
C487 C486 1.371 . S
C487 H494 0.930 . S
H488 C485 0.928 . S
H489 C486 0.931 . S
H490 C466 0.930 . S
H491 C463 0.930 . S
H492 C472 0.930 . S
H493 C484 0.929 . S
H494 C487 0.930 . S
C495 C496 1.351 . S
C495 N498 1.368 1_565 S
C495 H500 0.931 . S
C496 C495 1.351 . S
C496 N497 1.373 . S
C496 H524 0.930 . S
N497 C496 1.373 . S
N497 C499 1.340 . S
N498 C495 1.368 1_545 S
N498 C499 1.321 1_545 S
N498 Co501 2.135 . S
C499 N497 1.340 . S
C499 N498 1.321 1_565 S
C499 H523 0.930 1_565 S
H500 C495 0.931 . S
Co501 N498 2.135 . S
Co501 N504 2.121 . S
Co501 O509 2.055 . S
Co501 O512 2.039 . S
Co501 N515 2.140 1_655 S
C502 O503 1.227 . S
C502 O512 1.265 . S
O503 C502 1.227 . S
N504 Co501 2.121 . S
N504 C506 1.375 . S
N504 C507 1.313 . S
C505 C506 1.338 . S
C505 N508 1.377 . S
C505 H525 0.930 . S
C506 N504 1.375 . S
C506 C505 1.338 . S
C506 H510 0.931 . S
C507 N504 1.313 . S
C507 N508 1.344 . S
C507 H511 0.930 . S
N508 C505 1.377 . S
N508 C507 1.344 . S
O509 Co501 2.055 . S
O509 C513 1.253 . S
H510 C506 0.931 . S
H511 C507 0.930 . S
O512 Co501 2.039 . S
O512 C502 1.265 . S
C513 O509 1.253 . S
C513 O514 1.207 1_655 S
O514 C513 1.207 1_455 S
N515 Co501 2.140 1_455 S
N515 C518 1.346 . S
N515 C519 1.345 . S
C516 C517 1.387 . S
C516 C520 1.391 . S
C517 C516 1.387 . S
C517 C518 1.369 . S
C517 H526 0.929 . S
C518 N515 1.346 . S
C518 C517 1.369 . S
C518 H521 0.928 1_455 S
C519 N515 1.345 . S
C519 C520 1.371 . S
C519 H522 0.931 . S
C520 C516 1.391 . S
C520 C519 1.371 . S
C520 H527 0.930 . S
H521 C518 0.928 1_655 S
H522 C519 0.931 . S
H523 C499 0.930 1_545 S
H524 C496 0.930 . S
H525 C505 0.930 . S
H526 C517 0.929 . S
H527 C520 0.930 . S
C528 C529 1.351 . S
C528 N531 1.368 . S
C528 H533 0.931 . S
C529 C528 1.351 . S
C529 N530 1.373 . S
C529 H557 0.930 . S
N530 C529 1.373 . S
N530 C532 1.340 . S
N531 C528 1.368 . S
N531 C532 1.321 . S
N531 Co534 2.135 . S
C532 N530 1.340 . S
C532 N531 1.321 . S
C532 H556 0.930 . S
H533 C528 0.931 . S
Co534 N531 2.135 . S
Co534 N537 2.121 . S
Co534 O542 2.055 . S
Co534 O545 2.039 . S
Co534 N548 2.140 . S
C535 O536 1.227 . S
C535 O545 1.265 . S
O536 C535 1.227 . S
N537 Co534 2.121 . S
N537 C539 1.375 . S
N537 C540 1.313 . S
C538 C539 1.338 . S
C538 N541 1.377 . S
C538 H558 0.930 . S
C539 N537 1.375 . S
C539 C538 1.338 . S
C539 H543 0.931 . S
C540 N537 1.313 . S
C540 N541 1.344 . S
C540 H544 0.930 . S
N541 C538 1.377 . S
N541 C540 1.344 . S
O542 Co534 2.055 . S
O542 C546 1.253 . S
H543 C539 0.931 . S
H544 C540 0.930 . S
O545 Co534 2.039 . S
O545 C535 1.265 . S
C546 O542 1.253 . S
C546 O547 1.227 . S
O547 C546 1.227 . S
N548 Co534 2.140 . S
N548 C551 1.346 . S
N548 C552 1.345 . S
C549 C550 1.387 . S
C549 C553 1.391 . S
C550 C549 1.387 . S
C550 C551 1.369 . S
C550 H559 0.929 . S
C551 N548 1.346 . S
C551 C550 1.369 . S
C551 H554 0.928 . S
C552 N548 1.345 . S
C552 C553 1.371 . S
C552 H555 0.931 . S
C553 C549 1.391 . S
C553 C552 1.371 . S
C553 H560 0.930 . S
H554 C551 0.928 . S
H555 C552 0.931 . S
H556 C532 0.930 . S
H557 C529 0.930 . S
H558 C538 0.930 . S
H559 C550 0.929 . S
H560 C553 0.930 . S
C561 C562 1.351 . S
C561 N564 1.368 . S
C561 H566 0.931 . S
C562 C561 1.351 . S
C562 N563 1.373 . S
C562 H590 0.930 . S
N563 C562 1.373 . S
N563 C565 1.340 . S
N564 C561 1.368 . S
N564 C565 1.321 . S
N564 Co567 2.135 . S
C565 N563 1.340 . S
C565 N564 1.321 . S
C565 H589 0.930 . S
H566 C561 0.931 . S
Co567 N564 2.135 . S
Co567 N570 2.121 . S
Co567 O575 2.055 . S
Co567 O578 2.039 . S
Co567 N581 2.140 . S
C568 O569 1.227 . S
C568 O578 1.265 . S
O569 C568 1.227 . S
N570 Co567 2.121 . S
N570 C572 1.375 . S
N570 C573 1.313 . S
C571 C572 1.338 . S
C571 N574 1.377 . S
C571 H591 0.930 . S
C572 N570 1.375 . S
C572 C571 1.338 . S
C572 H576 0.931 . S
C573 N570 1.313 . S
C573 N574 1.344 . S
C573 H577 0.930 . S
N574 C571 1.377 . S
N574 C573 1.344 . S
O575 Co567 2.055 . S
O575 C579 1.253 . S
H576 C572 0.931 . S
H577 C573 0.930 . S
O578 Co567 2.039 . S
O578 C568 1.265 . S
C579 O575 1.253 . S
C579 O580 1.227 . S
O580 C579 1.227 . S
N581 Co567 2.140 . S
N581 C584 1.346 . S
N581 C585 1.345 . S
C582 C583 1.387 . S
C582 C586 1.391 . S
C583 C582 1.387 . S
C583 C584 1.369 . S
C583 H592 0.929 . S
C584 N581 1.346 . S
C584 C583 1.369 . S
C584 H587 0.928 . S
C585 N581 1.345 . S
C585 C586 1.371 . S
C585 H588 0.931 . S
C586 C582 1.391 . S
C586 C585 1.371 . S
C586 H593 0.930 . S
H587 C584 0.928 . S
H588 C585 0.931 . S
H589 C565 0.930 . S
H590 C562 0.930 . S
H591 C571 0.930 . S
H592 C583 0.929 . S
H593 C586 0.930 . S
C594 C595 1.351 . S
C594 N597 1.368 . S
C594 H599 0.931 . S
C595 C594 1.351 . S
C595 N596 1.373 . S
C595 H623 0.930 . S
N596 C595 1.373 . S
N596 C598 1.340 . S
N597 C594 1.368 . S
N597 C598 1.321 . S
N597 Co600 2.135 . S
C598 N596 1.340 . S
C598 N597 1.321 . S
C598 H622 0.930 . S
H599 C594 0.931 . S
Co600 N597 2.135 . S
Co600 N603 2.121 . S
Co600 O608 2.055 . S
Co600 O611 2.039 . S
Co600 N614 2.140 . S
C601 O602 1.227 . S
C601 O611 1.265 . S
O602 C601 1.227 . S
N603 Co600 2.121 . S
N603 C605 1.375 . S
N603 C606 1.313 . S
C604 C605 1.338 . S
C604 N607 1.377 . S
C604 H624 0.930 . S
C605 N603 1.375 . S
C605 C604 1.338 . S
C605 H609 0.931 . S
C606 N603 1.313 . S
C606 N607 1.344 . S
C606 H610 0.930 . S
N607 C604 1.377 . S
N607 C606 1.344 . S
O608 Co600 2.055 . S
O608 C612 1.253 . S
H609 C605 0.931 . S
H610 C606 0.930 . S
O611 Co600 2.039 . S
O611 C601 1.265 . S
C612 O608 1.253 . S
C612 O613 1.227 . S
O613 C612 1.227 . S
N614 Co600 2.140 . S
N614 C617 1.346 . S
N614 C618 1.345 . S
C615 C616 1.387 . S
C615 C619 1.391 . S
C616 C615 1.387 . S
C616 C617 1.369 . S
C616 H625 0.929 . S
C617 N614 1.346 . S
C617 C616 1.369 . S
C617 H620 0.928 . S
C618 N614 1.345 . S
C618 C619 1.371 . S
C618 H621 0.931 . S
C619 C615 1.391 . S
C619 C618 1.371 . S
C619 H626 0.930 . S
H620 C617 0.928 . S
H621 C618 0.931 . S
H622 C598 0.930 . S
H623 C595 0.930 . S
H624 C604 0.930 . S
H625 C616 0.929 . S
H626 C619 0.930 . S
C627 C628 1.351 . S
C627 N630 1.368 . S
C627 H632 0.931 . S
C628 C627 1.351 . S
C628 N629 1.373 . S
C628 H656 0.930 . S
N629 C628 1.373 . S
N629 C631 1.340 . S
N630 C627 1.368 . S
N630 C631 1.321 . S
N630 Co633 2.135 . S
C631 N629 1.340 . S
C631 N630 1.321 . S
C631 H655 0.930 . S
H632 C627 0.931 . S
Co633 N630 2.135 . S
Co633 N636 2.121 . S
Co633 O641 2.055 . S
Co633 O644 2.039 . S
Co633 N647 2.140 1_655 S
C634 O635 1.227 . S
C634 O644 1.265 . S
O635 C634 1.227 . S
N636 Co633 2.121 . S
N636 C638 1.375 . S
N636 C639 1.313 . S
C637 C638 1.338 . S
C637 N640 1.377 . S
C637 H657 0.930 . S
C638 N636 1.375 . S
C638 C637 1.338 . S
C638 H642 0.931 . S
C639 N636 1.313 . S
C639 N640 1.344 . S
C639 H643 0.930 . S
N640 C637 1.377 . S
N640 C639 1.344 . S
O641 Co633 2.055 . S
O641 C645 1.253 . S
H642 C638 0.931 . S
H643 C639 0.930 . S
O644 Co633 2.039 . S
O644 C634 1.265 . S
C645 O641 1.253 . S
C645 O646 1.207 1_655 S
O646 C645 1.207 1_455 S
N647 Co633 2.140 1_455 S
N647 C650 1.346 . S
N647 C651 1.345 . S
C648 C649 1.387 . S
C648 C652 1.391 . S
C649 C648 1.387 . S
C649 C650 1.369 . S
C649 H658 0.929 . S
C650 N647 1.346 . S
C650 C649 1.369 . S
C650 H653 0.928 1_455 S
C651 N647 1.345 . S
C651 C652 1.371 . S
C651 H654 0.931 . S
C652 C648 1.391 . S
C652 C651 1.371 . S
C652 H659 0.930 . S
H653 C650 0.928 1_655 S
H654 C651 0.931 . S
H655 C631 0.930 . S
H656 C628 0.930 . S
H657 C637 0.930 . S
H658 C649 0.929 . S
H659 C652 0.930 . S
C660 C661 1.351 . S
C660 N663 1.368 . S
C660 H665 0.931 . S
C661 C660 1.351 . S
C661 N662 1.373 . S
C661 H689 0.930 . S
N662 C661 1.373 . S
N662 C664 1.340 . S
N663 C660 1.368 . S
N663 C664 1.321 . S
N663 Co666 2.135 . S
C664 N662 1.340 . S
C664 N663 1.321 . S
C664 H688 0.930 . S
H665 C660 0.931 . S
Co666 N663 2.135 . S
Co666 N669 2.121 . S
Co666 O674 2.055 . S
Co666 O677 2.039 . S
Co666 N680 2.140 . S
C667 O668 1.227 . S
C667 O677 1.265 . S
O668 C667 1.227 . S
N669 Co666 2.121 . S
N669 C671 1.375 . S
N669 C672 1.313 . S
C670 C671 1.338 . S
C670 N673 1.377 . S
C670 H690 0.930 . S
C671 N669 1.375 . S
C671 C670 1.338 . S
C671 H675 0.931 . S
C672 N669 1.313 . S
C672 N673 1.344 . S
C672 H676 0.930 . S
N673 C670 1.377 . S
N673 C672 1.344 . S
O674 Co666 2.055 . S
O674 C678 1.253 . S
H675 C671 0.931 . S
H676 C672 0.930 . S
O677 Co666 2.039 . S
O677 C667 1.265 . S
C678 O674 1.253 . S
C678 O679 1.227 . S
O679 C678 1.227 . S
N680 Co666 2.140 . S
N680 C683 1.346 . S
N680 C684 1.345 . S
C681 C682 1.387 . S
C681 C685 1.391 . S
C682 C681 1.387 . S
C682 C683 1.369 . S
C682 H691 0.929 . S
C683 N680 1.346 . S
C683 C682 1.369 . S
C683 H686 0.928 . S
C684 N680 1.345 . S
C684 C685 1.371 . S
C684 H687 0.931 . S
C685 C681 1.391 . S
C685 C684 1.371 . S
C685 H692 0.930 . S
H686 C683 0.928 . S
H687 C684 0.931 . S
H688 C664 0.930 . S
H689 C661 0.930 . S
H690 C670 0.930 . S
H691 C682 0.929 . S
H692 C685 0.930 . S
C693 C694 1.351 . S
C693 N696 1.368 . S
C693 H698 0.931 . S
C694 C693 1.351 . S
C694 N695 1.373 . S
C694 H722 0.930 . S
N695 C694 1.373 . S
N695 C697 1.340 . S
N696 C693 1.368 . S
N696 C697 1.321 . S
N696 Co699 2.135 . S
C697 N695 1.340 . S
C697 N696 1.321 . S
C697 H721 0.930 . S
H698 C693 0.931 . S
Co699 N696 2.135 . S
Co699 N702 2.121 . S
Co699 O707 2.055 . S
Co699 O710 2.039 . S
Co699 N713 2.140 1_655 S
C700 O701 1.227 . S
C700 O710 1.265 . S
O701 C700 1.227 . S
N702 Co699 2.121 . S
N702 C704 1.375 . S
N702 C705 1.313 . S
C703 C704 1.338 . S
C703 N706 1.377 . S
C703 H723 0.930 . S
C704 N702 1.375 . S
C704 C703 1.338 . S
C704 H708 0.931 . S
C705 N702 1.313 . S
C705 N706 1.344 . S
C705 H709 0.930 . S
N706 C703 1.377 . S
N706 C705 1.344 . S
O707 Co699 2.055 . S
O707 C711 1.253 . S
H708 C704 0.931 . S
H709 C705 0.930 . S
O710 Co699 2.039 . S
O710 C700 1.265 . S
C711 O707 1.253 . S
C711 O712 1.207 1_655 S
O712 C711 1.207 1_455 S
N713 Co699 2.140 1_455 S
N713 C716 1.346 . S
N713 C717 1.345 . S
C714 C715 1.387 . S
C714 C718 1.391 . S
C715 C714 1.387 . S
C715 C716 1.369 . S
C715 H724 0.929 . S
C716 N713 1.346 . S
C716 C715 1.369 . S
C716 H719 0.928 1_455 S
C717 N713 1.345 . S
C717 C718 1.371 . S
C717 H720 0.931 . S
C718 C714 1.391 . S
C718 C717 1.371 . S
C718 H725 0.930 . S
H719 C716 0.928 1_655 S
H720 C717 0.931 . S
H721 C697 0.930 . S
H722 C694 0.930 . S
H723 C703 0.930 . S
H724 C715 0.929 . S
H725 C718 0.930 . S
C726 C727 1.351 . S
C726 N729 1.368 . S
C726 H731 0.931 . S
C727 C726 1.351 . S
C727 N728 1.373 . S
C727 H755 0.930 . S
N728 C727 1.373 . S
N728 C730 1.340 . S
N729 C726 1.368 . S
N729 C730 1.321 . S
N729 Co732 2.135 . S
C730 N728 1.340 . S
C730 N729 1.321 . S
C730 H754 0.930 . S
H731 C726 0.931 . S
Co732 N729 2.135 . S
Co732 N735 2.121 . S
Co732 O740 2.055 . S
Co732 O743 2.039 . S
Co732 N746 2.140 . S
C733 O734 1.227 . S
C733 O743 1.265 . S
O734 C733 1.227 . S
N735 Co732 2.121 . S
N735 C737 1.375 . S
N735 C738 1.313 . S
C736 C737 1.338 . S
C736 N739 1.377 . S
C736 H756 0.930 . S
C737 N735 1.375 . S
C737 C736 1.338 . S
C737 H741 0.931 . S
C738 N735 1.313 . S
C738 N739 1.344 . S
C738 H742 0.930 . S
N739 C736 1.377 . S
N739 C738 1.344 . S
O740 Co732 2.055 . S
O740 C744 1.253 . S
H741 C737 0.931 . S
H742 C738 0.930 . S
O743 Co732 2.039 . S
O743 C733 1.265 . S
C744 O740 1.253 . S
C744 O745 1.227 . S
O745 C744 1.227 . S
N746 Co732 2.140 . S
N746 C749 1.346 . S
N746 C750 1.345 . S
C747 C748 1.387 . S
C747 C751 1.391 . S
C748 C747 1.387 . S
C748 C749 1.369 . S
C748 H757 0.929 . S
C749 N746 1.346 . S
C749 C748 1.369 . S
C749 H752 0.928 . S
C750 N746 1.345 . S
C750 C751 1.371 . S
C750 H753 0.931 . S
C751 C747 1.391 . S
C751 C750 1.371 . S
C751 H758 0.930 . S
H752 C749 0.928 . S
H753 C750 0.931 . S
H754 C730 0.930 . S
H755 C727 0.930 . S
H756 C736 0.930 . S
H757 C748 0.929 . S
H758 C751 0.930 . S
C759 C760 1.351 . S
C759 N762 1.368 . S
C759 H764 0.931 . S
C760 C759 1.351 . S
C760 N761 1.373 . S
C760 H788 0.930 . S
N761 C760 1.373 . S
N761 C763 1.340 . S
N762 C759 1.368 . S
N762 C763 1.321 . S
N762 Co765 2.135 . S
C763 N761 1.340 . S
C763 N762 1.321 . S
C763 H787 0.930 . S
H764 C759 0.931 . S
Co765 N762 2.135 . S
Co765 N768 2.121 . S
Co765 O773 2.055 . S
Co765 O776 2.039 . S
Co765 N779 2.140 . S
C766 O767 1.227 . S
C766 O776 1.265 . S
O767 C766 1.227 . S
N768 Co765 2.121 . S
N768 C770 1.375 . S
N768 C771 1.313 . S
C769 C770 1.338 . S
C769 N772 1.377 . S
C769 H789 0.930 . S
C770 N768 1.375 . S
C770 C769 1.338 . S
C770 H774 0.931 . S
C771 N768 1.313 . S
C771 N772 1.344 . S
C771 H775 0.930 . S
N772 C769 1.377 . S
N772 C771 1.344 . S
O773 Co765 2.055 . S
O773 C777 1.253 . S
H774 C770 0.931 . S
H775 C771 0.930 . S
O776 Co765 2.039 . S
O776 C766 1.265 . S
C777 O773 1.253 . S
C777 O778 1.227 . S
O778 C777 1.227 . S
N779 Co765 2.140 . S
N779 C782 1.346 . S
N779 C783 1.345 . S
C780 C781 1.387 . S
C780 C784 1.391 . S
C781 C780 1.387 . S
C781 C782 1.369 . S
C781 H790 0.929 . S
C782 N779 1.346 . S
C782 C781 1.369 . S
C782 H785 0.928 . S
C783 N779 1.345 . S
C783 C784 1.371 . S
C783 H786 0.931 . S
C784 C780 1.391 . S
C784 C783 1.371 . S
C784 H791 0.930 . S
H785 C782 0.928 . S
H786 C783 0.931 . S
H787 C763 0.930 . S
H788 C760 0.930 . S
H789 C769 0.930 . S
H790 C781 0.929 . S
H791 C784 0.930 . S
C792 C793 1.351 . S
C792 N795 1.368 . S
C792 H797 0.931 . S
C793 C792 1.351 . S
C793 N794 1.373 . S
C793 H821 0.930 . S
N794 C793 1.373 . S
N794 C796 1.340 . S
N795 C792 1.368 . S
N795 C796 1.321 . S
N795 Co798 2.135 . S
C796 N794 1.340 . S
C796 N795 1.321 . S
C796 H820 0.930 . S
H797 C792 0.931 . S
Co798 N795 2.135 . S
Co798 N801 2.121 . S
Co798 O806 2.055 . S
Co798 O809 2.039 . S
Co798 N812 2.140 . S
C799 O800 1.227 . S
C799 O809 1.265 . S
O800 C799 1.227 . S
N801 Co798 2.121 . S
N801 C803 1.375 . S
N801 C804 1.313 . S
C802 C803 1.338 . S
C802 N805 1.377 . S
C802 H822 0.930 . S
C803 N801 1.375 . S
C803 C802 1.338 . S
C803 H807 0.931 . S
C804 N801 1.313 . S
C804 N805 1.344 . S
C804 H808 0.930 . S
N805 C802 1.377 . S
N805 C804 1.344 . S
O806 Co798 2.055 . S
O806 C810 1.253 . S
H807 C803 0.931 . S
H808 C804 0.930 . S
O809 Co798 2.039 . S
O809 C799 1.265 . S
C810 O806 1.253 . S
C810 O811 1.227 . S
O811 C810 1.227 . S
N812 Co798 2.140 . S
N812 C815 1.346 . S
N812 C816 1.345 . S
C813 C814 1.387 . S
C813 C817 1.391 . S
C814 C813 1.387 . S
C814 C815 1.369 . S
C814 H823 0.929 . S
C815 N812 1.346 . S
C815 C814 1.369 . S
C815 H818 0.928 . S
C816 N812 1.345 . S
C816 C817 1.371 . S
C816 H819 0.931 . S
C817 C813 1.391 . S
C817 C816 1.371 . S
C817 H824 0.930 . S
H818 C815 0.928 . S
H819 C816 0.931 . S
H820 C796 0.930 . S
H821 C793 0.930 . S
H822 C802 0.930 . S
H823 C814 0.929 . S
H824 C817 0.930 . S
C825 C826 1.351 . S
C825 N828 1.368 . S
C825 H830 0.931 . S
C826 C825 1.351 . S
C826 N827 1.373 . S
C826 H854 0.930 . S
N827 C826 1.373 . S
N827 C829 1.340 . S
N828 C825 1.368 . S
N828 C829 1.321 . S
N828 Co831 2.135 . S
C829 N827 1.340 . S
C829 N828 1.321 . S
C829 H853 0.930 . S
H830 C825 0.931 . S
Co831 N828 2.135 . S
Co831 N834 2.121 . S
Co831 O839 2.055 . S
Co831 O842 2.039 . S
Co831 N845 2.140 . S
C832 O833 1.227 . S
C832 O842 1.265 . S
O833 C832 1.227 . S
N834 Co831 2.121 . S
N834 C836 1.375 . S
N834 C837 1.313 . S
C835 C836 1.338 . S
C835 N838 1.377 . S
C835 H855 0.930 . S
C836 N834 1.375 . S
C836 C835 1.338 . S
C836 H840 0.931 . S
C837 N834 1.313 . S
C837 N838 1.344 . S
C837 H841 0.930 . S
N838 C835 1.377 . S
N838 C837 1.344 . S
O839 Co831 2.055 . S
O839 C843 1.253 . S
H840 C836 0.931 . S
H841 C837 0.930 . S
O842 Co831 2.039 . S
O842 C832 1.265 . S
C843 O839 1.253 . S
C843 O844 1.227 . S
O844 C843 1.227 . S
N845 Co831 2.140 . S
N845 C848 1.346 . S
N845 C849 1.345 . S
C846 C847 1.387 . S
C846 C850 1.391 . S
C847 C846 1.387 . S
C847 C848 1.369 . S
C847 H856 0.929 . S
C848 N845 1.346 . S
C848 C847 1.369 . S
C848 H851 0.928 . S
C849 N845 1.345 . S
C849 C850 1.371 . S
C849 H852 0.931 . S
C850 C846 1.391 . S
C850 C849 1.371 . S
C850 H857 0.930 . S
H851 C848 0.928 . S
H852 C849 0.931 . S
H853 C829 0.930 . S
H854 C826 0.930 . S
H855 C835 0.930 . S
H856 C847 0.929 . S
H857 C850 0.930 . S
C858 C859 1.351 . S
C858 N861 1.368 . S
C858 H863 0.931 . S
C859 C858 1.351 . S
C859 N860 1.373 . S
C859 H887 0.930 . S
N860 C859 1.373 . S
N860 C862 1.340 . S
N861 C858 1.368 . S
N861 C862 1.321 . S
N861 Co864 2.135 . S
C862 N860 1.340 . S
C862 N861 1.321 . S
C862 H886 0.930 . S
H863 C858 0.931 . S
Co864 N861 2.135 . S
Co864 N867 2.121 . S
Co864 O872 2.055 . S
Co864 O875 2.039 . S
Co864 N878 2.140 . S
C865 O866 1.227 . S
C865 O875 1.265 . S
O866 C865 1.227 . S
N867 Co864 2.121 . S
N867 C869 1.375 . S
N867 C870 1.313 . S
C868 C869 1.338 . S
C868 N871 1.377 . S
C868 H888 0.930 . S
C869 N867 1.375 . S
C869 C868 1.338 . S
C869 H873 0.931 . S
C870 N867 1.313 . S
C870 N871 1.344 . S
C870 H874 0.930 . S
N871 C868 1.377 . S
N871 C870 1.344 . S
O872 Co864 2.055 . S
O872 C876 1.253 . S
H873 C869 0.931 . S
H874 C870 0.930 . S
O875 Co864 2.039 . S
O875 C865 1.265 . S
C876 O872 1.253 . S
C876 O877 1.227 . S
O877 C876 1.227 . S
N878 Co864 2.140 . S
N878 C881 1.346 . S
N878 C882 1.345 . S
C879 C880 1.387 . S
C879 C883 1.391 . S
C880 C879 1.387 . S
C880 C881 1.369 . S
C880 H889 0.929 . S
C881 N878 1.346 . S
C881 C880 1.369 . S
C881 H884 0.928 . S
C882 N878 1.345 . S
C882 C883 1.371 . S
C882 H885 0.931 . S
C883 C879 1.391 . S
C883 C882 1.371 . S
C883 H890 0.930 . S
H884 C881 0.928 . S
H885 C882 0.931 . S
H886 C862 0.930 . S
H887 C859 0.930 . S
H888 C868 0.930 . S
H889 C880 0.929 . S
H890 C883 0.930 . S
C891 C892 1.351 . S
C891 N894 1.368 . S
C891 H896 0.931 . S
C892 C891 1.351 . S
C892 N893 1.373 . S
C892 H920 0.930 . S
N893 C892 1.373 . S
N893 C895 1.340 . S
N894 C891 1.368 . S
N894 C895 1.321 . S
N894 Co897 2.135 . S
C895 N893 1.340 . S
C895 N894 1.321 . S
C895 H919 0.930 . S
H896 C891 0.931 . S
Co897 N894 2.135 . S
Co897 N900 2.121 . S
Co897 O905 2.055 . S
Co897 O908 2.039 . S
Co897 N911 2.140 1_455 S
C898 O899 1.227 . S
C898 O908 1.265 . S
O899 C898 1.227 . S
N900 Co897 2.121 . S
N900 C902 1.375 . S
N900 C903 1.313 . S
C901 C902 1.338 . S
C901 N904 1.377 . S
C901 H921 0.930 . S
C902 N900 1.375 . S
C902 C901 1.338 . S
C902 H906 0.931 . S
C903 N900 1.313 . S
C903 N904 1.344 . S
C903 H907 0.930 . S
N904 C901 1.377 . S
N904 C903 1.344 . S
O905 Co897 2.055 . S
O905 C909 1.253 . S
H906 C902 0.931 . S
H907 C903 0.930 . S
O908 Co897 2.039 . S
O908 C898 1.265 . S
C909 O905 1.253 . S
C909 O910 1.207 1_455 S
O910 C909 1.207 1_655 S
N911 Co897 2.140 1_655 S
N911 C914 1.346 . S
N911 C915 1.345 . S
C912 C913 1.387 . S
C912 C916 1.391 . S
C913 C912 1.387 . S
C913 C914 1.369 . S
C913 H922 0.929 . S
C914 N911 1.346 . S
C914 C913 1.369 . S
C914 H917 0.928 1_655 S
C915 N911 1.345 . S
C915 C916 1.371 . S
C915 H918 0.931 . S
C916 C912 1.391 . S
C916 C915 1.371 . S
C916 H923 0.930 . S
H917 C914 0.928 1_455 S
H918 C915 0.931 . S
H919 C895 0.930 . S
H920 C892 0.930 . S
H921 C901 0.930 . S
H922 C913 0.929 . S
H923 C916 0.930 . S
C924 C925 1.351 . S
C924 N927 1.368 . S
C924 H929 0.931 . S
C925 C924 1.351 . S
C925 N926 1.373 . S
C925 H953 0.930 . S
N926 C925 1.373 . S
N926 C928 1.340 . S
N927 C924 1.368 . S
N927 C928 1.321 . S
N927 Co930 2.135 . S
C928 N926 1.340 . S
C928 N927 1.321 . S
C928 H952 0.930 . S
H929 C924 0.931 . S
Co930 N927 2.135 . S
Co930 N933 2.121 . S
Co930 O938 2.055 . S
Co930 O941 2.039 . S
Co930 N944 2.140 . S
C931 O932 1.227 . S
C931 O941 1.265 . S
O932 C931 1.227 . S
N933 Co930 2.121 . S
N933 C935 1.375 . S
N933 C936 1.313 . S
C934 C935 1.338 . S
C934 N937 1.377 . S
C934 H954 0.930 . S
C935 N933 1.375 . S
C935 C934 1.338 . S
C935 H939 0.931 . S
C936 N933 1.313 . S
C936 N937 1.344 . S
C936 H940 0.930 . S
N937 C934 1.377 . S
N937 C936 1.344 . S
O938 Co930 2.055 . S
O938 C942 1.253 . S
H939 C935 0.931 . S
H940 C936 0.930 . S
O941 Co930 2.039 . S
O941 C931 1.265 . S
C942 O938 1.253 . S
C942 O943 1.227 . S
O943 C942 1.227 . S
N944 Co930 2.140 . S
N944 C947 1.346 . S
N944 C948 1.345 . S
C945 C946 1.387 . S
C945 C949 1.391 . S
C946 C945 1.387 . S
C946 C947 1.369 . S
C946 H955 0.929 . S
C947 N944 1.346 . S
C947 C946 1.369 . S
C947 H950 0.928 . S
C948 N944 1.345 . S
C948 C949 1.371 . S
C948 H951 0.931 . S
C949 C945 1.391 . S
C949 C948 1.371 . S
C949 H956 0.930 . S
H950 C947 0.928 . S
H951 C948 0.931 . S
H952 C928 0.930 . S
H953 C925 0.930 . S
H954 C934 0.930 . S
H955 C946 0.929 . S
H956 C949 0.930 . S
C957 C958 1.351 . S
C957 N960 1.368 . S
C957 H962 0.931 . S
C958 C957 1.351 . S
C958 N959 1.373 . S
C958 H986 0.930 . S
N959 C958 1.373 . S
N959 C961 1.340 . S
N960 C957 1.368 . S
N960 C961 1.321 . S
N960 Co963 2.135 . S
C961 N959 1.340 . S
C961 N960 1.321 . S
C961 H985 0.930 . S
H962 C957 0.931 . S
Co963 N960 2.135 . S
Co963 N966 2.121 . S
Co963 O971 2.055 . S
Co963 O974 2.039 . S
Co963 N977 2.140 1_455 S
C964 O965 1.227 . S
C964 O974 1.265 . S
O965 C964 1.227 . S
N966 Co963 2.121 . S
N966 C968 1.375 . S
N966 C969 1.313 . S
C967 C968 1.338 . S
C967 N970 1.377 . S
C967 H987 0.930 . S
C968 N966 1.375 . S
C968 C967 1.338 . S
C968 H972 0.931 . S
C969 N966 1.313 . S
C969 N970 1.344 . S
C969 H973 0.930 . S
N970 C967 1.377 . S
N970 C969 1.344 . S
O971 Co963 2.055 . S
O971 C975 1.253 . S
H972 C968 0.931 . S
H973 C969 0.930 . S
O974 Co963 2.039 . S
O974 C964 1.265 . S
C975 O971 1.253 . S
C975 O976 1.207 1_455 S
O976 C975 1.207 1_655 S
N977 Co963 2.140 1_655 S
N977 C980 1.346 . S
N977 C981 1.345 . S
C978 C979 1.387 . S
C978 C982 1.391 . S
C979 C978 1.387 . S
C979 C980 1.369 . S
C979 H988 0.929 . S
C980 N977 1.346 . S
C980 C979 1.369 . S
C980 H983 0.928 1_655 S
C981 N977 1.345 . S
C981 C982 1.371 . S
C981 H984 0.931 . S
C982 C978 1.391 . S
C982 C981 1.371 . S
C982 H989 0.930 . S
H983 C980 0.928 1_455 S
H984 C981 0.931 . S
H985 C961 0.930 . S
H986 C958 0.930 . S
H987 C967 0.930 . S
H988 C979 0.929 . S
H989 C982 0.930 . S
C990 C991 1.351 . S
C990 N993 1.368 . S
C990 H995 0.931 . S
C991 C990 1.351 . S
C991 N992 1.373 . S
C991 H1019 0.930 . S
N992 C991 1.373 . S
N992 C994 1.340 . S
N993 C990 1.368 . S
N993 C994 1.321 . S
N993 Co996 2.135 . S
C994 N992 1.340 . S
C994 N993 1.321 . S
C994 H1018 0.930 . S
H995 C990 0.931 . S
Co996 N993 2.135 . S
Co996 N999 2.121 . S
Co996 O1004 2.055 . S
Co996 O1007 2.039 . S
Co996 N1010 2.140 . S
C997 O998 1.227 . S
C997 O1007 1.265 . S
O998 C997 1.227 . S
N999 Co996 2.121 . S
N999 C1001 1.375 . S
N999 C1002 1.313 . S
C1000 C1001 1.338 . S
C1000 N1003 1.377 . S
C1000 H1020 0.930 . S
C1001 N999 1.375 . S
C1001 C1000 1.338 . S
C1001 H1005 0.931 . S
C1002 N999 1.313 . S
C1002 N1003 1.344 . S
C1002 H1006 0.930 . S
N1003 C1000 1.377 . S
N1003 C1002 1.344 . S
O1004 Co996 2.055 . S
O1004 C1008 1.253 . S
H1005 C1001 0.931 . S
H1006 C1002 0.930 . S
O1007 Co996 2.039 . S
O1007 C997 1.265 . S
C1008 O1004 1.253 . S
C1008 O1009 1.227 . S
O1009 C1008 1.227 . S
N1010 Co996 2.140 . S
N1010 C1013 1.346 . S
N1010 C1014 1.345 . S
C1011 C1012 1.387 . S
C1011 C1015 1.391 . S
C1012 C1011 1.387 . S
C1012 C1013 1.369 . S
C1012 H1021 0.929 . S
C1013 N1010 1.346 . S
C1013 C1012 1.369 . S
C1013 H1016 0.928 . S
C1014 N1010 1.345 . S
C1014 C1015 1.371 . S
C1014 H1017 0.931 . S
C1015 C1011 1.391 . S
C1015 C1014 1.371 . S
C1015 H1022 0.930 . S
H1016 C1013 0.928 . S
H1017 C1014 0.931 . S
H1018 C994 0.930 . S
H1019 C991 0.930 . S
H1020 C1000 0.930 . S
H1021 C1012 0.929 . S
H1022 C1015 0.930 . S
C1023 C1024 1.351 . S
C1023 N1026 1.368 . S
C1023 H1028 0.931 . S
C1024 C1023 1.351 . S
C1024 N1025 1.373 . S
C1024 H1052 0.930 . S
N1025 C1024 1.373 . S
N1025 C1027 1.340 . S
N1026 C1023 1.368 . S
N1026 C1027 1.321 . S
N1026 Co1029 2.135 . S
C1027 N1025 1.340 . S
C1027 N1026 1.321 . S
C1027 H1051 0.930 . S
H1028 C1023 0.931 . S
Co1029 N1026 2.135 . S
Co1029 N1032 2.121 . S
Co1029 O1037 2.055 . S
Co1029 O1040 2.039 . S
Co1029 N1043 2.140 . S
C1030 O1031 1.227 . S
C1030 O1040 1.265 . S
O1031 C1030 1.227 . S
N1032 Co1029 2.121 . S
N1032 C1034 1.375 . S
N1032 C1035 1.313 . S
C1033 C1034 1.338 . S
C1033 N1036 1.377 . S
C1033 H1053 0.930 . S
C1034 N1032 1.375 . S
C1034 C1033 1.338 . S
C1034 H1038 0.931 . S
C1035 N1032 1.313 . S
C1035 N1036 1.344 . S
C1035 H1039 0.930 . S
N1036 C1033 1.377 . S
N1036 C1035 1.344 . S
O1037 Co1029 2.055 . S
O1037 C1041 1.253 . S
H1038 C1034 0.931 . S
H1039 C1035 0.930 . S
O1040 Co1029 2.039 . S
O1040 C1030 1.265 . S
C1041 O1037 1.253 . S
C1041 O1042 1.227 . S
O1042 C1041 1.227 . S
N1043 Co1029 2.140 . S
N1043 C1046 1.346 . S
N1043 C1047 1.345 . S
C1044 C1045 1.387 . S
C1044 C1048 1.391 . S
C1045 C1044 1.387 . S
C1045 C1046 1.369 . S
C1045 H1054 0.929 . S
C1046 N1043 1.346 . S
C1046 C1045 1.369 . S
C1046 H1049 0.928 . S
C1047 N1043 1.345 . S
C1047 C1048 1.371 . S
C1047 H1050 0.931 . S
C1048 C1044 1.391 . S
C1048 C1047 1.371 . S
C1048 H1055 0.930 . S
H1049 C1046 0.928 . S
H1050 C1047 0.931 . S
H1051 C1027 0.930 . S
H1052 C1024 0.930 . S
H1053 C1033 0.930 . S
H1054 C1045 0.929 . S
H1055 C1048 0.930 . S
H1056 C1064 0.950 . S
H1057 C1069 0.950 . S
H1058 C1066 0.950 . S
H1059 C1068 0.950 . S
H1060 C1070 0.950 . S
H1061 C1072 0.950 . S
H1062 C1074 0.950 . S
H1063 C1075 0.950 . S
C1064 H1056 0.950 . S
C1064 C1065 1.386 . S
C1064 C1066 1.391 . S
C1065 C1064 1.386 . S
C1065 C1069 1.393 . S
C1066 H1058 0.950 . S
C1066 C1064 1.391 . S
C1066 C1067 1.400 . S
C1067 C1066 1.400 . S
C1067 C1068 1.398 . S
C1067 C1073 1.491 . S
C1068 H1059 0.950 . S
C1068 C1067 1.398 . S
C1068 C1069 1.391 . S
C1069 H1057 0.950 . S
C1069 C1065 1.393 . S
C1069 C1068 1.391 . S
C1070 H1060 0.950 . S
C1070 C1071 1.386 . S
C1070 C1072 1.391 . S
C1071 C1070 1.386 . S
C1071 C1075 1.393 . S
C1072 H1061 0.950 . S
C1072 C1070 1.391 . S
C1072 C1073 1.400 . S
C1073 C1067 1.491 . S
C1073 C1072 1.400 . S
C1073 C1074 1.398 . S
C1074 H1062 0.950 . S
C1074 C1073 1.398 . S
C1074 C1075 1.391 . S
C1075 H1063 0.950 . S
C1075 C1071 1.393 . S
C1075 C1074 1.391 . S
H1076 C1084 0.950 . S
H1077 C1089 0.950 . S
H1078 C1086 0.949 1_455 S
H1079 C1088 0.950 . S
H1080 C1090 0.950 . S
H1081 C1092 0.949 1_655 S
H1082 C1094 0.950 . S
H1083 C1095 0.950 . S
C1084 H1076 0.950 . S
C1084 C1085 1.386 . S
C1084 C1086 1.392 . S
C1085 C1084 1.386 . S
C1085 C1089 1.393 . S
C1086 H1078 0.949 1_655 S
C1086 C1084 1.392 . S
C1086 C1087 1.400 . S
C1087 C1086 1.400 . S
C1087 C1088 1.400 . S
C1087 C1093 1.489 1_655 S
C1088 H1079 0.950 . S
C1088 C1087 1.400 . S
C1088 C1089 1.391 . S
C1089 H1077 0.950 . S
C1089 C1085 1.393 . S
C1089 C1088 1.391 . S
C1090 H1080 0.950 . S
C1090 C1091 1.386 . S
C1090 C1092 1.392 . S
C1091 C1090 1.386 . S
C1091 C1095 1.393 . S
C1092 H1081 0.949 1_455 S
C1092 C1090 1.392 . S
C1092 C1093 1.400 . S
C1093 C1087 1.489 1_455 S
C1093 C1092 1.400 . S
C1093 C1094 1.400 . S
C1094 H1082 0.950 . S
C1094 C1093 1.400 . S
C1094 C1095 1.391 . S
C1095 H1083 0.950 . S
C1095 C1091 1.393 . S
C1095 C1094 1.391 . S
H1096 C1104 0.950 . S
H1097 C1109 0.950 . S
H1098 C1106 0.950 . S
H1099 C1108 0.950 . S
H1100 C1110 0.950 . S
H1101 C1112 0.950 . S
H1102 C1114 0.950 . S
H1103 C1115 0.950 . S
C1104 H1096 0.950 . S
C1104 C1105 1.386 . S
C1104 C1106 1.391 . S
C1105 C1104 1.386 . S
C1105 C1109 1.393 . S
C1106 H1098 0.950 . S
C1106 C1104 1.391 . S
C1106 C1107 1.400 . S
C1107 C1106 1.400 . S
C1107 C1108 1.398 . S
C1107 C1113 1.491 1_455 S
C1108 H1099 0.950 . S
C1108 C1107 1.398 . S
C1108 C1109 1.391 . S
C1109 H1097 0.950 . S
C1109 C1105 1.393 . S
C1109 C1108 1.391 . S
C1110 H1100 0.950 . S
C1110 C1111 1.386 . S
C1110 C1112 1.391 . S
C1111 C1110 1.386 . S
C1111 C1115 1.393 . S
C1112 H1101 0.950 . S
C1112 C1110 1.391 . S
C1112 C1113 1.400 . S
C1113 C1107 1.491 1_655 S
C1113 C1112 1.400 . S
C1113 C1114 1.398 . S
C1114 H1102 0.950 . S
C1114 C1113 1.398 . S
C1114 C1115 1.391 . S
C1115 H1103 0.950 . S
C1115 C1111 1.393 . S
C1115 C1114 1.391 . S
H1116 C1124 0.950 . S
H1117 C1129 0.950 . S
H1118 C1126 0.950 . S
H1119 C1128 0.950 . S
H1120 C1130 0.950 . S
H1121 C1132 0.950 . S
H1122 C1134 0.950 . S
H1123 C1135 0.950 . S
C1124 H1116 0.950 . S
C1124 C1125 1.386 . S
C1124 C1126 1.391 . S
C1125 C1124 1.386 . S
C1125 C1129 1.393 . S
C1126 H1118 0.950 . S
C1126 C1124 1.391 . S
C1126 C1127 1.400 . S
C1127 C1126 1.400 . S
C1127 C1128 1.398 . S
C1127 C1133 1.491 . S
C1128 H1119 0.950 . S
C1128 C1127 1.398 . S
C1128 C1129 1.391 . S
C1129 H1117 0.950 . S
C1129 C1125 1.393 . S
C1129 C1128 1.391 . S
C1130 H1120 0.950 . S
C1130 C1131 1.386 . S
C1130 C1132 1.391 . S
C1131 C1130 1.386 . S
C1131 C1135 1.393 . S
C1132 H1121 0.950 . S
C1132 C1130 1.391 . S
C1132 C1133 1.400 . S
C1133 C1127 1.491 . S
C1133 C1132 1.400 . S
C1133 C1134 1.398 . S
C1134 H1122 0.950 . S
C1134 C1133 1.398 . S
C1134 C1135 1.391 . S
C1135 H1123 0.950 . S
C1135 C1131 1.393 . S
C1135 C1134 1.391 . S
H1136 C1144 0.950 . S
H1137 C1149 0.950 . S
H1138 C1146 0.950 . S
H1139 C1148 0.950 . S
H1140 C1150 0.950 . S
H1141 C1152 0.950 . S
H1142 C1154 0.950 . S
H1143 C1155 0.950 . S
C1144 H1136 0.950 . S
C1144 C1145 1.386 . S
C1144 C1146 1.391 . S
C1145 C1144 1.386 . S
C1145 C1149 1.393 . S
C1146 H1138 0.950 . S
C1146 C1144 1.391 . S
C1146 C1147 1.400 . S
C1147 C1146 1.400 . S
C1147 C1148 1.398 . S
C1147 C1153 1.491 . S
C1148 H1139 0.950 . S
C1148 C1147 1.398 . S
C1148 C1149 1.391 . S
C1149 H1137 0.950 . S
C1149 C1145 1.393 . S
C1149 C1148 1.391 . S
C1150 H1140 0.950 . S
C1150 C1151 1.386 . S
C1150 C1152 1.391 . S
C1151 C1150 1.386 . S
C1151 C1155 1.393 . S
C1152 H1141 0.950 . S
C1152 C1150 1.391 . S
C1152 C1153 1.400 . S
C1153 C1147 1.491 . S
C1153 C1152 1.400 . S
C1153 C1154 1.398 . S
C1154 H1142 0.950 . S
C1154 C1153 1.398 . S
C1154 C1155 1.391 . S
C1155 H1143 0.950 . S
C1155 C1151 1.393 . S
C1155 C1154 1.391 . S
H1156 C1164 0.950 . S
H1157 C1169 0.950 . S
H1158 C1166 0.950 . S
H1159 C1168 0.950 . S
H1160 C1170 0.950 . S
H1161 C1172 0.950 . S
H1162 C1174 0.950 . S
H1163 C1175 0.950 . S
C1164 H1156 0.950 . S
C1164 C1165 1.386 . S
C1164 C1166 1.391 . S
C1165 C1164 1.386 . S
C1165 C1169 1.393 . S
C1166 H1158 0.950 . S
C1166 C1164 1.391 . S
C1166 C1167 1.400 . S
C1167 C1166 1.400 . S
C1167 C1168 1.398 . S
C1167 C1173 1.491 . S
C1168 H1159 0.950 . S
C1168 C1167 1.398 . S
C1168 C1169 1.391 . S
C1169 H1157 0.950 . S
C1169 C1165 1.393 . S
C1169 C1168 1.391 . S
C1170 H1160 0.950 . S
C1170 C1171 1.386 . S
C1170 C1172 1.391 . S
C1171 C1170 1.386 . S
C1171 C1175 1.393 . S
C1172 H1161 0.950 . S
C1172 C1170 1.391 . S
C1172 C1173 1.400 . S
C1173 C1167 1.491 . S
C1173 C1172 1.400 . S
C1173 C1174 1.398 . S
C1174 H1162 0.950 . S
C1174 C1173 1.398 . S
C1174 C1175 1.391 . S
C1175 H1163 0.950 . S
C1175 C1171 1.393 . S
C1175 C1174 1.391 . S
H1176 C1184 0.950 . S
H1177 C1189 0.950 . S
H1178 C1186 0.950 . S
H1179 C1188 0.950 . S
H1180 C1190 0.950 . S
H1181 C1192 0.950 . S
H1182 C1194 0.950 . S
H1183 C1195 0.950 . S
C1184 H1176 0.950 . S
C1184 C1185 1.386 . S
C1184 C1186 1.391 . S
C1185 C1184 1.386 . S
C1185 C1189 1.393 . S
C1186 H1178 0.950 . S
C1186 C1184 1.391 . S
C1186 C1187 1.400 . S
C1187 C1186 1.400 . S
C1187 C1188 1.398 . S
C1187 C1193 1.491 1_455 S
C1188 H1179 0.950 . S
C1188 C1187 1.398 . S
C1188 C1189 1.391 . S
C1189 H1177 0.950 . S
C1189 C1185 1.393 . S
C1189 C1188 1.391 . S
C1190 H1180 0.950 . S
C1190 C1191 1.386 . S
C1190 C1192 1.391 . S
C1191 C1190 1.386 . S
C1191 C1195 1.393 . S
C1192 H1181 0.950 . S
C1192 C1190 1.391 . S
C1192 C1193 1.400 . S
C1193 C1187 1.491 1_655 S
C1193 C1192 1.400 . S
C1193 C1194 1.398 . S
C1194 H1182 0.950 . S
C1194 C1193 1.398 . S
C1194 C1195 1.391 . S
C1195 H1183 0.950 . S
C1195 C1191 1.393 . S
C1195 C1194 1.391 . S
H1196 C1204 0.950 . S
H1197 C1209 0.950 . S
H1198 C1206 0.950 . S
H1199 C1208 0.950 . S
H1200 C1210 0.950 . S
H1201 C1212 0.950 . S
H1202 C1214 0.950 . S
H1203 C1215 0.950 . S
C1204 H1196 0.950 . S
C1204 C1205 1.385 . S
C1204 C1206 1.391 . S
C1205 C1204 1.385 . S
C1205 C1209 1.393 1_455 S
C1206 H1198 0.950 . S
C1206 C1204 1.391 . S
C1206 C1207 1.404 . S
C1207 C1206 1.404 . S
C1207 C1208 1.394 1_455 S
C1207 C1213 1.490 1_455 S
C1208 H1199 0.950 . S
C1208 C1207 1.394 1_655 S
C1208 C1209 1.391 . S
C1209 H1197 0.950 . S
C1209 C1205 1.393 1_655 S
C1209 C1208 1.391 . S
C1210 H1200 0.950 . S
C1210 C1211 1.385 . S
C1210 C1212 1.391 . S
C1211 C1210 1.385 . S
C1211 C1215 1.393 1_655 S
C1212 H1201 0.950 . S
C1212 C1210 1.391 . S
C1212 C1213 1.404 . S
C1213 C1207 1.490 1_655 S
C1213 C1212 1.404 . S
C1213 C1214 1.395 1_655 S
C1214 H1202 0.950 . S
C1214 C1213 1.395 1_455 S
C1214 C1215 1.391 . S
C1215 H1203 0.950 . S
C1215 C1211 1.393 1_455 S
C1215 C1214 1.391 . S
H1216 C1224 0.950 . S
H1217 C1229 0.950 . S
H1218 C1226 0.950 . S
H1219 C1228 0.950 . S
H1220 C1230 0.950 . S
H1221 C1232 0.950 . S
H1222 C1234 0.950 . S
H1223 C1235 0.950 . S
C1224 H1216 0.950 . S
C1224 C1225 1.386 . S
C1224 C1226 1.391 . S
C1225 C1224 1.386 . S
C1225 C1229 1.393 . S
C1226 H1218 0.950 . S
C1226 C1224 1.391 . S
C1226 C1227 1.400 . S
C1227 C1226 1.400 . S
C1227 C1228 1.398 . S
C1227 C1233 1.491 . S
C1228 H1219 0.950 . S
C1228 C1227 1.398 . S
C1228 C1229 1.391 . S
C1229 H1217 0.950 . S
C1229 C1225 1.393 . S
C1229 C1228 1.391 . S
C1230 H1220 0.950 . S
C1230 C1231 1.386 . S
C1230 C1232 1.391 . S
C1231 C1230 1.386 . S
C1231 C1235 1.393 . S
C1232 H1221 0.950 . S
C1232 C1230 1.391 . S
C1232 C1233 1.400 . S
C1233 C1227 1.491 . S
C1233 C1232 1.400 . S
C1233 C1234 1.398 . S
C1234 H1222 0.950 . S
C1234 C1233 1.398 . S
C1234 C1235 1.391 . S
C1235 H1223 0.950 . S
C1235 C1231 1.393 . S
C1235 C1234 1.391 . S
H1236 C1244 0.950 . S
H1237 C1249 0.950 . S
H1238 C1246 0.950 . S
H1239 C1248 0.950 . S
H1240 C1250 0.950 . S
H1241 C1252 0.950 . S
H1242 C1254 0.950 . S
H1243 C1255 0.950 . S
C1244 H1236 0.950 . S
C1244 C1245 1.386 1_455 S
C1244 C1246 1.391 . S
C1245 C1244 1.386 1_655 S
C1245 C1249 1.393 . S
C1246 H1238 0.950 . S
C1246 C1244 1.391 . S
C1246 C1247 1.387 1_455 S
C1247 C1246 1.387 1_655 S
C1247 C1248 1.412 . S
C1247 C1253 1.490 1_655 S
C1248 H1239 0.950 . S
C1248 C1247 1.412 . S
C1248 C1249 1.391 . S
C1249 H1237 0.950 . S
C1249 C1245 1.393 . S
C1249 C1248 1.391 . S
C1250 H1240 0.950 . S
C1250 C1251 1.386 1_655 S
C1250 C1252 1.391 . S
C1251 C1250 1.386 1_455 S
C1251 C1255 1.393 . S
C1252 H1241 0.950 . S
C1252 C1250 1.391 . S
C1252 C1253 1.387 1_655 S
C1253 C1247 1.490 1_455 S
C1253 C1252 1.387 1_455 S
C1253 C1254 1.412 . S
C1254 H1242 0.950 . S
C1254 C1253 1.412 . S
C1254 C1255 1.391 . S
C1255 H1243 0.950 . S
C1255 C1251 1.393 . S
C1255 C1254 1.391 . S
H1256 C1264 0.950 . S
H1257 C1269 0.950 . S
H1258 C1266 0.950 . S
H1259 C1268 0.950 . S
H1260 C1270 0.950 . S
H1261 C1272 0.950 . S
H1262 C1274 0.950 . S
H1263 C1275 0.950 . S
C1264 H1256 0.950 . S
C1264 C1265 1.386 . S
C1264 C1266 1.391 . S
C1265 C1264 1.386 . S
C1265 C1269 1.393 . S
C1266 H1258 0.950 . S
C1266 C1264 1.391 . S
C1266 C1267 1.400 . S
C1267 C1266 1.400 . S
C1267 C1268 1.398 . S
C1267 C1273 1.491 1_655 S
C1268 H1259 0.950 . S
C1268 C1267 1.398 . S
C1268 C1269 1.391 . S
C1269 H1257 0.950 . S
C1269 C1265 1.393 . S
C1269 C1268 1.391 . S
C1270 H1260 0.950 . S
C1270 C1271 1.386 . S
C1270 C1272 1.391 . S
C1271 C1270 1.386 . S
C1271 C1275 1.393 . S
C1272 H1261 0.950 . S
C1272 C1270 1.391 . S
C1272 C1273 1.400 . S
C1273 C1267 1.491 1_455 S
C1273 C1272 1.400 . S
C1273 C1274 1.398 . S
C1274 H1262 0.950 . S
C1274 C1273 1.398 . S
C1274 C1275 1.391 . S
C1275 H1263 0.950 . S
C1275 C1271 1.393 . S
C1275 C1274 1.391 . S
H1276 C1284 0.950 . S
H1277 C1289 0.950 . S
H1278 C1286 0.950 . S
H1279 C1288 0.950 . S
H1280 C1290 0.950 . S
H1281 C1292 0.950 . S
H1282 C1294 0.950 . S
H1283 C1295 0.950 . S
C1284 H1276 0.950 . S
C1284 C1285 1.386 . S
C1284 C1286 1.391 . S
C1285 C1284 1.386 . S
C1285 C1289 1.393 . S
C1286 H1278 0.950 . S
C1286 C1284 1.391 . S
C1286 C1287 1.400 . S
C1287 C1286 1.400 . S
C1287 C1288 1.398 . S
C1287 C1293 1.491 . S
C1288 H1279 0.950 . S
C1288 C1287 1.398 . S
C1288 C1289 1.391 . S
C1289 H1277 0.950 . S
C1289 C1285 1.393 . S
C1289 C1288 1.391 . S
C1290 H1280 0.950 . S
C1290 C1291 1.386 . S
C1290 C1292 1.391 . S
C1291 C1290 1.386 . S
C1291 C1295 1.393 . S
C1292 H1281 0.950 . S
C1292 C1290 1.391 . S
C1292 C1293 1.400 . S
C1293 C1287 1.491 . S
C1293 C1292 1.400 . S
C1293 C1294 1.398 . S
C1294 H1282 0.950 . S
C1294 C1293 1.398 . S
C1294 C1295 1.391 . S
C1295 H1283 0.950 . S
C1295 C1291 1.393 . S
C1295 C1294 1.391 . S
H1296 C1304 0.950 . S
H1297 C1309 0.950 . S
H1298 C1306 0.950 . S
H1299 C1308 0.950 . S
H1300 C1310 0.950 . S
H1301 C1312 0.950 . S
H1302 C1314 0.950 . S
H1303 C1315 0.950 . S
C1304 H1296 0.950 . S
C1304 C1305 1.386 . S
C1304 C1306 1.391 . S
C1305 C1304 1.386 . S
C1305 C1309 1.393 . S
C1306 H1298 0.950 . S
C1306 C1304 1.391 . S
C1306 C1307 1.400 . S
C1307 C1306 1.400 . S
C1307 C1308 1.398 . S
C1307 C1313 1.491 . S
C1308 H1299 0.950 . S
C1308 C1307 1.398 . S
C1308 C1309 1.391 . S
C1309 H1297 0.950 . S
C1309 C1305 1.393 . S
C1309 C1308 1.391 . S
C1310 H1300 0.950 . S
C1310 C1311 1.386 . S
C1310 C1312 1.391 . S
C1311 C1310 1.386 . S
C1311 C1315 1.393 . S
C1312 H1301 0.950 . S
C1312 C1310 1.391 . S
C1312 C1313 1.400 . S
C1313 C1307 1.491 . S
C1313 C1312 1.400 . S
C1313 C1314 1.398 . S
C1314 H1302 0.950 . S
C1314 C1313 1.398 . S
C1314 C1315 1.391 . S
C1315 H1303 0.950 . S
C1315 C1311 1.393 . S
C1315 C1314 1.391 . S
H1316 C1324 0.950 . S
H1317 C1329 0.950 . S
H1318 C1326 0.950 . S
H1319 C1328 0.950 . S
H1320 C1330 0.950 . S
H1321 C1332 0.950 . S
H1322 C1334 0.950 . S
H1323 C1335 0.950 . S
C1324 H1316 0.950 . S
C1324 C1325 1.386 . S
C1324 C1326 1.391 . S
C1325 C1324 1.386 . S
C1325 C1329 1.393 . S
C1326 H1318 0.950 . S
C1326 C1324 1.391 . S
C1326 C1327 1.400 . S
C1327 C1326 1.400 . S
C1327 C1328 1.398 . S
C1327 C1333 1.491 . S
C1328 H1319 0.950 . S
C1328 C1327 1.398 . S
C1328 C1329 1.391 . S
C1329 H1317 0.950 . S
C1329 C1325 1.393 . S
C1329 C1328 1.391 . S
C1330 H1320 0.950 . S
C1330 C1331 1.386 . S
C1330 C1332 1.391 . S
C1331 C1330 1.386 . S
C1331 C1335 1.393 . S
C1332 H1321 0.950 . S
C1332 C1330 1.391 . S
C1332 C1333 1.400 . S
C1333 C1327 1.491 . S
C1333 C1332 1.400 . S
C1333 C1334 1.398 . S
C1334 H1322 0.950 . S
C1334 C1333 1.398 . S
C1334 C1335 1.391 . S
C1335 H1323 0.950 . S
C1335 C1331 1.393 . S
C1335 C1334 1.391 . S
H1336 C1344 0.950 . S
H1337 C1349 0.950 . S
H1338 C1346 0.950 . S
H1339 C1348 0.950 . S
H1340 C1350 0.950 . S
H1341 C1352 0.950 . S
H1342 C1354 0.950 . S
H1343 C1355 0.950 . S
C1344 H1336 0.950 . S
C1344 C1345 1.386 . S
C1344 C1346 1.391 . S
C1345 C1344 1.386 . S
C1345 C1349 1.393 . S
C1346 H1338 0.950 . S
C1346 C1344 1.391 . S
C1346 C1347 1.400 . S
C1347 C1346 1.400 . S
C1347 C1348 1.398 . S
C1347 C1353 1.491 1_455 S
C1348 H1339 0.950 . S
C1348 C1347 1.398 . S
C1348 C1349 1.391 . S
C1349 H1337 0.950 . S
C1349 C1345 1.393 . S
C1349 C1348 1.391 . S
C1350 H1340 0.950 . S
C1350 C1351 1.386 . S
C1350 C1352 1.391 . S
C1351 C1350 1.386 . S
C1351 C1355 1.393 . S
C1352 H1341 0.950 . S
C1352 C1350 1.391 . S
C1352 C1353 1.400 . S
C1353 C1347 1.491 1_655 S
C1353 C1352 1.400 . S
C1353 C1354 1.398 . S
C1354 H1342 0.950 . S
C1354 C1353 1.398 . S
C1354 C1355 1.391 . S
C1355 H1343 0.950 . S
C1355 C1351 1.393 . S
C1355 C1354 1.391 . S
H1356 C1364 0.950 . S
H1357 C1369 0.950 . S
H1358 C1366 0.950 . S
H1359 C1368 0.950 . S
H1360 C1370 0.950 . S
H1361 C1372 0.950 . S
H1362 C1374 0.950 . S
H1363 C1375 0.950 . S
C1364 H1356 0.950 . S
C1364 C1365 1.386 . S
C1364 C1366 1.391 . S
C1365 C1364 1.386 . S
C1365 C1369 1.393 1_655 S
C1366 H1358 0.950 . S
C1366 C1364 1.391 . S
C1366 C1367 1.408 . S
C1367 C1366 1.408 . S
C1367 C1368 1.393 1_655 S
C1367 C1373 1.489 1_655 S
C1368 H1359 0.950 . S
C1368 C1367 1.393 1_455 S
C1368 C1369 1.391 . S
C1369 H1357 0.950 . S
C1369 C1365 1.393 1_455 S
C1369 C1368 1.391 . S
C1370 H1360 0.950 . S
C1370 C1371 1.386 . S
C1370 C1372 1.391 . S
C1371 C1370 1.386 . S
C1371 C1375 1.393 1_455 S
C1372 H1361 0.950 . S
C1372 C1370 1.391 . S
C1372 C1373 1.407 . S
C1373 C1367 1.489 1_455 S
C1373 C1372 1.407 . S
C1373 C1374 1.393 1_455 S
C1374 H1362 0.950 . S
C1374 C1373 1.393 1_655 S
C1374 C1375 1.391 . S
C1375 H1363 0.950 . S
C1375 C1371 1.393 1_655 S
C1375 C1374 1.391 . S
H1376 C1384 0.950 . S
H1377 C1389 0.950 . S
H1378 C1386 0.950 . S
H1379 C1388 0.950 . S
H1380 C1390 0.950 . S
H1381 C1392 0.950 . S
H1382 C1394 0.950 . S
H1383 C1395 0.950 . S
C1384 H1376 0.950 . S
C1384 C1385 1.386 . S
C1384 C1386 1.391 . S
C1385 C1384 1.386 . S
C1385 C1389 1.393 . S
C1386 H1378 0.950 . S
C1386 C1384 1.391 . S
C1386 C1387 1.400 . S
C1387 C1386 1.400 . S
C1387 C1388 1.398 . S
C1387 C1393 1.491 . S
C1388 H1379 0.950 . S
C1388 C1387 1.398 . S
C1388 C1389 1.391 . S
C1389 H1377 0.950 . S
C1389 C1385 1.393 . S
C1389 C1388 1.391 . S
C1390 H1380 0.950 . S
C1390 C1391 1.386 . S
C1390 C1392 1.391 . S
C1391 C1390 1.386 . S
C1391 C1395 1.393 . S
C1392 H1381 0.950 . S
C1392 C1390 1.391 . S
C1392 C1393 1.400 . S
C1393 C1387 1.491 . S
C1393 C1392 1.400 . S
C1393 C1394 1.398 . S
C1394 H1382 0.950 . S
C1394 C1393 1.398 . S
C1394 C1395 1.391 . S
C1395 H1383 0.950 . S
C1395 C1391 1.393 . S
C1395 C1394 1.391 . S
H1396 C1404 0.950 . S
H1397 C1409 0.950 . S
H1398 C1406 0.950 . S
H1399 C1408 0.950 . S
H1400 C1410 0.950 . S
H1401 C1412 0.950 . S
H1402 C1414 0.950 . S
H1403 C1415 0.950 . S
C1404 H1396 0.950 . S
C1404 C1405 1.386 . S
C1404 C1406 1.391 . S
C1405 C1404 1.386 . S
C1405 C1409 1.393 . S
C1406 H1398 0.950 . S
C1406 C1404 1.391 . S
C1406 C1407 1.400 . S
C1407 C1406 1.400 . S
C1407 C1408 1.398 . S
C1407 C1413 1.491 . S
C1408 H1399 0.950 . S
C1408 C1407 1.398 . S
C1408 C1409 1.391 . S
C1409 H1397 0.950 . S
C1409 C1405 1.393 . S
C1409 C1408 1.391 . S
C1410 H1400 0.950 . S
C1410 C1411 1.386 . S
C1410 C1412 1.391 . S
C1411 C1410 1.386 . S
C1411 C1415 1.393 . S
C1412 H1401 0.950 . S
C1412 C1410 1.391 . S
C1412 C1413 1.400 . S
C1413 C1407 1.491 . S
C1413 C1412 1.400 . S
C1413 C1414 1.398 . S
C1414 H1402 0.950 . S
C1414 C1413 1.398 . S
C1414 C1415 1.391 . S
C1415 H1403 0.950 . S
C1415 C1411 1.393 . S
C1415 C1414 1.391 . S
H1416 C1424 0.950 . S
H1417 C1429 0.950 . S
H1418 C1426 0.950 . S
H1419 C1428 0.950 . S
H1420 C1430 0.950 . S
H1421 C1432 0.950 . S
H1422 C1434 0.950 . S
H1423 C1435 0.950 . S
C1424 H1416 0.950 . S
C1424 C1425 1.386 . S
C1424 C1426 1.391 . S
C1425 C1424 1.386 . S
C1425 C1429 1.393 . S
C1426 H1418 0.950 . S
C1426 C1424 1.391 . S
C1426 C1427 1.400 . S
C1427 C1426 1.400 . S
C1427 C1428 1.398 . S
C1427 C1433 1.491 . S
C1428 H1419 0.950 . S
C1428 C1427 1.398 . S
C1428 C1429 1.391 . S
C1429 H1417 0.950 . S
C1429 C1425 1.393 . S
C1429 C1428 1.391 . S
C1430 H1420 0.950 . S
C1430 C1431 1.386 . S
C1430 C1432 1.391 . S
C1431 C1430 1.386 . S
C1431 C1435 1.393 . S
C1432 H1421 0.950 . S
C1432 C1430 1.391 . S
C1432 C1433 1.400 . S
C1433 C1427 1.491 . S
C1433 C1432 1.400 . S
C1433 C1434 1.398 . S
C1434 H1422 0.950 . S
C1434 C1433 1.398 . S
C1434 C1435 1.391 . S
C1435 H1423 0.950 . S
C1435 C1431 1.393 . S
C1435 C1434 1.391 . S
H1436 C1444 0.950 . S
H1437 C1449 0.950 . S
H1438 C1446 0.950 . S
H1439 C1448 0.950 . S
H1440 C1450 0.950 . S
H1441 C1452 0.950 . S
H1442 C1454 0.950 . S
H1443 C1455 0.950 . S
C1444 H1436 0.950 . S
C1444 C1445 1.386 . S
C1444 C1446 1.391 . S
C1445 C1444 1.386 . S
C1445 C1449 1.393 . S
C1446 H1438 0.950 . S
C1446 C1444 1.391 . S
C1446 C1447 1.400 . S
C1447 C1446 1.400 . S
C1447 C1448 1.398 . S
C1447 C1453 1.491 . S
C1448 H1439 0.950 . S
C1448 C1447 1.398 . S
C1448 C1449 1.391 . S
C1449 H1437 0.950 . S
C1449 C1445 1.393 . S
C1449 C1448 1.391 . S
C1450 H1440 0.950 . S
C1450 C1451 1.386 . S
C1450 C1452 1.391 . S
C1451 C1450 1.386 . S
C1451 C1455 1.393 . S
C1452 H1441 0.950 . S
C1452 C1450 1.391 . S
C1452 C1453 1.400 . S
C1453 C1447 1.491 . S
C1453 C1452 1.400 . S
C1453 C1454 1.398 . S
C1454 H1442 0.950 . S
C1454 C1453 1.398 . S
C1454 C1455 1.391 . S
C1455 H1443 0.950 . S
C1455 C1451 1.393 . S
C1455 C1454 1.391 . S
H1456 C1464 0.950 . S
H1457 C1469 0.950 . S
H1458 C1466 0.950 . S
H1459 C1468 0.950 . S
H1460 C1470 0.950 . S
H1461 C1472 0.950 . S
H1462 C1474 0.950 . S
H1463 C1475 0.950 . S
C1464 H1456 0.950 . S
C1464 C1465 1.386 . S
C1464 C1466 1.391 . S
C1465 C1464 1.386 . S
C1465 C1469 1.393 . S
C1466 H1458 0.950 . S
C1466 C1464 1.391 . S
C1466 C1467 1.400 . S
C1467 C1466 1.400 . S
C1467 C1468 1.398 . S
C1467 C1473 1.491 . S
C1468 H1459 0.950 . S
C1468 C1467 1.398 . S
C1468 C1469 1.391 . S
C1469 H1457 0.950 . S
C1469 C1465 1.393 . S
C1469 C1468 1.391 . S
C1470 H1460 0.950 . S
C1470 C1471 1.386 . S
C1470 C1472 1.391 . S
C1471 C1470 1.386 . S
C1471 C1475 1.393 . S
C1472 H1461 0.950 . S
C1472 C1470 1.391 . S
C1472 C1473 1.400 . S
C1473 C1467 1.491 . S
C1473 C1472 1.400 . S
C1473 C1474 1.398 . S
C1474 H1462 0.950 . S
C1474 C1473 1.398 . S
C1474 C1475 1.391 . S
C1475 H1463 0.950 . S
C1475 C1471 1.393 . S
C1475 C1474 1.391 . S
H1476 C1484 0.950 . S
H1477 C1489 0.950 . S
H1478 C1486 0.950 . S
H1479 C1488 0.950 . S
H1480 C1490 0.950 . S
H1481 C1492 0.950 . S
H1482 C1494 0.950 . S
H1483 C1495 0.950 . S
C1484 H1476 0.950 . S
C1484 C1485 1.386 . S
C1484 C1486 1.391 . S
C1485 C1484 1.386 . S
C1485 C1489 1.393 . S
C1486 H1478 0.950 . S
C1486 C1484 1.391 . S
C1486 C1487 1.400 . S
C1487 C1486 1.400 . S
C1487 C1488 1.398 . S
C1487 C1493 1.491 . S
C1488 H1479 0.950 . S
C1488 C1487 1.398 . S
C1488 C1489 1.391 . S
C1489 H1477 0.950 . S
C1489 C1485 1.393 . S
C1489 C1488 1.391 . S
C1490 H1480 0.950 . S
C1490 C1491 1.386 . S
C1490 C1492 1.391 . S
C1491 C1490 1.386 . S
C1491 C1495 1.393 . S
C1492 H1481 0.950 . S
C1492 C1490 1.391 . S
C1492 C1493 1.400 . S
C1493 C1487 1.491 . S
C1493 C1492 1.400 . S
C1493 C1494 1.398 . S
C1494 H1482 0.950 . S
C1494 C1493 1.398 . S
C1494 C1495 1.391 . S
C1495 H1483 0.950 . S
C1495 C1491 1.393 . S
C1495 C1494 1.391 . S
H1496 C1504 0.950 . S
H1497 C1509 0.950 . S
H1498 C1506 0.950 . S
H1499 C1508 0.950 . S
H1500 C1510 0.950 . S
H1501 C1512 0.950 . S
H1502 C1514 0.950 . S
H1503 C1515 0.950 . S
C1504 H1496 0.950 . S
C1504 C1505 1.386 . S
C1504 C1506 1.391 . S
C1505 C1504 1.386 . S
C1505 C1509 1.393 . S
C1506 H1498 0.950 . S
C1506 C1504 1.391 . S
C1506 C1507 1.400 . S
C1507 C1506 1.400 . S
C1507 C1508 1.398 . S
C1507 C1513 1.491 . S
C1508 H1499 0.950 . S
C1508 C1507 1.398 . S
C1508 C1509 1.391 . S
C1509 H1497 0.950 . S
C1509 C1505 1.393 . S
C1509 C1508 1.391 . S
C1510 H1500 0.950 . S
C1510 C1511 1.386 . S
C1510 C1512 1.391 . S
C1511 C1510 1.386 . S
C1511 C1515 1.393 . S
C1512 H1501 0.950 . S
C1512 C1510 1.391 . S
C1512 C1513 1.400 . S
C1513 C1507 1.491 . S
C1513 C1512 1.400 . S
C1513 C1514 1.398 . S
C1514 H1502 0.950 . S
C1514 C1513 1.398 . S
C1514 C1515 1.391 . S
C1515 H1503 0.950 . S
C1515 C1511 1.393 . S
C1515 C1514 1.391 . S
H1516 C1524 0.950 . S
H1517 C1529 0.950 . S
H1518 C1526 0.950 . S
H1519 C1528 0.950 . S
H1520 C1530 0.950 . S
H1521 C1532 0.950 . S
H1522 C1534 0.950 . S
H1523 C1535 0.950 . S
C1524 H1516 0.950 . S
C1524 C1525 1.386 . S
C1524 C1526 1.391 . S
C1525 C1524 1.386 . S
C1525 C1529 1.393 . S
C1526 H1518 0.950 . S
C1526 C1524 1.391 . S
C1526 C1527 1.400 . S
C1527 C1526 1.400 . S
C1527 C1528 1.398 . S
C1527 C1533 1.491 . S
C1528 H1519 0.950 . S
C1528 C1527 1.398 . S
C1528 C1529 1.391 . S
C1529 H1517 0.950 . S
C1529 C1525 1.393 . S
C1529 C1528 1.391 . S
C1530 H1520 0.950 . S
C1530 C1531 1.386 . S
C1530 C1532 1.391 . S
C1531 C1530 1.386 . S
C1531 C1535 1.393 . S
C1532 H1521 0.950 . S
C1532 C1530 1.391 . S
C1532 C1533 1.400 . S
C1533 C1527 1.491 . S
C1533 C1532 1.400 . S
C1533 C1534 1.398 . S
C1534 H1522 0.950 . S
C1534 C1533 1.398 . S
C1534 C1535 1.391 . S
C1535 H1523 0.950 . S
C1535 C1531 1.393 . S
C1535 C1534 1.391 . S
H1536 C1544 0.950 . S
H1537 C1549 0.950 . S
H1538 C1546 0.950 . S
H1539 C1548 0.950 . S
H1540 C1550 0.950 . S
H1541 C1552 0.950 . S
H1542 C1554 0.950 . S
H1543 C1555 0.950 . S
C1544 H1536 0.950 . S
C1544 C1545 1.386 . S
C1544 C1546 1.391 . S
C1545 C1544 1.386 . S
C1545 C1549 1.393 . S
C1546 H1538 0.950 . S
C1546 C1544 1.391 . S
C1546 C1547 1.400 . S
C1547 C1546 1.400 . S
C1547 C1548 1.398 . S
C1547 C1553 1.491 . S
C1548 H1539 0.950 . S
C1548 C1547 1.398 . S
C1548 C1549 1.391 . S
C1549 H1537 0.950 . S
C1549 C1545 1.393 . S
C1549 C1548 1.391 . S
C1550 H1540 0.950 . S
C1550 C1551 1.386 . S
C1550 C1552 1.391 . S
C1551 C1550 1.386 . S
C1551 C1555 1.393 . S
C1552 H1541 0.950 . S
C1552 C1550 1.391 . S
C1552 C1553 1.400 . S
C1553 C1547 1.491 . S
C1553 C1552 1.400 . S
C1553 C1554 1.398 . S
C1554 H1542 0.950 . S
C1554 C1553 1.398 . S
C1554 C1555 1.391 . S
C1555 H1543 0.950 . S
C1555 C1551 1.393 . S
C1555 C1554 1.391 . S
H1556 C1564 0.950 . S
H1557 C1569 0.950 . S
H1558 C1566 0.950 . S
H1559 C1568 0.950 . S
H1560 C1570 0.950 . S
H1561 C1572 0.950 . S
H1562 C1574 0.950 . S
H1563 C1575 0.950 . S
C1564 H1556 0.950 . S
C1564 C1565 1.386 . S
C1564 C1566 1.391 . S
C1565 C1564 1.386 . S
C1565 C1569 1.393 . S
C1566 H1558 0.950 . S
C1566 C1564 1.391 . S
C1566 C1567 1.400 . S
C1567 C1566 1.400 . S
C1567 C1568 1.398 . S
C1567 C1573 1.491 . S
C1568 H1559 0.950 . S
C1568 C1567 1.398 . S
C1568 C1569 1.391 . S
C1569 H1557 0.950 . S
C1569 C1565 1.393 . S
C1569 C1568 1.391 . S
C1570 H1560 0.950 . S
C1570 C1571 1.386 . S
C1570 C1572 1.391 . S
C1571 C1570 1.386 . S
C1571 C1575 1.393 . S
C1572 H1561 0.950 . S
C1572 C1570 1.391 . S
C1572 C1573 1.400 . S
C1573 C1567 1.491 . S
C1573 C1572 1.400 . S
C1573 C1574 1.398 . S
C1574 H1562 0.950 . S
C1574 C1573 1.398 . S
C1574 C1575 1.391 . S
C1575 H1563 0.950 . S
C1575 C1571 1.393 . S
C1575 C1574 1.391 . S
H1576 C1584 0.950 . S
H1577 C1589 0.950 . S
H1578 C1586 0.950 . S
H1579 C1588 0.950 . S
H1580 C1590 0.950 . S
H1581 C1592 0.950 . S
H1582 C1594 0.950 . S
H1583 C1595 0.950 . S
C1584 H1576 0.950 . S
C1584 C1585 1.386 . S
C1584 C1586 1.391 . S
C1585 C1584 1.386 . S
C1585 C1589 1.393 . S
C1586 H1578 0.950 . S
C1586 C1584 1.391 . S
C1586 C1587 1.400 . S
C1587 C1586 1.400 . S
C1587 C1588 1.398 . S
C1587 C1593 1.491 . S
C1588 H1579 0.950 . S
C1588 C1587 1.398 . S
C1588 C1589 1.391 . S
C1589 H1577 0.950 . S
C1589 C1585 1.393 . S
C1589 C1588 1.391 . S
C1590 H1580 0.950 . S
C1590 C1591 1.386 . S
C1590 C1592 1.391 . S
C1591 C1590 1.386 . S
C1591 C1595 1.393 . S
C1592 H1581 0.950 . S
C1592 C1590 1.391 . S
C1592 C1593 1.400 . S
C1593 C1587 1.491 . S
C1593 C1592 1.400 . S
C1593 C1594 1.398 . S
C1594 H1582 0.950 . S
C1594 C1593 1.398 . S
C1594 C1595 1.391 . S
C1595 H1583 0.950 . S
C1595 C1591 1.393 . S
C1595 C1594 1.391 . S
H1596 C1604 0.950 . S
H1597 C1609 0.950 . S
H1598 C1606 0.950 . S
H1599 C1608 0.950 . S
H1600 C1610 0.950 . S
H1601 C1612 0.950 . S
H1602 C1614 0.950 . S
H1603 C1615 0.950 . S
C1604 H1596 0.950 . S
C1604 C1605 1.386 . S
C1604 C1606 1.391 . S
C1605 C1604 1.386 . S
C1605 C1609 1.393 . S
C1606 H1598 0.950 . S
C1606 C1604 1.391 . S
C1606 C1607 1.400 . S
C1607 C1606 1.400 . S
C1607 C1608 1.398 . S
C1607 C1613 1.491 . S
C1608 H1599 0.950 . S
C1608 C1607 1.398 . S
C1608 C1609 1.391 . S
C1609 H1597 0.950 . S
C1609 C1605 1.393 . S
C1609 C1608 1.391 . S
C1610 H1600 0.950 . S
C1610 C1611 1.386 . S
C1610 C1612 1.391 . S
C1611 C1610 1.386 . S
C1611 C1615 1.393 . S
C1612 H1601 0.950 . S
C1612 C1610 1.391 . S
C1612 C1613 1.400 . S
C1613 C1607 1.491 . S
C1613 C1612 1.400 . S
C1613 C1614 1.398 . S
C1614 H1602 0.950 . S
C1614 C1613 1.398 . S
C1614 C1615 1.391 . S
C1615 H1603 0.950 . S
C1615 C1611 1.393 . S
C1615 C1614 1.391 . S
H1616 C1624 0.950 . S
H1617 C1629 0.950 . S
H1618 C1626 0.950 . S
H1619 C1628 0.950 . S
H1620 C1630 0.950 . S
H1621 C1632 0.950 . S
H1622 C1634 0.950 . S
H1623 C1635 0.950 . S
C1624 H1616 0.950 . S
C1624 C1625 1.386 . S
C1624 C1626 1.391 . S
C1625 C1624 1.386 . S
C1625 C1629 1.393 . S
C1626 H1618 0.950 . S
C1626 C1624 1.391 . S
C1626 C1627 1.400 . S
C1627 C1626 1.400 . S
C1627 C1628 1.398 . S
C1627 C1633 1.491 . S
C1628 H1619 0.950 . S
C1628 C1627 1.398 . S
C1628 C1629 1.391 . S
C1629 H1617 0.950 . S
C1629 C1625 1.393 . S
C1629 C1628 1.391 . S
C1630 H1620 0.950 . S
C1630 C1631 1.386 . S
C1630 C1632 1.391 . S
C1631 C1630 1.386 . S
C1631 C1635 1.393 . S
C1632 H1621 0.950 . S
C1632 C1630 1.391 . S
C1632 C1633 1.400 . S
C1633 C1627 1.491 . S
C1633 C1632 1.400 . S
C1633 C1634 1.398 . S
C1634 H1622 0.950 . S
C1634 C1633 1.398 . S
C1634 C1635 1.391 . S
C1635 H1623 0.950 . S
C1635 C1631 1.393 . S
C1635 C1634 1.391 . S
H1636 C1644 0.950 . S
H1637 C1649 0.950 . S
H1638 C1646 0.950 . S
H1639 C1648 0.950 . S
H1640 C1650 0.950 . S
H1641 C1652 0.950 . S
H1642 C1654 0.950 . S
H1643 C1655 0.950 . S
C1644 H1636 0.950 . S
C1644 C1645 1.386 . S
C1644 C1646 1.391 . S
C1645 C1644 1.386 . S
C1645 C1649 1.393 . S
C1646 H1638 0.950 . S
C1646 C1644 1.391 . S
C1646 C1647 1.400 . S
C1647 C1646 1.400 . S
C1647 C1648 1.398 . S
C1647 C1653 1.491 . S
C1648 H1639 0.950 . S
C1648 C1647 1.398 . S
C1648 C1649 1.391 . S
C1649 H1637 0.950 . S
C1649 C1645 1.393 . S
C1649 C1648 1.391 . S
C1650 H1640 0.950 . S
C1650 C1651 1.386 . S
C1650 C1652 1.391 . S
C1651 C1650 1.386 . S
C1651 C1655 1.393 . S
C1652 H1641 0.950 . S
C1652 C1650 1.391 . S
C1652 C1653 1.400 . S
C1653 C1647 1.491 . S
C1653 C1652 1.400 . S
C1653 C1654 1.398 . S
C1654 H1642 0.950 . S
C1654 C1653 1.398 . S
C1654 C1655 1.391 . S
C1655 H1643 0.950 . S
C1655 C1651 1.393 . S
C1655 C1654 1.391 . S
H1656 C1664 0.950 . S
H1657 C1669 0.950 . S
H1658 C1666 0.950 . S
H1659 C1668 0.950 . S
H1660 C1670 0.950 . S
H1661 C1672 0.950 . S
H1662 C1674 0.950 . S
H1663 C1675 0.950 . S
C1664 H1656 0.950 . S
C1664 C1665 1.386 . S
C1664 C1666 1.391 . S
C1665 C1664 1.386 . S
C1665 C1669 1.393 . S
C1666 H1658 0.950 . S
C1666 C1664 1.391 . S
C1666 C1667 1.400 . S
C1667 C1666 1.400 . S
C1667 C1668 1.398 . S
C1667 C1673 1.491 . S
C1668 H1659 0.950 . S
C1668 C1667 1.398 . S
C1668 C1669 1.391 . S
C1669 H1657 0.950 . S
C1669 C1665 1.393 . S
C1669 C1668 1.391 . S
C1670 H1660 0.950 . S
C1670 C1671 1.386 . S
C1670 C1672 1.391 . S
C1671 C1670 1.386 . S
C1671 C1675 1.393 . S
C1672 H1661 0.950 . S
C1672 C1670 1.391 . S
C1672 C1673 1.400 . S
C1673 C1667 1.491 . S
C1673 C1672 1.400 . S
C1673 C1674 1.398 . S
C1674 H1662 0.950 . S
C1674 C1673 1.398 . S
C1674 C1675 1.391 . S
C1675 H1663 0.950 . S
C1675 C1671 1.393 . S
C1675 C1674 1.391 . S
H1676 C1684 0.950 . S
H1677 C1689 0.950 . S
H1678 C1686 0.950 . S
H1679 C1688 0.950 . S
H1680 C1690 0.950 . S
H1681 C1692 0.950 . S
H1682 C1694 0.950 . S
H1683 C1695 0.950 . S
C1684 H1676 0.950 . S
C1684 C1685 1.386 . S
C1684 C1686 1.391 . S
C1685 C1684 1.386 . S
C1685 C1689 1.393 . S
C1686 H1678 0.950 . S
C1686 C1684 1.391 . S
C1686 C1687 1.400 . S
C1687 C1686 1.400 . S
C1687 C1688 1.398 . S
C1687 C1693 1.491 . S
C1688 H1679 0.950 . S
C1688 C1687 1.398 . S
C1688 C1689 1.391 . S
C1689 H1677 0.950 . S
C1689 C1685 1.393 . S
C1689 C1688 1.391 . S
C1690 H1680 0.950 . S
C1690 C1691 1.386 . S
C1690 C1692 1.391 . S
C1691 C1690 1.386 . S
C1691 C1695 1.393 . S
C1692 H1681 0.950 . S
C1692 C1690 1.391 . S
C1692 C1693 1.400 . S
C1693 C1687 1.491 . S
C1693 C1692 1.400 . S
C1693 C1694 1.398 . S
C1694 H1682 0.950 . S
C1694 C1693 1.398 . S
C1694 C1695 1.391 . S
C1695 H1683 0.950 . S
C1695 C1691 1.393 . S
C1695 C1694 1.391 . S
H1696 C1704 0.950 . S
H1697 C1709 0.950 . S
H1698 C1706 0.950 . S
H1699 C1708 0.950 . S
H1700 C1710 0.950 . S
H1701 C1712 0.950 . S
H1702 C1714 0.950 . S
H1703 C1715 0.950 . S
C1704 H1696 0.950 . S
C1704 C1705 1.386 . S
C1704 C1706 1.391 . S
C1705 C1704 1.386 . S
C1705 C1709 1.393 . S
C1706 H1698 0.950 . S
C1706 C1704 1.391 . S
C1706 C1707 1.400 . S
C1707 C1706 1.400 . S
C1707 C1708 1.398 . S
C1707 C1713 1.491 . S
C1708 H1699 0.950 . S
C1708 C1707 1.398 . S
C1708 C1709 1.391 . S
C1709 H1697 0.950 . S
C1709 C1705 1.393 . S
C1709 C1708 1.391 . S
C1710 H1700 0.950 . S
C1710 C1711 1.386 . S
C1710 C1712 1.391 . S
C1711 C1710 1.386 . S
C1711 C1715 1.393 . S
C1712 H1701 0.950 . S
C1712 C1710 1.391 . S
C1712 C1713 1.400 . S
C1713 C1707 1.491 . S
C1713 C1712 1.400 . S
C1713 C1714 1.398 . S
C1714 H1702 0.950 . S
C1714 C1713 1.398 . S
C1714 C1715 1.391 . S
C1715 H1703 0.950 . S
C1715 C1711 1.393 . S
C1715 C1714 1.391 . S
H1716 C1724 0.950 . S
H1717 C1729 0.950 . S
H1718 C1726 0.950 . S
H1719 C1728 0.950 . S
H1720 C1730 0.950 . S
H1721 C1732 0.950 . S
H1722 C1734 0.950 . S
H1723 C1735 0.950 . S
C1724 H1716 0.950 . S
C1724 C1725 1.386 . S
C1724 C1726 1.391 . S
C1725 C1724 1.386 . S
C1725 C1729 1.393 . S
C1726 H1718 0.950 . S
C1726 C1724 1.391 . S
C1726 C1727 1.400 . S
C1727 C1726 1.400 . S
C1727 C1728 1.398 . S
C1727 C1733 1.491 . S
C1728 H1719 0.950 . S
C1728 C1727 1.398 . S
C1728 C1729 1.391 . S
C1729 H1717 0.950 . S
C1729 C1725 1.393 . S
C1729 C1728 1.391 . S
C1730 H1720 0.950 . S
C1730 C1731 1.386 . S
C1730 C1732 1.391 . S
C1731 C1730 1.386 . S
C1731 C1735 1.393 . S
C1732 H1721 0.950 . S
C1732 C1730 1.391 . S
C1732 C1733 1.400 . S
C1733 C1727 1.491 . S
C1733 C1732 1.400 . S
C1733 C1734 1.398 . S
C1734 H1722 0.950 . S
C1734 C1733 1.398 . S
C1734 C1735 1.391 . S
C1735 H1723 0.950 . S
C1735 C1731 1.393 . S
C1735 C1734 1.391 . S
H1736 C1744 0.950 . S
H1737 C1749 0.950 . S
H1738 C1746 0.950 . S
H1739 C1748 0.950 . S
H1740 C1750 0.950 . S
H1741 C1752 0.950 . S
H1742 C1754 0.950 . S
H1743 C1755 0.950 . S
C1744 H1736 0.950 . S
C1744 C1745 1.386 . S
C1744 C1746 1.391 . S
C1745 C1744 1.386 . S
C1745 C1749 1.393 . S
C1746 H1738 0.950 . S
C1746 C1744 1.391 . S
C1746 C1747 1.400 . S
C1747 C1746 1.400 . S
C1747 C1748 1.398 . S
C1747 C1753 1.491 . S
C1748 H1739 0.950 . S
C1748 C1747 1.398 . S
C1748 C1749 1.391 . S
C1749 H1737 0.950 . S
C1749 C1745 1.393 . S
C1749 C1748 1.391 . S
C1750 H1740 0.950 . S
C1750 C1751 1.386 . S
C1750 C1752 1.391 . S
C1751 C1750 1.386 . S
C1751 C1755 1.393 . S
C1752 H1741 0.950 . S
C1752 C1750 1.391 . S
C1752 C1753 1.400 . S
C1753 C1747 1.491 . S
C1753 C1752 1.400 . S
C1753 C1754 1.398 . S
C1754 H1742 0.950 . S
C1754 C1753 1.398 . S
C1754 C1755 1.391 . S
C1755 H1743 0.950 . S
C1755 C1751 1.393 . S
C1755 C1754 1.391 . S
H1756 C1764 0.950 . S
H1757 C1769 0.950 . S
H1758 C1766 0.950 . S
H1759 C1768 0.950 . S
H1760 C1770 0.950 . S
H1761 C1772 0.950 . S
H1762 C1774 0.950 . S
H1763 C1775 0.950 . S
C1764 H1756 0.950 . S
C1764 C1765 1.386 . S
C1764 C1766 1.391 . S
C1765 C1764 1.386 . S
C1765 C1769 1.393 . S
C1766 H1758 0.950 . S
C1766 C1764 1.391 . S
C1766 C1767 1.400 . S
C1767 C1766 1.400 . S
C1767 C1768 1.398 . S
C1767 C1773 1.491 . S
C1768 H1759 0.950 . S
C1768 C1767 1.398 . S
C1768 C1769 1.391 . S
C1769 H1757 0.950 . S
C1769 C1765 1.393 . S
C1769 C1768 1.391 . S
C1770 H1760 0.950 . S
C1770 C1771 1.386 . S
C1770 C1772 1.391 . S
C1771 C1770 1.386 . S
C1771 C1775 1.393 . S
C1772 H1761 0.950 . S
C1772 C1770 1.391 . S
C1772 C1773 1.400 . S
C1773 C1767 1.491 . S
C1773 C1772 1.400 . S
C1773 C1774 1.398 . S
C1774 H1762 0.950 . S
C1774 C1773 1.398 . S
C1774 C1775 1.391 . S
C1775 H1763 0.950 . S
C1775 C1771 1.393 . S
C1775 C1774 1.391 . S
H1776 C1784 0.950 . S
H1777 C1789 0.950 . S
H1778 C1786 0.950 . S
H1779 C1788 0.950 . S
H1780 C1790 0.950 . S
H1781 C1792 0.950 . S
H1782 C1794 0.950 . S
H1783 C1795 0.950 . S
C1784 H1776 0.950 . S
C1784 C1785 1.386 . S
C1784 C1786 1.391 . S
C1785 C1784 1.386 . S
C1785 C1789 1.393 . S
C1786 H1778 0.950 . S
C1786 C1784 1.391 . S
C1786 C1787 1.400 . S
C1787 C1786 1.400 . S
C1787 C1788 1.398 . S
C1787 C1793 1.491 . S
C1788 H1779 0.950 . S
C1788 C1787 1.398 . S
C1788 C1789 1.391 . S
C1789 H1777 0.950 . S
C1789 C1785 1.393 . S
C1789 C1788 1.391 . S
C1790 H1780 0.950 . S
C1790 C1791 1.386 . S
C1790 C1792 1.391 . S
C1791 C1790 1.386 . S
C1791 C1795 1.393 . S
C1792 H1781 0.950 . S
C1792 C1790 1.391 . S
C1792 C1793 1.400 . S
C1793 C1787 1.491 . S
C1793 C1792 1.400 . S
C1793 C1794 1.398 . S
C1794 H1782 0.950 . S
C1794 C1793 1.398 . S
C1794 C1795 1.391 . S
C1795 H1783 0.950 . S
C1795 C1791 1.393 . S
C1795 C1794 1.391 . S
H1796 C1804 0.950 . S
H1797 C1809 0.950 . S
H1798 C1806 0.950 . S
H1799 C1808 0.950 . S
H1800 C1810 0.950 . S
H1801 C1812 0.950 . S
H1802 C1814 0.950 . S
H1803 C1815 0.950 . S
C1804 H1796 0.950 . S
C1804 C1805 1.386 . S
C1804 C1806 1.391 . S
C1805 C1804 1.386 . S
C1805 C1809 1.393 . S
C1806 H1798 0.950 . S
C1806 C1804 1.391 . S
C1806 C1807 1.400 . S
C1807 C1806 1.400 . S
C1807 C1808 1.398 . S
C1807 C1813 1.491 . S
C1808 H1799 0.950 . S
C1808 C1807 1.398 . S
C1808 C1809 1.391 . S
C1809 H1797 0.950 . S
C1809 C1805 1.393 . S
C1809 C1808 1.391 . S
C1810 H1800 0.950 . S
C1810 C1811 1.386 . S
C1810 C1812 1.391 . S
C1811 C1810 1.386 . S
C1811 C1815 1.393 . S
C1812 H1801 0.950 . S
C1812 C1810 1.391 . S
C1812 C1813 1.400 . S
C1813 C1807 1.491 . S
C1813 C1812 1.400 . S
C1813 C1814 1.398 . S
C1814 H1802 0.950 . S
C1814 C1813 1.398 . S
C1814 C1815 1.391 . S
C1815 H1803 0.950 . S
C1815 C1811 1.393 . S
C1815 C1814 1.391 . S
H1816 C1824 0.950 . S
H1817 C1829 0.950 . S
H1818 C1826 0.950 . S
H1819 C1828 0.950 . S
H1820 C1830 0.950 . S
H1821 C1832 0.950 . S
H1822 C1834 0.950 . S
H1823 C1835 0.950 . S
C1824 H1816 0.950 . S
C1824 C1825 1.386 . S
C1824 C1826 1.391 . S
C1825 C1824 1.386 . S
C1825 C1829 1.393 . S
C1826 H1818 0.950 . S
C1826 C1824 1.391 . S
C1826 C1827 1.400 . S
C1827 C1826 1.400 . S
C1827 C1828 1.398 . S
C1827 C1833 1.491 . S
C1828 H1819 0.950 . S
C1828 C1827 1.398 . S
C1828 C1829 1.391 . S
C1829 H1817 0.950 . S
C1829 C1825 1.393 . S
C1829 C1828 1.391 . S
C1830 H1820 0.950 . S
C1830 C1831 1.386 . S
C1830 C1832 1.391 . S
C1831 C1830 1.386 . S
C1831 C1835 1.393 . S
C1832 H1821 0.950 . S
C1832 C1830 1.391 . S
C1832 C1833 1.400 . S
C1833 C1827 1.491 . S
C1833 C1832 1.400 . S
C1833 C1834 1.398 . S
C1834 H1822 0.950 . S
C1834 C1833 1.398 . S
C1834 C1835 1.391 . S
C1835 H1823 0.950 . S
C1835 C1831 1.393 . S
C1835 C1834 1.391 . S
H1836 C1844 0.950 . S
H1837 C1849 0.950 . S
H1838 C1846 0.950 . S
H1839 C1848 0.950 . S
H1840 C1850 0.950 . S
H1841 C1852 0.950 . S
H1842 C1854 0.950 . S
H1843 C1855 0.950 . S
C1844 H1836 0.950 . S
C1844 C1845 1.386 . S
C1844 C1846 1.391 . S
C1845 C1844 1.386 . S
C1845 C1849 1.393 . S
C1846 H1838 0.950 . S
C1846 C1844 1.391 . S
C1846 C1847 1.400 . S
C1847 C1846 1.400 . S
C1847 C1848 1.398 . S
C1847 C1853 1.491 . S
C1848 H1839 0.950 . S
C1848 C1847 1.398 . S
C1848 C1849 1.391 . S
C1849 H1837 0.950 . S
C1849 C1845 1.393 . S
C1849 C1848 1.391 . S
C1850 H1840 0.950 . S
C1850 C1851 1.386 . S
C1850 C1852 1.391 . S
C1851 C1850 1.386 . S
C1851 C1855 1.393 . S
C1852 H1841 0.950 . S
C1852 C1850 1.391 . S
C1852 C1853 1.400 . S
C1853 C1847 1.491 . S
C1853 C1852 1.400 . S
C1853 C1854 1.398 . S
C1854 H1842 0.950 . S
C1854 C1853 1.398 . S
C1854 C1855 1.391 . S
C1855 H1843 0.950 . S
C1855 C1851 1.393 . S
C1855 C1854 1.391 . S
H1856 C1864 0.950 . S
H1857 C1869 0.950 . S
H1858 C1866 0.950 . S
H1859 C1868 0.950 . S
H1860 C1870 0.950 . S
H1861 C1872 0.950 . S
H1862 C1874 0.950 . S
H1863 C1875 0.950 . S
C1864 H1856 0.950 . S
C1864 C1865 1.386 . S
C1864 C1866 1.391 . S
C1865 C1864 1.386 . S
C1865 C1869 1.393 . S
C1866 H1858 0.950 . S
C1866 C1864 1.391 . S
C1866 C1867 1.400 . S
C1867 C1866 1.400 . S
C1867 C1868 1.398 . S
C1867 C1873 1.491 . S
C1868 H1859 0.950 . S
C1868 C1867 1.398 . S
C1868 C1869 1.391 . S
C1869 H1857 0.950 . S
C1869 C1865 1.393 . S
C1869 C1868 1.391 . S
C1870 H1860 0.950 . S
C1870 C1871 1.386 . S
C1870 C1872 1.391 . S
C1871 C1870 1.386 . S
C1871 C1875 1.393 . S
C1872 H1861 0.950 . S
C1872 C1870 1.391 . S
C1872 C1873 1.400 . S
C1873 C1867 1.491 . S
C1873 C1872 1.400 . S
C1873 C1874 1.398 . S
C1874 H1862 0.950 . S
C1874 C1873 1.398 . S
C1874 C1875 1.391 . S
C1875 H1863 0.950 . S
C1875 C1871 1.393 . S
C1875 C1874 1.391 . S
H1876 C1884 0.950 . S
H1877 C1889 0.950 . S
H1878 C1886 0.950 . S
H1879 C1888 0.950 . S
H1880 C1890 0.950 . S
H1881 C1892 0.950 . S
H1882 C1894 0.950 . S
H1883 C1895 0.950 . S
C1884 H1876 0.950 . S
C1884 C1885 1.386 . S
C1884 C1886 1.391 . S
C1885 C1884 1.386 . S
C1885 C1889 1.393 . S
C1886 H1878 0.950 . S
C1886 C1884 1.391 . S
C1886 C1887 1.400 . S
C1887 C1886 1.400 . S
C1887 C1888 1.398 . S
C1887 C1893 1.491 . S
C1888 H1879 0.950 . S
C1888 C1887 1.398 . S
C1888 C1889 1.391 . S
C1889 H1877 0.950 . S
C1889 C1885 1.393 . S
C1889 C1888 1.391 . S
C1890 H1880 0.950 . S
C1890 C1891 1.386 . S
C1890 C1892 1.391 . S
C1891 C1890 1.386 . S
C1891 C1895 1.393 . S
C1892 H1881 0.950 . S
C1892 C1890 1.391 . S
C1892 C1893 1.400 . S
C1893 C1887 1.491 . S
C1893 C1892 1.400 . S
C1893 C1894 1.398 . S
C1894 H1882 0.950 . S
C1894 C1893 1.398 . S
C1894 C1895 1.391 . S
C1895 H1883 0.950 . S
C1895 C1891 1.393 . S
C1895 C1894 1.391 . S
H1896 C1904 0.950 . S
H1897 C1909 0.950 . S
H1898 C1906 0.950 . S
H1899 C1908 0.950 . S
H1900 C1910 0.950 . S
H1901 C1912 0.950 . S
H1902 C1914 0.950 . S
H1903 C1915 0.950 . S
C1904 H1896 0.950 . S
C1904 C1905 1.386 . S
C1904 C1906 1.391 . S
C1905 C1904 1.386 . S
C1905 C1909 1.393 . S
C1906 H1898 0.950 . S
C1906 C1904 1.391 . S
C1906 C1907 1.400 . S
C1907 C1906 1.400 . S
C1907 C1908 1.398 . S
C1907 C1913 1.491 . S
C1908 H1899 0.950 . S
C1908 C1907 1.398 . S
C1908 C1909 1.391 . S
C1909 H1897 0.950 . S
C1909 C1905 1.393 . S
C1909 C1908 1.391 . S
C1910 H1900 0.950 . S
C1910 C1911 1.386 . S
C1910 C1912 1.391 . S
C1911 C1910 1.386 . S
C1911 C1915 1.393 . S
C1912 H1901 0.950 . S
C1912 C1910 1.391 . S
C1912 C1913 1.400 . S
C1913 C1907 1.491 . S
C1913 C1912 1.400 . S
C1913 C1914 1.398 . S
C1914 H1902 0.950 . S
C1914 C1913 1.398 . S
C1914 C1915 1.391 . S
C1915 H1903 0.950 . S
C1915 C1911 1.393 . S
C1915 C1914 1.391 . S
H1916 C1924 0.950 . S
H1917 C1929 0.950 . S
H1918 C1926 0.950 . S
H1919 C1928 0.950 . S
H1920 C1930 0.950 . S
H1921 C1932 0.950 . S
H1922 C1934 0.950 . S
H1923 C1935 0.950 . S
C1924 H1916 0.950 . S
C1924 C1925 1.386 . S
C1924 C1926 1.391 . S
C1925 C1924 1.386 . S
C1925 C1929 1.393 . S
C1926 H1918 0.950 . S
C1926 C1924 1.391 . S
C1926 C1927 1.400 . S
C1927 C1926 1.400 . S
C1927 C1928 1.398 . S
C1927 C1933 1.491 . S
C1928 H1919 0.950 . S
C1928 C1927 1.398 . S
C1928 C1929 1.391 . S
C1929 H1917 0.950 . S
C1929 C1925 1.393 . S
C1929 C1928 1.391 . S
C1930 H1920 0.950 . S
C1930 C1931 1.386 . S
C1930 C1932 1.391 . S
C1931 C1930 1.386 . S
C1931 C1935 1.393 . S
C1932 H1921 0.950 . S
C1932 C1930 1.391 . S
C1932 C1933 1.400 . S
C1933 C1927 1.491 . S
C1933 C1932 1.400 . S
C1933 C1934 1.398 . S
C1934 H1922 0.950 . S
C1934 C1933 1.398 . S
C1934 C1935 1.391 . S
C1935 H1923 0.950 . S
C1935 C1931 1.393 . S
C1935 C1934 1.391 . S
H1936 C1944 0.950 . S
H1937 C1949 0.950 . S
H1938 C1946 0.950 . S
H1939 C1948 0.950 . S
H1940 C1950 0.950 . S
H1941 C1952 0.950 . S
H1942 C1954 0.950 . S
H1943 C1955 0.950 . S
C1944 H1936 0.950 . S
C1944 C1945 1.386 . S
C1944 C1946 1.391 . S
C1945 C1944 1.386 . S
C1945 C1949 1.393 . S
C1946 H1938 0.950 . S
C1946 C1944 1.391 . S
C1946 C1947 1.400 . S
C1947 C1946 1.400 . S
C1947 C1948 1.398 . S
C1947 C1953 1.491 . S
C1948 H1939 0.950 . S
C1948 C1947 1.398 . S
C1948 C1949 1.391 . S
C1949 H1937 0.950 . S
C1949 C1945 1.393 . S
C1949 C1948 1.391 . S
C1950 H1940 0.950 . S
C1950 C1951 1.386 . S
C1950 C1952 1.391 . S
C1951 C1950 1.386 . S
C1951 C1955 1.393 . S
C1952 H1941 0.950 . S
C1952 C1950 1.391 . S
C1952 C1953 1.400 . S
C1953 C1947 1.491 . S
C1953 C1952 1.400 . S
C1953 C1954 1.398 . S
C1954 H1942 0.950 . S
C1954 C1953 1.398 . S
C1954 C1955 1.391 . S
C1955 H1943 0.950 . S
C1955 C1951 1.393 . S
C1955 C1954 1.391 . S
H1956 C1964 0.950 . S
H1957 C1969 0.950 . S
H1958 C1966 0.950 . S
H1959 C1968 0.950 . S
H1960 C1970 0.950 . S
H1961 C1972 0.950 . S
H1962 C1974 0.950 . S
H1963 C1975 0.950 . S
C1964 H1956 0.950 . S
C1964 C1965 1.386 . S
C1964 C1966 1.391 . S
C1965 C1964 1.386 . S
C1965 C1969 1.393 . S
C1966 H1958 0.950 . S
C1966 C1964 1.391 . S
C1966 C1967 1.400 . S
C1967 C1966 1.400 . S
C1967 C1968 1.398 . S
C1967 C1973 1.491 . S
C1968 H1959 0.950 . S
C1968 C1967 1.398 . S
C1968 C1969 1.391 . S
C1969 H1957 0.950 . S
C1969 C1965 1.393 . S
C1969 C1968 1.391 . S
C1970 H1960 0.950 . S
C1970 C1971 1.386 . S
C1970 C1972 1.391 . S
C1971 C1970 1.386 . S
C1971 C1975 1.393 . S
C1972 H1961 0.950 . S
C1972 C1970 1.391 . S
C1972 C1973 1.400 . S
C1973 C1967 1.491 . S
C1973 C1972 1.400 . S
C1973 C1974 1.398 . S
C1974 H1962 0.950 . S
C1974 C1973 1.398 . S
C1974 C1975 1.391 . S
C1975 H1963 0.950 . S
C1975 C1971 1.393 . S
C1975 C1974 1.391 . S
H1976 C1984 0.950 . S
H1977 C1989 0.950 . S
H1978 C1986 0.950 . S
H1979 C1988 0.950 . S
H1980 C1990 0.950 . S
H1981 C1992 0.950 . S
H1982 C1994 0.950 . S
H1983 C1995 0.950 . S
C1984 H1976 0.950 . S
C1984 C1985 1.386 . S
C1984 C1986 1.391 . S
C1985 C1984 1.386 . S
C1985 C1989 1.393 . S
C1986 H1978 0.950 . S
C1986 C1984 1.391 . S
C1986 C1987 1.400 . S
C1987 C1986 1.400 . S
C1987 C1988 1.398 . S
C1987 C1993 1.491 . S
C1988 H1979 0.950 . S
C1988 C1987 1.398 . S
C1988 C1989 1.391 . S
C1989 H1977 0.950 . S
C1989 C1985 1.393 . S
C1989 C1988 1.391 . S
C1990 H1980 0.950 . S
C1990 C1991 1.386 . S
C1990 C1992 1.391 . S
C1991 C1990 1.386 . S
C1991 C1995 1.393 . S
C1992 H1981 0.950 . S
C1992 C1990 1.391 . S
C1992 C1993 1.400 . S
C1993 C1987 1.491 . S
C1993 C1992 1.400 . S
C1993 C1994 1.398 . S
C1994 H1982 0.950 . S
C1994 C1993 1.398 . S
C1994 C1995 1.391 . S
C1995 H1983 0.950 . S
C1995 C1991 1.393 . S
C1995 C1994 1.391 . S
H1996 C2004 0.950 . S
H1997 C2009 0.950 . S
H1998 C2006 0.950 . S
H1999 C2008 0.950 . S
H2000 C2010 0.950 . S
H2001 C2012 0.950 . S
H2002 C2014 0.950 . S
H2003 C2015 0.950 . S
C2004 H1996 0.950 . S
C2004 C2005 1.386 . S
C2004 C2006 1.391 . S
C2005 C2004 1.386 . S
C2005 C2009 1.393 . S
C2006 H1998 0.950 . S
C2006 C2004 1.391 . S
C2006 C2007 1.400 . S
C2007 C2006 1.400 . S
C2007 C2008 1.398 . S
C2007 C2013 1.491 . S
C2008 H1999 0.950 . S
C2008 C2007 1.398 . S
C2008 C2009 1.391 . S
C2009 H1997 0.950 . S
C2009 C2005 1.393 . S
C2009 C2008 1.391 . S
C2010 H2000 0.950 . S
C2010 C2011 1.386 . S
C2010 C2012 1.391 . S
C2011 C2010 1.386 . S
C2011 C2015 1.393 . S
C2012 H2001 0.950 . S
C2012 C2010 1.391 . S
C2012 C2013 1.400 . S
C2013 C2007 1.491 . S
C2013 C2012 1.400 . S
C2013 C2014 1.398 . S
C2014 H2002 0.950 . S
C2014 C2013 1.398 . S
C2014 C2015 1.391 . S
C2015 H2003 0.950 . S
C2015 C2011 1.393 . S
C2015 C2014 1.391 . S
H2016 C2024 0.950 . S
H2017 C2029 0.950 . S
H2018 C2026 0.950 . S
H2019 C2028 0.950 . S
H2020 C2030 0.950 . S
H2021 C2032 0.950 . S
H2022 C2034 0.950 . S
H2023 C2035 0.950 . S
C2024 H2016 0.950 . S
C2024 C2025 1.386 . S
C2024 C2026 1.391 . S
C2025 C2024 1.386 . S
C2025 C2029 1.393 . S
C2026 H2018 0.950 . S
C2026 C2024 1.391 . S
C2026 C2027 1.400 . S
C2027 C2026 1.400 . S
C2027 C2028 1.398 . S
C2027 C2033 1.491 . S
C2028 H2019 0.950 . S
C2028 C2027 1.398 . S
C2028 C2029 1.391 . S
C2029 H2017 0.950 . S
C2029 C2025 1.393 . S
C2029 C2028 1.391 . S
C2030 H2020 0.950 . S
C2030 C2031 1.386 . S
C2030 C2032 1.391 . S
C2031 C2030 1.386 . S
C2031 C2035 1.393 . S
C2032 H2021 0.950 . S
C2032 C2030 1.391 . S
C2032 C2033 1.400 . S
C2033 C2027 1.491 . S
C2033 C2032 1.400 . S
C2033 C2034 1.398 . S
C2034 H2022 0.950 . S
C2034 C2033 1.398 . S
C2034 C2035 1.391 . S
C2035 H2023 0.950 . S
C2035 C2031 1.393 . S
C2035 C2034 1.391 . S
H2036 C2044 0.950 . S
H2037 C2049 0.950 . S
H2038 C2046 0.950 . S
H2039 C2048 0.950 . S
H2040 C2050 0.950 . S
H2041 C2052 0.950 . S
H2042 C2054 0.950 . S
H2043 C2055 0.950 . S
C2044 H2036 0.950 . S
C2044 C2045 1.386 . S
C2044 C2046 1.391 . S
C2045 C2044 1.386 . S
C2045 C2049 1.393 . S
C2046 H2038 0.950 . S
C2046 C2044 1.391 . S
C2046 C2047 1.400 . S
C2047 C2046 1.400 . S
C2047 C2048 1.398 . S
C2047 C2053 1.491 . S
C2048 H2039 0.950 . S
C2048 C2047 1.398 . S
C2048 C2049 1.391 . S
C2049 H2037 0.950 . S
C2049 C2045 1.393 . S
C2049 C2048 1.391 . S
C2050 H2040 0.950 . S
C2050 C2051 1.386 . S
C2050 C2052 1.391 . S
C2051 C2050 1.386 . S
C2051 C2055 1.393 . S
C2052 H2041 0.950 . S
C2052 C2050 1.391 . S
C2052 C2053 1.400 . S
C2053 C2047 1.491 . S
C2053 C2052 1.400 . S
C2053 C2054 1.398 . S
C2054 H2042 0.950 . S
C2054 C2053 1.398 . S
C2054 C2055 1.391 . S
C2055 H2043 0.950 . S
C2055 C2051 1.393 . S
C2055 C2054 1.391 . S
H2056 C2064 0.950 . S
H2057 C2069 0.950 . S
H2058 C2066 0.950 . S
H2059 C2068 0.950 . S
H2060 C2070 0.950 . S
H2061 C2072 0.950 . S
H2062 C2074 0.950 . S
H2063 C2075 0.950 . S
C2064 H2056 0.950 . S
C2064 C2065 1.386 . S
C2064 C2066 1.391 . S
C2065 C2064 1.386 . S
C2065 C2069 1.393 . S
C2066 H2058 0.950 . S
C2066 C2064 1.391 . S
C2066 C2067 1.400 . S
C2067 C2066 1.400 . S
C2067 C2068 1.398 . S
C2067 C2073 1.491 . S
C2068 H2059 0.950 . S
C2068 C2067 1.398 . S
C2068 C2069 1.391 . S
C2069 H2057 0.950 . S
C2069 C2065 1.393 . S
C2069 C2068 1.391 . S
C2070 H2060 0.950 . S
C2070 C2071 1.386 . S
C2070 C2072 1.391 . S
C2071 C2070 1.386 . S
C2071 C2075 1.393 . S
C2072 H2061 0.950 . S
C2072 C2070 1.391 . S
C2072 C2073 1.400 . S
C2073 C2067 1.491 . S
C2073 C2072 1.400 . S
C2073 C2074 1.398 . S
C2074 H2062 0.950 . S
C2074 C2073 1.398 . S
C2074 C2075 1.391 . S
C2075 H2063 0.950 . S
C2075 C2071 1.393 . S
C2075 C2074 1.391 . S
H2076 C2084 0.950 . S
H2077 C2089 0.950 . S
H2078 C2086 0.950 . S
H2079 C2088 0.950 . S
H2080 C2090 0.950 . S
H2081 C2092 0.950 . S
H2082 C2094 0.950 . S
H2083 C2095 0.950 . S
C2084 H2076 0.950 . S
C2084 C2085 1.386 . S
C2084 C2086 1.391 . S
C2085 C2084 1.386 . S
C2085 C2089 1.393 . S
C2086 H2078 0.950 . S
C2086 C2084 1.391 . S
C2086 C2087 1.400 . S
C2087 C2086 1.400 . S
C2087 C2088 1.398 . S
C2087 C2093 1.491 . S
C2088 H2079 0.950 . S
C2088 C2087 1.398 . S
C2088 C2089 1.391 . S
C2089 H2077 0.950 . S
C2089 C2085 1.393 . S
C2089 C2088 1.391 . S
C2090 H2080 0.950 . S
C2090 C2091 1.386 . S
C2090 C2092 1.391 . S
C2091 C2090 1.386 . S
C2091 C2095 1.393 . S
C2092 H2081 0.950 . S
C2092 C2090 1.391 . S
C2092 C2093 1.400 . S
C2093 C2087 1.491 . S
C2093 C2092 1.400 . S
C2093 C2094 1.398 . S
C2094 H2082 0.950 . S
C2094 C2093 1.398 . S
C2094 C2095 1.391 . S
C2095 H2083 0.950 . S
C2095 C2091 1.393 . S
C2095 C2094 1.391 . S
H2096 C2104 0.950 . S
H2097 C2109 0.950 . S
H2098 C2106 0.950 . S
H2099 C2108 0.950 . S
H2100 C2110 0.950 . S
H2101 C2112 0.950 . S
H2102 C2114 0.950 . S
H2103 C2115 0.950 . S
C2104 H2096 0.950 . S
C2104 C2105 1.386 . S
C2104 C2106 1.391 . S
C2105 C2104 1.386 . S
C2105 C2109 1.393 . S
C2106 H2098 0.950 . S
C2106 C2104 1.391 . S
C2106 C2107 1.400 . S
C2107 C2106 1.400 . S
C2107 C2108 1.398 . S
C2107 C2113 1.491 . S
C2108 H2099 0.950 . S
C2108 C2107 1.398 . S
C2108 C2109 1.391 . S
C2109 H2097 0.950 . S
C2109 C2105 1.393 . S
C2109 C2108 1.391 . S
C2110 H2100 0.950 . S
C2110 C2111 1.386 . S
C2110 C2112 1.391 . S
C2111 C2110 1.386 . S
C2111 C2115 1.393 . S
C2112 H2101 0.950 . S
C2112 C2110 1.391 . S
C2112 C2113 1.400 . S
C2113 C2107 1.491 . S
C2113 C2112 1.400 . S
C2113 C2114 1.398 . S
C2114 H2102 0.950 . S
C2114 C2113 1.398 . S
C2114 C2115 1.391 . S
C2115 H2103 0.950 . S
C2115 C2111 1.393 . S
C2115 C2114 1.391 . S
H2116 C2124 0.950 . S
H2117 C2129 0.950 . S
H2118 C2126 0.950 . S
H2119 C2128 0.950 . S
H2120 C2130 0.950 . S
H2121 C2132 0.950 . S
H2122 C2134 0.950 . S
H2123 C2135 0.950 . S
C2124 H2116 0.950 . S
C2124 C2125 1.386 . S
C2124 C2126 1.391 . S
C2125 C2124 1.386 . S
C2125 C2129 1.393 . S
C2126 H2118 0.950 . S
C2126 C2124 1.391 . S
C2126 C2127 1.400 . S
C2127 C2126 1.400 . S
C2127 C2128 1.398 . S
C2127 C2133 1.491 . S
C2128 H2119 0.950 . S
C2128 C2127 1.398 . S
C2128 C2129 1.391 . S
C2129 H2117 0.950 . S
C2129 C2125 1.393 . S
C2129 C2128 1.391 . S
C2130 H2120 0.950 . S
C2130 C2131 1.386 . S
C2130 C2132 1.391 . S
C2131 C2130 1.386 . S
C2131 C2135 1.393 . S
C2132 H2121 0.950 . S
C2132 C2130 1.391 . S
C2132 C2133 1.400 . S
C2133 C2127 1.491 . S
C2133 C2132 1.400 . S
C2133 C2134 1.398 . S
C2134 H2122 0.950 . S
C2134 C2133 1.398 . S
C2134 C2135 1.391 . S
C2135 H2123 0.950 . S
C2135 C2131 1.393 . S
C2135 C2134 1.391 . S
H2136 C2144 0.950 . S
H2137 C2149 0.950 . S
H2138 C2146 0.950 . S
H2139 C2148 0.950 . S
H2140 C2150 0.950 . S
H2141 C2152 0.950 . S
H2142 C2154 0.950 . S
H2143 C2155 0.950 . S
C2144 H2136 0.950 . S
C2144 C2145 1.386 . S
C2144 C2146 1.391 . S
C2145 C2144 1.386 . S
C2145 C2149 1.393 . S
C2146 H2138 0.950 . S
C2146 C2144 1.391 . S
C2146 C2147 1.400 . S
C2147 C2146 1.400 . S
C2147 C2148 1.398 . S
C2147 C2153 1.491 . S
C2148 H2139 0.950 . S
C2148 C2147 1.398 . S
C2148 C2149 1.391 . S
C2149 H2137 0.950 . S
C2149 C2145 1.393 . S
C2149 C2148 1.391 . S
C2150 H2140 0.950 . S
C2150 C2151 1.386 . S
C2150 C2152 1.391 . S
C2151 C2150 1.386 . S
C2151 C2155 1.393 . S
C2152 H2141 0.950 . S
C2152 C2150 1.391 . S
C2152 C2153 1.400 . S
C2153 C2147 1.491 . S
C2153 C2152 1.400 . S
C2153 C2154 1.398 . S
C2154 H2142 0.950 . S
C2154 C2153 1.398 . S
C2154 C2155 1.391 . S
C2155 H2143 0.950 . S
C2155 C2151 1.393 . S
C2155 C2154 1.391 . S
H2156 C2164 0.950 . S
H2157 C2169 0.950 . S
H2158 C2166 0.950 . S
H2159 C2168 0.950 . S
H2160 C2170 0.950 . S
H2161 C2172 0.950 . S
H2162 C2174 0.950 . S
H2163 C2175 0.950 . S
C2164 H2156 0.950 . S
C2164 C2165 1.386 . S
C2164 C2166 1.391 . S
C2165 C2164 1.386 . S
C2165 C2169 1.393 . S
C2166 H2158 0.950 . S
C2166 C2164 1.391 . S
C2166 C2167 1.400 . S
C2167 C2166 1.400 . S
C2167 C2168 1.398 . S
C2167 C2173 1.491 . S
C2168 H2159 0.950 . S
C2168 C2167 1.398 . S
C2168 C2169 1.391 . S
C2169 H2157 0.950 . S
C2169 C2165 1.393 . S
C2169 C2168 1.391 . S
C2170 H2160 0.950 . S
C2170 C2171 1.386 . S
C2170 C2172 1.391 . S
C2171 C2170 1.386 . S
C2171 C2175 1.393 . S
C2172 H2161 0.950 . S
C2172 C2170 1.391 . S
C2172 C2173 1.400 . S
C2173 C2167 1.491 . S
C2173 C2172 1.400 . S
C2173 C2174 1.398 . S
C2174 H2162 0.950 . S
C2174 C2173 1.398 . S
C2174 C2175 1.391 . S
C2175 H2163 0.950 . S
C2175 C2171 1.393 . S
C2175 C2174 1.391 . S
H2176 C2184 0.950 . S
H2177 C2189 0.950 . S
H2178 C2186 0.950 . S
H2179 C2188 0.950 . S
H2180 C2190 0.950 . S
H2181 C2192 0.950 . S
H2182 C2194 0.950 . S
H2183 C2195 0.950 . S
C2184 H2176 0.950 . S
C2184 C2185 1.386 . S
C2184 C2186 1.391 . S
C2185 C2184 1.386 . S
C2185 C2189 1.393 . S
C2186 H2178 0.950 . S
C2186 C2184 1.391 . S
C2186 C2187 1.400 . S
C2187 C2186 1.400 . S
C2187 C2188 1.398 . S
C2187 C2193 1.491 . S
C2188 H2179 0.950 . S
C2188 C2187 1.398 . S
C2188 C2189 1.391 . S
C2189 H2177 0.950 . S
C2189 C2185 1.393 . S
C2189 C2188 1.391 . S
C2190 H2180 0.950 . S
C2190 C2191 1.386 . S
C2190 C2192 1.391 . S
C2191 C2190 1.386 . S
C2191 C2195 1.393 . S
C2192 H2181 0.950 . S
C2192 C2190 1.391 . S
C2192 C2193 1.400 . S
C2193 C2187 1.491 . S
C2193 C2192 1.400 . S
C2193 C2194 1.398 . S
C2194 H2182 0.950 . S
C2194 C2193 1.398 . S
C2194 C2195 1.391 . S
C2195 H2183 0.950 . S
C2195 C2191 1.393 . S
C2195 C2194 1.391 . S
H2196 C2204 0.950 . S
H2197 C2209 0.950 . S
H2198 C2206 0.950 . S
H2199 C2208 0.950 . S
H2200 C2210 0.950 . S
H2201 C2212 0.950 . S
H2202 C2214 0.950 . S
H2203 C2215 0.950 . S
C2204 H2196 0.950 . S
C2204 C2205 1.386 . S
C2204 C2206 1.391 . S
C2205 C2204 1.386 . S
C2205 C2209 1.393 . S
C2206 H2198 0.950 . S
C2206 C2204 1.391 . S
C2206 C2207 1.400 . S
C2207 C2206 1.400 . S
C2207 C2208 1.398 . S
C2207 C2213 1.491 . S
C2208 H2199 0.950 . S
C2208 C2207 1.398 . S
C2208 C2209 1.391 . S
C2209 H2197 0.950 . S
C2209 C2205 1.393 . S
C2209 C2208 1.391 . S
C2210 H2200 0.950 . S
C2210 C2211 1.386 . S
C2210 C2212 1.391 . S
C2211 C2210 1.386 . S
C2211 C2215 1.393 . S
C2212 H2201 0.950 . S
C2212 C2210 1.391 . S
C2212 C2213 1.400 . S
C2213 C2207 1.491 . S
C2213 C2212 1.400 . S
C2213 C2214 1.398 . S
C2214 H2202 0.950 . S
C2214 C2213 1.398 . S
C2214 C2215 1.391 . S
C2215 H2203 0.950 . S
C2215 C2211 1.393 . S
C2215 C2214 1.391 . S
H2216 C2224 0.950 . S
H2217 C2229 0.950 . S
H2218 C2226 0.950 . S
H2219 C2228 0.950 . S
H2220 C2230 0.950 . S
H2221 C2232 0.950 . S
H2222 C2234 0.950 . S
H2223 C2235 0.950 . S
C2224 H2216 0.950 . S
C2224 C2225 1.386 . S
C2224 C2226 1.391 . S
C2225 C2224 1.386 . S
C2225 C2229 1.393 . S
C2226 H2218 0.950 . S
C2226 C2224 1.391 . S
C2226 C2227 1.400 . S
C2227 C2226 1.400 . S
C2227 C2228 1.398 . S
C2227 C2233 1.491 . S
C2228 H2219 0.950 . S
C2228 C2227 1.398 . S
C2228 C2229 1.391 . S
C2229 H2217 0.950 . S
C2229 C2225 1.393 . S
C2229 C2228 1.391 . S
C2230 H2220 0.950 . S
C2230 C2231 1.386 . S
C2230 C2232 1.391 . S
C2231 C2230 1.386 . S
C2231 C2235 1.393 . S
C2232 H2221 0.950 . S
C2232 C2230 1.391 . S
C2232 C2233 1.400 . S
C2233 C2227 1.491 . S
C2233 C2232 1.400 . S
C2233 C2234 1.398 . S
C2234 H2222 0.950 . S
C2234 C2233 1.398 . S
C2234 C2235 1.391 . S
C2235 H2223 0.950 . S
C2235 C2231 1.393 . S
C2235 C2234 1.391 . S
H2236 C2244 0.950 . S
H2237 C2249 0.950 . S
H2238 C2246 0.950 . S
H2239 C2248 0.950 . S
H2240 C2250 0.950 . S
H2241 C2252 0.950 . S
H2242 C2254 0.950 . S
H2243 C2255 0.950 . S
C2244 H2236 0.950 . S
C2244 C2245 1.386 . S
C2244 C2246 1.391 . S
C2245 C2244 1.386 . S
C2245 C2249 1.393 . S
C2246 H2238 0.950 . S
C2246 C2244 1.391 . S
C2246 C2247 1.400 . S
C2247 C2246 1.400 . S
C2247 C2248 1.398 . S
C2247 C2253 1.491 . S
C2248 H2239 0.950 . S
C2248 C2247 1.398 . S
C2248 C2249 1.391 . S
C2249 H2237 0.950 . S
C2249 C2245 1.393 . S
C2249 C2248 1.391 . S
C2250 H2240 0.950 . S
C2250 C2251 1.386 . S
C2250 C2252 1.391 . S
C2251 C2250 1.386 . S
C2251 C2255 1.393 . S
C2252 H2241 0.950 . S
C2252 C2250 1.391 . S
C2252 C2253 1.400 . S
C2253 C2247 1.491 . S
C2253 C2252 1.400 . S
C2253 C2254 1.398 . S
C2254 H2242 0.950 . S
C2254 C2253 1.398 . S
C2254 C2255 1.391 . S
C2255 H2243 0.950 . S
C2255 C2251 1.393 . S
C2255 C2254 1.391 . S
H2256 C2264 0.950 . S
H2257 C2269 0.950 . S
H2258 C2266 0.950 . S
H2259 C2268 0.950 . S
H2260 C2270 0.950 . S
H2261 C2272 0.950 . S
H2262 C2274 0.950 . S
H2263 C2275 0.950 . S
C2264 H2256 0.950 . S
C2264 C2265 1.386 . S
C2264 C2266 1.391 . S
C2265 C2264 1.386 . S
C2265 C2269 1.393 . S
C2266 H2258 0.950 . S
C2266 C2264 1.391 . S
C2266 C2267 1.400 . S
C2267 C2266 1.400 . S
C2267 C2268 1.398 . S
C2267 C2273 1.491 . S
C2268 H2259 0.950 . S
C2268 C2267 1.398 . S
C2268 C2269 1.391 . S
C2269 H2257 0.950 . S
C2269 C2265 1.393 . S
C2269 C2268 1.391 . S
C2270 H2260 0.950 . S
C2270 C2271 1.386 . S
C2270 C2272 1.391 . S
C2271 C2270 1.386 . S
C2271 C2275 1.393 . S
C2272 H2261 0.950 . S
C2272 C2270 1.391 . S
C2272 C2273 1.400 . S
C2273 C2267 1.491 . S
C2273 C2272 1.400 . S
C2273 C2274 1.398 . S
C2274 H2262 0.950 . S
C2274 C2273 1.398 . S
C2274 C2275 1.391 . S
C2275 H2263 0.950 . S
C2275 C2271 1.393 . S
C2275 C2274 1.391 . S
H2276 C2284 0.950 . S
H2277 C2289 0.950 . S
H2278 C2286 0.950 . S
H2279 C2288 0.950 . S
H2280 C2290 0.950 . S
H2281 C2292 0.950 . S
H2282 C2294 0.950 . S
H2283 C2295 0.950 . S
C2284 H2276 0.950 . S
C2284 C2285 1.386 . S
C2284 C2286 1.391 . S
C2285 C2284 1.386 . S
C2285 C2289 1.393 . S
C2286 H2278 0.950 . S
C2286 C2284 1.391 . S
C2286 C2287 1.400 . S
C2287 C2286 1.400 . S
C2287 C2288 1.398 . S
C2287 C2293 1.491 . S
C2288 H2279 0.950 . S
C2288 C2287 1.398 . S
C2288 C2289 1.391 . S
C2289 H2277 0.950 . S
C2289 C2285 1.393 . S
C2289 C2288 1.391 . S
C2290 H2280 0.950 . S
C2290 C2291 1.386 . S
C2290 C2292 1.391 . S
C2291 C2290 1.386 . S
C2291 C2295 1.393 . S
C2292 H2281 0.950 . S
C2292 C2290 1.391 . S
C2292 C2293 1.400 . S
C2293 C2287 1.491 . S
C2293 C2292 1.400 . S
C2293 C2294 1.398 . S
C2294 H2282 0.950 . S
C2294 C2293 1.398 . S
C2294 C2295 1.391 . S
C2295 H2283 0.950 . S
C2295 C2291 1.393 . S
C2295 C2294 1.391 . S
H2296 C2304 0.950 . S
H2297 C2309 0.950 . S
H2298 C2306 0.950 . S
H2299 C2308 0.950 . S
H2300 C2310 0.950 . S
H2301 C2312 0.950 . S
H2302 C2314 0.950 . S
H2303 C2315 0.950 . S
C2304 H2296 0.950 . S
C2304 C2305 1.386 . S
C2304 C2306 1.391 . S
C2305 C2304 1.386 . S
C2305 C2309 1.393 . S
C2306 H2298 0.950 . S
C2306 C2304 1.391 . S
C2306 C2307 1.400 . S
C2307 C2306 1.400 . S
C2307 C2308 1.398 . S
C2307 C2313 1.491 . S
C2308 H2299 0.950 . S
C2308 C2307 1.398 . S
C2308 C2309 1.391 . S
C2309 H2297 0.950 . S
C2309 C2305 1.393 . S
C2309 C2308 1.391 . S
C2310 H2300 0.950 . S
C2310 C2311 1.386 . S
C2310 C2312 1.391 . S
C2311 C2310 1.386 . S
C2311 C2315 1.393 . S
C2312 H2301 0.950 . S
C2312 C2310 1.391 . S
C2312 C2313 1.400 . S
C2313 C2307 1.491 . S
C2313 C2312 1.400 . S
C2313 C2314 1.398 . S
C2314 H2302 0.950 . S
C2314 C2313 1.398 . S
C2314 C2315 1.391 . S
C2315 H2303 0.950 . S
C2315 C2311 1.393 . S
C2315 C2314 1.391 . S
H2316 C2324 0.950 . S
H2317 C2329 0.950 . S
H2318 C2326 0.950 . S
H2319 C2328 0.950 . S
H2320 C2330 0.950 . S
H2321 C2332 0.950 . S
H2322 C2334 0.950 . S
H2323 C2335 0.950 . S
C2324 H2316 0.950 . S
C2324 C2325 1.386 . S
C2324 C2326 1.391 . S
C2325 C2324 1.386 . S
C2325 C2329 1.393 . S
C2326 H2318 0.950 . S
C2326 C2324 1.391 . S
C2326 C2327 1.400 . S
C2327 C2326 1.400 . S
C2327 C2328 1.398 . S
C2327 C2333 1.491 . S
C2328 H2319 0.950 . S
C2328 C2327 1.398 . S
C2328 C2329 1.391 . S
C2329 H2317 0.950 . S
C2329 C2325 1.393 . S
C2329 C2328 1.391 . S
C2330 H2320 0.950 . S
C2330 C2331 1.386 . S
C2330 C2332 1.391 . S
C2331 C2330 1.386 . S
C2331 C2335 1.393 . S
C2332 H2321 0.950 . S
C2332 C2330 1.391 . S
C2332 C2333 1.400 . S
C2333 C2327 1.491 . S
C2333 C2332 1.400 . S
C2333 C2334 1.398 . S
C2334 H2322 0.950 . S
C2334 C2333 1.398 . S
C2334 C2335 1.391 . S
C2335 H2323 0.950 . S
C2335 C2331 1.393 . S
C2335 C2334 1.391 . S
H2336 C2344 0.950 . S
H2337 C2349 0.950 . S
H2338 C2346 0.950 . S
H2339 C2348 0.950 . S
H2340 C2350 0.950 . S
H2341 C2352 0.950 . S
H2342 C2354 0.950 . S
H2343 C2355 0.950 . S
C2344 H2336 0.950 . S
C2344 C2345 1.386 . S
C2344 C2346 1.391 . S
C2345 C2344 1.386 . S
C2345 C2349 1.393 . S
C2346 H2338 0.950 . S
C2346 C2344 1.391 . S
C2346 C2347 1.400 . S
C2347 C2346 1.400 . S
C2347 C2348 1.398 . S
C2347 C2353 1.491 . S
C2348 H2339 0.950 . S
C2348 C2347 1.398 . S
C2348 C2349 1.391 . S
C2349 H2337 0.950 . S
C2349 C2345 1.393 . S
C2349 C2348 1.391 . S
C2350 H2340 0.950 . S
C2350 C2351 1.386 . S
C2350 C2352 1.391 . S
C2351 C2350 1.386 . S
C2351 C2355 1.393 . S
C2352 H2341 0.950 . S
C2352 C2350 1.391 . S
C2352 C2353 1.400 . S
C2353 C2347 1.491 . S
C2353 C2352 1.400 . S
C2353 C2354 1.398 . S
C2354 H2342 0.950 . S
C2354 C2353 1.398 . S
C2354 C2355 1.391 . S
C2355 H2343 0.950 . S
C2355 C2351 1.393 . S
C2355 C2354 1.391 . S
H2356 C2364 0.950 . S
H2357 C2369 0.942 1_455 S
H2358 C2366 0.950 . S
H2359 C2368 0.950 . S
H2360 C2370 0.950 . S
H2361 C2372 0.950 . S
H2362 C2374 0.950 . S
H2363 C2375 0.942 1_655 S
C2364 H2356 0.950 . S
C2364 C2365 1.386 . S
C2364 C2366 1.391 . S
C2365 C2364 1.386 . S
C2365 C2369 1.406 1_565 S
C2366 H2358 0.950 . S
C2366 C2364 1.391 . S
C2366 C2367 1.400 . S
C2367 C2366 1.400 . S
C2367 C2368 1.398 1_665 S
C2367 C2373 1.491 1_665 S
C2368 H2359 0.950 . S
C2368 C2367 1.398 1_445 S
C2368 C2369 1.386 1_455 S
C2369 H2357 0.942 1_655 S
C2369 C2365 1.406 1_545 S
C2369 C2368 1.386 1_655 S
C2370 H2360 0.950 . S
C2370 C2371 1.386 . S
C2370 C2372 1.391 . S
C2371 C2370 1.386 . S
C2371 C2375 1.406 1_545 S
C2372 H2361 0.950 . S
C2372 C2370 1.391 . S
C2372 C2373 1.400 . S
C2373 C2367 1.491 1_445 S
C2373 C2372 1.400 . S
C2373 C2374 1.398 1_445 S
C2374 H2362 0.950 . S
C2374 C2373 1.398 1_665 S
C2374 C2375 1.386 1_655 S
C2375 H2363 0.942 1_455 S
C2375 C2371 1.406 1_565 S
C2375 C2374 1.386 1_455 S
H2376 C2384 0.950 . S
H2377 C2389 0.950 . S
H2378 C2386 0.950 . S
H2379 C2388 0.950 . S
H2380 C2390 0.950 . S
H2381 C2392 0.950 . S
H2382 C2394 0.950 . S
H2383 C2395 0.950 . S
C2384 H2376 0.950 . S
C2384 C2385 1.386 . S
C2384 C2386 1.391 . S
C2385 C2384 1.386 . S
C2385 C2389 1.393 . S
C2386 H2378 0.950 . S
C2386 C2384 1.391 . S
C2386 C2387 1.400 . S
C2387 C2386 1.400 . S
C2387 C2388 1.398 . S
C2387 C2393 1.491 . S
C2388 H2379 0.950 . S
C2388 C2387 1.398 . S
C2388 C2389 1.391 . S
C2389 H2377 0.950 . S
C2389 C2385 1.393 . S
C2389 C2388 1.391 . S
C2390 H2380 0.950 . S
C2390 C2391 1.386 . S
C2390 C2392 1.391 . S
C2391 C2390 1.386 . S
C2391 C2395 1.393 . S
C2392 H2381 0.950 . S
C2392 C2390 1.391 . S
C2392 C2393 1.400 . S
C2393 C2387 1.491 . S
C2393 C2392 1.400 . S
C2393 C2394 1.398 . S
C2394 H2382 0.950 . S
C2394 C2393 1.398 . S
C2394 C2395 1.391 . S
C2395 H2383 0.950 . S
C2395 C2391 1.393 . S
C2395 C2394 1.391 . S
H2396 C2404 0.950 . S
H2397 C2409 0.950 . S
H2398 C2406 0.937 1_545 S
H2399 C2408 0.950 . S
H2400 C2410 0.950 . S
H2401 C2412 0.937 1_565 S
H2402 C2414 0.950 . S
H2403 C2415 0.950 . S
C2404 H2396 0.950 . S
C2404 C2405 1.386 . S
C2404 C2406 1.401 . S
C2405 C2404 1.386 . S
C2405 C2409 1.393 . S
C2406 H2398 0.937 1_565 S
C2406 C2404 1.401 . S
C2406 C2407 1.405 . S
C2407 C2406 1.405 . S
C2407 C2408 1.398 . S
C2407 C2413 1.491 1_566 S
C2408 H2399 0.950 . S
C2408 C2407 1.398 . S
C2408 C2409 1.391 . S
C2409 H2397 0.950 . S
C2409 C2405 1.393 . S
C2409 C2408 1.391 . S
C2410 H2400 0.950 . S
C2410 C2411 1.386 . S
C2410 C2412 1.401 . S
C2411 C2410 1.386 . S
C2411 C2415 1.393 . S
C2412 H2401 0.937 1_545 S
C2412 C2410 1.401 . S
C2412 C2413 1.405 . S
C2413 C2407 1.491 1_544 S
C2413 C2412 1.405 . S
C2413 C2414 1.398 . S
C2414 H2402 0.950 . S
C2414 C2413 1.398 . S
C2414 C2415 1.391 . S
C2415 H2403 0.950 . S
C2415 C2411 1.393 . S
C2415 C2414 1.391 . S
H2416 C2424 0.950 . S
H2417 C2429 0.950 . S
H2418 C2426 0.950 . S
H2419 C2428 0.950 . S
H2420 C2430 0.950 . S
H2421 C2432 0.950 . S
H2422 C2434 0.950 . S
H2423 C2435 0.950 . S
C2424 H2416 0.950 . S
C2424 C2425 1.386 . S
C2424 C2426 1.391 . S
C2425 C2424 1.386 . S
C2425 C2429 1.393 . S
C2426 H2418 0.950 . S
C2426 C2424 1.391 . S
C2426 C2427 1.400 . S
C2427 C2426 1.400 . S
C2427 C2428 1.398 . S
C2427 C2433 1.491 . S
C2428 H2419 0.950 . S
C2428 C2427 1.398 . S
C2428 C2429 1.391 . S
C2429 H2417 0.950 . S
C2429 C2425 1.393 . S
C2429 C2428 1.391 . S
C2430 H2420 0.950 . S
C2430 C2431 1.386 . S
C2430 C2432 1.391 . S
C2431 C2430 1.386 . S
C2431 C2435 1.393 . S
C2432 H2421 0.950 . S
C2432 C2430 1.391 . S
C2432 C2433 1.400 . S
C2433 C2427 1.491 . S
C2433 C2432 1.400 . S
C2433 C2434 1.398 . S
C2434 H2422 0.950 . S
C2434 C2433 1.398 . S
C2434 C2435 1.391 . S
C2435 H2423 0.950 . S
C2435 C2431 1.393 . S
C2435 C2434 1.391 . S
H2436 C2444 0.950 . S
H2437 C2449 0.950 . S
H2438 C2446 0.950 . S
H2439 C2448 0.950 1_565 S
H2440 C2450 0.950 . S
H2441 C2452 0.950 . S
H2442 C2454 0.950 1_545 S
H2443 C2455 0.950 . S
C2444 H2436 0.950 . S
C2444 C2445 1.386 . S
C2444 C2446 1.391 . S
C2445 C2444 1.386 . S
C2445 C2449 1.393 . S
C2446 H2438 0.950 . S
C2446 C2444 1.391 . S
C2446 C2447 1.400 . S
C2447 C2446 1.400 . S
C2447 C2448 1.398 . S
C2447 C2453 1.491 1_545 S
C2448 H2439 0.950 1_545 S
C2448 C2447 1.398 . S
C2448 C2449 1.391 . S
C2449 H2437 0.950 . S
C2449 C2445 1.393 . S
C2449 C2448 1.391 . S
C2450 H2440 0.950 . S
C2450 C2451 1.386 . S
C2450 C2452 1.391 . S
C2451 C2450 1.386 . S
C2451 C2455 1.393 . S
C2452 H2441 0.950 . S
C2452 C2450 1.391 . S
C2452 C2453 1.400 . S
C2453 C2447 1.491 1_565 S
C2453 C2452 1.400 . S
C2453 C2454 1.398 . S
C2454 H2442 0.950 1_565 S
C2454 C2453 1.398 . S
C2454 C2455 1.391 . S
C2455 H2443 0.950 . S
C2455 C2451 1.393 . S
C2455 C2454 1.391 . S
H2456 C2464 0.950 . S
H2457 C2469 0.950 . S
H2458 C2466 0.950 . S
H2459 C2468 0.950 . S
H2460 C2470 0.950 . S
H2461 C2472 0.950 . S
H2462 C2474 0.950 . S
H2463 C2475 0.950 . S
C2464 H2456 0.950 . S
C2464 C2465 1.386 . S
C2464 C2466 1.391 . S
C2465 C2464 1.386 . S
C2465 C2469 1.393 . S
C2466 H2458 0.950 . S
C2466 C2464 1.391 . S
C2466 C2467 1.400 . S
C2467 C2466 1.400 . S
C2467 C2468 1.398 . S
C2467 C2473 1.491 . S
C2468 H2459 0.950 . S
C2468 C2467 1.398 . S
C2468 C2469 1.391 . S
C2469 H2457 0.950 . S
C2469 C2465 1.393 . S
C2469 C2468 1.391 . S
C2470 H2460 0.950 . S
C2470 C2471 1.386 . S
C2470 C2472 1.391 . S
C2471 C2470 1.386 . S
C2471 C2475 1.393 . S
C2472 H2461 0.950 . S
C2472 C2470 1.391 . S
C2472 C2473 1.400 . S
C2473 C2467 1.491 . S
C2473 C2472 1.400 . S
C2473 C2474 1.398 . S
C2474 H2462 0.950 . S
C2474 C2473 1.398 . S
C2474 C2475 1.391 . S
C2475 H2463 0.950 . S
C2475 C2471 1.393 . S
C2475 C2474 1.391 . S
H2476 C2484 0.950 . S
H2477 C2489 0.950 . S
H2478 C2486 0.950 . S
H2479 C2488 0.950 1_545 S
H2480 C2490 0.950 . S
H2481 C2492 0.950 . S
H2482 C2494 0.950 1_565 S
H2483 C2495 0.950 . S
C2484 H2476 0.950 . S
C2484 C2485 1.386 . S
C2484 C2486 1.391 . S
C2485 C2484 1.386 . S
C2485 C2489 1.393 1_455 S
C2486 H2478 0.950 . S
C2486 C2484 1.391 . S
C2486 C2487 1.400 . S
C2487 C2486 1.400 . S
C2487 C2488 1.398 1_455 S
C2487 C2493 1.491 1_464 S
C2488 H2479 0.950 1_565 S
C2488 C2487 1.398 1_655 S
C2488 C2489 1.391 . S
C2489 H2477 0.950 . S
C2489 C2485 1.393 1_655 S
C2489 C2488 1.391 . S
C2490 H2480 0.950 . S
C2490 C2491 1.386 . S
C2490 C2492 1.391 . S
C2491 C2490 1.386 . S
C2491 C2495 1.393 1_655 S
C2492 H2481 0.950 . S
C2492 C2490 1.391 . S
C2492 C2493 1.400 . S
C2493 C2487 1.491 1_646 S
C2493 C2492 1.400 . S
C2493 C2494 1.398 1_655 S
C2494 H2482 0.950 1_545 S
C2494 C2493 1.398 1_455 S
C2494 C2495 1.391 . S
C2495 H2483 0.950 . S
C2495 C2491 1.393 1_455 S
C2495 C2494 1.391 . S
H2496 C2504 0.950 . S
H2497 C2509 0.950 . S
H2498 C2506 0.950 . S
H2499 C2508 0.950 . S
H2500 C2510 0.950 . S
H2501 C2512 0.950 . S
H2502 C2514 0.950 . S
H2503 C2515 0.950 . S
C2504 H2496 0.950 . S
C2504 C2505 1.386 . S
C2504 C2506 1.391 . S
C2505 C2504 1.386 . S
C2505 C2509 1.393 . S
C2506 H2498 0.950 . S
C2506 C2504 1.391 . S
C2506 C2507 1.400 . S
C2507 C2506 1.400 . S
C2507 C2508 1.398 . S
C2507 C2513 1.491 . S
C2508 H2499 0.950 . S
C2508 C2507 1.398 . S
C2508 C2509 1.391 . S
C2509 H2497 0.950 . S
C2509 C2505 1.393 . S
C2509 C2508 1.391 . S
C2510 H2500 0.950 . S
C2510 C2511 1.386 . S
C2510 C2512 1.391 . S
C2511 C2510 1.386 . S
C2511 C2515 1.393 . S
C2512 H2501 0.950 . S
C2512 C2510 1.391 . S
C2512 C2513 1.400 . S
C2513 C2507 1.491 . S
C2513 C2512 1.400 . S
C2513 C2514 1.398 . S
C2514 H2502 0.950 . S
C2514 C2513 1.398 . S
C2514 C2515 1.391 . S
C2515 H2503 0.950 . S
C2515 C2511 1.393 . S
C2515 C2514 1.391 . S
H2516 C2524 0.950 . S
H2517 C2529 0.950 . S
H2518 C2526 0.950 . S
H2519 C2528 0.950 . S
H2520 C2530 0.950 . S
H2521 C2532 0.950 . S
H2522 C2534 0.950 . S
H2523 C2535 0.950 . S
C2524 H2516 0.950 . S
C2524 C2525 1.386 . S
C2524 C2526 1.391 . S
C2525 C2524 1.386 . S
C2525 C2529 1.393 . S
C2526 H2518 0.950 . S
C2526 C2524 1.391 . S
C2526 C2527 1.400 . S
C2527 C2526 1.400 . S
C2527 C2528 1.398 . S
C2527 C2533 1.491 . S
C2528 H2519 0.950 . S
C2528 C2527 1.398 . S
C2528 C2529 1.391 . S
C2529 H2517 0.950 . S
C2529 C2525 1.393 . S
C2529 C2528 1.391 . S
C2530 H2520 0.950 . S
C2530 C2531 1.386 . S
C2530 C2532 1.391 . S
C2531 C2530 1.386 . S
C2531 C2535 1.393 . S
C2532 H2521 0.950 . S
C2532 C2530 1.391 . S
C2532 C2533 1.400 . S
C2533 C2527 1.491 . S
C2533 C2532 1.400 . S
C2533 C2534 1.398 . S
C2534 H2522 0.950 . S
C2534 C2533 1.398 . S
C2534 C2535 1.391 . S
C2535 H2523 0.950 . S
C2535 C2531 1.393 . S
C2535 C2534 1.391 . S
H2536 C2544 0.950 . S
H2537 C2549 0.950 . S
H2538 C2546 0.950 . S
H2539 C2548 0.950 . S
H2540 C2550 0.950 . S
H2541 C2552 0.950 . S
H2542 C2554 0.950 . S
H2543 C2555 0.950 . S
C2544 H2536 0.950 . S
C2544 C2545 1.386 . S
C2544 C2546 1.391 . S
C2545 C2544 1.386 . S
C2545 C2549 1.393 . S
C2546 H2538 0.950 . S
C2546 C2544 1.391 . S
C2546 C2547 1.400 . S
C2547 C2546 1.400 . S
C2547 C2548 1.398 . S
C2547 C2553 1.491 . S
C2548 H2539 0.950 . S
C2548 C2547 1.398 . S
C2548 C2549 1.391 . S
C2549 H2537 0.950 . S
C2549 C2545 1.393 . S
C2549 C2548 1.391 . S
C2550 H2540 0.950 . S
C2550 C2551 1.386 . S
C2550 C2552 1.391 . S
C2551 C2550 1.386 . S
C2551 C2555 1.393 . S
C2552 H2541 0.950 . S
C2552 C2550 1.391 . S
C2552 C2553 1.400 . S
C2553 C2547 1.491 . S
C2553 C2552 1.400 . S
C2553 C2554 1.398 . S
C2554 H2542 0.950 . S
C2554 C2553 1.398 . S
C2554 C2555 1.391 . S
C2555 H2543 0.950 . S
C2555 C2551 1.393 . S
C2555 C2554 1.391 . S
H2556 C2564 0.950 . S
H2557 C2569 0.950 . S
H2558 C2566 0.950 . S
H2559 C2568 0.950 . S
H2560 C2570 0.950 . S
H2561 C2572 0.950 . S
H2562 C2574 0.950 . S
H2563 C2575 0.950 . S
C2564 H2556 0.950 . S
C2564 C2565 1.386 . S
C2564 C2566 1.391 . S
C2565 C2564 1.386 . S
C2565 C2569 1.393 . S
C2566 H2558 0.950 . S
C2566 C2564 1.391 . S
C2566 C2567 1.400 . S
C2567 C2566 1.400 . S
C2567 C2568 1.398 . S
C2567 C2573 1.491 . S
C2568 H2559 0.950 . S
C2568 C2567 1.398 . S
C2568 C2569 1.391 . S
C2569 H2557 0.950 . S
C2569 C2565 1.393 . S
C2569 C2568 1.391 . S
C2570 H2560 0.950 . S
C2570 C2571 1.386 . S
C2570 C2572 1.391 . S
C2571 C2570 1.386 . S
C2571 C2575 1.393 . S
C2572 H2561 0.950 . S
C2572 C2570 1.391 . S
C2572 C2573 1.400 . S
C2573 C2567 1.491 . S
C2573 C2572 1.400 . S
C2573 C2574 1.398 . S
C2574 H2562 0.950 . S
C2574 C2573 1.398 . S
C2574 C2575 1.391 . S
C2575 H2563 0.950 . S
C2575 C2571 1.393 . S
C2575 C2574 1.391 . S
H2576 C2584 0.950 . S
H2577 C2589 0.950 . S
H2578 C2586 0.950 . S
H2579 C2588 0.950 . S
H2580 C2590 0.950 . S
H2581 C2592 0.950 . S
H2582 C2594 0.950 . S
H2583 C2595 0.950 . S
C2584 H2576 0.950 . S
C2584 C2585 1.386 . S
C2584 C2586 1.391 . S
C2585 C2584 1.386 . S
C2585 C2589 1.393 . S
C2586 H2578 0.950 . S
C2586 C2584 1.391 . S
C2586 C2587 1.400 . S
C2587 C2586 1.400 . S
C2587 C2588 1.398 . S
C2587 C2593 1.491 1_554 S
C2588 H2579 0.950 . S
C2588 C2587 1.398 . S
C2588 C2589 1.391 . S
C2589 H2577 0.950 . S
C2589 C2585 1.393 . S
C2589 C2588 1.391 . S
C2590 H2580 0.950 . S
C2590 C2591 1.386 . S
C2590 C2592 1.391 . S
C2591 C2590 1.386 . S
C2591 C2595 1.393 . S
C2592 H2581 0.950 . S
C2592 C2590 1.391 . S
C2592 C2593 1.400 . S
C2593 C2587 1.491 1_556 S
C2593 C2592 1.400 . S
C2593 C2594 1.398 . S
C2594 H2582 0.950 . S
C2594 C2593 1.398 . S
C2594 C2595 1.391 . S
C2595 H2583 0.950 . S
C2595 C2591 1.393 . S
C2595 C2594 1.391 . S
H2596 C2604 0.950 1_655 S
H2597 C2609 0.950 . S
H2598 C2606 0.950 . S
H2599 C2608 0.950 . S
H2600 C2610 0.950 1_455 S
H2601 C2612 0.950 . S
H2602 C2614 0.950 . S
H2603 C2615 0.950 . S
C2604 H2596 0.950 1_455 S
C2604 C2605 1.386 . S
C2604 C2606 1.391 1_455 S
C2605 C2604 1.386 . S
C2605 C2609 1.393 . S
C2606 H2598 0.950 . S
C2606 C2604 1.391 1_655 S
C2606 C2607 1.400 1_655 S
C2607 C2606 1.400 1_455 S
C2607 C2608 1.398 . S
C2607 C2613 1.491 1_455 S
C2608 H2599 0.950 . S
C2608 C2607 1.398 . S
C2608 C2609 1.391 . S
C2609 H2597 0.950 . S
C2609 C2605 1.393 . S
C2609 C2608 1.391 . S
C2610 H2600 0.950 1_655 S
C2610 C2611 1.386 . S
C2610 C2612 1.391 1_655 S
C2611 C2610 1.386 . S
C2611 C2615 1.393 . S
C2612 H2601 0.950 . S
C2612 C2610 1.391 1_455 S
C2612 C2613 1.400 1_455 S
C2613 C2607 1.491 1_655 S
C2613 C2612 1.400 1_655 S
C2613 C2614 1.398 . S
C2614 H2602 0.950 . S
C2614 C2613 1.398 . S
C2614 C2615 1.391 . S
C2615 H2603 0.950 . S
C2615 C2611 1.393 . S
C2615 C2614 1.391 . S
H2616 C2624 0.950 . S
H2617 C2629 0.950 . S
H2618 C2626 0.950 . S
H2619 C2628 0.950 . S
H2620 C2630 0.950 . S
H2621 C2632 0.950 . S
H2622 C2634 0.950 . S
H2623 C2635 0.950 . S
C2624 H2616 0.950 . S
C2624 C2625 1.386 . S
C2624 C2626 1.391 . S
C2625 C2624 1.386 . S
C2625 C2629 1.393 1_455 S
C2626 H2618 0.950 . S
C2626 C2624 1.391 . S
C2626 C2627 1.400 . S
C2627 C2626 1.400 . S
C2627 C2628 1.398 1_455 S
C2627 C2633 1.491 1_456 S
C2628 H2619 0.950 . S
C2628 C2627 1.398 1_655 S
C2628 C2629 1.391 . S
C2629 H2617 0.950 . S
C2629 C2625 1.393 1_655 S
C2629 C2628 1.391 . S
C2630 H2620 0.950 . S
C2630 C2631 1.386 . S
C2630 C2632 1.391 . S
C2631 C2630 1.386 . S
C2631 C2635 1.393 1_655 S
C2632 H2621 0.950 . S
C2632 C2630 1.391 . S
C2632 C2633 1.400 . S
C2633 C2627 1.491 1_654 S
C2633 C2632 1.400 . S
C2633 C2634 1.398 1_655 S
C2634 H2622 0.950 . S
C2634 C2633 1.398 1_455 S
C2634 C2635 1.391 . S
C2635 H2623 0.950 . S
C2635 C2631 1.393 1_455 S
C2635 C2634 1.391 . S
H2636 C2644 0.950 . S
H2637 C2649 0.950 . S
H2638 C2646 0.950 . S
H2639 C2648 0.950 . S
H2640 C2650 0.950 . S
H2641 C2652 0.950 . S
H2642 C2654 0.950 . S
H2643 C2655 0.950 . S
C2644 H2636 0.950 . S
C2644 C2645 1.386 . S
C2644 C2646 1.391 . S
C2645 C2644 1.386 . S
C2645 C2649 1.393 . S
C2646 H2638 0.950 . S
C2646 C2644 1.391 . S
C2646 C2647 1.400 . S
C2647 C2646 1.400 . S
C2647 C2648 1.398 . S
C2647 C2653 1.491 . S
C2648 H2639 0.950 . S
C2648 C2647 1.398 . S
C2648 C2649 1.391 . S
C2649 H2637 0.950 . S
C2649 C2645 1.393 . S
C2649 C2648 1.391 . S
C2650 H2640 0.950 . S
C2650 C2651 1.386 . S
C2650 C2652 1.391 . S
C2651 C2650 1.386 . S
C2651 C2655 1.393 . S
C2652 H2641 0.950 . S
C2652 C2650 1.391 . S
C2652 C2653 1.400 . S
C2653 C2647 1.491 . S
C2653 C2652 1.400 . S
C2653 C2654 1.398 . S
C2654 H2642 0.950 . S
C2654 C2653 1.398 . S
C2654 C2655 1.391 . S
C2655 H2643 0.950 . S
C2655 C2651 1.393 . S
C2655 C2654 1.391 . S
C1065 N607 1.080 . S
C1071 N13 1.110 . S
C1085 N46 1.101 1_655 S
C1091 N640 1.096 1_455 S
C1105 N79 1.058 . S
C1111 N541 1.087 . S
C1125 N574 1.099 . S
C1131 N112 1.098 . S
C1145 N145 1.093 . S
C1151 N739 1.103 . S
C1165 N772 1.107 . S
C1171 N178 1.088 . S
C1185 N211 1.082 . S
C1191 N673 1.060 . S
C1205 N244 1.057 . S
C1211 N706 1.089 . S
C1225 N277 1.083 . S
C1231 N871 1.060 . S
C1245 N904 1.112 1_655 S
C1251 N310 1.073 1_455 S
C1265 N343 1.110 . S
C1271 N805 1.080 . S
C1285 N376 1.077 . S
C1291 N838 1.111 . S
C1305 N409 1.082 . S
C1311 N1003 1.110 . S
C1325 N1036 1.063 . S
C1331 N442 1.111 . S
C1345 N937 1.087 . S
C1351 N475 1.107 . S
C1365 N970 1.087 1_655 S
C1371 N508 1.107 1_455 S
C1385 C384 0.743 . S
C1391 C7 0.744 . S
C1405 C813 0.719 . S
C1411 C40 0.765 . S
C1425 C73 0.736 . S
C1431 C318 0.772 . S
C1445 C879 0.784 . S
C1451 C106 0.743 . S
C1465 C450 0.762 . S
C1471 C139 0.738 . S
C1485 C172 0.747 . S
C1491 C1011 0.736 . S
C1505 C516 0.783 . S
C1511 C205 0.739 . S
C1525 C945 0.780 . S
C1531 C238 0.748 . S
C1545 C120 0.721 . S
C1551 C271 0.766 . S
C1565 C304 0.739 . S
C1571 C549 0.783 . S
C1585 C337 0.766 . S
C1591 C54 0.722 . S
C1605 C615 0.761 . S
C1611 C370 0.738 . S
C1625 C403 0.761 . S
C1631 C186 0.717 . S
C1645 C747 0.723 . S
C1651 C436 0.766 . S
C1665 C469 0.739 . S
C1671 C252 0.756 . S
C1685 C502 0.765 . S
C1691 C681 0.744 . S
C1705 C912 0.748 . S
C1711 C535 0.764 . S
C1725 C568 0.751 . S
C1731 C285 0.728 . S
C1745 C601 0.754 . S
C1751 C846 0.724 . S
C1765 C351 0.775 . S
C1771 C634 0.736 . S
C1785 C667 0.753 . S
C1791 C978 0.724 . S
C1805 C700 0.767 . S
C1811 C483 0.733 . S
C1825 C1044 0.719 . S
C1831 C733 0.759 . S
C1845 C417 0.783 . S
C1851 C766 0.739 . S
C1865 C648 0.781 . S
C1871 C799 0.748 . S
C1885 C832 0.743 . S
C1891 C21 0.784 . S
C1905 C865 0.744 . S
C1911 C582 0.742 . S
C1925 C87 0.784 . S
C1931 C898 0.739 . S
C1945 C931 0.764 . S
C1951 C714 0.748 . S
C1965 C964 0.751 . S
C1971 C219 0.727 . S
C1985 C780 0.725 . S
C1991 C997 0.753 . S
C2005 C153 0.751 . S
C2011 C1030 0.763 . S
C2025 N233 1.641 . S
C2031 N2 1.643 . S
C2045 N134 1.643 . S
C2051 N35 1.643 . S
C2065 N68 1.643 . S
C2071 N167 1.643 . S
C2085 N200 1.635 . S
C2091 N101 1.639 . S
C2105 N497 1.643 . S
C2111 N266 1.641 . S
C2125 N299 1.635 . S
C2131 N398 1.639 . S
C2145 N431 1.643 . S
C2151 N332 1.639 . S
C2165 N464 1.634 . S
C2171 N365 1.637 . S
C2185 N761 1.636 . S
C2191 N530 1.640 . S
C2205 N662 1.633 . S
C2211 N563 1.636 . S
C2225 N695 1.640 . S
C2231 N596 1.636 . S
C2245 N728 1.640 . S
C2251 N629 1.636 . S
C2265 N794 1.644 . S
C2271 N1025 1.641 . S
C2285 N827 1.642 . S
C2291 N926 1.644 . S
C2305 N860 1.639 . S
C2311 N959 1.643 . S
C2325 N992 1.643 . S
C2331 N893 1.643 . S
C2345 C18 1.128 . S
C2351 C810 1.128 . S
C2365 C315 1.145 . S
C2371 C51 1.145 . S
C2385 C876 1.146 . S
C2391 C84 1.146 . S
C2405 C117 1.136 . S
C2411 C381 1.136 . S
C2425 C150 1.146 . S
C2431 C942 1.146 . S
C2445 C183 1.139 . S
C2451 C447 1.139 . S
C2465 C1008 1.129 . S
C2471 C216 1.129 . S
C2485 C249 1.131 . S
C2491 C513 1.131 . S
C2505 C546 1.129 . S
C2511 C282 1.129 . S
C2525 C612 1.129 . S
C2531 C348 1.129 . S
C2545 C414 1.134 . S
C2551 C678 1.134 . S
C2565 C480 1.128 . S
C2571 C744 1.128 . S
C2585 C843 1.140 . S
C2591 C579 1.140 . S
C2605 C909 1.144 . S
C2611 C645 1.144 . S
C2625 C975 1.134 . S
C2631 C711 1.134 . S
C2645 C1041 1.129 . S
C2651 C777 1.129 . S
