# Generated by pormake.
# Topology snx, (6)-cn, num edge types: 1
# Building blocks:
#     Node 0, Type 0, BuildingBlock: MIDCAF_clean_sbu_0, # of connection points: 6
#     Node 1, Type 0, BuildingBlock: MIDCAF_clean_sbu_0, # of connection points: 6
#     Node 2, Type 0, BuildingBlock: MIDCAF_clean_sbu_0, # of connection points: 6
#     Node 3, Type 0, BuildingBlock: MIDCAF_clean_sbu_0, # of connection points: 6
#     Node 4, Type 0, BuildingBlock: MIDCAF_clean_sbu_0, # of connection points: 6
#     Node 5, Type 0, BuildingBlock: MIDCAF_clean_sbu_0, # of connection points: 6
#     Edge 6, Type (0, 0), BuildingBlock: ZUJKAS_clean_linker_0, # of connection points: 2
#     Edge 7, Type (0, 0), BuildingBlock: ZUJKAS_clean_linker_0, # of connection points: 2
#     Edge 8, Type (0, 0), BuildingBlock: ZUJKAS_clean_linker_0, # of connection points: 2
#     Edge 9, Type (0, 0), BuildingBlock: ZUJKAS_clean_linker_0, # of connection points: 2
#     Edge 10, Type (0, 0), BuildingBlock: ZUJKAS_clean_linker_0, # of connection points: 2
#     Edge 11, Type (0, 0), BuildingBlock: ZUJKAS_clean_linker_0, # of connection points: 2
#     Edge 12, Type (0, 0), BuildingBlock: ZUJKAS_clean_linker_0, # of connection points: 2
#     Edge 13, Type (0, 0), BuildingBlock: ZUJKAS_clean_linker_0, # of connection points: 2
#     Edge 14, Type (0, 0), BuildingBlock: ZUJKAS_clean_linker_0, # of connection points: 2
#     Edge 15, Type (0, 0), BuildingBlock: ZUJKAS_clean_linker_0, # of connection points: 2
#     Edge 16, Type (0, 0), BuildingBlock: ZUJKAS_clean_linker_0, # of connection points: 2
#     Edge 17, Type (0, 0), BuildingBlock: ZUJKAS_clean_linker_0, # of connection points: 2
#     Edge 18, Type (0, 0), BuildingBlock: ZUJKAS_clean_linker_0, # of connection points: 2
#     Edge 19, Type (0, 0), BuildingBlock: ZUJKAS_clean_linker_0, # of connection points: 2
#     Edge 20, Type (0, 0), BuildingBlock: ZUJKAS_clean_linker_0, # of connection points: 2
#     Edge 21, Type (0, 0), BuildingBlock: ZUJKAS_clean_linker_0, # of connection points: 2
#     Edge 22, Type (0, 0), BuildingBlock: ZUJKAS_clean_linker_0, # of connection points: 2
#     Edge 23, Type (0, 0), BuildingBlock: ZUJKAS_clean_linker_0, # of connection points: 2
# Relax obj value: 0.219
# Max RMSD: 0.238
# Mean RMSD: 0.238
data_MOF--net-snx--node1-MIDCAF_clean_sbu_0--edge1-ZUJKAS_clean_linker_0
_symmetry_space_group_name_H-M    P1
_symmetry_Int_Tables_number       1
_symmetry_cell_setting            triclinic
loop_
_symmetry_equiv_pos_as_xyz
'x, y, z'
_cell_length_a     43.561652
_cell_length_b     43.387971
_cell_length_c     28.451214
_cell_angle_alpha  90.071782
_cell_angle_beta   89.944323
_cell_angle_gamma 120.00056
loop_
_atom_site_label
_atom_site_type_symbol
_atom_site_fract_x
_atom_site_fract_y
_atom_site_fract_z
_atom_type_partial_charge
Zn0 Zn 0.09302 0.34626 0.22696 0.0
Zn1 Zn 0.25756 0.37159 0.21164 0.0
Zn2 Zn 0.19204 0.35348 0.22188 0.0
C3 C 0.22234 0.32594 0.13764 0.0
C4 C 0.23087 0.33075 0.29625 0.0
O5 O 0.18196 0.40093 0.22368 0.0
O6 O 0.12861 0.39935 0.225 0.0
C7 C 0.13168 0.31715 0.16272 0.0
O8 O 0.19629 0.32615 0.15876 0.0
O9 O 0.25369 0.34563 0.15199 0.0
O10 O 0.25866 0.348 0.27181 0.0
O11 O 0.20194 0.3296 0.2838 0.0
O12 O 0.12642 0.33277 0.19654 0.0
O13 O 0.1625 0.32076 0.16133 0.0
O14 O 0.16678 0.32214 0.28437 0.0
O15 O 0.12967 0.33406 0.25122 0.0
C16 C 0.13584 0.3183 0.28401 0.0
O17 O 0.22116 0.41175 0.22219 0.0
O18 O 0.27631 0.42371 0.21111 0.0
C19 C 0.16266 0.41625 0.22442 0.0
C20 C 0.25434 0.43426 0.21718 0.0
Zn21 Zn 0.76715 0.12793 0.71067 0.0
Zn22 Zn 0.8885 0.24321 0.72625 0.0
Zn23 Zn 0.82955 0.18357 0.72112 0.0
C24 C 0.89592 0.20552 0.65277 0.0
C25 C 0.88086 0.20727 0.81034 0.0
O26 O 0.78791 0.19893 0.71802 0.0
O27 O 0.73646 0.14867 0.72076 0.0
C28 C 0.80478 0.12854 0.6331 0.0
O29 O 0.86271 0.18518 0.66151 0.0
O30 O 0.91451 0.23231 0.6783 0.0
O31 O 0.89812 0.23803 0.79284 0.0
O32 O 0.85478 0.18205 0.78773 0.0
O33 O 0.7729 0.11458 0.64616 0.0
O34 O 0.82957 0.15383 0.65739 0.0
O35 O 0.82265 0.14951 0.7822 0.0
O36 O 0.7729 0.10083 0.76254 0.0
C37 C 0.79898 0.11685 0.78998 0.0
O38 O 0.82066 0.23022 0.7215 0.0
O39 O 0.8733 0.27808 0.71141 0.0
C40 C 0.75375 0.1822 0.71972 0.0
C41 C 0.8402 0.26419 0.71593 0.0
Zn42 Zn 0.63879 0.88757 0.25534 0.0
Zn43 Zn 0.62394 0.76389 0.21696 0.0
Zn44 Zn 0.63344 0.82754 0.23802 0.0
C45 C 0.66274 0.78791 0.30218 0.0
C46 C 0.66521 0.80752 0.1458 0.0
O47 O 0.57967 0.82245 0.23745 0.0
O48 O 0.59116 0.87819 0.23765 0.0
C49 C 0.66471 0.87295 0.3338 0.0
O50 O 0.65689 0.81394 0.2965 0.0
O51 O 0.65215 0.7633 0.27196 0.0
O52 O 0.64731 0.77473 0.15495 0.0
O53 O 0.66353 0.83044 0.173 0.0
O54 O 0.65135 0.89187 0.32271 0.0
O55 O 0.66196 0.84838 0.30568 0.0
O56 O 0.66715 0.8639 0.18229 0.0
O57 O 0.67834 0.91577 0.21133 0.0
C58 C 0.68381 0.89814 0.1805 0.0
O59 O 0.57533 0.78824 0.23435 0.0
O60 O 0.57169 0.73633 0.21954 0.0
C61 C 0.56905 0.84537 0.23502 0.0
C62 C 0.55678 0.75431 0.22753 0.0
Zn63 Zn 0.87074 0.64658 0.74841 0.0
Zn64 Zn 0.7497 0.6361 0.78265 0.0
Zn65 Zn 0.81169 0.64437 0.76243 0.0
C66 C 0.77493 0.67674 0.69943 0.0
C67 C 0.79277 0.67614 0.8548 0.0
O68 O 0.80547 0.58999 0.76549 0.0
O69 O 0.85997 0.599 0.77134 0.0
C70 C 0.85413 0.66772 0.66525 0.0
O71 O 0.79888 0.66779 0.70279 0.0
O72 O 0.75168 0.66802 0.73109 0.0
O73 O 0.76002 0.65655 0.84702 0.0
O74 O 0.81561 0.67596 0.82614 0.0
O75 O 0.87227 0.65425 0.67951 0.0
O76 O 0.83098 0.66863 0.6925 0.0
O77 O 0.84894 0.6807 0.81511 0.0
O78 O 0.90015 0.68964 0.78719 0.0
C79 C 0.88302 0.69746 0.81592 0.0
O80 O 0.77221 0.58688 0.77065 0.0
O81 O 0.72007 0.58395 0.77442 0.0
C82 C 0.82695 0.57792 0.77105 0.0
C83 C 0.7381 0.56854 0.77278 0.0
Zn84 Zn 0.26432 0.90859 0.25209 0.0
Zn85 Zn 0.09977 0.7421 0.253 0.0
Zn86 Zn 0.15534 0.80167 0.2544 0.0
C87 C 0.09854 0.78173 0.17467 0.0
C88 C 0.09908 0.77975 0.33476 0.0
O89 O 0.20124 0.79425 0.25708 0.0
O90 O 0.23114 0.85215 0.25465 0.0
C91 C 0.19278 0.86384 0.19172 0.0
O92 O 0.12939 0.80433 0.19036 0.0
O93 O 0.08001 0.75242 0.19563 0.0
O94 O 0.08338 0.74925 0.31592 0.0
O95 O 0.12757 0.80492 0.31644 0.0
O96 O 0.2137 0.86939 0.22622 0.0
O97 O 0.16333 0.8344 0.19193 0.0
O98 O 0.16156 0.83667 0.31305 0.0
O99 O 0.21315 0.87019 0.28032 0.0
C100 C 0.19101 0.86615 0.31279 0.0
O101 O 0.17152 0.76046 0.25615 0.0
O102 O 0.12049 0.71053 0.2466 0.0
C103 C 0.23145 0.82282 0.25582 0.0
C104 C 0.15375 0.72639 0.25114 0.0
Zn105 Zn 0.37373 0.23537 0.75093 0.0
Zn106 Zn 0.37993 0.11516 0.7314 0.0
Zn107 Zn 0.37189 0.17226 0.74255 0.0
C108 C 0.34512 0.12157 0.65185 0.0
C109 C 0.3359 0.10353 0.81023 0.0
O110 O 0.42697 0.21829 0.74857 0.0
O111 O 0.42537 0.26852 0.75076 0.0
C112 C 0.33618 0.20184 0.66883 0.0
O113 O 0.34544 0.1466 0.67653 0.0
O114 O 0.36064 0.10535 0.66624 0.0
O115 O 0.34722 0.08796 0.78379 0.0
O116 O 0.34368 0.13579 0.8016 0.0
O117 O 0.34694 0.23008 0.69234 0.0
O118 O 0.34303 0.17756 0.6821 0.0
O119 O 0.34199 0.16716 0.80646 0.0
O120 O 0.34814 0.22096 0.81207 0.0
C121 C 0.33626 0.18985 0.82802 0.0
O122 O 0.42845 0.18728 0.73968 0.0
O123 O 0.43206 0.13813 0.7404 0.0
C124 C 0.44287 0.25255 0.75104 0.0
C125 C 0.447 0.17164 0.73996 0.0
H126 H 0.20737 0.46146 0.29093 0.0
H127 H 0.2276 0.5253 0.29866 0.0
H128 H 0.17342 0.52111 0.16986 0.0
H129 H 0.15459 0.45797 0.16129 0.0
H130 H 0.23755 0.58529 0.18087 0.0
H131 H 0.15279 0.54965 0.34109 0.0
H132 H 0.18792 0.53936 0.34195 0.0
H133 H 0.15148 0.51631 0.30196 0.0
C134 C 0.201 0.47468 0.26355 0.0
C135 C 0.18 0.45526 0.22519 0.0
C136 C 0.21215 0.51091 0.26822 0.0
C137 C 0.20151 0.52778 0.2352 0.0
C138 C 0.18201 0.50867 0.19567 0.0
H139 H 0.15133 0.68485 0.17921 0.0
H140 H 0.17359 0.64314 0.17795 0.0
C141 C 0.17117 0.47265 0.19085 0.0
C142 C 0.20669 0.56377 0.24388 0.0
H143 H 0.17541 0.60704 0.31167 0.0
C144 C 0.22467 0.59039 0.21006 0.0
C145 C 0.18982 0.57037 0.28198 0.0
C146 C 0.16919 0.54244 0.31874 0.0
C147 C 0.22508 0.62292 0.21233 0.0
C148 C 0.20604 0.62845 0.24851 0.0
C149 C 0.18999 0.60276 0.28393 0.0
C150 C 0.19792 0.65781 0.24683 0.0
C151 C 0.24514 0.65067 0.17528 0.0
C152 C 0.2037 0.67967 0.28621 0.0
C153 C 0.19054 0.70324 0.28708 0.0
C154 C 0.17165 0.70536 0.24854 0.0
C155 C 0.16645 0.68406 0.20893 0.0
C156 C 0.1795 0.66053 0.20804 0.0
H157 H 0.26822 0.6488 0.16229 0.0
H158 H 0.22742 0.64608 0.14487 0.0
H159 H 0.25471 0.67798 0.1889 0.0
H160 H 0.21721 0.67751 0.31689 0.0
H161 H 0.19373 0.7186 0.31859 0.0
H162 H 0.70038 0.17001 0.77836 0.0
H163 H 0.66228 0.19629 0.77544 0.0
H164 H 0.72429 0.26393 0.66081 0.0
H165 H 0.76233 0.23688 0.66316 0.0
H166 H 0.67549 0.26936 0.77918 0.0
H167 H 0.62247 0.20111 0.60721 0.0
H168 H 0.64883 0.18938 0.64385 0.0
H169 H 0.66928 0.23135 0.61388 0.0
C170 C 0.70617 0.19086 0.75304 0.0
C171 C 0.7342 0.20161 0.72113 0.0
C172 C 0.68463 0.20604 0.75159 0.0
C173 C 0.69044 0.23195 0.71784 0.0
C174 C 0.71935 0.24387 0.687 0.0
H175 H 0.48748 0.22368 0.67765 0.0
H176 H 0.5522 0.25357 0.66884 0.0
C177 C 0.74107 0.2286 0.68851 0.0
C178 C 0.66316 0.24241 0.71236 0.0
H179 H 0.58633 0.21533 0.65191 0.0
C180 C 0.65648 0.25864 0.75063 0.0
C181 C 0.63874 0.22894 0.6747 0.0
C182 C 0.6449 0.21164 0.63246 0.0
C183 C 0.62414 0.25811 0.75464 0.0
C184 C 0.5979 0.24053 0.71984 0.0
C185 C 0.60638 0.22839 0.67884 0.0
C186 C 0.56001 0.22791 0.72918 0.0
C187 C 0.61746 0.27435 0.79744 0.0
C188 C 0.54295 0.2033 0.76561 0.0
C189 C 0.50613 0.18562 0.76983 0.0
C190 C 0.48584 0.19271 0.73819 0.0
C191 C 0.50283 0.2182 0.70273 0.0
C192 C 0.5397 0.23539 0.69788 0.0
H193 H 0.64259 0.29663 0.8115 0.0
H194 H 0.5992 0.2844 0.78913 0.0
H195 H 0.60523 0.25386 0.82534 0.0
H196 H 0.55797 0.19629 0.78926 0.0
H197 H 0.49343 0.16586 0.79719 0.0
H198 H 0.27618 0.47039 0.29841 0.0
H199 H 0.31658 0.53447 0.30688 0.0
H200 H 0.3089 0.54821 0.15806 0.0
H201 H 0.26789 0.48397 0.14984 0.0
H202 H 0.37941 0.55903 0.25785 0.0
H203 H 0.31757 0.64049 0.2143 0.0
H204 H 0.29244 0.59507 0.23491 0.0
H205 H 0.30702 0.60407 0.17487 0.0
C206 C 0.28186 0.48742 0.26799 0.0
C207 C 0.2687 0.47261 0.22363 0.0
C208 C 0.30494 0.52396 0.2728 0.0
C209 C 0.31566 0.5462 0.23317 0.0
C210 C 0.30045 0.53174 0.18928 0.0
H211 H 0.50991 0.73156 0.15542 0.0
H212 H 0.44718 0.6851 0.15978 0.0
C213 C 0.27714 0.49507 0.18452 0.0
C214 C 0.34784 0.58195 0.2361 0.0
H215 H 0.38103 0.67065 0.215 0.0
C216 C 0.37962 0.58347 0.24917 0.0
C217 C 0.34813 0.61372 0.22417 0.0
C218 C 0.31446 0.61352 0.21159 0.0
C219 C 0.4118 0.61567 0.24962 0.0
C220 C 0.41227 0.64749 0.2374 0.0
C221 C 0.3805 0.64621 0.22462 0.0
C222 C 0.44624 0.68166 0.23566 0.0
C223 C 0.44533 0.61518 0.2617 0.0
C224 C 0.46591 0.69615 0.27697 0.0
C225 C 0.50166 0.72241 0.27444 0.0
C226 C 0.51794 0.73506 0.23066 0.0
C227 C 0.49758 0.7226 0.18955 0.0
C228 C 0.46183 0.69616 0.19204 0.0
H229 H 0.4413 0.58779 0.26144 0.0
H230 H 0.46686 0.63172 0.23656 0.0
H231 H 0.45423 0.62646 0.2974 0.0
H232 H 0.45434 0.68523 0.31093 0.0
H233 H 0.51714 0.73124 0.30647 0.0
H234 H 0.78269 0.52636 0.71021 0.0
H235 H 0.77137 0.46509 0.70611 0.0
H236 H 0.83039 0.48188 0.83459 0.0
H237 H 0.84319 0.54355 0.83712 0.0
H238 H 0.85664 0.46127 0.76969 0.0
H239 H 0.71156 0.36984 0.7651 0.0
H240 H 0.72583 0.40398 0.72135 0.0
H241 H 0.73099 0.41586 0.78265 0.0
C242 C 0.79238 0.5165 0.73812 0.0
C243 C 0.8138 0.53944 0.77396 0.0
C244 C 0.78565 0.48139 0.73603 0.0
C245 C 0.79978 0.46858 0.77024 0.0
C246 C 0.81918 0.49103 0.80777 0.0
H247 H 0.79347 0.2637 0.78025 0.0
H248 H 0.77802 0.31048 0.79218 0.0
C249 C 0.82651 0.52624 0.80927 0.0
C250 C 0.79974 0.43456 0.76305 0.0
H251 H 0.74792 0.34593 0.73749 0.0
C252 C 0.8327 0.43604 0.76332 0.0
C253 C 0.7686 0.40145 0.75474 0.0
C254 C 0.73223 0.39756 0.75643 0.0
C255 C 0.83557 0.40583 0.75482 0.0
C256 C 0.80477 0.37319 0.74402 0.0
C257 C 0.77156 0.37117 0.74493 0.0
C258 C 0.80736 0.34135 0.73165 0.0
C259 C 0.87177 0.4092 0.75771 0.0
C260 C 0.82757 0.34245 0.69255 0.0
C261 C 0.8367 0.31615 0.6861 0.0
C262 C 0.82501 0.28782 0.71792 0.0
C263 C 0.80254 0.28522 0.75506 0.0
C264 C 0.7937 0.31184 0.76185 0.0
H265 H 0.89054 0.43283 0.77863 0.0
H266 H 0.8702 0.38514 0.77376 0.0
H267 H 0.88284 0.41234 0.72176 0.0
H268 H 0.83797 0.36477 0.6685 0.0
H269 H 0.85402 0.31865 0.6572 0.0
H270 H 0.54057 0.87771 0.18455 0.0
H271 H 0.47943 0.8656 0.18663 0.0
H272 H 0.45095 0.77642 0.2789 0.0
H273 H 0.51287 0.79006 0.279 0.0
H274 H 0.4147 0.80808 0.16394 0.0
H275 H 0.42326 0.83789 0.35531 0.0
H276 H 0.46162 0.84707 0.32071 0.0
H277 H 0.43115 0.80238 0.3394 0.0
C278 C 0.52113 0.85524 0.20479 0.0
C279 C 0.53117 0.83428 0.23093 0.0
C280 C 0.48621 0.84828 0.20585 0.0
C281 C 0.46071 0.82039 0.23336 0.0
C282 C 0.47029 0.79836 0.25787 0.0
H283 H 0.24366 0.77178 0.29086 0.0
H284 H 0.29775 0.76796 0.28423 0.0
C285 C 0.50541 0.80555 0.25706 0.0
C286 C 0.42492 0.81622 0.23828 0.0
H287 H 0.36965 0.82327 0.31741 0.0
C288 C 0.40474 0.81116 0.19753 0.0
C289 C 0.41205 0.82044 0.28217 0.0
C290 C 0.43319 0.82755 0.32689 0.0
C291 C 0.37229 0.81066 0.19942 0.0
C292 C 0.35989 0.8156 0.24309 0.0
C293 C 0.37943 0.81959 0.28401 0.0
C294 C 0.32714 0.81774 0.24678 0.0
C295 C 0.3515 0.80505 0.15477 0.0
C296 C 0.32603 0.84725 0.22866 0.0
C297 C 0.29511 0.84936 0.23247 0.0
C298 C 0.2648 0.82182 0.25411 0.0
C299 C 0.26629 0.79271 0.27293 0.0
C300 C 0.29723 0.79071 0.26949 0.0
H301 H 0.36108 0.79483 0.12579 0.0
H302 H 0.32289 0.78606 0.16076 0.0
H303 H 0.3542 0.83077 0.14348 0.0
H304 H 0.3491 0.86863 0.2116 0.0
H305 H 0.29469 0.87214 0.21768 0.0
H306 H 0.68286 0.52555 0.71768 0.0
H307 H 0.64718 0.46068 0.72067 0.0
H308 H 0.71462 0.45844 0.82998 0.0
H309 H 0.75041 0.52391 0.82729 0.0
H310 H 0.66738 0.40444 0.71284 0.0
H311 H 0.61129 0.41144 0.88639 0.0
H312 H 0.63379 0.45038 0.8496 0.0
H313 H 0.65861 0.43311 0.87836 0.0
C314 C 0.69033 0.51115 0.74188 0.0
C315 C 0.7194 0.52945 0.77199 0.0
C316 C 0.67013 0.47418 0.74339 0.0
C317 C 0.67829 0.45485 0.77552 0.0
C318 C 0.70795 0.47295 0.80494 0.0
H319 H 0.48646 0.24734 0.81527 0.0
H320 H 0.5504 0.28864 0.82511 0.0
C321 C 0.7284 0.51016 0.8032 0.0
C322 C 0.65321 0.41628 0.78024 0.0
H323 H 0.5784 0.36012 0.84116 0.0
C324 C 0.64856 0.39423 0.74165 0.0
C325 C 0.62896 0.40292 0.8181 0.0
C326 C 0.63312 0.42551 0.86061 0.0
C327 C 0.61844 0.36034 0.73794 0.0
C328 C 0.59195 0.34881 0.773 0.0
C329 C 0.59856 0.36918 0.81402 0.0
C330 C 0.55503 0.32025 0.76381 0.0
C331 C 0.61429 0.33804 0.69523 0.0
C332 C 0.53639 0.32452 0.72652 0.0
C333 C 0.50002 0.30166 0.72166 0.0
C334 C 0.48169 0.27378 0.75358 0.0
C335 C 0.50033 0.26854 0.78998 0.0
C336 C 0.53676 0.29195 0.79545 0.0
H337 H 0.64051 0.3435 0.68184 0.0
H338 H 0.59799 0.3093 0.70331 0.0
H339 H 0.60108 0.34466 0.66687 0.0
H340 H 0.54962 0.34677 0.70255 0.0
H341 H 0.486 0.30627 0.6936 0.0
H342 H 0.2701 0.1324 0.83929 0.0
H343 H 0.22657 0.12756 0.89845 0.0
H344 H 0.30819 0.22123 0.96803 0.0
H345 H 0.35112 0.22626 0.90917 0.0
H346 H 0.2532 0.16628 0.02973 0.0
H347 H 0.20231 0.20934 0.87818 0.0
H348 H 0.20424 0.16887 0.87479 0.0
H349 H 0.24448 0.21111 0.87413 0.0
C350 C 0.27883 0.15096 0.86844 0.0
C351 C 0.31366 0.17989 0.86984 0.0
C352 C 0.25402 0.14827 0.90196 0.0
C353 C 0.26417 0.17433 0.9371 0.0
C354 C 0.29988 0.20083 0.9412 0.0
H355 H 0.26384 0.33279 0.06267 0.0
H356 H 0.2591 0.28486 0.01232 0.0
C357 C 0.32438 0.20377 0.90759 0.0
C358 C 0.23795 0.17921 0.96407 0.0
H359 H 0.19602 0.22745 0.95338 0.0
C360 C 0.23914 0.17815 0.01326 0.0
C361 C 0.21978 0.19477 0.94224 0.0
C362 C 0.21744 0.19625 0.88944 0.0
C363 C 0.22627 0.19596 0.04105 0.0
C364 C 0.21204 0.21516 0.01881 0.0
C365 C 0.20708 0.2127 0.97006 0.0
C366 C 0.21041 0.24406 0.04389 0.0
C367 C 0.23154 0.19752 0.09358 0.0
C368 C 0.18391 0.23698 0.07706 0.0
C369 C 0.18647 0.26444 0.10561 0.0
C370 C 0.21559 0.29914 0.10129 0.0
C371 C 0.24105 0.30635 0.06641 0.0
C372 C 0.23833 0.27904 0.03772 0.0
H373 H 0.2421 0.18024 0.10551 0.0
H374 H 0.2503 0.22534 0.10444 0.0
H375 H 0.20595 0.18903 0.11166 0.0
H376 H 0.16227 0.21008 0.08229 0.0
H377 H 0.16686 0.25808 0.13294 0.0
H378 H 0.96307 0.218 0.64832 0.0
H379 H 0.99596 0.22025 0.57776 0.0
H380 H 0.90072 0.18149 0.49504 0.0
H381 H 0.86776 0.18021 0.56575 0.0
H382 H 0.99005 0.17351 0.5015 0.0
H383 H 0.96785 0.28473 0.44938 0.0
H384 H 0.9579 0.26591 0.50765 0.0
H385 H 0.92909 0.2421 0.45947 0.0
C386 C 0.94896 0.20919 0.61525 0.0
C387 C 0.91298 0.19914 0.61226 0.0
C388 C 0.96771 0.21022 0.57508 0.0
C389 C 0.95083 0.20147 0.53126 0.0
C390 C 0.91418 0.18856 0.52866 0.0
H391 H 0.06522 0.28507 0.26957 0.0
H392 H 0.01802 0.24995 0.32545 0.0
C393 C 0.89533 0.18754 0.56903 0.0
C394 C 0.97298 0.21152 0.48853 0.0
H395 H 0.00761 0.27599 0.40447 0.0
C396 C 0.99353 0.19549 0.47964 0.0
C397 C 0.97763 0.24046 0.46057 0.0
C398 C 0.95721 0.25958 0.46969 0.0
C399 C 0.01919 0.20816 0.44385 0.0
C400 C 0.02474 0.238 0.41717 0.0
C401 C 0.00327 0.25312 0.42504 0.0
C402 C 0.05349 0.25525 0.38207 0.0
C403 C 0.04022 0.1897 0.43522 0.0
C404 C 0.08919 0.26977 0.39531 0.0
C405 C 0.11633 0.28984 0.36325 0.0
C406 C 0.10802 0.29605 0.31789 0.0
C407 C 0.07234 0.28103 0.30458 0.0
C408 C 0.04534 0.26074 0.3363 0.0
H409 H 0.02568 0.16168 0.44761 0.0
H410 H 0.04646 0.18996 0.39732 0.0
H411 H 0.06554 0.20374 0.45494 0.0
H412 H 0.09608 0.26672 0.43088 0.0
H413 H 0.14365 0.30156 0.37444 0.0
H414 H 0.77258 0.04577 0.79595 0.0
H415 H 0.76837 0.01126 0.86557 0.0
H416 H 0.82743 0.10832 0.9451 0.0
H417 H 0.82908 0.14288 0.87613 0.0
H418 H 0.81232 0.00536 0.92696 0.0
H419 H 0.73526 0.05949 0.0154 0.0
H420 H 0.74743 0.06763 0.95429 0.0
H421 H 0.77948 0.09251 -0.00081 0.0
C422 C 0.78488 0.05981 0.82821 0.0
C423 C 0.80131 0.0971 0.83065 0.0
C424 C 0.78276 0.04005 0.86784 0.0
C425 C 0.79712 0.05716 0.91068 0.0
C426 C 0.81566 0.09455 0.91251 0.0
H427 H 0.74354 0.96216 0.18713 0.0
H428 H 0.77941 1.00016 0.12255 0.0
C429 C 0.81721 0.11436 0.87292 0.0
C430 C 0.78896 0.03545 0.95388 0.0
H431 H 0.74283 0.01726 0.05666 0.0
C432 C 0.79749 0.00819 0.95565 0.0
C433 C 0.76912 0.03887 -0.00909 0.0
C434 C 0.75696 0.06594 0.98985 0.0
C435 C 0.78625 0.98395 -0.00679 0.0
C436 C 0.76616 0.98728 0.02972 0.0
C437 C 0.75857 0.01509 0.02865 0.0
C438 C 0.75055 0.96128 0.06838 0.0
C439 C 0.79549 0.95477 -0.00662 0.0
C440 C 0.72315 0.92642 0.05928 0.0
C441 C 0.70251 0.90463 0.09622 0.0
C442 C 0.70901 0.91763 0.14247 0.0
C443 C 0.73788 0.95165 0.15165 0.0
C444 C 0.75851 0.97327 0.11492 0.0
H445 H 0.81809 0.96098 0.96957 0.0
H446 H 0.80223 0.95028 0.02942 0.0
H447 H 0.77224 0.92962 0.98118 0.0
H448 H 0.71615 0.91696 0.02348 0.0
H449 H 0.68008 0.87869 0.08826 0.0
H450 H 0.66298 0.81161 0.39136 0.0
H451 H 0.69286 0.80508 0.46048 0.0
H452 H 0.73475 0.75238 0.37509 0.0
H453 H 0.70587 0.75973 0.30594 0.0
H454 H 0.67678 0.73739 0.49184 0.0
H455 H 0.82066 0.82068 0.45551 0.0
H456 H 0.78761 0.8272 0.42602 0.0
H457 H 0.79561 0.79219 0.40761 0.0
C458 C 0.67954 0.79976 0.38715 0.0
C459 C 0.68248 0.78655 0.34335 0.0
C460 C 0.6964 0.79584 0.4266 0.0
C461 C 0.71651 0.77882 0.42263 0.0
C462 C 0.72009 0.76637 0.37866 0.0
H463 H 0.79169 0.67342 0.60737 0.0
H464 H 0.78171 0.70294 0.54017 0.0
C465 C 0.70322 0.77019 0.33936 0.0
C466 C 0.72974 0.76965 0.46507 0.0
H467 H 0.80398 0.77653 0.51573 0.0
C468 C 0.70464 0.74636 0.49748 0.0
C469 C 0.76604 0.78106 0.47179 0.0
C470 C 0.79412 0.80692 0.43861 0.0
C471 C 0.71468 0.73324 0.53582 0.0
C472 C 0.75096 0.7444 0.54246 0.0
C473 C 0.77622 0.76807 0.51041 0.0
C474 C 0.76266 0.73135 0.58267 0.0
C475 C 0.68619 0.70658 0.56801 0.0
C476 C 0.7566 0.73879 0.62855 0.0
C477 C 0.76196 0.72187 0.66655 0.0
C478 C 0.7741 0.69772 0.65939 0.0
C479 C 0.78256 0.69213 0.61372 0.0
C480 C 0.77681 0.70888 0.57545 0.0
H481 H 0.65952 0.69427 0.55153 0.0
H482 H 0.69172 0.68509 0.57798 0.0
H483 H 0.68545 0.72026 0.60061 0.0
H484 H 0.7463 0.75657 0.6348 0.0
H485 H 0.75573 0.72699 0.70156 0.0
H486 H 0.87268 0.69463 0.91026 0.0
H487 H 0.91429 0.73581 0.96822 0.0
H488 H 0.9789 0.80559 0.85654 0.0
H489 H 0.93831 0.76306 0.79863 0.0
H490 H 0.01662 0.78937 0.90439 0.0
H491 H 0.94785 0.82668 0.0341 0.0
H492 H 0.92241 0.77941 0.02743 0.0
H493 H 0.92798 0.80781 0.97793 0.0
C494 C 0.89522 0.71931 0.89837 0.0
C495 C 0.90277 0.72568 0.85037 0.0
C496 C 0.91883 0.74316 0.93147 0.0
C497 C 0.94977 0.77415 0.91691 0.0
C498 C 0.95532 0.78195 0.86871 0.0
H499 H 0.11382 0.84727 0.1412 0.0
H500 H 0.08435 0.85921 0.07559 0.0
C501 C 0.93225 0.75765 0.83569 0.0
C502 C 0.97935 0.79344 0.9506 0.0
H503 H 0.99449 0.81466 0.06695 0.0
C504 C 0.01218 0.7964 0.93932 0.0
C505 C 0.97419 0.80324 -0.00386 0.0
C506 C 0.94125 0.80446 0.00922 0.0
C507 C 0.03798 0.80446 0.97377 0.0
C508 C 0.03057 0.80917 0.02055 0.0
C509 C 0.99978 0.8105 0.03093 0.0
C510 C 0.04955 0.80359 0.05931 0.0
C511 C 0.07152 0.80431 0.96105 0.0
C512 C 0.03987 0.76854 0.07092 0.0
C513 C 0.05661 0.7617 0.10763 0.0
C514 C 0.08351 0.78985 0.13336 0.0
C515 C 0.09364 0.82514 0.12128 0.0
C516 C 0.07663 0.832 0.08435 0.0
H517 H 0.07715 0.80847 0.92277 0.0
H518 H 0.09448 0.82532 0.98077 0.0
H519 H 0.06862 0.7782 0.97074 0.0
H520 H 0.01903 0.74637 0.05168 0.0
H521 H 0.04825 0.73428 0.11614 0.0
H522 H 0.27743 0.1071 0.63899 0.0
H523 H 0.23735 0.07076 0.57552 0.0
H524 H 0.32428 0.06815 0.50675 0.0
H525 H 0.36419 0.10429 0.56991 0.0
H526 H 0.26504 0.07284 0.44621 0.0
H527 H 0.22294 0.96379 0.57803 0.0
H528 H 0.22471 0.0049 0.59385 0.0
H529 H 0.26503 0.00434 0.58368 0.0
C530 C 0.28819 0.10019 0.60911 0.0
C531 C 0.32379 0.1086 0.60886 0.0
C532 C 0.26529 0.07924 0.5732 0.0
C533 C 0.27798 0.0668 0.53676 0.0
C534 C 0.31415 0.07773 0.53455 0.0
H535 H 0.2516 0.93038 0.3197 0.0
H536 H 0.26399 0.9792 0.37243 0.0
C537 C 0.33686 0.09826 0.57057 0.0
C538 C 0.25347 0.03787 0.50536 0.0
H539 H 0.20947 0.94728 0.49916 0.0
C540 C 0.25202 0.04536 0.45782 0.0
C541 C 0.23633 1.00215 0.52088 0.0
C542 C 0.23715 0.99298 0.57185 0.0
C543 C 0.23564 0.01781 0.42474 0.0
C544 C 0.22153 0.9821 0.43962 0.0
C545 C 0.22051 0.97465 0.48774 0.0
C546 C 0.2124 0.95276 0.40582 0.0
C547 C 0.23466 0.02733 0.37402 0.0
C548 C 0.17977 0.92087 0.40831 0.0
C549 C 0.17281 0.89241 0.37848 0.0
C550 C 0.19839 0.8954 0.34579 0.0
C551 C 0.23111 0.92722 0.34391 0.0
C552 C 0.2381 0.95545 0.37376 0.0
H553 H 0.233 0.052 0.37129 0.0
H554 H 0.25951 0.03248 0.35636 0.0
H555 H 0.21182 0.00557 0.35504 0.0
H556 H 0.15981 0.91795 0.43347 0.0
H557 H 0.14752 0.86814 0.38109 0.0
H558 H 0.73469 0.85946 0.14895 0.0
H559 H 0.78162 0.86377 0.09664 0.0
H560 H 0.70222 0.78284 0.00725 0.0
H561 H 0.65573 0.77836 0.05932 0.0
H562 H 0.78837 0.80376 0.08748 0.0
H563 H 0.77529 0.84854 0.91152 0.0
H564 H 0.75899 0.85927 0.96395 0.0
H565 H 0.73242 0.81734 0.93436 0.0
C566 C 0.72734 0.84387 0.11691 0.0
C567 C 0.69168 0.81864 0.1079 0.0
C568 C 0.75414 0.8462 0.08724 0.0
C569 C 0.74546 0.8238 0.04785 0.0
C570 C 0.70961 0.80094 0.03681 0.0
H571 H 0.76328 0.66706 0.94111 0.0
H572 H 0.76841 0.71399 -0.00673 0.0
C573 C 0.683 0.79826 0.06667 0.0
C574 C 0.7726 0.81856 0.0234 0.0
H575 H 0.79103 0.80124 0.91337 0.0
C576 C 0.79011 0.80444 0.04942 0.0
C577 C 0.77564 0.8201 0.97391 0.0
C578 C 0.75986 0.83754 0.94442 0.0
C579 C 0.8066 0.78771 0.02693 0.0
C580 C 0.80506 0.78471 0.97743 0.0
C581 C 0.79169 0.80293 0.95143 0.0
C582 C 0.80969 0.75712 0.95288 0.0
C583 C 0.82334 0.77121 0.05642 0.0
C584 C 0.83199 0.76559 0.91354 0.0
C585 C 0.82922 0.73855 0.88377 0.0
C586 C 0.80369 0.70285 0.8926 0.0
C587 C 0.78335 0.69434 0.93378 0.0
C588 C 0.78642 0.7212 0.96373 0.0
H589 H 0.8344 0.7865 0.08943 0.0
H590 H 0.80282 0.74376 0.06625 0.0
H591 H 0.84479 0.76993 0.03696 0.0
H592 H 0.84986 0.79313 0.90428 0.0
H593 H 0.84479 0.74584 0.85178 0.0
H594 H 0.86941 0.6462 0.5839 0.0
H595 H 0.90757 0.68541 0.52185 0.0
H596 H 0.90425 0.77394 0.58556 0.0
H597 H 0.86546 0.73437 0.64787 0.0
H598 H 0.91105 0.7405 0.45634 0.0
H599 H 0.00795 0.79124 0.60458 0.0
H600 H 0.96605 0.7505 0.61005 0.0
H601 H 0.96736 0.79248 0.6094 0.0
C602 C 0.87545 0.67365 0.58343 0.0
C603 C 0.86478 0.68739 0.62063 0.0
C604 C 0.8973 0.69606 0.54804 0.0
C605 C 0.90921 0.73264 0.54968 0.0
C606 C 0.89548 0.74579 0.58396 0.0
H607 H 0.08604 0.83459 0.34575 0.0
H608 H 0.04297 0.83598 0.4006 0.0
C609 C 0.87315 0.72315 0.61925 0.0
C610 C 0.94049 0.75667 0.521 0.0
H611 H 0.03083 0.79993 0.52833 0.0
C612 C 0.93726 0.75478 0.47191 0.0
C613 C 0.97464 0.77495 0.54162 0.0
C614 C 0.97955 0.77753 0.59428 0.0
C615 C 0.96736 0.7682 0.44296 0.0
C616 C 1.00133 0.78364 0.46382 0.0
C617 C 0.00468 0.78821 0.51264 0.0
C618 C 0.03209 0.78771 0.43672 0.0
C619 C 0.96263 0.76286 0.3905 0.0
C620 C 0.0411 0.76098 0.44039 0.0
C621 C 0.06538 0.7601 0.4093 0.0
C622 C 0.08151 0.78629 0.37454 0.0
C623 C 0.07448 0.81456 0.37301 0.0
C624 C 0.04972 0.8152 0.40391 0.0
H625 H 0.93442 0.75075 0.37975 0.0
H626 H 0.97815 0.78883 0.37236 0.0
H627 H 0.97289 0.74534 0.37848 0.0
H628 H 0.02765 0.7395 0.46544 0.0
H629 H 0.07012 0.73786 0.41075 0.0
H630 H 0.23579 0.9351 0.20057 0.0
H631 H 0.25325 0.9805 0.13976 0.0
H632 H 0.18934 0.89926 0.03862 0.0
H633 H 0.17101 0.85376 0.09998 0.0
H634 H 0.29003 0.98758 0.06413 0.0
H635 H 0.16124 0.9718 0.00863 0.0
H636 H 0.16594 0.95133 0.06125 0.0
H637 H 0.1617 0.93079 0.00476 0.0
C638 C 0.22526 0.92696 0.16541 0.0
C639 C 0.20204 0.89096 0.15488 0.0
C640 C 0.23513 0.95295 0.13075 0.0
C641 C 0.22222 0.94347 0.08471 0.0
C642 C 0.19884 0.90743 0.07414 0.0
H643 H 0.28843 0.03314 0.81458 0.0
H644 H 0.2579 0.99815 0.88409 0.0
C645 C 0.18857 0.88141 0.10909 0.0
C646 C 0.23572 0.97096 0.04719 0.0
H647 H 0.21042 0.00447 0.95595 0.0
C648 C 0.27259 0.99168 0.04105 0.0
C649 C 0.21299 0.97639 0.01707 0.0
C650 C 0.17329 0.95664 0.02354 0.0
C651 C 0.28729 0.01658 0.00456 0.0
C652 C 0.26455 0.02103 0.97345 0.0
C653 C 0.22773 1.00104 0.9801 0.0
C654 C 0.27867 0.04342 0.93096 0.0
C655 C 0.32702 0.03687 -0.00181 0.0
C656 C 0.29967 0.08063 0.93418 0.0
C657 C 0.31719 0.10077 0.89435 0.0
C658 C 0.3139 0.08385 0.85101 0.0
C659 C 0.29153 0.04682 0.84765 0.0
C660 C 0.27393 0.02682 0.8872 0.0
H661 H 0.34062 0.0272 0.02195 0.0
H662 H 0.33403 0.03461 0.9613 0.0
H663 H 0.33726 0.06548 0.00568 0.0
H664 H 0.30359 0.09386 0.96778 0.0
H665 H 0.33471 0.12918 0.89801 0.0
H666 H 0.36364 0.2411 0.59108 0.0
H667 H 0.33092 0.24567 0.52421 0.0
H668 H 0.23325 0.1614 0.58204 0.0
H669 H 0.26624 0.15723 0.64973 0.0
H670 H 0.28274 0.19586 0.45602 0.0
H671 H 0.21952 0.2495 0.57666 0.0
H672 H 0.25709 0.24554 0.59472 0.0
H673 H 0.21424 0.20647 0.58922 0.0
C674 C 0.33533 0.22291 0.58872 0.0
C675 C 0.31736 0.19851 0.62482 0.0
C676 C 0.31667 0.22552 0.55067 0.0
C677 C 0.27966 0.20411 0.54847 0.0
C678 C 0.26178 0.17831 0.58334 0.0
H679 H 0.17516 0.27343 0.33977 0.0
H680 H 0.17885 0.23555 0.40111 0.0
C681 C 0.28059 0.17564 0.62155 0.0
C682 C 0.26035 0.21188 0.51191 0.0
H683 H 0.21623 0.25769 0.49591 0.0
C684 C 0.26736 0.20851 0.46465 0.0
C685 C 0.24026 0.22834 0.52334 0.0
C686 C 0.23231 0.23294 0.57367 0.0
C687 C 0.2569 0.22334 0.42869 0.0
C688 C 0.23939 0.24231 0.44046 0.0
C689 C 0.22979 0.24319 0.48724 0.0
C690 C 0.23603 0.26582 0.40589 0.0
C691 C 0.26634 0.22033 0.37853 0.0
C692 C 0.26682 0.29592 0.38983 0.0
C693 C 0.26479 0.31776 0.35564 0.0
C694 C 0.23187 0.31 0.33682 0.0
C695 C 0.20083 0.28049 0.3542 0.0
C696 C 0.20289 0.25861 0.38879 0.0
H697 H 0.2704 0.19719 0.37376 0.0
H698 H 0.24534 0.21767 0.35398 0.0
H699 H 0.2914 0.24478 0.36904 0.0
H700 H 0.29258 0.30221 0.40329 0.0
H701 H 0.28919 0.34036 0.34322 0.0
H702 H 0.89544 0.24612 0.8896 0.0
H703 H 0.93245 0.247 0.95477 0.0
H704 H 0.93536 0.15724 0.89465 0.0
H705 H 0.8976 0.1559 0.82938 0.0
H706 H 0.93161 0.17726 0.01685 0.0
H707 H 0.03943 0.26491 0.8929 0.0
H708 H 0.99827 0.26536 0.89164 0.0
H709 H 0.99921 0.22642 0.87277 0.0
C710 C 0.90279 0.22569 0.89137 0.0
C711 C 0.89374 0.20089 0.85486 0.0
C712 C 0.92386 0.2262 0.92849 0.0
C713 C 0.9366 0.20227 0.92922 0.0
C714 C 0.92545 0.17569 0.89468 0.0
H715 H 0.13628 0.28364 0.08346 0.0
H716 H 0.08865 0.24699 0.02831 0.0
C717 C 0.90392 0.17492 0.85763 0.0
C718 C 0.96609 0.20962 0.96121 0.0
H719 H 0.05483 0.26671 0.97241 0.0
C720 C 0.95872 0.19618 0.00708 0.0
C721 C 1.00134 0.23397 0.94796 0.0
C722 C 0.01037 0.24857 0.89862 0.0
C723 C 0.98575 0.20802 0.04095 0.0
C724 C 0.0206 0.23481 0.02875 0.0
C725 C 0.02816 0.24639 0.98195 0.0
C726 C 0.0487 0.25388 0.06448 0.0
C727 C 0.97648 0.1921 0.08955 0.0
C728 C 0.04233 0.27034 0.10276 0.0
C729 C 0.06932 0.29075 0.13457 0.0
C730 C 0.10352 0.29576 0.12834 0.0
C731 C 0.1101 0.27974 0.08966 0.0
C732 C 0.0829 0.25888 0.05807 0.0
H733 H 0.95444 0.16407 0.0882 0.0
H734 H 0.99959 0.19282 0.1071 0.0
H735 H 0.9674 0.20731 0.11121 0.0
H736 H 0.01664 0.26813 0.10754 0.0
H737 H 0.06334 0.30282 0.16385 0.0
H738 H 0.73113 0.88207 0.33782 0.0
H739 H 0.77752 0.92158 0.39314 0.0
H740 H 0.6992 0.93111 0.47482 0.0
H741 H 0.65329 0.89253 0.41937 0.0
H742 H 0.78779 0.9913 0.39908 0.0
H743 H 0.76718 0.9324 0.57615 0.0
H744 H 0.7516 0.90562 0.52337 0.0
H745 H 0.726 0.92321 0.54991 0.0
C746 C 0.72368 0.89126 0.36889 0.0
C747 C 0.68876 0.88444 0.37449 0.0
C748 C 0.7502 0.91395 0.40028 0.0
C749 C 0.74181 0.92921 0.43816 0.0
C750 C 0.70624 0.91921 0.44634 0.0
H751 H 0.77071 0.10744 0.54977 0.0
H752 H 0.77105 0.06333 0.49681 0.0
C753 C 0.67997 0.89719 0.41462 0.0
C754 C 0.76974 0.9608 0.46313 0.0
H755 H 0.78903 0.99659 0.57317 0.0
C756 C 0.78919 0.9923 0.43716 0.0
C757 C 0.77195 0.96215 0.51267 0.0
C758 C 0.75332 0.9289 0.54211 0.0
C759 C 0.80725 0.02552 0.45963 0.0
C760 C 0.80569 0.02713 0.50908 0.0
C761 C 0.78992 0.99539 0.53514 0.0
C762 C 0.81299 0.06028 0.53346 0.0
C763 C 0.82559 0.05881 0.43022 0.0
C764 C 0.83741 0.07424 0.5706 0.0
C765 C 0.83768 0.10008 0.60047 0.0
C766 C 0.81287 0.11143 0.59412 0.0
C767 C 0.79027 0.0993 0.55503 0.0
C768 C 0.79052 0.07414 0.52476 0.0
H769 H 0.83477 0.05359 0.39624 0.0
H770 H 0.80664 0.06815 0.42233 0.0
H771 H 0.84865 0.08039 0.44912 0.0
H772 H 0.85471 0.06362 0.57812 0.0
H773 H 0.85501 0.10875 0.63082 0.0
loop_
_geom_bond_atom_site_label_1
_geom_bond_atom_site_label_2
_geom_bond_distance
_geom_bond_site_symmetry_2
_ccdc_geom_bond_type
Zn0 O6 1.920 . S
Zn0 O12 1.898 . S
Zn0 O15 1.905 . S
Zn1 O9 1.905 . S
Zn1 O10 1.898 . S
Zn1 O18 1.920 . S
Zn2 O5 2.080 . S
Zn2 O8 2.114 . S
Zn2 O11 2.120 . S
Zn2 O13 2.120 . S
Zn2 O14 2.114 . S
Zn2 O17 2.080 . S
C3 O8 1.166 . S
C3 O9 1.182 . S
C4 O10 1.167 . S
C4 O11 1.299 . S
O5 Zn2 2.080 . S
O5 C19 1.305 . S
O6 Zn0 1.920 . S
O6 C19 1.234 . S
C7 O12 1.167 . S
C7 O13 1.299 . S
O8 Zn2 2.114 . S
O8 C3 1.166 . S
O9 Zn1 1.905 . S
O9 C3 1.182 . S
O10 Zn1 1.898 . S
O10 C4 1.167 . S
O11 Zn2 2.120 . S
O11 C4 1.299 . S
O12 Zn0 1.898 . S
O12 C7 1.167 . S
O13 Zn2 2.120 . S
O13 C7 1.299 . S
O14 Zn2 2.114 . S
O14 C16 1.166 . S
O15 Zn0 1.905 . S
O15 C16 1.182 . S
C16 O14 1.166 . S
C16 O15 1.182 . S
O17 Zn2 2.080 . S
O17 C20 1.305 . S
O18 Zn1 1.920 . S
O18 C20 1.234 . S
C19 O5 1.305 . S
C19 O6 1.234 . S
C20 O17 1.305 . S
C20 O18 1.234 . S
Zn21 O27 1.920 . S
Zn21 O33 1.898 . S
Zn21 O36 1.905 . S
Zn22 O30 1.905 . S
Zn22 O31 1.898 . S
Zn22 O39 1.920 . S
Zn23 O26 2.080 . S
Zn23 O29 2.114 . S
Zn23 O32 2.120 . S
Zn23 O34 2.120 . S
Zn23 O35 2.114 . S
Zn23 O38 2.080 . S
C24 O29 1.166 . S
C24 O30 1.182 . S
C25 O31 1.167 . S
C25 O32 1.299 . S
O26 Zn23 2.080 . S
O26 C40 1.305 . S
O27 Zn21 1.920 . S
O27 C40 1.234 . S
C28 O33 1.167 . S
C28 O34 1.299 . S
O29 Zn23 2.114 . S
O29 C24 1.166 . S
O30 Zn22 1.905 . S
O30 C24 1.182 . S
O31 Zn22 1.898 . S
O31 C25 1.167 . S
O32 Zn23 2.120 . S
O32 C25 1.299 . S
O33 Zn21 1.898 . S
O33 C28 1.167 . S
O34 Zn23 2.120 . S
O34 C28 1.299 . S
O35 Zn23 2.114 . S
O35 C37 1.166 . S
O36 Zn21 1.905 . S
O36 C37 1.182 . S
C37 O35 1.166 . S
C37 O36 1.182 . S
O38 Zn23 2.080 . S
O38 C41 1.305 . S
O39 Zn22 1.920 . S
O39 C41 1.234 . S
C40 O26 1.305 . S
C40 O27 1.234 . S
C41 O38 1.305 . S
C41 O39 1.234 . S
Zn42 O48 1.920 . S
Zn42 O54 1.898 . S
Zn42 O57 1.905 . S
Zn43 O51 1.905 . S
Zn43 O52 1.898 . S
Zn43 O60 1.920 . S
Zn44 O47 2.080 . S
Zn44 O50 2.114 . S
Zn44 O53 2.120 . S
Zn44 O55 2.120 . S
Zn44 O56 2.114 . S
Zn44 O59 2.080 . S
C45 O50 1.166 . S
C45 O51 1.182 . S
C46 O52 1.167 . S
C46 O53 1.299 . S
O47 Zn44 2.080 . S
O47 C61 1.305 . S
O48 Zn42 1.920 . S
O48 C61 1.234 . S
C49 O54 1.167 . S
C49 O55 1.299 . S
O50 Zn44 2.114 . S
O50 C45 1.166 . S
O51 Zn43 1.905 . S
O51 C45 1.182 . S
O52 Zn43 1.898 . S
O52 C46 1.167 . S
O53 Zn44 2.120 . S
O53 C46 1.299 . S
O54 Zn42 1.898 . S
O54 C49 1.167 . S
O55 Zn44 2.120 . S
O55 C49 1.299 . S
O56 Zn44 2.114 . S
O56 C58 1.166 . S
O57 Zn42 1.905 . S
O57 C58 1.182 . S
C58 O56 1.166 . S
C58 O57 1.182 . S
O59 Zn44 2.080 . S
O59 C62 1.305 . S
O60 Zn43 1.920 . S
O60 C62 1.234 . S
C61 O47 1.305 . S
C61 O48 1.234 . S
C62 O59 1.305 . S
C62 O60 1.234 . S
Zn63 O69 1.920 . S
Zn63 O75 1.898 . S
Zn63 O78 1.905 . S
Zn64 O72 1.905 . S
Zn64 O73 1.898 . S
Zn64 O81 1.920 . S
Zn65 O68 2.080 . S
Zn65 O71 2.114 . S
Zn65 O74 2.120 . S
Zn65 O76 2.120 . S
Zn65 O77 2.114 . S
Zn65 O80 2.080 . S
C66 O71 1.166 . S
C66 O72 1.182 . S
C67 O73 1.167 . S
C67 O74 1.299 . S
O68 Zn65 2.080 . S
O68 C82 1.305 . S
O69 Zn63 1.920 . S
O69 C82 1.234 . S
C70 O75 1.167 . S
C70 O76 1.299 . S
O71 Zn65 2.114 . S
O71 C66 1.166 . S
O72 Zn64 1.905 . S
O72 C66 1.182 . S
O73 Zn64 1.898 . S
O73 C67 1.167 . S
O74 Zn65 2.120 . S
O74 C67 1.299 . S
O75 Zn63 1.898 . S
O75 C70 1.167 . S
O76 Zn65 2.120 . S
O76 C70 1.299 . S
O77 Zn65 2.114 . S
O77 C79 1.166 . S
O78 Zn63 1.905 . S
O78 C79 1.182 . S
C79 O77 1.166 . S
C79 O78 1.182 . S
O80 Zn65 2.080 . S
O80 C83 1.305 . S
O81 Zn64 1.920 . S
O81 C83 1.234 . S
C82 O68 1.305 . S
C82 O69 1.234 . S
C83 O80 1.305 . S
C83 O81 1.234 . S
Zn84 O90 1.920 . S
Zn84 O96 1.898 . S
Zn84 O99 1.905 . S
Zn85 O93 1.905 . S
Zn85 O94 1.898 . S
Zn85 O102 1.920 . S
Zn86 O89 2.080 . S
Zn86 O92 2.114 . S
Zn86 O95 2.120 . S
Zn86 O97 2.120 . S
Zn86 O98 2.114 . S
Zn86 O101 2.080 . S
C87 O92 1.166 . S
C87 O93 1.182 . S
C88 O94 1.167 . S
C88 O95 1.299 . S
O89 Zn86 2.080 . S
O89 C103 1.305 . S
O90 Zn84 1.920 . S
O90 C103 1.234 . S
C91 O96 1.167 . S
C91 O97 1.299 . S
O92 Zn86 2.114 . S
O92 C87 1.166 . S
O93 Zn85 1.905 . S
O93 C87 1.182 . S
O94 Zn85 1.898 . S
O94 C88 1.167 . S
O95 Zn86 2.120 . S
O95 C88 1.299 . S
O96 Zn84 1.898 . S
O96 C91 1.167 . S
O97 Zn86 2.120 . S
O97 C91 1.299 . S
O98 Zn86 2.114 . S
O98 C100 1.166 . S
O99 Zn84 1.905 . S
O99 C100 1.182 . S
C100 O98 1.166 . S
C100 O99 1.182 . S
O101 Zn86 2.080 . S
O101 C104 1.305 . S
O102 Zn85 1.920 . S
O102 C104 1.234 . S
C103 O89 1.305 . S
C103 O90 1.234 . S
C104 O101 1.305 . S
C104 O102 1.234 . S
Zn105 O111 1.920 . S
Zn105 O117 1.898 . S
Zn105 O120 1.905 . S
Zn106 O114 1.905 . S
Zn106 O115 1.898 . S
Zn106 O123 1.920 . S
Zn107 O110 2.080 . S
Zn107 O113 2.114 . S
Zn107 O116 2.120 . S
Zn107 O118 2.120 . S
Zn107 O119 2.114 . S
Zn107 O122 2.080 . S
C108 O113 1.166 . S
C108 O114 1.182 . S
C109 O115 1.167 . S
C109 O116 1.299 . S
O110 Zn107 2.080 . S
O110 C124 1.305 . S
O111 Zn105 1.920 . S
O111 C124 1.234 . S
C112 O117 1.167 . S
C112 O118 1.299 . S
O113 Zn107 2.114 . S
O113 C108 1.166 . S
O114 Zn106 1.905 . S
O114 C108 1.182 . S
O115 Zn106 1.898 . S
O115 C109 1.167 . S
O116 Zn107 2.120 . S
O116 C109 1.299 . S
O117 Zn105 1.898 . S
O117 C112 1.167 . S
O118 Zn107 2.120 . S
O118 C112 1.299 . S
O119 Zn107 2.114 . S
O119 C121 1.166 . S
O120 Zn105 1.905 . S
O120 C121 1.182 . S
C121 O119 1.166 . S
C121 O120 1.182 . S
O122 Zn107 2.080 . S
O122 C125 1.305 . S
O123 Zn106 1.920 . S
O123 C125 1.234 . S
C124 O110 1.305 . S
C124 O111 1.234 . S
C125 O122 1.305 . S
C125 O123 1.234 . S
H126 C134 0.929 . S
H127 C136 0.930 . S
H128 C138 0.930 . S
H129 C141 0.929 . S
H130 C144 0.930 . S
H131 C146 0.960 . S
H132 C146 0.960 . S
H133 C146 0.960 . S
C134 H126 0.929 . S
C134 C135 1.377 . S
C134 C136 1.384 . S
C135 C134 1.377 . S
C135 C141 1.390 . S
C136 H127 0.930 . S
C136 C134 1.384 . S
C136 C137 1.372 . S
C137 C136 1.372 . S
C137 C138 1.400 . S
C137 C142 1.490 . S
C138 H128 0.930 . S
C138 C137 1.400 . S
C138 C141 1.386 . S
H139 C155 0.930 . S
H140 C156 0.931 . S
C141 H129 0.929 . S
C141 C135 1.390 . S
C141 C138 1.386 . S
C142 C137 1.490 . S
C142 C144 1.395 . S
C142 C145 1.403 . S
H143 C149 0.930 . S
C144 H130 0.930 . S
C144 C142 1.395 . S
C144 C147 1.403 . S
C145 C142 1.403 . S
C145 C146 1.524 . S
C145 C149 1.400 . S
C146 H131 0.960 . S
C146 H132 0.960 . S
C146 H133 0.960 . S
C146 C145 1.524 . S
C147 C144 1.403 . S
C147 C148 1.392 . S
C147 C151 1.495 . S
C148 C147 1.392 . S
C148 C149 1.385 . S
C148 C150 1.478 . S
C149 H143 0.930 . S
C149 C145 1.400 . S
C149 C148 1.385 . S
C150 C148 1.478 . S
C150 C152 1.381 . S
C150 C156 1.383 . S
C151 C147 1.495 . S
C151 H157 0.959 . S
C151 H158 0.961 . S
C151 H159 0.960 . S
C152 C150 1.381 . S
C152 C153 1.394 . S
C152 H160 0.930 . S
C153 C152 1.394 . S
C153 C154 1.383 . S
C153 H161 0.929 . S
C154 C153 1.383 . S
C154 C155 1.377 . S
C155 H139 0.930 . S
C155 C154 1.377 . S
C155 C156 1.379 . S
C156 H140 0.931 . S
C156 C150 1.383 . S
C156 C155 1.379 . S
H157 C151 0.959 . S
H158 C151 0.961 . S
H159 C151 0.960 . S
H160 C152 0.930 . S
H161 C153 0.929 . S
H162 C170 0.929 . S
H163 C172 0.930 . S
H164 C174 0.930 . S
H165 C177 0.929 . S
H166 C180 0.930 . S
H167 C182 0.960 . S
H168 C182 0.960 . S
H169 C182 0.960 . S
C170 H162 0.929 . S
C170 C171 1.377 . S
C170 C172 1.384 . S
C171 C170 1.377 . S
C171 C177 1.390 . S
C172 H163 0.930 . S
C172 C170 1.384 . S
C172 C173 1.372 . S
C173 C172 1.372 . S
C173 C174 1.400 . S
C173 C178 1.490 . S
C174 H164 0.930 . S
C174 C173 1.400 . S
C174 C177 1.386 . S
H175 C191 0.930 . S
H176 C192 0.931 . S
C177 H165 0.929 . S
C177 C171 1.390 . S
C177 C174 1.386 . S
C178 C173 1.490 . S
C178 C180 1.395 . S
C178 C181 1.403 . S
H179 C185 0.930 . S
C180 H166 0.930 . S
C180 C178 1.395 . S
C180 C183 1.403 . S
C181 C178 1.403 . S
C181 C182 1.524 . S
C181 C185 1.400 . S
C182 H167 0.960 . S
C182 H168 0.960 . S
C182 H169 0.960 . S
C182 C181 1.524 . S
C183 C180 1.403 . S
C183 C184 1.392 . S
C183 C187 1.495 . S
C184 C183 1.392 . S
C184 C185 1.385 . S
C184 C186 1.478 . S
C185 H179 0.930 . S
C185 C181 1.400 . S
C185 C184 1.385 . S
C186 C184 1.478 . S
C186 C188 1.381 . S
C186 C192 1.383 . S
C187 C183 1.495 . S
C187 H193 0.959 . S
C187 H194 0.961 . S
C187 H195 0.960 . S
C188 C186 1.381 . S
C188 C189 1.394 . S
C188 H196 0.930 . S
C189 C188 1.394 . S
C189 C190 1.383 . S
C189 H197 0.929 . S
C190 C189 1.383 . S
C190 C191 1.377 . S
C191 H175 0.930 . S
C191 C190 1.377 . S
C191 C192 1.379 . S
C192 H176 0.931 . S
C192 C186 1.383 . S
C192 C191 1.379 . S
H193 C187 0.959 . S
H194 C187 0.961 . S
H195 C187 0.960 . S
H196 C188 0.930 . S
H197 C189 0.929 . S
H198 C206 0.929 . S
H199 C208 0.930 . S
H200 C210 0.930 . S
H201 C213 0.929 . S
H202 C216 0.930 . S
H203 C218 0.960 . S
H204 C218 0.960 . S
H205 C218 0.960 . S
C206 H198 0.929 . S
C206 C207 1.377 . S
C206 C208 1.384 . S
C207 C206 1.377 . S
C207 C213 1.390 . S
C208 H199 0.930 . S
C208 C206 1.384 . S
C208 C209 1.372 . S
C209 C208 1.372 . S
C209 C210 1.400 . S
C209 C214 1.490 . S
C210 H200 0.930 . S
C210 C209 1.400 . S
C210 C213 1.386 . S
H211 C227 0.930 . S
H212 C228 0.931 . S
C213 H201 0.929 . S
C213 C207 1.390 . S
C213 C210 1.386 . S
C214 C209 1.490 . S
C214 C216 1.395 . S
C214 C217 1.403 . S
H215 C221 0.930 . S
C216 H202 0.930 . S
C216 C214 1.395 . S
C216 C219 1.403 . S
C217 C214 1.403 . S
C217 C218 1.524 . S
C217 C221 1.400 . S
C218 H203 0.960 . S
C218 H204 0.960 . S
C218 H205 0.960 . S
C218 C217 1.524 . S
C219 C216 1.403 . S
C219 C220 1.392 . S
C219 C223 1.495 . S
C220 C219 1.392 . S
C220 C221 1.385 . S
C220 C222 1.478 . S
C221 H215 0.930 . S
C221 C217 1.400 . S
C221 C220 1.385 . S
C222 C220 1.478 . S
C222 C224 1.381 . S
C222 C228 1.383 . S
C223 C219 1.495 . S
C223 H229 0.959 . S
C223 H230 0.961 . S
C223 H231 0.960 . S
C224 C222 1.381 . S
C224 C225 1.394 . S
C224 H232 0.930 . S
C225 C224 1.394 . S
C225 C226 1.383 . S
C225 H233 0.929 . S
C226 C225 1.383 . S
C226 C227 1.377 . S
C227 H211 0.930 . S
C227 C226 1.377 . S
C227 C228 1.379 . S
C228 H212 0.931 . S
C228 C222 1.383 . S
C228 C227 1.379 . S
H229 C223 0.959 . S
H230 C223 0.961 . S
H231 C223 0.960 . S
H232 C224 0.930 . S
H233 C225 0.929 . S
H234 C242 0.929 . S
H235 C244 0.930 . S
H236 C246 0.930 . S
H237 C249 0.929 . S
H238 C252 0.930 . S
H239 C254 0.960 . S
H240 C254 0.960 . S
H241 C254 0.960 . S
C242 H234 0.929 . S
C242 C243 1.377 . S
C242 C244 1.384 . S
C243 C242 1.377 . S
C243 C249 1.390 . S
C244 H235 0.930 . S
C244 C242 1.384 . S
C244 C245 1.372 . S
C245 C244 1.372 . S
C245 C246 1.400 . S
C245 C250 1.490 . S
C246 H236 0.930 . S
C246 C245 1.400 . S
C246 C249 1.386 . S
H247 C263 0.930 . S
H248 C264 0.931 . S
C249 H237 0.929 . S
C249 C243 1.390 . S
C249 C246 1.386 . S
C250 C245 1.490 . S
C250 C252 1.395 . S
C250 C253 1.403 . S
H251 C257 0.930 . S
C252 H238 0.930 . S
C252 C250 1.395 . S
C252 C255 1.403 . S
C253 C250 1.403 . S
C253 C254 1.524 . S
C253 C257 1.400 . S
C254 H239 0.960 . S
C254 H240 0.960 . S
C254 H241 0.960 . S
C254 C253 1.524 . S
C255 C252 1.403 . S
C255 C256 1.392 . S
C255 C259 1.495 . S
C256 C255 1.392 . S
C256 C257 1.385 . S
C256 C258 1.478 . S
C257 H251 0.930 . S
C257 C253 1.400 . S
C257 C256 1.385 . S
C258 C256 1.478 . S
C258 C260 1.381 . S
C258 C264 1.383 . S
C259 C255 1.495 . S
C259 H265 0.959 . S
C259 H266 0.961 . S
C259 H267 0.960 . S
C260 C258 1.381 . S
C260 C261 1.394 . S
C260 H268 0.930 . S
C261 C260 1.394 . S
C261 C262 1.383 . S
C261 H269 0.929 . S
C262 C261 1.383 . S
C262 C263 1.377 . S
C263 H247 0.930 . S
C263 C262 1.377 . S
C263 C264 1.379 . S
C264 H248 0.931 . S
C264 C258 1.383 . S
C264 C263 1.379 . S
H265 C259 0.959 . S
H266 C259 0.961 . S
H267 C259 0.960 . S
H268 C260 0.930 . S
H269 C261 0.929 . S
H270 C278 0.929 . S
H271 C280 0.930 . S
H272 C282 0.930 . S
H273 C285 0.929 . S
H274 C288 0.930 . S
H275 C290 0.960 . S
H276 C290 0.960 . S
H277 C290 0.960 . S
C278 H270 0.929 . S
C278 C279 1.377 . S
C278 C280 1.384 . S
C279 C278 1.377 . S
C279 C285 1.390 . S
C280 H271 0.930 . S
C280 C278 1.384 . S
C280 C281 1.372 . S
C281 C280 1.372 . S
C281 C282 1.400 . S
C281 C286 1.490 . S
C282 H272 0.930 . S
C282 C281 1.400 . S
C282 C285 1.386 . S
H283 C299 0.930 . S
H284 C300 0.931 . S
C285 H273 0.929 . S
C285 C279 1.390 . S
C285 C282 1.386 . S
C286 C281 1.490 . S
C286 C288 1.395 . S
C286 C289 1.403 . S
H287 C293 0.930 . S
C288 H274 0.930 . S
C288 C286 1.395 . S
C288 C291 1.403 . S
C289 C286 1.403 . S
C289 C290 1.524 . S
C289 C293 1.400 . S
C290 H275 0.960 . S
C290 H276 0.960 . S
C290 H277 0.960 . S
C290 C289 1.524 . S
C291 C288 1.403 . S
C291 C292 1.392 . S
C291 C295 1.495 . S
C292 C291 1.392 . S
C292 C293 1.385 . S
C292 C294 1.478 . S
C293 H287 0.930 . S
C293 C289 1.400 . S
C293 C292 1.385 . S
C294 C292 1.478 . S
C294 C296 1.381 . S
C294 C300 1.383 . S
C295 C291 1.495 . S
C295 H301 0.959 . S
C295 H302 0.961 . S
C295 H303 0.960 . S
C296 C294 1.381 . S
C296 C297 1.394 . S
C296 H304 0.930 . S
C297 C296 1.394 . S
C297 C298 1.383 . S
C297 H305 0.929 . S
C298 C297 1.383 . S
C298 C299 1.377 . S
C299 H283 0.930 . S
C299 C298 1.377 . S
C299 C300 1.379 . S
C300 H284 0.931 . S
C300 C294 1.383 . S
C300 C299 1.379 . S
H301 C295 0.959 . S
H302 C295 0.961 . S
H303 C295 0.960 . S
H304 C296 0.930 . S
H305 C297 0.929 . S
H306 C314 0.929 . S
H307 C316 0.930 . S
H308 C318 0.930 . S
H309 C321 0.929 . S
H310 C324 0.930 . S
H311 C326 0.960 . S
H312 C326 0.960 . S
H313 C326 0.960 . S
C314 H306 0.929 . S
C314 C315 1.377 . S
C314 C316 1.384 . S
C315 C314 1.377 . S
C315 C321 1.390 . S
C316 H307 0.930 . S
C316 C314 1.384 . S
C316 C317 1.372 . S
C317 C316 1.372 . S
C317 C318 1.400 . S
C317 C322 1.490 . S
C318 H308 0.930 . S
C318 C317 1.400 . S
C318 C321 1.386 . S
H319 C335 0.930 . S
H320 C336 0.931 . S
C321 H309 0.929 . S
C321 C315 1.390 . S
C321 C318 1.386 . S
C322 C317 1.490 . S
C322 C324 1.395 . S
C322 C325 1.403 . S
H323 C329 0.930 . S
C324 H310 0.930 . S
C324 C322 1.395 . S
C324 C327 1.403 . S
C325 C322 1.403 . S
C325 C326 1.524 . S
C325 C329 1.400 . S
C326 H311 0.960 . S
C326 H312 0.960 . S
C326 H313 0.960 . S
C326 C325 1.524 . S
C327 C324 1.403 . S
C327 C328 1.392 . S
C327 C331 1.495 . S
C328 C327 1.392 . S
C328 C329 1.385 . S
C328 C330 1.478 . S
C329 H323 0.930 . S
C329 C325 1.400 . S
C329 C328 1.385 . S
C330 C328 1.478 . S
C330 C332 1.381 . S
C330 C336 1.383 . S
C331 C327 1.495 . S
C331 H337 0.959 . S
C331 H338 0.961 . S
C331 H339 0.960 . S
C332 C330 1.381 . S
C332 C333 1.394 . S
C332 H340 0.930 . S
C333 C332 1.394 . S
C333 C334 1.383 . S
C333 H341 0.929 . S
C334 C333 1.383 . S
C334 C335 1.377 . S
C335 H319 0.930 . S
C335 C334 1.377 . S
C335 C336 1.379 . S
C336 H320 0.931 . S
C336 C330 1.383 . S
C336 C335 1.379 . S
H337 C331 0.959 . S
H338 C331 0.961 . S
H339 C331 0.960 . S
H340 C332 0.930 . S
H341 C333 0.929 . S
H342 C350 0.929 . S
H343 C352 0.930 . S
H344 C354 0.930 . S
H345 C357 0.929 . S
H346 C360 0.930 . S
H347 C362 0.960 . S
H348 C362 0.960 . S
H349 C362 0.960 . S
C350 H342 0.929 . S
C350 C351 1.377 . S
C350 C352 1.384 . S
C351 C350 1.377 . S
C351 C357 1.390 . S
C352 H343 0.930 . S
C352 C350 1.384 . S
C352 C353 1.372 . S
C353 C352 1.372 . S
C353 C354 1.400 . S
C353 C358 1.490 . S
C354 H344 0.930 . S
C354 C353 1.400 . S
C354 C357 1.386 . S
H355 C371 0.930 . S
H356 C372 0.931 . S
C357 H345 0.929 . S
C357 C351 1.390 . S
C357 C354 1.386 . S
C358 C353 1.490 . S
C358 C360 1.395 . S
C358 C361 1.403 . S
H359 C365 0.930 . S
C360 H346 0.930 . S
C360 C358 1.395 . S
C360 C363 1.403 1_556 S
C361 C358 1.403 . S
C361 C362 1.524 . S
C361 C365 1.400 1_556 S
C362 H347 0.960 . S
C362 H348 0.960 . S
C362 H349 0.960 . S
C362 C361 1.524 . S
C363 C360 1.403 1_554 S
C363 C364 1.392 . S
C363 C367 1.495 . S
C364 C363 1.392 . S
C364 C365 1.385 . S
C364 C366 1.478 . S
C365 H359 0.930 . S
C365 C361 1.400 1_554 S
C365 C364 1.385 . S
C366 C364 1.478 . S
C366 C368 1.381 . S
C366 C372 1.383 . S
C367 C363 1.495 . S
C367 H373 0.959 . S
C367 H374 0.961 . S
C367 H375 0.960 . S
C368 C366 1.381 . S
C368 C369 1.394 . S
C368 H376 0.930 . S
C369 C368 1.394 . S
C369 C370 1.383 . S
C369 H377 0.929 . S
C370 C369 1.383 . S
C370 C371 1.377 . S
C371 H355 0.930 . S
C371 C370 1.377 . S
C371 C372 1.379 . S
C372 H356 0.931 . S
C372 C366 1.383 . S
C372 C371 1.379 . S
H373 C367 0.959 . S
H374 C367 0.961 . S
H375 C367 0.960 . S
H376 C368 0.930 . S
H377 C369 0.929 . S
H378 C386 0.929 . S
H379 C388 0.930 . S
H380 C390 0.930 . S
H381 C393 0.929 . S
H382 C396 0.930 . S
H383 C398 0.960 . S
H384 C398 0.960 . S
H385 C398 0.960 1_655 S
C386 H378 0.929 . S
C386 C387 1.377 . S
C386 C388 1.384 . S
C387 C386 1.377 . S
C387 C393 1.390 . S
C388 H379 0.930 . S
C388 C386 1.384 . S
C388 C389 1.372 . S
C389 C388 1.372 . S
C389 C390 1.400 . S
C389 C394 1.490 . S
C390 H380 0.930 . S
C390 C389 1.400 . S
C390 C393 1.386 . S
H391 C407 0.930 . S
H392 C408 0.931 . S
C393 H381 0.929 . S
C393 C387 1.390 . S
C393 C390 1.386 . S
C394 C389 1.490 . S
C394 C396 1.395 . S
C394 C397 1.403 1_655 S
H395 C401 0.930 . S
C396 H382 0.930 . S
C396 C394 1.395 . S
C396 C399 1.403 . S
C397 C394 1.403 1_455 S
C397 C398 1.524 . S
C397 C401 1.400 . S
C398 H383 0.960 . S
C398 H384 0.960 . S
C398 H385 0.960 1_455 S
C398 C397 1.524 . S
C399 C396 1.403 . S
C399 C400 1.392 1_655 S
C399 C403 1.495 . S
C400 C399 1.392 1_455 S
C400 C401 1.385 . S
C400 C402 1.478 . S
C401 H395 0.930 . S
C401 C397 1.400 . S
C401 C400 1.385 . S
C402 C400 1.478 . S
C402 C404 1.381 . S
C402 C408 1.383 . S
C403 C399 1.495 . S
C403 H409 0.959 . S
C403 H410 0.961 . S
C403 H411 0.960 1_655 S
C404 C402 1.381 . S
C404 C405 1.394 . S
C404 H412 0.930 . S
C405 C404 1.394 . S
C405 C406 1.383 . S
C405 H413 0.929 . S
C406 C405 1.383 . S
C406 C407 1.377 . S
C407 H391 0.930 . S
C407 C406 1.377 . S
C407 C408 1.379 . S
C408 H392 0.931 . S
C408 C402 1.383 . S
C408 C407 1.379 . S
H409 C403 0.959 . S
H410 C403 0.961 . S
H411 C403 0.960 1_455 S
H412 C404 0.930 . S
H413 C405 0.929 . S
H414 C422 0.929 . S
H415 C424 0.930 . S
H416 C426 0.930 . S
H417 C429 0.929 . S
H418 C432 0.930 . S
H419 C434 0.960 . S
H420 C434 0.960 1_556 S
H421 C434 0.960 . S
C422 H414 0.929 . S
C422 C423 1.377 . S
C422 C424 1.384 . S
C423 C422 1.377 . S
C423 C429 1.390 . S
C424 H415 0.930 . S
C424 C422 1.384 . S
C424 C425 1.372 . S
C425 C424 1.372 . S
C425 C426 1.400 . S
C425 C430 1.490 . S
C426 H416 0.930 . S
C426 C425 1.400 . S
C426 C429 1.386 . S
H427 C443 0.930 . S
H428 C444 0.931 . S
C429 H417 0.929 . S
C429 C423 1.390 . S
C429 C426 1.386 . S
C430 C425 1.490 . S
C430 C432 1.395 1_545 S
C430 C433 1.403 1_556 S
H431 C437 0.930 . S
C432 H418 0.930 . S
C432 C430 1.395 1_565 S
C432 C435 1.403 . S
C433 C430 1.403 1_554 S
C433 C434 1.524 . S
C433 C437 1.400 . S
C434 H419 0.960 . S
C434 H420 0.960 1_554 S
C434 H421 0.960 . S
C434 C433 1.524 . S
C435 C432 1.403 . S
C435 C436 1.392 1_556 S
C435 C439 1.495 . S
C436 C435 1.392 1_554 S
C436 C437 1.385 1_565 S
C436 C438 1.478 . S
C437 H431 0.930 . S
C437 C433 1.400 . S
C437 C436 1.385 1_545 S
C438 C436 1.478 . S
C438 C440 1.381 . S
C438 C444 1.383 . S
C439 C435 1.495 . S
C439 H445 0.959 . S
C439 H446 0.965 . S
C439 H447 0.960 . S
C440 C438 1.381 . S
C440 C441 1.394 . S
C440 H448 0.930 . S
C441 C440 1.394 . S
C441 C442 1.383 . S
C441 H449 0.929 . S
C442 C441 1.383 . S
C442 C443 1.377 . S
C443 H427 0.930 . S
C443 C442 1.377 . S
C443 C444 1.379 . S
C444 H428 0.931 . S
C444 C438 1.383 . S
C444 C443 1.379 . S
H445 C439 0.959 . S
H446 C439 0.965 . S
H447 C439 0.960 . S
H448 C440 0.930 . S
H449 C441 0.929 . S
H450 C458 0.929 . S
H451 C460 0.930 . S
H452 C462 0.930 . S
H453 C465 0.929 . S
H454 C468 0.930 . S
H455 C470 0.960 . S
H456 C470 0.960 . S
H457 C470 0.960 . S
C458 H450 0.929 . S
C458 C459 1.377 . S
C458 C460 1.384 . S
C459 C458 1.377 . S
C459 C465 1.390 . S
C460 H451 0.930 . S
C460 C458 1.384 . S
C460 C461 1.372 . S
C461 C460 1.372 . S
C461 C462 1.400 . S
C461 C466 1.490 . S
C462 H452 0.930 . S
C462 C461 1.400 . S
C462 C465 1.386 . S
H463 C479 0.930 . S
H464 C480 0.931 . S
C465 H453 0.929 . S
C465 C459 1.390 . S
C465 C462 1.386 . S
C466 C461 1.490 . S
C466 C468 1.395 . S
C466 C469 1.403 . S
H467 C473 0.930 . S
C468 H454 0.930 . S
C468 C466 1.395 . S
C468 C471 1.403 . S
C469 C466 1.403 . S
C469 C470 1.524 . S
C469 C473 1.400 . S
C470 H455 0.960 . S
C470 H456 0.960 . S
C470 H457 0.960 . S
C470 C469 1.524 . S
C471 C468 1.403 . S
C471 C472 1.392 . S
C471 C475 1.495 . S
C472 C471 1.392 . S
C472 C473 1.385 . S
C472 C474 1.478 . S
C473 H467 0.930 . S
C473 C469 1.400 . S
C473 C472 1.385 . S
C474 C472 1.478 . S
C474 C476 1.381 . S
C474 C480 1.383 . S
C475 C471 1.495 . S
C475 H481 0.959 . S
C475 H482 0.961 . S
C475 H483 0.960 . S
C476 C474 1.381 . S
C476 C477 1.394 . S
C476 H484 0.930 . S
C477 C476 1.394 . S
C477 C478 1.383 . S
C477 H485 0.929 . S
C478 C477 1.383 . S
C478 C479 1.377 . S
C479 H463 0.930 . S
C479 C478 1.377 . S
C479 C480 1.379 . S
C480 H464 0.931 . S
C480 C474 1.383 . S
C480 C479 1.379 . S
H481 C475 0.959 . S
H482 C475 0.961 . S
H483 C475 0.960 . S
H484 C476 0.930 . S
H485 C477 0.929 . S
H486 C494 0.929 . S
H487 C496 0.930 . S
H488 C498 0.930 . S
H489 C501 0.929 . S
H490 C504 0.923 . S
H491 C506 0.960 1_554 S
H492 C506 0.960 1_554 S
H493 C506 0.960 . S
C494 H486 0.929 . S
C494 C495 1.377 . S
C494 C496 1.384 . S
C495 C494 1.377 . S
C495 C501 1.390 . S
C496 H487 0.930 . S
C496 C494 1.384 . S
C496 C497 1.372 . S
C497 C496 1.372 . S
C497 C498 1.400 . S
C497 C502 1.490 . S
C498 H488 0.930 . S
C498 C497 1.400 . S
C498 C501 1.386 . S
H499 C515 0.930 . S
H500 C516 0.931 . S
C501 H489 0.929 . S
C501 C495 1.390 . S
C501 C498 1.386 . S
C502 C497 1.490 . S
C502 C504 1.417 . S
C502 C505 1.403 . S
H503 C509 0.930 . S
C504 H490 0.923 . S
C504 C502 1.417 . S
C504 C507 1.389 1_656 S
C505 C502 1.403 . S
C505 C506 1.524 . S
C505 C509 1.400 1_656 S
C506 H491 0.960 1_556 S
C506 H492 0.960 1_556 S
C506 H493 0.960 . S
C506 C505 1.524 . S
C507 C504 1.389 1_454 S
C507 C508 1.392 . S
C507 C511 1.495 . S
C508 C507 1.392 . S
C508 C509 1.385 . S
C508 C510 1.478 . S
C509 H503 0.930 . S
C509 C505 1.400 1_454 S
C509 C508 1.385 . S
C510 C508 1.478 . S
C510 C512 1.381 . S
C510 C516 1.383 . S
C511 C507 1.495 . S
C511 H517 0.959 1_554 S
C511 H518 0.963 . S
C511 H519 0.960 . S
C512 C510 1.381 . S
C512 C513 1.394 . S
C512 H520 0.930 . S
C513 C512 1.394 . S
C513 C514 1.383 . S
C513 H521 0.929 . S
C514 C513 1.383 . S
C514 C515 1.377 . S
C515 H499 0.930 . S
C515 C514 1.377 . S
C515 C516 1.379 . S
C516 H500 0.931 . S
C516 C510 1.383 . S
C516 C515 1.379 . S
H517 C511 0.959 1_556 S
H518 C511 0.963 . S
H519 C511 0.960 . S
H520 C512 0.930 . S
H521 C513 0.929 . S
H522 C530 0.929 . S
H523 C532 0.930 . S
H524 C534 0.930 . S
H525 C537 0.929 . S
H526 C540 0.930 . S
H527 C542 0.960 . S
H528 C542 0.960 . S
H529 C542 0.960 1_545 S
C530 H522 0.929 . S
C530 C531 1.377 . S
C530 C532 1.384 . S
C531 C530 1.377 . S
C531 C537 1.390 . S
C532 H523 0.930 . S
C532 C530 1.384 . S
C532 C533 1.372 . S
C533 C532 1.372 . S
C533 C534 1.400 . S
C533 C538 1.490 . S
C534 H524 0.930 . S
C534 C533 1.400 . S
C534 C537 1.386 . S
H535 C551 0.930 . S
H536 C552 0.931 . S
C537 H525 0.929 . S
C537 C531 1.390 . S
C537 C534 1.386 . S
C538 C533 1.490 . S
C538 C540 1.395 . S
C538 C541 1.403 1_545 S
H539 C545 0.930 . S
C540 H526 0.930 . S
C540 C538 1.395 . S
C540 C543 1.403 . S
C541 C538 1.403 1_565 S
C541 C542 1.524 . S
C541 C545 1.400 . S
C542 H527 0.960 . S
C542 H528 0.960 . S
C542 H529 0.960 1_565 S
C542 C541 1.524 . S
C543 C540 1.403 . S
C543 C544 1.392 1_545 S
C543 C547 1.495 . S
C544 C543 1.392 1_565 S
C544 C545 1.385 . S
C544 C546 1.478 . S
C545 H539 0.930 . S
C545 C541 1.400 . S
C545 C544 1.385 . S
C546 C544 1.478 . S
C546 C548 1.381 . S
C546 C552 1.383 . S
C547 C543 1.495 . S
C547 H553 0.959 . S
C547 H554 0.961 . S
C547 H555 0.960 1_545 S
C548 C546 1.381 . S
C548 C549 1.394 . S
C548 H556 0.930 . S
C549 C548 1.394 . S
C549 C550 1.383 . S
C549 H557 0.929 . S
C550 C549 1.383 . S
C550 C551 1.377 . S
C551 H535 0.930 . S
C551 C550 1.377 . S
C551 C552 1.379 . S
C552 H536 0.931 . S
C552 C546 1.383 . S
C552 C551 1.379 . S
H553 C547 0.959 . S
H554 C547 0.961 . S
H555 C547 0.960 1_565 S
H556 C548 0.930 . S
H557 C549 0.929 . S
H558 C566 0.929 . S
H559 C568 0.930 . S
H560 C570 0.930 . S
H561 C573 0.929 . S
H562 C576 0.930 . S
H563 C578 0.960 . S
H564 C578 0.960 . S
H565 C578 0.960 . S
C566 H558 0.929 . S
C566 C567 1.377 . S
C566 C568 1.384 . S
C567 C566 1.377 . S
C567 C573 1.390 . S
C568 H559 0.930 . S
C568 C566 1.384 . S
C568 C569 1.372 . S
C569 C568 1.372 . S
C569 C570 1.400 . S
C569 C574 1.490 . S
C570 H560 0.930 . S
C570 C569 1.400 . S
C570 C573 1.386 . S
H571 C587 0.930 . S
H572 C588 0.931 . S
C573 H561 0.929 . S
C573 C567 1.390 . S
C573 C570 1.386 . S
C574 C569 1.490 . S
C574 C576 1.395 . S
C574 C577 1.403 1_554 S
H575 C581 0.930 . S
C576 H562 0.930 . S
C576 C574 1.395 . S
C576 C579 1.403 . S
C577 C574 1.403 1_556 S
C577 C578 1.524 . S
C577 C581 1.400 . S
C578 H563 0.960 . S
C578 H564 0.960 . S
C578 H565 0.960 . S
C578 C577 1.524 . S
C579 C576 1.403 . S
C579 C580 1.392 1_554 S
C579 C583 1.495 . S
C580 C579 1.392 1_556 S
C580 C581 1.385 . S
C580 C582 1.478 . S
C581 H575 0.930 . S
C581 C577 1.400 . S
C581 C580 1.385 . S
C582 C580 1.478 . S
C582 C584 1.381 . S
C582 C588 1.383 . S
C583 C579 1.495 . S
C583 H589 0.959 . S
C583 H590 0.961 . S
C583 H591 0.960 . S
C584 C582 1.381 . S
C584 C585 1.394 . S
C584 H592 0.930 . S
C585 C584 1.394 . S
C585 C586 1.383 . S
C585 H593 0.929 . S
C586 C585 1.383 . S
C586 C587 1.377 . S
C587 H571 0.930 . S
C587 C586 1.377 . S
C587 C588 1.379 . S
C588 H572 0.931 . S
C588 C582 1.383 . S
C588 C587 1.379 . S
H589 C583 0.959 . S
H590 C583 0.961 . S
H591 C583 0.960 . S
H592 C584 0.930 . S
H593 C585 0.929 . S
H594 C602 0.929 . S
H595 C604 0.930 . S
H596 C606 0.930 . S
H597 C609 0.929 . S
H598 C612 0.930 . S
H599 C614 0.960 . S
H600 C614 0.960 . S
H601 C614 0.960 1_655 S
C602 H594 0.929 . S
C602 C603 1.377 . S
C602 C604 1.384 . S
C603 C602 1.377 . S
C603 C609 1.390 . S
C604 H595 0.930 . S
C604 C602 1.384 . S
C604 C605 1.372 . S
C605 C604 1.372 . S
C605 C606 1.400 . S
C605 C610 1.490 . S
C606 H596 0.930 . S
C606 C605 1.400 . S
C606 C609 1.386 . S
H607 C623 0.930 . S
H608 C624 0.931 . S
C609 H597 0.929 . S
C609 C603 1.390 . S
C609 C606 1.386 . S
C610 C605 1.490 . S
C610 C612 1.395 . S
C610 C613 1.406 . S
H611 C617 0.930 . S
C612 H598 0.930 . S
C612 C610 1.395 . S
C612 C615 1.410 . S
C613 C610 1.406 . S
C613 C614 1.527 1_655 S
C613 C617 1.392 1_655 S
C614 H599 0.960 . S
C614 H600 0.960 . S
C614 H601 0.960 1_455 S
C614 C613 1.527 1_455 S
C615 C612 1.410 . S
C615 C616 1.390 1_655 S
C615 C619 1.492 . S
C616 C615 1.390 1_455 S
C616 C617 1.385 . S
C616 C618 1.478 . S
C617 H611 0.930 . S
C617 C613 1.392 1_455 S
C617 C616 1.385 . S
C618 C616 1.478 . S
C618 C620 1.381 . S
C618 C624 1.383 . S
C619 C615 1.492 . S
C619 H625 0.959 . S
C619 H626 0.961 . S
C619 H627 0.960 1_655 S
C620 C618 1.381 . S
C620 C621 1.394 . S
C620 H628 0.930 . S
C621 C620 1.394 . S
C621 C622 1.383 . S
C621 H629 0.929 . S
C622 C621 1.383 . S
C622 C623 1.377 . S
C623 H607 0.930 . S
C623 C622 1.377 . S
C623 C624 1.379 . S
C624 H608 0.931 . S
C624 C618 1.383 . S
C624 C623 1.379 . S
H625 C619 0.959 . S
H626 C619 0.961 . S
H627 C619 0.960 1_455 S
H628 C620 0.930 . S
H629 C621 0.929 . S
H630 C638 0.929 . S
H631 C640 0.930 . S
H632 C642 0.930 . S
H633 C645 0.929 . S
H634 C648 0.930 . S
H635 C650 0.960 1_556 S
H636 C650 0.960 . S
H637 C650 0.960 . S
C638 H630 0.929 . S
C638 C639 1.377 . S
C638 C640 1.384 . S
C639 C638 1.377 . S
C639 C645 1.390 . S
C640 H631 0.930 . S
C640 C638 1.384 . S
C640 C641 1.372 . S
C641 C640 1.372 . S
C641 C642 1.400 . S
C641 C646 1.490 . S
C642 H632 0.930 . S
C642 C641 1.400 . S
C642 C645 1.386 . S
H643 C659 0.930 . S
H644 C660 0.931 . S
C645 H633 0.929 . S
C645 C639 1.390 . S
C645 C642 1.386 . S
C646 C641 1.490 . S
C646 C648 1.395 . S
C646 C649 1.403 . S
H647 C653 0.930 . S
C648 H634 0.930 . S
C648 C646 1.395 . S
C648 C651 1.403 1_564 S
C649 C646 1.403 . S
C649 C650 1.524 . S
C649 C653 1.400 1_564 S
C650 H635 0.960 1_554 S
C650 H636 0.960 . S
C650 H637 0.960 . S
C650 C649 1.524 . S
C651 C648 1.403 1_546 S
C651 C652 1.392 . S
C651 C655 1.495 . S
C652 C651 1.392 . S
C652 C653 1.385 . S
C652 C654 1.478 . S
C653 H647 0.930 . S
C653 C649 1.400 1_546 S
C653 C652 1.385 . S
C654 C652 1.478 . S
C654 C656 1.381 . S
C654 C660 1.383 . S
C655 C651 1.495 . S
C655 H661 0.959 1_556 S
C655 H662 0.961 . S
C655 H663 0.960 1_556 S
C656 C654 1.381 . S
C656 C657 1.394 . S
C656 H664 0.930 . S
C657 C656 1.394 . S
C657 C658 1.383 . S
C657 H665 0.929 . S
C658 C657 1.383 . S
C658 C659 1.377 . S
C659 H643 0.930 . S
C659 C658 1.377 . S
C659 C660 1.379 . S
C660 H644 0.931 . S
C660 C654 1.383 . S
C660 C659 1.379 . S
H661 C655 0.959 1_554 S
H662 C655 0.961 . S
H663 C655 0.960 1_554 S
H664 C656 0.930 . S
H665 C657 0.929 . S
H666 C674 0.929 . S
H667 C676 0.930 . S
H668 C678 0.930 . S
H669 C681 0.929 . S
H670 C684 0.930 . S
H671 C686 0.960 . S
H672 C686 0.960 . S
H673 C686 0.960 . S
C674 H666 0.929 . S
C674 C675 1.377 . S
C674 C676 1.384 . S
C675 C674 1.377 . S
C675 C681 1.390 . S
C676 H667 0.930 . S
C676 C674 1.384 . S
C676 C677 1.372 . S
C677 C676 1.372 . S
C677 C678 1.400 . S
C677 C682 1.490 . S
C678 H668 0.930 . S
C678 C677 1.400 . S
C678 C681 1.386 . S
H679 C695 0.930 . S
H680 C696 0.931 . S
C681 H669 0.929 . S
C681 C675 1.390 . S
C681 C678 1.386 . S
C682 C677 1.490 . S
C682 C684 1.395 . S
C682 C685 1.403 . S
H683 C689 0.930 . S
C684 H670 0.930 . S
C684 C682 1.395 . S
C684 C687 1.403 . S
C685 C682 1.403 . S
C685 C686 1.524 . S
C685 C689 1.400 . S
C686 H671 0.960 . S
C686 H672 0.960 . S
C686 H673 0.960 . S
C686 C685 1.524 . S
C687 C684 1.403 . S
C687 C688 1.392 . S
C687 C691 1.495 . S
C688 C687 1.392 . S
C688 C689 1.385 . S
C688 C690 1.478 . S
C689 H683 0.930 . S
C689 C685 1.400 . S
C689 C688 1.385 . S
C690 C688 1.478 . S
C690 C692 1.381 . S
C690 C696 1.383 . S
C691 C687 1.495 . S
C691 H697 0.959 . S
C691 H698 0.961 . S
C691 H699 0.960 . S
C692 C690 1.381 . S
C692 C693 1.394 . S
C692 H700 0.930 . S
C693 C692 1.394 . S
C693 C694 1.383 . S
C693 H701 0.929 . S
C694 C693 1.383 . S
C694 C695 1.377 . S
C695 H679 0.930 . S
C695 C694 1.377 . S
C695 C696 1.379 . S
C696 H680 0.931 . S
C696 C690 1.383 . S
C696 C695 1.379 . S
H697 C691 0.959 . S
H698 C691 0.961 . S
H699 C691 0.960 . S
H700 C692 0.930 . S
H701 C693 0.929 . S
H702 C710 0.929 . S
H703 C712 0.930 . S
H704 C714 0.930 . S
H705 C717 0.929 . S
H706 C720 0.930 . S
H707 C722 0.960 . S
H708 C722 0.960 . S
H709 C722 0.960 . S
C710 H702 0.929 . S
C710 C711 1.377 . S
C710 C712 1.384 . S
C711 C710 1.377 . S
C711 C717 1.390 . S
C712 H703 0.930 . S
C712 C710 1.384 . S
C712 C713 1.372 . S
C713 C712 1.372 . S
C713 C714 1.400 . S
C713 C718 1.490 . S
C714 H704 0.930 . S
C714 C713 1.400 . S
C714 C717 1.386 . S
H715 C731 0.930 . S
H716 C732 0.931 . S
C717 H705 0.929 . S
C717 C711 1.390 . S
C717 C714 1.386 . S
C718 C713 1.490 . S
C718 C720 1.395 1_556 S
C718 C721 1.403 1_655 S
H719 C725 0.930 . S
C720 H706 0.930 . S
C720 C718 1.395 1_554 S
C720 C723 1.403 . S
C721 C718 1.403 1_455 S
C721 C722 1.524 . S
C721 C725 1.400 . S
C722 H707 0.960 . S
C722 H708 0.960 . S
C722 H709 0.960 . S
C722 C721 1.524 . S
C723 C720 1.403 . S
C723 C724 1.392 1_655 S
C723 C727 1.495 . S
C724 C723 1.392 1_455 S
C724 C725 1.385 1_554 S
C724 C726 1.478 . S
C725 H719 0.930 . S
C725 C721 1.400 . S
C725 C724 1.385 1_556 S
C726 C724 1.478 . S
C726 C728 1.381 . S
C726 C732 1.383 . S
C727 C723 1.495 . S
C727 H733 0.959 . S
C727 H734 0.961 . S
C727 H735 0.960 . S
C728 C726 1.381 . S
C728 C729 1.394 . S
C728 H736 0.930 . S
C729 C728 1.394 . S
C729 C730 1.383 . S
C729 H737 0.929 . S
C730 C729 1.383 . S
C730 C731 1.377 . S
C731 H715 0.930 . S
C731 C730 1.377 . S
C731 C732 1.379 . S
C732 H716 0.931 . S
C732 C726 1.383 . S
C732 C731 1.379 . S
H733 C727 0.959 . S
H734 C727 0.961 . S
H735 C727 0.960 . S
H736 C728 0.930 . S
H737 C729 0.929 . S
H738 C746 0.929 . S
H739 C748 0.930 . S
H740 C750 0.930 . S
H741 C753 0.929 . S
H742 C756 0.930 . S
H743 C758 0.960 . S
H744 C758 0.960 . S
H745 C758 0.960 . S
C746 H738 0.929 . S
C746 C747 1.377 . S
C746 C748 1.384 . S
C747 C746 1.377 . S
C747 C753 1.390 . S
C748 H739 0.930 . S
C748 C746 1.384 . S
C748 C749 1.372 . S
C749 C748 1.372 . S
C749 C750 1.400 . S
C749 C754 1.490 . S
C750 H740 0.930 . S
C750 C749 1.400 . S
C750 C753 1.386 . S
H751 C767 0.930 . S
H752 C768 0.931 . S
C753 H741 0.929 . S
C753 C747 1.390 . S
C753 C750 1.386 . S
C754 C749 1.490 . S
C754 C756 1.395 1_565 S
C754 C757 1.403 . S
H755 C761 0.934 . S
C756 H742 0.930 . S
C756 C754 1.395 1_545 S
C756 C759 1.403 . S
C757 C754 1.403 . S
C757 C758 1.524 . S
C757 C761 1.423 . S
C758 H743 0.960 . S
C758 H744 0.960 . S
C758 H745 0.960 . S
C758 C757 1.524 . S
C759 C756 1.403 . S
C759 C760 1.392 . S
C759 C763 1.495 . S
C760 C759 1.392 . S
C760 C761 1.359 1_545 S
C760 C762 1.478 . S
C761 H755 0.934 . S
C761 C757 1.423 . S
C761 C760 1.359 1_565 S
C762 C760 1.478 . S
C762 C764 1.381 . S
C762 C768 1.383 . S
C763 C759 1.495 . S
C763 H769 0.959 . S
C763 H770 0.961 . S
C763 H771 0.960 . S
C764 C762 1.381 . S
C764 C765 1.394 . S
C764 H772 0.930 . S
C765 C764 1.394 . S
C765 C766 1.383 . S
C765 H773 0.929 . S
C766 C765 1.383 . S
C766 C767 1.377 . S
C767 H751 0.930 . S
C767 C766 1.377 . S
C767 C768 1.379 . S
C768 H752 0.931 . S
C768 C762 1.383 . S
C768 C767 1.379 . S
H769 C763 0.959 . S
H770 C763 0.961 . S
H771 C763 0.960 . S
H772 C764 0.930 . S
H773 C765 0.929 . S
C135 C19 1.351 . S
C154 C104 1.388 . S
C171 C40 1.340 . S
C190 C125 1.334 . S
C207 C20 1.353 . S
C226 C62 1.318 . S
C243 C82 1.348 . S
C262 C41 1.305 . S
C279 C61 1.340 . S
C298 C103 1.347 . S
C315 C83 1.347 . S
C334 C124 1.381 . S
C351 C121 1.361 . S
C370 C3 1.370 . S
C387 C24 1.359 . S
C406 C16 1.379 . S
C423 C37 1.353 . S
C442 C58 1.397 . S
C459 C45 1.370 . S
C478 C66 1.316 . S
C495 C79 1.365 . S
C514 C87 1.339 . S
C531 C108 1.360 . S
C550 C100 1.372 . S
C567 C46 1.184 . S
C586 C67 1.224 . S
C603 C70 1.163 . S
C622 C88 1.121 . S
C639 C91 1.169 . S
C658 C109 1.160 . S
C675 C112 1.162 . S
C694 C4 1.117 . S
C711 C25 1.166 . S
C730 C7 1.129 . S
C747 C49 1.182 . S
C766 C28 1.216 . S
