# Generated by pormake.
# Topology pem, (4)-cn, num edge types: 1
# Building blocks:
#     Node 0, Type 0, BuildingBlock: CEKHIL_clean_sbu_0, # of connection points: 4
#     Node 1, Type 0, BuildingBlock: CEKHIL_clean_sbu_0, # of connection points: 4
#     Node 2, Type 0, BuildingBlock: CEKHIL_clean_sbu_0, # of connection points: 4
#     Node 3, Type 0, BuildingBlock: CEKHIL_clean_sbu_0, # of connection points: 4
#     Node 4, Type 0, BuildingBlock: CEKHIL_clean_sbu_0, # of connection points: 4
#     Node 5, Type 0, BuildingBlock: CEKHIL_clean_sbu_0, # of connection points: 4
#     Node 6, Type 0, BuildingBlock: CEKHIL_clean_sbu_0, # of connection points: 4
#     Node 7, Type 0, BuildingBlock: CEKHIL_clean_sbu_0, # of connection points: 4
#     Node 8, Type 0, BuildingBlock: CEKHIL_clean_sbu_0, # of connection points: 4
#     Node 9, Type 0, BuildingBlock: CEKHIL_clean_sbu_0, # of connection points: 4
#     Node 10, Type 0, BuildingBlock: CEKHIL_clean_sbu_0, # of connection points: 4
#     Node 11, Type 0, BuildingBlock: CEKHIL_clean_sbu_0, # of connection points: 4
#     Node 12, Type 0, BuildingBlock: CEKHIL_clean_sbu_0, # of connection points: 4
#     Node 13, Type 0, BuildingBlock: CEKHIL_clean_sbu_0, # of connection points: 4
#     Node 14, Type 0, BuildingBlock: CEKHIL_clean_sbu_0, # of connection points: 4
#     Node 15, Type 0, BuildingBlock: CEKHIL_clean_sbu_0, # of connection points: 4
#     Node 16, Type 0, BuildingBlock: CEKHIL_clean_sbu_0, # of connection points: 4
#     Node 17, Type 0, BuildingBlock: CEKHIL_clean_sbu_0, # of connection points: 4
#     Node 18, Type 0, BuildingBlock: CEKHIL_clean_sbu_0, # of connection points: 4
#     Node 19, Type 0, BuildingBlock: CEKHIL_clean_sbu_0, # of connection points: 4
#     Node 20, Type 0, BuildingBlock: CEKHIL_clean_sbu_0, # of connection points: 4
#     Node 21, Type 0, BuildingBlock: CEKHIL_clean_sbu_0, # of connection points: 4
#     Node 22, Type 0, BuildingBlock: CEKHIL_clean_sbu_0, # of connection points: 4
#     Node 23, Type 0, BuildingBlock: CEKHIL_clean_sbu_0, # of connection points: 4
#     Node 24, Type 0, BuildingBlock: CEKHIL_clean_sbu_0, # of connection points: 4
#     Node 25, Type 0, BuildingBlock: CEKHIL_clean_sbu_0, # of connection points: 4
#     Node 26, Type 0, BuildingBlock: CEKHIL_clean_sbu_0, # of connection points: 4
#     Node 27, Type 0, BuildingBlock: CEKHIL_clean_sbu_0, # of connection points: 4
#     Node 28, Type 0, BuildingBlock: CEKHIL_clean_sbu_0, # of connection points: 4
#     Node 29, Type 0, BuildingBlock: CEKHIL_clean_sbu_0, # of connection points: 4
#     Node 30, Type 0, BuildingBlock: CEKHIL_clean_sbu_0, # of connection points: 4
#     Node 31, Type 0, BuildingBlock: CEKHIL_clean_sbu_0, # of connection points: 4
#     Edge 32, Type (0, 0), BuildingBlock: ZUJKAS_clean_linker_0, # of connection points: 2
#     Edge 33, Type (0, 0), BuildingBlock: ZUJKAS_clean_linker_0, # of connection points: 2
#     Edge 34, Type (0, 0), BuildingBlock: ZUJKAS_clean_linker_0, # of connection points: 2
#     Edge 35, Type (0, 0), BuildingBlock: ZUJKAS_clean_linker_0, # of connection points: 2
#     Edge 36, Type (0, 0), BuildingBlock: ZUJKAS_clean_linker_0, # of connection points: 2
#     Edge 37, Type (0, 0), BuildingBlock: ZUJKAS_clean_linker_0, # of connection points: 2
#     Edge 38, Type (0, 0), BuildingBlock: ZUJKAS_clean_linker_0, # of connection points: 2
#     Edge 39, Type (0, 0), BuildingBlock: ZUJKAS_clean_linker_0, # of connection points: 2
#     Edge 40, Type (0, 0), BuildingBlock: ZUJKAS_clean_linker_0, # of connection points: 2
#     Edge 41, Type (0, 0), BuildingBlock: ZUJKAS_clean_linker_0, # of connection points: 2
#     Edge 42, Type (0, 0), BuildingBlock: ZUJKAS_clean_linker_0, # of connection points: 2
#     Edge 43, Type (0, 0), BuildingBlock: ZUJKAS_clean_linker_0, # of connection points: 2
#     Edge 44, Type (0, 0), BuildingBlock: ZUJKAS_clean_linker_0, # of connection points: 2
#     Edge 45, Type (0, 0), BuildingBlock: ZUJKAS_clean_linker_0, # of connection points: 2
#     Edge 46, Type (0, 0), BuildingBlock: ZUJKAS_clean_linker_0, # of connection points: 2
#     Edge 47, Type (0, 0), BuildingBlock: ZUJKAS_clean_linker_0, # of connection points: 2
#     Edge 48, Type (0, 0), BuildingBlock: ZUJKAS_clean_linker_0, # of connection points: 2
#     Edge 49, Type (0, 0), BuildingBlock: ZUJKAS_clean_linker_0, # of connection points: 2
#     Edge 50, Type (0, 0), BuildingBlock: ZUJKAS_clean_linker_0, # of connection points: 2
#     Edge 51, Type (0, 0), BuildingBlock: ZUJKAS_clean_linker_0, # of connection points: 2
#     Edge 52, Type (0, 0), BuildingBlock: ZUJKAS_clean_linker_0, # of connection points: 2
#     Edge 53, Type (0, 0), BuildingBlock: ZUJKAS_clean_linker_0, # of connection points: 2
#     Edge 54, Type (0, 0), BuildingBlock: ZUJKAS_clean_linker_0, # of connection points: 2
#     Edge 55, Type (0, 0), BuildingBlock: ZUJKAS_clean_linker_0, # of connection points: 2
#     Edge 56, Type (0, 0), BuildingBlock: ZUJKAS_clean_linker_0, # of connection points: 2
#     Edge 57, Type (0, 0), BuildingBlock: ZUJKAS_clean_linker_0, # of connection points: 2
#     Edge 58, Type (0, 0), BuildingBlock: ZUJKAS_clean_linker_0, # of connection points: 2
#     Edge 59, Type (0, 0), BuildingBlock: ZUJKAS_clean_linker_0, # of connection points: 2
#     Edge 60, Type (0, 0), BuildingBlock: ZUJKAS_clean_linker_0, # of connection points: 2
#     Edge 61, Type (0, 0), BuildingBlock: ZUJKAS_clean_linker_0, # of connection points: 2
#     Edge 62, Type (0, 0), BuildingBlock: ZUJKAS_clean_linker_0, # of connection points: 2
#     Edge 63, Type (0, 0), BuildingBlock: ZUJKAS_clean_linker_0, # of connection points: 2
#     Edge 64, Type (0, 0), BuildingBlock: ZUJKAS_clean_linker_0, # of connection points: 2
#     Edge 65, Type (0, 0), BuildingBlock: ZUJKAS_clean_linker_0, # of connection points: 2
#     Edge 66, Type (0, 0), BuildingBlock: ZUJKAS_clean_linker_0, # of connection points: 2
#     Edge 67, Type (0, 0), BuildingBlock: ZUJKAS_clean_linker_0, # of connection points: 2
#     Edge 68, Type (0, 0), BuildingBlock: ZUJKAS_clean_linker_0, # of connection points: 2
#     Edge 69, Type (0, 0), BuildingBlock: ZUJKAS_clean_linker_0, # of connection points: 2
#     Edge 70, Type (0, 0), BuildingBlock: ZUJKAS_clean_linker_0, # of connection points: 2
#     Edge 71, Type (0, 0), BuildingBlock: ZUJKAS_clean_linker_0, # of connection points: 2
#     Edge 72, Type (0, 0), BuildingBlock: ZUJKAS_clean_linker_0, # of connection points: 2
#     Edge 73, Type (0, 0), BuildingBlock: ZUJKAS_clean_linker_0, # of connection points: 2
#     Edge 74, Type (0, 0), BuildingBlock: ZUJKAS_clean_linker_0, # of connection points: 2
#     Edge 75, Type (0, 0), BuildingBlock: ZUJKAS_clean_linker_0, # of connection points: 2
#     Edge 76, Type (0, 0), BuildingBlock: ZUJKAS_clean_linker_0, # of connection points: 2
#     Edge 77, Type (0, 0), BuildingBlock: ZUJKAS_clean_linker_0, # of connection points: 2
#     Edge 78, Type (0, 0), BuildingBlock: ZUJKAS_clean_linker_0, # of connection points: 2
#     Edge 79, Type (0, 0), BuildingBlock: ZUJKAS_clean_linker_0, # of connection points: 2
#     Edge 80, Type (0, 0), BuildingBlock: ZUJKAS_clean_linker_0, # of connection points: 2
#     Edge 81, Type (0, 0), BuildingBlock: ZUJKAS_clean_linker_0, # of connection points: 2
#     Edge 82, Type (0, 0), BuildingBlock: ZUJKAS_clean_linker_0, # of connection points: 2
#     Edge 83, Type (0, 0), BuildingBlock: ZUJKAS_clean_linker_0, # of connection points: 2
#     Edge 84, Type (0, 0), BuildingBlock: ZUJKAS_clean_linker_0, # of connection points: 2
#     Edge 85, Type (0, 0), BuildingBlock: ZUJKAS_clean_linker_0, # of connection points: 2
#     Edge 86, Type (0, 0), BuildingBlock: ZUJKAS_clean_linker_0, # of connection points: 2
#     Edge 87, Type (0, 0), BuildingBlock: ZUJKAS_clean_linker_0, # of connection points: 2
#     Edge 88, Type (0, 0), BuildingBlock: ZUJKAS_clean_linker_0, # of connection points: 2
#     Edge 89, Type (0, 0), BuildingBlock: ZUJKAS_clean_linker_0, # of connection points: 2
#     Edge 90, Type (0, 0), BuildingBlock: ZUJKAS_clean_linker_0, # of connection points: 2
#     Edge 91, Type (0, 0), BuildingBlock: ZUJKAS_clean_linker_0, # of connection points: 2
#     Edge 92, Type (0, 0), BuildingBlock: ZUJKAS_clean_linker_0, # of connection points: 2
#     Edge 93, Type (0, 0), BuildingBlock: ZUJKAS_clean_linker_0, # of connection points: 2
#     Edge 94, Type (0, 0), BuildingBlock: ZUJKAS_clean_linker_0, # of connection points: 2
#     Edge 95, Type (0, 0), BuildingBlock: ZUJKAS_clean_linker_0, # of connection points: 2
# Relax obj value: 0.214
# Max RMSD: 0.174
# Mean RMSD: 0.151
data_MOF--net-pem--node1-CEKHIL_clean_sbu_0--edge1-ZUJKAS_clean_linker_0
_symmetry_space_group_name_H-M    P1
_symmetry_Int_Tables_number       1
_symmetry_cell_setting            triclinic
loop_
_symmetry_equiv_pos_as_xyz
'x, y, z'
_cell_length_a     60.47338
_cell_length_b     50.687725
_cell_length_c     50.693392
_cell_angle_alpha  93.546684
_cell_angle_beta   91.607053
_cell_angle_gamma 91.575414
loop_
_atom_site_label
_atom_site_type_symbol
_atom_site_fract_x
_atom_site_fract_y
_atom_site_fract_z
_atom_type_partial_charge
Co0 Co 0.0953 0.1018 0.09922 0.0
O1 O 0.12306 0.08746 0.08754 0.0
O2 O 0.11475 0.12943 0.08689 0.0
C3 C 0.0945 0.07806 0.13594 0.0
O4 O 0.06845 0.1244 0.10965 0.0
Co5 Co 0.05325 0.06703 0.10737 0.0
O6 O 0.04069 0.09917 0.12405 0.0
C7 C 0.06792 0.07805 0.05348 0.0
C8 C 0.12879 0.11109 0.08138 0.0
C9 C 0.04918 0.12169 0.11984 0.0
O10 O 0.08275 0.09503 0.06248 0.0
O11 O 0.05591 0.06408 0.06802 0.0
O12 O 0.10541 0.10062 0.13649 0.0
O13 O 0.08486 0.07077 0.11367 0.0
Co14 Co 0.15317 0.84336 0.35333 0.0
O15 O 0.17104 0.82685 0.37982 0.0
O16 O 0.17206 0.86947 0.37373 0.0
C17 C 0.12124 0.82104 0.36038 0.0
O18 O 0.13725 0.86778 0.3282 0.0
Co19 Co 0.13105 0.81019 0.30505 0.0
O20 O 0.11883 0.84394 0.29514 0.0
C21 C 0.1795 0.81904 0.31014 0.0
C22 C 0.18007 0.85 0.38611 0.0
C23 C 0.12469 0.86598 0.30704 0.0
O24 O 0.17735 0.83769 0.32797 0.0
O25 O 0.16337 0.80441 0.30028 0.0
O26 O 0.12724 0.84183 0.37543 0.0
O27 O 0.13521 0.81343 0.34309 0.0
Co28 Co 0.41429 0.89167 0.60029 0.0
O29 O 0.39008 0.90872 0.58289 0.0
O30 O 0.39578 0.86589 0.57911 0.0
C31 C 0.40969 0.9145 0.63958 0.0
O32 O 0.43719 0.86605 0.61482 0.0
Co33 Co 0.45527 0.92196 0.62706 0.0
O34 O 0.46467 0.88771 0.63879 0.0
C35 C 0.45023 0.91414 0.56841 0.0
C36 C 0.38372 0.88552 0.57277 0.0
C37 C 0.45521 0.86641 0.62926 0.0
O38 O 0.4334 0.89826 0.56956 0.0
O39 O 0.45982 0.92634 0.58865 0.0
O40 O 0.39779 0.89322 0.63309 0.0
O41 O 0.42351 0.92144 0.62236 0.0
Co42 Co 0.34475 0.1621 0.87052 0.0
O43 O 0.36907 0.17738 0.85197 0.0
O44 O 0.36361 0.18459 0.89466 0.0
C45 C 0.34883 0.12127 0.85095 0.0
O46 O 0.32192 0.15034 0.89733 0.0
Co47 Co 0.30324 0.13395 0.84347 0.0
O48 O 0.29682 0.12113 0.87839 0.0
C49 C 0.3092 0.19267 0.84564 0.0
C50 C 0.37569 0.18895 0.87447 0.0
C51 C 0.30538 0.13384 0.8987 0.0
O52 O 0.32612 0.19243 0.8615 0.0
O53 O 0.29901 0.17178 0.83556 0.0
O54 O 0.36075 0.12928 0.87181 0.0
O55 O 0.33504 0.13792 0.84253 0.0
Co56 Co 0.11037 0.87825 0.42542 0.0
O57 O 0.09001 0.85376 0.44118 0.0
O58 O 0.08999 0.86073 0.39879 0.0
C59 C 0.14126 0.86687 0.4487 0.0
O60 O 0.12831 0.90227 0.40156 0.0
Co61 Co 0.13572 0.92311 0.46061 0.0
O62 O 0.1466 0.93462 0.42672 0.0
C63 C 0.08792 0.92611 0.44799 0.0
C64 C 0.08074 0.84897 0.41791 0.0
C65 C 0.14064 0.92367 0.40425 0.0
O66 O 0.08873 0.90668 0.43074 0.0
O67 O 0.10423 0.93394 0.46345 0.0
O68 O 0.13449 0.85276 0.42755 0.0
O69 O 0.12859 0.88578 0.45573 0.0
Co70 Co 0.36052 0.82146 0.65216 0.0
O71 O 0.38298 0.80266 0.67106 0.0
O72 O 0.38021 0.80393 0.62765 0.0
C73 C 0.36362 0.85808 0.68072 0.0
O74 O 0.34013 0.83746 0.62435 0.0
Co75 Co 0.31751 0.84392 0.67488 0.0
O76 O 0.31221 0.86052 0.64127 0.0
C77 C 0.32163 0.78603 0.66043 0.0
C78 C 0.39035 0.79504 0.64806 0.0
C79 C 0.32294 0.85175 0.6216 0.0
O80 O 0.3407 0.7893 0.65057 0.0
O81 O 0.31089 0.80477 0.67183 0.0
O82 O 0.3771 0.85483 0.66126 0.0
O83 O 0.34874 0.83964 0.68214 0.0
Co84 Co 0.40341 0.09573 0.92057 0.0
O85 O 0.38007 0.07517 0.93571 0.0
O86 O 0.38262 0.11875 0.93877 0.0
C87 C 0.40138 0.07083 0.88151 0.0
O88 O 0.42524 0.12457 0.90843 0.0
Co89 Co 0.4469 0.07289 0.90001 0.0
O90 O 0.45265 0.10707 0.88476 0.0
C91 C 0.43941 0.0816 0.95788 0.0
C92 C 0.37208 0.09731 0.94475 0.0
C93 C 0.44262 0.12698 0.89434 0.0
O94 O 0.42141 0.09366 0.95387 0.0
O95 O 0.45082 0.07099 0.93934 0.0
O96 O 0.38835 0.09047 0.88593 0.0
O97 O 0.41524 0.0668 0.90048 0.0
Co98 Co 0.16102 0.1318 0.16302 0.0
O99 O 0.13851 0.15152 0.18159 0.0
O100 O 0.1404 0.14653 0.13815 0.0
C101 C 0.15966 0.09704 0.18939 0.0
O102 O 0.18207 0.11434 0.13627 0.0
Co103 Co 0.2049 0.1158 0.18957 0.0
O104 O 0.21045 0.09515 0.15632 0.0
C105 C 0.19798 0.17119 0.17539 0.0
C106 C 0.13085 0.15744 0.15859 0.0
C107 C 0.1998 0.10069 0.13552 0.0
O108 O 0.17949 0.16484 0.16355 0.0
O109 O 0.20962 0.15503 0.18794 0.0
O110 O 0.14597 0.09793 0.16922 0.0
O111 O 0.17321 0.11698 0.19331 0.0
Co112 Co 0.59927 0.38954 0.91718 0.0
O113 O 0.57965 0.36419 0.93252 0.0
O114 O 0.58375 0.36757 0.88966 0.0
C115 C 0.62881 0.38469 0.94469 0.0
O116 O 0.6171 0.41246 0.89325 0.0
Co117 Co 0.61965 0.44029 0.94768 0.0
O118 O 0.63741 0.44442 0.91605 0.0
C119 C 0.57191 0.43563 0.93174 0.0
C120 C 0.57346 0.35647 0.90841 0.0
C121 C 0.63142 0.43182 0.89445 0.0
O122 O 0.57487 0.41486 0.91682 0.0
O123 O 0.58712 0.44723 0.94671 0.0
O124 O 0.62471 0.36824 0.92449 0.0
O125 O 0.61433 0.40253 0.94867 0.0
Co126 Co 0.8524 0.34669 0.14956 0.0
O127 O 0.87665 0.33054 0.1677 0.0
O128 O 0.87194 0.32969 0.12429 0.0
C129 C 0.85384 0.38511 0.17516 0.0
O130 O 0.82979 0.36051 0.12341 0.0
Co131 Co 0.80956 0.36478 0.17684 0.0
O132 O 0.8048 0.38477 0.14508 0.0
C133 C 0.81628 0.30784 0.16163 0.0
C134 C 0.88325 0.32217 0.14458 0.0
C135 C 0.81352 0.37639 0.12376 0.0
O136 O 0.83463 0.3129 0.15063 0.0
O137 O 0.80481 0.32545 0.17371 0.0
O138 O 0.86667 0.38199 0.15507 0.0
O139 O 0.84143 0.36501 0.17969 0.0
Co140 Co 0.90459 0.60026 0.44623 0.0
O141 O 0.87962 0.58619 0.46356 0.0
O142 O 0.88784 0.62893 0.46209 0.0
C143 C 0.89968 0.57311 0.40991 0.0
O144 O 0.92893 0.62196 0.42959 0.0
Co145 Co 0.94383 0.56533 0.42821 0.0
O146 O 0.9511 0.59497 0.40629 0.0
C147 C 0.93886 0.58372 0.48482 0.0
C148 C 0.87491 0.61041 0.47041 0.0
C149 C 0.94448 0.61794 0.41304 0.0
O150 O 0.92269 0.59856 0.47968 0.0
O151 O 0.94808 0.56849 0.46753 0.0
O152 O 0.88896 0.59501 0.41199 0.0
O153 O 0.91218 0.56799 0.42971 0.0
Co154 Co 0.85674 0.64551 0.35953 0.0
O155 O 0.88207 0.6631 0.34381 0.0
O156 O 0.8755 0.66555 0.38623 0.0
C157 C 0.86005 0.60619 0.33511 0.0
O158 O 0.83286 0.63133 0.38461 0.0
Co159 Co 0.81496 0.62095 0.32953 0.0
O160 O 0.80613 0.60633 0.36291 0.0
C161 C 0.82183 0.67947 0.33823 0.0
C162 C 0.88801 0.67278 0.36737 0.0
C163 C 0.8151 0.6163 0.38433 0.0
O164 O 0.83874 0.67733 0.35374 0.0
O165 O 0.81144 0.65979 0.326 0.0
O166 O 0.87202 0.61158 0.35663 0.0
O167 O 0.84686 0.62437 0.32887 0.0
Co168 Co 0.65938 0.33235 0.87018 0.0
O169 O 0.67644 0.31453 0.89665 0.0
O170 O 0.67928 0.35717 0.89087 0.0
C171 C 0.62605 0.31145 0.87695 0.0
O172 O 0.64559 0.35845 0.84486 0.0
Co173 Co 0.63596 0.30176 0.8213 0.0
O174 O 0.62634 0.33678 0.81105 0.0
C175 C 0.68416 0.30217 0.83233 0.0
C176 C 0.68651 0.33711 0.90302 0.0
C177 C 0.63359 0.35815 0.82324 0.0
O178 O 0.6831 0.32467 0.84489 0.0
O179 O 0.66699 0.28842 0.82407 0.0
O180 O 0.63307 0.33165 0.89209 0.0
O181 O 0.63978 0.30367 0.85942 0.0
Co182 Co 0.91361 0.92083 0.8805 0.0
O183 O 0.94088 0.91193 0.86303 0.0
O184 O 0.91729 0.8828 0.878 0.0
C185 C 0.90305 0.95218 0.85243 0.0
O186 O 0.88415 0.92158 0.90016 0.0
Co187 Co 0.90617 0.97751 0.90562 0.0
O188 O 0.87743 0.96291 0.91605 0.0
C189 C 0.93651 0.94139 0.93134 0.0
C190 C 0.93633 0.88747 0.86762 0.0
C191 C 0.87233 0.93833 0.91345 0.0
O192 O 0.93005 0.92217 0.91519 0.0
O193 O 0.93023 0.96517 0.92958 0.0
O194 O 0.89904 0.92716 0.84622 0.0
O195 O 0.91437 0.95719 0.87408 0.0
Co196 Co 0.83946 0.17048 0.62833 0.0
O197 O 0.85851 0.16615 0.65917 0.0
O198 O 0.83994 0.13345 0.63733 0.0
C199 C 0.86455 0.19811 0.6099 0.0
O200 O 0.8173 0.16703 0.59575 0.0
Co201 Co 0.82273 0.22527 0.61544 0.0
O202 O 0.80675 0.20719 0.58476 0.0
C203 C 0.8046 0.19733 0.65979 0.0
C204 C 0.85292 0.14125 0.65743 0.0
C205 C 0.80559 0.18211 0.58131 0.0
O206 O 0.81425 0.17624 0.652 0.0
O207 O 0.80724 0.21945 0.6492 0.0
O208 O 0.86551 0.1726 0.60626 0.0
O209 O 0.84877 0.20609 0.62471 0.0
Co210 Co 0.57247 0.11523 0.3779 0.0
O211 O 0.54272 0.12331 0.36553 0.0
O212 O 0.56667 0.15287 0.38381 0.0
C213 C 0.57876 0.08795 0.34101 0.0
O214 O 0.60487 0.11586 0.39386 0.0
Co215 Co 0.58862 0.05855 0.38628 0.0
O216 O 0.61775 0.07492 0.39622 0.0
C217 C 0.55822 0.08548 0.42383 0.0
C218 C 0.54691 0.14778 0.37365 0.0
C219 C 0.62028 0.09985 0.40029 0.0
O220 O 0.56039 0.10777 0.41326 0.0
O221 O 0.56671 0.06403 0.41478 0.0
O222 O 0.58214 0.11346 0.34073 0.0
O223 O 0.57212 0.08003 0.36307 0.0
Co224 Co 0.68732 0.85344 0.13356 0.0
O225 O 0.7153 0.87215 0.13032 0.0
O226 O 0.69767 0.84817 0.09785 0.0
C227 C 0.67217 0.88743 0.15668 0.0
O228 O 0.65779 0.83192 0.1286 0.0
Co229 Co 0.66748 0.84247 0.18826 0.0
O230 O 0.64162 0.82739 0.16763 0.0
C231 C 0.70504 0.81187 0.16738 0.0
C232 C 0.71467 0.86311 0.10582 0.0
C233 C 0.64183 0.82346 0.14261 0.0
O234 O 0.70337 0.82153 0.14458 0.0
O235 O 0.69353 0.81916 0.18719 0.0
O236 O 0.6722 0.88705 0.13097 0.0
O237 O 0.68156 0.86812 0.16723 0.0
Co238 Co 0.91445 0.10656 0.59551 0.0
O239 O 0.89442 0.0774 0.60229 0.0
O240 O 0.91397 0.10075 0.63326 0.0
C241 C 0.89113 0.12447 0.56602 0.0
O242 O 0.93714 0.13821 0.5956 0.0
Co243 Co 0.93117 0.11275 0.5381 0.0
O244 O 0.94581 0.14556 0.55362 0.0
C245 C 0.94311 0.06803 0.56987 0.0
C246 C 0.90039 0.08077 0.62703 0.0
C247 C 0.94758 0.15146 0.57841 0.0
O248 O 0.93862 0.08097 0.59138 0.0
O249 O 0.93904 0.07607 0.54684 0.0
O250 O 0.88919 0.12979 0.59131 0.0
O251 O 0.90603 0.10788 0.55988 0.0
Co252 Co 0.68078 0.17333 0.35953 0.0
O253 O 0.70974 0.1588 0.36232 0.0
O254 O 0.69181 0.17647 0.39609 0.0
C255 C 0.66836 0.13876 0.33252 0.0
O256 O 0.65032 0.19032 0.36439 0.0
Co257 Co 0.65925 0.18624 0.30612 0.0
O258 O 0.63165 0.18953 0.32544 0.0
C259 C 0.69708 0.21861 0.33064 0.0
C260 C 0.70961 0.16539 0.38739 0.0
C261 C 0.63259 0.194 0.35039 0.0
O262 O 0.69486 0.20822 0.35286 0.0
O263 O 0.68553 0.2113 0.30976 0.0
O264 O 0.66758 0.1376 0.35807 0.0
O265 O 0.67602 0.16057 0.32424 0.0
Co266 Co 0.59219 0.9012 0.08988 0.0
O267 O 0.56227 0.8983 0.10307 0.0
O268 O 0.58174 0.86419 0.08997 0.0
C269 C 0.60319 0.93211 0.12296 0.0
O270 O 0.62351 0.89556 0.07352 0.0
Co271 Co 0.61317 0.95328 0.07258 0.0
O272 O 0.64055 0.93421 0.06578 0.0
C273 C 0.57551 0.92569 0.04239 0.0
C274 C 0.56315 0.87289 0.09888 0.0
C275 C 0.64026 0.9091 0.06515 0.0
O276 O 0.57905 0.90426 0.05378 0.0
O277 O 0.58615 0.94749 0.0487 0.0
O278 O 0.60399 0.90694 0.12656 0.0
O279 O 0.59618 0.9378 0.09985 0.0
Co280 Co 0.84301 0.85862 0.84867 0.0
O281 O 0.81484 0.87558 0.85533 0.0
O282 O 0.83503 0.85723 0.88561 0.0
C283 C 0.85643 0.88951 0.8217 0.0
O284 O 0.87285 0.83905 0.84979 0.0
Co285 Co 0.85552 0.83891 0.79118 0.0
O286 O 0.88312 0.82779 0.80828 0.0
C287 C 0.81659 0.81891 0.81822 0.0
C288 C 0.81676 0.86871 0.87951 0.0
C289 C 0.88649 0.8283 0.83324 0.0
O290 O 0.82651 0.82452 0.84054 0.0
O291 O 0.82456 0.82537 0.79631 0.0
O292 O 0.85818 0.89382 0.84735 0.0
O293 O 0.84583 0.86813 0.81386 0.0
Co294 Co 0.41326 0.61858 0.07757 0.0
O295 O 0.39238 0.5907 0.08578 0.0
O296 O 0.41429 0.61317 0.11524 0.0
C297 C 0.38947 0.63819 0.04972 0.0
O298 O 0.43716 0.64856 0.07704 0.0
Co299 Co 0.42884 0.62403 0.02048 0.0
O300 O 0.44991 0.65137 0.0359 0.0
C301 C 0.44762 0.58363 0.05336 0.0
C302 C 0.39969 0.59406 0.11007 0.0
C303 C 0.4507 0.65812 0.06047 0.0
O304 O 0.43664 0.59206 0.07313 0.0
O305 O 0.44592 0.59262 0.03039 0.0
O306 O 0.3892 0.6433 0.0751 0.0
O307 O 0.40312 0.62044 0.042 0.0
Co308 Co 0.16697 0.69053 0.85943 0.0
O309 O 0.19525 0.67355 0.86137 0.0
O310 O 0.17913 0.69323 0.89555 0.0
C311 C 0.15071 0.65719 0.83327 0.0
O312 O 0.13786 0.71022 0.86568 0.0
Co313 Co 0.14539 0.70591 0.80642 0.0
O314 O 0.11958 0.71577 0.82716 0.0
C315 C 0.18722 0.73125 0.82817 0.0
C316 C 0.19603 0.68068 0.88638 0.0
C317 C 0.12097 0.71789 0.85226 0.0
O318 O 0.18291 0.72394 0.85131 0.0
O319 O 0.17518 0.72437 0.80759 0.0
O320 O 0.15167 0.65595 0.85888 0.0
O321 O 0.15972 0.67807 0.82449 0.0
Co322 Co 0.08852 0.39935 0.5949 0.0
O323 O 0.05858 0.39445 0.6071 0.0
O324 O 0.07885 0.36215 0.59107 0.0
C325 C 0.09856 0.42799 0.63038 0.0
O326 O 0.1199 0.39584 0.57919 0.0
Co327 Co 0.10918 0.45361 0.58266 0.0
O328 O 0.13699 0.4354 0.57601 0.0
C329 C 0.07494 0.42609 0.54657 0.0
C330 C 0.05994 0.36948 0.60026 0.0
C331 C 0.13673 0.41032 0.57287 0.0
O332 O 0.07626 0.40478 0.55881 0.0
O333 O 0.08544 0.44766 0.5542 0.0
O334 O 0.09961 0.40249 0.63208 0.0
O335 O 0.09189 0.43519 0.60767 0.0
Co336 Co 0.18491 0.35 0.62339 0.0
O337 O 0.21336 0.36627 0.6173 0.0
O338 O 0.19341 0.34227 0.58702 0.0
C339 C 0.17266 0.38654 0.64586 0.0
O340 O 0.15444 0.33007 0.62249 0.0
Co341 Co 0.16894 0.3442 0.68097 0.0
O342 O 0.14107 0.33076 0.66357 0.0
C343 C 0.20352 0.30993 0.65817 0.0
C344 C 0.2116 0.35587 0.59333 0.0
C345 C 0.13929 0.32424 0.63893 0.0
O346 O 0.20033 0.31792 0.63486 0.0
O347 O 0.19397 0.31937 0.67875 0.0
O348 O 0.17085 0.38435 0.62015 0.0
O349 O 0.18196 0.36725 0.65657 0.0
Co350 Co 0.35109 0.66148 0.1429 0.0
O351 O 0.36979 0.65329 0.17316 0.0
O352 O 0.34945 0.62387 0.14865 0.0
C353 C 0.37694 0.6897 0.1263 0.0
O354 O 0.32899 0.66111 0.11032 0.0
Co355 Co 0.33644 0.71843 0.13324 0.0
O356 O 0.31807 0.70227 0.10356 0.0
C357 C 0.31582 0.68765 0.17439 0.0
C358 C 0.36266 0.62896 0.16911 0.0
C359 C 0.31654 0.67741 0.09832 0.0
O360 O 0.32591 0.66679 0.16688 0.0
O361 O 0.31889 0.71019 0.1648 0.0
O362 O 0.37765 0.66424 0.12143 0.0
O363 O 0.36137 0.69714 0.14155 0.0
Co364 Co 0.61236 0.58736 0.60128 0.0
O365 O 0.63818 0.57086 0.58613 0.0
O366 O 0.63367 0.6138 0.58961 0.0
C367 C 0.61099 0.5612 0.63658 0.0
O368 O 0.58778 0.61218 0.61497 0.0
Co369 Co 0.56834 0.55695 0.61082 0.0
O370 O 0.55981 0.58895 0.63161 0.0
C371 C 0.57929 0.57441 0.55728 0.0
C372 C 0.64565 0.59423 0.58117 0.0
C373 C 0.5692 0.61084 0.62705 0.0
O374 O 0.59769 0.5854 0.56551 0.0
O375 O 0.56629 0.56172 0.57187 0.0
O376 O 0.62371 0.58226 0.63719 0.0
O377 O 0.6001 0.556 0.61464 0.0
Co378 Co 0.92173 0.37419 0.09112 0.0
O379 O 0.89404 0.38828 0.07843 0.0
O380 O 0.90339 0.34694 0.07118 0.0
C381 C 0.92052 0.3947 0.13224 0.0
O382 O 0.94851 0.35183 0.10195 0.0
Co383 Co 0.96195 0.41075 0.11159 0.0
O384 O 0.97298 0.37826 0.12606 0.0
C385 C 0.95048 0.4032 0.05428 0.0
C386 C 0.88888 0.36498 0.06766 0.0
C387 C 0.96617 0.35538 0.11706 0.0
O388 O 0.93618 0.38453 0.05773 0.0
O389 O 0.96098 0.41662 0.07308 0.0
O390 O 0.9098 0.37229 0.12685 0.0
O391 O 0.93052 0.40407 0.11275 0.0
Co392 Co 0.6517 0.64912 0.66931 0.0
O393 O 0.62472 0.66123 0.68524 0.0
O394 O 0.63119 0.65947 0.64239 0.0
C395 C 0.65578 0.61359 0.69378 0.0
O396 O 0.67648 0.63836 0.6447 0.0
Co397 Co 0.69652 0.64363 0.69956 0.0
O398 O 0.70574 0.62382 0.6671 0.0
C399 C 0.67818 0.69621 0.68994 0.0
C400 C 0.61837 0.6667 0.66151 0.0
C401 C 0.69533 0.62729 0.64553 0.0
O402 O 0.66369 0.68612 0.6732 0.0
O403 O 0.69133 0.68259 0.70352 0.0
O404 O 0.64285 0.61216 0.67285 0.0
O405 O 0.66495 0.63639 0.69991 0.0
Co406 Co 0.4277 0.40341 0.38507 0.0
O407 O 0.45734 0.39856 0.37234 0.0
O408 O 0.43534 0.36649 0.38486 0.0
C409 C 0.41699 0.43156 0.35415 0.0
O410 O 0.39665 0.40032 0.40012 0.0
Co411 Co 0.41204 0.45936 0.40516 0.0
O412 O 0.38359 0.44081 0.40991 0.0
C413 C 0.44132 0.42832 0.43871 0.0
C414 C 0.45473 0.37378 0.37699 0.0
C415 C 0.38161 0.41571 0.40925 0.0
O416 O 0.44002 0.40841 0.4219 0.0
O417 O 0.43261 0.45058 0.43484 0.0
O418 O 0.41603 0.40611 0.3486 0.0
O419 O 0.42554 0.43894 0.37698 0.0
Co420 Co 0.08423 0.60952 0.88996 0.0
O421 O 0.05584 0.61653 0.87281 0.0
O422 O 0.07686 0.64667 0.89542 0.0
C423 C 0.09596 0.58344 0.85495 0.0
O424 O 0.11474 0.61157 0.91052 0.0
Co425 Co 0.10127 0.55407 0.90129 0.0
O426 O 0.12976 0.5717 0.91239 0.0
C427 C 0.06541 0.57839 0.9327 0.0
C428 C 0.0586 0.64094 0.88193 0.0
C429 C 0.13079 0.59662 0.91725 0.0
O430 O 0.06835 0.60089 0.92274 0.0
O431 O 0.07576 0.55759 0.92546 0.0
O432 O 0.0982 0.6091 0.85518 0.0
O433 O 0.08678 0.57451 0.87525 0.0
Co434 Co 0.33505 0.37076 0.34873 0.0
O435 O 0.30574 0.38491 0.35483 0.0
O436 O 0.32826 0.3728 0.38638 0.0
C437 C 0.34515 0.4007 0.31852 0.0
O438 O 0.3662 0.354 0.35027 0.0
Co439 Co 0.34772 0.34858 0.29222 0.0
O440 O 0.37688 0.34337 0.30884 0.0
C441 C 0.31837 0.31761 0.32549 0.0
C442 C 0.30892 0.38137 0.37974 0.0
C443 C 0.3803 0.34408 0.33377 0.0
O444 O 0.32132 0.33443 0.34528 0.0
O445 O 0.32622 0.32062 0.30263 0.0
O446 O 0.34752 0.40682 0.34382 0.0
O447 O 0.33594 0.37789 0.31271 0.0
H448 H 0.03271 0.07978 0.01991 0.0
H449 H 0.02471 0.04408 0.98643 0.0
H450 H 0.09239 0.01987 0.99227 0.0
H451 H 0.10057 0.0562 0.02541 0.0
H452 H 0.04294 0.01103 0.93988 0.0
H453 H 0.05169 0.97269 0.04049 0.0
H454 H 0.05039 0.00767 0.03646 0.0
H455 H 0.07455 0.99018 0.02677 0.0
C456 C 0.04625 0.06815 0.0125 0.0
C457 C 0.06706 0.07016 0.02536 0.0
C458 C 0.0417 0.04765 0.99346 0.0
C459 C 0.05788 0.02901 0.98765 0.0
C460 C 0.07975 0.03406 0.99676 0.0
H461 H 0.96902 0.90577 0.92434 0.0
H462 H 0.00676 0.91356 0.94193 0.0
C463 C 0.0844 0.05491 0.01555 0.0
C464 C 0.05001 0.00188 0.97995 0.0
H465 H 0.02684 0.95019 0.01044 0.0
C466 C 0.04032 0.99686 0.95475 0.0
C467 C 0.04646 0.9838 0.99978 0.0
C468 C 0.05625 0.98869 0.02745 0.0
C469 C 0.02507 0.97577 0.94966 0.0
C470 C 0.01971 0.95939 0.9704 0.0
C471 C 0.03134 0.9626 0.99463 0.0
C472 C 0.99809 0.94542 0.96967 0.0
C473 C 0.01265 0.97338 0.92329 0.0
C474 C 0.98067 0.95882 0.98172 0.0
C475 C 0.9592 0.95477 0.9715 0.0
C476 C 0.95515 0.93705 0.94948 0.0
C477 C 0.97185 0.91992 0.94109 0.0
C478 C 0.99344 0.92424 0.95113 0.0
H479 H 0.01871 0.98799 0.90952 0.0
H480 H 0.01444 0.95325 0.91385 0.0
H481 H 0.99474 0.97645 0.9262 0.0
H482 H 0.98401 0.97505 0.99636 0.0
H483 H 0.94641 0.96772 0.97866 0.0
H484 H 0.27494 0.70686 0.17844 0.0
H485 H 0.25678 0.71806 0.21983 0.0
H486 H 0.30767 0.6792 0.26297 0.0
H487 H 0.32555 0.66704 0.22118 0.0
H488 H 0.24599 0.69062 0.27324 0.0
H489 H 0.31502 0.76588 0.27233 0.0
H490 H 0.30695 0.74736 0.24192 0.0
H491 H 0.31987 0.73088 0.26836 0.0
C492 C 0.2816 0.69964 0.19663 0.0
C493 C 0.30164 0.68656 0.19702 0.0
C494 C 0.27123 0.70587 0.22017 0.0
C495 C 0.28117 0.69964 0.24425 0.0
C496 C 0.29986 0.68398 0.24444 0.0
H497 H 0.21371 0.81569 0.34521 0.0
H498 H 0.24524 0.78681 0.33871 0.0
C499 C 0.31 0.67715 0.22069 0.0
C500 C 0.27486 0.71523 0.26795 0.0
H501 H 0.28103 0.78011 0.28936 0.0
C502 C 0.25415 0.70968 0.2782 0.0
C503 C 0.28565 0.74007 0.27416 0.0
C504 C 0.30816 0.74656 0.26376 0.0
C505 C 0.24263 0.72966 0.29157 0.0
C506 C 0.2521 0.75553 0.29411 0.0
C507 C 0.27396 0.76016 0.28715 0.0
C508 C 0.23767 0.77811 0.29712 0.0
C509 C 0.21932 0.7239 0.29985 0.0
C510 C 0.22417 0.78378 0.27539 0.0
C511 C 0.20612 0.7998 0.27903 0.0
C512 C 0.20179 0.81064 0.30434 0.0
C513 C 0.21694 0.80762 0.32544 0.0
C514 C 0.23482 0.79109 0.32187 0.0
H515 H 0.21645 0.7025 0.30254 0.0
H516 H 0.21577 0.73538 0.31855 0.0
H517 H 0.20749 0.7298 0.28429 0.0
H518 H 0.22645 0.77393 0.2561 0.0
H519 H 0.1946 0.80198 0.2626 0.0
H520 H 0.49213 0.91978 0.55245 0.0
H521 H 0.50393 0.95107 0.52063 0.0
H522 H 0.43588 0.96096 0.4963 0.0
H523 H 0.42396 0.92939 0.52824 0.0
H524 H 0.49604 0.96131 0.46502 0.0
H525 H 0.45773 0.03213 0.53776 0.0
H526 H 0.46293 0.99842 0.54505 0.0
H527 H 0.44062 0.00539 0.5227 0.0
C528 C 0.47981 0.92758 0.53932 0.0
C529 C 0.4572 0.92249 0.54278 0.0
C530 C 0.48652 0.94554 0.52129 0.0
C531 C 0.47067 0.95868 0.50674 0.0
C532 C 0.44825 0.95112 0.5077 0.0
H533 H 0.51433 0.09324 0.42104 0.0
H534 H 0.48768 0.0661 0.44384 0.0
C535 C 0.4415 0.93289 0.52565 0.0
C536 C 0.47763 0.98295 0.49442 0.0
H537 H 0.48067 0.05008 0.50649 0.0
C538 C 0.49224 0.98076 0.47356 0.0
C539 C 0.47288 0.0082 0.50613 0.0
C540 C 0.45778 0.0114 0.52925 0.0
C541 C 0.50288 0.0032 0.46461 0.0
C542 C 0.49889 0.02829 0.47708 0.0
C543 C 0.48353 0.03071 0.4971 0.0
C544 C 0.51222 0.05157 0.47071 0.0
C545 C 0.51921 0.99985 0.44274 0.0
C546 C 0.53429 0.05382 0.47993 0.0
C547 C 0.54946 0.06914 0.46693 0.0
C548 C 0.54255 0.08247 0.44487 0.0
C549 C 0.51989 0.08343 0.43832 0.0
C550 C 0.50471 0.06777 0.45114 0.0
H551 H 0.51766 0.97992 0.43232 0.0
H552 H 0.51683 0.01502 0.42811 0.0
H553 H 0.53629 0.00253 0.45127 0.0
H554 H 0.54024 0.04136 0.49508 0.0
H555 H 0.56692 0.06791 0.472 0.0
H556 H 0.33739 0.22935 0.8277 0.0
H557 H 0.32784 0.25883 0.79286 0.0
H558 H 0.25859 0.23985 0.80179 0.0
H559 H 0.26806 0.21002 0.83607 0.0
H560 H 0.30349 0.22936 0.74839 0.0
H561 H 0.26101 0.31966 0.78478 0.0
H562 H 0.2808 0.30309 0.80495 0.0
H563 H 0.25291 0.29012 0.80032 0.0
C564 C 0.3201 0.23267 0.82323 0.0
C565 C 0.30339 0.21748 0.83433 0.0
C566 C 0.3147 0.24932 0.80324 0.0
C567 C 0.29258 0.25137 0.79487 0.0
C568 C 0.27575 0.23872 0.80828 0.0
H569 H 0.20028 0.26281 0.67977 0.0
H570 H 0.22955 0.24603 0.70779 0.0
C571 C 0.28114 0.22174 0.82785 0.0
C572 C 0.28712 0.26146 0.76901 0.0
H573 H 0.25227 0.30326 0.73995 0.0
C574 C 0.2929 0.24608 0.74634 0.0
C575 C 0.27311 0.28299 0.76665 0.0
C576 C 0.2667 0.30008 0.79046 0.0
C577 C 0.28359 0.25057 0.72146 0.0
C578 C 0.26853 0.27104 0.71946 0.0
C579 C 0.264 0.2876 0.74176 0.0
C580 C 0.2547 0.2735 0.69559 0.0
C581 C 0.28858 0.2325 0.6978 0.0
C582 C 0.25984 0.29299 0.67816 0.0
C583 C 0.24325 0.3021 0.66162 0.0
C584 C 0.22147 0.29214 0.66312 0.0
C585 C 0.21708 0.27039 0.6781 0.0
C586 C 0.23372 0.26097 0.6942 0.0
H587 H 0.30249 0.21936 0.70192 0.0
H588 H 0.27363 0.22004 0.69197 0.0
H589 H 0.29268 0.24433 0.68078 0.0
H590 H 0.27596 0.30296 0.6793 0.0
H591 H 0.24679 0.31925 0.65052 0.0
H592 H 0.08024 0.97276 0.47491 0.0
H593 H 0.04462 0.98771 0.48994 0.0
H594 H 0.01152 0.92211 0.44534 0.0
H595 H 0.04726 0.9067 0.43021 0.0
H596 H 1.00191 0.99805 0.46394 0.0
H597 H 1.0019 0.91067 0.52591 0.0
H598 H 0.02673 0.92076 0.50985 0.0
H599 H 1.00368 0.90641 0.49048 0.0
C600 C 0.06539 0.96182 0.4678 0.0
C601 C 0.06651 0.93827 0.45196 0.0
C602 C 0.04507 0.97045 0.47624 0.0
C603 C 0.02571 0.95564 0.46898 0.0
C604 C 0.02646 0.93349 0.45123 0.0
H605 H 0.92069 0.02225 0.55964 0.0
H606 H 0.9374 0.98386 0.53754 0.0
C607 C 0.04685 0.92484 0.44264 0.0
C608 C 1.00573 0.96184 0.48334 0.0
H609 H 0.98299 0.94804 0.54191 0.0
C610 C 0.99694 0.98671 0.48038 0.0
C611 C 0.99957 0.94682 0.50472 0.0
C612 C 0.00838 0.91964 0.50812 0.0
C613 C 0.98394 0.99828 0.4999 0.0
C614 C 0.97993 0.98447 0.52279 0.0
C615 C 0.98662 0.95848 0.52443 0.0
C616 C 0.97091 0.99841 0.54595 0.0
C617 C 0.97636 0.02614 0.49704 0.0
C618 C 0.9845 0.01763 0.56002 0.0
C619 C 0.97501 0.03963 0.5724 0.0
C620 C 0.95205 0.04193 0.57087 0.0
C621 C 0.9385 0.02048 0.56098 0.0
C622 C 0.94797 0.9986 0.54841 0.0
H623 H 0.97678 0.03169 0.47619 0.0
H624 H 0.9593 0.02849 0.50417 0.0
H625 H 0.98751 0.04017 0.50914 0.0
H626 H 1.00231 0.01759 0.55809 0.0
H627 H 0.9856 0.05623 0.57976 0.0
H628 H 0.27939 0.76685 0.65528 0.0
H629 H 0.26487 0.73909 0.68849 0.0
H630 H 0.33116 0.71801 0.71043 0.0
H631 H 0.34579 0.74567 0.67693 0.0
H632 H 0.2694 0.69125 0.71983 0.0
H633 H 0.31317 0.78413 0.76061 0.0
H634 H 0.30779 0.77806 0.72563 0.0
H635 H 0.32855 0.75983 0.74208 0.0
C636 C 0.29073 0.75468 0.66574 0.0
C637 C 0.31364 0.75917 0.66458 0.0
C638 C 0.28243 0.73882 0.68481 0.0
C639 C 0.29713 0.72762 0.70256 0.0
C640 C 0.3197 0.72702 0.69712 0.0
H641 H 0.22409 0.70896 0.84477 0.0
H642 H 0.25882 0.70885 0.82184 0.0
C643 C 0.32802 0.74276 0.67783 0.0
C644 C 0.28986 0.72593 0.72983 0.0
H645 H 0.28544 0.76655 0.78566 0.0
C646 C 0.2735 0.707 0.73478 0.0
C647 C 0.29502 0.74707 0.7489 0.0
C648 C 0.31202 0.76854 0.74419 0.0
C649 C 0.26098 0.70969 0.75754 0.0
C650 C 0.26519 0.73179 0.77564 0.0
C651 C 0.28258 0.74961 0.77171 0.0
C652 C 0.24915 0.73892 0.79583 0.0
C653 C 0.24209 0.69022 0.76098 0.0
C654 C 0.23322 0.75756 0.79016 0.0
C655 C 0.21352 0.75806 0.80378 0.0
C656 C 0.20983 0.74011 0.82323 0.0
C657 C 0.22703 0.72398 0.83103 0.0
C658 C 0.2467 0.72345 0.81746 0.0
H659 H 0.24017 0.67518 0.74411 0.0
H660 H 0.24502 0.67983 0.77934 0.0
H661 H 0.22632 0.70079 0.76301 0.0
H662 H 0.23497 0.76961 0.77337 0.0
H663 H 0.2003 0.77029 0.79714 0.0
H664 H 0.47948 0.08504 0.98323 0.0
H665 H 0.49158 0.05048 0.01115 0.0
H666 H 0.42386 0.02368 0.01814 0.0
H667 H 0.41159 0.05894 0.991 0.0
H668 H 0.47562 0.01438 0.05937 0.0
H669 H 0.45955 0.98071 0.95338 0.0
H670 H 0.46461 0.0153 0.96249 0.0
H671 H 0.43934 0.99932 0.97151 0.0
C672 C 0.46709 0.07311 0.99245 0.0
C673 C 0.44476 0.074 0.98457 0.0
C674 C 0.47399 0.05332 0.00837 0.0
C675 C 0.45857 0.03423 0.01589 0.0
C676 C 0.4359 0.03827 0.01234 0.0
H677 H 0.53708 0.89744 0.04708 0.0
H678 H 0.50058 0.91507 0.03816 0.0
C679 C 0.42894 0.05849 0.99687 0.0
C680 C 0.46648 0.00735 0.01826 0.0
H681 H 0.48454 0.9567 0.97775 0.0
C682 C 0.47683 0.00104 0.04194 0.0
C683 C 0.46805 0.99031 0.99519 0.0
C684 C 0.45732 0.99657 0.96913 0.0
C685 C 0.49041 0.97912 0.04259 0.0
C686 C 0.49365 0.96356 0.01889 0.0
C687 C 0.48171 0.96855 0.99584 0.0
C688 C 0.51322 0.94722 0.01631 0.0
C689 C 0.50299 0.97434 0.06791 0.0
C690 C 0.53191 0.9582 0.00486 0.0
C691 C 0.55271 0.94838 0.01006 0.0
C692 C 0.55491 0.92744 0.02668 0.0
C693 C 0.53582 0.91378 0.0344 0.0
C694 C 0.51497 0.92388 0.02949 0.0
H695 H 0.49873 0.98852 0.08446 0.0
H696 H 0.49921 0.95398 0.07371 0.0
H697 H 0.52107 0.97607 0.06485 0.0
H698 H 0.53074 0.97617 0.99441 0.0
H699 H 0.56718 0.95906 0.00368 0.0
H700 H 0.31836 0.26733 0.30356 0.0
H701 H 0.28448 0.2446 0.28627 0.0
H702 H 0.24565 0.29999 0.33173 0.0
H703 H 0.27936 0.32268 0.34886 0.0
H704 H 0.23163 0.23305 0.30171 0.0
H705 H 0.25803 0.32145 0.24858 0.0
H706 H 0.27821 0.30411 0.26712 0.0
H707 H 0.2576 0.32273 0.28417 0.0
C708 C 0.30265 0.27343 0.3113 0.0
C709 C 0.30127 0.29695 0.32712 0.0
C710 C 0.28331 0.26041 0.30153 0.0
C711 C 0.26279 0.27127 0.30734 0.0
C712 C 0.26144 0.29149 0.32718 0.0
H713 H 0.16996 0.21099 0.18551 0.0
H714 H 0.1802 0.24892 0.21579 0.0
C715 C 0.28079 0.30435 0.33713 0.0
C716 C 0.24543 0.26835 0.28666 0.0
H717 H 0.235 0.28962 0.22516 0.0
C718 C 0.23152 0.24591 0.28538 0.0
C719 C 0.24571 0.28536 0.2655 0.0
C720 C 0.26063 0.30983 0.26623 0.0
C721 C 0.2191 0.23869 0.26227 0.0
C722 C 0.22101 0.25437 0.24018 0.0
C723 C 0.23345 0.27803 0.24234 0.0
C724 C 0.21531 0.24266 0.2137 0.0
C725 C 0.20588 0.21289 0.26064 0.0
C726 C 0.23192 0.22877 0.20056 0.0
C727 C 0.22616 0.20686 0.18372 0.0
C728 C 0.20383 0.19925 0.1798 0.0
C729 C 0.18734 0.21647 0.18853 0.0
C730 C 0.19311 0.23815 0.20583 0.0
H731 H 0.20606 0.20326 0.27975 0.0
H732 H 0.18845 0.21643 0.25481 0.0
H733 H 0.21269 0.19901 0.24534 0.0
H734 H 0.24919 0.2323 0.20638 0.0
H735 H 0.23907 0.19396 0.1768 0.0
H736 H 0.48685 0.57484 0.03087 0.0
H737 H 0.50459 0.5324 0.02617 0.0
H738 H 0.45753 0.49906 0.07827 0.0
H739 H 0.43989 0.54201 0.08353 0.0
H740 H 0.51928 0.48653 0.05736 0.0
H741 H 0.43969 0.4722 0.99919 0.0
H742 H 0.44763 0.50503 0.01236 0.0
H743 H 0.44031 0.48 0.03441 0.0
C744 C 0.48084 0.55872 0.04207 0.0
C745 C 0.46169 0.56112 0.05674 0.0
C746 C 0.4911 0.53462 0.03971 0.0
C747 C 0.48197 0.51264 0.05151 0.0
C748 C 0.46462 0.51589 0.069 0.0
H749 H 0.53758 0.4016 0.93757 0.0
H750 H 0.50798 0.41121 0.96821 0.0
C751 C 0.45454 0.54028 0.07178 0.0
C752 C 0.48673 0.48664 0.03915 0.0
H753 H 0.472 0.45698 0.97884 0.0
C754 C 0.50861 0.47858 0.04104 0.0
C755 C 0.47265 0.47631 0.01795 0.0
C756 C 0.44869 0.48365 0.01573 0.0
C757 C 0.5178 0.4642 0.0199 0.0
C758 C 0.50464 0.45811 0.99672 0.0
C759 C 0.48194 0.46224 0.99663 0.0
C760 C 0.51531 0.45325 0.97146 0.0
C761 C 0.54222 0.45878 0.02109 0.0
C762 C 0.5275 0.47419 0.96153 0.0
C763 C 0.54464 0.46879 0.94454 0.0
C764 C 0.54919 0.44251 0.93712 0.0
C765 C 0.53432 0.42207 0.94318 0.0
C766 C 0.51749 0.42743 0.96077 0.0
H767 H 0.54839 0.45768 0.04183 0.0
H768 H 0.54579 0.44003 0.00971 0.0
H769 H 0.55149 0.47513 0.01232 0.0
H770 H 0.52564 0.49431 0.96952 0.0
H771 H 0.55589 0.48475 0.93988 0.0
H772 H 0.77467 0.28693 0.16059 0.0
H773 H 0.7638 0.25391 0.19065 0.0
H774 H 0.83204 0.23315 0.20145 0.0
H775 H 0.84311 0.2671 0.17181 0.0
H776 H 0.76744 0.20554 0.21096 0.0
H777 H 0.82234 0.28149 0.26687 0.0
H778 H 0.81581 0.28409 0.2323 0.0
H779 H 0.83438 0.25931 0.24268 0.0
C780 C 0.78722 0.27428 0.16816 0.0
C781 C 0.80972 0.28028 0.1651 0.0
C782 C 0.78102 0.25531 0.18536 0.0
C783 C 0.79733 0.24227 0.19939 0.0
C784 C 0.81936 0.24387 0.19151 0.0
H785 H 0.73807 0.20792 0.34875 0.0
H786 H 0.7703 0.21308 0.32138 0.0
C787 C 0.82563 0.2631 0.17435 0.0
C788 C 0.79185 0.23469 0.22612 0.0
H789 H 0.79353 0.26292 0.28925 0.0
C790 C 0.77377 0.21718 0.22836 0.0
C791 C 0.79995 0.25036 0.24879 0.0
C792 C 0.81913 0.26995 0.24772 0.0
C793 C 0.76216 0.21694 0.25182 0.0
C794 C 0.76908 0.2344 0.27349 0.0
C795 C 0.78844 0.24978 0.27233 0.0
C796 C 0.75434 0.23956 0.29554 0.0
C797 C 0.74133 0.1999 0.25248 0.0
C798 C 0.73579 0.25491 0.29137 0.0
C799 C 0.71734 0.25192 0.30681 0.0
C800 C 0.71752 0.23359 0.32641 0.0
C801 C 0.73757 0.22219 0.33368 0.0
C802 C 0.75594 0.22486 0.31793 0.0
H803 H 0.74055 0.18408 0.23628 0.0
H804 H 0.74018 0.19069 0.27172 0.0
H805 H 0.72672 0.21244 0.25017 0.0
H806 H 0.73454 0.26658 0.27421 0.0
H807 H 0.70206 0.26094 0.30099 0.0
H808 H 0.03687 0.39586 0.5411 0.0
H809 H 1.00186 0.41341 0.52646 0.0
H810 H 0.03707 0.47856 0.49401 0.0
H811 H 0.07193 0.46097 0.50811 0.0
H812 H 0.99756 0.45867 0.55552 0.0
H813 H 0.98079 0.47865 0.45156 0.0
H814 H 0.99911 0.4529 0.46069 0.0
H815 H 0.00928 0.48662 0.45964 0.0
C816 C 0.03724 0.41298 0.52931 0.0
C817 C 0.05697 0.42781 0.5267 0.0
C818 C 0.01714 0.42299 0.52098 0.0
C819 C 0.01683 0.4476 0.50978 0.0
C820 C 0.03682 0.45951 0.50256 0.0
H821 H 0.97781 0.59483 0.51149 0.0
H822 H 0.99447 0.55637 0.52931 0.0
C823 C 0.05686 0.44954 0.51087 0.0
C824 C 0.99769 0.46465 0.51363 0.0
H825 H 0.97208 0.5148 0.48478 0.0
C826 C 0.99126 0.4703 0.53986 0.0
C827 C 0.98961 0.47989 0.49332 0.0
C828 C 0.99495 0.47395 0.46472 0.0
C829 C 0.97882 0.49249 0.54659 0.0
C830 C 0.97278 0.50912 0.52665 0.0
C831 C 0.97729 0.5021 0.50013 0.0
C832 C 0.96326 0.53507 0.53247 0.0
C833 C 0.97355 0.49924 0.57503 0.0
C834 C 0.94022 0.53703 0.53214 0.0
C835 C 0.93071 0.55955 0.52277 0.0
C836 C 0.9444 0.57881 0.51219 0.0
C837 C 0.96704 0.57978 0.51902 0.0
C838 C 0.97659 0.55756 0.52884 0.0
H839 H 0.97846 0.48349 0.58813 0.0
H840 H 0.98233 0.51803 0.58196 0.0
H841 H 0.95553 0.50237 0.5767 0.0
H842 H 0.92973 0.51987 0.53514 0.0
H843 H 0.91306 0.55882 0.51823 0.0
H844 H 0.84929 0.71568 0.31842 0.0
H845 H 0.83729 0.74563 0.28504 0.0
H846 H 0.76926 0.73028 0.30395 0.0
H847 H 0.78112 0.6999 0.33674 0.0
H848 H 0.78982 0.70806 0.25087 0.0
H849 H 0.79836 0.81687 0.27435 0.0
H850 H 0.81842 0.79443 0.28655 0.0
H851 H 0.79136 0.79509 0.29997 0.0
C852 C 0.83189 0.72006 0.31661 0.0
C853 C 0.81603 0.70552 0.32985 0.0
C854 C 0.82508 0.73701 0.29745 0.0
C855 C 0.80245 0.73981 0.29203 0.0
C856 C 0.78681 0.72831 0.30803 0.0
H857 H 0.70072 0.767 0.19252 0.0
H858 H 0.73039 0.74619 0.21616 0.0
C859 C 0.79357 0.71112 0.32683 0.0
C860 C 0.7949 0.74845 0.26626 0.0
H861 H 0.77884 0.80234 0.2348 0.0
C862 C 0.78782 0.7287 0.24702 0.0
C863 C 0.79279 0.77528 0.26135 0.0
C864 C 0.80063 0.79682 0.28152 0.0
C865 C 0.77713 0.73511 0.22359 0.0
C866 C 0.77325 0.76191 0.21958 0.0
C867 C 0.78194 0.78177 0.23791 0.0
C868 C 0.75668 0.76944 0.19978 0.0
C869 C 0.76904 0.71306 0.20404 0.0
C870 C 0.76169 0.78874 0.18199 0.0
C871 C 0.74462 0.80056 0.16825 0.0
C872 C 0.72251 0.79343 0.1727 0.0
C873 C 0.71772 0.77251 0.18863 0.0
C874 C 0.73468 0.76061 0.2021 0.0
H875 H 0.78012 0.69596 0.20441 0.0
H876 H 0.75235 0.70607 0.20957 0.0
H877 H 0.76795 0.71973 0.1836 0.0
H878 H 0.77859 0.79592 0.1802 0.0
H879 H 0.74858 0.81701 0.15638 0.0
H880 H 0.80843 0.16306 0.69879 0.0
H881 H 0.79147 0.16693 0.74209 0.0
H882 H 0.7547 0.23344 0.71773 0.0
H883 H 0.77176 0.23009 0.67462 0.0
H884 H 0.7973 0.22167 0.77248 0.0
H885 H 0.71082 0.18289 0.75797 0.0
H886 H 0.73317 0.17115 0.73772 0.0
H887 H 0.72057 0.20202 0.73173 0.0
C888 C 0.7963 0.17809 0.70245 0.0
C889 C 0.79152 0.19653 0.68358 0.0
C890 C 0.78672 0.18021 0.72712 0.0
C891 C 0.77195 0.20036 0.73277 0.0
C892 C 0.76601 0.21763 0.71339 0.0
H893 H 0.72099 0.31614 0.80646 0.0
H894 H 0.75102 0.28635 0.79544 0.0
C895 C 0.77581 0.21581 0.68892 0.0
C896 C 0.76489 0.20622 0.75975 0.0
H897 H 0.71745 0.21801 0.79181 0.0
C898 C 0.78 0.22003 0.77744 0.0
C899 C 0.74242 0.20382 0.76589 0.0
C900 C 0.7258 0.18896 0.74741 0.0
C901 C 0.77256 0.2344 0.79975 0.0
C902 C 0.7497 0.23443 0.80422 0.0
C903 C 0.73507 0.21783 0.78833 0.0
C904 C 0.73964 0.25567 0.82026 0.0
C905 C 0.78878 0.25121 0.81701 0.0
C906 C 0.72433 0.24887 0.83906 0.0
C907 C 0.70704 0.26556 0.84478 0.0
C908 C 0.70523 0.28918 0.83201 0.0
C909 C 0.72223 0.2978 0.81625 0.0
C910 C 0.73949 0.28097 0.81032 0.0
H911 H 0.80564 0.24309 0.81627 0.0
H912 H 0.78961 0.27145 0.80983 0.0
H913 H 0.78347 0.25268 0.83784 0.0
H914 H 0.72419 0.22938 0.84673 0.0
H915 H 0.69407 0.25901 0.85741 0.0
H916 H 0.79613 0.78691 0.85258 0.0
H917 H 0.75718 0.77094 0.84939 0.0
H918 H 0.74666 0.81663 0.7812 0.0
H919 H 0.78476 0.83225 0.78423 0.0
H920 H 0.70928 0.81412 0.81422 0.0
H921 H 0.74526 0.71616 0.78658 0.0
H922 H 0.75073 0.73199 0.81898 0.0
H923 H 0.76314 0.74516 0.79062 0.0
C924 C 0.78527 0.79357 0.83715 0.0
C925 C 0.79347 0.80983 0.81797 0.0
C926 C 0.76311 0.78477 0.83557 0.0
C927 C 0.74917 0.79262 0.81506 0.0
C928 C 0.75711 0.81047 0.79729 0.0
H929 H 0.70709 0.73707 0.68437 0.0
H930 H 0.71495 0.76929 0.72133 0.0
C931 C 0.77904 0.81888 0.79865 0.0
C932 C 0.72804 0.77888 0.80769 0.0
H933 H 0.71366 0.7279 0.76338 0.0
C934 C 0.70958 0.7947 0.80399 0.0
C935 C 0.72853 0.75345 0.79465 0.0
C936 C 0.7479 0.73557 0.79781 0.0
C937 C 0.69369 0.78777 0.78391 0.0
C938 C 0.69628 0.76431 0.76822 0.0
C939 C 0.71234 0.74636 0.77522 0.0
C940 C 0.68538 0.75926 0.74214 0.0
C941 C 0.67572 0.80657 0.77769 0.0
C942 C 0.66485 0.74584 0.74028 0.0
C943 C 0.65993 0.72831 0.71851 0.0
C944 C 0.676 0.72358 0.69945 0.0
C945 C 0.69453 0.7406 0.69891 0.0
C946 C 0.69901 0.75889 0.72011 0.0
H947 H 0.67504 0.82322 0.79293 0.0
H948 H 0.67865 0.81468 0.7582 0.0
H949 H 0.65945 0.79579 0.77627 0.0
H950 H 0.65424 0.74586 0.75715 0.0
H951 H 0.64553 0.71516 0.71914 0.0
H952 H 0.44268 0.45918 0.48461 0.0
H953 H 0.47744 0.47399 0.50644 0.0
H954 H 0.51102 0.41073 0.46491 0.0
H955 H 0.47625 0.39573 0.44284 0.0
H956 H 0.51985 0.46129 0.5292 0.0
H957 H 0.51951 0.47796 0.42122 0.0
H958 H 0.49534 0.46528 0.43672 0.0
H959 H 0.51858 0.44452 0.43117 0.0
C960 C 0.4572 0.44751 0.48125 0.0
C961 C 0.45721 0.42743 0.46096 0.0
C962 C 0.47707 0.45588 0.49386 0.0
C963 C 0.49676 0.44413 0.48607 0.0
C964 C 0.49591 0.42033 0.4705 0.0
H965 H 0.60565 0.55209 0.52091 0.0
H966 H 0.58893 0.51759 0.49059 0.0
C967 C 0.47598 0.41185 0.4579 0.0
C968 C 0.51671 0.46128 0.4869 0.0
H969 H 0.54178 0.50635 0.44916 0.0
C970 C 0.52543 0.47044 0.51166 0.0
C971 C 0.52327 0.47359 0.46382 0.0
C972 C 0.5137 0.46502 0.43668 0.0
C973 C 0.5395 0.49279 0.51425 0.0
C974 C 0.54491 0.50606 0.49137 0.0
C975 C 0.53752 0.49587 0.46642 0.0
C976 C 0.55587 0.53222 0.49408 0.0
C977 C 0.54689 0.50338 0.54168 0.0
C978 C 0.54311 0.55357 0.50274 0.0
C979 C 0.55259 0.57311 0.52031 0.0
C980 C 0.57465 0.57091 0.52893 0.0
C981 C 0.58846 0.55374 0.51474 0.0
C982 C 0.57891 0.53387 0.4975 0.0
H983 H 0.54379 0.48883 0.55677 0.0
H984 H 0.5648 0.50881 0.54234 0.0
H985 H 0.53764 0.52142 0.54715 0.0
H986 H 0.52526 0.55263 0.49988 0.0
H987 H 0.54181 0.58659 0.53082 0.0
H988 H 0.06641 0.5545 0.97881 0.0
H989 H 0.03486 0.53083 0.99619 0.0
H990 H 0.99107 0.56684 0.94119 0.0
H991 H 0.02272 0.59105 0.92402 0.0
H992 H 0.98796 0.54121 0.01311 0.0
H993 H 0.99801 0.48516 0.91611 0.0
H994 H 0.01912 0.50819 0.93 0.0
H995 H 0.99384 0.52024 0.91661 0.0
C996 C 0.0499 0.55851 0.97151 0.0
C997 C 0.04688 0.57439 0.9501 0.0
C998 C 0.03191 0.54491 0.98133 0.0
C999 C 0.01081 0.5468 0.96954 0.0
C1000 C 0.00732 0.56516 0.95038 0.0
H1001 H 0.91972 0.42662 0.02494 0.0
H1002 H 0.92902 0.46237 0.99635 0.0
C1003 C 0.02534 0.57913 0.94079 0.0
C1004 C 0.99418 0.5258 0.97367 0.0
H1005 H 0.97764 0.46433 0.94787 0.0
C1006 C 0.98496 0.52477 0.9986 0.0
C1007 C 0.99084 0.50423 0.95472 0.0
C1008 C 1.00098 0.50424 0.92784 0.0
C1009 C 0.9734 0.50203 0.00562 0.0
C1010 C 0.97105 0.47995 0.98713 0.0
C1011 C 0.97924 0.48151 0.96173 0.0
C1012 C 0.96385 0.45394 0.99572 0.0
C1013 C 0.96529 0.50094 0.03343 0.0
C1014 C 0.98011 0.43633 0.00289 0.0
C1015 C 0.97485 0.41602 0.01913 0.0
C1016 C 0.95325 0.41303 0.02807 0.0
C1017 C 0.93639 0.42828 0.0178 0.0
C1018 C 0.94172 0.44888 0.00178 0.0
H1019 H 0.96926 0.51949 0.04568 0.0
H1020 H 0.94708 0.49746 0.03284 0.0
H1021 H 0.97287 0.48421 0.04318 0.0
H1022 H 0.99729 0.44004 0.99839 0.0
H1023 H 0.98813 0.40476 0.02724 0.0
H1024 H 0.0861 0.02515 0.13125 0.0
H1025 H 0.09 0.99308 0.1649 0.0
H1026 H 0.10894 0.0561 0.22271 0.0
H1027 H 0.1053 0.08845 0.18899 0.0
H1028 H 0.13504 0.9922 0.20055 0.0
H1029 H 0.05467 0.00213 0.25064 0.0
H1030 H 0.05698 0.00741 0.21587 0.0
H1031 H 0.06922 0.03106 0.24005 0.0
C1032 C 0.09091 0.03232 0.15122 0.0
C1033 C 0.09553 0.05943 0.15741 0.0
C1034 C 0.09315 0.01387 0.17042 0.0
C1035 C 0.09973 0.02206 0.1964 0.0
C1036 C 0.10381 0.04918 0.20289 0.0
H1037 H 0.11207 0.91498 0.32789 0.0
H1038 H 0.10633 0.95497 0.30344 0.0
C1039 C 0.10182 0.06773 0.18354 0.0
C1040 C 0.10336 0.00181 0.216 0.0
H1041 H 0.07806 0.96871 0.2642 0.0
C1042 C 0.12292 0.98764 0.21506 0.0
C1043 C 0.08717 0.99525 0.23426 0.0
C1044 C 0.06573 0.00963 0.23547 0.0
C1045 C 0.127 0.96755 0.2323 0.0
C1046 C 0.11037 0.96001 0.24975 0.0
C1047 C 0.09082 0.97438 0.25088 0.0
C1048 C 0.1124 0.93587 0.26502 0.0
C1049 C 0.1492 0.9546 0.2317 0.0
C1050 C 0.1166 0.91157 0.2516 0.0
C1051 C 0.12016 0.88908 0.26547 0.0
C1052 C 0.11929 0.89008 0.2932 0.0
C1053 C 0.11368 0.91392 0.30665 0.0
C1054 C 0.11023 0.93668 0.29265 0.0
H1055 H 0.16225 0.96793 0.22451 0.0
H1056 H 0.15441 0.94866 0.25161 0.0
H1057 H 0.14812 0.93673 0.2179 0.0
H1058 H 0.11742 0.91 0.23025 0.0
H1059 H 0.12414 0.87094 0.25441 0.0
H1060 H 0.35955 0.92362 0.55053 0.0
H1061 H 0.32734 0.91804 0.52183 0.0
H1062 H 0.33001 0.83342 0.52606 0.0
H1063 H 0.36308 0.83913 0.55351 0.0
H1064 H 0.30549 0.82219 0.49572 0.0
H1065 H 0.27044 0.93473 0.51273 0.0
H1066 H 0.2986 0.93846 0.50351 0.0
H1067 H 0.29207 0.92374 0.53437 0.0
C1068 C 0.35287 0.9038 0.54579 0.0
C1069 C 0.36361 0.88187 0.55513 0.0
C1070 C 0.33359 0.90054 0.52975 0.0
C1071 C 0.32366 0.87536 0.52345 0.0
C1072 C 0.3356 0.85342 0.53137 0.0
H1073 H 0.19883 0.81275 0.41549 0.0
H1074 H 0.22987 0.81787 0.44639 0.0
C1075 C 0.355 0.85659 0.54721 0.0
C1076 C 0.30195 0.87148 0.5076 0.0
H1077 H 0.25438 0.91103 0.46875 0.0
C1078 C 0.29551 0.83894 0.49195 0.0
C1079 C 0.28536 0.89888 0.49886 0.0
C1080 C 0.28683 0.92543 0.51343 0.0
C1081 C 0.27347 0.8342 0.4679 0.0
C1082 C 0.25757 0.86187 0.4583 0.0
C1083 C 0.26406 0.89429 0.47367 0.0
C1084 C 0.23818 0.85859 0.43894 0.0
C1085 C 0.27081 0.8073 0.45422 0.0
C1086 C 0.23058 0.88017 0.4253 0.0
C1087 C 0.21154 0.87768 0.40859 0.0
C1088 C 0.19974 0.85338 0.40464 0.0
C1089 C 0.20753 0.83176 0.4178 0.0
C1090 C 0.22606 0.8345 0.43509 0.0
H1091 H 0.28658 0.79672 0.45557 0.0
H1092 H 0.25813 0.79569 0.46431 0.0
H1093 H 0.26589 0.80868 0.43314 0.0
H1094 H 0.23933 0.8991 0.42733 0.0
H1095 H 0.20623 0.89475 0.39851 0.0
H1096 H 0.38775 0.11424 0.82717 0.0
H1097 H 0.39634 0.08073 0.79303 0.0
H1098 H 0.33205 0.04324 0.80178 0.0
H1099 H 0.32269 0.07896 0.83333 0.0
H1100 H 0.41311 0.04324 0.78189 0.0
H1101 H 0.31881 0.01769 0.73382 0.0
H1102 H 0.32409 0.0463 0.75643 0.0
H1103 H 0.32061 0.01365 0.76875 0.0
C1104 C 0.37552 0.0987 0.82163 0.0
C1105 C 0.3548 0.09867 0.83325 0.0
C1106 C 0.38038 0.07933 0.80195 0.0
C1107 C 0.36489 0.0589 0.79394 0.0
C1108 C 0.34405 0.05915 0.80576 0.0
H1109 H 0.43297 0.92805 0.68524 0.0
H1110 H 0.42482 0.96289 0.71842 0.0
C1111 C 0.33892 0.07911 0.8248 0.0
C1112 C 0.37141 0.03701 0.77463 0.0
H1113 H 0.34852 0.9924 0.70953 0.0
C1114 C 0.40066 0.03202 0.76995 0.0
C1115 C 0.35164 0.02093 0.7512 0.0
C1116 C 0.32735 0.02501 0.75262 0.0
C1117 C 0.40961 0.01193 0.74232 0.0
C1118 C 0.38993 0.99729 0.71832 0.0
C1119 C 0.36074 0.00199 0.72315 0.0
C1120 C 0.39611 0.97701 0.69734 0.0
C1121 C 0.43394 0.01102 0.73823 0.0
C1122 C 0.38183 0.97121 0.67522 0.0
C1123 C 0.38555 0.94972 0.65734 0.0
C1124 C 0.40391 0.93389 0.66084 0.0
C1125 C 0.41852 0.93985 0.6824 0.0
C1126 C 0.41429 0.96066 0.70089 0.0
H1127 H 0.44215 0.02961 0.74669 0.0
H1128 H 0.44082 0.9945 0.7489 0.0
H1129 H 0.4374 0.00831 0.71688 0.0
H1130 H 0.3677 0.98324 0.67158 0.0
H1131 H 0.37446 0.94599 0.64027 0.0
H1132 H 0.29074 0.17567 0.92875 0.0
H1133 H 0.26166 0.17476 0.96099 0.0
H1134 H 0.26137 0.08949 0.95542 0.0
H1135 H 0.28933 0.09053 0.92178 0.0
H1136 H 0.22387 0.09923 0.95631 0.0
H1137 H 0.25673 0.17115 0.03503 0.0
H1138 H 0.25454 0.18646 0.00439 0.0
H1139 H 0.2736 0.15994 0.00811 0.0
C1140 C 0.28508 0.15676 0.93528 0.0
C1141 C 0.29271 0.13316 0.92323 0.0
C1142 C 0.26842 0.15619 0.95399 0.0
C1143 C 0.25965 0.132 0.96201 0.0
C1144 C 0.26801 0.10847 0.95043 0.0
H1145 H 0.16147 0.07654 0.0692 0.0
H1146 H 0.19277 0.08298 0.04058 0.0
C1147 C 0.28414 0.10902 0.93119 0.0
C1148 C 0.24051 0.13084 0.98038 0.0
H1149 H 0.21818 0.15988 0.03598 0.0
C1150 C 0.22325 0.112 0.9742 0.0
C1151 C 0.23877 0.14792 0.00351 0.0
C1152 C 0.25704 0.16726 0.01325 0.0
C1153 C 0.20497 0.10933 0.99048 0.0
C1154 C 0.20337 0.12634 0.01349 0.0
C1155 C 0.21977 0.14621 0.01888 0.0
C1156 C 0.18515 0.12323 0.03251 0.0
C1157 C 0.18719 0.08871 0.98237 0.0
C1158 C 0.17109 0.14417 0.03888 0.0
C1159 C 0.15324 0.14063 0.05559 0.0
C1160 C 0.14916 0.11609 0.06639 0.0
C1161 C 0.16391 0.09559 0.06098 0.0
C1162 C 0.18172 0.09916 0.04435 0.0
H1163 H 0.18731 0.08313 0.96083 0.0
H1164 H 0.19022 0.07061 0.99303 0.0
H1165 H 0.17051 0.09579 0.98734 0.0
H1166 H 0.17352 0.16305 0.03031 0.0
H1167 H 0.14227 0.15686 0.0594 0.0
H1168 H 0.16757 0.04398 0.18547 0.0
H1169 H 0.16685 0.01349 0.22126 0.0
H1170 H 0.14653 0.07651 0.27542 0.0
H1171 H 0.14829 0.10715 0.24002 0.0
H1172 H 0.18677 0.00928 0.26631 0.0
H1173 H 0.11167 0.03944 0.2621 0.0
H1174 H 0.09916 0.02509 0.28973 0.0
H1175 H 0.11544 0.05515 0.29473 0.0
C1176 C 0.16255 0.05108 0.20492 0.0
C1177 C 0.15737 0.07767 0.20987 0.0
C1178 C 0.16205 0.03365 0.22541 0.0
C1179 C 0.15535 0.04209 0.25089 0.0
C1180 C 0.15072 0.06896 0.25581 0.0
H1181 H 0.1372 0.97636 0.40196 0.0
H1182 H 0.14277 0.00357 0.36466 0.0
C1183 C 0.15182 0.08653 0.23558 0.0
C1184 C 0.15384 0.02314 0.27244 0.0
H1185 H 0.12013 0.00177 0.32033 0.0
C1186 C 0.1721 0.0075 0.27795 0.0
C1187 C 0.13478 0.02065 0.28794 0.0
C1188 C 0.11411 0.03582 0.28318 0.0
C1189 C 0.1721 0.99034 0.29885 0.0
C1190 C 0.15311 0.98816 0.3144 0.0
C1191 C 0.13476 0.00339 0.30857 0.0
C1192 C 0.15192 0.97128 0.33758 0.0
C1193 C 0.19278 0.97556 0.3047 0.0
C1194 C 0.15544 0.9439 0.33521 0.0
C1195 C 0.15192 0.9281 0.35668 0.0
C1196 C 0.14523 0.93941 0.38104 0.0
C1197 C 0.14245 0.96692 0.38351 0.0
C1198 C 0.14559 0.98256 0.36211 0.0
H1199 H 0.2076 0.985 0.29634 0.0
H1200 H 0.1957 0.97447 0.32633 0.0
H1201 H 0.19091 0.95511 0.29562 0.0
H1202 H 0.15999 0.9345 0.31646 0.0
H1203 H 0.15426 0.90717 0.35415 0.0
H1204 H 0.31839 0.81106 0.58451 0.0
H1205 H 0.29363 0.80762 0.54547 0.0
H1206 H 0.27532 0.88857 0.56092 0.0
H1207 H 0.29999 0.89197 0.60052 0.0
H1208 H 0.25215 0.81162 0.5475 0.0
H1209 H 0.29255 0.86346 0.44163 0.0
H1210 H 0.29915 0.89246 0.45656 0.0
H1211 H 0.31316 0.86614 0.46385 0.0
C1212 C 0.30969 0.82844 0.57914 0.0
C1213 C 0.31172 0.85207 0.59517 0.0
C1214 C 0.29531 0.82636 0.55693 0.0
C1215 C 0.28311 0.84812 0.54954 0.0
C1216 C 0.28519 0.87186 0.56547 0.0
H1217 H 0.16395 0.90094 0.48406 0.0
H1218 H 0.19734 0.89304 0.51005 0.0
C1219 C 0.29931 0.87379 0.58808 0.0
C1220 C 0.26589 0.84474 0.52752 0.0
H1221 H 0.23352 0.88604 0.498 0.0
C1222 C 0.24921 0.82578 0.53268 0.0
C1223 C 0.26386 0.8613 0.50396 0.0
C1224 C 0.29519 0.87181 0.46274 0.0
C1225 C 0.22803 0.82656 0.52135 0.0
C1226 C 0.22285 0.84879 0.50761 0.0
C1227 C 0.23989 0.86788 0.50471 0.0
C1228 C 0.20043 0.85241 0.4949 0.0
C1229 C 0.21077 0.8062 0.52816 0.0
C1230 C 0.19021 0.83213 0.47814 0.0
C1231 C 0.17108 0.83674 0.46301 0.0
C1232 C 0.16156 0.86167 0.46445 0.0
C1233 C 0.17109 0.88159 0.4821 0.0
C1234 C 0.19027 0.87705 0.49706 0.0
H1235 H 0.21515 0.79712 0.54694 0.0
H1236 H 0.1942 0.8149 0.53011 0.0
H1237 H 0.20975 0.79009 0.5123 0.0
H1238 H 0.19762 0.813 0.47557 0.0
H1239 H 0.16392 0.82087 0.44992 0.0
H1240 H 0.36195 0.0467 0.86707 0.0
H1241 H 0.35428 0.01208 0.83166 0.0
H1242 H 0.42341 0.01118 0.81421 0.0
H1243 H 0.43126 0.04575 0.84986 0.0
H1244 H 0.38041 0.96453 0.82744 0.0
H1245 H 0.37914 0.03935 0.70942 0.0
H1246 H 0.39706 0.05355 0.73151 0.0
H1247 H 0.3704 0.0574 0.73515 0.0
C1248 C 0.37542 0.0397 0.85511 0.0
C1249 C 0.39695 0.05027 0.85984 0.0
C1250 C 0.37105 0.01994 0.8349 0.0
C1251 C 0.38782 0.01159 0.81788 0.0
C1252 C 0.40981 0.0195 0.82507 0.0
H1253 H 0.33238 0.87728 0.7141 0.0
H1254 H 0.33716 0.91142 0.7505 0.0
C1255 C 0.4143 0.03911 0.84549 0.0
C1256 C 0.3825 0.99093 0.79563 0.0
H1257 H 0.37807 0.98283 0.75581 0.0
C1258 C 0.37936 0.96582 0.80612 0.0
C1259 C 0.37971 0.9932 0.76308 0.0
C1260 C 0.38175 0.04019 0.73168 0.0
C1261 C 0.37529 0.94203 0.79096 0.0
C1262 C 0.37447 0.94171 0.76347 0.0
C1263 C 0.37591 0.96461 0.75047 0.0
C1264 C 0.37228 0.91734 0.74556 0.0
C1265 C 0.37199 0.91665 0.80458 0.0
C1266 C 0.39034 0.9095 0.73033 0.0
C1267 C 0.38751 0.89077 0.70884 0.0
C1268 C 0.36657 0.87915 0.70237 0.0
C1269 C 0.34868 0.88618 0.71833 0.0
C1270 C 0.35144 0.90533 0.73948 0.0
H1271 H 0.37443 0.91945 0.82639 0.0
H1272 H 0.35492 0.90866 0.80013 0.0
H1273 H 0.38361 0.90165 0.79687 0.0
H1274 H 0.40658 0.91853 0.73463 0.0
H1275 H 0.40173 0.88525 0.69743 0.0
H1276 H 0.35611 0.05704 0.97247 0.0
H1277 H 0.32534 0.05726 0.00254 0.0
H1278 H 0.31293 0.13822 0.98659 0.0
H1279 H 0.34455 0.13842 0.95718 0.0
H1280 H 0.31058 0.13183 0.03771 0.0
H1281 H 0.26152 0.04983 0.98598 0.0
H1282 H 0.28701 0.03831 0.99918 0.0
H1283 H 0.28746 0.06111 0.97339 0.0
C1284 C 0.34674 0.07486 0.97516 0.0
C1285 C 0.3527 0.09765 0.96223 0.0
C1286 C 0.32899 0.07491 0.9923 0.0
C1287 C 0.31625 0.09749 0.9964 0.0
C1288 C 0.3223 0.12041 0.98364 0.0
H1289 H 0.20747 0.13838 0.10118 0.0
H1290 H 0.23598 0.13844 0.06817 0.0
C1291 C 0.34037 0.12053 0.96679 0.0
C1292 C 0.29732 0.09751 0.01486 0.0
H1293 H 0.24969 0.06404 0.02947 0.0
C1294 C 0.29718 0.11712 0.03571 0.0
C1295 C 0.27996 0.07798 0.01281 0.0
C1296 C 0.27894 0.05579 0.99148 0.0
C1297 C 0.28066 0.11741 0.05477 0.0
C1298 C 0.263 0.09832 0.0523 0.0
C1299 C 0.26303 0.07884 0.03134 0.0
C1300 C 0.24471 0.09776 0.07159 0.0
C1301 C 0.28306 0.13735 0.07815 0.0
C1302 C 0.23982 0.07474 0.08473 0.0
C1303 C 0.2239 0.07488 0.10438 0.0
C1304 C 0.21192 0.09772 0.11056 0.0
C1305 C 0.21591 0.12021 0.09634 0.0
C1306 C 0.23236 0.12033 0.07746 0.0
H1307 H 0.30049 0.14456 0.08145 0.0
H1308 H 0.27295 0.15472 0.07444 0.0
H1309 H 0.27739 0.1288 0.09652 0.0
H1310 H 0.24912 0.05704 0.08076 0.0
H1311 H 0.22157 0.05749 0.11549 0.0
H1312 H 0.90636 0.30813 0.10024 0.0
H1313 H 0.93553 0.27609 0.09567 0.0
H1314 H 0.92881 0.25872 0.17744 0.0
H1315 H 0.90104 0.29241 0.18244 0.0
H1316 H 0.96746 0.25635 0.17101 0.0
H1317 H 0.93315 0.20105 0.08158 0.0
H1318 H 0.93879 0.23449 0.07393 0.0
H1319 H 0.9183 0.22723 0.09798 0.0
C1320 C 0.91138 0.2978 0.11731 0.0
C1321 C 0.9015 0.30315 0.14174 0.0
C1322 C 0.92789 0.27897 0.1146 0.0
C1323 C 0.9344 0.26417 0.13599 0.0
C1324 C 0.92445 0.26967 0.16046 0.0
H1325 H 0.01829 0.12898 0.1575 0.0
H1326 H 0.9909 0.16352 0.16129 0.0
C1327 C 0.90843 0.28903 0.16335 0.0
C1328 C 0.95188 0.24362 0.13336 0.0
H1329 H 0.97091 0.19283 0.09301 0.0
C1330 C 0.96785 0.24236 0.15398 0.0
C1331 C 0.95267 0.22473 0.11145 0.0
C1332 C 0.93463 0.22174 0.09021 0.0
C1333 C 0.98417 0.2231 0.1534 0.0
C1334 C 0.98584 0.20561 0.13077 0.0
C1335 C 0.97014 0.20686 0.11 0.0
C1336 C 1.00305 0.18503 0.12885 0.0
C1337 C 0.99895 0.22105 0.17755 0.0
C1338 C 0.01896 0.18532 0.10914 0.0
C1339 C 0.0346 0.16536 0.10681 0.0
C1340 C 0.03482 0.14487 0.1243 0.0
C1341 C 0.01892 0.14477 0.14405 0.0
C1342 C 1.00322 0.16454 0.14626 0.0
H1343 H 0.01573 0.21487 0.17212 0.0
H1344 H 1.00012 0.23997 0.18984 0.0
H1345 H 0.9918 0.20581 0.18988 0.0
H1346 H 0.01908 0.20081 0.09534 0.0
H1347 H 0.04604 0.16545 0.09075 0.0
H1348 H 0.54775 0.33211 0.94368 0.0
H1349 H 0.5139 0.30574 0.93467 0.0
H1350 H 0.51964 0.31552 0.85113 0.0
H1351 H 0.55403 0.34126 0.86012 0.0
H1352 H 0.47641 0.31339 0.91746 0.0
H1353 H 0.50836 0.24055 0.8429 0.0
H1354 H 0.52589 0.26693 0.85766 0.0
H1355 H 0.50705 0.27295 0.83087 0.0
C1356 C 0.54207 0.3282 0.92332 0.0
C1357 C 0.55388 0.33843 0.90262 0.0
C1358 C 0.5225 0.31318 0.91811 0.0
C1359 C 0.5143 0.30749 0.89201 0.0
C1360 C 0.52591 0.31828 0.87134 0.0
H1361 H 0.39649 0.21308 0.83498 0.0
H1362 H 0.42926 0.24261 0.83865 0.0
C1363 C 0.5456 0.33323 0.87653 0.0
C1364 C 0.49336 0.29103 0.88705 0.0
H1365 H 0.47025 0.23681 0.8518 0.0
C1366 C 0.47525 0.29657 0.90315 0.0
C1367 C 0.49119 0.26939 0.8678 0.0
C1368 C 0.50923 0.26199 0.84901 0.0
C1369 C 0.45561 0.28095 0.90121 0.0
C1370 C 0.45396 0.25861 0.88299 0.0
C1371 C 0.4716 0.25361 0.86613 0.0
C1372 C 0.43409 0.24028 0.88092 0.0
C1373 C 0.43671 0.28899 0.91849 0.0
C1374 C 0.426 0.22851 0.9033 0.0
C1375 C 0.40694 0.21204 0.90132 0.0
C1376 C 0.39592 0.20632 0.87676 0.0
C1377 C 0.40452 0.21722 0.85422 0.0
C1378 C 0.4233 0.2341 0.8563 0.0
H1379 H 0.43775 0.31045 0.92448 0.0
H1380 H 0.42046 0.28445 0.90826 0.0
H1381 H 0.43751 0.27807 0.93678 0.0
H1382 H 0.43445 0.23201 0.92236 0.0
H1383 H 0.40098 0.20351 0.91896 0.0
H1384 H 0.97014 0.61982 0.36967 0.0
H1385 H 0.99694 0.65471 0.36024 0.0
H1386 H 0.97556 0.70196 0.42795 0.0
H1387 H 0.94931 0.66704 0.43794 0.0
H1388 H 1.00249 0.6973 0.33926 0.0
H1389 H 0.03386 0.71701 0.45512 0.0
H1390 H 0.01447 0.69026 0.44447 0.0
H1391 H 1.00483 0.72313 0.45297 0.0
C1392 C 0.97111 0.63777 0.38246 0.0
C1393 C 0.95776 0.64062 0.40469 0.0
C1394 C 0.98646 0.65769 0.37707 0.0
C1395 C 0.98889 0.68057 0.39399 0.0
C1396 C 0.97485 0.68392 0.4154 0.0
H1397 H 0.11376 0.79104 0.40158 0.0
H1398 H 0.0828 0.76047 0.40687 0.0
C1399 C 0.95941 0.66418 0.42073 0.0
C1400 C 1.00572 0.70107 0.38905 0.0
H1401 H 0.05054 0.75251 0.42567 0.0
C1402 C 0.01099 0.70854 0.35555 0.0
C1403 C 0.02038 0.719 0.41579 0.0
C1404 C 0.01828 0.71172 0.44372 0.0
C1405 C 0.02978 0.73473 0.34905 0.0
C1406 C 0.04502 0.7525 0.37589 0.0
C1407 C 0.04027 0.7441 0.40934 0.0
C1408 C 0.06472 0.76996 0.37113 0.0
C1409 C 0.03423 0.73876 0.32075 0.0
C1410 C 0.06587 0.78526 0.34889 0.0
C1411 C 0.08418 0.80212 0.34547 0.0
C1412 C 0.10132 0.80479 0.36467 0.0
C1413 C 0.10036 0.78976 0.38686 0.0
C1414 C 0.08245 0.77227 0.38986 0.0
H1415 H 0.02711 0.72197 0.30788 0.0
H1416 H 0.02625 0.75707 0.31497 0.0
H1417 H 0.0523 0.74049 0.3178 0.0
H1418 H 0.05224 0.78554 0.33478 0.0
H1419 H 0.08471 0.81353 0.32811 0.0
H1420 H 0.99851 0.35533 0.1555 0.0
H1421 H 0.02595 0.32233 0.16259 0.0
H1422 H 0.99442 0.27064 0.10109 0.0
H1423 H 0.96752 0.30486 0.09248 0.0
H1424 H 0.02598 0.2754 0.17795 0.0
H1425 H 0.05626 0.27033 0.07596 0.0
H1426 H 0.03705 0.29472 0.08751 0.0
H1427 H 0.02737 0.26166 0.07713 0.0
C1428 C 0.99727 0.33699 0.14332 0.0
C1429 C 0.98068 0.33295 0.12324 0.0
C1430 C 0.01307 0.31798 0.14753 0.0
C1431 C 0.0128 0.29409 0.132 0.0
C1432 C 0.99556 0.28924 0.11282 0.0
H1433 H 0.09954 0.16067 0.11921 0.0
H1434 H 0.07258 0.19466 0.11384 0.0
C1435 C 0.97983 0.3086 0.10826 0.0
C1436 C 0.03076 0.27474 0.13608 0.0
H1437 H 0.0706 0.23951 0.10438 0.0
C1438 C 0.03563 0.26733 0.16181 0.0
C1439 C 0.0439 0.26475 0.11526 0.0
C1440 C 0.04108 0.27348 0.08747 0.0
C1441 C 0.05215 0.24911 0.16715 0.0
C1442 C 0.06498 0.23846 0.14616 0.0
C1443 C 0.06063 0.24683 0.12055 0.0
C1444 C 0.08225 0.21792 0.14976 0.0
C1445 C 0.05472 0.2408 0.19515 0.0
C1446 C 0.09784 0.21967 0.17107 0.0
C1447 C 0.11303 0.19956 0.17446 0.0
C1448 C 0.1138 0.1778 0.15593 0.0
C1449 C 0.09914 0.17676 0.13401 0.0
C1450 C 0.08356 0.19635 0.13104 0.0
H1451 H 0.03964 0.24458 0.20664 0.0
H1452 H 0.05826 0.21946 0.19554 0.0
H1453 H 0.06844 0.25259 0.2055 0.0
H1454 H 0.09865 0.23673 0.18496 0.0
H1455 H 0.12468 0.20151 0.19114 0.0
H1456 H 0.5814 0.67448 0.69092 0.0
H1457 H 0.5523 0.7062 0.68407 0.0
H1458 H 0.58796 0.7354 0.61873 0.0
H1459 H 0.61509 0.70159 0.6234 0.0
H1460 H 0.54767 0.75256 0.68799 0.0
H1461 H 0.53409 0.73447 0.57987 0.0
H1462 H 0.55106 0.7132 0.59843 0.0
H1463 H 0.56214 0.74411 0.58748 0.0
C1464 C 0.58247 0.6871 0.6745 0.0
C1465 C 0.59997 0.68475 0.65701 0.0
C1466 C 0.56594 0.70552 0.67068 0.0
C1467 C 0.56694 0.72268 0.64985 0.0
C1468 C 0.58539 0.7213 0.63354 0.0
H1469 H 0.49269 0.85786 0.60372 0.0
H1470 H 0.51927 0.8232 0.60962 0.0
C1471 C 0.60123 0.70206 0.6365 0.0
C1472 C 0.54939 0.74272 0.64608 0.0
H1473 H 0.51963 0.77385 0.59941 0.0
C1474 C 0.54112 0.75649 0.66855 0.0
C1475 C 0.54097 0.74883 0.62076 0.0
C1476 C 0.54741 0.73415 0.59538 0.0
C1477 C 0.52501 0.77589 0.66653 0.0
C1478 C 0.5167 0.7819 0.64127 0.0
C1479 C 0.52539 0.76878 0.61883 0.0
C1480 C 0.49974 0.80245 0.63737 0.0
C1481 C 0.51792 0.79059 0.69153 0.0
C1482 C 0.4794 0.80221 0.65034 0.0
C1483 C 0.46397 0.8221 0.6468 0.0
C1484 C 0.46866 0.84249 0.6301 0.0
C1485 C 0.4886 0.8422 0.61653 0.0
C1486 C 0.50387 0.82243 0.62 0.0
H1487 H 0.53057 0.7898 0.70777 0.0
H1488 H 0.51486 0.81166 0.68828 0.0
H1489 H 0.5024 0.78124 0.69818 0.0
H1490 H 0.47562 0.78684 0.66348 0.0
H1491 H 0.44887 0.8221 0.65777 0.0
H1492 H 0.90674 0.69151 0.41509 0.0
H1493 H 0.93837 0.72163 0.42372 0.0
H1494 H 0.94469 0.72895 0.33982 0.0
H1495 H 0.91357 0.69754 0.33129 0.0
H1496 H 0.98015 0.73345 0.35387 0.0
H1497 H 0.94868 0.79619 0.43082 0.0
H1498 H 0.94623 0.76395 0.44297 0.0
H1499 H 0.93136 0.77137 0.41299 0.0
C1500 C 0.91479 0.69958 0.39842 0.0
C1501 C 0.90748 0.69179 0.37246 0.0
C1502 C 0.9329 0.71741 0.40339 0.0
C1503 C 0.9444 0.72854 0.38265 0.0
C1504 C 0.93681 0.72089 0.35658 0.0
H1505 H 0.05336 0.84107 0.37334 0.0
H1506 H 0.02211 0.80891 0.3659 0.0
C1507 C 0.91877 0.70279 0.3516 0.0
C1508 C 0.96516 0.74612 0.38847 0.0
H1509 H 0.98716 0.79741 0.42688 0.0
C1510 C 0.98418 0.7428 0.37314 0.0
C1511 C 0.96682 0.7657 0.40926 0.0
C1512 C 0.9471 0.77479 0.42465 0.0
C1513 C 0.00757 0.74641 0.38416 0.0
C1514 C 0.00634 0.77278 0.40017 0.0
C1515 C 0.98684 0.77991 0.41335 0.0
C1516 C 0.02435 0.79424 0.40499 0.0
C1517 C 0.04286 0.70759 0.38082 0.0
C1518 C 0.03422 0.79939 0.4304 0.0
C1519 C 0.05235 0.81717 0.43454 0.0
C1520 C 0.06032 0.8316 0.41379 0.0
C1521 C 0.04837 0.82935 0.38942 0.0
C1522 C 0.03046 0.81098 0.38512 0.0
H1523 H 0.03962 0.68602 0.37429 0.0
H1524 H 0.05744 0.70988 0.36753 0.0
H1525 H 0.05364 0.70302 0.39849 0.0
H1526 H 0.02876 0.78831 0.44674 0.0
H1527 H 0.06042 0.81915 0.45393 0.0
H1528 H 0.46011 0.15468 0.93751 0.0
H1529 H 0.4909 0.1868 0.93857 0.0
H1530 H 0.48576 0.18854 0.85362 0.0
H1531 H 0.45615 0.15442 0.85256 0.0
H1532 H 0.52599 0.183 0.86633 0.0
H1533 H 0.49971 0.26203 0.93823 0.0
H1534 H 0.5007 0.23042 0.95169 0.0
H1535 H 0.48085 0.23593 0.92553 0.0
C1536 C 0.46494 0.16276 0.91916 0.0
C1537 C 0.45529 0.15252 0.89499 0.0
C1538 C 0.48267 0.18128 0.91976 0.0
C1539 C 0.49067 0.19089 0.89624 0.0
C1540 C 0.48004 0.18172 0.87215 0.0
H1541 H 0.59791 0.28736 0.8396 0.0
H1542 H 0.56588 0.25845 0.84613 0.0
C1543 C 0.46283 0.16248 0.87151 0.0
C1544 C 0.51127 0.2083 0.89628 0.0
H1545 H 0.53689 0.26446 0.92468 0.0
C1546 C 0.52804 0.20114 0.87876 0.0
C1547 C 0.51487 0.23134 0.91342 0.0
C1548 C 0.498 0.24048 0.9331 0.0
C1549 C 0.54763 0.21659 0.87713 0.0
C1550 C 0.55049 0.24073 0.8928 0.0
C1551 C 0.53446 0.24688 0.91166 0.0
C1552 C 0.56918 0.26036 0.88896 0.0
C1553 C 0.56531 0.20608 0.85921 0.0
C1554 C 0.58082 0.27347 0.91069 0.0
C1555 C 0.59854 0.2913 0.90687 0.0
C1556 C 0.60532 0.29604 0.88124 0.0
C1557 C 0.59326 0.28381 0.85958 0.0
C1558 C 0.57512 0.26678 0.86338 0.0
H1559 H 0.56504 0.18411 0.85806 0.0
H1560 H 0.56202 0.21226 0.83888 0.0
H1561 H 0.58211 0.2133 0.86609 0.0
H1562 H 0.57659 0.26949 0.9307 0.0
H1563 H 0.60755 0.30044 0.92397 0.0
H1564 H 0.87845 0.15398 0.70227 0.0
H1565 H 0.88713 0.12624 0.73875 0.0
H1566 H 0.8507 0.06111 0.69803 0.0
H1567 H 0.84165 0.08873 0.66167 0.0
H1568 H 0.84093 0.06286 0.74756 0.0
H1569 H 0.91961 0.10294 0.7557 0.0
H1570 H 0.91489 0.08902 0.72252 0.0
H1571 H 0.93228 0.0726 0.74533 0.0
C1572 C 0.87249 0.13358 0.70087 0.0
C1573 C 0.85952 0.12357 0.67872 0.0
C1574 C 0.87758 0.11764 0.72183 0.0
C1575 C 0.87011 0.09107 0.72114 0.0
C1576 C 0.85695 0.08126 0.69913 0.0
H1577 H 0.91653 0.95737 0.80231 0.0
H1578 H 0.90908 0.99363 0.77344 0.0
C1579 C 0.85184 0.09714 0.67817 0.0
C1580 C 0.87528 0.07351 0.74335 0.0
H1581 H 0.91748 0.04725 0.77894 0.0
C1582 C 0.85774 0.05952 0.75434 0.0
C1583 C 0.89712 0.06942 0.75306 0.0
C1584 C 0.91703 0.08416 0.7434 0.0
C1585 C 0.86125 0.04117 0.77374 0.0
C1586 C 0.88318 0.03613 0.78247 0.0
C1587 C 0.9007 0.05068 0.77212 0.0
C1588 C 0.8886 0.01508 0.80108 0.0
C1589 C 0.84103 0.02707 0.78347 0.0
C1590 C 0.88095 0.01588 0.8271 0.0
C1591 C 0.88548 0.99535 0.84375 0.0
C1592 C 0.89769 0.97354 0.83472 0.0
C1593 C 0.90633 0.97342 0.80931 0.0
C1594 C 0.90209 0.99413 0.79285 0.0
H1595 H 0.82887 0.04186 0.79022 0.0
H1596 H 0.83294 0.01488 0.76681 0.0
H1597 H 0.84434 0.01414 0.79975 0.0
H1598 H 0.87127 0.03227 0.83445 0.0
H1599 H 0.87925 0.99636 0.8636 0.0
H1600 H 0.65069 0.06974 0.42431 0.0
H1601 H 0.68114 0.08315 0.45432 0.0
H1602 H 0.66869 0.16503 0.44256 0.0
H1603 H 0.63663 0.15152 0.41342 0.0
H1604 H 0.71758 0.10322 0.45354 0.0
H1605 H 0.67348 0.17355 0.5191 0.0
H1606 H 0.65924 0.15343 0.49313 0.0
H1607 H 0.67311 0.1841 0.48603 0.0
C1608 C 0.65422 0.09074 0.42789 0.0
C1609 C 0.64076 0.10946 0.41621 0.0
C1610 C 0.67194 0.09844 0.4453 0.0
C1611 C 0.67739 0.12526 0.45164 0.0
C1612 C 0.66463 0.14417 0.43911 0.0
H1613 H 0.78442 0.20814 0.54277 0.0
H1614 H 0.75403 0.19275 0.51296 0.0
C1615 C 0.64638 0.13642 0.42197 0.0
C1616 C 0.69647 0.13272 0.47104 0.0
H1617 H 0.7127 0.17399 0.52478 0.0
C1618 C 0.71621 0.11855 0.46925 0.0
C1619 C 0.69515 0.15241 0.49214 0.0
C1620 C 0.67402 0.1665 0.49793 0.0
C1621 C 0.73438 0.12369 0.48719 0.0
C1622 C 0.73344 0.14434 0.50724 0.0
C1623 C 0.71375 0.15843 0.50922 0.0
C1624 C 0.75289 0.15276 0.52545 0.0
C1625 C 0.75443 0.1069 0.48423 0.0
C1626 C 0.76286 0.1355 0.5428 0.0
C1627 C 0.78045 0.14443 0.56039 0.0
C1628 C 0.78853 0.17086 0.56107 0.0
C1629 C 0.77878 0.18771 0.54318 0.0
C1630 C 0.76124 0.1789 0.52591 0.0
H1631 H 0.75592 0.0988 0.4635 0.0
H1632 H 0.76986 0.11808 0.49052 0.0
H1633 H 0.7527 0.08995 0.49693 0.0
H1634 H 0.75672 0.11527 0.54316 0.0
H1635 H 0.78736 0.13083 0.57384 0.0
H1636 H 0.67873 0.94 0.15048 0.0
H1637 H 0.66906 0.97648 0.18095 0.0
H1638 H 0.64008 0.92112 0.23254 0.0
H1639 H 0.6509 0.88467 0.20253 0.0
H1640 H 0.60272 0.97473 0.23717 0.0
H1641 H 0.68624 0.0228 0.23837 0.0
H1642 H 0.67734 0.01793 0.2044 0.0
H1643 H 0.68447 0.99071 0.22354 0.0
C1644 C 0.67018 0.9358 0.16831 0.0
C1645 C 0.6647 0.90971 0.17371 0.0
C1646 C 0.66496 0.95671 0.18618 0.0
C1647 C 0.65327 0.95198 0.20916 0.0
C1648 C 0.64881 0.92563 0.21492 0.0
H1649 H 0.58417 0.03465 0.34034 0.0
H1650 H 0.58842 0.00352 0.30228 0.0
C1651 C 0.65467 0.90475 0.19756 0.0
C1652 C 0.64114 0.97315 0.22376 0.0
H1653 H 0.61933 0.0555 0.25671 0.0
C1654 C 0.61437 0.9641 0.23001 0.0
C1655 C 0.65135 0.00568 0.23056 0.0
C1656 C 0.67606 0.00984 0.22417 0.0
C1657 C 0.59339 0.98471 0.24333 0.0
C1658 C 0.59613 0.0178 0.25267 0.0
C1659 C 0.61969 0.0346 0.24979 0.0
C1660 C 0.58255 0.03189 0.27289 0.0
C1661 C 0.56936 0.97329 0.2499 0.0
C1662 C 0.57776 0.05863 0.26962 0.0
C1663 C 0.57677 0.07699 0.29154 0.0
C1664 C 0.57971 0.06889 0.31737 0.0
C1665 C 0.58221 0.04172 0.3207 0.0
C1666 C 0.58383 0.02354 0.2988 0.0
H1667 H 0.56593 0.95407 0.23864 0.0
H1668 H 0.56882 0.9701 0.27132 0.0
H1669 H 0.55654 0.98764 0.24512 0.0
H1670 H 0.57733 0.06596 0.24999 0.0
H1671 H 0.57424 0.09761 0.28824 0.0
H1672 H 0.8579 0.88704 0.9209 0.0
H1673 H 0.83043 0.87271 0.9523 0.0
H1674 H 0.82085 0.95416 0.97808 0.0
H1675 H 0.84607 0.96844 0.94535 0.0
H1676 H 0.83108 0.87689 0.00334 0.0
H1677 H 0.75908 0.93241 0.97183 0.0
H1678 H 0.7848 0.93505 0.95498 0.0
H1679 H 0.78026 0.9554 0.98453 0.0
C1680 C 0.84913 0.90186 0.9324 0.0
C1681 C 0.85384 0.92892 0.92982 0.0
C1682 C 0.83369 0.89366 0.95074 0.0
C1683 C 0.82296 0.91233 0.96732 0.0
C1684 C 0.828 0.93925 0.96496 0.0
H1685 H 0.73138 0.91184 0.09663 0.0
H1686 H 0.75982 0.92285 0.06525 0.0
C1687 C 0.84271 0.94742 0.94616 0.0
C1688 C 0.80767 0.90391 0.98824 0.0
H1689 H 0.75758 0.91596 0.01551 0.0
C1690 C 0.81492 0.88529 0.00581 0.0
C1691 C 0.78666 0.91516 0.9921 0.0
C1692 C 0.77728 0.93542 0.97464 0.0
C1693 C 0.80217 0.87818 0.0273 0.0
C1694 C 0.7811 0.88924 0.0309 0.0
C1695 C 0.77377 0.90756 0.01312 0.0
C1696 C 0.76597 0.88216 0.05247 0.0
C1697 C 0.81191 0.85963 0.04634 0.0
C1698 C 0.76015 0.85565 0.05655 0.0
C1699 C 0.74321 0.84947 0.07357 0.0
C1700 C 0.73255 0.8696 0.08796 0.0
C1701 C 0.73929 0.89599 0.08546 0.0
C1702 C 0.75558 0.90224 0.06758 0.0
H1703 H 0.83029 0.86093 0.04675 0.0
H1704 H 0.8062 0.86389 0.06674 0.0
H1705 H 0.80687 0.839 0.03975 0.0
H1706 H 0.76819 0.83952 0.04623 0.0
H1707 H 0.73859 0.82892 0.0757 0.0
H1708 H 0.86943 0.04023 0.61976 0.0
H1709 H 0.86102 0.0052 0.64942 0.0
H1710 H 0.90901 0.03984 0.70655 0.0
H1711 H 0.91778 0.07479 0.67676 0.0
H1712 H 0.91268 0.98749 0.69969 0.0
H1713 H 0.8228 0.9937 0.69942 0.0
H1714 H 0.83833 0.01879 0.68408 0.0
H1715 H 0.8327 0.02239 0.71861 0.0
C1716 C 0.87789 0.04078 0.63891 0.0
C1717 C 0.89386 0.06089 0.64619 0.0
C1718 C 0.87293 0.02074 0.65598 0.0
C1719 C 0.88343 0.02056 0.68108 0.0
C1720 C 0.89986 0.04019 0.68795 0.0
H1721 H 0.84952 0.94268 0.82259 0.0
H1722 H 0.85509 0.97194 0.78646 0.0
C1723 C 0.90487 0.06022 0.67089 0.0
C1724 C 0.87874 0.99914 0.69958 0.0
H1725 H 0.8393 0.97219 0.73793 0.0
C1726 C 0.89656 0.98412 0.70794 0.0
C1727 C 0.85759 0.994 0.71008 0.0
C1728 C 0.83698 0.0081 0.70226 0.0
C1729 C 0.89416 0.96502 0.72682 0.0
C1730 C 0.87333 0.96096 0.73838 0.0
C1731 C 0.85538 0.97544 0.72953 0.0
C1732 C 0.86982 0.9426 0.7602 0.0
C1733 C 0.91431 0.94997 0.73449 0.0
C1734 C 0.87553 0.91589 0.75745 0.0
C1735 C 0.87212 0.89905 0.77803 0.0
C1736 C 0.86314 0.90849 0.80201 0.0
C1737 C 0.8572 0.93505 0.80475 0.0
C1738 C 0.86015 0.95172 0.78391 0.0
H1739 H 0.91438 0.93107 0.72222 0.0
H1740 H 0.92986 0.96119 0.73087 0.0
H1741 H 0.91437 0.94535 0.75555 0.0
H1742 H 0.88219 0.90784 0.73916 0.0
H1743 H 0.87619 0.87843 0.77501 0.0
H1744 H 0.84881 0.14039 0.57205 0.0
H1745 H 0.82205 0.1502 0.53726 0.0
H1746 H 0.87015 0.13431 0.4782 0.0
H1747 H 0.89757 0.12535 0.51294 0.0
H1748 H 0.82632 0.18907 0.49393 0.0
H1749 H 0.82563 0.0932 0.4934 0.0
H1750 H 0.84139 0.09583 0.46419 0.0
H1751 H 0.81338 0.08262 0.46147 0.0
C1752 C 0.85409 0.14036 0.55189 0.0
C1753 C 0.87558 0.13322 0.54546 0.0
C1754 C 0.83865 0.14558 0.53204 0.0
C1755 C 0.84411 0.14334 0.50539 0.0
C1756 C 0.86561 0.13635 0.49873 0.0
H1757 H 0.74727 0.14068 0.37331 0.0
H1758 H 0.78123 0.1369 0.39966 0.0
C1759 C 0.88124 0.13134 0.51862 0.0
C1760 C 0.82671 0.14707 0.48487 0.0
H1761 H 0.79093 0.11289 0.44118 0.0
C1762 C 0.8186 0.17247 0.48228 0.0
C1763 C 0.81687 0.12542 0.46953 0.0
C1764 C 0.82458 0.09764 0.47222 0.0
C1765 C 0.80057 0.17672 0.46512 0.0
C1766 C 0.78987 0.15484 0.45083 0.0
C1767 C 0.79882 0.12965 0.45239 0.0
C1768 C 0.76907 0.15743 0.4348 0.0
C1769 C 0.79356 0.20473 0.46208 0.0
C1770 C 0.75056 0.16971 0.44582 0.0
C1771 C 0.73098 0.17186 0.43076 0.0
C1772 C 0.72951 0.16169 0.40436 0.0
C1773 C 0.74785 0.14885 0.39357 0.0
C1774 C 0.76735 0.14669 0.40863 0.0
H1775 H 0.80772 0.219 0.46599 0.0
H1776 H 0.78662 0.2073 0.44192 0.0
H1777 H 0.78076 0.20975 0.47668 0.0
H1778 H 0.75117 0.17751 0.46615 0.0
H1779 H 0.71712 0.1817 0.43971 0.0
H1780 H 0.57302 0.94553 0.1607 0.0
H1781 H 0.57655 0.98061 0.1962 0.0
H1782 H 0.64126 0.00143 0.1688 0.0
H1783 H 0.63655 0.96848 0.13236 0.0
H1784 H 0.62612 0.97928 0.27361 0.0
H1785 H 0.62623 0.07256 0.18674 0.0
H1786 H 0.61176 0.04322 0.17228 0.0
H1787 H 0.64131 0.04823 0.16838 0.0
C1788 C 0.58814 0.95755 0.16273 0.0
C1789 C 0.60532 0.953 0.14494 0.0
C1790 C 0.59028 0.97768 0.18332 0.0
C1791 C 0.6104 0.99248 0.18779 0.0
C1792 C 0.62604 0.98978 0.16758 0.0
H1793 H 0.69115 0.12723 0.28773 0.0
H1794 H 0.68755 0.08712 0.25789 0.0
C1795 C 0.6236 0.97045 0.14664 0.0
C1796 C 0.618 0.00855 0.21412 0.0
H1797 H 0.657 0.07248 0.22368 0.0
C1798 C 0.62971 0.99652 0.26224 0.0
C1799 C 0.63243 0.03752 0.20695 0.0
C1800 C 0.62745 0.05099 0.18206 0.0
C1801 C 0.6487 0.0184 0.27629 0.0
C1802 C 0.6573 0.0456 0.26101 0.0
C1803 C 0.6507 0.05351 0.22928 0.0
C1804 C 0.66176 0.06896 0.27991 0.0
C1805 C 0.65811 0.01272 0.30292 0.0
C1806 C 0.64788 0.07284 0.30177 0.0
C1807 C 0.65024 0.09521 0.31908 0.0
C1808 C 0.66569 0.11508 0.31422 0.0
C1809 C 0.67903 0.11201 0.29188 0.0
C1810 C 0.67716 0.08905 0.27492 0.0
H1811 H 0.66266 0.99166 0.30273 0.0
H1812 H 0.67289 0.02554 0.30841 0.0
H1813 H 0.64525 0.01572 0.31792 0.0
H1814 H 0.63455 0.05893 0.30528 0.0
H1815 H 0.6395 0.09733 0.3358 0.0
H1816 H 0.6845 0.92194 0.06886 0.0
H1817 H 0.71283 0.91046 0.03673 0.0
H1818 H 0.66599 0.85798 0.99302 0.0
H1819 H 0.63751 0.86923 0.0254 0.0
H1820 H 0.72711 0.85229 0.01295 0.0
H1821 H 0.69118 0.92128 0.94338 0.0
H1822 H 0.68752 0.92567 0.97862 0.0
H1823 H 0.67302 0.89917 0.95983 0.0
C1824 C 0.68038 0.90724 0.05294 0.0
C1825 C 0.65869 0.8962 0.05017 0.0
C1826 C 0.69663 0.90081 0.03439 0.0
C1827 C 0.69169 0.88345 0.01218 0.0
C1828 C 0.67035 0.87143 0.00991 0.0
H1829 H 0.79719 0.82825 0.90369 0.0
H1830 H 0.76464 0.82885 0.9308 0.0
C1831 C 0.6541 0.8776 0.02872 0.0
C1832 C 0.70848 0.87923 0.99087 0.0
H1833 H 0.72311 0.89952 0.93031 0.0
C1834 C 0.72629 0.86259 0.99485 0.0
C1835 C 0.70752 0.89257 0.96715 0.0
C1836 C 0.68888 0.91079 0.96176 0.0
C1837 C 0.74318 0.85919 0.97615 0.0
C1838 C 0.74249 0.87281 0.95232 0.0
C1839 C 0.7243 0.88918 0.94835 0.0
C1840 C 0.76076 0.87139 0.9321 0.0
C1841 C 0.76187 0.84143 0.98274 0.0
C1842 C 0.7683 0.89425 0.91999 0.0
C1843 C 0.78643 0.8936 0.90302 0.0
C1844 C 0.79773 0.87008 0.89774 0.0
C1845 C 0.78958 0.84699 0.90846 0.0
C1846 C 0.771 0.84747 0.92456 0.0
H1847 H 0.76283 0.83799 0.00392 0.0
H1848 H 0.75884 0.82167 0.97247 0.0
H1849 H 0.77807 0.84981 0.9771 0.0
H1850 H 0.76036 0.91289 0.92383 0.0
H1851 H 0.79184 0.91162 0.8944 0.0
H1852 H 0.96909 0.88143 0.83143 0.0
H1853 H 1.00014 0.85109 0.83251 0.0
H1854 H 0.97554 0.82036 0.90378 0.0
H1855 H 0.9438 0.8491 0.90168 0.0
H1856 H 0.02053 0.83245 0.90734 0.0
H1857 H 0.99682 0.76931 0.81908 0.0
H1858 H 0.00694 0.80017 0.80797 0.0
H1859 H 0.98243 0.79925 0.82711 0.0
C1860 C 0.97 0.86761 0.84686 0.0
C1861 C 0.95369 0.86722 0.86609 0.0
C1862 C 0.98781 0.85037 0.84755 0.0
C1863 C 0.99001 0.83284 0.86789 0.0
C1864 C 0.97391 0.83288 0.88736 0.0
H1865 H 0.07937 0.70056 0.86247 0.0
H1866 H 0.04751 0.72857 0.87081 0.0
C1867 C 0.95573 0.84939 0.88613 0.0
C1868 C 0.00932 0.81503 0.86932 0.0
H1869 H 0.03527 0.76467 0.83575 0.0
C1870 C 0.02374 0.81763 0.89167 0.0
C1871 C 0.01355 0.79541 0.84907 0.0
C1872 C 0.99892 0.79082 0.82461 0.0
C1873 C 0.0423 0.80156 0.89407 0.0
C1874 C 0.04667 0.78233 0.87357 0.0
C1875 C 0.03205 0.77941 0.85151 0.0
C1876 C 0.06648 0.76532 0.87403 0.0
C1877 C 0.05684 0.80494 0.91876 0.0
C1878 C 0.08799 0.77658 0.8741 0.0
C1879 C 0.10628 0.76055 0.86988 0.0
C1880 C 0.1034 0.73301 0.86537 0.0
C1881 C 0.08208 0.72165 0.86658 0.0
C1882 C 0.06385 0.73765 0.87104 0.0
H1883 H 0.04828 0.81544 0.93525 0.0
H1884 H 0.06211 0.78547 0.9252 0.0
H1885 H 0.07189 0.8168 0.91459 0.0
H1886 H 0.09053 0.79785 0.87565 0.0
H1887 H 0.12247 0.76988 0.86807 0.0
H1888 H 0.49383 0.64802 0.0536 0.0
H1889 H 0.52625 0.67641 0.0665 0.0
H1890 H 0.48365 0.73534 0.10029 0.0
H1891 H 0.45103 0.70663 0.08675 0.0
H1892 H 0.53856 0.72333 0.05183 0.0
H1893 H 0.52708 0.73221 0.16008 0.0
H1894 H 0.51107 0.70886 0.13852 0.0
H1895 H 0.50387 0.74312 0.14134 0.0
C1896 C 0.49142 0.66695 0.06411 0.0
C1897 C 0.46998 0.67501 0.07013 0.0
C1898 C 0.50995 0.68321 0.07139 0.0
C1899 C 0.50749 0.708 0.0848 0.0
C1900 C 0.48601 0.71612 0.09061 0.0
H1901 H 0.61728 0.82838 0.09632 0.0
H1902 H 0.58484 0.80096 0.08043 0.0
C1903 C 0.46743 0.69974 0.08329 0.0
C1904 C 0.52741 0.72547 0.09184 0.0
H1905 H 0.5551 0.75936 0.14349 0.0
C1906 C 0.54222 0.73119 0.07191 0.0
C1907 C 0.53239 0.73558 0.11805 0.0
C1908 C 0.51789 0.72946 0.14077 0.0
C1909 C 0.56182 0.74648 0.0774 0.0
C1910 C 0.56658 0.75713 0.10353 0.0
C1911 C 0.5517 0.75132 0.12341 0.0
C1912 C 0.5872 0.77326 0.11134 0.0
C1913 C 0.57754 0.75001 0.05522 0.0
C1914 C 0.59937 0.76738 0.13414 0.0
C1915 C 0.61728 0.78351 0.1436 0.0
C1916 C 0.62394 0.80578 0.13032 0.0
C1917 C 0.61258 0.81122 0.10682 0.0
C1918 C 0.59416 0.7953 0.0976 0.0
H1919 H 0.57518 0.73395 0.03937 0.0
H1920 H 0.57425 0.76898 0.04624 0.0
H1921 H 0.59505 0.75031 0.06243 0.0
H1922 H 0.59476 0.75047 0.14506 0.0
H1923 H 0.62588 0.77862 0.16161 0.0
H1924 H 0.02 0.37915 0.62256 0.0
H1925 H 0.98732 0.34967 0.62283 0.0
H1926 H 0.02248 0.28834 0.58052 0.0
H1927 H 0.05489 0.31832 0.57918 0.0
H1928 H 0.9821 0.29086 0.56024 0.0
H1929 H 0.96732 0.31799 0.66098 0.0
H1930 H 0.99585 0.31285 0.65369 0.0
H1931 H 0.97938 0.28702 0.66685 0.0
C1932 C 0.0209 0.35931 0.61351 0.0
C1933 C 0.04041 0.35089 0.60147 0.0
C1934 C 1.00215 0.34237 0.61377 0.0
C1935 C 1.00248 0.31632 0.60247 0.0
C1936 C 0.02182 0.30806 0.58995 0.0
H1937 H 0.90168 0.18668 0.58177 0.0
H1938 H 0.93467 0.215 0.57801 0.0
C1939 C 0.04051 0.32512 0.58946 0.0
C1940 C 0.98238 0.29824 0.60254 0.0
H1941 H 0.94364 0.27235 0.64241 0.0
C1942 C 0.9738 0.28671 0.57827 0.0
C1943 C 0.97122 0.29276 0.62597 0.0
C1944 C 0.97918 0.30333 0.65317 0.0
C1945 C 0.9542 0.27085 0.57664 0.0
C1946 C 0.94306 0.26547 0.60005 0.0
C1947 C 0.9519 0.27652 0.62434 0.0
C1948 C 0.9221 0.24886 0.60008 0.0
C1949 C 0.94519 0.26097 0.54967 0.0
C1950 C 0.90359 0.2584 0.61344 0.0
C1951 C 0.88453 0.24233 0.61542 0.0
C1952 C 0.88352 0.21614 0.60435 0.0
C1953 C 0.90179 0.20677 0.59042 0.0
C1954 C 0.92079 0.22298 0.58829 0.0
H1955 H 0.95122 0.27353 0.53401 0.0
H1956 H 0.95092 0.24064 0.54509 0.0
H1957 H 0.92682 0.26049 0.54885 0.0
H1958 H 0.90399 0.27823 0.62275 0.0
H1959 H 0.87086 0.25021 0.62648 0.0
H1960 H 0.04428 0.66219 0.83636 0.0
H1961 H 0.01576 0.69518 0.83122 0.0
H1962 H 1.00336 0.69482 0.91466 0.0
H1963 H 0.03315 0.66371 0.91993 0.0
H1964 H 0.97531 0.69653 0.83494 0.0
H1965 H 1.00426 0.77049 0.91418 0.0
H1966 H 0.02072 0.74267 0.90444 0.0
H1967 H 0.99832 0.73909 0.92683 0.0
C1968 C 0.03561 0.66952 0.8536 0.0
C1969 C 0.04118 0.66076 0.87861 0.0
C1970 C 0.01915 0.68832 0.8507 0.0
C1971 C 0.00751 0.69853 0.87268 0.0
C1972 C 0.01262 0.68875 0.89751 0.0
H1973 H 0.89618 0.80977 0.88292 0.0
H1974 H 0.92491 0.77824 0.89375 0.0
C1975 C 0.02953 0.67059 0.90051 0.0
C1976 C 0.98969 0.7185 0.86923 0.0
H1977 H 0.96871 0.77635 0.8952 0.0
C1978 C 0.97425 0.7142 0.84798 0.0
C1979 C 0.98758 0.74158 0.88637 0.0
C1980 C 1.00375 0.74886 0.90903 0.0
C1981 C 0.95719 0.73191 0.84333 0.0
C1982 C 0.95535 0.75514 0.86017 0.0
C1983 C 0.97025 0.75906 0.8819 0.0
C1984 C 0.93882 0.77603 0.85477 0.0
C1985 C 0.94093 0.72495 0.82067 0.0
C1986 C 0.9376 0.78656 0.82984 0.0
C1987 C 0.92167 0.8049 0.82387 0.0
C1988 C 0.90599 0.81322 0.84246 0.0
C1989 C 0.90787 0.80389 0.86803 0.0
C1990 C 0.92423 0.78563 0.87416 0.0
H1991 H 0.93948 0.70321 0.81626 0.0
H1992 H 0.92422 0.73238 0.82491 0.0
H1993 H 0.94692 0.73385 0.80263 0.0
H1994 H 0.9487 0.78017 0.81452 0.0
H1995 H 0.92116 0.81177 0.80406 0.0
H1996 H 0.41332 0.32458 0.3035 0.0
H1997 H 0.43957 0.29167 0.31346 0.0
H1998 H 0.42008 0.29609 0.39487 0.0
H1999 H 0.39146 0.32746 0.38398 0.0
H2000 H 0.473 0.28682 0.33584 0.0
H2001 H 0.41848 0.22038 0.38927 0.0
H2002 H 0.40795 0.24853 0.37362 0.0
H2003 H 0.42103 0.2524 0.40618 0.0
C2004 C 0.41439 0.3187 0.32367 0.0
C2005 C 0.39978 0.32874 0.34279 0.0
C2006 C 0.42975 0.29964 0.32944 0.0
C2007 C 0.43186 0.29023 0.35488 0.0
C2008 C 0.41835 0.30161 0.37468 0.0
H2009 H 0.54864 0.19891 0.39558 0.0
H2010 H 0.52046 0.23267 0.3926 0.0
C2011 C 0.40226 0.32025 0.36862 0.0
C2012 C 0.44845 0.26902 0.35993 0.0
H2013 H 0.45667 0.2107 0.3896 0.0
C2014 C 0.46907 0.27023 0.34754 0.0
C2015 C 0.44385 0.24665 0.3748 0.0
C2016 C 0.42154 0.24172 0.38645 0.0
C2017 C 0.48476 0.25034 0.34956 0.0
C2018 C 0.4806 0.229 0.36552 0.0
C2019 C 0.46014 0.22744 0.37788 0.0
C2020 C 0.49714 0.2078 0.36867 0.0
C2021 C 0.50507 0.25121 0.33305 0.0
C2022 C 0.4933 0.18227 0.35674 0.0
C2023 C 0.5094 0.16286 0.3584 0.0
C2024 C 0.52978 0.16849 0.37206 0.0
C2025 C 0.53335 0.19392 0.38453 0.0
C2026 C 0.51722 0.21327 0.38291 0.0
H2027 H 0.50649 0.26963 0.32236 0.0
H2028 H 0.52013 0.24938 0.34559 0.0
H2029 H 0.50442 0.23403 0.31833 0.0
H2030 H 0.47797 0.17745 0.34572 0.0
H2031 H 0.50593 0.14348 0.34874 0.0
H2032 H 0.96436 0.1894 0.54815 0.0
H2033 H 0.99505 0.22058 0.55841 0.0
H2034 H 1.00081 0.19332 0.63708 0.0
H2035 H 0.96906 0.16244 0.62726 0.0
H2036 H 0.00862 0.24692 0.63666 0.0
H2037 H 0.05783 0.19712 0.55872 0.0
H2038 H 0.03214 0.20888 0.54622 0.0
H2039 H 0.03202 0.18324 0.56929 0.0
C2040 C 0.97193 0.19004 0.5678 0.0
C2041 C 0.9642 0.17304 0.58679 0.0
C2042 C 0.98969 0.20787 0.57355 0.0
C2043 C 1.00092 0.20869 0.59816 0.0
C2044 C 0.99264 0.19283 0.61776 0.0
H2045 H 0.11775 0.29027 0.66891 0.0
H2046 H 0.08548 0.26216 0.65774 0.0
C2047 C 0.97441 0.17521 0.61217 0.0
C2048 C 0.02159 0.2255 0.60287 0.0
H2049 H 0.07297 0.23752 0.57847 0.0
C2050 C 0.02275 0.24469 0.62407 0.0
C2051 C 0.04007 0.22289 0.5863 0.0
C2052 C 0.0406 0.20175 0.56402 0.0
C2053 C 0.04165 0.26135 0.62905 0.0
C2054 C 0.06012 0.25877 0.61244 0.0
C2055 C 0.05886 0.23978 0.59107 0.0
C2056 C 0.08122 0.27463 0.61793 0.0
C2057 C 0.0414 0.28209 0.6517 0.0
C2058 C 0.09121 0.28941 0.59851 0.0
C2059 C 0.11032 0.30544 0.60473 0.0
C2060 C 0.11981 0.30676 0.63045 0.0
C2061 C 0.11046 0.29067 0.64917 0.0
C2062 C 0.09174 0.27463 0.64289 0.0
H2063 H 0.0244 0.28561 0.6583 0.0
H2064 H 0.0508 0.27524 0.66893 0.0
H2065 H 0.04904 0.30106 0.64612 0.0
H2066 H 0.08403 0.2889 0.57868 0.0
H2067 H 0.11733 0.31715 0.58969 0.0
H2068 H 0.37509 0.7358 0.1011 0.0
H2069 H 0.40496 0.76907 0.09702 0.0
H2070 H 0.44976 0.72083 0.1393 0.0
H2071 H 0.42012 0.68717 0.14232 0.0
H2072 H 0.45613 0.7704 0.15641 0.0
H2073 H 0.42901 0.7779 0.06038 0.0
H2074 H 0.43825 0.74498 0.06473 0.0
H2075 H 0.45482 0.76767 0.0471 0.0
C2076 C 0.3915 0.73205 0.10886 0.0
C2077 C 0.39549 0.70843 0.12113 0.0
C2078 C 0.4086 0.75114 0.10663 0.0
C2079 C 0.43 0.7474 0.11721 0.0
C2080 C 0.43361 0.72425 0.13058 0.0
H2081 H 0.56152 0.82445 0.12036 0.0
H2082 H 0.52886 0.79552 0.12558 0.0
C2083 C 0.41675 0.70475 0.13195 0.0
C2084 C 0.44862 0.7674 0.11455 0.0
H2085 H 0.47824 0.80063 0.06954 0.0
C2086 C 0.46087 0.77695 0.13736 0.0
C2087 C 0.45509 0.77624 0.08974 0.0
C2088 C 0.44376 0.76598 0.06409 0.0
C2089 C 0.47906 0.79489 0.13614 0.0
C2090 C 0.48565 0.80345 0.11136 0.0
C2091 C 0.47327 0.79424 0.08858 0.0
C2092 C 0.50552 0.82151 0.10862 0.0
C2093 C 0.49088 0.80484 0.16156 0.0
C2094 C 0.50342 0.84611 0.09751 0.0
C2095 C 0.52205 0.86291 0.0949 0.0
C2096 C 0.5434 0.85519 0.10249 0.0
C2097 C 0.5455 0.83061 0.11353 0.0
C2098 C 0.52678 0.81412 0.11674 0.0
H2099 H 0.48031 0.80261 0.1789 0.0
H2100 H 0.50593 0.7932 0.16448 0.0
H2101 H 0.49605 0.82598 0.16094 0.0
H2102 H 0.48729 0.85247 0.0911 0.0
H2103 H 0.51978 0.88181 0.08652 0.0
H2104 H 0.5962 0.37283 0.79725 0.0
H2105 H 0.5923 0.4091 0.76789 0.0
H2106 H 0.65986 0.43446 0.78669 0.0
H2107 H 0.66356 0.39858 0.81652 0.0
H2108 H 0.59336 0.4599 0.77286 0.0
H2109 H 0.66318 0.43244 0.70949 0.0
H2110 H 0.65377 0.41173 0.73477 0.0
H2111 H 0.67199 0.43996 0.74321 0.0
C2112 C 0.61008 0.38652 0.79552 0.0
C2113 C 0.63009 0.38298 0.80953 0.0
C2114 C 0.6079 0.4072 0.77852 0.0
C2115 C 0.62587 0.42457 0.77442 0.0
C2116 C 0.6458 0.42125 0.78882 0.0
H2117 H 0.60874 0.57223 0.69037 0.0
H2118 H 0.61054 0.54064 0.72526 0.0
C2119 C 0.6478 0.40095 0.80637 0.0
C2120 C 0.62342 0.44621 0.7555 0.0
H2121 H 0.64634 0.4729 0.70177 0.0
C2122 C 0.6051 0.46275 0.75747 0.0
C2123 C 0.63839 0.45004 0.73491 0.0
C2124 C 0.6578 0.43244 0.73027 0.0
C2125 C 0.60138 0.48272 0.73977 0.0
C2126 C 0.61634 0.48645 0.71921 0.0
C2127 C 0.63476 0.47015 0.71739 0.0
C2128 C 0.61276 0.50592 0.69838 0.0
C2129 C 0.58109 0.49913 0.74293 0.0
C2130 C 0.61292 0.49722 0.67149 0.0
C2131 C 0.61159 0.51522 0.65164 0.0
C2132 C 0.61064 0.54251 0.65807 0.0
C2133 C 0.60971 0.55131 0.68485 0.0
C2134 C 0.61051 0.53316 0.7048 0.0
H2135 H 0.56845 0.48936 0.75482 0.0
H2136 H 0.58591 0.51838 0.75341 0.0
H2137 H 0.57346 0.50302 0.72343 0.0
H2138 H 0.61434 0.4764 0.6658 0.0
H2139 H 0.61209 0.50781 0.63116 0.0
H2140 H 0.85436 0.39821 0.06184 0.0
H2141 H 0.82069 0.39114 0.03418 0.0
H2142 H 0.84211 0.31362 0.00824 0.0
H2143 H 0.8757 0.32038 0.03648 0.0
H2144 H 0.81646 0.38261 0.98054 0.0
H2145 H 0.7799 0.29572 0.02657 0.0
H2146 H 0.80467 0.31267 0.04016 0.0
H2147 H 0.80601 0.29009 0.01158 0.0
C2148 C 0.85189 0.37953 0.05043 0.0
C2149 C 0.86786 0.35987 0.05151 0.0
C2150 C 0.83257 0.37553 0.03449 0.0
C2151 C 0.82851 0.35171 0.01914 0.0
C2152 C 0.84443 0.33197 0.02021 0.0
H2153 H 0.71223 0.29721 0.91955 0.0
H2154 H 0.74678 0.30075 0.94576 0.0
C2155 C 0.86376 0.33592 0.03633 0.0
C2156 C 0.80806 0.34828 0.00145 0.0
H2157 H 0.76029 0.31111 0.98983 0.0
C2158 C 0.80418 0.36692 0.98256 0.0
C2159 C 0.79228 0.32729 0.00315 0.0
C2160 C 0.79582 0.30538 0.02155 0.0
C2161 C 0.78527 0.36522 0.96547 0.0
C2162 C 0.7685 0.34546 0.96854 0.0
C2163 C 0.7726 0.32661 0.98734 0.0
C2164 C 0.74701 0.34347 0.95224 0.0
C2165 C 0.78438 0.3839 0.94343 0.0
C2166 C 0.73491 0.36604 0.94684 0.0
C2167 C 0.71535 0.36406 0.93105 0.0
C2168 C 0.70668 0.3393 0.921 0.0
C2169 C 0.71824 0.31663 0.92711 0.0
C2170 C 0.73813 0.31868 0.94227 0.0
H2171 H 0.80129 0.38974 0.93751 0.0
H2172 H 0.77527 0.37491 0.92565 0.0
H2173 H 0.7762 0.40226 0.9504 0.0
H2174 H 0.74052 0.3854 0.95476 0.0
H2175 H 0.70686 0.38197 0.92699 0.0
H2176 H 0.89459 0.59972 0.30258 0.0
H2177 H 0.90259 0.56112 0.27318 0.0
H2178 H 0.83981 0.52519 0.29065 0.0
H2179 H 0.83246 0.56323 0.32143 0.0
H2180 H 0.9012 0.46165 0.30362 0.0
H2181 H 0.87323 0.53187 0.19943 0.0
H2182 H 0.8865 0.55404 0.22461 0.0
H2183 H 0.85865 0.54215 0.22899 0.0
C2184 C 0.88272 0.58327 0.30058 0.0
C2185 C 0.86386 0.58335 0.31608 0.0
C2186 C 0.88715 0.56125 0.28351 0.0
C2187 C 0.87304 0.53861 0.2819 0.0
C2188 C 0.85226 0.54089 0.29374 0.0
H2189 H 0.90679 0.37879 0.18025 0.0
H2190 H 0.90188 0.40679 0.22019 0.0
C2191 C 0.84796 0.56274 0.31124 0.0
C2192 C 0.88129 0.51261 0.26842 0.0
H2193 H 0.89656 0.4926 0.19572 0.0
C2194 C 0.89876 0.4693 0.28403 0.0
C2195 C 0.88386 0.51393 0.23491 0.0
C2196 C 0.87494 0.53674 0.22104 0.0
C2197 C 0.90939 0.45129 0.2583 0.0
C2198 C 0.9078 0.46133 0.2268 0.0
C2199 C 0.89633 0.48976 0.21668 0.0
C2200 C 0.91502 0.44284 0.20474 0.0
C2201 C 0.92203 0.42747 0.26487 0.0
C2202 C 0.92501 0.45294 0.18269 0.0
C2203 C 0.92763 0.43685 0.15966 0.0
C2204 C 0.92034 0.41016 0.15804 0.0
C2205 C 0.91203 0.39942 0.18066 0.0
C2206 C 0.90943 0.41559 0.20375 0.0
H2207 H 0.93003 0.43073 0.28482 0.0
H2208 H 0.91039 0.41024 0.26542 0.0
H2209 H 0.93488 0.42312 0.25017 0.0
H2210 H 0.93015 0.47359 0.18285 0.0
H2211 H 0.93455 0.44573 0.14272 0.0
H2212 H 0.80006 0.65612 0.41717 0.0
H2213 H 0.77176 0.65298 0.45055 0.0
H2214 H 0.77051 0.568 0.43865 0.0
H2215 H 0.79794 0.57132 0.40418 0.0
H2216 H 0.73069 0.63541 0.45016 0.0
H2217 H 0.77731 0.57393 0.51691 0.0
H2218 H 0.78919 0.58575 0.48744 0.0
H2219 H 0.77166 0.5564 0.48552 0.0
C2220 C 0.7943 0.63672 0.42232 0.0
C2221 C 0.80196 0.61391 0.40867 0.0
C2222 C 0.77788 0.63489 0.44133 0.0
C2223 C 0.76937 0.61016 0.44829 0.0
C2224 C 0.77718 0.58734 0.43467 0.0
H2225 H 0.66923 0.55574 0.55536 0.0
H2226 H 0.69882 0.56076 0.52414 0.0
C2227 C 0.79304 0.58921 0.41499 0.0
C2228 C 0.7519 0.60836 0.469 0.0
H2229 H 0.73906 0.57914 0.52615 0.0
C2230 C 0.73265 0.6232 0.46683 0.0
C2231 C 0.75403 0.59232 0.4909 0.0
C2232 C 0.77428 0.5764 0.49549 0.0
C2233 C 0.71555 0.62202 0.48527 0.0
C2234 C 0.7178 0.60613 0.50728 0.0
C2235 C 0.73707 0.59137 0.50947 0.0
C2236 C 0.70011 0.60356 0.52756 0.0
C2237 C 0.69482 0.63703 0.48023 0.0
C2238 C 0.69104 0.62582 0.5409 0.0
C2239 C 0.67378 0.62296 0.55877 0.0
C2240 C 0.66537 0.59774 0.56421 0.0
C2241 C 0.67515 0.57552 0.55176 0.0
C2242 C 0.69218 0.57838 0.53376 0.0
H2243 H 0.69287 0.64145 0.45911 0.0
H2244 H 0.67985 0.62575 0.48583 0.0
H2245 H 0.6958 0.65615 0.49215 0.0
H2246 H 0.69725 0.6455 0.53749 0.0
H2247 H 0.66687 0.64055 0.56812 0.0
H2248 H 0.67016 0.45746 0.88332 0.0
H2249 H 0.6764 0.48504 0.84594 0.0
H2250 H 0.61103 0.46306 0.81445 0.0
H2251 H 0.60517 0.43485 0.85074 0.0
H2252 H 0.67749 0.47745 0.79372 0.0
H2253 H 0.60649 0.54037 0.81799 0.0
H2254 H 0.61567 0.51551 0.83935 0.0
H2255 H 0.5981 0.5065 0.81067 0.0
C2256 C 0.65743 0.458 0.86791 0.0
C2257 C 0.63729 0.44384 0.86975 0.0
C2258 C 0.66092 0.47388 0.84668 0.0
C2259 C 0.64407 0.47647 0.82742 0.0
C2260 C 0.62422 0.46171 0.82903 0.0
H2261 H 0.65979 0.56037 0.68097 0.0
H2262 H 0.66007 0.5248 0.71194 0.0
C2263 C 0.62099 0.44524 0.84968 0.0
C2264 C 0.64708 0.49494 0.80602 0.0
H2265 H 0.62402 0.5475 0.77788 0.0
C2266 C 0.66578 0.49275 0.79023 0.0
C2267 C 0.63189 0.51507 0.80151 0.0
C2268 C 0.61204 0.51968 0.81845 0.0
C2269 C 0.66977 0.5102 0.77025 0.0
C2270 C 0.65462 0.53034 0.76592 0.0
C2271 C 0.63571 0.53212 0.7813 0.0
C2272 C 0.65849 0.5512 0.74707 0.0
C2273 C 0.69041 0.50731 0.75446 0.0
C2274 C 0.65836 0.57781 0.7565 0.0
C2275 C 0.65838 0.59792 0.73899 0.0
C2276 C 0.65812 0.59188 0.7116 0.0
C2277 C 0.65959 0.56541 0.70204 0.0
C2278 C 0.66001 0.54516 0.71973 0.0
H2279 H 0.70277 0.49508 0.76429 0.0
H2280 H 0.68594 0.49741 0.73482 0.0
H2281 H 0.69816 0.52692 0.75132 0.0
H2282 H 0.6575 0.58301 0.7775 0.0
H2283 H 0.65757 0.61822 0.74688 0.0
H2284 H 0.80235 0.33845 0.08562 0.0
H2285 H 0.77241 0.34029 0.0524 0.0
H2286 H 0.7649 0.42294 0.07385 0.0
H2287 H 0.79399 0.42094 0.10828 0.0
H2288 H 0.73083 0.3511 0.0628 0.0
H2289 H 0.76254 0.42276 0.99378 0.0
H2290 H 0.78032 0.4073 0.01713 0.0
H2291 H 0.76429 0.43518 0.02772 0.0
C2292 C 0.79499 0.35729 0.08248 0.0
C2293 C 0.80073 0.37972 0.09913 0.0
C2294 C 0.77793 0.35826 0.06347 0.0
C2295 C 0.76698 0.38185 0.05997 0.0
C2296 C 0.77355 0.40469 0.07564 0.0
H2297 H 0.64699 0.42406 0.97813 0.0
H2298 H 0.68049 0.42255 0.00615 0.0
C2299 C 0.79017 0.40357 0.09525 0.0
C2300 C 0.74712 0.38168 0.04216 0.0
H2301 H 0.72375 0.41237 0.9907 0.0
C2302 C 0.72941 0.36422 0.04676 0.0
C2303 C 0.74526 0.39889 0.02137 0.0
C2304 C 0.7642 0.41691 0.01448 0.0
C2305 C 0.70969 0.36389 0.0315 0.0
C2306 C 0.70772 0.38138 0.01096 0.0
C2307 C 0.72538 0.3989 0.0064 0.0
C2308 C 0.68736 0.38198 0.99413 0.0
C2309 C 0.69088 0.34548 0.03806 0.0
C2310 C 0.68021 0.35969 0.97802 0.0
C2311 C 0.66127 0.36062 0.96168 0.0
C2312 C 0.64905 0.38377 0.96149 0.0
C2313 C 0.65612 0.40597 0.97784 0.0
C2314 C 0.67524 0.40515 0.99383 0.0
H2315 H 0.69303 0.33824 0.05819 0.0
H2316 H 0.67479 0.35543 0.03677 0.0
H2317 H 0.69023 0.32806 0.02366 0.0
H2318 H 0.68949 0.3417 0.97776 0.0
H2319 H 0.65609 0.34318 0.9494 0.0
H2320 H 0.9138 0.58608 0.36228 0.0
H2321 H 0.91565 0.55702 0.32259 0.0
H2322 H 0.88982 0.49189 0.36418 0.0
H2323 H 0.88924 0.52088 0.40466 0.0
H2324 H 0.93099 0.52218 0.29787 0.0
H2325 H 0.8582 0.47545 0.34319 0.0
H2326 H 0.83693 0.48689 0.32197 0.0
H2327 H 0.85419 0.51059 0.34134 0.0
C2328 C 0.90784 0.56575 0.36262 0.0
C2329 C 0.89974 0.55604 0.38571 0.0
C2330 C 0.90867 0.54904 0.33984 0.0
C2331 C 0.89986 0.52302 0.33924 0.0
C2332 C 0.89434 0.51258 0.36327 0.0
H2333 H 0.8565 0.38449 0.22819 0.0
H2334 H 0.86546 0.42142 0.26006 0.0
C2335 C 0.89415 0.52906 0.38639 0.0
C2336 C 0.89554 0.50789 0.31344 0.0
H2337 H 0.84427 0.46508 0.27967 0.0
C2338 C 0.91592 0.5114 0.29142 0.0
C2339 C 0.87025 0.49136 0.30794 0.0
C2340 C 0.85403 0.49125 0.32988 0.0
C2341 C 0.91385 0.49795 0.25963 0.0
C2342 C 0.87518 0.47247 0.25151 0.0
C2343 C 0.86033 0.47504 0.27966 0.0
C2344 C 0.86466 0.45143 0.23144 0.0
C2345 C 0.93543 0.50277 0.24463 0.0
C2346 C 0.85868 0.45581 0.20491 0.0
C2347 C 0.85524 0.43433 0.18619 0.0
C2348 C 0.85528 0.40836 0.19425 0.0
C2349 C 0.85709 0.40433 0.22135 0.0
C2350 C 0.86207 0.42555 0.23966 0.0
H2351 H 0.947 0.5162 0.25677 0.0
H2352 H 0.94442 0.48422 0.24066 0.0
H2353 H 0.93272 0.51244 0.22583 0.0
H2354 H 0.85785 0.4756 0.19819 0.0
H2355 H 0.85265 0.43798 0.16552 0.0
H2356 H 0.84924 0.57437 0.49338 0.0
H2357 H 0.81919 0.58207 0.52316 0.0
H2358 H 0.82853 0.66635 0.51842 0.0
H2359 H 0.85907 0.65866 0.48814 0.0
H2360 H 0.8168 0.60615 0.57009 0.0
H2361 H 0.76448 0.65949 0.50033 0.0
H2362 H 0.7912 0.6471 0.49158 0.0
H2363 H 0.78936 0.67688 0.51227 0.0
C2364 C 0.84489 0.59461 0.49842 0.0
C2365 C 0.85635 0.61592 0.48807 0.0
C2366 C 0.82768 0.599 0.51562 0.0
C2367 C 0.8211 0.62476 0.52254 0.0
C2368 C 0.83285 0.64625 0.51277 0.0
H2369 H 0.70647 0.6668 0.61512 0.0
H2370 H 0.73665 0.667 0.58418 0.0
C2371 C 0.85032 0.64185 0.49554 0.0
C2372 C 0.80182 0.62832 0.53983 0.0
H2373 H 0.74866 0.64932 0.54051 0.0
C2374 C 0.80192 0.6157 0.56368 0.0
C2375 C 0.78262 0.64153 0.53197 0.0
C2376 C 0.78175 0.65692 0.50755 0.0
C2377 C 0.78325 0.61515 0.57942 0.0
C2378 C 0.76339 0.6263 0.57035 0.0
C2379 C 0.7636 0.64004 0.54713 0.0
C2380 C 0.74266 0.62512 0.58542 0.0
C2381 C 0.78543 0.60328 0.60593 0.0
C2382 C 0.73486 0.60124 0.59508 0.0
C2383 C 0.71814 0.60133 0.61358 0.0
C2384 C 0.70811 0.62504 0.62137 0.0
C2385 C 0.71397 0.64826 0.60925 0.0
C2386 C 0.73129 0.64838 0.59164 0.0
H2387 H 0.80288 0.60423 0.61348 0.0
H2388 H 0.77514 0.61361 0.62089 0.0
H2389 H 0.78013 0.5821 0.60378 0.0
H2390 H 0.74255 0.58277 0.58949 0.0
H2391 H 0.71372 0.58319 0.62265 0.0
H2392 H 0.55294 0.63443 0.67219 0.0
H2393 H 0.52343 0.66634 0.67524 0.0
H2394 H 0.51978 0.66622 0.58996 0.0
H2395 H 0.5514 0.63756 0.58753 0.0
H2396 H 0.50776 0.70737 0.60125 0.0
H2397 H 0.46176 0.65348 0.67341 0.0
H2398 H 0.48754 0.66414 0.68909 0.0
H2399 H 0.48697 0.64104 0.66028 0.0
C2400 C 0.5463 0.64212 0.65423 0.0
C2401 C 0.55497 0.63418 0.62972 0.0
C2402 C 0.52877 0.65972 0.65584 0.0
C2403 C 0.51816 0.66824 0.63284 0.0
C2404 C 0.52728 0.66049 0.6083 0.0
H2405 H 0.40096 0.76511 0.6038 0.0
H2406 H 0.4297 0.73247 0.59925 0.0
C2407 C 0.5456 0.6441 0.60683 0.0
C2408 C 0.49797 0.68531 0.63418 0.0
H2409 H 0.45093 0.69804 0.66852 0.0
C2410 C 0.49554 0.70514 0.61609 0.0
C2411 C 0.4808 0.68207 0.65249 0.0
C2412 C 0.47928 0.65879 0.66959 0.0
C2413 C 0.47761 0.72232 0.61657 0.0
C2414 C 0.46165 0.72045 0.63635 0.0
C2415 C 0.46354 0.70023 0.65395 0.0
C2416 C 0.44298 0.73921 0.63932 0.0
C2417 C 0.47609 0.74235 0.5958 0.0
C2418 C 0.43944 0.75265 0.66391 0.0
C2419 C 0.42243 0.77082 0.6668 0.0
C2420 C 0.40857 0.77604 0.64513 0.0
C2421 C 0.41172 0.76211 0.62073 0.0
C2422 C 0.42842 0.74359 0.61801 0.0
H2423 H 0.49162 0.74423 0.5849 0.0
H2424 H 0.46308 0.73577 0.58082 0.0
H2425 H 0.47178 0.76203 0.60468 0.0
H2426 H 0.45013 0.74947 0.68086 0.0
H2427 H 0.42033 0.78101 0.68594 0.0
H2428 H 0.40298 0.61155 0.18585 0.0
H2429 H 0.40994 0.57508 0.21474 0.0
H2430 H 0.34052 0.56882 0.22965 0.0
H2431 H 0.33314 0.60298 0.19842 0.0
H2432 H 0.38668 0.57515 0.26881 0.0
H2433 H 0.35613 0.45631 0.18789 0.0
H2434 H 0.36418 0.47867 0.16738 0.0
H2435 H 0.34025 0.48127 0.1818 0.0
C2436 C 0.38912 0.60165 0.19453 0.0
C2437 C 0.36738 0.60872 0.18835 0.0
C2438 C 0.39305 0.58068 0.21087 0.0
C2439 C 0.37535 0.56625 0.22117 0.0
C2440 C 0.35414 0.57692 0.21897 0.0
H2441 H 0.43039 0.43365 0.30364 0.0
H2442 H 0.42454 0.46892 0.27373 0.0
C2443 C 0.34996 0.59674 0.20145 0.0
C2444 C 0.38 0.54371 0.23878 0.0
H2445 H 0.38439 0.504 0.24031 0.0
C2446 C 0.38716 0.55392 0.26432 0.0
C2447 C 0.37981 0.51106 0.23234 0.0
C2448 C 0.35809 0.47862 0.18829 0.0
C2449 C 0.3952 0.53873 0.28454 0.0
C2450 C 0.39769 0.51141 0.27999 0.0
C2451 C 0.39222 0.49903 0.25568 0.0
C2452 C 0.40435 0.49261 0.3004 0.0
C2453 C 0.40274 0.55296 0.31042 0.0
C2454 C 0.39486 0.49336 0.32549 0.0
C2455 C 0.39878 0.47335 0.34286 0.0
C2456 C 0.41127 0.45138 0.33506 0.0
C2457 C 0.42035 0.45013 0.30994 0.0
C2458 C 0.41723 0.47061 0.29301 0.0
H2459 H 0.40877 0.57344 0.30746 0.0
H2460 H 0.38849 0.55445 0.3237 0.0
H2461 H 0.41621 0.54252 0.32038 0.0
H2462 H 0.38381 0.50889 0.33148 0.0
H2463 H 0.39165 0.47476 0.36224 0.0
H2464 H 0.30927 0.62868 0.06956 0.0
H2465 H 0.27814 0.61592 0.03843 0.0
H2466 H 0.24756 0.68984 0.05917 0.0
H2467 H 0.27923 0.70366 0.08707 0.0
H2468 H 0.23786 0.60562 0.03893 0.0
H2469 H 0.23489 0.70469 0.01994 0.0
H2470 H 0.23834 0.69723 0.98557 0.0
H2471 H 0.26042 0.69066 0.00871 0.0
C2472 C 0.29625 0.64253 0.06666 0.0
C2473 C 0.29761 0.66781 0.07985 0.0
C2474 C 0.27822 0.63514 0.04902 0.0
C2475 C 0.26065 0.65246 0.04488 0.0
C2476 C 0.26131 0.67671 0.05992 0.0
H2477 H 0.13488 0.64296 0.94955 0.0
H2478 H 0.16514 0.65605 0.98154 0.0
C2479 C 0.27958 0.68449 0.07641 0.0
C2480 C 0.24133 0.6451 0.02582 0.0
H2481 H 0.20653 0.66971 0.97914 0.0
C2482 C 0.23138 0.61961 0.02557 0.0
C2483 C 0.23208 0.66321 0.00843 0.0
C2484 C 0.24219 0.69034 0.00549 0.0
C2485 C 0.21285 0.61192 0.00889 0.0
C2486 C 0.20385 0.63002 0.99144 0.0
C2487 C 0.21328 0.65567 0.99228 0.0
C2488 C 0.1854 0.62252 0.97142 0.0
C2489 C 0.20264 0.58466 0.01098 0.0
C2490 C 0.18685 0.60002 0.95396 0.0
C2491 C 0.1696 0.59255 0.93569 0.0
C2492 C 0.15036 0.60754 0.93382 0.0
C2493 C 0.14938 0.63092 0.95024 0.0
C2494 C 0.16667 0.6383 0.96878 0.0
H2495 H 0.20583 0.57731 0.03089 0.0
H2496 H 0.18449 0.58441 0.00704 0.0
H2497 H 0.21019 0.57071 0.99634 0.0
H2498 H 0.20139 0.58805 0.95441 0.0
H2499 H 0.17121 0.5746 0.92325 0.0
H2500 H 0.07328 0.57782 0.80757 0.0
H2501 H 0.08066 0.54729 0.76952 0.0
H2502 H 0.13622 0.51759 0.81229 0.0
H2503 H 0.1265 0.54493 0.8517 0.0
H2504 H 0.148 0.55556 0.71583 0.0
H2505 H 0.1058 0.45058 0.7749 0.0
H2506 H 0.0934 0.48127 0.78634 0.0
H2507 H 0.11963 0.47203 0.80013 0.0
C2508 C 0.0872 0.56488 0.80867 0.0
C2509 C 0.10057 0.56528 0.83181 0.0
C2510 C 0.0916 0.54762 0.78677 0.0
C2511 C 0.11086 0.53254 0.7866 0.0
C2512 C 0.12214 0.53026 0.81104 0.0
H2513 H 0.17642 0.39358 0.69927 0.0
H2514 H 0.16895 0.4327 0.72713 0.0
C2515 C 0.11684 0.54621 0.83353 0.0
C2516 C 0.12066 0.51969 0.76119 0.0
H2517 H 0.13398 0.44654 0.74046 0.0
C2518 C 0.14357 0.5358 0.72197 0.0
C2519 C 0.12121 0.48586 0.7613 0.0
C2520 C 0.10918 0.47155 0.78177 0.0
C2521 C 0.15463 0.50993 0.70452 0.0
C2522 C 0.15024 0.47808 0.71275 0.0
C2523 C 0.13522 0.46767 0.73857 0.0
C2524 C 0.15839 0.45609 0.69498 0.0
C2525 C 0.16983 0.51647 0.68292 0.0
C2526 C 0.15592 0.45606 0.66724 0.0
C2527 C 0.16009 0.43343 0.65106 0.0
C2528 C 0.16715 0.41044 0.66231 0.0
C2529 C 0.17051 0.41079 0.68991 0.0
C2530 C 0.16628 0.43331 0.70597 0.0
H2531 H 0.17826 0.53595 0.68778 0.0
H2532 H 0.18241 0.50115 0.67994 0.0
H2533 H 0.15999 0.51802 0.66432 0.0
H2534 H 0.15014 0.47314 0.65783 0.0
H2535 H 0.15776 0.43394 0.62984 0.0
H2536 H 0.25011 0.38498 0.60174 0.0
H2537 H 0.28003 0.39059 0.57135 0.0
H2538 H 0.24459 0.33984 0.51227 0.0
H2539 H 0.21552 0.33217 0.54386 0.0
H2540 H 0.28151 0.33287 0.50239 0.0
H2541 H 0.28288 0.44099 0.51846 0.0
H2542 H 0.28986 0.42775 0.54935 0.0
H2543 H 0.26282 0.42067 0.53382 0.0
C2544 C 0.24856 0.37515 0.58216 0.0
C2545 C 0.22981 0.35913 0.57464 0.0
C2546 C 0.26563 0.37871 0.56454 0.0
C2547 C 0.26402 0.36731 0.5385 0.0
C2548 C 0.24589 0.35001 0.53163 0.0
H2549 H 0.34428 0.44063 0.42332 0.0
H2550 H 0.31782 0.42806 0.45507 0.0
C2551 C 0.22907 0.34585 0.54954 0.0
C2552 C 0.28117 0.37324 0.51864 0.0
H2553 H 0.31494 0.42266 0.4988 0.0
C2554 C 0.28838 0.35272 0.5012 0.0
C2555 C 0.29004 0.39913 0.51618 0.0
C2556 C 0.28074 0.42335 0.53023 0.0
C2557 C 0.30391 0.35736 0.48166 0.0
C2558 C 0.31438 0.38274 0.48107 0.0
C2559 C 0.30736 0.40304 0.49887 0.0
C2560 C 0.33131 0.38961 0.4612 0.0
C2561 C 0.30792 0.33516 0.46127 0.0
C2562 C 0.34871 0.37285 0.45408 0.0
C2563 C 0.36427 0.38024 0.43556 0.0
C2564 C 0.36302 0.4048 0.42415 0.0
C2565 C 0.34571 0.42141 0.43134 0.0
C2566 C 0.33049 0.41418 0.44986 0.0
H2567 H 0.29342 0.32119 0.45888 0.0
H2568 H 0.3113 0.34274 0.44166 0.0
H2569 H 0.32224 0.32377 0.46788 0.0
H2570 H 0.35087 0.35448 0.46346 0.0
H2571 H 0.37786 0.36733 0.43125 0.0
H2572 H 0.34509 0.45518 0.3206 0.0
H2573 H 0.3499 0.484 0.28383 0.0
H2574 H 0.36223 0.41609 0.23151 0.0
H2575 H 0.35664 0.38718 0.26791 0.0
H2576 H 0.39681 0.45046 0.22001 0.0
H2577 H 0.30972 0.51013 0.22678 0.0
H2578 H 0.32401 0.51177 0.25845 0.0
H2579 H 0.31449 0.48002 0.24376 0.0
C2580 C 0.34881 0.4464 0.30127 0.0
C2581 C 0.35049 0.41884 0.29728 0.0
C2582 C 0.35115 0.46285 0.28005 0.0
C2583 C 0.35574 0.45221 0.2545 0.0
C2584 C 0.35825 0.42482 0.25078 0.0
H2585 H 0.359 0.57164 0.11878 0.0
H2586 H 0.3498 0.53931 0.15119 0.0
C2587 C 0.35523 0.40831 0.27174 0.0
C2588 C 0.36027 0.46985 0.23258 0.0
H2589 H 0.33899 0.53434 0.19685 0.0
C2590 C 0.38619 0.46669 0.21603 0.0
C2591 C 0.34308 0.49707 0.22647 0.0
C2592 C 0.32142 0.49975 0.23952 0.0
C2593 C 0.39506 0.4912 0.19466 0.0
C2594 C 0.37758 0.51829 0.18758 0.0
C2595 C 0.35113 0.5208 0.20344 0.0
C2596 C 0.3834 0.53651 0.16654 0.0
C2597 C 0.41616 0.48677 0.18069 0.0
C2598 C 0.40534 0.54577 0.1639 0.0
C2599 C 0.41044 0.56492 0.14605 0.0
C2600 C 0.39384 0.57477 0.12979 0.0
C2601 C 0.37206 0.56472 0.13143 0.0
C2602 C 0.36683 0.54615 0.14995 0.0
H2603 H 0.42074 0.46576 0.18122 0.0
H2604 H 0.41445 0.49214 0.15987 0.0
H2605 H 0.42958 0.49916 0.19091 0.0
H2606 H 0.41843 0.53975 0.17693 0.0
H2607 H 0.42743 0.57204 0.14497 0.0
H2608 H 0.34823 0.61746 0.05173 0.0
H2609 H 0.31697 0.62284 0.02101 0.0
H2610 H 0.35648 0.67675 0.97812 0.0
H2611 H 0.38831 0.67027 0.00826 0.0
H2612 H 0.31675 0.69657 0.9879 0.0
H2613 H 0.30402 0.59324 0.94799 0.0
H2614 H 0.30279 0.59585 0.98332 0.0
H2615 H 0.32826 0.60408 0.96767 0.0
C2616 C 0.35012 0.63065 0.03586 0.0
C2617 C 0.37041 0.64389 0.03254 0.0
C2618 C 0.3323 0.6336 0.01825 0.0
C2619 C 0.33421 0.65028 0.9973 0.0
C2620 C 0.35454 0.66378 0.99415 0.0
H2621 H 0.23524 0.70811 0.8864 0.0
H2622 H 0.26947 0.69973 0.91029 0.0
C2623 C 0.37263 0.66026 0.0114 0.0
C2624 C 0.31469 0.65448 0.97957 0.0
H2625 H 0.27439 0.62223 0.94034 0.0
C2626 C 0.30756 0.68035 0.97729 0.0
C2627 C 0.30264 0.63332 0.96578 0.0
C2628 C 0.30996 0.60511 0.96609 0.0
C2629 C 0.28848 0.68572 0.96229 0.0
C2630 C 0.27609 0.66448 0.94876 0.0
C2631 C 0.28348 0.63858 0.95085 0.0
C2632 C 0.25549 0.66845 0.93249 0.0
C2633 C 0.28186 0.71422 0.96199 0.0
C2634 C 0.23638 0.65235 0.93506 0.0
C2635 C 0.21684 0.65655 0.92047 0.0
C2636 C 0.21612 0.67671 0.90279 0.0
C2637 C 0.2353 0.69228 0.89966 0.0
C2638 C 0.25485 0.68784 0.91387 0.0
H2639 H 0.29044 0.72363 0.94577 0.0
H2640 H 0.26381 0.71629 0.95897 0.0
H2641 H 0.28703 0.72547 0.98076 0.0
H2642 H 0.2365 0.63659 0.94852 0.0
H2643 H 0.20238 0.64393 0.92276 0.0
H2644 H 0.10829 0.48085 0.62973 0.0
H2645 H 0.11545 0.51286 0.66728 0.0
H2646 H 0.09614 0.45371 0.72041 0.0
H2647 H 0.09206 0.42078 0.68307 0.0
H2648 H 0.08982 0.53573 0.70945 0.0
H2649 H 0.18481 0.50294 0.77388 0.0
H2650 H 0.18484 0.48826 0.74128 0.0
H2651 H 0.16933 0.47317 0.76668 0.0
C2652 C 0.10612 0.47448 0.64952 0.0
C2653 C 0.10122 0.44773 0.65349 0.0
C2654 C 0.10997 0.49297 0.67109 0.0
C2655 C 0.10856 0.48545 0.69728 0.0
C2656 C 0.09989 0.45973 0.7009 0.0
H2657 H 0.15472 0.60577 0.84382 0.0
H2658 H 0.15275 0.56775 0.81286 0.0
C2659 C 0.09731 0.44079 0.67941 0.0
C2660 C 0.11806 0.5048 0.71997 0.0
H2661 H 0.17056 0.54494 0.7794 0.0
C2662 C 0.10463 0.5341 0.72165 0.0
C2663 C 0.15407 0.50903 0.75119 0.0
C2664 C 0.17412 0.49218 0.75842 0.0
C2665 C 0.11431 0.56109 0.74061 0.0
C2666 C 0.13781 0.56398 0.76105 0.0
C2667 C 0.15641 0.54016 0.76628 0.0
C2668 C 0.14173 0.58859 0.77887 0.0
C2669 C 0.09982 0.58456 0.73878 0.0
C2670 C 0.13905 0.61414 0.77014 0.0
C2671 C 0.14103 0.63644 0.78802 0.0
C2672 C 0.14593 0.6337 0.81501 0.0
C2673 C 0.14974 0.60846 0.82348 0.0
C2674 C 0.14842 0.58646 0.8055 0.0
H2675 H 0.10692 0.59808 0.72465 0.0
H2676 H 0.08294 0.5784 0.73121 0.0
H2677 H 0.09836 0.59532 0.75832 0.0
H2678 H 0.13589 0.61708 0.74947 0.0
H2679 H 0.13905 0.65587 0.78067 0.0
H2680 H 0.13303 0.37379 0.53059 0.0
H2681 H 0.16035 0.36587 0.4963 0.0
H2682 H 0.20847 0.41439 0.54286 0.0
H2683 H 0.18086 0.42331 0.57643 0.0
H2684 H 0.20476 0.42989 0.49288 0.0
H2685 H 0.21247 0.32117 0.48691 0.0
H2686 H 0.18673 0.33197 0.47382 0.0
H2687 H 0.193 0.33718 0.50846 0.0
C2688 C 0.14968 0.38195 0.53399 0.0
C2689 C 0.1548 0.39887 0.55656 0.0
C2690 C 0.16535 0.37754 0.51419 0.0
C2691 C 0.18676 0.38934 0.51679 0.0
C2692 C 0.19219 0.40499 0.54012 0.0
H2693 H 0.29884 0.42312 0.41381 0.0
H2694 H 0.27185 0.4238 0.44871 0.0
C2695 C 0.17643 0.40985 0.55955 0.0
C2696 C 0.20296 0.38766 0.49464 0.0
H2697 H 0.23428 0.34521 0.45775 0.0
C2698 C 0.21122 0.41132 0.48507 0.0
C2699 C 0.21041 0.36356 0.48286 0.0
C2700 C 0.20024 0.33709 0.48867 0.0
C2701 C 0.2266 0.41166 0.46461 0.0
C2702 C 0.23645 0.38771 0.45522 0.0
C2703 C 0.2277 0.36396 0.46461 0.0
C2704 C 0.25511 0.38654 0.43547 0.0
C2705 C 0.23051 0.43771 0.45236 0.0
C2706 C 0.2572 0.36433 0.41748 0.0
C2707 C 0.27488 0.36255 0.40005 0.0
C2708 C 0.29043 0.38344 0.39869 0.0
C2709 C 0.28786 0.40613 0.41536 0.0
C2710 C 0.27145 0.40699 0.43457 0.0
H2711 H 0.2155 0.44986 0.45336 0.0
H2712 H 0.24389 0.44922 0.46369 0.0
H2713 H 0.23483 0.43495 0.43126 0.0
H2714 H 0.24521 0.34806 0.41665 0.0
H2715 H 0.27626 0.34474 0.38753 0.0
H2716 H 0.45723 0.32514 0.39735 0.0
H2717 H 0.48865 0.29605 0.39778 0.0
H2718 H 0.5276 0.35351 0.3584 0.0
H2719 H 0.49566 0.38198 0.3566 0.0
H2720 H 0.5359 0.30942 0.33734 0.0
H2721 H 0.54108 0.29543 0.44414 0.0
H2722 H 0.51426 0.2846 0.43128 0.0
H2723 H 0.52284 0.31895 0.43049 0.0
C2724 C 0.47232 0.33135 0.38829 0.0
C2725 C 0.47369 0.35563 0.37637 0.0
C2726 C 0.49058 0.31496 0.38917 0.0
C2727 C 0.51088 0.32261 0.37864 0.0
C2728 C 0.51225 0.34697 0.36675 0.0
H2729 H 0.63328 0.23198 0.39169 0.0
H2730 H 0.60421 0.26391 0.40117 0.0
C2731 C 0.49391 0.36327 0.36567 0.0
C2732 C 0.5302 0.30466 0.37858 0.0
H2733 H 0.55936 0.2628 0.41616 0.0
C2734 C 0.54117 0.29965 0.35478 0.0
C2735 C 0.53762 0.292 0.40131 0.0
C2736 C 0.52847 0.2983 0.42828 0.0
C2737 C 0.55812 0.28128 0.35263 0.0
C2738 C 0.56419 0.26704 0.37476 0.0
C2739 C 0.55432 0.27318 0.39901 0.0
C2740 C 0.58043 0.24543 0.37263 0.0
C2741 C 0.56901 0.27686 0.32636 0.0
C2742 C 0.57625 0.22353 0.3547 0.0
C2743 C 0.59267 0.20524 0.34944 0.0
C2744 C 0.6137 0.20833 0.36203 0.0
C2745 C 0.61723 0.2289 0.38178 0.0
C2746 C 0.60069 0.24732 0.38704 0.0
H2747 H 0.56723 0.29414 0.31409 0.0
H2748 H 0.58689 0.27301 0.32908 0.0
H2749 H 0.56096 0.25944 0.31529 0.0
H2750 H 0.56056 0.22121 0.34384 0.0
H2751 H 0.58933 0.18947 0.33431 0.0
loop_
_geom_bond_atom_site_label_1
_geom_bond_atom_site_label_2
_geom_bond_distance
_geom_bond_site_symmetry_2
_ccdc_geom_bond_type
Co0 O1 2.216 . S
Co0 O2 2.091 . S
Co0 O4 2.004 . S
Co0 O10 2.021 . S
Co0 O12 2.137 . S
Co0 O13 2.244 . S
O1 Co0 2.216 . S
O1 C8 1.247 . S
O2 Co0 2.091 . S
O2 C8 1.261 . S
C3 O12 1.247 . S
C3 O13 1.272 . S
O4 Co0 2.004 . S
O4 C9 1.259 . S
Co5 O6 2.061 . S
Co5 O11 2.052 . S
Co5 O13 2.135 . S
O6 Co5 2.061 . S
O6 C9 1.235 . S
C7 O10 1.238 . S
C7 O11 1.241 . S
C8 O1 1.247 . S
C8 O2 1.261 . S
C9 O4 1.259 . S
C9 O6 1.235 . S
O10 Co0 2.021 . S
O10 C7 1.238 . S
O11 Co5 2.052 . S
O11 C7 1.241 . S
O12 Co0 2.137 . S
O12 C3 1.247 . S
O13 Co0 2.244 . S
O13 C3 1.272 . S
O13 Co5 2.135 . S
Co14 O15 2.216 . S
Co14 O16 2.091 . S
Co14 O18 2.004 . S
Co14 O24 2.021 . S
Co14 O26 2.137 . S
Co14 O27 2.244 . S
O15 Co14 2.216 . S
O15 C22 1.247 . S
O16 Co14 2.091 . S
O16 C22 1.261 . S
C17 O26 1.247 . S
C17 O27 1.272 . S
O18 Co14 2.004 . S
O18 C23 1.259 . S
Co19 O20 2.061 . S
Co19 O25 2.052 . S
Co19 O27 2.135 . S
O20 Co19 2.061 . S
O20 C23 1.235 . S
C21 O24 1.238 . S
C21 O25 1.241 . S
C22 O15 1.247 . S
C22 O16 1.261 . S
C23 O18 1.259 . S
C23 O20 1.235 . S
O24 Co14 2.021 . S
O24 C21 1.238 . S
O25 Co19 2.052 . S
O25 C21 1.241 . S
O26 Co14 2.137 . S
O26 C17 1.247 . S
O27 Co14 2.244 . S
O27 C17 1.272 . S
O27 Co19 2.135 . S
Co28 O29 2.216 . S
Co28 O30 2.091 . S
Co28 O32 2.004 . S
Co28 O38 2.021 . S
Co28 O40 2.137 . S
Co28 O41 2.244 . S
O29 Co28 2.216 . S
O29 C36 1.247 . S
O30 Co28 2.091 . S
O30 C36 1.261 . S
C31 O40 1.247 . S
C31 O41 1.272 . S
O32 Co28 2.004 . S
O32 C37 1.259 . S
Co33 O34 2.061 . S
Co33 O39 2.052 . S
Co33 O41 2.135 . S
O34 Co33 2.061 . S
O34 C37 1.235 . S
C35 O38 1.238 . S
C35 O39 1.241 . S
C36 O29 1.247 . S
C36 O30 1.261 . S
C37 O32 1.259 . S
C37 O34 1.235 . S
O38 Co28 2.021 . S
O38 C35 1.238 . S
O39 Co33 2.052 . S
O39 C35 1.241 . S
O40 Co28 2.137 . S
O40 C31 1.247 . S
O41 Co28 2.244 . S
O41 C31 1.272 . S
O41 Co33 2.135 . S
Co42 O43 2.216 . S
Co42 O44 2.091 . S
Co42 O46 2.004 . S
Co42 O52 2.021 . S
Co42 O54 2.137 . S
Co42 O55 2.244 . S
O43 Co42 2.216 . S
O43 C50 1.247 . S
O44 Co42 2.091 . S
O44 C50 1.261 . S
C45 O54 1.247 . S
C45 O55 1.272 . S
O46 Co42 2.004 . S
O46 C51 1.259 . S
Co47 O48 2.061 . S
Co47 O53 2.052 . S
Co47 O55 2.135 . S
O48 Co47 2.061 . S
O48 C51 1.235 . S
C49 O52 1.238 . S
C49 O53 1.241 . S
C50 O43 1.247 . S
C50 O44 1.261 . S
C51 O46 1.259 . S
C51 O48 1.235 . S
O52 Co42 2.021 . S
O52 C49 1.238 . S
O53 Co47 2.052 . S
O53 C49 1.241 . S
O54 Co42 2.137 . S
O54 C45 1.247 . S
O55 Co42 2.244 . S
O55 C45 1.272 . S
O55 Co47 2.135 . S
Co56 O57 2.216 . S
Co56 O58 2.091 . S
Co56 O60 2.004 . S
Co56 O66 2.021 . S
Co56 O68 2.137 . S
Co56 O69 2.244 . S
O57 Co56 2.216 . S
O57 C64 1.247 . S
O58 Co56 2.091 . S
O58 C64 1.261 . S
C59 O68 1.247 . S
C59 O69 1.272 . S
O60 Co56 2.004 . S
O60 C65 1.259 . S
Co61 O62 2.061 . S
Co61 O67 2.052 . S
Co61 O69 2.135 . S
O62 Co61 2.061 . S
O62 C65 1.235 . S
C63 O66 1.238 . S
C63 O67 1.241 . S
C64 O57 1.247 . S
C64 O58 1.261 . S
C65 O60 1.259 . S
C65 O62 1.235 . S
O66 Co56 2.021 . S
O66 C63 1.238 . S
O67 Co61 2.052 . S
O67 C63 1.241 . S
O68 Co56 2.137 . S
O68 C59 1.247 . S
O69 Co56 2.244 . S
O69 C59 1.272 . S
O69 Co61 2.135 . S
Co70 O71 2.216 . S
Co70 O72 2.091 . S
Co70 O74 2.004 . S
Co70 O80 2.021 . S
Co70 O82 2.137 . S
Co70 O83 2.244 . S
O71 Co70 2.216 . S
O71 C78 1.247 . S
O72 Co70 2.091 . S
O72 C78 1.261 . S
C73 O82 1.247 . S
C73 O83 1.272 . S
O74 Co70 2.004 . S
O74 C79 1.259 . S
Co75 O76 2.061 . S
Co75 O81 2.052 . S
Co75 O83 2.135 . S
O76 Co75 2.061 . S
O76 C79 1.235 . S
C77 O80 1.238 . S
C77 O81 1.241 . S
C78 O71 1.247 . S
C78 O72 1.261 . S
C79 O74 1.259 . S
C79 O76 1.235 . S
O80 Co70 2.021 . S
O80 C77 1.238 . S
O81 Co75 2.052 . S
O81 C77 1.241 . S
O82 Co70 2.137 . S
O82 C73 1.247 . S
O83 Co70 2.244 . S
O83 C73 1.272 . S
O83 Co75 2.135 . S
Co84 O85 2.216 . S
Co84 O86 2.091 . S
Co84 O88 2.004 . S
Co84 O94 2.021 . S
Co84 O96 2.137 . S
Co84 O97 2.244 . S
O85 Co84 2.216 . S
O85 C92 1.247 . S
O86 Co84 2.091 . S
O86 C92 1.261 . S
C87 O96 1.247 . S
C87 O97 1.272 . S
O88 Co84 2.004 . S
O88 C93 1.259 . S
Co89 O90 2.061 . S
Co89 O95 2.052 . S
Co89 O97 2.135 . S
O90 Co89 2.061 . S
O90 C93 1.235 . S
C91 O94 1.238 . S
C91 O95 1.241 . S
C92 O85 1.247 . S
C92 O86 1.261 . S
C93 O88 1.259 . S
C93 O90 1.235 . S
O94 Co84 2.021 . S
O94 C91 1.238 . S
O95 Co89 2.052 . S
O95 C91 1.241 . S
O96 Co84 2.137 . S
O96 C87 1.247 . S
O97 Co84 2.244 . S
O97 C87 1.272 . S
O97 Co89 2.135 . S
Co98 O99 2.216 . S
Co98 O100 2.091 . S
Co98 O102 2.004 . S
Co98 O108 2.021 . S
Co98 O110 2.137 . S
Co98 O111 2.244 . S
O99 Co98 2.216 . S
O99 C106 1.247 . S
O100 Co98 2.091 . S
O100 C106 1.261 . S
C101 O110 1.247 . S
C101 O111 1.272 . S
O102 Co98 2.004 . S
O102 C107 1.259 . S
Co103 O104 2.061 . S
Co103 O109 2.052 . S
Co103 O111 2.135 . S
O104 Co103 2.061 . S
O104 C107 1.235 . S
C105 O108 1.238 . S
C105 O109 1.241 . S
C106 O99 1.247 . S
C106 O100 1.261 . S
C107 O102 1.259 . S
C107 O104 1.235 . S
O108 Co98 2.021 . S
O108 C105 1.238 . S
O109 Co103 2.052 . S
O109 C105 1.241 . S
O110 Co98 2.137 . S
O110 C101 1.247 . S
O111 Co98 2.244 . S
O111 C101 1.272 . S
O111 Co103 2.135 . S
Co112 O113 2.216 . S
Co112 O114 2.091 . S
Co112 O116 2.004 . S
Co112 O122 2.021 . S
Co112 O124 2.137 . S
Co112 O125 2.244 . S
O113 Co112 2.216 . S
O113 C120 1.247 . S
O114 Co112 2.091 . S
O114 C120 1.261 . S
C115 O124 1.247 . S
C115 O125 1.272 . S
O116 Co112 2.004 . S
O116 C121 1.259 . S
Co117 O118 2.061 . S
Co117 O123 2.052 . S
Co117 O125 2.135 . S
O118 Co117 2.061 . S
O118 C121 1.235 . S
C119 O122 1.238 . S
C119 O123 1.241 . S
C120 O113 1.247 . S
C120 O114 1.261 . S
C121 O116 1.259 . S
C121 O118 1.235 . S
O122 Co112 2.021 . S
O122 C119 1.238 . S
O123 Co117 2.052 . S
O123 C119 1.241 . S
O124 Co112 2.137 . S
O124 C115 1.247 . S
O125 Co112 2.244 . S
O125 C115 1.272 . S
O125 Co117 2.135 . S
Co126 O127 2.216 . S
Co126 O128 2.091 . S
Co126 O130 2.004 . S
Co126 O136 2.021 . S
Co126 O138 2.137 . S
Co126 O139 2.244 . S
O127 Co126 2.216 . S
O127 C134 1.247 . S
O128 Co126 2.091 . S
O128 C134 1.261 . S
C129 O138 1.247 . S
C129 O139 1.272 . S
O130 Co126 2.004 . S
O130 C135 1.259 . S
Co131 O132 2.061 . S
Co131 O137 2.052 . S
Co131 O139 2.135 . S
O132 Co131 2.061 . S
O132 C135 1.235 . S
C133 O136 1.238 . S
C133 O137 1.241 . S
C134 O127 1.247 . S
C134 O128 1.261 . S
C135 O130 1.259 . S
C135 O132 1.235 . S
O136 Co126 2.021 . S
O136 C133 1.238 . S
O137 Co131 2.052 . S
O137 C133 1.241 . S
O138 Co126 2.137 . S
O138 C129 1.247 . S
O139 Co126 2.244 . S
O139 C129 1.272 . S
O139 Co131 2.135 . S
Co140 O141 2.216 . S
Co140 O142 2.091 . S
Co140 O144 2.004 . S
Co140 O150 2.021 . S
Co140 O152 2.137 . S
Co140 O153 2.244 . S
O141 Co140 2.216 . S
O141 C148 1.247 . S
O142 Co140 2.091 . S
O142 C148 1.261 . S
C143 O152 1.247 . S
C143 O153 1.272 . S
O144 Co140 2.004 . S
O144 C149 1.259 . S
Co145 O146 2.061 . S
Co145 O151 2.052 . S
Co145 O153 2.135 . S
O146 Co145 2.061 . S
O146 C149 1.235 . S
C147 O150 1.238 . S
C147 O151 1.241 . S
C148 O141 1.247 . S
C148 O142 1.261 . S
C149 O144 1.259 . S
C149 O146 1.235 . S
O150 Co140 2.021 . S
O150 C147 1.238 . S
O151 Co145 2.052 . S
O151 C147 1.241 . S
O152 Co140 2.137 . S
O152 C143 1.247 . S
O153 Co140 2.244 . S
O153 C143 1.272 . S
O153 Co145 2.135 . S
Co154 O155 2.216 . S
Co154 O156 2.091 . S
Co154 O158 2.004 . S
Co154 O164 2.021 . S
Co154 O166 2.137 . S
Co154 O167 2.244 . S
O155 Co154 2.216 . S
O155 C162 1.247 . S
O156 Co154 2.091 . S
O156 C162 1.261 . S
C157 O166 1.247 . S
C157 O167 1.272 . S
O158 Co154 2.004 . S
O158 C163 1.259 . S
Co159 O160 2.061 . S
Co159 O165 2.052 . S
Co159 O167 2.135 . S
O160 Co159 2.061 . S
O160 C163 1.235 . S
C161 O164 1.238 . S
C161 O165 1.241 . S
C162 O155 1.247 . S
C162 O156 1.261 . S
C163 O158 1.259 . S
C163 O160 1.235 . S
O164 Co154 2.021 . S
O164 C161 1.238 . S
O165 Co159 2.052 . S
O165 C161 1.241 . S
O166 Co154 2.137 . S
O166 C157 1.247 . S
O167 Co154 2.244 . S
O167 C157 1.272 . S
O167 Co159 2.135 . S
Co168 O169 2.216 . S
Co168 O170 2.091 . S
Co168 O172 2.004 . S
Co168 O178 2.021 . S
Co168 O180 2.137 . S
Co168 O181 2.244 . S
O169 Co168 2.216 . S
O169 C176 1.247 . S
O170 Co168 2.091 . S
O170 C176 1.261 . S
C171 O180 1.247 . S
C171 O181 1.272 . S
O172 Co168 2.004 . S
O172 C177 1.259 . S
Co173 O174 2.061 . S
Co173 O179 2.052 . S
Co173 O181 2.135 . S
O174 Co173 2.061 . S
O174 C177 1.235 . S
C175 O178 1.238 . S
C175 O179 1.241 . S
C176 O169 1.247 . S
C176 O170 1.261 . S
C177 O172 1.259 . S
C177 O174 1.235 . S
O178 Co168 2.021 . S
O178 C175 1.238 . S
O179 Co173 2.052 . S
O179 C175 1.241 . S
O180 Co168 2.137 . S
O180 C171 1.247 . S
O181 Co168 2.244 . S
O181 C171 1.272 . S
O181 Co173 2.135 . S
Co182 O183 2.216 . S
Co182 O184 2.091 . S
Co182 O186 2.004 . S
Co182 O192 2.021 . S
Co182 O194 2.137 . S
Co182 O195 2.244 . S
O183 Co182 2.216 . S
O183 C190 1.247 . S
O184 Co182 2.091 . S
O184 C190 1.261 . S
C185 O194 1.247 . S
C185 O195 1.272 . S
O186 Co182 2.004 . S
O186 C191 1.259 . S
Co187 O188 2.061 . S
Co187 O193 2.052 . S
Co187 O195 2.135 . S
O188 Co187 2.061 . S
O188 C191 1.235 . S
C189 O192 1.238 . S
C189 O193 1.241 . S
C190 O183 1.247 . S
C190 O184 1.261 . S
C191 O186 1.259 . S
C191 O188 1.235 . S
O192 Co182 2.021 . S
O192 C189 1.238 . S
O193 Co187 2.052 . S
O193 C189 1.241 . S
O194 Co182 2.137 . S
O194 C185 1.247 . S
O195 Co182 2.244 . S
O195 C185 1.272 . S
O195 Co187 2.135 . S
Co196 O197 2.216 . S
Co196 O198 2.091 . S
Co196 O200 2.004 . S
Co196 O206 2.021 . S
Co196 O208 2.137 . S
Co196 O209 2.244 . S
O197 Co196 2.216 . S
O197 C204 1.247 . S
O198 Co196 2.091 . S
O198 C204 1.261 . S
C199 O208 1.247 . S
C199 O209 1.272 . S
O200 Co196 2.004 . S
O200 C205 1.259 . S
Co201 O202 2.061 . S
Co201 O207 2.052 . S
Co201 O209 2.135 . S
O202 Co201 2.061 . S
O202 C205 1.235 . S
C203 O206 1.238 . S
C203 O207 1.241 . S
C204 O197 1.247 . S
C204 O198 1.261 . S
C205 O200 1.259 . S
C205 O202 1.235 . S
O206 Co196 2.021 . S
O206 C203 1.238 . S
O207 Co201 2.052 . S
O207 C203 1.241 . S
O208 Co196 2.137 . S
O208 C199 1.247 . S
O209 Co196 2.244 . S
O209 C199 1.272 . S
O209 Co201 2.135 . S
Co210 O211 2.216 . S
Co210 O212 2.091 . S
Co210 O214 2.004 . S
Co210 O220 2.021 . S
Co210 O222 2.137 . S
Co210 O223 2.244 . S
O211 Co210 2.216 . S
O211 C218 1.247 . S
O212 Co210 2.091 . S
O212 C218 1.261 . S
C213 O222 1.247 . S
C213 O223 1.272 . S
O214 Co210 2.004 . S
O214 C219 1.259 . S
Co215 O216 2.061 . S
Co215 O221 2.052 . S
Co215 O223 2.135 . S
O216 Co215 2.061 . S
O216 C219 1.235 . S
C217 O220 1.238 . S
C217 O221 1.241 . S
C218 O211 1.247 . S
C218 O212 1.261 . S
C219 O214 1.259 . S
C219 O216 1.235 . S
O220 Co210 2.021 . S
O220 C217 1.238 . S
O221 Co215 2.052 . S
O221 C217 1.241 . S
O222 Co210 2.137 . S
O222 C213 1.247 . S
O223 Co210 2.244 . S
O223 C213 1.272 . S
O223 Co215 2.135 . S
Co224 O225 2.216 . S
Co224 O226 2.091 . S
Co224 O228 2.004 . S
Co224 O234 2.021 . S
Co224 O236 2.137 . S
Co224 O237 2.244 . S
O225 Co224 2.216 . S
O225 C232 1.247 . S
O226 Co224 2.091 . S
O226 C232 1.261 . S
C227 O236 1.247 . S
C227 O237 1.272 . S
O228 Co224 2.004 . S
O228 C233 1.259 . S
Co229 O230 2.061 . S
Co229 O235 2.052 . S
Co229 O237 2.135 . S
O230 Co229 2.061 . S
O230 C233 1.235 . S
C231 O234 1.238 . S
C231 O235 1.241 . S
C232 O225 1.247 . S
C232 O226 1.261 . S
C233 O228 1.259 . S
C233 O230 1.235 . S
O234 Co224 2.021 . S
O234 C231 1.238 . S
O235 Co229 2.052 . S
O235 C231 1.241 . S
O236 Co224 2.137 . S
O236 C227 1.247 . S
O237 Co224 2.244 . S
O237 C227 1.272 . S
O237 Co229 2.135 . S
Co238 O239 2.216 . S
Co238 O240 2.091 . S
Co238 O242 2.004 . S
Co238 O248 2.021 . S
Co238 O250 2.137 . S
Co238 O251 2.244 . S
O239 Co238 2.216 . S
O239 C246 1.247 . S
O240 Co238 2.091 . S
O240 C246 1.261 . S
C241 O250 1.247 . S
C241 O251 1.272 . S
O242 Co238 2.004 . S
O242 C247 1.259 . S
Co243 O244 2.061 . S
Co243 O249 2.052 . S
Co243 O251 2.135 . S
O244 Co243 2.061 . S
O244 C247 1.235 . S
C245 O248 1.238 . S
C245 O249 1.241 . S
C246 O239 1.247 . S
C246 O240 1.261 . S
C247 O242 1.259 . S
C247 O244 1.235 . S
O248 Co238 2.021 . S
O248 C245 1.238 . S
O249 Co243 2.052 . S
O249 C245 1.241 . S
O250 Co238 2.137 . S
O250 C241 1.247 . S
O251 Co238 2.244 . S
O251 C241 1.272 . S
O251 Co243 2.135 . S
Co252 O253 2.216 . S
Co252 O254 2.091 . S
Co252 O256 2.004 . S
Co252 O262 2.021 . S
Co252 O264 2.137 . S
Co252 O265 2.244 . S
O253 Co252 2.216 . S
O253 C260 1.247 . S
O254 Co252 2.091 . S
O254 C260 1.261 . S
C255 O264 1.247 . S
C255 O265 1.272 . S
O256 Co252 2.004 . S
O256 C261 1.259 . S
Co257 O258 2.061 . S
Co257 O263 2.052 . S
Co257 O265 2.135 . S
O258 Co257 2.061 . S
O258 C261 1.235 . S
C259 O262 1.238 . S
C259 O263 1.241 . S
C260 O253 1.247 . S
C260 O254 1.261 . S
C261 O256 1.259 . S
C261 O258 1.235 . S
O262 Co252 2.021 . S
O262 C259 1.238 . S
O263 Co257 2.052 . S
O263 C259 1.241 . S
O264 Co252 2.137 . S
O264 C255 1.247 . S
O265 Co252 2.244 . S
O265 C255 1.272 . S
O265 Co257 2.135 . S
Co266 O267 2.216 . S
Co266 O268 2.091 . S
Co266 O270 2.004 . S
Co266 O276 2.021 . S
Co266 O278 2.137 . S
Co266 O279 2.244 . S
O267 Co266 2.216 . S
O267 C274 1.247 . S
O268 Co266 2.091 . S
O268 C274 1.261 . S
C269 O278 1.247 . S
C269 O279 1.272 . S
O270 Co266 2.004 . S
O270 C275 1.259 . S
Co271 O272 2.061 . S
Co271 O277 2.052 . S
Co271 O279 2.135 . S
O272 Co271 2.061 . S
O272 C275 1.235 . S
C273 O276 1.238 . S
C273 O277 1.241 . S
C274 O267 1.247 . S
C274 O268 1.261 . S
C275 O270 1.259 . S
C275 O272 1.235 . S
O276 Co266 2.021 . S
O276 C273 1.238 . S
O277 Co271 2.052 . S
O277 C273 1.241 . S
O278 Co266 2.137 . S
O278 C269 1.247 . S
O279 Co266 2.244 . S
O279 C269 1.272 . S
O279 Co271 2.135 . S
Co280 O281 2.216 . S
Co280 O282 2.091 . S
Co280 O284 2.004 . S
Co280 O290 2.021 . S
Co280 O292 2.137 . S
Co280 O293 2.244 . S
O281 Co280 2.216 . S
O281 C288 1.247 . S
O282 Co280 2.091 . S
O282 C288 1.261 . S
C283 O292 1.247 . S
C283 O293 1.272 . S
O284 Co280 2.004 . S
O284 C289 1.259 . S
Co285 O286 2.061 . S
Co285 O291 2.052 . S
Co285 O293 2.135 . S
O286 Co285 2.061 . S
O286 C289 1.235 . S
C287 O290 1.238 . S
C287 O291 1.241 . S
C288 O281 1.247 . S
C288 O282 1.261 . S
C289 O284 1.259 . S
C289 O286 1.235 . S
O290 Co280 2.021 . S
O290 C287 1.238 . S
O291 Co285 2.052 . S
O291 C287 1.241 . S
O292 Co280 2.137 . S
O292 C283 1.247 . S
O293 Co280 2.244 . S
O293 C283 1.272 . S
O293 Co285 2.135 . S
Co294 O295 2.216 . S
Co294 O296 2.091 . S
Co294 O298 2.004 . S
Co294 O304 2.021 . S
Co294 O306 2.137 . S
Co294 O307 2.244 . S
O295 Co294 2.216 . S
O295 C302 1.247 . S
O296 Co294 2.091 . S
O296 C302 1.261 . S
C297 O306 1.247 . S
C297 O307 1.272 . S
O298 Co294 2.004 . S
O298 C303 1.259 . S
Co299 O300 2.061 . S
Co299 O305 2.052 . S
Co299 O307 2.135 . S
O300 Co299 2.061 . S
O300 C303 1.235 . S
C301 O304 1.238 . S
C301 O305 1.241 . S
C302 O295 1.247 . S
C302 O296 1.261 . S
C303 O298 1.259 . S
C303 O300 1.235 . S
O304 Co294 2.021 . S
O304 C301 1.238 . S
O305 Co299 2.052 . S
O305 C301 1.241 . S
O306 Co294 2.137 . S
O306 C297 1.247 . S
O307 Co294 2.244 . S
O307 C297 1.272 . S
O307 Co299 2.135 . S
Co308 O309 2.216 . S
Co308 O310 2.091 . S
Co308 O312 2.004 . S
Co308 O318 2.021 . S
Co308 O320 2.137 . S
Co308 O321 2.244 . S
O309 Co308 2.216 . S
O309 C316 1.247 . S
O310 Co308 2.091 . S
O310 C316 1.261 . S
C311 O320 1.247 . S
C311 O321 1.272 . S
O312 Co308 2.004 . S
O312 C317 1.259 . S
Co313 O314 2.061 . S
Co313 O319 2.052 . S
Co313 O321 2.135 . S
O314 Co313 2.061 . S
O314 C317 1.235 . S
C315 O318 1.238 . S
C315 O319 1.241 . S
C316 O309 1.247 . S
C316 O310 1.261 . S
C317 O312 1.259 . S
C317 O314 1.235 . S
O318 Co308 2.021 . S
O318 C315 1.238 . S
O319 Co313 2.052 . S
O319 C315 1.241 . S
O320 Co308 2.137 . S
O320 C311 1.247 . S
O321 Co308 2.244 . S
O321 C311 1.272 . S
O321 Co313 2.135 . S
Co322 O323 2.216 . S
Co322 O324 2.091 . S
Co322 O326 2.004 . S
Co322 O332 2.021 . S
Co322 O334 2.137 . S
Co322 O335 2.244 . S
O323 Co322 2.216 . S
O323 C330 1.247 . S
O324 Co322 2.091 . S
O324 C330 1.261 . S
C325 O334 1.247 . S
C325 O335 1.272 . S
O326 Co322 2.004 . S
O326 C331 1.259 . S
Co327 O328 2.061 . S
Co327 O333 2.052 . S
Co327 O335 2.135 . S
O328 Co327 2.061 . S
O328 C331 1.235 . S
C329 O332 1.238 . S
C329 O333 1.241 . S
C330 O323 1.247 . S
C330 O324 1.261 . S
C331 O326 1.259 . S
C331 O328 1.235 . S
O332 Co322 2.021 . S
O332 C329 1.238 . S
O333 Co327 2.052 . S
O333 C329 1.241 . S
O334 Co322 2.137 . S
O334 C325 1.247 . S
O335 Co322 2.244 . S
O335 C325 1.272 . S
O335 Co327 2.135 . S
Co336 O337 2.216 . S
Co336 O338 2.091 . S
Co336 O340 2.004 . S
Co336 O346 2.021 . S
Co336 O348 2.137 . S
Co336 O349 2.244 . S
O337 Co336 2.216 . S
O337 C344 1.247 . S
O338 Co336 2.091 . S
O338 C344 1.261 . S
C339 O348 1.247 . S
C339 O349 1.272 . S
O340 Co336 2.004 . S
O340 C345 1.259 . S
Co341 O342 2.061 . S
Co341 O347 2.052 . S
Co341 O349 2.135 . S
O342 Co341 2.061 . S
O342 C345 1.235 . S
C343 O346 1.238 . S
C343 O347 1.241 . S
C344 O337 1.247 . S
C344 O338 1.261 . S
C345 O340 1.259 . S
C345 O342 1.235 . S
O346 Co336 2.021 . S
O346 C343 1.238 . S
O347 Co341 2.052 . S
O347 C343 1.241 . S
O348 Co336 2.137 . S
O348 C339 1.247 . S
O349 Co336 2.244 . S
O349 C339 1.272 . S
O349 Co341 2.135 . S
Co350 O351 2.216 . S
Co350 O352 2.091 . S
Co350 O354 2.004 . S
Co350 O360 2.021 . S
Co350 O362 2.137 . S
Co350 O363 2.244 . S
O351 Co350 2.216 . S
O351 C358 1.247 . S
O352 Co350 2.091 . S
O352 C358 1.261 . S
C353 O362 1.247 . S
C353 O363 1.272 . S
O354 Co350 2.004 . S
O354 C359 1.259 . S
Co355 O356 2.061 . S
Co355 O361 2.052 . S
Co355 O363 2.135 . S
O356 Co355 2.061 . S
O356 C359 1.235 . S
C357 O360 1.238 . S
C357 O361 1.241 . S
C358 O351 1.247 . S
C358 O352 1.261 . S
C359 O354 1.259 . S
C359 O356 1.235 . S
O360 Co350 2.021 . S
O360 C357 1.238 . S
O361 Co355 2.052 . S
O361 C357 1.241 . S
O362 Co350 2.137 . S
O362 C353 1.247 . S
O363 Co350 2.244 . S
O363 C353 1.272 . S
O363 Co355 2.135 . S
Co364 O365 2.216 . S
Co364 O366 2.091 . S
Co364 O368 2.004 . S
Co364 O374 2.021 . S
Co364 O376 2.137 . S
Co364 O377 2.244 . S
O365 Co364 2.216 . S
O365 C372 1.247 . S
O366 Co364 2.091 . S
O366 C372 1.261 . S
C367 O376 1.247 . S
C367 O377 1.272 . S
O368 Co364 2.004 . S
O368 C373 1.259 . S
Co369 O370 2.061 . S
Co369 O375 2.052 . S
Co369 O377 2.135 . S
O370 Co369 2.061 . S
O370 C373 1.235 . S
C371 O374 1.238 . S
C371 O375 1.241 . S
C372 O365 1.247 . S
C372 O366 1.261 . S
C373 O368 1.259 . S
C373 O370 1.235 . S
O374 Co364 2.021 . S
O374 C371 1.238 . S
O375 Co369 2.052 . S
O375 C371 1.241 . S
O376 Co364 2.137 . S
O376 C367 1.247 . S
O377 Co364 2.244 . S
O377 C367 1.272 . S
O377 Co369 2.135 . S
Co378 O379 2.216 . S
Co378 O380 2.091 . S
Co378 O382 2.004 . S
Co378 O388 2.021 . S
Co378 O390 2.137 . S
Co378 O391 2.244 . S
O379 Co378 2.216 . S
O379 C386 1.247 . S
O380 Co378 2.091 . S
O380 C386 1.261 . S
C381 O390 1.247 . S
C381 O391 1.272 . S
O382 Co378 2.004 . S
O382 C387 1.259 . S
Co383 O384 2.061 . S
Co383 O389 2.052 . S
Co383 O391 2.135 . S
O384 Co383 2.061 . S
O384 C387 1.235 . S
C385 O388 1.238 . S
C385 O389 1.241 . S
C386 O379 1.247 . S
C386 O380 1.261 . S
C387 O382 1.259 . S
C387 O384 1.235 . S
O388 Co378 2.021 . S
O388 C385 1.238 . S
O389 Co383 2.052 . S
O389 C385 1.241 . S
O390 Co378 2.137 . S
O390 C381 1.247 . S
O391 Co378 2.244 . S
O391 C381 1.272 . S
O391 Co383 2.135 . S
Co392 O393 2.216 . S
Co392 O394 2.091 . S
Co392 O396 2.004 . S
Co392 O402 2.021 . S
Co392 O404 2.137 . S
Co392 O405 2.244 . S
O393 Co392 2.216 . S
O393 C400 1.247 . S
O394 Co392 2.091 . S
O394 C400 1.261 . S
C395 O404 1.247 . S
C395 O405 1.272 . S
O396 Co392 2.004 . S
O396 C401 1.259 . S
Co397 O398 2.061 . S
Co397 O403 2.052 . S
Co397 O405 2.135 . S
O398 Co397 2.061 . S
O398 C401 1.235 . S
C399 O402 1.238 . S
C399 O403 1.241 . S
C400 O393 1.247 . S
C400 O394 1.261 . S
C401 O396 1.259 . S
C401 O398 1.235 . S
O402 Co392 2.021 . S
O402 C399 1.238 . S
O403 Co397 2.052 . S
O403 C399 1.241 . S
O404 Co392 2.137 . S
O404 C395 1.247 . S
O405 Co392 2.244 . S
O405 C395 1.272 . S
O405 Co397 2.135 . S
Co406 O407 2.216 . S
Co406 O408 2.091 . S
Co406 O410 2.004 . S
Co406 O416 2.021 . S
Co406 O418 2.137 . S
Co406 O419 2.244 . S
O407 Co406 2.216 . S
O407 C414 1.247 . S
O408 Co406 2.091 . S
O408 C414 1.261 . S
C409 O418 1.247 . S
C409 O419 1.272 . S
O410 Co406 2.004 . S
O410 C415 1.259 . S
Co411 O412 2.061 . S
Co411 O417 2.052 . S
Co411 O419 2.135 . S
O412 Co411 2.061 . S
O412 C415 1.235 . S
C413 O416 1.238 . S
C413 O417 1.241 . S
C414 O407 1.247 . S
C414 O408 1.261 . S
C415 O410 1.259 . S
C415 O412 1.235 . S
O416 Co406 2.021 . S
O416 C413 1.238 . S
O417 Co411 2.052 . S
O417 C413 1.241 . S
O418 Co406 2.137 . S
O418 C409 1.247 . S
O419 Co406 2.244 . S
O419 C409 1.272 . S
O419 Co411 2.135 . S
Co420 O421 2.216 . S
Co420 O422 2.091 . S
Co420 O424 2.004 . S
Co420 O430 2.021 . S
Co420 O432 2.137 . S
Co420 O433 2.244 . S
O421 Co420 2.216 . S
O421 C428 1.247 . S
O422 Co420 2.091 . S
O422 C428 1.261 . S
C423 O432 1.247 . S
C423 O433 1.272 . S
O424 Co420 2.004 . S
O424 C429 1.259 . S
Co425 O426 2.061 . S
Co425 O431 2.052 . S
Co425 O433 2.135 . S
O426 Co425 2.061 . S
O426 C429 1.235 . S
C427 O430 1.238 . S
C427 O431 1.241 . S
C428 O421 1.247 . S
C428 O422 1.261 . S
C429 O424 1.259 . S
C429 O426 1.235 . S
O430 Co420 2.021 . S
O430 C427 1.238 . S
O431 Co425 2.052 . S
O431 C427 1.241 . S
O432 Co420 2.137 . S
O432 C423 1.247 . S
O433 Co420 2.244 . S
O433 C423 1.272 . S
O433 Co425 2.135 . S
Co434 O435 2.216 . S
Co434 O436 2.091 . S
Co434 O438 2.004 . S
Co434 O444 2.021 . S
Co434 O446 2.137 . S
Co434 O447 2.244 . S
O435 Co434 2.216 . S
O435 C442 1.247 . S
O436 Co434 2.091 . S
O436 C442 1.261 . S
C437 O446 1.247 . S
C437 O447 1.272 . S
O438 Co434 2.004 . S
O438 C443 1.259 . S
Co439 O440 2.061 . S
Co439 O445 2.052 . S
Co439 O447 2.135 . S
O440 Co439 2.061 . S
O440 C443 1.235 . S
C441 O444 1.238 . S
C441 O445 1.241 . S
C442 O435 1.247 . S
C442 O436 1.261 . S
C443 O438 1.259 . S
C443 O440 1.235 . S
O444 Co434 2.021 . S
O444 C441 1.238 . S
O445 Co439 2.052 . S
O445 C441 1.241 . S
O446 Co434 2.137 . S
O446 C437 1.247 . S
O447 Co434 2.244 . S
O447 C437 1.272 . S
O447 Co439 2.135 . S
H448 C456 0.929 . S
H449 C458 0.930 . S
H450 C460 0.915 1_565 S
H451 C463 0.929 . S
H452 C466 0.930 . S
H453 C468 0.955 1_655 S
H454 C468 0.960 . S
H455 C468 0.960 . S
C456 H448 0.929 . S
C456 C457 1.377 . S
C456 C458 1.384 . S
C457 C456 1.377 . S
C457 C463 1.390 . S
C458 H449 0.930 . S
C458 C456 1.384 . S
C458 C459 1.372 . S
C459 C458 1.372 . S
C459 C460 1.400 . S
C459 C464 1.490 . S
C460 H450 0.915 1_545 S
C460 C459 1.400 . S
C460 C463 1.386 . S
H461 C477 0.930 . S
H462 C478 0.931 . S
C463 H451 0.929 . S
C463 C457 1.390 . S
C463 C460 1.386 . S
C464 C459 1.490 . S
C464 C466 1.395 1_554 S
C464 C467 1.403 1_545 S
H465 C471 0.931 1_554 S
C466 H452 0.930 . S
C466 C464 1.395 1_556 S
C466 C469 1.403 1_455 S
C467 C464 1.403 1_565 S
C467 C468 1.524 . S
C467 C471 1.401 1_454 S
C468 H453 0.955 1_455 S
C468 H454 0.960 . S
C468 H455 0.960 . S
C468 C467 1.524 . S
C469 C466 1.403 1_655 S
C469 C470 1.392 1_545 S
C469 C473 1.495 . S
C470 C469 1.392 1_565 S
C470 C471 1.384 . S
C470 C472 1.478 . S
C471 H465 0.931 1_556 S
C471 C467 1.401 1_656 S
C471 C470 1.384 . S
C472 C470 1.478 . S
C472 C474 1.381 . S
C472 C478 1.383 . S
C473 C469 1.495 . S
C473 H479 0.934 1_655 S
C473 H480 0.961 . S
C473 H481 0.960 . S
C474 C472 1.381 . S
C474 C475 1.394 . S
C474 H482 0.930 . S
C475 C474 1.394 . S
C475 C476 1.383 . S
C475 H483 0.929 . S
C476 C475 1.383 . S
C476 C477 1.377 . S
C477 H461 0.930 . S
C477 C476 1.377 . S
C477 C478 1.379 . S
C478 H462 0.931 . S
C478 C472 1.383 . S
C478 C477 1.379 . S
H479 C473 0.934 1_455 S
H480 C473 0.961 . S
H481 C473 0.960 . S
H482 C474 0.930 . S
H483 C475 0.929 . S
H484 C492 0.929 . S
H485 C494 0.930 . S
H486 C496 0.930 . S
H487 C499 0.929 . S
H488 C502 0.930 . S
H489 C504 0.960 . S
H490 C504 0.960 . S
H491 C504 0.960 . S
C492 H484 0.929 . S
C492 C493 1.377 . S
C492 C494 1.384 . S
C493 C492 1.377 . S
C493 C499 1.390 . S
C494 H485 0.930 . S
C494 C492 1.384 . S
C494 C495 1.372 . S
C495 C494 1.372 . S
C495 C496 1.400 . S
C495 C500 1.490 . S
C496 H486 0.930 . S
C496 C495 1.400 . S
C496 C499 1.386 . S
H497 C513 0.930 . S
H498 C514 0.931 . S
C499 H487 0.929 . S
C499 C493 1.390 . S
C499 C496 1.386 . S
C500 C495 1.490 . S
C500 C502 1.395 . S
C500 C503 1.403 . S
H501 C507 0.930 . S
C502 H488 0.930 . S
C502 C500 1.395 . S
C502 C505 1.403 . S
C503 C500 1.403 . S
C503 C504 1.524 . S
C503 C507 1.400 . S
C504 H489 0.960 . S
C504 H490 0.960 . S
C504 H491 0.960 . S
C504 C503 1.524 . S
C505 C502 1.403 . S
C505 C506 1.392 . S
C505 C509 1.495 . S
C506 C505 1.392 . S
C506 C507 1.385 . S
C506 C508 1.478 . S
C507 H501 0.930 . S
C507 C503 1.400 . S
C507 C506 1.385 . S
C508 C506 1.478 . S
C508 C510 1.381 . S
C508 C514 1.383 . S
C509 C505 1.495 . S
C509 H515 0.959 . S
C509 H516 0.961 . S
C509 H517 0.960 . S
C510 C508 1.381 . S
C510 C511 1.394 . S
C510 H518 0.930 . S
C511 C510 1.394 . S
C511 C512 1.383 . S
C511 H519 0.929 . S
C512 C511 1.383 . S
C512 C513 1.377 . S
C513 H497 0.930 . S
C513 C512 1.377 . S
C513 C514 1.379 . S
C514 H498 0.931 . S
C514 C508 1.383 . S
C514 C513 1.379 . S
H515 C509 0.959 . S
H516 C509 0.961 . S
H517 C509 0.960 . S
H518 C510 0.930 . S
H519 C511 0.929 . S
H520 C528 0.929 . S
H521 C530 0.930 . S
H522 C532 0.930 . S
H523 C535 0.929 . S
H524 C538 0.930 . S
H525 C540 0.960 . S
H526 C540 0.960 . S
H527 C540 0.960 . S
C528 H520 0.929 . S
C528 C529 1.377 . S
C528 C530 1.384 . S
C529 C528 1.377 . S
C529 C535 1.390 . S
C530 H521 0.930 . S
C530 C528 1.384 . S
C530 C531 1.372 . S
C531 C530 1.372 . S
C531 C532 1.400 . S
C531 C536 1.490 . S
C532 H522 0.930 . S
C532 C531 1.400 . S
C532 C535 1.386 . S
H533 C549 0.930 . S
H534 C550 0.931 . S
C535 H523 0.929 . S
C535 C529 1.390 . S
C535 C532 1.386 . S
C536 C531 1.490 . S
C536 C538 1.395 . S
C536 C539 1.403 1_565 S
H537 C543 0.930 . S
C538 H524 0.930 . S
C538 C536 1.395 . S
C538 C541 1.403 . S
C539 C536 1.403 1_545 S
C539 C540 1.524 . S
C539 C543 1.400 . S
C540 H525 0.960 . S
C540 H526 0.960 . S
C540 H527 0.960 . S
C540 C539 1.524 . S
C541 C538 1.403 . S
C541 C542 1.392 1_565 S
C541 C545 1.495 . S
C542 C541 1.392 1_545 S
C542 C543 1.385 . S
C542 C544 1.478 . S
C543 H537 0.930 . S
C543 C539 1.400 . S
C543 C542 1.385 . S
C544 C542 1.478 . S
C544 C546 1.381 . S
C544 C550 1.383 . S
C545 C541 1.495 . S
C545 H551 0.959 . S
C545 H552 0.961 . S
C545 H553 0.960 . S
C546 C544 1.381 . S
C546 C547 1.394 . S
C546 H554 0.930 . S
C547 C546 1.394 . S
C547 C548 1.383 . S
C547 H555 0.929 . S
C548 C547 1.383 . S
C548 C549 1.377 . S
C549 H533 0.930 . S
C549 C548 1.377 . S
C549 C550 1.379 . S
C550 H534 0.931 . S
C550 C544 1.383 . S
C550 C549 1.379 . S
H551 C545 0.959 . S
H552 C545 0.961 . S
H553 C545 0.960 . S
H554 C546 0.930 . S
H555 C547 0.929 . S
H556 C564 0.929 . S
H557 C566 0.930 . S
H558 C568 0.930 . S
H559 C571 0.929 . S
H560 C574 0.930 . S
H561 C576 0.960 . S
H562 C576 0.960 . S
H563 C576 0.960 . S
C564 H556 0.929 . S
C564 C565 1.377 . S
C564 C566 1.384 . S
C565 C564 1.377 . S
C565 C571 1.390 . S
C566 H557 0.930 . S
C566 C564 1.384 . S
C566 C567 1.372 . S
C567 C566 1.372 . S
C567 C568 1.400 . S
C567 C572 1.490 . S
C568 H558 0.930 . S
C568 C567 1.400 . S
C568 C571 1.386 . S
H569 C585 0.930 . S
H570 C586 0.931 . S
C571 H559 0.929 . S
C571 C565 1.390 . S
C571 C568 1.386 . S
C572 C567 1.490 . S
C572 C574 1.395 . S
C572 C575 1.403 . S
H573 C579 0.930 . S
C574 H560 0.930 . S
C574 C572 1.395 . S
C574 C577 1.403 . S
C575 C572 1.403 . S
C575 C576 1.524 . S
C575 C579 1.400 . S
C576 H561 0.960 . S
C576 H562 0.960 . S
C576 H563 0.960 . S
C576 C575 1.524 . S
C577 C574 1.403 . S
C577 C578 1.392 . S
C577 C581 1.495 . S
C578 C577 1.392 . S
C578 C579 1.385 . S
C578 C580 1.478 . S
C579 H573 0.930 . S
C579 C575 1.400 . S
C579 C578 1.385 . S
C580 C578 1.478 . S
C580 C582 1.381 . S
C580 C586 1.383 . S
C581 C577 1.495 . S
C581 H587 0.959 . S
C581 H588 0.961 . S
C581 H589 0.960 . S
C582 C580 1.381 . S
C582 C583 1.394 . S
C582 H590 0.930 . S
C583 C582 1.394 . S
C583 C584 1.383 . S
C583 H591 0.929 . S
C584 C583 1.383 . S
C584 C585 1.377 . S
C585 H569 0.930 . S
C585 C584 1.377 . S
C585 C586 1.379 . S
C586 H570 0.931 . S
C586 C580 1.383 . S
C586 C585 1.379 . S
H587 C581 0.959 . S
H588 C581 0.961 . S
H589 C581 0.960 . S
H590 C582 0.930 . S
H591 C583 0.929 . S
H592 C600 0.929 . S
H593 C602 0.930 . S
H594 C604 0.930 . S
H595 C607 0.929 . S
H596 C610 0.930 . S
H597 C612 0.960 . S
H598 C612 0.945 1_455 S
H599 C612 0.960 . S
C600 H592 0.929 . S
C600 C601 1.377 . S
C600 C602 1.384 . S
C601 C600 1.377 . S
C601 C607 1.390 . S
C602 H593 0.930 . S
C602 C600 1.384 . S
C602 C603 1.372 . S
C603 C602 1.372 . S
C603 C604 1.400 . S
C603 C608 1.490 . S
C604 H594 0.930 . S
C604 C603 1.400 . S
C604 C607 1.386 . S
H605 C621 0.930 . S
H606 C622 0.931 . S
C607 H595 0.929 . S
C607 C601 1.390 . S
C607 C604 1.386 . S
C608 C603 1.490 . S
C608 C610 1.395 1_565 S
C608 C611 1.403 1_455 S
H609 C615 0.930 . S
C610 H596 0.930 . S
C610 C608 1.395 1_545 S
C610 C613 1.403 . S
C611 C608 1.403 1_655 S
C611 C612 1.524 . S
C611 C615 1.400 . S
C612 H597 0.960 . S
C612 H598 0.945 1_655 S
C612 H599 0.960 . S
C612 C611 1.524 . S
C613 C610 1.403 . S
C613 C614 1.392 1_455 S
C613 C617 1.495 . S
C614 C613 1.392 1_655 S
C614 C615 1.385 1_545 S
C614 C616 1.478 . S
C615 H609 0.930 . S
C615 C611 1.400 . S
C615 C614 1.385 1_565 S
C616 C614 1.478 . S
C616 C618 1.381 . S
C616 C622 1.383 . S
C617 C613 1.495 . S
C617 H623 0.959 . S
C617 H624 0.961 . S
C617 H625 0.960 . S
C618 C616 1.381 . S
C618 C619 1.394 . S
C618 H626 0.933 . S
C619 C618 1.394 . S
C619 C620 1.383 . S
C619 H627 0.929 . S
C620 C619 1.383 . S
C620 C621 1.377 . S
C621 H605 0.930 . S
C621 C620 1.377 . S
C621 C622 1.379 . S
C622 H606 0.931 . S
C622 C616 1.383 . S
C622 C621 1.379 . S
H623 C617 0.959 . S
H624 C617 0.961 . S
H625 C617 0.960 . S
H626 C618 0.933 . S
H627 C619 0.929 . S
H628 C636 0.929 . S
H629 C638 0.930 . S
H630 C640 0.930 . S
H631 C643 0.929 . S
H632 C646 0.930 . S
H633 C648 0.960 . S
H634 C648 0.960 . S
H635 C648 0.960 . S
C636 H628 0.929 . S
C636 C637 1.377 . S
C636 C638 1.384 . S
C637 C636 1.377 . S
C637 C643 1.390 . S
C638 H629 0.930 . S
C638 C636 1.384 . S
C638 C639 1.372 . S
C639 C638 1.372 . S
C639 C640 1.400 . S
C639 C644 1.490 . S
C640 H630 0.930 . S
C640 C639 1.400 . S
C640 C643 1.386 . S
H641 C657 0.930 . S
H642 C658 0.931 . S
C643 H631 0.929 . S
C643 C637 1.390 . S
C643 C640 1.386 . S
C644 C639 1.490 . S
C644 C646 1.395 . S
C644 C647 1.403 . S
H645 C651 0.930 . S
C646 H632 0.930 . S
C646 C644 1.395 . S
C646 C649 1.403 . S
C647 C644 1.403 . S
C647 C648 1.524 . S
C647 C651 1.400 . S
C648 H633 0.960 . S
C648 H634 0.960 . S
C648 H635 0.960 . S
C648 C647 1.524 . S
C649 C646 1.403 . S
C649 C650 1.392 . S
C649 C653 1.495 . S
C650 C649 1.392 . S
C650 C651 1.385 . S
C650 C652 1.478 . S
C651 H645 0.930 . S
C651 C647 1.400 . S
C651 C650 1.385 . S
C652 C650 1.478 . S
C652 C654 1.381 . S
C652 C658 1.383 . S
C653 C649 1.495 . S
C653 H659 0.959 . S
C653 H660 0.961 . S
C653 H661 0.960 . S
C654 C652 1.381 . S
C654 C655 1.394 . S
C654 H662 0.930 . S
C655 C654 1.394 . S
C655 C656 1.383 . S
C655 H663 0.929 . S
C656 C655 1.383 . S
C656 C657 1.377 . S
C657 H641 0.930 . S
C657 C656 1.377 . S
C657 C658 1.379 . S
C658 H642 0.931 . S
C658 C652 1.383 . S
C658 C657 1.379 . S
H659 C653 0.959 . S
H660 C653 0.961 . S
H661 C653 0.960 . S
H662 C654 0.930 . S
H663 C655 0.929 . S
H664 C672 0.929 . S
H665 C674 0.930 . S
H666 C676 0.930 . S
H667 C679 0.929 . S
H668 C682 0.930 . S
H669 C684 0.960 1_565 S
H670 C684 0.960 . S
H671 C684 0.960 . S
C672 H664 0.929 . S
C672 C673 1.377 . S
C672 C674 1.384 . S
C673 C672 1.377 . S
C673 C679 1.390 . S
C674 H665 0.930 . S
C674 C672 1.384 . S
C674 C675 1.372 . S
C675 C674 1.372 . S
C675 C676 1.400 . S
C675 C680 1.490 . S
C676 H666 0.930 . S
C676 C675 1.400 . S
C676 C679 1.386 . S
H677 C693 0.930 . S
H678 C694 0.931 . S
C679 H667 0.929 . S
C679 C673 1.390 . S
C679 C676 1.386 . S
C680 C675 1.490 . S
C680 C682 1.395 1_556 S
C680 C683 1.403 . S
H681 C687 0.930 . S
C682 H668 0.930 . S
C682 C680 1.395 1_554 S
C682 C685 1.403 . S
C683 C680 1.403 . S
C683 C684 1.524 . S
C683 C687 1.400 1_545 S
C684 H669 0.960 1_545 S
C684 H670 0.960 . S
C684 H671 0.960 . S
C684 C683 1.524 . S
C685 C682 1.403 . S
C685 C686 1.392 1_545 S
C685 C689 1.492 1_545 S
C686 C685 1.392 1_565 S
C686 C687 1.385 1_554 S
C686 C688 1.478 . S
C687 H681 0.930 . S
C687 C683 1.400 1_565 S
C687 C686 1.385 1_556 S
C688 C686 1.478 . S
C688 C690 1.381 . S
C688 C694 1.383 . S
C689 C685 1.492 1_565 S
C689 H695 0.942 1_565 S
C689 H696 0.987 . S
C689 H697 0.955 1_565 S
C690 C688 1.381 . S
C690 C691 1.394 . S
C690 H698 0.930 . S
C691 C690 1.394 . S
C691 C692 1.383 . S
C691 H699 0.929 . S
C692 C691 1.383 . S
C692 C693 1.377 . S
C693 H677 0.930 . S
C693 C692 1.377 . S
C693 C694 1.379 . S
C694 H678 0.931 . S
C694 C688 1.383 . S
C694 C693 1.379 . S
H695 C689 0.942 1_545 S
H696 C689 0.987 . S
H697 C689 0.955 1_545 S
H698 C690 0.930 . S
H699 C691 0.929 . S
H700 C708 0.929 . S
H701 C710 0.930 . S
H702 C712 0.930 . S
H703 C715 0.929 . S
H704 C718 0.930 . S
H705 C720 0.960 . S
H706 C720 0.960 . S
H707 C720 0.960 . S
C708 H700 0.929 . S
C708 C709 1.377 . S
C708 C710 1.384 . S
C709 C708 1.377 . S
C709 C715 1.390 . S
C710 H701 0.930 . S
C710 C708 1.384 . S
C710 C711 1.372 . S
C711 C710 1.372 . S
C711 C712 1.400 . S
C711 C716 1.490 . S
C712 H702 0.930 . S
C712 C711 1.400 . S
C712 C715 1.386 . S
H713 C729 0.930 . S
H714 C730 0.931 . S
C715 H703 0.929 . S
C715 C709 1.390 . S
C715 C712 1.386 . S
C716 C711 1.490 . S
C716 C718 1.395 . S
C716 C719 1.403 . S
H717 C723 0.930 . S
C718 H704 0.930 . S
C718 C716 1.395 . S
C718 C721 1.403 . S
C719 C716 1.403 . S
C719 C720 1.524 . S
C719 C723 1.400 . S
C720 H705 0.960 . S
C720 H706 0.960 . S
C720 H707 0.960 . S
C720 C719 1.524 . S
C721 C718 1.403 . S
C721 C722 1.392 . S
C721 C725 1.495 . S
C722 C721 1.392 . S
C722 C723 1.385 . S
C722 C724 1.478 . S
C723 H717 0.930 . S
C723 C719 1.400 . S
C723 C722 1.385 . S
C724 C722 1.478 . S
C724 C726 1.381 . S
C724 C730 1.383 . S
C725 C721 1.495 . S
C725 H731 0.959 . S
C725 H732 0.961 . S
C725 H733 0.960 . S
C726 C724 1.381 . S
C726 C727 1.394 . S
C726 H734 0.930 . S
C727 C726 1.394 . S
C727 C728 1.383 . S
C727 H735 0.929 . S
C728 C727 1.383 . S
C728 C729 1.377 . S
C729 H713 0.930 . S
C729 C728 1.377 . S
C729 C730 1.379 . S
C730 H714 0.931 . S
C730 C724 1.383 . S
C730 C729 1.379 . S
H731 C725 0.959 . S
H732 C725 0.961 . S
H733 C725 0.960 . S
H734 C726 0.930 . S
H735 C727 0.929 . S
H736 C744 0.929 . S
H737 C746 0.930 . S
H738 C748 0.930 . S
H739 C751 0.929 . S
H740 C754 0.930 . S
H741 C756 0.960 1_556 S
H742 C756 0.958 . S
H743 C756 0.960 . S
C744 H736 0.929 . S
C744 C745 1.377 . S
C744 C746 1.384 . S
C745 C744 1.377 . S
C745 C751 1.390 . S
C746 H737 0.930 . S
C746 C744 1.384 . S
C746 C747 1.372 . S
C747 C746 1.372 . S
C747 C748 1.400 . S
C747 C752 1.490 . S
C748 H738 0.930 . S
C748 C747 1.400 . S
C748 C751 1.386 . S
H749 C765 0.930 . S
H750 C766 0.931 . S
C751 H739 0.929 . S
C751 C745 1.390 . S
C751 C748 1.386 . S
C752 C747 1.490 . S
C752 C754 1.395 . S
C752 C755 1.403 . S
H753 C759 0.930 . S
C754 H740 0.930 . S
C754 C752 1.395 . S
C754 C757 1.391 1_554 S
C755 C752 1.403 . S
C755 C756 1.524 . S
C755 C759 1.400 1_554 S
C756 H741 0.960 1_554 S
C756 H742 0.958 . S
C756 H743 0.960 . S
C756 C755 1.524 . S
C757 C754 1.391 1_556 S
C757 C758 1.401 . S
C757 C761 1.499 . S
C758 C757 1.401 . S
C758 C759 1.385 . S
C758 C760 1.478 . S
C759 H753 0.930 . S
C759 C755 1.400 1_556 S
C759 C758 1.385 . S
C760 C758 1.478 . S
C760 C762 1.381 . S
C760 C766 1.383 . S
C761 C757 1.499 . S
C761 H767 0.959 1_556 S
C761 H768 0.961 1_556 S
C761 H769 0.960 . S
C762 C760 1.381 . S
C762 C763 1.394 . S
C762 H770 0.930 . S
C763 C762 1.394 . S
C763 C764 1.383 . S
C763 H771 0.929 . S
C764 C763 1.383 . S
C764 C765 1.377 . S
C765 H749 0.930 . S
C765 C764 1.377 . S
C765 C766 1.379 . S
C766 H750 0.931 . S
C766 C760 1.383 . S
C766 C765 1.379 . S
H767 C761 0.959 1_554 S
H768 C761 0.961 1_554 S
H769 C761 0.960 . S
H770 C762 0.930 . S
H771 C763 0.929 . S
H772 C780 0.929 . S
H773 C782 0.930 . S
H774 C784 0.930 . S
H775 C787 0.929 . S
H776 C790 0.930 . S
H777 C792 0.960 . S
H778 C792 0.960 . S
H779 C792 0.960 . S
C780 H772 0.929 . S
C780 C781 1.377 . S
C780 C782 1.384 . S
C781 C780 1.377 . S
C781 C787 1.390 . S
C782 H773 0.930 . S
C782 C780 1.384 . S
C782 C783 1.372 . S
C783 C782 1.372 . S
C783 C784 1.400 . S
C783 C788 1.490 . S
C784 H774 0.930 . S
C784 C783 1.400 . S
C784 C787 1.386 . S
H785 C801 0.930 . S
H786 C802 0.931 . S
C787 H775 0.929 . S
C787 C781 1.390 . S
C787 C784 1.386 . S
C788 C783 1.490 . S
C788 C790 1.395 . S
C788 C791 1.403 . S
H789 C795 0.930 . S
C790 H776 0.930 . S
C790 C788 1.395 . S
C790 C793 1.403 . S
C791 C788 1.403 . S
C791 C792 1.524 . S
C791 C795 1.400 . S
C792 H777 0.960 . S
C792 H778 0.960 . S
C792 H779 0.960 . S
C792 C791 1.524 . S
C793 C790 1.403 . S
C793 C794 1.392 . S
C793 C797 1.495 . S
C794 C793 1.392 . S
C794 C795 1.385 . S
C794 C796 1.478 . S
C795 H789 0.930 . S
C795 C791 1.400 . S
C795 C794 1.385 . S
C796 C794 1.478 . S
C796 C798 1.381 . S
C796 C802 1.383 . S
C797 C793 1.495 . S
C797 H803 0.959 . S
C797 H804 0.961 . S
C797 H805 0.960 . S
C798 C796 1.381 . S
C798 C799 1.394 . S
C798 H806 0.930 . S
C799 C798 1.394 . S
C799 C800 1.383 . S
C799 H807 0.929 . S
C800 C799 1.383 . S
C800 C801 1.377 . S
C801 H785 0.930 . S
C801 C800 1.377 . S
C801 C802 1.379 . S
C802 H786 0.931 . S
C802 C796 1.383 . S
C802 C801 1.379 . S
H803 C797 0.959 . S
H804 C797 0.961 . S
H805 C797 0.960 . S
H806 C798 0.930 . S
H807 C799 0.929 . S
H808 C816 0.929 . S
H809 C818 0.930 . S
H810 C820 0.930 . S
H811 C823 0.929 . S
H812 C826 0.930 . S
H813 C828 0.960 . S
H814 C828 0.960 . S
H815 C828 0.960 . S
C816 H808 0.929 . S
C816 C817 1.377 . S
C816 C818 1.384 . S
C817 C816 1.377 . S
C817 C823 1.390 . S
C818 H809 0.930 . S
C818 C816 1.384 . S
C818 C819 1.372 . S
C819 C818 1.372 . S
C819 C820 1.400 . S
C819 C824 1.490 . S
C820 H810 0.930 . S
C820 C819 1.400 . S
C820 C823 1.386 . S
H821 C837 0.930 . S
H822 C838 0.931 . S
C823 H811 0.929 . S
C823 C817 1.390 . S
C823 C820 1.386 . S
C824 C819 1.490 . S
C824 C826 1.395 1_455 S
C824 C827 1.403 . S
H825 C831 0.930 1_455 S
C826 H812 0.930 . S
C826 C824 1.395 1_655 S
C826 C829 1.403 . S
C827 C824 1.403 . S
C827 C828 1.524 . S
C827 C831 1.400 1_455 S
C828 H813 0.960 . S
C828 H814 0.960 . S
C828 H815 0.960 . S
C828 C827 1.524 . S
C829 C826 1.403 . S
C829 C830 1.392 . S
C829 C833 1.495 . S
C830 C829 1.392 . S
C830 C831 1.385 . S
C830 C832 1.478 . S
C831 H825 0.930 1_655 S
C831 C827 1.400 1_655 S
C831 C830 1.385 . S
C832 C830 1.478 . S
C832 C834 1.381 . S
C832 C838 1.383 . S
C833 C829 1.495 . S
C833 H839 0.959 . S
C833 H840 0.961 . S
C833 H841 0.960 . S
C834 C832 1.381 . S
C834 C835 1.394 . S
C834 H842 0.930 . S
C835 C834 1.394 . S
C835 C836 1.383 . S
C835 H843 0.929 . S
C836 C835 1.383 . S
C836 C837 1.377 . S
C837 H821 0.930 . S
C837 C836 1.377 . S
C837 C838 1.379 . S
C838 H822 0.931 . S
C838 C832 1.383 . S
C838 C837 1.379 . S
H839 C833 0.959 . S
H840 C833 0.961 . S
H841 C833 0.960 . S
H842 C834 0.930 . S
H843 C835 0.929 . S
H844 C852 0.929 . S
H845 C854 0.930 . S
H846 C856 0.930 . S
H847 C859 0.929 . S
H848 C862 0.930 . S
H849 C864 0.960 . S
H850 C864 0.960 . S
H851 C864 0.960 . S
C852 H844 0.929 . S
C852 C853 1.377 . S
C852 C854 1.384 . S
C853 C852 1.377 . S
C853 C859 1.390 . S
C854 H845 0.930 . S
C854 C852 1.384 . S
C854 C855 1.372 . S
C855 C854 1.372 . S
C855 C856 1.400 . S
C855 C860 1.490 . S
C856 H846 0.930 . S
C856 C855 1.400 . S
C856 C859 1.386 . S
H857 C873 0.930 . S
H858 C874 0.931 . S
C859 H847 0.929 . S
C859 C853 1.390 . S
C859 C856 1.386 . S
C860 C855 1.490 . S
C860 C862 1.395 . S
C860 C863 1.403 . S
H861 C867 0.930 . S
C862 H848 0.930 . S
C862 C860 1.395 . S
C862 C865 1.403 . S
C863 C860 1.403 . S
C863 C864 1.524 . S
C863 C867 1.400 . S
C864 H849 0.960 . S
C864 H850 0.960 . S
C864 H851 0.960 . S
C864 C863 1.524 . S
C865 C862 1.403 . S
C865 C866 1.392 . S
C865 C869 1.495 . S
C866 C865 1.392 . S
C866 C867 1.385 . S
C866 C868 1.478 . S
C867 H861 0.930 . S
C867 C863 1.400 . S
C867 C866 1.385 . S
C868 C866 1.478 . S
C868 C870 1.381 . S
C868 C874 1.383 . S
C869 C865 1.495 . S
C869 H875 0.959 . S
C869 H876 0.961 . S
C869 H877 0.960 . S
C870 C868 1.381 . S
C870 C871 1.394 . S
C870 H878 0.930 . S
C871 C870 1.394 . S
C871 C872 1.383 . S
C871 H879 0.929 . S
C872 C871 1.383 . S
C872 C873 1.377 . S
C873 H857 0.930 . S
C873 C872 1.377 . S
C873 C874 1.379 . S
C874 H858 0.931 . S
C874 C868 1.383 . S
C874 C873 1.379 . S
H875 C869 0.959 . S
H876 C869 0.961 . S
H877 C869 0.960 . S
H878 C870 0.930 . S
H879 C871 0.929 . S
H880 C888 0.929 . S
H881 C890 0.930 . S
H882 C892 0.930 . S
H883 C895 0.929 . S
H884 C898 0.930 . S
H885 C900 0.960 . S
H886 C900 0.960 . S
H887 C900 0.960 . S
C888 H880 0.929 . S
C888 C889 1.377 . S
C888 C890 1.384 . S
C889 C888 1.377 . S
C889 C895 1.390 . S
C890 H881 0.930 . S
C890 C888 1.384 . S
C890 C891 1.372 . S
C891 C890 1.372 . S
C891 C892 1.400 . S
C891 C896 1.490 . S
C892 H882 0.930 . S
C892 C891 1.400 . S
C892 C895 1.386 . S
H893 C909 0.930 . S
H894 C910 0.931 . S
C895 H883 0.929 . S
C895 C889 1.390 . S
C895 C892 1.386 . S
C896 C891 1.490 . S
C896 C898 1.395 . S
C896 C899 1.403 . S
H897 C903 0.930 . S
C898 H884 0.930 . S
C898 C896 1.395 . S
C898 C901 1.403 . S
C899 C896 1.403 . S
C899 C900 1.524 . S
C899 C903 1.400 . S
C900 H885 0.960 . S
C900 H886 0.960 . S
C900 H887 0.960 . S
C900 C899 1.524 . S
C901 C898 1.403 . S
C901 C902 1.392 . S
C901 C905 1.495 . S
C902 C901 1.392 . S
C902 C903 1.385 . S
C902 C904 1.478 . S
C903 H897 0.930 . S
C903 C899 1.400 . S
C903 C902 1.385 . S
C904 C902 1.478 . S
C904 C906 1.381 . S
C904 C910 1.383 . S
C905 C901 1.495 . S
C905 H911 0.959 . S
C905 H912 0.961 . S
C905 H913 0.960 . S
C906 C904 1.381 . S
C906 C907 1.394 . S
C906 H914 0.930 . S
C907 C906 1.394 . S
C907 C908 1.383 . S
C907 H915 0.929 . S
C908 C907 1.383 . S
C908 C909 1.377 . S
C909 H893 0.930 . S
C909 C908 1.377 . S
C909 C910 1.379 . S
C910 H894 0.931 . S
C910 C904 1.383 . S
C910 C909 1.379 . S
H911 C905 0.959 . S
H912 C905 0.961 . S
H913 C905 0.960 . S
H914 C906 0.930 . S
H915 C907 0.929 . S
H916 C924 0.929 . S
H917 C926 0.930 . S
H918 C928 0.930 . S
H919 C931 0.929 . S
H920 C934 0.930 . S
H921 C936 0.960 . S
H922 C936 0.960 . S
H923 C936 0.960 . S
C924 H916 0.929 . S
C924 C925 1.377 . S
C924 C926 1.384 . S
C925 C924 1.377 . S
C925 C931 1.390 . S
C926 H917 0.930 . S
C926 C924 1.384 . S
C926 C927 1.372 . S
C927 C926 1.372 . S
C927 C928 1.400 . S
C927 C932 1.490 . S
C928 H918 0.930 . S
C928 C927 1.400 . S
C928 C931 1.386 . S
H929 C945 0.930 . S
H930 C946 0.931 . S
C931 H919 0.929 . S
C931 C925 1.390 . S
C931 C928 1.386 . S
C932 C927 1.490 . S
C932 C934 1.395 . S
C932 C935 1.403 . S
H933 C939 0.930 . S
C934 H920 0.930 . S
C934 C932 1.395 . S
C934 C937 1.403 . S
C935 C932 1.403 . S
C935 C936 1.524 . S
C935 C939 1.400 . S
C936 H921 0.960 . S
C936 H922 0.960 . S
C936 H923 0.960 . S
C936 C935 1.524 . S
C937 C934 1.403 . S
C937 C938 1.392 . S
C937 C941 1.495 . S
C938 C937 1.392 . S
C938 C939 1.385 . S
C938 C940 1.478 . S
C939 H933 0.930 . S
C939 C935 1.400 . S
C939 C938 1.385 . S
C940 C938 1.478 . S
C940 C942 1.381 . S
C940 C946 1.383 . S
C941 C937 1.495 . S
C941 H947 0.959 . S
C941 H948 0.961 . S
C941 H949 0.960 . S
C942 C940 1.381 . S
C942 C943 1.394 . S
C942 H950 0.930 . S
C943 C942 1.394 . S
C943 C944 1.383 . S
C943 H951 0.929 . S
C944 C943 1.383 . S
C944 C945 1.377 . S
C945 H929 0.930 . S
C945 C944 1.377 . S
C945 C946 1.379 . S
C946 H930 0.931 . S
C946 C940 1.383 . S
C946 C945 1.379 . S
H947 C941 0.959 . S
H948 C941 0.961 . S
H949 C941 0.960 . S
H950 C942 0.930 . S
H951 C943 0.929 . S
H952 C960 0.929 . S
H953 C962 0.930 . S
H954 C964 0.930 . S
H955 C967 0.929 . S
H956 C970 0.930 . S
H957 C972 0.960 . S
H958 C972 0.960 . S
H959 C972 0.960 . S
C960 H952 0.929 . S
C960 C961 1.377 . S
C960 C962 1.384 . S
C961 C960 1.377 . S
C961 C967 1.390 . S
C962 H953 0.930 . S
C962 C960 1.384 . S
C962 C963 1.372 . S
C963 C962 1.372 . S
C963 C964 1.400 . S
C963 C968 1.490 . S
C964 H954 0.930 . S
C964 C963 1.400 . S
C964 C967 1.386 . S
H965 C981 0.930 . S
H966 C982 0.931 . S
C967 H955 0.929 . S
C967 C961 1.390 . S
C967 C964 1.386 . S
C968 C963 1.490 . S
C968 C970 1.395 . S
C968 C971 1.403 . S
H969 C975 0.930 . S
C970 H956 0.930 . S
C970 C968 1.395 . S
C970 C973 1.403 . S
C971 C968 1.403 . S
C971 C972 1.524 . S
C971 C975 1.400 . S
C972 H957 0.960 . S
C972 H958 0.960 . S
C972 H959 0.960 . S
C972 C971 1.524 . S
C973 C970 1.403 . S
C973 C974 1.392 . S
C973 C977 1.495 . S
C974 C973 1.392 . S
C974 C975 1.385 . S
C974 C976 1.478 . S
C975 H969 0.930 . S
C975 C971 1.400 . S
C975 C974 1.385 . S
C976 C974 1.478 . S
C976 C978 1.381 . S
C976 C982 1.383 . S
C977 C973 1.495 . S
C977 H983 0.959 . S
C977 H984 0.961 . S
C977 H985 0.960 . S
C978 C976 1.381 . S
C978 C979 1.394 . S
C978 H986 0.930 . S
C979 C978 1.394 . S
C979 C980 1.383 . S
C979 H987 0.929 . S
C980 C979 1.383 . S
C980 C981 1.377 . S
C981 H965 0.930 . S
C981 C980 1.377 . S
C981 C982 1.379 . S
C982 H966 0.931 . S
C982 C976 1.383 . S
C982 C981 1.379 . S
H983 C977 0.959 . S
H984 C977 0.961 . S
H985 C977 0.960 . S
H986 C978 0.930 . S
H987 C979 0.929 . S
H988 C996 0.929 . S
H989 C998 0.930 . S
H990 C1000 0.930 1_655 S
H991 C1003 0.929 . S
H992 C1006 0.930 . S
H993 C1008 0.957 1_655 S
H994 C1008 0.960 . S
H995 C1008 0.970 . S
C996 H988 0.929 . S
C996 C997 1.377 . S
C996 C998 1.384 . S
C997 C996 1.377 . S
C997 C1003 1.390 . S
C998 H989 0.930 . S
C998 C996 1.384 . S
C998 C999 1.372 . S
C999 C998 1.372 . S
C999 C1000 1.400 . S
C999 C1004 1.490 . S
C1000 H990 0.930 1_455 S
C1000 C999 1.400 . S
C1000 C1003 1.386 . S
H1001 C1017 0.930 . S
H1002 C1018 0.931 . S
C1003 H991 0.929 . S
C1003 C997 1.390 . S
C1003 C1000 1.386 . S
C1004 C999 1.490 . S
C1004 C1006 1.395 1_556 S
C1004 C1007 1.403 . S
H1005 C1011 0.930 . S
C1006 H992 0.930 . S
C1006 C1004 1.395 1_554 S
C1006 C1009 1.403 1_455 S
C1007 C1004 1.403 . S
C1007 C1008 1.524 . S
C1007 C1011 1.400 1_455 S
C1008 H993 0.957 1_455 S
C1008 H994 0.960 . S
C1008 H995 0.970 . S
C1008 C1007 1.524 . S
C1009 C1006 1.403 1_655 S
C1009 C1010 1.392 . S
C1009 C1013 1.495 . S
C1010 C1009 1.392 . S
C1010 C1011 1.385 1_554 S
C1010 C1012 1.478 . S
C1011 H1005 0.930 . S
C1011 C1007 1.400 1_655 S
C1011 C1010 1.385 1_556 S
C1012 C1010 1.478 . S
C1012 C1014 1.381 . S
C1012 C1018 1.383 . S
C1013 C1009 1.495 . S
C1013 H1019 0.959 . S
C1013 H1020 0.961 . S
C1013 H1021 0.960 . S
C1014 C1012 1.381 . S
C1014 C1015 1.394 . S
C1014 H1022 0.930 . S
C1015 C1014 1.394 . S
C1015 C1016 1.383 . S
C1015 H1023 0.929 . S
C1016 C1015 1.383 . S
C1016 C1017 1.377 . S
C1017 H1001 0.930 . S
C1017 C1016 1.377 . S
C1017 C1018 1.379 . S
C1018 H1002 0.931 . S
C1018 C1012 1.383 . S
C1018 C1017 1.379 . S
H1019 C1013 0.959 . S
H1020 C1013 0.961 . S
H1021 C1013 0.960 . S
H1022 C1014 0.930 . S
H1023 C1015 0.929 . S
H1024 C1032 0.929 . S
H1025 C1034 0.930 1_565 S
H1026 C1036 0.930 . S
H1027 C1039 0.929 . S
H1028 C1042 0.930 . S
H1029 C1044 0.960 . S
H1030 C1044 0.960 . S
H1031 C1044 0.960 1_545 S
C1032 H1024 0.929 . S
C1032 C1033 1.377 . S
C1032 C1034 1.384 . S
C1033 C1032 1.377 . S
C1033 C1039 1.390 . S
C1034 H1025 0.930 1_545 S
C1034 C1032 1.384 . S
C1034 C1035 1.372 . S
C1035 C1034 1.372 . S
C1035 C1036 1.400 . S
C1035 C1040 1.490 1_545 S
C1036 H1026 0.930 . S
C1036 C1035 1.400 . S
C1036 C1039 1.386 . S
H1037 C1053 0.930 . S
H1038 C1054 0.931 . S
C1039 H1027 0.929 . S
C1039 C1033 1.390 . S
C1039 C1036 1.386 . S
C1040 C1035 1.490 1_565 S
C1040 C1042 1.395 . S
C1040 C1043 1.403 . S
H1041 C1047 0.930 . S
C1042 H1028 0.930 . S
C1042 C1040 1.395 . S
C1042 C1045 1.403 . S
C1043 C1040 1.403 . S
C1043 C1044 1.524 . S
C1043 C1047 1.400 . S
C1044 H1029 0.960 . S
C1044 H1030 0.960 . S
C1044 H1031 0.960 1_565 S
C1044 C1043 1.524 . S
C1045 C1042 1.403 . S
C1045 C1046 1.392 . S
C1045 C1049 1.495 . S
C1046 C1045 1.392 . S
C1046 C1047 1.385 . S
C1046 C1048 1.478 . S
C1047 H1041 0.930 . S
C1047 C1043 1.400 . S
C1047 C1046 1.385 . S
C1048 C1046 1.478 . S
C1048 C1050 1.381 . S
C1048 C1054 1.383 . S
C1049 C1045 1.495 . S
C1049 H1055 0.959 . S
C1049 H1056 0.961 . S
C1049 H1057 0.960 . S
C1050 C1048 1.381 . S
C1050 C1051 1.394 . S
C1050 H1058 0.930 . S
C1051 C1050 1.394 . S
C1051 C1052 1.383 . S
C1051 H1059 0.929 . S
C1052 C1051 1.383 . S
C1052 C1053 1.377 . S
C1053 H1037 0.930 . S
C1053 C1052 1.377 . S
C1053 C1054 1.379 . S
C1054 H1038 0.931 . S
C1054 C1048 1.383 . S
C1054 C1053 1.379 . S
H1055 C1049 0.959 . S
H1056 C1049 0.961 . S
H1057 C1049 0.960 . S
H1058 C1050 0.930 . S
H1059 C1051 0.929 . S
H1060 C1068 0.929 . S
H1061 C1070 0.930 . S
H1062 C1072 0.930 . S
H1063 C1075 0.929 . S
H1064 C1078 0.930 . S
H1065 C1080 0.960 . S
H1066 C1080 0.960 . S
H1067 C1080 0.960 . S
C1068 H1060 0.929 . S
C1068 C1069 1.377 . S
C1068 C1070 1.384 . S
C1069 C1068 1.377 . S
C1069 C1075 1.390 . S
C1070 H1061 0.930 . S
C1070 C1068 1.384 . S
C1070 C1071 1.372 . S
C1071 C1070 1.372 . S
C1071 C1072 1.400 . S
C1071 C1076 1.490 . S
C1072 H1062 0.930 . S
C1072 C1071 1.400 . S
C1072 C1075 1.386 . S
H1073 C1089 0.930 . S
H1074 C1090 0.931 . S
C1075 H1063 0.929 . S
C1075 C1069 1.390 . S
C1075 C1072 1.386 . S
C1076 C1071 1.490 . S
C1076 C1078 1.395 . S
C1076 C1079 1.403 . S
H1077 C1083 0.930 . S
C1078 H1064 0.930 . S
C1078 C1076 1.395 . S
C1078 C1081 1.403 . S
C1079 C1076 1.403 . S
C1079 C1080 1.524 . S
C1079 C1083 1.400 . S
C1080 H1065 0.960 . S
C1080 H1066 0.960 . S
C1080 H1067 0.960 . S
C1080 C1079 1.524 . S
C1081 C1078 1.403 . S
C1081 C1082 1.392 . S
C1081 C1085 1.495 . S
C1082 C1081 1.392 . S
C1082 C1083 1.385 . S
C1082 C1084 1.478 . S
C1083 H1077 0.930 . S
C1083 C1079 1.400 . S
C1083 C1082 1.385 . S
C1084 C1082 1.478 . S
C1084 C1086 1.381 . S
C1084 C1090 1.383 . S
C1085 C1081 1.495 . S
C1085 H1091 0.959 . S
C1085 H1092 0.961 . S
C1085 H1093 0.960 . S
C1086 C1084 1.381 . S
C1086 C1087 1.394 . S
C1086 H1094 0.930 . S
C1087 C1086 1.394 . S
C1087 C1088 1.383 . S
C1087 H1095 0.929 . S
C1088 C1087 1.383 . S
C1088 C1089 1.377 . S
C1089 H1073 0.930 . S
C1089 C1088 1.377 . S
C1089 C1090 1.379 . S
C1090 H1074 0.931 . S
C1090 C1084 1.383 . S
C1090 C1089 1.379 . S
H1091 C1085 0.959 . S
H1092 C1085 0.961 . S
H1093 C1085 0.960 . S
H1094 C1086 0.930 . S
H1095 C1087 0.929 . S
H1096 C1104 0.929 . S
H1097 C1106 0.930 . S
H1098 C1108 0.930 . S
H1099 C1111 0.929 . S
H1100 C1114 0.930 . S
H1101 C1116 0.960 . S
H1102 C1116 0.960 1_545 S
H1103 C1116 0.960 . S
C1104 H1096 0.929 . S
C1104 C1105 1.377 . S
C1104 C1106 1.384 . S
C1105 C1104 1.377 . S
C1105 C1111 1.390 . S
C1106 H1097 0.930 . S
C1106 C1104 1.384 . S
C1106 C1107 1.372 . S
C1107 C1106 1.372 . S
C1107 C1108 1.400 . S
C1107 C1112 1.490 . S
C1108 H1098 0.930 . S
C1108 C1107 1.400 . S
C1108 C1111 1.386 . S
H1109 C1125 0.930 . S
H1110 C1126 0.931 . S
C1111 H1099 0.929 . S
C1111 C1105 1.390 . S
C1111 C1108 1.386 . S
C1112 C1107 1.490 . S
C1112 C1114 1.395 . S
C1112 C1115 1.403 1_545 S
H1113 C1119 0.930 . S
C1114 H1100 0.930 . S
C1114 C1112 1.395 . S
C1114 C1117 1.403 1_545 S
C1115 C1112 1.403 1_565 S
C1115 C1116 1.524 . S
C1115 C1119 1.400 . S
C1116 H1101 0.960 . S
C1116 H1102 0.960 1_565 S
C1116 H1103 0.960 . S
C1116 C1115 1.524 . S
C1117 C1114 1.403 1_565 S
C1117 C1118 1.392 . S
C1117 C1121 1.495 . S
C1118 C1117 1.392 . S
C1118 C1119 1.385 . S
C1118 C1120 1.478 . S
C1119 H1113 0.930 . S
C1119 C1115 1.400 . S
C1119 C1118 1.385 . S
C1120 C1118 1.478 . S
C1120 C1122 1.381 . S
C1120 C1126 1.383 . S
C1121 C1117 1.495 . S
C1121 H1127 0.959 1_565 S
C1121 H1128 0.961 . S
C1121 H1129 0.960 . S
C1122 C1120 1.381 . S
C1122 C1123 1.394 . S
C1122 H1130 0.930 . S
C1123 C1122 1.394 . S
C1123 C1124 1.383 . S
C1123 H1131 0.929 . S
C1124 C1123 1.383 . S
C1124 C1125 1.377 . S
C1125 H1109 0.930 . S
C1125 C1124 1.377 . S
C1125 C1126 1.379 . S
C1126 H1110 0.931 . S
C1126 C1120 1.383 . S
C1126 C1125 1.379 . S
H1127 C1121 0.959 1_545 S
H1128 C1121 0.961 . S
H1129 C1121 0.960 . S
H1130 C1122 0.930 . S
H1131 C1123 0.929 . S
H1132 C1140 0.929 . S
H1133 C1142 0.930 . S
H1134 C1144 0.930 . S
H1135 C1147 0.929 . S
H1136 C1150 0.930 . S
H1137 C1152 0.960 . S
H1138 C1152 0.960 . S
H1139 C1152 0.960 . S
C1140 H1132 0.929 . S
C1140 C1141 1.377 . S
C1140 C1142 1.384 . S
C1141 C1140 1.377 . S
C1141 C1147 1.390 . S
C1142 H1133 0.930 . S
C1142 C1140 1.384 . S
C1142 C1143 1.372 . S
C1143 C1142 1.372 . S
C1143 C1144 1.400 . S
C1143 C1148 1.490 . S
C1144 H1134 0.930 . S
C1144 C1143 1.400 . S
C1144 C1147 1.386 . S
H1145 C1161 0.930 . S
H1146 C1162 0.931 . S
C1147 H1135 0.929 . S
C1147 C1141 1.390 . S
C1147 C1144 1.386 . S
C1148 C1143 1.490 . S
C1148 C1150 1.395 . S
C1148 C1151 1.403 . S
H1149 C1155 0.930 . S
C1150 H1136 0.930 . S
C1150 C1148 1.395 . S
C1150 C1153 1.403 . S
C1151 C1148 1.403 . S
C1151 C1152 1.524 1_556 S
C1151 C1155 1.400 1_556 S
C1152 H1137 0.960 . S
C1152 H1138 0.960 . S
C1152 H1139 0.960 . S
C1152 C1151 1.524 1_554 S
C1153 C1150 1.403 . S
C1153 C1154 1.392 1_556 S
C1153 C1157 1.495 . S
C1154 C1153 1.392 1_554 S
C1154 C1155 1.385 . S
C1154 C1156 1.478 . S
C1155 H1149 0.930 . S
C1155 C1151 1.400 1_554 S
C1155 C1154 1.385 . S
C1156 C1154 1.478 . S
C1156 C1158 1.381 . S
C1156 C1162 1.383 . S
C1157 C1153 1.495 . S
C1157 H1163 0.959 . S
C1157 H1164 0.961 . S
C1157 H1165 0.960 . S
C1158 C1156 1.381 . S
C1158 C1159 1.394 . S
C1158 H1166 0.930 . S
C1159 C1158 1.394 . S
C1159 C1160 1.383 . S
C1159 H1167 0.929 . S
C1160 C1159 1.383 . S
C1160 C1161 1.377 . S
C1161 H1145 0.930 . S
C1161 C1160 1.377 . S
C1161 C1162 1.379 . S
C1162 H1146 0.931 . S
C1162 C1156 1.383 . S
C1162 C1161 1.379 . S
H1163 C1157 0.959 . S
H1164 C1157 0.961 . S
H1165 C1157 0.960 . S
H1166 C1158 0.930 . S
H1167 C1159 0.929 . S
H1168 C1176 0.929 . S
H1169 C1178 0.930 . S
H1170 C1180 0.930 . S
H1171 C1183 0.929 . S
H1172 C1186 0.930 . S
H1173 C1188 0.960 1_565 S
H1174 C1188 0.960 . S
H1175 C1188 0.960 . S
C1176 H1168 0.929 . S
C1176 C1177 1.377 . S
C1176 C1178 1.384 . S
C1177 C1176 1.377 . S
C1177 C1183 1.390 . S
C1178 H1169 0.930 . S
C1178 C1176 1.384 . S
C1178 C1179 1.372 . S
C1179 C1178 1.372 . S
C1179 C1180 1.400 . S
C1179 C1184 1.490 . S
C1180 H1170 0.930 . S
C1180 C1179 1.400 . S
C1180 C1183 1.386 . S
H1181 C1197 0.930 . S
H1182 C1198 0.931 . S
C1183 H1171 0.929 . S
C1183 C1177 1.390 . S
C1183 C1180 1.386 . S
C1184 C1179 1.490 . S
C1184 C1186 1.395 . S
C1184 C1187 1.403 . S
H1185 C1191 0.930 . S
C1186 H1172 0.930 . S
C1186 C1184 1.395 . S
C1186 C1189 1.403 . S
C1187 C1184 1.403 . S
C1187 C1188 1.524 . S
C1187 C1191 1.400 1_545 S
C1188 H1173 0.960 1_545 S
C1188 H1174 0.960 . S
C1188 H1175 0.960 . S
C1188 C1187 1.524 . S
C1189 C1186 1.403 . S
C1189 C1190 1.392 1_545 S
C1189 C1193 1.495 . S
C1190 C1189 1.392 1_565 S
C1190 C1191 1.385 . S
C1190 C1192 1.478 . S
C1191 H1185 0.930 . S
C1191 C1187 1.400 1_565 S
C1191 C1190 1.385 . S
C1192 C1190 1.478 . S
C1192 C1194 1.381 . S
C1192 C1198 1.383 . S
C1193 C1189 1.495 . S
C1193 H1199 0.959 . S
C1193 H1200 0.961 . S
C1193 H1201 0.960 1_545 S
C1194 C1192 1.381 . S
C1194 C1195 1.394 . S
C1194 H1202 0.930 . S
C1195 C1194 1.394 . S
C1195 C1196 1.383 . S
C1195 H1203 0.929 . S
C1196 C1195 1.383 . S
C1196 C1197 1.377 . S
C1197 H1181 0.930 . S
C1197 C1196 1.377 . S
C1197 C1198 1.379 . S
C1198 H1182 0.931 . S
C1198 C1192 1.383 . S
C1198 C1197 1.379 . S
H1199 C1193 0.959 . S
H1200 C1193 0.961 . S
H1201 C1193 0.960 1_565 S
H1202 C1194 0.930 . S
H1203 C1195 0.929 . S
H1204 C1212 0.929 . S
H1205 C1214 0.930 . S
H1206 C1216 0.930 . S
H1207 C1219 0.929 . S
H1208 C1222 0.930 . S
H1209 C1224 0.960 . S
H1210 C1224 0.960 . S
H1211 C1224 0.960 . S
C1212 H1204 0.929 . S
C1212 C1213 1.377 . S
C1212 C1214 1.384 . S
C1213 C1212 1.377 . S
C1213 C1219 1.390 . S
C1214 H1205 0.930 . S
C1214 C1212 1.384 . S
C1214 C1215 1.372 . S
C1215 C1214 1.372 . S
C1215 C1216 1.400 . S
C1215 C1220 1.490 . S
C1216 H1206 0.930 . S
C1216 C1215 1.400 . S
C1216 C1219 1.386 . S
H1217 C1233 0.930 . S
H1218 C1234 0.931 . S
C1219 H1207 0.929 . S
C1219 C1213 1.390 . S
C1219 C1216 1.386 . S
C1220 C1215 1.490 . S
C1220 C1222 1.395 . S
C1220 C1223 1.403 . S
H1221 C1227 0.930 . S
C1222 H1208 0.930 . S
C1222 C1220 1.395 . S
C1222 C1225 1.403 . S
C1223 C1220 1.403 . S
C1223 C1224 1.524 . S
C1223 C1227 1.400 . S
C1224 H1209 0.960 . S
C1224 H1210 0.960 . S
C1224 H1211 0.960 . S
C1224 C1223 1.524 . S
C1225 C1222 1.403 . S
C1225 C1226 1.392 . S
C1225 C1229 1.495 . S
C1226 C1225 1.392 . S
C1226 C1227 1.385 . S
C1226 C1228 1.478 . S
C1227 H1221 0.930 . S
C1227 C1223 1.400 . S
C1227 C1226 1.385 . S
C1228 C1226 1.478 . S
C1228 C1230 1.381 . S
C1228 C1234 1.383 . S
C1229 C1225 1.495 . S
C1229 H1235 0.959 . S
C1229 H1236 0.961 . S
C1229 H1237 0.960 . S
C1230 C1228 1.381 . S
C1230 C1231 1.394 . S
C1230 H1238 0.930 . S
C1231 C1230 1.394 . S
C1231 C1232 1.383 . S
C1231 H1239 0.929 . S
C1232 C1231 1.383 . S
C1232 C1233 1.377 . S
C1233 H1217 0.930 . S
C1233 C1232 1.377 . S
C1233 C1234 1.379 . S
C1234 H1218 0.931 . S
C1234 C1228 1.383 . S
C1234 C1233 1.379 . S
H1235 C1229 0.959 . S
H1236 C1229 0.961 . S
H1237 C1229 0.960 . S
H1238 C1230 0.930 . S
H1239 C1231 0.929 . S
H1240 C1248 0.929 . S
H1241 C1250 0.930 . S
H1242 C1252 0.930 . S
H1243 C1255 0.929 . S
H1244 C1258 0.930 . S
H1245 C1260 0.960 . S
H1246 C1260 0.960 . S
H1247 C1260 0.960 . S
C1248 H1240 0.929 . S
C1248 C1249 1.377 . S
C1248 C1250 1.384 . S
C1249 C1248 1.377 . S
C1249 C1255 1.390 . S
C1250 H1241 0.930 . S
C1250 C1248 1.384 . S
C1250 C1251 1.372 . S
C1251 C1250 1.372 . S
C1251 C1252 1.400 . S
C1251 C1256 1.490 . S
C1252 H1242 0.930 . S
C1252 C1251 1.400 . S
C1252 C1255 1.386 . S
H1253 C1269 0.930 . S
H1254 C1270 0.931 . S
C1255 H1243 0.929 . S
C1255 C1249 1.390 . S
C1255 C1252 1.386 . S
C1256 C1251 1.490 . S
C1256 C1258 1.395 1_545 S
C1256 C1259 1.403 . S
H1257 C1263 0.930 . S
C1258 H1244 0.930 . S
C1258 C1256 1.395 1_565 S
C1258 C1261 1.403 . S
C1259 C1256 1.403 . S
C1259 C1260 1.524 . S
C1259 C1263 1.400 1_545 S
C1260 H1245 0.960 . S
C1260 H1246 0.960 . S
C1260 H1247 0.960 . S
C1260 C1259 1.524 . S
C1261 C1258 1.403 . S
C1261 C1262 1.392 . S
C1261 C1265 1.495 . S
C1262 C1261 1.392 . S
C1262 C1263 1.385 . S
C1262 C1264 1.478 . S
C1263 H1257 0.930 . S
C1263 C1259 1.400 1_565 S
C1263 C1262 1.385 . S
C1264 C1262 1.478 . S
C1264 C1266 1.381 . S
C1264 C1270 1.383 . S
C1265 C1261 1.495 . S
C1265 H1271 0.959 . S
C1265 H1272 0.961 . S
C1265 H1273 0.960 . S
C1266 C1264 1.381 . S
C1266 C1267 1.394 . S
C1266 H1274 0.930 . S
C1267 C1266 1.394 . S
C1267 C1268 1.383 . S
C1267 H1275 0.929 . S
C1268 C1267 1.383 . S
C1268 C1269 1.377 . S
C1269 H1253 0.930 . S
C1269 C1268 1.377 . S
C1269 C1270 1.379 . S
C1270 H1254 0.931 . S
C1270 C1264 1.383 . S
C1270 C1269 1.379 . S
H1271 C1265 0.959 . S
H1272 C1265 0.961 . S
H1273 C1265 0.960 . S
H1274 C1266 0.930 . S
H1275 C1267 0.929 . S
H1276 C1284 0.929 . S
H1277 C1286 0.930 . S
H1278 C1288 0.930 . S
H1279 C1291 0.929 . S
H1280 C1294 0.930 . S
H1281 C1296 0.960 . S
H1282 C1296 0.960 . S
H1283 C1296 0.960 . S
C1284 H1276 0.929 . S
C1284 C1285 1.377 . S
C1284 C1286 1.384 1_556 S
C1285 C1284 1.377 . S
C1285 C1291 1.390 . S
C1286 H1277 0.930 . S
C1286 C1284 1.384 1_554 S
C1286 C1287 1.372 1_554 S
C1287 C1286 1.372 1_556 S
C1287 C1288 1.400 . S
C1287 C1292 1.490 1_556 S
C1288 H1278 0.930 . S
C1288 C1287 1.400 . S
C1288 C1291 1.386 . S
H1289 C1305 0.930 . S
H1290 C1306 0.931 . S
C1291 H1279 0.929 . S
C1291 C1285 1.390 . S
C1291 C1288 1.386 . S
C1292 C1287 1.490 1_554 S
C1292 C1294 1.395 . S
C1292 C1295 1.403 . S
H1293 C1299 0.930 . S
C1294 H1280 0.930 . S
C1294 C1292 1.395 . S
C1294 C1297 1.403 . S
C1295 C1292 1.403 . S
C1295 C1296 1.524 1_554 S
C1295 C1299 1.400 . S
C1296 H1281 0.960 . S
C1296 H1282 0.960 . S
C1296 H1283 0.960 . S
C1296 C1295 1.524 1_556 S
C1297 C1294 1.403 . S
C1297 C1298 1.392 . S
C1297 C1301 1.495 . S
C1298 C1297 1.392 . S
C1298 C1299 1.385 . S
C1298 C1300 1.478 . S
C1299 H1293 0.930 . S
C1299 C1295 1.400 . S
C1299 C1298 1.385 . S
C1300 C1298 1.478 . S
C1300 C1302 1.381 . S
C1300 C1306 1.383 . S
C1301 C1297 1.495 . S
C1301 H1307 0.959 . S
C1301 H1308 0.961 . S
C1301 H1309 0.960 . S
C1302 C1300 1.381 . S
C1302 C1303 1.394 . S
C1302 H1310 0.930 . S
C1303 C1302 1.394 . S
C1303 C1304 1.383 . S
C1303 H1311 0.929 . S
C1304 C1303 1.383 . S
C1304 C1305 1.377 . S
C1305 H1289 0.930 . S
C1305 C1304 1.377 . S
C1305 C1306 1.379 . S
C1306 H1290 0.931 . S
C1306 C1300 1.383 . S
C1306 C1305 1.379 . S
H1307 C1301 0.959 . S
H1308 C1301 0.961 . S
H1309 C1301 0.960 . S
H1310 C1302 0.930 . S
H1311 C1303 0.929 . S
H1312 C1320 0.929 . S
H1313 C1322 0.930 . S
H1314 C1324 0.930 . S
H1315 C1327 0.929 . S
H1316 C1330 0.930 . S
H1317 C1332 0.960 . S
H1318 C1332 0.960 . S
H1319 C1332 0.960 . S
C1320 H1312 0.929 . S
C1320 C1321 1.377 . S
C1320 C1322 1.384 . S
C1321 C1320 1.377 . S
C1321 C1327 1.390 . S
C1322 H1313 0.930 . S
C1322 C1320 1.384 . S
C1322 C1323 1.372 . S
C1323 C1322 1.372 . S
C1323 C1324 1.400 . S
C1323 C1328 1.490 . S
C1324 H1314 0.930 . S
C1324 C1323 1.400 . S
C1324 C1327 1.386 . S
H1325 C1341 0.930 . S
H1326 C1342 0.931 1_655 S
C1327 H1315 0.929 . S
C1327 C1321 1.390 . S
C1327 C1324 1.386 . S
C1328 C1323 1.490 . S
C1328 C1330 1.395 . S
C1328 C1331 1.403 . S
H1329 C1335 0.930 . S
C1330 H1316 0.930 . S
C1330 C1328 1.395 . S
C1330 C1333 1.403 . S
C1331 C1328 1.403 . S
C1331 C1332 1.524 . S
C1331 C1335 1.400 . S
C1332 H1317 0.960 . S
C1332 H1318 0.960 . S
C1332 H1319 0.960 . S
C1332 C1331 1.524 . S
C1333 C1330 1.403 . S
C1333 C1334 1.392 . S
C1333 C1337 1.495 1_655 S
C1334 C1333 1.392 . S
C1334 C1335 1.385 . S
C1334 C1336 1.478 1_655 S
C1335 H1329 0.930 . S
C1335 C1331 1.400 . S
C1335 C1334 1.385 . S
C1336 C1334 1.478 1_455 S
C1336 C1338 1.381 . S
C1336 C1342 1.383 . S
C1337 C1333 1.495 1_455 S
C1337 H1343 0.959 . S
C1337 H1344 0.961 . S
C1337 H1345 0.960 . S
C1338 C1336 1.381 . S
C1338 C1339 1.394 . S
C1338 H1346 0.930 . S
C1339 C1338 1.394 . S
C1339 C1340 1.383 . S
C1339 H1347 0.929 . S
C1340 C1339 1.383 . S
C1340 C1341 1.377 . S
C1341 H1325 0.930 . S
C1341 C1340 1.377 . S
C1341 C1342 1.379 . S
C1342 H1326 0.931 1_455 S
C1342 C1336 1.383 . S
C1342 C1341 1.379 . S
H1343 C1337 0.959 . S
H1344 C1337 0.961 . S
H1345 C1337 0.960 . S
H1346 C1338 0.930 . S
H1347 C1339 0.929 . S
H1348 C1356 0.929 . S
H1349 C1358 0.930 . S
H1350 C1360 0.930 . S
H1351 C1363 0.929 . S
H1352 C1366 0.930 . S
H1353 C1368 0.960 . S
H1354 C1368 0.960 . S
H1355 C1368 0.960 . S
C1356 H1348 0.929 . S
C1356 C1357 1.377 . S
C1356 C1358 1.384 . S
C1357 C1356 1.377 . S
C1357 C1363 1.390 . S
C1358 H1349 0.930 . S
C1358 C1356 1.384 . S
C1358 C1359 1.372 . S
C1359 C1358 1.372 . S
C1359 C1360 1.400 . S
C1359 C1364 1.490 . S
C1360 H1350 0.930 . S
C1360 C1359 1.400 . S
C1360 C1363 1.386 . S
H1361 C1377 0.930 . S
H1362 C1378 0.931 . S
C1363 H1351 0.929 . S
C1363 C1357 1.390 . S
C1363 C1360 1.386 . S
C1364 C1359 1.490 . S
C1364 C1366 1.395 . S
C1364 C1367 1.403 . S
H1365 C1371 0.930 . S
C1366 H1352 0.930 . S
C1366 C1364 1.395 . S
C1366 C1369 1.403 . S
C1367 C1364 1.403 . S
C1367 C1368 1.524 . S
C1367 C1371 1.400 . S
C1368 H1353 0.960 . S
C1368 H1354 0.960 . S
C1368 H1355 0.960 . S
C1368 C1367 1.524 . S
C1369 C1366 1.403 . S
C1369 C1370 1.392 . S
C1369 C1373 1.495 . S
C1370 C1369 1.392 . S
C1370 C1371 1.385 . S
C1370 C1372 1.478 . S
C1371 H1365 0.930 . S
C1371 C1367 1.400 . S
C1371 C1370 1.385 . S
C1372 C1370 1.478 . S
C1372 C1374 1.381 . S
C1372 C1378 1.383 . S
C1373 C1369 1.495 . S
C1373 H1379 0.959 . S
C1373 H1380 0.961 . S
C1373 H1381 0.960 . S
C1374 C1372 1.381 . S
C1374 C1375 1.394 . S
C1374 H1382 0.930 . S
C1375 C1374 1.394 . S
C1375 C1376 1.383 . S
C1375 H1383 0.929 . S
C1376 C1375 1.383 . S
C1376 C1377 1.377 . S
C1377 H1361 0.930 . S
C1377 C1376 1.377 . S
C1377 C1378 1.379 . S
C1378 H1362 0.931 . S
C1378 C1372 1.383 . S
C1378 C1377 1.379 . S
H1379 C1373 0.959 . S
H1380 C1373 0.961 . S
H1381 C1373 0.960 . S
H1382 C1374 0.930 . S
H1383 C1375 0.929 . S
H1384 C1392 0.929 . S
H1385 C1394 0.930 . S
H1386 C1396 0.930 . S
H1387 C1399 0.929 . S
H1388 C1402 0.915 1_655 S
H1389 C1404 0.960 . S
H1390 C1404 0.960 . S
H1391 C1404 0.960 . S
C1392 H1384 0.929 . S
C1392 C1393 1.377 . S
C1392 C1394 1.384 . S
C1393 C1392 1.377 . S
C1393 C1399 1.390 . S
C1394 H1385 0.930 . S
C1394 C1392 1.384 . S
C1394 C1395 1.372 . S
C1395 C1394 1.372 . S
C1395 C1396 1.400 . S
C1395 C1400 1.490 1_655 S
C1396 H1386 0.930 . S
C1396 C1395 1.400 . S
C1396 C1399 1.386 . S
H1397 C1413 0.930 . S
H1398 C1414 0.931 . S
C1399 H1387 0.929 . S
C1399 C1393 1.390 . S
C1399 C1396 1.386 . S
C1400 C1395 1.490 1_455 S
C1400 C1402 1.395 . S
C1400 C1403 1.403 . S
H1401 C1407 0.930 . S
C1402 H1388 0.915 1_455 S
C1402 C1400 1.395 . S
C1402 C1405 1.403 . S
C1403 C1400 1.403 . S
C1403 C1404 1.524 . S
C1403 C1407 1.400 . S
C1404 H1389 0.960 . S
C1404 H1390 0.960 . S
C1404 H1391 0.960 . S
C1404 C1403 1.524 . S
C1405 C1402 1.403 . S
C1405 C1406 1.392 . S
C1405 C1409 1.495 . S
C1406 C1405 1.392 . S
C1406 C1407 1.385 . S
C1406 C1408 1.478 . S
C1407 H1401 0.930 . S
C1407 C1403 1.400 . S
C1407 C1406 1.385 . S
C1408 C1406 1.478 . S
C1408 C1410 1.381 . S
C1408 C1414 1.383 . S
C1409 C1405 1.495 . S
C1409 H1415 0.959 . S
C1409 H1416 0.961 . S
C1409 H1417 0.960 . S
C1410 C1408 1.381 . S
C1410 C1411 1.394 . S
C1410 H1418 0.930 . S
C1411 C1410 1.394 . S
C1411 C1412 1.383 . S
C1411 H1419 0.929 . S
C1412 C1411 1.383 . S
C1412 C1413 1.377 . S
C1413 H1397 0.930 . S
C1413 C1412 1.377 . S
C1413 C1414 1.379 . S
C1414 H1398 0.931 . S
C1414 C1408 1.383 . S
C1414 C1413 1.379 . S
H1415 C1409 0.959 . S
H1416 C1409 0.961 . S
H1417 C1409 0.960 . S
H1418 C1410 0.930 . S
H1419 C1411 0.929 . S
H1420 C1428 0.929 . S
H1421 C1430 0.930 1_455 S
H1422 C1432 0.930 . S
H1423 C1435 0.929 . S
H1424 C1438 0.930 . S
H1425 C1440 0.960 . S
H1426 C1440 0.960 . S
H1427 C1440 0.960 . S
C1428 H1420 0.929 . S
C1428 C1429 1.377 . S
C1428 C1430 1.384 . S
C1429 C1428 1.377 . S
C1429 C1435 1.390 . S
C1430 H1421 0.930 1_655 S
C1430 C1428 1.384 . S
C1430 C1431 1.372 . S
C1431 C1430 1.372 . S
C1431 C1432 1.400 . S
C1431 C1436 1.490 1_655 S
C1432 H1422 0.930 . S
C1432 C1431 1.400 . S
C1432 C1435 1.386 . S
H1433 C1449 0.930 . S
H1434 C1450 0.931 . S
C1435 H1423 0.929 . S
C1435 C1429 1.390 . S
C1435 C1432 1.386 . S
C1436 C1431 1.490 1_455 S
C1436 C1438 1.395 . S
C1436 C1439 1.403 . S
H1437 C1443 0.930 . S
C1438 H1424 0.930 . S
C1438 C1436 1.395 . S
C1438 C1441 1.403 . S
C1439 C1436 1.403 . S
C1439 C1440 1.524 . S
C1439 C1443 1.400 . S
C1440 H1425 0.960 . S
C1440 H1426 0.960 . S
C1440 H1427 0.960 . S
C1440 C1439 1.524 . S
C1441 C1438 1.403 . S
C1441 C1442 1.392 . S
C1441 C1445 1.495 . S
C1442 C1441 1.392 . S
C1442 C1443 1.385 . S
C1442 C1444 1.478 . S
C1443 H1437 0.930 . S
C1443 C1439 1.400 . S
C1443 C1442 1.385 . S
C1444 C1442 1.478 . S
C1444 C1446 1.381 . S
C1444 C1450 1.383 . S
C1445 C1441 1.495 . S
C1445 H1451 0.959 . S
C1445 H1452 0.961 . S
C1445 H1453 0.960 . S
C1446 C1444 1.381 . S
C1446 C1447 1.394 . S
C1446 H1454 0.930 . S
C1447 C1446 1.394 . S
C1447 C1448 1.383 . S
C1447 H1455 0.929 . S
C1448 C1447 1.383 . S
C1448 C1449 1.377 . S
C1449 H1433 0.930 . S
C1449 C1448 1.377 . S
C1449 C1450 1.379 . S
C1450 H1434 0.931 . S
C1450 C1444 1.383 . S
C1450 C1449 1.379 . S
H1451 C1445 0.959 . S
H1452 C1445 0.961 . S
H1453 C1445 0.960 . S
H1454 C1446 0.930 . S
H1455 C1447 0.929 . S
H1456 C1464 0.929 . S
H1457 C1466 0.930 . S
H1458 C1468 0.930 . S
H1459 C1471 0.929 . S
H1460 C1474 0.930 . S
H1461 C1476 0.960 . S
H1462 C1476 0.960 . S
H1463 C1476 0.960 . S
C1464 H1456 0.929 . S
C1464 C1465 1.377 . S
C1464 C1466 1.384 . S
C1465 C1464 1.377 . S
C1465 C1471 1.390 . S
C1466 H1457 0.930 . S
C1466 C1464 1.384 . S
C1466 C1467 1.372 . S
C1467 C1466 1.372 . S
C1467 C1468 1.400 . S
C1467 C1472 1.490 . S
C1468 H1458 0.930 . S
C1468 C1467 1.400 . S
C1468 C1471 1.386 . S
H1469 C1485 0.930 . S
H1470 C1486 0.931 . S
C1471 H1459 0.929 . S
C1471 C1465 1.390 . S
C1471 C1468 1.386 . S
C1472 C1467 1.490 . S
C1472 C1474 1.395 . S
C1472 C1475 1.403 . S
H1473 C1479 0.930 . S
C1474 H1460 0.930 . S
C1474 C1472 1.395 . S
C1474 C1477 1.403 . S
C1475 C1472 1.403 . S
C1475 C1476 1.524 . S
C1475 C1479 1.400 . S
C1476 H1461 0.960 . S
C1476 H1462 0.960 . S
C1476 H1463 0.960 . S
C1476 C1475 1.524 . S
C1477 C1474 1.403 . S
C1477 C1478 1.392 . S
C1477 C1481 1.495 . S
C1478 C1477 1.392 . S
C1478 C1479 1.385 . S
C1478 C1480 1.478 . S
C1479 H1473 0.930 . S
C1479 C1475 1.400 . S
C1479 C1478 1.385 . S
C1480 C1478 1.478 . S
C1480 C1482 1.381 . S
C1480 C1486 1.383 . S
C1481 C1477 1.495 . S
C1481 H1487 0.959 . S
C1481 H1488 0.961 . S
C1481 H1489 0.960 . S
C1482 C1480 1.381 . S
C1482 C1483 1.394 . S
C1482 H1490 0.930 . S
C1483 C1482 1.394 . S
C1483 C1484 1.383 . S
C1483 H1491 0.929 . S
C1484 C1483 1.383 . S
C1484 C1485 1.377 . S
C1485 H1469 0.930 . S
C1485 C1484 1.377 . S
C1485 C1486 1.379 . S
C1486 H1470 0.931 . S
C1486 C1480 1.383 . S
C1486 C1485 1.379 . S
H1487 C1481 0.959 . S
H1488 C1481 0.961 . S
H1489 C1481 0.960 . S
H1490 C1482 0.930 . S
H1491 C1483 0.929 . S
H1492 C1500 0.929 . S
H1493 C1502 0.930 . S
H1494 C1504 0.930 . S
H1495 C1507 0.929 . S
H1496 C1510 0.930 . S
H1497 C1512 0.960 . S
H1498 C1512 0.960 . S
H1499 C1512 0.960 . S
C1500 H1492 0.929 . S
C1500 C1501 1.377 . S
C1500 C1502 1.384 . S
C1501 C1500 1.377 . S
C1501 C1507 1.390 . S
C1502 H1493 0.930 . S
C1502 C1500 1.384 . S
C1502 C1503 1.372 . S
C1503 C1502 1.372 . S
C1503 C1504 1.400 . S
C1503 C1508 1.490 . S
C1504 H1494 0.930 . S
C1504 C1503 1.400 . S
C1504 C1507 1.386 . S
H1505 C1521 0.930 . S
H1506 C1522 0.931 . S
C1507 H1495 0.929 . S
C1507 C1501 1.390 . S
C1507 C1504 1.386 . S
C1508 C1503 1.490 . S
C1508 C1510 1.395 . S
C1508 C1511 1.403 . S
H1509 C1515 0.930 . S
C1510 H1496 0.930 . S
C1510 C1508 1.395 . S
C1510 C1513 1.403 . S
C1511 C1508 1.403 . S
C1511 C1512 1.524 . S
C1511 C1515 1.400 . S
C1512 H1497 0.960 . S
C1512 H1498 0.960 . S
C1512 H1499 0.960 . S
C1512 C1511 1.524 . S
C1513 C1510 1.403 . S
C1513 C1514 1.392 . S
C1513 C1517 1.495 1_655 S
C1514 C1513 1.392 . S
C1514 C1515 1.385 . S
C1514 C1516 1.478 1_655 S
C1515 H1509 0.930 . S
C1515 C1511 1.400 . S
C1515 C1514 1.385 . S
C1516 C1514 1.478 1_455 S
C1516 C1518 1.381 . S
C1516 C1522 1.383 . S
C1517 C1513 1.495 1_455 S
C1517 H1523 0.959 . S
C1517 H1524 0.961 . S
C1517 H1525 0.960 . S
C1518 C1516 1.381 . S
C1518 C1519 1.394 . S
C1518 H1526 0.930 . S
C1519 C1518 1.394 . S
C1519 C1520 1.383 . S
C1519 H1527 0.929 . S
C1520 C1519 1.383 . S
C1520 C1521 1.377 . S
C1521 H1505 0.930 . S
C1521 C1520 1.377 . S
C1521 C1522 1.379 . S
C1522 H1506 0.931 . S
C1522 C1516 1.383 . S
C1522 C1521 1.379 . S
H1523 C1517 0.959 . S
H1524 C1517 0.961 . S
H1525 C1517 0.960 . S
H1526 C1518 0.930 . S
H1527 C1519 0.929 . S
H1528 C1536 0.929 . S
H1529 C1538 0.930 . S
H1530 C1540 0.930 . S
H1531 C1543 0.929 . S
H1532 C1546 0.930 . S
H1533 C1548 0.960 . S
H1534 C1548 0.960 . S
H1535 C1548 0.960 . S
C1536 H1528 0.929 . S
C1536 C1537 1.377 . S
C1536 C1538 1.384 . S
C1537 C1536 1.377 . S
C1537 C1543 1.390 . S
C1538 H1529 0.930 . S
C1538 C1536 1.384 . S
C1538 C1539 1.372 . S
C1539 C1538 1.372 . S
C1539 C1540 1.400 . S
C1539 C1544 1.490 . S
C1540 H1530 0.930 . S
C1540 C1539 1.400 . S
C1540 C1543 1.386 . S
H1541 C1557 0.930 . S
H1542 C1558 0.931 . S
C1543 H1531 0.929 . S
C1543 C1537 1.390 . S
C1543 C1540 1.386 . S
C1544 C1539 1.490 . S
C1544 C1546 1.395 . S
C1544 C1547 1.403 . S
H1545 C1551 0.930 . S
C1546 H1532 0.930 . S
C1546 C1544 1.395 . S
C1546 C1549 1.403 . S
C1547 C1544 1.403 . S
C1547 C1548 1.524 . S
C1547 C1551 1.400 . S
C1548 H1533 0.960 . S
C1548 H1534 0.960 . S
C1548 H1535 0.960 . S
C1548 C1547 1.524 . S
C1549 C1546 1.403 . S
C1549 C1550 1.392 . S
C1549 C1553 1.495 . S
C1550 C1549 1.392 . S
C1550 C1551 1.385 . S
C1550 C1552 1.478 . S
C1551 H1545 0.930 . S
C1551 C1547 1.400 . S
C1551 C1550 1.385 . S
C1552 C1550 1.478 . S
C1552 C1554 1.381 . S
C1552 C1558 1.383 . S
C1553 C1549 1.495 . S
C1553 H1559 0.959 . S
C1553 H1560 0.961 . S
C1553 H1561 0.960 . S
C1554 C1552 1.381 . S
C1554 C1555 1.394 . S
C1554 H1562 0.930 . S
C1555 C1554 1.394 . S
C1555 C1556 1.383 . S
C1555 H1563 0.929 . S
C1556 C1555 1.383 . S
C1556 C1557 1.377 . S
C1557 H1541 0.930 . S
C1557 C1556 1.377 . S
C1557 C1558 1.379 . S
C1558 H1542 0.931 . S
C1558 C1552 1.383 . S
C1558 C1557 1.379 . S
H1559 C1553 0.959 . S
H1560 C1553 0.961 . S
H1561 C1553 0.960 . S
H1562 C1554 0.930 . S
H1563 C1555 0.929 . S
H1564 C1572 0.929 . S
H1565 C1574 0.930 . S
H1566 C1576 0.930 . S
H1567 C1579 0.929 . S
H1568 C1582 0.930 . S
H1569 C1584 0.960 . S
H1570 C1584 0.960 . S
H1571 C1584 0.960 . S
C1572 H1564 0.929 . S
C1572 C1573 1.377 . S
C1572 C1574 1.384 . S
C1573 C1572 1.377 . S
C1573 C1579 1.390 . S
C1574 H1565 0.930 . S
C1574 C1572 1.384 . S
C1574 C1575 1.372 . S
C1575 C1574 1.372 . S
C1575 C1576 1.400 . S
C1575 C1580 1.490 . S
C1576 H1566 0.930 . S
C1576 C1575 1.400 . S
C1576 C1579 1.386 . S
H1577 C1593 0.930 . S
H1578 C1594 0.931 . S
C1579 H1567 0.929 . S
C1579 C1573 1.390 . S
C1579 C1576 1.386 . S
C1580 C1575 1.490 . S
C1580 C1582 1.395 . S
C1580 C1583 1.403 . S
H1581 C1587 0.930 1_565 S
C1582 H1568 0.930 . S
C1582 C1580 1.395 . S
C1582 C1585 1.403 . S
C1583 C1580 1.403 . S
C1583 C1584 1.524 . S
C1583 C1587 1.400 . S
C1584 H1569 0.960 . S
C1584 H1570 0.960 . S
C1584 H1571 0.960 . S
C1584 C1583 1.524 . S
C1585 C1582 1.403 . S
C1585 C1586 1.392 . S
C1585 C1589 1.495 . S
C1586 C1585 1.392 . S
C1586 C1587 1.385 . S
C1586 C1588 1.478 1_545 S
C1587 H1581 0.930 1_545 S
C1587 C1583 1.400 . S
C1587 C1586 1.385 . S
C1588 C1586 1.478 1_565 S
C1588 C1590 1.381 . S
C1588 C1594 1.383 . S
C1589 C1585 1.495 . S
C1589 H1595 0.959 . S
C1589 H1596 0.961 . S
C1589 H1597 0.960 . S
C1590 C1588 1.381 . S
C1590 C1591 1.394 . S
C1590 H1598 0.930 1_565 S
C1591 C1590 1.394 . S
C1591 C1592 1.383 . S
C1591 H1599 0.929 . S
C1592 C1591 1.383 . S
C1592 C1593 1.377 . S
C1593 H1577 0.930 . S
C1593 C1592 1.377 . S
C1593 C1594 1.379 . S
C1594 H1578 0.931 . S
C1594 C1588 1.383 . S
C1594 C1593 1.379 . S
H1595 C1589 0.959 . S
H1596 C1589 0.961 . S
H1597 C1589 0.960 . S
H1598 C1590 0.930 1_545 S
H1599 C1591 0.929 . S
H1600 C1608 0.929 . S
H1601 C1610 0.930 . S
H1602 C1612 0.930 . S
H1603 C1615 0.929 . S
H1604 C1618 0.930 . S
H1605 C1620 0.960 . S
H1606 C1620 0.960 . S
H1607 C1620 0.960 . S
C1608 H1600 0.929 . S
C1608 C1609 1.377 . S
C1608 C1610 1.384 . S
C1609 C1608 1.377 . S
C1609 C1615 1.390 . S
C1610 H1601 0.930 . S
C1610 C1608 1.384 . S
C1610 C1611 1.372 . S
C1611 C1610 1.372 . S
C1611 C1612 1.400 . S
C1611 C1616 1.490 . S
C1612 H1602 0.930 . S
C1612 C1611 1.400 . S
C1612 C1615 1.386 . S
H1613 C1629 0.930 . S
H1614 C1630 0.931 . S
C1615 H1603 0.929 . S
C1615 C1609 1.390 . S
C1615 C1612 1.386 . S
C1616 C1611 1.490 . S
C1616 C1618 1.395 . S
C1616 C1619 1.403 . S
H1617 C1623 0.930 . S
C1618 H1604 0.930 . S
C1618 C1616 1.395 . S
C1618 C1621 1.403 . S
C1619 C1616 1.403 . S
C1619 C1620 1.524 . S
C1619 C1623 1.400 . S
C1620 H1605 0.960 . S
C1620 H1606 0.960 . S
C1620 H1607 0.960 . S
C1620 C1619 1.524 . S
C1621 C1618 1.403 . S
C1621 C1622 1.392 . S
C1621 C1625 1.495 . S
C1622 C1621 1.392 . S
C1622 C1623 1.385 . S
C1622 C1624 1.478 . S
C1623 H1617 0.930 . S
C1623 C1619 1.400 . S
C1623 C1622 1.385 . S
C1624 C1622 1.478 . S
C1624 C1626 1.381 . S
C1624 C1630 1.383 . S
C1625 C1621 1.495 . S
C1625 H1631 0.959 . S
C1625 H1632 0.961 . S
C1625 H1633 0.960 . S
C1626 C1624 1.381 . S
C1626 C1627 1.394 . S
C1626 H1634 0.930 . S
C1627 C1626 1.394 . S
C1627 C1628 1.383 . S
C1627 H1635 0.929 . S
C1628 C1627 1.383 . S
C1628 C1629 1.377 . S
C1629 H1613 0.930 . S
C1629 C1628 1.377 . S
C1629 C1630 1.379 . S
C1630 H1614 0.931 . S
C1630 C1624 1.383 . S
C1630 C1629 1.379 . S
H1631 C1625 0.959 . S
H1632 C1625 0.961 . S
H1633 C1625 0.960 . S
H1634 C1626 0.930 . S
H1635 C1627 0.929 . S
H1636 C1644 0.929 . S
H1637 C1646 0.930 . S
H1638 C1648 0.930 . S
H1639 C1651 0.929 . S
H1640 C1654 0.923 1_565 S
H1641 C1656 0.962 . S
H1642 C1656 0.960 . S
H1643 C1656 0.960 . S
C1644 H1636 0.929 . S
C1644 C1645 1.377 . S
C1644 C1646 1.384 . S
C1645 C1644 1.377 . S
C1645 C1651 1.390 . S
C1646 H1637 0.930 . S
C1646 C1644 1.384 . S
C1646 C1647 1.372 . S
C1647 C1646 1.372 . S
C1647 C1648 1.400 . S
C1647 C1652 1.490 . S
C1648 H1638 0.930 . S
C1648 C1647 1.400 . S
C1648 C1651 1.386 . S
H1649 C1665 0.930 . S
H1650 C1666 0.931 . S
C1651 H1639 0.929 . S
C1651 C1645 1.390 . S
C1651 C1648 1.386 . S
C1652 C1647 1.490 . S
C1652 C1654 1.384 1_565 S
C1652 C1655 1.402 . S
H1653 C1659 0.930 . S
C1654 H1640 0.923 1_545 S
C1654 C1652 1.384 1_545 S
C1654 C1657 1.422 . S
C1655 C1652 1.402 . S
C1655 C1656 1.523 . S
C1655 C1659 1.401 1_565 S
C1656 H1641 0.962 . S
C1656 H1642 0.960 . S
C1656 H1643 0.960 . S
C1656 C1655 1.523 . S
C1657 C1654 1.422 . S
C1657 C1658 1.392 . S
C1657 C1661 1.495 . S
C1658 C1657 1.392 . S
C1658 C1659 1.385 . S
C1658 C1660 1.478 . S
C1659 H1653 0.930 . S
C1659 C1655 1.401 1_545 S
C1659 C1658 1.385 . S
C1660 C1658 1.478 . S
C1660 C1662 1.381 . S
C1660 C1666 1.383 . S
C1661 C1657 1.495 . S
C1661 H1667 0.959 . S
C1661 H1668 0.961 . S
C1661 H1669 0.960 . S
C1662 C1660 1.381 . S
C1662 C1663 1.394 . S
C1662 H1670 0.930 . S
C1663 C1662 1.394 . S
C1663 C1664 1.383 . S
C1663 H1671 0.929 . S
C1664 C1663 1.383 . S
C1664 C1665 1.377 . S
C1665 H1649 0.930 . S
C1665 C1664 1.377 . S
C1665 C1666 1.379 . S
C1666 H1650 0.931 . S
C1666 C1660 1.383 . S
C1666 C1665 1.379 . S
H1667 C1661 0.959 . S
H1668 C1661 0.961 . S
H1669 C1661 0.960 . S
H1670 C1662 0.930 . S
H1671 C1663 0.929 . S
H1672 C1680 0.929 . S
H1673 C1682 0.930 . S
H1674 C1684 0.930 . S
H1675 C1687 0.929 . S
H1676 C1690 0.930 . S
H1677 C1692 0.960 . S
H1678 C1692 0.960 . S
H1679 C1692 0.960 . S
C1680 H1672 0.929 . S
C1680 C1681 1.377 . S
C1680 C1682 1.384 . S
C1681 C1680 1.377 . S
C1681 C1687 1.390 . S
C1682 H1673 0.930 . S
C1682 C1680 1.384 . S
C1682 C1683 1.372 . S
C1683 C1682 1.372 . S
C1683 C1684 1.400 . S
C1683 C1688 1.490 . S
C1684 H1674 0.930 . S
C1684 C1683 1.400 . S
C1684 C1687 1.386 . S
H1685 C1701 0.930 . S
H1686 C1702 0.931 . S
C1687 H1675 0.929 . S
C1687 C1681 1.390 . S
C1687 C1684 1.386 . S
C1688 C1683 1.490 . S
C1688 C1690 1.395 1_556 S
C1688 C1691 1.403 . S
H1689 C1695 0.930 . S
C1690 H1676 0.930 . S
C1690 C1688 1.395 1_554 S
C1690 C1693 1.403 . S
C1691 C1688 1.403 . S
C1691 C1692 1.524 . S
C1691 C1695 1.400 . S
C1692 H1677 0.960 . S
C1692 H1678 0.960 . S
C1692 H1679 0.960 . S
C1692 C1691 1.524 . S
C1693 C1690 1.403 . S
C1693 C1694 1.392 . S
C1693 C1697 1.495 . S
C1694 C1693 1.392 . S
C1694 C1695 1.385 1_554 S
C1694 C1696 1.478 . S
C1695 H1689 0.930 . S
C1695 C1691 1.400 . S
C1695 C1694 1.385 1_556 S
C1696 C1694 1.478 . S
C1696 C1698 1.381 . S
C1696 C1702 1.383 . S
C1697 C1693 1.495 . S
C1697 H1703 0.959 . S
C1697 H1704 0.961 . S
C1697 H1705 0.960 . S
C1698 C1696 1.381 . S
C1698 C1699 1.394 . S
C1698 H1706 0.930 . S
C1699 C1698 1.394 . S
C1699 C1700 1.383 . S
C1699 H1707 0.929 . S
C1700 C1699 1.383 . S
C1700 C1701 1.377 . S
C1701 H1685 0.930 . S
C1701 C1700 1.377 . S
C1701 C1702 1.379 . S
C1702 H1686 0.931 . S
C1702 C1696 1.383 . S
C1702 C1701 1.379 . S
H1703 C1697 0.959 . S
H1704 C1697 0.961 . S
H1705 C1697 0.960 . S
H1706 C1698 0.930 . S
H1707 C1699 0.929 . S
H1708 C1716 0.929 . S
H1709 C1718 0.930 . S
H1710 C1720 0.930 . S
H1711 C1723 0.929 . S
H1712 C1726 0.936 . S
H1713 C1728 0.960 . S
H1714 C1728 0.960 . S
H1715 C1728 0.960 . S
C1716 H1708 0.929 . S
C1716 C1717 1.377 . S
C1716 C1718 1.384 . S
C1717 C1716 1.377 . S
C1717 C1723 1.390 . S
C1718 H1709 0.930 . S
C1718 C1716 1.384 . S
C1718 C1719 1.372 . S
C1719 C1718 1.372 . S
C1719 C1720 1.400 . S
C1719 C1724 1.490 . S
C1720 H1710 0.930 . S
C1720 C1719 1.400 . S
C1720 C1723 1.386 . S
H1721 C1737 0.930 . S
H1722 C1738 0.931 . S
C1723 H1711 0.929 . S
C1723 C1717 1.390 . S
C1723 C1720 1.386 . S
C1724 C1719 1.490 . S
C1724 C1726 1.395 1_545 S
C1724 C1727 1.403 . S
H1725 C1731 0.930 . S
C1726 H1712 0.936 . S
C1726 C1724 1.395 1_565 S
C1726 C1729 1.403 . S
C1727 C1724 1.403 . S
C1727 C1728 1.524 . S
C1727 C1731 1.400 1_545 S
C1728 H1713 0.960 . S
C1728 H1714 0.960 . S
C1728 H1715 0.960 . S
C1728 C1727 1.524 . S
C1729 C1726 1.403 . S
C1729 C1730 1.392 . S
C1729 C1733 1.495 . S
C1730 C1729 1.392 . S
C1730 C1731 1.385 . S
C1730 C1732 1.478 . S
C1731 H1725 0.930 . S
C1731 C1727 1.400 1_565 S
C1731 C1730 1.385 . S
C1732 C1730 1.478 . S
C1732 C1734 1.381 . S
C1732 C1738 1.383 . S
C1733 C1729 1.495 . S
C1733 H1739 0.959 . S
C1733 H1740 0.961 . S
C1733 H1741 0.960 . S
C1734 C1732 1.381 . S
C1734 C1735 1.394 . S
C1734 H1742 0.930 . S
C1735 C1734 1.394 . S
C1735 C1736 1.383 . S
C1735 H1743 0.929 . S
C1736 C1735 1.383 . S
C1736 C1737 1.377 . S
C1737 H1721 0.930 . S
C1737 C1736 1.377 . S
C1737 C1738 1.379 . S
C1738 H1722 0.931 . S
C1738 C1732 1.383 . S
C1738 C1737 1.379 . S
H1739 C1733 0.959 . S
H1740 C1733 0.961 . S
H1741 C1733 0.960 . S
H1742 C1734 0.930 . S
H1743 C1735 0.929 . S
H1744 C1752 0.929 . S
H1745 C1754 0.930 . S
H1746 C1756 0.930 . S
H1747 C1759 0.929 . S
H1748 C1762 0.930 . S
H1749 C1764 0.960 . S
H1750 C1764 0.960 . S
H1751 C1764 0.960 . S
C1752 H1744 0.929 . S
C1752 C1753 1.377 . S
C1752 C1754 1.384 . S
C1753 C1752 1.377 . S
C1753 C1759 1.390 . S
C1754 H1745 0.930 . S
C1754 C1752 1.384 . S
C1754 C1755 1.372 . S
C1755 C1754 1.372 . S
C1755 C1756 1.400 . S
C1755 C1760 1.490 . S
C1756 H1746 0.930 . S
C1756 C1755 1.400 . S
C1756 C1759 1.386 . S
H1757 C1773 0.930 . S
H1758 C1774 0.931 . S
C1759 H1747 0.929 . S
C1759 C1753 1.390 . S
C1759 C1756 1.386 . S
C1760 C1755 1.490 . S
C1760 C1762 1.395 . S
C1760 C1763 1.403 . S
H1761 C1767 0.930 . S
C1762 H1748 0.930 . S
C1762 C1760 1.395 . S
C1762 C1765 1.403 . S
C1763 C1760 1.403 . S
C1763 C1764 1.524 . S
C1763 C1767 1.400 . S
C1764 H1749 0.960 . S
C1764 H1750 0.960 . S
C1764 H1751 0.960 . S
C1764 C1763 1.524 . S
C1765 C1762 1.403 . S
C1765 C1766 1.392 . S
C1765 C1769 1.495 . S
C1766 C1765 1.392 . S
C1766 C1767 1.385 . S
C1766 C1768 1.478 . S
C1767 H1761 0.930 . S
C1767 C1763 1.400 . S
C1767 C1766 1.385 . S
C1768 C1766 1.478 . S
C1768 C1770 1.381 . S
C1768 C1774 1.383 . S
C1769 C1765 1.495 . S
C1769 H1775 0.959 . S
C1769 H1776 0.961 . S
C1769 H1777 0.960 . S
C1770 C1768 1.381 . S
C1770 C1771 1.394 . S
C1770 H1778 0.930 . S
C1771 C1770 1.394 . S
C1771 C1772 1.383 . S
C1771 H1779 0.929 . S
C1772 C1771 1.383 . S
C1772 C1773 1.377 . S
C1773 H1757 0.930 . S
C1773 C1772 1.377 . S
C1773 C1774 1.379 . S
C1774 H1758 0.931 . S
C1774 C1768 1.383 . S
C1774 C1773 1.379 . S
H1775 C1769 0.959 . S
H1776 C1769 0.961 . S
H1777 C1769 0.960 . S
H1778 C1770 0.930 . S
H1779 C1771 0.929 . S
H1780 C1788 0.929 . S
H1781 C1790 0.930 . S
H1782 C1792 0.930 . S
H1783 C1795 0.929 . S
H1784 C1798 0.930 . S
H1785 C1800 0.960 . S
H1786 C1800 0.960 . S
H1787 C1800 0.960 . S
C1788 H1780 0.929 . S
C1788 C1789 1.377 . S
C1788 C1790 1.384 . S
C1789 C1788 1.377 . S
C1789 C1795 1.390 . S
C1790 H1781 0.930 . S
C1790 C1788 1.384 . S
C1790 C1791 1.372 . S
C1791 C1790 1.372 . S
C1791 C1792 1.400 . S
C1791 C1796 1.490 . S
C1792 H1782 0.930 . S
C1792 C1791 1.400 . S
C1792 C1795 1.386 . S
H1793 C1809 0.930 . S
H1794 C1810 0.931 . S
C1795 H1783 0.929 . S
C1795 C1789 1.390 . S
C1795 C1792 1.386 . S
C1796 C1791 1.490 . S
C1796 C1798 1.395 . S
C1796 C1799 1.403 1_565 S
H1797 C1803 0.930 . S
C1798 H1784 0.930 . S
C1798 C1796 1.395 . S
C1798 C1801 1.403 1_565 S
C1799 C1796 1.403 1_545 S
C1799 C1800 1.524 . S
C1799 C1803 1.400 . S
C1800 H1785 0.960 . S
C1800 H1786 0.960 . S
C1800 H1787 0.960 . S
C1800 C1799 1.524 . S
C1801 C1798 1.403 1_545 S
C1801 C1802 1.392 . S
C1801 C1805 1.495 . S
C1802 C1801 1.392 . S
C1802 C1803 1.385 . S
C1802 C1804 1.478 . S
C1803 H1797 0.930 . S
C1803 C1799 1.400 . S
C1803 C1802 1.385 . S
C1804 C1802 1.478 . S
C1804 C1806 1.381 . S
C1804 C1810 1.383 . S
C1805 C1801 1.495 . S
C1805 H1811 0.959 1_545 S
C1805 H1812 0.961 . S
C1805 H1813 0.960 . S
C1806 C1804 1.381 . S
C1806 C1807 1.394 . S
C1806 H1814 0.930 . S
C1807 C1806 1.394 . S
C1807 C1808 1.383 . S
C1807 H1815 0.929 . S
C1808 C1807 1.383 . S
C1808 C1809 1.377 . S
C1809 H1793 0.930 . S
C1809 C1808 1.377 . S
C1809 C1810 1.379 . S
C1810 H1794 0.931 . S
C1810 C1804 1.383 . S
C1810 C1809 1.379 . S
H1811 C1805 0.959 1_565 S
H1812 C1805 0.961 . S
H1813 C1805 0.960 . S
H1814 C1806 0.930 . S
H1815 C1807 0.929 . S
H1816 C1824 0.929 . S
H1817 C1826 0.930 . S
H1818 C1828 0.930 1_556 S
H1819 C1831 0.929 . S
H1820 C1834 0.963 . S
H1821 C1836 0.960 . S
H1822 C1836 0.960 . S
H1823 C1836 0.960 . S
C1824 H1816 0.929 . S
C1824 C1825 1.377 . S
C1824 C1826 1.384 . S
C1825 C1824 1.377 . S
C1825 C1831 1.390 . S
C1826 H1817 0.930 . S
C1826 C1824 1.384 . S
C1826 C1827 1.372 . S
C1827 C1826 1.372 . S
C1827 C1828 1.400 . S
C1827 C1832 1.490 1_554 S
C1828 H1818 0.930 1_554 S
C1828 C1827 1.400 . S
C1828 C1831 1.386 . S
H1829 C1845 0.930 . S
H1830 C1846 0.931 . S
C1831 H1819 0.929 . S
C1831 C1825 1.390 . S
C1831 C1828 1.386 . S
C1832 C1827 1.490 1_556 S
C1832 C1834 1.383 1_556 S
C1832 C1835 1.403 . S
H1833 C1839 0.930 . S
C1834 H1820 0.963 . S
C1834 C1832 1.383 1_554 S
C1834 C1837 1.384 1_554 S
C1835 C1832 1.403 . S
C1835 C1836 1.524 . S
C1835 C1839 1.400 . S
C1836 H1821 0.960 . S
C1836 H1822 0.960 . S
C1836 H1823 0.960 . S
C1836 C1835 1.524 . S
C1837 C1834 1.384 1_556 S
C1837 C1838 1.392 . S
C1837 C1841 1.495 . S
C1838 C1837 1.392 . S
C1838 C1839 1.385 . S
C1838 C1840 1.478 . S
C1839 H1833 0.930 . S
C1839 C1835 1.400 . S
C1839 C1838 1.385 . S
C1840 C1838 1.478 . S
C1840 C1842 1.381 . S
C1840 C1846 1.383 . S
C1841 C1837 1.495 . S
C1841 H1847 0.959 1_556 S
C1841 H1848 0.961 . S
C1841 H1849 0.960 . S
C1842 C1840 1.381 . S
C1842 C1843 1.394 . S
C1842 H1850 0.930 . S
C1843 C1842 1.394 . S
C1843 C1844 1.383 . S
C1843 H1851 0.929 . S
C1844 C1843 1.383 . S
C1844 C1845 1.377 . S
C1845 H1829 0.930 . S
C1845 C1844 1.377 . S
C1845 C1846 1.379 . S
C1846 H1830 0.931 . S
C1846 C1840 1.383 . S
C1846 C1845 1.379 . S
H1847 C1841 0.959 1_554 S
H1848 C1841 0.961 . S
H1849 C1841 0.960 . S
H1850 C1842 0.930 . S
H1851 C1843 0.929 . S
H1852 C1860 0.929 . S
H1853 C1862 0.930 . S
H1854 C1864 0.930 . S
H1855 C1867 0.929 . S
H1856 C1870 0.930 . S
H1857 C1872 0.962 . S
H1858 C1872 0.958 1_655 S
H1859 C1872 0.953 1_655 S
C1860 H1852 0.929 . S
C1860 C1861 1.377 . S
C1860 C1862 1.384 1_655 S
C1861 C1860 1.377 . S
C1861 C1867 1.390 . S
C1862 H1853 0.930 . S
C1862 C1860 1.384 1_455 S
C1862 C1863 1.372 . S
C1863 C1862 1.372 . S
C1863 C1864 1.400 1_455 S
C1863 C1868 1.490 . S
C1864 H1854 0.930 . S
C1864 C1863 1.400 1_655 S
C1864 C1867 1.386 . S
H1865 C1881 0.930 . S
H1866 C1882 0.931 . S
C1867 H1855 0.929 . S
C1867 C1861 1.390 . S
C1867 C1864 1.386 . S
C1868 C1863 1.490 . S
C1868 C1870 1.395 . S
C1868 C1871 1.403 . S
H1869 C1875 0.930 . S
C1870 H1856 0.930 . S
C1870 C1868 1.395 . S
C1870 C1873 1.403 . S
C1871 C1868 1.403 . S
C1871 C1872 1.531 . S
C1871 C1875 1.400 . S
C1872 H1857 0.962 . S
C1872 H1858 0.958 1_455 S
C1872 H1859 0.953 1_455 S
C1872 C1871 1.531 . S
C1873 C1870 1.403 . S
C1873 C1874 1.392 . S
C1873 C1877 1.495 . S
C1874 C1873 1.392 . S
C1874 C1875 1.385 . S
C1874 C1876 1.478 . S
C1875 H1869 0.930 . S
C1875 C1871 1.400 . S
C1875 C1874 1.385 . S
C1876 C1874 1.478 . S
C1876 C1878 1.381 . S
C1876 C1882 1.383 . S
C1877 C1873 1.495 . S
C1877 H1883 0.959 . S
C1877 H1884 0.961 . S
C1877 H1885 0.960 . S
C1878 C1876 1.381 . S
C1878 C1879 1.394 . S
C1878 H1886 0.930 . S
C1879 C1878 1.394 . S
C1879 C1880 1.383 . S
C1879 H1887 0.929 . S
C1880 C1879 1.383 . S
C1880 C1881 1.377 . S
C1881 H1865 0.930 . S
C1881 C1880 1.377 . S
C1881 C1882 1.379 . S
C1882 H1866 0.931 . S
C1882 C1876 1.383 . S
C1882 C1881 1.379 . S
H1883 C1877 0.959 . S
H1884 C1877 0.961 . S
H1885 C1877 0.960 . S
H1886 C1878 0.930 . S
H1887 C1879 0.929 . S
H1888 C1896 0.929 . S
H1889 C1898 0.930 . S
H1890 C1900 0.930 . S
H1891 C1903 0.929 . S
H1892 C1906 0.930 . S
H1893 C1908 0.960 . S
H1894 C1908 0.960 . S
H1895 C1908 0.960 . S
C1896 H1888 0.929 . S
C1896 C1897 1.377 . S
C1896 C1898 1.384 . S
C1897 C1896 1.377 . S
C1897 C1903 1.390 . S
C1898 H1889 0.930 . S
C1898 C1896 1.384 . S
C1898 C1899 1.372 . S
C1899 C1898 1.372 . S
C1899 C1900 1.400 . S
C1899 C1904 1.490 . S
C1900 H1890 0.930 . S
C1900 C1899 1.400 . S
C1900 C1903 1.386 . S
H1901 C1917 0.930 . S
H1902 C1918 0.931 . S
C1903 H1891 0.929 . S
C1903 C1897 1.390 . S
C1903 C1900 1.386 . S
C1904 C1899 1.490 . S
C1904 C1906 1.395 . S
C1904 C1907 1.403 . S
H1905 C1911 0.930 . S
C1906 H1892 0.930 . S
C1906 C1904 1.395 . S
C1906 C1909 1.403 . S
C1907 C1904 1.403 . S
C1907 C1908 1.524 . S
C1907 C1911 1.400 . S
C1908 H1893 0.960 . S
C1908 H1894 0.960 . S
C1908 H1895 0.960 . S
C1908 C1907 1.524 . S
C1909 C1906 1.403 . S
C1909 C1910 1.392 . S
C1909 C1913 1.495 . S
C1910 C1909 1.392 . S
C1910 C1911 1.385 . S
C1910 C1912 1.478 . S
C1911 H1905 0.930 . S
C1911 C1907 1.400 . S
C1911 C1910 1.385 . S
C1912 C1910 1.478 . S
C1912 C1914 1.381 . S
C1912 C1918 1.383 . S
C1913 C1909 1.495 . S
C1913 H1919 0.959 . S
C1913 H1920 0.961 . S
C1913 H1921 0.960 . S
C1914 C1912 1.381 . S
C1914 C1915 1.394 . S
C1914 H1922 0.930 . S
C1915 C1914 1.394 . S
C1915 C1916 1.383 . S
C1915 H1923 0.929 . S
C1916 C1915 1.383 . S
C1916 C1917 1.377 . S
C1917 H1901 0.930 . S
C1917 C1916 1.377 . S
C1917 C1918 1.379 . S
C1918 H1902 0.931 . S
C1918 C1912 1.383 . S
C1918 C1917 1.379 . S
H1919 C1913 0.959 . S
H1920 C1913 0.961 . S
H1921 C1913 0.960 . S
H1922 C1914 0.930 . S
H1923 C1915 0.929 . S
H1924 C1932 0.929 . S
H1925 C1934 0.930 . S
H1926 C1936 0.930 . S
H1927 C1939 0.929 . S
H1928 C1942 0.930 . S
H1929 C1944 0.964 . S
H1930 C1944 0.960 . S
H1931 C1944 0.960 . S
C1932 H1924 0.929 . S
C1932 C1933 1.377 . S
C1932 C1934 1.384 1_455 S
C1933 C1932 1.377 . S
C1933 C1939 1.390 . S
C1934 H1925 0.930 . S
C1934 C1932 1.384 1_655 S
C1934 C1935 1.372 . S
C1935 C1934 1.372 . S
C1935 C1936 1.400 1_655 S
C1935 C1940 1.490 . S
C1936 H1926 0.930 . S
C1936 C1935 1.400 1_455 S
C1936 C1939 1.386 . S
H1937 C1953 0.930 . S
H1938 C1954 0.931 . S
C1939 H1927 0.929 . S
C1939 C1933 1.390 . S
C1939 C1936 1.386 . S
C1940 C1935 1.490 . S
C1940 C1942 1.395 . S
C1940 C1943 1.403 . S
H1941 C1947 0.930 . S
C1942 H1928 0.930 . S
C1942 C1940 1.395 . S
C1942 C1945 1.403 . S
C1943 C1940 1.403 . S
C1943 C1944 1.524 1_655 S
C1943 C1947 1.400 . S
C1944 H1929 0.964 . S
C1944 H1930 0.960 . S
C1944 H1931 0.960 . S
C1944 C1943 1.524 1_455 S
C1945 C1942 1.403 . S
C1945 C1946 1.392 . S
C1945 C1949 1.495 . S
C1946 C1945 1.392 . S
C1946 C1947 1.385 . S
C1946 C1948 1.478 . S
C1947 H1941 0.930 . S
C1947 C1943 1.400 . S
C1947 C1946 1.385 . S
C1948 C1946 1.478 . S
C1948 C1950 1.381 . S
C1948 C1954 1.383 . S
C1949 C1945 1.495 . S
C1949 H1955 0.959 . S
C1949 H1956 0.961 . S
C1949 H1957 0.960 . S
C1950 C1948 1.381 . S
C1950 C1951 1.394 . S
C1950 H1958 0.930 . S
C1951 C1950 1.394 . S
C1951 C1952 1.383 . S
C1951 H1959 0.929 . S
C1952 C1951 1.383 . S
C1952 C1953 1.377 . S
C1953 H1937 0.930 . S
C1953 C1952 1.377 . S
C1953 C1954 1.379 . S
C1954 H1938 0.931 . S
C1954 C1948 1.383 . S
C1954 C1953 1.379 . S
H1955 C1949 0.959 . S
H1956 C1949 0.961 . S
H1957 C1949 0.960 . S
H1958 C1950 0.930 . S
H1959 C1951 0.929 . S
H1960 C1968 0.929 . S
H1961 C1970 0.930 . S
H1962 C1972 0.930 1_655 S
H1963 C1975 0.929 . S
H1964 C1978 0.930 . S
H1965 C1980 0.960 . S
H1966 C1980 0.960 1_455 S
H1967 C1980 0.960 . S
C1968 H1960 0.929 . S
C1968 C1969 1.377 . S
C1968 C1970 1.384 . S
C1969 C1968 1.377 . S
C1969 C1975 1.390 . S
C1970 H1961 0.930 . S
C1970 C1968 1.384 . S
C1970 C1971 1.372 1_455 S
C1971 C1970 1.372 1_655 S
C1971 C1972 1.400 1_655 S
C1971 C1976 1.490 . S
C1972 H1962 0.930 1_455 S
C1972 C1971 1.400 1_455 S
C1972 C1975 1.386 . S
H1973 C1989 0.930 . S
H1974 C1990 0.931 . S
C1975 H1963 0.929 . S
C1975 C1969 1.390 . S
C1975 C1972 1.386 . S
C1976 C1971 1.490 . S
C1976 C1978 1.395 . S
C1976 C1979 1.403 . S
H1977 C1983 0.930 . S
C1978 H1964 0.930 . S
C1978 C1976 1.395 . S
C1978 C1981 1.403 . S
C1979 C1976 1.403 . S
C1979 C1980 1.524 . S
C1979 C1983 1.400 . S
C1980 H1965 0.960 . S
C1980 H1966 0.960 1_655 S
C1980 H1967 0.960 . S
C1980 C1979 1.524 . S
C1981 C1978 1.403 . S
C1981 C1982 1.392 . S
C1981 C1985 1.495 . S
C1982 C1981 1.392 . S
C1982 C1983 1.385 . S
C1982 C1984 1.478 . S
C1983 H1977 0.930 . S
C1983 C1979 1.400 . S
C1983 C1982 1.385 . S
C1984 C1982 1.478 . S
C1984 C1986 1.381 . S
C1984 C1990 1.383 . S
C1985 C1981 1.495 . S
C1985 H1991 0.959 . S
C1985 H1992 0.961 . S
C1985 H1993 0.960 . S
C1986 C1984 1.381 . S
C1986 C1987 1.394 . S
C1986 H1994 0.930 . S
C1987 C1986 1.394 . S
C1987 C1988 1.383 . S
C1987 H1995 0.929 . S
C1988 C1987 1.383 . S
C1988 C1989 1.377 . S
C1989 H1973 0.930 . S
C1989 C1988 1.377 . S
C1989 C1990 1.379 . S
C1990 H1974 0.931 . S
C1990 C1984 1.383 . S
C1990 C1989 1.379 . S
H1991 C1985 0.959 . S
H1992 C1985 0.961 . S
H1993 C1985 0.960 . S
H1994 C1986 0.930 . S
H1995 C1987 0.929 . S
H1996 C2004 0.929 . S
H1997 C2006 0.930 . S
H1998 C2008 0.930 . S
H1999 C2011 0.929 . S
H2000 C2014 0.930 . S
H2001 C2016 0.960 . S
H2002 C2016 0.960 . S
H2003 C2016 0.960 . S
C2004 H1996 0.929 . S
C2004 C2005 1.377 . S
C2004 C2006 1.384 . S
C2005 C2004 1.377 . S
C2005 C2011 1.390 . S
C2006 H1997 0.930 . S
C2006 C2004 1.384 . S
C2006 C2007 1.372 . S
C2007 C2006 1.372 . S
C2007 C2008 1.400 . S
C2007 C2012 1.490 . S
C2008 H1998 0.930 . S
C2008 C2007 1.400 . S
C2008 C2011 1.386 . S
H2009 C2025 0.930 . S
H2010 C2026 0.931 . S
C2011 H1999 0.929 . S
C2011 C2005 1.390 . S
C2011 C2008 1.386 . S
C2012 C2007 1.490 . S
C2012 C2014 1.395 . S
C2012 C2015 1.403 . S
H2013 C2019 0.930 . S
C2014 H2000 0.930 . S
C2014 C2012 1.395 . S
C2014 C2017 1.403 . S
C2015 C2012 1.403 . S
C2015 C2016 1.524 . S
C2015 C2019 1.400 . S
C2016 H2001 0.960 . S
C2016 H2002 0.960 . S
C2016 H2003 0.960 . S
C2016 C2015 1.524 . S
C2017 C2014 1.403 . S
C2017 C2018 1.392 . S
C2017 C2021 1.495 . S
C2018 C2017 1.392 . S
C2018 C2019 1.385 . S
C2018 C2020 1.478 . S
C2019 H2013 0.930 . S
C2019 C2015 1.400 . S
C2019 C2018 1.385 . S
C2020 C2018 1.478 . S
C2020 C2022 1.381 . S
C2020 C2026 1.383 . S
C2021 C2017 1.495 . S
C2021 H2027 0.959 . S
C2021 H2028 0.961 . S
C2021 H2029 0.960 . S
C2022 C2020 1.381 . S
C2022 C2023 1.394 . S
C2022 H2030 0.930 . S
C2023 C2022 1.394 . S
C2023 C2024 1.383 . S
C2023 H2031 0.929 . S
C2024 C2023 1.383 . S
C2024 C2025 1.377 . S
C2025 H2009 0.930 . S
C2025 C2024 1.377 . S
C2025 C2026 1.379 . S
C2026 H2010 0.931 . S
C2026 C2020 1.383 . S
C2026 C2025 1.379 . S
H2027 C2021 0.959 . S
H2028 C2021 0.961 . S
H2029 C2021 0.960 . S
H2030 C2022 0.930 . S
H2031 C2023 0.929 . S
H2032 C2040 0.929 . S
H2033 C2042 0.930 . S
H2034 C2044 0.934 . S
H2035 C2047 0.929 . S
H2036 C2050 0.930 1_655 S
H2037 C2052 0.960 . S
H2038 C2052 0.960 . S
H2039 C2052 0.960 . S
C2040 H2032 0.929 . S
C2040 C2041 1.377 . S
C2040 C2042 1.384 . S
C2041 C2040 1.377 . S
C2041 C2047 1.390 . S
C2042 H2033 0.930 . S
C2042 C2040 1.384 . S
C2042 C2043 1.372 . S
C2043 C2042 1.372 . S
C2043 C2044 1.400 . S
C2043 C2048 1.490 1_655 S
C2044 H2034 0.934 . S
C2044 C2043 1.400 . S
C2044 C2047 1.386 . S
H2045 C2061 0.930 . S
H2046 C2062 0.931 . S
C2047 H2035 0.929 . S
C2047 C2041 1.390 . S
C2047 C2044 1.386 . S
C2048 C2043 1.490 1_455 S
C2048 C2050 1.395 . S
C2048 C2051 1.403 . S
H2049 C2055 0.930 . S
C2050 H2036 0.930 1_455 S
C2050 C2048 1.395 . S
C2050 C2053 1.403 . S
C2051 C2048 1.403 . S
C2051 C2052 1.524 . S
C2051 C2055 1.400 . S
C2052 H2037 0.960 . S
C2052 H2038 0.960 . S
C2052 H2039 0.960 . S
C2052 C2051 1.524 . S
C2053 C2050 1.403 . S
C2053 C2054 1.392 . S
C2053 C2057 1.495 . S
C2054 C2053 1.392 . S
C2054 C2055 1.385 . S
C2054 C2056 1.478 . S
C2055 H2049 0.930 . S
C2055 C2051 1.400 . S
C2055 C2054 1.385 . S
C2056 C2054 1.478 . S
C2056 C2058 1.381 . S
C2056 C2062 1.383 . S
C2057 C2053 1.495 . S
C2057 H2063 0.959 . S
C2057 H2064 0.961 . S
C2057 H2065 0.960 . S
C2058 C2056 1.381 . S
C2058 C2059 1.394 . S
C2058 H2066 0.930 . S
C2059 C2058 1.394 . S
C2059 C2060 1.383 . S
C2059 H2067 0.929 . S
C2060 C2059 1.383 . S
C2060 C2061 1.377 . S
C2061 H2045 0.930 . S
C2061 C2060 1.377 . S
C2061 C2062 1.379 . S
C2062 H2046 0.931 . S
C2062 C2056 1.383 . S
C2062 C2061 1.379 . S
H2063 C2057 0.959 . S
H2064 C2057 0.961 . S
H2065 C2057 0.960 . S
H2066 C2058 0.930 . S
H2067 C2059 0.929 . S
H2068 C2076 0.929 . S
H2069 C2078 0.930 . S
H2070 C2080 0.930 . S
H2071 C2083 0.929 . S
H2072 C2086 0.930 . S
H2073 C2088 0.960 . S
H2074 C2088 0.960 . S
H2075 C2088 0.960 . S
C2076 H2068 0.929 . S
C2076 C2077 1.377 . S
C2076 C2078 1.384 . S
C2077 C2076 1.377 . S
C2077 C2083 1.390 . S
C2078 H2069 0.930 . S
C2078 C2076 1.384 . S
C2078 C2079 1.372 . S
C2079 C2078 1.372 . S
C2079 C2080 1.400 . S
C2079 C2084 1.490 . S
C2080 H2070 0.930 . S
C2080 C2079 1.400 . S
C2080 C2083 1.386 . S
H2081 C2097 0.930 . S
H2082 C2098 0.931 . S
C2083 H2071 0.929 . S
C2083 C2077 1.390 . S
C2083 C2080 1.386 . S
C2084 C2079 1.490 . S
C2084 C2086 1.395 . S
C2084 C2087 1.403 . S
H2085 C2091 0.930 . S
C2086 H2072 0.930 . S
C2086 C2084 1.395 . S
C2086 C2089 1.403 . S
C2087 C2084 1.403 . S
C2087 C2088 1.524 . S
C2087 C2091 1.400 . S
C2088 H2073 0.960 . S
C2088 H2074 0.960 . S
C2088 H2075 0.960 . S
C2088 C2087 1.524 . S
C2089 C2086 1.403 . S
C2089 C2090 1.392 . S
C2089 C2093 1.495 . S
C2090 C2089 1.392 . S
C2090 C2091 1.385 . S
C2090 C2092 1.478 . S
C2091 H2085 0.930 . S
C2091 C2087 1.400 . S
C2091 C2090 1.385 . S
C2092 C2090 1.478 . S
C2092 C2094 1.381 . S
C2092 C2098 1.383 . S
C2093 C2089 1.495 . S
C2093 H2099 0.959 . S
C2093 H2100 0.961 . S
C2093 H2101 0.960 . S
C2094 C2092 1.381 . S
C2094 C2095 1.394 . S
C2094 H2102 0.930 . S
C2095 C2094 1.394 . S
C2095 C2096 1.383 . S
C2095 H2103 0.929 . S
C2096 C2095 1.383 . S
C2096 C2097 1.377 . S
C2097 H2081 0.930 . S
C2097 C2096 1.377 . S
C2097 C2098 1.379 . S
C2098 H2082 0.931 . S
C2098 C2092 1.383 . S
C2098 C2097 1.379 . S
H2099 C2093 0.959 . S
H2100 C2093 0.961 . S
H2101 C2093 0.960 . S
H2102 C2094 0.930 . S
H2103 C2095 0.929 . S
H2104 C2112 0.929 . S
H2105 C2114 0.930 . S
H2106 C2116 0.930 . S
H2107 C2119 0.929 . S
H2108 C2122 0.930 . S
H2109 C2124 0.960 . S
H2110 C2124 0.960 . S
H2111 C2124 0.960 . S
C2112 H2104 0.929 . S
C2112 C2113 1.377 . S
C2112 C2114 1.384 . S
C2113 C2112 1.377 . S
C2113 C2119 1.390 . S
C2114 H2105 0.930 . S
C2114 C2112 1.384 . S
C2114 C2115 1.372 . S
C2115 C2114 1.372 . S
C2115 C2116 1.400 . S
C2115 C2120 1.490 . S
C2116 H2106 0.930 . S
C2116 C2115 1.400 . S
C2116 C2119 1.386 . S
H2117 C2133 0.930 . S
H2118 C2134 0.931 . S
C2119 H2107 0.929 . S
C2119 C2113 1.390 . S
C2119 C2116 1.386 . S
C2120 C2115 1.490 . S
C2120 C2122 1.395 . S
C2120 C2123 1.403 . S
H2121 C2127 0.930 . S
C2122 H2108 0.930 . S
C2122 C2120 1.395 . S
C2122 C2125 1.403 . S
C2123 C2120 1.403 . S
C2123 C2124 1.524 . S
C2123 C2127 1.400 . S
C2124 H2109 0.960 . S
C2124 H2110 0.960 . S
C2124 H2111 0.960 . S
C2124 C2123 1.524 . S
C2125 C2122 1.403 . S
C2125 C2126 1.392 . S
C2125 C2129 1.495 . S
C2126 C2125 1.392 . S
C2126 C2127 1.385 . S
C2126 C2128 1.478 . S
C2127 H2121 0.930 . S
C2127 C2123 1.400 . S
C2127 C2126 1.385 . S
C2128 C2126 1.478 . S
C2128 C2130 1.381 . S
C2128 C2134 1.383 . S
C2129 C2125 1.495 . S
C2129 H2135 0.959 . S
C2129 H2136 0.961 . S
C2129 H2137 0.960 . S
C2130 C2128 1.381 . S
C2130 C2131 1.394 . S
C2130 H2138 0.930 . S
C2131 C2130 1.394 . S
C2131 C2132 1.383 . S
C2131 H2139 0.929 . S
C2132 C2131 1.383 . S
C2132 C2133 1.377 . S
C2133 H2117 0.930 . S
C2133 C2132 1.377 . S
C2133 C2134 1.379 . S
C2134 H2118 0.931 . S
C2134 C2128 1.383 . S
C2134 C2133 1.379 . S
H2135 C2129 0.959 . S
H2136 C2129 0.961 . S
H2137 C2129 0.960 . S
H2138 C2130 0.930 . S
H2139 C2131 0.929 . S
H2140 C2148 0.929 . S
H2141 C2150 0.930 . S
H2142 C2152 0.930 . S
H2143 C2155 0.929 . S
H2144 C2158 0.930 . S
H2145 C2160 0.960 . S
H2146 C2160 0.960 . S
H2147 C2160 0.960 . S
C2148 H2140 0.929 . S
C2148 C2149 1.377 . S
C2148 C2150 1.384 . S
C2149 C2148 1.377 . S
C2149 C2155 1.390 . S
C2150 H2141 0.930 . S
C2150 C2148 1.384 . S
C2150 C2151 1.372 . S
C2151 C2150 1.372 . S
C2151 C2152 1.400 . S
C2151 C2156 1.490 . S
C2152 H2142 0.930 . S
C2152 C2151 1.400 . S
C2152 C2155 1.386 . S
H2153 C2169 0.930 . S
H2154 C2170 0.931 . S
C2155 H2143 0.929 . S
C2155 C2149 1.390 . S
C2155 C2152 1.386 . S
C2156 C2151 1.490 . S
C2156 C2158 1.395 1_554 S
C2156 C2159 1.403 . S
H2157 C2163 0.930 . S
C2158 H2144 0.930 . S
C2158 C2156 1.395 1_556 S
C2158 C2161 1.403 . S
C2159 C2156 1.403 . S
C2159 C2160 1.524 . S
C2159 C2163 1.400 . S
C2160 H2145 0.960 . S
C2160 H2146 0.960 . S
C2160 H2147 0.960 . S
C2160 C2159 1.524 . S
C2161 C2158 1.403 . S
C2161 C2162 1.392 . S
C2161 C2165 1.495 . S
C2162 C2161 1.392 . S
C2162 C2163 1.385 1_556 S
C2162 C2164 1.478 . S
C2163 H2157 0.930 . S
C2163 C2159 1.400 . S
C2163 C2162 1.385 1_554 S
C2164 C2162 1.478 . S
C2164 C2166 1.381 . S
C2164 C2170 1.383 . S
C2165 C2161 1.495 . S
C2165 H2171 0.959 . S
C2165 H2172 0.961 . S
C2165 H2173 0.960 . S
C2166 C2164 1.381 . S
C2166 C2167 1.394 . S
C2166 H2174 0.930 . S
C2167 C2166 1.394 . S
C2167 C2168 1.383 . S
C2167 H2175 0.929 . S
C2168 C2167 1.383 . S
C2168 C2169 1.377 . S
C2169 H2153 0.930 . S
C2169 C2168 1.377 . S
C2169 C2170 1.379 . S
C2170 H2154 0.931 . S
C2170 C2164 1.383 . S
C2170 C2169 1.379 . S
H2171 C2165 0.959 . S
H2172 C2165 0.961 . S
H2173 C2165 0.960 . S
H2174 C2166 0.930 . S
H2175 C2167 0.929 . S
H2176 C2184 0.929 . S
H2177 C2186 0.930 . S
H2178 C2188 0.930 . S
H2179 C2191 0.929 . S
H2180 C2194 0.930 . S
H2181 C2196 0.960 . S
H2182 C2196 0.960 . S
H2183 C2196 0.960 . S
C2184 H2176 0.929 . S
C2184 C2185 1.377 . S
C2184 C2186 1.384 . S
C2185 C2184 1.377 . S
C2185 C2191 1.390 . S
C2186 H2177 0.930 . S
C2186 C2184 1.384 . S
C2186 C2187 1.372 . S
C2187 C2186 1.372 . S
C2187 C2188 1.400 . S
C2187 C2192 1.490 . S
C2188 H2178 0.930 . S
C2188 C2187 1.400 . S
C2188 C2191 1.386 . S
H2189 C2205 0.930 . S
H2190 C2206 0.931 . S
C2191 H2179 0.929 . S
C2191 C2185 1.390 . S
C2191 C2188 1.386 . S
C2192 C2187 1.490 . S
C2192 C2194 1.395 . S
C2192 C2195 1.403 . S
H2193 C2199 0.930 . S
C2194 H2180 0.930 . S
C2194 C2192 1.395 . S
C2194 C2197 1.403 . S
C2195 C2192 1.403 . S
C2195 C2196 1.524 . S
C2195 C2199 1.400 . S
C2196 H2181 0.960 . S
C2196 H2182 0.960 . S
C2196 H2183 0.960 . S
C2196 C2195 1.524 . S
C2197 C2194 1.403 . S
C2197 C2198 1.392 . S
C2197 C2201 1.495 . S
C2198 C2197 1.392 . S
C2198 C2199 1.385 . S
C2198 C2200 1.478 . S
C2199 H2193 0.930 . S
C2199 C2195 1.400 . S
C2199 C2198 1.385 . S
C2200 C2198 1.478 . S
C2200 C2202 1.381 . S
C2200 C2206 1.383 . S
C2201 C2197 1.495 . S
C2201 H2207 0.959 . S
C2201 H2208 0.961 . S
C2201 H2209 0.960 . S
C2202 C2200 1.381 . S
C2202 C2203 1.394 . S
C2202 H2210 0.930 . S
C2203 C2202 1.394 . S
C2203 C2204 1.383 . S
C2203 H2211 0.929 . S
C2204 C2203 1.383 . S
C2204 C2205 1.377 . S
C2205 H2189 0.930 . S
C2205 C2204 1.377 . S
C2205 C2206 1.379 . S
C2206 H2190 0.931 . S
C2206 C2200 1.383 . S
C2206 C2205 1.379 . S
H2207 C2201 0.959 . S
H2208 C2201 0.961 . S
H2209 C2201 0.960 . S
H2210 C2202 0.930 . S
H2211 C2203 0.929 . S
H2212 C2220 0.929 . S
H2213 C2222 0.930 . S
H2214 C2224 0.930 . S
H2215 C2227 0.929 . S
H2216 C2230 0.930 . S
H2217 C2232 0.960 . S
H2218 C2232 0.960 . S
H2219 C2232 0.960 . S
C2220 H2212 0.929 . S
C2220 C2221 1.377 . S
C2220 C2222 1.384 . S
C2221 C2220 1.377 . S
C2221 C2227 1.390 . S
C2222 H2213 0.930 . S
C2222 C2220 1.384 . S
C2222 C2223 1.372 . S
C2223 C2222 1.372 . S
C2223 C2224 1.400 . S
C2223 C2228 1.490 . S
C2224 H2214 0.930 . S
C2224 C2223 1.400 . S
C2224 C2227 1.386 . S
H2225 C2241 0.930 . S
H2226 C2242 0.931 . S
C2227 H2215 0.929 . S
C2227 C2221 1.390 . S
C2227 C2224 1.386 . S
C2228 C2223 1.490 . S
C2228 C2230 1.395 . S
C2228 C2231 1.403 . S
H2229 C2235 0.930 . S
C2230 H2216 0.930 . S
C2230 C2228 1.395 . S
C2230 C2233 1.403 . S
C2231 C2228 1.403 . S
C2231 C2232 1.524 . S
C2231 C2235 1.400 . S
C2232 H2217 0.960 . S
C2232 H2218 0.960 . S
C2232 H2219 0.960 . S
C2232 C2231 1.524 . S
C2233 C2230 1.403 . S
C2233 C2234 1.392 . S
C2233 C2237 1.495 . S
C2234 C2233 1.392 . S
C2234 C2235 1.385 . S
C2234 C2236 1.478 . S
C2235 H2229 0.930 . S
C2235 C2231 1.400 . S
C2235 C2234 1.385 . S
C2236 C2234 1.478 . S
C2236 C2238 1.381 . S
C2236 C2242 1.383 . S
C2237 C2233 1.495 . S
C2237 H2243 0.959 . S
C2237 H2244 0.961 . S
C2237 H2245 0.960 . S
C2238 C2236 1.381 . S
C2238 C2239 1.394 . S
C2238 H2246 0.930 . S
C2239 C2238 1.394 . S
C2239 C2240 1.383 . S
C2239 H2247 0.929 . S
C2240 C2239 1.383 . S
C2240 C2241 1.377 . S
C2241 H2225 0.930 . S
C2241 C2240 1.377 . S
C2241 C2242 1.379 . S
C2242 H2226 0.931 . S
C2242 C2236 1.383 . S
C2242 C2241 1.379 . S
H2243 C2237 0.959 . S
H2244 C2237 0.961 . S
H2245 C2237 0.960 . S
H2246 C2238 0.930 . S
H2247 C2239 0.929 . S
H2248 C2256 0.929 . S
H2249 C2258 0.930 . S
H2250 C2260 0.930 . S
H2251 C2263 0.929 . S
H2252 C2266 0.930 . S
H2253 C2268 0.960 . S
H2254 C2268 0.960 . S
H2255 C2268 0.960 . S
C2256 H2248 0.929 . S
C2256 C2257 1.377 . S
C2256 C2258 1.384 . S
C2257 C2256 1.377 . S
C2257 C2263 1.390 . S
C2258 H2249 0.930 . S
C2258 C2256 1.384 . S
C2258 C2259 1.372 . S
C2259 C2258 1.372 . S
C2259 C2260 1.400 . S
C2259 C2264 1.490 . S
C2260 H2250 0.930 . S
C2260 C2259 1.400 . S
C2260 C2263 1.386 . S
H2261 C2277 0.930 . S
H2262 C2278 0.931 . S
C2263 H2251 0.929 . S
C2263 C2257 1.390 . S
C2263 C2260 1.386 . S
C2264 C2259 1.490 . S
C2264 C2266 1.395 . S
C2264 C2267 1.403 . S
H2265 C2271 0.930 . S
C2266 H2252 0.930 . S
C2266 C2264 1.395 . S
C2266 C2269 1.403 . S
C2267 C2264 1.403 . S
C2267 C2268 1.524 . S
C2267 C2271 1.400 . S
C2268 H2253 0.960 . S
C2268 H2254 0.960 . S
C2268 H2255 0.960 . S
C2268 C2267 1.524 . S
C2269 C2266 1.403 . S
C2269 C2270 1.392 . S
C2269 C2273 1.495 . S
C2270 C2269 1.392 . S
C2270 C2271 1.385 . S
C2270 C2272 1.478 . S
C2271 H2265 0.930 . S
C2271 C2267 1.400 . S
C2271 C2270 1.385 . S
C2272 C2270 1.478 . S
C2272 C2274 1.381 . S
C2272 C2278 1.383 . S
C2273 C2269 1.495 . S
C2273 H2279 0.959 . S
C2273 H2280 0.961 . S
C2273 H2281 0.960 . S
C2274 C2272 1.381 . S
C2274 C2275 1.394 . S
C2274 H2282 0.930 . S
C2275 C2274 1.394 . S
C2275 C2276 1.383 . S
C2275 H2283 0.929 . S
C2276 C2275 1.383 . S
C2276 C2277 1.377 . S
C2277 H2261 0.930 . S
C2277 C2276 1.377 . S
C2277 C2278 1.379 . S
C2278 H2262 0.931 . S
C2278 C2272 1.383 . S
C2278 C2277 1.379 . S
H2279 C2273 0.959 . S
H2280 C2273 0.961 . S
H2281 C2273 0.960 . S
H2282 C2274 0.930 . S
H2283 C2275 0.929 . S
H2284 C2292 0.929 . S
H2285 C2294 0.930 . S
H2286 C2296 0.930 . S
H2287 C2299 0.929 . S
H2288 C2302 0.930 . S
H2289 C2304 0.946 1_556 S
H2290 C2304 0.962 . S
H2291 C2304 0.966 . S
C2292 H2284 0.929 . S
C2292 C2293 1.377 . S
C2292 C2294 1.384 . S
C2293 C2292 1.377 . S
C2293 C2299 1.390 . S
C2294 H2285 0.930 . S
C2294 C2292 1.384 . S
C2294 C2295 1.372 . S
C2295 C2294 1.372 . S
C2295 C2296 1.400 . S
C2295 C2300 1.490 . S
C2296 H2286 0.930 . S
C2296 C2295 1.400 . S
C2296 C2299 1.386 . S
H2297 C2313 0.930 . S
H2298 C2314 0.931 . S
C2299 H2287 0.929 . S
C2299 C2293 1.390 . S
C2299 C2296 1.386 . S
C2300 C2295 1.490 . S
C2300 C2302 1.395 . S
C2300 C2303 1.403 . S
H2301 C2307 0.930 . S
C2302 H2288 0.930 . S
C2302 C2300 1.395 . S
C2302 C2305 1.403 . S
C2303 C2300 1.403 . S
C2303 C2304 1.530 . S
C2303 C2307 1.400 1_554 S
C2304 H2289 0.946 1_554 S
C2304 H2290 0.962 . S
C2304 H2291 0.966 . S
C2304 C2303 1.530 . S
C2305 C2302 1.403 . S
C2305 C2306 1.392 . S
C2305 C2309 1.495 . S
C2306 C2305 1.392 . S
C2306 C2307 1.385 1_554 S
C2306 C2308 1.478 1_554 S
C2307 H2301 0.930 . S
C2307 C2303 1.400 1_556 S
C2307 C2306 1.385 1_556 S
C2308 C2306 1.478 1_556 S
C2308 C2310 1.381 . S
C2308 C2314 1.383 . S
C2309 C2305 1.495 . S
C2309 H2315 0.959 . S
C2309 H2316 0.961 . S
C2309 H2317 0.960 . S
C2310 C2308 1.381 . S
C2310 C2311 1.394 . S
C2310 H2318 0.930 . S
C2311 C2310 1.394 . S
C2311 C2312 1.383 . S
C2311 H2319 0.929 . S
C2312 C2311 1.383 . S
C2312 C2313 1.377 . S
C2313 H2297 0.930 . S
C2313 C2312 1.377 . S
C2313 C2314 1.379 . S
C2314 H2298 0.931 . S
C2314 C2308 1.383 . S
C2314 C2313 1.379 . S
H2315 C2309 0.959 . S
H2316 C2309 0.961 . S
H2317 C2309 0.960 . S
H2318 C2310 0.930 . S
H2319 C2311 0.929 . S
H2320 C2328 0.929 . S
H2321 C2330 0.930 . S
H2322 C2332 0.930 . S
H2323 C2335 0.929 . S
H2324 C2338 0.930 . S
H2325 C2340 0.960 . S
H2326 C2340 0.960 . S
H2327 C2340 0.960 . S
C2328 H2320 0.929 . S
C2328 C2329 1.377 . S
C2328 C2330 1.384 . S
C2329 C2328 1.377 . S
C2329 C2335 1.390 . S
C2330 H2321 0.930 . S
C2330 C2328 1.384 . S
C2330 C2331 1.372 . S
C2331 C2330 1.372 . S
C2331 C2332 1.400 . S
C2331 C2336 1.490 . S
C2332 H2322 0.930 . S
C2332 C2331 1.400 . S
C2332 C2335 1.386 . S
H2333 C2349 0.930 . S
H2334 C2350 0.931 . S
C2335 H2323 0.929 . S
C2335 C2329 1.390 . S
C2335 C2332 1.386 . S
C2336 C2331 1.490 . S
C2336 C2338 1.395 . S
C2336 C2339 1.403 . S
H2337 C2343 0.930 . S
C2338 H2324 0.930 . S
C2338 C2336 1.395 . S
C2338 C2341 1.403 . S
C2339 C2336 1.403 . S
C2339 C2340 1.524 . S
C2339 C2343 1.400 . S
C2340 H2325 0.960 . S
C2340 H2326 0.960 . S
C2340 H2327 0.960 . S
C2340 C2339 1.524 . S
C2341 C2338 1.403 . S
C2341 C2342 1.392 . S
C2341 C2345 1.495 . S
C2342 C2341 1.392 . S
C2342 C2343 1.385 . S
C2342 C2344 1.478 . S
C2343 H2337 0.930 . S
C2343 C2339 1.400 . S
C2343 C2342 1.385 . S
C2344 C2342 1.478 . S
C2344 C2346 1.381 . S
C2344 C2350 1.383 . S
C2345 C2341 1.495 . S
C2345 H2351 0.959 . S
C2345 H2352 0.961 . S
C2345 H2353 0.960 . S
C2346 C2344 1.381 . S
C2346 C2347 1.394 . S
C2346 H2354 0.930 . S
C2347 C2346 1.394 . S
C2347 C2348 1.383 . S
C2347 H2355 0.929 . S
C2348 C2347 1.383 . S
C2348 C2349 1.377 . S
C2349 H2333 0.930 . S
C2349 C2348 1.377 . S
C2349 C2350 1.379 . S
C2350 H2334 0.931 . S
C2350 C2344 1.383 . S
C2350 C2349 1.379 . S
H2351 C2345 0.959 . S
H2352 C2345 0.961 . S
H2353 C2345 0.960 . S
H2354 C2346 0.930 . S
H2355 C2347 0.929 . S
H2356 C2364 0.929 . S
H2357 C2366 0.930 . S
H2358 C2368 0.930 . S
H2359 C2371 0.929 . S
H2360 C2374 0.930 . S
H2361 C2376 0.960 . S
H2362 C2376 0.960 . S
H2363 C2376 0.960 . S
C2364 H2356 0.929 . S
C2364 C2365 1.377 . S
C2364 C2366 1.384 . S
C2365 C2364 1.377 . S
C2365 C2371 1.390 . S
C2366 H2357 0.930 . S
C2366 C2364 1.384 . S
C2366 C2367 1.372 . S
C2367 C2366 1.372 . S
C2367 C2368 1.400 . S
C2367 C2372 1.490 . S
C2368 H2358 0.930 . S
C2368 C2367 1.400 . S
C2368 C2371 1.386 . S
H2369 C2385 0.930 . S
H2370 C2386 0.931 . S
C2371 H2359 0.929 . S
C2371 C2365 1.390 . S
C2371 C2368 1.386 . S
C2372 C2367 1.490 . S
C2372 C2374 1.395 . S
C2372 C2375 1.403 . S
H2373 C2379 0.930 . S
C2374 H2360 0.930 . S
C2374 C2372 1.395 . S
C2374 C2377 1.403 . S
C2375 C2372 1.403 . S
C2375 C2376 1.524 . S
C2375 C2379 1.400 . S
C2376 H2361 0.960 . S
C2376 H2362 0.960 . S
C2376 H2363 0.960 . S
C2376 C2375 1.524 . S
C2377 C2374 1.403 . S
C2377 C2378 1.392 . S
C2377 C2381 1.495 . S
C2378 C2377 1.392 . S
C2378 C2379 1.385 . S
C2378 C2380 1.478 . S
C2379 H2373 0.930 . S
C2379 C2375 1.400 . S
C2379 C2378 1.385 . S
C2380 C2378 1.478 . S
C2380 C2382 1.381 . S
C2380 C2386 1.383 . S
C2381 C2377 1.495 . S
C2381 H2387 0.959 . S
C2381 H2388 0.961 . S
C2381 H2389 0.960 . S
C2382 C2380 1.381 . S
C2382 C2383 1.394 . S
C2382 H2390 0.930 . S
C2383 C2382 1.394 . S
C2383 C2384 1.383 . S
C2383 H2391 0.929 . S
C2384 C2383 1.383 . S
C2384 C2385 1.377 . S
C2385 H2369 0.930 . S
C2385 C2384 1.377 . S
C2385 C2386 1.379 . S
C2386 H2370 0.931 . S
C2386 C2380 1.383 . S
C2386 C2385 1.379 . S
H2387 C2381 0.959 . S
H2388 C2381 0.961 . S
H2389 C2381 0.960 . S
H2390 C2382 0.930 . S
H2391 C2383 0.929 . S
H2392 C2400 0.929 . S
H2393 C2402 0.930 . S
H2394 C2404 0.930 . S
H2395 C2407 0.929 . S
H2396 C2410 0.930 . S
H2397 C2412 0.960 . S
H2398 C2412 0.960 . S
H2399 C2412 0.960 . S
C2400 H2392 0.929 . S
C2400 C2401 1.377 . S
C2400 C2402 1.384 . S
C2401 C2400 1.377 . S
C2401 C2407 1.390 . S
C2402 H2393 0.930 . S
C2402 C2400 1.384 . S
C2402 C2403 1.372 . S
C2403 C2402 1.372 . S
C2403 C2404 1.400 . S
C2403 C2408 1.490 . S
C2404 H2394 0.930 . S
C2404 C2403 1.400 . S
C2404 C2407 1.386 . S
H2405 C2421 0.930 . S
H2406 C2422 0.931 . S
C2407 H2395 0.929 . S
C2407 C2401 1.390 . S
C2407 C2404 1.386 . S
C2408 C2403 1.490 . S
C2408 C2410 1.395 . S
C2408 C2411 1.403 . S
H2409 C2415 0.930 . S
C2410 H2396 0.930 . S
C2410 C2408 1.395 . S
C2410 C2413 1.403 . S
C2411 C2408 1.403 . S
C2411 C2412 1.524 . S
C2411 C2415 1.400 . S
C2412 H2397 0.960 . S
C2412 H2398 0.960 . S
C2412 H2399 0.960 . S
C2412 C2411 1.524 . S
C2413 C2410 1.403 . S
C2413 C2414 1.392 . S
C2413 C2417 1.495 . S
C2414 C2413 1.392 . S
C2414 C2415 1.385 . S
C2414 C2416 1.478 . S
C2415 H2409 0.930 . S
C2415 C2411 1.400 . S
C2415 C2414 1.385 . S
C2416 C2414 1.478 . S
C2416 C2418 1.381 . S
C2416 C2422 1.383 . S
C2417 C2413 1.495 . S
C2417 H2423 0.959 . S
C2417 H2424 0.961 . S
C2417 H2425 0.960 . S
C2418 C2416 1.381 . S
C2418 C2419 1.394 . S
C2418 H2426 0.930 . S
C2419 C2418 1.394 . S
C2419 C2420 1.383 . S
C2419 H2427 0.929 . S
C2420 C2419 1.383 . S
C2420 C2421 1.377 . S
C2421 H2405 0.930 . S
C2421 C2420 1.377 . S
C2421 C2422 1.379 . S
C2422 H2406 0.931 . S
C2422 C2416 1.383 . S
C2422 C2421 1.379 . S
H2423 C2417 0.959 . S
H2424 C2417 0.961 . S
H2425 C2417 0.960 . S
H2426 C2418 0.930 . S
H2427 C2419 0.929 . S
H2428 C2436 0.929 . S
H2429 C2438 0.930 . S
H2430 C2440 0.930 . S
H2431 C2443 0.929 . S
H2432 C2446 0.930 . S
H2433 C2448 0.960 . S
H2434 C2448 0.960 . S
H2435 C2448 0.960 . S
C2436 H2428 0.929 . S
C2436 C2437 1.377 . S
C2436 C2438 1.384 . S
C2437 C2436 1.377 . S
C2437 C2443 1.390 . S
C2438 H2429 0.930 . S
C2438 C2436 1.384 . S
C2438 C2439 1.372 . S
C2439 C2438 1.372 . S
C2439 C2440 1.400 . S
C2439 C2444 1.490 . S
C2440 H2430 0.930 . S
C2440 C2439 1.400 . S
C2440 C2443 1.386 . S
H2441 C2457 0.930 . S
H2442 C2458 0.931 . S
C2443 H2431 0.929 . S
C2443 C2437 1.390 . S
C2443 C2440 1.386 . S
C2444 C2439 1.490 . S
C2444 C2446 1.395 . S
C2444 C2447 1.403 . S
H2445 C2451 0.930 . S
C2446 H2432 0.930 . S
C2446 C2444 1.395 . S
C2446 C2449 1.403 . S
C2447 C2444 1.403 . S
C2447 C2448 1.524 . S
C2447 C2451 1.400 . S
C2448 H2433 0.960 . S
C2448 H2434 0.960 . S
C2448 H2435 0.960 . S
C2448 C2447 1.524 . S
C2449 C2446 1.403 . S
C2449 C2450 1.392 . S
C2449 C2453 1.495 . S
C2450 C2449 1.392 . S
C2450 C2451 1.385 . S
C2450 C2452 1.478 . S
C2451 H2445 0.930 . S
C2451 C2447 1.400 . S
C2451 C2450 1.385 . S
C2452 C2450 1.478 . S
C2452 C2454 1.381 . S
C2452 C2458 1.383 . S
C2453 C2449 1.495 . S
C2453 H2459 0.959 . S
C2453 H2460 0.961 . S
C2453 H2461 0.960 . S
C2454 C2452 1.381 . S
C2454 C2455 1.394 . S
C2454 H2462 0.930 . S
C2455 C2454 1.394 . S
C2455 C2456 1.383 . S
C2455 H2463 0.929 . S
C2456 C2455 1.383 . S
C2456 C2457 1.377 . S
C2457 H2441 0.930 . S
C2457 C2456 1.377 . S
C2457 C2458 1.379 . S
C2458 H2442 0.931 . S
C2458 C2452 1.383 . S
C2458 C2457 1.379 . S
H2459 C2453 0.959 . S
H2460 C2453 0.961 . S
H2461 C2453 0.960 . S
H2462 C2454 0.930 . S
H2463 C2455 0.929 . S
H2464 C2472 0.929 . S
H2465 C2474 0.930 . S
H2466 C2476 0.930 . S
H2467 C2479 0.929 . S
H2468 C2482 0.930 . S
H2469 C2484 0.960 . S
H2470 C2484 0.960 . S
H2471 C2484 0.960 . S
C2472 H2464 0.929 . S
C2472 C2473 1.377 . S
C2472 C2474 1.384 . S
C2473 C2472 1.377 . S
C2473 C2479 1.390 . S
C2474 H2465 0.930 . S
C2474 C2472 1.384 . S
C2474 C2475 1.372 . S
C2475 C2474 1.372 . S
C2475 C2476 1.400 . S
C2475 C2480 1.490 . S
C2476 H2466 0.930 . S
C2476 C2475 1.400 . S
C2476 C2479 1.386 . S
H2477 C2493 0.930 . S
H2478 C2494 0.931 . S
C2479 H2467 0.929 . S
C2479 C2473 1.390 . S
C2479 C2476 1.386 . S
C2480 C2475 1.490 . S
C2480 C2482 1.395 . S
C2480 C2483 1.403 1_554 S
H2481 C2487 0.930 . S
C2482 H2468 0.930 . S
C2482 C2480 1.395 . S
C2482 C2485 1.403 . S
C2483 C2480 1.403 1_556 S
C2483 C2484 1.524 . S
C2483 C2487 1.400 . S
C2484 H2469 0.960 . S
C2484 H2470 0.960 . S
C2484 H2471 0.960 . S
C2484 C2483 1.524 . S
C2485 C2482 1.403 . S
C2485 C2486 1.392 1_554 S
C2485 C2489 1.495 . S
C2486 C2485 1.392 1_556 S
C2486 C2487 1.385 . S
C2486 C2488 1.478 . S
C2487 H2481 0.930 . S
C2487 C2483 1.400 . S
C2487 C2486 1.385 . S
C2488 C2486 1.478 . S
C2488 C2490 1.381 . S
C2488 C2494 1.383 . S
C2489 C2485 1.495 . S
C2489 H2495 0.959 . S
C2489 H2496 0.961 . S
C2489 H2497 0.960 . S
C2490 C2488 1.381 . S
C2490 C2491 1.394 . S
C2490 H2498 0.930 . S
C2491 C2490 1.394 . S
C2491 C2492 1.383 . S
C2491 H2499 0.929 . S
C2492 C2491 1.383 . S
C2492 C2493 1.377 . S
C2493 H2477 0.930 . S
C2493 C2492 1.377 . S
C2493 C2494 1.379 . S
C2494 H2478 0.931 . S
C2494 C2488 1.383 . S
C2494 C2493 1.379 . S
H2495 C2489 0.959 . S
H2496 C2489 0.961 . S
H2497 C2489 0.960 . S
H2498 C2490 0.930 . S
H2499 C2491 0.929 . S
H2500 C2508 0.929 . S
H2501 C2510 0.930 . S
H2502 C2512 0.930 . S
H2503 C2515 0.929 . S
H2504 C2518 0.930 . S
H2505 C2520 0.960 . S
H2506 C2520 0.960 . S
H2507 C2520 0.960 . S
C2508 H2500 0.929 . S
C2508 C2509 1.377 . S
C2508 C2510 1.384 . S
C2509 C2508 1.377 . S
C2509 C2515 1.390 . S
C2510 H2501 0.930 . S
C2510 C2508 1.384 . S
C2510 C2511 1.372 . S
C2511 C2510 1.372 . S
C2511 C2512 1.400 . S
C2511 C2516 1.490 . S
C2512 H2502 0.930 . S
C2512 C2511 1.400 . S
C2512 C2515 1.386 . S
H2513 C2529 0.930 . S
H2514 C2530 0.931 . S
C2515 H2503 0.929 . S
C2515 C2509 1.390 . S
C2515 C2512 1.386 . S
C2516 C2511 1.490 . S
C2516 C2518 1.395 . S
C2516 C2519 1.403 . S
H2517 C2523 0.930 . S
C2518 H2504 0.930 . S
C2518 C2516 1.395 . S
C2518 C2521 1.403 . S
C2519 C2516 1.403 . S
C2519 C2520 1.524 . S
C2519 C2523 1.400 . S
C2520 H2505 0.960 . S
C2520 H2506 0.960 . S
C2520 H2507 0.960 . S
C2520 C2519 1.524 . S
C2521 C2518 1.403 . S
C2521 C2522 1.392 . S
C2521 C2525 1.495 . S
C2522 C2521 1.392 . S
C2522 C2523 1.385 . S
C2522 C2524 1.478 . S
C2523 H2517 0.930 . S
C2523 C2519 1.400 . S
C2523 C2522 1.385 . S
C2524 C2522 1.478 . S
C2524 C2526 1.381 . S
C2524 C2530 1.383 . S
C2525 C2521 1.495 . S
C2525 H2531 0.959 . S
C2525 H2532 0.961 . S
C2525 H2533 0.960 . S
C2526 C2524 1.381 . S
C2526 C2527 1.394 . S
C2526 H2534 0.930 . S
C2527 C2526 1.394 . S
C2527 C2528 1.383 . S
C2527 H2535 0.929 . S
C2528 C2527 1.383 . S
C2528 C2529 1.377 . S
C2529 H2513 0.930 . S
C2529 C2528 1.377 . S
C2529 C2530 1.379 . S
C2530 H2514 0.931 . S
C2530 C2524 1.383 . S
C2530 C2529 1.379 . S
H2531 C2525 0.959 . S
H2532 C2525 0.961 . S
H2533 C2525 0.960 . S
H2534 C2526 0.930 . S
H2535 C2527 0.929 . S
H2536 C2544 0.929 . S
H2537 C2546 0.930 . S
H2538 C2548 0.930 . S
H2539 C2551 0.929 . S
H2540 C2554 0.930 . S
H2541 C2556 0.960 . S
H2542 C2556 0.960 . S
H2543 C2556 0.960 . S
C2544 H2536 0.929 . S
C2544 C2545 1.377 . S
C2544 C2546 1.384 . S
C2545 C2544 1.377 . S
C2545 C2551 1.390 . S
C2546 H2537 0.930 . S
C2546 C2544 1.384 . S
C2546 C2547 1.372 . S
C2547 C2546 1.372 . S
C2547 C2548 1.400 . S
C2547 C2552 1.490 . S
C2548 H2538 0.930 . S
C2548 C2547 1.400 . S
C2548 C2551 1.386 . S
H2549 C2565 0.930 . S
H2550 C2566 0.931 . S
C2551 H2539 0.929 . S
C2551 C2545 1.390 . S
C2551 C2548 1.386 . S
C2552 C2547 1.490 . S
C2552 C2554 1.395 . S
C2552 C2555 1.403 . S
H2553 C2559 0.930 . S
C2554 H2540 0.930 . S
C2554 C2552 1.395 . S
C2554 C2557 1.403 . S
C2555 C2552 1.403 . S
C2555 C2556 1.524 . S
C2555 C2559 1.400 . S
C2556 H2541 0.960 . S
C2556 H2542 0.960 . S
C2556 H2543 0.960 . S
C2556 C2555 1.524 . S
C2557 C2554 1.403 . S
C2557 C2558 1.392 . S
C2557 C2561 1.495 . S
C2558 C2557 1.392 . S
C2558 C2559 1.385 . S
C2558 C2560 1.478 . S
C2559 H2553 0.930 . S
C2559 C2555 1.400 . S
C2559 C2558 1.385 . S
C2560 C2558 1.478 . S
C2560 C2562 1.381 . S
C2560 C2566 1.383 . S
C2561 C2557 1.495 . S
C2561 H2567 0.959 . S
C2561 H2568 0.961 . S
C2561 H2569 0.960 . S
C2562 C2560 1.381 . S
C2562 C2563 1.394 . S
C2562 H2570 0.930 . S
C2563 C2562 1.394 . S
C2563 C2564 1.383 . S
C2563 H2571 0.929 . S
C2564 C2563 1.383 . S
C2564 C2565 1.377 . S
C2565 H2549 0.930 . S
C2565 C2564 1.377 . S
C2565 C2566 1.379 . S
C2566 H2550 0.931 . S
C2566 C2560 1.383 . S
C2566 C2565 1.379 . S
H2567 C2561 0.959 . S
H2568 C2561 0.961 . S
H2569 C2561 0.960 . S
H2570 C2562 0.930 . S
H2571 C2563 0.929 . S
H2572 C2580 0.929 . S
H2573 C2582 0.930 . S
H2574 C2584 0.930 . S
H2575 C2587 0.929 . S
H2576 C2590 0.930 . S
H2577 C2592 0.960 . S
H2578 C2592 0.960 . S
H2579 C2592 0.960 . S
C2580 H2572 0.929 . S
C2580 C2581 1.377 . S
C2580 C2582 1.384 . S
C2581 C2580 1.377 . S
C2581 C2587 1.390 . S
C2582 H2573 0.930 . S
C2582 C2580 1.384 . S
C2582 C2583 1.372 . S
C2583 C2582 1.372 . S
C2583 C2584 1.400 . S
C2583 C2588 1.490 . S
C2584 H2574 0.930 . S
C2584 C2583 1.400 . S
C2584 C2587 1.386 . S
H2585 C2601 0.930 . S
H2586 C2602 0.931 . S
C2587 H2575 0.929 . S
C2587 C2581 1.390 . S
C2587 C2584 1.386 . S
C2588 C2583 1.490 . S
C2588 C2590 1.395 . S
C2588 C2591 1.403 . S
H2589 C2595 0.930 . S
C2590 H2576 0.930 . S
C2590 C2588 1.395 . S
C2590 C2593 1.403 . S
C2591 C2588 1.403 . S
C2591 C2592 1.524 . S
C2591 C2595 1.400 . S
C2592 H2577 0.960 . S
C2592 H2578 0.960 . S
C2592 H2579 0.960 . S
C2592 C2591 1.524 . S
C2593 C2590 1.403 . S
C2593 C2594 1.392 . S
C2593 C2597 1.495 . S
C2594 C2593 1.392 . S
C2594 C2595 1.385 . S
C2594 C2596 1.478 . S
C2595 H2589 0.930 . S
C2595 C2591 1.400 . S
C2595 C2594 1.385 . S
C2596 C2594 1.478 . S
C2596 C2598 1.381 . S
C2596 C2602 1.383 . S
C2597 C2593 1.495 . S
C2597 H2603 0.959 . S
C2597 H2604 0.961 . S
C2597 H2605 0.960 . S
C2598 C2596 1.381 . S
C2598 C2599 1.394 . S
C2598 H2606 0.930 . S
C2599 C2598 1.394 . S
C2599 C2600 1.383 . S
C2599 H2607 0.929 . S
C2600 C2599 1.383 . S
C2600 C2601 1.377 . S
C2601 H2585 0.930 . S
C2601 C2600 1.377 . S
C2601 C2602 1.379 . S
C2602 H2586 0.931 . S
C2602 C2596 1.383 . S
C2602 C2601 1.379 . S
H2603 C2597 0.959 . S
H2604 C2597 0.961 . S
H2605 C2597 0.960 . S
H2606 C2598 0.930 . S
H2607 C2599 0.929 . S
H2608 C2616 0.929 . S
H2609 C2618 0.930 . S
H2610 C2620 0.891 1_556 S
H2611 C2623 0.929 . S
H2612 C2626 0.930 . S
H2613 C2628 0.960 . S
H2614 C2628 0.960 . S
H2615 C2628 0.960 . S
C2616 H2608 0.929 . S
C2616 C2617 1.377 . S
C2616 C2618 1.384 . S
C2617 C2616 1.377 . S
C2617 C2623 1.390 . S
C2618 H2609 0.930 . S
C2618 C2616 1.384 . S
C2618 C2619 1.372 . S
C2619 C2618 1.372 . S
C2619 C2620 1.400 . S
C2619 C2624 1.503 . S
C2620 H2610 0.891 1_554 S
C2620 C2619 1.400 . S
C2620 C2623 1.386 . S
H2621 C2637 0.930 . S
H2622 C2638 0.931 . S
C2623 H2611 0.929 . S
C2623 C2617 1.390 . S
C2623 C2620 1.386 . S
C2624 C2619 1.503 . S
C2624 C2626 1.401 . S
C2624 C2627 1.384 1_554 S
H2625 C2631 0.930 . S
C2626 H2612 0.930 . S
C2626 C2624 1.401 . S
C2626 C2629 1.403 1_554 S
C2627 C2624 1.384 1_556 S
C2627 C2628 1.524 . S
C2627 C2631 1.400 . S
C2628 H2613 0.960 . S
C2628 H2614 0.960 . S
C2628 H2615 0.960 . S
C2628 C2627 1.524 . S
C2629 C2626 1.403 1_556 S
C2629 C2630 1.392 . S
C2629 C2633 1.495 1_556 S
C2630 C2629 1.392 . S
C2630 C2631 1.385 . S
C2630 C2632 1.478 . S
C2631 H2625 0.930 . S
C2631 C2627 1.400 . S
C2631 C2630 1.385 . S
C2632 C2630 1.478 . S
C2632 C2634 1.381 . S
C2632 C2638 1.383 . S
C2633 C2629 1.495 1_554 S
C2633 H2639 0.959 . S
C2633 H2640 0.961 1_554 S
C2633 H2641 0.959 1_554 S
C2634 C2632 1.381 . S
C2634 C2635 1.394 . S
C2634 H2642 0.930 . S
C2635 C2634 1.394 . S
C2635 C2636 1.383 . S
C2635 H2643 0.929 . S
C2636 C2635 1.383 . S
C2636 C2637 1.377 . S
C2637 H2621 0.930 . S
C2637 C2636 1.377 . S
C2637 C2638 1.379 . S
C2638 H2622 0.931 . S
C2638 C2632 1.383 . S
C2638 C2637 1.379 . S
H2639 C2633 0.959 . S
H2640 C2633 0.961 1_556 S
H2641 C2633 0.959 1_556 S
H2642 C2634 0.930 . S
H2643 C2635 0.929 . S
H2644 C2652 0.929 . S
H2645 C2654 0.930 . S
H2646 C2656 0.930 . S
H2647 C2659 0.929 . S
H2648 C2662 0.930 . S
H2649 C2664 0.960 . S
H2650 C2664 0.960 . S
H2651 C2664 0.960 . S
C2652 H2644 0.929 . S
C2652 C2653 1.377 . S
C2652 C2654 1.384 . S
C2653 C2652 1.377 . S
C2653 C2659 1.390 . S
C2654 H2645 0.930 . S
C2654 C2652 1.384 . S
C2654 C2655 1.372 . S
C2655 C2654 1.372 . S
C2655 C2656 1.400 . S
C2655 C2660 1.490 . S
C2656 H2646 0.930 . S
C2656 C2655 1.400 . S
C2656 C2659 1.386 . S
H2657 C2673 0.930 . S
H2658 C2674 0.931 . S
C2659 H2647 0.929 . S
C2659 C2653 1.390 . S
C2659 C2656 1.386 . S
C2660 C2655 1.490 . S
C2660 C2662 1.395 . S
C2660 C2663 1.403 . S
H2661 C2667 0.930 . S
C2662 H2648 0.930 . S
C2662 C2660 1.395 . S
C2662 C2665 1.403 . S
C2663 C2660 1.403 . S
C2663 C2664 1.524 . S
C2663 C2667 1.400 . S
C2664 H2649 0.960 . S
C2664 H2650 0.960 . S
C2664 H2651 0.960 . S
C2664 C2663 1.524 . S
C2665 C2662 1.403 . S
C2665 C2666 1.392 . S
C2665 C2669 1.495 . S
C2666 C2665 1.392 . S
C2666 C2667 1.385 . S
C2666 C2668 1.478 . S
C2667 H2661 0.930 . S
C2667 C2663 1.400 . S
C2667 C2666 1.385 . S
C2668 C2666 1.478 . S
C2668 C2670 1.381 . S
C2668 C2674 1.383 . S
C2669 C2665 1.495 . S
C2669 H2675 0.959 . S
C2669 H2676 0.961 . S
C2669 H2677 0.960 . S
C2670 C2668 1.381 . S
C2670 C2671 1.394 . S
C2670 H2678 0.930 . S
C2671 C2670 1.394 . S
C2671 C2672 1.383 . S
C2671 H2679 0.929 . S
C2672 C2671 1.383 . S
C2672 C2673 1.377 . S
C2673 H2657 0.930 . S
C2673 C2672 1.377 . S
C2673 C2674 1.379 . S
C2674 H2658 0.931 . S
C2674 C2668 1.383 . S
C2674 C2673 1.379 . S
H2675 C2669 0.959 . S
H2676 C2669 0.961 . S
H2677 C2669 0.960 . S
H2678 C2670 0.930 . S
H2679 C2671 0.929 . S
H2680 C2688 0.929 . S
H2681 C2690 0.930 . S
H2682 C2692 0.930 . S
H2683 C2695 0.929 . S
H2684 C2698 0.930 . S
H2685 C2700 0.960 . S
H2686 C2700 0.960 . S
H2687 C2700 0.960 . S
C2688 H2680 0.929 . S
C2688 C2689 1.377 . S
C2688 C2690 1.384 . S
C2689 C2688 1.377 . S
C2689 C2695 1.390 . S
C2690 H2681 0.930 . S
C2690 C2688 1.384 . S
C2690 C2691 1.372 . S
C2691 C2690 1.372 . S
C2691 C2692 1.400 . S
C2691 C2696 1.490 . S
C2692 H2682 0.930 . S
C2692 C2691 1.400 . S
C2692 C2695 1.386 . S
H2693 C2709 0.930 . S
H2694 C2710 0.931 . S
C2695 H2683 0.929 . S
C2695 C2689 1.390 . S
C2695 C2692 1.386 . S
C2696 C2691 1.490 . S
C2696 C2698 1.395 . S
C2696 C2699 1.403 . S
H2697 C2703 0.930 . S
C2698 H2684 0.930 . S
C2698 C2696 1.395 . S
C2698 C2701 1.403 . S
C2699 C2696 1.403 . S
C2699 C2700 1.524 . S
C2699 C2703 1.400 . S
C2700 H2685 0.960 . S
C2700 H2686 0.960 . S
C2700 H2687 0.960 . S
C2700 C2699 1.524 . S
C2701 C2698 1.403 . S
C2701 C2702 1.392 . S
C2701 C2705 1.495 . S
C2702 C2701 1.392 . S
C2702 C2703 1.385 . S
C2702 C2704 1.478 . S
C2703 H2697 0.930 . S
C2703 C2699 1.400 . S
C2703 C2702 1.385 . S
C2704 C2702 1.478 . S
C2704 C2706 1.381 . S
C2704 C2710 1.383 . S
C2705 C2701 1.495 . S
C2705 H2711 0.959 . S
C2705 H2712 0.961 . S
C2705 H2713 0.960 . S
C2706 C2704 1.381 . S
C2706 C2707 1.394 . S
C2706 H2714 0.930 . S
C2707 C2706 1.394 . S
C2707 C2708 1.383 . S
C2707 H2715 0.929 . S
C2708 C2707 1.383 . S
C2708 C2709 1.377 . S
C2709 H2693 0.930 . S
C2709 C2708 1.377 . S
C2709 C2710 1.379 . S
C2710 H2694 0.931 . S
C2710 C2704 1.383 . S
C2710 C2709 1.379 . S
H2711 C2705 0.959 . S
H2712 C2705 0.961 . S
H2713 C2705 0.960 . S
H2714 C2706 0.930 . S
H2715 C2707 0.929 . S
H2716 C2724 0.929 . S
H2717 C2726 0.930 . S
H2718 C2728 0.930 . S
H2719 C2731 0.929 . S
H2720 C2734 0.930 . S
H2721 C2736 0.960 . S
H2722 C2736 0.960 . S
H2723 C2736 0.960 . S
C2724 H2716 0.929 . S
C2724 C2725 1.377 . S
C2724 C2726 1.384 . S
C2725 C2724 1.377 . S
C2725 C2731 1.390 . S
C2726 H2717 0.930 . S
C2726 C2724 1.384 . S
C2726 C2727 1.372 . S
C2727 C2726 1.372 . S
C2727 C2728 1.400 . S
C2727 C2732 1.490 . S
C2728 H2718 0.930 . S
C2728 C2727 1.400 . S
C2728 C2731 1.386 . S
H2729 C2745 0.930 . S
H2730 C2746 0.931 . S
C2731 H2719 0.929 . S
C2731 C2725 1.390 . S
C2731 C2728 1.386 . S
C2732 C2727 1.490 . S
C2732 C2734 1.395 . S
C2732 C2735 1.403 . S
H2733 C2739 0.930 . S
C2734 H2720 0.930 . S
C2734 C2732 1.395 . S
C2734 C2737 1.403 . S
C2735 C2732 1.403 . S
C2735 C2736 1.524 . S
C2735 C2739 1.400 . S
C2736 H2721 0.960 . S
C2736 H2722 0.960 . S
C2736 H2723 0.960 . S
C2736 C2735 1.524 . S
C2737 C2734 1.403 . S
C2737 C2738 1.392 . S
C2737 C2741 1.495 . S
C2738 C2737 1.392 . S
C2738 C2739 1.385 . S
C2738 C2740 1.478 . S
C2739 H2733 0.930 . S
C2739 C2735 1.400 . S
C2739 C2738 1.385 . S
C2740 C2738 1.478 . S
C2740 C2742 1.381 . S
C2740 C2746 1.383 . S
C2741 C2737 1.495 . S
C2741 H2747 0.959 . S
C2741 H2748 0.961 . S
C2741 H2749 0.960 . S
C2742 C2740 1.381 . S
C2742 C2743 1.394 . S
C2742 H2750 0.930 . S
C2743 C2742 1.394 . S
C2743 C2744 1.383 . S
C2743 H2751 0.929 . S
C2744 C2743 1.383 . S
C2744 C2745 1.377 . S
C2745 H2729 0.930 . S
C2745 C2744 1.377 . S
C2745 C2746 1.379 . S
C2746 H2730 0.931 . S
C2746 C2740 1.383 . S
C2746 C2745 1.379 . S
H2747 C2741 0.959 . S
H2748 C2741 0.961 . S
H2749 C2741 0.960 . S
H2750 C2742 0.930 . S
H2751 C2743 0.929 . S
C457 C7 0.413 . S
C476 C189 0.348 . S
C493 C357 1.026 . S
C512 C21 1.009 . S
C529 C35 2.038 . S
C548 C217 2.010 . S
C565 C49 2.045 . S
C584 C343 2.045 . S
C601 C63 1.038 . S
C620 C245 1.011 . S
C637 C77 0.709 . S
C656 C315 0.668 . S
C673 C91 0.718 . S
C692 C273 0.711 . S
C709 C441 0.381 . S
C728 C105 0.381 . S
C745 C301 1.027 . S
C764 C119 1.007 . S
C781 C133 0.713 . S
C800 C259 0.685 . S
C817 C329 0.728 . S
C836 C147 0.768 . S
C853 C161 2.043 . S
C872 C231 2.032 . S
C889 C203 1.037 . S
C908 C175 1.062 . S
C925 C287 0.399 . S
C944 C399 0.480 . S
C961 C413 0.383 . S
C980 C371 0.356 . S
C997 C427 2.029 . S
C1016 C385 2.021 . S
C1033 C3 1.348 . S
C1052 C23 1.343 . S
C1069 C36 1.586 . S
C1088 C22 1.563 . S
C1105 C45 1.020 . S
C1124 C31 1.017 . S
C1141 C51 1.741 . S
C1160 C8 1.754 . S
C1177 C101 1.354 . S
C1196 C65 1.349 . S
C1213 C79 1.647 . S
C1232 C59 1.642 . S
C1249 C87 1.201 . S
C1268 C73 1.180 . S
C1285 C92 1.785 . S
C1304 C107 1.743 . S
C1321 C134 1.785 . S
C1340 C9 1.771 . S
C1357 C120 1.576 . S
C1376 C50 1.580 . S
C1393 C149 1.645 . S
C1412 C17 1.648 . S
C1429 C387 1.740 . S
C1448 C106 1.761 . S
C1465 C400 1.762 . S
C1484 C37 1.738 . S
C1501 C162 1.586 . S
C1520 C64 1.579 . S
C1537 C93 1.646 . S
C1556 C171 1.639 . S
C1573 C204 1.343 . S
C1592 C185 1.328 . S
C1609 C219 1.642 . S
C1628 C205 1.646 . S
C1645 C227 1.126 . S
C1664 C213 1.118 . S
C1681 C191 1.756 . S
C1700 C232 1.763 . S
C1717 C246 1.343 . S
C1736 C283 1.337 . S
C1753 C241 1.637 . S
C1772 C260 1.638 . S
C1789 C269 1.196 . S
C1808 C255 1.193 . S
C1825 C275 1.736 . S
C1844 C288 1.736 . S
C1861 C190 1.748 . S
C1880 C317 1.741 . S
C1897 C303 1.639 . S
C1916 C233 1.654 . S
C1933 C330 1.645 . S
C1952 C199 1.629 . S
C1969 C428 1.767 . S
C1988 C289 1.736 . S
C2005 C443 1.750 . S
C2024 C218 1.762 . S
C2041 C247 1.634 . S
C2060 C345 1.643 . S
C2077 C353 1.636 . S
C2096 C274 1.649 . S
C2113 C177 1.352 . S
C2132 C367 1.347 . S
C2149 C386 1.586 . S
C2168 C176 1.559 . S
C2185 C157 1.020 . S
C2204 C381 1.032 . S
C2221 C163 1.742 . S
C2240 C372 1.753 . S
C2257 C121 1.352 . S
C2276 C395 1.348 . S
C2293 C135 1.648 . S
C2312 C115 1.644 . S
C2329 C143 1.208 . S
C2348 C129 1.218 . S
C2365 C148 1.785 . S
C2384 C401 1.748 . S
C2401 C373 1.761 . S
C2420 C78 1.785 . S
C2437 C358 1.343 . S
C2456 C409 1.317 . S
C2473 C359 1.641 . S
C2492 C429 1.631 . S
C2509 C423 1.122 . S
C2528 C339 1.136 . S
C2545 C344 1.769 . S
C2564 C415 1.761 . S
C2581 C437 1.333 . S
C2600 C302 1.327 . S
C2617 C297 1.630 . S
C2636 C316 1.630 . S
C2653 C325 1.194 . S
C2672 C311 1.212 . S
C2689 C331 1.742 . S
C2708 C442 1.751 . S
C2725 C414 1.743 . S
C2744 C261 1.723 . S
